# Generated by pormake.
# Topology vmx, (8)-cn, num edge types: 1
# Building blocks:
#     Node 0, Type 0, BuildingBlock: TAGTUT_clean_sbu_3, # of connection points: 8
#     Node 1, Type 0, BuildingBlock: TAGTUT_clean_sbu_3, # of connection points: 8
#     Node 2, Type 0, BuildingBlock: TAGTUT_clean_sbu_3, # of connection points: 8
#     Node 3, Type 0, BuildingBlock: TAGTUT_clean_sbu_3, # of connection points: 8
#     Node 4, Type 0, BuildingBlock: TAGTUT_clean_sbu_3, # of connection points: 8
#     Node 5, Type 0, BuildingBlock: TAGTUT_clean_sbu_3, # of connection points: 8
#     Node 6, Type 0, BuildingBlock: TAGTUT_clean_sbu_3, # of connection points: 8
#     Node 7, Type 0, BuildingBlock: TAGTUT_clean_sbu_3, # of connection points: 8
#     Edge 8, Type (0, 0), BuildingBlock: KIFKEQ_clean_linker_1, # of connection points: 2
#     Edge 9, Type (0, 0), BuildingBlock: KIFKEQ_clean_linker_1, # of connection points: 2
#     Edge 10, Type (0, 0), BuildingBlock: KIFKEQ_clean_linker_1, # of connection points: 2
#     Edge 11, Type (0, 0), BuildingBlock: KIFKEQ_clean_linker_1, # of connection points: 2
#     Edge 12, Type (0, 0), BuildingBlock: KIFKEQ_clean_linker_1, # of connection points: 2
#     Edge 13, Type (0, 0), BuildingBlock: KIFKEQ_clean_linker_1, # of connection points: 2
#     Edge 14, Type (0, 0), BuildingBlock: KIFKEQ_clean_linker_1, # of connection points: 2
#     Edge 15, Type (0, 0), BuildingBlock: KIFKEQ_clean_linker_1, # of connection points: 2
#     Edge 16, Type (0, 0), BuildingBlock: KIFKEQ_clean_linker_1, # of connection points: 2
#     Edge 17, Type (0, 0), BuildingBlock: KIFKEQ_clean_linker_1, # of connection points: 2
#     Edge 18, Type (0, 0), BuildingBlock: KIFKEQ_clean_linker_1, # of connection points: 2
#     Edge 19, Type (0, 0), BuildingBlock: KIFKEQ_clean_linker_1, # of connection points: 2
#     Edge 20, Type (0, 0), BuildingBlock: KIFKEQ_clean_linker_1, # of connection points: 2
#     Edge 21, Type (0, 0), BuildingBlock: KIFKEQ_clean_linker_1, # of connection points: 2
#     Edge 22, Type (0, 0), BuildingBlock: KIFKEQ_clean_linker_1, # of connection points: 2
#     Edge 23, Type (0, 0), BuildingBlock: KIFKEQ_clean_linker_1, # of connection points: 2
#     Edge 24, Type (0, 0), BuildingBlock: KIFKEQ_clean_linker_1, # of connection points: 2
#     Edge 25, Type (0, 0), BuildingBlock: KIFKEQ_clean_linker_1, # of connection points: 2
#     Edge 26, Type (0, 0), BuildingBlock: KIFKEQ_clean_linker_1, # of connection points: 2
#     Edge 27, Type (0, 0), BuildingBlock: KIFKEQ_clean_linker_1, # of connection points: 2
#     Edge 28, Type (0, 0), BuildingBlock: KIFKEQ_clean_linker_1, # of connection points: 2
#     Edge 29, Type (0, 0), BuildingBlock: KIFKEQ_clean_linker_1, # of connection points: 2
#     Edge 30, Type (0, 0), BuildingBlock: KIFKEQ_clean_linker_1, # of connection points: 2
#     Edge 31, Type (0, 0), BuildingBlock: KIFKEQ_clean_linker_1, # of connection points: 2
#     Edge 32, Type (0, 0), BuildingBlock: KIFKEQ_clean_linker_1, # of connection points: 2
#     Edge 33, Type (0, 0), BuildingBlock: KIFKEQ_clean_linker_1, # of connection points: 2
#     Edge 34, Type (0, 0), BuildingBlock: KIFKEQ_clean_linker_1, # of connection points: 2
#     Edge 35, Type (0, 0), BuildingBlock: KIFKEQ_clean_linker_1, # of connection points: 2
#     Edge 36, Type (0, 0), BuildingBlock: KIFKEQ_clean_linker_1, # of connection points: 2
#     Edge 37, Type (0, 0), BuildingBlock: KIFKEQ_clean_linker_1, # of connection points: 2
#     Edge 38, Type (0, 0), BuildingBlock: KIFKEQ_clean_linker_1, # of connection points: 2
#     Edge 39, Type (0, 0), BuildingBlock: KIFKEQ_clean_linker_1, # of connection points: 2
# Relax obj value: 0.257
# Max RMSD: 0.281
# Mean RMSD: 0.281
data_MOF--net-vmx--node1-TAGTUT_clean_sbu_3--edge1-KIFKEQ_clean_linker_1
_symmetry_space_group_name_H-M    P1
_symmetry_Int_Tables_number       1
_symmetry_cell_setting            triclinic
loop_
_symmetry_equiv_pos_as_xyz
'x, y, z'
_cell_length_a     30.660167
_cell_length_b     60.03083
_cell_length_c     18.733108
_cell_angle_alpha  89.917342
_cell_angle_beta   107.01797
_cell_angle_gamma 89.988833
loop_
_atom_site_label
_atom_site_type_symbol
_atom_site_fract_x
_atom_site_fract_y
_atom_site_fract_z
_atom_type_partial_charge
C0 C 0.38074 0.35945 0.49384 0.0
C1 C 0.37064 0.30291 0.28775 0.0
C2 C 0.26352 0.34577 0.15231 0.0
Mg3 Mg 0.31431 0.39514 0.52307 0.0
Mg4 Mg 0.20244 0.39363 0.47556 0.0
O5 O 0.25446 0.38854 0.44618 0.0
Mg6 Mg 0.27322 0.36173 0.39613 0.0
O7 O 0.30179 0.33756 0.34959 0.0
Mg8 Mg 0.34569 0.35622 0.31357 0.0
Mg9 Mg 0.2718 0.31525 0.28414 0.0
C10 C 0.16226 0.36961 0.31663 0.0
O11 O 0.23995 0.3331 0.4464 0.0
O12 O 0.2861 0.42841 0.5462 0.0
O13 O 0.228 0.30779 0.3522 0.0
O14 O 0.28844 0.37841 0.61466 0.0
O15 O 0.20964 0.42888 0.50591 0.0
O16 O 0.21275 0.37438 0.57402 0.0
O17 O 0.30629 0.38664 0.33727 0.0
O18 O 0.33406 0.41168 0.42641 0.0
C19 C 0.32558 0.40528 0.35857 0.0
C20 C 0.24804 0.43851 0.53505 0.0
O21 O 0.20059 0.36295 0.3082 0.0
O22 O 0.37976 0.32374 0.2956 0.0
O23 O 0.15836 0.38004 0.37424 0.0
O24 O 0.29914 0.35537 0.19356 0.0
O25 O 0.33101 0.29501 0.28291 0.0
O26 O 0.24384 0.33012 0.17694 0.0
O27 O 0.33904 0.36201 0.49102 0.0
O28 O 0.39217 0.35669 0.43423 0.0
C29 C 0.25085 0.37155 0.62367 0.0
C30 C 0.22193 0.315 0.41323 0.0
C31 C 0.6216 0.36812 -0.00689 0.0
C32 C 0.64586 0.31388 0.2092 0.0
C33 C 0.74539 0.36195 0.3339 0.0
Mg34 Mg 0.68002 0.40563 0.95367 0.0
Mg35 Mg 0.79146 0.41208 0.00287 0.0
O36 O 0.74112 0.40249 0.0302 0.0
Mg37 Mg 0.72861 0.37555 0.08626 0.0
O38 O 0.70584 0.35086 0.13863 0.0
Mg39 Mg 0.65947 0.36792 0.17346 0.0
Mg40 Mg 0.74126 0.33049 0.20663 0.0
C41 C 0.83821 0.38908 0.16208 0.0
O42 O 0.7647 0.34773 0.03779 0.0
O43 O 0.69976 0.43973 0.9219 0.0
O44 O 0.78426 0.32389 0.13658 0.0
O45 O 0.70982 0.3896 0.86576 0.0
O46 O 0.77426 0.44666 0.96926 0.0
O47 O 0.7859 0.3928 0.90557 0.0
O48 O 0.69256 0.39994 0.14338 0.0
O49 O 0.65856 0.42217 0.04803 0.0
C50 C 0.67033 0.41767 0.11793 0.0
C51 C 0.73376 0.45291 0.93347 0.0
O52 O 0.80177 0.37989 0.17008 0.0
O53 O 0.63235 0.33414 0.19792 0.0
O54 O 0.83919 0.40074 0.10498 0.0
O55 O 0.70754 0.36961 0.29253 0.0
O56 O 0.68681 0.30789 0.2142 0.0
O57 O 0.76783 0.34726 0.31051 0.0
O58 O 0.66244 0.37222 -0.00605 0.0
O59 O 0.61144 0.36564 0.05397 0.0
C60 C 0.7494 0.38622 0.85766 0.0
C61 C 0.78636 0.33052 0.07233 0.0
C62 C 0.62288 0.6328 0.47444 0.0
C63 C 0.63567 0.6897 0.68002 0.0
C64 C 0.74174 0.64659 0.81487 0.0
Mg65 Mg 0.68723 0.59727 0.4434 0.0
Mg66 Mg 0.79898 0.5983 0.48735 0.0
O67 O 0.74795 0.60334 0.51915 0.0
Mg68 Mg 0.73054 0.63026 0.57034 0.0
O69 O 0.70299 0.65454 0.61764 0.0
Mg70 Mg 0.65886 0.63615 0.65424 0.0
Mg71 Mg 0.73416 0.67674 0.68247 0.0
C72 C 0.84157 0.62194 0.64649 0.0
O73 O 0.7631 0.65873 0.51856 0.0
O74 O 0.71409 0.56389 0.41797 0.0
O75 O 0.77726 0.68409 0.61272 0.0
O76 O 0.71111 0.61421 0.35021 0.0
O77 O 0.79058 0.56315 0.45566 0.0
O78 O 0.78694 0.61799 0.38967 0.0
O79 O 0.6977 0.60555 0.63033 0.0
O80 O 0.66875 0.58062 0.54136 0.0
C81 C 0.67803 0.58698 0.60937 0.0
C82 C 0.75189 0.55367 0.42752 0.0
O83 O 0.80369 0.6287 0.65639 0.0
O84 O 0.6258 0.66894 0.67217 0.0
O85 O 0.84456 0.61158 0.58815 0.0
O86 O 0.70585 0.63719 0.7737 0.0
O87 O 0.6755 0.69729 0.68451 0.0
O88 O 0.76201 0.66196 0.79005 0.0
O89 O 0.66449 0.63043 0.47725 0.0
O90 O 0.61126 0.63522 0.53399 0.0
C91 C 0.74862 0.62111 0.34086 0.0
C92 C 0.78162 0.6769 0.55046 0.0
C93 C 0.38606 0.62286 0.9718 0.0
C94 C 0.3615 0.67749 0.75863 0.0
C95 C 0.26007 0.63064 0.63299 0.0
Mg96 Mg 0.32738 0.58653 0.01329 0.0
Mg97 Mg 0.21584 0.58149 0.96884 0.0
O98 O 0.26567 0.58996 0.93848 0.0
Mg99 Mg 0.27843 0.61659 0.88131 0.0
O100 O 0.30131 0.64086 0.82822 0.0
Mg101 Mg 0.34663 0.62338 0.7921 0.0
Mg102 Mg 0.26561 0.6616 0.76209 0.0
C103 C 0.16781 0.60428 0.80986 0.0
O104 O 0.24652 0.64505 0.9327 0.0
O105 O 0.30678 0.55291 0.04744 0.0
O106 O 0.22332 0.6686 0.83362 0.0
O107 O 0.30086 0.6036 0.10323 0.0
O108 O 0.23173 0.5469 0.00364 0.0
O109 O 0.22453 0.60151 0.06518 0.0
O110 O 0.31219 0.5917 0.82214 0.0
O111 O 0.34593 0.56924 0.91709 0.0
C112 C 0.3336 0.57372 0.84712 0.0
C113 C 0.27217 0.54021 0.03792 0.0
O114 O 0.20422 0.61304 0.80016 0.0
O115 O 0.37451 0.65712 0.76855 0.0
O116 O 0.1672 0.59289 0.86768 0.0
O117 O 0.29766 0.62256 0.67379 0.0
O118 O 0.32083 0.68373 0.75476 0.0
O119 O 0.23821 0.64542 0.65726 0.0
O120 O 0.34514 0.61942 0.9711 0.0
O121 O 0.39641 0.62475 0.91095 0.0
C122 C 0.26172 0.60779 0.11202 0.0
C123 C 0.22498 0.66251 0.90023 0.0
C124 C 0.83033 0.90317 0.48404 0.0
C125 C 0.79998 0.87024 0.22057 0.0
C126 C 0.67556 0.88665 0.17765 0.0
Mg127 Mg 0.76659 0.91221 0.59007 0.0
Mg128 Mg 0.67028 0.88629 0.58308 0.0
O129 O 0.71007 0.89614 0.5326 0.0
Mg130 Mg 0.72732 0.8843 0.44428 0.0
O131 O 0.74924 0.87617 0.35623 0.0
Mg132 Mg 0.7562 0.90683 0.31642 0.0
Mg133 Mg 0.72349 0.85426 0.28565 0.0
C134 C 0.61891 0.8686 0.41962 0.0
O135 O 0.73964 0.84698 0.47938 0.0
O136 O 0.72678 0.93049 0.65716 0.0
O137 O 0.72007 0.8295 0.3668 0.0
O138 O 0.77987 0.88523 0.68625 0.0
O139 O 0.65591 0.91676 0.63469 0.0
O140 O 0.71357 0.86721 0.67125 0.0
O141 O 0.71671 0.9196 0.39656 0.0
O142 O 0.74579 0.93933 0.50029 0.0
C143 C 0.72598 0.93829 0.43007 0.0
C144 C 0.6868 0.931 0.66509 0.0
O145 O 0.65142 0.87399 0.39196 0.0
O146 O 0.79518 0.89003 0.24311 0.0
O147 O 0.62154 0.87101 0.48887 0.0
O148 O 0.69019 0.90417 0.21585 0.0
O149 O 0.77767 0.85349 0.23392 0.0
O150 O 0.66546 0.86996 0.2117 0.0
O151 O 0.79997 0.89417 0.50913 0.0
O152 O 0.82227 0.90853 0.4152 0.0
C153 C 0.75488 0.87118 0.70875 0.0
C154 C 0.73164 0.82929 0.43843 0.0
C155 C 0.12967 0.90093 0.88257 0.0
C156 C 0.09358 0.86419 0.09865 0.0
C157 C 0.23801 0.86886 0.21261 0.0
Mg158 Mg 0.21982 0.90575 0.83328 0.0
Mg159 Mg 0.31001 0.87212 0.87915 0.0
O160 O 0.26534 0.88728 0.90874 0.0
Mg161 Mg 0.22443 0.87539 0.96465 0.0
O162 O 0.17922 0.8677 0.01858 0.0
Mg163 Mg 0.17331 0.89745 0.06361 0.0
Mg164 Mg 0.18033 0.84327 0.07848 0.0
C165 C 0.32641 0.85335 0.04415 0.0
O166 O 0.21747 0.83901 0.91648 0.0
O167 O 0.27998 0.92103 0.80439 0.0
O168 O 0.19781 0.81993 0.00709 0.0
O169 O 0.21589 0.87912 0.7427 0.0
O170 O 0.34392 0.90051 0.84528 0.0
O171 O 0.27306 0.85468 0.78194 0.0
O172 O 0.23329 0.90903 0.02311 0.0
O173 O 0.22926 0.93143 0.92646 0.0
C174 C 0.23521 0.92845 -0.00376 0.0
C175 C 0.32257 0.91796 0.81401 0.0
O176 O 0.28882 0.86133 0.05101 0.0
O177 O 0.11145 0.88329 0.09449 0.0
O178 O 0.33782 0.8546 -0.01653 0.0
O179 O 0.2201 0.88686 0.18007 0.0
O180 O 0.11324 0.84592 0.09103 0.0
O181 O 0.23027 0.85007 0.18007 0.0
O182 O 0.16311 0.88962 0.87325 0.0
O183 O 0.12755 0.90584 0.94792 0.0
C184 C 0.23782 0.86182 0.73227 0.0
C185 C 0.20987 0.82075 0.9473 0.0
C186 C 0.24857 0.05299 0.539 0.0
C187 C 0.30824 0.05864 0.31879 0.0
C188 C 0.23026 0.11738 0.25833 0.0
Mg189 Mg 0.20182 0.08649 0.62591 0.0
Mg190 Mg 0.22682 0.1394 0.64393 0.0
O191 O 0.20841 0.11584 0.57869 0.0
Mg192 Mg 0.24188 0.10612 0.50736 0.0
O193 O 0.27128 0.09232 0.43586 0.0
Mg194 Mg 0.21818 0.07506 0.37185 0.0
Mg195 Mg 0.31109 0.10516 0.39019 0.0
C196 C 0.23167 0.16072 0.49212 0.0
O197 O 0.31325 0.11942 0.57395 0.0
O198 O 0.15155 0.10402 0.67651 0.0
O199 O 0.35141 0.12264 0.48749 0.0
O200 O 0.25683 0.09477 0.73651 0.0
O201 O 0.16702 0.14074 0.6821 0.0
O202 O 0.28349 0.12904 0.73308 0.0
O203 O 0.17361 0.09363 0.4315 0.0
O204 O 0.14445 0.08011 0.51862 0.0
C205 C 0.1412 0.08425 0.45033 0.0
C206 C 0.14321 0.12411 0.69189 0.0
O207 O 0.23001 0.14207 0.45719 0.0
O208 O 0.26781 0.05694 0.32419 0.0
O209 O 0.23469 0.1623 0.5616 0.0
O210 O 0.20837 0.10071 0.27399 0.0
O211 O 0.33359 0.07567 0.34206 0.0
O212 O 0.26774 0.12407 0.30317 0.0
O213 O 0.25275 0.0725 0.56739 0.0
O214 O 0.23433 0.0501 0.46831 0.0
C215 C 0.28227 0.11098 0.76815 0.0
C216 C 0.34794 0.12579 0.55341 0.0
C217 C 0.83992 0.09702 0.05667 0.0
C218 C 0.84656 0.13244 0.80925 0.0
C219 C 0.70516 0.12442 0.73421 0.0
Mg220 Mg 0.75945 0.09282 0.13202 0.0
Mg221 Mg 0.66833 0.12528 0.10042 0.0
O222 O 0.71012 0.11083 0.06254 0.0
Mg223 Mg 0.74301 0.12186 -0.00796 0.0
O224 O 0.77966 0.12896 0.92265 0.0
Mg225 Mg 0.78237 0.09871 0.87868 0.0
Mg226 Mg 0.76542 0.1521 0.85467 0.0
C227 C 0.63782 0.14305 0.93312 0.0
O228 O 0.75797 0.15836 0.03739 0.0
O229 O 0.70561 0.07733 0.17727 0.0
O230 O 0.76058 0.17684 0.93286 0.0
O231 O 0.76896 0.11984 0.22472 0.0
O232 O 0.64014 0.09683 0.14469 0.0
O233 O 0.71014 0.14359 0.19115 0.0
O234 O 0.72982 0.0874 0.93721 0.0
O235 O 0.74343 0.06671 0.04029 0.0
C236 C 0.73197 0.06841 0.96919 0.0
C237 C 0.66398 0.07999 0.1755 0.0
O238 O 0.67374 0.13563 0.9185 0.0
O239 O 0.83545 0.11314 0.82764 0.0
O240 O 0.63184 0.14178 -0.00194 0.0
O241 O 0.72892 0.10765 0.76594 0.0
O242 O 0.82505 0.15021 0.81615 0.0
O243 O 0.70674 0.1428 0.76858 0.0
O244 O 0.8087 0.10827 0.07321 0.0
O245 O 0.8371 0.09195 -0.0109 0.0
C246 C 0.74685 0.13674 0.23812 0.0
C247 C 0.761 0.17638 0.00137 0.0
H248 H 0.35458 0.52016 0.09358 0.0
H249 H 0.21014 0.50874 0.05466 0.0
H250 H 0.37164 0.48528 0.16126 0.0
H251 H 0.22783 0.47329 0.12266 0.0
H252 H 0.28081 0.40358 0.20939 0.0
H253 H 0.26849 0.43437 0.12055 0.0
H254 H 0.35919 0.47556 0.2883 0.0
H255 H 0.37119 0.44495 0.37783 0.0
C256 C 0.32629 0.51013 0.09876 0.0
C257 C 0.28086 0.5175 0.06984 0.0
C258 C 0.33628 0.49011 0.13752 0.0
C259 C 0.30114 0.4768 0.14773 0.0
C260 C 0.25552 0.48333 0.11516 0.0
C261 C 0.24541 0.5036 0.07655 0.0
C262 C 0.29908 0.41901 0.22696 0.0
C263 C 0.32689 0.42188 0.30096 0.0
C264 C 0.29154 0.43667 0.17619 0.0
C265 C 0.31244 0.45732 0.19801 0.0
C266 C 0.3427 0.45973 0.27018 0.0
C267 C 0.34966 0.44222 0.32136 0.0
H268 H 0.69924 0.52113 0.458 0.0
H269 H 0.79498 0.53485 0.3345 0.0
H270 H 0.67764 0.4862 0.38947 0.0
H271 H 0.77251 0.50008 0.26447 0.0
H272 H 0.66103 0.46205 0.08483 0.0
H273 H 0.68689 0.49274 0.17144 0.0
H274 H 0.71459 0.44705 0.35727 0.0
H275 H 0.68952 0.4159 0.27038 0.0
C276 C 0.71662 0.51626 0.41772 0.0
C277 C 0.74887 0.5305 0.40146 0.0
C278 C 0.70416 0.49638 0.37853 0.0
C279 C 0.723 0.49073 0.32129 0.0
C280 C 0.75734 0.50427 0.30819 0.0
C281 C 0.77056 0.52396 0.34862 0.0
C282 C 0.67156 0.45845 0.14411 0.0
C283 C 0.67352 0.43641 0.17059 0.0
C284 C 0.68702 0.47604 0.19355 0.0
C285 C 0.70383 0.47207 0.27053 0.0
C286 C 0.70235 0.4504 0.29788 0.0
C287 C 0.68764 0.43266 0.24822 0.0
H288 H 0.65071 0.47224 0.87663 0.0
H289 H 0.79488 0.48504 0.91824 0.0
H290 H 0.63273 0.50695 0.80803 0.0
H291 H 0.77628 0.52029 0.84936 0.0
H292 H 0.63333 0.54702 0.59096 0.0
H293 H 0.64548 0.51672 0.68166 0.0
H294 H 0.73447 0.55875 0.84874 0.0
H295 H 0.72205 0.5892 0.75874 0.0
C296 C 0.67873 0.48255 0.87189 0.0
C297 C 0.72438 0.47562 0.90175 0.0
C298 C 0.66822 0.50247 0.83259 0.0
C299 C 0.70303 0.51609 0.82278 0.0
C300 C 0.74881 0.51001 0.85648 0.0
C301 C 0.75945 0.48986 0.89564 0.0
C302 C 0.65452 0.55 0.6475 0.0
C303 C 0.67683 0.57048 0.66737 0.0
C304 C 0.66155 0.53266 0.69937 0.0
C305 C 0.69139 0.5354 0.77175 0.0
C306 C 0.71176 0.55619 0.79298 0.0
C307 C 0.70418 0.57366 0.7415 0.0
H308 H 0.33987 0.52926 0.87944 0.0
H309 H 0.31413 0.57562 0.69476 0.0
H310 H 0.31239 0.49886 0.79223 0.0
H311 H 0.28726 0.54479 0.60728 0.0
H312 H 0.29895 0.47146 0.50259 0.0
H313 H 0.32099 0.50619 0.57208 0.0
H314 H 0.22839 0.49142 0.70051 0.0
H315 H 0.20558 0.45683 0.62963 0.0
C316 C 0.32954 0.53295 0.82022 0.0
C317 C 0.32897 0.55497 0.79415 0.0
C318 C 0.31311 0.51554 0.77042 0.0
C319 C 0.2966 0.51967 0.69347 0.0
C320 C 0.29926 0.54131 0.6666 0.0
C321 C 0.315 0.55886 0.7166 0.0
C322 C 0.28207 0.47613 0.54375 0.0
C323 C 0.25043 0.46168 0.56076 0.0
C324 C 0.29481 0.49589 0.58357 0.0
C325 C 0.27687 0.50119 0.64215 0.0
C326 C 0.24294 0.48748 0.65585 0.0
C327 C 0.22948 0.46791 0.61487 0.0
H328 H 0.63403 0.04181 0.10496 0.0
H329 H 0.65536 0.0758 0.31473 0.0
H330 H 0.64064 0.00613 0.16795 0.0
H331 H 0.65968 0.04 0.3786 0.0
H332 H 0.75379 0.98076 0.47032 0.0
H333 H 0.7217 0.0151 0.40828 0.0
H334 H 0.62376 0.97717 0.23892 0.0
H335 H 0.65755 0.94274 0.2994 0.0
C336 C 0.63702 0.04155 0.16408 0.0
C337 C 0.64388 0.06141 0.20512 0.0
C338 C 0.64126 0.02105 0.20058 0.0
C339 C 0.65215 0.02012 0.27887 0.0
C340 C 0.65274 0.04012 0.31849 0.0
C341 C 0.64912 0.06065 0.28189 0.0
C342 C 0.7256 0.97977 0.41956 0.0
C343 C 0.70861 0.95905 0.38928 0.0
C344 C 0.70656 -0.00051 0.38457 0.0
C345 C 0.66953 -0.00098 0.31898 0.0
C346 C 0.65241 0.97822 0.28894 0.0
C347 C 0.67196 0.95846 0.32339 0.0
H348 H 0.32949 0.0577 0.18748 0.0
H349 H 0.31695 0.01681 0.36968 0.0
H350 H 0.32184 0.02455 0.10879 0.0
H351 H 0.30699 0.98407 0.29167 0.0
H352 H 0.28938 0.9261 0.13978 0.0
H353 H 0.3257 0.95671 0.22003 0.0
H354 H 0.2568 0.0037 0.04862 0.0
H355 H 0.22293 0.9729 0.96683 0.0
C356 C 0.32734 0.04146 0.2116 0.0
C357 C 0.32403 0.03962 0.28437 0.0
C358 C 0.32183 0.02253 0.16622 0.0
C359 C 0.31234 0.00165 0.19298 0.0
C360 C 0.31434 -0.00031 0.26869 0.0
C361 C 0.32028 0.01849 0.31387 0.0
C362 C 0.28178 0.943 0.11955 0.0
C363 C 0.25276 0.94716 0.04749 0.0
C364 C 0.30281 0.96059 0.16544 0.0
C365 C 0.29445 0.9828 0.14108 0.0
C366 C 0.26512 0.98688 0.06889 0.0
C367 C 0.24491 0.96924 0.02238 0.0
H368 H 0.34617 0.9566 0.8858 0.0
H369 H 0.34519 0.92142 0.68514 0.0
H370 H 0.33797 0.99174 0.81946 0.0
H371 H 0.33943 0.95677 0.61846 0.0
H372 H 0.23254 0.00908 0.50621 0.0
H373 H 0.2709 0.97728 0.57738 0.0
H374 H 0.3513 0.02154 0.74746 0.0
H375 H 0.31119 0.05341 0.67724 0.0
C376 C 0.34761 0.9566 0.82865 0.0
C377 C 0.34601 0.93643 0.79025 0.0
C378 C 0.34239 0.97678 0.79012 0.0
C379 C 0.33609 0.97702 0.71271 0.0
C380 C 0.34243 0.95706 0.67751 0.0
C381 C 0.34696 0.93682 0.716 0.0
C382 C 0.25813 0.01201 0.5591 0.0
C383 C 0.26844 0.03372 0.58644 0.0
C384 C 0.28089 0.99378 0.59937 0.0
C385 C 0.31506 -0.00321 0.66765 0.0
C386 C 0.32519 0.01856 0.69523 0.0
C387 C 0.30192 0.03683 0.65528 0.0
H388 H 0.7293 0.93536 0.81076 0.0
H389 H 0.62885 0.9664 0.62691 0.0
H390 H 0.73337 0.96884 0.8852 0.0
H391 H 0.63229 0.00028 0.70195 0.0
H392 H 0.71438 0.06326 0.81758 0.0
H393 H 0.69241 0.029 0.74559 0.0
H394 H 0.69444 0.99357 0.94748 0.0
H395 H 0.7174 0.02737 0.01931 0.0
C396 C 0.70679 0.94917 0.78756 0.0
C397 C 0.67839 0.9484 0.71391 0.0
C398 C 0.70912 0.96837 0.82999 0.0
C399 C 0.68338 0.98728 0.79922 0.0
C400 C 0.65284 0.98602 0.72673 0.0
C401 C 0.65029 0.96661 0.68428 0.0
C402 C 0.71014 0.04814 0.84644 0.0
C403 C 0.7185 0.04796 0.9243 0.0
C404 C 0.697 0.02859 0.80515 0.0
C405 C 0.69177 0.00858 0.84097 0.0
C406 C 0.69879 0.00864 0.91842 0.0
C407 C 0.71215 0.02804 0.95959 0.0
H408 H 0.87091 0.34708 0.1893 0.0
H409 H 0.90785 0.41609 0.23249 0.0
H410 H 0.95114 0.33738 0.20973 0.0
H411 H 0.98795 0.4065 0.25571 0.0
H412 H 0.11283 0.39436 0.20066 0.0
H413 H 0.0299 0.39621 0.16895 0.0
H414 H 0.02928 0.33554 0.29298 0.0
H415 H 0.11206 0.33345 0.32197 0.0
C416 C 0.89648 0.35996 0.20733 0.0
C417 C 0.88336 0.38232 0.20955 0.0
C418 C 0.94234 0.35448 0.21765 0.0
C419 C 0.97563 0.37133 0.23099 0.0
C420 C 0.96287 0.39326 0.24225 0.0
C421 C 0.91718 0.39871 0.23122 0.0
C422 C 0.09464 0.38066 0.21668 0.0
C423 C 0.11862 0.36371 0.26326 0.0
C424 C 0.04727 0.38203 0.2006 0.0
C425 C 0.02332 0.36657 0.23155 0.0
C426 C 0.04672 0.34787 0.26911 0.0
C427 C 0.09411 0.34642 0.2845 0.0
H428 H 0.09955 0.57694 0.73714 0.0
H429 H 0.13352 0.64607 0.78531 0.0
H430 H 0.01884 0.58577 0.71053 0.0
H431 H 0.05258 0.65499 0.76113 0.0
H432 H 0.89225 0.65807 0.64206 0.0
H433 H 0.97529 0.65641 0.67361 0.0
H434 H 0.97441 0.59516 0.79457 0.0
H435 H 0.89134 0.59657 0.76037 0.0
C436 C 0.08947 0.5942 0.7388 0.0
C437 C 0.12256 0.61085 0.76237 0.0
C438 C 0.04339 0.5992 0.72573 0.0
C439 C 0.0295 0.62093 0.73696 0.0
C440 C 0.06224 0.63804 0.75294 0.0
C441 C 0.10852 0.63302 0.76539 0.0
C442 C 0.91016 0.64499 0.67915 0.0
C443 C 0.88564 0.6275 0.6993 0.0
C444 C 0.95768 0.64383 0.69613 0.0
C445 C 0.9812 0.62518 0.73389 0.0
C446 C 0.95702 0.60934 0.76295 0.0
C447 C 0.90956 0.61043 0.74538 0.0
H448 H 0.59465 0.86328 0.26787 0.0
H449 H 0.54536 0.85337 0.45964 0.0
H450 H 0.52093 0.85169 0.18631 0.0
H451 H 0.47185 0.84156 0.37787 0.0
H452 H 0.33878 0.86528 0.18927 0.0
H453 H 0.41045 0.86248 0.28872 0.0
H454 H 0.46598 0.8209 0.14843 0.0
H455 H 0.39456 0.824 0.04855 0.0
C456 C 0.56844 0.8583 0.29273 0.0
C457 C 0.5758 0.8596 0.37011 0.0
C458 C 0.52627 0.85144 0.24608 0.0
C459 C 0.49063 0.8457 0.27588 0.0
C460 C 0.49859 0.84605 0.35343 0.0
C461 C 0.54075 0.85287 0.40009 0.0
C462 C 0.36564 0.85484 0.18074 0.0
C463 C 0.36174 0.84539 0.11067 0.0
C464 C 0.40677 0.85323 0.2377 0.0
C465 C 0.44419 0.84201 0.22528 0.0
C466 C 0.43806 0.83016 0.15859 0.0
C467 C 0.39714 0.83185 0.10167 0.0
H468 H 0.62186 0.13583 0.78374 0.0
H469 H 0.56443 0.167 0.94378 0.0
H470 H 0.54897 0.13943 0.68834 0.0
H471 H 0.4913 0.17048 0.84806 0.0
H472 H 0.41538 0.15008 0.52333 0.0
H473 H 0.48588 0.16289 0.61166 0.0
H474 H 0.43932 0.1388 0.79421 0.0
H475 H 0.36853 0.12602 0.70588 0.0
C476 C 0.59426 0.1442 0.79788 0.0
C477 C 0.59864 0.1507 0.87156 0.0
C478 C 0.55238 0.14627 0.74318 0.0
C479 C 0.51432 0.15486 0.76141 0.0
C480 C 0.51995 0.16342 0.83309 0.0
C481 C 0.56183 0.16144 0.8877 0.0
C482 C 0.41985 0.14778 0.58241 0.0
C483 C 0.38684 0.13659 0.60775 0.0
C484 C 0.46016 0.1552 0.63281 0.0
C485 C 0.46821 0.15164 0.70949 0.0
C486 C 0.4338 0.14196 0.73528 0.0
C487 C 0.39336 0.13451 0.68475 0.0
H488 H 0.56497 0.30756 0.10707 0.0
H489 H 0.64805 0.28415 0.32137 0.0
H490 H 0.4982 0.29069 0.1284 0.0
H491 H 0.58069 0.26676 0.34344 0.0
H492 H 0.45109 0.29953 0.39354 0.0
H493 H 0.52235 0.28848 0.37285 0.0
H494 H 0.4484 0.26316 0.15507 0.0
H495 H 0.37654 0.27478 0.17629 0.0
C496 C 0.56912 0.29788 0.15754 0.0
C497 C 0.61123 0.29738 0.21309 0.0
C498 C 0.53083 0.28799 0.16971 0.0
C499 C 0.53373 0.27768 0.2384 0.0
C500 C 0.57719 0.27487 0.29038 0.0
C501 C 0.6158 0.2847 0.27776 0.0
C502 C 0.44999 0.29061 0.34276 0.0
C503 C 0.40867 0.28824 0.28607 0.0
C504 C 0.49093 0.28413 0.33085 0.0
C505 C 0.49134 0.27542 0.26139 0.0
C506 C 0.44928 0.27022 0.20865 0.0
C507 C 0.40809 0.27668 0.22086 0.0
H508 H 0.55572 0.69459 0.57389 0.0
H509 H 0.63074 0.71692 0.79407 0.0
H510 H 0.48469 0.7054 0.59592 0.0
H511 H 0.55918 0.72831 0.81666 0.0
H512 H 0.44315 0.68254 0.85984 0.0
H513 H 0.50973 0.69998 0.83986 0.0
H514 H 0.42648 0.72639 0.629 0.0
H515 H 0.35923 0.70843 0.64975 0.0
C516 C 0.55701 0.70299 0.62566 0.0
C517 C 0.59834 0.70469 0.68269 0.0
C518 C 0.5162 0.70933 0.63838 0.0
C519 C 0.51599 0.71718 0.70896 0.0
C520 C 0.55814 0.72188 0.76219 0.0
C521 C 0.59917 0.71556 0.74921 0.0
C522 C 0.43882 0.69282 0.81062 0.0
C523 C 0.3965 0.6939 0.75572 0.0
C524 C 0.47699 0.70306 0.79929 0.0
C525 C 0.47378 0.71432 0.73206 0.0
C526 C 0.43019 0.71757 0.68093 0.0
C527 C 0.39168 0.70741 0.69277 0.0
H528 H 0.82738 0.89948 0.13178 0.0
H529 H 0.85113 0.83303 0.22367 0.0
H530 H 0.89442 0.89629 0.08783 0.0
H531 H 0.91952 0.83017 0.18305 0.0
H532 H 0.04926 0.898 0.14439 0.0
H533 H 0.97315 0.89764 0.15815 0.0
H534 H 0.95685 0.8289 0.08655 0.0
H535 H 0.03414 0.82905 0.07495 0.0
C536 C 0.84677 0.88411 0.14183 0.0
C537 C 0.83484 0.86666 0.1823 0.0
C538 C 0.88523 0.88231 0.11709 0.0
C539 C 0.91296 0.86323 0.13389 0.0
C540 C 0.89887 0.84508 0.16918 0.0
C541 C 0.85982 0.84673 0.19271 0.0
C542 C 0.02951 0.88279 0.13149 0.0
C543 C 0.04775 0.86354 0.10884 0.0
C544 C 0.98561 0.88265 0.13852 0.0
C545 C 0.95868 0.86332 0.12236 0.0
C546 C 0.97687 0.84401 0.0997 0.0
C547 C 0.02111 0.8441 0.09322 0.0
H548 H 0.10344 0.09493 0.76389 0.0
H549 H 0.0916 0.16195 0.67563 0.0
H550 H 0.03098 0.09915 0.79044 0.0
H551 H 0.01789 0.16597 0.7002 0.0
H552 H 0.90461 0.16776 0.82248 0.0
H553 H 0.97857 0.16768 0.79731 0.0
H554 H 0.9531 0.1006 0.71153 0.0
H555 H 0.8804 0.10046 0.73877 0.0
C556 C 0.08534 0.11061 0.75045 0.0
C557 C 0.10273 0.12802 0.71691 0.0
C558 C 0.04371 0.11298 0.76511 0.0
C559 C 0.01829 0.13269 0.74558 0.0
C560 C 0.03677 0.15058 0.71567 0.0
C561 C 0.07888 0.14829 0.70169 0.0
C562 C 0.91471 0.15317 0.79725 0.0
C563 C 0.88732 0.13399 0.78358 0.0
C564 C 0.95695 0.15312 0.78292 0.0
C565 C 0.97199 0.13395 0.75417 0.0
C566 C 0.94305 0.11536 0.73599 0.0
C567 C 0.9013 0.11532 0.75105 0.0
H568 H 0.37035 0.3724 0.62748 0.0
H569 H 0.47163 0.34951 0.52575 0.0
H570 H 0.42777 0.37463 0.74752 0.0
H571 H 0.5293 0.35097 0.647 0.0
H572 H 0.53261 0.35492 0.96581 0.0
H573 H 0.47467 0.35213 0.84503 0.0
H574 H 0.57128 0.37708 0.73628 0.0
H575 H 0.6291 0.37901 0.85586 0.0
C576 C 0.4048 0.36774 0.63068 0.0
C577 C 0.41627 0.36091 0.56676 0.0
C578 C 0.4378 0.36884 0.69989 0.0
C579 C 0.48318 0.36293 0.70712 0.0
C580 C 0.49476 0.35598 0.64324 0.0
C581 C 0.46169 0.35506 0.57374 0.0
C582 C 0.54137 0.35986 0.91609 0.0
C583 C 0.58556 0.36726 0.92064 0.0
C584 C 0.50814 0.35834 0.84685 0.0
C585 C 0.51834 0.36434 0.78082 0.0
C586 C 0.56241 0.37192 0.78569 0.0
C587 C 0.59558 0.37325 0.85462 0.0
H588 H 0.53403 0.61951 0.44545 0.0
H589 H 0.63346 0.64164 0.33848 0.0
H590 H 0.47775 0.61544 0.32364 0.0
H591 H 0.57693 0.63883 0.21718 0.0
H592 H 0.47757 0.61407 0.00292 0.0
H593 H 0.53479 0.61497 0.125 0.0
H594 H 0.43112 0.63576 0.22571 0.0
H595 H 0.37417 0.63364 0.10507 0.0
C596 C 0.54363 0.62373 0.39586 0.0
C597 C 0.58804 0.63085 0.40134 0.0
C598 C 0.51137 0.62153 0.32593 0.0
C599 C 0.52258 0.62686 0.26009 0.0
C600 C 0.56713 0.6341 0.26613 0.0
C601 C 0.59953 0.63589 0.33584 0.0
C602 C 0.46722 0.61874 0.0514 0.0
C603 C 0.42147 0.62366 0.04462 0.0
C604 C 0.49998 0.61939 0.12139 0.0
C605 C 0.48774 0.62542 0.18571 0.0
C606 C 0.44186 0.63052 0.1782 0.0
C607 C 0.40914 0.62946 0.10873 0.0
H608 H 0.90882 0.88423 0.47682 0.0
H609 H 0.85417 0.93026 0.60477 0.0
H610 H 0.98379 0.88686 0.56847 0.0
H611 H 0.9297 0.93473 0.69338 0.0
H612 H 0.04558 0.91225 0.88961 0.0
H613 H 0.97615 0.91545 0.78945 0.0
H614 H 0.05095 0.90481 0.62896 0.0
H615 H 0.12111 0.89997 0.73166 0.0
C616 C 0.91341 0.89533 0.52403 0.0
C617 C 0.87611 0.90682 0.53495 0.0
C618 C 0.95645 0.89706 0.57627 0.0
C619 C 0.96316 0.9108 0.63948 0.0
C620 C 0.92586 0.92336 0.64716 0.0
C621 C 0.88259 0.92103 0.59622 0.0
C622 C 0.04762 0.91084 0.83303 0.0
C623 C 0.08904 0.90576 0.81879 0.0
C624 C 0.00745 0.9129 0.77494 0.0
C625 C 0.00739 0.91051 0.70028 0.0
C626 C 0.04929 0.90637 0.68565 0.0
C627 C 0.08967 0.90379 0.7444 0.0
H628 H 0.1238 0.07186 0.30437 0.0
H629 H 0.05832 0.09062 0.47018 0.0
H630 H 0.04972 0.07038 0.21008 0.0
H631 H 0.98499 0.09131 0.37588 0.0
H632 H 0.92474 0.09905 0.04267 0.0
H633 H -0.00354 0.09311 0.1377 0.0
H634 H 0.92323 0.07543 0.29552 0.0
H635 H 0.85128 0.08352 0.20069 0.0
C636 C 0.09342 0.07568 0.32037 0.0
C637 C 0.09661 0.08132 0.39423 0.0
C638 C 0.05088 0.07513 0.2663 0.0
C639 C 0.01083 0.0811 0.28439 0.0
C640 C 0.0144 0.08618 0.35923 0.0
C641 C 0.05667 0.08596 0.41358 0.0
C642 C 0.92411 0.09381 0.09775 0.0
C643 C 0.88266 0.0918 0.11467 0.0
C644 C 0.96537 0.09013 0.1524 0.0
C645 C 0.9663 0.08363 0.22506 0.0
C646 C 0.92435 0.08091 0.24104 0.0
C647 C 0.88297 0.08535 0.18669 0.0
H648 H 0.28693 0.38197 0.08454 0.0
H649 H 0.21044 0.32043 0.03848 0.0
H650 H 0.28109 0.38566 0.95284 0.0
H651 H 0.20483 0.32422 0.90613 0.0
H652 H 0.17794 0.35568 0.66441 0.0
H653 H 0.17461 0.34931 0.79134 0.0
H654 H 0.31928 0.36187 0.87608 0.0
H655 H 0.32291 0.36842 0.74979 0.0
C656 C 0.26815 0.36944 0.04611 0.0
C657 C 0.24985 0.3507 0.07191 0.0
C658 C 0.26518 0.37147 0.97094 0.0
C659 C 0.24374 0.35485 0.92022 0.0
C660 C 0.22191 0.33711 0.94459 0.0
C661 C 0.22493 0.33504 0.02014 0.0
C662 C 0.20923 0.3567 0.70998 0.0
C663 C 0.25056 0.36299 0.69725 0.0
C664 C 0.20721 0.35305 0.78247 0.0
C665 C 0.24642 0.35571 0.8431 0.0
C666 C 0.28833 0.36032 0.83003 0.0
C667 C 0.29045 0.36386 0.75771 0.0
H668 H 0.71435 0.39647 0.39915 0.0
H669 H 0.80521 0.33968 0.44929 0.0
H670 H 0.71929 0.39972 0.53056 0.0
H671 H 0.80998 0.34307 0.58143 0.0
H672 H 0.82688 0.37554 0.82095 0.0
H673 H 0.83312 0.36992 0.6953 0.0
H674 H 0.68639 0.37208 0.60674 0.0
H675 H 0.67976 0.3778 0.73167 0.0
C676 C 0.73614 0.38498 0.43838 0.0
C677 C 0.75864 0.36754 0.41379 0.0
C678 C 0.73862 0.38673 0.5134 0.0
C679 C 0.76381 0.37118 0.56513 0.0
C680 C 0.78992 0.35507 0.54206 0.0
C681 C 0.78736 0.35325 0.46664 0.0
C682 C 0.79587 0.37437 0.77487 0.0
C683 C 0.75282 0.37758 0.78597 0.0
C684 C 0.79957 0.37117 0.70315 0.0
C685 C 0.76032 0.37123 0.64176 0.0
C686 C 0.7172 0.37258 0.65342 0.0
C687 C 0.71344 0.37564 0.72498 0.0
H688 H 0.79238 0.67267 0.92875 0.0
H689 H 0.71871 0.61035 0.88271 0.0
H690 H 0.79555 0.6694 0.06029 0.0
H691 H 0.72216 0.60715 0.01359 0.0
H692 H 0.82074 0.63875 0.30233 0.0
H693 H 0.82509 0.64531 0.17621 0.0
H694 H 0.68164 0.63022 0.08779 0.0
H695 H 0.67708 0.62339 0.21353 0.0
C696 C 0.77807 0.65799 0.94703 0.0
C697 C 0.75465 0.64194 0.89541 0.0
C698 C 0.77961 0.65623 0.02208 0.0
C699 C 0.7578 0.6384 0.0461 0.0
C700 C 0.73793 0.62142 -0.00428 0.0
C701 C 0.73642 0.62315 0.92106 0.0
C702 C 0.78989 0.63721 0.25613 0.0
C703 C 0.74875 0.63006 0.26768 0.0
C704 C 0.79249 0.641 0.18406 0.0
C705 C 0.75403 0.63765 0.12263 0.0
C706 C 0.71207 0.6323 0.13448 0.0
C707 C 0.70939 0.6286 0.20646 0.0
H708 H 0.18583 0.62246 0.14588 0.0
H709 H 0.33146 0.61337 0.24021 0.0
H710 H 0.17848 0.62813 0.27067 0.0
H711 H 0.32382 0.61926 0.36458 0.0
H712 H 0.2874 0.59542 0.56599 0.0
H713 H 0.2852 0.59312 0.43545 0.0
H714 H 0.20307 0.6528 0.38751 0.0
H715 H 0.20508 0.6552 0.51868 0.0
C716 C 0.21639 0.62218 0.193 0.0
C717 C 0.25912 0.61696 0.18349 0.0
C718 C 0.21207 0.62542 0.26426 0.0
C719 C 0.25037 0.62344 0.32681 0.0
C720 C 0.29362 0.62025 0.31691 0.0
C721 C 0.29802 0.61712 0.24574 0.0
C722 C 0.26798 0.60778 0.52741 0.0
C723 C 0.24714 0.62572 0.55269 0.0
C724 C 0.26716 0.60659 0.45298 0.0
C725 C 0.24532 0.62324 0.40252 0.0
C726 C 0.22062 0.63995 0.42591 0.0
C727 C 0.22149 0.64119 0.50073 0.0
H728 H 0.68601 0.84599 0.11687 0.0
H729 H 0.70838 0.91636 0.09446 0.0
H730 H 0.72133 0.83801 0.0196 0.0
H731 H 0.74089 0.90854 -0.00675 0.0
H732 H 0.81131 0.89364 0.82796 0.0
H733 H 0.80036 0.89502 0.95157 0.0
H734 H 0.70784 0.83914 0.89332 0.0
H735 H 0.7211 0.837 0.77263 0.0
C736 C 0.69792 0.85985 0.09055 0.0
C737 C 0.69432 0.88188 0.11406 0.0
C738 C 0.71826 0.85524 0.03429 0.0
C739 C 0.73435 0.87254 -0.00218 0.0
C740 C 0.73017 0.89461 0.02078 0.0
C741 C 0.71076 0.89918 0.0783 0.0
C742 C 0.79061 0.88088 0.84303 0.0
C743 C 0.76636 0.86547 0.78948 0.0
C744 C 0.7833 0.88204 0.91353 0.0
C745 C 0.75148 0.86788 0.93192 0.0
C746 C 0.73229 0.85055 0.88195 0.0
C747 C 0.74009 0.84922 0.81216 0.0
H748 H 0.29201 0.83352 0.6815 0.0
H749 H 0.17101 0.87452 0.60668 0.0
H750 H 0.3023 0.8356 0.55822 0.0
H751 H 0.18051 0.8758 0.48239 0.0
H752 H 0.23722 0.90243 0.31072 0.0
H753 H 0.23644 0.89655 0.43873 0.0
H754 H 0.27657 0.82796 0.42718 0.0
H755 H 0.27935 0.83403 0.30047 0.0
C756 C 0.2665 0.84225 0.63811 0.0
C757 C 0.23162 0.8546 0.6547 0.0
C758 C 0.27271 0.84356 0.56744 0.0
C759 C 0.24354 0.85681 0.51196 0.0
C760 C 0.20485 0.86638 0.52545 0.0
C761 C 0.19886 0.86525 0.59625 0.0
C762 C 0.24767 0.88635 0.33635 0.0
C763 C 0.25663 0.86846 0.29457 0.0
C764 C 0.24626 0.88284 0.40917 0.0
C765 C 0.25398 0.86147 0.44122 0.0
C766 C 0.26939 0.84448 0.40331 0.0
C767 C 0.2712 0.84803 0.33072 0.0
H768 H 0.30082 0.14858 0.85372 0.0
H769 H 0.28285 0.07747 0.86825 0.0
H770 H 0.27886 0.15391 0.96596 0.0
H771 H 0.26402 0.08267 -0.01545 0.0
H772 H 0.26644 0.15283 0.20428 0.0
H773 H 0.28857 0.15139 0.09081 0.0
H774 H 0.19942 0.09488 0.01633 0.0
H775 H 0.17997 0.09533 0.13309 0.0
C776 C 0.29425 0.1339 0.88264 0.0
C777 C 0.29211 0.11261 0.85025 0.0
C778 C 0.28118 0.13702 0.94726 0.0
C779 C 0.26739 0.11882 -0.01729 0.0
C780 C 0.27193 0.09722 0.95645 0.0
C781 C 0.28403 0.09414 0.89079 0.0
C782 C 0.25036 0.1405 0.16271 0.0
C783 C 0.22288 0.12365 0.17925 0.0
C784 C 0.26339 0.13957 0.09742 0.0
C785 C 0.24771 0.12226 0.04581 0.0
C786 C 0.21423 0.10768 0.05682 0.0
C787 C 0.20193 0.10835 0.12299 0.0
H788 H 0.80343 0.11759 0.36483 0.0
H789 H 0.70152 0.16908 0.29074 0.0
H790 H 0.78525 0.11516 0.48237 0.0
H791 H 0.68107 0.16549 0.40522 0.0
H792 H 0.7103 0.09154 0.63516 0.0
H793 H 0.72475 0.09849 0.51629 0.0
H794 H 0.69166 0.16806 0.53061 0.0
H795 H 0.67403 0.1608 0.64583 0.0
C796 C 0.77809 0.12887 0.37423 0.0
C797 C 0.75271 0.14289 0.31693 0.0
C798 C 0.76671 0.12703 0.44097 0.0
C799 C 0.72975 0.13914 0.45159 0.0
C800 C 0.70906 0.1555 0.3988 0.0
C801 C 0.7211 0.15766 0.33288 0.0
C802 C 0.70422 0.10812 0.61139 0.0
C803 C 0.69269 0.12576 0.6517 0.0
C804 C 0.71375 0.11227 0.54409 0.0
C805 C 0.71206 0.13412 0.51592 0.0
C806 C 0.69434 0.15109 0.55098 0.0
C807 C 0.68388 0.14684 0.61733 0.0
H808 H 0.2947 0.19104 0.48423 0.0
H809 H 0.1501 0.17861 0.42332 0.0
H810 H 0.28046 0.23104 0.4803 0.0
H811 H 0.1354 0.21857 0.42242 0.0
H812 H 0.14064 0.29444 0.35852 0.0
H813 H 0.13811 0.25423 0.36866 0.0
H814 H 0.25695 0.25638 0.56193 0.0
H815 H 0.26028 0.29669 0.54916 0.0
C816 C 0.25978 0.19698 0.46638 0.0
C817 C 0.22347 0.18191 0.45254 0.0
C818 C 0.25155 0.21982 0.46678 0.0
C819 C 0.20684 0.22794 0.4544 0.0
C820 C 0.17024 0.21289 0.43308 0.0
C821 C 0.17856 0.19003 0.43187 0.0
C822 C 0.16438 0.28646 0.40615 0.0
C823 C 0.20169 0.29844 0.45129 0.0
C824 C 0.16351 0.26328 0.4111 0.0
C825 C 0.19905 0.25206 0.46324 0.0
C826 C 0.23048 0.26458 0.51857 0.0
C827 C 0.23154 0.28776 0.51293 0.0
H828 H 0.86701 0.30862 0.12127 0.0
H829 H 0.74414 0.31277 0.93693 0.0
H830 H 0.86505 0.26833 0.11305 0.0
H831 H 0.74312 0.27238 0.92553 0.0
H832 H 0.7011 0.20861 0.00805 0.0
H833 H 0.71899 0.24819 0.00851 0.0
H834 H 0.86259 0.23225 0.06319 0.0
H835 H 0.84428 0.19282 0.06623 0.0
C836 C 0.84144 0.30095 0.07528 0.0
C837 C 0.8044 0.3136 0.03227 0.0
C838 C 0.83977 0.27773 0.07147 0.0
C839 C 0.80214 0.26713 0.02189 0.0
C840 C 0.7711 0.28011 0.96734 0.0
C841 C 0.77254 0.30334 0.97206 0.0
C842 C 0.73653 0.21375 0.02451 0.0
C843 C 0.77138 0.19783 0.03878 0.0
C844 C 0.74684 0.23633 0.02206 0.0
C845 C 0.79216 0.24333 0.0326 0.0
C846 C 0.82732 0.22748 0.05404 0.0
C847 C 0.81695 0.20492 0.05746 0.0
H848 H 0.74348 0.68993 0.40675 0.0
H849 H 0.85606 0.70309 0.60235 0.0
H850 H 0.73778 0.72952 0.37721 0.0
H851 H 0.8488 0.74265 0.57634 0.0
H852 H 0.81672 0.81573 0.51103 0.0
H853 H 0.84321 0.77721 0.51765 0.0
H854 H 0.70305 0.75488 0.43999 0.0
H855 H 0.67738 0.79344 0.42948 0.0
C856 C 0.76875 0.70112 0.44109 0.0
C857 C 0.7988 0.69373 0.50863 0.0
C858 C 0.7646 0.72393 0.42559 0.0
C859 C 0.79065 0.73936 0.47741 0.0
C860 C 0.82722 0.73138 0.53617 0.0
C861 C 0.83188 0.70857 0.55063 0.0
C862 C 0.79174 0.80243 0.49834 0.0
C863 C 0.74504 0.80736 0.4714 0.0
C864 C 0.80686 0.78039 0.5007 0.0
C865 C 0.7754 0.76291 0.4769 0.0
C866 C 0.72845 0.76792 0.4557 0.0
C867 C 0.71349 0.78993 0.45206 0.0
H868 H 0.16045 0.79477 0.83269 0.0
H869 H 0.28329 0.79748 0.01698 0.0
H870 H 0.16258 0.75425 0.83756 0.0
H871 H 0.28272 0.75777 0.03004 0.0
H872 H 0.2873 0.68294 0.00948 0.0
H873 H 0.28983 0.72278 0.0119 0.0
H874 H 0.14497 0.72498 0.89552 0.0
H875 H 0.14505 0.68467 0.88482 0.0
C876 C 0.18883 0.78656 0.87243 0.0
C877 C 0.22203 0.79907 0.92373 0.0
C878 C 0.18916 0.76329 0.87779 0.0
C879 C 0.22151 0.75223 0.93683 0.0
C880 C 0.25703 0.76501 -0.01645 0.0
C881 C 0.25785 0.78804 0.97563 0.0
C882 C 0.25549 0.69195 -0.0123 0.0
C883 C 0.21634 0.68084 0.94532 0.0
C884 C 0.25693 0.71515 -0.01226 0.0
C885 C 0.21814 0.7277 0.94968 0.0
C886 C 0.17654 0.71621 0.9207 0.0
C887 C 0.17583 0.69295 0.91747 0.0
loop_
_geom_bond_atom_site_label_1
_geom_bond_atom_site_label_2
_geom_bond_distance
_geom_bond_site_symmetry_2
_ccdc_geom_bond_type
C0 O27 1.312 . S
C0 O28 1.208 . S
C1 O22 1.331 . S
C1 O25 1.244 . S
C2 O24 1.264 . S
C2 O26 1.273 . S
Mg3 O5 1.936 . S
Mg3 O12 2.081 . S
Mg3 O14 2.023 . S
Mg3 O18 2.031 . S
Mg3 O27 2.291 . S
Mg4 O5 1.963 . S
Mg4 O15 1.942 . S
Mg4 O16 1.955 . S
Mg4 O23 1.986 . S
O5 Mg3 1.936 . S
O5 Mg4 1.963 . S
O5 Mg6 1.915 . S
Mg6 O5 1.915 . S
Mg6 O7 1.915 . S
Mg6 O11 2.013 . S
Mg6 O17 2.114 . S
Mg6 O21 2.013 . S
Mg6 O27 2.114 . S
O7 Mg6 1.915 . S
O7 Mg8 1.936 . S
O7 Mg9 1.963 . S
Mg8 O7 1.936 . S
Mg8 O17 2.291 . S
Mg8 O22 2.081 . S
Mg8 O24 2.023 . S
Mg8 O28 2.031 . S
Mg9 O7 1.963 . S
Mg9 O13 1.986 . S
Mg9 O25 1.942 . S
Mg9 O26 1.955 . S
C10 O21 1.191 . S
C10 O23 1.307 . S
O11 Mg6 2.013 . S
O11 C30 1.191 . S
O12 Mg3 2.081 . S
O12 C20 1.331 . S
O13 Mg9 1.986 . S
O13 C30 1.307 . S
O14 Mg3 2.023 . S
O14 C29 1.264 . S
O15 Mg4 1.942 . S
O15 C20 1.244 . S
O16 Mg4 1.955 . S
O16 C29 1.273 . S
O17 Mg6 2.114 . S
O17 Mg8 2.291 . S
O17 C19 1.312 . S
O18 Mg3 2.031 . S
O18 C19 1.208 . S
C19 O17 1.312 . S
C19 O18 1.208 . S
C20 O12 1.331 . S
C20 O15 1.244 . S
O21 Mg6 2.013 . S
O21 C10 1.191 . S
O22 C1 1.331 . S
O22 Mg8 2.081 . S
O23 Mg4 1.986 . S
O23 C10 1.307 . S
O24 C2 1.264 . S
O24 Mg8 2.023 . S
O25 C1 1.244 . S
O25 Mg9 1.942 . S
O26 C2 1.273 . S
O26 Mg9 1.955 . S
O27 C0 1.312 . S
O27 Mg3 2.291 . S
O27 Mg6 2.114 . S
O28 C0 1.208 . S
O28 Mg8 2.031 . S
C29 O14 1.264 . S
C29 O16 1.273 . S
C30 O11 1.191 . S
C30 O13 1.307 . S
C31 O58 1.312 . S
C31 O59 1.208 1_556 S
C32 O53 1.331 . S
C32 O56 1.244 . S
C33 O55 1.264 . S
C33 O57 1.273 . S
Mg34 O36 1.936 . S
Mg34 O43 2.081 . S
Mg34 O45 2.023 . S
Mg34 O49 2.031 1_556 S
Mg34 O58 2.291 . S
Mg35 O36 1.963 . S
Mg35 O46 1.942 . S
Mg35 O47 1.955 . S
Mg35 O54 1.986 1_556 S
O36 Mg34 1.936 . S
O36 Mg35 1.963 . S
O36 Mg37 1.915 1_556 S
Mg37 O36 1.915 1_554 S
Mg37 O38 1.915 . S
Mg37 O42 2.013 1_554 S
Mg37 O48 2.114 . S
Mg37 O52 2.013 . S
Mg37 O58 2.114 1_554 S
O38 Mg37 1.915 . S
O38 Mg39 1.936 . S
O38 Mg40 1.963 . S
Mg39 O38 1.936 . S
Mg39 O48 2.291 . S
Mg39 O53 2.081 . S
Mg39 O55 2.023 . S
Mg39 O59 2.031 . S
Mg40 O38 1.963 . S
Mg40 O44 1.986 . S
Mg40 O56 1.942 . S
Mg40 O57 1.955 . S
C41 O52 1.191 . S
C41 O54 1.307 . S
O42 Mg37 2.013 1_556 S
O42 C61 1.191 1_556 S
O43 Mg34 2.081 . S
O43 C51 1.331 . S
O44 Mg40 1.986 . S
O44 C61 1.307 . S
O45 Mg34 2.023 . S
O45 C60 1.264 . S
O46 Mg35 1.942 . S
O46 C51 1.244 . S
O47 Mg35 1.955 . S
O47 C60 1.273 . S
O48 Mg37 2.114 . S
O48 Mg39 2.291 . S
O48 C50 1.312 . S
O49 Mg34 2.031 1_554 S
O49 C50 1.208 . S
C50 O48 1.312 . S
C50 O49 1.208 . S
C51 O43 1.331 . S
C51 O46 1.244 . S
O52 Mg37 2.013 . S
O52 C41 1.191 . S
O53 C32 1.331 . S
O53 Mg39 2.081 . S
O54 Mg35 1.986 1_554 S
O54 C41 1.307 . S
O55 C33 1.264 . S
O55 Mg39 2.023 . S
O56 C32 1.244 . S
O56 Mg40 1.942 . S
O57 C33 1.273 . S
O57 Mg40 1.955 . S
O58 C31 1.312 . S
O58 Mg34 2.291 . S
O58 Mg37 2.114 1_556 S
O59 C31 1.208 1_554 S
O59 Mg39 2.031 . S
C60 O45 1.264 . S
C60 O47 1.273 . S
C61 O42 1.191 1_554 S
C61 O44 1.307 . S
C62 O89 1.312 . S
C62 O90 1.208 . S
C63 O84 1.331 . S
C63 O87 1.244 . S
C64 O86 1.264 . S
C64 O88 1.273 . S
Mg65 O67 1.936 . S
Mg65 O74 2.081 . S
Mg65 O76 2.023 . S
Mg65 O80 2.031 . S
Mg65 O89 2.291 . S
Mg66 O67 1.963 . S
Mg66 O77 1.942 . S
Mg66 O78 1.955 . S
Mg66 O85 1.986 . S
O67 Mg65 1.936 . S
O67 Mg66 1.963 . S
O67 Mg68 1.915 . S
Mg68 O67 1.915 . S
Mg68 O69 1.915 . S
Mg68 O73 2.013 . S
Mg68 O79 2.114 . S
Mg68 O83 2.013 . S
Mg68 O89 2.114 . S
O69 Mg68 1.915 . S
O69 Mg70 1.936 . S
O69 Mg71 1.963 . S
Mg70 O69 1.936 . S
Mg70 O79 2.291 . S
Mg70 O84 2.081 . S
Mg70 O86 2.023 . S
Mg70 O90 2.031 . S
Mg71 O69 1.963 . S
Mg71 O75 1.986 . S
Mg71 O87 1.942 . S
Mg71 O88 1.955 . S
C72 O83 1.191 . S
C72 O85 1.307 . S
O73 Mg68 2.013 . S
O73 C92 1.191 . S
O74 Mg65 2.081 . S
O74 C82 1.331 . S
O75 Mg71 1.986 . S
O75 C92 1.307 . S
O76 Mg65 2.023 . S
O76 C91 1.264 . S
O77 Mg66 1.942 . S
O77 C82 1.244 . S
O78 Mg66 1.955 . S
O78 C91 1.273 . S
O79 Mg68 2.114 . S
O79 Mg70 2.291 . S
O79 C81 1.312 . S
O80 Mg65 2.031 . S
O80 C81 1.208 . S
C81 O79 1.312 . S
C81 O80 1.208 . S
C82 O74 1.331 . S
C82 O77 1.244 . S
O83 Mg68 2.013 . S
O83 C72 1.191 . S
O84 C63 1.331 . S
O84 Mg70 2.081 . S
O85 Mg66 1.986 . S
O85 C72 1.307 . S
O86 C64 1.264 . S
O86 Mg70 2.023 . S
O87 C63 1.244 . S
O87 Mg71 1.942 . S
O88 C64 1.273 . S
O88 Mg71 1.955 . S
O89 C62 1.312 . S
O89 Mg65 2.291 . S
O89 Mg68 2.114 . S
O90 C62 1.208 . S
O90 Mg70 2.031 . S
C91 O76 1.264 . S
C91 O78 1.273 . S
C92 O73 1.191 . S
C92 O75 1.307 . S
C93 O120 1.312 . S
C93 O121 1.208 1_554 S
C94 O115 1.331 . S
C94 O118 1.244 . S
C95 O117 1.264 . S
C95 O119 1.273 . S
Mg96 O98 1.936 . S
Mg96 O105 2.081 . S
Mg96 O107 2.023 . S
Mg96 O111 2.031 1_554 S
Mg96 O120 2.291 . S
Mg97 O98 1.963 . S
Mg97 O108 1.942 . S
Mg97 O109 1.955 . S
Mg97 O116 1.986 1_554 S
O98 Mg96 1.936 . S
O98 Mg97 1.963 . S
O98 Mg99 1.915 1_554 S
Mg99 O98 1.915 1_556 S
Mg99 O100 1.915 . S
Mg99 O104 2.013 1_556 S
Mg99 O110 2.114 . S
Mg99 O114 2.013 . S
Mg99 O120 2.114 1_556 S
O100 Mg99 1.915 . S
O100 Mg101 1.936 . S
O100 Mg102 1.963 . S
Mg101 O100 1.936 . S
Mg101 O110 2.291 . S
Mg101 O115 2.081 . S
Mg101 O117 2.023 . S
Mg101 O121 2.031 . S
Mg102 O100 1.963 . S
Mg102 O106 1.986 . S
Mg102 O118 1.942 . S
Mg102 O119 1.955 . S
C103 O114 1.191 . S
C103 O116 1.307 . S
O104 Mg99 2.013 1_554 S
O104 C123 1.191 1_554 S
O105 Mg96 2.081 . S
O105 C113 1.331 . S
O106 Mg102 1.986 . S
O106 C123 1.307 . S
O107 Mg96 2.023 . S
O107 C122 1.264 . S
O108 Mg97 1.942 . S
O108 C113 1.244 . S
O109 Mg97 1.955 . S
O109 C122 1.273 . S
O110 Mg99 2.114 . S
O110 Mg101 2.291 . S
O110 C112 1.312 . S
O111 Mg96 2.031 1_556 S
O111 C112 1.208 . S
C112 O110 1.312 . S
C112 O111 1.208 . S
C113 O105 1.331 . S
C113 O108 1.244 . S
O114 Mg99 2.013 . S
O114 C103 1.191 . S
O115 C94 1.331 . S
O115 Mg101 2.081 . S
O116 Mg97 1.986 1_556 S
O116 C103 1.307 . S
O117 C95 1.264 . S
O117 Mg101 2.023 . S
O118 C94 1.244 . S
O118 Mg102 1.942 . S
O119 C95 1.273 . S
O119 Mg102 1.955 . S
O120 C93 1.312 . S
O120 Mg96 2.291 . S
O120 Mg99 2.114 1_554 S
O121 C93 1.208 1_556 S
O121 Mg101 2.031 . S
C122 O107 1.264 . S
C122 O109 1.273 . S
C123 O104 1.191 1_556 S
C123 O106 1.307 . S
C124 O151 1.312 . S
C124 O152 1.208 . S
C125 O146 1.331 . S
C125 O149 1.244 . S
C126 O148 1.264 . S
C126 O150 1.273 . S
Mg127 O129 1.936 . S
Mg127 O136 2.081 . S
Mg127 O138 2.023 . S
Mg127 O142 2.031 . S
Mg127 O151 2.291 . S
Mg128 O129 1.963 . S
Mg128 O139 1.942 . S
Mg128 O140 1.955 . S
Mg128 O147 1.986 . S
O129 Mg127 1.936 . S
O129 Mg128 1.963 . S
O129 Mg130 1.915 . S
Mg130 O129 1.915 . S
Mg130 O131 1.915 . S
Mg130 O135 2.013 . S
Mg130 O141 2.114 . S
Mg130 O145 2.013 . S
Mg130 O151 2.114 . S
O131 Mg130 1.915 . S
O131 Mg132 1.936 . S
O131 Mg133 1.963 . S
Mg132 O131 1.936 . S
Mg132 O141 2.291 . S
Mg132 O146 2.081 . S
Mg132 O148 2.023 . S
Mg132 O152 2.031 . S
Mg133 O131 1.963 . S
Mg133 O137 1.986 . S
Mg133 O149 1.942 . S
Mg133 O150 1.955 . S
C134 O145 1.191 . S
C134 O147 1.307 . S
O135 Mg130 2.013 . S
O135 C154 1.191 . S
O136 Mg127 2.081 . S
O136 C144 1.331 . S
O137 Mg133 1.986 . S
O137 C154 1.307 . S
O138 Mg127 2.023 . S
O138 C153 1.264 . S
O139 Mg128 1.942 . S
O139 C144 1.244 . S
O140 Mg128 1.955 . S
O140 C153 1.273 . S
O141 Mg130 2.114 . S
O141 Mg132 2.291 . S
O141 C143 1.312 . S
O142 Mg127 2.031 . S
O142 C143 1.208 . S
C143 O141 1.312 . S
C143 O142 1.208 . S
C144 O136 1.331 . S
C144 O139 1.244 . S
O145 Mg130 2.013 . S
O145 C134 1.191 . S
O146 C125 1.331 . S
O146 Mg132 2.081 . S
O147 Mg128 1.986 . S
O147 C134 1.307 . S
O148 C126 1.264 . S
O148 Mg132 2.023 . S
O149 C125 1.244 . S
O149 Mg133 1.942 . S
O150 C126 1.273 . S
O150 Mg133 1.955 . S
O151 C124 1.312 . S
O151 Mg127 2.291 . S
O151 Mg130 2.114 . S
O152 C124 1.208 . S
O152 Mg132 2.031 . S
C153 O138 1.264 . S
C153 O140 1.273 . S
C154 O135 1.191 . S
C154 O137 1.307 . S
C155 O182 1.312 . S
C155 O183 1.208 1_556 S
C156 O177 1.331 . S
C156 O180 1.244 . S
C157 O179 1.264 . S
C157 O181 1.273 . S
Mg158 O160 1.936 . S
Mg158 O167 2.081 . S
Mg158 O169 2.023 . S
Mg158 O173 2.031 1_556 S
Mg158 O182 2.291 . S
Mg159 O160 1.963 . S
Mg159 O170 1.942 . S
Mg159 O171 1.955 . S
Mg159 O178 1.986 1_556 S
O160 Mg158 1.936 . S
O160 Mg159 1.963 . S
O160 Mg161 1.915 1_556 S
Mg161 O160 1.915 1_554 S
Mg161 O162 1.915 . S
Mg161 O166 2.013 1_554 S
Mg161 O172 2.114 . S
Mg161 O176 2.013 . S
Mg161 O182 2.114 1_554 S
O162 Mg161 1.915 . S
O162 Mg163 1.936 . S
O162 Mg164 1.963 . S
Mg163 O162 1.936 . S
Mg163 O172 2.291 . S
Mg163 O177 2.081 . S
Mg163 O179 2.023 . S
Mg163 O183 2.031 . S
Mg164 O162 1.963 . S
Mg164 O168 1.986 . S
Mg164 O180 1.942 . S
Mg164 O181 1.955 . S
C165 O176 1.191 . S
C165 O178 1.307 . S
O166 Mg161 2.013 1_556 S
O166 C185 1.191 1_556 S
O167 Mg158 2.081 . S
O167 C175 1.331 . S
O168 Mg164 1.986 . S
O168 C185 1.307 . S
O169 Mg158 2.023 . S
O169 C184 1.264 . S
O170 Mg159 1.942 . S
O170 C175 1.244 . S
O171 Mg159 1.955 . S
O171 C184 1.273 . S
O172 Mg161 2.114 . S
O172 Mg163 2.291 . S
O172 C174 1.312 . S
O173 Mg158 2.031 1_554 S
O173 C174 1.208 . S
C174 O172 1.312 . S
C174 O173 1.208 . S
C175 O167 1.331 . S
C175 O170 1.244 . S
O176 Mg161 2.013 . S
O176 C165 1.191 . S
O177 C156 1.331 . S
O177 Mg163 2.081 . S
O178 Mg159 1.986 1_554 S
O178 C165 1.307 . S
O179 C157 1.264 . S
O179 Mg163 2.023 . S
O180 C156 1.244 . S
O180 Mg164 1.942 . S
O181 C157 1.273 . S
O181 Mg164 1.955 . S
O182 C155 1.312 . S
O182 Mg158 2.291 . S
O182 Mg161 2.114 1_556 S
O183 C155 1.208 1_554 S
O183 Mg163 2.031 . S
C184 O169 1.264 . S
C184 O171 1.273 . S
C185 O166 1.191 1_554 S
C185 O168 1.307 . S
C186 O213 1.312 . S
C186 O214 1.208 . S
C187 O208 1.331 . S
C187 O211 1.244 . S
C188 O210 1.264 . S
C188 O212 1.273 . S
Mg189 O191 1.936 . S
Mg189 O198 2.081 . S
Mg189 O200 2.023 . S
Mg189 O204 2.031 . S
Mg189 O213 2.291 . S
Mg190 O191 1.963 . S
Mg190 O201 1.942 . S
Mg190 O202 1.955 . S
Mg190 O209 1.986 . S
O191 Mg189 1.936 . S
O191 Mg190 1.963 . S
O191 Mg192 1.915 . S
Mg192 O191 1.915 . S
Mg192 O193 1.915 . S
Mg192 O197 2.013 . S
Mg192 O203 2.114 . S
Mg192 O207 2.013 . S
Mg192 O213 2.114 . S
O193 Mg192 1.915 . S
O193 Mg194 1.936 . S
O193 Mg195 1.963 . S
Mg194 O193 1.936 . S
Mg194 O203 2.291 . S
Mg194 O208 2.081 . S
Mg194 O210 2.023 . S
Mg194 O214 2.031 . S
Mg195 O193 1.963 . S
Mg195 O199 1.986 . S
Mg195 O211 1.942 . S
Mg195 O212 1.955 . S
C196 O207 1.191 . S
C196 O209 1.307 . S
O197 Mg192 2.013 . S
O197 C216 1.191 . S
O198 Mg189 2.081 . S
O198 C206 1.331 . S
O199 Mg195 1.986 . S
O199 C216 1.307 . S
O200 Mg189 2.023 . S
O200 C215 1.264 . S
O201 Mg190 1.942 . S
O201 C206 1.244 . S
O202 Mg190 1.955 . S
O202 C215 1.273 . S
O203 Mg192 2.114 . S
O203 Mg194 2.291 . S
O203 C205 1.312 . S
O204 Mg189 2.031 . S
O204 C205 1.208 . S
C205 O203 1.312 . S
C205 O204 1.208 . S
C206 O198 1.331 . S
C206 O201 1.244 . S
O207 Mg192 2.013 . S
O207 C196 1.191 . S
O208 C187 1.331 . S
O208 Mg194 2.081 . S
O209 Mg190 1.986 . S
O209 C196 1.307 . S
O210 C188 1.264 . S
O210 Mg194 2.023 . S
O211 C187 1.244 . S
O211 Mg195 1.942 . S
O212 C188 1.273 . S
O212 Mg195 1.955 . S
O213 C186 1.312 . S
O213 Mg189 2.291 . S
O213 Mg192 2.114 . S
O214 C186 1.208 . S
O214 Mg194 2.031 . S
C215 O200 1.264 . S
C215 O202 1.273 . S
C216 O197 1.191 . S
C216 O199 1.307 . S
C217 O244 1.312 . S
C217 O245 1.208 1_554 S
C218 O239 1.331 . S
C218 O242 1.244 . S
C219 O241 1.264 . S
C219 O243 1.273 . S
Mg220 O222 1.936 . S
Mg220 O229 2.081 . S
Mg220 O231 2.023 . S
Mg220 O235 2.031 1_554 S
Mg220 O244 2.291 . S
Mg221 O222 1.963 . S
Mg221 O232 1.942 . S
Mg221 O233 1.955 . S
Mg221 O240 1.986 1_554 S
O222 Mg220 1.936 . S
O222 Mg221 1.963 . S
O222 Mg223 1.915 1_554 S
Mg223 O222 1.915 1_556 S
Mg223 O224 1.915 . S
Mg223 O228 2.013 1_556 S
Mg223 O234 2.114 . S
Mg223 O238 2.013 . S
Mg223 O244 2.114 1_556 S
O224 Mg223 1.915 . S
O224 Mg225 1.936 . S
O224 Mg226 1.963 . S
Mg225 O224 1.936 . S
Mg225 O234 2.291 . S
Mg225 O239 2.081 . S
Mg225 O241 2.023 . S
Mg225 O245 2.031 . S
Mg226 O224 1.963 . S
Mg226 O230 1.986 . S
Mg226 O242 1.942 . S
Mg226 O243 1.955 . S
C227 O238 1.191 . S
C227 O240 1.307 . S
O228 Mg223 2.013 1_554 S
O228 C247 1.191 1_554 S
O229 Mg220 2.081 . S
O229 C237 1.331 . S
O230 Mg226 1.986 . S
O230 C247 1.307 . S
O231 Mg220 2.023 . S
O231 C246 1.264 . S
O232 Mg221 1.942 . S
O232 C237 1.244 . S
O233 Mg221 1.955 . S
O233 C246 1.273 . S
O234 Mg223 2.114 . S
O234 Mg225 2.291 . S
O234 C236 1.312 . S
O235 Mg220 2.031 1_556 S
O235 C236 1.208 . S
C236 O234 1.312 . S
C236 O235 1.208 . S
C237 O229 1.331 . S
C237 O232 1.244 . S
O238 Mg223 2.013 . S
O238 C227 1.191 . S
O239 C218 1.331 . S
O239 Mg225 2.081 . S
O240 Mg221 1.986 1_556 S
O240 C227 1.307 . S
O241 C219 1.264 . S
O241 Mg225 2.023 . S
O242 C218 1.244 . S
O242 Mg226 1.942 . S
O243 C219 1.273 . S
O243 Mg226 1.955 . S
O244 C217 1.312 . S
O244 Mg220 2.291 . S
O244 Mg223 2.114 1_554 S
O245 C217 1.208 1_556 S
O245 Mg225 2.031 . S
C246 O231 1.264 . S
C246 O233 1.273 . S
C247 O228 1.191 1_556 S
C247 O230 1.307 . S
H248 C256 0.950 . S
H249 C261 0.950 . S
H250 C258 0.950 . S
H251 C260 0.950 . S
H252 C262 0.950 . S
H253 C264 0.950 . S
H254 C266 0.950 . S
H255 C267 0.950 . S
C256 H248 0.950 . S
C256 C257 1.386 . S
C256 C258 1.391 . S
C257 C256 1.386 . S
C257 C261 1.393 . S
C258 H250 0.950 . S
C258 C256 1.391 . S
C258 C259 1.400 . S
C259 C258 1.400 . S
C259 C260 1.398 . S
C259 C265 1.491 . S
C260 H251 0.950 . S
C260 C259 1.398 . S
C260 C261 1.391 . S
C261 H249 0.950 . S
C261 C257 1.393 . S
C261 C260 1.391 . S
C262 H252 0.950 . S
C262 C263 1.386 . S
C262 C264 1.391 . S
C263 C262 1.386 . S
C263 C267 1.393 . S
C264 H253 0.950 . S
C264 C262 1.391 . S
C264 C265 1.400 . S
C265 C259 1.491 . S
C265 C264 1.400 . S
C265 C266 1.398 . S
C266 H254 0.950 . S
C266 C265 1.398 . S
C266 C267 1.391 . S
C267 H255 0.950 . S
C267 C263 1.393 . S
C267 C266 1.391 . S
H268 C276 0.950 . S
H269 C281 0.950 . S
H270 C278 0.950 . S
H271 C280 0.950 . S
H272 C282 0.950 . S
H273 C284 0.950 . S
H274 C286 0.950 . S
H275 C287 0.950 . S
C276 H268 0.950 . S
C276 C277 1.386 . S
C276 C278 1.391 . S
C277 C276 1.386 . S
C277 C281 1.393 . S
C278 H270 0.950 . S
C278 C276 1.391 . S
C278 C279 1.400 . S
C279 C278 1.400 . S
C279 C280 1.398 . S
C279 C285 1.491 . S
C280 H271 0.950 . S
C280 C279 1.398 . S
C280 C281 1.391 . S
C281 H269 0.950 . S
C281 C277 1.393 . S
C281 C280 1.391 . S
C282 H272 0.950 . S
C282 C283 1.386 . S
C282 C284 1.391 . S
C283 C282 1.386 . S
C283 C287 1.393 . S
C284 H273 0.950 . S
C284 C282 1.391 . S
C284 C285 1.400 . S
C285 C279 1.491 . S
C285 C284 1.400 . S
C285 C286 1.398 . S
C286 H274 0.950 . S
C286 C285 1.398 . S
C286 C287 1.391 . S
C287 H275 0.950 . S
C287 C283 1.393 . S
C287 C286 1.391 . S
H288 C296 0.950 . S
H289 C301 0.950 . S
H290 C298 0.950 . S
H291 C300 0.950 . S
H292 C302 0.950 . S
H293 C304 0.950 . S
H294 C306 0.950 . S
H295 C307 0.950 . S
C296 H288 0.950 . S
C296 C297 1.386 . S
C296 C298 1.391 . S
C297 C296 1.386 . S
C297 C301 1.393 . S
C298 H290 0.950 . S
C298 C296 1.391 . S
C298 C299 1.400 . S
C299 C298 1.400 . S
C299 C300 1.398 . S
C299 C305 1.491 . S
C300 H291 0.950 . S
C300 C299 1.398 . S
C300 C301 1.391 . S
C301 H289 0.950 . S
C301 C297 1.393 . S
C301 C300 1.391 . S
C302 H292 0.950 . S
C302 C303 1.386 . S
C302 C304 1.391 . S
C303 C302 1.386 . S
C303 C307 1.393 . S
C304 H293 0.950 . S
C304 C302 1.391 . S
C304 C305 1.400 . S
C305 C299 1.491 . S
C305 C304 1.400 . S
C305 C306 1.398 . S
C306 H294 0.950 . S
C306 C305 1.398 . S
C306 C307 1.391 . S
C307 H295 0.950 . S
C307 C303 1.393 . S
C307 C306 1.391 . S
H308 C316 0.950 . S
H309 C321 0.950 . S
H310 C318 0.950 . S
H311 C320 0.950 . S
H312 C322 0.950 . S
H313 C324 0.950 . S
H314 C326 0.950 . S
H315 C327 0.950 . S
C316 H308 0.950 . S
C316 C317 1.386 . S
C316 C318 1.391 . S
C317 C316 1.386 . S
C317 C321 1.393 . S
C318 H310 0.950 . S
C318 C316 1.391 . S
C318 C319 1.400 . S
C319 C318 1.400 . S
C319 C320 1.398 . S
C319 C325 1.491 . S
C320 H311 0.950 . S
C320 C319 1.398 . S
C320 C321 1.391 . S
C321 H309 0.950 . S
C321 C317 1.393 . S
C321 C320 1.391 . S
C322 H312 0.950 . S
C322 C323 1.386 . S
C322 C324 1.391 . S
C323 C322 1.386 . S
C323 C327 1.393 . S
C324 H313 0.950 . S
C324 C322 1.391 . S
C324 C325 1.400 . S
C325 C319 1.491 . S
C325 C324 1.400 . S
C325 C326 1.398 . S
C326 H314 0.950 . S
C326 C325 1.398 . S
C326 C327 1.391 . S
C327 H315 0.950 . S
C327 C323 1.393 . S
C327 C326 1.391 . S
H328 C336 0.950 . S
H329 C341 0.950 . S
H330 C338 0.950 1_565 S
H331 C340 0.950 . S
H332 C342 0.950 . S
H333 C344 0.950 1_545 S
H334 C346 0.950 . S
H335 C347 0.950 . S
C336 H328 0.950 . S
C336 C337 1.386 . S
C336 C338 1.391 . S
C337 C336 1.386 . S
C337 C341 1.393 . S
C338 H330 0.950 1_545 S
C338 C336 1.391 . S
C338 C339 1.400 . S
C339 C338 1.400 . S
C339 C340 1.398 . S
C339 C345 1.491 1_545 S
C340 H331 0.950 . S
C340 C339 1.398 . S
C340 C341 1.391 . S
C341 H329 0.950 . S
C341 C337 1.393 . S
C341 C340 1.391 . S
C342 H332 0.950 . S
C342 C343 1.386 . S
C342 C344 1.391 . S
C343 C342 1.386 . S
C343 C347 1.393 . S
C344 H333 0.950 1_565 S
C344 C342 1.391 . S
C344 C345 1.400 . S
C345 C339 1.491 1_565 S
C345 C344 1.400 . S
C345 C346 1.398 . S
C346 H334 0.950 . S
C346 C345 1.398 . S
C346 C347 1.391 . S
C347 H335 0.950 . S
C347 C343 1.393 . S
C347 C346 1.391 . S
H348 C356 0.950 . S
H349 C361 0.950 . S
H350 C358 0.950 . S
H351 C360 0.950 1_565 S
H352 C362 0.950 . S
H353 C364 0.950 . S
H354 C366 0.950 1_545 S
H355 C367 0.950 . S
C356 H348 0.950 . S
C356 C357 1.386 . S
C356 C358 1.391 . S
C357 C356 1.386 . S
C357 C361 1.393 . S
C358 H350 0.950 . S
C358 C356 1.391 . S
C358 C359 1.400 . S
C359 C358 1.400 . S
C359 C360 1.398 . S
C359 C365 1.491 1_545 S
C360 H351 0.950 1_545 S
C360 C359 1.398 . S
C360 C361 1.391 . S
C361 H349 0.950 . S
C361 C357 1.393 . S
C361 C360 1.391 . S
C362 H352 0.950 . S
C362 C363 1.386 . S
C362 C364 1.391 . S
C363 C362 1.386 . S
C363 C367 1.393 . S
C364 H353 0.950 . S
C364 C362 1.391 . S
C364 C365 1.400 . S
C365 C359 1.491 1_565 S
C365 C364 1.400 . S
C365 C366 1.398 . S
C366 H354 0.950 1_565 S
C366 C365 1.398 . S
C366 C367 1.391 . S
C367 H355 0.950 . S
C367 C363 1.393 . S
C367 C366 1.391 . S
H368 C376 0.950 . S
H369 C381 0.950 . S
H370 C378 0.912 1_545 S
H371 C380 0.950 . S
H372 C382 0.950 . S
H373 C384 0.962 . S
H374 C386 0.950 . S
H375 C387 0.950 . S
C376 H368 0.950 . S
C376 C377 1.386 . S
C376 C378 1.391 . S
C377 C376 1.386 . S
C377 C381 1.393 . S
C378 H370 0.912 1_565 S
C378 C376 1.391 . S
C378 C379 1.400 . S
C379 C378 1.400 . S
C379 C380 1.398 . S
C379 C385 1.491 1_565 S
C380 H371 0.950 . S
C380 C379 1.398 . S
C380 C381 1.391 . S
C381 H369 0.950 . S
C381 C377 1.393 . S
C381 C380 1.391 . S
C382 H372 0.950 . S
C382 C383 1.386 . S
C382 C384 1.391 . S
C383 C382 1.386 . S
C383 C387 1.393 . S
C384 H373 0.962 . S
C384 C382 1.391 . S
C384 C385 1.400 . S
C385 C379 1.491 1_545 S
C385 C384 1.400 . S
C385 C386 1.398 . S
C386 H374 0.950 . S
C386 C385 1.398 . S
C386 C387 1.391 . S
C387 H375 0.950 . S
C387 C383 1.393 . S
C387 C386 1.391 . S
H388 C396 0.950 . S
H389 C401 0.950 . S
H390 C398 0.950 . S
H391 C400 0.950 . S
H392 C402 0.950 . S
H393 C404 0.950 . S
H394 C406 0.950 . S
H395 C407 0.950 . S
C396 H388 0.950 . S
C396 C397 1.386 . S
C396 C398 1.391 . S
C397 C396 1.386 . S
C397 C401 1.393 . S
C398 H390 0.950 . S
C398 C396 1.391 . S
C398 C399 1.400 . S
C399 C398 1.400 . S
C399 C400 1.398 . S
C399 C405 1.491 1_565 S
C400 H391 0.950 . S
C400 C399 1.398 . S
C400 C401 1.391 . S
C401 H389 0.950 . S
C401 C397 1.393 . S
C401 C400 1.391 . S
C402 H392 0.950 . S
C402 C403 1.386 . S
C402 C404 1.391 . S
C403 C402 1.386 . S
C403 C407 1.393 . S
C404 H393 0.950 . S
C404 C402 1.391 . S
C404 C405 1.400 . S
C405 C399 1.491 1_545 S
C405 C404 1.400 . S
C405 C406 1.398 . S
C406 H394 0.950 . S
C406 C405 1.398 . S
C406 C407 1.391 . S
C407 H395 0.950 . S
C407 C403 1.393 . S
C407 C406 1.391 . S
H408 C416 0.950 . S
H409 C421 0.950 . S
H410 C418 0.950 . S
H411 C420 0.950 . S
H412 C422 0.950 . S
H413 C424 0.950 . S
H414 C426 0.950 . S
H415 C427 0.950 . S
C416 H408 0.950 . S
C416 C417 1.386 . S
C416 C418 1.391 . S
C417 C416 1.386 . S
C417 C421 1.393 . S
C418 H410 0.950 . S
C418 C416 1.391 . S
C418 C419 1.400 . S
C419 C418 1.400 . S
C419 C420 1.398 . S
C419 C425 1.491 1_655 S
C420 H411 0.950 . S
C420 C419 1.398 . S
C420 C421 1.391 . S
C421 H409 0.950 . S
C421 C417 1.393 . S
C421 C420 1.391 . S
C422 H412 0.950 . S
C422 C423 1.386 . S
C422 C424 1.391 . S
C423 C422 1.386 . S
C423 C427 1.393 . S
C424 H413 0.950 . S
C424 C422 1.391 . S
C424 C425 1.400 . S
C425 C419 1.491 1_455 S
C425 C424 1.400 . S
C425 C426 1.398 . S
C426 H414 0.950 . S
C426 C425 1.398 . S
C426 C427 1.391 . S
C427 H415 0.950 . S
C427 C423 1.393 . S
C427 C426 1.391 . S
H428 C436 0.950 . S
H429 C441 0.950 . S
H430 C438 0.950 . S
H431 C440 0.950 . S
H432 C442 0.950 . S
H433 C444 0.950 . S
H434 C446 0.950 . S
H435 C447 0.950 . S
C436 H428 0.950 . S
C436 C437 1.386 . S
C436 C438 1.391 . S
C437 C436 1.386 . S
C437 C441 1.393 . S
C438 H430 0.950 . S
C438 C436 1.391 . S
C438 C439 1.400 . S
C439 C438 1.400 . S
C439 C440 1.398 . S
C439 C445 1.491 1_455 S
C440 H431 0.950 . S
C440 C439 1.398 . S
C440 C441 1.391 . S
C441 H429 0.950 . S
C441 C437 1.393 . S
C441 C440 1.391 . S
C442 H432 0.950 . S
C442 C443 1.386 . S
C442 C444 1.391 . S
C443 C442 1.386 . S
C443 C447 1.393 . S
C444 H433 0.950 . S
C444 C442 1.391 . S
C444 C445 1.400 . S
C445 C439 1.491 1_655 S
C445 C444 1.400 . S
C445 C446 1.398 . S
C446 H434 0.950 . S
C446 C445 1.398 . S
C446 C447 1.391 . S
C447 H435 0.950 . S
C447 C443 1.393 . S
C447 C446 1.391 . S
H448 C456 0.950 . S
H449 C461 0.950 . S
H450 C458 0.950 . S
H451 C460 0.950 . S
H452 C462 0.950 . S
H453 C464 0.950 . S
H454 C466 0.950 . S
H455 C467 0.950 . S
C456 H448 0.950 . S
C456 C457 1.386 . S
C456 C458 1.391 . S
C457 C456 1.386 . S
C457 C461 1.393 . S
C458 H450 0.950 . S
C458 C456 1.391 . S
C458 C459 1.400 . S
C459 C458 1.400 . S
C459 C460 1.398 . S
C459 C465 1.491 . S
C460 H451 0.950 . S
C460 C459 1.398 . S
C460 C461 1.391 . S
C461 H449 0.950 . S
C461 C457 1.393 . S
C461 C460 1.391 . S
C462 H452 0.950 . S
C462 C463 1.386 . S
C462 C464 1.391 . S
C463 C462 1.386 . S
C463 C467 1.393 . S
C464 H453 0.950 . S
C464 C462 1.391 . S
C464 C465 1.400 . S
C465 C459 1.491 . S
C465 C464 1.400 . S
C465 C466 1.398 . S
C466 H454 0.950 . S
C466 C465 1.398 . S
C466 C467 1.391 . S
C467 H455 0.950 . S
C467 C463 1.393 . S
C467 C466 1.391 . S
H468 C476 0.950 . S
H469 C481 0.950 . S
H470 C478 0.950 . S
H471 C480 0.950 . S
H472 C482 0.950 . S
H473 C484 0.950 . S
H474 C486 0.950 . S
H475 C487 0.950 . S
C476 H468 0.950 . S
C476 C477 1.386 . S
C476 C478 1.391 . S
C477 C476 1.386 . S
C477 C481 1.393 . S
C478 H470 0.950 . S
C478 C476 1.391 . S
C478 C479 1.400 . S
C479 C478 1.400 . S
C479 C480 1.398 . S
C479 C485 1.491 . S
C480 H471 0.950 . S
C480 C479 1.398 . S
C480 C481 1.391 . S
C481 H469 0.950 . S
C481 C477 1.393 . S
C481 C480 1.391 . S
C482 H472 0.950 . S
C482 C483 1.386 . S
C482 C484 1.391 . S
C483 C482 1.386 . S
C483 C487 1.393 . S
C484 H473 0.950 . S
C484 C482 1.391 . S
C484 C485 1.400 . S
C485 C479 1.491 . S
C485 C484 1.400 . S
C485 C486 1.398 . S
C486 H474 0.950 . S
C486 C485 1.398 . S
C486 C487 1.391 . S
C487 H475 0.950 . S
C487 C483 1.393 . S
C487 C486 1.391 . S
H488 C496 0.950 . S
H489 C501 0.950 . S
H490 C498 0.950 . S
H491 C500 0.950 . S
H492 C502 0.950 . S
H493 C504 0.950 . S
H494 C506 0.950 . S
H495 C507 0.950 . S
C496 H488 0.950 . S
C496 C497 1.386 . S
C496 C498 1.391 . S
C497 C496 1.386 . S
C497 C501 1.393 . S
C498 H490 0.950 . S
C498 C496 1.391 . S
C498 C499 1.400 . S
C499 C498 1.400 . S
C499 C500 1.398 . S
C499 C505 1.491 . S
C500 H491 0.950 . S
C500 C499 1.398 . S
C500 C501 1.391 . S
C501 H489 0.950 . S
C501 C497 1.393 . S
C501 C500 1.391 . S
C502 H492 0.950 . S
C502 C503 1.386 . S
C502 C504 1.391 . S
C503 C502 1.386 . S
C503 C507 1.393 . S
C504 H493 0.950 . S
C504 C502 1.391 . S
C504 C505 1.400 . S
C505 C499 1.491 . S
C505 C504 1.400 . S
C505 C506 1.398 . S
C506 H494 0.950 . S
C506 C505 1.398 . S
C506 C507 1.391 . S
C507 H495 0.950 . S
C507 C503 1.393 . S
C507 C506 1.391 . S
H508 C516 0.950 . S
H509 C521 0.950 . S
H510 C518 0.950 . S
H511 C520 0.950 . S
H512 C522 0.950 . S
H513 C524 0.950 . S
H514 C526 0.950 . S
H515 C527 0.950 . S
C516 H508 0.950 . S
C516 C517 1.386 . S
C516 C518 1.391 . S
C517 C516 1.386 . S
C517 C521 1.393 . S
C518 H510 0.950 . S
C518 C516 1.391 . S
C518 C519 1.400 . S
C519 C518 1.400 . S
C519 C520 1.398 . S
C519 C525 1.491 . S
C520 H511 0.950 . S
C520 C519 1.398 . S
C520 C521 1.391 . S
C521 H509 0.950 . S
C521 C517 1.393 . S
C521 C520 1.391 . S
C522 H512 0.950 . S
C522 C523 1.386 . S
C522 C524 1.391 . S
C523 C522 1.386 . S
C523 C527 1.393 . S
C524 H513 0.950 . S
C524 C522 1.391 . S
C524 C525 1.400 . S
C525 C519 1.491 . S
C525 C524 1.400 . S
C525 C526 1.398 . S
C526 H514 0.950 . S
C526 C525 1.398 . S
C526 C527 1.391 . S
C527 H515 0.950 . S
C527 C523 1.393 . S
C527 C526 1.391 . S
H528 C536 0.950 . S
H529 C541 0.950 . S
H530 C538 0.950 . S
H531 C540 0.950 . S
H532 C542 0.950 . S
H533 C544 0.950 . S
H534 C546 0.950 . S
H535 C547 0.950 . S
C536 H528 0.950 . S
C536 C537 1.386 . S
C536 C538 1.391 . S
C537 C536 1.386 . S
C537 C541 1.393 . S
C538 H530 0.950 . S
C538 C536 1.391 . S
C538 C539 1.400 . S
C539 C538 1.400 . S
C539 C540 1.398 . S
C539 C545 1.491 1_655 S
C540 H531 0.950 . S
C540 C539 1.398 . S
C540 C541 1.391 . S
C541 H529 0.950 . S
C541 C537 1.393 . S
C541 C540 1.391 . S
C542 H532 0.950 . S
C542 C543 1.386 . S
C542 C544 1.391 . S
C543 C542 1.386 . S
C543 C547 1.393 . S
C544 H533 0.950 . S
C544 C542 1.391 . S
C544 C545 1.400 . S
C545 C539 1.491 1_455 S
C545 C544 1.400 . S
C545 C546 1.398 . S
C546 H534 0.950 . S
C546 C545 1.398 . S
C546 C547 1.391 . S
C547 H535 0.950 . S
C547 C543 1.393 . S
C547 C546 1.391 . S
H548 C556 0.950 . S
H549 C561 0.950 . S
H550 C558 0.950 1_655 S
H551 C560 0.950 . S
H552 C562 0.950 . S
H553 C564 0.950 1_455 S
H554 C566 0.950 . S
H555 C567 0.950 . S
C556 H548 0.950 . S
C556 C557 1.386 . S
C556 C558 1.391 . S
C557 C556 1.386 . S
C557 C561 1.393 . S
C558 H550 0.950 1_455 S
C558 C556 1.391 . S
C558 C559 1.400 . S
C559 C558 1.400 . S
C559 C560 1.398 . S
C559 C565 1.491 1_455 S
C560 H551 0.950 . S
C560 C559 1.398 . S
C560 C561 1.391 . S
C561 H549 0.950 . S
C561 C557 1.393 . S
C561 C560 1.391 . S
C562 H552 0.950 . S
C562 C563 1.386 . S
C562 C564 1.391 . S
C563 C562 1.386 . S
C563 C567 1.393 . S
C564 H553 0.950 1_655 S
C564 C562 1.391 . S
C564 C565 1.400 . S
C565 C559 1.491 1_655 S
C565 C564 1.400 . S
C565 C566 1.398 . S
C566 H554 0.950 . S
C566 C565 1.398 . S
C566 C567 1.391 . S
C567 H555 0.950 . S
C567 C563 1.393 . S
C567 C566 1.391 . S
H568 C576 0.950 . S
H569 C581 0.950 . S
H570 C578 0.950 . S
H571 C580 0.950 . S
H572 C582 0.950 . S
H573 C584 0.950 . S
H574 C586 0.950 . S
H575 C587 0.950 . S
C576 H568 0.950 . S
C576 C577 1.386 . S
C576 C578 1.391 . S
C577 C576 1.386 . S
C577 C581 1.393 . S
C578 H570 0.950 . S
C578 C576 1.391 . S
C578 C579 1.400 . S
C579 C578 1.400 . S
C579 C580 1.398 . S
C579 C585 1.491 . S
C580 H571 0.950 . S
C580 C579 1.398 . S
C580 C581 1.391 . S
C581 H569 0.950 . S
C581 C577 1.393 . S
C581 C580 1.391 . S
C582 H572 0.950 . S
C582 C583 1.386 . S
C582 C584 1.391 . S
C583 C582 1.386 . S
C583 C587 1.393 . S
C584 H573 0.950 . S
C584 C582 1.391 . S
C584 C585 1.400 . S
C585 C579 1.491 . S
C585 C584 1.400 . S
C585 C586 1.398 . S
C586 H574 0.950 . S
C586 C585 1.398 . S
C586 C587 1.391 . S
C587 H575 0.950 . S
C587 C583 1.393 . S
C587 C586 1.391 . S
H588 C596 0.950 . S
H589 C601 0.950 . S
H590 C598 0.950 . S
H591 C600 0.950 . S
H592 C602 0.950 . S
H593 C604 0.950 . S
H594 C606 0.950 . S
H595 C607 0.950 . S
C596 H588 0.950 . S
C596 C597 1.386 . S
C596 C598 1.391 . S
C597 C596 1.386 . S
C597 C601 1.393 . S
C598 H590 0.950 . S
C598 C596 1.391 . S
C598 C599 1.400 . S
C599 C598 1.400 . S
C599 C600 1.398 . S
C599 C605 1.491 . S
C600 H591 0.950 . S
C600 C599 1.398 . S
C600 C601 1.391 . S
C601 H589 0.950 . S
C601 C597 1.393 . S
C601 C600 1.391 . S
C602 H592 0.950 . S
C602 C603 1.386 . S
C602 C604 1.391 . S
C603 C602 1.386 . S
C603 C607 1.393 . S
C604 H593 0.950 . S
C604 C602 1.391 . S
C604 C605 1.400 . S
C605 C599 1.491 . S
C605 C604 1.400 . S
C605 C606 1.398 . S
C606 H594 0.950 . S
C606 C605 1.398 . S
C606 C607 1.391 . S
C607 H595 0.950 . S
C607 C603 1.393 . S
C607 C606 1.391 . S
H608 C616 0.950 . S
H609 C621 0.950 . S
H610 C618 0.960 . S
H611 C620 0.950 . S
H612 C622 0.950 . S
H613 C624 0.960 . S
H614 C626 0.950 . S
H615 C627 0.950 . S
C616 H608 0.950 . S
C616 C617 1.386 . S
C616 C618 1.391 . S
C617 C616 1.386 . S
C617 C621 1.393 . S
C618 H610 0.960 . S
C618 C616 1.391 . S
C618 C619 1.400 . S
C619 C618 1.400 . S
C619 C620 1.398 . S
C619 C625 1.491 1_655 S
C620 H611 0.950 . S
C620 C619 1.398 . S
C620 C621 1.391 . S
C621 H609 0.950 . S
C621 C617 1.393 . S
C621 C620 1.391 . S
C622 H612 0.950 . S
C622 C623 1.386 . S
C622 C624 1.391 . S
C623 C622 1.386 . S
C623 C627 1.393 . S
C624 H613 0.960 . S
C624 C622 1.391 . S
C624 C625 1.400 . S
C625 C619 1.491 1_455 S
C625 C624 1.400 . S
C625 C626 1.398 . S
C626 H614 0.950 . S
C626 C625 1.398 . S
C626 C627 1.391 . S
C627 H615 0.950 . S
C627 C623 1.393 . S
C627 C626 1.391 . S
H628 C636 0.950 . S
H629 C641 0.950 . S
H630 C638 0.950 . S
H631 C640 0.950 . S
H632 C642 0.950 . S
H633 C644 0.950 . S
H634 C646 0.950 . S
H635 C647 0.950 . S
C636 H628 0.950 . S
C636 C637 1.386 . S
C636 C638 1.391 . S
C637 C636 1.386 . S
C637 C641 1.393 . S
C638 H630 0.950 . S
C638 C636 1.391 . S
C638 C639 1.400 . S
C639 C638 1.400 . S
C639 C640 1.398 . S
C639 C645 1.491 1_455 S
C640 H631 0.950 . S
C640 C639 1.398 . S
C640 C641 1.391 . S
C641 H629 0.950 . S
C641 C637 1.393 . S
C641 C640 1.391 . S
C642 H632 0.950 . S
C642 C643 1.386 . S
C642 C644 1.391 . S
C643 C642 1.386 . S
C643 C647 1.393 . S
C644 H633 0.950 . S
C644 C642 1.391 . S
C644 C645 1.400 . S
C645 C639 1.491 1_655 S
C645 C644 1.400 . S
C645 C646 1.398 . S
C646 H634 0.950 . S
C646 C645 1.398 . S
C646 C647 1.391 . S
C647 H635 0.950 . S
C647 C643 1.393 . S
C647 C646 1.391 . S
H648 C656 0.950 . S
H649 C661 0.950 . S
H650 C658 0.950 . S
H651 C660 0.950 1_556 S
H652 C662 0.950 . S
H653 C664 0.950 . S
H654 C666 0.950 . S
H655 C667 0.950 . S
C656 H648 0.950 . S
C656 C657 1.386 . S
C656 C658 1.391 . S
C657 C656 1.386 . S
C657 C661 1.393 . S
C658 H650 0.950 . S
C658 C656 1.391 . S
C658 C659 1.400 1_554 S
C659 C658 1.400 1_556 S
C659 C660 1.398 1_556 S
C659 C665 1.491 . S
C660 H651 0.950 1_554 S
C660 C659 1.398 1_554 S
C660 C661 1.391 . S
C661 H649 0.950 . S
C661 C657 1.393 . S
C661 C660 1.391 . S
C662 H652 0.950 . S
C662 C663 1.386 . S
C662 C664 1.391 . S
C663 C662 1.386 . S
C663 C667 1.393 . S
C664 H653 0.950 . S
C664 C662 1.391 . S
C664 C665 1.400 . S
C665 C659 1.491 . S
C665 C664 1.400 . S
C665 C666 1.398 . S
C666 H654 0.950 . S
C666 C665 1.398 . S
C666 C667 1.391 . S
C667 H655 0.950 . S
C667 C663 1.393 . S
C667 C666 1.391 . S
H668 C676 0.950 . S
H669 C681 0.950 . S
H670 C678 0.950 . S
H671 C680 0.950 . S
H672 C682 0.950 . S
H673 C684 0.950 . S
H674 C686 0.950 . S
H675 C687 0.950 . S
C676 H668 0.950 . S
C676 C677 1.386 . S
C676 C678 1.391 . S
C677 C676 1.386 . S
C677 C681 1.393 . S
C678 H670 0.950 . S
C678 C676 1.391 . S
C678 C679 1.400 . S
C679 C678 1.400 . S
C679 C680 1.398 . S
C679 C685 1.491 . S
C680 H671 0.950 . S
C680 C679 1.398 . S
C680 C681 1.391 . S
C681 H669 0.950 . S
C681 C677 1.393 . S
C681 C680 1.391 . S
C682 H672 0.950 . S
C682 C683 1.386 . S
C682 C684 1.391 . S
C683 C682 1.386 . S
C683 C687 1.393 . S
C684 H673 0.950 . S
C684 C682 1.391 . S
C684 C685 1.400 . S
C685 C679 1.491 . S
C685 C684 1.400 . S
C685 C686 1.398 . S
C686 H674 0.950 . S
C686 C685 1.398 . S
C686 C687 1.391 . S
C687 H675 0.950 . S
C687 C683 1.393 . S
C687 C686 1.391 . S
H688 C696 0.950 . S
H689 C701 0.950 . S
H690 C698 0.950 . S
H691 C700 0.950 1_554 S
H692 C702 0.950 . S
H693 C704 0.950 . S
H694 C706 0.950 . S
H695 C707 0.950 . S
C696 H688 0.950 . S
C696 C697 1.386 . S
C696 C698 1.391 . S
C697 C696 1.386 . S
C697 C701 1.393 . S
C698 H690 0.950 . S
C698 C696 1.391 . S
C698 C699 1.400 1_556 S
C699 C698 1.400 1_554 S
C699 C700 1.398 1_554 S
C699 C705 1.491 . S
C700 H691 0.950 1_556 S
C700 C699 1.398 1_556 S
C700 C701 1.391 . S
C701 H689 0.950 . S
C701 C697 1.393 . S
C701 C700 1.391 . S
C702 H692 0.950 . S
C702 C703 1.386 . S
C702 C704 1.391 . S
C703 C702 1.386 . S
C703 C707 1.393 . S
C704 H693 0.950 . S
C704 C702 1.391 . S
C704 C705 1.400 . S
C705 C699 1.491 . S
C705 C704 1.400 . S
C705 C706 1.398 . S
C706 H694 0.950 . S
C706 C705 1.398 . S
C706 C707 1.391 . S
C707 H695 0.950 . S
C707 C703 1.393 . S
C707 C706 1.391 . S
H708 C716 0.950 . S
H709 C721 0.950 . S
H710 C718 0.950 . S
H711 C720 0.950 . S
H712 C722 0.950 . S
H713 C724 0.950 . S
H714 C726 0.950 . S
H715 C727 0.950 . S
C716 H708 0.950 . S
C716 C717 1.386 . S
C716 C718 1.391 . S
C717 C716 1.386 . S
C717 C721 1.393 . S
C718 H710 0.950 . S
C718 C716 1.391 . S
C718 C719 1.400 . S
C719 C718 1.400 . S
C719 C720 1.398 . S
C719 C725 1.491 . S
C720 H711 0.950 . S
C720 C719 1.398 . S
C720 C721 1.391 . S
C721 H709 0.950 . S
C721 C717 1.393 . S
C721 C720 1.391 . S
C722 H712 0.950 . S
C722 C723 1.386 . S
C722 C724 1.391 . S
C723 C722 1.386 . S
C723 C727 1.393 . S
C724 H713 0.950 . S
C724 C722 1.391 . S
C724 C725 1.400 . S
C725 C719 1.491 . S
C725 C724 1.400 . S
C725 C726 1.398 . S
C726 H714 0.950 . S
C726 C725 1.398 . S
C726 C727 1.391 . S
C727 H715 0.950 . S
C727 C723 1.393 . S
C727 C726 1.391 . S
H728 C736 0.950 . S
H729 C741 0.950 . S
H730 C738 0.950 1_556 S
H731 C740 0.950 . S
H732 C742 0.950 . S
H733 C744 0.950 . S
H734 C746 0.950 . S
H735 C747 0.950 . S
C736 H728 0.950 . S
C736 C737 1.386 . S
C736 C738 1.391 . S
C737 C736 1.386 . S
C737 C741 1.393 . S
C738 H730 0.950 1_554 S
C738 C736 1.391 . S
C738 C739 1.400 1_554 S
C739 C738 1.400 1_556 S
C739 C740 1.398 1_556 S
C739 C745 1.491 . S
C740 H731 0.950 . S
C740 C739 1.398 1_554 S
C740 C741 1.391 . S
C741 H729 0.950 . S
C741 C737 1.393 . S
C741 C740 1.391 . S
C742 H732 0.950 . S
C742 C743 1.386 . S
C742 C744 1.391 . S
C743 C742 1.386 . S
C743 C747 1.393 . S
C744 H733 0.950 . S
C744 C742 1.391 . S
C744 C745 1.400 . S
C745 C739 1.491 . S
C745 C744 1.400 . S
C745 C746 1.398 . S
C746 H734 0.950 . S
C746 C745 1.398 . S
C746 C747 1.391 . S
C747 H735 0.950 . S
C747 C743 1.393 . S
C747 C746 1.391 . S
H748 C756 0.950 . S
H749 C761 0.950 . S
H750 C758 0.950 . S
H751 C760 0.950 . S
H752 C762 0.950 . S
H753 C764 0.950 . S
H754 C766 0.950 . S
H755 C767 0.950 . S
C756 H748 0.950 . S
C756 C757 1.386 . S
C756 C758 1.391 . S
C757 C756 1.386 . S
C757 C761 1.393 . S
C758 H750 0.950 . S
C758 C756 1.391 . S
C758 C759 1.400 . S
C759 C758 1.400 . S
C759 C760 1.398 . S
C759 C765 1.491 . S
C760 H751 0.950 . S
C760 C759 1.398 . S
C760 C761 1.391 . S
C761 H749 0.950 . S
C761 C757 1.393 . S
C761 C760 1.391 . S
C762 H752 0.950 . S
C762 C763 1.386 . S
C762 C764 1.391 . S
C763 C762 1.386 . S
C763 C767 1.393 . S
C764 H753 0.950 . S
C764 C762 1.391 . S
C764 C765 1.400 . S
C765 C759 1.491 . S
C765 C764 1.400 . S
C765 C766 1.398 . S
C766 H754 0.950 . S
C766 C765 1.398 . S
C766 C767 1.391 . S
C767 H755 0.950 . S
C767 C763 1.393 . S
C767 C766 1.391 . S
H768 C776 0.950 . S
H769 C781 0.950 . S
H770 C778 0.950 . S
H771 C780 0.950 1_554 S
H772 C782 0.950 . S
H773 C784 0.950 . S
H774 C786 0.950 . S
H775 C787 0.950 . S
C776 H768 0.950 . S
C776 C777 1.386 . S
C776 C778 1.391 . S
C777 C776 1.386 . S
C777 C781 1.393 . S
C778 H770 0.950 . S
C778 C776 1.391 . S
C778 C779 1.400 1_556 S
C779 C778 1.400 1_554 S
C779 C780 1.398 1_554 S
C779 C785 1.491 . S
C780 H771 0.950 1_556 S
C780 C779 1.398 1_556 S
C780 C781 1.391 . S
C781 H769 0.950 . S
C781 C777 1.393 . S
C781 C780 1.391 . S
C782 H772 0.950 . S
C782 C783 1.386 . S
C782 C784 1.391 . S
C783 C782 1.386 . S
C783 C787 1.393 . S
C784 H773 0.950 . S
C784 C782 1.391 . S
C784 C785 1.400 . S
C785 C779 1.491 . S
C785 C784 1.400 . S
C785 C786 1.398 . S
C786 H774 0.950 . S
C786 C785 1.398 . S
C786 C787 1.391 . S
C787 H775 0.950 . S
C787 C783 1.393 . S
C787 C786 1.391 . S
H788 C796 0.950 . S
H789 C801 0.950 . S
H790 C798 0.950 . S
H791 C800 0.950 . S
H792 C802 0.950 . S
H793 C804 0.950 . S
H794 C806 0.950 . S
H795 C807 0.950 . S
C796 H788 0.950 . S
C796 C797 1.386 . S
C796 C798 1.391 . S
C797 C796 1.386 . S
C797 C801 1.393 . S
C798 H790 0.950 . S
C798 C796 1.391 . S
C798 C799 1.400 . S
C799 C798 1.400 . S
C799 C800 1.398 . S
C799 C805 1.491 . S
C800 H791 0.950 . S
C800 C799 1.398 . S
C800 C801 1.391 . S
C801 H789 0.950 . S
C801 C797 1.393 . S
C801 C800 1.391 . S
C802 H792 0.950 . S
C802 C803 1.386 . S
C802 C804 1.391 . S
C803 C802 1.386 . S
C803 C807 1.393 . S
C804 H793 0.950 . S
C804 C802 1.391 . S
C804 C805 1.400 . S
C805 C799 1.491 . S
C805 C804 1.400 . S
C805 C806 1.398 . S
C806 H794 0.950 . S
C806 C805 1.398 . S
C806 C807 1.391 . S
C807 H795 0.950 . S
C807 C803 1.393 . S
C807 C806 1.391 . S
H808 C816 0.950 . S
H809 C821 0.950 . S
H810 C818 0.950 . S
H811 C820 0.950 . S
H812 C822 0.950 . S
H813 C824 0.950 . S
H814 C826 0.950 . S
H815 C827 0.950 . S
C816 H808 0.950 . S
C816 C817 1.386 . S
C816 C818 1.391 . S
C817 C816 1.386 . S
C817 C821 1.393 . S
C818 H810 0.950 . S
C818 C816 1.391 . S
C818 C819 1.400 . S
C819 C818 1.400 . S
C819 C820 1.398 . S
C819 C825 1.491 . S
C820 H811 0.950 . S
C820 C819 1.398 . S
C820 C821 1.391 . S
C821 H809 0.950 . S
C821 C817 1.393 . S
C821 C820 1.391 . S
C822 H812 0.950 . S
C822 C823 1.386 . S
C822 C824 1.391 . S
C823 C822 1.386 . S
C823 C827 1.393 . S
C824 H813 0.950 . S
C824 C822 1.391 . S
C824 C825 1.400 . S
C825 C819 1.491 . S
C825 C824 1.400 . S
C825 C826 1.398 . S
C826 H814 0.950 . S
C826 C825 1.398 . S
C826 C827 1.391 . S
C827 H815 0.950 . S
C827 C823 1.393 . S
C827 C826 1.391 . S
H828 C836 0.950 . S
H829 C841 0.950 . S
H830 C838 0.950 . S
H831 C840 0.950 . S
H832 C842 0.950 . S
H833 C844 0.950 . S
H834 C846 0.950 . S
H835 C847 0.950 . S
C836 H828 0.950 . S
C836 C837 1.386 1_554 S
C836 C838 1.391 . S
C837 C836 1.386 1_556 S
C837 C841 1.393 . S
C838 H830 0.950 . S
C838 C836 1.391 . S
C838 C839 1.400 1_554 S
C839 C838 1.400 1_556 S
C839 C840 1.398 . S
C839 C845 1.491 1_556 S
C840 H831 0.950 . S
C840 C839 1.398 . S
C840 C841 1.391 . S
C841 H829 0.950 . S
C841 C837 1.393 . S
C841 C840 1.391 . S
C842 H832 0.950 . S
C842 C843 1.386 1_556 S
C842 C844 1.391 . S
C843 C842 1.386 1_554 S
C843 C847 1.393 . S
C844 H833 0.950 . S
C844 C842 1.391 . S
C844 C845 1.400 1_556 S
C845 C839 1.491 1_554 S
C845 C844 1.400 1_554 S
C845 C846 1.398 . S
C846 H834 0.950 . S
C846 C845 1.398 . S
C846 C847 1.391 . S
C847 H835 0.950 . S
C847 C843 1.393 . S
C847 C846 1.391 . S
H848 C856 0.950 . S
H849 C861 0.950 . S
H850 C858 0.950 . S
H851 C860 0.950 . S
H852 C862 0.950 . S
H853 C864 0.950 . S
H854 C866 0.950 . S
H855 C867 0.950 . S
C856 H848 0.950 . S
C856 C857 1.386 . S
C856 C858 1.391 . S
C857 C856 1.386 . S
C857 C861 1.393 . S
C858 H850 0.950 . S
C858 C856 1.391 . S
C858 C859 1.400 . S
C859 C858 1.400 . S
C859 C860 1.398 . S
C859 C865 1.491 . S
C860 H851 0.950 . S
C860 C859 1.398 . S
C860 C861 1.391 . S
C861 H849 0.950 . S
C861 C857 1.393 . S
C861 C860 1.391 . S
C862 H852 0.950 . S
C862 C863 1.386 . S
C862 C864 1.391 . S
C863 C862 1.386 . S
C863 C867 1.393 . S
C864 H853 0.950 . S
C864 C862 1.391 . S
C864 C865 1.400 . S
C865 C859 1.491 . S
C865 C864 1.400 . S
C865 C866 1.398 . S
C866 H854 0.950 . S
C866 C865 1.398 . S
C866 C867 1.391 . S
C867 H855 0.950 . S
C867 C863 1.393 . S
C867 C866 1.391 . S
H868 C876 0.950 . S
H869 C881 0.950 . S
H870 C878 0.950 . S
H871 C880 0.950 . S
H872 C882 0.950 . S
H873 C884 0.950 . S
H874 C886 0.950 . S
H875 C887 0.950 . S
C876 H868 0.950 . S
C876 C877 1.386 . S
C876 C878 1.391 . S
C877 C876 1.386 . S
C877 C881 1.393 1_556 S
C878 H870 0.950 . S
C878 C876 1.391 . S
C878 C879 1.400 . S
C879 C878 1.400 . S
C879 C880 1.398 1_556 S
C879 C885 1.491 1_556 S
C880 H871 0.950 . S
C880 C879 1.398 1_554 S
C880 C881 1.391 . S
C881 H869 0.950 . S
C881 C877 1.393 1_554 S
C881 C880 1.391 . S
C882 H872 0.950 . S
C882 C883 1.386 . S
C882 C884 1.391 . S
C883 C882 1.386 . S
C883 C887 1.393 1_554 S
C884 H873 0.950 . S
C884 C882 1.391 . S
C884 C885 1.400 . S
C885 C879 1.491 1_554 S
C885 C884 1.400 . S
C885 C886 1.398 1_554 S
C886 H874 0.950 . S
C886 C885 1.398 1_556 S
C886 C887 1.391 . S
C887 H875 0.950 . S
C887 C883 1.393 1_556 S
C887 C886 1.391 . S
C257 C113 1.736 . S
C263 C19 1.972 . S
C277 C82 1.744 . S
C283 C50 1.965 . S
C297 C51 1.762 . S
C303 C81 1.970 . S
C317 C112 1.968 . S
C323 C20 1.727 . S
C337 C237 1.740 . S
C343 C143 1.965 . S
C357 C187 1.754 . S
C363 C174 1.972 . S
C377 C175 1.743 . S
C383 C186 1.973 . S
C397 C144 1.727 . S
C403 C236 1.969 . S
C417 C41 0.852 . S
C423 C10 0.857 . S
C437 C103 0.847 . S
C443 C72 0.848 . S
C457 C134 0.852 . S
C463 C165 0.856 . S
C477 C227 0.850 . S
C483 C216 0.854 . S
C497 C32 1.935 . S
C503 C1 1.913 . S
C517 C63 1.913 . S
C523 C94 1.935 . S
C537 C125 1.914 . S
C543 C156 1.926 . S
C557 C206 1.913 . S
C563 C218 1.931 . S
C577 C0 1.646 . S
C583 C31 1.646 . S
C597 C62 1.647 . S
C603 C93 1.644 . S
C617 C124 1.637 . S
C623 C155 1.646 . S
C637 C205 1.636 . S
C643 C217 1.634 . S
C657 C2 1.188 . S
C663 C29 1.189 . S
C677 C33 1.192 . S
C683 C60 1.191 . S
C697 C64 1.208 . S
C703 C91 1.213 . S
C717 C122 1.190 . S
C723 C95 1.189 . S
C737 C126 1.229 . S
C743 C153 1.230 . S
C757 C184 1.230 . S
C763 C157 1.228 . S
C777 C215 1.212 . S
C783 C188 1.217 . S
C797 C246 1.203 . S
C803 C219 1.198 . S
C817 C196 1.213 . S
C823 C30 1.213 . S
C837 C61 1.181 1_556 S
C843 C247 1.181 1_554 S
C857 C92 1.175 . S
C863 C154 1.175 . S
C877 C185 1.213 1_556 S
C883 C123 1.213 1_554 S
