# Generated by pormake.
# Topology uof, (4)-cn, num edge types: 1
# Building blocks:
#     Node 0, Type 0, BuildingBlock: GALJAG_clean_sbu_0, # of connection points: 4
#     Node 1, Type 0, BuildingBlock: GALJAG_clean_sbu_0, # of connection points: 4
#     Node 2, Type 0, BuildingBlock: GALJAG_clean_sbu_0, # of connection points: 4
#     Node 3, Type 0, BuildingBlock: GALJAG_clean_sbu_0, # of connection points: 4
#     Node 4, Type 0, BuildingBlock: GALJAG_clean_sbu_0, # of connection points: 4
#     Node 5, Type 0, BuildingBlock: GALJAG_clean_sbu_0, # of connection points: 4
#     Node 6, Type 0, BuildingBlock: GALJAG_clean_sbu_0, # of connection points: 4
#     Node 7, Type 0, BuildingBlock: GALJAG_clean_sbu_0, # of connection points: 4
#     Node 8, Type 0, BuildingBlock: GALJAG_clean_sbu_0, # of connection points: 4
#     Node 9, Type 0, BuildingBlock: GALJAG_clean_sbu_0, # of connection points: 4
#     Node 10, Type 0, BuildingBlock: GALJAG_clean_sbu_0, # of connection points: 4
#     Node 11, Type 0, BuildingBlock: GALJAG_clean_sbu_0, # of connection points: 4
#     Edge 12, Type (0, 0), BuildingBlock: CIFDUS_clean_linker_0, # of connection points: 2
#     Edge 13, Type (0, 0), BuildingBlock: CIFDUS_clean_linker_0, # of connection points: 2
#     Edge 14, Type (0, 0), BuildingBlock: CIFDUS_clean_linker_0, # of connection points: 2
#     Edge 15, Type (0, 0), BuildingBlock: CIFDUS_clean_linker_0, # of connection points: 2
#     Edge 16, Type (0, 0), BuildingBlock: CIFDUS_clean_linker_0, # of connection points: 2
#     Edge 17, Type (0, 0), BuildingBlock: CIFDUS_clean_linker_0, # of connection points: 2
#     Edge 18, Type (0, 0), BuildingBlock: CIFDUS_clean_linker_0, # of connection points: 2
#     Edge 19, Type (0, 0), BuildingBlock: CIFDUS_clean_linker_0, # of connection points: 2
#     Edge 20, Type (0, 0), BuildingBlock: CIFDUS_clean_linker_0, # of connection points: 2
#     Edge 21, Type (0, 0), BuildingBlock: CIFDUS_clean_linker_0, # of connection points: 2
#     Edge 22, Type (0, 0), BuildingBlock: CIFDUS_clean_linker_0, # of connection points: 2
#     Edge 23, Type (0, 0), BuildingBlock: CIFDUS_clean_linker_0, # of connection points: 2
#     Edge 24, Type (0, 0), BuildingBlock: CIFDUS_clean_linker_0, # of connection points: 2
#     Edge 25, Type (0, 0), BuildingBlock: CIFDUS_clean_linker_0, # of connection points: 2
#     Edge 26, Type (0, 0), BuildingBlock: CIFDUS_clean_linker_0, # of connection points: 2
#     Edge 27, Type (0, 0), BuildingBlock: CIFDUS_clean_linker_0, # of connection points: 2
#     Edge 28, Type (0, 0), BuildingBlock: CIFDUS_clean_linker_0, # of connection points: 2
#     Edge 29, Type (0, 0), BuildingBlock: CIFDUS_clean_linker_0, # of connection points: 2
#     Edge 30, Type (0, 0), BuildingBlock: CIFDUS_clean_linker_0, # of connection points: 2
#     Edge 31, Type (0, 0), BuildingBlock: CIFDUS_clean_linker_0, # of connection points: 2
#     Edge 32, Type (0, 0), BuildingBlock: CIFDUS_clean_linker_0, # of connection points: 2
#     Edge 33, Type (0, 0), BuildingBlock: CIFDUS_clean_linker_0, # of connection points: 2
#     Edge 34, Type (0, 0), BuildingBlock: CIFDUS_clean_linker_0, # of connection points: 2
#     Edge 35, Type (0, 0), BuildingBlock: CIFDUS_clean_linker_0, # of connection points: 2
# Relax obj value: 0.137
# Max RMSD: 0.110
# Mean RMSD: 0.110
data_MOF--net-uof--node1-GALJAG_clean_sbu_0--edge1-CIFDUS_clean_linker_0
_symmetry_space_group_name_H-M    P1
_symmetry_Int_Tables_number       1
_symmetry_cell_setting            triclinic
loop_
_symmetry_equiv_pos_as_xyz
'x, y, z'
_cell_length_a     27.254672
_cell_length_b     27.352433
_cell_length_c     59.438105
_cell_angle_alpha  90.089198
_cell_angle_beta   89.743436
_cell_angle_gamma 119.90492
loop_
_atom_site_label
_atom_site_type_symbol
_atom_site_fract_x
_atom_site_fract_y
_atom_site_fract_z
_atom_type_partial_charge
In0 In 0.23475 0.32279 0.23504 0.0
O1 O 0.31208 0.41413 0.23524 0.0
O2 O 0.32334 0.34717 0.22353 0.0
C3 C 0.14634 0.32872 0.21625 0.0
C4 C 0.24152 0.3066 0.27958 0.0
C5 C 0.20536 0.22477 0.21495 0.0
O6 O 0.19409 0.34842 0.20685 0.0
O7 O 0.14513 0.31195 0.23614 0.0
O8 O 0.19475 0.22759 0.23543 0.0
O9 O 0.23064 0.27129 0.20469 0.0
C10 C 0.34619 0.39884 0.22803 0.0
O11 O 0.2498 0.27956 0.2643 0.0
O12 O 0.22818 0.34223 0.27255 0.0
In13 In 0.92337 0.23292 0.56635 0.0
O14 O 0.89622 0.29995 0.57168 0.0
O15 O 0.97996 0.32668 0.56056 0.0
C16 C 0.83475 0.14525 0.54471 0.0
C17 C 0.94578 0.22843 0.61041 0.0
C18 C 0.99828 0.22732 0.53912 0.0
O19 O 0.85266 0.19637 0.53999 0.0
O20 O 0.85709 0.13816 0.56206 0.0
O21 O 0.98925 0.20766 0.55887 0.0
O22 O 0.97005 0.25025 0.53333 0.0
C23 C 0.94436 0.34083 0.56636 0.0
O24 O 0.98207 0.24204 0.59495 0.0
O25 O 0.89636 0.21426 0.60367 0.0
In26 In 0.69526 0.91801 0.90082 0.0
O27 O 0.73633 0.97673 0.93014 0.0
O28 O 0.68296 0.89011 0.93826 0.0
C29 C 0.78935 0.99357 0.87983 0.0
C30 C 0.60884 0.94017 0.89763 0.0
C31 C 0.69249 0.82993 0.87762 0.0
O32 O 0.79045 0.97513 0.89913 0.0
O33 O 0.74093 0.97417 0.87124 0.0
O34 O 0.6684 0.85652 0.87111 0.0
O35 O 0.71314 0.8435 0.89717 0.0
C36 C 0.71443 0.94006 0.94538 0.0
O37 O 0.6005 0.89196 0.90328 0.0
O38 O 0.6595 0.97532 0.89291 0.0
In39 In 0.78937 0.7052 0.23416 0.0
O40 O 0.78212 0.75026 0.26466 0.0
O41 O 0.79923 0.68372 0.27105 0.0
C42 C 0.81676 0.80145 0.21301 0.0
C43 C 0.67638 0.63215 0.22986 0.0
C44 C 0.87162 0.6948 0.21165 0.0
O45 O 0.8315 0.80064 0.23302 0.0
O46 O 0.78813 0.75388 0.20382 0.0
O47 O 0.82075 0.67154 0.20533 0.0
O48 O 0.87988 0.71794 0.23075 0.0
C49 C 0.78951 0.72108 0.27915 0.0
O50 O 0.71067 0.61487 0.23419 0.0
O51 O 0.69944 0.68459 0.22706 0.0
In52 In 0.09825 0.78357 0.57211 0.0
O53 O 0.12677 0.71735 0.56633 0.0
O54 O 0.04227 0.68938 0.57658 0.0
C55 C 0.18161 0.87811 0.55131 0.0
C56 C 0.07967 0.80069 0.61563 0.0
C57 C 0.01528 0.76222 0.54347 0.0
O58 O 0.19372 0.84788 0.56363 0.0
O59 O 0.12983 0.86233 0.55075 0.0
O60 O 0.01465 0.77601 0.56372 0.0
O61 O 0.05788 0.75833 0.53763 0.0
C62 C 0.0785 0.6759 0.57106 0.0
O63 O 0.05691 0.81031 0.59916 0.0
O64 O 0.11652 0.78756 0.6102 0.0
In65 In 0.32159 0.09809 0.90701 0.0
O66 O 0.41708 0.12515 0.90683 0.0
O67 O 0.35703 0.04058 0.89875 0.0
C68 C 0.31959 0.18748 0.88705 0.0
C69 C 0.29603 0.08258 0.95147 0.0
C70 C 0.23479 0.01174 0.88614 0.0
O71 O 0.3414 0.16111 0.87798 0.0
O72 O 0.30368 0.17255 0.90711 0.0
O73 O 0.24544 0.01012 0.90662 0.0
O74 O 0.26829 0.0568 0.87607 0.0
C75 C 0.40826 0.07646 0.90171 0.0
O76 O 0.25931 0.06789 0.93622 0.0
O77 O 0.34667 0.11058 0.94449 0.0
In78 In 0.69754 0.77615 0.44802 0.0
O79 O 0.60256 0.70833 0.44557 0.0
O80 O 0.66335 0.68219 0.44976 0.0
C81 C 0.69919 0.86521 0.46982 0.0
C82 C 0.72382 0.78485 0.4037 0.0
C83 C 0.77096 0.77145 0.47612 0.0
O84 O 0.66327 0.81437 0.47386 0.0
O85 O 0.73102 0.87172 0.45323 0.0
O86 O 0.78527 0.79212 0.4566 0.0
O87 O 0.72009 0.75407 0.48142 0.0
C88 C 0.61203 0.66763 0.44756 0.0
O89 O 0.75155 0.77699 0.41876 0.0
O90 O 0.68393 0.79181 0.41101 0.0
In91 In 0.92705 0.69009 0.78478 0.0
O92 O 0.89745 0.59571 0.7785 0.0
O93 O 0.97404 0.6462 0.79629 0.0
C94 C 0.83604 0.68482 0.80675 0.0
C95 C 0.96693 0.71703 0.74213 0.0
C96 C 1.00024 0.78203 0.80723 0.0
O97 O 0.863 0.66149 0.81371 0.0
O98 O 0.85049 0.70549 0.78719 0.0
O99 O 0.97852 0.78511 0.78898 0.0
O100 O 0.98495 0.73278 0.81397 0.0
C101 C 0.9409 0.59894 0.78771 0.0
O102 O 0.99719 0.72484 0.75916 0.0
O103 O 0.91442 0.69575 0.74628 0.0
In104 In 0.24491 0.9254 0.11961 0.0
O105 O 0.31144 0.89707 0.11603 0.0
O106 O 0.33451 0.97458 0.13267 0.0
C107 C 0.16019 0.83376 0.14123 0.0
C108 C 0.26363 0.96091 0.07636 0.0
C109 C 0.21724 0.99656 0.1389 0.0
O110 O 0.20999 0.86225 0.14858 0.0
O111 O 0.15423 0.84706 0.12144 0.0
O112 O 0.20089 0.97734 0.11942 0.0
O113 O 0.2481 0.98065 0.14842 0.0
C114 C 0.35023 0.94133 0.12527 0.0
O115 O 0.28862 0.9917 0.093 0.0
O116 O 0.22732 0.91019 0.0812 0.0
In117 In 0.32687 0.22513 0.44578 0.0
O118 O 0.2785 0.23571 0.41706 0.0
O119 O 0.34341 0.21746 0.4082 0.0
C120 C 0.24774 0.21923 0.47389 0.0
C121 C 0.41396 0.3323 0.44918 0.0
C122 C 0.31527 0.12611 0.4614 0.0
O123 O 0.23919 0.21014 0.45306 0.0
O124 O 0.29649 0.23167 0.48054 0.0
O125 O 0.35212 0.17337 0.4691 0.0
O126 O 0.28937 0.12958 0.44447 0.0
C127 C 0.30613 0.2289 0.40152 0.0
O128 O 0.4225 0.29175 0.44485 0.0
O129 O 0.36296 0.31795 0.45251 0.0
In130 In 0.10016 0.31301 0.77849 0.0
O131 O 0.04449 0.26827 0.7487 0.0
O132 O 0.12899 0.33167 0.7412 0.0
C133 C 0.02377 0.22054 0.80002 0.0
C134 C 0.07619 0.39791 0.78324 0.0
C135 C 0.18963 0.3117 0.79883 0.0
O136 O 0.03863 0.21906 0.78004 0.0
O137 O 0.04747 0.26857 0.80912 0.0
O138 O 0.17541 0.29608 0.77872 0.0
O139 O 0.16239 0.33275 0.8078 0.0
C140 C 0.08075 0.29551 0.73372 0.0
O141 O 0.12617 0.4077 0.77977 0.0
O142 O 0.03991 0.34645 0.78476 0.0
In143 In 0.79553 0.10383 0.11258 0.0
O144 O 0.77736 0.04438 0.08328 0.0
O145 O 0.80228 0.1293 0.07507 0.0
C146 C 0.81912 0.03196 0.1336 0.0
C147 C 0.68703 0.07959 0.11969 0.0
C148 C 0.88694 0.19586 0.13102 0.0
O149 O 0.83249 0.04576 0.11332 0.0
O150 O 0.79367 0.05418 0.14319 0.0
O151 O 0.83949 0.16932 0.14071 0.0
O152 O 0.88691 0.17958 0.1111 0.0
C153 C 0.78672 0.07988 0.06802 0.0
O154 O 0.72584 0.12877 0.11449 0.0
O155 O 0.70351 0.04434 0.12187 0.0
H156 H 0.89973 0.21936 0.17605 0.0
H157 H 0.9941 0.25863 0.11387 0.0
H158 H 0.08287 0.30953 0.13467 0.0
H159 H 0.13416 0.33383 0.1708 0.0
H160 H 0.03965 0.29018 0.23302 0.0
H161 H 0.95103 0.25098 0.21203 0.0
C162 C 0.93964 0.24005 0.16698 0.0
C163 C 0.93996 0.23501 0.14333 0.0
C164 C 0.99081 0.26822 0.17915 0.0
C165 C 0.99233 0.26177 0.13199 0.0
C166 C 0.04326 0.29073 0.14393 0.0
C167 C 0.09427 0.31695 0.1798 0.0
C168 C 0.09384 0.31516 0.20355 0.0
C169 C 0.04314 0.293 0.16755 0.0
C170 C 0.0415 0.29237 0.21482 0.0
C171 C 0.99065 0.26959 0.20278 0.0
H172 H 0.76829 0.03154 0.55276 0.0
H173 H 0.82878 0.15509 0.49952 0.0
H174 H 0.7905 0.08018 0.47138 0.0
H175 H 0.74725 0.97886 0.46167 0.0
H176 H 0.67921 0.85521 0.5148 0.0
H177 H 0.71217 0.9301 0.54293 0.0
C178 C 0.77201 0.04199 0.53501 0.0
C179 C 0.80161 0.09902 0.52834 0.0
C180 C 0.74882 0.99843 0.51877 0.0
C181 C 0.80591 0.1117 0.50522 0.0
C182 C 0.78436 0.06877 0.48904 0.0
C183 C 0.73873 0.96839 0.47938 0.0
C184 C 0.71096 0.91138 0.48606 0.0
C185 C 0.75682 0.0119 0.49557 0.0
C186 C 0.7001 0.89862 0.50911 0.0
C187 C 0.71933 0.94153 0.52528 0.0
H188 H 0.73591 0.76044 0.88718 0.0
H189 H 0.67939 0.82228 0.83214 0.0
H190 H 0.7147 0.77974 0.80515 0.0
H191 H 0.7704 0.73268 0.79689 0.0
H192 H 0.82259 0.66674 0.85195 0.0
H193 H 0.77995 0.70214 0.87883 0.0
C194 C 0.73033 0.76366 0.8693 0.0
C195 C 0.70518 0.79495 0.86183 0.0
C196 C 0.75048 0.73853 0.85368 0.0
C197 C 0.69835 0.79845 0.83851 0.0
C198 C 0.71891 0.77433 0.82296 0.0
C199 C 0.77141 0.72502 0.81473 0.0
C200 C 0.80015 0.69722 0.82225 0.0
C201 C 0.74629 0.74536 0.8303 0.0
C202 C 0.80083 0.68781 0.84552 0.0
C203 C 0.77667 0.70842 0.86102 0.0
H204 H 0.98383 0.73504 0.22127 0.0
H205 H 0.86573 0.67964 0.16619 0.0
H206 H 0.94376 0.71326 0.13923 0.0
H207 H 0.04676 0.76822 0.13108 0.0
H208 H 0.16432 0.81942 0.18632 0.0
H209 H 0.08601 0.77731 0.21306 0.0
C210 C 0.97508 0.7292 0.20338 0.0
C211 C 0.91873 0.70502 0.19589 0.0
C212 C 0.02042 0.74849 0.18782 0.0
C213 C 0.90846 0.69785 0.17257 0.0
C214 C 0.95325 0.71749 0.15705 0.0
C215 C 0.05524 0.76905 0.14892 0.0
C216 C 0.11173 0.79754 0.15654 0.0
C217 C 1.0096 0.74429 0.16443 0.0
C218 C 0.12156 0.79798 0.17981 0.0
C219 C 0.07662 0.77409 0.19524 0.0
H220 H 0.35047 0.10728 0.50241 0.0
H221 H 0.23229 0.02253 0.44848 0.0
H222 H 0.18351 0.9374 0.47117 0.0
H223 H 0.16719 0.89022 0.50763 0.0
H224 H 0.2852 0.97051 0.5617 0.0
H225 H 0.34149 0.05378 0.53775 0.0
C226 C 0.31492 0.06974 0.49544 0.0
C227 C 0.29494 0.07178 0.47372 0.0
C228 C 0.28654 0.02027 0.50874 0.0
C229 C 0.24867 0.02257 0.46506 0.0
C230 C 0.22041 0.97375 0.4781 0.0
C231 C 0.20585 0.92562 0.51404 0.0
C232 C 0.2219 0.92452 0.53642 0.0
C233 C 0.23785 0.97269 0.50016 0.0
C234 C 0.27217 0.97034 0.5445 0.0
C235 C 0.30407 0.01803 0.53082 0.0
H236 H 0.32765 0.20552 0.84162 0.0
H237 H 0.27452 0.25085 0.90283 0.0
H238 H 0.23501 0.29868 0.88094 0.0
H239 H 0.20694 0.31942 0.84429 0.0
H240 H 0.25583 0.26973 0.78309 0.0
H241 H 0.30584 0.23257 0.80499 0.0
C242 C 0.30845 0.22684 0.85022 0.0
C243 C 0.30427 0.22453 0.87394 0.0
C244 C 0.28449 0.25318 0.83745 0.0
C245 C 0.2786 0.25197 0.88467 0.0
C246 C 0.25569 0.27915 0.87212 0.0
C247 C 0.22947 0.30147 0.8357 0.0
C248 C 0.22754 0.29755 0.81198 0.0
C249 C 0.25713 0.27887 0.84847 0.0
C250 C 0.25658 0.27352 0.80125 0.0
C251 C 0.28504 0.25198 0.8138 0.0
H252 H 0.61385 0.51732 0.22487 0.0
H253 H 0.59821 0.66548 0.23369 0.0
H254 H 0.49529 0.60761 0.23384 0.0
H255 H 0.40865 0.51415 0.23204 0.0
H256 H 0.42449 0.36662 0.22121 0.0
H257 H 0.52726 0.42451 0.22113 0.0
C258 C 0.58784 0.53682 0.22679 0.0
C259 C 0.61382 0.59561 0.22934 0.0
C260 C 0.52828 0.50328 0.22645 0.0
C261 C 0.57942 0.6203 0.23163 0.0
C262 C 0.5204 0.58721 0.23176 0.0
C263 C 0.43464 0.49482 0.22954 0.0
C264 C 0.40866 0.43609 0.22668 0.0
C265 C 0.49421 0.52857 0.22924 0.0
C266 C 0.44313 0.41175 0.22339 0.0
C267 C 0.50213 0.44482 0.22341 0.0
H268 H 0.97593 0.58425 0.57907 0.0
H269 H 0.14671 0.63256 0.55925 0.0
H270 H 0.11958 0.53292 0.55567 0.0
H271 H 0.04723 0.43241 0.5581 0.0
H272 H 0.87659 0.38448 0.57803 0.0
H273 H 0.90378 0.48405 0.58151 0.0
C274 C 1.00738 0.57309 0.57402 0.0
C275 C 0.06341 0.61587 0.56947 0.0
C276 C 0.99137 0.51589 0.57191 0.0
C277 C 0.10344 0.60054 0.56289 0.0
C278 C 0.08786 0.54359 0.56081 0.0
C279 C 0.01585 0.44368 0.56313 0.0
C280 C 0.9598 0.40099 0.56774 0.0
C281 C 0.03192 0.50095 0.56522 0.0
C282 C 0.91986 0.41642 0.57432 0.0
C283 C 0.93546 0.47334 0.57636 0.0
H284 H 0.39379 0.97104 0.90039 0.0
H285 H 0.52335 0.14653 0.89998 0.0
H286 H 0.59654 0.11948 0.89785 0.0
H287 H 0.6235 0.04584 0.89661 0.0
H288 H 0.49391 0.87047 0.89912 0.0
H289 H 0.42073 0.89756 0.89988 0.0
C290 C 0.43806 1.00345 0.89974 0.0
C291 C 0.45311 0.06083 0.9002 0.0
C292 C 0.47978 0.98752 0.89891 0.0
C293 C 0.51065 0.10218 0.89961 0.0
C294 C 0.55246 0.08667 0.89839 0.0
C295 C 0.5792 0.01349 0.8972 0.0
C296 C 0.56412 0.95609 0.89765 0.0
C297 C 0.5375 0.02948 0.89807 0.0
C298 C 0.50661 0.91482 0.89871 0.0
C299 C 0.4648 0.93034 0.89915 0.0
H300 H 0.62766 0.57733 0.44682 0.0
H301 H 0.49685 0.62245 0.44844 0.0
H302 H 0.42441 0.52239 0.44961 0.0
H303 H 0.39865 0.42265 0.45032 0.0
H304 H 0.52919 0.37728 0.44754 0.0
H305 H 0.60177 0.4774 0.44677 0.0
C306 C 0.58327 0.56534 0.44742 0.0
C307 C 0.5676 0.60733 0.44761 0.0
C308 C 0.54204 0.50787 0.44796 0.0
C309 C 0.50997 0.59102 0.44826 0.0
C310 C 0.46862 0.53385 0.44897 0.0
C311 C 0.44301 0.43457 0.44964 0.0
C312 C 0.45859 0.39254 0.44914 0.0
C313 C 0.48423 0.492 0.4489 0.0
C314 C 0.51617 0.40877 0.44801 0.0
C315 C 0.55758 0.46597 0.44755 0.0
H316 H 0.04451 0.61066 0.79357 0.0
H317 H 0.87125 0.48597 0.77946 0.0
H318 H 0.89799 0.41265 0.77738 0.0
H319 H 0.97102 0.38455 0.77922 0.0
H320 H 0.14517 0.5108 0.79087 0.0
H321 H 0.11773 0.58326 0.79421 0.0
C322 C 1.01243 0.56734 0.7902 0.0
C323 C 0.95574 0.55361 0.78693 0.0
C324 C 0.02843 0.5259 0.78849 0.0
C325 C 0.915 0.49753 0.78215 0.0
C326 C 0.93035 0.45569 0.78094 0.0
C327 C 1.00299 0.42793 0.78255 0.0
C328 C 0.06012 0.44226 0.78495 0.0
C329 C 0.98697 0.46945 0.78403 0.0
C330 C 0.10104 0.49871 0.78897 0.0
C331 C 0.0853 0.54008 0.79092 0.0
H332 H 0.44092 0.04593 0.12993 0.0
H333 H 0.39545 0.87216 0.12 0.0
H334 H 0.49593 0.89975 0.11834 0.0
H335 H 0.5965 0.97369 0.11872 0.0
H336 H 0.64151 0.14811 0.12584 0.0
H337 H 0.54123 0.11992 0.12956 0.0
C338 C 0.45297 0.01397 0.12762 0.0
C339 C 0.41075 0.9569 0.12534 0.0
C340 C 0.51068 0.0304 0.12605 0.0
C341 C 0.42708 0.91622 0.12192 0.0
C342 C 0.48451 0.93205 0.12094 0.0
C343 C 0.58439 1.00555 0.12121 0.0
C344 C 0.62646 0.06299 0.12215 0.0
C345 C 0.52664 0.98906 0.12284 0.0
C346 C 0.61002 0.10373 0.12507 0.0
C347 C 0.5527 0.08758 0.12722 0.0
H348 H 0.20533 0.00746 0.18312 0.0
H349 H 0.19798 0.0738 0.11825 0.0
H350 H 0.18776 0.14866 0.13642 0.0
H351 H 0.1918 0.20054 0.17076 0.0
H352 H 0.19578 0.13206 0.23561 0.0
H353 H 0.19543 0.05164 0.21745 0.0
C354 C 0.20086 0.03807 0.17304 0.0
C355 C 0.20346 0.03636 0.14954 0.0
C356 C 0.19452 0.08028 0.18356 0.0
C357 C 0.19642 0.075 0.13645 0.0
C358 C 0.19078 0.11772 0.1468 0.0
C359 C 0.19171 0.16746 0.18085 0.0
C360 C 0.19478 0.1722 0.20434 0.0
C361 C 0.19141 0.1216 0.17033 0.0
C362 C 0.19362 0.12901 0.21743 0.0
C363 C 0.19377 0.08335 0.20708 0.0
H364 H 0.08561 0.21263 0.55072 0.0
H365 H 1.00209 0.23612 0.49369 0.0
H366 H 0.0711 0.23305 0.46823 0.0
H367 H 0.15607 0.22591 0.46239 0.0
H368 H 0.24355 0.20864 0.51945 0.0
H369 H 0.17185 0.20696 0.54488 0.0
C370 C 0.08251 0.21675 0.5327 0.0
C371 C 0.03914 0.22442 0.52396 0.0
C372 C 0.1229 0.21619 0.51828 0.0
C373 C 0.03551 0.23037 0.50068 0.0
C374 C 0.07477 0.22854 0.48616 0.0
C375 C 0.15916 0.22146 0.48039 0.0
C376 C 0.2045 0.21718 0.48915 0.0
C377 C 0.11875 0.22178 0.49481 0.0
C378 C 0.20877 0.21211 0.51245 0.0
C379 C 0.1679 0.21108 0.52694 0.0
H380 H 0.01286 0.20159 0.84462 0.0
H381 H 0.9365 0.12847 0.78083 0.0
H382 H 0.85704 0.04974 0.80017 0.0
H383 H 0.80678 1.00565 0.83524 0.0
H384 H 0.88559 0.0755 0.89901 0.0
H385 H 0.96737 0.15188 0.87967 0.0
C386 C 0.97893 0.16807 0.83504 0.0
C387 C 0.97964 0.17066 0.8115 0.0
C388 C 0.93411 0.12285 0.84622 0.0
C389 C 0.93636 0.12695 0.79905 0.0
C390 C 0.89099 0.08223 0.81006 0.0
C391 C 0.84214 0.03751 0.84481 0.0
C392 C 0.8404 0.03596 0.86836 0.0
C393 C 0.88901 0.08038 0.83362 0.0
C394 C 0.88645 0.07641 0.88079 0.0
C395 C 0.93291 0.11999 0.86978 0.0
H396 H 0.83148 0.02375 0.17805 0.0
H397 H 0.82867 0.94728 0.11419 0.0
H398 H 0.8321 0.87006 0.13342 0.0
H399 H 0.82634 0.82023 0.16846 0.0
H400 H 0.83294 0.89837 0.23231 0.0
H401 H 0.83835 0.9799 0.21301 0.0
C402 C 0.83225 0.9904 0.16841 0.0
C403 C 0.82892 0.99022 0.1449 0.0
C404 C 0.8347 0.9467 0.17954 0.0
C405 C 0.831 0.94776 0.13239 0.0
C406 C 0.83272 0.90365 0.14335 0.0
C407 C 0.82965 0.85552 0.17807 0.0
C408 C 0.82836 0.85344 0.20162 0.0
C409 C 0.8331 0.90204 0.16691 0.0
C410 C 0.83369 0.89942 0.21408 0.0
C411 C 0.8365 0.94573 0.20309 0.0
H412 H 0.86808 0.77337 0.46508 0.0
H413 H 0.75972 0.75631 0.52125 0.0
H414 H 0.82452 0.74779 0.54703 0.0
H415 H 0.91348 0.7493 0.55365 0.0
H416 H 0.02148 0.76426 0.49768 0.0
H417 H 0.95452 0.7684 0.47153 0.0
C418 C 0.8589 0.76791 0.48298 0.0
C419 C 0.80993 0.76617 0.49141 0.0
C420 C 0.89581 0.76222 0.4976 0.0
C421 C 0.79756 0.75805 0.5145 0.0
C422 C 0.83442 0.75311 0.5292 0.0
C423 C 0.92205 0.75294 0.5357 0.0
C424 C 0.97219 0.75693 0.52751 0.0
C425 C 0.88381 0.7556 0.52093 0.0
C426 C 0.98283 0.76102 0.50427 0.0
C427 C 0.94488 0.76379 0.48938 0.0
H428 H 0.19333 0.012 0.84502 0.0
H429 H 0.17052 0.90536 0.90218 0.0
H430 H 0.09395 0.82488 0.88286 0.0
H431 H 0.03631 0.78451 0.84937 0.0
H432 H 0.05729 0.89072 0.79232 0.0
H433 H 0.13188 0.97235 0.8121 0.0
C434 C 0.17146 0.97111 0.85321 0.0
C435 C 0.18753 0.96417 0.87482 0.0
C436 C 0.12739 0.92529 0.8421 0.0
C437 C 0.15873 0.9114 0.88547 0.0
C438 C 0.11509 0.86547 0.87446 0.0
C439 C 0.0571 0.8256 0.84132 0.0
C440 C 0.042 0.83186 0.81946 0.0
C441 C 0.09952 0.87191 0.85273 0.0
C442 C 0.06853 0.8852 0.80921 0.0
C443 C 0.11117 0.93168 0.82045 0.0
H444 H 0.2521 0.28183 0.38507 0.0
H445 H 0.3413 0.196 0.36422 0.0
H446 H 0.32805 0.21186 0.32472 0.0
H447 H 0.29194 0.25074 0.29625 0.0
H448 H 0.20721 0.34113 0.31689 0.0
H449 H 0.21807 0.32308 0.35646 0.0
C450 C 0.26837 0.2663 0.37187 0.0
C451 C 0.29727 0.2373 0.37756 0.0
C452 C 0.26159 0.27664 0.34923 0.0
C453 C 0.31881 0.21823 0.36029 0.0
C454 C 0.31126 0.22734 0.33772 0.0
C455 C 0.2757 0.26645 0.30939 0.0
C456 C 0.24846 0.29701 0.30363 0.0
C457 C 0.28285 0.25659 0.33201 0.0
C458 C 0.22828 0.31754 0.32087 0.0
C459 C 0.23442 0.30711 0.34348 0.0
H460 H 0.05177 0.28199 0.62787 0.0
H461 H 0.87571 0.186 0.64704 0.0
H462 H 0.90258 0.19682 0.68678 0.0
H463 H 0.97579 0.23544 0.71597 0.0
H464 H 0.15164 0.33577 0.69706 0.0
H465 H 0.12518 0.3214 0.65721 0.0
C466 C 0.01924 0.26307 0.64074 0.0
C467 C 0.96171 0.23287 0.63449 0.0
C468 C 0.03502 0.27048 0.66354 0.0
C469 C 0.92017 0.20927 0.65138 0.0
C470 C 0.93556 0.21552 0.67409 0.0
C471 C 1.00846 0.254 0.70315 0.0
C472 C 0.06575 0.28649 0.70949 0.0
C473 C 0.9928 0.24631 0.68036 0.0
C474 C 0.10736 0.31061 0.69264 0.0
C475 C 0.09219 0.30236 0.66987 0.0
H476 H 0.73767 0.97376 0.05099 0.0
H477 H 0.81631 0.14842 0.03094 0.0
H478 H 0.80173 0.12007 0.99132 0.0
H479 H 0.76614 0.04583 0.96252 0.0
H480 H 0.68436 0.87093 0.98244 0.0
H481 H 0.70071 0.89924 0.0221 0.0
C482 C 0.7518 1.00571 0.03795 0.0
C483 C 0.77832 0.06327 0.04393 0.0
C484 C 0.74264 0.989 0.01525 0.0
C485 C 0.79588 0.10397 0.02682 0.0
C486 C 0.78755 0.08772 1.00418 0.0
C487 C 0.75199 0.01377 0.97552 0.0
C488 C 0.72424 0.95621 0.9695 0.0
C489 C 0.76094 0.0304 0.99821 0.0
C490 C 0.70583 0.91539 0.98659 0.0
C491 C 0.7152 0.93163 0.00926 0.0
H492 H 0.74198 0.77772 0.29788 0.0
H493 H 0.82364 0.68244 0.31511 0.0
H494 H 0.81313 0.69672 0.35524 0.0
H495 H 0.77898 0.73488 0.38529 0.0
H496 H 0.69148 0.82434 0.36776 0.0
H497 H 0.70628 0.81403 0.32774 0.0
C498 C 0.75777 0.76024 0.3104 0.0
C499 C 0.78395 0.72932 0.30352 0.0
C500 C 0.75052 0.76768 0.33333 0.0
C501 C 0.80344 0.70639 0.31996 0.0
C502 C 0.79746 0.71464 0.34288 0.0
C503 C 0.76356 0.75255 0.3727 0.0
C504 C 0.73459 0.78087 0.37948 0.0
C505 C 0.77093 0.74509 0.34975 0.0
C506 C 0.71402 0.80261 0.36298 0.0
C507 C 0.72244 0.79664 0.34012 0.0
H508 H 0.11383 0.7705 0.65359 0.0
H509 H 0.99228 0.81523 0.62958 0.0
H510 H 0.94444 0.79103 0.66609 0.0
H511 H 0.93467 0.75329 0.70482 0.0
H512 H 0.059 0.71238 0.72879 0.0
H513 H 0.10732 0.73803 0.69251 0.0
C514 C 0.07743 0.77581 0.65645 0.0
C515 C 0.05687 0.79475 0.63884 0.0
C516 C 0.04979 0.76147 0.67748 0.0
C517 C 1.00934 0.80104 0.64286 0.0
C518 C 0.98156 0.78675 0.66371 0.0
C519 C 0.97207 0.7497 0.70196 0.0
C520 C 0.99287 0.73044 0.71939 0.0
C521 C 1.0008 0.766 0.68109 0.0
C522 C 0.04203 0.72696 0.71562 0.0
C523 C 0.06988 0.74178 0.69488 0.0
H524 H 0.19195 0.94314 0.04119 0.0
H525 H 0.36749 0.03411 0.06051 0.0
H526 H 0.39339 0.08218 0.02417 0.0
H527 H 0.36638 0.09909 0.9868 0.0
H528 H 0.19027 0.01205 0.96797 0.0
H529 H 0.16442 0.96297 1.00408 0.0
C530 C 0.23585 0.97289 0.03723 0.0
C531 C 0.27787 0.98444 0.05332 0.0
C532 C 0.25032 1.002 0.01649 0.0
C533 C 0.33447 0.02419 0.04826 0.0
C534 C 0.34931 0.05196 0.02754 0.0
C535 C 0.32229 0.06999 0.99072 0.0
C536 C 0.28044 0.05959 0.97468 0.0
C537 C 0.3076 0.04162 0.01156 0.0
C538 C 0.22347 0.02133 0.98004 0.0
C539 C 0.20859 0.99277 1.00065 0.0
loop_
_geom_bond_atom_site_label_1
_geom_bond_atom_site_label_2
_geom_bond_distance
_geom_bond_site_symmetry_2
_ccdc_geom_bond_type
In0 O1 2.294 . S
In0 O2 2.326 . S
In0 O6 2.266 . S
In0 O7 2.326 . S
In0 O8 2.266 . S
In0 O9 2.326 . S
In0 O11 2.294 . S
In0 O12 2.326 . S
O1 In0 2.294 . S
O1 C10 1.240 . S
O2 In0 2.326 . S
O2 C10 1.252 . S
C3 O6 1.252 . S
C3 O7 1.260 . S
C4 O11 1.240 . S
C4 O12 1.252 . S
C5 O8 1.252 . S
C5 O9 1.260 . S
O6 In0 2.266 . S
O6 C3 1.252 . S
O7 In0 2.326 . S
O7 C3 1.260 . S
O8 In0 2.266 . S
O8 C5 1.252 . S
O9 In0 2.326 . S
O9 C5 1.260 . S
C10 O1 1.240 . S
C10 O2 1.252 . S
O11 In0 2.294 . S
O11 C4 1.240 . S
O12 In0 2.326 . S
O12 C4 1.252 . S
In13 O14 2.294 . S
In13 O15 2.326 . S
In13 O19 2.266 . S
In13 O20 2.326 . S
In13 O21 2.266 1_655 S
In13 O22 2.326 . S
In13 O24 2.294 . S
In13 O25 2.326 . S
O14 In13 2.294 . S
O14 C23 1.240 . S
O15 In13 2.326 . S
O15 C23 1.259 . S
C16 O19 1.252 . S
C16 O20 1.260 . S
C17 O24 1.240 . S
C17 O25 1.252 . S
C18 O21 1.252 . S
C18 O22 1.260 1_455 S
O19 In13 2.266 . S
O19 C16 1.252 . S
O20 In13 2.326 . S
O20 C16 1.260 . S
O21 In13 2.266 1_455 S
O21 C18 1.252 . S
O22 In13 2.326 . S
O22 C18 1.260 1_655 S
C23 O14 1.240 . S
C23 O15 1.259 . S
O24 In13 2.294 . S
O24 C17 1.240 . S
O25 In13 2.326 . S
O25 C17 1.252 . S
In26 O27 2.294 . S
In26 O28 2.326 . S
In26 O32 2.266 1_565 S
In26 O33 2.326 . S
In26 O34 2.266 . S
In26 O35 2.326 . S
In26 O37 2.294 . S
In26 O38 2.332 . S
O27 In26 2.294 . S
O27 C36 1.240 . S
O28 In26 2.326 . S
O28 C36 1.252 . S
C29 O32 1.252 . S
C29 O33 1.260 1_545 S
C30 O37 1.240 . S
C30 O38 1.255 . S
C31 O34 1.252 . S
C31 O35 1.260 . S
O32 In26 2.266 1_545 S
O32 C29 1.252 . S
O33 In26 2.326 . S
O33 C29 1.260 1_565 S
O34 In26 2.266 . S
O34 C31 1.252 . S
O35 In26 2.326 . S
O35 C31 1.260 . S
C36 O27 1.240 . S
C36 O28 1.252 . S
O37 In26 2.294 . S
O37 C30 1.240 . S
O38 In26 2.332 . S
O38 C30 1.255 . S
In39 O40 2.294 . S
In39 O41 2.326 . S
In39 O45 2.266 . S
In39 O46 2.326 . S
In39 O47 2.266 . S
In39 O48 2.326 . S
In39 O50 2.294 . S
In39 O51 2.326 . S
O40 In39 2.294 . S
O40 C49 1.240 . S
O41 In39 2.326 . S
O41 C49 1.252 . S
C42 O45 1.252 . S
C42 O46 1.260 . S
C43 O50 1.240 . S
C43 O51 1.252 . S
C44 O47 1.252 . S
C44 O48 1.260 . S
O45 In39 2.266 . S
O45 C42 1.252 . S
O46 In39 2.326 . S
O46 C42 1.260 . S
O47 In39 2.266 . S
O47 C44 1.252 . S
O48 In39 2.326 . S
O48 C44 1.260 . S
C49 O40 1.240 . S
C49 O41 1.252 . S
O50 In39 2.294 . S
O50 C43 1.240 . S
O51 In39 2.326 . S
O51 C43 1.252 . S
In52 O53 2.294 . S
In52 O54 2.326 . S
In52 O58 2.266 . S
In52 O59 2.326 . S
In52 O60 2.266 1_455 S
In52 O61 2.326 . S
In52 O63 2.294 . S
In52 O64 2.326 . S
O53 In52 2.294 . S
O53 C62 1.240 . S
O54 In52 2.326 . S
O54 C62 1.259 . S
C55 O58 1.252 . S
C55 O59 1.260 . S
C56 O63 1.240 . S
C56 O64 1.252 . S
C57 O60 1.252 . S
C57 O61 1.260 1_655 S
O58 In52 2.266 . S
O58 C55 1.252 . S
O59 In52 2.326 . S
O59 C55 1.260 . S
O60 In52 2.266 1_655 S
O60 C57 1.252 . S
O61 In52 2.326 . S
O61 C57 1.260 1_455 S
C62 O53 1.240 . S
C62 O54 1.259 . S
O63 In52 2.294 . S
O63 C56 1.240 . S
O64 In52 2.326 . S
O64 C56 1.252 . S
In65 O66 2.294 . S
In65 O67 2.332 . S
In65 O71 2.266 . S
In65 O72 2.326 . S
In65 O73 2.266 1_545 S
In65 O74 2.326 . S
In65 O76 2.294 . S
In65 O77 2.326 . S
O66 In65 2.294 . S
O66 C75 1.240 . S
O67 In65 2.332 . S
O67 C75 1.255 . S
C68 O71 1.252 . S
C68 O72 1.260 . S
C69 O76 1.240 . S
C69 O77 1.252 . S
C70 O73 1.252 . S
C70 O74 1.260 1_565 S
O71 In65 2.266 . S
O71 C68 1.252 . S
O72 In65 2.326 . S
O72 C68 1.260 . S
O73 In65 2.266 1_565 S
O73 C70 1.252 . S
O74 In65 2.326 . S
O74 C70 1.260 1_545 S
C75 O66 1.240 . S
C75 O67 1.255 . S
O76 In65 2.294 . S
O76 C69 1.240 . S
O77 In65 2.326 . S
O77 C69 1.252 . S
In78 O79 2.294 . S
In78 O80 2.326 . S
In78 O84 2.266 . S
In78 O85 2.326 . S
In78 O86 2.266 . S
In78 O87 2.326 . S
In78 O89 2.294 . S
In78 O90 2.326 . S
O79 In78 2.294 . S
O79 C88 1.240 . S
O80 In78 2.326 . S
O80 C88 1.252 . S
C81 O84 1.252 . S
C81 O85 1.260 . S
C82 O89 1.240 . S
C82 O90 1.252 . S
C83 O86 1.252 . S
C83 O87 1.260 . S
O84 In78 2.266 . S
O84 C81 1.252 . S
O85 In78 2.326 . S
O85 C81 1.260 . S
O86 In78 2.266 . S
O86 C83 1.252 . S
O87 In78 2.326 . S
O87 C83 1.260 . S
C88 O79 1.240 . S
C88 O80 1.252 . S
O89 In78 2.294 . S
O89 C82 1.240 . S
O90 In78 2.326 . S
O90 C82 1.252 . S
In91 O92 2.294 . S
In91 O93 2.332 . S
In91 O97 2.266 . S
In91 O98 2.326 . S
In91 O99 2.266 1_655 S
In91 O100 2.326 . S
In91 O102 2.294 . S
In91 O103 2.326 . S
O92 In91 2.294 . S
O92 C101 1.240 . S
O93 In91 2.332 . S
O93 C101 1.255 . S
C94 O97 1.252 . S
C94 O98 1.260 . S
C95 O102 1.240 . S
C95 O103 1.252 . S
C96 O99 1.252 . S
C96 O100 1.260 1_455 S
O97 In91 2.266 . S
O97 C94 1.252 . S
O98 In91 2.326 . S
O98 C94 1.260 . S
O99 In91 2.266 1_455 S
O99 C96 1.252 . S
O100 In91 2.326 . S
O100 C96 1.260 1_655 S
C101 O92 1.240 . S
C101 O93 1.255 . S
O102 In91 2.294 . S
O102 C95 1.240 . S
O103 In91 2.326 . S
O103 C95 1.252 . S
In104 O105 2.294 . S
In104 O106 2.326 . S
In104 O110 2.266 . S
In104 O111 2.326 . S
In104 O112 2.266 1_565 S
In104 O113 2.326 . S
In104 O115 2.294 . S
In104 O116 2.326 . S
O105 In104 2.294 . S
O105 C114 1.240 . S
O106 In104 2.326 . S
O106 C114 1.259 . S
C107 O110 1.252 . S
C107 O111 1.260 . S
C108 O115 1.240 . S
C108 O116 1.252 . S
C109 O112 1.252 . S
C109 O113 1.260 1_545 S
O110 In104 2.266 . S
O110 C107 1.252 . S
O111 In104 2.326 . S
O111 C107 1.260 . S
O112 In104 2.266 1_545 S
O112 C109 1.252 . S
O113 In104 2.326 . S
O113 C109 1.260 1_565 S
C114 O105 1.240 . S
C114 O106 1.259 . S
O115 In104 2.294 . S
O115 C108 1.240 . S
O116 In104 2.326 . S
O116 C108 1.252 . S
In117 O118 2.294 . S
In117 O119 2.326 . S
In117 O123 2.266 . S
In117 O124 2.326 . S
In117 O125 2.266 . S
In117 O126 2.326 . S
In117 O128 2.294 . S
In117 O129 2.326 . S
O118 In117 2.294 . S
O118 C127 1.240 . S
O119 In117 2.326 . S
O119 C127 1.252 . S
C120 O123 1.252 . S
C120 O124 1.260 . S
C121 O128 1.240 . S
C121 O129 1.252 . S
C122 O125 1.252 . S
C122 O126 1.260 . S
O123 In117 2.266 . S
O123 C120 1.252 . S
O124 In117 2.326 . S
O124 C120 1.260 . S
O125 In117 2.266 . S
O125 C122 1.252 . S
O126 In117 2.326 . S
O126 C122 1.260 . S
C127 O118 1.240 . S
C127 O119 1.252 . S
O128 In117 2.294 . S
O128 C121 1.240 . S
O129 In117 2.326 . S
O129 C121 1.252 . S
In130 O131 2.294 . S
In130 O132 2.326 . S
In130 O136 2.266 1_455 S
In130 O137 2.326 . S
In130 O138 2.266 . S
In130 O139 2.326 . S
In130 O141 2.294 . S
In130 O142 2.332 . S
O131 In130 2.294 . S
O131 C140 1.240 . S
O132 In130 2.326 . S
O132 C140 1.252 . S
C133 O136 1.252 . S
C133 O137 1.260 1_655 S
C134 O141 1.240 . S
C134 O142 1.255 . S
C135 O138 1.252 . S
C135 O139 1.260 . S
O136 In130 2.266 1_655 S
O136 C133 1.252 . S
O137 In130 2.326 . S
O137 C133 1.260 1_455 S
O138 In130 2.266 . S
O138 C135 1.252 . S
O139 In130 2.326 . S
O139 C135 1.260 . S
C140 O131 1.240 . S
C140 O132 1.252 . S
O141 In130 2.294 . S
O141 C134 1.240 . S
O142 In130 2.332 . S
O142 C134 1.255 . S
In143 O144 2.294 . S
In143 O145 2.326 . S
In143 O149 2.266 1_545 S
In143 O150 2.326 . S
In143 O151 2.266 . S
In143 O152 2.326 . S
In143 O154 2.294 . S
In143 O155 2.326 . S
O144 In143 2.294 . S
O144 C153 1.240 . S
O145 In143 2.326 . S
O145 C153 1.252 . S
C146 O149 1.252 . S
C146 O150 1.260 1_565 S
C147 O154 1.240 . S
C147 O155 1.259 . S
C148 O151 1.252 . S
C148 O152 1.260 . S
O149 In143 2.266 1_565 S
O149 C146 1.252 . S
O150 In143 2.326 . S
O150 C146 1.260 1_545 S
O151 In143 2.266 . S
O151 C148 1.252 . S
O152 In143 2.326 . S
O152 C148 1.260 . S
C153 O144 1.240 . S
C153 O145 1.252 . S
O154 In143 2.294 . S
O154 C147 1.240 . S
O155 In143 2.326 . S
O155 C147 1.259 . S
H156 C162 0.930 . S
H157 C165 0.930 . S
H158 C166 0.930 1_455 S
H159 C167 0.930 . S
H160 C170 0.930 . S
H161 C171 0.930 1_655 S
C162 H156 0.930 . S
C162 C163 1.355 . S
C162 C164 1.415 . S
C163 C162 1.355 . S
C163 C165 1.419 . S
C164 C162 1.415 . S
C164 C169 1.425 1_655 S
C164 C171 1.409 1_655 S
C165 H157 0.930 . S
C165 C163 1.419 . S
C165 C166 1.362 . S
C166 H158 0.930 1_655 S
C166 C165 1.362 . S
C166 C169 1.409 1_655 S
C167 H159 0.930 . S
C167 C168 1.355 . S
C167 C169 1.415 . S
C168 C167 1.355 . S
C168 C170 1.419 . S
C169 C164 1.425 1_455 S
C169 C166 1.409 1_455 S
C169 C167 1.415 . S
C170 H160 0.930 . S
C170 C168 1.419 . S
C170 C171 1.362 . S
C171 H161 0.930 1_455 S
C171 C164 1.409 1_455 S
C171 C170 1.362 . S
H172 C178 0.930 . S
H173 C181 0.930 . S
H174 C182 0.930 . S
H175 C183 0.930 . S
H176 C186 0.930 . S
H177 C187 0.930 . S
C178 H172 0.930 . S
C178 C179 1.355 . S
C178 C180 1.415 1_545 S
C179 C178 1.355 . S
C179 C181 1.419 . S
C180 C178 1.415 1_565 S
C180 C185 1.425 1_565 S
C180 C187 1.409 . S
C181 H173 0.930 . S
C181 C179 1.419 . S
C181 C182 1.362 . S
C182 H174 0.930 . S
C182 C181 1.362 . S
C182 C185 1.409 . S
C183 H175 0.930 . S
C183 C184 1.355 . S
C183 C185 1.415 1_565 S
C184 C183 1.355 . S
C184 C186 1.419 . S
C185 C180 1.425 1_545 S
C185 C182 1.409 . S
C185 C183 1.415 1_545 S
C186 H176 0.930 . S
C186 C184 1.419 . S
C186 C187 1.362 . S
C187 H177 0.930 . S
C187 C180 1.409 . S
C187 C186 1.362 . S
H188 C194 0.930 . S
H189 C197 0.930 . S
H190 C198 0.930 . S
H191 C199 0.930 . S
H192 C202 0.930 . S
H193 C203 0.930 . S
C194 H188 0.930 . S
C194 C195 1.355 . S
C194 C196 1.415 . S
C195 C194 1.355 . S
C195 C197 1.419 . S
C196 C194 1.415 . S
C196 C201 1.425 . S
C196 C203 1.409 . S
C197 H189 0.930 . S
C197 C195 1.419 . S
C197 C198 1.362 . S
C198 H190 0.930 . S
C198 C197 1.362 . S
C198 C201 1.409 . S
C199 H191 0.930 . S
C199 C200 1.355 . S
C199 C201 1.415 . S
C200 C199 1.355 . S
C200 C202 1.419 . S
C201 C196 1.425 . S
C201 C198 1.409 . S
C201 C199 1.415 . S
C202 H192 0.930 . S
C202 C200 1.419 . S
C202 C203 1.362 . S
C203 H193 0.930 . S
C203 C196 1.409 . S
C203 C202 1.362 . S
H204 C210 0.930 . S
H205 C213 0.930 . S
H206 C214 0.930 . S
H207 C215 0.930 . S
H208 C218 0.930 . S
H209 C219 0.930 . S
C210 H204 0.930 . S
C210 C211 1.355 . S
C210 C212 1.415 1_655 S
C211 C210 1.355 . S
C211 C213 1.419 . S
C212 C210 1.415 1_455 S
C212 C217 1.425 1_455 S
C212 C219 1.409 . S
C213 H205 0.930 . S
C213 C211 1.419 . S
C213 C214 1.362 . S
C214 H206 0.930 . S
C214 C213 1.362 . S
C214 C217 1.409 . S
C215 H207 0.930 . S
C215 C216 1.355 . S
C215 C217 1.415 1_455 S
C216 C215 1.355 . S
C216 C218 1.419 . S
C217 C212 1.425 1_655 S
C217 C214 1.409 . S
C217 C215 1.415 1_655 S
C218 H208 0.930 . S
C218 C216 1.419 . S
C218 C219 1.362 . S
C219 H209 0.930 . S
C219 C212 1.409 . S
C219 C218 1.362 . S
H220 C226 0.930 . S
H221 C229 0.930 . S
H222 C230 0.930 . S
H223 C231 0.930 . S
H224 C234 0.930 . S
H225 C235 0.930 . S
C226 H220 0.930 . S
C226 C227 1.355 . S
C226 C228 1.410 1_545 S
C227 C226 1.355 . S
C227 C229 1.419 . S
C228 C226 1.410 1_565 S
C228 C233 1.418 1_565 S
C228 C235 1.417 . S
C229 H221 0.930 . S
C229 C227 1.419 . S
C229 C230 1.362 . S
C230 H222 0.930 . S
C230 C229 1.362 . S
C230 C233 1.416 . S
C231 H223 0.930 . S
C231 C232 1.355 . S
C231 C233 1.411 1_565 S
C232 C231 1.355 . S
C232 C234 1.419 . S
C233 C228 1.418 1_545 S
C233 C230 1.416 . S
C233 C231 1.411 1_545 S
C234 H224 0.930 . S
C234 C232 1.419 . S
C234 C235 1.362 . S
C235 H225 0.930 . S
C235 C228 1.417 . S
C235 C234 1.362 . S
H236 C242 0.930 . S
H237 C245 0.930 . S
H238 C246 0.930 . S
H239 C247 0.930 . S
H240 C250 0.930 . S
H241 C251 0.930 . S
C242 H236 0.930 . S
C242 C243 1.355 . S
C242 C244 1.415 . S
C243 C242 1.355 . S
C243 C245 1.419 . S
C244 C242 1.415 . S
C244 C249 1.425 . S
C244 C251 1.409 . S
C245 H237 0.930 . S
C245 C243 1.419 . S
C245 C246 1.362 . S
C246 H238 0.930 . S
C246 C245 1.362 . S
C246 C249 1.409 . S
C247 H239 0.930 . S
C247 C248 1.355 . S
C247 C249 1.415 . S
C248 C247 1.355 . S
C248 C250 1.419 . S
C249 C244 1.425 . S
C249 C246 1.409 . S
C249 C247 1.415 . S
C250 H240 0.930 . S
C250 C248 1.419 . S
C250 C251 1.362 . S
C251 H241 0.930 . S
C251 C244 1.409 . S
C251 C250 1.362 . S
H252 C258 0.930 . S
H253 C261 0.930 . S
H254 C262 0.930 . S
H255 C263 0.930 . S
H256 C266 0.930 . S
H257 C267 0.930 . S
C258 H252 0.930 . S
C258 C259 1.355 . S
C258 C260 1.415 . S
C259 C258 1.355 . S
C259 C261 1.419 . S
C260 C258 1.415 . S
C260 C265 1.425 . S
C260 C267 1.409 . S
C261 H253 0.930 . S
C261 C259 1.419 . S
C261 C262 1.362 . S
C262 H254 0.930 . S
C262 C261 1.362 . S
C262 C265 1.409 . S
C263 H255 0.930 . S
C263 C264 1.355 . S
C263 C265 1.415 . S
C264 C263 1.355 . S
C264 C266 1.419 . S
C265 C260 1.425 . S
C265 C262 1.409 . S
C265 C263 1.415 . S
C266 H256 0.930 . S
C266 C264 1.419 . S
C266 C267 1.362 . S
C267 H257 0.930 . S
C267 C260 1.409 . S
C267 C266 1.362 . S
H268 C274 0.930 . S
H269 C277 0.930 . S
H270 C278 0.930 . S
H271 C279 0.930 . S
H272 C282 0.930 . S
H273 C283 0.930 . S
C274 H268 0.930 . S
C274 C275 1.355 . S
C274 C276 1.415 1_455 S
C275 C274 1.355 . S
C275 C277 1.419 . S
C276 C274 1.415 1_655 S
C276 C281 1.425 1_655 S
C276 C283 1.409 . S
C277 H269 0.930 . S
C277 C275 1.419 . S
C277 C278 1.362 . S
C278 H270 0.930 . S
C278 C277 1.362 . S
C278 C281 1.409 . S
C279 H271 0.930 . S
C279 C280 1.355 . S
C279 C281 1.415 1_655 S
C280 C279 1.355 . S
C280 C282 1.419 . S
C281 C276 1.425 1_455 S
C281 C278 1.409 . S
C281 C279 1.415 1_455 S
C282 H272 0.930 . S
C282 C280 1.419 . S
C282 C283 1.362 . S
C283 H273 0.930 . S
C283 C276 1.409 . S
C283 C282 1.362 . S
H284 C290 0.930 . S
H285 C293 0.930 . S
H286 C294 0.930 . S
H287 C295 0.930 . S
H288 C298 0.930 . S
H289 C299 0.930 . S
C290 H284 0.930 . S
C290 C291 1.355 1_565 S
C290 C292 1.415 . S
C291 C290 1.355 1_545 S
C291 C293 1.419 . S
C292 C290 1.415 . S
C292 C297 1.425 1_565 S
C292 C299 1.409 . S
C293 H285 0.930 . S
C293 C291 1.419 . S
C293 C294 1.362 . S
C294 H286 0.930 . S
C294 C293 1.362 . S
C294 C297 1.409 . S
C295 H287 0.930 . S
C295 C296 1.355 1_545 S
C295 C297 1.415 . S
C296 C295 1.355 1_565 S
C296 C298 1.419 . S
C297 C292 1.425 1_545 S
C297 C294 1.409 . S
C297 C295 1.415 . S
C298 H288 0.930 . S
C298 C296 1.419 . S
C298 C299 1.362 . S
C299 H289 0.930 . S
C299 C292 1.409 . S
C299 C298 1.362 . S
H300 C306 0.930 . S
H301 C309 0.930 . S
H302 C310 0.930 . S
H303 C311 0.930 . S
H304 C314 0.930 . S
H305 C315 0.930 . S
C306 H300 0.930 . S
C306 C307 1.355 . S
C306 C308 1.415 . S
C307 C306 1.355 . S
C307 C309 1.419 . S
C308 C306 1.415 . S
C308 C313 1.425 . S
C308 C315 1.409 . S
C309 H301 0.930 . S
C309 C307 1.419 . S
C309 C310 1.362 . S
C310 H302 0.930 . S
C310 C309 1.362 . S
C310 C313 1.409 . S
C311 H303 0.930 . S
C311 C312 1.355 . S
C311 C313 1.415 . S
C312 C311 1.355 . S
C312 C314 1.419 . S
C313 C308 1.425 . S
C313 C310 1.409 . S
C313 C311 1.415 . S
C314 H304 0.930 . S
C314 C312 1.419 . S
C314 C315 1.362 . S
C315 H305 0.930 . S
C315 C308 1.409 . S
C315 C314 1.362 . S
H316 C322 0.930 . S
H317 C325 0.930 . S
H318 C326 0.930 . S
H319 C327 0.930 . S
H320 C330 0.930 . S
H321 C331 0.930 . S
C322 H316 0.930 . S
C322 C323 1.355 1_455 S
C322 C324 1.415 . S
C323 C322 1.355 1_655 S
C323 C325 1.419 . S
C324 C322 1.415 . S
C324 C329 1.425 1_455 S
C324 C331 1.409 . S
C325 H317 0.930 . S
C325 C323 1.419 . S
C325 C326 1.362 . S
C326 H318 0.930 . S
C326 C325 1.362 . S
C326 C329 1.409 . S
C327 H319 0.930 . S
C327 C328 1.355 1_655 S
C327 C329 1.415 . S
C328 C327 1.355 1_455 S
C328 C330 1.419 . S
C329 C324 1.425 1_655 S
C329 C326 1.409 . S
C329 C327 1.415 . S
C330 H320 0.930 . S
C330 C328 1.419 . S
C330 C331 1.362 . S
C331 H321 0.930 . S
C331 C324 1.409 . S
C331 C330 1.362 . S
H332 C338 0.930 . S
H333 C341 0.930 . S
H334 C342 0.930 . S
H335 C343 0.930 . S
H336 C346 0.930 . S
H337 C347 0.930 . S
C338 H332 0.930 . S
C338 C339 1.355 1_545 S
C338 C340 1.415 . S
C339 C338 1.355 1_565 S
C339 C341 1.419 . S
C340 C338 1.415 . S
C340 C345 1.425 1_545 S
C340 C347 1.409 . S
C341 H333 0.930 . S
C341 C339 1.419 . S
C341 C342 1.362 . S
C342 H334 0.930 . S
C342 C341 1.362 . S
C342 C345 1.409 . S
C343 H335 0.930 . S
C343 C344 1.355 1_565 S
C343 C345 1.415 . S
C344 C343 1.355 1_545 S
C344 C346 1.419 . S
C345 C340 1.425 1_565 S
C345 C342 1.409 . S
C345 C343 1.415 . S
C346 H336 0.930 . S
C346 C344 1.419 . S
C346 C347 1.362 . S
C347 H337 0.930 . S
C347 C340 1.409 . S
C347 C346 1.362 . S
H348 C354 0.930 . S
H349 C357 0.930 . S
H350 C358 0.930 . S
H351 C359 0.930 . S
H352 C362 0.930 . S
H353 C363 0.930 . S
C354 H348 0.930 . S
C354 C355 1.355 . S
C354 C356 1.415 . S
C355 C354 1.355 . S
C355 C357 1.419 . S
C356 C354 1.415 . S
C356 C361 1.425 . S
C356 C363 1.409 . S
C357 H349 0.930 . S
C357 C355 1.419 . S
C357 C358 1.362 . S
C358 H350 0.930 . S
C358 C357 1.362 . S
C358 C361 1.409 . S
C359 H351 0.930 . S
C359 C360 1.355 . S
C359 C361 1.415 . S
C360 C359 1.355 . S
C360 C362 1.419 . S
C361 C356 1.425 . S
C361 C358 1.409 . S
C361 C359 1.415 . S
C362 H352 0.930 . S
C362 C360 1.419 . S
C362 C363 1.362 . S
C363 H353 0.930 . S
C363 C356 1.409 . S
C363 C362 1.362 . S
H364 C370 0.930 . S
H365 C373 0.930 . S
H366 C374 0.930 . S
H367 C375 0.930 . S
H368 C378 0.930 . S
H369 C379 0.930 . S
C370 H364 0.930 . S
C370 C371 1.355 . S
C370 C372 1.415 . S
C371 C370 1.355 . S
C371 C373 1.419 . S
C372 C370 1.415 . S
C372 C377 1.425 . S
C372 C379 1.409 . S
C373 H365 0.930 . S
C373 C371 1.419 . S
C373 C374 1.362 . S
C374 H366 0.930 . S
C374 C373 1.362 . S
C374 C377 1.409 . S
C375 H367 0.930 . S
C375 C376 1.355 . S
C375 C377 1.415 . S
C376 C375 1.355 . S
C376 C378 1.419 . S
C377 C372 1.425 . S
C377 C374 1.409 . S
C377 C375 1.415 . S
C378 H368 0.930 . S
C378 C376 1.419 . S
C378 C379 1.362 . S
C379 H369 0.930 . S
C379 C372 1.409 . S
C379 C378 1.362 . S
H380 C386 0.930 . S
H381 C389 0.930 . S
H382 C390 0.930 . S
H383 C391 0.930 . S
H384 C394 0.930 . S
H385 C395 0.930 . S
C386 H380 0.930 . S
C386 C387 1.355 . S
C386 C388 1.415 . S
C387 C386 1.355 . S
C387 C389 1.419 . S
C388 C386 1.415 . S
C388 C393 1.425 . S
C388 C395 1.409 . S
C389 H381 0.930 . S
C389 C387 1.419 . S
C389 C390 1.362 . S
C390 H382 0.930 . S
C390 C389 1.362 . S
C390 C393 1.409 . S
C391 H383 0.930 . S
C391 C392 1.355 . S
C391 C393 1.415 . S
C392 C391 1.355 . S
C392 C394 1.419 . S
C393 C388 1.425 . S
C393 C390 1.409 . S
C393 C391 1.415 . S
C394 H384 0.930 . S
C394 C392 1.419 . S
C394 C395 1.362 . S
C395 H385 0.930 . S
C395 C388 1.409 . S
C395 C394 1.362 . S
H396 C402 0.930 . S
H397 C405 0.930 . S
H398 C406 0.930 . S
H399 C407 0.930 . S
H400 C410 0.930 . S
H401 C411 0.930 . S
C402 H396 0.930 . S
C402 C403 1.355 . S
C402 C404 1.415 . S
C403 C402 1.355 . S
C403 C405 1.419 . S
C404 C402 1.415 . S
C404 C409 1.425 . S
C404 C411 1.409 . S
C405 H397 0.930 . S
C405 C403 1.419 . S
C405 C406 1.362 . S
C406 H398 0.930 . S
C406 C405 1.362 . S
C406 C409 1.409 . S
C407 H399 0.930 . S
C407 C408 1.355 . S
C407 C409 1.415 . S
C408 C407 1.355 . S
C408 C410 1.419 . S
C409 C404 1.425 . S
C409 C406 1.409 . S
C409 C407 1.415 . S
C410 H400 0.930 . S
C410 C408 1.419 . S
C410 C411 1.362 . S
C411 H401 0.930 . S
C411 C404 1.409 . S
C411 C410 1.362 . S
H412 C418 0.930 . S
H413 C421 0.930 . S
H414 C422 0.930 . S
H415 C423 0.930 . S
H416 C426 0.930 . S
H417 C427 0.930 . S
C418 H412 0.930 . S
C418 C419 1.355 . S
C418 C420 1.415 . S
C419 C418 1.355 . S
C419 C421 1.419 . S
C420 C418 1.415 . S
C420 C425 1.425 . S
C420 C427 1.409 . S
C421 H413 0.930 . S
C421 C419 1.419 . S
C421 C422 1.362 . S
C422 H414 0.930 . S
C422 C421 1.362 . S
C422 C425 1.409 . S
C423 H415 0.930 . S
C423 C424 1.355 . S
C423 C425 1.415 . S
C424 C423 1.355 . S
C424 C426 1.419 . S
C425 C420 1.425 . S
C425 C422 1.409 . S
C425 C423 1.415 . S
C426 H416 0.930 . S
C426 C424 1.419 . S
C426 C427 1.362 . S
C427 H417 0.930 . S
C427 C420 1.409 . S
C427 C426 1.362 . S
H428 C434 0.930 . S
H429 C437 0.930 . S
H430 C438 0.930 . S
H431 C439 0.930 . S
H432 C442 0.930 . S
H433 C443 0.930 . S
C434 H428 0.930 . S
C434 C435 1.355 . S
C434 C436 1.415 . S
C435 C434 1.355 . S
C435 C437 1.419 . S
C436 C434 1.415 . S
C436 C441 1.425 . S
C436 C443 1.409 . S
C437 H429 0.930 . S
C437 C435 1.419 . S
C437 C438 1.362 . S
C438 H430 0.930 . S
C438 C437 1.362 . S
C438 C441 1.409 . S
C439 H431 0.930 . S
C439 C440 1.355 . S
C439 C441 1.415 . S
C440 C439 1.355 . S
C440 C442 1.419 . S
C441 C436 1.425 . S
C441 C438 1.409 . S
C441 C439 1.415 . S
C442 H432 0.930 . S
C442 C440 1.419 . S
C442 C443 1.362 . S
C443 H433 0.930 . S
C443 C436 1.409 . S
C443 C442 1.362 . S
H444 C450 0.930 . S
H445 C453 0.930 . S
H446 C454 0.930 . S
H447 C455 0.930 . S
H448 C458 0.930 . S
H449 C459 0.930 . S
C450 H444 0.930 . S
C450 C451 1.355 . S
C450 C452 1.415 . S
C451 C450 1.355 . S
C451 C453 1.419 . S
C452 C450 1.415 . S
C452 C457 1.425 . S
C452 C459 1.409 . S
C453 H445 0.930 . S
C453 C451 1.419 . S
C453 C454 1.362 . S
C454 H446 0.930 . S
C454 C453 1.362 . S
C454 C457 1.409 . S
C455 H447 0.930 . S
C455 C456 1.355 . S
C455 C457 1.415 . S
C456 C455 1.355 . S
C456 C458 1.419 . S
C457 C452 1.425 . S
C457 C454 1.409 . S
C457 C455 1.415 . S
C458 H448 0.930 . S
C458 C456 1.419 . S
C458 C459 1.362 . S
C459 H449 0.930 . S
C459 C452 1.409 . S
C459 C458 1.362 . S
H460 C466 0.931 . S
H461 C469 0.930 . S
H462 C470 0.930 . S
H463 C471 0.931 . S
H464 C474 0.930 . S
H465 C475 0.930 . S
C466 H460 0.931 . S
C466 C467 1.353 1_455 S
C466 C468 1.415 . S
C467 C466 1.353 1_655 S
C467 C469 1.419 . S
C468 C466 1.415 . S
C468 C473 1.425 1_455 S
C468 C475 1.409 . S
C469 H461 0.930 . S
C469 C467 1.419 . S
C469 C470 1.362 . S
C470 H462 0.930 . S
C470 C469 1.362 . S
C470 C473 1.409 . S
C471 H463 0.931 . S
C471 C472 1.353 1_655 S
C471 C473 1.415 . S
C472 C471 1.353 1_455 S
C472 C474 1.419 . S
C473 C468 1.425 1_655 S
C473 C470 1.409 . S
C473 C471 1.415 . S
C474 H464 0.930 . S
C474 C472 1.419 . S
C474 C475 1.362 . S
C475 H465 0.930 . S
C475 C468 1.409 . S
C475 C474 1.362 . S
H476 C482 0.930 . S
H477 C485 0.930 . S
H478 C486 0.953 . S
H479 C487 0.930 . S
H480 C490 0.930 . S
H481 C491 0.953 . S
C482 H476 0.930 . S
C482 C483 1.355 . S
C482 C484 1.415 1_545 S
C483 C482 1.355 . S
C483 C485 1.419 . S
C484 C482 1.415 1_565 S
C484 C489 1.425 1_564 S
C484 C491 1.409 1_554 S
C485 H477 0.930 . S
C485 C483 1.419 . S
C485 C486 1.362 . S
C486 H478 0.953 . S
C486 C485 1.362 . S
C486 C489 1.409 1_554 S
C487 H479 0.930 . S
C487 C488 1.355 . S
C487 C489 1.415 1_565 S
C488 C487 1.355 . S
C488 C490 1.419 . S
C489 C484 1.425 1_546 S
C489 C486 1.409 1_556 S
C489 C487 1.415 1_545 S
C490 H480 0.930 . S
C490 C488 1.419 . S
C490 C491 1.362 . S
C491 H481 0.953 . S
C491 C484 1.409 1_556 S
C491 C490 1.362 . S
H492 C498 0.930 . S
H493 C501 0.930 . S
H494 C502 0.930 . S
H495 C503 0.930 . S
H496 C506 0.930 . S
H497 C507 0.930 . S
C498 H492 0.930 . S
C498 C499 1.355 . S
C498 C500 1.415 . S
C499 C498 1.355 . S
C499 C501 1.419 . S
C500 C498 1.415 . S
C500 C505 1.425 . S
C500 C507 1.409 . S
C501 H493 0.930 . S
C501 C499 1.419 . S
C501 C502 1.362 . S
C502 H494 0.930 . S
C502 C501 1.362 . S
C502 C505 1.409 . S
C503 H495 0.930 . S
C503 C504 1.355 . S
C503 C505 1.415 . S
C504 C503 1.355 . S
C504 C506 1.419 . S
C505 C500 1.425 . S
C505 C502 1.409 . S
C505 C503 1.415 . S
C506 H496 0.930 . S
C506 C504 1.419 . S
C506 C507 1.362 . S
C507 H497 0.930 . S
C507 C500 1.409 . S
C507 C506 1.362 . S
H508 C514 0.930 . S
H509 C517 0.930 . S
H510 C518 0.930 . S
H511 C519 0.930 . S
H512 C522 0.930 . S
H513 C523 0.930 . S
C514 H508 0.930 . S
C514 C515 1.355 . S
C514 C516 1.415 . S
C515 C514 1.355 . S
C515 C517 1.419 1_455 S
C516 C514 1.415 . S
C516 C521 1.425 1_455 S
C516 C523 1.409 . S
C517 H509 0.930 . S
C517 C515 1.419 1_655 S
C517 C518 1.362 . S
C518 H510 0.930 . S
C518 C517 1.362 . S
C518 C521 1.409 . S
C519 H511 0.930 . S
C519 C520 1.355 . S
C519 C521 1.415 . S
C520 C519 1.355 . S
C520 C522 1.419 1_655 S
C521 C516 1.425 1_655 S
C521 C518 1.409 . S
C521 C519 1.415 . S
C522 H512 0.930 . S
C522 C520 1.419 1_455 S
C522 C523 1.362 . S
C523 H513 0.930 . S
C523 C516 1.409 . S
C523 C522 1.362 . S
H524 C530 0.930 . S
H525 C533 0.930 . S
H526 C534 0.930 . S
H527 C535 0.930 . S
H528 C538 0.930 . S
H529 C539 0.930 . S
C530 H524 0.930 . S
C530 C531 1.355 . S
C530 C532 1.394 1_554 S
C531 C530 1.355 . S
C531 C533 1.419 1_565 S
C532 C530 1.394 1_556 S
C532 C537 1.424 1_566 S
C532 C539 1.431 . S
C533 H525 0.930 . S
C533 C531 1.419 1_545 S
C533 C534 1.362 . S
C534 H526 0.930 . S
C534 C533 1.362 . S
C534 C537 1.431 . S
C535 H527 0.930 . S
C535 C536 1.355 . S
C535 C537 1.394 1_556 S
C536 C535 1.355 . S
C536 C538 1.419 1_545 S
C537 C532 1.424 1_544 S
C537 C534 1.431 . S
C537 C535 1.394 1_554 S
C538 H528 0.930 . S
C538 C536 1.419 1_565 S
C538 C539 1.362 . S
C539 H529 0.930 . S
C539 C532 1.431 . S
C539 C538 1.362 . S
C163 C148 1.773 . S
C168 C3 1.794 . S
C179 C16 1.757 . S
C184 C81 1.751 . S
C195 C31 1.759 . S
C200 C94 1.751 . S
C211 C44 1.753 . S
C216 C107 1.781 . S
C227 C122 1.755 . S
C232 C55 1.783 . S
C243 C68 1.766 . S
C248 C135 1.792 . S
C259 C43 1.443 . S
C264 C10 1.443 . S
C275 C62 1.473 . S
C280 C23 1.469 . S
C291 C75 1.469 . S
C296 C30 1.473 . S
C307 C88 1.474 . S
C312 C121 1.477 . S
C323 C101 1.475 . S
C328 C134 1.477 . S
C339 C114 1.478 . S
C344 C147 1.478 . S
C355 C109 0.638 . S
C360 C5 0.655 . S
C371 C18 0.672 . S
C376 C120 0.652 . S
C387 C133 0.643 . S
C392 C29 0.632 . S
C403 C146 0.662 . S
C408 C42 0.643 . S
C419 C83 0.693 . S
C424 C57 0.693 . S
C435 C70 0.650 . S
C440 C96 0.635 . S
C451 C127 1.662 . S
C456 C4 1.656 . S
C467 C17 1.670 . S
C472 C140 1.672 . S
C483 C153 1.649 . S
C488 C36 1.643 . S
C499 C49 1.663 . S
C504 C82 1.659 . S
C515 C56 1.619 . S
C520 C95 1.618 . S
C531 C108 1.619 . S
C536 C69 1.621 . S
