# Generated by pormake.
# Topology umz, (4)-cn, num edge types: 1
# Building blocks:
#     Node 0, Type 0, BuildingBlock: CEKHIL_clean_sbu_0, # of connection points: 4
#     Node 1, Type 0, BuildingBlock: CEKHIL_clean_sbu_0, # of connection points: 4
#     Node 2, Type 0, BuildingBlock: CEKHIL_clean_sbu_0, # of connection points: 4
#     Node 3, Type 0, BuildingBlock: CEKHIL_clean_sbu_0, # of connection points: 4
#     Node 4, Type 0, BuildingBlock: CEKHIL_clean_sbu_0, # of connection points: 4
#     Node 5, Type 0, BuildingBlock: CEKHIL_clean_sbu_0, # of connection points: 4
#     Node 6, Type 0, BuildingBlock: CEKHIL_clean_sbu_0, # of connection points: 4
#     Node 7, Type 0, BuildingBlock: CEKHIL_clean_sbu_0, # of connection points: 4
#     Node 8, Type 0, BuildingBlock: CEKHIL_clean_sbu_0, # of connection points: 4
#     Node 9, Type 0, BuildingBlock: CEKHIL_clean_sbu_0, # of connection points: 4
#     Node 10, Type 0, BuildingBlock: CEKHIL_clean_sbu_0, # of connection points: 4
#     Node 11, Type 0, BuildingBlock: CEKHIL_clean_sbu_0, # of connection points: 4
#     Node 12, Type 0, BuildingBlock: CEKHIL_clean_sbu_0, # of connection points: 4
#     Node 13, Type 0, BuildingBlock: CEKHIL_clean_sbu_0, # of connection points: 4
#     Node 14, Type 0, BuildingBlock: CEKHIL_clean_sbu_0, # of connection points: 4
#     Node 15, Type 0, BuildingBlock: CEKHIL_clean_sbu_0, # of connection points: 4
#     Edge 16, Type (0, 0), BuildingBlock: XIVTED_clean_linker_0, # of connection points: 2
#     Edge 17, Type (0, 0), BuildingBlock: XIVTED_clean_linker_0, # of connection points: 2
#     Edge 18, Type (0, 0), BuildingBlock: XIVTED_clean_linker_0, # of connection points: 2
#     Edge 19, Type (0, 0), BuildingBlock: XIVTED_clean_linker_0, # of connection points: 2
#     Edge 20, Type (0, 0), BuildingBlock: XIVTED_clean_linker_0, # of connection points: 2
#     Edge 21, Type (0, 0), BuildingBlock: XIVTED_clean_linker_0, # of connection points: 2
#     Edge 22, Type (0, 0), BuildingBlock: XIVTED_clean_linker_0, # of connection points: 2
#     Edge 23, Type (0, 0), BuildingBlock: XIVTED_clean_linker_0, # of connection points: 2
#     Edge 24, Type (0, 0), BuildingBlock: XIVTED_clean_linker_0, # of connection points: 2
#     Edge 25, Type (0, 0), BuildingBlock: XIVTED_clean_linker_0, # of connection points: 2
#     Edge 26, Type (0, 0), BuildingBlock: XIVTED_clean_linker_0, # of connection points: 2
#     Edge 27, Type (0, 0), BuildingBlock: XIVTED_clean_linker_0, # of connection points: 2
#     Edge 28, Type (0, 0), BuildingBlock: XIVTED_clean_linker_0, # of connection points: 2
#     Edge 29, Type (0, 0), BuildingBlock: XIVTED_clean_linker_0, # of connection points: 2
#     Edge 30, Type (0, 0), BuildingBlock: XIVTED_clean_linker_0, # of connection points: 2
#     Edge 31, Type (0, 0), BuildingBlock: XIVTED_clean_linker_0, # of connection points: 2
#     Edge 32, Type (0, 0), BuildingBlock: XIVTED_clean_linker_0, # of connection points: 2
#     Edge 33, Type (0, 0), BuildingBlock: XIVTED_clean_linker_0, # of connection points: 2
#     Edge 34, Type (0, 0), BuildingBlock: XIVTED_clean_linker_0, # of connection points: 2
#     Edge 35, Type (0, 0), BuildingBlock: XIVTED_clean_linker_0, # of connection points: 2
#     Edge 36, Type (0, 0), BuildingBlock: XIVTED_clean_linker_0, # of connection points: 2
#     Edge 37, Type (0, 0), BuildingBlock: XIVTED_clean_linker_0, # of connection points: 2
#     Edge 38, Type (0, 0), BuildingBlock: XIVTED_clean_linker_0, # of connection points: 2
#     Edge 39, Type (0, 0), BuildingBlock: XIVTED_clean_linker_0, # of connection points: 2
#     Edge 40, Type (0, 0), BuildingBlock: XIVTED_clean_linker_0, # of connection points: 2
#     Edge 41, Type (0, 0), BuildingBlock: XIVTED_clean_linker_0, # of connection points: 2
#     Edge 42, Type (0, 0), BuildingBlock: XIVTED_clean_linker_0, # of connection points: 2
#     Edge 43, Type (0, 0), BuildingBlock: XIVTED_clean_linker_0, # of connection points: 2
#     Edge 44, Type (0, 0), BuildingBlock: XIVTED_clean_linker_0, # of connection points: 2
#     Edge 45, Type (0, 0), BuildingBlock: XIVTED_clean_linker_0, # of connection points: 2
#     Edge 46, Type (0, 0), BuildingBlock: XIVTED_clean_linker_0, # of connection points: 2
#     Edge 47, Type (0, 0), BuildingBlock: XIVTED_clean_linker_0, # of connection points: 2
# Relax obj value: 0.259
# Max RMSD: 0.165
# Mean RMSD: 0.165
data_MOF--net-umz--node1-CEKHIL_clean_sbu_0--edge1-XIVTED_clean_linker_0
_symmetry_space_group_name_H-M    P1
_symmetry_Int_Tables_number       1
_symmetry_cell_setting            triclinic
loop_
_symmetry_equiv_pos_as_xyz
'x, y, z'
_cell_length_a     57.842404
_cell_length_b     57.855427
_cell_length_c     22.79053
_cell_angle_alpha  89.975248
_cell_angle_beta   90.049184
_cell_angle_gamma 90.088514
loop_
_atom_site_label
_atom_site_type_symbol
_atom_site_fract_x
_atom_site_fract_y
_atom_site_fract_z
_atom_type_partial_charge
Co0 Co 0.01064 0.63114 0.03386 0.0
O1 O 0.99718 0.65882 0.00231 0.0
O2 O 0.03327 0.65585 0.03391 0.0
C3 C 0.98109 0.62186 0.09421 0.0
O4 O 0.03009 0.60601 0.07225 0.0
Co5 Co 0.98686 0.5834 0.01365 0.0
O6 O 0.01038 0.57243 0.07066 0.0
C7 C 0.01179 0.60606 0.91688 0.0
C8 C 0.01691 0.66876 0.0125 0.0
C9 C 0.02769 0.58461 0.08654 0.0
O10 O 0.0206 0.62088 0.95273 0.0
O11 O 0.99607 0.59158 0.93158 0.0
O12 O 0.9963 0.63717 0.11018 0.0
O13 O 0.98288 0.61472 0.04084 0.0
Co14 Co 0.87642 1.00232 0.53579 0.0
O15 O 0.84955 0.99015 0.49745 0.0
O16 O 0.85214 0.02546 0.53424 0.0
C17 C 0.88299 0.97137 0.59382 0.0
O18 O 0.90113 0.02018 0.58099 0.0
Co19 Co 0.92368 0.977 0.52035 0.0
O20 O 0.93383 0.99903 0.58185 0.0
C21 C 0.90497 0.00538 0.42408 0.0
C22 C 0.83961 0.00975 0.50842 0.0
C23 C 0.92209 0.01657 0.59796 0.0
O24 O 0.88924 0.01361 0.45818 0.0
O25 O 0.91853 0.98891 0.43896 0.0
O26 O 0.86775 0.98672 0.60884 0.0
O27 O 0.89166 0.97395 0.54215 0.0
Co28 Co 0.49749 0.87455 0.05386 0.0
O29 O 0.50995 0.84791 0.01532 0.0
O30 O 0.47471 0.84984 0.05269 0.0
C31 C 0.52862 0.88166 0.11091 0.0
O32 O 0.47931 0.89887 0.09937 0.0
Co33 Co 0.52201 0.92236 0.03885 0.0
O34 O 0.49968 0.93211 0.09995 0.0
C35 C 0.49444 0.90283 0.94205 0.0
C36 C 0.49052 0.83762 0.02655 0.0
C37 C 0.48244 0.91991 0.1162 0.0
O38 O 0.48595 0.88724 0.9763 0.0
O39 O 0.51084 0.91646 0.95716 0.0
O40 O 0.51353 0.86621 0.12672 0.0
O41 O 0.52558 0.8903 0.05944 0.0
Co42 Co 0.62861 0.50506 0.54631 0.0
O43 O 0.65507 0.5194 0.51085 0.0
O44 O 0.65412 0.48337 0.54353 0.0
C45 C 0.61958 0.53449 0.60702 0.0
O46 O 0.60479 0.48495 0.5882 0.0
Co47 Co 0.57992 0.52743 0.53077 0.0
O48 O 0.57061 0.5036 0.5888 0.0
C49 C 0.60136 0.5025 0.43246 0.0
C50 C 0.66592 0.50012 0.51986 0.0
C51 C 0.5835 0.48675 0.60408 0.0
O52 O 0.61709 0.49441 0.46683 0.0
O53 O 0.58675 0.51789 0.44824 0.0
O54 O 0.63568 0.51991 0.6215 0.0
O55 O 0.61154 0.53224 0.55459 0.0
Co56 Co 0.00656 0.87684 0.94035 0.0
O57 O 0.99512 0.84987 0.97993 0.0
O58 O 0.0304 0.85335 0.94335 0.0
C59 C 0.97552 0.88203 0.88171 0.0
O60 O 0.02394 0.90148 0.89393 0.0
Co61 Co 0.98028 0.9237 0.95129 0.0
O62 O 1.00211 0.93362 0.88909 0.0
C63 C 0.00868 0.90678 0.04983 0.0
C64 C 0.01505 0.84049 0.96944 0.0
C65 C 0.01997 0.92203 0.87467 0.0
O66 O 0.01728 0.8907 0.0174 0.0
O67 O 0.9921 0.91989 0.03322 0.0
O68 O 0.99133 0.86711 0.8676 0.0
O69 O 0.97783 0.89129 0.9328 0.0
Co70 Co 0.63025 0.00767 0.44261 0.0
O71 O 0.657 0.99444 0.47916 0.0
O72 O 0.65536 0.02997 0.44332 0.0
C73 C 0.62212 0.97701 0.38492 0.0
O74 O 0.60604 0.02667 0.3989 0.0
Co75 Co 0.58198 0.98429 0.45867 0.0
O76 O 0.57223 0.00726 0.39897 0.0
C77 C 0.60298 0.01051 0.55585 0.0
C78 C 0.66756 0.01373 0.46787 0.0
C79 C 0.58481 0.02424 0.38281 0.0
O80 O 0.61844 0.01896 0.52118 0.0
O81 O 0.58886 0.99454 0.54067 0.0
O82 O 0.63771 0.99192 0.36887 0.0
O83 O 0.61384 0.97995 0.4368 0.0
Co84 Co 0.49504 0.62811 0.96137 0.0
O85 O 0.5084 0.65544 -0.00529 0.0
O86 O 0.47235 0.65283 0.9627 0.0
C87 C 0.52478 0.61988 0.90082 0.0
O88 O 0.4759 0.60297 0.92135 0.0
Co89 Co 0.51967 0.58069 0.97988 0.0
O90 O 0.49615 0.56972 0.92294 0.0
C91 C 0.49399 0.60206 0.0771 0.0
C92 C 0.48877 0.66554 0.98487 0.0
C93 C 0.47867 0.58161 0.90699 0.0
O94 O 0.48508 0.617 0.04179 0.0
O95 O 0.51 0.58802 0.06206 0.0
O96 O 0.50939 0.63508 0.88559 0.0
O97 O 0.52298 0.61219 0.95371 0.0
Co98 Co 0.87522 0.49966 0.43475 0.0
O99 O 0.8488 0.51499 0.46753 0.0
O100 O 0.84893 0.47885 0.43557 0.0
C101 C 0.88619 0.52867 0.37449 0.0
O102 O 0.8987 0.47856 0.39537 0.0
Co103 Co 0.92459 0.51999 0.45398 0.0
O104 O 0.93368 0.4957 0.39706 0.0
C105 C 0.90072 0.49639 0.55097 0.0
C106 C 0.83741 0.49603 0.45786 0.0
C107 C 0.92023 0.47936 0.38111 0.0
O108 O 0.88517 0.48877 0.51536 0.0
O109 O 0.9162 0.5111 0.53617 0.0
O110 O 0.86977 0.51461 0.35882 0.0
O111 O 0.89351 0.5262 0.42756 0.0
Co112 Co 0.99358 0.37374 0.9355 0.0
O113 O 0.00798 0.34664 0.96711 0.0
O114 O 0.97189 0.3481 0.93491 0.0
C115 C 0.02305 0.38404 0.87601 0.0
O116 O 0.97348 0.39837 0.89693 0.0
Co117 Co 0.01603 0.42206 0.95747 0.0
O118 O 0.99237 0.43244 0.90019 0.0
C119 C 0.99149 0.39827 0.05302 0.0
C120 C 0.98874 0.33587 0.95653 0.0
C121 C 0.97544 0.41991 0.88339 0.0
O122 O 0.98303 0.38351 0.01651 0.0
O123 O 0.00697 0.41312 0.03912 0.0
O124 O 0.00838 0.36831 0.85941 0.0
O125 O 0.0208 0.39101 0.92939 0.0
Co126 Co 0.13181 1.00221 0.4393 0.0
O127 O 0.15949 0.01188 0.47937 0.0
O128 O 0.15421 0.97748 0.43851 0.0
C129 C 0.12713 0.03401 0.38311 0.0
O130 O 0.10629 0.98635 0.39247 0.0
Co131 Co 0.08589 0.02972 0.45449 0.0
O132 O 0.07461 0.00889 0.3915 0.0
C133 C 0.10277 0.99986 0.55013 0.0
C134 C 0.16776 0.99168 0.46641 0.0
C135 C 0.08565 0.99098 0.37489 0.0
O136 O 0.11808 0.99092 0.51593 0.0
O137 O 0.09019 0.01712 0.53556 0.0
O138 O 0.14162 0.01801 0.36758 0.0
O139 O 0.11824 0.03153 0.43461 0.0
Co140 Co 0.50723 0.13357 0.94004 0.0
O141 O 0.49671 0.16137 0.97814 0.0
O142 O 0.53116 0.15681 0.93702 0.0
C143 C 0.47535 0.12697 0.88503 0.0
O144 O 0.52401 0.10833 0.89496 0.0
Co145 Co 0.48187 0.08657 0.95832 0.0
O146 O 0.5033 0.0754 0.89657 0.0
C147 C 0.51092 0.10588 0.05277 0.0
C148 C 0.51664 0.17017 0.96417 0.0
C149 C 0.52057 0.08727 0.87908 0.0
O150 O 0.51925 0.12118 0.01747 0.0
O151 O 0.49419 0.09239 0.0391 0.0
O152 O 0.49078 0.14186 0.86792 0.0
O153 O 0.47844 0.11868 0.93699 0.0
Co154 Co 0.37708 0.50103 0.45963 0.0
O155 O 0.35004 0.48664 0.49215 0.0
O156 O 0.35161 0.52274 0.46001 0.0
C157 C 0.38698 0.47175 0.39913 0.0
O158 O 0.40143 0.52126 0.42043 0.0
Co159 Co 0.42557 0.47888 0.47931 0.0
O160 O 0.43568 0.5028 0.42237 0.0
C161 C 0.40298 0.50403 0.57573 0.0
C162 C 0.33936 0.50594 0.48195 0.0
C163 C 0.42293 0.51963 0.40635 0.0
O164 O 0.38738 0.51165 0.54026 0.0
O165 O 0.41804 0.4889 0.56116 0.0
O166 O 0.3711 0.4864 0.38369 0.0
O167 O 0.39434 0.4738 0.45233 0.0
Co168 Co 1.00203 0.12769 0.03591 0.0
O169 O 0.01416 0.15434 -0.00346 0.0
O170 O 0.97877 0.15184 0.03289 0.0
C171 C 0.03292 0.12162 0.09467 0.0
O172 O 0.98414 0.10321 0.08172 0.0
Co173 Co 0.02754 0.08046 0.02262 0.0
O174 O 0.00524 0.07049 0.08364 0.0
C175 C 0.99919 0.09837 0.92531 0.0
C176 C 0.99444 0.16422 0.0065 0.0
C177 C 0.98766 0.08231 0.09913 0.0
O178 O 0.99094 0.11433 0.95866 0.0
O179 O 0.01564 0.08492 0.94093 0.0
O180 O 0.01745 0.13688 0.10888 0.0
O181 O 0.03046 0.11261 0.04333 0.0
Co182 Co 0.37342 1.00085 0.55608 0.0
O183 O 0.34575 0.01122 0.51701 0.0
O184 O 0.3501 0.97697 0.55938 0.0
C185 C 0.37993 0.03294 0.61025 0.0
O186 O 0.39857 0.98429 0.60219 0.0
Co187 Co 0.42041 0.02624 0.53745 0.0
O188 O 0.43145 0.0051 0.60007 0.0
C189 C 0.40144 0.99648 0.44404 0.0
C190 C 0.33687 0.99138 0.53138 0.0
C191 C 0.41962 0.98789 0.61808 0.0
O192 O 0.386 0.98842 0.47934 0.0
O193 O 0.41489 0.01329 0.45721 0.0
O194 O 0.36495 0.01762 0.6275 0.0
O195 O 0.38829 0.02964 0.55848 0.0
Co196 Co 0.50974 0.3763 0.04755 0.0
O197 O 0.49886 0.34842 0.01054 0.0
O198 O 0.53382 0.35319 0.04885 0.0
C199 C 0.47867 0.38267 0.10522 0.0
O200 O 0.52677 0.40193 0.09106 0.0
Co201 Co 0.48341 0.42274 0.02936 0.0
O202 O 0.50527 0.43433 0.08975 0.0
C203 C 0.51184 0.40365 0.93386 0.0
C204 C 0.51896 0.33974 0.02294 0.0
C205 C 0.52296 0.42298 0.10662 0.0
O206 O 0.5207 0.38865 0.96911 0.0
O207 O 0.49503 0.41688 0.94802 0.0
O208 O 0.49441 0.36793 0.12106 0.0
O209 O 0.48087 0.39079 0.05278 0.0
Co210 Co 0.12864 0.50572 0.53406 0.0
O211 O 0.1555 0.49073 0.50256 0.0
O212 O 0.15469 0.5268 0.53499 0.0
C213 C 0.11757 0.47647 0.59339 0.0
O214 O 0.10467 0.52651 0.57262 0.0
Co215 Co 0.07956 0.48497 0.513 0.0
O216 O 0.06994 0.50891 0.57032 0.0
C217 C 0.10392 0.50868 0.41686 0.0
C218 C 0.16663 0.50975 0.51344 0.0
C219 C 0.08313 0.52539 0.58666 0.0
O220 O 0.11914 0.51657 0.45304 0.0
O221 O 0.08852 0.49381 0.43118 0.0
O222 O 0.13369 0.49071 0.61006 0.0
O223 O 0.11058 0.47898 0.54006 0.0
H224 H 0.05664 0.69498 0.02073 0.0
H225 H 0.05447 0.81462 0.95192 0.0
H226 H 0.9834 0.70001 0.98661 0.0
H227 H 0.98401 0.80965 0.01291 0.0
H228 H 0.05815 0.7725 0.96213 0.0
H229 H 0.05958 0.73727 0.0132 0.0
C230 C 0.04126 0.70494 0.01102 0.0
C231 C 0.01976 0.69396 0.00405 0.0
C232 C 0.04207 0.78073 0.97435 0.0
C233 C 0.02296 0.74212 -0.00446 0.0
C234 C 0.03993 0.80474 0.96834 0.0
C235 C 0.0189 0.81567 0.98157 0.0
C236 C 0.02293 0.76768 0.99316 0.0
C237 C 1.00055 0.80203 0.00219 0.0
C238 C 0.04298 0.72904 0.00646 0.0
C239 C 1.00036 0.70768 0.992 0.0
N240 N 1.00292 0.77878 0.00664 0.0
N241 N 1.0024 0.73099 0.98872 0.0
H242 H 0.69538 0.05253 0.4594 0.0
H243 H 0.80999 0.97767 0.46489 0.0
H244 H 0.69727 0.97939 0.49679 0.0
H245 H 0.81219 0.04832 0.52572 0.0
H246 H 0.76826 0.98048 0.45556 0.0
H247 H 0.73795 0.05362 0.46728 0.0
C248 C 0.70468 0.0368 0.46967 0.0
C249 C 0.69277 0.01582 0.47737 0.0
C250 C 0.77785 0.99542 0.47076 0.0
C251 C 0.74104 0.01691 0.48493 0.0
C252 C 0.80174 0.9939 0.4758 0.0
C253 C 0.81463 0.01273 0.49666 0.0
C254 C 0.7666 0.01599 0.48604 0.0
C255 C 0.80286 0.03335 0.50977 0.0
C256 C 0.72887 0.03746 0.47412 0.0
C257 C 0.70564 0.99596 0.49053 0.0
N258 N 0.77939 0.03446 0.50432 0.0
N259 N 0.72902 0.99695 0.49323 0.0
H260 H 0.52262 0.80876 0.98043 0.0
H261 H 0.44939 0.69262 0.9799 0.0
H262 H 0.45255 0.80941 0.0456 0.0
H263 H 0.52308 0.696 0.00906 0.0
H264 H 0.44772 0.73517 0.98779 0.0
H265 H 0.52035 0.76704 0.97023 0.0
C266 C 0.50663 0.80017 0.99214 0.0
C267 C 0.48781 0.81262 0.01446 0.0
C268 C 0.46414 0.72642 0.99277 0.0
C269 C 0.48517 0.76458 0.00289 0.0
C270 C 0.46513 0.70224 0.98829 0.0
C271 C 0.48642 0.69076 -0.00624 0.0
C272 C 0.48465 0.739 0.00138 0.0
C273 C 0.50628 0.70403 0.00457 0.0
C274 C 0.50541 0.77628 0.98658 0.0
C275 C 0.4675 0.80043 0.02852 0.0
N276 N 0.50493 0.72737 0.00741 0.0
N277 N 0.4667 0.77696 0.02261 0.0
H278 H 0.6948 0.53446 0.48458 0.0
H279 H 0.80867 0.45795 0.45527 0.0
H280 H 0.69403 0.46167 0.52624 0.0
H281 H 0.80874 0.53167 0.48426 0.0
H282 H 0.76644 0.45768 0.46897 0.0
H283 H 0.73636 0.53241 0.4695 0.0
C284 C 0.70335 0.51796 0.49022 0.0
C285 C 0.69091 0.49822 0.50698 0.0
C286 C 0.77582 0.47384 0.47255 0.0
C287 C 0.73872 0.49578 0.48979 0.0
C288 C 0.79985 0.47402 0.46471 0.0
C289 C 0.81223 0.49486 0.46866 0.0
C290 C 0.76419 0.49471 0.48333 0.0
C291 C 0.79996 0.51518 0.48095 0.0
C292 C 0.72714 0.51685 0.48189 0.0
C293 C 0.703 0.47732 0.51355 0.0
N294 N 0.77667 0.51461 0.48741 0.0
N295 N 0.72631 0.47662 0.50487 0.0
H296 H 0.94997 0.3078 0.95552 0.0
H297 H 0.02564 0.19312 0.95621 0.0
H298 H 0.02419 0.30623 0.97513 0.0
H299 H 0.9561 0.19184 0.02491 0.0
H300 H 0.02249 0.23463 0.94249 0.0
H301 H 0.94931 0.26526 0.96443 0.0
C302 C 0.96605 0.29856 0.96188 0.0
C303 C 0.98717 0.31055 0.96468 0.0
C304 C 0.00786 0.22529 0.96039 0.0
C305 C 0.98654 0.26231 0.9735 0.0
C306 C 0.00958 0.20153 0.968 0.0
C307 C 0.99118 0.18898 0.99237 0.0
C308 C 0.98754 0.23677 0.97677 0.0
C309 C 0.97075 0.2009 0.00631 0.0
C310 C 0.96564 0.27439 0.96698 0.0
C311 C 0.0075 0.29778 0.97292 0.0
N312 N 0.96946 0.22425 -0.00151 0.0
N313 N 0.00668 0.27442 0.97652 0.0
H314 H 0.30658 0.96898 0.6031 0.0
H315 H 0.19794 0.96899 0.39526 0.0
H316 H 0.31143 0.00289 0.43502 0.0
H317 H 0.19293 1.00258 0.56361 0.0
H318 H 0.23998 0.96513 0.40992 0.0
H319 H 0.26451 0.9651 0.58877 0.0
C320 C 0.29884 0.97512 0.5627 0.0
C321 C 0.31232 0.98631 0.52013 0.0
C322 C 0.22949 0.97292 0.44392 0.0
C323 C 0.26483 0.98141 0.5032 0.0
C324 C 0.20563 0.975 0.43586 0.0
C325 C 0.19213 0.98612 0.47838 0.0
C326 C 0.23958 0.98131 0.49561 0.0
C327 C 0.20286 0.99395 0.52986 0.0
C328 C 0.27497 0.973 0.5548 0.0
C329 C 0.30152 0.99425 0.46885 0.0
N330 N 0.22603 0.99131 0.53726 0.0
N331 N 0.27834 0.99154 0.46158 0.0
H332 H 0.54029 0.1998 0.89326 0.0
H333 H 0.54164 0.30958 0.09444 0.0
H334 H 0.504 0.19636 0.05826 0.0
H335 H 0.50643 0.31406 0.92798 0.0
H336 H 0.54454 0.26737 0.0816 0.0
H337 H 0.54454 0.24187 0.90628 0.0
C338 C 0.53368 0.20784 0.93274 0.0
C339 C 0.52174 0.19475 0.97479 0.0
C340 C 0.53659 0.27778 0.04763 0.0
C341 C 0.52706 0.24225 0.99028 0.0
C342 C 0.53505 0.30172 0.05465 0.0
C343 C 0.52378 0.31514 0.01212 0.0
C344 C 0.52751 0.26751 -0.00307 0.0
C345 C 0.51519 0.3042 0.96171 0.0
C346 C 0.53602 0.23171 0.93989 0.0
C347 C 0.51323 0.20595 0.02485 0.0
N348 N 0.51733 0.28095 0.95527 0.0
N349 N 0.51615 0.22913 0.03145 0.0
H350 H 0.30959 0.47142 0.51114 0.0
H351 H 0.1952 0.5478 0.52192 0.0
H352 H 0.31153 0.54442 0.47205 0.0
H353 H 0.19587 0.47436 0.48876 0.0
H354 H 0.23769 0.54809 0.51573 0.0
H355 H 0.26767 0.4734 0.51804 0.0
C356 C 0.30121 0.48795 0.50445 0.0
C357 C 0.3141 0.50778 0.49075 0.0
C358 C 0.22843 0.532 0.50951 0.0
C359 C 0.26591 0.51012 0.49846 0.0
C360 C 0.20424 0.53181 0.51301 0.0
C361 C 0.19199 0.51102 0.50584 0.0
C362 C 0.24031 0.51119 0.49985 0.0
C363 C 0.20455 0.49079 0.49447 0.0
C364 C 0.27723 0.48902 0.50804 0.0
C365 C 0.30222 0.52871 0.48252 0.0
N366 N 0.22797 0.49137 0.49231 0.0
N367 N 0.27872 0.52936 0.48656 0.0
H368 H 0.98932 0.59294 0.81768 0.0
H369 H 0.106 0.55686 0.65646 0.0
H370 H 0.05686 0.6119 0.88211 0.0
H371 H 0.03753 0.53511 0.60469 0.0
H372 H 0.08866 0.58336 0.72791 0.0
H373 H 0.0069 0.57901 0.72735 0.0
C374 C 0.00786 0.59459 0.8122 0.0
C375 C 0.0217 0.60328 0.85765 0.0
C376 C 0.07747 0.57299 0.70031 0.0
C377 C 0.0421 0.58674 0.75488 0.0
C378 C 0.08735 0.55788 0.65947 0.0
C379 C 0.07321 0.54346 0.62514 0.0
C380 C 0.05331 0.57374 0.70651 0.0
C381 C 0.04915 0.54557 0.63084 0.0
C382 C 0.01793 0.58653 0.7607 0.0
C383 C 0.04559 0.60525 0.84809 0.0
N384 N 0.04002 0.56024 0.67101 0.0
N385 N 0.05514 0.59657 0.79813 0.0
H386 H 0.98168 0.03624 0.11731 0.0
H387 H 0.89793 0.05073 0.39224 0.0
H388 H 0.95522 0.10263 0.17131 0.0
H389 H 0.92352 0.98565 0.32686 0.0
H390 H 0.914 0.07004 0.30523 0.0
H391 H 0.95636 0.01753 0.18757 0.0
C392 C 0.97045 0.04692 0.1439 0.0
C393 C 0.9708 0.07108 0.13886 0.0
C394 C 0.91571 0.05148 0.30953 0.0
C395 C 0.94162 0.04962 0.22029 0.0
C396 C 0.90639 0.04044 0.35891 0.0
C397 C 0.90968 0.01661 0.36707 0.0
C398 C 0.92826 0.0385 0.26829 0.0
C399 C 0.92089 0.00411 0.32278 0.0
C400 C 0.95587 0.03619 0.18402 0.0
C401 C 0.95556 0.08395 0.17397 0.0
N402 N 0.92996 0.01523 0.27577 0.0
N403 N 0.94176 0.07307 0.21384 0.0
H404 H 0.44899 0.89685 0.90963 0.0
H405 H 0.46567 0.98322 0.64106 0.0
H406 H 0.515 0.92041 0.8448 0.0
H407 H 0.39911 0.95473 0.68751 0.0
H408 H 0.48393 0.95728 0.71087 0.0
H409 H 0.43031 0.91388 0.82297 0.0
C410 C 0.4596 0.90503 0.87641 0.0
C411 C 0.48352 0.90753 0.88471 0.0
C412 C 0.46533 0.95651 0.70566 0.0
C413 C 0.46236 0.92731 0.7865 0.0
C414 C 0.45486 0.97146 0.66591 0.0
C415 C 0.43078 0.97134 0.65876 0.0
C416 C 0.45168 0.94143 0.73936 0.0
C417 C 0.41774 0.95547 0.69177 0.0
C418 C 0.44893 0.91491 0.82725 0.0
C419 C 0.49645 0.91841 0.84057 0.0
N420 N 0.42833 0.9413 0.73118 0.0
N421 N 0.48569 0.92812 0.79388 0.0
H422 H 0.55724 0.40351 0.17448 0.0
H423 H 0.58365 0.52321 0.33537 0.0
H424 H 0.52658 0.46915 0.12919 0.0
H425 H 0.61003 0.45792 0.39738 0.0
H426 H 0.56927 0.50414 0.24745 0.0
H427 H 0.58226 0.4234 0.24536 0.0
C428 C 0.55592 0.4221 0.17895 0.0
C429 C 0.53955 0.43464 0.14636 0.0
C430 C 0.57847 0.49395 0.27977 0.0
C431 C 0.56817 0.45744 0.22691 0.0
C432 C 0.58678 0.50488 0.32991 0.0
C433 C 0.59775 0.49206 0.37406 0.0
C434 C 0.58081 0.46991 0.27395 0.0
C435 C 0.60159 0.46841 0.3644 0.0
C436 C 0.5702 0.43342 0.2194 0.0
C437 C 0.53866 0.45869 0.15388 0.0
N438 N 0.59273 0.45796 0.31576 0.0
N439 N 0.55264 0.46923 0.19348 0.0
H440 H 0.03972 0.98913 0.34802 0.0
H441 H 0.05351 0.89907 0.0858 0.0
H442 H 0.10479 0.95622 0.30804 0.0
H443 H 0.98869 0.92819 0.14295 0.0
H444 H 0.07243 0.91629 0.17192 0.0
H445 H 0.02069 0.9642 0.27722 0.0
C446 C 0.05005 0.9766 0.32441 0.0
C447 C 0.07396 0.97494 0.33372 0.0
C448 C 0.054 0.91856 0.166 0.0
C449 C 0.05213 0.94616 0.25189 0.0
C450 C 0.04317 0.90859 0.11711 0.0
C451 C 0.01955 0.91247 0.1068 0.0
C452 C 0.04105 0.93241 0.20453 0.0
C453 C 0.00701 0.92505 0.14862 0.0
C454 C 0.03911 0.96224 0.28403 0.0
C455 C 0.08632 0.95814 0.30215 0.0
N456 N 0.01794 0.93475 0.19513 0.0
N457 N 0.0753 0.94454 0.26213 0.0
H458 H 0.55436 0.10798 0.81218 0.0
H459 H 0.5869 0.98931 0.6539 0.0
H460 H 0.52507 0.04131 0.85427 0.0
H461 H 0.60909 0.05578 0.58902 0.0
H462 H 0.57122 0.00801 0.7408 0.0
H463 H 0.5803 0.08914 0.74192 0.0
C464 C 0.5535 0.08939 0.80707 0.0
C465 C 0.5373 0.07624 0.83874 0.0
C466 C 0.57979 0.01855 0.70808 0.0
C467 C 0.56705 0.05464 0.75897 0.0
C468 C 0.58886 0.00785 0.65858 0.0
C469 C 0.59901 0.02107 0.61389 0.0
C470 C 0.58055 0.04272 0.71275 0.0
C471 C 0.60134 0.04498 0.62247 0.0
C472 C 0.56832 0.07868 0.76699 0.0
C473 C 0.53702 0.05222 0.83038 0.0
N474 N 0.59176 0.05515 0.67054 0.0
N475 N 0.55157 0.04226 0.79123 0.0
H476 H 0.46873 0.52927 0.39231 0.0
H477 H 0.44921 0.60945 0.11267 0.0
H478 H 0.4011 0.55096 0.33421 0.0
H479 H 0.51564 0.58603 0.17479 0.0
H480 H 0.43146 0.59453 0.20291 0.0
H481 H 0.4862 0.55578 0.32244 0.0
C482 C 0.45752 0.53973 0.36504 0.0
C483 C 0.43341 0.5376 0.3685 0.0
C484 C 0.44998 0.59309 0.19723 0.0
C485 C 0.45338 0.56803 0.28762 0.0
C486 C 0.46014 0.60176 0.14598 0.0
C487 C 0.48386 0.59863 0.13594 0.0
C488 C 0.46373 0.58132 0.23846 0.0
C489 C 0.49721 0.58845 0.18035 0.0
C490 C 0.46753 0.55497 0.32516 0.0
C491 C 0.41978 0.55193 0.3327 0.0
N492 N 0.48693 0.57993 0.22922 0.0
N493 N 0.42997 0.56631 0.29304 0.0
H494 H 0.94389 0.39872 0.81028 0.0
H495 H 0.91548 0.51768 0.65029 0.0
H496 H 0.96712 0.46589 0.86821 0.0
H497 H 0.89182 0.45177 0.5853 0.0
H498 H 0.92776 0.49911 0.74092 0.0
H499 H 0.91887 0.41765 0.73778 0.0
C500 C 0.94347 0.41742 0.80843 0.0
C501 C 0.95793 0.43073 0.84473 0.0
C502 C 0.91957 0.48866 0.70738 0.0
C503 C 0.92939 0.45243 0.76214 0.0
C504 C 0.91247 0.49931 0.65568 0.0
C505 C 0.9029 0.48618 0.61006 0.0
C506 C 0.91754 0.46457 0.71321 0.0
C507 C 0.8992 0.46248 0.61948 0.0
C508 C 0.92921 0.42821 0.76699 0.0
C509 C 0.95662 0.45489 0.84049 0.0
N510 N 0.90697 0.4523 0.66965 0.0
N511 N 0.94282 0.4649 0.79967 0.0
H512 H 0.01371 0.40995 0.15361 0.0
H513 H 0.89696 0.44846 0.31049 0.0
H514 H 0.94617 0.39295 0.08585 0.0
H515 H 0.96564 0.46848 0.36498 0.0
H516 H 0.91408 0.4215 0.23976 0.0
H517 H 0.99591 0.42373 0.24383 0.0
C518 C 0.99511 0.40867 0.15838 0.0
C519 C 0.98135 0.4006 0.11206 0.0
C520 C 0.92535 0.43158 0.26782 0.0
C521 C 0.96071 0.41703 0.21456 0.0
C522 C 0.9156 0.44696 0.30822 0.0
C523 C 0.9299 0.46104 0.34305 0.0
C524 C 0.94952 0.43023 0.2626 0.0
C525 C 0.95392 0.4583 0.33836 0.0
C526 C 0.98491 0.41665 0.20978 0.0
C527 C 0.95737 0.39911 0.12061 0.0
N528 N 0.96292 0.44339 0.29862 0.0
N529 N 0.94771 0.40775 0.17047 0.0
H530 H 0.05381 0.90135 0.80763 0.0
H531 H 0.08494 0.02035 0.64719 0.0
H532 H 0.0241 0.96781 0.8487 0.0
H533 H 0.10792 0.95423 0.58218 0.0
H534 H 0.06891 1.00131 0.73313 0.0
H535 H 0.0791 0.92028 0.73545 0.0
C536 C 0.05276 0.91991 0.80195 0.0
C537 C 0.03663 0.93298 0.83385 0.0
C538 C 0.07765 0.9909 0.70052 0.0
C539 C 0.06553 0.95466 0.75198 0.0
C540 C 0.0869 1.0018 0.65146 0.0
C541 C 0.09749 0.98881 0.60707 0.0
C542 C 0.07871 0.96673 0.70523 0.0
C543 C 0.09981 0.96487 0.61536 0.0
C544 C 0.06716 0.93067 0.76074 0.0
C545 C 0.03602 0.95695 0.82469 0.0
N546 N 0.09013 0.9545 0.66312 0.0
N547 N 0.05016 0.96694 0.7846 0.0
H548 H 0.53904 0.03329 0.36784 0.0
H549 H 0.55664 0.11163 0.0834 0.0
H550 H 0.60647 0.0546 0.30731 0.0
H551 H 0.49065 0.08983 0.15211 0.0
H552 H 0.57542 0.09629 0.17204 0.0
H553 H 0.52133 0.05883 0.29625 0.0
C554 C 0.55016 0.04346 0.33958 0.0
C555 C 0.57429 0.04155 0.34308 0.0
C556 C 0.55679 0.09527 0.16808 0.0
C557 C 0.55401 0.07089 0.26007 0.0
C558 C 0.54606 0.10417 0.11775 0.0
C559 C 0.5221 0.1017 0.11013 0.0
C560 C 0.54337 0.08396 0.21084 0.0
C561 C 0.50922 0.09177 0.15577 0.0
C562 C 0.54002 0.05815 0.29869 0.0
C563 C 0.58779 0.05547 0.30588 0.0
N564 N 0.52002 0.08309 0.20371 0.0
N565 N 0.57746 0.06934 0.26526 0.0
H566 H 0.39244 0.54839 0.60967 0.0
H567 H 0.47069 0.53544 0.89602 0.0
H568 H 0.42062 0.48424 0.67423 0.0
H569 H 0.44738 0.60148 0.8309 0.0
H570 H 0.44597 0.51618 0.82495 0.0
H571 H 0.40564 0.56763 0.69978 0.0
C572 C 0.40084 0.53824 0.64344 0.0
C573 C 0.40574 0.51476 0.63419 0.0
C574 C 0.44603 0.53489 0.82634 0.0
C575 C 0.42103 0.5366 0.73667 0.0
C576 C 0.46022 0.54592 0.86695 0.0
C577 C 0.4614 0.57013 0.86881 0.0
C578 C 0.43306 0.54807 0.78642 0.0
C579 C 0.44709 0.58277 0.8307 0.0
C580 C 0.40852 0.54926 0.69462 0.0
C581 C 0.41679 0.50244 0.67917 0.0
N582 N 0.43376 0.57159 0.79036 0.0
N583 N 0.42425 0.51355 0.72803 0.0
H584 H 0.96821 0.02201 0.61691 0.0
H585 H 0.95408 0.10606 0.8919 0.0
H586 H 0.90198 0.04901 0.67059 0.0
H587 H 0.01885 0.07853 0.82959 0.0
H588 H 0.93484 0.09007 0.80465 0.0
H589 H 0.98704 0.04683 0.68815 0.0
C590 C 0.95758 0.03326 0.64362 0.0
C591 C 0.93342 0.0332 0.63818 0.0
C592 C 0.95332 0.08789 0.80972 0.0
C593 C 0.95504 0.06181 0.72075 0.0
C594 C 0.96433 0.09715 0.85924 0.0
C595 C 0.98804 0.09335 0.86831 0.0
C596 C 0.9662 0.07489 0.76919 0.0
C597 C 1.00048 0.08158 0.82483 0.0
C598 C 0.96839 0.04754 0.68432 0.0
C599 C 0.92065 0.04844 0.6735 0.0
N600 N 0.98939 0.07261 0.77762 0.0
N601 N 0.9316 0.06196 0.7139 0.0
H602 H 0.39552 0.95058 0.41534 0.0
H603 H 0.47487 0.96584 0.13204 0.0
H604 H 0.41812 0.01594 0.34434 0.0
H605 H 0.45158 0.89896 0.19189 0.0
H606 H 0.44985 0.98416 0.20352 0.0
H607 H 0.41102 0.93112 0.3279 0.0
C608 C 0.4032 0.96088 0.38074 0.0
C609 C 0.40582 0.98487 0.38736 0.0
C610 C 0.44998 0.96547 0.20101 0.0
C611 C 0.42374 0.96282 0.28805 0.0
C612 C 0.46439 0.95497 0.16017 0.0
C613 C 0.46556 0.9308 0.15641 0.0
C614 C 0.43675 0.95181 0.23933 0.0
C615 C 0.45126 0.91766 0.1935 0.0
C616 C 0.41219 0.94976 0.33111 0.0
C617 C 0.41604 0.99737 0.34146 0.0
N618 N 0.43765 0.92833 0.23406 0.0
N619 N 0.4248 0.9862 0.29422 0.0
H620 H 0.55733 0.39805 0.90148 0.0
H621 H 0.53791 0.47646 0.61805 0.0
H622 H 0.49089 0.41963 0.83523 0.0
H623 H 0.60573 0.4565 0.67857 0.0
H624 H 0.52069 0.45033 0.68913 0.0
H625 H 0.57554 0.4135 0.81226 0.0
C626 C 0.54653 0.40549 0.86755 0.0
C627 C 0.52261 0.40788 0.87605 0.0
C628 C 0.53935 0.45143 0.68676 0.0
C629 C 0.54324 0.42572 0.77465 0.0
C630 C 0.54922 0.46645 0.64615 0.0
C631 C 0.5733 0.46893 0.64289 0.0
C632 C 0.5536 0.43895 0.72531 0.0
C633 C 0.58706 0.45519 0.67984 0.0
C634 C 0.55693 0.41445 0.81688 0.0
C635 C 0.50943 0.41776 0.83089 0.0
N636 N 0.577 0.44101 0.72021 0.0
N637 N 0.51993 0.42651 0.78259 0.0
H638 H 0.08995 0.48704 0.31731 0.0
H639 H 0.06053 0.60563 0.15602 0.0
H640 H 0.11228 0.5534 0.38244 0.0
H641 H 0.03479 0.53853 0.10458 0.0
H642 H 0.08605 0.58678 0.22746 0.0
H643 H 0.07721 0.50542 0.22679 0.0
C644 C 0.0926 0.50547 0.31194 0.0
C645 C 0.10188 0.51878 0.35764 0.0
C646 C 0.07503 0.57622 0.19992 0.0
C647 C 0.08671 0.54013 0.25466 0.0
C648 C 0.06048 0.58694 0.1591 0.0
C649 C 0.04522 0.57366 0.12488 0.0
C650 C 0.07438 0.55206 0.20622 0.0
C651 C 0.04595 0.54952 0.13065 0.0
C652 C 0.08522 0.516 0.26034 0.0
C653 C 0.10514 0.54254 0.34823 0.0
N654 N 0.0601 0.53957 0.1708 0.0
N655 N 0.0971 0.55258 0.29815 0.0
H656 H 0.87936 0.53238 0.25582 0.0
H657 H 0.9789 0.6276 0.21345 0.0
H658 H 0.9194 0.56085 0.39846 0.0
H659 H 0.94681 0.59085 0.07011 0.0
H660 H 0.95388 0.60677 0.28218 0.0
H661 H 0.90063 0.55714 0.18729 0.0
C662 C 0.89251 0.54396 0.27274 0.0
C663 C 0.89772 0.54448 0.33282 0.0
C664 C 0.95223 0.60336 0.23565 0.0
C665 C 0.9221 0.57281 0.25484 0.0
C666 C 0.96646 0.61529 0.19642 0.0
C667 C 0.965 0.61084 0.13606 0.0
C668 C 0.93639 0.58693 0.21429 0.0
C669 C 0.94859 0.59471 0.11637 0.0
C670 C 0.90468 0.55804 0.23363 0.0
C671 C 0.91491 0.5598 0.35241 0.0
N672 N 0.93498 0.58329 0.15537 0.0
N673 N 0.92653 0.57331 0.31353 0.0
H674 H 0.87373 0.96741 0.71119 0.0
H675 H 0.97266 0.87293 0.76389 0.0
H676 H 0.9143 0.93721 0.57221 0.0
H677 H 0.93976 0.91146 0.90267 0.0
H678 H 0.94681 0.89143 0.69289 0.0
H679 H 0.89317 0.94211 0.78167 0.0
C680 C 0.88654 0.95528 0.69544 0.0
C681 C 0.89262 0.95457 0.63593 0.0
C682 C 0.94512 0.89567 0.73896 0.0
C683 C 0.91495 0.92566 0.71616 0.0
C684 C 0.95982 0.88506 0.77948 0.0
C685 C 0.95849 0.89087 0.83909 0.0
C686 C 0.92897 0.91211 0.75835 0.0
C687 C 0.94151 0.90666 0.85698 0.0
C688 C 0.89767 0.94088 0.73567 0.0
C689 C 0.90927 0.93847 0.61784 0.0
N690 N 0.92752 0.91685 0.81673 0.0
N691 N 0.91998 0.92476 0.65785 0.0
H692 H 0.53261 0.87452 0.22948 0.0
H693 H 0.62999 0.9721 0.26697 0.0
H694 H 0.56347 0.91158 0.08497 0.0
H695 H 0.59141 0.94283 0.41103 0.0
H696 H 0.61024 0.94551 0.19992 0.0
H697 H 0.55861 0.89483 0.29701 0.0
C698 C 0.54504 0.88671 0.21194 0.0
C699 C 0.54575 0.89158 0.15172 0.0
C700 C 0.60624 0.9448 0.24629 0.0
C701 C 0.57541 0.91489 0.22841 0.0
C702 C 0.61754 0.95993 0.28452 0.0
C703 C 0.61213 0.9598 0.34445 0.0
C704 C 0.58949 0.92943 0.26829 0.0
C705 C 0.59592 0.94365 0.36499 0.0
C706 C 0.55981 0.89836 0.25044 0.0
C707 C 0.5622 0.9075 0.13122 0.0
N708 N 0.58507 0.9292 0.32693 0.0
N709 N 0.57627 0.9187 0.16952 0.0
H710 H 0.58779 0.56808 0.5852 0.0
H711 H 0.55939 0.58913 0.92338 0.0
H712 H 0.6259 0.53605 0.72622 0.0
H713 H 0.52777 0.62772 0.78259 0.0
H714 H 0.58494 0.5706 0.85232 0.0
H715 H 0.56678 0.59123 0.65694 0.0
C716 C 0.59186 0.56606 0.63132 0.0
C717 C 0.60851 0.55003 0.64988 0.0
C718 C 0.57255 0.58325 0.83697 0.0
C719 C 0.58438 0.57636 0.73234 0.0
C720 C 0.55792 0.59381 0.8775 0.0
C721 C 0.54135 0.60988 0.85874 0.0
C722 C 0.57046 0.58866 0.77714 0.0
C723 C 0.54027 0.61537 0.79888 0.0
C724 C 0.57987 0.5793 0.67227 0.0
C725 C 0.61317 0.54819 0.71008 0.0
N726 N 0.55451 0.60464 0.76012 0.0
N727 N 0.60101 0.56105 0.74927 0.0
H728 H 0.0852 0.44377 0.56718 0.0
H729 H 0.0567 0.41543 0.90217 0.0
H730 H 0.12301 0.47308 0.71259 0.0
H731 H 0.02605 0.37874 0.75673 0.0
H732 H 0.08163 0.43617 0.83356 0.0
H733 H 0.06389 0.41929 0.63574 0.0
C734 C 0.08911 0.44495 0.61357 0.0
C735 C 0.10582 0.46055 0.63431 0.0
C736 C 0.06959 0.42347 0.81661 0.0
C737 C 0.08139 0.43266 0.7131 0.0
C738 C 0.05532 0.41164 0.85576 0.0
C739 C 0.03922 0.39542 0.83503 0.0
C740 C 0.06763 0.4192 0.75617 0.0
C741 C 0.03822 0.39113 0.77453 0.0
C742 C 0.07696 0.43094 0.65269 0.0
C743 C 0.11025 0.4613 0.69478 0.0
N744 N 0.05212 0.40309 0.73715 0.0
N745 N 0.09797 0.44767 0.73213 0.0
H746 H 0.03682 0.13158 0.21182 0.0
H747 H 0.1355 0.03685 0.26505 0.0
H748 H 0.06786 0.09113 0.07383 0.0
H749 H 0.09676 0.06908 0.40445 0.0
H750 H 0.1155 0.06147 0.19405 0.0
H751 H 0.06312 0.11354 0.28249 0.0
C752 C 0.04932 0.11908 0.19632 0.0
C753 C 0.05003 0.11266 0.13703 0.0
C754 C 0.11153 0.0633 0.24024 0.0
C755 C 0.08011 0.09196 0.21745 0.0
C756 C 0.12302 0.04932 0.2808 0.0
C757 C 0.1176 0.05077 0.34064 0.0
C758 C 0.09455 0.07886 0.25972 0.0
C759 C 0.1013 0.06725 0.35862 0.0
C760 C 0.06429 0.10875 0.23666 0.0
C761 C 0.0666 0.09642 0.11927 0.0
N762 N 0.09023 0.08054 0.31829 0.0
N763 N 0.08089 0.08653 0.15935 0.0
H764 H 0.37264 0.03754 0.72851 0.0
H765 H 0.47079 0.13438 0.76675 0.0
H766 H 0.4107 0.06726 0.58418 0.0
H767 H 0.4408 0.09644 0.91094 0.0
H768 H 0.44459 0.11432 0.69932 0.0
H769 H 0.39312 0.0634 0.79592 0.0
C770 C 0.3851 0.04969 0.71092 0.0
C771 C 0.39012 0.05012 0.65074 0.0
C772 C 0.44362 0.11053 0.74578 0.0
C773 C 0.41368 0.07968 0.72753 0.0
C774 C 0.45852 0.12203 0.7843 0.0
C775 C 0.45809 0.11693 0.84446 0.0
C776 C 0.42814 0.09387 0.76764 0.0
C777 C 0.44183 0.10077 0.8648 0.0
C778 C 0.39685 0.06439 0.74943 0.0
C779 C 0.40642 0.06622 0.63034 0.0
N780 N 0.4276 0.08973 0.82646 0.0
N781 N 0.41771 0.08026 0.66868 0.0
H782 H 0.44369 0.41306 0.0828 0.0
H783 H 0.41951 0.43873 0.42137 0.0
H784 H 0.47649 0.37571 0.22398 0.0
H785 H 0.37988 0.46898 0.28052 0.0
H786 H 0.43969 0.41459 0.34995 0.0
H787 H 0.41919 0.4327 0.15437 0.0
C788 C 0.44559 0.40884 0.12886 0.0
C789 C 0.46223 0.39282 0.14753 0.0
C790 C 0.42646 0.42637 0.33465 0.0
C791 C 0.43438 0.41539 0.22979 0.0
C792 C 0.41495 0.44018 0.37541 0.0
C793 C 0.39808 0.45596 0.35678 0.0
C794 C 0.4212 0.42848 0.2747 0.0
C795 C 0.39281 0.45707 0.29675 0.0
C796 C 0.43159 0.42006 0.16972 0.0
C797 C 0.4639 0.38797 0.2077 0.0
N798 N 0.40446 0.44365 0.25779 0.0
N799 N 0.45029 0.39936 0.24674 0.0
loop_
_geom_bond_atom_site_label_1
_geom_bond_atom_site_label_2
_geom_bond_distance
_geom_bond_site_symmetry_2
_ccdc_geom_bond_type
Co0 O1 2.216 1_455 S
Co0 O2 2.091 . S
Co0 O4 2.004 . S
Co0 O10 2.021 . S
Co0 O12 2.137 1_455 S
Co0 O13 2.244 1_455 S
O1 Co0 2.216 1_655 S
O1 C8 1.247 1_655 S
O2 Co0 2.091 . S
O2 C8 1.261 . S
C3 O12 1.247 . S
C3 O13 1.272 . S
O4 Co0 2.004 . S
O4 C9 1.259 . S
Co5 O6 2.061 . S
Co5 O11 2.052 . S
Co5 O13 2.135 1_455 S
O6 Co5 2.061 . S
O6 C9 1.235 . S
C7 O10 1.238 . S
C7 O11 1.241 . S
C8 O1 1.247 1_455 S
C8 O2 1.261 . S
C9 O4 1.259 . S
C9 O6 1.235 . S
O10 Co0 2.021 . S
O10 C7 1.238 . S
O11 Co5 2.052 . S
O11 C7 1.241 . S
O12 Co0 2.137 1_655 S
O12 C3 1.247 . S
O13 Co0 2.244 1_655 S
O13 C3 1.272 . S
O13 Co5 2.135 1_655 S
Co14 O15 2.216 1_545 S
Co14 O16 2.091 . S
Co14 O18 2.004 . S
Co14 O24 2.021 . S
Co14 O26 2.137 1_545 S
Co14 O27 2.244 1_545 S
O15 Co14 2.216 1_565 S
O15 C22 1.247 1_565 S
O16 Co14 2.091 . S
O16 C22 1.261 . S
C17 O26 1.247 . S
C17 O27 1.272 . S
O18 Co14 2.004 . S
O18 C23 1.259 . S
Co19 O20 2.061 . S
Co19 O25 2.052 . S
Co19 O27 2.135 1_545 S
O20 Co19 2.061 . S
O20 C23 1.235 . S
C21 O24 1.238 . S
C21 O25 1.241 . S
C22 O15 1.247 1_545 S
C22 O16 1.261 . S
C23 O18 1.259 . S
C23 O20 1.235 . S
O24 Co14 2.021 . S
O24 C21 1.238 . S
O25 Co19 2.052 . S
O25 C21 1.241 . S
O26 Co14 2.137 1_565 S
O26 C17 1.247 . S
O27 Co14 2.244 1_565 S
O27 C17 1.272 . S
O27 Co19 2.135 1_565 S
Co28 O29 2.216 . S
Co28 O30 2.091 . S
Co28 O32 2.004 . S
Co28 O38 2.021 . S
Co28 O40 2.137 . S
Co28 O41 2.244 . S
O29 Co28 2.216 . S
O29 C36 1.247 . S
O30 Co28 2.091 . S
O30 C36 1.261 . S
C31 O40 1.247 . S
C31 O41 1.272 . S
O32 Co28 2.004 . S
O32 C37 1.259 . S
Co33 O34 2.061 . S
Co33 O39 2.052 . S
Co33 O41 2.135 . S
O34 Co33 2.061 . S
O34 C37 1.235 . S
C35 O38 1.238 . S
C35 O39 1.241 . S
C36 O29 1.247 . S
C36 O30 1.261 . S
C37 O32 1.259 . S
C37 O34 1.235 . S
O38 Co28 2.021 . S
O38 C35 1.238 . S
O39 Co33 2.052 . S
O39 C35 1.241 . S
O40 Co28 2.137 . S
O40 C31 1.247 . S
O41 Co28 2.244 . S
O41 C31 1.272 . S
O41 Co33 2.135 . S
Co42 O43 2.216 . S
Co42 O44 2.091 . S
Co42 O46 2.004 . S
Co42 O52 2.021 . S
Co42 O54 2.137 . S
Co42 O55 2.244 . S
O43 Co42 2.216 . S
O43 C50 1.247 . S
O44 Co42 2.091 . S
O44 C50 1.261 . S
C45 O54 1.247 . S
C45 O55 1.272 . S
O46 Co42 2.004 . S
O46 C51 1.259 . S
Co47 O48 2.061 . S
Co47 O53 2.052 . S
Co47 O55 2.135 . S
O48 Co47 2.061 . S
O48 C51 1.235 . S
C49 O52 1.238 . S
C49 O53 1.241 . S
C50 O43 1.247 . S
C50 O44 1.261 . S
C51 O46 1.259 . S
C51 O48 1.235 . S
O52 Co42 2.021 . S
O52 C49 1.238 . S
O53 Co47 2.052 . S
O53 C49 1.241 . S
O54 Co42 2.137 . S
O54 C45 1.247 . S
O55 Co42 2.244 . S
O55 C45 1.272 . S
O55 Co47 2.135 . S
Co56 O57 2.216 1_455 S
Co56 O58 2.091 . S
Co56 O60 2.004 . S
Co56 O66 2.021 . S
Co56 O68 2.137 1_455 S
Co56 O69 2.244 1_455 S
O57 Co56 2.216 1_655 S
O57 C64 1.247 1_655 S
O58 Co56 2.091 . S
O58 C64 1.261 . S
C59 O68 1.247 . S
C59 O69 1.272 . S
O60 Co56 2.004 . S
O60 C65 1.259 . S
Co61 O62 2.061 . S
Co61 O67 2.052 . S
Co61 O69 2.135 1_455 S
O62 Co61 2.061 . S
O62 C65 1.235 . S
C63 O66 1.238 . S
C63 O67 1.241 . S
C64 O57 1.247 1_455 S
C64 O58 1.261 . S
C65 O60 1.259 . S
C65 O62 1.235 . S
O66 Co56 2.021 . S
O66 C63 1.238 . S
O67 Co61 2.052 . S
O67 C63 1.241 . S
O68 Co56 2.137 1_655 S
O68 C59 1.247 . S
O69 Co56 2.244 1_655 S
O69 C59 1.272 . S
O69 Co61 2.135 1_655 S
Co70 O71 2.216 1_545 S
Co70 O72 2.091 . S
Co70 O74 2.004 . S
Co70 O80 2.021 . S
Co70 O82 2.137 1_545 S
Co70 O83 2.244 1_545 S
O71 Co70 2.216 1_565 S
O71 C78 1.247 1_565 S
O72 Co70 2.091 . S
O72 C78 1.261 . S
C73 O82 1.247 . S
C73 O83 1.272 . S
O74 Co70 2.004 . S
O74 C79 1.259 . S
Co75 O76 2.061 . S
Co75 O81 2.052 . S
Co75 O83 2.135 1_545 S
O76 Co75 2.061 . S
O76 C79 1.235 . S
C77 O80 1.238 . S
C77 O81 1.241 . S
C78 O71 1.247 1_545 S
C78 O72 1.261 . S
C79 O74 1.259 . S
C79 O76 1.235 . S
O80 Co70 2.021 . S
O80 C77 1.238 . S
O81 Co75 2.052 . S
O81 C77 1.241 . S
O82 Co70 2.137 1_565 S
O82 C73 1.247 . S
O83 Co70 2.244 1_565 S
O83 C73 1.272 . S
O83 Co75 2.135 1_565 S
Co84 O85 2.216 . S
Co84 O86 2.091 . S
Co84 O88 2.004 . S
Co84 O94 2.021 . S
Co84 O96 2.137 . S
Co84 O97 2.244 . S
O85 Co84 2.216 . S
O85 C92 1.247 . S
O86 Co84 2.091 . S
O86 C92 1.261 . S
C87 O96 1.247 . S
C87 O97 1.272 . S
O88 Co84 2.004 . S
O88 C93 1.259 . S
Co89 O90 2.061 . S
Co89 O95 2.052 . S
Co89 O97 2.135 . S
O90 Co89 2.061 . S
O90 C93 1.235 . S
C91 O94 1.238 . S
C91 O95 1.241 . S
C92 O85 1.247 . S
C92 O86 1.261 . S
C93 O88 1.259 . S
C93 O90 1.235 . S
O94 Co84 2.021 . S
O94 C91 1.238 . S
O95 Co89 2.052 . S
O95 C91 1.241 . S
O96 Co84 2.137 . S
O96 C87 1.247 . S
O97 Co84 2.244 . S
O97 C87 1.272 . S
O97 Co89 2.135 . S
Co98 O99 2.216 . S
Co98 O100 2.091 . S
Co98 O102 2.004 . S
Co98 O108 2.021 . S
Co98 O110 2.137 . S
Co98 O111 2.244 . S
O99 Co98 2.216 . S
O99 C106 1.247 . S
O100 Co98 2.091 . S
O100 C106 1.261 . S
C101 O110 1.247 . S
C101 O111 1.272 . S
O102 Co98 2.004 . S
O102 C107 1.259 . S
Co103 O104 2.061 . S
Co103 O109 2.052 . S
Co103 O111 2.135 . S
O104 Co103 2.061 . S
O104 C107 1.235 . S
C105 O108 1.238 . S
C105 O109 1.241 . S
C106 O99 1.247 . S
C106 O100 1.261 . S
C107 O102 1.259 . S
C107 O104 1.235 . S
O108 Co98 2.021 . S
O108 C105 1.238 . S
O109 Co103 2.052 . S
O109 C105 1.241 . S
O110 Co98 2.137 . S
O110 C101 1.247 . S
O111 Co98 2.244 . S
O111 C101 1.272 . S
O111 Co103 2.135 . S
Co112 O113 2.216 1_655 S
Co112 O114 2.091 . S
Co112 O116 2.004 . S
Co112 O122 2.021 . S
Co112 O124 2.137 1_655 S
Co112 O125 2.244 1_655 S
O113 Co112 2.216 1_455 S
O113 C120 1.247 1_455 S
O114 Co112 2.091 . S
O114 C120 1.261 . S
C115 O124 1.247 . S
C115 O125 1.272 . S
O116 Co112 2.004 . S
O116 C121 1.259 . S
Co117 O118 2.061 . S
Co117 O123 2.052 . S
Co117 O125 2.135 1_655 S
O118 Co117 2.061 . S
O118 C121 1.235 . S
C119 O122 1.238 . S
C119 O123 1.241 . S
C120 O113 1.247 1_655 S
C120 O114 1.261 . S
C121 O116 1.259 . S
C121 O118 1.235 . S
O122 Co112 2.021 . S
O122 C119 1.238 . S
O123 Co117 2.052 . S
O123 C119 1.241 . S
O124 Co112 2.137 1_455 S
O124 C115 1.247 . S
O125 Co112 2.244 1_455 S
O125 C115 1.272 . S
O125 Co117 2.135 1_455 S
Co126 O127 2.216 1_565 S
Co126 O128 2.091 . S
Co126 O130 2.004 . S
Co126 O136 2.021 . S
Co126 O138 2.137 1_565 S
Co126 O139 2.244 1_565 S
O127 Co126 2.216 1_545 S
O127 C134 1.247 1_545 S
O128 Co126 2.091 . S
O128 C134 1.261 . S
C129 O138 1.247 . S
C129 O139 1.272 . S
O130 Co126 2.004 . S
O130 C135 1.259 . S
Co131 O132 2.061 . S
Co131 O137 2.052 . S
Co131 O139 2.135 1_565 S
O132 Co131 2.061 . S
O132 C135 1.235 . S
C133 O136 1.238 . S
C133 O137 1.241 . S
C134 O127 1.247 1_565 S
C134 O128 1.261 . S
C135 O130 1.259 . S
C135 O132 1.235 . S
O136 Co126 2.021 . S
O136 C133 1.238 . S
O137 Co131 2.052 . S
O137 C133 1.241 . S
O138 Co126 2.137 1_545 S
O138 C129 1.247 . S
O139 Co126 2.244 1_545 S
O139 C129 1.272 . S
O139 Co131 2.135 1_545 S
Co140 O141 2.216 . S
Co140 O142 2.091 . S
Co140 O144 2.004 . S
Co140 O150 2.021 . S
Co140 O152 2.137 . S
Co140 O153 2.244 . S
O141 Co140 2.216 . S
O141 C148 1.247 . S
O142 Co140 2.091 . S
O142 C148 1.261 . S
C143 O152 1.247 . S
C143 O153 1.272 . S
O144 Co140 2.004 . S
O144 C149 1.259 . S
Co145 O146 2.061 . S
Co145 O151 2.052 . S
Co145 O153 2.135 . S
O146 Co145 2.061 . S
O146 C149 1.235 . S
C147 O150 1.238 . S
C147 O151 1.241 . S
C148 O141 1.247 . S
C148 O142 1.261 . S
C149 O144 1.259 . S
C149 O146 1.235 . S
O150 Co140 2.021 . S
O150 C147 1.238 . S
O151 Co145 2.052 . S
O151 C147 1.241 . S
O152 Co140 2.137 . S
O152 C143 1.247 . S
O153 Co140 2.244 . S
O153 C143 1.272 . S
O153 Co145 2.135 . S
Co154 O155 2.216 . S
Co154 O156 2.091 . S
Co154 O158 2.004 . S
Co154 O164 2.021 . S
Co154 O166 2.137 . S
Co154 O167 2.244 . S
O155 Co154 2.216 . S
O155 C162 1.247 . S
O156 Co154 2.091 . S
O156 C162 1.261 . S
C157 O166 1.247 . S
C157 O167 1.272 . S
O158 Co154 2.004 . S
O158 C163 1.259 . S
Co159 O160 2.061 . S
Co159 O165 2.052 . S
Co159 O167 2.135 . S
O160 Co159 2.061 . S
O160 C163 1.235 . S
C161 O164 1.238 . S
C161 O165 1.241 . S
C162 O155 1.247 . S
C162 O156 1.261 . S
C163 O158 1.259 . S
C163 O160 1.235 . S
O164 Co154 2.021 . S
O164 C161 1.238 . S
O165 Co159 2.052 . S
O165 C161 1.241 . S
O166 Co154 2.137 . S
O166 C157 1.247 . S
O167 Co154 2.244 . S
O167 C157 1.272 . S
O167 Co159 2.135 . S
Co168 O169 2.216 1_655 S
Co168 O170 2.091 . S
Co168 O172 2.004 . S
Co168 O178 2.021 . S
Co168 O180 2.137 1_655 S
Co168 O181 2.244 1_655 S
O169 Co168 2.216 1_455 S
O169 C176 1.247 1_455 S
O170 Co168 2.091 . S
O170 C176 1.261 . S
C171 O180 1.247 . S
C171 O181 1.272 . S
O172 Co168 2.004 . S
O172 C177 1.259 . S
Co173 O174 2.061 . S
Co173 O179 2.052 . S
Co173 O181 2.135 1_655 S
O174 Co173 2.061 . S
O174 C177 1.235 . S
C175 O178 1.238 . S
C175 O179 1.241 . S
C176 O169 1.247 1_655 S
C176 O170 1.261 . S
C177 O172 1.259 . S
C177 O174 1.235 . S
O178 Co168 2.021 . S
O178 C175 1.238 . S
O179 Co173 2.052 . S
O179 C175 1.241 . S
O180 Co168 2.137 1_455 S
O180 C171 1.247 . S
O181 Co168 2.244 1_455 S
O181 C171 1.272 . S
O181 Co173 2.135 1_455 S
Co182 O183 2.216 1_565 S
Co182 O184 2.091 . S
Co182 O186 2.004 . S
Co182 O192 2.021 . S
Co182 O194 2.137 1_565 S
Co182 O195 2.244 1_565 S
O183 Co182 2.216 1_545 S
O183 C190 1.247 1_545 S
O184 Co182 2.091 . S
O184 C190 1.261 . S
C185 O194 1.247 . S
C185 O195 1.272 . S
O186 Co182 2.004 . S
O186 C191 1.259 . S
Co187 O188 2.061 . S
Co187 O193 2.052 . S
Co187 O195 2.135 1_565 S
O188 Co187 2.061 . S
O188 C191 1.235 . S
C189 O192 1.238 . S
C189 O193 1.241 . S
C190 O183 1.247 1_565 S
C190 O184 1.261 . S
C191 O186 1.259 . S
C191 O188 1.235 . S
O192 Co182 2.021 . S
O192 C189 1.238 . S
O193 Co187 2.052 . S
O193 C189 1.241 . S
O194 Co182 2.137 1_545 S
O194 C185 1.247 . S
O195 Co182 2.244 1_545 S
O195 C185 1.272 . S
O195 Co187 2.135 1_545 S
Co196 O197 2.216 . S
Co196 O198 2.091 . S
Co196 O200 2.004 . S
Co196 O206 2.021 . S
Co196 O208 2.137 . S
Co196 O209 2.244 . S
O197 Co196 2.216 . S
O197 C204 1.247 . S
O198 Co196 2.091 . S
O198 C204 1.261 . S
C199 O208 1.247 . S
C199 O209 1.272 . S
O200 Co196 2.004 . S
O200 C205 1.259 . S
Co201 O202 2.061 . S
Co201 O207 2.052 . S
Co201 O209 2.135 . S
O202 Co201 2.061 . S
O202 C205 1.235 . S
C203 O206 1.238 . S
C203 O207 1.241 . S
C204 O197 1.247 . S
C204 O198 1.261 . S
C205 O200 1.259 . S
C205 O202 1.235 . S
O206 Co196 2.021 . S
O206 C203 1.238 . S
O207 Co201 2.052 . S
O207 C203 1.241 . S
O208 Co196 2.137 . S
O208 C199 1.247 . S
O209 Co196 2.244 . S
O209 C199 1.272 . S
O209 Co201 2.135 . S
Co210 O211 2.216 . S
Co210 O212 2.091 . S
Co210 O214 2.004 . S
Co210 O220 2.021 . S
Co210 O222 2.137 . S
Co210 O223 2.244 . S
O211 Co210 2.216 . S
O211 C218 1.247 . S
O212 Co210 2.091 . S
O212 C218 1.261 . S
C213 O222 1.247 . S
C213 O223 1.272 . S
O214 Co210 2.004 . S
O214 C219 1.259 . S
Co215 O216 2.061 . S
Co215 O221 2.052 . S
Co215 O223 2.135 . S
O216 Co215 2.061 . S
O216 C219 1.235 . S
C217 O220 1.238 . S
C217 O221 1.241 . S
C218 O211 1.247 . S
C218 O212 1.261 . S
C219 O214 1.259 . S
C219 O216 1.235 . S
O220 Co210 2.021 . S
O220 C217 1.238 . S
O221 Co215 2.052 . S
O221 C217 1.241 . S
O222 Co210 2.137 . S
O222 C213 1.247 . S
O223 Co210 2.244 . S
O223 C213 1.272 . S
O223 Co215 2.135 . S
H224 C230 0.930 . S
H225 C234 0.930 . S
H226 C239 0.929 1_556 S
H227 C237 0.929 1_554 S
H228 C232 0.929 . S
H229 C238 0.929 . S
C230 H224 0.930 . S
C230 C231 1.367 . S
C230 C238 1.378 . S
C231 C230 1.367 . S
C231 C239 1.433 . S
C232 H228 0.929 . S
C232 C234 1.378 . S
C232 C236 1.350 . S
C233 C236 1.463 1_554 S
C233 C238 1.350 . S
C233 N241 1.427 1_554 S
C234 H225 0.930 . S
C234 C232 1.378 . S
C234 C235 1.367 . S
C235 C234 1.367 . S
C235 C237 1.433 . S
C236 C232 1.350 . S
C236 C233 1.463 1_556 S
C236 N240 1.427 1_556 S
C237 H227 0.929 1_556 S
C237 C235 1.433 . S
C237 N240 1.384 1_556 S
C238 H229 0.929 . S
C238 C230 1.378 . S
C238 C233 1.350 . S
C239 H226 0.929 1_554 S
C239 C231 1.433 . S
C239 N241 1.384 1_554 S
N240 C236 1.427 1_554 S
N240 C237 1.384 1_554 S
N241 C233 1.427 1_556 S
N241 C239 1.384 1_556 S
H242 C248 0.930 . S
H243 C252 0.930 . S
H244 C257 0.929 . S
H245 C255 0.929 . S
H246 C250 0.929 . S
H247 C256 0.929 . S
C248 H242 0.930 . S
C248 C249 1.367 . S
C248 C256 1.378 . S
C249 C248 1.367 . S
C249 C257 1.433 1_545 S
C250 H246 0.929 . S
C250 C252 1.378 . S
C250 C254 1.350 1_565 S
C251 C254 1.463 . S
C251 C256 1.350 . S
C251 N259 1.427 1_545 S
C252 H243 0.930 . S
C252 C250 1.378 . S
C252 C253 1.367 1_565 S
C253 C252 1.367 1_545 S
C253 C255 1.433 . S
C254 C250 1.350 1_545 S
C254 C251 1.463 . S
C254 N258 1.427 . S
C255 H245 0.929 . S
C255 C253 1.433 . S
C255 N258 1.384 . S
C256 H247 0.929 . S
C256 C248 1.378 . S
C256 C251 1.350 . S
C257 H244 0.929 . S
C257 C249 1.433 1_565 S
C257 N259 1.384 . S
N258 C254 1.427 . S
N258 C255 1.384 . S
N259 C251 1.427 1_565 S
N259 C257 1.384 . S
H260 C266 0.930 . S
H261 C270 0.930 . S
H262 C275 0.929 . S
H263 C273 0.929 . S
H264 C268 0.929 . S
H265 C274 0.929 . S
C266 H260 0.930 . S
C266 C267 1.367 . S
C266 C274 1.378 1_554 S
C267 C266 1.367 . S
C267 C275 1.433 . S
C268 H264 0.929 . S
C268 C270 1.378 1_554 S
C268 C272 1.350 1_554 S
C269 C272 1.463 1_554 S
C269 C274 1.350 1_554 S
C269 N277 1.427 . S
C270 H261 0.930 . S
C270 C268 1.378 1_556 S
C270 C271 1.367 . S
C271 C270 1.367 . S
C271 C273 1.433 . S
C272 C268 1.350 1_556 S
C272 C269 1.463 1_556 S
C272 N276 1.427 . S
C273 H263 0.929 . S
C273 C271 1.433 . S
C273 N276 1.384 . S
C274 H265 0.929 . S
C274 C266 1.378 1_556 S
C274 C269 1.350 1_556 S
C275 H262 0.929 . S
C275 C267 1.433 . S
C275 N277 1.384 . S
N276 C272 1.427 . S
N276 C273 1.384 . S
N277 C269 1.427 . S
N277 C275 1.384 . S
H278 C284 0.930 . S
H279 C288 0.930 . S
H280 C293 0.929 . S
H281 C291 0.929 . S
H282 C286 0.929 . S
H283 C292 0.929 . S
C284 H278 0.930 . S
C284 C285 1.367 . S
C284 C292 1.378 . S
C285 C284 1.367 . S
C285 C293 1.433 . S
C286 H282 0.929 . S
C286 C288 1.378 . S
C286 C290 1.350 . S
C287 C290 1.463 . S
C287 C292 1.350 . S
C287 N295 1.427 . S
C288 H279 0.930 . S
C288 C286 1.378 . S
C288 C289 1.367 . S
C289 C288 1.367 . S
C289 C291 1.433 . S
C290 C286 1.350 . S
C290 C287 1.463 . S
C290 N294 1.427 . S
C291 H281 0.929 . S
C291 C289 1.433 . S
C291 N294 1.384 . S
C292 H283 0.929 . S
C292 C284 1.378 . S
C292 C287 1.350 . S
C293 H280 0.929 . S
C293 C285 1.433 . S
C293 N295 1.384 . S
N294 C290 1.427 . S
N294 C291 1.384 . S
N295 C287 1.427 . S
N295 C293 1.384 . S
H296 C302 0.930 . S
H297 C306 0.930 . S
H298 C311 0.929 . S
H299 C309 0.929 . S
H300 C304 0.929 1_556 S
H301 C310 0.929 1_554 S
C302 H296 0.930 . S
C302 C303 1.367 . S
C302 C310 1.378 . S
C303 C302 1.367 . S
C303 C311 1.433 1_655 S
C304 H300 0.929 1_554 S
C304 C306 1.378 . S
C304 C308 1.350 1_455 S
C305 C308 1.463 1_556 S
C305 C310 1.350 . S
C305 N313 1.427 1_655 S
C306 H297 0.930 . S
C306 C304 1.378 . S
C306 C307 1.367 1_455 S
C307 C306 1.367 1_655 S
C307 C309 1.433 . S
C308 C304 1.350 1_655 S
C308 C305 1.463 1_554 S
C308 N312 1.427 . S
C309 H299 0.929 . S
C309 C307 1.433 . S
C309 N312 1.384 . S
C310 H301 0.929 1_556 S
C310 C302 1.378 . S
C310 C305 1.350 . S
C311 H298 0.929 . S
C311 C303 1.433 1_455 S
C311 N313 1.384 . S
N312 C308 1.427 . S
N312 C309 1.384 . S
N313 C305 1.427 1_455 S
N313 C311 1.384 . S
H314 C320 0.930 . S
H315 C324 0.930 . S
H316 C329 0.929 . S
H317 C327 0.929 . S
H318 C322 0.929 . S
H319 C328 0.929 . S
C320 H314 0.930 . S
C320 C321 1.367 . S
C320 C328 1.378 . S
C321 C320 1.367 . S
C321 C329 1.433 1_565 S
C322 H318 0.929 . S
C322 C324 1.378 . S
C322 C326 1.350 1_545 S
C323 C326 1.463 . S
C323 C328 1.350 . S
C323 N331 1.427 1_565 S
C324 H315 0.930 . S
C324 C322 1.378 . S
C324 C325 1.367 1_545 S
C325 C324 1.367 1_565 S
C325 C327 1.433 . S
C326 C322 1.350 1_565 S
C326 C323 1.463 . S
C326 N330 1.427 . S
C327 H317 0.929 . S
C327 C325 1.433 . S
C327 N330 1.384 . S
C328 H319 0.929 . S
C328 C320 1.378 . S
C328 C323 1.350 . S
C329 H316 0.929 . S
C329 C321 1.433 1_545 S
C329 N331 1.384 . S
N330 C326 1.427 . S
N330 C327 1.384 . S
N331 C323 1.427 1_545 S
N331 C329 1.384 . S
H332 C338 0.930 . S
H333 C342 0.930 . S
H334 C347 0.929 1_554 S
H335 C345 0.929 1_556 S
H336 C340 0.929 . S
H337 C346 0.929 . S
C338 H332 0.930 . S
C338 C339 1.367 . S
C338 C346 1.378 . S
C339 C338 1.367 . S
C339 C347 1.433 . S
C340 H336 0.929 . S
C340 C342 1.378 . S
C340 C344 1.350 . S
C341 C344 1.463 1_556 S
C341 C346 1.350 . S
C341 N349 1.427 1_556 S
C342 H333 0.930 . S
C342 C340 1.378 . S
C342 C343 1.367 . S
C343 C342 1.367 . S
C343 C345 1.433 . S
C344 C340 1.350 . S
C344 C341 1.463 1_554 S
C344 N348 1.427 1_554 S
C345 H335 0.929 1_554 S
C345 C343 1.433 . S
C345 N348 1.384 1_554 S
C346 H337 0.929 . S
C346 C338 1.378 . S
C346 C341 1.350 . S
C347 H334 0.929 1_556 S
C347 C339 1.433 . S
C347 N349 1.384 1_556 S
N348 C344 1.427 1_556 S
N348 C345 1.384 1_556 S
N349 C341 1.427 1_554 S
N349 C347 1.384 1_554 S
H350 C356 0.930 . S
H351 C360 0.930 . S
H352 C365 0.929 . S
H353 C363 0.929 . S
H354 C358 0.929 . S
H355 C364 0.929 . S
C356 H350 0.930 . S
C356 C357 1.367 . S
C356 C364 1.378 . S
C357 C356 1.367 . S
C357 C365 1.433 . S
C358 H354 0.929 . S
C358 C360 1.378 . S
C358 C362 1.350 . S
C359 C362 1.463 . S
C359 C364 1.350 . S
C359 N367 1.427 . S
C360 H351 0.930 . S
C360 C358 1.378 . S
C360 C361 1.367 . S
C361 C360 1.367 . S
C361 C363 1.433 . S
C362 C358 1.350 . S
C362 C359 1.463 . S
C362 N366 1.427 . S
C363 H353 0.929 . S
C363 C361 1.433 . S
C363 N366 1.384 . S
C364 H355 0.929 . S
C364 C356 1.378 . S
C364 C359 1.350 . S
C365 H352 0.929 . S
C365 C357 1.433 . S
C365 N367 1.384 . S
N366 C362 1.427 . S
N366 C363 1.384 . S
N367 C359 1.427 . S
N367 C365 1.384 . S
H368 C374 0.930 . S
H369 C378 0.930 . S
H370 C383 0.929 . S
H371 C381 0.929 . S
H372 C376 0.929 . S
H373 C382 0.929 . S
C374 H368 0.930 . S
C374 C375 1.367 . S
C374 C382 1.378 . S
C375 C374 1.367 . S
C375 C383 1.433 1_556 S
C376 H372 0.929 . S
C376 C378 1.378 . S
C376 C380 1.350 . S
C377 C380 1.463 . S
C377 C382 1.350 . S
C377 N385 1.427 . S
C378 H369 0.930 . S
C378 C376 1.378 . S
C378 C379 1.367 . S
C379 C378 1.367 . S
C379 C381 1.433 . S
C380 C376 1.350 . S
C380 C377 1.463 . S
C380 N384 1.427 . S
C381 H371 0.929 . S
C381 C379 1.433 . S
C381 N384 1.384 . S
C382 H373 0.929 . S
C382 C374 1.378 . S
C382 C377 1.350 . S
C383 H370 0.929 . S
C383 C375 1.433 1_554 S
C383 N385 1.384 1_554 S
N384 C380 1.427 . S
N384 C381 1.384 . S
N385 C377 1.427 . S
N385 C383 1.384 1_556 S
H386 C392 0.930 . S
H387 C396 0.930 . S
H388 C401 0.929 . S
H389 C399 0.929 . S
H390 C394 0.929 . S
H391 C400 0.929 . S
C392 H386 0.930 . S
C392 C393 1.367 . S
C392 C400 1.378 . S
C393 C392 1.367 . S
C393 C401 1.433 . S
C394 H390 0.929 . S
C394 C396 1.378 . S
C394 C398 1.350 . S
C395 C398 1.463 . S
C395 C400 1.350 . S
C395 N403 1.427 . S
C396 H387 0.930 . S
C396 C394 1.378 . S
C396 C397 1.367 . S
C397 C396 1.367 . S
C397 C399 1.433 . S
C398 C394 1.350 . S
C398 C395 1.463 . S
C398 N402 1.427 . S
C399 H389 0.929 . S
C399 C397 1.433 . S
C399 N402 1.384 . S
C400 H391 0.929 . S
C400 C392 1.378 . S
C400 C395 1.350 . S
C401 H388 0.929 . S
C401 C393 1.433 . S
C401 N403 1.384 . S
N402 C398 1.427 . S
N402 C399 1.384 . S
N403 C395 1.427 . S
N403 C401 1.384 . S
H404 C410 0.930 . S
H405 C414 0.930 . S
H406 C419 0.929 . S
H407 C417 0.929 . S
H408 C412 0.929 . S
H409 C418 0.929 . S
C410 H404 0.930 . S
C410 C411 1.367 1_554 S
C410 C418 1.378 1_554 S
C411 C410 1.367 1_556 S
C411 C419 1.433 . S
C412 H408 0.929 . S
C412 C414 1.378 . S
C412 C416 1.350 . S
C413 C416 1.463 . S
C413 C418 1.350 . S
C413 N421 1.427 . S
C414 H405 0.930 . S
C414 C412 1.378 . S
C414 C415 1.367 . S
C415 C414 1.367 . S
C415 C417 1.433 . S
C416 C412 1.350 . S
C416 C413 1.463 . S
C416 N420 1.427 . S
C417 H407 0.929 . S
C417 C415 1.433 . S
C417 N420 1.384 . S
C418 H409 0.929 . S
C418 C410 1.378 1_556 S
C418 C413 1.350 . S
C419 H406 0.929 . S
C419 C411 1.433 . S
C419 N421 1.384 . S
N420 C416 1.427 . S
N420 C417 1.384 . S
N421 C413 1.427 . S
N421 C419 1.384 . S
H422 C428 0.930 . S
H423 C432 0.930 . S
H424 C437 0.929 . S
H425 C435 0.929 . S
H426 C430 0.929 . S
H427 C436 0.929 . S
C428 H422 0.930 . S
C428 C429 1.367 . S
C428 C436 1.378 . S
C429 C428 1.367 . S
C429 C437 1.433 . S
C430 H426 0.929 . S
C430 C432 1.378 . S
C430 C434 1.350 . S
C431 C434 1.463 . S
C431 C436 1.350 . S
C431 N439 1.427 . S
C432 H423 0.930 . S
C432 C430 1.378 . S
C432 C433 1.367 . S
C433 C432 1.367 . S
C433 C435 1.433 . S
C434 C430 1.350 . S
C434 C431 1.463 . S
C434 N438 1.427 . S
C435 H425 0.929 . S
C435 C433 1.433 . S
C435 N438 1.384 . S
C436 H427 0.929 . S
C436 C428 1.378 . S
C436 C431 1.350 . S
C437 H424 0.929 . S
C437 C429 1.433 . S
C437 N439 1.384 . S
N438 C434 1.427 . S
N438 C435 1.384 . S
N439 C431 1.427 . S
N439 C437 1.384 . S
H440 C446 0.930 . S
H441 C450 0.930 . S
H442 C455 0.929 . S
H443 C453 0.929 1_556 S
H444 C448 0.929 . S
H445 C454 0.929 . S
C446 H440 0.930 . S
C446 C447 1.367 . S
C446 C454 1.378 . S
C447 C446 1.367 . S
C447 C455 1.433 . S
C448 H444 0.929 . S
C448 C450 1.378 . S
C448 C452 1.350 . S
C449 C452 1.463 . S
C449 C454 1.350 . S
C449 N457 1.427 . S
C450 H441 0.930 . S
C450 C448 1.378 . S
C450 C451 1.367 . S
C451 C450 1.367 . S
C451 C453 1.433 . S
C452 C448 1.350 . S
C452 C449 1.463 . S
C452 N456 1.427 . S
C453 H443 0.929 1_554 S
C453 C451 1.433 . S
C453 N456 1.384 . S
C454 H445 0.929 . S
C454 C446 1.378 . S
C454 C449 1.350 . S
C455 H442 0.929 . S
C455 C447 1.433 . S
C455 N457 1.384 . S
N456 C452 1.427 . S
N456 C453 1.384 . S
N457 C449 1.427 . S
N457 C455 1.384 . S
H458 C464 0.930 . S
H459 C468 0.930 . S
H460 C473 0.929 . S
H461 C471 0.929 . S
H462 C466 0.929 . S
H463 C472 0.929 . S
C464 H458 0.930 . S
C464 C465 1.367 . S
C464 C472 1.378 . S
C465 C464 1.367 . S
C465 C473 1.433 . S
C466 H462 0.929 . S
C466 C468 1.378 . S
C466 C470 1.350 . S
C467 C470 1.463 . S
C467 C472 1.350 . S
C467 N475 1.427 . S
C468 H459 0.930 . S
C468 C466 1.378 . S
C468 C469 1.367 . S
C469 C468 1.367 . S
C469 C471 1.433 . S
C470 C466 1.350 . S
C470 C467 1.463 . S
C470 N474 1.427 . S
C471 H461 0.929 . S
C471 C469 1.433 . S
C471 N474 1.384 . S
C472 H463 0.929 . S
C472 C464 1.378 . S
C472 C467 1.350 . S
C473 H460 0.929 . S
C473 C465 1.433 . S
C473 N475 1.384 . S
N474 C470 1.427 . S
N474 C471 1.384 . S
N475 C467 1.427 . S
N475 C473 1.384 . S
H476 C482 0.930 . S
H477 C486 0.930 . S
H478 C491 0.929 . S
H479 C489 0.929 . S
H480 C484 0.929 . S
H481 C490 0.929 . S
C482 H476 0.930 . S
C482 C483 1.367 . S
C482 C490 1.378 . S
C483 C482 1.367 . S
C483 C491 1.433 . S
C484 H480 0.929 . S
C484 C486 1.378 1_554 S
C484 C488 1.350 . S
C485 C488 1.463 . S
C485 C490 1.350 . S
C485 N493 1.427 . S
C486 H477 0.930 . S
C486 C484 1.378 1_556 S
C486 C487 1.367 1_556 S
C487 C486 1.367 1_554 S
C487 C489 1.433 . S
C488 C484 1.350 . S
C488 C485 1.463 . S
C488 N492 1.427 . S
C489 H479 0.929 . S
C489 C487 1.433 . S
C489 N492 1.384 . S
C490 H481 0.929 . S
C490 C482 1.378 . S
C490 C485 1.350 . S
C491 H478 0.929 . S
C491 C483 1.433 . S
C491 N493 1.384 . S
N492 C488 1.427 . S
N492 C489 1.384 . S
N493 C485 1.427 . S
N493 C491 1.384 . S
H494 C500 0.930 . S
H495 C504 0.930 . S
H496 C509 0.929 . S
H497 C507 0.929 . S
H498 C502 0.929 . S
H499 C508 0.929 . S
C500 H494 0.930 . S
C500 C501 1.367 . S
C500 C508 1.378 . S
C501 C500 1.367 . S
C501 C509 1.433 . S
C502 H498 0.929 . S
C502 C504 1.378 . S
C502 C506 1.350 . S
C503 C506 1.463 . S
C503 C508 1.350 . S
C503 N511 1.427 . S
C504 H495 0.930 . S
C504 C502 1.378 . S
C504 C505 1.367 . S
C505 C504 1.367 . S
C505 C507 1.433 . S
C506 C502 1.350 . S
C506 C503 1.463 . S
C506 N510 1.427 . S
C507 H497 0.929 . S
C507 C505 1.433 . S
C507 N510 1.384 . S
C508 H499 0.929 . S
C508 C500 1.378 . S
C508 C503 1.350 . S
C509 H496 0.929 . S
C509 C501 1.433 . S
C509 N511 1.384 . S
N510 C506 1.427 . S
N510 C507 1.384 . S
N511 C503 1.427 . S
N511 C509 1.384 . S
H512 C518 0.930 . S
H513 C522 0.930 . S
H514 C527 0.929 . S
H515 C525 0.929 . S
H516 C520 0.929 . S
H517 C526 0.929 . S
C518 H512 0.930 . S
C518 C519 1.367 . S
C518 C526 1.378 . S
C519 C518 1.367 . S
C519 C527 1.433 1_554 S
C520 H516 0.929 . S
C520 C522 1.378 . S
C520 C524 1.350 . S
C521 C524 1.463 . S
C521 C526 1.350 . S
C521 N529 1.427 . S
C522 H513 0.930 . S
C522 C520 1.378 . S
C522 C523 1.367 . S
C523 C522 1.367 . S
C523 C525 1.433 . S
C524 C520 1.350 . S
C524 C521 1.463 . S
C524 N528 1.427 . S
C525 H515 0.929 . S
C525 C523 1.433 . S
C525 N528 1.384 . S
C526 H517 0.929 . S
C526 C518 1.378 . S
C526 C521 1.350 . S
C527 H514 0.929 . S
C527 C519 1.433 1_556 S
C527 N529 1.384 1_556 S
N528 C524 1.427 . S
N528 C525 1.384 . S
N529 C521 1.427 . S
N529 C527 1.384 1_554 S
H530 C536 0.930 . S
H531 C540 0.930 . S
H532 C545 0.929 . S
H533 C543 0.929 . S
H534 C538 0.929 . S
H535 C544 0.929 . S
C536 H530 0.930 . S
C536 C537 1.367 . S
C536 C544 1.378 . S
C537 C536 1.367 . S
C537 C545 1.433 . S
C538 H534 0.929 . S
C538 C540 1.378 . S
C538 C542 1.350 . S
C539 C542 1.463 . S
C539 C544 1.350 . S
C539 N547 1.427 . S
C540 H531 0.930 . S
C540 C538 1.378 . S
C540 C541 1.367 . S
C541 C540 1.367 . S
C541 C543 1.433 . S
C542 C538 1.350 . S
C542 C539 1.463 . S
C542 N546 1.427 . S
C543 H533 0.929 . S
C543 C541 1.433 . S
C543 N546 1.384 . S
C544 H535 0.929 . S
C544 C536 1.378 . S
C544 C539 1.350 . S
C545 H532 0.929 . S
C545 C537 1.433 . S
C545 N547 1.384 . S
N546 C542 1.427 . S
N546 C543 1.384 . S
N547 C539 1.427 . S
N547 C545 1.384 . S
H548 C554 0.930 . S
H549 C558 0.930 . S
H550 C563 0.929 . S
H551 C561 0.929 . S
H552 C556 0.929 . S
H553 C562 0.929 . S
C554 H548 0.930 . S
C554 C555 1.367 . S
C554 C562 1.378 . S
C555 C554 1.367 . S
C555 C563 1.433 . S
C556 H552 0.929 . S
C556 C558 1.378 1_554 S
C556 C560 1.350 . S
C557 C560 1.463 . S
C557 C562 1.350 . S
C557 N565 1.427 . S
C558 H549 0.930 . S
C558 C556 1.378 1_556 S
C558 C559 1.367 1_556 S
C559 C558 1.367 1_554 S
C559 C561 1.433 . S
C560 C556 1.350 . S
C560 C557 1.463 . S
C560 N564 1.427 . S
C561 H551 0.929 . S
C561 C559 1.433 . S
C561 N564 1.384 . S
C562 H553 0.929 . S
C562 C554 1.378 . S
C562 C557 1.350 . S
C563 H550 0.929 . S
C563 C555 1.433 . S
C563 N565 1.384 . S
N564 C560 1.427 . S
N564 C561 1.384 . S
N565 C557 1.427 . S
N565 C563 1.384 . S
H566 C572 0.930 . S
H567 C576 0.930 . S
H568 C581 0.929 . S
H569 C579 0.929 . S
H570 C574 0.929 . S
H571 C580 0.929 . S
C572 H566 0.930 . S
C572 C573 1.367 . S
C572 C580 1.378 . S
C573 C572 1.367 . S
C573 C581 1.433 . S
C574 H570 0.929 . S
C574 C576 1.378 . S
C574 C578 1.350 . S
C575 C578 1.463 . S
C575 C580 1.350 . S
C575 N583 1.427 . S
C576 H567 0.930 . S
C576 C574 1.378 . S
C576 C577 1.367 . S
C577 C576 1.367 . S
C577 C579 1.433 . S
C578 C574 1.350 . S
C578 C575 1.463 . S
C578 N582 1.427 . S
C579 H569 0.929 . S
C579 C577 1.433 . S
C579 N582 1.384 . S
C580 H571 0.929 . S
C580 C572 1.378 . S
C580 C575 1.350 . S
C581 H568 0.929 . S
C581 C573 1.433 . S
C581 N583 1.384 . S
N582 C578 1.427 . S
N582 C579 1.384 . S
N583 C575 1.427 . S
N583 C581 1.384 . S
H584 C590 0.930 . S
H585 C594 0.930 . S
H586 C599 0.929 . S
H587 C597 0.929 1_554 S
H588 C592 0.929 . S
H589 C598 0.929 . S
C590 H584 0.930 . S
C590 C591 1.367 . S
C590 C598 1.378 . S
C591 C590 1.367 . S
C591 C599 1.433 . S
C592 H588 0.929 . S
C592 C594 1.378 . S
C592 C596 1.350 . S
C593 C596 1.463 . S
C593 C598 1.350 . S
C593 N601 1.427 . S
C594 H585 0.930 . S
C594 C592 1.378 . S
C594 C595 1.367 . S
C595 C594 1.367 . S
C595 C597 1.433 . S
C596 C592 1.350 . S
C596 C593 1.463 . S
C596 N600 1.427 . S
C597 H587 0.929 1_556 S
C597 C595 1.433 . S
C597 N600 1.384 . S
C598 H589 0.929 . S
C598 C590 1.378 . S
C598 C593 1.350 . S
C599 H586 0.929 . S
C599 C591 1.433 . S
C599 N601 1.384 . S
N600 C596 1.427 . S
N600 C597 1.384 . S
N601 C593 1.427 . S
N601 C599 1.384 . S
H602 C608 0.930 . S
H603 C612 0.930 . S
H604 C617 0.929 . S
H605 C615 0.929 . S
H606 C610 0.929 . S
H607 C616 0.929 . S
C608 H602 0.930 . S
C608 C609 1.367 . S
C608 C616 1.378 . S
C609 C608 1.367 . S
C609 C617 1.433 . S
C610 H606 0.929 . S
C610 C612 1.378 . S
C610 C614 1.350 . S
C611 C614 1.463 . S
C611 C616 1.350 . S
C611 N619 1.427 . S
C612 H603 0.930 . S
C612 C610 1.378 . S
C612 C613 1.367 . S
C613 C612 1.367 . S
C613 C615 1.433 . S
C614 C610 1.350 . S
C614 C611 1.463 . S
C614 N618 1.427 . S
C615 H605 0.929 . S
C615 C613 1.433 . S
C615 N618 1.384 . S
C616 H607 0.929 . S
C616 C608 1.378 . S
C616 C611 1.350 . S
C617 H604 0.929 . S
C617 C609 1.433 . S
C617 N619 1.384 . S
N618 C614 1.427 . S
N618 C615 1.384 . S
N619 C611 1.427 . S
N619 C617 1.384 . S
H620 C626 0.930 . S
H621 C630 0.930 . S
H622 C635 0.929 1_554 S
H623 C633 0.929 . S
H624 C628 0.929 . S
H625 C634 0.929 . S
C626 H620 0.930 . S
C626 C627 1.367 . S
C626 C634 1.378 . S
C627 C626 1.367 . S
C627 C635 1.433 . S
C628 H624 0.929 . S
C628 C630 1.378 . S
C628 C632 1.350 . S
C629 C632 1.463 . S
C629 C634 1.350 . S
C629 N637 1.427 . S
C630 H621 0.930 . S
C630 C628 1.378 . S
C630 C631 1.367 . S
C631 C630 1.367 . S
C631 C633 1.433 . S
C632 C628 1.350 . S
C632 C629 1.463 . S
C632 N636 1.427 . S
C633 H623 0.929 . S
C633 C631 1.433 . S
C633 N636 1.384 . S
C634 H625 0.929 . S
C634 C626 1.378 . S
C634 C629 1.350 . S
C635 H622 0.929 1_556 S
C635 C627 1.433 . S
C635 N637 1.384 . S
N636 C632 1.427 . S
N636 C633 1.384 . S
N637 C629 1.427 . S
N637 C635 1.384 . S
H638 C644 0.930 . S
H639 C648 0.930 . S
H640 C653 0.929 . S
H641 C651 0.929 . S
H642 C646 0.929 . S
H643 C652 0.929 . S
C644 H638 0.930 . S
C644 C645 1.367 . S
C644 C652 1.378 . S
C645 C644 1.367 . S
C645 C653 1.433 . S
C646 H642 0.929 . S
C646 C648 1.378 . S
C646 C650 1.350 . S
C647 C650 1.463 . S
C647 C652 1.350 . S
C647 N655 1.427 . S
C648 H639 0.930 . S
C648 C646 1.378 . S
C648 C649 1.367 . S
C649 C648 1.367 . S
C649 C651 1.433 . S
C650 C646 1.350 . S
C650 C647 1.463 . S
C650 N654 1.427 . S
C651 H641 0.929 . S
C651 C649 1.433 . S
C651 N654 1.384 . S
C652 H643 0.929 . S
C652 C644 1.378 . S
C652 C647 1.350 . S
C653 H640 0.929 . S
C653 C645 1.433 . S
C653 N655 1.384 . S
N654 C650 1.427 . S
N654 C651 1.384 . S
N655 C647 1.427 . S
N655 C653 1.384 . S
H656 C662 0.930 . S
H657 C666 0.930 . S
H658 C671 0.929 . S
H659 C669 0.929 . S
H660 C664 0.929 . S
H661 C670 0.929 . S
C662 H656 0.930 . S
C662 C663 1.367 . S
C662 C670 1.378 . S
C663 C662 1.367 . S
C663 C671 1.433 . S
C664 H660 0.929 . S
C664 C666 1.378 . S
C664 C668 1.350 . S
C665 C668 1.463 . S
C665 C670 1.350 . S
C665 N673 1.427 . S
C666 H657 0.930 . S
C666 C664 1.378 . S
C666 C667 1.367 . S
C667 C666 1.367 . S
C667 C669 1.433 . S
C668 C664 1.350 . S
C668 C665 1.463 . S
C668 N672 1.427 . S
C669 H659 0.929 . S
C669 C667 1.433 . S
C669 N672 1.384 . S
C670 H661 0.929 . S
C670 C662 1.378 . S
C670 C665 1.350 . S
C671 H658 0.929 . S
C671 C663 1.433 . S
C671 N673 1.384 . S
N672 C668 1.427 . S
N672 C669 1.384 . S
N673 C665 1.427 . S
N673 C671 1.384 . S
H674 C680 0.930 . S
H675 C684 0.930 . S
H676 C689 0.929 . S
H677 C687 0.929 . S
H678 C682 0.929 . S
H679 C688 0.929 . S
C680 H674 0.930 . S
C680 C681 1.367 . S
C680 C688 1.378 . S
C681 C680 1.367 . S
C681 C689 1.433 . S
C682 H678 0.929 . S
C682 C684 1.378 . S
C682 C686 1.350 . S
C683 C686 1.463 . S
C683 C688 1.350 . S
C683 N691 1.427 . S
C684 H675 0.930 . S
C684 C682 1.378 . S
C684 C685 1.367 . S
C685 C684 1.367 . S
C685 C687 1.433 . S
C686 C682 1.350 . S
C686 C683 1.463 . S
C686 N690 1.427 . S
C687 H677 0.929 . S
C687 C685 1.433 . S
C687 N690 1.384 . S
C688 H679 0.929 . S
C688 C680 1.378 . S
C688 C683 1.350 . S
C689 H676 0.929 . S
C689 C681 1.433 . S
C689 N691 1.384 . S
N690 C686 1.427 . S
N690 C687 1.384 . S
N691 C683 1.427 . S
N691 C689 1.384 . S
H692 C698 0.930 . S
H693 C702 0.930 . S
H694 C707 0.929 . S
H695 C705 0.929 . S
H696 C700 0.929 . S
H697 C706 0.929 . S
C698 H692 0.930 . S
C698 C699 1.367 . S
C698 C706 1.378 . S
C699 C698 1.367 . S
C699 C707 1.433 . S
C700 H696 0.929 . S
C700 C702 1.378 . S
C700 C704 1.350 . S
C701 C704 1.463 . S
C701 C706 1.350 . S
C701 N709 1.427 . S
C702 H693 0.930 . S
C702 C700 1.378 . S
C702 C703 1.367 . S
C703 C702 1.367 . S
C703 C705 1.433 . S
C704 C700 1.350 . S
C704 C701 1.463 . S
C704 N708 1.427 . S
C705 H695 0.929 . S
C705 C703 1.433 . S
C705 N708 1.384 . S
C706 H697 0.929 . S
C706 C698 1.378 . S
C706 C701 1.350 . S
C707 H694 0.929 . S
C707 C699 1.433 . S
C707 N709 1.384 . S
N708 C704 1.427 . S
N708 C705 1.384 . S
N709 C701 1.427 . S
N709 C707 1.384 . S
H710 C716 0.930 . S
H711 C720 0.930 . S
H712 C725 0.929 . S
H713 C723 0.929 . S
H714 C718 0.929 . S
H715 C724 0.929 . S
C716 H710 0.930 . S
C716 C717 1.367 . S
C716 C724 1.378 . S
C717 C716 1.367 . S
C717 C725 1.433 . S
C718 H714 0.929 . S
C718 C720 1.378 . S
C718 C722 1.350 . S
C719 C722 1.463 . S
C719 C724 1.350 . S
C719 N727 1.427 . S
C720 H711 0.930 . S
C720 C718 1.378 . S
C720 C721 1.367 . S
C721 C720 1.367 . S
C721 C723 1.433 . S
C722 C718 1.350 . S
C722 C719 1.463 . S
C722 N726 1.427 . S
C723 H713 0.929 . S
C723 C721 1.433 . S
C723 N726 1.384 . S
C724 H715 0.929 . S
C724 C716 1.378 . S
C724 C719 1.350 . S
C725 H712 0.929 . S
C725 C717 1.433 . S
C725 N727 1.384 . S
N726 C722 1.427 . S
N726 C723 1.384 . S
N727 C719 1.427 . S
N727 C725 1.384 . S
H728 C734 0.930 . S
H729 C738 0.930 . S
H730 C743 0.929 . S
H731 C741 0.929 . S
H732 C736 0.929 . S
H733 C742 0.929 . S
C734 H728 0.930 . S
C734 C735 1.367 . S
C734 C742 1.378 . S
C735 C734 1.367 . S
C735 C743 1.433 . S
C736 H732 0.929 . S
C736 C738 1.378 . S
C736 C740 1.350 . S
C737 C740 1.463 . S
C737 C742 1.350 . S
C737 N745 1.427 . S
C738 H729 0.930 . S
C738 C736 1.378 . S
C738 C739 1.367 . S
C739 C738 1.367 . S
C739 C741 1.433 . S
C740 C736 1.350 . S
C740 C737 1.463 . S
C740 N744 1.427 . S
C741 H731 0.929 . S
C741 C739 1.433 . S
C741 N744 1.384 . S
C742 H733 0.929 . S
C742 C734 1.378 . S
C742 C737 1.350 . S
C743 H730 0.929 . S
C743 C735 1.433 . S
C743 N745 1.384 . S
N744 C740 1.427 . S
N744 C741 1.384 . S
N745 C737 1.427 . S
N745 C743 1.384 . S
H746 C752 0.930 . S
H747 C756 0.930 . S
H748 C761 0.929 . S
H749 C759 0.929 . S
H750 C754 0.929 . S
H751 C760 0.929 . S
C752 H746 0.930 . S
C752 C753 1.367 . S
C752 C760 1.378 . S
C753 C752 1.367 . S
C753 C761 1.433 . S
C754 H750 0.929 . S
C754 C756 1.378 . S
C754 C758 1.350 . S
C755 C758 1.463 . S
C755 C760 1.350 . S
C755 N763 1.427 . S
C756 H747 0.930 . S
C756 C754 1.378 . S
C756 C757 1.367 . S
C757 C756 1.367 . S
C757 C759 1.433 . S
C758 C754 1.350 . S
C758 C755 1.463 . S
C758 N762 1.427 . S
C759 H749 0.929 . S
C759 C757 1.433 . S
C759 N762 1.384 . S
C760 H751 0.929 . S
C760 C752 1.378 . S
C760 C755 1.350 . S
C761 H748 0.929 . S
C761 C753 1.433 . S
C761 N763 1.384 . S
N762 C758 1.427 . S
N762 C759 1.384 . S
N763 C755 1.427 . S
N763 C761 1.384 . S
H764 C770 0.930 . S
H765 C774 0.930 . S
H766 C779 0.929 . S
H767 C777 0.929 . S
H768 C772 0.929 . S
H769 C778 0.929 . S
C770 H764 0.930 . S
C770 C771 1.367 . S
C770 C778 1.378 . S
C771 C770 1.367 . S
C771 C779 1.433 . S
C772 H768 0.929 . S
C772 C774 1.378 . S
C772 C776 1.350 . S
C773 C776 1.463 . S
C773 C778 1.350 . S
C773 N781 1.427 . S
C774 H765 0.930 . S
C774 C772 1.378 . S
C774 C775 1.367 . S
C775 C774 1.367 . S
C775 C777 1.433 . S
C776 C772 1.350 . S
C776 C773 1.463 . S
C776 N780 1.427 . S
C777 H767 0.929 . S
C777 C775 1.433 . S
C777 N780 1.384 . S
C778 H769 0.929 . S
C778 C770 1.378 . S
C778 C773 1.350 . S
C779 H766 0.929 . S
C779 C771 1.433 . S
C779 N781 1.384 . S
N780 C776 1.427 . S
N780 C777 1.384 . S
N781 C773 1.427 . S
N781 C779 1.384 . S
H782 C788 0.930 . S
H783 C792 0.930 . S
H784 C797 0.929 . S
H785 C795 0.929 . S
H786 C790 0.929 . S
H787 C796 0.929 . S
C788 H782 0.930 . S
C788 C789 1.367 . S
C788 C796 1.378 . S
C789 C788 1.367 . S
C789 C797 1.433 . S
C790 H786 0.929 . S
C790 C792 1.378 . S
C790 C794 1.350 . S
C791 C794 1.463 . S
C791 C796 1.350 . S
C791 N799 1.427 . S
C792 H783 0.930 . S
C792 C790 1.378 . S
C792 C793 1.367 . S
C793 C792 1.367 . S
C793 C795 1.433 . S
C794 C790 1.350 . S
C794 C791 1.463 . S
C794 N798 1.427 . S
C795 H785 0.929 . S
C795 C793 1.433 . S
C795 N798 1.384 . S
C796 H787 0.929 . S
C796 C788 1.378 . S
C796 C791 1.350 . S
C797 H784 0.929 . S
C797 C789 1.433 . S
C797 N799 1.384 . S
N798 C794 1.427 . S
N798 C795 1.384 . S
N799 C791 1.427 . S
N799 C797 1.384 . S
C231 C8 1.096 . S
C235 C64 1.096 . S
C249 C78 1.091 . S
C253 C22 1.097 . S
C267 C36 1.095 . S
C271 C92 1.091 . S
C285 C50 1.098 . S
C289 C106 1.093 . S
C303 C120 1.091 . S
C307 C176 1.097 . S
C321 C190 1.095 . S
C325 C134 1.097 . S
C339 C148 1.097 . S
C343 C204 1.095 . S
C357 C162 1.096 . S
C361 C218 1.091 . S
C375 C7 1.437 1_556 S
C379 C219 1.455 . S
C393 C177 1.446 . S
C397 C21 1.443 . S
C411 C35 1.428 1_556 S
C415 C191 1.452 . S
C429 C205 1.455 . S
C433 C49 1.429 . S
C447 C135 1.445 . S
C451 C63 1.442 1_554 S
C465 C149 1.456 . S
C469 C77 1.429 . S
C483 C163 1.445 . S
C487 C91 1.435 1_554 S
C501 C121 1.454 . S
C505 C105 1.428 . S
C519 C119 1.441 1_554 S
C523 C107 1.452 . S
C537 C65 1.450 . S
C541 C133 1.429 . S
C555 C79 1.451 . S
C559 C147 1.429 1_554 S
C573 C161 1.437 . S
C577 C93 1.444 . S
C591 C23 1.445 . S
C595 C175 1.443 1_556 S
C609 C189 1.442 . S
C613 C37 1.451 . S
C627 C203 1.443 1_556 S
C631 C51 1.445 . S
C645 C217 1.431 . S
C649 C9 1.456 . S
C663 C101 1.109 . S
C667 C3 1.121 . S
C681 C17 1.109 . S
C685 C59 1.120 . S
C699 C31 1.122 . S
C703 C73 1.109 . S
C717 C45 1.122 . S
C721 C87 1.110 . S
C735 C213 1.122 . S
C739 C115 1.111 . S
C753 C171 1.109 . S
C757 C129 1.120 . S
C771 C185 1.121 . S
C775 C143 1.109 . S
C789 C199 1.122 . S
C793 C157 1.112 . S
