# Generated by pormake.
# Topology xfw, (5)-cn, num edge types: 1
# Building blocks:
#     Node 0, Type 0, BuildingBlock: XOMCOT_clean_sbu_1, # of connection points: 5
#     Node 1, Type 0, BuildingBlock: XOMCOT_clean_sbu_1, # of connection points: 5
#     Node 2, Type 0, BuildingBlock: XOMCOT_clean_sbu_1, # of connection points: 5
#     Node 3, Type 0, BuildingBlock: XOMCOT_clean_sbu_1, # of connection points: 5
#     Node 4, Type 0, BuildingBlock: XOMCOT_clean_sbu_1, # of connection points: 5
#     Node 5, Type 0, BuildingBlock: XOMCOT_clean_sbu_1, # of connection points: 5
#     Node 6, Type 0, BuildingBlock: XOMCOT_clean_sbu_1, # of connection points: 5
#     Node 7, Type 0, BuildingBlock: XOMCOT_clean_sbu_1, # of connection points: 5
#     Edge 8, Type (0, 0), BuildingBlock: TEMPAE_clean_linker_10, # of connection points: 2
#     Edge 9, Type (0, 0), BuildingBlock: TEMPAE_clean_linker_10, # of connection points: 2
#     Edge 10, Type (0, 0), BuildingBlock: TEMPAE_clean_linker_10, # of connection points: 2
#     Edge 11, Type (0, 0), BuildingBlock: TEMPAE_clean_linker_10, # of connection points: 2
#     Edge 12, Type (0, 0), BuildingBlock: TEMPAE_clean_linker_10, # of connection points: 2
#     Edge 13, Type (0, 0), BuildingBlock: TEMPAE_clean_linker_10, # of connection points: 2
#     Edge 14, Type (0, 0), BuildingBlock: TEMPAE_clean_linker_10, # of connection points: 2
#     Edge 15, Type (0, 0), BuildingBlock: TEMPAE_clean_linker_10, # of connection points: 2
#     Edge 16, Type (0, 0), BuildingBlock: TEMPAE_clean_linker_10, # of connection points: 2
#     Edge 17, Type (0, 0), BuildingBlock: TEMPAE_clean_linker_10, # of connection points: 2
#     Edge 18, Type (0, 0), BuildingBlock: TEMPAE_clean_linker_10, # of connection points: 2
#     Edge 19, Type (0, 0), BuildingBlock: TEMPAE_clean_linker_10, # of connection points: 2
#     Edge 20, Type (0, 0), BuildingBlock: TEMPAE_clean_linker_10, # of connection points: 2
#     Edge 21, Type (0, 0), BuildingBlock: TEMPAE_clean_linker_10, # of connection points: 2
#     Edge 22, Type (0, 0), BuildingBlock: TEMPAE_clean_linker_10, # of connection points: 2
#     Edge 23, Type (0, 0), BuildingBlock: TEMPAE_clean_linker_10, # of connection points: 2
#     Edge 24, Type (0, 0), BuildingBlock: TEMPAE_clean_linker_10, # of connection points: 2
#     Edge 25, Type (0, 0), BuildingBlock: TEMPAE_clean_linker_10, # of connection points: 2
#     Edge 26, Type (0, 0), BuildingBlock: TEMPAE_clean_linker_10, # of connection points: 2
#     Edge 27, Type (0, 0), BuildingBlock: TEMPAE_clean_linker_10, # of connection points: 2
# Relax obj value: 0.596
# Max RMSD: 0.301
# Mean RMSD: 0.301
data_MOF--net-xfw--node1-XOMCOT_clean_sbu_1--edge1-TEMPAE_clean_linker_10
_symmetry_space_group_name_H-M    P1
_symmetry_Int_Tables_number       1
_symmetry_cell_setting            triclinic
loop_
_symmetry_equiv_pos_as_xyz
'x, y, z'
_cell_length_a     26.92152
_cell_length_b     26.900956
_cell_length_c     60.348868
_cell_angle_alpha  90.005513
_cell_angle_beta   90.049017
_cell_angle_gamma 90.048505
loop_
_atom_site_label
_atom_site_type_symbol
_atom_site_fract_x
_atom_site_fract_y
_atom_site_fract_z
_atom_type_partial_charge
C0 C 0.28802 0.03087 0.59714 0.0
C1 C 0.30095 0.99521 0.58193 0.0
N2 N 0.26509 0.96028 0.58166 0.0
N3 N 0.24438 0.0184 0.60651 0.0
C4 C 0.23139 0.97503 0.59687 0.0
H5 H 0.30832 0.06465 0.60065 0.0
Co6 Co 0.21296 0.05801 0.62722 0.0
C7 C 0.13713 0.99401 0.64799 0.0
O8 O 0.15673 1.00289 0.66755 0.0
N9 N 0.18236 0.09923 0.64809 0.0
C10 C 0.12635 0.14076 0.6679 0.0
C11 C 0.13366 0.11103 0.64961 0.0
C12 C 0.20391 0.12329 0.66518 0.0
N13 N 0.17079 0.14847 0.67749 0.0
O14 O 0.25139 0.02527 0.64956 0.0
H15 H 0.1051 0.09797 0.63841 0.0
H16 H 0.24288 0.12137 0.66917 0.0
O17 O 0.15862 0.01065 0.63067 0.0
C18 C 0.29458 0.04332 0.65286 0.0
O19 O 0.30567 0.08657 0.64404 0.0
N20 N 0.17865 0.09001 0.60437 0.0
C21 C 0.14233 0.13643 0.56656 0.0
C22 C 0.12968 0.08715 0.57125 0.0
C23 C 0.14819 0.06457 0.59023 0.0
C24 C 0.19036 0.13852 0.60041 0.0
C25 C 0.172 0.16282 0.58161 0.0
H26 H 0.13988 0.02583 0.59279 0.0
H27 H 0.21543 0.15784 0.61148 0.0
H28 H 0.1972 0.9554 0.60037 0.0
H29 H 0.3327 0.9965 0.57095 0.0
H30 H 0.09125 0.15526 0.67378 0.0
H31 H 0.10671 0.06577 0.55998 0.0
H32 H 0.18269 0.20094 0.57834 0.0
C33 C 0.059 0.66032 0.4053 0.0
C34 C 0.01923 0.66182 0.41949 0.0
N35 N 0.00422 0.70938 0.42119 0.0
N36 N 0.06875 0.70661 0.39799 0.0
C37 C 0.03465 0.73584 0.4079 0.0
H38 H 0.08024 0.62771 0.40084 0.0
Co39 Co 0.12101 0.71916 0.37922 0.0
C40 C 0.11423 0.82435 0.36484 0.0
O41 O 0.16281 0.82548 0.36699 0.0
N42 N 0.17453 0.72898 0.35974 0.0
C43 C 0.24701 0.73021 0.34196 0.0
C44 C 0.22403 0.72208 0.36204 0.0
C45 C 0.16852 0.74044 0.33814 0.0
N46 N 0.2118 0.74202 0.32706 0.0
O47 O 0.08565 0.68305 0.35654 0.0
H48 H 0.24269 0.71074 0.37701 0.0
H49 H 0.13258 0.74663 0.33057 0.0
O50 O 0.09081 0.78379 0.36929 0.0
C51 C 0.1034 0.64153 0.35005 0.0
O52 O 0.14819 0.62857 0.35645 0.0
N53 N 0.15494 0.74991 0.403 0.0
C54 C 0.20006 0.78173 0.44222 0.0
C55 C 0.16363 0.81064 0.43188 0.0
C56 C 0.14075 0.79362 0.41268 0.0
C57 C 0.18867 0.72015 0.41344 0.0
C58 C 0.21227 0.73558 0.43294 0.0
H59 H 0.10994 0.81493 0.40652 0.0
H60 H 0.1962 0.68346 0.40694 0.0
H61 H 0.03241 0.77568 0.40572 0.0
H62 H 0.00397 0.63075 0.42864 0.0
H63 H 0.28641 0.72757 0.3386 0.0
H64 H 0.15108 0.84523 0.43918 0.0
H65 H 0.23916 0.71142 0.44083 0.0
C66 C 0.64003 0.93433 0.58228 0.0
C67 C 0.64622 0.96935 0.56589 0.0
N68 N 0.695 0.97223 0.56108 0.0
N69 N 0.68475 0.91573 0.58789 0.0
C70 C 0.7175 0.93948 0.57469 0.0
H71 H 0.60503 0.92188 0.58908 0.0
Co72 Co 0.6963 0.86408 0.60752 0.0
C73 C 0.76935 0.94005 0.62505 0.0
O74 O 0.73905 0.97819 0.62376 0.0
N75 N 0.70796 0.81267 0.62726 0.0
C76 C 0.7224 0.74051 0.64406 0.0
C77 C 0.71151 0.76309 0.62407 0.0
C78 C 0.71609 0.81931 0.64905 0.0
N79 N 0.7245 0.77626 0.65961 0.0
O80 O 0.65365 0.89662 0.62868 0.0
H81 H 0.70711 0.74468 0.60826 0.0
H82 H 0.71668 0.85536 0.65704 0.0
O83 O 0.75462 0.89706 0.61918 0.0
C84 C 0.61401 0.87472 0.63494 0.0
O85 O 0.60563 0.82881 0.62851 0.0
N86 N 0.73502 0.83217 0.58613 0.0
C87 C 0.78824 0.79961 0.54945 0.0
C88 C 0.81242 0.80882 0.56965 0.0
C89 C 0.78501 0.82468 0.58791 0.0
C90 C 0.71037 0.81964 0.56721 0.0
C91 C 0.73634 0.80366 0.54856 0.0
H92 H 0.80431 0.83227 0.60321 0.0
H93 H 0.67055 0.82462 0.56628 0.0
H94 H 0.75699 0.93195 0.57471 0.0
H95 H 0.61692 0.98937 0.55745 0.0
H96 H 0.72807 0.70122 0.64699 0.0
H97 H 0.8524 0.80578 0.57113 0.0
H98 H 0.71609 0.79559 0.53347 0.0
C99 C 0.97083 0.30918 0.39803 0.0
C100 C 1.00267 0.30741 0.41584 0.0
N101 N 0.00611 0.2598 0.42249 0.0
N102 N 0.95497 0.2628 0.39335 0.0
C103 C 0.97725 0.23346 0.4085 0.0
H104 H 0.95774 0.34248 0.38989 0.0
Co105 Co 0.90573 0.24671 0.37318 0.0
C106 C 0.96744 0.1688 0.34939 0.0
O107 O 0.97684 0.19585 0.33178 0.0
N108 N 0.85539 0.2319 0.35299 0.0
C109 C 0.78006 0.22868 0.33798 0.0
C110 C 0.80627 0.23358 0.35739 0.0
C111 C 0.85813 0.22616 0.33081 0.0
N112 N 0.81283 0.2244 0.32125 0.0
O113 O 0.9402 0.2863 0.35143 0.0
H114 H 0.79041 0.24046 0.37356 0.0
H115 H 0.89245 0.22755 0.3216 0.0
O116 O 0.94194 0.18678 0.36526 0.0
C117 C 0.92046 0.32655 0.34453 0.0
O118 O 0.87393 0.33589 0.34957 0.0
N119 N 0.87207 0.21072 0.39518 0.0
C120 C 0.83117 0.1605 0.4311 0.0
C121 C 0.8422 0.13511 0.41143 0.0
C122 C 0.86248 0.16098 0.39357 0.0
C123 C 0.85875 0.23656 0.41367 0.0
C124 C 0.83882 0.21203 0.43198 0.0
H125 H 0.87095 0.14081 0.37856 0.0
H126 H 0.86532 0.2762 0.41448 0.0
H127 H 0.97017 0.19399 0.41003 0.0
H128 H 0.01913 0.33898 0.42422 0.0
H129 H 0.74007 0.22995 0.33625 0.0
H130 H 0.83648 0.09537 0.41004 0.0
H131 H 0.82973 0.2331 0.44673 0.0
C132 C 0.67244 0.07308 0.0772 0.0
C133 C 0.67417 0.03588 0.06166 0.0
N134 N 0.72191 0.02238 0.05909 0.0
N135 N 0.71879 0.0827 0.08449 0.0
C136 C 0.74823 0.05096 0.07325 0.0
H137 H 0.63964 0.09314 0.08236 0.0
Co138 Co 0.73125 0.13331 0.10428 0.0
C139 C 0.83249 0.12008 0.12281 0.0
O140 O 0.83599 0.16879 0.12223 0.0
N141 N 0.74053 0.18521 0.12473 0.0
C142 C 0.74606 0.25673 0.14317 0.0
C143 C 0.74053 0.23524 0.12255 0.0
C144 C 0.74519 0.17749 0.14673 0.0
N145 N 0.74869 0.22009 0.1583 0.0
O146 O 0.68989 0.09872 0.12533 0.0
H147 H 0.73613 0.25528 0.1072 0.0
H148 H 0.74696 0.14086 0.1541 0.0
O149 O 0.7924 0.09906 0.11581 0.0
C150 C 0.64822 0.11805 0.13055 0.0
O151 O 0.63791 0.16331 0.12381 0.0
N152 N 0.76782 0.16686 0.08198 0.0
C153 C 0.80954 0.21269 0.04489 0.0
C154 C 0.83537 0.17574 0.05632 0.0
C155 C 0.81349 0.15246 0.07439 0.0
C156 C 0.74127 0.20151 0.07045 0.0
C157 C 0.76155 0.22524 0.05186 0.0
H158 H 0.833 0.12128 0.08127 0.0
H159 H 0.70368 0.21007 0.07549 0.0
H160 H 0.78818 0.04949 0.07491 0.0
H161 H 0.64319 0.02193 0.05203 0.0
H162 H 0.747 0.29614 0.14676 0.0
H163 H 0.87161 0.16342 0.05077 0.0
H164 H 0.73998 0.25284 0.04303 0.0
C165 C 0.09298 0.36407 0.91088 0.0
C166 C 0.05166 0.36523 0.92413 0.0
N167 N 0.0279 0.32132 0.92222 0.0
N168 N 0.09548 0.3197 0.90066 0.0
C169 C 0.05523 0.29432 0.90777 0.0
H170 H 0.12001 0.3935 0.90891 0.0
Co171 Co 0.1466 0.30634 0.88136 0.0
C172 C 0.1366 0.20346 0.86521 0.0
O173 O 0.18496 0.201 0.86796 0.0
N174 N 0.19914 0.29586 0.86113 0.0
C175 C 0.26947 0.28241 0.8425 0.0
C176 C 0.24912 0.29164 0.86308 0.0
C177 C 0.19058 0.29036 0.83923 0.0
N178 N 0.23231 0.28231 0.82765 0.0
O179 O 0.11251 0.34612 0.85977 0.0
H180 H 0.26996 0.29382 0.8783 0.0
H181 H 0.15385 0.28994 0.83191 0.0
O182 O 0.11366 0.24396 0.87024 0.0
C183 C 0.13198 0.38759 0.85435 0.0
O184 O 0.17675 0.39858 0.86152 0.0
N185 N 0.17909 0.27143 0.90427 0.0
C186 C 0.22379 0.22941 0.94148 0.0
C187 C 0.18237 0.20702 0.9317 0.0
C188 C 0.15972 0.22931 0.91357 0.0
C189 C 0.2173 0.2956 0.91454 0.0
C190 C 0.2408 0.27487 0.93307 0.0
H191 H 0.12561 0.21313 0.90765 0.0
H192 H 0.22919 0.33152 0.90846 0.0
H193 H 0.04627 0.25687 0.90259 0.0
H194 H 0.04104 0.39543 0.93498 0.0
H195 H 0.30823 0.27587 0.83875 0.0
H196 H 0.16645 0.17331 0.93851 0.0
H197 H 0.2717 0.29412 0.94074 0.0
C198 C 0.32492 0.94233 0.08328 0.0
C199 C 0.33559 0.97977 0.06858 0.0
N200 N 0.2982 0.01303 0.06917 0.0
N201 N 0.28115 0.95196 0.09314 0.0
C202 C 0.26566 0.99527 0.08426 0.0
H203 H 0.34722 0.90965 0.08637 0.0
Co204 Co 0.25349 0.91068 0.11411 0.0
C205 C 0.17452 0.9684 0.13592 0.0
O206 O 0.19377 0.9571 0.15529 0.0
N207 N 0.22627 0.86757 0.13527 0.0
C208 C 0.17277 0.82143 0.15442 0.0
C209 C 0.17995 0.84812 0.13527 0.0
C210 C 0.24657 0.85158 0.15443 0.0
N211 N 0.21473 0.824 0.16651 0.0
O212 O 0.29099 0.94605 0.13604 0.0
H213 H 0.15226 0.85475 0.12262 0.0
H214 H 0.28353 0.86089 0.15988 0.0
O215 O 0.19671 0.95495 0.11822 0.0
C216 C 0.33497 0.93 0.13923 0.0
O217 O 0.34755 0.88676 0.13084 0.0
N218 N 0.22061 0.87637 0.09158 0.0
C219 C 0.18354 0.82446 0.05532 0.0
C220 C 0.16298 0.87021 0.06148 0.0
C221 C 0.18247 0.89597 0.07948 0.0
C222 C 0.24085 0.83168 0.086 0.0
C223 C 0.22293 0.80502 0.06778 0.0
H224 H 0.16771 0.93235 0.08303 0.0
H225 H 0.27188 0.81738 0.09544 0.0
H226 H 0.23106 0.01321 0.08858 0.0
H227 H 0.36738 0.98127 0.05763 0.0
H228 H 0.13847 0.80391 0.15957 0.0
H229 H 0.13336 0.88695 0.05187 0.0
H230 H 0.23992 0.76991 0.06336 0.0
C231 C 0.95288 0.70879 0.89642 0.0
C232 C 0.98511 0.69735 0.91329 0.0
N233 N 0.02052 0.73279 0.91413 0.0
N234 N 0.96778 0.75115 0.88661 0.0
C235 C 0.00943 0.76462 0.8975 0.0
H236 H 0.9192 0.68892 0.89228 0.0
Co237 Co 0.93075 0.78247 0.86497 0.0
C238 C 0.996 0.85818 0.84524 0.0
O239 O 0.9871 0.83928 0.82555 0.0
N240 N 0.89192 0.81299 0.84322 0.0
C241 C 0.85224 0.86908 0.8227 0.0
C242 C 0.8794 0.86156 0.84174 0.0
C243 C 0.87086 0.79169 0.82531 0.0
N244 N 0.8469 0.82491 0.81254 0.0
O245 O 0.96584 0.74401 0.84345 0.0
H246 H 0.89036 0.8899 0.85349 0.0
H247 H 0.87419 0.7529 0.8211 0.0
O248 O 0.97868 0.83665 0.86242 0.0
C249 C 0.94857 0.70067 0.83975 0.0
O250 O 0.90463 0.689 0.84766 0.0
N251 N 0.89647 0.81688 0.88702 0.0
C252 C 0.84631 0.85265 0.92383 0.0
C253 C 0.8957 0.86608 0.92006 0.0
C254 C 0.92017 0.84796 0.9015 0.0
C255 C 0.84792 0.80427 0.89016 0.0
C256 C 0.82172 0.82239 0.90846 0.0
H257 H 0.9589 0.85712 0.89955 0.0
H258 H 0.83005 0.77873 0.87882 0.0
H259 H 0.02989 0.79829 0.89396 0.0
H260 H 0.98061 0.66725 0.92501 0.0
H261 H 0.83791 0.90418 0.8167 0.0
H262 H 0.91558 0.88947 0.93171 0.0
H263 H 0.78348 0.81129 0.91107 0.0
C264 C 0.21253 0.91047 0.55675 0.0
C265 C 0.25959 0.92176 0.56531 0.0
C266 C 0.20733 0.87999 0.53807 0.0
C267 C 0.25027 0.86013 0.52782 0.0
C268 C 0.29753 0.86816 0.53744 0.0
C269 C 0.30165 0.89914 0.55605 0.0
C270 C 0.1562 0.87235 0.5283 0.0
C271 C 0.34404 0.84685 0.52724 0.0
C272 C 0.22321 0.76742 0.48195 0.0
C273 C 0.2217 0.79892 0.46345 0.0
C274 C 0.23539 0.78611 0.50301 0.0
C275 C 0.24595 0.83737 0.50549 0.0
C276 C 0.24761 0.86851 0.48659 0.0
C277 C 0.23566 0.84882 0.4658 0.0
C278 C 0.23394 0.75169 0.52274 0.0
C279 C 0.25898 0.92337 0.48847 0.0
H280 H 0.17995 0.92812 0.56372 0.0
H281 H 0.33798 0.90719 0.56291 0.0
H282 H 0.15332 0.89291 0.51241 0.0
H283 H 0.14974 0.83246 0.52467 0.0
H284 H 0.12636 0.88568 0.53953 0.0
H285 H 0.37632 0.8493 0.53867 0.0
H286 H 0.33833 0.80739 0.52253 0.0
H287 H 0.35316 0.86769 0.51191 0.0
H288 H 0.21222 0.72884 0.48021 0.0
H289 H 0.23528 0.87301 0.45143 0.0
H290 H 0.20003 0.75927 0.53261 0.0
H291 H 0.26642 0.75815 0.53371 0.0
H292 H 0.23344 0.71198 0.51768 0.0
H293 H 0.229 0.9421 0.49793 0.0
H294 H 0.26218 0.9416 0.47201 0.0
H295 H 0.29417 0.92921 0.49768 0.0
C296 C 0.85809 0.7557 0.53036 0.0
C297 C 0.81721 0.78782 0.52924 0.0
C298 C 0.88686 0.74573 0.51155 0.0
C299 C 0.87413 0.76805 0.49107 0.0
C300 C 0.83279 0.80033 0.48977 0.0
C301 C 0.80493 0.81002 0.50891 0.0
C302 C 0.93096 0.71134 0.5136 0.0
C303 C 0.81808 0.82467 0.46819 0.0
C304 C 0.97752 0.77164 0.44853 0.0
C305 C 0.9681 0.72801 0.43657 0.0
C306 C 0.9461 0.78631 0.46586 0.0
C307 C 0.90404 0.75689 0.47105 0.0
C308 C 0.89288 0.71438 0.45816 0.0
C309 C 0.92534 0.70023 0.44116 0.0
C310 C 0.9595 0.8316 0.4794 0.0
C311 C 0.84785 0.68263 0.46293 0.0
H312 H 0.86746 0.73809 0.54597 0.0
H313 H 0.77395 0.83567 0.50803 0.0
H314 H 0.9258 0.67857 0.50268 0.0
H315 H 0.96521 0.73068 0.5081 0.0
H316 H 0.93657 0.69805 0.53085 0.0
H317 H 0.78463 0.8485 0.46996 0.0
H318 H 0.8491 0.84787 0.46191 0.0
H319 H 0.81046 0.79582 0.4555 0.0
H320 H 0.01092 0.79279 0.44511 0.0
H321 H 0.91793 0.66679 0.4317 0.0
H322 H 0.97034 0.81992 0.49636 0.0
H323 H 0.92701 0.85665 0.48103 0.0
H324 H 0.99078 0.85284 0.472 0.0
H325 H 0.85246 0.66393 0.47918 0.0
H326 H 0.84189 0.6537 0.45005 0.0
H327 H 0.81407 0.7061 0.46399 0.0
C328 C 0.69765 0.04661 0.53735 0.0
C329 C 0.71752 1.00054 0.54353 0.0
C330 C 0.71767 0.07359 0.5196 0.0
C331 C 0.75837 0.05379 0.50768 0.0
C332 C 0.7791 0.00759 0.51403 0.0
C333 C 0.75847 0.98156 0.53194 0.0
C334 C 0.69473 0.12285 0.51336 0.0
C335 C 0.82225 0.98507 0.5016 0.0
C336 C 0.77496 0.09751 0.44841 0.0
C337 C 0.81256 0.13319 0.45072 0.0
C338 C 0.75726 0.07113 0.46682 0.0
C339 C 0.77785 0.08058 0.488 0.0
C340 C 0.81618 0.11624 0.49041 0.0
C341 C 0.83297 0.14228 0.47172 0.0
C342 C 0.71623 0.03347 0.46362 0.0
C343 C 0.83936 0.12693 0.5127 0.0
H344 H 0.66636 0.06154 0.54645 0.0
H345 H 0.77345 0.94559 0.53645 0.0
H346 H 0.72344 0.15245 0.51347 0.0
H347 H 0.67956 0.1208 0.49628 0.0
H348 H 0.6643 0.1338 0.52478 0.0
H349 H 0.83522 0.94976 0.5092 0.0
H350 H 0.81122 0.97748 0.48421 0.0
H351 H 0.85378 0.01163 0.5011 0.0
H352 H 0.75889 0.09071 0.43221 0.0
H353 H 0.86258 0.16934 0.47347 0.0
H354 H 0.68326 0.04436 0.47351 0.0
H355 H 0.72843 0.9965 0.46968 0.0
H356 H 0.7049 0.02989 0.44599 0.0
H357 H 0.81063 0.14082 0.52431 0.0
H358 H 0.86963 0.15494 0.51163 0.0
H359 H 0.85472 0.09224 0.51988 0.0
C360 C 0.13736 0.13353 0.5255 0.0
C361 C 0.12676 0.15852 0.5453 0.0
C362 C 0.12006 0.15156 0.50516 0.0
C363 C 0.09085 0.19524 0.50472 0.0
C364 C 0.08097 0.22128 0.52465 0.0
C365 C 0.0995 0.20276 0.54477 0.0
C366 C 0.13207 0.12324 0.48423 0.0
C367 C 0.04945 0.26766 0.52479 0.0
C368 C 0.07379 0.2618 0.44983 0.0
C369 C 0.02813 0.24258 0.44274 0.0
C370 C 0.09483 0.24667 0.46999 0.0
C371 C 0.06895 0.21227 0.48348 0.0
C372 C 0.02255 0.19307 0.47645 0.0
C373 C 1.00288 0.20821 0.45604 0.0
C374 C 0.1448 0.26716 0.47678 0.0
C375 C 0.99346 0.15692 0.49054 0.0
H376 H 0.15896 0.09953 0.52599 0.0
H377 H 0.09125 0.22181 0.56016 0.0
H378 H 0.09738 0.1083 0.47684 0.0
H379 H 0.14908 0.14846 0.47182 0.0
H380 H 0.15787 0.09176 0.4873 0.0
H381 H 0.04688 0.28457 0.54154 0.0
H382 H 0.06494 0.29563 0.51318 0.0
H383 H 0.01139 0.25859 0.51897 0.0
H384 H 0.09315 0.28832 0.43943 0.0
H385 H 0.96705 0.19419 0.45073 0.0
H386 H 0.17163 0.23626 0.47901 0.0
H387 H 0.1417 0.28657 0.49294 0.0
H388 H 0.16006 0.29356 0.46437 0.0
H389 H 0.01573 0.12289 0.49352 0.0
H390 H 0.9577 0.14595 0.48273 0.0
H391 H 0.98552 0.17377 0.50694 0.0
C392 C 0.8414 0.85349 0.96482 0.0
C393 C 0.82205 0.86883 0.9444 0.0
C394 C 0.8233 0.87333 0.98468 0.0
C395 C 0.78583 0.91013 0.98392 0.0
C396 C 0.76494 0.92437 0.9633 0.0
C397 C 0.78313 0.9031 0.9437 0.0
C398 C 0.84575 0.85651 0.00635 0.0
C399 C 0.72539 0.964 0.96186 0.0
C400 C 0.71504 0.94831 0.03545 0.0
C401 C 0.74089 0.99124 0.04178 0.0
C402 C 0.73015 0.92044 0.01702 0.0
C403 C 0.77141 0.93669 0.00445 0.0
C404 C 0.79828 0.97947 0.01107 0.0
C405 C 0.78291 0.006 0.02982 0.0
C406 C 0.7014 0.87434 0.01073 0.0
C407 C 0.84212 0.99833 -0.0021 0.0
H408 H 0.87156 0.82678 0.96516 0.0
H409 H 0.76868 0.915 0.92779 0.0
H410 H 0.86778 0.88725 0.01369 0.0
H411 H 0.81609 0.84685 0.01836 0.0
H412 H 0.87047 0.82381 0.00422 0.0
H413 H 0.71097 0.9686 0.94473 0.0
H414 H 0.6939 0.95483 0.97297 0.0
H415 H 0.74094 1.00008 0.96748 0.0
H416 H 0.68268 0.93696 0.04485 0.0
H417 H 0.80236 0.03966 0.03453 0.0
H418 H 0.72699 0.84227 0.00896 0.0
H419 H 0.68308 0.87995 -0.00555 0.0
H420 H 0.67249 0.86482 0.02316 0.0
H421 H 0.8708 0.96892 -0.00348 0.0
H422 H 0.85936 0.03179 0.0055 0.0
H423 H 0.83006 0.00783 0.98083 0.0
C424 C 0.88117 0.25453 0.02692 0.0
C425 C 0.83283 0.23569 0.02524 0.0
C426 C 0.90723 0.26988 0.00808 0.0
C427 C 0.88449 0.26591 0.98698 0.0
C428 C 0.83489 0.24871 0.98525 0.0
C429 C 0.80946 0.2339 0.0045 0.0
C430 C 0.95983 0.28866 0.0107 0.0
C431 C 0.80955 0.24382 0.96305 0.0
C432 C 0.95212 0.34067 0.94339 0.0
C433 C 0.98591 0.30547 0.93522 0.0
C434 C 0.91627 0.32759 0.95918 0.0
C435 C 0.91401 0.27802 0.9669 0.0
C436 C 0.94531 0.24146 0.9574 0.0
C437 C 0.98098 0.25565 0.94167 0.0
C438 C 0.88331 0.36758 0.96874 0.0
C439 C 0.94366 0.18803 0.96504 0.0
H440 H 0.89904 0.25604 0.04302 0.0
H441 H 0.77223 0.21877 0.00323 0.0
H442 H 0.98591 0.26306 0.00221 0.0
H443 H 0.96377 0.32572 0.00282 0.0
H444 H 0.9711 0.29173 0.02836 0.0
H445 H 0.7694 0.23503 0.96473 0.0
H446 H 0.81359 0.27861 0.95335 0.0
H447 H 0.82751 0.21368 0.9534 0.0
H448 H 0.95494 0.37899 0.93803 0.0
H449 H 0.00692 0.22824 0.93547 0.0
H450 H 0.89554 0.37622 0.98588 0.0
H451 H 0.84424 0.35463 0.96967 0.0
H452 H 0.88465 0.40237 0.95884 0.0
H453 H 0.95933 0.18537 0.98201 0.0
H454 H 0.96531 0.16313 0.95398 0.0
H455 H 0.90476 0.17451 0.96576 0.0
C456 C 0.25774 0.15488 0.96037 0.0
C457 C 0.24666 0.20569 0.96105 0.0
C458 C 0.27116 0.12917 0.9796 0.0
C459 C 0.27342 0.15497 2e-05 0.0
C460 C 0.26527 0.20696 0.00059 0.0
C461 C 0.25198 0.23186 0.98099 0.0
C462 C 0.28007 0.0738 0.97823 0.0
C463 C 0.26761 0.23569 0.02204 0.0
C464 C 0.24412 0.06926 0.04781 0.0
C465 C 0.2918 0.05481 0.05454 0.0
C466 C 0.23757 0.10471 0.03105 0.0
C467 C 0.27975 0.12614 0.02079 0.0
C468 C 0.32787 0.1144 0.02861 0.0
C469 C 0.33331 0.07881 0.04542 0.0
C470 C 0.18556 0.11646 0.02325 0.0
C471 C 0.37369 0.13695 0.01828 0.0
H472 H 0.25405 0.13486 0.94486 0.0
H473 H 0.24309 0.27114 0.9815 0.0
H474 H 0.31594 0.06408 0.98617 0.0
H475 H 0.25034 0.05381 0.98733 0.0
H476 H 0.28055 0.06015 0.96085 0.0
H477 H 0.26802 0.27649 0.0192 0.0
H478 H 0.23471 0.22641 0.0323 0.0
H479 H 0.3011 0.22526 0.03169 0.0
H480 H 0.21188 0.05081 0.05469 0.0
H481 H 0.3702 0.0686 0.05095 0.0
H482 H 0.17964 0.10026 0.00654 0.0
H483 H 0.18027 0.15722 0.02185 0.0
H484 H 0.1568 0.10128 0.03459 0.0
H485 H 0.37955 0.12055 0.00162 0.0
H486 H 0.40747 0.13008 0.02842 0.0
H487 H 0.36905 0.17762 0.01607 0.0
C488 C 0.07077 0.70001 0.94508 0.0
C489 C 0.05541 0.74028 0.93197 0.0
C490 C 0.0975 0.7076 0.96476 0.0
C491 C 0.10958 0.75661 0.97131 0.0
C492 C 0.09752 0.79708 0.95732 0.0
C493 C 0.07041 0.78846 0.93788 0.0
C494 C 0.10994 0.6635 0.97919 0.0
C495 C 0.1103 0.84993 0.96361 0.0
C496 C 0.11435 0.79345 0.03169 0.0
C497 C 0.16545 0.7994 0.03508 0.0
C498 C 0.09588 0.77688 0.01129 0.0
C499 C 0.12942 0.76652 -0.00617 0.0
C500 C 0.18124 0.76998 -0.00248 0.0
C501 C 0.19872 0.78626 0.01822 0.0
C502 C 0.04034 0.77298 0.00811 0.0
C503 C 0.21805 0.75944 0.97927 0.0
H504 H 0.06034 0.66258 0.94037 0.0
H505 H 0.05864 0.81995 0.92804 0.0
H506 H 0.14904 0.66548 0.98493 0.0
H507 H 0.08596 0.66395 -0.00586 0.0
H508 H 0.10415 0.62766 0.97041 0.0
H509 H 0.10356 0.8764 0.9498 0.0
H510 H 0.08736 0.86148 0.97799 0.0
H511 H 0.14982 0.8527 0.96868 0.0
H512 H 0.08873 0.80322 0.04484 0.0
H513 H 0.23826 0.79128 0.02081 0.0
H514 H 0.03045 0.73618 0.00107 0.0
H515 H 0.02779 0.80169 -0.00385 0.0
H516 H 0.01967 0.77818 0.02386 0.0
H517 H 0.20887 0.72406 0.97076 0.0
H518 H 0.25675 0.75731 0.9856 0.0
H519 H 0.21613 0.78949 0.9667 0.0
C520 C 0.55981 0.94923 0.63687 0.0
C521 C 0.57311 0.90265 0.64529 0.0
C522 C 0.5139 0.97072 0.64227 0.0
C523 C 0.4817 0.94601 0.65727 0.0
C524 C 0.49738 0.90133 0.66749 0.0
C525 C 0.54241 0.87948 0.66093 0.0
C526 C 0.49823 0.01775 0.63052 0.0
C527 C 0.46549 0.87524 0.68444 0.0
C528 C 0.37276 0.02744 0.67361 0.0
C529 C 0.33614 0.01066 0.65891 0.0
C530 C 0.41913 1.00362 0.67485 0.0
C531 C 0.4298 0.9641 0.66009 0.0
C532 C 0.39184 0.94554 0.64602 0.0
C533 C 0.34505 0.96842 0.646 0.0
C534 C 0.45758 0.02287 0.6909 0.0
C535 C 0.40188 0.90459 0.62949 0.0
H536 H 0.58346 0.96699 0.62468 0.0
H537 H 0.55294 0.8435 0.66754 0.0
H538 H 0.46508 0.0101 0.6201 0.0
H539 H 0.48764 0.04665 0.64272 0.0
H540 H 0.52806 0.03292 0.61975 0.0
H541 H 0.48698 0.84722 0.69398 0.0
H542 H 0.44912 0.90242 0.69618 0.0
H543 H 0.43441 0.8559 0.67599 0.0
H544 H 0.36587 0.06048 0.68344 0.0
H545 H 0.31696 0.95611 0.63433 0.0
H546 H 0.48434 0.04701 0.682 0.0
H547 H 0.47882 0.99175 0.69839 0.0
H548 H 0.44036 0.04511 0.70437 0.0
H549 H 0.43021 0.91728 0.61739 0.0
H550 H 0.36794 0.89349 0.62023 0.0
H551 H 0.41704 0.87138 0.63799 0.0
C552 C 0.08738 0.57067 0.32443 0.0
C553 C 0.07056 0.60238 0.34124 0.0
C554 C 0.0622 0.52615 0.31958 0.0
C555 C 0.02114 0.51177 0.33278 0.0
C556 C 1.00277 0.54496 0.34911 0.0
C557 C 0.02704 0.59045 0.35274 0.0
C558 C 0.08132 0.4934 0.30118 0.0
C559 C 0.96009 0.53071 0.36406 0.0
C560 C 0.93142 0.40509 0.32304 0.0
C561 C 0.9518 0.36812 0.33666 0.0
C562 C 0.95606 0.45062 0.31983 0.0
C563 C 1.00072 0.46026 0.33148 0.0
C564 C 0.0229 0.4218 0.34415 0.0
C565 C 0.99879 0.3757 0.34606 0.0
C566 C 0.93278 0.48933 0.30502 0.0
C567 C 0.06983 0.43064 0.35732 0.0
H568 H 0.1212 0.5799 0.31559 0.0
H569 H 0.01442 0.61469 0.36592 0.0
H570 H 0.1048 0.46351 0.30826 0.0
H571 H 0.05018 0.4755 0.29211 0.0
H572 H 0.10424 0.51479 0.28921 0.0
H573 H 0.94994 0.561 0.37573 0.0
H574 H 0.9269 0.52103 0.35408 0.0
H575 H 0.97029 0.4973 0.37385 0.0
H576 H 0.89526 0.39912 0.31556 0.0
H577 H 0.01478 0.34717 0.35654 0.0
H578 H 0.96159 0.5089 0.29517 0.0
H579 H 0.91348 0.51749 0.3153 0.0
H580 H 0.90518 0.47264 0.29352 0.0
H581 H 0.09997 0.44396 0.34632 0.0
H582 H 0.0828 0.39658 0.36597 0.0
H583 H 0.06314 0.46001 0.36989 0.0
C584 C 0.59784 0.04072 0.12962 0.0
C585 C 0.60735 0.08715 0.13919 0.0
C586 C 0.55249 0.01625 0.13329 0.0
C587 C 0.51674 0.03785 0.14761 0.0
C588 C 0.52819 0.08267 0.15882 0.0
C589 C 0.57291 0.10745 0.15405 0.0
C590 C 0.54139 0.96927 0.12049 0.0
C591 C 0.49222 0.10574 0.17498 0.0
C592 C 0.38303 0.00704 0.13306 0.0
C593 C 0.3751 0.96417 0.1457 0.0
C594 C 0.42842 0.03262 0.13415 0.0
C595 C 0.46589 0.01601 0.14894 0.0
C596 C 0.45608 0.97533 0.16319 0.0
C597 C 0.41123 0.94899 0.16096 0.0
C598 C 0.43769 0.07477 0.11814 0.0
C599 C 0.49397 0.95787 0.17989 0.0
H600 H 0.62418 0.02538 0.11789 0.0
H601 H 0.58034 0.14345 0.16143 0.0
H602 H 0.53067 0.93894 0.13196 0.0
H603 H 0.5095 0.97574 0.10919 0.0
H604 H 0.57361 0.95665 0.11048 0.0
H605 H 0.51019 0.13499 0.18523 0.0
H606 H 0.46094 0.12289 0.16579 0.0
H607 H 0.47638 0.07698 0.18612 0.0
H608 H 0.35541 0.01806 0.12093 0.0
H609 H 0.40512 0.91547 0.17057 0.0
H610 H 0.46808 0.06441 0.10661 0.0
H611 H 0.44978 0.10854 0.12718 0.0
H612 H 0.40419 0.08405 0.1082 0.0
H613 H 0.52399 0.93732 0.17129 0.0
H614 H 0.47721 0.93278 0.19246 0.0
H615 H 0.51126 0.98999 0.1885 0.0
C616 C 0.05582 0.43909 0.85444 0.0
C617 C 0.10156 0.42753 0.84476 0.0
C618 C 0.03186 0.48409 0.84959 0.0
C619 C 0.05336 0.51728 0.83405 0.0
C620 C 0.09738 0.50353 0.82279 0.0
C621 C 0.12169 0.45928 0.82871 0.0
C622 C 0.98572 0.49778 0.86244 0.0
C623 C 0.1202 0.53668 0.80539 0.0
C624 C 0.96557 0.62235 0.81925 0.0
C625 C 0.982 0.65977 0.83362 0.0
C626 C 0.99125 0.57704 0.81763 0.0
C627 C 0.03261 0.56829 0.83161 0.0
C628 C 0.05068 0.6071 0.84534 0.0
C629 C 0.02563 0.65278 0.84584 0.0
C630 C 0.97224 0.53756 0.80201 0.0
C631 C 0.09372 0.59903 0.86101 0.0
H632 H 0.04078 0.4148 0.86712 0.0
H633 H 0.1572 0.45018 0.82127 0.0
H634 H 0.99332 0.53104 0.8728 0.0
H635 H 0.9551 0.5075 0.85095 0.0
H636 H 0.97296 0.46719 0.87342 0.0
H637 H 0.14822 0.51657 0.79529 0.0
H638 H 0.09114 0.55177 0.7942 0.0
H639 H 0.13881 0.56867 0.81349 0.0
H640 H 0.93154 0.6278 0.80993 0.0
H641 H 0.03764 0.68143 0.85731 0.0
H642 H 0.95137 0.50909 0.8115 0.0
H643 H 0.00354 0.51853 0.79359 0.0
H644 H 0.947 0.55338 0.78926 0.0
H645 H 0.08346 0.57055 0.8735 0.0
H646 H 0.1045 0.63363 0.86985 0.0
H647 H 0.1265 0.58488 0.85188 0.0
C648 C 0.05348 0.97805 0.66496 0.0
C649 C 0.08453 0.97732 0.64627 0.0
C650 C 1.00194 0.97041 0.66299 0.0
C651 C 0.98082 0.96157 0.64184 0.0
C652 C 0.01226 0.95858 0.62307 0.0
C653 C 0.06361 0.96645 0.62551 0.0
C654 C 0.96984 0.97372 0.68344 0.0
C655 C 0.99145 0.94864 0.60025 0.0
C656 C 0.85158 0.90506 0.63662 0.0
C657 C 0.82242 0.94669 0.63129 0.0
C658 C 0.90286 0.90945 0.6405 0.0
C659 C 0.92579 0.95672 0.63919 0.0
C660 C 0.8963 0.99918 0.6346 0.0
C661 C 0.84497 0.99368 0.63074 0.0
C662 C 0.93269 0.86325 0.64546 0.0
C663 C 0.91923 0.05031 0.6332 0.0
H664 H 0.06908 0.98666 0.68107 0.0
H665 H 0.08725 0.96529 0.611 0.0
H666 H 0.94461 0.00616 0.68205 0.0
H667 H 0.94621 0.94009 0.68495 0.0
H668 H 0.99218 0.97774 0.69883 0.0
H669 H 0.02103 0.94528 0.58751 0.0
H670 H 0.96924 0.91388 0.60033 0.0
H671 H 0.96615 0.97931 0.59538 0.0
H672 H 0.83439 0.86868 0.63753 0.0
H673 H 0.82282 0.02603 0.62665 0.0
H674 H 0.95373 0.86801 0.66113 0.0
H675 H 0.96023 0.857 0.63208 0.0
H676 H 0.90894 0.82961 0.6469 0.0
H677 H 0.94 0.05872 0.64864 0.0
H678 H 0.891 0.07981 0.63052 0.0
H679 H 0.94626 0.05152 0.61933 0.0
C680 C 0.11614 0.91636 0.35957 0.0
C681 C 0.08807 0.87233 0.36073 0.0
C682 C 0.09355 0.96296 0.35714 0.0
C683 C 0.04127 0.96617 0.3554 0.0
C684 C 0.01251 0.92191 0.35598 0.0
C685 C 0.03621 0.87547 0.35882 0.0
C686 C 0.12581 0.00898 0.35695 0.0
C687 C 0.95672 0.92371 0.3538 0.0
C688 C 0.98737 0.09212 0.3713 0.0
C689 C 0.98452 0.11629 0.35071 0.0
C690 C 0.00414 0.04276 0.37299 0.0
C691 C 0.01745 0.01629 0.35358 0.0
C692 C 0.01288 0.03989 0.33266 0.0
C693 C 0.99705 0.08973 0.3315 0.0
C694 C 0.00949 0.01965 0.39567 0.0
C695 C 0.02576 0.01282 0.31153 0.0
H696 H 0.15623 0.91477 0.36101 0.0
H697 H 0.01417 0.84179 0.35967 0.0
H698 H 0.12021 0.02986 0.3413 0.0
H699 H 0.11508 0.03396 0.37077 0.0
H700 H 0.16595 1.00014 0.35859 0.0
H701 H 0.93989 0.886 0.35331 0.0
H702 H 0.94063 0.94442 0.36797 0.0
H703 H 0.94622 0.94396 0.33848 0.0
H704 H 0.97764 0.11225 0.38624 0.0
H705 H 0.99423 0.10781 0.3155 0.0
H706 H 0.0493 0.01221 0.39909 0.0
H707 H 0.98976 0.98348 0.39631 0.0
H708 H 0.99474 0.044 0.409 0.0
H709 H 0.06632 0.00574 0.31095 0.0
H710 H 0.01513 0.03431 0.29654 0.0
H711 H 0.00684 0.97617 0.31103 0.0
C712 C 0.1053 0.00975 0.11493 0.0
C713 C 0.12322 0.98861 0.13462 0.0
C714 C 0.05613 0.02713 0.11332 0.0
C715 C 0.02368 0.02249 0.13171 0.0
C716 C 0.0413 1.00016 0.15146 0.0
C717 C 0.09088 0.98398 0.15275 0.0
C718 C 0.03925 0.05157 0.09209 0.0
C719 C 0.00788 0.99382 0.17134 0.0
C720 C 0.91984 0.11728 0.1363 0.0
C721 C 0.87885 0.09176 0.1274 0.0
C722 C 0.96667 0.09492 0.13799 0.0
C723 C 0.97299 0.04518 0.13099 0.0
C724 C 0.93134 0.0182 0.12294 0.0
C725 C 0.88471 0.0419 0.12112 0.0
C726 C 0.00985 0.12532 0.14657 0.0
C727 C 0.93639 0.96478 0.1157 0.0
H728 H 0.12996 0.01329 0.10082 0.0
H729 H 0.10406 0.9669 0.16792 0.0
H730 H 0.00538 0.03292 0.08571 0.0
H731 H 0.02942 0.09095 0.09537 0.0
H732 H 0.06828 0.05055 0.07903 0.0
H733 H 0.02591 0.97213 0.18479 0.0
H734 H 0.99744 0.03079 0.17801 0.0
H735 H 0.97301 0.97472 0.16643 0.0
H736 H 0.9158 0.15569 0.14142 0.0
H737 H 0.85339 0.02192 0.11416 0.0
H738 H 0.0388 0.12838 0.13356 0.0
H739 H 0.02704 0.10665 0.16105 0.0
H740 H 0.99858 0.1634 0.15159 0.0
H741 H 0.96074 0.96263 0.10091 0.0
H742 H 0.89994 0.94777 0.11153 0.0
H743 H 0.95422 0.9425 0.12897 0.0
C744 C 0.03312 0.92751 0.86766 0.0
C745 C 0.01583 0.90955 0.84723 0.0
C746 C 0.0489 0.9771 0.87005 0.0
C747 C 0.04654 0.0099 0.85168 0.0
C748 C 0.02835 0.99215 0.83113 0.0
C749 C 0.01368 0.94217 0.8291 0.0
C750 C 0.06901 0.99413 0.89215 0.0
C751 C 0.02462 0.02593 0.81121 0.0
C752 C 0.05983 0.1491 0.86371 0.0
C753 C 0.11046 0.15655 0.85938 0.0
C754 C 0.0379 0.10183 0.86073 0.0
C755 C 0.06744 0.06127 0.85345 0.0
C756 C 0.11804 0.06927 0.84834 0.0
C757 C 0.13865 0.11665 0.85117 0.0
C758 C 0.98356 0.09494 0.86595 0.0
C759 C 0.1511 0.02731 0.84062 0.0
H760 H 0.03468 0.90264 0.88177 0.0
H761 H 0.9995 0.92894 0.81335 0.0
H762 H 0.10845 0.00541 0.89031 0.0
H763 H 0.0482 0.02716 0.89802 0.0
H764 H 0.06669 0.96465 0.905 0.0
H765 H 0.00628 0.0075 0.7969 0.0
H766 H 1.0034 0.05992 0.81552 0.0
H767 H 0.06228 0.03799 0.80604 0.0
H768 H 0.03782 0.17962 0.8701 0.0
H769 H 0.1777 0.12202 0.84749 0.0
H770 H 0.97946 0.07001 0.88048 0.0
H771 H 0.96431 0.07689 0.85181 0.0
H772 H 0.96481 0.13074 0.86969 0.0
H773 H 0.15282 0.99804 0.85355 0.0
H774 H 0.18954 0.03994 0.83698 0.0
H775 H 0.13552 0.00998 0.82546 0.0
C776 C 0.22464 0.20211 0.70007 0.0
C777 C 0.18114 0.1739 0.69787 0.0
C778 C 0.23737 0.22399 0.72038 0.0
C779 C 0.20628 0.21645 0.73896 0.0
C780 C 0.16197 0.18841 0.73674 0.0
C781 C 0.14967 0.16788 0.71611 0.0
C782 C 0.28424 0.25463 0.72202 0.0
C783 C 0.12823 0.17898 0.75629 0.0
C784 C 0.2562 0.22616 0.79752 0.0
C785 C 0.234 0.27036 0.80457 0.0
C786 C 0.24914 0.20893 0.7758 0.0
C787 C 0.22002 0.2373 0.76087 0.0
C788 C 0.20049 0.28372 0.76757 0.0
C789 C 0.20722 0.29938 0.78949 0.0
C790 C 0.26994 0.1589 0.76933 0.0
C791 C 0.17024 0.31555 0.752 0.0
H792 H 0.24868 0.20692 0.68584 0.0
H793 H 0.11643 0.14546 0.71439 0.0
H794 H 0.27552 0.29214 0.72861 0.0
H795 H 0.31048 0.23694 0.7338 0.0
H796 H 0.30307 0.25882 0.70576 0.0
H797 H 0.09536 0.15612 0.75177 0.0
H798 H 0.14908 0.15955 0.76958 0.0
H799 H 0.11506 0.21478 0.76325 0.0
H800 H 0.27623 0.20362 0.80942 0.0
H801 H 0.19019 0.33359 0.79516 0.0
H802 H 0.29074 0.1617 0.75353 0.0
H803 H 0.23896 0.13232 0.76665 0.0
H804 H 0.29502 0.14347 0.78224 0.0
H805 H 0.18958 0.31969 0.73588 0.0
H806 H 0.16302 0.35311 0.75894 0.0
H807 H 0.13402 0.2973 0.74868 0.0
C808 C 0.19508 0.76617 0.19695 0.0
C809 C 0.22156 0.80728 0.18896 0.0
C810 C 0.19779 0.75246 0.21933 0.0
C811 C 0.22767 0.78065 0.234 0.0
C812 C 0.25619 0.82082 0.22585 0.0
C813 C 0.25271 0.83372 0.20343 0.0
C814 C 0.16701 0.70922 0.22746 0.0
C815 C 0.28835 0.85185 0.24102 0.0
C816 C 0.18548 0.78672 0.29364 0.0
C817 C 0.21785 0.75318 0.30395 0.0
C818 C 0.18861 0.79617 0.27091 0.0
C819 C 0.22511 0.77143 0.25817 0.0
C820 C 0.2586 0.73818 0.26852 0.0
C821 C 0.25465 0.72953 0.29139 0.0
C822 C 0.15253 0.83232 0.2605 0.0
C823 C 0.29796 0.71125 0.25539 0.0
H824 H 0.17158 0.74522 0.18575 0.0
H825 H 0.27277 0.86597 0.19751 0.0
H826 H 0.19033 0.68322 0.23723 0.0
H827 H 0.13729 0.72304 0.2386 0.0
H828 H 0.14941 0.68836 0.21363 0.0
H829 H 0.31216 0.87834 0.23171 0.0
H830 H 0.26443 0.87338 0.2525 0.0
H831 H 0.31251 0.82767 0.25129 0.0
H832 H 0.15763 0.80572 0.30343 0.0
H833 H 0.27942 0.7033 0.29934 0.0
H834 H 0.13018 0.81314 0.24762 0.0
H835 H 0.17312 0.86282 0.2522 0.0
H836 H 0.12679 0.84887 0.27284 0.0
H837 H 0.28015 0.68739 0.24266 0.0
H838 H 0.32194 0.68762 0.26604 0.0
H839 H 0.32176 0.73841 0.24651 0.0
C840 C 0.79813 0.77084 0.78795 0.0
C841 C 0.82457 0.81505 0.79141 0.0
C842 C 0.77861 0.75921 0.76705 0.0
C843 C 0.78665 0.79226 0.74919 0.0
C844 C 0.81326 0.83707 0.75263 0.0
C845 C 0.8315 0.84815 0.77381 0.0
C846 C 0.7495 0.71168 0.76406 0.0
C847 C 0.82315 0.87293 0.73387 0.0
C848 C 0.78007 0.74947 0.68945 0.0
C849 C 0.73574 0.77174 0.68266 0.0
C850 C 0.79637 0.75401 0.71145 0.0
C851 C 0.7669 0.78063 0.72686 0.0
C852 C 0.72036 0.8001 0.72031 0.0
C853 C 0.70564 0.79591 0.69816 0.0
C854 C 0.84653 0.73338 0.71779 0.0
C855 C 0.68742 0.82779 0.73635 0.0
H856 H 0.79259 0.74552 0.80169 0.0
H857 H 0.85261 0.88193 0.77649 0.0
H858 H 0.7118 0.7202 0.75767 0.0
H859 H 0.76798 0.68766 0.75162 0.0
H860 H 0.7458 0.69049 0.77978 0.0
H861 H 0.84542 0.90556 0.73925 0.0
H862 H 0.84334 0.8537 0.72033 0.0
H863 H 0.78751 0.88644 0.72688 0.0
H864 H 0.80338 0.73145 0.67722 0.0
H865 H 0.67132 0.813 0.69265 0.0
H866 H 0.84374 0.71101 0.73317 0.0
H867 H 0.8725 0.76452 0.72118 0.0
H868 H 0.86264 0.70982 0.70449 0.0
H869 H 0.68308 0.80637 0.75194 0.0
H870 H 0.65 0.83518 0.72931 0.0
H871 H 0.70485 0.86389 0.74068 0.0
C872 C 0.83457 0.20157 0.28295 0.0
C873 C 0.80223 0.22482 0.29788 0.0
C874 C 0.82538 0.20269 0.26009 0.0
C875 C 0.78288 0.2278 0.25201 0.0
C876 C 0.75019 0.25155 0.26697 0.0
C877 C 0.76024 0.24971 0.28975 0.0
C878 C 0.86087 0.1766 0.2446 0.0
C879 C 0.70462 0.27886 0.25892 0.0
C880 C 0.78203 0.26343 0.19113 0.0
C881 C 0.75452 0.22432 0.18191 0.0
C882 C 0.79096 0.26557 0.21404 0.0
C883 C 0.77178 0.22773 0.22793 0.0
C884 C 0.74282 0.18896 0.21877 0.0
C885 C 0.73446 0.18783 0.19588 0.0
C886 C 0.82188 0.30757 0.2233 0.0
C887 C 0.72145 0.14813 0.23307 0.0
H888 H 0.86681 0.18197 0.2892 0.0
H889 H 0.73563 0.26855 0.30117 0.0
H890 H 0.84101 0.14684 0.23544 0.0
H891 H 0.87536 0.20321 0.23213 0.0
H892 H 0.8928 0.15974 0.25352 0.0
H893 H 0.68344 0.29612 0.27271 0.0
H894 H 0.7155 0.3084 0.24705 0.0
H895 H 0.67971 0.25284 0.24995 0.0
H896 H 0.79784 0.29148 0.18036 0.0
H897 H 0.71226 0.15813 0.18887 0.0
H898 H 0.8565 0.29249 0.23067 0.0
H899 H 0.80136 0.3268 0.23673 0.0
H900 H 0.83205 0.33529 0.21042 0.0
H901 H 0.75196 0.12743 0.24129 0.0
H902 H 0.69866 0.12137 0.22339 0.0
H903 H 0.69798 0.16432 0.24633 0.0
loop_
_geom_bond_atom_site_label_1
_geom_bond_atom_site_label_2
_geom_bond_distance
_geom_bond_site_symmetry_2
_ccdc_geom_bond_type
C0 C1 1.351 . S
C0 N3 1.368 . S
C0 H5 0.931 . S
C1 C0 1.351 . S
C1 N2 1.373 . S
C1 H29 0.930 . S
N2 C1 1.373 . S
N2 C4 1.340 . S
N3 C0 1.368 . S
N3 C4 1.321 . S
N3 Co6 2.135 . S
C4 N2 1.340 . S
C4 N3 1.321 . S
C4 H28 0.930 . S
H5 C0 0.931 . S
Co6 N3 2.135 . S
Co6 N9 2.121 . S
Co6 O14 2.055 . S
Co6 O17 2.039 . S
Co6 N20 2.140 . S
C7 O8 1.227 . S
C7 O17 1.265 . S
O8 C7 1.227 . S
N9 Co6 2.121 . S
N9 C11 1.375 . S
N9 C12 1.313 . S
C10 C11 1.338 . S
C10 N13 1.377 . S
C10 H30 0.930 . S
C11 N9 1.375 . S
C11 C10 1.338 . S
C11 H15 0.931 . S
C12 N9 1.313 . S
C12 N13 1.344 . S
C12 H16 0.930 . S
N13 C10 1.377 . S
N13 C12 1.344 . S
O14 Co6 2.055 . S
O14 C18 1.253 . S
H15 C11 0.931 . S
H16 C12 0.930 . S
O17 Co6 2.039 . S
O17 C7 1.265 . S
C18 O14 1.253 . S
C18 O19 1.227 . S
O19 C18 1.227 . S
N20 Co6 2.140 . S
N20 C23 1.346 . S
N20 C24 1.345 . S
C21 C22 1.387 . S
C21 C25 1.391 . S
C22 C21 1.387 . S
C22 C23 1.369 . S
C22 H31 0.929 . S
C23 N20 1.346 . S
C23 C22 1.369 . S
C23 H26 0.928 . S
C24 N20 1.345 . S
C24 C25 1.371 . S
C24 H27 0.931 . S
C25 C21 1.391 . S
C25 C24 1.371 . S
C25 H32 0.930 . S
H26 C23 0.928 . S
H27 C24 0.931 . S
H28 C4 0.930 . S
H29 C1 0.930 . S
H30 C10 0.930 . S
H31 C22 0.929 . S
H32 C25 0.930 . S
C33 C34 1.351 . S
C33 N36 1.368 . S
C33 H38 0.931 . S
C34 C33 1.351 . S
C34 N35 1.373 . S
C34 H62 0.930 . S
N35 C34 1.373 . S
N35 C37 1.340 . S
N36 C33 1.368 . S
N36 C37 1.321 . S
N36 Co39 2.135 . S
C37 N35 1.340 . S
C37 N36 1.321 . S
C37 H61 0.930 . S
H38 C33 0.931 . S
Co39 N36 2.135 . S
Co39 N42 2.121 . S
Co39 O47 2.055 . S
Co39 O50 2.039 . S
Co39 N53 2.140 . S
C40 O41 1.227 . S
C40 O50 1.265 . S
O41 C40 1.227 . S
N42 Co39 2.121 . S
N42 C44 1.375 . S
N42 C45 1.313 . S
C43 C44 1.338 . S
C43 N46 1.377 . S
C43 H63 0.930 . S
C44 N42 1.375 . S
C44 C43 1.338 . S
C44 H48 0.931 . S
C45 N42 1.313 . S
C45 N46 1.344 . S
C45 H49 0.930 . S
N46 C43 1.377 . S
N46 C45 1.344 . S
O47 Co39 2.055 . S
O47 C51 1.253 . S
H48 C44 0.931 . S
H49 C45 0.930 . S
O50 Co39 2.039 . S
O50 C40 1.265 . S
C51 O47 1.253 . S
C51 O52 1.227 . S
O52 C51 1.227 . S
N53 Co39 2.140 . S
N53 C56 1.346 . S
N53 C57 1.345 . S
C54 C55 1.387 . S
C54 C58 1.391 . S
C55 C54 1.387 . S
C55 C56 1.369 . S
C55 H64 0.929 . S
C56 N53 1.346 . S
C56 C55 1.369 . S
C56 H59 0.928 . S
C57 N53 1.345 . S
C57 C58 1.371 . S
C57 H60 0.931 . S
C58 C54 1.391 . S
C58 C57 1.371 . S
C58 H65 0.930 . S
H59 C56 0.928 . S
H60 C57 0.931 . S
H61 C37 0.930 . S
H62 C34 0.930 . S
H63 C43 0.930 . S
H64 C55 0.929 . S
H65 C58 0.930 . S
C66 C67 1.351 . S
C66 N69 1.368 . S
C66 H71 0.931 . S
C67 C66 1.351 . S
C67 N68 1.373 . S
C67 H95 0.930 . S
N68 C67 1.373 . S
N68 C70 1.340 . S
N69 C66 1.368 . S
N69 C70 1.321 . S
N69 Co72 2.135 . S
C70 N68 1.340 . S
C70 N69 1.321 . S
C70 H94 0.930 . S
H71 C66 0.931 . S
Co72 N69 2.135 . S
Co72 N75 2.121 . S
Co72 O80 2.055 . S
Co72 O83 2.039 . S
Co72 N86 2.140 . S
C73 O74 1.227 . S
C73 O83 1.265 . S
O74 C73 1.227 . S
N75 Co72 2.121 . S
N75 C77 1.375 . S
N75 C78 1.313 . S
C76 C77 1.338 . S
C76 N79 1.377 . S
C76 H96 0.930 . S
C77 N75 1.375 . S
C77 C76 1.338 . S
C77 H81 0.931 . S
C78 N75 1.313 . S
C78 N79 1.344 . S
C78 H82 0.930 . S
N79 C76 1.377 . S
N79 C78 1.344 . S
O80 Co72 2.055 . S
O80 C84 1.253 . S
H81 C77 0.931 . S
H82 C78 0.930 . S
O83 Co72 2.039 . S
O83 C73 1.265 . S
C84 O80 1.253 . S
C84 O85 1.227 . S
O85 C84 1.227 . S
N86 Co72 2.140 . S
N86 C89 1.346 . S
N86 C90 1.345 . S
C87 C88 1.387 . S
C87 C91 1.391 . S
C88 C87 1.387 . S
C88 C89 1.369 . S
C88 H97 0.929 . S
C89 N86 1.346 . S
C89 C88 1.369 . S
C89 H92 0.928 . S
C90 N86 1.345 . S
C90 C91 1.371 . S
C90 H93 0.931 . S
C91 C87 1.391 . S
C91 C90 1.371 . S
C91 H98 0.930 . S
H92 C89 0.928 . S
H93 C90 0.931 . S
H94 C70 0.930 . S
H95 C67 0.930 . S
H96 C76 0.930 . S
H97 C88 0.929 . S
H98 C91 0.930 . S
C99 C100 1.351 . S
C99 N102 1.368 . S
C99 H104 0.931 . S
C100 C99 1.351 . S
C100 N101 1.373 . S
C100 H128 0.930 . S
N101 C100 1.373 . S
N101 C103 1.340 . S
N102 C99 1.368 . S
N102 C103 1.321 . S
N102 Co105 2.135 . S
C103 N101 1.340 . S
C103 N102 1.321 . S
C103 H127 0.930 . S
H104 C99 0.931 . S
Co105 N102 2.135 . S
Co105 N108 2.121 . S
Co105 O113 2.055 . S
Co105 O116 2.039 . S
Co105 N119 2.140 . S
C106 O107 1.227 . S
C106 O116 1.265 . S
O107 C106 1.227 . S
N108 Co105 2.121 . S
N108 C110 1.375 . S
N108 C111 1.313 . S
C109 C110 1.338 . S
C109 N112 1.377 . S
C109 H129 0.930 . S
C110 N108 1.375 . S
C110 C109 1.338 . S
C110 H114 0.931 . S
C111 N108 1.313 . S
C111 N112 1.344 . S
C111 H115 0.930 . S
N112 C109 1.377 . S
N112 C111 1.344 . S
O113 Co105 2.055 . S
O113 C117 1.253 . S
H114 C110 0.931 . S
H115 C111 0.930 . S
O116 Co105 2.039 . S
O116 C106 1.265 . S
C117 O113 1.253 . S
C117 O118 1.227 . S
O118 C117 1.227 . S
N119 Co105 2.140 . S
N119 C122 1.346 . S
N119 C123 1.345 . S
C120 C121 1.387 . S
C120 C124 1.391 . S
C121 C120 1.387 . S
C121 C122 1.369 . S
C121 H130 0.929 . S
C122 N119 1.346 . S
C122 C121 1.369 . S
C122 H125 0.928 . S
C123 N119 1.345 . S
C123 C124 1.371 . S
C123 H126 0.931 . S
C124 C120 1.391 . S
C124 C123 1.371 . S
C124 H131 0.930 . S
H125 C122 0.928 . S
H126 C123 0.931 . S
H127 C103 0.930 . S
H128 C100 0.930 . S
H129 C109 0.930 . S
H130 C121 0.929 . S
H131 C124 0.930 . S
C132 C133 1.351 . S
C132 N135 1.368 . S
C132 H137 0.931 . S
C133 C132 1.351 . S
C133 N134 1.373 . S
C133 H161 0.930 . S
N134 C133 1.373 . S
N134 C136 1.340 . S
N135 C132 1.368 . S
N135 C136 1.321 . S
N135 Co138 2.135 . S
C136 N134 1.340 . S
C136 N135 1.321 . S
C136 H160 0.930 . S
H137 C132 0.931 . S
Co138 N135 2.135 . S
Co138 N141 2.121 . S
Co138 O146 2.055 . S
Co138 O149 2.039 . S
Co138 N152 2.140 . S
C139 O140 1.227 . S
C139 O149 1.265 . S
O140 C139 1.227 . S
N141 Co138 2.121 . S
N141 C143 1.375 . S
N141 C144 1.313 . S
C142 C143 1.338 . S
C142 N145 1.377 . S
C142 H162 0.930 . S
C143 N141 1.375 . S
C143 C142 1.338 . S
C143 H147 0.931 . S
C144 N141 1.313 . S
C144 N145 1.344 . S
C144 H148 0.930 . S
N145 C142 1.377 . S
N145 C144 1.344 . S
O146 Co138 2.055 . S
O146 C150 1.253 . S
H147 C143 0.931 . S
H148 C144 0.930 . S
O149 Co138 2.039 . S
O149 C139 1.265 . S
C150 O146 1.253 . S
C150 O151 1.227 . S
O151 C150 1.227 . S
N152 Co138 2.140 . S
N152 C155 1.346 . S
N152 C156 1.345 . S
C153 C154 1.387 . S
C153 C157 1.391 . S
C154 C153 1.387 . S
C154 C155 1.369 . S
C154 H163 0.929 . S
C155 N152 1.346 . S
C155 C154 1.369 . S
C155 H158 0.928 . S
C156 N152 1.345 . S
C156 C157 1.371 . S
C156 H159 0.931 . S
C157 C153 1.391 . S
C157 C156 1.371 . S
C157 H164 0.930 . S
H158 C155 0.928 . S
H159 C156 0.931 . S
H160 C136 0.930 . S
H161 C133 0.930 . S
H162 C142 0.930 . S
H163 C154 0.929 . S
H164 C157 0.930 . S
C165 C166 1.351 . S
C165 N168 1.368 . S
C165 H170 0.931 . S
C166 C165 1.351 . S
C166 N167 1.373 . S
C166 H194 0.930 . S
N167 C166 1.373 . S
N167 C169 1.340 . S
N168 C165 1.368 . S
N168 C169 1.321 . S
N168 Co171 2.135 . S
C169 N167 1.340 . S
C169 N168 1.321 . S
C169 H193 0.930 . S
H170 C165 0.931 . S
Co171 N168 2.135 . S
Co171 N174 2.121 . S
Co171 O179 2.055 . S
Co171 O182 2.039 . S
Co171 N185 2.140 . S
C172 O173 1.227 . S
C172 O182 1.265 . S
O173 C172 1.227 . S
N174 Co171 2.121 . S
N174 C176 1.375 . S
N174 C177 1.313 . S
C175 C176 1.338 . S
C175 N178 1.377 . S
C175 H195 0.930 . S
C176 N174 1.375 . S
C176 C175 1.338 . S
C176 H180 0.931 . S
C177 N174 1.313 . S
C177 N178 1.344 . S
C177 H181 0.930 . S
N178 C175 1.377 . S
N178 C177 1.344 . S
O179 Co171 2.055 . S
O179 C183 1.253 . S
H180 C176 0.931 . S
H181 C177 0.930 . S
O182 Co171 2.039 . S
O182 C172 1.265 . S
C183 O179 1.253 . S
C183 O184 1.227 . S
O184 C183 1.227 . S
N185 Co171 2.140 . S
N185 C188 1.346 . S
N185 C189 1.345 . S
C186 C187 1.387 . S
C186 C190 1.391 . S
C187 C186 1.387 . S
C187 C188 1.369 . S
C187 H196 0.929 . S
C188 N185 1.346 . S
C188 C187 1.369 . S
C188 H191 0.928 . S
C189 N185 1.345 . S
C189 C190 1.371 . S
C189 H192 0.931 . S
C190 C186 1.391 . S
C190 C189 1.371 . S
C190 H197 0.930 . S
H191 C188 0.928 . S
H192 C189 0.931 . S
H193 C169 0.930 . S
H194 C166 0.930 . S
H195 C175 0.930 . S
H196 C187 0.929 . S
H197 C190 0.930 . S
C198 C199 1.351 . S
C198 N201 1.368 . S
C198 H203 0.931 . S
C199 C198 1.351 . S
C199 N200 1.373 . S
C199 H227 0.930 . S
N200 C199 1.373 . S
N200 C202 1.340 . S
N201 C198 1.368 . S
N201 C202 1.321 . S
N201 Co204 2.135 . S
C202 N200 1.340 . S
C202 N201 1.321 . S
C202 H226 0.930 . S
H203 C198 0.931 . S
Co204 N201 2.135 . S
Co204 N207 2.121 . S
Co204 O212 2.055 . S
Co204 O215 2.039 . S
Co204 N218 2.140 . S
C205 O206 1.227 . S
C205 O215 1.265 . S
O206 C205 1.227 . S
N207 Co204 2.121 . S
N207 C209 1.375 . S
N207 C210 1.313 . S
C208 C209 1.338 . S
C208 N211 1.377 . S
C208 H228 0.930 . S
C209 N207 1.375 . S
C209 C208 1.338 . S
C209 H213 0.931 . S
C210 N207 1.313 . S
C210 N211 1.344 . S
C210 H214 0.930 . S
N211 C208 1.377 . S
N211 C210 1.344 . S
O212 Co204 2.055 . S
O212 C216 1.253 . S
H213 C209 0.931 . S
H214 C210 0.930 . S
O215 Co204 2.039 . S
O215 C205 1.265 . S
C216 O212 1.253 . S
C216 O217 1.227 . S
O217 C216 1.227 . S
N218 Co204 2.140 . S
N218 C221 1.346 . S
N218 C222 1.345 . S
C219 C220 1.387 . S
C219 C223 1.391 . S
C220 C219 1.387 . S
C220 C221 1.369 . S
C220 H229 0.929 . S
C221 N218 1.346 . S
C221 C220 1.369 . S
C221 H224 0.928 . S
C222 N218 1.345 . S
C222 C223 1.371 . S
C222 H225 0.931 . S
C223 C219 1.391 . S
C223 C222 1.371 . S
C223 H230 0.930 . S
H224 C221 0.928 . S
H225 C222 0.931 . S
H226 C202 0.930 . S
H227 C199 0.930 . S
H228 C208 0.930 . S
H229 C220 0.929 . S
H230 C223 0.930 . S
C231 C232 1.351 . S
C231 N234 1.368 . S
C231 H236 0.931 . S
C232 C231 1.351 . S
C232 N233 1.373 . S
C232 H260 0.930 . S
N233 C232 1.373 . S
N233 C235 1.340 . S
N234 C231 1.368 . S
N234 C235 1.321 . S
N234 Co237 2.135 . S
C235 N233 1.340 . S
C235 N234 1.321 . S
C235 H259 0.930 . S
H236 C231 0.931 . S
Co237 N234 2.135 . S
Co237 N240 2.121 . S
Co237 O245 2.055 . S
Co237 O248 2.039 . S
Co237 N251 2.140 . S
C238 O239 1.227 . S
C238 O248 1.265 . S
O239 C238 1.227 . S
N240 Co237 2.121 . S
N240 C242 1.375 . S
N240 C243 1.313 . S
C241 C242 1.338 . S
C241 N244 1.377 . S
C241 H261 0.930 . S
C242 N240 1.375 . S
C242 C241 1.338 . S
C242 H246 0.931 . S
C243 N240 1.313 . S
C243 N244 1.344 . S
C243 H247 0.930 . S
N244 C241 1.377 . S
N244 C243 1.344 . S
O245 Co237 2.055 . S
O245 C249 1.253 . S
H246 C242 0.931 . S
H247 C243 0.930 . S
O248 Co237 2.039 . S
O248 C238 1.265 . S
C249 O245 1.253 . S
C249 O250 1.227 . S
O250 C249 1.227 . S
N251 Co237 2.140 . S
N251 C254 1.346 . S
N251 C255 1.345 . S
C252 C253 1.387 . S
C252 C256 1.391 . S
C253 C252 1.387 . S
C253 C254 1.369 . S
C253 H262 0.929 . S
C254 N251 1.346 . S
C254 C253 1.369 . S
C254 H257 0.928 . S
C255 N251 1.345 . S
C255 C256 1.371 . S
C255 H258 0.931 . S
C256 C252 1.391 . S
C256 C255 1.371 . S
C256 H263 0.930 . S
H257 C254 0.928 . S
H258 C255 0.931 . S
H259 C235 0.930 . S
H260 C232 0.930 . S
H261 C241 0.930 . S
H262 C253 0.929 . S
H263 C256 0.930 . S
C264 C265 1.391 . S
C264 C266 1.394 . S
C264 H280 0.931 1_565 S
C265 C264 1.391 . S
C265 C269 1.376 . S
C266 C264 1.394 . S
C266 C267 1.369 . S
C266 C270 1.531 . S
C267 C266 1.369 . S
C267 C268 1.410 . S
C267 C275 1.503 . S
C268 C267 1.410 . S
C268 C269 1.392 . S
C268 C271 1.511 . S
C269 C265 1.376 . S
C269 C268 1.392 . S
C269 H281 0.929 . S
C270 C266 1.531 . S
C270 H282 0.960 . S
C270 H283 0.962 . S
C270 H284 0.960 . S
C271 C268 1.511 . S
C271 H285 0.961 . S
C271 H286 0.961 . S
C271 H287 0.961 . S
C272 C273 1.370 . S
C272 C274 1.363 . S
C272 H288 0.931 . S
C273 C272 1.370 . S
C273 C277 1.408 . S
C274 C272 1.363 . S
C274 C275 1.370 . S
C274 C278 1.524 . S
C275 C267 1.503 . S
C275 C274 1.370 . S
C275 C276 1.403 . S
C276 C275 1.403 . S
C276 C277 1.404 . S
C276 C279 1.539 . S
C277 C273 1.408 . S
C277 C276 1.404 . S
C277 H289 0.930 . S
C278 C274 1.524 . S
C278 H290 0.956 . S
C278 H291 0.961 . S
C278 H292 0.961 . S
C279 C276 1.539 . S
C279 H293 0.958 . S
C279 H294 0.961 . S
C279 H295 0.960 . S
H280 C264 0.931 1_545 S
H281 C269 0.929 . S
H282 C270 0.960 . S
H283 C270 0.962 . S
H284 C270 0.960 . S
H285 C271 0.961 . S
H286 C271 0.961 . S
H287 C271 0.961 . S
H288 C272 0.931 . S
H289 C277 0.930 . S
H290 C278 0.956 . S
H291 C278 0.961 . S
H292 C278 0.961 . S
H293 C279 0.958 . S
H294 C279 0.961 . S
H295 C279 0.960 . S
C296 C297 1.391 . S
C296 C298 1.394 . S
C296 H312 0.931 . S
C297 C296 1.391 . S
C297 C301 1.376 . S
C298 C296 1.394 . S
C298 C299 1.369 . S
C298 C302 1.531 . S
C299 C298 1.369 . S
C299 C300 1.410 . S
C299 C307 1.503 . S
C300 C299 1.410 . S
C300 C301 1.392 . S
C300 C303 1.511 . S
C301 C297 1.376 . S
C301 C300 1.392 . S
C301 H313 0.929 . S
C302 C298 1.531 . S
C302 H314 0.960 . S
C302 H315 0.962 . S
C302 H316 0.960 . S
C303 C300 1.511 . S
C303 H317 0.961 . S
C303 H318 0.961 . S
C303 H319 0.961 . S
C304 C305 1.370 . S
C304 C306 1.363 . S
C304 H320 0.931 1_655 S
C305 C304 1.370 . S
C305 C309 1.408 . S
C306 C304 1.363 . S
C306 C307 1.370 . S
C306 C310 1.524 . S
C307 C299 1.503 . S
C307 C306 1.370 . S
C307 C308 1.403 . S
C308 C307 1.403 . S
C308 C309 1.404 . S
C308 C311 1.539 . S
C309 C305 1.408 . S
C309 C308 1.404 . S
C309 H321 0.930 . S
C310 C306 1.524 . S
C310 H322 0.956 . S
C310 H323 0.961 . S
C310 H324 0.961 . S
C311 C308 1.539 . S
C311 H325 0.958 . S
C311 H326 0.961 . S
C311 H327 0.960 . S
H312 C296 0.931 . S
H313 C301 0.929 . S
H314 C302 0.960 . S
H315 C302 0.962 . S
H316 C302 0.960 . S
H317 C303 0.961 . S
H318 C303 0.961 . S
H319 C303 0.961 . S
H320 C304 0.931 1_455 S
H321 C309 0.930 . S
H322 C310 0.956 . S
H323 C310 0.961 . S
H324 C310 0.961 . S
H325 C311 0.958 . S
H326 C311 0.961 . S
H327 C311 0.960 . S
C328 C329 1.391 . S
C328 C330 1.394 . S
C328 H344 0.931 . S
C329 C328 1.391 . S
C329 C333 1.376 . S
C330 C328 1.394 . S
C330 C331 1.369 . S
C330 C334 1.531 . S
C331 C330 1.369 . S
C331 C332 1.410 . S
C331 C339 1.503 . S
C332 C331 1.410 . S
C332 C333 1.392 . S
C332 C335 1.511 . S
C333 C329 1.376 . S
C333 C332 1.392 . S
C333 H345 0.929 1_545 S
C334 C330 1.531 . S
C334 H346 0.960 . S
C334 H347 0.962 . S
C334 H348 0.960 . S
C335 C332 1.511 . S
C335 H349 0.961 . S
C335 H350 0.961 . S
C335 H351 0.961 . S
C336 C337 1.370 . S
C336 C338 1.363 . S
C336 H352 0.931 . S
C337 C336 1.370 . S
C337 C341 1.408 . S
C338 C336 1.363 . S
C338 C339 1.370 . S
C338 C342 1.524 . S
C339 C331 1.503 . S
C339 C338 1.370 . S
C339 C340 1.403 . S
C340 C339 1.403 . S
C340 C341 1.404 . S
C340 C343 1.539 . S
C341 C337 1.408 . S
C341 C340 1.404 . S
C341 H353 0.930 . S
C342 C338 1.524 . S
C342 H354 0.956 . S
C342 H355 0.961 . S
C342 H356 0.961 . S
C343 C340 1.539 . S
C343 H357 0.958 . S
C343 H358 0.961 . S
C343 H359 0.960 . S
H344 C328 0.931 . S
H345 C333 0.929 1_565 S
H346 C334 0.960 . S
H347 C334 0.962 . S
H348 C334 0.960 . S
H349 C335 0.961 . S
H350 C335 0.961 . S
H351 C335 0.961 . S
H352 C336 0.931 . S
H353 C341 0.930 . S
H354 C342 0.956 . S
H355 C342 0.961 . S
H356 C342 0.961 . S
H357 C343 0.958 . S
H358 C343 0.961 . S
H359 C343 0.960 . S
C360 C361 1.391 . S
C360 C362 1.394 . S
C360 H376 0.931 . S
C361 C360 1.391 . S
C361 C365 1.376 . S
C362 C360 1.394 . S
C362 C363 1.369 . S
C362 C366 1.531 . S
C363 C362 1.369 . S
C363 C364 1.410 . S
C363 C371 1.503 . S
C364 C363 1.410 . S
C364 C365 1.392 . S
C364 C367 1.511 . S
C365 C361 1.376 . S
C365 C364 1.392 . S
C365 H377 0.929 . S
C366 C362 1.531 . S
C366 H378 0.960 . S
C366 H379 0.962 . S
C366 H380 0.960 . S
C367 C364 1.511 . S
C367 H381 0.961 . S
C367 H382 0.961 . S
C367 H383 0.961 . S
C368 C369 1.370 . S
C368 C370 1.363 . S
C368 H384 0.931 . S
C369 C368 1.370 . S
C369 C373 1.408 . S
C370 C368 1.363 . S
C370 C371 1.370 . S
C370 C374 1.524 . S
C371 C363 1.503 . S
C371 C370 1.370 . S
C371 C372 1.403 . S
C372 C371 1.403 . S
C372 C373 1.404 . S
C372 C375 1.539 . S
C373 C369 1.408 . S
C373 C372 1.404 . S
C373 H385 0.930 1_455 S
C374 C370 1.524 . S
C374 H386 0.956 . S
C374 H387 0.961 . S
C374 H388 0.961 . S
C375 C372 1.539 . S
C375 H389 0.958 . S
C375 H390 0.961 . S
C375 H391 0.960 . S
H376 C360 0.931 . S
H377 C365 0.929 . S
H378 C366 0.960 . S
H379 C366 0.962 . S
H380 C366 0.960 . S
H381 C367 0.961 . S
H382 C367 0.961 . S
H383 C367 0.961 . S
H384 C368 0.931 . S
H385 C373 0.930 1_655 S
H386 C374 0.956 . S
H387 C374 0.961 . S
H388 C374 0.961 . S
H389 C375 0.958 . S
H390 C375 0.961 . S
H391 C375 0.960 . S
C392 C393 1.391 . S
C392 C394 1.394 . S
C392 H408 0.931 . S
C393 C392 1.391 . S
C393 C397 1.376 . S
C394 C392 1.394 . S
C394 C395 1.369 . S
C394 C398 1.531 1_556 S
C395 C394 1.369 . S
C395 C396 1.410 . S
C395 C403 1.481 1_556 S
C396 C395 1.410 . S
C396 C397 1.392 . S
C396 C399 1.511 . S
C397 C393 1.376 . S
C397 C396 1.392 . S
C397 H409 0.929 . S
C398 C394 1.531 1_554 S
C398 H410 0.960 . S
C398 H411 0.962 . S
C398 H412 0.960 . S
C399 C396 1.511 . S
C399 H413 0.961 . S
C399 H414 0.961 . S
C399 H415 0.961 . S
C400 C401 1.370 . S
C400 C402 1.363 . S
C400 H416 0.931 . S
C401 C400 1.370 . S
C401 C405 1.408 . S
C402 C400 1.363 . S
C402 C403 1.379 . S
C402 C406 1.524 1_554 S
C403 C395 1.481 1_554 S
C403 C402 1.379 . S
C403 C404 1.418 . S
C404 C403 1.418 . S
C404 C405 1.404 . S
C404 C407 1.539 . S
C405 C401 1.408 . S
C405 C404 1.404 . S
C405 H417 0.930 . S
C406 C402 1.524 1_556 S
C406 H418 0.956 . S
C406 H419 0.961 . S
C406 H420 0.973 . S
C407 C404 1.539 . S
C407 H421 0.958 . S
C407 H422 0.961 . S
C407 H423 0.960 1_554 S
H408 C392 0.931 . S
H409 C397 0.929 . S
H410 C398 0.960 . S
H411 C398 0.962 . S
H412 C398 0.960 . S
H413 C399 0.961 . S
H414 C399 0.961 . S
H415 C399 0.961 . S
H416 C400 0.931 . S
H417 C405 0.930 . S
H418 C406 0.956 . S
H419 C406 0.961 . S
H420 C406 0.973 . S
H421 C407 0.958 . S
H422 C407 0.961 . S
H423 C407 0.960 1_556 S
C424 C425 1.391 . S
C424 C426 1.394 . S
C424 H440 0.931 . S
C425 C424 1.391 . S
C425 C429 1.376 . S
C426 C424 1.394 . S
C426 C427 1.369 . S
C426 C430 1.531 . S
C427 C426 1.369 . S
C427 C428 1.410 . S
C427 C435 1.503 1_554 S
C428 C427 1.410 . S
C428 C429 1.392 . S
C428 C431 1.511 1_554 S
C429 C425 1.376 . S
C429 C428 1.392 . S
C429 H441 0.929 . S
C430 C426 1.531 . S
C430 H442 0.960 . S
C430 H443 0.962 . S
C430 H444 0.960 . S
C431 C428 1.511 1_556 S
C431 H445 0.961 . S
C431 H446 0.961 . S
C431 H447 0.961 . S
C432 C433 1.370 . S
C432 C434 1.363 . S
C432 H448 0.931 1_655 S
C433 C432 1.370 . S
C433 C437 1.408 . S
C434 C432 1.363 . S
C434 C435 1.370 . S
C434 C438 1.524 1_556 S
C435 C427 1.503 1_556 S
C435 C434 1.370 . S
C435 C436 1.403 . S
C436 C435 1.403 . S
C436 C437 1.404 . S
C436 C439 1.539 . S
C437 C433 1.408 . S
C437 C436 1.404 . S
C437 H449 0.930 . S
C438 C434 1.524 1_554 S
C438 H450 0.956 . S
C438 H451 0.961 . S
C438 H452 0.961 . S
C439 C436 1.539 . S
C439 H453 0.958 . S
C439 H454 0.961 . S
C439 H455 0.960 . S
H440 C424 0.931 . S
H441 C429 0.929 . S
H442 C430 0.960 . S
H443 C430 0.962 . S
H444 C430 0.960 . S
H445 C431 0.961 . S
H446 C431 0.961 . S
H447 C431 0.961 . S
H448 C432 0.931 1_455 S
H449 C437 0.930 . S
H450 C438 0.956 . S
H451 C438 0.961 . S
H452 C438 0.961 . S
H453 C439 0.958 . S
H454 C439 0.961 . S
H455 C439 0.960 . S
C456 C457 1.391 . S
C456 C458 1.394 . S
C456 H472 0.931 . S
C457 C456 1.391 . S
C457 C461 1.376 . S
C458 C456 1.394 . S
C458 C459 1.369 . S
C458 C462 1.531 . S
C459 C458 1.369 . S
C459 C460 1.410 . S
C459 C467 1.503 . S
C460 C459 1.410 . S
C460 C461 1.392 . S
C460 C463 1.511 . S
C461 C457 1.376 . S
C461 C460 1.392 . S
C461 H473 0.929 . S
C462 C458 1.531 . S
C462 H474 0.960 . S
C462 H475 0.962 . S
C462 H476 0.960 . S
C463 C460 1.511 . S
C463 H477 0.961 . S
C463 H478 0.961 1_556 S
C463 H479 0.961 . S
C464 C465 1.370 . S
C464 C466 1.363 . S
C464 H480 0.931 . S
C465 C464 1.370 . S
C465 C469 1.408 1_545 S
C466 C464 1.363 . S
C466 C467 1.370 1_554 S
C466 C470 1.524 . S
C467 C459 1.503 . S
C467 C466 1.370 1_556 S
C467 C468 1.403 . S
C468 C467 1.403 . S
C468 C469 1.404 1_546 S
C468 C471 1.540 . S
C469 C465 1.408 1_565 S
C469 C468 1.404 1_564 S
C469 H481 0.930 . S
C470 C466 1.524 . S
C470 H482 0.956 . S
C470 H483 0.961 . S
C470 H484 0.961 . S
C471 C468 1.540 . S
C471 H485 0.958 1_545 S
C471 H486 0.960 1_545 S
C471 H487 0.960 . S
H472 C456 0.931 . S
H473 C461 0.929 . S
H474 C462 0.960 . S
H475 C462 0.962 . S
H476 C462 0.960 . S
H477 C463 0.961 . S
H478 C463 0.961 1_554 S
H479 C463 0.961 . S
H480 C464 0.931 . S
H481 C469 0.930 . S
H482 C470 0.956 . S
H483 C470 0.961 . S
H484 C470 0.961 . S
H485 C471 0.958 1_565 S
H486 C471 0.960 1_565 S
H487 C471 0.960 . S
C488 C489 1.391 . S
C488 C490 1.394 . S
C488 H504 0.931 . S
C489 C488 1.391 . S
C489 C493 1.376 . S
C490 C488 1.394 . S
C490 C491 1.369 . S
C490 C494 1.531 . S
C491 C490 1.369 . S
C491 C492 1.410 . S
C491 C499 1.503 1_556 S
C492 C491 1.410 . S
C492 C493 1.392 . S
C492 C495 1.511 . S
C493 C489 1.376 . S
C493 C492 1.392 . S
C493 H505 0.929 . S
C494 C490 1.531 . S
C494 H506 0.957 1_556 S
C494 H507 0.962 1_556 S
C494 H508 0.960 . S
C495 C492 1.511 . S
C495 H509 0.961 . S
C495 H510 0.961 1_556 S
C495 H511 0.961 . S
C496 C497 1.370 . S
C496 C498 1.363 . S
C496 H512 0.931 . S
C497 C496 1.370 . S
C497 C501 1.408 . S
C498 C496 1.363 . S
C498 C499 1.370 . S
C498 C502 1.524 . S
C499 C491 1.503 1_554 S
C499 C498 1.370 . S
C499 C500 1.403 . S
C500 C499 1.403 . S
C500 C501 1.404 . S
C500 C503 1.539 1_554 S
C501 C497 1.408 . S
C501 C500 1.404 . S
C501 H513 0.930 . S
C502 C498 1.524 . S
C502 H514 0.956 . S
C502 H515 0.961 . S
C502 H516 0.961 . S
C503 C500 1.539 1_556 S
C503 H517 0.958 . S
C503 H518 0.961 . S
C503 H519 0.960 . S
H504 C488 0.931 . S
H505 C493 0.929 . S
H506 C494 0.957 1_554 S
H507 C494 0.962 1_554 S
H508 C494 0.960 . S
H509 C495 0.961 . S
H510 C495 0.961 1_554 S
H511 C495 0.961 . S
H512 C496 0.931 . S
H513 C501 0.930 . S
H514 C502 0.956 . S
H515 C502 0.961 . S
H516 C502 0.961 . S
H517 C503 0.958 . S
H518 C503 0.961 . S
H519 C503 0.960 . S
C520 C521 1.391 . S
C520 C522 1.394 . S
C520 H536 0.931 . S
C521 C520 1.391 . S
C521 C525 1.376 . S
C522 C520 1.394 . S
C522 C523 1.369 . S
C522 C526 1.531 . S
C523 C522 1.369 . S
C523 C524 1.410 . S
C523 C531 1.503 1_565 S
C524 C523 1.410 . S
C524 C525 1.392 . S
C524 C527 1.511 . S
C525 C521 1.376 . S
C525 C524 1.392 . S
C525 H537 0.929 . S
C526 C522 1.531 . S
C526 H538 0.960 . S
C526 H539 0.962 . S
C526 H540 0.960 . S
C527 C524 1.511 . S
C527 H541 0.960 1_565 S
C527 H542 0.961 1_565 S
C527 H543 0.961 . S
C528 C529 1.370 . S
C528 C530 1.363 . S
C528 H544 0.931 . S
C529 C528 1.370 . S
C529 C533 1.408 . S
C530 C528 1.363 . S
C530 C531 1.370 . S
C530 C534 1.524 . S
C531 C523 1.503 1_545 S
C531 C530 1.370 . S
C531 C532 1.403 1_545 S
C532 C531 1.403 1_565 S
C532 C533 1.404 1_565 S
C532 C535 1.539 . S
C533 C529 1.408 . S
C533 C532 1.404 1_545 S
C533 H545 0.930 . S
C534 C530 1.524 . S
C534 H546 0.956 . S
C534 H547 0.961 . S
C534 H548 0.961 . S
C535 C532 1.539 . S
C535 H549 0.958 . S
C535 H550 0.961 . S
C535 H551 0.960 . S
H536 C520 0.931 . S
H537 C525 0.929 . S
H538 C526 0.960 . S
H539 C526 0.962 . S
H540 C526 0.960 . S
H541 C527 0.960 1_545 S
H542 C527 0.961 1_545 S
H543 C527 0.961 . S
H544 C528 0.931 . S
H545 C533 0.930 . S
H546 C534 0.956 . S
H547 C534 0.961 . S
H548 C534 0.961 . S
H549 C535 0.958 . S
H550 C535 0.961 . S
H551 C535 0.960 . S
C552 C553 1.391 . S
C552 C554 1.394 . S
C552 H568 0.931 . S
C553 C552 1.391 . S
C553 C557 1.376 . S
C554 C552 1.394 . S
C554 C555 1.369 . S
C554 C558 1.531 . S
C555 C554 1.369 . S
C555 C556 1.410 1_455 S
C555 C563 1.503 1_455 S
C556 C555 1.410 1_655 S
C556 C557 1.392 1_655 S
C556 C559 1.511 . S
C557 C553 1.376 . S
C557 C556 1.392 1_455 S
C557 H569 0.929 . S
C558 C554 1.531 . S
C558 H570 0.960 . S
C558 H571 0.962 . S
C558 H572 0.960 . S
C559 C556 1.511 . S
C559 H573 0.961 . S
C559 H574 0.961 . S
C559 H575 0.961 . S
C560 C561 1.370 . S
C560 C562 1.363 . S
C560 H576 0.931 . S
C561 C560 1.370 . S
C561 C565 1.408 . S
C562 C560 1.363 . S
C562 C563 1.370 . S
C562 C566 1.524 . S
C563 C555 1.503 1_655 S
C563 C562 1.370 . S
C563 C564 1.403 . S
C564 C563 1.403 . S
C564 C565 1.404 . S
C564 C567 1.539 . S
C565 C561 1.408 . S
C565 C564 1.404 . S
C565 H577 0.930 . S
C566 C562 1.524 . S
C566 H578 0.956 1_655 S
C566 H579 0.961 . S
C566 H580 0.961 . S
C567 C564 1.539 . S
C567 H581 0.958 1_655 S
C567 H582 0.961 . S
C567 H583 0.960 . S
H568 C552 0.931 . S
H569 C557 0.929 . S
H570 C558 0.960 . S
H571 C558 0.962 . S
H572 C558 0.960 . S
H573 C559 0.961 . S
H574 C559 0.961 . S
H575 C559 0.961 . S
H576 C560 0.931 . S
H577 C565 0.930 . S
H578 C566 0.956 1_455 S
H579 C566 0.961 . S
H580 C566 0.961 . S
H581 C567 0.958 1_455 S
H582 C567 0.961 . S
H583 C567 0.960 . S
C584 C585 1.391 . S
C584 C586 1.394 1_545 S
C584 H600 0.931 . S
C585 C584 1.391 . S
C585 C589 1.376 . S
C586 C584 1.394 1_565 S
C586 C587 1.369 1_565 S
C586 C590 1.531 . S
C587 C586 1.369 1_545 S
C587 C588 1.410 . S
C587 C595 1.503 1_545 S
C588 C587 1.410 . S
C588 C589 1.392 . S
C588 C591 1.511 . S
C589 C585 1.376 . S
C589 C588 1.392 . S
C589 H601 0.929 . S
C590 C586 1.531 . S
C590 H602 0.960 . S
C590 H603 0.962 . S
C590 H604 0.960 . S
C591 C588 1.511 . S
C591 H605 0.961 . S
C591 H606 0.961 . S
C591 H607 0.961 . S
C592 C593 1.370 . S
C592 C594 1.363 . S
C592 H608 0.931 . S
C593 C592 1.370 . S
C593 C597 1.408 . S
C594 C592 1.363 . S
C594 C595 1.370 . S
C594 C598 1.524 1_565 S
C595 C587 1.503 1_565 S
C595 C594 1.370 . S
C595 C596 1.403 . S
C596 C595 1.403 . S
C596 C597 1.404 . S
C596 C599 1.539 . S
C597 C593 1.408 . S
C597 C596 1.404 . S
C597 H609 0.930 . S
C598 C594 1.524 1_545 S
C598 H610 0.956 . S
C598 H611 0.961 . S
C598 H612 0.961 . S
C599 C596 1.539 . S
C599 H613 0.958 . S
C599 H614 0.961 . S
C599 H615 0.960 . S
H600 C584 0.931 . S
H601 C589 0.929 . S
H602 C590 0.960 . S
H603 C590 0.962 . S
H604 C590 0.960 . S
H605 C591 0.961 . S
H606 C591 0.961 . S
H607 C591 0.961 . S
H608 C592 0.931 . S
H609 C597 0.930 . S
H610 C598 0.956 . S
H611 C598 0.961 . S
H612 C598 0.961 . S
H613 C599 0.958 . S
H614 C599 0.961 . S
H615 C599 0.960 . S
C616 C617 1.391 . S
C616 C618 1.394 1_455 S
C616 H632 0.931 . S
C617 C616 1.391 . S
C617 C621 1.376 . S
C618 C616 1.394 1_655 S
C618 C619 1.369 1_655 S
C618 C622 1.531 . S
C619 C618 1.369 1_455 S
C619 C620 1.410 . S
C619 C627 1.503 1_455 S
C620 C619 1.410 . S
C620 C621 1.392 . S
C620 C623 1.511 . S
C621 C617 1.376 . S
C621 C620 1.392 . S
C621 H633 0.929 . S
C622 C618 1.531 . S
C622 H634 0.960 . S
C622 H635 0.962 . S
C622 H636 0.960 . S
C623 C620 1.511 . S
C623 H637 0.961 . S
C623 H638 0.961 . S
C623 H639 0.961 . S
C624 C625 1.370 . S
C624 C626 1.363 . S
C624 H640 0.931 . S
C625 C624 1.370 . S
C625 C629 1.408 . S
C626 C624 1.363 . S
C626 C627 1.370 . S
C626 C630 1.524 . S
C627 C619 1.503 1_655 S
C627 C626 1.370 . S
C627 C628 1.403 . S
C628 C627 1.403 . S
C628 C629 1.404 . S
C628 C631 1.539 . S
C629 C625 1.408 . S
C629 C628 1.404 . S
C629 H641 0.930 . S
C630 C626 1.524 . S
C630 H642 0.956 . S
C630 H643 0.961 1_655 S
C630 H644 0.961 . S
C631 C628 1.539 . S
C631 H645 0.958 . S
C631 H646 0.961 . S
C631 H647 0.960 1_655 S
H632 C616 0.931 . S
H633 C621 0.929 . S
H634 C622 0.960 . S
H635 C622 0.962 . S
H636 C622 0.960 . S
H637 C623 0.961 . S
H638 C623 0.961 . S
H639 C623 0.961 . S
H640 C624 0.931 . S
H641 C629 0.930 . S
H642 C630 0.956 . S
H643 C630 0.961 1_455 S
H644 C630 0.961 . S
H645 C631 0.958 . S
H646 C631 0.961 . S
H647 C631 0.960 1_455 S
C648 C649 1.391 1_565 S
C648 C650 1.394 . S
C648 H664 0.931 . S
C649 C648 1.391 1_545 S
C649 C653 1.376 . S
C650 C648 1.394 . S
C650 C651 1.369 1_565 S
C650 C654 1.531 . S
C651 C650 1.369 1_545 S
C651 C652 1.410 . S
C651 C659 1.503 1_445 S
C652 C651 1.410 . S
C652 C653 1.392 . S
C652 C655 1.504 1_455 S
C653 C649 1.376 . S
C653 C652 1.392 . S
C653 H665 0.929 . S
C654 C650 1.531 . S
C654 H666 0.960 . S
C654 H667 0.962 . S
C654 H668 0.960 . S
C655 C652 1.504 1_655 S
C655 H669 0.957 1_655 S
C655 H670 0.969 . S
C655 H671 0.963 . S
C656 C657 1.370 . S
C656 C658 1.363 . S
C656 H672 0.931 . S
C657 C656 1.370 . S
C657 C661 1.408 . S
C658 C656 1.363 . S
C658 C659 1.370 . S
C658 C662 1.524 . S
C659 C651 1.503 1_665 S
C659 C658 1.370 . S
C659 C660 1.403 1_565 S
C660 C659 1.403 1_545 S
C660 C661 1.404 1_545 S
C660 C663 1.539 . S
C661 C657 1.408 . S
C661 C660 1.404 1_565 S
C661 H673 0.930 . S
C662 C658 1.524 . S
C662 H674 0.956 1_655 S
C662 H675 0.961 1_655 S
C662 H676 0.961 . S
C663 C660 1.539 . S
C663 H677 0.958 . S
C663 H678 0.961 . S
C663 H679 0.960 . S
H664 C648 0.931 . S
H665 C653 0.929 . S
H666 C654 0.960 . S
H667 C654 0.962 . S
H668 C654 0.960 . S
H669 C655 0.957 1_455 S
H670 C655 0.969 . S
H671 C655 0.963 . S
H672 C656 0.931 . S
H673 C661 0.930 . S
H674 C662 0.956 1_455 S
H675 C662 0.961 1_455 S
H676 C662 0.961 . S
H677 C663 0.958 . S
H678 C663 0.961 . S
H679 C663 0.960 . S
C680 C681 1.391 . S
C680 C682 1.394 . S
C680 H696 0.931 . S
C681 C680 1.391 . S
C681 C685 1.376 1_455 S
C682 C680 1.394 . S
C682 C683 1.369 . S
C682 C686 1.531 . S
C683 C682 1.369 . S
C683 C684 1.410 1_455 S
C683 C691 1.503 1_465 S
C684 C683 1.410 1_655 S
C684 C685 1.392 . S
C684 C687 1.511 . S
C685 C681 1.376 1_655 S
C685 C684 1.392 . S
C685 H697 0.929 . S
C686 C682 1.531 . S
C686 H698 0.960 1_565 S
C686 H699 0.962 1_565 S
C686 H700 0.960 . S
C687 C684 1.511 . S
C687 H701 0.961 . S
C687 H702 0.961 . S
C687 H703 0.961 . S
C688 C689 1.370 . S
C688 C690 1.363 1_655 S
C688 H704 0.935 . S
C689 C688 1.370 . S
C689 C693 1.408 . S
C690 C688 1.363 1_455 S
C690 C691 1.370 1_455 S
C690 C694 1.524 . S
C691 C683 1.503 1_645 S
C691 C690 1.370 1_655 S
C691 C692 1.403 . S
C692 C691 1.403 . S
C692 C693 1.404 . S
C692 C695 1.539 . S
C693 C689 1.408 . S
C693 C692 1.404 . S
C693 H705 0.930 . S
C694 C690 1.524 . S
C694 H706 0.956 . S
C694 H707 0.974 . S
C694 H708 0.961 . S
C695 C692 1.539 . S
C695 H709 0.958 . S
C695 H710 0.961 . S
C695 H711 0.960 1_545 S
H696 C680 0.931 . S
H697 C685 0.929 . S
H698 C686 0.960 1_545 S
H699 C686 0.962 1_545 S
H700 C686 0.960 . S
H701 C687 0.961 . S
H702 C687 0.961 . S
H703 C687 0.961 . S
H704 C688 0.935 . S
H705 C693 0.930 . S
H706 C694 0.956 . S
H707 C694 0.974 . S
H708 C694 0.961 . S
H709 C695 0.958 . S
H710 C695 0.961 . S
H711 C695 0.960 1_565 S
C712 C713 1.391 . S
C712 C714 1.394 . S
C712 H728 0.931 . S
C713 C712 1.391 . S
C713 C717 1.376 1_565 S
C714 C712 1.394 . S
C714 C715 1.369 . S
C714 C718 1.525 1_455 S
C715 C714 1.369 . S
C715 C716 1.410 1_565 S
C715 C723 1.503 1_465 S
C716 C715 1.410 1_545 S
C716 C717 1.392 . S
C716 C719 1.511 . S
C717 C713 1.376 1_545 S
C717 C716 1.392 . S
C717 H729 0.929 . S
C718 C714 1.525 1_655 S
C718 H730 0.967 . S
C718 H731 0.963 . S
C718 H732 0.958 1_655 S
C719 C716 1.511 . S
C719 H733 0.961 . S
C719 H734 0.961 . S
C719 H735 0.961 . S
C720 C721 1.370 . S
C720 C722 1.363 . S
C720 H736 0.931 . S
C721 C720 1.370 . S
C721 C725 1.408 . S
C722 C720 1.363 . S
C722 C723 1.370 . S
C722 C726 1.524 . S
C723 C715 1.503 1_645 S
C723 C722 1.370 . S
C723 C724 1.403 1_545 S
C724 C723 1.403 1_565 S
C724 C725 1.404 1_565 S
C724 C727 1.539 . S
C725 C721 1.408 . S
C725 C724 1.404 1_545 S
C725 H737 0.930 . S
C726 C722 1.524 . S
C726 H738 0.950 1_655 S
C726 H739 0.961 1_655 S
C726 H740 0.961 . S
C727 C724 1.539 . S
C727 H741 0.958 . S
C727 H742 0.961 . S
C727 H743 0.960 . S
H728 C712 0.931 . S
H729 C717 0.929 . S
H730 C718 0.967 . S
H731 C718 0.963 . S
H732 C718 0.958 1_455 S
H733 C719 0.961 . S
H734 C719 0.961 . S
H735 C719 0.961 . S
H736 C720 0.931 . S
H737 C725 0.930 . S
H738 C726 0.950 1_455 S
H739 C726 0.961 1_455 S
H740 C726 0.961 . S
H741 C727 0.958 . S
H742 C727 0.961 . S
H743 C727 0.960 . S
C744 C745 1.391 . S
C744 C746 1.394 . S
C744 H760 0.931 . S
C745 C744 1.391 . S
C745 C749 1.376 1_655 S
C746 C744 1.394 . S
C746 C747 1.369 . S
C746 C750 1.520 1_565 S
C747 C746 1.369 . S
C747 C748 1.410 1_655 S
C747 C755 1.503 1_665 S
C748 C747 1.410 1_455 S
C748 C749 1.392 . S
C748 C751 1.511 . S
C749 C745 1.376 1_455 S
C749 C748 1.392 . S
C749 H761 0.929 . S
C750 C746 1.520 1_545 S
C750 H762 0.971 . S
C750 H763 0.967 . S
C750 H764 0.955 1_545 S
C751 C748 1.511 . S
C751 H765 0.961 . S
C751 H766 0.961 . S
C751 H767 0.961 . S
C752 C753 1.370 . S
C752 C754 1.363 . S
C752 H768 0.931 . S
C753 C752 1.370 . S
C753 C757 1.408 . S
C754 C752 1.363 . S
C754 C755 1.370 . S
C754 C758 1.524 1_455 S
C755 C747 1.503 1_445 S
C755 C754 1.370 . S
C755 C756 1.403 . S
C756 C755 1.403 . S
C756 C757 1.404 . S
C756 C759 1.539 . S
C757 C753 1.408 . S
C757 C756 1.404 . S
C757 H769 0.930 . S
C758 C754 1.524 1_655 S
C758 H770 0.956 . S
C758 H771 0.961 1_645 S
C758 H772 0.962 . S
C759 C756 1.539 . S
C759 H773 0.958 1_455 S
C759 H774 0.961 . S
C759 H775 0.960 1_545 S
H760 C744 0.931 . S
H761 C749 0.929 . S
H762 C750 0.971 . S
H763 C750 0.967 . S
H764 C750 0.955 1_565 S
H765 C751 0.961 . S
H766 C751 0.961 . S
H767 C751 0.961 . S
H768 C752 0.931 . S
H769 C757 0.930 . S
H770 C758 0.956 . S
H771 C758 0.961 1_465 S
H772 C758 0.962 . S
H773 C759 0.958 1_655 S
H774 C759 0.961 . S
H775 C759 0.960 1_565 S
C776 C777 1.391 . S
C776 C778 1.394 . S
C776 H792 0.931 . S
C777 C776 1.391 . S
C777 C781 1.376 . S
C778 C776 1.394 . S
C778 C779 1.369 . S
C778 C782 1.531 . S
C779 C778 1.369 . S
C779 C780 1.410 . S
C779 C787 1.503 . S
C780 C779 1.410 . S
C780 C781 1.392 . S
C780 C783 1.511 . S
C781 C777 1.376 . S
C781 C780 1.392 . S
C781 H793 0.929 . S
C782 C778 1.531 . S
C782 H794 0.960 . S
C782 H795 0.962 . S
C782 H796 0.960 . S
C783 C780 1.511 . S
C783 H797 0.961 . S
C783 H798 0.961 . S
C783 H799 0.961 . S
C784 C785 1.370 . S
C784 C786 1.363 . S
C784 H800 0.931 . S
C785 C784 1.370 . S
C785 C789 1.408 . S
C786 C784 1.363 . S
C786 C787 1.370 . S
C786 C790 1.524 . S
C787 C779 1.503 . S
C787 C786 1.370 . S
C787 C788 1.403 . S
C788 C787 1.403 . S
C788 C789 1.404 . S
C788 C791 1.539 . S
C789 C785 1.408 . S
C789 C788 1.404 . S
C789 H801 0.930 . S
C790 C786 1.524 . S
C790 H802 0.956 . S
C790 H803 0.961 . S
C790 H804 0.961 . S
C791 C788 1.539 . S
C791 H805 0.958 . S
C791 H806 0.961 . S
C791 H807 0.960 . S
H792 C776 0.931 . S
H793 C781 0.929 . S
H794 C782 0.960 . S
H795 C782 0.962 . S
H796 C782 0.960 . S
H797 C783 0.961 . S
H798 C783 0.961 . S
H799 C783 0.961 . S
H800 C784 0.931 . S
H801 C789 0.930 . S
H802 C790 0.956 . S
H803 C790 0.961 . S
H804 C790 0.961 . S
H805 C791 0.958 . S
H806 C791 0.961 . S
H807 C791 0.960 . S
C808 C809 1.391 . S
C808 C810 1.394 . S
C808 H824 0.931 . S
C809 C808 1.391 . S
C809 C813 1.376 . S
C810 C808 1.394 . S
C810 C811 1.369 . S
C810 C814 1.531 . S
C811 C810 1.369 . S
C811 C812 1.410 . S
C811 C819 1.503 . S
C812 C811 1.410 . S
C812 C813 1.392 . S
C812 C815 1.511 . S
C813 C809 1.376 . S
C813 C812 1.392 . S
C813 H825 0.929 . S
C814 C810 1.531 . S
C814 H826 0.960 . S
C814 H827 0.962 . S
C814 H828 0.960 . S
C815 C812 1.511 . S
C815 H829 0.961 . S
C815 H830 0.961 . S
C815 H831 0.961 . S
C816 C817 1.370 . S
C816 C818 1.363 . S
C816 H832 0.931 . S
C817 C816 1.370 . S
C817 C821 1.408 . S
C818 C816 1.363 . S
C818 C819 1.370 . S
C818 C822 1.524 . S
C819 C811 1.503 . S
C819 C818 1.370 . S
C819 C820 1.403 . S
C820 C819 1.403 . S
C820 C821 1.404 . S
C820 C823 1.539 . S
C821 C817 1.408 . S
C821 C820 1.404 . S
C821 H833 0.930 . S
C822 C818 1.524 . S
C822 H834 0.956 . S
C822 H835 0.961 . S
C822 H836 0.961 . S
C823 C820 1.539 . S
C823 H837 0.958 . S
C823 H838 0.961 . S
C823 H839 0.960 . S
H824 C808 0.931 . S
H825 C813 0.929 . S
H826 C814 0.960 . S
H827 C814 0.962 . S
H828 C814 0.960 . S
H829 C815 0.961 . S
H830 C815 0.961 . S
H831 C815 0.961 . S
H832 C816 0.931 . S
H833 C821 0.930 . S
H834 C822 0.956 . S
H835 C822 0.961 . S
H836 C822 0.961 . S
H837 C823 0.958 . S
H838 C823 0.961 . S
H839 C823 0.960 . S
C840 C841 1.391 . S
C840 C842 1.394 . S
C840 H856 0.931 . S
C841 C840 1.391 . S
C841 C845 1.376 . S
C842 C840 1.394 . S
C842 C843 1.369 . S
C842 C846 1.531 . S
C843 C842 1.369 . S
C843 C844 1.410 . S
C843 C851 1.503 . S
C844 C843 1.410 . S
C844 C845 1.392 . S
C844 C847 1.511 . S
C845 C841 1.376 . S
C845 C844 1.392 . S
C845 H857 0.929 . S
C846 C842 1.531 . S
C846 H858 0.960 . S
C846 H859 0.962 . S
C846 H860 0.960 . S
C847 C844 1.511 . S
C847 H861 0.961 . S
C847 H862 0.961 . S
C847 H863 0.961 . S
C848 C849 1.370 . S
C848 C850 1.363 . S
C848 H864 0.931 . S
C849 C848 1.370 . S
C849 C853 1.408 . S
C850 C848 1.363 . S
C850 C851 1.370 . S
C850 C854 1.524 . S
C851 C843 1.503 . S
C851 C850 1.370 . S
C851 C852 1.403 . S
C852 C851 1.403 . S
C852 C853 1.404 . S
C852 C855 1.539 . S
C853 C849 1.408 . S
C853 C852 1.404 . S
C853 H865 0.930 . S
C854 C850 1.524 . S
C854 H866 0.956 . S
C854 H867 0.961 . S
C854 H868 0.961 . S
C855 C852 1.539 . S
C855 H869 0.958 . S
C855 H870 0.961 . S
C855 H871 0.960 . S
H856 C840 0.931 . S
H857 C845 0.929 . S
H858 C846 0.960 . S
H859 C846 0.962 . S
H860 C846 0.960 . S
H861 C847 0.961 . S
H862 C847 0.961 . S
H863 C847 0.961 . S
H864 C848 0.931 . S
H865 C853 0.930 . S
H866 C854 0.956 . S
H867 C854 0.961 . S
H868 C854 0.961 . S
H869 C855 0.958 . S
H870 C855 0.961 . S
H871 C855 0.960 . S
C872 C873 1.391 . S
C872 C874 1.394 . S
C872 H888 0.931 . S
C873 C872 1.391 . S
C873 C877 1.376 . S
C874 C872 1.394 . S
C874 C875 1.369 . S
C874 C878 1.531 . S
C875 C874 1.369 . S
C875 C876 1.410 . S
C875 C883 1.503 . S
C876 C875 1.410 . S
C876 C877 1.392 . S
C876 C879 1.511 . S
C877 C873 1.376 . S
C877 C876 1.392 . S
C877 H889 0.929 . S
C878 C874 1.531 . S
C878 H890 0.960 . S
C878 H891 0.962 . S
C878 H892 0.960 . S
C879 C876 1.511 . S
C879 H893 0.961 . S
C879 H894 0.961 . S
C879 H895 0.961 . S
C880 C881 1.370 . S
C880 C882 1.363 . S
C880 H896 0.931 . S
C881 C880 1.370 . S
C881 C885 1.408 . S
C882 C880 1.363 . S
C882 C883 1.370 . S
C882 C886 1.524 . S
C883 C875 1.503 . S
C883 C882 1.370 . S
C883 C884 1.403 . S
C884 C883 1.403 . S
C884 C885 1.404 . S
C884 C887 1.539 . S
C885 C881 1.408 . S
C885 C884 1.404 . S
C885 H897 0.930 . S
C886 C882 1.524 . S
C886 H898 0.956 . S
C886 H899 0.961 . S
C886 H900 0.961 . S
C887 C884 1.539 . S
C887 H901 0.958 . S
C887 H902 0.961 . S
C887 H903 0.960 . S
H888 C872 0.931 . S
H889 C877 0.929 . S
H890 C878 0.960 . S
H891 C878 0.962 . S
H892 C878 0.960 . S
H893 C879 0.961 . S
H894 C879 0.961 . S
H895 C879 0.961 . S
H896 C880 0.931 . S
H897 C885 0.930 . S
H898 C886 0.956 . S
H899 C886 0.961 . S
H900 C886 0.961 . S
H901 C887 0.958 . S
H902 C887 0.961 . S
H903 C887 0.960 . S
C265 N2 0.954 1_565 S
C273 C54 0.917 . S
C297 C87 0.956 . S
C305 N35 0.960 1_655 S
C329 N68 0.993 1_545 S
C337 C120 0.880 . S
C361 C21 0.812 . S
C369 N101 0.992 1_455 S
C393 C252 0.820 . S
C401 N134 0.992 1_565 S
C425 C153 0.849 . S
C433 N167 0.981 1_655 S
C457 C186 0.901 . S
C465 N200 0.968 1_545 S
C489 N233 0.953 1_455 S
C497 C219 0.906 . S
C521 C84 1.571 . S
C529 C18 1.546 . S
C553 C51 1.537 . S
C561 C117 1.547 . S
C585 C150 1.544 . S
C593 C216 1.561 . S
C617 C183 1.532 . S
C625 C249 1.546 . S
C649 C7 0.928 . S
C657 C73 0.923 . S
C681 C40 0.952 . S
C689 C106 0.908 . S
C713 C205 0.926 . S
C721 C139 0.922 . S
C745 C238 0.862 . S
C753 C172 0.879 . S
C777 N13 1.653 . S
C785 N178 1.665 . S
C809 N211 1.698 . S
C817 N46 1.679 . S
C841 N244 1.698 . S
C849 N79 1.681 . S
C873 N112 1.646 . S
C881 N145 1.667 . S
