# Generated by pormake.
# Topology uol, (4)-cn, num edge types: 1
# Building blocks:
#     Node 0, Type 0, BuildingBlock: ESEHIV_clean_sbu_0, # of connection points: 4
#     Node 1, Type 0, BuildingBlock: ESEHIV_clean_sbu_0, # of connection points: 4
#     Node 2, Type 0, BuildingBlock: ESEHIV_clean_sbu_0, # of connection points: 4
#     Node 3, Type 0, BuildingBlock: ESEHIV_clean_sbu_0, # of connection points: 4
#     Node 4, Type 0, BuildingBlock: ESEHIV_clean_sbu_0, # of connection points: 4
#     Node 5, Type 0, BuildingBlock: ESEHIV_clean_sbu_0, # of connection points: 4
#     Node 6, Type 0, BuildingBlock: ESEHIV_clean_sbu_0, # of connection points: 4
#     Node 7, Type 0, BuildingBlock: ESEHIV_clean_sbu_0, # of connection points: 4
#     Node 8, Type 0, BuildingBlock: ESEHIV_clean_sbu_0, # of connection points: 4
#     Node 9, Type 0, BuildingBlock: ESEHIV_clean_sbu_0, # of connection points: 4
#     Node 10, Type 0, BuildingBlock: ESEHIV_clean_sbu_0, # of connection points: 4
#     Node 11, Type 0, BuildingBlock: ESEHIV_clean_sbu_0, # of connection points: 4
#     Edge 12, Type (0, 0), BuildingBlock: MIFKUJ_clean_linker_0, # of connection points: 2
#     Edge 13, Type (0, 0), BuildingBlock: MIFKUJ_clean_linker_0, # of connection points: 2
#     Edge 14, Type (0, 0), BuildingBlock: MIFKUJ_clean_linker_0, # of connection points: 2
#     Edge 15, Type (0, 0), BuildingBlock: MIFKUJ_clean_linker_0, # of connection points: 2
#     Edge 16, Type (0, 0), BuildingBlock: MIFKUJ_clean_linker_0, # of connection points: 2
#     Edge 17, Type (0, 0), BuildingBlock: MIFKUJ_clean_linker_0, # of connection points: 2
#     Edge 18, Type (0, 0), BuildingBlock: MIFKUJ_clean_linker_0, # of connection points: 2
#     Edge 19, Type (0, 0), BuildingBlock: MIFKUJ_clean_linker_0, # of connection points: 2
#     Edge 20, Type (0, 0), BuildingBlock: MIFKUJ_clean_linker_0, # of connection points: 2
#     Edge 21, Type (0, 0), BuildingBlock: MIFKUJ_clean_linker_0, # of connection points: 2
#     Edge 22, Type (0, 0), BuildingBlock: MIFKUJ_clean_linker_0, # of connection points: 2
#     Edge 23, Type (0, 0), BuildingBlock: MIFKUJ_clean_linker_0, # of connection points: 2
#     Edge 24, Type (0, 0), BuildingBlock: MIFKUJ_clean_linker_0, # of connection points: 2
#     Edge 25, Type (0, 0), BuildingBlock: MIFKUJ_clean_linker_0, # of connection points: 2
#     Edge 26, Type (0, 0), BuildingBlock: MIFKUJ_clean_linker_0, # of connection points: 2
#     Edge 27, Type (0, 0), BuildingBlock: MIFKUJ_clean_linker_0, # of connection points: 2
#     Edge 28, Type (0, 0), BuildingBlock: MIFKUJ_clean_linker_0, # of connection points: 2
#     Edge 29, Type (0, 0), BuildingBlock: MIFKUJ_clean_linker_0, # of connection points: 2
#     Edge 30, Type (0, 0), BuildingBlock: MIFKUJ_clean_linker_0, # of connection points: 2
#     Edge 31, Type (0, 0), BuildingBlock: MIFKUJ_clean_linker_0, # of connection points: 2
#     Edge 32, Type (0, 0), BuildingBlock: MIFKUJ_clean_linker_0, # of connection points: 2
#     Edge 33, Type (0, 0), BuildingBlock: MIFKUJ_clean_linker_0, # of connection points: 2
#     Edge 34, Type (0, 0), BuildingBlock: MIFKUJ_clean_linker_0, # of connection points: 2
#     Edge 35, Type (0, 0), BuildingBlock: MIFKUJ_clean_linker_0, # of connection points: 2
# Relax obj value: 0.146
# Max RMSD: 0.224
# Mean RMSD: 0.223
data_MOF--net-uol--node1-ESEHIV_clean_sbu_0--edge1-MIFKUJ_clean_linker_0
_symmetry_space_group_name_H-M    P1
_symmetry_Int_Tables_number       1
_symmetry_cell_setting            triclinic
loop_
_symmetry_equiv_pos_as_xyz
'x, y, z'
_cell_length_a     49.801563
_cell_length_b     49.853912
_cell_length_c     75.66557
_cell_angle_alpha  90.23285
_cell_angle_beta   89.972446
_cell_angle_gamma 119.87504
loop_
_atom_site_label
_atom_site_type_symbol
_atom_site_fract_x
_atom_site_fract_y
_atom_site_fract_z
_atom_type_partial_charge
Cu0 Cu 0.15897 0.35326 0.11863 0.0
N1 N 0.18884 0.36069 0.13572 0.0
N2 N 0.22243 0.35404 0.15209 0.0
C3 C 0.20216 0.34328 0.13848 0.0
C4 C 0.22174 0.37924 0.15812 0.0
C5 C 0.20102 0.3833 0.14796 0.0
O6 O 0.1661 0.33001 0.10021 0.0
C7 C 0.09314 0.32731 0.12661 0.0
O8 O 0.09103 0.34196 0.11276 0.0
H9 H 0.19652 0.32273 0.13084 0.0
H10 H 0.19512 0.40135 0.14942 0.0
N11 N 0.16705 0.3915 0.10944 0.0
N12 N 0.16865 0.43616 0.10314 0.0
C13 C 0.15347 0.40894 0.11192 0.0
C14 C 0.19138 0.40828 0.09883 0.0
C15 C 0.1924 0.43561 0.0949 0.0
C16 C 0.16132 0.33087 0.08374 0.0
O17 O 0.14705 0.3455 0.07829 0.0
H18 H 0.13356 0.4023 0.12032 0.0
H19 H 0.20748 0.40109 0.09438 0.0
O20 O 0.11899 0.32933 0.13038 0.0
H21 H 0.23539 0.39386 0.16898 0.0
H22 H 0.20931 0.45369 0.08652 0.0
Cu23 Cu 0.81615 0.15235 0.28415 0.0
N24 N 0.84543 0.17834 0.30068 0.0
N25 N 0.89063 0.21113 0.31344 0.0
C26 C 0.8762 0.19631 0.29837 0.0
C27 C 0.86791 0.20201 0.32563 0.0
C28 C 0.84013 0.18177 0.31772 0.0
O29 O 0.83852 0.15886 0.26188 0.0
C30 C 0.8177 0.10147 0.29854 0.0
O31 O 0.84751 0.11976 0.29597 0.0
H32 H 0.88769 0.19834 0.2859 0.0
H33 H 0.81765 0.16997 0.32399 0.0
N34 N 0.78556 0.16388 0.2828 0.0
N35 N 0.74106 0.16446 0.28004 0.0
C36 C 0.7555 0.14773 0.27779 0.0
C37 C 0.79011 0.19159 0.28821 0.0
C38 C 0.76287 0.19202 0.28655 0.0
C39 C 0.84187 0.17983 0.25104 0.0
O40 O 0.82725 0.19522 0.25399 0.0
H41 H 0.74424 0.12402 0.27314 0.0
H42 H 0.81181 0.21016 0.29322 0.0
O43 O 0.79906 0.11035 0.2933 0.0
H44 H 0.87116 0.20875 0.33942 0.0
H45 H 0.75934 0.21117 0.28992 0.0
Cu46 Cu 0.68758 0.79883 0.4417 0.0
N47 N 0.67322 0.81615 0.45844 0.0
N48 N 0.67496 0.85383 0.4754 0.0
C49 C 0.6855 0.84683 0.46066 0.0
C50 C 0.65511 0.82628 0.48275 0.0
C51 C 0.65416 0.80305 0.47227 0.0
O52 O 0.70425 0.82877 0.42252 0.0
C53 C 0.71197 0.7675 0.46145 0.0
O54 O 0.68336 0.74443 0.46058 0.0
H55 H 0.70353 0.86371 0.45225 0.0
H56 H 0.64183 0.77856 0.47509 0.0
N57 N 0.65581 0.76207 0.43176 0.0
N58 N 0.61158 0.71826 0.42585 0.0
C59 C 0.62806 0.74028 0.43813 0.0
C60 C 0.65679 0.75335 0.41504 0.0
C61 C 0.6297 0.7265 0.41135 0.0
C62 C 0.73225 0.85011 0.42063 0.0
O63 O 0.75337 0.85213 0.4318 0.0
H64 H 0.61987 0.74079 0.45129 0.0
H65 H 0.67595 0.76594 0.40608 0.0
O66 O 0.71905 0.79261 0.45344 0.0
H67 H 0.643 0.82312 0.49513 0.0
H68 H 0.62388 0.71385 0.39898 0.0
Cu69 Cu 0.88921 0.67143 0.61737 0.0
N70 N 0.85854 0.66688 0.63321 0.0
N71 N 0.82496 0.67592 0.64798 0.0
C72 C 0.84408 0.68361 0.63392 0.0
C73 C 0.82742 0.65338 0.65637 0.0
C74 C 0.84811 0.64783 0.6472 0.0
O75 O 0.88291 0.68895 0.59585 0.0
C76 C 0.95459 0.69945 0.62717 0.0
O77 O 0.95762 0.68231 0.61498 0.0
H78 H 0.84834 0.70184 0.62472 0.0
H79 H 0.8556 0.63156 0.65068 0.0
N80 N 0.88203 0.63177 0.61159 0.0
N81 N 0.88084 0.58637 0.60961 0.0
C82 C 0.89566 0.61532 0.61656 0.0
C83 C 0.85815 0.61261 0.6012 0.0
C84 C 0.85732 0.58474 0.59996 0.0
C85 C 0.88863 0.71667 0.594 0.0
O86 O 0.90278 0.73678 0.60679 0.0
H87 H 0.91531 0.62393 0.62542 0.0
H88 H 0.84215 0.61853 0.5951 0.0
O89 O 0.92856 0.69805 0.62924 0.0
H90 H 0.81533 0.6419 0.66834 0.0
H91 H 0.84072 0.56476 0.59247 0.0
Cu92 Cu 0.23021 0.87516 0.78584 0.0
N93 N 0.20278 0.84906 0.80304 0.0
N94 N 0.1597 0.81652 0.81767 0.0
C95 C 0.17184 0.83036 0.80203 0.0
C96 C 0.18411 0.82692 0.82881 0.0
C97 C 0.21053 0.84689 0.81976 0.0
O98 O 0.20799 0.86594 0.76332 0.0
C99 C 0.22992 0.92476 0.80373 0.0
O100 O 0.20083 0.90363 0.80615 0.0
H101 H 0.15856 0.82729 0.79014 0.0
H102 H 0.23375 0.85964 0.82508 0.0
N103 N 0.26112 0.8643 0.78389 0.0
N104 N 0.30536 0.86343 0.78057 0.0
C105 C 0.29153 0.88093 0.77973 0.0
C106 C 0.25571 0.83555 0.78721 0.0
C107 C 0.28278 0.83494 0.78524 0.0
C108 C 0.18535 0.87044 0.76038 0.0
O109 O 0.17791 0.88465 0.7724 0.0
H110 H 0.30334 0.9053 0.77651 0.0
H111 H 0.23345 0.8163 0.79091 0.0
O112 O 0.24706 0.9179 0.79441 0.0
H113 H 0.18296 0.82148 0.84271 0.0
H114 H 0.28559 0.81492 0.78694 0.0
Cu115 Cu 0.36811 0.23017 0.9447 0.0
N116 N 0.3692 0.20363 0.96161 0.0
N117 N 0.35822 0.16054 0.97622 0.0
C118 C 0.35087 0.1727 0.96241 0.0
C119 C 0.38222 0.18475 0.98436 0.0
C120 C 0.3889 0.21132 0.97532 0.0
O121 O 0.3519 0.20562 0.92309 0.0
C122 C 0.31944 0.2315 0.96317 0.0
O123 O 0.3101 0.20198 0.96509 0.0
H124 H 0.33265 0.15936 0.95297 0.0
H125 H 0.40684 0.23463 0.97849 0.0
N126 N 0.40927 0.25999 0.93997 0.0
N127 N 0.45413 0.30326 0.93453 0.0
C128 C 0.424 0.29122 0.93921 0.0
C129 C 0.43076 0.25223 0.93579 0.0
C130 C 0.45829 0.27868 0.93247 0.0
C131 C 0.32372 0.18601 0.91976 0.0
O132 O 0.30202 0.18366 0.93055 0.0
H133 H 0.41281 0.30472 0.9417 0.0
H134 H 0.42652 0.22876 0.93516 0.0
O135 O 0.34396 0.24831 0.95427 0.0
H136 H 0.39375 0.18343 0.99617 0.0
H137 H 0.47987 0.27969 0.929 0.0
Cu138 Cu 0.68739 0.90629 0.74783 0.0
N139 N 0.67565 0.87619 0.73021 0.0
N140 N 0.67869 0.84152 0.7127 0.0
C141 C 0.68881 0.85856 0.72766 0.0
C142 C 0.65827 0.84878 0.70556 0.0
C143 C 0.6565 0.87022 0.71638 0.0
O144 O 0.70498 0.89389 0.76696 0.0
C145 C 0.70691 0.96055 0.72822 0.0
O146 O 0.67687 0.94922 0.72695 0.0
H147 H 0.70672 0.8595 0.73617 0.0
H148 H 0.64317 0.88155 0.71394 0.0
N149 N 0.65337 0.90732 0.75784 0.0
N150 N 0.60761 0.90386 0.76349 0.0
C151 C 0.62628 0.90257 0.75091 0.0
C152 C 0.65157 0.91185 0.77524 0.0
C153 C 0.62348 0.90965 0.77877 0.0
C154 C 0.73255 0.89888 0.76842 0.0
O155 O 0.75323 0.91552 0.75643 0.0
H156 H 0.62004 0.89759 0.73711 0.0
H157 H 0.66944 0.91606 0.78477 0.0
O158 O 0.71698 0.94603 0.73739 0.0
H159 H 0.64595 0.83975 0.69323 0.0
H160 H 0.61533 0.91216 0.7916 0.0
Cu161 Cu 0.80025 0.68127 0.91569 0.0
N162 N 0.8136 0.66453 0.89802 0.0
N163 N 0.84802 0.66303 0.87969 0.0
C164 C 0.84323 0.67165 0.89577 0.0
C165 C 0.82022 0.64973 0.87153 0.0
C166 C 0.79899 0.65068 0.88289 0.0
O167 O 0.8304 0.69451 0.93486 0.0
C168 C 0.77382 0.71035 0.89625 0.0
O169 O 0.7501 0.68207 0.89579 0.0
H170 H 0.86152 0.6855 0.90506 0.0
H171 H 0.77526 0.644 0.87981 0.0
N172 N 0.76172 0.65232 0.92507 0.0
N173 N 0.71527 0.61068 0.93018 0.0
C174 C 0.74017 0.62395 0.91929 0.0
C175 C 0.7502 0.65701 0.94008 0.0
C176 C 0.72174 0.63154 0.94328 0.0
C177 C 0.85605 0.71985 0.93515 0.0
O178 O 0.86258 0.73978 0.92229 0.0
H179 H 0.74259 0.6135 0.90728 0.0
H180 H 0.76189 0.67761 0.94819 0.0
O181 O 0.79793 0.71563 0.90492 0.0
H182 H 0.81594 0.64152 0.85799 0.0
H183 H 0.70727 0.62853 0.95461 0.0
Cu184 Cu 0.14977 0.78999 0.07787 0.0
N185 N 0.17981 0.81285 0.06103 0.0
N186 N 0.21059 0.85184 0.04327 0.0
C187 C 0.1854 0.83977 0.0538 0.0
C188 C 0.22114 0.83162 0.04385 0.0
C189 C 0.20204 0.80753 0.05478 0.0
O190 O 0.15848 0.81734 0.09815 0.0
C191 C 0.10308 0.76205 0.05235 0.0
O192 O 0.12335 0.75549 0.04544 0.0
H193 H 0.17206 0.85095 0.05683 0.0
H194 H 0.20463 0.78795 0.05833 0.0
N195 N 0.15611 0.758 0.0859 0.0
N196 N 0.15805 0.71454 0.09005 0.0
C197 C 0.14415 0.72794 0.08119 0.0
C198 C 0.17781 0.76338 0.09814 0.0
C199 C 0.1791 0.73683 0.10071 0.0
C200 C 0.15257 0.83927 0.09994 0.0
O201 O 0.13658 0.84379 0.08769 0.0
H202 H 0.12651 0.71647 0.07116 0.0
H203 H 0.19222 0.78548 0.10451 0.0
O204 O 0.10918 0.77596 0.06723 0.0
H205 H 0.24145 0.83427 0.03705 0.0
H206 H 0.19452 0.73415 0.10968 0.0
Cu207 Cu 0.36041 0.12606 0.24925 0.0
N208 N 0.37495 0.15754 0.23253 0.0
N209 N 0.37462 0.19471 0.21625 0.0
C210 C 0.36558 0.17856 0.23145 0.0
C211 C 0.39052 0.18347 0.20743 0.0
C212 C 0.39066 0.16049 0.21751 0.0
O213 O 0.34434 0.1395 0.26878 0.0
C214 C 0.33522 0.07108 0.22896 0.0
O215 O 0.36426 0.07777 0.22837 0.0
H216 H 0.35038 0.18032 0.24102 0.0
H217 H 0.39987 0.14573 0.21369 0.0
N218 N 0.39194 0.12024 0.25876 0.0
N219 N 0.43624 0.1207 0.26465 0.0
C220 C 0.42005 0.12685 0.25251 0.0
C221 C 0.39045 0.10946 0.2752 0.0
C222 C 0.41761 0.10978 0.27888 0.0
C223 C 0.31777 0.1373 0.26932 0.0
O224 O 0.29803 0.12318 0.25638 0.0
H225 H 0.4288 0.13673 0.23963 0.0
H226 H 0.37101 0.10236 0.28404 0.0
O227 O 0.32823 0.08845 0.2379 0.0
H228 H 0.40023 0.19044 0.19433 0.0
H229 H 0.42331 0.10259 0.29113 0.0
Cu230 Cu 0.24385 0.35806 0.41212 0.0
N231 N 0.23321 0.37516 0.39345 0.0
N232 N 0.20139 0.37631 0.37306 0.0
C233 C 0.20393 0.36767 0.38955 0.0
C234 C 0.23029 0.38996 0.36631 0.0
C235 C 0.24992 0.38923 0.37896 0.0
O236 O 0.2096 0.34246 0.42885 0.0
C237 C 0.27422 0.3302 0.39476 0.0
O238 O 0.2983 0.35821 0.3958 0.0
H239 H 0.1844 0.35338 0.39798 0.0
H240 H 0.27404 0.39608 0.37716 0.0
N241 N 0.27968 0.38744 0.42398 0.0
N242 N 0.32453 0.42961 0.43161 0.0
C243 C 0.30353 0.41473 0.41851 0.0
C244 C 0.28564 0.38499 0.44101 0.0
C245 C 0.313 0.41072 0.44575 0.0
C246 C 0.20233 0.32027 0.43956 0.0
O247 O 0.21816 0.30564 0.43941 0.0
H248 H 0.30529 0.42333 0.40523 0.0
H249 H 0.2708 0.36587 0.44949 0.0
O250 O 0.2488 0.32478 0.40186 0.0
H251 H 0.23643 0.39816 0.35288 0.0
H252 H 0.32311 0.41508 0.45881 0.0
Cu253 Cu 0.89503 0.2358 0.57132 0.0
N254 N 0.87118 0.20893 0.55321 0.0
N255 N 0.84123 0.16606 0.53753 0.0
C256 C 0.8553 0.17776 0.55324 0.0
C257 C 0.84867 0.19098 0.52732 0.0
C258 C 0.86717 0.21728 0.537 0.0
O259 O 0.88642 0.21153 0.59294 0.0
C260 C 0.94995 0.23729 0.56128 0.0
O261 O 0.93427 0.20815 0.5661 0.0
H262 H 0.85461 0.16403 0.56445 0.0
H263 H 0.87704 0.24093 0.53256 0.0
N264 N 0.88314 0.26595 0.57392 0.0
N265 N 0.88041 0.30817 0.58116 0.0
C266 C 0.89779 0.29418 0.5817 0.0
C267 C 0.85593 0.26228 0.5682 0.0
C268 C 0.85416 0.28808 0.57263 0.0
C269 C 0.85918 0.19964 0.59931 0.0
O270 O 0.83904 0.20534 0.59146 0.0
H271 H 0.92033 0.30395 0.5879 0.0
H272 H 0.83836 0.24197 0.5614 0.0
O273 O 0.93785 0.25432 0.56356 0.0
H274 H 0.84106 0.19037 0.51386 0.0
H275 H 0.83504 0.29185 0.56964 0.0
H276 H 0.2022 0.6985 0.09083 0.0
H277 H 0.19503 0.64644 0.09079 0.0
H278 H 0.09633 0.60799 0.08556 0.0
H279 H 0.10358 0.66075 0.08564 0.0
H280 H 0.11381 0.57921 0.11231 0.0
H281 H 0.13289 0.60299 0.05119 0.0
H282 H 0.15948 0.63489 0.02519 0.0
H283 H 0.24339 0.63643 0.04016 0.0
H284 H 0.21745 0.60492 0.0664 0.0
H285 H 0.11224 0.43255 0.10408 0.0
H286 H 0.10182 0.47551 0.10005 0.0
H287 H 0.20003 0.53947 0.09693 0.0
H288 H 0.21033 0.49698 0.10078 0.0
H289 H 0.17147 0.54935 0.07067 0.0
H290 H 0.15497 0.53325 0.13393 0.0
H291 H 0.12953 0.5028 0.16059 0.0
H292 H 0.04156 0.48743 0.14186 0.0
H293 H 0.06646 0.51749 0.11498 0.0
C294 C 0.17896 0.679 0.08959 0.0
C295 C 0.15344 0.68369 0.08829 0.0
C296 C 0.17489 0.64923 0.08948 0.0
C297 C 0.14516 0.62326 0.08811 0.0
C298 C 0.11949 0.62771 0.08662 0.0
C299 C 0.12364 0.65777 0.08651 0.0
C300 C 0.14159 0.59178 0.08871 0.0
C301 C 0.12578 0.57227 0.10297 0.0
C302 C 0.15753 0.58289 0.07668 0.0
C303 C 0.17323 0.60169 0.06082 0.0
C304 C 0.15707 0.61029 0.04901 0.0
C305 C 0.17203 0.62829 0.03421 0.0
C306 C 0.20312 0.63771 0.03103 0.0
C307 C 0.21931 0.6291 0.04263 0.0
C308 C 0.20447 0.61113 0.05745 0.0
C309 C 0.13152 0.45586 0.10276 0.0
C310 C 0.1621 0.46131 0.10256 0.0
C311 C 0.12557 0.4804 0.10043 0.0
C312 C 0.15015 0.51084 0.09808 0.0
C313 C 0.18063 0.51625 0.09847 0.0
C314 C 0.18651 0.49188 0.10067 0.0
C315 C 0.14479 0.53729 0.09469 0.0
C316 C 0.15893 0.55587 0.07983 0.0
C317 C 0.12742 0.5453 0.10621 0.0
C318 C 0.1125 0.52726 0.12235 0.0
C319 C 0.13016 0.52315 0.13543 0.0
C320 C 0.11585 0.50601 0.15059 0.0
C321 C 0.08393 0.49309 0.15289 0.0
C322 C 0.06627 0.49738 0.14005 0.0
C323 C 0.08046 0.51447 0.12485 0.0
H324 H 0.0729 0.47984 0.16464 0.0
H325 H 0.21466 0.65164 0.01957 0.0
H326 H 0.7059 0.18003 0.29987 0.0
H327 H 0.65267 0.16758 0.2942 0.0
H328 H 0.64977 0.11584 0.24774 0.0
H329 H 0.70355 0.1283 0.25348 0.0
H330 H 0.6266 0.1588 0.24281 0.0
H331 H 0.61082 0.07569 0.28075 0.0
H332 H 0.61986 0.05208 0.30699 0.0
H333 H 0.59174 0.10303 0.34078 0.0
H334 H 0.58297 0.12731 0.31475 0.0
H335 H 0.46306 0.1092 0.23657 0.0
H336 H 0.5139 0.11218 0.23618 0.0
H337 H 0.53026 0.14681 0.28978 0.0
H338 H 0.4794 0.14273 0.29029 0.0
H339 H 0.54475 0.10458 0.28779 0.0
H340 H 0.56708 0.19269 0.2512 0.0
H341 H 0.55995 0.21912 0.22566 0.0
H342 H 0.57708 0.16189 0.19017 0.0
H343 H 0.58395 0.13486 0.21552 0.0
C344 C 0.69397 0.16598 0.28844 0.0
C345 C 0.70894 0.15521 0.27709 0.0
C346 C 0.66349 0.15877 0.28526 0.0
C347 C 0.64719 0.14075 0.27056 0.0
C348 C 0.66194 0.1298 0.25915 0.0
C349 C 0.6925 0.1367 0.2625 0.0
C350 C 0.61486 0.13384 0.26735 0.0
C351 C 0.60844 0.14639 0.25243 0.0
C352 C 0.59139 0.1182 0.28008 0.0
C353 C 0.59642 0.10347 0.29578 0.0
C354 C 0.60678 0.08203 0.29378 0.0
C355 C 0.61182 0.0685 0.30862 0.0
C356 C 0.60642 0.07608 0.32554 0.0
C357 C 0.59591 0.09718 0.32766 0.0
C358 C 0.59086 0.1108 0.31286 0.0
C359 C 0.47781 0.11779 0.24812 0.0
C360 C 0.46727 0.12557 0.26349 0.0
C361 C 0.50686 0.11953 0.24792 0.0
C362 C 0.52616 0.12977 0.26296 0.0
C363 C 0.51586 0.1385 0.27806 0.0
C364 C 0.48679 0.13626 0.27835 0.0
C365 C 0.55656 0.13052 0.26353 0.0
C366 C 0.56264 0.11667 0.27798 0.0
C367 C 0.57976 0.14529 0.25046 0.0
C368 C 0.57565 0.16152 0.23524 0.0
C369 C 0.56908 0.18559 0.23795 0.0
C370 C 0.56514 0.2007 0.22351 0.0
C371 C 0.56796 0.19212 0.2063 0.0
C372 C 0.57483 0.16847 0.2035 0.0
C373 C 0.57877 0.15325 0.2179 0.0
H374 H 0.5649 0.20385 0.19514 0.0
H375 H 0.61034 0.06558 0.33701 0.0
H376 H 0.58572 0.68335 0.45509 0.0
H377 H 0.53558 0.63523 0.45682 0.0
H378 H 0.51861 0.64416 0.40187 0.0
H379 H 0.56838 0.69212 0.40013 0.0
H380 H 0.46635 0.62575 0.42251 0.0
H381 H 0.5444 0.59673 0.41304 0.0
H382 H 0.59249 0.59611 0.4199 0.0
H383 H 0.55597 0.55617 0.47061 0.0
H384 H 0.5078 0.55696 0.46413 0.0
H385 H 0.34539 0.47222 0.40483 0.0
H386 H 0.39321 0.52192 0.40418 0.0
H387 H 0.41625 0.50556 0.45644 0.0
H388 H 0.36968 0.45553 0.45696 0.0
H389 H 0.46547 0.52859 0.43761 0.0
H390 H 0.38749 0.55646 0.44773 0.0
H391 H 0.33941 0.55768 0.44185 0.0
H392 H 0.37512 0.60032 0.39158 0.0
H393 H 0.42328 0.59898 0.39707 0.0
C394 C 0.57108 0.67523 0.44348 0.0
C395 C 0.58113 0.69138 0.42744 0.0
C396 C 0.54254 0.64766 0.44443 0.0
C397 C 0.52345 0.6359 0.42941 0.0
C398 C 0.53294 0.65268 0.41361 0.0
C399 C 0.56151 0.67998 0.4126 0.0
C400 C 0.49415 0.60557 0.42986 0.0
C401 C 0.46614 0.60444 0.42566 0.0
C402 C 0.49377 0.57784 0.43431 0.0
C403 C 0.52264 0.57722 0.43818 0.0
C404 C 0.54673 0.58805 0.42571 0.0
C405 C 0.57398 0.58763 0.42952 0.0
C406 C 0.57732 0.57619 0.4457 0.0
C407 C 0.55337 0.56507 0.45809 0.0
C408 C 0.52608 0.56549 0.45436 0.0
C409 C 0.36054 0.4789 0.41619 0.0
C410 C 0.35298 0.45936 0.431 0.0
C411 C 0.38792 0.50767 0.41585 0.0
C412 C 0.40827 0.5179 0.43039 0.0
C413 C 0.401 0.4984 0.44506 0.0
C414 C 0.3739 0.4696 0.44536 0.0
C415 C 0.43738 0.54859 0.43034 0.0
C416 C 0.46548 0.54983 0.43455 0.0
C417 C 0.43776 0.57645 0.42607 0.0
C418 C 0.40885 0.57732 0.42274 0.0
C419 C 0.38499 0.56588 0.43537 0.0
C420 C 0.35775 0.56663 0.43211 0.0
C421 C 0.35418 0.57899 0.41633 0.0
C422 C 0.3779 0.5907 0.40379 0.0
C423 C 0.40518 0.58998 0.40697 0.0
H424 H 0.33307 0.57955 0.41384 0.0
H425 H 0.59843 0.57588 0.44863 0.0
H426 H 0.93737 0.59054 0.61049 0.0
H427 H 0.94762 0.54697 0.6103 0.0
H428 H 0.84944 0.4828 0.61313 0.0
H429 H 0.83934 0.52594 0.61334 0.0
H430 H 0.88248 0.46514 0.63441 0.0
H431 H 0.88654 0.50056 0.57393 0.0
H432 H 0.90763 0.53937 0.55016 0.0
H433 H 0.99771 0.54966 0.55792 0.0
H434 H 0.97719 0.51117 0.58192 0.0
H435 H 0.83951 0.32393 0.59394 0.0
H436 H 0.84984 0.37495 0.60327 0.0
H437 H 0.94744 0.41162 0.59407 0.0
H438 H 0.93696 0.36014 0.58423 0.0
H439 H 0.9277 0.44857 0.57985 0.0
H440 H 0.92071 0.40482 0.63619 0.0
H441 H 0.89929 0.36542 0.65962 0.0
H442 H 0.81588 0.37077 0.66022 0.0
H443 H 0.83658 0.40988 0.63661 0.0
C444 C 0.91814 0.56712 0.61141 0.0
C445 C 0.88756 0.56157 0.61179 0.0
C446 C 0.92396 0.54227 0.61118 0.0
C447 C 0.89926 0.51156 0.61154 0.0
C448 C 0.86888 0.50621 0.61283 0.0
C449 C 0.8631 0.53088 0.61285 0.0
C450 C 0.90426 0.48462 0.60953 0.0
C451 C 0.89243 0.46152 0.62251 0.0
C452 C 0.91817 0.48028 0.59427 0.0
C453 C 0.93044 0.50334 0.57986 0.0
C454 C 0.9109 0.51131 0.57066 0.0
C455 C 0.92273 0.5332 0.55714 0.0
C456 C 0.95402 0.54706 0.55257 0.0
C457 C 0.97351 0.53897 0.5615 0.0
C458 C 0.96179 0.51713 0.57506 0.0
C459 C 0.86321 0.34277 0.5939 0.0
C460 C 0.88738 0.33796 0.58821 0.0
C461 C 0.86915 0.37196 0.59944 0.0
C462 C 0.89948 0.3972 0.59958 0.0
C463 C 0.92386 0.39249 0.59417 0.0
C464 C 0.91789 0.36305 0.58866 0.0
C465 C 0.90487 0.42853 0.60447 0.0
C466 C 0.91857 0.45245 0.59202 0.0
C467 C 0.89276 0.43367 0.62026 0.0
C468 C 0.88018 0.41023 0.63455 0.0
C469 C 0.89771 0.39746 0.64123 0.0
C470 C 0.88571 0.37519 0.65456 0.0
C471 C 0.85623 0.36558 0.66139 0.0
C472 C 0.83872 0.37826 0.65492 0.0
C473 C 0.8506 0.40052 0.64159 0.0
H474 H 0.84698 0.34833 0.6717 0.0
H475 H 0.96314 0.56399 0.54209 0.0
H476 H 0.58593 0.92502 0.73726 0.0
H477 H 0.53446 0.92081 0.73588 0.0
H478 H 0.50863 0.86817 0.78416 0.0
H479 H 0.55979 0.87272 0.78566 0.0
H480 H 0.46277 0.8431 0.75703 0.0
H481 H 0.53061 0.9412 0.78653 0.0
H482 H 0.57628 0.99355 0.78805 0.0
H483 H 0.5441 0.02043 0.74247 0.0
H484 H 0.49843 0.96804 0.74054 0.0
H485 H 0.33847 0.84246 0.79783 0.0
H486 H 0.39026 0.85219 0.79072 0.0
H487 H 0.39696 0.91384 0.74894 0.0
H488 H 0.34468 0.9043 0.75628 0.0
H489 H 0.45204 0.93597 0.76622 0.0
H490 H 0.381 0.84128 0.73869 0.0
H491 H 0.33523 0.78918 0.7362 0.0
H492 H 0.37304 0.75559 0.77563 0.0
H493 H 0.41885 0.80762 0.77856 0.0
C494 C 0.56904 0.91229 0.74741 0.0
C495 C 0.5768 0.89929 0.76161 0.0
C496 C 0.5398 0.91005 0.74668 0.0
C497 C 0.51779 0.89431 0.75998 0.0
C498 C 0.52524 0.88044 0.77378 0.0
C499 C 0.55449 0.88315 0.77467 0.0
C500 C 0.48711 0.89259 0.76002 0.0
C501 C 0.46039 0.86338 0.75906 0.0
C502 C 0.48399 0.91916 0.76203 0.0
C503 C 0.51135 0.95062 0.76325 0.0
C504 C 0.53343 0.95819 0.77673 0.0
C505 C 0.55928 0.98788 0.77769 0.0
C506 C 0.56315 1.01027 0.76533 0.0
C507 C 0.54111 1.00304 0.75201 0.0
C508 C 0.51524 0.97336 0.75098 0.0
C509 C 0.35095 0.85815 0.78714 0.0
C510 C 0.3373 0.87224 0.77743 0.0
C511 C 0.38058 0.86368 0.78306 0.0
C512 C 0.39726 0.8831 0.76897 0.0
C513 C 0.38442 0.89853 0.75977 0.0
C514 C 0.35464 0.89316 0.76398 0.0
C515 C 0.42763 0.88628 0.76385 0.0
C516 C 0.45428 0.9157 0.76383 0.0
C517 C 0.43073 0.85989 0.76069 0.0
C518 C 0.40331 0.82844 0.75891 0.0
C519 C 0.37948 0.82284 0.74691 0.0
C520 C 0.35353 0.79331 0.74542 0.0
C521 C 0.3512 0.7691 0.75577 0.0
C522 C 0.37487 0.77437 0.76762 0.0
C523 C 0.40086 0.80387 0.76918 0.0
H524 H 0.33109 0.74625 0.75459 0.0
H525 H 0.58317 0.03325 0.76609 0.0
H526 H 0.50332 0.32559 0.91248 0.0
H527 H 0.54588 0.37868 0.91046 0.0
H528 H 0.50129 0.4074 0.94895 0.0
H529 H 0.45834 0.35384 0.9511 0.0
H530 H 0.52762 0.44952 0.92163 0.0
H531 H 0.55945 0.39587 0.96158 0.0
H532 H 0.56849 0.35367 0.97089 0.0
H533 H 0.63219 0.37418 0.92797 0.0
H534 H 0.62319 0.41625 0.91826 0.0
H535 H 0.65917 0.59192 0.94535 0.0
H536 H 0.61382 0.54055 0.94451 0.0
H537 H 0.66179 0.5093 0.91006 0.0
H538 H 0.70809 0.56056 0.91152 0.0
H539 H 0.63319 0.46833 0.93495 0.0
H540 H 0.60264 0.52243 0.89508 0.0
H541 H 0.59353 0.56432 0.88524 0.0
H542 H 0.52771 0.54306 0.92705 0.0
H543 H 0.53673 0.50128 0.93731 0.0
C544 C 0.50251 0.3431 0.92058 0.0
C545 C 0.47761 0.3353 0.93219 0.0
C546 C 0.52688 0.37353 0.91936 0.0
C547 C 0.52714 0.39697 0.9298 0.0
C548 C 0.50166 0.38965 0.94082 0.0
C549 C 0.4771 0.35906 0.94202 0.0
C550 C 0.55458 0.42874 0.92957 0.0
C551 C 0.55065 0.45374 0.92477 0.0
C552 C 0.58479 0.43415 0.9332 0.0
C553 C 0.59043 0.40903 0.9391 0.0
C554 C 0.57522 0.39124 0.95406 0.0
C555 C 0.58036 0.36736 0.95941 0.0
C556 C 0.60084 0.3612 0.95 0.0
C557 C 0.6163 0.37896 0.93524 0.0
C558 C 0.61121 0.40284 0.92981 0.0
C559 C 0.66035 0.57421 0.93766 0.0
C560 C 0.68764 0.58058 0.92862 0.0
C561 C 0.63407 0.5448 0.937 0.0
C562 C 0.63409 0.52099 0.92704 0.0
C563 C 0.6611 0.52727 0.9178 0.0
C564 C 0.68755 0.55674 0.91854 0.0
C565 C 0.60638 0.4893 0.92694 0.0
C566 C 0.61022 0.46423 0.93173 0.0
C567 C 0.57615 0.48386 0.92322 0.0
C568 C 0.57058 0.50889 0.91705 0.0
C569 C 0.58639 0.52683 0.90226 0.0
C570 C 0.58122 0.55053 0.89659 0.0
C571 C 0.56011 0.55639 0.90554 0.0
C572 C 0.54408 0.53851 0.92015 0.0
C573 C 0.54919 0.51479 0.92588 0.0
H574 H 0.55614 0.57476 0.90113 0.0
H575 H 0.60479 0.3427 0.95417 0.0
H576 H 0.36325 0.20322 0.18228 0.0
H577 H 0.34126 0.23455 0.17197 0.0
H578 H 0.34105 0.26478 0.22547 0.0
H579 H 0.36263 0.23303 0.23585 0.0
H580 H 0.28787 0.24807 0.211 0.0
H581 H 0.39258 0.31385 0.19308 0.0
H582 H 0.44218 0.32766 0.17864 0.0
H583 H 0.3967 0.30169 0.12817 0.0
H584 H 0.34672 0.28732 0.14234 0.0
H585 H 0.24425 0.35864 0.18554 0.0
H586 H 0.2738 0.33536 0.19705 0.0
H587 H 0.27053 0.29573 0.14578 0.0
H588 H 0.24176 0.31961 0.13407 0.0
H589 H 0.32754 0.32023 0.16027 0.0
H590 H 0.22233 0.25233 0.17908 0.0
H591 H 0.17315 0.23869 0.19402 0.0
H592 H 0.22096 0.26987 0.24361 0.0
H593 H 0.27052 0.28421 0.22891 0.0
C594 C 0.35912 0.21702 0.19179 0.0
C595 C 0.36472 0.21565 0.20989 0.0
C596 C 0.34651 0.23496 0.18589 0.0
C597 C 0.33972 0.25234 0.19791 0.0
C598 C 0.346 0.25156 0.21593 0.0
C599 C 0.35834 0.23341 0.22185 0.0
C600 C 0.32447 0.26989 0.19182 0.0
C601 C 0.29691 0.26428 0.20011 0.0
C602 C 0.33582 0.29061 0.17738 0.0
C603 C 0.36585 0.29925 0.1688 0.0
C604 C 0.3931 0.31086 0.17892 0.0
C605 C 0.4213 0.31883 0.17078 0.0
C606 C 0.42258 0.31549 0.15251 0.0
C607 C 0.39567 0.30424 0.14233 0.0
C608 C 0.36741 0.29621 0.1504 0.0
C609 C 0.25008 0.34525 0.17666 0.0
C610 C 0.24043 0.34088 0.15888 0.0
C611 C 0.26676 0.33172 0.1833 0.0
C612 C 0.27408 0.31348 0.17233 0.0
C613 C 0.26505 0.3096 0.15451 0.0
C614 C 0.24833 0.32306 0.14787 0.0
C615 C 0.29094 0.29819 0.17938 0.0
C616 C 0.31874 0.3042 0.17126 0.0
C617 C 0.27994 0.278 0.19405 0.0
C618 C 0.25018 0.26968 0.20285 0.0
C619 C 0.2224 0.25658 0.19314 0.0
C620 C 0.19445 0.24868 0.20157 0.0
C621 C 0.19395 0.25351 0.21974 0.0
C622 C 0.22139 0.26624 0.22953 0.0
C623 C 0.24942 0.27427 0.22115 0.0
H624 H 0.17227 0.24732 0.22625 0.0
H625 H 0.44443 0.32168 0.14623 0.0
H626 H 0.91781 0.25536 0.33873 0.0
H627 H 0.97296 0.28742 0.3447 0.0
H628 H 0.99358 0.24591 0.30044 0.0
H629 H 0.93819 0.21292 0.2947 0.0
H630 H 0.02723 0.24868 0.32781 0.0
H631 H 1.00779 0.32091 0.29853 0.0
H632 H 0.98072 0.34965 0.29164 0.0
H633 H 1.00099 0.38978 0.34366 0.0
H634 H 0.0278 0.3609 0.35097 0.0
H635 H 0.18827 0.35648 0.33912 0.0
H636 H 0.13732 0.33295 0.32478 0.0
H637 H 0.09866 0.34982 0.37169 0.0
H638 H 0.14953 0.37313 0.3861 0.0
H639 H 0.07705 0.36179 0.3385 0.0
H640 H 0.09132 0.28286 0.3677 0.0
H641 H 0.11929 0.25449 0.3732 0.0
H642 H 0.10992 0.22804 0.31849 0.0
H643 H 0.08228 0.25668 0.31262 0.0
C644 C 0.93398 0.25291 0.33026 0.0
C645 C 0.92341 0.23139 0.31627 0.0
C646 C 0.96562 0.27159 0.33357 0.0
C647 C 0.98752 0.26946 0.32286 0.0
C648 C 0.97713 0.24815 0.30881 0.0
C649 C 0.94541 0.22942 0.30547 0.0
C650 C 1.02112 0.28853 0.32697 0.0
C651 C 0.03824 0.2735 0.32976 0.0
C652 C 0.03557 0.32094 0.32967 0.0
C653 C 1.01963 0.33855 0.32534 0.0
C654 C 1.00629 0.33569 0.30855 0.0
C655 C 0.99102 0.35204 0.30456 0.0
C656 C 0.98909 0.37149 0.31722 0.0
C657 C 1.00249 0.37469 0.33387 0.0
C658 C 1.01777 0.35836 0.33794 0.0
C659 C 0.16907 0.35582 0.3462 0.0
C660 C 0.17277 0.36656 0.36373 0.0
C661 C 0.13998 0.34223 0.33804 0.0
C662 C 0.11424 0.33952 0.34723 0.0
C663 C 0.11825 0.35175 0.36438 0.0
C664 C 0.14721 0.3649 0.37262 0.0
C665 C 0.08268 0.32176 0.33962 0.0
C666 C 0.06602 0.33705 0.33622 0.0
C667 C 0.06878 0.28968 0.33611 0.0
C668 C 0.08509 0.27221 0.33968 0.0
C669 C 0.09547 0.27121 0.35682 0.0
C670 C 0.11121 0.25505 0.36001 0.0
C671 C 0.11647 0.23955 0.34619 0.0
C672 C 0.10589 0.24011 0.32917 0.0
C673 C 0.09018 0.25629 0.3259 0.0
H674 H 0.12867 0.22705 0.34869 0.0
H675 H 0.97724 0.38413 0.31411 0.0
H676 H 0.83018 0.14199 0.50433 0.0
H677 H 0.79761 0.08802 0.49577 0.0
H678 H 0.77736 0.06244 0.55056 0.0
H679 H 0.80967 0.11668 0.5593 0.0
H680 H 0.79127 0.02333 0.53227 0.0
H681 H 0.72345 0.06454 0.52503 0.0
H682 H 0.70765 0.10137 0.51448 0.0
H683 H 0.71741 0.07981 0.46069 0.0
H684 H 0.73372 0.04317 0.47092 0.0
H685 H 0.67696 0.86957 0.51006 0.0
H686 H 0.7008 0.92185 0.52241 0.0
H687 H 0.72374 0.95991 0.46987 0.0
H688 H 0.69897 0.90779 0.45741 0.0
H689 H 0.705 0.99174 0.48954 0.0
H690 H 0.7771 0.95458 0.49642 0.0
H691 H 0.79406 0.91834 0.50643 0.0
H692 H 0.77726 0.93283 0.56035 0.0
H693 H 0.75979 0.96885 0.55062 0.0
C694 C 0.81857 0.12507 0.51461 0.0
C695 C 0.82244 0.1339 0.53253 0.0
C696 C 0.79997 0.09412 0.50967 0.0
C697 C 0.78469 0.07123 0.5225 0.0
C698 C 0.78889 0.07975 0.54043 0.0
C699 C 0.80748 0.11079 0.5454 0.0
C700 C 0.7647 0.03842 0.5171 0.0
C701 C 0.77203 0.01629 0.52319 0.0
C702 C 0.73998 0.02936 0.50497 0.0
C703 C 0.73006 0.05129 0.49876 0.0
C704 C 0.72246 0.06783 0.51095 0.0
C705 C 0.71338 0.08864 0.50503 0.0
C706 C 0.71159 0.09298 0.48693 0.0
C707 C 0.71883 0.07645 0.47471 0.0
C708 C 0.72796 0.05563 0.48057 0.0
C709 C 0.68653 0.889 0.5011 0.0
C710 C 0.68632 0.88441 0.48273 0.0
C711 C 0.70046 0.91893 0.50821 0.0
C712 C 0.71461 0.94485 0.4971 0.0
C713 C 0.7132 0.94031 0.47873 0.0
C714 C 0.69923 0.91045 0.47163 0.0
C715 C 0.73184 0.97672 0.50451 0.0
C716 C 0.724 0.99869 0.49878 0.0
C717 C 0.75619 0.98567 0.5169 0.0
C718 C 0.76681 0.96412 0.52278 0.0
C719 C 0.7768 0.94985 0.5104 0.0
C720 C 0.78653 0.92938 0.51602 0.0
C721 C 0.78665 0.92321 0.53401 0.0
C722 C 0.7771 0.93758 0.54642 0.0
C723 C 0.76729 0.95803 0.54086 0.0
H724 H 0.7942 0.90737 0.53835 0.0
H725 H 0.70455 0.1091 0.48237 0.0
H726 H 0.81108 0.68366 0.68151 0.0
H727 H 0.78276 0.70941 0.69102 0.0
H728 H 0.77048 0.72664 0.63659 0.0
H729 H 0.7995 0.70139 0.62704 0.0
H730 H 0.78599 0.77612 0.65509 0.0
H731 H 0.70988 0.66977 0.66228 0.0
H732 H 0.68871 0.61606 0.67248 0.0
H733 H 0.70275 0.64707 0.72646 0.0
H734 H 0.7244 0.70103 0.71659 0.0
H735 H 0.67982 0.82738 0.67803 0.0
H736 H 0.70111 0.79656 0.66559 0.0
H737 H 0.72486 0.78138 0.71797 0.0
H738 H 0.70282 0.81133 0.73053 0.0
H739 H 0.70019 0.72901 0.69849 0.0
H740 H 0.77866 0.83599 0.69052 0.0
H741 H 0.79958 0.88935 0.67978 0.0
H742 H 0.77992 0.85609 0.62625 0.0
H743 H 0.75842 0.80246 0.63671 0.0
C744 C 0.80202 0.69257 0.67156 0.0
C745 C 0.80737 0.6903 0.65352 0.0
C746 C 0.78576 0.70728 0.67701 0.0
C747 C 0.77392 0.71951 0.66453 0.0
C748 C 0.77928 0.71732 0.64648 0.0
C749 C 0.7959 0.70292 0.64104 0.0
C750 C 0.75687 0.73545 0.67039 0.0
C751 C 0.76684 0.76555 0.66433 0.0
C752 C 0.73218 0.72195 0.68268 0.0
C753 C 0.71899 0.68949 0.68868 0.0
C754 C 0.70864 0.66516 0.67632 0.0
C755 C 0.69653 0.63467 0.68205 0.0
C756 C 0.69444 0.62816 0.7001 0.0
C757 C 0.70439 0.65214 0.71248 0.0
C758 C 0.71656 0.68269 0.70682 0.0
C759 C 0.68916 0.81715 0.68694 0.0
C760 C 0.68975 0.82204 0.7053 0.0
C761 C 0.70161 0.79976 0.67978 0.0
C762 C 0.71497 0.787 0.69082 0.0
C763 C 0.7148 0.79111 0.70917 0.0
C764 C 0.70241 0.80848 0.71633 0.0
C765 C 0.72959 0.76972 0.68335 0.0
C766 C 0.71914 0.73939 0.68912 0.0
C767 C 0.75368 0.78292 0.6707 0.0
C768 C 0.76655 0.81517 0.66442 0.0
C769 C 0.77851 0.84002 0.67648 0.0
C770 C 0.79052 0.87033 0.67043 0.0
C771 C 0.79097 0.8761 0.65235 0.0
C772 C 0.77948 0.85158 0.64026 0.0
C773 C 0.76737 0.82123 0.64624 0.0
H774 H 0.8003 0.89958 0.6477 0.0
H775 H 0.68506 0.60454 0.70451 0.0
H776 H 0.86609 0.68204 0.84613 0.0
H777 H 0.91841 0.70391 0.83421 0.0
H778 H 0.9498 0.6868 0.88386 0.0
H779 H 0.8976 0.666 0.89597 0.0
H780 H 0.98798 0.74137 0.87447 0.0
H781 H 0.9417 0.64466 0.8436 0.0
H782 H 0.9036 0.60234 0.82473 0.0
H783 H 0.92635 0.66532 0.78138 0.0
H784 H 0.9643 0.70814 0.80006 0.0
H785 H 0.13636 0.77649 0.84514 0.0
H786 H 0.0824 0.74677 0.85426 0.0
H787 H 0.05513 0.78074 0.8094 0.0
H788 H 0.10924 0.8112 0.80029 0.0
H789 H 1.01546 0.71707 0.81585 0.0
H790 H 0.06038 0.81376 0.84806 0.0
H791 H 0.09901 0.85498 0.86731 0.0
H792 H 0.07911 0.78897 0.90868 0.0
H793 H 0.04076 0.74727 0.88954 0.0
C794 C 0.88402 0.68235 0.85435 0.0
C795 C 0.87778 0.67221 0.87196 0.0
C796 C 0.91398 0.69483 0.84752 0.0
C797 C 0.93816 0.69674 0.85803 0.0
C798 C 0.93165 0.68568 0.87546 0.0
C799 C 0.90183 0.67372 0.88238 0.0
C800 C 0.9706 0.71221 0.85133 0.0
C801 C 0.99392 0.73554 0.86178 0.0
C802 C 0.97851 0.70536 0.83455 0.0
C803 C 0.95562 0.67968 0.8233 0.0
C804 C 0.93839 0.64955 0.83009 0.0
C805 C 0.91685 0.62546 0.81942 0.0
C806 C 0.91249 0.63115 0.80189 0.0
C807 C 0.92972 0.66095 0.79497 0.0
C808 C 0.95126 0.68513 0.80559 0.0
C809 C 0.11904 0.77788 0.83721 0.0
C810 C 0.12744 0.79677 0.82211 0.0
C811 C 0.08812 0.76069 0.84241 0.0
C812 C 0.06484 0.7619 0.83264 0.0
C813 C 0.0728 0.77955 0.81714 0.0
C814 C 0.10381 0.79692 0.81194 0.0
C815 C 0.03243 0.74573 0.83909 0.0
C816 C 1.00926 0.72252 0.82857 0.0
C817 C 0.02462 0.75237 0.85588 0.0
C818 C 0.04785 0.77738 0.86734 0.0
C819 C 0.06444 0.808 0.86121 0.0
C820 C 0.08626 0.83146 0.8721 0.0
C821 C 0.09156 0.82459 0.88919 0.0
C822 C 0.07505 0.79425 0.89542 0.0
C823 C 0.05327 0.7707 0.88456 0.0
H824 H 0.10841 0.84279 0.89762 0.0
H825 H 0.89581 0.61247 0.79365 0.0
H826 H 0.18166 0.8805 0.02912 0.0
H827 H 0.20621 0.93216 0.01579 0.0
H828 H 0.29619 0.94202 0.02484 0.0
H829 H 0.2718 0.89049 0.03809 0.0
H830 H 0.28952 0.99222 0.03724 0.0
H831 H 0.26927 0.92939 0.98486 0.0
H832 H 0.23679 0.8882 0.96365 0.0
H833 H 0.18292 0.9322 0.95385 0.0
H834 H 0.21473 0.97338 0.97525 0.0
H835 H 0.38451 0.131 0.99235 0.0
H836 H 0.35861 0.07728 1.00222 0.0
H837 H 0.27167 0.06396 0.98213 0.0
H838 H 0.29774 0.11753 0.97186 0.0
H839 H 0.27512 0.01495 0.97531 0.0
H840 H 0.29088 0.07558 0.02722 0.0
H841 H 0.32004 0.11698 0.04902 0.0
H842 H 0.37745 0.07758 0.06079 0.0
H843 H 0.34889 0.03615 0.03886 0.0
C844 C 0.20666 0.89368 0.02819 0.0
C845 C 0.22482 0.88147 0.03463 0.0
C846 C 0.22062 0.92305 0.02049 0.0
C847 C 0.25299 0.94081 0.01928 0.0
C848 C 0.27116 0.92861 0.02561 0.0
C849 C 0.25721 0.89911 0.03307 0.0
C850 C 0.26809 0.97271 1.01219 0.0
C851 C 0.28673 0.99721 0.02363 0.0
C852 C 0.26341 0.97917 0.99463 0.0
C853 C 0.24414 0.95426 0.98186 0.0
C854 C 0.25026 0.93009 0.97836 0.0
C855 C 0.23202 0.90678 0.96626 0.0
C856 C 0.20773 0.90751 0.95746 0.0
C857 C 0.20169 0.93161 0.96071 0.0
C858 C 0.21982 0.95494 0.97283 0.0
C859 C 0.35987 0.11663 0.99009 0.0
C860 C 0.34312 0.12857 0.98149 0.0
C861 C 0.34505 0.08593 0.99576 0.0
C862 C 0.31301 0.06669 0.99329 0.0
C863 C 0.29637 0.07834 0.98427 0.0
C864 C 0.31129 0.10896 0.97838 0.0
C865 C 0.29687 0.0346 1.00032 0.0
C866 C 0.27794 1.01005 0.98892 0.0
C867 C 0.3007 0.02807 0.01805 0.0
C868 C 0.31793 0.05293 0.03127 0.0
C869 C 0.30987 0.07587 0.03436 0.0
C870 C 0.32627 0.09932 0.04675 0.0
C871 C 0.35063 0.09995 0.05625 0.0
C872 C 0.3586 0.07708 0.0534 0.0
C873 C 0.3423 0.0536 0.041 0.0
H874 H 0.36329 0.11812 0.06585 0.0
H875 H 0.19366 0.88946 0.94808 0.0
H876 H 0.20174 0.3099 0.09032 0.0
H877 H 0.2288 0.29521 0.06891 0.0
H878 H 0.17994 0.30981 0.02634 0.0
H879 H 0.15347 0.32555 0.04772 0.0
H880 H 0.21331 0.25159 0.04659 0.0
H881 H 0.22426 0.33366 0.98929 0.0
H882 H 0.22849 0.38472 0.98522 0.0
H883 H 0.26661 0.41198 0.03741 0.0
H884 H 0.26301 0.36128 0.0417 0.0
H885 H 0.25864 0.2017 0.97209 0.0
H886 H 0.23157 0.22032 0.99094 0.0
H887 H 0.31496 0.30905 0.99541 0.0
H888 H 0.34189 0.29076 0.97578 0.0
H889 H 0.26749 0.31783 0.99503 0.0
H890 H 0.29277 0.25205 0.02796 0.0
H891 H 0.29504 0.20476 0.0344 0.0
H892 H 0.19571 0.15176 0.03547 0.0
H893 H 0.19285 0.19867 0.02879 0.0
C894 C 0.19655 0.30983 0.07641 0.0
C895 C 0.17545 0.31904 0.07076 0.0
C896 C 0.21211 0.3014 0.06414 0.0
C897 C 0.20689 0.30181 0.04592 0.0
C898 C 0.185 0.30996 0.04027 0.0
C899 C 0.16964 0.31872 0.05254 0.0
C900 C 0.22437 0.29367 0.03293 0.0
C901 C 0.22506 0.2661 0.03532 0.0
C902 C 0.24049 0.31286 0.01839 0.0
C903 C 0.24304 0.34354 0.01587 0.0
C904 C 0.23364 0.3506 0.99987 0.0
C905 C 0.23592 0.37947 0.99753 0.0
C906 C 0.24771 0.40153 1.01107 0.0
C907 C 0.25737 0.39482 0.02696 0.0
C908 C 0.25518 0.36601 0.02936 0.0
C909 C 0.27113 0.22535 0.97687 0.0
C910 C 0.30249 0.24468 0.97258 0.0
C911 C 0.25566 0.23593 0.98776 0.0
C912 C 0.27138 0.26583 0.99508 0.0
C913 C 0.30231 0.2858 0.99006 0.0
C914 C 0.31771 0.27536 0.97883 0.0
C915 C 0.25588 0.27549 1.00856 0.0
C916 C 0.2556 0.30331 1.00628 0.0
C917 C 0.24099 0.25706 0.02357 0.0
C918 C 0.2426 0.22883 0.02772 0.0
C919 C 0.27141 0.23027 0.02946 0.0
C920 C 0.27281 0.20354 0.03317 0.0
C921 C 0.24554 0.17526 0.0353 0.0
C922 C 0.21682 0.17367 0.03379 0.0
C923 C 0.21529 0.20033 0.03006 0.0
H924 H 0.24666 0.15459 0.03816 0.0
H925 H 0.24942 0.42386 1.00924 0.0
H926 H 0.89005 0.16832 0.24723 0.0
H927 H 0.93153 0.19031 0.22514 0.0
H928 H 0.88774 0.23626 0.20018 0.0
H929 H 0.84641 0.21462 0.22224 0.0
H930 H 0.91034 0.21003 0.17581 0.0
H931 H 0.94576 0.27633 0.22699 0.0
H932 H 0.9578 0.2887 0.25861 0.0
H933 H 1.02286 0.25604 0.25643 0.0
H934 H 1.01088 0.24305 0.22483 0.0
H935 H 0.03634 0.32387 0.12556 0.0
H936 H 0.9927 0.296 0.14572 0.0
H937 H 0.04451 0.26194 0.17427 0.0
H938 H 0.08843 0.29032 0.15446 0.0
H939 H 1.01745 0.28034 0.19686 0.0
H940 H 0.98336 0.21526 0.14545 0.0
H941 H 0.97117 0.20257 0.11388 0.0
H942 H 0.90351 0.23191 0.11644 0.0
H943 H 0.91559 0.24516 0.14798 0.0
C944 C 0.88899 0.18271 0.23688 0.0
C945 C 0.86494 0.18977 0.23652 0.0
C946 C 0.91282 0.19541 0.22432 0.0
C947 C 0.9129 0.21519 0.2111 0.0
C948 C 0.88819 0.22112 0.21026 0.0
C949 C 0.86461 0.20876 0.22292 0.0
C950 C 0.93934 0.23079 0.19859 0.0
C951 C 0.93373 0.22563 0.18038 0.0
C952 C 0.96996 0.25068 0.20458 0.0
C953 C 0.97718 0.25841 0.22358 0.0
C954 C 0.96242 0.27151 0.23329 0.0
C955 C 0.96927 0.27868 0.2512 0.0
C956 C 0.99104 0.27311 0.25952 0.0
C957 C 1.00598 0.26032 0.24996 0.0
C958 C 0.99919 0.25306 0.23205 0.0
C959 C 0.0384 0.31031 0.13606 0.0
C960 C 0.06594 0.30934 0.13832 0.0
C961 C 1.01333 0.29424 0.14757 0.0
C962 C 1.01504 0.27647 0.16147 0.0
C963 C 0.04251 0.27543 0.1637 0.0
C964 C 0.06762 0.29164 0.15229 0.0
C965 C 0.98859 0.25959 0.17394 0.0
C966 C 0.99415 0.26459 0.19221 0.0
C967 C 0.95793 0.23945 0.168 0.0
C968 C 0.9506 0.23148 0.14904 0.0
C969 C 0.96605 0.21923 0.13924 0.0
C970 C 0.95914 0.2119 0.12136 0.0
C971 C 0.93664 0.2165 0.11315 0.0
C972 C 0.92096 0.22839 0.12281 0.0
C973 C 0.92781 0.23579 0.1407 0.0
H974 H 0.93131 0.21081 0.0993 0.0
H975 H 0.99643 0.27885 0.27335 0.0
H976 H 0.85272 0.07887 0.31281 0.0
H977 H 0.83612 0.03431 0.332 0.0
H978 H 0.74143 1.01391 0.32759 0.0
H979 H 0.75809 0.05923 0.30856 0.0
H980 H 0.75447 1.00927 0.36102 0.0
H981 H 0.76761 0.96919 0.30636 0.0
H982 H 0.7943 0.96811 0.27914 0.0
H983 H 0.86675 0.96848 0.31007 0.0
H984 H 0.84071 0.96999 0.33749 0.0
H985 H 0.69265 0.86034 0.40047 0.0
H986 H 0.70573 0.90104 0.37864 0.0
H987 H 0.8029 0.93444 0.38724 0.0
H988 H 0.79003 0.8939 0.4093 0.0
H989 H 0.7861 0.93048 0.35099 0.0
H990 H 0.77278 0.97197 0.40564 0.0
H991 H 0.74461 0.97109 0.43265 0.0
H992 H 0.67072 0.96639 0.40111 0.0
H993 H 0.6982 0.96667 0.3739 0.0
C994 C 0.82828 0.06482 0.31574 0.0
C995 C 0.80674 0.07267 0.30904 0.0
C996 C 0.81878 0.03916 0.32671 0.0
C997 C 0.78743 0.02037 0.33114 0.0
C998 C 0.76575 0.02796 0.32437 0.0
C999 C 0.77529 0.0538 0.3134 0.0
C1000 C 0.77767 0.99352 0.34328 0.0
C1001 C 0.76094 0.99177 0.35863 0.0
C1002 C 0.78658 0.97089 0.34045 0.0
C1003 C 0.80233 0.96998 0.32398 0.0
C1004 C 0.78936 0.96928 0.30736 0.0
C1005 C 0.80435 0.96855 0.29189 0.0
C1006 C 0.83224 0.9683 0.29287 0.0
C1007 C 0.84516 0.96871 0.30933 0.0
C1008 C 0.83027 0.96947 0.32484 0.0
C1009 C 0.71683 0.8762 0.39767 0.0
C1010 C 0.74031 0.87385 0.40669 0.0
C1011 C 0.72425 0.89953 0.38522 0.0
C1012 C 0.75529 0.92092 0.38139 0.0
C1013 C 0.77879 0.9182 0.39 0.0
C1014 C 0.7714 0.89506 0.40264 0.0
C1015 C 0.76317 0.94648 0.36865 0.0
C1016 C 0.77953 0.94794 0.35325 0.0
C1017 C 0.75377 0.96871 0.37138 0.0
C1018 C 0.7374 0.96901 0.38772 0.0
C1019 C 0.7504 0.97049 0.40446 0.0
C1020 C 0.73458 0.97014 0.41981 0.0
C1021 C 0.70586 0.96861 0.4186 0.0
C1022 C 0.69295 0.96753 0.40203 0.0
C1023 C 0.70864 0.96779 0.38664 0.0
H1024 H 0.69365 0.96832 0.43049 0.0
H1025 H 0.8438 0.96773 0.28088 0.0
H1026 H 0.89683 0.77365 0.58511 0.0
H1027 H 0.87158 0.78582 0.56121 0.0
H1028 H 0.82463 0.69021 0.54463 0.0
H1029 H 0.85041 0.6781 0.5681 0.0
H1030 H 0.84142 0.72457 0.51676 0.0
H1031 H 0.78914 0.72226 0.57019 0.0
H1032 H 0.7841 0.7364 0.60078 0.0
H1033 H 0.81916 0.8307 0.58502 0.0
H1034 H 0.82492 0.81721 0.55436 0.0
H1035 H 0.70947 0.71475 0.47339 0.0
H1036 H 0.74438 0.71011 0.49429 0.0
H1037 H 0.80003 0.80945 0.49728 0.0
H1038 H 0.7654 0.81433 0.47605 0.0
H1039 H 0.78192 0.77728 0.53122 0.0
H1040 H 0.82956 0.77509 0.4762 0.0
H1041 H 0.83 0.75653 0.44601 0.0
H1042 H 0.79752 0.6648 0.46573 0.0
H1043 H 0.79645 0.68273 0.49602 0.0
C1044 C 0.88138 0.75528 0.57627 0.0
C1045 C 0.8756 0.72487 0.57861 0.0
C1046 C 0.86677 0.76223 0.56265 0.0
C1047 C 0.84569 0.73885 0.55125 0.0
C1048 C 0.84071 0.7087 0.55323 0.0
C1049 C 0.85549 0.70179 0.56671 0.0
C1050 C 0.82824 0.74545 0.53751 0.0
C1051 C 0.82826 0.7359 0.52001 0.0
C1052 C 0.81125 0.76058 0.54159 0.0
C1053 C 0.80782 0.76879 0.56001 0.0
C1054 C 0.79604 0.74607 0.57327 0.0
C1055 C 0.79301 0.75396 0.59062 0.0
C1056 C 0.80138 0.78445 0.59485 0.0
C1057 C 0.81275 0.8071 0.58173 0.0
C1058 C 0.8159 0.79935 0.56436 0.0
C1059 C 0.72931 0.73565 0.47833 0.0
C1060 C 0.73469 0.76492 0.473 0.0
C1061 C 0.74925 0.73294 0.49028 0.0
C1062 C 0.77481 0.75942 0.49735 0.0
C1063 C 0.78043 0.78872 0.49199 0.0
C1064 C 0.76074 0.79146 0.47978 0.0
C1065 C 0.7951 0.75626 0.51062 0.0
C1066 C 0.79545 0.76632 0.52802 0.0
C1067 C 0.81186 0.74099 0.50656 0.0
C1068 C 0.81268 0.73021 0.48836 0.0
C1069 C 0.82227 0.75091 0.47408 0.0
C1070 C 0.82268 0.74051 0.45695 0.0
C1071 C 0.81373 0.70949 0.45395 0.0
C1072 C 0.80442 0.68882 0.46807 0.0
C1073 C 0.80395 0.69909 0.48523 0.0
H1074 H 0.81406 0.70149 0.44067 0.0
H1075 H 0.79898 0.7905 0.60829 0.0
H1076 H 0.13303 0.87226 0.75162 0.0
H1077 H 0.09654 0.84454 0.72774 0.0
H1078 H 0.15431 0.80808 0.70989 0.0
H1079 H 0.19121 0.83599 0.73375 0.0
H1080 H 0.1304 0.8251 0.68205 0.0
H1081 H 0.0924 0.76432 0.73448 0.0
H1082 H 0.07675 0.75455 0.76577 0.0
H1083 H 1.00508 0.7767 0.75608 0.0
H1084 H 1.02071 0.78724 0.72479 0.0
H1085 H 1.01183 0.7039 0.62939 0.0
H1086 H 0.05317 0.73397 0.65072 0.0
H1087 H 0.99778 0.76941 0.67379 0.0
H1088 H 0.95629 0.73913 0.65279 0.0
H1089 H 1.02185 0.75133 0.69897 0.0
H1090 H 0.0612 0.81405 0.64682 0.0
H1091 H 0.07754 0.82477 0.61566 0.0
H1092 H 0.14659 0.79878 0.62487 0.0
H1093 H 0.13038 0.78751 0.65605 0.0
C1094 C 0.13824 0.85864 0.74253 0.0
C1095 C 0.16501 0.85622 0.74472 0.0
C1096 C 0.11723 0.84267 0.7289 0.0
C1097 C 0.1224 0.8238 0.71718 0.0
C1098 C 0.14976 0.82239 0.71882 0.0
C1099 C 0.17082 0.83835 0.73249 0.0
C1100 C 0.09861 0.80468 0.7037 0.0
C1101 C 0.10675 0.80865 0.68575 0.0
C1102 C 0.06762 0.78352 0.70851 0.0
C1103 C 0.05792 0.77685 0.7273 0.0
C1104 C 0.07346 0.76735 0.73904 0.0
C1105 C 0.06458 0.76166 0.75678 0.0
C1106 C 0.03997 0.76505 0.76292 0.0
C1107 C 0.02416 0.77411 0.75131 0.0
C1108 C 0.03302 0.77995 0.73357 0.0
C1109 C 1.00853 0.71827 0.63891 0.0
C1110 C 0.98067 0.71905 0.63933 0.0
C1111 C 0.03226 0.73555 0.65109 0.0
C1112 C 0.02876 0.75419 0.66385 0.0
C1113 C 1.00108 0.75519 0.66415 0.0
C1114 C 0.97737 0.7379 0.65205 0.0
C1115 C 0.05343 0.77204 0.67722 0.0
C1116 C 0.04547 0.76773 0.69522 0.0
C1117 C 0.08456 0.79284 0.67245 0.0
C1118 C 0.09434 0.79962 0.65372 0.0
C1119 C 0.07969 0.81038 0.64216 0.0
C1120 C 0.08897 0.8166 0.62451 0.0
C1121 C 0.11303 0.81237 0.61828 0.0
C1122 C 0.12792 0.80199 0.62971 0.0
C1123 C 0.11872 0.79571 0.64737 0.0
H1124 H 0.12018 0.81721 0.6046 0.0
H1125 H 0.0331 0.76058 0.77665 0.0
H1126 H 0.26662 0.13796 0.91075 0.0
H1127 H 0.25466 0.0964 0.88956 0.0
H1128 H 0.3511 0.13923 0.87527 0.0
H1129 H 0.3633 0.18117 0.89636 0.0
H1130 H 0.31412 0.11582 0.84632 0.0
H1131 H 0.32124 0.08 0.90328 0.0
H1132 H 0.3106 0.0692 0.93507 0.0
H1133 H 0.21457 1.0071 0.9237 0.0
H1134 H 0.22448 0.01803 0.89185 0.0
H1135 H 0.29034 0.97322 0.80538 0.0
H1136 H 0.31026 0.02042 0.82352 0.0
H1137 H 0.21775 0.9909 0.84196 0.0
H1138 H 0.19784 0.94422 0.82408 0.0
H1139 H 0.25872 1.00846 0.86917 0.0
H1140 H 0.25265 0.04846 0.81191 0.0
H1141 H 0.26495 0.0597 0.78028 0.0
H1142 H 0.36179 0.11349 0.79274 0.0
H1143 H 0.35008 0.10222 0.82444 0.0
C1144 C 0.28529 0.13882 0.90297 0.0
C1145 C 0.31597 0.16286 0.90538 0.0
C1146 C 0.27842 0.1149 0.8909 0.0
C1147 C 0.30206 0.11436 0.88103 0.0
C1148 C 0.3325 0.13906 0.88279 0.0
C1149 C 0.33942 0.16302 0.89488 0.0
C1150 C 0.295 0.08743 0.86942 0.0
C1151 C 0.30241 0.09237 0.85136 0.0
C1152 C 0.27967 0.05678 0.87597 0.0
C1153 C 0.27357 0.05008 0.89515 0.0
C1154 C 0.29779 0.06426 0.90756 0.0
C1155 C 0.2919 0.05809 0.92559 0.0
C1156 C 0.26192 0.03752 0.9314 0.0
C1157 C 0.23777 0.02306 0.91918 0.0
C1158 C 0.24352 0.02925 0.90113 0.0
C1159 C 0.27425 0.977 0.81316 0.0
C1160 C 0.24249 0.95481 0.81328 0.0
C1161 C 0.28565 1.00397 0.82352 0.0
C1162 C 0.26549 1.00919 0.83417 0.0
C1163 C 0.2338 0.98735 0.83398 0.0
C1164 C 0.22244 0.96063 0.82365 0.0
C1165 C 0.27702 0.03676 0.84597 0.0
C1166 C 0.27059 0.03192 0.86414 0.0
C1167 C 0.2935 0.06744 0.83955 0.0
C1168 C 0.30052 0.07419 0.82051 0.0
C1169 C 0.27659 0.06245 0.80788 0.0
C1170 C 0.28345 0.06887 0.78995 0.0
C1171 C 0.31414 0.08721 0.7845 0.0
C1172 C 0.33803 0.09923 0.79698 0.0
C1173 C 0.3313 0.09285 0.81493 0.0
H1174 H 0.3194 0.09217 0.77061 0.0
H1175 H 0.25741 0.03274 0.94537 0.0
H1176 H 0.7897 0.90758 0.77788 0.0
H1177 H 0.80149 0.88109 0.80124 0.0
H1178 H 0.70455 0.82899 0.81471 0.0
H1179 H 0.69282 0.85597 0.7919 0.0
H1180 H 0.7362 0.84516 0.84357 0.0
H1181 H 0.74266 0.79863 0.7892 0.0
H1182 H 0.76145 0.79776 0.75916 0.0
H1183 H 0.85426 0.83627 0.77898 0.0
H1184 H 0.83606 0.83776 0.80912 0.0
H1185 H 0.72293 0.71037 0.88317 0.0
H1186 H 0.72111 0.74803 0.86338 0.0
H1187 H 0.82075 0.80276 0.86456 0.0
H1188 H 0.82277 0.76515 0.88465 0.0
H1189 H 0.79381 0.79027 0.82974 0.0
H1190 H 0.78302 0.83019 0.8855 0.0
H1191 H 0.76058 0.82686 0.91501 0.0
H1192 H 0.67125 0.79576 0.89163 0.0
H1193 H 0.69306 0.79847 0.86198 0.0
C1194 C 0.77094 0.8906 0.78589 0.0
C1195 C 0.74031 0.88388 0.78295 0.0
C1196 C 0.77768 0.87533 0.79919 0.0
C1197 C 0.75387 0.85265 0.80965 0.0
C1198 C 0.72339 0.84637 0.8069 0.0
C1199 C 0.71669 0.86182 0.79377 0.0
C1200 C 0.76031 0.83503 0.8233 0.0
C1201 C 0.74864 0.83303 0.84046 0.0
C1202 C 0.77707 0.81958 0.81947 0.0
C1203 C 0.78806 0.81866 0.80137 0.0
C1204 C 0.76711 0.80714 0.78713 0.0
C1205 C 0.77765 0.8065 0.77009 0.0
C1206 C 0.80905 0.81705 0.76715 0.0
C1207 C 0.82996 0.82818 0.78127 0.0
C1208 C 0.81955 0.82891 0.79833 0.0
C1209 C 0.74448 0.73057 0.87939 0.0
C1210 C 0.773 0.73479 0.88552 0.0
C1211 C 0.74339 0.75211 0.86809 0.0
C1212 C 0.77078 0.77825 0.86253 0.0
C1213 C 0.79934 0.78275 0.86872 0.0
C1214 C 0.80044 0.76136 0.88027 0.0
C1215 C 0.76927 0.80014 0.84981 0.0
C1216 C 0.78179 0.80283 0.83285 0.0
C1217 C 0.75279 0.81575 0.85371 0.0
C1218 C 0.73965 0.81433 0.87152 0.0
C1219 C 0.75854 0.82242 0.88665 0.0
C1220 C 0.74594 0.82069 0.90341 0.0
C1221 C 0.7145 0.81106 0.9052 0.0
C1222 C 0.6956 0.80321 0.89023 0.0
C1223 C 0.70808 0.80488 0.87344 0.0
H1224 H 0.70479 0.80972 0.91818 0.0
H1225 H 0.81716 0.81653 0.75395 0.0
H1226 H 0.91221 0.77213 0.94072 0.0
H1227 H 0.95228 0.77956 0.96204 0.0
H1228 H 0.89365 0.68724 0.98178 0.0
H1229 H 0.85321 0.67993 0.96084 0.0
H1230 H 0.92294 0.72439 1.00841 0.0
H1231 H 0.952 0.70352 0.95204 0.0
H1232 H 0.96237 0.71148 0.92006 0.0
H1233 H 0.03729 0.80343 0.92997 0.0
H1234 H 0.027 0.79622 0.96203 0.0
H1235 H 0.08004 0.72599 0.02287 0.0
H1236 H 0.03655 0.71835 1.00446 0.0
H1237 H 1.02024 0.77751 0.03928 0.0
H1238 H 0.06332 0.78452 0.05808 0.0
H1239 H 0.02768 0.75562 0.98531 0.0
H1240 H 0.94446 0.75799 0.03818 0.0
H1241 H 0.93042 0.74358 0.06937 0.0
H1242 H 0.96003 0.67629 0.06536 0.0
H1243 H 0.97387 0.69002 0.0341 0.0
C1244 C 0.9077 0.75349 0.9497 0.0
C1245 C 0.87952 0.72535 0.94896 0.0
C1246 C 0.93072 0.75773 0.96186 0.0
C1247 C 0.92626 0.73378 0.97337 0.0
C1248 C 0.89773 0.70607 0.97306 0.0
C1249 C 0.87462 0.7019 0.96101 0.0
C1250 C 0.9517 0.73708 0.98521 0.0
C1251 C 0.94588 0.73135 1.00337 0.0
C1252 C 0.98148 0.74538 0.97863 0.0
C1253 C 0.9885 0.74945 0.95943 0.0
C1254 C 0.97061 0.72549 0.9474 0.0
C1255 C 0.97645 0.72986 0.92926 0.0
C1256 C 1.00035 0.758 0.923 0.0
C1257 C 1.0187 0.78169 0.93486 0.0
C1258 C 1.01288 0.77747 0.95302 0.0
C1259 C 0.06702 0.73715 0.02674 0.0
C1260 C 0.07514 0.75579 0.04201 0.0
C1261 C 0.0422 0.73288 0.01612 0.0
C1262 C 0.02489 0.74722 0.02043 0.0
C1263 C 0.03282 0.76573 0.03576 0.0
C1264 C 0.05752 0.76977 0.04652 0.0
C1265 C 0.99907 0.74324 1.00862 0.0
C1266 C 1.00483 0.74885 0.99042 0.0
C1267 C 0.96897 0.73388 0.0151 0.0
C1268 C 0.96051 0.7253 0.03386 0.0
C1269 C 0.94789 0.74006 0.04394 0.0
C1270 C 0.93998 0.73202 0.06164 0.0
C1271 C 0.94443 0.70911 0.06936 0.0
C1272 C 0.95671 0.69412 0.05939 0.0
C1273 C 0.96463 0.70205 0.04169 0.0
H1274 H 0.93831 0.70294 0.08306 0.0
H1275 H 1.0046 0.76144 0.90895 0.0
H1276 H 0.19776 0.84488 0.12256 0.0
H1277 H 0.22296 0.88264 0.14611 0.0
H1278 H 0.16369 0.92093 0.13557 0.0
H1279 H 0.13913 0.88377 0.11131 0.0
H1280 H 0.21883 0.96593 0.14047 0.0
H1281 H 0.1555 0.87517 0.17357 0.0
H1282 H 0.13249 0.82066 0.18261 0.0
H1283 H 0.22246 0.83581 0.19687 0.0
H1284 H 0.24609 0.89033 0.18769 0.0
H1285 H 0.27755 0.06001 0.21885 0.0
H1286 H 0.24093 0.01921 0.19887 0.0
H1287 H 0.30297 0.98259 0.19472 0.0
H1288 H 0.33969 0.02332 0.21445 0.0
H1289 H 0.24026 0.93659 0.19916 0.0
H1290 H 0.30258 0.02704 0.16299 0.0
H1291 H 0.32379 0.08167 0.15461 0.0
H1292 H 0.23167 0.06638 0.14741 0.0
H1293 H 0.20991 1.01173 0.156 0.0
C1294 C 0.1898 0.8611 0.12531 0.0
C1295 C 0.16625 0.86113 0.11506 0.0
C1296 C 0.20418 0.88267 0.13892 0.0
C1297 C 0.19492 0.90441 0.14297 0.0
C1298 C 0.17124 0.90439 0.13281 0.0
C1299 C 0.15712 0.88304 0.11897 0.0
C1300 C 0.21098 0.92786 0.15727 0.0
C1301 C 0.22288 0.95935 0.15342 0.0
C1302 C 0.2167 0.91958 0.17421 0.0
C1303 C 0.20259 0.88681 0.17982 0.0
C1304 C 0.17041 0.86684 0.17852 0.0
C1305 C 0.15725 0.83594 0.18369 0.0
C1306 C 0.17601 0.82476 0.19028 0.0
C1307 C 0.20796 0.84449 0.19175 0.0
C1308 C 0.22125 0.87541 0.1866 0.0
C1309 C 0.28323 0.04307 0.21382 0.0
C1310 C 0.31161 0.04499 0.2182 0.0
C1311 C 0.26234 0.01985 0.20236 0.0
C1312 C 0.26931 0.99796 0.19521 0.0
C1313 C 0.2971 0.99921 0.20007 0.0
C1314 C 0.31812 0.02259 0.21131 0.0
C1315 C 0.24838 0.97435 0.18217 0.0
C1316 C 0.23567 0.94293 0.18628 0.0
C1317 C 0.24153 0.98264 0.1656 0.0
C1318 C 0.25462 0.01542 0.16034 0.0
C1319 C 0.28685 0.0354 0.15977 0.0
C1320 C 0.29897 0.06635 0.15495 0.0
C1321 C 0.27909 0.07752 0.15054 0.0
C1322 C 0.24704 0.05772 0.15087 0.0
C1323 C 0.2348 0.02675 0.1557 0.0
H1324 H 0.28852 0.10149 0.14682 0.0
H1325 H 0.16577 0.80083 0.19426 0.0
H1326 H 0.2622 0.13415 0.27644 0.0
H1327 H 0.25145 0.16297 0.29893 0.0
H1328 H 0.34649 0.20647 0.31643 0.0
H1329 H 0.35709 0.17707 0.29443 0.0
H1330 H 0.31144 0.19304 0.34387 0.0
H1331 H 0.31797 0.2432 0.28899 0.0
H1332 H 0.30498 0.24651 0.25792 0.0
H1333 H 0.21099 0.21659 0.27265 0.0
H1334 H 0.22328 0.2126 0.3038 0.0
H1335 H 0.32625 0.32933 0.38438 0.0
H1336 H 0.32987 0.29252 0.36442 0.0
H1337 H 0.23039 0.24104 0.35981 0.0
H1338 H 0.22651 0.27759 0.38005 0.0
H1339 H 0.26388 0.25597 0.32654 0.0
H1340 H 0.2615 0.20992 0.38279 0.0
H1341 H 0.27839 0.20997 0.41342 0.0
H1342 H 0.37013 0.23745 0.39516 0.0
H1343 H 0.3539 0.238 0.36443 0.0
C1344 C 0.28075 0.14969 0.28516 0.0
C1345 C 0.31053 0.15333 0.28357 0.0
C1346 C 0.27462 0.16633 0.29796 0.0
C1347 C 0.29827 0.18737 0.30924 0.0
C1348 C 0.32781 0.19045 0.30792 0.0
C1349 C 0.33386 0.17361 0.29528 0.0
C1350 C 0.29253 0.20652 0.32228 0.0
C1351 C 0.30127 0.20697 0.33999 0.0
C1352 C 0.27887 0.22449 0.31739 0.0
C1353 C 0.27146 0.22722 0.2987 0.0
C1354 C 0.29447 0.2371 0.28559 0.0
C1355 C 0.28724 0.23913 0.26797 0.0
C1356 C 0.25715 0.23163 0.26331 0.0
C1357 C 0.23427 0.22229 0.27628 0.0
C1358 C 0.24135 0.22014 0.29392 0.0
C1359 C 0.3051 0.31 0.37928 0.0
C1360 C 0.27608 0.30634 0.38386 0.0
C1361 C 0.30721 0.28898 0.36787 0.0
C1362 C 0.2804 0.26403 0.36063 0.0
C1363 C 0.25136 0.26014 0.36525 0.0
C1364 C 0.24919 0.28092 0.3769 0.0
C1365 C 0.28297 0.24251 0.34798 0.0
C1366 C 0.27374 0.24174 0.33036 0.0
C1367 C 0.29677 0.22476 0.35286 0.0
C1368 C 0.30653 0.22425 0.37132 0.0
C1369 C 0.28533 0.21622 0.38532 0.0
C1370 C 0.29478 0.21609 0.4027 0.0
C1371 C 0.32533 0.22377 0.40624 0.0
C1372 C 0.34648 0.23152 0.3924 0.0
C1373 C 0.33716 0.23171 0.37499 0.0
H1374 H 0.3326 0.22366 0.4197 0.0
H1375 H 0.25157 0.23306 0.24966 0.0
H1376 H 0.16742 0.34816 0.44467 0.0
H1377 H 0.12639 0.33503 0.46636 0.0
H1378 H 0.13845 0.26038 0.48556 0.0
H1379 H 0.17948 0.27324 0.4638 0.0
H1380 H 0.07747 0.24263 0.48152 0.0
H1381 H 0.16674 0.32744 0.50877 0.0
H1382 H 0.21198 0.38006 0.51028 0.0
H1383 H 0.15277 0.41887 0.50295 0.0
H1384 H 0.1072 0.36644 0.50115 0.0
H1385 H 0.98544 0.20986 0.55783 0.0
H1386 H 0.03007 0.22525 0.53854 0.0
H1387 H 0.02447 0.30493 0.52176 0.0
H1388 H 0.98035 0.29014 0.54149 0.0
H1389 H 0.08289 0.32022 0.52481 0.0
H1390 H 0.99416 0.2369 0.4966 0.0
H1391 H 0.94827 0.18481 0.49427 0.0
H1392 H 1.00541 0.14383 0.50224 0.0
H1393 H 0.05161 0.19571 0.50486 0.0
C1394 C 0.16138 0.32892 0.45348 0.0
C1395 C 0.17689 0.31182 0.4525 0.0
C1396 C 0.13797 0.32153 0.46595 0.0
C1397 C 0.12955 0.29695 0.47776 0.0
C1398 C 0.1446 0.27951 0.47663 0.0
C1399 C 0.16811 0.28694 0.46419 0.0
C1400 C 0.10488 0.28928 0.49119 0.0
C1401 C 0.07888 0.25946 0.49116 0.0
C1402 C 0.10625 0.31147 0.50347 0.0
C1403 C 0.1336 0.34301 0.50466 0.0
C1404 C 0.16339 0.34719 0.50735 0.0
C1405 C 0.18909 0.37698 0.50828 0.0
C1406 C 0.18526 0.40279 0.50667 0.0
C1407 C 0.15571 0.39886 0.50417 0.0
C1408 C 0.12993 0.36911 0.50322 0.0
C1409 C 0.99391 0.23086 0.55019 0.0
C1410 C 0.97915 0.24864 0.55112 0.0
C1411 C 1.01935 0.23955 0.53906 0.0
C1412 C 0.03027 0.26588 0.52832 0.0
C1413 C 1.01643 0.28442 0.52981 0.0
C1414 C 0.99118 0.27594 0.54112 0.0
C1415 C 0.05542 0.27351 0.51518 0.0
C1416 C 0.08149 0.30334 0.51522 0.0
C1417 C 0.054 0.2514 0.50279 0.0
C1418 C 0.02629 0.22018 0.5011 0.0
C1419 C 0.99691 0.21677 0.49797 0.0
C1420 C 0.97085 0.18729 0.49659 0.0
C1421 C 0.97391 0.16103 0.49815 0.0
C1422 C 1.00307 0.1642 0.50106 0.0
C1423 C 0.0292 0.19363 0.50248 0.0
H1424 H 0.95371 0.13822 0.49708 0.0
H1425 H 0.20518 0.42584 0.50739 0.0
H1426 H 0.69358 1.00192 0.71311 0.0
H1427 H 0.72537 0.04364 0.69283 0.0
H1428 H 0.79954 0.02327 0.69845 0.0
H1429 H 0.76782 0.98154 0.71924 0.0
H1430 H 0.82191 0.08595 0.69613 0.0
H1431 H 0.75284 0.9962 0.66297 0.0
H1432 H 0.7026 0.95119 0.65475 0.0
H1433 H 0.66675 1.01141 0.64241 0.0
H1434 H 0.71665 0.05678 0.65081 0.0
H1435 H 0.88984 0.17289 0.61538 0.0
H1436 H 0.86982 0.13341 0.63866 0.0
H1437 H 0.78564 0.13799 0.64063 0.0
H1438 H 0.80512 0.17677 0.61744 0.0
H1439 H 0.77303 0.07969 0.63799 0.0
H1440 H 0.84197 0.16929 0.67342 0.0
H1441 H 0.8926 0.21377 0.68165 0.0
H1442 H 0.92965 0.15308 0.68897 0.0
H1443 H 0.87931 0.10827 0.68056 0.0
C1444 C 0.71677 1.00645 0.71022 0.0
C1445 C 0.72802 0.98814 0.71765 0.0
C1446 C 0.73493 0.03031 0.69856 0.0
C1447 C 0.76461 0.03618 0.69377 0.0
C1448 C 0.77663 0.01904 0.70185 0.0
C1449 C 0.75848 0.9952 0.71372 0.0
C1450 C 0.78199 0.05908 0.67964 0.0
C1451 C 0.81146 0.08436 0.68331 0.0
C1452 C 0.76841 0.0571 0.66289 0.0
C1453 C 0.73844 0.02988 0.65764 0.0
C1454 C 0.73419 0.99984 0.65861 0.0
C1455 C 0.70578 0.97426 0.6539 0.0
C1456 C 0.68149 0.97843 0.64809 0.0
C1457 C 0.68559 1.00821 0.64692 0.0
C1458 C 0.71394 0.03387 0.65163 0.0
C1459 C 0.86722 0.1657 0.62094 0.0
C1460 C 0.84903 0.1779 0.61446 0.0
C1461 C 0.85582 0.14317 0.63427 0.0
C1462 C 0.82616 0.13266 0.64143 0.0
C1463 C 0.80847 0.14551 0.63527 0.0
C1464 C 0.81972 0.1678 0.62199 0.0
C1465 C 0.81246 0.10727 0.65468 0.0
C1466 C 0.78366 0.08126 0.65076 0.0
C1467 C 0.82681 0.10858 0.67108 0.0
C1468 C 0.857 0.13549 0.67616 0.0
C1469 C 0.86099 0.16547 0.67664 0.0
C1470 C 0.88962 0.19073 0.68137 0.0
C1471 C 0.91436 0.18626 0.68578 0.0
C1472 C 0.91049 0.15651 0.68552 0.0
C1473 C 0.88191 0.13118 0.68079 0.0
H1474 H 0.9365 0.20585 0.68944 0.0
H1475 H 0.6595 0.9586 0.64446 0.0
loop_
_geom_bond_atom_site_label_1
_geom_bond_atom_site_label_2
_geom_bond_distance
_geom_bond_site_symmetry_2
_ccdc_geom_bond_type
Cu0 N1 1.999 . S
Cu0 O6 1.974 . S
Cu0 N11 1.985 . S
Cu0 O20 1.959 . S
N1 Cu0 1.999 . S
N1 C3 1.263 . S
N1 C5 1.389 . S
N2 C3 1.358 . S
N2 C4 1.400 . S
C3 N1 1.263 . S
C3 N2 1.358 . S
C3 H9 0.930 . S
C4 N2 1.400 . S
C4 C5 1.351 . S
C4 H21 0.930 . S
C5 N1 1.389 . S
C5 C4 1.351 . S
C5 H10 0.930 . S
O6 Cu0 1.974 . S
O6 C16 1.282 . S
C7 O8 1.261 . S
C7 O20 1.251 . S
O8 C7 1.261 . S
H9 C3 0.930 . S
H10 C5 0.930 . S
N11 Cu0 1.985 . S
N11 C13 1.335 . S
N11 C14 1.390 . S
N12 C13 1.345 . S
N12 C15 1.336 . S
C13 N11 1.335 . S
C13 N12 1.345 . S
C13 H18 0.930 . S
C14 N11 1.390 . S
C14 C15 1.346 . S
C14 H19 0.930 . S
C15 N12 1.336 . S
C15 C14 1.346 . S
C15 H22 0.929 . S
C16 O6 1.282 . S
C16 O17 1.216 . S
O17 C16 1.216 . S
H18 C13 0.930 . S
H19 C14 0.930 . S
O20 Cu0 1.959 . S
O20 C7 1.251 . S
H21 C4 0.930 . S
H22 C15 0.929 . S
Cu23 N24 1.999 . S
Cu23 O29 1.974 . S
Cu23 N34 1.985 . S
Cu23 O43 1.959 . S
N24 Cu23 1.999 . S
N24 C26 1.263 . S
N24 C28 1.389 . S
N25 C26 1.358 . S
N25 C27 1.400 . S
C26 N24 1.263 . S
C26 N25 1.358 . S
C26 H32 0.930 . S
C27 N25 1.400 . S
C27 C28 1.351 . S
C27 H44 0.930 . S
C28 N24 1.389 . S
C28 C27 1.351 . S
C28 H33 0.930 . S
O29 Cu23 1.974 . S
O29 C39 1.282 . S
C30 O31 1.261 . S
C30 O43 1.251 . S
O31 C30 1.261 . S
H32 C26 0.930 . S
H33 C28 0.930 . S
N34 Cu23 1.985 . S
N34 C36 1.335 . S
N34 C37 1.390 . S
N35 C36 1.345 . S
N35 C38 1.336 . S
C36 N34 1.335 . S
C36 N35 1.345 . S
C36 H41 0.930 . S
C37 N34 1.390 . S
C37 C38 1.346 . S
C37 H42 0.930 . S
C38 N35 1.336 . S
C38 C37 1.346 . S
C38 H45 0.929 . S
C39 O29 1.282 . S
C39 O40 1.216 . S
O40 C39 1.216 . S
H41 C36 0.930 . S
H42 C37 0.930 . S
O43 Cu23 1.959 . S
O43 C30 1.251 . S
H44 C27 0.930 . S
H45 C38 0.929 . S
Cu46 N47 1.999 . S
Cu46 O52 1.974 . S
Cu46 N57 1.985 . S
Cu46 O66 1.959 . S
N47 Cu46 1.999 . S
N47 C49 1.263 . S
N47 C51 1.389 . S
N48 C49 1.358 . S
N48 C50 1.400 . S
C49 N47 1.263 . S
C49 N48 1.358 . S
C49 H55 0.930 . S
C50 N48 1.400 . S
C50 C51 1.351 . S
C50 H67 0.930 . S
C51 N47 1.389 . S
C51 C50 1.351 . S
C51 H56 0.930 . S
O52 Cu46 1.974 . S
O52 C62 1.282 . S
C53 O54 1.261 . S
C53 O66 1.251 . S
O54 C53 1.261 . S
H55 C49 0.930 . S
H56 C51 0.930 . S
N57 Cu46 1.985 . S
N57 C59 1.335 . S
N57 C60 1.390 . S
N58 C59 1.345 . S
N58 C61 1.336 . S
C59 N57 1.335 . S
C59 N58 1.345 . S
C59 H64 0.930 . S
C60 N57 1.390 . S
C60 C61 1.346 . S
C60 H65 0.930 . S
C61 N58 1.336 . S
C61 C60 1.346 . S
C61 H68 0.929 . S
C62 O52 1.282 . S
C62 O63 1.216 . S
O63 C62 1.216 . S
H64 C59 0.930 . S
H65 C60 0.930 . S
O66 Cu46 1.959 . S
O66 C53 1.251 . S
H67 C50 0.930 . S
H68 C61 0.929 . S
Cu69 N70 1.999 . S
Cu69 O75 1.974 . S
Cu69 N80 1.985 . S
Cu69 O89 1.959 . S
N70 Cu69 1.999 . S
N70 C72 1.263 . S
N70 C74 1.389 . S
N71 C72 1.358 . S
N71 C73 1.400 . S
C72 N70 1.263 . S
C72 N71 1.358 . S
C72 H78 0.930 . S
C73 N71 1.400 . S
C73 C74 1.351 . S
C73 H90 0.930 . S
C74 N70 1.389 . S
C74 C73 1.351 . S
C74 H79 0.930 . S
O75 Cu69 1.974 . S
O75 C85 1.282 . S
C76 O77 1.261 . S
C76 O89 1.251 . S
O77 C76 1.261 . S
H78 C72 0.930 . S
H79 C74 0.930 . S
N80 Cu69 1.985 . S
N80 C82 1.335 . S
N80 C83 1.390 . S
N81 C82 1.345 . S
N81 C84 1.336 . S
C82 N80 1.335 . S
C82 N81 1.345 . S
C82 H87 0.930 . S
C83 N80 1.390 . S
C83 C84 1.346 . S
C83 H88 0.930 . S
C84 N81 1.336 . S
C84 C83 1.346 . S
C84 H91 0.929 . S
C85 O75 1.282 . S
C85 O86 1.216 . S
O86 C85 1.216 . S
H87 C82 0.930 . S
H88 C83 0.930 . S
O89 Cu69 1.959 . S
O89 C76 1.251 . S
H90 C73 0.930 . S
H91 C84 0.929 . S
Cu92 N93 1.999 . S
Cu92 O98 1.974 . S
Cu92 N103 1.985 . S
Cu92 O112 1.959 . S
N93 Cu92 1.999 . S
N93 C95 1.263 . S
N93 C97 1.389 . S
N94 C95 1.358 . S
N94 C96 1.400 . S
C95 N93 1.263 . S
C95 N94 1.358 . S
C95 H101 0.930 . S
C96 N94 1.400 . S
C96 C97 1.351 . S
C96 H113 0.930 . S
C97 N93 1.389 . S
C97 C96 1.351 . S
C97 H102 0.930 . S
O98 Cu92 1.974 . S
O98 C108 1.282 . S
C99 O100 1.261 . S
C99 O112 1.251 . S
O100 C99 1.261 . S
H101 C95 0.930 . S
H102 C97 0.930 . S
N103 Cu92 1.985 . S
N103 C105 1.335 . S
N103 C106 1.390 . S
N104 C105 1.345 . S
N104 C107 1.336 . S
C105 N103 1.335 . S
C105 N104 1.345 . S
C105 H110 0.930 . S
C106 N103 1.390 . S
C106 C107 1.346 . S
C106 H111 0.930 . S
C107 N104 1.336 . S
C107 C106 1.346 . S
C107 H114 0.929 . S
C108 O98 1.282 . S
C108 O109 1.216 . S
O109 C108 1.216 . S
H110 C105 0.930 . S
H111 C106 0.930 . S
O112 Cu92 1.959 . S
O112 C99 1.251 . S
H113 C96 0.930 . S
H114 C107 0.929 . S
Cu115 N116 1.999 . S
Cu115 O121 1.974 . S
Cu115 N126 1.985 . S
Cu115 O135 1.959 . S
N116 Cu115 1.999 . S
N116 C118 1.263 . S
N116 C120 1.389 . S
N117 C118 1.358 . S
N117 C119 1.400 . S
C118 N116 1.263 . S
C118 N117 1.358 . S
C118 H124 0.930 . S
C119 N117 1.400 . S
C119 C120 1.351 . S
C119 H136 0.930 . S
C120 N116 1.389 . S
C120 C119 1.351 . S
C120 H125 0.930 . S
O121 Cu115 1.974 . S
O121 C131 1.282 . S
C122 O123 1.261 . S
C122 O135 1.251 . S
O123 C122 1.261 . S
H124 C118 0.930 . S
H125 C120 0.930 . S
N126 Cu115 1.985 . S
N126 C128 1.335 . S
N126 C129 1.390 . S
N127 C128 1.345 . S
N127 C130 1.336 . S
C128 N126 1.335 . S
C128 N127 1.345 . S
C128 H133 0.930 . S
C129 N126 1.390 . S
C129 C130 1.346 . S
C129 H134 0.930 . S
C130 N127 1.336 . S
C130 C129 1.346 . S
C130 H137 0.929 . S
C131 O121 1.282 . S
C131 O132 1.216 . S
O132 C131 1.216 . S
H133 C128 0.930 . S
H134 C129 0.930 . S
O135 Cu115 1.959 . S
O135 C122 1.251 . S
H136 C119 0.930 . S
H137 C130 0.929 . S
Cu138 N139 1.999 . S
Cu138 O144 1.974 . S
Cu138 N149 1.985 . S
Cu138 O158 1.959 . S
N139 Cu138 1.999 . S
N139 C141 1.263 . S
N139 C143 1.389 . S
N140 C141 1.358 . S
N140 C142 1.400 . S
C141 N139 1.263 . S
C141 N140 1.358 . S
C141 H147 0.930 . S
C142 N140 1.400 . S
C142 C143 1.351 . S
C142 H159 0.930 . S
C143 N139 1.389 . S
C143 C142 1.351 . S
C143 H148 0.930 . S
O144 Cu138 1.974 . S
O144 C154 1.282 . S
C145 O146 1.261 . S
C145 O158 1.251 . S
O146 C145 1.261 . S
H147 C141 0.930 . S
H148 C143 0.930 . S
N149 Cu138 1.985 . S
N149 C151 1.335 . S
N149 C152 1.390 . S
N150 C151 1.345 . S
N150 C153 1.336 . S
C151 N149 1.335 . S
C151 N150 1.345 . S
C151 H156 0.930 . S
C152 N149 1.390 . S
C152 C153 1.346 . S
C152 H157 0.930 . S
C153 N150 1.336 . S
C153 C152 1.346 . S
C153 H160 0.929 . S
C154 O144 1.282 . S
C154 O155 1.216 . S
O155 C154 1.216 . S
H156 C151 0.930 . S
H157 C152 0.930 . S
O158 Cu138 1.959 . S
O158 C145 1.251 . S
H159 C142 0.930 . S
H160 C153 0.929 . S
Cu161 N162 1.999 . S
Cu161 O167 1.974 . S
Cu161 N172 1.985 . S
Cu161 O181 1.959 . S
N162 Cu161 1.999 . S
N162 C164 1.263 . S
N162 C166 1.389 . S
N163 C164 1.358 . S
N163 C165 1.400 . S
C164 N162 1.263 . S
C164 N163 1.358 . S
C164 H170 0.930 . S
C165 N163 1.400 . S
C165 C166 1.351 . S
C165 H182 0.930 . S
C166 N162 1.389 . S
C166 C165 1.351 . S
C166 H171 0.930 . S
O167 Cu161 1.974 . S
O167 C177 1.282 . S
C168 O169 1.261 . S
C168 O181 1.251 . S
O169 C168 1.261 . S
H170 C164 0.930 . S
H171 C166 0.930 . S
N172 Cu161 1.985 . S
N172 C174 1.335 . S
N172 C175 1.390 . S
N173 C174 1.345 . S
N173 C176 1.336 . S
C174 N172 1.335 . S
C174 N173 1.345 . S
C174 H179 0.930 . S
C175 N172 1.390 . S
C175 C176 1.346 . S
C175 H180 0.930 . S
C176 N173 1.336 . S
C176 C175 1.346 . S
C176 H183 0.929 . S
C177 O167 1.282 . S
C177 O178 1.216 . S
O178 C177 1.216 . S
H179 C174 0.930 . S
H180 C175 0.930 . S
O181 Cu161 1.959 . S
O181 C168 1.251 . S
H182 C165 0.930 . S
H183 C176 0.929 . S
Cu184 N185 1.999 . S
Cu184 O190 1.974 . S
Cu184 N195 1.985 . S
Cu184 O204 1.959 . S
N185 Cu184 1.999 . S
N185 C187 1.263 . S
N185 C189 1.389 . S
N186 C187 1.358 . S
N186 C188 1.400 . S
C187 N185 1.263 . S
C187 N186 1.358 . S
C187 H193 0.930 . S
C188 N186 1.400 . S
C188 C189 1.351 . S
C188 H205 0.930 . S
C189 N185 1.389 . S
C189 C188 1.351 . S
C189 H194 0.930 . S
O190 Cu184 1.974 . S
O190 C200 1.282 . S
C191 O192 1.261 . S
C191 O204 1.251 . S
O192 C191 1.261 . S
H193 C187 0.930 . S
H194 C189 0.930 . S
N195 Cu184 1.985 . S
N195 C197 1.335 . S
N195 C198 1.390 . S
N196 C197 1.345 . S
N196 C199 1.336 . S
C197 N195 1.335 . S
C197 N196 1.345 . S
C197 H202 0.930 . S
C198 N195 1.390 . S
C198 C199 1.346 . S
C198 H203 0.930 . S
C199 N196 1.336 . S
C199 C198 1.346 . S
C199 H206 0.929 . S
C200 O190 1.282 . S
C200 O201 1.216 . S
O201 C200 1.216 . S
H202 C197 0.930 . S
H203 C198 0.930 . S
O204 Cu184 1.959 . S
O204 C191 1.251 . S
H205 C188 0.930 . S
H206 C199 0.929 . S
Cu207 N208 1.999 . S
Cu207 O213 1.974 . S
Cu207 N218 1.985 . S
Cu207 O227 1.959 . S
N208 Cu207 1.999 . S
N208 C210 1.263 . S
N208 C212 1.389 . S
N209 C210 1.358 . S
N209 C211 1.400 . S
C210 N208 1.263 . S
C210 N209 1.358 . S
C210 H216 0.930 . S
C211 N209 1.400 . S
C211 C212 1.351 . S
C211 H228 0.930 . S
C212 N208 1.389 . S
C212 C211 1.351 . S
C212 H217 0.930 . S
O213 Cu207 1.974 . S
O213 C223 1.282 . S
C214 O215 1.261 . S
C214 O227 1.251 . S
O215 C214 1.261 . S
H216 C210 0.930 . S
H217 C212 0.930 . S
N218 Cu207 1.985 . S
N218 C220 1.335 . S
N218 C221 1.390 . S
N219 C220 1.345 . S
N219 C222 1.336 . S
C220 N218 1.335 . S
C220 N219 1.345 . S
C220 H225 0.930 . S
C221 N218 1.390 . S
C221 C222 1.346 . S
C221 H226 0.930 . S
C222 N219 1.336 . S
C222 C221 1.346 . S
C222 H229 0.929 . S
C223 O213 1.282 . S
C223 O224 1.216 . S
O224 C223 1.216 . S
H225 C220 0.930 . S
H226 C221 0.930 . S
O227 Cu207 1.959 . S
O227 C214 1.251 . S
H228 C211 0.930 . S
H229 C222 0.929 . S
Cu230 N231 1.999 . S
Cu230 O236 1.974 . S
Cu230 N241 1.985 . S
Cu230 O250 1.959 . S
N231 Cu230 1.999 . S
N231 C233 1.263 . S
N231 C235 1.389 . S
N232 C233 1.358 . S
N232 C234 1.400 . S
C233 N231 1.263 . S
C233 N232 1.358 . S
C233 H239 0.930 . S
C234 N232 1.400 . S
C234 C235 1.351 . S
C234 H251 0.930 . S
C235 N231 1.389 . S
C235 C234 1.351 . S
C235 H240 0.930 . S
O236 Cu230 1.974 . S
O236 C246 1.282 . S
C237 O238 1.261 . S
C237 O250 1.251 . S
O238 C237 1.261 . S
H239 C233 0.930 . S
H240 C235 0.930 . S
N241 Cu230 1.985 . S
N241 C243 1.335 . S
N241 C244 1.390 . S
N242 C243 1.345 . S
N242 C245 1.336 . S
C243 N241 1.335 . S
C243 N242 1.345 . S
C243 H248 0.930 . S
C244 N241 1.390 . S
C244 C245 1.346 . S
C244 H249 0.930 . S
C245 N242 1.336 . S
C245 C244 1.346 . S
C245 H252 0.929 . S
C246 O236 1.282 . S
C246 O247 1.216 . S
O247 C246 1.216 . S
H248 C243 0.930 . S
H249 C244 0.930 . S
O250 Cu230 1.959 . S
O250 C237 1.251 . S
H251 C234 0.930 . S
H252 C245 0.929 . S
Cu253 N254 1.999 . S
Cu253 O259 1.974 . S
Cu253 N264 1.985 . S
Cu253 O273 1.959 . S
N254 Cu253 1.999 . S
N254 C256 1.263 . S
N254 C258 1.389 . S
N255 C256 1.358 . S
N255 C257 1.400 . S
C256 N254 1.263 . S
C256 N255 1.358 . S
C256 H262 0.930 . S
C257 N255 1.400 . S
C257 C258 1.351 . S
C257 H274 0.930 . S
C258 N254 1.389 . S
C258 C257 1.351 . S
C258 H263 0.930 . S
O259 Cu253 1.974 . S
O259 C269 1.282 . S
C260 O261 1.261 . S
C260 O273 1.251 . S
O261 C260 1.261 . S
H262 C256 0.930 . S
H263 C258 0.930 . S
N264 Cu253 1.985 . S
N264 C266 1.335 . S
N264 C267 1.390 . S
N265 C266 1.345 . S
N265 C268 1.336 . S
C266 N264 1.335 . S
C266 N265 1.345 . S
C266 H271 0.930 . S
C267 N264 1.390 . S
C267 C268 1.346 . S
C267 H272 0.930 . S
C268 N265 1.336 . S
C268 C267 1.346 . S
C268 H275 0.929 . S
C269 O259 1.282 . S
C269 O270 1.216 . S
O270 C269 1.216 . S
H271 C266 0.930 . S
H272 C267 0.930 . S
O273 Cu253 1.959 . S
O273 C260 1.251 . S
H274 C257 0.930 . S
H275 C268 0.929 . S
H276 C294 0.951 . S
H277 C296 0.951 . S
H278 C298 0.950 . S
H279 C299 0.950 . S
H280 C301 0.950 . S
H281 C304 0.950 . S
H282 C305 0.950 . S
H283 C307 0.950 . S
H284 C308 0.950 . S
H285 C309 0.951 . S
H286 C311 0.951 . S
H287 C313 0.950 . S
H288 C314 0.950 . S
H289 C316 0.950 . S
H290 C319 0.950 . S
H291 C320 0.950 . S
H292 C322 0.950 1_655 S
H293 C323 0.950 . S
C294 H276 0.951 . S
C294 C295 1.366 . S
C294 C296 1.388 . S
C295 C294 1.366 . S
C295 C299 1.385 . S
C296 H277 0.951 . S
C296 C294 1.388 . S
C296 C297 1.366 . S
C297 C296 1.366 . S
C297 C298 1.414 . S
C297 C300 1.499 . S
C298 H278 0.950 . S
C298 C297 1.414 . S
C298 C299 1.374 . S
C299 H279 0.950 . S
C299 C295 1.385 . S
C299 C298 1.374 . S
C300 C297 1.499 . S
C300 C301 1.373 . S
C300 C302 1.389 . S
C301 H280 0.950 . S
C301 C300 1.373 . S
C301 C317 1.377 . S
C302 C300 1.389 . S
C302 C303 1.524 . S
C302 C316 1.377 . S
C303 C302 1.524 . S
C303 C304 1.397 . S
C303 C308 1.363 . S
C304 H281 0.950 . S
C304 C303 1.397 . S
C304 C305 1.334 . S
C305 H282 0.950 . S
C305 C304 1.334 . S
C305 C306 1.287 . S
C306 C305 1.287 . S
C306 C307 1.524 . S
C306 H325 0.913 . S
C307 H283 0.950 . S
C307 C306 1.524 . S
C307 C308 1.415 . S
C308 H284 0.950 . S
C308 C303 1.363 . S
C308 C307 1.415 . S
C309 H285 0.951 . S
C309 C310 1.366 . S
C309 C311 1.388 . S
C310 C309 1.366 . S
C310 C314 1.385 . S
C311 H286 0.951 . S
C311 C309 1.388 . S
C311 C312 1.366 . S
C312 C311 1.366 . S
C312 C313 1.414 . S
C312 C315 1.499 . S
C313 H287 0.950 . S
C313 C312 1.414 . S
C313 C314 1.374 . S
C314 H288 0.950 . S
C314 C310 1.385 . S
C314 C313 1.374 . S
C315 C312 1.499 . S
C315 C316 1.373 . S
C315 C317 1.389 . S
C316 H289 0.950 . S
C316 C302 1.377 . S
C316 C315 1.373 . S
C317 C301 1.377 . S
C317 C315 1.389 . S
C317 C318 1.524 . S
C318 C317 1.524 . S
C318 C319 1.397 . S
C318 C323 1.363 . S
C319 H290 0.950 . S
C319 C318 1.397 . S
C319 C320 1.334 . S
C320 H291 0.950 . S
C320 C319 1.334 . S
C320 C321 1.287 . S
C321 C320 1.287 . S
C321 C322 1.524 . S
C321 H324 0.999 . S
C322 H292 0.950 1_455 S
C322 C321 1.524 . S
C322 C323 1.415 . S
C323 H293 0.950 . S
C323 C318 1.363 . S
C323 C322 1.415 . S
H324 C321 0.999 . S
H325 C306 0.913 . S
H326 C344 0.951 . S
H327 C346 0.951 . S
H328 C348 0.950 . S
H329 C349 0.950 . S
H330 C351 0.950 . S
H331 C354 0.950 . S
H332 C355 0.950 . S
H333 C357 0.950 . S
H334 C358 0.950 . S
H335 C359 0.951 . S
H336 C361 0.951 . S
H337 C363 0.950 . S
H338 C364 0.950 . S
H339 C366 0.950 . S
H340 C369 0.950 . S
H341 C370 0.950 . S
H342 C372 0.950 . S
H343 C373 0.950 . S
C344 H326 0.951 . S
C344 C345 1.366 . S
C344 C346 1.388 . S
C345 C344 1.366 . S
C345 C349 1.385 . S
C346 H327 0.951 . S
C346 C344 1.388 . S
C346 C347 1.366 . S
C347 C346 1.366 . S
C347 C348 1.414 . S
C347 C350 1.499 . S
C348 H328 0.950 . S
C348 C347 1.414 . S
C348 C349 1.374 . S
C349 H329 0.950 . S
C349 C345 1.385 . S
C349 C348 1.374 . S
C350 C347 1.499 . S
C350 C351 1.373 . S
C350 C352 1.389 . S
C351 H330 0.950 . S
C351 C350 1.373 . S
C351 C367 1.377 . S
C352 C350 1.389 . S
C352 C353 1.524 . S
C352 C366 1.377 . S
C353 C352 1.524 . S
C353 C354 1.397 . S
C353 C358 1.363 . S
C354 H331 0.950 . S
C354 C353 1.397 . S
C354 C355 1.334 . S
C355 H332 0.950 . S
C355 C354 1.334 . S
C355 C356 1.287 . S
C356 C355 1.287 . S
C356 C357 1.524 . S
C356 H375 0.913 . S
C357 H333 0.950 . S
C357 C356 1.524 . S
C357 C358 1.415 . S
C358 H334 0.950 . S
C358 C353 1.363 . S
C358 C357 1.415 . S
C359 H335 0.951 . S
C359 C360 1.366 . S
C359 C361 1.388 . S
C360 C359 1.366 . S
C360 C364 1.385 . S
C361 H336 0.951 . S
C361 C359 1.388 . S
C361 C362 1.366 . S
C362 C361 1.366 . S
C362 C363 1.414 . S
C362 C365 1.499 . S
C363 H337 0.950 . S
C363 C362 1.414 . S
C363 C364 1.374 . S
C364 H338 0.950 . S
C364 C360 1.385 . S
C364 C363 1.374 . S
C365 C362 1.499 . S
C365 C366 1.373 . S
C365 C367 1.389 . S
C366 H339 0.950 . S
C366 C352 1.377 . S
C366 C365 1.373 . S
C367 C351 1.377 . S
C367 C365 1.389 . S
C367 C368 1.524 . S
C368 C367 1.524 . S
C368 C369 1.397 . S
C368 C373 1.363 . S
C369 H340 0.950 . S
C369 C368 1.397 . S
C369 C370 1.334 . S
C370 H341 0.950 . S
C370 C369 1.334 . S
C370 C371 1.287 . S
C371 C370 1.287 . S
C371 C372 1.524 . S
C371 H374 0.999 . S
C372 H342 0.950 . S
C372 C371 1.524 . S
C372 C373 1.415 . S
C373 H343 0.950 . S
C373 C368 1.363 . S
C373 C372 1.415 . S
H374 C371 0.999 . S
H375 C356 0.913 . S
H376 C394 0.951 . S
H377 C396 0.951 . S
H378 C398 0.950 . S
H379 C399 0.950 . S
H380 C401 0.950 . S
H381 C404 0.950 . S
H382 C405 0.950 . S
H383 C407 0.950 . S
H384 C408 0.950 . S
H385 C409 0.951 . S
H386 C411 0.951 . S
H387 C413 0.950 . S
H388 C414 0.950 . S
H389 C416 0.950 . S
H390 C419 0.950 . S
H391 C420 0.950 . S
H392 C422 0.950 . S
H393 C423 0.950 . S
C394 H376 0.951 . S
C394 C395 1.366 . S
C394 C396 1.388 . S
C395 C394 1.366 . S
C395 C399 1.385 . S
C396 H377 0.951 . S
C396 C394 1.388 . S
C396 C397 1.366 . S
C397 C396 1.366 . S
C397 C398 1.414 . S
C397 C400 1.499 . S
C398 H378 0.950 . S
C398 C397 1.414 . S
C398 C399 1.374 . S
C399 H379 0.950 . S
C399 C395 1.385 . S
C399 C398 1.374 . S
C400 C397 1.499 . S
C400 C401 1.373 . S
C400 C402 1.389 . S
C401 H380 0.950 . S
C401 C400 1.373 . S
C401 C417 1.377 . S
C402 C400 1.389 . S
C402 C403 1.524 . S
C402 C416 1.377 . S
C403 C402 1.524 . S
C403 C404 1.397 . S
C403 C408 1.363 . S
C404 H381 0.950 . S
C404 C403 1.397 . S
C404 C405 1.334 . S
C405 H382 0.950 . S
C405 C404 1.334 . S
C405 C406 1.287 . S
C406 C405 1.287 . S
C406 C407 1.524 . S
C406 H425 0.913 . S
C407 H383 0.950 . S
C407 C406 1.524 . S
C407 C408 1.415 . S
C408 H384 0.950 . S
C408 C403 1.363 . S
C408 C407 1.415 . S
C409 H385 0.951 . S
C409 C410 1.366 . S
C409 C411 1.388 . S
C410 C409 1.366 . S
C410 C414 1.385 . S
C411 H386 0.951 . S
C411 C409 1.388 . S
C411 C412 1.366 . S
C412 C411 1.366 . S
C412 C413 1.414 . S
C412 C415 1.499 . S
C413 H387 0.950 . S
C413 C412 1.414 . S
C413 C414 1.374 . S
C414 H388 0.950 . S
C414 C410 1.385 . S
C414 C413 1.374 . S
C415 C412 1.499 . S
C415 C416 1.373 . S
C415 C417 1.389 . S
C416 H389 0.950 . S
C416 C402 1.377 . S
C416 C415 1.373 . S
C417 C401 1.377 . S
C417 C415 1.389 . S
C417 C418 1.524 . S
C418 C417 1.524 . S
C418 C419 1.397 . S
C418 C423 1.363 . S
C419 H390 0.950 . S
C419 C418 1.397 . S
C419 C420 1.334 . S
C420 H391 0.950 . S
C420 C419 1.334 . S
C420 C421 1.287 . S
C421 C420 1.287 . S
C421 C422 1.524 . S
C421 H424 0.999 . S
C422 H392 0.950 . S
C422 C421 1.524 . S
C422 C423 1.415 . S
C423 H393 0.950 . S
C423 C418 1.363 . S
C423 C422 1.415 . S
H424 C421 0.999 . S
H425 C406 0.913 . S
H426 C444 0.951 . S
H427 C446 0.951 . S
H428 C448 0.950 . S
H429 C449 0.950 . S
H430 C451 0.950 . S
H431 C454 0.950 . S
H432 C455 0.950 . S
H433 C457 0.950 . S
H434 C458 0.950 . S
H435 C459 0.951 . S
H436 C461 0.951 . S
H437 C463 0.950 . S
H438 C464 0.950 . S
H439 C466 0.950 . S
H440 C469 0.950 . S
H441 C470 0.950 . S
H442 C472 0.950 . S
H443 C473 0.950 . S
C444 H426 0.951 . S
C444 C445 1.366 . S
C444 C446 1.388 . S
C445 C444 1.366 . S
C445 C449 1.385 . S
C446 H427 0.951 . S
C446 C444 1.388 . S
C446 C447 1.366 . S
C447 C446 1.366 . S
C447 C448 1.414 . S
C447 C450 1.499 . S
C448 H428 0.950 . S
C448 C447 1.414 . S
C448 C449 1.374 . S
C449 H429 0.950 . S
C449 C445 1.385 . S
C449 C448 1.374 . S
C450 C447 1.499 . S
C450 C451 1.373 . S
C450 C452 1.389 . S
C451 H430 0.950 . S
C451 C450 1.373 . S
C451 C467 1.377 . S
C452 C450 1.389 . S
C452 C453 1.524 . S
C452 C466 1.377 . S
C453 C452 1.524 . S
C453 C454 1.397 . S
C453 C458 1.363 . S
C454 H431 0.950 . S
C454 C453 1.397 . S
C454 C455 1.334 . S
C455 H432 0.950 . S
C455 C454 1.334 . S
C455 C456 1.287 . S
C456 C455 1.287 . S
C456 C457 1.524 . S
C456 H475 0.913 . S
C457 H433 0.950 . S
C457 C456 1.524 . S
C457 C458 1.415 . S
C458 H434 0.950 . S
C458 C453 1.363 . S
C458 C457 1.415 . S
C459 H435 0.951 . S
C459 C460 1.366 . S
C459 C461 1.388 . S
C460 C459 1.366 . S
C460 C464 1.385 . S
C461 H436 0.951 . S
C461 C459 1.388 . S
C461 C462 1.366 . S
C462 C461 1.366 . S
C462 C463 1.414 . S
C462 C465 1.499 . S
C463 H437 0.950 . S
C463 C462 1.414 . S
C463 C464 1.374 . S
C464 H438 0.950 . S
C464 C460 1.385 . S
C464 C463 1.374 . S
C465 C462 1.499 . S
C465 C466 1.373 . S
C465 C467 1.389 . S
C466 H439 0.950 . S
C466 C452 1.377 . S
C466 C465 1.373 . S
C467 C451 1.377 . S
C467 C465 1.389 . S
C467 C468 1.524 . S
C468 C467 1.524 . S
C468 C469 1.397 . S
C468 C473 1.363 . S
C469 H440 0.950 . S
C469 C468 1.397 . S
C469 C470 1.334 . S
C470 H441 0.950 . S
C470 C469 1.334 . S
C470 C471 1.287 . S
C471 C470 1.287 . S
C471 C472 1.524 . S
C471 H474 0.999 . S
C472 H442 0.950 . S
C472 C471 1.524 . S
C472 C473 1.415 . S
C473 H443 0.950 . S
C473 C468 1.363 . S
C473 C472 1.415 . S
H474 C471 0.999 . S
H475 C456 0.913 . S
H476 C494 0.951 . S
H477 C496 0.951 . S
H478 C498 0.950 . S
H479 C499 0.950 . S
H480 C501 0.950 . S
H481 C504 0.950 . S
H482 C505 0.950 . S
H483 C507 0.959 . S
H484 C508 0.950 . S
H485 C509 0.951 . S
H486 C511 0.951 . S
H487 C513 0.950 . S
H488 C514 0.950 . S
H489 C516 0.950 . S
H490 C519 0.950 . S
H491 C520 0.950 . S
H492 C522 0.950 . S
H493 C523 0.950 . S
C494 H476 0.951 . S
C494 C495 1.366 . S
C494 C496 1.388 . S
C495 C494 1.366 . S
C495 C499 1.385 . S
C496 H477 0.951 . S
C496 C494 1.388 . S
C496 C497 1.366 . S
C497 C496 1.366 . S
C497 C498 1.414 . S
C497 C500 1.499 . S
C498 H478 0.950 . S
C498 C497 1.414 . S
C498 C499 1.374 . S
C499 H479 0.950 . S
C499 C495 1.385 . S
C499 C498 1.374 . S
C500 C497 1.499 . S
C500 C501 1.373 . S
C500 C502 1.389 . S
C501 H480 0.950 . S
C501 C500 1.373 . S
C501 C517 1.377 . S
C502 C500 1.389 . S
C502 C503 1.524 . S
C502 C516 1.377 . S
C503 C502 1.524 . S
C503 C504 1.397 . S
C503 C508 1.363 . S
C504 H481 0.950 . S
C504 C503 1.397 . S
C504 C505 1.334 . S
C505 H482 0.950 . S
C505 C504 1.334 . S
C505 C506 1.287 . S
C506 C505 1.287 . S
C506 C507 1.520 1_565 S
C506 H525 0.913 1_565 S
C507 H483 0.959 . S
C507 C506 1.520 1_545 S
C507 C508 1.408 1_545 S
C508 H484 0.950 . S
C508 C503 1.363 . S
C508 C507 1.408 1_565 S
C509 H485 0.951 . S
C509 C510 1.366 . S
C509 C511 1.388 . S
C510 C509 1.366 . S
C510 C514 1.385 . S
C511 H486 0.951 . S
C511 C509 1.388 . S
C511 C512 1.366 . S
C512 C511 1.366 . S
C512 C513 1.414 . S
C512 C515 1.499 . S
C513 H487 0.950 . S
C513 C512 1.414 . S
C513 C514 1.374 . S
C514 H488 0.950 . S
C514 C510 1.385 . S
C514 C513 1.374 . S
C515 C512 1.499 . S
C515 C516 1.373 . S
C515 C517 1.389 . S
C516 H489 0.950 . S
C516 C502 1.377 . S
C516 C515 1.373 . S
C517 C501 1.377 . S
C517 C515 1.389 . S
C517 C518 1.524 . S
C518 C517 1.524 . S
C518 C519 1.397 . S
C518 C523 1.363 . S
C519 H490 0.950 . S
C519 C518 1.397 . S
C519 C520 1.334 . S
C520 H491 0.950 . S
C520 C519 1.334 . S
C520 C521 1.287 . S
C521 C520 1.287 . S
C521 C522 1.524 . S
C521 H524 0.999 . S
C522 H492 0.950 . S
C522 C521 1.524 . S
C522 C523 1.415 . S
C523 H493 0.950 . S
C523 C518 1.363 . S
C523 C522 1.415 . S
H524 C521 0.999 . S
H525 C506 0.913 1_545 S
H526 C544 0.951 . S
H527 C546 0.951 . S
H528 C548 0.950 . S
H529 C549 0.950 . S
H530 C551 0.950 . S
H531 C554 0.950 . S
H532 C555 0.950 . S
H533 C557 0.950 . S
H534 C558 0.950 . S
H535 C559 0.951 . S
H536 C561 0.951 . S
H537 C563 0.950 . S
H538 C564 0.950 . S
H539 C566 0.950 . S
H540 C569 0.950 . S
H541 C570 0.950 . S
H542 C572 0.950 . S
H543 C573 0.950 . S
C544 H526 0.951 . S
C544 C545 1.366 . S
C544 C546 1.388 . S
C545 C544 1.366 . S
C545 C549 1.385 . S
C546 H527 0.951 . S
C546 C544 1.388 . S
C546 C547 1.366 . S
C547 C546 1.366 . S
C547 C548 1.414 . S
C547 C550 1.499 . S
C548 H528 0.950 . S
C548 C547 1.414 . S
C548 C549 1.374 . S
C549 H529 0.950 . S
C549 C545 1.385 . S
C549 C548 1.374 . S
C550 C547 1.499 . S
C550 C551 1.373 . S
C550 C552 1.389 . S
C551 H530 0.950 . S
C551 C550 1.373 . S
C551 C567 1.377 . S
C552 C550 1.389 . S
C552 C553 1.524 . S
C552 C566 1.377 . S
C553 C552 1.524 . S
C553 C554 1.397 . S
C553 C558 1.363 . S
C554 H531 0.950 . S
C554 C553 1.397 . S
C554 C555 1.334 . S
C555 H532 0.950 . S
C555 C554 1.334 . S
C555 C556 1.287 . S
C556 C555 1.287 . S
C556 C557 1.524 . S
C556 H575 0.913 . S
C557 H533 0.950 . S
C557 C556 1.524 . S
C557 C558 1.415 . S
C558 H534 0.950 . S
C558 C553 1.363 . S
C558 C557 1.415 . S
C559 H535 0.951 . S
C559 C560 1.366 . S
C559 C561 1.388 . S
C560 C559 1.366 . S
C560 C564 1.385 . S
C561 H536 0.951 . S
C561 C559 1.388 . S
C561 C562 1.366 . S
C562 C561 1.366 . S
C562 C563 1.414 . S
C562 C565 1.499 . S
C563 H537 0.950 . S
C563 C562 1.414 . S
C563 C564 1.374 . S
C564 H538 0.950 . S
C564 C560 1.385 . S
C564 C563 1.374 . S
C565 C562 1.499 . S
C565 C566 1.373 . S
C565 C567 1.389 . S
C566 H539 0.950 . S
C566 C552 1.377 . S
C566 C565 1.373 . S
C567 C551 1.377 . S
C567 C565 1.389 . S
C567 C568 1.524 . S
C568 C567 1.524 . S
C568 C569 1.397 . S
C568 C573 1.363 . S
C569 H540 0.950 . S
C569 C568 1.397 . S
C569 C570 1.334 . S
C570 H541 0.950 . S
C570 C569 1.334 . S
C570 C571 1.287 . S
C571 C570 1.287 . S
C571 C572 1.524 . S
C571 H574 0.999 . S
C572 H542 0.950 . S
C572 C571 1.524 . S
C572 C573 1.415 . S
C573 H543 0.950 . S
C573 C568 1.363 . S
C573 C572 1.415 . S
H574 C571 0.999 . S
H575 C556 0.913 . S
H576 C594 0.951 . S
H577 C596 0.951 . S
H578 C598 0.950 . S
H579 C599 0.950 . S
H580 C601 0.950 . S
H581 C604 0.950 . S
H582 C605 0.950 . S
H583 C607 0.950 . S
H584 C608 0.950 . S
H585 C609 0.951 . S
H586 C611 0.951 . S
H587 C613 0.950 . S
H588 C614 0.950 . S
H589 C616 0.950 . S
H590 C619 0.950 . S
H591 C620 0.950 . S
H592 C622 0.950 . S
H593 C623 0.950 . S
C594 H576 0.951 . S
C594 C595 1.366 . S
C594 C596 1.388 . S
C595 C594 1.366 . S
C595 C599 1.385 . S
C596 H577 0.951 . S
C596 C594 1.388 . S
C596 C597 1.366 . S
C597 C596 1.366 . S
C597 C598 1.414 . S
C597 C600 1.499 . S
C598 H578 0.950 . S
C598 C597 1.414 . S
C598 C599 1.374 . S
C599 H579 0.950 . S
C599 C595 1.385 . S
C599 C598 1.374 . S
C600 C597 1.499 . S
C600 C601 1.373 . S
C600 C602 1.389 . S
C601 H580 0.950 . S
C601 C600 1.373 . S
C601 C617 1.377 . S
C602 C600 1.389 . S
C602 C603 1.524 . S
C602 C616 1.377 . S
C603 C602 1.524 . S
C603 C604 1.397 . S
C603 C608 1.363 . S
C604 H581 0.950 . S
C604 C603 1.397 . S
C604 C605 1.334 . S
C605 H582 0.950 . S
C605 C604 1.334 . S
C605 C606 1.287 . S
C606 C605 1.287 . S
C606 C607 1.524 . S
C606 H625 0.913 . S
C607 H583 0.950 . S
C607 C606 1.524 . S
C607 C608 1.415 . S
C608 H584 0.950 . S
C608 C603 1.363 . S
C608 C607 1.415 . S
C609 H585 0.951 . S
C609 C610 1.366 . S
C609 C611 1.388 . S
C610 C609 1.366 . S
C610 C614 1.385 . S
C611 H586 0.951 . S
C611 C609 1.388 . S
C611 C612 1.366 . S
C612 C611 1.366 . S
C612 C613 1.414 . S
C612 C615 1.499 . S
C613 H587 0.950 . S
C613 C612 1.414 . S
C613 C614 1.374 . S
C614 H588 0.950 . S
C614 C610 1.385 . S
C614 C613 1.374 . S
C615 C612 1.499 . S
C615 C616 1.373 . S
C615 C617 1.389 . S
C616 H589 0.950 . S
C616 C602 1.377 . S
C616 C615 1.373 . S
C617 C601 1.377 . S
C617 C615 1.389 . S
C617 C618 1.524 . S
C618 C617 1.524 . S
C618 C619 1.397 . S
C618 C623 1.363 . S
C619 H590 0.950 . S
C619 C618 1.397 . S
C619 C620 1.334 . S
C620 H591 0.950 . S
C620 C619 1.334 . S
C620 C621 1.287 . S
C621 C620 1.287 . S
C621 C622 1.524 . S
C621 H624 0.999 . S
C622 H592 0.950 . S
C622 C621 1.524 . S
C622 C623 1.415 . S
C623 H593 0.950 . S
C623 C618 1.363 . S
C623 C622 1.415 . S
H624 C621 0.999 . S
H625 C606 0.913 . S
H626 C644 0.951 . S
H627 C646 0.951 . S
H628 C648 0.950 . S
H629 C649 0.950 . S
H630 C651 0.950 . S
H631 C654 0.950 . S
H632 C655 0.950 . S
H633 C657 0.950 . S
H634 C658 0.950 . S
H635 C659 0.951 . S
H636 C661 0.951 . S
H637 C663 0.950 . S
H638 C664 0.950 . S
H639 C666 0.950 . S
H640 C669 0.950 . S
H641 C670 0.950 . S
H642 C672 0.950 . S
H643 C673 0.950 . S
C644 H626 0.951 . S
C644 C645 1.366 . S
C644 C646 1.388 . S
C645 C644 1.366 . S
C645 C649 1.385 . S
C646 H627 0.951 . S
C646 C644 1.388 . S
C646 C647 1.366 . S
C647 C646 1.366 . S
C647 C648 1.414 . S
C647 C650 1.499 . S
C648 H628 0.950 . S
C648 C647 1.414 . S
C648 C649 1.374 . S
C649 H629 0.950 . S
C649 C645 1.385 . S
C649 C648 1.374 . S
C650 C647 1.499 . S
C650 C651 1.373 . S
C650 C652 1.389 . S
C651 H630 0.950 . S
C651 C650 1.373 . S
C651 C667 1.377 1_655 S
C652 C650 1.389 . S
C652 C653 1.524 . S
C652 C666 1.377 1_655 S
C653 C652 1.524 . S
C653 C654 1.397 . S
C653 C658 1.363 . S
C654 H631 0.950 . S
C654 C653 1.397 . S
C654 C655 1.334 . S
C655 H632 0.950 . S
C655 C654 1.334 . S
C655 C656 1.287 . S
C656 C655 1.287 . S
C656 C657 1.524 . S
C656 H675 0.913 . S
C657 H633 0.950 . S
C657 C656 1.524 . S
C657 C658 1.415 . S
C658 H634 0.950 . S
C658 C653 1.363 . S
C658 C657 1.415 . S
C659 H635 0.951 . S
C659 C660 1.366 . S
C659 C661 1.388 . S
C660 C659 1.366 . S
C660 C664 1.385 . S
C661 H636 0.951 . S
C661 C659 1.388 . S
C661 C662 1.366 . S
C662 C661 1.366 . S
C662 C663 1.414 . S
C662 C665 1.499 . S
C663 H637 0.950 . S
C663 C662 1.414 . S
C663 C664 1.374 . S
C664 H638 0.950 . S
C664 C660 1.385 . S
C664 C663 1.374 . S
C665 C662 1.499 . S
C665 C666 1.373 . S
C665 C667 1.389 . S
C666 H639 0.950 . S
C666 C652 1.377 1_455 S
C666 C665 1.373 . S
C667 C651 1.377 1_455 S
C667 C665 1.389 . S
C667 C668 1.524 . S
C668 C667 1.524 . S
C668 C669 1.397 . S
C668 C673 1.363 . S
C669 H640 0.950 . S
C669 C668 1.397 . S
C669 C670 1.334 . S
C670 H641 0.950 . S
C670 C669 1.334 . S
C670 C671 1.287 . S
C671 C670 1.287 . S
C671 C672 1.524 . S
C671 H674 0.999 . S
C672 H642 0.950 . S
C672 C671 1.524 . S
C672 C673 1.415 . S
C673 H643 0.950 . S
C673 C668 1.363 . S
C673 C672 1.415 . S
H674 C671 0.999 . S
H675 C656 0.913 . S
H676 C694 0.951 . S
H677 C696 0.951 . S
H678 C698 0.950 . S
H679 C699 0.950 . S
H680 C701 0.950 . S
H681 C704 0.950 . S
H682 C705 0.950 . S
H683 C707 0.950 . S
H684 C708 0.950 . S
H685 C709 0.951 . S
H686 C711 0.951 . S
H687 C713 0.950 . S
H688 C714 0.950 . S
H689 C716 0.950 . S
H690 C719 0.950 . S
H691 C720 0.950 . S
H692 C722 0.950 . S
H693 C723 0.950 . S
C694 H676 0.951 . S
C694 C695 1.366 . S
C694 C696 1.388 . S
C695 C694 1.366 . S
C695 C699 1.385 . S
C696 H677 0.951 . S
C696 C694 1.388 . S
C696 C697 1.366 . S
C697 C696 1.366 . S
C697 C698 1.414 . S
C697 C700 1.499 . S
C698 H678 0.950 . S
C698 C697 1.414 . S
C698 C699 1.374 . S
C699 H679 0.950 . S
C699 C695 1.385 . S
C699 C698 1.374 . S
C700 C697 1.499 . S
C700 C701 1.373 . S
C700 C702 1.389 . S
C701 H680 0.950 . S
C701 C700 1.373 . S
C701 C717 1.377 1_545 S
C702 C700 1.389 . S
C702 C703 1.524 . S
C702 C716 1.377 1_545 S
C703 C702 1.524 . S
C703 C704 1.397 . S
C703 C708 1.363 . S
C704 H681 0.950 . S
C704 C703 1.397 . S
C704 C705 1.334 . S
C705 H682 0.950 . S
C705 C704 1.334 . S
C705 C706 1.287 . S
C706 C705 1.287 . S
C706 C707 1.524 . S
C706 H725 0.913 . S
C707 H683 0.950 . S
C707 C706 1.524 . S
C707 C708 1.415 . S
C708 H684 0.950 . S
C708 C703 1.363 . S
C708 C707 1.415 . S
C709 H685 0.951 . S
C709 C710 1.366 . S
C709 C711 1.388 . S
C710 C709 1.366 . S
C710 C714 1.385 . S
C711 H686 0.951 . S
C711 C709 1.388 . S
C711 C712 1.366 . S
C712 C711 1.366 . S
C712 C713 1.414 . S
C712 C715 1.499 . S
C713 H687 0.950 . S
C713 C712 1.414 . S
C713 C714 1.374 . S
C714 H688 0.950 . S
C714 C710 1.385 . S
C714 C713 1.374 . S
C715 C712 1.499 . S
C715 C716 1.373 . S
C715 C717 1.389 . S
C716 H689 0.950 . S
C716 C702 1.377 1_565 S
C716 C715 1.373 . S
C717 C701 1.377 1_565 S
C717 C715 1.389 . S
C717 C718 1.524 . S
C718 C717 1.524 . S
C718 C719 1.397 . S
C718 C723 1.363 . S
C719 H690 0.950 . S
C719 C718 1.397 . S
C719 C720 1.334 . S
C720 H691 0.950 . S
C720 C719 1.334 . S
C720 C721 1.287 . S
C721 C720 1.287 . S
C721 C722 1.524 . S
C721 H724 0.999 . S
C722 H692 0.950 . S
C722 C721 1.524 . S
C722 C723 1.415 . S
C723 H693 0.950 . S
C723 C718 1.363 . S
C723 C722 1.415 . S
H724 C721 0.999 . S
H725 C706 0.913 . S
H726 C744 0.951 . S
H727 C746 0.951 . S
H728 C748 0.950 . S
H729 C749 0.950 . S
H730 C751 0.950 . S
H731 C754 0.950 . S
H732 C755 0.950 . S
H733 C757 0.950 . S
H734 C758 0.950 . S
H735 C759 0.951 . S
H736 C761 0.951 . S
H737 C763 0.950 . S
H738 C764 0.950 . S
H739 C766 0.950 . S
H740 C769 0.950 . S
H741 C770 0.950 . S
H742 C772 0.950 . S
H743 C773 0.950 . S
C744 H726 0.951 . S
C744 C745 1.366 . S
C744 C746 1.388 . S
C745 C744 1.366 . S
C745 C749 1.385 . S
C746 H727 0.951 . S
C746 C744 1.388 . S
C746 C747 1.366 . S
C747 C746 1.366 . S
C747 C748 1.414 . S
C747 C750 1.499 . S
C748 H728 0.950 . S
C748 C747 1.414 . S
C748 C749 1.374 . S
C749 H729 0.950 . S
C749 C745 1.385 . S
C749 C748 1.374 . S
C750 C747 1.499 . S
C750 C751 1.373 . S
C750 C752 1.389 . S
C751 H730 0.950 . S
C751 C750 1.373 . S
C751 C767 1.377 . S
C752 C750 1.389 . S
C752 C753 1.524 . S
C752 C766 1.377 . S
C753 C752 1.524 . S
C753 C754 1.397 . S
C753 C758 1.363 . S
C754 H731 0.950 . S
C754 C753 1.397 . S
C754 C755 1.334 . S
C755 H732 0.950 . S
C755 C754 1.334 . S
C755 C756 1.287 . S
C756 C755 1.287 . S
C756 C757 1.524 . S
C756 H775 0.913 . S
C757 H733 0.950 . S
C757 C756 1.524 . S
C757 C758 1.415 . S
C758 H734 0.950 . S
C758 C753 1.363 . S
C758 C757 1.415 . S
C759 H735 0.951 . S
C759 C760 1.366 . S
C759 C761 1.388 . S
C760 C759 1.366 . S
C760 C764 1.385 . S
C761 H736 0.951 . S
C761 C759 1.388 . S
C761 C762 1.366 . S
C762 C761 1.366 . S
C762 C763 1.414 . S
C762 C765 1.499 . S
C763 H737 0.950 . S
C763 C762 1.414 . S
C763 C764 1.374 . S
C764 H738 0.950 . S
C764 C760 1.385 . S
C764 C763 1.374 . S
C765 C762 1.499 . S
C765 C766 1.373 . S
C765 C767 1.389 . S
C766 H739 0.950 . S
C766 C752 1.377 . S
C766 C765 1.373 . S
C767 C751 1.377 . S
C767 C765 1.389 . S
C767 C768 1.524 . S
C768 C767 1.524 . S
C768 C769 1.397 . S
C768 C773 1.363 . S
C769 H740 0.950 . S
C769 C768 1.397 . S
C769 C770 1.334 . S
C770 H741 0.950 . S
C770 C769 1.334 . S
C770 C771 1.287 . S
C771 C770 1.287 . S
C771 C772 1.524 . S
C771 H774 0.999 . S
C772 H742 0.950 . S
C772 C771 1.524 . S
C772 C773 1.415 . S
C773 H743 0.950 . S
C773 C768 1.363 . S
C773 C772 1.415 . S
H774 C771 0.999 . S
H775 C756 0.913 . S
H776 C794 0.951 . S
H777 C796 0.951 . S
H778 C798 0.950 . S
H779 C799 0.950 . S
H780 C801 0.950 1_455 S
H781 C804 0.950 . S
H782 C805 0.950 . S
H783 C807 0.950 . S
H784 C808 0.950 . S
H785 C809 0.951 . S
H786 C811 0.951 . S
H787 C813 0.950 . S
H788 C814 0.950 . S
H789 C816 0.950 1_655 S
H790 C819 0.950 . S
H791 C820 0.950 . S
H792 C822 0.950 . S
H793 C823 0.950 . S
C794 H776 0.951 . S
C794 C795 1.366 . S
C794 C796 1.388 . S
C795 C794 1.366 . S
C795 C799 1.385 . S
C796 H777 0.951 . S
C796 C794 1.388 . S
C796 C797 1.366 . S
C797 C796 1.366 . S
C797 C798 1.414 . S
C797 C800 1.499 . S
C798 H778 0.950 . S
C798 C797 1.414 . S
C798 C799 1.374 . S
C799 H779 0.950 . S
C799 C795 1.385 . S
C799 C798 1.374 . S
C800 C797 1.499 . S
C800 C801 1.376 . S
C800 C802 1.389 . S
C801 H780 0.950 1_655 S
C801 C800 1.376 . S
C801 C817 1.374 1_655 S
C802 C800 1.389 . S
C802 C803 1.524 . S
C802 C816 1.374 1_655 S
C803 C802 1.524 . S
C803 C804 1.397 . S
C803 C808 1.363 . S
C804 H781 0.950 . S
C804 C803 1.397 . S
C804 C805 1.334 . S
C805 H782 0.950 . S
C805 C804 1.334 . S
C805 C806 1.287 . S
C806 C805 1.287 . S
C806 C807 1.524 . S
C806 H825 0.913 . S
C807 H783 0.950 . S
C807 C806 1.524 . S
C807 C808 1.415 . S
C808 H784 0.950 . S
C808 C803 1.363 . S
C808 C807 1.415 . S
C809 H785 0.951 . S
C809 C810 1.366 . S
C809 C811 1.388 . S
C810 C809 1.366 . S
C810 C814 1.385 . S
C811 H786 0.951 . S
C811 C809 1.388 . S
C811 C812 1.366 . S
C812 C811 1.366 . S
C812 C813 1.414 . S
C812 C815 1.499 . S
C813 H787 0.950 . S
C813 C812 1.414 . S
C813 C814 1.374 . S
C814 H788 0.950 . S
C814 C810 1.385 . S
C814 C813 1.374 . S
C815 C812 1.499 . S
C815 C816 1.376 . S
C815 C817 1.389 . S
C816 H789 0.950 1_455 S
C816 C802 1.374 1_455 S
C816 C815 1.376 . S
C817 C801 1.374 1_455 S
C817 C815 1.389 . S
C817 C818 1.524 . S
C818 C817 1.524 . S
C818 C819 1.397 . S
C818 C823 1.363 . S
C819 H790 0.950 . S
C819 C818 1.397 . S
C819 C820 1.334 . S
C820 H791 0.950 . S
C820 C819 1.334 . S
C820 C821 1.287 . S
C821 C820 1.287 . S
C821 C822 1.524 . S
C821 H824 0.999 . S
C822 H792 0.950 . S
C822 C821 1.524 . S
C822 C823 1.415 . S
C823 H793 0.950 . S
C823 C818 1.363 . S
C823 C822 1.415 . S
H824 C821 0.999 . S
H825 C806 0.913 . S
H826 C844 0.951 . S
H827 C846 0.951 . S
H828 C848 0.950 . S
H829 C849 0.950 . S
H830 C851 0.950 . S
H831 C854 0.950 . S
H832 C855 0.950 . S
H833 C857 0.950 . S
H834 C858 0.950 . S
H835 C859 0.951 . S
H836 C861 0.951 . S
H837 C863 0.950 . S
H838 C864 0.950 . S
H839 C866 0.950 . S
H840 C869 0.950 . S
H841 C870 0.950 . S
H842 C872 0.950 . S
H843 C873 0.950 . S
C844 H826 0.951 . S
C844 C845 1.366 . S
C844 C846 1.388 . S
C845 C844 1.366 . S
C845 C849 1.385 . S
C846 H827 0.951 . S
C846 C844 1.388 . S
C846 C847 1.366 . S
C847 C846 1.366 . S
C847 C848 1.414 . S
C847 C850 1.499 . S
C848 H828 0.950 . S
C848 C847 1.414 . S
C848 C849 1.374 . S
C849 H829 0.950 . S
C849 C845 1.385 . S
C849 C848 1.374 . S
C850 C847 1.499 . S
C850 C851 1.373 . S
C850 C852 1.389 1_554 S
C851 H830 0.950 . S
C851 C850 1.373 . S
C851 C867 1.377 1_565 S
C852 C850 1.389 1_556 S
C852 C853 1.524 . S
C852 C866 1.377 1_565 S
C853 C852 1.524 . S
C853 C854 1.397 . S
C853 C858 1.363 . S
C854 H831 0.950 . S
C854 C853 1.397 . S
C854 C855 1.334 . S
C855 H832 0.950 . S
C855 C854 1.334 . S
C855 C856 1.287 . S
C856 C855 1.287 . S
C856 C857 1.524 . S
C856 H875 0.913 . S
C857 H833 0.950 . S
C857 C856 1.524 . S
C857 C858 1.415 . S
C858 H834 0.950 . S
C858 C853 1.363 . S
C858 C857 1.415 . S
C859 H835 0.951 . S
C859 C860 1.366 . S
C859 C861 1.388 . S
C860 C859 1.366 . S
C860 C864 1.385 . S
C861 H836 0.951 . S
C861 C859 1.388 . S
C861 C862 1.366 . S
C862 C861 1.366 . S
C862 C863 1.414 . S
C862 C865 1.499 . S
C863 H837 0.950 . S
C863 C862 1.414 . S
C863 C864 1.374 . S
C864 H838 0.950 . S
C864 C860 1.385 . S
C864 C863 1.374 . S
C865 C862 1.499 . S
C865 C866 1.373 . S
C865 C867 1.389 1_556 S
C866 H839 0.950 . S
C866 C852 1.377 1_545 S
C866 C865 1.373 . S
C867 C851 1.377 1_545 S
C867 C865 1.389 1_554 S
C867 C868 1.524 . S
C868 C867 1.524 . S
C868 C869 1.397 . S
C868 C873 1.363 . S
C869 H840 0.950 . S
C869 C868 1.397 . S
C869 C870 1.334 . S
C870 H841 0.950 . S
C870 C869 1.334 . S
C870 C871 1.287 . S
C871 C870 1.287 . S
C871 C872 1.524 . S
C871 H874 0.999 . S
C872 H842 0.950 . S
C872 C871 1.524 . S
C872 C873 1.415 . S
C873 H843 0.950 . S
C873 C868 1.363 . S
C873 C872 1.415 . S
H874 C871 0.999 . S
H875 C856 0.913 . S
H876 C894 0.951 . S
H877 C896 0.951 . S
H878 C898 0.950 . S
H879 C899 0.950 . S
H880 C901 0.950 . S
H881 C904 0.950 . S
H882 C905 0.950 . S
H883 C907 0.950 . S
H884 C908 0.950 . S
H885 C909 0.951 . S
H886 C911 0.951 . S
H887 C913 0.950 1_554 S
H888 C914 0.950 . S
H889 C916 0.950 . S
H890 C919 0.950 . S
H891 C920 0.950 . S
H892 C922 0.976 . S
H893 C923 0.950 1_556 S
C894 H876 0.951 . S
C894 C895 1.366 . S
C894 C896 1.388 . S
C895 C894 1.366 . S
C895 C899 1.385 . S
C896 H877 0.951 . S
C896 C894 1.388 . S
C896 C897 1.366 . S
C897 C896 1.366 . S
C897 C898 1.414 . S
C897 C900 1.499 . S
C898 H878 0.950 . S
C898 C897 1.414 . S
C898 C899 1.374 . S
C899 H879 0.950 . S
C899 C895 1.385 . S
C899 C898 1.374 . S
C900 C897 1.499 . S
C900 C901 1.373 . S
C900 C902 1.389 . S
C901 H880 0.950 . S
C901 C900 1.373 . S
C901 C917 1.377 . S
C902 C900 1.389 . S
C902 C903 1.524 . S
C902 C916 1.377 . S
C903 C902 1.524 . S
C903 C904 1.397 . S
C903 C908 1.363 . S
C904 H881 0.950 . S
C904 C903 1.397 . S
C904 C905 1.334 . S
C905 H882 0.950 . S
C905 C904 1.334 . S
C905 C906 1.287 . S
C906 C905 1.287 . S
C906 C907 1.524 . S
C906 H925 0.913 . S
C907 H883 0.950 . S
C907 C906 1.524 . S
C907 C908 1.415 . S
C908 H884 0.950 . S
C908 C903 1.363 . S
C908 C907 1.415 . S
C909 H885 0.951 . S
C909 C910 1.366 . S
C909 C911 1.388 . S
C910 C909 1.366 . S
C910 C914 1.385 . S
C911 H886 0.951 . S
C911 C909 1.388 . S
C911 C912 1.366 . S
C912 C911 1.366 . S
C912 C913 1.414 . S
C912 C915 1.499 1_556 S
C913 H887 0.950 1_556 S
C913 C912 1.414 . S
C913 C914 1.374 . S
C914 H888 0.950 . S
C914 C910 1.385 . S
C914 C913 1.374 . S
C915 C912 1.499 1_554 S
C915 C916 1.373 . S
C915 C917 1.389 . S
C916 H889 0.950 . S
C916 C902 1.377 . S
C916 C915 1.373 . S
C917 C901 1.377 . S
C917 C915 1.389 . S
C917 C918 1.524 . S
C918 C917 1.524 . S
C918 C919 1.397 . S
C918 C923 1.363 . S
C919 H890 0.950 . S
C919 C918 1.397 . S
C919 C920 1.334 . S
C920 H891 0.950 . S
C920 C919 1.334 . S
C920 C921 1.287 . S
C921 C920 1.287 . S
C921 C922 1.505 1_554 S
C921 H924 0.999 . S
C922 H892 0.976 . S
C922 C921 1.505 1_556 S
C922 C923 1.408 1_556 S
C923 H893 0.950 1_554 S
C923 C918 1.363 . S
C923 C922 1.408 1_554 S
H924 C921 0.999 . S
H925 C906 0.913 . S
H926 C944 0.951 . S
H927 C946 0.951 . S
H928 C948 0.950 . S
H929 C949 0.950 . S
H930 C951 0.950 . S
H931 C954 0.950 . S
H932 C955 0.950 . S
H933 C957 0.950 . S
H934 C958 0.950 . S
H935 C959 0.951 . S
H936 C961 0.951 1_655 S
H937 C963 0.950 . S
H938 C964 0.950 . S
H939 C966 0.950 . S
H940 C969 0.950 . S
H941 C970 0.950 . S
H942 C972 0.950 . S
H943 C973 0.950 . S
C944 H926 0.951 . S
C944 C945 1.366 . S
C944 C946 1.388 . S
C945 C944 1.366 . S
C945 C949 1.385 . S
C946 H927 0.951 . S
C946 C944 1.388 . S
C946 C947 1.366 . S
C947 C946 1.366 . S
C947 C948 1.414 . S
C947 C950 1.499 . S
C948 H928 0.950 . S
C948 C947 1.414 . S
C948 C949 1.374 . S
C949 H929 0.950 . S
C949 C945 1.385 . S
C949 C948 1.374 . S
C950 C947 1.499 . S
C950 C951 1.373 . S
C950 C952 1.389 . S
C951 H930 0.950 . S
C951 C950 1.373 . S
C951 C967 1.377 . S
C952 C950 1.389 . S
C952 C953 1.524 . S
C952 C966 1.377 . S
C953 C952 1.524 . S
C953 C954 1.397 . S
C953 C958 1.363 . S
C954 H931 0.950 . S
C954 C953 1.397 . S
C954 C955 1.334 . S
C955 H932 0.950 . S
C955 C954 1.334 . S
C955 C956 1.287 . S
C956 C955 1.287 . S
C956 C957 1.524 . S
C956 H975 0.913 . S
C957 H933 0.950 . S
C957 C956 1.524 . S
C957 C958 1.415 . S
C958 H934 0.950 . S
C958 C953 1.363 . S
C958 C957 1.415 . S
C959 H935 0.951 . S
C959 C960 1.366 . S
C959 C961 1.388 . S
C960 C959 1.366 . S
C960 C964 1.385 . S
C961 H936 0.951 1_455 S
C961 C959 1.388 . S
C961 C962 1.366 . S
C962 C961 1.366 . S
C962 C963 1.414 . S
C962 C965 1.499 1_455 S
C963 H937 0.950 . S
C963 C962 1.414 . S
C963 C964 1.374 . S
C964 H938 0.950 . S
C964 C960 1.385 . S
C964 C963 1.374 . S
C965 C962 1.499 1_655 S
C965 C966 1.373 . S
C965 C967 1.389 . S
C966 H939 0.950 . S
C966 C952 1.377 . S
C966 C965 1.373 . S
C967 C951 1.377 . S
C967 C965 1.389 . S
C967 C968 1.524 . S
C968 C967 1.524 . S
C968 C969 1.397 . S
C968 C973 1.363 . S
C969 H940 0.950 . S
C969 C968 1.397 . S
C969 C970 1.334 . S
C970 H941 0.950 . S
C970 C969 1.334 . S
C970 C971 1.287 . S
C971 C970 1.287 . S
C971 C972 1.524 . S
C971 H974 0.999 . S
C972 H942 0.950 . S
C972 C971 1.524 . S
C972 C973 1.415 . S
C973 H943 0.950 . S
C973 C968 1.363 . S
C973 C972 1.415 . S
H974 C971 0.999 . S
H975 C956 0.913 . S
H976 C994 0.951 . S
H977 C996 0.951 . S
H978 C998 0.950 . S
H979 C999 0.950 . S
H980 C1001 0.950 . S
H981 C1004 0.950 . S
H982 C1005 0.950 . S
H983 C1007 0.950 . S
H984 C1008 0.950 . S
H985 C1009 0.951 . S
H986 C1011 0.951 . S
H987 C1013 0.950 . S
H988 C1014 0.950 . S
H989 C1016 0.950 . S
H990 C1019 0.950 . S
H991 C1020 0.950 . S
H992 C1022 0.950 . S
H993 C1023 0.950 . S
C994 H976 0.951 . S
C994 C995 1.366 . S
C994 C996 1.388 . S
C995 C994 1.366 . S
C995 C999 1.385 . S
C996 H977 0.951 . S
C996 C994 1.388 . S
C996 C997 1.366 . S
C997 C996 1.366 . S
C997 C998 1.414 . S
C997 C1000 1.499 1_545 S
C998 H978 0.950 . S
C998 C997 1.414 . S
C998 C999 1.374 . S
C999 H979 0.950 . S
C999 C995 1.385 . S
C999 C998 1.374 . S
C1000 C997 1.499 1_565 S
C1000 C1001 1.373 . S
C1000 C1002 1.389 . S
C1001 H980 0.950 . S
C1001 C1000 1.373 . S
C1001 C1017 1.377 . S
C1002 C1000 1.389 . S
C1002 C1003 1.524 . S
C1002 C1016 1.377 . S
C1003 C1002 1.524 . S
C1003 C1004 1.397 . S
C1003 C1008 1.363 . S
C1004 H981 0.950 . S
C1004 C1003 1.397 . S
C1004 C1005 1.334 . S
C1005 H982 0.950 . S
C1005 C1004 1.334 . S
C1005 C1006 1.287 . S
C1006 C1005 1.287 . S
C1006 C1007 1.524 . S
C1006 H1025 0.913 . S
C1007 H983 0.950 . S
C1007 C1006 1.524 . S
C1007 C1008 1.415 . S
C1008 H984 0.950 . S
C1008 C1003 1.363 . S
C1008 C1007 1.415 . S
C1009 H985 0.951 . S
C1009 C1010 1.366 . S
C1009 C1011 1.388 . S
C1010 C1009 1.366 . S
C1010 C1014 1.385 . S
C1011 H986 0.951 . S
C1011 C1009 1.388 . S
C1011 C1012 1.366 . S
C1012 C1011 1.366 . S
C1012 C1013 1.414 . S
C1012 C1015 1.499 . S
C1013 H987 0.950 . S
C1013 C1012 1.414 . S
C1013 C1014 1.374 . S
C1014 H988 0.950 . S
C1014 C1010 1.385 . S
C1014 C1013 1.374 . S
C1015 C1012 1.499 . S
C1015 C1016 1.373 . S
C1015 C1017 1.389 . S
C1016 H989 0.950 . S
C1016 C1002 1.377 . S
C1016 C1015 1.373 . S
C1017 C1001 1.377 . S
C1017 C1015 1.389 . S
C1017 C1018 1.524 . S
C1018 C1017 1.524 . S
C1018 C1019 1.397 . S
C1018 C1023 1.363 . S
C1019 H990 0.950 . S
C1019 C1018 1.397 . S
C1019 C1020 1.334 . S
C1020 H991 0.950 . S
C1020 C1019 1.334 . S
C1020 C1021 1.287 . S
C1021 C1020 1.287 . S
C1021 C1022 1.524 . S
C1021 H1024 0.999 . S
C1022 H992 0.950 . S
C1022 C1021 1.524 . S
C1022 C1023 1.415 . S
C1023 H993 0.950 . S
C1023 C1018 1.363 . S
C1023 C1022 1.415 . S
H1024 C1021 0.999 . S
H1025 C1006 0.913 . S
H1026 C1044 0.951 . S
H1027 C1046 0.951 . S
H1028 C1048 0.950 . S
H1029 C1049 0.950 . S
H1030 C1051 0.950 . S
H1031 C1054 0.950 . S
H1032 C1055 0.950 . S
H1033 C1057 0.950 . S
H1034 C1058 0.950 . S
H1035 C1059 0.951 . S
H1036 C1061 0.951 . S
H1037 C1063 0.950 . S
H1038 C1064 0.950 . S
H1039 C1066 0.950 . S
H1040 C1069 0.950 . S
H1041 C1070 0.950 . S
H1042 C1072 0.950 . S
H1043 C1073 0.950 . S
C1044 H1026 0.951 . S
C1044 C1045 1.366 . S
C1044 C1046 1.388 . S
C1045 C1044 1.366 . S
C1045 C1049 1.385 . S
C1046 H1027 0.951 . S
C1046 C1044 1.388 . S
C1046 C1047 1.366 . S
C1047 C1046 1.366 . S
C1047 C1048 1.414 . S
C1047 C1050 1.499 . S
C1048 H1028 0.950 . S
C1048 C1047 1.414 . S
C1048 C1049 1.374 . S
C1049 H1029 0.950 . S
C1049 C1045 1.385 . S
C1049 C1048 1.374 . S
C1050 C1047 1.499 . S
C1050 C1051 1.373 . S
C1050 C1052 1.389 . S
C1051 H1030 0.950 . S
C1051 C1050 1.373 . S
C1051 C1067 1.377 . S
C1052 C1050 1.389 . S
C1052 C1053 1.524 . S
C1052 C1066 1.377 . S
C1053 C1052 1.524 . S
C1053 C1054 1.397 . S
C1053 C1058 1.363 . S
C1054 H1031 0.950 . S
C1054 C1053 1.397 . S
C1054 C1055 1.334 . S
C1055 H1032 0.950 . S
C1055 C1054 1.334 . S
C1055 C1056 1.287 . S
C1056 C1055 1.287 . S
C1056 C1057 1.524 . S
C1056 H1075 0.913 . S
C1057 H1033 0.950 . S
C1057 C1056 1.524 . S
C1057 C1058 1.415 . S
C1058 H1034 0.950 . S
C1058 C1053 1.363 . S
C1058 C1057 1.415 . S
C1059 H1035 0.951 . S
C1059 C1060 1.366 . S
C1059 C1061 1.388 . S
C1060 C1059 1.366 . S
C1060 C1064 1.385 . S
C1061 H1036 0.951 . S
C1061 C1059 1.388 . S
C1061 C1062 1.366 . S
C1062 C1061 1.366 . S
C1062 C1063 1.414 . S
C1062 C1065 1.499 . S
C1063 H1037 0.950 . S
C1063 C1062 1.414 . S
C1063 C1064 1.374 . S
C1064 H1038 0.950 . S
C1064 C1060 1.385 . S
C1064 C1063 1.374 . S
C1065 C1062 1.499 . S
C1065 C1066 1.373 . S
C1065 C1067 1.389 . S
C1066 H1039 0.950 . S
C1066 C1052 1.377 . S
C1066 C1065 1.373 . S
C1067 C1051 1.377 . S
C1067 C1065 1.389 . S
C1067 C1068 1.524 . S
C1068 C1067 1.524 . S
C1068 C1069 1.397 . S
C1068 C1073 1.363 . S
C1069 H1040 0.950 . S
C1069 C1068 1.397 . S
C1069 C1070 1.334 . S
C1070 H1041 0.950 . S
C1070 C1069 1.334 . S
C1070 C1071 1.287 . S
C1071 C1070 1.287 . S
C1071 C1072 1.524 . S
C1071 H1074 0.999 . S
C1072 H1042 0.950 . S
C1072 C1071 1.524 . S
C1072 C1073 1.415 . S
C1073 H1043 0.950 . S
C1073 C1068 1.363 . S
C1073 C1072 1.415 . S
H1074 C1071 0.999 . S
H1075 C1056 0.913 . S
H1076 C1094 0.951 . S
H1077 C1096 0.951 . S
H1078 C1098 0.950 . S
H1079 C1099 0.950 . S
H1080 C1101 0.950 . S
H1081 C1104 0.950 . S
H1082 C1105 0.950 . S
H1083 C1107 0.950 1_655 S
H1084 C1108 0.950 . S
H1085 C1109 0.951 . S
H1086 C1111 0.951 1_455 S
H1087 C1113 0.950 . S
H1088 C1114 0.950 . S
H1089 C1116 0.950 1_655 S
H1090 C1119 0.950 . S
H1091 C1120 0.950 . S
H1092 C1122 0.950 . S
H1093 C1123 0.950 . S
C1094 H1076 0.951 . S
C1094 C1095 1.366 . S
C1094 C1096 1.388 . S
C1095 C1094 1.366 . S
C1095 C1099 1.385 . S
C1096 H1077 0.951 . S
C1096 C1094 1.388 . S
C1096 C1097 1.366 . S
C1097 C1096 1.366 . S
C1097 C1098 1.414 . S
C1097 C1100 1.499 . S
C1098 H1078 0.950 . S
C1098 C1097 1.414 . S
C1098 C1099 1.374 . S
C1099 H1079 0.950 . S
C1099 C1095 1.385 . S
C1099 C1098 1.374 . S
C1100 C1097 1.499 . S
C1100 C1101 1.373 . S
C1100 C1102 1.389 . S
C1101 H1080 0.950 . S
C1101 C1100 1.373 . S
C1101 C1117 1.377 . S
C1102 C1100 1.389 . S
C1102 C1103 1.524 . S
C1102 C1116 1.377 . S
C1103 C1102 1.524 . S
C1103 C1104 1.397 . S
C1103 C1108 1.363 . S
C1104 H1081 0.950 . S
C1104 C1103 1.397 . S
C1104 C1105 1.334 . S
C1105 H1082 0.950 . S
C1105 C1104 1.334 . S
C1105 C1106 1.287 . S
C1106 C1105 1.287 . S
C1106 C1107 1.524 . S
C1106 H1125 0.913 . S
C1107 H1083 0.950 1_455 S
C1107 C1106 1.524 . S
C1107 C1108 1.415 . S
C1108 H1084 0.950 . S
C1108 C1103 1.363 . S
C1108 C1107 1.415 . S
C1109 H1085 0.951 . S
C1109 C1110 1.366 . S
C1109 C1111 1.388 . S
C1110 C1109 1.366 . S
C1110 C1114 1.385 . S
C1111 H1086 0.951 1_655 S
C1111 C1109 1.388 . S
C1111 C1112 1.366 . S
C1112 C1111 1.366 . S
C1112 C1113 1.414 . S
C1112 C1115 1.499 1_655 S
C1113 H1087 0.950 . S
C1113 C1112 1.414 . S
C1113 C1114 1.374 . S
C1114 H1088 0.950 . S
C1114 C1110 1.385 . S
C1114 C1113 1.374 . S
C1115 C1112 1.499 1_455 S
C1115 C1116 1.373 . S
C1115 C1117 1.389 . S
C1116 H1089 0.950 1_455 S
C1116 C1102 1.377 . S
C1116 C1115 1.373 . S
C1117 C1101 1.377 . S
C1117 C1115 1.389 . S
C1117 C1118 1.524 . S
C1118 C1117 1.524 . S
C1118 C1119 1.397 . S
C1118 C1123 1.363 . S
C1119 H1090 0.950 . S
C1119 C1118 1.397 . S
C1119 C1120 1.334 . S
C1120 H1091 0.950 . S
C1120 C1119 1.334 . S
C1120 C1121 1.287 . S
C1121 C1120 1.287 . S
C1121 C1122 1.524 . S
C1121 H1124 0.999 . S
C1122 H1092 0.950 . S
C1122 C1121 1.524 . S
C1122 C1123 1.415 . S
C1123 H1093 0.950 . S
C1123 C1118 1.363 . S
C1123 C1122 1.415 . S
H1124 C1121 0.999 . S
H1125 C1106 0.913 . S
H1126 C1144 0.951 . S
H1127 C1146 0.951 . S
H1128 C1148 0.950 . S
H1129 C1149 0.950 . S
H1130 C1151 0.950 . S
H1131 C1154 0.950 . S
H1132 C1155 0.950 . S
H1133 C1157 0.950 . S
H1134 C1158 0.950 . S
H1135 C1159 0.951 . S
H1136 C1161 0.951 . S
H1137 C1163 0.950 . S
H1138 C1164 0.950 . S
H1139 C1166 0.950 . S
H1140 C1169 0.950 . S
H1141 C1170 0.950 . S
H1142 C1172 0.950 . S
H1143 C1173 0.950 . S
C1144 H1126 0.951 . S
C1144 C1145 1.366 . S
C1144 C1146 1.388 . S
C1145 C1144 1.366 . S
C1145 C1149 1.385 . S
C1146 H1127 0.951 . S
C1146 C1144 1.388 . S
C1146 C1147 1.366 . S
C1147 C1146 1.366 . S
C1147 C1148 1.414 . S
C1147 C1150 1.499 . S
C1148 H1128 0.950 . S
C1148 C1147 1.414 . S
C1148 C1149 1.374 . S
C1149 H1129 0.950 . S
C1149 C1145 1.385 . S
C1149 C1148 1.374 . S
C1150 C1147 1.499 . S
C1150 C1151 1.373 . S
C1150 C1152 1.389 . S
C1151 H1130 0.950 . S
C1151 C1150 1.373 . S
C1151 C1167 1.377 . S
C1152 C1150 1.389 . S
C1152 C1153 1.524 . S
C1152 C1166 1.377 . S
C1153 C1152 1.524 . S
C1153 C1154 1.397 . S
C1153 C1158 1.363 . S
C1154 H1131 0.950 . S
C1154 C1153 1.397 . S
C1154 C1155 1.334 . S
C1155 H1132 0.950 . S
C1155 C1154 1.334 . S
C1155 C1156 1.287 . S
C1156 C1155 1.287 . S
C1156 C1157 1.524 . S
C1156 H1175 0.913 . S
C1157 H1133 0.950 . S
C1157 C1156 1.524 . S
C1157 C1158 1.415 . S
C1158 H1134 0.950 . S
C1158 C1153 1.363 . S
C1158 C1157 1.415 . S
C1159 H1135 0.951 . S
C1159 C1160 1.366 . S
C1159 C1161 1.388 . S
C1160 C1159 1.366 . S
C1160 C1164 1.385 . S
C1161 H1136 0.951 . S
C1161 C1159 1.388 . S
C1161 C1162 1.366 . S
C1162 C1161 1.366 . S
C1162 C1163 1.414 . S
C1162 C1165 1.499 1_565 S
C1163 H1137 0.950 . S
C1163 C1162 1.414 . S
C1163 C1164 1.374 . S
C1164 H1138 0.950 . S
C1164 C1160 1.385 . S
C1164 C1163 1.374 . S
C1165 C1162 1.499 1_545 S
C1165 C1166 1.373 . S
C1165 C1167 1.389 . S
C1166 H1139 0.950 . S
C1166 C1152 1.377 . S
C1166 C1165 1.373 . S
C1167 C1151 1.377 . S
C1167 C1165 1.389 . S
C1167 C1168 1.524 . S
C1168 C1167 1.524 . S
C1168 C1169 1.397 . S
C1168 C1173 1.363 . S
C1169 H1140 0.950 . S
C1169 C1168 1.397 . S
C1169 C1170 1.334 . S
C1170 H1141 0.950 . S
C1170 C1169 1.334 . S
C1170 C1171 1.287 . S
C1171 C1170 1.287 . S
C1171 C1172 1.524 . S
C1171 H1174 0.999 . S
C1172 H1142 0.950 . S
C1172 C1171 1.524 . S
C1172 C1173 1.415 . S
C1173 H1143 0.950 . S
C1173 C1168 1.363 . S
C1173 C1172 1.415 . S
H1174 C1171 0.999 . S
H1175 C1156 0.913 . S
H1176 C1194 0.951 . S
H1177 C1196 0.951 . S
H1178 C1198 0.950 . S
H1179 C1199 0.950 . S
H1180 C1201 0.950 . S
H1181 C1204 0.950 . S
H1182 C1205 0.950 . S
H1183 C1207 0.950 . S
H1184 C1208 0.950 . S
H1185 C1209 0.951 . S
H1186 C1211 0.951 . S
H1187 C1213 0.950 . S
H1188 C1214 0.950 . S
H1189 C1216 0.950 . S
H1190 C1219 0.950 . S
H1191 C1220 0.950 . S
H1192 C1222 0.950 . S
H1193 C1223 0.950 . S
C1194 H1176 0.951 . S
C1194 C1195 1.366 . S
C1194 C1196 1.388 . S
C1195 C1194 1.366 . S
C1195 C1199 1.385 . S
C1196 H1177 0.951 . S
C1196 C1194 1.388 . S
C1196 C1197 1.366 . S
C1197 C1196 1.366 . S
C1197 C1198 1.414 . S
C1197 C1200 1.499 . S
C1198 H1178 0.950 . S
C1198 C1197 1.414 . S
C1198 C1199 1.374 . S
C1199 H1179 0.950 . S
C1199 C1195 1.385 . S
C1199 C1198 1.374 . S
C1200 C1197 1.499 . S
C1200 C1201 1.373 . S
C1200 C1202 1.389 . S
C1201 H1180 0.950 . S
C1201 C1200 1.373 . S
C1201 C1217 1.377 . S
C1202 C1200 1.389 . S
C1202 C1203 1.524 . S
C1202 C1216 1.377 . S
C1203 C1202 1.524 . S
C1203 C1204 1.397 . S
C1203 C1208 1.363 . S
C1204 H1181 0.950 . S
C1204 C1203 1.397 . S
C1204 C1205 1.334 . S
C1205 H1182 0.950 . S
C1205 C1204 1.334 . S
C1205 C1206 1.287 . S
C1206 C1205 1.287 . S
C1206 C1207 1.524 . S
C1206 H1225 0.913 . S
C1207 H1183 0.950 . S
C1207 C1206 1.524 . S
C1207 C1208 1.415 . S
C1208 H1184 0.950 . S
C1208 C1203 1.363 . S
C1208 C1207 1.415 . S
C1209 H1185 0.951 . S
C1209 C1210 1.366 . S
C1209 C1211 1.388 . S
C1210 C1209 1.366 . S
C1210 C1214 1.385 . S
C1211 H1186 0.951 . S
C1211 C1209 1.388 . S
C1211 C1212 1.366 . S
C1212 C1211 1.366 . S
C1212 C1213 1.414 . S
C1212 C1215 1.499 . S
C1213 H1187 0.950 . S
C1213 C1212 1.414 . S
C1213 C1214 1.374 . S
C1214 H1188 0.950 . S
C1214 C1210 1.385 . S
C1214 C1213 1.374 . S
C1215 C1212 1.499 . S
C1215 C1216 1.373 . S
C1215 C1217 1.389 . S
C1216 H1189 0.950 . S
C1216 C1202 1.377 . S
C1216 C1215 1.373 . S
C1217 C1201 1.377 . S
C1217 C1215 1.389 . S
C1217 C1218 1.524 . S
C1218 C1217 1.524 . S
C1218 C1219 1.397 . S
C1218 C1223 1.363 . S
C1219 H1190 0.950 . S
C1219 C1218 1.397 . S
C1219 C1220 1.334 . S
C1220 H1191 0.950 . S
C1220 C1219 1.334 . S
C1220 C1221 1.287 . S
C1221 C1220 1.287 . S
C1221 C1222 1.524 . S
C1221 H1224 0.999 . S
C1222 H1192 0.950 . S
C1222 C1221 1.524 . S
C1222 C1223 1.415 . S
C1223 H1193 0.950 . S
C1223 C1218 1.363 . S
C1223 C1222 1.415 . S
H1224 C1221 0.999 . S
H1225 C1206 0.913 . S
H1226 C1244 0.951 . S
H1227 C1246 0.951 . S
H1228 C1248 0.950 . S
H1229 C1249 0.950 . S
H1230 C1251 0.950 . S
H1231 C1254 0.950 . S
H1232 C1255 0.950 . S
H1233 C1257 0.950 . S
H1234 C1258 0.950 . S
H1235 C1259 0.951 . S
H1236 C1261 0.951 . S
H1237 C1263 0.950 . S
H1238 C1264 0.950 . S
H1239 C1266 0.944 1_455 S
H1240 C1269 0.950 . S
H1241 C1270 0.950 . S
H1242 C1272 0.950 . S
H1243 C1273 0.950 . S
C1244 H1226 0.951 . S
C1244 C1245 1.366 . S
C1244 C1246 1.388 . S
C1245 C1244 1.366 . S
C1245 C1249 1.385 . S
C1246 H1227 0.951 . S
C1246 C1244 1.388 . S
C1246 C1247 1.366 . S
C1247 C1246 1.366 . S
C1247 C1248 1.414 . S
C1247 C1250 1.499 . S
C1248 H1228 0.950 . S
C1248 C1247 1.414 . S
C1248 C1249 1.374 . S
C1249 H1229 0.950 . S
C1249 C1245 1.385 . S
C1249 C1248 1.374 . S
C1250 C1247 1.499 . S
C1250 C1251 1.373 . S
C1250 C1252 1.389 . S
C1251 H1230 0.950 . S
C1251 C1250 1.373 . S
C1251 C1267 1.377 . S
C1252 C1250 1.389 . S
C1252 C1253 1.524 . S
C1252 C1266 1.377 . S
C1253 C1252 1.524 . S
C1253 C1254 1.397 . S
C1253 C1258 1.363 . S
C1254 H1231 0.950 . S
C1254 C1253 1.397 . S
C1254 C1255 1.334 . S
C1255 H1232 0.950 . S
C1255 C1254 1.334 . S
C1255 C1256 1.287 . S
C1256 C1255 1.287 . S
C1256 C1257 1.524 . S
C1256 H1275 0.913 . S
C1257 H1233 0.950 . S
C1257 C1256 1.524 . S
C1257 C1258 1.415 . S
C1258 H1234 0.950 . S
C1258 C1253 1.363 . S
C1258 C1257 1.415 . S
C1259 H1235 0.951 . S
C1259 C1260 1.366 . S
C1259 C1261 1.388 . S
C1260 C1259 1.366 . S
C1260 C1264 1.385 . S
C1261 H1236 0.951 . S
C1261 C1259 1.388 . S
C1261 C1262 1.366 . S
C1262 C1261 1.366 . S
C1262 C1263 1.414 . S
C1262 C1265 1.499 1_454 S
C1263 H1237 0.950 . S
C1263 C1262 1.414 . S
C1263 C1264 1.374 . S
C1264 H1238 0.950 . S
C1264 C1260 1.385 . S
C1264 C1263 1.374 . S
C1265 C1262 1.499 1_656 S
C1265 C1266 1.373 . S
C1265 C1267 1.389 . S
C1266 H1239 0.944 1_655 S
C1266 C1252 1.377 . S
C1266 C1265 1.373 . S
C1267 C1251 1.377 . S
C1267 C1265 1.389 . S
C1267 C1268 1.524 1_556 S
C1268 C1267 1.524 1_554 S
C1268 C1269 1.397 . S
C1268 C1273 1.363 . S
C1269 H1240 0.950 . S
C1269 C1268 1.397 . S
C1269 C1270 1.334 . S
C1270 H1241 0.950 . S
C1270 C1269 1.334 . S
C1270 C1271 1.287 . S
C1271 C1270 1.287 . S
C1271 C1272 1.524 . S
C1271 H1274 0.999 . S
C1272 H1242 0.950 . S
C1272 C1271 1.524 . S
C1272 C1273 1.415 . S
C1273 H1243 0.950 . S
C1273 C1268 1.363 . S
C1273 C1272 1.415 . S
H1274 C1271 0.999 . S
H1275 C1256 0.913 . S
H1276 C1294 0.951 . S
H1277 C1296 0.951 . S
H1278 C1298 0.950 . S
H1279 C1299 0.950 . S
H1280 C1301 0.950 . S
H1281 C1304 0.950 . S
H1282 C1305 0.950 . S
H1283 C1307 0.950 . S
H1284 C1308 0.950 . S
H1285 C1309 0.951 . S
H1286 C1311 0.951 . S
H1287 C1313 0.950 . S
H1288 C1314 0.950 . S
H1289 C1316 0.950 . S
H1290 C1319 0.950 . S
H1291 C1320 0.950 . S
H1292 C1322 0.950 . S
H1293 C1323 0.950 1_565 S
C1294 H1276 0.951 . S
C1294 C1295 1.366 . S
C1294 C1296 1.388 . S
C1295 C1294 1.366 . S
C1295 C1299 1.385 . S
C1296 H1277 0.951 . S
C1296 C1294 1.388 . S
C1296 C1297 1.366 . S
C1297 C1296 1.366 . S
C1297 C1298 1.414 . S
C1297 C1300 1.499 . S
C1298 H1278 0.950 . S
C1298 C1297 1.414 . S
C1298 C1299 1.374 . S
C1299 H1279 0.950 . S
C1299 C1295 1.385 . S
C1299 C1298 1.374 . S
C1300 C1297 1.499 . S
C1300 C1301 1.373 . S
C1300 C1302 1.389 . S
C1301 H1280 0.950 . S
C1301 C1300 1.373 . S
C1301 C1317 1.377 . S
C1302 C1300 1.389 . S
C1302 C1303 1.524 . S
C1302 C1316 1.377 . S
C1303 C1302 1.524 . S
C1303 C1304 1.397 . S
C1303 C1308 1.363 . S
C1304 H1281 0.950 . S
C1304 C1303 1.397 . S
C1304 C1305 1.334 . S
C1305 H1282 0.950 . S
C1305 C1304 1.334 . S
C1305 C1306 1.287 . S
C1306 C1305 1.287 . S
C1306 C1307 1.524 . S
C1306 H1325 0.913 . S
C1307 H1283 0.950 . S
C1307 C1306 1.524 . S
C1307 C1308 1.415 . S
C1308 H1284 0.950 . S
C1308 C1303 1.363 . S
C1308 C1307 1.415 . S
C1309 H1285 0.951 . S
C1309 C1310 1.366 . S
C1309 C1311 1.388 . S
C1310 C1309 1.366 . S
C1310 C1314 1.385 . S
C1311 H1286 0.951 . S
C1311 C1309 1.388 . S
C1311 C1312 1.366 . S
C1312 C1311 1.366 . S
C1312 C1313 1.414 . S
C1312 C1315 1.499 1_545 S
C1313 H1287 0.950 . S
C1313 C1312 1.414 . S
C1313 C1314 1.374 . S
C1314 H1288 0.950 . S
C1314 C1310 1.385 . S
C1314 C1313 1.374 . S
C1315 C1312 1.499 1_565 S
C1315 C1316 1.373 . S
C1315 C1317 1.389 . S
C1316 H1289 0.950 . S
C1316 C1302 1.377 . S
C1316 C1315 1.373 . S
C1317 C1301 1.377 . S
C1317 C1315 1.389 . S
C1317 C1318 1.524 1_565 S
C1318 C1317 1.524 1_545 S
C1318 C1319 1.397 . S
C1318 C1323 1.363 . S
C1319 H1290 0.950 . S
C1319 C1318 1.397 . S
C1319 C1320 1.334 . S
C1320 H1291 0.950 . S
C1320 C1319 1.334 . S
C1320 C1321 1.287 . S
C1321 C1320 1.287 . S
C1321 C1322 1.524 . S
C1321 H1324 0.999 . S
C1322 H1292 0.950 . S
C1322 C1321 1.524 . S
C1322 C1323 1.415 . S
C1323 H1293 0.950 1_545 S
C1323 C1318 1.363 . S
C1323 C1322 1.415 . S
H1324 C1321 0.999 . S
H1325 C1306 0.913 . S
H1326 C1344 0.951 . S
H1327 C1346 0.951 . S
H1328 C1348 0.950 . S
H1329 C1349 0.950 . S
H1330 C1351 0.950 . S
H1331 C1354 0.950 . S
H1332 C1355 0.950 . S
H1333 C1357 0.950 . S
H1334 C1358 0.950 . S
H1335 C1359 0.951 . S
H1336 C1361 0.951 . S
H1337 C1363 0.950 . S
H1338 C1364 0.950 . S
H1339 C1366 0.950 . S
H1340 C1369 0.950 . S
H1341 C1370 0.950 . S
H1342 C1372 0.950 . S
H1343 C1373 0.950 . S
C1344 H1326 0.951 . S
C1344 C1345 1.366 . S
C1344 C1346 1.388 . S
C1345 C1344 1.366 . S
C1345 C1349 1.385 . S
C1346 H1327 0.951 . S
C1346 C1344 1.388 . S
C1346 C1347 1.366 . S
C1347 C1346 1.366 . S
C1347 C1348 1.414 . S
C1347 C1350 1.499 . S
C1348 H1328 0.950 . S
C1348 C1347 1.414 . S
C1348 C1349 1.374 . S
C1349 H1329 0.950 . S
C1349 C1345 1.385 . S
C1349 C1348 1.374 . S
C1350 C1347 1.499 . S
C1350 C1351 1.373 . S
C1350 C1352 1.389 . S
C1351 H1330 0.950 . S
C1351 C1350 1.373 . S
C1351 C1367 1.377 . S
C1352 C1350 1.389 . S
C1352 C1353 1.524 . S
C1352 C1366 1.377 . S
C1353 C1352 1.524 . S
C1353 C1354 1.397 . S
C1353 C1358 1.363 . S
C1354 H1331 0.950 . S
C1354 C1353 1.397 . S
C1354 C1355 1.334 . S
C1355 H1332 0.950 . S
C1355 C1354 1.334 . S
C1355 C1356 1.287 . S
C1356 C1355 1.287 . S
C1356 C1357 1.524 . S
C1356 H1375 0.913 . S
C1357 H1333 0.950 . S
C1357 C1356 1.524 . S
C1357 C1358 1.415 . S
C1358 H1334 0.950 . S
C1358 C1353 1.363 . S
C1358 C1357 1.415 . S
C1359 H1335 0.951 . S
C1359 C1360 1.366 . S
C1359 C1361 1.388 . S
C1360 C1359 1.366 . S
C1360 C1364 1.385 . S
C1361 H1336 0.951 . S
C1361 C1359 1.388 . S
C1361 C1362 1.366 . S
C1362 C1361 1.366 . S
C1362 C1363 1.414 . S
C1362 C1365 1.499 . S
C1363 H1337 0.950 . S
C1363 C1362 1.414 . S
C1363 C1364 1.374 . S
C1364 H1338 0.950 . S
C1364 C1360 1.385 . S
C1364 C1363 1.374 . S
C1365 C1362 1.499 . S
C1365 C1366 1.373 . S
C1365 C1367 1.389 . S
C1366 H1339 0.950 . S
C1366 C1352 1.377 . S
C1366 C1365 1.373 . S
C1367 C1351 1.377 . S
C1367 C1365 1.389 . S
C1367 C1368 1.524 . S
C1368 C1367 1.524 . S
C1368 C1369 1.397 . S
C1368 C1373 1.363 . S
C1369 H1340 0.950 . S
C1369 C1368 1.397 . S
C1369 C1370 1.334 . S
C1370 H1341 0.950 . S
C1370 C1369 1.334 . S
C1370 C1371 1.287 . S
C1371 C1370 1.287 . S
C1371 C1372 1.524 . S
C1371 H1374 0.999 . S
C1372 H1342 0.950 . S
C1372 C1371 1.524 . S
C1372 C1373 1.415 . S
C1373 H1343 0.950 . S
C1373 C1368 1.363 . S
C1373 C1372 1.415 . S
H1374 C1371 0.999 . S
H1375 C1356 0.913 . S
H1376 C1394 0.951 . S
H1377 C1396 0.951 . S
H1378 C1398 0.950 . S
H1379 C1399 0.950 . S
H1380 C1401 0.950 . S
H1381 C1404 0.950 . S
H1382 C1405 0.950 . S
H1383 C1407 0.950 . S
H1384 C1408 0.950 . S
H1385 C1409 0.951 . S
H1386 C1411 0.951 1_455 S
H1387 C1413 0.950 . S
H1388 C1414 0.950 . S
H1389 C1416 0.950 . S
H1390 C1419 0.950 . S
H1391 C1420 0.950 . S
H1392 C1422 0.950 . S
H1393 C1423 0.950 . S
C1394 H1376 0.951 . S
C1394 C1395 1.366 . S
C1394 C1396 1.388 . S
C1395 C1394 1.366 . S
C1395 C1399 1.385 . S
C1396 H1377 0.951 . S
C1396 C1394 1.388 . S
C1396 C1397 1.366 . S
C1397 C1396 1.366 . S
C1397 C1398 1.414 . S
C1397 C1400 1.499 . S
C1398 H1378 0.950 . S
C1398 C1397 1.414 . S
C1398 C1399 1.374 . S
C1399 H1379 0.950 . S
C1399 C1395 1.385 . S
C1399 C1398 1.374 . S
C1400 C1397 1.499 . S
C1400 C1401 1.373 . S
C1400 C1402 1.389 . S
C1401 H1380 0.950 . S
C1401 C1400 1.373 . S
C1401 C1417 1.377 . S
C1402 C1400 1.389 . S
C1402 C1403 1.524 . S
C1402 C1416 1.377 . S
C1403 C1402 1.524 . S
C1403 C1404 1.397 . S
C1403 C1408 1.363 . S
C1404 H1381 0.950 . S
C1404 C1403 1.397 . S
C1404 C1405 1.334 . S
C1405 H1382 0.950 . S
C1405 C1404 1.334 . S
C1405 C1406 1.287 . S
C1406 C1405 1.287 . S
C1406 C1407 1.524 . S
C1406 H1425 0.913 . S
C1407 H1383 0.950 . S
C1407 C1406 1.524 . S
C1407 C1408 1.415 . S
C1408 H1384 0.950 . S
C1408 C1403 1.363 . S
C1408 C1407 1.415 . S
C1409 H1385 0.951 . S
C1409 C1410 1.366 . S
C1409 C1411 1.388 . S
C1410 C1409 1.366 . S
C1410 C1414 1.385 . S
C1411 H1386 0.951 1_655 S
C1411 C1409 1.388 . S
C1411 C1412 1.366 . S
C1412 C1411 1.366 . S
C1412 C1413 1.414 . S
C1412 C1415 1.499 1_655 S
C1413 H1387 0.950 . S
C1413 C1412 1.414 . S
C1413 C1414 1.374 . S
C1414 H1388 0.950 . S
C1414 C1410 1.385 . S
C1414 C1413 1.374 . S
C1415 C1412 1.499 1_455 S
C1415 C1416 1.373 . S
C1415 C1417 1.389 . S
C1416 H1389 0.950 . S
C1416 C1402 1.377 . S
C1416 C1415 1.373 . S
C1417 C1401 1.377 . S
C1417 C1415 1.389 . S
C1417 C1418 1.524 . S
C1418 C1417 1.524 . S
C1418 C1419 1.397 1_455 S
C1418 C1423 1.363 . S
C1419 H1390 0.950 . S
C1419 C1418 1.397 1_655 S
C1419 C1420 1.334 . S
C1420 H1391 0.950 . S
C1420 C1419 1.334 . S
C1420 C1421 1.287 . S
C1421 C1420 1.287 . S
C1421 C1422 1.524 1_655 S
C1421 H1424 0.999 . S
C1422 H1392 0.950 . S
C1422 C1421 1.524 1_455 S
C1422 C1423 1.415 . S
C1423 H1393 0.950 . S
C1423 C1418 1.363 . S
C1423 C1422 1.415 . S
H1424 C1421 0.999 . S
H1425 C1406 0.913 . S
H1426 C1444 0.951 . S
H1427 C1446 0.951 1_545 S
H1428 C1448 0.950 . S
H1429 C1449 0.950 . S
H1430 C1451 0.950 . S
H1431 C1454 0.950 . S
H1432 C1455 0.950 . S
H1433 C1457 0.950 . S
H1434 C1458 0.950 . S
H1435 C1459 0.951 . S
H1436 C1461 0.951 . S
H1437 C1463 0.950 . S
H1438 C1464 0.950 . S
H1439 C1466 0.950 . S
H1440 C1469 0.950 . S
H1441 C1470 0.950 . S
H1442 C1472 0.950 . S
H1443 C1473 0.950 . S
C1444 H1426 0.951 . S
C1444 C1445 1.366 . S
C1444 C1446 1.388 . S
C1445 C1444 1.366 . S
C1445 C1449 1.385 . S
C1446 H1427 0.951 1_565 S
C1446 C1444 1.388 . S
C1446 C1447 1.366 . S
C1447 C1446 1.366 . S
C1447 C1448 1.414 . S
C1447 C1450 1.499 1_565 S
C1448 H1428 0.950 . S
C1448 C1447 1.414 . S
C1448 C1449 1.374 . S
C1449 H1429 0.950 . S
C1449 C1445 1.385 . S
C1449 C1448 1.374 . S
C1450 C1447 1.499 1_545 S
C1450 C1451 1.373 . S
C1450 C1452 1.389 . S
C1451 H1430 0.950 . S
C1451 C1450 1.373 . S
C1451 C1467 1.377 . S
C1452 C1450 1.389 . S
C1452 C1453 1.524 . S
C1452 C1466 1.377 . S
C1453 C1452 1.524 . S
C1453 C1454 1.397 1_545 S
C1453 C1458 1.363 . S
C1454 H1431 0.950 . S
C1454 C1453 1.397 1_565 S
C1454 C1455 1.334 . S
C1455 H1432 0.950 . S
C1455 C1454 1.334 . S
C1455 C1456 1.287 1_565 S
C1456 C1455 1.287 1_545 S
C1456 C1457 1.524 . S
C1456 H1475 0.913 1_545 S
C1457 H1433 0.950 . S
C1457 C1456 1.524 . S
C1457 C1458 1.415 . S
C1458 H1434 0.950 . S
C1458 C1453 1.363 . S
C1458 C1457 1.415 . S
C1459 H1435 0.951 . S
C1459 C1460 1.366 . S
C1459 C1461 1.388 . S
C1460 C1459 1.366 . S
C1460 C1464 1.385 . S
C1461 H1436 0.951 . S
C1461 C1459 1.388 . S
C1461 C1462 1.366 . S
C1462 C1461 1.366 . S
C1462 C1463 1.414 . S
C1462 C1465 1.499 . S
C1463 H1437 0.950 . S
C1463 C1462 1.414 . S
C1463 C1464 1.374 . S
C1464 H1438 0.950 . S
C1464 C1460 1.385 . S
C1464 C1463 1.374 . S
C1465 C1462 1.499 . S
C1465 C1466 1.373 . S
C1465 C1467 1.389 . S
C1466 H1439 0.950 . S
C1466 C1452 1.377 . S
C1466 C1465 1.373 . S
C1467 C1451 1.377 . S
C1467 C1465 1.389 . S
C1467 C1468 1.524 . S
C1468 C1467 1.524 . S
C1468 C1469 1.397 . S
C1468 C1473 1.363 . S
C1469 H1440 0.950 . S
C1469 C1468 1.397 . S
C1469 C1470 1.334 . S
C1470 H1441 0.950 . S
C1470 C1469 1.334 . S
C1470 C1471 1.287 . S
C1471 C1470 1.287 . S
C1471 C1472 1.524 . S
C1471 H1474 0.999 . S
C1472 H1442 0.950 . S
C1472 C1471 1.524 . S
C1472 C1473 1.415 . S
C1473 H1443 0.950 . S
C1473 C1468 1.363 . S
C1473 C1472 1.415 . S
H1474 C1471 0.999 . S
H1475 C1456 0.913 1_565 S
C295 N196 1.635 . S
C310 N12 1.634 . S
C345 N35 1.634 . S
C360 N219 1.635 . S
C395 N58 1.634 . S
C410 N242 1.634 . S
C445 N81 1.635 . S
C460 N265 1.635 . S
C495 N150 1.634 . S
C510 N104 1.635 . S
C545 N127 1.634 . S
C560 N173 1.634 . S
C595 N209 1.169 . S
C610 N2 1.168 . S
C645 N25 1.168 . S
C660 N232 1.167 . S
C695 N255 1.168 . S
C710 N48 1.168 . S
C745 N71 1.169 . S
C760 N140 1.169 . S
C795 N163 1.169 . S
C810 N94 1.168 . S
C845 N186 1.169 . S
C860 N117 1.169 . S
C895 C16 2.017 . S
C910 C122 2.002 . S
C945 C39 2.017 . S
C960 C7 2.002 . S
C995 C30 2.002 . S
C1010 C62 2.017 . S
C1045 C85 2.017 . S
C1060 C53 2.001 . S
C1095 C108 2.017 . S
C1110 C76 2.002 . S
C1145 C131 2.017 . S
C1160 C99 2.001 . S
C1195 C154 2.017 . S
C1210 C168 2.001 . S
C1245 C177 2.017 . S
C1260 C191 2.001 . S
C1295 C200 2.017 . S
C1310 C214 2.001 . S
C1345 C223 2.017 . S
C1360 C237 2.001 . S
C1395 C246 2.017 . S
C1410 C260 2.002 . S
C1445 C145 2.001 . S
C1460 C269 2.018 . S
