# Generated by pormake.
# Topology sml, (6)-cn, num edge types: 1
# Building blocks:
#     Node 0, Type 0, BuildingBlock: KUMBOL_clean_sbu_0, # of connection points: 6
#     Node 1, Type 0, BuildingBlock: KUMBOL_clean_sbu_0, # of connection points: 6
#     Node 2, Type 0, BuildingBlock: KUMBOL_clean_sbu_0, # of connection points: 6
#     Node 3, Type 0, BuildingBlock: KUMBOL_clean_sbu_0, # of connection points: 6
#     Node 4, Type 0, BuildingBlock: KUMBOL_clean_sbu_0, # of connection points: 6
#     Node 5, Type 0, BuildingBlock: KUMBOL_clean_sbu_0, # of connection points: 6
#     Edge 6, Type (0, 0), BuildingBlock: OJICUG_clean_linker_0, # of connection points: 2
#     Edge 7, Type (0, 0), BuildingBlock: OJICUG_clean_linker_0, # of connection points: 2
#     Edge 8, Type (0, 0), BuildingBlock: OJICUG_clean_linker_0, # of connection points: 2
#     Edge 9, Type (0, 0), BuildingBlock: OJICUG_clean_linker_0, # of connection points: 2
#     Edge 10, Type (0, 0), BuildingBlock: OJICUG_clean_linker_0, # of connection points: 2
#     Edge 11, Type (0, 0), BuildingBlock: OJICUG_clean_linker_0, # of connection points: 2
#     Edge 12, Type (0, 0), BuildingBlock: OJICUG_clean_linker_0, # of connection points: 2
#     Edge 13, Type (0, 0), BuildingBlock: OJICUG_clean_linker_0, # of connection points: 2
#     Edge 14, Type (0, 0), BuildingBlock: OJICUG_clean_linker_0, # of connection points: 2
#     Edge 15, Type (0, 0), BuildingBlock: OJICUG_clean_linker_0, # of connection points: 2
#     Edge 16, Type (0, 0), BuildingBlock: OJICUG_clean_linker_0, # of connection points: 2
#     Edge 17, Type (0, 0), BuildingBlock: OJICUG_clean_linker_0, # of connection points: 2
#     Edge 18, Type (0, 0), BuildingBlock: OJICUG_clean_linker_0, # of connection points: 2
#     Edge 19, Type (0, 0), BuildingBlock: OJICUG_clean_linker_0, # of connection points: 2
#     Edge 20, Type (0, 0), BuildingBlock: OJICUG_clean_linker_0, # of connection points: 2
#     Edge 21, Type (0, 0), BuildingBlock: OJICUG_clean_linker_0, # of connection points: 2
#     Edge 22, Type (0, 0), BuildingBlock: OJICUG_clean_linker_0, # of connection points: 2
#     Edge 23, Type (0, 0), BuildingBlock: OJICUG_clean_linker_0, # of connection points: 2
# Relax obj value: 0.049
# Max RMSD: 0.175
# Mean RMSD: 0.175
data_MOF--net-sml--node1-KUMBOL_clean_sbu_0--edge1-OJICUG_clean_linker_0
_symmetry_space_group_name_H-M    P1
_symmetry_Int_Tables_number       1
_symmetry_cell_setting            triclinic
loop_
_symmetry_equiv_pos_as_xyz
'x, y, z'
_cell_length_a     23.174595
_cell_length_b     23.162283
_cell_length_c     19.190824
_cell_angle_alpha  89.942915
_cell_angle_beta   90.236814
_cell_angle_gamma 119.93935
loop_
_atom_site_label
_atom_site_type_symbol
_atom_site_fract_x
_atom_site_fract_y
_atom_site_fract_z
_atom_type_partial_charge
Gd0 Gd 0.24178 0.40886 0.12407 0.0
Gd1 Gd 0.1155 0.39014 0.99539 0.0
C2 C 0.08023 0.57735 0.9906 0.0
C3 C 0.94943 0.52961 0.12066 0.0
C4 C -0.00452 0.44295 1.00822 0.0
C5 C 0.06017 0.50333 0.97968 0.0
C6 C 0.92203 0.45288 0.10256 0.0
C7 C 0.05202 0.60445 0.0462 0.0
C8 C 0.13849 0.62547 0.96034 0.0
C9 C 0.18729 0.61101 0.94621 0.0
N10 N 0.11508 0.49412 0.97481 0.0
C11 C 0.17675 0.54865 0.96222 0.0
H12 H 0.22187 0.55033 0.97361 0.0
C13 C 0.97371 0.32643 0.0901 0.0
N14 N 0.00748 0.37961 1.02601 0.0
C15 C 0.92319 0.33031 0.15777 0.0
C16 C 0.89916 0.39059 0.16517 0.0
H17 H 0.9663 0.27714 0.08253 0.0
H18 H 0.08366 0.6593 0.04704 0.0
H19 H 0.12758 0.247 0.18755 0.0
H20 H 0.15159 0.67686 0.96146 0.0
H21 H 0.23709 0.65103 0.93462 0.0
H22 H 0.92569 0.54037 0.16392 0.0
H23 H 0.4066 0.49257 0.16019 0.0
H24 H 0.17888 0.11354 0.0931 0.0
H25 H 0.09748 0.13383 0.15561 0.0
H26 H 0.41267 0.259 0.05343 0.0
H27 H 0.89568 0.28712 0.1895 0.0
H28 H 0.89027 0.40074 0.2167 0.0
H29 H 0.29719 0.16104 0.05218 0.0
H30 H 0.49779 0.46866 0.16983 0.0
N31 N 0.21596 0.29421 0.12632 0.0
C32 C 0.19014 0.16413 0.10328 0.0
C33 C 0.14389 0.17544 0.13765 0.0
C34 C 0.2532 0.21826 0.09006 0.0
C35 C 0.26487 0.28316 0.10401 0.0
C36 C 0.15923 0.24089 0.15186 0.0
N37 N 0.33746 0.39745 0.1176 0.0
C38 C 0.32819 0.33647 0.1021 0.0
C39 C 0.45107 0.43213 0.14676 0.0
C40 C 0.445 0.37515 0.11537 0.0
C41 C 0.39812 0.44484 0.14259 0.0
C42 C 0.3823 0.32597 0.09273 0.0
H43 H 0.48754 0.36768 0.11346 0.0
O44 O 0.30776 0.48633 0.19635 0.0
O45 O 0.16379 0.43794 0.10011 0.0
O46 O 0.22111 0.45866 0.95537 0.0
O47 O 0.30634 0.47634 1.03366 0.0
O48 O 0.26151 0.51313 0.11786 0.0
O49 O 0.23945 0.38481 0.23376 0.0
O50 O 0.04713 0.32896 0.91295 0.0
O51 O 0.19801 0.37005 1.01988 0.0
O52 O 0.13989 0.3596 0.17454 0.0
O53 O 0.07355 0.3072 0.07901 0.0
O54 O 0.11249 0.29122 0.97874 0.0
O55 O 0.14757 0.40812 0.88788 0.0
C56 C 0.20065 0.50037 0.11219 0.0
C57 C 0.37083 0.26447 0.0679 0.0
C58 C 0.30583 0.20988 0.0667 0.0
C59 C 0.28755 0.44479 0.24823 0.0
C60 C 0.31364 0.46527 0.31883 0.0
C61 C 0.38114 0.51049 0.33115 0.0
C62 C 0.27063 0.43613 0.37483 0.0
C63 C 0.29269 0.45348 0.44351 0.0
C64 C 0.4048 0.52563 0.39958 0.0
C65 C 0.36081 0.49765 0.4555 0.0
C66 C 0.28511 0.48971 0.97377 0.0
C67 C 0.17426 0.31178 0.99502 0.0
C68 C 0.09239 0.35838 0.86449 0.0
C69 C 0.07342 0.36096 0.79153 0.0
C70 C 0.0085 0.3453 0.77473 0.0
C71 C 0.11965 0.37439 0.7372 0.0
C72 C 0.10033 0.37188 0.66691 0.0
C73 C -0.01074 0.34111 0.7052 0.0
C74 C 0.03456 0.35454 0.65159 0.0
C75 C 0.08242 0.31456 0.14775 0.0
H76 H 0.41561 0.53251 0.28827 0.0
H77 H 0.22064 0.39805 0.36372 0.0
H78 H 0.45716 0.5596 0.40934 0.0
H79 H 0.38055 0.51108 0.50735 0.0
H80 H 0.97267 0.33599 0.81532 0.0
H81 H 0.1704 0.38716 0.74949 0.0
H82 H 0.93908 0.3276 0.69271 0.0
H83 H 0.01834 0.35175 0.59805 0.0
Gd84 Gd 0.82573 0.23859 0.45172 0.0
Gd85 Gd 0.70653 0.11987 0.32205 0.0
C86 C 0.48707 0.08849 0.31104 0.0
C87 C 0.40289 0.95859 0.44198 0.0
C88 C 0.53263 2e-05 0.32701 0.0
C89 C 0.53927 0.06631 0.29971 0.0
C90 C 0.44989 0.92841 0.42273 0.0
C91 C 0.43235 0.06125 0.36691 0.0
C92 C 0.50116 0.15002 0.28474 0.0
C93 C 0.56552 0.19789 0.27439 0.0
N94 N 0.60403 0.12036 0.2999 0.0
C95 C 0.6145 0.18379 0.29233 0.0
H96 H 0.65831 0.22612 0.30973 0.0
C97 C 0.62565 0.97266 0.40674 0.0
N98 N 0.60743 0.0092 0.34384 0.0
C99 C 0.57169 0.92369 0.47487 0.0
C100 C 0.4886 0.90305 0.48382 0.0
H101 H 0.66952 0.9678 0.40104 0.0
H102 H 0.41043 0.09408 0.36781 0.0
H103 H 0.85694 0.10259 0.42758 0.0
H104 H 0.4656 0.16662 0.28849 0.0
H105 H 0.57759 0.24909 0.2667 0.0
H106 H 0.36891 0.93592 0.48552 0.0
H107 H 0.89818 0.4035 0.46604 0.0
H108 H 0.06341 0.18119 0.41209 0.0
H109 H 0.94984 0.08544 0.41936 0.0
H110 H 0.14785 0.41624 0.40425 0.0
H111 H 0.58797 0.89713 0.50788 0.0
H112 H 0.4718 0.89705 0.53555 0.0
H113 H 0.13559 0.30251 0.40091 0.0
H114 H 0.01062 0.496 0.49115 0.0
N115 N 0.91267 0.20903 0.44192 0.0
C116 C 0.02202 0.18942 0.42175 0.0
C117 C 0.9582 0.13546 0.42608 0.0
C118 C 0.03125 0.25344 0.42634 0.0
C119 C -0.02435 0.262 0.43869 0.0
C120 C 0.9044 0.146 0.43449 0.0
N121 N 0.93101 0.33418 0.4445 0.0
C122 C -0.01533 0.32572 0.44096 0.0
C123 C 0.00379 0.44991 0.46998 0.0
C124 C 0.05844 0.4442 0.45189 0.0
C125 C 0.94005 0.39597 0.45887 0.0
C126 C 0.04884 0.38134 0.43592 0.0
H127 H 0.10772 0.48775 0.45362 0.0
O128 O 0.8034 0.30615 0.51111 0.0
O129 O 0.71641 0.18757 0.41482 0.0
O130 O 0.74933 0.22567 0.28311 0.0
O131 O 0.81281 0.30483 0.36775 0.0
O132 O 0.73858 0.1809 0.51877 0.0
O133 O 0.87249 0.27552 0.55179 0.0
O134 O 0.71116 0.06078 0.23599 0.0
O135 O 0.81241 0.19573 0.34466 0.0
O136 O 0.80168 0.14393 0.5066 0.0
O137 O 0.72791 0.07624 0.42244 0.0
O138 O 0.79534 0.10619 0.30157 0.0
O139 O 0.71077 0.15315 0.2153 0.0
C140 C 0.691 0.16836 0.4759 0.0
C141 C 0.10157 0.37271 0.41678 0.0
C142 C 0.09374 0.30897 0.41377 0.0
C143 C 0.84326 0.31047 0.56182 0.0
C144 C 0.83265 0.32443 0.63389 0.0
C145 C 0.8582 0.39137 0.65246 0.0
C146 C 0.80949 0.27529 0.68624 0.0
C147 C 0.81323 0.29358 0.75702 0.0
C148 C 0.86237 0.40961 0.72226 0.0
C149 C 0.84075 0.36119 0.77419 0.0
C150 C 0.78094 0.28789 0.30603 0.0
C151 C 0.84084 0.16692 0.31624 0.0
C152 C 0.71733 0.10497 0.1893 0.0
C153 C 0.69902 0.08575 0.11552 0.0
C154 C 0.6541 0.01966 0.0981 0.0
C155 C 0.73017 0.13284 0.06123 0.0
C156 C 0.71661 0.11239 0.99072 0.0
C157 C 0.64334 -0.00036 1.02863 0.0
C158 C 0.67388 0.0453 0.97528 0.0
C159 C 0.75826 0.08435 0.48387 0.0
H160 H 0.87801 0.43004 0.61306 0.0
H161 H 0.79217 0.22429 0.67165 0.0
H162 H 0.8838 0.46162 0.73626 0.0
H163 H 0.84646 0.37689 0.82784 0.0
H164 H 0.62777 -0.01641 0.13815 0.0
H165 H 0.76442 0.18468 0.07364 0.0
H166 H 0.61147 0.94861 1.01548 0.0
H167 H 0.66349 0.02827 0.92171 0.0
Gd168 Gd 0.55907 0.82582 0.78943 0.0
Gd169 Gd 0.56928 0.71134 0.66391 0.0
C170 C 0.37298 0.4926 0.64867 0.0
C171 C 0.40412 0.39379 0.77487 0.0
C172 C 0.50478 0.53757 0.68305 0.0
C173 C 0.44907 0.54574 0.647 0.0
C174 C 0.48184 0.44397 0.76981 0.0
C175 C 0.33902 0.42885 0.69435 0.0
C176 C 0.32826 0.51189 0.62682 0.0
C177 C 0.34775 0.57638 0.61395 0.0
N178 N 0.46247 0.61131 0.64301 0.0
C179 C 0.41153 0.62385 0.62968 0.0
H180 H 0.4137 0.66897 0.64191 0.0
C181 C 0.60696 0.62192 0.78496 0.0
N182 N 0.56474 0.60993 0.71213 0.0
C183 C 0.59358 0.56006 0.84905 0.0
C184 C 0.53386 0.47516 0.84278 0.0
H185 H 0.65844 0.65787 0.78299 0.0
H186 H 0.28467 0.40497 0.687 0.0
H187 H 0.72499 0.87875 0.84524 0.0
H188 H 0.27604 0.47981 0.63382 0.0
H189 H 0.31035 0.59066 0.60489 0.0
H190 H 0.38992 0.35773 0.81518 0.0
H191 H 0.47376 0.90217 0.83462 0.0
H192 H 0.84914 0.06425 0.74758 0.0
H193 H 0.83513 0.96395 0.80863 0.0
H194 H 0.69776 0.14735 0.72273 0.0
H195 H 0.62793 0.57287 0.89147 0.0
H196 H 0.51996 0.44634 0.88967 0.0
H197 H 0.79656 0.13232 0.71229 0.0
H198 H 0.49422 0.01586 0.84809 0.0
N199 N 0.67228 0.9177 0.78884 0.0
C200 C 0.79965 0.024 0.75979 0.0
C201 C 0.79185 0.96733 0.79353 0.0
C202 C 0.74375 0.03089 0.74997 0.0
C203 C 0.68041 0.97653 0.76636 0.0
C204 C 0.72788 0.91616 0.81074 0.0
N205 N 0.56755 0.93176 0.78813 0.0
C206 C 0.62602 -0.01554 0.76825 0.0
C207 C 0.53091 0.00757 0.82284 0.0
C208 C 0.58558 0.05999 0.79012 0.0
C209 C 0.52029 0.94281 0.81696 0.0
C210 C 0.63415 0.04847 0.76169 0.0
H211 H 0.59159 0.10946 0.79084 0.0
O212 O 0.48153 0.80739 0.86357 0.0
O213 O 0.52332 0.71789 0.7652 0.0
O214 O 0.50696 0.7554 0.6179 0.0
O215 O 0.49566 0.82617 0.69731 0.0
O216 O 0.45223 0.74661 0.77819 0.0
O217 O 0.57992 0.8322 0.9011 0.0
O218 O 0.62136 0.69062 0.58101 0.0
O219 O 0.59751 0.81639 0.68681 0.0
O220 O 0.61677 0.77994 0.83397 0.0
O221 O 0.65773 0.74802 0.73993 0.0
O222 O 0.6721 0.80182 0.6474 0.0
O223 O 0.55118 0.72542 0.55688 0.0
C224 C 0.46112 0.69584 0.77419 0.0
C225 C 0.69364 0.09995 0.73461 0.0
C226 C 0.74903 0.09116 0.72836 0.0
C227 C 0.51906 0.81594 0.91731 0.0
C228 C 0.50473 0.83806 0.98355 0.0
C229 C 0.45999 0.86215 0.98926 0.0
C230 C 0.53136 0.82686 0.04407 0.0
C231 C 0.51205 0.83631 0.11003 0.0
C232 C 0.44336 0.87546 0.05499 0.0
C233 C 0.4686 0.86183 0.11526 0.0
C234 C 0.4797 0.79177 0.63722 0.0
C235 C 0.65649 0.84701 0.66266 0.0
C236 C 0.59503 0.71125 0.53325 0.0
C237 C 0.59452 0.69725 0.45836 0.0
C238 C 0.61322 0.6518 0.43596 0.0
C239 C 0.58023 0.73324 0.40814 0.0
C240 C 0.58648 0.72388 0.3366 0.0
C241 C 0.62347 0.64642 0.36546 0.0
C242 C 0.61004 0.68172 0.31592 0.0
C243 C 0.65953 0.76459 0.80684 0.0
H244 H 0.43674 0.86939 0.9438 0.0
H245 H 0.56725 0.81052 0.03904 0.0
H246 H 0.40892 0.89405 0.05931 0.0
H247 H 0.45273 0.8696 0.16542 0.0
H248 H 0.61931 0.62036 0.47306 0.0
H249 H 0.56405 0.76777 0.42434 0.0
H250 H 0.6412 0.61453 0.34846 0.0
H251 H 0.61687 0.67515 0.26125 0.0
Gd252 Gd 0.71392 0.56313 0.11077 0.0
Gd253 Gd 0.83978 0.57402 0.98908 0.0
C254 C 0.87157 0.38654 0.99424 0.0
C255 C 0.00672 0.43706 0.12087 0.0
C256 C 0.95792 0.52118 1.00805 0.0
C257 C 0.89328 0.46049 0.98025 0.0
C258 C 0.03361 0.51333 0.10141 0.0
C259 C 0.90229 0.3607 0.04876 0.0
C260 C 0.81115 0.33805 0.96671 0.0
C261 C 0.76777 0.35525 0.93827 0.0
N262 N 0.84063 0.47134 0.96693 0.0
C263 C 0.78293 0.42065 0.9391 0.0
H264 H 0.74585 0.42809 0.91599 0.0
C265 C -0.01813 0.63964 0.08808 0.0
N266 N 0.94652 0.58499 1.02482 0.0
C267 C 0.03394 0.63706 0.15515 0.0
C268 C 0.05811 0.57688 0.1629 0.0
H269 H -0.01143 0.6888 0.08088 0.0
H270 H 0.87094 0.30588 0.0504 0.0
H271 H 0.84821 0.73116 0.10704 0.0
H272 H 0.79465 0.28596 0.97299 0.0
H273 H 0.71967 0.31727 0.91919 0.0
H274 H 0.03168 0.4271 0.16386 0.0
H275 H 0.55703 0.47985 1.0343 0.0
H276 H 0.76933 0.85725 0.13662 0.0
H277 H 0.86523 0.83938 0.13094 0.0
H278 H 0.54028 0.71568 0.08403 0.0
H279 H 0.06126 0.68054 0.18689 0.0
H280 H 0.06832 0.56752 0.21422 0.0
H281 H 0.64982 0.8121 0.11531 0.0
H282 H 0.46431 0.49815 1.01752 0.0
N283 N 0.74213 0.67836 0.11315 0.0
C284 C 0.76113 0.8071 0.13134 0.0
C285 C 0.81513 0.79722 0.12808 0.0
C286 C 0.69747 0.75273 0.1225 0.0
C287 C 0.68897 0.68789 0.11562 0.0
C288 C 0.80478 0.73319 0.1174 0.0
N289 N 0.62171 0.5755 0.08088 0.0
C290 C 0.62673 0.63442 0.10019 0.0
C291 C 0.50985 0.53693 0.04089 0.0
C292 C 0.5123 0.59324 0.06892 0.0
C293 C 0.56439 0.52762 0.04939 0.0
C294 C 0.57257 0.645 0.09167 0.0
H295 H 0.46854 0.59834 0.07141 0.0
O296 O 0.62728 0.5067 0.17673 0.0
O297 O 0.78783 0.52725 0.09206 0.0
O298 O 0.73401 0.51245 0.94553 0.0
O299 O 0.65436 0.4816 1.03134 0.0
O300 O 0.69137 0.45731 0.11848 0.0
O301 O 0.71945 0.58478 0.22164 0.0
O302 O 0.91037 0.62967 0.9062 0.0
O303 O 0.76311 0.6046 1.00684 0.0
O304 O 0.8103 0.60739 0.17109 0.0
O305 O 0.88079 0.65298 0.07741 0.0
O306 O 0.85608 0.67726 0.97001 0.0
O307 O 0.80866 0.54952 0.88145 0.0
C308 C 0.7502 0.46587 0.10801 0.0
C309 C 0.58112 0.70843 0.09781 0.0
C310 C 0.64317 0.76245 0.11397 0.0
C311 C 0.65755 0.53966 0.23284 0.0
C312 C 0.6381 0.50594 0.30158 0.0
C313 C 0.57217 0.45484 0.31237 0.0
C314 C 0.68064 0.53307 0.3598 0.0
C315 C 0.65829 0.50929 0.42772 0.0
C316 C 0.54907 0.43257 0.37959 0.0
C317 C 0.59163 0.46013 0.43666 0.0
C318 C 0.67217 0.47519 0.96784 0.0
C319 C 0.79568 0.6641 0.98271 0.0
C320 C 0.86597 0.59515 0.85802 0.0
C321 C 0.87857 0.60617 0.78239 0.0
C322 C 0.94434 0.63768 0.75972 0.0
C323 C 0.82676 0.58511 0.73234 0.0
C324 C 0.84248 0.59802 0.66081 0.0
C325 C 0.95969 0.65385 0.68988 0.0
C326 C 0.90925 0.63375 0.64049 0.0
C327 C 0.86986 0.64725 0.14612 0.0
H328 H 0.53746 0.43425 0.26932 0.0
H329 H 0.72856 0.57675 0.35202 0.0
H330 H 0.49761 0.39471 0.38766 0.0
H331 H 0.57186 0.44425 0.48786 0.0
H332 H -0.01659 0.64827 0.79645 0.0
H333 H 0.77512 0.55882 0.74854 0.0
H334 H 0.01075 0.68171 0.67375 0.0
H335 H 0.92237 0.64519 0.58611 0.0
Gd336 Gd 0.12449 0.72638 0.45244 0.0
Gd337 Gd 0.24364 0.84563 0.32457 0.0
C338 C 0.46163 0.87614 0.31359 0.0
C339 C 0.55189 0.01047 0.43935 0.0
C340 C 0.41738 0.96559 0.32895 0.0
C341 C 0.40979 0.89879 0.30256 0.0
C342 C 0.50403 0.04013 0.42103 0.0
C343 C 0.51892 0.90536 0.36675 0.0
C344 C 0.44449 0.81214 0.29277 0.0
C345 C 0.37991 0.76496 0.28338 0.0
N346 N 0.34502 0.84532 0.30429 0.0
C347 C 0.33286 0.78141 0.30012 0.0
H348 H 0.28973 0.74164 0.3213 0.0
C349 C 0.32735 -0.00528 0.41119 0.0
N350 N 0.34316 0.95659 0.34798 0.0
C351 C 0.38437 0.04613 0.47688 0.0
C352 C 0.46804 0.0675 0.48289 0.0
H353 H 0.28272 -0.00152 0.40759 0.0
H354 H 0.54099 0.87267 0.36767 0.0
H355 H 0.10361 0.86918 0.42718 0.0
H356 H 0.47738 0.79325 0.30222 0.0
H357 H 0.36648 0.71302 0.27962 0.0
H358 H 0.58747 0.03397 0.48172 0.0
H359 H 0.04903 0.56868 0.39287 0.0
H360 H 0.89885 0.80347 0.43345 0.0
H361 H 0.01531 0.89413 0.4314 0.0
H362 H 0.80171 0.56939 0.4071 0.0
H363 H 0.36968 0.07398 0.50965 0.0
H364 H 0.49048 0.08171 0.53269 0.0
H365 H 0.81949 0.68321 0.4211 0.0
H366 H 0.93593 0.47905 0.36808 0.0
N367 N 0.04343 0.76365 0.44405 0.0
C368 C 0.93867 0.7919 0.43748 0.0
C369 C 0.00414 0.84302 0.43655 0.0
C370 C 0.92549 0.72635 0.43781 0.0
C371 C -0.02084 0.7133 0.44218 0.0
C372 C 0.0555 0.82813 0.43801 0.0
N373 N 0.01913 0.63824 0.4244 0.0
C374 C 0.967 0.64874 0.43347 0.0
C375 C 0.94413 0.5256 0.38951 0.0
C376 C 0.89051 0.53374 0.40582 0.0
C377 C 0.00855 0.5779 0.40138 0.0
C378 C 0.90171 0.59667 0.42269 0.0
H379 H 0.84018 0.49274 0.40153 0.0
O380 O 0.12227 0.64261 0.50852 0.0
O381 O 0.2338 0.77624 0.41634 0.0
O382 O 0.19729 0.73915 0.28386 0.0
O383 O 0.14875 0.66432 0.37502 0.0
O384 O 0.21287 0.77523 0.52191 0.0
O385 O 0.07226 0.69299 0.55028 0.0
O386 O 0.23773 0.90313 0.23747 0.0
O387 O 0.13774 0.77042 0.346 0.0
O388 O 0.15428 0.82019 0.51118 0.0
O389 O 0.22533 0.88926 0.42603 0.0
O390 O 0.15506 0.85989 0.30242 0.0
O391 O 0.24418 0.81373 0.2178 0.0
C392 C 0.26014 0.79116 0.4778 0.0
C393 C 0.84958 0.60955 0.4203 0.0
C394 C 0.86067 0.67397 0.42746 0.0
C395 C 0.08796 0.64696 0.5601 0.0
C396 C 0.10266 0.63568 0.63277 0.0
C397 C 0.08656 0.57078 0.65109 0.0
C398 C 0.12444 0.68511 0.68564 0.0
C399 C 0.13115 0.66956 0.75574 0.0
C400 C 0.0919 0.55496 0.72 0.0
C401 C 0.11411 0.60379 0.77167 0.0
C402 C 0.17213 0.67835 0.31013 0.0
C403 C 0.10943 0.79919 0.31692 0.0
C404 C 0.23481 0.86 0.19111 0.0
C405 C 0.25047 0.87887 0.11673 0.0
C406 C 0.29184 0.94554 0.09923 0.0
C407 C 0.22046 0.83129 0.06224 0.0
C408 C 0.23185 0.85199 0.99155 0.0
C409 C 0.29908 0.96599 1.03004 0.0
C410 C 0.27019 0.91985 0.97647 0.0
C411 C 0.1972 0.87977 0.48873 0.0
H412 H 0.06805 0.53164 0.61219 0.0
H413 H 0.13355 0.73419 0.67209 0.0
H414 H 0.07843 0.5044 0.73357 0.0
H415 H 0.1175 0.58968 0.82437 0.0
H416 H 0.31787 0.98164 0.13939 0.0
H417 H 0.1886 0.77903 0.07462 0.0
H418 H 0.32649 0.01787 1.0176 0.0
H419 H 0.27798 0.93719 0.923 0.0
Gd420 Gd 0.39253 0.13542 0.78035 0.0
Gd421 Gd 0.38963 0.25753 0.65464 0.0
C422 C 0.56333 0.47208 0.6728 0.0
C423 C 0.49407 0.54175 0.7958 0.0
C424 C 0.42768 0.42371 0.66569 0.0
C425 C 0.49218 0.42389 0.64508 0.0
C426 C 0.42154 0.49554 0.76411 0.0
C427 C 0.58071 0.52166 0.73415 0.0
C428 C 0.61466 0.46212 0.64924 0.0
C429 C 0.60054 0.40835 0.60726 0.0
N430 N 0.48337 0.36404 0.62201 0.0
C431 C 0.5353 0.36282 0.59045 0.0
H432 H 0.52721 0.32393 0.55471 0.0
C433 C 0.30022 0.31873 0.72339 0.0
N434 N 0.36383 0.3467 0.67016 0.0
C435 C 0.29187 0.36424 0.79385 0.0
C436 C 0.34899 0.44832 0.81456 0.0
H437 H 0.26086 0.26745 0.7177 0.0
H438 H 0.63433 0.54336 0.74554 0.0
H439 H 0.23277 0.11663 0.77747 0.0
H440 H 0.66544 0.49371 0.6666 0.0
H441 H 0.63953 0.39899 0.59064 0.0
H442 H 0.49734 0.56872 0.8431 0.0
H443 H 0.47492 0.05846 0.73137 0.0
H444 H 0.08994 0.91175 0.76562 0.0
H445 H 0.11777 0.02849 0.78065 0.0
H446 H 0.22332 0.8126 0.71927 0.0
H447 H 0.24774 0.3387 0.82523 0.0
H448 H 0.34782 0.46222 0.86677 0.0
H449 H 0.12912 0.83276 0.7361 0.0
H450 H 0.45359 0.94645 0.70812 0.0
N451 N 0.27507 0.05317 0.77837 0.0
C452 C 0.14159 0.95065 0.77026 0.0
C453 C 0.15713 0.01627 0.77892 0.0
C454 C 0.19304 0.93653 0.76358 0.0
C455 C 0.25991 -0.01101 0.7702 0.0
C456 C 0.22376 0.06681 0.7808 0.0
N457 N 0.37429 0.02855 0.75477 0.0
C458 C 0.3113 0.97653 0.7595 0.0
C459 C 0.41306 0.95369 0.72392 0.0
C460 C 0.34968 0.89991 0.73474 0.0
C461 C 0.42472 0.01788 0.73516 0.0
C462 C 0.29747 0.91144 0.7456 0.0
H463 H 0.33955 0.84917 0.73246 0.0
O464 O 0.44593 0.10195 0.84981 0.0
O465 O 0.43242 0.24446 0.75608 0.0
O466 O 0.47428 0.2372 0.62779 0.0
O467 O 0.46168 0.14546 0.69079 0.0
O468 O 0.49977 0.2165 0.78741 0.0
O469 O 0.38869 0.14618 0.89129 0.0
O470 O 0.31928 0.2451 0.57329 0.0
O471 O 0.35804 0.15217 0.67842 0.0
O472 O 0.33334 0.16965 0.84219 0.0
O473 O 0.34788 0.25334 0.76704 0.0
O474 O 0.28439 0.16927 0.64064 0.0
O475 O 0.40555 0.23405 0.54953 0.0
C476 C 0.49325 0.26746 0.77333 0.0
C477 C 0.23221 0.86039 0.73673 0.0
C478 C 0.17964 0.87253 0.74544 0.0
C479 C 0.42661 0.12084 0.90459 0.0
C480 C 0.44434 0.11435 0.97696 0.0
C481 C 0.47787 0.07961 0.99296 0.0
C482 C 0.42276 0.13917 1.03154 0.0
C483 C 0.43173 0.12749 0.10124 0.0
C484 C 0.48652 0.06714 0.06236 0.0
C485 C 0.46259 0.08996 0.1162 0.0
C486 C 0.49005 0.19051 0.64052 0.0
C487 C 0.29934 0.12353 0.65451 0.0
C488 C 0.35184 0.23227 0.52565 0.0
C489 C 0.35381 0.25619 0.45416 0.0
C490 C 0.33735 0.30553 0.44021 0.0
C491 C 0.3668 0.22503 0.39819 0.0
C492 C 0.36255 0.24301 0.32908 0.0
C493 C 0.33105 0.32134 0.37158 0.0
C494 C 0.34365 0.29065 0.31619 0.0
C495 C 0.32635 0.22098 0.82757 0.0
H496 H 0.49584 0.06064 0.95228 0.0
H497 H 0.39532 0.16392 1.0193 0.0
H498 H 0.51121 0.03911 0.07445 0.0
H499 H 0.46844 0.07821 0.1691 0.0
H500 H 0.32875 0.33123 0.48222 0.0
H501 H 0.38008 0.18702 0.40828 0.0
H502 H 0.31633 0.35734 0.36093 0.0
H503 H 0.33866 0.30408 0.26328 0.0
C504 C 0.21857 0.20186 0.88351 0.0
C505 C 0.28853 0.24009 0.87804 0.0
H506 H 0.12865 0.19278 0.92625 0.0
C507 C 0.32082 0.29854 0.91864 0.0
H508 H 0.19097 0.15552 0.85555 0.0
C509 C 0.28423 0.32351 0.95327 0.0
C510 C 0.2143 0.28568 0.95839 0.0
H511 H 0.37462 0.32701 0.92135 0.0
H512 H 0.31104 0.37267 0.97607 0.0
C513 C 0.18231 0.22365 0.92398 0.0
C514 C 0.01226 0.30402 0.25202 0.0
C515 C 0.02643 0.27268 0.19745 0.0
H516 H 0.93658 0.29919 0.31891 0.0
C517 C -0.01809 0.20417 0.1865 0.0
H518 H 0.04365 0.35702 0.26053 0.0
C519 C 0.92432 0.16887 0.22819 0.0
C520 C 0.90752 0.20178 0.27939 0.0
H521 H -0.00916 0.1783 0.14466 0.0
H522 H 0.89096 0.11656 0.21747 0.0
C523 C 0.95193 0.27013 0.28878 0.0
C524 C 0.67935 0.0062 0.57428 0.0
C525 C 0.73638 0.0266 0.53331 0.0
H526 H 0.60553 0.93087 0.64003 0.0
C527 C 0.77173 -0.00775 0.54205 0.0
H528 H 0.65167 0.03205 0.57048 0.0
C529 C 0.74768 0.93631 0.58684 0.0
C530 C 0.68708 0.9124 0.62337 0.0
H531 H 0.81736 0.00786 0.51352 0.0
H532 H 0.77565 0.91047 0.59122 0.0
C533 C 0.65357 0.9486 0.61603 0.0
C534 C 0.7686 0.77061 0.84578 0.0
C535 C 0.70197 0.7533 0.85832 0.0
H536 H 0.85211 0.75986 0.87819 0.0
C537 C 0.66985 0.7124 0.91559 0.0
H538 H 0.79474 0.80136 0.8014 0.0
C539 C 0.70027 0.68313 0.95299 0.0
C540 C 0.76618 0.69995 0.94328 0.0
H541 H 0.61758 0.6949 0.92503 0.0
H542 H 0.66958 0.64088 0.98286 0.0
C543 C 0.80114 0.74618 0.88956 0.0
C544 C 0.02331 0.79644 0.2306 0.0
C545 C 0.04274 0.76388 0.27966 0.0
H546 H 0.95648 0.78571 0.14667 0.0
C547 C 0.00183 0.69481 0.28512 0.0
H548 H 0.05447 0.84944 0.22193 0.0
C549 C 0.94129 0.65939 0.2491 0.0
C550 C 0.92449 0.69036 0.1966 0.0
H551 H 0.02173 0.66666 0.30819 0.0
H552 H 0.91284 0.60585 0.25525 0.0
C553 C 0.9664 0.75981 0.18773 0.0
C554 C 0.20401 0.02905 0.58557 0.0
C555 C 0.26638 0.05625 0.61945 0.0
H556 H 0.13287 0.95254 0.5169 0.0
C557 C 0.30095 0.02127 0.61366 0.0
H558 H 0.17524 0.0541 0.58895 0.0
C559 C 0.27539 0.96181 0.57583 0.0
C560 C 0.21679 0.93778 0.53688 0.0
H561 H 0.3511 0.04291 0.63316 0.0
H562 H 0.30476 0.93774 0.57266 0.0
C563 C 0.17969 0.97069 0.54419 0.0
C564 C 0.17663 0.35128 0.5909 0.0
C565 C 0.14862 0.39079 0.60909 0.0
H566 H 0.24315 0.33924 0.52294 0.0
C567 C 0.16633 0.44906 0.57098 0.0
H568 H 0.16269 0.30549 0.61878 0.0
C569 C 0.21389 0.46944 0.51793 0.0
C570 C 0.24324 0.43091 0.50064 0.0
H571 H 0.145 0.47999 0.58384 0.0
H572 H 0.22794 0.51541 0.49035 0.0
C573 C 0.22306 0.37085 0.5365 0.0
C574 C 0.80608 0.17968 0.90378 0.0
C575 C 0.74299 0.15969 0.93187 0.0
H576 H 0.87681 0.23567 0.82387 0.0
C577 C 0.7017 0.17977 0.89899 0.0
H578 H 0.83777 0.16282 0.92699 0.0
C579 C 0.72429 0.22191 0.84099 0.0
C580 C 0.78797 0.24358 0.81386 0.0
H581 H 0.65219 0.16346 0.91879 0.0
H582 H 0.69217 0.23812 0.81751 0.0
C583 C 0.82832 0.22118 0.84494 0.0
C584 C 0.50972 0.71402 0.24112 0.0
C585 C 0.56595 0.75461 0.28217 0.0
H586 H 0.44704 0.70981 0.15637 0.0
C587 C 0.60426 0.82284 0.26749 0.0
H588 H 0.4802 0.66104 0.25118 0.0
C589 C 0.58649 0.85026 0.21208 0.0
C590 C 0.52973 0.80995 0.17145 0.0
H591 H 0.64844 0.85448 0.29792 0.0
H592 H 0.6178 0.90234 0.20086 0.0
C593 C 0.49082 0.74182 0.18723 0.0
C594 C 0.76813 0.61489 0.57882 0.0
C595 C 0.79097 0.57353 0.60563 0.0
H596 H 0.71257 0.62959 0.49902 0.0
C597 C 0.77223 0.51275 0.57231 0.0
H598 H 0.78512 0.6637 0.60129 0.0
C599 C 0.72917 0.4925 0.51465 0.0
C600 C 0.70398 0.5325 0.48917 0.0
H601 H 0.79158 0.48136 0.59036 0.0
H602 H 0.71567 0.44552 0.48956 0.0
C603 C 0.72553 0.59481 0.52075 0.0
C604 C 0.11924 0.74436 0.84467 0.0
C605 C 0.1579 0.72027 0.81315 0.0
H606 H 0.11109 0.80279 0.92723 0.0
C607 C 0.22215 0.74201 0.83999 0.0
H608 H 0.07223 0.7335 0.82291 0.0
C609 C 0.2461 0.78492 0.89788 0.0
C610 C 0.20528 0.80479 0.93204 0.0
H611 H 0.25373 0.72547 0.81627 0.0
H612 H 0.29599 0.80139 0.91699 0.0
C613 C 0.14216 0.78533 0.904 0.0
C614 C 0.43371 0.25328 0.22786 0.0
C615 C 0.37855 0.21326 0.2699 0.0
H616 H 0.49442 0.2564 0.14214 0.0
C617 C 0.3388 0.14535 0.25465 0.0
H618 H 0.46479 0.30591 0.23897 0.0
C619 C 0.35467 0.11757 0.19847 0.0
C620 C 0.41135 0.15687 0.15776 0.0
H621 H 0.29556 0.11393 0.28611 0.0
H622 H 0.32259 0.06559 0.18774 0.0
C623 C 0.4505 0.2251 0.17272 0.0
C624 C 0.2117 0.60824 0.14799 0.0
C625 C 0.18411 0.5402 0.16163 0.0
H626 H 0.23101 0.70305 0.18189 0.0
C627 C 0.15874 0.51776 0.22958 0.0
H628 H 0.23602 0.62854 0.09866 0.0
C629 C 0.15737 0.56193 0.28043 0.0
C630 C 0.18051 0.62963 0.26394 0.0
H631 H 0.1414 0.46653 0.24395 0.0
H632 H 0.13563 0.54254 0.3309 0.0
C633 C 0.20992 0.65167 0.19746 0.0
C634 C 0.61911 0.1461 0.57935 0.0
C635 C 0.63376 0.17039 0.51019 0.0
H636 H 0.56793 0.13695 0.6745 0.0
C637 C 0.60419 0.2069 0.4857 0.0
H638 H 0.64273 0.12038 0.60193 0.0
C639 C 0.55905 0.21562 0.52834 0.0
C640 C 0.54376 0.18959 0.59718 0.0
H641 H 0.61609 0.22902 0.43437 0.0
H642 H 0.53401 0.23999 0.50594 0.0
C643 C 0.57644 0.1565 0.62215 0.0
C644 C 0.30628 0.55788 0.8623 0.0
C645 C 0.33145 0.54462 0.92407 0.0
H646 H 0.32708 0.61284 0.76634 0.0
C647 C 0.40053 0.5811 0.93363 0.0
H648 H 0.25346 0.53142 0.85111 0.0
C649 C 0.44296 0.63026 0.88578 0.0
C650 C 0.41812 0.63977 0.82238 0.0
H651 H 0.42137 0.56897 0.97639 0.0
H652 H 0.49572 0.65926 0.89736 0.0
C653 C 0.34877 0.60418 0.81247 0.0
C654 C 0.79737 0.40387 0.27336 0.0
C655 C 0.77386 0.33641 0.25761 0.0
H656 H 0.81323 0.49944 0.23775 0.0
C657 C 0.74332 0.31407 0.19133 0.0
H658 H 0.82037 0.42216 0.32295 0.0
C659 C 0.74036 0.35743 0.14205 0.0
C660 C 0.76825 0.42565 0.15567 0.0
H661 H 0.7216 0.26249 0.17617 0.0
H662 H 0.71464 0.33695 0.09318 0.0
C663 C 0.7953 0.44814 0.22315 0.0
C664 C 0.35126 0.75628 0.48625 0.0
C665 C 0.32224 0.79439 0.50832 0.0
H666 H 0.42336 0.72462 0.50841 0.0
C667 C 0.34199 0.82453 0.57455 0.0
H668 H 0.33408 0.72737 0.43878 0.0
C669 C 0.38977 0.81975 0.6154 0.0
C670 C 0.42309 0.78745 0.59242 0.0
H671 H 0.31913 0.85127 0.59605 0.0
H672 H 0.40603 0.84605 0.66319 0.0
C673 C 0.40146 0.75329 0.5275 0.0
C674 C 0.64006 0.42418 0.84708 0.0
C675 C 0.62269 0.42357 0.91778 0.0
H676 H 0.61419 0.37476 0.74777 0.0
C677 C 0.55953 0.37182 0.93898 0.0
H678 H 0.68834 0.4616 0.82817 0.0
C679 C 0.51463 0.32485 0.89015 0.0
C680 C 0.53241 0.32656 0.81944 0.0
H681 H 0.54427 0.3682 0.99279 0.0
H682 H 0.46688 0.2855 0.90834 0.0
C683 C 0.59658 0.3755 0.79964 0.0
loop_
_geom_bond_atom_site_label_1
_geom_bond_atom_site_label_2
_geom_bond_distance
_geom_bond_site_symmetry_2
_ccdc_geom_bond_type
Gd0 N31 2.661 . S
Gd0 N37 2.601 . S
Gd0 O44 2.545 . S
Gd0 O45 2.606 . S
Gd0 O47 2.429 . S
Gd0 O48 2.545 . S
Gd0 O49 2.412 . S
Gd0 O51 2.362 1_554 S
Gd0 O52 2.324 . S
Gd0 C59 2.828 . S
Gd1 N10 2.661 . S
Gd1 N14 2.601 . S
Gd1 O45 2.362 1_556 S
Gd1 O46 2.324 . S
Gd1 O50 2.545 . S
Gd1 O51 2.606 . S
Gd1 O53 2.429 1_556 S
Gd1 O54 2.545 . S
Gd1 O55 2.412 . S
Gd1 C68 2.828 . S
C2 C5 1.417 . S
C2 C7 1.431 . S
C2 C8 1.412 . S
C3 C6 1.437 . S
C3 C7 1.317 1_655 S
C3 H22 0.929 . S
C4 C5 1.426 . S
C4 C6 1.413 1_455 S
C4 N14 1.359 . S
C5 C2 1.417 . S
C5 C4 1.426 . S
C5 N10 1.350 . S
C6 C3 1.437 . S
C6 C4 1.413 1_655 S
C6 C16 1.391 . S
C7 C2 1.431 . S
C7 C3 1.317 1_455 S
C7 H18 0.930 . S
C8 C2 1.412 . S
C8 C9 1.355 . S
C8 H20 0.930 . S
C9 C8 1.355 . S
C9 C11 1.402 . S
C9 H21 0.930 . S
N10 Gd1 2.661 . S
N10 C5 1.350 . S
N10 C11 1.307 . S
C11 C9 1.402 . S
C11 N10 1.307 . S
C11 H12 0.930 . S
H12 C11 0.930 . S
C13 N14 1.334 1_655 S
C13 C15 1.394 . S
C13 H17 0.930 . S
N14 Gd1 2.601 . S
N14 C4 1.359 . S
N14 C13 1.334 1_455 S
C15 C13 1.394 . S
C15 C16 1.359 . S
C15 H27 0.930 . S
C16 C6 1.391 . S
C16 C15 1.359 . S
C16 H28 0.929 . S
H17 C13 0.930 . S
H18 C7 0.930 . S
H19 C36 0.930 . S
H20 C8 0.930 . S
H21 C9 0.930 . S
H22 C3 0.929 . S
H23 C41 0.930 . S
H24 C32 0.930 . S
H25 C33 0.930 . S
H26 C57 0.929 . S
H27 C15 0.930 . S
H28 C16 0.929 . S
H29 C58 0.930 . S
H30 C39 0.930 . S
N31 Gd0 2.661 . S
N31 C35 1.350 . S
N31 C36 1.307 . S
C32 H24 0.930 . S
C32 C33 1.355 . S
C32 C34 1.412 . S
C33 H25 0.930 . S
C33 C32 1.355 . S
C33 C36 1.402 . S
C34 C32 1.412 . S
C34 C35 1.417 . S
C34 C58 1.431 . S
C35 N31 1.350 . S
C35 C34 1.417 . S
C35 C38 1.426 . S
C36 H19 0.930 . S
C36 N31 1.307 . S
C36 C33 1.402 . S
N37 Gd0 2.601 . S
N37 C38 1.359 . S
N37 C41 1.334 . S
C38 C35 1.426 . S
C38 N37 1.359 . S
C38 C42 1.413 . S
C39 H30 0.930 . S
C39 C40 1.359 . S
C39 C41 1.394 . S
C40 C39 1.359 . S
C40 C42 1.391 . S
C40 H43 0.929 . S
C41 H23 0.930 . S
C41 N37 1.334 . S
C41 C39 1.394 . S
C42 C38 1.413 . S
C42 C40 1.391 . S
C42 C57 1.437 . S
H43 C40 0.929 . S
O44 Gd0 2.545 . S
O44 C59 1.258 . S
O45 Gd0 2.606 . S
O45 Gd1 2.362 1_554 S
O45 C56 1.284 . S
O46 Gd1 2.324 . S
O46 C66 1.254 . S
O47 Gd0 2.429 . S
O47 C66 1.268 1_554 S
O48 Gd0 2.545 . S
O48 C56 1.250 . S
O49 Gd0 2.412 . S
O49 C59 1.252 . S
O50 Gd1 2.545 . S
O50 C68 1.258 . S
O51 Gd0 2.362 1_556 S
O51 Gd1 2.606 . S
O51 C67 1.284 . S
O52 Gd0 2.324 . S
O52 C75 1.254 . S
O53 Gd1 2.429 1_554 S
O53 C75 1.268 . S
O54 Gd1 2.545 . S
O54 C67 1.250 . S
O55 Gd1 2.412 . S
O55 C68 1.252 . S
C56 O45 1.284 . S
C56 O48 1.250 . S
C57 H26 0.929 . S
C57 C42 1.437 . S
C57 C58 1.317 . S
C58 H29 0.930 . S
C58 C34 1.431 . S
C58 C57 1.317 . S
C59 Gd0 2.828 . S
C59 O44 1.258 . S
C59 O49 1.252 . S
C59 C60 1.497 . S
C60 C59 1.497 . S
C60 C61 1.395 . S
C60 C62 1.380 . S
C61 C60 1.395 . S
C61 C64 1.398 . S
C61 H76 0.930 . S
C62 C60 1.380 . S
C62 C63 1.391 . S
C62 H77 0.930 . S
C63 C62 1.391 . S
C63 C65 1.387 . S
C64 C61 1.398 . S
C64 C65 1.380 . S
C64 H78 0.930 . S
C65 C63 1.387 . S
C65 C64 1.380 . S
C65 H79 0.930 . S
C66 O46 1.254 . S
C66 O47 1.268 1_556 S
C67 O51 1.284 . S
C67 O54 1.250 . S
C68 Gd1 2.828 . S
C68 O50 1.258 . S
C68 O55 1.252 . S
C68 C69 1.497 . S
C69 C68 1.497 . S
C69 C70 1.395 . S
C69 C71 1.380 . S
C70 C69 1.395 . S
C70 C73 1.398 1_455 S
C70 H80 0.930 1_455 S
C71 C69 1.380 . S
C71 C72 1.391 . S
C71 H81 0.930 . S
C72 C71 1.391 . S
C72 C74 1.387 . S
C73 C70 1.398 1_655 S
C73 C74 1.380 1_655 S
C73 H82 0.930 . S
C74 C72 1.387 . S
C74 C73 1.380 1_455 S
C74 H83 0.930 . S
C75 O52 1.254 . S
C75 O53 1.268 . S
H76 C61 0.930 . S
H77 C62 0.930 . S
H78 C64 0.930 . S
H79 C65 0.930 . S
H80 C70 0.930 1_655 S
H81 C71 0.930 . S
H82 C73 0.930 . S
H83 C74 0.930 . S
Gd84 N115 2.661 . S
Gd84 N121 2.601 . S
Gd84 O128 2.545 . S
Gd84 O129 2.606 . S
Gd84 O131 2.429 . S
Gd84 O132 2.545 . S
Gd84 O133 2.412 . S
Gd84 O135 2.362 . S
Gd84 O136 2.324 . S
Gd84 C143 2.828 . S
Gd85 N94 2.661 . S
Gd85 N98 2.601 . S
Gd85 O129 2.362 . S
Gd85 O130 2.324 . S
Gd85 O134 2.545 . S
Gd85 O135 2.606 . S
Gd85 O137 2.429 . S
Gd85 O138 2.545 . S
Gd85 O139 2.412 . S
Gd85 C152 2.828 . S
C86 C89 1.417 . S
C86 C91 1.431 . S
C86 C92 1.412 . S
C87 C90 1.437 . S
C87 C91 1.317 1_565 S
C87 H106 0.929 . S
C88 C89 1.426 . S
C88 C90 1.413 1_545 S
C88 N98 1.359 . S
C89 C86 1.417 . S
C89 C88 1.426 . S
C89 N94 1.350 . S
C90 C87 1.437 . S
C90 C88 1.413 1_565 S
C90 C100 1.391 . S
C91 C86 1.431 . S
C91 C87 1.317 1_545 S
C91 H102 0.930 . S
C92 C86 1.412 . S
C92 C93 1.355 . S
C92 H104 0.930 . S
C93 C92 1.355 . S
C93 C95 1.402 . S
C93 H105 0.930 . S
N94 Gd85 2.661 . S
N94 C89 1.350 . S
N94 C95 1.307 . S
C95 C93 1.402 . S
C95 N94 1.307 . S
C95 H96 0.930 . S
H96 C95 0.930 . S
C97 N98 1.334 1_565 S
C97 C99 1.394 . S
C97 H101 0.930 . S
N98 Gd85 2.601 . S
N98 C88 1.359 . S
N98 C97 1.334 1_545 S
C99 C97 1.394 . S
C99 C100 1.359 . S
C99 H111 0.930 . S
C100 C90 1.391 . S
C100 C99 1.359 . S
C100 H112 0.929 . S
H101 C97 0.930 . S
H102 C91 0.930 . S
H103 C120 0.930 . S
H104 C92 0.930 . S
H105 C93 0.930 . S
H106 C87 0.929 . S
H107 C125 0.930 . S
H108 C116 0.930 . S
H109 C117 0.930 . S
H110 C141 0.929 . S
H111 C99 0.930 . S
H112 C100 0.929 . S
H113 C142 0.930 . S
H114 C123 0.930 . S
N115 Gd84 2.661 . S
N115 C119 1.350 1_655 S
N115 C120 1.307 . S
C116 H108 0.930 . S
C116 C117 1.355 . S
C116 C118 1.412 . S
C117 H109 0.930 . S
C117 C116 1.355 . S
C117 C120 1.402 1_455 S
C118 C116 1.412 . S
C118 C119 1.417 . S
C118 C142 1.431 . S
C119 N115 1.350 1_455 S
C119 C118 1.417 . S
C119 C122 1.426 . S
C120 H103 0.930 . S
C120 N115 1.307 . S
C120 C117 1.402 1_655 S
N121 Gd84 2.601 . S
N121 C122 1.359 1_655 S
N121 C125 1.334 . S
C122 C119 1.426 . S
C122 N121 1.359 1_455 S
C122 C126 1.413 . S
C123 H114 0.930 . S
C123 C124 1.359 . S
C123 C125 1.394 1_455 S
C124 C123 1.359 . S
C124 C126 1.391 . S
C124 H127 0.929 . S
C125 H107 0.930 . S
C125 N121 1.334 . S
C125 C123 1.394 1_655 S
C126 C122 1.413 . S
C126 C124 1.391 . S
C126 C141 1.437 . S
H127 C124 0.929 . S
O128 Gd84 2.545 . S
O128 C143 1.258 . S
O129 Gd84 2.606 . S
O129 Gd85 2.362 . S
O129 C140 1.284 . S
O130 Gd85 2.324 . S
O130 C150 1.254 . S
O131 Gd84 2.429 . S
O131 C150 1.268 . S
O132 Gd84 2.545 . S
O132 C140 1.250 . S
O133 Gd84 2.412 . S
O133 C143 1.252 . S
O134 Gd85 2.545 . S
O134 C152 1.258 . S
O135 Gd84 2.362 . S
O135 Gd85 2.606 . S
O135 C151 1.284 . S
O136 Gd84 2.324 . S
O136 C159 1.254 . S
O137 Gd85 2.429 . S
O137 C159 1.268 . S
O138 Gd85 2.545 . S
O138 C151 1.250 . S
O139 Gd85 2.412 . S
O139 C152 1.252 . S
C140 O129 1.284 . S
C140 O132 1.250 . S
C141 H110 0.929 . S
C141 C126 1.437 . S
C141 C142 1.317 . S
C142 H113 0.930 . S
C142 C118 1.431 . S
C142 C141 1.317 . S
C143 Gd84 2.828 . S
C143 O128 1.258 . S
C143 O133 1.252 . S
C143 C144 1.497 . S
C144 C143 1.497 . S
C144 C145 1.395 . S
C144 C146 1.380 . S
C145 C144 1.395 . S
C145 C148 1.398 . S
C145 H160 0.930 . S
C146 C144 1.380 . S
C146 C147 1.391 . S
C146 H161 0.930 . S
C147 C146 1.391 . S
C147 C149 1.387 . S
C148 C145 1.398 . S
C148 C149 1.380 . S
C148 H162 0.930 . S
C149 C147 1.387 . S
C149 C148 1.380 . S
C149 H163 0.930 . S
C150 O130 1.254 . S
C150 O131 1.268 . S
C151 O135 1.284 . S
C151 O138 1.250 . S
C152 Gd85 2.828 . S
C152 O134 1.258 . S
C152 O139 1.252 . S
C152 C153 1.497 . S
C153 C152 1.497 . S
C153 C154 1.395 . S
C153 C155 1.380 . S
C154 C153 1.395 . S
C154 C157 1.398 1_544 S
C154 H164 0.930 1_545 S
C155 C153 1.380 . S
C155 C156 1.391 1_554 S
C155 H165 0.930 . S
C156 C155 1.391 1_556 S
C156 C158 1.387 . S
C157 C154 1.398 1_566 S
C157 C158 1.380 1_565 S
C157 H166 0.930 . S
C158 C156 1.387 . S
C158 C157 1.380 1_545 S
C158 H167 0.930 . S
C159 O136 1.254 . S
C159 O137 1.268 . S
H160 C145 0.930 . S
H161 C146 0.930 . S
H162 C148 0.930 . S
H163 C149 0.930 . S
H164 C154 0.930 1_565 S
H165 C155 0.930 . S
H166 C157 0.930 . S
H167 C158 0.930 . S
Gd168 N199 2.661 . S
Gd168 N205 2.601 . S
Gd168 O212 2.545 . S
Gd168 O213 2.606 . S
Gd168 O215 2.429 . S
Gd168 O216 2.545 . S
Gd168 O217 2.412 . S
Gd168 O219 2.362 . S
Gd168 O220 2.324 . S
Gd168 C227 2.828 . S
Gd169 N178 2.661 . S
Gd169 N182 2.601 . S
Gd169 O213 2.362 . S
Gd169 O214 2.324 . S
Gd169 O218 2.545 . S
Gd169 O219 2.606 . S
Gd169 O221 2.429 . S
Gd169 O222 2.545 . S
Gd169 O223 2.412 . S
Gd169 C236 2.828 . S
C170 C173 1.417 . S
C170 C175 1.431 . S
C170 C176 1.412 . S
C171 C174 1.437 . S
C171 C175 1.317 . S
C171 H190 0.929 . S
C172 C173 1.426 . S
C172 C174 1.413 . S
C172 N182 1.359 . S
C173 C170 1.417 . S
C173 C172 1.426 . S
C173 N178 1.350 . S
C174 C171 1.437 . S
C174 C172 1.413 . S
C174 C184 1.391 . S
C175 C170 1.431 . S
C175 C171 1.317 . S
C175 H186 0.930 . S
C176 C170 1.412 . S
C176 C177 1.355 . S
C176 H188 0.930 . S
C177 C176 1.355 . S
C177 C179 1.402 . S
C177 H189 0.930 . S
N178 Gd169 2.661 . S
N178 C173 1.350 . S
N178 C179 1.307 . S
C179 C177 1.402 . S
C179 N178 1.307 . S
C179 H180 0.930 . S
H180 C179 0.930 . S
C181 N182 1.334 . S
C181 C183 1.394 . S
C181 H185 0.930 . S
N182 Gd169 2.601 . S
N182 C172 1.359 . S
N182 C181 1.334 . S
C183 C181 1.394 . S
C183 C184 1.359 . S
C183 H195 0.930 . S
C184 C174 1.391 . S
C184 C183 1.359 . S
C184 H196 0.929 . S
H185 C181 0.930 . S
H186 C175 0.930 . S
H187 C204 0.930 . S
H188 C176 0.930 . S
H189 C177 0.930 . S
H190 C171 0.929 . S
H191 C209 0.930 . S
H192 C200 0.930 . S
H193 C201 0.930 . S
H194 C225 0.929 . S
H195 C183 0.930 . S
H196 C184 0.929 . S
H197 C226 0.930 . S
H198 C207 0.930 . S
N199 Gd168 2.661 . S
N199 C203 1.350 1_565 S
N199 C204 1.307 . S
C200 H192 0.930 . S
C200 C201 1.355 . S
C200 C202 1.412 . S
C201 H193 0.930 . S
C201 C200 1.355 . S
C201 C204 1.402 1_545 S
C202 C200 1.412 . S
C202 C203 1.417 . S
C202 C226 1.431 . S
C203 N199 1.350 1_545 S
C203 C202 1.417 . S
C203 C206 1.426 . S
C204 H187 0.930 . S
C204 N199 1.307 . S
C204 C201 1.402 1_565 S
N205 Gd168 2.601 . S
N205 C206 1.359 1_565 S
N205 C209 1.334 . S
C206 C203 1.426 . S
C206 N205 1.359 1_545 S
C206 C210 1.413 . S
C207 H198 0.930 . S
C207 C208 1.359 . S
C207 C209 1.394 1_545 S
C208 C207 1.359 . S
C208 C210 1.391 . S
C208 H211 0.929 . S
C209 H191 0.930 . S
C209 N205 1.334 . S
C209 C207 1.394 1_565 S
C210 C206 1.413 . S
C210 C208 1.391 . S
C210 C225 1.437 . S
H211 C208 0.929 . S
O212 Gd168 2.545 . S
O212 C227 1.258 . S
O213 Gd168 2.606 . S
O213 Gd169 2.362 . S
O213 C224 1.284 . S
O214 Gd169 2.324 . S
O214 C234 1.254 . S
O215 Gd168 2.429 . S
O215 C234 1.268 . S
O216 Gd168 2.545 . S
O216 C224 1.250 . S
O217 Gd168 2.412 . S
O217 C227 1.252 . S
O218 Gd169 2.545 . S
O218 C236 1.258 . S
O219 Gd168 2.362 . S
O219 Gd169 2.606 . S
O219 C235 1.284 . S
O220 Gd168 2.324 . S
O220 C243 1.254 . S
O221 Gd169 2.429 . S
O221 C243 1.268 . S
O222 Gd169 2.545 . S
O222 C235 1.250 . S
O223 Gd169 2.412 . S
O223 C236 1.252 . S
C224 O213 1.284 . S
C224 O216 1.250 . S
C225 H194 0.929 . S
C225 C210 1.437 . S
C225 C226 1.317 . S
C226 H197 0.930 . S
C226 C202 1.431 . S
C226 C225 1.317 . S
C227 Gd168 2.828 . S
C227 O212 1.258 . S
C227 O217 1.252 . S
C227 C228 1.497 . S
C228 C227 1.497 . S
C228 C229 1.395 . S
C228 C230 1.380 1_556 S
C229 C228 1.395 . S
C229 C232 1.398 1_556 S
C229 H244 0.930 . S
C230 C228 1.380 1_554 S
C230 C231 1.391 . S
C230 H245 0.930 1_554 S
C231 C230 1.391 . S
C231 C233 1.387 . S
C232 C229 1.398 1_554 S
C232 C233 1.380 . S
C232 H246 0.930 . S
C233 C231 1.387 . S
C233 C232 1.380 . S
C233 H247 0.930 . S
C234 O214 1.254 . S
C234 O215 1.268 . S
C235 O219 1.284 . S
C235 O222 1.250 . S
C236 Gd169 2.828 . S
C236 O218 1.258 . S
C236 O223 1.252 . S
C236 C237 1.497 . S
C237 C236 1.497 . S
C237 C238 1.395 . S
C237 C239 1.380 . S
C238 C237 1.395 . S
C238 C241 1.398 . S
C238 H248 0.930 . S
C239 C237 1.380 . S
C239 C240 1.391 . S
C239 H249 0.930 . S
C240 C239 1.391 . S
C240 C242 1.387 . S
C241 C238 1.398 . S
C241 C242 1.380 . S
C241 H250 0.930 . S
C242 C240 1.387 . S
C242 C241 1.380 . S
C242 H251 0.930 . S
C243 O220 1.254 . S
C243 O221 1.268 . S
H244 C229 0.930 . S
H245 C230 0.930 1_556 S
H246 C232 0.930 . S
H247 C233 0.930 . S
H248 C238 0.930 . S
H249 C239 0.930 . S
H250 C241 0.930 . S
H251 C242 0.930 . S
Gd252 N283 2.661 . S
Gd252 N289 2.601 . S
Gd252 O296 2.545 . S
Gd252 O297 2.606 . S
Gd252 O299 2.429 . S
Gd252 O300 2.545 . S
Gd252 O301 2.412 . S
Gd252 O303 2.362 1_554 S
Gd252 O304 2.324 . S
Gd252 C311 2.828 . S
Gd253 N262 2.661 . S
Gd253 N266 2.601 . S
Gd253 O297 2.362 1_556 S
Gd253 O298 2.324 . S
Gd253 O302 2.545 . S
Gd253 O303 2.606 . S
Gd253 O305 2.429 1_556 S
Gd253 O306 2.545 . S
Gd253 O307 2.412 . S
Gd253 C320 2.828 . S
C254 C257 1.417 . S
C254 C259 1.431 . S
C254 C260 1.412 . S
C255 C258 1.437 . S
C255 C259 1.317 1_455 S
C255 H274 0.929 . S
C256 C257 1.426 . S
C256 C258 1.413 1_655 S
C256 N266 1.359 . S
C257 C254 1.417 . S
C257 C256 1.426 . S
C257 N262 1.350 . S
C258 C255 1.437 . S
C258 C256 1.413 1_455 S
C258 C268 1.391 . S
C259 C254 1.431 . S
C259 C255 1.317 1_655 S
C259 H270 0.930 . S
C260 C254 1.412 . S
C260 C261 1.355 . S
C260 H272 0.930 . S
C261 C260 1.355 . S
C261 C263 1.402 . S
C261 H273 0.930 . S
N262 Gd253 2.661 . S
N262 C257 1.350 . S
N262 C263 1.307 . S
C263 C261 1.402 . S
C263 N262 1.307 . S
C263 H264 0.930 . S
H264 C263 0.930 . S
C265 N266 1.334 1_455 S
C265 C267 1.394 . S
C265 H269 0.930 . S
N266 Gd253 2.601 . S
N266 C256 1.359 . S
N266 C265 1.334 1_655 S
C267 C265 1.394 . S
C267 C268 1.359 . S
C267 H279 0.930 . S
C268 C258 1.391 . S
C268 C267 1.359 . S
C268 H280 0.929 . S
H269 C265 0.930 . S
H270 C259 0.930 . S
H271 C288 0.930 . S
H272 C260 0.930 . S
H273 C261 0.930 . S
H274 C255 0.929 . S
H275 C293 0.930 . S
H276 C284 0.930 . S
H277 C285 0.930 . S
H278 C309 0.929 . S
H279 C267 0.930 . S
H280 C268 0.929 . S
H281 C310 0.930 . S
H282 C291 0.930 . S
N283 Gd252 2.661 . S
N283 C287 1.350 . S
N283 C288 1.307 . S
C284 H276 0.930 . S
C284 C285 1.355 . S
C284 C286 1.412 . S
C285 H277 0.930 . S
C285 C284 1.355 . S
C285 C288 1.402 . S
C286 C284 1.412 . S
C286 C287 1.417 . S
C286 C310 1.431 . S
C287 N283 1.350 . S
C287 C286 1.417 . S
C287 C290 1.426 . S
C288 H271 0.930 . S
C288 N283 1.307 . S
C288 C285 1.402 . S
N289 Gd252 2.601 . S
N289 C290 1.359 . S
N289 C293 1.334 . S
C290 C287 1.426 . S
C290 N289 1.359 . S
C290 C294 1.413 . S
C291 H282 0.930 . S
C291 C292 1.359 . S
C291 C293 1.394 . S
C292 C291 1.359 . S
C292 C294 1.391 . S
C292 H295 0.929 . S
C293 H275 0.930 . S
C293 N289 1.334 . S
C293 C291 1.394 . S
C294 C290 1.413 . S
C294 C292 1.391 . S
C294 C309 1.437 . S
H295 C292 0.929 . S
O296 Gd252 2.545 . S
O296 C311 1.258 . S
O297 Gd252 2.606 . S
O297 Gd253 2.362 1_554 S
O297 C308 1.284 . S
O298 Gd253 2.324 . S
O298 C318 1.254 . S
O299 Gd252 2.429 . S
O299 C318 1.268 1_554 S
O300 Gd252 2.545 . S
O300 C308 1.250 . S
O301 Gd252 2.412 . S
O301 C311 1.252 . S
O302 Gd253 2.545 . S
O302 C320 1.258 . S
O303 Gd252 2.362 1_556 S
O303 Gd253 2.606 . S
O303 C319 1.284 . S
O304 Gd252 2.324 . S
O304 C327 1.254 . S
O305 Gd253 2.429 1_554 S
O305 C327 1.268 . S
O306 Gd253 2.545 . S
O306 C319 1.250 . S
O307 Gd253 2.412 . S
O307 C320 1.252 . S
C308 O297 1.284 . S
C308 O300 1.250 . S
C309 H278 0.929 . S
C309 C294 1.437 . S
C309 C310 1.317 . S
C310 H281 0.930 . S
C310 C286 1.431 . S
C310 C309 1.317 . S
C311 Gd252 2.828 . S
C311 O296 1.258 . S
C311 O301 1.252 . S
C311 C312 1.497 . S
C312 C311 1.497 . S
C312 C313 1.395 . S
C312 C314 1.380 . S
C313 C312 1.395 . S
C313 C316 1.398 . S
C313 H328 0.930 . S
C314 C312 1.380 . S
C314 C315 1.391 . S
C314 H329 0.930 . S
C315 C314 1.391 . S
C315 C317 1.387 . S
C316 C313 1.398 . S
C316 C317 1.380 . S
C316 H330 0.930 . S
C317 C315 1.387 . S
C317 C316 1.380 . S
C317 H331 0.930 . S
C318 O298 1.254 . S
C318 O299 1.268 1_556 S
C319 O303 1.284 . S
C319 O306 1.250 . S
C320 Gd253 2.828 . S
C320 O302 1.258 . S
C320 O307 1.252 . S
C320 C321 1.497 . S
C321 C320 1.497 . S
C321 C322 1.395 . S
C321 C323 1.380 . S
C322 C321 1.395 . S
C322 C325 1.398 1_655 S
C322 H332 0.930 1_655 S
C323 C321 1.380 . S
C323 C324 1.391 . S
C323 H333 0.930 . S
C324 C323 1.391 . S
C324 C326 1.387 . S
C325 C322 1.398 1_455 S
C325 C326 1.380 1_455 S
C325 H334 0.930 . S
C326 C324 1.387 . S
C326 C325 1.380 1_655 S
C326 H335 0.930 . S
C327 O304 1.254 . S
C327 O305 1.268 . S
H328 C313 0.930 . S
H329 C314 0.930 . S
H330 C316 0.930 . S
H331 C317 0.930 . S
H332 C322 0.930 1_455 S
H333 C323 0.930 . S
H334 C325 0.930 . S
H335 C326 0.930 . S
Gd336 N367 2.661 . S
Gd336 N373 2.601 . S
Gd336 O380 2.545 . S
Gd336 O381 2.606 . S
Gd336 O383 2.429 . S
Gd336 O384 2.545 . S
Gd336 O385 2.412 . S
Gd336 O387 2.362 . S
Gd336 O388 2.324 . S
Gd336 C395 2.828 . S
Gd337 N346 2.661 . S
Gd337 N350 2.601 . S
Gd337 O381 2.362 . S
Gd337 O382 2.324 . S
Gd337 O386 2.545 . S
Gd337 O387 2.606 . S
Gd337 O389 2.429 . S
Gd337 O390 2.545 . S
Gd337 O391 2.412 . S
Gd337 C404 2.828 . S
C338 C341 1.417 . S
C338 C343 1.431 . S
C338 C344 1.412 . S
C339 C342 1.437 . S
C339 C343 1.317 1_545 S
C339 H358 0.929 . S
C340 C341 1.426 . S
C340 C342 1.413 1_565 S
C340 N350 1.359 . S
C341 C338 1.417 . S
C341 C340 1.426 . S
C341 N346 1.350 . S
C342 C339 1.437 . S
C342 C340 1.413 1_545 S
C342 C352 1.391 . S
C343 C338 1.431 . S
C343 C339 1.317 1_565 S
C343 H354 0.930 . S
C344 C338 1.412 . S
C344 C345 1.355 . S
C344 H356 0.930 . S
C345 C344 1.355 . S
C345 C347 1.402 . S
C345 H357 0.930 . S
N346 Gd337 2.661 . S
N346 C341 1.350 . S
N346 C347 1.307 . S
C347 C345 1.402 . S
C347 N346 1.307 . S
C347 H348 0.930 . S
H348 C347 0.930 . S
C349 N350 1.334 1_545 S
C349 C351 1.394 . S
C349 H353 0.930 . S
N350 Gd337 2.601 . S
N350 C340 1.359 . S
N350 C349 1.334 1_565 S
C351 C349 1.394 . S
C351 C352 1.359 . S
C351 H363 0.930 . S
C352 C342 1.391 . S
C352 C351 1.359 . S
C352 H364 0.929 . S
H353 C349 0.930 . S
H354 C343 0.930 . S
H355 C372 0.930 . S
H356 C344 0.930 . S
H357 C345 0.930 . S
H358 C339 0.929 . S
H359 C377 0.930 . S
H360 C368 0.930 . S
H361 C369 0.930 . S
H362 C393 0.929 . S
H363 C351 0.930 . S
H364 C352 0.929 . S
H365 C394 0.930 . S
H366 C375 0.930 . S
N367 Gd336 2.661 . S
N367 C371 1.350 1_455 S
N367 C372 1.307 . S
C368 H360 0.930 . S
C368 C369 1.355 . S
C368 C370 1.412 . S
C369 H361 0.930 . S
C369 C368 1.355 . S
C369 C372 1.402 1_655 S
C370 C368 1.412 . S
C370 C371 1.417 . S
C370 C394 1.431 . S
C371 N367 1.350 1_655 S
C371 C370 1.417 . S
C371 C374 1.426 . S
C372 H355 0.930 . S
C372 N367 1.307 . S
C372 C369 1.402 1_455 S
N373 Gd336 2.601 . S
N373 C374 1.359 1_455 S
N373 C377 1.334 . S
C374 C371 1.426 . S
C374 N373 1.359 1_655 S
C374 C378 1.413 . S
C375 H366 0.930 . S
C375 C376 1.359 . S
C375 C377 1.394 1_655 S
C376 C375 1.359 . S
C376 C378 1.391 . S
C376 H379 0.929 . S
C377 H359 0.930 . S
C377 N373 1.334 . S
C377 C375 1.394 1_455 S
C378 C374 1.413 . S
C378 C376 1.391 . S
C378 C393 1.437 . S
H379 C376 0.929 . S
O380 Gd336 2.545 . S
O380 C395 1.258 . S
O381 Gd336 2.606 . S
O381 Gd337 2.362 . S
O381 C392 1.284 . S
O382 Gd337 2.324 . S
O382 C402 1.254 . S
O383 Gd336 2.429 . S
O383 C402 1.268 . S
O384 Gd336 2.545 . S
O384 C392 1.250 . S
O385 Gd336 2.412 . S
O385 C395 1.252 . S
O386 Gd337 2.545 . S
O386 C404 1.258 . S
O387 Gd336 2.362 . S
O387 Gd337 2.606 . S
O387 C403 1.284 . S
O388 Gd336 2.324 . S
O388 C411 1.254 . S
O389 Gd337 2.429 . S
O389 C411 1.268 . S
O390 Gd337 2.545 . S
O390 C403 1.250 . S
O391 Gd337 2.412 . S
O391 C404 1.252 . S
C392 O381 1.284 . S
C392 O384 1.250 . S
C393 H362 0.929 . S
C393 C378 1.437 . S
C393 C394 1.317 . S
C394 H365 0.930 . S
C394 C370 1.431 . S
C394 C393 1.317 . S
C395 Gd336 2.828 . S
C395 O380 1.258 . S
C395 O385 1.252 . S
C395 C396 1.497 . S
C396 C395 1.497 . S
C396 C397 1.395 . S
C396 C398 1.380 . S
C397 C396 1.395 . S
C397 C400 1.398 . S
C397 H412 0.930 . S
C398 C396 1.380 . S
C398 C399 1.391 . S
C398 H413 0.930 . S
C399 C398 1.391 . S
C399 C401 1.387 . S
C400 C397 1.398 . S
C400 C401 1.380 . S
C400 H414 0.930 . S
C401 C399 1.387 . S
C401 C400 1.380 . S
C401 H415 0.930 . S
C402 O382 1.254 . S
C402 O383 1.268 . S
C403 O387 1.284 . S
C403 O390 1.250 . S
C404 Gd337 2.828 . S
C404 O386 1.258 . S
C404 O391 1.252 . S
C404 C405 1.497 . S
C405 C404 1.497 . S
C405 C406 1.395 . S
C405 C407 1.380 . S
C406 C405 1.395 . S
C406 C409 1.398 1_564 S
C406 H416 0.930 1_565 S
C407 C405 1.380 . S
C407 C408 1.391 1_554 S
C407 H417 0.930 . S
C408 C407 1.391 1_556 S
C408 C410 1.387 . S
C409 C406 1.398 1_546 S
C409 C410 1.380 1_545 S
C409 H418 0.930 . S
C410 C408 1.387 . S
C410 C409 1.380 1_565 S
C410 H419 0.930 . S
C411 O388 1.254 . S
C411 O389 1.268 . S
H412 C397 0.930 . S
H413 C398 0.930 . S
H414 C400 0.930 . S
H415 C401 0.930 . S
H416 C406 0.930 1_545 S
H417 C407 0.930 . S
H418 C409 0.930 . S
H419 C410 0.930 . S
Gd420 N451 2.661 . S
Gd420 N457 2.601 . S
Gd420 O464 2.545 . S
Gd420 O465 2.606 . S
Gd420 O467 2.429 . S
Gd420 O468 2.545 . S
Gd420 O469 2.412 . S
Gd420 O471 2.362 . S
Gd420 O472 2.324 . S
Gd420 C479 2.828 . S
Gd421 N430 2.661 . S
Gd421 N434 2.601 . S
Gd421 O465 2.362 . S
Gd421 O466 2.324 . S
Gd421 O470 2.545 . S
Gd421 O471 2.606 . S
Gd421 O473 2.429 . S
Gd421 O474 2.545 . S
Gd421 O475 2.412 . S
Gd421 C488 2.828 . S
C422 C425 1.417 . S
C422 C427 1.431 . S
C422 C428 1.412 . S
C423 C426 1.437 . S
C423 C427 1.317 . S
C423 H442 0.929 . S
C424 C425 1.426 . S
C424 C426 1.413 . S
C424 N434 1.359 . S
C425 C422 1.417 . S
C425 C424 1.426 . S
C425 N430 1.350 . S
C426 C423 1.437 . S
C426 C424 1.413 . S
C426 C436 1.391 . S
C427 C422 1.431 . S
C427 C423 1.317 . S
C427 H438 0.930 . S
C428 C422 1.412 . S
C428 C429 1.355 . S
C428 H440 0.930 . S
C429 C428 1.355 . S
C429 C431 1.402 . S
C429 H441 0.930 . S
N430 Gd421 2.661 . S
N430 C425 1.350 . S
N430 C431 1.307 . S
C431 C429 1.402 . S
C431 N430 1.307 . S
C431 H432 0.930 . S
H432 C431 0.930 . S
C433 N434 1.334 . S
C433 C435 1.394 . S
C433 H437 0.930 . S
N434 Gd421 2.601 . S
N434 C424 1.359 . S
N434 C433 1.334 . S
C435 C433 1.394 . S
C435 C436 1.359 . S
C435 H447 0.930 . S
C436 C426 1.391 . S
C436 C435 1.359 . S
C436 H448 0.929 . S
H437 C433 0.930 . S
H438 C427 0.930 . S
H439 C456 0.930 . S
H440 C428 0.930 . S
H441 C429 0.930 . S
H442 C423 0.929 . S
H443 C461 0.930 . S
H444 C452 0.930 . S
H445 C453 0.930 . S
H446 C477 0.929 . S
H447 C435 0.930 . S
H448 C436 0.929 . S
H449 C478 0.930 . S
H450 C459 0.930 . S
N451 Gd420 2.661 . S
N451 C455 1.350 1_545 S
N451 C456 1.307 . S
C452 H444 0.930 . S
C452 C453 1.355 . S
C452 C454 1.412 . S
C453 H445 0.930 . S
C453 C452 1.355 . S
C453 C456 1.402 1_565 S
C454 C452 1.412 . S
C454 C455 1.417 . S
C454 C478 1.431 . S
C455 N451 1.350 1_565 S
C455 C454 1.417 . S
C455 C458 1.426 . S
C456 H439 0.930 . S
C456 N451 1.307 . S
C456 C453 1.402 1_545 S
N457 Gd420 2.601 . S
N457 C458 1.359 1_545 S
N457 C461 1.334 . S
C458 C455 1.426 . S
C458 N457 1.359 1_565 S
C458 C462 1.413 . S
C459 H450 0.930 . S
C459 C460 1.359 . S
C459 C461 1.394 1_565 S
C460 C459 1.359 . S
C460 C462 1.391 . S
C460 H463 0.929 . S
C461 H443 0.930 . S
C461 N457 1.334 . S
C461 C459 1.394 1_545 S
C462 C458 1.413 . S
C462 C460 1.391 . S
C462 C477 1.437 . S
H463 C460 0.929 . S
O464 Gd420 2.545 . S
O464 C479 1.258 . S
O465 Gd420 2.606 . S
O465 Gd421 2.362 . S
O465 C476 1.284 . S
O466 Gd421 2.324 . S
O466 C486 1.254 . S
O467 Gd420 2.429 . S
O467 C486 1.268 . S
O468 Gd420 2.545 . S
O468 C476 1.250 . S
O469 Gd420 2.412 . S
O469 C479 1.252 . S
O470 Gd421 2.545 . S
O470 C488 1.258 . S
O471 Gd420 2.362 . S
O471 Gd421 2.606 . S
O471 C487 1.284 . S
O472 Gd420 2.324 . S
O472 C495 1.254 . S
O473 Gd421 2.429 . S
O473 C495 1.268 . S
O474 Gd421 2.545 . S
O474 C487 1.250 . S
O475 Gd421 2.412 . S
O475 C488 1.252 . S
C476 O465 1.284 . S
C476 O468 1.250 . S
C477 H446 0.929 . S
C477 C462 1.437 . S
C477 C478 1.317 . S
C478 H449 0.930 . S
C478 C454 1.431 . S
C478 C477 1.317 . S
C479 Gd420 2.828 . S
C479 O464 1.258 . S
C479 O469 1.252 . S
C479 C480 1.497 . S
C480 C479 1.497 . S
C480 C481 1.395 . S
C480 C482 1.380 1_556 S
C481 C480 1.395 . S
C481 C484 1.398 1_556 S
C481 H496 0.930 . S
C482 C480 1.380 1_554 S
C482 C483 1.391 . S
C482 H497 0.930 1_554 S
C483 C482 1.391 . S
C483 C485 1.387 . S
C484 C481 1.398 1_554 S
C484 C485 1.380 . S
C484 H498 0.930 . S
C485 C483 1.387 . S
C485 C484 1.380 . S
C485 H499 0.930 . S
C486 O466 1.254 . S
C486 O467 1.268 . S
C487 O471 1.284 . S
C487 O474 1.250 . S
C488 Gd421 2.828 . S
C488 O470 1.258 . S
C488 O475 1.252 . S
C488 C489 1.497 . S
C489 C488 1.497 . S
C489 C490 1.395 . S
C489 C491 1.380 . S
C490 C489 1.395 . S
C490 C493 1.398 . S
C490 H500 0.930 . S
C491 C489 1.380 . S
C491 C492 1.391 . S
C491 H501 0.930 . S
C492 C491 1.391 . S
C492 C494 1.387 . S
C493 C490 1.398 . S
C493 C494 1.380 . S
C493 H502 0.930 . S
C494 C492 1.387 . S
C494 C493 1.380 . S
C494 H503 0.930 . S
C495 O472 1.254 . S
C495 O473 1.268 . S
H496 C481 0.930 . S
H497 C482 0.930 1_556 S
H498 C484 0.930 . S
H499 C485 0.930 . S
H500 C490 0.930 . S
H501 C491 0.930 . S
H502 C493 0.930 . S
H503 C494 0.930 . S
C504 C505 1.387 . S
C504 H508 0.950 . S
C504 C513 1.390 . S
C505 C504 1.387 . S
C505 C507 1.387 . S
H506 C513 0.950 . S
C507 C505 1.387 . S
C507 C509 1.390 . S
C507 H511 0.950 . S
H508 C504 0.950 . S
C509 C507 1.390 . S
C509 C510 1.387 . S
C509 H512 0.950 . S
C510 C509 1.387 . S
C510 C513 1.387 . S
H511 C507 0.950 . S
H512 C509 0.950 . S
C513 C504 1.390 . S
C513 H506 0.950 . S
C513 C510 1.387 . S
C514 C515 1.387 . S
C514 H518 0.950 . S
C514 C523 1.390 . S
C515 C514 1.387 . S
C515 C517 1.387 1_455 S
H516 C523 0.950 . S
C517 C515 1.387 1_655 S
C517 C519 1.390 . S
C517 H521 0.950 . S
H518 C514 0.950 . S
C519 C517 1.390 . S
C519 C520 1.387 . S
C519 H522 0.950 . S
C520 C519 1.387 . S
C520 C523 1.387 1_655 S
H521 C517 0.950 . S
H522 C519 0.950 . S
C523 C514 1.390 . S
C523 H516 0.950 . S
C523 C520 1.387 1_455 S
C524 C525 1.387 . S
C524 H528 0.950 . S
C524 C533 1.390 1_545 S
C525 C524 1.387 . S
C525 C527 1.387 . S
H526 C533 0.950 . S
C527 C525 1.387 . S
C527 C529 1.390 1_545 S
C527 H531 0.950 . S
H528 C524 0.950 . S
C529 C527 1.390 1_565 S
C529 C530 1.387 . S
C529 H532 0.950 . S
C530 C529 1.387 . S
C530 C533 1.387 . S
H531 C527 0.950 . S
H532 C529 0.950 . S
C533 C524 1.390 1_565 S
C533 H526 0.950 . S
C533 C530 1.387 . S
C534 C535 1.387 . S
C534 H538 0.950 . S
C534 C543 1.390 . S
C535 C534 1.387 . S
C535 C537 1.387 . S
H536 C543 0.950 . S
C537 C535 1.387 . S
C537 C539 1.390 . S
C537 H541 0.950 . S
H538 C534 0.950 . S
C539 C537 1.390 . S
C539 C540 1.387 . S
C539 H542 0.950 . S
C540 C539 1.387 . S
C540 C543 1.387 . S
H541 C537 0.950 . S
H542 C539 0.950 . S
C543 C534 1.390 . S
C543 H536 0.950 . S
C543 C540 1.387 . S
C544 C545 1.387 . S
C544 H548 0.950 . S
C544 C553 1.390 . S
C545 C544 1.387 . S
C545 C547 1.387 . S
H546 C553 0.950 . S
C547 C545 1.387 . S
C547 C549 1.390 1_455 S
C547 H551 0.950 . S
H548 C544 0.950 . S
C549 C547 1.390 1_655 S
C549 C550 1.387 . S
C549 H552 0.950 . S
C550 C549 1.387 . S
C550 C553 1.387 1_655 S
H551 C547 0.950 . S
H552 C549 0.950 . S
C553 C544 1.390 . S
C553 H546 0.950 . S
C553 C550 1.387 1_455 S
C554 C555 1.387 . S
C554 H558 0.950 . S
C554 C563 1.390 1_545 S
C555 C554 1.387 . S
C555 C557 1.387 . S
H556 C563 0.950 . S
C557 C555 1.387 . S
C557 C559 1.390 1_545 S
C557 H561 0.950 . S
H558 C554 0.950 . S
C559 C557 1.390 1_565 S
C559 C560 1.387 . S
C559 H562 0.950 . S
C560 C559 1.387 . S
C560 C563 1.387 . S
H561 C557 0.950 . S
H562 C559 0.950 . S
C563 C554 1.390 1_565 S
C563 H556 0.950 . S
C563 C560 1.387 . S
C564 C565 1.387 . S
C564 H568 0.950 . S
C564 C573 1.390 . S
C565 C564 1.387 . S
C565 C567 1.387 . S
H566 C573 0.950 . S
C567 C565 1.387 . S
C567 C569 1.390 . S
C567 H571 0.950 . S
H568 C564 0.950 . S
C569 C567 1.390 . S
C569 C570 1.387 . S
C569 H572 0.950 . S
C570 C569 1.387 . S
C570 C573 1.387 . S
H571 C567 0.950 . S
H572 C569 0.950 . S
C573 C564 1.390 . S
C573 H566 0.950 . S
C573 C570 1.387 . S
C574 C575 1.387 . S
C574 H578 0.950 . S
C574 C583 1.390 . S
C575 C574 1.387 . S
C575 C577 1.387 . S
H576 C583 0.950 . S
C577 C575 1.387 . S
C577 C579 1.390 . S
C577 H581 0.950 . S
H578 C574 0.950 . S
C579 C577 1.390 . S
C579 C580 1.387 . S
C579 H582 0.950 . S
C580 C579 1.387 . S
C580 C583 1.387 . S
H581 C577 0.950 . S
H582 C579 0.950 . S
C583 C574 1.390 . S
C583 H576 0.950 . S
C583 C580 1.387 . S
C584 C585 1.387 . S
C584 H588 0.950 . S
C584 C593 1.390 . S
C585 C584 1.387 . S
C585 C587 1.387 . S
H586 C593 0.950 . S
C587 C585 1.387 . S
C587 C589 1.390 . S
C587 H591 0.950 . S
H588 C584 0.950 . S
C589 C587 1.390 . S
C589 C590 1.387 . S
C589 H592 0.950 . S
C590 C589 1.387 . S
C590 C593 1.387 . S
H591 C587 0.950 . S
H592 C589 0.950 . S
C593 C584 1.390 . S
C593 H586 0.950 . S
C593 C590 1.387 . S
C594 C595 1.387 . S
C594 H598 0.950 . S
C594 C603 1.390 . S
C595 C594 1.387 . S
C595 C597 1.387 . S
H596 C603 0.950 . S
C597 C595 1.387 . S
C597 C599 1.390 . S
C597 H601 0.950 . S
H598 C594 0.950 . S
C599 C597 1.390 . S
C599 C600 1.387 . S
C599 H602 0.950 . S
C600 C599 1.387 . S
C600 C603 1.387 . S
H601 C597 0.950 . S
H602 C599 0.950 . S
C603 C594 1.390 . S
C603 H596 0.950 . S
C603 C600 1.387 . S
C604 C605 1.387 . S
C604 H608 0.950 . S
C604 C613 1.390 . S
C605 C604 1.387 . S
C605 C607 1.387 . S
H606 C613 0.950 . S
C607 C605 1.387 . S
C607 C609 1.390 . S
C607 H611 0.950 . S
H608 C604 0.950 . S
C609 C607 1.390 . S
C609 C610 1.387 . S
C609 H612 0.950 . S
C610 C609 1.387 . S
C610 C613 1.387 . S
H611 C607 0.950 . S
H612 C609 0.950 . S
C613 C604 1.390 . S
C613 H606 0.950 . S
C613 C610 1.387 . S
C614 C615 1.387 . S
C614 H618 0.950 . S
C614 C623 1.390 . S
C615 C614 1.387 . S
C615 C617 1.387 . S
H616 C623 0.950 . S
C617 C615 1.387 . S
C617 C619 1.390 . S
C617 H621 0.950 . S
H618 C614 0.950 . S
C619 C617 1.390 . S
C619 C620 1.387 . S
C619 H622 0.950 . S
C620 C619 1.387 . S
C620 C623 1.387 . S
H621 C617 0.950 . S
H622 C619 0.950 . S
C623 C614 1.390 . S
C623 H616 0.950 . S
C623 C620 1.387 . S
C624 C625 1.387 . S
C624 H628 0.950 . S
C624 C633 1.390 . S
C625 C624 1.387 . S
C625 C627 1.387 . S
H626 C633 0.950 . S
C627 C625 1.387 . S
C627 C629 1.390 . S
C627 H631 0.950 . S
H628 C624 0.950 . S
C629 C627 1.390 . S
C629 C630 1.387 . S
C629 H632 0.950 . S
C630 C629 1.387 . S
C630 C633 1.387 . S
H631 C627 0.950 . S
H632 C629 0.950 . S
C633 C624 1.390 . S
C633 H626 0.950 . S
C633 C630 1.387 . S
C634 C635 1.387 . S
C634 H638 0.950 . S
C634 C643 1.390 . S
C635 C634 1.387 . S
C635 C637 1.387 . S
H636 C643 0.950 . S
C637 C635 1.387 . S
C637 C639 1.390 . S
C637 H641 0.950 . S
H638 C634 0.950 . S
C639 C637 1.390 . S
C639 C640 1.387 . S
C639 H642 0.950 . S
C640 C639 1.387 . S
C640 C643 1.387 . S
H641 C637 0.950 . S
H642 C639 0.950 . S
C643 C634 1.390 . S
C643 H636 0.950 . S
C643 C640 1.387 . S
C644 C645 1.387 . S
C644 H648 0.950 . S
C644 C653 1.390 . S
C645 C644 1.387 . S
C645 C647 1.387 . S
H646 C653 0.950 . S
C647 C645 1.387 . S
C647 C649 1.390 . S
C647 H651 0.950 . S
H648 C644 0.950 . S
C649 C647 1.390 . S
C649 C650 1.387 . S
C649 H652 0.950 . S
C650 C649 1.387 . S
C650 C653 1.387 . S
H651 C647 0.950 . S
H652 C649 0.950 . S
C653 C644 1.390 . S
C653 H646 0.950 . S
C653 C650 1.387 . S
C654 C655 1.387 . S
C654 H658 0.950 . S
C654 C663 1.390 . S
C655 C654 1.387 . S
C655 C657 1.387 . S
H656 C663 0.950 . S
C657 C655 1.387 . S
C657 C659 1.390 . S
C657 H661 0.950 . S
H658 C654 0.950 . S
C659 C657 1.390 . S
C659 C660 1.387 . S
C659 H662 0.950 . S
C660 C659 1.387 . S
C660 C663 1.387 . S
H661 C657 0.950 . S
H662 C659 0.950 . S
C663 C654 1.390 . S
C663 H656 0.950 . S
C663 C660 1.387 . S
C664 C665 1.387 . S
C664 H668 0.950 . S
C664 C673 1.390 . S
C665 C664 1.387 . S
C665 C667 1.387 . S
H666 C673 0.950 . S
C667 C665 1.387 . S
C667 C669 1.390 . S
C667 H671 0.950 . S
H668 C664 0.950 . S
C669 C667 1.390 . S
C669 C670 1.387 . S
C669 H672 0.950 . S
C670 C669 1.387 . S
C670 C673 1.387 . S
H671 C667 0.950 . S
H672 C669 0.950 . S
C673 C664 1.390 . S
C673 H666 0.950 . S
C673 C670 1.387 . S
C674 C675 1.387 . S
C674 H678 0.950 . S
C674 C683 1.390 . S
C675 C674 1.387 . S
C675 C677 1.387 . S
H676 C683 0.950 . S
C677 C675 1.387 . S
C677 C679 1.390 . S
C677 H681 0.950 . S
H678 C674 0.950 . S
C679 C677 1.390 . S
C679 C680 1.387 . S
C679 H682 0.950 . S
C680 C679 1.387 . S
C680 C683 1.387 . S
H681 C677 0.950 . S
H682 C679 0.950 . S
C683 C674 1.390 . S
C683 H676 0.950 . S
C683 C680 1.387 . S
C505 C495 1.483 . S
C510 C67 1.392 . S
C515 C75 1.483 . S
C520 C151 1.389 . S
C525 C159 1.484 . S
C530 C235 1.388 . S
C535 C243 1.484 . S
C540 C319 1.390 . S
C545 C403 1.392 . S
C550 C327 1.484 . S
C555 C487 1.393 . S
C560 C411 1.484 . S
C565 C72 1.664 . S
C570 C63 1.664 . S
C575 C156 1.664 . S
C580 C147 1.664 . S
C585 C240 1.663 . S
C590 C231 1.663 . S
C595 C324 1.664 . S
C600 C315 1.664 . S
C605 C399 1.663 . S
C610 C408 1.663 . S
C615 C492 1.663 . S
C620 C483 1.663 . S
C625 C56 1.440 . S
C630 C402 1.535 . S
C635 C140 1.443 . S
C640 C486 1.534 . S
C645 C66 1.536 . S
C650 C224 1.439 . S
C655 C150 1.534 . S
C660 C308 1.444 . S
C665 C392 1.440 . S
C670 C234 1.535 . S
C675 C318 1.536 . S
C680 C476 1.439 . S
