# Generated by pormake.
# Topology fcu, (12)-cn, num edge types: 1
# Building blocks:
#     Node 0, Type 0, BuildingBlock: BOTCEU_clean_sbu_0, # of connection points: 12
#     Node 1, Type 0, BuildingBlock: BOTCEU_clean_sbu_0, # of connection points: 12
#     Node 2, Type 0, BuildingBlock: BOTCEU_clean_sbu_0, # of connection points: 12
#     Node 3, Type 0, BuildingBlock: BOTCEU_clean_sbu_0, # of connection points: 12
#     Edge 4, Type (0, 0), BuildingBlock: ZUJKAS_clean_linker_0, # of connection points: 2
#     Edge 5, Type (0, 0), BuildingBlock: ZUJKAS_clean_linker_0, # of connection points: 2
#     Edge 6, Type (0, 0), BuildingBlock: ZUJKAS_clean_linker_0, # of connection points: 2
#     Edge 7, Type (0, 0), BuildingBlock: ZUJKAS_clean_linker_0, # of connection points: 2
#     Edge 8, Type (0, 0), BuildingBlock: ZUJKAS_clean_linker_0, # of connection points: 2
#     Edge 9, Type (0, 0), BuildingBlock: ZUJKAS_clean_linker_0, # of connection points: 2
#     Edge 10, Type (0, 0), BuildingBlock: ZUJKAS_clean_linker_0, # of connection points: 2
#     Edge 11, Type (0, 0), BuildingBlock: ZUJKAS_clean_linker_0, # of connection points: 2
#     Edge 12, Type (0, 0), BuildingBlock: ZUJKAS_clean_linker_0, # of connection points: 2
#     Edge 13, Type (0, 0), BuildingBlock: ZUJKAS_clean_linker_0, # of connection points: 2
#     Edge 14, Type (0, 0), BuildingBlock: ZUJKAS_clean_linker_0, # of connection points: 2
#     Edge 15, Type (0, 0), BuildingBlock: ZUJKAS_clean_linker_0, # of connection points: 2
#     Edge 16, Type (0, 0), BuildingBlock: ZUJKAS_clean_linker_0, # of connection points: 2
#     Edge 17, Type (0, 0), BuildingBlock: ZUJKAS_clean_linker_0, # of connection points: 2
#     Edge 18, Type (0, 0), BuildingBlock: ZUJKAS_clean_linker_0, # of connection points: 2
#     Edge 19, Type (0, 0), BuildingBlock: ZUJKAS_clean_linker_0, # of connection points: 2
#     Edge 20, Type (0, 0), BuildingBlock: ZUJKAS_clean_linker_0, # of connection points: 2
#     Edge 21, Type (0, 0), BuildingBlock: ZUJKAS_clean_linker_0, # of connection points: 2
#     Edge 22, Type (0, 0), BuildingBlock: ZUJKAS_clean_linker_0, # of connection points: 2
#     Edge 23, Type (0, 0), BuildingBlock: ZUJKAS_clean_linker_0, # of connection points: 2
#     Edge 24, Type (0, 0), BuildingBlock: ZUJKAS_clean_linker_0, # of connection points: 2
#     Edge 25, Type (0, 0), BuildingBlock: ZUJKAS_clean_linker_0, # of connection points: 2
#     Edge 26, Type (0, 0), BuildingBlock: ZUJKAS_clean_linker_0, # of connection points: 2
#     Edge 27, Type (0, 0), BuildingBlock: ZUJKAS_clean_linker_0, # of connection points: 2
# Relax obj value: 0.051
# Max RMSD: 0.157
# Mean RMSD: 0.157
data_MOF--net-fcu--node1-BOTCEU_clean_sbu_0--edge1-ZUJKAS_clean_linker_0
_symmetry_space_group_name_H-M    P1
_symmetry_Int_Tables_number       1
_symmetry_cell_setting            triclinic
loop_
_symmetry_equiv_pos_as_xyz
'x, y, z'
_cell_length_a     42.154335
_cell_length_b     42.21031
_cell_length_c     42.274822
_cell_angle_alpha  99.638773
_cell_angle_beta   99.789342
_cell_angle_gamma 99.666157
loop_
_atom_site_label
_atom_site_type_symbol
_atom_site_fract_x
_atom_site_fract_y
_atom_site_fract_z
_atom_type_partial_charge
C0 C 0.12616 0.96155 0.10496 0.0
C1 C 0.12112 0.96963 0.13679 0.0
C2 C 0.08808 0.95646 0.13485 0.0
N3 N 0.09762 0.94452 0.08589 0.0
N4 N 0.07486 0.94183 0.10356 0.0
C5 C 0.15807 0.96692 0.09371 0.0
H6 H 0.15486 0.95546 0.06749 0.0
H7 H 0.17635 0.9566 0.10885 0.0
H8 H 0.16777 0.99362 0.09701 0.0
C9 C 0.06985 0.95626 0.16224 0.0
H10 H 0.04334 0.95513 0.15291 0.0
H11 H 0.08022 0.97833 0.18194 0.0
H12 H 0.07221 0.93415 0.1727 0.0
C13 C 0.96625 0.1283 0.87036 0.0
C14 C 0.0134 0.12059 0.85739 0.0
C15 C 0.98669 0.13505 0.84867 0.0
N16 N 0.98066 0.11133 0.89074 0.0
N17 N 0.00832 0.106 0.88248 0.0
H18 H 0.93364 0.16221 0.86854 0.0
H19 H 0.91502 0.12038 0.84946 0.0
H20 H 0.92488 0.13168 0.89333 0.0
C21 C 0.93306 0.13628 0.87069 0.0
H22 H 0.05804 0.14381 0.84623 0.0
H23 H 0.03341 0.11128 0.81419 0.0
H24 H 0.0568 0.10189 0.8506 0.0
C25 C 0.0421 0.11904 0.84113 0.0
C26 C 0.04045 0.85782 0.03588 0.0
C27 C 0.07839 0.98432 0.02653 0.0
C28 C 0.91979 0.08508 0.1188 0.0
N29 N 0.91346 0.06676 0.08834 0.0
N30 N 0.91547 0.0861 0.06717 0.0
C31 C 0.92573 0.11807 0.11637 0.0
C32 C 0.92317 0.1175 0.08296 0.0
H33 H 0.90788 0.04459 0.14281 0.0
H34 H 0.89943 0.0833 0.16183 0.0
H35 H 0.94087 0.07696 0.16575 0.0
C36 C 0.91657 0.07152 0.14889 0.0
H37 H 0.93541 0.13883 0.0428 0.0
H38 H 0.94508 0.16722 0.08216 0.0
H39 H 0.9032 0.15337 0.06002 0.0
C40 C 0.92716 0.14596 0.06608 0.0
C41 C 0.14216 0.89005 0.9871 0.0
C42 C 0.13313 0.87956 0.03466 0.0
N43 N 0.12256 0.9093 -0.00154 0.0
N44 N 0.11676 0.90265 0.02652 0.0
C45 C 0.14981 0.87064 0.00982 0.0
H46 H 0.17438 0.9001 0.95451 0.0
H47 H 0.14726 0.86057 0.94223 0.0
H48 H 0.1315 0.89736 0.93757 0.0
C49 C 0.14904 0.88676 0.95326 0.0
C50 C 0.13244 0.86637 0.06531 0.0
H51 H 0.15665 0.86068 0.07467 0.0
H52 H 0.11361 0.84338 0.05995 0.0
H53 H 0.1259 0.88431 0.08424 0.0
C54 C 0.84112 0.01364 0.01549 0.0
C55 C 0.96482 0.01703 0.0739 0.0
C56 C 0.09134 0.12587 0.93524 0.0
N57 N 0.07325 0.09563 0.92283 0.0
C58 C 0.1239 0.12306 0.94476 0.0
N59 N 0.09225 0.07398 0.9238 0.0
C60 C 0.12339 0.08951 0.93709 0.0
H61 H 0.07813 0.16608 0.91522 0.0
H62 H 0.09227 0.17541 0.95909 0.0
H63 H 0.05152 0.15074 0.94062 0.0
C64 C 0.07752 0.15637 0.93798 0.0
H65 H 0.14582 0.04779 0.92561 0.0
C66 C 0.15215 0.07294 0.94066 0.0
H67 H 0.17334 0.08751 0.9336 0.0
H68 H 0.1596 0.07126 0.96669 0.0
C69 C 0.86285 0.96175 0.12102 0.0
C70 C 0.84584 0.00471 0.10581 0.0
N71 N 0.88312 0.97506 0.10329 0.0
N72 N 0.8727 0.00039 0.09398 0.0
C73 C 0.83857 0.98027 0.12342 0.0
H74 H 0.87829 0.93721 0.15939 0.0
C75 C 0.86543 0.93088 0.13332 0.0
H76 H 0.87973 0.91627 0.11902 0.0
H77 H 0.84058 0.91615 0.13174 0.0
H78 H 0.82224 0.04272 0.1255 0.0
H79 H 0.80656 0.02441 0.08289 0.0
C80 C 0.82925 0.03294 0.10219 0.0
H81 H 0.84557 0.05264 0.09479 0.0
C82 C 0.0192 0.0254 0.84626 0.0
C83 C 0.02076 0.081 0.97059 0.0
C84 C 0.87965 0.03848 0.90956 0.0
N85 N 0.90829 0.05756 0.92605 0.0
C86 C 0.88302 0.02719 0.87772 0.0
C87 C 0.91533 0.04075 0.87692 0.0
N88 N 0.92968 0.05893 0.90681 0.0
C89 C 0.84925 0.03355 0.92343 0.0
H90 H 0.83658 0.05426 0.92074 0.0
H91 H 0.83224 0.01027 0.91037 0.0
H92 H 0.85591 0.03347 0.94995 0.0
C93 C 0.93018 0.04087 0.84723 0.0
H94 H 0.95706 0.05033 0.85436 0.0
H95 H 0.92516 0.01574 0.83213 0.0
H96 H 0.91887 0.05672 0.83208 0.0
C97 C 0.02687 0.86988 0.12733 0.0
C98 C 0.00303 0.86066 0.14497 0.0
C99 C 0.97781 0.87671 0.13537 0.0
N100 N 0.01591 0.89008 0.10861 0.0
N101 N 0.98677 0.89432 0.11353 0.0
H102 H 0.0587 0.8364 0.11868 0.0
H103 H 0.07203 0.86541 0.15687 0.0
H104 H 0.07622 0.87842 0.11862 0.0
C105 C 0.06056 0.86232 0.13059 0.0
C106 C 0.94582 0.87506 0.14639 0.0
H107 H 0.93649 0.84991 0.14978 0.0
H108 H 0.9496 0.89214 0.1703 0.0
H109 H 0.9275 0.88235 0.12831 0.0
C110 C 0.96152 0.15093 0.96784 0.0
C111 C 0.94363 0.03353 0.993 0.0
C112 C 0.04691 0.91087 0.8913 0.0
C113 C 0.03802 0.88009 0.89869 0.0
C114 C 0.052 0.88385 0.9317 0.0
N115 N 0.06493 0.93117 0.91865 0.0
N116 N 0.06808 0.91509 0.94266 0.0
C117 C 0.04071 0.9202 0.85853 0.0
H118 H 0.03887 0.94643 0.86155 0.0
H119 H 0.06166 0.9169 0.84646 0.0
H120 H 0.01792 0.90444 0.84267 0.0
C121 C 0.05455 0.85722 0.9507 0.0
H122 H 0.0649 0.86781 0.97688 0.0
H123 H 0.02999 0.84157 0.94822 0.0
H124 H 0.07068 0.8415 0.94083 0.0
C125 C 0.85083 0.10851 0.01075 0.0
C126 C 0.84601 0.12966 0.98914 0.0
C127 C 0.86796 0.12476 0.96842 0.0
N128 N 0.87431 0.09255 0.00291 0.0
N129 N 0.88476 0.10248 0.97794 0.0
C130 C 0.83678 0.10683 0.04079 0.0
H131 H 0.81065 0.09399 0.03345 0.0
H132 H 0.83774 0.13193 0.0545 0.0
H133 H 0.8503 0.09314 0.05684 0.0
C134 C 0.87283 0.14071 0.94013 0.0
H135 H 0.84997 0.1481 0.92939 0.0
H136 H 0.89265 0.16294 0.94867 0.0
H137 H 0.88034 0.12357 0.92125 0.0
C138 C 0.15531 0.98144 0.96937 0.0
C139 C 0.03238 -0.00373 0.94251 0.0
C140 C 0.91638 0.87461 0.0454 0.0
N141 N 0.93004 0.90519 0.06205 0.0
N142 N 0.90843 0.92412 0.0589 0.0
C143 C 0.88407 0.87432 0.03071 0.0
C144 C 0.88004 0.90647 0.03994 0.0
H145 H 0.95974 0.85412 0.04718 0.0
H146 H 0.93005 0.83618 0.06829 0.0
H147 H 0.92206 0.82632 0.02409 0.0
C148 C 0.93303 0.84605 0.046 0.0
H149 H 0.85368 0.94586 0.03994 0.0
H150 H 0.83354 0.9086 0.01072 0.0
H151 H 0.83418 0.91059 0.05358 0.0
C152 C 0.84857 0.9187 0.03567 0.0
C153 C 0.11205 0.01459 0.85594 0.0
N154 N 0.09758 0.00922 0.88102 0.0
N155 N 0.10618 0.9837 0.89161 0.0
C156 C 0.13033 0.99038 0.84979 0.0
C157 C 0.12577 0.97113 0.87311 0.0
C158 C 0.10882 0.04262 0.83898 0.0
H159 H 0.10777 0.0349 0.81234 0.0
H160 H 0.13054 0.06276 0.84933 0.0
H161 H 0.08666 0.05229 0.84312 0.0
C162 C 0.14071 0.94232 0.87871 0.0
H163 H 0.12622 0.92007 0.86102 0.0
H164 H 0.16635 0.94619 0.87481 0.0
H165 H 0.14016 0.93812 0.9038 0.0
C166 C 0.95749 0.96263 0.15242 0.0
C167 C 0.99428 0.94402 0.03777 0.0
Cu168 Cu 0.08491 0.92187 0.04301 0.0
Cu169 Cu 0.0348 0.91533 0.08227 0.0
Cu170 Cu 0.89736 0.02289 0.06957 0.0
Cu171 Cu 0.89855 0.06659 0.02389 0.0
Cu172 Cu 0.02947 0.07863 0.9046 0.0
Cu173 Cu 0.0716 0.03117 0.90429 0.0
Cu174 Cu 0.92011 0.0861 0.96595 0.0
Cu175 Cu 0.96768 0.09075 0.92314 0.0
Cu176 Cu 0.0899 0.97309 0.92741 0.0
Cu177 Cu 0.09803 0.93686 0.98035 0.0
Cu178 Cu 0.96859 0.92391 0.09209 0.0
Cu179 Cu 0.91933 0.96429 0.08772 0.0
H180 H 0.01851 0.8478 0.01591 0.0
H181 H 0.0368 0.84771 0.05785 0.0
H182 H 0.06232 0.85062 0.02784 0.0
H183 H 0.07141 0.98768 0.05082 0.0
H184 H 0.06198 0.99485 0.00967 0.0
H185 H 0.10425 -0.00295 0.02927 0.0
H186 H 0.83554 0.00019 0.98967 0.0
H187 H 0.82926 0.03521 0.01738 0.0
H188 H 0.83144 -0.00289 0.03094 0.0
H189 H 0.96531 0.04287 0.0716 0.0
H190 H 0.9789 0.00603 0.05671 0.0
H191 H 0.9762 0.0165 0.09941 0.0
H192 H 0.99384 0.01067 0.84119 0.0
H193 H 0.03542 0.00985 0.83638 0.0
H194 H 0.01943 0.04683 0.83427 0.0
H195 H 0.04525 0.07425 0.97323 0.0
H196 H 0.00614 0.06805 0.98569 0.0
H197 H 0.02399 0.10789 0.97902 0.0
H198 H 0.98784 0.1616 0.97845 0.0
H199 H 0.95387 0.16026 0.94537 0.0
H200 H 0.94659 0.15817 0.98602 0.0
H201 H 0.94753 0.02916 0.96748 0.0
H202 H 0.96715 0.03498 0.01002 0.0
H203 H 0.92493 0.01295 -0.00412 0.0
H204 H 0.16691 -0.00369 0.99411 0.0
H205 H 0.1649 0.95853 0.96561 0.0
H206 H 0.1612 -0.0043 0.9506 0.0
H207 H 0.02925 0.97148 0.94849 0.0
H208 H 0.02896 0.01395 0.96355 0.0
H209 H 0.01374 -0.00416 0.92043 0.0
H210 H 0.95535 0.98786 0.16307 0.0
H211 H 0.93689 0.94475 0.15637 0.0
H212 H 0.98114 0.95767 0.16449 0.0
H213 H 0.96838 0.94689 0.03208 0.0
H214 H 0.01057 0.96607 0.03425 0.0
H215 H -0.00283 0.92198 0.02101 0.0
O216 O 0.04488 0.89135 0.04328 0.0
O217 O 0.07534 0.95154 0.01423 0.0
O218 O 0.87447 0.02377 0.02595 0.0
O219 O 0.93294 -8e-05 0.06649 0.0
O220 O 0.03006 0.03587 0.87943 0.0
O221 O 0.00492 0.07227 0.93835 0.0
O222 O 0.9571 0.11741 0.96052 0.0
O223 O 0.93301 0.06243 -0.00032 0.0
O224 O 0.12193 0.97403 0.96665 0.0
O225 O 0.06331 0.00514 0.93661 0.0
O226 O 0.95659 0.95986 0.11953 0.0
O227 O 0.00218 0.9404 0.06962 0.0
C228 C 0.10325 0.38759 0.56759 0.0
C229 C 0.10032 0.39066 0.60021 0.0
C230 C 0.06685 0.38859 0.59956 0.0
N231 N 0.07307 0.3836 0.54925 0.0
N232 N 0.05138 0.38409 0.56813 0.0
C233 C 0.13404 0.38987 0.55425 0.0
H234 H 0.12997 0.39674 0.52987 0.0
H235 H 0.1413 0.36564 0.55142 0.0
H236 H 0.15438 0.40806 0.57142 0.0
C237 C 0.04998 0.38982 0.62802 0.0
H238 H 0.02297 0.38217 0.61965 0.0
H239 H 0.05559 0.41532 0.64239 0.0
H240 H 0.05924 0.37391 0.64437 0.0
C241 C 0.01865 0.66964 0.41837 0.0
C242 C 0.05823 0.64865 0.39982 0.0
C243 C 0.03953 0.67261 0.39626 0.0
N244 N 0.02525 0.64555 0.43396 0.0
N245 N 0.04853 0.63279 0.42264 0.0
H246 H -0.00158 0.70995 0.43776 0.0
H247 H 0.97827 0.68944 0.39666 0.0
H248 H 0.97145 0.67044 0.43105 0.0
C249 C 0.98986 0.68564 0.42098 0.0
H250 H 0.09915 0.66341 0.37767 0.0
H251 H 0.07285 0.62473 0.35745 0.0
H252 H 0.1005 0.62713 0.39542 0.0
C253 C 0.08437 0.64062 0.38171 0.0
C254 C -0.00379 0.32742 0.48496 0.0
C255 C 0.07546 0.44832 0.51566 0.0
C256 C 0.94412 0.5683 0.63778 0.0
N257 N 0.93476 0.56176 0.60503 0.0
N258 N 0.94203 0.5887 0.59379 0.0
C259 C 0.9583 0.6015 0.64776 0.0
C260 C 0.95653 0.61363 0.61893 0.0
H261 H 0.93793 0.51855 0.6448 0.0
H262 H 0.91491 0.54373 0.66646 0.0
H263 H 0.95852 0.54953 0.68117 0.0
C264 C 0.93877 0.54351 0.6588 0.0
H265 H 0.95828 0.65117 0.58993 0.0
H266 H 0.9918 0.65808 0.62461 0.0
H267 H 0.95209 0.66382 0.63127 0.0
C268 C 0.96501 0.64868 0.61577 0.0
C269 C 0.10894 0.35323 0.4418 0.0
C270 C 0.09179 0.32889 0.47994 0.0
N271 N 0.08884 0.37012 0.45572 0.0
N272 N 0.07862 0.35551 0.47837 0.0
C273 C 0.11171 0.32654 0.45688 0.0
H274 H 0.15032 0.37836 0.42668 0.0
H275 H 0.12906 0.3408 0.39901 0.0
H276 H 0.1112 0.37732 0.40115 0.0
C277 C 0.12571 0.3629 0.41543 0.0
C278 C 0.08868 0.30884 0.50572 0.0
H279 H 0.11343 0.30736 0.51871 0.0
H280 H 0.0754 0.28352 0.49391 0.0
H281 H 0.07482 0.31943 0.52349 0.0
C282 C 0.86279 0.53938 0.5228 0.0
C283 C 0.97261 0.50407 0.57145 0.0
C284 C 0.12719 0.62391 0.46415 0.0
N285 N 0.10181 0.59824 0.45414 0.0
C286 C 0.15599 0.61266 0.46135 0.0
N287 N 0.11295 0.57133 0.44612 0.0
C288 C 0.14582 0.57894 0.45024 0.0
H289 H 0.09883 0.66096 0.47451 0.0
H290 H 0.12717 0.6692 0.44773 0.0
H291 H 0.14271 0.67364 0.49071 0.0
C292 C 0.12354 0.65895 0.46966 0.0
H293 H 0.15435 0.52992 0.43804 0.0
C294 C 0.1665 0.55557 0.43883 0.0
H295 H 0.17026 0.55801 0.41396 0.0
H296 H 0.19105 0.56156 0.45541 0.0
C297 C 0.85778 0.45543 0.60363 0.0
C298 C 0.85614 0.50785 0.60683 0.0
N299 N 0.88106 0.46944 0.58931 0.0
N300 N 0.87956 0.50052 0.59063 0.0
C301 C 0.84142 0.47944 0.61561 0.0
H302 H 0.85974 0.41957 0.63371 0.0
C303 C 0.85271 0.4205 0.60741 0.0
H304 H 0.86765 0.40694 0.59302 0.0
H305 H 0.8264 0.40861 0.59882 0.0
H306 H 0.86055 0.55302 0.6404 0.0
H307 H 0.82199 0.53993 0.61172 0.0
C308 C 0.8489 0.54146 0.61458 0.0
H309 H 0.85897 0.55705 0.59848 0.0
C310 C 0.03298 0.55273 0.37183 0.0
C311 C 0.04697 0.59355 0.50228 0.0
C312 C 0.91007 0.5857 0.43762 0.0
N313 N 0.94006 0.59738 0.4567 0.0
C314 C 0.91348 0.58166 0.40512 0.0
C315 C 0.94698 0.59148 0.40662 0.0
N316 N 0.96213 0.60036 0.43834 0.0
C317 C 0.87876 0.58341 0.45002 0.0
H318 H 0.88341 0.5821 0.4763 0.0
H319 H 0.86838 0.60546 0.44698 0.0
H320 H 0.86039 0.5615 0.43592 0.0
C321 C 0.96357 0.59525 0.37855 0.0
H322 H 0.95162 0.57555 0.35687 0.0
H323 H 0.96157 0.61924 0.37183 0.0
H324 H 0.98991 0.59473 0.38562 0.0
C325 C 0.98288 0.32307 0.57651 0.0
C326 C 0.95774 0.3171 0.59353 0.0
C327 C 0.94001 0.34174 0.58972 0.0
N328 N 0.97987 0.34971 0.56381 0.0
N329 N 0.95455 0.36115 0.57193 0.0
H330 H 0.00338 0.27962 0.57518 0.0
H331 H 0.03082 0.31702 0.59741 0.0
H332 H 0.02167 0.3094 0.55345 0.0
C333 C 0.01124 0.30611 0.57535 0.0
C334 C 0.91274 0.34908 0.60628 0.0
H335 H 0.89404 0.32636 0.60341 0.0
H336 H 0.92266 0.35844 0.63288 0.0
H337 H 0.90115 0.36767 0.59569 0.0
C338 C 0.00115 0.67966 0.50959 0.0
C339 C 0.96909 0.55445 0.51228 0.0
C340 C 0.02141 0.42711 0.37655 0.0
C341 C 0.00364 0.39515 0.37229 0.0
C342 C 0.018 0.38349 0.39923 0.0
N343 N 0.04466 0.4331 0.40391 0.0
N344 N 0.04269 0.40728 0.41752 0.0
C345 C 0.01789 0.45105 0.35442 0.0
H346 H 0.02272 0.4763 0.36931 0.0
H347 H 0.03653 0.45026 0.33881 0.0
H348 H 0.99298 0.44518 0.33855 0.0
C349 C 0.01144 0.34908 0.40481 0.0
H350 H 0.02889 0.34611 0.42622 0.0
H351 H 0.98624 0.34295 0.40941 0.0
H352 H 0.01312 0.33162 0.38268 0.0
C353 C 0.88525 0.63518 0.54638 0.0
C354 C 0.88205 0.65929 0.52784 0.0
C355 C 0.90675 0.65861 0.50976 0.0
N356 N 0.91023 0.62129 0.53911 0.0
N357 N 0.92331 0.6356 0.51766 0.0
C358 C 0.86519 0.62553 0.57049 0.0
H359 H 0.84289 0.60707 0.55741 0.0
H360 H 0.85727 0.64718 0.58316 0.0
H361 H 0.87955 0.61444 0.58864 0.0
C362 C 0.91156 0.67603 0.48236 0.0
H363 H 0.88748 0.67745 0.46784 0.0
H364 H 0.92555 0.70141 0.49275 0.0
H365 H 0.92562 0.66327 0.46616 0.0
C366 C 0.14175 0.44713 0.45133 0.0
C367 C 0.03978 0.50159 0.45613 0.0
C368 C 0.89998 0.37806 0.502 0.0
N369 N 0.91556 0.40035 0.52903 0.0
N370 N 0.89949 0.42435 0.53298 0.0
C371 C 0.87188 0.38836 0.48837 0.0
C372 C 0.87257 0.41806 0.50904 0.0
H373 H 0.93185 0.34361 0.50864 0.0
H374 H 0.8889 0.32543 0.49179 0.0
H375 H 0.91429 0.34346 0.46679 0.0
C376 C 0.90942 0.34577 0.49196 0.0
H377 H 0.85915 0.4651 0.51577 0.0
H378 H 0.83192 0.4343 0.48259 0.0
H379 H 0.83091 0.43285 0.52492 0.0
C380 C 0.8471 0.4388 0.50769 0.0
C381 C 0.11309 0.52133 0.36334 0.0
N382 N 0.09884 0.51306 0.38769 0.0
N383 N 0.09915 0.48217 0.38871 0.0
C384 C 0.123 0.49382 0.348 0.0
C385 C 0.11323 0.46927 0.36476 0.0
C386 C 0.11906 0.55533 0.35673 0.0
H387 H 0.10144 0.5563 0.33439 0.0
H388 H 0.14434 0.56212 0.35241 0.0
H389 H 0.1153 0.57316 0.37752 0.0
C390 C 0.1154 0.43389 0.35701 0.0
H391 H 0.11188 0.42527 0.33012 0.0
H392 H 0.14007 0.43086 0.36852 0.0
H393 H 0.09668 0.41877 0.3668 0.0
C394 C 0.94651 0.43317 0.62968 0.0
C395 C 0.99194 0.43416 0.52401 0.0
Cu396 Cu 0.05611 0.37824 0.50518 0.0
Cu397 Cu 0.00815 0.37637 0.5459 0.0
Cu398 Cu 0.91122 0.52537 0.57455 0.0
Cu399 Cu 0.9266 0.5853 0.5495 0.0
Cu400 Cu 0.05768 0.59567 0.43745 0.0
Cu401 Cu 0.08225 0.53604 0.42021 0.0
Cu402 Cu 0.95486 0.61681 0.50037 0.0
Cu403 Cu 0.00382 0.62245 0.46041 0.0
Cu404 Cu 0.08097 0.46622 0.42123 0.0
Cu405 Cu 0.0761 0.40985 0.45313 0.0
Cu406 Cu 0.95081 0.40201 0.56238 0.0
Cu407 Cu 0.91483 0.45557 0.57124 0.0
H408 H 0.9843 0.31403 0.50165 0.0
H409 H 0.01548 0.31485 0.47711 0.0
H410 H 0.97745 0.32767 0.46323 0.0
H411 H 0.06883 0.44636 0.53964 0.0
H412 H 0.06739 0.46984 0.5076 0.0
H413 H 0.1025 0.45137 0.51835 0.0
H414 H 0.85798 0.52307 0.4983 0.0
H415 H 0.85672 0.5634 0.51995 0.0
H416 H 0.84724 0.52816 0.53828 0.0
H417 H 0.98002 0.53025 0.58384 0.0
H418 H 0.98318 0.50044 0.54919 0.0
H419 H 0.98207 0.48885 0.5884 0.0
H420 H 0.00637 0.5417 0.36656 0.0
H421 H 0.04551 0.53673 0.35683 0.0
H422 H 0.03666 0.57728 0.36548 0.0
H423 H 0.03103 0.60138 0.51915 0.0
H424 H 0.07053 0.61168 0.50833 0.0
H425 H 0.05176 0.56912 0.50527 0.0
H426 H 0.02718 0.69034 0.51007 0.0
H427 H 0.98488 0.68911 0.49159 0.0
H428 H -0.0043 0.68668 0.53428 0.0
H429 H 0.94852 0.53389 0.51125 0.0
H430 H 0.97304 0.55496 0.48709 0.0
H431 H 0.99186 0.55095 0.52755 0.0
H432 H 0.15581 0.4727 0.46004 0.0
H433 H 0.15043 0.43177 0.46854 0.0
H434 H 0.14558 0.43745 0.42659 0.0
H435 H 0.02748 0.47547 0.45216 0.0
H436 H 0.04487 0.51244 0.48266 0.0
H437 H 0.02335 0.51487 0.44248 0.0
H438 H 0.95619 0.45796 0.64526 0.0
H439 H 0.92179 0.42344 0.63375 0.0
H440 H 0.96335 0.41666 0.63626 0.0
H441 H 0.96818 0.44196 0.51805 0.0
H442 H 0.01196 0.45616 0.53273 0.0
H443 H -0.00385 0.41904 0.50162 0.0
O444 O 0.0101 0.35902 0.50088 0.0
O445 O 0.06035 0.42041 0.49292 0.0
O446 O 0.8953 0.54363 0.5372 0.0
O447 O 0.939 0.4953 0.56281 0.0
O448 O 0.04575 0.55533 0.40443 0.0
O449 O 0.03175 0.59205 0.47056 0.0
O450 O -0.00398 0.64617 0.50098 0.0
O451 O 0.96159 0.58351 0.52551 0.0
O452 O 0.10903 0.44667 0.45026 0.0
O453 O 0.06875 0.50378 0.44522 0.0
O454 O 0.94472 0.43511 0.59742 0.0
O455 O 0.99101 0.41609 0.54805 0.0
C456 C 0.61293 0.90333 0.57708 0.0
C457 C 0.61059 0.90755 0.60991 0.0
C458 C 0.57695 0.9026 0.60955 0.0
N459 N 0.58236 0.89608 0.55896 0.0
N460 N 0.56091 0.89562 0.57812 0.0
C461 C 0.64336 0.90747 0.56316 0.0
H462 H 0.65249 0.8842 0.56087 0.0
H463 H 0.6629 0.92712 0.57959 0.0
H464 H 0.63792 0.91333 0.53841 0.0
C465 C 0.56053 0.90335 0.6383 0.0
H466 H 0.53452 0.8903 0.63063 0.0
H467 H 0.56107 0.92923 0.64939 0.0
H468 H 0.57387 0.89226 0.65716 0.0
C469 C 0.50071 0.16161 0.40719 0.0
C470 C 0.5417 0.14309 0.38911 0.0
C471 C 0.52213 0.1663 0.3859 0.0
N472 N 0.50802 0.13741 0.42229 0.0
N473 N 0.53204 0.12598 0.41108 0.0
H474 H 0.48301 0.20613 0.41778 0.0
H475 H 0.45411 0.17297 0.38992 0.0
H476 H 0.46252 0.17193 0.43289 0.0
C477 C 0.47353 0.17922 0.41253 0.0
H478 H 0.58769 0.15806 0.37525 0.0
H479 H 0.55698 0.13033 0.34374 0.0
H480 H 0.57803 0.11524 0.37754 0.0
C481 C 0.56767 0.13609 0.3704 0.0
C482 C 0.50855 0.83202 0.49843 0.0
C483 C 0.57903 0.95676 0.51992 0.0
C484 C 0.44039 0.07046 0.63741 0.0
N485 N 0.43048 0.06267 0.60472 0.0
N486 N 0.4351 0.08929 0.59245 0.0
C487 C 0.45146 0.10427 0.64626 0.0
C488 C 0.4476 0.11539 0.61688 0.0
H489 H 0.43082 0.02109 0.64566 0.0
H490 H 0.41419 0.05045 0.6709 0.0
H491 H 0.45746 0.05101 0.67961 0.0
C492 C 0.43554 0.04671 0.6596 0.0
H493 H 0.45989 0.15093 0.58774 0.0
H494 H 0.47412 0.16548 0.63181 0.0
H495 H 0.43127 0.16003 0.6133 0.0
C496 C 0.45387 0.15004 0.61219 0.0
C497 C 0.62017 0.86222 0.45372 0.0
C498 C 0.60446 0.83967 0.49353 0.0
N499 N 0.59866 0.87826 0.46614 0.0
N500 N 0.58927 0.86469 0.48977 0.0
C501 C 0.62473 0.83724 0.47081 0.0
H502 H 0.66008 0.8881 0.43716 0.0
H503 H 0.64114 0.8486 0.41175 0.0
H504 H 0.62045 0.88308 0.41085 0.0
C505 C 0.63626 0.87089 0.42659 0.0
C506 C 0.60262 0.82135 0.52077 0.0
H507 H 0.62775 0.82159 0.53412 0.0
H508 H 0.59038 0.79541 0.51036 0.0
H509 H 0.58831 0.83214 0.53797 0.0
C510 C 0.35659 0.03527 0.52471 0.0
C511 C 0.47171 0.00814 0.57307 0.0
C512 C 0.61298 0.12624 0.45313 0.0
N513 N 0.58985 0.09859 0.44435 0.0
C514 C 0.6432 0.11806 0.45083 0.0
N515 N 0.6038 0.07334 0.43761 0.0
C516 C 0.63632 0.08408 0.44117 0.0
H517 H 0.58064 0.15968 0.46241 0.0
H518 H 0.60826 0.17026 0.43556 0.0
H519 H 0.62404 0.17635 0.47863 0.0
C520 C 0.6058 0.16005 0.45775 0.0
H521 H 0.6503 0.03721 0.43143 0.0
C522 C 0.65952 0.06321 0.43061 0.0
H523 H 0.66199 0.06496 0.40523 0.0
H524 H 0.68424 0.07223 0.44668 0.0
C525 C 0.35993 0.9534 0.60681 0.0
C526 C 0.35401 0.00459 0.60789 0.0
N527 N 0.3824 0.96858 0.59236 0.0
N528 N 0.37847 -0.00114 0.59254 0.0
C529 C 0.34126 0.97585 0.61755 0.0
H530 H 0.36833 0.91522 0.63274 0.0
C531 C 0.35536 0.91787 0.60853 0.0
H532 H 0.36569 0.90438 0.58918 0.0
H533 H 0.32887 0.90711 0.60565 0.0
H534 H 0.34157 0.04276 0.64118 0.0
H535 H 0.32219 0.03792 0.59886 0.0
C536 C 0.34538 0.03761 0.61562 0.0
H537 H 0.36496 0.05704 0.61213 0.0
C538 C 0.52366 0.04543 0.36395 0.0
C539 C 0.53667 0.09041 0.49379 0.0
C540 C 0.39738 0.07563 0.43583 0.0
N541 N 0.42779 0.0895 0.45307 0.0
C542 C 0.39892 0.06891 0.40282 0.0
C543 C 0.43185 0.07956 0.40211 0.0
N544 N 0.44839 0.09143 0.43309 0.0
C545 C 0.36711 0.07369 0.45 0.0
H546 H 0.37356 0.07596 0.47686 0.0
H547 H 0.35468 0.09389 0.44445 0.0
H548 H 0.34967 0.05013 0.43907 0.0
C549 C 0.44663 0.08116 0.37256 0.0
H550 H 0.47303 0.08028 0.37853 0.0
H551 H 0.43352 0.06072 0.35197 0.0
H552 H 0.44455 0.10472 0.36485 0.0
C553 C 0.49236 0.83026 0.58697 0.0
C554 C 0.46536 0.82265 0.60129 0.0
C555 C 0.44784 0.84748 0.59752 0.0
N556 N 0.4904 0.85788 0.57566 0.0
N557 N 0.46403 0.86828 0.58212 0.0
H558 H 0.51325 0.79011 0.56828 0.0
H559 H 0.52896 0.8076 0.61098 0.0
H560 H 0.54163 0.82905 0.57989 0.0
C561 C 0.5209 0.81348 0.58662 0.0
C562 C 0.41607 0.85095 0.60755 0.0
H563 H 0.40043 0.82645 0.60543 0.0
H564 H 0.42114 0.86398 0.63349 0.0
H565 H 0.40298 0.8655 0.59217 0.0
C566 C 0.4909 0.17468 0.50104 0.0
C567 C 0.46239 0.05277 0.5116 0.0
C568 C 0.5271 0.92017 0.37813 0.0
C569 C 0.51457 0.88699 0.37578 0.0
C570 C 0.52916 0.87996 0.40526 0.0
N571 N 0.54796 0.93137 0.40717 0.0
N572 N 0.54901 0.90752 0.42342 0.0
C573 C 0.52435 0.93898 0.35111 0.0
H574 H 0.5318 0.96574 0.36124 0.0
H575 H 0.54066 0.93176 0.33434 0.0
H576 H 0.49881 0.93332 0.33672 0.0
C577 C 0.5277 0.84699 0.41412 0.0
H578 H 0.52967 0.84949 0.44092 0.0
H579 H 0.50456 0.82983 0.40082 0.0
H580 H 0.54888 0.83681 0.40758 0.0
C581 C 0.37559 0.1312 0.54254 0.0
C582 C 0.3706 0.15342 0.52215 0.0
C583 C 0.3949 0.15258 0.50365 0.0
N584 N 0.40131 0.11822 0.53597 0.0
N585 N 0.41309 0.13134 0.51314 0.0
C586 C 0.35603 0.12196 0.56718 0.0
H587 H 0.33339 0.10376 0.55455 0.0
H588 H 0.3486 0.14387 0.57994 0.0
H589 H 0.37051 0.1108 0.58519 0.0
C590 C 0.39734 0.16734 0.47412 0.0
H591 H 0.37248 0.16513 0.45906 0.0
H592 H 0.40866 0.19381 0.48215 0.0
H593 H 0.41273 0.15514 0.45912 0.0
C594 C 0.64519 0.95641 0.45516 0.0
C595 C 0.53639 0.00109 0.45346 0.0
C596 C 0.40836 0.87784 0.50928 0.0
N597 N 0.4223 0.90171 0.53555 0.0
N598 N 0.40411 0.92403 0.53788 0.0
C599 C 0.37915 0.88535 0.49436 0.0
C600 C 0.37743 0.91511 0.51353 0.0
H601 H 0.44303 0.84664 0.51898 0.0
H602 H 0.40112 0.82534 0.50115 0.0
H603 H 0.42633 0.84414 0.47643 0.0
C604 C 0.42052 0.8467 0.50123 0.0
H605 H 0.36037 0.96036 0.51731 0.0
H606 H 0.33525 0.92718 0.48502 0.0
H607 H 0.33404 0.92738 0.52761 0.0
C608 C 0.35012 0.93359 0.51037 0.0
C609 C 0.60686 0.01791 0.35797 0.0
N610 N 0.59424 0.01146 0.38387 0.0
N611 N 0.59803 0.98215 0.38847 0.0
C612 C 0.61914 0.99084 0.34547 0.0
C613 C 0.61272 0.96849 0.36546 0.0
C614 C 0.6091 0.04996 0.34701 0.0
H615 H 0.59018 0.04709 0.32445 0.0
H616 H 0.63358 0.0576 0.34116 0.0
H617 H 0.6047 0.06909 0.36625 0.0
C618 C 0.61838 0.93413 0.36144 0.0
H619 H 0.6136 0.92259 0.33504 0.0
H620 H 0.64437 0.9345 0.37215 0.0
H621 H 0.60229 0.91945 0.37421 0.0
C622 C 0.44961 0.93829 0.6348 0.0
C623 C 0.49728 0.9384 0.52953 0.0
Cu624 Cu 0.56487 0.88694 0.51473 0.0
Cu625 Cu 0.51745 0.88423 0.55614 0.0
Cu626 Cu 0.40831 0.02491 0.57544 0.0
Cu627 Cu 0.41921 0.08363 0.54797 0.0
Cu628 Cu 0.5451 0.0913 0.42796 0.0
Cu629 Cu 0.57562 0.035 0.41433 0.0
Cu630 Cu 0.4443 0.11217 0.49564 0.0
Cu631 Cu 0.49015 0.11565 0.45175 0.0
Cu632 Cu 0.58144 0.96782 0.42249 0.0
Cu633 Cu 0.58248 0.91562 0.45998 0.0
Cu634 Cu 0.45787 0.90724 0.56962 0.0
Cu635 Cu 0.41734 0.957 0.57486 0.0
H636 H 0.49726 0.81963 0.51611 0.0
H637 H 0.52921 0.82058 0.49253 0.0
H638 H 0.48981 0.82926 0.47577 0.0
H639 H 0.57354 0.95571 0.54449 0.0
H640 H 0.56846 0.97644 0.51045 0.0
H641 H 0.60606 0.96204 0.52197 0.0
H642 H 0.35097 0.01783 0.5008 0.0
H643 H 0.34924 0.05856 0.52104 0.0
H644 H 0.34266 0.0247 0.54176 0.0
H645 H 0.47739 0.03504 0.58232 0.0
H646 H 0.48277 0.00255 0.55137 0.0
H647 H 0.48224 -0.0039 0.5926 0.0
H648 H 0.49754 0.03268 0.3587 0.0
H649 H 0.53752 0.03021 0.3498 0.0
H650 H 0.52552 0.06954 0.35657 0.0
H651 H 0.56062 0.1077 0.49825 0.0
H652 H 0.54074 0.06616 0.49817 0.0
H653 H 0.52182 0.10015 0.51093 0.0
H654 H 0.50026 0.18224 0.52789 0.0
H655 H 0.50986 0.18492 0.48819 0.0
H656 H 0.46827 0.18412 0.49419 0.0
H657 H 0.46487 0.05173 0.48578 0.0
H658 H 0.48623 0.05131 0.52648 0.0
H659 H 0.44308 0.03185 0.51262 0.0
H660 H 0.65724 0.98274 0.46108 0.0
H661 H 0.65589 0.94405 0.47437 0.0
H662 H 0.64924 0.94486 0.43108 0.0
H663 H 0.52453 0.97474 0.44814 0.0
H664 H 0.54129 0.01059 0.48024 0.0
H665 H 0.51963 0.01475 0.44082 0.0
H666 H 0.45359 0.96323 0.65009 0.0
H667 H 0.4258 0.92376 0.6365 0.0
H668 H 0.46972 0.92606 0.64372 0.0
H669 H 0.47263 0.94402 0.52236 0.0
H670 H 0.51581 0.96164 0.53717 0.0
H671 H 0.50275 0.92271 0.50819 0.0
O672 O 0.51998 0.8647 0.51186 0.0
O673 O 0.56566 0.92726 0.49894 0.0
O674 O 0.38963 0.04098 0.53752 0.0
O675 O 0.43832 -0.00293 0.56443 0.0
O676 O 0.53643 0.0498 0.39679 0.0
O677 O 0.52045 0.08742 0.4621 0.0
O678 O 0.48423 0.14113 0.49235 0.0
O679 O 0.45381 0.08171 0.52342 0.0
O680 O 0.6122 0.95361 0.45422 0.0
O681 O 0.56541 0.00482 0.44264 0.0
O682 O 0.44958 0.94065 0.60289 0.0
O683 O 0.49764 0.92221 0.55507 0.0
C684 C 0.63967 0.48664 0.10627 0.0
C685 C 0.63733 0.49887 0.13832 0.0
C686 C 0.60486 0.48692 0.13986 0.0
N687 N 0.61023 0.46847 0.09045 0.0
N688 N 0.58944 0.46885 0.11035 0.0
C689 C 0.67036 0.48715 0.0929 0.0
H690 H 0.66432 0.48064 0.06573 0.0
H691 H 0.68377 0.46908 0.10238 0.0
H692 H 0.6867 0.51174 0.10097 0.0
C693 C 0.58993 0.48935 0.16961 0.0
H694 H 0.56322 0.48881 0.16256 0.0
H695 H 0.60223 0.51213 0.18776 0.0
H696 H 0.59296 0.46797 0.18109 0.0
C697 C 0.44776 0.59881 0.84657 0.0
C698 C 0.49433 0.58909 0.83358 0.0
C699 C 0.46792 0.60373 0.82418 0.0
N700 N 0.462 0.5826 0.86787 0.0
N701 N 0.48953 0.57644 0.85989 0.0
H702 H 0.41831 0.63372 0.85891 0.0
H703 H 0.4011 0.6047 0.82117 0.0
H704 H 0.40061 0.59213 0.86024 0.0
C705 C 0.41489 0.60766 0.84666 0.0
H706 H 0.53328 0.61379 0.81428 0.0
H707 H 0.51876 0.57104 0.79615 0.0
H708 H 0.54432 0.58266 0.83666 0.0
C709 C 0.52462 0.58927 0.81955 0.0
C710 C 0.5552 0.37495 0.05721 0.0
C711 C 0.58001 0.49064 0.02145 0.0
C712 C 0.43659 0.60596 0.10701 0.0
N713 N 0.42455 0.582 0.08043 0.0
N714 N 0.41943 0.59484 0.05425 0.0
C715 C 0.43875 0.63585 0.09689 0.0
C716 C 0.42747 0.6277 0.0631 0.0
H717 H 0.44296 0.5747 0.14196 0.0
H718 H 0.41901 0.60544 0.15142 0.0
H719 H 0.46286 0.61736 0.15717 0.0
C720 C 0.44076 0.60044 0.14139 0.0
H721 H 0.42221 0.63873 0.01492 0.0
H722 H 0.44076 0.67361 0.04832 0.0
H723 H 0.3974 0.65703 0.04055 0.0
C724 C 0.42182 0.65061 0.04028 0.0
C725 C 0.65589 0.40192 0.00085 0.0
C726 C 0.64859 0.39897 0.05089 0.0
N727 N 0.63426 0.42036 0.00872 0.0
N728 N 0.62953 0.41821 0.03835 0.0
C729 C 0.66594 0.38788 0.02744 0.0
H730 H 0.6876 0.40693 0.96684 0.0
H731 H 0.66167 0.36705 0.95998 0.0
H732 H 0.64443 0.40133 0.9491 0.0
C733 C 0.66257 0.39378 0.9671 0.0
C734 C 0.64982 0.39124 0.08428 0.0
H735 H 0.67539 0.39046 0.09556 0.0
H736 H 0.63425 0.36677 0.0823 0.0
H737 H 0.64046 0.40977 0.10007 0.0
C738 C 0.34419 0.51653 0.0287 0.0
C739 C 0.47395 0.52989 0.07152 0.0
C740 C 0.5719 0.60824 0.91338 0.0
N741 N 0.55646 0.57665 0.90393 0.0
C742 C 0.60526 0.60914 0.92405 0.0
N743 N 0.57794 0.55767 0.90778 0.0
C744 C 0.60804 0.57633 0.92008 0.0
H745 H 0.52904 0.62926 0.91484 0.0
H746 H 0.55475 0.64386 0.88833 0.0
H747 H 0.56802 0.65785 0.93203 0.0
C748 C 0.55492 0.63654 0.91236 0.0
H749 H 0.63516 0.53759 0.91283 0.0
C750 C 0.63887 0.56319 0.92628 0.0
H751 H 0.65926 0.57879 0.91906 0.0
H752 H 0.64595 0.5635 0.95285 0.0
C753 C 0.38637 0.49532 0.1452 0.0
C754 C 0.36545 0.53255 0.12215 0.0
N755 N 0.40356 0.5037 0.12279 0.0
N756 N 0.39081 0.52562 0.10887 0.0
C757 C 0.36166 0.51349 0.14564 0.0
H758 H 0.40328 0.47784 0.18827 0.0
C759 C 0.39071 0.46767 0.1624 0.0
H760 H 0.40581 0.45205 0.1505 0.0
H761 H 0.3664 0.45265 0.16238 0.0
H762 H 0.33773 0.56969 0.13395 0.0
H763 H 0.32298 0.54347 0.09415 0.0
C764 C 0.34542 0.5567 0.11235 0.0
H765 H 0.35965 0.57461 0.10095 0.0
C766 C 0.50757 0.49734 0.83473 0.0
C767 C 0.50552 0.56317 0.95373 0.0
C768 C 0.36496 0.51579 0.90105 0.0
N769 N 0.39359 0.53672 0.91403 0.0
C770 C 0.36675 0.49992 0.86995 0.0
C771 C 0.39823 0.51285 0.86598 0.0
N772 N 0.41352 0.53496 0.89335 0.0
C773 C 0.33597 0.51313 0.91722 0.0
H774 H 0.34439 0.51681 0.94417 0.0
H775 H 0.32242 0.53274 0.91224 0.0
H776 H 0.31911 0.48893 0.90768 0.0
C777 C 0.41122 0.50858 0.83507 0.0
H778 H 0.43807 0.51835 0.84027 0.0
H779 H 0.40609 0.48231 0.82306 0.0
H780 H 0.39876 0.52198 0.81788 0.0
C781 C 0.5493 0.40122 0.14971 0.0
C782 C 0.52665 0.39312 0.16905 0.0
C783 C 0.50094 0.40864 0.15955 0.0
N784 N 0.53699 0.41995 0.12994 0.0
N785 N 0.50848 0.42481 0.13623 0.0
H786 H 0.57789 0.36365 0.14856 0.0
H787 H 0.59939 0.40341 0.17152 0.0
H788 H 0.59101 0.39626 0.12747 0.0
C789 C 0.58121 0.39038 0.14901 0.0
C790 C 0.46963 0.40781 0.17184 0.0
H791 H 0.45162 0.38532 0.15844 0.0
H792 H 0.47398 0.4073 0.19838 0.0
H793 H 0.45892 0.42928 0.16727 0.0
C794 C 0.44186 0.63183 0.93692 0.0
C795 C 0.43206 0.52276 0.98398 0.0
C796 C 0.55361 0.39517 0.89893 0.0
C797 C 0.55015 0.36713 0.91244 0.0
C798 C 0.566 0.37785 0.94513 0.0
N799 N 0.57069 0.4205 0.92262 0.0
N800 N 0.57772 0.41025 0.95015 0.0
C801 C 0.5441 0.39706 0.86364 0.0
H802 H 0.55251 0.42215 0.85976 0.0
H803 H 0.55473 0.37928 0.84832 0.0
H804 H 0.51699 0.39036 0.85566 0.0
C805 C 0.57151 0.35762 0.9706 0.0
H806 H 0.55088 0.33622 0.96629 0.0
H807 H 0.59458 0.3485 0.96955 0.0
H808 H 0.57426 0.3729 0.99527 0.0
C809 C 0.34344 0.60109 -0.00124 0.0
C810 C 0.33317 0.61505 0.97218 0.0
C811 C 0.35231 0.60605 0.94964 0.0
N812 N 0.36702 0.5849 0.99182 0.0
N813 N 0.37259 0.58812 0.96271 0.0
C814 C 0.33427 0.60671 0.03164 0.0
H815 H 0.30958 0.59166 0.02997 0.0
H816 H 0.3331 0.63288 0.03943 0.0
H817 H 0.35223 0.5996 0.05017 0.0
C818 C 0.35122 0.61414 0.91644 0.0
H819 H 0.32555 0.61397 0.90465 0.0
H820 H 0.36598 0.6391 0.91891 0.0
H821 H 0.36165 0.59636 0.9009 0.0
C822 C 0.65681 0.48422 0.96377 0.0
C823 C 0.52749 0.47866 0.93476 0.0
C824 C 0.43227 0.39391 0.07537 0.0
N825 N 0.44527 0.42567 0.08813 0.0
N826 N 0.42239 0.44314 0.08446 0.0
C827 C 0.39894 0.39117 0.06275 0.0
C828 C 0.39366 0.42318 0.06901 0.0
H829 H 0.45105 0.35749 0.09804 0.0
H830 H 0.44063 0.34678 0.05392 0.0
H831 H 0.47752 0.37702 0.07478 0.0
C832 C 0.4515 0.36718 0.07526 0.0
H833 H 0.36311 0.45879 0.07689 0.0
H834 H 0.35525 0.435 0.03599 0.0
H835 H 0.34172 0.41629 0.06784 0.0
C836 C 0.36159 0.43405 0.06233 0.0
C837 C 0.60303 0.4973 0.84566 0.0
N838 N 0.58964 0.49269 0.87156 0.0
N839 N 0.60251 0.47085 0.88547 0.0
C840 C 0.62516 0.47639 0.8425 0.0
C841 C 0.6239 0.45981 0.86833 0.0
C842 C 0.59569 0.52213 0.82552 0.0
H843 H 0.59592 0.5128 0.79942 0.0
H844 H 0.61481 0.54488 0.83466 0.0
H845 H 0.57163 0.52852 0.82788 0.0
C846 C 0.64378 0.43538 0.87762 0.0
H847 H 0.63344 0.41134 0.86077 0.0
H848 H 0.66961 0.44325 0.87527 0.0
H849 H 0.64286 0.43222 0.90299 0.0
C850 C 0.48381 0.49937 0.16631 0.0
C851 C 0.50147 0.45143 0.04683 0.0
Cu852 Cu 0.5964 0.43765 0.05179 0.0
Cu853 Cu 0.55051 0.43819 0.09627 0.0
Cu854 Cu 0.4081 0.53764 0.07424 0.0
Cu855 Cu 0.39612 0.56589 0.01657 0.0
Cu856 Cu 0.51353 0.55489 0.88697 0.0
Cu857 Cu 0.56144 0.51318 0.89292 0.0
Cu858 Cu 0.40709 0.57033 0.95024 0.0
Cu859 Cu 0.45113 0.56767 0.90418 0.0
Cu860 Cu 0.58954 0.4636 0.92394 0.0
Cu861 Cu 0.60558 0.44036 0.98454 0.0
Cu862 Cu 0.4863 0.44864 0.11039 0.0
Cu863 Cu 0.43568 0.48721 0.10402 0.0
H864 H 0.53666 0.36284 0.03467 0.0
H865 H 0.54633 0.36761 0.07865 0.0
H866 H 0.5788 0.36722 0.05568 0.0
H867 H 0.57499 0.49811 0.04624 0.0
H868 H 0.56001 0.49488 0.00299 0.0
H869 H 0.60382 0.50548 0.01986 0.0
H870 H 0.33399 0.50344 0.00301 0.0
H871 H 0.3319 0.53735 0.03458 0.0
H872 H 0.33986 0.49936 0.04542 0.0
H873 H 0.47239 0.5524 0.0616 0.0
H874 H 0.48583 0.51397 0.05577 0.0
H875 H 0.4888 0.53683 0.09685 0.0
H876 H 0.52351 0.48019 0.82743 0.0
H877 H 0.50882 0.51673 0.82 0.0
H878 H 0.48188 0.48355 0.83036 0.0
H879 H 0.53132 0.55989 0.95645 0.0
H880 H 0.49323 0.54922 0.96973 0.0
H881 H 0.50533 0.58962 0.96102 0.0
H882 H 0.43808 0.64494 0.96056 0.0
H883 H 0.46588 0.64332 0.93236 0.0
H884 H 0.42194 0.63339 0.91689 0.0
H885 H 0.43603 0.5151 0.9588 0.0
H886 H 0.45478 0.52326 0.00175 0.0
H887 H 0.41144 0.5049 0.98809 0.0
H888 H 0.66826 0.50315 0.98618 0.0
H889 H 0.66895 0.4629 0.96364 0.0
H890 H 0.65982 0.49471 0.94186 0.0
H891 H 0.5097 0.46915 0.91115 0.0
H892 H 0.52943 0.45837 0.94813 0.0
H893 H 0.51886 0.4982 0.9499 0.0
H894 H 0.49057 0.52655 0.17265 0.0
H895 H 0.46175 0.49086 0.17596 0.0
H896 H 0.5045 0.48902 0.17742 0.0
H897 H 0.47532 0.45368 0.04273 0.0
H898 H 0.51539 0.46941 0.03535 0.0
H899 H 0.50298 0.42619 0.03555 0.0
O900 O 0.55944 0.40832 0.06036 0.0
O901 O 0.58152 0.45804 0.01593 0.0
O902 O 0.37728 0.52797 0.0325 0.0
O903 O 0.44297 0.51367 0.07179 0.0
O904 O 0.51803 0.51132 0.86734 0.0
O905 O 0.48951 0.55185 0.92171 0.0
O906 O 0.44171 0.59962 0.93825 0.0
O907 O 0.42464 0.5534 0.98765 0.0
O908 O 0.62403 0.47446 0.96329 0.0
O909 O 0.55767 0.49099 0.92888 0.0
O910 O 0.47739 0.4892 0.13294 0.0
O911 O 0.51426 0.45747 0.07983 0.0
H912 H 0.96293 0.13256 0.17836 0.0
H913 H 0.96577 0.17977 0.22152 0.0
H914 H 0.89913 0.21752 0.15501 0.0
H915 H 0.89309 0.1684 0.1133 0.0
H916 H 0.99002 0.23841 0.22356 0.0
H917 H 0.86042 0.23522 0.23266 0.0
H918 H 0.87317 0.20142 0.20951 0.0
H919 H 0.86548 0.23599 0.19158 0.0
C920 C 0.94804 0.15035 0.17332 0.0
C921 C 0.92792 0.14683 0.14243 0.0
C922 C 0.94993 0.17755 0.19788 0.0
C923 C 0.9323 0.20209 0.19173 0.0
C924 C 0.91225 0.19859 0.16076 0.0
H925 H 0.01257 0.39447 0.30972 0.0
H926 H 0.98814 0.35107 0.26216 0.0
C927 C 0.90956 0.17088 0.13657 0.0
C928 C 0.93736 0.23258 0.21671 0.0
H929 H 0.89803 0.2866 0.25619 0.0
C930 C 0.96982 0.24867 0.23089 0.0
C931 C 0.91105 0.2459 0.22658 0.0
C932 C 0.87562 0.22849 0.21452 0.0
C933 C 0.97683 0.27758 0.2546 0.0
C934 C 0.9506 0.29208 0.26291 0.0
C935 C 0.91807 0.27592 0.24906 0.0
C936 C 0.95692 0.32289 0.28757 0.0
C937 C 0.01231 0.29147 0.27126 0.0
C938 C 0.94431 0.32341 0.31626 0.0
C939 C 0.95688 0.34936 0.34304 0.0
C940 C 0.98284 0.37443 0.34171 0.0
C941 C 0.99256 0.37569 0.3117 0.0
C942 C 0.97907 0.35046 0.28458 0.0
H943 H 0.0276 0.27247 0.26929 0.0
H944 H 0.02261 0.31116 0.25927 0.0
H945 H 0.0146 0.30193 0.29765 0.0
H946 H 0.92659 0.30271 0.31883 0.0
H947 H 0.94798 0.34854 0.36549 0.0
H948 H 0.77389 0.98232 0.10465 0.0
H949 H 0.73281 0.98338 0.13933 0.0
H950 H 0.80392 0.97097 0.22028 0.0
H951 H 0.84532 0.9713 0.1862 0.0
H952 H 0.70741 0.93796 0.17551 0.0
H953 H 0.77526 0.05593 0.25592 0.0
H954 H 0.78456 0.04077 0.21673 0.0
H955 H 0.79972 0.02507 0.25212 0.0
C956 C 0.78069 0.97991 0.12987 0.0
C957 C 0.81277 0.97702 0.14291 0.0
C958 C 0.75721 0.98028 0.14952 0.0
C959 C 0.7656 0.97786 0.18245 0.0
C960 C 0.7972 0.97345 0.19504 0.0
H961 H 0.67843 0.97355 0.34924 0.0
H962 H 0.71134 0.96979 0.30689 0.0
C963 C 0.82068 0.97319 0.17546 0.0
C964 C 0.74176 0.98097 0.20406 0.0
H965 H 0.73137 0.02638 0.27487 0.0
C966 C 0.7124 0.95745 0.19706 0.0
C967 C 0.74831 0.00668 0.2319 0.0
C968 C 0.77851 0.03375 0.2395 0.0
C969 C 0.69 0.9582 0.21811 0.0
C970 C 0.69727 0.98317 0.24656 0.0
C971 C 0.72611 0.00719 0.25303 0.0
C972 C 0.67622 0.98387 0.27102 0.0
C973 C 0.65932 0.93178 0.21055 0.0
C974 C 0.64568 0.99312 0.2647 0.0
C975 C 0.62681 0.99522 0.28887 0.0
C976 C 0.63828 0.98795 0.31946 0.0
C977 C 0.66878 0.97859 0.32559 0.0
C978 C 0.68765 0.97666 0.30157 0.0
H979 H 0.65905 0.91215 0.18936 0.0
H980 H 0.65712 0.92058 0.23226 0.0
H981 H 0.63745 0.94282 0.20485 0.0
H982 H 0.63672 -0.0009 0.2413 0.0
H983 H 0.60328 0.00239 0.28366 0.0
H984 H 0.01857 0.80039 0.14106 0.0
H985 H 0.025 0.76912 0.18489 0.0
H986 H 0.00139 0.84705 0.25119 0.0
H987 H 0.99467 0.8781 0.20736 0.0
H988 H 0.06794 0.78599 0.24388 0.0
H989 H 0.93957 0.76742 0.26283 0.0
H990 H 0.951 0.78159 0.22758 0.0
H991 H 0.95807 0.80969 0.26627 0.0
C992 C 0.01465 0.81067 0.16499 0.0
C993 C 0.00578 0.84135 0.1709 0.0
C994 C 0.01826 0.79285 0.18992 0.0
C995 C 0.01311 0.80554 0.2211 0.0
C996 C 0.00457 0.83641 0.22707 0.0
H997 H 0.03776 0.7376 0.40539 0.0
H998 H 0.03275 0.77126 0.3634 0.0
C999 C 0.00072 0.8541 0.20207 0.0
C1000 C 0.01775 0.78693 0.24765 0.0
H1001 H 0.97896 0.75271 0.30208 0.0
C1002 C 0.04846 0.77859 0.25652 0.0
C1003 C 0.99226 0.77737 0.26409 0.0
C1004 C 0.95827 0.78418 0.25454 0.0
C1005 C 0.05442 0.76113 0.28161 0.0
C1006 C 0.029 0.75177 0.29807 0.0
C1007 C -0.0016 0.76023 0.28943 0.0
C1008 C 0.0333 0.73202 0.32352 0.0
C1009 C 0.08786 0.75296 0.2906 0.0
C1010 C 0.03499 0.69892 0.31474 0.0
C1011 C 0.03744 0.67968 0.33849 0.0
C1012 C 0.03848 0.69333 0.37139 0.0
C1013 C 0.03695 0.72655 0.38015 0.0
C1014 C 0.03422 0.74575 0.35632 0.0
H1015 H 0.10648 0.76696 0.27973 0.0
H1016 H 0.09636 0.75818 0.31764 0.0
H1017 H 0.08624 0.72638 0.2815 0.0
H1018 H 0.03367 0.68784 0.28939 0.0
H1019 H 0.03744 0.65391 0.33087 0.0
H1020 H 0.38361 0.10208 0.35435 0.0
H1021 H 0.33503 0.08725 0.30963 0.0
H1022 H 0.30216 -0.00054 0.34443 0.0
H1023 H 0.35103 0.01396 0.38886 0.0
H1024 H 0.31377 0.02766 0.26032 0.0
H1025 H 0.22316 0.04712 0.33934 0.0
H1026 H 0.26668 0.06369 0.35317 0.0
H1027 H 0.25069 0.02108 0.35145 0.0
C1028 C 0.3662 0.07942 0.35211 0.0
C1029 C 0.3708 0.05912 0.37491 0.0
C1030 C 0.33844 0.07113 0.3268 0.0
C1031 C 0.31487 0.04259 0.32418 0.0
C1032 C 0.31981 0.02193 0.34654 0.0
H1033 H 0.13433 0.94317 0.19068 0.0
H1034 H 0.18099 0.96302 0.23711 0.0
C1035 C 0.34762 0.03017 0.37178 0.0
C1036 C 0.28529 0.03416 0.29773 0.0
H1037 H 0.20162 0.02271 0.28332 0.0
C1038 C 0.28924 0.02677 0.26524 0.0
C1039 C 0.25344 0.03303 0.30445 0.0
C1040 C 0.24808 0.04191 0.33896 0.0
C1041 C 0.26198 0.01741 0.23915 0.0
C1042 C 0.23007 0.01615 0.24585 0.0
C1043 C 0.22616 0.0238 0.27836 0.0
C1044 C 0.20044 0.00598 0.21939 0.0
C1045 C 0.2675 0.00802 0.20475 0.0
C1046 C 0.19547 0.02417 0.19473 0.0
C1047 C 0.16887 0.01291 0.16833 0.0
C1048 C 0.14677 0.98352 0.16645 0.0
C1049 C 0.15089 0.96612 0.19187 0.0
C1050 C 0.17756 0.97732 0.21822 0.0
H1051 H 0.29242 0.00269 0.20463 0.0
H1052 H 0.24896 0.98613 0.19068 0.0
H1053 H 0.26508 0.02864 0.19192 0.0
H1054 H 0.21249 0.04674 0.19563 0.0
H1055 H 0.16579 0.02693 0.14918 0.0
H1056 H 0.06211 0.85636 0.84622 0.0
H1057 H 0.04414 0.80193 0.81054 0.0
H1058 H 0.9683 0.77811 0.86453 0.0
H1059 H 0.98589 0.833 0.90001 0.0
H1060 H 0.0399 0.73931 0.83543 0.0
H1061 H 0.92206 0.75661 0.76425 0.0
H1062 H 0.95465 0.79099 0.78517 0.0
H1063 H 0.93042 0.76861 0.80826 0.0
C1064 C 0.04116 0.83974 0.84997 0.0
C1065 C 0.02509 0.84869 0.8755 0.0
C1066 C 0.03119 0.80865 0.8299 0.0
C1067 C 0.00496 0.78623 0.83504 0.0
C1068 C 0.9885 0.79527 0.86022 0.0
H1069 H 0.92089 0.60269 0.69414 0.0
H1070 H 0.93192 0.64191 0.74641 0.0
C1071 C -0.00145 0.82642 0.88039 0.0
C1072 C 0.99546 0.75323 0.81411 0.0
H1073 H 0.93903 0.70735 0.74808 0.0
C1074 C 0.01762 0.732 0.8166 0.0
C1075 C 0.96621 0.74385 0.78999 0.0
C1076 C 0.94188 0.76612 0.78645 0.0
C1077 C 0.01193 0.70199 0.79448 0.0
C1078 C 0.98373 0.69354 0.76897 0.0
C1079 C 0.96064 0.71395 0.76771 0.0
C1080 C 0.97964 0.66608 0.74101 0.0
C1081 C 0.0365 0.68 0.79819 0.0
C1082 C 0.00312 0.66635 0.72111 0.0
C1083 C -0.00305 0.64392 0.6915 0.0
C1084 C 0.96714 0.62113 0.68129 0.0
C1085 C 0.94429 0.61978 0.70184 0.0
C1086 C 0.95046 0.64223 0.73153 0.0
H1087 H 0.04929 0.68364 0.82416 0.0
H1088 H 0.02453 0.65373 0.78931 0.0
H1089 H 0.0554 0.6862 0.78365 0.0
H1090 H 0.02546 0.68501 0.7276 0.0
H1091 H 0.01496 0.64515 0.67605 0.0
H1092 H 0.13255 0.93418 0.80841 0.0
H1093 H 0.1679 0.92757 0.76842 0.0
H1094 H 0.20799 0.03165 0.79348 0.0
H1095 H 0.17444 0.03794 0.83495 0.0
H1096 H 0.17127 0.95227 0.71455 0.0
H1097 H 0.29041 -0.00458 0.80225 0.0
H1098 H 0.25196 0.98641 0.81543 0.0
H1099 H 0.26487 0.02533 0.80454 0.0
C1100 C 0.14935 0.95552 0.80577 0.0
C1101 C 0.15089 0.98654 0.8249 0.0
C1102 C 0.16927 0.95178 0.7827 0.0
C1103 C 0.191 0.97903 0.77836 0.0
C1104 C 0.19197 0.01016 0.79693 0.0
H1105 H 0.28279 -0.00361 0.61219 0.0
H1106 H 0.24534 0.99488 0.6504 0.0
C1107 C 0.17235 0.01383 0.82024 0.0
C1108 C 0.21238 0.97502 0.75414 0.0
H1109 H 0.29211 0.99177 0.7456 0.0
C1110 C 0.19774 0.96063 0.72135 0.0
C1111 C 0.24695 0.98535 0.76315 0.0
C1112 C 0.2645 -0.00135 0.79832 0.0
C1113 C 0.21667 0.95712 0.69716 0.0
C1114 C 0.25105 0.96919 0.70588 0.0
C1115 C 0.26572 0.98282 0.73882 0.0
C1116 C 0.27244 0.96833 0.68142 0.0
C1117 C 0.19965 0.94009 0.66268 0.0
C1118 C 0.30053 0.95459 0.68646 0.0
C1119 C 0.32247 0.95637 0.66524 0.0
C1120 C 0.3166 0.97168 0.63838 0.0
C1121 C 0.2881 0.98474 0.63287 0.0
C1122 C 0.26638 0.98339 0.65439 0.0
H1123 H 0.17631 0.92317 0.66239 0.0
H1124 H 0.19349 0.95873 0.64831 0.0
H1125 H 0.21558 0.92587 0.65034 0.0
H1126 H 0.30588 0.9431 0.7073 0.0
H1127 H 0.34462 0.94686 0.67066 0.0
H1128 H 0.00576 0.31945 0.64558 0.0
H1129 H 0.00472 0.28579 0.68729 0.0
H1130 H 0.90572 0.23612 0.64016 0.0
H1131 H 0.90702 0.26951 0.59769 0.0
H1132 H 0.95811 0.28113 0.72964 0.0
H1133 H 0.95783 0.16126 0.65066 0.0
H1134 H 0.97005 0.19994 0.6388 0.0
H1135 H 0.9274 0.18376 0.63663 0.0
C1136 C 0.98401 0.30096 0.64383 0.0
C1137 C 0.95666 0.2965 0.61829 0.0
C1138 C 0.98333 0.28201 0.66776 0.0
C1139 C 0.9553 0.25831 0.6665 0.0
C1140 C 0.92772 0.25402 0.64119 0.0
H1141 H 0.93278 0.12168 0.79923 0.0
H1142 H 0.92198 0.1518 0.75505 0.0
C1143 C 0.92839 0.27311 0.61717 0.0
C1144 C 0.9552 0.23868 0.69226 0.0
H1145 H 0.95865 0.16205 0.7066 0.0
C1146 C 0.95797 0.25504 0.72463 0.0
C1147 C 0.95486 0.20468 0.68546 0.0
C1148 C 0.95258 0.18624 0.65107 0.0
C1149 C 0.96105 0.23836 0.75062 0.0
C1150 C 0.96199 0.20462 0.744 0.0
C1151 C 0.95807 0.18798 0.7115 0.0
C1152 C 0.96838 0.18651 0.77063 0.0
C1153 C 0.96337 0.25701 0.78494 0.0
C1154 C -0.00176 0.1958 0.79356 0.0
C1155 C 0.00429 0.17884 0.81886 0.0
C1156 C 0.98061 0.15232 0.82145 0.0
C1157 C 0.95104 0.14259 0.79812 0.0
C1158 C 0.94498 0.15955 0.7728 0.0
H1159 H 0.95304 0.27955 0.78481 0.0
H1160 H 0.95021 0.2415 0.79935 0.0
H1161 H 0.98959 0.26455 0.79753 0.0
H1162 H 0.01685 0.21617 0.79186 0.0
H1163 H 0.0272 0.18681 0.83669 0.0
H1164 H 0.66254 0.87742 0.61919 0.0
H1165 H 0.70955 0.89191 0.6655 0.0
H1166 H 0.66705 0.9693 0.71104 0.0
H1167 H 0.62019 0.95502 0.6647 0.0
H1168 H 0.75297 0.95213 0.68604 0.0
H1169 H 0.6903 0.92095 0.7852 0.0
H1170 H 0.67169 0.90643 0.74231 0.0
H1171 H 0.67124 0.9474 0.76238 0.0
C1172 C 0.66331 0.89749 0.63915 0.0
C1173 C 0.63788 0.91514 0.63856 0.0
C1174 C 0.68999 0.90559 0.66557 0.0
C1175 C 0.69146 0.93132 0.69182 0.0
C1176 C 0.66593 0.94883 0.69135 0.0
H1177 H 0.82673 0.04799 0.8591 0.0
H1178 H 0.78123 0.02155 0.81319 0.0
C1179 C 0.63922 0.94069 0.66494 0.0
C1180 C 0.7206 0.94122 0.71881 0.0
H1181 H 0.74422 0.95479 0.80198 0.0
C1182 C 0.75123 0.9523 0.71137 0.0
C1183 C 0.7181 0.94125 0.75173 0.0
C1184 C 0.68612 0.92807 0.76092 0.0
C1185 C 0.77928 0.96488 0.73624 0.0
C1186 C 0.7765 0.96596 0.76921 0.0
C1187 C 0.7461 0.95395 0.77658 0.0
C1188 C 0.8043 0.98152 0.79658 0.0
C1189 C 0.81134 0.97821 0.72726 0.0
C1190 C 0.8322 0.9676 0.8023 0.0
C1191 C 0.85814 0.9826 0.82865 0.0
C1192 C 0.85625 0.01148 0.84951 0.0
C1193 C 0.82841 0.0254 0.84359 0.0
C1194 C 0.80256 0.01045 0.81738 0.0
H1195 H 0.80806 0.98041 0.70114 0.0
H1196 H 0.8228 0.0027 0.74289 0.0
H1197 H 0.82862 0.9615 0.73156 0.0
H1198 H 0.83372 0.94504 0.78664 0.0
H1199 H 0.87933 0.97136 0.83307 0.0
H1200 H 0.35173 0.37849 0.00714 0.0
H1201 H 0.30673 0.33047 0.98763 0.0
H1202 H 0.34508 0.28746 0.06791 0.0
H1203 H 0.38943 0.33596 0.08816 0.0
H1204 H 0.30797 0.2632 0.96956 0.0
H1205 H 0.24976 0.2888 0.07718 0.0
H1206 H 0.28094 0.31883 0.06808 0.0
H1207 H 0.29227 0.28605 0.08679 0.0
C1208 C 0.35043 0.35881 0.02064 0.0
C1209 C 0.3738 0.36093 0.04924 0.0
C1210 C 0.32492 0.33137 0.00939 0.0
C1211 C 0.32236 0.30574 0.02666 0.0
C1212 C 0.34638 0.30727 0.05458 0.0
H1213 H 0.17279 0.12826 -0.00232 0.0
H1214 H 0.22237 0.17155 0.01734 0.0
C1215 C 0.37188 0.33475 0.06586 0.0
C1216 C 0.29411 0.27778 0.01572 0.0
H1217 H 0.22577 0.23996 0.03824 0.0
C1218 C 0.28999 0.25806 0.98454 0.0
C1219 C 0.27078 0.27124 0.03542 0.0
C1220 C 0.27337 0.29246 0.06863 0.0
C1221 C 0.2631 0.23178 0.97251 0.0
C1222 C 0.23958 0.2255 0.99204 0.0
C1223 C 0.24393 0.24492 0.0234 0.0
C1224 C 0.20982 0.19934 0.98006 0.0
C1225 C 0.26022 0.21075 0.93916 0.0
C1226 C 0.18625 0.20102 0.95297 0.0
C1227 C 0.15807 0.17635 0.94171 0.0
C1228 C 0.15304 0.14974 0.95748 0.0
C1229 C 0.1764 0.14832 0.98487 0.0
C1230 C 0.20456 0.17305 -0.00382 0.0
H1231 H 0.2841 0.21346 0.93107 0.0
H1232 H 0.25128 0.18446 0.93917 0.0
H1233 H 0.24227 0.21832 0.92097 0.0
H1234 H 0.18965 0.22143 0.94057 0.0
H1235 H 0.14054 0.17778 0.92034 0.0
H1236 H 0.34577 0.67573 0.95754 0.0
H1237 H 0.31195 0.71746 0.9617 0.0
H1238 H 0.23809 0.65026 0.99001 0.0
H1239 H 0.27185 0.60832 0.98564 0.0
H1240 H 0.24674 0.7172 0.93104 0.0
H1241 H 0.26165 0.73038 0.06609 0.0
H1242 H 0.28678 0.70917 0.04296 0.0
H1243 H 0.2456 0.68933 0.04303 0.0
C1244 C 0.32199 0.66962 0.96388 0.0
C1245 C 0.31128 0.63886 0.97118 0.0
C1246 C 0.30283 0.69353 0.96651 0.0
C1247 C 0.27282 0.68707 0.97667 0.0
C1248 C 0.26151 0.6559 0.98277 0.0
H1249 H 0.13147 0.80799 0.0184 0.0
H1250 H 0.16104 0.76305 0.01 0.0
C1251 C 0.2807 0.63201 0.98019 0.0
C1252 C 0.2539 0.71333 0.98179 0.0
H1253 H 0.22612 0.76065 0.0406 0.0
C1254 C 0.24222 0.72674 0.95496 0.0
C1255 C 0.24817 0.72571 0.01309 0.0
C1256 C 0.26142 0.71317 0.04305 0.0
C1257 C 0.22458 0.75206 0.95854 0.0
C1258 C 0.21899 0.76451 0.98986 0.0
C1259 C 0.23046 0.75095 0.01663 0.0
C1260 C 0.20152 0.79187 -0.00455 0.0
C1261 C 0.21166 0.76497 0.92874 0.0
C1262 C 0.21487 0.82304 0.99065 0.0
C1263 C 0.19822 0.84878 -0.00421 0.0
C1264 C 0.16809 0.84378 0.00599 0.0
C1265 C 0.15499 0.81269 0.01122 0.0
C1266 C 0.17168 0.78696 0.00613 0.0
H1267 H 0.21101 0.74766 0.90562 0.0
H1268 H 0.18654 0.76962 0.92902 0.0
H1269 H 0.22797 0.78853 0.92879 0.0
H1270 H 0.23822 0.82745 0.98303 0.0
H1271 H 0.20896 0.87264 0.99194 0.0
H1272 H 0.72635 0.39043 0.01253 0.0
H1273 H 0.75716 0.34594 0.00788 0.0
H1274 H 0.68068 0.28338 0.03771 0.0
H1275 H 0.64965 0.32757 0.04196 0.0
H1276 H 0.77713 0.30653 0.05921 0.0
H1277 H 0.69176 0.23499 0.94474 0.0
H1278 H 0.69463 0.27846 0.95855 0.0
H1279 H 0.67365 0.24961 0.97855 0.0
C1280 C 0.71635 0.36723 0.01833 0.0
C1281 C 0.68587 0.36237 0.02783 0.0
C1282 C 0.73391 0.34198 0.01575 0.0
C1283 C 0.72099 0.31146 0.02226 0.0
C1284 C 0.6909 0.3068 0.03249 0.0
H1285 H 0.78249 0.12401 -0.00328 0.0
H1286 H 0.7522 0.16833 0.00606 0.0
C1287 C 0.67343 0.33211 0.03526 0.0
C1288 C 0.7385 0.28415 0.01729 0.0
H1289 H 0.73498 0.21108 0.96671 0.0
C1290 C 0.76802 0.28563 0.03902 0.0
C1291 C 0.72629 0.25699 0.99099 0.0
C1292 C 0.69495 0.25478 0.96665 0.0
C1293 C 0.78565 0.26032 0.03531 0.0
C1294 C 0.77374 0.23335 0.00864 0.0
C1295 C 0.74404 0.23182 0.98707 0.0
C1296 C 0.79189 0.20657 0.00253 0.0
C1297 C 0.81649 0.2624 0.06031 0.0
C1298 C 0.82392 0.21334 -0.0032 0.0
C1299 C 0.84128 0.18817 0.99178 0.0
C1300 C 0.82672 0.15577 0.99199 0.0
C1301 C 0.79436 0.14887 -0.00316 0.0
C1302 C 0.77703 0.17409 0.002 0.0
H1303 H 0.81701 0.27922 0.0837 0.0
H1304 H 0.81877 0.23786 0.06551 0.0
H1305 H 0.83822 0.27207 0.05062 0.0
H1306 H 0.83558 0.23814 -0.00356 0.0
H1307 H 0.86638 0.19425 0.98863 0.0
H1308 H 0.84167 0.86298 0.97194 0.0
H1309 H 0.79385 0.81777 0.95056 0.0
H1310 H 0.81921 0.7758 0.03541 0.0
H1311 H 0.8667 0.82111 0.05698 0.0
H1312 H 0.80106 0.72991 0.97342 0.0
H1313 H 0.71058 0.80987 0.99146 0.0
H1314 H 0.74045 0.82284 0.9681 0.0
H1315 H 0.75356 0.82259 0.01073 0.0
C1316 C 0.83695 0.84401 0.9859 0.0
C1317 C 0.85758 0.84544 0.01609 0.0
C1318 C 0.80974 0.81832 0.97374 0.0
C1319 C 0.80282 0.79382 0.9917 0.0
C1320 C 0.82416 0.79457 0.02127 0.0
H1321 H 0.65389 0.62243 0.97841 0.0
H1322 H 0.70177 0.66773 0.99377 0.0
C1323 C 0.85132 0.82028 0.03345 0.0
C1324 C 0.77295 0.76773 0.98017 0.0
H1325 H 0.68919 0.75408 0.96734 0.0
C1326 C 0.77658 0.73513 0.97201 0.0
C1327 C 0.74113 0.77478 0.97835 0.0
C1328 C 0.73599 0.80936 0.98784 0.0
C1329 C 0.74911 0.70926 0.96195 0.0
C1330 C 0.71729 0.71624 0.96074 0.0
C1331 C 0.71364 0.74889 0.96839 0.0
C1332 C 0.68756 0.68984 0.95227 0.0
C1333 C 0.75437 0.67474 0.95239 0.0
C1334 C 0.66311 0.68809 0.92462 0.0
C1335 C 0.6357 0.66231 0.91592 0.0
C1336 C 0.63239 0.63807 0.93483 0.0
C1337 C 0.65627 0.64053 0.96313 0.0
C1338 C 0.68359 0.6663 0.97186 0.0
H1339 H 0.77885 0.67451 0.94601 0.0
H1340 H 0.75309 0.66221 0.97335 0.0
H1341 H 0.73511 0.66045 0.93119 0.0
H1342 H 0.66567 0.7062 0.90935 0.0
H1343 H 0.61771 0.66073 0.89383 0.0
H1344 H 0.6352 0.42095 0.80537 0.0
H1345 H 0.67093 0.41738 0.76524 0.0
H1346 H 0.69894 0.52293 0.78506 0.0
H1347 H 0.66418 0.52659 0.8258 0.0
H1348 H 0.67719 0.48881 0.71508 0.0
H1349 H 0.77507 0.44106 0.7876 0.0
H1350 H 0.7331 0.42075 0.78395 0.0
H1351 H 0.74702 0.46217 0.80646 0.0
C1352 C 0.64932 0.44332 0.80143 0.0
C1353 C 0.64683 0.47405 0.81852 0.0
C1354 C 0.66955 0.44126 0.77846 0.0
C1355 C 0.68753 0.46991 0.77233 0.0
C1356 C 0.68508 0.50058 0.78939 0.0
H1357 H 0.84824 0.51449 0.67705 0.0
H1358 H 0.80926 0.51012 0.7138 0.0
C1359 C 0.66504 0.50263 0.81244 0.0
C1360 C 0.70879 0.46817 0.74796 0.0
H1361 H 0.78166 0.449 0.73502 0.0
C1362 C 0.69991 0.47987 0.71923 0.0
C1363 C 0.73845 0.45669 0.75374 0.0
C1364 C 0.74928 0.44459 0.78466 0.0
C1365 C 0.72017 0.48066 0.69613 0.0
C1366 C 0.74992 0.46938 0.70201 0.0
C1367 C 0.75868 0.45742 0.73061 0.0
C1368 C 0.77319 0.47159 0.67963 0.0
C1369 C 0.71019 0.4944 0.66607 0.0
C1370 C 0.76574 0.45123 0.64839 0.0
C1371 C 0.78795 0.45374 0.6274 0.0
C1372 C 0.81773 0.47672 0.6374 0.0
C1373 C 0.82516 0.49696 0.66868 0.0
C1374 C 0.8031 0.49431 0.68971 0.0
H1375 H 0.68875 0.50633 0.66744 0.0
H1376 H 0.73101 0.51262 0.66272 0.0
H1377 H 0.70357 0.47425 0.6441 0.0
H1378 H 0.74281 0.43342 0.64033 0.0
H1379 H 0.7817 0.43805 0.60326 0.0
H1380 H 0.11385 0.43688 0.65637 0.0
H1381 H 0.15944 0.44476 0.70317 0.0
H1382 H 0.19227 0.36131 0.6553 0.0
H1383 H 0.14656 0.35335 0.60839 0.0
H1384 H 0.17686 0.40183 0.74462 0.0
H1385 H 0.27334 0.43581 0.6742 0.0
H1386 H 0.23036 0.43407 0.65864 0.0
H1387 H 0.24577 0.39687 0.65814 0.0
C1388 C 0.13053 0.41998 0.65609 0.0
C1389 C 0.12691 0.3946 0.62892 0.0
C1390 C 0.15659 0.42455 0.6827 0.0
C1391 C 0.17937 0.40384 0.68244 0.0
C1392 C 0.17527 0.3779 0.65564 0.0
H1393 H 0.363 0.44069 0.83026 0.0
H1394 H 0.31732 0.41098 0.78514 0.0
C1395 C 0.14927 0.37342 0.62895 0.0
C1396 C 0.20782 0.41026 0.70999 0.0
H1397 H 0.2909 0.43811 0.73045 0.0
C1398 C 0.20185 0.40938 0.74151 0.0
C1399 C 0.24037 0.41987 0.70572 0.0
C1400 C 0.24802 0.422 0.67243 0.0
C1401 C 0.22752 0.41908 0.76912 0.0
C1402 C 0.25978 0.43023 0.76499 0.0
C1403 C 0.26604 0.42946 0.73338 0.0
C1404 C 0.28655 0.44652 0.79317 0.0
C1405 C 0.21985 0.41812 0.80256 0.0
C1406 C 0.28433 0.47637 0.8121 0.0
C1407 C 0.31034 0.49343 0.83731 0.0
C1408 C 0.33898 0.48088 0.84405 0.0
C1409 C 0.34119 0.4509 0.82526 0.0
C1410 C 0.31515 0.43387 0.79977 0.0
H1411 H 0.19672 0.40032 0.80101 0.0
H1412 H 0.24017 0.41146 0.81887 0.0
H1413 H 0.21667 0.44277 0.81389 0.0
H1414 H 0.26277 0.48692 0.80678 0.0
H1415 H 0.30839 0.5169 0.85094 0.0
H1416 H 0.11544 0.51797 0.29165 0.0
H1417 H 0.15283 0.51984 0.25306 0.0
H1418 H 0.21408 0.46836 0.3094 0.0
H1419 H 0.17771 0.46758 0.34862 0.0
H1420 H 0.22495 0.54885 0.27411 0.0
H1421 H 0.19561 0.41783 0.21042 0.0
H1422 H 0.16725 0.43675 0.23105 0.0
H1423 H 0.20175 0.42545 0.25443 0.0
C1424 C 0.13689 0.50708 0.29576 0.0
C1425 C 0.1436 0.49247 0.323 0.0
C1426 C 0.15804 0.50798 0.27365 0.0
C1427 C 0.1859 0.49391 0.2783 0.0
C1428 C 0.19233 0.47881 0.30515 0.0
H1429 H 0.36827 0.51692 0.21126 0.0
H1430 H 0.32426 0.51261 0.24261 0.0
C1431 C 0.1714 0.47817 0.32738 0.0
C1432 C 0.20952 0.49668 0.25637 0.0
H1433 H 0.24294 0.45136 0.20103 0.0
C1434 C 0.22874 0.52764 0.2579 0.0
C1435 C 0.21421 0.46889 0.23532 0.0
C1436 C 0.1935 0.43531 0.23237 0.0
C1437 C 0.25331 0.53137 0.23946 0.0
C1438 C 0.25863 0.50345 0.21914 0.0
C1439 C 0.23881 0.47263 0.21689 0.0
C1440 C 0.28502 0.5058 0.2003 0.0
C1441 C 0.27362 0.56504 0.2419 0.0
C1442 C 0.27726 0.50302 0.16625 0.0
C1443 C 0.30226 0.50559 0.14843 0.0
C1444 C 0.33527 0.51068 0.16444 0.0
C1445 C 0.34295 0.51292 0.19846 0.0
C1446 C 0.31795 0.51063 0.21632 0.0
H1447 H 0.26317 0.58473 0.25478 0.0
H1448 H 0.2989 0.56646 0.2556 0.0
H1449 H 0.27545 0.56958 0.21708 0.0
H1450 H 0.2519 0.49906 0.15355 0.0
H1451 H 0.29576 0.50315 0.12211 0.0
H1452 H 0.68377 0.55483 0.1487 0.0
H1453 H 0.73312 0.57264 0.19287 0.0
H1454 H 0.70261 0.48842 0.23399 0.0
H1455 H 0.65384 0.47037 0.18982 0.0
H1456 H 0.73723 0.58394 0.26515 0.0
H1457 H 0.79709 0.48384 0.21662 0.0
H1458 H 0.76406 0.49647 0.19181 0.0
H1459 H 0.7553 0.4708 0.22039 0.0
C1460 C 0.68767 0.54037 0.16738 0.0
C1461 C 0.66518 0.51144 0.1662 0.0
C1462 C 0.71566 0.55052 0.19247 0.0
C1463 C 0.72149 0.53157 0.21631 0.0
C1464 C 0.69856 0.50313 0.21556 0.0
H1465 H 0.86459 0.52771 0.38423 0.0
H1466 H 0.81857 0.51755 0.33725 0.0
C1467 C 0.67063 0.49307 0.19062 0.0
C1468 C 0.75181 0.54094 0.24178 0.0
H1469 H 0.82099 0.51415 0.27051 0.0
C1470 C 0.7558 0.56899 0.26624 0.0
C1471 C 0.77581 0.52126 0.24286 0.0
C1472 C 0.77313 0.49154 0.21639 0.0
C1473 C 0.78273 0.57717 0.29273 0.0
C1474 C 0.80634 0.55699 0.29423 0.0
C1475 C 0.80273 0.52944 0.26925 0.0
C1476 C 0.83432 0.56324 0.32221 0.0
C1477 C 0.78502 0.60652 0.31949 0.0
C1478 C 0.85849 0.59203 0.32887 0.0
C1479 C 0.88456 0.59788 0.35572 0.0
C1480 C 0.88683 0.5749 0.37603 0.0
C1481 C 0.86301 0.54585 0.369 0.0
C1482 C 0.83693 0.54002 0.3422 0.0
H1483 H 0.76139 0.61508 0.31823 0.0
H1484 H 0.79231 0.60072 0.34404 0.0
H1485 H 0.80405 0.62701 0.31692 0.0
H1486 H 0.85713 0.60997 0.31338 0.0
H1487 H 0.90254 0.62062 0.36098 0.0
H1488 H 0.38156 0.84798 0.43584 0.0
H1489 H 0.3428 0.79685 0.40811 0.0
H1490 H 0.27741 0.81806 0.47339 0.0
H1491 H 0.31643 0.86787 0.50193 0.0
H1492 H 0.33116 0.75153 0.44963 0.0
H1493 H 0.21403 0.7742 0.38537 0.0
H1494 H 0.2526 0.80319 0.39241 0.0
H1495 H 0.22937 0.80169 0.42433 0.0
C1496 C 0.35846 0.84207 0.44358 0.0
C1497 C 0.35211 0.86155 0.47124 0.0
C1498 C 0.33629 0.81309 0.42758 0.0
C1499 C 0.30725 0.80386 0.43864 0.0
C1500 C 0.29939 0.82512 0.46405 0.0
H1501 H 0.20463 0.65697 0.50489 0.0
H1502 H 0.24607 0.69821 0.49164 0.0
C1503 C 0.32172 0.85372 0.48033 0.0
C1504 C 0.28885 0.76966 0.42943 0.0
H1505 H 0.21024 0.7258 0.41005 0.0
C1506 C 0.30487 0.7455 0.4399 0.0
C1507 C 0.25469 0.76191 0.41667 0.0
C1508 C 0.23672 0.78658 0.40374 0.0
C1509 C 0.28699 0.71474 0.44099 0.0
C1510 C 0.25246 0.70823 0.43135 0.0
C1511 C 0.2368 0.73113 0.4178 0.0
C1512 C 0.23181 0.68003 0.43917 0.0
C1513 C 0.30487 0.69015 0.45425 0.0
C1514 C 0.21063 0.65614 0.41404 0.0
C1515 C 0.18737 0.63256 0.42164 0.0
C1516 C 0.18487 0.63285 0.4544 0.0
C1517 C 0.20675 0.65605 0.47959 0.0
C1518 C 0.23028 0.67945 0.47201 0.0
H1519 H 0.3311 0.69492 0.45216 0.0
H1520 H 0.30399 0.69193 0.48057 0.0
H1521 H 0.29305 0.66474 0.44112 0.0
H1522 H 0.21121 0.6566 0.3886 0.0
H1523 H 0.17003 0.61534 0.40185 0.0
H1524 H 0.10282 0.26024 0.45111 0.0
H1525 H 0.14592 0.22826 0.46018 0.0
H1526 H 0.22004 0.31523 0.47008 0.0
H1527 H 0.17728 0.34737 0.46222 0.0
H1528 H 0.20065 0.21885 0.42871 0.0
H1529 H 0.23944 0.28491 0.55854 0.0
H1530 H 0.20084 0.28611 0.53306 0.0
H1531 H 0.23836 0.3111 0.52913 0.0
C1532 C 0.12832 0.27233 0.45482 0.0
C1533 C 0.13682 0.30617 0.45596 0.0
C1534 C 0.15283 0.2541 0.45989 0.0
C1535 C 0.18604 0.2696 0.46631 0.0
C1536 C 0.19448 0.30299 0.46555 0.0
H1537 H 0.37349 0.21757 0.51977 0.0
H1538 H 0.3273 0.24461 0.50608 0.0
C1539 C 0.17004 0.3212 0.46057 0.0
C1540 C 0.21196 0.25147 0.47584 0.0
H1541 H 0.27347 0.24984 0.5391 0.0
C1542 C 0.21648 0.22541 0.45286 0.0
C1543 C 0.23231 0.26009 0.5075 0.0
C1544 C 0.2274 0.28687 0.53363 0.0
C1545 C 0.24168 0.20833 0.46043 0.0
C1546 C 0.26239 0.21739 0.49189 0.0
C1547 C 0.25752 0.24311 0.51499 0.0
C1548 C 0.28994 0.20109 0.50105 0.0
C1549 C 0.24658 0.18138 0.43449 0.0
C1550 C 0.28403 0.16795 0.50338 0.0
C1551 C 0.31033 0.15255 0.51123 0.0
C1552 C 0.34279 0.1702 0.51696 0.0
C1553 C 0.34861 0.20353 0.51532 0.0
C1554 C 0.32235 0.21893 0.50758 0.0
H1555 H 0.23299 0.18194 0.40972 0.0
H1556 H 0.27308 0.18338 0.43391 0.0
H1557 H 0.23751 0.15724 0.44034 0.0
H1558 H 0.25913 0.15394 0.4988 0.0
H1559 H 0.30527 0.12665 0.51171 0.0
H1560 H 0.88837 0.7244 0.5276 0.0
H1561 H 0.84423 0.75455 0.51648 0.0
H1562 H 0.77206 0.66649 0.5084 0.0
H1563 H 0.81611 0.63603 0.51835 0.0
H1564 H 0.76 0.69917 0.45656 0.0
H1565 H 0.78417 0.78481 0.57692 0.0
H1566 H 0.81936 0.78459 0.55825 0.0
H1567 H 0.80133 0.74836 0.571 0.0
C1568 C 0.86307 0.71159 0.52361 0.0
C1569 C 0.85557 0.67803 0.52412 0.0
C1570 C 0.83794 0.72885 0.51754 0.0
C1571 C 0.80494 0.71282 0.51208 0.0
C1572 C 0.79741 0.67933 0.51284 0.0
H1573 H 0.61759 0.77149 0.46795 0.0
H1574 H 0.66152 0.74039 0.4756 0.0
C1575 C 0.82255 0.66206 0.51887 0.0
C1576 C 0.77825 0.73064 0.50416 0.0
H1577 H 0.74568 0.79535 0.534 0.0
C1578 C 0.75672 0.72011 0.47352 0.0
C1579 C 0.77419 0.75796 0.52635 0.0
C1580 C 0.79578 0.76949 0.56009 0.0
C1581 C 0.73145 0.73656 0.46424 0.0
C1582 C 0.72747 0.76393 0.4864 0.0
C1583 C 0.74898 0.77444 0.51703 0.0
C1584 C 0.70077 0.78178 0.47868 0.0
C1585 C 0.70961 0.72494 0.43064 0.0
C1586 C 0.70837 0.81526 0.47792 0.0
C1587 C 0.68338 0.83301 0.47379 0.0
C1588 C 0.65048 0.81755 0.47053 0.0
C1589 C 0.64282 0.78387 0.47045 0.0
C1590 C 0.66782 0.7661 0.47455 0.0
H1591 H 0.72083 0.70912 0.41385 0.0
H1592 H 0.68587 0.71036 0.4328 0.0
H1593 H 0.70437 0.74605 0.41956 0.0
H1594 H 0.7337 0.82781 0.48136 0.0
H1595 H 0.68996 0.85911 0.47469 0.0
H1596 H 0.65494 0.12366 0.39108 0.0
H1597 H 0.69443 0.16692 0.37804 0.0
H1598 H 0.73042 0.20666 0.48131 0.0
H1599 H 0.69055 0.16369 0.49433 0.0
H1600 H 0.69479 0.23859 0.40448 0.0
H1601 H 0.81388 0.20019 0.43652 0.0
H1602 H 0.77489 0.17143 0.4245 0.0
H1603 H 0.78735 0.19576 0.46532 0.0
C1604 C 0.67201 0.14117 0.41089 0.0
C1605 C 0.67046 0.14035 0.44368 0.0
C1606 C 0.69428 0.16583 0.40344 0.0
C1607 C 0.7154 0.18957 0.42874 0.0
C1608 C 0.71454 0.18811 0.46154 0.0
H1609 H 0.80932 0.37417 0.49735 0.0
H1610 H 0.76731 0.32701 0.46777 0.0
C1611 C 0.69198 0.1637 0.46898 0.0
C1612 C 0.73633 0.21782 0.42136 0.0
H1613 H 0.81623 0.25736 0.43669 0.0
C1614 C 0.72139 0.24249 0.41061 0.0
C1615 C 0.77087 0.22241 0.42885 0.0
C1616 C 0.78782 0.19595 0.43918 0.0
C1617 C 0.7403 0.27304 0.41021 0.0
C1618 C 0.77474 0.27877 0.42092 0.0
C1619 C 0.78975 0.25293 0.42851 0.0
C1620 C 0.79494 0.31225 0.43106 0.0
C1621 C 0.7232 0.2995 0.40018 0.0
C1622 C 0.82383 0.32043 0.41937 0.0
C1623 C 0.84781 0.34785 0.43611 0.0
C1624 C 0.84337 0.36686 0.46502 0.0
C1625 C 0.81318 0.36037 0.47483 0.0
C1626 C 0.7891 0.33329 0.4579 0.0
H1627 H 0.69983 0.28875 0.38218 0.0
H1628 H 0.71712 0.31375 0.42209 0.0
H1629 H 0.73911 0.31661 0.38935 0.0
H1630 H 0.82881 0.30435 0.3988 0.0
H1631 H 0.87075 0.35275 0.42786 0.0
H1632 H 0.58192 0.31611 0.91374 0.0
H1633 H 0.56508 0.26152 0.8784 0.0
H1634 H 0.47591 0.28768 0.83351 0.0
H1635 H 0.49177 0.34161 0.8702 0.0
H1636 H 0.46677 0.22268 0.84166 0.0
H1637 H 0.5734 0.25514 0.78313 0.0
H1638 H 0.58327 0.25595 0.82632 0.0
H1639 H 0.56081 0.28498 0.81158 0.0
C1640 C 0.55826 0.30982 0.89707 0.0
C1641 C 0.53821 0.33304 0.89434 0.0
C1642 C 0.54888 0.27881 0.87665 0.0
C1643 C 0.51963 0.27093 0.85294 0.0
C1644 C 0.4987 0.29344 0.85155 0.0
H1645 H 0.42283 0.15264 0.67175 0.0
H1646 H 0.43967 0.1879 0.72643 0.0
C1647 C 0.50791 0.32429 0.87218 0.0
C1648 C 0.51207 0.2407 0.82747 0.0
H1649 H 0.53693 0.20526 0.7598 0.0
C1650 C 0.48229 0.21856 0.824 0.0
C1651 C 0.53246 0.23552 0.80451 0.0
C1652 C 0.56415 0.25921 0.80627 0.0
C1653 C 0.47177 0.19191 0.79742 0.0
C1654 C 0.49148 0.18765 0.77378 0.0
C1655 C 0.52202 0.20871 0.77816 0.0
C1656 C 0.4794 0.16401 0.74243 0.0
C1657 C 0.43933 0.16903 0.79435 0.0
C1658 C 0.49652 0.13933 0.73333 0.0
C1659 C 0.48705 0.11938 0.70208 0.0
C1660 C 0.46068 0.12426 0.67958 0.0
C1661 C 0.44338 0.1487 0.68879 0.0
C1662 C 0.45268 0.16847 0.72005 0.0
H1663 H 0.43208 0.16962 0.81848 0.0
H1664 H 0.41995 0.17676 0.77787 0.0
H1665 H 0.44037 0.14341 0.78369 0.0
H1666 H 0.51753 0.13595 0.75019 0.0
H1667 H 0.50088 0.10083 0.69517 0.0
H1668 H 0.46658 0.75776 0.5837 0.0
H1669 H 0.46332 0.71665 0.61836 0.0
H1670 H 0.4478 0.7886 0.69653 0.0
H1671 H 0.45225 0.82994 0.66248 0.0
H1672 H 0.49947 0.75665 0.71425 0.0
H1673 H 0.38488 0.6675 0.64943 0.0
H1674 H 0.41404 0.67812 0.62453 0.0
H1675 H 0.39401 0.70883 0.64245 0.0
C1676 C 0.46226 0.76464 0.60821 0.0
C1677 C 0.45959 0.7969 0.62047 0.0
C1678 C 0.46003 0.74111 0.6278 0.0
C1679 C 0.45494 0.74957 0.65981 0.0
C1680 C 0.45145 0.78159 0.67175 0.0
H1681 H 0.45364 0.6645 0.83028 0.0
H1682 H 0.44944 0.69823 0.78864 0.0
C1683 C 0.45371 0.80507 0.65222 0.0
C1684 C 0.45613 0.72605 0.68198 0.0
H1685 H 0.41691 0.65299 0.69449 0.0
C1686 C 0.48139 0.73401 0.70998 0.0
C1687 C 0.43268 0.69643 0.67604 0.0
C1688 C 0.40468 0.68719 0.64663 0.0
C1689 C 0.48378 0.7132 0.73242 0.0
C1690 C 0.45995 0.68394 0.7269 0.0
C1691 C 0.43504 0.67556 0.69857 0.0
C1692 C 0.46009 0.66243 0.75101 0.0
C1693 C 0.5119 0.72257 0.76177 0.0
C1694 C 0.4665 0.63082 0.7432 0.0
C1695 C 0.46859 0.61138 0.76689 0.0
C1696 C 0.46401 0.62327 0.7985 0.0
C1697 C 0.45676 0.65458 0.80594 0.0
C1698 C 0.4547 0.67398 0.78233 0.0
H1699 H 0.53228 0.74115 0.75817 0.0
H1700 H 0.50296 0.73323 0.78359 0.0
H1701 H 0.5217 0.70074 0.76697 0.0
H1702 H 0.47056 0.62151 0.71905 0.0
H1703 H 0.4738 0.58712 0.76052 0.0
H1704 H 0.49294 0.66738 0.14234 0.0
H1705 H 0.49739 0.71618 0.18482 0.0
H1706 H 0.39933 0.72481 0.14283 0.0
H1707 H 0.3947 0.67579 0.10036 0.0
H1708 H 0.46776 0.78854 0.17243 0.0
H1709 H 0.42043 0.7032 0.24894 0.0
H1710 H 0.44782 0.69074 0.22302 0.0
H1711 H 0.4074 0.69462 0.20485 0.0
C1712 C 0.47268 0.68018 0.14187 0.0
C1713 C 0.44354 0.66812 0.11838 0.0
C1714 C 0.47526 0.70795 0.16592 0.0
C1715 C 0.44866 0.72382 0.16672 0.0
C1716 C 0.42011 0.71286 0.14226 0.0
H1717 H 0.45657 0.88404 0.33416 0.0
H1718 H 0.43435 0.84607 0.28093 0.0
C1719 C 0.41757 0.68508 0.11808 0.0
C1720 C 0.4497 0.74931 0.19537 0.0
H1721 H 0.44406 0.75799 0.2757 0.0
C1722 C 0.46187 0.78216 0.19485 0.0
C1723 C 0.44194 0.74054 0.22435 0.0
C1724 C 0.42852 0.70539 0.22558 0.0
C1725 C 0.46818 0.80645 0.22347 0.0
C1726 C 0.46214 0.79732 0.25288 0.0
C1727 C 0.4484 0.76473 0.25291 0.0
C1728 C 0.47445 0.82007 0.28464 0.0
C1729 C 0.48312 0.84132 0.22277 0.0
C1730 C 0.50401 0.81754 0.30399 0.0
C1731 C 0.51665 0.83903 0.33394 0.0
C1732 C 0.49972 0.86314 0.34511 0.0
C1733 C 0.46992 0.86552 0.32588 0.0
C1734 C 0.45729 0.844 0.29569 0.0
H1735 H 0.48589 0.8445 0.19776 0.0
H1736 H 0.46748 0.85804 0.23188 0.0
H1737 H 0.50768 0.84875 0.23939 0.0
H1738 H 0.51755 0.79921 0.29561 0.0
H1739 H 0.5401 0.83731 0.34796 0.0
H1740 H 0.57507 0.21239 0.38496 0.0
H1741 H 0.57792 0.25316 0.34989 0.0
H1742 H 0.4759 0.21522 0.30408 0.0
H1743 H 0.47308 0.17448 0.3391 0.0
H1744 H 0.56665 0.24373 0.28243 0.0
H1745 H 0.47873 0.31302 0.33107 0.0
H1746 H 0.49628 0.28394 0.35169 0.0
H1747 H 0.46215 0.26989 0.31743 0.0
C1748 C 0.55337 0.21274 0.36724 0.0
C1749 C 0.52382 0.19057 0.36468 0.0
C1750 C 0.55496 0.23606 0.34741 0.0
C1751 C 0.52697 0.23756 0.32484 0.0
C1752 C 0.49754 0.21503 0.32196 0.0
H1753 H 0.47943 0.34157 0.17125 0.0
H1754 H 0.48132 0.30488 0.21033 0.0
C1755 C 0.49593 0.1918 0.34188 0.0
C1756 C 0.52871 0.26212 0.30367 0.0
H1757 H 0.49352 0.32437 0.28148 0.0
C1758 C 0.55091 0.26159 0.28241 0.0
C1759 C 0.50823 0.28545 0.30387 0.0
C1760 C 0.48523 0.28841 0.32747 0.0
C1761 C 0.55237 0.28309 0.26049 0.0
C1762 C 0.53128 0.3058 0.26014 0.0
C1763 C 0.50952 0.30675 0.28179 0.0
C1764 C 0.53059 0.32808 0.2367 0.0
C1765 C 0.57569 0.28074 0.23718 0.0
C1766 C 0.55761 0.35337 0.23886 0.0
C1767 C 0.55642 0.37457 0.21677 0.0
C1768 C 0.52818 0.37076 0.19236 0.0
C1769 C 0.50123 0.3454 0.19025 0.0
C1770 C 0.50237 0.32432 0.21236 0.0
H1771 H 0.58588 0.25806 0.23648 0.0
H1772 H 0.56312 0.28122 0.212 0.0
H1773 H 0.59649 0.30217 0.24513 0.0
H1774 H 0.5794 0.35692 0.25784 0.0
H1775 H 0.5773 0.39427 0.21919 0.0
loop_
_geom_bond_atom_site_label_1
_geom_bond_atom_site_label_2
_geom_bond_distance
_geom_bond_site_symmetry_2
_ccdc_geom_bond_type
C0 C1 1.388 . S
C0 N3 1.338 . S
C0 C5 1.503 . S
C1 C0 1.388 . S
C1 C2 1.396 . S
C2 C1 1.396 . S
C2 N4 1.348 . S
C2 C9 1.504 . S
N3 C0 1.338 . S
N3 N4 1.361 . S
N3 Cu168 1.924 . S
N4 C2 1.348 . S
N4 N3 1.361 . S
N4 Cu169 1.964 . S
C5 C0 1.503 . S
C5 H6 0.979 . S
C5 H7 0.979 . S
C5 H8 0.979 . S
H6 C5 0.979 . S
H7 C5 0.979 . S
H8 C5 0.979 . S
C9 C2 1.504 . S
C9 H10 0.981 . S
C9 H11 0.980 1_565 S
C9 H12 0.979 . S
H10 C9 0.981 . S
H11 C9 0.980 1_545 S
H12 C9 0.979 . S
C13 C15 1.402 . S
C13 N16 1.356 . S
C13 C21 1.481 . S
C14 C15 1.400 1_455 S
C14 N17 1.325 . S
C14 C25 1.503 . S
C15 C13 1.402 . S
C15 C14 1.400 1_655 S
N16 C13 1.356 . S
N16 N17 1.365 1_655 S
N16 Cu175 1.941 . S
N17 C14 1.325 . S
N17 N16 1.365 1_455 S
N17 Cu172 1.924 . S
H18 C21 0.980 . S
H19 C21 0.980 . S
H20 C21 0.980 . S
C21 C13 1.481 . S
C21 H18 0.980 . S
C21 H19 0.980 . S
C21 H20 0.980 . S
H22 C25 0.978 . S
H23 C25 0.978 . S
H24 C25 0.983 . S
C25 C14 1.503 . S
C25 H22 0.978 . S
C25 H23 0.978 . S
C25 H24 0.983 . S
C26 H180 0.979 . S
C26 H181 0.981 . S
C26 H182 0.981 . S
C26 O216 1.438 . S
C27 H183 0.980 . S
C27 H184 0.979 . S
C27 H185 0.980 1_554 S
C27 O217 1.533 . S
C28 N29 1.338 . S
C28 C31 1.388 . S
C28 C36 1.503 . S
N29 C28 1.338 . S
N29 N30 1.361 . S
N29 Cu170 1.924 . S
N30 N29 1.361 . S
N30 C32 1.348 . S
N30 Cu171 1.964 . S
C31 C28 1.388 . S
C31 C32 1.396 . S
C32 N30 1.348 . S
C32 C31 1.396 . S
C32 C40 1.504 . S
H33 C36 0.979 . S
H34 C36 0.979 . S
H35 C36 0.979 . S
C36 C28 1.503 . S
C36 H33 0.979 . S
C36 H34 0.979 . S
C36 H35 0.979 . S
H37 C40 0.981 . S
H38 C40 0.980 1_455 S
H39 C40 0.979 . S
C40 C32 1.504 . S
C40 H37 0.981 . S
C40 H38 0.980 1_655 S
C40 H39 0.979 . S
C41 N43 1.356 . S
C41 C45 1.402 . S
C41 C49 1.481 . S
C42 N44 1.325 . S
C42 C45 1.400 1_554 S
C42 C50 1.503 . S
N43 C41 1.356 . S
N43 N44 1.365 1_556 S
N43 Cu177 1.941 . S
N44 C42 1.325 . S
N44 N43 1.365 1_554 S
N44 Cu168 1.924 . S
C45 C41 1.402 . S
C45 C42 1.400 1_556 S
H46 C49 0.980 . S
H47 C49 0.980 . S
H48 C49 0.980 . S
C49 C41 1.481 . S
C49 H46 0.980 . S
C49 H47 0.980 . S
C49 H48 0.980 . S
C50 C42 1.503 . S
C50 H51 0.978 . S
C50 H52 0.978 . S
C50 H53 0.983 . S
H51 C50 0.978 . S
H52 C50 0.978 . S
H53 C50 0.983 . S
C54 H186 0.979 . S
C54 H187 0.981 . S
C54 H188 0.981 . S
C54 O218 1.438 . S
C55 H189 0.980 . S
C55 H190 0.979 . S
C55 H191 0.980 1_545 S
C55 O219 1.533 . S
C56 N57 1.338 . S
C56 C58 1.388 . S
C56 C64 1.503 . S
N57 C56 1.338 . S
N57 N59 1.361 . S
N57 Cu172 1.924 . S
C58 C56 1.388 . S
C58 C60 1.396 . S
N59 N57 1.361 . S
N59 C60 1.348 . S
N59 Cu173 1.964 . S
C60 C58 1.396 . S
C60 N59 1.348 . S
C60 C66 1.504 . S
H61 C64 0.979 . S
H62 C64 0.979 . S
H63 C64 0.979 . S
C64 C56 1.503 . S
C64 H61 0.979 . S
C64 H62 0.979 . S
C64 H63 0.979 . S
H65 C66 0.981 . S
C66 C60 1.504 . S
C66 H65 0.981 . S
C66 H67 0.979 . S
C66 H68 0.980 1_556 S
H67 C66 0.979 . S
H68 C66 0.980 1_554 S
C69 N71 1.356 . S
C69 C73 1.402 . S
C69 C75 1.481 . S
C70 N72 1.325 . S
C70 C73 1.400 1_545 S
C70 C80 1.503 . S
N71 C69 1.356 . S
N71 N72 1.365 1_565 S
N71 Cu179 1.941 . S
N72 C70 1.325 . S
N72 N71 1.365 1_545 S
N72 Cu170 1.924 . S
C73 C69 1.402 . S
C73 C70 1.400 1_565 S
H74 C75 0.980 . S
C75 C69 1.481 . S
C75 H74 0.980 . S
C75 H76 0.980 . S
C75 H77 0.980 . S
H76 C75 0.980 . S
H77 C75 0.980 . S
H78 C80 0.978 . S
H79 C80 0.978 . S
C80 C70 1.503 . S
C80 H78 0.978 . S
C80 H79 0.978 . S
C80 H81 0.983 . S
H81 C80 0.983 . S
C82 H192 0.979 . S
C82 H193 0.981 . S
C82 H194 0.981 . S
C82 O220 1.438 . S
C83 H195 0.980 . S
C83 H196 0.979 . S
C83 H197 0.980 1_455 S
C83 O221 1.533 . S
C84 N85 1.338 . S
C84 C86 1.388 . S
C84 C89 1.503 . S
N85 C84 1.338 . S
N85 N88 1.361 . S
N85 Cu174 1.924 . S
C86 C84 1.388 . S
C86 C87 1.396 . S
C87 C86 1.396 . S
C87 N88 1.348 . S
C87 C93 1.504 . S
N88 N85 1.361 . S
N88 C87 1.348 . S
N88 Cu175 1.964 . S
C89 C84 1.503 . S
C89 H90 0.979 . S
C89 H91 0.979 . S
C89 H92 0.979 . S
H90 C89 0.979 . S
H91 C89 0.979 . S
H92 C89 0.979 . S
C93 C87 1.504 . S
C93 H94 0.981 . S
C93 H95 0.980 1_545 S
C93 H96 0.979 . S
H94 C93 0.981 . S
H95 C93 0.980 1_565 S
H96 C93 0.979 . S
C97 C98 1.402 . S
C97 N100 1.356 . S
C97 C105 1.481 . S
C98 C97 1.402 . S
C98 C99 1.400 1_455 S
C99 C98 1.400 1_655 S
C99 N101 1.331 . S
C99 C106 1.503 . S
N100 C97 1.356 . S
N100 N101 1.335 1_455 S
N100 Cu169 1.941 . S
N101 C99 1.331 . S
N101 N100 1.335 1_655 S
N101 Cu178 1.942 . S
H102 C105 0.980 . S
H103 C105 0.980 . S
H104 C105 0.980 . S
C105 C97 1.481 . S
C105 H102 0.980 . S
C105 H103 0.980 . S
C105 H104 0.980 . S
C106 C99 1.503 . S
C106 H107 0.978 . S
C106 H108 0.978 . S
C106 H109 0.983 . S
H107 C106 0.978 . S
H108 C106 0.978 . S
H109 C106 0.983 . S
C110 H198 0.979 . S
C110 H199 0.981 . S
C110 H200 0.981 . S
C110 O222 1.438 . S
C111 H201 0.980 . S
C111 H202 0.979 . S
C111 H203 0.980 1_556 S
C111 O223 1.533 . S
C112 C113 1.388 . S
C112 N115 1.338 . S
C112 C117 1.503 . S
C113 C112 1.388 . S
C113 C114 1.396 . S
C114 C113 1.396 . S
C114 N116 1.348 . S
C114 C121 1.504 . S
N115 C112 1.338 . S
N115 N116 1.361 . S
N115 Cu176 1.924 . S
N116 C114 1.348 . S
N116 N115 1.361 . S
N116 Cu177 1.964 . S
C117 C112 1.503 . S
C117 H118 0.979 . S
C117 H119 0.979 . S
C117 H120 0.979 . S
H118 C117 0.979 . S
H119 C117 0.979 . S
H120 C117 0.979 . S
C121 C114 1.504 . S
C121 H122 0.981 . S
C121 H123 0.980 1_455 S
C121 H124 0.979 . S
H122 C121 0.981 . S
H123 C121 0.980 1_655 S
H124 C121 0.979 . S
C125 C126 1.402 . S
C125 N128 1.356 . S
C125 C130 1.481 . S
C126 C125 1.402 . S
C126 C127 1.400 1_554 S
C127 C126 1.400 1_556 S
C127 N129 1.331 . S
C127 C134 1.503 . S
N128 C125 1.356 . S
N128 N129 1.335 1_554 S
N128 Cu171 1.941 . S
N129 C127 1.331 . S
N129 N128 1.335 1_556 S
N129 Cu174 1.942 . S
C130 C125 1.481 . S
C130 H131 0.980 . S
C130 H132 0.980 . S
C130 H133 0.980 . S
H131 C130 0.980 . S
H132 C130 0.980 . S
H133 C130 0.980 . S
C134 C127 1.503 . S
C134 H135 0.978 . S
C134 H136 0.978 . S
C134 H137 0.983 . S
H135 C134 0.978 . S
H136 C134 0.978 . S
H137 C134 0.983 . S
C138 H204 0.979 . S
C138 H205 0.981 . S
C138 H206 0.981 . S
C138 O224 1.438 . S
C139 H207 0.980 . S
C139 H208 0.979 . S
C139 H209 0.980 1_565 S
C139 O225 1.533 . S
C140 N141 1.338 . S
C140 C143 1.388 . S
C140 C148 1.503 . S
N141 C140 1.338 . S
N141 N142 1.361 . S
N141 Cu178 1.924 . S
N142 N141 1.361 . S
N142 C144 1.348 . S
N142 Cu179 1.964 . S
C143 C140 1.388 . S
C143 C144 1.396 . S
C144 N142 1.348 . S
C144 C143 1.396 . S
C144 C152 1.504 . S
H145 C148 0.979 . S
H146 C148 0.979 . S
H147 C148 0.979 . S
C148 C140 1.503 . S
C148 H145 0.979 . S
C148 H146 0.979 . S
C148 H147 0.979 . S
H149 C152 0.981 . S
H150 C152 0.980 1_556 S
H151 C152 0.979 . S
C152 C144 1.504 . S
C152 H149 0.981 . S
C152 H150 0.980 1_554 S
C152 H151 0.979 . S
C153 N154 1.356 . S
C153 C156 1.402 . S
C153 C158 1.481 . S
N154 C153 1.356 . S
N154 N155 1.335 1_545 S
N154 Cu173 1.941 . S
N155 N154 1.335 1_565 S
N155 C157 1.331 . S
N155 Cu176 1.942 . S
C156 C153 1.402 . S
C156 C157 1.400 1_545 S
C157 N155 1.331 . S
C157 C156 1.400 1_565 S
C157 C162 1.503 . S
C158 C153 1.481 . S
C158 H159 0.980 . S
C158 H160 0.980 . S
C158 H161 0.980 . S
H159 C158 0.980 . S
H160 C158 0.980 . S
H161 C158 0.980 . S
C162 C157 1.503 . S
C162 H163 0.978 . S
C162 H164 0.978 . S
C162 H165 0.983 . S
H163 C162 0.978 . S
H164 C162 0.978 . S
H165 C162 0.983 . S
C166 H210 0.979 . S
C166 H211 0.981 . S
C166 H212 0.981 . S
C166 O226 1.438 . S
C167 H213 0.980 . S
C167 H214 0.979 . S
C167 H215 0.980 1_655 S
C167 O227 1.533 . S
Cu168 N3 1.924 . S
Cu168 N44 1.924 . S
Cu168 O216 1.923 . S
Cu168 O217 1.930 . S
Cu169 N4 1.964 . S
Cu169 N100 1.941 . S
Cu169 O216 1.905 . S
Cu169 O227 1.920 1_455 S
Cu170 N29 1.924 . S
Cu170 N72 1.924 . S
Cu170 O218 1.923 . S
Cu170 O219 1.930 . S
Cu171 N30 1.964 . S
Cu171 N128 1.941 . S
Cu171 O218 1.905 . S
Cu171 O223 1.920 1_554 S
Cu172 N17 1.924 . S
Cu172 N57 1.924 . S
Cu172 O220 1.923 . S
Cu172 O221 1.930 . S
Cu173 N59 1.964 . S
Cu173 N154 1.941 . S
Cu173 O220 1.905 . S
Cu173 O225 1.920 1_545 S
Cu174 N85 1.924 . S
Cu174 N129 1.942 . S
Cu174 O222 1.923 . S
Cu174 O223 1.930 . S
Cu175 N16 1.941 . S
Cu175 N88 1.964 . S
Cu175 O221 1.920 1_655 S
Cu175 O222 1.905 . S
Cu176 N115 1.924 . S
Cu176 N155 1.942 . S
Cu176 O224 1.923 . S
Cu176 O225 1.930 . S
Cu177 N43 1.941 . S
Cu177 N116 1.964 . S
Cu177 O217 1.920 1_556 S
Cu177 O224 1.905 . S
Cu178 N101 1.942 . S
Cu178 N141 1.924 . S
Cu178 O226 1.923 . S
Cu178 O227 1.930 . S
Cu179 N71 1.941 . S
Cu179 N142 1.964 . S
Cu179 O219 1.920 1_565 S
Cu179 O226 1.905 . S
H180 C26 0.979 . S
H181 C26 0.981 . S
H182 C26 0.981 . S
H183 C27 0.980 . S
H184 C27 0.979 . S
H185 C27 0.980 1_556 S
H186 C54 0.979 . S
H187 C54 0.981 . S
H188 C54 0.981 . S
H189 C55 0.980 . S
H190 C55 0.979 . S
H191 C55 0.980 1_565 S
H192 C82 0.979 . S
H193 C82 0.981 . S
H194 C82 0.981 . S
H195 C83 0.980 . S
H196 C83 0.979 . S
H197 C83 0.980 1_655 S
H198 C110 0.979 . S
H199 C110 0.981 . S
H200 C110 0.981 . S
H201 C111 0.980 . S
H202 C111 0.979 . S
H203 C111 0.980 1_554 S
H204 C138 0.979 . S
H205 C138 0.981 . S
H206 C138 0.981 . S
H207 C139 0.980 . S
H208 C139 0.979 . S
H209 C139 0.980 1_545 S
H210 C166 0.979 . S
H211 C166 0.981 . S
H212 C166 0.981 . S
H213 C167 0.980 . S
H214 C167 0.979 . S
H215 C167 0.980 1_455 S
O216 C26 1.438 . S
O216 Cu168 1.923 . S
O216 Cu169 1.905 . S
O217 C27 1.533 . S
O217 Cu168 1.930 . S
O217 Cu177 1.920 1_554 S
O218 C54 1.438 . S
O218 Cu170 1.923 . S
O218 Cu171 1.905 . S
O219 C55 1.533 . S
O219 Cu170 1.930 . S
O219 Cu179 1.920 1_545 S
O220 C82 1.438 . S
O220 Cu172 1.923 . S
O220 Cu173 1.905 . S
O221 C83 1.533 . S
O221 Cu172 1.930 . S
O221 Cu175 1.920 1_455 S
O222 C110 1.438 . S
O222 Cu174 1.923 . S
O222 Cu175 1.905 . S
O223 C111 1.533 . S
O223 Cu171 1.920 1_556 S
O223 Cu174 1.930 . S
O224 C138 1.438 . S
O224 Cu176 1.923 . S
O224 Cu177 1.905 . S
O225 C139 1.533 . S
O225 Cu173 1.920 1_565 S
O225 Cu176 1.930 . S
O226 C166 1.438 . S
O226 Cu178 1.923 . S
O226 Cu179 1.905 . S
O227 C167 1.533 . S
O227 Cu169 1.920 1_655 S
O227 Cu178 1.930 . S
C228 C229 1.388 . S
C228 N231 1.338 . S
C228 C233 1.503 . S
C229 C228 1.388 . S
C229 C230 1.396 . S
C230 C229 1.396 . S
C230 N232 1.348 . S
C230 C237 1.504 . S
N231 C228 1.338 . S
N231 N232 1.361 . S
N231 Cu396 1.924 . S
N232 C230 1.348 . S
N232 N231 1.361 . S
N232 Cu397 1.964 . S
C233 C228 1.503 . S
C233 H234 0.979 . S
C233 H235 0.979 . S
C233 H236 0.979 . S
H234 C233 0.979 . S
H235 C233 0.979 . S
H236 C233 0.979 . S
C237 C230 1.504 . S
C237 H238 0.981 . S
C237 H239 0.980 . S
C237 H240 0.979 . S
H238 C237 0.981 . S
H239 C237 0.980 . S
H240 C237 0.979 . S
C241 C243 1.402 . S
C241 N244 1.356 . S
C241 C249 1.481 . S
C242 C243 1.400 1_455 S
C242 N245 1.325 . S
C242 C253 1.503 . S
C243 C241 1.402 . S
C243 C242 1.400 1_655 S
N244 C241 1.356 . S
N244 N245 1.365 1_655 S
N244 Cu403 1.941 . S
N245 C242 1.325 . S
N245 N244 1.365 1_455 S
N245 Cu400 1.924 . S
H246 C249 0.980 . S
H247 C249 0.980 . S
H248 C249 0.980 . S
C249 C241 1.481 . S
C249 H246 0.980 . S
C249 H247 0.980 . S
C249 H248 0.980 . S
H250 C253 0.978 . S
H251 C253 0.978 . S
H252 C253 0.983 . S
C253 C242 1.503 . S
C253 H250 0.978 . S
C253 H251 0.978 . S
C253 H252 0.983 . S
C254 H408 0.979 . S
C254 H409 0.981 . S
C254 H410 0.981 . S
C254 O444 1.438 . S
C255 H411 0.980 . S
C255 H412 0.979 . S
C255 H413 0.980 . S
C255 O445 1.533 . S
C256 N257 1.338 . S
C256 C259 1.388 . S
C256 C264 1.503 . S
N257 C256 1.338 . S
N257 N258 1.361 . S
N257 Cu398 1.924 . S
N258 N257 1.361 . S
N258 C260 1.348 . S
N258 Cu399 1.964 . S
C259 C256 1.388 . S
C259 C260 1.396 . S
C260 N258 1.348 . S
C260 C259 1.396 . S
C260 C268 1.504 . S
H261 C264 0.979 . S
H262 C264 0.979 . S
H263 C264 0.979 . S
C264 C256 1.503 . S
C264 H261 0.979 . S
C264 H262 0.979 . S
C264 H263 0.979 . S
H265 C268 0.981 . S
H266 C268 0.980 1_455 S
H267 C268 0.979 . S
C268 C260 1.504 . S
C268 H265 0.981 . S
C268 H266 0.980 1_655 S
C268 H267 0.979 . S
C269 N271 1.356 . S
C269 C273 1.402 . S
C269 C277 1.481 . S
C270 N272 1.325 . S
C270 C273 1.400 . S
C270 C278 1.503 . S
N271 C269 1.356 . S
N271 N272 1.365 . S
N271 Cu405 1.941 . S
N272 C270 1.325 . S
N272 N271 1.365 . S
N272 Cu396 1.924 . S
C273 C269 1.402 . S
C273 C270 1.400 . S
H274 C277 0.980 . S
H275 C277 0.980 . S
H276 C277 0.980 . S
C277 C269 1.481 . S
C277 H274 0.980 . S
C277 H275 0.980 . S
C277 H276 0.980 . S
C278 C270 1.503 . S
C278 H279 0.978 . S
C278 H280 0.978 . S
C278 H281 0.983 . S
H279 C278 0.978 . S
H280 C278 0.978 . S
H281 C278 0.983 . S
C282 H414 0.979 . S
C282 H415 0.981 . S
C282 H416 0.981 . S
C282 O446 1.438 . S
C283 H417 0.980 . S
C283 H418 0.979 . S
C283 H419 0.980 . S
C283 O447 1.533 . S
C284 N285 1.338 . S
C284 C286 1.388 . S
C284 C292 1.503 . S
N285 C284 1.338 . S
N285 N287 1.361 . S
N285 Cu400 1.924 . S
C286 C284 1.388 . S
C286 C288 1.396 . S
N287 N285 1.361 . S
N287 C288 1.348 . S
N287 Cu401 1.964 . S
C288 C286 1.396 . S
C288 N287 1.348 . S
C288 C294 1.504 . S
H289 C292 0.979 . S
H290 C292 0.979 . S
H291 C292 0.979 . S
C292 C284 1.503 . S
C292 H289 0.979 . S
C292 H290 0.979 . S
C292 H291 0.979 . S
H293 C294 0.981 . S
C294 C288 1.504 . S
C294 H293 0.981 . S
C294 H295 0.979 . S
C294 H296 0.980 . S
H295 C294 0.979 . S
H296 C294 0.980 . S
C297 N299 1.356 . S
C297 C301 1.402 . S
C297 C303 1.481 . S
C298 N300 1.325 . S
C298 C301 1.400 . S
C298 C308 1.503 . S
N299 C297 1.356 . S
N299 N300 1.365 . S
N299 Cu407 1.941 . S
N300 C298 1.325 . S
N300 N299 1.365 . S
N300 Cu398 1.924 . S
C301 C297 1.402 . S
C301 C298 1.400 . S
H302 C303 0.980 . S
C303 C297 1.481 . S
C303 H302 0.980 . S
C303 H304 0.980 . S
C303 H305 0.980 . S
H304 C303 0.980 . S
H305 C303 0.980 . S
H306 C308 0.978 . S
H307 C308 0.978 . S
C308 C298 1.503 . S
C308 H306 0.978 . S
C308 H307 0.978 . S
C308 H309 0.983 . S
H309 C308 0.983 . S
C310 H420 0.979 . S
C310 H421 0.981 . S
C310 H422 0.981 . S
C310 O448 1.438 . S
C311 H423 0.980 . S
C311 H424 0.979 . S
C311 H425 0.980 1_455 S
C311 O449 1.533 . S
C312 N313 1.338 . S
C312 C314 1.388 . S
C312 C317 1.503 . S
N313 C312 1.338 . S
N313 N316 1.361 . S
N313 Cu402 1.924 . S
C314 C312 1.388 . S
C314 C315 1.396 . S
C315 C314 1.396 . S
C315 N316 1.348 . S
C315 C321 1.504 . S
N316 N313 1.361 . S
N316 C315 1.348 . S
N316 Cu403 1.964 . S
C317 C312 1.503 . S
C317 H318 0.979 . S
C317 H319 0.979 . S
C317 H320 0.979 . S
H318 C317 0.979 . S
H319 C317 0.979 . S
H320 C317 0.979 . S
C321 C315 1.504 . S
C321 H322 0.981 . S
C321 H323 0.980 . S
C321 H324 0.979 . S
H322 C321 0.981 . S
H323 C321 0.980 . S
H324 C321 0.979 . S
C325 C326 1.402 . S
C325 N328 1.356 . S
C325 C333 1.481 . S
C326 C325 1.402 . S
C326 C327 1.400 1_455 S
C327 C326 1.400 1_655 S
C327 N329 1.331 . S
C327 C334 1.503 . S
N328 C325 1.356 . S
N328 N329 1.335 1_455 S
N328 Cu397 1.941 . S
N329 C327 1.331 . S
N329 N328 1.335 1_655 S
N329 Cu406 1.942 . S
H330 C333 0.980 . S
H331 C333 0.980 . S
H332 C333 0.980 . S
C333 C325 1.481 . S
C333 H330 0.980 . S
C333 H331 0.980 . S
C333 H332 0.980 . S
C334 C327 1.503 . S
C334 H335 0.978 . S
C334 H336 0.978 . S
C334 H337 0.983 . S
H335 C334 0.978 . S
H336 C334 0.978 . S
H337 C334 0.983 . S
C338 H426 0.979 . S
C338 H427 0.981 . S
C338 H428 0.981 . S
C338 O450 1.438 . S
C339 H429 0.980 . S
C339 H430 0.979 . S
C339 H431 0.980 . S
C339 O451 1.533 . S
C340 C341 1.388 . S
C340 N343 1.338 . S
C340 C345 1.503 . S
C341 C340 1.388 . S
C341 C342 1.396 . S
C342 C341 1.396 . S
C342 N344 1.348 . S
C342 C349 1.504 . S
N343 C340 1.338 . S
N343 N344 1.361 . S
N343 Cu404 1.924 . S
N344 C342 1.348 . S
N344 N343 1.361 . S
N344 Cu405 1.964 . S
C345 C340 1.503 . S
C345 H346 0.979 . S
C345 H347 0.979 . S
C345 H348 0.979 . S
H346 C345 0.979 . S
H347 C345 0.979 . S
H348 C345 0.979 . S
C349 C342 1.504 . S
C349 H350 0.981 . S
C349 H351 0.980 1_455 S
C349 H352 0.979 . S
H350 C349 0.981 . S
H351 C349 0.980 1_655 S
H352 C349 0.979 . S
C353 C354 1.402 . S
C353 N356 1.356 . S
C353 C358 1.481 . S
C354 C353 1.402 . S
C354 C355 1.400 . S
C355 C354 1.400 . S
C355 N357 1.325 . S
C355 C362 1.503 . S
N356 C353 1.356 . S
N356 N357 1.365 . S
N356 Cu399 1.941 . S
N357 C355 1.325 . S
N357 N356 1.365 . S
N357 Cu402 1.924 . S
C358 C353 1.481 . S
C358 H359 0.980 . S
C358 H360 0.980 . S
C358 H361 0.980 . S
H359 C358 0.980 . S
H360 C358 0.980 . S
H361 C358 0.980 . S
C362 C355 1.503 . S
C362 H363 0.978 . S
C362 H364 0.978 . S
C362 H365 0.983 . S
H363 C362 0.978 . S
H364 C362 0.978 . S
H365 C362 0.983 . S
C366 H432 0.979 . S
C366 H433 0.981 . S
C366 H434 0.981 . S
C366 O452 1.438 . S
C367 H435 0.980 . S
C367 H436 0.979 . S
C367 H437 0.980 . S
C367 O453 1.533 . S
C368 N369 1.338 . S
C368 C371 1.388 . S
C368 C376 1.503 . S
N369 C368 1.338 . S
N369 N370 1.361 . S
N369 Cu406 1.924 . S
N370 N369 1.361 . S
N370 C372 1.348 . S
N370 Cu407 1.964 . S
C371 C368 1.388 . S
C371 C372 1.396 . S
C372 N370 1.348 . S
C372 C371 1.396 . S
C372 C380 1.504 . S
H373 C376 0.979 . S
H374 C376 0.979 . S
H375 C376 0.979 . S
C376 C368 1.503 . S
C376 H373 0.979 . S
C376 H374 0.979 . S
C376 H375 0.979 . S
H377 C380 0.981 . S
H378 C380 0.980 . S
H379 C380 0.979 . S
C380 C372 1.504 . S
C380 H377 0.981 . S
C380 H378 0.980 . S
C380 H379 0.979 . S
C381 N382 1.356 . S
C381 C384 1.402 . S
C381 C386 1.481 . S
N382 C381 1.356 . S
N382 N383 1.365 . S
N382 Cu401 1.941 . S
N383 N382 1.365 . S
N383 C385 1.325 . S
N383 Cu404 1.924 . S
C384 C381 1.402 . S
C384 C385 1.400 . S
C385 N383 1.325 . S
C385 C384 1.400 . S
C385 C390 1.503 . S
C386 C381 1.481 . S
C386 H387 0.980 . S
C386 H388 0.980 . S
C386 H389 0.980 . S
H387 C386 0.980 . S
H388 C386 0.980 . S
H389 C386 0.980 . S
C390 C385 1.503 . S
C390 H391 0.978 . S
C390 H392 0.978 . S
C390 H393 0.983 . S
H391 C390 0.978 . S
H392 C390 0.978 . S
H393 C390 0.983 . S
C394 H438 0.979 . S
C394 H439 0.981 . S
C394 H440 0.981 . S
C394 O454 1.438 . S
C395 H441 0.980 . S
C395 H442 0.979 . S
C395 H443 0.980 1_655 S
C395 O455 1.533 . S
Cu396 N231 1.924 . S
Cu396 N272 1.924 . S
Cu396 O444 1.923 . S
Cu396 O445 1.930 . S
Cu397 N232 1.964 . S
Cu397 N328 1.941 . S
Cu397 O444 1.905 . S
Cu397 O455 1.920 1_455 S
Cu398 N257 1.924 . S
Cu398 N300 1.924 . S
Cu398 O446 1.923 . S
Cu398 O447 1.930 . S
Cu399 N258 1.964 . S
Cu399 N356 1.941 . S
Cu399 O446 1.905 . S
Cu399 O451 1.920 . S
Cu400 N245 1.924 . S
Cu400 N285 1.924 . S
Cu400 O448 1.923 . S
Cu400 O449 1.930 . S
Cu401 N287 1.964 . S
Cu401 N382 1.941 . S
Cu401 O448 1.905 . S
Cu401 O453 1.920 . S
Cu402 N313 1.924 . S
Cu402 N357 1.924 . S
Cu402 O450 1.923 . S
Cu402 O451 1.930 . S
Cu403 N244 1.941 . S
Cu403 N316 1.964 . S
Cu403 O449 1.920 1_655 S
Cu403 O450 1.905 . S
Cu404 N343 1.924 . S
Cu404 N383 1.924 . S
Cu404 O452 1.923 . S
Cu404 O453 1.930 . S
Cu405 N271 1.941 . S
Cu405 N344 1.964 . S
Cu405 O445 1.920 . S
Cu405 O452 1.905 . S
Cu406 N329 1.942 . S
Cu406 N369 1.924 . S
Cu406 O454 1.923 . S
Cu406 O455 1.930 . S
Cu407 N299 1.941 . S
Cu407 N370 1.964 . S
Cu407 O447 1.920 . S
Cu407 O454 1.905 . S
H408 C254 0.979 . S
H409 C254 0.981 . S
H410 C254 0.981 . S
H411 C255 0.980 . S
H412 C255 0.979 . S
H413 C255 0.980 . S
H414 C282 0.979 . S
H415 C282 0.981 . S
H416 C282 0.981 . S
H417 C283 0.980 . S
H418 C283 0.979 . S
H419 C283 0.980 . S
H420 C310 0.979 . S
H421 C310 0.981 . S
H422 C310 0.981 . S
H423 C311 0.980 . S
H424 C311 0.979 . S
H425 C311 0.980 1_655 S
H426 C338 0.979 . S
H427 C338 0.981 . S
H428 C338 0.981 . S
H429 C339 0.980 . S
H430 C339 0.979 . S
H431 C339 0.980 . S
H432 C366 0.979 . S
H433 C366 0.981 . S
H434 C366 0.981 . S
H435 C367 0.980 . S
H436 C367 0.979 . S
H437 C367 0.980 . S
H438 C394 0.979 . S
H439 C394 0.981 . S
H440 C394 0.981 . S
H441 C395 0.980 . S
H442 C395 0.979 . S
H443 C395 0.980 1_455 S
O444 C254 1.438 . S
O444 Cu396 1.923 . S
O444 Cu397 1.905 . S
O445 C255 1.533 . S
O445 Cu396 1.930 . S
O445 Cu405 1.920 . S
O446 C282 1.438 . S
O446 Cu398 1.923 . S
O446 Cu399 1.905 . S
O447 C283 1.533 . S
O447 Cu398 1.930 . S
O447 Cu407 1.920 . S
O448 C310 1.438 . S
O448 Cu400 1.923 . S
O448 Cu401 1.905 . S
O449 C311 1.533 . S
O449 Cu400 1.930 . S
O449 Cu403 1.920 1_455 S
O450 C338 1.438 . S
O450 Cu402 1.923 . S
O450 Cu403 1.905 . S
O451 C339 1.533 . S
O451 Cu399 1.920 . S
O451 Cu402 1.930 . S
O452 C366 1.438 . S
O452 Cu404 1.923 . S
O452 Cu405 1.905 . S
O453 C367 1.533 . S
O453 Cu401 1.920 . S
O453 Cu404 1.930 . S
O454 C394 1.438 . S
O454 Cu406 1.923 . S
O454 Cu407 1.905 . S
O455 C395 1.533 . S
O455 Cu397 1.920 1_655 S
O455 Cu406 1.930 . S
C456 C457 1.388 . S
C456 N459 1.338 . S
C456 C461 1.503 . S
C457 C456 1.388 . S
C457 C458 1.396 . S
C458 C457 1.396 . S
C458 N460 1.348 . S
C458 C465 1.504 . S
N459 C456 1.338 . S
N459 N460 1.361 . S
N459 Cu624 1.924 . S
N460 C458 1.348 . S
N460 N459 1.361 . S
N460 Cu625 1.964 . S
C461 C456 1.503 . S
C461 H462 0.979 . S
C461 H463 0.979 . S
C461 H464 0.979 . S
H462 C461 0.979 . S
H463 C461 0.979 . S
H464 C461 0.979 . S
C465 C458 1.504 . S
C465 H466 0.981 . S
C465 H467 0.980 1_565 S
C465 H468 0.979 . S
H466 C465 0.981 . S
H467 C465 0.980 1_545 S
H468 C465 0.979 . S
C469 C471 1.402 . S
C469 N472 1.356 . S
C469 C477 1.481 . S
C470 C471 1.400 . S
C470 N473 1.325 . S
C470 C481 1.503 . S
C471 C469 1.402 . S
C471 C470 1.400 . S
N472 C469 1.356 . S
N472 N473 1.365 . S
N472 Cu631 1.941 . S
N473 C470 1.325 . S
N473 N472 1.365 . S
N473 Cu628 1.924 . S
H474 C477 0.980 . S
H475 C477 0.980 . S
H476 C477 0.980 . S
C477 C469 1.481 . S
C477 H474 0.980 . S
C477 H475 0.980 . S
C477 H476 0.980 . S
H478 C481 0.978 . S
H479 C481 0.978 . S
H480 C481 0.983 . S
C481 C470 1.503 . S
C481 H478 0.978 . S
C481 H479 0.978 . S
C481 H480 0.983 . S
C482 H636 0.979 . S
C482 H637 0.981 . S
C482 H638 0.981 . S
C482 O672 1.438 . S
C483 H639 0.980 . S
C483 H640 0.979 . S
C483 H641 0.980 . S
C483 O673 1.533 . S
C484 N485 1.338 . S
C484 C487 1.388 . S
C484 C492 1.503 . S
N485 C484 1.338 . S
N485 N486 1.361 . S
N485 Cu626 1.924 . S
N486 N485 1.361 . S
N486 C488 1.348 . S
N486 Cu627 1.964 . S
C487 C484 1.388 . S
C487 C488 1.396 . S
C488 N486 1.348 . S
C488 C487 1.396 . S
C488 C496 1.504 . S
H489 C492 0.979 . S
H490 C492 0.979 . S
H491 C492 0.979 . S
C492 C484 1.503 . S
C492 H489 0.979 . S
C492 H490 0.979 . S
C492 H491 0.979 . S
H493 C496 0.981 . S
H494 C496 0.980 . S
H495 C496 0.979 . S
C496 C488 1.504 . S
C496 H493 0.981 . S
C496 H494 0.980 . S
C496 H495 0.979 . S
C497 N499 1.356 . S
C497 C501 1.402 . S
C497 C505 1.481 . S
C498 N500 1.325 . S
C498 C501 1.400 . S
C498 C506 1.503 . S
N499 C497 1.356 . S
N499 N500 1.365 . S
N499 Cu633 1.941 . S
N500 C498 1.325 . S
N500 N499 1.365 . S
N500 Cu624 1.924 . S
C501 C497 1.402 . S
C501 C498 1.400 . S
H502 C505 0.980 . S
H503 C505 0.980 . S
H504 C505 0.980 . S
C505 C497 1.481 . S
C505 H502 0.980 . S
C505 H503 0.980 . S
C505 H504 0.980 . S
C506 C498 1.503 . S
C506 H507 0.978 . S
C506 H508 0.978 . S
C506 H509 0.983 . S
H507 C506 0.978 . S
H508 C506 0.978 . S
H509 C506 0.983 . S
C510 H642 0.979 . S
C510 H643 0.981 . S
C510 H644 0.981 . S
C510 O674 1.438 . S
C511 H645 0.980 . S
C511 H646 0.979 . S
C511 H647 0.980 1_545 S
C511 O675 1.533 . S
C512 N513 1.338 . S
C512 C514 1.388 . S
C512 C520 1.503 . S
N513 C512 1.338 . S
N513 N515 1.361 . S
N513 Cu628 1.924 . S
C514 C512 1.388 . S
C514 C516 1.396 . S
N515 N513 1.361 . S
N515 C516 1.348 . S
N515 Cu629 1.964 . S
C516 C514 1.396 . S
C516 N515 1.348 . S
C516 C522 1.504 . S
H517 C520 0.979 . S
H518 C520 0.979 . S
H519 C520 0.979 . S
C520 C512 1.503 . S
C520 H517 0.979 . S
C520 H518 0.979 . S
C520 H519 0.979 . S
H521 C522 0.981 . S
C522 C516 1.504 . S
C522 H521 0.981 . S
C522 H523 0.979 . S
C522 H524 0.980 . S
H523 C522 0.979 . S
H524 C522 0.980 . S
C525 N527 1.356 . S
C525 C529 1.402 . S
C525 C531 1.481 . S
C526 N528 1.325 . S
C526 C529 1.400 1_545 S
C526 C536 1.503 . S
N527 C525 1.356 . S
N527 N528 1.365 1_565 S
N527 Cu635 1.941 . S
N528 C526 1.325 . S
N528 N527 1.365 1_545 S
N528 Cu626 1.924 . S
C529 C525 1.402 . S
C529 C526 1.400 1_565 S
H530 C531 0.980 . S
C531 C525 1.481 . S
C531 H530 0.980 . S
C531 H532 0.980 . S
C531 H533 0.980 . S
H532 C531 0.980 . S
H533 C531 0.980 . S
H534 C536 0.978 . S
H535 C536 0.978 . S
C536 C526 1.503 . S
C536 H534 0.978 . S
C536 H535 0.978 . S
C536 H537 0.983 . S
H537 C536 0.983 . S
C538 H648 0.979 . S
C538 H649 0.981 . S
C538 H650 0.981 . S
C538 O676 1.438 . S
C539 H651 0.980 . S
C539 H652 0.979 . S
C539 H653 0.980 . S
C539 O677 1.533 . S
C540 N541 1.338 . S
C540 C542 1.388 . S
C540 C545 1.503 . S
N541 C540 1.338 . S
N541 N544 1.361 . S
N541 Cu630 1.924 . S
C542 C540 1.388 . S
C542 C543 1.396 . S
C543 C542 1.396 . S
C543 N544 1.348 . S
C543 C549 1.504 . S
N544 N541 1.361 . S
N544 C543 1.348 . S
N544 Cu631 1.964 . S
C545 C540 1.503 . S
C545 H546 0.979 . S
C545 H547 0.979 . S
C545 H548 0.979 . S
H546 C545 0.979 . S
H547 C545 0.979 . S
H548 C545 0.979 . S
C549 C543 1.504 . S
C549 H550 0.981 . S
C549 H551 0.980 1_545 S
C549 H552 0.979 . S
H550 C549 0.981 . S
H551 C549 0.980 1_565 S
H552 C549 0.979 . S
C553 C554 1.402 . S
C553 N556 1.356 . S
C553 C561 1.481 . S
C554 C553 1.402 . S
C554 C555 1.400 . S
C555 C554 1.400 . S
C555 N557 1.325 . S
C555 C562 1.503 . S
N556 C553 1.356 . S
N556 N557 1.365 . S
N556 Cu625 1.941 . S
N557 C555 1.325 . S
N557 N556 1.365 . S
N557 Cu634 1.924 . S
H558 C561 0.980 . S
H559 C561 0.980 . S
H560 C561 0.980 . S
C561 C553 1.481 . S
C561 H558 0.980 . S
C561 H559 0.980 . S
C561 H560 0.980 . S
C562 C555 1.503 . S
C562 H563 0.978 . S
C562 H564 0.978 . S
C562 H565 0.983 . S
H563 C562 0.978 . S
H564 C562 0.978 . S
H565 C562 0.983 . S
C566 H654 0.979 . S
C566 H655 0.981 . S
C566 H656 0.981 . S
C566 O678 1.438 . S
C567 H657 0.980 . S
C567 H658 0.979 . S
C567 H659 0.980 . S
C567 O679 1.533 . S
C568 C569 1.388 . S
C568 N571 1.338 . S
C568 C573 1.503 . S
C569 C568 1.388 . S
C569 C570 1.396 . S
C570 C569 1.396 . S
C570 N572 1.348 . S
C570 C577 1.504 . S
N571 C568 1.338 . S
N571 N572 1.361 . S
N571 Cu632 1.924 . S
N572 C570 1.348 . S
N572 N571 1.361 . S
N572 Cu633 1.964 . S
C573 C568 1.503 . S
C573 H574 0.979 . S
C573 H575 0.979 . S
C573 H576 0.979 . S
H574 C573 0.979 . S
H575 C573 0.979 . S
H576 C573 0.979 . S
C577 C570 1.504 . S
C577 H578 0.981 . S
C577 H579 0.980 . S
C577 H580 0.979 . S
H578 C577 0.981 . S
H579 C577 0.980 . S
H580 C577 0.979 . S
C581 C582 1.402 . S
C581 N584 1.356 . S
C581 C586 1.481 . S
C582 C581 1.402 . S
C582 C583 1.400 . S
C583 C582 1.400 . S
C583 N585 1.325 . S
C583 C590 1.503 . S
N584 C581 1.356 . S
N584 N585 1.365 . S
N584 Cu627 1.941 . S
N585 C583 1.325 . S
N585 N584 1.365 . S
N585 Cu630 1.924 . S
C586 C581 1.481 . S
C586 H587 0.980 . S
C586 H588 0.980 . S
C586 H589 0.980 . S
H587 C586 0.980 . S
H588 C586 0.980 . S
H589 C586 0.980 . S
C590 C583 1.503 . S
C590 H591 0.978 . S
C590 H592 0.978 . S
C590 H593 0.983 . S
H591 C590 0.978 . S
H592 C590 0.978 . S
H593 C590 0.983 . S
C594 H660 0.979 . S
C594 H661 0.981 . S
C594 H662 0.981 . S
C594 O680 1.438 . S
C595 H663 0.980 . S
C595 H664 0.979 . S
C595 H665 0.980 1_565 S
C595 O681 1.533 . S
C596 N597 1.338 . S
C596 C599 1.388 . S
C596 C604 1.503 . S
N597 C596 1.338 . S
N597 N598 1.361 . S
N597 Cu634 1.924 . S
N598 N597 1.361 . S
N598 C600 1.348 . S
N598 Cu635 1.964 . S
C599 C596 1.388 . S
C599 C600 1.396 . S
C600 N598 1.348 . S
C600 C599 1.396 . S
C600 C608 1.504 . S
H601 C604 0.979 . S
H602 C604 0.979 . S
H603 C604 0.979 . S
C604 C596 1.503 . S
C604 H601 0.979 . S
C604 H602 0.979 . S
C604 H603 0.979 . S
H605 C608 0.981 . S
H606 C608 0.980 . S
H607 C608 0.979 . S
C608 C600 1.504 . S
C608 H605 0.981 . S
C608 H606 0.980 . S
C608 H607 0.979 . S
C609 N610 1.356 . S
C609 C612 1.402 . S
C609 C614 1.481 . S
N610 C609 1.356 . S
N610 N611 1.335 1_545 S
N610 Cu629 1.941 . S
N611 N610 1.335 1_565 S
N611 C613 1.331 . S
N611 Cu632 1.942 . S
C612 C609 1.402 . S
C612 C613 1.400 1_545 S
C613 N611 1.331 . S
C613 C612 1.400 1_565 S
C613 C618 1.503 . S
C614 C609 1.481 . S
C614 H615 0.980 . S
C614 H616 0.980 . S
C614 H617 0.980 . S
H615 C614 0.980 . S
H616 C614 0.980 . S
H617 C614 0.980 . S
C618 C613 1.503 . S
C618 H619 0.978 . S
C618 H620 0.978 . S
C618 H621 0.983 . S
H619 C618 0.978 . S
H620 C618 0.978 . S
H621 C618 0.983 . S
C622 H666 0.979 . S
C622 H667 0.981 . S
C622 H668 0.981 . S
C622 O682 1.438 . S
C623 H669 0.980 . S
C623 H670 0.979 . S
C623 H671 0.980 . S
C623 O683 1.533 . S
Cu624 N459 1.924 . S
Cu624 N500 1.924 . S
Cu624 O672 1.923 . S
Cu624 O673 1.930 . S
Cu625 N460 1.964 . S
Cu625 N556 1.941 . S
Cu625 O672 1.905 . S
Cu625 O683 1.920 . S
Cu626 N485 1.924 . S
Cu626 N528 1.924 . S
Cu626 O674 1.923 . S
Cu626 O675 1.930 . S
Cu627 N486 1.964 . S
Cu627 N584 1.941 . S
Cu627 O674 1.905 . S
Cu627 O679 1.920 . S
Cu628 N473 1.924 . S
Cu628 N513 1.924 . S
Cu628 O676 1.923 . S
Cu628 O677 1.930 . S
Cu629 N515 1.964 . S
Cu629 N610 1.941 . S
Cu629 O676 1.905 . S
Cu629 O681 1.920 1_545 S
Cu630 N541 1.924 . S
Cu630 N585 1.924 . S
Cu630 O678 1.923 . S
Cu630 O679 1.930 . S
Cu631 N472 1.941 . S
Cu631 N544 1.964 . S
Cu631 O677 1.920 . S
Cu631 O678 1.905 . S
Cu632 N571 1.924 . S
Cu632 N611 1.942 . S
Cu632 O680 1.923 . S
Cu632 O681 1.930 . S
Cu633 N499 1.941 . S
Cu633 N572 1.964 . S
Cu633 O673 1.920 . S
Cu633 O680 1.905 . S
Cu634 N557 1.924 . S
Cu634 N597 1.924 . S
Cu634 O682 1.923 . S
Cu634 O683 1.930 . S
Cu635 N527 1.941 . S
Cu635 N598 1.964 . S
Cu635 O675 1.920 1_565 S
Cu635 O682 1.905 . S
H636 C482 0.979 . S
H637 C482 0.981 . S
H638 C482 0.981 . S
H639 C483 0.980 . S
H640 C483 0.979 . S
H641 C483 0.980 . S
H642 C510 0.979 . S
H643 C510 0.981 . S
H644 C510 0.981 . S
H645 C511 0.980 . S
H646 C511 0.979 . S
H647 C511 0.980 1_565 S
H648 C538 0.979 . S
H649 C538 0.981 . S
H650 C538 0.981 . S
H651 C539 0.980 . S
H652 C539 0.979 . S
H653 C539 0.980 . S
H654 C566 0.979 . S
H655 C566 0.981 . S
H656 C566 0.981 . S
H657 C567 0.980 . S
H658 C567 0.979 . S
H659 C567 0.980 . S
H660 C594 0.979 . S
H661 C594 0.981 . S
H662 C594 0.981 . S
H663 C595 0.980 . S
H664 C595 0.979 . S
H665 C595 0.980 1_545 S
H666 C622 0.979 . S
H667 C622 0.981 . S
H668 C622 0.981 . S
H669 C623 0.980 . S
H670 C623 0.979 . S
H671 C623 0.980 . S
O672 C482 1.438 . S
O672 Cu624 1.923 . S
O672 Cu625 1.905 . S
O673 C483 1.533 . S
O673 Cu624 1.930 . S
O673 Cu633 1.920 . S
O674 C510 1.438 . S
O674 Cu626 1.923 . S
O674 Cu627 1.905 . S
O675 C511 1.533 . S
O675 Cu626 1.930 . S
O675 Cu635 1.920 1_545 S
O676 C538 1.438 . S
O676 Cu628 1.923 . S
O676 Cu629 1.905 . S
O677 C539 1.533 . S
O677 Cu628 1.930 . S
O677 Cu631 1.920 . S
O678 C566 1.438 . S
O678 Cu630 1.923 . S
O678 Cu631 1.905 . S
O679 C567 1.533 . S
O679 Cu627 1.920 . S
O679 Cu630 1.930 . S
O680 C594 1.438 . S
O680 Cu632 1.923 . S
O680 Cu633 1.905 . S
O681 C595 1.533 . S
O681 Cu629 1.920 1_565 S
O681 Cu632 1.930 . S
O682 C622 1.438 . S
O682 Cu634 1.923 . S
O682 Cu635 1.905 . S
O683 C623 1.533 . S
O683 Cu625 1.920 . S
O683 Cu634 1.930 . S
C684 C685 1.388 . S
C684 N687 1.338 . S
C684 C689 1.503 . S
C685 C684 1.388 . S
C685 C686 1.396 . S
C686 C685 1.396 . S
C686 N688 1.348 . S
C686 C693 1.504 . S
N687 C684 1.338 . S
N687 N688 1.361 . S
N687 Cu852 1.924 . S
N688 C686 1.348 . S
N688 N687 1.361 . S
N688 Cu853 1.964 . S
C689 C684 1.503 . S
C689 H690 0.979 . S
C689 H691 0.979 . S
C689 H692 0.979 . S
H690 C689 0.979 . S
H691 C689 0.979 . S
H692 C689 0.979 . S
C693 C686 1.504 . S
C693 H694 0.981 . S
C693 H695 0.980 . S
C693 H696 0.979 . S
H694 C693 0.981 . S
H695 C693 0.980 . S
H696 C693 0.979 . S
C697 C699 1.402 . S
C697 N700 1.356 . S
C697 C705 1.481 . S
C698 C699 1.400 . S
C698 N701 1.325 . S
C698 C709 1.503 . S
C699 C697 1.402 . S
C699 C698 1.400 . S
N700 C697 1.356 . S
N700 N701 1.365 . S
N700 Cu859 1.941 . S
N701 C698 1.325 . S
N701 N700 1.365 . S
N701 Cu856 1.924 . S
H702 C705 0.980 . S
H703 C705 0.980 . S
H704 C705 0.980 . S
C705 C697 1.481 . S
C705 H702 0.980 . S
C705 H703 0.980 . S
C705 H704 0.980 . S
H706 C709 0.978 . S
H707 C709 0.978 . S
H708 C709 0.983 . S
C709 C698 1.503 . S
C709 H706 0.978 . S
C709 H707 0.978 . S
C709 H708 0.983 . S
C710 H864 0.979 . S
C710 H865 0.981 . S
C710 H866 0.981 . S
C710 O900 1.438 . S
C711 H867 0.980 . S
C711 H868 0.979 . S
C711 H869 0.980 1_554 S
C711 O901 1.533 . S
C712 N713 1.338 . S
C712 C715 1.388 . S
C712 C720 1.503 . S
N713 C712 1.338 . S
N713 N714 1.361 . S
N713 Cu854 1.924 . S
N714 N713 1.361 . S
N714 C716 1.348 . S
N714 Cu855 1.964 . S
C715 C712 1.388 . S
C715 C716 1.396 . S
C716 N714 1.348 . S
C716 C715 1.396 . S
C716 C724 1.504 . S
H717 C720 0.979 . S
H718 C720 0.979 . S
H719 C720 0.979 . S
C720 C712 1.503 . S
C720 H717 0.979 . S
C720 H718 0.979 . S
C720 H719 0.979 . S
H721 C724 0.981 . S
H722 C724 0.980 . S
H723 C724 0.979 . S
C724 C716 1.504 . S
C724 H721 0.981 . S
C724 H722 0.980 . S
C724 H723 0.979 . S
C725 N727 1.356 . S
C725 C729 1.402 . S
C725 C733 1.481 . S
C726 N728 1.325 . S
C726 C729 1.400 1_554 S
C726 C734 1.503 . S
N727 C725 1.356 . S
N727 N728 1.365 1_556 S
N727 Cu861 1.941 . S
N728 C726 1.325 . S
N728 N727 1.365 1_554 S
N728 Cu852 1.924 . S
C729 C725 1.402 . S
C729 C726 1.400 1_556 S
H730 C733 0.980 . S
H731 C733 0.980 . S
H732 C733 0.980 . S
C733 C725 1.481 . S
C733 H730 0.980 . S
C733 H731 0.980 . S
C733 H732 0.980 . S
C734 C726 1.503 . S
C734 H735 0.978 . S
C734 H736 0.978 . S
C734 H737 0.983 . S
H735 C734 0.978 . S
H736 C734 0.978 . S
H737 C734 0.983 . S
C738 H870 0.979 . S
C738 H871 0.981 . S
C738 H872 0.981 . S
C738 O902 1.438 . S
C739 H873 0.980 . S
C739 H874 0.979 . S
C739 H875 0.980 . S
C739 O903 1.533 . S
C740 N741 1.338 . S
C740 C742 1.388 . S
C740 C748 1.503 . S
N741 C740 1.338 . S
N741 N743 1.361 . S
N741 Cu856 1.924 . S
C742 C740 1.388 . S
C742 C744 1.396 . S
N743 N741 1.361 . S
N743 C744 1.348 . S
N743 Cu857 1.964 . S
C744 C742 1.396 . S
C744 N743 1.348 . S
C744 C750 1.504 . S
H745 C748 0.979 . S
H746 C748 0.979 . S
H747 C748 0.979 . S
C748 C740 1.503 . S
C748 H745 0.979 . S
C748 H746 0.979 . S
C748 H747 0.979 . S
H749 C750 0.981 . S
C750 C744 1.504 . S
C750 H749 0.981 . S
C750 H751 0.979 . S
C750 H752 0.980 1_556 S
H751 C750 0.979 . S
H752 C750 0.980 1_554 S
C753 N755 1.356 . S
C753 C757 1.402 . S
C753 C759 1.481 . S
C754 N756 1.325 . S
C754 C757 1.400 . S
C754 C764 1.503 . S
N755 C753 1.356 . S
N755 N756 1.365 . S
N755 Cu863 1.941 . S
N756 C754 1.325 . S
N756 N755 1.365 . S
N756 Cu854 1.924 . S
C757 C753 1.402 . S
C757 C754 1.400 . S
H758 C759 0.980 . S
C759 C753 1.481 . S
C759 H758 0.980 . S
C759 H760 0.980 . S
C759 H761 0.980 . S
H760 C759 0.980 . S
H761 C759 0.980 . S
H762 C764 0.978 . S
H763 C764 0.978 . S
C764 C754 1.503 . S
C764 H762 0.978 . S
C764 H763 0.978 . S
C764 H765 0.983 . S
H765 C764 0.983 . S
C766 H876 0.979 . S
C766 H877 0.981 . S
C766 H878 0.981 . S
C766 O904 1.438 . S
C767 H879 0.980 . S
C767 H880 0.979 . S
C767 H881 0.980 . S
C767 O905 1.533 . S
C768 N769 1.338 . S
C768 C770 1.388 . S
C768 C773 1.503 . S
N769 C768 1.338 . S
N769 N772 1.361 . S
N769 Cu858 1.924 . S
C770 C768 1.388 . S
C770 C771 1.396 . S
C771 C770 1.396 . S
C771 N772 1.348 . S
C771 C777 1.504 . S
N772 N769 1.361 . S
N772 C771 1.348 . S
N772 Cu859 1.964 . S
C773 C768 1.503 . S
C773 H774 0.979 . S
C773 H775 0.979 . S
C773 H776 0.979 . S
H774 C773 0.979 . S
H775 C773 0.979 . S
H776 C773 0.979 . S
C777 C771 1.504 . S
C777 H778 0.981 . S
C777 H779 0.980 . S
C777 H780 0.979 . S
H778 C777 0.981 . S
H779 C777 0.980 . S
H780 C777 0.979 . S
C781 C782 1.402 . S
C781 N784 1.356 . S
C781 C789 1.481 . S
C782 C781 1.402 . S
C782 C783 1.400 . S
C783 C782 1.400 . S
C783 N785 1.325 . S
C783 C790 1.503 . S
N784 C781 1.356 . S
N784 N785 1.365 . S
N784 Cu853 1.941 . S
N785 C783 1.325 . S
N785 N784 1.365 . S
N785 Cu862 1.924 . S
H786 C789 0.980 . S
H787 C789 0.980 . S
H788 C789 0.980 . S
C789 C781 1.481 . S
C789 H786 0.980 . S
C789 H787 0.980 . S
C789 H788 0.980 . S
C790 C783 1.503 . S
C790 H791 0.978 . S
C790 H792 0.978 . S
C790 H793 0.983 . S
H791 C790 0.978 . S
H792 C790 0.978 . S
H793 C790 0.983 . S
C794 H882 0.979 . S
C794 H883 0.981 . S
C794 H884 0.981 . S
C794 O906 1.438 . S
C795 H885 0.980 . S
C795 H886 0.979 . S
C795 H887 0.980 1_556 S
C795 O907 1.533 . S
C796 C797 1.388 . S
C796 N799 1.338 . S
C796 C801 1.503 . S
C797 C796 1.388 . S
C797 C798 1.396 . S
C798 C797 1.396 . S
C798 N800 1.348 . S
C798 C805 1.504 . S
N799 C796 1.338 . S
N799 N800 1.361 . S
N799 Cu860 1.924 . S
N800 C798 1.348 . S
N800 N799 1.361 . S
N800 Cu861 1.964 . S
C801 C796 1.503 . S
C801 H802 0.979 . S
C801 H803 0.979 . S
C801 H804 0.979 . S
H802 C801 0.979 . S
H803 C801 0.979 . S
H804 C801 0.979 . S
C805 C798 1.504 . S
C805 H806 0.981 . S
C805 H807 0.980 . S
C805 H808 0.979 . S
H806 C805 0.981 . S
H807 C805 0.980 . S
H808 C805 0.979 . S
C809 C810 1.402 . S
C809 N812 1.356 . S
C809 C814 1.481 . S
C810 C809 1.402 . S
C810 C811 1.400 1_554 S
C811 C810 1.400 1_556 S
C811 N813 1.331 . S
C811 C818 1.503 . S
N812 C809 1.356 . S
N812 N813 1.335 1_554 S
N812 Cu855 1.941 . S
N813 C811 1.331 . S
N813 N812 1.335 1_556 S
N813 Cu858 1.942 . S
C814 C809 1.481 . S
C814 H815 0.980 . S
C814 H816 0.980 . S
C814 H817 0.980 . S
H815 C814 0.980 . S
H816 C814 0.980 . S
H817 C814 0.980 . S
C818 C811 1.503 . S
C818 H819 0.978 . S
C818 H820 0.978 . S
C818 H821 0.983 . S
H819 C818 0.978 . S
H820 C818 0.978 . S
H821 C818 0.983 . S
C822 H888 0.979 . S
C822 H889 0.981 . S
C822 H890 0.981 . S
C822 O908 1.438 . S
C823 H891 0.980 . S
C823 H892 0.979 . S
C823 H893 0.980 . S
C823 O909 1.533 . S
C824 N825 1.338 . S
C824 C827 1.388 . S
C824 C832 1.503 . S
N825 C824 1.338 . S
N825 N826 1.361 . S
N825 Cu862 1.924 . S
N826 N825 1.361 . S
N826 C828 1.348 . S
N826 Cu863 1.964 . S
C827 C824 1.388 . S
C827 C828 1.396 . S
C828 N826 1.348 . S
C828 C827 1.396 . S
C828 C836 1.504 . S
H829 C832 0.979 . S
H830 C832 0.979 . S
H831 C832 0.979 . S
C832 C824 1.503 . S
C832 H829 0.979 . S
C832 H830 0.979 . S
C832 H831 0.979 . S
H833 C836 0.981 . S
H834 C836 0.980 1_556 S
H835 C836 0.979 . S
C836 C828 1.504 . S
C836 H833 0.981 . S
C836 H834 0.980 1_554 S
C836 H835 0.979 . S
C837 N838 1.356 . S
C837 C840 1.402 . S
C837 C842 1.481 . S
N838 C837 1.356 . S
N838 N839 1.365 . S
N838 Cu857 1.941 . S
N839 N838 1.365 . S
N839 C841 1.325 . S
N839 Cu860 1.924 . S
C840 C837 1.402 . S
C840 C841 1.400 . S
C841 N839 1.325 . S
C841 C840 1.400 . S
C841 C846 1.503 . S
C842 C837 1.481 . S
C842 H843 0.980 . S
C842 H844 0.980 . S
C842 H845 0.980 . S
H843 C842 0.980 . S
H844 C842 0.980 . S
H845 C842 0.980 . S
C846 C841 1.503 . S
C846 H847 0.978 . S
C846 H848 0.978 . S
C846 H849 0.983 . S
H847 C846 0.978 . S
H848 C846 0.978 . S
H849 C846 0.983 . S
C850 H894 0.979 . S
C850 H895 0.981 . S
C850 H896 0.981 . S
C850 O910 1.438 . S
C851 H897 0.980 . S
C851 H898 0.979 . S
C851 H899 0.980 . S
C851 O911 1.533 . S
Cu852 N687 1.924 . S
Cu852 N728 1.924 . S
Cu852 O900 1.923 . S
Cu852 O901 1.930 . S
Cu853 N688 1.964 . S
Cu853 N784 1.941 . S
Cu853 O900 1.905 . S
Cu853 O911 1.920 . S
Cu854 N713 1.924 . S
Cu854 N756 1.924 . S
Cu854 O902 1.923 . S
Cu854 O903 1.930 . S
Cu855 N714 1.964 . S
Cu855 N812 1.941 . S
Cu855 O902 1.905 . S
Cu855 O907 1.920 1_554 S
Cu856 N701 1.924 . S
Cu856 N741 1.924 . S
Cu856 O904 1.923 . S
Cu856 O905 1.930 . S
Cu857 N743 1.964 . S
Cu857 N838 1.941 . S
Cu857 O904 1.905 . S
Cu857 O909 1.920 . S
Cu858 N769 1.924 . S
Cu858 N813 1.942 . S
Cu858 O906 1.923 . S
Cu858 O907 1.930 . S
Cu859 N700 1.941 . S
Cu859 N772 1.964 . S
Cu859 O905 1.920 . S
Cu859 O906 1.905 . S
Cu860 N799 1.924 . S
Cu860 N839 1.924 . S
Cu860 O908 1.923 . S
Cu860 O909 1.930 . S
Cu861 N727 1.941 . S
Cu861 N800 1.964 . S
Cu861 O901 1.920 1_556 S
Cu861 O908 1.905 . S
Cu862 N785 1.924 . S
Cu862 N825 1.924 . S
Cu862 O910 1.923 . S
Cu862 O911 1.930 . S
Cu863 N755 1.941 . S
Cu863 N826 1.964 . S
Cu863 O903 1.920 . S
Cu863 O910 1.905 . S
H864 C710 0.979 . S
H865 C710 0.981 . S
H866 C710 0.981 . S
H867 C711 0.980 . S
H868 C711 0.979 . S
H869 C711 0.980 1_556 S
H870 C738 0.979 . S
H871 C738 0.981 . S
H872 C738 0.981 . S
H873 C739 0.980 . S
H874 C739 0.979 . S
H875 C739 0.980 . S
H876 C766 0.979 . S
H877 C766 0.981 . S
H878 C766 0.981 . S
H879 C767 0.980 . S
H880 C767 0.979 . S
H881 C767 0.980 . S
H882 C794 0.979 . S
H883 C794 0.981 . S
H884 C794 0.981 . S
H885 C795 0.980 . S
H886 C795 0.979 . S
H887 C795 0.980 1_554 S
H888 C822 0.979 . S
H889 C822 0.981 . S
H890 C822 0.981 . S
H891 C823 0.980 . S
H892 C823 0.979 . S
H893 C823 0.980 . S
H894 C850 0.979 . S
H895 C850 0.981 . S
H896 C850 0.981 . S
H897 C851 0.980 . S
H898 C851 0.979 . S
H899 C851 0.980 . S
O900 C710 1.438 . S
O900 Cu852 1.923 . S
O900 Cu853 1.905 . S
O901 C711 1.533 . S
O901 Cu852 1.930 . S
O901 Cu861 1.920 1_554 S
O902 C738 1.438 . S
O902 Cu854 1.923 . S
O902 Cu855 1.905 . S
O903 C739 1.533 . S
O903 Cu854 1.930 . S
O903 Cu863 1.920 . S
O904 C766 1.438 . S
O904 Cu856 1.923 . S
O904 Cu857 1.905 . S
O905 C767 1.533 . S
O905 Cu856 1.930 . S
O905 Cu859 1.920 . S
O906 C794 1.438 . S
O906 Cu858 1.923 . S
O906 Cu859 1.905 . S
O907 C795 1.533 . S
O907 Cu855 1.920 1_556 S
O907 Cu858 1.930 . S
O908 C822 1.438 . S
O908 Cu860 1.923 . S
O908 Cu861 1.905 . S
O909 C823 1.533 . S
O909 Cu857 1.920 . S
O909 Cu860 1.930 . S
O910 C850 1.438 . S
O910 Cu862 1.923 . S
O910 Cu863 1.905 . S
O911 C851 1.533 . S
O911 Cu853 1.920 . S
O911 Cu862 1.930 . S
H912 C920 0.929 . S
H913 C922 0.930 . S
H914 C924 0.930 . S
H915 C927 0.929 . S
H916 C930 0.930 . S
H917 C932 0.960 . S
H918 C932 0.960 . S
H919 C932 0.960 . S
C920 H912 0.929 . S
C920 C921 1.377 . S
C920 C922 1.384 . S
C921 C920 1.377 . S
C921 C927 1.390 1_655 S
C922 H913 0.930 . S
C922 C920 1.384 . S
C922 C923 1.372 . S
C923 C922 1.372 . S
C923 C924 1.396 1_655 S
C923 C928 1.497 1_655 S
C924 H914 0.930 . S
C924 C923 1.396 1_455 S
C924 C927 1.386 . S
H925 C941 0.930 . S
H926 C942 0.931 . S
C927 H915 0.929 . S
C927 C921 1.390 1_455 S
C927 C924 1.386 . S
C928 C923 1.497 1_455 S
C928 C930 1.403 . S
C928 C931 1.391 1_455 S
H929 C935 0.930 . S
C930 H916 0.930 . S
C930 C928 1.403 . S
C930 C933 1.403 . S
C931 C928 1.391 1_655 S
C931 C932 1.524 . S
C931 C935 1.400 . S
C932 H917 0.960 . S
C932 H918 0.960 . S
C932 H919 0.960 . S
C932 C931 1.524 . S
C933 C930 1.403 . S
C933 C934 1.392 . S
C933 C937 1.495 . S
C934 C933 1.392 . S
C934 C935 1.385 1_455 S
C934 C936 1.478 . S
C935 H929 0.930 . S
C935 C931 1.400 . S
C935 C934 1.385 1_655 S
C936 C934 1.478 . S
C936 C938 1.381 1_455 S
C936 C942 1.383 . S
C937 C933 1.495 . S
C937 H943 0.959 . S
C937 H944 0.961 . S
C937 H945 0.960 . S
C938 C936 1.381 1_655 S
C938 C939 1.394 . S
C938 H946 0.930 . S
C939 C938 1.394 . S
C939 C940 1.383 1_655 S
C939 H947 0.929 . S
C940 C939 1.383 1_455 S
C940 C941 1.377 . S
C941 H925 0.930 . S
C941 C940 1.377 . S
C941 C942 1.379 . S
C942 H926 0.931 . S
C942 C936 1.383 . S
C942 C941 1.379 . S
H943 C937 0.959 . S
H944 C937 0.961 . S
H945 C937 0.960 . S
H946 C938 0.930 . S
H947 C939 0.929 . S
H948 C956 0.929 . S
H949 C958 0.930 . S
H950 C960 0.930 . S
H951 C963 0.929 . S
H952 C966 0.930 . S
H953 C968 0.960 . S
H954 C968 0.960 . S
H955 C968 0.960 . S
C956 H948 0.929 . S
C956 C957 1.377 . S
C956 C958 1.384 . S
C957 C956 1.377 . S
C957 C963 1.390 . S
C958 H949 0.930 . S
C958 C956 1.384 . S
C958 C959 1.372 . S
C959 C958 1.372 . S
C959 C960 1.400 . S
C959 C964 1.490 . S
C960 H950 0.930 . S
C960 C959 1.400 . S
C960 C963 1.386 . S
H961 C977 0.930 . S
H962 C978 0.931 . S
C963 H951 0.929 . S
C963 C957 1.390 . S
C963 C960 1.386 . S
C964 C959 1.490 . S
C964 C966 1.395 . S
C964 C967 1.403 1_565 S
H965 C971 0.930 . S
C966 H952 0.930 . S
C966 C964 1.395 . S
C966 C969 1.403 . S
C967 C964 1.403 1_545 S
C967 C968 1.524 . S
C967 C971 1.400 . S
C968 H953 0.960 . S
C968 H954 0.960 . S
C968 H955 0.960 . S
C968 C967 1.524 . S
C969 C966 1.403 . S
C969 C970 1.392 1_565 S
C969 C973 1.495 . S
C970 C969 1.392 1_545 S
C970 C971 1.385 . S
C970 C972 1.478 . S
C971 H965 0.930 . S
C971 C967 1.400 . S
C971 C970 1.385 . S
C972 C970 1.478 . S
C972 C974 1.381 . S
C972 C978 1.383 . S
C973 C969 1.495 . S
C973 H979 0.959 . S
C973 H980 0.961 . S
C973 H981 0.960 . S
C974 C972 1.381 . S
C974 C975 1.394 . S
C974 H982 0.930 . S
C975 C974 1.394 . S
C975 C976 1.383 . S
C975 H983 0.929 . S
C976 C975 1.383 . S
C976 C977 1.377 . S
C977 H961 0.930 . S
C977 C976 1.377 . S
C977 C978 1.379 . S
C978 H962 0.931 . S
C978 C972 1.383 . S
C978 C977 1.379 . S
H979 C973 0.959 . S
H980 C973 0.961 . S
H981 C973 0.960 . S
H982 C974 0.930 . S
H983 C975 0.929 . S
H984 C992 0.929 . S
H985 C994 0.930 . S
H986 C996 0.930 . S
H987 C999 0.929 . S
H988 C1002 0.930 . S
H989 C1004 0.960 . S
H990 C1004 0.960 . S
H991 C1004 0.960 . S
C992 H984 0.929 . S
C992 C993 1.377 . S
C992 C994 1.384 . S
C993 C992 1.377 . S
C993 C999 1.390 . S
C994 H985 0.930 . S
C994 C992 1.384 . S
C994 C995 1.372 . S
C995 C994 1.372 . S
C995 C996 1.400 . S
C995 C1000 1.490 . S
C996 H986 0.930 . S
C996 C995 1.400 . S
C996 C999 1.386 . S
H997 C1013 0.930 . S
H998 C1014 0.931 . S
C999 H987 0.929 . S
C999 C993 1.390 . S
C999 C996 1.386 . S
C1000 C995 1.490 . S
C1000 C1002 1.395 . S
C1000 C1003 1.403 1_455 S
H1001 C1007 0.930 . S
C1002 H988 0.930 . S
C1002 C1000 1.395 . S
C1002 C1005 1.403 . S
C1003 C1000 1.403 1_655 S
C1003 C1004 1.524 . S
C1003 C1007 1.400 . S
C1004 H989 0.960 . S
C1004 H990 0.960 . S
C1004 H991 0.960 . S
C1004 C1003 1.524 . S
C1005 C1002 1.403 . S
C1005 C1006 1.392 1_455 S
C1005 C1009 1.495 . S
C1006 C1005 1.392 1_655 S
C1006 C1007 1.385 . S
C1006 C1008 1.478 . S
C1007 H1001 0.930 . S
C1007 C1003 1.400 . S
C1007 C1006 1.385 . S
C1008 C1006 1.478 . S
C1008 C1010 1.381 . S
C1008 C1014 1.383 . S
C1009 C1005 1.495 . S
C1009 H1015 0.959 . S
C1009 H1016 0.961 . S
C1009 H1017 0.960 . S
C1010 C1008 1.381 . S
C1010 C1011 1.394 . S
C1010 H1018 0.930 . S
C1011 C1010 1.394 . S
C1011 C1012 1.383 . S
C1011 H1019 0.929 . S
C1012 C1011 1.383 . S
C1012 C1013 1.377 . S
C1013 H997 0.930 . S
C1013 C1012 1.377 . S
C1013 C1014 1.379 . S
C1014 H998 0.931 . S
C1014 C1008 1.383 . S
C1014 C1013 1.379 . S
H1015 C1009 0.959 . S
H1016 C1009 0.961 . S
H1017 C1009 0.960 . S
H1018 C1010 0.930 . S
H1019 C1011 0.929 . S
H1020 C1028 0.929 . S
H1021 C1030 0.930 . S
H1022 C1032 0.930 . S
H1023 C1035 0.929 . S
H1024 C1038 0.930 . S
H1025 C1040 0.960 . S
H1026 C1040 0.960 . S
H1027 C1040 0.960 1_565 S
C1028 H1020 0.929 . S
C1028 C1029 1.384 . S
C1028 C1030 1.384 . S
C1029 C1028 1.384 . S
C1029 C1035 1.385 1_545 S
C1030 H1021 0.930 . S
C1030 C1028 1.384 . S
C1030 C1031 1.372 . S
C1031 C1030 1.372 . S
C1031 C1032 1.400 1_545 S
C1031 C1036 1.490 . S
C1032 H1022 0.930 . S
C1032 C1031 1.400 1_565 S
C1032 C1035 1.386 . S
H1033 C1049 0.930 . S
H1034 C1050 0.931 . S
C1035 H1023 0.929 . S
C1035 C1029 1.385 1_565 S
C1035 C1032 1.386 . S
C1036 C1031 1.490 . S
C1036 C1038 1.395 . S
C1036 C1039 1.403 . S
H1037 C1043 0.927 . S
C1038 H1024 0.930 . S
C1038 C1036 1.395 . S
C1038 C1041 1.403 . S
C1039 C1036 1.403 . S
C1039 C1040 1.524 . S
C1039 C1043 1.400 . S
C1040 H1025 0.960 . S
C1040 H1026 0.960 . S
C1040 H1027 0.960 1_545 S
C1040 C1039 1.524 . S
C1041 C1038 1.403 . S
C1041 C1042 1.392 . S
C1041 C1045 1.495 . S
C1042 C1041 1.392 . S
C1042 C1043 1.385 . S
C1042 C1044 1.475 . S
C1043 H1037 0.927 . S
C1043 C1039 1.400 . S
C1043 C1042 1.385 . S
C1044 C1042 1.475 . S
C1044 C1046 1.392 . S
C1044 C1050 1.375 1_545 S
C1045 C1041 1.495 . S
C1045 H1051 0.959 . S
C1045 H1052 0.961 1_545 S
C1045 H1053 0.960 . S
C1046 C1044 1.392 . S
C1046 C1047 1.394 . S
C1046 H1054 0.930 . S
C1047 C1046 1.394 . S
C1047 C1048 1.385 . S
C1047 H1055 0.929 . S
C1048 C1047 1.385 . S
C1048 C1049 1.374 1_545 S
C1049 H1033 0.930 . S
C1049 C1048 1.374 1_565 S
C1049 C1050 1.379 . S
C1050 H1034 0.931 . S
C1050 C1044 1.375 1_565 S
C1050 C1049 1.379 . S
H1051 C1045 0.959 . S
H1052 C1045 0.961 1_565 S
H1053 C1045 0.960 . S
H1054 C1046 0.930 . S
H1055 C1047 0.929 . S
H1056 C1064 0.929 . S
H1057 C1066 0.930 . S
H1058 C1068 0.930 . S
H1059 C1071 0.929 . S
H1060 C1074 0.930 . S
H1061 C1076 0.960 . S
H1062 C1076 0.960 . S
H1063 C1076 0.960 . S
C1064 H1056 0.929 . S
C1064 C1065 1.380 1_455 S
C1064 C1066 1.384 . S
C1065 C1064 1.380 1_655 S
C1065 C1071 1.388 . S
C1066 H1057 0.930 . S
C1066 C1064 1.384 . S
C1066 C1067 1.372 . S
C1067 C1066 1.372 . S
C1067 C1068 1.400 1_455 S
C1067 C1072 1.490 . S
C1068 H1058 0.930 . S
C1068 C1067 1.400 1_655 S
C1068 C1071 1.386 . S
H1069 C1085 0.930 . S
H1070 C1086 0.931 . S
C1071 H1059 0.929 . S
C1071 C1065 1.388 . S
C1071 C1068 1.386 . S
C1072 C1067 1.490 . S
C1072 C1074 1.395 . S
C1072 C1075 1.403 1_455 S
H1073 C1079 0.930 . S
C1074 H1060 0.930 . S
C1074 C1072 1.395 . S
C1074 C1077 1.403 . S
C1075 C1072 1.403 1_655 S
C1075 C1076 1.524 . S
C1075 C1079 1.400 . S
C1076 H1061 0.960 . S
C1076 H1062 0.960 . S
C1076 H1063 0.960 . S
C1076 C1075 1.524 . S
C1077 C1074 1.403 . S
C1077 C1078 1.392 . S
C1077 C1081 1.495 . S
C1078 C1077 1.392 . S
C1078 C1079 1.385 1_455 S
C1078 C1080 1.478 . S
C1079 H1073 0.930 . S
C1079 C1075 1.400 . S
C1079 C1078 1.385 1_655 S
C1080 C1078 1.478 . S
C1080 C1082 1.381 . S
C1080 C1086 1.383 1_455 S
C1081 C1077 1.495 . S
C1081 H1087 0.959 . S
C1081 H1088 0.961 . S
C1081 H1089 0.960 . S
C1082 C1080 1.381 . S
C1082 C1083 1.394 . S
C1082 H1090 0.930 . S
C1083 C1082 1.394 . S
C1083 C1084 1.383 . S
C1083 H1091 0.929 . S
C1084 C1083 1.383 . S
C1084 C1085 1.377 1_455 S
C1085 H1069 0.930 . S
C1085 C1084 1.377 1_655 S
C1085 C1086 1.379 . S
C1086 H1070 0.931 . S
C1086 C1080 1.383 1_655 S
C1086 C1085 1.379 . S
H1087 C1081 0.959 . S
H1088 C1081 0.961 . S
H1089 C1081 0.960 . S
H1090 C1082 0.930 . S
H1091 C1083 0.929 . S
H1092 C1100 0.929 . S
H1093 C1102 0.930 . S
H1094 C1104 0.930 . S
H1095 C1107 0.929 . S
H1096 C1110 0.930 . S
H1097 C1112 0.960 . S
H1098 C1112 0.960 . S
H1099 C1112 0.960 . S
C1100 H1092 0.929 . S
C1100 C1101 1.377 1_565 S
C1100 C1102 1.384 . S
C1101 C1100 1.377 1_545 S
C1101 C1107 1.390 . S
C1102 H1093 0.930 . S
C1102 C1100 1.384 . S
C1102 C1103 1.372 1_565 S
C1103 C1102 1.372 1_545 S
C1103 C1104 1.400 . S
C1103 C1108 1.490 . S
C1104 H1094 0.930 . S
C1104 C1103 1.400 . S
C1104 C1107 1.386 . S
H1105 C1121 0.930 . S
H1106 C1122 0.931 . S
C1107 H1095 0.929 . S
C1107 C1101 1.390 . S
C1107 C1104 1.386 . S
C1108 C1103 1.490 . S
C1108 C1110 1.395 1_545 S
C1108 C1111 1.403 . S
H1109 C1115 0.930 . S
C1110 H1096 0.930 . S
C1110 C1108 1.395 1_565 S
C1110 C1113 1.403 . S
C1111 C1108 1.403 . S
C1111 C1112 1.524 . S
C1111 C1115 1.400 . S
C1112 H1097 0.960 . S
C1112 H1098 0.960 . S
C1112 H1099 0.960 . S
C1112 C1111 1.524 . S
C1113 C1110 1.403 . S
C1113 C1114 1.392 . S
C1113 C1117 1.495 . S
C1114 C1113 1.392 . S
C1114 C1115 1.385 1_565 S
C1114 C1116 1.478 . S
C1115 H1109 0.930 . S
C1115 C1111 1.400 . S
C1115 C1114 1.385 1_545 S
C1116 C1114 1.478 . S
C1116 C1118 1.381 . S
C1116 C1122 1.383 1_565 S
C1117 C1113 1.495 . S
C1117 H1123 0.959 . S
C1117 H1124 0.961 . S
C1117 H1125 0.960 . S
C1118 C1116 1.381 . S
C1118 C1119 1.394 . S
C1118 H1126 0.930 . S
C1119 C1118 1.394 . S
C1119 C1120 1.383 . S
C1119 H1127 0.929 . S
C1120 C1119 1.383 . S
C1120 C1121 1.377 1_565 S
C1121 H1105 0.930 . S
C1121 C1120 1.377 1_545 S
C1121 C1122 1.379 . S
C1122 H1106 0.931 . S
C1122 C1116 1.383 1_545 S
C1122 C1121 1.379 . S
H1123 C1117 0.959 . S
H1124 C1117 0.961 . S
H1125 C1117 0.960 . S
H1126 C1118 0.930 . S
H1127 C1119 0.929 . S
H1128 C1136 0.929 . S
H1129 C1138 0.930 . S
H1130 C1140 0.930 . S
H1131 C1143 0.929 . S
H1132 C1146 0.930 . S
H1133 C1148 0.960 . S
H1134 C1148 0.960 1_455 S
H1135 C1148 0.960 . S
C1136 H1128 0.929 . S
C1136 C1137 1.377 . S
C1136 C1138 1.384 . S
C1137 C1136 1.377 . S
C1137 C1143 1.390 1_455 S
C1138 H1129 0.930 . S
C1138 C1136 1.384 . S
C1138 C1139 1.372 . S
C1139 C1138 1.372 . S
C1139 C1140 1.400 1_455 S
C1139 C1144 1.490 . S
C1140 H1130 0.930 . S
C1140 C1139 1.400 1_655 S
C1140 C1143 1.386 . S
H1141 C1157 0.930 . S
H1142 C1158 0.931 . S
C1143 H1131 0.929 . S
C1143 C1137 1.390 1_655 S
C1143 C1140 1.386 . S
C1144 C1139 1.490 . S
C1144 C1146 1.395 . S
C1144 C1147 1.403 1_455 S
H1145 C1151 0.930 . S
C1146 H1132 0.930 . S
C1146 C1144 1.395 . S
C1146 C1149 1.403 . S
C1147 C1144 1.403 1_655 S
C1147 C1148 1.524 . S
C1147 C1151 1.400 . S
C1148 H1133 0.960 . S
C1148 H1134 0.960 1_655 S
C1148 H1135 0.960 . S
C1148 C1147 1.524 . S
C1149 C1146 1.403 . S
C1149 C1150 1.392 1_455 S
C1149 C1153 1.495 . S
C1150 C1149 1.392 1_655 S
C1150 C1151 1.385 . S
C1150 C1152 1.478 . S
C1151 H1145 0.930 . S
C1151 C1147 1.400 . S
C1151 C1150 1.385 . S
C1152 C1150 1.478 . S
C1152 C1154 1.381 1_655 S
C1152 C1158 1.383 . S
C1153 C1149 1.495 . S
C1153 H1159 0.959 . S
C1153 H1160 0.961 1_455 S
C1153 H1161 0.960 . S
C1154 C1152 1.381 1_455 S
C1154 C1155 1.394 . S
C1154 H1162 0.930 . S
C1155 C1154 1.394 . S
C1155 C1156 1.383 1_455 S
C1155 H1163 0.929 . S
C1156 C1155 1.383 1_655 S
C1156 C1157 1.377 . S
C1157 H1141 0.930 . S
C1157 C1156 1.377 . S
C1157 C1158 1.379 . S
C1158 H1142 0.931 . S
C1158 C1152 1.383 . S
C1158 C1157 1.379 . S
H1159 C1153 0.959 . S
H1160 C1153 0.961 1_655 S
H1161 C1153 0.960 . S
H1162 C1154 0.930 . S
H1163 C1155 0.929 . S
H1164 C1172 0.929 . S
H1165 C1174 0.930 . S
H1166 C1176 0.930 . S
H1167 C1179 0.929 . S
H1168 C1182 0.930 . S
H1169 C1184 0.960 . S
H1170 C1184 0.960 . S
H1171 C1184 0.960 . S
C1172 H1164 0.929 . S
C1172 C1173 1.378 . S
C1172 C1174 1.384 . S
C1173 C1172 1.378 . S
C1173 C1179 1.389 1_565 S
C1174 H1165 0.930 . S
C1174 C1172 1.384 . S
C1174 C1175 1.372 . S
C1175 C1174 1.372 . S
C1175 C1176 1.400 1_565 S
C1175 C1180 1.481 . S
C1176 H1166 0.930 . S
C1176 C1175 1.400 1_545 S
C1176 C1179 1.386 . S
H1177 C1193 0.930 . S
H1178 C1194 0.931 . S
C1179 H1167 0.929 . S
C1179 C1173 1.389 1_545 S
C1179 C1176 1.386 . S
C1180 C1175 1.481 . S
C1180 C1182 1.391 1_565 S
C1180 C1183 1.417 . S
H1181 C1187 0.930 . S
C1182 H1168 0.930 . S
C1182 C1180 1.391 1_545 S
C1182 C1185 1.403 . S
C1183 C1180 1.417 . S
C1183 C1184 1.524 . S
C1183 C1187 1.400 . S
C1184 H1169 0.960 . S
C1184 H1170 0.960 . S
C1184 H1171 0.960 . S
C1184 C1183 1.524 . S
C1185 C1182 1.403 . S
C1185 C1186 1.392 . S
C1185 C1189 1.495 . S
C1186 C1185 1.392 . S
C1186 C1187 1.385 1_545 S
C1186 C1188 1.478 . S
C1187 H1181 0.930 . S
C1187 C1183 1.400 . S
C1187 C1186 1.385 1_565 S
C1188 C1186 1.478 . S
C1188 C1190 1.381 1_545 S
C1188 C1194 1.383 . S
C1189 C1185 1.495 . S
C1189 H1195 0.959 . S
C1189 H1196 0.961 . S
C1189 H1197 0.960 . S
C1190 C1188 1.381 1_565 S
C1190 C1191 1.394 . S
C1190 H1198 0.930 . S
C1191 C1190 1.394 . S
C1191 C1192 1.370 1_565 S
C1191 H1199 0.929 . S
C1192 C1191 1.370 1_545 S
C1192 C1193 1.398 . S
C1193 H1177 0.930 . S
C1193 C1192 1.398 . S
C1193 C1194 1.379 . S
C1194 H1178 0.931 . S
C1194 C1188 1.383 . S
C1194 C1193 1.379 . S
H1195 C1189 0.959 . S
H1196 C1189 0.961 . S
H1197 C1189 0.960 . S
H1198 C1190 0.930 . S
H1199 C1191 0.929 . S
H1200 C1208 0.929 . S
H1201 C1210 0.930 . S
H1202 C1212 0.930 . S
H1203 C1215 0.929 . S
H1204 C1218 0.930 . S
H1205 C1220 0.960 . S
H1206 C1220 0.960 . S
H1207 C1220 0.960 . S
C1208 H1200 0.929 . S
C1208 C1209 1.377 . S
C1208 C1210 1.384 . S
C1209 C1208 1.377 . S
C1209 C1215 1.391 1_556 S
C1210 H1201 0.930 . S
C1210 C1208 1.384 . S
C1210 C1211 1.393 . S
C1211 C1210 1.393 . S
C1211 C1212 1.387 1_556 S
C1211 C1216 1.483 . S
C1212 H1202 0.930 . S
C1212 C1211 1.387 1_554 S
C1212 C1215 1.386 . S
H1213 C1229 0.930 . S
H1214 C1230 0.931 . S
C1215 H1203 0.929 . S
C1215 C1209 1.391 1_554 S
C1215 C1212 1.386 . S
C1216 C1211 1.483 . S
C1216 C1218 1.395 . S
C1216 C1219 1.403 1_556 S
H1217 C1223 0.930 . S
C1218 H1204 0.930 . S
C1218 C1216 1.395 . S
C1218 C1221 1.403 . S
C1219 C1216 1.403 1_554 S
C1219 C1220 1.524 . S
C1219 C1223 1.400 . S
C1220 H1205 0.960 . S
C1220 H1206 0.960 . S
C1220 H1207 0.960 . S
C1220 C1219 1.524 . S
C1221 C1218 1.403 . S
C1221 C1222 1.392 . S
C1221 C1225 1.495 . S
C1222 C1221 1.392 . S
C1222 C1223 1.385 1_556 S
C1222 C1224 1.478 . S
C1223 H1217 0.930 . S
C1223 C1219 1.400 . S
C1223 C1222 1.385 1_554 S
C1224 C1222 1.478 . S
C1224 C1226 1.381 . S
C1224 C1230 1.383 1_556 S
C1225 C1221 1.495 . S
C1225 H1231 0.959 . S
C1225 H1232 0.961 . S
C1225 H1233 0.960 . S
C1226 C1224 1.381 . S
C1226 C1227 1.394 . S
C1226 H1234 0.930 . S
C1227 C1226 1.394 . S
C1227 C1228 1.383 . S
C1227 H1235 0.929 . S
C1228 C1227 1.383 . S
C1228 C1229 1.377 1_556 S
C1229 H1213 0.930 . S
C1229 C1228 1.377 1_554 S
C1229 C1230 1.379 . S
C1230 H1214 0.931 . S
C1230 C1224 1.383 1_554 S
C1230 C1229 1.379 . S
H1231 C1225 0.959 . S
H1232 C1225 0.961 . S
H1233 C1225 0.960 . S
H1234 C1226 0.930 . S
H1235 C1227 0.929 . S
H1236 C1244 0.929 . S
H1237 C1246 0.930 . S
H1238 C1248 0.930 1_556 S
H1239 C1251 0.929 . S
H1240 C1254 0.930 . S
H1241 C1256 0.960 . S
H1242 C1256 0.960 . S
H1243 C1256 0.960 . S
C1244 H1236 0.929 . S
C1244 C1245 1.377 . S
C1244 C1246 1.384 . S
C1245 C1244 1.377 . S
C1245 C1251 1.390 . S
C1246 H1237 0.930 . S
C1246 C1244 1.384 . S
C1246 C1247 1.372 . S
C1247 C1246 1.372 . S
C1247 C1248 1.400 . S
C1247 C1252 1.490 . S
C1248 H1238 0.930 1_554 S
C1248 C1247 1.400 . S
C1248 C1251 1.386 . S
H1249 C1265 0.930 . S
H1250 C1266 0.931 . S
C1251 H1239 0.929 . S
C1251 C1245 1.390 . S
C1251 C1248 1.386 . S
C1252 C1247 1.490 . S
C1252 C1254 1.395 1_554 S
C1252 C1255 1.403 . S
H1253 C1259 0.930 . S
C1254 H1240 0.930 . S
C1254 C1252 1.395 1_556 S
C1254 C1257 1.403 . S
C1255 C1252 1.403 . S
C1255 C1256 1.524 . S
C1255 C1259 1.400 . S
C1256 H1241 0.960 . S
C1256 H1242 0.960 . S
C1256 H1243 0.960 . S
C1256 C1255 1.524 . S
C1257 C1254 1.403 . S
C1257 C1258 1.392 . S
C1257 C1261 1.495 . S
C1258 C1257 1.392 . S
C1258 C1259 1.385 1_556 S
C1258 C1260 1.478 . S
C1259 H1253 0.930 . S
C1259 C1255 1.400 . S
C1259 C1258 1.385 1_554 S
C1260 C1258 1.478 . S
C1260 C1262 1.381 . S
C1260 C1266 1.383 . S
C1261 C1257 1.495 . S
C1261 H1267 0.959 . S
C1261 H1268 0.961 . S
C1261 H1269 0.960 . S
C1262 C1260 1.381 . S
C1262 C1263 1.394 . S
C1262 H1270 0.930 1_556 S
C1263 C1262 1.394 . S
C1263 C1264 1.383 . S
C1263 H1271 0.929 . S
C1264 C1263 1.383 . S
C1264 C1265 1.377 . S
C1265 H1249 0.930 . S
C1265 C1264 1.377 . S
C1265 C1266 1.379 . S
C1266 H1250 0.931 . S
C1266 C1260 1.383 . S
C1266 C1265 1.379 . S
H1267 C1261 0.959 . S
H1268 C1261 0.961 . S
H1269 C1261 0.960 . S
H1270 C1262 0.930 1_554 S
H1271 C1263 0.929 . S
H1272 C1280 0.929 . S
H1273 C1282 0.930 . S
H1274 C1284 0.930 . S
H1275 C1287 0.929 1_554 S
H1276 C1290 0.936 . S
H1277 C1292 0.960 . S
H1278 C1292 0.960 . S
H1279 C1292 0.960 . S
C1280 H1272 0.929 . S
C1280 C1281 1.377 . S
C1280 C1282 1.384 . S
C1281 C1280 1.377 . S
C1281 C1287 1.390 . S
C1282 H1273 0.930 . S
C1282 C1280 1.384 . S
C1282 C1283 1.372 . S
C1283 C1282 1.372 . S
C1283 C1284 1.400 1_556 S
C1283 C1288 1.490 . S
C1284 H1274 0.930 . S
C1284 C1283 1.400 1_554 S
C1284 C1287 1.386 1_554 S
H1285 C1301 0.930 . S
H1286 C1302 0.931 . S
C1287 H1275 0.929 1_556 S
C1287 C1281 1.390 . S
C1287 C1284 1.386 1_556 S
C1288 C1283 1.490 . S
C1288 C1290 1.393 . S
C1288 C1291 1.403 . S
H1289 C1295 0.928 . S
C1290 H1276 0.936 . S
C1290 C1288 1.393 . S
C1290 C1293 1.400 1_556 S
C1291 C1288 1.403 . S
C1291 C1292 1.524 . S
C1291 C1295 1.402 . S
C1292 H1277 0.960 . S
C1292 H1278 0.960 . S
C1292 H1279 0.960 . S
C1292 C1291 1.524 . S
C1293 C1290 1.400 1_554 S
C1293 C1294 1.392 . S
C1293 C1297 1.495 . S
C1294 C1293 1.392 . S
C1294 C1295 1.386 1_554 S
C1294 C1296 1.478 . S
C1295 H1289 0.928 . S
C1295 C1291 1.402 . S
C1295 C1294 1.386 1_556 S
C1296 C1294 1.478 . S
C1296 C1298 1.381 1_554 S
C1296 C1302 1.383 . S
C1297 C1293 1.495 . S
C1297 H1303 0.959 . S
C1297 H1304 0.961 . S
C1297 H1305 0.952 1_554 S
C1298 C1296 1.381 1_556 S
C1298 C1299 1.393 1_556 S
C1298 H1306 0.930 . S
C1299 C1298 1.393 1_554 S
C1299 C1300 1.391 . S
C1299 H1307 0.923 1_554 S
C1300 C1299 1.391 . S
C1300 C1301 1.377 . S
C1301 H1285 0.930 . S
C1301 C1300 1.377 . S
C1301 C1302 1.379 . S
C1302 H1286 0.931 . S
C1302 C1296 1.383 . S
C1302 C1301 1.379 . S
H1303 C1297 0.959 . S
H1304 C1297 0.961 . S
H1305 C1297 0.952 1_556 S
H1306 C1298 0.930 . S
H1307 C1299 0.923 1_556 S
H1308 C1316 0.929 . S
H1309 C1318 0.930 . S
H1310 C1320 0.930 . S
H1311 C1323 0.929 . S
H1312 C1326 0.930 . S
H1313 C1328 0.960 . S
H1314 C1328 0.960 . S
H1315 C1328 0.960 . S
C1316 H1308 0.929 . S
C1316 C1317 1.388 . S
C1316 C1318 1.384 . S
C1317 C1316 1.388 . S
C1317 C1323 1.375 1_556 S
C1318 H1309 0.930 . S
C1318 C1316 1.384 . S
C1318 C1319 1.372 . S
C1319 C1318 1.372 . S
C1319 C1320 1.400 1_556 S
C1319 C1324 1.490 . S
C1320 H1310 0.930 . S
C1320 C1319 1.400 1_554 S
C1320 C1323 1.386 . S
H1321 C1337 0.930 . S
H1322 C1338 0.931 . S
C1323 H1311 0.929 . S
C1323 C1317 1.375 1_554 S
C1323 C1320 1.386 . S
C1324 C1319 1.490 . S
C1324 C1326 1.395 . S
C1324 C1327 1.403 1_556 S
H1325 C1331 0.930 . S
C1326 H1312 0.930 . S
C1326 C1324 1.395 . S
C1326 C1329 1.403 . S
C1327 C1324 1.403 1_554 S
C1327 C1328 1.524 . S
C1327 C1331 1.400 . S
C1328 H1313 0.960 . S
C1328 H1314 0.960 . S
C1328 H1315 0.960 . S
C1328 C1327 1.524 . S
C1329 C1326 1.403 . S
C1329 C1330 1.392 . S
C1329 C1333 1.495 . S
C1330 C1329 1.392 . S
C1330 C1331 1.385 1_556 S
C1330 C1332 1.478 . S
C1331 H1325 0.930 . S
C1331 C1327 1.400 . S
C1331 C1330 1.385 1_554 S
C1332 C1330 1.478 . S
C1332 C1334 1.381 . S
C1332 C1338 1.383 1_556 S
C1333 C1329 1.495 . S
C1333 H1339 0.959 . S
C1333 H1340 0.961 . S
C1333 H1341 0.960 . S
C1334 C1332 1.381 . S
C1334 C1335 1.394 . S
C1334 H1342 0.930 . S
C1335 C1334 1.394 . S
C1335 C1336 1.414 . S
C1335 H1343 0.929 . S
C1336 C1335 1.414 . S
C1336 C1337 1.356 1_556 S
C1337 H1321 0.930 . S
C1337 C1336 1.356 1_554 S
C1337 C1338 1.379 . S
C1338 H1322 0.931 . S
C1338 C1332 1.383 1_554 S
C1338 C1337 1.379 . S
H1339 C1333 0.959 . S
H1340 C1333 0.961 . S
H1341 C1333 0.960 . S
H1342 C1334 0.930 . S
H1343 C1335 0.929 . S
H1344 C1352 0.929 . S
H1345 C1354 0.930 . S
H1346 C1356 0.930 . S
H1347 C1359 0.929 . S
H1348 C1362 0.930 . S
H1349 C1364 0.960 . S
H1350 C1364 0.960 . S
H1351 C1364 0.960 . S
C1352 H1344 0.929 . S
C1352 C1353 1.377 . S
C1352 C1354 1.384 . S
C1353 C1352 1.377 . S
C1353 C1359 1.390 . S
C1354 H1345 0.930 . S
C1354 C1352 1.384 . S
C1354 C1355 1.372 . S
C1355 C1354 1.372 . S
C1355 C1356 1.400 . S
C1355 C1360 1.490 . S
C1356 H1346 0.930 . S
C1356 C1355 1.400 . S
C1356 C1359 1.386 . S
H1357 C1373 0.930 . S
H1358 C1374 0.931 . S
C1359 H1347 0.929 . S
C1359 C1353 1.390 . S
C1359 C1356 1.386 . S
C1360 C1355 1.490 . S
C1360 C1362 1.395 . S
C1360 C1363 1.403 . S
H1361 C1367 0.930 . S
C1362 H1348 0.930 . S
C1362 C1360 1.395 . S
C1362 C1365 1.403 . S
C1363 C1360 1.403 . S
C1363 C1364 1.524 . S
C1363 C1367 1.400 . S
C1364 H1349 0.960 . S
C1364 H1350 0.960 . S
C1364 H1351 0.960 . S
C1364 C1363 1.524 . S
C1365 C1362 1.403 . S
C1365 C1366 1.392 . S
C1365 C1369 1.495 . S
C1366 C1365 1.392 . S
C1366 C1367 1.385 . S
C1366 C1368 1.478 . S
C1367 H1361 0.930 . S
C1367 C1363 1.400 . S
C1367 C1366 1.385 . S
C1368 C1366 1.478 . S
C1368 C1370 1.381 . S
C1368 C1374 1.383 . S
C1369 C1365 1.495 . S
C1369 H1375 0.959 . S
C1369 H1376 0.961 . S
C1369 H1377 0.960 . S
C1370 C1368 1.381 . S
C1370 C1371 1.394 . S
C1370 H1378 0.930 . S
C1371 C1370 1.394 . S
C1371 C1372 1.383 . S
C1371 H1379 0.929 . S
C1372 C1371 1.383 . S
C1372 C1373 1.377 . S
C1373 H1357 0.930 . S
C1373 C1372 1.377 . S
C1373 C1374 1.379 . S
C1374 H1358 0.931 . S
C1374 C1368 1.383 . S
C1374 C1373 1.379 . S
H1375 C1369 0.959 . S
H1376 C1369 0.961 . S
H1377 C1369 0.960 . S
H1378 C1370 0.930 . S
H1379 C1371 0.929 . S
H1380 C1388 0.929 . S
H1381 C1390 0.930 . S
H1382 C1392 0.930 . S
H1383 C1395 0.929 . S
H1384 C1398 0.930 . S
H1385 C1400 0.960 . S
H1386 C1400 0.960 . S
H1387 C1400 0.960 . S
C1388 H1380 0.929 . S
C1388 C1389 1.377 . S
C1388 C1390 1.384 . S
C1389 C1388 1.377 . S
C1389 C1395 1.390 . S
C1390 H1381 0.930 . S
C1390 C1388 1.384 . S
C1390 C1391 1.372 . S
C1391 C1390 1.372 . S
C1391 C1392 1.400 . S
C1391 C1396 1.490 . S
C1392 H1382 0.930 . S
C1392 C1391 1.400 . S
C1392 C1395 1.386 . S
H1393 C1409 0.930 . S
H1394 C1410 0.931 . S
C1395 H1383 0.929 . S
C1395 C1389 1.390 . S
C1395 C1392 1.386 . S
C1396 C1391 1.490 . S
C1396 C1398 1.395 . S
C1396 C1399 1.403 . S
H1397 C1403 0.930 . S
C1398 H1384 0.930 . S
C1398 C1396 1.395 . S
C1398 C1401 1.403 . S
C1399 C1396 1.403 . S
C1399 C1400 1.524 . S
C1399 C1403 1.400 . S
C1400 H1385 0.960 . S
C1400 H1386 0.960 . S
C1400 H1387 0.960 . S
C1400 C1399 1.524 . S
C1401 C1398 1.403 . S
C1401 C1402 1.392 . S
C1401 C1405 1.495 . S
C1402 C1401 1.392 . S
C1402 C1403 1.385 . S
C1402 C1404 1.478 . S
C1403 H1397 0.930 . S
C1403 C1399 1.400 . S
C1403 C1402 1.385 . S
C1404 C1402 1.478 . S
C1404 C1406 1.381 . S
C1404 C1410 1.383 . S
C1405 C1401 1.495 . S
C1405 H1411 0.959 . S
C1405 H1412 0.961 . S
C1405 H1413 0.960 . S
C1406 C1404 1.381 . S
C1406 C1407 1.394 . S
C1406 H1414 0.930 . S
C1407 C1406 1.394 . S
C1407 C1408 1.383 . S
C1407 H1415 0.929 . S
C1408 C1407 1.383 . S
C1408 C1409 1.377 . S
C1409 H1393 0.930 . S
C1409 C1408 1.377 . S
C1409 C1410 1.379 . S
C1410 H1394 0.931 . S
C1410 C1404 1.383 . S
C1410 C1409 1.379 . S
H1411 C1405 0.959 . S
H1412 C1405 0.961 . S
H1413 C1405 0.960 . S
H1414 C1406 0.930 . S
H1415 C1407 0.929 . S
H1416 C1424 0.929 . S
H1417 C1426 0.930 . S
H1418 C1428 0.930 . S
H1419 C1431 0.929 . S
H1420 C1434 0.930 . S
H1421 C1436 0.960 . S
H1422 C1436 0.960 . S
H1423 C1436 0.960 . S
C1424 H1416 0.929 . S
C1424 C1425 1.377 . S
C1424 C1426 1.384 . S
C1425 C1424 1.377 . S
C1425 C1431 1.390 . S
C1426 H1417 0.930 . S
C1426 C1424 1.384 . S
C1426 C1427 1.372 . S
C1427 C1426 1.372 . S
C1427 C1428 1.400 . S
C1427 C1432 1.490 . S
C1428 H1418 0.930 . S
C1428 C1427 1.400 . S
C1428 C1431 1.386 . S
H1429 C1445 0.930 . S
H1430 C1446 0.931 . S
C1431 H1419 0.929 . S
C1431 C1425 1.390 . S
C1431 C1428 1.386 . S
C1432 C1427 1.490 . S
C1432 C1434 1.395 . S
C1432 C1435 1.403 . S
H1433 C1439 0.930 . S
C1434 H1420 0.930 . S
C1434 C1432 1.395 . S
C1434 C1437 1.403 . S
C1435 C1432 1.403 . S
C1435 C1436 1.524 . S
C1435 C1439 1.400 . S
C1436 H1421 0.960 . S
C1436 H1422 0.960 . S
C1436 H1423 0.960 . S
C1436 C1435 1.524 . S
C1437 C1434 1.403 . S
C1437 C1438 1.392 . S
C1437 C1441 1.495 . S
C1438 C1437 1.392 . S
C1438 C1439 1.385 . S
C1438 C1440 1.478 . S
C1439 H1433 0.930 . S
C1439 C1435 1.400 . S
C1439 C1438 1.385 . S
C1440 C1438 1.478 . S
C1440 C1442 1.381 . S
C1440 C1446 1.383 . S
C1441 C1437 1.495 . S
C1441 H1447 0.959 . S
C1441 H1448 0.961 . S
C1441 H1449 0.960 . S
C1442 C1440 1.381 . S
C1442 C1443 1.394 . S
C1442 H1450 0.930 . S
C1443 C1442 1.394 . S
C1443 C1444 1.383 . S
C1443 H1451 0.929 . S
C1444 C1443 1.383 . S
C1444 C1445 1.377 . S
C1445 H1429 0.930 . S
C1445 C1444 1.377 . S
C1445 C1446 1.379 . S
C1446 H1430 0.931 . S
C1446 C1440 1.383 . S
C1446 C1445 1.379 . S
H1447 C1441 0.959 . S
H1448 C1441 0.961 . S
H1449 C1441 0.960 . S
H1450 C1442 0.930 . S
H1451 C1443 0.929 . S
H1452 C1460 0.929 . S
H1453 C1462 0.930 . S
H1454 C1464 0.930 . S
H1455 C1467 0.929 . S
H1456 C1470 0.930 . S
H1457 C1472 0.960 . S
H1458 C1472 0.960 . S
H1459 C1472 0.960 . S
C1460 H1452 0.929 . S
C1460 C1461 1.377 . S
C1460 C1462 1.384 . S
C1461 C1460 1.377 . S
C1461 C1467 1.390 . S
C1462 H1453 0.930 . S
C1462 C1460 1.384 . S
C1462 C1463 1.372 . S
C1463 C1462 1.372 . S
C1463 C1464 1.400 . S
C1463 C1468 1.490 . S
C1464 H1454 0.930 . S
C1464 C1463 1.400 . S
C1464 C1467 1.386 . S
H1465 C1481 0.930 . S
H1466 C1482 0.931 . S
C1467 H1455 0.929 . S
C1467 C1461 1.390 . S
C1467 C1464 1.386 . S
C1468 C1463 1.490 . S
C1468 C1470 1.395 . S
C1468 C1471 1.403 . S
H1469 C1475 0.930 . S
C1470 H1456 0.930 . S
C1470 C1468 1.395 . S
C1470 C1473 1.403 . S
C1471 C1468 1.403 . S
C1471 C1472 1.524 . S
C1471 C1475 1.400 . S
C1472 H1457 0.960 . S
C1472 H1458 0.960 . S
C1472 H1459 0.960 . S
C1472 C1471 1.524 . S
C1473 C1470 1.403 . S
C1473 C1474 1.392 . S
C1473 C1477 1.495 . S
C1474 C1473 1.392 . S
C1474 C1475 1.385 . S
C1474 C1476 1.478 . S
C1475 H1469 0.930 . S
C1475 C1471 1.400 . S
C1475 C1474 1.385 . S
C1476 C1474 1.478 . S
C1476 C1478 1.381 . S
C1476 C1482 1.383 . S
C1477 C1473 1.495 . S
C1477 H1483 0.959 . S
C1477 H1484 0.961 . S
C1477 H1485 0.960 . S
C1478 C1476 1.381 . S
C1478 C1479 1.394 . S
C1478 H1486 0.930 . S
C1479 C1478 1.394 . S
C1479 C1480 1.383 . S
C1479 H1487 0.929 . S
C1480 C1479 1.383 . S
C1480 C1481 1.377 . S
C1481 H1465 0.930 . S
C1481 C1480 1.377 . S
C1481 C1482 1.379 . S
C1482 H1466 0.931 . S
C1482 C1476 1.383 . S
C1482 C1481 1.379 . S
H1483 C1477 0.959 . S
H1484 C1477 0.961 . S
H1485 C1477 0.960 . S
H1486 C1478 0.930 . S
H1487 C1479 0.929 . S
H1488 C1496 0.929 . S
H1489 C1498 0.930 . S
H1490 C1500 0.930 . S
H1491 C1503 0.929 . S
H1492 C1506 0.930 . S
H1493 C1508 0.960 . S
H1494 C1508 0.960 . S
H1495 C1508 0.960 . S
C1496 H1488 0.929 . S
C1496 C1497 1.377 . S
C1496 C1498 1.384 . S
C1497 C1496 1.377 . S
C1497 C1503 1.390 . S
C1498 H1489 0.930 . S
C1498 C1496 1.384 . S
C1498 C1499 1.372 . S
C1499 C1498 1.372 . S
C1499 C1500 1.400 . S
C1499 C1504 1.490 . S
C1500 H1490 0.930 . S
C1500 C1499 1.400 . S
C1500 C1503 1.386 . S
H1501 C1517 0.930 . S
H1502 C1518 0.931 . S
C1503 H1491 0.929 . S
C1503 C1497 1.390 . S
C1503 C1500 1.386 . S
C1504 C1499 1.490 . S
C1504 C1506 1.395 . S
C1504 C1507 1.403 . S
H1505 C1511 0.930 . S
C1506 H1492 0.930 . S
C1506 C1504 1.395 . S
C1506 C1509 1.403 . S
C1507 C1504 1.403 . S
C1507 C1508 1.524 . S
C1507 C1511 1.400 . S
C1508 H1493 0.960 . S
C1508 H1494 0.960 . S
C1508 H1495 0.960 . S
C1508 C1507 1.524 . S
C1509 C1506 1.403 . S
C1509 C1510 1.392 . S
C1509 C1513 1.495 . S
C1510 C1509 1.392 . S
C1510 C1511 1.385 . S
C1510 C1512 1.478 . S
C1511 H1505 0.930 . S
C1511 C1507 1.400 . S
C1511 C1510 1.385 . S
C1512 C1510 1.478 . S
C1512 C1514 1.381 . S
C1512 C1518 1.383 . S
C1513 C1509 1.495 . S
C1513 H1519 0.959 . S
C1513 H1520 0.961 . S
C1513 H1521 0.960 . S
C1514 C1512 1.381 . S
C1514 C1515 1.394 . S
C1514 H1522 0.930 . S
C1515 C1514 1.394 . S
C1515 C1516 1.383 . S
C1515 H1523 0.929 . S
C1516 C1515 1.383 . S
C1516 C1517 1.377 . S
C1517 H1501 0.930 . S
C1517 C1516 1.377 . S
C1517 C1518 1.379 . S
C1518 H1502 0.931 . S
C1518 C1512 1.383 . S
C1518 C1517 1.379 . S
H1519 C1513 0.959 . S
H1520 C1513 0.961 . S
H1521 C1513 0.960 . S
H1522 C1514 0.930 . S
H1523 C1515 0.929 . S
H1524 C1532 0.929 . S
H1525 C1534 0.930 . S
H1526 C1536 0.930 . S
H1527 C1539 0.929 . S
H1528 C1542 0.930 . S
H1529 C1544 0.960 . S
H1530 C1544 0.960 . S
H1531 C1544 0.960 . S
C1532 H1524 0.929 . S
C1532 C1533 1.377 . S
C1532 C1534 1.384 . S
C1533 C1532 1.377 . S
C1533 C1539 1.390 . S
C1534 H1525 0.930 . S
C1534 C1532 1.384 . S
C1534 C1535 1.372 . S
C1535 C1534 1.372 . S
C1535 C1536 1.400 . S
C1535 C1540 1.490 . S
C1536 H1526 0.930 . S
C1536 C1535 1.400 . S
C1536 C1539 1.386 . S
H1537 C1553 0.930 . S
H1538 C1554 0.931 . S
C1539 H1527 0.929 . S
C1539 C1533 1.390 . S
C1539 C1536 1.386 . S
C1540 C1535 1.490 . S
C1540 C1542 1.395 . S
C1540 C1543 1.403 . S
H1541 C1547 0.930 . S
C1542 H1528 0.930 . S
C1542 C1540 1.395 . S
C1542 C1545 1.403 . S
C1543 C1540 1.403 . S
C1543 C1544 1.524 . S
C1543 C1547 1.400 . S
C1544 H1529 0.960 . S
C1544 H1530 0.960 . S
C1544 H1531 0.960 . S
C1544 C1543 1.524 . S
C1545 C1542 1.403 . S
C1545 C1546 1.392 . S
C1545 C1549 1.495 . S
C1546 C1545 1.392 . S
C1546 C1547 1.385 . S
C1546 C1548 1.478 . S
C1547 H1541 0.930 . S
C1547 C1543 1.400 . S
C1547 C1546 1.385 . S
C1548 C1546 1.478 . S
C1548 C1550 1.381 . S
C1548 C1554 1.383 . S
C1549 C1545 1.495 . S
C1549 H1555 0.959 . S
C1549 H1556 0.961 . S
C1549 H1557 0.960 . S
C1550 C1548 1.381 . S
C1550 C1551 1.394 . S
C1550 H1558 0.930 . S
C1551 C1550 1.394 . S
C1551 C1552 1.383 . S
C1551 H1559 0.929 . S
C1552 C1551 1.383 . S
C1552 C1553 1.377 . S
C1553 H1537 0.930 . S
C1553 C1552 1.377 . S
C1553 C1554 1.379 . S
C1554 H1538 0.931 . S
C1554 C1548 1.383 . S
C1554 C1553 1.379 . S
H1555 C1549 0.959 . S
H1556 C1549 0.961 . S
H1557 C1549 0.960 . S
H1558 C1550 0.930 . S
H1559 C1551 0.929 . S
H1560 C1568 0.929 . S
H1561 C1570 0.930 . S
H1562 C1572 0.930 . S
H1563 C1575 0.929 . S
H1564 C1578 0.930 . S
H1565 C1580 0.960 . S
H1566 C1580 0.960 . S
H1567 C1580 0.960 . S
C1568 H1560 0.929 . S
C1568 C1569 1.377 . S
C1568 C1570 1.384 . S
C1569 C1568 1.377 . S
C1569 C1575 1.390 . S
C1570 H1561 0.930 . S
C1570 C1568 1.384 . S
C1570 C1571 1.372 . S
C1571 C1570 1.372 . S
C1571 C1572 1.400 . S
C1571 C1576 1.490 . S
C1572 H1562 0.930 . S
C1572 C1571 1.400 . S
C1572 C1575 1.386 . S
H1573 C1589 0.930 . S
H1574 C1590 0.931 . S
C1575 H1563 0.929 . S
C1575 C1569 1.390 . S
C1575 C1572 1.386 . S
C1576 C1571 1.490 . S
C1576 C1578 1.395 . S
C1576 C1579 1.403 . S
H1577 C1583 0.930 . S
C1578 H1564 0.930 . S
C1578 C1576 1.395 . S
C1578 C1581 1.403 . S
C1579 C1576 1.403 . S
C1579 C1580 1.524 . S
C1579 C1583 1.400 . S
C1580 H1565 0.960 . S
C1580 H1566 0.960 . S
C1580 H1567 0.960 . S
C1580 C1579 1.524 . S
C1581 C1578 1.403 . S
C1581 C1582 1.392 . S
C1581 C1585 1.495 . S
C1582 C1581 1.392 . S
C1582 C1583 1.385 . S
C1582 C1584 1.478 . S
C1583 H1577 0.930 . S
C1583 C1579 1.400 . S
C1583 C1582 1.385 . S
C1584 C1582 1.478 . S
C1584 C1586 1.381 . S
C1584 C1590 1.383 . S
C1585 C1581 1.495 . S
C1585 H1591 0.959 . S
C1585 H1592 0.961 . S
C1585 H1593 0.960 . S
C1586 C1584 1.381 . S
C1586 C1587 1.394 . S
C1586 H1594 0.930 . S
C1587 C1586 1.394 . S
C1587 C1588 1.383 . S
C1587 H1595 0.929 . S
C1588 C1587 1.383 . S
C1588 C1589 1.377 . S
C1589 H1573 0.930 . S
C1589 C1588 1.377 . S
C1589 C1590 1.379 . S
C1590 H1574 0.931 . S
C1590 C1584 1.383 . S
C1590 C1589 1.379 . S
H1591 C1585 0.959 . S
H1592 C1585 0.961 . S
H1593 C1585 0.960 . S
H1594 C1586 0.930 . S
H1595 C1587 0.929 . S
H1596 C1604 0.929 . S
H1597 C1606 0.930 . S
H1598 C1608 0.930 . S
H1599 C1611 0.929 . S
H1600 C1614 0.930 . S
H1601 C1616 0.960 . S
H1602 C1616 0.960 . S
H1603 C1616 0.960 . S
C1604 H1596 0.929 . S
C1604 C1605 1.377 . S
C1604 C1606 1.384 . S
C1605 C1604 1.377 . S
C1605 C1611 1.390 . S
C1606 H1597 0.930 . S
C1606 C1604 1.384 . S
C1606 C1607 1.372 . S
C1607 C1606 1.372 . S
C1607 C1608 1.400 . S
C1607 C1612 1.490 . S
C1608 H1598 0.930 . S
C1608 C1607 1.400 . S
C1608 C1611 1.386 . S
H1609 C1625 0.930 . S
H1610 C1626 0.931 . S
C1611 H1599 0.929 . S
C1611 C1605 1.390 . S
C1611 C1608 1.386 . S
C1612 C1607 1.490 . S
C1612 C1614 1.395 . S
C1612 C1615 1.403 . S
H1613 C1619 0.930 . S
C1614 H1600 0.930 . S
C1614 C1612 1.395 . S
C1614 C1617 1.403 . S
C1615 C1612 1.403 . S
C1615 C1616 1.524 . S
C1615 C1619 1.400 . S
C1616 H1601 0.960 . S
C1616 H1602 0.960 . S
C1616 H1603 0.960 . S
C1616 C1615 1.524 . S
C1617 C1614 1.403 . S
C1617 C1618 1.392 . S
C1617 C1621 1.495 . S
C1618 C1617 1.392 . S
C1618 C1619 1.385 . S
C1618 C1620 1.478 . S
C1619 H1613 0.930 . S
C1619 C1615 1.400 . S
C1619 C1618 1.385 . S
C1620 C1618 1.478 . S
C1620 C1622 1.381 . S
C1620 C1626 1.383 . S
C1621 C1617 1.495 . S
C1621 H1627 0.959 . S
C1621 H1628 0.961 . S
C1621 H1629 0.960 . S
C1622 C1620 1.381 . S
C1622 C1623 1.394 . S
C1622 H1630 0.930 . S
C1623 C1622 1.394 . S
C1623 C1624 1.383 . S
C1623 H1631 0.929 . S
C1624 C1623 1.383 . S
C1624 C1625 1.377 . S
C1625 H1609 0.930 . S
C1625 C1624 1.377 . S
C1625 C1626 1.379 . S
C1626 H1610 0.931 . S
C1626 C1620 1.383 . S
C1626 C1625 1.379 . S
H1627 C1621 0.959 . S
H1628 C1621 0.961 . S
H1629 C1621 0.960 . S
H1630 C1622 0.930 . S
H1631 C1623 0.929 . S
H1632 C1640 0.929 . S
H1633 C1642 0.930 . S
H1634 C1644 0.930 . S
H1635 C1647 0.929 . S
H1636 C1650 0.930 . S
H1637 C1652 0.960 . S
H1638 C1652 0.960 . S
H1639 C1652 0.960 . S
C1640 H1632 0.929 . S
C1640 C1641 1.377 . S
C1640 C1642 1.384 . S
C1641 C1640 1.377 . S
C1641 C1647 1.390 . S
C1642 H1633 0.930 . S
C1642 C1640 1.384 . S
C1642 C1643 1.372 . S
C1643 C1642 1.372 . S
C1643 C1644 1.400 . S
C1643 C1648 1.490 . S
C1644 H1634 0.930 . S
C1644 C1643 1.400 . S
C1644 C1647 1.386 . S
H1645 C1661 0.930 . S
H1646 C1662 0.931 . S
C1647 H1635 0.929 . S
C1647 C1641 1.390 . S
C1647 C1644 1.386 . S
C1648 C1643 1.490 . S
C1648 C1650 1.395 . S
C1648 C1651 1.403 . S
H1649 C1655 0.930 . S
C1650 H1636 0.930 . S
C1650 C1648 1.395 . S
C1650 C1653 1.403 . S
C1651 C1648 1.403 . S
C1651 C1652 1.524 . S
C1651 C1655 1.400 . S
C1652 H1637 0.960 . S
C1652 H1638 0.960 . S
C1652 H1639 0.960 . S
C1652 C1651 1.524 . S
C1653 C1650 1.403 . S
C1653 C1654 1.392 . S
C1653 C1657 1.495 . S
C1654 C1653 1.392 . S
C1654 C1655 1.385 . S
C1654 C1656 1.478 . S
C1655 H1649 0.930 . S
C1655 C1651 1.400 . S
C1655 C1654 1.385 . S
C1656 C1654 1.478 . S
C1656 C1658 1.381 . S
C1656 C1662 1.383 . S
C1657 C1653 1.495 . S
C1657 H1663 0.959 . S
C1657 H1664 0.961 . S
C1657 H1665 0.960 . S
C1658 C1656 1.381 . S
C1658 C1659 1.394 . S
C1658 H1666 0.930 . S
C1659 C1658 1.394 . S
C1659 C1660 1.383 . S
C1659 H1667 0.929 . S
C1660 C1659 1.383 . S
C1660 C1661 1.377 . S
C1661 H1645 0.930 . S
C1661 C1660 1.377 . S
C1661 C1662 1.379 . S
C1662 H1646 0.931 . S
C1662 C1656 1.383 . S
C1662 C1661 1.379 . S
H1663 C1657 0.959 . S
H1664 C1657 0.961 . S
H1665 C1657 0.960 . S
H1666 C1658 0.930 . S
H1667 C1659 0.929 . S
H1668 C1676 0.929 . S
H1669 C1678 0.930 . S
H1670 C1680 0.930 . S
H1671 C1683 0.929 . S
H1672 C1686 0.930 . S
H1673 C1688 0.960 . S
H1674 C1688 0.960 . S
H1675 C1688 0.960 . S
C1676 H1668 0.929 . S
C1676 C1677 1.377 . S
C1676 C1678 1.384 . S
C1677 C1676 1.377 . S
C1677 C1683 1.390 . S
C1678 H1669 0.930 . S
C1678 C1676 1.384 . S
C1678 C1679 1.372 . S
C1679 C1678 1.372 . S
C1679 C1680 1.400 . S
C1679 C1684 1.490 . S
C1680 H1670 0.930 . S
C1680 C1679 1.400 . S
C1680 C1683 1.386 . S
H1681 C1697 0.930 . S
H1682 C1698 0.931 . S
C1683 H1671 0.929 . S
C1683 C1677 1.390 . S
C1683 C1680 1.386 . S
C1684 C1679 1.490 . S
C1684 C1686 1.395 . S
C1684 C1687 1.403 . S
H1685 C1691 0.930 . S
C1686 H1672 0.930 . S
C1686 C1684 1.395 . S
C1686 C1689 1.403 . S
C1687 C1684 1.403 . S
C1687 C1688 1.524 . S
C1687 C1691 1.400 . S
C1688 H1673 0.960 . S
C1688 H1674 0.960 . S
C1688 H1675 0.960 . S
C1688 C1687 1.524 . S
C1689 C1686 1.403 . S
C1689 C1690 1.392 . S
C1689 C1693 1.495 . S
C1690 C1689 1.392 . S
C1690 C1691 1.385 . S
C1690 C1692 1.478 . S
C1691 H1685 0.930 . S
C1691 C1687 1.400 . S
C1691 C1690 1.385 . S
C1692 C1690 1.478 . S
C1692 C1694 1.381 . S
C1692 C1698 1.383 . S
C1693 C1689 1.495 . S
C1693 H1699 0.959 . S
C1693 H1700 0.961 . S
C1693 H1701 0.960 . S
C1694 C1692 1.381 . S
C1694 C1695 1.394 . S
C1694 H1702 0.930 . S
C1695 C1694 1.394 . S
C1695 C1696 1.383 . S
C1695 H1703 0.929 . S
C1696 C1695 1.383 . S
C1696 C1697 1.377 . S
C1697 H1681 0.930 . S
C1697 C1696 1.377 . S
C1697 C1698 1.379 . S
C1698 H1682 0.931 . S
C1698 C1692 1.383 . S
C1698 C1697 1.379 . S
H1699 C1693 0.959 . S
H1700 C1693 0.961 . S
H1701 C1693 0.960 . S
H1702 C1694 0.930 . S
H1703 C1695 0.929 . S
H1704 C1712 0.929 . S
H1705 C1714 0.930 . S
H1706 C1716 0.930 . S
H1707 C1719 0.929 . S
H1708 C1722 0.930 . S
H1709 C1724 0.960 . S
H1710 C1724 0.960 . S
H1711 C1724 0.960 . S
C1712 H1704 0.929 . S
C1712 C1713 1.377 . S
C1712 C1714 1.384 . S
C1713 C1712 1.377 . S
C1713 C1719 1.390 . S
C1714 H1705 0.930 . S
C1714 C1712 1.384 . S
C1714 C1715 1.372 . S
C1715 C1714 1.372 . S
C1715 C1716 1.400 . S
C1715 C1720 1.490 . S
C1716 H1706 0.930 . S
C1716 C1715 1.400 . S
C1716 C1719 1.386 . S
H1717 C1733 0.930 . S
H1718 C1734 0.931 . S
C1719 H1707 0.929 . S
C1719 C1713 1.390 . S
C1719 C1716 1.386 . S
C1720 C1715 1.490 . S
C1720 C1722 1.395 . S
C1720 C1723 1.403 . S
H1721 C1727 0.930 . S
C1722 H1708 0.930 . S
C1722 C1720 1.395 . S
C1722 C1725 1.403 . S
C1723 C1720 1.403 . S
C1723 C1724 1.524 . S
C1723 C1727 1.400 . S
C1724 H1709 0.960 . S
C1724 H1710 0.960 . S
C1724 H1711 0.960 . S
C1724 C1723 1.524 . S
C1725 C1722 1.403 . S
C1725 C1726 1.392 . S
C1725 C1729 1.495 . S
C1726 C1725 1.392 . S
C1726 C1727 1.385 . S
C1726 C1728 1.478 . S
C1727 H1721 0.930 . S
C1727 C1723 1.400 . S
C1727 C1726 1.385 . S
C1728 C1726 1.478 . S
C1728 C1730 1.381 . S
C1728 C1734 1.383 . S
C1729 C1725 1.495 . S
C1729 H1735 0.959 . S
C1729 H1736 0.961 . S
C1729 H1737 0.960 . S
C1730 C1728 1.381 . S
C1730 C1731 1.394 . S
C1730 H1738 0.930 . S
C1731 C1730 1.394 . S
C1731 C1732 1.383 . S
C1731 H1739 0.929 . S
C1732 C1731 1.383 . S
C1732 C1733 1.377 . S
C1733 H1717 0.930 . S
C1733 C1732 1.377 . S
C1733 C1734 1.379 . S
C1734 H1718 0.931 . S
C1734 C1728 1.383 . S
C1734 C1733 1.379 . S
H1735 C1729 0.959 . S
H1736 C1729 0.961 . S
H1737 C1729 0.960 . S
H1738 C1730 0.930 . S
H1739 C1731 0.929 . S
H1740 C1748 0.929 . S
H1741 C1750 0.930 . S
H1742 C1752 0.930 . S
H1743 C1755 0.929 . S
H1744 C1758 0.930 . S
H1745 C1760 0.960 . S
H1746 C1760 0.960 . S
H1747 C1760 0.960 . S
C1748 H1740 0.929 . S
C1748 C1749 1.377 . S
C1748 C1750 1.384 . S
C1749 C1748 1.377 . S
C1749 C1755 1.390 . S
C1750 H1741 0.930 . S
C1750 C1748 1.384 . S
C1750 C1751 1.372 . S
C1751 C1750 1.372 . S
C1751 C1752 1.400 . S
C1751 C1756 1.490 . S
C1752 H1742 0.930 . S
C1752 C1751 1.400 . S
C1752 C1755 1.386 . S
H1753 C1769 0.930 . S
H1754 C1770 0.931 . S
C1755 H1743 0.929 . S
C1755 C1749 1.390 . S
C1755 C1752 1.386 . S
C1756 C1751 1.490 . S
C1756 C1758 1.395 . S
C1756 C1759 1.403 . S
H1757 C1763 0.930 . S
C1758 H1744 0.930 . S
C1758 C1756 1.395 . S
C1758 C1761 1.403 . S
C1759 C1756 1.403 . S
C1759 C1760 1.524 . S
C1759 C1763 1.400 . S
C1760 H1745 0.960 . S
C1760 H1746 0.960 . S
C1760 H1747 0.960 . S
C1760 C1759 1.524 . S
C1761 C1758 1.403 . S
C1761 C1762 1.392 . S
C1761 C1765 1.495 . S
C1762 C1761 1.392 . S
C1762 C1763 1.385 . S
C1762 C1764 1.478 . S
C1763 H1757 0.930 . S
C1763 C1759 1.400 . S
C1763 C1762 1.385 . S
C1764 C1762 1.478 . S
C1764 C1766 1.381 . S
C1764 C1770 1.383 . S
C1765 C1761 1.495 . S
C1765 H1771 0.959 . S
C1765 H1772 0.961 . S
C1765 H1773 0.960 . S
C1766 C1764 1.381 . S
C1766 C1767 1.394 . S
C1766 H1774 0.930 . S
C1767 C1766 1.394 . S
C1767 C1768 1.383 . S
C1767 H1775 0.929 . S
C1768 C1767 1.383 . S
C1768 C1769 1.377 . S
C1769 H1753 0.930 . S
C1769 C1768 1.377 . S
C1769 C1770 1.379 . S
C1770 H1754 0.931 . S
C1770 C1764 1.383 . S
C1770 C1769 1.379 . S
H1771 C1765 0.959 . S
H1772 C1765 0.961 . S
H1773 C1765 0.960 . S
H1774 C1766 0.930 . S
H1775 C1767 0.929 . S
C921 C31 1.363 . S
C940 C341 1.329 . S
C957 C73 1.599 . S
C976 C612 1.566 . S
C993 C98 1.590 . S
C1012 C243 1.592 . S
C1029 C542 1.364 . S
C1048 C1 1.359 1_545 S
C1065 C113 1.369 1_655 S
C1084 C259 1.402 1_455 S
C1101 C156 1.600 . S
C1120 C529 1.630 . S
C1137 C326 1.596 . S
C1156 C15 1.559 . S
C1173 C457 1.363 . S
C1192 C86 1.363 . S
C1209 C827 1.370 1_556 S
C1228 C58 1.322 . S
C1245 C810 1.603 . S
C1264 C45 1.583 . S
C1281 C729 1.603 . S
C1300 C126 1.629 . S
C1317 C143 1.374 1_556 S
C1336 C742 1.358 . S
C1353 C840 1.597 . S
C1372 C301 1.632 . S
C1389 C229 1.380 . S
C1408 C770 1.373 . S
C1425 C384 1.590 . S
C1444 C757 1.565 . S
C1461 C685 1.364 . S
C1480 C314 1.329 . S
C1497 C599 1.381 . S
C1516 C286 1.389 . S
C1533 C273 1.591 . S
C1552 C582 1.553 . S
C1569 C354 1.603 . S
C1588 C501 1.636 . S
C1605 C514 1.377 . S
C1624 C371 1.411 . S
C1641 C797 1.366 . S
C1660 C487 1.327 . S
C1677 C554 1.594 . S
C1696 C699 1.563 . S
C1713 C715 1.375 . S
C1732 C569 1.342 . S
C1749 C471 1.590 . S
C1768 C782 1.566 . S
