# Generated by pormake.
# Topology acs-f, (3)-cn, num edge types: 1
# Building blocks:
#     Node 0, Type 0, BuildingBlock: WUSLED_clean_sbu_0, # of connection points: 3
#     Node 1, Type 0, BuildingBlock: WUSLED_clean_sbu_0, # of connection points: 3
#     Node 2, Type 0, BuildingBlock: WUSLED_clean_sbu_0, # of connection points: 3
#     Node 3, Type 0, BuildingBlock: WUSLED_clean_sbu_0, # of connection points: 3
#     Node 4, Type 0, BuildingBlock: WUSLED_clean_sbu_0, # of connection points: 3
#     Node 5, Type 0, BuildingBlock: WUSLED_clean_sbu_0, # of connection points: 3
#     Node 6, Type 0, BuildingBlock: WUSLED_clean_sbu_0, # of connection points: 3
#     Node 7, Type 0, BuildingBlock: WUSLED_clean_sbu_0, # of connection points: 3
#     Node 8, Type 0, BuildingBlock: WUSLED_clean_sbu_0, # of connection points: 3
#     Node 9, Type 0, BuildingBlock: WUSLED_clean_sbu_0, # of connection points: 3
#     Node 10, Type 0, BuildingBlock: WUSLED_clean_sbu_0, # of connection points: 3
#     Node 11, Type 0, BuildingBlock: WUSLED_clean_sbu_0, # of connection points: 3
#     Edge 12, Type (0, 0), BuildingBlock: KIFKEQ_clean_linker_1, # of connection points: 2
#     Edge 13, Type (0, 0), BuildingBlock: KIFKEQ_clean_linker_1, # of connection points: 2
#     Edge 14, Type (0, 0), BuildingBlock: KIFKEQ_clean_linker_1, # of connection points: 2
#     Edge 15, Type (0, 0), BuildingBlock: KIFKEQ_clean_linker_1, # of connection points: 2
#     Edge 16, Type (0, 0), BuildingBlock: KIFKEQ_clean_linker_1, # of connection points: 2
#     Edge 17, Type (0, 0), BuildingBlock: KIFKEQ_clean_linker_1, # of connection points: 2
#     Edge 18, Type (0, 0), BuildingBlock: KIFKEQ_clean_linker_1, # of connection points: 2
#     Edge 19, Type (0, 0), BuildingBlock: KIFKEQ_clean_linker_1, # of connection points: 2
#     Edge 20, Type (0, 0), BuildingBlock: KIFKEQ_clean_linker_1, # of connection points: 2
#     Edge 21, Type (0, 0), BuildingBlock: KIFKEQ_clean_linker_1, # of connection points: 2
#     Edge 22, Type (0, 0), BuildingBlock: KIFKEQ_clean_linker_1, # of connection points: 2
#     Edge 23, Type (0, 0), BuildingBlock: KIFKEQ_clean_linker_1, # of connection points: 2
#     Edge 24, Type (0, 0), BuildingBlock: KIFKEQ_clean_linker_1, # of connection points: 2
#     Edge 25, Type (0, 0), BuildingBlock: KIFKEQ_clean_linker_1, # of connection points: 2
#     Edge 26, Type (0, 0), BuildingBlock: KIFKEQ_clean_linker_1, # of connection points: 2
#     Edge 27, Type (0, 0), BuildingBlock: KIFKEQ_clean_linker_1, # of connection points: 2
#     Edge 28, Type (0, 0), BuildingBlock: KIFKEQ_clean_linker_1, # of connection points: 2
#     Edge 29, Type (0, 0), BuildingBlock: KIFKEQ_clean_linker_1, # of connection points: 2
# Relax obj value: 0.270
# Max RMSD: 0.159
# Mean RMSD: 0.147
data_MOF--net-acs-f--node1-WUSLED_clean_sbu_0--edge1-KIFKEQ_clean_linker_1
_symmetry_space_group_name_H-M    P1
_symmetry_Int_Tables_number       1
_symmetry_cell_setting            triclinic
loop_
_symmetry_equiv_pos_as_xyz
'x, y, z'
_cell_length_a     53.181637
_cell_length_b     53.182285
_cell_length_c     66.977715
_cell_angle_alpha  89.855332
_cell_angle_beta   89.843274
_cell_angle_gamma 114.70312
loop_
_atom_site_label
_atom_site_type_symbol
_atom_site_fract_x
_atom_site_fract_y
_atom_site_fract_z
_atom_type_partial_charge
C0 C 0.1041 0.38373 0.15384 0.0
C1 C 0.10899 0.40478 0.16791 0.0
C2 C 0.12131 0.37846 0.19279 0.0
C3 C 0.11738 0.4021 0.18726 0.0
C4 C 0.11577 0.35719 0.17876 0.0
C5 C 0.1072 0.35981 0.15947 0.0
U6 U 0.07215 0.413 0.11386 0.0
O7 O 0.09008 0.42985 0.0846 0.0
O8 O 0.05008 0.39369 0.08628 0.0
C9 C 0.06856 0.41243 0.07474 0.0
C10 C 0.09714 0.38689 0.13302 0.0
C11 C 0.05766 0.42506 0.05948 0.0
C12 C 0.04936 0.43085 0.02451 0.0
C13 C 0.05806 0.41787 0.03942 0.0
C14 C 0.03937 0.45812 0.04965 0.0
C15 C 0.04016 0.45132 0.02942 0.0
C16 C 0.04804 0.44507 0.06457 0.0
C17 C 0.04986 0.44629 0.15678 0.0
C18 C 0.04399 0.47482 0.18298 0.0
C19 C 0.05205 0.43454 0.19166 0.0
C20 C 0.05307 0.42884 0.17135 0.0
C21 C 0.04744 0.45759 0.19769 0.0
C22 C 0.04527 0.46925 0.16272 0.0
C23 C 0.05156 0.44112 0.13537 0.0
O24 O 0.07072 0.37518 0.12844 0.0
O25 O 0.11021 0.41178 0.12531 0.0
O26 O 0.03692 0.41557 0.12948 0.0
O27 O 0.07656 0.4522 0.12758 0.0
H28 H 0.10695 0.42355 0.1638 0.0
H29 H 0.12173 0.41896 0.19766 0.0
H30 H 0.1183 0.3386 0.18265 0.0
H31 H 0.1035 0.34335 0.14881 0.0
H32 H 0.05055 0.42536 0.00908 0.0
H33 H 0.06556 0.40255 0.03525 0.0
H34 H 0.03206 0.47353 0.05396 0.0
H35 H 0.04759 0.45083 0.08003 0.0
H36 H 0.04082 0.49296 0.18713 0.0
H37 H 0.05459 0.42079 0.20262 0.0
H38 H 0.05633 0.41082 0.16701 0.0
H39 H 0.04282 0.48297 0.15168 0.0
C40 C 0.64776 0.72304 0.14674 0.0
C41 C 0.63815 0.71141 0.16559 0.0
C42 C 0.6622 0.75653 0.18111 0.0
C43 C 0.64526 0.72799 0.18261 0.0
C44 C 0.67227 0.76794 0.16218 0.0
C45 C 0.66506 0.75131 0.14513 0.0
U46 U 0.60897 0.65275 0.12365 0.0
O47 O 0.58167 0.64129 0.09754 0.0
O48 O 0.61925 0.63356 0.09755 0.0
C49 C 0.59703 0.63139 0.08778 0.0
C50 C 0.63894 0.70587 0.12877 0.0
C51 C 0.5825 0.60619 0.07595 0.0
C52 C 0.57859 0.58347 0.04399 0.0
C53 C 0.59337 0.60482 0.05712 0.0
C54 C 0.54219 0.56354 0.06871 0.0
C55 C 0.55257 0.56293 0.04944 0.0
C56 C 0.557 0.58515 0.08187 0.0
C57 C 0.57577 0.59578 0.16567 0.0
C58 C 0.5328 0.55499 0.1711 0.0
C59 C 0.56958 0.5677 0.19547 0.0
C60 C 0.58604 0.5901 0.18353 0.0
C61 C 0.5424 0.5503 0.18975 0.0
C62 C 0.5493 0.57766 0.15919 0.0
C63 C 0.59158 0.62288 0.1562 0.0
O64 O 0.64975 0.68792 0.12643 0.0
O65 O 0.61216 0.69522 0.1255 0.0
O66 O 0.5776 0.63493 0.14715 0.0
O67 O 0.61514 0.62707 0.1474 0.0
H68 H 0.62469 0.68958 0.16707 0.0
H69 H 0.63678 0.71857 0.19687 0.0
H70 H 0.68563 0.78975 0.16052 0.0
H71 H 0.67271 0.76057 0.13066 0.0
H72 H 0.58735 0.58328 0.0294 0.0
H73 H 0.61298 0.62088 0.05226 0.0
H74 H 0.52218 0.54797 0.07329 0.0
H75 H 0.5482 0.58589 0.09635 0.0
H76 H 0.51219 0.54173 0.16601 0.0
H77 H 0.57768 0.56518 0.20978 0.0
H78 H 0.60631 0.604 0.18889 0.0
H79 H 0.54096 0.58166 0.14542 0.0
C80 C 0.24282 0.87283 0.16532 0.0
C81 C 0.25289 0.88652 0.18342 0.0
C82 C 0.21357 0.85204 0.2012 0.0
C83 C 0.23834 0.8763 0.20117 0.0
C84 C 0.20304 0.83898 0.18289 0.0
C85 C 0.21762 0.84927 0.1651 0.0
U86 U 0.31329 0.9116 0.14277 0.0
O87 O 0.3343 0.89759 0.11992 0.0
O88 O 0.32745 0.93513 0.11479 0.0
C89 C 0.33854 0.91878 0.10813 0.0
C90 C 0.26013 0.88117 0.14727 0.0
C91 C 0.36624 0.93208 0.09901 0.0
C92 C 0.39774 0.93112 0.07305 0.0
C93 C 0.37239 0.91873 0.08297 0.0
C94 C 0.41151 0.97048 0.09526 0.0
C95 C 0.41754 0.95725 0.07893 0.0
C96 C 0.38606 0.95793 0.10529 0.0
C97 C 0.36894 0.94945 0.18358 0.0
C98 C 0.41656 0.95643 0.18903 0.0
C99 C 0.39523 0.97812 0.21097 0.0
C100 C 0.37099 0.96685 0.19976 0.0
C101 C 0.41789 0.97216 0.20619 0.0
C102 C 0.39219 0.94506 0.17781 0.0
C103 C 0.3413 0.93314 0.17528 0.0
O104 O 0.27037 0.90767 0.14273 0.0
O105 O 0.27854 0.87076 0.14614 0.0
O106 O 0.33627 0.90812 0.16894 0.0
O107 O 0.33025 0.9462 0.16411 0.0
H108 H 0.27247 0.90461 0.1839 0.0
H109 H 0.24681 0.88706 0.21496 0.0
H110 H 0.18418 0.82011 0.18242 0.0
H111 H 0.20975 0.83827 0.15128 0.0
H112 H 0.40147 0.92055 0.06035 0.0
H113 H 0.35731 0.89882 0.07786 0.0
H114 H 0.42644 0.9905 0.10025 0.0
H115 H 0.38175 0.96853 0.11773 0.0
H116 H 0.43367 0.95141 0.18503 0.0
H117 H 0.39581 0.99049 0.22393 0.0
H118 H 0.35326 0.97047 0.20444 0.0
H119 H 0.39106 0.93168 0.16535 0.0
C120 C 0.66128 0.88299 0.3438 0.0
C121 C 0.66251 0.89686 0.32572 0.0
C122 C 0.67218 0.86219 0.30771 0.0
C123 C 0.66803 0.88664 0.30786 0.0
C124 C 0.67213 0.84904 0.32599 0.0
C125 C 0.66664 0.85934 0.34389 0.0
U126 U 0.62138 0.91969 0.36623 0.0
O127 O 0.58901 0.90483 0.38939 0.0
O128 O 0.62624 0.94347 0.39389 0.0
C129 C 0.60185 0.92643 0.40084 0.0
C130 C 0.65084 0.891 0.3619 0.0
C131 C 0.58441 0.93891 0.40963 0.0
C132 C 0.55267 0.938 0.43599 0.0
C133 C 0.5688 0.92645 0.42665 0.0
C134 C 0.56732 0.97472 0.41124 0.0
C135 C 0.55184 0.96235 0.42849 0.0
C136 C 0.58342 0.963 0.4018 0.0
C137 C 0.59471 0.95509 0.3251 0.0
C138 C 0.55178 0.95994 0.31965 0.0
C139 C 0.59087 0.98288 0.29747 0.0
C140 C 0.60654 0.97261 0.30875 0.0
C141 C 0.56302 0.97578 0.30234 0.0
C142 C 0.56751 0.94958 0.33094 0.0
C143 C 0.60978 0.93983 0.33351 0.0
O144 O 0.66189 0.91757 0.3661 0.0
O145 O 0.62374 0.87961 0.36339 0.0
O146 O 0.5948 0.9147 0.34024 0.0
O147 O 0.63172 0.95378 0.34441 0.0
H148 H 0.65813 0.91502 0.32532 0.0
H149 H 0.66831 0.89746 0.29409 0.0
H150 H 0.67496 0.83002 0.32637 0.0
H151 H 0.6654 0.84819 0.35769 0.0
H152 H 0.54138 0.9282 0.44941 0.0
H153 H 0.56937 0.90788 0.43292 0.0
H154 H 0.56692 0.99337 0.40503 0.0
H155 H 0.59522 0.97283 0.38856 0.0
H156 H 0.53033 0.95405 0.32372 0.0
H157 H 0.60018 0.99537 0.28438 0.0
H158 H 0.62749 0.97709 0.30401 0.0
H159 H 0.55796 0.93609 0.34353 0.0
C160 C 0.10932 0.72261 0.36521 0.0
C161 C 0.11013 0.70925 0.34736 0.0
C162 C 0.12715 0.75324 0.3295 0.0
C163 C 0.11899 0.72442 0.32966 0.0
C164 C 0.1258 0.76642 0.34743 0.0
C165 C 0.11698 0.7512 0.36514 0.0
U166 U 0.08267 0.65397 0.39248 0.0
O167 O 0.0965 0.6435 0.42102 0.0
O168 O 0.05364 0.63888 0.41773 0.0
C169 C 0.07205 0.63591 0.42943 0.0
C170 C 0.10118 0.70688 0.38397 0.0
C171 C 0.06237 0.61099 0.44205 0.0
C172 C 0.05835 0.59172 0.47539 0.0
C173 C 0.06857 0.61436 0.46243 0.0
C174 C 0.03602 0.56163 0.4476 0.0
C175 C 0.04163 0.56514 0.46822 0.0
C176 C 0.04628 0.58446 0.43459 0.0
C177 C 0.06721 0.59163 0.35502 0.0
C178 C 0.08095 0.5559 0.34325 0.0
C179 C 0.03809 0.55649 0.33178 0.0
C180 C 0.04284 0.57946 0.34377 0.0
C181 C 0.05769 0.54516 0.33068 0.0
C182 C 0.08573 0.57898 0.35523 0.0
C183 C 0.07563 0.62021 0.36239 0.0
O184 O 0.07472 0.69053 0.3857 0.0
O185 O 0.1173 0.69499 0.38951 0.0
O186 O 0.09907 0.63196 0.37219 0.0
O187 O 0.05618 0.62735 0.36888 0.0
H188 H 0.10431 0.68714 0.34719 0.0
H189 H 0.12014 0.71366 0.31623 0.0
H190 H 0.13157 0.7885 0.34778 0.0
H191 H 0.11636 0.76179 0.37881 0.0
H192 H 0.06351 0.59507 0.49108 0.0
H193 H 0.08105 0.6347 0.46843 0.0
H194 H 0.0231 0.54143 0.44165 0.0
H195 H 0.04129 0.58149 0.41885 0.0
H196 H 0.09622 0.54737 0.34304 0.0
H197 H 0.02009 0.54905 0.32221 0.0
H198 H 0.02837 0.58895 0.34304 0.0
H199 H 0.10481 0.5879 0.36362 0.0
C200 C 0.25001 0.39088 0.35746 0.0
C201 C 0.25703 0.38236 0.33927 0.0
C202 C 0.21545 0.38201 0.32394 0.0
C203 C 0.23981 0.37781 0.32269 0.0
C204 C 0.20832 0.39021 0.34227 0.0
C205 C 0.22546 0.39456 0.3589 0.0
U206 U 0.323 0.41517 0.37673 0.0
O207 O 0.34343 0.4452 0.4004 0.0
O208 O 0.33936 0.40243 0.40323 0.0
C209 C 0.34903 0.42737 0.41105 0.0
C210 C 0.26915 0.39798 0.37445 0.0
C211 C 0.37615 0.43756 0.42121 0.0
C212 C 0.40358 0.43037 0.44779 0.0
C213 C 0.3812 0.41995 0.43467 0.0
C214 C 0.41726 0.47608 0.43354 0.0
C215 C 0.42134 0.45874 0.44785 0.0
C216 C 0.39485 0.46564 0.42038 0.0
C217 C 0.37609 0.42861 0.33203 0.0
C218 C 0.41836 0.46457 0.31847 0.0
C219 C 0.39945 0.41882 0.30384 0.0
C220 C 0.37815 0.41001 0.318 0.0
C221 C 0.41915 0.44647 0.30343 0.0
C222 C 0.39692 0.45576 0.33261 0.0
C223 C 0.34959 0.42061 0.3428 0.0
O224 O 0.28123 0.38125 0.37769 0.0
O225 O 0.2863 0.42425 0.37543 0.0
O226 O 0.34416 0.4404 0.35074 0.0
O227 O 0.34019 0.39759 0.35335 0.0
H228 H 0.27613 0.37983 0.33776 0.0
H229 H 0.24606 0.3719 0.30871 0.0
H230 H 0.1896 0.39345 0.34369 0.0
H231 H 0.21984 0.40132 0.37279 0.0
H232 H 0.40641 0.41635 0.45838 0.0
H233 H 0.367 0.39829 0.43579 0.0
H234 H 0.43044 0.49807 0.43324 0.0
H235 H 0.39144 0.47986 0.41032 0.0
H236 H 0.43319 0.48604 0.31848 0.0
H237 H 0.39975 0.40431 0.29262 0.0
H238 H 0.36225 0.38904 0.31715 0.0
H239 H 0.39578 0.47062 0.34319 0.0
C240 C 0.8874 0.65522 0.8463 0.0
C241 C 0.90021 0.66178 0.82745 0.0
C242 C 0.85987 0.66608 0.81375 0.0
C243 C 0.88664 0.66736 0.81136 0.0
C244 C 0.84738 0.66017 0.83275 0.0
C245 C 0.86108 0.65484 0.8489 0.0
U246 U 0.93024 0.61772 0.86273 0.0
O247 O 0.96139 0.62652 0.88651 0.0
O248 O 0.92278 0.58843 0.88752 0.0
C249 C 0.94689 0.60303 0.89581 0.0
C250 C 0.89999 0.64599 0.86266 0.0
C251 C 0.96216 0.58765 0.90388 0.0
C252 C 0.9928 0.58454 0.92968 0.0
C253 C 0.98138 0.59991 0.91913 0.0
C254 C 0.96687 0.54455 0.90928 0.0
C255 C 0.98513 0.55647 0.92524 0.0
C256 C 0.95548 0.56 0.89867 0.0
C257 C 0.95539 0.58872 0.81664 0.0
C258 C 0.9746 0.55464 0.81439 0.0
C259 C 0.96719 0.5761 0.78436 0.0
C260 C 0.95732 0.59182 0.79588 0.0
C261 C 0.97562 0.55697 0.79337 0.0
C262 C 0.96445 0.57037 0.82596 0.0
C263 C 0.94185 0.60354 0.82759 0.0
O264 O 0.88954 0.61903 0.86513 0.0
O265 O 0.92719 0.65773 0.86351 0.0
O266 O 0.9579 0.62661 0.83658 0.0
O267 O 0.91951 0.58833 0.83784 0.0
H268 H 0.92034 0.66173 0.825 0.0
H269 H 0.89662 0.67147 0.79685 0.0
H270 H 0.82682 0.6592 0.83504 0.0
H271 H 0.85078 0.64959 0.86329 0.0
H272 H 0.00651 0.59432 0.942 0.0
H273 H 0.98662 0.6211 0.92353 0.0
H274 H 0.96085 0.52308 0.90532 0.0
H275 H 0.94072 0.55003 0.88693 0.0
H276 H 0.98117 0.54034 0.82187 0.0
H277 H 0.96698 0.57814 0.76828 0.0
H278 H 0.95021 0.60578 0.78845 0.0
H279 H 0.96306 0.56775 0.84204 0.0
C280 C 0.38828 0.24749 0.85256 0.0
C281 C 0.37622 0.25372 0.83573 0.0
C282 C 0.3825 0.21775 0.81671 0.0
C283 C 0.37317 0.23887 0.81805 0.0
C284 C 0.39384 0.21106 0.83381 0.0
C285 C 0.39666 0.22579 0.85156 0.0
U286 U 0.41239 0.31889 0.87449 0.0
O287 O 0.40007 0.33445 0.90161 0.0
O288 O 0.44242 0.33752 0.89845 0.0
C289 C 0.42505 0.34352 0.90933 0.0
C290 C 0.39488 0.26524 0.87038 0.0
C291 C 0.4361 0.37084 0.91931 0.0
C292 C 0.42904 0.40158 0.94338 0.0
C293 C 0.41835 0.37854 0.93082 0.0
C294 C 0.47546 0.41028 0.93268 0.0
C295 C 0.4578 0.41731 0.94487 0.0
C296 C 0.46477 0.38733 0.92008 0.0
C297 C 0.42741 0.37481 0.8321 0.0
C298 C 0.46042 0.42273 0.82814 0.0
C299 C 0.42639 0.40066 0.80244 0.0
C300 C 0.41546 0.37645 0.81383 0.0
C301 C 0.44954 0.42391 0.80915 0.0
C302 C 0.44952 0.39831 0.8395 0.0
C303 C 0.4186 0.34734 0.84136 0.0
O304 O 0.42116 0.2821 0.87203 0.0
O305 O 0.37821 0.2772 0.87431 0.0
O306 O 0.39549 0.33772 0.85179 0.0
O307 O 0.43808 0.34118 0.84901 0.0
H308 H 0.36983 0.27057 0.83605 0.0
H309 H 0.36389 0.24427 0.80532 0.0
H310 H 0.40157 0.19519 0.83329 0.0
H311 H 0.4063 0.22088 0.86432 0.0
H312 H 0.4148 0.40665 0.95229 0.0
H313 H 0.3962 0.36608 0.93076 0.0
H314 H 0.49772 0.42167 0.93358 0.0
H315 H 0.47912 0.38183 0.91165 0.0
H316 H 0.47793 0.44038 0.83395 0.0
H317 H 0.41764 0.40047 0.78784 0.0
H318 H 0.39851 0.35843 0.8078 0.0
H319 H 0.45902 0.39744 0.85362 0.0
C320 C 0.69371 0.1113 0.85595 0.0
C321 C 0.6814 0.12429 0.84355 0.0
C322 C 0.7143 0.1283 0.81696 0.0
C323 C 0.69152 0.13258 0.82421 0.0
C324 C 0.72617 0.11481 0.82934 0.0
C325 C 0.71594 0.10638 0.84861 0.0
U326 U 0.63915 0.08158 0.89797 0.0
O327 O 0.64081 0.05701 0.92397 0.0
O328 O 0.64105 0.09797 0.92834 0.0
C329 C 0.63931 0.07499 0.93682 0.0
C330 C 0.68491 0.104 0.87686 0.0
C331 C 0.61764 0.06346 0.95213 0.0
C332 C 0.60417 0.05665 0.98709 0.0
C333 C 0.62467 0.06751 0.97238 0.0
C334 C 0.5694 0.03759 0.96136 0.0
C335 C 0.57631 0.04147 0.98174 0.0
C336 C 0.58989 0.04856 0.94668 0.0
C337 C 0.58171 0.06497 0.85896 0.0
C338 C 0.54331 0.05284 0.83594 0.0
C339 C 0.59042 0.07696 0.82382 0.0
C340 C 0.6003 0.07681 0.84315 0.0
C341 C 0.56178 0.06497 0.82003 0.0
C342 C 0.55321 0.05293 0.85524 0.0
C343 C 0.59152 0.06529 0.87945 0.0
O344 O 0.67325 0.11849 0.88572 0.0
O345 O 0.67279 0.07741 0.88104 0.0
O346 O 0.60424 0.08991 0.88748 0.0
O347 O 0.60389 0.04891 0.88297 0.0
H348 H 0.66429 0.12846 0.8489 0.0
H349 H 0.68163 0.14257 0.815 0.0
H350 H 0.74399 0.11154 0.82443 0.0
H351 H 0.72585 0.09657 0.85798 0.0
H352 H 0.61018 0.05976 0.00264 0.0
H353 H 0.64602 0.07901 0.97682 0.0
H354 H 0.5481 0.02634 0.95675 0.0
H355 H 0.58409 0.04544 0.93108 0.0
H356 H 0.52116 0.0437 0.83352 0.0
H357 H 0.60515 0.08617 0.81183 0.0
H358 H 0.62237 0.0859 0.84579 0.0
H359 H 0.53859 0.04372 0.86731 0.0
C360 C 0.3946 0.11424 0.64472 0.0
C361 C 0.4174 0.12414 0.65765 0.0
C362 C 0.38905 0.13156 0.6836 0.0
C363 C 0.41461 0.1326 0.67699 0.0
C364 C 0.36619 0.1211 0.67071 0.0
C365 C 0.36896 0.11249 0.65146 0.0
U366 U 0.42458 0.08444 0.60328 0.0
O367 O 0.43655 0.10065 0.5728 0.0
O368 O 0.40278 0.05956 0.57742 0.0
C369 C 0.41939 0.0775 0.56448 0.0
C370 C 0.39716 0.10676 0.6239 0.0
C371 C 0.43194 0.06595 0.54963 0.0
C372 C 0.4391 0.057 0.51503 0.0
C373 C 0.4271 0.06788 0.52925 0.0
C374 C 0.46091 0.0422 0.5415 0.0
C375 C 0.45607 0.04395 0.521 0.0
C376 C 0.44898 0.05314 0.55568 0.0
C377 C 0.46815 0.06831 0.64275 0.0
C378 C 0.49978 0.06065 0.66541 0.0
C379 C 0.46507 0.07473 0.67842 0.0
C380 C 0.45546 0.07499 0.65901 0.0
C381 C 0.48728 0.06744 0.6818 0.0
C382 C 0.49033 0.06117 0.64605 0.0
C383 C 0.4587 0.06863 0.62223 0.0
O384 O 0.42092 0.12131 0.61497 0.0
O385 O 0.38727 0.08014 0.62006 0.0
O386 O 0.46645 0.09324 0.61405 0.0
O387 O 0.43272 0.05207 0.61867 0.0
H388 H 0.43746 0.12586 0.6527 0.0
H389 H 0.43265 0.1408 0.68651 0.0
H390 H 0.34617 0.11973 0.67546 0.0
H391 H 0.35113 0.10487 0.6417 0.0
H392 H 0.43476 0.05845 0.49938 0.0
H393 H 0.414 0.07774 0.52435 0.0
H394 H 0.47418 0.03264 0.54657 0.0
H395 H 0.45307 0.05166 0.57138 0.0
H396 H 0.51712 0.05527 0.66752 0.0
H397 H 0.45486 0.07979 0.69078 0.0
H398 H 0.43807 0.08021 0.6567 0.0
H399 H 0.50037 0.056 0.63363 0.0
C400 C 0.84564 0.24014 0.65444 0.0
C401 C 0.85812 0.24666 0.67329 0.0
C402 C 0.8165 0.2122 0.68887 0.0
C403 C 0.84376 0.23272 0.69031 0.0
C404 C 0.80433 0.2053 0.66985 0.0
C405 C 0.8188 0.21919 0.65279 0.0
U406 U 0.89765 0.3076 0.63354 0.0
O407 O 0.92729 0.31722 0.60846 0.0
O408 O 0.89373 0.33116 0.60776 0.0
C409 C 0.91583 0.33129 0.59881 0.0
C410 C 0.85955 0.2568 0.63686 0.0
C411 C 0.93452 0.35745 0.58924 0.0
C412 C 0.96286 0.37992 0.56037 0.0
C413 C 0.94844 0.35613 0.57175 0.0
C414 C 0.95068 0.40709 0.58431 0.0
C415 C 0.9636 0.40558 0.56624 0.0
C416 C 0.93627 0.38322 0.59573 0.0
C417 C 0.93388 0.36008 0.67683 0.0
C418 C 0.95839 0.41019 0.67762 0.0
C419 C 0.9526 0.38342 0.70798 0.0
C420 C 0.93874 0.35912 0.69727 0.0
C421 C 0.96217 0.40938 0.69844 0.0
C422 C 0.94421 0.38568 0.66689 0.0
C423 C 0.91566 0.33412 0.66717 0.0
O424 O 0.85379 0.27818 0.63365 0.0
O425 O 0.88607 0.26276 0.63504 0.0
O426 O 0.92735 0.31959 0.65844 0.0
O427 O 0.89422 0.33414 0.65746 0.0
H428 H 0.87876 0.26297 0.67491 0.0
H429 H 0.85395 0.23826 0.70465 0.0
H430 H 0.78329 0.18985 0.66821 0.0
H431 H 0.80874 0.21412 0.63838 0.0
H432 H 0.97228 0.3779 0.54647 0.0
H433 H 0.94717 0.33642 0.5664 0.0
H434 H 0.95123 0.42662 0.58941 0.0
H435 H 0.92574 0.38477 0.60923 0.0
H436 H 0.96579 0.42974 0.6697 0.0
H437 H 0.95446 0.38177 0.72397 0.0
H438 H 0.9307 0.33951 0.7052 0.0
H439 H 0.94062 0.38675 0.65106 0.0
C440 C 0.72673 0.64734 0.6506 0.0
C441 C 0.71887 0.65958 0.66659 0.0
C442 C 0.75831 0.66145 0.68601 0.0
C443 C 0.73461 0.66674 0.68405 0.0
C444 C 0.76647 0.64986 0.66971 0.0
C445 C 0.75088 0.64298 0.65219 0.0
U446 U 0.65533 0.60777 0.62911 0.0
O447 O 0.63591 0.61439 0.60182 0.0
O448 O 0.64236 0.57641 0.60541 0.0
C449 C 0.63208 0.59023 0.59428 0.0
C450 C 0.70879 0.63669 0.63302 0.0
C451 C 0.60554 0.57404 0.58404 0.0
C452 C 0.56564 0.57268 0.56551 0.0
C453 C 0.58778 0.58634 0.57845 0.0
C454 C 0.5779 0.53373 0.56409 0.0
C455 C 0.56085 0.5465 0.55778 0.0
C456 C 0.60002 0.54737 0.57699 0.0
C457 C 0.59892 0.58106 0.67202 0.0
C458 C 0.56241 0.53824 0.68431 0.0
C459 C 0.56903 0.58196 0.69927 0.0
C460 C 0.59052 0.59586 0.68582 0.0
C461 C 0.55551 0.55292 0.69921 0.0
C462 C 0.58402 0.55218 0.67086 0.0
C463 C 0.62612 0.59554 0.66222 0.0
O464 O 0.69728 0.60959 0.63159 0.0
O465 O 0.69158 0.64801 0.62908 0.0
O466 O 0.63053 0.61784 0.65161 0.0
O467 O 0.63805 0.58033 0.65484 0.0
H468 H 0.70019 0.663 0.66583 0.0
H469 H 0.72794 0.67605 0.69612 0.0
H470 H 0.7843 0.64505 0.67073 0.0
H471 H 0.75716 0.63332 0.6401 0.0
H472 H 0.55266 0.58293 0.56118 0.0
H473 H 0.59158 0.60699 0.5834 0.0
H474 H 0.57506 0.51374 0.55825 0.0
H475 H 0.6136 0.53753 0.58069 0.0
H476 H 0.55247 0.51584 0.68393 0.0
H477 H 0.56389 0.59386 0.71037 0.0
H478 H 0.6018 0.61811 0.68708 0.0
H479 H 0.59011 0.5402 0.66043 0.0
H480 H 0.19341 0.41709 0.31078 0.0
H481 H 0.19916 0.34062 0.29624 0.0
H482 H 0.1686 0.41447 0.27977 0.0
H483 H 0.17384 0.33761 0.26537 0.0
H484 H 0.16183 0.36146 0.20143 0.0
H485 H 0.18212 0.36054 0.23376 0.0
H486 H 0.12648 0.39037 0.26171 0.0
H487 H 0.10647 0.39171 0.22915 0.0
C488 C 0.1889 0.39944 0.30112 0.0
C489 C 0.19834 0.37912 0.30589 0.0
C490 C 0.17462 0.3979 0.28334 0.0
C491 C 0.16932 0.3759 0.26998 0.0
C492 C 0.17804 0.35513 0.27511 0.0
C493 C 0.19247 0.35678 0.29281 0.0
C494 C 0.15366 0.36746 0.21452 0.0
C495 C 0.13252 0.37662 0.21275 0.0
C496 C 0.16526 0.36688 0.23309 0.0
C497 C 0.15593 0.37533 0.2504 0.0
C498 C 0.13445 0.3841 0.24866 0.0
C499 C 0.12294 0.38483 0.23003 0.0
H500 H 0.66369 0.80846 0.18404 0.0
H501 H 0.67395 0.745 0.21899 0.0
H502 H 0.67 0.83633 0.21394 0.0
H503 H 0.67892 0.77232 0.24908 0.0
H504 H 0.70681 0.83755 0.29796 0.0
H505 H 0.70792 0.8141 0.26683 0.0
H506 H 0.64268 0.83372 0.24321 0.0
H507 H 0.64171 0.85712 0.27409 0.0
C508 C 0.6676 0.80056 0.19806 0.0
C509 C 0.66816 0.7744 0.19911 0.0
C510 C 0.67087 0.81641 0.21526 0.0
C511 C 0.67469 0.80646 0.23396 0.0
C512 C 0.67621 0.78072 0.23491 0.0
C513 C 0.673 0.76489 0.21769 0.0
C514 C 0.69279 0.83689 0.28607 0.0
C515 C 0.67427 0.84931 0.28848 0.0
C516 C 0.6934 0.82344 0.26826 0.0
C517 C 0.67544 0.82209 0.25249 0.0
C518 C 0.65721 0.83485 0.25486 0.0
C519 C 0.65664 0.84829 0.2726 0.0
H520 H 0.17095 0.80383 0.32552 0.0
H521 H 0.10804 0.7395 0.29128 0.0
H522 H 0.19026 0.82948 0.2949 0.0
H523 H 0.12815 0.7646 0.26054 0.0
H524 H 0.15798 0.82831 0.20996 0.0
H525 H 0.13579 0.80598 0.24118 0.0
H526 H 0.21612 0.82454 0.26668 0.0
H527 H 0.23817 0.84681 0.23567 0.0
C528 C 0.16107 0.79525 0.31148 0.0
C529 C 0.13798 0.76954 0.31087 0.0
C530 C 0.17236 0.80982 0.29389 0.0
C531 C 0.16089 0.79901 0.27524 0.0
C532 C 0.13737 0.77364 0.27465 0.0
C533 C 0.12605 0.75907 0.29226 0.0
C534 C 0.17085 0.8276 0.22226 0.0
C535 C 0.19984 0.83946 0.22036 0.0
C536 C 0.15815 0.81479 0.24013 0.0
C537 C 0.17418 0.81354 0.25646 0.0
C538 C 0.20316 0.82561 0.25456 0.0
C539 C 0.21582 0.8384 0.23676 0.0
H540 H 0.81433 0.6801 0.69196 0.0
H541 H 0.73669 0.65365 0.72392 0.0
H542 H 0.83833 0.68331 0.72335 0.0
H543 H 0.76094 0.65871 0.75535 0.0
H544 H 0.8067 0.63303 0.80356 0.0
H545 H 0.78235 0.63477 0.77328 0.0
H546 H 0.85359 0.70746 0.75385 0.0
H547 H 0.87821 0.70512 0.78404 0.0
C548 C 0.80238 0.67522 0.70567 0.0
C549 C 0.77349 0.66637 0.7053 0.0
C550 C 0.81624 0.67746 0.72375 0.0
C551 C 0.80159 0.67113 0.74195 0.0
C552 C 0.77286 0.6633 0.74163 0.0
C553 C 0.75898 0.66081 0.72355 0.0
C554 C 0.81699 0.64963 0.79296 0.0
C555 C 0.84436 0.66893 0.79616 0.0
C556 C 0.80301 0.6507 0.77559 0.0
C557 C 0.81597 0.67125 0.76104 0.0
C558 C 0.84312 0.69106 0.76454 0.0
C559 C 0.8572 0.68981 0.78186 0.0
H560 H 0.39294 0.24116 0.77945 0.0
H561 H 0.37103 0.16301 0.80992 0.0
H562 H 0.39304 0.21909 0.74773 0.0
H563 H 0.37177 0.14108 0.77804 0.0
H564 H 0.4095 0.12346 0.7194 0.0
H565 H 0.40672 0.1433 0.75183 0.0
H566 H 0.35982 0.18405 0.72508 0.0
H567 H 0.36303 0.16471 0.6927 0.0
C568 C 0.38776 0.21919 0.7794 0.0
C569 C 0.3818 0.20387 0.7973 0.0
C570 C 0.38793 0.20657 0.76118 0.0
C571 C 0.38237 0.17835 0.76039 0.0
C572 C 0.37642 0.16294 0.77823 0.0
C573 C 0.37604 0.17554 0.79648 0.0
C574 C 0.39864 0.13668 0.72048 0.0
C575 C 0.3865 0.14254 0.70351 0.0
C576 C 0.39683 0.14782 0.73906 0.0
C577 C 0.38309 0.16527 0.74097 0.0
C578 C 0.37074 0.17087 0.72403 0.0
C579 C 0.37236 0.15958 0.70553 0.0
H580 H 0.78049 0.15776 0.69469 0.0
H581 H 0.81606 0.23682 0.72456 0.0
H582 H 0.75359 0.13672 0.72465 0.0
H583 H 0.79036 0.21559 0.75468 0.0
H584 H 0.7216 0.17743 0.7994 0.0
H585 H 0.74425 0.19648 0.7678 0.0
H586 H 0.75926 0.12358 0.75828 0.0
H587 H 0.73526 0.10384 0.78944 0.0
C588 C 0.7826 0.17065 0.70763 0.0
C589 C 0.80051 0.19899 0.7072 0.0
C590 C 0.76739 0.15852 0.72488 0.0
C591 C 0.76974 0.17446 0.74209 0.0
C592 C 0.7877 0.20276 0.74163 0.0
C593 C 0.8028 0.21487 0.72442 0.0
C594 C 0.7292 0.16518 0.7904 0.0
C595 C 0.72663 0.1391 0.79704 0.0
C596 C 0.74257 0.1763 0.77239 0.0
C597 C 0.75387 0.16172 0.76057 0.0
C598 C 0.75068 0.13533 0.76693 0.0
C599 C 0.73719 0.12414 0.78493 0.0
H600 H 0.05267 0.50662 0.02684 0.0
H601 H 0.00978 0.42936 0.99574 0.0
H602 H 0.03999 0.53089 1.00058 0.0
H603 H 0.9979 0.45382 0.96908 0.0
H604 H 0.9546 0.504 0.93919 0.0
H605 H 0.96831 0.47801 0.96353 0.0
H606 H 0.05033 0.54446 0.96565 0.0
H607 H 0.03663 0.57048 0.94126 0.0
C608 C 0.04045 0.49479 0.01443 0.0
C609 C 0.03216 0.46603 0.01344 0.0
C610 C 0.03351 0.50877 0.99922 0.0
C611 C 0.01806 0.49433 0.98266 0.0
C612 C 0.00967 0.46554 0.98169 0.0
C613 C 0.01668 0.45156 0.99688 0.0
C614 C 0.97574 0.51284 0.94452 0.0
C615 C 0.99449 0.53939 0.93831 0.0
C616 C 0.98357 0.49795 0.95853 0.0
C617 C 0.01034 0.50926 0.96669 0.0
C618 C 0.02938 0.5354 0.95996 0.0
C619 C 0.02155 0.55027 0.94595 0.0
H620 H 0.50269 0.46734 0.94095 0.0
H621 H 0.43969 0.418 0.98317 0.0
H622 H 0.52413 0.50209 0.96651 0.0
H623 H 0.46026 0.45351 0.00845 0.0
H624 H 0.52461 0.50682 0.05476 0.0
H625 H 0.5002 0.47212 0.02949 0.0
H626 H 0.51849 0.53707 0.98548 0.0
H627 H 0.5433 0.57143 0.01059 0.0
C628 C 0.49326 0.46398 0.95564 0.0
C629 C 0.46948 0.43977 0.95995 0.0
C630 C 0.50539 0.4841 0.97027 0.0
C631 C 0.49396 0.48066 0.98961 0.0
C632 C 0.46984 0.45672 0.99382 0.0
C633 C 0.45778 0.43652 0.97919 0.0
C634 C 0.52317 0.51359 0.03971 0.0
C635 C 0.53614 0.54178 0.0346 0.0
C636 C 0.50913 0.49376 0.02522 0.0
C637 C 0.50755 0.50174 0.00535 0.0
C638 C 0.51982 0.53006 1.00048 0.0
C639 C 0.53399 0.54979 0.01489 0.0
H640 H 0.44341 0.01149 0.06708 0.0
H641 H 0.45074 0.93368 0.06443 0.0
H642 H 0.48337 0.03234 0.04487 0.0
H643 H 0.49057 0.95448 0.04222 0.0
H644 H 0.53357 0.99001 0.9825 0.0
H645 H 0.49711 0.97064 0.00752 0.0
H646 H 0.53368 0.04617 0.04158 0.0
H647 H 0.56983 0.06589 0.01618 0.0
C648 C 0.45386 0.99898 0.06207 0.0
C649 C 0.44372 0.97085 0.06737 0.0
C650 C 0.47673 0.01092 0.04932 0.0
C651 C 0.48994 0.99497 0.04159 0.0
C652 C 0.4805 0.96717 0.04758 0.0
C653 C 0.4577 0.95526 0.06032 0.0
C654 C 0.53375 0.00256 0.99526 0.0
C655 C 0.55453 0.02952 0.99731 0.0
C656 C 0.51304 0.99133 0.00973 0.0
C657 C 0.51256 0.00683 0.02659 0.0
C658 C 0.53339 0.03378 0.0287 0.0
C659 C 0.55422 0.04497 0.01425 0.0
H660 H 0.48037 0.06652 0.48524 0.0
H661 H 0.46008 0.99445 0.52279 0.0
H662 H 0.50152 0.04704 0.46087 0.0
H663 H 0.48191 0.97545 0.49882 0.0
H664 H 0.49986 0.93625 0.44436 0.0
H665 H 0.47531 0.95615 0.46528 0.0
H666 H 0.54259 0.03706 0.45809 0.0
H667 H 0.56717 0.01711 0.43711 0.0
C668 C 0.48031 0.04648 0.48824 0.0
C669 C 0.4686 0.03205 0.50598 0.0
C670 C 0.49264 0.03545 0.47437 0.0
C671 C 0.49337 0.00968 0.47788 0.0
C672 C 0.4814 0.99518 0.49552 0.0
C673 C 0.46919 0.00623 0.50939 0.0
C674 C 0.50937 0.95831 0.44719 0.0
C675 C 0.53559 0.97506 0.43924 0.0
C676 C 0.49533 0.9697 0.4592 0.0
C677 C 0.50714 0.99813 0.46355 0.0
C678 C 0.53283 0.01511 0.4549 0.0
C679 C 0.5469 0.00369 0.44286 0.0
H680 H 0.94353 0.44395 0.55731 0.0
H681 H 0.01169 0.42237 0.54443 0.0
H682 H 0.96209 0.48215 0.53355 0.0
H683 H 0.03024 0.46062 0.52059 0.0
H684 H 0.03773 0.51232 0.46387 0.0
H685 H 0.0191 0.47408 0.48783 0.0
H686 H 0.00083 0.52681 0.52887 0.0
H687 H 0.01854 0.56457 0.50475 0.0
C688 C 0.96273 0.44762 0.54966 0.0
C689 C 0.97614 0.4301 0.55283 0.0
C690 C 0.97332 0.46948 0.53597 0.0
C691 C 0.9976 0.47438 0.52509 0.0
C692 C 0.01124 0.45712 0.52846 0.0
C693 C 0.00065 0.43526 0.54217 0.0
C694 C 0.02947 0.51561 0.47793 0.0
C695 C 0.02973 0.54151 0.48243 0.0
C696 C 0.0191 0.49382 0.49175 0.0
C697 C 0.00859 0.49742 0.51031 0.0
C698 C 0.00856 0.52324 0.51467 0.0
C699 C 0.01899 0.54499 0.50092 0.0
H700 H 0.41573 0.44575 0.48758 0.0
H701 H 0.47452 0.4988 0.44433 0.0
H702 H 0.44902 0.46657 0.51415 0.0
H703 H 0.50799 0.51966 0.471 0.0
H704 H 0.54837 0.57148 0.52592 0.0
H705 H 0.51492 0.54986 0.49952 0.0
H706 H 0.49263 0.46989 0.5272 0.0
H707 H 0.52532 0.49168 0.55407 0.0
C708 C 0.43596 0.46154 0.48368 0.0
C709 C 0.44248 0.47051 0.46378 0.0
C710 C 0.45505 0.47354 0.49895 0.0
C711 C 0.48118 0.49484 0.49475 0.0
C712 C 0.48787 0.5036 0.47481 0.0
C713 C 0.46873 0.4916 0.45952 0.0
C714 C 0.53602 0.54934 0.52657 0.0
C715 C 0.53947 0.53334 0.54219 0.0
C716 C 0.51712 0.53688 0.51125 0.0
C717 C 0.50119 0.5081 0.51114 0.0
C718 C 0.50441 0.49213 0.52688 0.0
C719 C 0.52332 0.50459 0.54221 0.0
H720 H 0.0112 0.5016 0.3168 0.0
H721 H 0.09958 0.54397 0.3075 0.0
H722 H 0.00722 0.47507 0.28633 0.0
H723 H 0.09558 0.51732 0.27736 0.0
H724 H 0.08254 0.45683 0.22731 0.0
H725 H 0.0838 0.47184 0.26193 0.0
H726 H 0.01246 0.48894 0.25093 0.0
H727 H 0.01084 0.47338 0.21659 0.0
C728 C 0.02982 0.50498 0.30845 0.0
C729 C 0.05567 0.52514 0.31456 0.0
C730 C 0.02753 0.48979 0.291 0.0
C731 C 0.05105 0.49429 0.27931 0.0
C732 C 0.07709 0.51311 0.28611 0.0
C733 C 0.07937 0.52838 0.30349 0.0
C734 C 0.06682 0.46329 0.23243 0.0
C735 C 0.04674 0.46418 0.21918 0.0
C736 C 0.06766 0.47207 0.2522 0.0
C737 C 0.0483 0.48169 0.25918 0.0
C738 C 0.02751 0.48141 0.24613 0.0
C739 C 0.02678 0.47281 0.22637 0.0
H740 H 0.4746 0.48102 0.30363 0.0
H741 H 0.40654 0.43657 0.26404 0.0
H742 H 0.50436 0.50208 0.2747 0.0
H743 H 0.43624 0.45743 0.23526 0.0
H744 H 0.48713 0.53593 0.1961 0.0
H745 H 0.45793 0.50702 0.22263 0.0
H746 H 0.52571 0.48977 0.24371 0.0
H747 H 0.55488 0.51786 0.21662 0.0
C748 C 0.46612 0.47552 0.28877 0.0
C749 C 0.43826 0.45713 0.28612 0.0
C750 C 0.48317 0.48739 0.27223 0.0
C751 C 0.47256 0.48142 0.25274 0.0
C752 C 0.44492 0.4625 0.2501 0.0
C753 C 0.42801 0.45039 0.26659 0.0
C754 C 0.4957 0.52535 0.20594 0.0
C755 C 0.52353 0.52947 0.20418 0.0
C756 C 0.47894 0.50889 0.22126 0.0
C757 C 0.48964 0.49637 0.23534 0.0
C758 C 0.51707 0.49953 0.23322 0.0
C759 C 0.53376 0.51569 0.21771 0.0
H760 H 0.41479 0.96545 0.24647 0.0
H761 H 0.47358 0.99442 0.19788 0.0
H762 H 0.45195 0.97171 0.26957 0.0
H763 H 0.51126 0.00163 0.22119 0.0
H764 H 0.5242 0.99587 0.31048 0.0
H765 H 0.49156 0.00133 0.28713 0.0
H766 H 0.52777 0.97337 0.23898 0.0
H767 H 0.56064 0.96885 0.26211 0.0
C768 C 0.43583 0.97391 0.24082 0.0
C769 C 0.44127 0.9794 0.22035 0.0
C770 C 0.45723 0.97761 0.25411 0.0
C771 C 0.48471 0.98711 0.24731 0.0
C772 C 0.49029 0.99378 0.22692 0.0
C773 C 0.46877 0.98977 0.21356 0.0
C774 C 0.52531 0.99128 0.29484 0.0
C775 C 0.54497 0.98197 0.28813 0.0
C776 C 0.50658 0.99428 0.28146 0.0
C777 C 0.50685 0.98764 0.26112 0.0
C778 C 0.52717 0.9792 0.25439 0.0
C779 C 0.54603 0.97651 0.2677 0.0
H780 H 0.96351 0.50208 0.7998 0.0
H781 H 0.00397 0.56876 0.75765 0.0
H782 H 0.96822 0.46952 0.77621 0.0
H783 H 0.00733 0.53572 0.73375 0.0
H784 H 0.95475 0.457 0.69287 0.0
H785 H 0.96596 0.49538 0.71597 0.0
H786 H 0.00451 0.45806 0.75563 0.0
H787 H 0.99466 0.42018 0.73207 0.0
C788 C 0.97403 0.51 0.78576 0.0
C789 C 0.98295 0.53808 0.78057 0.0
C790 C 0.97661 0.49126 0.7722 0.0
C791 C 0.98786 0.50011 0.7531 0.0
C792 C 0.99827 0.52835 0.74831 0.0
C793 C 0.99615 0.54718 0.76198 0.0
C794 C 0.96651 0.45733 0.70611 0.0
C795 C 0.97339 0.43513 0.71066 0.0
C796 C 0.97281 0.47933 0.71941 0.0
C797 C 0.98582 0.47947 0.73766 0.0
C798 C 0.99416 0.45823 0.74175 0.0
C799 C 0.98833 0.43647 0.72829 0.0
H800 H 0.50574 0.50726 0.69759 0.0
H801 H 0.56385 0.56428 0.7389 0.0
H802 H 0.47859 0.47961 0.72573 0.0
H803 H 0.53661 0.53691 0.76689 0.0
H804 H 0.50528 0.4549 0.8046 0.0
H805 H 0.5287 0.48936 0.77905 0.0
H806 H 0.44984 0.48082 0.75601 0.0
H807 H 0.42615 0.44688 0.78209 0.0
C808 C 0.51247 0.51408 0.71265 0.0
C809 C 0.53693 0.53792 0.71601 0.0
C810 C 0.49684 0.4984 0.72875 0.0
C811 C 0.50557 0.50608 0.7485 0.0
C812 C 0.52949 0.53041 0.75184 0.0
C813 C 0.54493 0.54621 0.73579 0.0
C814 C 0.49282 0.4609 0.79455 0.0
C815 C 0.46374 0.44786 0.79542 0.0
C816 C 0.50631 0.4806 0.77979 0.0
C817 C 0.49108 0.48759 0.76543 0.0
C818 C 0.46208 0.4755 0.76673 0.0
C819 C 0.44855 0.45603 0.78165 0.0
H820 H 0.57815 0.10815 0.79355 0.0
H821 H 0.52115 0.02234 0.80049 0.0
H822 H 0.55981 0.10869 0.76018 0.0
H823 H 0.50254 0.023 0.7673 0.0
H824 H 0.50012 0.02751 0.69861 0.0
H825 H 0.51843 0.02708 0.73193 0.0
H826 H 0.51552 0.10536 0.74478 0.0
H827 H 0.49757 0.10599 0.71127 0.0
C828 C 0.5618 0.08939 0.7879 0.0
C829 C 0.55108 0.06521 0.79962 0.0
C830 C 0.55112 0.08978 0.7689 0.0
C831 C 0.52969 0.06591 0.76116 0.0
C832 C 0.51917 0.04166 0.77281 0.0
C833 C 0.52967 0.04135 0.79187 0.0
C834 C 0.50349 0.04467 0.70853 0.0
C835 C 0.49749 0.06682 0.70232 0.0
C836 C 0.51376 0.04431 0.72765 0.0
C837 C 0.51844 0.0662 0.74094 0.0
C838 C 0.51235 0.08833 0.73478 0.0
C839 C 0.50183 0.08856 0.71569 0.0
loop_
_geom_bond_atom_site_label_1
_geom_bond_atom_site_label_2
_geom_bond_distance
_geom_bond_site_symmetry_2
_ccdc_geom_bond_type
C0 C1 1.264 . S
C0 C5 1.479 . S
C0 C10 1.465 . S
C1 C0 1.264 . S
C1 C3 1.339 . S
C1 H28 0.931 . S
C2 C3 1.395 . S
C2 C4 1.320 . S
C3 C1 1.339 . S
C3 C2 1.395 . S
C3 H29 0.929 . S
C4 C2 1.320 . S
C4 C5 1.405 . S
C4 H30 0.930 . S
C5 C0 1.479 . S
C5 C4 1.405 . S
C5 H31 0.931 . S
U6 O7 2.454 . S
U6 O8 2.458 1_455 S
U6 C9 2.984 1_455 S
U6 C10 2.847 . S
U6 C23 2.882 1_455 S
U6 O24 2.441 . S
U6 O25 2.420 . S
U6 O26 2.455 1_455 S
U6 O27 2.449 . S
O7 U6 2.454 . S
O7 C9 1.353 1_455 S
O8 U6 2.458 1_655 S
O8 C9 1.286 . S
C9 U6 2.984 1_655 S
C9 O7 1.353 1_655 S
C9 O8 1.286 . S
C9 C11 1.363 . S
C10 C0 1.465 . S
C10 U6 2.847 . S
C10 O24 1.249 . S
C10 O25 1.202 . S
C11 C9 1.363 . S
C11 C13 1.408 1_655 S
C11 C16 1.342 . S
C12 C13 1.310 1_655 S
C12 C15 1.461 . S
C12 H32 0.932 1_655 S
C13 C11 1.408 1_455 S
C13 C12 1.310 1_455 S
C13 H33 0.930 . S
C14 C15 1.474 . S
C14 C16 1.285 . S
C14 H34 0.929 . S
C15 C12 1.461 . S
C15 C14 1.474 . S
C16 C11 1.342 . S
C16 C14 1.285 . S
C16 H35 0.930 . S
C17 C20 1.424 . S
C17 C22 1.245 . S
C17 C23 1.428 . S
C18 C21 1.260 . S
C18 C22 1.477 . S
C18 H36 0.932 . S
C19 C20 1.384 . S
C19 C21 1.479 . S
C19 H37 0.929 . S
C20 C17 1.424 . S
C20 C19 1.384 . S
C20 H38 0.928 . S
C21 C18 1.260 . S
C21 C19 1.479 . S
C22 C17 1.245 . S
C22 C18 1.477 . S
C22 H39 0.932 . S
C23 U6 2.882 1_655 S
C23 C17 1.428 . S
C23 O26 1.301 . S
C23 O27 1.282 1_655 S
O24 U6 2.441 . S
O24 C10 1.249 . S
O25 U6 2.420 . S
O25 C10 1.202 . S
O26 U6 2.455 1_655 S
O26 C23 1.301 . S
O27 U6 2.449 . S
O27 C23 1.282 1_455 S
H28 C1 0.931 . S
H29 C3 0.929 . S
H30 C4 0.930 . S
H31 C5 0.931 . S
H32 C12 0.932 1_455 S
H33 C13 0.930 . S
H34 C14 0.929 . S
H35 C16 0.930 . S
H36 C18 0.932 . S
H37 C19 0.929 . S
H38 C20 0.928 . S
H39 C22 0.932 . S
C40 C41 1.264 . S
C40 C45 1.479 . S
C40 C50 1.465 . S
C41 C40 1.264 . S
C41 C43 1.339 . S
C41 H68 0.931 . S
C42 C43 1.395 . S
C42 C44 1.320 . S
C43 C41 1.339 . S
C43 C42 1.395 . S
C43 H69 0.929 . S
C44 C42 1.320 . S
C44 C45 1.405 . S
C44 H70 0.930 . S
C45 C40 1.479 . S
C45 C44 1.405 . S
C45 H71 0.931 . S
U46 O47 2.454 . S
U46 O48 2.458 . S
U46 C49 2.984 . S
U46 C50 2.847 . S
U46 C63 2.882 . S
U46 O64 2.441 . S
U46 O65 2.420 . S
U46 O66 2.455 . S
U46 O67 2.449 . S
O47 U46 2.454 . S
O47 C49 1.353 . S
O48 U46 2.458 . S
O48 C49 1.286 . S
C49 U46 2.984 . S
C49 O47 1.353 . S
C49 O48 1.286 . S
C49 C51 1.363 . S
C50 C40 1.465 . S
C50 U46 2.847 . S
C50 O64 1.249 . S
C50 O65 1.202 . S
C51 C49 1.363 . S
C51 C53 1.408 . S
C51 C56 1.342 . S
C52 C53 1.310 . S
C52 C55 1.461 . S
C52 H72 0.932 . S
C53 C51 1.408 . S
C53 C52 1.310 . S
C53 H73 0.930 . S
C54 C55 1.474 . S
C54 C56 1.285 . S
C54 H74 0.929 . S
C55 C52 1.461 . S
C55 C54 1.474 . S
C56 C51 1.342 . S
C56 C54 1.285 . S
C56 H75 0.930 . S
C57 C60 1.424 . S
C57 C62 1.245 . S
C57 C63 1.428 . S
C58 C61 1.260 . S
C58 C62 1.477 . S
C58 H76 0.932 . S
C59 C60 1.384 . S
C59 C61 1.479 . S
C59 H77 0.929 . S
C60 C57 1.424 . S
C60 C59 1.384 . S
C60 H78 0.928 . S
C61 C58 1.260 . S
C61 C59 1.479 . S
C62 C57 1.245 . S
C62 C58 1.477 . S
C62 H79 0.932 . S
C63 U46 2.882 . S
C63 C57 1.428 . S
C63 O66 1.301 . S
C63 O67 1.282 . S
O64 U46 2.441 . S
O64 C50 1.249 . S
O65 U46 2.420 . S
O65 C50 1.202 . S
O66 U46 2.455 . S
O66 C63 1.301 . S
O67 U46 2.449 . S
O67 C63 1.282 . S
H68 C41 0.931 . S
H69 C43 0.929 . S
H70 C44 0.930 . S
H71 C45 0.931 . S
H72 C52 0.932 . S
H73 C53 0.930 . S
H74 C54 0.929 . S
H75 C56 0.930 . S
H76 C58 0.932 . S
H77 C59 0.929 . S
H78 C60 0.928 . S
H79 C62 0.932 . S
C80 C81 1.264 . S
C80 C85 1.479 . S
C80 C90 1.465 . S
C81 C80 1.264 . S
C81 C83 1.339 . S
C81 H108 0.931 . S
C82 C83 1.395 . S
C82 C84 1.320 . S
C83 C81 1.339 . S
C83 C82 1.395 . S
C83 H109 0.929 . S
C84 C82 1.320 . S
C84 C85 1.405 . S
C84 H110 0.930 . S
C85 C80 1.479 . S
C85 C84 1.405 . S
C85 H111 0.931 . S
U86 O87 2.454 . S
U86 O88 2.458 1_565 S
U86 C89 2.984 1_565 S
U86 C90 2.847 . S
U86 C103 2.882 1_565 S
U86 O104 2.441 . S
U86 O105 2.420 . S
U86 O106 2.455 1_565 S
U86 O107 2.449 . S
O87 U86 2.454 . S
O87 C89 1.353 1_565 S
O88 U86 2.458 1_545 S
O88 C89 1.286 . S
C89 U86 2.984 1_545 S
C89 O87 1.353 1_545 S
C89 O88 1.286 . S
C89 C91 1.363 . S
C90 C80 1.465 . S
C90 U86 2.847 . S
C90 O104 1.249 . S
C90 O105 1.202 . S
C91 C89 1.363 . S
C91 C93 1.408 1_545 S
C91 C96 1.342 . S
C92 C93 1.310 1_545 S
C92 C95 1.461 . S
C92 H112 0.932 1_545 S
C93 C91 1.408 1_565 S
C93 C92 1.310 1_565 S
C93 H113 0.930 . S
C94 C95 1.474 . S
C94 C96 1.285 . S
C94 H114 0.929 . S
C95 C92 1.461 . S
C95 C94 1.474 . S
C96 C91 1.342 . S
C96 C94 1.285 . S
C96 H115 0.930 . S
C97 C100 1.424 . S
C97 C102 1.245 . S
C97 C103 1.428 . S
C98 C101 1.260 . S
C98 C102 1.477 . S
C98 H116 0.932 . S
C99 C100 1.384 . S
C99 C101 1.479 . S
C99 H117 0.929 . S
C100 C97 1.424 . S
C100 C99 1.384 . S
C100 H118 0.928 . S
C101 C98 1.260 . S
C101 C99 1.479 . S
C102 C97 1.245 . S
C102 C98 1.477 . S
C102 H119 0.932 . S
C103 U86 2.882 1_545 S
C103 C97 1.428 . S
C103 O106 1.301 . S
C103 O107 1.282 1_545 S
O104 U86 2.441 . S
O104 C90 1.249 . S
O105 U86 2.420 . S
O105 C90 1.202 . S
O106 U86 2.455 1_545 S
O106 C103 1.301 . S
O107 U86 2.449 . S
O107 C103 1.282 1_565 S
H108 C81 0.931 . S
H109 C83 0.929 . S
H110 C84 0.930 . S
H111 C85 0.931 . S
H112 C92 0.932 1_565 S
H113 C93 0.930 . S
H114 C94 0.929 . S
H115 C96 0.930 . S
H116 C98 0.932 . S
H117 C99 0.929 . S
H118 C100 0.928 . S
H119 C102 0.932 . S
C120 C121 1.264 . S
C120 C125 1.479 . S
C120 C130 1.465 . S
C121 C120 1.264 . S
C121 C123 1.339 . S
C121 H148 0.931 . S
C122 C123 1.395 . S
C122 C124 1.320 . S
C123 C121 1.339 . S
C123 C122 1.395 . S
C123 H149 0.929 . S
C124 C122 1.320 . S
C124 C125 1.405 . S
C124 H150 0.930 . S
C125 C120 1.479 . S
C125 C124 1.405 . S
C125 H151 0.931 . S
U126 O127 2.454 . S
U126 O128 2.458 1_565 S
U126 C129 2.984 1_565 S
U126 C130 2.847 . S
U126 C143 2.882 1_565 S
U126 O144 2.441 . S
U126 O145 2.420 . S
U126 O146 2.455 1_565 S
U126 O147 2.449 . S
O127 U126 2.454 . S
O127 C129 1.353 1_565 S
O128 U126 2.458 1_545 S
O128 C129 1.286 . S
C129 U126 2.984 1_545 S
C129 O127 1.353 1_545 S
C129 O128 1.286 . S
C129 C131 1.363 . S
C130 C120 1.465 . S
C130 U126 2.847 . S
C130 O144 1.249 . S
C130 O145 1.202 . S
C131 C129 1.363 . S
C131 C133 1.408 1_545 S
C131 C136 1.342 . S
C132 C133 1.310 1_545 S
C132 C135 1.461 . S
C132 H152 0.932 1_545 S
C133 C131 1.408 1_565 S
C133 C132 1.310 1_565 S
C133 H153 0.930 . S
C134 C135 1.474 . S
C134 C136 1.285 . S
C134 H154 0.929 . S
C135 C132 1.461 . S
C135 C134 1.474 . S
C136 C131 1.342 . S
C136 C134 1.285 . S
C136 H155 0.930 . S
C137 C140 1.424 . S
C137 C142 1.245 . S
C137 C143 1.428 . S
C138 C141 1.260 . S
C138 C142 1.477 . S
C138 H156 0.932 . S
C139 C140 1.384 . S
C139 C141 1.479 . S
C139 H157 0.929 . S
C140 C137 1.424 . S
C140 C139 1.384 . S
C140 H158 0.928 . S
C141 C138 1.260 . S
C141 C139 1.479 . S
C142 C137 1.245 . S
C142 C138 1.477 . S
C142 H159 0.932 . S
C143 U126 2.882 1_545 S
C143 C137 1.428 . S
C143 O146 1.301 . S
C143 O147 1.282 1_545 S
O144 U126 2.441 . S
O144 C130 1.249 . S
O145 U126 2.420 . S
O145 C130 1.202 . S
O146 U126 2.455 1_545 S
O146 C143 1.301 . S
O147 U126 2.449 . S
O147 C143 1.282 1_565 S
H148 C121 0.931 . S
H149 C123 0.929 . S
H150 C124 0.930 . S
H151 C125 0.931 . S
H152 C132 0.932 1_565 S
H153 C133 0.930 . S
H154 C134 0.929 . S
H155 C136 0.930 . S
H156 C138 0.932 . S
H157 C139 0.929 . S
H158 C140 0.928 . S
H159 C142 0.932 . S
C160 C161 1.264 . S
C160 C165 1.479 . S
C160 C170 1.465 . S
C161 C160 1.264 . S
C161 C163 1.339 . S
C161 H188 0.931 . S
C162 C163 1.395 . S
C162 C164 1.320 . S
C163 C161 1.339 . S
C163 C162 1.395 . S
C163 H189 0.929 . S
C164 C162 1.320 . S
C164 C165 1.405 . S
C164 H190 0.930 . S
C165 C160 1.479 . S
C165 C164 1.405 . S
C165 H191 0.931 . S
U166 O167 2.454 . S
U166 O168 2.458 1_455 S
U166 C169 2.984 1_455 S
U166 C170 2.847 . S
U166 C183 2.882 1_455 S
U166 O184 2.441 . S
U166 O185 2.420 . S
U166 O186 2.455 1_455 S
U166 O187 2.449 . S
O167 U166 2.454 . S
O167 C169 1.353 1_455 S
O168 U166 2.458 1_655 S
O168 C169 1.286 . S
C169 U166 2.984 1_655 S
C169 O167 1.353 1_655 S
C169 O168 1.286 . S
C169 C171 1.363 . S
C170 C160 1.465 . S
C170 U166 2.847 . S
C170 O184 1.249 . S
C170 O185 1.202 . S
C171 C169 1.363 . S
C171 C173 1.408 1_655 S
C171 C176 1.342 . S
C172 C173 1.310 1_655 S
C172 C175 1.461 . S
C172 H192 0.932 1_655 S
C173 C171 1.408 1_455 S
C173 C172 1.310 1_455 S
C173 H193 0.930 . S
C174 C175 1.474 . S
C174 C176 1.285 . S
C174 H194 0.929 . S
C175 C172 1.461 . S
C175 C174 1.474 . S
C176 C171 1.342 . S
C176 C174 1.285 . S
C176 H195 0.930 . S
C177 C180 1.424 . S
C177 C182 1.245 . S
C177 C183 1.428 . S
C178 C181 1.260 . S
C178 C182 1.477 . S
C178 H196 0.932 . S
C179 C180 1.384 . S
C179 C181 1.479 . S
C179 H197 0.929 . S
C180 C177 1.424 . S
C180 C179 1.384 . S
C180 H198 0.928 . S
C181 C178 1.260 . S
C181 C179 1.479 . S
C182 C177 1.245 . S
C182 C178 1.477 . S
C182 H199 0.932 . S
C183 U166 2.882 1_655 S
C183 C177 1.428 . S
C183 O186 1.301 . S
C183 O187 1.282 1_655 S
O184 U166 2.441 . S
O184 C170 1.249 . S
O185 U166 2.420 . S
O185 C170 1.202 . S
O186 U166 2.455 1_655 S
O186 C183 1.301 . S
O187 U166 2.449 . S
O187 C183 1.282 1_455 S
H188 C161 0.931 . S
H189 C163 0.929 . S
H190 C164 0.930 . S
H191 C165 0.931 . S
H192 C172 0.932 1_455 S
H193 C173 0.930 . S
H194 C174 0.929 . S
H195 C176 0.930 . S
H196 C178 0.932 . S
H197 C179 0.929 . S
H198 C180 0.928 . S
H199 C182 0.932 . S
C200 C201 1.264 . S
C200 C205 1.479 . S
C200 C210 1.465 . S
C201 C200 1.264 . S
C201 C203 1.339 . S
C201 H228 0.931 . S
C202 C203 1.395 . S
C202 C204 1.320 . S
C203 C201 1.339 . S
C203 C202 1.395 . S
C203 H229 0.929 . S
C204 C202 1.320 . S
C204 C205 1.405 . S
C204 H230 0.930 . S
C205 C200 1.479 . S
C205 C204 1.405 . S
C205 H231 0.931 . S
U206 O207 2.454 . S
U206 O208 2.458 . S
U206 C209 2.984 . S
U206 C210 2.847 . S
U206 C223 2.882 . S
U206 O224 2.441 . S
U206 O225 2.420 . S
U206 O226 2.455 . S
U206 O227 2.449 . S
O207 U206 2.454 . S
O207 C209 1.353 . S
O208 U206 2.458 . S
O208 C209 1.286 . S
C209 U206 2.984 . S
C209 O207 1.353 . S
C209 O208 1.286 . S
C209 C211 1.363 . S
C210 C200 1.465 . S
C210 U206 2.847 . S
C210 O224 1.249 . S
C210 O225 1.202 . S
C211 C209 1.363 . S
C211 C213 1.408 . S
C211 C216 1.342 . S
C212 C213 1.310 . S
C212 C215 1.461 . S
C212 H232 0.932 . S
C213 C211 1.408 . S
C213 C212 1.310 . S
C213 H233 0.930 . S
C214 C215 1.474 . S
C214 C216 1.285 . S
C214 H234 0.929 . S
C215 C212 1.461 . S
C215 C214 1.474 . S
C216 C211 1.342 . S
C216 C214 1.285 . S
C216 H235 0.930 . S
C217 C220 1.424 . S
C217 C222 1.245 . S
C217 C223 1.428 . S
C218 C221 1.260 . S
C218 C222 1.477 . S
C218 H236 0.932 . S
C219 C220 1.384 . S
C219 C221 1.479 . S
C219 H237 0.929 . S
C220 C217 1.424 . S
C220 C219 1.384 . S
C220 H238 0.928 . S
C221 C218 1.260 . S
C221 C219 1.479 . S
C222 C217 1.245 . S
C222 C218 1.477 . S
C222 H239 0.932 . S
C223 U206 2.882 . S
C223 C217 1.428 . S
C223 O226 1.301 . S
C223 O227 1.282 . S
O224 U206 2.441 . S
O224 C210 1.249 . S
O225 U206 2.420 . S
O225 C210 1.202 . S
O226 U206 2.455 . S
O226 C223 1.301 . S
O227 U206 2.449 . S
O227 C223 1.282 . S
H228 C201 0.931 . S
H229 C203 0.929 . S
H230 C204 0.930 . S
H231 C205 0.931 . S
H232 C212 0.932 . S
H233 C213 0.930 . S
H234 C214 0.929 . S
H235 C216 0.930 . S
H236 C218 0.932 . S
H237 C219 0.929 . S
H238 C220 0.928 . S
H239 C222 0.932 . S
C240 C241 1.264 . S
C240 C245 1.479 . S
C240 C250 1.465 . S
C241 C240 1.264 . S
C241 C243 1.339 . S
C241 H268 0.931 . S
C242 C243 1.395 . S
C242 C244 1.320 . S
C243 C241 1.339 . S
C243 C242 1.395 . S
C243 H269 0.929 . S
C244 C242 1.320 . S
C244 C245 1.405 . S
C244 H270 0.930 . S
C245 C240 1.479 . S
C245 C244 1.405 . S
C245 H271 0.931 . S
U246 O247 2.454 1_455 S
U246 O248 2.458 . S
U246 C249 2.984 . S
U246 C250 2.847 1_455 S
U246 C263 2.882 . S
U246 O264 2.441 1_455 S
U246 O265 2.420 1_455 S
U246 O266 2.455 . S
U246 O267 2.449 . S
O247 U246 2.454 1_655 S
O247 C249 1.353 1_655 S
O248 U246 2.458 . S
O248 C249 1.286 . S
C249 U246 2.984 . S
C249 O247 1.353 1_455 S
C249 O248 1.286 . S
C249 C251 1.363 . S
C250 C240 1.465 . S
C250 U246 2.847 1_655 S
C250 O264 1.249 . S
C250 O265 1.202 . S
C251 C249 1.363 . S
C251 C253 1.408 . S
C251 C256 1.342 . S
C252 C253 1.310 . S
C252 C255 1.461 . S
C252 H272 0.932 1_455 S
C253 C251 1.408 . S
C253 C252 1.310 . S
C253 H273 0.930 1_455 S
C254 C255 1.474 . S
C254 C256 1.285 . S
C254 H274 0.929 . S
C255 C252 1.461 . S
C255 C254 1.474 . S
C256 C251 1.342 . S
C256 C254 1.285 . S
C256 H275 0.930 . S
C257 C260 1.424 . S
C257 C262 1.245 . S
C257 C263 1.428 . S
C258 C261 1.260 . S
C258 C262 1.477 . S
C258 H276 0.932 . S
C259 C260 1.384 . S
C259 C261 1.479 . S
C259 H277 0.929 . S
C260 C257 1.424 . S
C260 C259 1.384 . S
C260 H278 0.928 . S
C261 C258 1.260 . S
C261 C259 1.479 . S
C262 C257 1.245 . S
C262 C258 1.477 . S
C262 H279 0.932 . S
C263 U246 2.882 . S
C263 C257 1.428 . S
C263 O266 1.301 . S
C263 O267 1.282 . S
O264 U246 2.441 1_655 S
O264 C250 1.249 . S
O265 U246 2.420 1_655 S
O265 C250 1.202 . S
O266 U246 2.455 . S
O266 C263 1.301 . S
O267 U246 2.449 . S
O267 C263 1.282 . S
H268 C241 0.931 . S
H269 C243 0.929 . S
H270 C244 0.930 . S
H271 C245 0.931 . S
H272 C252 0.932 1_655 S
H273 C253 0.930 1_655 S
H274 C254 0.929 . S
H275 C256 0.930 . S
H276 C258 0.932 . S
H277 C259 0.929 . S
H278 C260 0.928 . S
H279 C262 0.932 . S
C280 C281 1.264 . S
C280 C285 1.479 . S
C280 C290 1.465 . S
C281 C280 1.264 . S
C281 C283 1.339 . S
C281 H308 0.931 . S
C282 C283 1.395 . S
C282 C284 1.320 . S
C283 C281 1.339 . S
C283 C282 1.395 . S
C283 H309 0.929 . S
C284 C282 1.320 . S
C284 C285 1.405 . S
C284 H310 0.930 . S
C285 C280 1.479 . S
C285 C284 1.405 . S
C285 H311 0.931 . S
U286 O287 2.454 . S
U286 O288 2.458 . S
U286 C289 2.984 . S
U286 C290 2.847 . S
U286 C303 2.882 . S
U286 O304 2.441 . S
U286 O305 2.420 . S
U286 O306 2.455 . S
U286 O307 2.449 . S
O287 U286 2.454 . S
O287 C289 1.353 . S
O288 U286 2.458 . S
O288 C289 1.286 . S
C289 U286 2.984 . S
C289 O287 1.353 . S
C289 O288 1.286 . S
C289 C291 1.363 . S
C290 C280 1.465 . S
C290 U286 2.847 . S
C290 O304 1.249 . S
C290 O305 1.202 . S
C291 C289 1.363 . S
C291 C293 1.408 . S
C291 C296 1.342 . S
C292 C293 1.310 . S
C292 C295 1.461 . S
C292 H312 0.932 . S
C293 C291 1.408 . S
C293 C292 1.310 . S
C293 H313 0.930 . S
C294 C295 1.474 . S
C294 C296 1.285 . S
C294 H314 0.929 . S
C295 C292 1.461 . S
C295 C294 1.474 . S
C296 C291 1.342 . S
C296 C294 1.285 . S
C296 H315 0.930 . S
C297 C300 1.424 . S
C297 C302 1.245 . S
C297 C303 1.428 . S
C298 C301 1.260 . S
C298 C302 1.477 . S
C298 H316 0.932 . S
C299 C300 1.384 . S
C299 C301 1.479 . S
C299 H317 0.929 . S
C300 C297 1.424 . S
C300 C299 1.384 . S
C300 H318 0.928 . S
C301 C298 1.260 . S
C301 C299 1.479 . S
C302 C297 1.245 . S
C302 C298 1.477 . S
C302 H319 0.932 . S
C303 U286 2.882 . S
C303 C297 1.428 . S
C303 O306 1.301 . S
C303 O307 1.282 . S
O304 U286 2.441 . S
O304 C290 1.249 . S
O305 U286 2.420 . S
O305 C290 1.202 . S
O306 U286 2.455 . S
O306 C303 1.301 . S
O307 U286 2.449 . S
O307 C303 1.282 . S
H308 C281 0.931 . S
H309 C283 0.929 . S
H310 C284 0.930 . S
H311 C285 0.931 . S
H312 C292 0.932 . S
H313 C293 0.930 . S
H314 C294 0.929 . S
H315 C296 0.930 . S
H316 C298 0.932 . S
H317 C299 0.929 . S
H318 C300 0.928 . S
H319 C302 0.932 . S
C320 C321 1.264 . S
C320 C325 1.479 . S
C320 C330 1.465 . S
C321 C320 1.264 . S
C321 C323 1.339 . S
C321 H348 0.931 . S
C322 C323 1.395 . S
C322 C324 1.320 . S
C323 C321 1.339 . S
C323 C322 1.395 . S
C323 H349 0.929 . S
C324 C322 1.320 . S
C324 C325 1.405 . S
C324 H350 0.930 . S
C325 C320 1.479 . S
C325 C324 1.405 . S
C325 H351 0.931 . S
U326 O327 2.456 . S
U326 O328 2.458 . S
U326 C329 2.984 . S
U326 C330 2.847 1_565 S
U326 C343 2.882 . S
U326 O344 2.441 1_565 S
U326 O345 2.420 1_565 S
U326 O346 2.455 . S
U326 O347 2.449 . S
O327 U326 2.456 . S
O327 C329 1.355 . S
O328 U326 2.458 . S
O328 C329 1.286 . S
C329 U326 2.984 . S
C329 O327 1.355 . S
C329 O328 1.286 . S
C329 C331 1.363 . S
C330 C320 1.465 . S
C330 U326 2.847 1_545 S
C330 O344 1.249 . S
C330 O345 1.202 . S
C331 C329 1.363 . S
C331 C333 1.408 . S
C331 C336 1.342 . S
C332 C333 1.310 . S
C332 C335 1.461 . S
C332 H352 0.933 . S
C333 C331 1.408 . S
C333 C332 1.310 . S
C333 H353 0.930 1_565 S
C334 C335 1.474 . S
C334 C336 1.285 . S
C334 H354 0.929 . S
C335 C332 1.461 . S
C335 C334 1.474 . S
C336 C331 1.342 . S
C336 C334 1.285 . S
C336 H355 0.930 . S
C337 C340 1.424 . S
C337 C342 1.245 . S
C337 C343 1.428 . S
C338 C341 1.260 . S
C338 C342 1.477 . S
C338 H356 0.932 . S
C339 C340 1.384 . S
C339 C341 1.479 . S
C339 H357 0.929 . S
C340 C337 1.424 . S
C340 C339 1.384 . S
C340 H358 0.928 . S
C341 C338 1.260 . S
C341 C339 1.479 . S
C342 C337 1.245 . S
C342 C338 1.477 . S
C342 H359 0.932 . S
C343 U326 2.882 . S
C343 C337 1.428 . S
C343 O346 1.301 . S
C343 O347 1.282 . S
O344 U326 2.441 1_545 S
O344 C330 1.249 . S
O345 U326 2.420 1_545 S
O345 C330 1.202 . S
O346 U326 2.455 . S
O346 C343 1.301 . S
O347 U326 2.449 . S
O347 C343 1.282 . S
H348 C321 0.931 . S
H349 C323 0.929 . S
H350 C324 0.930 . S
H351 C325 0.931 . S
H352 C332 0.933 . S
H353 C333 0.930 1_545 S
H354 C334 0.929 . S
H355 C336 0.930 . S
H356 C338 0.932 . S
H357 C339 0.929 . S
H358 C340 0.928 . S
H359 C342 0.932 . S
C360 C361 1.264 . S
C360 C365 1.479 . S
C360 C370 1.465 . S
C361 C360 1.264 . S
C361 C363 1.339 . S
C361 H388 0.931 . S
C362 C363 1.395 . S
C362 C364 1.320 . S
C363 C361 1.339 . S
C363 C362 1.395 . S
C363 H389 0.929 . S
C364 C362 1.320 . S
C364 C365 1.405 . S
C364 H390 0.930 . S
C365 C360 1.479 . S
C365 C364 1.405 . S
C365 H391 0.931 . S
U366 O367 2.454 1_565 S
U366 O368 2.458 . S
U366 C369 2.984 . S
U366 C370 2.847 1_565 S
U366 C383 2.882 . S
U366 O384 2.441 1_565 S
U366 O385 2.420 1_565 S
U366 O386 2.455 . S
U366 O387 2.449 . S
O367 U366 2.454 1_545 S
O367 C369 1.353 1_545 S
O368 U366 2.458 . S
O368 C369 1.286 . S
C369 U366 2.984 . S
C369 O367 1.353 1_565 S
C369 O368 1.286 . S
C369 C371 1.363 . S
C370 C360 1.465 . S
C370 U366 2.847 1_545 S
C370 O384 1.249 . S
C370 O385 1.202 . S
C371 C369 1.363 . S
C371 C373 1.408 . S
C371 C376 1.342 . S
C372 C373 1.310 . S
C372 C375 1.461 . S
C372 H392 0.932 1_565 S
C373 C371 1.408 . S
C373 C372 1.310 . S
C373 H393 0.930 1_565 S
C374 C375 1.474 . S
C374 C376 1.285 . S
C374 H394 0.929 . S
C375 C372 1.461 . S
C375 C374 1.474 . S
C376 C371 1.342 . S
C376 C374 1.285 . S
C376 H395 0.930 . S
C377 C380 1.424 . S
C377 C382 1.245 . S
C377 C383 1.428 . S
C378 C381 1.260 . S
C378 C382 1.477 . S
C378 H396 0.932 . S
C379 C380 1.384 . S
C379 C381 1.479 . S
C379 H397 0.929 . S
C380 C377 1.424 . S
C380 C379 1.384 . S
C380 H398 0.928 . S
C381 C378 1.260 . S
C381 C379 1.479 . S
C382 C377 1.245 . S
C382 C378 1.477 . S
C382 H399 0.932 . S
C383 U366 2.882 . S
C383 C377 1.428 . S
C383 O386 1.301 . S
C383 O387 1.282 . S
O384 U366 2.441 1_545 S
O384 C370 1.249 . S
O385 U366 2.420 1_545 S
O385 C370 1.202 . S
O386 U366 2.455 . S
O386 C383 1.301 . S
O387 U366 2.449 . S
O387 C383 1.282 . S
H388 C361 0.931 . S
H389 C363 0.929 . S
H390 C364 0.930 . S
H391 C365 0.931 . S
H392 C372 0.932 1_545 S
H393 C373 0.930 1_545 S
H394 C374 0.929 . S
H395 C376 0.930 . S
H396 C378 0.932 . S
H397 C379 0.929 . S
H398 C380 0.928 . S
H399 C382 0.932 . S
C400 C401 1.264 . S
C400 C405 1.479 . S
C400 C410 1.465 . S
C401 C400 1.264 . S
C401 C403 1.339 . S
C401 H428 0.931 . S
C402 C403 1.395 . S
C402 C404 1.320 . S
C403 C401 1.339 . S
C403 C402 1.395 . S
C403 H429 0.929 . S
C404 C402 1.320 . S
C404 C405 1.405 . S
C404 H430 0.930 . S
C405 C400 1.479 . S
C405 C404 1.405 . S
C405 H431 0.931 . S
U406 O407 2.456 . S
U406 O408 2.458 . S
U406 C409 2.984 . S
U406 C410 2.847 1_455 S
U406 C423 2.882 . S
U406 O424 2.441 1_455 S
U406 O425 2.420 1_455 S
U406 O426 2.455 . S
U406 O427 2.449 . S
O407 U406 2.456 . S
O407 C409 1.355 . S
O408 U406 2.458 . S
O408 C409 1.286 . S
C409 U406 2.984 . S
C409 O407 1.355 . S
C409 O408 1.286 . S
C409 C411 1.363 . S
C410 C400 1.465 . S
C410 U406 2.847 1_655 S
C410 O424 1.249 . S
C410 O425 1.202 . S
C411 C409 1.363 . S
C411 C413 1.408 . S
C411 C416 1.342 . S
C412 C413 1.310 . S
C412 C415 1.461 . S
C412 H432 0.933 . S
C413 C411 1.408 . S
C413 C412 1.310 . S
C413 H433 0.930 1_455 S
C414 C415 1.474 . S
C414 C416 1.285 . S
C414 H434 0.929 . S
C415 C412 1.461 . S
C415 C414 1.474 . S
C416 C411 1.342 . S
C416 C414 1.285 . S
C416 H435 0.930 . S
C417 C420 1.424 . S
C417 C422 1.245 . S
C417 C423 1.428 . S
C418 C421 1.260 . S
C418 C422 1.477 . S
C418 H436 0.932 . S
C419 C420 1.384 . S
C419 C421 1.479 . S
C419 H437 0.929 . S
C420 C417 1.424 . S
C420 C419 1.384 . S
C420 H438 0.928 . S
C421 C418 1.260 . S
C421 C419 1.479 . S
C422 C417 1.245 . S
C422 C418 1.477 . S
C422 H439 0.932 . S
C423 U406 2.882 . S
C423 C417 1.428 . S
C423 O426 1.301 . S
C423 O427 1.282 . S
O424 U406 2.441 1_655 S
O424 C410 1.249 . S
O425 U406 2.420 1_655 S
O425 C410 1.202 . S
O426 U406 2.455 . S
O426 C423 1.301 . S
O427 U406 2.449 . S
O427 C423 1.282 . S
H428 C401 0.931 . S
H429 C403 0.929 . S
H430 C404 0.930 . S
H431 C405 0.931 . S
H432 C412 0.933 . S
H433 C413 0.930 1_655 S
H434 C414 0.929 . S
H435 C416 0.930 . S
H436 C418 0.932 . S
H437 C419 0.929 . S
H438 C420 0.928 . S
H439 C422 0.932 . S
C440 C441 1.264 . S
C440 C445 1.479 . S
C440 C450 1.465 . S
C441 C440 1.264 . S
C441 C443 1.339 . S
C441 H468 0.931 . S
C442 C443 1.395 . S
C442 C444 1.320 . S
C443 C441 1.339 . S
C443 C442 1.395 . S
C443 H469 0.929 . S
C444 C442 1.320 . S
C444 C445 1.405 . S
C444 H470 0.930 . S
C445 C440 1.479 . S
C445 C444 1.405 . S
C445 H471 0.931 . S
U446 O447 2.454 . S
U446 O448 2.458 . S
U446 C449 2.984 . S
U446 C450 2.847 . S
U446 C463 2.882 . S
U446 O464 2.441 . S
U446 O465 2.420 . S
U446 O466 2.455 . S
U446 O467 2.449 . S
O447 U446 2.454 . S
O447 C449 1.353 . S
O448 U446 2.458 . S
O448 C449 1.286 . S
C449 U446 2.984 . S
C449 O447 1.353 . S
C449 O448 1.286 . S
C449 C451 1.363 . S
C450 C440 1.465 . S
C450 U446 2.847 . S
C450 O464 1.249 . S
C450 O465 1.202 . S
C451 C449 1.363 . S
C451 C453 1.408 . S
C451 C456 1.342 . S
C452 C453 1.310 . S
C452 C455 1.461 . S
C452 H472 0.932 . S
C453 C451 1.408 . S
C453 C452 1.310 . S
C453 H473 0.930 . S
C454 C455 1.474 . S
C454 C456 1.285 . S
C454 H474 0.929 . S
C455 C452 1.461 . S
C455 C454 1.474 . S
C456 C451 1.342 . S
C456 C454 1.285 . S
C456 H475 0.930 . S
C457 C460 1.424 . S
C457 C462 1.245 . S
C457 C463 1.428 . S
C458 C461 1.260 . S
C458 C462 1.477 . S
C458 H476 0.932 . S
C459 C460 1.384 . S
C459 C461 1.479 . S
C459 H477 0.929 . S
C460 C457 1.424 . S
C460 C459 1.384 . S
C460 H478 0.928 . S
C461 C458 1.260 . S
C461 C459 1.479 . S
C462 C457 1.245 . S
C462 C458 1.477 . S
C462 H479 0.932 . S
C463 U446 2.882 . S
C463 C457 1.428 . S
C463 O466 1.301 . S
C463 O467 1.282 . S
O464 U446 2.441 . S
O464 C450 1.249 . S
O465 U446 2.420 . S
O465 C450 1.202 . S
O466 U446 2.455 . S
O466 C463 1.301 . S
O467 U446 2.449 . S
O467 C463 1.282 . S
H468 C441 0.931 . S
H469 C443 0.929 . S
H470 C444 0.930 . S
H471 C445 0.931 . S
H472 C452 0.932 . S
H473 C453 0.930 . S
H474 C454 0.929 . S
H475 C456 0.930 . S
H476 C458 0.932 . S
H477 C459 0.929 . S
H478 C460 0.928 . S
H479 C462 0.932 . S
H480 C488 0.950 . S
H481 C493 0.950 . S
H482 C490 0.950 . S
H483 C492 0.950 . S
H484 C494 0.950 . S
H485 C496 0.950 . S
H486 C498 0.950 . S
H487 C499 0.950 . S
C488 H480 0.950 . S
C488 C489 1.386 . S
C488 C490 1.391 . S
C489 C488 1.386 . S
C489 C493 1.393 . S
C490 H482 0.950 . S
C490 C488 1.391 . S
C490 C491 1.400 . S
C491 C490 1.400 . S
C491 C492 1.398 . S
C491 C497 1.491 . S
C492 H483 0.950 . S
C492 C491 1.398 . S
C492 C493 1.391 . S
C493 H481 0.950 . S
C493 C489 1.393 . S
C493 C492 1.391 . S
C494 H484 0.950 . S
C494 C495 1.386 . S
C494 C496 1.391 . S
C495 C494 1.386 . S
C495 C499 1.393 . S
C496 H485 0.950 . S
C496 C494 1.391 . S
C496 C497 1.400 . S
C497 C491 1.491 . S
C497 C496 1.400 . S
C497 C498 1.398 . S
C498 H486 0.950 . S
C498 C497 1.398 . S
C498 C499 1.391 . S
C499 H487 0.950 . S
C499 C495 1.393 . S
C499 C498 1.391 . S
H500 C508 0.950 . S
H501 C513 0.950 . S
H502 C510 0.950 . S
H503 C512 0.950 . S
H504 C514 0.950 . S
H505 C516 0.950 . S
H506 C518 0.950 . S
H507 C519 0.950 . S
C508 H500 0.950 . S
C508 C509 1.386 . S
C508 C510 1.391 . S
C509 C508 1.386 . S
C509 C513 1.393 . S
C510 H502 0.950 . S
C510 C508 1.391 . S
C510 C511 1.400 . S
C511 C510 1.400 . S
C511 C512 1.398 . S
C511 C517 1.491 . S
C512 H503 0.950 . S
C512 C511 1.398 . S
C512 C513 1.391 . S
C513 H501 0.950 . S
C513 C509 1.393 . S
C513 C512 1.391 . S
C514 H504 0.950 . S
C514 C515 1.386 . S
C514 C516 1.391 . S
C515 C514 1.386 . S
C515 C519 1.393 . S
C516 H505 0.950 . S
C516 C514 1.391 . S
C516 C517 1.400 . S
C517 C511 1.491 . S
C517 C516 1.400 . S
C517 C518 1.398 . S
C518 H506 0.950 . S
C518 C517 1.398 . S
C518 C519 1.391 . S
C519 H507 0.950 . S
C519 C515 1.393 . S
C519 C518 1.391 . S
H520 C528 0.950 . S
H521 C533 0.950 . S
H522 C530 0.950 . S
H523 C532 0.950 . S
H524 C534 0.950 . S
H525 C536 0.950 . S
H526 C538 0.950 . S
H527 C539 0.950 . S
C528 H520 0.950 . S
C528 C529 1.386 . S
C528 C530 1.391 . S
C529 C528 1.386 . S
C529 C533 1.393 . S
C530 H522 0.950 . S
C530 C528 1.391 . S
C530 C531 1.400 . S
C531 C530 1.400 . S
C531 C532 1.398 . S
C531 C537 1.491 . S
C532 H523 0.950 . S
C532 C531 1.398 . S
C532 C533 1.391 . S
C533 H521 0.950 . S
C533 C529 1.393 . S
C533 C532 1.391 . S
C534 H524 0.950 . S
C534 C535 1.386 . S
C534 C536 1.391 . S
C535 C534 1.386 . S
C535 C539 1.393 . S
C536 H525 0.950 . S
C536 C534 1.391 . S
C536 C537 1.400 . S
C537 C531 1.491 . S
C537 C536 1.400 . S
C537 C538 1.398 . S
C538 H526 0.950 . S
C538 C537 1.398 . S
C538 C539 1.391 . S
C539 H527 0.950 . S
C539 C535 1.393 . S
C539 C538 1.391 . S
H540 C548 0.950 . S
H541 C553 0.950 . S
H542 C550 0.950 . S
H543 C552 0.950 . S
H544 C554 0.950 . S
H545 C556 0.950 . S
H546 C558 0.950 . S
H547 C559 0.950 . S
C548 H540 0.950 . S
C548 C549 1.386 . S
C548 C550 1.391 . S
C549 C548 1.386 . S
C549 C553 1.393 . S
C550 H542 0.950 . S
C550 C548 1.391 . S
C550 C551 1.400 . S
C551 C550 1.400 . S
C551 C552 1.398 . S
C551 C557 1.491 . S
C552 H543 0.950 . S
C552 C551 1.398 . S
C552 C553 1.391 . S
C553 H541 0.950 . S
C553 C549 1.393 . S
C553 C552 1.391 . S
C554 H544 0.950 . S
C554 C555 1.386 . S
C554 C556 1.391 . S
C555 C554 1.386 . S
C555 C559 1.393 . S
C556 H545 0.950 . S
C556 C554 1.391 . S
C556 C557 1.400 . S
C557 C551 1.491 . S
C557 C556 1.400 . S
C557 C558 1.398 . S
C558 H546 0.950 . S
C558 C557 1.398 . S
C558 C559 1.391 . S
C559 H547 0.950 . S
C559 C555 1.393 . S
C559 C558 1.391 . S
H560 C568 0.950 . S
H561 C573 0.950 . S
H562 C570 0.950 . S
H563 C572 0.950 . S
H564 C574 0.950 . S
H565 C576 0.950 . S
H566 C578 0.950 . S
H567 C579 0.950 . S
C568 H560 0.950 . S
C568 C569 1.386 . S
C568 C570 1.391 . S
C569 C568 1.386 . S
C569 C573 1.393 . S
C570 H562 0.950 . S
C570 C568 1.391 . S
C570 C571 1.400 . S
C571 C570 1.400 . S
C571 C572 1.398 . S
C571 C577 1.491 . S
C572 H563 0.950 . S
C572 C571 1.398 . S
C572 C573 1.391 . S
C573 H561 0.950 . S
C573 C569 1.393 . S
C573 C572 1.391 . S
C574 H564 0.950 . S
C574 C575 1.386 . S
C574 C576 1.391 . S
C575 C574 1.386 . S
C575 C579 1.393 . S
C576 H565 0.950 . S
C576 C574 1.391 . S
C576 C577 1.400 . S
C577 C571 1.491 . S
C577 C576 1.400 . S
C577 C578 1.398 . S
C578 H566 0.950 . S
C578 C577 1.398 . S
C578 C579 1.391 . S
C579 H567 0.950 . S
C579 C575 1.393 . S
C579 C578 1.391 . S
H580 C588 0.950 . S
H581 C593 0.950 . S
H582 C590 0.950 . S
H583 C592 0.950 . S
H584 C594 0.950 . S
H585 C596 0.950 . S
H586 C598 0.950 . S
H587 C599 0.950 . S
C588 H580 0.950 . S
C588 C589 1.386 . S
C588 C590 1.391 . S
C589 C588 1.386 . S
C589 C593 1.393 . S
C590 H582 0.950 . S
C590 C588 1.391 . S
C590 C591 1.400 . S
C591 C590 1.400 . S
C591 C592 1.398 . S
C591 C597 1.491 . S
C592 H583 0.950 . S
C592 C591 1.398 . S
C592 C593 1.391 . S
C593 H581 0.950 . S
C593 C589 1.393 . S
C593 C592 1.391 . S
C594 H584 0.950 . S
C594 C595 1.386 . S
C594 C596 1.391 . S
C595 C594 1.386 . S
C595 C599 1.393 . S
C596 H585 0.950 . S
C596 C594 1.391 . S
C596 C597 1.400 . S
C597 C591 1.491 . S
C597 C596 1.400 . S
C597 C598 1.398 . S
C598 H586 0.950 . S
C598 C597 1.398 . S
C598 C599 1.391 . S
C599 H587 0.950 . S
C599 C595 1.393 . S
C599 C598 1.391 . S
H600 C608 0.950 . S
H601 C613 0.950 1_556 S
H602 C610 0.950 . S
H603 C612 0.944 1_455 S
H604 C614 0.950 . S
H605 C616 0.950 . S
H606 C618 0.946 1_655 S
H607 C619 0.950 1_554 S
C608 H600 0.950 . S
C608 C609 1.386 . S
C608 C610 1.391 . S
C609 C608 1.386 . S
C609 C613 1.393 . S
C610 H602 0.950 . S
C610 C608 1.391 . S
C610 C611 1.400 . S
C611 C610 1.400 . S
C611 C612 1.398 1_554 S
C611 C617 1.491 1_654 S
C612 H603 0.944 1_655 S
C612 C611 1.398 1_556 S
C612 C613 1.391 1_556 S
C613 H601 0.950 1_554 S
C613 C609 1.393 . S
C613 C612 1.391 1_554 S
C614 H604 0.950 . S
C614 C615 1.386 . S
C614 C616 1.391 . S
C615 C614 1.386 . S
C615 C619 1.393 . S
C616 H605 0.950 . S
C616 C614 1.391 . S
C616 C617 1.400 . S
C617 C611 1.491 1_456 S
C617 C616 1.400 . S
C617 C618 1.398 1_556 S
C618 H606 0.946 1_455 S
C618 C617 1.398 1_554 S
C618 C619 1.391 1_554 S
C619 H607 0.950 1_556 S
C619 C615 1.393 . S
C619 C618 1.391 1_556 S
H620 C628 0.950 . S
H621 C633 0.950 . S
H622 C630 0.945 1_554 S
H623 C632 0.950 . S
H624 C634 0.950 . S
H625 C636 0.945 1_556 S
H626 C638 0.950 . S
H627 C639 0.950 . S
C628 H620 0.950 . S
C628 C629 1.386 . S
C628 C630 1.394 . S
C629 C628 1.386 . S
C629 C633 1.393 . S
C630 H622 0.945 1_556 S
C630 C628 1.394 . S
C630 C631 1.402 . S
C631 C630 1.402 . S
C631 C632 1.398 . S
C631 C637 1.491 1_556 S
C632 H623 0.950 . S
C632 C631 1.398 . S
C632 C633 1.391 . S
C633 H621 0.950 . S
C633 C629 1.393 . S
C633 C632 1.391 . S
C634 H624 0.950 . S
C634 C635 1.386 . S
C634 C636 1.394 . S
C635 C634 1.386 . S
C635 C639 1.393 . S
C636 H625 0.945 1_554 S
C636 C634 1.394 . S
C636 C637 1.402 . S
C637 C631 1.491 1_554 S
C637 C636 1.402 . S
C637 C638 1.398 . S
C638 H626 0.950 . S
C638 C637 1.398 . S
C638 C639 1.391 . S
C639 H627 0.950 . S
C639 C635 1.393 . S
C639 C638 1.391 . S
H640 C648 0.950 . S
H641 C653 0.950 . S
H642 C650 0.950 . S
H643 C652 0.950 . S
H644 C654 0.950 . S
H645 C656 0.950 . S
H646 C658 0.950 . S
H647 C659 0.950 . S
C648 H640 0.950 . S
C648 C649 1.386 . S
C648 C650 1.391 . S
C649 C648 1.386 . S
C649 C653 1.393 1_545 S
C650 H642 0.950 . S
C650 C648 1.391 . S
C650 C651 1.400 . S
C651 C650 1.400 . S
C651 C652 1.398 1_545 S
C651 C657 1.491 1_544 S
C652 H643 0.950 . S
C652 C651 1.398 1_565 S
C652 C653 1.391 . S
C653 H641 0.950 . S
C653 C649 1.393 1_565 S
C653 C652 1.391 . S
C654 H644 0.950 . S
C654 C655 1.386 . S
C654 C656 1.391 . S
C655 C654 1.386 . S
C655 C659 1.393 1_565 S
C656 H645 0.950 . S
C656 C654 1.391 . S
C656 C657 1.400 . S
C657 C651 1.491 1_566 S
C657 C656 1.400 . S
C657 C658 1.398 1_565 S
C658 H646 0.950 . S
C658 C657 1.398 1_545 S
C658 C659 1.391 . S
C659 H647 0.950 . S
C659 C655 1.393 1_545 S
C659 C658 1.391 . S
H660 C668 0.950 . S
H661 C673 0.950 . S
H662 C670 0.950 . S
H663 C672 0.950 . S
H664 C674 0.950 . S
H665 C676 0.950 . S
H666 C678 0.950 . S
H667 C679 0.950 . S
C668 H660 0.950 . S
C668 C669 1.386 1_545 S
C668 C670 1.391 . S
C669 C668 1.386 1_565 S
C669 C673 1.393 . S
C670 H662 0.950 . S
C670 C668 1.391 . S
C670 C671 1.400 1_545 S
C671 C670 1.400 1_565 S
C671 C672 1.398 . S
C671 C677 1.491 1_565 S
C672 H663 0.950 . S
C672 C671 1.398 . S
C672 C673 1.391 . S
C673 H661 0.950 . S
C673 C669 1.393 . S
C673 C672 1.391 . S
C674 H664 0.950 . S
C674 C675 1.386 1_565 S
C674 C676 1.391 . S
C675 C674 1.386 1_545 S
C675 C679 1.393 . S
C676 H665 0.950 . S
C676 C674 1.391 . S
C676 C677 1.400 1_565 S
C677 C671 1.491 1_545 S
C677 C676 1.400 1_545 S
C677 C678 1.398 . S
C678 H666 0.950 . S
C678 C677 1.398 . S
C678 C679 1.391 . S
C679 H667 0.950 . S
C679 C675 1.393 . S
C679 C678 1.391 . S
H680 C688 0.950 1_655 S
H681 C693 0.950 . S
H682 C690 0.950 . S
H683 C692 0.950 . S
H684 C694 0.950 1_455 S
H685 C696 0.950 . S
H686 C698 0.950 . S
H687 C699 0.950 . S
C688 H680 0.950 1_455 S
C688 C689 1.386 . S
C688 C690 1.391 1_455 S
C689 C688 1.386 . S
C689 C693 1.393 . S
C690 H682 0.950 . S
C690 C688 1.391 1_655 S
C690 C691 1.400 1_655 S
C691 C690 1.400 1_455 S
C691 C692 1.398 . S
C691 C697 1.491 1_455 S
C692 H683 0.950 . S
C692 C691 1.398 . S
C692 C693 1.391 . S
C693 H681 0.950 . S
C693 C689 1.393 . S
C693 C692 1.391 . S
C694 H684 0.950 1_655 S
C694 C695 1.386 . S
C694 C696 1.391 1_655 S
C695 C694 1.386 . S
C695 C699 1.393 . S
C696 H685 0.950 . S
C696 C694 1.391 1_455 S
C696 C697 1.400 1_455 S
C697 C691 1.491 1_655 S
C697 C696 1.400 1_655 S
C697 C698 1.398 . S
C698 H686 0.950 . S
C698 C697 1.398 . S
C698 C699 1.391 . S
C699 H687 0.950 . S
C699 C695 1.393 . S
C699 C698 1.391 . S
H700 C708 0.950 . S
H701 C713 0.950 . S
H702 C710 0.950 . S
H703 C712 0.950 . S
H704 C714 0.950 . S
H705 C716 0.950 . S
H706 C718 0.950 . S
H707 C719 0.950 . S
C708 H700 0.950 . S
C708 C709 1.386 . S
C708 C710 1.391 . S
C709 C708 1.386 . S
C709 C713 1.393 . S
C710 H702 0.950 . S
C710 C708 1.391 . S
C710 C711 1.400 . S
C711 C710 1.400 . S
C711 C712 1.398 . S
C711 C717 1.491 . S
C712 H703 0.950 . S
C712 C711 1.398 . S
C712 C713 1.391 . S
C713 H701 0.950 . S
C713 C709 1.393 . S
C713 C712 1.391 . S
C714 H704 0.950 . S
C714 C715 1.386 . S
C714 C716 1.391 . S
C715 C714 1.386 . S
C715 C719 1.393 . S
C716 H705 0.950 . S
C716 C714 1.391 . S
C716 C717 1.400 . S
C717 C711 1.491 . S
C717 C716 1.400 . S
C717 C718 1.398 . S
C718 H706 0.950 . S
C718 C717 1.398 . S
C718 C719 1.391 . S
C719 H707 0.950 . S
C719 C715 1.393 . S
C719 C718 1.391 . S
H720 C728 0.950 . S
H721 C733 0.950 . S
H722 C730 0.950 . S
H723 C732 0.950 . S
H724 C734 0.950 . S
H725 C736 0.950 . S
H726 C738 0.950 . S
H727 C739 0.950 . S
C728 H720 0.950 . S
C728 C729 1.386 . S
C728 C730 1.391 . S
C729 C728 1.386 . S
C729 C733 1.393 . S
C730 H722 0.950 . S
C730 C728 1.391 . S
C730 C731 1.400 . S
C731 C730 1.400 . S
C731 C732 1.398 . S
C731 C737 1.491 . S
C732 H723 0.950 . S
C732 C731 1.398 . S
C732 C733 1.391 . S
C733 H721 0.950 . S
C733 C729 1.393 . S
C733 C732 1.391 . S
C734 H724 0.950 . S
C734 C735 1.386 . S
C734 C736 1.391 . S
C735 C734 1.386 . S
C735 C739 1.393 . S
C736 H725 0.950 . S
C736 C734 1.391 . S
C736 C737 1.400 . S
C737 C731 1.491 . S
C737 C736 1.400 . S
C737 C738 1.398 . S
C738 H726 0.950 . S
C738 C737 1.398 . S
C738 C739 1.391 . S
C739 H727 0.950 . S
C739 C735 1.393 . S
C739 C738 1.391 . S
H740 C748 0.950 . S
H741 C753 0.950 . S
H742 C750 0.950 . S
H743 C752 0.950 . S
H744 C754 0.950 . S
H745 C756 0.950 . S
H746 C758 0.950 . S
H747 C759 0.950 . S
C748 H740 0.950 . S
C748 C749 1.386 . S
C748 C750 1.391 . S
C749 C748 1.386 . S
C749 C753 1.393 . S
C750 H742 0.950 . S
C750 C748 1.391 . S
C750 C751 1.400 . S
C751 C750 1.400 . S
C751 C752 1.398 . S
C751 C757 1.491 . S
C752 H743 0.950 . S
C752 C751 1.398 . S
C752 C753 1.391 . S
C753 H741 0.950 . S
C753 C749 1.393 . S
C753 C752 1.391 . S
C754 H744 0.950 . S
C754 C755 1.386 . S
C754 C756 1.391 . S
C755 C754 1.386 . S
C755 C759 1.393 . S
C756 H745 0.950 . S
C756 C754 1.391 . S
C756 C757 1.400 . S
C757 C751 1.491 . S
C757 C756 1.400 . S
C757 C758 1.398 . S
C758 H746 0.950 . S
C758 C757 1.398 . S
C758 C759 1.391 . S
C759 H747 0.950 . S
C759 C755 1.393 . S
C759 C758 1.391 . S
H760 C768 0.950 . S
H761 C773 0.950 . S
H762 C770 0.950 . S
H763 C772 0.950 . S
H764 C774 0.950 . S
H765 C776 0.950 . S
H766 C778 0.950 . S
H767 C779 0.950 . S
C768 H760 0.950 . S
C768 C769 1.386 . S
C768 C770 1.391 . S
C769 C768 1.386 . S
C769 C773 1.393 . S
C770 H762 0.950 . S
C770 C768 1.391 . S
C770 C771 1.400 . S
C771 C770 1.400 . S
C771 C772 1.398 . S
C771 C777 1.491 . S
C772 H763 0.950 . S
C772 C771 1.398 . S
C772 C773 1.391 . S
C773 H761 0.950 . S
C773 C769 1.393 . S
C773 C772 1.391 . S
C774 H764 0.950 . S
C774 C775 1.386 . S
C774 C776 1.391 . S
C775 C774 1.386 . S
C775 C779 1.393 . S
C776 H765 0.950 . S
C776 C774 1.391 . S
C776 C777 1.400 . S
C777 C771 1.491 . S
C777 C776 1.400 . S
C777 C778 1.398 . S
C778 H766 0.950 . S
C778 C777 1.398 . S
C778 C779 1.391 . S
C779 H767 0.950 . S
C779 C775 1.393 . S
C779 C778 1.391 . S
H780 C788 0.950 . S
H781 C793 0.950 . S
H782 C790 0.950 . S
H783 C792 0.950 . S
H784 C794 0.950 . S
H785 C796 0.950 . S
H786 C798 0.950 . S
H787 C799 0.950 . S
C788 H780 0.950 . S
C788 C789 1.386 . S
C788 C790 1.391 . S
C789 C788 1.386 . S
C789 C793 1.393 . S
C790 H782 0.950 . S
C790 C788 1.391 . S
C790 C791 1.400 . S
C791 C790 1.400 . S
C791 C792 1.398 . S
C791 C797 1.491 . S
C792 H783 0.950 . S
C792 C791 1.398 . S
C792 C793 1.391 . S
C793 H781 0.950 . S
C793 C789 1.393 . S
C793 C792 1.391 . S
C794 H784 0.950 . S
C794 C795 1.386 . S
C794 C796 1.391 . S
C795 C794 1.386 . S
C795 C799 1.393 . S
C796 H785 0.950 . S
C796 C794 1.391 . S
C796 C797 1.400 . S
C797 C791 1.491 . S
C797 C796 1.400 . S
C797 C798 1.398 . S
C798 H786 0.950 . S
C798 C797 1.398 . S
C798 C799 1.391 . S
C799 H787 0.950 . S
C799 C795 1.393 . S
C799 C798 1.391 . S
H800 C808 0.950 . S
H801 C813 0.950 . S
H802 C810 0.950 . S
H803 C812 0.950 . S
H804 C814 0.950 . S
H805 C816 0.950 . S
H806 C818 0.950 . S
H807 C819 0.950 . S
C808 H800 0.950 . S
C808 C809 1.386 . S
C808 C810 1.391 . S
C809 C808 1.386 . S
C809 C813 1.393 . S
C810 H802 0.950 . S
C810 C808 1.391 . S
C810 C811 1.400 . S
C811 C810 1.400 . S
C811 C812 1.398 . S
C811 C817 1.491 . S
C812 H803 0.950 . S
C812 C811 1.398 . S
C812 C813 1.391 . S
C813 H801 0.950 . S
C813 C809 1.393 . S
C813 C812 1.391 . S
C814 H804 0.950 . S
C814 C815 1.386 . S
C814 C816 1.391 . S
C815 C814 1.386 . S
C815 C819 1.393 . S
C816 H805 0.950 . S
C816 C814 1.391 . S
C816 C817 1.400 . S
C817 C811 1.491 . S
C817 C816 1.400 . S
C817 C818 1.398 . S
C818 H806 0.950 . S
C818 C817 1.398 . S
C818 C819 1.391 . S
C819 H807 0.950 . S
C819 C815 1.393 . S
C819 C818 1.391 . S
H820 C828 0.950 . S
H821 C833 0.950 . S
H822 C830 0.950 . S
H823 C832 0.950 . S
H824 C834 0.950 . S
H825 C836 0.950 . S
H826 C838 0.950 . S
H827 C839 0.950 . S
C828 H820 0.950 . S
C828 C829 1.386 . S
C828 C830 1.391 . S
C829 C828 1.386 . S
C829 C833 1.393 . S
C830 H822 0.950 . S
C830 C828 1.391 . S
C830 C831 1.400 . S
C831 C830 1.400 . S
C831 C832 1.398 . S
C831 C837 1.491 . S
C832 H823 0.950 . S
C832 C831 1.398 . S
C832 C833 1.391 . S
C833 H821 0.950 . S
C833 C829 1.393 . S
C833 C832 1.391 . S
C834 H824 0.950 . S
C834 C835 1.386 . S
C834 C836 1.391 . S
C835 C834 1.386 . S
C835 C839 1.393 . S
C836 H825 0.950 . S
C836 C834 1.391 . S
C836 C837 1.400 . S
C837 C831 1.491 . S
C837 C836 1.400 . S
C837 C838 1.398 . S
C838 H826 0.950 . S
C838 C837 1.398 . S
C838 C839 1.391 . S
C839 H827 0.950 . S
C839 C835 1.393 . S
C839 C838 1.391 . S
C489 C202 2.799 . S
C495 C2 2.806 . S
C509 C42 2.799 . S
C515 C122 2.804 . S
C529 C162 2.530 . S
C535 C82 2.528 . S
C549 C442 2.891 . S
C555 C242 2.873 . S
C569 C282 2.895 . S
C575 C362 2.882 . S
C589 C402 2.593 . S
C595 C322 2.589 . S
C609 C15 3.341 . S
C615 C255 3.363 . S
C629 C295 3.413 . S
C635 C55 3.392 . S
C649 C95 3.016 . S
C655 C335 3.029 . S
C669 C375 3.354 . S
C675 C135 3.336 . S
C689 C415 3.044 . S
C695 C175 3.022 . S
C709 C215 3.396 . S
C715 C455 3.416 . S
C729 C181 0.551 . S
C735 C21 0.687 . S
C749 C221 0.642 . S
C755 C61 0.604 . S
C769 C101 0.508 . S
C775 C141 0.627 . S
C789 C261 0.379 . S
C795 C421 0.367 . S
C809 C461 0.439 . S
C815 C301 0.471 . S
C829 C341 0.382 . S
C835 C381 0.443 . S
