# Generated by pormake.
# Topology qtz-e, (6)-cn, num edge types: 1
# Building blocks:
#     Node 0, Type 0, BuildingBlock: LEVNOQ01_clean_sbu_1, # of connection points: 6
#     Node 1, Type 0, BuildingBlock: LEVNOQ01_clean_sbu_1, # of connection points: 6
#     Node 2, Type 0, BuildingBlock: LEVNOQ01_clean_sbu_1, # of connection points: 6
#     Node 3, Type 0, BuildingBlock: LEVNOQ01_clean_sbu_1, # of connection points: 6
#     Node 4, Type 0, BuildingBlock: LEVNOQ01_clean_sbu_1, # of connection points: 6
#     Node 5, Type 0, BuildingBlock: LEVNOQ01_clean_sbu_1, # of connection points: 6
#     Edge 6, Type (0, 0), BuildingBlock: OJICUG_clean_linker_0, # of connection points: 2
#     Edge 7, Type (0, 0), BuildingBlock: OJICUG_clean_linker_0, # of connection points: 2
#     Edge 8, Type (0, 0), BuildingBlock: OJICUG_clean_linker_0, # of connection points: 2
#     Edge 9, Type (0, 0), BuildingBlock: OJICUG_clean_linker_0, # of connection points: 2
#     Edge 10, Type (0, 0), BuildingBlock: OJICUG_clean_linker_0, # of connection points: 2
#     Edge 11, Type (0, 0), BuildingBlock: OJICUG_clean_linker_0, # of connection points: 2
#     Edge 12, Type (0, 0), BuildingBlock: OJICUG_clean_linker_0, # of connection points: 2
#     Edge 13, Type (0, 0), BuildingBlock: OJICUG_clean_linker_0, # of connection points: 2
#     Edge 14, Type (0, 0), BuildingBlock: OJICUG_clean_linker_0, # of connection points: 2
#     Edge 15, Type (0, 0), BuildingBlock: OJICUG_clean_linker_0, # of connection points: 2
#     Edge 16, Type (0, 0), BuildingBlock: OJICUG_clean_linker_0, # of connection points: 2
#     Edge 17, Type (0, 0), BuildingBlock: OJICUG_clean_linker_0, # of connection points: 2
#     Edge 18, Type (0, 0), BuildingBlock: OJICUG_clean_linker_0, # of connection points: 2
#     Edge 19, Type (0, 0), BuildingBlock: OJICUG_clean_linker_0, # of connection points: 2
#     Edge 20, Type (0, 0), BuildingBlock: OJICUG_clean_linker_0, # of connection points: 2
#     Edge 21, Type (0, 0), BuildingBlock: OJICUG_clean_linker_0, # of connection points: 2
#     Edge 22, Type (0, 0), BuildingBlock: OJICUG_clean_linker_0, # of connection points: 2
#     Edge 23, Type (0, 0), BuildingBlock: OJICUG_clean_linker_0, # of connection points: 2
# Relax obj value: 0.332
# Max RMSD: 0.227
# Mean RMSD: 0.227
data_MOF--net-qtz-e--node1-LEVNOQ01_clean_sbu_1--edge1-OJICUG_clean_linker_0
_symmetry_space_group_name_H-M    P1
_symmetry_Int_Tables_number       1
_symmetry_cell_setting            triclinic
loop_
_symmetry_equiv_pos_as_xyz
'x, y, z'
_cell_length_a     21.115266
_cell_length_b     21.111702
_cell_length_c     23.636063
_cell_angle_alpha  90.28998
_cell_angle_beta   90.581566
_cell_angle_gamma 119.50341
loop_
_atom_site_label
_atom_site_type_symbol
_atom_site_fract_x
_atom_site_fract_y
_atom_site_fract_z
_atom_type_partial_charge
O0 O 0.34568 0.44095 0.09313 0.0
Mg1 Mg 0.37348 0.53876 0.04988 0.0
O2 O 0.27763 0.37119 0.02301 0.0
Mg3 Mg 0.2007 0.41933 0.00336 0.0
O4 O 0.27072 0.51835 0.05306 0.0
O5 O 0.35718 0.62261 0.08497 0.0
O6 O 0.13118 0.47516 -0.01909 0.0
O7 O 0.12562 0.35974 0.08053 0.0
Mg8 Mg 0.0348 0.30554 0.95456 0.0
O9 O 0.13727 0.32303 0.94567 0.0
O10 O 0.03479 0.40231 0.92779 0.0
O11 O 0.01607 0.28393 0.04231 0.0
O12 O 0.04751 0.23349 0.89901 0.0
C13 C 0.33969 0.51526 0.91947 0.0
C14 C 0.32831 0.38751 0.05991 0.0
C15 C 0.28937 0.58148 0.07269 0.0
C16 C 0.07645 0.46434 0.95022 0.0
C17 C 0.05837 0.31142 0.08503 0.0
C18 C 0.11627 0.26972 0.91019 0.0
O19 O 0.3885 0.54175 0.95853 0.0
O20 O 0.27246 0.47536 0.93017 0.0
O21 O 0.72223 0.02682 0.36629 0.0
Mg22 Mg 0.73039 0.04976 0.27851 0.0
O23 O 0.73821 0.1331 0.39925 0.0
Mg24 Mg 0.75102 0.20574 0.32069 0.0
O25 O 0.80928 0.15722 0.27198 0.0
O26 O 0.82405 0.06974 0.23433 0.0
O27 O 0.7658 0.27591 0.2429 0.0
O28 O 0.86252 0.29871 0.35565 0.0
Mg29 Mg 0.74016 0.35704 0.35181 0.0
O30 O 0.68991 0.25047 0.36503 0.0
O31 O 0.74562 0.36772 0.26238 0.0
O32 O 0.84171 0.38594 0.38977 0.0
O33 O 0.64353 0.31512 0.39906 0.0
C34 C 0.60277 0.06899 0.2521 0.0
C35 C 0.72706 0.06847 0.40709 0.0
C36 C 0.84902 0.13838 0.24307 0.0
C37 C 0.761 0.33122 0.22762 0.0
C38 C 0.88398 0.35999 0.38113 0.0
C39 C 0.64089 0.25306 0.39472 0.0
O40 O 0.63142 0.03094 0.23725 0.0
O41 O 0.63806 0.12513 0.2834 0.0
O42 O 0.41413 0.78689 0.62573 0.0
Mg43 Mg 0.39773 0.68038 0.60846 0.0
O44 O 0.52268 0.84184 0.67042 0.0
Mg45 Mg 0.55661 0.7581 0.64186 0.0
O46 O 0.45007 0.6671 0.67462 0.0
O47 O 0.33118 0.59626 0.66105 0.0
O48 O 0.57111 0.6667 0.60849 0.0
O49 O 0.60416 0.75534 0.73076 0.0
Mg50 Mg 0.72276 0.7872 0.63054 0.0
O51 O 0.6669 0.84176 0.60839 0.0
O52 O 0.67884 0.68027 0.5902 0.0
O53 O 0.72028 0.78445 0.71969 0.0
O54 O 0.7833 0.88713 0.58985 0.0
C55 C 0.48213 0.72208 0.51593 0.0
C56 C 0.4635 0.84017 0.65425 0.0
C57 C 0.38862 0.61547 0.69196 0.0
C58 C 0.61001 0.64105 0.59021 0.0
C59 C 0.66583 0.76815 0.75085 0.0
C60 C 0.72556 0.89331 0.58682 0.0
O61 O 0.43414 0.65975 0.5313 0.0
O62 O 0.51968 0.76918 0.55331 0.0
O63 O 0.80387 0.66084 0.09243 0.0
Mg64 Mg 0.85807 0.70629 0.0166 0.0
O65 O 0.82308 0.57476 0.06127 0.0
Mg66 Mg 0.76771 0.5518 0.9688 0.0
O67 O 0.77441 0.66208 0.95898 0.0
O68 O 0.83097 0.7796 -0.01973 0.0
O69 O 0.71494 0.5319 0.87961 0.0
O70 O 0.65127 0.49077 0.0011 0.0
Mg71 Mg 0.70061 0.38995 0.9089 0.0
O72 O 0.76497 0.44556 0.97262 0.0
O73 O 0.7566 0.46514 0.84292 0.0
O74 O 0.60583 0.39112 0.9441 0.0
O75 O 0.74359 0.33456 0.95877 0.0
C76 C 0.93829 0.63696 0.95299 0.0
C77 C 0.82125 0.61295 0.10277 0.0
C78 C 0.77878 0.72495 0.9538 0.0
C79 C 0.72766 0.50479 0.83602 0.0
C80 C 0.59818 0.43042 -0.01789 0.0
C81 C 0.76875 0.3909 -0.00855 0.0
O82 O 0.94497 0.68136 -0.00745 0.0
O83 O 0.87702 0.59788 0.92917 0.0
O84 O 0.16835 0.62991 0.29099 0.0
Mg85 Mg 0.25438 0.73665 0.26938 0.0
O86 O 0.12265 0.67976 0.34784 0.0
Mg87 Mg 0.19672 0.78692 0.30377 0.0
O88 O 0.30515 0.78612 0.34035 0.0
O89 O 0.34661 0.73395 0.27815 0.0
O90 O 0.27893 0.88781 0.25959 0.0
O91 O 0.20918 0.85487 0.38797 0.0
Mg92 Mg 0.15029 0.91199 0.2775 0.0
O93 O 0.10427 0.80056 0.26899 0.0
O94 O 0.25327 0.97234 0.23307 0.0
O95 O 0.16211 0.9264 0.36599 0.0
O96 O 0.04426 0.85578 0.24146 0.0
C97 C 0.19913 0.74002 0.17602 0.0
C98 C 0.12436 0.62347 0.32976 0.0
C99 C 0.3526 0.76667 0.32567 0.0
C100 C 0.29729 0.94765 0.23561 0.0
C101 C 0.18893 0.90109 0.40185 0.0
C102 C 0.04603 0.79599 0.24702 0.0
O103 O 0.26447 0.78443 0.18769 0.0
O104 O 0.157 0.71812 0.21759 0.0
O105 O 0.24181 0.22366 0.70127 0.0
Mg106 Mg 0.26004 0.21775 0.61396 0.0
O107 O 0.33209 0.21013 0.73872 0.0
Mg108 Mg 0.38805 0.18478 0.66181 0.0
O109 O 0.28559 0.1367 0.60826 0.0
O110 O 0.18834 0.12589 0.56484 0.0
O111 O 0.44172 0.15845 0.59061 0.0
O112 O 0.34995 0.06753 0.69409 0.0
Mg113 Mg 0.52068 0.15324 0.71529 0.0
O114 O 0.49672 0.23411 0.70576 0.0
O115 O 0.51777 0.12331 0.62636 0.0
O116 O 0.42661 0.09539 0.76407 0.0
O117 O 0.60199 0.25806 0.74175 0.0
C118 C 0.41436 0.33773 0.59414 0.0
C119 C 0.27784 0.22125 0.74381 0.0
C120 C 0.23013 0.09887 0.57557 0.0
C121 C 0.48544 0.13363 0.58427 0.0
C122 C 0.37981 0.04724 0.73162 0.0
C123 C 0.55901 0.28148 0.72544 0.0
O124 O 0.34841 0.31436 0.57912 0.0
O125 O 0.43197 0.29943 0.62502 0.0
C126 C 0.15176 0.61648 0.13844 0.0
C127 C 0.18492 0.69152 0.12739 0.0
H128 H 0.16266 0.52112 0.12982 0.0
C129 C 0.23186 0.71979 0.08146 0.0
H130 H 0.11368 0.59281 0.17273 0.0
C131 C 0.26009 0.67895 0.05735 0.0
C132 C 0.23893 0.6092 0.07771 0.0
H133 H 0.2567 0.77709 0.07147 0.0
H134 H 0.30464 0.70493 0.02803 0.0
C135 C 0.18024 0.57551 0.11447 0.0
C136 C 0.57522 0.13134 0.51757 0.0
C137 C 0.50966 0.13174 0.52621 0.0
H138 H 0.67 0.17129 0.46675 0.0
C139 C 0.47791 0.14954 0.48075 0.0
H140 H 0.60043 0.1166 0.55131 0.0
C141 C 0.51773 0.1803 0.43217 0.0
C142 C 0.5887 0.19189 0.42814 0.0
H143 H 0.42648 0.14863 0.48531 0.0
H144 H 0.49648 0.20271 0.40097 0.0
C145 C 0.61487 0.16181 0.46863 0.0
C146 C 0.30573 0.49637 0.81746 0.0
C147 C 0.35892 0.53362 0.85978 0.0
H148 H 0.27401 0.49266 0.73109 0.0
C149 C 0.4264 0.59228 0.84464 0.0
H150 H 0.25338 0.45024 0.82744 0.0
C151 C 0.43802 0.61671 0.78887 0.0
C152 C 0.38253 0.58262 0.74771 0.0
H153 H 0.46851 0.6218 0.87627 0.0
H154 H 0.48865 0.66469 0.77894 0.0
C155 C 0.31742 0.52065 0.76207 0.0
C156 C 0.7999 0.32172 0.12949 0.0
C157 C 0.77124 0.35215 0.16772 0.0
H158 H 0.82355 0.31192 0.04273 0.0
C159 C 0.74911 0.4007 0.14774 0.0
H160 H 0.81749 0.28411 0.14373 0.0
C161 C 0.75181 0.41552 0.09042 0.0
C162 C 0.77912 0.38439 0.05204 0.0
H163 H 0.72601 0.4244 0.17587 0.0
H164 H 0.72755 0.44729 0.07579 0.0
C165 C 0.8038 0.33779 0.0719 0.0
C166 C 0.46252 0.80857 0.45918 0.0
C167 C 0.47196 0.74718 0.46121 0.0
H168 H 0.41517 0.86268 0.4135 0.0
C169 C 0.45622 0.70225 0.41359 0.0
H170 H 0.47438 0.84386 0.49587 0.0
C171 C 0.42443 0.71428 0.36615 0.0
C172 C 0.40586 0.76976 0.367 0.0
H173 H 0.4634 0.65485 0.41469 0.0
H174 H 0.40781 0.67557 0.33131 0.0
C175 C 0.4284 0.81918 0.41243 0.0
C176 C 0.7009 0.46948 0.73625 0.0
C177 C 0.6778 0.48522 0.78715 0.0
H178 H 0.67663 0.38686 0.67391 0.0
C179 C 0.60277 0.44982 0.79845 0.0
H180 H 0.75815 0.4975 0.72583 0.0
C181 C 0.55588 0.38581 0.76883 0.0
C182 C 0.5845 0.35953 0.72759 0.0
H183 H 0.58307 0.46235 0.83672 0.0
H184 H 0.50169 0.35126 0.78487 0.0
C185 C 0.65425 0.40576 0.70675 0.0
C186 C 0.39485 0.35235 -0.0093 0.0
C187 C 0.38848 0.3735 0.04595 0.0
H188 H 0.46743 0.35511 0.92674 0.0
C189 C 0.44956 0.40136 0.08259 0.0
H190 H 0.34898 0.3303 0.96145 0.0
C191 C 0.51757 0.41796 0.06211 0.0
C192 C 0.52524 0.40442 0.00525 0.0
H193 H 0.44628 0.41701 0.12573 0.0
H194 H 0.56463 0.44405 0.09018 0.0
C195 C 0.46288 0.3675 0.97056 0.0
C196 C 0.06137 0.48782 0.32176 0.0
C197 C 0.07511 0.55076 0.35239 0.0
H198 H -0.0101 0.37373 0.30944 0.0
C199 C 0.03912 0.54338 0.40348 0.0
H200 H 0.08977 0.49171 0.28289 0.0
C201 C -0.01634 0.47526 0.41976 0.0
C202 C 0.96186 0.41418 0.38412 0.0
H203 H 0.0506 0.59069 0.42903 0.0
H204 H 0.95168 0.47217 0.45629 0.0
C205 C 0.00516 0.41974 0.33768 0.0
C206 C 0.44698 0.97821 0.7455 0.0
C207 C 0.3956 -0.01112 0.71444 0.0
H208 H 0.51111 0.92505 0.74977 0.0
C209 C 0.36896 0.95163 0.66268 0.0
H210 H 0.46908 0.00633 0.78543 0.0
C211 C 0.39387 0.90595 0.64219 0.0
C212 C 0.44581 0.89619 0.67292 0.0
H213 H 0.33025 0.95906 0.63716 0.0
H214 H 0.37214 0.87795 0.60215 0.0
C215 C 0.4723 0.93283 0.7247 0.0
C216 C 0.50144 0.53402 0.54958 0.0
C217 C 0.57128 0.56315 0.57428 0.0
H218 H 0.39683 0.44025 0.53655 0.0
C219 C 0.59347 0.51546 0.59609 0.0
H220 H 0.48333 0.5696 0.53185 0.0
C221 C 0.54367 0.4407 0.59858 0.0
C222 C 0.47099 0.41286 0.57989 0.0
H223 H 0.64675 0.53638 0.61571 0.0
H224 H 0.56081 0.40546 0.61834 0.0
C225 C 0.4517 0.4598 0.55249 0.0
C226 C 0.07295 0.5744 -0.01235 0.0
C227 C 0.05691 0.5227 0.94422 0.0
H228 H 0.04936 0.65348 0.02453 0.0
C229 C 0.01471 0.52212 0.89782 0.0
H230 H 0.10486 0.5758 0.0238 0.0
C231 C -0.01603 0.56752 0.89739 0.0
C232 C -0.0068 0.61344 0.94399 0.0
H233 H 0.00217 0.48378 0.86317 0.0
H234 H 0.94764 0.56188 0.86262 0.0
C235 C 0.04134 0.61934 -0.01222 0.0
C236 C 0.41802 0.05884 0.24831 0.0
C237 C 0.375 -0.00866 0.22134 0.0
H238 H 0.52407 0.13628 0.27966 0.0
C239 C 0.40956 0.95588 0.19651 0.0
H240 H 0.39282 0.0867 0.26879 0.0
C241 C 0.48437 0.98316 0.20358 0.0
C242 C 0.52645 0.04684 0.23559 0.0
H243 H 0.37792 0.90393 0.17527 0.0
H244 H 0.50824 0.95194 0.18686 0.0
C245 C 0.49313 0.08638 0.2554 0.0
C246 C 0.28083 0.29243 0.82975 0.0
C247 C 0.25 0.22609 0.79963 0.0
H248 H 0.26301 0.3577 0.8906 0.0
C249 C 0.18034 0.17069 0.81393 0.0
H250 H 0.334 0.33651 0.81869 0.0
C251 C 0.13929 0.18348 0.85359 0.0
C252 C 0.16703 0.25201 0.87997 0.0
H253 H 0.15512 0.11942 0.79078 0.0
H254 H 0.08387 0.14104 0.86076 0.0
C255 C 0.23979 0.30493 0.87029 0.0
C256 C 0.96272 0.1684 0.19158 0.0
C257 C 0.91734 0.19207 0.21591 0.0
H258 H 0.04634 0.19046 0.13169 0.0
C259 C 0.93263 0.26397 0.20685 0.0
H260 H 0.95297 0.11361 0.1983 0.0
C261 C -0.01348 0.30808 0.16854 0.0
C262 C 0.02678 0.28133 0.14011 0.0
H263 H 0.89909 0.28394 0.22546 0.0
H264 H -0.00778 0.36036 0.15745 0.0
C265 C 0.01691 0.21267 0.15399 0.0
C266 C 0.66027 0.94714 0.53301 0.0
C267 C 0.72567 0.95162 0.55207 0.0
H268 H 0.6094 0.98232 0.47093 0.0
C269 C 0.79185 0.00696 0.5309 0.0
H270 H 0.6086 0.90619 0.54922 0.0
C271 C 0.79227 0.05163 0.48738 0.0
C272 C 0.72666 0.0418 0.46432 0.0
H273 H 0.84331 0.01255 0.54513 0.0
H274 H 0.84365 0.08954 0.4685 0.0
C275 C 0.6607 -0.00873 0.48873 0.0
C276 C 0.64653 0.689 0.83308 0.0
C277 C 0.67529 0.75927 0.81107 0.0
H278 H 0.65699 0.62266 0.89675 0.0
C279 C 0.72892 0.81881 0.84172 0.0
H280 H 0.60585 0.64227 0.80938 0.0
C281 C 0.758 0.80788 0.89147 0.0
C282 C 0.73513 0.73694 0.91042 0.0
H283 H 0.75232 0.87328 0.82484 0.0
H284 H 0.8026 0.85464 0.91228 0.0
C285 C 0.67649 0.67781 0.88253 0.0
C286 C 0.9141 0.70754 0.23606 0.0
C287 C -0.01382 0.72778 0.22285 0.0
H288 H 0.80249 0.64988 0.20889 0.0
C289 C -0.00089 0.69242 0.17764 0.0
H290 H 0.90274 0.73457 0.27035 0.0
C291 C 0.94157 0.64253 0.14317 0.0
C292 C 0.87052 0.62952 0.15217 0.0
H293 H 0.05379 0.70961 0.16435 0.0
H294 H 0.95432 0.62249 0.10511 0.0
C295 C 0.85665 0.6584 0.20125 0.0
C296 C 0.27496 0.0204 0.52957 0.0
C297 C 0.21712 0.0314 0.54584 0.0
H298 H 0.31157 0.96825 0.46996 0.0
C299 C 0.14708 -0.01602 0.52437 0.0
H300 H 0.32915 0.0553 0.54604 0.0
C301 C 0.13667 0.93326 0.48219 0.0
C302 C 0.19609 0.92915 0.46022 0.0
H303 H 0.10108 -0.00994 0.53679 0.0
H304 H 0.08314 0.9023 0.46272 0.0
C305 C 0.26471 0.96988 0.48648 0.0
loop_
_geom_bond_atom_site_label_1
_geom_bond_atom_site_label_2
_geom_bond_distance
_geom_bond_site_symmetry_2
_ccdc_geom_bond_type
O0 Mg1 1.990 . S
O0 C14 1.253 . S
Mg1 O0 1.990 . S
Mg1 O4 2.180 . S
Mg1 O5 2.117 . S
Mg1 O19 2.030 1_554 S
O2 Mg3 2.072 1_554 S
O2 C14 1.260 . S
Mg3 O2 2.072 1_556 S
Mg3 O4 2.099 1_556 S
Mg3 O6 2.079 . S
Mg3 O7 2.072 1_556 S
Mg3 O9 2.099 . S
Mg3 O20 2.079 . S
O4 Mg1 2.180 . S
O4 Mg3 2.099 1_554 S
O4 C15 1.279 . S
O5 Mg1 2.117 . S
O5 C15 1.250 . S
O6 Mg3 2.079 . S
O6 C16 1.264 . S
O7 Mg3 2.072 1_554 S
O7 C17 1.260 . S
Mg8 O9 2.180 . S
Mg8 O10 2.030 . S
Mg8 O11 1.990 1_556 S
Mg8 O12 2.117 . S
O9 Mg3 2.099 . S
O9 Mg8 2.180 . S
O9 C18 1.279 . S
O10 Mg8 2.030 . S
O10 C16 1.248 . S
O11 Mg8 1.990 1_554 S
O11 C17 1.253 . S
O12 Mg8 2.117 . S
O12 C18 1.250 . S
C13 O19 1.248 . S
C13 O20 1.264 . S
C14 O0 1.253 . S
C14 O2 1.260 . S
C15 O4 1.279 . S
C15 O5 1.250 . S
C16 O6 1.264 . S
C16 O10 1.248 . S
C17 O7 1.260 . S
C17 O11 1.253 . S
C18 O9 1.279 . S
C18 O12 1.250 . S
O19 Mg1 2.030 1_556 S
O19 C13 1.248 . S
O20 Mg3 2.079 . S
O20 C13 1.264 . S
O21 Mg22 1.990 . S
O21 C35 1.253 . S
Mg22 O21 1.990 . S
Mg22 O25 2.180 . S
Mg22 O26 2.117 . S
Mg22 O40 2.030 . S
O23 Mg24 2.072 . S
O23 C35 1.260 . S
Mg24 O23 2.072 . S
Mg24 O25 2.099 . S
Mg24 O27 2.079 . S
Mg24 O28 2.072 . S
Mg24 O30 2.099 . S
Mg24 O41 2.079 . S
O25 Mg22 2.180 . S
O25 Mg24 2.099 . S
O25 C36 1.279 . S
O26 Mg22 2.117 . S
O26 C36 1.250 . S
O27 Mg24 2.079 . S
O27 C37 1.264 . S
O28 Mg24 2.072 . S
O28 C38 1.260 . S
Mg29 O30 2.180 . S
Mg29 O31 2.030 . S
Mg29 O32 1.990 . S
Mg29 O33 2.117 . S
O30 Mg24 2.099 . S
O30 Mg29 2.180 . S
O30 C39 1.279 . S
O31 Mg29 2.030 . S
O31 C37 1.248 . S
O32 Mg29 1.990 . S
O32 C38 1.253 . S
O33 Mg29 2.117 . S
O33 C39 1.250 . S
C34 O40 1.248 . S
C34 O41 1.264 . S
C35 O21 1.253 . S
C35 O23 1.260 . S
C36 O25 1.279 . S
C36 O26 1.250 . S
C37 O27 1.264 . S
C37 O31 1.248 . S
C38 O28 1.260 . S
C38 O32 1.253 . S
C39 O30 1.279 . S
C39 O33 1.250 . S
O40 Mg22 2.030 . S
O40 C34 1.248 . S
O41 Mg24 2.079 . S
O41 C34 1.264 . S
O42 Mg43 1.990 . S
O42 C56 1.253 . S
Mg43 O42 1.990 . S
Mg43 O46 2.180 . S
Mg43 O47 2.117 . S
Mg43 O61 2.030 . S
O44 Mg45 2.072 . S
O44 C56 1.260 . S
Mg45 O44 2.072 . S
Mg45 O46 2.099 . S
Mg45 O48 2.079 . S
Mg45 O49 2.072 . S
Mg45 O51 2.099 . S
Mg45 O62 2.079 . S
O46 Mg43 2.180 . S
O46 Mg45 2.099 . S
O46 C57 1.279 . S
O47 Mg43 2.117 . S
O47 C57 1.250 . S
O48 Mg45 2.079 . S
O48 C58 1.264 . S
O49 Mg45 2.072 . S
O49 C59 1.260 . S
Mg50 O51 2.180 . S
Mg50 O52 2.030 . S
Mg50 O53 1.990 . S
Mg50 O54 2.117 . S
O51 Mg45 2.099 . S
O51 Mg50 2.180 . S
O51 C60 1.279 . S
O52 Mg50 2.030 . S
O52 C58 1.248 . S
O53 Mg50 1.990 . S
O53 C59 1.253 . S
O54 Mg50 2.117 . S
O54 C60 1.250 . S
C55 O61 1.248 . S
C55 O62 1.264 . S
C56 O42 1.253 . S
C56 O44 1.260 . S
C57 O46 1.279 . S
C57 O47 1.250 . S
C58 O48 1.264 . S
C58 O52 1.248 . S
C59 O49 1.260 . S
C59 O53 1.253 . S
C60 O51 1.279 . S
C60 O54 1.250 . S
O61 Mg43 2.030 . S
O61 C55 1.248 . S
O62 Mg45 2.079 . S
O62 C55 1.264 . S
O63 Mg64 1.990 1_554 S
O63 C77 1.253 . S
Mg64 O63 1.990 1_556 S
Mg64 O67 2.180 . S
Mg64 O68 2.117 . S
Mg64 O82 2.030 . S
O65 Mg66 2.072 1_554 S
O65 C77 1.260 . S
Mg66 O65 2.072 1_556 S
Mg66 O67 2.099 . S
Mg66 O69 2.079 . S
Mg66 O70 2.072 1_556 S
Mg66 O72 2.099 1_556 S
Mg66 O83 2.079 . S
O67 Mg64 2.180 . S
O67 Mg66 2.099 . S
O67 C78 1.279 . S
O68 Mg64 2.117 . S
O68 C78 1.250 . S
O69 Mg66 2.079 . S
O69 C79 1.264 . S
O70 Mg66 2.072 1_554 S
O70 C80 1.260 . S
Mg71 O72 2.180 . S
Mg71 O73 2.030 1_554 S
Mg71 O74 1.990 . S
Mg71 O75 2.117 . S
O72 Mg66 2.099 1_554 S
O72 Mg71 2.180 . S
O72 C81 1.279 . S
O73 Mg71 2.030 1_556 S
O73 C79 1.248 . S
O74 Mg71 1.990 . S
O74 C80 1.253 . S
O75 Mg71 2.117 . S
O75 C81 1.250 . S
C76 O82 1.248 . S
C76 O83 1.264 . S
C77 O63 1.253 . S
C77 O65 1.260 . S
C78 O67 1.279 . S
C78 O68 1.250 . S
C79 O69 1.264 . S
C79 O73 1.248 . S
C80 O70 1.260 . S
C80 O74 1.253 . S
C81 O72 1.279 . S
C81 O75 1.250 . S
O82 Mg64 2.030 . S
O82 C76 1.248 . S
O83 Mg66 2.079 . S
O83 C76 1.264 . S
O84 Mg85 1.990 . S
O84 C98 1.253 . S
Mg85 O84 1.990 . S
Mg85 O88 2.180 . S
Mg85 O89 2.117 . S
Mg85 O103 2.030 . S
O86 Mg87 2.072 . S
O86 C98 1.260 . S
Mg87 O86 2.072 . S
Mg87 O88 2.099 . S
Mg87 O90 2.079 . S
Mg87 O91 2.072 . S
Mg87 O93 2.099 . S
Mg87 O104 2.079 . S
O88 Mg85 2.180 . S
O88 Mg87 2.099 . S
O88 C99 1.279 . S
O89 Mg85 2.117 . S
O89 C99 1.250 . S
O90 Mg87 2.079 . S
O90 C100 1.264 . S
O91 Mg87 2.072 . S
O91 C101 1.260 . S
Mg92 O93 2.180 . S
Mg92 O94 2.030 . S
Mg92 O95 1.990 . S
Mg92 O96 2.117 . S
O93 Mg87 2.099 . S
O93 Mg92 2.180 . S
O93 C102 1.279 . S
O94 Mg92 2.030 . S
O94 C100 1.248 . S
O95 Mg92 1.990 . S
O95 C101 1.253 . S
O96 Mg92 2.117 . S
O96 C102 1.250 . S
C97 O103 1.248 . S
C97 O104 1.264 . S
C98 O84 1.253 . S
C98 O86 1.260 . S
C99 O88 1.279 . S
C99 O89 1.250 . S
C100 O90 1.264 . S
C100 O94 1.248 . S
C101 O91 1.260 . S
C101 O95 1.253 . S
C102 O93 1.279 . S
C102 O96 1.250 . S
O103 Mg85 2.030 . S
O103 C97 1.248 . S
O104 Mg87 2.079 . S
O104 C97 1.264 . S
O105 Mg106 1.990 . S
O105 C119 1.253 . S
Mg106 O105 1.990 . S
Mg106 O109 2.180 . S
Mg106 O110 2.117 . S
Mg106 O124 2.030 . S
O107 Mg108 2.072 . S
O107 C119 1.260 . S
Mg108 O107 2.072 . S
Mg108 O109 2.099 . S
Mg108 O111 2.079 . S
Mg108 O112 2.072 . S
Mg108 O114 2.099 . S
Mg108 O125 2.079 . S
O109 Mg106 2.180 . S
O109 Mg108 2.099 . S
O109 C120 1.279 . S
O110 Mg106 2.117 . S
O110 C120 1.250 . S
O111 Mg108 2.079 . S
O111 C121 1.264 . S
O112 Mg108 2.072 . S
O112 C122 1.260 . S
Mg113 O114 2.180 . S
Mg113 O115 2.030 . S
Mg113 O116 1.990 . S
Mg113 O117 2.117 . S
O114 Mg108 2.099 . S
O114 Mg113 2.180 . S
O114 C123 1.279 . S
O115 Mg113 2.030 . S
O115 C121 1.248 . S
O116 Mg113 1.990 . S
O116 C122 1.253 . S
O117 Mg113 2.117 . S
O117 C123 1.250 . S
C118 O124 1.248 . S
C118 O125 1.264 . S
C119 O105 1.253 . S
C119 O107 1.260 . S
C120 O109 1.279 . S
C120 O110 1.250 . S
C121 O111 1.264 . S
C121 O115 1.248 . S
C122 O112 1.260 . S
C122 O116 1.253 . S
C123 O114 1.279 . S
C123 O117 1.250 . S
O124 Mg106 2.030 . S
O124 C118 1.248 . S
O125 Mg108 2.079 . S
O125 C118 1.264 . S
C126 C127 1.387 . S
C126 H130 0.950 . S
C126 C135 1.390 . S
C127 C126 1.387 . S
C127 C129 1.387 . S
H128 C135 0.950 . S
C129 C127 1.387 . S
C129 C131 1.390 . S
C129 H133 0.950 . S
H130 C126 0.950 . S
C131 C129 1.390 . S
C131 C132 1.387 . S
C131 H134 0.950 . S
C132 C131 1.387 . S
C132 C135 1.387 . S
H133 C129 0.950 . S
H134 C131 0.950 . S
C135 C126 1.390 . S
C135 H128 0.950 . S
C135 C132 1.387 . S
C136 C137 1.387 . S
C136 H140 0.950 . S
C136 C145 1.390 . S
C137 C136 1.387 . S
C137 C139 1.387 . S
H138 C145 0.950 . S
C139 C137 1.387 . S
C139 C141 1.390 . S
C139 H143 0.950 . S
H140 C136 0.950 . S
C141 C139 1.390 . S
C141 C142 1.387 . S
C141 H144 0.950 . S
C142 C141 1.387 . S
C142 C145 1.387 . S
H143 C139 0.950 . S
H144 C141 0.950 . S
C145 C136 1.390 . S
C145 H138 0.950 . S
C145 C142 1.387 . S
C146 C147 1.387 . S
C146 H150 0.950 . S
C146 C155 1.390 . S
C147 C146 1.387 . S
C147 C149 1.387 . S
H148 C155 0.950 . S
C149 C147 1.387 . S
C149 C151 1.390 . S
C149 H153 0.950 . S
H150 C146 0.950 . S
C151 C149 1.390 . S
C151 C152 1.387 . S
C151 H154 0.950 . S
C152 C151 1.387 . S
C152 C155 1.387 . S
H153 C149 0.950 . S
H154 C151 0.950 . S
C155 C146 1.390 . S
C155 H148 0.950 . S
C155 C152 1.387 . S
C156 C157 1.387 . S
C156 H160 0.950 . S
C156 C165 1.390 . S
C157 C156 1.387 . S
C157 C159 1.387 . S
H158 C165 0.950 . S
C159 C157 1.387 . S
C159 C161 1.390 . S
C159 H163 0.950 . S
H160 C156 0.950 . S
C161 C159 1.390 . S
C161 C162 1.387 . S
C161 H164 0.950 . S
C162 C161 1.387 . S
C162 C165 1.387 . S
H163 C159 0.950 . S
H164 C161 0.950 . S
C165 C156 1.390 . S
C165 H158 0.950 . S
C165 C162 1.387 . S
C166 C167 1.387 . S
C166 H170 0.950 . S
C166 C175 1.390 . S
C167 C166 1.387 . S
C167 C169 1.387 . S
H168 C175 0.950 . S
C169 C167 1.387 . S
C169 C171 1.390 . S
C169 H173 0.950 . S
H170 C166 0.950 . S
C171 C169 1.390 . S
C171 C172 1.387 . S
C171 H174 0.950 . S
C172 C171 1.387 . S
C172 C175 1.387 . S
H173 C169 0.950 . S
H174 C171 0.950 . S
C175 C166 1.390 . S
C175 H168 0.950 . S
C175 C172 1.387 . S
C176 C177 1.387 . S
C176 H180 0.950 . S
C176 C185 1.390 . S
C177 C176 1.387 . S
C177 C179 1.387 . S
H178 C185 0.950 . S
C179 C177 1.387 . S
C179 C181 1.390 . S
C179 H183 0.950 . S
H180 C176 0.950 . S
C181 C179 1.390 . S
C181 C182 1.387 . S
C181 H184 0.950 . S
C182 C181 1.387 . S
C182 C185 1.387 . S
H183 C179 0.950 . S
H184 C181 0.950 . S
C185 C176 1.390 . S
C185 H178 0.950 . S
C185 C182 1.387 . S
C186 C187 1.387 1_556 S
C186 H190 0.950 . S
C186 C195 1.390 . S
C187 C186 1.387 1_554 S
C187 C189 1.387 . S
H188 C195 0.950 . S
C189 C187 1.387 . S
C189 C191 1.390 . S
C189 H193 0.950 . S
H190 C186 0.950 . S
C191 C189 1.390 . S
C191 C192 1.387 . S
C191 H194 0.950 . S
C192 C191 1.387 . S
C192 C195 1.387 1_554 S
H193 C189 0.950 . S
H194 C191 0.950 . S
C195 C186 1.390 . S
C195 H188 0.950 . S
C195 C192 1.387 1_556 S
C196 C197 1.387 . S
C196 H200 0.950 . S
C196 C205 1.390 1_455 S
C197 C196 1.387 . S
C197 C199 1.387 . S
H198 C205 0.950 . S
C199 C197 1.387 . S
C199 C201 1.390 1_455 S
C199 H203 0.950 . S
H200 C196 0.950 . S
C201 C199 1.390 1_655 S
C201 C202 1.387 . S
C201 H204 0.950 . S
C202 C201 1.387 . S
C202 C205 1.387 . S
H203 C199 0.950 . S
H204 C201 0.950 . S
C205 C196 1.390 1_655 S
C205 H198 0.950 . S
C205 C202 1.387 . S
C206 C207 1.387 . S
C206 H210 0.950 . S
C206 C215 1.390 1_545 S
C207 C206 1.387 . S
C207 C209 1.387 . S
H208 C215 0.950 . S
C209 C207 1.387 . S
C209 C211 1.390 1_545 S
C209 H213 0.950 . S
H210 C206 0.950 . S
C211 C209 1.390 1_565 S
C211 C212 1.387 . S
C211 H214 0.950 . S
C212 C211 1.387 . S
C212 C215 1.387 . S
H213 C209 0.950 . S
H214 C211 0.950 . S
C215 C206 1.390 1_565 S
C215 H208 0.950 . S
C215 C212 1.387 . S
C216 C217 1.387 . S
C216 H220 0.950 . S
C216 C225 1.390 . S
C217 C216 1.387 . S
C217 C219 1.387 . S
H218 C225 0.950 . S
C219 C217 1.387 . S
C219 C221 1.390 . S
C219 H223 0.950 . S
H220 C216 0.950 . S
C221 C219 1.390 . S
C221 C222 1.387 . S
C221 H224 0.950 . S
C222 C221 1.387 . S
C222 C225 1.387 . S
H223 C219 0.950 . S
H224 C221 0.950 . S
C225 C216 1.390 . S
C225 H218 0.950 . S
C225 C222 1.387 . S
C226 C227 1.387 1_554 S
C226 H230 0.950 . S
C226 C235 1.390 1_455 S
C227 C226 1.387 1_556 S
C227 C229 1.387 . S
H228 C235 0.950 . S
C229 C227 1.387 . S
C229 C231 1.390 1_455 S
C229 H233 0.950 . S
H230 C226 0.950 . S
C231 C229 1.390 1_655 S
C231 C232 1.387 . S
C231 H234 0.950 . S
C232 C231 1.387 . S
C232 C235 1.387 1_556 S
H233 C229 0.950 . S
H234 C231 0.950 . S
C235 C226 1.390 1_655 S
C235 H228 0.950 . S
C235 C232 1.387 1_554 S
C236 C237 1.387 . S
C236 H240 0.950 . S
C236 C245 1.390 1_565 S
C237 C236 1.387 . S
C237 C239 1.387 . S
H238 C245 0.950 . S
C239 C237 1.387 . S
C239 C241 1.390 1_565 S
C239 H243 0.950 . S
H240 C236 0.950 . S
C241 C239 1.390 1_545 S
C241 C242 1.387 . S
C241 H244 0.950 . S
C242 C241 1.387 . S
C242 C245 1.387 . S
H243 C239 0.950 . S
H244 C241 0.950 . S
C245 C236 1.390 1_545 S
C245 H238 0.950 . S
C245 C242 1.387 . S
C246 C247 1.387 . S
C246 H250 0.950 . S
C246 C255 1.390 . S
C247 C246 1.387 . S
C247 C249 1.387 . S
H248 C255 0.950 . S
C249 C247 1.387 . S
C249 C251 1.390 . S
C249 H253 0.950 . S
H250 C246 0.950 . S
C251 C249 1.390 . S
C251 C252 1.387 . S
C251 H254 0.950 . S
C252 C251 1.387 . S
C252 C255 1.387 . S
H253 C249 0.950 . S
H254 C251 0.950 . S
C255 C246 1.390 . S
C255 H248 0.950 . S
C255 C252 1.387 . S
C256 C257 1.387 . S
C256 H260 0.950 . S
C256 C265 1.390 1_655 S
C257 C256 1.387 . S
C257 C259 1.387 . S
H258 C265 0.950 . S
C259 C257 1.387 . S
C259 C261 1.390 1_655 S
C259 H263 0.950 . S
H260 C256 0.950 . S
C261 C259 1.390 1_455 S
C261 C262 1.387 . S
C261 H264 0.950 . S
C262 C261 1.387 . S
C262 C265 1.387 . S
H263 C259 0.950 . S
H264 C261 0.950 . S
C265 C256 1.390 1_455 S
C265 H258 0.950 . S
C265 C262 1.387 . S
C266 C267 1.387 . S
C266 H270 0.950 . S
C266 C275 1.390 . S
C267 C266 1.387 . S
C267 C269 1.387 1_565 S
H268 C275 0.950 . S
C269 C267 1.387 1_545 S
C269 C271 1.390 . S
C269 H273 0.950 . S
H270 C266 0.950 . S
C271 C269 1.390 . S
C271 C272 1.387 . S
C271 H274 0.950 . S
C272 C271 1.387 . S
C272 C275 1.387 1_545 S
H273 C269 0.950 . S
H274 C271 0.950 . S
C275 C266 1.390 . S
C275 H268 0.950 . S
C275 C272 1.387 1_565 S
C276 C277 1.387 . S
C276 H280 0.950 . S
C276 C285 1.390 . S
C277 C276 1.387 . S
C277 C279 1.387 . S
H278 C285 0.950 . S
C279 C277 1.387 . S
C279 C281 1.390 . S
C279 H283 0.950 . S
H280 C276 0.950 . S
C281 C279 1.390 . S
C281 C282 1.387 . S
C281 H284 0.950 . S
C282 C281 1.387 . S
C282 C285 1.387 . S
H283 C279 0.950 . S
H284 C281 0.950 . S
C285 C276 1.390 . S
C285 H278 0.950 . S
C285 C282 1.387 . S
C286 C287 1.387 1_655 S
C286 H290 0.950 . S
C286 C295 1.390 . S
C287 C286 1.387 1_455 S
C287 C289 1.387 . S
H288 C295 0.950 . S
C289 C287 1.387 . S
C289 C291 1.390 . S
C289 H293 0.950 . S
H290 C286 0.950 . S
C291 C289 1.390 . S
C291 C292 1.387 1_455 S
C291 H294 0.950 . S
C292 C291 1.387 1_655 S
C292 C295 1.387 . S
H293 C289 0.950 . S
H294 C291 0.950 . S
C295 C286 1.390 . S
C295 H288 0.950 . S
C295 C292 1.387 . S
C296 C297 1.387 . S
C296 H300 0.950 . S
C296 C305 1.390 1_545 S
C297 C296 1.387 . S
C297 C299 1.387 . S
H298 C305 0.950 . S
C299 C297 1.387 . S
C299 C301 1.390 1_545 S
C299 H303 0.950 . S
H300 C296 0.950 . S
C301 C299 1.390 1_565 S
C301 C302 1.387 . S
C301 H304 0.950 . S
C302 C301 1.387 . S
C302 C305 1.387 . S
H303 C299 0.950 . S
H304 C301 0.950 . S
C305 C296 1.390 1_565 S
C305 H298 0.950 . S
C305 C302 1.387 . S
C127 C97 1.043 . S
C132 C15 0.982 . S
C137 C121 1.043 . S
C142 C39 0.979 . S
C147 C13 1.047 . S
C152 C57 0.981 . S
C157 C37 1.043 . S
C162 C81 0.978 . S
C167 C55 1.043 . S
C172 C99 0.979 . S
C177 C79 1.046 . S
C182 C123 0.977 . S
C187 C14 1.222 . S
C192 C80 1.222 . S
C197 C98 1.222 . S
C202 C38 1.222 . S
C207 C122 1.215 . S
C212 C56 1.215 . S
C217 C58 1.482 . S
C222 C118 1.482 . S
C227 C16 1.483 . S
C232 C76 1.483 . S
C237 C100 1.480 . S
C242 C34 1.480 . S
C247 C119 1.294 . S
C252 C18 1.271 . S
C257 C36 1.272 . S
C262 C17 1.293 . S
C267 C60 1.271 . S
C272 C35 1.294 . S
C277 C59 1.296 . S
C282 C78 1.271 . S
C287 C102 1.274 . S
C292 C77 1.295 . S
C297 C120 1.272 . S
C302 C101 1.296 . S
