# Generated by pormake.
# Topology oof, (8)-cn, num edge types: 1
# Building blocks:
#     Node 0, Type 0, BuildingBlock: TAGTUT_clean_sbu_3, # of connection points: 8
#     Node 1, Type 0, BuildingBlock: TAGTUT_clean_sbu_3, # of connection points: 8
#     Node 2, Type 0, BuildingBlock: TAGTUT_clean_sbu_3, # of connection points: 8
#     Node 3, Type 0, BuildingBlock: TAGTUT_clean_sbu_3, # of connection points: 8
#     Edge 4, Type (0, 0), BuildingBlock: CIFDUS_clean_linker_0, # of connection points: 2
#     Edge 5, Type (0, 0), BuildingBlock: CIFDUS_clean_linker_0, # of connection points: 2
#     Edge 6, Type (0, 0), BuildingBlock: CIFDUS_clean_linker_0, # of connection points: 2
#     Edge 7, Type (0, 0), BuildingBlock: CIFDUS_clean_linker_0, # of connection points: 2
#     Edge 8, Type (0, 0), BuildingBlock: CIFDUS_clean_linker_0, # of connection points: 2
#     Edge 9, Type (0, 0), BuildingBlock: CIFDUS_clean_linker_0, # of connection points: 2
#     Edge 10, Type (0, 0), BuildingBlock: CIFDUS_clean_linker_0, # of connection points: 2
#     Edge 11, Type (0, 0), BuildingBlock: CIFDUS_clean_linker_0, # of connection points: 2
#     Edge 12, Type (0, 0), BuildingBlock: CIFDUS_clean_linker_0, # of connection points: 2
#     Edge 13, Type (0, 0), BuildingBlock: CIFDUS_clean_linker_0, # of connection points: 2
#     Edge 14, Type (0, 0), BuildingBlock: CIFDUS_clean_linker_0, # of connection points: 2
#     Edge 15, Type (0, 0), BuildingBlock: CIFDUS_clean_linker_0, # of connection points: 2
#     Edge 16, Type (0, 0), BuildingBlock: CIFDUS_clean_linker_0, # of connection points: 2
#     Edge 17, Type (0, 0), BuildingBlock: CIFDUS_clean_linker_0, # of connection points: 2
#     Edge 18, Type (0, 0), BuildingBlock: CIFDUS_clean_linker_0, # of connection points: 2
#     Edge 19, Type (0, 0), BuildingBlock: CIFDUS_clean_linker_0, # of connection points: 2
# Relax obj value: 0.059
# Max RMSD: 0.152
# Mean RMSD: 0.152
data_MOF--net-oof--node1-TAGTUT_clean_sbu_3--edge1-CIFDUS_clean_linker_0
_symmetry_space_group_name_H-M    P1
_symmetry_Int_Tables_number       1
_symmetry_cell_setting            triclinic
loop_
_symmetry_equiv_pos_as_xyz
'x, y, z'
_cell_length_a     13.80376
_cell_length_b     57.561618
_cell_length_c     13.589973
_cell_angle_alpha  89.612539
_cell_angle_beta   85.118188
_cell_angle_gamma 89.927606
loop_
_atom_site_label
_atom_site_type_symbol
_atom_site_fract_x
_atom_site_fract_y
_atom_site_fract_z
_atom_type_partial_charge
C0 C 0.22318 0.16412 0.20433 0.0
C1 C 0.01355 0.23875 0.27004 0.0
C2 C 0.80768 0.20331 0.09593 0.0
Mg3 Mg 0.15969 0.11128 0.18475 0.0
Mg4 Mg 0.94932 0.09164 0.27946 0.0
O5 O 0.01292 0.11334 0.19567 0.0
Mg6 Mg -0.00226 0.14737 0.22743 0.0
O7 O -0.00811 0.18157 0.24904 0.0
Mg8 Mg 0.04698 0.19284 0.1164 0.0
Mg9 Mg 0.87616 0.19568 0.30183 0.0
C10 C 0.77364 0.12544 0.24695 0.0
O11 O 0.96689 0.14427 0.39593 0.0
O12 O 0.14515 0.07402 0.13104 0.0
O13 O 0.86128 0.17359 0.43445 0.0
O14 O 0.16405 0.0936 0.34247 0.0
O15 O 0.00469 0.06028 0.20568 0.0
O16 O 0.01365 0.09502 0.41398 0.0
O17 O 0.02863 0.1544 0.06312 0.0
O18 O 0.14168 0.12697 0.02932 0.0
C19 C 0.08583 0.14319 0.00103 0.0
C20 C 0.08399 0.05753 0.1503 0.0
O21 O 0.83165 0.14236 0.22086 0.0
O22 O 0.05786 0.22913 0.19337 0.0
O23 O 0.80374 0.10556 0.27528 0.0
O24 O 0.89792 0.20229 0.06718 0.0
O25 O 0.94189 0.22897 0.32028 0.0
O26 O 0.77728 0.19919 0.18592 0.0
O27 O 0.16133 0.1489 0.23802 0.0
O28 O 0.19573 0.18257 0.16196 0.0
C29 C 0.10226 0.08922 0.41642 0.0
C30 C 0.91162 0.15591 0.45896 0.0
C31 C 0.0295 0.87861 0.52961 0.0
C32 C -0.00286 0.96754 0.67125 0.0
C33 C 0.05673 0.9345 0.92968 0.0
Mg34 Mg 0.01789 0.82943 0.65816 0.0
Mg35 Mg 0.84858 0.82694 0.84117 0.0
O36 O 0.96439 0.84139 0.78988 0.0
Mg37 Mg 0.95487 0.87534 0.7586 0.0
O38 O 0.9516 0.90943 0.71874 0.0
Mg39 Mg 0.09577 0.91485 0.69644 0.0
Mg40 Mg 0.88699 0.92976 0.8074 0.0
C41 C 0.87054 0.86864 0.98886 0.0
O42 O 0.79385 0.87525 0.76082 0.0
O43 O 0.03615 0.79386 0.74317 0.0
O44 O 0.74947 0.91112 0.8162 0.0
O45 O 0.87076 0.81777 0.61012 0.0
O46 O 0.91516 0.7941 0.86528 0.0
O47 O 0.74999 0.82304 0.72655 0.0
O48 O 0.11363 0.87789 0.75565 0.0
O49 O 0.16418 0.84307 0.70084 0.0
C50 C 0.18139 0.86361 0.73028 0.0
C51 C -0.01031 0.78448 0.81992 0.0
O52 O 0.92429 0.88046 0.92475 0.0
O53 O 0.06432 0.95268 0.64623 0.0
O54 O 0.82774 0.84963 0.96865 0.0
O55 O 0.1108 0.93094 0.85004 0.0
O56 O 0.92187 0.96217 0.72915 0.0
O57 O 0.96584 0.93037 0.93521 0.0
O58 O -0.01411 0.86673 0.59959 0.0
O59 O 0.07123 0.89804 0.54577 0.0
C60 C 0.78032 0.81755 0.63845 0.0
C61 C 0.72987 0.8902 0.79177 0.0
C62 C 0.61856 0.64148 0.99224 0.0
C63 C 0.61464 0.55586 0.14353 0.0
C64 C 0.63777 0.58777 0.40799 0.0
Mg65 Mg 0.58025 0.69116 0.10697 0.0
Mg66 Mg 0.40965 0.69407 0.29244 0.0
O67 O 0.52572 0.68003 0.24002 0.0
Mg68 Mg 0.53116 0.64582 0.21889 0.0
O69 O 0.54568 0.61176 0.18787 0.0
Mg70 Mg 0.69245 0.60954 0.1756 0.0
Mg71 Mg 0.48255 0.59035 0.27347 0.0
C72 C 0.44505 0.6545 0.45019 0.0
O73 O 0.36508 0.64096 0.21294 0.0
O74 O 0.59101 0.7275 0.18353 0.0
O75 O 0.33699 0.6044 0.2702 0.0
O76 O 0.43114 0.70062 0.05797 0.0
O77 O 0.47461 0.72746 0.3101 0.0
O78 O 0.31065 0.69738 0.17676 0.0
O79 O 0.69502 0.6472 0.22878 0.0
O80 O 0.72909 0.68088 0.15229 0.0
C81 C 0.75666 0.66244 0.19476 0.0
C82 C 0.5463 0.73721 0.2598 0.0
O83 O 0.50049 0.64285 0.38734 0.0
O84 O 0.67622 0.5722 0.12275 0.0
O85 O 0.39462 0.67213 0.42543 0.0
O86 O 0.69842 0.59199 0.33302 0.0
O87 O 0.53615 0.55886 0.1999 0.0
O88 O 0.54905 0.59362 0.40696 0.0
O89 O 0.56164 0.65267 0.05462 0.0
O90 O 0.67404 0.62517 0.02025 0.0
C91 C 0.34093 0.70158 0.08683 0.0
C92 C 0.30698 0.62418 0.24061 0.0
C93 C 0.52513 0.3785 0.52669 0.0
C94 C 0.52244 0.46762 0.66982 0.0
C95 C 0.57184 0.43313 0.92715 0.0
Mg96 Mg 0.49559 0.32976 0.65613 0.0
Mg97 Mg 0.32736 0.32973 0.84223 0.0
O98 O 0.44425 0.34282 0.7866 0.0
Mg99 Mg 0.4472 0.37686 0.75518 0.0
O100 O 0.45852 0.4107 0.71562 0.0
Mg101 Mg 0.60492 0.41318 0.69394 0.0
Mg102 Mg 0.40056 0.43167 0.806 0.0
C103 C 0.36061 0.37148 0.9866 0.0
O104 O 0.28123 0.38105 0.75224 0.0
O105 O 0.50618 0.29424 0.74352 0.0
O106 O 0.25389 0.41727 0.81181 0.0
O107 O 0.34458 0.31997 0.61139 0.0
O108 O 0.38912 0.29645 0.86902 0.0
O109 O 0.22629 0.32578 0.73022 0.0
O110 O 0.6115 0.37591 0.75599 0.0
O111 O 0.64633 0.34078 0.69522 0.0
C112 C 0.67358 0.36025 0.72817 0.0
C113 C 0.46029 0.28577 0.82253 0.0
O114 O 0.41693 0.38237 0.92151 0.0
O115 O 0.58477 0.45172 0.64286 0.0
O116 O 0.3127 0.35311 0.96775 0.0
O117 O 0.62422 0.42903 0.84695 0.0
O118 O 0.44688 0.46336 0.72905 0.0
O119 O 0.48007 0.43017 0.93361 0.0
O120 O 0.47588 0.3676 0.59614 0.0
O121 O 0.57463 0.3968 0.54329 0.0
C122 C 0.25456 0.32008 0.64173 0.0
C123 C 0.22333 0.39762 0.78212 0.0
H124 H 0.93143 0.16251 0.91875 0.0
H125 H 0.20239 0.12657 0.84436 0.0
H126 H 0.16626 0.12487 0.67167 0.0
H127 H 0.05937 0.13406 0.54189 0.0
H128 H 0.789 0.17024 0.61584 0.0
H129 H 0.82229 0.17073 0.78951 0.0
C130 C 0.9834 0.15457 0.86472 0.0
C131 C 0.07015 0.14489 0.8946 0.0
C132 C 0.96134 0.15324 0.7659 0.0
C133 C 0.13554 0.13433 0.82346 0.0
C134 C 0.11457 0.13318 0.72478 0.0
C135 C 0.00647 0.1416 0.59609 0.0
C136 C 0.92138 0.15197 0.56561 0.0
C137 C 0.02743 0.14244 0.69534 0.0
C138 C 0.8548 0.16203 0.63711 0.0
C139 C 0.87427 0.16253 0.73635 0.0
H140 H 0.9679 0.90828 0.39559 0.0
H141 H 0.03218 0.83604 0.44497 0.0
H142 H 0.9754 0.82611 0.28443 0.0
H143 H 0.91367 0.83849 0.12841 0.0
H144 H 0.84625 0.91059 0.08037 0.0
H145 H 0.89113 0.91995 0.24675 0.0
C146 C 0.97112 0.89045 0.37003 0.0
C147 C 0.00729 0.87297 0.42928 0.0
C148 C 0.93522 0.88485 0.27998 0.0
C149 C 0.00713 0.84977 0.3984 0.0
C150 C 0.97378 0.84411 0.30756 0.0
C151 C 0.90758 0.85621 0.15507 0.0
C152 C 0.87752 0.87394 0.09308 0.0
C153 C 0.93805 0.86155 0.24774 0.0
C154 C 0.87032 0.89682 0.12723 0.0
C155 C 0.89706 0.90216 0.22127 0.0
H156 H 0.46459 0.66106 0.91008 0.0
H157 H 0.73504 0.62491 0.83563 0.0
H158 H 0.69901 0.62329 0.66294 0.0
H159 H 0.59237 0.63257 0.53326 0.0
H160 H 0.32256 0.66901 0.60692 0.0
H161 H 0.35575 0.66947 0.78067 0.0
C162 C 0.51646 0.6531 0.85602 0.0
C163 C 0.60301 0.64331 0.88587 0.0
C164 C 0.49448 0.65183 0.75716 0.0
C165 C 0.66833 0.63273 0.81472 0.0
C166 C 0.64742 0.63163 0.71606 0.0
C167 C 0.53956 0.64016 0.5874 0.0
C168 C 0.45467 0.6506 0.55686 0.0
C169 C 0.56044 0.64098 0.68662 0.0
C170 C 0.3882 0.66074 0.62827 0.0
C171 C 0.4076 0.66122 0.72754 0.0
H172 H 0.39759 0.34074 0.12609 0.0
H173 H 0.34955 0.41376 0.07748 0.0
H174 H 0.39856 0.42231 0.2431 0.0
H175 H 0.47248 0.40931 0.39224 0.0
H176 H 0.51709 0.33618 0.4417 0.0
H177 H 0.45738 0.32733 0.28139 0.0
C178 C 0.39661 0.3585 0.15245 0.0
C179 C 0.37059 0.37668 0.09052 0.0
C180 C 0.4294 0.3633 0.24469 0.0
C181 C 0.37021 0.39962 0.1243 0.0
C182 C 0.39928 0.40448 0.21799 0.0
C183 C 0.47084 0.39151 0.36665 0.0
C184 C 0.50224 0.37343 0.42598 0.0
C185 C 0.43311 0.38657 0.2767 0.0
C186 C 0.49583 0.35032 0.39509 0.0
C187 C 0.46074 0.34529 0.30439 0.0
H188 H 0.68033 0.1587 0.14858 0.0
H189 H 0.62844 0.09998 0.34498 0.0
H190 H 0.45335 0.10652 0.34929 0.0
H191 H 0.31464 0.12952 0.29961 0.0
H192 H 0.36928 0.18816 0.10256 0.0
H193 H 0.54261 0.18056 0.09481 0.0
C194 C 0.63084 0.14742 0.19281 0.0
C195 C 0.66756 0.12906 0.24698 0.0
C196 C 0.53037 0.15123 0.19503 0.0
C197 C 0.60216 0.11428 0.3024 0.0
C198 C 0.50195 0.11804 0.30525 0.0
C199 C 0.3646 0.14073 0.25556 0.0
C200 C 0.32867 0.15947 0.20262 0.0
C201 C 0.46519 0.13657 0.25232 0.0
C202 C 0.39453 0.17376 0.14531 0.0
C203 C 0.49407 0.16955 0.14095 0.0
H204 H 0.58155 0.91405 0.72777 0.0
H205 H 0.65704 0.84958 0.86502 0.0
H206 H 0.49239 0.8348 0.85377 0.0
H207 H 0.32807 0.84031 0.80179 0.0
H208 H 0.2563 0.90434 0.65862 0.0
H209 H 0.41848 0.91941 0.67502 0.0
C210 C 0.5609 0.89695 0.75647 0.0
C211 C 0.62947 0.88278 0.79666 0.0
C212 C 0.46753 0.88854 0.7481 0.0
C213 C 0.60411 0.86052 0.83276 0.0
C214 C 0.51059 0.85212 0.82634 0.0
C215 C 0.3488 0.85745 0.77376 0.0
C216 C 0.28096 0.87149 0.73132 0.0
C217 C 0.44216 0.86589 0.78293 0.0
C218 C 0.30704 0.89366 0.69482 0.0
C219 C 0.39979 0.9022 0.70342 0.0
H220 H 0.84814 0.62851 0.29362 0.0
H221 H 0.90256 0.68584 0.08956 0.0
H222 H 0.07597 0.67824 0.08232 0.0
H223 H 0.21375 0.6568 0.13867 0.0
H224 H 0.16184 0.5994 0.34215 0.0
H225 H -0.01323 0.60592 0.34591 0.0
C226 C 0.89807 0.63944 0.24814 0.0
C227 C 0.86213 0.65782 0.19309 0.0
C228 C -0.00137 0.63531 0.24529 0.0
C229 C 0.9279 0.67174 0.13396 0.0
C230 C 0.02746 0.66753 0.12991 0.0
C231 C 0.16425 0.64581 0.18434 0.0
C232 C 0.20094 0.62782 0.24064 0.0
C233 C 0.06379 0.64961 0.18618 0.0
C234 C 0.13556 0.61341 0.29792 0.0
C235 C 0.03537 0.61715 0.30044 0.0
H236 H 0.76391 0.39361 0.82901 0.0
H237 H 0.82001 0.33779 0.62115 0.0
H238 H -0.00621 0.34511 0.61689 0.0
H239 H 0.13082 0.36586 0.67723 0.0
H240 H 0.07725 0.42172 0.88505 0.0
H241 H 0.90205 0.41555 0.8854 0.0
C242 C 0.81428 0.38303 0.78299 0.0
C243 C 0.7789 0.36509 0.72617 0.0
C244 C 0.91485 0.38697 0.7822 0.0
C245 C 0.84514 0.35151 0.6668 0.0
C246 C 0.94477 0.35558 0.66452 0.0
C247 C 0.08098 0.37657 0.72326 0.0
C248 C 0.11721 0.39403 0.78179 0.0
C249 C 0.98054 0.37299 0.72299 0.0
C250 C 0.05133 0.4081 0.83933 0.0
C251 C 0.9511 0.40457 0.83976 0.0
H252 H 0.28647 0.3119 0.44475 0.0
H253 H 0.06623 0.30645 0.68929 0.0
H254 H 0.96358 0.28409 0.58702 0.0
H255 H 0.94799 0.26121 0.43836 0.0
H256 H 0.17459 0.26372 0.19874 0.0
H257 H 0.26229 0.29243 0.28853 0.0
C258 C 0.21536 0.30612 0.47544 0.0
C259 C 0.18465 0.31064 0.57517 0.0
C260 C 0.15825 0.29254 0.41731 0.0
C261 C 0.09192 0.3032 0.61308 0.0
C262 C 0.03336 0.29029 0.5547 0.0
C263 C 0.01569 0.26829 0.40451 0.0
C264 C 0.05528 0.25991 0.31231 0.0
C265 C 0.0675 0.2841 0.45812 0.0
C266 C 0.14259 0.26962 0.26974 0.0
C267 C 0.19316 0.28596 0.32142 0.0
H268 H 0.61911 0.25897 0.76284 0.0
H269 H 0.38797 0.26569 -0.00389 0.0
H270 H 0.46991 0.23853 0.09839 0.0
H271 H 0.61965 0.21801 0.13257 0.0
H272 H 0.84718 0.20946 0.89732 0.0
H273 H 0.75415 0.232 0.78601 0.0
C274 C 0.58548 0.25411 0.83505 0.0
C275 C 0.49871 0.26497 0.87211 0.0
C276 C 0.63319 0.2384 0.89453 0.0
C277 C 0.45566 0.25806 0.96563 0.0
C278 C 0.50265 0.24252 0.02489 0.0
C279 C 0.64774 0.22049 0.05625 0.0
C280 C 0.74104 0.21234 0.02437 0.0
C281 C 0.59349 0.23338 0.99181 0.0
C282 C 0.77609 0.21579 0.92482 0.0
C283 C 0.72296 0.22873 0.86073 0.0
H284 H 0.47504 0.76111 0.42255 0.0
H285 H 0.71246 0.76081 0.19377 0.0
H286 H 0.79981 0.78901 0.28635 0.0
H287 H 0.82005 0.80834 0.44334 0.0
H288 H 0.58718 0.80657 0.6767 0.0
H289 H 0.48637 0.78474 0.57036 0.0
C290 C 0.54512 0.76749 0.39165 0.0
C291 C 0.58786 0.75839 0.30197 0.0
C292 C 0.59647 0.78306 0.44693 0.0
C293 C 0.67802 0.76725 0.26285 0.0
C294 C 0.7284 0.78328 0.31619 0.0
C295 C 0.74672 0.80347 0.4708 0.0
C296 C 0.71217 0.80858 0.56898 0.0
C297 C 0.6902 0.79043 0.41022 0.0
C298 C 0.61619 0.8026 0.60213 0.0
C299 C 0.55863 0.79004 0.54138 0.0
H300 H 0.15217 0.7156 0.12415 0.0
H301 H 0.38087 0.70886 0.88885 0.0
H302 H 0.28737 0.73188 0.77963 0.0
H303 H 0.15112 0.75869 0.75876 0.0
H304 H 0.91882 0.76347 0.99189 0.0
H305 H 0.00182 0.73599 0.09166 0.0
C306 C 0.18046 0.71858 0.0482 0.0
C307 C 0.27419 0.71082 0.01583 0.0
C308 C 0.12597 0.73175 0.98498 0.0
C309 C 0.30944 0.71489 0.91676 0.0
C310 C 0.25606 0.72812 0.85388 0.0
C311 C 0.1176 0.75337 0.83042 0.0
C312 C 0.03004 0.76374 0.86819 0.0
C313 C 0.16582 0.73742 0.8884 0.0
C314 C -0.01293 0.75621 0.96089 0.0
C315 C 0.03464 0.74049 0.01871 0.0
H316 H 0.02128 0.01558 0.22202 0.0
H317 H 0.20175 0.04788 0.98468 0.0
H318 H 0.23136 1.01017 0.90697 0.0
H319 H 0.18484 0.96947 0.89363 0.0
H320 H -0.00281 0.93761 0.12489 0.0
H321 H -0.00449 0.97333 0.2209 0.0
C322 C 0.06747 0.01431 0.15357 0.0
C323 C 0.10712 0.0345 0.10772 0.0
C324 C 0.08418 0.99258 0.10924 0.0
C325 C 0.1692 0.03259 0.02063 0.0
C326 C 0.1865 1.01103 0.97631 0.0
C327 C 0.14694 0.97 0.96689 0.0
C328 C 0.08985 0.95101 0.00208 0.0
C329 C 0.14194 0.99103 0.01842 0.0
C330 C 0.04092 0.95205 0.09671 0.0
C331 C 0.03883 0.97261 0.15062 0.0
H332 H -0.01293 0.07492 0.57685 0.0
H333 H 0.25454 0.05805 0.40422 0.0
H334 H 0.24707 0.0185 0.47115 0.0
H335 H 0.15103 0.98714 0.55845 0.0
H336 H 0.87594 1.00407 0.71786 0.0
H337 H 0.89852 0.04479 0.67321 0.0
C338 C 0.04525 0.0628 0.55543 0.0
C339 C 0.12028 0.06948 0.48393 0.0
C340 C 0.03703 0.0397 0.58877 0.0
C341 C 0.19568 0.05355 0.45883 0.0
C342 C 0.19043 0.03072 0.49569 0.0
C343 C 0.09581 0.9997 0.58326 0.0
C344 C 0.01088 0.99228 0.64007 0.0
C345 C 0.10886 0.0233 0.55676 0.0
C346 C 0.94122 1.00902 0.67276 0.0
C347 C 0.95442 0.03243 0.648 0.0
H348 H 0.55217 0.51421 0.21851 0.0
H349 H 0.72795 0.54565 0.97558 0.0
H350 H 0.75291 0.50775 0.89815 0.0
H351 H 0.70254 0.46728 0.88696 0.0
H352 H 0.51998 0.43621 0.12417 0.0
H353 H 0.52376 0.47202 0.21938 0.0
C354 C 0.5964 0.5127 0.14893 0.0
C355 C 0.63595 0.53271 0.1014 0.0
C356 C 0.61036 0.49088 0.10478 0.0
C357 C 0.69554 0.5305 0.01282 0.0
C358 C 0.71016 0.50883 0.96867 0.0
C359 C 0.66702 0.46799 0.96125 0.0
C360 C 0.60923 0.44929 -0.00164 0.0
C361 C 0.66533 0.48905 0.01245 0.0
C362 C 0.56357 0.45051 0.09435 0.0
C363 C 0.5648 0.4711 0.14787 0.0
H364 H 0.67607 0.48547 0.54991 0.0
H365 H 0.41274 0.50558 0.72356 0.0
H366 H 0.44122 0.54594 0.67752 0.0
H367 H 0.52958 0.57502 0.5751 0.0
H368 H 0.78471 0.55526 0.38889 0.0
H369 H 0.7739 0.51586 0.45723 0.0
C370 C 0.62486 0.49867 0.57762 0.0
C371 C 0.54122 0.4922 0.63869 0.0
C372 C 0.64116 0.52213 0.55017 0.0
C373 C 0.47681 0.50975 0.67507 0.0
C374 C 0.49338 0.53298 0.6495 0.0
C375 C 0.58456 0.56229 0.55116 0.0
C376 C 0.65673 0.56812 0.47547 0.0
C377 C 0.57412 0.53932 0.58567 0.0
C378 C 0.72813 0.55142 0.44687 0.0
C379 C 0.72084 0.52867 0.48457 0.0
loop_
_geom_bond_atom_site_label_1
_geom_bond_atom_site_label_2
_geom_bond_distance
_geom_bond_site_symmetry_2
_ccdc_geom_bond_type
C0 O27 1.312 . S
C0 O28 1.208 . S
C1 O22 1.331 . S
C1 O25 1.244 . S
C2 O24 1.264 . S
C2 O26 1.273 . S
Mg3 O5 1.936 1_455 S
Mg3 O12 2.081 . S
Mg3 O14 2.023 . S
Mg3 O18 2.031 . S
Mg3 O27 2.291 . S
Mg4 O5 1.963 . S
Mg4 O15 1.942 . S
Mg4 O16 1.955 . S
Mg4 O23 1.986 . S
O5 Mg3 1.936 1_655 S
O5 Mg4 1.963 . S
O5 Mg6 1.915 . S
Mg6 O5 1.915 . S
Mg6 O7 1.915 1_655 S
Mg6 O11 2.013 . S
Mg6 O17 2.114 1_655 S
Mg6 O21 2.013 . S
Mg6 O27 2.114 1_655 S
O7 Mg6 1.915 1_455 S
O7 Mg8 1.936 . S
O7 Mg9 1.963 1_455 S
Mg8 O7 1.936 . S
Mg8 O17 2.291 . S
Mg8 O22 2.081 . S
Mg8 O24 2.023 1_455 S
Mg8 O28 2.031 . S
Mg9 O7 1.963 1_655 S
Mg9 O13 1.986 . S
Mg9 O25 1.942 1_655 S
Mg9 O26 1.955 . S
C10 O21 1.191 . S
C10 O23 1.307 . S
O11 Mg6 2.013 . S
O11 C30 1.191 . S
O12 Mg3 2.081 . S
O12 C20 1.331 1_455 S
O13 Mg9 1.986 . S
O13 C30 1.307 . S
O14 Mg3 2.023 . S
O14 C29 1.264 . S
O15 Mg4 1.942 . S
O15 C20 1.244 . S
O16 Mg4 1.955 . S
O16 C29 1.273 1_655 S
O17 Mg6 2.114 1_455 S
O17 Mg8 2.291 . S
O17 C19 1.312 . S
O18 Mg3 2.031 . S
O18 C19 1.208 . S
C19 O17 1.312 . S
C19 O18 1.208 . S
C20 O12 1.331 1_655 S
C20 O15 1.244 . S
O21 Mg6 2.013 . S
O21 C10 1.191 . S
O22 C1 1.331 . S
O22 Mg8 2.081 . S
O23 Mg4 1.986 . S
O23 C10 1.307 . S
O24 C2 1.264 . S
O24 Mg8 2.023 1_655 S
O25 C1 1.244 . S
O25 Mg9 1.942 1_455 S
O26 C2 1.273 . S
O26 Mg9 1.955 . S
O27 C0 1.312 . S
O27 Mg3 2.291 . S
O27 Mg6 2.114 1_455 S
O28 C0 1.208 . S
O28 Mg8 2.031 . S
C29 O14 1.264 . S
C29 O16 1.273 1_455 S
C30 O11 1.191 . S
C30 O13 1.307 . S
C31 O58 1.312 . S
C31 O59 1.208 . S
C32 O53 1.331 1_655 S
C32 O56 1.244 . S
C33 O55 1.264 . S
C33 O57 1.273 1_455 S
Mg34 O36 1.936 . S
Mg34 O43 2.081 . S
Mg34 O45 2.023 1_455 S
Mg34 O49 2.031 . S
Mg34 O58 2.291 . S
Mg35 O36 1.963 1_655 S
Mg35 O46 1.942 1_655 S
Mg35 O47 1.955 . S
Mg35 O54 1.986 . S
O36 Mg34 1.936 . S
O36 Mg35 1.963 1_455 S
O36 Mg37 1.915 1_455 S
Mg37 O36 1.915 1_655 S
Mg37 O38 1.915 . S
Mg37 O42 2.013 . S
Mg37 O48 2.114 1_655 S
Mg37 O52 2.013 . S
Mg37 O58 2.114 1_655 S
O38 Mg37 1.915 . S
O38 Mg39 1.936 1_655 S
O38 Mg40 1.963 . S
Mg39 O38 1.936 1_455 S
Mg39 O48 2.291 . S
Mg39 O53 2.081 . S
Mg39 O55 2.023 . S
Mg39 O59 2.031 . S
Mg40 O38 1.963 . S
Mg40 O44 1.986 . S
Mg40 O56 1.942 . S
Mg40 O57 1.955 . S
C41 O52 1.191 . S
C41 O54 1.307 . S
O42 Mg37 2.013 . S
O42 C61 1.191 . S
O43 Mg34 2.081 . S
O43 C51 1.331 . S
O44 Mg40 1.986 . S
O44 C61 1.307 . S
O45 Mg34 2.023 1_655 S
O45 C60 1.264 . S
O46 Mg35 1.942 1_455 S
O46 C51 1.244 . S
O47 Mg35 1.955 . S
O47 C60 1.273 . S
O48 Mg37 2.114 1_455 S
O48 Mg39 2.291 . S
O48 C50 1.312 . S
O49 Mg34 2.031 . S
O49 C50 1.208 . S
C50 O48 1.312 . S
C50 O49 1.208 . S
C51 O43 1.331 . S
C51 O46 1.244 . S
O52 Mg37 2.013 . S
O52 C41 1.191 . S
O53 C32 1.331 1_455 S
O53 Mg39 2.081 . S
O54 Mg35 1.986 . S
O54 C41 1.307 . S
O55 C33 1.264 . S
O55 Mg39 2.023 . S
O56 C32 1.244 . S
O56 Mg40 1.942 . S
O57 C33 1.273 1_655 S
O57 Mg40 1.955 . S
O58 C31 1.312 . S
O58 Mg34 2.291 . S
O58 Mg37 2.114 1_455 S
O59 C31 1.208 . S
O59 Mg39 2.031 . S
C60 O45 1.264 . S
C60 O47 1.273 . S
C61 O42 1.191 . S
C61 O44 1.307 . S
C62 O89 1.312 . S
C62 O90 1.208 . S
C63 O84 1.331 . S
C63 O87 1.244 . S
C64 O86 1.264 . S
C64 O88 1.273 . S
Mg65 O67 1.936 . S
Mg65 O74 2.081 . S
Mg65 O76 2.023 . S
Mg65 O80 2.031 . S
Mg65 O89 2.291 . S
Mg66 O67 1.963 . S
Mg66 O77 1.942 . S
Mg66 O78 1.955 . S
Mg66 O85 1.986 . S
O67 Mg65 1.936 . S
O67 Mg66 1.963 . S
O67 Mg68 1.915 . S
Mg68 O67 1.915 . S
Mg68 O69 1.915 . S
Mg68 O73 2.013 . S
Mg68 O79 2.114 . S
Mg68 O83 2.013 . S
Mg68 O89 2.114 . S
O69 Mg68 1.915 . S
O69 Mg70 1.936 . S
O69 Mg71 1.963 . S
Mg70 O69 1.936 . S
Mg70 O79 2.291 . S
Mg70 O84 2.081 . S
Mg70 O86 2.023 . S
Mg70 O90 2.031 . S
Mg71 O69 1.963 . S
Mg71 O75 1.986 . S
Mg71 O87 1.942 . S
Mg71 O88 1.955 . S
C72 O83 1.191 . S
C72 O85 1.307 . S
O73 Mg68 2.013 . S
O73 C92 1.191 . S
O74 Mg65 2.081 . S
O74 C82 1.331 . S
O75 Mg71 1.986 . S
O75 C92 1.307 . S
O76 Mg65 2.023 . S
O76 C91 1.264 . S
O77 Mg66 1.942 . S
O77 C82 1.244 . S
O78 Mg66 1.955 . S
O78 C91 1.273 . S
O79 Mg68 2.114 . S
O79 Mg70 2.291 . S
O79 C81 1.312 . S
O80 Mg65 2.031 . S
O80 C81 1.208 . S
C81 O79 1.312 . S
C81 O80 1.208 . S
C82 O74 1.331 . S
C82 O77 1.244 . S
O83 Mg68 2.013 . S
O83 C72 1.191 . S
O84 C63 1.331 . S
O84 Mg70 2.081 . S
O85 Mg66 1.986 . S
O85 C72 1.307 . S
O86 C64 1.264 . S
O86 Mg70 2.023 . S
O87 C63 1.244 . S
O87 Mg71 1.942 . S
O88 C64 1.273 . S
O88 Mg71 1.955 . S
O89 C62 1.312 . S
O89 Mg65 2.291 . S
O89 Mg68 2.114 . S
O90 C62 1.208 . S
O90 Mg70 2.031 . S
C91 O76 1.264 . S
C91 O78 1.273 . S
C92 O73 1.191 . S
C92 O75 1.307 . S
C93 O120 1.312 . S
C93 O121 1.208 . S
C94 O115 1.331 . S
C94 O118 1.244 . S
C95 O117 1.264 . S
C95 O119 1.273 . S
Mg96 O98 1.936 . S
Mg96 O105 2.081 . S
Mg96 O107 2.023 . S
Mg96 O111 2.031 . S
Mg96 O120 2.291 . S
Mg97 O98 1.963 . S
Mg97 O108 1.942 . S
Mg97 O109 1.955 . S
Mg97 O116 1.986 . S
O98 Mg96 1.936 . S
O98 Mg97 1.963 . S
O98 Mg99 1.915 . S
Mg99 O98 1.915 . S
Mg99 O100 1.915 . S
Mg99 O104 2.013 . S
Mg99 O110 2.114 . S
Mg99 O114 2.013 . S
Mg99 O120 2.114 . S
O100 Mg99 1.915 . S
O100 Mg101 1.936 . S
O100 Mg102 1.963 . S
Mg101 O100 1.936 . S
Mg101 O110 2.291 . S
Mg101 O115 2.081 . S
Mg101 O117 2.023 . S
Mg101 O121 2.031 . S
Mg102 O100 1.963 . S
Mg102 O106 1.986 . S
Mg102 O118 1.942 . S
Mg102 O119 1.955 . S
C103 O114 1.191 . S
C103 O116 1.307 . S
O104 Mg99 2.013 . S
O104 C123 1.191 . S
O105 Mg96 2.081 . S
O105 C113 1.331 . S
O106 Mg102 1.986 . S
O106 C123 1.307 . S
O107 Mg96 2.023 . S
O107 C122 1.264 . S
O108 Mg97 1.942 . S
O108 C113 1.244 . S
O109 Mg97 1.955 . S
O109 C122 1.273 . S
O110 Mg99 2.114 . S
O110 Mg101 2.291 . S
O110 C112 1.312 . S
O111 Mg96 2.031 . S
O111 C112 1.208 . S
C112 O110 1.312 . S
C112 O111 1.208 . S
C113 O105 1.331 . S
C113 O108 1.244 . S
O114 Mg99 2.013 . S
O114 C103 1.191 . S
O115 C94 1.331 . S
O115 Mg101 2.081 . S
O116 Mg97 1.986 . S
O116 C103 1.307 . S
O117 C95 1.264 . S
O117 Mg101 2.023 . S
O118 C94 1.244 . S
O118 Mg102 1.942 . S
O119 C95 1.273 . S
O119 Mg102 1.955 . S
O120 C93 1.312 . S
O120 Mg96 2.291 . S
O120 Mg99 2.114 . S
O121 C93 1.208 . S
O121 Mg101 2.031 . S
C122 O107 1.264 . S
C122 O109 1.273 . S
C123 O104 1.191 . S
C123 O106 1.307 . S
H124 C130 0.930 . S
H125 C133 0.930 1_655 S
H126 C134 0.930 . S
H127 C135 0.930 . S
H128 C138 0.930 . S
H129 C139 0.930 . S
C130 H124 0.930 . S
C130 C131 1.355 . S
C130 C132 1.415 . S
C131 C130 1.355 . S
C131 C133 1.420 . S
C132 C130 1.415 . S
C132 C137 1.425 1_455 S
C132 C139 1.409 . S
C133 H125 0.930 1_455 S
C133 C131 1.420 . S
C133 C134 1.362 1_455 S
C134 H126 0.930 . S
C134 C133 1.362 1_655 S
C134 C137 1.409 . S
C135 H127 0.930 . S
C135 C136 1.355 . S
C135 C137 1.415 . S
C136 C135 1.355 . S
C136 C138 1.419 . S
C137 C132 1.425 1_655 S
C137 C134 1.409 . S
C137 C135 1.415 . S
C138 H128 0.930 . S
C138 C136 1.419 . S
C138 C139 1.362 1_655 S
C139 H129 0.930 . S
C139 C132 1.409 . S
C139 C138 1.362 1_455 S
H140 C146 0.930 . S
H141 C149 0.930 . S
H142 C150 0.930 . S
H143 C151 0.930 . S
H144 C154 0.930 . S
H145 C155 0.930 . S
C146 H140 0.930 . S
C146 C147 1.355 . S
C146 C148 1.415 . S
C147 C146 1.355 . S
C147 C149 1.419 1_455 S
C148 C146 1.415 . S
C148 C153 1.425 1_455 S
C148 C155 1.409 . S
C149 H141 0.930 . S
C149 C147 1.419 1_655 S
C149 C150 1.362 . S
C150 H142 0.930 . S
C150 C149 1.362 . S
C150 C153 1.409 . S
C151 H143 0.930 . S
C151 C152 1.355 . S
C151 C153 1.415 . S
C152 C151 1.355 . S
C152 C154 1.419 1_655 S
C153 C148 1.425 1_655 S
C153 C150 1.409 . S
C153 C151 1.415 . S
C154 H144 0.930 . S
C154 C152 1.419 1_455 S
C154 C155 1.362 . S
C155 H145 0.930 . S
C155 C148 1.409 . S
C155 C154 1.362 . S
H156 C162 0.930 . S
H157 C165 0.930 . S
H158 C166 0.930 . S
H159 C167 0.930 . S
H160 C170 0.930 . S
H161 C171 0.930 . S
C162 H156 0.930 . S
C162 C163 1.355 . S
C162 C164 1.415 . S
C163 C162 1.355 . S
C163 C165 1.419 . S
C164 C162 1.415 . S
C164 C169 1.425 . S
C164 C171 1.409 . S
C165 H157 0.930 . S
C165 C163 1.419 . S
C165 C166 1.362 . S
C166 H158 0.930 . S
C166 C165 1.362 . S
C166 C169 1.409 . S
C167 H159 0.930 . S
C167 C168 1.355 . S
C167 C169 1.415 . S
C168 C167 1.355 . S
C168 C170 1.419 . S
C169 C164 1.425 . S
C169 C166 1.409 . S
C169 C167 1.415 . S
C170 H160 0.930 . S
C170 C168 1.419 . S
C170 C171 1.362 . S
C171 H161 0.930 . S
C171 C164 1.409 . S
C171 C170 1.362 . S
H172 C178 0.930 . S
H173 C181 0.930 . S
H174 C182 0.930 . S
H175 C183 0.930 . S
H176 C186 0.930 . S
H177 C187 0.930 . S
C178 H172 0.930 . S
C178 C179 1.355 . S
C178 C180 1.415 . S
C179 C178 1.355 . S
C179 C181 1.419 . S
C180 C178 1.415 . S
C180 C185 1.425 . S
C180 C187 1.409 . S
C181 H173 0.930 . S
C181 C179 1.419 . S
C181 C182 1.362 . S
C182 H174 0.930 . S
C182 C181 1.362 . S
C182 C185 1.409 . S
C183 H175 0.930 . S
C183 C184 1.355 . S
C183 C185 1.415 . S
C184 C183 1.355 . S
C184 C186 1.419 . S
C185 C180 1.425 . S
C185 C182 1.409 . S
C185 C183 1.415 . S
C186 H176 0.930 . S
C186 C184 1.419 . S
C186 C187 1.362 . S
C187 H177 0.930 . S
C187 C180 1.409 . S
C187 C186 1.362 . S
H188 C194 0.930 . S
H189 C197 0.930 . S
H190 C198 0.930 . S
H191 C199 0.930 . S
H192 C202 0.930 . S
H193 C203 0.930 . S
C194 H188 0.930 . S
C194 C195 1.355 . S
C194 C196 1.415 . S
C195 C194 1.355 . S
C195 C197 1.419 . S
C196 C194 1.415 . S
C196 C201 1.425 . S
C196 C203 1.409 . S
C197 H189 0.930 . S
C197 C195 1.419 . S
C197 C198 1.362 . S
C198 H190 0.930 . S
C198 C197 1.362 . S
C198 C201 1.409 . S
C199 H191 0.930 . S
C199 C200 1.355 . S
C199 C201 1.415 . S
C200 C199 1.355 . S
C200 C202 1.419 . S
C201 C196 1.425 . S
C201 C198 1.409 . S
C201 C199 1.415 . S
C202 H192 0.930 . S
C202 C200 1.419 . S
C202 C203 1.362 . S
C203 H193 0.930 . S
C203 C196 1.409 . S
C203 C202 1.362 . S
H204 C210 0.930 . S
H205 C213 0.930 . S
H206 C214 0.930 . S
H207 C215 0.930 . S
H208 C218 0.930 . S
H209 C219 0.930 . S
C210 H204 0.930 . S
C210 C211 1.355 . S
C210 C212 1.415 . S
C211 C210 1.355 . S
C211 C213 1.419 . S
C212 C210 1.415 . S
C212 C217 1.425 . S
C212 C219 1.409 . S
C213 H205 0.930 . S
C213 C211 1.419 . S
C213 C214 1.362 . S
C214 H206 0.930 . S
C214 C213 1.362 . S
C214 C217 1.409 . S
C215 H207 0.930 . S
C215 C216 1.355 . S
C215 C217 1.415 . S
C216 C215 1.355 . S
C216 C218 1.419 . S
C217 C212 1.425 . S
C217 C214 1.409 . S
C217 C215 1.415 . S
C218 H208 0.930 . S
C218 C216 1.419 . S
C218 C219 1.362 . S
C219 H209 0.930 . S
C219 C212 1.409 . S
C219 C218 1.362 . S
H220 C226 0.930 . S
H221 C229 0.930 . S
H222 C230 0.930 . S
H223 C231 0.930 . S
H224 C234 0.930 . S
H225 C235 0.930 . S
C226 H220 0.930 . S
C226 C227 1.355 . S
C226 C228 1.415 . S
C227 C226 1.355 . S
C227 C229 1.419 . S
C228 C226 1.415 . S
C228 C233 1.425 1_655 S
C228 C235 1.409 1_655 S
C229 H221 0.930 . S
C229 C227 1.419 . S
C229 C230 1.362 . S
C230 H222 0.930 . S
C230 C229 1.362 . S
C230 C233 1.409 1_655 S
C231 H223 0.930 . S
C231 C232 1.355 . S
C231 C233 1.415 . S
C232 C231 1.355 . S
C232 C234 1.419 . S
C233 C228 1.425 1_455 S
C233 C230 1.409 1_455 S
C233 C231 1.415 . S
C234 H224 0.930 . S
C234 C232 1.419 . S
C234 C235 1.362 . S
C235 H225 0.930 . S
C235 C228 1.409 1_455 S
C235 C234 1.362 . S
H236 C242 0.930 . S
H237 C245 0.930 . S
H238 C246 0.930 . S
H239 C247 0.930 . S
H240 C250 0.930 . S
H241 C251 0.930 . S
C242 H236 0.930 . S
C242 C243 1.355 . S
C242 C244 1.415 . S
C243 C242 1.355 . S
C243 C245 1.419 . S
C244 C242 1.415 . S
C244 C249 1.425 1_655 S
C244 C251 1.409 1_655 S
C245 H237 0.930 . S
C245 C243 1.419 . S
C245 C246 1.362 . S
C246 H238 0.930 . S
C246 C245 1.362 . S
C246 C249 1.409 1_655 S
C247 H239 0.930 . S
C247 C248 1.355 . S
C247 C249 1.415 . S
C248 C247 1.355 . S
C248 C250 1.419 . S
C249 C244 1.425 1_455 S
C249 C246 1.409 1_455 S
C249 C247 1.415 . S
C250 H240 0.930 . S
C250 C248 1.419 . S
C250 C251 1.362 . S
C251 H241 0.930 . S
C251 C244 1.409 1_455 S
C251 C250 1.362 . S
H252 C258 0.930 . S
H253 C261 0.930 . S
H254 C262 0.930 . S
H255 C263 0.930 . S
H256 C266 0.930 . S
H257 C267 0.930 . S
C258 H252 0.930 . S
C258 C259 1.355 . S
C258 C260 1.415 . S
C259 C258 1.355 . S
C259 C261 1.419 . S
C260 C258 1.415 . S
C260 C265 1.425 . S
C260 C267 1.409 . S
C261 H253 0.930 . S
C261 C259 1.419 . S
C261 C262 1.362 . S
C262 H254 0.930 . S
C262 C261 1.362 . S
C262 C265 1.409 . S
C263 H255 0.930 . S
C263 C264 1.355 . S
C263 C265 1.415 . S
C264 C263 1.355 . S
C264 C266 1.419 . S
C265 C260 1.425 . S
C265 C262 1.409 . S
C265 C263 1.415 . S
C266 H256 0.930 . S
C266 C264 1.419 . S
C266 C267 1.362 . S
C267 H257 0.930 . S
C267 C260 1.409 . S
C267 C266 1.362 . S
H268 C274 0.930 . S
H269 C277 0.930 . S
H270 C278 0.930 . S
H271 C279 0.930 . S
H272 C282 0.930 . S
H273 C283 0.930 . S
C274 H268 0.930 . S
C274 C275 1.355 . S
C274 C276 1.415 . S
C275 C274 1.355 . S
C275 C277 1.419 . S
C276 C274 1.415 . S
C276 C281 1.425 1_556 S
C276 C283 1.409 . S
C277 H269 0.930 . S
C277 C275 1.419 . S
C277 C278 1.362 1_556 S
C278 H270 0.930 . S
C278 C277 1.362 1_554 S
C278 C281 1.409 . S
C279 H271 0.930 . S
C279 C280 1.355 . S
C279 C281 1.415 . S
C280 C279 1.355 . S
C280 C282 1.419 . S
C281 C276 1.425 1_554 S
C281 C278 1.409 . S
C281 C279 1.415 . S
C282 H272 0.930 . S
C282 C280 1.419 . S
C282 C283 1.362 1_554 S
C283 H273 0.930 . S
C283 C276 1.409 . S
C283 C282 1.362 1_556 S
H284 C290 0.930 . S
H285 C293 0.930 . S
H286 C294 0.930 . S
H287 C295 0.930 . S
H288 C298 0.930 . S
H289 C299 0.930 . S
C290 H284 0.930 . S
C290 C291 1.355 . S
C290 C292 1.415 . S
C291 C290 1.355 . S
C291 C293 1.419 . S
C292 C290 1.415 . S
C292 C297 1.425 . S
C292 C299 1.409 . S
C293 H285 0.930 . S
C293 C291 1.419 . S
C293 C294 1.362 . S
C294 H286 0.930 . S
C294 C293 1.362 . S
C294 C297 1.409 . S
C295 H287 0.930 . S
C295 C296 1.355 . S
C295 C297 1.415 . S
C296 C295 1.355 . S
C296 C298 1.419 . S
C297 C292 1.425 . S
C297 C294 1.409 . S
C297 C295 1.415 . S
C298 H288 0.930 . S
C298 C296 1.419 . S
C298 C299 1.362 . S
C299 H289 0.930 . S
C299 C292 1.409 . S
C299 C298 1.362 . S
H300 C306 0.930 . S
H301 C309 0.930 . S
H302 C310 0.930 1_556 S
H303 C311 0.930 . S
H304 C314 0.930 . S
H305 C315 0.930 . S
C306 H300 0.930 . S
C306 C307 1.355 . S
C306 C308 1.415 . S
C307 C306 1.355 . S
C307 C309 1.419 . S
C308 C306 1.415 . S
C308 C313 1.425 1_554 S
C308 C315 1.409 . S
C309 H301 0.930 . S
C309 C307 1.419 . S
C309 C310 1.362 . S
C310 H302 0.930 1_554 S
C310 C309 1.362 . S
C310 C313 1.409 1_554 S
C311 H303 0.930 . S
C311 C312 1.355 . S
C311 C313 1.415 . S
C312 C311 1.355 . S
C312 C314 1.419 . S
C313 C308 1.425 1_556 S
C313 C310 1.409 1_556 S
C313 C311 1.415 . S
C314 H304 0.930 . S
C314 C312 1.419 . S
C314 C315 1.362 1_556 S
C315 H305 0.930 . S
C315 C308 1.409 . S
C315 C314 1.362 1_554 S
H316 C322 0.930 . S
H317 C325 0.930 . S
H318 C326 0.930 . S
H319 C327 0.930 . S
H320 C330 0.930 . S
H321 C331 0.930 1_554 S
C322 H316 0.930 . S
C322 C323 1.355 . S
C322 C324 1.415 1_545 S
C323 C322 1.355 . S
C323 C325 1.419 1_655 S
C324 C322 1.415 1_565 S
C324 C329 1.425 1_654 S
C324 C331 1.409 1_554 S
C325 H317 0.930 . S
C325 C323 1.419 1_455 S
C325 C326 1.362 1_554 S
C326 H318 0.930 . S
C326 C325 1.362 1_556 S
C326 C329 1.409 1_545 S
C327 H319 0.930 . S
C327 C328 1.355 . S
C327 C329 1.415 . S
C328 C327 1.355 . S
C328 C330 1.419 1_455 S
C329 C324 1.425 1_456 S
C329 C326 1.409 1_565 S
C329 C327 1.415 . S
C330 H320 0.930 . S
C330 C328 1.419 1_655 S
C330 C331 1.362 . S
C331 H321 0.930 1_556 S
C331 C324 1.409 1_556 S
C331 C330 1.362 . S
H332 C338 0.930 . S
H333 C341 0.930 . S
H334 C342 0.930 1_665 S
H335 C343 0.930 . S
H336 C346 0.930 . S
H337 C347 0.930 1_455 S
C338 H332 0.930 . S
C338 C339 1.355 . S
C338 C340 1.415 . S
C339 C338 1.355 . S
C339 C341 1.419 . S
C340 C338 1.415 . S
C340 C345 1.425 1_445 S
C340 C347 1.409 1_455 S
C341 H333 0.930 . S
C341 C339 1.419 . S
C341 C342 1.362 . S
C342 H334 0.930 1_445 S
C342 C341 1.362 . S
C342 C345 1.409 1_445 S
C343 H335 0.930 . S
C343 C344 1.355 . S
C343 C345 1.415 . S
C344 C343 1.355 . S
C344 C346 1.419 . S
C345 C340 1.425 1_665 S
C345 C342 1.409 1_665 S
C345 C343 1.415 . S
C346 H336 0.930 . S
C346 C344 1.419 . S
C346 C347 1.362 1_565 S
C347 H337 0.930 1_655 S
C347 C340 1.409 1_655 S
C347 C346 1.362 1_545 S
H348 C354 0.930 . S
H349 C357 0.930 . S
H350 C358 0.930 . S
H351 C359 0.930 . S
H352 C362 0.930 . S
H353 C363 0.930 . S
C354 H348 0.930 . S
C354 C355 1.355 . S
C354 C356 1.415 . S
C355 C354 1.355 . S
C355 C357 1.419 1_554 S
C356 C354 1.415 . S
C356 C361 1.425 1_554 S
C356 C363 1.409 . S
C357 H349 0.930 . S
C357 C355 1.419 1_556 S
C357 C358 1.362 . S
C358 H350 0.930 . S
C358 C357 1.362 . S
C358 C361 1.409 . S
C359 H351 0.930 . S
C359 C360 1.355 . S
C359 C361 1.415 . S
C360 C359 1.355 . S
C360 C362 1.419 1_556 S
C361 C356 1.425 1_556 S
C361 C358 1.409 . S
C361 C359 1.415 . S
C362 H352 0.930 . S
C362 C360 1.419 1_554 S
C362 C363 1.362 . S
C363 H353 0.930 . S
C363 C356 1.409 . S
C363 C362 1.362 . S
H364 C370 0.930 . S
H365 C373 0.930 . S
H366 C374 0.930 . S
H367 C375 0.930 . S
H368 C378 0.930 . S
H369 C379 0.930 . S
C370 H364 0.930 . S
C370 C371 1.355 . S
C370 C372 1.415 . S
C371 C370 1.355 . S
C371 C373 1.419 . S
C372 C370 1.415 . S
C372 C377 1.425 . S
C372 C379 1.409 . S
C373 H365 0.930 . S
C373 C371 1.419 . S
C373 C374 1.362 . S
C374 H366 0.930 . S
C374 C373 1.362 . S
C374 C377 1.409 . S
C375 H367 0.930 . S
C375 C376 1.355 . S
C375 C377 1.415 . S
C376 C375 1.355 . S
C376 C378 1.419 . S
C377 C372 1.425 . S
C377 C374 1.409 . S
C377 C375 1.415 . S
C378 H368 0.930 . S
C378 C376 1.419 . S
C378 C379 1.362 . S
C379 H369 0.930 . S
C379 C372 1.409 . S
C379 C378 1.362 . S
C131 C19 1.359 1_556 S
C136 C30 1.359 . S
C147 C31 1.399 . S
C152 C41 1.395 1_554 S
C163 C62 1.359 1_556 S
C168 C72 1.375 . S
C179 C103 1.384 1_554 S
C184 C93 1.390 . S
C195 C10 1.309 . S
C200 C0 1.284 . S
C211 C61 1.295 . S
C216 C50 1.266 . S
C227 C81 1.247 . S
C232 C92 1.274 . S
C243 C112 1.261 . S
C248 C123 1.290 . S
C259 C122 1.762 . S
C264 C1 1.762 . S
C275 C113 1.726 . S
C280 C2 1.731 . S
C291 C82 1.725 . S
C296 C60 1.727 . S
C307 C91 1.735 . S
C312 C51 1.729 . S
C323 C20 1.442 . S
C328 C33 1.414 . S
C339 C29 1.447 . S
C344 C32 1.468 . S
C355 C63 1.470 . S
C360 C95 1.441 . S
C371 C94 1.434 . S
C376 C64 1.408 . S
