# Generated by pormake.
# Topology kfi, (4)-cn, num edge types: 1
# Building blocks:
#     Node 0, Type 0, BuildingBlock: QUQFOY_clean_sbu_1, # of connection points: 4
#     Node 1, Type 0, BuildingBlock: QUQFOY_clean_sbu_1, # of connection points: 4
#     Node 2, Type 0, BuildingBlock: QUQFOY_clean_sbu_1, # of connection points: 4
#     Node 3, Type 0, BuildingBlock: QUQFOY_clean_sbu_1, # of connection points: 4
#     Node 4, Type 0, BuildingBlock: QUQFOY_clean_sbu_1, # of connection points: 4
#     Node 5, Type 0, BuildingBlock: QUQFOY_clean_sbu_1, # of connection points: 4
#     Node 6, Type 0, BuildingBlock: QUQFOY_clean_sbu_1, # of connection points: 4
#     Node 7, Type 0, BuildingBlock: QUQFOY_clean_sbu_1, # of connection points: 4
#     Node 8, Type 0, BuildingBlock: QUQFOY_clean_sbu_1, # of connection points: 4
#     Node 9, Type 0, BuildingBlock: QUQFOY_clean_sbu_1, # of connection points: 4
#     Node 10, Type 0, BuildingBlock: QUQFOY_clean_sbu_1, # of connection points: 4
#     Node 11, Type 0, BuildingBlock: QUQFOY_clean_sbu_1, # of connection points: 4
#     Node 12, Type 0, BuildingBlock: QUQFOY_clean_sbu_1, # of connection points: 4
#     Node 13, Type 0, BuildingBlock: QUQFOY_clean_sbu_1, # of connection points: 4
#     Node 14, Type 0, BuildingBlock: QUQFOY_clean_sbu_1, # of connection points: 4
#     Node 15, Type 0, BuildingBlock: QUQFOY_clean_sbu_1, # of connection points: 4
#     Node 16, Type 0, BuildingBlock: QUQFOY_clean_sbu_1, # of connection points: 4
#     Node 17, Type 0, BuildingBlock: QUQFOY_clean_sbu_1, # of connection points: 4
#     Node 18, Type 0, BuildingBlock: QUQFOY_clean_sbu_1, # of connection points: 4
#     Node 19, Type 0, BuildingBlock: QUQFOY_clean_sbu_1, # of connection points: 4
#     Node 20, Type 0, BuildingBlock: QUQFOY_clean_sbu_1, # of connection points: 4
#     Node 21, Type 0, BuildingBlock: QUQFOY_clean_sbu_1, # of connection points: 4
#     Node 22, Type 0, BuildingBlock: QUQFOY_clean_sbu_1, # of connection points: 4
#     Node 23, Type 0, BuildingBlock: QUQFOY_clean_sbu_1, # of connection points: 4
#     Node 24, Type 0, BuildingBlock: QUQFOY_clean_sbu_1, # of connection points: 4
#     Node 25, Type 0, BuildingBlock: QUQFOY_clean_sbu_1, # of connection points: 4
#     Node 26, Type 0, BuildingBlock: QUQFOY_clean_sbu_1, # of connection points: 4
#     Node 27, Type 0, BuildingBlock: QUQFOY_clean_sbu_1, # of connection points: 4
#     Node 28, Type 0, BuildingBlock: QUQFOY_clean_sbu_1, # of connection points: 4
#     Node 29, Type 0, BuildingBlock: QUQFOY_clean_sbu_1, # of connection points: 4
#     Node 30, Type 0, BuildingBlock: QUQFOY_clean_sbu_1, # of connection points: 4
#     Node 31, Type 0, BuildingBlock: QUQFOY_clean_sbu_1, # of connection points: 4
#     Node 32, Type 0, BuildingBlock: QUQFOY_clean_sbu_1, # of connection points: 4
#     Node 33, Type 0, BuildingBlock: QUQFOY_clean_sbu_1, # of connection points: 4
#     Node 34, Type 0, BuildingBlock: QUQFOY_clean_sbu_1, # of connection points: 4
#     Node 35, Type 0, BuildingBlock: QUQFOY_clean_sbu_1, # of connection points: 4
#     Node 36, Type 0, BuildingBlock: QUQFOY_clean_sbu_1, # of connection points: 4
#     Node 37, Type 0, BuildingBlock: QUQFOY_clean_sbu_1, # of connection points: 4
#     Node 38, Type 0, BuildingBlock: QUQFOY_clean_sbu_1, # of connection points: 4
#     Node 39, Type 0, BuildingBlock: QUQFOY_clean_sbu_1, # of connection points: 4
#     Node 40, Type 0, BuildingBlock: QUQFOY_clean_sbu_1, # of connection points: 4
#     Node 41, Type 0, BuildingBlock: QUQFOY_clean_sbu_1, # of connection points: 4
#     Node 42, Type 0, BuildingBlock: QUQFOY_clean_sbu_1, # of connection points: 4
#     Node 43, Type 0, BuildingBlock: QUQFOY_clean_sbu_1, # of connection points: 4
#     Node 44, Type 0, BuildingBlock: QUQFOY_clean_sbu_1, # of connection points: 4
#     Node 45, Type 0, BuildingBlock: QUQFOY_clean_sbu_1, # of connection points: 4
#     Node 46, Type 0, BuildingBlock: QUQFOY_clean_sbu_1, # of connection points: 4
#     Node 47, Type 0, BuildingBlock: QUQFOY_clean_sbu_1, # of connection points: 4
#     Node 48, Type 0, BuildingBlock: QUQFOY_clean_sbu_1, # of connection points: 4
#     Node 49, Type 0, BuildingBlock: QUQFOY_clean_sbu_1, # of connection points: 4
#     Node 50, Type 0, BuildingBlock: QUQFOY_clean_sbu_1, # of connection points: 4
#     Node 51, Type 0, BuildingBlock: QUQFOY_clean_sbu_1, # of connection points: 4
#     Node 52, Type 0, BuildingBlock: QUQFOY_clean_sbu_1, # of connection points: 4
#     Node 53, Type 0, BuildingBlock: QUQFOY_clean_sbu_1, # of connection points: 4
#     Node 54, Type 0, BuildingBlock: QUQFOY_clean_sbu_1, # of connection points: 4
#     Node 55, Type 0, BuildingBlock: QUQFOY_clean_sbu_1, # of connection points: 4
#     Node 56, Type 0, BuildingBlock: QUQFOY_clean_sbu_1, # of connection points: 4
#     Node 57, Type 0, BuildingBlock: QUQFOY_clean_sbu_1, # of connection points: 4
#     Node 58, Type 0, BuildingBlock: QUQFOY_clean_sbu_1, # of connection points: 4
#     Node 59, Type 0, BuildingBlock: QUQFOY_clean_sbu_1, # of connection points: 4
#     Node 60, Type 0, BuildingBlock: QUQFOY_clean_sbu_1, # of connection points: 4
#     Node 61, Type 0, BuildingBlock: QUQFOY_clean_sbu_1, # of connection points: 4
#     Node 62, Type 0, BuildingBlock: QUQFOY_clean_sbu_1, # of connection points: 4
#     Node 63, Type 0, BuildingBlock: QUQFOY_clean_sbu_1, # of connection points: 4
#     Node 64, Type 0, BuildingBlock: QUQFOY_clean_sbu_1, # of connection points: 4
#     Node 65, Type 0, BuildingBlock: QUQFOY_clean_sbu_1, # of connection points: 4
#     Node 66, Type 0, BuildingBlock: QUQFOY_clean_sbu_1, # of connection points: 4
#     Node 67, Type 0, BuildingBlock: QUQFOY_clean_sbu_1, # of connection points: 4
#     Node 68, Type 0, BuildingBlock: QUQFOY_clean_sbu_1, # of connection points: 4
#     Node 69, Type 0, BuildingBlock: QUQFOY_clean_sbu_1, # of connection points: 4
#     Node 70, Type 0, BuildingBlock: QUQFOY_clean_sbu_1, # of connection points: 4
#     Node 71, Type 0, BuildingBlock: QUQFOY_clean_sbu_1, # of connection points: 4
#     Node 72, Type 0, BuildingBlock: QUQFOY_clean_sbu_1, # of connection points: 4
#     Node 73, Type 0, BuildingBlock: QUQFOY_clean_sbu_1, # of connection points: 4
#     Node 74, Type 0, BuildingBlock: QUQFOY_clean_sbu_1, # of connection points: 4
#     Node 75, Type 0, BuildingBlock: QUQFOY_clean_sbu_1, # of connection points: 4
#     Node 76, Type 0, BuildingBlock: QUQFOY_clean_sbu_1, # of connection points: 4
#     Node 77, Type 0, BuildingBlock: QUQFOY_clean_sbu_1, # of connection points: 4
#     Node 78, Type 0, BuildingBlock: QUQFOY_clean_sbu_1, # of connection points: 4
#     Node 79, Type 0, BuildingBlock: QUQFOY_clean_sbu_1, # of connection points: 4
#     Node 80, Type 0, BuildingBlock: QUQFOY_clean_sbu_1, # of connection points: 4
#     Node 81, Type 0, BuildingBlock: QUQFOY_clean_sbu_1, # of connection points: 4
#     Node 82, Type 0, BuildingBlock: QUQFOY_clean_sbu_1, # of connection points: 4
#     Node 83, Type 0, BuildingBlock: QUQFOY_clean_sbu_1, # of connection points: 4
#     Node 84, Type 0, BuildingBlock: QUQFOY_clean_sbu_1, # of connection points: 4
#     Node 85, Type 0, BuildingBlock: QUQFOY_clean_sbu_1, # of connection points: 4
#     Node 86, Type 0, BuildingBlock: QUQFOY_clean_sbu_1, # of connection points: 4
#     Node 87, Type 0, BuildingBlock: QUQFOY_clean_sbu_1, # of connection points: 4
#     Node 88, Type 0, BuildingBlock: QUQFOY_clean_sbu_1, # of connection points: 4
#     Node 89, Type 0, BuildingBlock: QUQFOY_clean_sbu_1, # of connection points: 4
#     Node 90, Type 0, BuildingBlock: QUQFOY_clean_sbu_1, # of connection points: 4
#     Node 91, Type 0, BuildingBlock: QUQFOY_clean_sbu_1, # of connection points: 4
#     Node 92, Type 0, BuildingBlock: QUQFOY_clean_sbu_1, # of connection points: 4
#     Node 93, Type 0, BuildingBlock: QUQFOY_clean_sbu_1, # of connection points: 4
#     Node 94, Type 0, BuildingBlock: QUQFOY_clean_sbu_1, # of connection points: 4
#     Node 95, Type 0, BuildingBlock: QUQFOY_clean_sbu_1, # of connection points: 4
#     Edge 96, Type (0, 0), BuildingBlock: AJUNOK_clean_linker_0, # of connection points: 2
#     Edge 97, Type (0, 0), BuildingBlock: AJUNOK_clean_linker_0, # of connection points: 2
#     Edge 98, Type (0, 0), BuildingBlock: AJUNOK_clean_linker_0, # of connection points: 2
#     Edge 99, Type (0, 0), BuildingBlock: AJUNOK_clean_linker_0, # of connection points: 2
#     Edge 100, Type (0, 0), BuildingBlock: AJUNOK_clean_linker_0, # of connection points: 2
#     Edge 101, Type (0, 0), BuildingBlock: AJUNOK_clean_linker_0, # of connection points: 2
#     Edge 102, Type (0, 0), BuildingBlock: AJUNOK_clean_linker_0, # of connection points: 2
#     Edge 103, Type (0, 0), BuildingBlock: AJUNOK_clean_linker_0, # of connection points: 2
#     Edge 104, Type (0, 0), BuildingBlock: AJUNOK_clean_linker_0, # of connection points: 2
#     Edge 105, Type (0, 0), BuildingBlock: AJUNOK_clean_linker_0, # of connection points: 2
#     Edge 106, Type (0, 0), BuildingBlock: AJUNOK_clean_linker_0, # of connection points: 2
#     Edge 107, Type (0, 0), BuildingBlock: AJUNOK_clean_linker_0, # of connection points: 2
#     Edge 108, Type (0, 0), BuildingBlock: AJUNOK_clean_linker_0, # of connection points: 2
#     Edge 109, Type (0, 0), BuildingBlock: AJUNOK_clean_linker_0, # of connection points: 2
#     Edge 110, Type (0, 0), BuildingBlock: AJUNOK_clean_linker_0, # of connection points: 2
#     Edge 111, Type (0, 0), BuildingBlock: AJUNOK_clean_linker_0, # of connection points: 2
#     Edge 112, Type (0, 0), BuildingBlock: AJUNOK_clean_linker_0, # of connection points: 2
#     Edge 113, Type (0, 0), BuildingBlock: AJUNOK_clean_linker_0, # of connection points: 2
#     Edge 114, Type (0, 0), BuildingBlock: AJUNOK_clean_linker_0, # of connection points: 2
#     Edge 115, Type (0, 0), BuildingBlock: AJUNOK_clean_linker_0, # of connection points: 2
#     Edge 116, Type (0, 0), BuildingBlock: AJUNOK_clean_linker_0, # of connection points: 2
#     Edge 117, Type (0, 0), BuildingBlock: AJUNOK_clean_linker_0, # of connection points: 2
#     Edge 118, Type (0, 0), BuildingBlock: AJUNOK_clean_linker_0, # of connection points: 2
#     Edge 119, Type (0, 0), BuildingBlock: AJUNOK_clean_linker_0, # of connection points: 2
#     Edge 120, Type (0, 0), BuildingBlock: AJUNOK_clean_linker_0, # of connection points: 2
#     Edge 121, Type (0, 0), BuildingBlock: AJUNOK_clean_linker_0, # of connection points: 2
#     Edge 122, Type (0, 0), BuildingBlock: AJUNOK_clean_linker_0, # of connection points: 2
#     Edge 123, Type (0, 0), BuildingBlock: AJUNOK_clean_linker_0, # of connection points: 2
#     Edge 124, Type (0, 0), BuildingBlock: AJUNOK_clean_linker_0, # of connection points: 2
#     Edge 125, Type (0, 0), BuildingBlock: AJUNOK_clean_linker_0, # of connection points: 2
#     Edge 126, Type (0, 0), BuildingBlock: AJUNOK_clean_linker_0, # of connection points: 2
#     Edge 127, Type (0, 0), BuildingBlock: AJUNOK_clean_linker_0, # of connection points: 2
#     Edge 128, Type (0, 0), BuildingBlock: AJUNOK_clean_linker_0, # of connection points: 2
#     Edge 129, Type (0, 0), BuildingBlock: AJUNOK_clean_linker_0, # of connection points: 2
#     Edge 130, Type (0, 0), BuildingBlock: AJUNOK_clean_linker_0, # of connection points: 2
#     Edge 131, Type (0, 0), BuildingBlock: AJUNOK_clean_linker_0, # of connection points: 2
#     Edge 132, Type (0, 0), BuildingBlock: AJUNOK_clean_linker_0, # of connection points: 2
#     Edge 133, Type (0, 0), BuildingBlock: AJUNOK_clean_linker_0, # of connection points: 2
#     Edge 134, Type (0, 0), BuildingBlock: AJUNOK_clean_linker_0, # of connection points: 2
#     Edge 135, Type (0, 0), BuildingBlock: AJUNOK_clean_linker_0, # of connection points: 2
#     Edge 136, Type (0, 0), BuildingBlock: AJUNOK_clean_linker_0, # of connection points: 2
#     Edge 137, Type (0, 0), BuildingBlock: AJUNOK_clean_linker_0, # of connection points: 2
#     Edge 138, Type (0, 0), BuildingBlock: AJUNOK_clean_linker_0, # of connection points: 2
#     Edge 139, Type (0, 0), BuildingBlock: AJUNOK_clean_linker_0, # of connection points: 2
#     Edge 140, Type (0, 0), BuildingBlock: AJUNOK_clean_linker_0, # of connection points: 2
#     Edge 141, Type (0, 0), BuildingBlock: AJUNOK_clean_linker_0, # of connection points: 2
#     Edge 142, Type (0, 0), BuildingBlock: AJUNOK_clean_linker_0, # of connection points: 2
#     Edge 143, Type (0, 0), BuildingBlock: AJUNOK_clean_linker_0, # of connection points: 2
#     Edge 144, Type (0, 0), BuildingBlock: AJUNOK_clean_linker_0, # of connection points: 2
#     Edge 145, Type (0, 0), BuildingBlock: AJUNOK_clean_linker_0, # of connection points: 2
#     Edge 146, Type (0, 0), BuildingBlock: AJUNOK_clean_linker_0, # of connection points: 2
#     Edge 147, Type (0, 0), BuildingBlock: AJUNOK_clean_linker_0, # of connection points: 2
#     Edge 148, Type (0, 0), BuildingBlock: AJUNOK_clean_linker_0, # of connection points: 2
#     Edge 149, Type (0, 0), BuildingBlock: AJUNOK_clean_linker_0, # of connection points: 2
#     Edge 150, Type (0, 0), BuildingBlock: AJUNOK_clean_linker_0, # of connection points: 2
#     Edge 151, Type (0, 0), BuildingBlock: AJUNOK_clean_linker_0, # of connection points: 2
#     Edge 152, Type (0, 0), BuildingBlock: AJUNOK_clean_linker_0, # of connection points: 2
#     Edge 153, Type (0, 0), BuildingBlock: AJUNOK_clean_linker_0, # of connection points: 2
#     Edge 154, Type (0, 0), BuildingBlock: AJUNOK_clean_linker_0, # of connection points: 2
#     Edge 155, Type (0, 0), BuildingBlock: AJUNOK_clean_linker_0, # of connection points: 2
#     Edge 156, Type (0, 0), BuildingBlock: AJUNOK_clean_linker_0, # of connection points: 2
#     Edge 157, Type (0, 0), BuildingBlock: AJUNOK_clean_linker_0, # of connection points: 2
#     Edge 158, Type (0, 0), BuildingBlock: AJUNOK_clean_linker_0, # of connection points: 2
#     Edge 159, Type (0, 0), BuildingBlock: AJUNOK_clean_linker_0, # of connection points: 2
#     Edge 160, Type (0, 0), BuildingBlock: AJUNOK_clean_linker_0, # of connection points: 2
#     Edge 161, Type (0, 0), BuildingBlock: AJUNOK_clean_linker_0, # of connection points: 2
#     Edge 162, Type (0, 0), BuildingBlock: AJUNOK_clean_linker_0, # of connection points: 2
#     Edge 163, Type (0, 0), BuildingBlock: AJUNOK_clean_linker_0, # of connection points: 2
#     Edge 164, Type (0, 0), BuildingBlock: AJUNOK_clean_linker_0, # of connection points: 2
#     Edge 165, Type (0, 0), BuildingBlock: AJUNOK_clean_linker_0, # of connection points: 2
#     Edge 166, Type (0, 0), BuildingBlock: AJUNOK_clean_linker_0, # of connection points: 2
#     Edge 167, Type (0, 0), BuildingBlock: AJUNOK_clean_linker_0, # of connection points: 2
#     Edge 168, Type (0, 0), BuildingBlock: AJUNOK_clean_linker_0, # of connection points: 2
#     Edge 169, Type (0, 0), BuildingBlock: AJUNOK_clean_linker_0, # of connection points: 2
#     Edge 170, Type (0, 0), BuildingBlock: AJUNOK_clean_linker_0, # of connection points: 2
#     Edge 171, Type (0, 0), BuildingBlock: AJUNOK_clean_linker_0, # of connection points: 2
#     Edge 172, Type (0, 0), BuildingBlock: AJUNOK_clean_linker_0, # of connection points: 2
#     Edge 173, Type (0, 0), BuildingBlock: AJUNOK_clean_linker_0, # of connection points: 2
#     Edge 174, Type (0, 0), BuildingBlock: AJUNOK_clean_linker_0, # of connection points: 2
#     Edge 175, Type (0, 0), BuildingBlock: AJUNOK_clean_linker_0, # of connection points: 2
#     Edge 176, Type (0, 0), BuildingBlock: AJUNOK_clean_linker_0, # of connection points: 2
#     Edge 177, Type (0, 0), BuildingBlock: AJUNOK_clean_linker_0, # of connection points: 2
#     Edge 178, Type (0, 0), BuildingBlock: AJUNOK_clean_linker_0, # of connection points: 2
#     Edge 179, Type (0, 0), BuildingBlock: AJUNOK_clean_linker_0, # of connection points: 2
#     Edge 180, Type (0, 0), BuildingBlock: AJUNOK_clean_linker_0, # of connection points: 2
#     Edge 181, Type (0, 0), BuildingBlock: AJUNOK_clean_linker_0, # of connection points: 2
#     Edge 182, Type (0, 0), BuildingBlock: AJUNOK_clean_linker_0, # of connection points: 2
#     Edge 183, Type (0, 0), BuildingBlock: AJUNOK_clean_linker_0, # of connection points: 2
#     Edge 184, Type (0, 0), BuildingBlock: AJUNOK_clean_linker_0, # of connection points: 2
#     Edge 185, Type (0, 0), BuildingBlock: AJUNOK_clean_linker_0, # of connection points: 2
#     Edge 186, Type (0, 0), BuildingBlock: AJUNOK_clean_linker_0, # of connection points: 2
#     Edge 187, Type (0, 0), BuildingBlock: AJUNOK_clean_linker_0, # of connection points: 2
#     Edge 188, Type (0, 0), BuildingBlock: AJUNOK_clean_linker_0, # of connection points: 2
#     Edge 189, Type (0, 0), BuildingBlock: AJUNOK_clean_linker_0, # of connection points: 2
#     Edge 190, Type (0, 0), BuildingBlock: AJUNOK_clean_linker_0, # of connection points: 2
#     Edge 191, Type (0, 0), BuildingBlock: AJUNOK_clean_linker_0, # of connection points: 2
#     Edge 192, Type (0, 0), BuildingBlock: AJUNOK_clean_linker_0, # of connection points: 2
#     Edge 193, Type (0, 0), BuildingBlock: AJUNOK_clean_linker_0, # of connection points: 2
#     Edge 194, Type (0, 0), BuildingBlock: AJUNOK_clean_linker_0, # of connection points: 2
#     Edge 195, Type (0, 0), BuildingBlock: AJUNOK_clean_linker_0, # of connection points: 2
#     Edge 196, Type (0, 0), BuildingBlock: AJUNOK_clean_linker_0, # of connection points: 2
#     Edge 197, Type (0, 0), BuildingBlock: AJUNOK_clean_linker_0, # of connection points: 2
#     Edge 198, Type (0, 0), BuildingBlock: AJUNOK_clean_linker_0, # of connection points: 2
#     Edge 199, Type (0, 0), BuildingBlock: AJUNOK_clean_linker_0, # of connection points: 2
#     Edge 200, Type (0, 0), BuildingBlock: AJUNOK_clean_linker_0, # of connection points: 2
#     Edge 201, Type (0, 0), BuildingBlock: AJUNOK_clean_linker_0, # of connection points: 2
#     Edge 202, Type (0, 0), BuildingBlock: AJUNOK_clean_linker_0, # of connection points: 2
#     Edge 203, Type (0, 0), BuildingBlock: AJUNOK_clean_linker_0, # of connection points: 2
#     Edge 204, Type (0, 0), BuildingBlock: AJUNOK_clean_linker_0, # of connection points: 2
#     Edge 205, Type (0, 0), BuildingBlock: AJUNOK_clean_linker_0, # of connection points: 2
#     Edge 206, Type (0, 0), BuildingBlock: AJUNOK_clean_linker_0, # of connection points: 2
#     Edge 207, Type (0, 0), BuildingBlock: AJUNOK_clean_linker_0, # of connection points: 2
#     Edge 208, Type (0, 0), BuildingBlock: AJUNOK_clean_linker_0, # of connection points: 2
#     Edge 209, Type (0, 0), BuildingBlock: AJUNOK_clean_linker_0, # of connection points: 2
#     Edge 210, Type (0, 0), BuildingBlock: AJUNOK_clean_linker_0, # of connection points: 2
#     Edge 211, Type (0, 0), BuildingBlock: AJUNOK_clean_linker_0, # of connection points: 2
#     Edge 212, Type (0, 0), BuildingBlock: AJUNOK_clean_linker_0, # of connection points: 2
#     Edge 213, Type (0, 0), BuildingBlock: AJUNOK_clean_linker_0, # of connection points: 2
#     Edge 214, Type (0, 0), BuildingBlock: AJUNOK_clean_linker_0, # of connection points: 2
#     Edge 215, Type (0, 0), BuildingBlock: AJUNOK_clean_linker_0, # of connection points: 2
#     Edge 216, Type (0, 0), BuildingBlock: AJUNOK_clean_linker_0, # of connection points: 2
#     Edge 217, Type (0, 0), BuildingBlock: AJUNOK_clean_linker_0, # of connection points: 2
#     Edge 218, Type (0, 0), BuildingBlock: AJUNOK_clean_linker_0, # of connection points: 2
#     Edge 219, Type (0, 0), BuildingBlock: AJUNOK_clean_linker_0, # of connection points: 2
#     Edge 220, Type (0, 0), BuildingBlock: AJUNOK_clean_linker_0, # of connection points: 2
#     Edge 221, Type (0, 0), BuildingBlock: AJUNOK_clean_linker_0, # of connection points: 2
#     Edge 222, Type (0, 0), BuildingBlock: AJUNOK_clean_linker_0, # of connection points: 2
#     Edge 223, Type (0, 0), BuildingBlock: AJUNOK_clean_linker_0, # of connection points: 2
#     Edge 224, Type (0, 0), BuildingBlock: AJUNOK_clean_linker_0, # of connection points: 2
#     Edge 225, Type (0, 0), BuildingBlock: AJUNOK_clean_linker_0, # of connection points: 2
#     Edge 226, Type (0, 0), BuildingBlock: AJUNOK_clean_linker_0, # of connection points: 2
#     Edge 227, Type (0, 0), BuildingBlock: AJUNOK_clean_linker_0, # of connection points: 2
#     Edge 228, Type (0, 0), BuildingBlock: AJUNOK_clean_linker_0, # of connection points: 2
#     Edge 229, Type (0, 0), BuildingBlock: AJUNOK_clean_linker_0, # of connection points: 2
#     Edge 230, Type (0, 0), BuildingBlock: AJUNOK_clean_linker_0, # of connection points: 2
#     Edge 231, Type (0, 0), BuildingBlock: AJUNOK_clean_linker_0, # of connection points: 2
#     Edge 232, Type (0, 0), BuildingBlock: AJUNOK_clean_linker_0, # of connection points: 2
#     Edge 233, Type (0, 0), BuildingBlock: AJUNOK_clean_linker_0, # of connection points: 2
#     Edge 234, Type (0, 0), BuildingBlock: AJUNOK_clean_linker_0, # of connection points: 2
#     Edge 235, Type (0, 0), BuildingBlock: AJUNOK_clean_linker_0, # of connection points: 2
#     Edge 236, Type (0, 0), BuildingBlock: AJUNOK_clean_linker_0, # of connection points: 2
#     Edge 237, Type (0, 0), BuildingBlock: AJUNOK_clean_linker_0, # of connection points: 2
#     Edge 238, Type (0, 0), BuildingBlock: AJUNOK_clean_linker_0, # of connection points: 2
#     Edge 239, Type (0, 0), BuildingBlock: AJUNOK_clean_linker_0, # of connection points: 2
#     Edge 240, Type (0, 0), BuildingBlock: AJUNOK_clean_linker_0, # of connection points: 2
#     Edge 241, Type (0, 0), BuildingBlock: AJUNOK_clean_linker_0, # of connection points: 2
#     Edge 242, Type (0, 0), BuildingBlock: AJUNOK_clean_linker_0, # of connection points: 2
#     Edge 243, Type (0, 0), BuildingBlock: AJUNOK_clean_linker_0, # of connection points: 2
#     Edge 244, Type (0, 0), BuildingBlock: AJUNOK_clean_linker_0, # of connection points: 2
#     Edge 245, Type (0, 0), BuildingBlock: AJUNOK_clean_linker_0, # of connection points: 2
#     Edge 246, Type (0, 0), BuildingBlock: AJUNOK_clean_linker_0, # of connection points: 2
#     Edge 247, Type (0, 0), BuildingBlock: AJUNOK_clean_linker_0, # of connection points: 2
#     Edge 248, Type (0, 0), BuildingBlock: AJUNOK_clean_linker_0, # of connection points: 2
#     Edge 249, Type (0, 0), BuildingBlock: AJUNOK_clean_linker_0, # of connection points: 2
#     Edge 250, Type (0, 0), BuildingBlock: AJUNOK_clean_linker_0, # of connection points: 2
#     Edge 251, Type (0, 0), BuildingBlock: AJUNOK_clean_linker_0, # of connection points: 2
#     Edge 252, Type (0, 0), BuildingBlock: AJUNOK_clean_linker_0, # of connection points: 2
#     Edge 253, Type (0, 0), BuildingBlock: AJUNOK_clean_linker_0, # of connection points: 2
#     Edge 254, Type (0, 0), BuildingBlock: AJUNOK_clean_linker_0, # of connection points: 2
#     Edge 255, Type (0, 0), BuildingBlock: AJUNOK_clean_linker_0, # of connection points: 2
#     Edge 256, Type (0, 0), BuildingBlock: AJUNOK_clean_linker_0, # of connection points: 2
#     Edge 257, Type (0, 0), BuildingBlock: AJUNOK_clean_linker_0, # of connection points: 2
#     Edge 258, Type (0, 0), BuildingBlock: AJUNOK_clean_linker_0, # of connection points: 2
#     Edge 259, Type (0, 0), BuildingBlock: AJUNOK_clean_linker_0, # of connection points: 2
#     Edge 260, Type (0, 0), BuildingBlock: AJUNOK_clean_linker_0, # of connection points: 2
#     Edge 261, Type (0, 0), BuildingBlock: AJUNOK_clean_linker_0, # of connection points: 2
#     Edge 262, Type (0, 0), BuildingBlock: AJUNOK_clean_linker_0, # of connection points: 2
#     Edge 263, Type (0, 0), BuildingBlock: AJUNOK_clean_linker_0, # of connection points: 2
#     Edge 264, Type (0, 0), BuildingBlock: AJUNOK_clean_linker_0, # of connection points: 2
#     Edge 265, Type (0, 0), BuildingBlock: AJUNOK_clean_linker_0, # of connection points: 2
#     Edge 266, Type (0, 0), BuildingBlock: AJUNOK_clean_linker_0, # of connection points: 2
#     Edge 267, Type (0, 0), BuildingBlock: AJUNOK_clean_linker_0, # of connection points: 2
#     Edge 268, Type (0, 0), BuildingBlock: AJUNOK_clean_linker_0, # of connection points: 2
#     Edge 269, Type (0, 0), BuildingBlock: AJUNOK_clean_linker_0, # of connection points: 2
#     Edge 270, Type (0, 0), BuildingBlock: AJUNOK_clean_linker_0, # of connection points: 2
#     Edge 271, Type (0, 0), BuildingBlock: AJUNOK_clean_linker_0, # of connection points: 2
#     Edge 272, Type (0, 0), BuildingBlock: AJUNOK_clean_linker_0, # of connection points: 2
#     Edge 273, Type (0, 0), BuildingBlock: AJUNOK_clean_linker_0, # of connection points: 2
#     Edge 274, Type (0, 0), BuildingBlock: AJUNOK_clean_linker_0, # of connection points: 2
#     Edge 275, Type (0, 0), BuildingBlock: AJUNOK_clean_linker_0, # of connection points: 2
#     Edge 276, Type (0, 0), BuildingBlock: AJUNOK_clean_linker_0, # of connection points: 2
#     Edge 277, Type (0, 0), BuildingBlock: AJUNOK_clean_linker_0, # of connection points: 2
#     Edge 278, Type (0, 0), BuildingBlock: AJUNOK_clean_linker_0, # of connection points: 2
#     Edge 279, Type (0, 0), BuildingBlock: AJUNOK_clean_linker_0, # of connection points: 2
#     Edge 280, Type (0, 0), BuildingBlock: AJUNOK_clean_linker_0, # of connection points: 2
#     Edge 281, Type (0, 0), BuildingBlock: AJUNOK_clean_linker_0, # of connection points: 2
#     Edge 282, Type (0, 0), BuildingBlock: AJUNOK_clean_linker_0, # of connection points: 2
#     Edge 283, Type (0, 0), BuildingBlock: AJUNOK_clean_linker_0, # of connection points: 2
#     Edge 284, Type (0, 0), BuildingBlock: AJUNOK_clean_linker_0, # of connection points: 2
#     Edge 285, Type (0, 0), BuildingBlock: AJUNOK_clean_linker_0, # of connection points: 2
#     Edge 286, Type (0, 0), BuildingBlock: AJUNOK_clean_linker_0, # of connection points: 2
#     Edge 287, Type (0, 0), BuildingBlock: AJUNOK_clean_linker_0, # of connection points: 2
# Relax obj value: 0.106
# Max RMSD: 0.145
# Mean RMSD: 0.145
data_MOF--net-kfi--node1-QUQFOY_clean_sbu_1--edge1-AJUNOK_clean_linker_0
_symmetry_space_group_name_H-M    P1
_symmetry_Int_Tables_number       1
_symmetry_cell_setting            triclinic
loop_
_symmetry_equiv_pos_as_xyz
'x, y, z'
_cell_length_a     71.398459
_cell_length_b     71.392476
_cell_length_c     71.390524
_cell_angle_alpha  90.000747
_cell_angle_beta   89.999191
_cell_angle_gamma 90.001082
loop_
_atom_site_label
_atom_site_type_symbol
_atom_site_fract_x
_atom_site_fract_y
_atom_site_fract_z
_atom_type_partial_charge
O0 O 0.11393 0.22013 0.328 0.0
Cd1 Cd 0.10113 0.20321 0.30835 0.0
Cd2 Cd 0.07014 0.21862 0.32675 0.0
O3 O 0.08991 0.22686 0.34614 0.0
O4 O 0.12331 0.19133 0.29644 0.0
O5 O 0.10215 0.17495 0.3118 0.0
C6 C 0.11766 0.17536 0.30253 0.0
C7 C 0.04013 0.21015 0.33684 0.0
C8 C 0.10733 0.22774 0.34267 0.0
C9 C 0.07751 0.22975 0.28652 0.0
O10 O 0.06945 0.23344 0.30194 0.0
O11 O 0.08948 0.21662 0.28562 0.0
O12 O 0.04647 0.22692 0.33868 0.0
O13 O 0.05128 0.19765 0.33003 0.0
O14 O 0.78041 0.11455 0.32826 0.0
Cd15 Cd 0.79726 0.10168 0.30861 0.0
Cd16 Cd 0.78103 0.07078 0.32682 0.0
O17 O 0.77274 0.09061 0.3461 0.0
O18 O 0.8091 0.12403 0.29696 0.0
O19 O 0.82552 0.10278 0.31209 0.0
C20 C 0.82505 0.1185 0.30317 0.0
C21 C 0.78899 0.04068 0.33712 0.0
C22 C 0.7724 0.10807 0.34276 0.0
C23 C 0.77055 0.07852 0.28644 0.0
O24 O 0.76662 0.07039 0.30177 0.0
O25 O 0.78388 0.09027 0.28574 0.0
O26 O 0.77226 0.04718 0.33859 0.0
O27 O 0.80173 0.05169 0.33051 0.0
O28 O 0.88549 0.77888 0.32904 0.0
Cd29 Cd 0.89723 0.79598 0.30889 0.0
Cd30 Cd 0.92959 0.78148 0.32618 0.0
O31 O 0.91052 0.77257 0.34594 0.0
O32 O 0.87448 0.80781 0.29807 0.0
O33 O 0.89626 0.82419 0.31253 0.0
C34 C 0.88027 0.82376 0.30411 0.0
C35 C 0.95972 0.78968 0.33624 0.0
C36 C 0.89295 0.77147 0.3434 0.0
C37 C 0.92108 0.77048 0.28601 0.0
O38 O 0.93005 0.76723 0.30102 0.0
O39 O 0.90833 0.78288 0.28572 0.0
O40 O 0.95344 0.77285 0.33751 0.0
O41 O 0.94852 0.80237 0.32989 0.0
O42 O 0.22096 0.88627 0.32913 0.0
Cd43 Cd 0.20342 0.8989 0.30994 0.0
Cd44 Cd 0.21942 0.93009 0.32809 0.0
O45 O 0.22831 0.91024 0.34712 0.0
O46 O 0.19165 0.87643 0.29845 0.0
O47 O 0.17525 0.89742 0.31397 0.0
C48 C 0.17574 0.88176 0.30496 0.0
C49 C 0.21146 0.96015 0.33854 0.0
C50 C 0.22905 0.89282 0.34356 0.0
C51 C 0.22921 0.92268 0.28742 0.0
O52 O 0.2333 0.93075 0.30273 0.0
O53 O 0.21612 0.91064 0.28687 0.0
O54 O 0.22826 0.95375 0.33971 0.0
O55 O 0.19867 0.94903 0.33223 0.0
O56 O 0.11541 0.78057 0.67124 0.0
Cd57 Cd 0.10328 0.79695 0.69177 0.0
Cd58 Cd 0.07112 0.7821 0.6741 0.0
O59 O 0.09048 0.77406 0.65425 0.0
O60 O 0.12574 0.80875 0.70323 0.0
O61 O 0.10396 0.82528 0.68892 0.0
C62 C 0.11976 0.8248 0.6977 0.0
C63 C 0.04092 0.78977 0.66383 0.0
C64 C 0.10807 0.77329 0.65675 0.0
C65 C 0.07986 0.77033 0.71396 0.0
O66 O 0.07093 0.76723 0.69889 0.0
O67 O 0.09228 0.78304 0.71452 0.0
O68 O 0.0476 0.77312 0.66234 0.0
O69 O 0.05165 0.80257 0.67074 0.0
O70 O 0.22062 0.11447 0.67143 0.0
Cd71 Cd 0.20387 0.10136 0.69103 0.0
Cd72 Cd 0.22004 0.07036 0.67256 0.0
O73 O 0.22829 0.0905 0.65356 0.0
O74 O 0.19195 0.12341 0.70317 0.0
O75 O 0.17557 0.10229 0.68778 0.0
C76 C 0.17597 0.11773 0.69717 0.0
C77 C 0.21228 0.04048 0.66149 0.0
C78 C 0.22863 0.10797 0.65693 0.0
C79 C 0.23048 0.07774 0.71301 0.0
O80 O 0.23435 0.06961 0.69767 0.0
O81 O 0.21732 0.08967 0.71371 0.0
O82 O 0.22901 0.04706 0.66033 0.0
O83 O 0.19948 0.05119 0.66844 0.0
O84 O 0.88625 0.22109 0.66911 0.0
Cd85 Cd 0.89849 0.20436 0.68927 0.0
Cd86 Cd 0.93036 0.22015 0.67218 0.0
O87 O 0.91108 0.22853 0.65238 0.0
O88 O 0.87592 0.19244 0.70036 0.0
O89 O 0.89775 0.17607 0.68596 0.0
C90 C 0.88182 0.17647 0.6945 0.0
C91 C 0.96051 0.21217 0.66204 0.0
C92 C 0.89348 0.2289 0.65484 0.0
C93 C 0.92137 0.23075 0.71227 0.0
O94 O 0.93029 0.23446 0.69732 0.0
O95 O 0.90921 0.21779 0.71241 0.0
O96 O 0.95413 0.22896 0.66078 0.0
O97 O 0.9495 0.19944 0.66865 0.0
O98 O 0.7796 0.88559 0.66991 0.0
Cd99 Cd 0.79642 0.89729 0.6903 0.0
Cd100 Cd 0.78084 0.92976 0.67349 0.0
O101 O 0.77205 0.91071 0.65363 0.0
O102 O 0.80821 0.87445 0.70096 0.0
O103 O 0.82471 0.8965 0.68706 0.0
C104 C 0.82422 0.88042 0.6953 0.0
C105 C 0.78822 0.96023 0.66374 0.0
C106 C 0.77164 0.89306 0.65585 0.0
C107 C 0.77043 0.92021 0.71364 0.0
O108 O 0.76698 0.92948 0.69886 0.0
O109 O 0.783 0.90763 0.71362 0.0
O110 O 0.77151 0.95361 0.66268 0.0
O111 O 0.80124 0.94919 0.66969 0.0
O112 O 0.32984 0.11399 0.22161 0.0
Cd113 Cd 0.30963 0.10202 0.20473 0.0
Cd114 Cd 0.32695 0.06982 0.21973 0.0
O115 O 0.34669 0.08904 0.2284 0.0
O116 O 0.29871 0.12463 0.19269 0.0
O117 O 0.31315 0.1027 0.17649 0.0
C118 C 0.30468 0.11867 0.17678 0.0
C119 C 0.33694 0.03961 0.2117 0.0
C120 C 0.34417 0.10663 0.22918 0.0
C121 C 0.28678 0.07848 0.2306 0.0
O122 O 0.30179 0.06954 0.23398 0.0
O123 O 0.2865 0.09107 0.21804 0.0
O124 O 0.33826 0.04599 0.22849 0.0
O125 O 0.3306 0.05077 0.19896 0.0
O126 O 0.88568 0.32972 0.21884 0.0
Cd127 Cd 0.89893 0.31007 0.20231 0.0
Cd128 Cd 0.92956 0.32848 0.21881 0.0
O129 O 0.90946 0.34758 0.22694 0.0
O130 O 0.87688 0.29823 0.19014 0.0
O131 O 0.89826 0.31352 0.17403 0.0
C132 C 0.88262 0.30448 0.17427 0.0
C133 C 0.95947 0.33921 0.21084 0.0
C134 C 0.89199 0.34424 0.22695 0.0
C135 C 0.92211 0.28806 0.22922 0.0
O136 O 0.93017 0.30341 0.23317 0.0
O137 O 0.91029 0.28732 0.21594 0.0
O138 O 0.95298 0.34059 0.22758 0.0
O139 O 0.94864 0.33227 0.19813 0.0
O140 O 0.67107 0.88536 0.22027 0.0
Cd141 Cd 0.69069 0.8983 0.20344 0.0
Cd142 Cd 0.67212 0.92934 0.21932 0.0
O143 O 0.653 0.90929 0.22755 0.0
O144 O 0.70274 0.87616 0.19159 0.0
O145 O 0.68734 0.89724 0.17515 0.0
C146 C 0.69667 0.88177 0.1756 0.0
C147 C 0.6614 0.95933 0.2115 0.0
C148 C 0.65648 0.89185 0.22812 0.0
C149 C 0.7125 0.92193 0.23008 0.0
O150 O 0.69711 0.93002 0.23383 0.0
O151 O 0.71336 0.90996 0.21695 0.0
O152 O 0.66001 0.95274 0.2282 0.0
O153 O 0.66832 0.94855 0.19874 0.0
O154 O 0.11396 0.67122 0.22022 0.0
Cd155 Cd 0.1012 0.69079 0.20321 0.0
Cd156 Cd 0.07012 0.67268 0.21936 0.0
O157 O 0.08993 0.65343 0.22784 0.0
O158 O 0.12354 0.70255 0.19149 0.0
O159 O 0.10247 0.68726 0.17495 0.0
C160 C 0.11803 0.69643 0.17549 0.0
C161 C 0.04003 0.66245 0.21127 0.0
C162 C 0.1074 0.65678 0.22828 0.0
C163 C 0.07784 0.71312 0.22963 0.0
O164 O 0.06965 0.69784 0.23359 0.0
O165 O 0.08978 0.71372 0.21645 0.0
O166 O 0.04643 0.66102 0.22805 0.0
O167 O 0.05115 0.66893 0.19857 0.0
O168 O 0.32899 0.88576 0.78062 0.0
Cd169 Cd 0.30892 0.89882 0.79679 0.0
Cd170 Cd 0.32793 0.92985 0.78063 0.0
O171 O 0.34693 0.90957 0.77273 0.0
O172 O 0.29658 0.8766 0.80819 0.0
O173 O 0.31147 0.89761 0.82516 0.0
C174 C 0.30224 0.88209 0.82437 0.0
C175 C 0.33896 0.95981 0.78822 0.0
C176 C 0.34361 0.89209 0.77271 0.0
C177 C 0.28758 0.92247 0.7696 0.0
O178 O 0.303 0.93059 0.76604 0.0
O179 O 0.28658 0.91047 0.7827 0.0
O180 O 0.34029 0.95306 0.77157 0.0
O181 O 0.33188 0.94921 0.80105 0.0
O182 O 0.11351 0.33006 0.77941 0.0
Cd183 Cd 0.10159 0.30987 0.79635 0.0
Cd184 Cd 0.06928 0.32686 0.78077 0.0
O185 O 0.0885 0.34649 0.7719 0.0
O186 O 0.12438 0.29895 0.80803 0.0
O187 O 0.10265 0.3132 0.82463 0.0
C188 C 0.11863 0.30477 0.82406 0.0
C189 C 0.03919 0.33738 0.78849 0.0
C190 C 0.10612 0.34416 0.77145 0.0
C191 C 0.07832 0.28665 0.77041 0.0
O192 O 0.06919 0.30151 0.76684 0.0
O193 O 0.09079 0.28666 0.78308 0.0
O194 O 0.04561 0.33822 0.77169 0.0
O195 O 0.05011 0.33092 0.80137 0.0
O196 O 0.66948 0.11486 0.77958 0.0
Cd197 Cd 0.68924 0.10225 0.7965 0.0
Cd198 Cd 0.67187 0.07073 0.77855 0.0
O199 O 0.65278 0.0907 0.77009 0.0
O200 O 0.7003 0.12477 0.8086 0.0
O201 O 0.68556 0.10307 0.82477 0.0
C202 C 0.69417 0.11895 0.82449 0.0
C203 C 0.66131 0.0401 0.78396 0.0
C204 C 0.65555 0.10826 0.77068 0.0
C205 C 0.71264 0.07979 0.77004 0.0
O206 O 0.69769 0.07119 0.76565 0.0
O207 O 0.7126 0.09159 0.78334 0.0
O208 O 0.6611 0.04755 0.76757 0.0
O209 O 0.6669 0.05038 0.79774 0.0
O210 O 0.88447 0.66988 0.78113 0.0
Cd211 Cd 0.89758 0.68963 0.79769 0.0
Cd212 Cd 0.92853 0.67133 0.78064 0.0
O213 O 0.90834 0.65232 0.77257 0.0
O214 O 0.87545 0.70171 0.80955 0.0
O215 O 0.89662 0.6865 0.82603 0.0
C216 C 0.88113 0.6958 0.82556 0.0
C217 C 0.95872 0.66055 0.7876 0.0
C218 C 0.89084 0.65552 0.77277 0.0
C219 C 0.92066 0.71184 0.7707 0.0
O220 O 0.92882 0.69657 0.76659 0.0
O221 O 0.90896 0.71239 0.78408 0.0
O222 O 0.95177 0.65947 0.77102 0.0
O223 O 0.94819 0.66718 0.80072 0.0
O224 O 0.22097 0.32726 0.11492 0.0
Cd225 Cd 0.20364 0.30793 0.10221 0.0
Cd226 Cd 0.21916 0.3262 0.07118 0.0
O227 O 0.2278 0.34543 0.09095 0.0
O228 O 0.19143 0.29657 0.12451 0.0
O229 O 0.17549 0.31209 0.10315 0.0
C230 C 0.17566 0.30317 0.11887 0.0
C231 C 0.21108 0.33645 0.0411 0.0
C232 C 0.22873 0.34186 0.10835 0.0
C233 C 0.22961 0.28569 0.07851 0.0
O234 O 0.23345 0.30109 0.07047 0.0
O235 O 0.21656 0.28492 0.09057 0.0
O236 O 0.22784 0.33792 0.04753 0.0
O237 O 0.19837 0.32995 0.0522 0.0
O238 O 0.22039 0.66879 0.88565 0.0
Cd239 Cd 0.2034 0.6889 0.89765 0.0
Cd240 Cd 0.21894 0.6719 0.92975 0.0
O241 O 0.22769 0.65216 0.9106 0.0
O242 O 0.19177 0.70011 0.87499 0.0
O243 O 0.17512 0.68559 0.89653 0.0
C244 C 0.17571 0.69441 0.88076 0.0
C245 C 0.21095 0.66205 0.96 0.0
C246 C 0.22826 0.65461 0.893 0.0
C247 C 0.22937 0.71204 0.92091 0.0
O248 O 0.23309 0.6971 0.92983 0.0
O249 O 0.21655 0.71211 0.90859 0.0
O250 O 0.22774 0.66074 0.95362 0.0
O251 O 0.19819 0.66829 0.94882 0.0
O252 O 0.33055 0.21988 0.88565 0.0
Cd253 Cd 0.31048 0.20302 0.89783 0.0
Cd254 Cd 0.32775 0.21889 0.92991 0.0
O255 O 0.34734 0.22736 0.91045 0.0
O256 O 0.29947 0.19101 0.87524 0.0
O257 O 0.31401 0.17476 0.89705 0.0
C258 C 0.30549 0.17509 0.88111 0.0
C259 C 0.33824 0.2116 0.96015 0.0
C260 C 0.3448 0.22775 0.89285 0.0
C261 C 0.28748 0.22923 0.92097 0.0
O262 O 0.30244 0.23289 0.92989 0.0
O263 O 0.28732 0.21636 0.90869 0.0
O264 O 0.33916 0.22829 0.95346 0.0
O265 O 0.33177 0.19858 0.9494 0.0
O266 O 0.77958 0.33014 0.88629 0.0
Cd267 Cd 0.79611 0.3097 0.89834 0.0
Cd268 Cd 0.78089 0.32722 0.93054 0.0
O269 O 0.77275 0.34704 0.91119 0.0
O270 O 0.80748 0.29821 0.87567 0.0
O271 O 0.82444 0.31252 0.8971 0.0
C272 C 0.82364 0.30374 0.88133 0.0
C273 C 0.7887 0.33755 0.96069 0.0
C274 C 0.77212 0.34455 0.8936 0.0
C275 C 0.76956 0.28726 0.92167 0.0
O276 O 0.76622 0.30229 0.93061 0.0
O277 O 0.78238 0.28686 0.90936 0.0
O278 O 0.77198 0.33889 0.95415 0.0
O279 O 0.80146 0.33071 0.94986 0.0
O280 O 0.6701 0.77802 0.88682 0.0
Cd281 Cd 0.68956 0.79525 0.89949 0.0
Cd282 Cd 0.67138 0.77904 0.9306 0.0
O283 O 0.65213 0.7706 0.91078 0.0
O284 O 0.70153 0.80645 0.87697 0.0
O285 O 0.6862 0.82351 0.89757 0.0
C286 C 0.69549 0.8226 0.88209 0.0
C287 C 0.66122 0.78735 0.96066 0.0
C288 C 0.65561 0.77002 0.89335 0.0
C289 C 0.71185 0.7689 0.92303 0.0
O290 O 0.6965 0.76474 0.93103 0.0
O291 O 0.71244 0.78226 0.91131 0.0
O292 O 0.6597 0.77053 0.95436 0.0
O293 O 0.66775 0.79995 0.94945 0.0
O294 O 0.77991 0.671 0.11363 0.0
Cd295 Cd 0.79679 0.69053 0.10062 0.0
Cd296 Cd 0.7802 0.6726 0.06963 0.0
O297 O 0.77179 0.65347 0.08958 0.0
O298 O 0.80898 0.70209 0.12282 0.0
O299 O 0.82504 0.68686 0.10136 0.0
C300 C 0.82483 0.69581 0.11706 0.0
C301 C 0.7879 0.66171 0.03967 0.0
C302 C 0.77165 0.65667 0.10708 0.0
C303 C 0.7702 0.71309 0.07759 0.0
O304 O 0.76615 0.69789 0.06927 0.0
O305 O 0.78348 0.71353 0.0894 0.0
O306 O 0.77114 0.6607 0.04619 0.0
O307 O 0.80075 0.66847 0.05046 0.0
O308 O 0.33046 0.77953 0.11429 0.0
Cd309 Cd 0.30983 0.79611 0.10261 0.0
Cd310 Cd 0.32695 0.78074 0.07013 0.0
O311 O 0.34696 0.7724 0.08919 0.0
O312 O 0.29854 0.80729 0.12548 0.0
O313 O 0.31243 0.82447 0.10395 0.0
C314 C 0.30379 0.82353 0.11979 0.0
C315 C 0.33645 0.78861 0.0397 0.0
C316 C 0.34469 0.77187 0.10682 0.0
C317 C 0.28705 0.76963 0.07949 0.0
O318 O 0.30195 0.76623 0.07038 0.0
O319 O 0.28685 0.78242 0.09183 0.0
O320 O 0.33801 0.77188 0.0462 0.0
O321 O 0.33015 0.80138 0.05084 0.0
O322 O 0.67118 0.22032 0.11475 0.0
Cd323 Cd 0.69064 0.20321 0.1019 0.0
Cd324 Cd 0.67256 0.21941 0.07088 0.0
O325 O 0.65337 0.2279 0.09072 0.0
O326 O 0.70248 0.1914 0.12415 0.0
O327 O 0.68707 0.17496 0.1031 0.0
C328 C 0.69635 0.17542 0.1186 0.0
C329 C 0.66218 0.21152 0.04078 0.0
C330 C 0.65675 0.22839 0.10818 0.0
C331 C 0.713 0.2296 0.07852 0.0
O332 O 0.6977 0.23365 0.07039 0.0
O333 O 0.71357 0.21632 0.09033 0.0
O334 O 0.66083 0.22826 0.04729 0.0
O335 O 0.6687 0.19874 0.05179 0.0
O336 O 0.88683 0.77899 0.6703 0.0
Cd337 Cd 0.89873 0.79577 0.69062 0.0
Cd338 Cd 0.93087 0.78049 0.67372 0.0
O339 O 0.91187 0.7721 0.65365 0.0
O340 O 0.87594 0.80748 0.70147 0.0
O341 O 0.89778 0.82405 0.68733 0.0
C342 C 0.88175 0.8235 0.69567 0.0
C343 C 0.96101 0.78874 0.66381 0.0
C344 C 0.89426 0.77143 0.656 0.0
C345 C 0.92161 0.76948 0.71366 0.0
O346 O 0.93068 0.76598 0.69876 0.0
O347 O 0.90934 0.78235 0.71381 0.0
O348 O 0.95476 0.77191 0.66243 0.0
O349 O 0.9499 0.80135 0.67047 0.0
O350 O 0.21967 0.88649 0.66984 0.0
Cd351 Cd 0.20357 0.89939 0.69008 0.0
Cd352 Cd 0.22009 0.93055 0.67152 0.0
O353 O 0.22808 0.91046 0.65236 0.0
O354 O 0.19232 0.87704 0.70232 0.0
O355 O 0.17517 0.89809 0.6877 0.0
C356 C 0.17609 0.88253 0.69685 0.0
C357 C 0.21229 0.96055 0.66083 0.0
C358 C 0.22781 0.89293 0.65539 0.0
C359 C 0.23076 0.92277 0.71185 0.0
O360 O 0.2345 0.93105 0.69655 0.0
O361 O 0.21763 0.91079 0.71258 0.0
O362 O 0.229 0.95395 0.65945 0.0
O363 O 0.19953 0.94977 0.66776 0.0
O364 O 0.11464 0.21846 0.67135 0.0
Cd365 Cd 0.10178 0.20197 0.69131 0.0
Cd366 Cd 0.07057 0.21848 0.67314 0.0
O367 O 0.09055 0.22655 0.6539 0.0
O368 O 0.12407 0.19034 0.70328 0.0
O369 O 0.10289 0.17364 0.68833 0.0
C370 C 0.11847 0.17426 0.69748 0.0
C371 C 0.04047 0.21115 0.6624 0.0
C372 C 0.10807 0.22657 0.65695 0.0
C373 C 0.07863 0.22892 0.71348 0.0
O374 O 0.07029 0.23279 0.69824 0.0
O375 O 0.09048 0.21568 0.71406 0.0
O376 O 0.04726 0.22779 0.6612 0.0
O377 O 0.05107 0.19819 0.66921 0.0
O378 O 0.77969 0.11474 0.67065 0.0
Cd379 Cd 0.79687 0.10232 0.69031 0.0
Cd380 Cd 0.78047 0.07097 0.67301 0.0
O381 O 0.77187 0.09038 0.65341 0.0
O382 O 0.80889 0.12487 0.70131 0.0
O383 O 0.82509 0.10323 0.68649 0.0
C384 C 0.82477 0.11911 0.69511 0.0
C385 C 0.78807 0.04058 0.66327 0.0
C386 C 0.77148 0.10791 0.65642 0.0
C387 C 0.77055 0.07971 0.7134 0.0
O388 O 0.7665 0.07117 0.69832 0.0
O389 O 0.78383 0.09153 0.71365 0.0
O390 O 0.77134 0.04714 0.66198 0.0
O391 O 0.80099 0.05167 0.66935 0.0
O392 O 0.88591 0.2211 0.32883 0.0
Cd393 Cd 0.89805 0.2044 0.30856 0.0
Cd394 Cd 0.93 0.21897 0.32624 0.0
O395 O 0.91074 0.22744 0.34601 0.0
O396 O 0.8756 0.19232 0.29739 0.0
O397 O 0.89751 0.17614 0.31189 0.0
C398 C 0.8816 0.1764 0.30331 0.0
C399 C 0.96005 0.21045 0.33626 0.0
C400 C 0.89318 0.2284 0.34335 0.0
C401 C 0.92173 0.23056 0.28624 0.0
O402 O 0.93053 0.23371 0.30138 0.0
O403 O 0.90918 0.21797 0.28566 0.0
O404 O 0.95382 0.22727 0.33789 0.0
O405 O 0.94883 0.19795 0.32958 0.0
O406 O 0.77869 0.88623 0.33037 0.0
Cd407 Cd 0.79551 0.89823 0.31014 0.0
Cd408 Cd 0.78056 0.93028 0.32779 0.0
O409 O 0.77213 0.91099 0.34757 0.0
O410 O 0.8071 0.87553 0.29895 0.0
O411 O 0.82378 0.8971 0.31337 0.0
C412 C 0.82315 0.88119 0.30481 0.0
C413 C 0.78873 0.96049 0.33764 0.0
C414 C 0.77128 0.89344 0.34486 0.0
C415 C 0.76943 0.92186 0.28766 0.0
O416 O 0.76604 0.93057 0.30279 0.0
O417 O 0.78214 0.90942 0.28716 0.0
O418 O 0.77196 0.95411 0.33921 0.0
O419 O 0.80139 0.9493 0.33118 0.0
O420 O 0.11407 0.77901 0.3298 0.0
Cd421 Cd 0.10224 0.79602 0.30962 0.0
Cd422 Cd 0.07002 0.7815 0.32698 0.0
O423 O 0.08911 0.7728 0.34683 0.0
O424 O 0.1249 0.80799 0.29875 0.0
O425 O 0.10305 0.82424 0.31325 0.0
C426 C 0.11902 0.8239 0.30479 0.0
C427 C 0.03983 0.78974 0.33681 0.0
C428 C 0.10666 0.77169 0.34423 0.0
C429 C 0.0785 0.7703 0.28689 0.0
O430 O 0.06963 0.76704 0.30196 0.0
O431 O 0.09114 0.78281 0.28649 0.0
O432 O 0.04615 0.77294 0.33831 0.0
O433 O 0.05105 0.80239 0.33041 0.0
O434 O 0.21886 0.11455 0.32939 0.0
Cd435 Cd 0.20235 0.10166 0.30947 0.0
Cd436 Cd 0.2187 0.07052 0.32788 0.0
O437 O 0.227 0.09055 0.34697 0.0
O438 O 0.19068 0.1239 0.29743 0.0
O439 O 0.174 0.10271 0.3124 0.0
C440 C 0.1746 0.11825 0.30319 0.0
C441 C 0.21103 0.04039 0.33836 0.0
C442 C 0.22705 0.10805 0.34378 0.0
C443 C 0.22918 0.07827 0.28747 0.0
O444 O 0.23294 0.06998 0.30275 0.0
O445 O 0.2161 0.09031 0.28679 0.0
O446 O 0.22772 0.04702 0.33971 0.0
O447 O 0.19817 0.0513 0.33183 0.0
O448 O 0.66912 0.88398 0.77973 0.0
Cd449 Cd 0.68972 0.89565 0.79633 0.0
Cd450 Cd 0.67233 0.92878 0.78013 0.0
O451 O 0.65294 0.90908 0.77174 0.0
O452 O 0.7008 0.87286 0.80791 0.0
O453 O 0.68681 0.89467 0.82467 0.0
C454 C 0.69538 0.87877 0.82403 0.0
C455 C 0.66167 0.95954 0.78487 0.0
C456 C 0.65509 0.89142 0.77167 0.0
C457 C 0.71286 0.91921 0.77046 0.0
O458 O 0.69806 0.92846 0.76705 0.0
O459 O 0.71283 0.90639 0.78279 0.0
O460 O 0.66158 0.95174 0.76865 0.0
O461 O 0.66724 0.94957 0.79889 0.0
O462 O 0.11342 0.66803 0.77972 0.0
Cd463 Cd 0.10135 0.68832 0.79642 0.0
Cd464 Cd 0.06911 0.67149 0.77979 0.0
O465 O 0.08852 0.65187 0.77127 0.0
O466 O 0.12411 0.69959 0.80782 0.0
O467 O 0.10261 0.68538 0.82477 0.0
C468 C 0.11841 0.69412 0.82398 0.0
C469 C 0.03882 0.66109 0.78694 0.0
C470 C 0.10616 0.65407 0.77141 0.0
C471 C 0.07857 0.71173 0.77005 0.0
O472 O 0.06945 0.69697 0.7661 0.0
O473 O 0.09075 0.71152 0.783 0.0
O474 O 0.04549 0.66034 0.77023 0.0
O475 O 0.0496 0.66736 0.80004 0.0
O476 O 0.32959 0.11354 0.77882 0.0
Cd477 Cd 0.31048 0.10066 0.79626 0.0
Cd478 Cd 0.32855 0.06971 0.77992 0.0
O479 O 0.34757 0.08965 0.77123 0.0
O480 O 0.29892 0.12298 0.80827 0.0
O481 O 0.31455 0.1019 0.82445 0.0
C482 C 0.30549 0.11753 0.82412 0.0
C483 C 0.33933 0.03975 0.78777 0.0
C484 C 0.34401 0.10707 0.77065 0.0
C485 C 0.28795 0.07725 0.77011 0.0
O486 O 0.30325 0.06919 0.76592 0.0
O487 O 0.28742 0.08901 0.78344 0.0
O488 O 0.3404 0.0462 0.77099 0.0
O489 O 0.33266 0.05065 0.80057 0.0
O490 O 0.88489 0.33065 0.77951 0.0
Cd491 Cd 0.89701 0.31033 0.79617 0.0
Cd492 Cd 0.92916 0.32788 0.78096 0.0
O493 O 0.90977 0.34754 0.77254 0.0
O494 O 0.87446 0.29877 0.80771 0.0
O495 O 0.89596 0.3132 0.8245 0.0
C496 C 0.88024 0.30429 0.82384 0.0
C497 C 0.9593 0.33823 0.78873 0.0
C498 C 0.89218 0.34499 0.77189 0.0
C499 C 0.92056 0.28784 0.76984 0.0
O500 O 0.92944 0.30288 0.76647 0.0
O501 O 0.90815 0.28747 0.78257 0.0
O502 O 0.95275 0.33953 0.77201 0.0
O503 O 0.94844 0.33152 0.80153 0.0
O504 O 0.66969 0.11379 0.22005 0.0
Cd505 Cd 0.68991 0.1016 0.20334 0.0
Cd506 Cd 0.67257 0.06942 0.21909 0.0
O507 O 0.65301 0.08892 0.22756 0.0
O508 O 0.70143 0.12415 0.19178 0.0
O509 O 0.6869 0.10271 0.17501 0.0
C510 C 0.69582 0.11842 0.17567 0.0
C511 C 0.66201 0.03929 0.2115 0.0
C512 C 0.65546 0.10653 0.22792 0.0
C513 C 0.71276 0.07821 0.22959 0.0
O514 O 0.6978 0.06927 0.23323 0.0
O515 O 0.7129 0.09055 0.21679 0.0
O516 O 0.66098 0.04586 0.22824 0.0
O517 O 0.66863 0.0501 0.19861 0.0
O518 O 0.88576 0.67129 0.21917 0.0
Cd519 Cd 0.89858 0.6909 0.20224 0.0
Cd520 Cd 0.92965 0.6729 0.21855 0.0
O521 O 0.90982 0.65366 0.22701 0.0
O522 O 0.87631 0.70233 0.19006 0.0
O523 O 0.89783 0.68717 0.174 0.0
C524 C 0.88208 0.69604 0.17421 0.0
C525 C 0.95981 0.6626 0.21083 0.0
C526 C 0.89233 0.65691 0.22731 0.0
C527 C 0.92174 0.71338 0.22868 0.0
O528 O 0.93003 0.69814 0.23263 0.0
O529 O 0.90977 0.71392 0.21554 0.0
O530 O 0.95325 0.6613 0.22756 0.0
O531 O 0.94882 0.669 0.19797 0.0
O532 O 0.32773 0.88553 0.22163 0.0
Cd533 Cd 0.30829 0.89802 0.20425 0.0
Cd534 Cd 0.32667 0.9294 0.21965 0.0
O535 O 0.34583 0.9096 0.22837 0.0
O536 O 0.29652 0.87556 0.19275 0.0
O537 O 0.31195 0.89638 0.17604 0.0
C538 C 0.30272 0.88086 0.17671 0.0
C539 C 0.33706 0.95944 0.21157 0.0
C540 C 0.34229 0.8922 0.22937 0.0
C541 C 0.28615 0.92215 0.23008 0.0
O542 O 0.30153 0.93023 0.23389 0.0
O543 O 0.28542 0.90996 0.21714 0.0
O544 O 0.33845 0.95302 0.22834 0.0
O545 O 0.33056 0.94835 0.19885 0.0
O546 O 0.11359 0.33007 0.22062 0.0
Cd547 Cd 0.10145 0.30993 0.20379 0.0
Cd548 Cd 0.06929 0.32767 0.21877 0.0
O549 O 0.0888 0.34716 0.22737 0.0
O550 O 0.12403 0.29858 0.19211 0.0
O551 O 0.10252 0.31317 0.17551 0.0
C552 C 0.11835 0.30447 0.17608 0.0
C553 C 0.03933 0.33845 0.2109 0.0
C554 C 0.10636 0.34448 0.22815 0.0
C555 C 0.07752 0.28745 0.22973 0.0
O556 O 0.06871 0.30253 0.23306 0.0
O557 O 0.09012 0.28703 0.21717 0.0
O558 O 0.04577 0.3395 0.22767 0.0
O559 O 0.05017 0.33168 0.19812 0.0
O560 O 0.77931 0.67106 0.88592 0.0
Cd561 Cd 0.79631 0.69034 0.89917 0.0
Cd562 Cd 0.78017 0.67163 0.9298 0.0
O563 O 0.77206 0.65265 0.90959 0.0
O564 O 0.80826 0.70256 0.87719 0.0
O565 O 0.82456 0.68675 0.89806 0.0
C566 C 0.82419 0.69627 0.88269 0.0
C567 C 0.78804 0.66082 0.95975 0.0
C568 C 0.77145 0.65638 0.8922 0.0
C569 C 0.76961 0.71208 0.92275 0.0
O570 O 0.7656 0.69659 0.93053 0.0
O571 O 0.78302 0.713 0.91111 0.0
O572 O 0.77135 0.65937 0.95315 0.0
O573 O 0.80077 0.66783 0.94898 0.0
O574 O 0.77979 0.32868 0.11444 0.0
Cd575 Cd 0.79682 0.30931 0.10137 0.0
Cd576 Cd 0.78061 0.32724 0.07056 0.0
O577 O 0.7722 0.34647 0.09041 0.0
O578 O 0.80931 0.2978 0.12342 0.0
O579 O 0.82503 0.31327 0.10186 0.0
C580 C 0.82505 0.30425 0.11752 0.0
C581 C 0.7886 0.33786 0.0406 0.0
C582 C 0.77174 0.34314 0.10788 0.0
C583 C 0.77035 0.28683 0.07828 0.0
O584 O 0.76632 0.30211 0.0701 0.0
O585 O 0.78367 0.28628 0.09005 0.0
O586 O 0.77183 0.33915 0.04704 0.0
O587 O 0.80132 0.33104 0.05149 0.0
O588 O 0.67134 0.77981 0.11492 0.0
Cd589 Cd 0.69076 0.79688 0.10195 0.0
Cd590 Cd 0.67241 0.78061 0.07096 0.0
O591 O 0.65341 0.77217 0.091 0.0
O592 O 0.70277 0.80874 0.12411 0.0
O593 O 0.68722 0.82514 0.10313 0.0
C594 C 0.69661 0.82471 0.11856 0.0
C595 C 0.6618 0.78825 0.04087 0.0
C596 C 0.65688 0.77171 0.10844 0.0
C597 C 0.71294 0.77043 0.07841 0.0
O598 O 0.69758 0.76642 0.07035 0.0
O599 O 0.71359 0.78369 0.09024 0.0
O600 O 0.66053 0.77155 0.04751 0.0
O601 O 0.66835 0.80113 0.05174 0.0
O602 O 0.22011 0.6687 0.11463 0.0
Cd603 Cd 0.20352 0.68913 0.10262 0.0
Cd604 Cd 0.21896 0.6721 0.07044 0.0
O605 O 0.22746 0.65224 0.08957 0.0
O606 O 0.19183 0.70048 0.12518 0.0
O607 O 0.17517 0.6863 0.10342 0.0
C608 C 0.17574 0.6951 0.11919 0.0
C609 C 0.21097 0.66227 0.04018 0.0
C610 C 0.22791 0.65452 0.1072 0.0
C611 C 0.22991 0.71205 0.07955 0.0
O612 O 0.23338 0.69716 0.07045 0.0
O613 O 0.21714 0.71218 0.09191 0.0
O614 O 0.22774 0.66087 0.0466 0.0
O615 O 0.19823 0.66864 0.05132 0.0
O616 O 0.32911 0.22017 0.11425 0.0
Cd617 Cd 0.30966 0.20288 0.10167 0.0
Cd618 Cd 0.32774 0.21899 0.07027 0.0
O619 O 0.34686 0.22766 0.09015 0.0
O620 O 0.29822 0.19115 0.12419 0.0
O621 O 0.31348 0.17468 0.10306 0.0
C622 C 0.30458 0.1752 0.11879 0.0
C623 C 0.33852 0.21159 0.04018 0.0
C624 C 0.34351 0.22823 0.10761 0.0
C625 C 0.28712 0.22885 0.07804 0.0
O626 O 0.30237 0.23284 0.06979 0.0
O627 O 0.28662 0.21582 0.09013 0.0
O628 O 0.33945 0.2283 0.04683 0.0
O629 O 0.33201 0.1986 0.05094 0.0
O630 O 0.22037 0.32971 0.8865 0.0
Cd631 Cd 0.20359 0.30938 0.89838 0.0
Cd632 Cd 0.21907 0.3264 0.93054 0.0
O633 O 0.22747 0.34639 0.91147 0.0
O634 O 0.19186 0.29855 0.87557 0.0
O635 O 0.17531 0.31268 0.89742 0.0
C636 C 0.17584 0.30437 0.88138 0.0
C637 C 0.21117 0.3361 0.96088 0.0
C638 C 0.22803 0.34399 0.89386 0.0
C639 C 0.2299 0.28636 0.92127 0.0
O640 O 0.23343 0.30129 0.93029 0.0
O641 O 0.21701 0.28618 0.90902 0.0
O642 O 0.22793 0.33749 0.95444 0.0
O643 O 0.1984 0.3298 0.94974 0.0
O644 O 0.66872 0.22075 0.88628 0.0
Cd645 Cd 0.68884 0.20398 0.89855 0.0
Cd646 Cd 0.67152 0.2198 0.93029 0.0
O647 O 0.65171 0.22805 0.91096 0.0
O648 O 0.69997 0.19206 0.87599 0.0
O649 O 0.68542 0.17571 0.89771 0.0
C650 C 0.69399 0.17611 0.8818 0.0
C651 C 0.66177 0.21178 0.96056 0.0
C652 C 0.65434 0.22848 0.89338 0.0
C653 C 0.71165 0.23044 0.92151 0.0
O654 O 0.69659 0.23421 0.93022 0.0
O655 O 0.71195 0.21737 0.90946 0.0
O656 O 0.66024 0.22855 0.95414 0.0
O657 O 0.66816 0.19907 0.94941 0.0
O658 O 0.32789 0.78023 0.88525 0.0
Cd659 Cd 0.30802 0.797 0.8979 0.0
Cd660 Cd 0.32611 0.78091 0.92914 0.0
O661 O 0.34556 0.77274 0.90941 0.0
O662 O 0.29622 0.80862 0.87551 0.0
O663 O 0.31107 0.82533 0.89675 0.0
C664 C 0.30198 0.82471 0.88114 0.0
C665 C 0.33613 0.78875 0.95939 0.0
C666 C 0.34235 0.77229 0.89192 0.0
C667 C 0.28587 0.77017 0.921 0.0
O668 O 0.30114 0.76637 0.92931 0.0
O669 O 0.28521 0.78345 0.9092 0.0
O670 O 0.33772 0.77205 0.9528 0.0
O671 O 0.32958 0.80152 0.94839 0.0
O672 O 0.61308 0.71884 0.82965 0.0
Cd673 Cd 0.60011 0.70218 0.80993 0.0
Cd674 Cd 0.56905 0.71864 0.82819 0.0
O675 O 0.5891 0.72698 0.84724 0.0
O676 O 0.62237 0.69025 0.7982 0.0
O677 O 0.60106 0.6739 0.81334 0.0
C678 C 0.61675 0.67431 0.80438 0.0
C679 C 0.53912 0.71105 0.8392 0.0
C680 C 0.6066 0.72703 0.84405 0.0
C681 C 0.57668 0.72875 0.78766 0.0
O682 O 0.56843 0.73268 0.80292 0.0
O683 O 0.58872 0.71565 0.7871 0.0
O684 O 0.54572 0.72777 0.84023 0.0
O685 O 0.54982 0.69816 0.83241 0.0
O686 O 0.28002 0.61404 0.82972 0.0
Cd687 Cd 0.29693 0.6022 0.80946 0.0
Cd688 Cd 0.28228 0.56993 0.8267 0.0
O689 O 0.27366 0.589 0.84659 0.0
O690 O 0.3089 0.62484 0.79856 0.0
O691 O 0.32518 0.60291 0.81292 0.0
C692 C 0.32483 0.61889 0.80448 0.0
C693 C 0.29016 0.53966 0.83659 0.0
C694 C 0.27265 0.60658 0.8441 0.0
C695 C 0.27103 0.57869 0.78668 0.0
O696 O 0.2678 0.5697 0.80168 0.0
O697 O 0.28357 0.5913 0.78634 0.0
O698 O 0.27343 0.54615 0.83802 0.0
O699 O 0.30295 0.55073 0.8302 0.0
O700 O 0.38535 0.27845 0.82873 0.0
Cd701 Cd 0.39709 0.2954 0.80845 0.0
Cd702 Cd 0.42939 0.28102 0.82562 0.0
O703 O 0.41044 0.27231 0.84559 0.0
O704 O 0.37436 0.30724 0.79766 0.0
O705 O 0.39623 0.32362 0.81199 0.0
C706 C 0.38021 0.32319 0.80361 0.0
C707 C 0.45951 0.28944 0.83544 0.0
C708 C 0.39287 0.2712 0.84314 0.0
C709 C 0.42076 0.26977 0.78558 0.0
O710 O 0.42976 0.26654 0.80059 0.0
O711 O 0.40806 0.28221 0.78529 0.0
O712 O 0.45331 0.2726 0.83692 0.0
O713 O 0.44823 0.30202 0.82901 0.0
O714 O 0.72098 0.38612 0.83053 0.0
Cd715 Cd 0.70407 0.39795 0.8103 0.0
Cd716 Cd 0.71935 0.43046 0.82754 0.0
O717 O 0.72822 0.41114 0.84708 0.0
O718 O 0.69256 0.37514 0.79926 0.0
O719 O 0.6758 0.39674 0.81352 0.0
C720 C 0.67648 0.3808 0.80504 0.0
C721 C 0.7118 0.46055 0.83819 0.0
C722 C 0.7288 0.39353 0.8447 0.0
C723 C 0.72972 0.42171 0.78724 0.0
O724 O 0.73317 0.4308 0.80214 0.0
O725 O 0.71729 0.40899 0.78717 0.0
O726 O 0.72857 0.45406 0.83895 0.0
O727 O 0.69884 0.44968 0.83179 0.0
O728 O 0.61426 0.2804 0.17122 0.0
Cd729 Cd 0.60125 0.29735 0.19067 0.0
Cd730 Cd 0.57028 0.28103 0.17234 0.0
O731 O 0.59036 0.27264 0.15334 0.0
O732 O 0.6234 0.30964 0.20225 0.0
O733 O 0.60197 0.32558 0.18684 0.0
C734 C 0.61765 0.32544 0.19581 0.0
C735 C 0.54021 0.28831 0.16145 0.0
C736 C 0.60782 0.27229 0.15676 0.0
C737 C 0.57792 0.27082 0.21288 0.0
O738 O 0.56976 0.26693 0.19756 0.0
O739 O 0.58986 0.284 0.21357 0.0
O740 O 0.54699 0.27166 0.16039 0.0
O741 O 0.55083 0.30132 0.16815 0.0
O742 O 0.72053 0.6137 0.17049 0.0
Cd743 Cd 0.70361 0.60056 0.1899 0.0
Cd744 Cd 0.71982 0.56972 0.17141 0.0
O745 O 0.72823 0.58987 0.15248 0.0
O746 O 0.69143 0.62264 0.2017 0.0
O747 O 0.67537 0.60137 0.18619 0.0
C748 C 0.67558 0.61697 0.19531 0.0
C749 C 0.712 0.53984 0.16038 0.0
C750 C 0.72859 0.6073 0.15598 0.0
C751 C 0.73007 0.57699 0.21197 0.0
O752 O 0.73398 0.56892 0.19661 0.0
O753 O 0.71693 0.58896 0.2127 0.0
O754 O 0.72875 0.54636 0.15927 0.0
O755 O 0.69921 0.55063 0.16723 0.0
O756 O 0.38625 0.72054 0.16973 0.0
Cd757 Cd 0.39809 0.70382 0.19016 0.0
Cd758 Cd 0.43043 0.71879 0.17262 0.0
O759 O 0.41119 0.72732 0.15284 0.0
O760 O 0.37537 0.69242 0.20151 0.0
O761 O 0.39687 0.6755 0.18725 0.0
C762 C 0.38107 0.67626 0.196 0.0
C763 C 0.46071 0.71084 0.16272 0.0
C764 C 0.3936 0.72807 0.15538 0.0
C765 C 0.42171 0.72999 0.21268 0.0
O766 O 0.43064 0.73324 0.19764 0.0
O767 O 0.40916 0.7174 0.21308 0.0
O768 O 0.45424 0.72759 0.16128 0.0
O769 O 0.4496 0.69809 0.1691 0.0
O770 O 0.28049 0.38459 0.17145 0.0
Cd771 Cd 0.29725 0.39767 0.19102 0.0
Cd772 Cd 0.2809 0.4284 0.17287 0.0
O773 O 0.27253 0.40849 0.15367 0.0
O774 O 0.30975 0.37562 0.20251 0.0
O775 O 0.32548 0.3973 0.18723 0.0
C776 C 0.3255 0.38158 0.19614 0.0
C777 C 0.28887 0.45853 0.16269 0.0
C778 C 0.27234 0.39101 0.15699 0.0
C779 C 0.27058 0.42069 0.21332 0.0
O780 O 0.26666 0.42885 0.19801 0.0
O781 O 0.2838 0.40881 0.21399 0.0
O782 O 0.27213 0.45204 0.1612 0.0
O783 O 0.30161 0.44745 0.16917 0.0
O784 O 0.82717 0.61395 0.72102 0.0
Cd785 Cd 0.80805 0.60142 0.70335 0.0
Cd786 Cd 0.82606 0.57008 0.71878 0.0
O787 O 0.84516 0.58982 0.72779 0.0
O788 O 0.79683 0.62387 0.6913 0.0
O789 O 0.81246 0.60268 0.67524 0.0
C790 C 0.80356 0.61841 0.67552 0.0
C791 C 0.83692 0.54018 0.71079 0.0
C792 C 0.84165 0.60723 0.72887 0.0
C793 C 0.78547 0.57752 0.72888 0.0
O794 O 0.80076 0.56929 0.73275 0.0
O795 O 0.78491 0.58973 0.71596 0.0
O796 O 0.8379 0.54653 0.72761 0.0
O797 O 0.83028 0.55113 0.69802 0.0
O798 O 0.38581 0.82808 0.72198 0.0
Cd799 Cd 0.39846 0.80896 0.70439 0.0
Cd800 Cd 0.42953 0.82733 0.71949 0.0
O801 O 0.40975 0.84653 0.72818 0.0
O802 O 0.37613 0.79756 0.69227 0.0
O803 O 0.39728 0.81331 0.67628 0.0
C804 C 0.38161 0.80431 0.67649 0.0
C805 C 0.45937 0.83796 0.71106 0.0
C806 C 0.39241 0.84278 0.72951 0.0
C807 C 0.42249 0.78685 0.73014 0.0
O808 O 0.43046 0.8023 0.73394 0.0
O809 O 0.4104 0.78601 0.71712 0.0
O810 O 0.45312 0.83938 0.72789 0.0
O811 O 0.44833 0.83107 0.69851 0.0
O812 O 0.16961 0.38503 0.72024 0.0
Cd813 Cd 0.1899 0.39687 0.70338 0.0
Cd814 Cd 0.17245 0.42901 0.71781 0.0
O815 O 0.15242 0.40996 0.72617 0.0
O816 O 0.20087 0.37421 0.69151 0.0
O817 O 0.18651 0.39606 0.67513 0.0
C818 C 0.19496 0.38008 0.67554 0.0
C819 C 0.16293 0.4593 0.70958 0.0
C820 C 0.15506 0.39242 0.72736 0.0
C821 C 0.21236 0.42039 0.72947 0.0
O822 O 0.19725 0.42921 0.73266 0.0
O823 O 0.21291 0.4079 0.71681 0.0
O824 O 0.16112 0.4529 0.72632 0.0
O825 O 0.16945 0.4481 0.69697 0.0
O826 O 0.61359 0.17177 0.71906 0.0
Cd827 Cd 0.60088 0.19113 0.70177 0.0
Cd828 Cd 0.56977 0.17314 0.71761 0.0
O829 O 0.5895 0.15388 0.72625 0.0
O830 O 0.62317 0.20246 0.68953 0.0
O831 O 0.60173 0.18708 0.67358 0.0
C832 C 0.61746 0.19597 0.67374 0.0
C833 C 0.53967 0.16279 0.70967 0.0
C834 C 0.60694 0.15731 0.727 0.0
C835 C 0.57754 0.21361 0.72793 0.0
O836 O 0.56928 0.19833 0.73181 0.0
O837 O 0.58955 0.21421 0.71483 0.0
O838 O 0.54612 0.1615 0.72644 0.0
O839 O 0.55073 0.16924 0.6969 0.0
O840 O 0.82798 0.38608 0.27801 0.0
Cd841 Cd 0.80848 0.39847 0.29538 0.0
Cd842 Cd 0.82684 0.43004 0.27992 0.0
O843 O 0.84596 0.41022 0.27116 0.0
O844 O 0.7967 0.37588 0.30664 0.0
O845 O 0.81198 0.39661 0.3236 0.0
C846 C 0.80279 0.38106 0.32276 0.0
C847 C 0.83745 0.46006 0.28787 0.0
C848 C 0.84249 0.3928 0.27021 0.0
C849 C 0.78628 0.42264 0.26958 0.0
O850 O 0.80162 0.43084 0.2658 0.0
O851 O 0.78562 0.4104 0.28246 0.0
O852 O 0.83864 0.45361 0.27109 0.0
O853 O 0.83095 0.44903 0.30065 0.0
O854 O 0.6139 0.82877 0.27995 0.0
Cd855 Cd 0.60115 0.8092 0.29698 0.0
Cd856 Cd 0.57005 0.82689 0.28005 0.0
O857 O 0.58984 0.8461 0.27146 0.0
O858 O 0.62363 0.7978 0.30879 0.0
O859 O 0.60233 0.81283 0.32524 0.0
C860 C 0.6181 0.804 0.32475 0.0
C861 C 0.53986 0.83718 0.28772 0.0
C862 C 0.60736 0.84298 0.27148 0.0
C863 C 0.57828 0.78632 0.27053 0.0
O864 O 0.56994 0.80147 0.26628 0.0
O865 O 0.59002 0.78605 0.28387 0.0
O866 O 0.54637 0.83827 0.27095 0.0
O867 O 0.5509 0.83096 0.30062 0.0
O868 O 0.17074 0.6142 0.27977 0.0
Cd869 Cd 0.1903 0.60134 0.29674 0.0
Cd870 Cd 0.17256 0.5705 0.28005 0.0
O871 O 0.15318 0.5902 0.27165 0.0
O872 O 0.20169 0.62369 0.3088 0.0
O873 O 0.18654 0.60225 0.32498 0.0
C874 C 0.19537 0.61802 0.32467 0.0
C875 C 0.16257 0.54032 0.28806 0.0
C876 C 0.15639 0.60769 0.27152 0.0
C877 C 0.213 0.57856 0.27014 0.0
O878 O 0.19777 0.57036 0.26592 0.0
O879 O 0.21342 0.5902 0.28357 0.0
O880 O 0.16114 0.54673 0.27128 0.0
O881 O 0.16893 0.55148 0.3008 0.0
O882 O 0.38574 0.17001 0.28002 0.0
Cd883 Cd 0.39775 0.1903 0.29678 0.0
Cd884 Cd 0.42997 0.17282 0.28168 0.0
O885 O 0.41064 0.15306 0.27334 0.0
O886 O 0.37512 0.2014 0.30861 0.0
O887 O 0.39688 0.187 0.32505 0.0
C888 C 0.38094 0.19551 0.3246 0.0
C889 C 0.46016 0.16247 0.28931 0.0
C890 C 0.39306 0.1556 0.27257 0.0
C891 C 0.42123 0.21292 0.27058 0.0
O892 O 0.43014 0.19788 0.26723 0.0
O893 O 0.4088 0.2133 0.2833 0.0
O894 O 0.45356 0.16125 0.27261 0.0
O895 O 0.44936 0.16916 0.30217 0.0
O896 O 0.72051 0.82967 0.61473 0.0
Cd897 Cd 0.70388 0.80918 0.6029 0.0
Cd898 Cd 0.71838 0.82678 0.57067 0.0
O899 O 0.72675 0.84675 0.58979 0.0
O900 O 0.69218 0.79808 0.6256 0.0
O901 O 0.67558 0.81218 0.60376 0.0
C902 C 0.67613 0.80374 0.61973 0.0
C903 C 0.71022 0.83647 0.54041 0.0
C904 C 0.72774 0.84417 0.60735 0.0
C905 C 0.73011 0.78686 0.5793 0.0
O906 O 0.73319 0.80195 0.57041 0.0
O907 O 0.71755 0.7863 0.59188 0.0
O908 O 0.72696 0.83819 0.54683 0.0
O909 O 0.69758 0.82993 0.55156 0.0
O910 O 0.72066 0.1713 0.38512 0.0
Cd911 Cd 0.70358 0.19084 0.39782 0.0
Cd912 Cd 0.71963 0.17255 0.42904 0.0
O913 O 0.72826 0.15348 0.40914 0.0
O914 O 0.69212 0.20275 0.37541 0.0
O915 O 0.67531 0.1875 0.39628 0.0
C916 C 0.67604 0.19674 0.38076 0.0
C917 C 0.71164 0.16202 0.45907 0.0
C918 C 0.72876 0.15688 0.39168 0.0
C919 C 0.72986 0.21305 0.42151 0.0
O920 O 0.73377 0.19775 0.4297 0.0
O921 O 0.71678 0.21368 0.40947 0.0
O922 O 0.72842 0.16076 0.45263 0.0
O923 O 0.69889 0.16852 0.44802 0.0
O924 O 0.83031 0.71983 0.38508 0.0
Cd925 Cd 0.81006 0.70306 0.39712 0.0
Cd926 Cd 0.82762 0.71825 0.42942 0.0
O927 O 0.84719 0.72679 0.40997 0.0
O928 O 0.79895 0.6912 0.37451 0.0
O929 O 0.81336 0.67478 0.39629 0.0
C930 C 0.80482 0.67521 0.38036 0.0
C931 C 0.83819 0.71097 0.45962 0.0
C932 C 0.84464 0.72746 0.39238 0.0
C933 C 0.78741 0.7291 0.42075 0.0
O934 O 0.80242 0.73241 0.4297 0.0
O935 O 0.78707 0.71655 0.40814 0.0
O936 O 0.83918 0.72763 0.45289 0.0
O937 O 0.83164 0.69795 0.44892 0.0
O938 O 0.28099 0.82932 0.3855 0.0
Cd939 Cd 0.29736 0.80931 0.39844 0.0
Cd940 Cd 0.28065 0.82731 0.42956 0.0
O941 O 0.27251 0.84657 0.40963 0.0
O942 O 0.30916 0.79737 0.37621 0.0
O943 O 0.32572 0.81218 0.3976 0.0
C944 C 0.32521 0.80305 0.38201 0.0
C945 C 0.2883 0.83798 0.45963 0.0
C946 C 0.27268 0.84361 0.39209 0.0
C947 C 0.27023 0.78702 0.42131 0.0
O948 O 0.26636 0.80219 0.42978 0.0
O949 O 0.28351 0.78654 0.40949 0.0
O950 O 0.27158 0.83918 0.45302 0.0
O951 O 0.30114 0.83119 0.44886 0.0
O952 O 0.17009 0.27932 0.38604 0.0
Cd953 Cd 0.18956 0.29629 0.39904 0.0
Cd954 Cd 0.1714 0.27949 0.42983 0.0
O955 O 0.15235 0.27102 0.40984 0.0
O956 O 0.20126 0.30807 0.37669 0.0
O957 O 0.18596 0.32454 0.39778 0.0
C958 C 0.19496 0.32403 0.38211 0.0
C959 C 0.16095 0.28742 0.45989 0.0
C960 C 0.15571 0.27099 0.39237 0.0
C961 C 0.212 0.26977 0.42226 0.0
O962 O 0.1967 0.26552 0.43029 0.0
O963 O 0.21252 0.28315 0.41056 0.0
O964 O 0.15969 0.27064 0.45344 0.0
O965 O 0.16739 0.3002 0.44883 0.0
O966 O 0.27943 0.17146 0.6136 0.0
Cd967 Cd 0.29632 0.19077 0.60027 0.0
Cd968 Cd 0.2802 0.1721 0.56969 0.0
O969 O 0.27193 0.1532 0.58992 0.0
O970 O 0.30873 0.20261 0.62219 0.0
O971 O 0.32452 0.18688 0.60087 0.0
C972 C 0.32448 0.19606 0.61645 0.0
C973 C 0.28807 0.16112 0.53981 0.0
C974 C 0.2715 0.15683 0.60734 0.0
C975 C 0.26978 0.21264 0.57669 0.0
O976 O 0.26586 0.19718 0.56881 0.0
O977 O 0.283 0.21352 0.58857 0.0
O978 O 0.27134 0.15983 0.54637 0.0
O979 O 0.30082 0.16808 0.55057 0.0
O980 O 0.82939 0.27913 0.61365 0.0
Cd981 Cd 0.80883 0.29566 0.6018 0.0
Cd982 Cd 0.82663 0.28108 0.56925 0.0
O983 O 0.8463 0.27265 0.58865 0.0
O984 O 0.7973 0.3069 0.62453 0.0
O985 O 0.81154 0.32399 0.60314 0.0
C986 C 0.80276 0.32311 0.61891 0.0
C987 C 0.83722 0.28895 0.53921 0.0
C988 C 0.84382 0.27181 0.60624 0.0
C989 C 0.78657 0.26961 0.5777 0.0
O990 O 0.80162 0.26657 0.56872 0.0
O991 O 0.7861 0.28198 0.59047 0.0
O992 O 0.83842 0.2722 0.5457 0.0
O993 O 0.83041 0.30171 0.55006 0.0
O994 O 0.17097 0.72224 0.61476 0.0
Cd995 Cd 0.19094 0.70513 0.60272 0.0
Cd996 Cd 0.17338 0.71987 0.57065 0.0
O997 O 0.15382 0.72877 0.58995 0.0
O998 O 0.20197 0.69321 0.62531 0.0
O999 O 0.18726 0.67692 0.60362 0.0
C1000 C 0.19587 0.67728 0.61952 0.0
C1001 C 0.16317 0.71166 0.54057 0.0
C1002 C 0.15656 0.72976 0.60749 0.0
C1003 C 0.21366 0.73065 0.57875 0.0
O1004 O 0.19855 0.73405 0.57001 0.0
O1005 O 0.21404 0.71816 0.59141 0.0
O1006 O 0.1619 0.72849 0.54686 0.0
O1007 O 0.16954 0.69898 0.55177 0.0
O1008 O 0.38633 0.27998 0.17064 0.0
Cd1009 Cd 0.39943 0.29673 0.19022 0.0
Cd1010 Cd 0.43023 0.27971 0.17241 0.0
O1011 O 0.41029 0.27139 0.15323 0.0
O1012 O 0.37723 0.30888 0.20184 0.0
O1013 O 0.39868 0.32502 0.18668 0.0
C1014 C 0.38299 0.32476 0.19563 0.0
C1015 C 0.46024 0.28746 0.1617 0.0
C1016 C 0.39278 0.27154 0.15637 0.0
C1017 C 0.42212 0.26989 0.21288 0.0
O1018 O 0.43043 0.26569 0.1977 0.0
O1019 O 0.41047 0.28332 0.21324 0.0
O1020 O 0.45374 0.27069 0.16063 0.0
O1021 O 0.44938 0.30029 0.16839 0.0
O1022 O 0.71994 0.386 0.17085 0.0
Cd1023 Cd 0.7029 0.39913 0.19017 0.0
Cd1024 Cd 0.71921 0.43005 0.1717 0.0
O1025 O 0.7278 0.40983 0.15291 0.0
O1026 O 0.69068 0.37704 0.20194 0.0
O1027 O 0.67468 0.39827 0.18632 0.0
C1028 C 0.67486 0.38268 0.19546 0.0
C1029 C 0.71166 0.45993 0.1605 0.0
C1030 C 0.72812 0.39239 0.15641 0.0
C1031 C 0.72916 0.42286 0.21236 0.0
O1032 O 0.73314 0.43093 0.19701 0.0
O1033 O 0.71608 0.41082 0.21302 0.0
O1034 O 0.72838 0.45332 0.15956 0.0
O1035 O 0.69874 0.44923 0.16725 0.0
O1036 O 0.61488 0.71948 0.17165 0.0
Cd1037 Cd 0.60199 0.70233 0.19104 0.0
Cd1038 Cd 0.57108 0.71858 0.1731 0.0
O1039 O 0.59087 0.72716 0.1539 0.0
O1040 O 0.62419 0.69 0.20244 0.0
O1041 O 0.60272 0.67414 0.187 0.0
C1042 C 0.61843 0.67423 0.19594 0.0
C1043 C 0.54094 0.7107 0.16283 0.0
C1044 C 0.60834 0.7276 0.15724 0.0
C1045 C 0.57885 0.72868 0.21359 0.0
O1046 O 0.57067 0.73271 0.1983 0.0
O1047 O 0.59066 0.7154 0.21413 0.0
O1048 O 0.54744 0.72746 0.1615 0.0
O1049 O 0.55199 0.69791 0.16924 0.0
O1050 O 0.27991 0.61338 0.16985 0.0
Cd1051 Cd 0.29678 0.60165 0.19021 0.0
Cd1052 Cd 0.28142 0.56916 0.17307 0.0
O1053 O 0.27279 0.58832 0.15327 0.0
O1054 O 0.30801 0.62452 0.20145 0.0
O1055 O 0.3251 0.60312 0.18727 0.0
C1056 C 0.32421 0.61894 0.19597 0.0
C1057 C 0.28906 0.5388 0.16316 0.0
C1058 C 0.27216 0.60594 0.15566 0.0
C1059 C 0.27065 0.57832 0.21315 0.0
O1060 O 0.26719 0.56925 0.19824 0.0
O1061 O 0.28338 0.59074 0.21329 0.0
O1062 O 0.27233 0.54535 0.16193 0.0
O1063 O 0.30195 0.54984 0.16939 0.0
O1064 O 0.38571 0.72076 0.82909 0.0
Cd1065 Cd 0.39893 0.70376 0.80981 0.0
Cd1066 Cd 0.42958 0.72001 0.82832 0.0
O1067 O 0.40943 0.72862 0.84715 0.0
O1068 O 0.37682 0.69167 0.79797 0.0
O1069 O 0.39794 0.67554 0.81362 0.0
C1070 C 0.38235 0.67581 0.80446 0.0
C1071 C 0.4593 0.71179 0.83941 0.0
C1072 C 0.39201 0.72892 0.84359 0.0
C1073 C 0.42265 0.73006 0.7877 0.0
O1074 O 0.4306 0.7341 0.8031 0.0
O1075 O 0.4107 0.71691 0.78699 0.0
O1076 O 0.453 0.72863 0.84055 0.0
O1077 O 0.44837 0.69914 0.83251 0.0
O1078 O 0.27867 0.38545 0.83033 0.0
Cd1079 Cd 0.29533 0.39735 0.80991 0.0
Cd1080 Cd 0.28047 0.42945 0.82713 0.0
O1081 O 0.27194 0.41044 0.84712 0.0
O1082 O 0.30695 0.37462 0.79886 0.0
O1083 O 0.32363 0.39641 0.81296 0.0
C1084 C 0.32302 0.38043 0.80452 0.0
C1085 C 0.28912 0.45956 0.83679 0.0
C1086 C 0.27119 0.39285 0.84469 0.0
C1087 C 0.26919 0.42069 0.78717 0.0
O1088 O 0.26587 0.42966 0.80217 0.0
O1089 O 0.28183 0.40818 0.78687 0.0
O1090 O 0.27225 0.45345 0.83842 0.0
O1091 O 0.30158 0.44818 0.8303 0.0
O1092 O 0.6138 0.27873 0.82893 0.0
Cd1093 Cd 0.6022 0.29576 0.80864 0.0
Cd1094 Cd 0.56974 0.28139 0.82577 0.0
O1095 O 0.58867 0.27267 0.84577 0.0
O1096 O 0.62503 0.30752 0.79794 0.0
O1097 O 0.6032 0.32396 0.81227 0.0
C1098 C 0.61925 0.32348 0.80395 0.0
C1099 C 0.53957 0.28966 0.83558 0.0
C1100 C 0.60624 0.27151 0.84334 0.0
C1101 C 0.57839 0.27029 0.78568 0.0
O1102 O 0.5694 0.26702 0.80068 0.0
O1103 O 0.59115 0.28268 0.78543 0.0
O1104 O 0.54584 0.27284 0.83701 0.0
O1105 O 0.55081 0.30231 0.82921 0.0
O1106 O 0.71976 0.61446 0.82846 0.0
Cd1107 Cd 0.70275 0.60149 0.809 0.0
Cd1108 Cd 0.71898 0.57036 0.82709 0.0
O1109 O 0.72774 0.59038 0.84599 0.0
O1110 O 0.6903 0.62359 0.79754 0.0
O1111 O 0.67456 0.60202 0.81297 0.0
C1112 C 0.67456 0.61771 0.80399 0.0
C1113 C 0.71152 0.54044 0.83822 0.0
C1114 C 0.728 0.60787 0.84279 0.0
C1115 C 0.72876 0.5778 0.78644 0.0
O1116 O 0.73271 0.56952 0.80168 0.0
O1117 O 0.71585 0.59004 0.78599 0.0
O1118 O 0.72825 0.54704 0.83902 0.0
O1119 O 0.69853 0.55117 0.83164 0.0
O1120 O 0.16981 0.38545 0.27938 0.0
Cd1121 Cd 0.19016 0.39724 0.29621 0.0
Cd1122 Cd 0.17299 0.42969 0.28118 0.0
O1123 O 0.15318 0.41053 0.27253 0.0
O1124 O 0.20094 0.37456 0.30823 0.0
O1125 O 0.18674 0.39661 0.32447 0.0
C1126 C 0.19509 0.38058 0.32416 0.0
C1127 C 0.16302 0.46006 0.28866 0.0
C1128 C 0.15554 0.39292 0.2718 0.0
C1129 C 0.21314 0.42065 0.27033 0.0
O1130 O 0.19821 0.42974 0.26704 0.0
O1131 O 0.21334 0.408 0.28283 0.0
O1132 O 0.16185 0.45343 0.27196 0.0
O1133 O 0.1692 0.44908 0.30162 0.0
O1134 O 0.61449 0.17025 0.27884 0.0
Cd1135 Cd 0.60259 0.19064 0.29556 0.0
Cd1136 Cd 0.57012 0.17308 0.28088 0.0
O1137 O 0.58945 0.15344 0.27224 0.0
O1138 O 0.62521 0.20206 0.30709 0.0
O1139 O 0.60368 0.18764 0.32386 0.0
C1140 C 0.61944 0.19648 0.3232 0.0
C1141 C 0.54008 0.16258 0.28886 0.0
C1142 C 0.60705 0.1559 0.27139 0.0
C1143 C 0.57857 0.2132 0.26971 0.0
O1144 O 0.56958 0.19818 0.26654 0.0
O1145 O 0.59134 0.21354 0.28209 0.0
O1146 O 0.54648 0.16141 0.27207 0.0
O1147 O 0.55102 0.16927 0.3016 0.0
O1148 O 0.82884 0.614 0.27838 0.0
Cd1149 Cd 0.80941 0.60106 0.29541 0.0
Cd1150 Cd 0.82787 0.57022 0.27946 0.0
O1151 O 0.84698 0.59018 0.271 0.0
O1152 O 0.79777 0.62329 0.30749 0.0
O1153 O 0.81324 0.60205 0.32362 0.0
C1154 C 0.80424 0.61773 0.32334 0.0
C1155 C 0.8382 0.54022 0.28768 0.0
C1156 C 0.84343 0.6076 0.27046 0.0
C1157 C 0.78734 0.57741 0.26909 0.0
O1158 O 0.80276 0.56947 0.26516 0.0
O1159 O 0.78655 0.58937 0.28225 0.0
O1160 O 0.83972 0.54659 0.27089 0.0
O1161 O 0.83161 0.55134 0.30032 0.0
O1162 O 0.3854 0.82904 0.28075 0.0
Cd1163 Cd 0.39849 0.80911 0.29708 0.0
Cd1164 Cd 0.42934 0.82763 0.28048 0.0
O1165 O 0.40923 0.84679 0.27249 0.0
O1166 O 0.37639 0.79704 0.30898 0.0
O1167 O 0.39771 0.81207 0.32543 0.0
C1168 C 0.38217 0.80285 0.32499 0.0
C1169 C 0.45955 0.83787 0.28811 0.0
C1170 C 0.39174 0.84353 0.2726 0.0
C1171 C 0.42164 0.78724 0.26996 0.0
O1172 O 0.42975 0.80259 0.2661 0.0
O1173 O 0.4098 0.78646 0.28321 0.0
O1174 O 0.45284 0.83944 0.27146 0.0
O1175 O 0.44865 0.83131 0.30096 0.0
O1176 O 0.17031 0.61371 0.7207 0.0
Cd1177 Cd 0.19074 0.6022 0.70379 0.0
Cd1178 Cd 0.17366 0.56964 0.71827 0.0
O1179 O 0.15361 0.58853 0.72693 0.0
O1180 O 0.20156 0.62516 0.69237 0.0
O1181 O 0.18751 0.60346 0.67553 0.0
C1182 C 0.19581 0.6195 0.67627 0.0
C1183 C 0.16389 0.53944 0.70997 0.0
C1184 C 0.15596 0.60612 0.72799 0.0
C1185 C 0.21364 0.57861 0.72955 0.0
O1186 O 0.19871 0.56948 0.73274 0.0
O1187 O 0.21387 0.5913 0.71709 0.0
O1188 O 0.16246 0.54569 0.7268 0.0
O1189 O 0.17029 0.55069 0.69735 0.0
O1190 O 0.38546 0.17058 0.71835 0.0
Cd1191 Cd 0.3982 0.19037 0.70156 0.0
Cd1192 Cd 0.42934 0.17244 0.71767 0.0
O1193 O 0.40963 0.15311 0.72619 0.0
O1194 O 0.37591 0.20183 0.68945 0.0
O1195 O 0.3975 0.18687 0.67329 0.0
C1196 C 0.38174 0.1957 0.67355 0.0
C1197 C 0.45948 0.1623 0.70967 0.0
C1198 C 0.39212 0.15622 0.72647 0.0
C1199 C 0.42135 0.21279 0.72811 0.0
O1200 O 0.42974 0.19757 0.73191 0.0
O1201 O 0.4093 0.21334 0.71503 0.0
O1202 O 0.45304 0.16087 0.72643 0.0
O1203 O 0.44838 0.16873 0.69693 0.0
O1204 O 0.82904 0.3858 0.72017 0.0
Cd1205 Cd 0.80863 0.39753 0.70337 0.0
Cd1206 Cd 0.82626 0.43019 0.71801 0.0
O1207 O 0.84585 0.41084 0.72673 0.0
O1208 O 0.79721 0.37473 0.69218 0.0
O1209 O 0.81148 0.39606 0.67506 0.0
C1210 C 0.80271 0.38029 0.67597 0.0
C1211 C 0.83685 0.4603 0.71035 0.0
C1212 C 0.84336 0.39326 0.72765 0.0
C1213 C 0.78616 0.4216 0.72925 0.0
O1214 O 0.80116 0.43066 0.73233 0.0
O1215 O 0.78579 0.40881 0.7169 0.0
O1216 O 0.83791 0.45374 0.72708 0.0
O1217 O 0.83021 0.44949 0.69748 0.0
O1218 O 0.61332 0.82794 0.72119 0.0
Cd1219 Cd 0.6013 0.80786 0.70421 0.0
Cd1220 Cd 0.56907 0.82574 0.71869 0.0
O1221 O 0.58854 0.84526 0.72731 0.0
O1222 O 0.62397 0.79667 0.69253 0.0
O1223 O 0.60248 0.81137 0.67599 0.0
C1224 C 0.61838 0.80278 0.67654 0.0
C1225 C 0.53915 0.83662 0.71073 0.0
C1226 C 0.60606 0.84247 0.72844 0.0
C1227 C 0.57715 0.78552 0.72996 0.0
O1228 O 0.56836 0.80067 0.73311 0.0
O1229 O 0.58984 0.78497 0.7175 0.0
O1230 O 0.54557 0.83769 0.72752 0.0
O1231 O 0.54997 0.82975 0.69799 0.0
O1232 O 0.27872 0.17136 0.38611 0.0
Cd1233 Cd 0.29601 0.19066 0.39893 0.0
Cd1234 Cd 0.28002 0.17245 0.43001 0.0
O1235 O 0.2714 0.15338 0.41009 0.0
O1236 O 0.30799 0.20221 0.37658 0.0
O1237 O 0.32422 0.18676 0.39775 0.0
C1238 C 0.32386 0.19575 0.38208 0.0
C1239 C 0.28788 0.16152 0.45992 0.0
C1240 C 0.27072 0.15689 0.39266 0.0
C1241 C 0.26979 0.21299 0.42244 0.0
O1242 O 0.26586 0.19767 0.43061 0.0
O1243 O 0.283 0.21362 0.41055 0.0
O1244 O 0.27111 0.16047 0.45346 0.0
O1245 O 0.30067 0.16831 0.44909 0.0
O1246 O 0.2792 0.82931 0.61377 0.0
Cd1247 Cd 0.29691 0.80999 0.60159 0.0
Cd1248 Cd 0.28146 0.82796 0.56986 0.0
O1249 O 0.27274 0.84729 0.58951 0.0
O1250 O 0.30855 0.79874 0.62427 0.0
O1251 O 0.32508 0.81398 0.60318 0.0
C1252 C 0.32451 0.80512 0.61892 0.0
C1253 C 0.28881 0.83851 0.53965 0.0
C1254 C 0.27149 0.8438 0.60691 0.0
C1255 C 0.27124 0.78742 0.57785 0.0
O1256 O 0.2674 0.80268 0.56953 0.0
O1257 O 0.28423 0.78688 0.58999 0.0
O1258 O 0.27213 0.83953 0.54635 0.0
O1259 O 0.30181 0.83201 0.55041 0.0
O1260 O 0.1711 0.27786 0.61386 0.0
Cd1261 Cd 0.19017 0.29537 0.60099 0.0
Cd1262 Cd 0.17163 0.27958 0.57007 0.0
O1263 O 0.15271 0.27088 0.59009 0.0
O1264 O 0.20182 0.30733 0.62327 0.0
O1265 O 0.18604 0.32352 0.60231 0.0
C1266 C 0.19518 0.32318 0.6179 0.0
C1267 C 0.16097 0.28752 0.54008 0.0
C1268 C 0.1565 0.26998 0.60745 0.0
C1269 C 0.21231 0.26952 0.57703 0.0
O1270 O 0.19686 0.2655 0.56918 0.0
O1271 O 0.2131 0.28264 0.58901 0.0
O1272 O 0.15973 0.27075 0.54655 0.0
O1273 O 0.16748 0.3003 0.55109 0.0
O1274 O 0.71957 0.17046 0.61318 0.0
Cd1275 Cd 0.70274 0.18998 0.6001 0.0
Cd1276 Cd 0.71933 0.17173 0.56939 0.0
O1277 O 0.7277 0.15262 0.58938 0.0
O1278 O 0.69058 0.20165 0.62227 0.0
O1279 O 0.67448 0.18636 0.60088 0.0
C1280 C 0.67471 0.19536 0.61655 0.0
C1281 C 0.71144 0.16144 0.53928 0.0
C1282 C 0.72782 0.15603 0.60684 0.0
C1283 C 0.72946 0.21223 0.577 0.0
O1284 O 0.73351 0.19691 0.56892 0.0
O1285 O 0.71615 0.21289 0.58879 0.0
O1286 O 0.72817 0.16001 0.54579 0.0
O1287 O 0.69866 0.16793 0.55031 0.0
O1288 O 0.83126 0.72056 0.61402 0.0
Cd1289 Cd 0.81085 0.70397 0.602 0.0
Cd1290 Cd 0.82813 0.71946 0.56976 0.0
O1291 O 0.84786 0.72795 0.58907 0.0
O1292 O 0.79974 0.69223 0.62467 0.0
O1293 O 0.81386 0.67565 0.60282 0.0
C1294 C 0.80538 0.67618 0.61878 0.0
C1295 C 0.83842 0.71168 0.5396 0.0
C1296 C 0.84549 0.72835 0.60669 0.0
C1297 C 0.78801 0.73022 0.57871 0.0
O1298 O 0.80293 0.73365 0.56965 0.0
O1299 O 0.78783 0.71758 0.59122 0.0
O1300 O 0.83954 0.72845 0.54606 0.0
O1301 O 0.83187 0.69886 0.55053 0.0
O1302 O 0.72059 0.82965 0.38594 0.0
Cd1303 Cd 0.70397 0.80919 0.39783 0.0
Cd1304 Cd 0.71885 0.82629 0.43004 0.0
O1305 O 0.72738 0.84628 0.41103 0.0
O1306 O 0.69193 0.79833 0.3752 0.0
O1307 O 0.67569 0.81244 0.39732 0.0
C1308 C 0.676 0.8041 0.38129 0.0
C1309 C 0.71058 0.83602 0.46025 0.0
C1310 C 0.7281 0.84396 0.39341 0.0
C1311 C 0.73012 0.78634 0.42106 0.0
O1312 O 0.73336 0.80127 0.43016 0.0
O1313 O 0.71755 0.78608 0.40848 0.0
O1314 O 0.72739 0.83753 0.45397 0.0
O1315 O 0.69796 0.8296 0.44901 0.0
O1316 O 0.16946 0.7203 0.38601 0.0
Cd1317 Cd 0.1897 0.70355 0.39811 0.0
Cd1318 Cd 0.1726 0.71908 0.43008 0.0
O1319 O 0.15271 0.72747 0.41091 0.0
O1320 O 0.20069 0.69155 0.37553 0.0
O1321 O 0.18635 0.67527 0.39746 0.0
C1322 C 0.19484 0.6756 0.38151 0.0
C1323 C 0.16285 0.71123 0.4604 0.0
C1324 C 0.15516 0.728 0.39331 0.0
C1325 C 0.21266 0.72988 0.42106 0.0
O1326 O 0.19768 0.73347 0.42998 0.0
O1327 O 0.21287 0.71698 0.40883 0.0
O1328 O 0.16141 0.72797 0.4539 0.0
O1329 O 0.16918 0.69844 0.44931 0.0
O1330 O 0.82989 0.27939 0.38486 0.0
Cd1331 Cd 0.8095 0.29611 0.39674 0.0
Cd1332 Cd 0.82728 0.28135 0.42922 0.0
O1333 O 0.84685 0.27276 0.40979 0.0
O1334 O 0.79796 0.30732 0.37401 0.0
O1335 O 0.81233 0.32443 0.39529 0.0
C1336 C 0.80348 0.32353 0.37955 0.0
C1337 C 0.83778 0.28916 0.45931 0.0
C1338 C 0.84429 0.27192 0.39221 0.0
C1339 C 0.78714 0.27019 0.4209 0.0
O1340 O 0.80222 0.26698 0.42977 0.0
O1341 O 0.78671 0.28262 0.40818 0.0
O1342 O 0.83899 0.27242 0.45279 0.0
O1343 O 0.83108 0.30196 0.44843 0.0
C1344 C 0.11448 0.24272 0.37368 0.0
C1345 C 0.11991 0.23859 0.35518 0.0
C1346 C 0.12605 0.25328 0.38557 0.0
C1347 C 0.14339 0.26036 0.37936 0.0
H1348 H 0.10125 0.23765 0.37909 0.0
H1349 H 0.12131 0.25593 0.39974 0.0
S1350 S 0.16381 0.25401 0.33186 0.0
N1351 N 0.14366 0.24273 0.33108 0.0
N1352 N 0.16526 0.26261 0.35325 0.0
C1353 C 0.14887 0.25649 0.36079 0.0
C1354 C 0.1372 0.24559 0.34877 0.0
C1355 C 0.74473 0.12636 0.38456 0.0
C1356 C 0.73972 0.14459 0.37897 0.0
C1357 C 0.75539 0.11469 0.37286 0.0
C1358 C 0.7617 0.12088 0.35522 0.0
H1359 H 0.74026 0.12097 0.39802 0.0
H1360 H 0.75872 0.10071 0.37773 0.0
S1361 S 0.75284 0.1677 0.33421 0.0
N1362 N 0.74218 0.16841 0.35469 0.0
N1363 N 0.76224 0.14665 0.33285 0.0
C1364 C 0.75695 0.13919 0.34956 0.0
C1365 C 0.74594 0.15097 0.36137 0.0
C1366 C 0.85177 0.74372 0.36226 0.0
C1367 C 0.85764 0.73829 0.38028 0.0
C1368 C 0.86318 0.75466 0.35069 0.0
C1369 C 0.88109 0.7605 0.35649 0.0
H1370 H 0.83809 0.73972 0.35705 0.0
H1371 H 0.85792 0.75838 0.33695 0.0
S1372 S 0.9033 0.74991 0.40233 0.0
N1373 N 0.88265 0.73955 0.40341 0.0
N1374 N 0.90423 0.75996 0.38152 0.0
C1375 C 0.88725 0.75508 0.37444 0.0
C1376 C 0.87551 0.74405 0.38635 0.0
C1377 C 0.24475 0.8854 0.37415 0.0
C1378 C 0.24019 0.88014 0.35571 0.0
C1379 C 0.2554 0.87362 0.38576 0.0
C1380 C 0.26217 0.85625 0.37929 0.0
H1381 H 0.23988 0.89862 0.37977 0.0
H1382 H 0.25832 0.8782 0.39993 0.0
S1383 S 0.25477 0.83628 0.33176 0.0
N1384 N 0.24369 0.85655 0.33134 0.0
N1385 N 0.26375 0.83458 0.35298 0.0
C1386 C 0.25794 0.85098 0.36074 0.0
C1387 C 0.24694 0.86286 0.34902 0.0
C1388 C 0.14957 0.74627 0.63752 0.0
C1389 C 0.14362 0.74069 0.61958 0.0
C1390 C 0.13812 0.7571 0.64916 0.0
C1391 C 0.12009 0.76268 0.64349 0.0
H1392 H 0.16332 0.74241 0.64265 0.0
H1393 H 0.14343 0.76087 0.66286 0.0
S1394 S 0.09771 0.75181 0.5978 0.0
N1395 N 0.11846 0.74167 0.59659 0.0
N1396 N 0.09681 0.76189 0.61859 0.0
C1397 C 0.11389 0.75721 0.62557 0.0
C1398 C 0.12567 0.74628 0.6136 0.0
C1399 C 0.25483 0.12666 0.6144 0.0
C1400 C 0.26088 0.14448 0.62031 0.0
C1401 C 0.24436 0.11498 0.62626 0.0
C1402 C 0.23929 0.12074 0.64442 0.0
H1403 H 0.25825 0.12161 0.60051 0.0
H1404 H 0.24013 0.10136 0.62108 0.0
S1405 S 0.25162 0.16611 0.66678 0.0
N1406 N 0.26102 0.16728 0.64571 0.0
N1407 N 0.24131 0.14546 0.66783 0.0
C1408 C 0.2452 0.13855 0.65051 0.0
C1409 C 0.25601 0.15036 0.63852 0.0
C1410 C 0.8514 0.25541 0.63617 0.0
C1411 C 0.85711 0.26119 0.61821 0.0
C1412 C 0.86315 0.24474 0.64766 0.0
C1413 C 0.88125 0.23954 0.64181 0.0
H1414 H 0.83761 0.25894 0.64141 0.0
H1415 H 0.85801 0.24074 0.66136 0.0
S1416 S 0.90311 0.2512 0.59608 0.0
N1417 N 0.88214 0.26091 0.59507 0.0
N1418 N 0.90436 0.24101 0.6168 0.0
C1419 C 0.88723 0.24528 0.62392 0.0
C1420 C 0.87514 0.25604 0.61209 0.0
C1421 C 0.75552 0.86292 0.64854 0.0
C1422 C 0.76073 0.88106 0.64283 0.0
C1423 C 0.7446 0.85137 0.63711 0.0
C1424 C 0.73855 0.85731 0.61932 0.0
H1425 H 0.75971 0.85759 0.66212 0.0
H1426 H 0.74109 0.83753 0.64224 0.0
S1427 S 0.74841 0.90353 0.59756 0.0
N1428 N 0.75895 0.90448 0.61812 0.0
N1429 N 0.73858 0.88262 0.59647 0.0
C1430 C 0.7437 0.87539 0.61332 0.0
C1431 C 0.75471 0.88729 0.6251 0.0
C1432 C 0.35142 0.13666 0.24556 0.0
C1433 C 0.35725 0.11867 0.23997 0.0
C1434 C 0.36298 0.14823 0.25634 0.0
C1435 C 0.381 0.14246 0.26186 0.0
H1436 H 0.33768 0.14185 0.24177 0.0
H1437 H 0.35775 0.16195 0.26016 0.0
S1438 S 0.40312 0.09668 0.25084 0.0
N1439 N 0.38232 0.09558 0.24081 0.0
N1440 N 0.40417 0.11747 0.26093 0.0
C1441 C 0.3871 0.12453 0.25633 0.0
C1442 C 0.37521 0.11262 0.24546 0.0
C1443 C 0.88536 0.37387 0.24479 0.0
C1444 C 0.87896 0.35673 0.23737 0.0
C1445 C 0.87351 0.38549 0.25534 0.0
C1446 C 0.85488 0.38031 0.25914 0.0
H1447 H 0.89966 0.37838 0.24248 0.0
H1448 H 0.87908 0.39852 0.26076 0.0
S1449 S 0.83093 0.33722 0.24247 0.0
N1450 N 0.85244 0.33547 0.23422 0.0
N1451 N 0.83037 0.35716 0.25411 0.0
C1452 C 0.84824 0.3633 0.25169 0.0
C1453 C 0.86021 0.35158 0.24079 0.0
C1454 C 0.62578 0.88466 0.24371 0.0
C1455 C 0.64408 0.8791 0.2389 0.0
C1456 C 0.61402 0.87297 0.25429 0.0
C1457 C 0.62019 0.85538 0.26074 0.0
H1458 H 0.62042 0.89811 0.23918 0.0
H1459 H 0.60001 0.87784 0.25751 0.0
S1460 S 0.66708 0.83436 0.25229 0.0
N1461 N 0.66787 0.85483 0.2416 0.0
N1462 N 0.64595 0.83302 0.26152 0.0
C1463 C 0.63853 0.84972 0.25614 0.0
C1464 C 0.6504 0.86151 0.24521 0.0
C1465 C 0.11452 0.62616 0.24409 0.0
C1466 C 0.12013 0.6444 0.2391 0.0
C1467 C 0.12625 0.61441 0.25463 0.0
C1468 C 0.14394 0.62053 0.26085 0.0
H1469 H 0.101 0.62085 0.2397 0.0
H1470 H 0.12135 0.60045 0.25797 0.0
S1471 S 0.16511 0.66727 0.25193 0.0
N1472 N 0.14455 0.6681 0.24143 0.0
N1473 N 0.16644 0.64618 0.26127 0.0
C1474 C 0.14965 0.63882 0.25609 0.0
C1475 C 0.13781 0.65068 0.24521 0.0
C1476 C 0.37319 0.88564 0.75473 0.0
C1477 C 0.35623 0.87908 0.76241 0.0
C1478 C 0.38486 0.87384 0.74417 0.0
C1479 C 0.37991 0.85509 0.74066 0.0
H1480 H 0.3775 0.90004 0.75678 0.0
H1481 H 0.39773 0.87955 0.73852 0.0
S1482 S 0.33744 0.83067 0.75822 0.0
N1483 N 0.33546 0.85226 0.76621 0.0
N1484 N 0.35724 0.83028 0.74631 0.0
C1485 C 0.36311 0.84828 0.74842 0.0
C1486 C 0.35134 0.8602 0.75932 0.0
C1487 C 0.14796 0.36286 0.7446 0.0
C1488 C 0.14194 0.38052 0.73825 0.0
C1489 C 0.13639 0.35148 0.75557 0.0
C1490 C 0.11816 0.35712 0.76052 0.0
H1491 H 0.16188 0.35779 0.7413 0.0
H1492 H 0.14178 0.33801 0.76 0.0
S1493 S 0.09547 0.40204 0.74732 0.0
N1494 N 0.11647 0.40316 0.73769 0.0
N1495 N 0.09457 0.38163 0.75815 0.0
C1496 C 0.11186 0.37472 0.75419 0.0
C1497 C 0.12377 0.38644 0.74313 0.0
C1498 C 0.61425 0.12645 0.74221 0.0
C1499 C 0.61951 0.14499 0.73806 0.0
C1500 C 0.62589 0.1147 0.75286 0.0
C1501 C 0.64311 0.12113 0.76004 0.0
H1502 H 0.60112 0.12088 0.73703 0.0
H1503 H 0.62131 0.10048 0.75548 0.0
S1504 S 0.66301 0.16886 0.75377 0.0
N1505 N 0.64293 0.16939 0.74236 0.0
N1506 N 0.66465 0.1475 0.76242 0.0
C1507 C 0.64839 0.13977 0.75621 0.0
C1508 C 0.63665 0.15163 0.7452 0.0
C1509 C 0.88419 0.62582 0.75508 0.0
C1510 C 0.87787 0.64311 0.76221 0.0
C1511 C 0.87242 0.61428 0.74436 0.0
C1512 C 0.85395 0.61967 0.74011 0.0
H1513 H 0.89837 0.62114 0.75776 0.0
H1514 H 0.87794 0.60112 0.7392 0.0
S1515 S 0.83031 0.66332 0.75575 0.0
N1516 N 0.85163 0.66482 0.7645 0.0
N1517 N 0.82969 0.64326 0.74431 0.0
C1518 C 0.84739 0.63685 0.74724 0.0
C1519 C 0.85928 0.64851 0.75831 0.0
C1520 C 0.24446 0.37253 0.11541 0.0
C1521 C 0.23974 0.35421 0.12097 0.0
C1522 C 0.2551 0.3843 0.12704 0.0
C1523 C 0.26168 0.37812 0.14459 0.0
H1524 H 0.23978 0.37792 0.10202 0.0
H1525 H 0.2582 0.39833 0.12219 0.0
S1526 S 0.25362 0.3311 0.1655 0.0
N1527 N 0.24276 0.33034 0.14513 0.0
N1528 N 0.26278 0.35227 0.16684 0.0
C1529 C 0.25722 0.35973 0.15022 0.0
C1530 C 0.24624 0.34785 0.13847 0.0
C1531 C 0.24459 0.64757 0.86289 0.0
C1532 C 0.23925 0.64171 0.88094 0.0
C1533 C 0.25564 0.63625 0.85135 0.0
C1534 C 0.26169 0.61843 0.85721 0.0
H1535 H 0.2404 0.66118 0.85763 0.0
H1536 H 0.25925 0.64149 0.83757 0.0
S1537 S 0.25151 0.5963 0.90318 0.0
N1538 N 0.2409 0.61682 0.90419 0.0
N1539 N 0.26152 0.5954 0.88235 0.0
C1540 C 0.25641 0.61229 0.8752 0.0
C1541 C 0.24526 0.62395 0.88709 0.0
C1542 C 0.36318 0.25437 0.85072 0.0
C1543 C 0.38106 0.26039 0.85642 0.0
C1544 C 0.35183 0.24358 0.86248 0.0
C1545 C 0.35772 0.23849 0.88059 0.0
H1546 H 0.3579 0.25782 0.83692 0.0
H1547 H 0.33817 0.23941 0.85734 0.0
S1548 S 0.40331 0.25075 0.90244 0.0
N1549 N 0.4042 0.26043 0.88145 0.0
N1550 N 0.38272 0.2403 0.9037 0.0
C1551 C 0.37556 0.24445 0.88656 0.0
C1552 C 0.38725 0.25533 0.87446 0.0
C1553 C 0.74503 0.36345 0.85201 0.0
C1554 C 0.73962 0.38151 0.85777 0.0
C1555 C 0.7558 0.35187 0.86356 0.0
C1556 C 0.76149 0.35772 0.88151 0.0
H1557 H 0.74108 0.35819 0.83833 0.0
H1558 H 0.75947 0.33807 0.85841 0.0
S1559 S 0.75106 0.40374 0.90339 0.0
N1560 N 0.74086 0.40478 0.88265 0.0
N1561 N 0.76097 0.38287 0.90451 0.0
C1562 C 0.75617 0.37573 0.88752 0.0
C1563 C 0.74531 0.38765 0.87563 0.0
C1564 C 0.61311 0.74423 0.87407 0.0
C1565 C 0.61946 0.73752 0.85664 0.0
C1566 C 0.62484 0.75471 0.88588 0.0
C1567 C 0.64331 0.75913 0.8806 0.0
H1568 H 0.59894 0.74137 0.87869 0.0
H1569 H 0.61931 0.75952 0.89916 0.0
S1570 S 0.66699 0.74465 0.83657 0.0
N1571 N 0.6457 0.73586 0.83487 0.0
N1572 N 0.66757 0.75559 0.85691 0.0
C1573 C 0.64988 0.75246 0.86324 0.0
C1574 C 0.63803 0.74164 0.85132 0.0
C1575 C 0.75525 0.62629 0.11386 0.0
C1576 C 0.76097 0.64418 0.11986 0.0
C1577 C 0.74475 0.61447 0.12556 0.0
C1578 C 0.73931 0.62019 0.14363 0.0
H1579 H 0.75898 0.62128 0.10003 0.0
H1580 H 0.74079 0.60079 0.12033 0.0
S1581 S 0.75055 0.66582 0.16606 0.0
N1582 N 0.76032 0.66705 0.14516 0.0
N1583 N 0.74055 0.64501 0.167 0.0
C1584 C 0.74486 0.6381 0.14978 0.0
C1585 C 0.75571 0.65003 0.13796 0.0
C1586 C 0.35208 0.75548 0.1368 0.0
C1587 C 0.35784 0.76108 0.11879 0.0
C1588 C 0.36362 0.74457 0.14825 0.0
C1589 C 0.38156 0.73893 0.14234 0.0
H1590 H 0.33839 0.75934 0.14208 0.0
H1591 H 0.35845 0.74073 0.16199 0.0
S1592 S 0.40349 0.74999 0.09649 0.0
N1593 N 0.38275 0.76017 0.09555 0.0
N1594 N 0.4046 0.73981 0.11723 0.0
C1595 C 0.3876 0.7445 0.12441 0.0
C1596 C 0.37572 0.7555 0.11261 0.0
C1597 C 0.62629 0.24457 0.11509 0.0
C1598 C 0.64441 0.23934 0.12086 0.0
C1599 C 0.6146 0.2553 0.12669 0.0
C1600 C 0.62064 0.26147 0.14443 0.0
H1601 H 0.62102 0.24026 0.10153 0.0
H1602 H 0.60072 0.25883 0.12166 0.0
S1603 S 0.66705 0.25188 0.16603 0.0
N1604 N 0.66791 0.24135 0.14548 0.0
N1605 N 0.6461 0.26155 0.16715 0.0
C1606 C 0.63881 0.25645 0.15031 0.0
C1607 C 0.65062 0.24537 0.13858 0.0
C1608 C 0.86432 0.75501 0.64858 0.0
C1609 C 0.88227 0.76074 0.6428 0.0
C1610 C 0.8528 0.7443 0.63692 0.0
C1611 C 0.85858 0.73901 0.61883 0.0
H1612 H 0.85913 0.75862 0.66237 0.0
H1613 H 0.8391 0.74035 0.64212 0.0
S1614 S 0.90428 0.7505 0.59679 0.0
N1615 N 0.90535 0.7603 0.61772 0.0
N1616 N 0.88354 0.74033 0.59564 0.0
C1617 C 0.87648 0.74469 0.61277 0.0
C1618 C 0.88835 0.75549 0.62478 0.0
C1619 C 0.24683 0.88684 0.62636 0.0
C1620 C 0.23809 0.87998 0.64269 0.0
C1621 C 0.25751 0.87508 0.61477 0.0
C1622 C 0.26011 0.85606 0.61919 0.0
H1623 H 0.24556 0.90147 0.62253 0.0
H1624 H 0.26403 0.88101 0.60241 0.0
S1625 S 0.23932 0.8307 0.65957 0.0
N1626 N 0.2321 0.8525 0.66207 0.0
N1627 N 0.25229 0.83062 0.64045 0.0
C1628 C 0.25122 0.84892 0.63526 0.0
C1629 C 0.24017 0.8608 0.64694 0.0
C1630 C 0.11426 0.24396 0.62698 0.0
C1631 C 0.12084 0.23705 0.64426 0.0
C1632 C 0.12584 0.25456 0.61514 0.0
C1633 C 0.14438 0.25891 0.62022 0.0
H1634 H 0.10002 0.24119 0.62252 0.0
H1635 H 0.12013 0.25954 0.60199 0.0
S1636 S 0.16865 0.24386 0.66374 0.0
N1637 N 0.14737 0.23509 0.66563 0.0
N1638 N 0.16897 0.25505 0.64353 0.0
C1639 C 0.15118 0.25201 0.6374 0.0
C1640 C 0.13948 0.24107 0.64936 0.0
C1641 C 0.75543 0.11449 0.6258 0.0
C1642 C 0.76052 0.12041 0.64391 0.0
C1643 C 0.74478 0.12601 0.61393 0.0
C1644 C 0.73854 0.14378 0.61982 0.0
H1645 H 0.75983 0.10091 0.62066 0.0
H1646 H 0.74138 0.12089 0.60006 0.0
S1647 S 0.74768 0.16568 0.66618 0.0
N1648 N 0.75825 0.14517 0.66725 0.0
N1649 N 0.7382 0.16665 0.64513 0.0
C1650 C 0.74339 0.14977 0.63799 0.0
C1651 C 0.75439 0.13815 0.64997 0.0
C1652 C 0.86318 0.24484 0.35058 0.0
C1653 C 0.88112 0.23915 0.35645 0.0
C1654 C 0.85164 0.25567 0.36213 0.0
C1655 C 0.85739 0.26113 0.38017 0.0
H1656 H 0.85801 0.24112 0.33681 0.0
H1657 H 0.83795 0.25958 0.35686 0.0
S1658 S 0.90302 0.24978 0.40243 0.0
N1659 N 0.90413 0.23978 0.3816 0.0
N1660 N 0.88229 0.25998 0.40343 0.0
C1661 C 0.87526 0.25547 0.38632 0.0
C1662 C 0.88714 0.24455 0.37444 0.0
C1663 C 0.75494 0.86334 0.35188 0.0
C1664 C 0.76055 0.88127 0.35788 0.0
C1665 C 0.74421 0.85165 0.36336 0.0
C1666 C 0.73877 0.85722 0.38146 0.0
H1667 H 0.75866 0.85829 0.33806 0.0
H1668 H 0.74037 0.83798 0.358 0.0
S1669 S 0.74988 0.90276 0.40403 0.0
N1670 N 0.75982 0.90409 0.38319 0.0
N1671 N 0.73981 0.88196 0.4049 0.0
C1672 C 0.74432 0.87509 0.38774 0.0
C1673 C 0.75514 0.88713 0.37592 0.0
C1674 C 0.14791 0.74406 0.36311 0.0
C1675 C 0.14211 0.73874 0.38119 0.0
C1676 C 0.13646 0.75492 0.35151 0.0
C1677 C 0.11857 0.7608 0.35735 0.0
H1678 H 0.16157 0.74002 0.35788 0.0
H1679 H 0.14167 0.75855 0.33773 0.0
S1680 S 0.09654 0.7505 0.40334 0.0
N1681 N 0.11719 0.74015 0.40441 0.0
N1682 N 0.09553 0.76042 0.38247 0.0
C1683 C 0.11248 0.7555 0.37535 0.0
C1684 C 0.12427 0.74454 0.38729 0.0
C1685 C 0.24432 0.11459 0.37376 0.0
C1686 C 0.23767 0.1209 0.35628 0.0
C1687 C 0.25499 0.12627 0.38544 0.0
C1688 C 0.25969 0.14463 0.38 0.0
H1689 H 0.24125 0.10051 0.3785 0.0
H1690 H 0.25973 0.12078 0.39877 0.0
S1691 S 0.24557 0.1681 0.33573 0.0
N1692 N 0.23643 0.14694 0.33425 0.0
N1693 N 0.25653 0.16871 0.35606 0.0
C1694 C 0.2531 0.15113 0.36258 0.0
C1695 C 0.24208 0.13934 0.35078 0.0
C1696 C 0.64753 0.86115 0.75589 0.0
C1697 C 0.64192 0.87933 0.76105 0.0
C1698 C 0.63595 0.84957 0.74514 0.0
C1699 C 0.61811 0.85554 0.73924 0.0
H1700 H 0.66115 0.85582 0.75995 0.0
H1701 H 0.64102 0.83571 0.74162 0.0
S1702 S 0.59654 0.90182 0.74919 0.0
N1703 N 0.61723 0.90278 0.75949 0.0
N1704 N 0.59531 0.88088 0.73944 0.0
C1705 C 0.61221 0.87364 0.74439 0.0
C1706 C 0.62413 0.88556 0.75522 0.0
C1707 C 0.14845 0.63564 0.74512 0.0
C1708 C 0.14267 0.61788 0.73881 0.0
C1709 C 0.13666 0.64695 0.75591 0.0
C1710 C 0.11845 0.64115 0.76071 0.0
H1711 H 0.16233 0.64084 0.74189 0.0
H1712 H 0.14186 0.66052 0.7603 0.0
S1713 S 0.09637 0.5959 0.74765 0.0
N1714 N 0.11746 0.59494 0.73821 0.0
N1715 N 0.09515 0.61638 0.75833 0.0
C1716 C 0.11239 0.62344 0.75447 0.0
C1717 C 0.12453 0.61178 0.74359 0.0
C1718 C 0.3744 0.11443 0.75453 0.0
C1719 C 0.35611 0.11982 0.75952 0.0
C1720 C 0.3859 0.12618 0.74374 0.0
C1721 C 0.37947 0.14367 0.73727 0.0
H1722 H 0.37997 0.10108 0.75912 0.0
H1723 H 0.39994 0.12146 0.74043 0.0
S1724 S 0.33238 0.16413 0.74599 0.0
N1725 N 0.33196 0.14375 0.75685 0.0
N1726 N 0.3534 0.16568 0.73654 0.0
C1727 C 0.36109 0.14913 0.74199 0.0
C1728 C 0.34948 0.13727 0.75313 0.0
C1729 C 0.86212 0.35208 0.75548 0.0
C1730 C 0.8801 0.35798 0.76102 0.0
C1731 C 0.85061 0.36346 0.74445 0.0
C1732 C 0.85643 0.38137 0.73862 0.0
H1733 H 0.85691 0.3384 0.75947 0.0
H1734 H 0.8369 0.35818 0.74067 0.0
S1735 S 0.90217 0.40364 0.74945 0.0
N1736 N 0.90321 0.38301 0.75985 0.0
N1737 N 0.88143 0.40454 0.73927 0.0
C1738 C 0.87434 0.38756 0.74413 0.0
C1739 C 0.88619 0.37584 0.75526 0.0
C1740 C 0.64835 0.13676 0.24399 0.0
C1741 C 0.64247 0.11872 0.23865 0.0
C1742 C 0.63692 0.14843 0.25481 0.0
C1743 C 0.61897 0.1427 0.26061 0.0
H1744 H 0.66206 0.14192 0.24 0.0
H1745 H 0.64219 0.16219 0.25846 0.0
S1746 S 0.59673 0.09682 0.25024 0.0
N1747 N 0.61742 0.09564 0.23997 0.0
N1748 N 0.59579 0.1177 0.26015 0.0
C1749 C 0.61281 0.12472 0.2553 0.0
C1750 C 0.62458 0.11272 0.24439 0.0
C1751 C 0.88547 0.62643 0.24352 0.0
C1752 C 0.87958 0.64444 0.23804 0.0
C1753 C 0.87376 0.61463 0.25403 0.0
C1754 C 0.8558 0.62047 0.25973 0.0
H1755 H 0.8992 0.62133 0.23957 0.0
H1756 H 0.8789 0.60086 0.25779 0.0
S1757 S 0.83376 0.66648 0.24927 0.0
N1758 N 0.85455 0.66758 0.23926 0.0
N1759 N 0.83271 0.64557 0.25904 0.0
C1760 C 0.84979 0.63851 0.25444 0.0
C1761 C 0.86161 0.65042 0.24358 0.0
C1762 C 0.37326 0.8849 0.24438 0.0
C1763 C 0.35466 0.87967 0.24044 0.0
C1764 C 0.38509 0.87326 0.25493 0.0
C1765 C 0.37872 0.85606 0.26221 0.0
H1766 H 0.37881 0.89799 0.23909 0.0
H1767 H 0.39936 0.87781 0.25736 0.0
S1768 S 0.33082 0.83634 0.25665 0.0
N1769 N 0.33024 0.85637 0.24515 0.0
N1770 N 0.35228 0.83465 0.26503 0.0
C1771 C 0.36001 0.85084 0.25864 0.0
C1772 C 0.34806 0.86258 0.24773 0.0
C1773 C 0.14801 0.36292 0.25548 0.0
C1774 C 0.14237 0.38099 0.26098 0.0
C1775 C 0.13639 0.35148 0.24463 0.0
C1776 C 0.11849 0.35747 0.23896 0.0
H1777 H 0.16166 0.35757 0.25938 0.0
H1778 H 0.14147 0.33768 0.24087 0.0
S1779 S 0.09686 0.40354 0.24972 0.0
N1780 N 0.1176 0.4044 0.25992 0.0
N1781 N 0.09563 0.38275 0.23967 0.0
C1782 C 0.11257 0.37548 0.24441 0.0
C1783 C 0.12453 0.38726 0.25536 0.0
C1784 C 0.7558 0.62581 0.88464 0.0
C1785 C 0.76064 0.64416 0.8793 0.0
C1786 C 0.74519 0.61421 0.87283 0.0
C1787 C 0.73876 0.62058 0.8553 0.0
H1788 H 0.76033 0.62028 0.89803 0.0
H1789 H 0.74196 0.60016 0.87755 0.0
S1790 S 0.74725 0.66772 0.83484 0.0
N1791 N 0.75796 0.66825 0.85531 0.0
N1792 N 0.73798 0.64661 0.83325 0.0
C1793 C 0.74338 0.63898 0.84985 0.0
C1794 C 0.75434 0.6507 0.86178 0.0
C1795 C 0.75563 0.37365 0.11471 0.0
C1796 C 0.7609 0.35557 0.12057 0.0
C1797 C 0.74498 0.38543 0.12631 0.0
C1798 C 0.73893 0.3795 0.14413 0.0
H1799 H 0.75984 0.37882 0.10108 0.0
H1800 H 0.7414 0.39926 0.1212 0.0
S1801 S 0.74874 0.33328 0.16602 0.0
N1802 N 0.75911 0.33226 0.1454 0.0
N1803 N 0.73906 0.35423 0.16705 0.0
C1804 C 0.74401 0.36139 0.15011 0.0
C1805 C 0.75501 0.34949 0.13839 0.0
C1806 C 0.62649 0.75546 0.11552 0.0
C1807 C 0.64462 0.76076 0.1212 0.0
C1808 C 0.6149 0.74467 0.12718 0.0
C1809 C 0.62105 0.73852 0.14488 0.0
H1810 H 0.62115 0.75975 0.10198 0.0
H1811 H 0.60102 0.74108 0.1222 0.0
S1812 S 0.6675 0.74832 0.16628 0.0
N1813 N 0.66823 0.75886 0.14573 0.0
N1814 N 0.6466 0.73856 0.16749 0.0
C1815 C 0.63922 0.74362 0.15068 0.0
C1816 C 0.65093 0.75476 0.13891 0.0
C1817 C 0.25544 0.63581 0.14858 0.0
C1818 C 0.26118 0.6179 0.14266 0.0
C1819 C 0.24439 0.64726 0.13716 0.0
C1820 C 0.23878 0.64145 0.11918 0.0
H1821 H 0.25929 0.64101 0.16231 0.0
H1822 H 0.24047 0.66094 0.14244 0.0
S1823 S 0.25012 0.59584 0.09688 0.0
N1824 N 0.26037 0.59483 0.11758 0.0
N1825 N 0.23978 0.61651 0.09596 0.0
C1826 C 0.24446 0.6236 0.11299 0.0
C1827 C 0.25559 0.6118 0.12476 0.0
C1828 C 0.37414 0.24407 0.1146 0.0
C1829 C 0.3559 0.23916 0.12026 0.0
C1830 C 0.38593 0.25463 0.12627 0.0
C1831 C 0.37987 0.26094 0.14395 0.0
H1832 H 0.37943 0.23961 0.1011 0.0
H1833 H 0.39991 0.2579 0.12134 0.0
S1834 S 0.33313 0.25225 0.16521 0.0
N1835 N 0.33224 0.24167 0.14469 0.0
N1836 N 0.35424 0.26154 0.16647 0.0
C1837 C 0.36156 0.25628 0.14969 0.0
C1838 C 0.34965 0.24537 0.13791 0.0
C1839 C 0.25489 0.36284 0.85211 0.0
C1840 C 0.2605 0.38083 0.85787 0.0
C1841 C 0.24417 0.35129 0.86373 0.0
C1842 C 0.23873 0.3571 0.88177 0.0
H1843 H 0.25861 0.35762 0.83835 0.0
H1844 H 0.24032 0.33756 0.85854 0.0
S1845 S 0.24986 0.4029 0.90376 0.0
N1846 N 0.25979 0.40397 0.8829 0.0
N1847 N 0.23978 0.38211 0.9049 0.0
C1848 C 0.24429 0.37503 0.88782 0.0
C1849 C 0.25511 0.38692 0.87585 0.0
C1850 C 0.64733 0.24414 0.86293 0.0
C1851 C 0.6414 0.23908 0.88103 0.0
C1852 C 0.63596 0.25482 0.85107 0.0
C1853 C 0.61802 0.26075 0.85668 0.0
H1854 H 0.66104 0.24005 0.85785 0.0
H1855 H 0.64129 0.25826 0.83729 0.0
S1856 S 0.59563 0.2511 0.90263 0.0
N1857 N 0.61628 0.24079 0.90402 0.0
N1858 N 0.59477 0.26071 0.88161 0.0
C1859 C 0.61179 0.2557 0.87471 0.0
C1860 C 0.6235 0.24494 0.8869 0.0
C1861 C 0.37314 0.75673 0.88505 0.0
C1862 C 0.35489 0.7615 0.87931 0.0
C1863 C 0.38502 0.74614 0.87349 0.0
C1864 C 0.37902 0.73965 0.85584 0.0
H1865 H 0.37837 0.76131 0.89853 0.0
H1866 H 0.39899 0.74297 0.87849 0.0
S1867 S 0.33226 0.7479 0.83444 0.0
N1868 N 0.33129 0.75866 0.85486 0.0
N1869 N 0.35343 0.73872 0.83329 0.0
C1870 C 0.36072 0.74419 0.85002 0.0
C1871 C 0.34872 0.75513 0.86169 0.0
C1872 C 0.08793 0.24221 0.25548 0.0
C1873 C 0.07483 0.24238 0.27021 0.0
C1874 C 0.08795 0.25621 0.24173 0.0
C1875 C 0.07484 0.27094 0.24213 0.0
H1876 H 0.09896 0.2318 0.25508 0.0
H1877 H 0.09897 0.25596 0.23132 0.0
S1878 S 0.03521 0.27568 0.27552 0.0
N1879 N 0.04669 0.25696 0.28278 0.0
N1880 N 0.04668 0.28325 0.25693 0.0
C1881 C 0.06067 0.27037 0.25585 0.0
C1882 C 0.06067 0.25611 0.26988 0.0
C1883 C 0.74191 0.06464 0.2718 0.0
C1884 C 0.75796 0.07597 0.27003 0.0
C1885 C 0.72794 0.06456 0.25805 0.0
C1886 C 0.72936 0.07582 0.24193 0.0
H1887 H 0.73961 0.05639 0.28432 0.0
H1888 H 0.71549 0.05627 0.26062 0.0
S1889 S 0.77013 0.10543 0.22889 0.0
N1890 N 0.77563 0.09684 0.24963 0.0
N1891 N 0.74935 0.09668 0.22379 0.0
C1892 C 0.74604 0.08604 0.23923 0.0
C1893 C 0.76032 0.08611 0.25326 0.0
C1894 C 0.91057 0.74417 0.24112 0.0
C1895 C 0.92417 0.7299 0.24108 0.0
C1896 C 0.91039 0.758 0.25504 0.0
C1897 C 0.92382 0.75813 0.26948 0.0
H1898 H 0.89929 0.7441 0.23097 0.0
H1899 H 0.899 0.76801 0.25501 0.0
S1900 S 0.96472 0.7262 0.27346 0.0
N1901 N 0.95307 0.71842 0.25506 0.0
N1902 N 0.95277 0.74442 0.2812 0.0
C1903 C 0.93846 0.74492 0.26866 0.0
C1904 C 0.93862 0.73081 0.25447 0.0
C1905 C 0.24112 0.91207 0.25623 0.0
C1906 C 0.24145 0.92533 0.27082 0.0
C1907 C 0.25495 0.91193 0.24231 0.0
C1908 C 0.26967 0.92505 0.24243 0.0
H1909 H 0.23075 0.90099 0.2561 0.0
H1910 H 0.25465 0.90076 0.23205 0.0
S1911 S 0.27463 0.96515 0.2752 0.0
N1912 N 0.25605 0.95371 0.28283 0.0
N1913 N 0.28204 0.95346 0.25668 0.0
C1914 C 0.2692 0.93941 0.25594 0.0
C1915 C 0.2551 0.93955 0.27013 0.0
C1916 C 0.06509 0.72768 0.74192 0.0
C1917 C 0.07659 0.72855 0.75791 0.0
C1918 C 0.06541 0.74184 0.72836 0.0
C1919 C 0.07725 0.75751 0.73018 0.0
H1920 H 0.05637 0.71554 0.73932 0.0
H1921 H 0.05692 0.73997 0.71593 0.0
S1922 S 0.10769 0.76818 0.77103 0.0
N1923 N 0.09836 0.74762 0.77598 0.0
N1924 N 0.09898 0.77422 0.75049 0.0
C1925 C 0.08772 0.75931 0.74682 0.0
C1926 C 0.08738 0.74485 0.76067 0.0
C1927 C 0.27304 0.06375 0.74144 0.0
C1928 C 0.27138 0.07472 0.75774 0.0
C1929 C 0.25915 0.06389 0.72761 0.0
C1930 C 0.24296 0.07499 0.72947 0.0
H1931 H 0.28561 0.05567 0.7388 0.0
H1932 H 0.26164 0.05591 0.71495 0.0
S1933 S 0.23012 0.10351 0.77107 0.0
N1934 N 0.25099 0.09497 0.77614 0.0
N1935 N 0.22487 0.09522 0.75015 0.0
C1936 C 0.24035 0.08477 0.74641 0.0
C1937 C 0.25454 0.08464 0.76054 0.0
C1938 C 0.93469 0.27307 0.7414 0.0
C1939 C 0.92314 0.27142 0.7573 0.0
C1940 C 0.93489 0.25926 0.72748 0.0
C1941 C 0.92356 0.24318 0.72884 0.0
H1942 H 0.94301 0.28555 0.73915 0.0
H1943 H 0.94336 0.26173 0.71514 0.0
S1944 S 0.89335 0.23045 0.76927 0.0
N1945 N 0.90196 0.25118 0.77479 0.0
N1946 N 0.90234 0.22523 0.74863 0.0
C1947 C 0.9131 0.2406 0.74538 0.0
C1948 C 0.91289 0.25471 0.7596 0.0
C1949 C 0.74344 0.90785 0.75763 0.0
C1950 C 0.72955 0.92182 0.75832 0.0
C1951 C 0.75742 0.90811 0.74385 0.0
C1952 C 0.75805 0.92234 0.73021 0.0
H1953 H 0.74297 0.89603 0.76712 0.0
H1954 H 0.76712 0.89646 0.7433 0.0
S1955 S 0.72727 0.96422 0.72825 0.0
N1956 N 0.71901 0.95178 0.7459 0.0
N1957 N 0.74524 0.95224 0.72001 0.0
C1958 C 0.74522 0.93724 0.73174 0.0
C1959 C 0.73099 0.93699 0.74579 0.0
C1960 C 0.24184 0.08926 0.2567 0.0
C1961 C 0.24171 0.07575 0.27106 0.0
C1962 C 0.25582 0.08933 0.24294 0.0
C1963 C 0.27024 0.07588 0.24295 0.0
H1964 H 0.23169 0.10055 0.25664 0.0
H1965 H 0.25584 0.10065 0.23284 0.0
S1966 S 0.27404 0.03521 0.2752 0.0
N1967 N 0.25562 0.04692 0.28281 0.0
N1968 N 0.28187 0.04702 0.25693 0.0
C1969 C 0.26934 0.06134 0.25627 0.0
C1970 C 0.2551 0.06129 0.27032 0.0
C1971 C 0.91139 0.257 0.24137 0.0
C1972 C 0.92463 0.2716 0.24168 0.0
C1973 C 0.91128 0.24308 0.2552 0.0
C1974 C 0.92443 0.24317 0.2699 0.0
H1975 H 0.90033 0.25682 0.23098 0.0
H1976 H 0.90016 0.23276 0.25486 0.0
S1977 S 0.96437 0.27616 0.27494 0.0
N1978 N 0.95291 0.28374 0.25635 0.0
N1979 N 0.95275 0.25758 0.28232 0.0
C1980 C 0.93872 0.25678 0.26947 0.0
C1981 C 0.93881 0.27098 0.25538 0.0
C1982 C 0.75734 0.91142 0.25645 0.0
C1983 C 0.75698 0.92451 0.2712 0.0
C1984 C 0.74356 0.91145 0.24248 0.0
C1985 C 0.72884 0.92458 0.24268 0.0
H1986 H 0.76775 0.90038 0.25618 0.0
H1987 H 0.74394 0.90044 0.23205 0.0
S1988 S 0.72359 0.96413 0.27606 0.0
N1989 N 0.7422 0.95265 0.28358 0.0
N1990 N 0.71631 0.95269 0.25734 0.0
C1991 C 0.72921 0.93871 0.25643 0.0
C1992 C 0.74326 0.93868 0.27067 0.0
C1993 C 0.08891 0.74398 0.24198 0.0
C1994 C 0.07539 0.72962 0.24204 0.0
C1995 C 0.08909 0.75782 0.25589 0.0
C1996 C 0.07576 0.75789 0.27042 0.0
H1997 H 0.10012 0.74398 0.23175 0.0
H1998 H 0.10042 0.76792 0.25576 0.0
S1999 S 0.03511 0.72568 0.27471 0.0
N2000 N 0.04668 0.71796 0.25624 0.0
N2001 N 0.04698 0.74399 0.28235 0.0
C2002 C 0.06121 0.74457 0.2697 0.0
C2003 C 0.06104 0.73045 0.25554 0.0
C2004 C 0.2427 0.91233 0.74312 0.0
C2005 C 0.24326 0.92533 0.72829 0.0
C2006 C 0.25645 0.91227 0.75711 0.0
C2007 C 0.27134 0.92519 0.75687 0.0
H2008 H 0.23214 0.90144 0.74344 0.0
H2009 H 0.2559 0.90133 0.76761 0.0
S2010 S 0.2772 0.96444 0.72321 0.0
N2011 N 0.25846 0.95316 0.71574 0.0
N2012 N 0.28429 0.95304 0.74203 0.0
C2013 C 0.27121 0.93923 0.74301 0.0
C2014 C 0.25718 0.9393 0.72874 0.0
C2015 C 0.06456 0.25735 0.72835 0.0
C2016 C 0.07615 0.24147 0.72993 0.0
C2017 C 0.06448 0.2713 0.74212 0.0
C2018 C 0.07598 0.27002 0.75809 0.0
H2019 H 0.0561 0.25955 0.71595 0.0
H2020 H 0.05597 0.28363 0.7397 0.0
S2021 S 0.10639 0.22967 0.77062 0.0
N2022 N 0.09757 0.22408 0.75 0.0
N2023 N 0.09741 0.25032 0.77588 0.0
C2024 C 0.08648 0.25349 0.76061 0.0
C2025 C 0.08656 0.23923 0.74655 0.0
C2026 C 0.72885 0.06511 0.74271 0.0
C2027 C 0.72949 0.07754 0.758 0.0
C2028 C 0.74286 0.06508 0.72901 0.0
C2029 C 0.75816 0.07749 0.72998 0.0
H2030 H 0.71698 0.05587 0.74074 0.0
H2031 H 0.74115 0.05583 0.71711 0.0
S2032 S 0.76818 0.11062 0.76885 0.0
N2033 N 0.74799 0.10093 0.77458 0.0
N2034 N 0.77435 0.10088 0.74882 0.0
C2035 C 0.75981 0.08891 0.746 0.0
C2036 C 0.74548 0.08894 0.76 0.0
C2037 C 0.9349 0.72696 0.74249 0.0
C2038 C 0.92324 0.72841 0.75834 0.0
C2039 C 0.93515 0.7409 0.72872 0.0
C2040 C 0.92374 0.75692 0.73014 0.0
H2041 H 0.94332 0.71455 0.7402 0.0
H2042 H 0.94373 0.73859 0.71641 0.0
S2043 S 0.89311 0.76908 0.77043 0.0
N2044 N 0.90179 0.74835 0.77583 0.0
N2045 N 0.90226 0.77456 0.74992 0.0
C2046 C 0.91314 0.75928 0.74663 0.0
C2047 C 0.91289 0.74505 0.76071 0.0
C2048 C 0.24196 0.25454 0.08879 0.0
C2049 C 0.24204 0.26926 0.07567 0.0
C2050 C 0.25591 0.24074 0.08867 0.0
C2051 C 0.27052 0.24111 0.07543 0.0
H2052 H 0.23167 0.25421 0.09995 0.0
H2053 H 0.25579 0.23037 0.09974 0.0
S2054 S 0.27492 0.27439 0.03567 0.0
N2055 N 0.25634 0.28171 0.04733 0.0
N2056 N 0.28256 0.2558 0.0471 0.0
C2057 C 0.26982 0.25478 0.06123 0.0
C2058 C 0.2556 0.26884 0.06135 0.0
C2059 C 0.25761 0.72743 0.93477 0.0
C2060 C 0.2416 0.72872 0.92333 0.0
C2061 C 0.27126 0.74149 0.93481 0.0
C2062 C 0.26952 0.75749 0.92341 0.0
H2063 H 0.26015 0.71503 0.94314 0.0
H2064 H 0.28371 0.73929 0.94321 0.0
S2065 S 0.22865 0.7693 0.89342 0.0
N2066 N 0.22359 0.74852 0.90218 0.0
N2067 N 0.24926 0.77496 0.90224 0.0
C2068 C 0.25286 0.75971 0.91307 0.0
C2069 C 0.23891 0.74534 0.91303 0.0
C2070 C 0.25828 0.27123 0.93515 0.0
C2071 C 0.24242 0.26986 0.9235 0.0
C2072 C 0.2722 0.25742 0.93508 0.0
C2073 C 0.27089 0.24161 0.92335 0.0
H2074 H 0.26049 0.2835 0.94379 0.0
H2075 H 0.2845 0.25969 0.94367 0.0
S2076 S 0.23061 0.22964 0.89265 0.0
N2077 N 0.22505 0.25015 0.90174 0.0
N2078 N 0.25121 0.2242 0.90161 0.0
C2079 C 0.2544 0.23929 0.91276 0.0
C2080 C 0.24018 0.2534 0.91284 0.0
C2081 C 0.72674 0.25896 0.93518 0.0
C2082 C 0.72822 0.24284 0.92391 0.0
C2083 C 0.74074 0.27268 0.93524 0.0
C2084 C 0.75686 0.27091 0.92402 0.0
H2085 H 0.71425 0.26151 0.94342 0.0
H2086 H 0.73841 0.28518 0.94351 0.0
S2087 S 0.76915 0.22984 0.89451 0.0
N2088 N 0.7483 0.22476 0.90309 0.0
N2089 N 0.77462 0.25055 0.9032 0.0
C2090 C 0.75924 0.25418 0.91382 0.0
C2091 C 0.74494 0.24016 0.91376 0.0
C2092 C 0.72665 0.74009 0.93634 0.0
C2093 C 0.72841 0.75654 0.92562 0.0
C2094 C 0.74062 0.72634 0.93628 0.0
C2095 C 0.75699 0.72843 0.92548 0.0
H2096 H 0.71396 0.73728 0.94417 0.0
H2097 H 0.73807 0.71357 0.94406 0.0
S2098 S 0.77007 0.77045 0.89769 0.0
N2099 N 0.74902 0.77529 0.90594 0.0
N2100 N 0.7753 0.74945 0.90581 0.0
C2101 C 0.75967 0.74551 0.91595 0.0
C2102 C 0.74539 0.75955 0.91601 0.0
C2103 C 0.74156 0.7281 0.06412 0.0
C2104 C 0.75778 0.72965 0.07523 0.0
C2105 C 0.72771 0.74196 0.06433 0.0
C2106 C 0.72943 0.75801 0.07566 0.0
H2107 H 0.73903 0.71564 0.05584 0.0
H2108 H 0.71513 0.73956 0.05619 0.0
S2109 S 0.77073 0.77052 0.10476 0.0
N2110 N 0.77593 0.74978 0.09595 0.0
N2111 N 0.74987 0.77584 0.09635 0.0
C2112 C 0.74628 0.76052 0.08564 0.0
C2113 C 0.76044 0.74635 0.08542 0.0
C2114 C 0.25825 0.72724 0.06566 0.0
C2115 C 0.24236 0.72859 0.07725 0.0
C2116 C 0.27206 0.74115 0.06564 0.0
C2117 C 0.2706 0.75705 0.07722 0.0
H2118 H 0.26057 0.71491 0.05713 0.0
H2119 H 0.2844 0.73891 0.0571 0.0
S2120 S 0.23015 0.76898 0.10772 0.0
N2121 N 0.22478 0.74835 0.0988 0.0
N2122 N 0.25074 0.77451 0.09877 0.0
C2123 C 0.25407 0.75933 0.08776 0.0
C2124 C 0.23997 0.74512 0.08778 0.0
C2125 C 0.72786 0.25813 0.06469 0.0
C2126 C 0.72953 0.24201 0.07591 0.0
C2127 C 0.74174 0.27198 0.06462 0.0
C2128 C 0.75791 0.27032 0.07579 0.0
H2129 H 0.71531 0.26062 0.05653 0.0
H2130 H 0.73925 0.2845 0.05643 0.0
S2131 S 0.77071 0.22923 0.10506 0.0
N2132 N 0.74987 0.22399 0.09654 0.0
N2133 N 0.77596 0.25002 0.09642 0.0
C2134 C 0.76051 0.25355 0.08586 0.0
C2135 C 0.74634 0.2394 0.08593 0.0
C2136 C 0.58754 0.7545 0.74255 0.0
C2137 C 0.57435 0.76916 0.74252 0.0
C2138 C 0.58743 0.74074 0.75653 0.0
C2139 C 0.57413 0.74107 0.77109 0.0
H2140 H 0.59872 0.75416 0.73229 0.0
H2141 H 0.59853 0.7304 0.75645 0.0
S2142 S 0.53423 0.77419 0.77529 0.0
N2143 N 0.5459 0.78152 0.75673 0.0
N2144 N 0.54572 0.75567 0.78301 0.0
C2145 C 0.55989 0.7547 0.77033 0.0
C2146 C 0.55999 0.76872 0.75605 0.0
C2147 C 0.24441 0.58972 0.74212 0.0
C2148 C 0.23013 0.57612 0.74199 0.0
C2149 C 0.25832 0.58974 0.75595 0.0
C2150 C 0.25853 0.57616 0.77024 0.0
H2151 H 0.24433 0.60108 0.73206 0.0
H2152 H 0.26836 0.60112 0.75596 0.0
S2153 S 0.22654 0.5353 0.77406 0.0
N2154 N 0.21869 0.54711 0.7558 0.0
N2155 N 0.24483 0.54714 0.7818 0.0
C2156 C 0.24528 0.56157 0.76937 0.0
C2157 C 0.23109 0.56155 0.75526 0.0
C2158 C 0.41015 0.24351 0.74069 0.0
C2159 C 0.42377 0.22925 0.74058 0.0
C2160 C 0.40999 0.25729 0.75465 0.0
C2161 C 0.42344 0.2574 0.76907 0.0
H2162 H 0.39887 0.24347 0.73055 0.0
H2163 H 0.3986 0.26732 0.75465 0.0
S2164 S 0.46434 0.22546 0.77292 0.0
N2165 N 0.45268 0.21774 0.75451 0.0
N2166 N 0.4524 0.24365 0.78072 0.0
C2167 C 0.43807 0.24419 0.76819 0.0
C2168 C 0.43822 0.23012 0.75397 0.0
C2169 C 0.74189 0.41059 0.75632 0.0
C2170 C 0.74188 0.42425 0.77055 0.0
C2171 C 0.75556 0.41057 0.74226 0.0
C2172 C 0.76979 0.42421 0.74182 0.0
H2173 H 0.7319 0.39917 0.75657 0.0
H2174 H 0.75552 0.39914 0.73228 0.0
S2175 S 0.77373 0.46528 0.77354 0.0
N2176 N 0.75564 0.4534 0.78167 0.0
N2177 N 0.78133 0.45337 0.75523 0.0
C2178 C 0.76898 0.43888 0.75499 0.0
C2179 C 0.75504 0.4389 0.76935 0.0
C2180 C 0.58899 0.24438 0.25752 0.0
C2181 C 0.5758 0.22971 0.25735 0.0
C2182 C 0.5888 0.25839 0.24378 0.0
C2183 C 0.57542 0.2583 0.22929 0.0
H2184 H 0.6002 0.24456 0.26773 0.0
H2185 H 0.5999 0.26873 0.24397 0.0
S2186 S 0.53555 0.22521 0.22468 0.0
N2187 N 0.54731 0.21757 0.24306 0.0
N2188 N 0.54698 0.24388 0.21724 0.0
C2189 C 0.5612 0.24465 0.22988 0.0
C2190 C 0.56138 0.23038 0.2439 0.0
C2191 C 0.75608 0.58761 0.25699 0.0
C2192 C 0.77088 0.57458 0.2567 0.0
C2193 C 0.74218 0.5875 0.24314 0.0
C2194 C 0.74251 0.57435 0.22844 0.0
H2195 H 0.75575 0.59869 0.26735 0.0
H2196 H 0.73173 0.5985 0.24342 0.0
S2197 S 0.77598 0.53483 0.22353 0.0
N2198 N 0.78339 0.54641 0.24212 0.0
N2199 N 0.75727 0.5462 0.2161 0.0
C2200 C 0.75628 0.56024 0.22893 0.0
C2201 C 0.77045 0.56036 0.24304 0.0
C2202 C 0.41093 0.74241 0.24365 0.0
C2203 C 0.42425 0.74252 0.2291 0.0
C2204 C 0.41091 0.75628 0.25753 0.0
C2205 C 0.42421 0.77084 0.25744 0.0
H2206 H 0.39977 0.73213 0.24382 0.0
H2207 H 0.39974 0.7561 0.2678 0.0
S2208 S 0.46431 0.77543 0.22463 0.0
N2209 N 0.45273 0.75691 0.21705 0.0
N2210 N 0.45268 0.78296 0.24313 0.0
C2211 C 0.43853 0.77024 0.24389 0.0
C2212 C 0.43856 0.75609 0.22975 0.0
C2213 C 0.25798 0.40969 0.24411 0.0
C2214 C 0.25812 0.42322 0.22977 0.0
C2215 C 0.24404 0.40967 0.25792 0.0
C2216 C 0.22967 0.42318 0.25795 0.0
H2217 H 0.26809 0.39837 0.24413 0.0
H2218 H 0.244 0.39834 0.26801 0.0
S2219 S 0.22591 0.46386 0.22571 0.0
N2220 N 0.24428 0.45209 0.21806 0.0
N2221 N 0.2181 0.45208 0.24401 0.0
C2222 C 0.23058 0.43772 0.24464 0.0
C2223 C 0.24478 0.43772 0.23055 0.0
C2224 C 0.74075 0.58834 0.75525 0.0
C2225 C 0.7409 0.57502 0.76979 0.0
C2226 C 0.7545 0.58825 0.74125 0.0
C2227 C 0.76895 0.57483 0.74123 0.0
H2228 H 0.7306 0.59962 0.75522 0.0
H2229 H 0.75437 0.59947 0.73104 0.0
S2230 S 0.77329 0.53451 0.77381 0.0
N2231 N 0.75499 0.54629 0.78159 0.0
N2232 N 0.78082 0.54613 0.75529 0.0
C2233 C 0.76827 0.56043 0.75469 0.0
C2234 C 0.75425 0.56052 0.76896 0.0
C2235 C 0.41241 0.75558 0.74233 0.0
C2236 C 0.42535 0.77046 0.74263 0.0
C2237 C 0.41245 0.74181 0.75631 0.0
C2238 C 0.42542 0.74235 0.77115 0.0
H2239 H 0.40145 0.7551 0.73186 0.0
H2240 H 0.40151 0.7313 0.756 0.0
S2241 S 0.46472 0.77607 0.77618 0.0
N2242 N 0.4533 0.78325 0.7574 0.0
N2243 N 0.45336 0.75737 0.78366 0.0
C2244 C 0.43948 0.75618 0.77068 0.0
C2245 C 0.43944 0.77023 0.75643 0.0
C2246 C 0.25686 0.40962 0.7563 0.0
C2247 C 0.25676 0.42312 0.77068 0.0
C2248 C 0.24311 0.40955 0.74231 0.0
C2249 C 0.22867 0.42298 0.74212 0.0
H2250 H 0.26705 0.39838 0.75633 0.0
H2251 H 0.24328 0.39826 0.73218 0.0
S2252 S 0.2242 0.46354 0.77442 0.0
N2253 N 0.24255 0.45187 0.78228 0.0
N2254 N 0.2167 0.45174 0.75599 0.0
C2255 C 0.2293 0.43747 0.7555 0.0
C2256 C 0.24332 0.43754 0.76976 0.0
C2257 C 0.58898 0.25801 0.7546 0.0
C2258 C 0.57562 0.25802 0.7691 0.0
C2259 C 0.58873 0.24431 0.74055 0.0
C2260 C 0.57512 0.23004 0.74044 0.0
H2261 H 0.60037 0.26803 0.75459 0.0
H2262 H 0.59997 0.24434 0.73035 0.0
S2263 S 0.53474 0.22605 0.77298 0.0
N2264 N 0.54672 0.2442 0.78083 0.0
N2265 N 0.54629 0.21845 0.75445 0.0
C2266 C 0.56074 0.23084 0.75391 0.0
C2267 C 0.56098 0.24482 0.76822 0.0
C2268 C 0.75507 0.41235 0.25744 0.0
C2269 C 0.76979 0.42548 0.25723 0.0
C2270 C 0.7412 0.41241 0.24356 0.0
C2271 C 0.74148 0.42559 0.22889 0.0
H2272 H 0.75478 0.40124 0.26777 0.0
H2273 H 0.73083 0.40133 0.24378 0.0
S2274 S 0.77467 0.46538 0.2242 0.0
N2275 N 0.78212 0.45379 0.24277 0.0
N2276 N 0.75606 0.45389 0.21668 0.0
C2277 C 0.75514 0.43981 0.22947 0.0
C2278 C 0.76928 0.43975 0.24362 0.0
C2279 C 0.5644 0.77085 0.24235 0.0
C2280 C 0.57596 0.76964 0.25828 0.0
C2281 C 0.56454 0.75691 0.22858 0.0
C2282 C 0.57625 0.74111 0.2301 0.0
H2283 H 0.55579 0.78311 0.23996 0.0
H2284 H 0.55603 0.75906 0.2162 0.0
S2285 S 0.6067 0.72951 0.27068 0.0
N2286 N 0.59758 0.75008 0.27599 0.0
N2287 N 0.59785 0.72386 0.25009 0.0
C2288 C 0.58671 0.73892 0.2467 0.0
C2289 C 0.58656 0.75317 0.26078 0.0
C2290 C 0.24229 0.56437 0.22822 0.0
C2291 C 0.25815 0.57601 0.22964 0.0
C2292 C 0.22834 0.56444 0.242 0.0
C2293 C 0.22962 0.57614 0.25782 0.0
H2294 H 0.24009 0.55575 0.21593 0.0
H2295 H 0.21604 0.55586 0.2397 0.0
S2296 S 0.2699 0.60681 0.26992 0.0
N2297 N 0.2755 0.59772 0.24942 0.0
N2298 N 0.24928 0.59785 0.27531 0.0
C2299 C 0.24613 0.5867 0.26021 0.0
C2300 C 0.26037 0.58664 0.24613 0.0
C2301 C 0.43538 0.22763 0.24211 0.0
C2302 C 0.42385 0.22933 0.25802 0.0
C2303 C 0.43562 0.24141 0.22817 0.0
C2304 C 0.42433 0.25753 0.2295 0.0
H2305 H 0.44368 0.21512 0.23988 0.0
H2306 H 0.44408 0.2389 0.21583 0.0
S2307 S 0.39416 0.27038 0.26993 0.0
N2308 N 0.40272 0.24964 0.27547 0.0
N2309 N 0.40317 0.27556 0.24927 0.0
C2310 C 0.4139 0.26016 0.24605 0.0
C2311 C 0.41365 0.24607 0.26029 0.0
C2312 C 0.75719 0.74249 0.59001 0.0
C2313 C 0.77144 0.74258 0.57637 0.0
C2314 C 0.74317 0.7562 0.59015 0.0
C2315 C 0.7428 0.77058 0.57667 0.0
H2316 H 0.75737 0.73235 0.60129 0.0
H2317 H 0.73315 0.75604 0.60155 0.0
S2318 S 0.77468 0.77497 0.53578 0.0
N2319 N 0.78271 0.7567 0.54745 0.0
N2320 N 0.75635 0.78246 0.54771 0.0
C2321 C 0.75604 0.76993 0.56205 0.0
C2322 C 0.77034 0.75595 0.5619 0.0
C2323 C 0.75603 0.25785 0.41049 0.0
C2324 C 0.77068 0.25778 0.42371 0.0
C2325 C 0.74212 0.24402 0.41067 0.0
C2326 C 0.74228 0.22954 0.42405 0.0
H2327 H 0.75582 0.26805 0.39926 0.0
H2328 H 0.7318 0.24414 0.39954 0.0
S2329 S 0.77527 0.22521 0.46403 0.0
N2330 N 0.78283 0.24362 0.45226 0.0
N2331 N 0.75669 0.21762 0.45255 0.0
C2332 C 0.75588 0.23024 0.43831 0.0
C2333 C 0.77006 0.24435 0.43815 0.0
C2334 C 0.75666 0.74179 0.40971 0.0
C2335 C 0.77093 0.74154 0.42332 0.0
C2336 C 0.74279 0.75567 0.40978 0.0
C2337 C 0.74261 0.76987 0.42346 0.0
H2338 H 0.75672 0.73181 0.39828 0.0
H2339 H 0.73276 0.75578 0.3984 0.0
S2340 S 0.77459 0.77332 0.46436 0.0
N2341 N 0.7824 0.75512 0.45243 0.0
N2342 N 0.75634 0.78119 0.45255 0.0
C2343 C 0.75586 0.76887 0.43805 0.0
C2344 C 0.77 0.75472 0.43798 0.0
C2345 C 0.22777 0.75826 0.43498 0.0
C2346 C 0.22919 0.74233 0.42344 0.0
C2347 C 0.24169 0.77206 0.43505 0.0
C2348 C 0.25768 0.77055 0.4236 0.0
H2349 H 0.21538 0.76061 0.44342 0.0
H2350 H 0.2394 0.78442 0.44354 0.0
S2351 S 0.26977 0.73002 0.39326 0.0
N2352 N 0.24908 0.72468 0.40207 0.0
N2353 N 0.27526 0.75061 0.40221 0.0
C2354 C 0.26002 0.75399 0.41312 0.0
C2355 C 0.24579 0.73989 0.41304 0.0
C2356 C 0.24109 0.22762 0.43616 0.0
C2357 C 0.25726 0.22943 0.42502 0.0
C2358 C 0.22709 0.24135 0.43609 0.0
C2359 C 0.22863 0.2575 0.42489 0.0
H2360 H 0.23869 0.21507 0.44433 0.0
H2361 H 0.21455 0.23874 0.44422 0.0
S2362 S 0.26977 0.27068 0.39585 0.0
N2363 N 0.27519 0.24992 0.40447 0.0
N2364 N 0.24887 0.27573 0.40434 0.0
C2365 C 0.24544 0.26027 0.41492 0.0
C2366 C 0.25974 0.24624 0.41499 0.0
C2367 C 0.2438 0.25775 0.58695 0.0
C2368 C 0.22882 0.25721 0.57412 0.0
C2369 C 0.25774 0.24394 0.58686 0.0
C2370 C 0.25729 0.22904 0.57396 0.0
H2371 H 0.24424 0.26828 0.59786 0.0
H2372 H 0.26833 0.24443 0.59772 0.0
S2373 S 0.22329 0.22338 0.53498 0.0
N2374 N 0.21599 0.24214 0.54635 0.0
N2375 N 0.24219 0.21621 0.5462 0.0
C2376 C 0.24333 0.22927 0.56001 0.0
C2377 C 0.22912 0.24334 0.5601 0.0
C2378 C 0.75555 0.25706 0.58816 0.0
C2379 C 0.77018 0.25708 0.57493 0.0
C2380 C 0.74168 0.24318 0.58797 0.0
C2381 C 0.74187 0.22873 0.57455 0.0
H2382 H 0.7553 0.26724 0.59941 0.0
H2383 H 0.73136 0.24324 0.59909 0.0
S2384 S 0.77488 0.22457 0.53456 0.0
N2385 N 0.78238 0.24299 0.54635 0.0
N2386 N 0.75633 0.2169 0.54604 0.0
C2387 C 0.75549 0.22949 0.5603 0.0
C2388 C 0.76962 0.24365 0.56047 0.0
C2389 C 0.25888 0.75653 0.58882 0.0
C2390 C 0.2588 0.77095 0.57536 0.0
C2391 C 0.24488 0.74279 0.58907 0.0
C2392 C 0.23022 0.7429 0.57587 0.0
H2393 H 0.2692 0.75641 0.59994 0.0
H2394 H 0.24502 0.73266 0.60036 0.0
S2395 S 0.22579 0.7753 0.53539 0.0
N2396 N 0.24443 0.78282 0.54681 0.0
N2397 N 0.21813 0.757 0.54726 0.0
C2398 C 0.23091 0.75625 0.56136 0.0
C2399 C 0.24518 0.77026 0.56111 0.0
C2400 C 0.0098 0.21953 0.35104 0.0
C2401 C 0.02003 0.20646 0.34044 0.0
C2402 C 0.99024 0.21962 0.35087 0.0
C2403 C 0.98007 0.20663 0.3401 0.0
H2404 H 0.01694 0.23054 0.35866 0.0
H2405 H 0.98306 0.23069 0.35838 0.0
S2406 S 0.0001 0.16755 0.31233 0.0
N2407 N 0.01855 0.17865 0.32079 0.0
N2408 N 0.98161 0.17882 0.32049 0.0
C2409 C 0.99004 0.19233 0.33091 0.0
C2410 C 0.01009 0.19224 0.33107 0.0
C2411 C 0.77894 0.99092 0.35136 0.0
C2412 C 0.79234 0.9806 0.34125 0.0
C2413 C 0.77901 0.01049 0.35123 0.0
C2414 C 0.79247 0.02059 0.341 0.0
H2415 H 0.76761 0.98385 0.35856 0.0
H2416 H 0.76772 0.01772 0.35834 0.0
S2417 S 0.83247 0.0003 0.31474 0.0
N2418 N 0.8209 0.98191 0.32271 0.0
N2419 N 0.82102 0.01886 0.32248 0.0
C2420 C 0.80703 0.01052 0.33232 0.0
C2421 C 0.80697 0.99046 0.33245 0.0
C2422 C 0.9899 0.78006 0.35057 0.0
C2423 C 0.97977 0.79333 0.34012 0.0
C2424 C 0.00947 0.78009 0.35072 0.0
C2425 C 0.01973 0.79337 0.34042 0.0
H2426 H 0.9827 0.76884 0.35782 0.0
H2427 H 0.01658 0.76888 0.35808 0.0
S2428 S -0.0001 0.83299 0.31325 0.0
N2429 N 0.98138 0.82159 0.32115 0.0
N2430 N 0.01833 0.82163 0.32143 0.0
C2431 C 0.00982 0.80783 0.33139 0.0
C2432 C 0.98977 0.80781 0.33124 0.0
C2433 C 0.2215 0.01014 0.35203 0.0
C2434 C 0.20773 0.02025 0.34223 0.0
C2435 C 0.2216 0.99056 0.35208 0.0
C2436 C 0.20794 0.98025 0.34234 0.0
H2437 H 0.23298 0.01736 0.35884 0.0
H2438 H 0.23316 0.98349 0.35892 0.0
S2439 S 0.167 -3e-05 0.3171 0.0
N2440 N 0.17864 0.01852 0.32456 0.0
N2441 N 0.17884 0.98158 0.32465 0.0
C2442 C 0.19304 0.99013 0.334 0.0
C2443 C 0.19294 0.01018 0.33395 0.0
C2444 C 0.0106 0.80607 0.67054 0.0
C2445 C 0.02087 0.79311 0.65982 0.0
C2446 C 0.9909 0.8058 0.67055 0.0
C2447 C 0.98098 0.79256 0.65984 0.0
H2448 H 0.01774 0.81545 0.68009 0.0
H2449 H 0.98352 0.815 0.6801 0.0
S2450 S 0.00137 0.75874 0.62608 0.0
N2451 N 0.01967 0.76901 0.63579 0.0
N2452 N 0.9828 0.7685 0.63582 0.0
C2453 C 0.99111 0.78094 0.64761 0.0
C2454 C 0.01105 0.78121 0.64759 0.0
C2455 C 0.19541 0.01031 0.66739 0.0
C2456 C 0.20883 0.02051 0.65716 0.0
C2457 C 0.19541 0.99062 0.66723 0.0
C2458 C 0.20883 0.98059 0.65683 0.0
H2459 H 0.18584 0.01749 0.67672 0.0
H2460 H 0.18584 0.98329 0.67644 0.0
S2461 S 0.2439 0.00083 0.62427 0.0
N2462 N 0.2336 0.01919 0.63385 0.0
N2463 N 0.23361 0.98231 0.63354 0.0
C2464 C 0.22094 0.99067 0.64503 0.0
C2465 C 0.22094 0.01063 0.6452 0.0
C2466 C 0.9904 0.19499 0.66847 0.0
C2467 C 0.98051 0.20851 0.65808 0.0
C2468 C 0.0101 0.19472 0.66854 0.0
C2469 C 0.02042 0.20798 0.65822 0.0
H2470 H 0.98298 0.18553 0.67773 0.0
H2471 H 0.01719 0.18508 0.67786 0.0
S2472 S 0.00105 0.24324 0.62534 0.0
N2473 N 0.98245 0.23321 0.63472 0.0
N2474 N 0.01932 0.23272 0.63486 0.0
C2475 C 0.01065 0.2202 0.64629 0.0
C2476 C 0.9907 0.22046 0.64621 0.0
C2477 C 0.77758 0.01009 0.65018 0.0
C2478 C 0.79138 0.02039 0.65975 0.0
C2479 C 0.77761 0.99052 0.65031 0.0
C2480 C 0.79144 0.98039 0.66001 0.0
H2481 H 0.76602 0.01717 0.64337 0.0
H2482 H 0.76607 0.98331 0.64359 0.0
S2483 S 0.83237 0.00061 0.68485 0.0
N2484 N 0.82056 0.01902 0.67729 0.0
N2485 N 0.82061 0.98207 0.67753 0.0
C2486 C 0.8063 0.99044 0.66819 0.0
C2487 C 0.80627 0.01049 0.66806 0.0
C2488 C 0.35094 0.98974 0.22152 0.0
C2489 C 0.34083 0.97954 0.20804 0.0
C2490 C 0.35088 0.00931 0.22157 0.0
C2491 C 0.34072 0.01952 0.20814 0.0
H2492 H 0.35808 0.98259 0.23284 0.0
H2493 H 0.35799 0.01646 0.23291 0.0
S2494 S 0.31444 0.99956 0.16799 0.0
N2495 N 0.32233 0.98108 0.17946 0.0
N2496 N 0.32223 0.01803 0.17955 0.0
C2497 C 0.33203 0.00957 0.1935 0.0
C2498 C 0.33209 0.98952 0.19345 0.0
C2499 C 0.98951 0.33264 0.19398 0.0
C2500 C 0.97949 0.3432 0.20728 0.0
C2501 C 0.0092 0.33244 0.194 0.0
C2502 C 0.01939 0.34279 0.20733 0.0
H2503 H 0.98217 0.32333 0.18451 0.0
H2504 H 0.01637 0.32299 0.18455 0.0
S2505 S 0.99975 0.37609 0.24203 0.0
N2506 N 0.98122 0.36676 0.23181 0.0
N2507 N 0.0181 0.36637 0.23186 0.0
C2508 C 0.00952 0.3549 0.2193 0.0
C2509 C 0.98958 0.35511 0.21927 0.0
C2510 C 0.66784 0.98942 0.19465 0.0
C2511 C 0.65742 0.97938 0.20805 0.0
C2512 C 0.66801 0.00911 0.19466 0.0
C2513 C 0.65777 0.0193 0.20808 0.0
H2514 H 0.67705 0.98209 0.18507 0.0
H2515 H 0.67733 0.0163 0.18509 0.0
S2516 S 0.62487 0.9996 0.24314 0.0
N2517 N 0.63412 0.98109 0.23283 0.0
N2518 N 0.63446 0.01796 0.23286 0.0
C2519 C 0.64581 0.00941 0.22019 0.0
C2520 C 0.64563 0.98946 0.22017 0.0
C2521 C 0.00962 0.64877 0.22122 0.0
C2522 C 0.01993 0.65872 0.2077 0.0
C2523 C 0.99005 0.6488 0.22112 0.0
C2524 C 0.97994 0.65879 0.20748 0.0
H2525 H 0.0167 0.64176 0.23268 0.0
H2526 H 0.98283 0.64183 0.2325 0.0
S2527 S 0.0002 0.68456 0.16715 0.0
N2528 N 0.01859 0.67684 0.17887 0.0
N2529 N 0.98165 0.67691 0.17867 0.0
C2530 C 0.99 0.6673 0.19282 0.0
C2531 C 0.01005 0.66727 0.19293 0.0
C2532 C 0.33302 0.99006 0.80495 0.0
C2533 C 0.34322 0.97982 0.79153 0.0
C2534 C 0.33312 0.00976 0.80484 0.0
C2535 C 0.34342 0.01975 0.79132 0.0
H2536 H 0.32376 0.98291 0.81461 0.0
H2537 H 0.32393 0.01711 0.81442 0.0
S2538 S 0.37586 0.99945 0.75619 0.0
N2539 N 0.36641 0.98111 0.76663 0.0
N2540 N 0.36658 0.01798 0.76643 0.0
C2541 C 0.35518 0.00964 0.7792 0.0
C2542 C 0.35509 0.98969 0.77931 0.0
C2543 C 0.00908 0.33146 0.80546 0.0
C2544 C 0.01925 0.34169 0.79202 0.0
C2545 C 0.98938 0.33169 0.80553 0.0
C2546 C 0.97935 0.34216 0.79217 0.0
H2547 H 0.01627 0.32209 0.81498 0.0
H2548 H 0.98205 0.32247 0.8151 0.0
S2549 S 0.99956 0.37474 0.7571 0.0
N2550 N 0.01792 0.36507 0.7673 0.0
N2551 N 0.98105 0.36552 0.76745 0.0
C2552 C 0.98942 0.35396 0.78006 0.0
C2553 C 0.00936 0.35372 0.77998 0.0
C2554 C 0.66475 0.00987 0.80154 0.0
C2555 C 0.65739 0.01982 0.78618 0.0
C2556 C 0.66484 0.99018 0.80176 0.0
C2557 C 0.65758 0.97982 0.78664 0.0
H2558 H 0.67159 0.01727 0.81289 0.0
H2559 H 0.67174 0.98311 0.81328 0.0
S2560 S 0.63329 0.99923 0.74495 0.0
N2561 N 0.64013 0.01782 0.75686 0.0
N2562 N 0.6403 0.98099 0.75729 0.0
C2563 C 0.64867 0.98963 0.77206 0.0
C2564 C 0.64858 0.0096 0.77183 0.0
C2565 C 0.98902 0.66639 0.8043 0.0
C2566 C 0.97885 0.65655 0.79056 0.0
C2567 C 0.00871 0.66655 0.80412 0.0
C2568 C 0.01878 0.6569 0.79019 0.0
H2569 H 0.98179 0.67515 0.81436 0.0
H2570 H 0.01599 0.67542 0.81405 0.0
S2571 S 0.99875 0.62558 0.75387 0.0
N2572 N 0.98034 0.63438 0.76475 0.0
N2573 N 0.0172 0.63471 0.7644 0.0
C2574 C 0.00877 0.64551 0.77763 0.0
C2575 C 0.98882 0.64533 0.77782 0.0
C2576 C 0.22105 0.35018 0.01073 0.0
C2577 C 0.20757 0.34011 0.02097 0.0
C2578 C 0.2211 0.35005 0.99116 0.0
C2579 C 0.20766 0.33986 0.98099 0.0
H2580 H 0.23236 0.35736 0.01786 0.0
H2581 H 0.23244 0.35715 0.98399 0.0
S2582 S 0.16751 0.31367 0.00104 0.0
N2583 N 0.17899 0.32162 0.0195 0.0
N2584 N 0.17908 0.32139 0.98255 0.0
C2585 C 0.19303 0.33121 0.99097 0.0
C2586 C 0.19298 0.33133 0.01102 0.0
C2587 C 0.22086 0.64825 0.99034 0.0
C2588 C 0.20742 0.65838 0.98011 0.0
C2589 C 0.22087 0.64832 0.00991 0.0
C2590 C 0.20744 0.65851 0.02008 0.0
H2591 H 0.23217 0.64108 0.9832 0.0
H2592 H 0.23219 0.64118 0.01708 0.0
S2593 S 0.16736 0.68482 3e-05 0.0
N2594 N 0.17886 0.67691 0.98158 0.0
N2595 N 0.17888 0.67703 0.01853 0.0
C2596 C 0.19283 0.66721 0.0101 0.0
C2597 C 0.19282 0.66714 0.99005 0.0
C2598 C 0.33256 0.19466 0.01004 0.0
C2599 C 0.34259 0.20832 0.02012 0.0
C2600 C 0.33247 0.19467 0.99034 0.0
C2601 C 0.34241 0.20835 0.98019 0.0
H2602 H 0.32358 0.18484 0.01733 0.0
H2603 H 0.32344 0.18486 0.98311 0.0
S2604 S 0.3743 0.24425 4e-05 0.0
N2605 N 0.36523 0.2337 0.01851 0.0
N2606 N 0.36506 0.23373 0.98164 0.0
C2607 C 0.354 0.22077 0.99014 0.0
C2608 C 0.35409 0.22075 0.01009 0.0
C2609 C 0.80545 0.3312 0.99085 0.0
C2610 C 0.79221 0.34169 0.98069 0.0
C2611 C 0.80544 0.3313 0.01055 0.0
C2612 C 0.79219 0.34189 0.0206 0.0
H2613 H 0.81486 0.32173 0.98364 0.0
H2614 H 0.81484 0.3219 0.01786 0.0
S2615 S 0.7577 0.37511 0.00047 0.0
N2616 N 0.76784 0.36543 0.98208 0.0
N2617 N 0.76782 0.3656 0.01896 0.0
C2618 C 0.78029 0.35392 0.01055 0.0
C2619 C 0.7803 0.35383 0.99061 0.0
C2620 C 0.64777 0.77785 0.01077 0.0
C2621 C 0.65784 0.79152 0.02075 0.0
C2622 C 0.64763 0.77763 0.99119 0.0
C2623 C 0.65756 0.79106 0.98076 0.0
H2624 H 0.64081 0.76653 0.0181 0.0
H2625 H 0.64057 0.76614 0.98422 0.0
S2626 S 0.68356 0.8317 0.00012 0.0
N2627 N 0.67598 0.8203 0.01877 0.0
N2628 N 0.67573 0.81988 0.98183 0.0
C2629 C 0.66618 0.80588 0.9905 0.0
C2630 C 0.66632 0.80611 0.01056 0.0
C2631 C 0.80483 0.66754 0.00952 0.0
C2632 C 0.79139 0.65734 0.01972 0.0
C2633 C 0.80488 0.6673 0.98982 0.0
C2634 C 0.7915 0.65685 0.9798 0.0
H2635 H 0.81438 0.67691 0.01669 0.0
H2636 H 0.81446 0.6765 0.98248 0.0
S2637 S 0.75642 0.62433 8e-05 0.0
N2638 N 0.76665 0.634 0.01843 0.0
N2639 N 0.76675 0.63352 0.98155 0.0
C2640 C 0.77938 0.64507 0.9899 0.0
C2641 C 0.77933 0.64533 0.00985 0.0
C2642 C 0.34998 0.77856 0.00926 0.0
C2643 C 0.33997 0.79205 0.01953 0.0
C2644 C 0.34992 0.7786 0.98969 0.0
C2645 C 0.33983 0.79213 0.97954 0.0
H2646 H 0.3571 0.76719 0.01636 0.0
H2647 H 0.35698 0.76726 0.98249 0.0
S2648 S 0.31377 0.83232 0.99971 0.0
N2649 N 0.32161 0.82072 0.01814 0.0
N2650 N 0.32148 0.8208 0.98119 0.0
C2651 C 0.3312 0.80675 0.98957 0.0
C2652 C 0.33127 0.80671 0.00963 0.0
C2653 C 0.64812 0.2217 0.991 0.0
C2654 C 0.65815 0.20824 0.98069 0.0
C2655 C 0.64821 0.22162 0.01057 0.0
C2656 C 0.65833 0.20809 0.02068 0.0
H2657 H 0.641 0.23308 0.98392 0.0
H2658 H 0.64116 0.23296 0.01779 0.0
S2659 S 0.68436 0.16793 0.00042 0.0
N2660 N 0.67651 0.17956 0.98202 0.0
N2661 N 0.67667 0.17942 0.01897 0.0
C2662 C 0.66693 0.19347 0.01062 0.0
C2663 C 0.66684 0.19355 0.99057 0.0
C2664 C 0.48919 0.69454 0.83326 0.0
C2665 C 0.47923 0.70805 0.84362 0.0
C2666 C 0.50888 0.69436 0.8332 0.0
C2667 C 0.51914 0.70769 0.8435 0.0
H2668 H 0.48182 0.68507 0.82398 0.0
H2669 H 0.51602 0.68475 0.82388 0.0
S2670 S 0.4996 0.74287 0.87635 0.0
N2671 N 0.48104 0.73276 0.86697 0.0
N2672 N 0.51792 0.73243 0.86686 0.0
C2673 C 0.5093 0.71985 0.85544 0.0
C2674 C 0.48936 0.72003 0.85551 0.0
C2675 C 0.28027 0.50955 0.85087 0.0
C2676 C 0.29358 0.51955 0.84035 0.0
C2677 C 0.28 0.48999 0.85091 0.0
C2678 C 0.29304 0.4796 0.84042 0.0
H2679 H 0.26922 0.51688 0.85827 0.0
H2680 H 0.26877 0.483 0.85834 0.0
S2681 S 0.33268 0.499 0.81299 0.0
N2682 N 0.32163 0.51764 0.8211 0.0
N2683 N 0.32114 0.48069 0.82117 0.0
C2684 C 0.30755 0.48934 0.83131 0.0
C2685 C 0.30782 0.50939 0.83128 0.0
C2686 C 0.50932 0.28017 0.84982 0.0
C2687 C 0.5195 0.29333 0.83927 0.0
C2688 C 0.48976 0.28012 0.84978 0.0
C2689 C 0.47955 0.29321 0.8392 0.0
H2690 H 0.5165 0.26908 0.85729 0.0
H2691 H 0.48262 0.26899 0.85723 0.0
S2692 S 0.49947 0.33252 0.81165 0.0
N2693 N 0.51796 0.32131 0.81989 0.0
N2694 N 0.48101 0.32121 0.81982 0.0
C2695 C 0.48948 0.30759 0.83007 0.0
C2696 C 0.50952 0.30765 0.8301 0.0
C2697 C 0.69464 0.4906 0.83249 0.0
C2698 C 0.70838 0.48053 0.84243 0.0
C2699 C 0.69456 0.51029 0.83252 0.0
C2700 C 0.70821 0.52044 0.84249 0.0
H2701 H 0.68485 0.48331 0.82348 0.0
H2702 H 0.68471 0.51752 0.82352 0.0
S2703 S 0.74425 0.50059 0.87421 0.0
N2704 N 0.73378 0.48213 0.86505 0.0
N2705 N 0.73362 0.519 0.8651 0.0
C2706 C 0.72068 0.5105 0.85402 0.0
C2707 C 0.72076 0.49055 0.85399 0.0
C2708 C 0.49022 0.30469 0.16757 0.0
C2709 C 0.48022 0.291 0.15751 0.0
C2710 C 0.50991 0.30492 0.16749 0.0
C2711 C 0.52014 0.29146 0.15734 0.0
H2712 H 0.48289 0.31434 0.17671 0.0
H2713 H 0.51709 0.31472 0.17657 0.0
S2714 S 0.50046 0.25563 0.12526 0.0
N2715 N 0.48194 0.26586 0.1346 0.0
N2716 N 0.51881 0.26629 0.13444 0.0
C2717 C 0.51025 0.27904 0.1457 0.0
C2718 C 0.4903 0.27881 0.14579 0.0
C2719 C 0.69479 0.49011 0.16631 0.0
C2720 C 0.70831 0.47993 0.15621 0.0
C2721 C 0.69488 0.50981 0.16629 0.0
C2722 C 0.7085 0.51985 0.15617 0.0
H2723 H 0.68505 0.48292 0.17546 0.0
H2724 H 0.68521 0.51711 0.17542 0.0
S2725 S 0.74396 0.49968 0.12398 0.0
N2726 N 0.73344 0.4813 0.13327 0.0
N2727 N 0.7336 0.51818 0.13322 0.0
C2728 C 0.72073 0.50979 0.14447 0.0
C2729 C 0.72064 0.48984 0.14449 0.0
C2730 C 0.51065 0.72086 0.14906 0.0
C2731 C 0.52082 0.70727 0.15905 0.0
C2732 C 0.49108 0.7209 0.14905 0.0
C2733 C 0.48084 0.70735 0.15903 0.0
H2734 H 0.51783 0.73225 0.14205 0.0
H2735 H 0.48396 0.73232 0.14203 0.0
S2736 S 0.50073 0.66691 0.18491 0.0
N2737 N 0.51923 0.67848 0.17722 0.0
N2738 N 0.48229 0.67856 0.17719 0.0
C2739 C 0.49077 0.69263 0.16759 0.0
C2740 C 0.51082 0.69259 0.1676 0.0
C2741 C 0.27872 0.48898 0.14925 0.0
C2742 C 0.29234 0.47867 0.15906 0.0
C2743 C 0.27875 0.50855 0.1494 0.0
C2744 C 0.2924 0.51867 0.15935 0.0
H2745 H 0.26726 0.4819 0.14226 0.0
H2746 H 0.26731 0.51577 0.14251 0.0
S2747 S 0.33295 0.49843 0.18479 0.0
N2748 N 0.32126 0.48003 0.17704 0.0
N2749 N 0.32131 0.51697 0.17731 0.0
C2750 C 0.30714 0.50862 0.16774 0.0
C2751 C 0.30711 0.48856 0.1676 0.0
C2752 C 0.83075 0.51019 0.69369 0.0
C2753 C 0.84109 0.52022 0.70716 0.0
C2754 C 0.83072 0.4905 0.69359 0.0
C2755 C 0.84103 0.48031 0.70695 0.0
H2756 H 0.82148 0.51752 0.68417 0.0
H2757 H 0.82143 0.48329 0.68399 0.0
S2758 S 0.87378 0.50004 0.74212 0.0
N2759 N 0.86439 0.51855 0.73192 0.0
N2760 N 0.86434 0.48167 0.73173 0.0
C2761 C 0.85293 0.49021 0.7191 0.0
C2762 C 0.85296 0.51016 0.71921 0.0
C2763 C 0.50892 0.83066 0.69399 0.0
C2764 C 0.51925 0.84111 0.70714 0.0
C2765 C 0.48923 0.83102 0.69406 0.0
C2766 C 0.47936 0.84184 0.70726 0.0
H2767 H 0.51599 0.82101 0.68466 0.0
H2768 H 0.48177 0.82162 0.68477 0.0
S2769 S 0.50003 0.87506 0.74144 0.0
N2770 N 0.51826 0.86505 0.73132 0.0
N2771 N 0.48139 0.86573 0.73143 0.0
C2772 C 0.4896 0.85385 0.71902 0.0
C2773 C 0.50954 0.85348 0.71896 0.0
C2774 C 0.14936 0.50927 0.7193 0.0
C2775 C 0.16004 0.51941 0.70623 0.0
C2776 C 0.1491 0.48971 0.71919 0.0
C2777 C 0.15952 0.47944 0.706 0.0
H2778 H 0.14197 0.51647 0.73044 0.0
H2779 H 0.14152 0.48259 0.73025 0.0
S2780 S 0.18741 0.4993 0.6669 0.0
N2781 N 0.17944 0.51781 0.67826 0.0
N2782 N 0.17896 0.48086 0.67805 0.0
C2783 C 0.16883 0.48936 0.69173 0.0
C2784 C 0.16909 0.50941 0.69185 0.0
C2785 C 0.48987 0.14867 0.7197 0.0
C2786 C 0.47961 0.15863 0.70616 0.0
C2787 C 0.50944 0.14879 0.7197 0.0
C2788 C 0.51959 0.15889 0.70617 0.0
H2789 H 0.48277 0.14158 0.73109 0.0
H2790 H 0.51664 0.1418 0.73109 0.0
S2791 S 0.49944 0.18475 0.66584 0.0
N2792 N 0.48102 0.17689 0.67742 0.0
N2793 N 0.51796 0.17713 0.67743 0.0
C2794 C 0.50957 0.16742 0.69149 0.0
C2795 C 0.48952 0.16729 0.69148 0.0
C2796 C 0.85165 0.4902 0.27785 0.0
C2797 C 0.84146 0.48012 0.29137 0.0
C2798 C 0.85186 0.50977 0.27782 0.0
C2799 C 0.84186 0.5201 0.29128 0.0
H2800 H 0.85865 0.48295 0.2665 0.0
H2801 H 0.859 0.51682 0.26643 0.0
S2802 S 0.81553 0.50045 0.33156 0.0
N2803 N 0.82313 0.48188 0.32004 0.0
N2804 N 0.8235 0.51882 0.31996 0.0
C2805 C 0.83313 0.51025 0.30596 0.0
C2806 C 0.83293 0.4902 0.306 0.0
C2807 C 0.50956 0.85082 0.27736 0.0
C2808 C 0.51976 0.84109 0.29112 0.0
C2809 C 0.48999 0.85102 0.27747 0.0
C2810 C 0.47975 0.84146 0.29133 0.0
H2811 H 0.51671 0.8575 0.26576 0.0
H2812 H 0.48285 0.85783 0.26594 0.0
S2813 S 0.49975 0.81641 0.33226 0.0
N2814 N 0.51822 0.82365 0.32035 0.0
N2815 N 0.48129 0.82399 0.32056 0.0
C2816 C 0.48974 0.83316 0.30618 0.0
C2817 C 0.50979 0.83297 0.30607 0.0
C2818 C 0.14931 0.49025 0.27815 0.0
C2819 C 0.15921 0.4802 0.29189 0.0
C2820 C 0.14918 0.50982 0.27801 0.0
C2821 C 0.15896 0.52019 0.2916 0.0
H2822 H 0.14244 0.48298 0.26673 0.0
H2823 H 0.14223 0.51684 0.26649 0.0
S2824 S 0.18454 0.50064 0.33241 0.0
N2825 N 0.17707 0.48204 0.32085 0.0
N2826 N 0.17685 0.51898 0.32059 0.0
C2827 C 0.16744 0.51038 0.30646 0.0
C2828 C 0.16756 0.49032 0.3066 0.0
C2829 C 0.51006 0.16888 0.30586 0.0
C2830 C 0.5201 0.15846 0.29247 0.0
C2831 C 0.49036 0.16886 0.30597 0.0
C2832 C 0.48019 0.15842 0.29269 0.0
H2833 H 0.51736 0.17823 0.31532 0.0
H2834 H 0.48314 0.17819 0.31551 0.0
S2835 S 0.49999 0.12545 0.25775 0.0
N2836 N 0.51847 0.13497 0.26787 0.0
N2837 N 0.4816 0.13492 0.26808 0.0
C2838 C 0.49012 0.14646 0.28061 0.0
C2839 C 0.51007 0.14648 0.2805 0.0
C2840 C 0.72002 0.8503 0.49051 0.0
C2841 C 0.70687 0.83976 0.48031 0.0
C2842 C 0.71992 0.85043 0.51008 0.0
C2843 C 0.70667 0.84001 0.52028 0.0
H2844 H 0.7312 0.85767 0.48336 0.0
H2845 H 0.73103 0.85788 0.51724 0.0
S2846 S 0.66737 0.81253 0.50027 0.0
N2847 N 0.67877 0.82055 0.4818 0.0
N2848 N 0.67859 0.82078 0.51875 0.0
C2849 C 0.69234 0.83087 0.51031 0.0
C2850 C 0.69244 0.83074 0.49025 0.0
C2851 C 0.72169 0.14804 0.48931 0.0
C2852 C 0.70812 0.15806 0.47914 0.0
C2853 C 0.72163 0.14788 0.50888 0.0
C2854 C 0.70801 0.15776 0.51913 0.0
H2855 H 0.73314 0.14113 0.48214 0.0
H2856 H 0.73304 0.14087 0.51601 0.0
S2857 S 0.66756 0.18362 0.49921 0.0
N2858 N 0.67926 0.1761 0.48072 0.0
N2859 N 0.67915 0.17582 0.51766 0.0
C2860 C 0.6933 0.16633 0.50918 0.0
C2861 C 0.69336 0.16648 0.48913 0.0
C2862 C 0.83222 0.69455 0.50962 0.0
C2863 C 0.84244 0.70815 0.51958 0.0
C2864 C 0.83217 0.69436 0.48993 0.0
C2865 C 0.84235 0.70778 0.47966 0.0
H2866 H 0.82307 0.68495 0.517 0.0
H2867 H 0.82299 0.68463 0.48278 0.0
S2868 S 0.87476 0.74337 0.49921 0.0
N2869 N 0.86549 0.73316 0.51777 0.0
N2870 N 0.86539 0.73281 0.48089 0.0
C2871 C 0.85411 0.72011 0.48951 0.0
C2872 C 0.85416 0.7203 0.50945 0.0
C2873 C 0.30534 0.83209 0.48973 0.0
C2874 C 0.29173 0.84218 0.47964 0.0
C2875 C 0.30548 0.83224 0.50943 0.0
C2876 C 0.29203 0.84248 0.51957 0.0
H2877 H 0.31499 0.8229 0.48247 0.0
H2878 H 0.31523 0.82315 0.51669 0.0
S2879 S 0.25639 0.8746 0.49962 0.0
N2880 N 0.26667 0.86518 0.48118 0.0
N2881 N 0.26693 0.86544 0.51805 0.0
C2882 C 0.27968 0.85411 0.50958 0.0
C2883 C 0.27954 0.85397 0.48963 0.0
C2884 C 0.1472 0.27729 0.49022 0.0
C2885 C 0.15709 0.29091 0.47999 0.0
C2886 C 0.14719 0.27733 0.50979 0.0
C2887 C 0.15708 0.29098 0.51998 0.0
H2888 H 0.1403 0.26581 0.48308 0.0
H2889 H 0.14029 0.26586 0.51696 0.0
S2890 S 0.18257 0.33159 0.49992 0.0
N2891 N 0.17498 0.31988 0.48147 0.0
N2892 N 0.17497 0.31994 0.51841 0.0
C2893 C 0.16549 0.30575 0.50999 0.0
C2894 C 0.1655 0.30572 0.48993 0.0
C2895 C 0.30492 0.1674 0.50971 0.0
C2896 C 0.29155 0.157 0.5198 0.0
C2897 C 0.30487 0.16751 0.49001 0.0
C2898 C 0.29144 0.15723 0.47988 0.0
H2899 H 0.31448 0.17666 0.51699 0.0
H2900 H 0.31439 0.17685 0.48278 0.0
S2901 S 0.2565 0.12431 0.49974 0.0
N2902 N 0.26682 0.13364 0.51821 0.0
N2903 N 0.26672 0.13387 0.48133 0.0
C2904 C 0.27939 0.14526 0.48983 0.0
C2905 C 0.27945 0.14514 0.50978 0.0
C2906 C 0.83127 0.30594 0.4894 0.0
C2907 C 0.84177 0.29263 0.47933 0.0
C2908 C 0.83112 0.30588 0.5091 0.0
C2909 C 0.84146 0.2925 0.51925 0.0
H2910 H 0.82198 0.31545 0.4821 0.0
H2911 H 0.82172 0.31535 0.51632 0.0
S2912 S 0.87458 0.25772 0.49943 0.0
N2913 N 0.86523 0.26801 0.48095 0.0
N2914 N 0.86495 0.26789 0.51783 0.0
C2915 C 0.8535 0.28051 0.50932 0.0
C2916 C 0.85366 0.28057 0.48937 0.0
C2917 C 0.14916 0.72142 0.51028 0.0
C2918 C 0.15932 0.70801 0.52051 0.0
C2919 C 0.1491 0.72132 0.49071 0.0
C2920 C 0.15919 0.70781 0.48054 0.0
H2921 H 0.14207 0.7328 0.5174 0.0
H2922 H 0.14195 0.73262 0.48353 0.0
S2923 S 0.18551 0.66776 0.50064 0.0
N2924 N 0.17776 0.67939 0.51908 0.0
N2925 N 0.17763 0.6792 0.48213 0.0
C2926 C 0.16791 0.69324 0.49054 0.0
C2927 C 0.16798 0.69333 0.5106 0.0
C2928 C 0.14319 0.13007 0.31368 0.0
C2929 C 0.1579 0.13028 0.30055 0.0
C2930 C 0.12928 0.14403 0.31352 0.0
C2931 C 0.12968 0.1586 0.30023 0.0
H2932 H 0.14305 0.11979 0.32484 0.0
H2933 H 0.11887 0.14405 0.32456 0.0
S2934 S 0.16303 0.16314 0.26061 0.0
N2935 N 0.17039 0.1446 0.27229 0.0
N2936 N 0.14437 0.1707 0.27198 0.0
C2937 C 0.14339 0.15796 0.28611 0.0
C2938 C 0.15748 0.14383 0.28627 0.0
C2939 C 0.85421 0.1603 0.28906 0.0
C2940 C 0.86961 0.15955 0.30132 0.0
C2941 C 0.84056 0.14628 0.28901 0.0
C2942 C 0.84165 0.13086 0.30122 0.0
H2943 H 0.85222 0.17222 0.27989 0.0
H2944 H 0.82862 0.14801 0.2798 0.0
S2945 S 0.88033 0.12102 0.33453 0.0
N2946 N 0.88614 0.14119 0.32479 0.0
N2947 N 0.86034 0.11473 0.32471 0.0
C2948 C 0.85764 0.12919 0.31264 0.0
C2949 C 0.87165 0.14356 0.31269 0.0
C2950 C 0.85233 0.83947 0.29048 0.0
C2951 C 0.86799 0.84044 0.3024 0.0
C2952 C 0.83854 0.85334 0.29065 0.0
C2953 C 0.83975 0.86885 0.30274 0.0
H2954 H 0.85028 0.82749 0.28139 0.0
H2955 H 0.82644 0.85146 0.28168 0.0
S2956 S 0.87897 0.87922 0.33524 0.0
N2957 N 0.88479 0.85906 0.32548 0.0
N2958 N 0.85873 0.88526 0.32579 0.0
C2959 C 0.85594 0.87072 0.31385 0.0
C2960 C 0.87008 0.85649 0.31368 0.0
C2961 C 0.14663 0.83989 0.29085 0.0
C2962 C 0.13117 0.84067 0.30302 0.0
C2963 C 0.16032 0.85387 0.29088 0.0
C2964 C 0.15921 0.86929 0.3031 0.0
H2965 H 0.14862 0.82799 0.28164 0.0
H2966 H 0.17228 0.85214 0.28169 0.0
S2967 S 0.12044 0.87913 0.33631 0.0
N2968 N 0.11462 0.859 0.3265 0.0
N2969 N 0.14048 0.88539 0.32658 0.0
C2970 C 0.14319 0.87095 0.31449 0.0
C2971 C 0.12914 0.85662 0.31444 0.0
C2972 C 0.14455 0.87058 0.68688 0.0
C2973 C 0.15957 0.87028 0.69965 0.0
C2974 C 0.1308 0.85646 0.68708 0.0
C2975 C 0.13167 0.84163 0.70005 0.0
H2976 H 0.14404 0.88107 0.67593 0.0
H2977 H 0.12013 0.85655 0.67628 0.0
S2978 S 0.16597 0.83666 0.73879 0.0
N2979 N 0.17285 0.85552 0.72733 0.0
N2980 N 0.14714 0.82912 0.72769 0.0
C2981 C 0.1457 0.84214 0.71386 0.0
C2982 C 0.15962 0.85643 0.71366 0.0
C2983 C 0.14444 0.12918 0.68661 0.0
C2984 C 0.15916 0.12962 0.69973 0.0
C2985 C 0.13037 0.14298 0.6867 0.0
C2986 C 0.13061 0.15762 0.69992 0.0
H2987 H 0.14441 0.11885 0.6755 0.0
H2988 H 0.11997 0.14284 0.67565 0.0
S2989 S 0.16388 0.16275 0.73952 0.0
N2990 N 0.17146 0.14423 0.72794 0.0
N2991 N 0.14516 0.17004 0.7281 0.0
C2992 C 0.14433 0.15721 0.71404 0.0
C2993 C 0.15857 0.14324 0.71395 0.0
C2994 C 0.85447 0.16057 0.709 0.0
C2995 C 0.86972 0.15972 0.69656 0.0
C2996 C 0.84068 0.1467 0.70915 0.0
C2997 C 0.84148 0.13133 0.69686 0.0
H2998 H 0.85271 0.17247 0.71826 0.0
H2999 H 0.82887 0.14849 0.71852 0.0
S3000 S 0.87963 0.12127 0.66301 0.0
N3001 N 0.88577 0.14133 0.67278 0.0
N3002 N 0.85971 0.11512 0.67306 0.0
C3003 C 0.85731 0.12954 0.68524 0.0
C3004 C 0.87147 0.14377 0.68509 0.0
C3005 C 0.85388 0.83904 0.70955 0.0
C3006 C 0.86944 0.84013 0.69752 0.0
C3007 C 0.83996 0.85279 0.70945 0.0
C3008 C 0.84095 0.86827 0.69731 0.0
H3009 H 0.85199 0.82706 0.71868 0.0
H3010 H 0.82794 0.85082 0.7185 0.0
S3011 S 0.87986 0.87893 0.66453 0.0
N3012 N 0.88593 0.85885 0.6743 0.0
N3013 N 0.85964 0.88482 0.67411 0.0
C3014 C 0.85706 0.87028 0.68611 0.0
C3015 C 0.87133 0.85618 0.68621 0.0
C3016 C 0.29054 0.1598 0.14669 0.0
C3017 C 0.30274 0.15868 0.13126 0.0
C3018 C 0.29058 0.14615 0.16071 0.0
C3019 C 0.3028 0.13073 0.15996 0.0
H3020 H 0.28132 0.17174 0.1484 0.0
H3021 H 0.28139 0.14815 0.17263 0.0
S3022 S 0.33606 0.11999 0.12148 0.0
N3023 N 0.32625 0.13997 0.11517 0.0
N3024 N 0.3263 0.11419 0.14164 0.0
C3025 C 0.3142 0.12868 0.14399 0.0
C3026 C 0.31417 0.14269 0.12962 0.0
C3027 C 0.85552 0.2897 0.15819 0.0
C3028 C 0.87052 0.30244 0.1575 0.0
C3029 C 0.84157 0.28966 0.14447 0.0
C3030 C 0.84197 0.30237 0.12942 0.0
H3031 H 0.85404 0.28014 0.16989 0.0
H3032 H 0.82993 0.28006 0.14616 0.0
S3033 S 0.87944 0.33709 0.11979 0.0
N3034 N 0.88597 0.32693 0.13953 0.0
N3035 N 0.85963 0.32686 0.11361 0.0
C3036 C 0.8576 0.31428 0.12774 0.0
C3037 C 0.87191 0.31431 0.14182 0.0
C3038 C 0.68572 0.86992 0.14435 0.0
C3039 C 0.69907 0.86974 0.15886 0.0
C3040 C 0.6857 0.85597 0.13042 0.0
C3041 C 0.69903 0.84144 0.1306 0.0
H3042 H 0.67453 0.88017 0.14439 0.0
H3043 H 0.6745 0.85593 0.12018 0.0
S3044 S 0.73918 0.83698 0.16331 0.0
N3045 N 0.72757 0.85548 0.17088 0.0
N3046 N 0.72753 0.82941 0.14483 0.0
C3047 C 0.71336 0.84211 0.14409 0.0
C3048 C 0.71338 0.85623 0.1582 0.0
C3049 C 0.14411 0.68484 0.13064 0.0
C3050 C 0.15892 0.69785 0.13101 0.0
C3051 C 0.12999 0.68519 0.14439 0.0
C3052 C 0.13027 0.69857 0.15888 0.0
H3053 H 0.14405 0.67363 0.12041 0.0
H3054 H 0.11951 0.67422 0.14432 0.0
S3055 S 0.16384 0.73798 0.16367 0.0
N3056 N 0.1714 0.72611 0.14533 0.0
N3057 N 0.14498 0.72679 0.17102 0.0
C3058 C 0.1441 0.71258 0.15836 0.0
C3059 C 0.1584 0.71222 0.14446 0.0
C3060 C 0.31238 0.87038 0.85594 0.0
C3061 C 0.2996 0.86986 0.84094 0.0
C3062 C 0.31234 0.85635 0.86979 0.0
C3063 C 0.29951 0.84139 0.86904 0.0
H3064 H 0.32322 0.88099 0.85638 0.0
H3065 H 0.32313 0.85663 0.88045 0.0
S3066 S 0.26082 0.83579 0.83477 0.0
N3067 N 0.27208 0.85472 0.82776 0.0
N3068 N 0.27199 0.8285 0.85365 0.0
C3069 C 0.28569 0.84166 0.855 0.0
C3070 C 0.28574 0.85587 0.84098 0.0
C3071 C 0.16031 0.29065 0.8534 0.0
C3072 C 0.1592 0.30254 0.86906 0.0
C3073 C 0.14649 0.29076 0.83955 0.0
C3074 C 0.13092 0.30277 0.8407 0.0
H3075 H 0.17234 0.28163 0.85138 0.0
H3076 H 0.14847 0.28181 0.82745 0.0
S3077 S 0.1202 0.33515 0.87993 0.0
N3078 N 0.14039 0.3255 0.88582 0.0
N3079 N 0.1143 0.3257 0.85965 0.0
C3080 C 0.12892 0.31384 0.8569 0.0
C3081 C 0.14309 0.31373 0.87111 0.0
C3082 C 0.70835 0.16023 0.85434 0.0
C3083 C 0.69593 0.15939 0.86961 0.0
C3084 C 0.70839 0.14642 0.84049 0.0
C3085 C 0.69601 0.13111 0.84124 0.0
H3086 H 0.71768 0.17208 0.85262 0.0
H3087 H 0.71775 0.1482 0.82867 0.0
S3088 S 0.66212 0.12114 0.87938 0.0
N3089 N 0.67204 0.1411 0.8856 0.0
N3090 N 0.67211 0.115 0.85942 0.0
C3091 C 0.68439 0.12935 0.85708 0.0
C3092 C 0.68435 0.14352 0.87129 0.0
C3093 C 0.86935 0.68511 0.85693 0.0
C3094 C 0.86917 0.69836 0.84233 0.0
C3095 C 0.85543 0.68522 0.87088 0.0
C3096 C 0.84094 0.6986 0.87065 0.0
H3097 H 0.87956 0.67388 0.85693 0.0
H3098 H 0.85538 0.67408 0.88119 0.0
S3099 S 0.83653 0.73855 0.83768 0.0
N3100 N 0.85497 0.72682 0.83015 0.0
N3101 N 0.82897 0.72705 0.85625 0.0
C3102 C 0.84162 0.71284 0.85707 0.0
C3103 C 0.85571 0.71272 0.84293 0.0
C3104 C 0.15968 0.28952 0.14665 0.0
C3105 C 0.15893 0.30161 0.13111 0.0
C3106 C 0.14585 0.28985 0.16049 0.0
C3107 C 0.13059 0.30227 0.15943 0.0
H3108 H 0.17147 0.28016 0.1486 0.0
H3109 H 0.14756 0.28074 0.1725 0.0
S3110 S 0.1208 0.33532 0.12051 0.0
N3111 N 0.14074 0.3252 0.11456 0.0
N3112 N 0.11461 0.32581 0.14068 0.0
C3113 C 0.12891 0.31355 0.14333 0.0
C3114 C 0.14311 0.31322 0.12915 0.0
C3115 C 0.14426 0.68367 0.86925 0.0
C3116 C 0.15901 0.69675 0.86869 0.0
C3117 C 0.13025 0.68361 0.85538 0.0
C3118 C 0.1306 0.69662 0.84057 0.0
H3119 H 0.14415 0.67272 0.87976 0.0
H3120 H 0.1198 0.67261 0.85564 0.0
S3121 S 0.16401 0.73605 0.83503 0.0
N3122 N 0.17147 0.72471 0.85374 0.0
N3123 N 0.14528 0.72458 0.82782 0.0
C3124 C 0.14436 0.7107 0.84083 0.0
C3125 C 0.15854 0.71076 0.85486 0.0
C3126 C 0.29129 0.15908 0.85363 0.0
C3127 C 0.30365 0.15833 0.86896 0.0
C3128 C 0.29129 0.14517 0.83987 0.0
C3129 C 0.30365 0.12986 0.84077 0.0
H3130 H 0.28197 0.17092 0.85181 0.0
H3131 H 0.28196 0.14688 0.82802 0.0
S3132 S 0.33739 0.12012 0.87911 0.0
N3133 N 0.32747 0.14013 0.88515 0.0
N3134 N 0.32748 0.11386 0.85915 0.0
C3135 C 0.31523 0.12821 0.85665 0.0
C3136 C 0.31522 0.14247 0.87078 0.0
C3137 C 0.86883 0.31453 0.85549 0.0
C3138 C 0.86824 0.30167 0.84055 0.0
C3139 C 0.85502 0.31438 0.86955 0.0
C3140 C 0.84021 0.30136 0.86908 0.0
H3141 H 0.87933 0.32548 0.85572 0.0
H3142 H 0.85531 0.32523 0.88015 0.0
S3143 S 0.8346 0.26241 0.83511 0.0
N3144 N 0.85327 0.27388 0.82775 0.0
N3145 N 0.82744 0.2736 0.85403 0.0
C3146 C 0.84044 0.28748 0.85511 0.0
C3147 C 0.85442 0.28763 0.84087 0.0
C3148 C 0.68492 0.86757 0.8557 0.0
C3149 C 0.6978 0.86677 0.84078 0.0
C3150 C 0.68496 0.85387 0.86987 0.0
C3151 C 0.69789 0.83898 0.86956 0.0
H3152 H 0.67406 0.87816 0.85584 0.0
H3153 H 0.67411 0.85435 0.88047 0.0
S3154 S 0.7368 0.83278 0.83564 0.0
N3155 N 0.72545 0.85146 0.8281 0.0
N3156 N 0.72556 0.82588 0.85462 0.0
C3157 C 0.71177 0.83898 0.85558 0.0
C3158 C 0.71171 0.85283 0.84121 0.0
C3159 C 0.84094 0.71038 0.14427 0.0
C3160 C 0.84162 0.69779 0.12913 0.0
C3161 C 0.85478 0.71043 0.15809 0.0
C3162 C 0.86997 0.6979 0.15743 0.0
H3163 H 0.82917 0.71982 0.14593 0.0
H3164 H 0.8531 0.71991 0.16983 0.0
S3165 S 0.8796 0.66361 0.11957 0.0
N3166 N 0.8597 0.67362 0.11331 0.0
N3167 N 0.88585 0.67373 0.13942 0.0
C3168 C 0.87161 0.68614 0.14169 0.0
C3169 C 0.85741 0.68608 0.12751 0.0
C3170 C 0.31382 0.85516 0.13146 0.0
C3171 C 0.30111 0.8401 0.13199 0.0
C3172 C 0.31356 0.86915 0.14535 0.0
C3173 C 0.30056 0.86849 0.16017 0.0
H3174 H 0.32473 0.85557 0.12092 0.0
H3175 H 0.32428 0.87988 0.14506 0.0
S3176 S 0.26201 0.83403 0.16571 0.0
N3177 N 0.27354 0.82688 0.14698 0.0
N3178 N 0.273 0.85304 0.17293 0.0
C3179 C 0.28685 0.85435 0.15991 0.0
C3180 C 0.28713 0.84018 0.14586 0.0
C3181 C 0.68538 0.14413 0.13033 0.0
C3182 C 0.69865 0.15872 0.13069 0.0
C3183 C 0.68525 0.1302 0.14427 0.0
C3184 C 0.69837 0.13047 0.15899 0.0
H3185 H 0.67434 0.1441 0.11992 0.0
H3186 H 0.67412 0.11989 0.14416 0.0
S3187 S 0.73827 0.1634 0.16403 0.0
N3188 N 0.72688 0.1709 0.14536 0.0
N3189 N 0.72661 0.14487 0.17144 0.0
C3190 C 0.71262 0.14405 0.15854 0.0
C3191 C 0.71277 0.15814 0.14441 0.0
C3192 C 0.64414 0.65856 0.78976 0.0
C3193 C 0.629 0.65765 0.80233 0.0
C3194 C 0.65813 0.64488 0.78968 0.0
C3195 C 0.65764 0.62965 0.80217 0.0
H3196 H 0.64568 0.67038 0.78036 0.0
H3197 H 0.66985 0.64673 0.78022 0.0
S3198 S 0.61985 0.61945 0.83637 0.0
N3199 N 0.61337 0.6393 0.82642 0.0
N3200 N 0.63979 0.61347 0.82627 0.0
C3201 C 0.64191 0.62778 0.81391 0.0
C3202 C 0.62756 0.64181 0.81399 0.0
C3203 C 0.34088 0.64629 0.79019 0.0
C3204 C 0.34162 0.63098 0.80256 0.0
C3205 C 0.3548 0.66003 0.79016 0.0
C3206 C 0.37011 0.65913 0.80253 0.0
H3207 H 0.32903 0.64813 0.78089 0.0
H3208 H 0.35309 0.67188 0.78085 0.0
S3209 S 0.37989 0.62076 0.83622 0.0
N3210 N 0.35985 0.61474 0.82633 0.0
N3211 N 0.38614 0.64071 0.82631 0.0
C3212 C 0.37178 0.64323 0.81409 0.0
C3213 C 0.35751 0.62912 0.81409 0.0
C3214 C 0.35232 0.33892 0.78996 0.0
C3215 C 0.36797 0.33988 0.80189 0.0
C3216 C 0.3385 0.35275 0.79019 0.0
C3217 C 0.33966 0.3682 0.80235 0.0
H3218 H 0.3503 0.32697 0.78083 0.0
H3219 H 0.3264 0.35087 0.78122 0.0
S3220 S 0.37888 0.37857 0.83485 0.0
N3221 N 0.38474 0.35847 0.82502 0.0
N3222 N 0.35862 0.3846 0.82544 0.0
C3223 C 0.35586 0.37009 0.81344 0.0
C3224 C 0.37004 0.3559 0.81321 0.0
C3225 C 0.64735 0.33909 0.79056 0.0
C3226 C 0.63159 0.34012 0.80234 0.0
C3227 C 0.66118 0.35292 0.79084 0.0
C3228 C 0.6599 0.36845 0.8029 0.0
H3229 H 0.64945 0.3271 0.78149 0.0
H3230 H 0.67334 0.35101 0.78197 0.0
S3231 S 0.62043 0.37895 0.83506 0.0
N3232 N 0.61465 0.3588 0.82526 0.0
N3233 N 0.64077 0.38493 0.82578 0.0
C3234 C 0.64363 0.37037 0.81387 0.0
C3235 C 0.62944 0.35618 0.81359 0.0
C3236 C 0.65874 0.35551 0.21011 0.0
C3237 C 0.65808 0.37058 0.19744 0.0
C3238 C 0.6449 0.34167 0.21021 0.0
C3239 C 0.62975 0.34225 0.19763 0.0
H3240 H 0.67048 0.35391 0.2196 0.0
H3241 H 0.64657 0.32999 0.21975 0.0
S3242 S 0.62019 0.37991 0.1631 0.0
N3243 N 0.64005 0.38624 0.17313 0.0
N3244 N 0.61393 0.36011 0.1733 0.0
C3245 C 0.62813 0.35792 0.18577 0.0
C3246 C 0.64233 0.37212 0.18567 0.0
C3247 C 0.64565 0.65792 0.21026 0.0
C3248 C 0.63051 0.65741 0.19767 0.0
C3249 C 0.65948 0.64407 0.21011 0.0
C3250 C 0.6588 0.62906 0.19736 0.0
H3251 H 0.64732 0.66955 0.21986 0.0
H3252 H 0.67121 0.64561 0.2196 0.0
S3253 S 0.62093 0.61992 0.16295 0.0
N3254 N 0.61467 0.63968 0.17325 0.0
N3255 N 0.64078 0.61353 0.17297 0.0
C3256 C 0.64306 0.62759 0.18558 0.0
C3257 C 0.62888 0.64179 0.18574 0.0
C3258 C 0.36957 0.64469 0.18558 0.0
C3259 C 0.3689 0.65963 0.19844 0.0
C3260 C 0.35569 0.6307 0.18557 0.0
C3261 C 0.34074 0.63124 0.19842 0.0
H3262 H 0.3802 0.6444 0.17476 0.0
H3263 H 0.35607 0.62007 0.17475 0.0
S3264 S 0.3348 0.66527 0.23728 0.0
N3265 N 0.35364 0.67254 0.22602 0.0
N3266 N 0.3277 0.64637 0.22601 0.0
C3267 C 0.34085 0.64523 0.21228 0.0
C3268 C 0.3549 0.6594 0.21229 0.0
C3269 C 0.35596 0.34085 0.21052 0.0
C3270 C 0.37091 0.34153 0.19771 0.0
C3271 C 0.34204 0.35461 0.21065 0.0
C3272 C 0.34243 0.36968 0.19797 0.0
H3273 H 0.3545 0.32915 0.22007 0.0
H3274 H 0.33044 0.35292 0.22029 0.0
S3275 S 0.37975 0.37927 0.16308 0.0
N3276 N 0.38628 0.3595 0.17318 0.0
N3277 N 0.36 0.38548 0.17341 0.0
C3278 C 0.358 0.37134 0.18599 0.0
C3279 C 0.37228 0.35723 0.18586 0.0
C3280 C 0.79065 0.66045 0.64612 0.0
C3281 C 0.80308 0.65944 0.63087 0.0
C3282 C 0.79018 0.64647 0.6598 0.0
C3283 C 0.80215 0.63085 0.65892 0.0
H3284 H 0.78162 0.67251 0.64793 0.0
H3285 H 0.78082 0.64838 0.67159 0.0
S3286 S 0.83587 0.62041 0.62074 0.0
N3287 N 0.82652 0.6407 0.61474 0.0
N3288 N 0.82568 0.61433 0.64061 0.0
C3289 C 0.81379 0.62897 0.6431 0.0
C3290 C 0.81425 0.6433 0.62905 0.0
C3291 C 0.33991 0.79094 0.64677 0.0
C3292 C 0.34104 0.80319 0.63138 0.0
C3293 C 0.35371 0.79072 0.66065 0.0
C3294 C 0.36928 0.80276 0.65982 0.0
H3295 H 0.3279 0.78183 0.64853 0.0
H3296 H 0.35172 0.78146 0.67251 0.0
S3297 S 0.38 0.83614 0.62142 0.0
N3298 N 0.35984 0.82659 0.61526 0.0
N3299 N 0.38588 0.8262 0.64147 0.0
C3300 C 0.37127 0.81426 0.64391 0.0
C3301 C 0.35712 0.81447 0.62967 0.0
C3302 C 0.20919 0.33879 0.64572 0.0
C3303 C 0.19698 0.33978 0.63028 0.0
C3304 C 0.20913 0.35252 0.65965 0.0
C3305 C 0.19688 0.36792 0.6588 0.0
H3306 H 0.21843 0.32688 0.64751 0.0
H3307 H 0.21832 0.35062 0.67158 0.0
S3308 S 0.16361 0.37836 0.62024 0.0
N3309 N 0.17345 0.35835 0.61407 0.0
N3310 N 0.17336 0.38431 0.64037 0.0
C3311 C 0.18548 0.36985 0.64282 0.0
C3312 C 0.18552 0.35574 0.62854 0.0
C3313 C 0.65865 0.21006 0.64372 0.0
C3314 C 0.65793 0.1974 0.62864 0.0
C3315 C 0.64481 0.21021 0.65755 0.0
C3316 C 0.6296 0.1977 0.65696 0.0
H3317 H 0.67043 0.21949 0.64533 0.0
H3318 H 0.64651 0.21974 0.66923 0.0
S3319 S 0.61991 0.16322 0.61927 0.0
N3320 N 0.63982 0.17318 0.61295 0.0
N3321 N 0.61368 0.17345 0.63907 0.0
C3322 C 0.62794 0.18585 0.64128 0.0
C3323 C 0.64213 0.1857 0.62709 0.0
C3324 C 0.81355 0.3552 0.36801 0.0
C3325 C 0.8009 0.34008 0.3673 0.0
C3326 C 0.81338 0.36923 0.35416 0.0
C3327 C 0.80055 0.36857 0.33919 0.0
H3328 H 0.82433 0.35564 0.37868 0.0
H3329 H 0.82404 0.38001 0.35462 0.0
S3330 S 0.76225 0.33393 0.33308 0.0
N3331 N 0.77357 0.32679 0.35192 0.0
N3332 N 0.77323 0.35302 0.32605 0.0
C3333 C 0.78691 0.35435 0.33924 0.0
C3334 C 0.7871 0.34014 0.35325 0.0
C3335 C 0.6599 0.7899 0.35388 0.0
C3336 C 0.65915 0.80214 0.36929 0.0
C3337 C 0.64589 0.78986 0.34023 0.0
C3338 C 0.63048 0.80209 0.34132 0.0
H3339 H 0.67181 0.78071 0.3519 0.0
H3340 H 0.64761 0.78064 0.32829 0.0
S3341 S 0.62067 0.83541 0.38 0.0
N3342 N 0.64083 0.82565 0.38582 0.0
N3343 N 0.61438 0.8256 0.36001 0.0
C3344 C 0.62882 0.81351 0.35732 0.0
C3345 C 0.64318 0.81353 0.37133 0.0
C3346 C 0.20936 0.65954 0.35425 0.0
C3347 C 0.19688 0.65879 0.36947 0.0
C3348 C 0.20951 0.6456 0.34052 0.0
C3349 C 0.19717 0.63027 0.34136 0.0
H3350 H 0.21865 0.67141 0.35246 0.0
H3351 H 0.21891 0.64732 0.32873 0.0
S3352 S 0.16321 0.62048 0.37949 0.0
N3353 N 0.17302 0.64054 0.38556 0.0
N3354 N 0.17328 0.61422 0.35962 0.0
C3355 C 0.18551 0.62859 0.35718 0.0
C3356 C 0.18537 0.64288 0.37127 0.0
C3357 C 0.33952 0.20974 0.35427 0.0
C3358 C 0.34051 0.19758 0.36975 0.0
C3359 C 0.3533 0.20967 0.34038 0.0
C3360 C 0.36874 0.19746 0.34131 0.0
H3361 H 0.3276 0.21893 0.35242 0.0
H3362 H 0.35141 0.21881 0.32841 0.0
S3363 S 0.37915 0.16435 0.38001 0.0
N3364 N 0.35909 0.17415 0.3861 0.0
N3365 N 0.38512 0.17405 0.35987 0.0
C3366 C 0.37064 0.18612 0.35734 0.0
C3367 C 0.3565 0.18618 0.37158 0.0
C3368 C 0.66054 0.78954 0.64746 0.0
C3369 C 0.65942 0.80157 0.6319 0.0
C3370 C 0.64658 0.78928 0.66117 0.0
C3371 C 0.63083 0.80106 0.65998 0.0
H3372 H 0.67269 0.78068 0.64951 0.0
H3373 H 0.64858 0.78025 0.6732 0.0
S3374 S 0.62002 0.83367 0.62095 0.0
N3375 N 0.64041 0.82438 0.61518 0.0
N3376 N 0.61406 0.82392 0.64107 0.0
C3377 C 0.62883 0.81227 0.64387 0.0
C3378 C 0.64315 0.81252 0.6298 0.0
C3379 C 0.6309 0.18601 0.35476 0.0
C3380 C 0.63149 0.19897 0.3399 0.0
C3381 C 0.64471 0.18608 0.36882 0.0
C3382 C 0.65951 0.19912 0.36844 0.0
H3383 H 0.62041 0.17505 0.35492 0.0
H3384 H 0.64442 0.17517 0.37936 0.0
S3385 S 0.66511 0.23827 0.33468 0.0
N3386 N 0.64645 0.22682 0.32725 0.0
N3387 N 0.67226 0.22698 0.35355 0.0
C3388 C 0.65927 0.21308 0.35454 0.0
C3389 C 0.6453 0.213 0.3403 0.0
C3390 C 0.79026 0.64545 0.33913 0.0
C3391 C 0.80246 0.63001 0.34002 0.0
C3392 C 0.79043 0.65936 0.35289 0.0
C3393 C 0.80278 0.65847 0.36821 0.0
H3394 H 0.78097 0.64728 0.32728 0.0
H3395 H 0.78124 0.67131 0.35107 0.0
S3396 S 0.83606 0.61986 0.37838 0.0
N3397 N 0.82609 0.61373 0.35842 0.0
N3398 N 0.82637 0.63999 0.38442 0.0
C3399 C 0.81416 0.64247 0.37004 0.0
C3400 C 0.81401 0.62821 0.35592 0.0
C3401 C 0.3706 0.81357 0.35642 0.0
C3402 C 0.37024 0.80036 0.34178 0.0
C3403 C 0.35666 0.81362 0.37037 0.0
C3404 C 0.34197 0.80047 0.37006 0.0
H3405 H 0.38096 0.82465 0.35646 0.0
H3406 H 0.35675 0.82474 0.38069 0.0
S3407 S 0.33701 0.76067 0.33699 0.0
N3408 N 0.35564 0.77213 0.32952 0.0
N3409 N 0.32959 0.77223 0.35558 0.0
C3410 C 0.34246 0.78625 0.35645 0.0
C3411 C 0.35657 0.78619 0.34233 0.0
C3412 C 0.20909 0.35303 0.3402 0.0
C3413 C 0.19696 0.36853 0.34098 0.0
C3414 C 0.20909 0.33939 0.35423 0.0
C3415 C 0.19692 0.34058 0.36968 0.0
H3416 H 0.21823 0.35098 0.32827 0.0
H3417 H 0.21822 0.3274 0.35249 0.0
S3418 S 0.1639 0.37949 0.37957 0.0
N3419 N 0.17363 0.38523 0.35938 0.0
N3420 N 0.17359 0.35944 0.38585 0.0
C3421 C 0.18561 0.35665 0.37136 0.0
C3422 C 0.18563 0.37065 0.35699 0.0
C3423 C 0.35463 0.21043 0.65743 0.0
C3424 C 0.36968 0.19774 0.65676 0.0
C3425 C 0.34079 0.21053 0.6436 0.0
C3426 C 0.34133 0.19793 0.62847 0.0
H3427 H 0.35305 0.21992 0.66917 0.0
H3428 H 0.32912 0.22009 0.64527 0.0
S3429 S 0.37896 0.16337 0.61889 0.0
N3430 N 0.38532 0.17341 0.63874 0.0
N3431 N 0.35917 0.17358 0.61263 0.0
C3432 C 0.357 0.18606 0.62683 0.0
C3433 C 0.37121 0.18597 0.64101 0.0
C3434 C 0.81297 0.36867 0.64439 0.0
C3435 C 0.80024 0.36798 0.65944 0.0
C3436 C 0.81298 0.35472 0.63046 0.0
C3437 C 0.80026 0.33967 0.63117 0.0
H3438 H 0.8237 0.37939 0.64394 0.0
H3439 H 0.82371 0.35515 0.61974 0.0
S3440 S 0.76174 0.33358 0.66556 0.0
N3441 N 0.7729 0.35255 0.67264 0.0
N3442 N 0.77291 0.32647 0.64661 0.0
C3443 C 0.78652 0.33974 0.64528 0.0
C3444 C 0.78651 0.35386 0.65938 0.0
C3445 C 0.20969 0.64755 0.66102 0.0
C3446 C 0.19772 0.63196 0.65976 0.0
C3447 C 0.2097 0.66151 0.64732 0.0
C3448 C 0.19773 0.66055 0.6317 0.0
H3449 H 0.21869 0.64941 0.6731 0.0
H3450 H 0.21871 0.67354 0.64942 0.0
S3451 S 0.16516 0.62158 0.62059 0.0
N3452 N 0.17473 0.61548 0.64075 0.0
N3453 N 0.17473 0.64185 0.61486 0.0
C3454 C 0.18657 0.64443 0.62954 0.0
C3455 C 0.18657 0.6301 0.6436 0.0
loop_
_geom_bond_atom_site_label_1
_geom_bond_atom_site_label_2
_geom_bond_distance
_geom_bond_site_symmetry_2
_ccdc_geom_bond_type
O0 Cd1 2.223 . S
O0 C8 1.315 . S
Cd1 O0 2.223 . S
Cd1 O4 2.297 . S
Cd1 O5 2.439 . S
Cd1 O11 2.240 . S
Cd2 O3 2.240 . S
Cd2 O10 2.223 . S
Cd2 O12 2.297 . S
Cd2 O13 2.439 . S
O3 Cd2 2.240 . S
O3 C8 1.279 . S
O4 Cd1 2.297 . S
O4 C6 1.247 . S
O5 Cd1 2.439 . S
O5 C6 1.208 . S
C6 O4 1.247 . S
C6 O5 1.208 . S
C7 O12 1.247 . S
C7 O13 1.208 . S
C8 O0 1.315 . S
C8 O3 1.279 . S
C9 O10 1.315 . S
C9 O11 1.279 . S
O10 Cd2 2.223 . S
O10 C9 1.315 . S
O11 Cd1 2.240 . S
O11 C9 1.279 . S
O12 Cd2 2.297 . S
O12 C7 1.247 . S
O13 Cd2 2.439 . S
O13 C7 1.208 . S
O14 Cd15 2.223 . S
O14 C22 1.315 . S
Cd15 O14 2.223 . S
Cd15 O18 2.297 . S
Cd15 O19 2.439 . S
Cd15 O25 2.240 . S
Cd16 O17 2.240 . S
Cd16 O24 2.223 . S
Cd16 O26 2.297 . S
Cd16 O27 2.439 . S
O17 Cd16 2.240 . S
O17 C22 1.279 . S
O18 Cd15 2.297 . S
O18 C20 1.247 . S
O19 Cd15 2.439 . S
O19 C20 1.208 . S
C20 O18 1.247 . S
C20 O19 1.208 . S
C21 O26 1.247 . S
C21 O27 1.208 . S
C22 O14 1.315 . S
C22 O17 1.279 . S
C23 O24 1.315 . S
C23 O25 1.279 . S
O24 Cd16 2.223 . S
O24 C23 1.315 . S
O25 Cd15 2.240 . S
O25 C23 1.279 . S
O26 Cd16 2.297 . S
O26 C21 1.247 . S
O27 Cd16 2.439 . S
O27 C21 1.208 . S
O28 Cd29 2.223 . S
O28 C36 1.315 . S
Cd29 O28 2.223 . S
Cd29 O32 2.297 . S
Cd29 O33 2.439 . S
Cd29 O39 2.240 . S
Cd30 O31 2.240 . S
Cd30 O38 2.223 . S
Cd30 O40 2.297 . S
Cd30 O41 2.439 . S
O31 Cd30 2.240 . S
O31 C36 1.279 . S
O32 Cd29 2.297 . S
O32 C34 1.247 . S
O33 Cd29 2.439 . S
O33 C34 1.208 . S
C34 O32 1.247 . S
C34 O33 1.208 . S
C35 O40 1.247 . S
C35 O41 1.208 . S
C36 O28 1.315 . S
C36 O31 1.279 . S
C37 O38 1.315 . S
C37 O39 1.279 . S
O38 Cd30 2.223 . S
O38 C37 1.315 . S
O39 Cd29 2.240 . S
O39 C37 1.279 . S
O40 Cd30 2.297 . S
O40 C35 1.247 . S
O41 Cd30 2.439 . S
O41 C35 1.208 . S
O42 Cd43 2.223 . S
O42 C50 1.315 . S
Cd43 O42 2.223 . S
Cd43 O46 2.297 . S
Cd43 O47 2.439 . S
Cd43 O53 2.240 . S
Cd44 O45 2.240 . S
Cd44 O52 2.223 . S
Cd44 O54 2.297 . S
Cd44 O55 2.439 . S
O45 Cd44 2.240 . S
O45 C50 1.279 . S
O46 Cd43 2.297 . S
O46 C48 1.247 . S
O47 Cd43 2.439 . S
O47 C48 1.208 . S
C48 O46 1.247 . S
C48 O47 1.208 . S
C49 O54 1.247 . S
C49 O55 1.208 . S
C50 O42 1.315 . S
C50 O45 1.279 . S
C51 O52 1.315 . S
C51 O53 1.279 . S
O52 Cd44 2.223 . S
O52 C51 1.315 . S
O53 Cd43 2.240 . S
O53 C51 1.279 . S
O54 Cd44 2.297 . S
O54 C49 1.247 . S
O55 Cd44 2.439 . S
O55 C49 1.208 . S
O56 Cd57 2.223 . S
O56 C64 1.315 . S
Cd57 O56 2.223 . S
Cd57 O60 2.297 . S
Cd57 O61 2.439 . S
Cd57 O67 2.240 . S
Cd58 O59 2.240 . S
Cd58 O66 2.223 . S
Cd58 O68 2.297 . S
Cd58 O69 2.439 . S
O59 Cd58 2.240 . S
O59 C64 1.279 . S
O60 Cd57 2.297 . S
O60 C62 1.247 . S
O61 Cd57 2.439 . S
O61 C62 1.208 . S
C62 O60 1.247 . S
C62 O61 1.208 . S
C63 O68 1.247 . S
C63 O69 1.208 . S
C64 O56 1.315 . S
C64 O59 1.279 . S
C65 O66 1.315 . S
C65 O67 1.279 . S
O66 Cd58 2.223 . S
O66 C65 1.315 . S
O67 Cd57 2.240 . S
O67 C65 1.279 . S
O68 Cd58 2.297 . S
O68 C63 1.247 . S
O69 Cd58 2.439 . S
O69 C63 1.208 . S
O70 Cd71 2.223 . S
O70 C78 1.315 . S
Cd71 O70 2.223 . S
Cd71 O74 2.297 . S
Cd71 O75 2.439 . S
Cd71 O81 2.240 . S
Cd72 O73 2.240 . S
Cd72 O80 2.223 . S
Cd72 O82 2.297 . S
Cd72 O83 2.439 . S
O73 Cd72 2.240 . S
O73 C78 1.279 . S
O74 Cd71 2.297 . S
O74 C76 1.247 . S
O75 Cd71 2.439 . S
O75 C76 1.208 . S
C76 O74 1.247 . S
C76 O75 1.208 . S
C77 O82 1.247 . S
C77 O83 1.208 . S
C78 O70 1.315 . S
C78 O73 1.279 . S
C79 O80 1.315 . S
C79 O81 1.279 . S
O80 Cd72 2.223 . S
O80 C79 1.315 . S
O81 Cd71 2.240 . S
O81 C79 1.279 . S
O82 Cd72 2.297 . S
O82 C77 1.247 . S
O83 Cd72 2.439 . S
O83 C77 1.208 . S
O84 Cd85 2.223 . S
O84 C92 1.315 . S
Cd85 O84 2.223 . S
Cd85 O88 2.297 . S
Cd85 O89 2.439 . S
Cd85 O95 2.240 . S
Cd86 O87 2.240 . S
Cd86 O94 2.223 . S
Cd86 O96 2.297 . S
Cd86 O97 2.439 . S
O87 Cd86 2.240 . S
O87 C92 1.279 . S
O88 Cd85 2.297 . S
O88 C90 1.247 . S
O89 Cd85 2.439 . S
O89 C90 1.208 . S
C90 O88 1.247 . S
C90 O89 1.208 . S
C91 O96 1.247 . S
C91 O97 1.208 . S
C92 O84 1.315 . S
C92 O87 1.279 . S
C93 O94 1.315 . S
C93 O95 1.279 . S
O94 Cd86 2.223 . S
O94 C93 1.315 . S
O95 Cd85 2.240 . S
O95 C93 1.279 . S
O96 Cd86 2.297 . S
O96 C91 1.247 . S
O97 Cd86 2.439 . S
O97 C91 1.208 . S
O98 Cd99 2.223 . S
O98 C106 1.315 . S
Cd99 O98 2.223 . S
Cd99 O102 2.297 . S
Cd99 O103 2.439 . S
Cd99 O109 2.240 . S
Cd100 O101 2.240 . S
Cd100 O108 2.223 . S
Cd100 O110 2.297 . S
Cd100 O111 2.439 . S
O101 Cd100 2.240 . S
O101 C106 1.279 . S
O102 Cd99 2.297 . S
O102 C104 1.247 . S
O103 Cd99 2.439 . S
O103 C104 1.208 . S
C104 O102 1.247 . S
C104 O103 1.208 . S
C105 O110 1.247 . S
C105 O111 1.208 . S
C106 O98 1.315 . S
C106 O101 1.279 . S
C107 O108 1.315 . S
C107 O109 1.279 . S
O108 Cd100 2.223 . S
O108 C107 1.315 . S
O109 Cd99 2.240 . S
O109 C107 1.279 . S
O110 Cd100 2.297 . S
O110 C105 1.247 . S
O111 Cd100 2.439 . S
O111 C105 1.208 . S
O112 Cd113 2.223 . S
O112 C120 1.315 . S
Cd113 O112 2.223 . S
Cd113 O116 2.297 . S
Cd113 O117 2.439 . S
Cd113 O123 2.240 . S
Cd114 O115 2.240 . S
Cd114 O122 2.223 . S
Cd114 O124 2.297 . S
Cd114 O125 2.439 . S
O115 Cd114 2.240 . S
O115 C120 1.279 . S
O116 Cd113 2.297 . S
O116 C118 1.247 . S
O117 Cd113 2.439 . S
O117 C118 1.208 . S
C118 O116 1.247 . S
C118 O117 1.208 . S
C119 O124 1.247 . S
C119 O125 1.208 . S
C120 O112 1.315 . S
C120 O115 1.279 . S
C121 O122 1.315 . S
C121 O123 1.279 . S
O122 Cd114 2.223 . S
O122 C121 1.315 . S
O123 Cd113 2.240 . S
O123 C121 1.279 . S
O124 Cd114 2.297 . S
O124 C119 1.247 . S
O125 Cd114 2.439 . S
O125 C119 1.208 . S
O126 Cd127 2.223 . S
O126 C134 1.315 . S
Cd127 O126 2.223 . S
Cd127 O130 2.297 . S
Cd127 O131 2.439 . S
Cd127 O137 2.240 . S
Cd128 O129 2.240 . S
Cd128 O136 2.223 . S
Cd128 O138 2.297 . S
Cd128 O139 2.439 . S
O129 Cd128 2.240 . S
O129 C134 1.279 . S
O130 Cd127 2.297 . S
O130 C132 1.247 . S
O131 Cd127 2.439 . S
O131 C132 1.208 . S
C132 O130 1.247 . S
C132 O131 1.208 . S
C133 O138 1.247 . S
C133 O139 1.208 . S
C134 O126 1.315 . S
C134 O129 1.279 . S
C135 O136 1.315 . S
C135 O137 1.279 . S
O136 Cd128 2.223 . S
O136 C135 1.315 . S
O137 Cd127 2.240 . S
O137 C135 1.279 . S
O138 Cd128 2.297 . S
O138 C133 1.247 . S
O139 Cd128 2.439 . S
O139 C133 1.208 . S
O140 Cd141 2.223 . S
O140 C148 1.315 . S
Cd141 O140 2.223 . S
Cd141 O144 2.297 . S
Cd141 O145 2.439 . S
Cd141 O151 2.240 . S
Cd142 O143 2.240 . S
Cd142 O150 2.223 . S
Cd142 O152 2.297 . S
Cd142 O153 2.439 . S
O143 Cd142 2.240 . S
O143 C148 1.279 . S
O144 Cd141 2.297 . S
O144 C146 1.247 . S
O145 Cd141 2.439 . S
O145 C146 1.208 . S
C146 O144 1.247 . S
C146 O145 1.208 . S
C147 O152 1.247 . S
C147 O153 1.208 . S
C148 O140 1.315 . S
C148 O143 1.279 . S
C149 O150 1.315 . S
C149 O151 1.279 . S
O150 Cd142 2.223 . S
O150 C149 1.315 . S
O151 Cd141 2.240 . S
O151 C149 1.279 . S
O152 Cd142 2.297 . S
O152 C147 1.247 . S
O153 Cd142 2.439 . S
O153 C147 1.208 . S
O154 Cd155 2.223 . S
O154 C162 1.315 . S
Cd155 O154 2.223 . S
Cd155 O158 2.297 . S
Cd155 O159 2.439 . S
Cd155 O165 2.240 . S
Cd156 O157 2.240 . S
Cd156 O164 2.223 . S
Cd156 O166 2.297 . S
Cd156 O167 2.439 . S
O157 Cd156 2.240 . S
O157 C162 1.279 . S
O158 Cd155 2.297 . S
O158 C160 1.247 . S
O159 Cd155 2.439 . S
O159 C160 1.208 . S
C160 O158 1.247 . S
C160 O159 1.208 . S
C161 O166 1.247 . S
C161 O167 1.208 . S
C162 O154 1.315 . S
C162 O157 1.279 . S
C163 O164 1.315 . S
C163 O165 1.279 . S
O164 Cd156 2.223 . S
O164 C163 1.315 . S
O165 Cd155 2.240 . S
O165 C163 1.279 . S
O166 Cd156 2.297 . S
O166 C161 1.247 . S
O167 Cd156 2.439 . S
O167 C161 1.208 . S
O168 Cd169 2.223 . S
O168 C176 1.315 . S
Cd169 O168 2.223 . S
Cd169 O172 2.297 . S
Cd169 O173 2.439 . S
Cd169 O179 2.240 . S
Cd170 O171 2.240 . S
Cd170 O178 2.223 . S
Cd170 O180 2.297 . S
Cd170 O181 2.439 . S
O171 Cd170 2.240 . S
O171 C176 1.279 . S
O172 Cd169 2.297 . S
O172 C174 1.247 . S
O173 Cd169 2.439 . S
O173 C174 1.208 . S
C174 O172 1.247 . S
C174 O173 1.208 . S
C175 O180 1.247 . S
C175 O181 1.208 . S
C176 O168 1.315 . S
C176 O171 1.279 . S
C177 O178 1.315 . S
C177 O179 1.279 . S
O178 Cd170 2.223 . S
O178 C177 1.315 . S
O179 Cd169 2.240 . S
O179 C177 1.279 . S
O180 Cd170 2.297 . S
O180 C175 1.247 . S
O181 Cd170 2.439 . S
O181 C175 1.208 . S
O182 Cd183 2.223 . S
O182 C190 1.315 . S
Cd183 O182 2.223 . S
Cd183 O186 2.297 . S
Cd183 O187 2.439 . S
Cd183 O193 2.240 . S
Cd184 O185 2.240 . S
Cd184 O192 2.223 . S
Cd184 O194 2.297 . S
Cd184 O195 2.439 . S
O185 Cd184 2.240 . S
O185 C190 1.279 . S
O186 Cd183 2.297 . S
O186 C188 1.247 . S
O187 Cd183 2.439 . S
O187 C188 1.208 . S
C188 O186 1.247 . S
C188 O187 1.208 . S
C189 O194 1.247 . S
C189 O195 1.208 . S
C190 O182 1.315 . S
C190 O185 1.279 . S
C191 O192 1.315 . S
C191 O193 1.279 . S
O192 Cd184 2.223 . S
O192 C191 1.315 . S
O193 Cd183 2.240 . S
O193 C191 1.279 . S
O194 Cd184 2.297 . S
O194 C189 1.247 . S
O195 Cd184 2.439 . S
O195 C189 1.208 . S
O196 Cd197 2.223 . S
O196 C204 1.315 . S
Cd197 O196 2.223 . S
Cd197 O200 2.297 . S
Cd197 O201 2.439 . S
Cd197 O207 2.240 . S
Cd198 O199 2.240 . S
Cd198 O206 2.223 . S
Cd198 O208 2.297 . S
Cd198 O209 2.439 . S
O199 Cd198 2.240 . S
O199 C204 1.279 . S
O200 Cd197 2.297 . S
O200 C202 1.247 . S
O201 Cd197 2.439 . S
O201 C202 1.208 . S
C202 O200 1.247 . S
C202 O201 1.208 . S
C203 O208 1.247 . S
C203 O209 1.208 . S
C204 O196 1.315 . S
C204 O199 1.279 . S
C205 O206 1.315 . S
C205 O207 1.279 . S
O206 Cd198 2.223 . S
O206 C205 1.315 . S
O207 Cd197 2.240 . S
O207 C205 1.279 . S
O208 Cd198 2.297 . S
O208 C203 1.247 . S
O209 Cd198 2.439 . S
O209 C203 1.208 . S
O210 Cd211 2.223 . S
O210 C218 1.315 . S
Cd211 O210 2.223 . S
Cd211 O214 2.297 . S
Cd211 O215 2.439 . S
Cd211 O221 2.240 . S
Cd212 O213 2.240 . S
Cd212 O220 2.223 . S
Cd212 O222 2.297 . S
Cd212 O223 2.439 . S
O213 Cd212 2.240 . S
O213 C218 1.279 . S
O214 Cd211 2.297 . S
O214 C216 1.247 . S
O215 Cd211 2.439 . S
O215 C216 1.208 . S
C216 O214 1.247 . S
C216 O215 1.208 . S
C217 O222 1.247 . S
C217 O223 1.208 . S
C218 O210 1.315 . S
C218 O213 1.279 . S
C219 O220 1.315 . S
C219 O221 1.279 . S
O220 Cd212 2.223 . S
O220 C219 1.315 . S
O221 Cd211 2.240 . S
O221 C219 1.279 . S
O222 Cd212 2.297 . S
O222 C217 1.247 . S
O223 Cd212 2.439 . S
O223 C217 1.208 . S
O224 Cd225 2.223 . S
O224 C232 1.315 . S
Cd225 O224 2.223 . S
Cd225 O228 2.297 . S
Cd225 O229 2.439 . S
Cd225 O235 2.240 . S
Cd226 O227 2.240 . S
Cd226 O234 2.223 . S
Cd226 O236 2.297 . S
Cd226 O237 2.439 . S
O227 Cd226 2.240 . S
O227 C232 1.279 . S
O228 Cd225 2.297 . S
O228 C230 1.247 . S
O229 Cd225 2.439 . S
O229 C230 1.208 . S
C230 O228 1.247 . S
C230 O229 1.208 . S
C231 O236 1.247 . S
C231 O237 1.208 . S
C232 O224 1.315 . S
C232 O227 1.279 . S
C233 O234 1.315 . S
C233 O235 1.279 . S
O234 Cd226 2.223 . S
O234 C233 1.315 . S
O235 Cd225 2.240 . S
O235 C233 1.279 . S
O236 Cd226 2.297 . S
O236 C231 1.247 . S
O237 Cd226 2.439 . S
O237 C231 1.208 . S
O238 Cd239 2.223 . S
O238 C246 1.315 . S
Cd239 O238 2.223 . S
Cd239 O242 2.297 . S
Cd239 O243 2.439 . S
Cd239 O249 2.240 . S
Cd240 O241 2.240 . S
Cd240 O248 2.223 . S
Cd240 O250 2.297 . S
Cd240 O251 2.439 . S
O241 Cd240 2.240 . S
O241 C246 1.279 . S
O242 Cd239 2.297 . S
O242 C244 1.247 . S
O243 Cd239 2.439 . S
O243 C244 1.208 . S
C244 O242 1.247 . S
C244 O243 1.208 . S
C245 O250 1.247 . S
C245 O251 1.208 . S
C246 O238 1.315 . S
C246 O241 1.279 . S
C247 O248 1.315 . S
C247 O249 1.279 . S
O248 Cd240 2.223 . S
O248 C247 1.315 . S
O249 Cd239 2.240 . S
O249 C247 1.279 . S
O250 Cd240 2.297 . S
O250 C245 1.247 . S
O251 Cd240 2.439 . S
O251 C245 1.208 . S
O252 Cd253 2.223 . S
O252 C260 1.315 . S
Cd253 O252 2.223 . S
Cd253 O256 2.297 . S
Cd253 O257 2.439 . S
Cd253 O263 2.240 . S
Cd254 O255 2.240 . S
Cd254 O262 2.223 . S
Cd254 O264 2.297 . S
Cd254 O265 2.439 . S
O255 Cd254 2.240 . S
O255 C260 1.279 . S
O256 Cd253 2.297 . S
O256 C258 1.247 . S
O257 Cd253 2.439 . S
O257 C258 1.208 . S
C258 O256 1.247 . S
C258 O257 1.208 . S
C259 O264 1.247 . S
C259 O265 1.208 . S
C260 O252 1.315 . S
C260 O255 1.279 . S
C261 O262 1.315 . S
C261 O263 1.279 . S
O262 Cd254 2.223 . S
O262 C261 1.315 . S
O263 Cd253 2.240 . S
O263 C261 1.279 . S
O264 Cd254 2.297 . S
O264 C259 1.247 . S
O265 Cd254 2.439 . S
O265 C259 1.208 . S
O266 Cd267 2.223 . S
O266 C274 1.315 . S
Cd267 O266 2.223 . S
Cd267 O270 2.297 . S
Cd267 O271 2.439 . S
Cd267 O277 2.240 . S
Cd268 O269 2.240 . S
Cd268 O276 2.223 . S
Cd268 O278 2.297 . S
Cd268 O279 2.439 . S
O269 Cd268 2.240 . S
O269 C274 1.279 . S
O270 Cd267 2.297 . S
O270 C272 1.247 . S
O271 Cd267 2.439 . S
O271 C272 1.208 . S
C272 O270 1.247 . S
C272 O271 1.208 . S
C273 O278 1.247 . S
C273 O279 1.208 . S
C274 O266 1.315 . S
C274 O269 1.279 . S
C275 O276 1.315 . S
C275 O277 1.279 . S
O276 Cd268 2.223 . S
O276 C275 1.315 . S
O277 Cd267 2.240 . S
O277 C275 1.279 . S
O278 Cd268 2.297 . S
O278 C273 1.247 . S
O279 Cd268 2.439 . S
O279 C273 1.208 . S
O280 Cd281 2.223 . S
O280 C288 1.315 . S
Cd281 O280 2.223 . S
Cd281 O284 2.297 . S
Cd281 O285 2.439 . S
Cd281 O291 2.240 . S
Cd282 O283 2.240 . S
Cd282 O290 2.223 . S
Cd282 O292 2.297 . S
Cd282 O293 2.439 . S
O283 Cd282 2.240 . S
O283 C288 1.279 . S
O284 Cd281 2.297 . S
O284 C286 1.247 . S
O285 Cd281 2.439 . S
O285 C286 1.208 . S
C286 O284 1.247 . S
C286 O285 1.208 . S
C287 O292 1.247 . S
C287 O293 1.208 . S
C288 O280 1.315 . S
C288 O283 1.279 . S
C289 O290 1.315 . S
C289 O291 1.279 . S
O290 Cd282 2.223 . S
O290 C289 1.315 . S
O291 Cd281 2.240 . S
O291 C289 1.279 . S
O292 Cd282 2.297 . S
O292 C287 1.247 . S
O293 Cd282 2.439 . S
O293 C287 1.208 . S
O294 Cd295 2.223 . S
O294 C302 1.315 . S
Cd295 O294 2.223 . S
Cd295 O298 2.297 . S
Cd295 O299 2.439 . S
Cd295 O305 2.240 . S
Cd296 O297 2.240 . S
Cd296 O304 2.223 . S
Cd296 O306 2.297 . S
Cd296 O307 2.439 . S
O297 Cd296 2.240 . S
O297 C302 1.279 . S
O298 Cd295 2.297 . S
O298 C300 1.247 . S
O299 Cd295 2.439 . S
O299 C300 1.208 . S
C300 O298 1.247 . S
C300 O299 1.208 . S
C301 O306 1.247 . S
C301 O307 1.208 . S
C302 O294 1.315 . S
C302 O297 1.279 . S
C303 O304 1.315 . S
C303 O305 1.279 . S
O304 Cd296 2.223 . S
O304 C303 1.315 . S
O305 Cd295 2.240 . S
O305 C303 1.279 . S
O306 Cd296 2.297 . S
O306 C301 1.247 . S
O307 Cd296 2.439 . S
O307 C301 1.208 . S
O308 Cd309 2.223 . S
O308 C316 1.315 . S
Cd309 O308 2.223 . S
Cd309 O312 2.297 . S
Cd309 O313 2.439 . S
Cd309 O319 2.240 . S
Cd310 O311 2.240 . S
Cd310 O318 2.223 . S
Cd310 O320 2.297 . S
Cd310 O321 2.439 . S
O311 Cd310 2.240 . S
O311 C316 1.279 . S
O312 Cd309 2.297 . S
O312 C314 1.247 . S
O313 Cd309 2.439 . S
O313 C314 1.208 . S
C314 O312 1.247 . S
C314 O313 1.208 . S
C315 O320 1.247 . S
C315 O321 1.208 . S
C316 O308 1.315 . S
C316 O311 1.279 . S
C317 O318 1.315 . S
C317 O319 1.279 . S
O318 Cd310 2.223 . S
O318 C317 1.315 . S
O319 Cd309 2.240 . S
O319 C317 1.279 . S
O320 Cd310 2.297 . S
O320 C315 1.247 . S
O321 Cd310 2.439 . S
O321 C315 1.208 . S
O322 Cd323 2.223 . S
O322 C330 1.315 . S
Cd323 O322 2.223 . S
Cd323 O326 2.297 . S
Cd323 O327 2.439 . S
Cd323 O333 2.240 . S
Cd324 O325 2.240 . S
Cd324 O332 2.223 . S
Cd324 O334 2.297 . S
Cd324 O335 2.439 . S
O325 Cd324 2.240 . S
O325 C330 1.279 . S
O326 Cd323 2.297 . S
O326 C328 1.247 . S
O327 Cd323 2.439 . S
O327 C328 1.208 . S
C328 O326 1.247 . S
C328 O327 1.208 . S
C329 O334 1.247 . S
C329 O335 1.208 . S
C330 O322 1.315 . S
C330 O325 1.279 . S
C331 O332 1.315 . S
C331 O333 1.279 . S
O332 Cd324 2.223 . S
O332 C331 1.315 . S
O333 Cd323 2.240 . S
O333 C331 1.279 . S
O334 Cd324 2.297 . S
O334 C329 1.247 . S
O335 Cd324 2.439 . S
O335 C329 1.208 . S
O336 Cd337 2.223 . S
O336 C344 1.315 . S
Cd337 O336 2.223 . S
Cd337 O340 2.297 . S
Cd337 O341 2.439 . S
Cd337 O347 2.240 . S
Cd338 O339 2.240 . S
Cd338 O346 2.223 . S
Cd338 O348 2.297 . S
Cd338 O349 2.439 . S
O339 Cd338 2.240 . S
O339 C344 1.279 . S
O340 Cd337 2.297 . S
O340 C342 1.247 . S
O341 Cd337 2.439 . S
O341 C342 1.208 . S
C342 O340 1.247 . S
C342 O341 1.208 . S
C343 O348 1.247 . S
C343 O349 1.208 . S
C344 O336 1.315 . S
C344 O339 1.279 . S
C345 O346 1.315 . S
C345 O347 1.279 . S
O346 Cd338 2.223 . S
O346 C345 1.315 . S
O347 Cd337 2.240 . S
O347 C345 1.279 . S
O348 Cd338 2.297 . S
O348 C343 1.247 . S
O349 Cd338 2.439 . S
O349 C343 1.208 . S
O350 Cd351 2.223 . S
O350 C358 1.315 . S
Cd351 O350 2.223 . S
Cd351 O354 2.297 . S
Cd351 O355 2.439 . S
Cd351 O361 2.240 . S
Cd352 O353 2.240 . S
Cd352 O360 2.223 . S
Cd352 O362 2.297 . S
Cd352 O363 2.439 . S
O353 Cd352 2.240 . S
O353 C358 1.279 . S
O354 Cd351 2.297 . S
O354 C356 1.247 . S
O355 Cd351 2.439 . S
O355 C356 1.208 . S
C356 O354 1.247 . S
C356 O355 1.208 . S
C357 O362 1.247 . S
C357 O363 1.208 . S
C358 O350 1.315 . S
C358 O353 1.279 . S
C359 O360 1.315 . S
C359 O361 1.279 . S
O360 Cd352 2.223 . S
O360 C359 1.315 . S
O361 Cd351 2.240 . S
O361 C359 1.279 . S
O362 Cd352 2.297 . S
O362 C357 1.247 . S
O363 Cd352 2.439 . S
O363 C357 1.208 . S
O364 Cd365 2.223 . S
O364 C372 1.315 . S
Cd365 O364 2.223 . S
Cd365 O368 2.297 . S
Cd365 O369 2.439 . S
Cd365 O375 2.240 . S
Cd366 O367 2.240 . S
Cd366 O374 2.223 . S
Cd366 O376 2.297 . S
Cd366 O377 2.439 . S
O367 Cd366 2.240 . S
O367 C372 1.279 . S
O368 Cd365 2.297 . S
O368 C370 1.247 . S
O369 Cd365 2.439 . S
O369 C370 1.208 . S
C370 O368 1.247 . S
C370 O369 1.208 . S
C371 O376 1.247 . S
C371 O377 1.208 . S
C372 O364 1.315 . S
C372 O367 1.279 . S
C373 O374 1.315 . S
C373 O375 1.279 . S
O374 Cd366 2.223 . S
O374 C373 1.315 . S
O375 Cd365 2.240 . S
O375 C373 1.279 . S
O376 Cd366 2.297 . S
O376 C371 1.247 . S
O377 Cd366 2.439 . S
O377 C371 1.208 . S
O378 Cd379 2.223 . S
O378 C386 1.315 . S
Cd379 O378 2.223 . S
Cd379 O382 2.297 . S
Cd379 O383 2.439 . S
Cd379 O389 2.240 . S
Cd380 O381 2.240 . S
Cd380 O388 2.223 . S
Cd380 O390 2.297 . S
Cd380 O391 2.439 . S
O381 Cd380 2.240 . S
O381 C386 1.279 . S
O382 Cd379 2.297 . S
O382 C384 1.247 . S
O383 Cd379 2.439 . S
O383 C384 1.208 . S
C384 O382 1.247 . S
C384 O383 1.208 . S
C385 O390 1.247 . S
C385 O391 1.208 . S
C386 O378 1.315 . S
C386 O381 1.279 . S
C387 O388 1.315 . S
C387 O389 1.279 . S
O388 Cd380 2.223 . S
O388 C387 1.315 . S
O389 Cd379 2.240 . S
O389 C387 1.279 . S
O390 Cd380 2.297 . S
O390 C385 1.247 . S
O391 Cd380 2.439 . S
O391 C385 1.208 . S
O392 Cd393 2.223 . S
O392 C400 1.315 . S
Cd393 O392 2.223 . S
Cd393 O396 2.297 . S
Cd393 O397 2.439 . S
Cd393 O403 2.240 . S
Cd394 O395 2.240 . S
Cd394 O402 2.223 . S
Cd394 O404 2.297 . S
Cd394 O405 2.439 . S
O395 Cd394 2.240 . S
O395 C400 1.279 . S
O396 Cd393 2.297 . S
O396 C398 1.247 . S
O397 Cd393 2.439 . S
O397 C398 1.208 . S
C398 O396 1.247 . S
C398 O397 1.208 . S
C399 O404 1.247 . S
C399 O405 1.208 . S
C400 O392 1.315 . S
C400 O395 1.279 . S
C401 O402 1.315 . S
C401 O403 1.279 . S
O402 Cd394 2.223 . S
O402 C401 1.315 . S
O403 Cd393 2.240 . S
O403 C401 1.279 . S
O404 Cd394 2.297 . S
O404 C399 1.247 . S
O405 Cd394 2.439 . S
O405 C399 1.208 . S
O406 Cd407 2.223 . S
O406 C414 1.315 . S
Cd407 O406 2.223 . S
Cd407 O410 2.297 . S
Cd407 O411 2.439 . S
Cd407 O417 2.240 . S
Cd408 O409 2.240 . S
Cd408 O416 2.223 . S
Cd408 O418 2.297 . S
Cd408 O419 2.439 . S
O409 Cd408 2.240 . S
O409 C414 1.279 . S
O410 Cd407 2.297 . S
O410 C412 1.247 . S
O411 Cd407 2.439 . S
O411 C412 1.208 . S
C412 O410 1.247 . S
C412 O411 1.208 . S
C413 O418 1.247 . S
C413 O419 1.208 . S
C414 O406 1.315 . S
C414 O409 1.279 . S
C415 O416 1.315 . S
C415 O417 1.279 . S
O416 Cd408 2.223 . S
O416 C415 1.315 . S
O417 Cd407 2.240 . S
O417 C415 1.279 . S
O418 Cd408 2.297 . S
O418 C413 1.247 . S
O419 Cd408 2.439 . S
O419 C413 1.208 . S
O420 Cd421 2.223 . S
O420 C428 1.315 . S
Cd421 O420 2.223 . S
Cd421 O424 2.297 . S
Cd421 O425 2.439 . S
Cd421 O431 2.240 . S
Cd422 O423 2.240 . S
Cd422 O430 2.223 . S
Cd422 O432 2.297 . S
Cd422 O433 2.439 . S
O423 Cd422 2.240 . S
O423 C428 1.279 . S
O424 Cd421 2.297 . S
O424 C426 1.247 . S
O425 Cd421 2.439 . S
O425 C426 1.208 . S
C426 O424 1.247 . S
C426 O425 1.208 . S
C427 O432 1.247 . S
C427 O433 1.208 . S
C428 O420 1.315 . S
C428 O423 1.279 . S
C429 O430 1.315 . S
C429 O431 1.279 . S
O430 Cd422 2.223 . S
O430 C429 1.315 . S
O431 Cd421 2.240 . S
O431 C429 1.279 . S
O432 Cd422 2.297 . S
O432 C427 1.247 . S
O433 Cd422 2.439 . S
O433 C427 1.208 . S
O434 Cd435 2.223 . S
O434 C442 1.315 . S
Cd435 O434 2.223 . S
Cd435 O438 2.297 . S
Cd435 O439 2.439 . S
Cd435 O445 2.240 . S
Cd436 O437 2.240 . S
Cd436 O444 2.223 . S
Cd436 O446 2.297 . S
Cd436 O447 2.439 . S
O437 Cd436 2.240 . S
O437 C442 1.279 . S
O438 Cd435 2.297 . S
O438 C440 1.247 . S
O439 Cd435 2.439 . S
O439 C440 1.208 . S
C440 O438 1.247 . S
C440 O439 1.208 . S
C441 O446 1.247 . S
C441 O447 1.208 . S
C442 O434 1.315 . S
C442 O437 1.279 . S
C443 O444 1.315 . S
C443 O445 1.279 . S
O444 Cd436 2.223 . S
O444 C443 1.315 . S
O445 Cd435 2.240 . S
O445 C443 1.279 . S
O446 Cd436 2.297 . S
O446 C441 1.247 . S
O447 Cd436 2.439 . S
O447 C441 1.208 . S
O448 Cd449 2.223 . S
O448 C456 1.315 . S
Cd449 O448 2.223 . S
Cd449 O452 2.297 . S
Cd449 O453 2.439 . S
Cd449 O459 2.240 . S
Cd450 O451 2.240 . S
Cd450 O458 2.223 . S
Cd450 O460 2.297 . S
Cd450 O461 2.439 . S
O451 Cd450 2.240 . S
O451 C456 1.279 . S
O452 Cd449 2.297 . S
O452 C454 1.247 . S
O453 Cd449 2.439 . S
O453 C454 1.208 . S
C454 O452 1.247 . S
C454 O453 1.208 . S
C455 O460 1.247 . S
C455 O461 1.208 . S
C456 O448 1.315 . S
C456 O451 1.279 . S
C457 O458 1.315 . S
C457 O459 1.279 . S
O458 Cd450 2.223 . S
O458 C457 1.315 . S
O459 Cd449 2.240 . S
O459 C457 1.279 . S
O460 Cd450 2.297 . S
O460 C455 1.247 . S
O461 Cd450 2.439 . S
O461 C455 1.208 . S
O462 Cd463 2.223 . S
O462 C470 1.315 . S
Cd463 O462 2.223 . S
Cd463 O466 2.297 . S
Cd463 O467 2.439 . S
Cd463 O473 2.240 . S
Cd464 O465 2.240 . S
Cd464 O472 2.223 . S
Cd464 O474 2.297 . S
Cd464 O475 2.439 . S
O465 Cd464 2.240 . S
O465 C470 1.279 . S
O466 Cd463 2.297 . S
O466 C468 1.247 . S
O467 Cd463 2.439 . S
O467 C468 1.208 . S
C468 O466 1.247 . S
C468 O467 1.208 . S
C469 O474 1.247 . S
C469 O475 1.208 . S
C470 O462 1.315 . S
C470 O465 1.279 . S
C471 O472 1.315 . S
C471 O473 1.279 . S
O472 Cd464 2.223 . S
O472 C471 1.315 . S
O473 Cd463 2.240 . S
O473 C471 1.279 . S
O474 Cd464 2.297 . S
O474 C469 1.247 . S
O475 Cd464 2.439 . S
O475 C469 1.208 . S
O476 Cd477 2.223 . S
O476 C484 1.315 . S
Cd477 O476 2.223 . S
Cd477 O480 2.297 . S
Cd477 O481 2.439 . S
Cd477 O487 2.240 . S
Cd478 O479 2.240 . S
Cd478 O486 2.223 . S
Cd478 O488 2.297 . S
Cd478 O489 2.439 . S
O479 Cd478 2.240 . S
O479 C484 1.279 . S
O480 Cd477 2.297 . S
O480 C482 1.247 . S
O481 Cd477 2.439 . S
O481 C482 1.208 . S
C482 O480 1.247 . S
C482 O481 1.208 . S
C483 O488 1.247 . S
C483 O489 1.208 . S
C484 O476 1.315 . S
C484 O479 1.279 . S
C485 O486 1.315 . S
C485 O487 1.279 . S
O486 Cd478 2.223 . S
O486 C485 1.315 . S
O487 Cd477 2.240 . S
O487 C485 1.279 . S
O488 Cd478 2.297 . S
O488 C483 1.247 . S
O489 Cd478 2.439 . S
O489 C483 1.208 . S
O490 Cd491 2.223 . S
O490 C498 1.315 . S
Cd491 O490 2.223 . S
Cd491 O494 2.297 . S
Cd491 O495 2.439 . S
Cd491 O501 2.240 . S
Cd492 O493 2.240 . S
Cd492 O500 2.223 . S
Cd492 O502 2.297 . S
Cd492 O503 2.439 . S
O493 Cd492 2.240 . S
O493 C498 1.279 . S
O494 Cd491 2.297 . S
O494 C496 1.247 . S
O495 Cd491 2.439 . S
O495 C496 1.208 . S
C496 O494 1.247 . S
C496 O495 1.208 . S
C497 O502 1.247 . S
C497 O503 1.208 . S
C498 O490 1.315 . S
C498 O493 1.279 . S
C499 O500 1.315 . S
C499 O501 1.279 . S
O500 Cd492 2.223 . S
O500 C499 1.315 . S
O501 Cd491 2.240 . S
O501 C499 1.279 . S
O502 Cd492 2.297 . S
O502 C497 1.247 . S
O503 Cd492 2.439 . S
O503 C497 1.208 . S
O504 Cd505 2.223 . S
O504 C512 1.315 . S
Cd505 O504 2.223 . S
Cd505 O508 2.297 . S
Cd505 O509 2.439 . S
Cd505 O515 2.240 . S
Cd506 O507 2.240 . S
Cd506 O514 2.223 . S
Cd506 O516 2.297 . S
Cd506 O517 2.439 . S
O507 Cd506 2.240 . S
O507 C512 1.279 . S
O508 Cd505 2.297 . S
O508 C510 1.247 . S
O509 Cd505 2.439 . S
O509 C510 1.208 . S
C510 O508 1.247 . S
C510 O509 1.208 . S
C511 O516 1.247 . S
C511 O517 1.208 . S
C512 O504 1.315 . S
C512 O507 1.279 . S
C513 O514 1.315 . S
C513 O515 1.279 . S
O514 Cd506 2.223 . S
O514 C513 1.315 . S
O515 Cd505 2.240 . S
O515 C513 1.279 . S
O516 Cd506 2.297 . S
O516 C511 1.247 . S
O517 Cd506 2.439 . S
O517 C511 1.208 . S
O518 Cd519 2.223 . S
O518 C526 1.315 . S
Cd519 O518 2.223 . S
Cd519 O522 2.297 . S
Cd519 O523 2.439 . S
Cd519 O529 2.240 . S
Cd520 O521 2.240 . S
Cd520 O528 2.223 . S
Cd520 O530 2.297 . S
Cd520 O531 2.439 . S
O521 Cd520 2.240 . S
O521 C526 1.279 . S
O522 Cd519 2.297 . S
O522 C524 1.247 . S
O523 Cd519 2.439 . S
O523 C524 1.208 . S
C524 O522 1.247 . S
C524 O523 1.208 . S
C525 O530 1.247 . S
C525 O531 1.208 . S
C526 O518 1.315 . S
C526 O521 1.279 . S
C527 O528 1.315 . S
C527 O529 1.279 . S
O528 Cd520 2.223 . S
O528 C527 1.315 . S
O529 Cd519 2.240 . S
O529 C527 1.279 . S
O530 Cd520 2.297 . S
O530 C525 1.247 . S
O531 Cd520 2.439 . S
O531 C525 1.208 . S
O532 Cd533 2.223 . S
O532 C540 1.315 . S
Cd533 O532 2.223 . S
Cd533 O536 2.297 . S
Cd533 O537 2.439 . S
Cd533 O543 2.240 . S
Cd534 O535 2.240 . S
Cd534 O542 2.223 . S
Cd534 O544 2.297 . S
Cd534 O545 2.439 . S
O535 Cd534 2.240 . S
O535 C540 1.279 . S
O536 Cd533 2.297 . S
O536 C538 1.247 . S
O537 Cd533 2.439 . S
O537 C538 1.208 . S
C538 O536 1.247 . S
C538 O537 1.208 . S
C539 O544 1.247 . S
C539 O545 1.208 . S
C540 O532 1.315 . S
C540 O535 1.279 . S
C541 O542 1.315 . S
C541 O543 1.279 . S
O542 Cd534 2.223 . S
O542 C541 1.315 . S
O543 Cd533 2.240 . S
O543 C541 1.279 . S
O544 Cd534 2.297 . S
O544 C539 1.247 . S
O545 Cd534 2.439 . S
O545 C539 1.208 . S
O546 Cd547 2.223 . S
O546 C554 1.315 . S
Cd547 O546 2.223 . S
Cd547 O550 2.297 . S
Cd547 O551 2.439 . S
Cd547 O557 2.240 . S
Cd548 O549 2.240 . S
Cd548 O556 2.223 . S
Cd548 O558 2.297 . S
Cd548 O559 2.439 . S
O549 Cd548 2.240 . S
O549 C554 1.279 . S
O550 Cd547 2.297 . S
O550 C552 1.247 . S
O551 Cd547 2.439 . S
O551 C552 1.208 . S
C552 O550 1.247 . S
C552 O551 1.208 . S
C553 O558 1.247 . S
C553 O559 1.208 . S
C554 O546 1.315 . S
C554 O549 1.279 . S
C555 O556 1.315 . S
C555 O557 1.279 . S
O556 Cd548 2.223 . S
O556 C555 1.315 . S
O557 Cd547 2.240 . S
O557 C555 1.279 . S
O558 Cd548 2.297 . S
O558 C553 1.247 . S
O559 Cd548 2.439 . S
O559 C553 1.208 . S
O560 Cd561 2.223 . S
O560 C568 1.315 . S
Cd561 O560 2.223 . S
Cd561 O564 2.297 . S
Cd561 O565 2.439 . S
Cd561 O571 2.240 . S
Cd562 O563 2.240 . S
Cd562 O570 2.223 . S
Cd562 O572 2.297 . S
Cd562 O573 2.439 . S
O563 Cd562 2.240 . S
O563 C568 1.279 . S
O564 Cd561 2.297 . S
O564 C566 1.247 . S
O565 Cd561 2.439 . S
O565 C566 1.208 . S
C566 O564 1.247 . S
C566 O565 1.208 . S
C567 O572 1.247 . S
C567 O573 1.208 . S
C568 O560 1.315 . S
C568 O563 1.279 . S
C569 O570 1.315 . S
C569 O571 1.279 . S
O570 Cd562 2.223 . S
O570 C569 1.315 . S
O571 Cd561 2.240 . S
O571 C569 1.279 . S
O572 Cd562 2.297 . S
O572 C567 1.247 . S
O573 Cd562 2.439 . S
O573 C567 1.208 . S
O574 Cd575 2.223 . S
O574 C582 1.315 . S
Cd575 O574 2.223 . S
Cd575 O578 2.297 . S
Cd575 O579 2.439 . S
Cd575 O585 2.240 . S
Cd576 O577 2.240 . S
Cd576 O584 2.223 . S
Cd576 O586 2.297 . S
Cd576 O587 2.439 . S
O577 Cd576 2.240 . S
O577 C582 1.279 . S
O578 Cd575 2.297 . S
O578 C580 1.247 . S
O579 Cd575 2.439 . S
O579 C580 1.208 . S
C580 O578 1.247 . S
C580 O579 1.208 . S
C581 O586 1.247 . S
C581 O587 1.208 . S
C582 O574 1.315 . S
C582 O577 1.279 . S
C583 O584 1.315 . S
C583 O585 1.279 . S
O584 Cd576 2.223 . S
O584 C583 1.315 . S
O585 Cd575 2.240 . S
O585 C583 1.279 . S
O586 Cd576 2.297 . S
O586 C581 1.247 . S
O587 Cd576 2.439 . S
O587 C581 1.208 . S
O588 Cd589 2.223 . S
O588 C596 1.315 . S
Cd589 O588 2.223 . S
Cd589 O592 2.297 . S
Cd589 O593 2.439 . S
Cd589 O599 2.240 . S
Cd590 O591 2.240 . S
Cd590 O598 2.223 . S
Cd590 O600 2.297 . S
Cd590 O601 2.439 . S
O591 Cd590 2.240 . S
O591 C596 1.279 . S
O592 Cd589 2.297 . S
O592 C594 1.247 . S
O593 Cd589 2.439 . S
O593 C594 1.208 . S
C594 O592 1.247 . S
C594 O593 1.208 . S
C595 O600 1.247 . S
C595 O601 1.208 . S
C596 O588 1.315 . S
C596 O591 1.279 . S
C597 O598 1.315 . S
C597 O599 1.279 . S
O598 Cd590 2.223 . S
O598 C597 1.315 . S
O599 Cd589 2.240 . S
O599 C597 1.279 . S
O600 Cd590 2.297 . S
O600 C595 1.247 . S
O601 Cd590 2.439 . S
O601 C595 1.208 . S
O602 Cd603 2.223 . S
O602 C610 1.315 . S
Cd603 O602 2.223 . S
Cd603 O606 2.297 . S
Cd603 O607 2.439 . S
Cd603 O613 2.240 . S
Cd604 O605 2.240 . S
Cd604 O612 2.223 . S
Cd604 O614 2.297 . S
Cd604 O615 2.439 . S
O605 Cd604 2.240 . S
O605 C610 1.279 . S
O606 Cd603 2.297 . S
O606 C608 1.247 . S
O607 Cd603 2.439 . S
O607 C608 1.208 . S
C608 O606 1.247 . S
C608 O607 1.208 . S
C609 O614 1.247 . S
C609 O615 1.208 . S
C610 O602 1.315 . S
C610 O605 1.279 . S
C611 O612 1.315 . S
C611 O613 1.279 . S
O612 Cd604 2.223 . S
O612 C611 1.315 . S
O613 Cd603 2.240 . S
O613 C611 1.279 . S
O614 Cd604 2.297 . S
O614 C609 1.247 . S
O615 Cd604 2.439 . S
O615 C609 1.208 . S
O616 Cd617 2.223 . S
O616 C624 1.315 . S
Cd617 O616 2.223 . S
Cd617 O620 2.297 . S
Cd617 O621 2.439 . S
Cd617 O627 2.240 . S
Cd618 O619 2.240 . S
Cd618 O626 2.223 . S
Cd618 O628 2.297 . S
Cd618 O629 2.439 . S
O619 Cd618 2.240 . S
O619 C624 1.279 . S
O620 Cd617 2.297 . S
O620 C622 1.247 . S
O621 Cd617 2.439 . S
O621 C622 1.208 . S
C622 O620 1.247 . S
C622 O621 1.208 . S
C623 O628 1.247 . S
C623 O629 1.208 . S
C624 O616 1.315 . S
C624 O619 1.279 . S
C625 O626 1.315 . S
C625 O627 1.279 . S
O626 Cd618 2.223 . S
O626 C625 1.315 . S
O627 Cd617 2.240 . S
O627 C625 1.279 . S
O628 Cd618 2.297 . S
O628 C623 1.247 . S
O629 Cd618 2.439 . S
O629 C623 1.208 . S
O630 Cd631 2.223 . S
O630 C638 1.315 . S
Cd631 O630 2.223 . S
Cd631 O634 2.297 . S
Cd631 O635 2.439 . S
Cd631 O641 2.240 . S
Cd632 O633 2.240 . S
Cd632 O640 2.223 . S
Cd632 O642 2.297 . S
Cd632 O643 2.439 . S
O633 Cd632 2.240 . S
O633 C638 1.279 . S
O634 Cd631 2.297 . S
O634 C636 1.247 . S
O635 Cd631 2.439 . S
O635 C636 1.208 . S
C636 O634 1.247 . S
C636 O635 1.208 . S
C637 O642 1.247 . S
C637 O643 1.208 . S
C638 O630 1.315 . S
C638 O633 1.279 . S
C639 O640 1.315 . S
C639 O641 1.279 . S
O640 Cd632 2.223 . S
O640 C639 1.315 . S
O641 Cd631 2.240 . S
O641 C639 1.279 . S
O642 Cd632 2.297 . S
O642 C637 1.247 . S
O643 Cd632 2.439 . S
O643 C637 1.208 . S
O644 Cd645 2.223 . S
O644 C652 1.315 . S
Cd645 O644 2.223 . S
Cd645 O648 2.297 . S
Cd645 O649 2.439 . S
Cd645 O655 2.240 . S
Cd646 O647 2.240 . S
Cd646 O654 2.223 . S
Cd646 O656 2.297 . S
Cd646 O657 2.439 . S
O647 Cd646 2.240 . S
O647 C652 1.279 . S
O648 Cd645 2.297 . S
O648 C650 1.247 . S
O649 Cd645 2.439 . S
O649 C650 1.208 . S
C650 O648 1.247 . S
C650 O649 1.208 . S
C651 O656 1.247 . S
C651 O657 1.208 . S
C652 O644 1.315 . S
C652 O647 1.279 . S
C653 O654 1.315 . S
C653 O655 1.279 . S
O654 Cd646 2.223 . S
O654 C653 1.315 . S
O655 Cd645 2.240 . S
O655 C653 1.279 . S
O656 Cd646 2.297 . S
O656 C651 1.247 . S
O657 Cd646 2.439 . S
O657 C651 1.208 . S
O658 Cd659 2.223 . S
O658 C666 1.315 . S
Cd659 O658 2.223 . S
Cd659 O662 2.297 . S
Cd659 O663 2.439 . S
Cd659 O669 2.240 . S
Cd660 O661 2.240 . S
Cd660 O668 2.223 . S
Cd660 O670 2.297 . S
Cd660 O671 2.439 . S
O661 Cd660 2.240 . S
O661 C666 1.279 . S
O662 Cd659 2.297 . S
O662 C664 1.247 . S
O663 Cd659 2.439 . S
O663 C664 1.208 . S
C664 O662 1.247 . S
C664 O663 1.208 . S
C665 O670 1.247 . S
C665 O671 1.208 . S
C666 O658 1.315 . S
C666 O661 1.279 . S
C667 O668 1.315 . S
C667 O669 1.279 . S
O668 Cd660 2.223 . S
O668 C667 1.315 . S
O669 Cd659 2.240 . S
O669 C667 1.279 . S
O670 Cd660 2.297 . S
O670 C665 1.247 . S
O671 Cd660 2.439 . S
O671 C665 1.208 . S
O672 Cd673 2.223 . S
O672 C680 1.315 . S
Cd673 O672 2.223 . S
Cd673 O676 2.297 . S
Cd673 O677 2.439 . S
Cd673 O683 2.240 . S
Cd674 O675 2.240 . S
Cd674 O682 2.223 . S
Cd674 O684 2.297 . S
Cd674 O685 2.439 . S
O675 Cd674 2.240 . S
O675 C680 1.279 . S
O676 Cd673 2.297 . S
O676 C678 1.247 . S
O677 Cd673 2.439 . S
O677 C678 1.208 . S
C678 O676 1.247 . S
C678 O677 1.208 . S
C679 O684 1.247 . S
C679 O685 1.208 . S
C680 O672 1.315 . S
C680 O675 1.279 . S
C681 O682 1.315 . S
C681 O683 1.279 . S
O682 Cd674 2.223 . S
O682 C681 1.315 . S
O683 Cd673 2.240 . S
O683 C681 1.279 . S
O684 Cd674 2.297 . S
O684 C679 1.247 . S
O685 Cd674 2.439 . S
O685 C679 1.208 . S
O686 Cd687 2.223 . S
O686 C694 1.315 . S
Cd687 O686 2.223 . S
Cd687 O690 2.297 . S
Cd687 O691 2.439 . S
Cd687 O697 2.240 . S
Cd688 O689 2.240 . S
Cd688 O696 2.223 . S
Cd688 O698 2.297 . S
Cd688 O699 2.439 . S
O689 Cd688 2.240 . S
O689 C694 1.279 . S
O690 Cd687 2.297 . S
O690 C692 1.247 . S
O691 Cd687 2.439 . S
O691 C692 1.208 . S
C692 O690 1.247 . S
C692 O691 1.208 . S
C693 O698 1.247 . S
C693 O699 1.208 . S
C694 O686 1.315 . S
C694 O689 1.279 . S
C695 O696 1.315 . S
C695 O697 1.279 . S
O696 Cd688 2.223 . S
O696 C695 1.315 . S
O697 Cd687 2.240 . S
O697 C695 1.279 . S
O698 Cd688 2.297 . S
O698 C693 1.247 . S
O699 Cd688 2.439 . S
O699 C693 1.208 . S
O700 Cd701 2.223 . S
O700 C708 1.315 . S
Cd701 O700 2.223 . S
Cd701 O704 2.297 . S
Cd701 O705 2.439 . S
Cd701 O711 2.240 . S
Cd702 O703 2.240 . S
Cd702 O710 2.223 . S
Cd702 O712 2.297 . S
Cd702 O713 2.439 . S
O703 Cd702 2.240 . S
O703 C708 1.279 . S
O704 Cd701 2.297 . S
O704 C706 1.247 . S
O705 Cd701 2.439 . S
O705 C706 1.208 . S
C706 O704 1.247 . S
C706 O705 1.208 . S
C707 O712 1.247 . S
C707 O713 1.208 . S
C708 O700 1.315 . S
C708 O703 1.279 . S
C709 O710 1.315 . S
C709 O711 1.279 . S
O710 Cd702 2.223 . S
O710 C709 1.315 . S
O711 Cd701 2.240 . S
O711 C709 1.279 . S
O712 Cd702 2.297 . S
O712 C707 1.247 . S
O713 Cd702 2.439 . S
O713 C707 1.208 . S
O714 Cd715 2.223 . S
O714 C722 1.315 . S
Cd715 O714 2.223 . S
Cd715 O718 2.297 . S
Cd715 O719 2.439 . S
Cd715 O725 2.240 . S
Cd716 O717 2.240 . S
Cd716 O724 2.223 . S
Cd716 O726 2.297 . S
Cd716 O727 2.439 . S
O717 Cd716 2.240 . S
O717 C722 1.279 . S
O718 Cd715 2.297 . S
O718 C720 1.247 . S
O719 Cd715 2.439 . S
O719 C720 1.208 . S
C720 O718 1.247 . S
C720 O719 1.208 . S
C721 O726 1.247 . S
C721 O727 1.208 . S
C722 O714 1.315 . S
C722 O717 1.279 . S
C723 O724 1.315 . S
C723 O725 1.279 . S
O724 Cd716 2.223 . S
O724 C723 1.315 . S
O725 Cd715 2.240 . S
O725 C723 1.279 . S
O726 Cd716 2.297 . S
O726 C721 1.247 . S
O727 Cd716 2.439 . S
O727 C721 1.208 . S
O728 Cd729 2.223 . S
O728 C736 1.315 . S
Cd729 O728 2.223 . S
Cd729 O732 2.297 . S
Cd729 O733 2.439 . S
Cd729 O739 2.240 . S
Cd730 O731 2.240 . S
Cd730 O738 2.223 . S
Cd730 O740 2.297 . S
Cd730 O741 2.439 . S
O731 Cd730 2.240 . S
O731 C736 1.279 . S
O732 Cd729 2.297 . S
O732 C734 1.247 . S
O733 Cd729 2.439 . S
O733 C734 1.208 . S
C734 O732 1.247 . S
C734 O733 1.208 . S
C735 O740 1.247 . S
C735 O741 1.208 . S
C736 O728 1.315 . S
C736 O731 1.279 . S
C737 O738 1.315 . S
C737 O739 1.279 . S
O738 Cd730 2.223 . S
O738 C737 1.315 . S
O739 Cd729 2.240 . S
O739 C737 1.279 . S
O740 Cd730 2.297 . S
O740 C735 1.247 . S
O741 Cd730 2.439 . S
O741 C735 1.208 . S
O742 Cd743 2.223 . S
O742 C750 1.315 . S
Cd743 O742 2.223 . S
Cd743 O746 2.297 . S
Cd743 O747 2.439 . S
Cd743 O753 2.240 . S
Cd744 O745 2.240 . S
Cd744 O752 2.223 . S
Cd744 O754 2.297 . S
Cd744 O755 2.439 . S
O745 Cd744 2.240 . S
O745 C750 1.279 . S
O746 Cd743 2.297 . S
O746 C748 1.247 . S
O747 Cd743 2.439 . S
O747 C748 1.208 . S
C748 O746 1.247 . S
C748 O747 1.208 . S
C749 O754 1.247 . S
C749 O755 1.208 . S
C750 O742 1.315 . S
C750 O745 1.279 . S
C751 O752 1.315 . S
C751 O753 1.279 . S
O752 Cd744 2.223 . S
O752 C751 1.315 . S
O753 Cd743 2.240 . S
O753 C751 1.279 . S
O754 Cd744 2.297 . S
O754 C749 1.247 . S
O755 Cd744 2.439 . S
O755 C749 1.208 . S
O756 Cd757 2.223 . S
O756 C764 1.315 . S
Cd757 O756 2.223 . S
Cd757 O760 2.297 . S
Cd757 O761 2.439 . S
Cd757 O767 2.240 . S
Cd758 O759 2.240 . S
Cd758 O766 2.223 . S
Cd758 O768 2.297 . S
Cd758 O769 2.439 . S
O759 Cd758 2.240 . S
O759 C764 1.279 . S
O760 Cd757 2.297 . S
O760 C762 1.247 . S
O761 Cd757 2.439 . S
O761 C762 1.208 . S
C762 O760 1.247 . S
C762 O761 1.208 . S
C763 O768 1.247 . S
C763 O769 1.208 . S
C764 O756 1.315 . S
C764 O759 1.279 . S
C765 O766 1.315 . S
C765 O767 1.279 . S
O766 Cd758 2.223 . S
O766 C765 1.315 . S
O767 Cd757 2.240 . S
O767 C765 1.279 . S
O768 Cd758 2.297 . S
O768 C763 1.247 . S
O769 Cd758 2.439 . S
O769 C763 1.208 . S
O770 Cd771 2.223 . S
O770 C778 1.315 . S
Cd771 O770 2.223 . S
Cd771 O774 2.297 . S
Cd771 O775 2.439 . S
Cd771 O781 2.240 . S
Cd772 O773 2.240 . S
Cd772 O780 2.223 . S
Cd772 O782 2.297 . S
Cd772 O783 2.439 . S
O773 Cd772 2.240 . S
O773 C778 1.279 . S
O774 Cd771 2.297 . S
O774 C776 1.247 . S
O775 Cd771 2.439 . S
O775 C776 1.208 . S
C776 O774 1.247 . S
C776 O775 1.208 . S
C777 O782 1.247 . S
C777 O783 1.208 . S
C778 O770 1.315 . S
C778 O773 1.279 . S
C779 O780 1.315 . S
C779 O781 1.279 . S
O780 Cd772 2.223 . S
O780 C779 1.315 . S
O781 Cd771 2.240 . S
O781 C779 1.279 . S
O782 Cd772 2.297 . S
O782 C777 1.247 . S
O783 Cd772 2.439 . S
O783 C777 1.208 . S
O784 Cd785 2.223 . S
O784 C792 1.315 . S
Cd785 O784 2.223 . S
Cd785 O788 2.297 . S
Cd785 O789 2.439 . S
Cd785 O795 2.240 . S
Cd786 O787 2.240 . S
Cd786 O794 2.223 . S
Cd786 O796 2.297 . S
Cd786 O797 2.439 . S
O787 Cd786 2.240 . S
O787 C792 1.279 . S
O788 Cd785 2.297 . S
O788 C790 1.247 . S
O789 Cd785 2.439 . S
O789 C790 1.208 . S
C790 O788 1.247 . S
C790 O789 1.208 . S
C791 O796 1.247 . S
C791 O797 1.208 . S
C792 O784 1.315 . S
C792 O787 1.279 . S
C793 O794 1.315 . S
C793 O795 1.279 . S
O794 Cd786 2.223 . S
O794 C793 1.315 . S
O795 Cd785 2.240 . S
O795 C793 1.279 . S
O796 Cd786 2.297 . S
O796 C791 1.247 . S
O797 Cd786 2.439 . S
O797 C791 1.208 . S
O798 Cd799 2.223 . S
O798 C806 1.315 . S
Cd799 O798 2.223 . S
Cd799 O802 2.297 . S
Cd799 O803 2.439 . S
Cd799 O809 2.240 . S
Cd800 O801 2.240 . S
Cd800 O808 2.223 . S
Cd800 O810 2.297 . S
Cd800 O811 2.439 . S
O801 Cd800 2.240 . S
O801 C806 1.279 . S
O802 Cd799 2.297 . S
O802 C804 1.247 . S
O803 Cd799 2.439 . S
O803 C804 1.208 . S
C804 O802 1.247 . S
C804 O803 1.208 . S
C805 O810 1.247 . S
C805 O811 1.208 . S
C806 O798 1.315 . S
C806 O801 1.279 . S
C807 O808 1.315 . S
C807 O809 1.279 . S
O808 Cd800 2.223 . S
O808 C807 1.315 . S
O809 Cd799 2.240 . S
O809 C807 1.279 . S
O810 Cd800 2.297 . S
O810 C805 1.247 . S
O811 Cd800 2.439 . S
O811 C805 1.208 . S
O812 Cd813 2.223 . S
O812 C820 1.315 . S
Cd813 O812 2.223 . S
Cd813 O816 2.297 . S
Cd813 O817 2.439 . S
Cd813 O823 2.240 . S
Cd814 O815 2.240 . S
Cd814 O822 2.223 . S
Cd814 O824 2.297 . S
Cd814 O825 2.439 . S
O815 Cd814 2.240 . S
O815 C820 1.279 . S
O816 Cd813 2.297 . S
O816 C818 1.247 . S
O817 Cd813 2.439 . S
O817 C818 1.208 . S
C818 O816 1.247 . S
C818 O817 1.208 . S
C819 O824 1.247 . S
C819 O825 1.208 . S
C820 O812 1.315 . S
C820 O815 1.279 . S
C821 O822 1.315 . S
C821 O823 1.279 . S
O822 Cd814 2.223 . S
O822 C821 1.315 . S
O823 Cd813 2.240 . S
O823 C821 1.279 . S
O824 Cd814 2.297 . S
O824 C819 1.247 . S
O825 Cd814 2.439 . S
O825 C819 1.208 . S
O826 Cd827 2.223 . S
O826 C834 1.315 . S
Cd827 O826 2.223 . S
Cd827 O830 2.297 . S
Cd827 O831 2.439 . S
Cd827 O837 2.240 . S
Cd828 O829 2.240 . S
Cd828 O836 2.223 . S
Cd828 O838 2.297 . S
Cd828 O839 2.439 . S
O829 Cd828 2.240 . S
O829 C834 1.279 . S
O830 Cd827 2.297 . S
O830 C832 1.247 . S
O831 Cd827 2.439 . S
O831 C832 1.208 . S
C832 O830 1.247 . S
C832 O831 1.208 . S
C833 O838 1.247 . S
C833 O839 1.208 . S
C834 O826 1.315 . S
C834 O829 1.279 . S
C835 O836 1.315 . S
C835 O837 1.279 . S
O836 Cd828 2.223 . S
O836 C835 1.315 . S
O837 Cd827 2.240 . S
O837 C835 1.279 . S
O838 Cd828 2.297 . S
O838 C833 1.247 . S
O839 Cd828 2.439 . S
O839 C833 1.208 . S
O840 Cd841 2.223 . S
O840 C848 1.315 . S
Cd841 O840 2.223 . S
Cd841 O844 2.297 . S
Cd841 O845 2.439 . S
Cd841 O851 2.240 . S
Cd842 O843 2.240 . S
Cd842 O850 2.223 . S
Cd842 O852 2.297 . S
Cd842 O853 2.439 . S
O843 Cd842 2.240 . S
O843 C848 1.279 . S
O844 Cd841 2.297 . S
O844 C846 1.247 . S
O845 Cd841 2.439 . S
O845 C846 1.208 . S
C846 O844 1.247 . S
C846 O845 1.208 . S
C847 O852 1.247 . S
C847 O853 1.208 . S
C848 O840 1.315 . S
C848 O843 1.279 . S
C849 O850 1.315 . S
C849 O851 1.279 . S
O850 Cd842 2.223 . S
O850 C849 1.315 . S
O851 Cd841 2.240 . S
O851 C849 1.279 . S
O852 Cd842 2.297 . S
O852 C847 1.247 . S
O853 Cd842 2.439 . S
O853 C847 1.208 . S
O854 Cd855 2.223 . S
O854 C862 1.315 . S
Cd855 O854 2.223 . S
Cd855 O858 2.297 . S
Cd855 O859 2.439 . S
Cd855 O865 2.240 . S
Cd856 O857 2.240 . S
Cd856 O864 2.223 . S
Cd856 O866 2.297 . S
Cd856 O867 2.439 . S
O857 Cd856 2.240 . S
O857 C862 1.279 . S
O858 Cd855 2.297 . S
O858 C860 1.247 . S
O859 Cd855 2.439 . S
O859 C860 1.208 . S
C860 O858 1.247 . S
C860 O859 1.208 . S
C861 O866 1.247 . S
C861 O867 1.208 . S
C862 O854 1.315 . S
C862 O857 1.279 . S
C863 O864 1.315 . S
C863 O865 1.279 . S
O864 Cd856 2.223 . S
O864 C863 1.315 . S
O865 Cd855 2.240 . S
O865 C863 1.279 . S
O866 Cd856 2.297 . S
O866 C861 1.247 . S
O867 Cd856 2.439 . S
O867 C861 1.208 . S
O868 Cd869 2.223 . S
O868 C876 1.315 . S
Cd869 O868 2.223 . S
Cd869 O872 2.297 . S
Cd869 O873 2.439 . S
Cd869 O879 2.240 . S
Cd870 O871 2.240 . S
Cd870 O878 2.223 . S
Cd870 O880 2.297 . S
Cd870 O881 2.439 . S
O871 Cd870 2.240 . S
O871 C876 1.279 . S
O872 Cd869 2.297 . S
O872 C874 1.247 . S
O873 Cd869 2.439 . S
O873 C874 1.208 . S
C874 O872 1.247 . S
C874 O873 1.208 . S
C875 O880 1.247 . S
C875 O881 1.208 . S
C876 O868 1.315 . S
C876 O871 1.279 . S
C877 O878 1.315 . S
C877 O879 1.279 . S
O878 Cd870 2.223 . S
O878 C877 1.315 . S
O879 Cd869 2.240 . S
O879 C877 1.279 . S
O880 Cd870 2.297 . S
O880 C875 1.247 . S
O881 Cd870 2.439 . S
O881 C875 1.208 . S
O882 Cd883 2.223 . S
O882 C890 1.315 . S
Cd883 O882 2.223 . S
Cd883 O886 2.297 . S
Cd883 O887 2.439 . S
Cd883 O893 2.240 . S
Cd884 O885 2.240 . S
Cd884 O892 2.223 . S
Cd884 O894 2.297 . S
Cd884 O895 2.439 . S
O885 Cd884 2.240 . S
O885 C890 1.279 . S
O886 Cd883 2.297 . S
O886 C888 1.247 . S
O887 Cd883 2.439 . S
O887 C888 1.208 . S
C888 O886 1.247 . S
C888 O887 1.208 . S
C889 O894 1.247 . S
C889 O895 1.208 . S
C890 O882 1.315 . S
C890 O885 1.279 . S
C891 O892 1.315 . S
C891 O893 1.279 . S
O892 Cd884 2.223 . S
O892 C891 1.315 . S
O893 Cd883 2.240 . S
O893 C891 1.279 . S
O894 Cd884 2.297 . S
O894 C889 1.247 . S
O895 Cd884 2.439 . S
O895 C889 1.208 . S
O896 Cd897 2.223 . S
O896 C904 1.315 . S
Cd897 O896 2.223 . S
Cd897 O900 2.297 . S
Cd897 O901 2.439 . S
Cd897 O907 2.240 . S
Cd898 O899 2.240 . S
Cd898 O906 2.223 . S
Cd898 O908 2.297 . S
Cd898 O909 2.439 . S
O899 Cd898 2.240 . S
O899 C904 1.279 . S
O900 Cd897 2.297 . S
O900 C902 1.247 . S
O901 Cd897 2.439 . S
O901 C902 1.208 . S
C902 O900 1.247 . S
C902 O901 1.208 . S
C903 O908 1.247 . S
C903 O909 1.208 . S
C904 O896 1.315 . S
C904 O899 1.279 . S
C905 O906 1.315 . S
C905 O907 1.279 . S
O906 Cd898 2.223 . S
O906 C905 1.315 . S
O907 Cd897 2.240 . S
O907 C905 1.279 . S
O908 Cd898 2.297 . S
O908 C903 1.247 . S
O909 Cd898 2.439 . S
O909 C903 1.208 . S
O910 Cd911 2.223 . S
O910 C918 1.315 . S
Cd911 O910 2.223 . S
Cd911 O914 2.297 . S
Cd911 O915 2.439 . S
Cd911 O921 2.240 . S
Cd912 O913 2.240 . S
Cd912 O920 2.223 . S
Cd912 O922 2.297 . S
Cd912 O923 2.439 . S
O913 Cd912 2.240 . S
O913 C918 1.279 . S
O914 Cd911 2.297 . S
O914 C916 1.247 . S
O915 Cd911 2.439 . S
O915 C916 1.208 . S
C916 O914 1.247 . S
C916 O915 1.208 . S
C917 O922 1.247 . S
C917 O923 1.208 . S
C918 O910 1.315 . S
C918 O913 1.279 . S
C919 O920 1.315 . S
C919 O921 1.279 . S
O920 Cd912 2.223 . S
O920 C919 1.315 . S
O921 Cd911 2.240 . S
O921 C919 1.279 . S
O922 Cd912 2.297 . S
O922 C917 1.247 . S
O923 Cd912 2.439 . S
O923 C917 1.208 . S
O924 Cd925 2.223 . S
O924 C932 1.315 . S
Cd925 O924 2.223 . S
Cd925 O928 2.297 . S
Cd925 O929 2.439 . S
Cd925 O935 2.240 . S
Cd926 O927 2.240 . S
Cd926 O934 2.223 . S
Cd926 O936 2.297 . S
Cd926 O937 2.439 . S
O927 Cd926 2.240 . S
O927 C932 1.279 . S
O928 Cd925 2.297 . S
O928 C930 1.247 . S
O929 Cd925 2.439 . S
O929 C930 1.208 . S
C930 O928 1.247 . S
C930 O929 1.208 . S
C931 O936 1.247 . S
C931 O937 1.208 . S
C932 O924 1.315 . S
C932 O927 1.279 . S
C933 O934 1.315 . S
C933 O935 1.279 . S
O934 Cd926 2.223 . S
O934 C933 1.315 . S
O935 Cd925 2.240 . S
O935 C933 1.279 . S
O936 Cd926 2.297 . S
O936 C931 1.247 . S
O937 Cd926 2.439 . S
O937 C931 1.208 . S
O938 Cd939 2.223 . S
O938 C946 1.315 . S
Cd939 O938 2.223 . S
Cd939 O942 2.297 . S
Cd939 O943 2.439 . S
Cd939 O949 2.240 . S
Cd940 O941 2.240 . S
Cd940 O948 2.223 . S
Cd940 O950 2.297 . S
Cd940 O951 2.439 . S
O941 Cd940 2.240 . S
O941 C946 1.279 . S
O942 Cd939 2.297 . S
O942 C944 1.247 . S
O943 Cd939 2.439 . S
O943 C944 1.208 . S
C944 O942 1.247 . S
C944 O943 1.208 . S
C945 O950 1.247 . S
C945 O951 1.208 . S
C946 O938 1.315 . S
C946 O941 1.279 . S
C947 O948 1.315 . S
C947 O949 1.279 . S
O948 Cd940 2.223 . S
O948 C947 1.315 . S
O949 Cd939 2.240 . S
O949 C947 1.279 . S
O950 Cd940 2.297 . S
O950 C945 1.247 . S
O951 Cd940 2.439 . S
O951 C945 1.208 . S
O952 Cd953 2.223 . S
O952 C960 1.315 . S
Cd953 O952 2.223 . S
Cd953 O956 2.297 . S
Cd953 O957 2.439 . S
Cd953 O963 2.240 . S
Cd954 O955 2.240 . S
Cd954 O962 2.223 . S
Cd954 O964 2.297 . S
Cd954 O965 2.439 . S
O955 Cd954 2.240 . S
O955 C960 1.279 . S
O956 Cd953 2.297 . S
O956 C958 1.247 . S
O957 Cd953 2.439 . S
O957 C958 1.208 . S
C958 O956 1.247 . S
C958 O957 1.208 . S
C959 O964 1.247 . S
C959 O965 1.208 . S
C960 O952 1.315 . S
C960 O955 1.279 . S
C961 O962 1.315 . S
C961 O963 1.279 . S
O962 Cd954 2.223 . S
O962 C961 1.315 . S
O963 Cd953 2.240 . S
O963 C961 1.279 . S
O964 Cd954 2.297 . S
O964 C959 1.247 . S
O965 Cd954 2.439 . S
O965 C959 1.208 . S
O966 Cd967 2.223 . S
O966 C974 1.315 . S
Cd967 O966 2.223 . S
Cd967 O970 2.297 . S
Cd967 O971 2.439 . S
Cd967 O977 2.240 . S
Cd968 O969 2.240 . S
Cd968 O976 2.223 . S
Cd968 O978 2.297 . S
Cd968 O979 2.439 . S
O969 Cd968 2.240 . S
O969 C974 1.279 . S
O970 Cd967 2.297 . S
O970 C972 1.247 . S
O971 Cd967 2.439 . S
O971 C972 1.208 . S
C972 O970 1.247 . S
C972 O971 1.208 . S
C973 O978 1.247 . S
C973 O979 1.208 . S
C974 O966 1.315 . S
C974 O969 1.279 . S
C975 O976 1.315 . S
C975 O977 1.279 . S
O976 Cd968 2.223 . S
O976 C975 1.315 . S
O977 Cd967 2.240 . S
O977 C975 1.279 . S
O978 Cd968 2.297 . S
O978 C973 1.247 . S
O979 Cd968 2.439 . S
O979 C973 1.208 . S
O980 Cd981 2.223 . S
O980 C988 1.315 . S
Cd981 O980 2.223 . S
Cd981 O984 2.297 . S
Cd981 O985 2.439 . S
Cd981 O991 2.240 . S
Cd982 O983 2.240 . S
Cd982 O990 2.223 . S
Cd982 O992 2.297 . S
Cd982 O993 2.439 . S
O983 Cd982 2.240 . S
O983 C988 1.279 . S
O984 Cd981 2.297 . S
O984 C986 1.247 . S
O985 Cd981 2.439 . S
O985 C986 1.208 . S
C986 O984 1.247 . S
C986 O985 1.208 . S
C987 O992 1.247 . S
C987 O993 1.208 . S
C988 O980 1.315 . S
C988 O983 1.279 . S
C989 O990 1.315 . S
C989 O991 1.279 . S
O990 Cd982 2.223 . S
O990 C989 1.315 . S
O991 Cd981 2.240 . S
O991 C989 1.279 . S
O992 Cd982 2.297 . S
O992 C987 1.247 . S
O993 Cd982 2.439 . S
O993 C987 1.208 . S
O994 Cd995 2.223 . S
O994 C1002 1.315 . S
Cd995 O994 2.223 . S
Cd995 O998 2.297 . S
Cd995 O999 2.439 . S
Cd995 O1005 2.240 . S
Cd996 O997 2.240 . S
Cd996 O1004 2.223 . S
Cd996 O1006 2.297 . S
Cd996 O1007 2.439 . S
O997 Cd996 2.240 . S
O997 C1002 1.279 . S
O998 Cd995 2.297 . S
O998 C1000 1.247 . S
O999 Cd995 2.439 . S
O999 C1000 1.208 . S
C1000 O998 1.247 . S
C1000 O999 1.208 . S
C1001 O1006 1.247 . S
C1001 O1007 1.208 . S
C1002 O994 1.315 . S
C1002 O997 1.279 . S
C1003 O1004 1.315 . S
C1003 O1005 1.279 . S
O1004 Cd996 2.223 . S
O1004 C1003 1.315 . S
O1005 Cd995 2.240 . S
O1005 C1003 1.279 . S
O1006 Cd996 2.297 . S
O1006 C1001 1.247 . S
O1007 Cd996 2.439 . S
O1007 C1001 1.208 . S
O1008 Cd1009 2.223 . S
O1008 C1016 1.315 . S
Cd1009 O1008 2.223 . S
Cd1009 O1012 2.297 . S
Cd1009 O1013 2.439 . S
Cd1009 O1019 2.240 . S
Cd1010 O1011 2.240 . S
Cd1010 O1018 2.223 . S
Cd1010 O1020 2.297 . S
Cd1010 O1021 2.439 . S
O1011 Cd1010 2.240 . S
O1011 C1016 1.279 . S
O1012 Cd1009 2.297 . S
O1012 C1014 1.247 . S
O1013 Cd1009 2.439 . S
O1013 C1014 1.208 . S
C1014 O1012 1.247 . S
C1014 O1013 1.208 . S
C1015 O1020 1.247 . S
C1015 O1021 1.208 . S
C1016 O1008 1.315 . S
C1016 O1011 1.279 . S
C1017 O1018 1.315 . S
C1017 O1019 1.279 . S
O1018 Cd1010 2.223 . S
O1018 C1017 1.315 . S
O1019 Cd1009 2.240 . S
O1019 C1017 1.279 . S
O1020 Cd1010 2.297 . S
O1020 C1015 1.247 . S
O1021 Cd1010 2.439 . S
O1021 C1015 1.208 . S
O1022 Cd1023 2.223 . S
O1022 C1030 1.315 . S
Cd1023 O1022 2.223 . S
Cd1023 O1026 2.297 . S
Cd1023 O1027 2.439 . S
Cd1023 O1033 2.240 . S
Cd1024 O1025 2.240 . S
Cd1024 O1032 2.223 . S
Cd1024 O1034 2.297 . S
Cd1024 O1035 2.439 . S
O1025 Cd1024 2.240 . S
O1025 C1030 1.279 . S
O1026 Cd1023 2.297 . S
O1026 C1028 1.247 . S
O1027 Cd1023 2.439 . S
O1027 C1028 1.208 . S
C1028 O1026 1.247 . S
C1028 O1027 1.208 . S
C1029 O1034 1.247 . S
C1029 O1035 1.208 . S
C1030 O1022 1.315 . S
C1030 O1025 1.279 . S
C1031 O1032 1.315 . S
C1031 O1033 1.279 . S
O1032 Cd1024 2.223 . S
O1032 C1031 1.315 . S
O1033 Cd1023 2.240 . S
O1033 C1031 1.279 . S
O1034 Cd1024 2.297 . S
O1034 C1029 1.247 . S
O1035 Cd1024 2.439 . S
O1035 C1029 1.208 . S
O1036 Cd1037 2.223 . S
O1036 C1044 1.315 . S
Cd1037 O1036 2.223 . S
Cd1037 O1040 2.297 . S
Cd1037 O1041 2.439 . S
Cd1037 O1047 2.240 . S
Cd1038 O1039 2.240 . S
Cd1038 O1046 2.223 . S
Cd1038 O1048 2.297 . S
Cd1038 O1049 2.439 . S
O1039 Cd1038 2.240 . S
O1039 C1044 1.279 . S
O1040 Cd1037 2.297 . S
O1040 C1042 1.247 . S
O1041 Cd1037 2.439 . S
O1041 C1042 1.208 . S
C1042 O1040 1.247 . S
C1042 O1041 1.208 . S
C1043 O1048 1.247 . S
C1043 O1049 1.208 . S
C1044 O1036 1.315 . S
C1044 O1039 1.279 . S
C1045 O1046 1.315 . S
C1045 O1047 1.279 . S
O1046 Cd1038 2.223 . S
O1046 C1045 1.315 . S
O1047 Cd1037 2.240 . S
O1047 C1045 1.279 . S
O1048 Cd1038 2.297 . S
O1048 C1043 1.247 . S
O1049 Cd1038 2.439 . S
O1049 C1043 1.208 . S
O1050 Cd1051 2.223 . S
O1050 C1058 1.315 . S
Cd1051 O1050 2.223 . S
Cd1051 O1054 2.297 . S
Cd1051 O1055 2.439 . S
Cd1051 O1061 2.240 . S
Cd1052 O1053 2.240 . S
Cd1052 O1060 2.223 . S
Cd1052 O1062 2.297 . S
Cd1052 O1063 2.439 . S
O1053 Cd1052 2.240 . S
O1053 C1058 1.279 . S
O1054 Cd1051 2.297 . S
O1054 C1056 1.247 . S
O1055 Cd1051 2.439 . S
O1055 C1056 1.208 . S
C1056 O1054 1.247 . S
C1056 O1055 1.208 . S
C1057 O1062 1.247 . S
C1057 O1063 1.208 . S
C1058 O1050 1.315 . S
C1058 O1053 1.279 . S
C1059 O1060 1.315 . S
C1059 O1061 1.279 . S
O1060 Cd1052 2.223 . S
O1060 C1059 1.315 . S
O1061 Cd1051 2.240 . S
O1061 C1059 1.279 . S
O1062 Cd1052 2.297 . S
O1062 C1057 1.247 . S
O1063 Cd1052 2.439 . S
O1063 C1057 1.208 . S
O1064 Cd1065 2.223 . S
O1064 C1072 1.315 . S
Cd1065 O1064 2.223 . S
Cd1065 O1068 2.297 . S
Cd1065 O1069 2.439 . S
Cd1065 O1075 2.240 . S
Cd1066 O1067 2.240 . S
Cd1066 O1074 2.223 . S
Cd1066 O1076 2.297 . S
Cd1066 O1077 2.439 . S
O1067 Cd1066 2.240 . S
O1067 C1072 1.279 . S
O1068 Cd1065 2.297 . S
O1068 C1070 1.247 . S
O1069 Cd1065 2.439 . S
O1069 C1070 1.208 . S
C1070 O1068 1.247 . S
C1070 O1069 1.208 . S
C1071 O1076 1.247 . S
C1071 O1077 1.208 . S
C1072 O1064 1.315 . S
C1072 O1067 1.279 . S
C1073 O1074 1.315 . S
C1073 O1075 1.279 . S
O1074 Cd1066 2.223 . S
O1074 C1073 1.315 . S
O1075 Cd1065 2.240 . S
O1075 C1073 1.279 . S
O1076 Cd1066 2.297 . S
O1076 C1071 1.247 . S
O1077 Cd1066 2.439 . S
O1077 C1071 1.208 . S
O1078 Cd1079 2.223 . S
O1078 C1086 1.315 . S
Cd1079 O1078 2.223 . S
Cd1079 O1082 2.297 . S
Cd1079 O1083 2.439 . S
Cd1079 O1089 2.240 . S
Cd1080 O1081 2.240 . S
Cd1080 O1088 2.223 . S
Cd1080 O1090 2.297 . S
Cd1080 O1091 2.439 . S
O1081 Cd1080 2.240 . S
O1081 C1086 1.279 . S
O1082 Cd1079 2.297 . S
O1082 C1084 1.247 . S
O1083 Cd1079 2.439 . S
O1083 C1084 1.208 . S
C1084 O1082 1.247 . S
C1084 O1083 1.208 . S
C1085 O1090 1.247 . S
C1085 O1091 1.208 . S
C1086 O1078 1.315 . S
C1086 O1081 1.279 . S
C1087 O1088 1.315 . S
C1087 O1089 1.279 . S
O1088 Cd1080 2.223 . S
O1088 C1087 1.315 . S
O1089 Cd1079 2.240 . S
O1089 C1087 1.279 . S
O1090 Cd1080 2.297 . S
O1090 C1085 1.247 . S
O1091 Cd1080 2.439 . S
O1091 C1085 1.208 . S
O1092 Cd1093 2.223 . S
O1092 C1100 1.315 . S
Cd1093 O1092 2.223 . S
Cd1093 O1096 2.297 . S
Cd1093 O1097 2.439 . S
Cd1093 O1103 2.240 . S
Cd1094 O1095 2.240 . S
Cd1094 O1102 2.223 . S
Cd1094 O1104 2.297 . S
Cd1094 O1105 2.439 . S
O1095 Cd1094 2.240 . S
O1095 C1100 1.279 . S
O1096 Cd1093 2.297 . S
O1096 C1098 1.247 . S
O1097 Cd1093 2.439 . S
O1097 C1098 1.208 . S
C1098 O1096 1.247 . S
C1098 O1097 1.208 . S
C1099 O1104 1.247 . S
C1099 O1105 1.208 . S
C1100 O1092 1.315 . S
C1100 O1095 1.279 . S
C1101 O1102 1.315 . S
C1101 O1103 1.279 . S
O1102 Cd1094 2.223 . S
O1102 C1101 1.315 . S
O1103 Cd1093 2.240 . S
O1103 C1101 1.279 . S
O1104 Cd1094 2.297 . S
O1104 C1099 1.247 . S
O1105 Cd1094 2.439 . S
O1105 C1099 1.208 . S
O1106 Cd1107 2.223 . S
O1106 C1114 1.315 . S
Cd1107 O1106 2.223 . S
Cd1107 O1110 2.297 . S
Cd1107 O1111 2.439 . S
Cd1107 O1117 2.240 . S
Cd1108 O1109 2.240 . S
Cd1108 O1116 2.223 . S
Cd1108 O1118 2.297 . S
Cd1108 O1119 2.439 . S
O1109 Cd1108 2.240 . S
O1109 C1114 1.279 . S
O1110 Cd1107 2.297 . S
O1110 C1112 1.247 . S
O1111 Cd1107 2.439 . S
O1111 C1112 1.208 . S
C1112 O1110 1.247 . S
C1112 O1111 1.208 . S
C1113 O1118 1.247 . S
C1113 O1119 1.208 . S
C1114 O1106 1.315 . S
C1114 O1109 1.279 . S
C1115 O1116 1.315 . S
C1115 O1117 1.279 . S
O1116 Cd1108 2.223 . S
O1116 C1115 1.315 . S
O1117 Cd1107 2.240 . S
O1117 C1115 1.279 . S
O1118 Cd1108 2.297 . S
O1118 C1113 1.247 . S
O1119 Cd1108 2.439 . S
O1119 C1113 1.208 . S
O1120 Cd1121 2.223 . S
O1120 C1128 1.315 . S
Cd1121 O1120 2.223 . S
Cd1121 O1124 2.297 . S
Cd1121 O1125 2.439 . S
Cd1121 O1131 2.240 . S
Cd1122 O1123 2.240 . S
Cd1122 O1130 2.223 . S
Cd1122 O1132 2.297 . S
Cd1122 O1133 2.439 . S
O1123 Cd1122 2.240 . S
O1123 C1128 1.279 . S
O1124 Cd1121 2.297 . S
O1124 C1126 1.247 . S
O1125 Cd1121 2.439 . S
O1125 C1126 1.208 . S
C1126 O1124 1.247 . S
C1126 O1125 1.208 . S
C1127 O1132 1.247 . S
C1127 O1133 1.208 . S
C1128 O1120 1.315 . S
C1128 O1123 1.279 . S
C1129 O1130 1.315 . S
C1129 O1131 1.279 . S
O1130 Cd1122 2.223 . S
O1130 C1129 1.315 . S
O1131 Cd1121 2.240 . S
O1131 C1129 1.279 . S
O1132 Cd1122 2.297 . S
O1132 C1127 1.247 . S
O1133 Cd1122 2.439 . S
O1133 C1127 1.208 . S
O1134 Cd1135 2.223 . S
O1134 C1142 1.315 . S
Cd1135 O1134 2.223 . S
Cd1135 O1138 2.297 . S
Cd1135 O1139 2.439 . S
Cd1135 O1145 2.240 . S
Cd1136 O1137 2.240 . S
Cd1136 O1144 2.223 . S
Cd1136 O1146 2.297 . S
Cd1136 O1147 2.439 . S
O1137 Cd1136 2.240 . S
O1137 C1142 1.279 . S
O1138 Cd1135 2.297 . S
O1138 C1140 1.247 . S
O1139 Cd1135 2.439 . S
O1139 C1140 1.208 . S
C1140 O1138 1.247 . S
C1140 O1139 1.208 . S
C1141 O1146 1.247 . S
C1141 O1147 1.208 . S
C1142 O1134 1.315 . S
C1142 O1137 1.279 . S
C1143 O1144 1.315 . S
C1143 O1145 1.279 . S
O1144 Cd1136 2.223 . S
O1144 C1143 1.315 . S
O1145 Cd1135 2.240 . S
O1145 C1143 1.279 . S
O1146 Cd1136 2.297 . S
O1146 C1141 1.247 . S
O1147 Cd1136 2.439 . S
O1147 C1141 1.208 . S
O1148 Cd1149 2.223 . S
O1148 C1156 1.315 . S
Cd1149 O1148 2.223 . S
Cd1149 O1152 2.297 . S
Cd1149 O1153 2.439 . S
Cd1149 O1159 2.240 . S
Cd1150 O1151 2.240 . S
Cd1150 O1158 2.223 . S
Cd1150 O1160 2.297 . S
Cd1150 O1161 2.439 . S
O1151 Cd1150 2.240 . S
O1151 C1156 1.279 . S
O1152 Cd1149 2.297 . S
O1152 C1154 1.247 . S
O1153 Cd1149 2.439 . S
O1153 C1154 1.208 . S
C1154 O1152 1.247 . S
C1154 O1153 1.208 . S
C1155 O1160 1.247 . S
C1155 O1161 1.208 . S
C1156 O1148 1.315 . S
C1156 O1151 1.279 . S
C1157 O1158 1.315 . S
C1157 O1159 1.279 . S
O1158 Cd1150 2.223 . S
O1158 C1157 1.315 . S
O1159 Cd1149 2.240 . S
O1159 C1157 1.279 . S
O1160 Cd1150 2.297 . S
O1160 C1155 1.247 . S
O1161 Cd1150 2.439 . S
O1161 C1155 1.208 . S
O1162 Cd1163 2.223 . S
O1162 C1170 1.315 . S
Cd1163 O1162 2.223 . S
Cd1163 O1166 2.297 . S
Cd1163 O1167 2.439 . S
Cd1163 O1173 2.240 . S
Cd1164 O1165 2.240 . S
Cd1164 O1172 2.223 . S
Cd1164 O1174 2.297 . S
Cd1164 O1175 2.439 . S
O1165 Cd1164 2.240 . S
O1165 C1170 1.279 . S
O1166 Cd1163 2.297 . S
O1166 C1168 1.247 . S
O1167 Cd1163 2.439 . S
O1167 C1168 1.208 . S
C1168 O1166 1.247 . S
C1168 O1167 1.208 . S
C1169 O1174 1.247 . S
C1169 O1175 1.208 . S
C1170 O1162 1.315 . S
C1170 O1165 1.279 . S
C1171 O1172 1.315 . S
C1171 O1173 1.279 . S
O1172 Cd1164 2.223 . S
O1172 C1171 1.315 . S
O1173 Cd1163 2.240 . S
O1173 C1171 1.279 . S
O1174 Cd1164 2.297 . S
O1174 C1169 1.247 . S
O1175 Cd1164 2.439 . S
O1175 C1169 1.208 . S
O1176 Cd1177 2.223 . S
O1176 C1184 1.315 . S
Cd1177 O1176 2.223 . S
Cd1177 O1180 2.297 . S
Cd1177 O1181 2.439 . S
Cd1177 O1187 2.240 . S
Cd1178 O1179 2.240 . S
Cd1178 O1186 2.223 . S
Cd1178 O1188 2.297 . S
Cd1178 O1189 2.439 . S
O1179 Cd1178 2.240 . S
O1179 C1184 1.279 . S
O1180 Cd1177 2.297 . S
O1180 C1182 1.247 . S
O1181 Cd1177 2.439 . S
O1181 C1182 1.208 . S
C1182 O1180 1.247 . S
C1182 O1181 1.208 . S
C1183 O1188 1.247 . S
C1183 O1189 1.208 . S
C1184 O1176 1.315 . S
C1184 O1179 1.279 . S
C1185 O1186 1.315 . S
C1185 O1187 1.279 . S
O1186 Cd1178 2.223 . S
O1186 C1185 1.315 . S
O1187 Cd1177 2.240 . S
O1187 C1185 1.279 . S
O1188 Cd1178 2.297 . S
O1188 C1183 1.247 . S
O1189 Cd1178 2.439 . S
O1189 C1183 1.208 . S
O1190 Cd1191 2.223 . S
O1190 C1198 1.315 . S
Cd1191 O1190 2.223 . S
Cd1191 O1194 2.297 . S
Cd1191 O1195 2.439 . S
Cd1191 O1201 2.240 . S
Cd1192 O1193 2.240 . S
Cd1192 O1200 2.223 . S
Cd1192 O1202 2.297 . S
Cd1192 O1203 2.439 . S
O1193 Cd1192 2.240 . S
O1193 C1198 1.279 . S
O1194 Cd1191 2.297 . S
O1194 C1196 1.247 . S
O1195 Cd1191 2.439 . S
O1195 C1196 1.208 . S
C1196 O1194 1.247 . S
C1196 O1195 1.208 . S
C1197 O1202 1.247 . S
C1197 O1203 1.208 . S
C1198 O1190 1.315 . S
C1198 O1193 1.279 . S
C1199 O1200 1.315 . S
C1199 O1201 1.279 . S
O1200 Cd1192 2.223 . S
O1200 C1199 1.315 . S
O1201 Cd1191 2.240 . S
O1201 C1199 1.279 . S
O1202 Cd1192 2.297 . S
O1202 C1197 1.247 . S
O1203 Cd1192 2.439 . S
O1203 C1197 1.208 . S
O1204 Cd1205 2.223 . S
O1204 C1212 1.315 . S
Cd1205 O1204 2.223 . S
Cd1205 O1208 2.297 . S
Cd1205 O1209 2.439 . S
Cd1205 O1215 2.240 . S
Cd1206 O1207 2.240 . S
Cd1206 O1214 2.223 . S
Cd1206 O1216 2.297 . S
Cd1206 O1217 2.439 . S
O1207 Cd1206 2.240 . S
O1207 C1212 1.279 . S
O1208 Cd1205 2.297 . S
O1208 C1210 1.247 . S
O1209 Cd1205 2.439 . S
O1209 C1210 1.208 . S
C1210 O1208 1.247 . S
C1210 O1209 1.208 . S
C1211 O1216 1.247 . S
C1211 O1217 1.208 . S
C1212 O1204 1.315 . S
C1212 O1207 1.279 . S
C1213 O1214 1.315 . S
C1213 O1215 1.279 . S
O1214 Cd1206 2.223 . S
O1214 C1213 1.315 . S
O1215 Cd1205 2.240 . S
O1215 C1213 1.279 . S
O1216 Cd1206 2.297 . S
O1216 C1211 1.247 . S
O1217 Cd1206 2.439 . S
O1217 C1211 1.208 . S
O1218 Cd1219 2.223 . S
O1218 C1226 1.315 . S
Cd1219 O1218 2.223 . S
Cd1219 O1222 2.297 . S
Cd1219 O1223 2.439 . S
Cd1219 O1229 2.240 . S
Cd1220 O1221 2.240 . S
Cd1220 O1228 2.223 . S
Cd1220 O1230 2.297 . S
Cd1220 O1231 2.439 . S
O1221 Cd1220 2.240 . S
O1221 C1226 1.279 . S
O1222 Cd1219 2.297 . S
O1222 C1224 1.247 . S
O1223 Cd1219 2.439 . S
O1223 C1224 1.208 . S
C1224 O1222 1.247 . S
C1224 O1223 1.208 . S
C1225 O1230 1.247 . S
C1225 O1231 1.208 . S
C1226 O1218 1.315 . S
C1226 O1221 1.279 . S
C1227 O1228 1.315 . S
C1227 O1229 1.279 . S
O1228 Cd1220 2.223 . S
O1228 C1227 1.315 . S
O1229 Cd1219 2.240 . S
O1229 C1227 1.279 . S
O1230 Cd1220 2.297 . S
O1230 C1225 1.247 . S
O1231 Cd1220 2.439 . S
O1231 C1225 1.208 . S
O1232 Cd1233 2.223 . S
O1232 C1240 1.315 . S
Cd1233 O1232 2.223 . S
Cd1233 O1236 2.297 . S
Cd1233 O1237 2.439 . S
Cd1233 O1243 2.240 . S
Cd1234 O1235 2.240 . S
Cd1234 O1242 2.223 . S
Cd1234 O1244 2.297 . S
Cd1234 O1245 2.439 . S
O1235 Cd1234 2.240 . S
O1235 C1240 1.279 . S
O1236 Cd1233 2.297 . S
O1236 C1238 1.247 . S
O1237 Cd1233 2.439 . S
O1237 C1238 1.208 . S
C1238 O1236 1.247 . S
C1238 O1237 1.208 . S
C1239 O1244 1.247 . S
C1239 O1245 1.208 . S
C1240 O1232 1.315 . S
C1240 O1235 1.279 . S
C1241 O1242 1.315 . S
C1241 O1243 1.279 . S
O1242 Cd1234 2.223 . S
O1242 C1241 1.315 . S
O1243 Cd1233 2.240 . S
O1243 C1241 1.279 . S
O1244 Cd1234 2.297 . S
O1244 C1239 1.247 . S
O1245 Cd1234 2.439 . S
O1245 C1239 1.208 . S
O1246 Cd1247 2.223 . S
O1246 C1254 1.315 . S
Cd1247 O1246 2.223 . S
Cd1247 O1250 2.297 . S
Cd1247 O1251 2.439 . S
Cd1247 O1257 2.240 . S
Cd1248 O1249 2.240 . S
Cd1248 O1256 2.223 . S
Cd1248 O1258 2.297 . S
Cd1248 O1259 2.439 . S
O1249 Cd1248 2.240 . S
O1249 C1254 1.279 . S
O1250 Cd1247 2.297 . S
O1250 C1252 1.247 . S
O1251 Cd1247 2.439 . S
O1251 C1252 1.208 . S
C1252 O1250 1.247 . S
C1252 O1251 1.208 . S
C1253 O1258 1.247 . S
C1253 O1259 1.208 . S
C1254 O1246 1.315 . S
C1254 O1249 1.279 . S
C1255 O1256 1.315 . S
C1255 O1257 1.279 . S
O1256 Cd1248 2.223 . S
O1256 C1255 1.315 . S
O1257 Cd1247 2.240 . S
O1257 C1255 1.279 . S
O1258 Cd1248 2.297 . S
O1258 C1253 1.247 . S
O1259 Cd1248 2.439 . S
O1259 C1253 1.208 . S
O1260 Cd1261 2.223 . S
O1260 C1268 1.315 . S
Cd1261 O1260 2.223 . S
Cd1261 O1264 2.297 . S
Cd1261 O1265 2.439 . S
Cd1261 O1271 2.240 . S
Cd1262 O1263 2.240 . S
Cd1262 O1270 2.223 . S
Cd1262 O1272 2.297 . S
Cd1262 O1273 2.439 . S
O1263 Cd1262 2.240 . S
O1263 C1268 1.279 . S
O1264 Cd1261 2.297 . S
O1264 C1266 1.247 . S
O1265 Cd1261 2.439 . S
O1265 C1266 1.208 . S
C1266 O1264 1.247 . S
C1266 O1265 1.208 . S
C1267 O1272 1.247 . S
C1267 O1273 1.208 . S
C1268 O1260 1.315 . S
C1268 O1263 1.279 . S
C1269 O1270 1.315 . S
C1269 O1271 1.279 . S
O1270 Cd1262 2.223 . S
O1270 C1269 1.315 . S
O1271 Cd1261 2.240 . S
O1271 C1269 1.279 . S
O1272 Cd1262 2.297 . S
O1272 C1267 1.247 . S
O1273 Cd1262 2.439 . S
O1273 C1267 1.208 . S
O1274 Cd1275 2.223 . S
O1274 C1282 1.315 . S
Cd1275 O1274 2.223 . S
Cd1275 O1278 2.297 . S
Cd1275 O1279 2.439 . S
Cd1275 O1285 2.240 . S
Cd1276 O1277 2.240 . S
Cd1276 O1284 2.223 . S
Cd1276 O1286 2.297 . S
Cd1276 O1287 2.439 . S
O1277 Cd1276 2.240 . S
O1277 C1282 1.279 . S
O1278 Cd1275 2.297 . S
O1278 C1280 1.247 . S
O1279 Cd1275 2.439 . S
O1279 C1280 1.208 . S
C1280 O1278 1.247 . S
C1280 O1279 1.208 . S
C1281 O1286 1.247 . S
C1281 O1287 1.208 . S
C1282 O1274 1.315 . S
C1282 O1277 1.279 . S
C1283 O1284 1.315 . S
C1283 O1285 1.279 . S
O1284 Cd1276 2.223 . S
O1284 C1283 1.315 . S
O1285 Cd1275 2.240 . S
O1285 C1283 1.279 . S
O1286 Cd1276 2.297 . S
O1286 C1281 1.247 . S
O1287 Cd1276 2.439 . S
O1287 C1281 1.208 . S
O1288 Cd1289 2.223 . S
O1288 C1296 1.315 . S
Cd1289 O1288 2.223 . S
Cd1289 O1292 2.297 . S
Cd1289 O1293 2.439 . S
Cd1289 O1299 2.240 . S
Cd1290 O1291 2.240 . S
Cd1290 O1298 2.223 . S
Cd1290 O1300 2.297 . S
Cd1290 O1301 2.439 . S
O1291 Cd1290 2.240 . S
O1291 C1296 1.279 . S
O1292 Cd1289 2.297 . S
O1292 C1294 1.247 . S
O1293 Cd1289 2.439 . S
O1293 C1294 1.208 . S
C1294 O1292 1.247 . S
C1294 O1293 1.208 . S
C1295 O1300 1.247 . S
C1295 O1301 1.208 . S
C1296 O1288 1.315 . S
C1296 O1291 1.279 . S
C1297 O1298 1.315 . S
C1297 O1299 1.279 . S
O1298 Cd1290 2.223 . S
O1298 C1297 1.315 . S
O1299 Cd1289 2.240 . S
O1299 C1297 1.279 . S
O1300 Cd1290 2.297 . S
O1300 C1295 1.247 . S
O1301 Cd1290 2.439 . S
O1301 C1295 1.208 . S
O1302 Cd1303 2.223 . S
O1302 C1310 1.315 . S
Cd1303 O1302 2.223 . S
Cd1303 O1306 2.297 . S
Cd1303 O1307 2.439 . S
Cd1303 O1313 2.240 . S
Cd1304 O1305 2.240 . S
Cd1304 O1312 2.223 . S
Cd1304 O1314 2.297 . S
Cd1304 O1315 2.439 . S
O1305 Cd1304 2.240 . S
O1305 C1310 1.279 . S
O1306 Cd1303 2.297 . S
O1306 C1308 1.247 . S
O1307 Cd1303 2.439 . S
O1307 C1308 1.208 . S
C1308 O1306 1.247 . S
C1308 O1307 1.208 . S
C1309 O1314 1.247 . S
C1309 O1315 1.208 . S
C1310 O1302 1.315 . S
C1310 O1305 1.279 . S
C1311 O1312 1.315 . S
C1311 O1313 1.279 . S
O1312 Cd1304 2.223 . S
O1312 C1311 1.315 . S
O1313 Cd1303 2.240 . S
O1313 C1311 1.279 . S
O1314 Cd1304 2.297 . S
O1314 C1309 1.247 . S
O1315 Cd1304 2.439 . S
O1315 C1309 1.208 . S
O1316 Cd1317 2.223 . S
O1316 C1324 1.315 . S
Cd1317 O1316 2.223 . S
Cd1317 O1320 2.297 . S
Cd1317 O1321 2.439 . S
Cd1317 O1327 2.240 . S
Cd1318 O1319 2.240 . S
Cd1318 O1326 2.223 . S
Cd1318 O1328 2.297 . S
Cd1318 O1329 2.439 . S
O1319 Cd1318 2.240 . S
O1319 C1324 1.279 . S
O1320 Cd1317 2.297 . S
O1320 C1322 1.247 . S
O1321 Cd1317 2.439 . S
O1321 C1322 1.208 . S
C1322 O1320 1.247 . S
C1322 O1321 1.208 . S
C1323 O1328 1.247 . S
C1323 O1329 1.208 . S
C1324 O1316 1.315 . S
C1324 O1319 1.279 . S
C1325 O1326 1.315 . S
C1325 O1327 1.279 . S
O1326 Cd1318 2.223 . S
O1326 C1325 1.315 . S
O1327 Cd1317 2.240 . S
O1327 C1325 1.279 . S
O1328 Cd1318 2.297 . S
O1328 C1323 1.247 . S
O1329 Cd1318 2.439 . S
O1329 C1323 1.208 . S
O1330 Cd1331 2.223 . S
O1330 C1338 1.315 . S
Cd1331 O1330 2.223 . S
Cd1331 O1334 2.297 . S
Cd1331 O1335 2.439 . S
Cd1331 O1341 2.240 . S
Cd1332 O1333 2.240 . S
Cd1332 O1340 2.223 . S
Cd1332 O1342 2.297 . S
Cd1332 O1343 2.439 . S
O1333 Cd1332 2.240 . S
O1333 C1338 1.279 . S
O1334 Cd1331 2.297 . S
O1334 C1336 1.247 . S
O1335 Cd1331 2.439 . S
O1335 C1336 1.208 . S
C1336 O1334 1.247 . S
C1336 O1335 1.208 . S
C1337 O1342 1.247 . S
C1337 O1343 1.208 . S
C1338 O1330 1.315 . S
C1338 O1333 1.279 . S
C1339 O1340 1.315 . S
C1339 O1341 1.279 . S
O1340 Cd1332 2.223 . S
O1340 C1339 1.315 . S
O1341 Cd1331 2.240 . S
O1341 C1339 1.279 . S
O1342 Cd1332 2.297 . S
O1342 C1337 1.247 . S
O1343 Cd1332 2.439 . S
O1343 C1337 1.208 . S
C1344 C1345 1.369 . S
C1344 C1346 1.419 . S
C1344 H1348 0.930 . S
C1345 C1344 1.369 . S
C1345 C1354 1.429 . S
C1346 C1344 1.419 . S
C1346 C1347 1.363 . S
C1346 H1349 0.929 . S
C1347 C1346 1.363 . S
C1347 C1353 1.428 . S
H1348 C1344 0.930 . S
H1349 C1346 0.929 . S
S1350 N1351 1.613 . S
S1350 N1352 1.610 . S
N1351 S1350 1.613 . S
N1351 C1354 1.350 . S
N1352 S1350 1.610 . S
N1352 C1353 1.351 . S
C1353 C1347 1.428 . S
C1353 N1352 1.351 . S
C1353 C1354 1.434 . S
C1354 C1345 1.429 . S
C1354 N1351 1.350 . S
C1354 C1353 1.434 . S
C1355 C1356 1.369 . S
C1355 C1357 1.419 . S
C1355 H1359 0.930 . S
C1356 C1355 1.369 . S
C1356 C1365 1.429 . S
C1357 C1355 1.419 . S
C1357 C1358 1.363 . S
C1357 H1360 0.929 . S
C1358 C1357 1.363 . S
C1358 C1364 1.428 . S
H1359 C1355 0.930 . S
H1360 C1357 0.929 . S
S1361 N1362 1.613 . S
S1361 N1363 1.610 . S
N1362 S1361 1.613 . S
N1362 C1365 1.350 . S
N1363 S1361 1.610 . S
N1363 C1364 1.351 . S
C1364 C1358 1.428 . S
C1364 N1363 1.351 . S
C1364 C1365 1.434 . S
C1365 C1356 1.429 . S
C1365 N1362 1.350 . S
C1365 C1364 1.434 . S
C1366 C1367 1.369 . S
C1366 C1368 1.419 . S
C1366 H1370 0.930 . S
C1367 C1366 1.369 . S
C1367 C1376 1.429 . S
C1368 C1366 1.419 . S
C1368 C1369 1.363 . S
C1368 H1371 0.929 . S
C1369 C1368 1.363 . S
C1369 C1375 1.428 . S
H1370 C1366 0.930 . S
H1371 C1368 0.929 . S
S1372 N1373 1.613 . S
S1372 N1374 1.610 . S
N1373 S1372 1.613 . S
N1373 C1376 1.350 . S
N1374 S1372 1.610 . S
N1374 C1375 1.351 . S
C1375 C1369 1.428 . S
C1375 N1374 1.351 . S
C1375 C1376 1.434 . S
C1376 C1367 1.429 . S
C1376 N1373 1.350 . S
C1376 C1375 1.434 . S
C1377 C1378 1.369 . S
C1377 C1379 1.419 . S
C1377 H1381 0.930 . S
C1378 C1377 1.369 . S
C1378 C1387 1.429 . S
C1379 C1377 1.419 . S
C1379 C1380 1.363 . S
C1379 H1382 0.929 . S
C1380 C1379 1.363 . S
C1380 C1386 1.428 . S
H1381 C1377 0.930 . S
H1382 C1379 0.929 . S
S1383 N1384 1.613 . S
S1383 N1385 1.610 . S
N1384 S1383 1.613 . S
N1384 C1387 1.350 . S
N1385 S1383 1.610 . S
N1385 C1386 1.351 . S
C1386 C1380 1.428 . S
C1386 N1385 1.351 . S
C1386 C1387 1.434 . S
C1387 C1378 1.429 . S
C1387 N1384 1.350 . S
C1387 C1386 1.434 . S
C1388 C1389 1.369 . S
C1388 C1390 1.419 . S
C1388 H1392 0.930 . S
C1389 C1388 1.369 . S
C1389 C1398 1.429 . S
C1390 C1388 1.419 . S
C1390 C1391 1.363 . S
C1390 H1393 0.929 . S
C1391 C1390 1.363 . S
C1391 C1397 1.428 . S
H1392 C1388 0.930 . S
H1393 C1390 0.929 . S
S1394 N1395 1.613 . S
S1394 N1396 1.610 . S
N1395 S1394 1.613 . S
N1395 C1398 1.350 . S
N1396 S1394 1.610 . S
N1396 C1397 1.351 . S
C1397 C1391 1.428 . S
C1397 N1396 1.351 . S
C1397 C1398 1.434 . S
C1398 C1389 1.429 . S
C1398 N1395 1.350 . S
C1398 C1397 1.434 . S
C1399 C1400 1.369 . S
C1399 C1401 1.419 . S
C1399 H1403 0.930 . S
C1400 C1399 1.369 . S
C1400 C1409 1.429 . S
C1401 C1399 1.419 . S
C1401 C1402 1.363 . S
C1401 H1404 0.929 . S
C1402 C1401 1.363 . S
C1402 C1408 1.428 . S
H1403 C1399 0.930 . S
H1404 C1401 0.929 . S
S1405 N1406 1.613 . S
S1405 N1407 1.610 . S
N1406 S1405 1.613 . S
N1406 C1409 1.350 . S
N1407 S1405 1.610 . S
N1407 C1408 1.351 . S
C1408 C1402 1.428 . S
C1408 N1407 1.351 . S
C1408 C1409 1.434 . S
C1409 C1400 1.429 . S
C1409 N1406 1.350 . S
C1409 C1408 1.434 . S
C1410 C1411 1.369 . S
C1410 C1412 1.419 . S
C1410 H1414 0.930 . S
C1411 C1410 1.369 . S
C1411 C1420 1.429 . S
C1412 C1410 1.419 . S
C1412 C1413 1.363 . S
C1412 H1415 0.929 . S
C1413 C1412 1.363 . S
C1413 C1419 1.428 . S
H1414 C1410 0.930 . S
H1415 C1412 0.929 . S
S1416 N1417 1.613 . S
S1416 N1418 1.610 . S
N1417 S1416 1.613 . S
N1417 C1420 1.350 . S
N1418 S1416 1.610 . S
N1418 C1419 1.351 . S
C1419 C1413 1.428 . S
C1419 N1418 1.351 . S
C1419 C1420 1.434 . S
C1420 C1411 1.429 . S
C1420 N1417 1.350 . S
C1420 C1419 1.434 . S
C1421 C1422 1.369 . S
C1421 C1423 1.419 . S
C1421 H1425 0.930 . S
C1422 C1421 1.369 . S
C1422 C1431 1.429 . S
C1423 C1421 1.419 . S
C1423 C1424 1.363 . S
C1423 H1426 0.929 . S
C1424 C1423 1.363 . S
C1424 C1430 1.428 . S
H1425 C1421 0.930 . S
H1426 C1423 0.929 . S
S1427 N1428 1.613 . S
S1427 N1429 1.610 . S
N1428 S1427 1.613 . S
N1428 C1431 1.350 . S
N1429 S1427 1.610 . S
N1429 C1430 1.351 . S
C1430 C1424 1.428 . S
C1430 N1429 1.351 . S
C1430 C1431 1.434 . S
C1431 C1422 1.429 . S
C1431 N1428 1.350 . S
C1431 C1430 1.434 . S
C1432 C1433 1.369 . S
C1432 C1434 1.419 . S
C1432 H1436 0.930 . S
C1433 C1432 1.369 . S
C1433 C1442 1.429 . S
C1434 C1432 1.419 . S
C1434 C1435 1.363 . S
C1434 H1437 0.929 . S
C1435 C1434 1.363 . S
C1435 C1441 1.428 . S
H1436 C1432 0.930 . S
H1437 C1434 0.929 . S
S1438 N1439 1.613 . S
S1438 N1440 1.610 . S
N1439 S1438 1.613 . S
N1439 C1442 1.350 . S
N1440 S1438 1.610 . S
N1440 C1441 1.351 . S
C1441 C1435 1.428 . S
C1441 N1440 1.351 . S
C1441 C1442 1.434 . S
C1442 C1433 1.429 . S
C1442 N1439 1.350 . S
C1442 C1441 1.434 . S
C1443 C1444 1.369 . S
C1443 C1445 1.419 . S
C1443 H1447 0.930 . S
C1444 C1443 1.369 . S
C1444 C1453 1.429 . S
C1445 C1443 1.419 . S
C1445 C1446 1.363 . S
C1445 H1448 0.929 . S
C1446 C1445 1.363 . S
C1446 C1452 1.428 . S
H1447 C1443 0.930 . S
H1448 C1445 0.929 . S
S1449 N1450 1.613 . S
S1449 N1451 1.610 . S
N1450 S1449 1.613 . S
N1450 C1453 1.350 . S
N1451 S1449 1.610 . S
N1451 C1452 1.351 . S
C1452 C1446 1.428 . S
C1452 N1451 1.351 . S
C1452 C1453 1.434 . S
C1453 C1444 1.429 . S
C1453 N1450 1.350 . S
C1453 C1452 1.434 . S
C1454 C1455 1.369 . S
C1454 C1456 1.419 . S
C1454 H1458 0.930 . S
C1455 C1454 1.369 . S
C1455 C1464 1.429 . S
C1456 C1454 1.419 . S
C1456 C1457 1.363 . S
C1456 H1459 0.929 . S
C1457 C1456 1.363 . S
C1457 C1463 1.428 . S
H1458 C1454 0.930 . S
H1459 C1456 0.929 . S
S1460 N1461 1.613 . S
S1460 N1462 1.610 . S
N1461 S1460 1.613 . S
N1461 C1464 1.350 . S
N1462 S1460 1.610 . S
N1462 C1463 1.351 . S
C1463 C1457 1.428 . S
C1463 N1462 1.351 . S
C1463 C1464 1.434 . S
C1464 C1455 1.429 . S
C1464 N1461 1.350 . S
C1464 C1463 1.434 . S
C1465 C1466 1.369 . S
C1465 C1467 1.419 . S
C1465 H1469 0.930 . S
C1466 C1465 1.369 . S
C1466 C1475 1.429 . S
C1467 C1465 1.419 . S
C1467 C1468 1.363 . S
C1467 H1470 0.929 . S
C1468 C1467 1.363 . S
C1468 C1474 1.428 . S
H1469 C1465 0.930 . S
H1470 C1467 0.929 . S
S1471 N1472 1.613 . S
S1471 N1473 1.610 . S
N1472 S1471 1.613 . S
N1472 C1475 1.350 . S
N1473 S1471 1.610 . S
N1473 C1474 1.351 . S
C1474 C1468 1.428 . S
C1474 N1473 1.351 . S
C1474 C1475 1.434 . S
C1475 C1466 1.429 . S
C1475 N1472 1.350 . S
C1475 C1474 1.434 . S
C1476 C1477 1.369 . S
C1476 C1478 1.419 . S
C1476 H1480 0.930 . S
C1477 C1476 1.369 . S
C1477 C1486 1.429 . S
C1478 C1476 1.419 . S
C1478 C1479 1.363 . S
C1478 H1481 0.929 . S
C1479 C1478 1.363 . S
C1479 C1485 1.428 . S
H1480 C1476 0.930 . S
H1481 C1478 0.929 . S
S1482 N1483 1.613 . S
S1482 N1484 1.610 . S
N1483 S1482 1.613 . S
N1483 C1486 1.350 . S
N1484 S1482 1.610 . S
N1484 C1485 1.351 . S
C1485 C1479 1.428 . S
C1485 N1484 1.351 . S
C1485 C1486 1.434 . S
C1486 C1477 1.429 . S
C1486 N1483 1.350 . S
C1486 C1485 1.434 . S
C1487 C1488 1.369 . S
C1487 C1489 1.419 . S
C1487 H1491 0.930 . S
C1488 C1487 1.369 . S
C1488 C1497 1.429 . S
C1489 C1487 1.419 . S
C1489 C1490 1.363 . S
C1489 H1492 0.929 . S
C1490 C1489 1.363 . S
C1490 C1496 1.428 . S
H1491 C1487 0.930 . S
H1492 C1489 0.929 . S
S1493 N1494 1.613 . S
S1493 N1495 1.610 . S
N1494 S1493 1.613 . S
N1494 C1497 1.350 . S
N1495 S1493 1.610 . S
N1495 C1496 1.351 . S
C1496 C1490 1.428 . S
C1496 N1495 1.351 . S
C1496 C1497 1.434 . S
C1497 C1488 1.429 . S
C1497 N1494 1.350 . S
C1497 C1496 1.434 . S
C1498 C1499 1.369 . S
C1498 C1500 1.419 . S
C1498 H1502 0.930 . S
C1499 C1498 1.369 . S
C1499 C1508 1.429 . S
C1500 C1498 1.419 . S
C1500 C1501 1.363 . S
C1500 H1503 0.929 . S
C1501 C1500 1.363 . S
C1501 C1507 1.428 . S
H1502 C1498 0.930 . S
H1503 C1500 0.929 . S
S1504 N1505 1.613 . S
S1504 N1506 1.610 . S
N1505 S1504 1.613 . S
N1505 C1508 1.350 . S
N1506 S1504 1.610 . S
N1506 C1507 1.351 . S
C1507 C1501 1.428 . S
C1507 N1506 1.351 . S
C1507 C1508 1.434 . S
C1508 C1499 1.429 . S
C1508 N1505 1.350 . S
C1508 C1507 1.434 . S
C1509 C1510 1.369 . S
C1509 C1511 1.419 . S
C1509 H1513 0.930 . S
C1510 C1509 1.369 . S
C1510 C1519 1.429 . S
C1511 C1509 1.419 . S
C1511 C1512 1.363 . S
C1511 H1514 0.929 . S
C1512 C1511 1.363 . S
C1512 C1518 1.428 . S
H1513 C1509 0.930 . S
H1514 C1511 0.929 . S
S1515 N1516 1.613 . S
S1515 N1517 1.610 . S
N1516 S1515 1.613 . S
N1516 C1519 1.350 . S
N1517 S1515 1.610 . S
N1517 C1518 1.351 . S
C1518 C1512 1.428 . S
C1518 N1517 1.351 . S
C1518 C1519 1.434 . S
C1519 C1510 1.429 . S
C1519 N1516 1.350 . S
C1519 C1518 1.434 . S
C1520 C1521 1.369 . S
C1520 C1522 1.419 . S
C1520 H1524 0.930 . S
C1521 C1520 1.369 . S
C1521 C1530 1.429 . S
C1522 C1520 1.419 . S
C1522 C1523 1.363 . S
C1522 H1525 0.929 . S
C1523 C1522 1.363 . S
C1523 C1529 1.428 . S
H1524 C1520 0.930 . S
H1525 C1522 0.929 . S
S1526 N1527 1.613 . S
S1526 N1528 1.610 . S
N1527 S1526 1.613 . S
N1527 C1530 1.350 . S
N1528 S1526 1.610 . S
N1528 C1529 1.351 . S
C1529 C1523 1.428 . S
C1529 N1528 1.351 . S
C1529 C1530 1.434 . S
C1530 C1521 1.429 . S
C1530 N1527 1.350 . S
C1530 C1529 1.434 . S
C1531 C1532 1.369 . S
C1531 C1533 1.419 . S
C1531 H1535 0.930 . S
C1532 C1531 1.369 . S
C1532 C1541 1.429 . S
C1533 C1531 1.419 . S
C1533 C1534 1.363 . S
C1533 H1536 0.929 . S
C1534 C1533 1.363 . S
C1534 C1540 1.428 . S
H1535 C1531 0.930 . S
H1536 C1533 0.929 . S
S1537 N1538 1.613 . S
S1537 N1539 1.610 . S
N1538 S1537 1.613 . S
N1538 C1541 1.350 . S
N1539 S1537 1.610 . S
N1539 C1540 1.351 . S
C1540 C1534 1.428 . S
C1540 N1539 1.351 . S
C1540 C1541 1.434 . S
C1541 C1532 1.429 . S
C1541 N1538 1.350 . S
C1541 C1540 1.434 . S
C1542 C1543 1.369 . S
C1542 C1544 1.419 . S
C1542 H1546 0.930 . S
C1543 C1542 1.369 . S
C1543 C1552 1.429 . S
C1544 C1542 1.419 . S
C1544 C1545 1.363 . S
C1544 H1547 0.929 . S
C1545 C1544 1.363 . S
C1545 C1551 1.428 . S
H1546 C1542 0.930 . S
H1547 C1544 0.929 . S
S1548 N1549 1.613 . S
S1548 N1550 1.610 . S
N1549 S1548 1.613 . S
N1549 C1552 1.350 . S
N1550 S1548 1.610 . S
N1550 C1551 1.351 . S
C1551 C1545 1.428 . S
C1551 N1550 1.351 . S
C1551 C1552 1.434 . S
C1552 C1543 1.429 . S
C1552 N1549 1.350 . S
C1552 C1551 1.434 . S
C1553 C1554 1.369 . S
C1553 C1555 1.419 . S
C1553 H1557 0.930 . S
C1554 C1553 1.369 . S
C1554 C1563 1.429 . S
C1555 C1553 1.419 . S
C1555 C1556 1.363 . S
C1555 H1558 0.929 . S
C1556 C1555 1.363 . S
C1556 C1562 1.428 . S
H1557 C1553 0.930 . S
H1558 C1555 0.929 . S
S1559 N1560 1.613 . S
S1559 N1561 1.610 . S
N1560 S1559 1.613 . S
N1560 C1563 1.350 . S
N1561 S1559 1.610 . S
N1561 C1562 1.351 . S
C1562 C1556 1.428 . S
C1562 N1561 1.351 . S
C1562 C1563 1.434 . S
C1563 C1554 1.429 . S
C1563 N1560 1.350 . S
C1563 C1562 1.434 . S
C1564 C1565 1.369 . S
C1564 C1566 1.419 . S
C1564 H1568 0.930 . S
C1565 C1564 1.369 . S
C1565 C1574 1.429 . S
C1566 C1564 1.419 . S
C1566 C1567 1.363 . S
C1566 H1569 0.929 . S
C1567 C1566 1.363 . S
C1567 C1573 1.428 . S
H1568 C1564 0.930 . S
H1569 C1566 0.929 . S
S1570 N1571 1.613 . S
S1570 N1572 1.610 . S
N1571 S1570 1.613 . S
N1571 C1574 1.350 . S
N1572 S1570 1.610 . S
N1572 C1573 1.351 . S
C1573 C1567 1.428 . S
C1573 N1572 1.351 . S
C1573 C1574 1.434 . S
C1574 C1565 1.429 . S
C1574 N1571 1.350 . S
C1574 C1573 1.434 . S
C1575 C1576 1.369 . S
C1575 C1577 1.419 . S
C1575 H1579 0.930 . S
C1576 C1575 1.369 . S
C1576 C1585 1.429 . S
C1577 C1575 1.419 . S
C1577 C1578 1.363 . S
C1577 H1580 0.929 . S
C1578 C1577 1.363 . S
C1578 C1584 1.428 . S
H1579 C1575 0.930 . S
H1580 C1577 0.929 . S
S1581 N1582 1.613 . S
S1581 N1583 1.610 . S
N1582 S1581 1.613 . S
N1582 C1585 1.350 . S
N1583 S1581 1.610 . S
N1583 C1584 1.351 . S
C1584 C1578 1.428 . S
C1584 N1583 1.351 . S
C1584 C1585 1.434 . S
C1585 C1576 1.429 . S
C1585 N1582 1.350 . S
C1585 C1584 1.434 . S
C1586 C1587 1.369 . S
C1586 C1588 1.419 . S
C1586 H1590 0.930 . S
C1587 C1586 1.369 . S
C1587 C1596 1.429 . S
C1588 C1586 1.419 . S
C1588 C1589 1.363 . S
C1588 H1591 0.929 . S
C1589 C1588 1.363 . S
C1589 C1595 1.428 . S
H1590 C1586 0.930 . S
H1591 C1588 0.929 . S
S1592 N1593 1.613 . S
S1592 N1594 1.610 . S
N1593 S1592 1.613 . S
N1593 C1596 1.350 . S
N1594 S1592 1.610 . S
N1594 C1595 1.351 . S
C1595 C1589 1.428 . S
C1595 N1594 1.351 . S
C1595 C1596 1.434 . S
C1596 C1587 1.429 . S
C1596 N1593 1.350 . S
C1596 C1595 1.434 . S
C1597 C1598 1.369 . S
C1597 C1599 1.419 . S
C1597 H1601 0.930 . S
C1598 C1597 1.369 . S
C1598 C1607 1.429 . S
C1599 C1597 1.419 . S
C1599 C1600 1.363 . S
C1599 H1602 0.929 . S
C1600 C1599 1.363 . S
C1600 C1606 1.428 . S
H1601 C1597 0.930 . S
H1602 C1599 0.929 . S
S1603 N1604 1.613 . S
S1603 N1605 1.610 . S
N1604 S1603 1.613 . S
N1604 C1607 1.350 . S
N1605 S1603 1.610 . S
N1605 C1606 1.351 . S
C1606 C1600 1.428 . S
C1606 N1605 1.351 . S
C1606 C1607 1.434 . S
C1607 C1598 1.429 . S
C1607 N1604 1.350 . S
C1607 C1606 1.434 . S
C1608 C1609 1.369 . S
C1608 C1610 1.419 . S
C1608 H1612 0.930 . S
C1609 C1608 1.369 . S
C1609 C1618 1.429 . S
C1610 C1608 1.419 . S
C1610 C1611 1.363 . S
C1610 H1613 0.929 . S
C1611 C1610 1.363 . S
C1611 C1617 1.428 . S
H1612 C1608 0.930 . S
H1613 C1610 0.929 . S
S1614 N1615 1.613 . S
S1614 N1616 1.610 . S
N1615 S1614 1.613 . S
N1615 C1618 1.350 . S
N1616 S1614 1.610 . S
N1616 C1617 1.351 . S
C1617 C1611 1.428 . S
C1617 N1616 1.351 . S
C1617 C1618 1.434 . S
C1618 C1609 1.429 . S
C1618 N1615 1.350 . S
C1618 C1617 1.434 . S
C1619 C1620 1.369 . S
C1619 C1621 1.419 . S
C1619 H1623 0.930 . S
C1620 C1619 1.369 . S
C1620 C1629 1.429 . S
C1621 C1619 1.419 . S
C1621 C1622 1.363 . S
C1621 H1624 0.929 . S
C1622 C1621 1.363 . S
C1622 C1628 1.428 . S
H1623 C1619 0.930 . S
H1624 C1621 0.929 . S
S1625 N1626 1.613 . S
S1625 N1627 1.610 . S
N1626 S1625 1.613 . S
N1626 C1629 1.350 . S
N1627 S1625 1.610 . S
N1627 C1628 1.351 . S
C1628 C1622 1.428 . S
C1628 N1627 1.351 . S
C1628 C1629 1.434 . S
C1629 C1620 1.429 . S
C1629 N1626 1.350 . S
C1629 C1628 1.434 . S
C1630 C1631 1.369 . S
C1630 C1632 1.419 . S
C1630 H1634 0.930 . S
C1631 C1630 1.369 . S
C1631 C1640 1.429 . S
C1632 C1630 1.419 . S
C1632 C1633 1.363 . S
C1632 H1635 0.929 . S
C1633 C1632 1.363 . S
C1633 C1639 1.428 . S
H1634 C1630 0.930 . S
H1635 C1632 0.929 . S
S1636 N1637 1.613 . S
S1636 N1638 1.610 . S
N1637 S1636 1.613 . S
N1637 C1640 1.350 . S
N1638 S1636 1.610 . S
N1638 C1639 1.351 . S
C1639 C1633 1.428 . S
C1639 N1638 1.351 . S
C1639 C1640 1.434 . S
C1640 C1631 1.429 . S
C1640 N1637 1.350 . S
C1640 C1639 1.434 . S
C1641 C1642 1.369 . S
C1641 C1643 1.419 . S
C1641 H1645 0.930 . S
C1642 C1641 1.369 . S
C1642 C1651 1.429 . S
C1643 C1641 1.419 . S
C1643 C1644 1.363 . S
C1643 H1646 0.929 . S
C1644 C1643 1.363 . S
C1644 C1650 1.428 . S
H1645 C1641 0.930 . S
H1646 C1643 0.929 . S
S1647 N1648 1.613 . S
S1647 N1649 1.610 . S
N1648 S1647 1.613 . S
N1648 C1651 1.350 . S
N1649 S1647 1.610 . S
N1649 C1650 1.351 . S
C1650 C1644 1.428 . S
C1650 N1649 1.351 . S
C1650 C1651 1.434 . S
C1651 C1642 1.429 . S
C1651 N1648 1.350 . S
C1651 C1650 1.434 . S
C1652 C1653 1.369 . S
C1652 C1654 1.419 . S
C1652 H1656 0.930 . S
C1653 C1652 1.369 . S
C1653 C1662 1.429 . S
C1654 C1652 1.419 . S
C1654 C1655 1.363 . S
C1654 H1657 0.929 . S
C1655 C1654 1.363 . S
C1655 C1661 1.428 . S
H1656 C1652 0.930 . S
H1657 C1654 0.929 . S
S1658 N1659 1.613 . S
S1658 N1660 1.610 . S
N1659 S1658 1.613 . S
N1659 C1662 1.350 . S
N1660 S1658 1.610 . S
N1660 C1661 1.351 . S
C1661 C1655 1.428 . S
C1661 N1660 1.351 . S
C1661 C1662 1.434 . S
C1662 C1653 1.429 . S
C1662 N1659 1.350 . S
C1662 C1661 1.434 . S
C1663 C1664 1.369 . S
C1663 C1665 1.419 . S
C1663 H1667 0.930 . S
C1664 C1663 1.369 . S
C1664 C1673 1.429 . S
C1665 C1663 1.419 . S
C1665 C1666 1.363 . S
C1665 H1668 0.929 . S
C1666 C1665 1.363 . S
C1666 C1672 1.428 . S
H1667 C1663 0.930 . S
H1668 C1665 0.929 . S
S1669 N1670 1.613 . S
S1669 N1671 1.610 . S
N1670 S1669 1.613 . S
N1670 C1673 1.350 . S
N1671 S1669 1.610 . S
N1671 C1672 1.351 . S
C1672 C1666 1.428 . S
C1672 N1671 1.351 . S
C1672 C1673 1.434 . S
C1673 C1664 1.429 . S
C1673 N1670 1.350 . S
C1673 C1672 1.434 . S
C1674 C1675 1.369 . S
C1674 C1676 1.419 . S
C1674 H1678 0.930 . S
C1675 C1674 1.369 . S
C1675 C1684 1.429 . S
C1676 C1674 1.419 . S
C1676 C1677 1.363 . S
C1676 H1679 0.929 . S
C1677 C1676 1.363 . S
C1677 C1683 1.428 . S
H1678 C1674 0.930 . S
H1679 C1676 0.929 . S
S1680 N1681 1.613 . S
S1680 N1682 1.610 . S
N1681 S1680 1.613 . S
N1681 C1684 1.350 . S
N1682 S1680 1.610 . S
N1682 C1683 1.351 . S
C1683 C1677 1.428 . S
C1683 N1682 1.351 . S
C1683 C1684 1.434 . S
C1684 C1675 1.429 . S
C1684 N1681 1.350 . S
C1684 C1683 1.434 . S
C1685 C1686 1.369 . S
C1685 C1687 1.419 . S
C1685 H1689 0.930 . S
C1686 C1685 1.369 . S
C1686 C1695 1.429 . S
C1687 C1685 1.419 . S
C1687 C1688 1.363 . S
C1687 H1690 0.929 . S
C1688 C1687 1.363 . S
C1688 C1694 1.428 . S
H1689 C1685 0.930 . S
H1690 C1687 0.929 . S
S1691 N1692 1.613 . S
S1691 N1693 1.610 . S
N1692 S1691 1.613 . S
N1692 C1695 1.350 . S
N1693 S1691 1.610 . S
N1693 C1694 1.351 . S
C1694 C1688 1.428 . S
C1694 N1693 1.351 . S
C1694 C1695 1.434 . S
C1695 C1686 1.429 . S
C1695 N1692 1.350 . S
C1695 C1694 1.434 . S
C1696 C1697 1.369 . S
C1696 C1698 1.419 . S
C1696 H1700 0.930 . S
C1697 C1696 1.369 . S
C1697 C1706 1.429 . S
C1698 C1696 1.419 . S
C1698 C1699 1.363 . S
C1698 H1701 0.929 . S
C1699 C1698 1.363 . S
C1699 C1705 1.428 . S
H1700 C1696 0.930 . S
H1701 C1698 0.929 . S
S1702 N1703 1.613 . S
S1702 N1704 1.610 . S
N1703 S1702 1.613 . S
N1703 C1706 1.350 . S
N1704 S1702 1.610 . S
N1704 C1705 1.351 . S
C1705 C1699 1.428 . S
C1705 N1704 1.351 . S
C1705 C1706 1.434 . S
C1706 C1697 1.429 . S
C1706 N1703 1.350 . S
C1706 C1705 1.434 . S
C1707 C1708 1.369 . S
C1707 C1709 1.419 . S
C1707 H1711 0.930 . S
C1708 C1707 1.369 . S
C1708 C1717 1.429 . S
C1709 C1707 1.419 . S
C1709 C1710 1.363 . S
C1709 H1712 0.929 . S
C1710 C1709 1.363 . S
C1710 C1716 1.428 . S
H1711 C1707 0.930 . S
H1712 C1709 0.929 . S
S1713 N1714 1.613 . S
S1713 N1715 1.610 . S
N1714 S1713 1.613 . S
N1714 C1717 1.350 . S
N1715 S1713 1.610 . S
N1715 C1716 1.351 . S
C1716 C1710 1.428 . S
C1716 N1715 1.351 . S
C1716 C1717 1.434 . S
C1717 C1708 1.429 . S
C1717 N1714 1.350 . S
C1717 C1716 1.434 . S
C1718 C1719 1.369 . S
C1718 C1720 1.419 . S
C1718 H1722 0.930 . S
C1719 C1718 1.369 . S
C1719 C1728 1.429 . S
C1720 C1718 1.419 . S
C1720 C1721 1.363 . S
C1720 H1723 0.929 . S
C1721 C1720 1.363 . S
C1721 C1727 1.428 . S
H1722 C1718 0.930 . S
H1723 C1720 0.929 . S
S1724 N1725 1.613 . S
S1724 N1726 1.610 . S
N1725 S1724 1.613 . S
N1725 C1728 1.350 . S
N1726 S1724 1.610 . S
N1726 C1727 1.351 . S
C1727 C1721 1.428 . S
C1727 N1726 1.351 . S
C1727 C1728 1.434 . S
C1728 C1719 1.429 . S
C1728 N1725 1.350 . S
C1728 C1727 1.434 . S
C1729 C1730 1.369 . S
C1729 C1731 1.419 . S
C1729 H1733 0.930 . S
C1730 C1729 1.369 . S
C1730 C1739 1.429 . S
C1731 C1729 1.419 . S
C1731 C1732 1.363 . S
C1731 H1734 0.929 . S
C1732 C1731 1.363 . S
C1732 C1738 1.428 . S
H1733 C1729 0.930 . S
H1734 C1731 0.929 . S
S1735 N1736 1.613 . S
S1735 N1737 1.610 . S
N1736 S1735 1.613 . S
N1736 C1739 1.350 . S
N1737 S1735 1.610 . S
N1737 C1738 1.351 . S
C1738 C1732 1.428 . S
C1738 N1737 1.351 . S
C1738 C1739 1.434 . S
C1739 C1730 1.429 . S
C1739 N1736 1.350 . S
C1739 C1738 1.434 . S
C1740 C1741 1.369 . S
C1740 C1742 1.419 . S
C1740 H1744 0.930 . S
C1741 C1740 1.369 . S
C1741 C1750 1.429 . S
C1742 C1740 1.419 . S
C1742 C1743 1.363 . S
C1742 H1745 0.929 . S
C1743 C1742 1.363 . S
C1743 C1749 1.428 . S
H1744 C1740 0.930 . S
H1745 C1742 0.929 . S
S1746 N1747 1.613 . S
S1746 N1748 1.610 . S
N1747 S1746 1.613 . S
N1747 C1750 1.350 . S
N1748 S1746 1.610 . S
N1748 C1749 1.351 . S
C1749 C1743 1.428 . S
C1749 N1748 1.351 . S
C1749 C1750 1.434 . S
C1750 C1741 1.429 . S
C1750 N1747 1.350 . S
C1750 C1749 1.434 . S
C1751 C1752 1.369 . S
C1751 C1753 1.419 . S
C1751 H1755 0.930 . S
C1752 C1751 1.369 . S
C1752 C1761 1.429 . S
C1753 C1751 1.419 . S
C1753 C1754 1.363 . S
C1753 H1756 0.929 . S
C1754 C1753 1.363 . S
C1754 C1760 1.428 . S
H1755 C1751 0.930 . S
H1756 C1753 0.929 . S
S1757 N1758 1.613 . S
S1757 N1759 1.610 . S
N1758 S1757 1.613 . S
N1758 C1761 1.350 . S
N1759 S1757 1.610 . S
N1759 C1760 1.351 . S
C1760 C1754 1.428 . S
C1760 N1759 1.351 . S
C1760 C1761 1.434 . S
C1761 C1752 1.429 . S
C1761 N1758 1.350 . S
C1761 C1760 1.434 . S
C1762 C1763 1.369 . S
C1762 C1764 1.419 . S
C1762 H1766 0.930 . S
C1763 C1762 1.369 . S
C1763 C1772 1.429 . S
C1764 C1762 1.419 . S
C1764 C1765 1.363 . S
C1764 H1767 0.929 . S
C1765 C1764 1.363 . S
C1765 C1771 1.428 . S
H1766 C1762 0.930 . S
H1767 C1764 0.929 . S
S1768 N1769 1.613 . S
S1768 N1770 1.610 . S
N1769 S1768 1.613 . S
N1769 C1772 1.350 . S
N1770 S1768 1.610 . S
N1770 C1771 1.351 . S
C1771 C1765 1.428 . S
C1771 N1770 1.351 . S
C1771 C1772 1.434 . S
C1772 C1763 1.429 . S
C1772 N1769 1.350 . S
C1772 C1771 1.434 . S
C1773 C1774 1.369 . S
C1773 C1775 1.419 . S
C1773 H1777 0.930 . S
C1774 C1773 1.369 . S
C1774 C1783 1.429 . S
C1775 C1773 1.419 . S
C1775 C1776 1.363 . S
C1775 H1778 0.929 . S
C1776 C1775 1.363 . S
C1776 C1782 1.428 . S
H1777 C1773 0.930 . S
H1778 C1775 0.929 . S
S1779 N1780 1.613 . S
S1779 N1781 1.610 . S
N1780 S1779 1.613 . S
N1780 C1783 1.350 . S
N1781 S1779 1.610 . S
N1781 C1782 1.351 . S
C1782 C1776 1.428 . S
C1782 N1781 1.351 . S
C1782 C1783 1.434 . S
C1783 C1774 1.429 . S
C1783 N1780 1.350 . S
C1783 C1782 1.434 . S
C1784 C1785 1.369 . S
C1784 C1786 1.419 . S
C1784 H1788 0.930 . S
C1785 C1784 1.369 . S
C1785 C1794 1.429 . S
C1786 C1784 1.419 . S
C1786 C1787 1.363 . S
C1786 H1789 0.929 . S
C1787 C1786 1.363 . S
C1787 C1793 1.428 . S
H1788 C1784 0.930 . S
H1789 C1786 0.929 . S
S1790 N1791 1.613 . S
S1790 N1792 1.610 . S
N1791 S1790 1.613 . S
N1791 C1794 1.350 . S
N1792 S1790 1.610 . S
N1792 C1793 1.351 . S
C1793 C1787 1.428 . S
C1793 N1792 1.351 . S
C1793 C1794 1.434 . S
C1794 C1785 1.429 . S
C1794 N1791 1.350 . S
C1794 C1793 1.434 . S
C1795 C1796 1.369 . S
C1795 C1797 1.419 . S
C1795 H1799 0.930 . S
C1796 C1795 1.369 . S
C1796 C1805 1.429 . S
C1797 C1795 1.419 . S
C1797 C1798 1.363 . S
C1797 H1800 0.929 . S
C1798 C1797 1.363 . S
C1798 C1804 1.428 . S
H1799 C1795 0.930 . S
H1800 C1797 0.929 . S
S1801 N1802 1.613 . S
S1801 N1803 1.610 . S
N1802 S1801 1.613 . S
N1802 C1805 1.350 . S
N1803 S1801 1.610 . S
N1803 C1804 1.351 . S
C1804 C1798 1.428 . S
C1804 N1803 1.351 . S
C1804 C1805 1.434 . S
C1805 C1796 1.429 . S
C1805 N1802 1.350 . S
C1805 C1804 1.434 . S
C1806 C1807 1.369 . S
C1806 C1808 1.419 . S
C1806 H1810 0.930 . S
C1807 C1806 1.369 . S
C1807 C1816 1.429 . S
C1808 C1806 1.419 . S
C1808 C1809 1.363 . S
C1808 H1811 0.929 . S
C1809 C1808 1.363 . S
C1809 C1815 1.428 . S
H1810 C1806 0.930 . S
H1811 C1808 0.929 . S
S1812 N1813 1.613 . S
S1812 N1814 1.610 . S
N1813 S1812 1.613 . S
N1813 C1816 1.350 . S
N1814 S1812 1.610 . S
N1814 C1815 1.351 . S
C1815 C1809 1.428 . S
C1815 N1814 1.351 . S
C1815 C1816 1.434 . S
C1816 C1807 1.429 . S
C1816 N1813 1.350 . S
C1816 C1815 1.434 . S
C1817 C1818 1.369 . S
C1817 C1819 1.419 . S
C1817 H1821 0.930 . S
C1818 C1817 1.369 . S
C1818 C1827 1.429 . S
C1819 C1817 1.419 . S
C1819 C1820 1.363 . S
C1819 H1822 0.929 . S
C1820 C1819 1.363 . S
C1820 C1826 1.428 . S
H1821 C1817 0.930 . S
H1822 C1819 0.929 . S
S1823 N1824 1.613 . S
S1823 N1825 1.610 . S
N1824 S1823 1.613 . S
N1824 C1827 1.350 . S
N1825 S1823 1.610 . S
N1825 C1826 1.351 . S
C1826 C1820 1.428 . S
C1826 N1825 1.351 . S
C1826 C1827 1.434 . S
C1827 C1818 1.429 . S
C1827 N1824 1.350 . S
C1827 C1826 1.434 . S
C1828 C1829 1.369 . S
C1828 C1830 1.419 . S
C1828 H1832 0.930 . S
C1829 C1828 1.369 . S
C1829 C1838 1.429 . S
C1830 C1828 1.419 . S
C1830 C1831 1.363 . S
C1830 H1833 0.929 . S
C1831 C1830 1.363 . S
C1831 C1837 1.428 . S
H1832 C1828 0.930 . S
H1833 C1830 0.929 . S
S1834 N1835 1.613 . S
S1834 N1836 1.610 . S
N1835 S1834 1.613 . S
N1835 C1838 1.350 . S
N1836 S1834 1.610 . S
N1836 C1837 1.351 . S
C1837 C1831 1.428 . S
C1837 N1836 1.351 . S
C1837 C1838 1.434 . S
C1838 C1829 1.429 . S
C1838 N1835 1.350 . S
C1838 C1837 1.434 . S
C1839 C1840 1.369 . S
C1839 C1841 1.419 . S
C1839 H1843 0.930 . S
C1840 C1839 1.369 . S
C1840 C1849 1.429 . S
C1841 C1839 1.419 . S
C1841 C1842 1.363 . S
C1841 H1844 0.929 . S
C1842 C1841 1.363 . S
C1842 C1848 1.428 . S
H1843 C1839 0.930 . S
H1844 C1841 0.929 . S
S1845 N1846 1.613 . S
S1845 N1847 1.610 . S
N1846 S1845 1.613 . S
N1846 C1849 1.350 . S
N1847 S1845 1.610 . S
N1847 C1848 1.351 . S
C1848 C1842 1.428 . S
C1848 N1847 1.351 . S
C1848 C1849 1.434 . S
C1849 C1840 1.429 . S
C1849 N1846 1.350 . S
C1849 C1848 1.434 . S
C1850 C1851 1.369 . S
C1850 C1852 1.419 . S
C1850 H1854 0.930 . S
C1851 C1850 1.369 . S
C1851 C1860 1.429 . S
C1852 C1850 1.419 . S
C1852 C1853 1.363 . S
C1852 H1855 0.929 . S
C1853 C1852 1.363 . S
C1853 C1859 1.428 . S
H1854 C1850 0.930 . S
H1855 C1852 0.929 . S
S1856 N1857 1.613 . S
S1856 N1858 1.610 . S
N1857 S1856 1.613 . S
N1857 C1860 1.350 . S
N1858 S1856 1.610 . S
N1858 C1859 1.351 . S
C1859 C1853 1.428 . S
C1859 N1858 1.351 . S
C1859 C1860 1.434 . S
C1860 C1851 1.429 . S
C1860 N1857 1.350 . S
C1860 C1859 1.434 . S
C1861 C1862 1.369 . S
C1861 C1863 1.419 . S
C1861 H1865 0.930 . S
C1862 C1861 1.369 . S
C1862 C1871 1.429 . S
C1863 C1861 1.419 . S
C1863 C1864 1.363 . S
C1863 H1866 0.929 . S
C1864 C1863 1.363 . S
C1864 C1870 1.428 . S
H1865 C1861 0.930 . S
H1866 C1863 0.929 . S
S1867 N1868 1.613 . S
S1867 N1869 1.610 . S
N1868 S1867 1.613 . S
N1868 C1871 1.350 . S
N1869 S1867 1.610 . S
N1869 C1870 1.351 . S
C1870 C1864 1.428 . S
C1870 N1869 1.351 . S
C1870 C1871 1.434 . S
C1871 C1862 1.429 . S
C1871 N1868 1.350 . S
C1871 C1870 1.434 . S
C1872 C1873 1.369 . S
C1872 C1874 1.419 . S
C1872 H1876 0.930 . S
C1873 C1872 1.369 . S
C1873 C1882 1.429 . S
C1874 C1872 1.419 . S
C1874 C1875 1.363 . S
C1874 H1877 0.929 . S
C1875 C1874 1.363 . S
C1875 C1881 1.428 . S
H1876 C1872 0.930 . S
H1877 C1874 0.929 . S
S1878 N1879 1.613 . S
S1878 N1880 1.610 . S
N1879 S1878 1.613 . S
N1879 C1882 1.350 . S
N1880 S1878 1.610 . S
N1880 C1881 1.351 . S
C1881 C1875 1.428 . S
C1881 N1880 1.351 . S
C1881 C1882 1.434 . S
C1882 C1873 1.429 . S
C1882 N1879 1.350 . S
C1882 C1881 1.434 . S
C1883 C1884 1.369 . S
C1883 C1885 1.419 . S
C1883 H1887 0.930 . S
C1884 C1883 1.369 . S
C1884 C1893 1.429 . S
C1885 C1883 1.419 . S
C1885 C1886 1.363 . S
C1885 H1888 0.929 . S
C1886 C1885 1.363 . S
C1886 C1892 1.428 . S
H1887 C1883 0.930 . S
H1888 C1885 0.929 . S
S1889 N1890 1.613 . S
S1889 N1891 1.610 . S
N1890 S1889 1.613 . S
N1890 C1893 1.350 . S
N1891 S1889 1.610 . S
N1891 C1892 1.351 . S
C1892 C1886 1.428 . S
C1892 N1891 1.351 . S
C1892 C1893 1.434 . S
C1893 C1884 1.429 . S
C1893 N1890 1.350 . S
C1893 C1892 1.434 . S
C1894 C1895 1.369 . S
C1894 C1896 1.419 . S
C1894 H1898 0.930 . S
C1895 C1894 1.369 . S
C1895 C1904 1.429 . S
C1896 C1894 1.419 . S
C1896 C1897 1.363 . S
C1896 H1899 0.929 . S
C1897 C1896 1.363 . S
C1897 C1903 1.428 . S
H1898 C1894 0.930 . S
H1899 C1896 0.929 . S
S1900 N1901 1.613 . S
S1900 N1902 1.610 . S
N1901 S1900 1.613 . S
N1901 C1904 1.350 . S
N1902 S1900 1.610 . S
N1902 C1903 1.351 . S
C1903 C1897 1.428 . S
C1903 N1902 1.351 . S
C1903 C1904 1.434 . S
C1904 C1895 1.429 . S
C1904 N1901 1.350 . S
C1904 C1903 1.434 . S
C1905 C1906 1.369 . S
C1905 C1907 1.419 . S
C1905 H1909 0.930 . S
C1906 C1905 1.369 . S
C1906 C1915 1.429 . S
C1907 C1905 1.419 . S
C1907 C1908 1.363 . S
C1907 H1910 0.929 . S
C1908 C1907 1.363 . S
C1908 C1914 1.428 . S
H1909 C1905 0.930 . S
H1910 C1907 0.929 . S
S1911 N1912 1.613 . S
S1911 N1913 1.610 . S
N1912 S1911 1.613 . S
N1912 C1915 1.350 . S
N1913 S1911 1.610 . S
N1913 C1914 1.351 . S
C1914 C1908 1.428 . S
C1914 N1913 1.351 . S
C1914 C1915 1.434 . S
C1915 C1906 1.429 . S
C1915 N1912 1.350 . S
C1915 C1914 1.434 . S
C1916 C1917 1.369 . S
C1916 C1918 1.419 . S
C1916 H1920 0.930 . S
C1917 C1916 1.369 . S
C1917 C1926 1.429 . S
C1918 C1916 1.419 . S
C1918 C1919 1.363 . S
C1918 H1921 0.929 . S
C1919 C1918 1.363 . S
C1919 C1925 1.428 . S
H1920 C1916 0.930 . S
H1921 C1918 0.929 . S
S1922 N1923 1.613 . S
S1922 N1924 1.610 . S
N1923 S1922 1.613 . S
N1923 C1926 1.350 . S
N1924 S1922 1.610 . S
N1924 C1925 1.351 . S
C1925 C1919 1.428 . S
C1925 N1924 1.351 . S
C1925 C1926 1.434 . S
C1926 C1917 1.429 . S
C1926 N1923 1.350 . S
C1926 C1925 1.434 . S
C1927 C1928 1.369 . S
C1927 C1929 1.419 . S
C1927 H1931 0.930 . S
C1928 C1927 1.369 . S
C1928 C1937 1.429 . S
C1929 C1927 1.419 . S
C1929 C1930 1.363 . S
C1929 H1932 0.929 . S
C1930 C1929 1.363 . S
C1930 C1936 1.428 . S
H1931 C1927 0.930 . S
H1932 C1929 0.929 . S
S1933 N1934 1.613 . S
S1933 N1935 1.610 . S
N1934 S1933 1.613 . S
N1934 C1937 1.350 . S
N1935 S1933 1.610 . S
N1935 C1936 1.351 . S
C1936 C1930 1.428 . S
C1936 N1935 1.351 . S
C1936 C1937 1.434 . S
C1937 C1928 1.429 . S
C1937 N1934 1.350 . S
C1937 C1936 1.434 . S
C1938 C1939 1.369 . S
C1938 C1940 1.419 . S
C1938 H1942 0.930 . S
C1939 C1938 1.369 . S
C1939 C1948 1.429 . S
C1940 C1938 1.419 . S
C1940 C1941 1.363 . S
C1940 H1943 0.929 . S
C1941 C1940 1.363 . S
C1941 C1947 1.428 . S
H1942 C1938 0.930 . S
H1943 C1940 0.929 . S
S1944 N1945 1.613 . S
S1944 N1946 1.610 . S
N1945 S1944 1.613 . S
N1945 C1948 1.350 . S
N1946 S1944 1.610 . S
N1946 C1947 1.351 . S
C1947 C1941 1.428 . S
C1947 N1946 1.351 . S
C1947 C1948 1.434 . S
C1948 C1939 1.429 . S
C1948 N1945 1.350 . S
C1948 C1947 1.434 . S
C1949 C1950 1.369 . S
C1949 C1951 1.419 . S
C1949 H1953 0.930 . S
C1950 C1949 1.369 . S
C1950 C1959 1.429 . S
C1951 C1949 1.419 . S
C1951 C1952 1.363 . S
C1951 H1954 0.929 . S
C1952 C1951 1.363 . S
C1952 C1958 1.428 . S
H1953 C1949 0.930 . S
H1954 C1951 0.929 . S
S1955 N1956 1.613 . S
S1955 N1957 1.610 . S
N1956 S1955 1.613 . S
N1956 C1959 1.350 . S
N1957 S1955 1.610 . S
N1957 C1958 1.351 . S
C1958 C1952 1.428 . S
C1958 N1957 1.351 . S
C1958 C1959 1.434 . S
C1959 C1950 1.429 . S
C1959 N1956 1.350 . S
C1959 C1958 1.434 . S
C1960 C1961 1.369 . S
C1960 C1962 1.419 . S
C1960 H1964 0.930 . S
C1961 C1960 1.369 . S
C1961 C1970 1.429 . S
C1962 C1960 1.419 . S
C1962 C1963 1.363 . S
C1962 H1965 0.929 . S
C1963 C1962 1.363 . S
C1963 C1969 1.428 . S
H1964 C1960 0.930 . S
H1965 C1962 0.929 . S
S1966 N1967 1.613 . S
S1966 N1968 1.610 . S
N1967 S1966 1.613 . S
N1967 C1970 1.350 . S
N1968 S1966 1.610 . S
N1968 C1969 1.351 . S
C1969 C1963 1.428 . S
C1969 N1968 1.351 . S
C1969 C1970 1.434 . S
C1970 C1961 1.429 . S
C1970 N1967 1.350 . S
C1970 C1969 1.434 . S
C1971 C1972 1.369 . S
C1971 C1973 1.419 . S
C1971 H1975 0.930 . S
C1972 C1971 1.369 . S
C1972 C1981 1.429 . S
C1973 C1971 1.419 . S
C1973 C1974 1.363 . S
C1973 H1976 0.929 . S
C1974 C1973 1.363 . S
C1974 C1980 1.428 . S
H1975 C1971 0.930 . S
H1976 C1973 0.929 . S
S1977 N1978 1.613 . S
S1977 N1979 1.610 . S
N1978 S1977 1.613 . S
N1978 C1981 1.350 . S
N1979 S1977 1.610 . S
N1979 C1980 1.351 . S
C1980 C1974 1.428 . S
C1980 N1979 1.351 . S
C1980 C1981 1.434 . S
C1981 C1972 1.429 . S
C1981 N1978 1.350 . S
C1981 C1980 1.434 . S
C1982 C1983 1.369 . S
C1982 C1984 1.419 . S
C1982 H1986 0.930 . S
C1983 C1982 1.369 . S
C1983 C1992 1.429 . S
C1984 C1982 1.419 . S
C1984 C1985 1.363 . S
C1984 H1987 0.929 . S
C1985 C1984 1.363 . S
C1985 C1991 1.428 . S
H1986 C1982 0.930 . S
H1987 C1984 0.929 . S
S1988 N1989 1.613 . S
S1988 N1990 1.610 . S
N1989 S1988 1.613 . S
N1989 C1992 1.350 . S
N1990 S1988 1.610 . S
N1990 C1991 1.351 . S
C1991 C1985 1.428 . S
C1991 N1990 1.351 . S
C1991 C1992 1.434 . S
C1992 C1983 1.429 . S
C1992 N1989 1.350 . S
C1992 C1991 1.434 . S
C1993 C1994 1.369 . S
C1993 C1995 1.419 . S
C1993 H1997 0.930 . S
C1994 C1993 1.369 . S
C1994 C2003 1.429 . S
C1995 C1993 1.419 . S
C1995 C1996 1.363 . S
C1995 H1998 0.929 . S
C1996 C1995 1.363 . S
C1996 C2002 1.428 . S
H1997 C1993 0.930 . S
H1998 C1995 0.929 . S
S1999 N2000 1.613 . S
S1999 N2001 1.610 . S
N2000 S1999 1.613 . S
N2000 C2003 1.350 . S
N2001 S1999 1.610 . S
N2001 C2002 1.351 . S
C2002 C1996 1.428 . S
C2002 N2001 1.351 . S
C2002 C2003 1.434 . S
C2003 C1994 1.429 . S
C2003 N2000 1.350 . S
C2003 C2002 1.434 . S
C2004 C2005 1.369 . S
C2004 C2006 1.419 . S
C2004 H2008 0.930 . S
C2005 C2004 1.369 . S
C2005 C2014 1.429 . S
C2006 C2004 1.419 . S
C2006 C2007 1.363 . S
C2006 H2009 0.929 . S
C2007 C2006 1.363 . S
C2007 C2013 1.428 . S
H2008 C2004 0.930 . S
H2009 C2006 0.929 . S
S2010 N2011 1.613 . S
S2010 N2012 1.610 . S
N2011 S2010 1.613 . S
N2011 C2014 1.350 . S
N2012 S2010 1.610 . S
N2012 C2013 1.351 . S
C2013 C2007 1.428 . S
C2013 N2012 1.351 . S
C2013 C2014 1.434 . S
C2014 C2005 1.429 . S
C2014 N2011 1.350 . S
C2014 C2013 1.434 . S
C2015 C2016 1.369 . S
C2015 C2017 1.419 . S
C2015 H2019 0.930 . S
C2016 C2015 1.369 . S
C2016 C2025 1.429 . S
C2017 C2015 1.419 . S
C2017 C2018 1.363 . S
C2017 H2020 0.929 . S
C2018 C2017 1.363 . S
C2018 C2024 1.428 . S
H2019 C2015 0.930 . S
H2020 C2017 0.929 . S
S2021 N2022 1.613 . S
S2021 N2023 1.610 . S
N2022 S2021 1.613 . S
N2022 C2025 1.350 . S
N2023 S2021 1.610 . S
N2023 C2024 1.351 . S
C2024 C2018 1.428 . S
C2024 N2023 1.351 . S
C2024 C2025 1.434 . S
C2025 C2016 1.429 . S
C2025 N2022 1.350 . S
C2025 C2024 1.434 . S
C2026 C2027 1.369 . S
C2026 C2028 1.419 . S
C2026 H2030 0.930 . S
C2027 C2026 1.369 . S
C2027 C2036 1.429 . S
C2028 C2026 1.419 . S
C2028 C2029 1.363 . S
C2028 H2031 0.929 . S
C2029 C2028 1.363 . S
C2029 C2035 1.428 . S
H2030 C2026 0.930 . S
H2031 C2028 0.929 . S
S2032 N2033 1.613 . S
S2032 N2034 1.610 . S
N2033 S2032 1.613 . S
N2033 C2036 1.350 . S
N2034 S2032 1.610 . S
N2034 C2035 1.351 . S
C2035 C2029 1.428 . S
C2035 N2034 1.351 . S
C2035 C2036 1.434 . S
C2036 C2027 1.429 . S
C2036 N2033 1.350 . S
C2036 C2035 1.434 . S
C2037 C2038 1.369 . S
C2037 C2039 1.419 . S
C2037 H2041 0.930 . S
C2038 C2037 1.369 . S
C2038 C2047 1.429 . S
C2039 C2037 1.419 . S
C2039 C2040 1.363 . S
C2039 H2042 0.929 . S
C2040 C2039 1.363 . S
C2040 C2046 1.428 . S
H2041 C2037 0.930 . S
H2042 C2039 0.929 . S
S2043 N2044 1.613 . S
S2043 N2045 1.610 . S
N2044 S2043 1.613 . S
N2044 C2047 1.350 . S
N2045 S2043 1.610 . S
N2045 C2046 1.351 . S
C2046 C2040 1.428 . S
C2046 N2045 1.351 . S
C2046 C2047 1.434 . S
C2047 C2038 1.429 . S
C2047 N2044 1.350 . S
C2047 C2046 1.434 . S
C2048 C2049 1.369 . S
C2048 C2050 1.419 . S
C2048 H2052 0.930 . S
C2049 C2048 1.369 . S
C2049 C2058 1.429 . S
C2050 C2048 1.419 . S
C2050 C2051 1.363 . S
C2050 H2053 0.929 . S
C2051 C2050 1.363 . S
C2051 C2057 1.428 . S
H2052 C2048 0.930 . S
H2053 C2050 0.929 . S
S2054 N2055 1.613 . S
S2054 N2056 1.610 . S
N2055 S2054 1.613 . S
N2055 C2058 1.350 . S
N2056 S2054 1.610 . S
N2056 C2057 1.351 . S
C2057 C2051 1.428 . S
C2057 N2056 1.351 . S
C2057 C2058 1.434 . S
C2058 C2049 1.429 . S
C2058 N2055 1.350 . S
C2058 C2057 1.434 . S
C2059 C2060 1.369 . S
C2059 C2061 1.419 . S
C2059 H2063 0.930 . S
C2060 C2059 1.369 . S
C2060 C2069 1.429 . S
C2061 C2059 1.419 . S
C2061 C2062 1.363 . S
C2061 H2064 0.929 . S
C2062 C2061 1.363 . S
C2062 C2068 1.428 . S
H2063 C2059 0.930 . S
H2064 C2061 0.929 . S
S2065 N2066 1.613 . S
S2065 N2067 1.610 . S
N2066 S2065 1.613 . S
N2066 C2069 1.350 . S
N2067 S2065 1.610 . S
N2067 C2068 1.351 . S
C2068 C2062 1.428 . S
C2068 N2067 1.351 . S
C2068 C2069 1.434 . S
C2069 C2060 1.429 . S
C2069 N2066 1.350 . S
C2069 C2068 1.434 . S
C2070 C2071 1.369 . S
C2070 C2072 1.419 . S
C2070 H2074 0.930 . S
C2071 C2070 1.369 . S
C2071 C2080 1.429 . S
C2072 C2070 1.419 . S
C2072 C2073 1.363 . S
C2072 H2075 0.929 . S
C2073 C2072 1.363 . S
C2073 C2079 1.428 . S
H2074 C2070 0.930 . S
H2075 C2072 0.929 . S
S2076 N2077 1.613 . S
S2076 N2078 1.610 . S
N2077 S2076 1.613 . S
N2077 C2080 1.350 . S
N2078 S2076 1.610 . S
N2078 C2079 1.351 . S
C2079 C2073 1.428 . S
C2079 N2078 1.351 . S
C2079 C2080 1.434 . S
C2080 C2071 1.429 . S
C2080 N2077 1.350 . S
C2080 C2079 1.434 . S
C2081 C2082 1.369 . S
C2081 C2083 1.419 . S
C2081 H2085 0.930 . S
C2082 C2081 1.369 . S
C2082 C2091 1.429 . S
C2083 C2081 1.419 . S
C2083 C2084 1.363 . S
C2083 H2086 0.929 . S
C2084 C2083 1.363 . S
C2084 C2090 1.428 . S
H2085 C2081 0.930 . S
H2086 C2083 0.929 . S
S2087 N2088 1.613 . S
S2087 N2089 1.610 . S
N2088 S2087 1.613 . S
N2088 C2091 1.350 . S
N2089 S2087 1.610 . S
N2089 C2090 1.351 . S
C2090 C2084 1.428 . S
C2090 N2089 1.351 . S
C2090 C2091 1.434 . S
C2091 C2082 1.429 . S
C2091 N2088 1.350 . S
C2091 C2090 1.434 . S
C2092 C2093 1.369 . S
C2092 C2094 1.419 . S
C2092 H2096 0.930 . S
C2093 C2092 1.369 . S
C2093 C2102 1.429 . S
C2094 C2092 1.419 . S
C2094 C2095 1.363 . S
C2094 H2097 0.929 . S
C2095 C2094 1.363 . S
C2095 C2101 1.428 . S
H2096 C2092 0.930 . S
H2097 C2094 0.929 . S
S2098 N2099 1.613 . S
S2098 N2100 1.610 . S
N2099 S2098 1.613 . S
N2099 C2102 1.350 . S
N2100 S2098 1.610 . S
N2100 C2101 1.351 . S
C2101 C2095 1.428 . S
C2101 N2100 1.351 . S
C2101 C2102 1.434 . S
C2102 C2093 1.429 . S
C2102 N2099 1.350 . S
C2102 C2101 1.434 . S
C2103 C2104 1.369 . S
C2103 C2105 1.419 . S
C2103 H2107 0.930 . S
C2104 C2103 1.369 . S
C2104 C2113 1.429 . S
C2105 C2103 1.419 . S
C2105 C2106 1.363 . S
C2105 H2108 0.929 . S
C2106 C2105 1.363 . S
C2106 C2112 1.428 . S
H2107 C2103 0.930 . S
H2108 C2105 0.929 . S
S2109 N2110 1.613 . S
S2109 N2111 1.610 . S
N2110 S2109 1.613 . S
N2110 C2113 1.350 . S
N2111 S2109 1.610 . S
N2111 C2112 1.351 . S
C2112 C2106 1.428 . S
C2112 N2111 1.351 . S
C2112 C2113 1.434 . S
C2113 C2104 1.429 . S
C2113 N2110 1.350 . S
C2113 C2112 1.434 . S
C2114 C2115 1.369 . S
C2114 C2116 1.419 . S
C2114 H2118 0.930 . S
C2115 C2114 1.369 . S
C2115 C2124 1.429 . S
C2116 C2114 1.419 . S
C2116 C2117 1.363 . S
C2116 H2119 0.929 . S
C2117 C2116 1.363 . S
C2117 C2123 1.428 . S
H2118 C2114 0.930 . S
H2119 C2116 0.929 . S
S2120 N2121 1.613 . S
S2120 N2122 1.610 . S
N2121 S2120 1.613 . S
N2121 C2124 1.350 . S
N2122 S2120 1.610 . S
N2122 C2123 1.351 . S
C2123 C2117 1.428 . S
C2123 N2122 1.351 . S
C2123 C2124 1.434 . S
C2124 C2115 1.429 . S
C2124 N2121 1.350 . S
C2124 C2123 1.434 . S
C2125 C2126 1.369 . S
C2125 C2127 1.419 . S
C2125 H2129 0.930 . S
C2126 C2125 1.369 . S
C2126 C2135 1.429 . S
C2127 C2125 1.419 . S
C2127 C2128 1.363 . S
C2127 H2130 0.929 . S
C2128 C2127 1.363 . S
C2128 C2134 1.428 . S
H2129 C2125 0.930 . S
H2130 C2127 0.929 . S
S2131 N2132 1.613 . S
S2131 N2133 1.610 . S
N2132 S2131 1.613 . S
N2132 C2135 1.350 . S
N2133 S2131 1.610 . S
N2133 C2134 1.351 . S
C2134 C2128 1.428 . S
C2134 N2133 1.351 . S
C2134 C2135 1.434 . S
C2135 C2126 1.429 . S
C2135 N2132 1.350 . S
C2135 C2134 1.434 . S
C2136 C2137 1.369 . S
C2136 C2138 1.419 . S
C2136 H2140 0.930 . S
C2137 C2136 1.369 . S
C2137 C2146 1.429 . S
C2138 C2136 1.419 . S
C2138 C2139 1.363 . S
C2138 H2141 0.929 . S
C2139 C2138 1.363 . S
C2139 C2145 1.428 . S
H2140 C2136 0.930 . S
H2141 C2138 0.929 . S
S2142 N2143 1.613 . S
S2142 N2144 1.610 . S
N2143 S2142 1.613 . S
N2143 C2146 1.350 . S
N2144 S2142 1.610 . S
N2144 C2145 1.351 . S
C2145 C2139 1.428 . S
C2145 N2144 1.351 . S
C2145 C2146 1.434 . S
C2146 C2137 1.429 . S
C2146 N2143 1.350 . S
C2146 C2145 1.434 . S
C2147 C2148 1.369 . S
C2147 C2149 1.419 . S
C2147 H2151 0.930 . S
C2148 C2147 1.369 . S
C2148 C2157 1.429 . S
C2149 C2147 1.419 . S
C2149 C2150 1.363 . S
C2149 H2152 0.929 . S
C2150 C2149 1.363 . S
C2150 C2156 1.428 . S
H2151 C2147 0.930 . S
H2152 C2149 0.929 . S
S2153 N2154 1.613 . S
S2153 N2155 1.610 . S
N2154 S2153 1.613 . S
N2154 C2157 1.350 . S
N2155 S2153 1.610 . S
N2155 C2156 1.351 . S
C2156 C2150 1.428 . S
C2156 N2155 1.351 . S
C2156 C2157 1.434 . S
C2157 C2148 1.429 . S
C2157 N2154 1.350 . S
C2157 C2156 1.434 . S
C2158 C2159 1.369 . S
C2158 C2160 1.419 . S
C2158 H2162 0.930 . S
C2159 C2158 1.369 . S
C2159 C2168 1.429 . S
C2160 C2158 1.419 . S
C2160 C2161 1.363 . S
C2160 H2163 0.929 . S
C2161 C2160 1.363 . S
C2161 C2167 1.428 . S
H2162 C2158 0.930 . S
H2163 C2160 0.929 . S
S2164 N2165 1.613 . S
S2164 N2166 1.610 . S
N2165 S2164 1.613 . S
N2165 C2168 1.350 . S
N2166 S2164 1.610 . S
N2166 C2167 1.351 . S
C2167 C2161 1.428 . S
C2167 N2166 1.351 . S
C2167 C2168 1.434 . S
C2168 C2159 1.429 . S
C2168 N2165 1.350 . S
C2168 C2167 1.434 . S
C2169 C2170 1.369 . S
C2169 C2171 1.419 . S
C2169 H2173 0.930 . S
C2170 C2169 1.369 . S
C2170 C2179 1.429 . S
C2171 C2169 1.419 . S
C2171 C2172 1.363 . S
C2171 H2174 0.929 . S
C2172 C2171 1.363 . S
C2172 C2178 1.428 . S
H2173 C2169 0.930 . S
H2174 C2171 0.929 . S
S2175 N2176 1.613 . S
S2175 N2177 1.610 . S
N2176 S2175 1.613 . S
N2176 C2179 1.350 . S
N2177 S2175 1.610 . S
N2177 C2178 1.351 . S
C2178 C2172 1.428 . S
C2178 N2177 1.351 . S
C2178 C2179 1.434 . S
C2179 C2170 1.429 . S
C2179 N2176 1.350 . S
C2179 C2178 1.434 . S
C2180 C2181 1.369 . S
C2180 C2182 1.419 . S
C2180 H2184 0.930 . S
C2181 C2180 1.369 . S
C2181 C2190 1.429 . S
C2182 C2180 1.419 . S
C2182 C2183 1.363 . S
C2182 H2185 0.929 . S
C2183 C2182 1.363 . S
C2183 C2189 1.428 . S
H2184 C2180 0.930 . S
H2185 C2182 0.929 . S
S2186 N2187 1.613 . S
S2186 N2188 1.610 . S
N2187 S2186 1.613 . S
N2187 C2190 1.350 . S
N2188 S2186 1.610 . S
N2188 C2189 1.351 . S
C2189 C2183 1.428 . S
C2189 N2188 1.351 . S
C2189 C2190 1.434 . S
C2190 C2181 1.429 . S
C2190 N2187 1.350 . S
C2190 C2189 1.434 . S
C2191 C2192 1.369 . S
C2191 C2193 1.419 . S
C2191 H2195 0.930 . S
C2192 C2191 1.369 . S
C2192 C2201 1.429 . S
C2193 C2191 1.419 . S
C2193 C2194 1.363 . S
C2193 H2196 0.929 . S
C2194 C2193 1.363 . S
C2194 C2200 1.428 . S
H2195 C2191 0.930 . S
H2196 C2193 0.929 . S
S2197 N2198 1.613 . S
S2197 N2199 1.610 . S
N2198 S2197 1.613 . S
N2198 C2201 1.350 . S
N2199 S2197 1.610 . S
N2199 C2200 1.351 . S
C2200 C2194 1.428 . S
C2200 N2199 1.351 . S
C2200 C2201 1.434 . S
C2201 C2192 1.429 . S
C2201 N2198 1.350 . S
C2201 C2200 1.434 . S
C2202 C2203 1.369 . S
C2202 C2204 1.419 . S
C2202 H2206 0.930 . S
C2203 C2202 1.369 . S
C2203 C2212 1.429 . S
C2204 C2202 1.419 . S
C2204 C2205 1.363 . S
C2204 H2207 0.929 . S
C2205 C2204 1.363 . S
C2205 C2211 1.428 . S
H2206 C2202 0.930 . S
H2207 C2204 0.929 . S
S2208 N2209 1.613 . S
S2208 N2210 1.610 . S
N2209 S2208 1.613 . S
N2209 C2212 1.350 . S
N2210 S2208 1.610 . S
N2210 C2211 1.351 . S
C2211 C2205 1.428 . S
C2211 N2210 1.351 . S
C2211 C2212 1.434 . S
C2212 C2203 1.429 . S
C2212 N2209 1.350 . S
C2212 C2211 1.434 . S
C2213 C2214 1.369 . S
C2213 C2215 1.419 . S
C2213 H2217 0.930 . S
C2214 C2213 1.369 . S
C2214 C2223 1.429 . S
C2215 C2213 1.419 . S
C2215 C2216 1.363 . S
C2215 H2218 0.929 . S
C2216 C2215 1.363 . S
C2216 C2222 1.428 . S
H2217 C2213 0.930 . S
H2218 C2215 0.929 . S
S2219 N2220 1.613 . S
S2219 N2221 1.610 . S
N2220 S2219 1.613 . S
N2220 C2223 1.350 . S
N2221 S2219 1.610 . S
N2221 C2222 1.351 . S
C2222 C2216 1.428 . S
C2222 N2221 1.351 . S
C2222 C2223 1.434 . S
C2223 C2214 1.429 . S
C2223 N2220 1.350 . S
C2223 C2222 1.434 . S
C2224 C2225 1.369 . S
C2224 C2226 1.419 . S
C2224 H2228 0.930 . S
C2225 C2224 1.369 . S
C2225 C2234 1.429 . S
C2226 C2224 1.419 . S
C2226 C2227 1.363 . S
C2226 H2229 0.929 . S
C2227 C2226 1.363 . S
C2227 C2233 1.428 . S
H2228 C2224 0.930 . S
H2229 C2226 0.929 . S
S2230 N2231 1.613 . S
S2230 N2232 1.610 . S
N2231 S2230 1.613 . S
N2231 C2234 1.350 . S
N2232 S2230 1.610 . S
N2232 C2233 1.351 . S
C2233 C2227 1.428 . S
C2233 N2232 1.351 . S
C2233 C2234 1.434 . S
C2234 C2225 1.429 . S
C2234 N2231 1.350 . S
C2234 C2233 1.434 . S
C2235 C2236 1.369 . S
C2235 C2237 1.419 . S
C2235 H2239 0.930 . S
C2236 C2235 1.369 . S
C2236 C2245 1.429 . S
C2237 C2235 1.419 . S
C2237 C2238 1.363 . S
C2237 H2240 0.929 . S
C2238 C2237 1.363 . S
C2238 C2244 1.428 . S
H2239 C2235 0.930 . S
H2240 C2237 0.929 . S
S2241 N2242 1.613 . S
S2241 N2243 1.610 . S
N2242 S2241 1.613 . S
N2242 C2245 1.350 . S
N2243 S2241 1.610 . S
N2243 C2244 1.351 . S
C2244 C2238 1.428 . S
C2244 N2243 1.351 . S
C2244 C2245 1.434 . S
C2245 C2236 1.429 . S
C2245 N2242 1.350 . S
C2245 C2244 1.434 . S
C2246 C2247 1.369 . S
C2246 C2248 1.419 . S
C2246 H2250 0.930 . S
C2247 C2246 1.369 . S
C2247 C2256 1.429 . S
C2248 C2246 1.419 . S
C2248 C2249 1.363 . S
C2248 H2251 0.929 . S
C2249 C2248 1.363 . S
C2249 C2255 1.428 . S
H2250 C2246 0.930 . S
H2251 C2248 0.929 . S
S2252 N2253 1.613 . S
S2252 N2254 1.610 . S
N2253 S2252 1.613 . S
N2253 C2256 1.350 . S
N2254 S2252 1.610 . S
N2254 C2255 1.351 . S
C2255 C2249 1.428 . S
C2255 N2254 1.351 . S
C2255 C2256 1.434 . S
C2256 C2247 1.429 . S
C2256 N2253 1.350 . S
C2256 C2255 1.434 . S
C2257 C2258 1.369 . S
C2257 C2259 1.419 . S
C2257 H2261 0.930 . S
C2258 C2257 1.369 . S
C2258 C2267 1.429 . S
C2259 C2257 1.419 . S
C2259 C2260 1.363 . S
C2259 H2262 0.929 . S
C2260 C2259 1.363 . S
C2260 C2266 1.428 . S
H2261 C2257 0.930 . S
H2262 C2259 0.929 . S
S2263 N2264 1.613 . S
S2263 N2265 1.610 . S
N2264 S2263 1.613 . S
N2264 C2267 1.350 . S
N2265 S2263 1.610 . S
N2265 C2266 1.351 . S
C2266 C2260 1.428 . S
C2266 N2265 1.351 . S
C2266 C2267 1.434 . S
C2267 C2258 1.429 . S
C2267 N2264 1.350 . S
C2267 C2266 1.434 . S
C2268 C2269 1.369 . S
C2268 C2270 1.419 . S
C2268 H2272 0.930 . S
C2269 C2268 1.369 . S
C2269 C2278 1.429 . S
C2270 C2268 1.419 . S
C2270 C2271 1.363 . S
C2270 H2273 0.929 . S
C2271 C2270 1.363 . S
C2271 C2277 1.428 . S
H2272 C2268 0.930 . S
H2273 C2270 0.929 . S
S2274 N2275 1.613 . S
S2274 N2276 1.610 . S
N2275 S2274 1.613 . S
N2275 C2278 1.350 . S
N2276 S2274 1.610 . S
N2276 C2277 1.351 . S
C2277 C2271 1.428 . S
C2277 N2276 1.351 . S
C2277 C2278 1.434 . S
C2278 C2269 1.429 . S
C2278 N2275 1.350 . S
C2278 C2277 1.434 . S
C2279 C2280 1.369 . S
C2279 C2281 1.419 . S
C2279 H2283 0.930 . S
C2280 C2279 1.369 . S
C2280 C2289 1.429 . S
C2281 C2279 1.419 . S
C2281 C2282 1.363 . S
C2281 H2284 0.929 . S
C2282 C2281 1.363 . S
C2282 C2288 1.428 . S
H2283 C2279 0.930 . S
H2284 C2281 0.929 . S
S2285 N2286 1.613 . S
S2285 N2287 1.610 . S
N2286 S2285 1.613 . S
N2286 C2289 1.350 . S
N2287 S2285 1.610 . S
N2287 C2288 1.351 . S
C2288 C2282 1.428 . S
C2288 N2287 1.351 . S
C2288 C2289 1.434 . S
C2289 C2280 1.429 . S
C2289 N2286 1.350 . S
C2289 C2288 1.434 . S
C2290 C2291 1.369 . S
C2290 C2292 1.419 . S
C2290 H2294 0.930 . S
C2291 C2290 1.369 . S
C2291 C2300 1.429 . S
C2292 C2290 1.419 . S
C2292 C2293 1.363 . S
C2292 H2295 0.929 . S
C2293 C2292 1.363 . S
C2293 C2299 1.428 . S
H2294 C2290 0.930 . S
H2295 C2292 0.929 . S
S2296 N2297 1.613 . S
S2296 N2298 1.610 . S
N2297 S2296 1.613 . S
N2297 C2300 1.350 . S
N2298 S2296 1.610 . S
N2298 C2299 1.351 . S
C2299 C2293 1.428 . S
C2299 N2298 1.351 . S
C2299 C2300 1.434 . S
C2300 C2291 1.429 . S
C2300 N2297 1.350 . S
C2300 C2299 1.434 . S
C2301 C2302 1.369 . S
C2301 C2303 1.419 . S
C2301 H2305 0.930 . S
C2302 C2301 1.369 . S
C2302 C2311 1.429 . S
C2303 C2301 1.419 . S
C2303 C2304 1.363 . S
C2303 H2306 0.929 . S
C2304 C2303 1.363 . S
C2304 C2310 1.428 . S
H2305 C2301 0.930 . S
H2306 C2303 0.929 . S
S2307 N2308 1.613 . S
S2307 N2309 1.610 . S
N2308 S2307 1.613 . S
N2308 C2311 1.350 . S
N2309 S2307 1.610 . S
N2309 C2310 1.351 . S
C2310 C2304 1.428 . S
C2310 N2309 1.351 . S
C2310 C2311 1.434 . S
C2311 C2302 1.429 . S
C2311 N2308 1.350 . S
C2311 C2310 1.434 . S
C2312 C2313 1.369 . S
C2312 C2314 1.419 . S
C2312 H2316 0.930 . S
C2313 C2312 1.369 . S
C2313 C2322 1.429 . S
C2314 C2312 1.419 . S
C2314 C2315 1.363 . S
C2314 H2317 0.929 . S
C2315 C2314 1.363 . S
C2315 C2321 1.428 . S
H2316 C2312 0.930 . S
H2317 C2314 0.929 . S
S2318 N2319 1.613 . S
S2318 N2320 1.610 . S
N2319 S2318 1.613 . S
N2319 C2322 1.350 . S
N2320 S2318 1.610 . S
N2320 C2321 1.351 . S
C2321 C2315 1.428 . S
C2321 N2320 1.351 . S
C2321 C2322 1.434 . S
C2322 C2313 1.429 . S
C2322 N2319 1.350 . S
C2322 C2321 1.434 . S
C2323 C2324 1.369 . S
C2323 C2325 1.419 . S
C2323 H2327 0.930 . S
C2324 C2323 1.369 . S
C2324 C2333 1.429 . S
C2325 C2323 1.419 . S
C2325 C2326 1.363 . S
C2325 H2328 0.929 . S
C2326 C2325 1.363 . S
C2326 C2332 1.428 . S
H2327 C2323 0.930 . S
H2328 C2325 0.929 . S
S2329 N2330 1.613 . S
S2329 N2331 1.610 . S
N2330 S2329 1.613 . S
N2330 C2333 1.350 . S
N2331 S2329 1.610 . S
N2331 C2332 1.351 . S
C2332 C2326 1.428 . S
C2332 N2331 1.351 . S
C2332 C2333 1.434 . S
C2333 C2324 1.429 . S
C2333 N2330 1.350 . S
C2333 C2332 1.434 . S
C2334 C2335 1.369 . S
C2334 C2336 1.419 . S
C2334 H2338 0.930 . S
C2335 C2334 1.369 . S
C2335 C2344 1.429 . S
C2336 C2334 1.419 . S
C2336 C2337 1.363 . S
C2336 H2339 0.929 . S
C2337 C2336 1.363 . S
C2337 C2343 1.428 . S
H2338 C2334 0.930 . S
H2339 C2336 0.929 . S
S2340 N2341 1.613 . S
S2340 N2342 1.610 . S
N2341 S2340 1.613 . S
N2341 C2344 1.350 . S
N2342 S2340 1.610 . S
N2342 C2343 1.351 . S
C2343 C2337 1.428 . S
C2343 N2342 1.351 . S
C2343 C2344 1.434 . S
C2344 C2335 1.429 . S
C2344 N2341 1.350 . S
C2344 C2343 1.434 . S
C2345 C2346 1.369 . S
C2345 C2347 1.419 . S
C2345 H2349 0.930 . S
C2346 C2345 1.369 . S
C2346 C2355 1.429 . S
C2347 C2345 1.419 . S
C2347 C2348 1.363 . S
C2347 H2350 0.929 . S
C2348 C2347 1.363 . S
C2348 C2354 1.428 . S
H2349 C2345 0.930 . S
H2350 C2347 0.929 . S
S2351 N2352 1.613 . S
S2351 N2353 1.610 . S
N2352 S2351 1.613 . S
N2352 C2355 1.350 . S
N2353 S2351 1.610 . S
N2353 C2354 1.351 . S
C2354 C2348 1.428 . S
C2354 N2353 1.351 . S
C2354 C2355 1.434 . S
C2355 C2346 1.429 . S
C2355 N2352 1.350 . S
C2355 C2354 1.434 . S
C2356 C2357 1.369 . S
C2356 C2358 1.419 . S
C2356 H2360 0.930 . S
C2357 C2356 1.369 . S
C2357 C2366 1.429 . S
C2358 C2356 1.419 . S
C2358 C2359 1.363 . S
C2358 H2361 0.929 . S
C2359 C2358 1.363 . S
C2359 C2365 1.428 . S
H2360 C2356 0.930 . S
H2361 C2358 0.929 . S
S2362 N2363 1.613 . S
S2362 N2364 1.610 . S
N2363 S2362 1.613 . S
N2363 C2366 1.350 . S
N2364 S2362 1.610 . S
N2364 C2365 1.351 . S
C2365 C2359 1.428 . S
C2365 N2364 1.351 . S
C2365 C2366 1.434 . S
C2366 C2357 1.429 . S
C2366 N2363 1.350 . S
C2366 C2365 1.434 . S
C2367 C2368 1.369 . S
C2367 C2369 1.419 . S
C2367 H2371 0.930 . S
C2368 C2367 1.369 . S
C2368 C2377 1.429 . S
C2369 C2367 1.419 . S
C2369 C2370 1.363 . S
C2369 H2372 0.929 . S
C2370 C2369 1.363 . S
C2370 C2376 1.428 . S
H2371 C2367 0.930 . S
H2372 C2369 0.929 . S
S2373 N2374 1.613 . S
S2373 N2375 1.610 . S
N2374 S2373 1.613 . S
N2374 C2377 1.350 . S
N2375 S2373 1.610 . S
N2375 C2376 1.351 . S
C2376 C2370 1.428 . S
C2376 N2375 1.351 . S
C2376 C2377 1.434 . S
C2377 C2368 1.429 . S
C2377 N2374 1.350 . S
C2377 C2376 1.434 . S
C2378 C2379 1.369 . S
C2378 C2380 1.419 . S
C2378 H2382 0.930 . S
C2379 C2378 1.369 . S
C2379 C2388 1.429 . S
C2380 C2378 1.419 . S
C2380 C2381 1.363 . S
C2380 H2383 0.929 . S
C2381 C2380 1.363 . S
C2381 C2387 1.428 . S
H2382 C2378 0.930 . S
H2383 C2380 0.929 . S
S2384 N2385 1.613 . S
S2384 N2386 1.610 . S
N2385 S2384 1.613 . S
N2385 C2388 1.350 . S
N2386 S2384 1.610 . S
N2386 C2387 1.351 . S
C2387 C2381 1.428 . S
C2387 N2386 1.351 . S
C2387 C2388 1.434 . S
C2388 C2379 1.429 . S
C2388 N2385 1.350 . S
C2388 C2387 1.434 . S
C2389 C2390 1.369 . S
C2389 C2391 1.419 . S
C2389 H2393 0.930 . S
C2390 C2389 1.369 . S
C2390 C2399 1.429 . S
C2391 C2389 1.419 . S
C2391 C2392 1.363 . S
C2391 H2394 0.929 . S
C2392 C2391 1.363 . S
C2392 C2398 1.428 . S
H2393 C2389 0.930 . S
H2394 C2391 0.929 . S
S2395 N2396 1.613 . S
S2395 N2397 1.610 . S
N2396 S2395 1.613 . S
N2396 C2399 1.350 . S
N2397 S2395 1.610 . S
N2397 C2398 1.351 . S
C2398 C2392 1.428 . S
C2398 N2397 1.351 . S
C2398 C2399 1.434 . S
C2399 C2390 1.429 . S
C2399 N2396 1.350 . S
C2399 C2398 1.434 . S
C2400 C2401 1.369 . S
C2400 C2402 1.419 1_455 S
C2400 H2404 0.930 . S
C2401 C2400 1.369 . S
C2401 C2410 1.429 . S
C2402 C2400 1.419 1_655 S
C2402 C2403 1.363 . S
C2402 H2405 0.929 . S
C2403 C2402 1.363 . S
C2403 C2409 1.428 . S
H2404 C2400 0.930 . S
H2405 C2402 0.929 . S
S2406 N2407 1.618 1_655 S
S2406 N2408 1.606 . S
N2407 S2406 1.618 1_455 S
N2407 C2410 1.350 . S
N2408 S2406 1.606 . S
N2408 C2409 1.351 . S
C2409 C2403 1.428 . S
C2409 N2408 1.351 . S
C2409 C2410 1.434 1_655 S
C2410 C2401 1.429 . S
C2410 N2407 1.350 . S
C2410 C2409 1.434 1_455 S
C2411 C2412 1.369 . S
C2411 C2413 1.419 1_565 S
C2411 H2415 0.930 . S
C2412 C2411 1.369 . S
C2412 C2421 1.429 . S
C2413 C2411 1.419 1_545 S
C2413 C2414 1.363 . S
C2413 H2416 0.929 . S
C2414 C2413 1.363 . S
C2414 C2420 1.428 . S
H2415 C2411 0.930 . S
H2416 C2413 0.929 . S
S2417 N2418 1.618 1_545 S
S2417 N2419 1.606 . S
N2418 S2417 1.618 1_565 S
N2418 C2421 1.350 . S
N2419 S2417 1.606 . S
N2419 C2420 1.351 . S
C2420 C2414 1.428 . S
C2420 N2419 1.351 . S
C2420 C2421 1.434 1_545 S
C2421 C2412 1.429 . S
C2421 N2418 1.350 . S
C2421 C2420 1.434 1_565 S
C2422 C2423 1.369 . S
C2422 C2424 1.419 1_655 S
C2422 H2426 0.930 . S
C2423 C2422 1.369 . S
C2423 C2432 1.429 . S
C2424 C2422 1.419 1_455 S
C2424 C2425 1.363 . S
C2424 H2427 0.929 . S
C2425 C2424 1.363 . S
C2425 C2431 1.428 . S
H2426 C2422 0.930 . S
H2427 C2424 0.929 . S
S2428 N2429 1.618 1_455 S
S2428 N2430 1.606 . S
N2429 S2428 1.618 1_655 S
N2429 C2432 1.350 . S
N2430 S2428 1.606 . S
N2430 C2431 1.351 . S
C2431 C2425 1.428 . S
C2431 N2430 1.351 . S
C2431 C2432 1.434 1_455 S
C2432 C2423 1.429 . S
C2432 N2429 1.350 . S
C2432 C2431 1.434 1_655 S
C2433 C2434 1.369 . S
C2433 C2435 1.419 1_545 S
C2433 H2437 0.930 . S
C2434 C2433 1.369 . S
C2434 C2443 1.429 . S
C2435 C2433 1.419 1_565 S
C2435 C2436 1.363 . S
C2435 H2438 0.929 . S
C2436 C2435 1.363 . S
C2436 C2442 1.428 . S
H2437 C2433 0.930 . S
H2438 C2435 0.929 . S
S2439 N2440 1.618 1_565 S
S2439 N2441 1.606 . S
N2440 S2439 1.618 1_545 S
N2440 C2443 1.350 . S
N2441 S2439 1.606 . S
N2441 C2442 1.351 . S
C2442 C2436 1.428 . S
C2442 N2441 1.351 . S
C2442 C2443 1.434 1_565 S
C2443 C2434 1.429 . S
C2443 N2440 1.350 . S
C2443 C2442 1.434 1_545 S
C2444 C2445 1.369 . S
C2444 C2446 1.419 1_455 S
C2444 H2448 0.930 . S
C2445 C2444 1.369 . S
C2445 C2454 1.429 . S
C2446 C2444 1.419 1_655 S
C2446 C2447 1.363 . S
C2446 H2449 0.929 . S
C2447 C2446 1.363 . S
C2447 C2453 1.428 . S
H2448 C2444 0.930 . S
H2449 C2446 0.929 . S
S2450 N2451 1.618 1_655 S
S2450 N2452 1.606 . S
N2451 S2450 1.618 1_455 S
N2451 C2454 1.350 . S
N2452 S2450 1.606 . S
N2452 C2453 1.351 . S
C2453 C2447 1.428 . S
C2453 N2452 1.351 . S
C2453 C2454 1.434 1_655 S
C2454 C2445 1.429 . S
C2454 N2451 1.350 . S
C2454 C2453 1.434 1_455 S
C2455 C2456 1.369 . S
C2455 C2457 1.419 1_545 S
C2455 H2459 0.930 . S
C2456 C2455 1.369 . S
C2456 C2465 1.429 . S
C2457 C2455 1.419 1_565 S
C2457 C2458 1.363 . S
C2457 H2460 0.929 . S
C2458 C2457 1.363 . S
C2458 C2464 1.428 . S
H2459 C2455 0.930 . S
H2460 C2457 0.929 . S
S2461 N2462 1.618 1_565 S
S2461 N2463 1.606 . S
N2462 S2461 1.618 1_545 S
N2462 C2465 1.350 . S
N2463 S2461 1.606 . S
N2463 C2464 1.351 . S
C2464 C2458 1.428 . S
C2464 N2463 1.351 . S
C2464 C2465 1.434 1_565 S
C2465 C2456 1.429 . S
C2465 N2462 1.350 . S
C2465 C2464 1.434 1_545 S
C2466 C2467 1.369 . S
C2466 C2468 1.419 1_655 S
C2466 H2470 0.930 . S
C2467 C2466 1.369 . S
C2467 C2476 1.429 . S
C2468 C2466 1.419 1_455 S
C2468 C2469 1.363 . S
C2468 H2471 0.929 . S
C2469 C2468 1.363 . S
C2469 C2475 1.428 . S
H2470 C2466 0.930 . S
H2471 C2468 0.929 . S
S2472 N2473 1.618 1_455 S
S2472 N2474 1.606 . S
N2473 S2472 1.618 1_655 S
N2473 C2476 1.350 . S
N2474 S2472 1.606 . S
N2474 C2475 1.351 . S
C2475 C2469 1.428 . S
C2475 N2474 1.351 . S
C2475 C2476 1.434 1_455 S
C2476 C2467 1.429 . S
C2476 N2473 1.350 . S
C2476 C2475 1.434 1_655 S
C2477 C2478 1.369 . S
C2477 C2479 1.419 1_545 S
C2477 H2481 0.930 . S
C2478 C2477 1.369 . S
C2478 C2487 1.429 . S
C2479 C2477 1.419 1_565 S
C2479 C2480 1.363 . S
C2479 H2482 0.929 . S
C2480 C2479 1.363 . S
C2480 C2486 1.428 . S
H2481 C2477 0.930 . S
H2482 C2479 0.929 . S
S2483 N2484 1.618 1_565 S
S2483 N2485 1.606 . S
N2484 S2483 1.618 1_545 S
N2484 C2487 1.350 . S
N2485 S2483 1.606 . S
N2485 C2486 1.351 . S
C2486 C2480 1.428 . S
C2486 N2485 1.351 . S
C2486 C2487 1.434 1_565 S
C2487 C2478 1.429 . S
C2487 N2484 1.350 . S
C2487 C2486 1.434 1_545 S
C2488 C2489 1.369 . S
C2488 C2490 1.419 1_565 S
C2488 H2492 0.930 . S
C2489 C2488 1.369 . S
C2489 C2498 1.429 . S
C2490 C2488 1.419 1_545 S
C2490 C2491 1.363 . S
C2490 H2493 0.929 . S
C2491 C2490 1.363 . S
C2491 C2497 1.428 . S
H2492 C2488 0.930 . S
H2493 C2490 0.929 . S
S2494 N2495 1.618 1_545 S
S2494 N2496 1.606 . S
N2495 S2494 1.618 1_565 S
N2495 C2498 1.350 . S
N2496 S2494 1.606 . S
N2496 C2497 1.351 . S
C2497 C2491 1.428 . S
C2497 N2496 1.351 . S
C2497 C2498 1.434 1_545 S
C2498 C2489 1.429 . S
C2498 N2495 1.350 . S
C2498 C2497 1.434 1_565 S
C2499 C2500 1.369 . S
C2499 C2501 1.419 1_655 S
C2499 H2503 0.930 . S
C2500 C2499 1.369 . S
C2500 C2509 1.429 . S
C2501 C2499 1.419 1_455 S
C2501 C2502 1.363 . S
C2501 H2504 0.929 . S
C2502 C2501 1.363 . S
C2502 C2508 1.428 . S
H2503 C2499 0.930 . S
H2504 C2501 0.929 . S
S2505 N2506 1.618 1_455 S
S2505 N2507 1.606 . S
N2506 S2505 1.618 1_655 S
N2506 C2509 1.350 . S
N2507 S2505 1.606 . S
N2507 C2508 1.351 . S
C2508 C2502 1.428 . S
C2508 N2507 1.351 . S
C2508 C2509 1.434 1_455 S
C2509 C2500 1.429 . S
C2509 N2506 1.350 . S
C2509 C2508 1.434 1_655 S
C2510 C2511 1.369 . S
C2510 C2512 1.419 1_565 S
C2510 H2514 0.930 . S
C2511 C2510 1.369 . S
C2511 C2520 1.429 . S
C2512 C2510 1.419 1_545 S
C2512 C2513 1.363 . S
C2512 H2515 0.929 . S
C2513 C2512 1.363 . S
C2513 C2519 1.428 . S
H2514 C2510 0.930 . S
H2515 C2512 0.929 . S
S2516 N2517 1.618 1_545 S
S2516 N2518 1.606 . S
N2517 S2516 1.618 1_565 S
N2517 C2520 1.350 . S
N2518 S2516 1.606 . S
N2518 C2519 1.351 . S
C2519 C2513 1.428 . S
C2519 N2518 1.351 . S
C2519 C2520 1.434 1_545 S
C2520 C2511 1.429 . S
C2520 N2517 1.350 . S
C2520 C2519 1.434 1_565 S
C2521 C2522 1.369 . S
C2521 C2523 1.419 1_455 S
C2521 H2525 0.930 . S
C2522 C2521 1.369 . S
C2522 C2531 1.429 . S
C2523 C2521 1.419 1_655 S
C2523 C2524 1.363 . S
C2523 H2526 0.929 . S
C2524 C2523 1.363 . S
C2524 C2530 1.428 . S
H2525 C2521 0.930 . S
H2526 C2523 0.929 . S
S2527 N2528 1.618 1_655 S
S2527 N2529 1.606 . S
N2528 S2527 1.618 1_455 S
N2528 C2531 1.350 . S
N2529 S2527 1.606 . S
N2529 C2530 1.351 . S
C2530 C2524 1.428 . S
C2530 N2529 1.351 . S
C2530 C2531 1.434 1_655 S
C2531 C2522 1.429 . S
C2531 N2528 1.350 . S
C2531 C2530 1.434 1_455 S
C2532 C2533 1.369 . S
C2532 C2534 1.419 1_565 S
C2532 H2536 0.930 . S
C2533 C2532 1.369 . S
C2533 C2542 1.429 . S
C2534 C2532 1.419 1_545 S
C2534 C2535 1.363 . S
C2534 H2537 0.929 . S
C2535 C2534 1.363 . S
C2535 C2541 1.428 . S
H2536 C2532 0.930 . S
H2537 C2534 0.929 . S
S2538 N2539 1.618 1_545 S
S2538 N2540 1.606 . S
N2539 S2538 1.618 1_565 S
N2539 C2542 1.350 . S
N2540 S2538 1.606 . S
N2540 C2541 1.351 . S
C2541 C2535 1.428 . S
C2541 N2540 1.351 . S
C2541 C2542 1.434 1_545 S
C2542 C2533 1.429 . S
C2542 N2539 1.350 . S
C2542 C2541 1.434 1_565 S
C2543 C2544 1.369 . S
C2543 C2545 1.419 1_455 S
C2543 H2547 0.930 . S
C2544 C2543 1.369 . S
C2544 C2553 1.429 . S
C2545 C2543 1.419 1_655 S
C2545 C2546 1.363 . S
C2545 H2548 0.929 . S
C2546 C2545 1.363 . S
C2546 C2552 1.428 . S
H2547 C2543 0.930 . S
H2548 C2545 0.929 . S
S2549 N2550 1.618 1_655 S
S2549 N2551 1.606 . S
N2550 S2549 1.618 1_455 S
N2550 C2553 1.350 . S
N2551 S2549 1.606 . S
N2551 C2552 1.351 . S
C2552 C2546 1.428 . S
C2552 N2551 1.351 . S
C2552 C2553 1.434 1_655 S
C2553 C2544 1.429 . S
C2553 N2550 1.350 . S
C2553 C2552 1.434 1_455 S
C2554 C2555 1.369 . S
C2554 C2556 1.419 1_545 S
C2554 H2558 0.930 . S
C2555 C2554 1.369 . S
C2555 C2564 1.429 . S
C2556 C2554 1.419 1_565 S
C2556 C2557 1.363 . S
C2556 H2559 0.929 . S
C2557 C2556 1.363 . S
C2557 C2563 1.428 . S
H2558 C2554 0.930 . S
H2559 C2556 0.929 . S
S2560 N2561 1.618 1_565 S
S2560 N2562 1.606 . S
N2561 S2560 1.618 1_545 S
N2561 C2564 1.350 . S
N2562 S2560 1.606 . S
N2562 C2563 1.351 . S
C2563 C2557 1.428 . S
C2563 N2562 1.351 . S
C2563 C2564 1.434 1_565 S
C2564 C2555 1.429 . S
C2564 N2561 1.350 . S
C2564 C2563 1.434 1_545 S
C2565 C2566 1.369 . S
C2565 C2567 1.419 1_655 S
C2565 H2569 0.930 . S
C2566 C2565 1.369 . S
C2566 C2575 1.429 . S
C2567 C2565 1.419 1_455 S
C2567 C2568 1.363 . S
C2567 H2570 0.929 . S
C2568 C2567 1.363 . S
C2568 C2574 1.428 . S
H2569 C2565 0.930 . S
H2570 C2567 0.929 . S
S2571 N2572 1.618 1_455 S
S2571 N2573 1.606 . S
N2572 S2571 1.618 1_655 S
N2572 C2575 1.350 . S
N2573 S2571 1.606 . S
N2573 C2574 1.351 . S
C2574 C2568 1.428 . S
C2574 N2573 1.351 . S
C2574 C2575 1.434 1_455 S
C2575 C2566 1.429 . S
C2575 N2572 1.350 . S
C2575 C2574 1.434 1_655 S
C2576 C2577 1.369 . S
C2576 C2578 1.419 1_554 S
C2576 H2580 0.930 . S
C2577 C2576 1.369 . S
C2577 C2586 1.429 . S
C2578 C2576 1.419 1_556 S
C2578 C2579 1.363 . S
C2578 H2581 0.929 . S
C2579 C2578 1.363 . S
C2579 C2585 1.428 . S
H2580 C2576 0.930 . S
H2581 C2578 0.929 . S
S2582 N2583 1.618 1_556 S
S2582 N2584 1.606 . S
N2583 S2582 1.618 1_554 S
N2583 C2586 1.350 . S
N2584 S2582 1.606 . S
N2584 C2585 1.351 . S
C2585 C2579 1.428 . S
C2585 N2584 1.351 . S
C2585 C2586 1.434 1_556 S
C2586 C2577 1.429 . S
C2586 N2583 1.350 . S
C2586 C2585 1.434 1_554 S
C2587 C2588 1.369 . S
C2587 C2589 1.419 1_556 S
C2587 H2591 0.930 . S
C2588 C2587 1.369 . S
C2588 C2597 1.429 . S
C2589 C2587 1.419 1_554 S
C2589 C2590 1.363 . S
C2589 H2592 0.929 . S
C2590 C2589 1.363 . S
C2590 C2596 1.428 . S
H2591 C2587 0.930 . S
H2592 C2589 0.929 . S
S2593 N2594 1.618 1_554 S
S2593 N2595 1.606 . S
N2594 S2593 1.618 1_556 S
N2594 C2597 1.350 . S
N2595 S2593 1.606 . S
N2595 C2596 1.351 . S
C2596 C2590 1.428 . S
C2596 N2595 1.351 . S
C2596 C2597 1.434 1_554 S
C2597 C2588 1.429 . S
C2597 N2594 1.350 . S
C2597 C2596 1.434 1_556 S
C2598 C2599 1.369 . S
C2598 C2600 1.419 1_554 S
C2598 H2602 0.930 . S
C2599 C2598 1.369 . S
C2599 C2608 1.429 . S
C2600 C2598 1.419 1_556 S
C2600 C2601 1.363 . S
C2600 H2603 0.929 . S
C2601 C2600 1.363 . S
C2601 C2607 1.428 . S
H2602 C2598 0.930 . S
H2603 C2600 0.929 . S
S2604 N2605 1.618 1_556 S
S2604 N2606 1.606 . S
N2605 S2604 1.618 1_554 S
N2605 C2608 1.350 . S
N2606 S2604 1.606 . S
N2606 C2607 1.351 . S
C2607 C2601 1.428 . S
C2607 N2606 1.351 . S
C2607 C2608 1.434 1_556 S
C2608 C2599 1.429 . S
C2608 N2605 1.350 . S
C2608 C2607 1.434 1_554 S
C2609 C2610 1.369 . S
C2609 C2611 1.419 1_556 S
C2609 H2613 0.930 . S
C2610 C2609 1.369 . S
C2610 C2619 1.429 . S
C2611 C2609 1.419 1_554 S
C2611 C2612 1.363 . S
C2611 H2614 0.929 . S
C2612 C2611 1.363 . S
C2612 C2618 1.428 . S
H2613 C2609 0.930 . S
H2614 C2611 0.929 . S
S2615 N2616 1.618 1_554 S
S2615 N2617 1.606 . S
N2616 S2615 1.618 1_556 S
N2616 C2619 1.350 . S
N2617 S2615 1.606 . S
N2617 C2618 1.351 . S
C2618 C2612 1.428 . S
C2618 N2617 1.351 . S
C2618 C2619 1.434 1_554 S
C2619 C2610 1.429 . S
C2619 N2616 1.350 . S
C2619 C2618 1.434 1_556 S
C2620 C2621 1.369 . S
C2620 C2622 1.419 1_554 S
C2620 H2624 0.930 . S
C2621 C2620 1.369 . S
C2621 C2630 1.429 . S
C2622 C2620 1.419 1_556 S
C2622 C2623 1.363 . S
C2622 H2625 0.929 . S
C2623 C2622 1.363 . S
C2623 C2629 1.428 . S
H2624 C2620 0.930 . S
H2625 C2622 0.929 . S
S2626 N2627 1.618 1_556 S
S2626 N2628 1.606 . S
N2627 S2626 1.618 1_554 S
N2627 C2630 1.350 . S
N2628 S2626 1.606 . S
N2628 C2629 1.351 . S
C2629 C2623 1.428 . S
C2629 N2628 1.351 . S
C2629 C2630 1.434 1_556 S
C2630 C2621 1.429 . S
C2630 N2627 1.350 . S
C2630 C2629 1.434 1_554 S
C2631 C2632 1.369 . S
C2631 C2633 1.419 1_554 S
C2631 H2635 0.930 . S
C2632 C2631 1.369 . S
C2632 C2641 1.429 . S
C2633 C2631 1.419 1_556 S
C2633 C2634 1.363 . S
C2633 H2636 0.929 . S
C2634 C2633 1.363 . S
C2634 C2640 1.428 . S
H2635 C2631 0.930 . S
H2636 C2633 0.929 . S
S2637 N2638 1.618 1_556 S
S2637 N2639 1.606 . S
N2638 S2637 1.618 1_554 S
N2638 C2641 1.350 . S
N2639 S2637 1.606 . S
N2639 C2640 1.351 . S
C2640 C2634 1.428 . S
C2640 N2639 1.351 . S
C2640 C2641 1.434 1_556 S
C2641 C2632 1.429 . S
C2641 N2638 1.350 . S
C2641 C2640 1.434 1_554 S
C2642 C2643 1.369 . S
C2642 C2644 1.419 1_554 S
C2642 H2646 0.930 . S
C2643 C2642 1.369 . S
C2643 C2652 1.429 . S
C2644 C2642 1.419 1_556 S
C2644 C2645 1.363 . S
C2644 H2647 0.929 . S
C2645 C2644 1.363 . S
C2645 C2651 1.428 . S
H2646 C2642 0.930 . S
H2647 C2644 0.929 . S
S2648 N2649 1.618 1_556 S
S2648 N2650 1.606 . S
N2649 S2648 1.618 1_554 S
N2649 C2652 1.350 . S
N2650 S2648 1.606 . S
N2650 C2651 1.351 . S
C2651 C2645 1.428 . S
C2651 N2650 1.351 . S
C2651 C2652 1.434 1_556 S
C2652 C2643 1.429 . S
C2652 N2649 1.350 . S
C2652 C2651 1.434 1_554 S
C2653 C2654 1.369 . S
C2653 C2655 1.419 1_556 S
C2653 H2657 0.930 . S
C2654 C2653 1.369 . S
C2654 C2663 1.429 . S
C2655 C2653 1.419 1_554 S
C2655 C2656 1.363 . S
C2655 H2658 0.929 . S
C2656 C2655 1.363 . S
C2656 C2662 1.428 . S
H2657 C2653 0.930 . S
H2658 C2655 0.929 . S
S2659 N2660 1.618 1_554 S
S2659 N2661 1.606 . S
N2660 S2659 1.618 1_556 S
N2660 C2663 1.350 . S
N2661 S2659 1.606 . S
N2661 C2662 1.351 . S
C2662 C2656 1.428 . S
C2662 N2661 1.351 . S
C2662 C2663 1.434 1_554 S
C2663 C2654 1.429 . S
C2663 N2660 1.350 . S
C2663 C2662 1.434 1_556 S
C2664 C2665 1.369 . S
C2664 C2666 1.419 . S
C2664 H2668 0.930 . S
C2665 C2664 1.369 . S
C2665 C2674 1.429 . S
C2666 C2664 1.419 . S
C2666 C2667 1.363 . S
C2666 H2669 0.929 . S
C2667 C2666 1.363 . S
C2667 C2673 1.428 . S
H2668 C2664 0.930 . S
H2669 C2666 0.929 . S
S2670 N2671 1.613 . S
S2670 N2672 1.610 . S
N2671 S2670 1.613 . S
N2671 C2674 1.350 . S
N2672 S2670 1.610 . S
N2672 C2673 1.351 . S
C2673 C2667 1.428 . S
C2673 N2672 1.351 . S
C2673 C2674 1.434 . S
C2674 C2665 1.429 . S
C2674 N2671 1.350 . S
C2674 C2673 1.434 . S
C2675 C2676 1.369 . S
C2675 C2677 1.419 . S
C2675 H2679 0.930 . S
C2676 C2675 1.369 . S
C2676 C2685 1.429 . S
C2677 C2675 1.419 . S
C2677 C2678 1.363 . S
C2677 H2680 0.929 . S
C2678 C2677 1.363 . S
C2678 C2684 1.428 . S
H2679 C2675 0.930 . S
H2680 C2677 0.929 . S
S2681 N2682 1.613 . S
S2681 N2683 1.610 . S
N2682 S2681 1.613 . S
N2682 C2685 1.350 . S
N2683 S2681 1.610 . S
N2683 C2684 1.351 . S
C2684 C2678 1.428 . S
C2684 N2683 1.351 . S
C2684 C2685 1.434 . S
C2685 C2676 1.429 . S
C2685 N2682 1.350 . S
C2685 C2684 1.434 . S
C2686 C2687 1.369 . S
C2686 C2688 1.419 . S
C2686 H2690 0.930 . S
C2687 C2686 1.369 . S
C2687 C2696 1.429 . S
C2688 C2686 1.419 . S
C2688 C2689 1.363 . S
C2688 H2691 0.929 . S
C2689 C2688 1.363 . S
C2689 C2695 1.428 . S
H2690 C2686 0.930 . S
H2691 C2688 0.929 . S
S2692 N2693 1.613 . S
S2692 N2694 1.610 . S
N2693 S2692 1.613 . S
N2693 C2696 1.350 . S
N2694 S2692 1.610 . S
N2694 C2695 1.351 . S
C2695 C2689 1.428 . S
C2695 N2694 1.351 . S
C2695 C2696 1.434 . S
C2696 C2687 1.429 . S
C2696 N2693 1.350 . S
C2696 C2695 1.434 . S
C2697 C2698 1.369 . S
C2697 C2699 1.419 . S
C2697 H2701 0.930 . S
C2698 C2697 1.369 . S
C2698 C2707 1.429 . S
C2699 C2697 1.419 . S
C2699 C2700 1.363 . S
C2699 H2702 0.929 . S
C2700 C2699 1.363 . S
C2700 C2706 1.428 . S
H2701 C2697 0.930 . S
H2702 C2699 0.929 . S
S2703 N2704 1.613 . S
S2703 N2705 1.610 . S
N2704 S2703 1.613 . S
N2704 C2707 1.350 . S
N2705 S2703 1.610 . S
N2705 C2706 1.351 . S
C2706 C2700 1.428 . S
C2706 N2705 1.351 . S
C2706 C2707 1.434 . S
C2707 C2698 1.429 . S
C2707 N2704 1.350 . S
C2707 C2706 1.434 . S
C2708 C2709 1.369 . S
C2708 C2710 1.419 . S
C2708 H2712 0.930 . S
C2709 C2708 1.369 . S
C2709 C2718 1.429 . S
C2710 C2708 1.419 . S
C2710 C2711 1.363 . S
C2710 H2713 0.929 . S
C2711 C2710 1.363 . S
C2711 C2717 1.428 . S
H2712 C2708 0.930 . S
H2713 C2710 0.929 . S
S2714 N2715 1.613 . S
S2714 N2716 1.610 . S
N2715 S2714 1.613 . S
N2715 C2718 1.350 . S
N2716 S2714 1.610 . S
N2716 C2717 1.351 . S
C2717 C2711 1.428 . S
C2717 N2716 1.351 . S
C2717 C2718 1.434 . S
C2718 C2709 1.429 . S
C2718 N2715 1.350 . S
C2718 C2717 1.434 . S
C2719 C2720 1.369 . S
C2719 C2721 1.419 . S
C2719 H2723 0.930 . S
C2720 C2719 1.369 . S
C2720 C2729 1.429 . S
C2721 C2719 1.419 . S
C2721 C2722 1.363 . S
C2721 H2724 0.929 . S
C2722 C2721 1.363 . S
C2722 C2728 1.428 . S
H2723 C2719 0.930 . S
H2724 C2721 0.929 . S
S2725 N2726 1.613 . S
S2725 N2727 1.610 . S
N2726 S2725 1.613 . S
N2726 C2729 1.350 . S
N2727 S2725 1.610 . S
N2727 C2728 1.351 . S
C2728 C2722 1.428 . S
C2728 N2727 1.351 . S
C2728 C2729 1.434 . S
C2729 C2720 1.429 . S
C2729 N2726 1.350 . S
C2729 C2728 1.434 . S
C2730 C2731 1.369 . S
C2730 C2732 1.419 . S
C2730 H2734 0.930 . S
C2731 C2730 1.369 . S
C2731 C2740 1.429 . S
C2732 C2730 1.419 . S
C2732 C2733 1.363 . S
C2732 H2735 0.929 . S
C2733 C2732 1.363 . S
C2733 C2739 1.428 . S
H2734 C2730 0.930 . S
H2735 C2732 0.929 . S
S2736 N2737 1.613 . S
S2736 N2738 1.610 . S
N2737 S2736 1.613 . S
N2737 C2740 1.350 . S
N2738 S2736 1.610 . S
N2738 C2739 1.351 . S
C2739 C2733 1.428 . S
C2739 N2738 1.351 . S
C2739 C2740 1.434 . S
C2740 C2731 1.429 . S
C2740 N2737 1.350 . S
C2740 C2739 1.434 . S
C2741 C2742 1.369 . S
C2741 C2743 1.419 . S
C2741 H2745 0.930 . S
C2742 C2741 1.369 . S
C2742 C2751 1.429 . S
C2743 C2741 1.419 . S
C2743 C2744 1.363 . S
C2743 H2746 0.929 . S
C2744 C2743 1.363 . S
C2744 C2750 1.428 . S
H2745 C2741 0.930 . S
H2746 C2743 0.929 . S
S2747 N2748 1.613 . S
S2747 N2749 1.610 . S
N2748 S2747 1.613 . S
N2748 C2751 1.350 . S
N2749 S2747 1.610 . S
N2749 C2750 1.351 . S
C2750 C2744 1.428 . S
C2750 N2749 1.351 . S
C2750 C2751 1.434 . S
C2751 C2742 1.429 . S
C2751 N2748 1.350 . S
C2751 C2750 1.434 . S
C2752 C2753 1.369 . S
C2752 C2754 1.419 . S
C2752 H2756 0.930 . S
C2753 C2752 1.369 . S
C2753 C2762 1.429 . S
C2754 C2752 1.419 . S
C2754 C2755 1.363 . S
C2754 H2757 0.929 . S
C2755 C2754 1.363 . S
C2755 C2761 1.428 . S
H2756 C2752 0.930 . S
H2757 C2754 0.929 . S
S2758 N2759 1.613 . S
S2758 N2760 1.610 . S
N2759 S2758 1.613 . S
N2759 C2762 1.350 . S
N2760 S2758 1.610 . S
N2760 C2761 1.351 . S
C2761 C2755 1.428 . S
C2761 N2760 1.351 . S
C2761 C2762 1.434 . S
C2762 C2753 1.429 . S
C2762 N2759 1.350 . S
C2762 C2761 1.434 . S
C2763 C2764 1.369 . S
C2763 C2765 1.419 . S
C2763 H2767 0.930 . S
C2764 C2763 1.369 . S
C2764 C2773 1.429 . S
C2765 C2763 1.419 . S
C2765 C2766 1.363 . S
C2765 H2768 0.929 . S
C2766 C2765 1.363 . S
C2766 C2772 1.428 . S
H2767 C2763 0.930 . S
H2768 C2765 0.929 . S
S2769 N2770 1.613 . S
S2769 N2771 1.610 . S
N2770 S2769 1.613 . S
N2770 C2773 1.350 . S
N2771 S2769 1.610 . S
N2771 C2772 1.351 . S
C2772 C2766 1.428 . S
C2772 N2771 1.351 . S
C2772 C2773 1.434 . S
C2773 C2764 1.429 . S
C2773 N2770 1.350 . S
C2773 C2772 1.434 . S
C2774 C2775 1.369 . S
C2774 C2776 1.419 . S
C2774 H2778 0.930 . S
C2775 C2774 1.369 . S
C2775 C2784 1.429 . S
C2776 C2774 1.419 . S
C2776 C2777 1.363 . S
C2776 H2779 0.929 . S
C2777 C2776 1.363 . S
C2777 C2783 1.428 . S
H2778 C2774 0.930 . S
H2779 C2776 0.929 . S
S2780 N2781 1.613 . S
S2780 N2782 1.610 . S
N2781 S2780 1.613 . S
N2781 C2784 1.350 . S
N2782 S2780 1.610 . S
N2782 C2783 1.351 . S
C2783 C2777 1.428 . S
C2783 N2782 1.351 . S
C2783 C2784 1.434 . S
C2784 C2775 1.429 . S
C2784 N2781 1.350 . S
C2784 C2783 1.434 . S
C2785 C2786 1.369 . S
C2785 C2787 1.419 . S
C2785 H2789 0.930 . S
C2786 C2785 1.369 . S
C2786 C2795 1.429 . S
C2787 C2785 1.419 . S
C2787 C2788 1.363 . S
C2787 H2790 0.929 . S
C2788 C2787 1.363 . S
C2788 C2794 1.428 . S
H2789 C2785 0.930 . S
H2790 C2787 0.929 . S
S2791 N2792 1.613 . S
S2791 N2793 1.610 . S
N2792 S2791 1.613 . S
N2792 C2795 1.350 . S
N2793 S2791 1.610 . S
N2793 C2794 1.351 . S
C2794 C2788 1.428 . S
C2794 N2793 1.351 . S
C2794 C2795 1.434 . S
C2795 C2786 1.429 . S
C2795 N2792 1.350 . S
C2795 C2794 1.434 . S
C2796 C2797 1.369 . S
C2796 C2798 1.419 . S
C2796 H2800 0.930 . S
C2797 C2796 1.369 . S
C2797 C2806 1.429 . S
C2798 C2796 1.419 . S
C2798 C2799 1.363 . S
C2798 H2801 0.929 . S
C2799 C2798 1.363 . S
C2799 C2805 1.428 . S
H2800 C2796 0.930 . S
H2801 C2798 0.929 . S
S2802 N2803 1.613 . S
S2802 N2804 1.610 . S
N2803 S2802 1.613 . S
N2803 C2806 1.350 . S
N2804 S2802 1.610 . S
N2804 C2805 1.351 . S
C2805 C2799 1.428 . S
C2805 N2804 1.351 . S
C2805 C2806 1.434 . S
C2806 C2797 1.429 . S
C2806 N2803 1.350 . S
C2806 C2805 1.434 . S
C2807 C2808 1.369 . S
C2807 C2809 1.419 . S
C2807 H2811 0.930 . S
C2808 C2807 1.369 . S
C2808 C2817 1.429 . S
C2809 C2807 1.419 . S
C2809 C2810 1.363 . S
C2809 H2812 0.929 . S
C2810 C2809 1.363 . S
C2810 C2816 1.428 . S
H2811 C2807 0.930 . S
H2812 C2809 0.929 . S
S2813 N2814 1.613 . S
S2813 N2815 1.610 . S
N2814 S2813 1.613 . S
N2814 C2817 1.350 . S
N2815 S2813 1.610 . S
N2815 C2816 1.351 . S
C2816 C2810 1.428 . S
C2816 N2815 1.351 . S
C2816 C2817 1.434 . S
C2817 C2808 1.429 . S
C2817 N2814 1.350 . S
C2817 C2816 1.434 . S
C2818 C2819 1.369 . S
C2818 C2820 1.419 . S
C2818 H2822 0.930 . S
C2819 C2818 1.369 . S
C2819 C2828 1.429 . S
C2820 C2818 1.419 . S
C2820 C2821 1.363 . S
C2820 H2823 0.929 . S
C2821 C2820 1.363 . S
C2821 C2827 1.428 . S
H2822 C2818 0.930 . S
H2823 C2820 0.929 . S
S2824 N2825 1.613 . S
S2824 N2826 1.610 . S
N2825 S2824 1.613 . S
N2825 C2828 1.350 . S
N2826 S2824 1.610 . S
N2826 C2827 1.351 . S
C2827 C2821 1.428 . S
C2827 N2826 1.351 . S
C2827 C2828 1.434 . S
C2828 C2819 1.429 . S
C2828 N2825 1.350 . S
C2828 C2827 1.434 . S
C2829 C2830 1.369 . S
C2829 C2831 1.419 . S
C2829 H2833 0.930 . S
C2830 C2829 1.369 . S
C2830 C2839 1.429 . S
C2831 C2829 1.419 . S
C2831 C2832 1.363 . S
C2831 H2834 0.929 . S
C2832 C2831 1.363 . S
C2832 C2838 1.428 . S
H2833 C2829 0.930 . S
H2834 C2831 0.929 . S
S2835 N2836 1.613 . S
S2835 N2837 1.610 . S
N2836 S2835 1.613 . S
N2836 C2839 1.350 . S
N2837 S2835 1.610 . S
N2837 C2838 1.351 . S
C2838 C2832 1.428 . S
C2838 N2837 1.351 . S
C2838 C2839 1.434 . S
C2839 C2830 1.429 . S
C2839 N2836 1.350 . S
C2839 C2838 1.434 . S
C2840 C2841 1.369 . S
C2840 C2842 1.419 . S
C2840 H2844 0.930 . S
C2841 C2840 1.369 . S
C2841 C2850 1.429 . S
C2842 C2840 1.419 . S
C2842 C2843 1.363 . S
C2842 H2845 0.929 . S
C2843 C2842 1.363 . S
C2843 C2849 1.428 . S
H2844 C2840 0.930 . S
H2845 C2842 0.929 . S
S2846 N2847 1.613 . S
S2846 N2848 1.610 . S
N2847 S2846 1.613 . S
N2847 C2850 1.350 . S
N2848 S2846 1.610 . S
N2848 C2849 1.351 . S
C2849 C2843 1.428 . S
C2849 N2848 1.351 . S
C2849 C2850 1.434 . S
C2850 C2841 1.429 . S
C2850 N2847 1.350 . S
C2850 C2849 1.434 . S
C2851 C2852 1.369 . S
C2851 C2853 1.419 . S
C2851 H2855 0.930 . S
C2852 C2851 1.369 . S
C2852 C2861 1.429 . S
C2853 C2851 1.419 . S
C2853 C2854 1.363 . S
C2853 H2856 0.929 . S
C2854 C2853 1.363 . S
C2854 C2860 1.428 . S
H2855 C2851 0.930 . S
H2856 C2853 0.929 . S
S2857 N2858 1.613 . S
S2857 N2859 1.610 . S
N2858 S2857 1.613 . S
N2858 C2861 1.350 . S
N2859 S2857 1.610 . S
N2859 C2860 1.351 . S
C2860 C2854 1.428 . S
C2860 N2859 1.351 . S
C2860 C2861 1.434 . S
C2861 C2852 1.429 . S
C2861 N2858 1.350 . S
C2861 C2860 1.434 . S
C2862 C2863 1.369 . S
C2862 C2864 1.419 . S
C2862 H2866 0.930 . S
C2863 C2862 1.369 . S
C2863 C2872 1.429 . S
C2864 C2862 1.419 . S
C2864 C2865 1.363 . S
C2864 H2867 0.929 . S
C2865 C2864 1.363 . S
C2865 C2871 1.428 . S
H2866 C2862 0.930 . S
H2867 C2864 0.929 . S
S2868 N2869 1.613 . S
S2868 N2870 1.610 . S
N2869 S2868 1.613 . S
N2869 C2872 1.350 . S
N2870 S2868 1.610 . S
N2870 C2871 1.351 . S
C2871 C2865 1.428 . S
C2871 N2870 1.351 . S
C2871 C2872 1.434 . S
C2872 C2863 1.429 . S
C2872 N2869 1.350 . S
C2872 C2871 1.434 . S
C2873 C2874 1.369 . S
C2873 C2875 1.419 . S
C2873 H2877 0.930 . S
C2874 C2873 1.369 . S
C2874 C2883 1.429 . S
C2875 C2873 1.419 . S
C2875 C2876 1.363 . S
C2875 H2878 0.929 . S
C2876 C2875 1.363 . S
C2876 C2882 1.428 . S
H2877 C2873 0.930 . S
H2878 C2875 0.929 . S
S2879 N2880 1.613 . S
S2879 N2881 1.610 . S
N2880 S2879 1.613 . S
N2880 C2883 1.350 . S
N2881 S2879 1.610 . S
N2881 C2882 1.351 . S
C2882 C2876 1.428 . S
C2882 N2881 1.351 . S
C2882 C2883 1.434 . S
C2883 C2874 1.429 . S
C2883 N2880 1.350 . S
C2883 C2882 1.434 . S
C2884 C2885 1.369 . S
C2884 C2886 1.419 . S
C2884 H2888 0.930 . S
C2885 C2884 1.369 . S
C2885 C2894 1.429 . S
C2886 C2884 1.419 . S
C2886 C2887 1.363 . S
C2886 H2889 0.929 . S
C2887 C2886 1.363 . S
C2887 C2893 1.428 . S
H2888 C2884 0.930 . S
H2889 C2886 0.929 . S
S2890 N2891 1.613 . S
S2890 N2892 1.610 . S
N2891 S2890 1.613 . S
N2891 C2894 1.350 . S
N2892 S2890 1.610 . S
N2892 C2893 1.351 . S
C2893 C2887 1.428 . S
C2893 N2892 1.351 . S
C2893 C2894 1.434 . S
C2894 C2885 1.429 . S
C2894 N2891 1.350 . S
C2894 C2893 1.434 . S
C2895 C2896 1.369 . S
C2895 C2897 1.419 . S
C2895 H2899 0.930 . S
C2896 C2895 1.369 . S
C2896 C2905 1.429 . S
C2897 C2895 1.419 . S
C2897 C2898 1.363 . S
C2897 H2900 0.929 . S
C2898 C2897 1.363 . S
C2898 C2904 1.428 . S
H2899 C2895 0.930 . S
H2900 C2897 0.929 . S
S2901 N2902 1.613 . S
S2901 N2903 1.610 . S
N2902 S2901 1.613 . S
N2902 C2905 1.350 . S
N2903 S2901 1.610 . S
N2903 C2904 1.351 . S
C2904 C2898 1.428 . S
C2904 N2903 1.351 . S
C2904 C2905 1.434 . S
C2905 C2896 1.429 . S
C2905 N2902 1.350 . S
C2905 C2904 1.434 . S
C2906 C2907 1.369 . S
C2906 C2908 1.419 . S
C2906 H2910 0.930 . S
C2907 C2906 1.369 . S
C2907 C2916 1.429 . S
C2908 C2906 1.419 . S
C2908 C2909 1.363 . S
C2908 H2911 0.929 . S
C2909 C2908 1.363 . S
C2909 C2915 1.428 . S
H2910 C2906 0.930 . S
H2911 C2908 0.929 . S
S2912 N2913 1.613 . S
S2912 N2914 1.610 . S
N2913 S2912 1.613 . S
N2913 C2916 1.350 . S
N2914 S2912 1.610 . S
N2914 C2915 1.351 . S
C2915 C2909 1.428 . S
C2915 N2914 1.351 . S
C2915 C2916 1.434 . S
C2916 C2907 1.429 . S
C2916 N2913 1.350 . S
C2916 C2915 1.434 . S
C2917 C2918 1.369 . S
C2917 C2919 1.419 . S
C2917 H2921 0.930 . S
C2918 C2917 1.369 . S
C2918 C2927 1.429 . S
C2919 C2917 1.419 . S
C2919 C2920 1.363 . S
C2919 H2922 0.929 . S
C2920 C2919 1.363 . S
C2920 C2926 1.428 . S
H2921 C2917 0.930 . S
H2922 C2919 0.929 . S
S2923 N2924 1.613 . S
S2923 N2925 1.610 . S
N2924 S2923 1.613 . S
N2924 C2927 1.350 . S
N2925 S2923 1.610 . S
N2925 C2926 1.351 . S
C2926 C2920 1.428 . S
C2926 N2925 1.351 . S
C2926 C2927 1.434 . S
C2927 C2918 1.429 . S
C2927 N2924 1.350 . S
C2927 C2926 1.434 . S
C2928 C2929 1.369 . S
C2928 C2930 1.419 . S
C2928 H2932 0.930 . S
C2929 C2928 1.369 . S
C2929 C2938 1.429 . S
C2930 C2928 1.419 . S
C2930 C2931 1.363 . S
C2930 H2933 0.929 . S
C2931 C2930 1.363 . S
C2931 C2937 1.428 . S
H2932 C2928 0.930 . S
H2933 C2930 0.929 . S
S2934 N2935 1.613 . S
S2934 N2936 1.610 . S
N2935 S2934 1.613 . S
N2935 C2938 1.350 . S
N2936 S2934 1.610 . S
N2936 C2937 1.351 . S
C2937 C2931 1.428 . S
C2937 N2936 1.351 . S
C2937 C2938 1.434 . S
C2938 C2929 1.429 . S
C2938 N2935 1.350 . S
C2938 C2937 1.434 . S
C2939 C2940 1.369 . S
C2939 C2941 1.419 . S
C2939 H2943 0.930 . S
C2940 C2939 1.369 . S
C2940 C2949 1.429 . S
C2941 C2939 1.419 . S
C2941 C2942 1.363 . S
C2941 H2944 0.929 . S
C2942 C2941 1.363 . S
C2942 C2948 1.428 . S
H2943 C2939 0.930 . S
H2944 C2941 0.929 . S
S2945 N2946 1.613 . S
S2945 N2947 1.610 . S
N2946 S2945 1.613 . S
N2946 C2949 1.350 . S
N2947 S2945 1.610 . S
N2947 C2948 1.351 . S
C2948 C2942 1.428 . S
C2948 N2947 1.351 . S
C2948 C2949 1.434 . S
C2949 C2940 1.429 . S
C2949 N2946 1.350 . S
C2949 C2948 1.434 . S
C2950 C2951 1.369 . S
C2950 C2952 1.419 . S
C2950 H2954 0.930 . S
C2951 C2950 1.369 . S
C2951 C2960 1.429 . S
C2952 C2950 1.419 . S
C2952 C2953 1.363 . S
C2952 H2955 0.929 . S
C2953 C2952 1.363 . S
C2953 C2959 1.428 . S
H2954 C2950 0.930 . S
H2955 C2952 0.929 . S
S2956 N2957 1.613 . S
S2956 N2958 1.610 . S
N2957 S2956 1.613 . S
N2957 C2960 1.350 . S
N2958 S2956 1.610 . S
N2958 C2959 1.351 . S
C2959 C2953 1.428 . S
C2959 N2958 1.351 . S
C2959 C2960 1.434 . S
C2960 C2951 1.429 . S
C2960 N2957 1.350 . S
C2960 C2959 1.434 . S
C2961 C2962 1.369 . S
C2961 C2963 1.419 . S
C2961 H2965 0.930 . S
C2962 C2961 1.369 . S
C2962 C2971 1.429 . S
C2963 C2961 1.419 . S
C2963 C2964 1.363 . S
C2963 H2966 0.929 . S
C2964 C2963 1.363 . S
C2964 C2970 1.428 . S
H2965 C2961 0.930 . S
H2966 C2963 0.929 . S
S2967 N2968 1.613 . S
S2967 N2969 1.610 . S
N2968 S2967 1.613 . S
N2968 C2971 1.350 . S
N2969 S2967 1.610 . S
N2969 C2970 1.351 . S
C2970 C2964 1.428 . S
C2970 N2969 1.351 . S
C2970 C2971 1.434 . S
C2971 C2962 1.429 . S
C2971 N2968 1.350 . S
C2971 C2970 1.434 . S
C2972 C2973 1.369 . S
C2972 C2974 1.419 . S
C2972 H2976 0.930 . S
C2973 C2972 1.369 . S
C2973 C2982 1.429 . S
C2974 C2972 1.419 . S
C2974 C2975 1.363 . S
C2974 H2977 0.929 . S
C2975 C2974 1.363 . S
C2975 C2981 1.428 . S
H2976 C2972 0.930 . S
H2977 C2974 0.929 . S
S2978 N2979 1.613 . S
S2978 N2980 1.610 . S
N2979 S2978 1.613 . S
N2979 C2982 1.350 . S
N2980 S2978 1.610 . S
N2980 C2981 1.351 . S
C2981 C2975 1.428 . S
C2981 N2980 1.351 . S
C2981 C2982 1.434 . S
C2982 C2973 1.429 . S
C2982 N2979 1.350 . S
C2982 C2981 1.434 . S
C2983 C2984 1.369 . S
C2983 C2985 1.419 . S
C2983 H2987 0.930 . S
C2984 C2983 1.369 . S
C2984 C2993 1.429 . S
C2985 C2983 1.419 . S
C2985 C2986 1.363 . S
C2985 H2988 0.929 . S
C2986 C2985 1.363 . S
C2986 C2992 1.428 . S
H2987 C2983 0.930 . S
H2988 C2985 0.929 . S
S2989 N2990 1.613 . S
S2989 N2991 1.610 . S
N2990 S2989 1.613 . S
N2990 C2993 1.350 . S
N2991 S2989 1.610 . S
N2991 C2992 1.351 . S
C2992 C2986 1.428 . S
C2992 N2991 1.351 . S
C2992 C2993 1.434 . S
C2993 C2984 1.429 . S
C2993 N2990 1.350 . S
C2993 C2992 1.434 . S
C2994 C2995 1.369 . S
C2994 C2996 1.419 . S
C2994 H2998 0.930 . S
C2995 C2994 1.369 . S
C2995 C3004 1.429 . S
C2996 C2994 1.419 . S
C2996 C2997 1.363 . S
C2996 H2999 0.929 . S
C2997 C2996 1.363 . S
C2997 C3003 1.428 . S
H2998 C2994 0.930 . S
H2999 C2996 0.929 . S
S3000 N3001 1.613 . S
S3000 N3002 1.610 . S
N3001 S3000 1.613 . S
N3001 C3004 1.350 . S
N3002 S3000 1.610 . S
N3002 C3003 1.351 . S
C3003 C2997 1.428 . S
C3003 N3002 1.351 . S
C3003 C3004 1.434 . S
C3004 C2995 1.429 . S
C3004 N3001 1.350 . S
C3004 C3003 1.434 . S
C3005 C3006 1.369 . S
C3005 C3007 1.419 . S
C3005 H3009 0.930 . S
C3006 C3005 1.369 . S
C3006 C3015 1.429 . S
C3007 C3005 1.419 . S
C3007 C3008 1.363 . S
C3007 H3010 0.929 . S
C3008 C3007 1.363 . S
C3008 C3014 1.428 . S
H3009 C3005 0.930 . S
H3010 C3007 0.929 . S
S3011 N3012 1.613 . S
S3011 N3013 1.610 . S
N3012 S3011 1.613 . S
N3012 C3015 1.350 . S
N3013 S3011 1.610 . S
N3013 C3014 1.351 . S
C3014 C3008 1.428 . S
C3014 N3013 1.351 . S
C3014 C3015 1.434 . S
C3015 C3006 1.429 . S
C3015 N3012 1.350 . S
C3015 C3014 1.434 . S
C3016 C3017 1.369 . S
C3016 C3018 1.419 . S
C3016 H3020 0.930 . S
C3017 C3016 1.369 . S
C3017 C3026 1.429 . S
C3018 C3016 1.419 . S
C3018 C3019 1.363 . S
C3018 H3021 0.929 . S
C3019 C3018 1.363 . S
C3019 C3025 1.428 . S
H3020 C3016 0.930 . S
H3021 C3018 0.929 . S
S3022 N3023 1.613 . S
S3022 N3024 1.610 . S
N3023 S3022 1.613 . S
N3023 C3026 1.350 . S
N3024 S3022 1.610 . S
N3024 C3025 1.351 . S
C3025 C3019 1.428 . S
C3025 N3024 1.351 . S
C3025 C3026 1.434 . S
C3026 C3017 1.429 . S
C3026 N3023 1.350 . S
C3026 C3025 1.434 . S
C3027 C3028 1.369 . S
C3027 C3029 1.419 . S
C3027 H3031 0.930 . S
C3028 C3027 1.369 . S
C3028 C3037 1.429 . S
C3029 C3027 1.419 . S
C3029 C3030 1.363 . S
C3029 H3032 0.929 . S
C3030 C3029 1.363 . S
C3030 C3036 1.428 . S
H3031 C3027 0.930 . S
H3032 C3029 0.929 . S
S3033 N3034 1.613 . S
S3033 N3035 1.610 . S
N3034 S3033 1.613 . S
N3034 C3037 1.350 . S
N3035 S3033 1.610 . S
N3035 C3036 1.351 . S
C3036 C3030 1.428 . S
C3036 N3035 1.351 . S
C3036 C3037 1.434 . S
C3037 C3028 1.429 . S
C3037 N3034 1.350 . S
C3037 C3036 1.434 . S
C3038 C3039 1.369 . S
C3038 C3040 1.419 . S
C3038 H3042 0.930 . S
C3039 C3038 1.369 . S
C3039 C3048 1.429 . S
C3040 C3038 1.419 . S
C3040 C3041 1.363 . S
C3040 H3043 0.929 . S
C3041 C3040 1.363 . S
C3041 C3047 1.428 . S
H3042 C3038 0.930 . S
H3043 C3040 0.929 . S
S3044 N3045 1.613 . S
S3044 N3046 1.610 . S
N3045 S3044 1.613 . S
N3045 C3048 1.350 . S
N3046 S3044 1.610 . S
N3046 C3047 1.351 . S
C3047 C3041 1.428 . S
C3047 N3046 1.351 . S
C3047 C3048 1.434 . S
C3048 C3039 1.429 . S
C3048 N3045 1.350 . S
C3048 C3047 1.434 . S
C3049 C3050 1.369 . S
C3049 C3051 1.419 . S
C3049 H3053 0.930 . S
C3050 C3049 1.369 . S
C3050 C3059 1.429 . S
C3051 C3049 1.419 . S
C3051 C3052 1.363 . S
C3051 H3054 0.929 . S
C3052 C3051 1.363 . S
C3052 C3058 1.428 . S
H3053 C3049 0.930 . S
H3054 C3051 0.929 . S
S3055 N3056 1.613 . S
S3055 N3057 1.610 . S
N3056 S3055 1.613 . S
N3056 C3059 1.350 . S
N3057 S3055 1.610 . S
N3057 C3058 1.351 . S
C3058 C3052 1.428 . S
C3058 N3057 1.351 . S
C3058 C3059 1.434 . S
C3059 C3050 1.429 . S
C3059 N3056 1.350 . S
C3059 C3058 1.434 . S
C3060 C3061 1.369 . S
C3060 C3062 1.419 . S
C3060 H3064 0.930 . S
C3061 C3060 1.369 . S
C3061 C3070 1.429 . S
C3062 C3060 1.419 . S
C3062 C3063 1.363 . S
C3062 H3065 0.929 . S
C3063 C3062 1.363 . S
C3063 C3069 1.428 . S
H3064 C3060 0.930 . S
H3065 C3062 0.929 . S
S3066 N3067 1.613 . S
S3066 N3068 1.610 . S
N3067 S3066 1.613 . S
N3067 C3070 1.350 . S
N3068 S3066 1.610 . S
N3068 C3069 1.351 . S
C3069 C3063 1.428 . S
C3069 N3068 1.351 . S
C3069 C3070 1.434 . S
C3070 C3061 1.429 . S
C3070 N3067 1.350 . S
C3070 C3069 1.434 . S
C3071 C3072 1.369 . S
C3071 C3073 1.419 . S
C3071 H3075 0.930 . S
C3072 C3071 1.369 . S
C3072 C3081 1.429 . S
C3073 C3071 1.419 . S
C3073 C3074 1.363 . S
C3073 H3076 0.929 . S
C3074 C3073 1.363 . S
C3074 C3080 1.428 . S
H3075 C3071 0.930 . S
H3076 C3073 0.929 . S
S3077 N3078 1.613 . S
S3077 N3079 1.610 . S
N3078 S3077 1.613 . S
N3078 C3081 1.350 . S
N3079 S3077 1.610 . S
N3079 C3080 1.351 . S
C3080 C3074 1.428 . S
C3080 N3079 1.351 . S
C3080 C3081 1.434 . S
C3081 C3072 1.429 . S
C3081 N3078 1.350 . S
C3081 C3080 1.434 . S
C3082 C3083 1.369 . S
C3082 C3084 1.419 . S
C3082 H3086 0.930 . S
C3083 C3082 1.369 . S
C3083 C3092 1.429 . S
C3084 C3082 1.419 . S
C3084 C3085 1.363 . S
C3084 H3087 0.929 . S
C3085 C3084 1.363 . S
C3085 C3091 1.428 . S
H3086 C3082 0.930 . S
H3087 C3084 0.929 . S
S3088 N3089 1.613 . S
S3088 N3090 1.610 . S
N3089 S3088 1.613 . S
N3089 C3092 1.350 . S
N3090 S3088 1.610 . S
N3090 C3091 1.351 . S
C3091 C3085 1.428 . S
C3091 N3090 1.351 . S
C3091 C3092 1.434 . S
C3092 C3083 1.429 . S
C3092 N3089 1.350 . S
C3092 C3091 1.434 . S
C3093 C3094 1.369 . S
C3093 C3095 1.419 . S
C3093 H3097 0.930 . S
C3094 C3093 1.369 . S
C3094 C3103 1.429 . S
C3095 C3093 1.419 . S
C3095 C3096 1.363 . S
C3095 H3098 0.929 . S
C3096 C3095 1.363 . S
C3096 C3102 1.428 . S
H3097 C3093 0.930 . S
H3098 C3095 0.929 . S
S3099 N3100 1.613 . S
S3099 N3101 1.610 . S
N3100 S3099 1.613 . S
N3100 C3103 1.350 . S
N3101 S3099 1.610 . S
N3101 C3102 1.351 . S
C3102 C3096 1.428 . S
C3102 N3101 1.351 . S
C3102 C3103 1.434 . S
C3103 C3094 1.429 . S
C3103 N3100 1.350 . S
C3103 C3102 1.434 . S
C3104 C3105 1.369 . S
C3104 C3106 1.419 . S
C3104 H3108 0.930 . S
C3105 C3104 1.369 . S
C3105 C3114 1.429 . S
C3106 C3104 1.419 . S
C3106 C3107 1.363 . S
C3106 H3109 0.929 . S
C3107 C3106 1.363 . S
C3107 C3113 1.428 . S
H3108 C3104 0.930 . S
H3109 C3106 0.929 . S
S3110 N3111 1.613 . S
S3110 N3112 1.610 . S
N3111 S3110 1.613 . S
N3111 C3114 1.350 . S
N3112 S3110 1.610 . S
N3112 C3113 1.351 . S
C3113 C3107 1.428 . S
C3113 N3112 1.351 . S
C3113 C3114 1.434 . S
C3114 C3105 1.429 . S
C3114 N3111 1.350 . S
C3114 C3113 1.434 . S
C3115 C3116 1.369 . S
C3115 C3117 1.419 . S
C3115 H3119 0.930 . S
C3116 C3115 1.369 . S
C3116 C3125 1.429 . S
C3117 C3115 1.419 . S
C3117 C3118 1.363 . S
C3117 H3120 0.929 . S
C3118 C3117 1.363 . S
C3118 C3124 1.428 . S
H3119 C3115 0.930 . S
H3120 C3117 0.929 . S
S3121 N3122 1.613 . S
S3121 N3123 1.610 . S
N3122 S3121 1.613 . S
N3122 C3125 1.350 . S
N3123 S3121 1.610 . S
N3123 C3124 1.351 . S
C3124 C3118 1.428 . S
C3124 N3123 1.351 . S
C3124 C3125 1.434 . S
C3125 C3116 1.429 . S
C3125 N3122 1.350 . S
C3125 C3124 1.434 . S
C3126 C3127 1.369 . S
C3126 C3128 1.419 . S
C3126 H3130 0.930 . S
C3127 C3126 1.369 . S
C3127 C3136 1.429 . S
C3128 C3126 1.419 . S
C3128 C3129 1.363 . S
C3128 H3131 0.929 . S
C3129 C3128 1.363 . S
C3129 C3135 1.428 . S
H3130 C3126 0.930 . S
H3131 C3128 0.929 . S
S3132 N3133 1.613 . S
S3132 N3134 1.610 . S
N3133 S3132 1.613 . S
N3133 C3136 1.350 . S
N3134 S3132 1.610 . S
N3134 C3135 1.351 . S
C3135 C3129 1.428 . S
C3135 N3134 1.351 . S
C3135 C3136 1.434 . S
C3136 C3127 1.429 . S
C3136 N3133 1.350 . S
C3136 C3135 1.434 . S
C3137 C3138 1.369 . S
C3137 C3139 1.419 . S
C3137 H3141 0.930 . S
C3138 C3137 1.369 . S
C3138 C3147 1.429 . S
C3139 C3137 1.419 . S
C3139 C3140 1.363 . S
C3139 H3142 0.929 . S
C3140 C3139 1.363 . S
C3140 C3146 1.428 . S
H3141 C3137 0.930 . S
H3142 C3139 0.929 . S
S3143 N3144 1.613 . S
S3143 N3145 1.610 . S
N3144 S3143 1.613 . S
N3144 C3147 1.350 . S
N3145 S3143 1.610 . S
N3145 C3146 1.351 . S
C3146 C3140 1.428 . S
C3146 N3145 1.351 . S
C3146 C3147 1.434 . S
C3147 C3138 1.429 . S
C3147 N3144 1.350 . S
C3147 C3146 1.434 . S
C3148 C3149 1.369 . S
C3148 C3150 1.419 . S
C3148 H3152 0.930 . S
C3149 C3148 1.369 . S
C3149 C3158 1.429 . S
C3150 C3148 1.419 . S
C3150 C3151 1.363 . S
C3150 H3153 0.929 . S
C3151 C3150 1.363 . S
C3151 C3157 1.428 . S
H3152 C3148 0.930 . S
H3153 C3150 0.929 . S
S3154 N3155 1.613 . S
S3154 N3156 1.610 . S
N3155 S3154 1.613 . S
N3155 C3158 1.350 . S
N3156 S3154 1.610 . S
N3156 C3157 1.351 . S
C3157 C3151 1.428 . S
C3157 N3156 1.351 . S
C3157 C3158 1.434 . S
C3158 C3149 1.429 . S
C3158 N3155 1.350 . S
C3158 C3157 1.434 . S
C3159 C3160 1.369 . S
C3159 C3161 1.419 . S
C3159 H3163 0.930 . S
C3160 C3159 1.369 . S
C3160 C3169 1.429 . S
C3161 C3159 1.419 . S
C3161 C3162 1.363 . S
C3161 H3164 0.929 . S
C3162 C3161 1.363 . S
C3162 C3168 1.428 . S
H3163 C3159 0.930 . S
H3164 C3161 0.929 . S
S3165 N3166 1.613 . S
S3165 N3167 1.610 . S
N3166 S3165 1.613 . S
N3166 C3169 1.350 . S
N3167 S3165 1.610 . S
N3167 C3168 1.351 . S
C3168 C3162 1.428 . S
C3168 N3167 1.351 . S
C3168 C3169 1.434 . S
C3169 C3160 1.429 . S
C3169 N3166 1.350 . S
C3169 C3168 1.434 . S
C3170 C3171 1.369 . S
C3170 C3172 1.419 . S
C3170 H3174 0.930 . S
C3171 C3170 1.369 . S
C3171 C3180 1.429 . S
C3172 C3170 1.419 . S
C3172 C3173 1.363 . S
C3172 H3175 0.929 . S
C3173 C3172 1.363 . S
C3173 C3179 1.428 . S
H3174 C3170 0.930 . S
H3175 C3172 0.929 . S
S3176 N3177 1.613 . S
S3176 N3178 1.610 . S
N3177 S3176 1.613 . S
N3177 C3180 1.350 . S
N3178 S3176 1.610 . S
N3178 C3179 1.351 . S
C3179 C3173 1.428 . S
C3179 N3178 1.351 . S
C3179 C3180 1.434 . S
C3180 C3171 1.429 . S
C3180 N3177 1.350 . S
C3180 C3179 1.434 . S
C3181 C3182 1.369 . S
C3181 C3183 1.419 . S
C3181 H3185 0.930 . S
C3182 C3181 1.369 . S
C3182 C3191 1.429 . S
C3183 C3181 1.419 . S
C3183 C3184 1.363 . S
C3183 H3186 0.929 . S
C3184 C3183 1.363 . S
C3184 C3190 1.428 . S
H3185 C3181 0.930 . S
H3186 C3183 0.929 . S
S3187 N3188 1.613 . S
S3187 N3189 1.610 . S
N3188 S3187 1.613 . S
N3188 C3191 1.350 . S
N3189 S3187 1.610 . S
N3189 C3190 1.351 . S
C3190 C3184 1.428 . S
C3190 N3189 1.351 . S
C3190 C3191 1.434 . S
C3191 C3182 1.429 . S
C3191 N3188 1.350 . S
C3191 C3190 1.434 . S
C3192 C3193 1.369 . S
C3192 C3194 1.419 . S
C3192 H3196 0.930 . S
C3193 C3192 1.369 . S
C3193 C3202 1.429 . S
C3194 C3192 1.419 . S
C3194 C3195 1.363 . S
C3194 H3197 0.929 . S
C3195 C3194 1.363 . S
C3195 C3201 1.428 . S
H3196 C3192 0.930 . S
H3197 C3194 0.929 . S
S3198 N3199 1.613 . S
S3198 N3200 1.610 . S
N3199 S3198 1.613 . S
N3199 C3202 1.350 . S
N3200 S3198 1.610 . S
N3200 C3201 1.351 . S
C3201 C3195 1.428 . S
C3201 N3200 1.351 . S
C3201 C3202 1.434 . S
C3202 C3193 1.429 . S
C3202 N3199 1.350 . S
C3202 C3201 1.434 . S
C3203 C3204 1.369 . S
C3203 C3205 1.419 . S
C3203 H3207 0.930 . S
C3204 C3203 1.369 . S
C3204 C3213 1.429 . S
C3205 C3203 1.419 . S
C3205 C3206 1.363 . S
C3205 H3208 0.929 . S
C3206 C3205 1.363 . S
C3206 C3212 1.428 . S
H3207 C3203 0.930 . S
H3208 C3205 0.929 . S
S3209 N3210 1.613 . S
S3209 N3211 1.610 . S
N3210 S3209 1.613 . S
N3210 C3213 1.350 . S
N3211 S3209 1.610 . S
N3211 C3212 1.351 . S
C3212 C3206 1.428 . S
C3212 N3211 1.351 . S
C3212 C3213 1.434 . S
C3213 C3204 1.429 . S
C3213 N3210 1.350 . S
C3213 C3212 1.434 . S
C3214 C3215 1.369 . S
C3214 C3216 1.419 . S
C3214 H3218 0.930 . S
C3215 C3214 1.369 . S
C3215 C3224 1.429 . S
C3216 C3214 1.419 . S
C3216 C3217 1.363 . S
C3216 H3219 0.929 . S
C3217 C3216 1.363 . S
C3217 C3223 1.428 . S
H3218 C3214 0.930 . S
H3219 C3216 0.929 . S
S3220 N3221 1.613 . S
S3220 N3222 1.610 . S
N3221 S3220 1.613 . S
N3221 C3224 1.350 . S
N3222 S3220 1.610 . S
N3222 C3223 1.351 . S
C3223 C3217 1.428 . S
C3223 N3222 1.351 . S
C3223 C3224 1.434 . S
C3224 C3215 1.429 . S
C3224 N3221 1.350 . S
C3224 C3223 1.434 . S
C3225 C3226 1.369 . S
C3225 C3227 1.419 . S
C3225 H3229 0.930 . S
C3226 C3225 1.369 . S
C3226 C3235 1.429 . S
C3227 C3225 1.419 . S
C3227 C3228 1.363 . S
C3227 H3230 0.929 . S
C3228 C3227 1.363 . S
C3228 C3234 1.428 . S
H3229 C3225 0.930 . S
H3230 C3227 0.929 . S
S3231 N3232 1.613 . S
S3231 N3233 1.610 . S
N3232 S3231 1.613 . S
N3232 C3235 1.350 . S
N3233 S3231 1.610 . S
N3233 C3234 1.351 . S
C3234 C3228 1.428 . S
C3234 N3233 1.351 . S
C3234 C3235 1.434 . S
C3235 C3226 1.429 . S
C3235 N3232 1.350 . S
C3235 C3234 1.434 . S
C3236 C3237 1.369 . S
C3236 C3238 1.419 . S
C3236 H3240 0.930 . S
C3237 C3236 1.369 . S
C3237 C3246 1.429 . S
C3238 C3236 1.419 . S
C3238 C3239 1.363 . S
C3238 H3241 0.929 . S
C3239 C3238 1.363 . S
C3239 C3245 1.428 . S
H3240 C3236 0.930 . S
H3241 C3238 0.929 . S
S3242 N3243 1.613 . S
S3242 N3244 1.610 . S
N3243 S3242 1.613 . S
N3243 C3246 1.350 . S
N3244 S3242 1.610 . S
N3244 C3245 1.351 . S
C3245 C3239 1.428 . S
C3245 N3244 1.351 . S
C3245 C3246 1.434 . S
C3246 C3237 1.429 . S
C3246 N3243 1.350 . S
C3246 C3245 1.434 . S
C3247 C3248 1.369 . S
C3247 C3249 1.419 . S
C3247 H3251 0.930 . S
C3248 C3247 1.369 . S
C3248 C3257 1.429 . S
C3249 C3247 1.419 . S
C3249 C3250 1.363 . S
C3249 H3252 0.929 . S
C3250 C3249 1.363 . S
C3250 C3256 1.428 . S
H3251 C3247 0.930 . S
H3252 C3249 0.929 . S
S3253 N3254 1.613 . S
S3253 N3255 1.610 . S
N3254 S3253 1.613 . S
N3254 C3257 1.350 . S
N3255 S3253 1.610 . S
N3255 C3256 1.351 . S
C3256 C3250 1.428 . S
C3256 N3255 1.351 . S
C3256 C3257 1.434 . S
C3257 C3248 1.429 . S
C3257 N3254 1.350 . S
C3257 C3256 1.434 . S
C3258 C3259 1.369 . S
C3258 C3260 1.419 . S
C3258 H3262 0.930 . S
C3259 C3258 1.369 . S
C3259 C3268 1.429 . S
C3260 C3258 1.419 . S
C3260 C3261 1.363 . S
C3260 H3263 0.929 . S
C3261 C3260 1.363 . S
C3261 C3267 1.428 . S
H3262 C3258 0.930 . S
H3263 C3260 0.929 . S
S3264 N3265 1.613 . S
S3264 N3266 1.610 . S
N3265 S3264 1.613 . S
N3265 C3268 1.350 . S
N3266 S3264 1.610 . S
N3266 C3267 1.351 . S
C3267 C3261 1.428 . S
C3267 N3266 1.351 . S
C3267 C3268 1.434 . S
C3268 C3259 1.429 . S
C3268 N3265 1.350 . S
C3268 C3267 1.434 . S
C3269 C3270 1.369 . S
C3269 C3271 1.419 . S
C3269 H3273 0.930 . S
C3270 C3269 1.369 . S
C3270 C3279 1.429 . S
C3271 C3269 1.419 . S
C3271 C3272 1.363 . S
C3271 H3274 0.929 . S
C3272 C3271 1.363 . S
C3272 C3278 1.428 . S
H3273 C3269 0.930 . S
H3274 C3271 0.929 . S
S3275 N3276 1.613 . S
S3275 N3277 1.610 . S
N3276 S3275 1.613 . S
N3276 C3279 1.350 . S
N3277 S3275 1.610 . S
N3277 C3278 1.351 . S
C3278 C3272 1.428 . S
C3278 N3277 1.351 . S
C3278 C3279 1.434 . S
C3279 C3270 1.429 . S
C3279 N3276 1.350 . S
C3279 C3278 1.434 . S
C3280 C3281 1.369 . S
C3280 C3282 1.419 . S
C3280 H3284 0.930 . S
C3281 C3280 1.369 . S
C3281 C3290 1.429 . S
C3282 C3280 1.419 . S
C3282 C3283 1.363 . S
C3282 H3285 0.929 . S
C3283 C3282 1.363 . S
C3283 C3289 1.428 . S
H3284 C3280 0.930 . S
H3285 C3282 0.929 . S
S3286 N3287 1.613 . S
S3286 N3288 1.610 . S
N3287 S3286 1.613 . S
N3287 C3290 1.350 . S
N3288 S3286 1.610 . S
N3288 C3289 1.351 . S
C3289 C3283 1.428 . S
C3289 N3288 1.351 . S
C3289 C3290 1.434 . S
C3290 C3281 1.429 . S
C3290 N3287 1.350 . S
C3290 C3289 1.434 . S
C3291 C3292 1.369 . S
C3291 C3293 1.419 . S
C3291 H3295 0.930 . S
C3292 C3291 1.369 . S
C3292 C3301 1.429 . S
C3293 C3291 1.419 . S
C3293 C3294 1.363 . S
C3293 H3296 0.929 . S
C3294 C3293 1.363 . S
C3294 C3300 1.428 . S
H3295 C3291 0.930 . S
H3296 C3293 0.929 . S
S3297 N3298 1.613 . S
S3297 N3299 1.610 . S
N3298 S3297 1.613 . S
N3298 C3301 1.350 . S
N3299 S3297 1.610 . S
N3299 C3300 1.351 . S
C3300 C3294 1.428 . S
C3300 N3299 1.351 . S
C3300 C3301 1.434 . S
C3301 C3292 1.429 . S
C3301 N3298 1.350 . S
C3301 C3300 1.434 . S
C3302 C3303 1.369 . S
C3302 C3304 1.419 . S
C3302 H3306 0.930 . S
C3303 C3302 1.369 . S
C3303 C3312 1.429 . S
C3304 C3302 1.419 . S
C3304 C3305 1.363 . S
C3304 H3307 0.929 . S
C3305 C3304 1.363 . S
C3305 C3311 1.428 . S
H3306 C3302 0.930 . S
H3307 C3304 0.929 . S
S3308 N3309 1.613 . S
S3308 N3310 1.610 . S
N3309 S3308 1.613 . S
N3309 C3312 1.350 . S
N3310 S3308 1.610 . S
N3310 C3311 1.351 . S
C3311 C3305 1.428 . S
C3311 N3310 1.351 . S
C3311 C3312 1.434 . S
C3312 C3303 1.429 . S
C3312 N3309 1.350 . S
C3312 C3311 1.434 . S
C3313 C3314 1.369 . S
C3313 C3315 1.419 . S
C3313 H3317 0.930 . S
C3314 C3313 1.369 . S
C3314 C3323 1.429 . S
C3315 C3313 1.419 . S
C3315 C3316 1.363 . S
C3315 H3318 0.929 . S
C3316 C3315 1.363 . S
C3316 C3322 1.428 . S
H3317 C3313 0.930 . S
H3318 C3315 0.929 . S
S3319 N3320 1.613 . S
S3319 N3321 1.610 . S
N3320 S3319 1.613 . S
N3320 C3323 1.350 . S
N3321 S3319 1.610 . S
N3321 C3322 1.351 . S
C3322 C3316 1.428 . S
C3322 N3321 1.351 . S
C3322 C3323 1.434 . S
C3323 C3314 1.429 . S
C3323 N3320 1.350 . S
C3323 C3322 1.434 . S
C3324 C3325 1.369 . S
C3324 C3326 1.419 . S
C3324 H3328 0.930 . S
C3325 C3324 1.369 . S
C3325 C3334 1.429 . S
C3326 C3324 1.419 . S
C3326 C3327 1.363 . S
C3326 H3329 0.929 . S
C3327 C3326 1.363 . S
C3327 C3333 1.428 . S
H3328 C3324 0.930 . S
H3329 C3326 0.929 . S
S3330 N3331 1.613 . S
S3330 N3332 1.610 . S
N3331 S3330 1.613 . S
N3331 C3334 1.350 . S
N3332 S3330 1.610 . S
N3332 C3333 1.351 . S
C3333 C3327 1.428 . S
C3333 N3332 1.351 . S
C3333 C3334 1.434 . S
C3334 C3325 1.429 . S
C3334 N3331 1.350 . S
C3334 C3333 1.434 . S
C3335 C3336 1.369 . S
C3335 C3337 1.419 . S
C3335 H3339 0.930 . S
C3336 C3335 1.369 . S
C3336 C3345 1.429 . S
C3337 C3335 1.419 . S
C3337 C3338 1.363 . S
C3337 H3340 0.929 . S
C3338 C3337 1.363 . S
C3338 C3344 1.428 . S
H3339 C3335 0.930 . S
H3340 C3337 0.929 . S
S3341 N3342 1.613 . S
S3341 N3343 1.610 . S
N3342 S3341 1.613 . S
N3342 C3345 1.350 . S
N3343 S3341 1.610 . S
N3343 C3344 1.351 . S
C3344 C3338 1.428 . S
C3344 N3343 1.351 . S
C3344 C3345 1.434 . S
C3345 C3336 1.429 . S
C3345 N3342 1.350 . S
C3345 C3344 1.434 . S
C3346 C3347 1.369 . S
C3346 C3348 1.419 . S
C3346 H3350 0.930 . S
C3347 C3346 1.369 . S
C3347 C3356 1.429 . S
C3348 C3346 1.419 . S
C3348 C3349 1.363 . S
C3348 H3351 0.929 . S
C3349 C3348 1.363 . S
C3349 C3355 1.428 . S
H3350 C3346 0.930 . S
H3351 C3348 0.929 . S
S3352 N3353 1.613 . S
S3352 N3354 1.610 . S
N3353 S3352 1.613 . S
N3353 C3356 1.350 . S
N3354 S3352 1.610 . S
N3354 C3355 1.351 . S
C3355 C3349 1.428 . S
C3355 N3354 1.351 . S
C3355 C3356 1.434 . S
C3356 C3347 1.429 . S
C3356 N3353 1.350 . S
C3356 C3355 1.434 . S
C3357 C3358 1.369 . S
C3357 C3359 1.419 . S
C3357 H3361 0.930 . S
C3358 C3357 1.369 . S
C3358 C3367 1.429 . S
C3359 C3357 1.419 . S
C3359 C3360 1.363 . S
C3359 H3362 0.929 . S
C3360 C3359 1.363 . S
C3360 C3366 1.428 . S
H3361 C3357 0.930 . S
H3362 C3359 0.929 . S
S3363 N3364 1.613 . S
S3363 N3365 1.610 . S
N3364 S3363 1.613 . S
N3364 C3367 1.350 . S
N3365 S3363 1.610 . S
N3365 C3366 1.351 . S
C3366 C3360 1.428 . S
C3366 N3365 1.351 . S
C3366 C3367 1.434 . S
C3367 C3358 1.429 . S
C3367 N3364 1.350 . S
C3367 C3366 1.434 . S
C3368 C3369 1.369 . S
C3368 C3370 1.419 . S
C3368 H3372 0.930 . S
C3369 C3368 1.369 . S
C3369 C3378 1.429 . S
C3370 C3368 1.419 . S
C3370 C3371 1.363 . S
C3370 H3373 0.929 . S
C3371 C3370 1.363 . S
C3371 C3377 1.428 . S
H3372 C3368 0.930 . S
H3373 C3370 0.929 . S
S3374 N3375 1.613 . S
S3374 N3376 1.610 . S
N3375 S3374 1.613 . S
N3375 C3378 1.350 . S
N3376 S3374 1.610 . S
N3376 C3377 1.351 . S
C3377 C3371 1.428 . S
C3377 N3376 1.351 . S
C3377 C3378 1.434 . S
C3378 C3369 1.429 . S
C3378 N3375 1.350 . S
C3378 C3377 1.434 . S
C3379 C3380 1.369 . S
C3379 C3381 1.419 . S
C3379 H3383 0.930 . S
C3380 C3379 1.369 . S
C3380 C3389 1.429 . S
C3381 C3379 1.419 . S
C3381 C3382 1.363 . S
C3381 H3384 0.929 . S
C3382 C3381 1.363 . S
C3382 C3388 1.428 . S
H3383 C3379 0.930 . S
H3384 C3381 0.929 . S
S3385 N3386 1.613 . S
S3385 N3387 1.610 . S
N3386 S3385 1.613 . S
N3386 C3389 1.350 . S
N3387 S3385 1.610 . S
N3387 C3388 1.351 . S
C3388 C3382 1.428 . S
C3388 N3387 1.351 . S
C3388 C3389 1.434 . S
C3389 C3380 1.429 . S
C3389 N3386 1.350 . S
C3389 C3388 1.434 . S
C3390 C3391 1.369 . S
C3390 C3392 1.419 . S
C3390 H3394 0.930 . S
C3391 C3390 1.369 . S
C3391 C3400 1.429 . S
C3392 C3390 1.419 . S
C3392 C3393 1.363 . S
C3392 H3395 0.929 . S
C3393 C3392 1.363 . S
C3393 C3399 1.428 . S
H3394 C3390 0.930 . S
H3395 C3392 0.929 . S
S3396 N3397 1.613 . S
S3396 N3398 1.610 . S
N3397 S3396 1.613 . S
N3397 C3400 1.350 . S
N3398 S3396 1.610 . S
N3398 C3399 1.351 . S
C3399 C3393 1.428 . S
C3399 N3398 1.351 . S
C3399 C3400 1.434 . S
C3400 C3391 1.429 . S
C3400 N3397 1.350 . S
C3400 C3399 1.434 . S
C3401 C3402 1.369 . S
C3401 C3403 1.419 . S
C3401 H3405 0.930 . S
C3402 C3401 1.369 . S
C3402 C3411 1.429 . S
C3403 C3401 1.419 . S
C3403 C3404 1.363 . S
C3403 H3406 0.929 . S
C3404 C3403 1.363 . S
C3404 C3410 1.428 . S
H3405 C3401 0.930 . S
H3406 C3403 0.929 . S
S3407 N3408 1.613 . S
S3407 N3409 1.610 . S
N3408 S3407 1.613 . S
N3408 C3411 1.350 . S
N3409 S3407 1.610 . S
N3409 C3410 1.351 . S
C3410 C3404 1.428 . S
C3410 N3409 1.351 . S
C3410 C3411 1.434 . S
C3411 C3402 1.429 . S
C3411 N3408 1.350 . S
C3411 C3410 1.434 . S
C3412 C3413 1.369 . S
C3412 C3414 1.419 . S
C3412 H3416 0.930 . S
C3413 C3412 1.369 . S
C3413 C3422 1.429 . S
C3414 C3412 1.419 . S
C3414 C3415 1.363 . S
C3414 H3417 0.929 . S
C3415 C3414 1.363 . S
C3415 C3421 1.428 . S
H3416 C3412 0.930 . S
H3417 C3414 0.929 . S
S3418 N3419 1.613 . S
S3418 N3420 1.610 . S
N3419 S3418 1.613 . S
N3419 C3422 1.350 . S
N3420 S3418 1.610 . S
N3420 C3421 1.351 . S
C3421 C3415 1.428 . S
C3421 N3420 1.351 . S
C3421 C3422 1.434 . S
C3422 C3413 1.429 . S
C3422 N3419 1.350 . S
C3422 C3421 1.434 . S
C3423 C3424 1.369 . S
C3423 C3425 1.419 . S
C3423 H3427 0.930 . S
C3424 C3423 1.369 . S
C3424 C3433 1.429 . S
C3425 C3423 1.419 . S
C3425 C3426 1.363 . S
C3425 H3428 0.929 . S
C3426 C3425 1.363 . S
C3426 C3432 1.428 . S
H3427 C3423 0.930 . S
H3428 C3425 0.929 . S
S3429 N3430 1.613 . S
S3429 N3431 1.610 . S
N3430 S3429 1.613 . S
N3430 C3433 1.350 . S
N3431 S3429 1.610 . S
N3431 C3432 1.351 . S
C3432 C3426 1.428 . S
C3432 N3431 1.351 . S
C3432 C3433 1.434 . S
C3433 C3424 1.429 . S
C3433 N3430 1.350 . S
C3433 C3432 1.434 . S
C3434 C3435 1.369 . S
C3434 C3436 1.419 . S
C3434 H3438 0.930 . S
C3435 C3434 1.369 . S
C3435 C3444 1.429 . S
C3436 C3434 1.419 . S
C3436 C3437 1.363 . S
C3436 H3439 0.929 . S
C3437 C3436 1.363 . S
C3437 C3443 1.428 . S
H3438 C3434 0.930 . S
H3439 C3436 0.929 . S
S3440 N3441 1.613 . S
S3440 N3442 1.610 . S
N3441 S3440 1.613 . S
N3441 C3444 1.350 . S
N3442 S3440 1.610 . S
N3442 C3443 1.351 . S
C3443 C3437 1.428 . S
C3443 N3442 1.351 . S
C3443 C3444 1.434 . S
C3444 C3435 1.429 . S
C3444 N3441 1.350 . S
C3444 C3443 1.434 . S
C3445 C3446 1.369 . S
C3445 C3447 1.419 . S
C3445 H3449 0.930 . S
C3446 C3445 1.369 . S
C3446 C3455 1.429 . S
C3447 C3445 1.419 . S
C3447 C3448 1.363 . S
C3447 H3450 0.929 . S
C3448 C3447 1.363 . S
C3448 C3454 1.428 . S
H3449 C3445 0.930 . S
H3450 C3447 0.929 . S
S3451 N3452 1.613 . S
S3451 N3453 1.610 . S
N3452 S3451 1.613 . S
N3452 C3455 1.350 . S
N3453 S3451 1.610 . S
N3453 C3454 1.351 . S
C3454 C3448 1.428 . S
C3454 N3453 1.351 . S
C3454 C3455 1.434 . S
C3455 C3446 1.429 . S
C3455 N3452 1.350 . S
C3455 C3454 1.434 . S
C1345 C8 1.625 . S
C1347 C960 1.623 . S
C1356 C918 1.622 . S
C1358 C22 1.623 . S
C1367 C932 1.624 . S
C1369 C36 1.626 . S
C1378 C50 1.625 . S
C1380 C946 1.622 . S
C1389 C1002 1.626 . S
C1391 C64 1.623 . S
C1400 C974 1.621 . S
C1402 C78 1.624 . S
C1411 C988 1.625 . S
C1413 C92 1.626 . S
C1422 C106 1.626 . S
C1424 C904 1.626 . S
C1433 C120 1.627 . S
C1435 C890 1.625 . S
C1444 C134 1.624 . S
C1446 C848 1.626 . S
C1455 C148 1.624 . S
C1457 C862 1.622 . S
C1466 C162 1.624 . S
C1468 C876 1.622 . S
C1477 C176 1.623 . S
C1479 C806 1.626 . S
C1488 C820 1.624 . S
C1490 C190 1.626 . S
C1499 C834 1.625 . S
C1501 C204 1.623 . S
C1510 C218 1.622 . S
C1512 C792 1.625 . S
C1521 C232 1.622 . S
C1523 C778 1.622 . S
C1532 C246 1.627 . S
C1534 C694 1.624 . S
C1543 C708 1.627 . S
C1545 C260 1.625 . S
C1554 C722 1.626 . S
C1556 C274 1.623 . S
C1565 C680 1.622 . S
C1567 C288 1.625 . S
C1576 C302 1.621 . S
C1578 C750 1.623 . S
C1587 C316 1.626 . S
C1589 C764 1.626 . S
C1598 C330 1.622 . S
C1600 C736 1.623 . S
C1609 C344 1.622 . S
C1611 C1296 1.626 . S
C1620 C358 1.622 . S
C1622 C1254 1.625 . S
C1631 C372 1.622 . S
C1633 C1268 1.625 . S
C1642 C386 1.626 . S
C1644 C1282 1.623 . S
C1653 C400 1.627 . S
C1655 C1338 1.624 . S
C1664 C414 1.625 . S
C1666 C1310 1.626 . S
C1675 C1324 1.623 . S
C1677 C428 1.626 . S
C1686 C442 1.621 . S
C1688 C1240 1.624 . S
C1697 C456 1.625 . S
C1699 C1226 1.626 . S
C1708 C1184 1.626 . S
C1710 C470 1.626 . S
C1719 C484 1.625 . S
C1721 C1198 1.622 . S
C1730 C498 1.625 . S
C1732 C1212 1.626 . S
C1741 C512 1.623 . S
C1743 C1142 1.626 . S
C1752 C526 1.624 . S
C1754 C1156 1.622 . S
C1763 C540 1.626 . S
C1765 C1170 1.623 . S
C1774 C1128 1.625 . S
C1776 C554 1.626 . S
C1785 C568 1.626 . S
C1787 C1114 1.623 . S
C1796 C582 1.626 . S
C1798 C1030 1.623 . S
C1807 C596 1.626 . S
C1809 C1044 1.623 . S
C1818 C1058 1.623 . S
C1820 C610 1.626 . S
C1829 C624 1.624 . S
C1831 C1016 1.622 . S
C1840 C1086 1.627 . S
C1842 C638 1.625 . S
C1851 C652 1.625 . S
C1853 C1100 1.626 . S
C1862 C666 1.624 . S
C1864 C1072 1.622 . S
C1873 C9 1.800 . S
C1875 C555 1.800 . S
C1884 C23 1.802 . S
C1886 C513 1.802 . S
C1895 C527 1.798 . S
C1897 C37 1.799 . S
C1906 C51 1.799 . S
C1908 C541 1.799 . S
C1917 C471 1.800 . S
C1919 C65 1.800 . S
C1928 C485 1.800 . S
C1930 C79 1.800 . S
C1939 C499 1.802 . S
C1941 C93 1.802 . S
C1950 C457 1.798 . S
C1952 C107 1.799 . S
C1961 C443 1.799 . S
C1963 C121 1.799 . S
C1972 C135 1.799 . S
C1974 C401 1.800 . S
C1983 C415 1.799 . S
C1985 C149 1.799 . S
C1994 C163 1.800 . S
C1996 C429 1.800 . S
C2005 C359 1.798 . S
C2007 C177 1.799 . S
C2016 C373 1.799 . S
C2018 C191 1.800 . S
C2027 C205 1.802 . S
C2029 C387 1.801 . S
C2038 C219 1.802 . S
C2040 C345 1.802 . S
C2049 C233 1.798 . S
C2051 C625 1.799 . S
C2060 C247 1.801 . S
C2062 C667 1.801 . S
C2071 C639 1.800 . S
C2073 C261 1.801 . S
C2082 C653 1.802 . S
C2084 C275 1.802 . S
C2093 C289 1.802 . S
C2095 C569 1.802 . S
C2104 C303 1.802 . S
C2106 C597 1.802 . S
C2115 C611 1.801 . S
C2117 C317 1.801 . S
C2126 C331 1.801 . S
C2128 C583 1.801 . S
C2137 C1227 1.799 . S
C2139 C681 1.799 . S
C2148 C1185 1.802 . S
C2150 C695 1.801 . S
C2159 C1199 1.798 . S
C2161 C709 1.799 . S
C2170 C723 1.799 . S
C2172 C1213 1.799 . S
C2181 C1143 1.800 . S
C2183 C737 1.800 . S
C2192 C1157 1.800 . S
C2194 C751 1.800 . S
C2203 C765 1.800 . S
C2205 C1171 1.800 . S
C2214 C779 1.798 . S
C2216 C1129 1.799 . S
C2225 C1115 1.799 . S
C2227 C793 1.799 . S
C2236 C807 1.799 . S
C2238 C1073 1.799 . S
C2247 C1087 1.800 . S
C2249 C821 1.800 . S
C2258 C1101 1.798 . S
C2260 C835 1.799 . S
C2269 C849 1.798 . S
C2271 C1031 1.799 . S
C2280 C863 1.801 . S
C2282 C1045 1.801 . S
C2291 C1059 1.800 . S
C2293 C877 1.800 . S
C2302 C891 1.801 . S
C2304 C1017 1.801 . S
C2313 C1297 1.801 . S
C2315 C905 1.801 . S
C2324 C1339 1.801 . S
C2326 C919 1.801 . S
C2335 C933 1.798 . S
C2337 C1311 1.799 . S
C2346 C1325 1.800 . S
C2348 C947 1.800 . S
C2357 C1241 1.799 . S
C2359 C961 1.799 . S
C2368 C1269 1.800 . S
C2370 C975 1.800 . S
C2379 C989 1.798 . S
C2381 C1283 1.799 . S
C2390 C1255 1.798 . S
C2392 C1003 1.799 . S
C2401 C7 1.309 . S
C2403 C399 1.310 . S
C2412 C413 1.317 . S
C2414 C21 1.316 . S
C2423 C35 1.316 . S
C2425 C427 1.315 . S
C2434 C441 1.312 . S
C2436 C49 1.312 . S
C2445 C63 1.314 . S
C2447 C343 1.314 . S
C2456 C77 1.310 . S
C2458 C357 1.310 . S
C2467 C91 1.314 . S
C2469 C371 1.313 . S
C2478 C385 1.318 . S
C2480 C105 1.316 . S
C2489 C539 1.317 . S
C2491 C119 1.315 . S
C2500 C133 1.311 . S
C2502 C553 1.311 . S
C2511 C147 1.311 . S
C2513 C511 1.311 . S
C2522 C161 1.318 . S
C2524 C525 1.316 . S
C2533 C175 1.312 . S
C2535 C483 1.312 . S
C2544 C189 1.307 . S
C2546 C497 1.308 . S
C2555 C203 1.309 . S
C2557 C455 1.310 . S
C2566 C217 1.308 . S
C2568 C469 1.309 . S
C2577 C231 1.314 . S
C2579 C637 1.314 . S
C2588 C245 1.315 . S
C2590 C609 1.315 . S
C2599 C623 1.308 . S
C2601 C259 1.309 . S
C2610 C273 1.310 . S
C2612 C581 1.311 . S
C2621 C595 1.316 . S
C2623 C287 1.315 . S
C2632 C301 1.311 . S
C2634 C567 1.311 . S
C2643 C315 1.311 . S
C2645 C665 1.312 . S
C2654 C651 1.317 . S
C2656 C329 1.316 . S
C2665 C1071 1.307 . S
C2667 C679 1.309 . S
C2676 C693 1.314 . S
C2678 C1085 1.314 . S
C2687 C1099 1.316 . S
C2689 C707 1.315 . S
C2698 C721 1.307 . S
C2700 C1113 1.309 . S
C2709 C1015 1.307 . S
C2711 C735 1.308 . S
C2720 C1029 1.307 . S
C2722 C749 1.309 . S
C2731 C1043 1.314 . S
C2733 C763 1.314 . S
C2742 C777 1.318 . S
C2744 C1057 1.316 . S
C2753 C791 1.313 . S
C2755 C1211 1.312 . S
C2764 C1225 1.307 . S
C2766 C805 1.308 . S
C2775 C1183 1.315 . S
C2777 C819 1.314 . S
C2786 C1197 1.318 . S
C2788 C833 1.316 . S
C2797 C847 1.317 . S
C2799 C1155 1.316 . S
C2808 C861 1.317 . S
C2810 C1169 1.316 . S
C2819 C1127 1.312 . S
C2821 C875 1.312 . S
C2830 C1141 1.307 . S
C2832 C889 1.308 . S
C2841 C1309 1.314 . S
C2843 C903 1.314 . S
C2852 C917 1.313 . S
C2854 C1281 1.313 . S
C2863 C1295 1.308 . S
C2865 C931 1.309 . S
C2874 C945 1.309 . S
C2876 C1253 1.309 . S
C2885 C959 1.318 . S
C2887 C1267 1.316 . S
C2896 C973 1.309 . S
C2898 C1239 1.310 . S
C2907 C1337 1.307 . S
C2909 C987 1.308 . S
C2918 C1001 1.317 . S
C2920 C1323 1.316 . S
C2929 C440 1.271 . S
C2931 C6 1.273 . S
C2940 C398 1.283 . S
C2942 C20 1.282 . S
C2951 C34 1.279 . S
C2953 C412 1.279 . S
C2962 C426 1.283 . S
C2964 C48 1.282 . S
C2973 C356 1.272 . S
C2975 C62 1.273 . S
C2984 C76 1.271 . S
C2986 C370 1.273 . S
C2995 C90 1.283 . S
C2997 C384 1.282 . S
C3006 C342 1.282 . S
C3008 C104 1.281 . S
C3017 C622 1.283 . S
C3019 C118 1.282 . S
C3028 C132 1.280 . S
C3030 C580 1.280 . S
C3039 C146 1.279 . S
C3041 C594 1.278 . S
C3050 C608 1.272 . S
C3052 C160 1.273 . S
C3061 C174 1.272 . S
C3063 C664 1.274 . S
C3072 C636 1.279 . S
C3074 C188 1.279 . S
C3083 C650 1.282 . S
C3085 C202 1.281 . S
C3094 C216 1.272 . S
C3096 C566 1.273 . S
C3105 C230 1.283 . S
C3107 C552 1.282 . S
C3116 C244 1.274 . S
C3118 C468 1.274 . S
C3127 C258 1.283 . S
C3129 C482 1.282 . S
C3138 C496 1.271 . S
C3140 C272 1.273 . S
C3149 C454 1.274 . S
C3151 C286 1.274 . S
C3160 C300 1.282 . S
C3162 C524 1.281 . S
C3171 C314 1.271 . S
C3173 C538 1.273 . S
C3182 C328 1.271 . S
C3184 C510 1.273 . S
C3193 C678 1.283 . S
C3195 C1112 1.282 . S
C3204 C692 1.283 . S
C3206 C1070 1.281 . S
C3215 C706 1.280 . S
C3217 C1084 1.279 . S
C3226 C1098 1.283 . S
C3228 C720 1.281 . S
C3237 C1028 1.282 . S
C3239 C734 1.281 . S
C3248 C1042 1.282 . S
C3250 C748 1.281 . S
C3259 C762 1.276 . S
C3261 C1056 1.276 . S
C3270 C1014 1.281 . S
C3272 C776 1.280 . S
C3281 C1294 1.279 . S
C3283 C790 1.279 . S
C3292 C1252 1.278 . S
C3294 C804 1.279 . S
C3303 C1266 1.283 . S
C3305 C818 1.282 . S
C3314 C1280 1.281 . S
C3316 C832 1.280 . S
C3325 C1336 1.275 . S
C3327 C846 1.275 . S
C3336 C1308 1.282 . S
C3338 C860 1.281 . S
C3347 C1322 1.279 . S
C3349 C874 1.278 . S
C3358 C1238 1.282 . S
C3360 C888 1.281 . S
C3369 C902 1.282 . S
C3371 C1224 1.281 . S
C3380 C1140 1.272 . S
C3382 C916 1.273 . S
C3391 C1154 1.283 . S
C3393 C930 1.282 . S
C3402 C1168 1.271 . S
C3404 C944 1.273 . S
C3413 C1126 1.276 . S
C3415 C958 1.277 . S
C3424 C1196 1.283 . S
C3426 C972 1.282 . S
C3435 C1210 1.272 . S
C3437 C986 1.273 . S
C3446 C1182 1.283 . S
C3448 C1000 1.282 . S
