# Generated by pormake.
# Topology fnk, (5)-cn, num edge types: 1
# Building blocks:
#     Node 0, Type 0, BuildingBlock: BEQFEK_clean_sbu_0, # of connection points: 5
#     Node 1, Type 0, BuildingBlock: BEQFEK_clean_sbu_0, # of connection points: 5
#     Node 2, Type 0, BuildingBlock: BEQFEK_clean_sbu_0, # of connection points: 5
#     Node 3, Type 0, BuildingBlock: BEQFEK_clean_sbu_0, # of connection points: 5
#     Node 4, Type 0, BuildingBlock: BEQFEK_clean_sbu_0, # of connection points: 5
#     Node 5, Type 0, BuildingBlock: BEQFEK_clean_sbu_0, # of connection points: 5
#     Node 6, Type 0, BuildingBlock: BEQFEK_clean_sbu_0, # of connection points: 5
#     Node 7, Type 0, BuildingBlock: BEQFEK_clean_sbu_0, # of connection points: 5
#     Node 8, Type 0, BuildingBlock: BEQFEK_clean_sbu_0, # of connection points: 5
#     Node 9, Type 0, BuildingBlock: BEQFEK_clean_sbu_0, # of connection points: 5
#     Node 10, Type 0, BuildingBlock: BEQFEK_clean_sbu_0, # of connection points: 5
#     Node 11, Type 0, BuildingBlock: BEQFEK_clean_sbu_0, # of connection points: 5
#     Node 12, Type 0, BuildingBlock: BEQFEK_clean_sbu_0, # of connection points: 5
#     Node 13, Type 0, BuildingBlock: BEQFEK_clean_sbu_0, # of connection points: 5
#     Node 14, Type 0, BuildingBlock: BEQFEK_clean_sbu_0, # of connection points: 5
#     Node 15, Type 0, BuildingBlock: BEQFEK_clean_sbu_0, # of connection points: 5
#     Edge 16, Type (0, 0), BuildingBlock: CIFDUS_clean_linker_0, # of connection points: 2
#     Edge 17, Type (0, 0), BuildingBlock: CIFDUS_clean_linker_0, # of connection points: 2
#     Edge 18, Type (0, 0), BuildingBlock: CIFDUS_clean_linker_0, # of connection points: 2
#     Edge 19, Type (0, 0), BuildingBlock: CIFDUS_clean_linker_0, # of connection points: 2
#     Edge 20, Type (0, 0), BuildingBlock: CIFDUS_clean_linker_0, # of connection points: 2
#     Edge 21, Type (0, 0), BuildingBlock: CIFDUS_clean_linker_0, # of connection points: 2
#     Edge 22, Type (0, 0), BuildingBlock: CIFDUS_clean_linker_0, # of connection points: 2
#     Edge 23, Type (0, 0), BuildingBlock: CIFDUS_clean_linker_0, # of connection points: 2
#     Edge 24, Type (0, 0), BuildingBlock: CIFDUS_clean_linker_0, # of connection points: 2
#     Edge 25, Type (0, 0), BuildingBlock: CIFDUS_clean_linker_0, # of connection points: 2
#     Edge 26, Type (0, 0), BuildingBlock: CIFDUS_clean_linker_0, # of connection points: 2
#     Edge 27, Type (0, 0), BuildingBlock: CIFDUS_clean_linker_0, # of connection points: 2
#     Edge 28, Type (0, 0), BuildingBlock: CIFDUS_clean_linker_0, # of connection points: 2
#     Edge 29, Type (0, 0), BuildingBlock: CIFDUS_clean_linker_0, # of connection points: 2
#     Edge 30, Type (0, 0), BuildingBlock: CIFDUS_clean_linker_0, # of connection points: 2
#     Edge 31, Type (0, 0), BuildingBlock: CIFDUS_clean_linker_0, # of connection points: 2
#     Edge 32, Type (0, 0), BuildingBlock: CIFDUS_clean_linker_0, # of connection points: 2
#     Edge 33, Type (0, 0), BuildingBlock: CIFDUS_clean_linker_0, # of connection points: 2
#     Edge 34, Type (0, 0), BuildingBlock: CIFDUS_clean_linker_0, # of connection points: 2
#     Edge 35, Type (0, 0), BuildingBlock: CIFDUS_clean_linker_0, # of connection points: 2
#     Edge 36, Type (0, 0), BuildingBlock: CIFDUS_clean_linker_0, # of connection points: 2
#     Edge 37, Type (0, 0), BuildingBlock: CIFDUS_clean_linker_0, # of connection points: 2
#     Edge 38, Type (0, 0), BuildingBlock: CIFDUS_clean_linker_0, # of connection points: 2
#     Edge 39, Type (0, 0), BuildingBlock: CIFDUS_clean_linker_0, # of connection points: 2
#     Edge 40, Type (0, 0), BuildingBlock: CIFDUS_clean_linker_0, # of connection points: 2
#     Edge 41, Type (0, 0), BuildingBlock: CIFDUS_clean_linker_0, # of connection points: 2
#     Edge 42, Type (0, 0), BuildingBlock: CIFDUS_clean_linker_0, # of connection points: 2
#     Edge 43, Type (0, 0), BuildingBlock: CIFDUS_clean_linker_0, # of connection points: 2
#     Edge 44, Type (0, 0), BuildingBlock: CIFDUS_clean_linker_0, # of connection points: 2
#     Edge 45, Type (0, 0), BuildingBlock: CIFDUS_clean_linker_0, # of connection points: 2
#     Edge 46, Type (0, 0), BuildingBlock: CIFDUS_clean_linker_0, # of connection points: 2
#     Edge 47, Type (0, 0), BuildingBlock: CIFDUS_clean_linker_0, # of connection points: 2
#     Edge 48, Type (0, 0), BuildingBlock: CIFDUS_clean_linker_0, # of connection points: 2
#     Edge 49, Type (0, 0), BuildingBlock: CIFDUS_clean_linker_0, # of connection points: 2
#     Edge 50, Type (0, 0), BuildingBlock: CIFDUS_clean_linker_0, # of connection points: 2
#     Edge 51, Type (0, 0), BuildingBlock: CIFDUS_clean_linker_0, # of connection points: 2
#     Edge 52, Type (0, 0), BuildingBlock: CIFDUS_clean_linker_0, # of connection points: 2
#     Edge 53, Type (0, 0), BuildingBlock: CIFDUS_clean_linker_0, # of connection points: 2
#     Edge 54, Type (0, 0), BuildingBlock: CIFDUS_clean_linker_0, # of connection points: 2
#     Edge 55, Type (0, 0), BuildingBlock: CIFDUS_clean_linker_0, # of connection points: 2
# Relax obj value: 0.375
# Max RMSD: 0.205
# Mean RMSD: 0.205
data_MOF--net-fnk--node1-BEQFEK_clean_sbu_0--edge1-CIFDUS_clean_linker_0
_symmetry_space_group_name_H-M    P1
_symmetry_Int_Tables_number       1
_symmetry_cell_setting            triclinic
loop_
_symmetry_equiv_pos_as_xyz
'x, y, z'
_cell_length_a     45.508409
_cell_length_b     45.52812
_cell_length_c     43.005744
_cell_angle_alpha  89.677021
_cell_angle_beta   89.779123
_cell_angle_gamma 89.980049
loop_
_atom_site_label
_atom_site_type_symbol
_atom_site_fract_x
_atom_site_fract_y
_atom_site_fract_z
_atom_type_partial_charge
Co0 Co 0.0786 0.39516 0.16676 0.0
Co1 Co 0.12601 0.35664 0.19828 0.0
C2 C 0.12362 0.42011 0.21176 0.0
O3 O 0.10208 0.42271 0.19302 0.0
O4 O 0.1361 0.3954 0.21651 0.0
C5 C 0.05685 0.44283 0.12952 0.0
O6 O 0.08347 0.45376 0.1318 0.0
C7 C 0.17664 0.32733 0.22831 0.0
C8 C 0.17406 0.28364 0.20622 0.0
C9 C 0.19039 0.30022 0.22668 0.0
N10 N 0.15342 0.32692 0.2091 0.0
N11 N 0.15183 0.30065 0.1963 0.0
C12 C 0.18581 0.35347 0.24678 0.0
H13 H 0.19059 0.37201 0.23068 0.0
H14 H 0.20557 0.34876 0.261 0.0
H15 H 0.16738 0.36033 0.26209 0.0
C16 C 0.10529 0.37154 0.10945 0.0
N17 N 0.10275 0.37269 0.14064 0.0
N18 N 0.12486 0.3587 0.1535 0.0
C19 C 0.14319 0.34958 0.13061 0.0
C20 C 0.13104 0.35692 0.10195 0.0
C21 C 0.08515 0.38693 0.08725 0.0
H22 H 0.06215 0.38541 0.09566 0.0
H23 H 0.09152 0.4104 0.08564 0.0
H24 H 0.08658 0.37739 0.06363 0.0
O25 O 0.05405 0.3707 0.19416 0.0
O26 O 0.08792 0.34474 0.21887 0.0
H27 H 0.17056 0.31197 0.13694 0.0
H28 H 0.18805 0.34151 0.11642 0.0
C29 C 0.17282 0.3362 0.13585 0.0
H30 H 0.1823 0.3441 0.15799 0.0
H31 H 0.13566 0.29444 0.1805 0.0
O32 O 0.051 0.41832 0.14225 0.0
C33 C 0.06115 0.35204 0.21484 0.0
Co34 Co 0.59258 0.09367 0.14025 0.0
Co35 Co 0.64063 0.13085 0.17235 0.0
C36 C 0.57728 0.13677 0.19094 0.0
O37 O 0.56988 0.11778 0.17067 0.0
O38 O 0.60408 0.1447 0.1942 0.0
C39 C 0.54135 0.07487 0.10359 0.0
O40 O 0.5283 0.10008 0.10903 0.0
C41 C 0.68182 0.1715 0.20462 0.0
C42 C 0.72348 0.1548 0.18472 0.0
C43 C 0.71218 0.17496 0.20551 0.0
N44 N 0.67567 0.15038 0.18387 0.0
N45 N 0.70068 0.14055 0.17221 0.0
C46 C 0.65941 0.18549 0.22532 0.0
H47 H 0.64114 0.17 0.23009 0.0
H48 H 0.65027 0.20513 0.21341 0.0
H49 H 0.6693 0.19239 0.24766 0.0
C50 C 0.61787 0.12042 0.08379 0.0
N51 N 0.61674 0.117 0.11486 0.0
N52 N 0.63694 0.13345 0.12787 0.0
C53 C 0.6514 0.1483 0.1051 0.0
C54 C 0.6397 0.1405 0.07655 0.0
C55 C 0.59981 0.10308 0.06137 0.0
H56 H 0.60053 0.07947 0.06781 0.0
H57 H 0.57667 0.11061 0.06268 0.0
H58 H 0.60774 0.10562 0.03709 0.0
O59 O 0.61515 0.06349 0.16293 0.0
O60 O 0.648 0.09013 0.18775 0.0
H61 H 0.69679 0.15835 0.11127 0.0
H62 H 0.67659 0.18601 0.09054 0.0
C63 C 0.67546 0.17008 0.11016 0.0
H64 H 0.67186 0.18208 0.1322 0.0
H65 H 0.70216 0.12344 0.15623 0.0
O66 O 0.56667 0.06994 0.11458 0.0
C67 C 0.6364 0.06543 0.1818 0.0
Co68 Co 0.8895 0.57711 0.1582 0.0
Co69 Co 0.84515 0.62285 0.18348 0.0
C70 C 0.84432 0.5618 0.20813 0.0
O71 O 0.86544 0.55559 0.18972 0.0
O72 O 0.83289 0.58748 0.20866 0.0
C73 C 0.9076 0.52362 0.12792 0.0
O74 O 0.88059 0.51422 0.13225 0.0
C75 C 0.80057 0.66454 0.20969 0.0
C76 C 0.81197 0.70341 0.18102 0.0
C77 C 0.79353 0.69398 0.2047 0.0
N78 N 0.82196 0.65711 0.18947 0.0
N79 N 0.82864 0.68052 0.17261 0.0
C80 C 0.78969 0.64484 0.23518 0.0
H81 H 0.80633 0.62785 0.24079 0.0
H82 H 0.76936 0.63369 0.22737 0.0
H83 H 0.78452 0.65766 0.25638 0.0
C84 C 0.86481 0.59525 0.09799 0.0
N85 N 0.86605 0.59681 0.12919 0.0
N86 N 0.84582 0.61504 0.13935 0.0
C87 C 0.83038 0.62505 0.11452 0.0
C88 C 0.84208 0.6129 0.08762 0.0
C89 C 0.88594 0.57828 0.07826 0.0
H90 H 0.90839 0.57976 0.08804 0.0
H91 H 0.87916 0.55489 0.07796 0.0
H92 H 0.88632 0.58665 0.05398 0.0
O93 O 0.91646 0.604 0.17948 0.0
O94 O 0.88441 0.63466 0.20045 0.0
H95 H 0.81053 0.66753 0.11316 0.0
H96 H 0.78833 0.63894 0.09714 0.0
C97 C 0.80379 0.64428 0.11621 0.0
H98 H 0.79247 0.64156 0.13891 0.0
H99 H 0.84524 0.68103 0.1558 0.0
O100 O 0.91482 0.54901 0.13713 0.0
C101 C 0.91071 0.62581 0.19671 0.0
Co102 Co 0.40275 0.91202 0.16759 0.0
Co103 Co 0.36206 0.87148 0.20694 0.0
C104 C 0.4287 0.8721 0.21435 0.0
O105 O 0.43259 0.89064 0.19241 0.0
O106 O 0.40301 0.86322 0.22186 0.0
C107 C 0.44481 0.93892 0.12386 0.0
O108 O 0.46171 0.91565 0.12663 0.0
C109 C 0.33482 0.81474 0.22328 0.0
C110 C 0.30017 0.82904 0.25599 0.0
C111 C 0.31191 0.80451 0.24172 0.0
N112 N 0.33639 0.84406 0.22644 0.0
N113 N 0.31582 0.8524 0.24629 0.0
C114 C 0.35615 0.7969 0.20475 0.0
H115 H 0.37071 0.81137 0.19066 0.0
H116 H 0.34444 0.78137 0.18941 0.0
H117 H 0.36978 0.78361 0.2209 0.0
C118 C 0.37298 0.88354 0.11582 0.0
N119 N 0.37735 0.88673 0.14648 0.0
N120 N 0.35863 0.87023 0.16211 0.0
C121 C 0.3412 0.85631 0.14132 0.0
C122 C 0.3499 0.86437 0.11143 0.0
C123 C 0.39128 0.89803 0.09112 0.0
H124 H 0.38768 0.92212 0.0918 0.0
H125 H 0.41478 0.89353 0.09573 0.0
H126 H 0.38599 0.88996 0.06752 0.0
O127 O 0.38052 0.93854 0.19488 0.0
O128 O 0.3511 0.91076 0.22373 0.0
H129 H 0.3064 0.84321 0.17243 0.0
H130 H 0.29827 0.8391 0.13146 0.0
C131 C 0.3156 0.83716 0.14945 0.0
H132 H 0.3229 0.81394 0.15009 0.0
H133 H 0.31216 0.87411 0.25285 0.0
O134 O 0.42068 0.94001 0.13857 0.0
C135 C 0.36103 0.93583 0.21585 0.0
Co136 Co 0.07795 0.59969 0.34123 0.0
Co137 Co 0.12195 0.63923 0.30512 0.0
C138 C 0.12147 0.57311 0.29792 0.0
O139 O 0.10112 0.56989 0.31808 0.0
O140 O 0.13156 0.59848 0.29098 0.0
C141 C 0.05244 0.55644 0.38308 0.0
O142 O 0.07744 0.54209 0.38114 0.0
C143 C 0.17947 0.66578 0.29065 0.0
C144 C 0.16618 0.70226 0.25964 0.0
C145 C 0.19037 0.68908 0.27323 0.0
N146 N 0.15009 0.66531 0.28752 0.0
N147 N 0.14234 0.68703 0.26876 0.0
C148 C 0.19669 0.64312 0.30812 0.0
H149 H 0.18179 0.62847 0.32158 0.0
H150 H 0.21259 0.65371 0.32396 0.0
H151 H 0.20952 0.62981 0.29132 0.0
C152 C 0.10371 0.62906 0.39529 0.0
N153 N 0.10189 0.62502 0.36441 0.0
N154 N 0.12037 0.64273 0.34998 0.0
C155 C 0.13434 0.659 0.37177 0.0
C156 C 0.12438 0.65049 0.40108 0.0
C157 C 0.08587 0.61273 0.41906 0.0
H158 H 0.09215 0.58922 0.41871 0.0
H159 H 0.08935 0.6213 0.44287 0.0
H160 H 0.06221 0.61461 0.41333 0.0
O161 O 0.05291 0.6213 0.31156 0.0
O162 O 0.0838 0.64928 0.28479 0.0
H163 H 0.1515 0.69343 0.34253 0.0
H164 H 0.15621 0.69921 0.38387 0.0
C165 C 0.15632 0.6826 0.36507 0.0
H166 H 0.17856 0.67274 0.3641 0.0
H167 H 0.12073 0.69164 0.26239 0.0
O168 O 0.04933 0.58042 0.36839 0.0
C169 C 0.05791 0.63994 0.29012 0.0
Co170 Co 0.42389 0.1059 0.3576 0.0
Co171 Co 0.37468 0.13927 0.32254 0.0
C172 C 0.43809 0.1426 0.3016 0.0
O173 O 0.44618 0.12649 0.32434 0.0
O174 O 0.4111 0.14955 0.29782 0.0
C175 C 0.4765 0.09065 0.39342 0.0
O176 O 0.48804 0.11607 0.38549 0.0
C177 C 0.3394 0.18665 0.29387 0.0
C178 C 0.29461 0.1702 0.30398 0.0
C179 C 0.30988 0.19348 0.29096 0.0
N180 N 0.34148 0.16055 0.30845 0.0
N181 N 0.31464 0.15072 0.31406 0.0
C182 C 0.36516 0.20504 0.28444 0.0
H183 H 0.38245 0.20371 0.30253 0.0
H184 H 0.35861 0.22827 0.28063 0.0
H185 H 0.37452 0.19625 0.26251 0.0
C186 C 0.39825 0.13565 0.4116 0.0
N187 N 0.40033 0.13153 0.38073 0.0
N188 N 0.37888 0.1455 0.36659 0.0
C189 C 0.36227 0.159 0.38844 0.0
C190 C 0.37409 0.15329 0.41762 0.0
C191 C 0.41646 0.11937 0.43498 0.0
H192 H 0.43976 0.12603 0.43229 0.0
H193 H 0.40935 0.12368 0.45921 0.0
H194 H 0.41494 0.09544 0.43055 0.0
O195 O 0.39998 0.07424 0.33927 0.0
O196 O 0.36519 0.09761 0.31324 0.0
H197 H 0.3168 0.15924 0.37654 0.0
H198 H 0.32734 0.18812 0.40269 0.0
C199 C 0.33435 0.17523 0.38212 0.0
H200 H 0.3374 0.19027 0.36202 0.0
H201 H 0.31003 0.13089 0.32536 0.0
O202 O 0.45079 0.08423 0.38451 0.0
C203 C 0.37746 0.07388 0.32193 0.0
Co204 Co 0.89776 0.40225 0.36248 0.0
Co205 Co 0.85351 0.35795 0.335 0.0
C206 C 0.85097 0.42129 0.31653 0.0
O207 O 0.87251 0.427 0.3345 0.0
O208 O 0.84049 0.39532 0.31446 0.0
C209 C 0.92076 0.45165 0.39765 0.0
O210 O 0.89477 0.46407 0.3956 0.0
C211 C 0.80779 0.32038 0.30568 0.0
C212 C 0.81861 0.27831 0.32893 0.0
C213 C 0.79999 0.29084 0.3072 0.0
N214 N 0.82968 0.32491 0.32606 0.0
N215 N 0.83608 0.29963 0.33962 0.0
C216 C 0.7974 0.34298 0.28284 0.0
H217 H 0.81498 0.35923 0.27805 0.0
H218 H 0.7782 0.35469 0.29281 0.0
H219 H 0.79072 0.33262 0.26068 0.0
C220 C 0.87459 0.37891 0.42196 0.0
N221 N 0.87523 0.37988 0.39065 0.0
N222 N 0.85533 0.36187 0.37956 0.0
C223 C 0.8408 0.34941 0.40386 0.0
C224 C 0.85268 0.35974 0.43137 0.0
C225 C 0.89554 0.39494 0.44257 0.0
H226 H 0.8892 0.41844 0.44337 0.0
H227 H 0.89525 0.386 0.46663 0.0
H228 H 0.91816 0.3933 0.43307 0.0
O229 O 0.92392 0.37762 0.33676 0.0
O230 O 0.89197 0.34756 0.31512 0.0
H231 H 0.82264 0.30624 0.40152 0.0
H232 H 0.80006 0.33216 0.42169 0.0
C233 C 0.81492 0.32935 0.40138 0.0
H234 H 0.80256 0.33382 0.37971 0.0
H235 H 0.85306 0.29679 0.35559 0.0
O236 O 0.92515 0.42681 0.38536 0.0
C237 C 0.91813 0.35691 0.31814 0.0
Co238 Co 0.59915 0.91823 0.35372 0.0
Co239 Co 0.64234 0.8755 0.32103 0.0
C240 C 0.57924 0.8737 0.30536 0.0
O241 O 0.57454 0.89418 0.32497 0.0
O242 O 0.60493 0.86313 0.3009 0.0
C243 C 0.54935 0.93846 0.391 0.0
O244 O 0.53722 0.91253 0.38736 0.0
C245 C 0.68087 0.8301 0.29157 0.0
C246 C 0.72322 0.84413 0.31178 0.0
C247 C 0.7108 0.82395 0.29185 0.0
N248 N 0.676 0.85289 0.31071 0.0
N249 N 0.70139 0.86099 0.32272 0.0
C250 C 0.65778 0.8163 0.27178 0.0
H251 H 0.64081 0.83274 0.26546 0.0
H252 H 0.647 0.7984 0.28521 0.0
H253 H 0.66753 0.80687 0.25035 0.0
C254 C 0.62246 0.88977 0.41 0.0
N255 N 0.62237 0.89429 0.37907 0.0
N256 N 0.63884 0.8744 0.3655 0.0
C257 C 0.64891 0.85564 0.38754 0.0
C258 C 0.63922 0.86514 0.41646 0.0
C259 C 0.6044 0.90683 0.43277 0.0
H260 H 0.6053 0.93056 0.42696 0.0
H261 H 0.58126 0.89934 0.43152 0.0
H262 H 0.61228 0.90345 0.45692 0.0
O263 O 0.62296 0.94576 0.32924 0.0
O264 O 0.65162 0.9153 0.30314 0.0
H265 H 0.68895 0.83274 0.37878 0.0
H266 H 0.66218 0.81162 0.40007 0.0
C267 C 0.66517 0.8278 0.38092 0.0
H268 H 0.65753 0.81822 0.35871 0.0
H269 H 0.70384 0.87849 0.33807 0.0
O270 O 0.57428 0.94374 0.37896 0.0
C271 C 0.64265 0.94118 0.30892 0.0
Co272 Co 0.9199 0.60256 0.85702 0.0
Co273 Co 0.87036 0.63151 0.81767 0.0
C274 C 0.93495 0.63868 0.80122 0.0
O275 O 0.94298 0.62376 0.82487 0.0
O276 O 0.90778 0.64374 0.79584 0.0
C277 C 0.97197 0.58965 0.89414 0.0
O278 O 0.98443 0.61288 0.88151 0.0
C279 C 0.83136 0.67836 0.79248 0.0
C280 C 0.79479 0.65096 0.77543 0.0
C281 C 0.80444 0.67972 0.77737 0.0
N282 N 0.83722 0.64998 0.799 0.0
N283 N 0.81518 0.63384 0.78883 0.0
C284 C 0.85188 0.70316 0.79911 0.0
H285 H 0.8744 0.69477 0.80345 0.0
H286 H 0.84424 0.7149 0.82017 0.0
H287 H 0.85204 0.71903 0.77941 0.0
C288 C 0.88877 0.63132 0.90797 0.0
N289 N 0.8928 0.62681 0.87742 0.0
N290 N 0.87059 0.63796 0.86183 0.0
C291 C 0.85115 0.6493 0.88245 0.0
C292 C 0.86228 0.64564 0.91236 0.0
C293 C 0.90854 0.61943 0.93279 0.0
H294 H 0.93153 0.62591 0.92763 0.0
H295 H 0.90238 0.6277 0.95616 0.0
H296 H 0.9073 0.59509 0.93295 0.0
O297 O 0.89997 0.56879 0.83738 0.0
O298 O 0.86547 0.58918 0.80825 0.0
H299 H 0.81052 0.64491 0.85799 0.0
H300 H 0.80742 0.66368 0.89501 0.0
C301 C 0.82133 0.66051 0.87404 0.0
H302 H 0.82366 0.68183 0.86171 0.0
H303 H 0.81412 0.61102 0.79081 0.0
O304 O 0.9457 0.58332 0.88719 0.0
C305 C 0.87899 0.56659 0.81813 0.0
Co306 Co 0.4038 0.90306 0.86659 0.0
Co307 Co 0.3515 0.86975 0.83606 0.0
C308 C 0.35763 0.93359 0.826 0.0
O309 O 0.38063 0.93306 0.84292 0.0
O310 O 0.34286 0.9103 0.82073 0.0
C311 C 0.43196 0.94931 0.90082 0.0
O312 O 0.40616 0.96223 0.89965 0.0
C313 C 0.30422 0.84042 0.80022 0.0
C314 C 0.30007 0.79897 0.82688 0.0
C315 C 0.28953 0.81364 0.80098 0.0
N316 N 0.32234 0.84154 0.82486 0.0
N317 N 0.31985 0.81656 0.84046 0.0
C318 C 0.30182 0.86417 0.7762 0.0
H319 H 0.32158 0.86362 0.76102 0.0
H320 H 0.30116 0.88591 0.78768 0.0
H321 H 0.28186 0.86139 0.76177 0.0
C322 C 0.37752 0.87954 0.92408 0.0
N323 N 0.37897 0.88131 0.89288 0.0
N324 N 0.35514 0.86974 0.88081 0.0
C325 C 0.33697 0.86171 0.90439 0.0
C326 C 0.35097 0.86692 0.93245 0.0
C327 C 0.39959 0.89275 0.94556 0.0
H328 H 0.42211 0.88905 0.93646 0.0
H329 H 0.39569 0.91675 0.947 0.0
H330 H 0.39766 0.88321 0.9693 0.0
O331 O 0.42494 0.87774 0.83743 0.0
O332 O 0.38786 0.85631 0.81337 0.0
H333 H 0.30307 0.82928 0.90311 0.0
H334 H 0.29181 0.86363 0.91925 0.0
C335 C 0.30535 0.85344 0.90068 0.0
H336 H 0.29701 0.86056 0.87765 0.0
H337 H 0.33255 0.811 0.85976 0.0
O338 O 0.43483 0.92371 0.88964 0.0
C339 C 0.41532 0.86073 0.81655 0.0
Co340 Co 0.11384 0.42155 0.85715 0.0
Co341 Co 0.14478 0.3685 0.82591 0.0
C342 C 0.08014 0.37365 0.82264 0.0
O343 O 0.08164 0.39738 0.83836 0.0
O344 O 0.10317 0.35894 0.81569 0.0
C345 C 0.074 0.45529 0.89639 0.0
O346 O 0.05821 0.43129 0.89961 0.0
C347 C 0.16986 0.31299 0.79966 0.0
C348 C 0.217 0.32309 0.806 0.0
C349 C 0.19799 0.30227 0.7943 0.0
N350 N 0.17233 0.33913 0.81398 0.0
N351 N 0.20054 0.34478 0.81785 0.0
C352 C 0.14139 0.29993 0.78949 0.0
H353 H 0.13118 0.31454 0.77184 0.0
H354 H 0.12612 0.2987 0.80964 0.0
H355 H 0.14461 0.27772 0.7795 0.0
C356 C 0.14106 0.39709 0.91349 0.0
N357 N 0.13783 0.3981 0.8824 0.0
N358 N 0.14889 0.37421 0.87003 0.0
C359 C 0.15835 0.35647 0.89325 0.0
C360 C 0.15399 0.37054 0.92161 0.0
C361 C 0.12778 0.41897 0.93528 0.0
H362 H 0.13079 0.44149 0.92589 0.0
H363 H 0.10395 0.41444 0.9377 0.0
H364 H 0.13782 0.41775 0.95867 0.0
O365 O 0.13614 0.44114 0.82418 0.0
O366 O 0.1558 0.40362 0.79927 0.0
H367 H 0.19121 0.32597 0.87888 0.0
H368 H 0.16888 0.31301 0.91074 0.0
C369 C 0.16859 0.32557 0.88856 0.0
H370 H 0.15421 0.31442 0.87152 0.0
H371 H 0.20857 0.36393 0.82804 0.0
O372 O 0.09741 0.45461 0.88038 0.0
C373 C 0.15121 0.43111 0.80182 0.0
Co374 Co 0.6008 0.07548 0.84322 0.0
Co375 Co 0.63371 0.12235 0.80277 0.0
C376 C 0.63857 0.05664 0.79101 0.0
O377 O 0.6223 0.0503 0.81417 0.0
O378 O 0.64464 0.08326 0.78404 0.0
C379 C 0.58456 0.02417 0.87952 0.0
O380 O 0.6087 0.01227 0.86842 0.0
C381 C 0.68673 0.15651 0.78724 0.0
C382 C 0.66907 0.18975 0.75469 0.0
C383 C 0.69461 0.18075 0.76935 0.0
N384 N 0.6578 0.15165 0.78355 0.0
N385 N 0.64745 0.17146 0.76387 0.0
C386 C 0.70657 0.13712 0.80594 0.0
H387 H 0.69563 0.11587 0.81125 0.0
H388 H 0.71217 0.14794 0.82814 0.0
H389 H 0.72739 0.13328 0.79306 0.0
C390 C 0.62975 0.10606 0.89392 0.0
N391 N 0.62592 0.10168 0.86337 0.0
N392 N 0.63753 0.1236 0.84747 0.0
C393 C 0.64775 0.14361 0.86798 0.0
C394 C 0.6438 0.13268 0.89799 0.0
C395 C 0.61645 0.08708 0.91879 0.0
H396 H 0.5922 0.0895 0.91829 0.0
H397 H 0.62187 0.06375 0.91417 0.0
H398 H 0.62448 0.09305 0.94225 0.0
O399 O 0.56973 0.09724 0.82042 0.0
O400 O 0.59239 0.13016 0.79053 0.0
H401 H 0.64935 0.18032 0.8361 0.0
H402 H 0.64792 0.19003 0.87679 0.0
C403 C 0.65697 0.17421 0.8597 0.0
H404 H 0.68124 0.17584 0.86073 0.0
H405 H 0.62552 0.1727 0.75695 0.0
O406 O 0.57863 0.05071 0.87282 0.0
C407 C 0.56898 0.11785 0.80032 0.0
Co408 Co 0.91975 0.39726 0.66573 0.0
Co409 Co 0.87588 0.3611 0.70649 0.0
C410 C 0.94276 0.35774 0.71402 0.0
O411 O 0.94746 0.37518 0.69136 0.0
O412 O 0.91669 0.35071 0.7224 0.0
C413 C 0.92763 0.44432 0.62449 0.0
O414 O 0.89925 0.44688 0.62953 0.0
C415 C 0.84146 0.30725 0.71999 0.0
C416 C 0.81257 0.32279 0.75788 0.0
C417 C 0.81873 0.29859 0.73964 0.0
N418 N 0.84814 0.33542 0.72615 0.0
N419 N 0.83096 0.34442 0.74904 0.0
C420 C 0.85782 0.28861 0.69721 0.0
H421 H 0.86364 0.2673 0.70823 0.0
H422 H 0.87802 0.29998 0.68902 0.0
H423 H 0.84374 0.28378 0.67694 0.0
C424 C 0.8891 0.36844 0.6149 0.0
N425 N 0.89383 0.37196 0.64544 0.0
N426 N 0.87234 0.35979 0.6615 0.0
C427 C 0.85188 0.35019 0.64104 0.0
C428 C 0.86233 0.35478 0.61091 0.0
C429 C 0.90839 0.38057 0.58965 0.0
H430 H 0.90073 0.40292 0.58326 0.0
H431 H 0.93152 0.38164 0.59755 0.0
H432 H 0.90712 0.36671 0.56855 0.0
O433 O 0.8983 0.42593 0.69202 0.0
O434 O 0.86713 0.40113 0.72191 0.0
H435 H 0.81673 0.34503 0.67446 0.0
H436 H 0.80527 0.35331 0.63518 0.0
C437 C 0.82135 0.34097 0.64955 0.0
H438 H 0.81844 0.31736 0.64423 0.0
H439 H 0.83148 0.36553 0.75836 0.0
O440 O 0.9413 0.4226 0.63628 0.0
C441 C 0.87857 0.42522 0.713 0.0
Co442 Co 0.57616 0.88853 0.66023 0.0
Co443 Co 0.61919 0.84362 0.69071 0.0
C444 C 0.62623 0.90735 0.70233 0.0
O445 O 0.6043 0.91272 0.68475 0.0
O446 O 0.63525 0.88115 0.70718 0.0
C447 C 0.55626 0.93959 0.62543 0.0
O448 O 0.583 0.94997 0.62874 0.0
C449 C 0.6708 0.80645 0.70808 0.0
C450 C 0.64956 0.76284 0.70558 0.0
C451 C 0.67625 0.77652 0.71058 0.0
N452 N 0.64209 0.81015 0.70155 0.0
N453 N 0.62958 0.784 0.70054 0.0
C454 C 0.69277 0.83081 0.70928 0.0
H455 H 0.68489 0.85011 0.69583 0.0
H456 H 0.71435 0.82338 0.70011 0.0
H457 H 0.69574 0.83748 0.73384 0.0
C458 C 0.59837 0.86174 0.6027 0.0
N459 N 0.59643 0.86278 0.6339 0.0
N460 N 0.61603 0.84502 0.6462 0.0
C461 C 0.63179 0.83274 0.62291 0.0
C462 C 0.62087 0.84272 0.59462 0.0
C463 C 0.58157 0.88145 0.5812 0.0
H464 H 0.5904 0.90408 0.58293 0.0
H465 H 0.5834 0.87424 0.55668 0.0
H466 H 0.55808 0.88179 0.5881 0.0
O467 O 0.54978 0.86735 0.68884 0.0
O468 O 0.5806 0.83705 0.71246 0.0
H469 H 0.66887 0.80814 0.60511 0.0
H470 H 0.67425 0.82537 0.64251 0.0
C471 C 0.65825 0.81378 0.62757 0.0
H472 H 0.65164 0.79321 0.6396 0.0
H473 H 0.60746 0.78057 0.69534 0.0
O474 O 0.54996 0.91443 0.6364 0.0
C475 C 0.55492 0.8477 0.70915 0.0
Co476 Co 0.09783 0.58816 0.64887 0.0
Co477 Co 0.14103 0.63431 0.67624 0.0
C478 C 0.07724 0.63325 0.69497 0.0
O479 O 0.07205 0.6121 0.67649 0.0
O480 O 0.10296 0.64415 0.69737 0.0
C481 C 0.04719 0.56566 0.61714 0.0
O482 O 0.03615 0.59203 0.6212 0.0
C483 C 0.16846 0.68713 0.70336 0.0
C484 C 0.21497 0.68052 0.69025 0.0
C485 C 0.19633 0.69921 0.7062 0.0
N486 N 0.17059 0.66241 0.68651 0.0
N487 N 0.19846 0.65864 0.67876 0.0
C488 C 0.14015 0.69912 0.71573 0.0
H489 H 0.12296 0.69769 0.6976 0.0
H490 H 0.14251 0.72234 0.72301 0.0
H491 H 0.13296 0.68564 0.73595 0.0
C492 C 0.1203 0.61212 0.58953 0.0
N493 N 0.11935 0.61176 0.62081 0.0
N494 N 0.13695 0.63216 0.6317 0.0
C495 C 0.14916 0.64669 0.60727 0.0
C496 C 0.13909 0.63428 0.57984 0.0
C497 C 0.10349 0.59152 0.56925 0.0
H498 H 0.10675 0.56861 0.57746 0.0
H499 H 0.07975 0.59677 0.57096 0.0
H500 H 0.1103 0.59332 0.54452 0.0
O501 O 0.12392 0.56357 0.67487 0.0
O502 O 0.15438 0.59615 0.69515 0.0
H503 H 0.1926 0.66281 0.61425 0.0
H504 H 0.17097 0.68472 0.58798 0.0
C505 C 0.17029 0.67167 0.60985 0.0
H506 H 0.16394 0.68605 0.62949 0.0
H507 H 0.2063 0.64077 0.66608 0.0
O508 O 0.07306 0.56018 0.62644 0.0
C509 C 0.14533 0.56978 0.69255 0.0
Co510 Co 0.39423 0.07841 0.65381 0.0
Co511 Co 0.36177 0.12723 0.69135 0.0
C512 C 0.35206 0.06302 0.70504 0.0
O513 O 0.36969 0.05597 0.68328 0.0
O514 O 0.34642 0.08988 0.71127 0.0
C515 C 0.40844 0.0251 0.62032 0.0
O516 O 0.38293 0.01502 0.63 0.0
C517 C 0.3136 0.16753 0.71094 0.0
C518 C 0.33971 0.20753 0.71978 0.0
C519 C 0.31124 0.19697 0.71881 0.0
N520 N 0.3423 0.16118 0.70707 0.0
N521 N 0.35771 0.18512 0.71289 0.0
C522 C 0.2891 0.14669 0.70427 0.0
H523 H 0.29729 0.12759 0.69083 0.0
H524 H 0.27138 0.1581 0.69127 0.0
H525 H 0.27968 0.1387 0.7266 0.0
C526 C 0.36955 0.10982 0.60075 0.0
N527 N 0.37184 0.10553 0.63154 0.0
N528 N 0.35917 0.12729 0.64648 0.0
C529 C 0.34898 0.14672 0.62513 0.0
C530 C 0.3549 0.13602 0.5955 0.0
C531 C 0.38464 0.09106 0.57705 0.0
H532 H 0.40872 0.09183 0.58094 0.0
H533 H 0.37739 0.06796 0.58004 0.0
H534 H 0.37995 0.09835 0.55293 0.0
O535 O 0.42612 0.09848 0.67615 0.0
O536 O 0.40338 0.13164 0.70505 0.0
H537 H 0.35111 0.18815 0.64822 0.0
H538 H 0.33191 0.18922 0.61142 0.0
C539 C 0.33602 0.176 0.63273 0.0
H540 H 0.31492 0.17274 0.64523 0.0
H541 H 0.38052 0.18647 0.71091 0.0
O542 O 0.41557 0.05136 0.62643 0.0
C543 C 0.42676 0.11883 0.69619 0.0
H544 H 0.96216 0.53901 0.10932 0.0
H545 H 0.90551 0.46382 0.12215 0.0
H546 H 0.94778 0.43105 0.11705 0.0
H547 H 0.00109 0.42486 0.11951 0.0
H548 H 0.05786 0.50055 0.11153 0.0
H549 H 0.01512 0.53211 0.10354 0.0
C550 C 0.95897 0.51541 0.11045 0.0
C551 C 0.93097 0.5038 0.11704 0.0
C552 C 0.9834 0.49689 0.10873 0.0
C553 C 0.92695 0.47325 0.11755 0.0
C554 C 0.95112 0.45454 0.11482 0.0
C555 C 0.00418 0.44819 0.11546 0.0
C556 C 0.03247 0.46054 0.11706 0.0
C557 C 0.97954 0.46626 0.11209 0.0
C558 C 0.03624 0.49062 0.11093 0.0
C559 C 0.01182 0.50868 0.10652 0.0
H560 H 0.48216 0.06781 0.10069 0.0
H561 H 0.56425 0.02475 0.07961 0.0
H562 H 0.53952 0.97736 0.07783 0.0
H563 H 0.4974 0.94775 0.09492 0.0
H564 H 0.41563 0.9909 0.11758 0.0
H565 H 0.43723 0.03844 0.10548 0.0
C566 C 0.49441 0.04821 0.09458 0.0
C567 C 0.52504 0.04952 0.09145 0.0
C568 C 0.48024 0.02088 0.09461 0.0
C569 C 0.54065 0.02407 0.083 0.0
C570 C 0.52658 0.99693 0.08212 0.0
C571 C 0.48411 0.96747 0.09644 0.0
C572 C 0.45542 0.96591 0.10835 0.0
C573 C 0.4968 0.9949 0.09 0.0
C574 C 0.43815 0.99156 0.10935 0.0
C575 C 0.45045 0.01885 0.10245 0.0
H576 H 0.92594 0.5106 0.40512 0.0
H577 H 0.9735 0.42909 0.41501 0.0
H578 H 0.01977 0.45578 0.41785 0.0
H579 H 0.04684 0.5009 0.40575 0.0
H580 H -0.00073 0.58216 0.39338 0.0
H581 H 0.95306 0.55708 0.40397 0.0
C582 C 0.94633 0.49877 0.40887 0.0
C583 C 0.9465 0.46799 0.40881 0.0
C584 C 0.97297 0.51418 0.40948 0.0
C585 C 0.97299 0.45288 0.41416 0.0
C586 C -0.00052 0.46808 0.41571 0.0
C587 C 0.02645 0.51325 0.40618 0.0
C588 C 0.02633 0.54303 0.39769 0.0
C589 C -0.00017 0.49857 0.41147 0.0
C590 C -0.00016 0.55894 0.39899 0.0
C591 C 0.97335 0.54464 0.40502 0.0
H592 H 0.57004 0.99272 0.4037 0.0
H593 H 0.49136 0.93984 0.40834 0.0
H594 H 0.462 0.9839 0.41757 0.0
H595 H 0.45795 0.03723 0.41298 0.0
H596 H 0.53616 0.09003 0.40198 0.0
H597 H 0.56661 0.04613 0.40752 0.0
C598 C 0.54651 0.99072 0.40728 0.0
C599 C 0.53271 0.9632 0.40434 0.0
C600 C 0.52972 0.01617 0.41117 0.0
C601 C 0.5024 0.96084 0.40994 0.0
C602 C 0.48561 0.98604 0.41508 0.0
C603 C 0.4817 0.03927 0.41243 0.0
C604 C 0.49481 0.06668 0.40603 0.0
C605 C 0.4989 0.01385 0.41397 0.0
C606 C 0.52554 0.06911 0.40633 0.0
C607 C 0.54294 0.04398 0.40926 0.0
H608 H 0.03146 0.58462 0.8949 0.0
H609 H 0.95199 0.5428 0.92767 0.0
H610 H 0.97877 0.49732 0.93718 0.0
H611 H 0.02174 0.46698 0.92477 0.0
H612 H 0.10073 0.5086 0.89025 0.0
H613 H 0.07732 0.55651 0.89342 0.0
C614 C 0.02021 0.56587 0.90509 0.0
C615 C 0.98967 0.56671 0.90953 0.0
C616 C 0.03552 0.53947 0.90957 0.0
C617 C 0.97545 0.54242 0.92327 0.0
C618 C 0.99069 0.51633 0.92859 0.0
C619 C 0.03406 0.48659 0.91868 0.0
C620 C 0.06249 0.48411 0.90623 0.0
C621 C 0.02029 0.51412 0.91994 0.0
C622 C 0.07846 0.50979 0.89914 0.0
C623 C 0.06511 0.53728 0.90091 0.0
H624 H 0.48818 0.92941 0.90286 0.0
H625 H 0.43572 0.00744 0.91606 0.0
H626 H 0.48015 0.03743 0.91642 0.0
H627 H 0.5324 0.04219 0.90358 0.0
H628 H 0.58434 0.96442 0.88687 0.0
H629 H 0.54165 0.9336 0.89793 0.0
C630 C 0.48645 0.95292 0.90643 0.0
C631 C 0.45861 0.96626 0.90863 0.0
C632 C 0.51199 0.97011 0.90564 0.0
C633 C 0.45683 0.99665 0.91386 0.0
C634 C 0.48224 0.01384 0.91392 0.0
C635 C 0.53458 0.01847 0.90294 0.0
C636 C 0.56133 0.00564 0.89363 0.0
C637 C 0.50975 0.00094 0.90834 0.0
C638 C 0.56391 0.97489 0.89355 0.0
C639 C 0.53945 0.95724 0.89972 0.0
H640 H 0.98477 0.44472 0.60672 0.0
H641 H 0.90823 0.50028 0.61411 0.0
H642 H 0.93878 0.54379 0.60675 0.0
H643 H 0.98799 0.56592 0.60842 0.0
H644 H 0.06449 0.51 0.60322 0.0
H645 H 0.03318 0.46687 0.59903 0.0
C646 C 0.97469 0.46632 0.60603 0.0
C647 C 0.94446 0.46934 0.61178 0.0
C648 C 0.99245 0.49124 0.60262 0.0
C649 C 0.93156 0.49737 0.61013 0.0
C650 C 0.94904 0.52231 0.60613 0.0
C651 C 0.9978 0.54438 0.60562 0.0
C652 C 0.02846 0.54108 0.60705 0.0
C653 C 0.97966 0.51954 0.60394 0.0
C654 C 0.04089 0.51307 0.6029 0.0
C655 C 0.02301 0.48836 0.60054 0.0
H656 H 0.46427 0.03899 0.60354 0.0
H657 H 0.40521 0.96535 0.61416 0.0
H658 H 0.44671 0.9315 0.61101 0.0
H659 H 0.49976 0.9237 0.61515 0.0
H660 H 0.55886 0.99772 0.60899 0.0
H661 H 0.51725 0.03056 0.60012 0.0
C662 C 0.46034 0.01551 0.60454 0.0
C663 C 0.43175 0.00473 0.60993 0.0
C664 C 0.48437 0.99629 0.60401 0.0
C665 C 0.42702 0.97425 0.61048 0.0
C666 C 0.45078 0.95488 0.60888 0.0
C667 C 0.50363 0.94696 0.61136 0.0
C668 C 0.53229 0.95838 0.61353 0.0
C669 C 0.47959 0.96578 0.60727 0.0
C670 C 0.53698 0.98843 0.60789 0.0
C671 C 0.51318 0.00723 0.60292 0.0
H672 H 0.2405 0.27793 0.20343 0.0
H673 H 0.19526 0.29624 0.28932 0.0
H674 H 0.23133 0.26696 0.31814 0.0
H675 H 0.2711 0.23027 0.31726 0.0
H676 H 0.31719 0.21286 0.23166 0.0
H677 H 0.28577 0.24811 0.20411 0.0
C678 C 0.23915 0.27608 0.22856 0.0
C679 C 0.21547 0.28894 0.24442 0.0
C680 C 0.25988 0.25924 0.2448 0.0
C681 C 0.21359 0.2866 0.27688 0.0
C682 C 0.23402 0.2697 0.29324 0.0
C683 C 0.27464 0.23487 0.29274 0.0
C684 C 0.29605 0.2191 0.27626 0.0
C685 C 0.25657 0.25506 0.27725 0.0
C686 C 0.3008 0.22502 0.24463 0.0
C687 C 0.28274 0.24494 0.22891 0.0
H688 H 0.80713 0.2353 0.28865 0.0
H689 H 0.74646 0.30792 0.28292 0.0
H690 H 0.71342 0.27837 0.25091 0.0
H691 H 0.7023 0.23158 0.22413 0.0
H692 H 0.76334 0.15934 0.2321 0.0
H693 H 0.7957 0.18909 0.2639 0.0
C694 C 0.78662 0.24472 0.28053 0.0
C695 C 0.77951 0.27391 0.28766 0.0
C696 C 0.76775 0.22759 0.26268 0.0
C697 C 0.75287 0.28576 0.27696 0.0
C698 C 0.73383 0.26877 0.25895 0.0
C699 C 0.72242 0.22228 0.23334 0.0
C700 C 0.7303 0.19323 0.22611 0.0
C701 C 0.74109 0.23961 0.25163 0.0
C702 C 0.75684 0.18166 0.23737 0.0
C703 C 0.77534 0.19862 0.25557 0.0
H704 H 0.69808 0.76634 0.27977 0.0
H705 H 0.76229 0.83442 0.2631 0.0
H706 H 0.79336 0.79997 0.23504 0.0
H707 H 0.80291 0.75085 0.2163 0.0
H708 H 0.73968 0.68172 0.23183 0.0
H709 H 0.70765 0.71613 0.25963 0.0
C710 C 0.71865 0.77361 0.26952 0.0
C711 C 0.72782 0.80288 0.27316 0.0
C712 C 0.7367 0.75348 0.25368 0.0
C713 C 0.75483 0.81197 0.26053 0.0
C714 C 0.77261 0.79232 0.24452 0.0
C715 C 0.78207 0.74323 0.22566 0.0
C716 C 0.77388 0.7137 0.22238 0.0
C717 C 0.76386 0.76305 0.24118 0.0
C718 C 0.74687 0.70418 0.23475 0.0
C719 C 0.72841 0.72394 0.25034 0.0
H720 H 0.22201 0.7037 0.22255 0.0
H721 H 0.22371 0.70472 0.32269 0.0
H722 H 0.2663 0.73736 0.32162 0.0
H723 H 0.2967 0.77257 0.2921 0.0
H724 H 0.29329 0.77321 0.19199 0.0
H725 H 0.2583 0.73261 0.19292 0.0
C726 C 0.23242 0.71035 0.24404 0.0
C727 C 0.2201 0.70171 0.27261 0.0
C728 C 0.25642 0.72966 0.24319 0.0
C729 C 0.23335 0.71055 0.30044 0.0
C730 C 0.25742 0.72957 0.29981 0.0
C731 C 0.28899 0.76305 0.27055 0.0
C732 C 0.29773 0.77548 0.24205 0.0
C733 C 0.26829 0.74023 0.27134 0.0
C734 C 0.28748 0.76341 0.21417 0.0
C735 C 0.26709 0.7405 0.21472 0.0
H736 H 0.71858 0.78588 0.7544 0.0
H737 H 0.69578 0.73112 0.67664 0.0
H738 H 0.73677 0.69844 0.68816 0.0
H739 H 0.77453 0.68189 0.72405 0.0
H740 H 0.79624 0.73401 0.80405 0.0
H741 H 0.76088 0.77162 0.7877 0.0
C742 C 0.72318 0.76721 0.73961 0.0
C743 C 0.70424 0.76072 0.71482 0.0
C744 C 0.74642 0.74795 0.74693 0.0
C745 C 0.71002 0.73631 0.69598 0.0
C746 C 0.7334 0.71762 0.70256 0.0
C747 C 0.77187 0.70174 0.73763 0.0
C748 C 0.78787 0.70519 0.76518 0.0
C749 C 0.75102 0.72266 0.72859 0.0
C750 C 0.78446 0.73105 0.78249 0.0
C751 C 0.76398 0.75239 0.77332 0.0
H752 H 0.23607 0.74114 0.69127 0.0
H753 H 0.17958 0.71121 0.76566 0.0
H754 H 0.2012 0.74712 0.80075 0.0
H755 H 0.24012 0.78287 0.81182 0.0
H756 H 0.29747 0.81223 0.73799 0.0
H757 H 0.27137 0.78117 0.70098 0.0
C758 C 0.22818 0.74295 0.71502 0.0
C759 C 0.20611 0.72383 0.72582 0.0
C760 C 0.24096 0.76347 0.73515 0.0
C761 C 0.19608 0.72615 0.75663 0.0
C762 C 0.20866 0.74647 0.77679 0.0
C763 C 0.2464 0.78291 0.78745 0.0
C764 C 0.27044 0.79993 0.77752 0.0
C765 C 0.2316 0.76469 0.76651 0.0
C766 C 0.27862 0.79979 0.74601 0.0
C767 C 0.26393 0.78174 0.72494 0.0
H768 H 0.2636 0.18764 0.75652 0.0
H769 H 0.30087 0.24839 0.68999 0.0
H770 H 0.2642 0.28517 0.70373 0.0
H771 H 0.22782 0.30294 0.74091 0.0
H772 H 0.1918 0.24436 0.80999 0.0
H773 H 0.22106 0.20361 0.78886 0.0
C774 C 0.26298 0.20862 0.74447 0.0
C775 C 0.28492 0.21553 0.7225 0.0
C776 C 0.24228 0.2301 0.75324 0.0
C777 C 0.28427 0.24282 0.70718 0.0
C778 C 0.26338 0.26385 0.71506 0.0
C779 C 0.22572 0.28096 0.7506 0.0
C780 C 0.20787 0.2764 0.77678 0.0
C781 C 0.24319 0.25819 0.73898 0.0
C782 C 0.20529 0.2481 0.78954 0.0
C783 C 0.22225 0.22497 0.77767 0.0
H784 H 0.80121 0.26608 0.78897 0.0
H785 H 0.79449 0.27212 0.68921 0.0
H786 H 0.75729 0.23347 0.68932 0.0
H787 H 0.72237 0.20235 0.71852 0.0
H788 H 0.72875 0.19672 0.81834 0.0
H789 H 0.77048 0.23042 0.81757 0.0
C790 C 0.79204 0.25836 0.76724 0.0
C791 C 0.80079 0.2716 0.73911 0.0
C792 C 0.7704 0.23637 0.76756 0.0
C793 C 0.7887 0.26171 0.71107 0.0
C794 C 0.7671 0.23989 0.71117 0.0
C795 C 0.73336 0.20809 0.73999 0.0
C796 C 0.72274 0.1969 0.7684 0.0
C797 C 0.75721 0.22767 0.73935 0.0
C798 C 0.73697 0.20448 0.79613 0.0
C799 C 0.76062 0.22405 0.79573 0.0
H800 H 0.11339 0.32516 0.05246 0.0
H801 H 0.17829 0.38791 0.08159 0.0
H802 H 0.19477 0.39433 0.02767 0.0
H803 H 0.18565 0.38729 0.97163 0.0
H804 H 0.11919 0.32622 0.94242 0.0
H805 H 0.10869 0.31333 0.9967 0.0
C806 C 0.13166 0.3396 0.04692 0.0
C807 C 0.14477 0.35596 0.07073 0.0
C808 C 0.14053 0.34357 0.01581 0.0
C809 C 0.16817 0.37489 0.06354 0.0
C810 C 0.1774 0.37872 0.03272 0.0
C811 C 0.16954 0.37052 0.97729 0.0
C812 C 0.15328 0.35758 0.95327 0.0
C813 C 0.1631 0.36389 0.00857 0.0
C814 C 0.13218 0.33614 0.96062 0.0
C815 C 0.12597 0.32904 0.99164 0.0
H816 H 0.68601 0.12696 0.94139 0.0
H817 H 0.60405 0.1704 0.92198 0.0
H818 H 0.59768 0.18159 0.97722 0.0
H819 H 0.61076 0.16992 0.03147 0.0
H820 H 0.69205 0.12532 0.05112 0.0
H821 H 0.70391 0.12408 0.99549 0.0
C822 C 0.6675 0.14003 0.94924 0.0
C823 C 0.64561 0.14813 0.92794 0.0
C824 C 0.66368 0.14563 0.98112 0.0
C825 C 0.62131 0.16444 0.93812 0.0
C826 C 0.61752 0.17047 0.9697 0.0
C827 C 0.63153 0.16094 0.02349 0.0
C828 C 0.6505 0.1476 0.045 0.0
C829 C 0.63784 0.15989 0.99152 0.0
C830 C 0.67728 0.1358 0.03476 0.0
C831 C 0.68389 0.13487 1.00299 0.0
H832 H 0.83352 0.60335 0.94357 0.0
H833 H 0.86091 0.69352 0.94976 0.0
H834 H 0.85173 0.69295 0.00602 0.0
H835 H 0.845 0.66364 0.05429 0.0
H836 H 0.8219 0.57219 0.04759 0.0
H837 H 0.81974 0.57624 0.99092 0.0
C838 C 0.83621 0.62317 0.95717 0.0
C839 C 0.84743 0.64855 0.94276 0.0
C840 C 0.83217 0.62216 0.98955 0.0
C841 C 0.85173 0.67395 0.96046 0.0
C842 C 0.84687 0.67346 0.99265 0.0
C843 C 0.83853 0.64497 0.04033 0.0
C844 C 0.8336 0.61766 0.05482 0.0
C845 C 0.8384 0.64727 0.00763 0.0
C846 C 0.82569 0.5934 0.03673 0.0
C847 C 0.82464 0.59568 1.00437 0.0
H848 H 0.35508 0.8231 0.97491 0.0
H849 H 0.32074 0.91024 0.96084 0.0
H850 H 0.31071 0.91465 0.01661 0.0
H851 H 0.32057 0.89718 0.06974 0.0
H852 H 0.35755 0.81125 0.08434 0.0
H853 H 0.35684 0.80219 0.02819 0.0
C854 C 0.34448 0.84256 0.98411 0.0
C855 C 0.33848 0.8663 0.96414 0.0
C856 C 0.33942 0.8451 0.01629 0.0
C857 C 0.32523 0.8917 0.976 0.0
C858 C 0.31969 0.89424 0.00784 0.0
C859 C 0.32718 0.876 0.06059 0.0
C860 C 0.33897 0.85482 0.08085 0.0
C861 C 0.32781 0.87157 0.02831 0.0
C862 C 0.34806 0.82764 0.06902 0.0
C863 C 0.34807 0.8227 0.03692 0.0
H864 H 0.16383 0.62345 0.43765 0.0
H865 H 0.10347 0.69612 0.43493 0.0
H866 H 0.10619 0.70072 0.49165 0.0
H867 H 0.11891 0.67795 0.54236 0.0
H868 H 0.17717 0.60348 0.54457 0.0
H869 H 0.18263 0.60573 0.48795 0.0
C870 C 0.15235 0.64107 0.44948 0.0
C871 C 0.13386 0.65974 0.43235 0.0
C872 C 0.15327 0.6428 0.4821 0.0
C873 C 0.1183 0.68196 0.44776 0.0
C874 C 0.11956 0.68428 0.48019 0.0
C875 C 0.13354 0.66294 0.53038 0.0
C876 C 0.14778 0.64067 0.54734 0.0
C877 C 0.13596 0.66398 0.49771 0.0
C878 C 0.16628 0.62091 0.5318 0.0
C879 C 0.16921 0.62209 0.49947 0.0
H880 H 0.39353 0.18457 0.46666 0.0
H881 H 0.32371 0.1275 0.43717 0.0
H882 H 0.30758 0.12107 0.49117 0.0
H883 H 0.31952 0.12442 0.54696 0.0
H884 H 0.39001 0.18059 0.57651 0.0
H885 H 0.39949 0.19531 0.52251 0.0
C886 C 0.37417 0.17163 0.47214 0.0
C887 C 0.35979 0.15644 0.44829 0.0
C888 C 0.36543 0.16766 0.50326 0.0
C889 C 0.33489 0.13948 0.45533 0.0
C890 C 0.32588 0.13561 0.48618 0.0
C891 C 0.33612 0.14077 0.54151 0.0
C892 C 0.35402 0.15157 0.56536 0.0
C893 C 0.34179 0.14855 0.5104 0.0
C894 C 0.37583 0.17235 0.55835 0.0
C895 C 0.38143 0.18047 0.52749 0.0
H896 H 0.82791 0.39161 0.47739 0.0
H897 H 0.86513 0.30688 0.45728 0.0
H898 H 0.86625 0.2949 0.51293 0.0
H899 H 0.86467 0.31246 0.56723 0.0
H900 H 0.82769 0.39732 0.58711 0.0
H901 H 0.81752 0.40521 0.53184 0.0
C902 C 0.83535 0.37021 0.4853 0.0
C903 C 0.84652 0.35013 0.4636 0.0
C904 C 0.83601 0.36363 0.51727 0.0
C905 C 0.85633 0.32252 0.47378 0.0
C906 C 0.85712 0.31578 0.50555 0.0
C907 C 0.85313 0.33201 0.55948 0.0
C908 C 0.84656 0.35416 0.581 0.0
C909 C 0.84807 0.33662 0.52756 0.0
C910 C 0.83236 0.37981 0.57085 0.0
C911 C 0.82698 0.38448 0.53923 0.0
H912 H 0.67447 0.87553 0.46548 0.0
H913 H 0.60272 0.82157 0.43475 0.0
H914 H 0.59314 0.8057 0.48836 0.0
H915 H 0.60005 0.81416 0.54449 0.0
H916 H 0.67107 0.86902 0.57535 0.0
H917 H 0.68663 0.87727 0.52138 0.0
C918 C 0.65752 0.85944 0.47058 0.0
C919 C 0.63942 0.84945 0.44651 0.0
C920 C 0.65184 0.85096 0.5015 0.0
C921 C 0.61708 0.82911 0.45309 0.0
C922 C 0.61145 0.82032 0.48371 0.0
C923 C 0.61951 0.82705 0.53926 0.0
C924 C 0.63451 0.84096 0.56352 0.0
C925 C 0.62792 0.83204 0.50821 0.0
C926 C 0.65946 0.85796 0.55683 0.0
C927 C 0.66816 0.86286 0.52603 0.0
H928 H 0.12867 0.51598 0.316 0.0
H929 H 0.13154 0.57318 0.23581 0.0
H930 H 0.13463 0.53071 0.20149 0.0
H931 H 0.13049 0.47711 0.1941 0.0
H932 H 0.13213 0.41976 0.27411 0.0
H933 H 0.13371 0.46228 0.30866 0.0
C934 C 0.13066 0.51907 0.29106 0.0
C935 C 0.12963 0.54763 0.27844 0.0
C936 C 0.133 0.49451 0.27142 0.0
C937 C 0.13242 0.55142 0.2461 0.0
C938 C 0.13396 0.52713 0.22642 0.0
C939 C 0.13191 0.47401 0.21908 0.0
C940 C 0.13098 0.44545 0.23161 0.0
C941 C 0.1334 0.49855 0.23877 0.0
C942 C 0.13297 0.44159 0.26397 0.0
C943 C 0.13364 0.4659 0.28373 0.0
H944 H 0.51822 0.14303 0.18228 0.0
H945 H 0.58591 0.15104 0.25164 0.0
H946 H 0.54856 0.15641 0.29219 0.0
H947 H 0.49669 0.15245 0.30867 0.0
H948 H 0.42887 0.14727 0.23918 0.0
H949 H 0.46611 0.14764 0.19801 0.0
C950 C 0.52477 0.14658 0.20619 0.0
C951 C 0.55483 0.1463 0.21394 0.0
C952 C 0.50313 0.14993 0.22943 0.0
C953 C 0.56298 0.15122 0.24499 0.0
C954 C 0.5416 0.15407 0.26826 0.0
C955 C 0.49007 0.15207 0.28447 0.0
C956 C 0.46006 0.14952 0.27702 0.0
C957 C 0.51162 0.15253 0.26088 0.0
C958 C 0.45178 0.14931 0.24556 0.0
C959 C 0.47311 0.14928 0.22199 0.0
H960 H 0.8453 0.48037 0.32622 0.0
H961 H 0.83594 0.41369 0.25615 0.0
H962 H 0.83006 0.45152 0.21613 0.0
H963 H 0.83403 0.50359 0.20021 0.0
H964 H 0.83928 0.57053 0.27035 0.0
H965 H 0.83979 0.53279 0.31119 0.0
C966 C 0.8413 0.47419 0.30229 0.0
C967 C 0.84134 0.44426 0.29413 0.0
C968 C 0.83735 0.49614 0.27938 0.0
C969 C 0.8359 0.43654 0.26307 0.0
C970 C 0.83274 0.45819 0.24011 0.0
C971 C 0.8344 0.50987 0.2245 0.0
C972 C 0.83668 0.53976 0.2323 0.0
C973 C 0.8343 0.48805 0.24785 0.0
C974 C 0.8372 0.54768 0.26381 0.0
C975 C 0.83781 0.52607 0.28715 0.0
H976 H 0.52217 0.86455 0.32108 0.0
H977 H 0.58168 0.86527 0.2429 0.0
H978 H 0.54012 0.86257 0.20702 0.0
H979 H 0.48651 0.86623 0.19805 0.0
H980 H 0.42735 0.86182 0.27654 0.0
H981 H 0.46898 0.85928 0.31205 0.0
C982 C 0.526 0.86339 0.29619 0.0
C983 C 0.55485 0.86532 0.28459 0.0
C984 C 0.50203 0.86145 0.27575 0.0
C985 C 0.55963 0.86365 0.25235 0.0
C986 C 0.53586 0.86236 0.23183 0.0
C987 C 0.4828 0.86409 0.22289 0.0
C988 C 0.45389 0.86454 0.23464 0.0
C989 C 0.50691 0.86218 0.24325 0.0
C990 C 0.44936 0.86146 0.26686 0.0
C991 C 0.47318 0.86021 0.28724 0.0
H992 H 0.86472 0.55521 0.75851 0.0
H993 H 0.88067 0.51312 0.84687 0.0
H994 H 0.87725 0.46477 0.82245 0.0
H995 H 0.87533 0.4348 0.7749 0.0
H996 H 0.86638 0.47764 0.68585 0.0
H997 H 0.86108 0.52528 0.71137 0.0
C998 C 0.8668 0.5354 0.77248 0.0
C999 C 0.87273 0.53761 0.80443 0.0
C1000 C 0.86627 0.50783 0.75801 0.0
C1001 C 0.87604 0.51186 0.82222 0.0
C1002 C 0.87417 0.48427 0.80825 0.0
C1003 C 0.87153 0.45455 0.76126 0.0
C1004 C 0.8709 0.45287 0.72866 0.0
C1005 C 0.87007 0.482 0.77603 0.0
C1006 C 0.86674 0.47855 0.71102 0.0
C1007 C 0.86384 0.50575 0.72559 0.0
H1008 H 0.49593 0.84615 0.6994 0.0
H1009 H 0.56155 0.83426 0.77045 0.0
H1010 H 0.52329 0.83389 0.81049 0.0
H1011 H 0.47198 0.84415 0.82561 0.0
H1012 H 0.40603 0.85373 0.75455 0.0
H1013 H 0.44347 0.8473 0.71419 0.0
C1014 C 0.50174 0.8428 0.7236 0.0
C1015 C 0.53153 0.84062 0.73201 0.0
C1016 C 0.47959 0.84244 0.7465 0.0
C1017 C 0.53879 0.83595 0.76338 0.0
C1018 C 0.51692 0.83597 0.78632 0.0
C1019 C 0.46575 0.8441 0.80128 0.0
C1020 C 0.43638 0.84975 0.79303 0.0
C1021 C 0.48738 0.84026 0.77822 0.0
C1022 C 0.42848 0.84936 0.76148 0.0
C1023 C 0.44993 0.84593 0.73839 0.0
H1024 H 0.16908 0.48766 0.80707 0.0
H1025 H 0.14962 0.42098 0.73946 0.0
H1026 H 0.14924 0.45816 0.6981 0.0
H1027 H 0.14686 0.51059 0.68292 0.0
H1028 H 0.16827 0.5769 0.75042 0.0
H1029 H 0.17595 0.53894 0.7899 0.0
C1030 C 0.16558 0.48119 0.78312 0.0
C1031 C 0.15912 0.45169 0.77634 0.0
C1032 C 0.16538 0.5027 0.75951 0.0
C1033 C 0.1548 0.44352 0.74524 0.0
C1034 C 0.15427 0.46484 0.72163 0.0
C1035 C 0.15387 0.51666 0.70609 0.0
C1036 C 0.15656 0.54659 0.71382 0.0
C1037 C 0.15838 0.49465 0.72872 0.0
C1038 C 0.16601 0.55409 0.74382 0.0
C1039 C 0.17021 0.53237 0.76651 0.0
H1040 H 0.43735 0.12645 0.75747 0.0
H1041 H 0.47962 0.12544 0.66766 0.0
H1042 H 0.52781 0.12992 0.69227 0.0
H1043 H 0.55808 0.12823 0.7395 0.0
H1044 H 0.51597 0.12235 0.82924 0.0
H1045 H 0.46766 0.12678 0.80481 0.0
C1046 C 0.45713 0.12787 0.74338 0.0
C1047 C 0.4551 0.12584 0.71088 0.0
C1048 C 0.48479 0.12895 0.75778 0.0
C1049 C 0.4808 0.12703 0.69275 0.0
C1050 C 0.5083 0.1295 0.70681 0.0
C1051 C 0.53831 0.12862 0.75367 0.0
C1052 C 0.54046 0.12519 0.78606 0.0
C1053 C 0.51062 0.12965 0.73933 0.0
C1054 C 0.51474 0.12504 0.80423 0.0
C1055 C 0.48716 0.12747 0.79027 0.0
H1056 H 0.65208 0.00012 0.80532 0.0
H1057 H 0.6402 0.05937 0.72782 0.0
H1058 H 0.63853 0.01778 0.69213 0.0
H1059 H 0.63251 0.9644 0.68447 0.0
H1060 H 0.64666 0.90523 0.76163 0.0
H1061 H 0.65582 0.94688 0.79587 0.0
C1062 C 0.64999 0.00391 0.78049 0.0
C1063 C 0.64596 0.0327 0.76923 0.0
C1064 C 0.64906 0.97989 0.76013 0.0
C1065 C 0.64347 0.03741 0.73703 0.0
C1066 C 0.6422 0.01361 0.71665 0.0
C1067 C 0.63831 0.96066 0.70862 0.0
C1068 C 0.63849 0.93184 0.72064 0.0
C1069 C 0.64376 0.98472 0.72813 0.0
C1070 C 0.64637 0.9272 0.75184 0.0
C1071 C 0.65141 0.95103 0.77149 0.0
H1072 H 0.99296 0.65134 0.8095 0.0
H1073 H 0.92734 0.64006 0.73849 0.0
H1074 H 0.96561 0.6395 0.69849 0.0
H1075 H 0.01823 0.63591 0.68453 0.0
H1076 H 0.08368 0.6505 0.755 0.0
H1077 H 0.04511 0.65638 0.79422 0.0
C1078 C 0.98702 0.64948 0.78519 0.0
C1079 C 0.95734 0.6455 0.77704 0.0
C1080 C 0.00917 0.64942 0.76221 0.0
C1081 C 0.94996 0.64331 0.74542 0.0
C1082 C 0.97189 0.6427 0.72252 0.0
C1083 C 0.02398 0.64096 0.70836 0.0
C1084 C 0.05377 0.64243 0.71691 0.0
C1085 C 0.00163 0.64478 0.73075 0.0
C1086 C 0.06093 0.6493 0.7478 0.0
C1087 C 0.03887 0.65248 0.7703 0.0
H1088 H 0.35531 0.06051 0.76775 0.0
H1089 H 0.32787 0.01119 0.68781 0.0
H1090 H 0.32244 0.96697 0.71995 0.0
H1091 H 0.33288 0.94078 0.76895 0.0
H1092 H 0.36629 0.98911 0.84715 0.0
H1093 H 0.36181 0.03508 0.81795 0.0
C1094 C 0.34717 0.04029 0.7577 0.0
C1095 C 0.3416 0.03911 0.72562 0.0
C1096 C 0.34573 0.01457 0.776 0.0
C1097 C 0.33195 0.01261 0.71256 0.0
C1098 C 0.3291 0.98729 0.73088 0.0
C1099 C 0.33848 0.96147 0.7798 0.0
C1100 C 0.34995 0.96153 0.81014 0.0
C1101 C 0.33703 0.98773 0.76238 0.0
C1102 C 0.35754 0.98848 0.82377 0.0
C1103 C 0.35503 0.01478 0.80706 0.0
H1104 H 0.94957 0.3661 0.77567 0.0
H1105 H 0.99384 0.33316 0.69436 0.0
H1106 H 0.04022 0.33073 0.72294 0.0
H1107 H 0.0694 0.34493 0.76854 0.0
H1108 H 0.02595 0.38381 0.84753 0.0
H1109 H 0.97822 0.37683 0.82276 0.0
C1110 C 0.96921 0.35747 0.76464 0.0
C1111 C 0.96831 0.34936 0.73317 0.0
C1112 C 0.99611 0.35777 0.78072 0.0
C1113 C 0.99404 0.33912 0.71871 0.0
C1114 C 0.02058 0.338 0.73497 0.0
C1115 C 0.04942 0.35124 0.78061 0.0
C1116 C 0.05123 0.36492 0.80981 0.0
C1117 C 0.02211 0.34829 0.76563 0.0
C1118 C 0.02516 0.37336 0.82497 0.0
C1119 C 0.99785 0.36941 0.8108 0.0
H1120 H 0.36428 0.94332 0.27786 0.0
H1121 H 0.34214 0.98783 0.19249 0.0
H1122 H 0.34035 0.0349 0.21968 0.0
H1123 H 0.35259 0.06399 0.26577 0.0
H1124 H 0.38122 0.01995 0.34936 0.0
H1125 H 0.37278 0.97222 0.32521 0.0
C1126 C 0.35813 0.96326 0.26557 0.0
C1127 C 0.35296 0.96227 0.23343 0.0
C1128 C 0.35885 0.9904 0.281 0.0
C1129 C 0.34587 0.98822 0.21736 0.0
C1130 C 0.34509 0.0151 0.23284 0.0
C1131 C 0.35629 0.04393 0.27891 0.0
C1132 C 0.36756 0.04544 0.30925 0.0
C1133 C 0.35265 0.01659 0.26439 0.0
C1134 C 0.37268 0.01929 0.3259 0.0
C1135 C 0.3679 0.99201 0.31208 0.0
H1136 H 0.00328 0.34103 0.20454 0.0
H1137 H 0.06809 0.34521 0.27721 0.0
H1138 H 0.02922 0.3444 0.31662 0.0
H1139 H 0.97655 0.34988 0.32983 0.0
H1140 H 0.91183 0.3426 0.25732 0.0
H1141 H 0.95078 0.33687 0.21853 0.0
C1142 C 0.00887 0.34091 0.22904 0.0
C1143 C 0.03848 0.34341 0.23795 0.0
C1144 C 0.98638 0.34028 0.25159 0.0
C1145 C 0.04548 0.3431 0.26975 0.0
C1146 C 0.02322 0.34296 0.29231 0.0
C1147 C 0.97103 0.34635 0.30562 0.0
C1148 C 0.94139 0.34701 0.29639 0.0
C1149 C 0.99357 0.34267 0.28345 0.0
C1150 C 0.93447 0.34212 0.26502 0.0
C1151 C 0.95675 0.33904 0.24278 0.0
H1152 H 0.64621 0.94166 0.24625 0.0
H1153 H 0.65668 0.9966 0.32668 0.0
H1154 H 0.66071 0.04011 0.29321 0.0
H1155 H 0.65408 0.06307 0.24183 0.0
H1156 H 0.63676 0.00859 0.16231 0.0
H1157 H 0.64285 0.96442 0.19433 0.0
C1158 C 0.65027 0.96308 0.25628 0.0
C1159 C 0.65149 0.96601 0.28877 0.0
C1160 C 0.65087 0.98814 0.23699 0.0
C1161 C 0.65591 0.99391 0.30167 0.0
C1162 C 0.65801 0.01877 0.28256 0.0
C1163 C 0.65237 0.0415 0.2314 0.0
C1164 C 0.64507 0.03904 0.19977 0.0
C1165 C 0.65448 0.01627 0.25028 0.0
C1166 C 0.64235 0.01099 0.18664 0.0
C1167 C 0.64575 0.98575 0.20495 0.0
H1168 H 0.96797 0.63461 0.18083 0.0
H1169 H 0.90664 0.64278 0.25695 0.0
H1170 H 0.94718 0.65138 0.29291 0.0
H1171 H 0.00037 0.64928 0.30366 0.0
H1172 H 0.06168 0.64425 0.22723 0.0
H1173 H 0.02095 0.64231 0.19035 0.0
C1174 C 0.96352 0.63901 0.20517 0.0
C1175 C 0.93445 0.63774 0.21633 0.0
C1176 C 0.98694 0.64428 0.22566 0.0
C1177 C 0.92885 0.64372 0.24781 0.0
C1178 C 0.95203 0.64842 0.26843 0.0
C1179 C 0.00474 0.64859 0.27885 0.0
C1180 C 0.03391 0.64663 0.26815 0.0
C1181 C 0.98121 0.6477 0.25778 0.0
C1182 C 0.03939 0.64592 0.23599 0.0
C1183 C 0.0161 0.64452 0.21491 0.0
loop_
_geom_bond_atom_site_label_1
_geom_bond_atom_site_label_2
_geom_bond_distance
_geom_bond_site_symmetry_2
_ccdc_geom_bond_type
Co0 O3 1.970 . S
Co0 N17 1.989 . S
Co0 O25 1.967 . S
Co0 O32 1.920 . S
Co1 O4 1.966 . S
Co1 N10 2.022 . S
Co1 N18 1.993 . S
Co1 O26 1.941 . S
C2 O3 1.258 . S
C2 O4 1.263 . S
O3 Co0 1.970 . S
O3 C2 1.258 . S
O4 Co1 1.966 . S
O4 C2 1.263 . S
C5 O6 1.235 . S
C5 O32 1.289 . S
O6 C5 1.235 . S
C7 C9 1.400 . S
C7 N10 1.351 . S
C7 C12 1.501 . S
C8 C9 1.387 . S
C8 N11 1.341 . S
C9 C7 1.400 . S
C9 C8 1.387 . S
N10 Co1 2.022 . S
N10 C7 1.351 . S
N10 N11 1.365 . S
N11 C8 1.341 . S
N11 N10 1.365 . S
N11 H31 0.862 . S
C12 C7 1.501 . S
C12 H13 0.961 . S
C12 H14 0.961 . S
C12 H15 0.960 . S
H13 C12 0.961 . S
H14 C12 0.961 . S
H15 C12 0.960 . S
C16 N17 1.342 . S
C16 C20 1.401 . S
C16 C21 1.499 . S
N17 Co0 1.989 . S
N17 C16 1.342 . S
N17 N18 1.388 . S
N18 Co1 1.993 . S
N18 N17 1.388 . S
N18 C19 1.346 . S
C19 N18 1.346 . S
C19 C20 1.396 . S
C19 C29 1.510 . S
C20 C16 1.401 . S
C20 C19 1.396 . S
C21 C16 1.499 . S
C21 H22 0.959 . S
C21 H23 0.960 . S
C21 H24 0.961 . S
H22 C21 0.959 . S
H23 C21 0.960 . S
H24 C21 0.961 . S
O25 Co0 1.967 . S
O25 C33 1.258 . S
O26 Co1 1.941 . S
O26 C33 1.266 . S
H27 C29 0.959 . S
H28 C29 0.961 . S
C29 C19 1.510 . S
C29 H27 0.959 . S
C29 H28 0.961 . S
C29 H30 0.960 . S
H30 C29 0.960 . S
H31 N11 0.862 . S
O32 Co0 1.920 . S
O32 C5 1.289 . S
C33 O25 1.258 . S
C33 O26 1.266 . S
Co34 O37 1.970 . S
Co34 N51 1.989 . S
Co34 O59 1.967 . S
Co34 O66 1.920 . S
Co35 O38 1.966 . S
Co35 N44 2.022 . S
Co35 N52 1.993 . S
Co35 O60 1.941 . S
C36 O37 1.258 . S
C36 O38 1.263 . S
O37 Co34 1.970 . S
O37 C36 1.258 . S
O38 Co35 1.966 . S
O38 C36 1.263 . S
C39 O40 1.235 . S
C39 O66 1.289 . S
O40 C39 1.235 . S
C41 C43 1.400 . S
C41 N44 1.351 . S
C41 C46 1.501 . S
C42 C43 1.387 . S
C42 N45 1.341 . S
C43 C41 1.400 . S
C43 C42 1.387 . S
N44 Co35 2.022 . S
N44 C41 1.351 . S
N44 N45 1.365 . S
N45 C42 1.341 . S
N45 N44 1.365 . S
N45 H65 0.862 . S
C46 C41 1.501 . S
C46 H47 0.961 . S
C46 H48 0.961 . S
C46 H49 0.960 . S
H47 C46 0.961 . S
H48 C46 0.961 . S
H49 C46 0.960 . S
C50 N51 1.342 . S
C50 C54 1.401 . S
C50 C55 1.499 . S
N51 Co34 1.989 . S
N51 C50 1.342 . S
N51 N52 1.388 . S
N52 Co35 1.993 . S
N52 N51 1.388 . S
N52 C53 1.346 . S
C53 N52 1.346 . S
C53 C54 1.396 . S
C53 C63 1.510 . S
C54 C50 1.401 . S
C54 C53 1.396 . S
C55 C50 1.499 . S
C55 H56 0.959 . S
C55 H57 0.960 . S
C55 H58 0.961 . S
H56 C55 0.959 . S
H57 C55 0.960 . S
H58 C55 0.961 . S
O59 Co34 1.967 . S
O59 C67 1.258 . S
O60 Co35 1.941 . S
O60 C67 1.266 . S
H61 C63 0.959 . S
H62 C63 0.961 . S
C63 C53 1.510 . S
C63 H61 0.959 . S
C63 H62 0.961 . S
C63 H64 0.960 . S
H64 C63 0.960 . S
H65 N45 0.862 . S
O66 Co34 1.920 . S
O66 C39 1.289 . S
C67 O59 1.258 . S
C67 O60 1.266 . S
Co68 O71 1.970 . S
Co68 N85 1.989 . S
Co68 O93 1.967 . S
Co68 O100 1.920 . S
Co69 O72 1.966 . S
Co69 N78 2.022 . S
Co69 N86 1.993 . S
Co69 O94 1.941 . S
C70 O71 1.258 . S
C70 O72 1.263 . S
O71 Co68 1.970 . S
O71 C70 1.258 . S
O72 Co69 1.966 . S
O72 C70 1.263 . S
C73 O74 1.235 . S
C73 O100 1.289 . S
O74 C73 1.235 . S
C75 C77 1.400 . S
C75 N78 1.351 . S
C75 C80 1.501 . S
C76 C77 1.387 . S
C76 N79 1.341 . S
C77 C75 1.400 . S
C77 C76 1.387 . S
N78 Co69 2.022 . S
N78 C75 1.351 . S
N78 N79 1.365 . S
N79 C76 1.341 . S
N79 N78 1.365 . S
N79 H99 0.862 . S
C80 C75 1.501 . S
C80 H81 0.961 . S
C80 H82 0.961 . S
C80 H83 0.960 . S
H81 C80 0.961 . S
H82 C80 0.961 . S
H83 C80 0.960 . S
C84 N85 1.342 . S
C84 C88 1.401 . S
C84 C89 1.499 . S
N85 Co68 1.989 . S
N85 C84 1.342 . S
N85 N86 1.388 . S
N86 Co69 1.993 . S
N86 N85 1.388 . S
N86 C87 1.346 . S
C87 N86 1.346 . S
C87 C88 1.396 . S
C87 C97 1.510 . S
C88 C84 1.401 . S
C88 C87 1.396 . S
C89 C84 1.499 . S
C89 H90 0.959 . S
C89 H91 0.960 . S
C89 H92 0.961 . S
H90 C89 0.959 . S
H91 C89 0.960 . S
H92 C89 0.961 . S
O93 Co68 1.967 . S
O93 C101 1.258 . S
O94 Co69 1.941 . S
O94 C101 1.266 . S
H95 C97 0.959 . S
H96 C97 0.961 . S
C97 C87 1.510 . S
C97 H95 0.959 . S
C97 H96 0.961 . S
C97 H98 0.960 . S
H98 C97 0.960 . S
H99 N79 0.862 . S
O100 Co68 1.920 . S
O100 C73 1.289 . S
C101 O93 1.258 . S
C101 O94 1.266 . S
Co102 O105 1.970 . S
Co102 N119 1.989 . S
Co102 O127 1.967 . S
Co102 O134 1.920 . S
Co103 O106 1.966 . S
Co103 N112 2.022 . S
Co103 N120 1.993 . S
Co103 O128 1.941 . S
C104 O105 1.258 . S
C104 O106 1.263 . S
O105 Co102 1.970 . S
O105 C104 1.258 . S
O106 Co103 1.966 . S
O106 C104 1.263 . S
C107 O108 1.235 . S
C107 O134 1.289 . S
O108 C107 1.235 . S
C109 C111 1.400 . S
C109 N112 1.351 . S
C109 C114 1.501 . S
C110 C111 1.387 . S
C110 N113 1.341 . S
C111 C109 1.400 . S
C111 C110 1.387 . S
N112 Co103 2.022 . S
N112 C109 1.351 . S
N112 N113 1.365 . S
N113 C110 1.341 . S
N113 N112 1.365 . S
N113 H133 0.862 . S
C114 C109 1.501 . S
C114 H115 0.961 . S
C114 H116 0.961 . S
C114 H117 0.960 . S
H115 C114 0.961 . S
H116 C114 0.961 . S
H117 C114 0.960 . S
C118 N119 1.342 . S
C118 C122 1.401 . S
C118 C123 1.499 . S
N119 Co102 1.989 . S
N119 C118 1.342 . S
N119 N120 1.388 . S
N120 Co103 1.993 . S
N120 N119 1.388 . S
N120 C121 1.346 . S
C121 N120 1.346 . S
C121 C122 1.396 . S
C121 C131 1.510 . S
C122 C118 1.401 . S
C122 C121 1.396 . S
C123 C118 1.499 . S
C123 H124 0.959 . S
C123 H125 0.960 . S
C123 H126 0.961 . S
H124 C123 0.959 . S
H125 C123 0.960 . S
H126 C123 0.961 . S
O127 Co102 1.967 . S
O127 C135 1.258 . S
O128 Co103 1.941 . S
O128 C135 1.266 . S
H129 C131 0.959 . S
H130 C131 0.961 . S
C131 C121 1.510 . S
C131 H129 0.959 . S
C131 H130 0.961 . S
C131 H132 0.960 . S
H132 C131 0.960 . S
H133 N113 0.862 . S
O134 Co102 1.920 . S
O134 C107 1.289 . S
C135 O127 1.258 . S
C135 O128 1.266 . S
Co136 O139 1.970 . S
Co136 N153 1.989 . S
Co136 O161 1.967 . S
Co136 O168 1.920 . S
Co137 O140 1.966 . S
Co137 N146 2.022 . S
Co137 N154 1.993 . S
Co137 O162 1.941 . S
C138 O139 1.258 . S
C138 O140 1.263 . S
O139 Co136 1.970 . S
O139 C138 1.258 . S
O140 Co137 1.966 . S
O140 C138 1.263 . S
C141 O142 1.235 . S
C141 O168 1.289 . S
O142 C141 1.235 . S
C143 C145 1.400 . S
C143 N146 1.351 . S
C143 C148 1.501 . S
C144 C145 1.387 . S
C144 N147 1.341 . S
C145 C143 1.400 . S
C145 C144 1.387 . S
N146 Co137 2.022 . S
N146 C143 1.351 . S
N146 N147 1.365 . S
N147 C144 1.341 . S
N147 N146 1.365 . S
N147 H167 0.862 . S
C148 C143 1.501 . S
C148 H149 0.961 . S
C148 H150 0.961 . S
C148 H151 0.960 . S
H149 C148 0.961 . S
H150 C148 0.961 . S
H151 C148 0.960 . S
C152 N153 1.342 . S
C152 C156 1.401 . S
C152 C157 1.499 . S
N153 Co136 1.989 . S
N153 C152 1.342 . S
N153 N154 1.388 . S
N154 Co137 1.993 . S
N154 N153 1.388 . S
N154 C155 1.346 . S
C155 N154 1.346 . S
C155 C156 1.396 . S
C155 C165 1.510 . S
C156 C152 1.401 . S
C156 C155 1.396 . S
C157 C152 1.499 . S
C157 H158 0.959 . S
C157 H159 0.960 . S
C157 H160 0.961 . S
H158 C157 0.959 . S
H159 C157 0.960 . S
H160 C157 0.961 . S
O161 Co136 1.967 . S
O161 C169 1.258 . S
O162 Co137 1.941 . S
O162 C169 1.266 . S
H163 C165 0.959 . S
H164 C165 0.961 . S
C165 C155 1.510 . S
C165 H163 0.959 . S
C165 H164 0.961 . S
C165 H166 0.960 . S
H166 C165 0.960 . S
H167 N147 0.862 . S
O168 Co136 1.920 . S
O168 C141 1.289 . S
C169 O161 1.258 . S
C169 O162 1.266 . S
Co170 O173 1.970 . S
Co170 N187 1.989 . S
Co170 O195 1.967 . S
Co170 O202 1.920 . S
Co171 O174 1.966 . S
Co171 N180 2.022 . S
Co171 N188 1.993 . S
Co171 O196 1.941 . S
C172 O173 1.258 . S
C172 O174 1.263 . S
O173 Co170 1.970 . S
O173 C172 1.258 . S
O174 Co171 1.966 . S
O174 C172 1.263 . S
C175 O176 1.235 . S
C175 O202 1.289 . S
O176 C175 1.235 . S
C177 C179 1.400 . S
C177 N180 1.351 . S
C177 C182 1.501 . S
C178 C179 1.387 . S
C178 N181 1.341 . S
C179 C177 1.400 . S
C179 C178 1.387 . S
N180 Co171 2.022 . S
N180 C177 1.351 . S
N180 N181 1.365 . S
N181 C178 1.341 . S
N181 N180 1.365 . S
N181 H201 0.862 . S
C182 C177 1.501 . S
C182 H183 0.961 . S
C182 H184 0.961 . S
C182 H185 0.960 . S
H183 C182 0.961 . S
H184 C182 0.961 . S
H185 C182 0.960 . S
C186 N187 1.342 . S
C186 C190 1.401 . S
C186 C191 1.499 . S
N187 Co170 1.989 . S
N187 C186 1.342 . S
N187 N188 1.388 . S
N188 Co171 1.993 . S
N188 N187 1.388 . S
N188 C189 1.346 . S
C189 N188 1.346 . S
C189 C190 1.396 . S
C189 C199 1.510 . S
C190 C186 1.401 . S
C190 C189 1.396 . S
C191 C186 1.499 . S
C191 H192 0.959 . S
C191 H193 0.960 . S
C191 H194 0.961 . S
H192 C191 0.959 . S
H193 C191 0.960 . S
H194 C191 0.961 . S
O195 Co170 1.967 . S
O195 C203 1.258 . S
O196 Co171 1.941 . S
O196 C203 1.266 . S
H197 C199 0.959 . S
H198 C199 0.961 . S
C199 C189 1.510 . S
C199 H197 0.959 . S
C199 H198 0.961 . S
C199 H200 0.960 . S
H200 C199 0.960 . S
H201 N181 0.862 . S
O202 Co170 1.920 . S
O202 C175 1.289 . S
C203 O195 1.258 . S
C203 O196 1.266 . S
Co204 O207 1.970 . S
Co204 N221 1.989 . S
Co204 O229 1.967 . S
Co204 O236 1.920 . S
Co205 O208 1.966 . S
Co205 N214 2.022 . S
Co205 N222 1.993 . S
Co205 O230 1.941 . S
C206 O207 1.258 . S
C206 O208 1.263 . S
O207 Co204 1.970 . S
O207 C206 1.258 . S
O208 Co205 1.966 . S
O208 C206 1.263 . S
C209 O210 1.235 . S
C209 O236 1.289 . S
O210 C209 1.235 . S
C211 C213 1.400 . S
C211 N214 1.351 . S
C211 C216 1.501 . S
C212 C213 1.387 . S
C212 N215 1.341 . S
C213 C211 1.400 . S
C213 C212 1.387 . S
N214 Co205 2.022 . S
N214 C211 1.351 . S
N214 N215 1.365 . S
N215 C212 1.341 . S
N215 N214 1.365 . S
N215 H235 0.862 . S
C216 C211 1.501 . S
C216 H217 0.961 . S
C216 H218 0.961 . S
C216 H219 0.960 . S
H217 C216 0.961 . S
H218 C216 0.961 . S
H219 C216 0.960 . S
C220 N221 1.342 . S
C220 C224 1.401 . S
C220 C225 1.499 . S
N221 Co204 1.989 . S
N221 C220 1.342 . S
N221 N222 1.388 . S
N222 Co205 1.993 . S
N222 N221 1.388 . S
N222 C223 1.346 . S
C223 N222 1.346 . S
C223 C224 1.396 . S
C223 C233 1.510 . S
C224 C220 1.401 . S
C224 C223 1.396 . S
C225 C220 1.499 . S
C225 H226 0.959 . S
C225 H227 0.960 . S
C225 H228 0.961 . S
H226 C225 0.959 . S
H227 C225 0.960 . S
H228 C225 0.961 . S
O229 Co204 1.967 . S
O229 C237 1.258 . S
O230 Co205 1.941 . S
O230 C237 1.266 . S
H231 C233 0.959 . S
H232 C233 0.961 . S
C233 C223 1.510 . S
C233 H231 0.959 . S
C233 H232 0.961 . S
C233 H234 0.960 . S
H234 C233 0.960 . S
H235 N215 0.862 . S
O236 Co204 1.920 . S
O236 C209 1.289 . S
C237 O229 1.258 . S
C237 O230 1.266 . S
Co238 O241 1.970 . S
Co238 N255 1.989 . S
Co238 O263 1.967 . S
Co238 O270 1.920 . S
Co239 O242 1.966 . S
Co239 N248 2.022 . S
Co239 N256 1.993 . S
Co239 O264 1.941 . S
C240 O241 1.258 . S
C240 O242 1.263 . S
O241 Co238 1.970 . S
O241 C240 1.258 . S
O242 Co239 1.966 . S
O242 C240 1.263 . S
C243 O244 1.235 . S
C243 O270 1.289 . S
O244 C243 1.235 . S
C245 C247 1.400 . S
C245 N248 1.351 . S
C245 C250 1.501 . S
C246 C247 1.387 . S
C246 N249 1.341 . S
C247 C245 1.400 . S
C247 C246 1.387 . S
N248 Co239 2.022 . S
N248 C245 1.351 . S
N248 N249 1.365 . S
N249 C246 1.341 . S
N249 N248 1.365 . S
N249 H269 0.862 . S
C250 C245 1.501 . S
C250 H251 0.961 . S
C250 H252 0.961 . S
C250 H253 0.960 . S
H251 C250 0.961 . S
H252 C250 0.961 . S
H253 C250 0.960 . S
C254 N255 1.342 . S
C254 C258 1.401 . S
C254 C259 1.499 . S
N255 Co238 1.989 . S
N255 C254 1.342 . S
N255 N256 1.388 . S
N256 Co239 1.993 . S
N256 N255 1.388 . S
N256 C257 1.346 . S
C257 N256 1.346 . S
C257 C258 1.396 . S
C257 C267 1.510 . S
C258 C254 1.401 . S
C258 C257 1.396 . S
C259 C254 1.499 . S
C259 H260 0.959 . S
C259 H261 0.960 . S
C259 H262 0.961 . S
H260 C259 0.959 . S
H261 C259 0.960 . S
H262 C259 0.961 . S
O263 Co238 1.967 . S
O263 C271 1.258 . S
O264 Co239 1.941 . S
O264 C271 1.266 . S
H265 C267 0.959 . S
H266 C267 0.961 . S
C267 C257 1.510 . S
C267 H265 0.959 . S
C267 H266 0.961 . S
C267 H268 0.960 . S
H268 C267 0.960 . S
H269 N249 0.862 . S
O270 Co238 1.920 . S
O270 C243 1.289 . S
C271 O263 1.258 . S
C271 O264 1.266 . S
Co272 O275 1.970 . S
Co272 N289 1.989 . S
Co272 O297 1.967 . S
Co272 O304 1.920 . S
Co273 O276 1.966 . S
Co273 N282 2.022 . S
Co273 N290 1.993 . S
Co273 O298 1.941 . S
C274 O275 1.258 . S
C274 O276 1.263 . S
O275 Co272 1.970 . S
O275 C274 1.258 . S
O276 Co273 1.966 . S
O276 C274 1.263 . S
C277 O278 1.235 . S
C277 O304 1.289 . S
O278 C277 1.235 . S
C279 C281 1.400 . S
C279 N282 1.351 . S
C279 C284 1.501 . S
C280 C281 1.387 . S
C280 N283 1.341 . S
C281 C279 1.400 . S
C281 C280 1.387 . S
N282 Co273 2.022 . S
N282 C279 1.351 . S
N282 N283 1.365 . S
N283 C280 1.341 . S
N283 N282 1.365 . S
N283 H303 0.862 . S
C284 C279 1.501 . S
C284 H285 0.961 . S
C284 H286 0.961 . S
C284 H287 0.960 . S
H285 C284 0.961 . S
H286 C284 0.961 . S
H287 C284 0.960 . S
C288 N289 1.342 . S
C288 C292 1.401 . S
C288 C293 1.499 . S
N289 Co272 1.989 . S
N289 C288 1.342 . S
N289 N290 1.388 . S
N290 Co273 1.993 . S
N290 N289 1.388 . S
N290 C291 1.346 . S
C291 N290 1.346 . S
C291 C292 1.396 . S
C291 C301 1.510 . S
C292 C288 1.401 . S
C292 C291 1.396 . S
C293 C288 1.499 . S
C293 H294 0.959 . S
C293 H295 0.960 . S
C293 H296 0.961 . S
H294 C293 0.959 . S
H295 C293 0.960 . S
H296 C293 0.961 . S
O297 Co272 1.967 . S
O297 C305 1.258 . S
O298 Co273 1.941 . S
O298 C305 1.266 . S
H299 C301 0.959 . S
H300 C301 0.961 . S
C301 C291 1.510 . S
C301 H299 0.959 . S
C301 H300 0.961 . S
C301 H302 0.960 . S
H302 C301 0.960 . S
H303 N283 0.862 . S
O304 Co272 1.920 . S
O304 C277 1.289 . S
C305 O297 1.258 . S
C305 O298 1.266 . S
Co306 O309 1.970 . S
Co306 N323 1.989 . S
Co306 O331 1.967 . S
Co306 O338 1.920 . S
Co307 O310 1.966 . S
Co307 N316 2.022 . S
Co307 N324 1.993 . S
Co307 O332 1.941 . S
C308 O309 1.258 . S
C308 O310 1.263 . S
O309 Co306 1.970 . S
O309 C308 1.258 . S
O310 Co307 1.966 . S
O310 C308 1.263 . S
C311 O312 1.235 . S
C311 O338 1.289 . S
O312 C311 1.235 . S
C313 C315 1.400 . S
C313 N316 1.351 . S
C313 C318 1.501 . S
C314 C315 1.387 . S
C314 N317 1.341 . S
C315 C313 1.400 . S
C315 C314 1.387 . S
N316 Co307 2.022 . S
N316 C313 1.351 . S
N316 N317 1.365 . S
N317 C314 1.341 . S
N317 N316 1.365 . S
N317 H337 0.862 . S
C318 C313 1.501 . S
C318 H319 0.961 . S
C318 H320 0.961 . S
C318 H321 0.960 . S
H319 C318 0.961 . S
H320 C318 0.961 . S
H321 C318 0.960 . S
C322 N323 1.342 . S
C322 C326 1.401 . S
C322 C327 1.499 . S
N323 Co306 1.989 . S
N323 C322 1.342 . S
N323 N324 1.388 . S
N324 Co307 1.993 . S
N324 N323 1.388 . S
N324 C325 1.346 . S
C325 N324 1.346 . S
C325 C326 1.396 . S
C325 C335 1.510 . S
C326 C322 1.401 . S
C326 C325 1.396 . S
C327 C322 1.499 . S
C327 H328 0.959 . S
C327 H329 0.960 . S
C327 H330 0.961 . S
H328 C327 0.959 . S
H329 C327 0.960 . S
H330 C327 0.961 . S
O331 Co306 1.967 . S
O331 C339 1.258 . S
O332 Co307 1.941 . S
O332 C339 1.266 . S
H333 C335 0.959 . S
H334 C335 0.961 . S
C335 C325 1.510 . S
C335 H333 0.959 . S
C335 H334 0.961 . S
C335 H336 0.960 . S
H336 C335 0.960 . S
H337 N317 0.862 . S
O338 Co306 1.920 . S
O338 C311 1.289 . S
C339 O331 1.258 . S
C339 O332 1.266 . S
Co340 O343 1.970 . S
Co340 N357 1.989 . S
Co340 O365 1.967 . S
Co340 O372 1.920 . S
Co341 O344 1.966 . S
Co341 N350 2.022 . S
Co341 N358 1.993 . S
Co341 O366 1.941 . S
C342 O343 1.258 . S
C342 O344 1.263 . S
O343 Co340 1.970 . S
O343 C342 1.258 . S
O344 Co341 1.966 . S
O344 C342 1.263 . S
C345 O346 1.235 . S
C345 O372 1.289 . S
O346 C345 1.235 . S
C347 C349 1.400 . S
C347 N350 1.351 . S
C347 C352 1.501 . S
C348 C349 1.387 . S
C348 N351 1.341 . S
C349 C347 1.400 . S
C349 C348 1.387 . S
N350 Co341 2.022 . S
N350 C347 1.351 . S
N350 N351 1.365 . S
N351 C348 1.341 . S
N351 N350 1.365 . S
N351 H371 0.862 . S
C352 C347 1.501 . S
C352 H353 0.961 . S
C352 H354 0.961 . S
C352 H355 0.960 . S
H353 C352 0.961 . S
H354 C352 0.961 . S
H355 C352 0.960 . S
C356 N357 1.342 . S
C356 C360 1.401 . S
C356 C361 1.499 . S
N357 Co340 1.989 . S
N357 C356 1.342 . S
N357 N358 1.388 . S
N358 Co341 1.993 . S
N358 N357 1.388 . S
N358 C359 1.346 . S
C359 N358 1.346 . S
C359 C360 1.396 . S
C359 C369 1.510 . S
C360 C356 1.401 . S
C360 C359 1.396 . S
C361 C356 1.499 . S
C361 H362 0.959 . S
C361 H363 0.960 . S
C361 H364 0.961 . S
H362 C361 0.959 . S
H363 C361 0.960 . S
H364 C361 0.961 . S
O365 Co340 1.967 . S
O365 C373 1.258 . S
O366 Co341 1.941 . S
O366 C373 1.266 . S
H367 C369 0.959 . S
H368 C369 0.961 . S
C369 C359 1.510 . S
C369 H367 0.959 . S
C369 H368 0.961 . S
C369 H370 0.960 . S
H370 C369 0.960 . S
H371 N351 0.862 . S
O372 Co340 1.920 . S
O372 C345 1.289 . S
C373 O365 1.258 . S
C373 O366 1.266 . S
Co374 O377 1.970 . S
Co374 N391 1.989 . S
Co374 O399 1.967 . S
Co374 O406 1.920 . S
Co375 O378 1.966 . S
Co375 N384 2.022 . S
Co375 N392 1.993 . S
Co375 O400 1.941 . S
C376 O377 1.258 . S
C376 O378 1.263 . S
O377 Co374 1.970 . S
O377 C376 1.258 . S
O378 Co375 1.966 . S
O378 C376 1.263 . S
C379 O380 1.235 . S
C379 O406 1.289 . S
O380 C379 1.235 . S
C381 C383 1.400 . S
C381 N384 1.351 . S
C381 C386 1.501 . S
C382 C383 1.387 . S
C382 N385 1.341 . S
C383 C381 1.400 . S
C383 C382 1.387 . S
N384 Co375 2.022 . S
N384 C381 1.351 . S
N384 N385 1.365 . S
N385 C382 1.341 . S
N385 N384 1.365 . S
N385 H405 0.862 . S
C386 C381 1.501 . S
C386 H387 0.961 . S
C386 H388 0.961 . S
C386 H389 0.960 . S
H387 C386 0.961 . S
H388 C386 0.961 . S
H389 C386 0.960 . S
C390 N391 1.342 . S
C390 C394 1.401 . S
C390 C395 1.499 . S
N391 Co374 1.989 . S
N391 C390 1.342 . S
N391 N392 1.388 . S
N392 Co375 1.993 . S
N392 N391 1.388 . S
N392 C393 1.346 . S
C393 N392 1.346 . S
C393 C394 1.396 . S
C393 C403 1.510 . S
C394 C390 1.401 . S
C394 C393 1.396 . S
C395 C390 1.499 . S
C395 H396 0.959 . S
C395 H397 0.960 . S
C395 H398 0.961 . S
H396 C395 0.959 . S
H397 C395 0.960 . S
H398 C395 0.961 . S
O399 Co374 1.967 . S
O399 C407 1.258 . S
O400 Co375 1.941 . S
O400 C407 1.266 . S
H401 C403 0.959 . S
H402 C403 0.961 . S
C403 C393 1.510 . S
C403 H401 0.959 . S
C403 H402 0.961 . S
C403 H404 0.960 . S
H404 C403 0.960 . S
H405 N385 0.862 . S
O406 Co374 1.920 . S
O406 C379 1.289 . S
C407 O399 1.258 . S
C407 O400 1.266 . S
Co408 O411 1.970 . S
Co408 N425 1.989 . S
Co408 O433 1.967 . S
Co408 O440 1.920 . S
Co409 O412 1.966 . S
Co409 N418 2.022 . S
Co409 N426 1.993 . S
Co409 O434 1.941 . S
C410 O411 1.258 . S
C410 O412 1.263 . S
O411 Co408 1.970 . S
O411 C410 1.258 . S
O412 Co409 1.966 . S
O412 C410 1.263 . S
C413 O414 1.235 . S
C413 O440 1.289 . S
O414 C413 1.235 . S
C415 C417 1.400 . S
C415 N418 1.351 . S
C415 C420 1.501 . S
C416 C417 1.387 . S
C416 N419 1.341 . S
C417 C415 1.400 . S
C417 C416 1.387 . S
N418 Co409 2.022 . S
N418 C415 1.351 . S
N418 N419 1.365 . S
N419 C416 1.341 . S
N419 N418 1.365 . S
N419 H439 0.862 . S
C420 C415 1.501 . S
C420 H421 0.961 . S
C420 H422 0.961 . S
C420 H423 0.960 . S
H421 C420 0.961 . S
H422 C420 0.961 . S
H423 C420 0.960 . S
C424 N425 1.342 . S
C424 C428 1.401 . S
C424 C429 1.499 . S
N425 Co408 1.989 . S
N425 C424 1.342 . S
N425 N426 1.388 . S
N426 Co409 1.993 . S
N426 N425 1.388 . S
N426 C427 1.346 . S
C427 N426 1.346 . S
C427 C428 1.396 . S
C427 C437 1.510 . S
C428 C424 1.401 . S
C428 C427 1.396 . S
C429 C424 1.499 . S
C429 H430 0.959 . S
C429 H431 0.960 . S
C429 H432 0.961 . S
H430 C429 0.959 . S
H431 C429 0.960 . S
H432 C429 0.961 . S
O433 Co408 1.967 . S
O433 C441 1.258 . S
O434 Co409 1.941 . S
O434 C441 1.266 . S
H435 C437 0.959 . S
H436 C437 0.961 . S
C437 C427 1.510 . S
C437 H435 0.959 . S
C437 H436 0.961 . S
C437 H438 0.960 . S
H438 C437 0.960 . S
H439 N419 0.862 . S
O440 Co408 1.920 . S
O440 C413 1.289 . S
C441 O433 1.258 . S
C441 O434 1.266 . S
Co442 O445 1.970 . S
Co442 N459 1.989 . S
Co442 O467 1.967 . S
Co442 O474 1.920 . S
Co443 O446 1.966 . S
Co443 N452 2.022 . S
Co443 N460 1.993 . S
Co443 O468 1.941 . S
C444 O445 1.258 . S
C444 O446 1.263 . S
O445 Co442 1.970 . S
O445 C444 1.258 . S
O446 Co443 1.966 . S
O446 C444 1.263 . S
C447 O448 1.235 . S
C447 O474 1.289 . S
O448 C447 1.235 . S
C449 C451 1.400 . S
C449 N452 1.351 . S
C449 C454 1.501 . S
C450 C451 1.387 . S
C450 N453 1.341 . S
C451 C449 1.400 . S
C451 C450 1.387 . S
N452 Co443 2.022 . S
N452 C449 1.351 . S
N452 N453 1.365 . S
N453 C450 1.341 . S
N453 N452 1.365 . S
N453 H473 0.862 . S
C454 C449 1.501 . S
C454 H455 0.961 . S
C454 H456 0.961 . S
C454 H457 0.960 . S
H455 C454 0.961 . S
H456 C454 0.961 . S
H457 C454 0.960 . S
C458 N459 1.342 . S
C458 C462 1.401 . S
C458 C463 1.499 . S
N459 Co442 1.989 . S
N459 C458 1.342 . S
N459 N460 1.388 . S
N460 Co443 1.993 . S
N460 N459 1.388 . S
N460 C461 1.346 . S
C461 N460 1.346 . S
C461 C462 1.396 . S
C461 C471 1.510 . S
C462 C458 1.401 . S
C462 C461 1.396 . S
C463 C458 1.499 . S
C463 H464 0.959 . S
C463 H465 0.960 . S
C463 H466 0.961 . S
H464 C463 0.959 . S
H465 C463 0.960 . S
H466 C463 0.961 . S
O467 Co442 1.967 . S
O467 C475 1.258 . S
O468 Co443 1.941 . S
O468 C475 1.266 . S
H469 C471 0.959 . S
H470 C471 0.961 . S
C471 C461 1.510 . S
C471 H469 0.959 . S
C471 H470 0.961 . S
C471 H472 0.960 . S
H472 C471 0.960 . S
H473 N453 0.862 . S
O474 Co442 1.920 . S
O474 C447 1.289 . S
C475 O467 1.258 . S
C475 O468 1.266 . S
Co476 O479 1.970 . S
Co476 N493 1.989 . S
Co476 O501 1.967 . S
Co476 O508 1.920 . S
Co477 O480 1.966 . S
Co477 N486 2.022 . S
Co477 N494 1.993 . S
Co477 O502 1.941 . S
C478 O479 1.258 . S
C478 O480 1.263 . S
O479 Co476 1.970 . S
O479 C478 1.258 . S
O480 Co477 1.966 . S
O480 C478 1.263 . S
C481 O482 1.235 . S
C481 O508 1.289 . S
O482 C481 1.235 . S
C483 C485 1.400 . S
C483 N486 1.351 . S
C483 C488 1.501 . S
C484 C485 1.387 . S
C484 N487 1.341 . S
C485 C483 1.400 . S
C485 C484 1.387 . S
N486 Co477 2.022 . S
N486 C483 1.351 . S
N486 N487 1.365 . S
N487 C484 1.341 . S
N487 N486 1.365 . S
N487 H507 0.862 . S
C488 C483 1.501 . S
C488 H489 0.961 . S
C488 H490 0.961 . S
C488 H491 0.960 . S
H489 C488 0.961 . S
H490 C488 0.961 . S
H491 C488 0.960 . S
C492 N493 1.342 . S
C492 C496 1.401 . S
C492 C497 1.499 . S
N493 Co476 1.989 . S
N493 C492 1.342 . S
N493 N494 1.388 . S
N494 Co477 1.993 . S
N494 N493 1.388 . S
N494 C495 1.346 . S
C495 N494 1.346 . S
C495 C496 1.396 . S
C495 C505 1.510 . S
C496 C492 1.401 . S
C496 C495 1.396 . S
C497 C492 1.499 . S
C497 H498 0.959 . S
C497 H499 0.960 . S
C497 H500 0.961 . S
H498 C497 0.959 . S
H499 C497 0.960 . S
H500 C497 0.961 . S
O501 Co476 1.967 . S
O501 C509 1.258 . S
O502 Co477 1.941 . S
O502 C509 1.266 . S
H503 C505 0.959 . S
H504 C505 0.961 . S
C505 C495 1.510 . S
C505 H503 0.959 . S
C505 H504 0.961 . S
C505 H506 0.960 . S
H506 C505 0.960 . S
H507 N487 0.862 . S
O508 Co476 1.920 . S
O508 C481 1.289 . S
C509 O501 1.258 . S
C509 O502 1.266 . S
Co510 O513 1.970 . S
Co510 N527 1.989 . S
Co510 O535 1.967 . S
Co510 O542 1.920 . S
Co511 O514 1.966 . S
Co511 N520 2.022 . S
Co511 N528 1.993 . S
Co511 O536 1.941 . S
C512 O513 1.258 . S
C512 O514 1.263 . S
O513 Co510 1.970 . S
O513 C512 1.258 . S
O514 Co511 1.966 . S
O514 C512 1.263 . S
C515 O516 1.235 . S
C515 O542 1.289 . S
O516 C515 1.235 . S
C517 C519 1.400 . S
C517 N520 1.351 . S
C517 C522 1.501 . S
C518 C519 1.387 . S
C518 N521 1.341 . S
C519 C517 1.400 . S
C519 C518 1.387 . S
N520 Co511 2.022 . S
N520 C517 1.351 . S
N520 N521 1.365 . S
N521 C518 1.341 . S
N521 N520 1.365 . S
N521 H541 0.862 . S
C522 C517 1.501 . S
C522 H523 0.961 . S
C522 H524 0.961 . S
C522 H525 0.960 . S
H523 C522 0.961 . S
H524 C522 0.961 . S
H525 C522 0.960 . S
C526 N527 1.342 . S
C526 C530 1.401 . S
C526 C531 1.499 . S
N527 Co510 1.989 . S
N527 C526 1.342 . S
N527 N528 1.388 . S
N528 Co511 1.993 . S
N528 N527 1.388 . S
N528 C529 1.346 . S
C529 N528 1.346 . S
C529 C530 1.396 . S
C529 C539 1.510 . S
C530 C526 1.401 . S
C530 C529 1.396 . S
C531 C526 1.499 . S
C531 H532 0.959 . S
C531 H533 0.960 . S
C531 H534 0.961 . S
H532 C531 0.959 . S
H533 C531 0.960 . S
H534 C531 0.961 . S
O535 Co510 1.967 . S
O535 C543 1.258 . S
O536 Co511 1.941 . S
O536 C543 1.266 . S
H537 C539 0.959 . S
H538 C539 0.961 . S
C539 C529 1.510 . S
C539 H537 0.959 . S
C539 H538 0.961 . S
C539 H540 0.960 . S
H540 C539 0.960 . S
H541 N521 0.862 . S
O542 Co510 1.920 . S
O542 C515 1.289 . S
C543 O535 1.258 . S
C543 O536 1.266 . S
H544 C550 0.930 . S
H545 C553 0.930 . S
H546 C554 0.930 . S
H547 C555 0.930 . S
H548 C558 0.930 . S
H549 C559 0.930 . S
C550 H544 0.930 . S
C550 C551 1.355 . S
C550 C552 1.399 1_655 S
C551 C550 1.355 . S
C551 C553 1.419 . S
C552 C550 1.399 1_455 S
C552 C557 1.425 1_455 S
C552 C559 1.425 . S
C553 H545 0.930 . S
C553 C551 1.419 . S
C553 C554 1.362 . S
C554 H546 0.930 . S
C554 C553 1.362 . S
C554 C557 1.425 . S
C555 H547 0.930 . S
C555 C556 1.355 . S
C555 C557 1.399 1_455 S
C556 C555 1.355 . S
C556 C558 1.419 . S
C557 C552 1.425 1_655 S
C557 C554 1.425 . S
C557 C555 1.399 1_655 S
C558 H548 0.930 . S
C558 C556 1.419 . S
C558 C559 1.362 . S
C559 H549 0.930 . S
C559 C552 1.425 . S
C559 C558 1.362 . S
H560 C566 0.930 . S
H561 C569 0.930 . S
H562 C570 0.916 1_565 S
H563 C571 0.930 . S
H564 C574 0.930 . S
H565 C575 0.916 1_545 S
C566 H560 0.930 . S
C566 C567 1.355 . S
C566 C568 1.415 . S
C567 C566 1.355 . S
C567 C569 1.419 . S
C568 C566 1.415 . S
C568 C573 1.425 1_545 S
C568 C575 1.401 1_545 S
C569 H561 0.930 . S
C569 C567 1.419 . S
C569 C570 1.384 . S
C570 H562 0.916 1_545 S
C570 C569 1.384 . S
C570 C573 1.401 1_545 S
C571 H563 0.930 . S
C571 C572 1.355 . S
C571 C573 1.415 . S
C572 C571 1.355 . S
C572 C574 1.419 . S
C573 C568 1.425 1_565 S
C573 C570 1.401 1_565 S
C573 C571 1.415 . S
C574 H564 0.930 . S
C574 C572 1.419 . S
C574 C575 1.384 . S
C575 H565 0.916 1_565 S
C575 C568 1.401 1_565 S
C575 C574 1.384 . S
H576 C582 0.930 . S
H577 C585 0.930 . S
H578 C586 0.920 1_455 S
H579 C587 0.930 . S
H580 C590 0.930 . S
H581 C591 0.920 1_655 S
C582 H576 0.930 . S
C582 C583 1.355 . S
C582 C584 1.415 . S
C583 C582 1.355 . S
C583 C585 1.419 . S
C584 C582 1.415 . S
C584 C589 1.425 1_655 S
C584 C591 1.404 1_655 S
C585 H577 0.930 . S
C585 C583 1.419 . S
C585 C586 1.377 . S
C586 H578 0.920 1_655 S
C586 C585 1.377 . S
C586 C589 1.404 1_655 S
C587 H579 0.930 . S
C587 C588 1.355 . S
C587 C589 1.415 . S
C588 C587 1.355 . S
C588 C590 1.419 . S
C589 C584 1.425 1_455 S
C589 C586 1.404 1_455 S
C589 C587 1.415 . S
C590 H580 0.930 . S
C590 C588 1.419 . S
C590 C591 1.377 . S
C591 H581 0.920 1_455 S
C591 C584 1.404 1_455 S
C591 C590 1.377 . S
H592 C598 0.930 . S
H593 C601 0.930 . S
H594 C602 0.930 . S
H595 C603 0.930 . S
H596 C606 0.930 . S
H597 C607 0.930 . S
C598 H592 0.930 . S
C598 C599 1.355 . S
C598 C600 1.416 . S
C599 C598 1.355 . S
C599 C601 1.419 . S
C600 C598 1.416 . S
C600 C605 1.425 1_565 S
C600 C607 1.408 1_565 S
C601 H593 0.930 . S
C601 C599 1.419 . S
C601 C602 1.362 . S
C602 H594 0.930 . S
C602 C601 1.362 . S
C602 C605 1.408 1_565 S
C603 H595 0.930 . S
C603 C604 1.355 . S
C603 C605 1.416 . S
C604 C603 1.355 . S
C604 C606 1.419 . S
C605 C600 1.425 1_545 S
C605 C602 1.408 1_545 S
C605 C603 1.416 . S
C606 H596 0.930 . S
C606 C604 1.419 . S
C606 C607 1.362 . S
C607 H597 0.930 . S
C607 C600 1.408 1_545 S
C607 C606 1.362 . S
H608 C614 0.930 1_455 S
H609 C617 0.930 . S
H610 C618 0.930 . S
H611 C619 0.930 1_655 S
H612 C622 0.930 . S
H613 C623 0.930 . S
C614 H608 0.930 1_655 S
C614 C615 1.355 . S
C614 C616 1.415 1_655 S
C615 C614 1.355 . S
C615 C617 1.419 . S
C616 C614 1.415 1_455 S
C616 C621 1.425 1_455 S
C616 C623 1.409 . S
C617 H609 0.930 . S
C617 C615 1.419 . S
C617 C618 1.362 . S
C618 H610 0.930 . S
C618 C617 1.362 . S
C618 C621 1.409 . S
C619 H611 0.930 1_455 S
C619 C620 1.355 . S
C619 C621 1.415 1_455 S
C620 C619 1.355 . S
C620 C622 1.419 . S
C621 C616 1.425 1_655 S
C621 C618 1.409 . S
C621 C619 1.415 1_655 S
C622 H612 0.930 . S
C622 C620 1.419 . S
C622 C623 1.362 . S
C623 H613 0.930 . S
C623 C616 1.409 . S
C623 C622 1.362 . S
H624 C630 0.930 . S
H625 C633 0.930 . S
H626 C634 0.930 . S
H627 C635 0.930 . S
H628 C638 0.930 . S
H629 C639 0.930 . S
C630 H624 0.930 . S
C630 C631 1.355 . S
C630 C632 1.415 . S
C631 C630 1.355 . S
C631 C633 1.419 1_565 S
C632 C630 1.415 . S
C632 C637 1.425 1_565 S
C632 C639 1.409 . S
C633 H625 0.930 . S
C633 C631 1.419 1_545 S
C633 C634 1.362 . S
C634 H626 0.930 . S
C634 C633 1.362 . S
C634 C637 1.409 . S
C635 H627 0.930 . S
C635 C636 1.355 . S
C635 C637 1.415 . S
C636 C635 1.355 . S
C636 C638 1.419 1_545 S
C637 C632 1.425 1_545 S
C637 C634 1.409 . S
C637 C635 1.415 . S
C638 H628 0.930 . S
C638 C636 1.419 1_565 S
C638 C639 1.362 . S
C639 H629 0.930 . S
C639 C632 1.409 . S
C639 C638 1.362 . S
H640 C646 0.930 1_455 S
H641 C649 0.930 . S
H642 C650 0.930 . S
H643 C651 0.930 1_655 S
H644 C654 0.930 . S
H645 C655 0.930 . S
C646 H640 0.930 1_655 S
C646 C647 1.355 . S
C646 C648 1.415 1_655 S
C647 C646 1.355 . S
C647 C649 1.419 . S
C648 C646 1.415 1_455 S
C648 C653 1.425 1_455 S
C648 C655 1.409 . S
C649 H641 0.930 . S
C649 C647 1.419 . S
C649 C650 1.362 . S
C650 H642 0.930 . S
C650 C649 1.362 . S
C650 C653 1.409 . S
C651 H643 0.930 1_455 S
C651 C652 1.355 . S
C651 C653 1.415 1_455 S
C652 C651 1.355 . S
C652 C654 1.419 . S
C653 C648 1.425 1_655 S
C653 C650 1.409 . S
C653 C651 1.415 1_655 S
C654 H644 0.930 . S
C654 C652 1.419 . S
C654 C655 1.362 . S
C655 H645 0.930 . S
C655 C648 1.409 . S
C655 C654 1.362 . S
H656 C662 0.930 . S
H657 C665 0.930 . S
H658 C666 0.930 . S
H659 C667 0.930 . S
H660 C670 0.930 . S
H661 C671 0.930 . S
C662 H656 0.930 . S
C662 C663 1.355 . S
C662 C664 1.415 . S
C663 C662 1.355 . S
C663 C665 1.419 . S
C664 C662 1.415 . S
C664 C669 1.425 1_545 S
C664 C671 1.409 . S
C665 H657 0.930 . S
C665 C663 1.419 . S
C665 C666 1.362 1_545 S
C666 H658 0.930 . S
C666 C665 1.362 1_565 S
C666 C669 1.409 . S
C667 H659 0.930 . S
C667 C668 1.355 . S
C667 C669 1.415 . S
C668 C667 1.355 . S
C668 C670 1.419 . S
C669 C664 1.425 1_565 S
C669 C666 1.409 . S
C669 C667 1.415 . S
C670 H660 0.930 . S
C670 C668 1.419 . S
C670 C671 1.362 1_565 S
C671 H661 0.930 . S
C671 C664 1.409 . S
C671 C670 1.362 1_545 S
H672 C678 0.930 . S
H673 C681 0.930 . S
H674 C682 0.930 . S
H675 C683 0.930 . S
H676 C686 0.930 . S
H677 C687 0.930 . S
C678 H672 0.930 . S
C678 C679 1.355 . S
C678 C680 1.415 . S
C679 C678 1.355 . S
C679 C681 1.419 . S
C680 C678 1.415 . S
C680 C685 1.425 . S
C680 C687 1.409 . S
C681 H673 0.930 . S
C681 C679 1.419 . S
C681 C682 1.362 . S
C682 H674 0.930 . S
C682 C681 1.362 . S
C682 C685 1.409 . S
C683 H675 0.930 . S
C683 C684 1.355 . S
C683 C685 1.415 . S
C684 C683 1.355 . S
C684 C686 1.419 . S
C685 C680 1.425 . S
C685 C682 1.409 . S
C685 C683 1.415 . S
C686 H676 0.930 . S
C686 C684 1.419 . S
C686 C687 1.362 . S
C687 H677 0.930 . S
C687 C680 1.409 . S
C687 C686 1.362 . S
H688 C694 0.930 . S
H689 C697 0.930 . S
H690 C698 0.930 . S
H691 C699 0.930 . S
H692 C702 0.930 . S
H693 C703 0.930 . S
C694 H688 0.930 . S
C694 C695 1.355 . S
C694 C696 1.415 . S
C695 C694 1.355 . S
C695 C697 1.419 . S
C696 C694 1.415 . S
C696 C701 1.425 . S
C696 C703 1.409 . S
C697 H689 0.930 . S
C697 C695 1.419 . S
C697 C698 1.362 . S
C698 H690 0.930 . S
C698 C697 1.362 . S
C698 C701 1.409 . S
C699 H691 0.930 . S
C699 C700 1.355 . S
C699 C701 1.415 . S
C700 C699 1.355 . S
C700 C702 1.419 . S
C701 C696 1.425 . S
C701 C698 1.409 . S
C701 C699 1.415 . S
C702 H692 0.930 . S
C702 C700 1.419 . S
C702 C703 1.362 . S
C703 H693 0.930 . S
C703 C696 1.409 . S
C703 C702 1.362 . S
H704 C710 0.930 . S
H705 C713 0.930 . S
H706 C714 0.930 . S
H707 C715 0.930 . S
H708 C718 0.930 . S
H709 C719 0.930 . S
C710 H704 0.930 . S
C710 C711 1.355 . S
C710 C712 1.415 . S
C711 C710 1.355 . S
C711 C713 1.419 . S
C712 C710 1.415 . S
C712 C717 1.425 . S
C712 C719 1.409 . S
C713 H705 0.930 . S
C713 C711 1.419 . S
C713 C714 1.362 . S
C714 H706 0.930 . S
C714 C713 1.362 . S
C714 C717 1.409 . S
C715 H707 0.930 . S
C715 C716 1.355 . S
C715 C717 1.415 . S
C716 C715 1.355 . S
C716 C718 1.419 . S
C717 C712 1.425 . S
C717 C714 1.409 . S
C717 C715 1.415 . S
C718 H708 0.930 . S
C718 C716 1.419 . S
C718 C719 1.362 . S
C719 H709 0.930 . S
C719 C712 1.409 . S
C719 C718 1.362 . S
H720 C726 0.930 . S
H721 C729 0.930 . S
H722 C730 0.930 . S
H723 C731 0.930 . S
H724 C734 0.930 . S
H725 C735 0.930 . S
C726 H720 0.930 . S
C726 C727 1.355 . S
C726 C728 1.415 . S
C727 C726 1.355 . S
C727 C729 1.419 . S
C728 C726 1.415 . S
C728 C733 1.425 . S
C728 C735 1.409 . S
C729 H721 0.930 . S
C729 C727 1.419 . S
C729 C730 1.362 . S
C730 H722 0.930 . S
C730 C729 1.362 . S
C730 C733 1.409 . S
C731 H723 0.930 . S
C731 C732 1.355 . S
C731 C733 1.415 . S
C732 C731 1.355 . S
C732 C734 1.419 . S
C733 C728 1.425 . S
C733 C730 1.409 . S
C733 C731 1.415 . S
C734 H724 0.930 . S
C734 C732 1.419 . S
C734 C735 1.362 . S
C735 H725 0.930 . S
C735 C728 1.409 . S
C735 C734 1.362 . S
H736 C742 0.930 . S
H737 C745 0.930 . S
H738 C746 0.930 . S
H739 C747 0.930 . S
H740 C750 0.930 . S
H741 C751 0.930 . S
C742 H736 0.930 . S
C742 C743 1.355 . S
C742 C744 1.415 . S
C743 C742 1.355 . S
C743 C745 1.419 . S
C744 C742 1.415 . S
C744 C749 1.425 . S
C744 C751 1.409 . S
C745 H737 0.930 . S
C745 C743 1.419 . S
C745 C746 1.362 . S
C746 H738 0.930 . S
C746 C745 1.362 . S
C746 C749 1.409 . S
C747 H739 0.930 . S
C747 C748 1.355 . S
C747 C749 1.415 . S
C748 C747 1.355 . S
C748 C750 1.419 . S
C749 C744 1.425 . S
C749 C746 1.409 . S
C749 C747 1.415 . S
C750 H740 0.930 . S
C750 C748 1.419 . S
C750 C751 1.362 . S
C751 H741 0.930 . S
C751 C744 1.409 . S
C751 C750 1.362 . S
H752 C758 0.930 . S
H753 C761 0.930 . S
H754 C762 0.930 . S
H755 C763 0.930 . S
H756 C766 0.930 . S
H757 C767 0.930 . S
C758 H752 0.930 . S
C758 C759 1.355 . S
C758 C760 1.415 . S
C759 C758 1.355 . S
C759 C761 1.419 . S
C760 C758 1.415 . S
C760 C765 1.425 . S
C760 C767 1.409 . S
C761 H753 0.930 . S
C761 C759 1.419 . S
C761 C762 1.362 . S
C762 H754 0.930 . S
C762 C761 1.362 . S
C762 C765 1.409 . S
C763 H755 0.930 . S
C763 C764 1.355 . S
C763 C765 1.415 . S
C764 C763 1.355 . S
C764 C766 1.419 . S
C765 C760 1.425 . S
C765 C762 1.409 . S
C765 C763 1.415 . S
C766 H756 0.930 . S
C766 C764 1.419 . S
C766 C767 1.362 . S
C767 H757 0.930 . S
C767 C760 1.409 . S
C767 C766 1.362 . S
H768 C774 0.930 . S
H769 C777 0.930 . S
H770 C778 0.930 . S
H771 C779 0.930 . S
H772 C782 0.930 . S
H773 C783 0.930 . S
C774 H768 0.930 . S
C774 C775 1.355 . S
C774 C776 1.415 . S
C775 C774 1.355 . S
C775 C777 1.419 . S
C776 C774 1.415 . S
C776 C781 1.425 . S
C776 C783 1.409 . S
C777 H769 0.930 . S
C777 C775 1.419 . S
C777 C778 1.362 . S
C778 H770 0.930 . S
C778 C777 1.362 . S
C778 C781 1.409 . S
C779 H771 0.930 . S
C779 C780 1.355 . S
C779 C781 1.415 . S
C780 C779 1.355 . S
C780 C782 1.419 . S
C781 C776 1.425 . S
C781 C778 1.409 . S
C781 C779 1.415 . S
C782 H772 0.930 . S
C782 C780 1.419 . S
C782 C783 1.362 . S
C783 H773 0.930 . S
C783 C776 1.409 . S
C783 C782 1.362 . S
H784 C790 0.930 . S
H785 C793 0.930 . S
H786 C794 0.930 . S
H787 C795 0.930 . S
H788 C798 0.930 . S
H789 C799 0.930 . S
C790 H784 0.930 . S
C790 C791 1.355 . S
C790 C792 1.415 . S
C791 C790 1.355 . S
C791 C793 1.419 . S
C792 C790 1.415 . S
C792 C797 1.425 . S
C792 C799 1.409 . S
C793 H785 0.930 . S
C793 C791 1.419 . S
C793 C794 1.362 . S
C794 H786 0.930 . S
C794 C793 1.362 . S
C794 C797 1.409 . S
C795 H787 0.930 . S
C795 C796 1.355 . S
C795 C797 1.415 . S
C796 C795 1.355 . S
C796 C798 1.419 . S
C797 C792 1.425 . S
C797 C794 1.409 . S
C797 C795 1.415 . S
C798 H788 0.930 . S
C798 C796 1.419 . S
C798 C799 1.362 . S
C799 H789 0.930 . S
C799 C792 1.409 . S
C799 C798 1.362 . S
H800 C806 0.930 . S
H801 C809 0.930 . S
H802 C810 0.930 . S
H803 C811 0.930 . S
H804 C814 0.930 . S
H805 C815 0.930 . S
C806 H800 0.930 . S
C806 C807 1.355 . S
C806 C808 1.415 . S
C807 C806 1.355 . S
C807 C809 1.419 . S
C808 C806 1.415 . S
C808 C813 1.425 1_554 S
C808 C815 1.409 1_554 S
C809 H801 0.930 . S
C809 C807 1.419 . S
C809 C810 1.362 . S
C810 H802 0.930 . S
C810 C809 1.362 . S
C810 C813 1.409 1_554 S
C811 H803 0.930 . S
C811 C812 1.355 . S
C811 C813 1.415 . S
C812 C811 1.355 . S
C812 C814 1.419 . S
C813 C808 1.425 1_556 S
C813 C810 1.409 1_556 S
C813 C811 1.415 . S
C814 H804 0.930 . S
C814 C812 1.419 . S
C814 C815 1.362 . S
C815 H805 0.930 . S
C815 C808 1.409 1_556 S
C815 C814 1.362 . S
H816 C822 0.930 . S
H817 C825 0.930 . S
H818 C826 0.930 . S
H819 C827 0.930 . S
H820 C830 0.930 . S
H821 C831 0.930 . S
C822 H816 0.930 . S
C822 C823 1.355 . S
C822 C824 1.415 . S
C823 C822 1.355 . S
C823 C825 1.419 . S
C824 C822 1.415 . S
C824 C829 1.425 1_556 S
C824 C831 1.409 1_556 S
C825 H817 0.930 . S
C825 C823 1.419 . S
C825 C826 1.362 . S
C826 H818 0.930 . S
C826 C825 1.362 . S
C826 C829 1.409 1_556 S
C827 H819 0.930 . S
C827 C828 1.355 . S
C827 C829 1.415 . S
C828 C827 1.355 . S
C828 C830 1.419 . S
C829 C824 1.425 1_554 S
C829 C826 1.409 1_554 S
C829 C827 1.415 . S
C830 H820 0.930 . S
C830 C828 1.419 . S
C830 C831 1.362 . S
C831 H821 0.930 . S
C831 C824 1.409 1_554 S
C831 C830 1.362 . S
H832 C838 0.930 . S
H833 C841 0.930 . S
H834 C842 0.930 . S
H835 C843 0.930 . S
H836 C846 0.930 . S
H837 C847 0.930 . S
C838 H832 0.930 . S
C838 C839 1.355 . S
C838 C840 1.415 . S
C839 C838 1.355 . S
C839 C841 1.419 . S
C840 C838 1.415 . S
C840 C845 1.425 1_556 S
C840 C847 1.409 1_556 S
C841 H833 0.930 . S
C841 C839 1.419 . S
C841 C842 1.362 . S
C842 H834 0.930 . S
C842 C841 1.362 . S
C842 C845 1.409 1_556 S
C843 H835 0.930 . S
C843 C844 1.355 . S
C843 C845 1.415 . S
C844 C843 1.355 . S
C844 C846 1.419 . S
C845 C840 1.425 1_554 S
C845 C842 1.409 1_554 S
C845 C843 1.415 . S
C846 H836 0.930 . S
C846 C844 1.419 . S
C846 C847 1.362 . S
C847 H837 0.930 . S
C847 C840 1.409 1_554 S
C847 C846 1.362 . S
H848 C854 0.930 . S
H849 C857 0.930 . S
H850 C858 0.930 . S
H851 C859 0.930 . S
H852 C862 0.930 . S
H853 C863 0.930 . S
C854 H848 0.930 . S
C854 C855 1.355 . S
C854 C856 1.415 . S
C855 C854 1.355 . S
C855 C857 1.419 . S
C856 C854 1.415 . S
C856 C861 1.425 1_556 S
C856 C863 1.409 1_556 S
C857 H849 0.930 . S
C857 C855 1.419 . S
C857 C858 1.362 . S
C858 H850 0.930 . S
C858 C857 1.362 . S
C858 C861 1.409 1_556 S
C859 H851 0.930 . S
C859 C860 1.355 . S
C859 C861 1.415 . S
C860 C859 1.355 . S
C860 C862 1.419 . S
C861 C856 1.425 1_554 S
C861 C858 1.409 1_554 S
C861 C859 1.415 . S
C862 H852 0.930 . S
C862 C860 1.419 . S
C862 C863 1.362 . S
C863 H853 0.930 . S
C863 C856 1.409 1_554 S
C863 C862 1.362 . S
H864 C870 0.930 . S
H865 C873 0.930 . S
H866 C874 0.930 . S
H867 C875 0.930 . S
H868 C878 0.930 . S
H869 C879 0.930 . S
C870 H864 0.930 . S
C870 C871 1.355 . S
C870 C872 1.415 . S
C871 C870 1.355 . S
C871 C873 1.419 . S
C872 C870 1.415 . S
C872 C877 1.425 . S
C872 C879 1.409 . S
C873 H865 0.930 . S
C873 C871 1.419 . S
C873 C874 1.362 . S
C874 H866 0.930 . S
C874 C873 1.362 . S
C874 C877 1.409 . S
C875 H867 0.930 . S
C875 C876 1.355 . S
C875 C877 1.415 . S
C876 C875 1.355 . S
C876 C878 1.419 . S
C877 C872 1.425 . S
C877 C874 1.409 . S
C877 C875 1.415 . S
C878 H868 0.930 . S
C878 C876 1.419 . S
C878 C879 1.362 . S
C879 H869 0.930 . S
C879 C872 1.409 . S
C879 C878 1.362 . S
H880 C886 0.930 . S
H881 C889 0.930 . S
H882 C890 0.930 . S
H883 C891 0.930 . S
H884 C894 0.930 . S
H885 C895 0.930 . S
C886 H880 0.930 . S
C886 C887 1.355 . S
C886 C888 1.415 . S
C887 C886 1.355 . S
C887 C889 1.419 . S
C888 C886 1.415 . S
C888 C893 1.425 . S
C888 C895 1.409 . S
C889 H881 0.930 . S
C889 C887 1.419 . S
C889 C890 1.362 . S
C890 H882 0.930 . S
C890 C889 1.362 . S
C890 C893 1.409 . S
C891 H883 0.930 . S
C891 C892 1.355 . S
C891 C893 1.415 . S
C892 C891 1.355 . S
C892 C894 1.419 . S
C893 C888 1.425 . S
C893 C890 1.409 . S
C893 C891 1.415 . S
C894 H884 0.930 . S
C894 C892 1.419 . S
C894 C895 1.362 . S
C895 H885 0.930 . S
C895 C888 1.409 . S
C895 C894 1.362 . S
H896 C902 0.930 . S
H897 C905 0.930 . S
H898 C906 0.930 . S
H899 C907 0.930 . S
H900 C910 0.930 . S
H901 C911 0.930 . S
C902 H896 0.930 . S
C902 C903 1.355 . S
C902 C904 1.415 . S
C903 C902 1.355 . S
C903 C905 1.419 . S
C904 C902 1.415 . S
C904 C909 1.425 . S
C904 C911 1.409 . S
C905 H897 0.930 . S
C905 C903 1.419 . S
C905 C906 1.362 . S
C906 H898 0.930 . S
C906 C905 1.362 . S
C906 C909 1.409 . S
C907 H899 0.930 . S
C907 C908 1.355 . S
C907 C909 1.415 . S
C908 C907 1.355 . S
C908 C910 1.419 . S
C909 C904 1.425 . S
C909 C906 1.409 . S
C909 C907 1.415 . S
C910 H900 0.930 . S
C910 C908 1.419 . S
C910 C911 1.362 . S
C911 H901 0.930 . S
C911 C904 1.409 . S
C911 C910 1.362 . S
H912 C918 0.930 . S
H913 C921 0.930 . S
H914 C922 0.930 . S
H915 C923 0.930 . S
H916 C926 0.930 . S
H917 C927 0.930 . S
C918 H912 0.930 . S
C918 C919 1.355 . S
C918 C920 1.415 . S
C919 C918 1.355 . S
C919 C921 1.419 . S
C920 C918 1.415 . S
C920 C925 1.425 . S
C920 C927 1.409 . S
C921 H913 0.930 . S
C921 C919 1.419 . S
C921 C922 1.362 . S
C922 H914 0.930 . S
C922 C921 1.362 . S
C922 C925 1.409 . S
C923 H915 0.930 . S
C923 C924 1.355 . S
C923 C925 1.415 . S
C924 C923 1.355 . S
C924 C926 1.419 . S
C925 C920 1.425 . S
C925 C922 1.409 . S
C925 C923 1.415 . S
C926 H916 0.930 . S
C926 C924 1.419 . S
C926 C927 1.362 . S
C927 H917 0.930 . S
C927 C920 1.409 . S
C927 C926 1.362 . S
H928 C934 0.930 . S
H929 C937 0.930 . S
H930 C938 0.930 . S
H931 C939 0.930 . S
H932 C942 0.930 . S
H933 C943 0.930 . S
C934 H928 0.930 . S
C934 C935 1.355 . S
C934 C936 1.415 . S
C935 C934 1.355 . S
C935 C937 1.419 . S
C936 C934 1.415 . S
C936 C941 1.425 . S
C936 C943 1.409 . S
C937 H929 0.930 . S
C937 C935 1.419 . S
C937 C938 1.362 . S
C938 H930 0.930 . S
C938 C937 1.362 . S
C938 C941 1.409 . S
C939 H931 0.930 . S
C939 C940 1.355 . S
C939 C941 1.415 . S
C940 C939 1.355 . S
C940 C942 1.419 . S
C941 C936 1.425 . S
C941 C938 1.409 . S
C941 C939 1.415 . S
C942 H932 0.930 . S
C942 C940 1.419 . S
C942 C943 1.362 . S
C943 H933 0.930 . S
C943 C936 1.409 . S
C943 C942 1.362 . S
H944 C950 0.930 . S
H945 C953 0.930 . S
H946 C954 0.930 . S
H947 C955 0.930 . S
H948 C958 0.930 . S
H949 C959 0.930 . S
C950 H944 0.930 . S
C950 C951 1.355 . S
C950 C952 1.415 . S
C951 C950 1.355 . S
C951 C953 1.419 . S
C952 C950 1.415 . S
C952 C957 1.425 . S
C952 C959 1.409 . S
C953 H945 0.930 . S
C953 C951 1.419 . S
C953 C954 1.362 . S
C954 H946 0.930 . S
C954 C953 1.362 . S
C954 C957 1.409 . S
C955 H947 0.930 . S
C955 C956 1.355 . S
C955 C957 1.415 . S
C956 C955 1.355 . S
C956 C958 1.419 . S
C957 C952 1.425 . S
C957 C954 1.409 . S
C957 C955 1.415 . S
C958 H948 0.930 . S
C958 C956 1.419 . S
C958 C959 1.362 . S
C959 H949 0.930 . S
C959 C952 1.409 . S
C959 C958 1.362 . S
H960 C966 0.930 . S
H961 C969 0.930 . S
H962 C970 0.930 . S
H963 C971 0.930 . S
H964 C974 0.930 . S
H965 C975 0.930 . S
C966 H960 0.930 . S
C966 C967 1.355 . S
C966 C968 1.415 . S
C967 C966 1.355 . S
C967 C969 1.419 . S
C968 C966 1.415 . S
C968 C973 1.425 . S
C968 C975 1.409 . S
C969 H961 0.930 . S
C969 C967 1.419 . S
C969 C970 1.362 . S
C970 H962 0.930 . S
C970 C969 1.362 . S
C970 C973 1.409 . S
C971 H963 0.930 . S
C971 C972 1.355 . S
C971 C973 1.415 . S
C972 C971 1.355 . S
C972 C974 1.419 . S
C973 C968 1.425 . S
C973 C970 1.409 . S
C973 C971 1.415 . S
C974 H964 0.930 . S
C974 C972 1.419 . S
C974 C975 1.362 . S
C975 H965 0.930 . S
C975 C968 1.409 . S
C975 C974 1.362 . S
H976 C982 0.930 . S
H977 C985 0.930 . S
H978 C986 0.930 . S
H979 C987 0.930 . S
H980 C990 0.930 . S
H981 C991 0.930 . S
C982 H976 0.930 . S
C982 C983 1.355 . S
C982 C984 1.415 . S
C983 C982 1.355 . S
C983 C985 1.419 . S
C984 C982 1.415 . S
C984 C989 1.425 . S
C984 C991 1.409 . S
C985 H977 0.930 . S
C985 C983 1.419 . S
C985 C986 1.362 . S
C986 H978 0.930 . S
C986 C985 1.362 . S
C986 C989 1.409 . S
C987 H979 0.930 . S
C987 C988 1.355 . S
C987 C989 1.415 . S
C988 C987 1.355 . S
C988 C990 1.419 . S
C989 C984 1.425 . S
C989 C986 1.409 . S
C989 C987 1.415 . S
C990 H980 0.930 . S
C990 C988 1.419 . S
C990 C991 1.362 . S
C991 H981 0.930 . S
C991 C984 1.409 . S
C991 C990 1.362 . S
H992 C998 0.930 . S
H993 C1001 0.930 . S
H994 C1002 0.930 . S
H995 C1003 0.930 . S
H996 C1006 0.930 . S
H997 C1007 0.930 . S
C998 H992 0.930 . S
C998 C999 1.355 . S
C998 C1000 1.415 . S
C999 C998 1.355 . S
C999 C1001 1.419 . S
C1000 C998 1.415 . S
C1000 C1005 1.425 . S
C1000 C1007 1.409 . S
C1001 H993 0.930 . S
C1001 C999 1.419 . S
C1001 C1002 1.362 . S
C1002 H994 0.930 . S
C1002 C1001 1.362 . S
C1002 C1005 1.409 . S
C1003 H995 0.930 . S
C1003 C1004 1.355 . S
C1003 C1005 1.415 . S
C1004 C1003 1.355 . S
C1004 C1006 1.419 . S
C1005 C1000 1.425 . S
C1005 C1002 1.409 . S
C1005 C1003 1.415 . S
C1006 H996 0.930 . S
C1006 C1004 1.419 . S
C1006 C1007 1.362 . S
C1007 H997 0.930 . S
C1007 C1000 1.409 . S
C1007 C1006 1.362 . S
H1008 C1014 0.930 . S
H1009 C1017 0.930 . S
H1010 C1018 0.930 . S
H1011 C1019 0.930 . S
H1012 C1022 0.930 . S
H1013 C1023 0.930 . S
C1014 H1008 0.930 . S
C1014 C1015 1.355 . S
C1014 C1016 1.415 . S
C1015 C1014 1.355 . S
C1015 C1017 1.419 . S
C1016 C1014 1.415 . S
C1016 C1021 1.425 . S
C1016 C1023 1.409 . S
C1017 H1009 0.930 . S
C1017 C1015 1.419 . S
C1017 C1018 1.362 . S
C1018 H1010 0.930 . S
C1018 C1017 1.362 . S
C1018 C1021 1.409 . S
C1019 H1011 0.930 . S
C1019 C1020 1.355 . S
C1019 C1021 1.415 . S
C1020 C1019 1.355 . S
C1020 C1022 1.419 . S
C1021 C1016 1.425 . S
C1021 C1018 1.409 . S
C1021 C1019 1.415 . S
C1022 H1012 0.930 . S
C1022 C1020 1.419 . S
C1022 C1023 1.362 . S
C1023 H1013 0.930 . S
C1023 C1016 1.409 . S
C1023 C1022 1.362 . S
H1024 C1030 0.930 . S
H1025 C1033 0.930 . S
H1026 C1034 0.930 . S
H1027 C1035 0.930 . S
H1028 C1038 0.930 . S
H1029 C1039 0.930 . S
C1030 H1024 0.930 . S
C1030 C1031 1.355 . S
C1030 C1032 1.415 . S
C1031 C1030 1.355 . S
C1031 C1033 1.419 . S
C1032 C1030 1.415 . S
C1032 C1037 1.425 . S
C1032 C1039 1.409 . S
C1033 H1025 0.930 . S
C1033 C1031 1.419 . S
C1033 C1034 1.362 . S
C1034 H1026 0.930 . S
C1034 C1033 1.362 . S
C1034 C1037 1.409 . S
C1035 H1027 0.930 . S
C1035 C1036 1.355 . S
C1035 C1037 1.415 . S
C1036 C1035 1.355 . S
C1036 C1038 1.419 . S
C1037 C1032 1.425 . S
C1037 C1034 1.409 . S
C1037 C1035 1.415 . S
C1038 H1028 0.930 . S
C1038 C1036 1.419 . S
C1038 C1039 1.362 . S
C1039 H1029 0.930 . S
C1039 C1032 1.409 . S
C1039 C1038 1.362 . S
H1040 C1046 0.930 . S
H1041 C1049 0.930 . S
H1042 C1050 0.930 . S
H1043 C1051 0.930 . S
H1044 C1054 0.930 . S
H1045 C1055 0.930 . S
C1046 H1040 0.930 . S
C1046 C1047 1.355 . S
C1046 C1048 1.415 . S
C1047 C1046 1.355 . S
C1047 C1049 1.419 . S
C1048 C1046 1.415 . S
C1048 C1053 1.425 . S
C1048 C1055 1.409 . S
C1049 H1041 0.930 . S
C1049 C1047 1.419 . S
C1049 C1050 1.362 . S
C1050 H1042 0.930 . S
C1050 C1049 1.362 . S
C1050 C1053 1.409 . S
C1051 H1043 0.930 . S
C1051 C1052 1.355 . S
C1051 C1053 1.415 . S
C1052 C1051 1.355 . S
C1052 C1054 1.419 . S
C1053 C1048 1.425 . S
C1053 C1050 1.409 . S
C1053 C1051 1.415 . S
C1054 H1044 0.930 . S
C1054 C1052 1.419 . S
C1054 C1055 1.362 . S
C1055 H1045 0.930 . S
C1055 C1048 1.409 . S
C1055 C1054 1.362 . S
H1056 C1062 0.930 . S
H1057 C1065 0.930 . S
H1058 C1066 0.930 . S
H1059 C1067 0.930 . S
H1060 C1070 0.930 . S
H1061 C1071 0.930 . S
C1062 H1056 0.930 . S
C1062 C1063 1.355 . S
C1062 C1064 1.415 . S
C1063 C1062 1.355 . S
C1063 C1065 1.419 . S
C1064 C1062 1.415 . S
C1064 C1069 1.425 1_545 S
C1064 C1071 1.409 1_545 S
C1065 H1057 0.930 . S
C1065 C1063 1.419 . S
C1065 C1066 1.362 . S
C1066 H1058 0.930 . S
C1066 C1065 1.362 . S
C1066 C1069 1.409 1_545 S
C1067 H1059 0.930 . S
C1067 C1068 1.355 . S
C1067 C1069 1.415 . S
C1068 C1067 1.355 . S
C1068 C1070 1.419 . S
C1069 C1064 1.425 1_565 S
C1069 C1066 1.409 1_565 S
C1069 C1067 1.415 . S
C1070 H1060 0.930 . S
C1070 C1068 1.419 . S
C1070 C1071 1.362 . S
C1071 H1061 0.930 . S
C1071 C1064 1.409 1_565 S
C1071 C1070 1.362 . S
H1072 C1078 0.930 . S
H1073 C1081 0.930 . S
H1074 C1082 0.930 . S
H1075 C1083 0.930 . S
H1076 C1086 0.930 . S
H1077 C1087 0.930 . S
C1078 H1072 0.930 . S
C1078 C1079 1.355 . S
C1078 C1080 1.413 . S
C1079 C1078 1.355 . S
C1079 C1081 1.419 . S
C1080 C1078 1.413 . S
C1080 C1085 1.425 1_655 S
C1080 C1087 1.411 1_655 S
C1081 H1073 0.930 . S
C1081 C1079 1.419 . S
C1081 C1082 1.362 . S
C1082 H1074 0.930 . S
C1082 C1081 1.362 . S
C1082 C1085 1.411 1_655 S
C1083 H1075 0.930 . S
C1083 C1084 1.355 . S
C1083 C1085 1.413 . S
C1084 C1083 1.355 . S
C1084 C1086 1.419 . S
C1085 C1080 1.425 1_455 S
C1085 C1082 1.411 1_455 S
C1085 C1083 1.413 . S
C1086 H1076 0.930 . S
C1086 C1084 1.419 . S
C1086 C1087 1.362 . S
C1087 H1077 0.930 . S
C1087 C1080 1.411 1_455 S
C1087 C1086 1.362 . S
H1088 C1094 0.930 . S
H1089 C1097 0.930 . S
H1090 C1098 0.930 . S
H1091 C1099 0.930 . S
H1092 C1102 0.930 . S
H1093 C1103 0.930 . S
C1094 H1088 0.930 . S
C1094 C1095 1.355 . S
C1094 C1096 1.415 . S
C1095 C1094 1.355 . S
C1095 C1097 1.419 . S
C1096 C1094 1.415 . S
C1096 C1101 1.425 1_545 S
C1096 C1103 1.409 . S
C1097 H1089 0.930 . S
C1097 C1095 1.419 . S
C1097 C1098 1.362 1_545 S
C1098 H1090 0.930 . S
C1098 C1097 1.362 1_565 S
C1098 C1101 1.409 . S
C1099 H1091 0.930 . S
C1099 C1100 1.355 . S
C1099 C1101 1.415 . S
C1100 C1099 1.355 . S
C1100 C1102 1.419 . S
C1101 C1096 1.425 1_565 S
C1101 C1098 1.409 . S
C1101 C1099 1.415 . S
C1102 H1092 0.930 . S
C1102 C1100 1.419 . S
C1102 C1103 1.362 1_565 S
C1103 H1093 0.930 . S
C1103 C1096 1.409 . S
C1103 C1102 1.362 1_545 S
H1104 C1110 0.930 . S
H1105 C1113 0.930 . S
H1106 C1114 0.909 1_455 S
H1107 C1115 0.930 . S
H1108 C1118 0.930 . S
H1109 C1119 0.909 1_655 S
C1110 H1104 0.930 . S
C1110 C1111 1.355 . S
C1110 C1112 1.415 . S
C1111 C1110 1.355 . S
C1111 C1113 1.419 . S
C1112 C1110 1.415 . S
C1112 C1117 1.425 1_655 S
C1112 C1119 1.397 1_655 S
C1113 H1105 0.930 . S
C1113 C1111 1.419 . S
C1113 C1114 1.396 . S
C1114 H1106 0.909 1_655 S
C1114 C1113 1.396 . S
C1114 C1117 1.397 1_655 S
C1115 H1107 0.930 . S
C1115 C1116 1.355 . S
C1115 C1117 1.415 . S
C1116 C1115 1.355 . S
C1116 C1118 1.419 . S
C1117 C1112 1.425 1_455 S
C1117 C1114 1.397 1_455 S
C1117 C1115 1.415 . S
C1118 H1108 0.930 . S
C1118 C1116 1.419 . S
C1118 C1119 1.396 . S
C1119 H1109 0.909 1_455 S
C1119 C1112 1.397 1_455 S
C1119 C1118 1.396 . S
H1120 C1126 0.930 . S
H1121 C1129 0.930 . S
H1122 C1130 0.930 1_545 S
H1123 C1131 0.930 . S
H1124 C1134 0.930 . S
H1125 C1135 0.930 1_565 S
C1126 H1120 0.930 . S
C1126 C1127 1.355 . S
C1126 C1128 1.415 . S
C1127 C1126 1.355 . S
C1127 C1129 1.419 . S
C1128 C1126 1.415 . S
C1128 C1133 1.425 1_565 S
C1128 C1135 1.409 1_565 S
C1129 H1121 0.930 . S
C1129 C1127 1.419 . S
C1129 C1130 1.362 . S
C1130 H1122 0.930 1_565 S
C1130 C1129 1.362 . S
C1130 C1133 1.409 1_565 S
C1131 H1123 0.930 . S
C1131 C1132 1.355 . S
C1131 C1133 1.415 . S
C1132 C1131 1.355 . S
C1132 C1134 1.419 . S
C1133 C1128 1.425 1_545 S
C1133 C1130 1.409 1_545 S
C1133 C1131 1.415 . S
C1134 H1124 0.930 . S
C1134 C1132 1.419 . S
C1134 C1135 1.362 . S
C1135 H1125 0.930 1_545 S
C1135 C1128 1.409 1_545 S
C1135 C1134 1.362 . S
H1136 C1142 0.930 . S
H1137 C1145 0.930 . S
H1138 C1146 0.930 . S
H1139 C1147 0.930 . S
H1140 C1150 0.930 . S
H1141 C1151 0.930 . S
C1142 H1136 0.930 . S
C1142 C1143 1.355 . S
C1142 C1144 1.415 1_455 S
C1143 C1142 1.355 . S
C1143 C1145 1.419 . S
C1144 C1142 1.415 1_655 S
C1144 C1149 1.425 1_655 S
C1144 C1151 1.409 . S
C1145 H1137 0.930 . S
C1145 C1143 1.419 . S
C1145 C1146 1.362 . S
C1146 H1138 0.930 . S
C1146 C1145 1.362 . S
C1146 C1149 1.409 . S
C1147 H1139 0.930 . S
C1147 C1148 1.355 . S
C1147 C1149 1.415 1_655 S
C1148 C1147 1.355 . S
C1148 C1150 1.419 . S
C1149 C1144 1.425 1_455 S
C1149 C1146 1.409 . S
C1149 C1147 1.415 1_455 S
C1150 H1140 0.930 . S
C1150 C1148 1.419 . S
C1150 C1151 1.362 . S
C1151 H1141 0.930 . S
C1151 C1144 1.409 . S
C1151 C1150 1.362 . S
H1152 C1158 0.930 . S
H1153 C1161 0.930 . S
H1154 C1162 0.930 1_545 S
H1155 C1163 0.930 . S
H1156 C1166 0.930 . S
H1157 C1167 0.930 1_565 S
C1158 H1152 0.930 . S
C1158 C1159 1.355 . S
C1158 C1160 1.415 . S
C1159 C1158 1.355 . S
C1159 C1161 1.419 . S
C1160 C1158 1.415 . S
C1160 C1165 1.425 1_565 S
C1160 C1167 1.409 1_565 S
C1161 H1153 0.930 . S
C1161 C1159 1.419 . S
C1161 C1162 1.362 . S
C1162 H1154 0.930 1_565 S
C1162 C1161 1.362 . S
C1162 C1165 1.409 1_565 S
C1163 H1155 0.930 . S
C1163 C1164 1.355 . S
C1163 C1165 1.415 . S
C1164 C1163 1.355 . S
C1164 C1166 1.419 . S
C1165 C1160 1.425 1_545 S
C1165 C1162 1.409 1_545 S
C1165 C1163 1.415 . S
C1166 H1156 0.930 . S
C1166 C1164 1.419 . S
C1166 C1167 1.362 . S
C1167 H1157 0.930 1_545 S
C1167 C1160 1.409 1_545 S
C1167 C1166 1.362 . S
H1168 C1174 0.930 . S
H1169 C1177 0.930 . S
H1170 C1178 0.930 . S
H1171 C1179 0.930 . S
H1172 C1182 0.930 . S
H1173 C1183 0.930 . S
C1174 H1168 0.930 . S
C1174 C1175 1.355 . S
C1174 C1176 1.416 1_655 S
C1175 C1174 1.355 . S
C1175 C1177 1.419 . S
C1176 C1174 1.416 1_455 S
C1176 C1181 1.425 1_455 S
C1176 C1183 1.408 . S
C1177 H1169 0.930 . S
C1177 C1175 1.419 . S
C1177 C1178 1.362 . S
C1178 H1170 0.930 . S
C1178 C1177 1.362 . S
C1178 C1181 1.408 . S
C1179 H1171 0.930 . S
C1179 C1180 1.355 . S
C1179 C1181 1.416 1_455 S
C1180 C1179 1.355 . S
C1180 C1182 1.419 . S
C1181 C1176 1.425 1_655 S
C1181 C1178 1.408 . S
C1181 C1179 1.416 1_655 S
C1182 H1172 0.930 . S
C1182 C1180 1.419 . S
C1182 C1183 1.362 . S
C1183 H1173 0.930 . S
C1183 C1176 1.408 . S
C1183 C1182 1.362 . S
C551 C73 0.948 . S
C556 C5 0.941 . S
C567 C39 0.886 . S
C572 C107 0.896 . S
C583 C209 0.884 . S
C588 C141 0.899 . S
C599 C243 0.939 . S
C604 C175 0.949 . S
C615 C277 0.883 . S
C620 C345 0.940 . S
C631 C311 0.957 . S
C636 C379 0.912 . S
C647 C413 0.881 . S
C652 C481 0.936 . S
C663 C515 0.950 . S
C668 C447 0.893 . S
C679 C9 1.653 . S
C684 C179 1.684 . S
C695 C213 1.719 . S
C700 C43 1.649 . S
C711 C247 1.669 . S
C716 C77 1.736 . S
C727 C145 1.728 . S
C732 C111 1.654 . S
C743 C451 1.715 . S
C748 C281 1.721 . S
C759 C485 1.695 . S
C764 C315 1.649 . S
C775 C519 1.709 . S
C780 C349 1.726 . S
C791 C417 1.726 . S
C796 C383 1.709 . S
C807 C20 1.437 . S
C812 C360 1.409 . S
C823 C394 1.442 . S
C828 C54 1.472 . S
C839 C292 1.448 . S
C844 C88 1.409 . S
C855 C326 1.432 . S
C860 C122 1.410 . S
C871 C156 1.425 . S
C876 C496 1.469 . S
C887 C190 1.413 . S
C892 C530 1.459 . S
C903 C224 1.436 . S
C908 C428 1.472 . S
C919 C258 1.408 . S
C924 C462 1.444 . S
C935 C138 1.218 . S
C940 C2 1.240 . S
C951 C36 1.216 . S
C956 C172 1.155 . S
C967 C206 1.243 . S
C972 C70 1.211 . S
C983 C240 1.238 . S
C988 C104 1.222 . S
C999 C305 1.396 . S
C1004 C441 1.347 . S
C1015 C475 1.376 . S
C1020 C339 1.378 . S
C1031 C373 1.347 . S
C1036 C509 1.396 . S
C1047 C543 1.387 . S
C1052 C407 1.353 . S
C1063 C376 1.171 . S
C1068 C444 1.238 . S
C1079 C274 1.244 . S
C1084 C478 1.184 . S
C1095 C512 1.155 . S
C1100 C308 1.192 . S
C1111 C410 1.182 . S
C1116 C342 1.159 . S
C1127 C135 1.398 . S
C1132 C203 1.347 . S
C1143 C33 1.374 . S
C1148 C237 1.379 . S
C1159 C271 1.351 . S
C1164 C67 1.390 . S
C1175 C101 1.389 . S
C1180 C169 1.363 . S
