# Generated by pormake.
# Topology lcs-e, (6)-cn, num edge types: 1
# Building blocks:
#     Node 0, Type 0, BuildingBlock: MIFKUJ_clean_sbu_0, # of connection points: 6
#     Node 1, Type 0, BuildingBlock: MIFKUJ_clean_sbu_0, # of connection points: 6
#     Node 2, Type 0, BuildingBlock: MIFKUJ_clean_sbu_0, # of connection points: 6
#     Node 3, Type 0, BuildingBlock: MIFKUJ_clean_sbu_0, # of connection points: 6
#     Node 4, Type 0, BuildingBlock: MIFKUJ_clean_sbu_0, # of connection points: 6
#     Node 5, Type 0, BuildingBlock: MIFKUJ_clean_sbu_0, # of connection points: 6
#     Node 6, Type 0, BuildingBlock: MIFKUJ_clean_sbu_0, # of connection points: 6
#     Node 7, Type 0, BuildingBlock: MIFKUJ_clean_sbu_0, # of connection points: 6
#     Node 8, Type 0, BuildingBlock: MIFKUJ_clean_sbu_0, # of connection points: 6
#     Node 9, Type 0, BuildingBlock: MIFKUJ_clean_sbu_0, # of connection points: 6
#     Node 10, Type 0, BuildingBlock: MIFKUJ_clean_sbu_0, # of connection points: 6
#     Node 11, Type 0, BuildingBlock: MIFKUJ_clean_sbu_0, # of connection points: 6
#     Node 12, Type 0, BuildingBlock: MIFKUJ_clean_sbu_0, # of connection points: 6
#     Node 13, Type 0, BuildingBlock: MIFKUJ_clean_sbu_0, # of connection points: 6
#     Node 14, Type 0, BuildingBlock: MIFKUJ_clean_sbu_0, # of connection points: 6
#     Node 15, Type 0, BuildingBlock: MIFKUJ_clean_sbu_0, # of connection points: 6
#     Node 16, Type 0, BuildingBlock: MIFKUJ_clean_sbu_0, # of connection points: 6
#     Node 17, Type 0, BuildingBlock: MIFKUJ_clean_sbu_0, # of connection points: 6
#     Node 18, Type 0, BuildingBlock: MIFKUJ_clean_sbu_0, # of connection points: 6
#     Node 19, Type 0, BuildingBlock: MIFKUJ_clean_sbu_0, # of connection points: 6
#     Node 20, Type 0, BuildingBlock: MIFKUJ_clean_sbu_0, # of connection points: 6
#     Node 21, Type 0, BuildingBlock: MIFKUJ_clean_sbu_0, # of connection points: 6
#     Node 22, Type 0, BuildingBlock: MIFKUJ_clean_sbu_0, # of connection points: 6
#     Node 23, Type 0, BuildingBlock: MIFKUJ_clean_sbu_0, # of connection points: 6
#     Node 24, Type 0, BuildingBlock: MIFKUJ_clean_sbu_0, # of connection points: 6
#     Node 25, Type 0, BuildingBlock: MIFKUJ_clean_sbu_0, # of connection points: 6
#     Node 26, Type 0, BuildingBlock: MIFKUJ_clean_sbu_0, # of connection points: 6
#     Node 27, Type 0, BuildingBlock: MIFKUJ_clean_sbu_0, # of connection points: 6
#     Node 28, Type 0, BuildingBlock: MIFKUJ_clean_sbu_0, # of connection points: 6
#     Node 29, Type 0, BuildingBlock: MIFKUJ_clean_sbu_0, # of connection points: 6
#     Node 30, Type 0, BuildingBlock: MIFKUJ_clean_sbu_0, # of connection points: 6
#     Node 31, Type 0, BuildingBlock: MIFKUJ_clean_sbu_0, # of connection points: 6
#     Node 32, Type 0, BuildingBlock: MIFKUJ_clean_sbu_0, # of connection points: 6
#     Node 33, Type 0, BuildingBlock: MIFKUJ_clean_sbu_0, # of connection points: 6
#     Node 34, Type 0, BuildingBlock: MIFKUJ_clean_sbu_0, # of connection points: 6
#     Node 35, Type 0, BuildingBlock: MIFKUJ_clean_sbu_0, # of connection points: 6
#     Node 36, Type 0, BuildingBlock: MIFKUJ_clean_sbu_0, # of connection points: 6
#     Node 37, Type 0, BuildingBlock: MIFKUJ_clean_sbu_0, # of connection points: 6
#     Node 38, Type 0, BuildingBlock: MIFKUJ_clean_sbu_0, # of connection points: 6
#     Node 39, Type 0, BuildingBlock: MIFKUJ_clean_sbu_0, # of connection points: 6
#     Node 40, Type 0, BuildingBlock: MIFKUJ_clean_sbu_0, # of connection points: 6
#     Node 41, Type 0, BuildingBlock: MIFKUJ_clean_sbu_0, # of connection points: 6
#     Node 42, Type 0, BuildingBlock: MIFKUJ_clean_sbu_0, # of connection points: 6
#     Node 43, Type 0, BuildingBlock: MIFKUJ_clean_sbu_0, # of connection points: 6
#     Node 44, Type 0, BuildingBlock: MIFKUJ_clean_sbu_0, # of connection points: 6
#     Node 45, Type 0, BuildingBlock: MIFKUJ_clean_sbu_0, # of connection points: 6
#     Node 46, Type 0, BuildingBlock: MIFKUJ_clean_sbu_0, # of connection points: 6
#     Node 47, Type 0, BuildingBlock: MIFKUJ_clean_sbu_0, # of connection points: 6
#     Edge 48, Type (0, 0), None
#     Edge 49, Type (0, 0), None
#     Edge 50, Type (0, 0), None
#     Edge 51, Type (0, 0), None
#     Edge 52, Type (0, 0), None
#     Edge 53, Type (0, 0), None
#     Edge 54, Type (0, 0), None
#     Edge 55, Type (0, 0), None
#     Edge 56, Type (0, 0), None
#     Edge 57, Type (0, 0), None
#     Edge 58, Type (0, 0), None
#     Edge 59, Type (0, 0), None
#     Edge 60, Type (0, 0), None
#     Edge 61, Type (0, 0), None
#     Edge 62, Type (0, 0), None
#     Edge 63, Type (0, 0), None
#     Edge 64, Type (0, 0), None
#     Edge 65, Type (0, 0), None
#     Edge 66, Type (0, 0), None
#     Edge 67, Type (0, 0), None
#     Edge 68, Type (0, 0), None
#     Edge 69, Type (0, 0), None
#     Edge 70, Type (0, 0), None
#     Edge 71, Type (0, 0), None
#     Edge 72, Type (0, 0), None
#     Edge 73, Type (0, 0), None
#     Edge 74, Type (0, 0), None
#     Edge 75, Type (0, 0), None
#     Edge 76, Type (0, 0), None
#     Edge 77, Type (0, 0), None
#     Edge 78, Type (0, 0), None
#     Edge 79, Type (0, 0), None
#     Edge 80, Type (0, 0), None
#     Edge 81, Type (0, 0), None
#     Edge 82, Type (0, 0), None
#     Edge 83, Type (0, 0), None
#     Edge 84, Type (0, 0), None
#     Edge 85, Type (0, 0), None
#     Edge 86, Type (0, 0), None
#     Edge 87, Type (0, 0), None
#     Edge 88, Type (0, 0), None
#     Edge 89, Type (0, 0), None
#     Edge 90, Type (0, 0), None
#     Edge 91, Type (0, 0), None
#     Edge 92, Type (0, 0), None
#     Edge 93, Type (0, 0), None
#     Edge 94, Type (0, 0), None
#     Edge 95, Type (0, 0), None
#     Edge 96, Type (0, 0), None
#     Edge 97, Type (0, 0), None
#     Edge 98, Type (0, 0), None
#     Edge 99, Type (0, 0), None
#     Edge 100, Type (0, 0), None
#     Edge 101, Type (0, 0), None
#     Edge 102, Type (0, 0), None
#     Edge 103, Type (0, 0), None
#     Edge 104, Type (0, 0), None
#     Edge 105, Type (0, 0), None
#     Edge 106, Type (0, 0), None
#     Edge 107, Type (0, 0), None
#     Edge 108, Type (0, 0), None
#     Edge 109, Type (0, 0), None
#     Edge 110, Type (0, 0), None
#     Edge 111, Type (0, 0), None
#     Edge 112, Type (0, 0), None
#     Edge 113, Type (0, 0), None
#     Edge 114, Type (0, 0), None
#     Edge 115, Type (0, 0), None
#     Edge 116, Type (0, 0), None
#     Edge 117, Type (0, 0), None
#     Edge 118, Type (0, 0), None
#     Edge 119, Type (0, 0), None
#     Edge 120, Type (0, 0), None
#     Edge 121, Type (0, 0), None
#     Edge 122, Type (0, 0), None
#     Edge 123, Type (0, 0), None
#     Edge 124, Type (0, 0), None
#     Edge 125, Type (0, 0), None
#     Edge 126, Type (0, 0), None
#     Edge 127, Type (0, 0), None
#     Edge 128, Type (0, 0), None
#     Edge 129, Type (0, 0), None
#     Edge 130, Type (0, 0), None
#     Edge 131, Type (0, 0), None
#     Edge 132, Type (0, 0), None
#     Edge 133, Type (0, 0), None
#     Edge 134, Type (0, 0), None
#     Edge 135, Type (0, 0), None
#     Edge 136, Type (0, 0), None
#     Edge 137, Type (0, 0), None
#     Edge 138, Type (0, 0), None
#     Edge 139, Type (0, 0), None
#     Edge 140, Type (0, 0), None
#     Edge 141, Type (0, 0), None
#     Edge 142, Type (0, 0), None
#     Edge 143, Type (0, 0), None
#     Edge 144, Type (0, 0), None
#     Edge 145, Type (0, 0), None
#     Edge 146, Type (0, 0), None
#     Edge 147, Type (0, 0), None
#     Edge 148, Type (0, 0), None
#     Edge 149, Type (0, 0), None
#     Edge 150, Type (0, 0), None
#     Edge 151, Type (0, 0), None
#     Edge 152, Type (0, 0), None
#     Edge 153, Type (0, 0), None
#     Edge 154, Type (0, 0), None
#     Edge 155, Type (0, 0), None
#     Edge 156, Type (0, 0), None
#     Edge 157, Type (0, 0), None
#     Edge 158, Type (0, 0), None
#     Edge 159, Type (0, 0), None
#     Edge 160, Type (0, 0), None
#     Edge 161, Type (0, 0), None
#     Edge 162, Type (0, 0), None
#     Edge 163, Type (0, 0), None
#     Edge 164, Type (0, 0), None
#     Edge 165, Type (0, 0), None
#     Edge 166, Type (0, 0), None
#     Edge 167, Type (0, 0), None
#     Edge 168, Type (0, 0), None
#     Edge 169, Type (0, 0), None
#     Edge 170, Type (0, 0), None
#     Edge 171, Type (0, 0), None
#     Edge 172, Type (0, 0), None
#     Edge 173, Type (0, 0), None
#     Edge 174, Type (0, 0), None
#     Edge 175, Type (0, 0), None
#     Edge 176, Type (0, 0), None
#     Edge 177, Type (0, 0), None
#     Edge 178, Type (0, 0), None
#     Edge 179, Type (0, 0), None
#     Edge 180, Type (0, 0), None
#     Edge 181, Type (0, 0), None
#     Edge 182, Type (0, 0), None
#     Edge 183, Type (0, 0), None
#     Edge 184, Type (0, 0), None
#     Edge 185, Type (0, 0), None
#     Edge 186, Type (0, 0), None
#     Edge 187, Type (0, 0), None
#     Edge 188, Type (0, 0), None
#     Edge 189, Type (0, 0), None
#     Edge 190, Type (0, 0), None
#     Edge 191, Type (0, 0), None
# Relax obj value: 0.463
# Max RMSD: 0.337
# Mean RMSD: 0.291
data_MOF--net-lcs-e--node1-MIFKUJ_clean_sbu_0--edge1-none
_symmetry_space_group_name_H-M    P1
_symmetry_Int_Tables_number       1
_symmetry_cell_setting            triclinic
loop_
_symmetry_equiv_pos_as_xyz
'x, y, z'
_cell_length_a     28.500432
_cell_length_b     29.272624
_cell_length_c     29.352879
_cell_angle_alpha  84.858377
_cell_angle_beta   83.353584
_cell_angle_gamma 86.134632
loop_
_atom_site_label
_atom_site_type_symbol
_atom_site_fract_x
_atom_site_fract_y
_atom_site_fract_z
_atom_type_partial_charge
Zn0 Zn 0.05335 0.41638 0.1889 0.0
Zn1 Zn 0.0347 0.3825 0.30337 0.0
C2 C 0.9858 0.5177 0.2054 0.0
O3 O 0.9585 0.51636 0.17253 0.0
C4 C 0.07971 0.34022 0.38398 0.0
O5 O 0.03893 0.32451 0.4018 0.0
O6 O 0.10181 0.42971 0.1314 0.0
O7 O 0.10765 0.40331 0.22736 0.0
O8 O 0.06474 0.43953 0.27956 0.0
C9 C 0.11727 0.46964 0.12033 0.0
O10 O 0.0935 0.50527 0.13751 0.0
O11 O 0.01769 0.48407 0.21116 0.0
C12 C 0.94183 0.36852 0.34313 0.0
O13 O 0.94058 0.34434 0.30783 0.0
O14 O 0.97587 0.39397 0.34421 0.0
O15 O 0.02587 0.33144 0.2645 0.0
O16 O 0.0234 0.34754 0.19002 0.0
O17 O 0.08382 0.36019 0.34389 0.0
C18 C 0.10495 0.42332 0.26385 0.0
C19 C 0.02026 0.31801 0.22572 0.0
Zn20 Zn 0.86804 0.79023 0.48213 0.0
Zn21 Zn 0.87676 0.77073 0.58458 0.0
C22 C 0.77595 0.73943 0.4906 0.0
O23 O 0.78174 0.7485 0.44577 0.0
C24 C 0.90603 0.81941 0.64967 0.0
O25 O 0.91845 0.84566 0.6121 0.0
O26 O 0.8464 0.81569 0.419 0.0
O27 O 0.87009 0.84754 0.5159 0.0
O28 O 0.82829 0.82346 0.57855 0.0
C29 C 0.83657 0.85794 0.40652 0.0
O30 O 0.81403 0.86857 0.37012 0.0
O31 O 0.80842 0.75137 0.51367 0.0
C32 C 0.86925 0.6761 0.61599 0.0
O33 O 0.85055 0.63599 0.61996 0.0
O34 O 0.85394 0.70786 0.5882 0.0
O35 O 0.9435 0.77218 0.55049 0.0
O36 O 0.94095 0.76576 0.47657 0.0
O37 O 0.88787 0.78166 0.64679 0.0
C38 C 0.84558 0.85636 0.55294 0.0
C39 C 0.96518 0.76738 0.51067 0.0
Zn40 Zn 0.47681 0.68694 0.70735 0.0
Zn41 Zn 0.46931 0.70413 0.80421 0.0
C42 C 0.51238 0.57843 0.71545 0.0
O43 O 0.51423 0.57926 0.67046 0.0
C44 C 0.40997 0.70555 0.89439 0.0
O45 O 0.37932 0.67925 0.88153 0.0
O46 O 0.46164 0.67648 0.64454 0.0
O47 O 0.40607 0.69891 0.73622 0.0
O48 O 0.42298 0.65807 0.79773 0.0
C49 C 0.43234 0.64556 0.65501 0.0
O50 O 0.4275 0.62537 0.69672 0.0
O51 O 0.50424 0.61709 0.73492 0.0
C52 C 0.55063 0.71495 0.83513 0.0
O53 O 0.5315 0.75611 0.82514 0.0
O54 O 0.53388 0.68069 0.82026 0.0
O55 O 0.46923 0.76747 0.76605 0.0
O56 O 0.50875 0.75229 0.70008 0.0
O57 O 0.44438 0.72009 0.86669 0.0
C58 C 0.39211 0.67425 0.77237 0.0
C59 C 0.49196 0.78205 0.72808 0.0
Zn60 Zn 0.62497 0.19526 0.95744 0.0
Zn61 Zn 0.60404 0.22413 0.05785 0.0
C62 C 0.72539 0.24861 0.9611 0.0
O63 O 0.73293 0.26487 0.91788 0.0
C64 C 0.57887 0.15807 0.13635 0.0
O65 O 0.57581 0.12686 0.10764 0.0
O66 O 0.63735 0.14564 0.91222 0.0
O67 O 0.61418 0.14728 1.0093 0.0
O68 O 0.66008 0.18131 0.04804 0.0
C69 C 0.67798 0.1352 0.89224 0.0
O70 O 0.71194 0.16337 0.89182 0.0
O71 O 0.68884 0.22505 0.97374 0.0
C72 C 0.57947 0.30438 0.08838 0.0
O73 O 0.54032 0.29151 0.07528 0.0
O74 O 0.61865 0.2866 0.07129 0.0
O75 O 0.54361 0.22509 0.02528 0.0
O76 O 0.55794 0.22989 0.94988 0.0
O77 O 0.58485 0.19959 0.12174 0.0
C78 C 0.64686 0.1449 0.03519 0.0
C79 C 0.52833 0.23174 0.98601 0.0
Zn80 Zn 0.95648 0.67417 0.22098 0.0
Zn81 Zn 0.06738 0.62438 0.23222 0.0
C82 C 0.96455 0.77396 0.26671 0.0
O83 O 0.9185 0.77635 0.27733 0.0
C84 C 0.14732 0.61986 0.16484 0.0
O85 O 0.15922 0.65871 0.17807 0.0
O86 O 0.89614 0.69762 0.19545 0.0
O87 O -0.00392 0.67322 0.16323 0.0
O88 O 0.05346 0.68565 0.20182 0.0
C89 C 0.90171 0.73055 0.16431 0.0
O90 O 0.94233 0.74981 0.15728 0.0
O91 O 0.98415 0.7371 0.24854 0.0
C92 C 0.12518 0.57739 0.28289 0.0
O93 O 0.10835 0.54844 0.25846 0.0
O94 O 0.11066 0.61943 0.28029 0.0
O95 O 0.02648 0.57016 0.24127 0.0
O96 O 0.95877 0.59855 0.21943 0.0
O97 O 0.10915 0.60242 0.18155 0.0
C98 C 0.03842 0.68199 0.16343 0.0
C99 C 0.98827 0.56371 0.22617 0.0
Zn100 Zn 0.63452 0.71063 0.50663 0.0
Zn101 Zn 0.65135 0.82047 0.50038 0.0
C102 C 0.52499 0.72669 0.53533 0.0
O103 O 0.52217 0.68291 0.53025 0.0
C104 C 0.66369 0.89236 0.42665 0.0
O105 O 0.61806 0.89266 0.42409 0.0
O106 O 0.61648 0.65183 0.48967 0.0
O107 O 0.64294 0.74776 0.44527 0.0
O108 O 0.59716 0.80574 0.47027 0.0
C109 C 0.62244 0.64473 0.44745 0.0
O110 O 0.65243 0.66832 0.41876 0.0
O111 O 0.56665 0.74238 0.5347 0.0
C112 C 0.6781 0.85786 0.57648 0.0
O113 O 0.67838 0.86442 0.62003 0.0
O114 O 0.64159 0.84258 0.56322 0.0
O115 O 0.69702 0.76869 0.50686 0.0
O116 O 0.70612 0.69696 0.52256 0.0
O117 O 0.68286 0.86563 0.45621 0.0
C118 C 0.613 0.78062 0.43833 0.0
C119 C 0.72549 0.73463 0.5115 0.0
Zn120 Zn 0.46053 0.43414 0.75388 0.0
Zn121 Zn 0.47848 0.39361 0.65193 0.0
C122 C 0.50743 0.53219 0.74325 0.0
O123 O 0.49825 0.53231 0.78809 0.0
C124 C 0.4027 0.39635 0.59956 0.0
O125 O 0.42633 0.42917 0.57586 0.0
O126 O 0.42234 0.45974 0.80672 0.0
O127 O 0.40637 0.43439 0.7189 0.0
O128 O 0.45586 0.45841 0.66188 0.0
C129 C 0.40052 0.49748 0.79465 0.0
O130 O 0.40967 0.51753 0.75313 0.0
O131 O 0.50146 0.49473 0.72409 0.0
C132 C 0.53065 0.35883 0.57895 0.0
O133 O 0.4992 0.32832 0.59255 0.0
O134 O 0.52834 0.3953 0.59921 0.0
O135 O 0.49233 0.33739 0.69606 0.0
O136 O 0.4614 0.36045 0.76293 0.0
O137 O 0.42022 0.37325 0.63255 0.0
C138 C 0.41374 0.4562 0.68054 0.0
C139 C 0.4719 0.32781 0.73621 0.0
Zn140 Zn 0.87132 0.2687 0.96984 0.0
Zn141 Zn 0.83185 0.16695 0.9903 0.0
C142 C 0.98072 0.25055 1.00492 0.0
O143 O 0.98794 0.29464 0.99936 0.0
C144 C 0.83294 0.1061 0.92306 0.0
O145 O 0.87559 0.09335 0.93368 0.0
O146 O 0.88918 0.32307 0.92771 0.0
O147 O 0.86296 0.22965 0.9205 0.0
O148 O 0.89604 0.1796 0.96648 0.0
C149 C 0.92886 0.31386 0.90553 0.0
O150 O 0.95533 0.27867 0.91936 0.0
O151 O 0.93841 0.23746 1.00113 0.0
C152 C 0.80736 0.09022 0.04703 0.0
O153 O 0.76628 0.09793 0.03107 0.0
O154 O 0.83981 0.11738 0.03503 0.0
O155 O 0.77675 0.20907 1.01151 0.0
O156 O 0.79731 0.27688 0.9811 0.0
O157 O 0.80985 0.13978 0.94065 0.0
C158 C 0.8939 0.19832 0.92656 0.0
C159 C 0.76569 0.24734 0.9907 0.0
Zn160 Zn 0.25021 0.97554 0.42219 0.0
Zn161 Zn 0.23649 0.07361 0.4538 0.0
C162 C 0.21292 0.99363 0.31961 0.0
O163 O 0.19675 0.95233 0.32569 0.0
C164 C 0.26488 0.15902 0.48553 0.0
O165 O 0.24707 0.19097 0.51129 0.0
O166 O 0.27776 0.91413 0.40408 0.0
O167 O 0.31517 1.00015 0.42909 0.0
O168 O 0.29795 0.07309 0.41275 0.0
C169 C 0.30953 0.92277 0.37097 0.0
O170 O 0.31224 0.96476 0.35151 0.0
O171 O 0.22943 1.00927 0.35441 0.0
C172 C 0.14968 0.11886 0.46524 0.0
O173 O 0.14153 0.08678 0.49885 0.0
O174 O 0.17938 0.10919 0.43105 0.0
O175 O 0.22982 0.03016 0.51138 0.0
O176 O 0.21767 0.96125 0.49385 0.0
O177 O 0.242 0.12368 0.489 0.0
C178 C 0.32854 0.04001 0.41543 0.0
C179 C 0.22076 0.98908 0.52484 0.0
Zn180 Zn 0.18364 0.94582 0.67655 0.0
Zn181 Zn 0.20469 0.05991 0.63022 0.0
C182 C 0.23572 0.95708 0.77104 0.0
O183 O 0.24945 0.91332 0.77374 0.0
C184 C 0.13422 0.12925 0.59705 0.0
O185 O 0.09052 0.13208 0.58679 0.0
O186 O 0.14764 0.89051 0.70517 0.0
O187 O 0.12665 0.98746 0.67183 0.0
O188 O 0.16031 0.0487 0.68664 0.0
C189 C 0.12165 0.89779 0.74258 0.0
O190 O 0.12431 0.93679 0.76057 0.0
O191 O 0.21463 0.97392 0.73549 0.0
C192 C 0.29595 0.09186 0.61927 0.0
O193 O 0.30406 0.0563 0.59479 0.0
O194 O 0.25515 0.0995 0.64024 0.0
O195 O 0.23534 1.00465 0.60071 0.0
O196 O 0.19961 0.94253 0.60061 0.0
O197 O 0.15863 0.09183 0.59086 0.0
C198 C 0.12335 0.02884 0.68121 0.0
C199 C 0.21748 0.97747 0.57733 0.0
Zn200 Zn 0.27053 0.9868 0.91504 0.0
Zn201 Zn 0.13476 0.97546 0.86216 0.0
C202 C 0.26919 0.0386 0.01546 0.0
O203 O 0.31414 0.04645 1.0143 0.0
C204 C 0.08193 0.90364 0.8805 0.0
O205 O 0.05773 0.93711 0.90111 0.0
O206 O 0.30007 0.9259 0.93857 0.0
O207 O 0.20457 0.98206 0.91696 0.0
O208 O 0.13149 0.96829 0.9293 0.0
C209 C 0.32147 0.92276 0.97453 0.0
O210 O 0.32814 0.95944 0.99458 0.0
O211 O 0.25459 0.02085 0.98085 0.0
C212 C 0.08915 0.05077 0.82348 0.0
O213 O 0.12803 0.04973 0.79484 0.0
O214 O 0.08221 0.01928 0.85493 0.0
O215 O 0.19814 1.00156 0.83254 0.0
O216 O 0.27226 0.97935 0.83856 0.0
O217 O 0.11925 0.91207 0.85349 0.0
C218 C 0.17137 0.96518 0.94328 0.0
C219 C 0.23659 0.98332 0.81399 0.0
Zn220 Zn 0.22326 1.00213 0.16915 0.0
Zn221 Zn 0.31664 1.00595 0.19645 0.0
C222 C 0.23802 0.03883 0.06124 0.0
O223 O 0.19274 0.03344 0.06065 0.0
C224 C 0.39193 0.94542 0.20434 0.0
O225 O 0.40952 0.96815 0.16637 0.0
O226 O 0.16565 0.97719 0.15182 0.0
O227 O 0.25909 0.93989 0.18175 0.0
O228 O 0.31893 0.96899 0.13993 0.0
C229 C 0.18115 0.94959 0.12198 0.0
O230 O 0.22507 0.95007 0.10329 0.0
O231 O 0.25536 0.03446 0.10083 0.0
C232 C 0.36686 0.06388 0.24189 0.0
O233 O 0.32866 0.06083 0.27114 0.0
O234 O 0.3676 0.04967 0.20196 0.0
O235 O 0.27287 1.00016 0.2565 0.0
O236 O 0.20229 0.02073 0.23857 0.0
O237 O 0.35035 0.9548 0.22151 0.0
C238 C 0.29673 0.93365 0.15533 0.0
C239 C 0.23005 1.01 0.26988 0.0
Zn240 Zn 0.38436 0.28267 0.96412 0.0
Zn241 Zn 0.39644 0.26655 0.07136 0.0
C242 C 0.28466 0.24312 0.95779 0.0
O243 O 0.29522 0.25454 0.91371 0.0
C244 C 0.41116 0.31417 0.1528 0.0
O245 O 0.37001 0.33697 0.15182 0.0
O246 O 0.37682 0.32157 0.90496 0.0
O247 O 0.39387 0.33853 1.00225 0.0
O248 O 0.34725 0.31755 0.06321 0.0
C249 C 0.34569 0.35266 0.91654 0.0
O250 O 0.32092 0.34753 0.95668 0.0
O251 O 0.31564 0.25037 0.98502 0.0
C252 C 0.41241 0.18426 0.11437 0.0
O253 O 0.45295 0.19388 0.09082 0.0
O254 O 0.37506 0.20786 0.10511 0.0
O255 O 0.45509 0.25511 0.02574 0.0
O256 O 0.4516 0.24713 0.95304 0.0
O257 O 0.42666 0.28768 0.12184 0.0
C258 C 0.36649 0.34945 0.03747 0.0
C259 C 0.47625 0.24648 0.98673 0.0
Zn260 Zn 0.9724 0.91584 0.28467 0.0
Zn261 Zn 0.96976 0.8561 0.17679 0.0
C262 C 0.01598 0.01932 0.25699 0.0
O263 O 0.01642 0.0256 0.30065 0.0
C264 C 0.89311 0.84961 0.14279 0.0
O265 O 0.92402 0.86564 0.10971 0.0
O266 O 0.9253 0.93943 0.33384 0.0
O267 O 0.92613 0.90494 0.24175 0.0
O268 O 0.95365 0.92254 0.17052 0.0
C269 C 0.90682 0.97932 0.32447 0.0
O270 O 0.92344 1.00454 0.28803 0.0
O271 O 0.00662 0.97874 0.2461 0.0
C272 C 0.05161 0.82678 0.13575 0.0
O273 O 0.05283 0.80258 0.17541 0.0
O274 O 0.01373 0.84658 0.12437 0.0
O275 O -0.00021 0.84408 0.23235 0.0
O276 O 0.98649 0.84118 0.30381 0.0
O277 O 0.90691 0.83247 0.18032 0.0
C278 C 0.92899 0.9333 0.20693 0.0
C279 C 0.99063 0.81818 0.2683 0.0
Zn280 Zn 0.11951 0.74387 0.47131 0.0
Zn281 Zn 0.09551 0.73701 0.57167 0.0
C282 C 0.22603 0.77587 0.47624 0.0
O283 O 0.22972 0.79016 0.43229 0.0
C284 C 0.06868 0.67055 0.64231 0.0
O285 O 0.06624 0.64729 0.60656 0.0
O286 O 0.1306 0.7343 0.4047 0.0
O287 O 0.11247 0.67703 0.49672 0.0
O288 O 0.14823 0.69299 0.55428 0.0
C289 C 0.15369 0.69619 0.40062 0.0
O290 O 0.18608 0.68532 0.42839 0.0
O291 O 0.18604 0.76107 0.49542 0.0
C292 C 0.09968 0.82513 0.60183 0.0
O293 O 0.11648 0.8654 0.60425 0.0
O294 O 0.11646 0.8005 0.56984 0.0
O295 O 0.03257 0.73571 0.54499 0.0
O296 O 0.04889 0.77409 0.478 0.0
O297 O 0.08066 0.71182 0.63629 0.0
C298 C 0.13689 0.66382 0.52928 0.0
C299 C 0.01812 0.75705 0.5091 0.0
Zn300 Zn 0.95099 0.64101 0.72587 0.0
Zn301 Zn 0.93229 0.60715 0.84035 0.0
C302 C 0.90598 0.6833 0.64527 0.0
O303 O 0.94676 0.699 0.62743 0.0
C304 C -0.00013 0.50582 0.82387 0.0
O305 O 0.0272 0.50718 0.85671 0.0
O306 O 0.00982 0.62956 0.68502 0.0
O307 O 0.95983 0.69206 0.76477 0.0
O308 O 0.96224 0.67598 0.83925 0.0
C309 C 0.04389 0.65496 0.68615 0.0
O310 O 0.04516 0.67913 0.72145 0.0
O311 O 0.90187 0.66332 0.68536 0.0
C312 C 0.86832 0.55392 0.90897 0.0
O313 O 0.89216 0.51825 0.89193 0.0
O314 O 0.88375 0.59384 0.8978 0.0
O315 O 0.87805 0.62024 0.80184 0.0
O316 O 0.92097 0.58397 0.74969 0.0
O317 O 0.96795 0.53943 0.81813 0.0
C318 C 0.96542 0.7055 0.80354 0.0
C319 C 0.88076 0.60019 0.76537 0.0
Zn320 Zn 0.10891 0.25279 0.44471 0.0
Zn321 Zn 0.11765 0.23324 0.5472 0.0
C322 C 0.07961 0.2041 0.37963 0.0
O323 O 0.06721 0.17784 0.4172 0.0
C324 C 0.21003 0.28355 0.5387 0.0
O325 O 0.20444 0.27422 0.5835 0.0
O326 O 0.13174 0.31566 0.44106 0.0
O327 O 0.04219 0.25134 0.47883 0.0
O328 O 0.04474 0.25773 0.55275 0.0
C329 C 0.11643 0.34742 0.41326 0.0
O330 O 0.13514 0.38753 0.40929 0.0
O331 O 0.09777 0.24185 0.38251 0.0
C332 C 0.14899 0.16547 0.62283 0.0
O333 O 0.17139 0.15481 0.65931 0.0
O334 O 0.1392 0.20774 0.61035 0.0
O335 O 0.11563 0.17597 0.51338 0.0
O336 O 0.1574 0.20007 0.45071 0.0
O337 O 0.17733 0.27203 0.51567 0.0
C338 C 0.02051 0.25612 0.51866 0.0
C339 C 0.14013 0.16717 0.47633 0.0
Zn340 Zn 0.5164 0.31943 0.22509 0.0
Zn341 Zn 0.50882 0.33663 0.32189 0.0
C342 C 0.57573 0.31797 0.13492 0.0
O343 O 0.60637 0.34429 0.14775 0.0
C344 C 0.47321 0.44512 0.31376 0.0
O345 O 0.4713 0.44427 0.35876 0.0
O346 O 0.45185 0.3429 0.20901 0.0
O347 O 0.51645 0.25608 0.26326 0.0
O348 O 0.47688 0.27128 0.3292 0.0
C349 C 0.43509 0.30863 0.19417 0.0
O350 O 0.45415 0.26745 0.20422 0.0
O351 O 0.54132 0.30343 0.16264 0.0
C352 C 0.55326 0.37809 0.37419 0.0
O353 O 0.55812 0.39825 0.33247 0.0
O354 O 0.52397 0.34716 0.38467 0.0
O355 O 0.57959 0.32462 0.2931 0.0
O356 O 0.56279 0.36544 0.23154 0.0
O357 O 0.48138 0.40647 0.29429 0.0
C358 C 0.4937 0.24151 0.30122 0.0
C359 C 0.59362 0.34924 0.25695 0.0
Zn360 Zn 0.38167 0.79937 0.97141 0.0
Zn361 Zn 0.36073 0.82826 0.07183 0.0
C362 C 0.40687 0.86543 0.89294 0.0
O363 O 0.40998 0.8966 0.92167 0.0
C364 C 0.26032 0.7749 0.06817 0.0
O365 O 0.25283 0.75858 0.11137 0.0
O366 O 0.36706 0.7369 0.95798 0.0
O367 O 0.44209 0.79841 1.00399 0.0
O368 O 0.42776 0.79364 0.07939 0.0
C369 C 0.40624 0.71907 0.94096 0.0
O370 O 0.44541 0.73187 0.95408 0.0
O371 O 0.40086 0.8239 0.90751 0.0
C372 C 0.30769 0.88832 0.137 0.0
O373 O 0.27372 0.86016 0.13738 0.0
O374 O 0.34833 0.87787 0.11706 0.0
O375 O 0.37154 0.87624 0.01998 0.0
O376 O 0.32565 0.8422 0.98122 0.0
O377 O 0.29685 0.79849 0.05553 0.0
C378 C 0.45737 0.79179 0.04326 0.0
C379 C 0.33888 0.87861 0.99407 0.0
Zn380 Zn 0.91826 0.39913 0.79707 0.0
Zn381 Zn 0.02916 0.34933 0.80834 0.0
C382 C 0.83833 0.40368 0.86445 0.0
O383 O 0.82642 0.36483 0.85125 0.0
C384 C 0.02109 0.24957 0.76259 0.0
O385 O 0.06714 0.2472 0.75194 0.0
O386 O 0.87499 0.40408 0.74899 0.0
O387 O 0.95917 0.45334 0.78804 0.0
O388 O 0.0269 0.42496 0.80985 0.0
C389 C 0.86048 0.44613 0.74638 0.0
O390 O 0.87732 0.47507 0.7708 0.0
O391 O 0.8765 0.42112 0.84772 0.0
C392 C 0.08388 0.29297 0.8651 0.0
O393 O 0.04326 0.27371 0.87219 0.0
O394 O 0.08945 0.32583 0.8339 0.0
O395 O 0.98956 0.35033 0.86608 0.0
O396 O 0.93214 0.33787 0.82751 0.0
O397 O 0.00148 0.28642 0.78077 0.0
C398 C -0.00261 0.4598 0.80313 0.0
C399 C 0.94722 0.34157 0.86587 0.0
Zn400 Zn 0.33432 0.20297 0.52885 0.0
Zn401 Zn 0.35103 0.31308 0.52262 0.0
C402 C 0.32177 0.13136 0.60268 0.0
O403 O 0.36745 0.13087 0.60504 0.0
C404 C 0.46063 0.29692 0.49399 0.0
O405 O 0.46348 0.34068 0.49912 0.0
O406 O 0.34422 0.18072 0.46606 0.0
O407 O 0.28939 0.25526 0.52195 0.0
O408 O 0.27924 0.32685 0.50677 0.0
C409 C 0.30766 0.16558 0.45278 0.0
O410 O 0.30735 0.15907 0.40922 0.0
O411 O 0.30254 0.15814 0.57321 0.0
C412 C 0.3632 0.37883 0.58186 0.0
O413 O 0.33327 0.3552 0.61058 0.0
O414 O 0.36911 0.37182 0.53962 0.0
O415 O 0.34277 0.27581 0.58396 0.0
O416 O 0.38847 0.21769 0.55901 0.0
O417 O 0.41895 0.28127 0.49458 0.0
C418 C 0.26036 0.28892 0.51754 0.0
C419 C 0.37268 0.2429 0.59091 0.0
Zn420 Zn 0.50719 0.62985 0.37738 0.0
Zn421 Zn 0.52512 0.58939 0.27545 0.0
C422 C 0.58299 0.62712 0.42975 0.0
O423 O 0.55936 0.59433 0.45349 0.0
C424 C 0.47817 0.49137 0.28599 0.0
O425 O 0.48737 0.49127 0.24115 0.0
O426 O 0.45735 0.6282 0.4301 0.0
O427 O 0.49338 0.68609 0.33326 0.0
O428 O 0.52423 0.66306 0.26637 0.0
C429 C 0.4551 0.66465 0.45039 0.0
O430 O 0.4866 0.69511 0.43683 0.0
O431 O 0.56548 0.6502 0.39673 0.0
C432 C 0.58512 0.52603 0.23466 0.0
O433 O 0.57595 0.50595 0.27617 0.0
O434 O 0.56333 0.56379 0.22261 0.0
O435 O 0.57926 0.5891 0.31046 0.0
O436 O 0.52979 0.56502 0.36747 0.0
O437 O 0.48415 0.52881 0.30518 0.0
C438 C 0.51376 0.69569 0.2931 0.0
C439 C 0.5719 0.56724 0.34879 0.0
Zn440 Zn 0.15381 0.85658 0.03904 0.0
Zn441 Zn 0.11434 0.75482 0.05944 0.0
C442 C 0.15266 0.91736 0.10633 0.0
O443 O 0.11006 0.93018 0.09562 0.0
C444 C 0.00494 0.77295 0.02439 0.0
O445 O -0.0023 0.72887 0.03004 0.0
O446 O 0.14587 0.90623 0.99439 0.0
O447 O 0.20892 0.81448 0.01781 0.0
O448 O 0.18835 0.74667 0.04822 0.0
C449 C 0.17837 0.93332 0.98235 0.0
O450 O 0.21951 0.92545 0.99816 0.0
O451 O 0.17577 0.88366 0.08878 0.0
C452 C 0.05679 0.70971 0.12378 0.0
O453 O 0.03034 0.74493 0.10999 0.0
O454 O 0.09644 0.70046 0.10156 0.0
O455 O 0.12265 0.79386 0.1088 0.0
O456 O 0.0896 0.84391 0.06278 0.0
O457 O 0.04725 0.78605 0.02814 0.0
C458 C 0.21999 0.7762 0.0386 0.0
C459 C 0.09175 0.82522 0.10271 0.0
Zn460 Zn 0.7492 0.95002 0.57558 0.0
Zn461 Zn 0.73548 0.04797 0.60711 0.0
C462 C 0.72085 0.8647 0.54369 0.0
O463 O 0.73893 0.83286 0.51792 0.0
C464 C 0.77273 0.02987 0.7097 0.0
O465 O 0.78888 0.07119 0.70363 0.0
O466 O 0.8063 0.9143 0.59822 0.0
O467 O 0.75585 0.99337 0.51795 0.0
O468 O 0.76804 0.06227 0.53546 0.0
C469 C 0.83599 0.90467 0.56401 0.0
O470 O 0.84417 0.93677 0.53041 0.0
O471 O 0.74362 0.90008 0.54037 0.0
C472 C 0.67617 0.10077 0.65831 0.0
O473 O 0.67344 0.05878 0.67777 0.0
O474 O 0.70794 0.10939 0.62519 0.0
O475 O 0.67051 0.02336 0.6002 0.0
O476 O 0.68774 0.95044 0.6166 0.0
O477 O 0.75624 0.01423 0.67489 0.0
C478 C 0.76493 0.03445 0.50447 0.0
C479 C 0.65714 0.98351 0.61388 0.0
Zn480 Zn 0.78092 0.96355 0.39914 0.0
Zn481 Zn 0.80201 0.0777 0.35275 0.0
C482 C 0.85138 0.8942 0.43224 0.0
O483 O 0.89511 0.89139 0.44242 0.0
C484 C 0.74993 0.06645 0.25827 0.0
O485 O 0.73619 0.11021 0.25556 0.0
O486 O 0.73038 0.92402 0.38915 0.0
O487 O 0.75034 0.01885 0.42862 0.0
O488 O 0.78605 0.08099 0.42869 0.0
C489 C 0.68951 0.93183 0.40992 0.0
O490 O 0.68131 0.96752 0.43421 0.0
O491 O 0.82693 0.93158 0.43851 0.0
C492 C 0.86399 0.12574 0.28672 0.0
O493 O 0.86135 0.08673 0.26874 0.0
O494 O 0.83801 0.13302 0.32413 0.0
O495 O 0.859 0.03604 0.35746 0.0
O496 O 0.82535 0.97473 0.34274 0.0
O497 O 0.77102 0.04961 0.29381 0.0
C498 C 0.76821 0.04604 0.45199 0.0
C499 C 0.86228 0.99464 0.34815 0.0
Zn500 Zn 0.85093 0.04809 0.1672 0.0
Zn501 Zn 0.71519 0.0367 0.11424 0.0
C502 C 0.90375 0.11991 0.14885 0.0
O503 O 0.92797 0.08642 0.12829 0.0
C504 C 0.71648 0.98489 1.01383 0.0
O505 O 0.67152 0.97705 0.015 0.0
O506 O 0.90349 1.0043 0.17446 0.0
O507 O 0.78754 0.02198 0.19677 0.0
O508 O 0.71342 0.04416 0.19073 0.0
C509 C 0.89654 0.97278 0.20588 0.0
O510 O 0.85764 0.97379 0.23451 0.0
O511 O 0.86641 0.11151 0.17584 0.0
C512 C 0.66427 0.10075 0.05474 0.0
O513 O 0.65756 0.06407 0.03472 0.0
O514 O 0.6857 0.09761 0.09068 0.0
O515 O 0.78116 0.0414 0.11234 0.0
O516 O 0.85424 0.05523 0.10006 0.0
O517 O 0.73109 1.00263 0.04844 0.0
C518 C 0.74908 0.04021 0.21531 0.0
C519 C 0.81436 0.05832 0.08606 0.0
Zn520 Zn 0.66901 0.01754 0.83287 0.0
Zn521 Zn 0.7624 0.02136 0.86015 0.0
C522 C 0.59374 0.07809 0.82493 0.0
O523 O 0.57613 0.0554 0.86292 0.0
C524 C 0.74764 0.98463 0.96805 0.0
O525 O 0.79292 0.99001 0.96863 0.0
O526 O 0.61804 0.97383 0.82737 0.0
O527 O 0.71278 0.02331 0.77281 0.0
O528 O 0.78337 1.00276 0.79073 0.0
C529 C 0.61881 0.95959 0.78745 0.0
O530 O 0.65705 0.96256 0.75825 0.0
O531 O 0.63531 0.06867 0.80777 0.0
C532 C 0.80447 0.0739 0.90735 0.0
O533 O 0.76054 0.07341 0.92601 0.0
O534 O 0.81999 0.0463 0.87751 0.0
O535 O 0.72656 0.08359 0.84753 0.0
O536 O 0.66671 0.05453 0.88936 0.0
O537 O 0.73029 0.98903 0.92846 0.0
C538 C 0.75561 0.01349 0.75942 0.0
C539 C 0.68893 0.08985 0.87395 0.0
Zn540 Zn 0.58925 0.757 0.95791 0.0
Zn541 Zn 0.6013 0.74086 0.06511 0.0
C542 C 0.57458 0.70941 0.87649 0.0
O543 O 0.61586 0.68684 0.87734 0.0
C544 C 0.70112 0.78022 0.07127 0.0
O545 O 0.69068 0.76868 0.11535 0.0
O546 O 0.61063 0.81566 0.92411 0.0
O547 O 0.53062 0.76845 1.00355 0.0
O548 O 0.53409 0.77642 0.07625 0.0
C549 C 0.57329 0.83928 0.91488 0.0
O550 O 0.53277 0.82974 0.93851 0.0
O551 O 0.55899 0.7358 0.90751 0.0
C552 C 0.6399 0.67084 0.11266 0.0
O553 O 0.66462 0.67593 0.07248 0.0
O554 O 0.60885 0.70197 0.12427 0.0
O555 O 0.59171 0.68504 0.02696 0.0
O556 O 0.63843 0.70602 0.96609 0.0
O557 O 0.67003 0.77312 0.04411 0.0
C558 C 0.50945 0.77707 0.04255 0.0
C559 C 0.61911 0.67412 0.99175 0.0
Zn560 Zn 0.01584 0.16744 0.85245 0.0
Zn561 Zn 0.01327 0.10767 0.74463 0.0
C562 C 0.0925 0.17384 0.88642 0.0
O563 O 0.06159 0.15776 0.91948 0.0
C564 C 0.96969 1.0042 0.77232 0.0
O565 O 0.96924 0.99794 0.72865 0.0
O566 O 0.97192 0.17697 0.9049 0.0
O567 O 0.98574 0.17949 0.79693 0.0
O568 O -0.00077 0.18233 0.72547 0.0
C569 C 0.93406 0.19684 0.89354 0.0
O570 O 0.93286 0.22111 0.85391 0.0
O571 O 0.0787 0.19106 0.84892 0.0
C572 C 0.07881 0.04417 0.70486 0.0
O573 O 0.06223 0.01899 0.74135 0.0
O574 O 0.06033 0.08406 0.69545 0.0
O575 O 0.05957 0.11857 0.78753 0.0
O576 O 0.03192 0.10098 0.85872 0.0
O577 O 0.97904 0.04478 0.78321 0.0
C578 C -0.00499 0.20535 0.76097 0.0
C579 C 0.05667 0.09023 0.82236 0.0
Zn580 Zn 0.8902 0.28653 0.45763 0.0
Zn581 Zn 0.86615 0.27966 0.55799 0.0
C582 C 0.91696 0.353 0.38694 0.0
O583 O 0.91931 0.37635 0.42264 0.0
C584 C 0.75962 0.24767 0.55304 0.0
O585 O 0.75592 0.23343 0.59699 0.0
O586 O 0.86923 0.22304 0.45945 0.0
O587 O 0.95312 0.2878 0.48433 0.0
O588 O 0.93679 0.24945 0.55133 0.0
C589 C 0.88598 0.19841 0.42746 0.0
O590 O 0.86916 0.15815 0.42504 0.0
O591 O 0.90507 0.3117 0.39301 0.0
C592 C 0.83191 0.32732 0.62869 0.0
O593 O 0.79954 0.33822 0.6009 0.0
O594 O 0.85499 0.28921 0.62462 0.0
O595 O 0.87319 0.34651 0.53261 0.0
O596 O 0.83749 0.33056 0.47501 0.0
O597 O 0.79962 0.26245 0.53385 0.0
C598 C 0.96757 0.26647 0.52022 0.0
C599 C 0.84881 0.35972 0.50002 0.0
Zn600 Zn 0.534 0.92833 0.68925 0.0
Zn601 Zn 0.50129 0.90195 0.80319 0.0
C602 C 0.45891 0.02602 0.68998 0.0
O603 O 0.43154 0.01963 0.65837 0.0
C604 C 0.57077 0.86474 0.87038 0.0
O605 O 0.6085 0.86933 0.84061 0.0
O606 O 0.58789 0.94051 0.63712 0.0
O607 O 0.58063 0.92113 0.73661 0.0
O608 O 0.53582 0.95822 0.78786 0.0
C609 C 0.60831 0.97821 0.6362 0.0
O610 O 0.5889 1.01015 0.66216 0.0
O611 O 0.49222 0.99479 0.69867 0.0
C612 C 0.41823 0.87619 0.84398 0.0
O613 O 0.42819 0.84125 0.81889 0.0
O614 O 0.43598 0.91432 0.8306 0.0
O615 O 0.50267 0.8498 0.76241 0.0
O616 O 0.50969 0.85934 0.6871 0.0
O617 O 0.52958 0.87465 0.8586 0.0
C618 C 0.57643 0.94425 0.77135 0.0
C619 C 0.50405 0.83244 0.72424 0.0
Zn620 Zn 0.98193 0.17296 0.20817 0.0
Zn621 Zn 0.97286 0.19191 0.30576 0.0
C622 C 0.01264 0.06226 0.22315 0.0
O623 O 0.00217 0.05713 0.18163 0.0
C624 C 0.92286 0.2146 0.39232 0.0
O625 O 0.96348 0.22563 0.40398 0.0
O626 O 0.96745 0.16462 0.14529 0.0
O627 O 0.91287 0.17959 0.2407 0.0
O628 O 0.9442 0.13547 0.29253 0.0
C629 C 0.9232 0.16476 0.14339 0.0
O630 O 0.89584 0.20014 0.15665 0.0
O631 O 0.01156 0.10381 0.23639 0.0
C632 C 0.06045 0.1969 0.33771 0.0
O633 O 0.06756 0.22692 0.30207 0.0
O634 O 0.02525 0.17239 0.34172 0.0
O635 O 0.98422 0.25418 0.26838 0.0
O636 O 0.01397 0.23947 0.19898 0.0
O637 O 0.91935 0.20638 0.35146 0.0
C638 C 0.90766 0.14992 0.27451 0.0
C639 C 0.00337 0.26891 0.22889 0.0
Zn640 Zn 0.44015 0.1829 0.69273 0.0
Zn641 Zn 0.54016 0.13555 0.71918 0.0
C642 C 0.44561 0.28338 0.74455 0.0
O643 O 0.40216 0.28606 0.76499 0.0
C644 C 0.63673 0.1328 0.6696 0.0
O645 O 0.64346 0.17433 0.67968 0.0
O646 O 0.38584 0.20477 0.66091 0.0
O647 O 0.49089 0.18305 0.6403 0.0
O648 O 0.52731 0.19751 0.69777 0.0
C649 C 0.39463 0.23906 0.63258 0.0
O650 O 0.43344 0.26051 0.63297 0.0
O651 O 0.45865 0.2482 0.72129 0.0
C652 C 0.5643 0.09062 0.79041 0.0
O653 O 0.56747 0.06234 0.75779 0.0
O654 O 0.55324 0.13259 0.7817 0.0
O655 O 0.50269 0.08374 0.71106 0.0
O656 O 0.43118 0.10812 0.69864 0.0
O657 O 0.5977 0.11492 0.68187 0.0
C658 C 0.52661 0.1969 0.65527 0.0
C659 C 0.46249 0.07463 0.70324 0.0
Zn660 Zn 0.14211 0.211 0.96219 0.0
Zn661 Zn 0.15486 0.3236 0.96807 0.0
C662 C 0.0243 0.21673 1.00325 0.0
O663 O 0.01771 0.17261 1.0055 0.0
C664 C 0.16726 0.39663 0.89394 0.0
O665 O 0.12668 0.38695 0.88171 0.0
O666 O 0.15308 0.15356 0.93036 0.0
O667 O 0.14569 0.25639 0.90428 0.0
O668 O 0.09979 0.30922 0.93822 0.0
C669 C 0.14154 0.16097 0.89004 0.0
O670 O 0.17385 0.17041 0.85534 0.0
O671 O 0.06692 0.23072 0.99142 0.0
C672 C 0.17479 0.35943 0.05048 0.0
O673 O 0.16968 0.3656 0.09444 0.0
O674 O 0.14162 0.34238 0.03305 0.0
O675 O 0.20547 0.27455 0.96974 0.0
O676 O 0.21155 0.20227 0.98468 0.0
O677 O 0.18344 0.37533 0.92884 0.0
C678 C 0.11345 0.28837 0.90264 0.0
C679 C 0.23229 0.23919 0.97371 0.0
Zn680 Zn 0.38403 0.76752 0.48752 0.0
Zn681 Zn 0.31583 0.67746 0.48326 0.0
C682 C 0.48182 0.75855 0.52752 0.0
O683 O 0.48919 0.79869 0.50503 0.0
C684 C 0.31997 0.66106 0.39138 0.0
O685 O 0.35891 0.63482 0.39408 0.0
O686 O 0.41772 0.81286 0.44649 0.0
O687 O 0.39129 0.71636 0.44965 0.0
O688 O 0.38214 0.65661 0.49678 0.0
C689 C 0.42173 0.80657 0.40416 0.0
O690 O 0.39489 0.77864 0.38784 0.0
O691 O 0.4395 0.74354 0.53136 0.0
C692 C 0.26487 0.61166 0.53406 0.0
O693 O 0.24667 0.6467 0.55635 0.0
O694 O 0.28684 0.61975 0.49519 0.0
O695 O 0.27646 0.72496 0.51916 0.0
O696 O 0.30905 0.78609 0.48471 0.0
O697 O 0.31355 0.69475 0.41602 0.0
C698 C 0.4093 0.6815 0.47013 0.0
C699 C 0.27139 0.76457 0.49866 0.0
Zn700 Zn 0.74557 0.48137 0.94181 0.0
Zn701 Zn 0.72623 0.5766 0.97015 0.0
C702 C 0.71757 0.50511 0.83847 0.0
O703 O 0.72138 0.46072 0.83397 0.0
C704 C 0.76499 0.6576 1.00664 0.0
O705 O 0.74841 0.68641 0.03578 0.0
O706 O 0.77225 0.42262 0.91774 0.0
O707 O 0.80904 0.50852 0.95104 0.0
O708 O 0.78625 0.57748 0.92519 0.0
C709 C 0.80371 0.43509 0.88581 0.0
O710 O 0.80703 0.47874 0.87228 0.0
O711 O 0.71973 0.51934 0.87904 0.0
C712 C 0.63742 0.62567 0.98867 0.0
O713 O 0.6357 0.59851 0.02687 0.0
O714 O 0.66615 0.61436 0.95414 0.0
O715 O 0.72424 0.53183 0.02815 0.0
O716 O 0.71582 0.46178 1.01155 0.0
O717 O 0.73815 0.62662 1.00226 0.0
C718 C 0.81967 0.54785 0.93248 0.0
C719 C 0.71884 0.48987 0.04195 0.0
Zn720 Zn 0.69423 0.43568 0.19416 0.0
Zn721 Zn 0.71087 0.54955 0.16076 0.0
C722 C 0.76166 0.46952 0.2818 0.0
O723 O 0.73033 0.45616 0.25752 0.0
C724 C 0.64939 0.62935 0.14169 0.0
O725 O 0.63372 0.62586 0.18556 0.0
O726 O 0.66333 0.37507 0.21285 0.0
O727 O 0.63344 0.47111 0.19937 0.0
O728 O 0.66481 0.53327 0.21387 0.0
C729 C 0.63944 0.3708 0.25234 0.0
O730 O 0.64603 0.39927 0.28274 0.0
O731 O 0.73076 0.45611 0.25626 0.0
C732 C 0.79968 0.58334 0.15089 0.0
O733 O 0.80719 0.55214 0.12121 0.0
O734 O 0.76224 0.58347 0.17872 0.0
O735 O 0.73802 0.50695 0.11421 0.0
O736 O 0.70432 0.44232 0.11799 0.0
O737 O 0.67814 0.59883 0.12451 0.0
C738 C 0.62874 0.51216 0.20916 0.0
C739 C 0.71996 0.47779 0.09367 0.0
Zn740 Zn 0.78344 0.48189 0.43653 0.0
Zn741 Zn 0.65014 0.45794 0.40078 0.0
C742 C 0.78629 0.53515 0.53709 0.0
O743 O 0.81659 0.56694 0.52437 0.0
C744 C 0.58494 0.39085 0.40446 0.0
O745 O 0.56828 0.40429 0.44493 0.0
O746 O 0.81754 0.42032 0.45178 0.0
O747 O 0.71794 0.47497 0.44078 0.0
O748 O 0.65487 0.44 0.46406 0.0
C749 C 0.83525 0.40804 0.48932 0.0
O750 O 0.83777 0.4376 0.51978 0.0
O751 O 0.77741 0.50843 0.50645 0.0
C752 C 0.60999 0.53724 0.36411 0.0
O753 O 0.65098 0.53577 0.33872 0.0
O754 O 0.6018 0.50783 0.39748 0.0
O755 O 0.7095 0.46537 0.3527 0.0
O756 O 0.7832 0.48446 0.35944 0.0
O757 O 0.62236 0.40646 0.38319 0.0
C758 C 0.69669 0.44652 0.46865 0.0
C759 C 0.75129 0.47325 0.33413 0.0
Zn760 Zn 0.78362 0.54535 0.69271 0.0
Zn761 Zn 0.77345 0.43681 0.66225 0.0
C762 C 0.72339 0.5373 0.79476 0.0
O763 O 0.72778 0.58105 0.79882 0.0
C764 C 0.85762 0.36488 0.64126 0.0
O765 O 0.90395 0.36059 0.63971 0.0
O766 O 0.82371 0.59294 0.71329 0.0
O767 O 0.83765 0.50021 0.69066 0.0
O768 O 0.78523 0.45398 0.72206 0.0
C769 C 0.83817 0.58213 0.75268 0.0
O770 O 0.82046 0.54775 0.77903 0.0
O771 O 0.73622 0.52116 0.75503 0.0
C772 C 0.7077 0.38669 0.64126 0.0
O773 O 0.73449 0.40019 0.60422 0.0
O774 O 0.71758 0.39841 0.67882 0.0
O775 O 0.77069 0.48053 0.60243 0.0
O776 O 0.77654 0.55233 0.61885 0.0
O777 O 0.83708 0.40329 0.64962 0.0
C778 C 0.82775 0.4641 0.7151 0.0
C779 C 0.77416 0.52284 0.58888 0.0
Zn780 Zn 0.48437 0.1216 0.2261 0.0
Zn781 Zn 0.45167 0.0952 0.34005 0.0
C782 C 0.4149 0.15876 0.15886 0.0
O783 O 0.37714 0.15407 0.18857 0.0
C784 C 0.52677 0.9975 0.33933 0.0
O785 O 0.5541 1.00388 0.37097 0.0
O786 O 0.54968 0.10923 0.19868 0.0
O787 O 0.48299 0.17374 0.2669 0.0
O788 O 0.47597 0.16421 0.3422 0.0
C789 C 0.56741 0.14737 0.1853 0.0
O790 O 0.5574 0.18233 0.21035 0.0
O791 O 0.45608 0.14892 0.1707 0.0
C792 C 0.37737 0.04531 0.39311 0.0
O793 O 0.39678 0.01338 0.36714 0.0
O794 O 0.39778 0.08302 0.39218 0.0
O795 O 0.40504 0.10239 0.2927 0.0
O796 O 0.44985 0.06532 0.24143 0.0
O797 O 0.49346 0.02875 0.33063 0.0
C798 C 0.48161 0.19111 0.30506 0.0
C799 C 0.40924 0.07927 0.25796 0.0
Zn800 Zn 0.01279 0.83161 0.72352 0.0
Zn801 Zn 0.00373 0.85056 0.82111 0.0
C802 C 0.0628 0.80892 0.63695 0.0
O803 O 0.02218 0.7979 0.62529 0.0
C804 C 0.97305 0.96125 0.80613 0.0
O805 O 0.98358 0.96637 0.84764 0.0
O806 O 0.96039 0.85111 0.68757 0.0
O807 O 0.00144 0.76934 0.76089 0.0
O808 O 0.9717 0.78403 0.83029 0.0
C809 C 0.92518 0.82662 0.6916 0.0
O810 O 0.91807 0.79661 0.72725 0.0
O811 O 0.0663 0.81714 0.67781 0.0
C812 C 0.06245 0.8588 0.88588 0.0
O813 O 0.08984 0.82344 0.8726 0.0
O814 O 0.01821 0.85894 0.88398 0.0
O815 O 0.07278 0.84392 0.78857 0.0
O816 O 0.04146 0.88805 0.73674 0.0
O817 O 0.9741 0.91971 0.79289 0.0
C818 C 0.9823 0.7546 0.80038 0.0
C819 C 0.078 0.8736 0.75477 0.0
Zn820 Zn 0.44552 0.888 0.31008 0.0
Zn821 Zn 0.54549 0.84062 0.33655 0.0
C822 C 0.34897 0.89075 0.35964 0.0
O823 O 0.34223 0.84924 0.34949 0.0
C824 C 0.54002 0.74013 0.28473 0.0
O825 O 0.58346 0.73747 0.26427 0.0
O826 O 0.43244 0.89096 0.24757 0.0
O827 O 0.483 0.93981 0.31819 0.0
O828 O 0.55448 0.9154 0.33069 0.0
C829 C 0.42137 0.93293 0.23887 0.0
O830 O 0.41822 0.96122 0.27148 0.0
O831 O 0.388 0.90863 0.34741 0.0
C832 C 0.59104 0.78445 0.39667 0.0
O833 O 0.5522 0.76303 0.39634 0.0
O834 O 0.59982 0.81873 0.36833 0.0
O835 O 0.49475 0.84048 0.38897 0.0
O836 O 0.45834 0.82602 0.3315 0.0
O837 O 0.52699 0.77531 0.308 0.0
C838 C 0.52319 0.9489 0.32605 0.0
C839 C 0.45904 0.82662 0.374 0.0
Zn840 Zn 0.83087 0.69991 0.06143 0.0
Zn841 Zn 0.84352 0.81254 0.06708 0.0
C842 C 0.81868 0.62692 0.13564 0.0
O843 O 0.85983 0.6359 0.14708 0.0
C844 C 0.96137 0.80679 0.02602 0.0
O845 O 0.96798 0.85091 0.02368 0.0
O846 O 0.84415 0.68085 0.99661 0.0
O847 O 0.78046 0.7491 0.05927 0.0
O848 O 0.77406 0.82132 0.04448 0.0
C849 C 0.81094 0.66387 0.9792 0.0
O850 O 0.81606 0.65764 0.93525 0.0
O851 O 0.80215 0.64855 0.1011 0.0
C852 C 0.84408 0.86257 0.13921 0.0
O853 O 0.81182 0.85363 0.17407 0.0
O854 O 0.83242 0.86996 0.09894 0.0
O855 O 0.83996 0.76715 0.12505 0.0
O856 O 0.88596 0.71438 0.09114 0.0
O857 O 0.91874 0.79283 0.03789 0.0
C858 C 0.75345 0.78431 0.05522 0.0
C859 C 0.87218 0.73515 0.12674 0.0
Zn860 Zn 0.6699 0.34606 0.54598 0.0
Zn861 Zn 0.60164 0.256 0.54173 0.0
C862 C 0.6657 0.36245 0.63787 0.0
O863 O 0.62681 0.38875 0.63506 0.0
C864 C 0.50381 0.26503 0.50177 0.0
O865 O 0.49644 0.22486 0.52422 0.0
O866 O 0.69901 0.40371 0.53398 0.0
O867 O 0.70918 0.29851 0.51005 0.0
O868 O 0.67663 0.23738 0.54454 0.0
C869 C 0.72101 0.41171 0.49511 0.0
O870 O 0.73911 0.37668 0.47276 0.0
O871 O 0.67225 0.32877 0.61321 0.0
C872 C 0.5639 0.21697 0.6251 0.0
O873 O 0.59072 0.24492 0.64143 0.0
O874 O 0.56793 0.21068 0.58278 0.0
O875 O 0.59449 0.30715 0.57959 0.0
O876 O 0.60358 0.36697 0.53254 0.0
O877 O 0.54613 0.28002 0.49794 0.0
C878 C 0.71427 0.25891 0.53059 0.0
C879 C 0.57644 0.34203 0.55916 0.0
Zn880 Zn 0.25931 0.44697 0.05907 0.0
Zn881 Zn 0.24006 0.54216 0.08748 0.0
C882 C 0.22076 0.36564 0.02308 0.0
O883 O 0.23782 0.33613 0.99485 0.0
C884 C 0.26812 0.51842 0.19081 0.0
O885 O 0.26432 0.5628 0.19531 0.0
O886 O 0.31945 0.40925 0.07507 0.0
O887 O 0.2613 0.4917 1.00107 0.0
O888 O 0.26983 0.56172 0.01774 0.0
C889 C 0.34815 0.39791 0.04051 0.0
O890 O 0.34982 0.42504 1.00231 0.0
O891 O 0.24753 0.39675 0.02722 0.0
C892 C 0.18196 0.58846 0.14351 0.0
O893 O 0.17865 0.5448 0.15704 0.0
O894 O 0.21342 0.60092 0.11156 0.0
O895 O 0.17655 0.51506 0.07829 0.0
O896 O 0.1993 0.44604 0.104 0.0
O897 O 0.26592 0.50418 0.15025 0.0
C898 C 0.26677 0.53366 0.98731 0.0
C899 C 0.1659 0.47571 0.09678 0.0
Zn900 Zn 0.27476 0.47402 0.86849 0.0
Zn901 Zn 0.29146 0.58786 0.83515 0.0
C902 C 0.33622 0.39417 0.88752 0.0
O903 O 0.35196 0.3977 0.84368 0.0
C904 C 0.22406 0.55405 0.74747 0.0
O905 O 0.2554 0.56739 0.77176 0.0
O906 O 0.22331 0.44022 0.85057 0.0
O907 O 0.24768 0.51663 0.91502 0.0
O908 O 0.28133 0.58127 0.91132 0.0
C909 C 0.186 0.4403 0.87857 0.0
O910 O 0.17848 0.47151 0.90823 0.0
O911 O 0.30744 0.42466 0.9047 0.0
C912 C 0.34633 0.65261 0.77699 0.0
O913 O 0.33991 0.62395 0.74671 0.0
O914 O 0.32235 0.64846 0.81644 0.0
O915 O 0.35223 0.55238 0.83001 0.0
O916 O 0.32082 0.49029 0.81539 0.0
O917 O 0.25497 0.56744 0.77301 0.0
C918 C 0.26572 0.54578 0.9356 0.0
C919 C 0.35691 0.51135 0.82016 0.0
Zn920 Zn 0.33559 0.56551 0.62847 0.0
Zn921 Zn 0.20224 0.54166 0.59276 0.0
C922 C 0.40072 0.63274 0.62471 0.0
O923 O 0.41742 0.61933 0.58424 0.0
C924 C 0.19937 0.48839 0.49219 0.0
O925 O 0.16914 0.45655 0.50491 0.0
O926 O 0.38393 0.51564 0.63187 0.0
O927 O 0.27622 0.55814 0.67657 0.0
O928 O 0.2025 0.53911 0.66984 0.0
C929 C 0.37566 0.48617 0.66517 0.0
O930 O 0.33463 0.48759 0.69048 0.0
O931 O 0.36332 0.61706 0.64598 0.0
C932 C 0.15045 0.61551 0.53999 0.0
O933 O 0.14786 0.58593 0.50957 0.0
O934 O 0.1682 0.60324 0.57751 0.0
O935 O 0.26775 0.54849 0.58851 0.0
O936 O 0.33093 0.58327 0.56514 0.0
O937 O 0.20824 0.51512 0.52283 0.0
C938 C 0.23443 0.55029 0.69514 0.0
C939 C 0.28909 0.57683 0.56057 0.0
Zn940 Zn 0.21215 0.58675 0.36703 0.0
Zn941 Zn 0.20206 0.47817 0.33655 0.0
C942 C 0.12797 0.65866 0.38804 0.0
O943 O 0.08164 0.66294 0.38963 0.0
C944 C 0.2623 0.48623 0.23452 0.0
O945 O 0.25792 0.44247 0.23046 0.0
O946 O 0.26802 0.62515 0.35046 0.0
O947 O 0.21492 0.54303 0.42685 0.0
O948 O 0.20915 0.47122 0.41042 0.0
C949 C 0.27793 0.63684 0.38802 0.0
O950 O 0.25114 0.62339 0.42506 0.0
O951 O 0.1485 0.62025 0.37965 0.0
C952 C 0.14754 0.44136 0.27655 0.0
O953 O 0.16524 0.47577 0.25023 0.0
O954 O 0.16199 0.43057 0.31596 0.0
O955 O 0.14802 0.5233 0.3386 0.0
O956 O 0.20043 0.56955 0.30722 0.0
O957 O 0.24947 0.50237 0.27425 0.0
C958 C 0.21148 0.50072 0.4404 0.0
C959 C 0.15791 0.55941 0.31417 0.0
loop_
_geom_bond_atom_site_label_1
_geom_bond_atom_site_label_2
_geom_bond_distance
_geom_bond_site_symmetry_2
_ccdc_geom_bond_type
Zn0 O6 1.969 . S
Zn0 O7 1.965 . S
Zn0 O11 2.024 . S
Zn0 O16 1.969 . S
Zn1 O8 1.969 . S
Zn1 O14 1.969 1_455 S
Zn1 O15 1.965 1_455 S
Zn1 O17 2.024 . S
C2 O3 1.229 . S
C2 O11 1.058 . S
O3 C2 1.229 . S
C4 O5 1.229 . S
C4 O17 1.058 . S
O5 C4 1.229 . S
O6 Zn0 1.969 . S
O6 C9 1.267 . S
O7 Zn0 1.965 . S
O7 C18 1.260 . S
O8 Zn1 1.969 . S
O8 C18 1.258 . S
C9 O6 1.267 . S
C9 O10 1.228 . S
O10 C9 1.228 . S
O11 Zn0 2.024 . S
O11 C2 1.058 . S
C12 O13 1.228 . S
C12 O14 1.267 . S
O13 C12 1.228 . S
O14 Zn1 1.969 1_655 S
O14 C12 1.267 . S
O15 Zn1 1.965 1_655 S
O15 C19 1.260 1_655 S
O16 Zn0 1.969 . S
O16 C19 1.258 . S
O17 Zn1 2.024 . S
O17 C4 1.058 . S
C18 O7 1.260 . S
C18 O8 1.258 . S
C19 O15 1.260 1_455 S
C19 O16 1.258 . S
Zn20 O26 1.969 . S
Zn20 O27 1.965 . S
Zn20 O31 2.024 . S
Zn20 O36 1.969 . S
Zn21 O28 1.969 . S
Zn21 O34 1.969 . S
Zn21 O35 1.965 . S
Zn21 O37 2.024 . S
C22 O23 1.229 . S
C22 O31 1.058 . S
O23 C22 1.229 . S
C24 O25 1.229 . S
C24 O37 1.058 . S
O25 C24 1.229 . S
O26 Zn20 1.969 . S
O26 C29 1.267 . S
O27 Zn20 1.965 . S
O27 C38 1.260 . S
O28 Zn21 1.969 . S
O28 C38 1.258 . S
C29 O26 1.267 . S
C29 O30 1.228 . S
O30 C29 1.228 . S
O31 Zn20 2.024 . S
O31 C22 1.058 . S
C32 O33 1.228 . S
C32 O34 1.267 . S
O33 C32 1.228 . S
O34 Zn21 1.969 . S
O34 C32 1.267 . S
O35 Zn21 1.965 . S
O35 C39 1.260 . S
O36 Zn20 1.969 . S
O36 C39 1.258 . S
O37 Zn21 2.024 . S
O37 C24 1.058 . S
C38 O27 1.260 . S
C38 O28 1.258 . S
C39 O35 1.260 . S
C39 O36 1.258 . S
Zn40 O46 1.969 . S
Zn40 O47 1.965 . S
Zn40 O51 2.024 . S
Zn40 O56 1.969 . S
Zn41 O48 1.969 . S
Zn41 O54 1.969 . S
Zn41 O55 1.965 . S
Zn41 O57 2.024 . S
C42 O43 1.229 . S
C42 O51 1.058 . S
O43 C42 1.229 . S
C44 O45 1.229 . S
C44 O57 1.058 . S
O45 C44 1.229 . S
O46 Zn40 1.969 . S
O46 C49 1.267 . S
O47 Zn40 1.965 . S
O47 C58 1.260 . S
O48 Zn41 1.969 . S
O48 C58 1.258 . S
C49 O46 1.267 . S
C49 O50 1.228 . S
O50 C49 1.228 . S
O51 Zn40 2.024 . S
O51 C42 1.058 . S
C52 O53 1.228 . S
C52 O54 1.267 . S
O53 C52 1.228 . S
O54 Zn41 1.969 . S
O54 C52 1.267 . S
O55 Zn41 1.965 . S
O55 C59 1.260 . S
O56 Zn40 1.969 . S
O56 C59 1.258 . S
O57 Zn41 2.024 . S
O57 C44 1.058 . S
C58 O47 1.260 . S
C58 O48 1.258 . S
C59 O55 1.260 . S
C59 O56 1.258 . S
Zn60 O66 1.969 . S
Zn60 O67 1.965 . S
Zn60 O71 2.024 . S
Zn60 O76 1.969 . S
Zn61 O68 1.969 . S
Zn61 O74 1.969 . S
Zn61 O75 1.965 . S
Zn61 O77 2.024 . S
C62 O63 1.229 . S
C62 O71 1.058 . S
O63 C62 1.229 . S
C64 O65 1.229 . S
C64 O77 1.058 . S
O65 C64 1.229 . S
O66 Zn60 1.969 . S
O66 C69 1.267 . S
O67 Zn60 1.965 . S
O67 C78 1.260 1_556 S
O68 Zn61 1.969 . S
O68 C78 1.258 . S
C69 O66 1.267 . S
C69 O70 1.228 . S
O70 C69 1.228 . S
O71 Zn60 2.024 . S
O71 C62 1.058 . S
C72 O73 1.228 . S
C72 O74 1.267 . S
O73 C72 1.228 . S
O74 Zn61 1.969 . S
O74 C72 1.267 . S
O75 Zn61 1.965 . S
O75 C79 1.260 1_554 S
O76 Zn60 1.969 . S
O76 C79 1.258 . S
O77 Zn61 2.024 . S
O77 C64 1.058 . S
C78 O67 1.260 1_554 S
C78 O68 1.258 . S
C79 O75 1.260 1_556 S
C79 O76 1.258 . S
Zn80 O86 1.969 . S
Zn80 O87 1.965 1_655 S
Zn80 O91 2.024 . S
Zn80 O96 1.969 . S
Zn81 O88 1.969 . S
Zn81 O94 1.969 . S
Zn81 O95 1.965 . S
Zn81 O97 2.024 . S
C82 O83 1.229 . S
C82 O91 1.058 . S
O83 C82 1.229 . S
C84 O85 1.229 . S
C84 O97 1.058 . S
O85 C84 1.229 . S
O86 Zn80 1.969 . S
O86 C89 1.267 . S
O87 Zn80 1.965 1_455 S
O87 C98 1.260 . S
O88 Zn81 1.969 . S
O88 C98 1.258 . S
C89 O86 1.267 . S
C89 O90 1.228 . S
O90 C89 1.228 . S
O91 Zn80 2.024 . S
O91 C82 1.058 . S
C92 O93 1.228 . S
C92 O94 1.267 . S
O93 C92 1.228 . S
O94 Zn81 1.969 . S
O94 C92 1.267 . S
O95 Zn81 1.965 . S
O95 C99 1.260 1_455 S
O96 Zn80 1.969 . S
O96 C99 1.258 . S
O97 Zn81 2.024 . S
O97 C84 1.058 . S
C98 O87 1.260 . S
C98 O88 1.258 . S
C99 O95 1.260 1_655 S
C99 O96 1.258 . S
Zn100 O106 1.969 . S
Zn100 O107 1.965 . S
Zn100 O111 2.024 . S
Zn100 O116 1.969 . S
Zn101 O108 1.969 . S
Zn101 O114 1.969 . S
Zn101 O115 1.965 . S
Zn101 O117 2.024 . S
C102 O103 1.229 . S
C102 O111 1.058 . S
O103 C102 1.229 . S
C104 O105 1.229 . S
C104 O117 1.058 . S
O105 C104 1.229 . S
O106 Zn100 1.969 . S
O106 C109 1.267 . S
O107 Zn100 1.965 . S
O107 C118 1.260 . S
O108 Zn101 1.969 . S
O108 C118 1.258 . S
C109 O106 1.267 . S
C109 O110 1.228 . S
O110 C109 1.228 . S
O111 Zn100 2.024 . S
O111 C102 1.058 . S
C112 O113 1.228 . S
C112 O114 1.267 . S
O113 C112 1.228 . S
O114 Zn101 1.969 . S
O114 C112 1.267 . S
O115 Zn101 1.965 . S
O115 C119 1.260 . S
O116 Zn100 1.969 . S
O116 C119 1.258 . S
O117 Zn101 2.024 . S
O117 C104 1.058 . S
C118 O107 1.260 . S
C118 O108 1.258 . S
C119 O115 1.260 . S
C119 O116 1.258 . S
Zn120 O126 1.969 . S
Zn120 O127 1.965 . S
Zn120 O131 2.024 . S
Zn120 O136 1.969 . S
Zn121 O128 1.969 . S
Zn121 O134 1.969 . S
Zn121 O135 1.965 . S
Zn121 O137 2.024 . S
C122 O123 1.229 . S
C122 O131 1.058 . S
O123 C122 1.229 . S
C124 O125 1.229 . S
C124 O137 1.058 . S
O125 C124 1.229 . S
O126 Zn120 1.969 . S
O126 C129 1.267 . S
O127 Zn120 1.965 . S
O127 C138 1.260 . S
O128 Zn121 1.969 . S
O128 C138 1.258 . S
C129 O126 1.267 . S
C129 O130 1.228 . S
O130 C129 1.228 . S
O131 Zn120 2.024 . S
O131 C122 1.058 . S
C132 O133 1.228 . S
C132 O134 1.267 . S
O133 C132 1.228 . S
O134 Zn121 1.969 . S
O134 C132 1.267 . S
O135 Zn121 1.965 . S
O135 C139 1.260 . S
O136 Zn120 1.969 . S
O136 C139 1.258 . S
O137 Zn121 2.024 . S
O137 C124 1.058 . S
C138 O127 1.260 . S
C138 O128 1.258 . S
C139 O135 1.260 . S
C139 O136 1.258 . S
Zn140 O146 1.969 . S
Zn140 O147 1.965 . S
Zn140 O151 2.024 . S
Zn140 O156 1.969 . S
Zn141 O148 1.969 . S
Zn141 O154 1.969 1_556 S
Zn141 O155 1.965 . S
Zn141 O157 2.024 . S
C142 O143 1.229 . S
C142 O151 1.058 . S
O143 C142 1.229 . S
C144 O145 1.229 . S
C144 O157 1.058 . S
O145 C144 1.229 . S
O146 Zn140 1.969 . S
O146 C149 1.267 . S
O147 Zn140 1.965 . S
O147 C158 1.260 . S
O148 Zn141 1.969 . S
O148 C158 1.258 . S
C149 O146 1.267 . S
C149 O150 1.228 . S
O150 C149 1.228 . S
O151 Zn140 2.024 . S
O151 C142 1.058 . S
C152 O153 1.228 . S
C152 O154 1.267 . S
O153 C152 1.228 . S
O154 Zn141 1.969 1_554 S
O154 C152 1.267 . S
O155 Zn141 1.965 . S
O155 C159 1.260 . S
O156 Zn140 1.969 . S
O156 C159 1.258 . S
O157 Zn141 2.024 . S
O157 C144 1.058 . S
C158 O147 1.260 . S
C158 O148 1.258 . S
C159 O155 1.260 . S
C159 O156 1.258 . S
Zn160 O166 1.969 . S
Zn160 O167 1.965 1_565 S
Zn160 O171 2.024 . S
Zn160 O176 1.969 . S
Zn161 O168 1.969 . S
Zn161 O174 1.969 . S
Zn161 O175 1.965 . S
Zn161 O177 2.024 . S
C162 O163 1.229 . S
C162 O171 1.058 . S
O163 C162 1.229 . S
C164 O165 1.229 . S
C164 O177 1.058 . S
O165 C164 1.229 . S
O166 Zn160 1.969 . S
O166 C169 1.267 . S
O167 Zn160 1.965 1_545 S
O167 C178 1.260 . S
O168 Zn161 1.969 . S
O168 C178 1.258 . S
C169 O166 1.267 . S
C169 O170 1.228 . S
O170 C169 1.228 . S
O171 Zn160 2.024 . S
O171 C162 1.058 . S
C172 O173 1.228 . S
C172 O174 1.267 . S
O173 C172 1.228 . S
O174 Zn161 1.969 . S
O174 C172 1.267 . S
O175 Zn161 1.965 . S
O175 C179 1.260 1_545 S
O176 Zn160 1.969 . S
O176 C179 1.258 . S
O177 Zn161 2.024 . S
O177 C164 1.058 . S
C178 O167 1.260 . S
C178 O168 1.258 . S
C179 O175 1.260 1_565 S
C179 O176 1.258 . S
Zn180 O186 1.969 . S
Zn180 O187 1.965 . S
Zn180 O191 2.024 . S
Zn180 O196 1.969 . S
Zn181 O188 1.969 . S
Zn181 O194 1.969 . S
Zn181 O195 1.965 . S
Zn181 O197 2.024 . S
C182 O183 1.229 . S
C182 O191 1.058 . S
O183 C182 1.229 . S
C184 O185 1.229 . S
C184 O197 1.058 . S
O185 C184 1.229 . S
O186 Zn180 1.969 . S
O186 C189 1.267 . S
O187 Zn180 1.965 . S
O187 C198 1.260 1_565 S
O188 Zn181 1.969 . S
O188 C198 1.258 . S
C189 O186 1.267 . S
C189 O190 1.228 . S
O190 C189 1.228 . S
O191 Zn180 2.024 . S
O191 C182 1.058 . S
C192 O193 1.228 . S
C192 O194 1.267 . S
O193 C192 1.228 . S
O194 Zn181 1.969 . S
O194 C192 1.267 . S
O195 Zn181 1.965 . S
O195 C199 1.260 1_545 S
O196 Zn180 1.969 . S
O196 C199 1.258 . S
O197 Zn181 2.024 . S
O197 C184 1.058 . S
C198 O187 1.260 1_545 S
C198 O188 1.258 . S
C199 O195 1.260 1_565 S
C199 O196 1.258 . S
Zn200 O206 1.969 . S
Zn200 O207 1.965 . S
Zn200 O211 2.024 . S
Zn200 O216 1.969 . S
Zn201 O208 1.969 . S
Zn201 O214 1.969 1_565 S
Zn201 O215 1.965 1_565 S
Zn201 O217 2.024 . S
C202 O203 1.229 1_545 S
C202 O211 1.058 1_545 S
O203 C202 1.229 1_565 S
C204 O205 1.229 . S
C204 O217 1.058 . S
O205 C204 1.229 . S
O206 Zn200 1.969 . S
O206 C209 1.267 . S
O207 Zn200 1.965 . S
O207 C218 1.260 . S
O208 Zn201 1.969 . S
O208 C218 1.258 . S
C209 O206 1.267 . S
C209 O210 1.228 . S
O210 C209 1.228 . S
O211 Zn200 2.024 . S
O211 C202 1.058 1_565 S
C212 O213 1.228 . S
C212 O214 1.267 . S
O213 C212 1.228 . S
O214 Zn201 1.969 1_545 S
O214 C212 1.267 . S
O215 Zn201 1.965 1_545 S
O215 C219 1.260 1_545 S
O216 Zn200 1.969 . S
O216 C219 1.258 . S
O217 Zn201 2.024 . S
O217 C204 1.058 . S
C218 O207 1.260 . S
C218 O208 1.258 . S
C219 O215 1.260 1_565 S
C219 O216 1.258 . S
Zn220 O226 1.969 . S
Zn220 O227 1.965 . S
Zn220 O231 2.024 1_565 S
Zn220 O236 1.969 1_565 S
Zn221 O228 1.969 . S
Zn221 O234 1.969 1_565 S
Zn221 O235 1.965 1_565 S
Zn221 O237 2.024 . S
C222 O223 1.229 . S
C222 O231 1.058 . S
O223 C222 1.229 . S
C224 O225 1.229 . S
C224 O237 1.058 . S
O225 C224 1.229 . S
O226 Zn220 1.969 . S
O226 C229 1.267 . S
O227 Zn220 1.965 . S
O227 C238 1.260 . S
O228 Zn221 1.969 . S
O228 C238 1.258 . S
C229 O226 1.267 . S
C229 O230 1.228 . S
O230 C229 1.228 . S
O231 Zn220 2.024 1_545 S
O231 C222 1.058 . S
C232 O233 1.228 . S
C232 O234 1.267 . S
O233 C232 1.228 . S
O234 Zn221 1.969 1_545 S
O234 C232 1.267 . S
O235 Zn221 1.965 1_545 S
O235 C239 1.260 . S
O236 Zn220 1.969 1_545 S
O236 C239 1.258 . S
O237 Zn221 2.024 . S
O237 C224 1.058 . S
C238 O227 1.260 . S
C238 O228 1.258 . S
C239 O235 1.260 . S
C239 O236 1.258 . S
Zn240 O246 1.969 . S
Zn240 O247 1.965 . S
Zn240 O251 2.024 . S
Zn240 O256 1.969 . S
Zn241 O248 1.969 . S
Zn241 O254 1.969 . S
Zn241 O255 1.965 . S
Zn241 O257 2.024 . S
C242 O243 1.229 . S
C242 O251 1.058 . S
O243 C242 1.229 . S
C244 O245 1.229 . S
C244 O257 1.058 . S
O245 C244 1.229 . S
O246 Zn240 1.969 . S
O246 C249 1.267 . S
O247 Zn240 1.965 . S
O247 C258 1.260 1_556 S
O248 Zn241 1.969 . S
O248 C258 1.258 . S
C249 O246 1.267 . S
C249 O250 1.228 . S
O250 C249 1.228 . S
O251 Zn240 2.024 . S
O251 C242 1.058 . S
C252 O253 1.228 . S
C252 O254 1.267 . S
O253 C252 1.228 . S
O254 Zn241 1.969 . S
O254 C252 1.267 . S
O255 Zn241 1.965 . S
O255 C259 1.260 1_554 S
O256 Zn240 1.969 . S
O256 C259 1.258 . S
O257 Zn241 2.024 . S
O257 C244 1.058 . S
C258 O247 1.260 1_554 S
C258 O248 1.258 . S
C259 O255 1.260 1_556 S
C259 O256 1.258 . S
Zn260 O266 1.969 . S
Zn260 O267 1.965 . S
Zn260 O271 2.024 1_655 S
Zn260 O276 1.969 . S
Zn261 O268 1.969 . S
Zn261 O274 1.969 1_655 S
Zn261 O275 1.965 1_655 S
Zn261 O277 2.024 . S
C262 O263 1.229 . S
C262 O271 1.058 . S
O263 C262 1.229 . S
C264 O265 1.229 . S
C264 O277 1.058 . S
O265 C264 1.229 . S
O266 Zn260 1.969 . S
O266 C269 1.267 . S
O267 Zn260 1.965 . S
O267 C278 1.260 . S
O268 Zn261 1.969 . S
O268 C278 1.258 . S
C269 O266 1.267 . S
C269 O270 1.228 . S
O270 C269 1.228 . S
O271 Zn260 2.024 1_455 S
O271 C262 1.058 . S
C272 O273 1.228 . S
C272 O274 1.267 . S
O273 C272 1.228 . S
O274 Zn261 1.969 1_455 S
O274 C272 1.267 . S
O275 Zn261 1.965 1_455 S
O275 C279 1.260 . S
O276 Zn260 1.969 . S
O276 C279 1.258 1_655 S
O277 Zn261 2.024 . S
O277 C264 1.058 . S
C278 O267 1.260 . S
C278 O268 1.258 . S
C279 O275 1.260 . S
C279 O276 1.258 1_455 S
Zn280 O286 1.969 . S
Zn280 O287 1.965 . S
Zn280 O291 2.024 . S
Zn280 O296 1.969 . S
Zn281 O288 1.969 . S
Zn281 O294 1.969 . S
Zn281 O295 1.965 . S
Zn281 O297 2.024 . S
C282 O283 1.229 . S
C282 O291 1.058 . S
O283 C282 1.229 . S
C284 O285 1.229 . S
C284 O297 1.058 . S
O285 C284 1.229 . S
O286 Zn280 1.969 . S
O286 C289 1.267 . S
O287 Zn280 1.965 . S
O287 C298 1.260 . S
O288 Zn281 1.969 . S
O288 C298 1.258 . S
C289 O286 1.267 . S
C289 O290 1.228 . S
O290 C289 1.228 . S
O291 Zn280 2.024 . S
O291 C282 1.058 . S
C292 O293 1.228 . S
C292 O294 1.267 . S
O293 C292 1.228 . S
O294 Zn281 1.969 . S
O294 C292 1.267 . S
O295 Zn281 1.965 . S
O295 C299 1.260 . S
O296 Zn280 1.969 . S
O296 C299 1.258 . S
O297 Zn281 2.024 . S
O297 C284 1.058 . S
C298 O287 1.260 . S
C298 O288 1.258 . S
C299 O295 1.260 . S
C299 O296 1.258 . S
Zn300 O306 1.969 1_655 S
Zn300 O307 1.965 1_655 S
Zn300 O311 2.024 . S
Zn300 O316 1.969 . S
Zn301 O308 1.969 . S
Zn301 O314 1.969 . S
Zn301 O315 1.965 . S
Zn301 O317 2.024 . S
C302 O303 1.229 . S
C302 O311 1.058 . S
O303 C302 1.229 . S
C304 O305 1.229 . S
C304 O317 1.058 . S
O305 C304 1.229 . S
O306 Zn300 1.969 1_455 S
O306 C309 1.267 . S
O307 Zn300 1.965 1_455 S
O307 C318 1.260 1_455 S
O308 Zn301 1.969 . S
O308 C318 1.258 . S
C309 O306 1.267 . S
C309 O310 1.228 . S
O310 C309 1.228 . S
O311 Zn300 2.024 . S
O311 C302 1.058 . S
C312 O313 1.228 . S
C312 O314 1.267 . S
O313 C312 1.228 . S
O314 Zn301 1.969 . S
O314 C312 1.267 . S
O315 Zn301 1.965 . S
O315 C319 1.260 . S
O316 Zn300 1.969 . S
O316 C319 1.258 . S
O317 Zn301 2.024 . S
O317 C304 1.058 . S
C318 O307 1.260 1_655 S
C318 O308 1.258 . S
C319 O315 1.260 . S
C319 O316 1.258 . S
Zn320 O326 1.969 . S
Zn320 O327 1.965 . S
Zn320 O331 2.024 . S
Zn320 O336 1.969 . S
Zn321 O328 1.969 . S
Zn321 O334 1.969 . S
Zn321 O335 1.965 . S
Zn321 O337 2.024 . S
C322 O323 1.229 . S
C322 O331 1.058 . S
O323 C322 1.229 . S
C324 O325 1.229 . S
C324 O337 1.058 . S
O325 C324 1.229 . S
O326 Zn320 1.969 . S
O326 C329 1.267 . S
O327 Zn320 1.965 . S
O327 C338 1.260 . S
O328 Zn321 1.969 . S
O328 C338 1.258 . S
C329 O326 1.267 . S
C329 O330 1.228 . S
O330 C329 1.228 . S
O331 Zn320 2.024 . S
O331 C322 1.058 . S
C332 O333 1.228 . S
C332 O334 1.267 . S
O333 C332 1.228 . S
O334 Zn321 1.969 . S
O334 C332 1.267 . S
O335 Zn321 1.965 . S
O335 C339 1.260 . S
O336 Zn320 1.969 . S
O336 C339 1.258 . S
O337 Zn321 2.024 . S
O337 C324 1.058 . S
C338 O327 1.260 . S
C338 O328 1.258 . S
C339 O335 1.260 . S
C339 O336 1.258 . S
Zn340 O346 1.969 . S
Zn340 O347 1.965 . S
Zn340 O351 2.024 . S
Zn340 O356 1.969 . S
Zn341 O348 1.969 . S
Zn341 O354 1.969 . S
Zn341 O355 1.965 . S
Zn341 O357 2.024 . S
C342 O343 1.229 . S
C342 O351 1.058 . S
O343 C342 1.229 . S
C344 O345 1.229 . S
C344 O357 1.058 . S
O345 C344 1.229 . S
O346 Zn340 1.969 . S
O346 C349 1.267 . S
O347 Zn340 1.965 . S
O347 C358 1.260 . S
O348 Zn341 1.969 . S
O348 C358 1.258 . S
C349 O346 1.267 . S
C349 O350 1.228 . S
O350 C349 1.228 . S
O351 Zn340 2.024 . S
O351 C342 1.058 . S
C352 O353 1.228 . S
C352 O354 1.267 . S
O353 C352 1.228 . S
O354 Zn341 1.969 . S
O354 C352 1.267 . S
O355 Zn341 1.965 . S
O355 C359 1.260 . S
O356 Zn340 1.969 . S
O356 C359 1.258 . S
O357 Zn341 2.024 . S
O357 C344 1.058 . S
C358 O347 1.260 . S
C358 O348 1.258 . S
C359 O355 1.260 . S
C359 O356 1.258 . S
Zn360 O366 1.969 . S
Zn360 O367 1.965 . S
Zn360 O371 2.024 . S
Zn360 O376 1.969 . S
Zn361 O368 1.969 . S
Zn361 O374 1.969 . S
Zn361 O375 1.965 . S
Zn361 O377 2.024 . S
C362 O363 1.229 . S
C362 O371 1.058 . S
O363 C362 1.229 . S
C364 O365 1.229 . S
C364 O377 1.058 . S
O365 C364 1.229 . S
O366 Zn360 1.969 . S
O366 C369 1.267 . S
O367 Zn360 1.965 . S
O367 C378 1.260 1_556 S
O368 Zn361 1.969 . S
O368 C378 1.258 . S
C369 O366 1.267 . S
C369 O370 1.228 . S
O370 C369 1.228 . S
O371 Zn360 2.024 . S
O371 C362 1.058 . S
C372 O373 1.228 . S
C372 O374 1.267 . S
O373 C372 1.228 . S
O374 Zn361 1.969 . S
O374 C372 1.267 . S
O375 Zn361 1.965 . S
O375 C379 1.260 1_554 S
O376 Zn360 1.969 . S
O376 C379 1.258 . S
O377 Zn361 2.024 . S
O377 C364 1.058 . S
C378 O367 1.260 1_554 S
C378 O368 1.258 . S
C379 O375 1.260 1_556 S
C379 O376 1.258 . S
Zn380 O386 1.969 . S
Zn380 O387 1.965 . S
Zn380 O391 2.024 . S
Zn380 O396 1.969 . S
Zn381 O388 1.969 . S
Zn381 O394 1.969 . S
Zn381 O395 1.965 1_455 S
Zn381 O397 2.024 . S
C382 O383 1.229 . S
C382 O391 1.058 . S
O383 C382 1.229 . S
C384 O385 1.229 . S
C384 O397 1.058 . S
O385 C384 1.229 . S
O386 Zn380 1.969 . S
O386 C389 1.267 . S
O387 Zn380 1.965 . S
O387 C398 1.260 1_655 S
O388 Zn381 1.969 . S
O388 C398 1.258 . S
C389 O386 1.267 . S
C389 O390 1.228 . S
O390 C389 1.228 . S
O391 Zn380 2.024 . S
O391 C382 1.058 . S
C392 O393 1.228 . S
C392 O394 1.267 . S
O393 C392 1.228 . S
O394 Zn381 1.969 . S
O394 C392 1.267 . S
O395 Zn381 1.965 1_655 S
O395 C399 1.260 . S
O396 Zn380 1.969 . S
O396 C399 1.258 . S
O397 Zn381 2.024 . S
O397 C384 1.058 . S
C398 O387 1.260 1_455 S
C398 O388 1.258 . S
C399 O395 1.260 . S
C399 O396 1.258 . S
Zn400 O406 1.969 . S
Zn400 O407 1.965 . S
Zn400 O411 2.024 . S
Zn400 O416 1.969 . S
Zn401 O408 1.969 . S
Zn401 O414 1.969 . S
Zn401 O415 1.965 . S
Zn401 O417 2.024 . S
C402 O403 1.229 . S
C402 O411 1.058 . S
O403 C402 1.229 . S
C404 O405 1.229 . S
C404 O417 1.058 . S
O405 C404 1.229 . S
O406 Zn400 1.969 . S
O406 C409 1.267 . S
O407 Zn400 1.965 . S
O407 C418 1.260 . S
O408 Zn401 1.969 . S
O408 C418 1.258 . S
C409 O406 1.267 . S
C409 O410 1.228 . S
O410 C409 1.228 . S
O411 Zn400 2.024 . S
O411 C402 1.058 . S
C412 O413 1.228 . S
C412 O414 1.267 . S
O413 C412 1.228 . S
O414 Zn401 1.969 . S
O414 C412 1.267 . S
O415 Zn401 1.965 . S
O415 C419 1.260 . S
O416 Zn400 1.969 . S
O416 C419 1.258 . S
O417 Zn401 2.024 . S
O417 C404 1.058 . S
C418 O407 1.260 . S
C418 O408 1.258 . S
C419 O415 1.260 . S
C419 O416 1.258 . S
Zn420 O426 1.969 . S
Zn420 O427 1.965 . S
Zn420 O431 2.024 . S
Zn420 O436 1.969 . S
Zn421 O428 1.969 . S
Zn421 O434 1.969 . S
Zn421 O435 1.965 . S
Zn421 O437 2.024 . S
C422 O423 1.229 . S
C422 O431 1.058 . S
O423 C422 1.229 . S
C424 O425 1.229 . S
C424 O437 1.058 . S
O425 C424 1.229 . S
O426 Zn420 1.969 . S
O426 C429 1.267 . S
O427 Zn420 1.965 . S
O427 C438 1.260 . S
O428 Zn421 1.969 . S
O428 C438 1.258 . S
C429 O426 1.267 . S
C429 O430 1.228 . S
O430 C429 1.228 . S
O431 Zn420 2.024 . S
O431 C422 1.058 . S
C432 O433 1.228 . S
C432 O434 1.267 . S
O433 C432 1.228 . S
O434 Zn421 1.969 . S
O434 C432 1.267 . S
O435 Zn421 1.965 . S
O435 C439 1.260 . S
O436 Zn420 1.969 . S
O436 C439 1.258 . S
O437 Zn421 2.024 . S
O437 C424 1.058 . S
C438 O427 1.260 . S
C438 O428 1.258 . S
C439 O435 1.260 . S
C439 O436 1.258 . S
Zn440 O446 1.969 1_554 S
Zn440 O447 1.965 . S
Zn440 O451 2.024 . S
Zn440 O456 1.969 . S
Zn441 O448 1.969 . S
Zn441 O454 1.969 . S
Zn441 O455 1.965 . S
Zn441 O457 2.024 . S
C442 O443 1.229 . S
C442 O451 1.058 . S
O443 C442 1.229 . S
C444 O445 1.229 . S
C444 O457 1.058 . S
O445 C444 1.229 . S
O446 Zn440 1.969 1_556 S
O446 C449 1.267 . S
O447 Zn440 1.965 . S
O447 C458 1.260 . S
O448 Zn441 1.969 . S
O448 C458 1.258 . S
C449 O446 1.267 . S
C449 O450 1.228 . S
O450 C449 1.228 . S
O451 Zn440 2.024 . S
O451 C442 1.058 . S
C452 O453 1.228 . S
C452 O454 1.267 . S
O453 C452 1.228 . S
O454 Zn441 1.969 . S
O454 C452 1.267 . S
O455 Zn441 1.965 . S
O455 C459 1.260 . S
O456 Zn440 1.969 . S
O456 C459 1.258 . S
O457 Zn441 2.024 . S
O457 C444 1.058 . S
C458 O447 1.260 . S
C458 O448 1.258 . S
C459 O455 1.260 . S
C459 O456 1.258 . S
Zn460 O466 1.969 . S
Zn460 O467 1.965 . S
Zn460 O471 2.024 . S
Zn460 O476 1.969 . S
Zn461 O468 1.969 . S
Zn461 O474 1.969 . S
Zn461 O475 1.965 1_545 S
Zn461 O477 2.024 . S
C462 O463 1.229 . S
C462 O471 1.058 . S
O463 C462 1.229 . S
C464 O465 1.229 . S
C464 O477 1.058 . S
O465 C464 1.229 . S
O466 Zn460 1.969 . S
O466 C469 1.267 . S
O467 Zn460 1.965 . S
O467 C478 1.260 1_565 S
O468 Zn461 1.969 . S
O468 C478 1.258 . S
C469 O466 1.267 . S
C469 O470 1.228 . S
O470 C469 1.228 . S
O471 Zn460 2.024 . S
O471 C462 1.058 . S
C472 O473 1.228 . S
C472 O474 1.267 . S
O473 C472 1.228 . S
O474 Zn461 1.969 . S
O474 C472 1.267 . S
O475 Zn461 1.965 1_565 S
O475 C479 1.260 . S
O476 Zn460 1.969 . S
O476 C479 1.258 . S
O477 Zn461 2.024 . S
O477 C464 1.058 . S
C478 O467 1.260 1_545 S
C478 O468 1.258 . S
C479 O475 1.260 . S
C479 O476 1.258 . S
Zn480 O486 1.969 . S
Zn480 O487 1.965 . S
Zn480 O491 2.024 . S
Zn480 O496 1.969 . S
Zn481 O488 1.969 . S
Zn481 O494 1.969 . S
Zn481 O495 1.965 . S
Zn481 O497 2.024 . S
C482 O483 1.229 . S
C482 O491 1.058 . S
O483 C482 1.229 . S
C484 O485 1.229 . S
C484 O497 1.058 . S
O485 C484 1.229 . S
O486 Zn480 1.969 . S
O486 C489 1.267 . S
O487 Zn480 1.965 . S
O487 C498 1.260 1_565 S
O488 Zn481 1.969 . S
O488 C498 1.258 . S
C489 O486 1.267 . S
C489 O490 1.228 . S
O490 C489 1.228 . S
O491 Zn480 2.024 . S
O491 C482 1.058 . S
C492 O493 1.228 . S
C492 O494 1.267 . S
O493 C492 1.228 . S
O494 Zn481 1.969 . S
O494 C492 1.267 . S
O495 Zn481 1.965 . S
O495 C499 1.260 1_545 S
O496 Zn480 1.969 . S
O496 C499 1.258 . S
O497 Zn481 2.024 . S
O497 C484 1.058 . S
C498 O487 1.260 1_545 S
C498 O488 1.258 . S
C499 O495 1.260 1_565 S
C499 O496 1.258 . S
Zn500 O506 1.969 1_545 S
Zn500 O507 1.965 1_545 S
Zn500 O511 2.024 . S
Zn500 O516 1.969 . S
Zn501 O508 1.969 . S
Zn501 O514 1.969 . S
Zn501 O515 1.965 . S
Zn501 O517 2.024 . S
C502 O503 1.229 . S
C502 O511 1.058 . S
O503 C502 1.229 . S
C504 O505 1.229 1_565 S
C504 O517 1.058 1_565 S
O505 C504 1.229 1_545 S
O506 Zn500 1.969 1_565 S
O506 C509 1.267 . S
O507 Zn500 1.965 1_565 S
O507 C518 1.260 1_565 S
O508 Zn501 1.969 . S
O508 C518 1.258 . S
C509 O506 1.267 . S
C509 O510 1.228 . S
O510 C509 1.228 . S
O511 Zn500 2.024 . S
O511 C502 1.058 . S
C512 O513 1.228 . S
C512 O514 1.267 . S
O513 C512 1.228 . S
O514 Zn501 1.969 . S
O514 C512 1.267 . S
O515 Zn501 1.965 . S
O515 C519 1.260 . S
O516 Zn500 1.969 . S
O516 C519 1.258 . S
O517 Zn501 2.024 . S
O517 C504 1.058 1_545 S
C518 O507 1.260 1_545 S
C518 O508 1.258 . S
C519 O515 1.260 . S
C519 O516 1.258 . S
Zn520 O526 1.969 1_545 S
Zn520 O527 1.965 1_545 S
Zn520 O531 2.024 . S
Zn520 O536 1.969 . S
Zn521 O528 1.969 1_545 S
Zn521 O534 1.969 . S
Zn521 O535 1.965 . S
Zn521 O537 2.024 1_545 S
C522 O523 1.229 . S
C522 O531 1.058 . S
O523 C522 1.229 . S
C524 O525 1.229 . S
C524 O537 1.058 . S
O525 C524 1.229 . S
O526 Zn520 1.969 1_565 S
O526 C529 1.267 . S
O527 Zn520 1.965 1_565 S
O527 C538 1.260 . S
O528 Zn521 1.969 1_565 S
O528 C538 1.258 . S
C529 O526 1.267 . S
C529 O530 1.228 . S
O530 C529 1.228 . S
O531 Zn520 2.024 . S
O531 C522 1.058 . S
C532 O533 1.228 . S
C532 O534 1.267 . S
O533 C532 1.228 . S
O534 Zn521 1.969 . S
O534 C532 1.267 . S
O535 Zn521 1.965 . S
O535 C539 1.260 . S
O536 Zn520 1.969 . S
O536 C539 1.258 . S
O537 Zn521 2.024 1_565 S
O537 C524 1.058 . S
C538 O527 1.260 . S
C538 O528 1.258 . S
C539 O535 1.260 . S
C539 O536 1.258 . S
Zn540 O546 1.969 . S
Zn540 O547 1.965 . S
Zn540 O551 2.024 . S
Zn540 O556 1.969 . S
Zn541 O548 1.969 . S
Zn541 O554 1.969 . S
Zn541 O555 1.965 . S
Zn541 O557 2.024 . S
C542 O543 1.229 . S
C542 O551 1.058 . S
O543 C542 1.229 . S
C544 O545 1.229 . S
C544 O557 1.058 . S
O545 C544 1.229 . S
O546 Zn540 1.969 . S
O546 C549 1.267 . S
O547 Zn540 1.965 . S
O547 C558 1.260 1_556 S
O548 Zn541 1.969 . S
O548 C558 1.258 . S
C549 O546 1.267 . S
C549 O550 1.228 . S
O550 C549 1.228 . S
O551 Zn540 2.024 . S
O551 C542 1.058 . S
C552 O553 1.228 . S
C552 O554 1.267 . S
O553 C552 1.228 . S
O554 Zn541 1.969 . S
O554 C552 1.267 . S
O555 Zn541 1.965 . S
O555 C559 1.260 1_554 S
O556 Zn540 1.969 . S
O556 C559 1.258 . S
O557 Zn541 2.024 . S
O557 C544 1.058 . S
C558 O547 1.260 1_554 S
C558 O548 1.258 . S
C559 O555 1.260 1_556 S
C559 O556 1.258 . S
Zn560 O566 1.969 1_455 S
Zn560 O567 1.965 1_455 S
Zn560 O571 2.024 . S
Zn560 O576 1.969 . S
Zn561 O568 1.969 . S
Zn561 O574 1.969 . S
Zn561 O575 1.965 . S
Zn561 O577 2.024 1_455 S
C562 O563 1.229 . S
C562 O571 1.058 . S
O563 C562 1.229 . S
C564 O565 1.229 . S
C564 O577 1.058 . S
O565 C564 1.229 . S
O566 Zn560 1.969 1_655 S
O566 C569 1.267 . S
O567 Zn560 1.965 1_655 S
O567 C578 1.260 . S
O568 Zn561 1.969 . S
O568 C578 1.258 1_455 S
C569 O566 1.267 . S
C569 O570 1.228 . S
O570 C569 1.228 . S
O571 Zn560 2.024 . S
O571 C562 1.058 . S
C572 O573 1.228 . S
C572 O574 1.267 . S
O573 C572 1.228 . S
O574 Zn561 1.969 . S
O574 C572 1.267 . S
O575 Zn561 1.965 . S
O575 C579 1.260 . S
O576 Zn560 1.969 . S
O576 C579 1.258 . S
O577 Zn561 2.024 1_655 S
O577 C564 1.058 . S
C578 O567 1.260 . S
C578 O568 1.258 1_655 S
C579 O575 1.260 . S
C579 O576 1.258 . S
Zn580 O586 1.969 . S
Zn580 O587 1.965 . S
Zn580 O591 2.024 . S
Zn580 O596 1.969 . S
Zn581 O588 1.969 . S
Zn581 O594 1.969 . S
Zn581 O595 1.965 . S
Zn581 O597 2.024 . S
C582 O583 1.229 . S
C582 O591 1.058 . S
O583 C582 1.229 . S
C584 O585 1.229 . S
C584 O597 1.058 . S
O585 C584 1.229 . S
O586 Zn580 1.969 . S
O586 C589 1.267 . S
O587 Zn580 1.965 . S
O587 C598 1.260 . S
O588 Zn581 1.969 . S
O588 C598 1.258 . S
C589 O586 1.267 . S
C589 O590 1.228 . S
O590 C589 1.228 . S
O591 Zn580 2.024 . S
O591 C582 1.058 . S
C592 O593 1.228 . S
C592 O594 1.267 . S
O593 C592 1.228 . S
O594 Zn581 1.969 . S
O594 C592 1.267 . S
O595 Zn581 1.965 . S
O595 C599 1.260 . S
O596 Zn580 1.969 . S
O596 C599 1.258 . S
O597 Zn581 2.024 . S
O597 C584 1.058 . S
C598 O587 1.260 . S
C598 O588 1.258 . S
C599 O595 1.260 . S
C599 O596 1.258 . S
Zn600 O606 1.969 . S
Zn600 O607 1.965 . S
Zn600 O611 2.024 . S
Zn600 O616 1.969 . S
Zn601 O608 1.969 . S
Zn601 O614 1.969 . S
Zn601 O615 1.965 . S
Zn601 O617 2.024 . S
C602 O603 1.229 . S
C602 O611 1.058 . S
O603 C602 1.229 . S
C604 O605 1.229 . S
C604 O617 1.058 . S
O605 C604 1.229 . S
O606 Zn600 1.969 . S
O606 C609 1.267 . S
O607 Zn600 1.965 . S
O607 C618 1.260 . S
O608 Zn601 1.969 . S
O608 C618 1.258 . S
C609 O606 1.267 . S
C609 O610 1.228 . S
O610 C609 1.228 . S
O611 Zn600 2.024 . S
O611 C602 1.058 . S
C612 O613 1.228 . S
C612 O614 1.267 . S
O613 C612 1.228 . S
O614 Zn601 1.969 . S
O614 C612 1.267 . S
O615 Zn601 1.965 . S
O615 C619 1.260 . S
O616 Zn600 1.969 . S
O616 C619 1.258 . S
O617 Zn601 2.024 . S
O617 C604 1.058 . S
C618 O607 1.260 . S
C618 O608 1.258 . S
C619 O615 1.260 . S
C619 O616 1.258 . S
Zn620 O626 1.969 . S
Zn620 O627 1.965 . S
Zn620 O631 2.024 1_655 S
Zn620 O636 1.969 1_655 S
Zn621 O628 1.969 1_455 S
Zn621 O634 1.969 . S
Zn621 O635 1.965 . S
Zn621 O637 2.024 1_455 S
C622 O623 1.229 . S
C622 O631 1.058 . S
O623 C622 1.229 . S
C624 O625 1.229 . S
C624 O637 1.058 . S
O625 C624 1.229 . S
O626 Zn620 1.969 . S
O626 C629 1.267 . S
O627 Zn620 1.965 . S
O627 C638 1.260 . S
O628 Zn621 1.969 1_655 S
O628 C638 1.258 . S
C629 O626 1.267 . S
C629 O630 1.228 . S
O630 C629 1.228 . S
O631 Zn620 2.024 1_455 S
O631 C622 1.058 . S
C632 O633 1.228 . S
C632 O634 1.267 . S
O633 C632 1.228 . S
O634 Zn621 1.969 . S
O634 C632 1.267 . S
O635 Zn621 1.965 . S
O635 C639 1.260 . S
O636 Zn620 1.969 1_455 S
O636 C639 1.258 . S
O637 Zn621 2.024 1_655 S
O637 C624 1.058 . S
C638 O627 1.260 . S
C638 O628 1.258 . S
C639 O635 1.260 . S
C639 O636 1.258 . S
Zn640 O646 1.969 . S
Zn640 O647 1.965 . S
Zn640 O651 2.024 . S
Zn640 O656 1.969 . S
Zn641 O648 1.969 . S
Zn641 O654 1.969 . S
Zn641 O655 1.965 . S
Zn641 O657 2.024 . S
C642 O643 1.229 . S
C642 O651 1.058 . S
O643 C642 1.229 . S
C644 O645 1.229 . S
C644 O657 1.058 . S
O645 C644 1.229 . S
O646 Zn640 1.969 . S
O646 C649 1.267 . S
O647 Zn640 1.965 . S
O647 C658 1.260 . S
O648 Zn641 1.969 . S
O648 C658 1.258 . S
C649 O646 1.267 . S
C649 O650 1.228 . S
O650 C649 1.228 . S
O651 Zn640 2.024 . S
O651 C642 1.058 . S
C652 O653 1.228 . S
C652 O654 1.267 . S
O653 C652 1.228 . S
O654 Zn641 1.969 . S
O654 C652 1.267 . S
O655 Zn641 1.965 . S
O655 C659 1.260 . S
O656 Zn640 1.969 . S
O656 C659 1.258 . S
O657 Zn641 2.024 . S
O657 C644 1.058 . S
C658 O647 1.260 . S
C658 O648 1.258 . S
C659 O655 1.260 . S
C659 O656 1.258 . S
Zn660 O666 1.969 . S
Zn660 O667 1.965 . S
Zn660 O671 2.024 . S
Zn660 O676 1.969 . S
Zn661 O668 1.969 . S
Zn661 O674 1.969 . S
Zn661 O675 1.965 . S
Zn661 O677 2.024 . S
C662 O663 1.229 . S
C662 O671 1.058 . S
O663 C662 1.229 . S
C664 O665 1.229 . S
C664 O677 1.058 . S
O665 C664 1.229 . S
O666 Zn660 1.969 . S
O666 C669 1.267 . S
O667 Zn660 1.965 . S
O667 C678 1.260 . S
O668 Zn661 1.969 . S
O668 C678 1.258 . S
C669 O666 1.267 . S
C669 O670 1.228 . S
O670 C669 1.228 . S
O671 Zn660 2.024 . S
O671 C662 1.058 . S
C672 O673 1.228 . S
C672 O674 1.267 1_554 S
O673 C672 1.228 . S
O674 Zn661 1.969 . S
O674 C672 1.267 1_556 S
O675 Zn661 1.965 . S
O675 C679 1.260 . S
O676 Zn660 1.969 . S
O676 C679 1.258 . S
O677 Zn661 2.024 . S
O677 C664 1.058 . S
C678 O667 1.260 . S
C678 O668 1.258 . S
C679 O675 1.260 . S
C679 O676 1.258 . S
Zn680 O686 1.969 . S
Zn680 O687 1.965 . S
Zn680 O691 2.024 . S
Zn680 O696 1.969 . S
Zn681 O688 1.969 . S
Zn681 O694 1.969 . S
Zn681 O695 1.965 . S
Zn681 O697 2.024 . S
C682 O683 1.229 . S
C682 O691 1.058 . S
O683 C682 1.229 . S
C684 O685 1.229 . S
C684 O697 1.058 . S
O685 C684 1.229 . S
O686 Zn680 1.969 . S
O686 C689 1.267 . S
O687 Zn680 1.965 . S
O687 C698 1.260 . S
O688 Zn681 1.969 . S
O688 C698 1.258 . S
C689 O686 1.267 . S
C689 O690 1.228 . S
O690 C689 1.228 . S
O691 Zn680 2.024 . S
O691 C682 1.058 . S
C692 O693 1.228 . S
C692 O694 1.267 . S
O693 C692 1.228 . S
O694 Zn681 1.969 . S
O694 C692 1.267 . S
O695 Zn681 1.965 . S
O695 C699 1.260 . S
O696 Zn680 1.969 . S
O696 C699 1.258 . S
O697 Zn681 2.024 . S
O697 C684 1.058 . S
C698 O687 1.260 . S
C698 O688 1.258 . S
C699 O695 1.260 . S
C699 O696 1.258 . S
Zn700 O706 1.969 . S
Zn700 O707 1.965 . S
Zn700 O711 2.024 . S
Zn700 O716 1.969 . S
Zn701 O708 1.969 . S
Zn701 O714 1.969 . S
Zn701 O715 1.965 . S
Zn701 O717 2.024 1_556 S
C702 O703 1.229 . S
C702 O711 1.058 . S
O703 C702 1.229 . S
C704 O705 1.229 1_554 S
C704 O717 1.058 . S
O705 C704 1.229 1_556 S
O706 Zn700 1.969 . S
O706 C709 1.267 . S
O707 Zn700 1.965 . S
O707 C718 1.260 . S
O708 Zn701 1.969 . S
O708 C718 1.258 . S
C709 O706 1.267 . S
C709 O710 1.228 . S
O710 C709 1.228 . S
O711 Zn700 2.024 . S
O711 C702 1.058 . S
C712 O713 1.228 1_556 S
C712 O714 1.267 . S
O713 C712 1.228 1_554 S
O714 Zn701 1.969 . S
O714 C712 1.267 . S
O715 Zn701 1.965 . S
O715 C719 1.260 . S
O716 Zn700 1.969 . S
O716 C719 1.258 . S
O717 Zn701 2.024 1_554 S
O717 C704 1.058 . S
C718 O707 1.260 . S
C718 O708 1.258 . S
C719 O715 1.260 . S
C719 O716 1.258 . S
Zn720 O726 1.969 . S
Zn720 O727 1.965 . S
Zn720 O731 2.024 . S
Zn720 O736 1.969 . S
Zn721 O728 1.969 . S
Zn721 O734 1.969 . S
Zn721 O735 1.965 . S
Zn721 O737 2.024 . S
C722 O723 1.229 . S
C722 O731 1.058 . S
O723 C722 1.229 . S
C724 O725 1.229 . S
C724 O737 1.058 . S
O725 C724 1.229 . S
O726 Zn720 1.969 . S
O726 C729 1.267 . S
O727 Zn720 1.965 . S
O727 C738 1.260 . S
O728 Zn721 1.969 . S
O728 C738 1.258 . S
C729 O726 1.267 . S
C729 O730 1.228 . S
O730 C729 1.228 . S
O731 Zn720 2.024 . S
O731 C722 1.058 . S
C732 O733 1.228 . S
C732 O734 1.267 . S
O733 C732 1.228 . S
O734 Zn721 1.969 . S
O734 C732 1.267 . S
O735 Zn721 1.965 . S
O735 C739 1.260 . S
O736 Zn720 1.969 . S
O736 C739 1.258 . S
O737 Zn721 2.024 . S
O737 C724 1.058 . S
C738 O727 1.260 . S
C738 O728 1.258 . S
C739 O735 1.260 . S
C739 O736 1.258 . S
Zn740 O746 1.969 . S
Zn740 O747 1.965 . S
Zn740 O751 2.024 . S
Zn740 O756 1.969 . S
Zn741 O748 1.969 . S
Zn741 O754 1.969 . S
Zn741 O755 1.965 . S
Zn741 O757 2.024 . S
C742 O743 1.229 . S
C742 O751 1.058 . S
O743 C742 1.229 . S
C744 O745 1.229 . S
C744 O757 1.058 . S
O745 C744 1.229 . S
O746 Zn740 1.969 . S
O746 C749 1.267 . S
O747 Zn740 1.965 . S
O747 C758 1.260 . S
O748 Zn741 1.969 . S
O748 C758 1.258 . S
C749 O746 1.267 . S
C749 O750 1.228 . S
O750 C749 1.228 . S
O751 Zn740 2.024 . S
O751 C742 1.058 . S
C752 O753 1.228 . S
C752 O754 1.267 . S
O753 C752 1.228 . S
O754 Zn741 1.969 . S
O754 C752 1.267 . S
O755 Zn741 1.965 . S
O755 C759 1.260 . S
O756 Zn740 1.969 . S
O756 C759 1.258 . S
O757 Zn741 2.024 . S
O757 C744 1.058 . S
C758 O747 1.260 . S
C758 O748 1.258 . S
C759 O755 1.260 . S
C759 O756 1.258 . S
Zn760 O766 1.969 . S
Zn760 O767 1.965 . S
Zn760 O771 2.024 . S
Zn760 O776 1.969 . S
Zn761 O768 1.969 . S
Zn761 O774 1.969 . S
Zn761 O775 1.965 . S
Zn761 O777 2.024 . S
C762 O763 1.229 . S
C762 O771 1.058 . S
O763 C762 1.229 . S
C764 O765 1.229 . S
C764 O777 1.058 . S
O765 C764 1.229 . S
O766 Zn760 1.969 . S
O766 C769 1.267 . S
O767 Zn760 1.965 . S
O767 C778 1.260 . S
O768 Zn761 1.969 . S
O768 C778 1.258 . S
C769 O766 1.267 . S
C769 O770 1.228 . S
O770 C769 1.228 . S
O771 Zn760 2.024 . S
O771 C762 1.058 . S
C772 O773 1.228 . S
C772 O774 1.267 . S
O773 C772 1.228 . S
O774 Zn761 1.969 . S
O774 C772 1.267 . S
O775 Zn761 1.965 . S
O775 C779 1.260 . S
O776 Zn760 1.969 . S
O776 C779 1.258 . S
O777 Zn761 2.024 . S
O777 C764 1.058 . S
C778 O767 1.260 . S
C778 O768 1.258 . S
C779 O775 1.260 . S
C779 O776 1.258 . S
Zn780 O786 1.969 . S
Zn780 O787 1.965 . S
Zn780 O791 2.024 . S
Zn780 O796 1.969 . S
Zn781 O788 1.969 . S
Zn781 O794 1.969 . S
Zn781 O795 1.965 . S
Zn781 O797 2.024 . S
C782 O783 1.229 . S
C782 O791 1.058 . S
O783 C782 1.229 . S
C784 O785 1.229 . S
C784 O797 1.058 . S
O785 C784 1.229 . S
O786 Zn780 1.969 . S
O786 C789 1.267 . S
O787 Zn780 1.965 . S
O787 C798 1.260 . S
O788 Zn781 1.969 . S
O788 C798 1.258 . S
C789 O786 1.267 . S
C789 O790 1.228 . S
O790 C789 1.228 . S
O791 Zn780 2.024 . S
O791 C782 1.058 . S
C792 O793 1.228 . S
C792 O794 1.267 . S
O793 C792 1.228 . S
O794 Zn781 1.969 . S
O794 C792 1.267 . S
O795 Zn781 1.965 . S
O795 C799 1.260 . S
O796 Zn780 1.969 . S
O796 C799 1.258 . S
O797 Zn781 2.024 . S
O797 C784 1.058 . S
C798 O787 1.260 . S
C798 O788 1.258 . S
C799 O795 1.260 . S
C799 O796 1.258 . S
Zn800 O806 1.969 . S
Zn800 O807 1.965 . S
Zn800 O811 2.024 1_655 S
Zn800 O816 1.969 1_655 S
Zn801 O808 1.969 1_455 S
Zn801 O814 1.969 . S
Zn801 O815 1.965 . S
Zn801 O817 2.024 1_455 S
C802 O803 1.229 . S
C802 O811 1.058 . S
O803 C802 1.229 . S
C804 O805 1.229 . S
C804 O817 1.058 . S
O805 C804 1.229 . S
O806 Zn800 1.969 . S
O806 C809 1.267 . S
O807 Zn800 1.965 . S
O807 C818 1.260 . S
O808 Zn801 1.969 1_655 S
O808 C818 1.258 . S
C809 O806 1.267 . S
C809 O810 1.228 . S
O810 C809 1.228 . S
O811 Zn800 2.024 1_455 S
O811 C802 1.058 . S
C812 O813 1.228 . S
C812 O814 1.267 . S
O813 C812 1.228 . S
O814 Zn801 1.969 . S
O814 C812 1.267 . S
O815 Zn801 1.965 . S
O815 C819 1.260 . S
O816 Zn800 1.969 1_455 S
O816 C819 1.258 . S
O817 Zn801 2.024 1_655 S
O817 C804 1.058 . S
C818 O807 1.260 . S
C818 O808 1.258 . S
C819 O815 1.260 . S
C819 O816 1.258 . S
Zn820 O826 1.969 . S
Zn820 O827 1.965 . S
Zn820 O831 2.024 . S
Zn820 O836 1.969 . S
Zn821 O828 1.969 . S
Zn821 O834 1.969 . S
Zn821 O835 1.965 . S
Zn821 O837 2.024 . S
C822 O823 1.229 . S
C822 O831 1.058 . S
O823 C822 1.229 . S
C824 O825 1.229 . S
C824 O837 1.058 . S
O825 C824 1.229 . S
O826 Zn820 1.969 . S
O826 C829 1.267 . S
O827 Zn820 1.965 . S
O827 C838 1.260 . S
O828 Zn821 1.969 . S
O828 C838 1.258 . S
C829 O826 1.267 . S
C829 O830 1.228 . S
O830 C829 1.228 . S
O831 Zn820 2.024 . S
O831 C822 1.058 . S
C832 O833 1.228 . S
C832 O834 1.267 . S
O833 C832 1.228 . S
O834 Zn821 1.969 . S
O834 C832 1.267 . S
O835 Zn821 1.965 . S
O835 C839 1.260 . S
O836 Zn820 1.969 . S
O836 C839 1.258 . S
O837 Zn821 2.024 . S
O837 C824 1.058 . S
C838 O827 1.260 . S
C838 O828 1.258 . S
C839 O835 1.260 . S
C839 O836 1.258 . S
Zn840 O846 1.969 . S
Zn840 O847 1.965 . S
Zn840 O851 2.024 . S
Zn840 O856 1.969 . S
Zn841 O848 1.969 . S
Zn841 O854 1.969 . S
Zn841 O855 1.965 . S
Zn841 O857 2.024 . S
C842 O843 1.229 . S
C842 O851 1.058 . S
O843 C842 1.229 . S
C844 O845 1.229 . S
C844 O857 1.058 . S
O845 C844 1.229 . S
O846 Zn840 1.969 . S
O846 C849 1.267 1_554 S
O847 Zn840 1.965 . S
O847 C858 1.260 . S
O848 Zn841 1.969 . S
O848 C858 1.258 . S
C849 O846 1.267 1_556 S
C849 O850 1.228 . S
O850 C849 1.228 . S
O851 Zn840 2.024 . S
O851 C842 1.058 . S
C852 O853 1.228 . S
C852 O854 1.267 . S
O853 C852 1.228 . S
O854 Zn841 1.969 . S
O854 C852 1.267 . S
O855 Zn841 1.965 . S
O855 C859 1.260 . S
O856 Zn840 1.969 . S
O856 C859 1.258 . S
O857 Zn841 2.024 . S
O857 C844 1.058 . S
C858 O847 1.260 . S
C858 O848 1.258 . S
C859 O855 1.260 . S
C859 O856 1.258 . S
Zn860 O866 1.969 . S
Zn860 O867 1.965 . S
Zn860 O871 2.024 . S
Zn860 O876 1.969 . S
Zn861 O868 1.969 . S
Zn861 O874 1.969 . S
Zn861 O875 1.965 . S
Zn861 O877 2.024 . S
C862 O863 1.229 . S
C862 O871 1.058 . S
O863 C862 1.229 . S
C864 O865 1.229 . S
C864 O877 1.058 . S
O865 C864 1.229 . S
O866 Zn860 1.969 . S
O866 C869 1.267 . S
O867 Zn860 1.965 . S
O867 C878 1.260 . S
O868 Zn861 1.969 . S
O868 C878 1.258 . S
C869 O866 1.267 . S
C869 O870 1.228 . S
O870 C869 1.228 . S
O871 Zn860 2.024 . S
O871 C862 1.058 . S
C872 O873 1.228 . S
C872 O874 1.267 . S
O873 C872 1.228 . S
O874 Zn861 1.969 . S
O874 C872 1.267 . S
O875 Zn861 1.965 . S
O875 C879 1.260 . S
O876 Zn860 1.969 . S
O876 C879 1.258 . S
O877 Zn861 2.024 . S
O877 C864 1.058 . S
C878 O867 1.260 . S
C878 O868 1.258 . S
C879 O875 1.260 . S
C879 O876 1.258 . S
Zn880 O886 1.969 . S
Zn880 O887 1.965 . S
Zn880 O891 2.024 1_554 S
Zn880 O896 1.969 . S
Zn881 O888 1.969 . S
Zn881 O894 1.969 . S
Zn881 O895 1.965 . S
Zn881 O897 2.024 . S
C882 O883 1.229 1_556 S
C882 O891 1.058 . S
O883 C882 1.229 1_554 S
C884 O885 1.229 . S
C884 O897 1.058 . S
O885 C884 1.229 . S
O886 Zn880 1.969 . S
O886 C889 1.267 . S
O887 Zn880 1.965 . S
O887 C898 1.260 . S
O888 Zn881 1.969 . S
O888 C898 1.258 . S
C889 O886 1.267 . S
C889 O890 1.228 1_554 S
O890 C889 1.228 1_556 S
O891 Zn880 2.024 1_556 S
O891 C882 1.058 . S
C892 O893 1.228 . S
C892 O894 1.267 . S
O893 C892 1.228 . S
O894 Zn881 1.969 . S
O894 C892 1.267 . S
O895 Zn881 1.965 . S
O895 C899 1.260 . S
O896 Zn880 1.969 . S
O896 C899 1.258 . S
O897 Zn881 2.024 . S
O897 C884 1.058 . S
C898 O887 1.260 . S
C898 O888 1.258 . S
C899 O895 1.260 . S
C899 O896 1.258 . S
Zn900 O906 1.969 . S
Zn900 O907 1.965 . S
Zn900 O911 2.024 . S
Zn900 O916 1.969 . S
Zn901 O908 1.969 . S
Zn901 O914 1.969 . S
Zn901 O915 1.965 . S
Zn901 O917 2.024 . S
C902 O903 1.229 . S
C902 O911 1.058 . S
O903 C902 1.229 . S
C904 O905 1.229 . S
C904 O917 1.058 . S
O905 C904 1.229 . S
O906 Zn900 1.969 . S
O906 C909 1.267 . S
O907 Zn900 1.965 . S
O907 C918 1.260 . S
O908 Zn901 1.969 . S
O908 C918 1.258 . S
C909 O906 1.267 . S
C909 O910 1.228 . S
O910 C909 1.228 . S
O911 Zn900 2.024 . S
O911 C902 1.058 . S
C912 O913 1.228 . S
C912 O914 1.267 . S
O913 C912 1.228 . S
O914 Zn901 1.969 . S
O914 C912 1.267 . S
O915 Zn901 1.965 . S
O915 C919 1.260 . S
O916 Zn900 1.969 . S
O916 C919 1.258 . S
O917 Zn901 2.024 . S
O917 C904 1.058 . S
C918 O907 1.260 . S
C918 O908 1.258 . S
C919 O915 1.260 . S
C919 O916 1.258 . S
Zn920 O926 1.969 . S
Zn920 O927 1.965 . S
Zn920 O931 2.024 . S
Zn920 O936 1.969 . S
Zn921 O928 1.969 . S
Zn921 O934 1.969 . S
Zn921 O935 1.965 . S
Zn921 O937 2.024 . S
C922 O923 1.229 . S
C922 O931 1.058 . S
O923 C922 1.229 . S
C924 O925 1.229 . S
C924 O937 1.058 . S
O925 C924 1.229 . S
O926 Zn920 1.969 . S
O926 C929 1.267 . S
O927 Zn920 1.965 . S
O927 C938 1.260 . S
O928 Zn921 1.969 . S
O928 C938 1.258 . S
C929 O926 1.267 . S
C929 O930 1.228 . S
O930 C929 1.228 . S
O931 Zn920 2.024 . S
O931 C922 1.058 . S
C932 O933 1.228 . S
C932 O934 1.267 . S
O933 C932 1.228 . S
O934 Zn921 1.969 . S
O934 C932 1.267 . S
O935 Zn921 1.965 . S
O935 C939 1.260 . S
O936 Zn920 1.969 . S
O936 C939 1.258 . S
O937 Zn921 2.024 . S
O937 C924 1.058 . S
C938 O927 1.260 . S
C938 O928 1.258 . S
C939 O935 1.260 . S
C939 O936 1.258 . S
Zn940 O946 1.969 . S
Zn940 O947 1.965 . S
Zn940 O951 2.024 . S
Zn940 O956 1.969 . S
Zn941 O948 1.969 . S
Zn941 O954 1.969 . S
Zn941 O955 1.965 . S
Zn941 O957 2.024 . S
C942 O943 1.229 . S
C942 O951 1.058 . S
O943 C942 1.229 . S
C944 O945 1.229 . S
C944 O957 1.058 . S
O945 C944 1.229 . S
O946 Zn940 1.969 . S
O946 C949 1.267 . S
O947 Zn940 1.965 . S
O947 C958 1.260 . S
O948 Zn941 1.969 . S
O948 C958 1.258 . S
C949 O946 1.267 . S
C949 O950 1.228 . S
O950 C949 1.228 . S
O951 Zn940 2.024 . S
O951 C942 1.058 . S
C952 O953 1.228 . S
C952 O954 1.267 . S
O953 C952 1.228 . S
O954 Zn941 1.969 . S
O954 C952 1.267 . S
O955 Zn941 1.965 . S
O955 C959 1.260 . S
O956 Zn940 1.969 . S
O956 C959 1.258 . S
O957 Zn941 2.024 . S
O957 C944 1.058 . S
C958 O947 1.260 . S
C958 O948 1.258 . S
C959 O955 1.260 . S
C959 O956 1.258 . S
C2 C99 4.951 1_455 S
C22 C119 3.686 . S
C122 C42 4.305 . S
C159 C62 4.572 . S
C179 C199 4.760 . S
C182 C219 4.741 . S
C222 C202 3.956 1_554 S
C239 C162 4.566 1_545 S
C259 C79 3.760 . S
C142 C662 4.125 1_655 S
C82 C279 4.700 1_655 S
C102 C682 4.321 . S
C39 C299 3.927 1_655 S
C639 C19 4.125 . S
C619 C59 4.065 . S
C398 C304 4.951 1_455 S
C324 C418 3.686 . S
C344 C424 4.305 . S
C364 C458 4.572 . S
C498 C478 4.760 . S
C484 C518 4.741 . S
C524 C504 3.956 1_556 S
C464 C538 4.566 1_545 S
C378 C558 3.760 . S
C844 C444 4.125 1_655 S
C578 C384 4.700 1_655 S
C404 C864 4.321 . S
C598 C338 3.927 1_655 S
C318 C818 4.125 . S
C358 C798 4.065 . S
C659 C602 4.483 1_545 S
C679 C242 3.480 . S
C622 C262 4.540 1_545 S
C699 C282 4.400 . S
C719 C739 4.484 1_556 S
C722 C759 5.134 . S
C779 C742 4.314 . S
C702 C762 4.439 . S
C139 C642 4.989 . S
C838 C784 4.483 1_565 S
C858 C544 3.480 . S
C564 C804 4.540 1_545 S
C878 C584 4.400 . S
C898 C918 4.484 1_554 S
C904 C938 5.134 . S
C924 C958 4.314 . S
C944 C884 4.439 . S
C824 C438 4.989 . S
C4 C329 1.536 . S
C809 C24 1.473 . S
C44 C369 1.552 . S
C64 C789 1.592 . S
C98 C452 0.413 . S
C118 C832 0.989 . S
C124 C412 1.132 . S
C569 C158 0.453 . S
C178 C792 2.266 . S
C184 C332 1.787 . S
C204 C812 1.729 . S
C372 C238 1.778 . S
C829 C224 0.990 . S
C409 C164 1.284 . S
C198 C572 1.068 . S
C449 C218 0.456 . S
C889 C258 1.704 . S
C532 C144 1.037 . S
C84 C892 1.332 . S
C104 C489 1.050 . S
C278 C509 0.529 . S
C932 C298 1.366 . S
C18 C952 1.519 . S
C58 C912 1.529 . S
C32 C302 1.536 . S
C322 C632 1.473 . S
C342 C72 1.552 . S
C362 C612 1.592 . S
C149 C399 0.413 . S
C649 C419 0.989 . S
C109 C422 1.132 . S
C459 C272 0.453 . S
C479 C609 2.266 . S
C29 C482 1.787 . S
C502 C629 1.729 . S
C69 C539 1.778 . S
C652 C522 0.990 . S
C462 C112 1.284 . S
C499 C269 1.068 . S
C152 C519 0.456 . S
C559 C712 1.704 . S
C229 C442 1.037 . S
C709 C382 1.332 . S
C402 C192 1.050 . S
C579 C212 0.529 . S
C749 C599 1.366 . S
C319 C769 1.519 . S
C729 C359 1.529 . S
C549 C604 1.593 . S
C244 C349 1.550 . S
C589 C624 1.706 . S
C284 C309 1.434 . S
C658 C872 0.596 . S
C392 C678 1.083 . S
C264 C852 1.529 . S
C429 C698 0.935 . S
C718 C312 1.947 . S
C724 C552 2.049 . S
C744 C352 1.852 . S
C592 C764 1.199 . S
C389 C778 0.889 . S
C704 C849 1.136 1_554 S
C432 C738 0.787 . S
C758 C869 0.410 . S
C38 C469 1.819 . S
C949 C684 0.902 . S
C644 C472 1.513 . S
C664 C909 1.074 . S
C929 C138 0.642 . S
C512 C78 0.943 . S
C618 C529 1.006 . S
C492 C638 1.693 . S
C252 C782 1.593 . S
C542 C52 1.550 . S
C292 C802 1.706 . S
C582 C12 1.434 . S
C839 C689 0.596 . S
C89 C859 1.083 . S
C669 C562 1.529 . S
C132 C879 0.935 . S
C9 C899 1.947 . S
C902 C249 2.049 . S
C49 C922 1.852 . S
C289 C942 1.199 . S
C92 C959 0.889 . S
C672 C882 1.136 1_554 S
C919 C129 0.787 . S
C692 C939 0.410 . S
C172 C339 1.819 . S
C862 C772 0.902 . S
C822 C169 1.513 . S
C732 C842 1.074 . S
C439 C752 0.642 . S
C379 C209 0.943 . S
C232 C799 1.006 . S
C189 C819 1.693 . S
