# Generated by pormake.
# Topology mdf, (4)-cn, num edge types: 1
# Building blocks:
#     Node 0, Type 0, BuildingBlock: GALJAG_clean_sbu_0, # of connection points: 4
#     Node 1, Type 0, BuildingBlock: GALJAG_clean_sbu_0, # of connection points: 4
#     Node 2, Type 0, BuildingBlock: GALJAG_clean_sbu_0, # of connection points: 4
#     Node 3, Type 0, BuildingBlock: GALJAG_clean_sbu_0, # of connection points: 4
#     Node 4, Type 0, BuildingBlock: GALJAG_clean_sbu_0, # of connection points: 4
#     Node 5, Type 0, BuildingBlock: GALJAG_clean_sbu_0, # of connection points: 4
#     Node 6, Type 0, BuildingBlock: GALJAG_clean_sbu_0, # of connection points: 4
#     Node 7, Type 0, BuildingBlock: GALJAG_clean_sbu_0, # of connection points: 4
#     Edge 8, Type (0, 0), BuildingBlock: ZUJKAS_clean_linker_0, # of connection points: 2
#     Edge 9, Type (0, 0), BuildingBlock: ZUJKAS_clean_linker_0, # of connection points: 2
#     Edge 10, Type (0, 0), BuildingBlock: ZUJKAS_clean_linker_0, # of connection points: 2
#     Edge 11, Type (0, 0), BuildingBlock: ZUJKAS_clean_linker_0, # of connection points: 2
#     Edge 12, Type (0, 0), BuildingBlock: ZUJKAS_clean_linker_0, # of connection points: 2
#     Edge 13, Type (0, 0), BuildingBlock: ZUJKAS_clean_linker_0, # of connection points: 2
#     Edge 14, Type (0, 0), BuildingBlock: ZUJKAS_clean_linker_0, # of connection points: 2
#     Edge 15, Type (0, 0), BuildingBlock: ZUJKAS_clean_linker_0, # of connection points: 2
#     Edge 16, Type (0, 0), BuildingBlock: ZUJKAS_clean_linker_0, # of connection points: 2
#     Edge 17, Type (0, 0), BuildingBlock: ZUJKAS_clean_linker_0, # of connection points: 2
#     Edge 18, Type (0, 0), BuildingBlock: ZUJKAS_clean_linker_0, # of connection points: 2
#     Edge 19, Type (0, 0), BuildingBlock: ZUJKAS_clean_linker_0, # of connection points: 2
#     Edge 20, Type (0, 0), BuildingBlock: ZUJKAS_clean_linker_0, # of connection points: 2
#     Edge 21, Type (0, 0), BuildingBlock: ZUJKAS_clean_linker_0, # of connection points: 2
#     Edge 22, Type (0, 0), BuildingBlock: ZUJKAS_clean_linker_0, # of connection points: 2
#     Edge 23, Type (0, 0), BuildingBlock: ZUJKAS_clean_linker_0, # of connection points: 2
# Relax obj value: 0.054
# Max RMSD: 0.086
# Mean RMSD: 0.086
data_MOF--net-mdf--node1-GALJAG_clean_sbu_0--edge1-ZUJKAS_clean_linker_0
_symmetry_space_group_name_H-M    P1
_symmetry_Int_Tables_number       1
_symmetry_cell_setting            triclinic
loop_
_symmetry_equiv_pos_as_xyz
'x, y, z'
_cell_length_a     50.987989
_cell_length_b     50.95003
_cell_length_c     13.986297
_cell_angle_alpha  90.221694
_cell_angle_beta   90.156477
_cell_angle_gamma 90.005875
loop_
_atom_site_label
_atom_site_type_symbol
_atom_site_fract_x
_atom_site_fract_y
_atom_site_fract_z
_atom_type_partial_charge
In0 In 0.24707 0.51749 0.37118 0.0
O1 O 0.25723 0.53624 0.22775 0.0
O2 O 0.27546 0.55119 0.35405 0.0
C3 C 0.20912 0.48238 0.33099 0.0
C4 C 0.28729 0.48494 0.40863 0.0
C5 C 0.21939 0.55053 0.48196 0.0
O6 O 0.21695 0.4988 0.26975 0.0
O7 O 0.22048 0.48379 0.41102 0.0
O8 O 0.23719 0.53597 0.51592 0.0
O9 O 0.21572 0.54826 0.39307 0.0
C10 C 0.27299 0.55265 0.26444 0.0
O11 O 0.27619 0.49817 0.47369 0.0
O12 O 0.27811 0.4883 0.32572 0.0
In13 In 0.47777 0.74764 0.62377 0.0
O14 O 0.4584 0.73738 0.7661 0.0
O15 O 0.44633 0.71685 0.64022 0.0
C16 C 0.51222 0.78625 0.66272 0.0
C17 C 0.51144 0.70878 0.58047 0.0
C18 C 0.4424 0.77496 0.52228 0.0
O19 O 0.49902 0.7753 0.72784 0.0
O20 O 0.50793 0.77768 0.57944 0.0
O21 O 0.45701 0.75787 0.48373 0.0
O22 O 0.44583 0.77812 0.61098 0.0
C23 C 0.44367 0.72005 0.7292 0.0
O24 O 0.49796 0.72018 0.51689 0.0
O25 O 0.50785 0.71707 0.66451 0.0
In26 In 0.24819 0.97964 0.87668 0.0
O27 O 0.25733 0.96108 0.0216 0.0
O28 O 0.27752 0.94697 0.89844 0.0
C29 C 0.21012 0.01489 0.91246 0.0
C30 C 0.28797 0.01227 0.83419 0.0
C31 C 0.22064 0.94497 0.77178 0.0
O32 O 0.22016 0.00108 0.97801 0.0
O33 O 0.21936 0.01086 0.83017 0.0
O34 O 0.23875 0.95873 0.73592 0.0
O35 O 0.21658 0.94885 0.85965 0.0
C36 C 0.27403 0.94526 0.98748 0.0
O37 O 0.2766 -0.00143 0.77088 0.0
O38 O 0.27922 0.00941 0.91777 0.0
In39 In 0.0166 0.74793 0.12742 0.0
O40 O 0.99632 0.71993 0.23132 0.0
O41 O 0.98505 0.71895 0.08462 0.0
C42 C 0.05166 0.77449 0.23375 0.0
C43 C 0.05056 0.71962 0.02317 0.0
C44 C 0.98374 0.78766 0.08608 0.0
O45 O 0.03539 0.75879 0.27079 0.0
O46 O 0.0501 0.7766 0.14404 0.0
O47 O 0.99696 0.77616 0.02197 0.0
O48 O 0.98719 0.77904 0.16955 0.0
C49 C 0.98192 0.70975 0.1674 0.0
O50 O 0.03639 0.73728 0.98608 0.0
O51 O 0.04742 0.71642 0.11185 0.0
In52 In 0.74795 0.01683 0.87038 0.0
O53 O 0.75782 0.03606 0.72753 0.0
O54 O 0.77797 0.04905 0.85285 0.0
C55 C 0.70919 0.98255 0.83124 0.0
C56 C 0.78712 0.98326 0.91105 0.0
C57 C 0.72061 0.05149 0.97537 0.0
O58 O 0.71975 0.99627 0.76669 0.0
O59 O 0.71828 0.98618 0.9142 0.0
O60 O 0.7379 0.03682 0.01229 0.0
O61 O 0.71731 0.0485 0.88655 0.0
C62 C 0.77473 0.05136 0.7638 0.0
O63 O 0.77639 0.9972 0.97497 0.0
O64 O 0.77802 0.98634 0.82792 0.0
In65 In 0.97767 0.24792 0.1214 0.0
O66 O 0.95898 0.23703 0.2643 0.0
O67 O 0.94539 0.21797 0.13747 0.0
C68 C 0.01234 0.28628 0.16098 0.0
C69 C 0.01113 0.20873 0.07995 0.0
C70 C 0.943 0.27551 0.01759 0.0
O71 O 0.99732 0.27702 0.22434 0.0
O72 O 0.00972 0.27617 0.07908 0.0
O73 O 0.95749 0.25814 0.98014 0.0
O74 O 0.94623 0.27882 0.10629 0.0
C75 C 0.94348 0.22047 0.22699 0.0
O76 O -0.00231 0.21998 0.01586 0.0
O77 O 0.00754 0.21728 0.16367 0.0
In78 In 0.7473 0.47898 0.37181 0.0
O79 O 0.75672 0.4601 0.51575 0.0
O80 O 0.7772 0.44676 0.39201 0.0
C81 C 0.70879 0.51368 0.40834 0.0
C82 C 0.78685 0.51221 0.33344 0.0
C83 C 0.72018 0.44424 0.26578 0.0
O84 O 0.71862 0.49951 0.47327 0.0
O85 O 0.71841 0.51023 0.32629 0.0
O86 O 0.73736 0.45908 0.22941 0.0
O87 O 0.71686 0.44712 0.35457 0.0
C88 C 0.77372 0.44471 0.48098 0.0
O89 O 0.77609 0.4985 0.2687 0.0
O90 O 0.77761 0.50903 0.41614 0.0
In91 In 0.51632 0.24834 0.61532 0.0
O92 O 0.49603 0.22004 0.71824 0.0
O93 O 0.48619 0.21809 0.57034 0.0
C94 C 0.55047 0.27536 0.72408 0.0
C95 C 0.55109 0.22165 0.50879 0.0
C96 C 0.48242 0.28733 0.57579 0.0
O97 O 0.53575 0.25784 0.75877 0.0
O98 O 0.54784 0.27905 0.6354 0.0
O99 O 0.4965 0.27691 0.51172 0.0
O100 O 0.48548 0.27796 0.6584 0.0
C101 C 0.48257 0.20913 0.65319 0.0
O102 O 0.53579 0.23849 0.47263 0.0
O103 O 0.54873 0.21848 0.59778 0.0
H104 H 0.43532 0.72105 0.92266 0.0
H105 H 0.4048 0.69355 0.0137 0.0
H106 H 0.37891 0.65661 0.75202 0.0
H107 H 0.40943 0.6836 0.66109 0.0
H108 H 0.34958 0.68845 0.99663 0.0
H109 H 0.40051 0.59444 0.91983 0.0
H110 H 0.41561 0.62598 0.89983 0.0
H111 H 0.39235 0.61302 0.81509 0.0
C112 C 0.42311 0.70704 0.88474 0.0
C113 C 0.42489 0.7043 0.78496 0.0
C114 C 0.40571 0.69141 0.93669 0.0
C115 C 0.38997 0.67278 0.88959 0.0
C116 C 0.39129 0.67048 0.78984 0.0
H117 H 0.27563 0.55658 0.0696 0.0
H118 H 0.30261 0.58716 0.97689 0.0
C119 C 0.40867 0.68601 0.73802 0.0
C120 C 0.37207 0.65567 0.9443 0.0
H121 H 0.35875 0.59148 0.99353 0.0
C122 C 0.35162 0.66726 0.99645 0.0
C123 C 0.37482 0.62804 0.94358 0.0
C124 C 0.39714 0.61459 0.89234 0.0
C125 C 0.33353 0.65186 0.04678 0.0
C126 C 0.33623 0.62425 0.04557 0.0
C127 C 0.35666 0.61267 0.99349 0.0
C128 C 0.3187 0.60697 0.10098 0.0
C129 C 0.31144 0.66518 0.09965 0.0
C130 C 0.31897 0.60802 0.20111 0.0
C131 C 0.30375 0.59058 0.25398 0.0
C132 C 0.28802 0.57175 0.20758 0.0
C133 C 0.28752 0.57094 0.10717 0.0
C134 C 0.30289 0.58834 0.05425 0.0
H135 H 0.30836 0.68562 0.07467 0.0
H136 H 0.29284 0.65407 0.09082 0.0
H137 H 0.31624 0.66589 0.17705 0.0
H138 H 0.3314 0.62195 0.23842 0.0
H139 H 0.30457 0.59165 0.33129 0.0
H140 H 0.4072 0.80978 0.59457 0.0
H141 H 0.37565 0.83655 0.50666 0.0
H142 H 0.40231 0.8026 0.24113 0.0
H143 H 0.43369 0.77529 0.32904 0.0
H144 H 0.38681 0.8735 0.37158 0.0
H145 H 0.32293 0.79581 0.21794 0.0
H146 H 0.34588 0.78954 0.31368 0.0
H147 H 0.35713 0.79145 0.19216 0.0
C148 C 0.40621 0.80783 0.51749 0.0
C149 C 0.42288 0.79043 0.46855 0.0
C150 C 0.38817 0.82314 0.46744 0.0
C151 C 0.38641 0.82131 0.36759 0.0
C152 C 0.40296 0.80388 0.3184 0.0
H153 H 0.30849 0.90825 0.92557 0.0
H154 H 0.33441 0.87795 0.02227 0.0
C155 C 0.42098 0.78844 0.36857 0.0
C156 C 0.36825 0.83876 0.31498 0.0
H157 H 0.31691 0.83911 0.15781 0.0
C158 C 0.37137 0.866 0.32547 0.0
C159 C 0.34814 0.82887 0.25502 0.0
C160 C 0.34309 0.79982 0.24453 0.0
C161 C 0.35534 0.88366 0.27566 0.0
C162 C 0.33548 0.87377 0.21477 0.0
C163 C 0.33216 0.84656 0.20483 0.0
C164 C 0.31876 0.89143 0.15735 0.0
C165 C 0.36024 0.91274 0.28632 0.0
C166 C 0.3011 0.90875 0.20152 0.0
C167 C 0.28621 0.92614 0.14641 0.0
C168 C 0.28882 0.92638 0.04643 0.0
C169 C 0.30614 0.90861 0.00252 0.0
C170 C 0.32091 0.89123 0.05753 0.0
H171 H 0.37943 0.91692 0.32104 0.0
H172 H 0.35976 0.92253 0.21554 0.0
H173 H 0.34458 0.92151 0.33113 0.0
H174 H 0.29895 0.90891 0.27855 0.0
H175 H 0.27292 0.93954 0.18205 0.0
H176 H 0.05435 0.77993 0.42831 0.0
H177 H 0.08472 0.80781 0.51967 0.0
H178 H 0.1227 0.83083 0.25783 0.0
H179 H 0.09216 0.80363 0.16627 0.0
H180 H 0.13908 0.80772 0.53281 0.0
H181 H 0.1034 0.90109 0.37622 0.0
H182 H 0.08589 0.87053 0.36243 0.0
H183 H 0.11384 0.87754 0.28856 0.0
C184 C 0.06922 0.79093 0.39043 0.0
C185 C 0.07073 0.78987 0.29022 0.0
C186 C 0.08653 0.8068 0.44258 0.0
C187 C 0.10557 0.82178 0.39522 0.0
C188 C 0.1077 0.81996 0.2955 0.0
H189 H 0.22421 0.93378 0.58072 0.0
H190 H 0.19749 0.90249 0.48892 0.0
C191 C 0.09032 0.80431 0.24339 0.0
C192 C 0.12315 0.83949 0.44977 0.0
H193 H 0.14184 0.90357 0.4718 0.0
C194 C 0.13964 0.82869 0.51982 0.0
C195 C 0.1238 0.86684 0.43251 0.0
C196 C 0.10562 0.87976 0.36151 0.0
C197 C 0.15709 0.84451 0.57222 0.0
C198 C 0.15778 0.87181 0.55459 0.0
C199 C 0.14136 0.88258 0.48447 0.0
C200 C 0.1747 0.88977 0.61054 0.0
C201 C 0.17489 0.83186 0.64504 0.0
C202 C 0.17052 0.89305 0.70886 0.0
C203 C 0.18563 0.91087 0.76117 0.0
C204 C 0.20514 0.92582 0.71594 0.0
C205 C 0.20935 0.92249 0.61741 0.0
C206 C 0.19414 0.90465 0.56501 0.0
H207 H 0.17679 0.81038 0.63272 0.0
H208 H 0.19474 0.84083 0.64365 0.0
H209 H 0.16659 0.83488 0.71751 0.0
H210 H 0.15524 0.88213 0.74485 0.0
H211 H 0.18187 0.91309 0.83696 0.0
H212 H 0.08421 0.68283 0.09194 0.0
H213 H 0.11498 0.65571 0.0017 0.0
H214 H 0.08986 0.69255 0.73979 0.0
H215 H 0.05926 0.72019 0.8301 0.0
H216 H 0.10348 0.62017 0.86014 0.0
H217 H 0.16951 0.69801 0.72347 0.0
H218 H 0.14635 0.70378 0.81865 0.0
H219 H 0.13548 0.70326 0.69624 0.0
C220 C 0.08535 0.68531 0.01517 0.0
C221 C 0.06938 0.70367 0.96798 0.0
C222 C 0.10293 0.66979 0.96379 0.0
C223 C 0.10495 0.67237 0.86433 0.0
C224 C 0.089 0.69066 0.81682 0.0
H225 H 0.18389 0.58644 0.41962 0.0
H226 H 0.15704 0.6161 0.51612 0.0
C227 C 0.07143 0.7063 0.86833 0.0
C228 C 0.12294 0.65504 0.81033 0.0
H229 H 0.17523 0.65514 0.65837 0.0
C230 C 0.11929 0.62779 0.81657 0.0
C231 C 0.14356 0.66509 0.75377 0.0
C232 C 0.14918 0.69412 0.74812 0.0
C233 C 0.13539 0.6103 0.76605 0.0
C234 C 0.15576 0.62037 0.70866 0.0
C235 C 0.15954 0.64758 0.7027 0.0
C236 C 0.17274 0.60292 0.65143 0.0
C237 C 0.13013 0.58121 0.77239 0.0
C238 C 0.19065 0.58596 0.69592 0.0
C239 C 0.20612 0.56902 0.64095 0.0
C240 C 0.20377 0.5688 0.54083 0.0
C241 C 0.18604 0.58609 0.49667 0.0
C242 C 0.17074 0.60308 0.55154 0.0
H243 H 0.11094 0.57694 0.80641 0.0
H244 H 0.13042 0.57211 0.70011 0.0
H245 H 0.14577 0.57182 0.81568 0.0
H246 H 0.1926 0.5858 0.77307 0.0
H247 H 0.21968 0.55595 0.67678 0.0
H248 H 0.80932 0.08773 0.83054 0.0
H249 H 0.83588 0.11826 0.7377 0.0
H250 H 0.80145 0.08858 0.47688 0.0
H251 H 0.77473 0.05776 0.56955 0.0
H252 H 0.85777 0.09091 0.48048 0.0
H253 H 0.81237 0.18512 0.59357 0.0
H254 H 0.82143 0.1636 0.68963 0.0
H255 H 0.79611 0.15386 0.60728 0.0
C256 C 0.80723 0.08781 0.75345 0.0
C257 C 0.78995 0.07037 0.70718 0.0
C258 C 0.8223 0.10538 0.70065 0.0
C259 C 0.82033 0.10588 0.60072 0.0
C260 C 0.80305 0.08857 0.55414 0.0
H261 H 0.90685 0.18651 0.1582 0.0
H262 H 0.87663 0.15921 0.24928 0.0
C263 C 0.78784 0.07102 0.60703 0.0
C264 C 0.83745 0.12347 0.5449 0.0
H265 H 0.85228 0.18792 0.50692 0.0
C266 C 0.85647 0.11213 0.48554 0.0
C267 C 0.83579 0.1511 0.55272 0.0
C268 C 0.8152 0.16423 0.6136 0.0
C269 C 0.87428 0.1277 0.43482 0.0
C270 C 0.87258 0.15536 0.44223 0.0
C271 C 0.85352 0.16672 0.50158 0.0
C272 C 0.8902 0.17278 0.38759 0.0
C273 C 0.89515 0.1144 0.37562 0.0
C274 C 0.90722 0.19013 0.43526 0.0
C275 C 0.92443 0.20598 0.38327 0.0
C276 C 0.92476 0.2047 0.28291 0.0
C277 C 0.90723 0.18775 0.23553 0.0
C278 C 0.89003 0.17204 0.2874 0.0
H279 H 0.89827 0.09373 0.398 0.0
H280 H 0.88896 0.11423 0.2995 0.0
H281 H 0.91411 0.12504 0.381 0.0
H282 H 0.90748 0.19109 0.51265 0.0
H283 H 0.93766 0.21893 0.42157 0.0
H284 H 0.90795 0.31078 0.08782 0.0
H285 H 0.87665 0.33743 0.99837 0.0
H286 H 0.9036 0.30271 0.73454 0.0
H287 H 0.93472 0.2755 0.82405 0.0
H288 H 0.88787 0.374 0.86224 0.0
H289 H 0.82426 0.29578 0.71051 0.0
H290 H 0.84716 0.2898 0.80669 0.0
H291 H 0.8585 0.29148 0.68524 0.0
C292 C 0.90709 0.30865 0.01079 0.0
C293 C 0.92375 0.29104 0.96281 0.0
C294 C 0.88919 0.32389 0.95985 0.0
C295 C 0.88756 0.3218 0.86004 0.0
C296 C 0.90414 0.3042 0.81178 0.0
H297 H 0.80866 0.4083 0.41777 0.0
H298 H 0.83512 0.37821 0.51354 0.0
C299 C 0.92202 0.28881 0.86285 0.0
C300 C 0.86943 0.33908 0.80658 0.0
H301 H 0.81797 0.33895 0.64988 0.0
C302 C 0.87245 0.36635 0.81637 0.0
C303 C 0.84934 0.329 0.74694 0.0
C304 C 0.84439 0.29992 0.73721 0.0
C305 C 0.85629 0.38385 0.7664 0.0
C306 C 0.83641 0.37378 0.706 0.0
C307 C 0.83325 0.34654 0.69653 0.0
C308 C 0.81942 0.39128 0.64908 0.0
C309 C 0.86101 0.41298 0.77655 0.0
C310 C 0.80156 0.40828 0.69383 0.0
C311 C 0.78636 0.42551 0.63927 0.0
C312 C 0.78885 0.42594 0.53926 0.0
C313 C 0.80639 0.4085 0.49476 0.0
C314 C 0.82147 0.39126 0.54922 0.0
H315 H 0.88019 0.41733 0.81105 0.0
H316 H 0.86042 0.42267 0.7056 0.0
H317 H 0.84531 0.4217 0.82131 0.0
H318 H 0.79951 0.4083 0.7709 0.0
H319 H 0.77291 0.43866 0.67537 0.0
H320 H 0.68655 0.40748 0.33392 0.0
H321 H 0.65985 0.37651 0.24235 0.0
H322 H 0.69149 0.40719 0.97973 0.0
H323 H 0.71881 0.43793 0.07133 0.0
H324 H 0.62183 0.38818 0.11292 0.0
H325 H 0.6998 0.32859 0.94111 0.0
H326 H 0.70634 0.35061 0.03975 0.0
H327 H 0.70287 0.3632 0.92043 0.0
C328 C 0.68801 0.4075 0.25667 0.0
C329 C 0.70478 0.42509 0.20965 0.0
C330 C 0.67274 0.38979 0.20451 0.0
C331 C 0.67393 0.38931 0.10438 0.0
C332 C 0.69072 0.40682 0.05708 0.0
H333 H 0.58497 0.31211 0.66112 0.0
H334 H 0.61512 0.3388 0.75661 0.0
C335 C 0.70617 0.42448 0.10937 0.0
C336 C 0.65653 0.3714 0.0499 0.0
H337 H 0.65618 0.32182 0.88496 0.0
C338 C 0.62934 0.37354 0.06359 0.0
C339 C 0.66641 0.35233 0.98567 0.0
C340 C 0.69546 0.34831 0.97135 0.0
C341 C 0.61171 0.35746 0.01333 0.0
C342 C 0.62158 0.33858 0.94853 0.0
C343 C 0.64875 0.33634 0.93496 0.0
C344 C 0.60391 0.32162 0.89162 0.0
C345 C 0.58264 0.36123 0.02807 0.0
C346 C 0.58793 0.30288 0.9361 0.0
C347 C 0.57065 0.28756 0.88171 0.0
C348 C 0.56918 0.29078 0.78211 0.0
C349 C 0.58559 0.30925 0.7378 0.0
C350 C 0.60286 0.32447 0.7921 0.0
H351 H 0.57819 0.37998 0.06544 0.0
H352 H 0.57207 0.36094 0.95854 0.0
H353 H 0.57495 0.3449 0.07215 0.0
H354 H 0.58876 0.3002 0.01284 0.0
H355 H 0.55832 0.27339 0.91763 0.0
H356 H 0.68485 0.08624 0.90689 0.0
H357 H 0.65815 0.11726 0.99767 0.0
H358 H 0.69391 0.09066 0.25986 0.0
H359 H 0.72113 0.05977 0.169 0.0
H360 H 0.62215 0.10536 0.13675 0.0
H361 H 0.70018 0.17039 0.28211 0.0
H362 H 0.70595 0.14755 0.18542 0.0
H363 H 0.70491 0.13615 0.30683 0.0
C364 C 0.6872 0.08711 0.98383 0.0
C365 C 0.7051 0.07061 0.03095 0.0
C366 C 0.67193 0.10485 0.03553 0.0
C367 C 0.67429 0.10649 0.13525 0.0
C368 C 0.69219 0.09008 0.18269 0.0
H369 H 0.58776 0.18748 0.57522 0.0
H370 H 0.61799 0.16046 0.48183 0.0
C371 C 0.70759 0.07234 0.13084 0.0
C372 C 0.65701 0.12449 0.18941 0.0
H373 H 0.65711 0.1768 0.34275 0.0
C374 C 0.62978 0.12109 0.18133 0.0
C375 C 0.66707 0.14496 0.24746 0.0
C376 C 0.69612 0.15021 0.25554 0.0
C377 C 0.61228 0.13735 0.23106 0.0
C378 C 0.62234 0.15771 0.2894 0.0
C379 C 0.64955 0.16117 0.29758 0.0
C380 C 0.60482 0.17507 0.34492 0.0
C381 C 0.5832 0.13227 0.22268 0.0
C382 C 0.58775 0.19252 0.29858 0.0
C383 C 0.57045 0.20805 0.35175 0.0
C384 C 0.57002 0.20629 0.45195 0.0
C385 C 0.58756 0.18917 0.49804 0.0
C386 C 0.60488 0.17378 0.44494 0.0
H387 H 0.57895 0.11277 0.19028 0.0
H388 H 0.57372 0.13332 0.29398 0.0
H389 H 0.57419 0.14754 0.17677 0.0
H390 H 0.58769 0.19398 0.22133 0.0
H391 H 0.55722 0.22114 0.31444 0.0
H392 H 0.31568 0.45749 0.27757 0.0
H393 H 0.35018 0.42522 0.3078 0.0
H394 H 0.3424 0.43809 0.61129 0.0
H395 H 0.30773 0.47047 0.58173 0.0
H396 H 0.39914 0.43172 0.41401 0.0
H397 H 0.33193 0.35737 0.57009 0.0
H398 H 0.32027 0.3845 0.49897 0.0
H399 H 0.33016 0.38981 0.62079 0.0
C400 C 0.32135 0.45352 0.3508 0.0
C401 C 0.30891 0.46637 0.42741 0.0
C402 C 0.34109 0.43514 0.36783 0.0
C403 C 0.34857 0.42912 0.46167 0.0
C404 C 0.33661 0.44228 0.53837 0.0
H405 H 0.45349 0.31432 0.70612 0.0
H406 H 0.42215 0.34959 0.67651 0.0
C407 C 0.31691 0.4608 0.52138 0.0
C408 C 0.36863 0.40873 0.47895 0.0
H409 H 0.37711 0.34738 0.57068 0.0
C410 C 0.3944 0.41325 0.44821 0.0
C411 C 0.36225 0.38471 0.52332 0.0
C412 C 0.33463 0.37858 0.55469 0.0
C413 C 0.41417 0.39447 0.46229 0.0
C414 C 0.40777 0.37036 0.50634 0.0
C415 C 0.38195 0.36588 0.5369 0.0
C416 C 0.42756 0.34959 0.52313 0.0
C417 C 0.44182 0.40085 0.43194 0.0
C418 C 0.44093 0.33778 0.44653 0.0
C419 C 0.45901 0.31764 0.4633 0.0
C420 C 0.46375 0.30885 0.55685 0.0
C421 C 0.45025 0.32066 0.6332 0.0
C422 C 0.43233 0.34082 0.61646 0.0
H423 H 0.44474 0.42231 0.42311 0.0
H424 H 0.4563 0.39347 0.48481 0.0
H425 H 0.44585 0.39125 0.36217 0.0
H426 H 0.43711 0.34387 0.37371 0.0
H427 H 0.46903 0.30878 0.40309 0.0
H428 H 0.68826 0.96816 0.65824 0.0
H429 H 0.65332 0.93593 0.6289 0.0
H430 H 0.64747 0.92186 0.93191 0.0
H431 H 0.68217 0.95394 0.96185 0.0
H432 H 0.65413 0.88144 0.68685 0.0
H433 H 0.57089 0.9366 0.84608 0.0
H434 H 0.60112 0.95228 0.81077 0.0
H435 H 0.59958 0.93413 0.92045 0.0
C436 C 0.6794 0.95829 0.71852 0.0
C437 C 0.68789 0.96359 0.8123 0.0
C438 C 0.6595 0.93992 0.70169 0.0
C439 C 0.64763 0.92684 0.7784 0.0
C440 C 0.65608 0.93211 0.87195 0.0
H441 H 0.52862 0.80574 0.83577 0.0
H442 H 0.56181 0.83983 0.86406 0.0
C443 C 0.676 0.95033 0.8888 0.0
C444 C 0.62717 0.90681 0.76082 0.0
H445 H 0.56303 0.89206 0.80488 0.0
C446 C 0.63416 0.88379 0.71199 0.0
C447 C 0.60124 0.90993 0.79464 0.0
C448 C 0.59259 0.93464 0.84527 0.0
C449 C 0.61597 0.86349 0.69741 0.0
C450 C 0.58996 0.86664 0.73075 0.0
C451 C 0.58298 0.8897 0.77959 0.0
C452 C 0.56962 0.84638 0.71398 0.0
C453 C 0.62495 0.83862 0.64849 0.0
C454 C 0.56271 0.83919 0.6204 0.0
C455 C 0.54396 0.81974 0.60417 0.0
C456 C 0.53152 0.80729 0.68127 0.0
C457 C 0.53796 0.81495 0.77505 0.0
C458 C 0.55687 0.83439 0.79126 0.0
H459 H 0.6466 0.83636 0.65205 0.0
H460 H 0.61572 0.82107 0.68107 0.0
H461 H 0.61921 0.8393 0.57196 0.0
H462 H 0.57184 0.84865 0.55976 0.0
H463 H 0.53923 0.81444 0.53105 0.0
H464 H 0.0269 0.19015 0.9053 0.0
H465 H 0.05954 0.15575 0.87386 0.0
H466 H 0.0706 0.14533 0.17711 0.0
H467 H 0.03817 0.17951 0.20911 0.0
H468 H 0.11361 0.15634 0.94269 0.0
H469 H 0.05744 0.06995 0.07098 0.0
H470 H 0.04188 0.10052 0.03854 0.0
H471 H 0.05837 0.0975 0.1516 0.0
C472 C 0.03616 0.18036 0.96514 0.0
C473 C 0.02999 0.18746 0.05961 0.0
C474 C 0.05477 0.16079 0.94711 0.0
C475 C 0.06718 0.14785 0.02325 0.0
C476 C 0.06091 0.1548 0.11747 0.0
H477 H 0.18821 0.02929 0.08337 0.0
H478 H 0.15365 0.06203 0.10967 0.0
C479 C 0.04248 0.17443 0.13554 0.0
C480 C 0.0876 0.12789 0.00478 0.0
H481 H 0.10258 0.06327 0.03791 0.0
C482 C 0.11118 0.13594 0.96272 0.0
C483 C 0.08435 0.1014 0.03197 0.0
C484 C 0.05908 0.09167 0.07512 0.0
C485 C 0.13191 0.11824 0.94879 0.0
C486 C 0.12867 0.0917 0.97577 0.0
C487 C 0.10501 0.08364 0.01753 0.0
C488 C 0.14949 0.0719 0.96001 0.0
C489 C 0.15733 0.12829 0.9077 0.0
C490 C 0.15826 0.06638 0.86717 0.0
C491 C 0.17799 0.04787 0.85209 0.0
C492 C 0.18914 0.03431 0.92955 0.0
C493 C 0.18003 0.03951 0.02242 0.0
C494 C 0.16031 0.05815 0.03749 0.0
H495 H 0.15915 0.14992 0.91591 0.0
H496 H 0.17447 0.11886 0.9426 0.0
H497 H 0.15798 0.12364 0.83017 0.0
H498 H 0.14975 0.07633 0.80621 0.0
H499 H 0.18445 0.04413 0.77959 0.0
H500 H 0.95211 0.68322 0.03767 0.0
H501 H 0.92007 0.6486 0.06841 0.0
H502 H 0.93657 0.65373 0.37044 0.0
H503 H 0.96877 0.68854 0.34035 0.0
H504 H 0.92884 0.59882 0.1661 0.0
H505 H 0.85524 0.66297 0.34427 0.0
H506 H 0.88114 0.67588 0.27018 0.0
H507 H 0.88827 0.66497 0.38931 0.0
C508 C 0.94892 0.67702 0.11072 0.0
C509 C 0.96284 0.68866 0.18676 0.0
C510 C 0.93067 0.65721 0.12801 0.0
C511 C 0.92584 0.64884 0.22162 0.0
C512 C 0.93986 0.6602 0.29776 0.0
H513 H 0.81502 0.53974 0.46501 0.0
H514 H 0.84979 0.57165 0.43617 0.0
C515 C 0.95826 0.67998 0.28048 0.0
C516 C 0.90606 0.62823 0.23909 0.0
H517 H 0.84599 0.61764 0.3384 0.0
C518 C 0.9107 0.60285 0.20375 0.0
C519 C 0.88248 0.6337 0.28805 0.0
C520 C 0.87625 0.66088 0.32469 0.0
C521 C 0.89247 0.58257 0.21747 0.0
C522 C 0.86877 0.58807 0.26592 0.0
C523 C 0.86418 0.61349 0.30125 0.0
C524 C 0.84851 0.56774 0.28213 0.0
C525 C 0.89901 0.55536 0.18188 0.0
C526 C 0.83621 0.55495 0.20494 0.0
C527 C 0.81638 0.53653 0.22125 0.0
C528 C 0.80837 0.53088 0.31497 0.0
C529 C 0.82076 0.5437 0.39195 0.0
C530 C 0.84062 0.56195 0.37565 0.0
H531 H 0.92042 0.55291 0.17005 0.0
H532 H 0.89235 0.54019 0.23317 0.0
H533 H 0.88889 0.55188 0.11265 0.0
H534 H 0.84161 0.55956 0.13209 0.0
H535 H 0.80706 0.52706 0.1606 0.0
H536 H 0.30774 0.02556 0.65912 0.0
H537 H 0.34277 0.05726 0.62576 0.0
H538 H 0.35166 0.0721 0.92787 0.0
H539 H 0.31686 0.04054 0.96179 0.0
H540 H 0.34244 0.11171 0.68279 0.0
H541 H 0.42737 0.05752 0.83418 0.0
H542 H 0.39687 0.0416 0.80264 0.0
H543 H 0.39946 0.0601 0.91185 0.0
C544 C 0.31732 0.03544 0.71835 0.0
C545 C 0.3096 0.03058 0.81301 0.0
C546 C 0.33728 0.0535 0.69923 0.0
C547 C 0.34997 0.06671 0.77449 0.0
C548 C 0.34241 0.06175 0.86897 0.0
H549 H 0.46755 0.18906 0.82594 0.0
H550 H 0.43521 0.15429 0.85439 0.0
C551 C 0.32242 0.04383 0.8881 0.0
C552 C 0.37019 0.08673 0.75449 0.0
H553 H 0.4345 0.10217 0.79335 0.0
C554 C 0.36263 0.10958 0.70617 0.0
C555 C 0.3964 0.0839 0.78601 0.0
C556 C 0.40566 0.05938 0.8359 0.0
C557 C 0.38051 0.13002 0.69021 0.0
C558 C 0.40677 0.12721 0.72158 0.0
C559 C 0.41435 0.10427 0.76956 0.0
C560 C 0.4267 0.14779 0.70445 0.0
C561 C 0.3709 0.15473 0.64226 0.0
C562 C 0.43292 0.15525 0.61083 0.0
C563 C 0.45118 0.17512 0.59452 0.0
C564 C 0.46379 0.1877 0.67155 0.0
C565 C 0.45805 0.17976 0.76528 0.0
C566 C 0.43964 0.15992 0.78158 0.0
H567 H 0.34924 0.15669 0.64698 0.0
H568 H 0.38006 0.17243 0.67472 0.0
H569 H 0.37624 0.15409 0.56543 0.0
H570 H 0.42364 0.1457 0.55027 0.0
H571 H 0.45539 0.18063 0.52143 0.0
H572 H 0.81425 0.95395 0.78195 0.0
H573 H 0.84895 0.92204 0.81372 0.0
H574 H 0.84335 0.93837 0.11574 0.0
H575 H 0.80842 0.97037 0.0846 0.0
H576 H 0.89838 0.92998 0.91102 0.0
H577 H 0.83386 0.85742 0.09107 0.0
H578 H 0.82109 0.88361 0.01781 0.0
H579 H 0.83245 0.8904 0.13697 0.0
C580 C 0.82039 0.95078 0.8552 0.0
C581 C 0.80852 0.96453 0.93095 0.0
C582 C 0.84025 0.9326 0.8731 0.0
C583 C 0.84846 0.9277 0.96702 0.0
C584 C 0.83698 0.94167 0.04282 0.0
H585 H 0.95701 0.81701 0.21582 0.0
H586 H 0.92548 0.85201 0.18484 0.0
C587 C 0.81713 0.95997 0.02494 0.0
C588 C 0.86892 0.90775 0.98521 0.0
H589 H 0.87914 0.84791 0.08716 0.0
C590 C 0.89425 0.91201 0.94949 0.0
C591 C 0.86333 0.88436 0.03513 0.0
C592 C 0.83618 0.87844 0.07195 0.0
C593 C 0.91436 0.8936 0.96387 0.0
C594 C 0.90875 0.87014 0.01352 0.0
C595 C 0.88338 0.86592 0.04913 0.0
C596 C 0.92891 0.84977 0.03087 0.0
C597 C 0.94153 0.8997 0.92767 0.0
C598 C 0.9413 0.83685 0.95443 0.0
C599 C 0.9595 0.81686 0.97195 0.0
C600 C 0.96532 0.80932 0.06618 0.0
C601 C 0.95291 0.82236 0.14239 0.0
C602 C 0.93488 0.84236 0.12487 0.0
H603 H 0.94414 0.92102 0.91413 0.0
H604 H 0.95673 0.89322 0.97944 0.0
H605 H 0.94478 0.8891 0.85927 0.0
H606 H 0.93655 0.84188 0.88125 0.0
H607 H 0.96866 0.80704 0.91188 0.0
H608 H 0.04805 0.30618 0.03684 0.0
H609 H 0.08075 0.34026 0.06732 0.0
H610 H 0.05334 0.34796 0.3574 0.0
H611 H 0.02039 0.31367 0.32758 0.0
H612 H 0.06142 0.39747 0.24568 0.0
H613 H 0.14675 0.32941 0.24518 0.0
H614 H 0.12436 0.32623 0.1462 0.0
H615 H 0.11353 0.31832 0.26466 0.0
C616 C 0.04893 0.3151 0.10721 0.0
C617 C 0.03175 0.30718 0.18007 0.0
C618 C 0.06766 0.33451 0.12443 0.0
C619 C 0.06954 0.34637 0.21471 0.0
C620 C 0.05216 0.3389 0.28732 0.0
H621 H 0.19361 0.4426 0.4466 0.0
H622 H 0.15903 0.41035 0.41709 0.0
C623 C 0.03344 0.31932 0.27028 0.0
C624 C 0.08986 0.36645 0.23295 0.0
H625 H 0.15611 0.37489 0.25023 0.0
C626 C 0.08212 0.3926 0.24693 0.0
C627 C 0.11679 0.35988 0.23481 0.0
C628 C 0.12599 0.33192 0.22266 0.0
C629 C 0.10077 0.41251 0.26155 0.0
C630 C 0.12771 0.40598 0.26181 0.0
C631 C 0.1354 0.37978 0.24907 0.0
C632 C 0.14826 0.42591 0.27886 0.0
C633 C 0.09164 0.44032 0.2779 0.0
C634 C 0.15373 0.44516 0.21024 0.0
C635 C 0.17364 0.46357 0.22656 0.0
C636 C 0.18824 0.46297 0.31191 0.0
C637 C 0.18266 0.4436 0.38024 0.0
C638 C 0.16294 0.42516 0.36359 0.0
H639 H 0.07017 0.44141 0.29081 0.0
H640 H 0.10208 0.44916 0.33994 0.0
H641 H 0.09626 0.45228 0.21397 0.0
H642 H 0.14274 0.4458 0.1439 0.0
H643 H 0.17754 0.47827 0.1727 0.0
H644 H 0.52803 0.69137 0.40524 0.0
H645 H 0.56039 0.65675 0.37284 0.0
H646 H 0.56945 0.64382 0.67561 0.0
H647 H 0.53737 0.67827 0.7086 0.0
H648 H 0.61451 0.65614 0.4502 0.0
H649 H 0.55525 0.56945 0.55631 0.0
H650 H 0.54061 0.60049 0.52403 0.0
H651 H 0.55548 0.59645 0.63954 0.0
C652 C 0.53681 0.681 0.46473 0.0
C653 C 0.53019 0.68748 0.55939 0.0
C654 C 0.55526 0.66131 0.44617 0.0
C655 C 0.56701 0.64762 0.5219 0.0
C656 C 0.56029 0.65394 0.61627 0.0
H657 H 0.68547 0.52629 0.57864 0.0
H658 H 0.65108 0.55917 0.60594 0.0
C659 C 0.54206 0.6737 0.6349 0.0
C660 C 0.58721 0.62749 0.50306 0.0
H661 H 0.60045 0.56217 0.52695 0.0
C662 C 0.61143 0.63556 0.46618 0.0
C663 C 0.5831 0.60076 0.5251 0.0
C664 C 0.55716 0.5911 0.5628 0.0
C665 C 0.63193 0.61759 0.45228 0.0
C666 C 0.62781 0.5908 0.47393 0.0
C667 C 0.60353 0.58274 0.51062 0.0
C668 C 0.64836 0.57078 0.45754 0.0
C669 C 0.65802 0.62758 0.41693 0.0
C670 C 0.65785 0.56619 0.365 0.0
C671 C 0.67745 0.54757 0.34936 0.0
C672 C 0.68777 0.53302 0.42591 0.0
C673 C 0.67793 0.53729 0.51841 0.0
C674 C 0.65831 0.55601 0.53404 0.0
H675 H 0.66016 0.64905 0.4288 0.0
H676 H 0.67452 0.61738 0.45308 0.0
H677 H 0.65955 0.62379 0.33898 0.0
H678 H 0.65003 0.57698 0.30472 0.0
H679 H 0.6845 0.54459 0.27714 0.0
loop_
_geom_bond_atom_site_label_1
_geom_bond_atom_site_label_2
_geom_bond_distance
_geom_bond_site_symmetry_2
_ccdc_geom_bond_type
In0 O1 2.294 . S
In0 O2 2.326 . S
In0 O6 2.266 . S
In0 O7 2.326 . S
In0 O8 2.266 . S
In0 O9 2.326 . S
In0 O11 2.294 . S
In0 O12 2.326 . S
O1 In0 2.294 . S
O1 C10 1.240 . S
O2 In0 2.326 . S
O2 C10 1.252 . S
C3 O6 1.252 . S
C3 O7 1.260 . S
C4 O11 1.240 . S
C4 O12 1.252 . S
C5 O8 1.252 . S
C5 O9 1.260 . S
O6 In0 2.266 . S
O6 C3 1.252 . S
O7 In0 2.326 . S
O7 C3 1.260 . S
O8 In0 2.266 . S
O8 C5 1.252 . S
O9 In0 2.326 . S
O9 C5 1.260 . S
C10 O1 1.240 . S
C10 O2 1.252 . S
O11 In0 2.294 . S
O11 C4 1.240 . S
O12 In0 2.326 . S
O12 C4 1.252 . S
In13 O14 2.294 . S
In13 O15 2.326 . S
In13 O19 2.266 . S
In13 O20 2.326 . S
In13 O21 2.266 . S
In13 O22 2.326 . S
In13 O24 2.294 . S
In13 O25 2.326 . S
O14 In13 2.294 . S
O14 C23 1.240 . S
O15 In13 2.326 . S
O15 C23 1.252 . S
C16 O19 1.252 . S
C16 O20 1.260 . S
C17 O24 1.240 . S
C17 O25 1.252 . S
C18 O21 1.252 . S
C18 O22 1.260 . S
O19 In13 2.266 . S
O19 C16 1.252 . S
O20 In13 2.326 . S
O20 C16 1.260 . S
O21 In13 2.266 . S
O21 C18 1.252 . S
O22 In13 2.326 . S
O22 C18 1.260 . S
C23 O14 1.240 . S
C23 O15 1.252 . S
O24 In13 2.294 . S
O24 C17 1.240 . S
O25 In13 2.326 . S
O25 C17 1.252 . S
In26 O27 2.294 1_556 S
In26 O28 2.326 . S
In26 O32 2.266 . S
In26 O33 2.326 1_565 S
In26 O34 2.266 . S
In26 O35 2.326 . S
In26 O37 2.294 . S
In26 O38 2.326 1_565 S
O27 In26 2.294 1_554 S
O27 C36 1.240 1_554 S
O28 In26 2.326 . S
O28 C36 1.252 . S
C29 O32 1.252 1_545 S
C29 O33 1.260 . S
C30 O37 1.240 1_545 S
C30 O38 1.252 . S
C31 O34 1.252 . S
C31 O35 1.260 . S
O32 In26 2.266 . S
O32 C29 1.252 1_565 S
O33 In26 2.326 1_545 S
O33 C29 1.260 . S
O34 In26 2.266 . S
O34 C31 1.252 . S
O35 In26 2.326 . S
O35 C31 1.260 . S
C36 O27 1.240 1_556 S
C36 O28 1.252 . S
O37 In26 2.294 . S
O37 C30 1.240 1_565 S
O38 In26 2.326 1_545 S
O38 C30 1.252 . S
In39 O40 2.294 . S
In39 O41 2.326 1_455 S
In39 O45 2.266 . S
In39 O46 2.326 . S
In39 O47 2.266 . S
In39 O48 2.326 1_455 S
In39 O50 2.294 1_554 S
In39 O51 2.326 . S
O40 In39 2.294 . S
O40 C49 1.240 1_455 S
O41 In39 2.326 1_655 S
O41 C49 1.252 . S
C42 O45 1.252 . S
C42 O46 1.260 . S
C43 O50 1.240 1_554 S
C43 O51 1.252 . S
C44 O47 1.252 1_655 S
C44 O48 1.260 . S
O45 In39 2.266 . S
O45 C42 1.252 . S
O46 In39 2.326 . S
O46 C42 1.260 . S
O47 In39 2.266 . S
O47 C44 1.252 1_455 S
O48 In39 2.326 1_655 S
O48 C44 1.260 . S
C49 O40 1.240 1_655 S
C49 O41 1.252 . S
O50 In39 2.294 1_556 S
O50 C43 1.240 1_556 S
O51 In39 2.326 . S
O51 C43 1.252 . S
In52 O53 2.294 . S
In52 O54 2.326 . S
In52 O58 2.266 . S
In52 O59 2.326 1_545 S
In52 O60 2.266 1_556 S
In52 O61 2.326 . S
In52 O63 2.294 . S
In52 O64 2.326 1_545 S
O53 In52 2.294 . S
O53 C62 1.240 . S
O54 In52 2.326 . S
O54 C62 1.252 . S
C55 O58 1.252 1_565 S
C55 O59 1.260 . S
C56 O63 1.240 1_565 S
C56 O64 1.252 . S
C57 O60 1.252 1_556 S
C57 O61 1.260 . S
O58 In52 2.266 . S
O58 C55 1.252 1_545 S
O59 In52 2.326 1_565 S
O59 C55 1.260 . S
O60 In52 2.266 1_554 S
O60 C57 1.252 1_554 S
O61 In52 2.326 . S
O61 C57 1.260 . S
C62 O53 1.240 . S
C62 O54 1.252 . S
O63 In52 2.294 . S
O63 C56 1.240 1_545 S
O64 In52 2.326 1_565 S
O64 C56 1.252 . S
In65 O66 2.294 . S
In65 O67 2.326 . S
In65 O71 2.266 . S
In65 O72 2.326 1_655 S
In65 O73 2.266 1_554 S
In65 O74 2.326 . S
In65 O76 2.294 . S
In65 O77 2.326 1_655 S
O66 In65 2.294 . S
O66 C75 1.240 . S
O67 In65 2.326 . S
O67 C75 1.252 . S
C68 O71 1.252 1_455 S
C68 O72 1.260 . S
C69 O76 1.240 1_455 S
C69 O77 1.252 . S
C70 O73 1.252 1_554 S
C70 O74 1.260 . S
O71 In65 2.266 . S
O71 C68 1.252 1_655 S
O72 In65 2.326 1_455 S
O72 C68 1.260 . S
O73 In65 2.266 1_556 S
O73 C70 1.252 1_556 S
O74 In65 2.326 . S
O74 C70 1.260 . S
C75 O66 1.240 . S
C75 O67 1.252 . S
O76 In65 2.294 . S
O76 C69 1.240 1_655 S
O77 In65 2.326 1_455 S
O77 C69 1.252 . S
In78 O79 2.294 . S
In78 O80 2.326 . S
In78 O84 2.266 . S
In78 O85 2.326 . S
In78 O86 2.266 . S
In78 O87 2.326 . S
In78 O89 2.294 . S
In78 O90 2.326 . S
O79 In78 2.294 . S
O79 C88 1.240 . S
O80 In78 2.326 . S
O80 C88 1.252 . S
C81 O84 1.252 . S
C81 O85 1.260 . S
C82 O89 1.240 . S
C82 O90 1.252 . S
C83 O86 1.252 . S
C83 O87 1.260 . S
O84 In78 2.266 . S
O84 C81 1.252 . S
O85 In78 2.326 . S
O85 C81 1.260 . S
O86 In78 2.266 . S
O86 C83 1.252 . S
O87 In78 2.326 . S
O87 C83 1.260 . S
C88 O79 1.240 . S
C88 O80 1.252 . S
O89 In78 2.294 . S
O89 C82 1.240 . S
O90 In78 2.326 . S
O90 C82 1.252 . S
In91 O92 2.294 . S
In91 O93 2.326 . S
In91 O97 2.266 . S
In91 O98 2.326 . S
In91 O99 2.266 . S
In91 O100 2.326 . S
In91 O102 2.294 . S
In91 O103 2.326 . S
O92 In91 2.294 . S
O92 C101 1.240 . S
O93 In91 2.326 . S
O93 C101 1.252 . S
C94 O97 1.252 . S
C94 O98 1.260 . S
C95 O102 1.240 . S
C95 O103 1.252 . S
C96 O99 1.252 . S
C96 O100 1.260 . S
O97 In91 2.266 . S
O97 C94 1.252 . S
O98 In91 2.326 . S
O98 C94 1.260 . S
O99 In91 2.266 . S
O99 C96 1.252 . S
O100 In91 2.326 . S
O100 C96 1.260 . S
C101 O92 1.240 . S
C101 O93 1.252 . S
O102 In91 2.294 . S
O102 C95 1.240 . S
O103 In91 2.326 . S
O103 C95 1.252 . S
H104 C112 0.929 . S
H105 C114 0.930 . S
H106 C116 0.930 . S
H107 C119 0.929 . S
H108 C122 0.930 . S
H109 C124 0.960 . S
H110 C124 0.960 . S
H111 C124 0.960 . S
C112 H104 0.929 . S
C112 C113 1.377 . S
C112 C114 1.384 . S
C113 C112 1.377 . S
C113 C119 1.390 . S
C114 H105 0.930 . S
C114 C112 1.384 . S
C114 C115 1.372 . S
C115 C114 1.372 . S
C115 C116 1.400 . S
C115 C120 1.490 . S
C116 H106 0.930 . S
C116 C115 1.400 . S
C116 C119 1.386 . S
H117 C133 0.930 . S
H118 C134 0.931 . S
C119 H107 0.929 . S
C119 C113 1.390 . S
C119 C116 1.386 . S
C120 C115 1.490 . S
C120 C122 1.395 . S
C120 C123 1.403 . S
H121 C127 0.930 . S
C122 H108 0.930 . S
C122 C120 1.395 . S
C122 C125 1.403 1_556 S
C123 C120 1.403 . S
C123 C124 1.524 . S
C123 C127 1.400 1_556 S
C124 H109 0.960 . S
C124 H110 0.960 . S
C124 H111 0.960 . S
C124 C123 1.524 . S
C125 C122 1.403 1_554 S
C125 C126 1.392 . S
C125 C129 1.495 . S
C126 C125 1.392 . S
C126 C127 1.385 . S
C126 C128 1.478 . S
C127 H121 0.930 . S
C127 C123 1.400 1_554 S
C127 C126 1.385 . S
C128 C126 1.478 . S
C128 C130 1.381 . S
C128 C134 1.383 . S
C129 C125 1.495 . S
C129 H135 0.959 . S
C129 H136 0.961 . S
C129 H137 0.960 . S
C130 C128 1.381 . S
C130 C131 1.394 . S
C130 H138 0.930 . S
C131 C130 1.394 . S
C131 C132 1.383 . S
C131 H139 0.929 . S
C132 C131 1.383 . S
C132 C133 1.377 . S
C133 H117 0.930 . S
C133 C132 1.377 . S
C133 C134 1.379 . S
C134 H118 0.931 . S
C134 C128 1.383 . S
C134 C133 1.379 . S
H135 C129 0.959 . S
H136 C129 0.961 . S
H137 C129 0.960 . S
H138 C130 0.930 . S
H139 C131 0.929 . S
H140 C148 0.929 . S
H141 C150 0.930 . S
H142 C152 0.930 . S
H143 C155 0.929 . S
H144 C158 0.930 . S
H145 C160 0.960 . S
H146 C160 0.960 . S
H147 C160 0.960 . S
C148 H140 0.929 . S
C148 C149 1.377 . S
C148 C150 1.384 . S
C149 C148 1.377 . S
C149 C155 1.390 . S
C150 H141 0.930 . S
C150 C148 1.384 . S
C150 C151 1.372 . S
C151 C150 1.372 . S
C151 C152 1.400 . S
C151 C156 1.490 . S
C152 H142 0.930 . S
C152 C151 1.400 . S
C152 C155 1.386 . S
H153 C169 0.930 . S
H154 C170 0.931 . S
C155 H143 0.929 . S
C155 C149 1.390 . S
C155 C152 1.386 . S
C156 C151 1.490 . S
C156 C158 1.395 . S
C156 C159 1.403 . S
H157 C163 0.930 . S
C158 H144 0.930 . S
C158 C156 1.395 . S
C158 C161 1.403 . S
C159 C156 1.403 . S
C159 C160 1.524 . S
C159 C163 1.400 . S
C160 H145 0.960 . S
C160 H146 0.960 . S
C160 H147 0.960 . S
C160 C159 1.524 . S
C161 C158 1.403 . S
C161 C162 1.392 . S
C161 C165 1.495 . S
C162 C161 1.392 . S
C162 C163 1.385 . S
C162 C164 1.478 . S
C163 H157 0.930 . S
C163 C159 1.400 . S
C163 C162 1.385 . S
C164 C162 1.478 . S
C164 C166 1.381 . S
C164 C170 1.383 . S
C165 C161 1.495 . S
C165 H171 0.959 . S
C165 H172 0.961 . S
C165 H173 0.960 . S
C166 C164 1.381 . S
C166 C167 1.394 . S
C166 H174 0.930 . S
C167 C166 1.394 . S
C167 C168 1.383 . S
C167 H175 0.929 . S
C168 C167 1.383 . S
C168 C169 1.377 1_554 S
C169 H153 0.930 . S
C169 C168 1.377 1_556 S
C169 C170 1.379 1_556 S
C170 H154 0.931 . S
C170 C164 1.383 . S
C170 C169 1.379 1_554 S
H171 C165 0.959 . S
H172 C165 0.961 . S
H173 C165 0.960 . S
H174 C166 0.930 . S
H175 C167 0.929 . S
H176 C184 0.929 . S
H177 C186 0.930 . S
H178 C188 0.930 . S
H179 C191 0.929 . S
H180 C194 0.930 . S
H181 C196 0.960 . S
H182 C196 0.960 . S
H183 C196 0.960 . S
C184 H176 0.929 . S
C184 C185 1.377 . S
C184 C186 1.384 . S
C185 C184 1.377 . S
C185 C191 1.390 . S
C186 H177 0.930 . S
C186 C184 1.384 . S
C186 C187 1.372 . S
C187 C186 1.372 . S
C187 C188 1.400 . S
C187 C192 1.490 . S
C188 H178 0.930 . S
C188 C187 1.400 . S
C188 C191 1.386 . S
H189 C205 0.930 . S
H190 C206 0.931 . S
C191 H179 0.929 . S
C191 C185 1.390 . S
C191 C188 1.386 . S
C192 C187 1.490 . S
C192 C194 1.395 . S
C192 C195 1.403 . S
H193 C199 0.930 . S
C194 H180 0.930 . S
C194 C192 1.395 . S
C194 C197 1.403 . S
C195 C192 1.403 . S
C195 C196 1.524 . S
C195 C199 1.400 . S
C196 H181 0.960 . S
C196 H182 0.960 . S
C196 H183 0.960 . S
C196 C195 1.524 . S
C197 C194 1.403 . S
C197 C198 1.392 . S
C197 C201 1.495 . S
C198 C197 1.392 . S
C198 C199 1.385 . S
C198 C200 1.478 . S
C199 H193 0.930 . S
C199 C195 1.400 . S
C199 C198 1.385 . S
C200 C198 1.478 . S
C200 C202 1.381 . S
C200 C206 1.383 . S
C201 C197 1.495 . S
C201 H207 0.959 . S
C201 H208 0.961 . S
C201 H209 0.960 . S
C202 C200 1.381 . S
C202 C203 1.394 . S
C202 H210 0.930 . S
C203 C202 1.394 . S
C203 C204 1.383 . S
C203 H211 0.929 . S
C204 C203 1.383 . S
C204 C205 1.377 . S
C205 H189 0.930 . S
C205 C204 1.377 . S
C205 C206 1.379 . S
C206 H190 0.931 . S
C206 C200 1.383 . S
C206 C205 1.379 . S
H207 C201 0.959 . S
H208 C201 0.961 . S
H209 C201 0.960 . S
H210 C202 0.930 . S
H211 C203 0.929 . S
H212 C220 0.929 . S
H213 C222 0.930 . S
H214 C224 0.930 . S
H215 C227 0.929 . S
H216 C230 0.930 . S
H217 C232 0.960 . S
H218 C232 0.960 . S
H219 C232 0.960 . S
C220 H212 0.929 . S
C220 C221 1.377 1_554 S
C220 C222 1.384 1_554 S
C221 C220 1.377 1_556 S
C221 C227 1.390 . S
C222 H213 0.930 . S
C222 C220 1.384 1_556 S
C222 C223 1.372 . S
C223 C222 1.372 . S
C223 C224 1.400 . S
C223 C228 1.490 . S
C224 H214 0.930 . S
C224 C223 1.400 . S
C224 C227 1.386 . S
H225 C241 0.930 . S
H226 C242 0.931 . S
C227 H215 0.929 . S
C227 C221 1.390 . S
C227 C224 1.386 . S
C228 C223 1.490 . S
C228 C230 1.395 . S
C228 C231 1.403 . S
H229 C235 0.930 . S
C230 H216 0.930 . S
C230 C228 1.395 . S
C230 C233 1.403 . S
C231 C228 1.403 . S
C231 C232 1.524 . S
C231 C235 1.400 . S
C232 H217 0.960 . S
C232 H218 0.960 . S
C232 H219 0.960 . S
C232 C231 1.524 . S
C233 C230 1.403 . S
C233 C234 1.392 . S
C233 C237 1.495 . S
C234 C233 1.392 . S
C234 C235 1.385 . S
C234 C236 1.478 . S
C235 H229 0.930 . S
C235 C231 1.400 . S
C235 C234 1.385 . S
C236 C234 1.478 . S
C236 C238 1.381 . S
C236 C242 1.383 . S
C237 C233 1.495 . S
C237 H243 0.959 . S
C237 H244 0.961 . S
C237 H245 0.960 . S
C238 C236 1.381 . S
C238 C239 1.394 . S
C238 H246 0.930 . S
C239 C238 1.394 . S
C239 C240 1.383 . S
C239 H247 0.929 . S
C240 C239 1.383 . S
C240 C241 1.377 . S
C241 H225 0.930 . S
C241 C240 1.377 . S
C241 C242 1.379 . S
C242 H226 0.931 . S
C242 C236 1.383 . S
C242 C241 1.379 . S
H243 C237 0.959 . S
H244 C237 0.961 . S
H245 C237 0.960 . S
H246 C238 0.930 . S
H247 C239 0.929 . S
H248 C256 0.929 . S
H249 C258 0.930 . S
H250 C260 0.930 . S
H251 C263 0.929 . S
H252 C266 0.930 . S
H253 C268 0.960 . S
H254 C268 0.960 . S
H255 C268 0.960 . S
C256 H248 0.929 . S
C256 C257 1.377 . S
C256 C258 1.384 . S
C257 C256 1.377 . S
C257 C263 1.390 . S
C258 H249 0.930 . S
C258 C256 1.384 . S
C258 C259 1.372 . S
C259 C258 1.372 . S
C259 C260 1.400 . S
C259 C264 1.490 . S
C260 H250 0.930 . S
C260 C259 1.400 . S
C260 C263 1.386 . S
H261 C277 0.930 . S
H262 C278 0.931 . S
C263 H251 0.929 . S
C263 C257 1.390 . S
C263 C260 1.386 . S
C264 C259 1.490 . S
C264 C266 1.395 . S
C264 C267 1.403 . S
H265 C271 0.930 . S
C266 H252 0.930 . S
C266 C264 1.395 . S
C266 C269 1.403 . S
C267 C264 1.403 . S
C267 C268 1.524 . S
C267 C271 1.400 . S
C268 H253 0.960 . S
C268 H254 0.960 . S
C268 H255 0.960 . S
C268 C267 1.524 . S
C269 C266 1.403 . S
C269 C270 1.392 . S
C269 C273 1.495 . S
C270 C269 1.392 . S
C270 C271 1.385 . S
C270 C272 1.478 . S
C271 H265 0.930 . S
C271 C267 1.400 . S
C271 C270 1.385 . S
C272 C270 1.478 . S
C272 C274 1.381 . S
C272 C278 1.383 . S
C273 C269 1.495 . S
C273 H279 0.959 . S
C273 H280 0.961 . S
C273 H281 0.960 . S
C274 C272 1.381 . S
C274 C275 1.394 . S
C274 H282 0.930 . S
C275 C274 1.394 . S
C275 C276 1.383 . S
C275 H283 0.929 . S
C276 C275 1.383 . S
C276 C277 1.377 . S
C277 H261 0.930 . S
C277 C276 1.377 . S
C277 C278 1.379 . S
C278 H262 0.931 . S
C278 C272 1.383 . S
C278 C277 1.379 . S
H279 C273 0.959 . S
H280 C273 0.961 . S
H281 C273 0.960 . S
H282 C274 0.930 . S
H283 C275 0.929 . S
H284 C292 0.929 . S
H285 C294 0.930 . S
H286 C296 0.930 . S
H287 C299 0.929 . S
H288 C302 0.930 . S
H289 C304 0.960 . S
H290 C304 0.960 . S
H291 C304 0.960 . S
C292 H284 0.929 . S
C292 C293 1.377 1_554 S
C292 C294 1.384 1_554 S
C293 C292 1.377 1_556 S
C293 C299 1.390 . S
C294 H285 0.930 . S
C294 C292 1.384 1_556 S
C294 C295 1.372 . S
C295 C294 1.372 . S
C295 C296 1.400 . S
C295 C300 1.490 . S
C296 H286 0.930 . S
C296 C295 1.400 . S
C296 C299 1.386 . S
H297 C313 0.930 . S
H298 C314 0.931 . S
C299 H287 0.929 . S
C299 C293 1.390 . S
C299 C296 1.386 . S
C300 C295 1.490 . S
C300 C302 1.395 . S
C300 C303 1.403 . S
H301 C307 0.930 . S
C302 H288 0.930 . S
C302 C300 1.395 . S
C302 C305 1.403 . S
C303 C300 1.403 . S
C303 C304 1.524 . S
C303 C307 1.400 . S
C304 H289 0.960 . S
C304 H290 0.960 . S
C304 H291 0.960 . S
C304 C303 1.524 . S
C305 C302 1.403 . S
C305 C306 1.392 . S
C305 C309 1.495 . S
C306 C305 1.392 . S
C306 C307 1.385 . S
C306 C308 1.478 . S
C307 H301 0.930 . S
C307 C303 1.400 . S
C307 C306 1.385 . S
C308 C306 1.478 . S
C308 C310 1.381 . S
C308 C314 1.383 . S
C309 C305 1.495 . S
C309 H315 0.959 . S
C309 H316 0.961 . S
C309 H317 0.960 . S
C310 C308 1.381 . S
C310 C311 1.394 . S
C310 H318 0.930 . S
C311 C310 1.394 . S
C311 C312 1.383 . S
C311 H319 0.929 . S
C312 C311 1.383 . S
C312 C313 1.377 . S
C313 H297 0.930 . S
C313 C312 1.377 . S
C313 C314 1.379 . S
C314 H298 0.931 . S
C314 C308 1.383 . S
C314 C313 1.379 . S
H315 C309 0.959 . S
H316 C309 0.961 . S
H317 C309 0.960 . S
H318 C310 0.930 . S
H319 C311 0.929 . S
H320 C328 0.929 . S
H321 C330 0.930 . S
H322 C332 0.930 . S
H323 C335 0.929 . S
H324 C338 0.930 . S
H325 C340 0.960 . S
H326 C340 0.960 . S
H327 C340 0.960 . S
C328 H320 0.929 . S
C328 C329 1.377 . S
C328 C330 1.384 . S
C329 C328 1.377 . S
C329 C335 1.390 . S
C330 H321 0.930 . S
C330 C328 1.384 . S
C330 C331 1.372 . S
C331 C330 1.372 . S
C331 C332 1.400 . S
C331 C336 1.490 . S
C332 H322 0.930 . S
C332 C331 1.400 . S
C332 C335 1.386 . S
H333 C349 0.930 . S
H334 C350 0.931 . S
C335 H323 0.929 . S
C335 C329 1.390 . S
C335 C332 1.386 . S
C336 C331 1.490 . S
C336 C338 1.395 . S
C336 C339 1.403 1_554 S
H337 C343 0.930 . S
C338 H324 0.930 . S
C338 C336 1.395 . S
C338 C341 1.403 . S
C339 C336 1.403 1_556 S
C339 C340 1.524 . S
C339 C343 1.400 . S
C340 H325 0.960 . S
C340 H326 0.960 . S
C340 H327 0.960 . S
C340 C339 1.524 . S
C341 C338 1.403 . S
C341 C342 1.392 1_554 S
C341 C345 1.495 . S
C342 C341 1.392 1_556 S
C342 C343 1.385 . S
C342 C344 1.478 . S
C343 H337 0.930 . S
C343 C339 1.400 . S
C343 C342 1.385 . S
C344 C342 1.478 . S
C344 C346 1.381 . S
C344 C350 1.383 . S
C345 C341 1.495 . S
C345 H351 0.959 . S
C345 H352 0.961 . S
C345 H353 0.960 . S
C346 C344 1.381 . S
C346 C347 1.394 . S
C346 H354 0.929 1_556 S
C347 C346 1.394 . S
C347 C348 1.383 . S
C347 H355 0.929 . S
C348 C347 1.383 . S
C348 C349 1.377 . S
C349 H333 0.930 . S
C349 C348 1.377 . S
C349 C350 1.379 . S
C350 H334 0.931 . S
C350 C344 1.383 . S
C350 C349 1.379 . S
H351 C345 0.959 . S
H352 C345 0.961 . S
H353 C345 0.960 . S
H354 C346 0.929 1_554 S
H355 C347 0.929 . S
H356 C364 0.929 . S
H357 C366 0.930 . S
H358 C368 0.930 . S
H359 C371 0.929 . S
H360 C374 0.930 . S
H361 C376 0.960 . S
H362 C376 0.960 . S
H363 C376 0.960 . S
C364 H356 0.929 . S
C364 C365 1.377 1_556 S
C364 C366 1.384 1_556 S
C365 C364 1.377 1_554 S
C365 C371 1.390 . S
C366 H357 0.930 . S
C366 C364 1.384 1_554 S
C366 C367 1.372 . S
C367 C366 1.372 . S
C367 C368 1.400 . S
C367 C372 1.490 . S
C368 H358 0.930 . S
C368 C367 1.400 . S
C368 C371 1.386 . S
H369 C385 0.930 . S
H370 C386 0.931 . S
C371 H359 0.929 . S
C371 C365 1.390 . S
C371 C368 1.386 . S
C372 C367 1.490 . S
C372 C374 1.395 . S
C372 C375 1.403 . S
H373 C379 0.930 . S
C374 H360 0.930 . S
C374 C372 1.395 . S
C374 C377 1.403 . S
C375 C372 1.403 . S
C375 C376 1.524 . S
C375 C379 1.400 . S
C376 H361 0.960 . S
C376 H362 0.960 . S
C376 H363 0.960 . S
C376 C375 1.524 . S
C377 C374 1.403 . S
C377 C378 1.392 . S
C377 C381 1.495 . S
C378 C377 1.392 . S
C378 C379 1.385 . S
C378 C380 1.478 . S
C379 H373 0.930 . S
C379 C375 1.400 . S
C379 C378 1.385 . S
C380 C378 1.478 . S
C380 C382 1.381 . S
C380 C386 1.383 . S
C381 C377 1.495 . S
C381 H387 0.959 . S
C381 H388 0.961 . S
C381 H389 0.960 . S
C382 C380 1.381 . S
C382 C383 1.394 . S
C382 H390 0.930 . S
C383 C382 1.394 . S
C383 C384 1.383 . S
C383 H391 0.929 . S
C384 C383 1.383 . S
C384 C385 1.377 . S
C385 H369 0.930 . S
C385 C384 1.377 . S
C385 C386 1.379 . S
C386 H370 0.931 . S
C386 C380 1.383 . S
C386 C385 1.379 . S
H387 C381 0.959 . S
H388 C381 0.961 . S
H389 C381 0.960 . S
H390 C382 0.930 . S
H391 C383 0.929 . S
H392 C400 0.929 . S
H393 C402 0.930 . S
H394 C404 0.930 . S
H395 C407 0.929 . S
H396 C410 0.930 . S
H397 C412 0.960 . S
H398 C412 0.960 . S
H399 C412 0.960 . S
C400 H392 0.929 . S
C400 C401 1.377 . S
C400 C402 1.384 . S
C401 C400 1.377 . S
C401 C407 1.390 . S
C402 H393 0.930 . S
C402 C400 1.384 . S
C402 C403 1.372 . S
C403 C402 1.372 . S
C403 C404 1.400 . S
C403 C408 1.490 . S
C404 H394 0.930 . S
C404 C403 1.400 . S
C404 C407 1.386 . S
H405 C421 0.930 . S
H406 C422 0.931 . S
C407 H395 0.929 . S
C407 C401 1.390 . S
C407 C404 1.386 . S
C408 C403 1.490 . S
C408 C410 1.395 . S
C408 C411 1.403 . S
H409 C415 0.930 . S
C410 H396 0.930 . S
C410 C408 1.395 . S
C410 C413 1.403 . S
C411 C408 1.403 . S
C411 C412 1.524 . S
C411 C415 1.400 . S
C412 H397 0.960 . S
C412 H398 0.960 . S
C412 H399 0.960 . S
C412 C411 1.524 . S
C413 C410 1.403 . S
C413 C414 1.392 . S
C413 C417 1.495 . S
C414 C413 1.392 . S
C414 C415 1.385 . S
C414 C416 1.478 . S
C415 H409 0.930 . S
C415 C411 1.400 . S
C415 C414 1.385 . S
C416 C414 1.478 . S
C416 C418 1.381 . S
C416 C422 1.383 . S
C417 C413 1.495 . S
C417 H423 0.959 . S
C417 H424 0.961 . S
C417 H425 0.960 . S
C418 C416 1.381 . S
C418 C419 1.394 . S
C418 H426 0.930 . S
C419 C418 1.394 . S
C419 C420 1.383 . S
C419 H427 0.929 . S
C420 C419 1.383 . S
C420 C421 1.377 . S
C421 H405 0.930 . S
C421 C420 1.377 . S
C421 C422 1.379 . S
C422 H406 0.931 . S
C422 C416 1.383 . S
C422 C421 1.379 . S
H423 C417 0.959 . S
H424 C417 0.961 . S
H425 C417 0.960 . S
H426 C418 0.930 . S
H427 C419 0.929 . S
H428 C436 0.929 . S
H429 C438 0.930 . S
H430 C440 0.930 . S
H431 C443 0.929 . S
H432 C446 0.930 . S
H433 C448 0.960 . S
H434 C448 0.960 . S
H435 C448 0.960 . S
C436 H428 0.929 . S
C436 C437 1.377 . S
C436 C438 1.384 . S
C437 C436 1.377 . S
C437 C443 1.390 . S
C438 H429 0.930 . S
C438 C436 1.384 . S
C438 C439 1.372 . S
C439 C438 1.372 . S
C439 C440 1.400 . S
C439 C444 1.490 . S
C440 H430 0.930 . S
C440 C439 1.400 . S
C440 C443 1.386 . S
H441 C457 0.930 . S
H442 C458 0.931 . S
C443 H431 0.929 . S
C443 C437 1.390 . S
C443 C440 1.386 . S
C444 C439 1.490 . S
C444 C446 1.395 . S
C444 C447 1.403 . S
H445 C451 0.930 . S
C446 H432 0.930 . S
C446 C444 1.395 . S
C446 C449 1.403 . S
C447 C444 1.403 . S
C447 C448 1.524 . S
C447 C451 1.400 . S
C448 H433 0.960 . S
C448 H434 0.960 . S
C448 H435 0.960 . S
C448 C447 1.524 . S
C449 C446 1.403 . S
C449 C450 1.392 . S
C449 C453 1.495 . S
C450 C449 1.392 . S
C450 C451 1.385 . S
C450 C452 1.478 . S
C451 H445 0.930 . S
C451 C447 1.400 . S
C451 C450 1.385 . S
C452 C450 1.478 . S
C452 C454 1.381 . S
C452 C458 1.383 . S
C453 C449 1.495 . S
C453 H459 0.959 . S
C453 H460 0.961 . S
C453 H461 0.960 . S
C454 C452 1.381 . S
C454 C455 1.394 . S
C454 H462 0.930 . S
C455 C454 1.394 . S
C455 C456 1.383 . S
C455 H463 0.929 . S
C456 C455 1.383 . S
C456 C457 1.377 . S
C457 H441 0.930 . S
C457 C456 1.377 . S
C457 C458 1.379 . S
C458 H442 0.931 . S
C458 C452 1.383 . S
C458 C457 1.379 . S
H459 C453 0.959 . S
H460 C453 0.961 . S
H461 C453 0.960 . S
H462 C454 0.930 . S
H463 C455 0.929 . S
H464 C472 0.929 . S
H465 C474 0.930 . S
H466 C476 0.930 . S
H467 C479 0.929 . S
H468 C482 0.930 . S
H469 C484 0.960 . S
H470 C484 0.960 . S
H471 C484 0.960 . S
C472 H464 0.929 . S
C472 C473 1.377 1_556 S
C472 C474 1.384 . S
C473 C472 1.377 1_554 S
C473 C479 1.390 . S
C474 H465 0.930 . S
C474 C472 1.384 . S
C474 C475 1.372 1_556 S
C475 C474 1.372 1_554 S
C475 C476 1.400 . S
C475 C480 1.490 . S
C476 H466 0.930 . S
C476 C475 1.400 . S
C476 C479 1.386 . S
H477 C493 0.930 . S
H478 C494 0.931 . S
C479 H467 0.929 . S
C479 C473 1.390 . S
C479 C476 1.386 . S
C480 C475 1.490 . S
C480 C482 1.395 1_554 S
C480 C483 1.403 . S
H481 C487 0.930 . S
C482 H468 0.930 . S
C482 C480 1.395 1_556 S
C482 C485 1.403 . S
C483 C480 1.403 . S
C483 C484 1.524 . S
C483 C487 1.400 . S
C484 H469 0.960 . S
C484 H470 0.960 . S
C484 H471 0.960 . S
C484 C483 1.524 . S
C485 C482 1.403 . S
C485 C486 1.392 . S
C485 C489 1.495 . S
C486 C485 1.392 . S
C486 C487 1.385 1_556 S
C486 C488 1.478 . S
C487 H481 0.930 . S
C487 C483 1.400 . S
C487 C486 1.385 1_554 S
C488 C486 1.478 . S
C488 C490 1.381 . S
C488 C494 1.383 1_556 S
C489 C485 1.495 . S
C489 H495 0.959 . S
C489 H496 0.961 . S
C489 H497 0.960 . S
C490 C488 1.381 . S
C490 C491 1.394 . S
C490 H498 0.930 . S
C491 C490 1.394 . S
C491 C492 1.383 . S
C491 H499 0.929 . S
C492 C491 1.383 . S
C492 C493 1.377 1_556 S
C493 H477 0.930 . S
C493 C492 1.377 1_554 S
C493 C494 1.379 . S
C494 H478 0.931 . S
C494 C488 1.383 1_554 S
C494 C493 1.379 . S
H495 C489 0.959 . S
H496 C489 0.961 . S
H497 C489 0.960 . S
H498 C490 0.930 . S
H499 C491 0.929 . S
H500 C508 0.929 . S
H501 C510 0.930 . S
H502 C512 0.930 . S
H503 C515 0.929 . S
H504 C518 0.930 . S
H505 C520 0.960 . S
H506 C520 0.960 . S
H507 C520 0.960 . S
C508 H500 0.929 . S
C508 C509 1.377 . S
C508 C510 1.384 . S
C509 C508 1.377 . S
C509 C515 1.390 . S
C510 H501 0.930 . S
C510 C508 1.384 . S
C510 C511 1.372 . S
C511 C510 1.372 . S
C511 C512 1.400 . S
C511 C516 1.490 . S
C512 H502 0.930 . S
C512 C511 1.400 . S
C512 C515 1.386 . S
H513 C529 0.930 . S
H514 C530 0.931 . S
C515 H503 0.929 . S
C515 C509 1.390 . S
C515 C512 1.386 . S
C516 C511 1.490 . S
C516 C518 1.395 . S
C516 C519 1.403 . S
H517 C523 0.930 . S
C518 H504 0.930 . S
C518 C516 1.395 . S
C518 C521 1.403 . S
C519 C516 1.403 . S
C519 C520 1.524 . S
C519 C523 1.400 . S
C520 H505 0.960 . S
C520 H506 0.960 . S
C520 H507 0.960 . S
C520 C519 1.524 . S
C521 C518 1.403 . S
C521 C522 1.392 . S
C521 C525 1.495 . S
C522 C521 1.392 . S
C522 C523 1.385 . S
C522 C524 1.478 . S
C523 H517 0.930 . S
C523 C519 1.400 . S
C523 C522 1.385 . S
C524 C522 1.478 . S
C524 C526 1.381 . S
C524 C530 1.383 . S
C525 C521 1.495 . S
C525 H531 0.959 . S
C525 H532 0.961 . S
C525 H533 0.960 . S
C526 C524 1.381 . S
C526 C527 1.394 . S
C526 H534 0.930 . S
C527 C526 1.394 . S
C527 C528 1.383 . S
C527 H535 0.929 . S
C528 C527 1.383 . S
C528 C529 1.377 . S
C529 H513 0.930 . S
C529 C528 1.377 . S
C529 C530 1.379 . S
C530 H514 0.931 . S
C530 C524 1.383 . S
C530 C529 1.379 . S
H531 C525 0.959 . S
H532 C525 0.961 . S
H533 C525 0.960 . S
H534 C526 0.930 . S
H535 C527 0.929 . S
H536 C544 0.929 . S
H537 C546 0.930 . S
H538 C548 0.930 . S
H539 C551 0.929 . S
H540 C554 0.930 . S
H541 C556 0.960 . S
H542 C556 0.960 . S
H543 C556 0.960 . S
C544 H536 0.929 . S
C544 C545 1.377 . S
C544 C546 1.384 . S
C545 C544 1.377 . S
C545 C551 1.390 . S
C546 H537 0.930 . S
C546 C544 1.384 . S
C546 C547 1.372 . S
C547 C546 1.372 . S
C547 C548 1.400 . S
C547 C552 1.490 . S
C548 H538 0.930 . S
C548 C547 1.400 . S
C548 C551 1.386 . S
H549 C565 0.930 . S
H550 C566 0.931 . S
C551 H539 0.929 . S
C551 C545 1.390 . S
C551 C548 1.386 . S
C552 C547 1.490 . S
C552 C554 1.395 . S
C552 C555 1.403 . S
H553 C559 0.930 . S
C554 H540 0.930 . S
C554 C552 1.395 . S
C554 C557 1.403 . S
C555 C552 1.403 . S
C555 C556 1.524 . S
C555 C559 1.400 . S
C556 H541 0.960 . S
C556 H542 0.960 . S
C556 H543 0.960 . S
C556 C555 1.524 . S
C557 C554 1.403 . S
C557 C558 1.392 . S
C557 C561 1.495 . S
C558 C557 1.392 . S
C558 C559 1.385 . S
C558 C560 1.478 . S
C559 H553 0.930 . S
C559 C555 1.400 . S
C559 C558 1.385 . S
C560 C558 1.478 . S
C560 C562 1.381 . S
C560 C566 1.383 . S
C561 C557 1.495 . S
C561 H567 0.959 . S
C561 H568 0.961 . S
C561 H569 0.960 . S
C562 C560 1.381 . S
C562 C563 1.394 . S
C562 H570 0.930 . S
C563 C562 1.394 . S
C563 C564 1.383 . S
C563 H571 0.929 . S
C564 C563 1.383 . S
C564 C565 1.377 . S
C565 H549 0.930 . S
C565 C564 1.377 . S
C565 C566 1.379 . S
C566 H550 0.931 . S
C566 C560 1.383 . S
C566 C565 1.379 . S
H567 C561 0.959 . S
H568 C561 0.961 . S
H569 C561 0.960 . S
H570 C562 0.930 . S
H571 C563 0.929 . S
H572 C580 0.929 . S
H573 C582 0.930 . S
H574 C584 0.930 . S
H575 C587 0.929 . S
H576 C590 0.930 . S
H577 C592 0.960 . S
H578 C592 0.954 1_556 S
H579 C592 0.960 . S
C580 H572 0.929 . S
C580 C581 1.377 . S
C580 C582 1.384 . S
C581 C580 1.377 . S
C581 C587 1.390 1_556 S
C582 H573 0.930 . S
C582 C580 1.384 . S
C582 C583 1.372 . S
C583 C582 1.372 . S
C583 C584 1.400 1_556 S
C583 C588 1.490 . S
C584 H574 0.930 . S
C584 C583 1.400 1_554 S
C584 C587 1.386 . S
H585 C601 0.930 . S
H586 C602 0.931 . S
C587 H575 0.929 . S
C587 C581 1.390 1_554 S
C587 C584 1.386 . S
C588 C583 1.490 . S
C588 C590 1.395 . S
C588 C591 1.403 1_556 S
H589 C595 0.930 . S
C590 H576 0.930 . S
C590 C588 1.395 . S
C590 C593 1.403 . S
C591 C588 1.403 1_554 S
C591 C592 1.524 . S
C591 C595 1.400 . S
C592 H577 0.960 . S
C592 H578 0.954 1_554 S
C592 H579 0.960 . S
C592 C591 1.524 . S
C593 C590 1.403 . S
C593 C594 1.392 1_556 S
C593 C597 1.495 . S
C594 C593 1.392 1_554 S
C594 C595 1.385 . S
C594 C596 1.478 . S
C595 H589 0.930 . S
C595 C591 1.400 . S
C595 C594 1.385 . S
C596 C594 1.478 . S
C596 C598 1.381 1_554 S
C596 C602 1.383 . S
C597 C593 1.495 . S
C597 H603 0.959 . S
C597 H604 0.961 . S
C597 H605 0.960 . S
C598 C596 1.381 1_556 S
C598 C599 1.394 . S
C598 H606 0.930 . S
C599 C598 1.394 . S
C599 C600 1.383 1_556 S
C599 H607 0.929 . S
C600 C599 1.383 1_554 S
C600 C601 1.377 . S
C601 H585 0.930 . S
C601 C600 1.377 . S
C601 C602 1.379 . S
C602 H586 0.931 . S
C602 C596 1.383 . S
C602 C601 1.379 . S
H603 C597 0.959 . S
H604 C597 0.961 . S
H605 C597 0.960 . S
H606 C598 0.930 . S
H607 C599 0.929 . S
H608 C616 0.929 . S
H609 C618 0.930 . S
H610 C620 0.930 . S
H611 C623 0.929 . S
H612 C626 0.930 . S
H613 C628 0.960 . S
H614 C628 0.960 . S
H615 C628 0.960 . S
C616 H608 0.929 . S
C616 C617 1.377 . S
C616 C618 1.384 . S
C617 C616 1.377 . S
C617 C623 1.390 . S
C618 H609 0.930 . S
C618 C616 1.384 . S
C618 C619 1.372 . S
C619 C618 1.372 . S
C619 C620 1.400 . S
C619 C624 1.490 . S
C620 H610 0.930 . S
C620 C619 1.400 . S
C620 C623 1.386 . S
H621 C637 0.930 . S
H622 C638 0.931 . S
C623 H611 0.929 . S
C623 C617 1.390 . S
C623 C620 1.386 . S
C624 C619 1.490 . S
C624 C626 1.395 . S
C624 C627 1.403 . S
H625 C631 0.930 . S
C626 H612 0.930 . S
C626 C624 1.395 . S
C626 C629 1.403 . S
C627 C624 1.403 . S
C627 C628 1.524 . S
C627 C631 1.400 . S
C628 H613 0.960 . S
C628 H614 0.960 . S
C628 H615 0.960 . S
C628 C627 1.524 . S
C629 C626 1.403 . S
C629 C630 1.392 . S
C629 C633 1.495 . S
C630 C629 1.392 . S
C630 C631 1.385 . S
C630 C632 1.478 . S
C631 H625 0.930 . S
C631 C627 1.400 . S
C631 C630 1.385 . S
C632 C630 1.478 . S
C632 C634 1.381 . S
C632 C638 1.383 . S
C633 C629 1.495 . S
C633 H639 0.959 . S
C633 H640 0.961 . S
C633 H641 0.960 . S
C634 C632 1.381 . S
C634 C635 1.394 . S
C634 H642 0.930 . S
C635 C634 1.394 . S
C635 C636 1.383 . S
C635 H643 0.929 . S
C636 C635 1.383 . S
C636 C637 1.377 . S
C637 H621 0.930 . S
C637 C636 1.377 . S
C637 C638 1.379 . S
C638 H622 0.931 . S
C638 C632 1.383 . S
C638 C637 1.379 . S
H639 C633 0.959 . S
H640 C633 0.961 . S
H641 C633 0.960 . S
H642 C634 0.930 . S
H643 C635 0.929 . S
H644 C652 0.929 . S
H645 C654 0.930 . S
H646 C656 0.930 . S
H647 C659 0.929 . S
H648 C662 0.930 . S
H649 C664 0.960 . S
H650 C664 0.960 . S
H651 C664 0.960 . S
C652 H644 0.929 . S
C652 C653 1.377 . S
C652 C654 1.384 . S
C653 C652 1.377 . S
C653 C659 1.390 . S
C654 H645 0.930 . S
C654 C652 1.384 . S
C654 C655 1.372 . S
C655 C654 1.372 . S
C655 C656 1.400 . S
C655 C660 1.490 . S
C656 H646 0.930 . S
C656 C655 1.400 . S
C656 C659 1.386 . S
H657 C673 0.930 . S
H658 C674 0.931 . S
C659 H647 0.929 . S
C659 C653 1.390 . S
C659 C656 1.386 . S
C660 C655 1.490 . S
C660 C662 1.395 . S
C660 C663 1.403 . S
H661 C667 0.930 . S
C662 H648 0.930 . S
C662 C660 1.395 . S
C662 C665 1.403 . S
C663 C660 1.403 . S
C663 C664 1.524 . S
C663 C667 1.400 . S
C664 H649 0.960 . S
C664 H650 0.960 . S
C664 H651 0.960 . S
C664 C663 1.524 . S
C665 C662 1.403 . S
C665 C666 1.392 . S
C665 C669 1.495 . S
C666 C665 1.392 . S
C666 C667 1.385 . S
C666 C668 1.478 . S
C667 H661 0.930 . S
C667 C663 1.400 . S
C667 C666 1.385 . S
C668 C666 1.478 . S
C668 C670 1.381 . S
C668 C674 1.383 . S
C669 C665 1.495 . S
C669 H675 0.959 . S
C669 H676 0.961 . S
C669 H677 0.960 . S
C670 C668 1.381 . S
C670 C671 1.394 . S
C670 H678 0.930 . S
C671 C670 1.394 . S
C671 C672 1.383 . S
C671 H679 0.929 . S
C672 C671 1.383 . S
C672 C673 1.377 . S
C673 H657 0.930 . S
C673 C672 1.377 . S
C673 C674 1.379 . S
C674 H658 0.931 . S
C674 C668 1.383 . S
C674 C673 1.379 . S
H675 C669 0.959 . S
H676 C669 0.961 . S
H677 C669 0.960 . S
H678 C670 0.930 . S
H679 C671 0.929 . S
C113 C23 1.466 . S
C132 C10 1.465 . S
C149 C18 1.466 . S
C168 C36 1.461 1_554 S
C185 C42 1.465 . S
C204 C31 1.461 . S
C221 C43 1.466 1_556 S
C240 C5 1.462 . S
C257 C62 1.466 . S
C276 C75 1.461 . S
C293 C70 1.466 1_556 S
C312 C88 1.461 . S
C329 C83 1.466 . S
C348 C94 1.464 . S
C365 C57 1.466 1_554 S
C384 C95 1.461 . S
C401 C4 1.507 . S
C420 C96 1.511 . S
C437 C55 1.517 . S
C456 C16 1.504 . S
C473 C69 1.510 . S
C492 C29 1.496 . S
C509 C49 1.499 . S
C528 C82 1.502 . S
C545 C30 1.501 . S
C564 C101 1.492 . S
C581 C56 1.507 . S
C600 C44 1.511 . S
C617 C68 1.514 . S
C636 C3 1.517 . S
C653 C17 1.509 . S
C672 C81 1.497 . S
