# Generated by pormake.
# Topology umu, (4)-cn, num edge types: 1
# Building blocks:
#     Node 0, Type 0, BuildingBlock: QUQFOY_clean_sbu_3, # of connection points: 4
#     Node 1, Type 0, BuildingBlock: QUQFOY_clean_sbu_3, # of connection points: 4
#     Node 2, Type 0, BuildingBlock: QUQFOY_clean_sbu_3, # of connection points: 4
#     Node 3, Type 0, BuildingBlock: QUQFOY_clean_sbu_3, # of connection points: 4
#     Node 4, Type 0, BuildingBlock: QUQFOY_clean_sbu_3, # of connection points: 4
#     Node 5, Type 0, BuildingBlock: QUQFOY_clean_sbu_3, # of connection points: 4
#     Node 6, Type 0, BuildingBlock: QUQFOY_clean_sbu_3, # of connection points: 4
#     Node 7, Type 0, BuildingBlock: QUQFOY_clean_sbu_3, # of connection points: 4
#     Node 8, Type 0, BuildingBlock: QUQFOY_clean_sbu_3, # of connection points: 4
#     Node 9, Type 0, BuildingBlock: QUQFOY_clean_sbu_3, # of connection points: 4
#     Node 10, Type 0, BuildingBlock: QUQFOY_clean_sbu_3, # of connection points: 4
#     Node 11, Type 0, BuildingBlock: QUQFOY_clean_sbu_3, # of connection points: 4
#     Node 12, Type 0, BuildingBlock: QUQFOY_clean_sbu_3, # of connection points: 4
#     Node 13, Type 0, BuildingBlock: QUQFOY_clean_sbu_3, # of connection points: 4
#     Node 14, Type 0, BuildingBlock: QUQFOY_clean_sbu_3, # of connection points: 4
#     Node 15, Type 0, BuildingBlock: QUQFOY_clean_sbu_3, # of connection points: 4
#     Node 16, Type 0, BuildingBlock: QUQFOY_clean_sbu_3, # of connection points: 4
#     Node 17, Type 0, BuildingBlock: QUQFOY_clean_sbu_3, # of connection points: 4
#     Node 18, Type 0, BuildingBlock: QUQFOY_clean_sbu_3, # of connection points: 4
#     Node 19, Type 0, BuildingBlock: QUQFOY_clean_sbu_3, # of connection points: 4
#     Node 20, Type 0, BuildingBlock: QUQFOY_clean_sbu_3, # of connection points: 4
#     Node 21, Type 0, BuildingBlock: QUQFOY_clean_sbu_3, # of connection points: 4
#     Node 22, Type 0, BuildingBlock: QUQFOY_clean_sbu_3, # of connection points: 4
#     Node 23, Type 0, BuildingBlock: QUQFOY_clean_sbu_3, # of connection points: 4
#     Node 24, Type 0, BuildingBlock: QUQFOY_clean_sbu_3, # of connection points: 4
#     Node 25, Type 0, BuildingBlock: QUQFOY_clean_sbu_3, # of connection points: 4
#     Node 26, Type 0, BuildingBlock: QUQFOY_clean_sbu_3, # of connection points: 4
#     Node 27, Type 0, BuildingBlock: QUQFOY_clean_sbu_3, # of connection points: 4
#     Node 28, Type 0, BuildingBlock: QUQFOY_clean_sbu_3, # of connection points: 4
#     Node 29, Type 0, BuildingBlock: QUQFOY_clean_sbu_3, # of connection points: 4
#     Node 30, Type 0, BuildingBlock: QUQFOY_clean_sbu_3, # of connection points: 4
#     Node 31, Type 0, BuildingBlock: QUQFOY_clean_sbu_3, # of connection points: 4
#     Edge 32, Type (0, 0), BuildingBlock: OJICUG_clean_linker_0, # of connection points: 2
#     Edge 33, Type (0, 0), BuildingBlock: OJICUG_clean_linker_0, # of connection points: 2
#     Edge 34, Type (0, 0), BuildingBlock: OJICUG_clean_linker_0, # of connection points: 2
#     Edge 35, Type (0, 0), BuildingBlock: OJICUG_clean_linker_0, # of connection points: 2
#     Edge 36, Type (0, 0), BuildingBlock: OJICUG_clean_linker_0, # of connection points: 2
#     Edge 37, Type (0, 0), BuildingBlock: OJICUG_clean_linker_0, # of connection points: 2
#     Edge 38, Type (0, 0), BuildingBlock: OJICUG_clean_linker_0, # of connection points: 2
#     Edge 39, Type (0, 0), BuildingBlock: OJICUG_clean_linker_0, # of connection points: 2
#     Edge 40, Type (0, 0), BuildingBlock: OJICUG_clean_linker_0, # of connection points: 2
#     Edge 41, Type (0, 0), BuildingBlock: OJICUG_clean_linker_0, # of connection points: 2
#     Edge 42, Type (0, 0), BuildingBlock: OJICUG_clean_linker_0, # of connection points: 2
#     Edge 43, Type (0, 0), BuildingBlock: OJICUG_clean_linker_0, # of connection points: 2
#     Edge 44, Type (0, 0), BuildingBlock: OJICUG_clean_linker_0, # of connection points: 2
#     Edge 45, Type (0, 0), BuildingBlock: OJICUG_clean_linker_0, # of connection points: 2
#     Edge 46, Type (0, 0), BuildingBlock: OJICUG_clean_linker_0, # of connection points: 2
#     Edge 47, Type (0, 0), BuildingBlock: OJICUG_clean_linker_0, # of connection points: 2
#     Edge 48, Type (0, 0), BuildingBlock: OJICUG_clean_linker_0, # of connection points: 2
#     Edge 49, Type (0, 0), BuildingBlock: OJICUG_clean_linker_0, # of connection points: 2
#     Edge 50, Type (0, 0), BuildingBlock: OJICUG_clean_linker_0, # of connection points: 2
#     Edge 51, Type (0, 0), BuildingBlock: OJICUG_clean_linker_0, # of connection points: 2
#     Edge 52, Type (0, 0), BuildingBlock: OJICUG_clean_linker_0, # of connection points: 2
#     Edge 53, Type (0, 0), BuildingBlock: OJICUG_clean_linker_0, # of connection points: 2
#     Edge 54, Type (0, 0), BuildingBlock: OJICUG_clean_linker_0, # of connection points: 2
#     Edge 55, Type (0, 0), BuildingBlock: OJICUG_clean_linker_0, # of connection points: 2
#     Edge 56, Type (0, 0), BuildingBlock: OJICUG_clean_linker_0, # of connection points: 2
#     Edge 57, Type (0, 0), BuildingBlock: OJICUG_clean_linker_0, # of connection points: 2
#     Edge 58, Type (0, 0), BuildingBlock: OJICUG_clean_linker_0, # of connection points: 2
#     Edge 59, Type (0, 0), BuildingBlock: OJICUG_clean_linker_0, # of connection points: 2
#     Edge 60, Type (0, 0), BuildingBlock: OJICUG_clean_linker_0, # of connection points: 2
#     Edge 61, Type (0, 0), BuildingBlock: OJICUG_clean_linker_0, # of connection points: 2
#     Edge 62, Type (0, 0), BuildingBlock: OJICUG_clean_linker_0, # of connection points: 2
#     Edge 63, Type (0, 0), BuildingBlock: OJICUG_clean_linker_0, # of connection points: 2
#     Edge 64, Type (0, 0), BuildingBlock: OJICUG_clean_linker_0, # of connection points: 2
#     Edge 65, Type (0, 0), BuildingBlock: OJICUG_clean_linker_0, # of connection points: 2
#     Edge 66, Type (0, 0), BuildingBlock: OJICUG_clean_linker_0, # of connection points: 2
#     Edge 67, Type (0, 0), BuildingBlock: OJICUG_clean_linker_0, # of connection points: 2
#     Edge 68, Type (0, 0), BuildingBlock: OJICUG_clean_linker_0, # of connection points: 2
#     Edge 69, Type (0, 0), BuildingBlock: OJICUG_clean_linker_0, # of connection points: 2
#     Edge 70, Type (0, 0), BuildingBlock: OJICUG_clean_linker_0, # of connection points: 2
#     Edge 71, Type (0, 0), BuildingBlock: OJICUG_clean_linker_0, # of connection points: 2
#     Edge 72, Type (0, 0), BuildingBlock: OJICUG_clean_linker_0, # of connection points: 2
#     Edge 73, Type (0, 0), BuildingBlock: OJICUG_clean_linker_0, # of connection points: 2
#     Edge 74, Type (0, 0), BuildingBlock: OJICUG_clean_linker_0, # of connection points: 2
#     Edge 75, Type (0, 0), BuildingBlock: OJICUG_clean_linker_0, # of connection points: 2
#     Edge 76, Type (0, 0), BuildingBlock: OJICUG_clean_linker_0, # of connection points: 2
#     Edge 77, Type (0, 0), BuildingBlock: OJICUG_clean_linker_0, # of connection points: 2
#     Edge 78, Type (0, 0), BuildingBlock: OJICUG_clean_linker_0, # of connection points: 2
#     Edge 79, Type (0, 0), BuildingBlock: OJICUG_clean_linker_0, # of connection points: 2
#     Edge 80, Type (0, 0), BuildingBlock: OJICUG_clean_linker_0, # of connection points: 2
#     Edge 81, Type (0, 0), BuildingBlock: OJICUG_clean_linker_0, # of connection points: 2
#     Edge 82, Type (0, 0), BuildingBlock: OJICUG_clean_linker_0, # of connection points: 2
#     Edge 83, Type (0, 0), BuildingBlock: OJICUG_clean_linker_0, # of connection points: 2
#     Edge 84, Type (0, 0), BuildingBlock: OJICUG_clean_linker_0, # of connection points: 2
#     Edge 85, Type (0, 0), BuildingBlock: OJICUG_clean_linker_0, # of connection points: 2
#     Edge 86, Type (0, 0), BuildingBlock: OJICUG_clean_linker_0, # of connection points: 2
#     Edge 87, Type (0, 0), BuildingBlock: OJICUG_clean_linker_0, # of connection points: 2
#     Edge 88, Type (0, 0), BuildingBlock: OJICUG_clean_linker_0, # of connection points: 2
#     Edge 89, Type (0, 0), BuildingBlock: OJICUG_clean_linker_0, # of connection points: 2
#     Edge 90, Type (0, 0), BuildingBlock: OJICUG_clean_linker_0, # of connection points: 2
#     Edge 91, Type (0, 0), BuildingBlock: OJICUG_clean_linker_0, # of connection points: 2
#     Edge 92, Type (0, 0), BuildingBlock: OJICUG_clean_linker_0, # of connection points: 2
#     Edge 93, Type (0, 0), BuildingBlock: OJICUG_clean_linker_0, # of connection points: 2
#     Edge 94, Type (0, 0), BuildingBlock: OJICUG_clean_linker_0, # of connection points: 2
#     Edge 95, Type (0, 0), BuildingBlock: OJICUG_clean_linker_0, # of connection points: 2
# Relax obj value: 0.119
# Max RMSD: 0.093
# Mean RMSD: 0.093
data_MOF--net-umu--node1-QUQFOY_clean_sbu_3--edge1-OJICUG_clean_linker_0
_symmetry_space_group_name_H-M    P1
_symmetry_Int_Tables_number       1
_symmetry_cell_setting            triclinic
loop_
_symmetry_equiv_pos_as_xyz
'x, y, z'
_cell_length_a     63.019394
_cell_length_b     63.027782
_cell_length_c     19.856181
_cell_angle_alpha  89.893325
_cell_angle_beta   89.947191
_cell_angle_gamma 90.015641
loop_
_atom_site_label
_atom_site_type_symbol
_atom_site_fract_x
_atom_site_fract_y
_atom_site_fract_z
_atom_type_partial_charge
C0 C 0.24535 0.13233 0.16961 0.0
O1 O 0.25984 0.13987 0.13232 0.0
Cd2 Cd 0.2518 0.16383 0.04581 0.0
O3 O 0.22579 0.13561 0.15587 0.0
Cd4 Cd 0.20385 0.15137 0.06322 0.0
C5 C 0.21536 0.19819 0.12443 0.0
O6 O 0.22848 0.14527 0.97498 0.0
O7 O 0.20772 0.1721 0.95922 0.0
O8 O 0.18822 0.11736 0.0439 0.0
C9 C 0.22072 0.1588 0.93512 0.0
O10 O 0.23353 0.19344 0.10042 0.0
C11 C 0.16998 0.12397 0.02712 0.0
O12 O 0.1999 0.18521 0.12087 0.0
O13 O 0.16625 0.1436 0.03595 0.0
C14 C 0.10751 0.97611 0.43422 0.0
O15 O 0.10506 0.99179 0.39494 0.0
Cd16 Cd 0.08627 0.99067 0.29345 0.0
O17 O 0.10074 0.95767 0.41812 0.0
Cd18 Cd 0.08336 0.94084 0.31837 0.0
C19 C 0.03918 0.96718 0.34968 0.0
O20 O 0.10109 0.96185 0.23488 0.0
O21 O 0.07013 0.95054 0.20751 0.0
O22 O 0.10745 0.91058 0.31988 0.0
C23 C 0.08724 0.95943 0.18972 0.0
O24 O 0.04951 0.98278 0.32504 0.0
C25 C 0.09452 0.89799 0.29157 0.0
O26 O 0.04808 0.94926 0.35905 0.0
O27 O 0.07567 0.90455 0.28348 0.0
C28 C 0.24127 0.85803 0.68201 0.0
O29 O 0.227 0.85169 0.64183 0.0
Cd30 Cd 0.23406 0.83458 0.53969 0.0
O31 O 0.26092 0.85678 0.66617 0.0
Cd32 Cd 0.28241 0.8462 0.5649 0.0
C33 C 0.27033 0.79586 0.593 0.0
O34 O 0.25718 0.85771 0.48255 0.0
O35 O 0.27823 0.83301 0.44972 0.0
O36 O 0.3009 0.87961 0.56301 0.0
C37 C 0.2643 0.8467 0.43468 0.0
O38 O 0.25224 0.80182 0.57133 0.0
C39 C 0.31858 0.87224 0.54339 0.0
O40 O 0.28544 0.80911 0.60004 0.0
O41 O 0.32044 0.85217 0.54261 0.0
C42 C 0.38421 0.0111 0.92408 0.0
O43 O 0.38917 -0.0038 0.88431 0.0
Cd44 Cd 0.41038 0.00266 0.78971 0.0
O45 O 0.38914 0.03033 0.91046 0.0
Cd46 Cd 0.40504 0.05176 0.81656 0.0
C47 C 0.45173 0.03315 0.85919 0.0
O48 O 0.39207 0.02925 0.73001 0.0
O49 O 0.42052 0.04631 0.7042 0.0
O50 O 0.37358 0.07314 0.82183 0.0
C51 C 0.405 0.03506 0.6852 0.0
O52 O 0.44385 0.01622 0.8346 0.0
C53 C 0.38166 0.08984 0.79703 0.0
O54 O 0.44082 0.05013 0.86275 0.0
O55 O 0.40167 0.08992 0.78925 0.0
C56 C 0.22007 0.85781 0.95861 0.0
O57 O 0.23602 0.85554 -0.00326 0.0
Cd58 Cd 0.23521 0.8373 0.09923 0.0
O59 O 0.20167 0.85153 -0.02256 0.0
Cd60 Cd 0.1871 0.83569 0.08423 0.0
C61 C 0.20981 0.79065 0.04816 0.0
O62 O 0.20883 0.8551 0.16265 0.0
O63 O 0.20413 0.82198 0.18508 0.0
O64 O 0.15581 0.85867 0.08902 0.0
C65 C 0.21102 0.8399 0.20366 0.0
O66 O 0.22605 0.80069 0.06932 0.0
C67 C 0.1452 0.84623 0.1265 0.0
O68 O 0.19195 0.79993 0.04267 0.0
O69 O 0.15312 0.82811 0.13798 0.0
C70 C 0.38051 0.99325 0.19872 0.0
O71 O 0.38704 0.00953 0.22978 0.0
Cd72 Cd 0.40893 0.00874 0.3243 0.0
O73 O 0.38367 0.97464 0.22247 0.0
Cd74 Cd 0.39777 0.95995 0.33125 0.0
C75 C 0.44635 0.97003 0.2787 0.0
O76 O 0.38903 0.98924 0.40191 0.0
O77 O 0.41607 0.97096 0.43442 0.0
O78 O 0.36478 0.94385 0.36276 0.0
C79 C 0.40221 0.98492 0.4476 0.0
O80 O 0.44068 0.98905 0.29105 0.0
C81 C 0.37243 0.92641 0.38335 0.0
O82 O 0.43339 0.95468 0.2861 0.0
O83 O 0.39204 0.92319 0.37222 0.0
C84 C 0.2609 0.13463 0.44126 0.0
O85 O 0.24365 0.14079 0.46752 0.0
Cd86 Cd 0.24062 0.16517 0.55521 0.0
O87 O 0.27876 0.14027 0.46593 0.0
Cd88 Cd 0.29014 0.15933 0.57077 0.0
C89 C 0.27559 0.20575 0.50819 0.0
O90 O 0.26082 0.14938 0.63994 0.0
O91 O 0.27648 0.17836 0.66967 0.0
O92 O 0.30825 0.12949 0.61751 0.0
C93 C 0.26368 0.1635 0.6839 0.0
O94 O 0.25707 0.19834 0.51886 0.0
C95 C 0.32531 0.13893 0.6329 0.0
O96 O 0.29202 0.19453 0.51971 0.0
O97 O 0.32746 0.15792 0.61222 0.0
C98 C 0.10857 0.99496 0.7105 0.0
O99 O 0.10272 0.97971 0.74782 0.0
Cd100 Cd 0.08336 0.98373 0.84737 0.0
O101 O 0.1057 0.01421 0.72867 0.0
Cd102 Cd 0.09265 0.03304 0.83175 0.0
C103 C 0.04357 0.01883 0.79401 0.0
O104 O 0.10407 0.00709 0.91124 0.0
O105 O 0.0773 0.02576 0.94266 0.0
O106 O 0.1254 0.05196 0.84341 0.0
C107 C 0.09169 0.01258 0.95789 0.0
O108 O 0.05016 0.00075 0.8139 0.0
C109 C 0.11742 0.06911 0.86506 0.0
O110 O 0.05611 0.03469 0.79104 0.0
O111 O 0.09734 0.07079 0.86231 0.0
C112 C 0.7573 0.86267 0.96614 0.0
O113 O 0.74196 0.85794 0.00464 0.0
Cd114 Cd 0.7455 0.83688 0.10091 0.0
O115 O 0.77636 0.85773 -0.01813 0.0
Cd116 Cd 0.79488 0.84177 0.0814 0.0
C117 C 0.77648 0.7948 0.04007 0.0
O118 O 0.77118 0.85417 0.16591 0.0
O119 O 0.78671 0.82467 0.18933 0.0
O120 O 0.81635 0.8723 0.10105 0.0
C121 C 0.77571 0.84026 0.20925 0.0
O122 O 0.75922 0.80276 0.06211 0.0
C123 C 0.83298 0.86237 0.11815 0.0
O124 O 0.79338 0.80587 0.03693 0.0
O125 O 0.8332 0.84244 0.10856 0.0
C126 C 0.88497 0.01392 0.70355 0.0
O127 O 0.88836 -0.00189 0.74155 0.0
Cd128 Cd 0.90716 -0.00074 0.84275 0.0
O129 O 0.89073 0.0326 0.72104 0.0
Cd130 Cd 0.90715 0.04931 0.82352 0.0
C131 C 0.95293 0.02626 0.78972 0.0
O132 O 0.88998 0.02629 0.90328 0.0
O133 O 0.92007 0.03894 0.9342 0.0
O134 O 0.88158 0.07845 0.82484 0.0
C135 C 0.90327 0.02909 0.94985 0.0
O136 O 0.94332 0.0098 0.81148 0.0
C137 C 0.89382 0.09119 0.85547 0.0
O138 O 0.94321 0.04387 0.78342 0.0
O139 O 0.91289 0.08537 0.8636 0.0
C140 C 0.74746 0.1342 0.46635 0.0
O141 O 0.76195 0.14021 0.50618 0.0
Cd142 Cd 0.75529 0.15842 0.60651 0.0
O143 O 0.72786 0.13658 0.48162 0.0
Cd144 Cd 0.70648 0.14903 0.58088 0.0
C145 C 0.72098 0.19842 0.54925 0.0
O146 O 0.73093 0.13661 0.6637 0.0
O147 O 0.71144 0.16269 0.69544 0.0
O148 O 0.68666 0.11645 0.58153 0.0
C149 C 0.72446 0.1482 0.71107 0.0
O150 O 0.73869 0.19172 0.57186 0.0
C151 C 0.66939 0.12434 0.60278 0.0
O152 O 0.70523 0.18589 0.54275 0.0
O153 O 0.66833 0.14445 0.60513 0.0
C154 C 0.60352 0.98552 0.21944 0.0
O155 O 0.59819 0.00061 0.25796 0.0
Cd156 Cd 0.5765 0.9946 0.35152 0.0
O157 O 0.59873 0.96633 0.23404 0.0
Cd158 Cd 0.5829 0.94544 0.32922 0.0
C159 C 0.53605 0.96254 0.28335 0.0
O160 O 0.59516 0.96895 0.41373 0.0
O161 O 0.56698 0.95156 0.44064 0.0
O162 O 0.61525 0.92565 0.32743 0.0
C163 C 0.58233 0.96317 0.45887 0.0
O164 O 0.54363 0.97982 0.30636 0.0
C165 C 0.60801 0.90896 0.35473 0.0
O166 O 0.54718 0.94566 0.28201 0.0
O167 O 0.58799 0.9078 0.36143 0.0
C168 C 0.76753 0.132 0.19019 0.0
O169 O 0.75128 0.13475 0.15366 0.0
Cd170 Cd 0.75093 0.15401 0.05326 0.0
O171 O 0.78587 0.13809 0.17024 0.0
Cd172 Cd 0.8007 0.15404 0.06393 0.0
C173 C 0.77859 0.19936 0.1052 0.0
O174 O 0.77675 0.13725 -0.01345 0.0
O175 O 0.78741 0.16841 0.95819 0.0
O176 O 0.83011 0.12891 0.05568 0.0
C177 C 0.77804 0.15143 0.9418 0.0
O178 O 0.76177 0.19004 0.08522 0.0
C179 C 0.84218 0.14156 0.02373 0.0
O180 O 0.79621 0.18952 0.10782 0.0
O181 O 0.83588 0.16053 0.01713 0.0
C182 C 0.60791 0.00315 0.94504 0.0
O183 O 0.60166 0.98695 0.91298 0.0
Cd184 Cd 0.5798 0.98815 0.81839 0.0
O185 O 0.60445 0.02183 0.92237 0.0
Cd186 Cd 0.59013 0.03706 0.81501 0.0
C187 C 0.54163 0.02585 0.86572 0.0
O188 O 0.59916 0.00856 0.74178 0.0
O189 O 0.57167 0.02652 0.71157 0.0
O190 O 0.623 0.05335 0.78412 0.0
C191 C 0.58571 0.0129 0.69694 0.0
O192 O 0.54765 0.00703 0.852 0.0
C193 C 0.61534 0.07085 0.76411 0.0
O194 O 0.55439 0.04146 0.86014 0.0
O195 O 0.59575 0.07408 0.77568 0.0
C196 C 0.73814 0.86059 0.69211 0.0
O197 O 0.75388 0.85432 0.65781 0.0
Cd198 Cd 0.75185 0.83337 0.56152 0.0
O199 O 0.71915 0.85681 0.67275 0.0
Cd200 Cd 0.70264 0.841 0.56921 0.0
C201 C 0.71754 0.79271 0.61231 0.0
O202 O 0.72901 0.85274 0.4918 0.0
O203 O 0.71289 0.82414 0.46241 0.0
O204 O 0.68257 0.87194 0.54086 0.0
C205 C 0.72498 0.8394 0.44645 0.0
O206 O 0.7357 0.79973 0.59478 0.0
C207 C 0.66574 0.86239 0.52354 0.0
O208 O 0.70134 0.8048 0.61223 0.0
O209 O 0.66466 0.84267 0.53658 0.0
C210 C 0.88274 0.99462 0.42718 0.0
O211 O 0.88767 0.00981 0.38825 0.0
Cd212 Cd 0.90623 0.00609 0.28672 0.0
O213 O 0.88644 0.97537 0.41047 0.0
Cd214 Cd 0.9008 0.95631 0.30949 0.0
C215 C 0.94854 0.97501 0.34374 0.0
O216 O 0.88667 0.98039 0.22739 0.0
O217 O 0.91479 0.96354 0.19761 0.0
O218 O 0.87227 0.93071 0.30976 0.0
C219 C 0.89947 0.97544 0.18114 0.0
O220 O 0.94116 0.99225 0.31951 0.0
C221 C 0.8831 0.91566 0.28477 0.0
O222 O 0.93671 0.9588 0.35126 0.0
O223 O 0.9029 0.91871 0.2786 0.0
C224 C 0.73459 0.63671 0.67959 0.0
O225 O 0.75009 0.64072 0.6409 0.0
Cd226 Cd 0.74607 0.66077 0.54269 0.0
O227 O 0.71561 0.6414 0.66233 0.0
Cd228 Cd 0.69621 0.65512 0.56136 0.0
C229 C 0.71381 0.70235 0.60275 0.0
O230 O 0.72072 0.64201 0.48036 0.0
O231 O 0.7037 0.66997 0.44961 0.0
O232 O 0.67563 0.6232 0.56228 0.0
C233 C 0.71588 0.65477 0.43394 0.0
O234 O 0.73122 0.69443 0.58176 0.0
C235 C 0.65907 0.63101 0.53582 0.0
O236 O 0.69687 0.69129 0.6044 0.0
O237 O 0.65854 0.65107 0.52926 0.0
C238 C 0.60934 0.48902 0.92597 0.0
O239 O 0.60246 0.50489 0.89339 0.0
Cd240 Cd 0.57773 0.50231 0.80634 0.0
O241 O 0.60439 0.47014 0.90834 0.0
Cd242 Cd 0.58566 0.45296 0.81123 0.0
C243 C 0.53929 0.46764 0.87209 0.0
O244 O 0.59415 0.47929 0.7302 0.0
O245 O 0.56553 0.46168 0.70884 0.0
O246 O 0.6171 0.43502 0.77629 0.0
C247 C 0.58005 0.47403 0.68845 0.0
O248 O 0.54587 0.48583 0.85307 0.0
C249 C 0.60856 0.41738 0.76225 0.0
O250 O 0.55101 0.45127 0.86613 0.0
O251 O 0.58928 0.4149 0.77956 0.0
C252 C 0.7563 0.35719 0.20158 0.0
O253 O 0.73992 0.35207 0.16842 0.0
Cd254 Cd 0.73949 0.33201 0.06975 0.0
O255 O 0.77487 0.35301 0.17929 0.0
Cd256 Cd 0.78923 0.33826 0.07162 0.0
C257 C 0.77319 0.29007 0.11264 0.0
O258 O 0.76214 0.35057 -0.00256 0.0
O259 O 0.7777 0.32179 0.96632 0.0
O260 O 0.8088 0.36916 0.04115 0.0
C261 C 0.76555 0.33713 0.95179 0.0
O262 O 0.75503 0.29762 0.09756 0.0
C263 C 0.82551 0.35972 0.02211 0.0
O264 O 0.78966 0.30181 0.1121 0.0
O265 O 0.82691 0.34001 0.03508 0.0
C266 C 0.8826 0.50689 0.4453 0.0
O267 O 0.8877 0.4907 0.41118 0.0
Cd268 Cd 0.90863 0.49187 0.31444 0.0
O269 O 0.88696 0.52557 0.42422 0.0
Cd270 Cd 0.90157 0.54126 0.31761 0.0
C271 C 0.94952 0.52644 0.36294 0.0
O272 O 0.88963 0.5143 0.24263 0.0
O273 O 0.91799 0.53047 0.2107 0.0
O274 O 0.86968 0.56028 0.29434 0.0
C275 C 0.90283 0.51807 0.19647 0.0
O276 O 0.94214 0.50823 0.34774 0.0
C277 C 0.87836 0.57714 0.27299 0.0
O278 O 0.93785 0.54293 0.35987 0.0
O279 O 0.89831 0.5788 0.28097 0.0
C280 C 0.73807 0.35537 0.4773 0.0
O281 O 0.75289 0.35076 0.51786 0.0
Cd282 Cd 0.74683 0.33111 0.61616 0.0
O283 O 0.71876 0.3509 0.49127 0.0
Cd284 Cd 0.697 0.33641 0.58643 0.0
C285 C 0.71605 0.28898 0.55211 0.0
O286 O 0.71977 0.34981 0.67148 0.0
O287 O 0.70168 0.32233 0.70046 0.0
O288 O 0.67623 0.36818 0.57984 0.0
C289 C 0.71372 0.33746 0.71763 0.0
O290 O 0.73288 0.29719 0.5764 0.0
C291 C 0.6593 0.36041 0.60407 0.0
O292 O 0.69914 0.2999 0.54554 0.0
O293 O 0.65876 0.34038 0.61153 0.0
C294 C 0.88362 0.4883 0.72075 0.0
O295 O 0.88868 0.50324 0.76021 0.0
Cd296 Cd 0.90862 0.49748 0.85783 0.0
O297 O 0.88783 0.46901 0.73566 0.0
Cd298 Cd 0.90255 0.44827 0.83256 0.0
C299 C 0.95011 0.46592 0.79507 0.0
O300 O 0.88941 0.47151 0.91723 0.0
O301 O 0.9175 0.45424 0.94489 0.0
O302 O 0.87138 0.42649 0.8298 0.0
C303 C 0.90221 0.46599 0.96271 0.0
O304 O 0.94255 0.48308 0.81913 0.0
C305 C 0.87988 0.40997 0.85437 0.0
O306 O 0.93857 0.44943 0.78921 0.0
O307 O 0.89994 0.41019 0.86065 0.0
C308 C 0.75294 0.63847 0.95629 0.0
O309 O 0.73732 0.64346 -0.00679 0.0
Cd310 Cd 0.74074 0.66307 0.09224 0.0
O311 O 0.77196 0.64242 0.97484 0.0
Cd312 Cd 0.79035 0.65611 0.07762 0.0
C313 C 0.77439 0.70423 0.03842 0.0
O314 O 0.76486 0.64311 0.15599 0.0
O315 O 0.78207 0.67061 0.1893 0.0
O316 O 0.81053 0.62402 0.08145 0.0
C317 C 0.76958 0.6555 0.20338 0.0
O318 O 0.75658 0.69681 0.05796 0.0
C319 C 0.82714 0.63191 0.10723 0.0
O320 O 0.79084 0.69249 0.03624 0.0
O321 O 0.82795 0.65203 0.1112 0.0
C322 C 0.61096 0.50471 0.19709 0.0
O323 O 0.60396 0.48859 0.22822 0.0
Cd324 Cd 0.57904 0.49022 0.31505 0.0
O325 O 0.60624 0.52345 0.21672 0.0
Cd326 Cd 0.58778 0.53947 0.31632 0.0
C327 C 0.54137 0.52623 0.25298 0.0
O328 O 0.59555 0.51199 0.39438 0.0
O329 O 0.56711 0.52976 0.41671 0.0
O330 O 0.61894 0.5571 0.35539 0.0
C331 C 0.58126 0.51686 0.43608 0.0
O332 O 0.54746 0.50767 0.26982 0.0
C333 C 0.61026 0.57465 0.36971 0.0
O334 O 0.55343 0.54224 0.26119 0.0
O335 O 0.59114 0.57722 0.35096 0.0
C336 C 0.24609 0.36204 0.47399 0.0
O337 O 0.23103 0.35488 0.50971 0.0
Cd338 Cd 0.23701 0.33048 0.59651 0.0
O339 O 0.2654 0.35818 0.48959 0.0
Cd340 Cd 0.28561 0.34174 0.58483 0.0
C341 C 0.27341 0.2951 0.52272 0.0
O342 O 0.26002 0.34827 0.66988 0.0
O343 O 0.27999 0.32099 0.68795 0.0
O344 O 0.30196 0.37508 0.60914 0.0
C345 C 0.26684 0.33443 0.71039 0.0
O346 O 0.25509 0.30028 0.54451 0.0
C347 C 0.32005 0.36785 0.62493 0.0
O348 O 0.2891 0.30775 0.52789 0.0
O349 O 0.32332 0.34825 0.61384 0.0
C350 C 0.38119 0.51393 0.18538 0.0
O351 O 0.38672 0.49656 0.21237 0.0
Cd352 Cd 0.41116 0.49319 0.29997 0.0
O353 O 0.38709 0.53167 0.21031 0.0
Cd354 Cd 0.40583 0.54278 0.316 0.0
C355 C 0.45173 0.52791 0.2508 0.0
O356 O 0.39606 0.51347 0.3857 0.0
O357 O 0.42545 0.52881 0.41314 0.0
O358 O 0.37662 0.56137 0.36517 0.0
C359 C 0.41061 0.5161 0.42846 0.0
O360 O 0.44429 0.5094 0.26167 0.0
C361 C 0.38644 0.57836 0.37898 0.0
O362 O 0.4407 0.54438 0.2634 0.0
O363 O 0.40525 0.58018 0.35642 0.0
C364 C 0.24221 0.63628 0.95354 0.0
O365 O 0.2578 0.64169 -0.01005 0.0
Cd366 Cd 0.25497 0.66007 0.09157 0.0
O367 O 0.22314 0.63895 0.9739 0.0
Cd368 Cd 0.20575 0.65087 0.0808 0.0
C369 C 0.21933 0.7002 0.04583 0.0
O370 O 0.23242 0.63894 0.15726 0.0
O371 O 0.21465 0.66608 0.19067 0.0
O372 O 0.18666 0.61837 0.09565 0.0
C373 C 0.22775 0.65146 0.20439 0.0
O374 O 0.23764 0.69361 0.06345 0.0
C375 C 0.16956 0.6266 0.11695 0.0
O376 O 0.20358 0.68754 0.04305 0.0
O377 O 0.16803 0.64667 0.113 0.0
C378 C 0.10681 0.48472 0.71754 0.0
O379 O 0.10275 0.49997 0.75699 0.0
Cd380 Cd 0.08314 0.49547 0.85606 0.0
O381 O 0.10209 0.46564 0.73371 0.0
Cd382 Cd 0.08786 0.44568 0.83296 0.0
C383 C 0.04072 0.46457 0.79574 0.0
O384 O 0.10152 0.46916 0.91608 0.0
O385 O 0.07321 0.45245 0.94517 0.0
O386 O 0.1188 0.42356 0.83055 0.0
C387 C 0.08859 0.46422 0.96196 0.0
O388 O 0.04885 0.48164 0.81859 0.0
C389 C 0.11008 0.40712 0.85502 0.0
O390 O 0.05173 0.44768 0.7908 0.0
O391 O 0.09002 0.40758 0.86146 0.0
C392 C 0.26126 0.63934 0.67626 0.0
O393 O 0.246 0.64268 0.63608 0.0
Cd394 Cd 0.25024 0.66122 0.53483 0.0
O395 O 0.28027 0.64446 0.66036 0.0
Cd396 Cd 0.30054 0.65849 0.56115 0.0
C397 C 0.27961 0.70543 0.59133 0.0
O398 O 0.27761 0.64292 0.48006 0.0
O399 O 0.29411 0.67076 0.44574 0.0
O400 O 0.32286 0.62781 0.57132 0.0
C401 C 0.28253 0.65495 0.43177 0.0
O402 O 0.26302 0.69614 0.56942 0.0
C403 C 0.33912 0.63585 0.54356 0.0
O404 O 0.29708 0.6954 0.59776 0.0
O405 O 0.33862 0.65571 0.53228 0.0
C406 C 0.10547 0.50332 0.44108 0.0
O407 O 0.10008 0.48752 0.40564 0.0
Cd408 Cd 0.07976 0.49046 0.30807 0.0
O409 O 0.10174 0.52226 0.42112 0.0
Cd410 Cd 0.08823 0.53974 0.31599 0.0
C411 C 0.03989 0.52586 0.36005 0.0
O412 O 0.10012 0.51307 0.24026 0.0
O413 O 0.07286 0.53051 0.20596 0.0
O414 O 0.12121 0.5581 0.30491 0.0
C415 C 0.08772 0.51763 0.19275 0.0
O416 O 0.04683 0.50762 0.3432 0.0
C417 C 0.11379 0.57501 0.27962 0.0
O418 O 0.05192 0.54211 0.35819 0.0
O419 O 0.09371 0.57699 0.27944 0.0
C420 C 0.23057 0.35824 0.20265 0.0
O421 O 0.24737 0.35163 0.17458 0.0
Cd422 Cd 0.24836 0.32701 0.08717 0.0
O423 O 0.21232 0.35288 0.18036 0.0
Cd424 Cd 0.19894 0.33382 0.07821 0.0
C425 C 0.21311 0.28731 0.13991 0.0
O426 O 0.22732 0.34338 0.00539 0.0
O427 O 0.21095 0.31469 -0.02299 0.0
O428 O 0.18122 0.36461 0.03714 0.0
C429 C 0.22366 0.32949 0.96139 0.0
O430 O 0.2316 0.29439 0.12662 0.0
C431 C 0.16402 0.35571 0.02033 0.0
O432 O 0.19673 0.29876 0.13023 0.0
O433 O 0.1615 0.33648 0.03822 0.0
C434 C 0.38345 0.49825 0.91339 0.0
O435 O 0.39102 0.51267 0.87588 0.0
Cd436 Cd 0.41437 0.50446 0.78785 0.0
O437 O 0.38679 0.47866 0.90029 0.0
Cd438 Cd 0.40286 0.45632 0.80925 0.0
C439 C 0.45002 0.46917 0.86593 0.0
O440 O 0.39538 0.4804 0.72032 0.0
O441 O 0.42214 0.45978 0.70228 0.0
O442 O 0.36901 0.43947 0.79767 0.0
C443 C 0.40848 0.47259 0.67919 0.0
O444 O 0.44481 0.48707 0.84085 0.0
C445 C 0.37588 0.42142 0.78004 0.0
O446 O 0.43722 0.45353 0.86485 0.0
O447 O 0.39579 0.41847 0.78421 0.0
C448 C 0.12263 0.1036 0.92744 0.0
C449 C 0.13075 0.08433 0.90269 0.0
H450 H 0.12865 0.13146 -0.01301 0.0
C451 C 0.15133 0.07816 0.92133 0.0
H452 H 0.1067 0.10863 0.91464 0.0
C453 C 0.16343 0.09067 0.96418 0.0
C454 C 0.15554 0.11001 -0.01128 0.0
H455 H 0.15804 0.06329 0.90414 0.0
H456 H 0.17925 0.08528 -0.02305 0.0
C457 C 0.13504 0.11649 0.96958 0.0
C458 C 0.09927 0.87982 0.18252 0.0
C459 C 0.10264 0.87996 0.25254 0.0
H460 H 0.11069 0.86912 0.08645 0.0
C461 C 0.11751 0.86602 0.28066 0.0
H462 H 0.08816 0.89079 0.15966 0.0
C463 C 0.12972 0.85301 0.23891 0.0
C464 C 0.12788 0.85451 0.16847 0.0
H465 H 0.12059 0.86617 0.33433 0.0
H466 H 0.14204 0.84332 0.26143 0.0
C467 C 0.11216 0.86753 0.14058 0.0
C468 C 0.36553 0.89109 0.43928 0.0
C469 C 0.35948 0.91213 0.42585 0.0
H470 H 0.35732 0.86173 0.48798 0.0
C471 C 0.34125 0.9203 0.45717 0.0
H472 H 0.3797 0.8845 0.41662 0.0
C473 C 0.32895 0.90765 0.49936 0.0
C474 C 0.33429 0.8863 0.51047 0.0
H475 H 0.33641 0.93661 0.44923 0.0
H476 H 0.31473 0.91445 0.5211 0.0
C477 C 0.35289 0.87818 0.48078 0.0
C478 C 0.34571 0.1034 0.77046 0.0
C479 C 0.36778 0.10599 0.76564 0.0
H480 H 0.3153 0.11146 0.73124 0.0
C481 C 0.37593 0.12134 0.72081 0.0
H482 H 0.33885 0.09186 0.80464 0.0
C483 C 0.36221 0.13284 0.67857 0.0
C484 C 0.34031 0.12875 0.6799 0.0
H485 H 0.39289 0.12362 0.71576 0.0
H486 H 0.36877 0.14406 0.64282 0.0
C487 C 0.3322 0.11446 0.72769 0.0
C488 C 0.83871 0.88138 0.22421 0.0
C489 C 0.84755 0.8725 0.16584 0.0
H490 H 0.84338 0.90138 0.30951 0.0
C491 C 0.86933 0.87464 0.15355 0.0
H492 H 0.82197 0.87946 0.23531 0.0
C493 C 0.88173 0.88725 0.19651 0.0
C494 C 0.87235 0.89764 0.25198 0.0
H495 H 0.87642 0.86772 0.10901 0.0
H496 H 0.89818 0.89011 0.1835 0.0
C497 C 0.85098 0.89375 0.267 0.0
C498 C 0.86965 0.12223 0.86849 0.0
C499 C 0.88485 0.10851 0.89589 0.0
H500 H 0.8448 0.1445 0.88897 0.0
C501 C 0.88819 0.10832 0.96594 0.0
H502 H 0.8666 0.12233 0.8148 0.0
C503 C 0.87514 0.12023 0.00851 0.0
C504 C 0.85929 0.13319 -0.01876 0.0
H505 H 0.89955 0.09749 -0.01178 0.0
H506 H 0.87671 0.11849 0.06257 0.0
C507 C 0.85726 0.13486 0.91091 0.0
C508 C 0.63547 0.11918 0.66826 0.0
C509 C 0.65341 0.11062 0.63583 0.0
H510 H 0.60914 0.11329 0.73495 0.0
C511 C 0.65799 0.08899 0.64432 0.0
H512 H 0.63163 0.13585 0.66306 0.0
C513 C 0.6457 0.07645 0.68683 0.0
C514 C 0.62819 0.08503 0.72106 0.0
H515 H 0.67167 0.08182 0.62034 0.0
H516 H 0.64999 0.0599 0.69277 0.0
C517 C 0.62278 0.10638 0.71004 0.0
C518 C 0.6443 0.8995 0.39197 0.0
C519 C 0.62264 0.89432 0.38994 0.0
H520 H 0.67441 0.89399 0.43721 0.0
C521 C 0.61514 0.87761 0.43076 0.0
H522 H 0.65071 0.91223 0.36136 0.0
C523 C 0.62902 0.86684 0.47441 0.0
C524 C 0.65037 0.87311 0.479 0.0
H525 H 0.59848 0.87337 0.43067 0.0
H526 H 0.62297 0.85414 0.50583 0.0
C527 C 0.65788 0.88924 0.43643 0.0
C528 C 0.64733 0.59496 0.50304 0.0
C529 C 0.64364 0.61692 0.50201 0.0
H530 H 0.64012 0.56478 0.4609 0.0
C531 C 0.62767 0.62501 0.4595 0.0
H532 H 0.65942 0.58812 0.53518 0.0
C533 C 0.61633 0.61139 0.41666 0.0
C534 C 0.62121 0.58965 0.41486 0.0
H535 H 0.62456 0.6419 0.45731 0.0
H536 H 0.60436 0.61791 0.38346 0.0
C537 C 0.63645 0.58158 0.4596 0.0
C538 C 0.61523 0.38041 0.71784 0.0
C539 C 0.61993 0.40219 0.71871 0.0
H540 H 0.62408 0.34972 0.6799 0.0
C541 C 0.63548 0.41012 0.67465 0.0
H542 H 0.60304 0.37398 0.7505 0.0
C543 C 0.64685 0.39656 0.63299 0.0
C544 C 0.64335 0.37458 0.63517 0.0
H545 H 0.63903 0.42693 0.67259 0.0
H546 H 0.65918 0.4033 0.60146 0.0
C547 C 0.62706 0.36662 0.67681 0.0
C548 C 0.87523 0.37836 0.93092 0.0
C549 C 0.86649 0.39371 0.88728 0.0
H550 H 0.86901 0.35527 0.00878 0.0
C551 C 0.84438 0.39617 0.88503 0.0
H552 H 0.89225 0.37618 0.93395 0.0
C553 C 0.83142 0.38494 0.92904 0.0
C554 C 0.84012 0.37055 -0.02458 0.0
H555 H 0.83707 0.4077 0.85182 0.0
H556 H 0.81446 0.38775 0.92723 0.0
C557 C 0.86204 0.36662 0.97429 0.0
C558 C 0.86012 0.62622 0.1772 0.0
C559 C 0.84241 0.61802 0.1427 0.0
H560 H 0.88571 0.61963 0.24609 0.0
C561 C 0.83729 0.59648 0.15052 0.0
H562 H 0.86434 0.64282 0.17252 0.0
C563 C 0.84882 0.58368 0.19409 0.0
C564 C 0.86617 0.59183 0.22995 0.0
H565 H 0.82377 0.58958 0.12503 0.0
H566 H 0.84416 0.5672 0.19923 0.0
C567 C 0.87215 0.61309 0.21988 0.0
C568 C 0.3277 0.40035 0.69079 0.0
C569 C 0.33505 0.38119 0.66339 0.0
H570 H 0.33441 0.4274 0.751 0.0
C571 C 0.35578 0.37443 0.67857 0.0
H572 H 0.3117 0.40588 0.68131 0.0
C573 C 0.36904 0.38701 0.71897 0.0
C574 C 0.36159 0.40629 0.7457 0.0
H575 H 0.36175 0.35956 0.65894 0.0
H576 H 0.38516 0.38184 0.72828 0.0
C577 C 0.34068 0.4126 0.73176 0.0
C578 C 0.35289 0.59979 0.51977 0.0
C579 C 0.35515 0.62182 0.51222 0.0
H580 H 0.36065 0.56906 0.48242 0.0
C581 C 0.3698 0.62963 0.46455 0.0
H582 H 0.34188 0.59317 0.55615 0.0
C583 C 0.38083 0.61559 0.42219 0.0
C584 C 0.37695 0.59369 0.42624 0.0
H585 H 0.37183 0.64655 0.45734 0.0
H586 H 0.39146 0.62189 0.38419 0.0
C587 C 0.36345 0.58594 0.47684 0.0
C588 C 0.14812 0.58209 0.22324 0.0
C589 C 0.12788 0.58943 0.24142 0.0
H590 H 0.17651 0.58759 0.16797 0.0
C591 C 0.12089 0.6091 0.21621 0.0
H592 H 0.15395 0.56689 0.24079 0.0
C593 C 0.13414 0.62127 0.17426 0.0
C594 C 0.15426 0.61359 0.15549 0.0
H595 H 0.10524 0.61501 0.22875 0.0
H596 H 0.12868 0.63658 0.15652 0.0
C597 C 0.16099 0.59386 0.18035 0.0
C598 C 0.1144 0.37531 0.93093 0.0
C599 C 0.12328 0.39055 0.88712 0.0
H600 H 0.12042 0.35204 0.00832 0.0
C601 C 0.14543 0.39252 0.88375 0.0
H602 H 0.09735 0.3735 0.93483 0.0
C603 C 0.15834 0.3809 0.92683 0.0
C604 C 0.14953 0.36664 0.97351 0.0
H605 H 0.15284 0.40395 0.85038 0.0
H606 H 0.17534 0.38337 0.92427 0.0
C607 C 0.12751 0.36323 0.97348 0.0
C608 C 0.23365 0.1423 0.83151 0.0
C609 C 0.22948 0.16082 0.86782 0.0
H610 H 0.24765 0.12884 0.7438 0.0
C611 C 0.23571 0.18062 0.84236 0.0
H612 H 0.22895 0.1269 0.85088 0.0
C613 C 0.24697 0.18172 0.78189 0.0
C614 C 0.25144 0.16306 0.74617 0.0
H615 H 0.23274 0.19502 0.87054 0.0
H616 H 0.25224 0.19701 0.76333 0.0
C617 C 0.24433 0.14343 0.77063 0.0
C618 C 0.0696 0.98143 0.10278 0.0
C619 C 0.08817 0.97234 0.12895 0.0
H620 H 0.05629 0.00211 0.02848 0.0
C621 C 0.10788 0.97707 0.09998 0.0
H622 H 0.05426 0.97819 0.12525 0.0
C623 C 0.109 0.99052 0.04458 0.0
C624 C 0.09048 -0.00022 0.01884 0.0
H625 H 0.12237 0.97029 0.12001 0.0
H626 H 0.12433 0.99376 0.02197 0.0
C627 C 0.07078 0.99531 0.04837 0.0
C628 C 0.23658 0.82409 0.28415 0.0
C629 C 0.22512 0.84181 0.2616 0.0
H630 H 0.25871 0.81198 0.35608 0.0
C631 C 0.22774 0.86146 0.29339 0.0
H632 H 0.235 0.80884 0.25957 0.0
C633 C 0.2411 0.86319 0.34888 0.0
C634 C 0.25234 0.84541 0.37196 0.0
H635 H 0.21911 0.87533 0.2763 0.0
H636 H 0.24245 0.87833 0.37427 0.0
C637 C 0.25032 0.82594 0.3386 0.0
C638 C 0.42378 0.01573 0.59433 0.0
C639 C 0.40497 0.02422 0.62069 0.0
H640 H 0.43756 -0.00422 0.5187 0.0
C641 C 0.38552 0.0201 0.58939 0.0
H642 H 0.43889 0.01855 0.61876 0.0
C643 C 0.3848 0.00744 0.53237 0.0
C644 C 0.40344 -0.00171 0.50719 0.0
H645 H 0.37087 0.02644 0.60967 0.0
H646 H 0.36958 0.00435 0.50893 0.0
C647 C 0.42299 0.00255 0.53809 0.0
C648 C 0.75679 0.82023 0.29866 0.0
C649 C 0.7639 0.8396 0.27213 0.0
H650 H 0.73802 0.80501 0.37471 0.0
C651 C 0.75803 0.85873 0.30265 0.0
H652 H 0.76099 0.80533 0.275 0.0
C653 C 0.74518 0.85854 0.35938 0.0
C654 C 0.73768 0.83924 0.38525 0.0
H655 H 0.76333 0.87381 0.28246 0.0
H656 H 0.7409 0.87348 0.38264 0.0
C657 C 0.74348 0.82006 0.35471 0.0
C658 C 0.92109 0.00793 0.03848 0.0
C659 C 0.90234 0.0159 0.01015 0.0
H660 H 0.93478 0.98809 0.11423 0.0
C661 C 0.88262 0.00996 0.03688 0.0
H662 H 0.93647 0.01212 0.01791 0.0
C663 C 0.88167 -0.00357 0.09227 0.0
C664 C 0.90041 0.98829 0.12013 0.0
H665 H 0.86799 0.01589 0.01524 0.0
H666 H 0.86633 0.99229 0.11325 0.0
C667 C 0.92012 0.99398 0.09272 0.0
C668 C 0.75503 0.16938 0.85801 0.0
C669 C 0.76412 0.15068 0.88326 0.0
H670 H 0.73448 0.18312 0.78416 0.0
C671 C 0.75902 0.13108 0.85431 0.0
H672 H 0.75855 0.18464 0.88046 0.0
C673 C 0.74549 0.13026 0.7991 0.0
C674 C 0.73652 0.14895 0.77356 0.0
H675 H 0.7658 0.11649 0.87358 0.0
H676 H 0.7422 0.11506 0.77591 0.0
C677 C 0.74107 0.1685 0.80384 0.0
C678 C 0.56468 0.99525 0.60724 0.0
C679 C 0.58434 -0.00025 0.63698 0.0
H680 H 0.54855 0.97909 0.52733 0.0
C681 C 0.60299 0.991 0.6105 0.0
H682 H 0.55012 0.00172 0.62771 0.0
C683 C 0.60211 0.97841 0.55339 0.0
C684 C 0.58254 0.97401 0.52327 0.0
H685 H 0.61829 0.99428 0.63308 0.0
H686 H 0.61674 0.97232 0.53218 0.0
C687 C 0.56375 0.98214 0.55085 0.0
C688 C 0.73559 0.63611 0.34494 0.0
C689 C 0.72868 0.65527 0.373 0.0
H690 H 0.75418 0.62133 0.26815 0.0
C691 C 0.73574 0.67465 0.34634 0.0
H692 H 0.73039 0.62103 0.36545 0.0
C693 C 0.74987 0.67481 0.29238 0.0
C694 C 0.75657 0.6556 0.26392 0.0
H695 H 0.73078 0.68958 0.36826 0.0
H696 H 0.75516 0.68987 0.27201 0.0
C697 C 0.74925 0.63628 0.29004 0.0
C698 C 0.56078 0.50143 0.53177 0.0
C699 C 0.58026 0.50596 0.5006 0.0
H700 H 0.54539 0.48683 0.61653 0.0
C701 C 0.59929 0.49942 0.53042 0.0
H702 H 0.54595 0.50627 0.50888 0.0
C703 C 0.59897 0.48876 0.59139 0.0
C704 C 0.57961 0.4841 0.62262 0.0
H705 H 0.61446 0.50281 0.50701 0.0
H706 H 0.6139 0.48412 0.61416 0.0
C707 C 0.56045 0.49021 0.59245 0.0
C708 C 0.73198 0.35628 0.80912 0.0
C709 C 0.72533 0.33708 0.78079 0.0
H710 H 0.75009 0.37119 0.88665 0.0
C711 C 0.73188 0.31773 0.80887 0.0
H712 H 0.72717 0.37133 0.78749 0.0
C713 C 0.7455 0.31765 0.86403 0.0
C714 C 0.75216 0.33691 0.89221 0.0
H715 H 0.72712 0.30277 0.78676 0.0
H716 H 0.75062 0.30262 0.88499 0.0
C717 C 0.74512 0.35619 0.86516 0.0
C718 C 0.88372 0.49739 0.11072 0.0
C719 C 0.90301 0.50483 0.13651 0.0
H720 H 0.8685 0.47901 0.03438 0.0
C721 C 0.92223 0.49855 0.10707 0.0
H722 H 0.86875 0.50203 0.13319 0.0
C723 C 0.9221 0.48486 0.05207 0.0
C724 C 0.90273 0.47786 0.0254 0.0
H725 H 0.93727 0.50396 0.12705 0.0
H726 H 0.93703 0.48035 0.0291 0.0
C727 C 0.88357 0.48418 0.05487 0.0
C728 C 0.25184 0.31258 0.80332 0.0
C729 C 0.25715 0.33248 0.77645 0.0
H730 H 0.23618 0.29598 0.88376 0.0
C731 C 0.25167 0.35105 0.81074 0.0
H732 H 0.25582 0.29812 0.77675 0.0
C733 C 0.24091 0.34985 0.87142 0.0
C734 C 0.23506 0.33006 0.89774 0.0
H735 H 0.25564 0.36652 0.79039 0.0
H736 H 0.23678 0.36444 0.89711 0.0
C737 C 0.2405 0.31138 0.86362 0.0
C738 C 0.4298 0.49912 0.52418 0.0
C739 C 0.41079 0.50357 0.49023 0.0
H740 H 0.44401 0.48483 0.61137 0.0
C741 C 0.39144 0.49622 0.51618 0.0
H742 H 0.44489 0.50457 0.50447 0.0
C743 C 0.39094 0.48539 0.57695 0.0
C744 C 0.40982 0.4813 0.61161 0.0
H745 H 0.37659 0.4995 0.49072 0.0
H746 H 0.37576 0.48054 0.5976 0.0
C747 C 0.42933 0.48773 0.58449 0.0
C748 C 0.26182 0.67316 0.34292 0.0
C749 C 0.26986 0.65434 0.37065 0.0
H750 H 0.24129 0.68691 0.26893 0.0
C751 C 0.26376 0.63468 0.34426 0.0
H752 H 0.26612 0.68847 0.3636 0.0
C753 C 0.24983 0.6338 0.29015 0.0
C754 C 0.24141 0.65256 0.26333 0.0
H755 H 0.26971 0.62002 0.36573 0.0
H756 H 0.24544 0.61848 0.26973 0.0
C757 C 0.24741 0.67226 0.28988 0.0
C758 C 0.06845 0.49824 0.10294 0.0
C759 C 0.08762 0.50451 0.13257 0.0
H760 H 0.05373 0.4796 0.02596 0.0
C761 C 0.10694 0.49681 0.10758 0.0
H762 H 0.05339 0.50383 0.12237 0.0
C763 C 0.10714 0.48325 0.05259 0.0
C764 C 0.08801 0.47679 0.02328 0.0
H765 H 0.12187 0.50144 0.13028 0.0
H766 H 0.12223 0.4778 0.03288 0.0
C767 C 0.06863 0.48418 0.04888 0.0
C768 C 0.1932 0.23096 0.13577 0.0
C769 C 0.2122 0.22003 0.14882 0.0
H770 H 0.17845 0.26138 0.12326 0.0
C771 C 0.22972 0.2313 0.17369 0.0
H772 H 0.17946 0.2226 0.11661 0.0
C773 C 0.22913 0.25334 0.17782 0.0
C774 C 0.21106 0.26455 0.15663 0.0
H775 H 0.24445 0.22321 0.18518 0.0
H776 H 0.24344 0.26166 0.19249 0.0
C777 C 0.19264 0.25316 0.13957 0.0
C778 C 0.00316 0.95174 0.37214 0.0
C779 C 0.0161 0.96956 0.36061 0.0
H780 H 0.9715 0.93948 0.37622 0.0
C781 C 0.00652 0.98953 0.35238 0.0
H782 H 0.01005 0.93615 0.37901 0.0
C783 C 0.9845 0.99143 0.35071 0.0
C784 C 0.97154 0.9734 0.35726 0.0
H785 H 0.01602 0.00363 0.34427 0.0
H786 H 0.97769 0.00694 0.34141 0.0
C787 C 0.98106 0.95365 0.37048 0.0
C788 C 0.2559 0.75972 0.613 0.0
C789 C 0.27365 0.77297 0.60549 0.0
H790 H 0.24398 0.7281 0.61582 0.0
C791 C 0.29398 0.76377 0.60297 0.0
H792 H 0.24004 0.76629 0.61632 0.0
C793 C 0.29627 0.74162 0.60262 0.0
C794 C 0.27825 0.72846 0.60483 0.0
H795 H 0.30797 0.77362 0.59736 0.0
H796 H 0.31197 0.73486 0.5967 0.0
C797 C 0.25817 0.73778 0.61273 0.0
C798 C 0.48717 0.05106 0.86912 0.0
C799 C 0.4744 0.03296 0.87762 0.0
H800 H 0.51888 0.06308 0.85885 0.0
C801 C 0.48402 0.01358 0.89423 0.0
H802 H 0.48011 0.06621 0.85633 0.0
C803 C 0.50601 0.0118 0.89595 0.0
C804 C 0.51891 0.02934 0.88064 0.0
H805 H 0.47455 -0.00056 0.90217 0.0
H806 H 0.51288 -0.00369 0.90528 0.0
C807 C 0.50934 0.04925 0.87049 0.0
C808 C 0.19374 0.75446 0.03379 0.0
C809 C 0.21173 0.76766 0.03543 0.0
H810 H 0.18198 0.72253 0.03557 0.0
C811 C 0.23196 0.75843 0.03152 0.0
H812 H 0.17793 0.76114 0.03651 0.0
C813 C 0.23427 0.73647 0.03087 0.0
C814 C 0.2164 0.72319 0.03427 0.0
H815 H 0.24614 0.76815 0.03163 0.0
H816 H 0.25017 0.72994 0.0305 0.0
C817 C 0.19606 0.73236 0.03326 0.0
C818 C 0.48182 0.98319 0.24325 0.0
C819 C 0.46893 0.96608 0.26292 0.0
H820 H 0.5133 0.99524 0.23311 0.0
C821 C 0.47846 0.94634 0.27653 0.0
H822 H 0.47496 -0.00151 0.23116 0.0
C823 C 0.50064 0.94445 0.27726 0.0
C824 C 0.51342 0.96229 0.26456 0.0
H825 H 0.46891 0.93285 0.29155 0.0
H826 H 0.50769 0.92958 0.29304 0.0
C827 C 0.50381 0.98133 0.24423 0.0
C828 C 0.2595 0.23978 0.47084 0.0
C829 C 0.27755 0.22857 0.49218 0.0
H830 H 0.24423 0.26992 0.46279 0.0
C831 C 0.29596 0.23997 0.50935 0.0
H832 H 0.2452 0.23147 0.45604 0.0
C833 C 0.29542 0.26217 0.51283 0.0
C834 C 0.27646 0.27312 0.49937 0.0
H835 H 0.31015 0.23176 0.52572 0.0
H836 H 0.30918 0.27053 0.53186 0.0
C837 C 0.25893 0.26183 0.47464 0.0
C838 C 0.98885 0.04325 0.77753 0.0
C839 C 0.97605 0.02495 0.77772 0.0
H840 H 0.0205 0.05574 0.78235 0.0
C841 C 0.9858 0.00497 0.77373 0.0
H842 H 0.98177 0.05888 0.78037 0.0
C843 C 0.00781 0.00318 0.77475 0.0
C844 C 0.02066 0.02133 0.77995 0.0
H845 H 0.97641 0.99057 0.7727 0.0
H846 H 0.01472 0.98744 0.77442 0.0
C847 C 0.01102 0.04145 0.77869 0.0
C848 C 0.7571 0.73897 0.01593 0.0
C849 C 0.77584 0.72721 0.02426 0.0
H850 H 0.74272 0.76957 0.01308 0.0
C851 C 0.79536 0.73799 0.02689 0.0
H852 H 0.74182 0.73115 0.01253 0.0
C853 C 0.79587 0.76022 0.02711 0.0
C854 C 0.77687 0.77188 0.02475 0.0
H855 H 0.81008 0.72932 0.03304 0.0
H856 H 0.81097 0.76818 0.03353 0.0
C857 C 0.75761 0.76103 0.0162 0.0
C858 C 0.6989 0.23153 0.53803 0.0
C859 C 0.71877 0.22138 0.53575 0.0
H860 H 0.68233 0.26125 0.5447 0.0
C861 C 0.73714 0.23376 0.52823 0.0
H862 H 0.68446 0.22237 0.54363 0.0
C863 C 0.73593 0.25579 0.52877 0.0
C864 C 0.71631 0.26603 0.53687 0.0
H865 H 0.75266 0.22643 0.52508 0.0
H866 H 0.75056 0.2648 0.52607 0.0
C867 C 0.69768 0.25376 0.5386 0.0
C868 C 0.75662 0.25447 0.12734 0.0
C869 C 0.77507 0.26695 0.12376 0.0
H870 H 0.74331 0.22336 0.12504 0.0
C871 C 0.79496 0.25685 0.12334 0.0
H872 H 0.74104 0.26171 0.1287 0.0
C873 C 0.79626 0.23469 0.1214 0.0
C874 C 0.77768 0.22233 0.11967 0.0
H875 H 0.80948 0.26603 0.12088 0.0
H876 H 0.81175 0.22734 0.11754 0.0
C877 C 0.75791 0.23243 0.12519 0.0
C878 C 0.69478 0.73717 0.61528 0.0
C879 C 0.71349 0.72512 0.62005 0.0
H880 H 0.68131 0.76839 0.60949 0.0
C881 C 0.73274 0.73549 0.63357 0.0
H882 H 0.67971 0.72956 0.6051 0.0
C883 C 0.73365 0.75752 0.63623 0.0
C884 C 0.71534 0.76973 0.62529 0.0
H885 H 0.74737 0.72662 0.63878 0.0
H886 H 0.74896 0.76501 0.64328 0.0
C887 C 0.6957 0.75938 0.61785 0.0
C888 C 0.50532 0.44698 0.87848 0.0
C889 C 0.51675 0.46568 0.89161 0.0
H890 H 0.47462 0.43332 0.86067 0.0
C891 C 0.50565 0.48397 0.9113 0.0
H892 H 0.51348 0.43263 0.86335 0.0
C893 C 0.48358 0.48437 0.90954 0.0
C894 C 0.47216 0.46647 0.88841 0.0
H895 H 0.51404 0.49852 0.92293 0.0
H896 H 0.47552 0.4992 0.9198 0.0
C897 C 0.48308 0.44736 0.87695 0.0
C898 C 0.98373 0.54697 0.36508 0.0
C899 C 0.97242 0.52813 0.37767 0.0
H900 H 0.01437 0.56114 0.34991 0.0
C901 C 0.98366 0.50975 0.39571 0.0
H902 H 0.97545 0.56139 0.35121 0.0
C903 C 0.00573 0.50961 0.39492 0.0
C904 C 0.0171 0.52784 0.37613 0.0
H905 H 0.9754 0.49508 0.4069 0.0
H906 H 0.01386 0.49483 0.40553 0.0
C907 C 0.00598 0.54683 0.36433 0.0
C908 C 0.98468 0.484 0.7762 0.0
C909 C 0.97307 0.46502 0.78047 0.0
H910 H 0.01516 0.49866 0.7764 0.0
C911 C 0.98401 0.44558 0.77904 0.0
H912 H 0.97672 0.49923 0.77601 0.0
C913 C 0.00624 0.44524 0.77933 0.0
C914 C 0.01776 0.46435 0.78102 0.0
H915 H 0.97547 0.43069 0.78203 0.0
H916 H 0.01431 0.43011 0.78247 0.0
C917 C 0.00675 0.48366 0.77645 0.0
C918 C 0.48589 0.54832 0.24779 0.0
C919 C 0.47437 0.52984 0.23246 0.0
H920 H 0.51663 0.56178 0.26561 0.0
C921 C 0.48536 0.51183 0.2098 0.0
H922 H 0.47784 0.56249 0.26501 0.0
C923 C 0.50745 0.51142 0.21021 0.0
C924 C 0.51899 0.52904 0.23309 0.0
H925 H 0.47692 0.49747 0.19631 0.0
H926 H 0.51544 0.49677 0.19717 0.0
C927 C 0.50812 0.54793 0.24805 0.0
C928 C 0.27228 0.12655 0.25956 0.0
C929 C 0.25135 0.12386 0.23616 0.0
H930 H 0.292 0.13185 0.34546 0.0
C931 C 0.23555 0.1176 0.28176 0.0
H932 H 0.285 0.13077 0.22535 0.0
C933 C 0.2397 0.11789 0.3506 0.0
C934 C 0.2596 0.12472 0.37434 0.0
H935 H 0.21944 0.11475 0.26504 0.0
H936 H 0.22662 0.11524 0.38508 0.0
C937 C 0.27638 0.12707 0.32856 0.0
C938 C 0.11529 0.96394 0.55115 0.0
C939 C 0.11475 0.98034 0.50345 0.0
H940 H 0.11441 0.95577 0.65527 0.0
C941 C 0.11754 0.00144 0.52504 0.0
H942 H 0.11366 0.94752 0.53601 0.0
C943 C 0.11771 0.00624 0.59351 0.0
C944 C 0.1153 0.99 0.6412 0.0
H945 H 0.1177 0.01446 0.48936 0.0
H946 H 0.11791 0.02275 0.60864 0.0
C947 C 0.11568 0.96873 0.61958 0.0
C948 C 0.20817 0.86173 0.83932 0.0
C949 C 0.224 0.86422 0.8882 0.0
H950 H 0.20122 0.8582 0.73487 0.0
C951 C 0.24479 0.86925 0.86747 0.0
H952 H 0.19196 0.85815 0.85361 0.0
C953 C 0.25021 0.86901 0.7994 0.0
C954 C 0.23487 0.86397 0.75096 0.0
H955 H 0.25732 0.87173 0.90395 0.0
H956 H 0.26666 0.87129 0.78534 0.0
C957 C 0.21355 0.86168 0.77118 0.0
C958 C 0.37071 0.02165 0.03707 0.0
C959 C 0.37584 0.00559 -0.00882 0.0
H960 H 0.3672 0.03003 0.14043 0.0
C961 C 0.37637 0.98438 0.01356 0.0
H962 H 0.3696 0.03806 0.02105 0.0
C963 C 0.37515 0.97975 0.08218 0.0
C964 C 0.37328 -0.0037 0.12889 0.0
H965 H 0.37981 0.97153 -0.02095 0.0
H966 H 0.37791 0.96359 0.09867 0.0
C967 C 0.36929 0.01701 0.1055 0.0
C968 C 0.73098 0.8708 0.87618 0.0
C969 C 0.75229 0.87001 0.89747 0.0
H970 H 0.7096 0.86852 0.79299 0.0
C971 C 0.76848 0.87211 0.84951 0.0
H972 H 0.71807 0.86979 0.91211 0.0
C973 C 0.76355 0.87168 0.78118 0.0
C974 C 0.74239 0.8689 0.76007 0.0
H975 H 0.78501 0.87211 0.86438 0.0
H976 H 0.7765 0.87147 0.74529 0.0
C977 C 0.72606 0.87013 0.8078 0.0
C978 C 0.8771 0.02604 0.58641 0.0
C979 C 0.87759 0.00971 0.63437 0.0
H980 H 0.87768 0.03401 0.48207 0.0
C981 C 0.87446 0.98862 0.61317 0.0
H982 H 0.87901 0.04246 0.60122 0.0
C983 C 0.87397 0.9837 0.5448 0.0
C984 C 0.87636 -0.00018 0.4967 0.0
H985 H 0.87422 0.97565 0.64906 0.0
H986 H 0.87347 0.96717 0.52997 0.0
C987 C 0.87636 0.02113 0.51802 0.0
C988 C 0.78004 0.12839 0.30884 0.0
C989 C 0.764 0.1256 0.26081 0.0
H990 H 0.78736 0.13297 0.4126 0.0
C991 C 0.74329 0.12077 0.28273 0.0
H992 H 0.7962 0.13182 0.29364 0.0
C993 C 0.7381 0.12176 0.35087 0.0
C994 C 0.75362 0.1273 0.39817 0.0
H995 H 0.73062 0.11803 0.24693 0.0
H996 H 0.72168 0.11972 0.36573 0.0
C997 C 0.7749 0.12915 0.37711 0.0
C998 C 0.61233 0.01194 0.13008 0.0
C999 C 0.61219 0.99073 0.1525 0.0
H1000 H 0.61147 0.03274 0.04498 0.0
C1001 C 0.61691 0.9745 0.10673 0.0
H1002 H 0.60929 0.0249 0.16453 0.0
C1003 C 0.61849 0.97908 0.03829 0.0
C1004 C 0.61507 -0.00011 0.01484 0.0
H1005 H 0.61752 0.95808 0.1228 0.0
H1006 H 0.62021 0.96599 0.00343 0.0
C1007 C 0.61372 0.0165 0.06148 0.0
C1008 C 0.72741 0.62923 0.86527 0.0
C1009 C 0.74855 0.63121 0.88723 0.0
H1010 H 0.70629 0.62917 0.78121 0.0
C1011 C 0.76504 0.62966 0.84004 0.0
H1012 H 0.71433 0.62981 0.90064 0.0
C1013 C 0.76039 0.62906 0.77149 0.0
C1014 C 0.7392 0.63019 0.74933 0.0
H1015 H 0.78148 0.63068 0.85551 0.0
H1016 H 0.77346 0.6296 0.73606 0.0
C1017 C 0.72276 0.6288 0.79675 0.0
C1018 C 0.62285 0.48035 0.10631 0.0
C1019 C 0.62034 0.50125 0.13001 0.0
H1020 H 0.62143 0.45987 0.02085 0.0
C1021 C 0.62165 0.51812 0.08412 0.0
H1022 H 0.62272 0.467 0.14075 0.0
C1023 C 0.62122 0.51399 0.01523 0.0
C1024 C 0.61925 0.49298 -0.00804 0.0
H1025 H 0.62043 0.53442 0.10091 0.0
H1026 H 0.61987 0.52732 -0.01902 0.0
C1027 C 0.62215 0.47621 0.03746 0.0
C1028 C 0.76494 0.36171 0.38717 0.0
C1029 C 0.74373 0.36283 0.40928 0.0
H1030 H 0.78577 0.35931 0.30247 0.0
C1031 C 0.72776 0.36779 0.36279 0.0
H1032 H 0.7777 0.35836 0.42209 0.0
C1033 C 0.73248 0.36865 0.29435 0.0
C1034 C 0.75317 0.36426 0.2715 0.0
H1035 H 0.71137 0.36932 0.37855 0.0
H1036 H 0.71952 0.37077 0.25917 0.0
C1037 C 0.76963 0.36236 0.31855 0.0
C1038 C 0.87668 0.51505 0.63078 0.0
C1039 C 0.87614 0.49379 0.65265 0.0
H1040 H 0.87891 0.53608 0.54646 0.0
C1041 C 0.87195 0.47774 0.60576 0.0
H1042 H 0.87938 0.52788 0.66597 0.0
C1043 C 0.87139 0.48252 0.53731 0.0
C1044 C 0.87528 0.50337 0.51489 0.0
H1045 H 0.87089 0.46129 0.62126 0.0
H1046 H 0.8699 0.46955 0.50191 0.0
C1047 C 0.87632 0.51981 0.5622 0.0
C1048 C 0.21582 0.36835 0.31438 0.0
C1049 C 0.23278 0.36856 0.26873 0.0
H1050 H 0.20677 0.36687 0.41773 0.0
C1051 C 0.25318 0.37394 0.29196 0.0
H1052 H 0.19983 0.36483 0.29776 0.0
C1053 C 0.25727 0.37481 0.36079 0.0
C1054 C 0.24093 0.37053 0.40678 0.0
H1055 H 0.26648 0.37501 0.25749 0.0
H1056 H 0.27355 0.37642 0.37744 0.0
C1057 C 0.21987 0.36946 0.38329 0.0
C1058 C 0.37688 0.52526 0.00254 0.0
C1059 C 0.37429 0.50437 -0.02114 0.0
H1060 H 0.38066 0.54501 0.08908 0.0
C1061 C 0.36688 0.48872 0.02327 0.0
H1062 H 0.38199 0.53786 0.9691 0.0
C1063 C 0.36573 0.49297 0.09197 0.0
C1064 C 0.37234 0.51279 0.11688 0.0
H1065 H 0.36408 0.47265 0.00614 0.0
H1066 H 0.36217 0.47998 0.12598 0.0
C1067 C 0.37596 0.52945 0.07143 0.0
C1068 C 0.26777 0.62871 0.86105 0.0
C1069 C 0.2466 0.63042 0.88311 0.0
H1070 H 0.28911 0.63013 0.77749 0.0
C1071 C 0.23022 0.63027 0.83539 0.0
H1072 H 0.28077 0.62829 0.89669 0.0
C1073 C 0.23505 0.63116 0.76691 0.0
C1074 C 0.25631 0.63233 0.74535 0.0
H1075 H 0.21376 0.63124 0.85081 0.0
H1076 H 0.22208 0.63265 0.73144 0.0
C1077 C 0.2726 0.62977 0.79268 0.0
C1078 C 0.11557 0.47816 0.53229 0.0
C1079 C 0.11282 0.49922 0.51028 0.0
H1080 H 0.11604 0.45694 0.61626 0.0
C1081 C 0.11347 0.51569 0.55758 0.0
H1082 H 0.11571 0.46511 0.49684 0.0
C1083 C 0.11388 0.51097 0.62617 0.0
C1084 C 0.11348 0.48972 0.64818 0.0
H1085 H 0.1118 0.53209 0.54209 0.0
H1086 H 0.11258 0.52395 0.66161 0.0
C1087 C 0.11581 0.47343 0.6008 0.0
loop_
_geom_bond_atom_site_label_1
_geom_bond_atom_site_label_2
_geom_bond_distance
_geom_bond_site_symmetry_2
_ccdc_geom_bond_type
C0 O1 1.306 . S
C0 O3 1.160 . S
O1 C0 1.306 . S
O1 Cd2 2.228 . S
Cd2 O1 2.228 . S
Cd2 O6 2.273 . S
Cd2 O10 2.277 . S
O3 C0 1.160 . S
O3 Cd4 2.203 . S
Cd4 O3 2.203 . S
Cd4 O6 2.411 . S
Cd4 O7 2.333 1_554 S
Cd4 O8 2.352 . S
Cd4 O12 2.277 . S
Cd4 O13 2.356 . S
C5 O10 1.209 . S
C5 O12 1.226 . S
O6 Cd2 2.273 . S
O6 Cd4 2.411 . S
O6 C9 1.320 1_554 S
O7 Cd4 2.333 1_556 S
O7 C9 1.214 . S
O8 Cd4 2.352 . S
O8 C11 1.258 . S
C9 O6 1.320 1_556 S
C9 O7 1.214 . S
O10 Cd2 2.277 . S
O10 C5 1.209 . S
C11 O8 1.258 . S
C11 O13 1.282 . S
O12 Cd4 2.277 . S
O12 C5 1.226 . S
O13 Cd4 2.356 . S
O13 C11 1.282 . S
C14 O15 1.345 . S
C14 O17 1.160 . S
O15 C14 1.345 . S
O15 Cd16 2.211 1_565 S
Cd16 O15 2.211 1_545 S
Cd16 O20 2.273 1_545 S
Cd16 O24 2.277 1_545 S
O17 C14 1.160 . S
O17 Cd18 2.203 . S
Cd18 O17 2.203 . S
Cd18 O20 2.411 . S
Cd18 O21 2.333 . S
Cd18 O22 2.352 . S
Cd18 O26 2.277 . S
Cd18 O27 2.356 . S
C19 O24 1.209 . S
C19 O26 1.226 . S
O20 Cd16 2.273 1_565 S
O20 Cd18 2.411 . S
O20 C23 1.320 . S
O21 Cd18 2.333 . S
O21 C23 1.214 . S
O22 Cd18 2.352 . S
O22 C25 1.258 . S
C23 O20 1.320 . S
C23 O21 1.214 . S
O24 Cd16 2.277 1_565 S
O24 C19 1.209 . S
C25 O22 1.258 . S
C25 O27 1.282 . S
O26 Cd18 2.277 . S
O26 C19 1.226 . S
O27 Cd18 2.356 . S
O27 C25 1.282 . S
C28 O29 1.306 . S
C28 O31 1.160 . S
O29 C28 1.306 . S
O29 Cd30 2.228 . S
Cd30 O29 2.228 . S
Cd30 O34 2.273 . S
Cd30 O38 2.277 . S
O31 C28 1.160 . S
O31 Cd32 2.203 . S
Cd32 O31 2.203 . S
Cd32 O34 2.411 . S
Cd32 O35 2.333 . S
Cd32 O36 2.352 . S
Cd32 O40 2.277 . S
Cd32 O41 2.356 . S
C33 O38 1.209 . S
C33 O40 1.226 . S
O34 Cd30 2.273 . S
O34 Cd32 2.411 . S
O34 C37 1.320 . S
O35 Cd32 2.333 . S
O35 C37 1.214 . S
O36 Cd32 2.352 . S
O36 C39 1.258 . S
C37 O34 1.320 . S
C37 O35 1.214 . S
O38 Cd30 2.277 . S
O38 C33 1.209 . S
C39 O36 1.258 . S
C39 O41 1.282 . S
O40 Cd32 2.277 . S
O40 C33 1.226 . S
O41 Cd32 2.356 . S
O41 C39 1.282 . S
C42 O43 1.306 . S
C42 O45 1.160 . S
O43 C42 1.306 . S
O43 Cd44 2.228 1_545 S
Cd44 O43 2.228 1_565 S
Cd44 O48 2.273 1_565 S
Cd44 O52 2.277 1_565 S
O45 C42 1.160 . S
O45 Cd46 2.203 . S
Cd46 O45 2.203 . S
Cd46 O48 2.411 . S
Cd46 O49 2.333 . S
Cd46 O50 2.352 . S
Cd46 O54 2.277 . S
Cd46 O55 2.356 . S
C47 O52 1.209 . S
C47 O54 1.226 . S
O48 Cd44 2.273 1_545 S
O48 Cd46 2.411 . S
O48 C51 1.320 . S
O49 Cd46 2.333 . S
O49 C51 1.214 . S
O50 Cd46 2.352 . S
O50 C53 1.258 . S
C51 O48 1.320 . S
C51 O49 1.214 . S
O52 Cd44 2.277 1_545 S
O52 C47 1.209 . S
C53 O50 1.258 . S
C53 O55 1.282 . S
O54 Cd46 2.277 . S
O54 C47 1.226 . S
O55 Cd46 2.356 . S
O55 C53 1.282 . S
C56 O57 1.306 1_556 S
C56 O59 1.160 1_556 S
O57 C56 1.306 1_554 S
O57 Cd58 2.228 . S
Cd58 O57 2.228 . S
Cd58 O62 2.273 . S
Cd58 O66 2.277 . S
O59 C56 1.160 1_554 S
O59 Cd60 2.203 . S
Cd60 O59 2.203 . S
Cd60 O62 2.411 . S
Cd60 O63 2.333 . S
Cd60 O64 2.352 . S
Cd60 O68 2.277 . S
Cd60 O69 2.356 . S
C61 O66 1.209 . S
C61 O68 1.226 . S
O62 Cd58 2.273 . S
O62 Cd60 2.411 . S
O62 C65 1.320 . S
O63 Cd60 2.333 . S
O63 C65 1.214 . S
O64 Cd60 2.352 . S
O64 C67 1.258 . S
C65 O62 1.320 . S
C65 O63 1.214 . S
O66 Cd58 2.277 . S
O66 C61 1.209 . S
C67 O64 1.258 . S
C67 O69 1.282 . S
O68 Cd60 2.277 . S
O68 C61 1.226 . S
O69 Cd60 2.356 . S
O69 C67 1.282 . S
C70 O71 1.344 . S
C70 O73 1.160 . S
O71 C70 1.344 . S
O71 Cd72 2.212 1_565 S
Cd72 O71 2.212 1_545 S
Cd72 O76 2.273 1_545 S
Cd72 O80 2.277 1_545 S
O73 C70 1.160 . S
O73 Cd74 2.203 . S
Cd74 O73 2.203 . S
Cd74 O76 2.411 . S
Cd74 O77 2.333 . S
Cd74 O78 2.352 . S
Cd74 O82 2.277 . S
Cd74 O83 2.356 . S
C75 O80 1.209 . S
C75 O82 1.226 . S
O76 Cd72 2.273 1_565 S
O76 Cd74 2.411 . S
O76 C79 1.320 . S
O77 Cd74 2.333 . S
O77 C79 1.214 . S
O78 Cd74 2.352 . S
O78 C81 1.258 . S
C79 O76 1.320 . S
C79 O77 1.214 . S
O80 Cd72 2.277 1_565 S
O80 C75 1.209 . S
C81 O78 1.258 . S
C81 O83 1.282 . S
O82 Cd74 2.277 . S
O82 C75 1.226 . S
O83 Cd74 2.356 . S
O83 C81 1.282 . S
C84 O85 1.306 . S
C84 O87 1.160 . S
O85 C84 1.306 . S
O85 Cd86 2.228 . S
Cd86 O85 2.228 . S
Cd86 O90 2.273 . S
Cd86 O94 2.277 . S
O87 C84 1.160 . S
O87 Cd88 2.203 . S
Cd88 O87 2.203 . S
Cd88 O90 2.411 . S
Cd88 O91 2.333 . S
Cd88 O92 2.352 . S
Cd88 O96 2.277 . S
Cd88 O97 2.356 . S
C89 O94 1.209 . S
C89 O96 1.226 . S
O90 Cd86 2.273 . S
O90 Cd88 2.411 . S
O90 C93 1.320 . S
O91 Cd88 2.333 . S
O91 C93 1.214 . S
O92 Cd88 2.352 . S
O92 C95 1.258 . S
C93 O90 1.320 . S
C93 O91 1.214 . S
O94 Cd86 2.277 . S
O94 C89 1.209 . S
C95 O92 1.258 . S
C95 O97 1.282 . S
O96 Cd88 2.277 . S
O96 C89 1.226 . S
O97 Cd88 2.356 . S
O97 C95 1.282 . S
C98 O99 1.306 . S
C98 O101 1.160 . S
O99 C98 1.306 . S
O99 Cd100 2.228 1_545 S
Cd100 O99 2.228 1_565 S
Cd100 O104 2.273 1_565 S
Cd100 O108 2.277 1_565 S
O101 C98 1.160 . S
O101 Cd102 2.203 . S
Cd102 O101 2.203 . S
Cd102 O104 2.411 . S
Cd102 O105 2.333 . S
Cd102 O106 2.352 . S
Cd102 O110 2.277 . S
Cd102 O111 2.356 . S
C103 O108 1.209 . S
C103 O110 1.226 . S
O104 Cd100 2.273 1_545 S
O104 Cd102 2.411 . S
O104 C107 1.320 . S
O105 Cd102 2.333 . S
O105 C107 1.214 . S
O106 Cd102 2.352 . S
O106 C109 1.258 . S
C107 O104 1.320 . S
C107 O105 1.214 . S
O108 Cd100 2.277 1_545 S
O108 C103 1.209 . S
C109 O106 1.258 . S
C109 O111 1.282 . S
O110 Cd102 2.277 . S
O110 C103 1.226 . S
O111 Cd102 2.356 . S
O111 C109 1.282 . S
C112 O113 1.306 1_556 S
C112 O115 1.160 1_556 S
O113 C112 1.306 1_554 S
O113 Cd114 2.228 . S
Cd114 O113 2.228 . S
Cd114 O118 2.273 . S
Cd114 O122 2.277 . S
O115 C112 1.160 1_554 S
O115 Cd116 2.203 . S
Cd116 O115 2.203 . S
Cd116 O118 2.411 . S
Cd116 O119 2.333 . S
Cd116 O120 2.352 . S
Cd116 O124 2.277 . S
Cd116 O125 2.356 . S
C117 O122 1.209 . S
C117 O124 1.226 . S
O118 Cd114 2.273 . S
O118 Cd116 2.411 . S
O118 C121 1.320 . S
O119 Cd116 2.333 . S
O119 C121 1.214 . S
O120 Cd116 2.352 . S
O120 C123 1.258 . S
C121 O118 1.320 . S
C121 O119 1.214 . S
O122 Cd114 2.277 . S
O122 C117 1.209 . S
C123 O120 1.258 . S
C123 O125 1.282 . S
O124 Cd116 2.277 . S
O124 C117 1.226 . S
O125 Cd116 2.356 . S
O125 C123 1.282 . S
C126 O127 1.306 . S
C126 O129 1.160 . S
O127 C126 1.306 . S
O127 Cd128 2.228 1_545 S
Cd128 O127 2.228 1_565 S
Cd128 O132 2.273 1_565 S
Cd128 O136 2.277 1_565 S
O129 C126 1.160 . S
O129 Cd130 2.203 . S
Cd130 O129 2.203 . S
Cd130 O132 2.411 . S
Cd130 O133 2.333 . S
Cd130 O134 2.352 . S
Cd130 O138 2.277 . S
Cd130 O139 2.356 . S
C131 O136 1.209 . S
C131 O138 1.226 . S
O132 Cd128 2.273 1_545 S
O132 Cd130 2.411 . S
O132 C135 1.320 . S
O133 Cd130 2.333 . S
O133 C135 1.214 . S
O134 Cd130 2.352 . S
O134 C137 1.258 . S
C135 O132 1.320 . S
C135 O133 1.214 . S
O136 Cd128 2.277 1_545 S
O136 C131 1.209 . S
C137 O134 1.258 . S
C137 O139 1.282 . S
O138 Cd130 2.277 . S
O138 C131 1.226 . S
O139 Cd130 2.356 . S
O139 C137 1.282 . S
C140 O141 1.306 . S
C140 O143 1.160 . S
O141 C140 1.306 . S
O141 Cd142 2.228 . S
Cd142 O141 2.228 . S
Cd142 O146 2.273 . S
Cd142 O150 2.277 . S
O143 C140 1.160 . S
O143 Cd144 2.203 . S
Cd144 O143 2.203 . S
Cd144 O146 2.411 . S
Cd144 O147 2.333 . S
Cd144 O148 2.352 . S
Cd144 O152 2.277 . S
Cd144 O153 2.356 . S
C145 O150 1.209 . S
C145 O152 1.226 . S
O146 Cd142 2.273 . S
O146 Cd144 2.411 . S
O146 C149 1.320 . S
O147 Cd144 2.333 . S
O147 C149 1.214 . S
O148 Cd144 2.352 . S
O148 C151 1.258 . S
C149 O146 1.320 . S
C149 O147 1.214 . S
O150 Cd142 2.277 . S
O150 C145 1.209 . S
C151 O148 1.258 . S
C151 O153 1.282 . S
O152 Cd144 2.277 . S
O152 C145 1.226 . S
O153 Cd144 2.356 . S
O153 C151 1.282 . S
C154 O155 1.344 . S
C154 O157 1.160 . S
O155 C154 1.344 . S
O155 Cd156 2.212 1_565 S
Cd156 O155 2.212 1_545 S
Cd156 O160 2.273 1_545 S
Cd156 O164 2.277 1_545 S
O157 C154 1.160 . S
O157 Cd158 2.203 . S
Cd158 O157 2.203 . S
Cd158 O160 2.411 . S
Cd158 O161 2.333 . S
Cd158 O162 2.352 . S
Cd158 O166 2.277 . S
Cd158 O167 2.356 . S
C159 O164 1.209 . S
C159 O166 1.226 . S
O160 Cd156 2.273 1_565 S
O160 Cd158 2.411 . S
O160 C163 1.320 . S
O161 Cd158 2.333 . S
O161 C163 1.214 . S
O162 Cd158 2.352 . S
O162 C165 1.258 . S
C163 O160 1.320 . S
C163 O161 1.214 . S
O164 Cd156 2.277 1_565 S
O164 C159 1.209 . S
C165 O162 1.258 . S
C165 O167 1.282 . S
O166 Cd158 2.277 . S
O166 C159 1.226 . S
O167 Cd158 2.356 . S
O167 C165 1.282 . S
C168 O169 1.306 . S
C168 O171 1.160 . S
O169 C168 1.306 . S
O169 Cd170 2.228 . S
Cd170 O169 2.228 . S
Cd170 O174 2.273 . S
Cd170 O178 2.277 . S
O171 C168 1.160 . S
O171 Cd172 2.203 . S
Cd172 O171 2.203 . S
Cd172 O174 2.411 . S
Cd172 O175 2.333 1_554 S
Cd172 O176 2.352 . S
Cd172 O180 2.277 . S
Cd172 O181 2.356 . S
C173 O178 1.209 . S
C173 O180 1.226 . S
O174 Cd170 2.273 . S
O174 Cd172 2.411 . S
O174 C177 1.320 1_554 S
O175 Cd172 2.333 1_556 S
O175 C177 1.214 . S
O176 Cd172 2.352 . S
O176 C179 1.258 . S
C177 O174 1.320 1_556 S
C177 O175 1.214 . S
O178 Cd170 2.277 . S
O178 C173 1.209 . S
C179 O176 1.258 . S
C179 O181 1.282 . S
O180 Cd172 2.277 . S
O180 C173 1.226 . S
O181 Cd172 2.356 . S
O181 C179 1.282 . S
C182 O183 1.306 . S
C182 O185 1.160 . S
O183 C182 1.306 . S
O183 Cd184 2.228 1_545 S
Cd184 O183 2.228 1_565 S
Cd184 O188 2.273 1_565 S
Cd184 O192 2.277 1_565 S
O185 C182 1.160 . S
O185 Cd186 2.203 . S
Cd186 O185 2.203 . S
Cd186 O188 2.411 . S
Cd186 O189 2.333 . S
Cd186 O190 2.352 . S
Cd186 O194 2.277 . S
Cd186 O195 2.356 . S
C187 O192 1.209 . S
C187 O194 1.226 . S
O188 Cd184 2.273 1_545 S
O188 Cd186 2.411 . S
O188 C191 1.320 . S
O189 Cd186 2.333 . S
O189 C191 1.214 . S
O190 Cd186 2.352 . S
O190 C193 1.258 . S
C191 O188 1.320 . S
C191 O189 1.214 . S
O192 Cd184 2.277 1_545 S
O192 C187 1.209 . S
C193 O190 1.258 . S
C193 O195 1.282 . S
O194 Cd186 2.277 . S
O194 C187 1.226 . S
O195 Cd186 2.356 . S
O195 C193 1.282 . S
C196 O197 1.306 . S
C196 O199 1.160 . S
O197 C196 1.306 . S
O197 Cd198 2.228 . S
Cd198 O197 2.228 . S
Cd198 O202 2.273 . S
Cd198 O206 2.277 . S
O199 C196 1.160 . S
O199 Cd200 2.203 . S
Cd200 O199 2.203 . S
Cd200 O202 2.411 . S
Cd200 O203 2.333 . S
Cd200 O204 2.352 . S
Cd200 O208 2.277 . S
Cd200 O209 2.356 . S
C201 O206 1.209 . S
C201 O208 1.226 . S
O202 Cd198 2.273 . S
O202 Cd200 2.411 . S
O202 C205 1.320 . S
O203 Cd200 2.333 . S
O203 C205 1.214 . S
O204 Cd200 2.352 . S
O204 C207 1.258 . S
C205 O202 1.320 . S
C205 O203 1.214 . S
O206 Cd198 2.277 . S
O206 C201 1.209 . S
C207 O204 1.258 . S
C207 O209 1.282 . S
O208 Cd200 2.277 . S
O208 C201 1.226 . S
O209 Cd200 2.356 . S
O209 C207 1.282 . S
C210 O211 1.345 . S
C210 O213 1.160 . S
O211 C210 1.345 . S
O211 Cd212 2.211 1_565 S
Cd212 O211 2.211 1_545 S
Cd212 O216 2.273 1_545 S
Cd212 O220 2.277 1_545 S
O213 C210 1.160 . S
O213 Cd214 2.203 . S
Cd214 O213 2.203 . S
Cd214 O216 2.411 . S
Cd214 O217 2.333 . S
Cd214 O218 2.352 . S
Cd214 O222 2.277 . S
Cd214 O223 2.356 . S
C215 O220 1.209 . S
C215 O222 1.226 . S
O216 Cd212 2.273 1_565 S
O216 Cd214 2.411 . S
O216 C219 1.320 . S
O217 Cd214 2.333 . S
O217 C219 1.214 . S
O218 Cd214 2.352 . S
O218 C221 1.258 . S
C219 O216 1.320 . S
C219 O217 1.214 . S
O220 Cd212 2.277 1_565 S
O220 C215 1.209 . S
C221 O218 1.258 . S
C221 O223 1.282 . S
O222 Cd214 2.277 . S
O222 C215 1.226 . S
O223 Cd214 2.356 . S
O223 C221 1.282 . S
C224 O225 1.306 . S
C224 O227 1.160 . S
O225 C224 1.306 . S
O225 Cd226 2.228 . S
Cd226 O225 2.228 . S
Cd226 O230 2.273 . S
Cd226 O234 2.277 . S
O227 C224 1.160 . S
O227 Cd228 2.203 . S
Cd228 O227 2.203 . S
Cd228 O230 2.411 . S
Cd228 O231 2.333 . S
Cd228 O232 2.352 . S
Cd228 O236 2.277 . S
Cd228 O237 2.356 . S
C229 O234 1.209 . S
C229 O236 1.226 . S
O230 Cd226 2.273 . S
O230 Cd228 2.411 . S
O230 C233 1.320 . S
O231 Cd228 2.333 . S
O231 C233 1.214 . S
O232 Cd228 2.352 . S
O232 C235 1.258 . S
C233 O230 1.320 . S
C233 O231 1.214 . S
O234 Cd226 2.277 . S
O234 C229 1.209 . S
C235 O232 1.258 . S
C235 O237 1.282 . S
O236 Cd228 2.277 . S
O236 C229 1.226 . S
O237 Cd228 2.356 . S
O237 C235 1.282 . S
C238 O239 1.306 . S
C238 O241 1.160 . S
O239 C238 1.306 . S
O239 Cd240 2.228 . S
Cd240 O239 2.228 . S
Cd240 O244 2.273 . S
Cd240 O248 2.277 . S
O241 C238 1.160 . S
O241 Cd242 2.203 . S
Cd242 O241 2.203 . S
Cd242 O244 2.411 . S
Cd242 O245 2.333 . S
Cd242 O246 2.352 . S
Cd242 O250 2.277 . S
Cd242 O251 2.356 . S
C243 O248 1.209 . S
C243 O250 1.226 . S
O244 Cd240 2.273 . S
O244 Cd242 2.411 . S
O244 C247 1.320 . S
O245 Cd242 2.333 . S
O245 C247 1.214 . S
O246 Cd242 2.352 . S
O246 C249 1.258 . S
C247 O244 1.320 . S
C247 O245 1.214 . S
O248 Cd240 2.277 . S
O248 C243 1.209 . S
C249 O246 1.258 . S
C249 O251 1.282 . S
O250 Cd242 2.277 . S
O250 C243 1.226 . S
O251 Cd242 2.356 . S
O251 C249 1.282 . S
C252 O253 1.306 . S
C252 O255 1.160 . S
O253 C252 1.306 . S
O253 Cd254 2.228 . S
Cd254 O253 2.228 . S
Cd254 O258 2.273 . S
Cd254 O262 2.277 . S
O255 C252 1.160 . S
O255 Cd256 2.203 . S
Cd256 O255 2.203 . S
Cd256 O258 2.411 . S
Cd256 O259 2.333 1_554 S
Cd256 O260 2.352 . S
Cd256 O264 2.277 . S
Cd256 O265 2.356 . S
C257 O262 1.209 . S
C257 O264 1.226 . S
O258 Cd254 2.273 . S
O258 Cd256 2.411 . S
O258 C261 1.320 1_554 S
O259 Cd256 2.333 1_556 S
O259 C261 1.214 . S
O260 Cd256 2.352 . S
O260 C263 1.258 . S
C261 O258 1.320 1_556 S
C261 O259 1.214 . S
O262 Cd254 2.277 . S
O262 C257 1.209 . S
C263 O260 1.258 . S
C263 O265 1.282 . S
O264 Cd256 2.277 . S
O264 C257 1.226 . S
O265 Cd256 2.356 . S
O265 C263 1.282 . S
C266 O267 1.306 . S
C266 O269 1.160 . S
O267 C266 1.306 . S
O267 Cd268 2.228 . S
Cd268 O267 2.228 . S
Cd268 O272 2.273 . S
Cd268 O276 2.277 . S
O269 C266 1.160 . S
O269 Cd270 2.203 . S
Cd270 O269 2.203 . S
Cd270 O272 2.411 . S
Cd270 O273 2.333 . S
Cd270 O274 2.352 . S
Cd270 O278 2.277 . S
Cd270 O279 2.356 . S
C271 O276 1.209 . S
C271 O278 1.226 . S
O272 Cd268 2.273 . S
O272 Cd270 2.411 . S
O272 C275 1.320 . S
O273 Cd270 2.333 . S
O273 C275 1.214 . S
O274 Cd270 2.352 . S
O274 C277 1.258 . S
C275 O272 1.320 . S
C275 O273 1.214 . S
O276 Cd268 2.277 . S
O276 C271 1.209 . S
C277 O274 1.258 . S
C277 O279 1.282 . S
O278 Cd270 2.277 . S
O278 C271 1.226 . S
O279 Cd270 2.356 . S
O279 C277 1.282 . S
C280 O281 1.306 . S
C280 O283 1.160 . S
O281 C280 1.306 . S
O281 Cd282 2.228 . S
Cd282 O281 2.228 . S
Cd282 O286 2.273 . S
Cd282 O290 2.277 . S
O283 C280 1.160 . S
O283 Cd284 2.203 . S
Cd284 O283 2.203 . S
Cd284 O286 2.411 . S
Cd284 O287 2.333 . S
Cd284 O288 2.352 . S
Cd284 O292 2.277 . S
Cd284 O293 2.356 . S
C285 O290 1.209 . S
C285 O292 1.226 . S
O286 Cd282 2.273 . S
O286 Cd284 2.411 . S
O286 C289 1.320 . S
O287 Cd284 2.333 . S
O287 C289 1.214 . S
O288 Cd284 2.352 . S
O288 C291 1.258 . S
C289 O286 1.320 . S
C289 O287 1.214 . S
O290 Cd282 2.277 . S
O290 C285 1.209 . S
C291 O288 1.258 . S
C291 O293 1.282 . S
O292 Cd284 2.277 . S
O292 C285 1.226 . S
O293 Cd284 2.356 . S
O293 C291 1.282 . S
C294 O295 1.306 . S
C294 O297 1.160 . S
O295 C294 1.306 . S
O295 Cd296 2.228 . S
Cd296 O295 2.228 . S
Cd296 O300 2.273 . S
Cd296 O304 2.277 . S
O297 C294 1.160 . S
O297 Cd298 2.203 . S
Cd298 O297 2.203 . S
Cd298 O300 2.411 . S
Cd298 O301 2.333 . S
Cd298 O302 2.352 . S
Cd298 O306 2.277 . S
Cd298 O307 2.356 . S
C299 O304 1.209 . S
C299 O306 1.226 . S
O300 Cd296 2.273 . S
O300 Cd298 2.411 . S
O300 C303 1.320 . S
O301 Cd298 2.333 . S
O301 C303 1.214 . S
O302 Cd298 2.352 . S
O302 C305 1.258 . S
C303 O300 1.320 . S
C303 O301 1.214 . S
O304 Cd296 2.277 . S
O304 C299 1.209 . S
C305 O302 1.258 . S
C305 O307 1.282 . S
O306 Cd298 2.277 . S
O306 C299 1.226 . S
O307 Cd298 2.356 . S
O307 C305 1.282 . S
C308 O309 1.306 1_556 S
C308 O311 1.160 1_556 S
O309 C308 1.306 1_554 S
O309 Cd310 2.228 . S
Cd310 O309 2.228 . S
Cd310 O314 2.273 . S
Cd310 O318 2.277 . S
O311 C308 1.160 1_554 S
O311 Cd312 2.203 . S
Cd312 O311 2.203 . S
Cd312 O314 2.411 . S
Cd312 O315 2.333 . S
Cd312 O316 2.352 . S
Cd312 O320 2.277 . S
Cd312 O321 2.356 . S
C313 O318 1.209 . S
C313 O320 1.226 . S
O314 Cd310 2.273 . S
O314 Cd312 2.411 . S
O314 C317 1.320 . S
O315 Cd312 2.333 . S
O315 C317 1.214 . S
O316 Cd312 2.352 . S
O316 C319 1.258 . S
C317 O314 1.320 . S
C317 O315 1.214 . S
O318 Cd310 2.277 . S
O318 C313 1.209 . S
C319 O316 1.258 . S
C319 O321 1.282 . S
O320 Cd312 2.277 . S
O320 C313 1.226 . S
O321 Cd312 2.356 . S
O321 C319 1.282 . S
C322 O323 1.306 . S
C322 O325 1.160 . S
O323 C322 1.306 . S
O323 Cd324 2.228 . S
Cd324 O323 2.228 . S
Cd324 O328 2.273 . S
Cd324 O332 2.277 . S
O325 C322 1.160 . S
O325 Cd326 2.203 . S
Cd326 O325 2.203 . S
Cd326 O328 2.411 . S
Cd326 O329 2.333 . S
Cd326 O330 2.352 . S
Cd326 O334 2.277 . S
Cd326 O335 2.356 . S
C327 O332 1.209 . S
C327 O334 1.226 . S
O328 Cd324 2.273 . S
O328 Cd326 2.411 . S
O328 C331 1.320 . S
O329 Cd326 2.333 . S
O329 C331 1.214 . S
O330 Cd326 2.352 . S
O330 C333 1.258 . S
C331 O328 1.320 . S
C331 O329 1.214 . S
O332 Cd324 2.277 . S
O332 C327 1.209 . S
C333 O330 1.258 . S
C333 O335 1.282 . S
O334 Cd326 2.277 . S
O334 C327 1.226 . S
O335 Cd326 2.356 . S
O335 C333 1.282 . S
C336 O337 1.306 . S
C336 O339 1.160 . S
O337 C336 1.306 . S
O337 Cd338 2.228 . S
Cd338 O337 2.228 . S
Cd338 O342 2.273 . S
Cd338 O346 2.277 . S
O339 C336 1.160 . S
O339 Cd340 2.203 . S
Cd340 O339 2.203 . S
Cd340 O342 2.411 . S
Cd340 O343 2.333 . S
Cd340 O344 2.352 . S
Cd340 O348 2.277 . S
Cd340 O349 2.356 . S
C341 O346 1.209 . S
C341 O348 1.226 . S
O342 Cd338 2.273 . S
O342 Cd340 2.411 . S
O342 C345 1.320 . S
O343 Cd340 2.333 . S
O343 C345 1.214 . S
O344 Cd340 2.352 . S
O344 C347 1.258 . S
C345 O342 1.320 . S
C345 O343 1.214 . S
O346 Cd338 2.277 . S
O346 C341 1.209 . S
C347 O344 1.258 . S
C347 O349 1.282 . S
O348 Cd340 2.277 . S
O348 C341 1.226 . S
O349 Cd340 2.356 . S
O349 C347 1.282 . S
C350 O351 1.306 . S
C350 O353 1.160 . S
O351 C350 1.306 . S
O351 Cd352 2.228 . S
Cd352 O351 2.228 . S
Cd352 O356 2.273 . S
Cd352 O360 2.277 . S
O353 C350 1.160 . S
O353 Cd354 2.203 . S
Cd354 O353 2.203 . S
Cd354 O356 2.411 . S
Cd354 O357 2.333 . S
Cd354 O358 2.352 . S
Cd354 O362 2.277 . S
Cd354 O363 2.356 . S
C355 O360 1.209 . S
C355 O362 1.226 . S
O356 Cd352 2.273 . S
O356 Cd354 2.411 . S
O356 C359 1.320 . S
O357 Cd354 2.333 . S
O357 C359 1.214 . S
O358 Cd354 2.352 . S
O358 C361 1.258 . S
C359 O356 1.320 . S
C359 O357 1.214 . S
O360 Cd352 2.277 . S
O360 C355 1.209 . S
C361 O358 1.258 . S
C361 O363 1.282 . S
O362 Cd354 2.277 . S
O362 C355 1.226 . S
O363 Cd354 2.356 . S
O363 C361 1.282 . S
C364 O365 1.306 1_556 S
C364 O367 1.160 1_556 S
O365 C364 1.306 1_554 S
O365 Cd366 2.228 . S
Cd366 O365 2.228 . S
Cd366 O370 2.273 . S
Cd366 O374 2.277 . S
O367 C364 1.160 1_554 S
O367 Cd368 2.203 . S
Cd368 O367 2.203 . S
Cd368 O370 2.411 . S
Cd368 O371 2.333 . S
Cd368 O372 2.352 . S
Cd368 O376 2.277 . S
Cd368 O377 2.356 . S
C369 O374 1.209 . S
C369 O376 1.226 . S
O370 Cd366 2.273 . S
O370 Cd368 2.411 . S
O370 C373 1.320 . S
O371 Cd368 2.333 . S
O371 C373 1.214 . S
O372 Cd368 2.352 . S
O372 C375 1.258 . S
C373 O370 1.320 . S
C373 O371 1.214 . S
O374 Cd366 2.277 . S
O374 C369 1.209 . S
C375 O372 1.258 . S
C375 O377 1.282 . S
O376 Cd368 2.277 . S
O376 C369 1.226 . S
O377 Cd368 2.356 . S
O377 C375 1.282 . S
C378 O379 1.306 . S
C378 O381 1.160 . S
O379 C378 1.306 . S
O379 Cd380 2.228 . S
Cd380 O379 2.228 . S
Cd380 O384 2.273 . S
Cd380 O388 2.277 . S
O381 C378 1.160 . S
O381 Cd382 2.203 . S
Cd382 O381 2.203 . S
Cd382 O384 2.411 . S
Cd382 O385 2.333 . S
Cd382 O386 2.352 . S
Cd382 O390 2.277 . S
Cd382 O391 2.356 . S
C383 O388 1.209 . S
C383 O390 1.226 . S
O384 Cd380 2.273 . S
O384 Cd382 2.411 . S
O384 C387 1.320 . S
O385 Cd382 2.333 . S
O385 C387 1.214 . S
O386 Cd382 2.352 . S
O386 C389 1.258 . S
C387 O384 1.320 . S
C387 O385 1.214 . S
O388 Cd380 2.277 . S
O388 C383 1.209 . S
C389 O386 1.258 . S
C389 O391 1.282 . S
O390 Cd382 2.277 . S
O390 C383 1.226 . S
O391 Cd382 2.356 . S
O391 C389 1.282 . S
C392 O393 1.306 . S
C392 O395 1.160 . S
O393 C392 1.306 . S
O393 Cd394 2.228 . S
Cd394 O393 2.228 . S
Cd394 O398 2.273 . S
Cd394 O402 2.277 . S
O395 C392 1.160 . S
O395 Cd396 2.203 . S
Cd396 O395 2.203 . S
Cd396 O398 2.411 . S
Cd396 O399 2.333 . S
Cd396 O400 2.352 . S
Cd396 O404 2.277 . S
Cd396 O405 2.356 . S
C397 O402 1.209 . S
C397 O404 1.226 . S
O398 Cd394 2.273 . S
O398 Cd396 2.411 . S
O398 C401 1.320 . S
O399 Cd396 2.333 . S
O399 C401 1.214 . S
O400 Cd396 2.352 . S
O400 C403 1.258 . S
C401 O398 1.320 . S
C401 O399 1.214 . S
O402 Cd394 2.277 . S
O402 C397 1.209 . S
C403 O400 1.258 . S
C403 O405 1.282 . S
O404 Cd396 2.277 . S
O404 C397 1.226 . S
O405 Cd396 2.356 . S
O405 C403 1.282 . S
C406 O407 1.306 . S
C406 O409 1.160 . S
O407 C406 1.306 . S
O407 Cd408 2.228 . S
Cd408 O407 2.228 . S
Cd408 O412 2.273 . S
Cd408 O416 2.277 . S
O409 C406 1.160 . S
O409 Cd410 2.203 . S
Cd410 O409 2.203 . S
Cd410 O412 2.411 . S
Cd410 O413 2.333 . S
Cd410 O414 2.352 . S
Cd410 O418 2.277 . S
Cd410 O419 2.356 . S
C411 O416 1.209 . S
C411 O418 1.226 . S
O412 Cd408 2.273 . S
O412 Cd410 2.411 . S
O412 C415 1.320 . S
O413 Cd410 2.333 . S
O413 C415 1.214 . S
O414 Cd410 2.352 . S
O414 C417 1.258 . S
C415 O412 1.320 . S
C415 O413 1.214 . S
O416 Cd408 2.277 . S
O416 C411 1.209 . S
C417 O414 1.258 . S
C417 O419 1.282 . S
O418 Cd410 2.277 . S
O418 C411 1.226 . S
O419 Cd410 2.356 . S
O419 C417 1.282 . S
C420 O421 1.306 . S
C420 O423 1.160 . S
O421 C420 1.306 . S
O421 Cd422 2.228 . S
Cd422 O421 2.228 . S
Cd422 O426 2.273 . S
Cd422 O430 2.277 . S
O423 C420 1.160 . S
O423 Cd424 2.203 . S
Cd424 O423 2.203 . S
Cd424 O426 2.411 . S
Cd424 O427 2.333 1_554 S
Cd424 O428 2.352 . S
Cd424 O432 2.277 . S
Cd424 O433 2.356 . S
C425 O430 1.209 . S
C425 O432 1.226 . S
O426 Cd422 2.273 . S
O426 Cd424 2.411 . S
O426 C429 1.320 1_554 S
O427 Cd424 2.333 1_556 S
O427 C429 1.214 . S
O428 Cd424 2.352 . S
O428 C431 1.258 . S
C429 O426 1.320 1_556 S
C429 O427 1.214 . S
O430 Cd422 2.277 . S
O430 C425 1.209 . S
C431 O428 1.258 . S
C431 O433 1.282 . S
O432 Cd424 2.277 . S
O432 C425 1.226 . S
O433 Cd424 2.356 . S
O433 C431 1.282 . S
C434 O435 1.306 . S
C434 O437 1.160 . S
O435 C434 1.306 . S
O435 Cd436 2.228 . S
Cd436 O435 2.228 . S
Cd436 O440 2.273 . S
Cd436 O444 2.277 . S
O437 C434 1.160 . S
O437 Cd438 2.203 . S
Cd438 O437 2.203 . S
Cd438 O440 2.411 . S
Cd438 O441 2.333 . S
Cd438 O442 2.352 . S
Cd438 O446 2.277 . S
Cd438 O447 2.356 . S
C439 O444 1.209 . S
C439 O446 1.226 . S
O440 Cd436 2.273 . S
O440 Cd438 2.411 . S
O440 C443 1.320 . S
O441 Cd438 2.333 . S
O441 C443 1.214 . S
O442 Cd438 2.352 . S
O442 C445 1.258 . S
C443 O440 1.320 . S
C443 O441 1.214 . S
O444 Cd436 2.277 . S
O444 C439 1.209 . S
C445 O442 1.258 . S
C445 O447 1.282 . S
O446 Cd438 2.277 . S
O446 C439 1.226 . S
O447 Cd438 2.356 . S
O447 C445 1.282 . S
C448 C449 1.387 . S
C448 H452 0.950 . S
C448 C457 1.390 . S
C449 C448 1.387 . S
C449 C451 1.387 . S
H450 C457 0.950 . S
C451 C449 1.387 . S
C451 C453 1.390 1_556 S
C451 H455 0.950 . S
H452 C448 0.950 . S
C453 C451 1.390 1_554 S
C453 C454 1.387 . S
C453 H456 0.950 . S
C454 C453 1.387 . S
C454 C457 1.387 1_554 S
H455 C451 0.950 . S
H456 C453 0.950 . S
C457 C448 1.390 . S
C457 H450 0.950 . S
C457 C454 1.387 1_556 S
C458 C459 1.387 . S
C458 H462 0.950 . S
C458 C467 1.390 . S
C459 C458 1.387 . S
C459 C461 1.387 . S
H460 C467 0.950 . S
C461 C459 1.387 . S
C461 C463 1.390 . S
C461 H465 0.950 . S
H462 C458 0.950 . S
C463 C461 1.390 . S
C463 C464 1.387 . S
C463 H466 0.950 . S
C464 C463 1.387 . S
C464 C467 1.387 . S
H465 C461 0.950 . S
H466 C463 0.950 . S
C467 C458 1.390 . S
C467 H460 0.950 . S
C467 C464 1.387 . S
C468 C469 1.387 . S
C468 H472 0.950 . S
C468 C477 1.390 . S
C469 C468 1.387 . S
C469 C471 1.387 . S
H470 C477 0.950 . S
C471 C469 1.387 . S
C471 C473 1.390 . S
C471 H475 0.950 . S
H472 C468 0.950 . S
C473 C471 1.390 . S
C473 C474 1.387 . S
C473 H476 0.950 . S
C474 C473 1.387 . S
C474 C477 1.387 . S
H475 C471 0.950 . S
H476 C473 0.950 . S
C477 C468 1.390 . S
C477 H470 0.950 . S
C477 C474 1.387 . S
C478 C479 1.387 . S
C478 H482 0.950 . S
C478 C487 1.390 . S
C479 C478 1.387 . S
C479 C481 1.387 . S
H480 C487 0.950 . S
C481 C479 1.387 . S
C481 C483 1.390 . S
C481 H485 0.950 . S
H482 C478 0.950 . S
C483 C481 1.390 . S
C483 C484 1.387 . S
C483 H486 0.950 . S
C484 C483 1.387 . S
C484 C487 1.387 . S
H485 C481 0.950 . S
H486 C483 0.950 . S
C487 C478 1.390 . S
C487 H480 0.950 . S
C487 C484 1.387 . S
C488 C489 1.387 . S
C488 H492 0.950 . S
C488 C497 1.390 . S
C489 C488 1.387 . S
C489 C491 1.387 . S
H490 C497 0.950 . S
C491 C489 1.387 . S
C491 C493 1.390 . S
C491 H495 0.950 . S
H492 C488 0.950 . S
C493 C491 1.390 . S
C493 C494 1.387 . S
C493 H496 0.950 . S
C494 C493 1.387 . S
C494 C497 1.387 . S
H495 C491 0.950 . S
H496 C493 0.950 . S
C497 C488 1.390 . S
C497 H490 0.950 . S
C497 C494 1.387 . S
C498 C499 1.387 . S
C498 H502 0.950 . S
C498 C507 1.390 . S
C499 C498 1.387 . S
C499 C501 1.400 . S
H500 C507 0.950 . S
C501 C499 1.400 . S
C501 C503 1.382 1_556 S
C501 H505 0.945 1_556 S
H502 C498 0.950 . S
C503 C501 1.382 1_554 S
C503 C504 1.387 . S
C503 H506 0.950 . S
C504 C503 1.387 . S
C504 C507 1.387 1_554 S
H505 C501 0.945 1_554 S
H506 C503 0.950 . S
C507 C498 1.390 . S
C507 H500 0.950 . S
C507 C504 1.387 1_556 S
C508 C509 1.387 . S
C508 H512 0.950 . S
C508 C517 1.390 . S
C509 C508 1.387 . S
C509 C511 1.387 . S
H510 C517 0.950 . S
C511 C509 1.387 . S
C511 C513 1.390 . S
C511 H515 0.950 . S
H512 C508 0.950 . S
C513 C511 1.390 . S
C513 C514 1.387 . S
C513 H516 0.950 . S
C514 C513 1.387 . S
C514 C517 1.387 . S
H515 C511 0.950 . S
H516 C513 0.950 . S
C517 C508 1.390 . S
C517 H510 0.950 . S
C517 C514 1.387 . S
C518 C519 1.387 . S
C518 H522 0.950 . S
C518 C527 1.390 . S
C519 C518 1.387 . S
C519 C521 1.387 . S
H520 C527 0.950 . S
C521 C519 1.387 . S
C521 C523 1.390 . S
C521 H525 0.950 . S
H522 C518 0.950 . S
C523 C521 1.390 . S
C523 C524 1.387 . S
C523 H526 0.950 . S
C524 C523 1.387 . S
C524 C527 1.387 . S
H525 C521 0.950 . S
H526 C523 0.950 . S
C527 C518 1.390 . S
C527 H520 0.950 . S
C527 C524 1.387 . S
C528 C529 1.387 . S
C528 H532 0.950 . S
C528 C537 1.390 . S
C529 C528 1.387 . S
C529 C531 1.387 . S
H530 C537 0.950 . S
C531 C529 1.387 . S
C531 C533 1.390 . S
C531 H535 0.950 . S
H532 C528 0.950 . S
C533 C531 1.390 . S
C533 C534 1.387 . S
C533 H536 0.950 . S
C534 C533 1.387 . S
C534 C537 1.387 . S
H535 C531 0.950 . S
H536 C533 0.950 . S
C537 C528 1.390 . S
C537 H530 0.950 . S
C537 C534 1.387 . S
C538 C539 1.387 . S
C538 H542 0.950 . S
C538 C547 1.390 . S
C539 C538 1.387 . S
C539 C541 1.387 . S
H540 C547 0.950 . S
C541 C539 1.387 . S
C541 C543 1.390 . S
C541 H545 0.950 . S
H542 C538 0.950 . S
C543 C541 1.390 . S
C543 C544 1.387 . S
C543 H546 0.950 . S
C544 C543 1.387 . S
C544 C547 1.387 . S
H545 C541 0.950 . S
H546 C543 0.950 . S
C547 C538 1.390 . S
C547 H540 0.950 . S
C547 C544 1.387 . S
C548 C549 1.387 . S
C548 H552 0.950 . S
C548 C557 1.390 1_556 S
C549 C548 1.387 . S
C549 C551 1.387 . S
H550 C557 0.950 . S
C551 C549 1.387 . S
C551 C553 1.390 . S
C551 H555 0.950 . S
H552 C548 0.950 . S
C553 C551 1.390 . S
C553 C554 1.387 1_556 S
C553 H556 0.950 . S
C554 C553 1.387 1_554 S
C554 C557 1.387 . S
H555 C551 0.950 . S
H556 C553 0.950 . S
C557 C548 1.390 1_554 S
C557 H550 0.950 . S
C557 C554 1.387 . S
C558 C559 1.387 . S
C558 H562 0.950 . S
C558 C567 1.390 . S
C559 C558 1.387 . S
C559 C561 1.387 . S
H560 C567 0.950 . S
C561 C559 1.387 . S
C561 C563 1.390 . S
C561 H565 0.950 . S
H562 C558 0.950 . S
C563 C561 1.390 . S
C563 C564 1.387 . S
C563 H566 0.950 . S
C564 C563 1.387 . S
C564 C567 1.387 . S
H565 C561 0.950 . S
H566 C563 0.950 . S
C567 C558 1.390 . S
C567 H560 0.950 . S
C567 C564 1.387 . S
C568 C569 1.387 . S
C568 H572 0.950 . S
C568 C577 1.390 . S
C569 C568 1.387 . S
C569 C571 1.387 . S
H570 C577 0.950 . S
C571 C569 1.387 . S
C571 C573 1.390 . S
C571 H575 0.950 . S
H572 C568 0.950 . S
C573 C571 1.390 . S
C573 C574 1.387 . S
C573 H576 0.950 . S
C574 C573 1.387 . S
C574 C577 1.387 . S
H575 C571 0.950 . S
H576 C573 0.950 . S
C577 C568 1.390 . S
C577 H570 0.950 . S
C577 C574 1.387 . S
C578 C579 1.387 . S
C578 H582 0.950 . S
C578 C587 1.390 . S
C579 C578 1.387 . S
C579 C581 1.387 . S
H580 C587 0.950 . S
C581 C579 1.387 . S
C581 C583 1.390 . S
C581 H585 0.950 . S
H582 C578 0.950 . S
C583 C581 1.390 . S
C583 C584 1.387 . S
C583 H586 0.950 . S
C584 C583 1.387 . S
C584 C587 1.387 . S
H585 C581 0.950 . S
H586 C583 0.950 . S
C587 C578 1.390 . S
C587 H580 0.950 . S
C587 C584 1.387 . S
C588 C589 1.387 . S
C588 H592 0.950 . S
C588 C597 1.390 . S
C589 C588 1.387 . S
C589 C591 1.387 . S
H590 C597 0.950 . S
C591 C589 1.387 . S
C591 C593 1.390 . S
C591 H595 0.950 . S
H592 C588 0.950 . S
C593 C591 1.390 . S
C593 C594 1.387 . S
C593 H596 0.950 . S
C594 C593 1.387 . S
C594 C597 1.387 . S
H595 C591 0.950 . S
H596 C593 0.950 . S
C597 C588 1.390 . S
C597 H590 0.950 . S
C597 C594 1.387 . S
C598 C599 1.387 . S
C598 H602 0.950 . S
C598 C607 1.390 1_556 S
C599 C598 1.387 . S
C599 C601 1.387 . S
H600 C607 0.950 . S
C601 C599 1.387 . S
C601 C603 1.390 . S
C601 H605 0.950 . S
H602 C598 0.950 . S
C603 C601 1.390 . S
C603 C604 1.387 1_556 S
C603 H606 0.950 . S
C604 C603 1.387 1_554 S
C604 C607 1.387 . S
H605 C601 0.950 . S
H606 C603 0.950 . S
C607 C598 1.390 1_554 S
C607 H600 0.950 . S
C607 C604 1.387 . S
C608 C609 1.387 . S
C608 H612 0.950 . S
C608 C617 1.390 . S
C609 C608 1.387 . S
C609 C611 1.387 . S
H610 C617 0.950 . S
C611 C609 1.387 . S
C611 C613 1.390 . S
C611 H615 0.950 . S
H612 C608 0.950 . S
C613 C611 1.390 . S
C613 C614 1.387 . S
C613 H616 0.950 . S
C614 C613 1.387 . S
C614 C617 1.387 . S
H615 C611 0.950 . S
H616 C613 0.950 . S
C617 C608 1.390 . S
C617 H610 0.950 . S
C617 C614 1.387 . S
C618 C619 1.387 . S
C618 H622 0.950 . S
C618 C627 1.390 1_565 S
C619 C618 1.387 . S
C619 C621 1.387 . S
H620 C627 0.950 . S
C621 C619 1.387 . S
C621 C623 1.390 1_565 S
C621 H625 0.950 . S
H622 C618 0.950 . S
C623 C621 1.390 1_545 S
C623 C624 1.387 . S
C623 H626 0.950 . S
C624 C623 1.387 . S
C624 C627 1.387 . S
H625 C621 0.950 . S
H626 C623 0.950 . S
C627 C618 1.390 1_545 S
C627 H620 0.950 . S
C627 C624 1.387 . S
C628 C629 1.387 . S
C628 H632 0.950 . S
C628 C637 1.390 . S
C629 C628 1.387 . S
C629 C631 1.387 . S
H630 C637 0.950 . S
C631 C629 1.387 . S
C631 C633 1.390 . S
C631 H635 0.950 . S
H632 C628 0.950 . S
C633 C631 1.390 . S
C633 C634 1.387 . S
C633 H636 0.950 . S
C634 C633 1.387 . S
C634 C637 1.387 . S
H635 C631 0.950 . S
H636 C633 0.950 . S
C637 C628 1.390 . S
C637 H630 0.950 . S
C637 C634 1.387 . S
C638 C639 1.387 . S
C638 H642 0.950 . S
C638 C647 1.390 1_545 S
C639 C638 1.387 . S
C639 C641 1.387 . S
H640 C647 0.950 . S
C641 C639 1.387 . S
C641 C643 1.390 1_545 S
C641 H645 0.950 . S
H642 C638 0.950 . S
C643 C641 1.390 1_565 S
C643 C644 1.387 . S
C643 H646 0.950 . S
C644 C643 1.387 . S
C644 C647 1.387 . S
H645 C641 0.950 . S
H646 C643 0.950 . S
C647 C638 1.390 1_565 S
C647 H640 0.950 . S
C647 C644 1.387 . S
C648 C649 1.387 . S
C648 H652 0.950 . S
C648 C657 1.390 . S
C649 C648 1.387 . S
C649 C651 1.387 . S
H650 C657 0.950 . S
C651 C649 1.387 . S
C651 C653 1.390 . S
C651 H655 0.950 . S
H652 C648 0.950 . S
C653 C651 1.390 . S
C653 C654 1.387 . S
C653 H656 0.950 . S
C654 C653 1.387 . S
C654 C657 1.387 . S
H655 C651 0.950 . S
H656 C653 0.950 . S
C657 C648 1.390 . S
C657 H650 0.950 . S
C657 C654 1.387 . S
C658 C659 1.387 . S
C658 H662 0.950 . S
C658 C667 1.390 1_545 S
C659 C658 1.387 . S
C659 C661 1.387 . S
H660 C667 0.950 . S
C661 C659 1.387 . S
C661 C663 1.390 1_545 S
C661 H665 0.950 . S
H662 C658 0.950 . S
C663 C661 1.390 1_565 S
C663 C664 1.387 . S
C663 H666 0.950 . S
C664 C663 1.387 . S
C664 C667 1.387 . S
H665 C661 0.950 . S
H666 C663 0.950 . S
C667 C658 1.390 1_565 S
C667 H660 0.950 . S
C667 C664 1.387 . S
C668 C669 1.387 . S
C668 H672 0.950 . S
C668 C677 1.390 . S
C669 C668 1.387 . S
C669 C671 1.387 . S
H670 C677 0.950 . S
C671 C669 1.387 . S
C671 C673 1.390 . S
C671 H675 0.950 . S
H672 C668 0.950 . S
C673 C671 1.390 . S
C673 C674 1.387 . S
C673 H676 0.950 . S
C674 C673 1.387 . S
C674 C677 1.387 . S
H675 C671 0.950 . S
H676 C673 0.950 . S
C677 C668 1.390 . S
C677 H670 0.950 . S
C677 C674 1.387 . S
C678 C679 1.387 . S
C678 H682 0.950 . S
C678 C687 1.390 1_545 S
C679 C678 1.387 . S
C679 C681 1.387 . S
H680 C687 0.950 . S
C681 C679 1.387 . S
C681 C683 1.390 1_545 S
C681 H685 0.950 . S
H682 C678 0.950 . S
C683 C681 1.390 1_565 S
C683 C684 1.387 . S
C683 H686 0.950 . S
C684 C683 1.387 . S
C684 C687 1.387 . S
H685 C681 0.950 . S
H686 C683 0.950 . S
C687 C678 1.390 1_565 S
C687 H680 0.950 . S
C687 C684 1.387 . S
C688 C689 1.387 . S
C688 H692 0.950 . S
C688 C697 1.390 . S
C689 C688 1.387 . S
C689 C691 1.387 . S
H690 C697 0.950 . S
C691 C689 1.387 . S
C691 C693 1.390 . S
C691 H695 0.950 . S
H692 C688 0.950 . S
C693 C691 1.390 . S
C693 C694 1.387 . S
C693 H696 0.950 . S
C694 C693 1.387 . S
C694 C697 1.387 . S
H695 C691 0.950 . S
H696 C693 0.950 . S
C697 C688 1.390 . S
C697 H690 0.950 . S
C697 C694 1.387 . S
C698 C699 1.387 . S
C698 H702 0.950 . S
C698 C707 1.390 . S
C699 C698 1.387 . S
C699 C701 1.387 . S
H700 C707 0.950 . S
C701 C699 1.387 . S
C701 C703 1.390 . S
C701 H705 0.950 . S
H702 C698 0.950 . S
C703 C701 1.390 . S
C703 C704 1.387 . S
C703 H706 0.950 . S
C704 C703 1.387 . S
C704 C707 1.387 . S
H705 C701 0.950 . S
H706 C703 0.950 . S
C707 C698 1.390 . S
C707 H700 0.950 . S
C707 C704 1.387 . S
C708 C709 1.387 . S
C708 H712 0.950 . S
C708 C717 1.390 . S
C709 C708 1.387 . S
C709 C711 1.387 . S
H710 C717 0.950 . S
C711 C709 1.387 . S
C711 C713 1.390 . S
C711 H715 0.950 . S
H712 C708 0.950 . S
C713 C711 1.390 . S
C713 C714 1.387 . S
C713 H716 0.950 . S
C714 C713 1.387 . S
C714 C717 1.387 . S
H715 C711 0.950 . S
H716 C713 0.950 . S
C717 C708 1.390 . S
C717 H710 0.950 . S
C717 C714 1.387 . S
C718 C719 1.387 . S
C718 H722 0.950 . S
C718 C727 1.390 . S
C719 C718 1.387 . S
C719 C721 1.387 . S
H720 C727 0.950 . S
C721 C719 1.387 . S
C721 C723 1.390 . S
C721 H725 0.950 . S
H722 C718 0.950 . S
C723 C721 1.390 . S
C723 C724 1.387 . S
C723 H726 0.950 . S
C724 C723 1.387 . S
C724 C727 1.387 . S
H725 C721 0.950 . S
H726 C723 0.950 . S
C727 C718 1.390 . S
C727 H720 0.950 . S
C727 C724 1.387 . S
C728 C729 1.387 . S
C728 H732 0.950 . S
C728 C737 1.390 . S
C729 C728 1.387 . S
C729 C731 1.387 . S
H730 C737 0.950 . S
C731 C729 1.387 . S
C731 C733 1.390 . S
C731 H735 0.950 . S
H732 C728 0.950 . S
C733 C731 1.390 . S
C733 C734 1.387 . S
C733 H736 0.950 . S
C734 C733 1.387 . S
C734 C737 1.387 . S
H735 C731 0.950 . S
H736 C733 0.950 . S
C737 C728 1.390 . S
C737 H730 0.950 . S
C737 C734 1.387 . S
C738 C739 1.387 . S
C738 H742 0.950 . S
C738 C747 1.390 . S
C739 C738 1.387 . S
C739 C741 1.387 . S
H740 C747 0.950 . S
C741 C739 1.387 . S
C741 C743 1.390 . S
C741 H745 0.950 . S
H742 C738 0.950 . S
C743 C741 1.390 . S
C743 C744 1.387 . S
C743 H746 0.950 . S
C744 C743 1.387 . S
C744 C747 1.387 . S
H745 C741 0.950 . S
H746 C743 0.950 . S
C747 C738 1.390 . S
C747 H740 0.950 . S
C747 C744 1.387 . S
C748 C749 1.387 . S
C748 H752 0.950 . S
C748 C757 1.390 . S
C749 C748 1.387 . S
C749 C751 1.387 . S
H750 C757 0.950 . S
C751 C749 1.387 . S
C751 C753 1.390 . S
C751 H755 0.950 . S
H752 C748 0.950 . S
C753 C751 1.390 . S
C753 C754 1.387 . S
C753 H756 0.950 . S
C754 C753 1.387 . S
C754 C757 1.387 . S
H755 C751 0.950 . S
H756 C753 0.950 . S
C757 C748 1.390 . S
C757 H750 0.950 . S
C757 C754 1.387 . S
C758 C759 1.387 . S
C758 H762 0.950 . S
C758 C767 1.390 . S
C759 C758 1.387 . S
C759 C761 1.387 . S
H760 C767 0.950 . S
C761 C759 1.387 . S
C761 C763 1.390 . S
C761 H765 0.950 . S
H762 C758 0.950 . S
C763 C761 1.390 . S
C763 C764 1.387 . S
C763 H766 0.950 . S
C764 C763 1.387 . S
C764 C767 1.387 . S
H765 C761 0.950 . S
H766 C763 0.950 . S
C767 C758 1.390 . S
C767 H760 0.950 . S
C767 C764 1.387 . S
C768 C769 1.387 . S
C768 H772 0.950 . S
C768 C777 1.390 . S
C769 C768 1.387 . S
C769 C771 1.387 . S
H770 C777 0.950 . S
C771 C769 1.387 . S
C771 C773 1.390 . S
C771 H775 0.950 . S
H772 C768 0.950 . S
C773 C771 1.390 . S
C773 C774 1.387 . S
C773 H776 0.950 . S
C774 C773 1.387 . S
C774 C777 1.387 . S
H775 C771 0.950 . S
H776 C773 0.950 . S
C777 C768 1.390 . S
C777 H770 0.950 . S
C777 C774 1.387 . S
C778 C779 1.387 . S
C778 H782 0.950 . S
C778 C787 1.390 1_455 S
C779 C778 1.387 . S
C779 C781 1.387 . S
H780 C787 0.950 . S
C781 C779 1.387 . S
C781 C783 1.390 1_455 S
C781 H785 0.950 . S
H782 C778 0.950 . S
C783 C781 1.390 1_655 S
C783 C784 1.387 . S
C783 H786 0.950 . S
C784 C783 1.387 . S
C784 C787 1.387 . S
H785 C781 0.950 . S
H786 C783 0.950 . S
C787 C778 1.390 1_655 S
C787 H780 0.950 . S
C787 C784 1.387 . S
C788 C789 1.387 . S
C788 H792 0.950 . S
C788 C797 1.390 . S
C789 C788 1.387 . S
C789 C791 1.387 . S
H790 C797 0.950 . S
C791 C789 1.387 . S
C791 C793 1.390 . S
C791 H795 0.950 . S
H792 C788 0.950 . S
C793 C791 1.390 . S
C793 C794 1.387 . S
C793 H796 0.950 . S
C794 C793 1.387 . S
C794 C797 1.387 . S
H795 C791 0.950 . S
H796 C793 0.950 . S
C797 C788 1.390 . S
C797 H790 0.950 . S
C797 C794 1.387 . S
C798 C799 1.387 . S
C798 H802 0.950 . S
C798 C807 1.390 . S
C799 C798 1.387 . S
C799 C801 1.387 . S
H800 C807 0.950 . S
C801 C799 1.387 . S
C801 C803 1.390 . S
C801 H805 0.950 . S
H802 C798 0.950 . S
C803 C801 1.390 . S
C803 C804 1.387 . S
C803 H806 0.950 . S
C804 C803 1.387 . S
C804 C807 1.387 . S
H805 C801 0.950 . S
H806 C803 0.950 . S
C807 C798 1.390 . S
C807 H800 0.950 . S
C807 C804 1.387 . S
C808 C809 1.387 . S
C808 H812 0.950 . S
C808 C817 1.390 . S
C809 C808 1.387 . S
C809 C811 1.387 . S
H810 C817 0.950 . S
C811 C809 1.387 . S
C811 C813 1.390 . S
C811 H815 0.950 . S
H812 C808 0.950 . S
C813 C811 1.390 . S
C813 C814 1.387 . S
C813 H816 0.950 . S
C814 C813 1.387 . S
C814 C817 1.387 . S
H815 C811 0.950 . S
H816 C813 0.950 . S
C817 C808 1.390 . S
C817 H810 0.950 . S
C817 C814 1.387 . S
C818 C819 1.387 . S
C818 H822 0.950 . S
C818 C827 1.390 . S
C819 C818 1.387 . S
C819 C821 1.387 . S
H820 C827 0.950 . S
C821 C819 1.387 . S
C821 C823 1.390 . S
C821 H825 0.950 . S
H822 C818 0.950 . S
C823 C821 1.390 . S
C823 C824 1.387 . S
C823 H826 0.950 . S
C824 C823 1.387 . S
C824 C827 1.387 . S
H825 C821 0.950 . S
H826 C823 0.950 . S
C827 C818 1.390 . S
C827 H820 0.950 . S
C827 C824 1.387 . S
C828 C829 1.387 . S
C828 H832 0.950 . S
C828 C837 1.390 . S
C829 C828 1.387 . S
C829 C831 1.387 . S
H830 C837 0.950 . S
C831 C829 1.387 . S
C831 C833 1.390 . S
C831 H835 0.950 . S
H832 C828 0.950 . S
C833 C831 1.390 . S
C833 C834 1.387 . S
C833 H836 0.950 . S
C834 C833 1.387 . S
C834 C837 1.387 . S
H835 C831 0.950 . S
H836 C833 0.950 . S
C837 C828 1.390 . S
C837 H830 0.950 . S
C837 C834 1.387 . S
C838 C839 1.387 . S
C838 H842 0.950 . S
C838 C847 1.390 1_655 S
C839 C838 1.387 . S
C839 C841 1.387 . S
H840 C847 0.950 . S
C841 C839 1.387 . S
C841 C843 1.390 1_655 S
C841 H845 0.950 . S
H842 C838 0.950 . S
C843 C841 1.390 1_455 S
C843 C844 1.387 . S
C843 H846 0.950 . S
C844 C843 1.387 . S
C844 C847 1.387 . S
H845 C841 0.950 . S
H846 C843 0.950 . S
C847 C838 1.390 1_455 S
C847 H840 0.950 . S
C847 C844 1.387 . S
C848 C849 1.387 . S
C848 H852 0.950 . S
C848 C857 1.390 . S
C849 C848 1.387 . S
C849 C851 1.387 . S
H850 C857 0.950 . S
C851 C849 1.387 . S
C851 C853 1.390 . S
C851 H855 0.950 . S
H852 C848 0.950 . S
C853 C851 1.390 . S
C853 C854 1.387 . S
C853 H856 0.950 . S
C854 C853 1.387 . S
C854 C857 1.387 . S
H855 C851 0.950 . S
H856 C853 0.950 . S
C857 C848 1.390 . S
C857 H850 0.950 . S
C857 C854 1.387 . S
C858 C859 1.387 . S
C858 H862 0.950 . S
C858 C867 1.390 . S
C859 C858 1.387 . S
C859 C861 1.387 . S
H860 C867 0.950 . S
C861 C859 1.387 . S
C861 C863 1.390 . S
C861 H865 0.950 . S
H862 C858 0.950 . S
C863 C861 1.390 . S
C863 C864 1.387 . S
C863 H866 0.950 . S
C864 C863 1.387 . S
C864 C867 1.387 . S
H865 C861 0.950 . S
H866 C863 0.950 . S
C867 C858 1.390 . S
C867 H860 0.950 . S
C867 C864 1.387 . S
C868 C869 1.387 . S
C868 H872 0.950 . S
C868 C877 1.390 . S
C869 C868 1.387 . S
C869 C871 1.387 . S
H870 C877 0.950 . S
C871 C869 1.387 . S
C871 C873 1.390 . S
C871 H875 0.950 . S
H872 C868 0.950 . S
C873 C871 1.390 . S
C873 C874 1.387 . S
C873 H876 0.950 . S
C874 C873 1.387 . S
C874 C877 1.387 . S
H875 C871 0.950 . S
H876 C873 0.950 . S
C877 C868 1.390 . S
C877 H870 0.950 . S
C877 C874 1.387 . S
C878 C879 1.387 . S
C878 H882 0.950 . S
C878 C887 1.390 . S
C879 C878 1.387 . S
C879 C881 1.387 . S
H880 C887 0.950 . S
C881 C879 1.387 . S
C881 C883 1.390 . S
C881 H885 0.950 . S
H882 C878 0.950 . S
C883 C881 1.390 . S
C883 C884 1.387 . S
C883 H886 0.950 . S
C884 C883 1.387 . S
C884 C887 1.387 . S
H885 C881 0.950 . S
H886 C883 0.950 . S
C887 C878 1.390 . S
C887 H880 0.950 . S
C887 C884 1.387 . S
C888 C889 1.387 . S
C888 H892 0.950 . S
C888 C897 1.390 . S
C889 C888 1.387 . S
C889 C891 1.387 . S
H890 C897 0.950 . S
C891 C889 1.387 . S
C891 C893 1.390 . S
C891 H895 0.950 . S
H892 C888 0.950 . S
C893 C891 1.390 . S
C893 C894 1.387 . S
C893 H896 0.950 . S
C894 C893 1.387 . S
C894 C897 1.387 . S
H895 C891 0.950 . S
H896 C893 0.950 . S
C897 C888 1.390 . S
C897 H890 0.950 . S
C897 C894 1.387 . S
C898 C899 1.387 . S
C898 H902 0.950 . S
C898 C907 1.390 1_655 S
C899 C898 1.387 . S
C899 C901 1.387 . S
H900 C907 0.950 . S
C901 C899 1.387 . S
C901 C903 1.390 1_655 S
C901 H905 0.950 . S
H902 C898 0.950 . S
C903 C901 1.390 1_455 S
C903 C904 1.387 . S
C903 H906 0.950 . S
C904 C903 1.387 . S
C904 C907 1.387 . S
H905 C901 0.950 . S
H906 C903 0.950 . S
C907 C898 1.390 1_455 S
C907 H900 0.950 . S
C907 C904 1.387 . S
C908 C909 1.387 . S
C908 H912 0.950 . S
C908 C917 1.390 1_655 S
C909 C908 1.387 . S
C909 C911 1.387 . S
H910 C917 0.950 . S
C911 C909 1.387 . S
C911 C913 1.390 1_655 S
C911 H915 0.950 . S
H912 C908 0.950 . S
C913 C911 1.390 1_455 S
C913 C914 1.387 . S
C913 H916 0.950 . S
C914 C913 1.387 . S
C914 C917 1.387 . S
H915 C911 0.950 . S
H916 C913 0.950 . S
C917 C908 1.390 1_455 S
C917 H910 0.950 . S
C917 C914 1.387 . S
C918 C919 1.387 . S
C918 H922 0.950 . S
C918 C927 1.390 . S
C919 C918 1.387 . S
C919 C921 1.387 . S
H920 C927 0.950 . S
C921 C919 1.387 . S
C921 C923 1.390 . S
C921 H925 0.950 . S
H922 C918 0.950 . S
C923 C921 1.390 . S
C923 C924 1.387 . S
C923 H926 0.950 . S
C924 C923 1.387 . S
C924 C927 1.387 . S
H925 C921 0.950 . S
H926 C923 0.950 . S
C927 C918 1.390 . S
C927 H920 0.950 . S
C927 C924 1.387 . S
C928 C929 1.387 . S
C928 H932 0.950 . S
C928 C937 1.390 . S
C929 C928 1.387 . S
C929 C931 1.387 . S
H930 C937 0.950 . S
C931 C929 1.387 . S
C931 C933 1.390 . S
C931 H935 0.950 . S
H932 C928 0.950 . S
C933 C931 1.390 . S
C933 C934 1.387 . S
C933 H936 0.950 . S
C934 C933 1.387 . S
C934 C937 1.387 . S
H935 C931 0.950 . S
H936 C933 0.950 . S
C937 C928 1.390 . S
C937 H930 0.950 . S
C937 C934 1.387 . S
C938 C939 1.387 . S
C938 H942 0.950 . S
C938 C947 1.390 1_565 S
C939 C938 1.387 . S
C939 C941 1.387 . S
H940 C947 0.950 . S
C941 C939 1.387 . S
C941 C943 1.390 1_565 S
C941 H945 0.950 . S
H942 C938 0.950 . S
C943 C941 1.390 1_545 S
C943 C944 1.387 . S
C943 H946 0.950 . S
C944 C943 1.387 . S
C944 C947 1.387 . S
H945 C941 0.950 . S
H946 C943 0.950 . S
C947 C938 1.390 1_545 S
C947 H940 0.950 . S
C947 C944 1.387 . S
C948 C949 1.387 . S
C948 H952 0.950 . S
C948 C957 1.390 . S
C949 C948 1.387 . S
C949 C951 1.387 . S
H950 C957 0.950 . S
C951 C949 1.387 . S
C951 C953 1.390 . S
C951 H955 0.950 . S
H952 C948 0.950 . S
C953 C951 1.390 . S
C953 C954 1.387 . S
C953 H956 0.950 . S
C954 C953 1.387 . S
C954 C957 1.387 . S
H955 C951 0.950 . S
H956 C953 0.950 . S
C957 C948 1.390 . S
C957 H950 0.950 . S
C957 C954 1.387 . S
C958 C959 1.387 . S
C958 H962 0.950 . S
C958 C967 1.390 1_545 S
C959 C958 1.387 . S
C959 C961 1.387 . S
H960 C967 0.950 . S
C961 C959 1.387 . S
C961 C963 1.390 1_545 S
C961 H965 0.950 . S
H962 C958 0.950 . S
C963 C961 1.390 1_565 S
C963 C964 1.387 . S
C963 H966 0.950 . S
C964 C963 1.387 . S
C964 C967 1.387 . S
H965 C961 0.950 . S
H966 C963 0.950 . S
C967 C958 1.390 1_565 S
C967 H960 0.950 . S
C967 C964 1.387 . S
C968 C969 1.387 . S
C968 H972 0.950 . S
C968 C977 1.390 . S
C969 C968 1.387 . S
C969 C971 1.387 . S
H970 C977 0.950 . S
C971 C969 1.387 . S
C971 C973 1.390 . S
C971 H975 0.950 . S
H972 C968 0.950 . S
C973 C971 1.390 . S
C973 C974 1.387 . S
C973 H976 0.950 . S
C974 C973 1.387 . S
C974 C977 1.387 . S
H975 C971 0.950 . S
H976 C973 0.950 . S
C977 C968 1.390 . S
C977 H970 0.950 . S
C977 C974 1.387 . S
C978 C979 1.387 . S
C978 H982 0.950 . S
C978 C987 1.390 1_545 S
C979 C978 1.387 . S
C979 C981 1.387 . S
H980 C987 0.950 . S
C981 C979 1.387 . S
C981 C983 1.390 1_545 S
C981 H985 0.950 . S
H982 C978 0.950 . S
C983 C981 1.390 1_565 S
C983 C984 1.387 . S
C983 H986 0.950 . S
C984 C983 1.387 . S
C984 C987 1.387 . S
H985 C981 0.950 . S
H986 C983 0.950 . S
C987 C978 1.390 1_565 S
C987 H980 0.950 . S
C987 C984 1.387 . S
C988 C989 1.387 . S
C988 H992 0.950 . S
C988 C997 1.390 . S
C989 C988 1.387 . S
C989 C991 1.387 . S
H990 C997 0.950 . S
C991 C989 1.387 . S
C991 C993 1.390 . S
C991 H995 0.950 . S
H992 C988 0.950 . S
C993 C991 1.390 . S
C993 C994 1.387 . S
C993 H996 0.950 . S
C994 C993 1.387 . S
C994 C997 1.387 . S
H995 C991 0.950 . S
H996 C993 0.950 . S
C997 C988 1.390 . S
C997 H990 0.950 . S
C997 C994 1.387 . S
C998 C999 1.387 . S
C998 H1002 0.950 . S
C998 C1007 1.390 1_565 S
C999 C998 1.387 . S
C999 C1001 1.387 . S
H1000 C1007 0.950 . S
C1001 C999 1.387 . S
C1001 C1003 1.390 1_565 S
C1001 H1005 0.950 . S
H1002 C998 0.950 . S
C1003 C1001 1.390 1_545 S
C1003 C1004 1.387 . S
C1003 H1006 0.950 . S
C1004 C1003 1.387 . S
C1004 C1007 1.387 . S
H1005 C1001 0.950 . S
H1006 C1003 0.950 . S
C1007 C998 1.390 1_545 S
C1007 H1000 0.950 . S
C1007 C1004 1.387 . S
C1008 C1009 1.387 . S
C1008 H1012 0.950 . S
C1008 C1017 1.390 . S
C1009 C1008 1.387 . S
C1009 C1011 1.387 . S
H1010 C1017 0.950 . S
C1011 C1009 1.387 . S
C1011 C1013 1.390 . S
C1011 H1015 0.950 . S
H1012 C1008 0.950 . S
C1013 C1011 1.390 . S
C1013 C1014 1.387 . S
C1013 H1016 0.950 . S
C1014 C1013 1.387 . S
C1014 C1017 1.387 . S
H1015 C1011 0.950 . S
H1016 C1013 0.950 . S
C1017 C1008 1.390 . S
C1017 H1010 0.950 . S
C1017 C1014 1.387 . S
C1018 C1019 1.387 . S
C1018 H1022 0.950 . S
C1018 C1027 1.390 . S
C1019 C1018 1.387 . S
C1019 C1021 1.387 . S
H1020 C1027 0.950 . S
C1021 C1019 1.387 . S
C1021 C1023 1.390 . S
C1021 H1025 0.950 . S
H1022 C1018 0.950 . S
C1023 C1021 1.390 . S
C1023 C1024 1.387 . S
C1023 H1026 0.950 . S
C1024 C1023 1.387 . S
C1024 C1027 1.387 . S
H1025 C1021 0.950 . S
H1026 C1023 0.950 . S
C1027 C1018 1.390 . S
C1027 H1020 0.950 . S
C1027 C1024 1.387 . S
C1028 C1029 1.387 . S
C1028 H1032 0.950 . S
C1028 C1037 1.390 . S
C1029 C1028 1.387 . S
C1029 C1031 1.387 . S
H1030 C1037 0.950 . S
C1031 C1029 1.387 . S
C1031 C1033 1.390 . S
C1031 H1035 0.950 . S
H1032 C1028 0.950 . S
C1033 C1031 1.390 . S
C1033 C1034 1.387 . S
C1033 H1036 0.950 . S
C1034 C1033 1.387 . S
C1034 C1037 1.387 . S
H1035 C1031 0.950 . S
H1036 C1033 0.950 . S
C1037 C1028 1.390 . S
C1037 H1030 0.950 . S
C1037 C1034 1.387 . S
C1038 C1039 1.387 . S
C1038 H1042 0.950 . S
C1038 C1047 1.390 . S
C1039 C1038 1.387 . S
C1039 C1041 1.387 . S
H1040 C1047 0.950 . S
C1041 C1039 1.387 . S
C1041 C1043 1.390 . S
C1041 H1045 0.950 . S
H1042 C1038 0.950 . S
C1043 C1041 1.390 . S
C1043 C1044 1.387 . S
C1043 H1046 0.950 . S
C1044 C1043 1.387 . S
C1044 C1047 1.387 . S
H1045 C1041 0.950 . S
H1046 C1043 0.950 . S
C1047 C1038 1.390 . S
C1047 H1040 0.950 . S
C1047 C1044 1.387 . S
C1048 C1049 1.387 . S
C1048 H1052 0.950 . S
C1048 C1057 1.390 . S
C1049 C1048 1.387 . S
C1049 C1051 1.387 . S
H1050 C1057 0.950 . S
C1051 C1049 1.387 . S
C1051 C1053 1.390 . S
C1051 H1055 0.950 . S
H1052 C1048 0.950 . S
C1053 C1051 1.390 . S
C1053 C1054 1.387 . S
C1053 H1056 0.950 . S
C1054 C1053 1.387 . S
C1054 C1057 1.387 . S
H1055 C1051 0.950 . S
H1056 C1053 0.950 . S
C1057 C1048 1.390 . S
C1057 H1050 0.950 . S
C1057 C1054 1.387 . S
C1058 C1059 1.387 . S
C1058 H1062 0.950 . S
C1058 C1067 1.390 . S
C1059 C1058 1.387 . S
C1059 C1061 1.387 . S
H1060 C1067 0.950 . S
C1061 C1059 1.387 . S
C1061 C1063 1.390 . S
C1061 H1065 0.950 . S
H1062 C1058 0.950 . S
C1063 C1061 1.390 . S
C1063 C1064 1.387 . S
C1063 H1066 0.950 . S
C1064 C1063 1.387 . S
C1064 C1067 1.387 . S
H1065 C1061 0.950 . S
H1066 C1063 0.950 . S
C1067 C1058 1.390 . S
C1067 H1060 0.950 . S
C1067 C1064 1.387 . S
C1068 C1069 1.387 . S
C1068 H1072 0.950 . S
C1068 C1077 1.390 . S
C1069 C1068 1.387 . S
C1069 C1071 1.387 . S
H1070 C1077 0.950 . S
C1071 C1069 1.387 . S
C1071 C1073 1.390 . S
C1071 H1075 0.950 . S
H1072 C1068 0.950 . S
C1073 C1071 1.390 . S
C1073 C1074 1.387 . S
C1073 H1076 0.950 . S
C1074 C1073 1.387 . S
C1074 C1077 1.387 . S
H1075 C1071 0.950 . S
H1076 C1073 0.950 . S
C1077 C1068 1.390 . S
C1077 H1070 0.950 . S
C1077 C1074 1.387 . S
C1078 C1079 1.387 . S
C1078 H1082 0.950 . S
C1078 C1087 1.390 . S
C1079 C1078 1.387 . S
C1079 C1081 1.387 . S
H1080 C1087 0.950 . S
C1081 C1079 1.387 . S
C1081 C1083 1.390 . S
C1081 H1085 0.950 . S
H1082 C1078 0.950 . S
C1083 C1081 1.390 . S
C1083 C1084 1.387 . S
C1083 H1086 0.950 . S
C1084 C1083 1.387 . S
C1084 C1087 1.387 . S
H1085 C1081 0.950 . S
H1086 C1083 0.950 . S
C1087 C1078 1.390 . S
C1087 H1080 0.950 . S
C1087 C1084 1.387 . S
C449 C109 1.568 . S
C454 C11 1.568 . S
C459 C25 1.566 . S
C464 C67 1.567 . S
C469 C81 1.568 . S
C474 C39 1.568 . S
C479 C53 1.567 . S
C484 C95 1.566 . S
C489 C123 1.567 . S
C494 C221 1.566 . S
C499 C137 1.566 . S
C504 C179 1.567 . S
C509 C151 1.565 . S
C514 C193 1.565 . S
C519 C165 1.568 . S
C524 C207 1.568 . S
C529 C235 1.565 . S
C534 C333 1.565 . S
C539 C249 1.568 . S
C544 C291 1.568 . S
C549 C305 1.568 . S
C554 C263 1.568 . S
C559 C319 1.567 . S
C564 C277 1.568 . S
C569 C347 1.568 . S
C574 C445 1.568 . S
C579 C403 1.568 . S
C584 C361 1.568 . S
C589 C417 1.568 . S
C594 C375 1.568 . S
C599 C389 1.565 . S
C604 C431 1.565 . S
C609 C9 0.853 . S
C614 C93 0.853 . S
C619 C23 0.850 . S
C624 C107 0.850 1_554 S
C629 C65 0.850 . S
C634 C37 0.850 . S
C639 C51 0.850 . S
C644 C79 0.850 . S
C649 C121 0.853 . S
C654 C205 0.853 . S
C659 C135 0.853 1_554 S
C664 C219 0.853 . S
C669 C177 0.853 . S
C674 C149 0.853 . S
C679 C191 0.853 . S
C684 C163 0.853 . S
C689 C233 0.853 . S
C694 C317 0.853 . S
C699 C331 0.850 . S
C704 C247 0.850 . S
C709 C289 0.853 . S
C714 C261 0.853 . S
C719 C275 0.853 . S
C724 C303 0.853 1_554 S
C729 C345 0.853 . S
C734 C429 0.853 . S
C739 C359 0.853 . S
C744 C443 0.853 . S
C749 C401 0.853 . S
C754 C373 0.853 . S
C759 C415 0.853 . S
C764 C387 0.853 1_554 S
C769 C5 1.517 . S
C774 C425 1.517 . S
C779 C19 1.517 . S
C784 C215 1.516 . S
C789 C33 1.517 . S
C794 C397 1.516 . S
C799 C47 1.516 . S
C804 C187 1.516 . S
C809 C61 1.516 . S
C814 C369 1.517 . S
C819 C75 1.516 . S
C824 C159 1.517 . S
C829 C89 1.516 . S
C834 C341 1.516 . S
C839 C131 1.517 . S
C844 C103 1.516 . S
C849 C313 1.517 . S
C854 C117 1.516 . S
C859 C145 1.516 . S
C864 C285 1.516 . S
C869 C257 1.517 . S
C874 C173 1.517 . S
C879 C229 1.516 . S
C884 C201 1.517 . S
C889 C243 1.517 . S
C894 C439 1.516 . S
C899 C271 1.517 . S
C904 C411 1.516 . S
C909 C299 1.516 . S
C914 C383 1.517 . S
C919 C355 1.517 . S
C924 C327 1.516 . S
C929 C0 1.581 . S
C934 C84 1.581 . S
C939 C14 1.581 . S
C944 C98 1.581 . S
C949 C56 1.579 . S
C954 C28 1.579 . S
C959 C42 1.581 1_554 S
C964 C70 1.581 . S
C969 C112 1.579 . S
C974 C196 1.579 . S
C979 C126 1.581 . S
C984 C210 1.581 . S
C989 C168 1.581 . S
C994 C140 1.581 . S
C999 C154 1.579 . S
C1004 C182 1.579 1_554 S
C1009 C308 1.581 . S
C1014 C224 1.581 . S
C1019 C322 1.581 . S
C1024 C238 1.581 1_554 S
C1029 C280 1.581 . S
C1034 C252 1.581 . S
C1039 C294 1.581 . S
C1044 C266 1.581 . S
C1049 C420 1.581 . S
C1054 C336 1.581 . S
C1059 C434 1.581 1_554 S
C1064 C350 1.581 . S
C1069 C364 1.581 . S
C1074 C392 1.581 . S
C1079 C406 1.581 . S
C1084 C378 1.581 . S
