# Generated by pormake.
# Topology yff, (5)-cn, num edge types: 1
# Building blocks:
#     Node 0, Type 0, BuildingBlock: XOMCOT_clean_sbu_1, # of connection points: 5
#     Node 1, Type 0, BuildingBlock: XOMCOT_clean_sbu_1, # of connection points: 5
#     Node 2, Type 0, BuildingBlock: XOMCOT_clean_sbu_1, # of connection points: 5
#     Node 3, Type 0, BuildingBlock: XOMCOT_clean_sbu_1, # of connection points: 5
#     Node 4, Type 0, BuildingBlock: XOMCOT_clean_sbu_1, # of connection points: 5
#     Node 5, Type 0, BuildingBlock: XOMCOT_clean_sbu_1, # of connection points: 5
#     Node 6, Type 0, BuildingBlock: XOMCOT_clean_sbu_1, # of connection points: 5
#     Node 7, Type 0, BuildingBlock: XOMCOT_clean_sbu_1, # of connection points: 5
#     Node 8, Type 0, BuildingBlock: XOMCOT_clean_sbu_1, # of connection points: 5
#     Node 9, Type 0, BuildingBlock: XOMCOT_clean_sbu_1, # of connection points: 5
#     Node 10, Type 0, BuildingBlock: XOMCOT_clean_sbu_1, # of connection points: 5
#     Node 11, Type 0, BuildingBlock: XOMCOT_clean_sbu_1, # of connection points: 5
#     Node 12, Type 0, BuildingBlock: XOMCOT_clean_sbu_1, # of connection points: 5
#     Node 13, Type 0, BuildingBlock: XOMCOT_clean_sbu_1, # of connection points: 5
#     Node 14, Type 0, BuildingBlock: XOMCOT_clean_sbu_1, # of connection points: 5
#     Node 15, Type 0, BuildingBlock: XOMCOT_clean_sbu_1, # of connection points: 5
#     Edge 16, Type (0, 0), BuildingBlock: XIVTED_clean_linker_0, # of connection points: 2
#     Edge 17, Type (0, 0), BuildingBlock: XIVTED_clean_linker_0, # of connection points: 2
#     Edge 18, Type (0, 0), BuildingBlock: XIVTED_clean_linker_0, # of connection points: 2
#     Edge 19, Type (0, 0), BuildingBlock: XIVTED_clean_linker_0, # of connection points: 2
#     Edge 20, Type (0, 0), BuildingBlock: XIVTED_clean_linker_0, # of connection points: 2
#     Edge 21, Type (0, 0), BuildingBlock: XIVTED_clean_linker_0, # of connection points: 2
#     Edge 22, Type (0, 0), BuildingBlock: XIVTED_clean_linker_0, # of connection points: 2
#     Edge 23, Type (0, 0), BuildingBlock: XIVTED_clean_linker_0, # of connection points: 2
#     Edge 24, Type (0, 0), BuildingBlock: XIVTED_clean_linker_0, # of connection points: 2
#     Edge 25, Type (0, 0), BuildingBlock: XIVTED_clean_linker_0, # of connection points: 2
#     Edge 26, Type (0, 0), BuildingBlock: XIVTED_clean_linker_0, # of connection points: 2
#     Edge 27, Type (0, 0), BuildingBlock: XIVTED_clean_linker_0, # of connection points: 2
#     Edge 28, Type (0, 0), BuildingBlock: XIVTED_clean_linker_0, # of connection points: 2
#     Edge 29, Type (0, 0), BuildingBlock: XIVTED_clean_linker_0, # of connection points: 2
#     Edge 30, Type (0, 0), BuildingBlock: XIVTED_clean_linker_0, # of connection points: 2
#     Edge 31, Type (0, 0), BuildingBlock: XIVTED_clean_linker_0, # of connection points: 2
#     Edge 32, Type (0, 0), BuildingBlock: XIVTED_clean_linker_0, # of connection points: 2
#     Edge 33, Type (0, 0), BuildingBlock: XIVTED_clean_linker_0, # of connection points: 2
#     Edge 34, Type (0, 0), BuildingBlock: XIVTED_clean_linker_0, # of connection points: 2
#     Edge 35, Type (0, 0), BuildingBlock: XIVTED_clean_linker_0, # of connection points: 2
#     Edge 36, Type (0, 0), BuildingBlock: XIVTED_clean_linker_0, # of connection points: 2
#     Edge 37, Type (0, 0), BuildingBlock: XIVTED_clean_linker_0, # of connection points: 2
#     Edge 38, Type (0, 0), BuildingBlock: XIVTED_clean_linker_0, # of connection points: 2
#     Edge 39, Type (0, 0), BuildingBlock: XIVTED_clean_linker_0, # of connection points: 2
#     Edge 40, Type (0, 0), BuildingBlock: XIVTED_clean_linker_0, # of connection points: 2
#     Edge 41, Type (0, 0), BuildingBlock: XIVTED_clean_linker_0, # of connection points: 2
#     Edge 42, Type (0, 0), BuildingBlock: XIVTED_clean_linker_0, # of connection points: 2
#     Edge 43, Type (0, 0), BuildingBlock: XIVTED_clean_linker_0, # of connection points: 2
#     Edge 44, Type (0, 0), BuildingBlock: XIVTED_clean_linker_0, # of connection points: 2
#     Edge 45, Type (0, 0), BuildingBlock: XIVTED_clean_linker_0, # of connection points: 2
#     Edge 46, Type (0, 0), BuildingBlock: XIVTED_clean_linker_0, # of connection points: 2
#     Edge 47, Type (0, 0), BuildingBlock: XIVTED_clean_linker_0, # of connection points: 2
#     Edge 48, Type (0, 0), BuildingBlock: XIVTED_clean_linker_0, # of connection points: 2
#     Edge 49, Type (0, 0), BuildingBlock: XIVTED_clean_linker_0, # of connection points: 2
#     Edge 50, Type (0, 0), BuildingBlock: XIVTED_clean_linker_0, # of connection points: 2
#     Edge 51, Type (0, 0), BuildingBlock: XIVTED_clean_linker_0, # of connection points: 2
#     Edge 52, Type (0, 0), BuildingBlock: XIVTED_clean_linker_0, # of connection points: 2
#     Edge 53, Type (0, 0), BuildingBlock: XIVTED_clean_linker_0, # of connection points: 2
#     Edge 54, Type (0, 0), BuildingBlock: XIVTED_clean_linker_0, # of connection points: 2
#     Edge 55, Type (0, 0), BuildingBlock: XIVTED_clean_linker_0, # of connection points: 2
# Relax obj value: 0.476
# Max RMSD: 0.310
# Mean RMSD: 0.310
data_MOF--net-yff--node1-XOMCOT_clean_sbu_1--edge1-XIVTED_clean_linker_0
_symmetry_space_group_name_H-M    P1
_symmetry_Int_Tables_number       1
_symmetry_cell_setting            triclinic
loop_
_symmetry_equiv_pos_as_xyz
'x, y, z'
_cell_length_a     60.206215
_cell_length_b     60.172643
_cell_length_c     29.734528
_cell_angle_alpha  90.251584
_cell_angle_beta   90.09706
_cell_angle_gamma 89.937374
loop_
_atom_site_label
_atom_site_type_symbol
_atom_site_fract_x
_atom_site_fract_y
_atom_site_fract_z
_atom_type_partial_charge
C0 C 0.11074 0.0467 0.40852 0.0
C1 C 0.11141 0.02841 0.38085 0.0
N2 N 0.09356 0.02894 0.35344 0.0
N3 N 0.09271 0.059 0.39841 0.0
C4 C 0.08246 0.04773 0.36489 0.0
H5 H 0.12221 0.05037 0.43556 0.0
Co6 Co 0.0835 0.0835 0.43216 0.0
C7 C 0.07299 0.11598 0.35974 0.0
O8 O 0.08549 0.13117 0.37912 0.0
N9 N 0.07396 0.10699 0.46923 0.0
C10 C 0.05475 0.1335 0.50461 0.0
C11 C 0.05997 0.12436 0.46337 0.0
C12 C 0.07616 0.10551 0.51437 0.0
N13 N 0.06482 0.12142 0.53664 0.0
O14 O 0.05637 0.06904 0.44304 0.0
H15 H 0.05215 0.12899 0.43214 0.0
H16 H 0.08489 0.09208 0.53081 0.0
O17 O 0.0707 0.09695 0.37811 0.0
C18 C 0.05739 0.05443 0.47368 0.0
O19 O 0.07616 0.05173 0.49563 0.0
N20 N 0.11145 0.09669 0.42253 0.0
C21 C 0.15731 0.0951 0.41171 0.0
C22 C 0.14336 0.09744 0.37431 0.0
C23 C 0.12045 0.09753 0.38032 0.0
C24 C 0.12492 0.0977 0.45938 0.0
C25 C 0.14796 0.09692 0.45476 0.0
H26 H 0.11029 0.09508 0.35081 0.0
H27 H 0.11807 0.09591 0.49257 0.0
H28 H 0.06681 0.05287 0.35032 0.0
H29 H 0.12355 0.01516 0.38255 0.0
H30 H 0.04293 0.14675 0.51073 0.0
H31 H 0.14989 0.09646 0.34043 0.0
H32 H 0.15799 0.09497 0.48474 0.0
C33 C 0.44791 0.10755 0.91583 0.0
C34 C 0.46643 0.10693 0.88887 0.0
N35 N 0.46647 0.08748 0.86623 0.0
N36 N 0.4361 0.08874 0.90972 0.0
C37 C 0.44789 0.07679 0.8795 0.0
H38 H 0.44375 0.12056 0.93956 0.0
Co39 Co 0.41107 0.08019 0.9424 0.0
C40 C 0.38375 0.05432 0.87445 0.0
O41 O 0.37163 0.04348 0.90372 0.0
N42 N 0.38661 0.07188 0.9775 0.0
C43 C 0.35477 0.07268 0.01566 0.0
C44 C 0.36496 0.07777 0.97531 0.0
C45 C 0.38902 0.06311 0.01894 0.0
N46 N 0.37006 0.06336 0.04278 0.0
O47 O 0.42516 0.05274 0.95474 0.0
H48 H 0.35747 0.08668 0.94763 0.0
H49 H 0.40483 0.05845 0.03327 0.0
O50 O 0.3985 0.06803 0.8877 0.0
C51 C 0.44096 0.05443 0.98303 0.0
O52 O 0.44475 0.07382 1.00207 0.0
N53 N 0.39829 0.10775 0.93149 0.0
C54 C 0.4012 0.15313 0.92048 0.0
C55 C 0.39803 0.13928 0.88296 0.0
C56 C 0.39652 0.11638 0.88923 0.0
C57 C 0.39762 0.12117 0.9684 0.0
C58 C 0.39864 0.14412 0.9636 0.0
H59 H 0.39735 0.10574 0.85994 0.0
H60 H 0.39926 0.11406 1.00159 0.0
H61 H 0.44324 0.06026 0.86855 0.0
H62 H 0.4794 0.11935 0.88774 0.0
H63 H 0.3378 0.07642 0.02504 0.0
H64 H 0.39984 0.14558 0.84909 0.0
H65 H 0.40047 0.1544 0.99338 0.0
C66 C 0.37129 0.42391 0.34127 0.0
C67 C 0.37232 0.43914 0.30702 0.0
N68 N 0.39384 0.44308 0.29764 0.0
N69 N 0.39209 0.41848 0.35433 0.0
C70 C 0.40535 0.42964 0.32553 0.0
H71 H 0.35615 0.41799 0.35628 0.0
Co72 Co 0.40208 0.40066 0.40259 0.0
C73 C 0.41547 0.37365 0.33722 0.0
O74 O 0.39482 0.36751 0.34416 0.0
N75 N 0.41179 0.38264 0.44913 0.0
C76 C 0.4171 0.35266 0.49099 0.0
C77 C 0.41124 0.36026 0.44909 0.0
C78 C 0.41809 0.38833 0.4913 0.0
N79 N 0.42128 0.37036 0.51761 0.0
O80 O 0.42342 0.4237 0.42115 0.0
H81 H 0.40613 0.35006 0.42096 0.0
H82 H 0.41916 0.40531 0.50315 0.0
O83 O 0.42384 0.38831 0.36318 0.0
C84 C 0.42334 0.44492 0.41821 0.0
O85 O 0.40577 0.45548 0.40299 0.0
N86 N 0.37947 0.41143 0.44 0.0
C87 C 0.33942 0.42879 0.46914 0.0
C88 C 0.34016 0.40798 0.44775 0.0
C89 C 0.36054 0.39948 0.43381 0.0
C90 C 0.37952 0.42931 0.46844 0.0
C91 C 0.35946 0.43865 0.48263 0.0
H92 H 0.361 0.38451 0.41354 0.0
H93 H 0.39473 0.43722 0.47865 0.0
H94 H 0.42328 0.42894 0.32717 0.0
H95 H 0.35825 0.44766 0.29233 0.0
H96 H 0.4178 0.33544 0.50124 0.0
H97 H 0.32508 0.39926 0.43858 0.0
H98 H 0.35968 0.45427 0.50085 0.0
C99 C 0.04813 0.3742 0.89731 0.0
C100 C 0.03192 0.37409 0.86471 0.0
N101 N 0.02672 0.39528 0.85497 0.0
N102 N 0.05286 0.39539 0.90905 0.0
C103 C 0.04013 0.4078 0.88124 0.0
H104 H 0.05569 0.35956 0.91142 0.0
Co105 Co 0.07274 0.40598 0.95338 0.0
C106 C 0.09736 0.41729 0.88348 0.0
O107 O 0.10314 0.39662 0.89174 0.0
N108 N 0.09268 0.41631 0.99672 0.0
C109 C 0.12393 0.42323 0.03394 0.0
C110 C 0.11499 0.4166 0.99342 0.0
C111 C 0.08842 0.42284 0.03947 0.0
N112 N 0.10719 0.42707 0.06302 0.0
O113 O 0.05123 0.42811 0.97407 0.0
H114 H 0.12427 0.4117 0.96393 0.0
H115 H 0.07189 0.42349 0.05364 0.0
O116 O 0.08381 0.42676 0.91031 0.0
C117 C 0.03009 0.42999 0.97561 0.0
O118 O 0.01733 0.41349 0.96242 0.0
N119 N 0.0633 0.38411 0.99359 0.0
C120 C 0.04787 0.34333 0.0234 0.0
C121 C 0.06848 0.34498 1.00162 0.0
C122 C 0.07601 0.36566 0.98759 0.0
C123 C 0.04538 0.38352 0.02161 0.0
C124 C 0.03715 0.36309 0.03645 0.0
H125 H 0.09071 0.36662 0.96681 0.0
H126 H 0.03669 0.39842 0.03112 0.0
H127 H 0.03981 0.42578 0.88218 0.0
H128 H 0.02439 0.3595 0.84975 0.0
H129 H 0.14145 0.42481 0.04148 0.0
H130 H 0.07767 0.33041 0.99103 0.0
H131 H 0.02186 0.36272 0.05556 0.0
C132 C 0.61605 0.02903 0.62047 0.0
C133 C 0.60561 0.04337 0.64998 0.0
N134 N 0.58946 0.0321 0.67148 0.0
N135 N 0.60655 0.00884 0.62356 0.0
C136 C 0.59054 0.01122 0.65488 0.0
H137 H 0.62916 0.03323 0.59718 0.0
Co138 Co 0.61105 0.98382 0.58793 0.0
C139 C 0.60422 0.94685 0.65661 0.0
O140 O 0.59727 0.93121 0.62908 0.0
N141 N 0.6151 0.9589 0.55073 0.0
C142 C 0.62956 0.93012 0.51363 0.0
C143 C 0.62903 0.94136 0.55423 0.0
C144 C 0.60723 0.95779 0.50822 0.0
N145 N 0.61573 0.94051 0.48495 0.0
O146 O 0.58 0.98138 0.57946 0.0
H147 H 0.6393 0.9379 0.58327 0.0
H148 H 0.59677 0.9704 0.49336 0.0
O149 O 0.60923 0.966 0.64172 0.0
C150 C 0.57089 -0.00477 0.55307 0.0
O151 O 0.58323 0.01048 0.53388 0.0
N152 N 0.64175 0.98641 0.59512 0.0
C153 C 0.68687 0.9772 0.59982 0.0
C154 C 0.6745 0.98091 0.63923 0.0
C155 C 0.65183 0.98533 0.63615 0.0
C156 C 0.65409 0.98675 0.55682 0.0
C157 C 0.67663 0.98156 0.55822 0.0
H158 H 0.64219 0.98659 0.6667 0.0
H159 H 0.64596 0.98864 0.52458 0.0
H160 H 0.579 -0.00189 0.66329 0.0
H161 H 0.60931 0.06084 0.65438 0.0
H162 H 0.63989 0.91595 0.5053 0.0
H163 H 0.68189 0.97916 0.67224 0.0
H164 H 0.68526 0.97928 0.52667 0.0
C165 C 0.44694 0.60815 0.09403 0.0
C166 C 0.43309 0.59554 0.12051 0.0
N167 N 0.44515 0.57893 0.13866 0.0
N168 N 0.46758 0.5995 0.09566 0.0
C169 C 0.46599 0.58189 0.12335 0.0
H170 H 0.44204 0.62191 0.07293 0.0
Co171 Co 0.49145 0.6062 0.05897 0.0
C172 C 0.53075 0.59986 0.1235 0.0
O173 O 0.54692 0.59798 0.09415 0.0
N174 N 0.51504 0.61268 0.02005 0.0
C175 C 0.54172 0.62946 0.98103 0.0
C176 C 0.53128 0.62814 0.02231 0.0
C177 C 0.51604 0.60485 0.97745 0.0
N178 N 0.53208 0.61467 0.95306 0.0
O179 O 0.49495 0.57568 0.04572 0.0
H180 H 0.53449 0.63866 0.05119 0.0
H181 H 0.5042 0.59322 0.96344 0.0
O182 O 0.5108 0.60265 0.11041 0.0
C183 C 0.48132 0.56555 0.02031 0.0
O184 O 0.46455 0.57652 1.00278 0.0
N185 N 0.48797 0.63638 0.07166 0.0
C186 C 0.49704 0.68137 0.0785 0.0
C187 C 0.49784 0.66779 0.11676 0.0
C188 C 0.49275 0.64532 0.11279 0.0
C189 C 0.48357 0.64977 0.03598 0.0
C190 C 0.48795 0.67248 0.0387 0.0
H191 H 0.49449 0.63492 0.1421 0.0
H192 H 0.47883 0.64247 1.00406 0.0
H193 H 0.47951 0.57036 0.12908 0.0
H194 H 0.41537 0.59786 0.12449 0.0
H195 H 0.55491 0.64079 0.97195 0.0
H196 H 0.5042 0.67378 0.14863 0.0
H197 H 0.48586 0.68253 0.00889 0.0
C198 C 0.87055 0.45782 0.63297 0.0
C199 C 0.88234 0.44342 0.6601 0.0
N200 N 0.89801 0.45517 0.68231 0.0
N201 N 0.87867 0.4785 0.63855 0.0
C202 C 0.89504 0.47638 0.66917 0.0
H203 H 0.85818 0.45324 0.60818 0.0
Co204 Co 0.87509 0.50311 0.60212 0.0
C205 C 0.86698 0.53847 0.67218 0.0
O206 O 0.85019 0.54691 0.64962 0.0
N207 N 0.87278 0.52766 0.56339 0.0
C208 C 0.87737 0.5602 0.52916 0.0
C209 C 0.87797 0.54932 0.56968 0.0
C210 C 0.87056 0.52566 0.51826 0.0
N211 N 0.87278 0.54523 0.49681 0.0
O212 O 0.90602 0.50439 0.59422 0.0
H213 H 0.8838 0.55664 0.60067 0.0
H214 H 0.86854 0.50991 0.50113 0.0
O215 O 0.87791 0.5221 0.65578 0.0
C216 C 0.91461 0.49256 0.56338 0.0
O217 O 0.90177 0.47958 0.53903 0.0
N218 N 0.84401 0.50135 0.6085 0.0
C219 C 0.79911 0.51113 0.61045 0.0
C220 C 0.81086 0.50812 0.65078 0.0
C221 C 0.83339 0.50253 0.649 0.0
C222 C 0.83188 0.49975 0.56996 0.0
C223 C 0.80938 0.50502 0.56998 0.0
H224 H 0.84265 0.50121 0.68004 0.0
H225 H 0.83981 0.49566 0.53859 0.0
H226 H 0.90572 0.49002 0.67894 0.0
H227 H 0.88071 0.42552 0.66046 0.0
H228 H 0.88164 0.57744 0.52354 0.0
H229 H 0.80335 0.51177 0.68304 0.0
H230 H 0.80046 0.50559 0.53834 0.0
C231 C 0.04734 0.87978 0.09611 0.0
C232 C 0.06001 0.89188 0.12615 0.0
N233 N 0.04633 0.90467 0.15127 0.0
N234 N 0.02578 0.88479 0.10254 0.0
C235 C 0.02568 0.8997 0.13655 0.0
H236 H 0.05354 0.86931 0.06925 0.0
Co237 Co 0.00187 0.87896 0.06492 0.0
C238 C 0.96884 0.86216 0.13376 0.0
O239 O 0.96319 0.84471 0.10959 0.0
N240 N 0.97775 0.87422 0.02546 0.0
C241 C 0.94462 0.87341 0.99184 0.0
C242 C 0.95556 0.87471 0.03243 0.0
C243 C 0.97971 0.87393 0.98013 0.0
N244 N 0.95991 0.87301 0.95899 0.0
O245 O -0.00446 0.90964 0.06272 0.0
H246 H 0.94752 0.87759 0.06429 0.0
H247 H -0.00464 0.87545 0.9627 0.0
O248 O 0.98302 0.87605 0.11856 0.0
C249 C 0.007 0.91931 0.03275 0.0
O250 O 0.02132 0.9075 0.00936 0.0
N251 N 0.00926 0.84861 0.06384 0.0
C252 C 0.01231 0.80339 0.04692 0.0
C253 C 0.0098 0.81124 0.09119 0.0
C254 C 0.00893 0.83418 0.09914 0.0
C255 C 0.01583 0.84131 0.02255 0.0
C256 C 0.01698 0.81871 0.01299 0.0
H257 H 0.00667 0.84018 0.13311 0.0
H258 H 0.01925 0.85306 0.99624 0.0
H259 H 0.0107 0.90779 0.14815 0.0
H260 H 0.07797 0.89237 0.12695 0.0
H261 H 0.92682 0.87419 0.98674 0.0
H262 H 0.00703 0.7999 0.1188 0.0
H263 H 0.02036 0.81331 0.97887 0.0
C264 C 0.88245 0.95299 0.5842 0.0
C265 C 0.88185 0.9713 0.61181 0.0
N266 N 0.8995 0.97052 0.63975 0.0
N267 N 0.90022 0.94044 0.59483 0.0
C268 C 0.91041 0.95157 0.62863 0.0
H269 H 0.87114 0.94953 0.55679 0.0
Co270 Co 0.90924 0.91579 0.56141 0.0
C271 C 0.92001 0.88329 0.63413 0.0
O272 O 0.90806 0.86775 0.61447 0.0
N273 N 0.91861 0.89203 0.52472 0.0
C274 C 0.93848 0.86576 0.49012 0.0
C275 C 0.93334 0.87533 0.53097 0.0
C276 C 0.91588 0.89275 0.47959 0.0
N277 N 0.92764 0.87695 0.45779 0.0
O278 O 0.93657 0.92986 0.55062 0.0
H279 H 0.94179 0.87161 0.56204 0.0
H280 H 0.90673 0.90573 0.46266 0.0
O281 O 0.92181 0.9024 0.61582 0.0
C282 C 0.93588 0.94398 0.51901 0.0
O283 O 0.91727 0.94647 0.49639 0.0
N284 N 0.88112 0.90302 0.57082 0.0
C285 C 0.83511 0.90322 0.58263 0.0
C286 C 0.84943 0.89976 0.61921 0.0
C287 C 0.87229 0.90079 0.61291 0.0
C288 C 0.86747 0.90344 0.53424 0.0
C289 C 0.84444 0.90376 0.53934 0.0
H290 H 0.88245 0.90248 0.64259 0.0
H291 H 0.8742 0.90665 0.50138 0.0
H292 H 0.92587 0.94621 0.64367 0.0
H293 H 0.86994 0.98473 0.6097 0.0
H294 H 0.95085 0.853 0.48431 0.0
H295 H 0.84323 0.89851 0.65323 0.0
H296 H 0.83441 0.90675 0.50978 0.0
C297 C 0.53193 0.87136 0.09955 0.0
C298 C 0.51311 0.87141 0.12565 0.0
N299 N 0.51365 0.88946 0.15267 0.0
N300 N 0.54446 0.88916 0.11038 0.0
C301 C 0.53289 0.89989 0.1427 0.0
H302 H 0.536 0.85943 0.07352 0.0
Co303 Co 0.57016 0.89841 0.08095 0.0
C304 C 0.595 0.92308 0.15296 0.0
O305 O 0.60404 0.93723 0.12494 0.0
N306 N 0.59534 0.90769 0.04917 0.0
C307 C 0.62813 0.90824 0.01456 0.0
C308 C 0.61709 0.90256 0.05367 0.0
C309 C 0.59372 0.91672 0.00782 0.0
N310 N 0.61327 0.91725 0.98607 0.0
O311 O 0.55681 0.92663 0.07233 0.0
H312 H 0.62409 0.89363 0.08185 0.0
H313 H 0.57815 0.92092 0.99191 0.0
O314 O 0.58223 0.9078 0.13835 0.0
C315 C 0.54179 0.92584 0.04219 0.0
O316 O 0.53858 0.90705 0.02042 0.0
N317 N 0.58222 0.87011 0.08769 0.0
C318 C 0.58182 0.82402 0.08769 0.0
C319 C 0.58088 0.83599 0.12842 0.0
C320 C 0.58151 0.85916 0.12774 0.0
C321 C 0.58603 0.85886 0.04866 0.0
C322 C 0.58676 0.83577 0.04822 0.0
H323 H 0.57823 0.86812 0.15861 0.0
H324 H 0.58638 0.86764 0.01702 0.0
H325 H 0.53798 0.91568 0.15683 0.0
H326 H 0.49992 0.85923 0.12422 0.0
H327 H 0.6454 0.90499 0.00681 0.0
H328 H 0.57721 0.82795 0.16 0.0
H329 H 0.58889 0.82736 0.01627 0.0
C330 C 0.60965 0.53161 0.57953 0.0
C331 C 0.61073 0.51317 0.60643 0.0
N332 N 0.59163 0.51182 0.6297 0.0
N333 N 0.5901 0.54206 0.58633 0.0
C334 C 0.5794 0.52953 0.6169 0.0
H335 H 0.62202 0.53655 0.55527 0.0
Co336 Co 0.5798 0.56636 0.5543 0.0
C337 C 0.5518 0.59174 0.62181 0.0
O338 O 0.53999 0.60268 0.59206 0.0
N339 N 0.56998 0.59029 0.51942 0.0
C340 C 0.56881 0.6223 0.48201 0.0
C341 C 0.57441 0.61227 0.52227 0.0
C342 C 0.56164 0.5875 0.47761 0.0
N343 N 0.56071 0.60655 0.45418 0.0
O344 O 0.55303 0.55057 0.54197 0.0
H345 H 0.58264 0.6202 0.55043 0.0
H346 H 0.55817 0.57148 0.46276 0.0
O347 O 0.56669 0.57803 0.60907 0.0
C348 C 0.55423 0.53533 0.5123 0.0
O349 O 0.57299 0.53222 0.49063 0.0
N350 N 0.60655 0.58091 0.56586 0.0
C351 C 0.65168 0.58487 0.58234 0.0
C352 C 0.63633 0.58831 0.61709 0.0
C353 C 0.61372 0.58606 0.60825 0.0
C354 C 0.62095 0.58068 0.53063 0.0
C355 C 0.64374 0.58259 0.53813 0.0
H356 H 0.60251 0.5861 0.6365 0.0
H357 H 0.61497 0.57631 0.49741 0.0
H358 H 0.56271 0.53298 0.62846 0.0
H359 H 0.62404 0.50107 0.60702 0.0
H360 H 0.5714 0.63954 0.47321 0.0
H361 H 0.64181 0.59058 0.65152 0.0
H362 H 0.65497 0.5798 0.51026 0.0
C363 C 0.94331 0.62975 0.15993 0.0
C364 C 0.95896 0.63058 0.19357 0.0
N365 N 0.96328 0.60967 0.20688 0.0
N366 N 0.93809 0.60835 0.15108 0.0
C367 C 0.94982 0.59664 0.18174 0.0
H368 H 0.93648 0.64404 0.14308 0.0
Co369 Co 0.9185 0.59701 0.10718 0.0
C370 C 0.89243 0.58894 0.17828 0.0
O371 O 0.88759 0.60975 0.16908 0.0
N372 N 0.89865 0.58619 0.0646 0.0
C373 C 0.86738 0.58055 0.02665 0.0
C374 C 0.87633 0.58727 0.06706 0.0
C375 C 0.90292 0.57863 0.02263 0.0
N376 N 0.88416 0.57526 0.99859 0.0
O377 O 0.93903 0.5728 0.09196 0.0
H378 H 0.86713 0.59348 0.09565 0.0
H379 H 0.91949 0.57693 0.00906 0.0
O380 O 0.90569 0.57859 0.15228 0.0
C381 C 0.96009 0.56998 0.09283 0.0
O382 O 0.97326 0.58653 0.10401 0.0
N383 N 0.93006 0.61644 0.06383 0.0
C384 C 0.94885 0.65308 0.02268 0.0
C385 C 0.92836 0.65497 0.04466 0.0
C386 C 0.91913 0.63625 0.06473 0.0
C387 C 0.9479 0.61357 0.03606 0.0
C388 C 0.95797 0.63191 0.01607 0.0
H389 H 0.90437 0.63801 0.08515 0.0
H390 H 0.95505 0.59747 0.03014 0.0
H391 H 0.9495 0.57869 0.18358 0.0
H392 H 0.96679 0.64545 0.20666 0.0
H393 H 0.84989 0.58019 0.01824 0.0
H394 H 0.92062 0.67102 0.04998 0.0
H395 H 0.9733 0.62973 0.99754 0.0
C396 C 0.36455 0.94909 0.39863 0.0
C397 C 0.3754 0.93505 0.36911 0.0
N398 N 0.39296 0.946 0.35197 0.0
N399 N 0.37514 0.9688 0.39956 0.0
C400 C 0.39225 0.96642 0.37073 0.0
H401 H 0.35038 0.94494 0.41925 0.0
Co402 Co 0.37035 0.99315 0.43682 0.0
C403 C 0.37926 0.03149 0.37179 0.0
O404 O 0.38469 0.04704 0.40089 0.0
N405 N 0.36586 0.01735 0.47564 0.0
C406 C 0.35136 0.04583 0.5136 0.0
C407 C 0.35222 0.03513 0.47245 0.0
C408 C 0.37316 0.01773 0.51859 0.0
N409 N 0.36465 0.03483 0.54238 0.0
O410 O 0.40117 -0.00534 0.44868 0.0
H411 H 0.34248 0.03923 0.44302 0.0
H412 H 0.38333 0.0048 0.53317 0.0
O413 O 0.37421 0.01207 0.38509 0.0
C414 C 0.41003 0.98035 0.47439 0.0
O415 O 0.39759 0.96467 0.49181 0.0
N416 N 0.33984 0.9916 0.42605 0.0
C417 C 0.29579 0.00418 0.4201 0.0
C418 C 0.30869 0.00218 0.38108 0.0
C419 C 0.3308 -0.0044 0.38475 0.0
C420 C 0.32664 0.98983 0.46301 0.0
C421 C 0.30447 -0.00356 0.46094 0.0
H422 H 0.34102 -0.00449 0.35491 0.0
H423 H 0.33394 0.98576 0.49522 0.0
H424 H 0.40436 0.97934 0.3646 0.0
H425 H 0.37131 0.91783 0.36248 0.0
H426 H 0.34128 0.06015 0.52207 0.0
H427 H 0.30248 0.00757 0.3487 0.0
H428 H 0.29476 -0.00292 0.49155 0.0
C429 C 0.54198 0.3607 0.87463 0.0
C430 C 0.55543 0.37093 0.84349 0.0
N431 N 0.5432 0.38625 0.82154 0.0
N432 N 0.52145 0.36953 0.87197 0.0
C433 C 0.52272 0.38497 0.83949 0.0
H434 H 0.547 0.34825 0.89876 0.0
Co435 Co 0.49757 0.36516 0.90961 0.0
C436 C 0.46151 0.35678 0.84196 0.0
O437 O 0.4545 0.33926 0.86407 0.0
N438 N 0.47382 0.36185 0.94993 0.0
C439 C 0.44186 0.36456 0.98725 0.0
C440 C 0.45182 0.36602 0.94581 0.0
C441 C 0.47689 0.3594 0.9947 0.0
N442 N 0.45772 0.36045 0.01795 0.0
O443 O 0.49571 0.39594 0.91943 0.0
H444 H 0.44355 0.37161 0.91572 0.0
H445 H 0.49307 0.35776 0.01021 0.0
O446 O 0.47757 0.36836 0.85769 0.0
C447 C 0.50761 0.40516 0.94937 0.0
O448 O 0.52175 0.39307 0.97249 0.0
N449 N 0.4998 0.33424 0.90021 0.0
C450 C 0.4933 0.28902 0.88913 0.0
C451 C 0.49609 0.30264 0.85152 0.0
C452 C 0.49997 0.32527 0.85787 0.0
C453 C 0.501 0.32066 0.93664 0.0
C454 C 0.49737 0.29794 0.93198 0.0
H455 H 0.50124 0.33582 0.82866 0.0
H456 H 0.50363 0.32742 0.96977 0.0
H457 H 0.5092 0.39613 0.83137 0.0
H458 H 0.57295 0.36779 0.83839 0.0
H459 H 0.42455 0.36778 0.99465 0.0
H460 H 0.49397 0.29614 0.81775 0.0
H461 H 0.49607 0.28786 0.96195 0.0
C462 C 0.11869 0.54851 0.43169 0.0
C463 C 0.10662 0.56286 0.40506 0.0
N464 N 0.0915 0.5509 0.38183 0.0
N465 N 0.11132 0.52765 0.42477 0.0
C466 C 0.09504 0.52961 0.3939 0.0
H467 H 0.13082 0.55316 0.45691 0.0
Co468 Co 0.11618 0.50276 0.45984 0.0
C469 C 0.12808 0.46993 0.38658 0.0
O470 O 0.14617 0.46347 0.40767 0.0
N471 N 0.11983 0.47797 0.49747 0.0
C472 C 0.11901 0.44496 0.53108 0.0
C473 C 0.11898 0.45578 0.49037 0.0
C474 C 0.1192 0.48009 0.54277 0.0
N475 N 0.11906 0.46035 0.56402 0.0
O476 O 0.08528 0.49917 0.46606 0.0
H477 H 0.11668 0.44769 0.45831 0.0
H478 H 0.11815 0.49596 0.55987 0.0
O479 O 0.11531 0.48439 0.40477 0.0
C480 C 0.07608 0.511 0.49618 0.0
O481 O 0.08829 0.52501 0.51953 0.0
N482 N 0.14708 0.50702 0.45564 0.0
C483 C 0.19321 0.50638 0.45493 0.0
C484 C 0.18124 0.50835 0.41456 0.0
C485 C 0.15806 0.50913 0.41574 0.0
C486 C 0.15852 0.5087 0.4951 0.0
C487 C 0.18161 0.50794 0.49562 0.0
H488 H 0.14894 0.51009 0.38446 0.0
H489 H 0.14982 0.50975 0.52662 0.0
H490 H 0.0849 0.51576 0.38302 0.0
H491 H 0.10769 0.58081 0.40563 0.0
H492 H 0.11766 0.4272 0.53601 0.0
H493 H 0.18963 0.50824 0.38237 0.0
H494 H 0.19009 0.5071 0.5277 0.0
C495 C 0.94574 0.12032 0.89581 0.0
C496 C 0.93315 0.10818 0.86569 0.0
N497 N 0.94682 0.09482 0.84177 0.0
N498 N 0.96725 0.11477 0.89062 0.0
C499 C 0.9674 0.09948 0.85729 0.0
H500 H 0.93949 0.13122 0.9219 0.0
Co501 Co 0.99089 0.1204 0.929 0.0
C502 C 0.02581 0.13478 0.86187 0.0
O503 O 0.0324 0.15171 0.8866 0.0
N504 N 0.0147 0.1249 0.96919 0.0
C505 C 0.04754 0.12344 1.00388 0.0
C506 C 0.03676 0.12179 0.9632 0.0
C507 C 0.0125 0.12703 0.01429 0.0
N508 N 0.03218 0.12661 0.03598 0.0
O509 O -0.00377 0.08961 0.93317 0.0
H510 H 0.04458 0.11675 0.93218 0.0
H511 H -0.00331 0.12752 0.03138 0.0
O512 O 0.01045 0.12194 0.8761 0.0
C513 C 0.98477 0.0803 0.96357 0.0
O514 O 0.97073 0.09241 0.98701 0.0
N515 N 0.98455 0.15103 0.92774 0.0
C516 C 0.98441 0.19654 0.9416 0.0
C517 C 0.98775 0.18782 0.8983 0.0
C518 C 0.98685 0.16481 0.8917 0.0
C519 C 0.97733 0.15943 0.96774 0.0
C520 C 0.97746 0.18226 0.97576 0.0
H521 H 0.98947 0.15816 0.85836 0.0
H522 H 0.97262 0.14835 0.99445 0.0
H523 H 0.98232 0.09094 0.84677 0.0
H524 H 0.9152 0.1081 0.86401 0.0
H525 H 0.06509 0.1208 0.00981 0.0
H526 H 0.99218 0.19854 0.87056 0.0
H527 H 0.97397 0.18844 0.00928 0.0
H528 H 0.97499 0.94667 0.56572 0.0
H529 H 0.0183 0.05164 0.42694 0.0
H530 H 0.93927 0.97585 0.45454 0.0
H531 H 0.05443 0.02196 0.53703 0.0
H532 H 0.98893 0.02415 0.43697 0.0
H533 H 0.00456 0.97388 0.55515 0.0
C534 C 0.97345 0.9587 0.53888 0.0
C535 C 0.95464 0.95907 0.51103 0.0
C536 C 0.00326 0.0237 0.45901 0.0
C537 C 0.98825 0.99031 0.49901 0.0
C538 C 0.01997 0.03945 0.45343 0.0
C539 C 0.03881 0.03905 0.48119 0.0
C540 C 0.00544 0.00749 0.49259 0.0
C541 C 0.04019 0.02284 0.51483 0.0
C542 C 0.99029 0.97428 0.53297 0.0
C543 C 0.95346 0.97502 0.47687 0.0
N544 N 0.02373 0.00766 0.51953 0.0
N545 N 0.97002 0.99007 0.47191 0.0
H546 H 0.4744 0.0526 0.04482 0.0
H547 H 0.50933 0.92869 0.97879 0.0
H548 H 0.44061 0.01311 0.94427 0.0
H549 H 0.54155 0.96662 0.08383 0.0
H550 H 0.48455 0.95985 0.96485 0.0
H551 H 0.49938 0.02153 0.05925 0.0
C552 C 0.47218 0.03735 0.02587 0.0
C553 C 0.45541 0.0354 0.99328 0.0
C554 C 0.49704 0.96141 0.99092 0.0
C555 C 0.48401 -0.00015 0.0095 0.0
C556 C 0.51125 0.94363 0.99888 0.0
C557 C 0.52751 0.94509 0.03258 0.0
C558 C 0.49908 0.98082 0.01684 0.0
C559 C 0.52924 0.96484 0.05748 0.0
C560 C 0.48648 0.01963 0.03412 0.0
C561 C 0.45329 0.01528 0.96976 0.0
N562 N 0.51514 0.98197 0.04914 0.0
N563 N 0.46749 -0.00172 0.97829 0.0
H564 H 0.52344 0.51716 0.56847 0.0
H565 H 0.43847 0.48299 0.38101 0.0
H566 H 0.54086 0.52358 0.42852 0.0
H567 H 0.452 0.43658 0.48782 0.0
H568 H 0.47069 0.50499 0.40476 0.0
H569 H 0.4914 0.49399 0.54636 0.0
C570 C 0.52036 0.5138 0.53317 0.0
C571 C 0.53462 0.52215 0.50011 0.0
C572 C 0.46654 0.48999 0.4229 0.0
C573 C 0.49828 0.49637 0.47497 0.0
C574 C 0.44823 0.47749 0.40951 0.0
C575 C 0.44278 0.45793 0.43239 0.0
C576 C 0.47899 0.48324 0.46026 0.0
C577 C 0.45588 0.45149 0.46916 0.0
C578 C 0.50231 0.50054 0.52071 0.0
C579 C 0.53021 0.51729 0.45487 0.0
N580 N 0.47333 0.4643 0.48242 0.0
N581 N 0.51221 0.50492 0.4435 0.0
H582 H 0.93858 0.53353 0.05816 0.0
H583 H 0.05113 0.46589 0.01323 0.0
H584 H 0.00392 0.55815 0.09177 0.0
H585 H 0.98594 0.44066 0.98036 0.0
H586 H 0.03398 0.49961 0.04314 0.0
H587 H 0.95547 0.4991 0.03067 0.0
C588 C 0.95646 0.53168 0.05992 0.0
C589 C 0.96986 0.54878 0.07723 0.0
C590 C 0.02342 0.4867 0.02942 0.0
C591 C 0.98929 0.50945 0.04571 0.0
C592 C 0.03321 0.46744 0.01226 0.0
C593 C 0.01995 0.45043 0.99415 0.0
C594 C 0.0002 0.48903 0.02842 0.0
C595 C -0.00319 0.45333 0.994 0.0
C596 C 0.9661 0.51202 0.04416 0.0
C597 C 0.99293 0.54546 0.07858 0.0
N598 N 0.98767 0.47227 0.0108 0.0
N599 N 0.0019 0.52621 0.06297 0.0
H600 H 0.54666 0.0218 0.49728 0.0
H601 H 0.43396 0.95364 0.53076 0.0
H602 H 0.54096 0.96479 0.58422 0.0
H603 H 0.44007 0.01083 0.44442 0.0
H604 H 0.47315 0.95732 0.55078 0.0
H605 H 0.50747 0.0181 0.47797 0.0
C606 C 0.53715 0.00853 0.5124 0.0
C607 C 0.54707 0.99356 0.54234 0.0
C608 C 0.46591 0.96905 0.52743 0.0
C609 C 0.50223 0.98917 0.52029 0.0
C610 C 0.44355 0.96694 0.51594 0.0
C611 C 0.43376 0.98197 0.48593 0.0
C612 C 0.47852 0.98631 0.50874 0.0
C613 C 0.44695 -0.00111 0.46774 0.0
C614 C 0.51477 0.0064 0.50132 0.0
C615 C 0.53396 0.97669 0.56095 0.0
N616 N 0.46866 0.0006 0.47948 0.0
N617 N 0.51219 0.97493 0.54954 0.0
H618 H 0.45758 0.53939 0.9622 0.0
H619 H 0.5299 0.43052 0.01131 0.0
H620 H 0.51313 0.53794 0.05427 0.0
H621 H 0.47839 0.43389 0.91026 0.0
H622 H 0.52355 0.46973 0.0288 0.0
H623 H 0.46429 0.50031 0.94432 0.0
C624 C 0.47116 0.53084 0.9787 0.0
C625 C 0.48483 0.5419 0.00969 0.0
C626 C 0.51368 0.46189 1.00272 0.0
C627 C 0.49263 0.49729 0.9894 0.0
C628 C 0.51732 0.43952 0.99272 0.0
C629 C 0.50465 0.42895 0.95934 0.0
C630 C 0.49722 0.47368 0.97925 0.0
C631 C 0.48855 0.44139 0.93629 0.0
C632 C 0.47502 0.50856 0.96841 0.0
C633 C 0.5022 0.53005 0.03007 0.0
N634 N 0.48526 0.46309 0.94677 0.0
N635 N 0.5056 0.50836 0.01957 0.0
H636 H 0.93813 0.47152 0.49703 0.0
H637 H 0.05211 0.5319 0.56164 0.0
H638 H 0.94546 0.51748 0.60804 0.0
H639 H 0.04592 0.48445 0.45295 0.0
H640 H 0.01286 0.52693 0.57861 0.0
H641 H 0.9776 0.47582 0.48027 0.0
C642 C 0.94806 0.48245 0.51797 0.0
C643 C 0.93852 0.49421 0.55388 0.0
C644 C 0.02007 0.5176 0.55103 0.0
C645 C 0.98356 0.49928 0.53483 0.0
C646 C 0.04247 0.52047 0.54126 0.0
C647 C 0.05227 0.50855 0.50588 0.0
C648 C 0.00736 0.50272 0.52518 0.0
C649 C 0.03901 0.49394 0.48061 0.0
C650 C 0.97056 0.48492 0.50834 0.0
C651 C 0.95213 0.50814 0.57992 0.0
N652 N 0.01719 0.49143 0.49078 0.0
N653 N 0.97396 0.51032 0.5698 0.0
H654 H 0.02837 0.9438 0.96936 0.0
H655 H 0.96345 0.05611 0.02777 0.0
H656 H 0.97891 0.94892 0.07393 0.0
H657 H 0.0124 0.05039 0.92233 0.0
H658 H 0.96883 0.01692 0.04526 0.0
H659 H 0.02286 0.98293 0.95217 0.0
C660 C 0.01636 0.95318 0.9888 0.0
C661 C 0.00405 0.9431 0.02311 0.0
C662 C 0.97838 0.02422 0.01827 0.0
C663 C -0.00238 0.98794 1.00349 0.0
C664 C 0.97531 0.0466 0.00821 0.0
C665 C 0.98753 0.05651 0.97356 0.0
C666 C 0.99379 0.01168 0.99351 0.0
C667 C 0.00265 0.0434 0.94935 0.0
C668 C 0.01321 0.97553 0.9789 0.0
C669 C 0.98873 0.95605 0.04717 0.0
N670 N 0.00537 0.02164 0.95984 0.0
N671 N 0.98593 0.97785 0.03685 0.0
H672 H 0.08387 0.14947 0.3021 0.0
H673 H 0.00667 0.10757 0.10028 0.0
H674 H 0.04275 0.09098 0.31239 0.0
H675 H 0.0664 0.14565 0.08032 0.0
H676 H 0.01461 0.10649 0.18128 0.0
H677 H 0.07227 0.15356 0.2238 0.0
C678 C 0.0722 0.13763 0.2881 0.0
C679 C 0.06435 0.11978 0.3138 0.0
C680 C 0.02589 0.11517 0.15914 0.0
C681 C 0.05101 0.12444 0.22419 0.0
C682 C 0.0213 0.11592 0.11309 0.0
C683 C 0.03595 0.12671 0.08375 0.0
C684 C 0.04505 0.12561 0.17592 0.0
C685 C 0.05483 0.13702 0.10189 0.0
C686 C 0.06569 0.13992 0.24332 0.0
C687 C 0.04929 0.10492 0.29373 0.0
N688 N 0.05882 0.13629 0.14684 0.0
N689 N 0.0431 0.10757 0.25005 0.0
H690 H 0.34635 0.03962 0.83026 0.0
H691 H 0.40278 0.03167 0.58963 0.0
H692 H 0.41344 0.06187 0.80699 0.0
H693 H 0.33304 0.04623 0.60319 0.0
H694 H 0.4073 0.0365 0.67119 0.0
H695 H 0.34125 0.03562 0.74849 0.0
C696 C 0.36003 0.04351 0.80804 0.0
C697 C 0.38036 0.05106 0.82547 0.0
C698 C 0.39103 0.03873 0.65627 0.0
C699 C 0.37471 0.04629 0.73237 0.0
C700 C 0.38846 0.03594 0.60991 0.0
C701 C 0.36756 0.03872 0.58984 0.0
C702 C 0.37245 0.04377 0.68293 0.0
C703 C 0.34947 0.04423 0.61746 0.0
C704 C 0.35705 0.04137 0.76149 0.0
C705 C 0.39748 0.05603 0.79508 0.0
N706 N 0.35226 0.04636 0.66275 0.0
N707 N 0.39434 0.05337 0.75011 0.0
H708 H 0.40314 0.34053 0.28006 0.0
H709 H 0.48559 0.37615 0.08263 0.0
H710 H 0.45234 0.39203 0.2971 0.0
H711 H 0.42323 0.34243 0.06237 0.0
H712 H 0.47891 0.37597 0.16418 0.0
H713 H 0.41631 0.33433 0.20364 0.0
C714 C 0.41697 0.35032 0.26797 0.0
C715 C 0.42646 0.36704 0.29481 0.0
C716 C 0.46681 0.36846 0.14183 0.0
C717 C 0.44148 0.36013 0.20699 0.0
C718 C 0.47065 0.36846 0.09545 0.0
C719 C 0.45483 0.35939 0.06589 0.0
C720 C 0.4472 0.35902 0.15859 0.0
C721 C 0.43566 0.34983 0.08405 0.0
C722 C 0.42441 0.34682 0.22422 0.0
C723 C 0.4445 0.37903 0.27746 0.0
N724 N 0.43238 0.3499 0.12919 0.0
N725 N 0.45129 0.37552 0.23433 0.0
H726 H 0.09847 0.48612 0.62688 0.0
H727 H 0.12982 0.40316 0.82685 0.0
H728 H 0.13617 0.42569 0.61013 0.0
H729 H 0.07945 0.45381 0.84065 0.0
H730 H 0.13686 0.41556 0.75044 0.0
H731 H 0.09539 0.47838 0.70759 0.0
C732 C 0.10628 0.47134 0.64024 0.0
C733 C 0.11756 0.45646 0.61173 0.0
C734 C 0.12437 0.42412 0.77018 0.0
C735 C 0.11411 0.44756 0.70387 0.0
C736 C 0.12039 0.4171 0.81398 0.0
C737 C 0.10388 0.42734 0.84012 0.0
C738 C 0.11175 0.44153 0.75203 0.0
C739 C 0.09234 0.44545 0.82167 0.0
C740 C 0.10441 0.46689 0.68624 0.0
C741 C 0.12711 0.43744 0.63078 0.0
N742 N 0.09636 0.45187 0.77852 0.0
N743 N 0.12519 0.43356 0.67557 0.0
H744 H 0.6051 0.97744 0.72449 0.0
H745 H 0.63359 0.89247 0.92173 0.0
H746 H 0.60935 0.90681 0.70015 0.0
H747 H 0.59777 0.95349 0.94379 0.0
H748 H 0.63258 0.89948 0.84005 0.0
H749 H 0.6097 0.97077 0.80489 0.0
C750 C 0.60703 0.9605 0.73601 0.0
C751 C 0.60667 0.94262 0.70548 0.0
C752 C 0.62517 0.91142 0.8629 0.0
C753 C 0.61238 0.93495 0.79769 0.0
C754 C 0.62598 0.90757 0.90933 0.0
C755 C 0.61588 0.92255 0.93925 0.0
C756 C 0.61455 0.93059 0.84661 0.0
C757 C 0.6058 0.94165 0.92165 0.0
C758 C 0.60964 0.95673 0.78196 0.0
C759 C 0.60931 0.92104 0.72254 0.0
N760 N 0.60544 0.94517 0.87654 0.0
N761 N 0.61218 0.91779 0.76754 0.0
H762 H 0.50191 0.59146 0.19186 0.0
H763 H 0.58254 0.63028 0.39048 0.0
H764 H 0.56988 0.61034 0.16688 0.0
H765 H 0.52746 0.58579 0.41034 0.0
H766 H 0.57564 0.62894 0.30879 0.0
H767 H 0.50873 0.59455 0.27254 0.0
C768 C 0.51833 0.59618 0.20333 0.0
C769 C 0.5354 0.60051 0.17249 0.0
C770 C 0.56501 0.6196 0.33114 0.0
C771 C 0.54319 0.6045 0.26513 0.0
C772 C 0.56878 0.62057 0.37764 0.0
C773 C 0.55547 0.60818 0.40702 0.0
C774 C 0.54758 0.60647 0.31418 0.0
C775 C 0.53808 0.59553 0.38872 0.0
C776 C 0.52219 0.59795 0.24945 0.0
C777 C 0.55632 0.60664 0.18947 0.0
N778 N 0.53459 0.59506 0.34357 0.0
N779 N 0.5596 0.60862 0.23471 0.0
H780 H 0.91314 0.55104 0.94825 0.0
H781 H 0.84379 0.56926 0.72112 0.0
H782 H 0.8516 0.58765 0.94064 0.0
H783 H 0.89949 0.52424 0.73039 0.0
H784 H 0.84867 0.57873 0.80031 0.0
H785 H 0.91039 0.5432 0.86745 0.0
C786 C 0.89908 0.55745 0.92961 0.0
C787 C 0.88252 0.56993 0.95136 0.0
C788 C 0.85989 0.56683 0.78503 0.0
C789 C 0.87929 0.56109 0.85898 0.0
C790 C 0.85718 0.56148 0.73967 0.0
C791 C 0.87119 0.54584 0.71902 0.0
C792 C 0.87678 0.55653 0.8101 0.0
C793 C 0.88825 0.53633 0.74491 0.0
C794 C 0.89748 0.55292 0.88355 0.0
C795 C 0.86457 0.57767 0.92558 0.0
N796 N 0.89052 0.54177 0.78915 0.0
N797 N 0.86347 0.57317 0.88084 0.0
H798 H 0.94866 0.83068 0.18574 0.0
H799 H 0.93007 0.91061 0.3976 0.0
H800 H 0.97009 0.8991 0.1881 0.0
H801 H 0.93413 0.83935 0.40925 0.0
H802 H 0.93841 0.90734 0.31723 0.0
H803 H 0.93699 0.83433 0.26425 0.0
C804 C 0.95073 0.84653 0.20259 0.0
C805 C 0.96041 0.86461 0.1803 0.0
C806 C 0.93736 0.89242 0.33734 0.0
C807 C 0.947 0.86887 0.27009 0.0
C808 C 0.93241 0.89425 0.38308 0.0
C809 C 0.93133 0.87518 0.41003 0.0
C810 C 0.94095 0.87135 0.31822 0.0
C811 C 0.93493 0.85442 0.38962 0.0
C812 C 0.94417 0.84855 0.24747 0.0
C813 C 0.96278 0.88471 0.204 0.0
N814 N 0.93949 0.85303 0.34489 0.0
N815 N 0.95607 0.88632 0.24757 0.0
H816 H 0.98362 0.89497 0.89566 0.0
H817 H 0.90985 0.84946 0.69161 0.0
H818 H 0.92687 0.85234 0.91368 0.0
H819 H 0.94877 0.90949 0.68255 0.0
H820 H 0.92089 0.8459 0.77036 0.0
H821 H 0.97572 0.89623 0.81476 0.0
C822 C 0.96963 0.88572 0.88248 0.0
C823 C 0.95584 0.87353 0.9113 0.0
C824 C 0.9271 0.85978 0.75104 0.0
C825 C 0.94677 0.87485 0.81906 0.0
C826 C 0.92092 0.86177 0.70599 0.0
C827 C 0.92833 0.87986 0.68045 0.0
C828 C 0.941 0.87584 0.77064 0.0
C829 C 0.94259 0.89533 0.70104 0.0
C830 C 0.96505 0.88656 0.83644 0.0
C831 C 0.93775 0.86208 0.89261 0.0
N832 N 0.94847 0.89297 0.74496 0.0
N833 N 0.93378 0.86294 0.84764 0.0
H834 H 0.57703 0.94044 0.43923 0.0
H835 H 0.63084 0.94131 0.19687 0.0
H836 H 0.64756 0.93166 0.42307 0.0
H837 H 0.5678 0.9095 0.22087 0.0
H838 H 0.63645 0.9443 0.2787 0.0
H839 H 0.57219 0.93537 0.35767 0.0
C840 C 0.59145 0.93734 0.41838 0.0
C841 C 0.61268 0.93625 0.43767 0.0
C842 C 0.62145 0.93664 0.26585 0.0
C843 C 0.6074 0.93108 0.34469 0.0
C844 C 0.61818 0.93504 0.2193 0.0
C845 C 0.59884 0.92514 0.20206 0.0
C846 C 0.60498 0.92885 0.29523 0.0
C847 C 0.58299 0.91718 0.23267 0.0
C848 C 0.5887 0.93442 0.37206 0.0
C849 C 0.63091 0.93231 0.40937 0.0
N850 N 0.58629 0.91943 0.27772 0.0
N851 N 0.62791 0.93013 0.36414 0.0
H852 H 0.53259 0.57558 0.90832 0.0
H853 H 0.53421 0.62846 0.6641 0.0
H854 H 0.54028 0.64612 0.89005 0.0
H855 H 0.56216 0.56379 0.69094 0.0
H856 H 0.53026 0.63455 0.74557 0.0
H857 H 0.53755 0.57007 0.82707 0.0
C858 C 0.53539 0.58988 0.88708 0.0
C859 C 0.53617 0.6113 0.90578 0.0
C860 C 0.53724 0.61905 0.73345 0.0
C861 C 0.54136 0.60523 0.81294 0.0
C862 C 0.53936 0.6155 0.68705 0.0
C863 C 0.5485 0.59557 0.67068 0.0
C864 C 0.54381 0.60235 0.76355 0.0
C865 C 0.55507 0.57942 0.70201 0.0
C866 C 0.53826 0.58675 0.84088 0.0
C867 C 0.53983 0.62933 0.8769 0.0
N868 N 0.55241 0.58307 0.74685 0.0
N869 N 0.54206 0.62593 0.83178 0.0
H870 H 0.86296 0.60653 0.23796 0.0
H871 H 0.88685 0.51722 0.43067 0.0
H872 H 0.90604 0.54995 0.21804 0.0
H873 H 0.85873 0.58215 0.45417 0.0
H874 H 0.88851 0.52539 0.34995 0.0
H875 H 0.85538 0.5939 0.31407 0.0
C876 C 0.87065 0.59128 0.24941 0.0
C877 C 0.88535 0.57941 0.22171 0.0
C878 C 0.88184 0.53777 0.37279 0.0
C879 C 0.87682 0.56491 0.30922 0.0
C880 C 0.88077 0.53308 0.41875 0.0
C881 C 0.87273 0.54912 0.44909 0.0
C882 C 0.87458 0.55853 0.35712 0.0
C883 C 0.8653 0.56948 0.43196 0.0
C884 C 0.86636 0.58412 0.29299 0.0
C885 C 0.89465 0.55965 0.23832 0.0
N886 N 0.86642 0.57361 0.38717 0.0
N887 N 0.89038 0.55311 0.28122 0.0
H888 H 0.3499 0.08754 0.10839 0.0
H889 H 0.38117 0.00185 0.30242 0.0
H890 H 0.38721 0.02759 0.08423 0.0
H891 H 0.37339 0.0719 0.32997 0.0
H892 H 0.37714 0.00928 0.22223 0.0
H893 H 0.35162 0.08018 0.18987 0.0
C894 C 0.35806 0.07264 0.12029 0.0
C895 C 0.36834 0.05805 0.0898 0.0
C896 C 0.37637 0.02304 0.24578 0.0
C897 C 0.37046 0.04961 0.18224 0.0
C898 C 0.37866 0.01884 0.29161 0.0
C899 C 0.37778 0.03631 0.32301 0.0
C900 C 0.37272 0.04485 0.23099 0.0
C901 C 0.37441 0.05797 0.30689 0.0
C902 C 0.35927 0.06859 0.16661 0.0
C903 C 0.37908 0.03918 0.10678 0.0
N904 N 0.37184 0.06163 0.26194 0.0
N905 N 0.3798 0.03545 0.15179 0.0
H906 H 0.42958 0.33372 0.79609 0.0
H907 H 0.4446 0.40089 0.56607 0.0
H908 H 0.47417 0.38946 0.7829 0.0
H909 H 0.40856 0.33927 0.57798 0.0
H910 H 0.45266 0.39961 0.64695 0.0
H911 H 0.41844 0.33842 0.71792 0.0
C912 C 0.4369 0.34709 0.77691 0.0
C913 C 0.45296 0.36112 0.79611 0.0
C914 C 0.44298 0.3864 0.63178 0.0
C915 C 0.44035 0.36649 0.70613 0.0
C916 C 0.43831 0.38716 0.5857 0.0
C917 C 0.42606 0.37006 0.56513 0.0
C918 C 0.43515 0.3685 0.65749 0.0
C919 C 0.41842 0.3526 0.59214 0.0
C920 C 0.43058 0.34971 0.73213 0.0
C921 C 0.4618 0.37819 0.76948 0.0
N922 N 0.42308 0.35228 0.63681 0.0
N923 N 0.45547 0.38033 0.72575 0.0
H924 H 0.07718 0.44929 0.11497 0.0
H925 H 0.15329 0.44141 0.33605 0.0
H926 H 0.14155 0.41781 0.1192 0.0
H927 H 0.09317 0.48048 0.33049 0.0
H928 H 0.14747 0.43036 0.25797 0.0
H929 H 0.08106 0.45877 0.19494 0.0
C930 C 0.09207 0.44429 0.13268 0.0
C931 C 0.10911 0.43282 0.11013 0.0
C932 C 0.13549 0.4413 0.27378 0.0
C933 C 0.11368 0.44363 0.20166 0.0
C934 C 0.13876 0.44758 0.31855 0.0
C935 C 0.12374 0.46197 0.34002 0.0
C936 C 0.11701 0.44939 0.25 0.0
C937 C 0.10522 0.46939 0.31536 0.0
C938 C 0.09432 0.4498 0.17829 0.0
C939 C 0.12814 0.42696 0.13481 0.0
N940 N 0.10241 0.46306 0.27166 0.0
N941 N 0.12987 0.43239 0.17909 0.0
H942 H 0.06099 0.08726 0.59528 0.0
H943 H 0.04772 0.16555 0.81107 0.0
H944 H 0.05986 0.15874 0.5868 0.0
H945 H 0.02245 0.09847 0.80619 0.0
H946 H 0.05872 0.16213 0.73214 0.0
H947 H 0.05324 0.09001 0.67598 0.0
C948 C 0.05938 0.10354 0.61055 0.0
C949 C 0.06113 0.12284 0.58443 0.0
C950 C 0.05086 0.14815 0.74846 0.0
C951 C 0.05226 0.12608 0.67659 0.0
C952 C 0.0447 0.15001 0.79358 0.0
C953 C 0.0341 0.13227 0.81526 0.0
C954 C 0.04672 0.12829 0.725 0.0
C955 C 0.03049 0.11259 0.79076 0.0
C956 C 0.05479 0.10509 0.65648 0.0
C957 C 0.05851 0.14351 0.60578 0.0
N958 N 0.03684 0.11111 0.74695 0.0
N959 N 0.0543 0.1446 0.65069 0.0
H960 H 0.02102 0.94007 0.17845 0.0
H961 H 0.12008 -0.00175 0.31301 0.0
H962 H 0.08606 0.91057 0.19387 0.0
H963 H 0.05186 0.02 0.322 0.0
H964 H 0.10841 0.96762 0.26466 0.0
H965 H 0.0324 0.97052 0.22709 0.0
C966 C 0.03763 0.93972 0.19227 0.0
C967 C 0.05255 0.92244 0.18176 0.0
C968 C 0.09599 0.97909 0.27721 0.0
C969 C 0.06584 0.95792 0.23717 0.0
C970 C 0.10262 -0.0034 0.305 0.0
C971 C 0.08694 0.01174 0.32213 0.0
C972 C 0.07347 0.97665 0.26602 0.0
C973 C 0.06461 0.00894 0.30948 0.0
C974 C 0.04416 0.95734 0.21995 0.0
C975 C 0.07401 0.92351 0.20039 0.0
N976 N 0.05855 0.99172 0.28229 0.0
N977 N 0.08001 0.94096 0.227 0.0
H978 H 0.57539 0.07498 0.67969 0.0
H979 H 0.47847 0.04442 0.85264 0.0
H980 H 0.56508 0.00906 0.73243 0.0
H981 H 0.4945 0.1116 0.81451 0.0
H982 H 0.50906 0.03094 0.80596 0.0
H983 H 0.5454 0.08866 0.72752 0.0
C984 C 0.56702 0.06339 0.70157 0.0
C985 C 0.57277 0.04076 0.70168 0.0
C986 C 0.50589 0.04864 0.80777 0.0
C987 C 0.53806 0.05631 0.75613 0.0
C988 C 0.48828 0.05633 0.83413 0.0
C989 C 0.48388 0.07919 0.83747 0.0
C990 C 0.51915 0.06389 0.78434 0.0
C991 C 0.49743 0.09387 0.81328 0.0
C992 C 0.54975 0.07121 0.7287 0.0
C993 C 0.56102 0.02654 0.73048 0.0
N994 N 0.51442 0.08598 0.78771 0.0
N995 N 0.54419 0.03453 0.75634 0.0
H996 H 0.43443 0.46292 0.30519 0.0
H997 H 0.40415 0.56019 0.13338 0.0
H998 H 0.37304 0.4653 0.22991 0.0
H999 H 0.46798 0.5537 0.19822 0.0
H1000 H 0.39195 0.52615 0.17033 0.0
H1001 H 0.44693 0.49601 0.26633 0.0
C1002 C 0.42362 0.47012 0.28011 0.0
C1003 C 0.40248 0.4612 0.2712 0.0
C1004 C 0.40862 0.53218 0.17653 0.0
C1005 C 0.41672 0.49965 0.22692 0.0
C1006 C 0.41552 0.55176 0.1558 0.0
C1007 C 0.43714 0.55982 0.16272 0.0
C1008 C 0.42339 0.52061 0.20459 0.0
C1009 C 0.45127 0.54795 0.19156 0.0
C1010 C 0.43077 0.48924 0.25811 0.0
C1011 C 0.38928 0.47169 0.23853 0.0
N1012 N 0.44415 0.52896 0.21142 0.0
N1013 N 0.39655 0.49041 0.2178 0.0
H1014 H 0.93882 0.47409 0.69247 0.0
H1015 H 0.98839 0.37343 0.83554 0.0
H1016 H 0.90044 0.41626 0.72847 0.0
H1017 H 0.02334 0.43484 0.81186 0.0
H1018 H 0.95689 0.38766 0.79259 0.0
H1019 H 0.97031 0.45914 0.73336 0.0
C1020 C 0.93681 0.45837 0.70945 0.0
C1021 C 0.91668 0.44657 0.70737 0.0
C1022 C 0.97147 0.398 0.79667 0.0
C1023 C 0.95324 0.42902 0.75369 0.0
C1024 C 0.98957 0.38981 0.82087 0.0
C1025 C 0.0086 0.40296 0.82733 0.0
C1026 C 0.97237 0.41949 0.77861 0.0
C1027 C 0.00896 0.42422 0.80817 0.0
C1028 C 0.95499 0.44972 0.73254 0.0
C1029 C 0.91559 0.4259 0.72901 0.0
N1030 N 0.99112 0.43181 0.78471 0.0
N1031 N 0.93361 0.41779 0.75129 0.0
H1032 H 0.9717 0.0587 0.81689 0.0
H1033 H 0.87309 0.00164 0.67914 0.0
H1034 H 0.90745 0.08935 0.79758 0.0
H1035 H 0.94104 0.97884 0.67279 0.0
H1036 H 0.88479 0.03218 0.72764 0.0
H1037 H 0.96029 0.02817 0.76848 0.0
C1038 C 0.95527 0.05928 0.80228 0.0
C1039 C 0.94057 0.07693 0.8116 0.0
C1040 C 0.89715 0.0205 0.71563 0.0
C1041 C 0.92724 0.04135 0.75645 0.0
C1042 C 0.8905 0.00303 0.68775 0.0
C1043 C 0.9061 0.98764 0.67127 0.0
C1044 C 0.91959 0.02263 0.7276 0.0
C1045 C 0.92836 0.99012 0.68475 0.0
C1046 C 0.94872 0.04162 0.77473 0.0
C1047 C 0.91932 0.07614 0.792 0.0
N1048 N 0.93443 0.0073 0.71203 0.0
N1049 N 0.9133 0.05865 0.76554 0.0
H1050 H 0.51815 0.91773 0.22379 0.0
H1051 H 0.38917 0.91328 0.28925 0.0
H1052 H 0.46972 0.87863 0.15117 0.0
H1053 H 0.43624 0.9585 0.34961 0.0
H1054 H 0.41884 0.89863 0.2412 0.0
H1055 H 0.48865 0.93133 0.2729 0.0
C1056 C 0.50134 0.91203 0.21799 0.0
C1057 C 0.4965 0.89703 0.18302 0.0
C1058 C 0.42264 0.9118 0.26492 0.0
C1059 C 0.46258 0.9124 0.23964 0.0
C1060 C 0.40573 0.92008 0.29245 0.0
C1061 C 0.41017 0.93724 0.32326 0.0
C1062 C 0.44419 0.92061 0.26849 0.0
C1063 C 0.43193 0.94556 0.3258 0.0
C1064 C 0.48449 0.91975 0.24622 0.0
C1065 C 0.47438 0.88995 0.17785 0.0
N1066 N 0.4481 0.93715 0.29886 0.0
N1067 N 0.45827 0.89772 0.20577 0.0
H1068 H 0.6182 0.48616 0.68145 0.0
H1069 H 0.51857 0.40738 0.75848 0.0
H1070 H 0.54989 0.49613 0.64237 0.0
H1071 H 0.58488 0.40311 0.8132 0.0
H1072 H 0.53044 0.43817 0.71128 0.0
H1073 H 0.6069 0.45418 0.72631 0.0
C1074 C 0.60082 0.4816 0.68236 0.0
C1075 C 0.58496 0.4938 0.65822 0.0
C1076 C 0.54242 0.43046 0.73352 0.0
C1077 C 0.5719 0.45726 0.70932 0.0
C1078 C 0.53564 0.4129 0.76054 0.0
C1079 C 0.55069 0.40278 0.79022 0.0
C1080 C 0.56444 0.43797 0.73601 0.0
C1081 C 0.57274 0.4103 0.79068 0.0
C1082 C 0.59437 0.4634 0.70802 0.0
C1083 C 0.56262 0.48736 0.66093 0.0
N1084 N 0.57893 0.42754 0.76415 0.0
N1085 N 0.55676 0.46947 0.68588 0.0
H1086 H 0.00184 0.63135 0.2252 0.0
H1087 H 0.05104 0.53145 0.37098 0.0
H1088 H 0.9657 0.5712 0.25419 0.0
H1089 H 0.08878 0.58986 0.33627 0.0
H1090 H 0.01935 0.54631 0.33028 0.0
H1091 H 0.03304 0.61744 0.26916 0.0
C1092 C 0.0003 0.61535 0.2413 0.0
C1093 C 0.98105 0.60242 0.23589 0.0
C1094 C 0.03457 0.55588 0.33139 0.0
C1095 C 0.01702 0.58619 0.28571 0.0
C1096 C 0.05283 0.54729 0.35433 0.0
C1097 C 0.0728 0.55931 0.3567 0.0
C1098 C 0.03614 0.57671 0.31066 0.0
C1099 C 0.07372 0.58007 0.33547 0.0
C1100 C 0.01826 0.60732 0.26609 0.0
C1101 C 0.98027 0.58161 0.25696 0.0
N1102 N 0.05566 0.58811 0.31328 0.0
N1103 N -0.00198 0.57413 0.28083 0.0
H1104 H 0.17064 0.06398 0.35019 0.0
H1105 H 0.28301 0.03629 0.47946 0.0
H1106 H 0.19509 0.10305 0.46208 0.0
H1107 H 0.26214 0.00298 0.35768 0.0
H1108 H 0.25091 0.06087 0.47382 0.0
H1109 H 0.20488 0.0429 0.35025 0.0
C1110 C 0.18343 0.06864 0.37406 0.0
C1111 C 0.17987 0.08547 0.40622 0.0
C1112 C 0.2533 0.04816 0.44839 0.0
C1113 C 0.21898 0.06047 0.40755 0.0
C1114 C 0.27143 0.03389 0.45194 0.0
C1115 C 0.27507 0.01737 0.41925 0.0
C1116 C 0.23865 0.04589 0.41194 0.0
C1117 C 0.25992 0.01547 0.3836 0.0
C1118 C 0.20293 0.05627 0.37443 0.0
C1119 C 0.19697 0.09008 0.43703 0.0
N1120 N 0.24233 0.02955 0.38094 0.0
N1121 N 0.2157 0.07746 0.43725 0.0
H1122 H 0.39412 0.18626 0.85804 0.0
H1123 H 0.50461 0.25063 0.93257 0.0
H1124 H 0.4367 0.16743 0.96857 0.0
H1125 H 0.4577 0.27759 0.83734 0.0
H1126 H 0.48199 0.21713 0.93771 0.0
H1127 H 0.41855 0.21816 0.84379 0.0
C1128 C 0.40835 0.18904 0.87967 0.0
C1129 C 0.41312 0.17442 0.91504 0.0
C1130 C 0.47674 0.23027 0.9153 0.0
C1131 C 0.44129 0.21024 0.89831 0.0
C1132 C 0.48973 0.24931 0.91221 0.0
C1133 C 0.4829 0.26692 0.88483 0.0
C1134 C 0.45672 0.22893 0.89106 0.0
C1135 C 0.46361 0.2643 0.85868 0.0
C1136 C 0.42233 0.20709 0.87138 0.0
C1137 C 0.43193 0.17858 0.94175 0.0
N1138 N 0.451 0.24574 0.86286 0.0
N1139 N 0.44532 0.19601 0.9327 0.0
H1140 H 0.32313 0.45561 0.53715 0.0
H1141 H 0.22685 0.52003 0.51178 0.0
H1142 H 0.30818 0.4316 0.40348 0.0
H1143 H 0.21334 0.47665 0.39898 0.0
H1144 H 0.26367 0.50341 0.51874 0.0
H1145 H 0.28926 0.47801 0.53521 0.0
C1146 C 0.31272 0.4551 0.50742 0.0
C1147 C 0.31834 0.44147 0.47073 0.0
C1148 C 0.25268 0.4974 0.49262 0.0
C1149 C 0.27991 0.46757 0.46743 0.0
C1150 C 0.23168 0.50708 0.48835 0.0
C1151 C 0.21688 0.49961 0.45498 0.0
C1152 C 0.2588 0.48001 0.46344 0.0
C1153 C 0.22419 0.48312 0.42498 0.0
C1154 C 0.29346 0.46809 0.50606 0.0
C1155 C 0.30426 0.44138 0.43306 0.0
N1156 N 0.24452 0.47381 0.43018 0.0
N1157 N 0.28576 0.45417 0.43248 0.0
H1158 H 0.00327 0.33493 0.01279 0.0
H1159 H 0.02465 0.21456 0.92557 0.0
H1160 H 0.06588 0.30162 0.03584 0.0
H1161 H 0.96129 0.22936 0.98624 0.0
H1162 H 0.03909 0.24985 0.9543 0.0
H1163 H 0.98619 0.29897 0.99655 0.0
C1164 C 0.01336 0.32011 0.0157 0.0
C1165 C 0.03627 0.32149 0.02497 0.0
C1166 C 0.02199 0.2454 0.96113 0.0
C1167 C 0.01687 0.28052 1.00444 0.0
C1168 C 0.01366 0.2255 0.94417 0.0
C1169 C 0.99171 0.21926 0.9532 0.0
C1170 C 0.00817 0.25935 0.98658 0.0
C1171 C 0.97828 0.23375 0.9784 0.0
C1172 C 0.00358 0.29962 0.00591 0.0
C1173 C 0.04839 0.30156 0.02748 0.0
N1174 N 0.98667 0.25333 0.99399 0.0
N1175 N 0.03866 0.28197 0.01623 0.0
H1176 H 0.70271 0.94799 0.66335 0.0
H1177 H 0.81761 0.92488 0.65662 0.0
H1178 H 0.72199 0.98081 0.54013 0.0
H1179 H 0.7987 0.89922 0.52567 0.0
H1180 H 0.781 0.94114 0.6642 0.0
H1181 H 0.73793 0.92807 0.66283 0.0
C1182 C 0.71431 0.9514 0.63652 0.0
C1183 C 0.70916 0.96643 0.60182 0.0
C1184 C 0.78494 0.93168 0.63416 0.0
C1185 C 0.74891 0.94252 0.60019 0.0
C1186 C 0.80581 0.92202 0.62977 0.0
C1187 C 0.81164 0.91037 0.59026 0.0
C1188 C 0.76994 0.93032 0.59843 0.0
C1189 C 0.79541 0.90837 0.55631 0.0
C1190 C 0.73426 0.93969 0.63608 0.0
C1191 C 0.72483 0.96921 0.56721 0.0
N1192 N 0.77543 0.91868 0.56078 0.0
N1193 N 0.74391 0.95715 0.567 0.0
H1194 H 0.51934 0.70072 0.00851 0.0
H1195 H 0.58252 0.79091 0.15266 0.0
H1196 H 0.50253 0.71152 0.14839 0.0
H1197 H 0.56022 0.80401 0.01674 0.0
H1198 H 0.56138 0.75618 0.15102 0.0
H1199 H 0.54193 0.73411 0.0105 0.0
C1200 C 0.51996 0.7102 0.03949 0.0
C1201 C 0.50869 0.70317 0.0783 0.0
C1202 C 0.56149 0.76673 0.1216 0.0
C1203 C 0.53573 0.74081 0.08104 0.0
C1204 C 0.57351 0.78657 0.12237 0.0
C1205 C 0.57321 0.80082 0.08495 0.0
C1206 C 0.54962 0.76084 0.08279 0.0
C1207 C 0.56158 0.79371 0.0463 0.0
C1208 C 0.53321 0.72909 0.04063 0.0
C1209 C 0.51108 0.71596 0.11777 0.0
N1210 N 0.5503 0.77427 0.04629 0.0
N1211 N 0.52452 0.73409 0.11825 0.0
H1212 H 0.76373 0.50707 0.6686 0.0
H1213 H 0.6897 0.59622 0.53663 0.0
H1214 H 0.78585 0.54299 0.55157 0.0
H1215 H 0.66657 0.559 0.65119 0.0
H1216 H 0.72657 0.57987 0.54682 0.0
H1217 H 0.72909 0.52845 0.66727 0.0
C1218 C 0.76129 0.5194 0.64263 0.0
C1219 C 0.77753 0.52297 0.60972 0.0
C1220 C 0.71348 0.57554 0.57011 0.0
C1221 C 0.73814 0.54758 0.60813 0.0
C1222 C 0.69247 0.58492 0.56433 0.0
C1223 C 0.675 0.57896 0.59297 0.0
C1224 C 0.71698 0.55997 0.60454 0.0
C1225 C 0.67956 0.56434 0.62858 0.0
C1226 C 0.74155 0.53162 0.64189 0.0
C1227 C 0.77353 0.53922 0.57689 0.0
N1228 N 0.70003 0.55517 0.63303 0.0
N1229 N 0.75425 0.55086 0.57688 0.0
H1230 H 0.99145 0.66117 0.04788 0.0
H1231 H 0.98704 0.78874 0.97711 0.0
H1232 H 0.93581 0.69103 0.97933 0.0
H1233 H 0.02537 0.76502 0.08999 0.0
H1234 H 0.97494 0.7508 0.96177 0.0
H1235 H 0.01063 0.69704 0.04685 0.0
C1236 C 0.98356 0.67515 0.03146 0.0
C1237 C 0.96203 0.67324 0.01365 0.0
C1238 C 0.98623 0.75386 0.98951 0.0
C1239 C 0.98372 0.71415 0.01283 0.0
C1240 C 0.9933 0.77547 0.99814 0.0
C1241 C 0.00725 0.78003 0.03494 0.0
C1242 C 0.99324 0.73662 0.01767 0.0
C1243 C 0.01447 0.76222 0.06153 0.0
C1244 C -0.0056 0.6956 0.03134 0.0
C1245 C 0.95236 0.69191 0.99353 0.0
N1246 N 0.00731 0.74124 0.05244 0.0
N1247 N 0.96324 0.71166 0.99385 0.0
loop_
_geom_bond_atom_site_label_1
_geom_bond_atom_site_label_2
_geom_bond_distance
_geom_bond_site_symmetry_2
_ccdc_geom_bond_type
C0 C1 1.351 . S
C0 N3 1.368 . S
C0 H5 0.931 . S
C1 C0 1.351 . S
C1 N2 1.373 . S
C1 H29 0.930 . S
N2 C1 1.373 . S
N2 C4 1.340 . S
N3 C0 1.368 . S
N3 C4 1.321 . S
N3 Co6 2.135 1_565 S
C4 N2 1.340 . S
C4 N3 1.321 . S
C4 H28 0.930 1_565 S
H5 C0 0.931 . S
Co6 N3 2.135 1_545 S
Co6 N9 2.121 . S
Co6 O14 2.055 . S
Co6 O17 2.039 . S
Co6 N20 2.140 . S
C7 O8 1.227 . S
C7 O17 1.265 . S
O8 C7 1.227 . S
N9 Co6 2.121 . S
N9 C11 1.375 . S
N9 C12 1.313 . S
C10 C11 1.338 . S
C10 N13 1.377 . S
C10 H30 0.930 . S
C11 N9 1.375 . S
C11 C10 1.338 . S
C11 H15 0.931 . S
C12 N9 1.313 . S
C12 N13 1.344 . S
C12 H16 0.930 . S
N13 C10 1.377 . S
N13 C12 1.344 . S
O14 Co6 2.055 . S
O14 C18 1.253 1_545 S
H15 C11 0.931 . S
H16 C12 0.930 . S
O17 Co6 2.039 . S
O17 C7 1.265 . S
C18 O14 1.253 1_565 S
C18 O19 1.227 . S
O19 C18 1.227 . S
N20 Co6 2.140 . S
N20 C23 1.346 . S
N20 C24 1.345 . S
C21 C22 1.387 . S
C21 C25 1.400 . S
C22 C21 1.387 . S
C22 C23 1.372 . S
C22 H31 0.927 1_545 S
C23 N20 1.346 . S
C23 C22 1.372 . S
C23 H26 0.928 . S
C24 N20 1.345 . S
C24 C25 1.371 . S
C24 H27 0.931 . S
C25 C21 1.400 . S
C25 C24 1.371 . S
C25 H32 0.930 . S
H26 C23 0.928 . S
H27 C24 0.931 . S
H28 C4 0.930 1_545 S
H29 C1 0.930 . S
H30 C10 0.930 . S
H31 C22 0.927 1_565 S
H32 C25 0.930 . S
C33 C34 1.351 . S
C33 N36 1.368 . S
C33 H38 0.931 . S
C34 C33 1.351 . S
C34 N35 1.373 . S
C34 H62 0.930 . S
N35 C34 1.373 . S
N35 C37 1.340 . S
N36 C33 1.368 . S
N36 C37 1.321 . S
N36 Co39 2.135 . S
C37 N35 1.340 . S
C37 N36 1.321 . S
C37 H61 0.930 . S
H38 C33 0.931 . S
Co39 N36 2.135 . S
Co39 N42 2.121 . S
Co39 O47 2.055 . S
Co39 O50 2.039 . S
Co39 N53 2.140 . S
C40 O41 1.227 . S
C40 O50 1.265 . S
O41 C40 1.227 . S
N42 Co39 2.121 . S
N42 C44 1.375 . S
N42 C45 1.313 1_556 S
C43 C44 1.338 1_554 S
C43 N46 1.377 . S
C43 H63 0.930 . S
C44 N42 1.375 . S
C44 C43 1.338 1_556 S
C44 H48 0.931 . S
C45 N42 1.313 1_554 S
C45 N46 1.344 . S
C45 H49 0.930 . S
N46 C43 1.377 . S
N46 C45 1.344 . S
O47 Co39 2.055 . S
O47 C51 1.253 . S
H48 C44 0.931 . S
H49 C45 0.930 . S
O50 Co39 2.039 . S
O50 C40 1.265 . S
C51 O47 1.253 . S
C51 O52 1.227 1_556 S
O52 C51 1.227 1_554 S
N53 Co39 2.140 . S
N53 C56 1.346 . S
N53 C57 1.345 . S
C54 C55 1.387 . S
C54 C58 1.391 . S
C55 C54 1.387 . S
C55 C56 1.369 . S
C55 H64 0.929 . S
C56 N53 1.346 . S
C56 C55 1.369 . S
C56 H59 0.928 . S
C57 N53 1.345 . S
C57 C58 1.371 . S
C57 H60 0.931 1_556 S
C58 C54 1.391 . S
C58 C57 1.371 . S
C58 H65 0.930 1_556 S
H59 C56 0.928 . S
H60 C57 0.931 1_554 S
H61 C37 0.930 . S
H62 C34 0.930 . S
H63 C43 0.930 . S
H64 C55 0.929 . S
H65 C58 0.930 1_554 S
C66 C67 1.351 . S
C66 N69 1.368 . S
C66 H71 0.931 . S
C67 C66 1.351 . S
C67 N68 1.373 . S
C67 H95 0.930 . S
N68 C67 1.373 . S
N68 C70 1.340 . S
N69 C66 1.368 . S
N69 C70 1.321 . S
N69 Co72 2.135 . S
C70 N68 1.340 . S
C70 N69 1.321 . S
C70 H94 0.930 . S
H71 C66 0.931 . S
Co72 N69 2.135 . S
Co72 N75 2.121 . S
Co72 O80 2.055 . S
Co72 O83 2.039 . S
Co72 N86 2.140 . S
C73 O74 1.227 . S
C73 O83 1.265 . S
O74 C73 1.227 . S
N75 Co72 2.121 . S
N75 C77 1.375 . S
N75 C78 1.313 . S
C76 C77 1.338 . S
C76 N79 1.377 . S
C76 H96 0.930 . S
C77 N75 1.375 . S
C77 C76 1.338 . S
C77 H81 0.931 . S
C78 N75 1.313 . S
C78 N79 1.344 . S
C78 H82 0.930 . S
N79 C76 1.377 . S
N79 C78 1.344 . S
O80 Co72 2.055 . S
O80 C84 1.253 . S
H81 C77 0.931 . S
H82 C78 0.930 . S
O83 Co72 2.039 . S
O83 C73 1.265 . S
C84 O80 1.253 . S
C84 O85 1.227 . S
O85 C84 1.227 . S
N86 Co72 2.140 . S
N86 C89 1.346 . S
N86 C90 1.345 . S
C87 C88 1.387 . S
C87 C91 1.391 . S
C88 C87 1.387 . S
C88 C89 1.369 . S
C88 H97 0.929 . S
C89 N86 1.346 . S
C89 C88 1.369 . S
C89 H92 0.928 . S
C90 N86 1.345 . S
C90 C91 1.371 . S
C90 H93 0.931 . S
C91 C87 1.391 . S
C91 C90 1.371 . S
C91 H98 0.930 . S
H92 C89 0.928 . S
H93 C90 0.931 . S
H94 C70 0.930 . S
H95 C67 0.930 . S
H96 C76 0.930 . S
H97 C88 0.929 . S
H98 C91 0.930 . S
C99 C100 1.351 . S
C99 N102 1.368 . S
C99 H104 0.931 . S
C100 C99 1.351 . S
C100 N101 1.373 . S
C100 H128 0.930 . S
N101 C100 1.373 . S
N101 C103 1.340 . S
N102 C99 1.368 . S
N102 C103 1.321 . S
N102 Co105 2.135 1_655 S
C103 N101 1.340 . S
C103 N102 1.321 . S
C103 H127 0.930 1_655 S
H104 C99 0.931 . S
Co105 N102 2.135 1_455 S
Co105 N108 2.121 . S
Co105 O113 2.055 . S
Co105 O116 2.039 . S
Co105 N119 2.140 . S
C106 O107 1.227 . S
C106 O116 1.265 . S
O107 C106 1.227 . S
N108 Co105 2.121 . S
N108 C110 1.375 . S
N108 C111 1.313 1_556 S
C109 C110 1.338 1_554 S
C109 N112 1.377 . S
C109 H129 0.930 . S
C110 N108 1.375 . S
C110 C109 1.338 1_556 S
C110 H114 0.931 . S
C111 N108 1.313 1_554 S
C111 N112 1.344 . S
C111 H115 0.930 . S
N112 C109 1.377 . S
N112 C111 1.344 . S
O113 Co105 2.055 . S
O113 C117 1.253 1_455 S
H114 C110 0.931 . S
H115 C111 0.930 . S
O116 Co105 2.039 . S
O116 C106 1.265 . S
C117 O113 1.253 1_655 S
C117 O118 1.227 1_556 S
O118 C117 1.227 1_554 S
N119 Co105 2.140 . S
N119 C122 1.346 . S
N119 C123 1.345 . S
C120 C121 1.387 . S
C120 C124 1.400 . S
C121 C120 1.387 . S
C121 C122 1.372 . S
C121 H130 0.927 1_455 S
C122 N119 1.346 . S
C122 C121 1.372 . S
C122 H125 0.928 . S
C123 N119 1.345 . S
C123 C124 1.371 . S
C123 H126 0.931 1_556 S
C124 C120 1.400 . S
C124 C123 1.371 . S
C124 H131 0.930 1_556 S
H125 C122 0.928 . S
H126 C123 0.931 1_554 S
H127 C103 0.930 1_455 S
H128 C100 0.930 . S
H129 C109 0.930 . S
H130 C121 0.927 1_655 S
H131 C124 0.930 1_554 S
C132 C133 1.351 . S
C132 N135 1.368 . S
C132 H137 0.931 . S
C133 C132 1.351 . S
C133 N134 1.373 . S
C133 H161 0.930 . S
N134 C133 1.373 . S
N134 C136 1.340 . S
N135 C132 1.368 . S
N135 C136 1.321 . S
N135 Co138 2.135 1_545 S
C136 N134 1.340 . S
C136 N135 1.321 . S
C136 H160 0.930 1_545 S
H137 C132 0.931 . S
Co138 N135 2.135 1_565 S
Co138 N141 2.121 . S
Co138 O146 2.055 . S
Co138 O149 2.039 . S
Co138 N152 2.140 . S
C139 O140 1.227 . S
C139 O149 1.265 . S
O140 C139 1.227 . S
N141 Co138 2.121 . S
N141 C143 1.375 . S
N141 C144 1.313 . S
C142 C143 1.338 . S
C142 N145 1.377 . S
C142 H162 0.930 . S
C143 N141 1.375 . S
C143 C142 1.338 . S
C143 H147 0.931 . S
C144 N141 1.313 . S
C144 N145 1.344 . S
C144 H148 0.930 . S
N145 C142 1.377 . S
N145 C144 1.344 . S
O146 Co138 2.055 . S
O146 C150 1.253 1_565 S
H147 C143 0.931 . S
H148 C144 0.930 . S
O149 Co138 2.039 . S
O149 C139 1.265 . S
C150 O146 1.253 1_545 S
C150 O151 1.227 . S
O151 C150 1.227 . S
N152 Co138 2.140 . S
N152 C155 1.346 . S
N152 C156 1.345 . S
C153 C154 1.387 . S
C153 C157 1.400 . S
C154 C153 1.387 . S
C154 C155 1.372 . S
C154 H163 0.927 1_565 S
C155 N152 1.346 . S
C155 C154 1.372 . S
C155 H158 0.928 . S
C156 N152 1.345 . S
C156 C157 1.371 . S
C156 H159 0.931 . S
C157 C153 1.400 . S
C157 C156 1.371 . S
C157 H164 0.930 . S
H158 C155 0.928 . S
H159 C156 0.931 . S
H160 C136 0.930 1_565 S
H161 C133 0.930 . S
H162 C142 0.930 . S
H163 C154 0.927 1_545 S
H164 C157 0.930 . S
C165 C166 1.351 . S
C165 N168 1.368 . S
C165 H170 0.931 . S
C166 C165 1.351 . S
C166 N167 1.373 . S
C166 H194 0.930 . S
N167 C166 1.373 . S
N167 C169 1.340 . S
N168 C165 1.368 . S
N168 C169 1.321 . S
N168 Co171 2.135 . S
C169 N167 1.340 . S
C169 N168 1.321 . S
C169 H193 0.930 . S
H170 C165 0.931 . S
Co171 N168 2.135 . S
Co171 N174 2.121 . S
Co171 O179 2.055 . S
Co171 O182 2.039 . S
Co171 N185 2.140 . S
C172 O173 1.227 . S
C172 O182 1.265 . S
O173 C172 1.227 . S
N174 Co171 2.121 . S
N174 C176 1.375 . S
N174 C177 1.313 1_554 S
C175 C176 1.338 1_556 S
C175 N178 1.377 . S
C175 H195 0.930 . S
C176 N174 1.375 . S
C176 C175 1.338 1_554 S
C176 H180 0.931 . S
C177 N174 1.313 1_556 S
C177 N178 1.344 . S
C177 H181 0.930 . S
N178 C175 1.377 . S
N178 C177 1.344 . S
O179 Co171 2.055 . S
O179 C183 1.253 . S
H180 C176 0.931 . S
H181 C177 0.930 . S
O182 Co171 2.039 . S
O182 C172 1.265 . S
C183 O179 1.253 . S
C183 O184 1.227 1_554 S
O184 C183 1.227 1_556 S
N185 Co171 2.140 . S
N185 C188 1.346 . S
N185 C189 1.345 . S
C186 C187 1.387 . S
C186 C190 1.391 . S
C187 C186 1.387 . S
C187 C188 1.369 . S
C187 H196 0.929 . S
C188 N185 1.346 . S
C188 C187 1.369 . S
C188 H191 0.928 . S
C189 N185 1.345 . S
C189 C190 1.371 . S
C189 H192 0.931 1_554 S
C190 C186 1.391 . S
C190 C189 1.371 . S
C190 H197 0.930 1_554 S
H191 C188 0.928 . S
H192 C189 0.931 1_556 S
H193 C169 0.930 . S
H194 C166 0.930 . S
H195 C175 0.930 . S
H196 C187 0.929 . S
H197 C190 0.930 1_556 S
C198 C199 1.351 . S
C198 N201 1.368 . S
C198 H203 0.931 . S
C199 C198 1.351 . S
C199 N200 1.373 . S
C199 H227 0.930 . S
N200 C199 1.373 . S
N200 C202 1.340 . S
N201 C198 1.368 . S
N201 C202 1.321 . S
N201 Co204 2.135 . S
C202 N200 1.340 . S
C202 N201 1.321 . S
C202 H226 0.930 . S
H203 C198 0.931 . S
Co204 N201 2.135 . S
Co204 N207 2.121 . S
Co204 O212 2.055 . S
Co204 O215 2.039 . S
Co204 N218 2.140 . S
C205 O206 1.227 . S
C205 O215 1.265 . S
O206 C205 1.227 . S
N207 Co204 2.121 . S
N207 C209 1.375 . S
N207 C210 1.313 . S
C208 C209 1.338 . S
C208 N211 1.377 . S
C208 H228 0.930 . S
C209 N207 1.375 . S
C209 C208 1.338 . S
C209 H213 0.931 . S
C210 N207 1.313 . S
C210 N211 1.344 . S
C210 H214 0.930 . S
N211 C208 1.377 . S
N211 C210 1.344 . S
O212 Co204 2.055 . S
O212 C216 1.253 . S
H213 C209 0.931 . S
H214 C210 0.930 . S
O215 Co204 2.039 . S
O215 C205 1.265 . S
C216 O212 1.253 . S
C216 O217 1.227 . S
O217 C216 1.227 . S
N218 Co204 2.140 . S
N218 C221 1.346 . S
N218 C222 1.345 . S
C219 C220 1.387 . S
C219 C223 1.391 . S
C220 C219 1.387 . S
C220 C221 1.369 . S
C220 H229 0.929 . S
C221 N218 1.346 . S
C221 C220 1.369 . S
C221 H224 0.928 . S
C222 N218 1.345 . S
C222 C223 1.371 . S
C222 H225 0.931 . S
C223 C219 1.391 . S
C223 C222 1.371 . S
C223 H230 0.930 . S
H224 C221 0.928 . S
H225 C222 0.931 . S
H226 C202 0.930 . S
H227 C199 0.930 . S
H228 C208 0.930 . S
H229 C220 0.929 . S
H230 C223 0.930 . S
C231 C232 1.351 . S
C231 N234 1.368 . S
C231 H236 0.931 . S
C232 C231 1.351 . S
C232 N233 1.373 . S
C232 H260 0.930 . S
N233 C232 1.373 . S
N233 C235 1.340 . S
N234 C231 1.368 . S
N234 C235 1.321 . S
N234 Co237 2.135 1_455 S
C235 N233 1.340 . S
C235 N234 1.321 . S
C235 H259 0.930 1_455 S
H236 C231 0.931 . S
Co237 N234 2.135 1_655 S
Co237 N240 2.121 . S
Co237 O245 2.055 . S
Co237 O248 2.039 . S
Co237 N251 2.140 . S
C238 O239 1.227 . S
C238 O248 1.265 . S
O239 C238 1.227 . S
N240 Co237 2.121 . S
N240 C242 1.375 . S
N240 C243 1.313 1_554 S
C241 C242 1.338 1_556 S
C241 N244 1.377 . S
C241 H261 0.930 . S
C242 N240 1.375 . S
C242 C241 1.338 1_554 S
C242 H246 0.931 . S
C243 N240 1.313 1_556 S
C243 N244 1.344 . S
C243 H247 0.930 . S
N244 C241 1.377 . S
N244 C243 1.344 . S
O245 Co237 2.055 . S
O245 C249 1.253 1_655 S
H246 C242 0.931 . S
H247 C243 0.930 . S
O248 Co237 2.039 . S
O248 C238 1.265 . S
C249 O245 1.253 1_455 S
C249 O250 1.227 1_554 S
O250 C249 1.227 1_556 S
N251 Co237 2.140 . S
N251 C254 1.346 . S
N251 C255 1.345 . S
C252 C253 1.387 . S
C252 C256 1.400 . S
C253 C252 1.387 . S
C253 C254 1.372 . S
C253 H262 0.927 1_655 S
C254 N251 1.346 . S
C254 C253 1.372 . S
C254 H257 0.928 . S
C255 N251 1.345 . S
C255 C256 1.371 . S
C255 H258 0.931 1_554 S
C256 C252 1.400 . S
C256 C255 1.371 . S
C256 H263 0.930 1_554 S
H257 C254 0.928 . S
H258 C255 0.931 1_556 S
H259 C235 0.930 1_655 S
H260 C232 0.930 . S
H261 C241 0.930 . S
H262 C253 0.927 1_455 S
H263 C256 0.930 1_556 S
C264 C265 1.351 . S
C264 N267 1.368 . S
C264 H269 0.931 . S
C265 C264 1.351 . S
C265 N266 1.373 . S
C265 H293 0.930 . S
N266 C265 1.373 . S
N266 C268 1.340 . S
N267 C264 1.368 . S
N267 C268 1.321 . S
N267 Co270 2.135 1_545 S
C268 N266 1.340 . S
C268 N267 1.321 . S
C268 H292 0.930 1_545 S
H269 C264 0.931 . S
Co270 N267 2.135 1_565 S
Co270 N273 2.121 . S
Co270 O278 2.055 . S
Co270 O281 2.039 . S
Co270 N284 2.140 . S
C271 O272 1.227 . S
C271 O281 1.265 . S
O272 C271 1.227 . S
N273 Co270 2.121 . S
N273 C275 1.375 . S
N273 C276 1.313 . S
C274 C275 1.338 . S
C274 N277 1.377 . S
C274 H294 0.930 . S
C275 N273 1.375 . S
C275 C274 1.338 . S
C275 H279 0.931 . S
C276 N273 1.313 . S
C276 N277 1.344 . S
C276 H280 0.930 . S
N277 C274 1.377 . S
N277 C276 1.344 . S
O278 Co270 2.055 . S
O278 C282 1.253 1_565 S
H279 C275 0.931 . S
H280 C276 0.930 . S
O281 Co270 2.039 . S
O281 C271 1.265 . S
C282 O278 1.253 1_545 S
C282 O283 1.227 . S
O283 C282 1.227 . S
N284 Co270 2.140 . S
N284 C287 1.346 . S
N284 C288 1.345 . S
C285 C286 1.387 . S
C285 C289 1.400 . S
C286 C285 1.387 . S
C286 C287 1.372 . S
C286 H295 0.927 1_565 S
C287 N284 1.346 . S
C287 C286 1.372 . S
C287 H290 0.928 . S
C288 N284 1.345 . S
C288 C289 1.371 . S
C288 H291 0.931 . S
C289 C285 1.400 . S
C289 C288 1.371 . S
C289 H296 0.930 . S
H290 C287 0.928 . S
H291 C288 0.931 . S
H292 C268 0.930 1_565 S
H293 C265 0.930 . S
H294 C274 0.930 . S
H295 C286 0.927 1_545 S
H296 C289 0.930 . S
C297 C298 1.351 . S
C297 N300 1.368 . S
C297 H302 0.931 . S
C298 C297 1.351 . S
C298 N299 1.373 . S
C298 H326 0.930 . S
N299 C298 1.373 . S
N299 C301 1.340 . S
N300 C297 1.368 . S
N300 C301 1.321 . S
N300 Co303 2.135 . S
C301 N299 1.340 . S
C301 N300 1.321 . S
C301 H325 0.930 . S
H302 C297 0.931 . S
Co303 N300 2.135 . S
Co303 N306 2.121 . S
Co303 O311 2.055 . S
Co303 O314 2.039 . S
Co303 N317 2.140 . S
C304 O305 1.227 . S
C304 O314 1.265 . S
O305 C304 1.227 . S
N306 Co303 2.121 . S
N306 C308 1.375 . S
N306 C309 1.313 1_554 S
C307 C308 1.338 1_556 S
C307 N310 1.377 . S
C307 H327 0.930 . S
C308 N306 1.375 . S
C308 C307 1.338 1_554 S
C308 H312 0.931 . S
C309 N306 1.313 1_556 S
C309 N310 1.344 . S
C309 H313 0.930 . S
N310 C307 1.377 . S
N310 C309 1.344 . S
O311 Co303 2.055 . S
O311 C315 1.253 . S
H312 C308 0.931 . S
H313 C309 0.930 . S
O314 Co303 2.039 . S
O314 C304 1.265 . S
C315 O311 1.253 . S
C315 O316 1.227 1_554 S
O316 C315 1.227 1_556 S
N317 Co303 2.140 . S
N317 C320 1.346 . S
N317 C321 1.345 . S
C318 C319 1.387 . S
C318 C322 1.391 . S
C319 C318 1.387 . S
C319 C320 1.369 . S
C319 H328 0.929 . S
C320 N317 1.346 . S
C320 C319 1.369 . S
C320 H323 0.928 . S
C321 N317 1.345 . S
C321 C322 1.371 . S
C321 H324 0.931 1_554 S
C322 C318 1.391 . S
C322 C321 1.371 . S
C322 H329 0.930 1_554 S
H323 C320 0.928 . S
H324 C321 0.931 1_556 S
H325 C301 0.930 . S
H326 C298 0.930 . S
H327 C307 0.930 . S
H328 C319 0.929 . S
H329 C322 0.930 1_556 S
C330 C331 1.351 . S
C330 N333 1.368 . S
C330 H335 0.931 . S
C331 C330 1.351 . S
C331 N332 1.373 . S
C331 H359 0.930 . S
N332 C331 1.373 . S
N332 C334 1.340 . S
N333 C330 1.368 . S
N333 C334 1.321 . S
N333 Co336 2.135 . S
C334 N332 1.340 . S
C334 N333 1.321 . S
C334 H358 0.930 . S
H335 C330 0.931 . S
Co336 N333 2.135 . S
Co336 N339 2.121 . S
Co336 O344 2.055 . S
Co336 O347 2.039 . S
Co336 N350 2.140 . S
C337 O338 1.227 . S
C337 O347 1.265 . S
O338 C337 1.227 . S
N339 Co336 2.121 . S
N339 C341 1.375 . S
N339 C342 1.313 . S
C340 C341 1.338 . S
C340 N343 1.377 . S
C340 H360 0.930 . S
C341 N339 1.375 . S
C341 C340 1.338 . S
C341 H345 0.931 . S
C342 N339 1.313 . S
C342 N343 1.344 . S
C342 H346 0.930 . S
N343 C340 1.377 . S
N343 C342 1.344 . S
O344 Co336 2.055 . S
O344 C348 1.253 . S
H345 C341 0.931 . S
H346 C342 0.930 . S
O347 Co336 2.039 . S
O347 C337 1.265 . S
C348 O344 1.253 . S
C348 O349 1.227 . S
O349 C348 1.227 . S
N350 Co336 2.140 . S
N350 C353 1.346 . S
N350 C354 1.345 . S
C351 C352 1.387 . S
C351 C355 1.391 . S
C352 C351 1.387 . S
C352 C353 1.369 . S
C352 H361 0.929 . S
C353 N350 1.346 . S
C353 C352 1.369 . S
C353 H356 0.928 . S
C354 N350 1.345 . S
C354 C355 1.371 . S
C354 H357 0.931 . S
C355 C351 1.391 . S
C355 C354 1.371 . S
C355 H362 0.930 . S
H356 C353 0.928 . S
H357 C354 0.931 . S
H358 C334 0.930 . S
H359 C331 0.930 . S
H360 C340 0.930 . S
H361 C352 0.929 . S
H362 C355 0.930 . S
C363 C364 1.351 . S
C363 N366 1.368 . S
C363 H368 0.931 . S
C364 C363 1.351 . S
C364 N365 1.373 . S
C364 H392 0.930 . S
N365 C364 1.373 . S
N365 C367 1.340 . S
N366 C363 1.368 . S
N366 C367 1.321 . S
N366 Co369 2.135 1_455 S
C367 N365 1.340 . S
C367 N366 1.321 . S
C367 H391 0.930 1_455 S
H368 C363 0.931 . S
Co369 N366 2.135 1_655 S
Co369 N372 2.121 . S
Co369 O377 2.055 . S
Co369 O380 2.039 . S
Co369 N383 2.140 . S
C370 O371 1.227 . S
C370 O380 1.265 . S
O371 C370 1.227 . S
N372 Co369 2.121 . S
N372 C374 1.375 . S
N372 C375 1.313 1_554 S
C373 C374 1.338 1_556 S
C373 N376 1.377 . S
C373 H393 0.930 . S
C374 N372 1.375 . S
C374 C373 1.338 1_554 S
C374 H378 0.931 . S
C375 N372 1.313 1_556 S
C375 N376 1.344 . S
C375 H379 0.930 . S
N376 C373 1.377 . S
N376 C375 1.344 . S
O377 Co369 2.055 . S
O377 C381 1.253 1_655 S
H378 C374 0.931 . S
H379 C375 0.930 . S
O380 Co369 2.039 . S
O380 C370 1.265 . S
C381 O377 1.253 1_455 S
C381 O382 1.227 1_554 S
O382 C381 1.227 1_556 S
N383 Co369 2.140 . S
N383 C386 1.346 . S
N383 C387 1.345 . S
C384 C385 1.387 . S
C384 C388 1.400 . S
C385 C384 1.387 . S
C385 C386 1.372 . S
C385 H394 0.927 1_655 S
C386 N383 1.346 . S
C386 C385 1.372 . S
C386 H389 0.928 . S
C387 N383 1.345 . S
C387 C388 1.371 . S
C387 H390 0.931 1_554 S
C388 C384 1.400 . S
C388 C387 1.371 . S
C388 H395 0.930 1_554 S
H389 C386 0.928 . S
H390 C387 0.931 1_556 S
H391 C367 0.930 1_655 S
H392 C364 0.930 . S
H393 C373 0.930 . S
H394 C385 0.927 1_455 S
H395 C388 0.930 1_556 S
C396 C397 1.351 . S
C396 N399 1.368 . S
C396 H401 0.931 . S
C397 C396 1.351 . S
C397 N398 1.373 . S
C397 H425 0.930 . S
N398 C397 1.373 . S
N398 C400 1.340 . S
N399 C396 1.368 . S
N399 C400 1.321 . S
N399 Co402 2.135 1_565 S
C400 N398 1.340 . S
C400 N399 1.321 . S
C400 H424 0.930 1_565 S
H401 C396 0.931 . S
Co402 N399 2.135 1_545 S
Co402 N405 2.121 . S
Co402 O410 2.055 . S
Co402 O413 2.039 . S
Co402 N416 2.140 . S
C403 O404 1.227 . S
C403 O413 1.265 . S
O404 C403 1.227 . S
N405 Co402 2.121 . S
N405 C407 1.375 . S
N405 C408 1.313 . S
C406 C407 1.338 . S
C406 N409 1.377 . S
C406 H426 0.930 . S
C407 N405 1.375 . S
C407 C406 1.338 . S
C407 H411 0.931 . S
C408 N405 1.313 . S
C408 N409 1.344 . S
C408 H412 0.930 . S
N409 C406 1.377 . S
N409 C408 1.344 . S
O410 Co402 2.055 . S
O410 C414 1.253 1_545 S
H411 C407 0.931 . S
H412 C408 0.930 . S
O413 Co402 2.039 . S
O413 C403 1.265 . S
C414 O410 1.253 1_565 S
C414 O415 1.227 . S
O415 C414 1.227 . S
N416 Co402 2.140 . S
N416 C419 1.346 . S
N416 C420 1.345 . S
C417 C418 1.387 . S
C417 C421 1.400 . S
C418 C417 1.387 . S
C418 C419 1.372 . S
C418 H427 0.927 1_545 S
C419 N416 1.346 . S
C419 C418 1.372 . S
C419 H422 0.928 . S
C420 N416 1.345 . S
C420 C421 1.371 . S
C420 H423 0.931 . S
C421 C417 1.400 . S
C421 C420 1.371 . S
C421 H428 0.930 . S
H422 C419 0.928 . S
H423 C420 0.931 . S
H424 C400 0.930 1_545 S
H425 C397 0.930 . S
H426 C406 0.930 . S
H427 C418 0.927 1_565 S
H428 C421 0.930 . S
C429 C430 1.351 . S
C429 N432 1.368 . S
C429 H434 0.931 . S
C430 C429 1.351 . S
C430 N431 1.373 . S
C430 H458 0.930 . S
N431 C430 1.373 . S
N431 C433 1.340 . S
N432 C429 1.368 . S
N432 C433 1.321 . S
N432 Co435 2.135 . S
C433 N431 1.340 . S
C433 N432 1.321 . S
C433 H457 0.930 . S
H434 C429 0.931 . S
Co435 N432 2.135 . S
Co435 N438 2.121 . S
Co435 O443 2.055 . S
Co435 O446 2.039 . S
Co435 N449 2.140 . S
C436 O437 1.227 . S
C436 O446 1.265 . S
O437 C436 1.227 . S
N438 Co435 2.121 . S
N438 C440 1.375 . S
N438 C441 1.313 1_556 S
C439 C440 1.338 1_554 S
C439 N442 1.377 . S
C439 H459 0.930 . S
C440 N438 1.375 . S
C440 C439 1.338 1_556 S
C440 H444 0.931 . S
C441 N438 1.313 1_554 S
C441 N442 1.344 . S
C441 H445 0.930 . S
N442 C439 1.377 . S
N442 C441 1.344 . S
O443 Co435 2.055 . S
O443 C447 1.253 . S
H444 C440 0.931 . S
H445 C441 0.930 . S
O446 Co435 2.039 . S
O446 C436 1.265 . S
C447 O443 1.253 . S
C447 O448 1.227 1_556 S
O448 C447 1.227 1_554 S
N449 Co435 2.140 . S
N449 C452 1.346 . S
N449 C453 1.345 . S
C450 C451 1.387 . S
C450 C454 1.391 . S
C451 C450 1.387 . S
C451 C452 1.369 . S
C451 H460 0.929 . S
C452 N449 1.346 . S
C452 C451 1.369 . S
C452 H455 0.928 . S
C453 N449 1.345 . S
C453 C454 1.371 . S
C453 H456 0.931 1_556 S
C454 C450 1.391 . S
C454 C453 1.371 . S
C454 H461 0.930 1_556 S
H455 C452 0.928 . S
H456 C453 0.931 1_554 S
H457 C433 0.930 . S
H458 C430 0.930 . S
H459 C439 0.930 . S
H460 C451 0.929 . S
H461 C454 0.930 1_554 S
C462 C463 1.351 . S
C462 N465 1.368 . S
C462 H467 0.931 . S
C463 C462 1.351 . S
C463 N464 1.373 . S
C463 H491 0.930 . S
N464 C463 1.373 . S
N464 C466 1.340 . S
N465 C462 1.368 . S
N465 C466 1.321 . S
N465 Co468 2.135 . S
C466 N464 1.340 . S
C466 N465 1.321 . S
C466 H490 0.930 . S
H467 C462 0.931 . S
Co468 N465 2.135 . S
Co468 N471 2.121 . S
Co468 O476 2.055 . S
Co468 O479 2.039 . S
Co468 N482 2.140 . S
C469 O470 1.227 . S
C469 O479 1.265 . S
O470 C469 1.227 . S
N471 Co468 2.121 . S
N471 C473 1.375 . S
N471 C474 1.313 . S
C472 C473 1.338 . S
C472 N475 1.377 . S
C472 H492 0.930 . S
C473 N471 1.375 . S
C473 C472 1.338 . S
C473 H477 0.931 . S
C474 N471 1.313 . S
C474 N475 1.344 . S
C474 H478 0.930 . S
N475 C472 1.377 . S
N475 C474 1.344 . S
O476 Co468 2.055 . S
O476 C480 1.253 . S
H477 C473 0.931 . S
H478 C474 0.930 . S
O479 Co468 2.039 . S
O479 C469 1.265 . S
C480 O476 1.253 . S
C480 O481 1.227 . S
O481 C480 1.227 . S
N482 Co468 2.140 . S
N482 C485 1.346 . S
N482 C486 1.345 . S
C483 C484 1.387 . S
C483 C487 1.391 . S
C484 C483 1.387 . S
C484 C485 1.369 . S
C484 H493 0.929 . S
C485 N482 1.346 . S
C485 C484 1.369 . S
C485 H488 0.928 . S
C486 N482 1.345 . S
C486 C487 1.371 . S
C486 H489 0.931 . S
C487 C483 1.391 . S
C487 C486 1.371 . S
C487 H494 0.930 . S
H488 C485 0.928 . S
H489 C486 0.931 . S
H490 C466 0.930 . S
H491 C463 0.930 . S
H492 C472 0.930 . S
H493 C484 0.929 . S
H494 C487 0.930 . S
C495 C496 1.351 . S
C495 N498 1.368 . S
C495 H500 0.931 . S
C496 C495 1.351 . S
C496 N497 1.373 . S
C496 H524 0.930 . S
N497 C496 1.373 . S
N497 C499 1.340 . S
N498 C495 1.368 . S
N498 C499 1.321 . S
N498 Co501 2.135 1_655 S
C499 N497 1.340 . S
C499 N498 1.321 . S
C499 H523 0.930 1_655 S
H500 C495 0.931 . S
Co501 N498 2.135 1_455 S
Co501 N504 2.121 . S
Co501 O509 2.055 . S
Co501 O512 2.039 . S
Co501 N515 2.140 . S
C502 O503 1.227 . S
C502 O512 1.265 . S
O503 C502 1.227 . S
N504 Co501 2.121 . S
N504 C506 1.375 . S
N504 C507 1.313 1_556 S
C505 C506 1.338 1_554 S
C505 N508 1.377 . S
C505 H525 0.930 . S
C506 N504 1.375 . S
C506 C505 1.338 1_556 S
C506 H510 0.931 . S
C507 N504 1.313 1_554 S
C507 N508 1.344 . S
C507 H511 0.930 . S
N508 C505 1.377 . S
N508 C507 1.344 . S
O509 Co501 2.055 . S
O509 C513 1.253 1_455 S
H510 C506 0.931 . S
H511 C507 0.930 . S
O512 Co501 2.039 . S
O512 C502 1.265 . S
C513 O509 1.253 1_655 S
C513 O514 1.227 1_556 S
O514 C513 1.227 1_554 S
N515 Co501 2.140 . S
N515 C518 1.346 . S
N515 C519 1.345 . S
C516 C517 1.387 . S
C516 C520 1.400 . S
C517 C516 1.387 . S
C517 C518 1.372 . S
C517 H526 0.927 1_455 S
C518 N515 1.346 . S
C518 C517 1.372 . S
C518 H521 0.928 . S
C519 N515 1.345 . S
C519 C520 1.371 . S
C519 H522 0.931 1_556 S
C520 C516 1.400 . S
C520 C519 1.371 . S
C520 H527 0.930 1_556 S
H521 C518 0.928 . S
H522 C519 0.931 1_554 S
H523 C499 0.930 1_455 S
H524 C496 0.930 . S
H525 C505 0.930 . S
H526 C517 0.927 1_655 S
H527 C520 0.930 1_554 S
H528 C534 0.930 . S
H529 C538 0.930 . S
H530 C543 0.929 . S
H531 C541 0.929 . S
H532 C536 0.929 . S
H533 C542 0.929 . S
C534 H528 0.930 . S
C534 C535 1.367 . S
C534 C542 1.378 . S
C535 C534 1.367 . S
C535 C543 1.433 1_545 S
C536 H532 0.929 . S
C536 C538 1.378 . S
C536 C540 1.350 . S
C537 C540 1.463 1_645 S
C537 C542 1.350 . S
C537 N545 1.427 1_545 S
C538 H529 0.930 . S
C538 C536 1.378 . S
C538 C539 1.367 . S
C539 C538 1.367 . S
C539 C541 1.433 1_565 S
C540 C536 1.350 . S
C540 C537 1.463 1_465 S
C540 N544 1.427 1_565 S
C541 H531 0.929 . S
C541 C539 1.433 1_545 S
C541 N544 1.384 . S
C542 H533 0.929 . S
C542 C534 1.378 . S
C542 C537 1.350 . S
C543 H530 0.929 . S
C543 C535 1.433 1_565 S
C543 N545 1.384 . S
N544 C540 1.427 1_545 S
N544 C541 1.384 . S
N545 C537 1.427 1_565 S
N545 C543 1.384 . S
H546 C552 0.930 . S
H547 C556 0.930 . S
H548 C561 0.929 . S
H549 C559 0.929 . S
H550 C554 0.929 . S
H551 C560 0.929 . S
C552 H546 0.930 . S
C552 C553 1.367 1_556 S
C552 C560 1.378 . S
C553 C552 1.367 1_554 S
C553 C561 1.433 . S
C554 H550 0.929 . S
C554 C556 1.378 . S
C554 C558 1.340 1_554 S
C555 C558 1.461 1_544 S
C555 C560 1.340 1_554 S
C555 N563 1.440 . S
C556 H547 0.930 . S
C556 C554 1.378 . S
C556 C557 1.367 1_554 S
C557 C556 1.367 1_556 S
C557 C559 1.433 . S
C558 C554 1.340 1_556 S
C558 C555 1.461 1_566 S
C558 N562 1.440 . S
C559 H549 0.929 . S
C559 C557 1.433 . S
C559 N562 1.384 . S
C560 H551 0.929 . S
C560 C552 1.378 . S
C560 C555 1.340 1_556 S
C561 H548 0.929 . S
C561 C553 1.433 . S
C561 N563 1.384 . S
N562 C558 1.440 . S
N562 C559 1.384 . S
N563 C555 1.440 . S
N563 C561 1.384 . S
H564 C570 0.930 . S
H565 C574 0.930 . S
H566 C579 0.929 . S
H567 C577 0.929 . S
H568 C572 0.929 . S
H569 C578 0.929 . S
C570 H564 0.930 . S
C570 C571 1.367 . S
C570 C578 1.378 . S
C571 C570 1.367 . S
C571 C579 1.433 . S
C572 H568 0.929 . S
C572 C574 1.378 . S
C572 C576 1.350 . S
C573 C576 1.463 . S
C573 C578 1.350 . S
C573 N581 1.427 . S
C574 H565 0.930 . S
C574 C572 1.378 . S
C574 C575 1.367 . S
C575 C574 1.367 . S
C575 C577 1.433 . S
C576 C572 1.350 . S
C576 C573 1.463 . S
C576 N580 1.427 . S
C577 H567 0.929 . S
C577 C575 1.433 . S
C577 N580 1.384 . S
C578 H569 0.929 . S
C578 C570 1.378 . S
C578 C573 1.350 . S
C579 H566 0.929 . S
C579 C571 1.433 . S
C579 N581 1.384 . S
N580 C576 1.427 . S
N580 C577 1.384 . S
N581 C573 1.427 . S
N581 C579 1.384 . S
H582 C588 0.930 . S
H583 C592 0.930 . S
H584 C597 0.929 . S
H585 C595 0.929 . S
H586 C590 0.929 . S
H587 C596 0.929 . S
C588 H582 0.930 . S
C588 C589 1.367 . S
C588 C596 1.378 . S
C589 C588 1.367 . S
C589 C597 1.433 1_456 S
C590 H586 0.929 . S
C590 C592 1.378 . S
C590 C594 1.350 . S
C591 C594 1.463 1_456 S
C591 C596 1.350 . S
C591 N599 1.427 1_456 S
C592 H583 0.930 . S
C592 C590 1.378 . S
C592 C593 1.367 . S
C593 C592 1.367 . S
C593 C595 1.433 1_654 S
C594 C590 1.350 . S
C594 C591 1.463 1_654 S
C594 N598 1.427 1_654 S
C595 H585 0.929 . S
C595 C593 1.433 1_456 S
C595 N598 1.384 . S
C596 H587 0.929 . S
C596 C588 1.378 . S
C596 C591 1.350 . S
C597 H584 0.929 . S
C597 C589 1.433 1_654 S
C597 N599 1.384 . S
N598 C594 1.427 1_456 S
N598 C595 1.384 . S
N599 C591 1.427 1_654 S
N599 C597 1.384 . S
H600 C606 0.930 . S
H601 C610 0.930 . S
H602 C615 0.929 . S
H603 C613 0.929 . S
H604 C608 0.929 . S
H605 C614 0.929 . S
C606 H600 0.930 . S
C606 C607 1.367 1_565 S
C606 C614 1.378 . S
C607 C606 1.367 1_545 S
C607 C615 1.433 . S
C608 H604 0.929 . S
C608 C610 1.378 . S
C608 C612 1.350 1_545 S
C609 C612 1.463 1_545 S
C609 C614 1.350 1_545 S
C609 N617 1.427 . S
C610 H601 0.930 . S
C610 C608 1.378 . S
C610 C611 1.367 1_545 S
C611 C610 1.367 1_565 S
C611 C613 1.433 . S
C612 C608 1.350 1_565 S
C612 C609 1.463 1_565 S
C612 N616 1.427 . S
C613 H603 0.929 . S
C613 C611 1.433 . S
C613 N616 1.384 . S
C614 H605 0.929 . S
C614 C606 1.378 . S
C614 C609 1.350 1_565 S
C615 H602 0.929 . S
C615 C607 1.433 . S
C615 N617 1.384 . S
N616 C612 1.427 . S
N616 C613 1.384 . S
N617 C609 1.427 . S
N617 C615 1.384 . S
H618 C624 0.930 . S
H619 C628 0.930 . S
H620 C633 0.929 . S
H621 C631 0.929 . S
H622 C626 0.927 1_556 S
H623 C632 0.927 1_554 S
C624 H618 0.930 . S
C624 C625 1.367 . S
C624 C632 1.379 . S
C625 C624 1.367 . S
C625 C633 1.433 . S
C626 H622 0.927 1_554 S
C626 C628 1.379 . S
C626 C630 1.350 . S
C627 C630 1.463 1_556 S
C627 C632 1.350 . S
C627 N635 1.427 . S
C628 H619 0.930 . S
C628 C626 1.379 . S
C628 C629 1.367 . S
C629 C628 1.367 . S
C629 C631 1.433 . S
C630 C626 1.350 . S
C630 C627 1.463 1_554 S
C630 N634 1.427 . S
C631 H621 0.929 . S
C631 C629 1.433 . S
C631 N634 1.384 . S
C632 H623 0.927 1_556 S
C632 C624 1.379 . S
C632 C627 1.350 . S
C633 H620 0.929 . S
C633 C625 1.433 . S
C633 N635 1.384 . S
N634 C630 1.427 . S
N634 C631 1.384 . S
N635 C627 1.427 . S
N635 C633 1.384 . S
H636 C642 0.930 . S
H637 C646 0.930 . S
H638 C651 0.929 . S
H639 C649 0.929 . S
H640 C644 0.929 . S
H641 C650 0.929 . S
C642 H636 0.930 . S
C642 C643 1.367 . S
C642 C650 1.378 . S
C643 C642 1.367 . S
C643 C651 1.433 . S
C644 H640 0.929 . S
C644 C646 1.378 . S
C644 C648 1.350 . S
C645 C648 1.463 1_655 S
C645 C650 1.350 . S
C645 N653 1.427 . S
C646 H637 0.930 . S
C646 C644 1.378 . S
C646 C647 1.367 . S
C647 C646 1.367 . S
C647 C649 1.433 . S
C648 C644 1.350 . S
C648 C645 1.463 1_455 S
C648 N652 1.427 . S
C649 H639 0.929 . S
C649 C647 1.433 . S
C649 N652 1.384 . S
C650 H641 0.929 . S
C650 C642 1.378 . S
C650 C645 1.350 . S
C651 H638 0.929 . S
C651 C643 1.433 . S
C651 N653 1.384 . S
N652 C648 1.427 . S
N652 C649 1.384 . S
N653 C645 1.427 . S
N653 C651 1.384 . S
H654 C660 0.930 . S
H655 C664 0.930 . S
H656 C669 0.929 . S
H657 C667 0.929 . S
H658 C662 0.929 . S
H659 C668 0.929 . S
C660 H654 0.930 . S
C660 C661 1.367 1_655 S
C660 C668 1.378 . S
C661 C660 1.367 1_455 S
C661 C669 1.433 1_556 S
C662 H658 0.929 . S
C662 C664 1.378 . S
C662 C666 1.350 1_455 S
C663 C666 1.463 1_466 S
C663 C668 1.350 1_455 S
C663 N671 1.427 1_556 S
C664 H655 0.930 . S
C664 C662 1.378 . S
C664 C665 1.367 1_455 S
C665 C664 1.367 1_655 S
C665 C667 1.433 1_554 S
C666 C662 1.350 1_655 S
C666 C663 1.463 1_644 S
C666 N670 1.427 1_554 S
C667 H657 0.929 . S
C667 C665 1.433 1_556 S
C667 N670 1.384 . S
C668 H659 0.929 . S
C668 C660 1.378 . S
C668 C663 1.350 1_655 S
C669 H656 0.929 . S
C669 C661 1.433 1_554 S
C669 N671 1.384 . S
N670 C666 1.427 1_556 S
N670 C667 1.384 . S
N671 C663 1.427 1_554 S
N671 C669 1.384 . S
H672 C678 0.930 . S
H673 C682 0.930 . S
H674 C687 0.929 . S
H675 C685 0.929 . S
H676 C680 0.929 . S
H677 C686 0.929 . S
C678 H672 0.930 . S
C678 C679 1.367 . S
C678 C686 1.378 . S
C679 C678 1.367 . S
C679 C687 1.433 . S
C680 H676 0.929 . S
C680 C682 1.378 . S
C680 C684 1.350 . S
C681 C684 1.463 . S
C681 C686 1.350 . S
C681 N689 1.427 . S
C682 H673 0.930 . S
C682 C680 1.378 . S
C682 C683 1.367 . S
C683 C682 1.367 . S
C683 C685 1.433 . S
C684 C680 1.350 . S
C684 C681 1.463 . S
C684 N688 1.427 . S
C685 H675 0.929 . S
C685 C683 1.433 . S
C685 N688 1.384 . S
C686 H677 0.929 . S
C686 C678 1.378 . S
C686 C681 1.350 . S
C687 H674 0.929 . S
C687 C679 1.433 . S
C687 N689 1.384 . S
N688 C684 1.427 . S
N688 C685 1.384 . S
N689 C681 1.427 . S
N689 C687 1.384 . S
H690 C696 0.930 . S
H691 C700 0.930 . S
H692 C705 0.929 . S
H693 C703 0.929 . S
H694 C698 0.929 . S
H695 C704 0.929 . S
C696 H690 0.930 . S
C696 C697 1.367 . S
C696 C704 1.378 . S
C697 C696 1.367 . S
C697 C705 1.433 . S
C698 H694 0.929 . S
C698 C700 1.378 . S
C698 C702 1.350 . S
C699 C702 1.463 . S
C699 C704 1.350 . S
C699 N707 1.427 . S
C700 H691 0.930 . S
C700 C698 1.378 . S
C700 C701 1.367 . S
C701 C700 1.367 . S
C701 C703 1.433 . S
C702 C698 1.350 . S
C702 C699 1.463 . S
C702 N706 1.427 . S
C703 H693 0.929 . S
C703 C701 1.433 . S
C703 N706 1.384 . S
C704 H695 0.929 . S
C704 C696 1.378 . S
C704 C699 1.350 . S
C705 H692 0.929 . S
C705 C697 1.433 . S
C705 N707 1.384 . S
N706 C702 1.427 . S
N706 C703 1.384 . S
N707 C699 1.427 . S
N707 C705 1.384 . S
H708 C714 0.930 . S
H709 C718 0.930 . S
H710 C723 0.929 . S
H711 C721 0.929 . S
H712 C716 0.929 . S
H713 C722 0.929 . S
C714 H708 0.930 . S
C714 C715 1.367 . S
C714 C722 1.378 . S
C715 C714 1.367 . S
C715 C723 1.433 . S
C716 H712 0.929 . S
C716 C718 1.378 . S
C716 C720 1.350 . S
C717 C720 1.463 . S
C717 C722 1.350 . S
C717 N725 1.427 . S
C718 H709 0.930 . S
C718 C716 1.378 . S
C718 C719 1.367 . S
C719 C718 1.367 . S
C719 C721 1.433 . S
C720 C716 1.350 . S
C720 C717 1.463 . S
C720 N724 1.427 . S
C721 H711 0.929 . S
C721 C719 1.433 . S
C721 N724 1.384 . S
C722 H713 0.929 . S
C722 C714 1.378 . S
C722 C717 1.350 . S
C723 H710 0.929 . S
C723 C715 1.433 . S
C723 N725 1.384 . S
N724 C720 1.427 . S
N724 C721 1.384 . S
N725 C717 1.427 . S
N725 C723 1.384 . S
H726 C732 0.930 . S
H727 C736 0.930 . S
H728 C741 0.929 . S
H729 C739 0.929 . S
H730 C734 0.929 . S
H731 C740 0.929 . S
C732 H726 0.930 . S
C732 C733 1.367 . S
C732 C740 1.378 . S
C733 C732 1.367 . S
C733 C741 1.433 . S
C734 H730 0.929 . S
C734 C736 1.378 . S
C734 C738 1.350 . S
C735 C738 1.463 . S
C735 C740 1.350 . S
C735 N743 1.427 . S
C736 H727 0.930 . S
C736 C734 1.378 . S
C736 C737 1.367 . S
C737 C736 1.367 . S
C737 C739 1.433 . S
C738 C734 1.350 . S
C738 C735 1.463 . S
C738 N742 1.427 . S
C739 H729 0.929 . S
C739 C737 1.433 . S
C739 N742 1.384 . S
C740 H731 0.929 . S
C740 C732 1.378 . S
C740 C735 1.350 . S
C741 H728 0.929 . S
C741 C733 1.433 . S
C741 N743 1.384 . S
N742 C738 1.427 . S
N742 C739 1.384 . S
N743 C735 1.427 . S
N743 C741 1.384 . S
H744 C750 0.930 . S
H745 C754 0.930 . S
H746 C759 0.929 . S
H747 C757 0.929 . S
H748 C752 0.929 . S
H749 C758 0.929 . S
C750 H744 0.930 . S
C750 C751 1.367 . S
C750 C758 1.378 . S
C751 C750 1.367 . S
C751 C759 1.433 . S
C752 H748 0.929 . S
C752 C754 1.378 . S
C752 C756 1.350 . S
C753 C756 1.463 . S
C753 C758 1.350 . S
C753 N761 1.427 . S
C754 H745 0.930 . S
C754 C752 1.378 . S
C754 C755 1.367 . S
C755 C754 1.367 . S
C755 C757 1.433 . S
C756 C752 1.350 . S
C756 C753 1.463 . S
C756 N760 1.427 . S
C757 H747 0.929 . S
C757 C755 1.433 . S
C757 N760 1.384 . S
C758 H749 0.929 . S
C758 C750 1.378 . S
C758 C753 1.350 . S
C759 H746 0.929 . S
C759 C751 1.433 . S
C759 N761 1.384 . S
N760 C756 1.427 . S
N760 C757 1.384 . S
N761 C753 1.427 . S
N761 C759 1.384 . S
H762 C768 0.930 . S
H763 C772 0.930 . S
H764 C777 0.929 . S
H765 C775 0.929 . S
H766 C770 0.929 . S
H767 C776 0.929 . S
C768 H762 0.930 . S
C768 C769 1.367 . S
C768 C776 1.378 . S
C769 C768 1.367 . S
C769 C777 1.433 . S
C770 H766 0.929 . S
C770 C772 1.378 . S
C770 C774 1.350 . S
C771 C774 1.463 . S
C771 C776 1.350 . S
C771 N779 1.427 . S
C772 H763 0.930 . S
C772 C770 1.378 . S
C772 C773 1.367 . S
C773 C772 1.367 . S
C773 C775 1.433 . S
C774 C770 1.350 . S
C774 C771 1.463 . S
C774 N778 1.427 . S
C775 H765 0.929 . S
C775 C773 1.433 . S
C775 N778 1.384 . S
C776 H767 0.929 . S
C776 C768 1.378 . S
C776 C771 1.350 . S
C777 H764 0.929 . S
C777 C769 1.433 . S
C777 N779 1.384 . S
N778 C774 1.427 . S
N778 C775 1.384 . S
N779 C771 1.427 . S
N779 C777 1.384 . S
H780 C786 0.930 . S
H781 C790 0.930 . S
H782 C795 0.929 . S
H783 C793 0.929 . S
H784 C788 0.929 . S
H785 C794 0.929 . S
C786 H780 0.930 . S
C786 C787 1.367 . S
C786 C794 1.378 . S
C787 C786 1.367 . S
C787 C795 1.433 . S
C788 H784 0.929 . S
C788 C790 1.378 . S
C788 C792 1.350 . S
C789 C792 1.463 . S
C789 C794 1.350 . S
C789 N797 1.427 . S
C790 H781 0.930 . S
C790 C788 1.378 . S
C790 C791 1.367 . S
C791 C790 1.367 . S
C791 C793 1.433 . S
C792 C788 1.350 . S
C792 C789 1.463 . S
C792 N796 1.427 . S
C793 H783 0.929 . S
C793 C791 1.433 . S
C793 N796 1.384 . S
C794 H785 0.929 . S
C794 C786 1.378 . S
C794 C789 1.350 . S
C795 H782 0.929 . S
C795 C787 1.433 . S
C795 N797 1.384 . S
N796 C792 1.427 . S
N796 C793 1.384 . S
N797 C789 1.427 . S
N797 C795 1.384 . S
H798 C804 0.930 . S
H799 C808 0.930 . S
H800 C813 0.929 . S
H801 C811 0.929 . S
H802 C806 0.929 . S
H803 C812 0.929 . S
C804 H798 0.930 . S
C804 C805 1.367 . S
C804 C812 1.378 . S
C805 C804 1.367 . S
C805 C813 1.433 . S
C806 H802 0.929 . S
C806 C808 1.378 . S
C806 C810 1.350 . S
C807 C810 1.463 . S
C807 C812 1.350 . S
C807 N815 1.427 . S
C808 H799 0.930 . S
C808 C806 1.378 . S
C808 C809 1.367 . S
C809 C808 1.367 . S
C809 C811 1.433 . S
C810 C806 1.350 . S
C810 C807 1.463 . S
C810 N814 1.427 . S
C811 H801 0.929 . S
C811 C809 1.433 . S
C811 N814 1.384 . S
C812 H803 0.929 . S
C812 C804 1.378 . S
C812 C807 1.350 . S
C813 H800 0.929 . S
C813 C805 1.433 . S
C813 N815 1.384 . S
N814 C810 1.427 . S
N814 C811 1.384 . S
N815 C807 1.427 . S
N815 C813 1.384 . S
H816 C822 0.930 . S
H817 C826 0.930 . S
H818 C831 0.929 . S
H819 C829 0.929 . S
H820 C824 0.929 . S
H821 C830 0.929 . S
C822 H816 0.930 . S
C822 C823 1.367 . S
C822 C830 1.378 . S
C823 C822 1.367 . S
C823 C831 1.433 . S
C824 H820 0.929 . S
C824 C826 1.378 . S
C824 C828 1.350 . S
C825 C828 1.463 . S
C825 C830 1.350 . S
C825 N833 1.427 . S
C826 H817 0.930 . S
C826 C824 1.378 . S
C826 C827 1.367 . S
C827 C826 1.367 . S
C827 C829 1.433 . S
C828 C824 1.350 . S
C828 C825 1.463 . S
C828 N832 1.427 . S
C829 H819 0.929 . S
C829 C827 1.433 . S
C829 N832 1.384 . S
C830 H821 0.929 . S
C830 C822 1.378 . S
C830 C825 1.350 . S
C831 H818 0.929 . S
C831 C823 1.433 . S
C831 N833 1.384 . S
N832 C828 1.427 . S
N832 C829 1.384 . S
N833 C825 1.427 . S
N833 C831 1.384 . S
H834 C840 0.930 . S
H835 C844 0.930 . S
H836 C849 0.929 . S
H837 C847 0.929 . S
H838 C842 0.929 . S
H839 C848 0.929 . S
C840 H834 0.930 . S
C840 C841 1.367 . S
C840 C848 1.378 . S
C841 C840 1.367 . S
C841 C849 1.433 . S
C842 H838 0.929 . S
C842 C844 1.378 . S
C842 C846 1.350 . S
C843 C846 1.463 . S
C843 C848 1.350 . S
C843 N851 1.427 . S
C844 H835 0.930 . S
C844 C842 1.378 . S
C844 C845 1.367 . S
C845 C844 1.367 . S
C845 C847 1.433 . S
C846 C842 1.350 . S
C846 C843 1.463 . S
C846 N850 1.427 . S
C847 H837 0.929 . S
C847 C845 1.433 . S
C847 N850 1.384 . S
C848 H839 0.929 . S
C848 C840 1.378 . S
C848 C843 1.350 . S
C849 H836 0.929 . S
C849 C841 1.433 . S
C849 N851 1.384 . S
N850 C846 1.427 . S
N850 C847 1.384 . S
N851 C843 1.427 . S
N851 C849 1.384 . S
H852 C858 0.930 . S
H853 C862 0.930 . S
H854 C867 0.929 . S
H855 C865 0.929 . S
H856 C860 0.929 . S
H857 C866 0.929 . S
C858 H852 0.930 . S
C858 C859 1.367 . S
C858 C866 1.378 . S
C859 C858 1.367 . S
C859 C867 1.433 . S
C860 H856 0.929 . S
C860 C862 1.378 . S
C860 C864 1.350 . S
C861 C864 1.463 . S
C861 C866 1.350 . S
C861 N869 1.427 . S
C862 H853 0.930 . S
C862 C860 1.378 . S
C862 C863 1.367 . S
C863 C862 1.367 . S
C863 C865 1.433 . S
C864 C860 1.350 . S
C864 C861 1.463 . S
C864 N868 1.427 . S
C865 H855 0.929 . S
C865 C863 1.433 . S
C865 N868 1.384 . S
C866 H857 0.929 . S
C866 C858 1.378 . S
C866 C861 1.350 . S
C867 H854 0.929 . S
C867 C859 1.433 . S
C867 N869 1.384 . S
N868 C864 1.427 . S
N868 C865 1.384 . S
N869 C861 1.427 . S
N869 C867 1.384 . S
H870 C876 0.930 . S
H871 C880 0.930 . S
H872 C885 0.929 . S
H873 C883 0.929 . S
H874 C878 0.929 . S
H875 C884 0.929 . S
C876 H870 0.930 . S
C876 C877 1.367 . S
C876 C884 1.378 . S
C877 C876 1.367 . S
C877 C885 1.433 . S
C878 H874 0.929 . S
C878 C880 1.378 . S
C878 C882 1.350 . S
C879 C882 1.463 . S
C879 C884 1.350 . S
C879 N887 1.427 . S
C880 H871 0.930 . S
C880 C878 1.378 . S
C880 C881 1.367 . S
C881 C880 1.367 . S
C881 C883 1.433 . S
C882 C878 1.350 . S
C882 C879 1.463 . S
C882 N886 1.427 . S
C883 H873 0.929 . S
C883 C881 1.433 . S
C883 N886 1.384 . S
C884 H875 0.929 . S
C884 C876 1.378 . S
C884 C879 1.350 . S
C885 H872 0.929 . S
C885 C877 1.433 . S
C885 N887 1.384 . S
N886 C882 1.427 . S
N886 C883 1.384 . S
N887 C879 1.427 . S
N887 C885 1.384 . S
H888 C894 0.930 . S
H889 C898 0.930 . S
H890 C903 0.929 . S
H891 C901 0.929 . S
H892 C896 0.929 . S
H893 C902 0.929 . S
C894 H888 0.930 . S
C894 C895 1.367 . S
C894 C902 1.378 . S
C895 C894 1.367 . S
C895 C903 1.433 . S
C896 H892 0.929 . S
C896 C898 1.378 . S
C896 C900 1.350 . S
C897 C900 1.463 . S
C897 C902 1.350 . S
C897 N905 1.427 . S
C898 H889 0.930 . S
C898 C896 1.378 . S
C898 C899 1.367 . S
C899 C898 1.367 . S
C899 C901 1.433 . S
C900 C896 1.350 . S
C900 C897 1.463 . S
C900 N904 1.427 . S
C901 H891 0.929 . S
C901 C899 1.433 . S
C901 N904 1.384 . S
C902 H893 0.929 . S
C902 C894 1.378 . S
C902 C897 1.350 . S
C903 H890 0.929 . S
C903 C895 1.433 . S
C903 N905 1.384 . S
N904 C900 1.427 . S
N904 C901 1.384 . S
N905 C897 1.427 . S
N905 C903 1.384 . S
H906 C912 0.930 . S
H907 C916 0.930 . S
H908 C921 0.929 . S
H909 C919 0.929 . S
H910 C914 0.929 . S
H911 C920 0.929 . S
C912 H906 0.930 . S
C912 C913 1.367 . S
C912 C920 1.378 . S
C913 C912 1.367 . S
C913 C921 1.433 . S
C914 H910 0.929 . S
C914 C916 1.378 . S
C914 C918 1.350 . S
C915 C918 1.463 . S
C915 C920 1.350 . S
C915 N923 1.427 . S
C916 H907 0.930 . S
C916 C914 1.378 . S
C916 C917 1.367 . S
C917 C916 1.367 . S
C917 C919 1.433 . S
C918 C914 1.350 . S
C918 C915 1.463 . S
C918 N922 1.427 . S
C919 H909 0.929 . S
C919 C917 1.433 . S
C919 N922 1.384 . S
C920 H911 0.929 . S
C920 C912 1.378 . S
C920 C915 1.350 . S
C921 H908 0.929 . S
C921 C913 1.433 . S
C921 N923 1.384 . S
N922 C918 1.427 . S
N922 C919 1.384 . S
N923 C915 1.427 . S
N923 C921 1.384 . S
H924 C930 0.930 . S
H925 C934 0.930 . S
H926 C939 0.929 . S
H927 C937 0.929 . S
H928 C932 0.929 . S
H929 C938 0.929 . S
C930 H924 0.930 . S
C930 C931 1.367 . S
C930 C938 1.378 . S
C931 C930 1.367 . S
C931 C939 1.433 . S
C932 H928 0.929 . S
C932 C934 1.378 . S
C932 C936 1.350 . S
C933 C936 1.463 . S
C933 C938 1.350 . S
C933 N941 1.427 . S
C934 H925 0.930 . S
C934 C932 1.378 . S
C934 C935 1.367 . S
C935 C934 1.367 . S
C935 C937 1.433 . S
C936 C932 1.350 . S
C936 C933 1.463 . S
C936 N940 1.427 . S
C937 H927 0.929 . S
C937 C935 1.433 . S
C937 N940 1.384 . S
C938 H929 0.929 . S
C938 C930 1.378 . S
C938 C933 1.350 . S
C939 H926 0.929 . S
C939 C931 1.433 . S
C939 N941 1.384 . S
N940 C936 1.427 . S
N940 C937 1.384 . S
N941 C933 1.427 . S
N941 C939 1.384 . S
H942 C948 0.930 . S
H943 C952 0.930 . S
H944 C957 0.929 . S
H945 C955 0.929 . S
H946 C950 0.929 . S
H947 C956 0.929 . S
C948 H942 0.930 . S
C948 C949 1.367 . S
C948 C956 1.378 . S
C949 C948 1.367 . S
C949 C957 1.433 . S
C950 H946 0.929 . S
C950 C952 1.378 . S
C950 C954 1.350 . S
C951 C954 1.463 . S
C951 C956 1.350 . S
C951 N959 1.427 . S
C952 H943 0.930 . S
C952 C950 1.378 . S
C952 C953 1.367 . S
C953 C952 1.367 . S
C953 C955 1.433 . S
C954 C950 1.350 . S
C954 C951 1.463 . S
C954 N958 1.427 . S
C955 H945 0.929 . S
C955 C953 1.433 . S
C955 N958 1.384 . S
C956 H947 0.929 . S
C956 C948 1.378 . S
C956 C951 1.350 . S
C957 H944 0.929 . S
C957 C949 1.433 . S
C957 N959 1.384 . S
N958 C954 1.427 . S
N958 C955 1.384 . S
N959 C951 1.427 . S
N959 C957 1.384 . S
H960 C966 0.930 . S
H961 C970 0.930 . S
H962 C975 0.929 . S
H963 C973 0.929 . S
H964 C968 0.929 . S
H965 C974 0.929 . S
C966 H960 0.930 . S
C966 C967 1.367 . S
C966 C974 1.378 . S
C967 C966 1.367 . S
C967 C975 1.433 . S
C968 H964 0.929 . S
C968 C970 1.378 . S
C968 C972 1.350 . S
C969 C972 1.463 . S
C969 C974 1.350 . S
C969 N977 1.427 . S
C970 H961 0.930 . S
C970 C968 1.378 . S
C970 C971 1.367 . S
C971 C970 1.367 . S
C971 C973 1.433 . S
C972 C968 1.350 . S
C972 C969 1.463 . S
C972 N976 1.427 . S
C973 H963 0.929 . S
C973 C971 1.433 . S
C973 N976 1.384 . S
C974 H965 0.929 . S
C974 C966 1.378 . S
C974 C969 1.350 . S
C975 H962 0.929 . S
C975 C967 1.433 . S
C975 N977 1.384 . S
N976 C972 1.427 . S
N976 C973 1.384 . S
N977 C969 1.427 . S
N977 C975 1.384 . S
H978 C984 0.930 . S
H979 C988 0.930 . S
H980 C993 0.929 . S
H981 C991 0.929 . S
H982 C986 0.929 . S
H983 C992 0.929 . S
C984 H978 0.930 . S
C984 C985 1.367 . S
C984 C992 1.378 . S
C985 C984 1.367 . S
C985 C993 1.433 . S
C986 H982 0.929 . S
C986 C988 1.378 . S
C986 C990 1.350 . S
C987 C990 1.463 . S
C987 C992 1.350 . S
C987 N995 1.427 . S
C988 H979 0.930 . S
C988 C986 1.378 . S
C988 C989 1.367 . S
C989 C988 1.367 . S
C989 C991 1.433 . S
C990 C986 1.350 . S
C990 C987 1.463 . S
C990 N994 1.427 . S
C991 H981 0.929 . S
C991 C989 1.433 . S
C991 N994 1.384 . S
C992 H983 0.929 . S
C992 C984 1.378 . S
C992 C987 1.350 . S
C993 H980 0.929 . S
C993 C985 1.433 . S
C993 N995 1.384 . S
N994 C990 1.427 . S
N994 C991 1.384 . S
N995 C987 1.427 . S
N995 C993 1.384 . S
H996 C1002 0.930 . S
H997 C1006 0.930 . S
H998 C1011 0.929 . S
H999 C1009 0.929 . S
H1000 C1004 0.929 . S
H1001 C1010 0.929 . S
C1002 H996 0.930 . S
C1002 C1003 1.367 . S
C1002 C1010 1.378 . S
C1003 C1002 1.367 . S
C1003 C1011 1.433 . S
C1004 H1000 0.929 . S
C1004 C1006 1.378 . S
C1004 C1008 1.350 . S
C1005 C1008 1.463 . S
C1005 C1010 1.350 . S
C1005 N1013 1.427 . S
C1006 H997 0.930 . S
C1006 C1004 1.378 . S
C1006 C1007 1.367 . S
C1007 C1006 1.367 . S
C1007 C1009 1.433 . S
C1008 C1004 1.350 . S
C1008 C1005 1.463 . S
C1008 N1012 1.427 . S
C1009 H999 0.929 . S
C1009 C1007 1.433 . S
C1009 N1012 1.384 . S
C1010 H1001 0.929 . S
C1010 C1002 1.378 . S
C1010 C1005 1.350 . S
C1011 H998 0.929 . S
C1011 C1003 1.433 . S
C1011 N1013 1.384 . S
N1012 C1008 1.427 . S
N1012 C1009 1.384 . S
N1013 C1005 1.427 . S
N1013 C1011 1.384 . S
H1014 C1020 0.930 . S
H1015 C1024 0.930 . S
H1016 C1029 0.929 . S
H1017 C1027 0.929 . S
H1018 C1022 0.929 . S
H1019 C1028 0.929 . S
C1020 H1014 0.930 . S
C1020 C1021 1.367 . S
C1020 C1028 1.378 . S
C1021 C1020 1.367 . S
C1021 C1029 1.433 . S
C1022 H1018 0.929 . S
C1022 C1024 1.378 . S
C1022 C1026 1.350 . S
C1023 C1026 1.463 . S
C1023 C1028 1.350 . S
C1023 N1031 1.427 . S
C1024 H1015 0.930 . S
C1024 C1022 1.378 . S
C1024 C1025 1.367 . S
C1025 C1024 1.367 . S
C1025 C1027 1.433 . S
C1026 C1022 1.350 . S
C1026 C1023 1.463 . S
C1026 N1030 1.427 . S
C1027 H1017 0.929 . S
C1027 C1025 1.433 . S
C1027 N1030 1.384 . S
C1028 H1019 0.929 . S
C1028 C1020 1.378 . S
C1028 C1023 1.350 . S
C1029 H1016 0.929 . S
C1029 C1021 1.433 . S
C1029 N1031 1.384 . S
N1030 C1026 1.427 . S
N1030 C1027 1.384 . S
N1031 C1023 1.427 . S
N1031 C1029 1.384 . S
H1032 C1038 0.930 . S
H1033 C1042 0.930 . S
H1034 C1047 0.929 . S
H1035 C1045 0.929 . S
H1036 C1040 0.929 . S
H1037 C1046 0.929 . S
C1038 H1032 0.930 . S
C1038 C1039 1.367 . S
C1038 C1046 1.378 . S
C1039 C1038 1.367 . S
C1039 C1047 1.433 . S
C1040 H1036 0.929 . S
C1040 C1042 1.378 . S
C1040 C1044 1.350 . S
C1041 C1044 1.463 . S
C1041 C1046 1.350 . S
C1041 N1049 1.427 . S
C1042 H1033 0.930 . S
C1042 C1040 1.378 . S
C1042 C1043 1.367 . S
C1043 C1042 1.367 . S
C1043 C1045 1.433 . S
C1044 C1040 1.350 . S
C1044 C1041 1.463 . S
C1044 N1048 1.427 . S
C1045 H1035 0.929 . S
C1045 C1043 1.433 . S
C1045 N1048 1.384 . S
C1046 H1037 0.929 . S
C1046 C1038 1.378 . S
C1046 C1041 1.350 . S
C1047 H1034 0.929 . S
C1047 C1039 1.433 . S
C1047 N1049 1.384 . S
N1048 C1044 1.427 . S
N1048 C1045 1.384 . S
N1049 C1041 1.427 . S
N1049 C1047 1.384 . S
H1050 C1056 0.930 . S
H1051 C1060 0.930 . S
H1052 C1065 0.929 . S
H1053 C1063 0.929 . S
H1054 C1058 0.929 . S
H1055 C1064 0.929 . S
C1056 H1050 0.930 . S
C1056 C1057 1.367 . S
C1056 C1064 1.378 . S
C1057 C1056 1.367 . S
C1057 C1065 1.433 . S
C1058 H1054 0.929 . S
C1058 C1060 1.378 . S
C1058 C1062 1.350 . S
C1059 C1062 1.463 . S
C1059 C1064 1.350 . S
C1059 N1067 1.427 . S
C1060 H1051 0.930 . S
C1060 C1058 1.378 . S
C1060 C1061 1.367 . S
C1061 C1060 1.367 . S
C1061 C1063 1.433 . S
C1062 C1058 1.350 . S
C1062 C1059 1.463 . S
C1062 N1066 1.427 . S
C1063 H1053 0.929 . S
C1063 C1061 1.433 . S
C1063 N1066 1.384 . S
C1064 H1055 0.929 . S
C1064 C1056 1.378 . S
C1064 C1059 1.350 . S
C1065 H1052 0.929 . S
C1065 C1057 1.433 . S
C1065 N1067 1.384 . S
N1066 C1062 1.427 . S
N1066 C1063 1.384 . S
N1067 C1059 1.427 . S
N1067 C1065 1.384 . S
H1068 C1074 0.930 . S
H1069 C1078 0.930 . S
H1070 C1083 0.929 . S
H1071 C1081 0.929 . S
H1072 C1076 0.929 . S
H1073 C1082 0.929 . S
C1074 H1068 0.930 . S
C1074 C1075 1.367 . S
C1074 C1082 1.378 . S
C1075 C1074 1.367 . S
C1075 C1083 1.433 . S
C1076 H1072 0.929 . S
C1076 C1078 1.378 . S
C1076 C1080 1.350 . S
C1077 C1080 1.463 . S
C1077 C1082 1.350 . S
C1077 N1085 1.427 . S
C1078 H1069 0.930 . S
C1078 C1076 1.378 . S
C1078 C1079 1.367 . S
C1079 C1078 1.367 . S
C1079 C1081 1.433 . S
C1080 C1076 1.350 . S
C1080 C1077 1.463 . S
C1080 N1084 1.427 . S
C1081 H1071 0.929 . S
C1081 C1079 1.433 . S
C1081 N1084 1.384 . S
C1082 H1073 0.929 . S
C1082 C1074 1.378 . S
C1082 C1077 1.350 . S
C1083 H1070 0.929 . S
C1083 C1075 1.433 . S
C1083 N1085 1.384 . S
N1084 C1080 1.427 . S
N1084 C1081 1.384 . S
N1085 C1077 1.427 . S
N1085 C1083 1.384 . S
H1086 C1092 0.930 . S
H1087 C1096 0.930 . S
H1088 C1101 0.929 . S
H1089 C1099 0.929 . S
H1090 C1094 0.929 . S
H1091 C1100 0.929 . S
C1092 H1086 0.930 . S
C1092 C1093 1.367 . S
C1092 C1100 1.378 . S
C1093 C1092 1.367 . S
C1093 C1101 1.433 . S
C1094 H1090 0.929 . S
C1094 C1096 1.378 . S
C1094 C1098 1.350 . S
C1095 C1098 1.463 . S
C1095 C1100 1.350 . S
C1095 N1103 1.427 . S
C1096 H1087 0.930 . S
C1096 C1094 1.378 . S
C1096 C1097 1.367 . S
C1097 C1096 1.367 . S
C1097 C1099 1.433 . S
C1098 C1094 1.350 . S
C1098 C1095 1.463 . S
C1098 N1102 1.427 . S
C1099 H1089 0.929 . S
C1099 C1097 1.433 . S
C1099 N1102 1.384 . S
C1100 H1091 0.929 . S
C1100 C1092 1.378 . S
C1100 C1095 1.350 . S
C1101 H1088 0.929 . S
C1101 C1093 1.433 . S
C1101 N1103 1.384 . S
N1102 C1098 1.427 . S
N1102 C1099 1.384 . S
N1103 C1095 1.427 . S
N1103 C1101 1.384 . S
H1104 C1110 0.930 . S
H1105 C1114 0.930 . S
H1106 C1119 0.929 . S
H1107 C1117 0.929 . S
H1108 C1112 0.929 . S
H1109 C1118 0.929 . S
C1110 H1104 0.930 . S
C1110 C1111 1.367 . S
C1110 C1118 1.378 . S
C1111 C1110 1.367 . S
C1111 C1119 1.433 1_565 S
C1112 H1108 0.929 . S
C1112 C1114 1.378 . S
C1112 C1116 1.350 1_545 S
C1113 C1116 1.463 . S
C1113 C1118 1.350 . S
C1113 N1121 1.427 1_565 S
C1114 H1105 0.930 . S
C1114 C1112 1.378 . S
C1114 C1115 1.367 1_545 S
C1115 C1114 1.367 1_565 S
C1115 C1117 1.433 . S
C1116 C1112 1.350 1_565 S
C1116 C1113 1.463 . S
C1116 N1120 1.427 . S
C1117 H1107 0.929 . S
C1117 C1115 1.433 . S
C1117 N1120 1.384 . S
C1118 H1109 0.929 . S
C1118 C1110 1.378 . S
C1118 C1113 1.350 . S
C1119 H1106 0.929 . S
C1119 C1111 1.433 1_545 S
C1119 N1121 1.384 . S
N1120 C1116 1.427 . S
N1120 C1117 1.384 . S
N1121 C1113 1.427 1_545 S
N1121 C1119 1.384 . S
H1122 C1128 0.930 . S
H1123 C1132 0.930 1_554 S
H1124 C1137 0.929 1_554 S
H1125 C1135 0.929 . S
H1126 C1130 0.929 1_554 S
H1127 C1136 0.929 . S
C1128 H1122 0.930 . S
C1128 C1129 1.367 . S
C1128 C1136 1.378 . S
C1129 C1128 1.367 . S
C1129 C1137 1.433 . S
C1130 H1126 0.929 1_556 S
C1130 C1132 1.378 . S
C1130 C1134 1.350 . S
C1131 C1134 1.463 . S
C1131 C1136 1.350 . S
C1131 N1139 1.427 . S
C1132 H1123 0.930 1_556 S
C1132 C1130 1.378 . S
C1132 C1133 1.367 . S
C1133 C1132 1.367 . S
C1133 C1135 1.433 . S
C1134 C1130 1.350 . S
C1134 C1131 1.463 . S
C1134 N1138 1.427 . S
C1135 H1125 0.929 . S
C1135 C1133 1.433 . S
C1135 N1138 1.384 . S
C1136 H1127 0.929 . S
C1136 C1128 1.378 . S
C1136 C1131 1.350 . S
C1137 H1124 0.929 1_556 S
C1137 C1129 1.433 . S
C1137 N1139 1.384 . S
N1138 C1134 1.427 . S
N1138 C1135 1.384 . S
N1139 C1131 1.427 . S
N1139 C1137 1.384 . S
H1140 C1146 0.930 . S
H1141 C1150 0.930 . S
H1142 C1155 0.929 . S
H1143 C1153 0.929 . S
H1144 C1148 0.929 . S
H1145 C1154 0.929 . S
C1146 H1140 0.930 . S
C1146 C1147 1.367 . S
C1146 C1154 1.378 . S
C1147 C1146 1.367 . S
C1147 C1155 1.433 . S
C1148 H1144 0.929 . S
C1148 C1150 1.378 . S
C1148 C1152 1.350 . S
C1149 C1152 1.463 . S
C1149 C1154 1.350 . S
C1149 N1157 1.427 . S
C1150 H1141 0.930 . S
C1150 C1148 1.378 . S
C1150 C1151 1.367 . S
C1151 C1150 1.367 . S
C1151 C1153 1.433 . S
C1152 C1148 1.350 . S
C1152 C1149 1.463 . S
C1152 N1156 1.427 . S
C1153 H1143 0.929 . S
C1153 C1151 1.433 . S
C1153 N1156 1.384 . S
C1154 H1145 0.929 . S
C1154 C1146 1.378 . S
C1154 C1149 1.350 . S
C1155 H1142 0.929 . S
C1155 C1147 1.433 . S
C1155 N1157 1.384 . S
N1156 C1152 1.427 . S
N1156 C1153 1.384 . S
N1157 C1149 1.427 . S
N1157 C1155 1.384 . S
H1158 C1164 0.930 1_554 S
H1159 C1168 0.930 . S
H1160 C1173 0.929 . S
H1161 C1171 0.929 1_554 S
H1162 C1166 0.929 . S
H1163 C1172 0.929 1_554 S
C1164 H1158 0.930 1_556 S
C1164 C1165 1.367 . S
C1164 C1172 1.378 . S
C1165 C1164 1.367 . S
C1165 C1173 1.433 1_655 S
C1166 H1162 0.929 . S
C1166 C1168 1.378 . S
C1166 C1170 1.350 1_455 S
C1167 C1170 1.463 . S
C1167 C1172 1.350 . S
C1167 N1175 1.427 1_655 S
C1168 H1159 0.930 . S
C1168 C1166 1.378 . S
C1168 C1169 1.367 1_455 S
C1169 C1168 1.367 1_655 S
C1169 C1171 1.433 . S
C1170 C1166 1.350 1_655 S
C1170 C1167 1.463 . S
C1170 N1174 1.427 . S
C1171 H1161 0.929 1_556 S
C1171 C1169 1.433 . S
C1171 N1174 1.384 . S
C1172 H1163 0.929 1_556 S
C1172 C1164 1.378 . S
C1172 C1167 1.350 . S
C1173 H1160 0.929 . S
C1173 C1165 1.433 1_455 S
C1173 N1175 1.384 . S
N1174 C1170 1.427 . S
N1174 C1171 1.384 . S
N1175 C1167 1.427 1_455 S
N1175 C1173 1.384 . S
H1176 C1182 0.930 . S
H1177 C1186 0.930 . S
H1178 C1191 0.929 . S
H1179 C1189 0.929 . S
H1180 C1184 0.929 . S
H1181 C1190 0.929 . S
C1182 H1176 0.930 . S
C1182 C1183 1.367 1_565 S
C1182 C1190 1.378 . S
C1183 C1182 1.367 1_545 S
C1183 C1191 1.433 . S
C1184 H1180 0.929 . S
C1184 C1186 1.378 . S
C1184 C1188 1.350 . S
C1185 C1188 1.463 . S
C1185 C1190 1.350 1_545 S
C1185 N1193 1.427 . S
C1186 H1177 0.930 . S
C1186 C1184 1.378 . S
C1186 C1187 1.367 . S
C1187 C1186 1.367 . S
C1187 C1189 1.433 1_545 S
C1188 C1184 1.350 . S
C1188 C1185 1.463 . S
C1188 N1192 1.427 1_545 S
C1189 H1179 0.929 . S
C1189 C1187 1.433 1_565 S
C1189 N1192 1.384 . S
C1190 H1181 0.929 . S
C1190 C1182 1.378 . S
C1190 C1185 1.350 1_565 S
C1191 H1178 0.929 . S
C1191 C1183 1.433 . S
C1191 N1193 1.384 . S
N1192 C1188 1.427 1_565 S
N1192 C1189 1.384 . S
N1193 C1185 1.427 . S
N1193 C1191 1.384 . S
H1194 C1200 0.930 1_556 S
H1195 C1204 0.930 . S
H1196 C1209 0.929 . S
H1197 C1207 0.929 1_556 S
H1198 C1202 0.929 . S
H1199 C1208 0.929 1_556 S
C1200 H1194 0.930 1_554 S
C1200 C1201 1.367 . S
C1200 C1208 1.378 . S
C1201 C1200 1.367 . S
C1201 C1209 1.433 . S
C1202 H1198 0.929 . S
C1202 C1204 1.378 . S
C1202 C1206 1.350 . S
C1203 C1206 1.463 . S
C1203 C1208 1.350 . S
C1203 N1211 1.427 . S
C1204 H1195 0.930 . S
C1204 C1202 1.378 . S
C1204 C1205 1.367 . S
C1205 C1204 1.367 . S
C1205 C1207 1.433 . S
C1206 C1202 1.350 . S
C1206 C1203 1.463 . S
C1206 N1210 1.427 . S
C1207 H1197 0.929 1_554 S
C1207 C1205 1.433 . S
C1207 N1210 1.384 . S
C1208 H1199 0.929 1_554 S
C1208 C1200 1.378 . S
C1208 C1203 1.350 . S
C1209 H1196 0.929 . S
C1209 C1201 1.433 . S
C1209 N1211 1.384 . S
N1210 C1206 1.427 . S
N1210 C1207 1.384 . S
N1211 C1203 1.427 . S
N1211 C1209 1.384 . S
H1212 C1218 0.930 . S
H1213 C1222 0.930 . S
H1214 C1227 0.929 . S
H1215 C1225 0.929 . S
H1216 C1220 0.929 . S
H1217 C1226 0.929 . S
C1218 H1212 0.930 . S
C1218 C1219 1.367 . S
C1218 C1226 1.378 . S
C1219 C1218 1.367 . S
C1219 C1227 1.433 . S
C1220 H1216 0.929 . S
C1220 C1222 1.378 . S
C1220 C1224 1.350 . S
C1221 C1224 1.463 . S
C1221 C1226 1.350 . S
C1221 N1229 1.427 . S
C1222 H1213 0.930 . S
C1222 C1220 1.378 . S
C1222 C1223 1.367 . S
C1223 C1222 1.367 . S
C1223 C1225 1.433 . S
C1224 C1220 1.350 . S
C1224 C1221 1.463 . S
C1224 N1228 1.427 . S
C1225 H1215 0.929 . S
C1225 C1223 1.433 . S
C1225 N1228 1.384 . S
C1226 H1217 0.929 . S
C1226 C1218 1.378 . S
C1226 C1221 1.350 . S
C1227 H1214 0.929 . S
C1227 C1219 1.433 . S
C1227 N1229 1.384 . S
N1228 C1224 1.427 . S
N1228 C1225 1.384 . S
N1229 C1221 1.427 . S
N1229 C1227 1.384 . S
H1230 C1236 0.930 . S
H1231 C1240 0.930 1_556 S
H1232 C1245 0.929 1_556 S
H1233 C1243 0.929 . S
H1234 C1238 0.929 1_556 S
H1235 C1244 0.929 . S
C1236 H1230 0.930 . S
C1236 C1237 1.367 . S
C1236 C1244 1.378 . S
C1237 C1236 1.367 . S
C1237 C1245 1.433 1_455 S
C1238 H1234 0.929 1_554 S
C1238 C1240 1.378 . S
C1238 C1242 1.350 1_655 S
C1239 C1242 1.463 . S
C1239 C1244 1.350 . S
C1239 N1247 1.427 1_455 S
C1240 H1231 0.930 1_554 S
C1240 C1238 1.378 . S
C1240 C1241 1.367 1_655 S
C1241 C1240 1.367 1_455 S
C1241 C1243 1.433 . S
C1242 C1238 1.350 1_455 S
C1242 C1239 1.463 . S
C1242 N1246 1.427 . S
C1243 H1233 0.929 . S
C1243 C1241 1.433 . S
C1243 N1246 1.384 . S
C1244 H1235 0.929 . S
C1244 C1236 1.378 . S
C1244 C1239 1.350 . S
C1245 H1232 0.929 1_554 S
C1245 C1237 1.433 1_655 S
C1245 N1247 1.384 . S
N1246 C1242 1.427 . S
N1246 C1243 1.384 . S
N1247 C1239 1.427 1_655 S
N1247 C1245 1.384 . S
C535 C282 0.889 . S
C539 C18 0.889 . S
C553 C51 0.901 1_554 S
C557 C315 0.901 1_556 S
C571 C348 0.880 . S
C575 C84 0.880 . S
C589 C381 0.914 1_556 S
C593 C117 0.914 1_554 S
C607 C150 0.893 . S
C611 C414 0.893 . S
C625 C183 0.908 1_556 S
C629 C447 0.908 1_554 S
C643 C216 0.897 . S
C647 C480 0.897 . S
C661 C249 0.904 1_556 S
C665 C513 0.904 1_554 S
C679 C7 1.729 . S
C683 N508 1.805 . S
C697 C40 1.737 . S
C701 N409 1.805 . S
C715 C73 1.729 . S
C719 N442 1.805 . S
C733 N475 1.804 . S
C737 C106 1.731 . S
C751 C139 1.725 . S
C755 N310 1.808 . S
C769 C172 1.724 . S
C773 N343 1.807 . S
C787 N376 1.806 . S
C791 C205 1.725 . S
C805 C238 1.738 . S
C809 N277 1.805 . S
C823 N244 1.804 . S
C827 C271 1.735 . S
C841 N145 1.804 . S
C845 C304 1.734 . S
C859 N178 1.805 . S
C863 C337 1.737 . S
C877 C370 1.734 . S
C881 N211 1.804 . S
C895 N46 1.809 . S
C899 C403 1.727 . S
C913 C436 1.732 . S
C917 N79 1.804 . S
C931 N112 1.805 . S
C935 C469 1.737 . S
C949 N13 1.805 . S
C953 C502 1.728 . S
C967 N233 0.560 . S
C971 N2 0.570 . S
C985 N134 0.597 . S
C989 N35 0.573 . S
C1003 N68 0.562 . S
C1007 N167 0.580 . S
C1021 N200 0.560 . S
C1025 N101 0.572 . S
C1039 N497 0.610 . S
C1043 N266 0.616 . S
C1057 N299 0.579 . S
C1061 N398 0.603 . S
C1075 N332 0.616 . S
C1079 N431 0.608 . S
C1093 N365 0.573 . S
C1097 N464 0.560 . S
C1111 C21 1.067 1_565 S
C1115 C417 1.058 1_565 S
C1129 C54 1.063 . S
C1133 C450 1.073 . S
C1147 C87 1.065 . S
C1151 C483 1.071 . S
C1165 C120 1.067 1_655 S
C1169 C516 1.058 1_655 S
C1183 C153 1.059 1_545 S
C1187 C285 1.066 1_545 S
C1201 C186 1.073 . S
C1205 C318 1.063 . S
C1219 C219 1.068 . S
C1223 C351 1.068 . S
C1237 C384 1.062 1_455 S
C1241 C252 1.064 1_455 S
