# Generated by pormake.
# Topology smc, (6)-cn, num edge types: 1
# Building blocks:
#     Node 0, Type 0, BuildingBlock: JUFBIX_clean_sbu_0, # of connection points: 6
#     Node 1, Type 0, BuildingBlock: JUFBIX_clean_sbu_0, # of connection points: 6
#     Node 2, Type 0, BuildingBlock: JUFBIX_clean_sbu_0, # of connection points: 6
#     Node 3, Type 0, BuildingBlock: JUFBIX_clean_sbu_0, # of connection points: 6
#     Node 4, Type 0, BuildingBlock: JUFBIX_clean_sbu_0, # of connection points: 6
#     Node 5, Type 0, BuildingBlock: JUFBIX_clean_sbu_0, # of connection points: 6
#     Node 6, Type 0, BuildingBlock: JUFBIX_clean_sbu_0, # of connection points: 6
#     Node 7, Type 0, BuildingBlock: JUFBIX_clean_sbu_0, # of connection points: 6
#     Node 8, Type 0, BuildingBlock: JUFBIX_clean_sbu_0, # of connection points: 6
#     Edge 9, Type (0, 0), BuildingBlock: MIFKUJ_clean_linker_0, # of connection points: 2
#     Edge 10, Type (0, 0), BuildingBlock: MIFKUJ_clean_linker_0, # of connection points: 2
#     Edge 11, Type (0, 0), BuildingBlock: MIFKUJ_clean_linker_0, # of connection points: 2
#     Edge 12, Type (0, 0), BuildingBlock: MIFKUJ_clean_linker_0, # of connection points: 2
#     Edge 13, Type (0, 0), BuildingBlock: MIFKUJ_clean_linker_0, # of connection points: 2
#     Edge 14, Type (0, 0), BuildingBlock: MIFKUJ_clean_linker_0, # of connection points: 2
#     Edge 15, Type (0, 0), BuildingBlock: MIFKUJ_clean_linker_0, # of connection points: 2
#     Edge 16, Type (0, 0), BuildingBlock: MIFKUJ_clean_linker_0, # of connection points: 2
#     Edge 17, Type (0, 0), BuildingBlock: MIFKUJ_clean_linker_0, # of connection points: 2
#     Edge 18, Type (0, 0), BuildingBlock: MIFKUJ_clean_linker_0, # of connection points: 2
#     Edge 19, Type (0, 0), BuildingBlock: MIFKUJ_clean_linker_0, # of connection points: 2
#     Edge 20, Type (0, 0), BuildingBlock: MIFKUJ_clean_linker_0, # of connection points: 2
#     Edge 21, Type (0, 0), BuildingBlock: MIFKUJ_clean_linker_0, # of connection points: 2
#     Edge 22, Type (0, 0), BuildingBlock: MIFKUJ_clean_linker_0, # of connection points: 2
#     Edge 23, Type (0, 0), BuildingBlock: MIFKUJ_clean_linker_0, # of connection points: 2
#     Edge 24, Type (0, 0), BuildingBlock: MIFKUJ_clean_linker_0, # of connection points: 2
#     Edge 25, Type (0, 0), BuildingBlock: MIFKUJ_clean_linker_0, # of connection points: 2
#     Edge 26, Type (0, 0), BuildingBlock: MIFKUJ_clean_linker_0, # of connection points: 2
#     Edge 27, Type (0, 0), BuildingBlock: MIFKUJ_clean_linker_0, # of connection points: 2
#     Edge 28, Type (0, 0), BuildingBlock: MIFKUJ_clean_linker_0, # of connection points: 2
#     Edge 29, Type (0, 0), BuildingBlock: MIFKUJ_clean_linker_0, # of connection points: 2
#     Edge 30, Type (0, 0), BuildingBlock: MIFKUJ_clean_linker_0, # of connection points: 2
#     Edge 31, Type (0, 0), BuildingBlock: MIFKUJ_clean_linker_0, # of connection points: 2
#     Edge 32, Type (0, 0), BuildingBlock: MIFKUJ_clean_linker_0, # of connection points: 2
#     Edge 33, Type (0, 0), BuildingBlock: MIFKUJ_clean_linker_0, # of connection points: 2
#     Edge 34, Type (0, 0), BuildingBlock: MIFKUJ_clean_linker_0, # of connection points: 2
#     Edge 35, Type (0, 0), BuildingBlock: MIFKUJ_clean_linker_0, # of connection points: 2
# Relax obj value: 0.422
# Max RMSD: 0.307
# Mean RMSD: 0.299
data_MOF--net-smc--node1-JUFBIX_clean_sbu_0--edge1-MIFKUJ_clean_linker_0
_symmetry_space_group_name_H-M    P1
_symmetry_Int_Tables_number       1
_symmetry_cell_setting            triclinic
loop_
_symmetry_equiv_pos_as_xyz
'x, y, z'
_cell_length_a     37.638035
_cell_length_b     42.490784
_cell_length_c     54.325283
_cell_angle_alpha  89.852636
_cell_angle_beta   89.695914
_cell_angle_gamma 120.14404
loop_
_atom_site_label
_atom_site_type_symbol
_atom_site_fract_x
_atom_site_fract_y
_atom_site_fract_z
_atom_type_partial_charge
Co0 Co 0.05456 0.47582 1.01224 0.0
C1 C 0.01535 0.42787 0.9732 0.0
Co2 Co 1.01078 0.41999 0.02431 0.0
C3 C 0.0969 0.55438 1.01231 0.0
C4 C 0.11484 0.53321 0.98195 0.0
N5 N 0.09119 0.52303 1.00244 0.0
N6 N 0.1226 0.58355 0.9985 0.0
C7 C 0.13398 0.5704 0.97939 0.0
H8 H 0.08097 0.55563 0.0286 0.0
H9 H 0.11695 0.51464 0.96924 0.0
C10 C 0.04995 0.46395 0.0636 0.0
N11 N 0.97179 0.37245 0.0335 0.0
C12 C 0.93186 0.35511 0.02673 0.0
C13 C 0.97453 0.34944 0.04946 0.0
N14 N 0.90928 0.32257 0.03807 0.0
C15 C 0.9362 0.31872 0.05225 0.0
C16 C 0.0925 0.43484 1.01704 0.0
O17 O 0.06993 0.48788 0.04694 0.0
O18 O 0.02056 0.43315 0.05735 0.0
O19 O 0.05722 0.40987 0.02503 0.0
O20 O 0.09618 0.4644 1.00922 0.0
O21 O 1.00068 0.40578 0.99114 0.0
H22 H 1.00219 0.3552 0.05913 0.0
H23 H 0.91934 0.3665 1.01392 0.0
O24 O 0.0391 0.46158 0.97782 0.0
O25 O 1.01313 0.4887 1.01532 0.0
O26 O 0.96707 0.43253 0.02393 0.0
C27 C 0.97605 0.46535 0.02015 0.0
H28 H 0.1542 0.58654 0.96447 0.0
H29 H 0.92847 0.29609 0.06459 0.0
Co30 Co 0.59245 0.54394 0.04655 0.0
C31 C 0.61135 0.59237 0.08522 0.0
Co32 Co 0.61225 0.59918 0.0341 0.0
C33 C 0.57214 0.46985 0.04218 0.0
C34 C 0.54802 0.47918 0.07534 0.0
N35 N 0.57277 0.49641 0.05595 0.0
N36 N 0.54635 0.43648 0.05147 0.0
C37 C 0.53174 0.44237 0.07264 0.0
H38 H 0.58789 0.47477 0.02468 0.0
H39 H 0.53916 0.49214 0.08925 0.0
C40 C 0.59768 0.55489 0.99478 0.0
N41 N 0.63165 0.64683 0.02485 0.0
C42 C 0.61747 0.66883 0.03213 0.0
C43 C 0.66249 0.66695 1.00895 0.0
N44 N 0.638 0.70191 0.02126 0.0
C45 C 0.66645 0.70082 1.00665 0.0
C46 C 0.67551 0.58134 0.0397 0.0
O47 O 0.59143 0.53141 1.01147 0.0
O48 O 0.60469 0.58602 1.0012 0.0
O49 O 0.66852 0.6062 0.03198 0.0
O50 O 0.64602 0.55227 0.04843 0.0
O51 O 0.62097 0.61406 0.06714 0.0
H52 H 0.68041 0.65733 0.99939 0.0
H53 H 0.59165 0.66026 0.04458 0.0
O54 O 0.59552 0.55846 0.08096 0.0
O55 O 0.53727 0.53375 0.04466 0.0
O56 O 0.55506 0.58985 0.03571 0.0
C57 C 0.52663 0.55709 0.03999 0.0
H58 H 0.50761 0.42163 0.08402 0.0
H59 H 0.6883 0.72272 0.99492 0.0
Co60 Co 0.42203 0.99632 0.99991 0.0
C61 C 0.41684 0.03729 0.9611 0.0
Co62 Co 0.39233 0.02752 1.01027 0.0
C63 C 0.46897 0.9595 1.00478 0.0
C64 C 0.44433 0.9552 0.96868 0.0
N65 N 0.44649 0.96963 0.99109 0.0
N66 N 0.48123 0.93969 0.99162 0.0
C67 C 0.46575 0.93694 0.96893 0.0
H68 H 0.47624 0.96653 0.02395 0.0
H69 H 0.42765 0.95732 0.95321 0.0
C70 C 0.39454 0.9865 0.04898 0.0
N71 N 0.36577 0.05273 0.01835 0.0
C72 C 0.36901 0.08187 1.00643 0.0
C73 C 0.33515 0.04343 0.03495 0.0
N74 N 0.34146 0.09081 1.01462 0.0
C75 C 0.3205 0.06722 0.03291 0.0
C76 C 0.33825 0.95782 0.99383 0.0
O77 O 0.41105 0.97543 0.03322 0.0
O78 O 0.38656 0.01101 0.04276 0.0
O79 O 0.33986 0.98589 1.00313 0.0
O80 O 0.37133 0.95765 0.98986 0.0
O81 O 0.39738 0.04376 0.97746 0.0
H82 H 0.32345 0.02032 0.0473 0.0
H83 H 0.3913 0.09649 0.992 0.0
O84 O 0.43207 0.01745 0.96682 0.0
O85 O 0.47289 0.03481 1.00998 0.0
O86 O 0.44612 0.06931 0.01773 0.0
C87 C 0.47757 0.06527 1.01667 0.0
H88 H 0.46873 0.92188 0.95379 0.0
H89 H 0.29617 0.067 0.04376 0.0
Co90 Co 0.75003 0.80685 0.36454 0.0
C91 C 0.70466 0.76118 0.32564 0.0
Co92 Co 0.69612 0.75495 0.37663 0.0
C93 C 0.79747 0.88556 0.36053 0.0
C94 C 0.82596 0.8609 0.34033 0.0
N95 N 0.79325 0.85279 0.35484 0.0
N96 N 0.83122 0.91369 0.35009 0.0
C97 C 0.84938 0.89822 0.33747 0.0
H98 H 0.77621 0.88882 0.37224 0.0
H99 H 0.83209 0.84097 0.33205 0.0
C100 C 0.74135 0.79789 0.41568 0.0
N101 N 0.65364 0.71051 0.38693 0.0
C102 C 0.61517 0.69153 0.37806 0.0
C103 C 0.65554 0.68914 0.40467 0.0
N104 N 0.5931 0.65902 0.38946 0.0
C105 C 0.61837 0.65742 0.40623 0.0
C106 C 0.76906 0.75352 0.37103 0.0
O107 O 0.76421 0.81962 0.39877 0.0
O108 O 0.70909 0.76878 0.40975 0.0
O109 O 0.73134 0.73546 0.37693 0.0
O110 O 0.78463 0.78657 0.36425 0.0
O111 O 0.68339 0.74096 0.34347 0.0
H112 H 0.68242 0.69605 0.41558 0.0
H113 H 0.60396 0.70102 0.36313 0.0
O114 O 0.73558 0.79245 0.33031 0.0
O115 O 0.71452 0.82625 0.36512 0.0
O116 O 0.66097 0.77455 0.37638 0.0
C117 C 0.67666 0.8079 0.37065 0.0
H118 H 0.877 0.91275 0.32638 0.0
H119 H 0.61048 0.63502 0.41882 0.0
Co120 Co 0.22242 0.89803 0.34539 0.0
C121 C 0.26394 0.9052 0.3009 0.0
Co122 Co 0.28888 0.92252 0.34918 0.0
C123 C 0.13988 0.84464 0.35535 0.0
C124 C 0.14322 0.88 0.32617 0.0
N125 N 0.16635 0.87471 0.34263 0.0
N126 N 0.10112 0.83017 0.34719 0.0
C127 C 0.10298 0.85265 0.32897 0.0
H128 H 0.1494 0.8326 0.36953 0.0
H129 H 0.15505 0.9015 0.31248 0.0
C130 C 0.25117 0.91857 0.39367 0.0
N131 N 0.34499 0.94505 0.35239 0.0
C132 C 0.36837 0.93023 0.34715 0.0
C133 C 0.3706 0.97706 0.36325 0.0
N134 N 0.40729 0.95108 0.35489 0.0
C135 C 0.4091 0.98087 0.36479 0.0
C136 C 0.2599 0.9721 0.34089 0.0
O137 O 0.21816 0.90405 0.38107 0.0
O138 O 0.28457 0.92675 0.38288 0.0
O139 O 0.29244 0.97038 0.34457 0.0
O140 O 0.22569 0.9428 0.34019 0.0
O141 O 0.29452 0.91892 0.31517 0.0
H142 H 0.36135 0.99537 0.37088 0.0
H143 H 0.35663 0.90382 0.33873 0.0
O144 O 0.2281 0.89365 0.30998 0.0
O145 O 0.21788 0.85205 0.35024 0.0
O146 O 0.28356 0.87384 0.35402 0.0
C147 C 0.24736 0.84626 0.35331 0.0
H148 H 0.07736 0.84942 0.31811 0.0
H149 H 0.43546 1.00252 0.37399 0.0
Co150 Co 0.10686 0.32035 0.34582 0.0
C151 C 0.10315 0.36244 0.30657 0.0
Co152 Co 0.08821 0.36076 0.35686 0.0
C153 C 0.13848 0.26826 0.34618 0.0
C154 C 0.10472 0.26616 0.31406 0.0
N155 N 0.11856 0.28402 0.3355 0.0
N156 N 0.13711 0.24116 0.33218 0.0
C157 C 0.116 0.24021 0.31196 0.0
H158 H 0.15266 0.27581 0.36411 0.0
H159 H 0.08676 0.27123 0.30085 0.0
C160 C 0.0891 0.31889 0.39629 0.0
N161 N 0.07863 0.39889 0.36619 0.0
C162 C 0.10116 0.43444 0.35912 0.0
C163 C 0.05256 0.39857 0.38341 0.0
N164 N 0.09069 0.45637 0.37146 0.0
C165 C 0.05989 0.43362 0.3867 0.0
C166 C 0.02199 0.29355 0.34612 0.0
O167 O 0.09961 0.30344 0.3799 0.0
O168 O 0.08525 0.34595 0.39007 0.0
O169 O 0.03002 0.32488 0.35389 0.0
O170 O 0.05111 0.28789 0.34075 0.0
O171 O 0.09071 0.37491 0.32368 0.0
H172 H 0.03066 0.37464 0.3936 0.0
H173 H 0.12627 0.44435 0.34598 0.0
O174 O 0.11274 0.33834 0.3119 0.0
O175 O 0.16282 0.35307 0.35119 0.0
O176 O 0.1455 0.39405 0.35993 0.0
C177 C 0.17308 0.38545 0.35699 0.0
H178 H 0.10911 0.22199 0.29655 0.0
H179 H 0.04406 0.44171 0.39965 0.0
Co180 Co 0.39127 0.1512 0.66446 0.0
C181 C 0.35038 0.10028 0.62774 0.0
Co182 Co 0.35057 0.09598 0.67901 0.0
C183 C 0.43303 0.22908 0.66231 0.0
C184 C 0.45262 0.20686 0.63349 0.0
N185 N 0.42687 0.19741 0.65296 0.0
N186 N 0.46172 0.25809 0.64949 0.0
C187 C 0.47412 0.24415 0.63132 0.0
H188 H 0.41656 0.23067 0.67821 0.0
H189 H 0.4559 0.18785 0.62184 0.0
C190 C 0.39049 0.14403 0.71619 0.0
N191 N 0.313 0.04942 0.69013 0.0
C192 C 0.27264 0.03195 0.68455 0.0
C193 C 0.31641 0.02896 0.70788 0.0
N194 N 0.25007 1.00213 0.6987 0.0
C195 C 0.27785 0.99986 0.71314 0.0
C196 C 0.43175 0.11239 0.67134 0.0
O197 O 0.40682 0.16705 0.69859 0.0
O198 O 0.36379 0.11149 0.7114 0.0
O199 O 0.39691 0.08602 0.67862 0.0
O200 O 0.43351 0.14103 0.66318 0.0
O201 O 0.33655 0.07944 0.64636 0.0
H202 H 0.3445 0.03605 0.71752 0.0
H203 H 0.25996 0.0422 0.67105 0.0
O204 O 0.37582 0.13399 0.63095 0.0
O205 O 0.34928 0.16278 0.66572 0.0
O206 O 0.30694 0.10837 0.68 0.0
C207 C 0.31368 0.13964 0.67324 0.0
H208 H 0.49785 0.25973 0.61781 0.0
H209 H 0.2708 0.98011 0.72768 0.0
Co210 Co 0.92651 0.21163 0.69321 0.0
C211 C 0.94085 0.2598 0.73197 0.0
Co212 Co 0.94919 0.26746 0.68096 0.0
C213 C 0.87615 0.13445 0.69242 0.0
C214 C 0.91696 0.15216 0.72316 0.0
N215 N 0.90686 0.16434 0.70294 0.0
N216 N 0.86617 0.10409 0.70544 0.0
C217 C 0.89182 0.11502 0.72479 0.0
H218 H 0.86019 0.13519 0.6761 0.0
H219 H 0.9403 0.16931 0.7362 0.0
C220 C 0.93835 0.22323 0.64169 0.0
N221 N 0.9684 0.31507 0.67176 0.0
C222 C 0.95129 0.33492 0.67863 0.0
C223 C 1.0015 0.33788 0.65804 0.0
N224 N 0.97207 0.36913 0.66975 0.0
C225 C 1.00396 0.37139 0.65687 0.0
C226 C 1.01077 0.25015 0.69082 0.0
O227 O 0.92927 0.199 0.65841 0.0
O228 O 0.94604 0.25465 0.64802 0.0
O229 O 1.00575 0.27562 0.68208 0.0
O230 O 0.97957 0.22075 0.69759 0.0
O231 O 0.95324 0.2817 0.71393 0.0
H232 H 0.02246 0.33067 0.64953 0.0
H233 H 0.92445 0.3247 0.69044 0.0
O234 O 0.9254 0.2259 0.72759 0.0
O235 O 0.87211 0.20099 0.68898 0.0
O236 O 0.89177 0.25738 0.67972 0.0
C237 C 0.86271 0.22475 0.6834 0.0
H238 H 0.89213 0.09748 0.73918 0.0
H239 H 0.02695 0.3953 0.6471 0.0
Co240 Co 0.79368 0.68806 0.70806 0.0
C241 C 0.78031 0.71883 0.66599 0.0
Co242 Co 0.7488 0.70585 0.71357 0.0
C243 C 0.83218 0.64383 0.70814 0.0
C244 C 0.87142 0.69758 0.69393 0.0
N245 N 0.83359 0.6756 0.7034 0.0
N246 N 0.86776 0.64519 0.70203 0.0
C247 C 0.89249 0.679 0.69309 0.0
H248 H 0.80556 0.62024 0.71592 0.0
H249 H 0.88279 0.72526 0.68774 0.0
C250 C 0.76003 0.67423 0.75545 0.0
N251 N 0.70901 0.7187 0.71793 0.0
C252 C 0.70626 0.74475 0.70542 0.0
C253 C 0.67629 0.70416 0.73339 0.0
N254 N 0.67327 0.74706 0.71231 0.0
C255 C 0.65452 0.72203 0.73021 0.0
C256 C 0.71585 0.63408 0.69791 0.0
O257 O 0.78342 0.66857 0.74134 0.0
O258 O 0.7438 0.69198 0.7471 0.0
O259 O 0.70674 0.6575 0.70545 0.0
O260 O 0.75331 0.64265 0.69658 0.0
O261 O 0.75357 0.71923 0.68003 0.0
H262 H 0.66888 0.6822 0.74625 0.0
H263 H 0.7288 0.76263 0.69199 0.0
O264 O 0.80314 0.70732 0.67461 0.0
O265 O 0.83396 0.73325 0.71975 0.0
O266 O 0.79191 0.75474 0.72162 0.0
C267 C 0.82793 0.75947 0.72397 0.0
H268 H 0.92319 0.68927 0.68577 0.0
H269 H 0.62741 0.71733 0.74034 0.0
H270 H 0.46255 0.48735 0.0438 0.0
H271 H 0.38919 0.4645 0.04066 0.0
H272 H 0.41249 0.57386 0.03036 0.0
H273 H 0.48709 0.59732 0.03341 0.0
H274 H 0.34451 0.53279 0.06185 0.0
H275 H 0.38993 0.51861 0.9823 0.0
H276 H 0.42366 0.4987 0.95214 0.0
H277 H 0.34167 0.38716 0.97232 0.0
H278 H 0.30825 0.40645 1.00316 0.0
H279 H 0.14954 0.45219 0.98118 0.0
H280 H 0.22155 0.46961 0.98621 0.0
H281 H 0.198 0.43638 0.06241 0.0
H282 H 0.12543 0.41914 0.05733 0.0
H283 H 0.26653 0.44075 0.99794 0.0
H284 H 0.28267 0.49484 0.0963 0.0
H285 H 0.24682 0.51537 0.12447 0.0
H286 H 0.20485 0.55101 0.06283 0.0
H287 H 0.24082 0.53106 0.03432 0.0
C288 C 0.45247 0.50689 0.04095 0.0
C289 C 0.48136 0.54444 0.03879 0.0
C290 C 0.4101 0.49356 0.0391 0.0
C291 C 0.39473 0.51719 0.03507 0.0
C292 C 0.42326 0.55487 0.03347 0.0
C293 C 0.46606 0.56832 0.03513 0.0
C294 C 0.34913 0.50203 0.03181 0.0
C295 C 0.32758 0.51264 0.04787 0.0
C296 C 0.3264 0.47569 1.01356 0.0
C297 C 0.34684 0.46404 0.99524 0.0
C298 C 0.37941 0.48986 0.98053 0.0
C299 C 0.39847 0.47868 0.9633 0.0
C300 C 0.3849 0.44169 0.96037 0.0
C301 C 0.35219 0.41581 0.97463 0.0
C302 C 0.33326 0.42686 0.99205 0.0
C303 C 0.15929 0.44726 0.9988 0.0
C304 C 0.1313 0.43343 0.01868 0.0
C305 C 0.20078 0.45759 1.00174 0.0
C306 C 0.21599 0.45507 0.0248 0.0
C307 C 0.18755 0.4392 0.04444 0.0
C308 C 0.14571 0.42858 0.04143 0.0
C309 C 0.26172 0.471 0.02819 0.0
C310 C 0.28337 0.46062 1.01208 0.0
C311 C 0.28448 0.4977 0.04623 0.0
C312 C 0.26419 0.5112 0.06321 0.0
C313 C 0.26605 0.50731 0.08879 0.0
C314 C 0.24565 0.5188 0.10481 0.0
C315 C 0.22354 0.53447 0.09545 0.0
C316 C 0.22196 0.53886 0.07005 0.0
C317 C 0.24233 0.52744 0.05396 0.0
H318 H 0.20758 0.54316 0.10785 0.0
H319 H 0.39966 0.43308 0.947 0.0
H320 H 0.53712 0.93194 0.9655 0.0
H321 H 0.56787 0.89526 0.9767 0.0
H322 H 0.50678 0.87158 0.04741 0.0
H323 H 0.47664 0.90932 0.03637 0.0
H324 H 0.58417 0.87842 0.05033 0.0
H325 H 0.46237 0.81146 1.00342 0.0
H326 H 0.41458 0.79992 0.96923 0.0
H327 H 0.50498 0.8071 0.91747 0.0
H328 H 0.55354 0.81909 0.95132 0.0
H329 H 0.60107 0.71587 0.05944 0.0
H330 H 0.57751 0.76008 0.05991 0.0
H331 H 0.63006 0.79771 0.98759 0.0
H332 H 0.65239 0.75298 0.98663 0.0
H333 H 0.55028 0.77984 0.99007 0.0
H334 H 0.67306 0.84937 0.03927 0.0
H335 H 0.71748 0.85802 0.07484 0.0
H336 H 0.61997 0.8411 0.12428 0.0
H337 H 0.57481 0.83198 0.08898 0.0
C338 C 0.53069 0.9193 0.98355 0.0
C339 C 0.50389 0.92277 0.99988 0.0
C340 C 0.5483 0.89843 0.98996 0.0
C341 C 0.53877 0.88 1.01264 0.0
C342 C 0.51429 0.88543 0.02975 0.0
C343 C 0.49706 0.90687 0.02343 0.0
C344 C 0.55144 0.85266 1.01715 0.0
C345 C 0.57636 0.85655 0.03738 0.0
C346 C 0.54097 0.82399 1.00033 0.0
C347 C 0.51171 0.81642 0.9799 0.0
C348 C 0.47217 0.8108 0.98473 0.0
C349 C 0.44493 0.80417 0.96542 0.0
C350 C 0.45678 0.80289 0.9412 0.0
C351 C 0.49586 0.80813 0.93624 0.0
C352 C 0.52323 0.81478 0.95549 0.0
C353 C 0.60767 0.73361 0.04366 0.0
C354 C 0.62826 0.7306 0.02287 0.0
C355 C 0.59456 0.75911 0.04408 0.0
C356 C 0.60206 0.78215 0.02378 0.0
C357 C 0.62394 0.78012 1.00344 0.0
C358 C 0.63698 0.75469 1.003 0.0
C359 C 0.58455 0.80647 0.02262 0.0
C360 C 0.55811 0.80165 1.0031 0.0
C361 C 0.59314 0.83373 0.04032 0.0
C362 C 0.62048 0.83972 0.0615 0.0
C363 C 0.66102 0.84729 0.05773 0.0
C364 C 0.68634 0.85232 0.07784 0.0
C365 C 0.67155 0.8501 0.1018 0.0
C366 C 0.6314 0.84286 0.10571 0.0
C367 C 0.60595 0.8378 0.08566 0.0
H368 H 0.69121 0.85406 0.11734 0.0
H369 H 0.43564 0.79776 0.92627 0.0
H370 H 0.27029 0.93197 0.0234 0.0
H371 H 0.21779 0.86749 0.02822 0.0
H372 H 0.2672 0.84126 0.96484 0.0
H373 H 0.31979 0.90517 0.96017 0.0
H374 H 0.15746 0.80335 0.99749 0.0
H375 H 0.29924 0.78656 0.98705 0.0
H376 H 0.37444 0.82504 0.99124 0.0
H377 H 0.35781 0.88826 0.0468 0.0
H378 H 0.28259 0.84975 0.04332 0.0
H379 H 0.12418 0.6297 0.96402 0.0
H380 H 0.14663 0.69429 0.96929 0.0
H381 H 0.1688 0.68628 0.04624 0.0
H382 H 0.14509 0.62106 0.04106 0.0
H383 H 0.23731 0.74275 0.01796 0.0
H384 H 0.0997 0.70272 0.03839 0.0
H385 H 0.02416 0.66863 0.03584 0.0
H386 H 0.03028 0.71998 0.96654 0.0
H387 H 0.10598 0.75399 0.96844 0.0
C388 C 0.26863 0.91264 1.00982 0.0
C389 C 0.29922 0.92331 0.99156 0.0
C390 C 0.2387 0.87586 1.01263 0.0
C391 C 0.23921 0.84973 0.99712 0.0
C392 C 0.26661 0.86109 0.97708 0.0
C393 C 0.2966 0.89758 0.97442 0.0
C394 C 0.21747 0.81083 1.00421 0.0
C395 C 0.17467 0.78998 1.00212 0.0
C396 C 0.24007 0.79388 1.01122 0.0
C397 C 0.28526 0.81536 1.0148 0.0
C398 C 0.31163 0.80837 1.00038 0.0
C399 C 0.35425 0.83024 1.00259 0.0
C400 C 0.37086 0.8591 0.01922 0.0
C401 C 0.34491 0.86593 0.03389 0.0
C402 C 0.30228 0.84407 0.03182 0.0
C403 C 0.13344 0.64172 0.98208 0.0
C404 C 0.13325 0.62073 1.00212 0.0
C405 C 0.14592 0.67842 0.98512 0.0
C406 C 0.15913 0.69491 1.00817 0.0
C407 C 0.15842 0.67389 0.02836 0.0
C408 C 0.14493 0.63684 0.02542 0.0
C409 C 0.17724 0.73476 1.01022 0.0
C410 C 0.21972 0.75597 1.01389 0.0
C411 C 0.15412 0.75195 1.00525 0.0
C412 C 0.10863 0.73077 1.00349 0.0
C413 C 0.08501 0.70643 0.02244 0.0
C414 C 0.04214 0.6872 0.02115 0.0
C415 C 0.02246 0.69221 1.00108 0.0
C416 C 0.0456 0.71621 0.98212 0.0
C417 C 0.08851 0.7355 0.9833 0.0
H418 H 0.98926 0.67761 1.00028 0.0
H419 H 0.40382 0.87616 0.02073 0.0
H420 H 0.34675 0.1152 0.96815 0.0
H421 H 0.36567 0.17758 0.95684 0.0
H422 H 0.35226 0.19938 0.03288 0.0
H423 H 0.33212 0.13699 0.04388 0.0
H424 H 0.34394 0.246 1.00279 0.0
H425 H 0.43991 0.19655 1.01099 0.0
H426 H 0.46428 0.15584 0.99597 0.0
H427 H 0.48479 0.20432 0.92403 0.0
H428 H 0.45955 0.24463 0.93852 0.0
H429 H 0.50524 0.36853 0.07074 0.0
H430 H 0.46095 0.31285 0.04822 0.0
H431 H 0.50214 0.37129 0.97942 0.0
H432 H 0.54509 0.42749 1.00159 0.0
H433 H 0.49215 0.29342 0.98582 0.0
H434 H 0.42414 0.36138 0.9878 0.0
H435 H 0.40391 0.4025 1.00703 0.0
H436 H 0.33138 0.32034 0.06067 0.0
H437 H 0.35293 0.27934 0.04259 0.0
C438 C 0.34618 0.13304 0.98215 0.0
C439 C 0.3393 0.12203 1.00697 0.0
C440 C 0.35675 0.16849 0.97568 0.0
C441 C 0.36171 0.19335 0.99416 0.0
C442 C 0.34894 0.1807 0.01833 0.0
C443 C 0.33761 0.1451 0.02469 0.0
C444 C 0.38933 0.23281 0.99041 0.0
C445 C 0.37619 0.25664 0.99852 0.0
C446 C 0.43131 0.24679 0.98416 0.0
C447 C 0.44745 0.22322 0.97572 0.0
C448 C 0.44958 0.19842 0.99196 0.0
C449 C 0.46344 0.17536 0.98353 0.0
C450 C 0.47594 0.17734 0.95903 0.0
C451 C 0.47483 0.20256 0.94295 0.0
C452 C 0.46067 0.22548 0.95124 0.0
C453 C 0.50519 0.3696 0.05084 0.0
C454 C 0.52809 0.40274 0.03815 0.0
C455 C 0.48002 0.33781 0.03803 0.0
C456 C 0.47789 0.33852 1.01231 0.0
C457 C 0.50332 0.3706 0.99932 0.0
C458 C 0.5281 0.40264 1.01215 0.0
C459 C 0.44693 0.30579 0.99964 0.0
C460 C 0.4596 0.28338 0.98859 0.0
C461 C 0.40466 0.29322 1.00326 0.0
C462 C 0.39037 0.31726 1.01384 0.0
C463 C 0.4042 0.35214 1.00384 0.0
C464 C 0.39248 0.37546 1.01454 0.0
C465 C 0.36615 0.36397 0.03495 0.0
C466 C 0.3517 0.32918 0.0448 0.0
C467 C 0.36377 0.30591 0.03438 0.0
H468 H 0.357 0.38204 0.04314 0.0
H469 H 0.48656 0.15939 0.95252 0.0
H470 H 0.54423 0.05857 0.026 0.0
H471 H 0.61505 0.10627 0.03192 0.0
H472 H 0.57924 0.18771 0.0257 0.0
H473 H 0.50728 0.13946 0.01979 0.0
H474 H 0.64905 0.20332 0.99696 0.0
H475 H 0.60537 0.17198 0.08057 0.0
H476 H 0.57238 0.13059 0.11588 0.0
H477 H 0.65752 0.09172 0.10918 0.0
H478 H 0.69067 0.1325 0.07359 0.0
H479 H 0.85171 0.34174 0.02899 0.0
H480 H 0.77735 0.30178 0.0273 0.0
H481 H 0.79169 0.20914 0.04271 0.0
H482 H 0.8663 0.24926 0.04478 0.0
H483 H 0.7303 0.20372 0.0687 0.0
H484 H 0.76978 0.22961 0.98348 0.0
H485 H 0.80232 0.26871 0.94709 0.0
H486 H 0.72511 0.3156 0.95566 0.0
H487 H 0.69247 0.27711 0.99232 0.0
C488 C 0.5511 0.08657 0.02606 0.0
C489 C 0.51988 0.09513 0.02235 0.0
C490 C 0.59178 0.11389 0.02955 0.0
C491 C 0.60262 0.15065 0.02942 0.0
C492 C 0.57162 0.15951 0.02591 0.0
C493 C 0.53048 0.13194 0.02265 0.0
C494 C 0.64664 0.17929 0.03229 0.0
C495 C 0.66667 0.20398 1.01289 0.0
C496 C 0.66996 0.17951 0.05274 0.0
C497 C 0.65034 0.15516 0.07429 0.0
C498 C 0.61689 0.15443 0.08652 0.0
C499 C 0.59818 0.1311 0.1066 0.0
C500 C 0.6128 0.10849 0.11474 0.0
C501 C 0.64623 0.10924 0.10285 0.0
C502 C 0.66502 0.1325 0.08274 0.0
C503 C 0.83917 0.31283 0.03174 0.0
C504 C 0.86518 0.29872 0.03681 0.0
C505 C 0.79647 0.28992 0.03079 0.0
C506 C 0.77862 0.25221 0.0345 0.0
C507 C 0.80452 0.2381 0.03977 0.0
C508 C 0.84725 0.26106 0.04095 0.0
C509 C 0.73306 0.2275 0.03318 0.0
C510 C 0.71271 0.20347 0.05288 0.0
C511 C 0.70954 0.22771 1.01289 0.0
C512 C 0.72902 0.25077 0.99081 0.0
C513 C 0.75996 0.24846 0.97772 0.0
C514 C 0.77839 0.27048 0.95703 0.0
C515 C 0.76588 0.2947 0.94912 0.0
C516 C 0.73482 0.29687 0.96184 0.0
C517 C 0.71633 0.27495 0.98257 0.0
H518 H 0.78018 0.31173 0.93309 0.0
H519 H 0.59827 0.09044 0.13029 0.0
H520 H 0.89102 0.42317 0.0209 0.0
H521 H 0.841 0.44429 0.02151 0.0
H522 H 0.94037 0.55555 0.02416 0.0
H523 H 0.98995 0.53479 0.02256 0.0
H524 H 0.81802 0.47687 0.05051 0.0
H525 H 0.91801 0.61492 0.99706 0.0
H526 H 0.9684 0.63827 0.96284 0.0
H527 H 0.92343 0.52942 0.93712 0.0
H528 H 0.87206 0.50543 0.97066 0.0
H529 H 0.72525 0.57974 0.07507 0.0
H530 H 0.77839 0.56317 0.06975 0.0
H531 H 0.76408 0.56241 0.99096 0.0
H532 H 0.71235 0.58095 0.9964 0.0
H533 H 0.83853 0.58073 0.99827 0.0
H534 H 0.71438 0.48295 0.02793 0.0
H535 H 0.65332 0.45038 0.05475 0.0
H536 H 0.73057 0.46272 0.11617 0.0
H537 H 0.79218 0.49598 0.08981 0.0
C538 C 0.90214 0.45213 0.02153 0.0
C539 C 0.94466 0.47719 0.02143 0.0
C540 C 0.87346 0.46427 0.02194 0.0
C541 C 0.88652 0.50176 0.02241 0.0
C542 C 0.92903 0.5266 0.02305 0.0
C543 C 0.95755 0.51457 0.0223 0.0
C544 C 0.85619 0.51517 0.02255 0.0
C545 C 0.82272 0.49962 0.03908 0.0
C546 C 0.86073 0.54395 1.00697 0.0
C547 C 0.8915 0.55834 0.98663 0.0
C548 C 0.91877 0.59597 0.98406 0.0
C549 C 0.94752 0.60932 0.96479 0.0
C550 C 0.94932 0.58535 0.94797 0.0
C551 C 0.92217 0.54796 0.95025 0.0
C552 C 0.89321 0.53447 0.96938 0.0
C553 C 0.73475 0.57755 0.05659 0.0
C554 C 0.71533 0.58254 0.03616 0.0
C555 C 0.76464 0.56734 0.05352 0.0
C556 C 0.77473 0.56029 0.02995 0.0
C557 C 0.75706 0.56744 1.00939 0.0
C558 C 0.72771 0.57845 1.01248 0.0
C559 C 0.80154 0.54345 0.02699 0.0
C560 C 0.83411 0.55817 1.00981 0.0
C561 C 0.79488 0.51262 0.04101 0.0
C562 C 0.75794 0.49226 0.05694 0.0
C563 C 0.71838 0.47891 0.0472 0.0
C564 C 0.68366 0.46033 0.06231 0.0
C565 C 0.68807 0.45454 0.08716 0.0
C566 C 0.72721 0.46727 0.09692 0.0
C567 C 0.76205 0.48599 0.0819 0.0
H568 H 0.66116 0.44015 0.09884 0.0
H569 H 0.97165 0.59576 0.93311 0.0
H570 H 0.74536 0.68455 0.38717 0.0
H571 H 0.79018 0.65949 0.39628 0.0
H572 H 0.89507 0.75974 0.37127 0.0
H573 H 0.85106 0.78494 0.36213 0.0
H574 H 0.85792 0.65879 0.36092 0.0
H575 H 0.94847 0.78645 0.42381 0.0
H576 H 0.93216 0.81591 0.4575 0.0
H577 H 0.82247 0.71507 0.47446 0.0
H578 H 0.83827 0.68478 0.44099 0.0
H579 H 0.03032 0.78901 0.32242 0.0
H580 H 0.96845 0.73727 0.33808 0.0
H581 H 0.03017 0.74064 0.40562 0.0
H582 H 0.09196 0.7942 0.39056 0.0
H583 H 0.96808 0.74066 0.41785 0.0
H584 H 0.9738 0.65481 0.37186 0.0
H585 H 0.99086 0.62541 0.33849 0.0
H586 H 0.90881 0.6377 0.29006 0.0
H587 H 0.89193 0.66791 0.32286 0.0
C588 C 0.77798 0.70108 0.38337 0.0
C589 C 0.79487 0.73686 0.37407 0.0
C590 C 0.80333 0.68667 0.38862 0.0
C591 C 0.84568 0.70803 0.38475 0.0
C592 C 0.8623 0.74311 0.37462 0.0
C593 C 0.83716 0.75743 0.36933 0.0
C594 C 0.87429 0.69547 0.39141 0.0
C595 C 0.88197 0.67567 0.37372 0.0
C596 C 0.90391 0.71498 0.40954 0.0
C597 C 0.89482 0.73317 0.42999 0.0
C598 C 0.92114 0.77035 0.43489 0.0
C599 C 0.91186 0.78728 0.45388 0.0
C600 C 0.87637 0.76736 0.46813 0.0
C601 C 0.84997 0.73047 0.46339 0.0
C602 C 0.85904 0.71342 0.44438 0.0
C603 C 0.03106 0.77877 0.34054 0.0
C604 C 0.066 0.79658 0.35537 0.0
C605 C 0.99575 0.74824 0.3493 0.0
C606 C 0.9946 0.73428 0.373 0.0
C607 C 0.03039 0.75048 0.38719 0.0
C608 C 0.06573 0.78137 0.37852 0.0
C609 C 0.95402 0.70936 0.38441 0.0
C610 C 0.94393 0.72164 0.40587 0.0
C611 C 0.92205 0.68206 0.37018 0.0
C612 C 0.9313 0.66343 0.35007 0.0
C613 C 0.95946 0.65137 0.35409 0.0
C614 C 0.96914 0.63456 0.33523 0.0
C615 C 0.95082 0.62957 0.31219 0.0
C616 C 0.92281 0.6414 0.30797 0.0
C617 C 0.91303 0.65826 0.32676 0.0
H618 H 0.95838 0.61659 0.29759 0.0
H619 H 0.86937 0.78055 0.48284 0.0
H620 H 0.20393 0.25446 0.35973 0.0
H621 H 0.23242 0.21388 0.36523 0.0
H622 H 0.13505 0.13261 0.32083 0.0
H623 H 0.10608 0.17201 0.31612 0.0
H624 H 0.14633 0.10039 0.35774 0.0
H625 H 0.23718 0.19196 0.2989 0.0
H626 H 0.28592 0.25459 0.28505 0.0
H627 H 0.36753 0.26658 0.34386 0.0
H628 H 0.31899 0.20413 0.35823 0.0
H629 H 0.20925 0.98432 0.31259 0.0
H630 H 0.19697 0.03537 0.31423 0.0
H631 H 0.29508 0.08927 0.36646 0.0
H632 H 0.3081 0.03784 0.36452 0.0
H633 H 0.28946 0.13862 0.33283 0.0
H634 H 0.20182 0.04145 0.38621 0.0
H635 H 0.153 0.97817 0.39846 0.0
H636 H 0.06384 0.97574 0.34832 0.0
H637 H 0.11244 0.03893 0.33557 0.0
C638 C 0.18842 0.22778 0.35142 0.0
C639 C 0.15295 0.21687 0.33719 0.0
C640 C 0.20496 0.20466 0.35435 0.0
C641 C 0.18639 0.17014 0.34312 0.0
C642 C 0.15031 0.15899 0.32963 0.0
C643 C 0.13388 0.18187 0.32674 0.0
C644 C 0.20387 0.14522 0.34497 0.0
C645 C 0.17758 0.10883 0.35212 0.0
C646 C 0.24508 0.15614 0.33846 0.0
C647 C 0.27426 0.19358 0.32981 0.0
C648 C 0.26539 0.20807 0.30898 0.0
C649 C 0.29299 0.2435 0.30102 0.0
C650 C 0.32974 0.26459 0.31362 0.0
C651 C 0.33902 0.25024 0.33416 0.0
C652 C 0.31148 0.21483 0.34221 0.0
C653 C 0.22896 0.00739 0.32402 0.0
C654 C 0.25961 0.00692 0.33847 0.0
C655 C 0.22175 0.03658 0.32502 0.0
C656 C 0.24447 0.06599 0.34083 0.0
C657 C 0.27702 0.06689 0.35415 0.0
C658 C 0.28458 0.03756 0.35296 0.0
C659 C 0.23136 0.09365 0.34467 0.0
C660 C 0.25839 0.13039 0.33871 0.0
C661 C 0.19062 0.08302 0.3521 0.0
C662 C 0.16095 0.04503 0.35991 0.0
C663 C 0.17188 0.02742 0.37775 0.0
C664 C 0.14423 0.99152 0.38477 0.0
C665 C 0.10532 0.97291 0.37416 0.0
C666 C 0.09399 0.9902 0.35655 0.0
C667 C 0.12159 0.02611 0.34945 0.0
H668 H 0.08394 0.9451 0.37959 0.0
H669 H 0.35108 0.29202 0.30743 0.0
H670 H 0.97067 0.25531 0.30885 0.0
H671 H 0.92371 0.18946 0.30998 0.0
H672 H 0.94181 0.18937 0.38838 0.0
H673 H 0.98622 0.25525 0.38729 0.0
H674 H 0.94685 0.14534 0.31762 0.0
H675 H 0.87698 0.11108 0.41631 0.0
H676 H 0.84686 0.13437 0.44659 0.0
H677 H 0.81241 0.18186 0.38825 0.0
H678 H 0.84194 0.15855 0.3576 0.0
H679 H 0.90918 0.97077 0.34936 0.0
H680 H 0.93099 0.03554 0.34974 0.0
H681 H 0.80421 0.00865 0.35275 0.0
H682 H 0.78246 0.94377 0.35328 0.0
H683 H 0.84536 0.06448 0.38019 0.0
H684 H 0.86519 0.03723 0.29762 0.0
H685 H 0.89084 0.01367 0.26475 0.0
H686 H 0.01519 0.08851 0.28571 0.0
H687 H 0.99027 0.1122 0.31891 0.0
C688 C 0.96219 0.24149 0.32652 0.0
C689 C 0.98108 0.26063 0.34808 0.0
C690 C 0.93605 0.20361 0.32715 0.0
C691 C 0.92906 0.18384 0.34925 0.0
C692 C 0.94551 0.20348 0.37111 0.0
C693 C 0.97077 0.24146 0.37054 0.0
C694 C 0.91001 0.14312 0.34884 0.0
C695 C 0.92434 0.1278 0.33123 0.0
C696 C 0.88042 0.11963 0.36642 0.0
C697 C 0.86195 0.13326 0.38467 0.0
C698 C 0.86277 0.12631 0.40993 0.0
C699 C 0.84587 0.13958 0.42716 0.0
C700 C 0.82782 0.15965 0.41935 0.0
C701 C 0.82653 0.16641 0.39428 0.0
C702 C 0.84341 0.15323 0.37697 0.0
C703 C 0.88597 0.97867 0.35009 0.0
C704 C 0.84408 0.95203 0.35112 0.0
C705 C 0.89844 0.01581 0.35023 0.0
C706 C 0.86933 0.02737 0.35071 0.0
C707 C 0.82744 1.00073 0.35232 0.0
C708 C 0.81497 0.96354 0.35261 0.0
C709 C 0.8826 0.06708 0.34913 0.0
C710 C 0.86744 0.08213 0.36643 0.0
C711 C 0.91072 0.09033 0.3309 0.0
C712 C 0.92583 0.07628 0.31087 0.0
C713 C 0.898 0.04851 0.2953 0.0
C714 C 0.91241 0.03515 0.27661 0.0
C715 C 0.95461 0.04953 0.27318 0.0
C716 C 0.98251 0.07738 0.2884 0.0
C717 C 0.96826 0.0908 0.30715 0.0
H718 H 0.9657 0.03915 0.25869 0.0
H719 H 0.81478 0.16991 0.43272 0.0
H720 H 0.176 0.78607 0.34055 0.0
H721 H 0.15591 0.72244 0.34421 0.0
H722 H 0.27461 0.75228 0.37398 0.0
H723 H 0.29581 0.81734 0.36952 0.0
H724 H 0.25008 0.69395 0.3456 0.0
H725 H 0.18754 0.7198 0.41202 0.0
H726 H 0.14871 0.74437 0.43324 0.0
H727 H 0.0417 0.6746 0.39097 0.0
H728 H 0.08002 0.6498 0.36927 0.0
H729 H 0.09733 0.50261 0.40808 0.0
H730 H 0.12948 0.56875 0.40609 0.0
H731 H 0.15944 0.56697 0.32954 0.0
H732 H 0.12843 0.50066 0.33182 0.0
H733 H 0.11519 0.61314 0.38553 0.0
H734 H 0.24025 0.64726 0.31032 0.0
H735 H 0.28461 0.62374 0.29561 0.0
H736 H 0.27625 0.57524 0.3664 0.0
H737 H 0.23238 0.59892 0.38167 0.0
C738 C 0.19821 0.77949 0.34789 0.0
C739 C 0.23756 0.80732 0.35504 0.0
C740 C 0.18642 0.74268 0.35008 0.0
C741 C 0.21309 0.73191 0.35999 0.0
C742 C 0.25309 0.75953 0.36644 0.0
C743 C 0.26523 0.79684 0.36395 0.0
C744 C 0.19811 0.69187 0.36392 0.0
C745 C 0.22062 0.67633 0.35437 0.0
C746 C 0.16015 0.66846 0.37598 0.0
C747 C 0.13674 0.68309 0.38894 0.0
C748 C 0.15579 0.70983 0.40715 0.0
C749 C 0.13386 0.72377 0.41927 0.0
C750 C 0.09277 0.71103 0.41346 0.0
C751 C 0.07352 0.68438 0.39546 0.0
C752 C 0.0953 0.67031 0.38327 0.0
C753 C 0.11071 0.51619 0.39078 0.0
C754 C 0.11009 0.49593 0.37011 0.0
C755 C 0.12926 0.55432 0.38963 0.0
C756 C 0.14764 0.57369 0.36773 0.0
C757 C 0.14667 0.55339 0.34694 0.0
C758 C 0.12864 0.5152 0.3482 0.0
C759 C 0.16657 0.61472 0.36665 0.0
C760 C 0.1447 0.63054 0.37675 0.0
C761 C 0.20578 0.6384 0.35593 0.0
C762 C 0.23269 0.62458 0.34704 0.0
C763 C 0.24804 0.63173 0.32278 0.0
C764 C 0.27306 0.61835 0.31434 0.0
C765 C 0.28311 0.59794 0.33005 0.0
C766 C 0.26832 0.59097 0.35425 0.0
C767 C 0.24336 0.60434 0.36279 0.0
H768 H 0.30242 0.58761 0.32349 0.0
H769 H 0.07585 0.72172 0.423 0.0
H770 H 0.20658 0.45912 0.35672 0.0
H771 H 0.27918 0.50531 0.36057 0.0
H772 H 0.31045 0.42095 0.36755 0.0
H773 H 0.2379 0.37447 0.36334 0.0
H774 H 0.3456 0.47749 0.4038 0.0
H775 H 0.32887 0.46124 0.31647 0.0
H776 H 0.29696 0.45841 0.27643 0.0
H777 H 0.32969 0.57043 0.28312 0.0
H778 H 0.36111 0.57375 0.32349 0.0
H779 H 0.5607 0.58635 0.39359 0.0
H780 H 0.48936 0.53943 0.38669 0.0
H781 H 0.45983 0.62223 0.36743 0.0
H782 H 0.53146 0.6693 0.37406 0.0
H783 H 0.42343 0.5658 0.33693 0.0
H784 H 0.43618 0.58219 0.42434 0.0
H785 H 0.46644 0.58617 0.46516 0.0
H786 H 0.44009 0.47578 0.45895 0.0
H787 H 0.41017 0.4713 0.41791 0.0
C788 C 0.22891 0.45039 0.3591 0.0
C789 C 0.21668 0.41322 0.35974 0.0
C790 C 0.27029 0.47678 0.36119 0.0
C791 C 0.29993 0.46637 0.36419 0.0
C792 C 0.28783 0.42935 0.36518 0.0
C793 C 0.24651 0.40292 0.36272 0.0
C794 C 0.34361 0.49423 0.36666 0.0
C795 C 0.36288 0.49652 0.3891 0.0
C796 C 0.36546 0.5195 0.3476 0.0
C797 C 0.34677 0.51758 0.32323 0.0
C798 C 0.32882 0.48516 0.30958 0.0
C799 C 0.3109 0.48348 0.28678 0.0
C800 C 0.31112 0.51417 0.2773 0.0
C801 C 0.32942 0.54664 0.29054 0.0
C802 C 0.34728 0.54843 0.31338 0.0
C803 C 0.53894 0.59452 0.388 0.0
C804 C 0.55145 0.63144 0.38459 0.0
C805 C 0.49825 0.56773 0.38403 0.0
C806 C 0.46921 0.57742 0.37695 0.0
C807 C 0.4818 0.61421 0.37293 0.0
C808 C 0.52265 0.64103 0.37669 0.0
C809 C 0.42557 0.54916 0.37413 0.0
C810 C 0.40623 0.54678 0.35164 0.0
C811 C 0.40347 0.52397 0.39323 0.0
C812 C 0.4213 0.52654 0.41795 0.0
C813 C 0.43712 0.55885 0.43159 0.0
C814 C 0.45417 0.56119 0.45479 0.0
C815 C 0.45529 0.53128 0.46462 0.0
C816 C 0.43926 0.49894 0.4513 0.0
C817 C 0.42222 0.49648 0.42808 0.0
H818 H 0.4685 0.53314 0.48258 0.0
H819 H 0.29724 0.51282 0.25964 0.0
H820 H 0.48993 0.99464 0.35275 0.0
H821 H 0.54132 0.97543 0.35696 0.0
H822 H 0.44406 0.8639 0.36539 0.0
H823 H 0.39309 0.8828 0.36162 0.0
H824 H 0.50468 0.88443 0.40021 0.0
H825 H 0.49196 0.89145 0.31195 0.0
H826 H 0.4942 0.92233 0.27299 0.0
H827 H 0.62119 1.001 0.28495 0.0
H828 H 0.61953 0.97084 0.32419 0.0
H829 H 0.59362 0.77593 0.37727 0.0
H830 H 0.55234 0.80557 0.37612 0.0
H831 H 0.6617 0.90924 0.36258 0.0
H832 H 0.70307 0.87979 0.36316 0.0
H833 H 0.6014 0.89978 0.33262 0.0
H834 H 0.61605 0.88901 0.41903 0.0
H835 H 0.6138 0.85754 0.45771 0.0
H836 H 0.48384 0.78634 0.44964 0.0
H837 H 0.4854 0.81704 0.41072 0.0
C838 C 0.47973 0.96609 0.35551 0.0
C839 C 0.43763 0.94018 0.35657 0.0
C840 C 0.50895 0.95517 0.35783 0.0
C841 C 0.49628 0.91827 0.36139 0.0
C842 C 0.45433 0.89249 0.36264 0.0
C843 C 0.42527 0.90331 0.36018 0.0
C844 C 0.52639 0.90598 0.3638 0.0
C845 C 0.52575 0.88761 0.38542 0.0
C846 C 0.55446 0.91107 0.34472 0.0
C847 C 0.55547 0.92918 0.32114 0.0
C848 C 0.52025 0.91554 0.30639 0.0
C849 C 0.52143 0.93286 0.28423 0.0
C850 C 0.55777 0.96368 0.27654 0.0
C851 C 0.59304 0.97718 0.29096 0.0
C852 C 0.592 0.95998 0.31315 0.0
C853 C 0.60887 0.80504 0.37412 0.0
C854 C 0.65155 0.82554 0.37037 0.0
C855 C 0.58531 0.82196 0.37358 0.0
C856 C 0.60413 0.85966 0.36959 0.0
C857 C 0.64668 0.88014 0.36574 0.0
C858 C 0.67023 0.86324 0.36613 0.0
C859 C 0.57918 0.87754 0.36887 0.0
C860 C 0.58081 0.89703 0.34759 0.0
C861 C 0.55205 0.87352 0.38831 0.0
C862 C 0.55091 0.85518 0.41185 0.0
C863 C 0.58703 0.86649 0.42542 0.0
C864 C 0.58587 0.8488 0.4474 0.0
C865 C 0.54871 0.81992 0.4561 0.0
C866 C 0.51261 0.80871 0.44287 0.0
C867 C 0.5136 0.82628 0.42086 0.0
H868 H 0.54788 0.80625 0.47312 0.0
H869 H 0.55864 0.97705 0.25938 0.0
H870 H 0.79986 0.15623 0.67542 0.0
H871 H 0.72635 0.13396 0.67459 0.0
H872 H 0.7493 0.24286 0.68634 0.0
H873 H 0.82398 0.26575 0.68696 0.0
H874 H 0.6858 0.18816 0.71764 0.0
H875 H 0.72092 0.20745 0.63138 0.0
H876 H 0.75207 0.20096 0.59309 0.0
H877 H 0.6746 0.08482 0.59706 0.0
H878 H 0.64339 0.09059 0.63561 0.0
H879 H 0.49716 0.17109 0.68937 0.0
H880 H 0.56729 0.18442 0.6926 0.0
H881 H 0.53105 0.07572 0.66865 0.0
H882 H 0.45917 0.06234 0.66454 0.0
H883 H 0.60026 0.12481 0.64508 0.0
H884 H 0.56119 0.10404 0.72917 0.0
H885 H 0.52933 0.10874 0.76772 0.0
H886 H 0.61342 0.22393 0.76935 0.0
H887 H 0.64535 0.22009 0.73057 0.0
C888 C 0.78954 0.17571 0.67769 0.0
C889 C 0.81811 0.21294 0.68124 0.0
C890 C 0.74726 0.1628 0.67716 0.0
C891 C 0.73198 0.18659 0.68034 0.0
C892 C 0.76027 0.22389 0.68384 0.0
C893 C 0.80297 0.23703 0.68402 0.0
C894 C 0.68647 0.172 0.68025 0.0
C895 C 0.66717 0.17477 0.70167 0.0
C896 C 0.66169 0.15294 0.65983 0.0
C897 C 0.6801 0.14944 0.63651 0.0
C898 C 0.71075 0.18051 0.6242 0.0
C899 C 0.72838 0.17696 0.60243 0.0
C900 C 0.7154 0.1425 0.59268 0.0
C901 C 0.68466 0.1115 0.60465 0.0
C902 C 0.66696 0.1149 0.62645 0.0
C903 C 0.50368 0.1496 0.68502 0.0
C904 C 0.47229 0.11555 0.67667 0.0
C905 C 0.54412 0.15731 0.68707 0.0
C906 C 0.55494 0.1311 0.68126 0.0
C907 C 0.52359 0.09648 0.67341 0.0
C908 C 0.48243 0.08864 0.67129 0.0
C909 C 0.59943 0.14146 0.68238 0.0
C910 C 0.61868 0.1379 0.66118 0.0
C911 C 0.62412 0.15939 0.70316 0.0
C912 C 0.60557 0.16178 0.72683 0.0
C913 C 0.57278 0.13043 0.73766 0.0
C914 C 0.5547 0.13293 0.75957 0.0
C915 C 0.56931 0.16661 0.77096 0.0
C916 C 0.60213 0.19785 0.7605 0.0
C917 C 0.62029 0.19551 0.73857 0.0
H918 H 0.55522 0.16849 0.7879 0.0
H919 H 0.72911 0.13981 0.57583 0.0
H920 H 0.02428 0.44115 0.67604 0.0
H921 H 1.00531 0.48765 0.68451 0.0
H922 H 0.87701 0.40577 0.68045 0.0
H923 H 0.89581 0.35947 0.67204 0.0
H924 H 0.89755 0.46863 0.65357 0.0
H925 H 0.91468 0.43341 0.73442 0.0
H926 H 0.95046 0.42175 0.76802 0.0
H927 H 0.04618 0.53383 0.76629 0.0
H928 H 1.01126 0.54608 0.73243 0.0
H929 H 0.81371 0.5728 0.69889 0.0
H930 H 0.83035 0.52417 0.69673 0.0
H931 H 0.95906 0.6031 0.70458 0.0
H932 H 0.94253 0.65171 0.70748 0.0
H933 H 0.93705 0.54052 0.73063 0.0
H934 H 0.92054 0.57467 0.64852 0.0
H935 H 0.88368 0.58601 0.61542 0.0
H936 H 0.78583 0.47488 0.6199 0.0
H937 H 0.82188 0.46301 0.65328 0.0
C938 C 0.99212 0.43329 0.67679 0.0
C939 C 0.96148 0.39684 0.6735 0.0
C940 C 0.98133 0.45967 0.68182 0.0
C941 C 0.93978 0.44993 0.68332 0.0
C942 C 0.90921 0.4137 0.67948 0.0
C943 C 0.91997 0.38734 0.67479 0.0
C944 C 0.92797 0.47755 0.68846 0.0
C945 C 0.90572 0.48404 0.67054 0.0
C946 C 0.93927 0.49791 0.71046 0.0
C947 C 0.96059 0.49056 0.73066 0.0
C948 C 0.94359 0.45549 0.74101 0.0
C949 C 0.96366 0.44879 0.76015 0.0
C950 C 1.00064 0.477 0.76922 0.0
C951 C 0.01758 0.51199 0.75921 0.0
C952 C 0.99765 0.51883 0.74005 0.0
C953 C 0.84544 0.57972 0.70066 0.0
C954 C 0.87688 0.61615 0.70306 0.0
C955 C 0.85493 0.55196 0.69925 0.0
C956 C 0.89599 0.56019 0.70012 0.0
C957 C 0.92721 0.59625 0.70375 0.0
C958 C 0.91776 0.62401 0.70515 0.0
C959 C 0.90672 0.53164 0.6957 0.0
C960 C 0.92881 0.52502 0.7137 0.0
C961 C 0.89525 0.51106 0.67377 0.0
C962 C 0.87371 0.51806 0.65356 0.0
C963 C 0.89103 0.55273 0.64256 0.0
C964 C 0.87031 0.55924 0.62374 0.0
C965 C 0.83239 0.53121 0.61561 0.0
C966 C 0.81518 0.49657 0.62624 0.0
C967 C 0.83575 0.48994 0.6451 0.0
H968 H 0.81639 0.5363 0.60103 0.0
H969 H 0.01613 0.47178 0.78404 0.0
H970 H 0.72685 0.57972 0.6804 0.0
H971 H 0.67481 0.51656 0.67353 0.0
H972 H 0.57998 0.53951 0.69583 0.0
H973 H 0.63221 0.60341 0.70265 0.0
H974 H 0.62334 0.46809 0.70726 0.0
H975 H 0.49207 0.47859 0.66215 0.0
H976 H 0.48137 0.52175 0.63723 0.0
H977 H 0.60312 0.56726 0.60699 0.0
H978 H 0.61431 0.52407 0.63147 0.0
H979 H 0.46123 0.28759 0.69375 0.0
H980 H 0.4936 0.35217 0.70346 0.0
H981 H 0.53225 0.37944 0.62772 0.0
H982 H 0.49845 0.31493 0.61761 0.0
H983 H 0.5103 0.42583 0.64679 0.0
H984 H 0.59498 0.37445 0.67038 0.0
H985 H 0.61003 0.33194 0.69276 0.0
H986 H 0.58959 0.36976 0.7617 0.0
H987 H 0.57385 0.41215 0.73969 0.0
C988 C 0.69493 0.57155 0.68369 0.0
C989 C 0.68363 0.59657 0.69211 0.0
C990 C 0.66525 0.53537 0.67985 0.0
C991 C 0.62365 0.52341 0.68425 0.0
C992 C 0.61198 0.54834 0.69221 0.0
C993 C 0.64181 0.58476 0.69608 0.0
C994 C 0.59309 0.4845 0.68091 0.0
C995 C 0.59835 0.45883 0.69422 0.0
C996 C 0.56061 0.47256 0.66388 0.0
C997 C 0.55417 0.49843 0.64889 0.0
C998 C 0.5165 0.49777 0.65014 0.0
C999 C 0.51036 0.52223 0.6361 0.0
C1000 C 0.54161 0.54733 0.62061 0.0
C1001 C 0.57901 0.54792 0.61907 0.0
C1002 C 0.58529 0.5235 0.63306 0.0
C1003 C 0.47575 0.30722 0.67901 0.0
C1004 C 0.47771 0.29601 0.65492 0.0
C1005 C 0.49445 0.34417 0.68465 0.0
C1006 C 0.5158 0.37054 0.66638 0.0
C1007 C 0.51601 0.3595 0.64211 0.0
C1008 C 0.49714 0.32259 0.63643 0.0
C1009 C 0.5411 0.40946 0.67279 0.0
C1010 C 0.53476 0.4351 0.66019 0.0
C1011 C 0.57316 0.42151 0.69017 0.0
C1012 C 0.58268 0.39608 0.70339 0.0
C1013 C 0.59335 0.37347 0.6903 0.0
C1014 C 0.60206 0.34943 0.70292 0.0
C1015 C 0.60061 0.34805 0.72863 0.0
C1016 C 0.59057 0.37078 0.74178 0.0
C1017 C 0.58175 0.3948 0.72925 0.0
H1018 H 0.60737 0.32943 0.73836 0.0
H1019 H 0.5368 0.56625 0.60977 0.0
H1020 H 0.65661 0.78922 0.74129 0.0
H1021 H 0.6653 0.84802 0.7293 0.0
H1022 H 0.68006 0.82651 0.65337 0.0
H1023 H 0.67314 0.76827 0.66577 0.0
H1024 H 0.74513 0.88202 0.66741 0.0
H1025 H 0.60686 0.85134 0.67165 0.0
H1026 H 0.53584 0.82358 0.68739 0.0
H1027 H 0.57879 0.88914 0.75239 0.0
H1028 H 0.65016 0.91694 0.73726 0.0
H1029 H 0.83841 0.07449 0.66072 0.0
H1030 H 0.78429 0.01192 0.65219 0.0
H1031 H 0.76554 0.98984 0.73018 0.0
H1032 H 0.81929 0.05231 0.73877 0.0
H1033 H 0.69114 0.95762 0.70228 0.0
H1034 H 0.82815 0.97059 0.70209 0.0
H1035 H 0.89948 0.99644 0.68714 0.0
H1036 H 0.85587 0.96142 0.61377 0.0
H1037 H 0.78424 0.93577 0.62828 0.0
C1038 C 0.65986 0.79646 0.72195 0.0
C1039 C 0.66492 0.77484 0.70445 0.0
C1040 C 0.66459 0.83 0.71501 0.0
C1041 C 0.67361 0.8419 0.69038 0.0
C1042 C 0.6734 0.81804 0.67247 0.0
C1043 C 0.66951 0.78488 0.67951 0.0
C1044 C 0.6929 0.88128 0.68476 0.0
C1045 C 0.73245 0.89835 0.67421 0.0
C1046 C 0.67692 0.90283 0.69396 0.0
C1047 C 0.634 0.88621 0.70329 0.0
C1048 C 0.60124 0.85969 0.68938 0.0
C1049 C 0.56088 0.84396 0.69819 0.0
C1050 C 0.55281 0.85458 0.72087 0.0
C1051 C 0.58509 0.88098 0.7348 0.0
C1052 C 0.62552 0.8968 0.72608 0.0
C1053 C 0.82225 0.05641 0.676 0.0
C1054 C 0.8333 0.06798 0.7004 0.0
C1055 C 0.79138 0.02082 0.67111 0.0
C1056 C 0.77103 0.99647 0.69058 0.0
C1057 C 0.78079 0.00842 0.71494 0.0
C1058 C 0.81186 0.04384 0.71982 0.0
C1059 C 0.74321 0.95745 0.6859 0.0
C1060 C 0.70254 0.94082 0.69456 0.0
C1061 C 0.75794 0.93608 0.67492 0.0
C1062 C 0.80096 0.95183 0.66617 0.0
C1063 C 0.83382 0.96878 0.68272 0.0
C1064 C 0.87428 0.9833 0.67435 0.0
C1065 C 0.88221 0.98072 0.6495 0.0
C1066 C 0.84968 0.96352 0.63299 0.0
C1067 C 0.80916 0.949 0.64128 0.0
H1068 H 0.91356 0.99193 0.64305 0.0
H1069 H 0.52154 0.84237 0.72766 0.0
H1070 H 0.84868 0.82654 0.70498 0.0
H1071 H 0.9187 0.87952 0.7036 0.0
H1072 H 0.95979 0.82372 0.75201 0.0
H1073 H 0.89041 0.77158 0.75367 0.0
H1074 H 1.00383 0.89482 0.75987 0.0
H1075 H 0.95957 0.81432 0.6891 0.0
H1076 H 0.91368 0.78334 0.65415 0.0
H1077 H 0.94456 0.88676 0.62241 0.0
H1078 H 0.99025 0.91835 0.6574 0.0
H1079 H 0.20331 0.93802 0.7234 0.0
H1080 H 0.12909 0.906 0.7297 0.0
H1081 H 0.12026 0.98554 0.68489 0.0
H1082 H 0.1942 0.01841 0.67893 0.0
H1083 H 0.05919 0.91287 0.67464 0.0
H1084 H 0.1145 0.99248 0.74369 0.0
H1085 H 0.16183 0.02023 0.77851 0.0
H1086 H 0.11114 0.91561 0.8136 0.0
H1087 H 0.06397 0.8871 0.77876 0.0
C1088 C 0.87234 0.82644 0.71619 0.0
C1089 C 0.86432 0.79504 0.72936 0.0
C1090 C 0.91242 0.85648 0.71518 0.0
C1091 C 0.94477 0.85526 0.72725 0.0
C1092 C 0.93556 0.82536 0.74245 0.0
C1093 C 0.89582 0.79553 0.74341 0.0
C1094 C 0.98865 0.88194 0.72165 0.0
C1095 C 0.01588 0.89888 0.74123 0.0
C1096 C 1.00452 0.88756 0.69729 0.0
C1097 C 0.97795 0.86867 0.67596 0.0
C1098 C 0.95644 0.83043 0.6747 0.0
C1099 C 0.93045 0.81277 0.6549 0.0
C1100 C 0.9261 0.83306 0.6361 0.0
C1101 C 0.94789 0.87108 0.63701 0.0
C1102 C 0.97384 0.88888 0.65682 0.0
C1103 C 0.18592 0.94898 0.71489 0.0
C1104 C 0.20558 0.98125 0.70078 0.0
C1105 C 0.14329 0.93048 0.71849 0.0
C1106 C 0.11921 0.94362 0.70797 0.0
C1107 C 0.13826 0.97494 0.69319 0.0
C1108 C 0.1809 0.99367 0.68975 0.0
C1109 C 0.07428 0.92501 0.71292 0.0
C1110 C 0.04702 0.90955 0.69321 0.0
C1111 C 0.05844 0.92042 0.73717 0.0
C1112 C 0.08587 0.93761 0.75852 0.0
C1113 C 0.11357 0.97535 0.75877 0.0
C1114 C 0.14038 0.99123 0.77851 0.0
C1115 C 0.13954 0.96969 0.79823 0.0
C1116 C 0.11176 0.93225 0.7983 0.0
C1117 C 0.08494 0.91622 0.77857 0.0
H1118 H 0.1604 0.98202 0.81347 0.0
H1119 H 0.90594 0.81935 0.6208 0.0
H1120 H 0.24612 0.11347 0.70393 0.0
H1121 H 0.19768 0.13593 0.70754 0.0
H1122 H 0.25952 0.21104 0.6475 0.0
H1123 H 0.30911 0.19023 0.64496 0.0
H1124 H 0.2444 0.24544 0.67901 0.0
H1125 H 0.15975 0.12739 0.64371 0.0
H1126 H 0.1278 0.06067 0.64093 0.0
H1127 H 0.06746 0.04822 0.71055 0.0
H1128 H 0.09946 0.11491 0.7139 0.0
H1129 H 0.07495 0.27977 0.65715 0.0
H1130 H 0.13032 0.26492 0.6541 0.0
H1131 H 0.08983 0.20554 0.72267 0.0
H1132 H 0.03531 0.22038 0.72581 0.0
H1133 H 0.09365 0.16376 0.68545 0.0
H1134 H 0.17963 0.28327 0.71958 0.0
H1135 H 0.21159 0.35006 0.72097 0.0
H1136 H 0.26835 0.35923 0.65051 0.0
H1137 H 0.23625 0.29241 0.64855 0.0
C1138 C 0.24905 0.13453 0.6914 0.0
C1139 C 0.28141 0.15002 0.67416 0.0
C1140 C 0.22122 0.14734 0.69337 0.0
C1141 C 0.22433 0.17507 0.67758 0.0
C1142 C 0.25628 0.18987 0.66004 0.0
C1143 C 0.28457 0.17775 0.65849 0.0
C1144 C 0.19526 0.18946 0.67956 0.0
C1145 C 0.2114 0.22743 0.68001 0.0
C1146 C 0.15205 0.16632 0.68129 0.0
C1147 C 0.1323 0.12617 0.67915 0.0
C1148 C 0.13983 0.11043 0.65848 0.0
C1149 C 0.12171 0.07262 0.65681 0.0
C1150 C 0.09569 0.05023 0.67558 0.0
C1151 C 0.08765 0.0656 0.69603 0.0
C1152 C 0.10573 0.1034 0.69782 0.0
C1153 C 0.07899 0.26481 0.67199 0.0
C1154 C 0.05087 0.25137 0.69175 0.0
C1155 C 0.11033 0.25596 0.67013 0.0
C1156 C 0.11392 0.23362 0.68802 0.0
C1157 C 0.08749 0.2224 0.7085 0.0
C1158 C 0.05653 0.23123 0.71037 0.0
C1159 C 0.14292 0.21951 0.68489 0.0
C1160 C 0.12668 0.18163 0.68425 0.0
C1161 C 0.18589 0.24268 0.68264 0.0
C1162 C 0.20515 0.28282 0.68379 0.0
C1163 C 0.19861 0.2995 0.70428 0.0
C1164 C 0.21682 0.33737 0.70519 0.0
C1165 C 0.24188 0.35887 0.6858 0.0
C1166 C 0.24887 0.34254 0.66549 0.0
C1167 C 0.2307 0.30467 0.66448 0.0
H1168 H 0.25597 0.38818 0.68655 0.0
H1169 H 0.08167 0.02096 0.67424 0.0
H1170 H 0.10106 0.42305 0.29252 0.0
H1171 H 0.10048 0.44471 0.25107 0.0
H1172 H 0.11102 0.35607 0.2207 0.0
H1173 H 0.11148 0.33393 0.26256 0.0
H1174 H 0.15248 0.46826 0.21204 0.0
H1175 H 0.05212 0.32857 0.16772 0.0
H1176 H 1.00131 0.26551 0.17973 0.0
H1177 H 0.96615 0.3048 0.2427 0.0
H1178 H 0.01632 0.36806 0.23086 0.0
H1179 H 0.12743 0.48749 0.08097 0.0
H1180 H 0.1444 0.47483 0.1221 0.0
H1181 H 0.01884 0.43354 0.14543 0.0
H1182 H 1.00181 0.44504 0.10431 0.0
H1183 H 0.03979 0.38606 0.15658 0.0
H1184 H 0.10386 0.51627 0.16673 0.0
H1185 H 0.15169 0.58053 0.15595 0.0
H1186 H 0.25403 0.56307 0.1634 0.0
H1187 H 0.20675 0.49854 0.17383 0.0
C1188 C 0.10349 0.40811 0.27709 0.0
C1189 C 0.10593 0.37644 0.28097 0.0
C1190 C 0.10345 0.42079 0.2533 0.0
C1191 C 0.10543 0.40203 0.23261 0.0
C1192 C 0.10912 0.37094 0.23633 0.0
C1193 C 0.10948 0.35832 0.26028 0.0
C1194 C 0.10109 0.41409 0.20741 0.0
C1195 C 0.12805 0.45019 0.19981 0.0
C1196 C 0.06899 0.39083 0.19144 0.0
C1197 C 0.03832 0.35297 0.19856 0.0
C1198 C 0.03345 0.32372 0.18408 0.0
C1199 C 1.00477 0.28796 0.19086 0.0
C1200 C 0.98063 0.28115 0.21201 0.0
C1201 C 0.98498 0.3101 0.22637 0.0
C1202 C 0.01355 0.34591 0.21965 0.0
C1203 C 0.10398 0.47719 0.09523 0.0
C1204 C 0.06345 0.46792 0.08957 0.0
C1205 C 0.11357 0.46956 0.11872 0.0
C1206 C 0.08289 0.453 0.13706 0.0
C1207 C 0.04307 0.44598 0.1317 0.0
C1208 C 0.03344 0.45308 0.10826 0.0
C1209 C 0.09091 0.44048 0.16118 0.0
C1210 C 0.06463 0.40415 0.16859 0.0
C1211 C 0.12332 0.4637 0.17704 0.0
C1212 C 0.15174 0.5025 0.17084 0.0
C1213 C 0.13655 0.52607 0.16589 0.0
C1214 C 0.16356 0.56255 0.15987 0.0
C1215 C 0.20587 0.57586 0.15896 0.0
C1216 C 0.22125 0.55273 0.16413 0.0
C1217 C 0.19436 0.5162 0.17008 0.0
H1218 H 0.22673 0.6041 0.15427 0.0
H1219 H 0.95849 0.25345 0.21725 0.0
H1220 H 0.63878 0.69696 0.31138 0.0
H1221 H 0.6231 0.66971 0.27068 0.0
H1222 H 0.72998 0.764 0.2408 0.0
H1223 H 0.74608 0.79187 0.2819 0.0
H1224 H 0.66162 0.73836 0.20999 0.0
H1225 H 0.73399 0.68862 0.25242 0.0
H1226 H 0.74783 0.6587 0.287 0.0
H1227 H 0.62865 0.56391 0.27862 0.0
H1228 H 0.61384 0.59349 0.24421 0.0
H1229 H 0.66976 0.66054 0.09784 0.0
H1230 H 0.68496 0.68876 0.13815 0.0
H1231 H 0.58902 0.58892 0.17041 0.0
H1232 H 0.57488 0.5597 0.12972 0.0
H1233 H 0.65118 0.61788 0.20023 0.0
H1234 H 0.57847 0.66701 0.15749 0.0
H1235 H 0.56447 0.69671 0.1228 0.0
H1236 H 0.68283 0.79227 0.13169 0.0
H1237 H 0.69774 0.76302 0.16623 0.0
C1238 C 0.65902 0.71222 0.29622 0.0
C1239 C 0.69398 0.74666 0.30008 0.0
C1240 C 0.64998 0.69641 0.27287 0.0
C1241 C 0.67564 0.71443 0.25265 0.0
C1242 C 0.70977 0.74944 0.25613 0.0
C1243 C 0.71897 0.76537 0.27964 0.0
C1244 C 0.66711 0.69601 0.22819 0.0
C1245 C 0.65988 0.71226 0.20776 0.0
C1246 C 0.66369 0.66142 0.22535 0.0
C1247 C 0.67267 0.64341 0.24587 0.0
C1248 C 0.71062 0.6615 0.25806 0.0
C1249 C 0.71865 0.64459 0.27762 0.0
C1250 C 0.6891 0.60946 0.28504 0.0
C1251 C 0.65149 0.59113 0.27287 0.0
C1252 C 0.64328 0.60795 0.25332 0.0
C1253 C 0.65178 0.64442 0.11347 0.0
C1254 C 0.62071 0.6079 0.11047 0.0
C1255 C 0.66038 0.66078 0.1366 0.0
C1256 C 0.63737 0.64154 0.15741 0.0
C1257 C 0.60701 0.60462 0.15466 0.0
C1258 C 0.59889 0.58787 0.13141 0.0
C1259 C 0.64552 0.66012 0.18187 0.0
C1260 C 0.65272 0.64391 0.20237 0.0
C1261 C 0.64869 0.69469 0.18478 0.0
C1262 C 0.63934 0.71269 0.16437 0.0
C1263 C 0.60157 0.69432 0.152 0.0
C1264 C 0.59346 0.71108 0.13236 0.0
C1265 C 0.62275 0.74635 0.12502 0.0
C1266 C 0.66014 0.76498 0.13739 0.0
C1267 C 0.66841 0.74833 0.15703 0.0
H1268 H 0.61647 0.75925 0.10977 0.0
H1269 H 0.69538 0.59642 0.30019 0.0
H1270 H 0.32141 0.9678 0.06929 0.0
H1271 H 0.29736 0.9469 0.11104 0.0
H1272 H 0.40847 0.94466 0.12614 0.0
H1273 H 0.43253 0.96511 0.0835 0.0
H1274 H 0.34071 0.88784 0.14932 0.0
H1275 H 0.40046 0.01666 0.14412 0.0
H1276 H 0.4121 0.07471 0.12662 0.0
H1277 H 0.28585 0.04251 0.14036 0.0
H1278 H 0.27327 0.98398 0.15759 0.0
H1279 H 0.32958 0.90588 0.27944 0.0
H1280 H 0.34788 0.91197 0.23589 0.0
H1281 H 0.23535 0.90992 0.21775 0.0
H1282 H 0.21656 0.90355 0.26174 0.0
H1283 H 0.30482 0.9682 0.19633 0.0
H1284 H 0.24684 0.83899 0.20294 0.0
H1285 H 0.23774 0.78207 0.22096 0.0
H1286 H 0.36441 0.81704 0.20598 0.0
H1287 H 0.37444 0.87444 0.18817 0.0
C1288 C 0.3407 0.96263 0.08141 0.0
C1289 C 0.37924 0.9688 0.07331 0.0
C1290 C 0.32687 0.95066 0.10532 0.0
C1291 C 0.35152 0.94517 0.12205 0.0
C1292 C 0.38905 0.94907 0.11364 0.0
C1293 C 0.4028 0.96072 0.08933 0.0
C1294 C 0.33853 0.93748 0.14846 0.0
C1295 C 0.33344 0.90567 0.15971 0.0
C1296 C 0.3283 0.96039 0.16201 0.0
C1297 C 0.33584 0.99578 0.15196 0.0
C1298 C 0.3751 0.02185 0.14326 0.0
C1299 C 0.38188 0.05485 0.1334 0.0
C1300 C 0.34971 0.06226 0.13232 0.0
C1301 C 0.31072 0.03671 0.14118 0.0
C1302 C 0.30376 1.00363 0.15102 0.0
C1303 C 0.30833 0.90619 0.2662 0.0
C1304 C 0.27156 0.90427 0.27409 0.0
C1305 C 0.31883 0.90954 0.24124 0.0
C1306 C 0.29299 0.91126 0.22345 0.0
C1307 C 0.25575 0.90855 0.23115 0.0
C1308 C 0.2449 0.9047 0.25625 0.0
C1309 C 0.30646 0.91832 0.19713 0.0
C1310 C 0.31191 0.95025 0.18593 0.0
C1311 C 0.31746 0.89575 0.18383 0.0
C1312 C 0.31147 0.86117 0.19441 0.0
C1313 C 0.27285 0.83469 0.20366 0.0
C1314 C 0.2675 0.8023 0.21381 0.0
C1315 C 0.3005 0.79598 0.21467 0.0
C1316 C 0.33888 0.82199 0.20532 0.0
C1317 C 0.3444 0.85444 0.19517 0.0
H1318 H 0.2963 0.77089 0.22253 0.0
H1319 H 0.35501 0.08782 0.12467 0.0
H1320 H 0.46174 0.03585 0.92092 0.0
H1321 H 0.46529 0.06123 0.87952 0.0
H1322 H 0.38333 0.0986 0.90319 0.0
H1323 H 0.37997 0.07407 0.94415 0.0
H1324 H 0.35963 0.05922 0.85918 0.0
H1325 H 0.4802 0.15657 0.89653 0.0
H1326 H 0.54759 0.18481 0.9169 0.0
H1327 H 0.59932 0.15972 0.85452 0.0
H1328 H 0.53201 0.13082 0.83395 0.0
H1329 H 0.35459 0.15441 0.7565 0.0
H1330 H 0.36696 0.14431 0.79927 0.0
H1331 H 0.46965 0.13314 0.77544 0.0
H1332 H 0.45859 0.14542 0.73299 0.0
H1333 H 0.48515 0.15831 0.81931 0.0
H1334 H 0.36776 0.05774 0.78293 0.0
H1335 H 0.30096 0.02503 0.76213 0.0
H1336 H 0.24393 0.05068 0.82126 0.0
H1337 H 0.31061 0.08383 0.84247 0.0
C1338 C 0.44463 0.04959 0.91728 0.0
C1339 C 0.42044 0.05269 0.93591 0.0
C1340 C 0.44679 0.06419 0.89365 0.0
C1341 C 0.42453 0.08183 0.88823 0.0
C1342 C 0.40065 0.08505 0.90685 0.0
C1343 C 0.39884 0.07094 0.93036 0.0
C1344 C 0.4245 0.09598 0.86306 0.0
C1345 C 0.38701 0.08118 0.85058 0.0
C1346 C 0.46044 0.12384 0.85147 0.0
C1347 C 0.5009 0.14112 0.86384 0.0
C1348 C 0.50583 0.15675 0.88727 0.0
C1349 C 0.54404 0.17294 0.89883 0.0
C1350 C 0.57768 0.17394 0.88705 0.0
C1351 C 0.5732 0.15884 0.86365 0.0
C1352 C 0.53502 0.14256 0.85203 0.0
C1353 C 0.38106 0.15169 0.76065 0.0
C1354 C 0.40622 0.15157 0.74156 0.0
C1355 C 0.38766 0.14511 0.78503 0.0
C1356 C 0.41843 0.13664 0.79065 0.0
C1357 C 0.44557 0.13936 0.77177 0.0
C1358 C 0.43952 0.14677 0.74747 0.0
C1359 C 0.42 0.12191 0.81549 0.0
C1360 C 0.45773 0.13639 0.82787 0.0
C1361 C 0.38435 0.09318 0.82691 0.0
C1362 C 0.34427 0.07361 0.81414 0.0
C1363 C 0.34106 0.05667 0.79141 0.0
C1364 C 0.30319 0.03801 0.77955 0.0
C1365 C 0.26823 0.03592 0.79025 0.0
C1366 C 0.27106 0.05241 0.81294 0.0
C1367 C 0.30887 0.07109 0.82492 0.0
H1368 H 0.23895 0.02142 0.78101 0.0
H1369 H 0.60726 0.18651 0.89602 0.0
H1370 H 0.04695 0.46306 0.9284 0.0
H1371 H 0.03312 0.43525 0.88725 0.0
H1372 H 0.94825 0.33087 0.91935 0.0
H1373 H 0.96171 0.35804 0.95998 0.0
H1374 H 0.99915 0.32431 0.88805 0.0
H1375 H 0.91626 0.38166 0.88692 0.0
H1376 H 0.90306 0.43285 0.88928 0.0
H1377 H 0.98558 0.48551 0.82847 0.0
H1378 H 0.99988 0.43494 0.82605 0.0
H1379 H 0.91145 0.22415 0.77697 0.0
H1380 H 0.92171 0.25221 0.81786 0.0
H1381 H 0.99448 0.35857 0.78487 0.0
H1382 H 0.98327 0.33121 0.74452 0.0
H1383 H 0.94944 0.36426 0.8169 0.0
H1384 H 0.03614 0.31158 0.81824 0.0
H1385 H 0.05298 0.26263 0.815 0.0
H1386 H 0.96886 0.20439 0.8741 0.0
H1387 H 0.95112 0.25281 0.87748 0.0
C1388 C 0.02505 0.43429 0.92662 0.0
C1389 C 1.0056 0.41294 0.94765 0.0
C1390 C 0.01713 0.41836 0.90306 0.0
C1391 C 0.98957 0.38078 0.90006 0.0
C1392 C 0.9698 0.35976 0.92102 0.0
C1393 C 0.97753 0.37554 0.94437 0.0
C1394 C 0.98167 0.36269 0.87541 0.0
C1395 C 0.98786 0.33286 0.87257 0.0
C1396 C 0.96791 0.37418 0.85489 0.0
C1397 C 0.95955 0.40472 0.85652 0.0
C1398 C 0.93195 0.40434 0.87423 0.0
C1399 C 0.92421 0.43322 0.87555 0.0
C1400 C 0.94358 0.46248 0.8591 0.0
C1401 C 0.97069 0.46289 0.84125 0.0
C1402 C 0.97863 0.43413 0.83991 0.0
C1403 C 0.92956 0.25348 0.77851 0.0
C1404 C 0.9464 0.27524 0.75732 0.0
C1405 C 0.93565 0.26959 0.80194 0.0
C1406 C 0.95931 0.30775 0.80472 0.0
C1407 C 0.97596 0.32923 0.7835 0.0
C1408 C 0.96956 0.31333 0.76027 0.0
C1409 C 0.96702 0.32584 0.82943 0.0
C1410 C 0.96078 0.35567 0.83233 0.0
C1411 C 0.98137 0.31474 0.8499 0.0
C1412 C 0.99196 0.2856 0.84792 0.0
C1413 C 0.021 0.2882 0.83041 0.0
C1414 C 0.03074 0.26058 0.82858 0.0
C1415 C 1.0119 0.23037 0.84428 0.0
C1416 C 0.98336 0.22777 0.86191 0.0
C1417 C 0.97347 0.2553 0.86381 0.0
H1418 H 0.0195 0.20902 0.84284 0.0
H1419 H 0.9375 0.48478 0.86014 0.0
H1420 H 0.77003 0.61988 0.77643 0.0
H1421 H 0.74437 0.59058 0.81686 0.0
H1422 H 0.6979 0.66312 0.83146 0.0
H1423 H 0.72331 0.69228 0.79157 0.0
H1424 H 0.73564 0.65642 0.87112 0.0
H1425 H 0.63557 0.57595 0.81195 0.0
H1426 H 0.6131 0.53601 0.77563 0.0
H1427 H 0.651 0.46666 0.81005 0.0
H1428 H 0.67433 0.50656 0.84644 0.0
H1429 H 0.57821 0.58286 0.95593 0.0
H1430 H 0.60788 0.59324 0.91466 0.0
H1431 H 0.66369 0.52899 0.93244 0.0
H1432 H 0.63407 0.51867 0.9743 0.0
H1433 H 0.6294 0.52575 0.87816 0.0
H1434 H 0.72503 0.60531 0.93909 0.0
H1435 H 0.7475 0.64677 0.97462 0.0
H1436 H 0.717 0.71832 0.93611 0.0
H1437 H 0.6938 0.67702 0.90046 0.0
C1438 C 0.75483 0.62984 0.78844 0.0
C1439 C 0.7488 0.65848 0.78073 0.0
C1440 C 0.73986 0.61288 0.81146 0.0
C1441 C 0.71881 0.62438 0.8272 0.0
C1442 C 0.71398 0.65367 0.81974 0.0
C1443 C 0.72857 0.67035 0.79683 0.0
C1444 C 0.70114 0.6062 0.85137 0.0
C1445 C 0.71251 0.62782 0.87258 0.0
C1446 C 0.67153 0.56863 0.85355 0.0
C1447 C 0.65717 0.54449 0.83178 0.0
C1448 C 0.63943 0.55236 0.81169 0.0
C1449 C 0.62649 0.5297 0.7911 0.0
C1450 C 0.63074 0.49888 0.79049 0.0
C1451 C 0.64782 0.49059 0.81052 0.0
C1452 C 0.6609 0.51321 0.83113 0.0
C1453 C 0.59547 0.56971 0.95082 0.0
C1454 C 0.60371 0.54987 0.96838 0.0
C1455 C 0.61258 0.57583 0.92722 0.0
C1456 C 0.63836 0.56226 0.92053 0.0
C1457 C 0.64374 0.53961 0.9372 0.0
C1458 C 0.62653 0.53347 0.96105 0.0
C1459 C 0.66351 0.57628 0.8976 0.0
C1460 C 0.65333 0.55407 0.8767 0.0
C1461 C 0.69427 0.6134 0.89557 0.0
C1462 C 0.70745 0.63795 0.91716 0.0
C1463 C 0.72271 0.62968 0.93829 0.0
C1464 C 0.73573 0.65323 0.95841 0.0
C1465 C 0.73385 0.68523 0.95756 0.0
C1466 C 0.71861 0.6936 0.93669 0.0
C1467 C 0.70555 0.67015 0.91651 0.0
H1468 H 0.74413 0.70351 0.97311 0.0
H1469 H 0.62071 0.48137 0.77454 0.0
H1470 H 0.69146 0.77848 0.45584 0.0
H1471 H 0.70949 0.77509 0.49857 0.0
H1472 H 0.83677 0.82204 0.47736 0.0
H1473 H 0.81887 0.82623 0.43442 0.0
H1474 H 0.80115 0.75325 0.50469 0.0
H1475 H 0.81569 0.87159 0.51129 0.0
H1476 H 0.79426 0.91733 0.50619 0.0
H1477 H 0.68831 0.85348 0.55194 0.0
H1478 H 0.70875 0.80707 0.55702 0.0
H1479 H 0.84361 0.73804 0.63245 0.0
H1480 H 0.84804 0.76044 0.59011 0.0
H1481 H 0.72786 0.74871 0.59858 0.0
H1482 H 0.72415 0.72805 0.64072 0.0
H1483 H 0.77289 0.80867 0.57685 0.0
H1484 H 0.75045 0.68722 0.56564 0.0
H1485 H 0.76576 0.63734 0.56889 0.0
H1486 H 0.88013 0.7023 0.53049 0.0
H1487 H 0.86584 0.75283 0.52742 0.0
C1488 C 0.72346 0.78904 0.46039 0.0
C1489 C 0.75382 0.80303 0.44185 0.0
C1490 C 0.73372 0.78697 0.4848 0.0
C1491 C 0.77447 0.79825 0.49118 0.0
C1492 C 0.80514 0.81323 0.47284 0.0
C1493 C 0.79498 0.81601 0.4484 0.0
C1494 C 0.78394 0.79196 0.51669 0.0
C1495 C 0.79611 0.76606 0.52051 0.0
C1496 C 0.77592 0.80773 0.5373 0.0
C1497 C 0.76365 0.83572 0.53441 0.0
C1498 C 0.78766 0.86716 0.52012 0.0
C1499 C 0.77571 0.89324 0.51725 0.0
C1500 C 0.73991 0.88829 0.5287 0.0
C1501 C 0.71603 0.85728 0.54308 0.0
C1502 C 0.72781 0.8311 0.54599 0.0
C1503 C 0.8182 0.74024 0.62519 0.0
C1504 C 0.78356 0.73124 0.64001 0.0
C1505 C 0.82064 0.75292 0.60093 0.0
C1506 C 0.78813 0.75613 0.59088 0.0
C1507 C 0.75356 0.74686 0.60575 0.0
C1508 C 0.7514 0.73483 0.62994 0.0
C1509 C 0.78937 0.7692 0.56508 0.0
C1510 C 0.77902 0.79637 0.56113 0.0
C1511 C 0.79843 0.75411 0.54435 0.0
C1512 C 0.80737 0.724 0.54665 0.0
C1513 C 0.77909 0.69103 0.55815 0.0
C1514 C 0.78755 0.66261 0.55992 0.0
C1515 C 0.82399 0.6667 0.55001 0.0
C1516 C 0.85201 0.69921 0.53826 0.0
C1517 C 0.84376 0.72776 0.53652 0.0
H1518 H 0.83044 0.64464 0.55135 0.0
H1519 H 0.73071 0.90851 0.52645 0.0
H1520 H 0.19067 0.91863 0.42351 0.0
H1521 H 0.20051 0.94668 0.4644 0.0
H1522 H 0.32842 0.97676 0.46207 0.0
H1523 H 0.31831 0.94733 0.42279 0.0
H1524 H 0.30756 0.9599 0.50478 0.0
H1525 H 0.28761 0.03817 0.44908 0.0
H1526 H 0.25224 0.05659 0.41924 0.0
H1527 H 0.1521 0.02454 0.47024 0.0
H1528 H 0.18697 0.0059 0.5004 0.0
H1529 H 0.39394 0.11822 0.58413 0.0
H1530 H 0.37115 0.0854 0.54478 0.0
H1531 H 0.25157 0.01413 0.57633 0.0
H1532 H 0.27448 0.04571 0.61573 0.0
H1533 H 0.26302 0.04968 0.52129 0.0
H1534 H 0.29173 0.97367 0.57726 0.0
H1535 H 0.33726 0.96619 0.60622 0.0
H1536 H 0.4319 1.00414 0.55081 0.0
H1537 H 0.38708 0.0124 0.52166 0.0
C1538 C 0.22057 0.93054 0.43205 0.0
C1539 C 0.25358 0.93061 0.41971 0.0
C1540 C 0.22642 0.94711 0.4553 0.0
C1541 C 0.26555 0.96466 0.4664 0.0
C1542 C 0.29788 0.96353 0.45428 0.0
C1543 C 0.29196 0.9466 0.43153 0.0
C1544 C 0.27399 0.98474 0.49034 0.0
C1545 C 0.29781 0.9796 0.5081 0.0
C1546 C 0.26138 0.01051 0.49528 0.0
C1547 C 0.23963 0.02025 0.47684 0.0
C1548 C 0.25783 0.03469 0.45381 0.0
C1549 C 0.23792 0.04527 0.43687 0.0
C1550 C 0.19986 0.04164 0.44282 0.0
C1551 C 0.18155 0.02729 0.46566 0.0
C1552 C 0.20139 0.01676 0.48269 0.0
C1553 C 0.36265 0.09593 0.58249 0.0
C1554 C 0.33604 0.08445 0.60298 0.0
C1555 C 0.34969 0.07718 0.56008 0.0
C1556 C 0.30964 0.04733 0.55768 0.0
C1557 C 0.2825 0.0371 0.57776 0.0
C1558 C 0.29571 0.05512 0.60026 0.0
C1559 C 0.2969 0.02505 0.53491 0.0
C1560 C 0.27229 0.02972 0.51768 0.0
C1561 C 0.30969 0.99961 0.53005 0.0
C1562 C 0.33626 0.99402 0.54741 0.0
C1563 C 0.32238 0.98073 0.57135 0.0
C1564 C 0.34802 0.97628 0.58777 0.0
C1565 C 0.3875 0.98478 0.58039 0.0
C1566 C 0.40135 0.99762 0.55652 0.0
C1567 C 0.37584 1.00217 0.54005 0.0
H1568 H 0.40731 0.98134 0.59313 0.0
H1569 H 0.18461 0.05016 0.42983 0.0
H1570 H 0.92342 0.25484 0.60309 0.0
H1571 H 0.9458 0.25864 0.56066 0.0
H1572 H 0.99 0.18492 0.57706 0.0
H1573 H 0.96797 0.18162 0.62034 0.0
H1574 H 0.0472 0.24227 0.5518 0.0
H1575 H 0.90634 0.15978 0.53834 0.0
H1576 H 0.83141 0.13388 0.54179 0.0
H1577 H 0.84185 0.22878 0.5066 0.0
H1578 H 0.91693 0.25556 0.50328 0.0
H1579 H 0.09384 0.26223 0.41864 0.0
H1580 H 0.06615 0.23461 0.45933 0.0
H1581 H 0.02589 0.31205 0.47145 0.0
H1582 H 0.05384 0.34 0.43159 0.0
H1583 H 0.9639 0.23835 0.48019 0.0
H1584 H 0.10649 0.32321 0.50048 0.0
H1585 H 0.18126 0.348 0.49707 0.0
H1586 H 0.16571 0.24445 0.51854 0.0
H1587 H 0.0907 0.21891 0.52175 0.0
C1588 C 0.93694 0.23862 0.59762 0.0
C1589 C 0.94353 0.21766 0.61514 0.0
C1590 C 0.94974 0.24077 0.57319 0.0
C1591 C 0.96938 0.22184 0.56531 0.0
C1592 C 0.97479 0.19972 0.58254 0.0
C1593 C 0.96171 0.19743 0.60722 0.0
C1594 C 0.98647 0.22775 0.53958 0.0
C1595 C 0.02863 0.24045 0.53607 0.0
C1596 C 0.96266 0.2258 0.51884 0.0
C1597 C 0.91739 0.20977 0.52067 0.0
C1598 C 0.89272 0.17525 0.53147 0.0
C1599 C 0.85019 0.16039 0.5334 0.0
C1600 C 0.83188 0.17969 0.52445 0.0
C1601 C 0.85607 0.21386 0.51352 0.0
C1602 C 0.89862 0.22887 0.51158 0.0
C1603 C 0.07962 0.27367 0.43014 0.0
C1604 C 0.07636 0.30353 0.42173 0.0
C1605 C 0.06368 0.25778 0.45338 0.0
C1606 C 0.04367 0.27111 0.46847 0.0
C1607 C 0.04093 0.3011 0.46018 0.0
C1608 C 0.05727 0.31723 0.43731 0.0
C1609 C 0.02461 0.25392 0.49271 0.0
C1610 C 0.98209 0.23922 0.49587 0.0
C1611 C 0.04797 0.25368 0.51298 0.0
C1612 C 0.09297 0.26902 0.51101 0.0
C1613 C 0.11897 0.30562 0.50422 0.0
C1614 C 0.1614 0.31984 0.50238 0.0
C1615 C 0.17821 0.29777 0.50749 0.0
C1616 C 0.15263 0.26148 0.51453 0.0
C1617 C 0.11017 0.24713 0.51636 0.0
H1618 H 0.21107 0.30883 0.50608 0.0
H1619 H 0.79896 0.16815 0.52598 0.0
loop_
_geom_bond_atom_site_label_1
_geom_bond_atom_site_label_2
_geom_bond_distance
_geom_bond_site_symmetry_2
_ccdc_geom_bond_type
Co0 N5 2.057 1_554 S
Co0 O17 2.021 . S
Co0 O20 2.062 . S
Co0 O24 2.117 1_554 S
Co0 O25 2.020 1_455 S
C1 O21 1.259 . S
C1 O24 1.258 1_655 S
Co2 N11 2.057 . S
Co2 O18 2.117 . S
Co2 O19 2.020 1_655 S
Co2 O21 2.021 1_554 S
Co2 O26 2.062 . S
C3 N5 1.316 1_554 S
C3 N6 1.347 1_554 S
C3 H8 0.931 . S
C4 N5 1.375 . S
C4 C7 1.350 . S
C4 H9 0.930 . S
N5 Co0 2.057 1_556 S
N5 C3 1.316 1_556 S
N5 C4 1.375 . S
N6 C3 1.347 1_556 S
N6 C7 1.373 . S
C7 C4 1.350 . S
C7 N6 1.373 . S
C7 H28 0.931 . S
H8 C3 0.931 . S
H9 C4 0.930 . S
C10 O17 1.259 . S
C10 O18 1.258 1_455 S
N11 Co2 2.057 . S
N11 C12 1.316 . S
N11 C13 1.375 . S
C12 N11 1.316 . S
C12 N14 1.347 . S
C12 H23 0.931 1_554 S
C13 N11 1.375 . S
C13 C15 1.350 . S
C13 H22 0.930 . S
N14 C12 1.347 . S
N14 C15 1.373 . S
C15 C13 1.350 . S
C15 N14 1.373 . S
C15 H29 0.931 . S
C16 O19 1.256 . S
C16 O20 1.255 . S
O17 Co0 2.021 . S
O17 C10 1.259 . S
O18 Co2 2.117 . S
O18 C10 1.258 1_655 S
O19 Co2 2.020 1_455 S
O19 C16 1.256 . S
O20 Co0 2.062 . S
O20 C16 1.255 . S
O21 C1 1.259 . S
O21 Co2 2.021 1_556 S
H22 C13 0.930 . S
H23 C12 0.931 1_556 S
O24 Co0 2.117 1_556 S
O24 C1 1.258 1_455 S
O25 Co0 2.020 1_655 S
O25 C27 1.256 . S
O26 Co2 2.062 . S
O26 C27 1.255 . S
C27 O25 1.256 . S
C27 O26 1.255 . S
H28 C7 0.931 . S
H29 C15 0.931 . S
Co30 N35 2.057 . S
Co30 O47 2.021 1_554 S
Co30 O50 2.062 . S
Co30 O54 2.117 . S
Co30 O55 2.020 . S
C31 O51 1.259 . S
C31 O54 1.258 . S
Co32 N41 2.057 1_554 S
Co32 O48 2.117 1_554 S
Co32 O49 2.020 . S
Co32 O51 2.021 . S
Co32 O56 2.062 . S
C33 N35 1.316 . S
C33 N36 1.347 . S
C33 H38 0.931 1_554 S
C34 N35 1.375 . S
C34 C37 1.350 . S
C34 H39 0.930 . S
N35 Co30 2.057 . S
N35 C33 1.316 . S
N35 C34 1.375 . S
N36 C33 1.347 . S
N36 C37 1.373 . S
C37 C34 1.350 . S
C37 N36 1.373 . S
C37 H58 0.931 . S
H38 C33 0.931 1_556 S
H39 C34 0.930 . S
C40 O47 1.259 . S
C40 O48 1.258 . S
N41 Co32 2.057 1_556 S
N41 C42 1.316 1_556 S
N41 C43 1.375 . S
C42 N41 1.316 1_554 S
C42 N44 1.347 1_554 S
C42 H53 0.931 . S
C43 N41 1.375 . S
C43 C45 1.350 . S
C43 H52 0.930 . S
N44 C42 1.347 1_556 S
N44 C45 1.373 . S
C45 C43 1.350 . S
C45 N44 1.373 . S
C45 H59 0.931 . S
C46 O49 1.256 . S
C46 O50 1.255 . S
O47 Co30 2.021 1_556 S
O47 C40 1.259 . S
O48 Co32 2.117 1_556 S
O48 C40 1.258 . S
O49 Co32 2.020 . S
O49 C46 1.256 . S
O50 Co30 2.062 . S
O50 C46 1.255 . S
O51 C31 1.259 . S
O51 Co32 2.021 . S
H52 C43 0.930 . S
H53 C42 0.931 . S
O54 Co30 2.117 . S
O54 C31 1.258 . S
O55 Co30 2.020 . S
O55 C57 1.256 . S
O56 Co32 2.062 . S
O56 C57 1.255 . S
C57 O55 1.256 . S
C57 O56 1.255 . S
H58 C37 0.931 . S
H59 C45 0.931 . S
Co60 N65 2.057 1_554 S
Co60 O77 2.021 . S
Co60 O80 2.062 . S
Co60 O84 2.117 1_554 S
Co60 O85 2.020 1_565 S
C61 O81 1.259 . S
C61 O84 1.258 1_545 S
Co62 N71 2.057 . S
Co62 O78 2.117 . S
Co62 O79 2.020 1_545 S
Co62 O81 2.021 1_554 S
Co62 O86 2.062 . S
C63 N65 1.316 1_554 S
C63 N66 1.347 1_554 S
C63 H68 0.931 . S
C64 N65 1.375 . S
C64 C67 1.350 . S
C64 H69 0.930 . S
N65 Co60 2.057 1_556 S
N65 C63 1.316 1_556 S
N65 C64 1.375 . S
N66 C63 1.347 1_556 S
N66 C67 1.373 . S
C67 C64 1.350 . S
C67 N66 1.373 . S
C67 H88 0.931 . S
H68 C63 0.931 . S
H69 C64 0.930 . S
C70 O77 1.259 . S
C70 O78 1.258 1_565 S
N71 Co62 2.057 . S
N71 C72 1.316 . S
N71 C73 1.375 . S
C72 N71 1.316 . S
C72 N74 1.347 . S
C72 H83 0.931 1_554 S
C73 N71 1.375 . S
C73 C75 1.350 . S
C73 H82 0.930 . S
N74 C72 1.347 . S
N74 C75 1.373 . S
C75 C73 1.350 . S
C75 N74 1.373 . S
C75 H89 0.931 . S
C76 O79 1.256 . S
C76 O80 1.255 . S
O77 Co60 2.021 . S
O77 C70 1.259 . S
O78 Co62 2.117 . S
O78 C70 1.258 1_545 S
O79 Co62 2.020 1_565 S
O79 C76 1.256 . S
O80 Co60 2.062 . S
O80 C76 1.255 . S
O81 C61 1.259 . S
O81 Co62 2.021 1_556 S
H82 C73 0.930 . S
H83 C72 0.931 1_556 S
O84 Co60 2.117 1_556 S
O84 C61 1.258 1_565 S
O85 Co60 2.020 1_545 S
O85 C87 1.256 . S
O86 Co62 2.062 . S
O86 C87 1.255 . S
C87 O85 1.256 . S
C87 O86 1.255 . S
H88 C67 0.931 . S
H89 C75 0.931 . S
Co90 N95 2.057 . S
Co90 O107 2.021 . S
Co90 O110 2.062 . S
Co90 O114 2.117 . S
Co90 O115 2.020 . S
C91 O111 1.259 . S
C91 O114 1.258 . S
Co92 N101 2.057 . S
Co92 O108 2.117 . S
Co92 O109 2.020 . S
Co92 O111 2.021 . S
Co92 O116 2.062 . S
C93 N95 1.316 . S
C93 N96 1.347 . S
C93 H98 0.931 . S
C94 N95 1.375 . S
C94 C97 1.350 . S
C94 H99 0.930 . S
N95 Co90 2.057 . S
N95 C93 1.316 . S
N95 C94 1.375 . S
N96 C93 1.347 . S
N96 C97 1.373 . S
C97 C94 1.350 . S
C97 N96 1.373 . S
C97 H118 0.931 . S
H98 C93 0.931 . S
H99 C94 0.930 . S
C100 O107 1.259 . S
C100 O108 1.258 . S
N101 Co92 2.057 . S
N101 C102 1.316 . S
N101 C103 1.375 . S
C102 N101 1.316 . S
C102 N104 1.347 . S
C102 H113 0.931 . S
C103 N101 1.375 . S
C103 C105 1.350 . S
C103 H112 0.930 . S
N104 C102 1.347 . S
N104 C105 1.373 . S
C105 C103 1.350 . S
C105 N104 1.373 . S
C105 H119 0.931 . S
C106 O109 1.256 . S
C106 O110 1.255 . S
O107 Co90 2.021 . S
O107 C100 1.259 . S
O108 Co92 2.117 . S
O108 C100 1.258 . S
O109 Co92 2.020 . S
O109 C106 1.256 . S
O110 Co90 2.062 . S
O110 C106 1.255 . S
O111 C91 1.259 . S
O111 Co92 2.021 . S
H112 C103 0.930 . S
H113 C102 0.931 . S
O114 Co90 2.117 . S
O114 C91 1.258 . S
O115 Co90 2.020 . S
O115 C117 1.256 . S
O116 Co92 2.062 . S
O116 C117 1.255 . S
C117 O115 1.256 . S
C117 O116 1.255 . S
H118 C97 0.931 . S
H119 C105 0.931 . S
Co120 N125 2.057 . S
Co120 O137 2.021 . S
Co120 O140 2.062 . S
Co120 O144 2.117 . S
Co120 O145 2.020 . S
C121 O141 1.259 . S
C121 O144 1.258 . S
Co122 N131 2.057 . S
Co122 O138 2.117 . S
Co122 O139 2.020 . S
Co122 O141 2.021 . S
Co122 O146 2.062 . S
C123 N125 1.316 . S
C123 N126 1.347 . S
C123 H128 0.931 . S
C124 N125 1.375 . S
C124 C127 1.350 . S
C124 H129 0.930 . S
N125 Co120 2.057 . S
N125 C123 1.316 . S
N125 C124 1.375 . S
N126 C123 1.347 . S
N126 C127 1.373 . S
C127 C124 1.350 . S
C127 N126 1.373 . S
C127 H148 0.931 . S
H128 C123 0.931 . S
H129 C124 0.930 . S
C130 O137 1.259 . S
C130 O138 1.258 . S
N131 Co122 2.057 . S
N131 C132 1.316 . S
N131 C133 1.375 . S
C132 N131 1.316 . S
C132 N134 1.347 . S
C132 H143 0.931 . S
C133 N131 1.375 . S
C133 C135 1.350 . S
C133 H142 0.930 . S
N134 C132 1.347 . S
N134 C135 1.373 . S
C135 C133 1.350 . S
C135 N134 1.373 . S
C135 H149 0.931 . S
C136 O139 1.256 . S
C136 O140 1.255 . S
O137 Co120 2.021 . S
O137 C130 1.259 . S
O138 Co122 2.117 . S
O138 C130 1.258 . S
O139 Co122 2.020 . S
O139 C136 1.256 . S
O140 Co120 2.062 . S
O140 C136 1.255 . S
O141 C121 1.259 . S
O141 Co122 2.021 . S
H142 C133 0.930 . S
H143 C132 0.931 . S
O144 Co120 2.117 . S
O144 C121 1.258 . S
O145 Co120 2.020 . S
O145 C147 1.256 . S
O146 Co122 2.062 . S
O146 C147 1.255 . S
C147 O145 1.256 . S
C147 O146 1.255 . S
H148 C127 0.931 . S
H149 C135 0.931 . S
Co150 N155 2.057 . S
Co150 O167 2.021 . S
Co150 O170 2.062 . S
Co150 O174 2.117 . S
Co150 O175 2.020 . S
C151 O171 1.259 . S
C151 O174 1.258 . S
Co152 N161 2.057 . S
Co152 O168 2.117 . S
Co152 O169 2.020 . S
Co152 O171 2.021 . S
Co152 O176 2.062 . S
C153 N155 1.316 . S
C153 N156 1.347 . S
C153 H158 0.931 . S
C154 N155 1.375 . S
C154 C157 1.350 . S
C154 H159 0.930 . S
N155 Co150 2.057 . S
N155 C153 1.316 . S
N155 C154 1.375 . S
N156 C153 1.347 . S
N156 C157 1.373 . S
C157 C154 1.350 . S
C157 N156 1.373 . S
C157 H178 0.931 . S
H158 C153 0.931 . S
H159 C154 0.930 . S
C160 O167 1.259 . S
C160 O168 1.258 . S
N161 Co152 2.057 . S
N161 C162 1.316 . S
N161 C163 1.375 . S
C162 N161 1.316 . S
C162 N164 1.347 . S
C162 H173 0.931 . S
C163 N161 1.375 . S
C163 C165 1.350 . S
C163 H172 0.930 . S
N164 C162 1.347 . S
N164 C165 1.373 . S
C165 C163 1.350 . S
C165 N164 1.373 . S
C165 H179 0.931 . S
C166 O169 1.256 . S
C166 O170 1.255 . S
O167 Co150 2.021 . S
O167 C160 1.259 . S
O168 Co152 2.117 . S
O168 C160 1.258 . S
O169 Co152 2.020 . S
O169 C166 1.256 . S
O170 Co150 2.062 . S
O170 C166 1.255 . S
O171 C151 1.259 . S
O171 Co152 2.021 . S
H172 C163 0.930 . S
H173 C162 0.931 . S
O174 Co150 2.117 . S
O174 C151 1.258 . S
O175 Co150 2.020 . S
O175 C177 1.256 . S
O176 Co152 2.062 . S
O176 C177 1.255 . S
C177 O175 1.256 . S
C177 O176 1.255 . S
H178 C157 0.931 . S
H179 C165 0.931 . S
Co180 N185 2.057 . S
Co180 O197 2.021 . S
Co180 O200 2.062 . S
Co180 O204 2.117 . S
Co180 O205 2.020 . S
C181 O201 1.259 . S
C181 O204 1.258 . S
Co182 N191 2.057 . S
Co182 O198 2.117 . S
Co182 O199 2.020 . S
Co182 O201 2.021 . S
Co182 O206 2.062 . S
C183 N185 1.316 . S
C183 N186 1.347 . S
C183 H188 0.931 . S
C184 N185 1.375 . S
C184 C187 1.350 . S
C184 H189 0.930 . S
N185 Co180 2.057 . S
N185 C183 1.316 . S
N185 C184 1.375 . S
N186 C183 1.347 . S
N186 C187 1.373 . S
C187 C184 1.350 . S
C187 N186 1.373 . S
C187 H208 0.931 . S
H188 C183 0.931 . S
H189 C184 0.930 . S
C190 O197 1.259 . S
C190 O198 1.258 . S
N191 Co182 2.057 . S
N191 C192 1.316 . S
N191 C193 1.375 . S
C192 N191 1.316 . S
C192 N194 1.347 1_545 S
C192 H203 0.931 . S
C193 N191 1.375 . S
C193 C195 1.350 1_545 S
C193 H202 0.930 . S
N194 C192 1.347 1_565 S
N194 C195 1.373 . S
C195 C193 1.350 1_565 S
C195 N194 1.373 . S
C195 H209 0.931 . S
C196 O199 1.256 . S
C196 O200 1.255 . S
O197 Co180 2.021 . S
O197 C190 1.259 . S
O198 Co182 2.117 . S
O198 C190 1.258 . S
O199 Co182 2.020 . S
O199 C196 1.256 . S
O200 Co180 2.062 . S
O200 C196 1.255 . S
O201 C181 1.259 . S
O201 Co182 2.021 . S
H202 C193 0.930 . S
H203 C192 0.931 . S
O204 Co180 2.117 . S
O204 C181 1.258 . S
O205 Co180 2.020 . S
O205 C207 1.256 . S
O206 Co182 2.062 . S
O206 C207 1.255 . S
C207 O205 1.256 . S
C207 O206 1.255 . S
H208 C187 0.931 . S
H209 C195 0.931 . S
Co210 N215 2.057 . S
Co210 O227 2.021 . S
Co210 O230 2.062 . S
Co210 O234 2.117 . S
Co210 O235 2.020 . S
C211 O231 1.259 . S
C211 O234 1.258 . S
Co212 N221 2.057 . S
Co212 O228 2.117 . S
Co212 O229 2.020 . S
Co212 O231 2.021 . S
Co212 O236 2.062 . S
C213 N215 1.316 . S
C213 N216 1.347 . S
C213 H218 0.931 . S
C214 N215 1.375 . S
C214 C217 1.350 . S
C214 H219 0.930 . S
N215 Co210 2.057 . S
N215 C213 1.316 . S
N215 C214 1.375 . S
N216 C213 1.347 . S
N216 C217 1.373 . S
C217 C214 1.350 . S
C217 N216 1.373 . S
C217 H238 0.931 . S
H218 C213 0.931 . S
H219 C214 0.930 . S
C220 O227 1.259 . S
C220 O228 1.258 . S
N221 Co212 2.057 . S
N221 C222 1.316 . S
N221 C223 1.375 . S
C222 N221 1.316 . S
C222 N224 1.347 . S
C222 H233 0.931 . S
C223 N221 1.375 . S
C223 C225 1.350 . S
C223 H232 0.930 . S
N224 C222 1.347 . S
N224 C225 1.373 . S
C225 C223 1.350 . S
C225 N224 1.373 . S
C225 H239 0.931 . S
C226 O229 1.256 . S
C226 O230 1.255 . S
O227 Co210 2.021 . S
O227 C220 1.259 . S
O228 Co212 2.117 . S
O228 C220 1.258 . S
O229 Co212 2.020 . S
O229 C226 1.256 . S
O230 Co210 2.062 . S
O230 C226 1.255 . S
O231 C211 1.259 . S
O231 Co212 2.021 . S
H232 C223 0.930 . S
H233 C222 0.931 . S
O234 Co210 2.117 . S
O234 C211 1.258 . S
O235 Co210 2.020 . S
O235 C237 1.256 . S
O236 Co212 2.062 . S
O236 C237 1.255 . S
C237 O235 1.256 . S
C237 O236 1.255 . S
H238 C217 0.931 . S
H239 C225 0.931 . S
Co240 N245 2.057 . S
Co240 O257 2.021 . S
Co240 O260 2.062 . S
Co240 O264 2.117 . S
Co240 O265 2.020 . S
C241 O261 1.259 . S
C241 O264 1.258 . S
Co242 N251 2.057 . S
Co242 O258 2.117 . S
Co242 O259 2.020 . S
Co242 O261 2.021 . S
Co242 O266 2.062 . S
C243 N245 1.316 . S
C243 N246 1.347 . S
C243 H248 0.931 . S
C244 N245 1.375 . S
C244 C247 1.350 . S
C244 H249 0.930 . S
N245 Co240 2.057 . S
N245 C243 1.316 . S
N245 C244 1.375 . S
N246 C243 1.347 . S
N246 C247 1.373 . S
C247 C244 1.350 . S
C247 N246 1.373 . S
C247 H268 0.931 . S
H248 C243 0.931 . S
H249 C244 0.930 . S
C250 O257 1.259 . S
C250 O258 1.258 . S
N251 Co242 2.057 . S
N251 C252 1.316 . S
N251 C253 1.375 . S
C252 N251 1.316 . S
C252 N254 1.347 . S
C252 H263 0.931 . S
C253 N251 1.375 . S
C253 C255 1.350 . S
C253 H262 0.930 . S
N254 C252 1.347 . S
N254 C255 1.373 . S
C255 C253 1.350 . S
C255 N254 1.373 . S
C255 H269 0.931 . S
C256 O259 1.256 . S
C256 O260 1.255 . S
O257 Co240 2.021 . S
O257 C250 1.259 . S
O258 Co242 2.117 . S
O258 C250 1.258 . S
O259 Co242 2.020 . S
O259 C256 1.256 . S
O260 Co240 2.062 . S
O260 C256 1.255 . S
O261 C241 1.259 . S
O261 Co242 2.021 . S
H262 C253 0.930 . S
H263 C252 0.931 . S
O264 Co240 2.117 . S
O264 C241 1.258 . S
O265 Co240 2.020 . S
O265 C267 1.256 . S
O266 Co242 2.062 . S
O266 C267 1.255 . S
C267 O265 1.256 . S
C267 O266 1.255 . S
H268 C247 0.931 . S
H269 C255 0.931 . S
H270 C288 0.945 1_556 S
H271 C290 0.950 1_556 S
H272 C292 0.950 . S
H273 C293 0.950 . S
H274 C295 0.950 . S
H275 C298 0.950 . S
H276 C299 0.950 . S
H277 C301 0.950 . S
H278 C302 0.950 . S
H279 C303 0.951 . S
H280 C305 0.951 . S
H281 C307 0.949 1_556 S
H282 C308 0.951 . S
H283 C310 0.950 . S
H284 C313 0.950 . S
H285 C314 0.950 . S
H286 C316 0.950 . S
H287 C317 0.950 . S
C288 H270 0.945 1_554 S
C288 C289 1.373 . S
C288 C290 1.387 . S
C289 C288 1.373 . S
C289 C293 1.385 . S
C290 H271 0.950 1_554 S
C290 C288 1.387 . S
C290 C291 1.366 . S
C291 C290 1.366 . S
C291 C292 1.414 . S
C291 C294 1.499 . S
C292 H272 0.950 . S
C292 C291 1.414 . S
C292 C293 1.374 . S
C293 H273 0.950 . S
C293 C289 1.385 . S
C293 C292 1.374 . S
C294 C291 1.499 . S
C294 C295 1.373 . S
C294 C296 1.389 1_554 S
C295 H274 0.950 . S
C295 C294 1.373 . S
C295 C311 1.377 . S
C296 C294 1.389 1_556 S
C296 C297 1.524 . S
C296 C310 1.377 . S
C297 C296 1.524 . S
C297 C298 1.397 . S
C297 C302 1.363 . S
C298 H275 0.950 . S
C298 C297 1.397 . S
C298 C299 1.334 . S
C299 H276 0.950 . S
C299 C298 1.334 . S
C299 C300 1.287 . S
C300 C299 1.287 . S
C300 C301 1.524 . S
C300 H319 0.913 . S
C301 H277 0.950 . S
C301 C300 1.524 . S
C301 C302 1.415 . S
C302 H278 0.950 . S
C302 C297 1.363 . S
C302 C301 1.415 . S
C303 H279 0.951 . S
C303 C304 1.366 . S
C303 C305 1.388 . S
C304 C303 1.366 . S
C304 C308 1.384 1_554 S
C305 H280 0.951 . S
C305 C303 1.388 . S
C305 C306 1.366 . S
C306 C305 1.366 . S
C306 C307 1.416 . S
C306 C309 1.499 . S
C307 H281 0.949 1_554 S
C307 C306 1.416 . S
C307 C308 1.373 1_554 S
C308 H282 0.951 . S
C308 C304 1.384 1_556 S
C308 C307 1.373 1_556 S
C309 C306 1.499 . S
C309 C310 1.373 1_554 S
C309 C311 1.389 . S
C310 H283 0.950 . S
C310 C296 1.377 . S
C310 C309 1.373 1_556 S
C311 C295 1.377 . S
C311 C309 1.389 . S
C311 C312 1.524 . S
C312 C311 1.524 . S
C312 C313 1.397 . S
C312 C317 1.363 . S
C313 H284 0.950 . S
C313 C312 1.397 . S
C313 C314 1.334 . S
C314 H285 0.950 . S
C314 C313 1.334 . S
C314 C315 1.287 . S
C315 C314 1.287 . S
C315 C316 1.524 . S
C315 H318 0.999 . S
C316 H286 0.950 . S
C316 C315 1.524 . S
C316 C317 1.415 . S
C317 H287 0.950 . S
C317 C312 1.363 . S
C317 C316 1.415 . S
H318 C315 0.999 . S
H319 C300 0.913 . S
H320 C338 0.951 . S
H321 C340 0.951 . S
H322 C342 0.950 . S
H323 C343 0.950 . S
H324 C345 0.950 . S
H325 C348 0.950 . S
H326 C349 0.950 . S
H327 C351 0.950 . S
H328 C352 0.950 . S
H329 C353 0.951 . S
H330 C355 0.951 . S
H331 C357 0.950 . S
H332 C358 0.950 . S
H333 C360 0.950 . S
H334 C363 0.950 . S
H335 C364 0.950 . S
H336 C366 0.950 . S
H337 C367 0.950 . S
C338 H320 0.951 . S
C338 C339 1.366 . S
C338 C340 1.388 . S
C339 C338 1.366 . S
C339 C343 1.385 1_556 S
C340 H321 0.951 . S
C340 C338 1.388 . S
C340 C341 1.366 . S
C341 C340 1.366 . S
C341 C342 1.414 1_556 S
C341 C344 1.500 . S
C342 H322 0.950 . S
C342 C341 1.414 1_554 S
C342 C343 1.374 . S
C343 H323 0.950 . S
C343 C339 1.385 1_554 S
C343 C342 1.374 . S
C344 C341 1.500 . S
C344 C345 1.336 1_556 S
C344 C346 1.425 . S
C345 H324 0.950 . S
C345 C344 1.336 1_554 S
C345 C361 1.377 . S
C346 C344 1.425 . S
C346 C347 1.524 . S
C346 C360 1.377 . S
C347 C346 1.524 . S
C347 C348 1.397 . S
C347 C352 1.363 . S
C348 H325 0.950 . S
C348 C347 1.397 . S
C348 C349 1.334 . S
C349 H326 0.950 . S
C349 C348 1.334 . S
C349 C350 1.287 . S
C350 C349 1.287 . S
C350 C351 1.524 . S
C350 H369 0.913 . S
C351 H327 0.950 . S
C351 C350 1.524 . S
C351 C352 1.415 . S
C352 H328 0.950 . S
C352 C347 1.363 . S
C352 C351 1.415 . S
C353 H329 0.951 . S
C353 C354 1.390 . S
C353 C355 1.388 . S
C354 C353 1.390 . S
C354 C358 1.361 1_554 S
C355 H330 0.951 . S
C355 C353 1.388 . S
C355 C356 1.366 . S
C356 C355 1.366 . S
C356 C357 1.414 1_554 S
C356 C359 1.500 . S
C357 H331 0.950 . S
C357 C356 1.414 1_556 S
C357 C358 1.374 . S
C358 H332 0.950 . S
C358 C354 1.361 1_556 S
C358 C357 1.374 . S
C359 C356 1.500 . S
C359 C360 1.348 1_554 S
C359 C361 1.414 . S
C360 H333 0.950 . S
C360 C346 1.377 . S
C360 C359 1.348 1_556 S
C361 C345 1.377 . S
C361 C359 1.414 . S
C361 C362 1.524 . S
C362 C361 1.524 . S
C362 C363 1.397 . S
C362 C367 1.363 . S
C363 H334 0.950 . S
C363 C362 1.397 . S
C363 C364 1.334 . S
C364 H335 0.950 . S
C364 C363 1.334 . S
C364 C365 1.287 . S
C365 C364 1.287 . S
C365 C366 1.524 . S
C365 H368 0.999 . S
C366 H336 0.950 . S
C366 C365 1.524 . S
C366 C367 1.415 . S
C367 H337 0.950 . S
C367 C362 1.363 . S
C367 C366 1.415 . S
H368 C365 0.999 . S
H369 C350 0.913 . S
H370 C388 0.951 . S
H371 C390 0.951 . S
H372 C392 0.950 . S
H373 C393 0.950 . S
H374 C395 0.950 . S
H375 C398 0.950 . S
H376 C399 0.950 . S
H377 C401 0.950 . S
H378 C402 0.950 . S
H379 C403 0.951 . S
H380 C405 0.951 . S
H381 C407 0.950 . S
H382 C408 0.950 . S
H383 C410 0.950 . S
H384 C413 0.950 . S
H385 C414 0.950 . S
H386 C416 0.950 . S
H387 C417 0.950 . S
C388 H370 0.951 . S
C388 C389 1.366 . S
C388 C390 1.388 . S
C389 C388 1.366 . S
C389 C393 1.385 1_554 S
C390 H371 0.951 . S
C390 C388 1.388 . S
C390 C391 1.399 . S
C391 C390 1.399 . S
C391 C392 1.383 1_554 S
C391 C394 1.497 1_554 S
C392 H372 0.950 . S
C392 C391 1.383 1_556 S
C392 C393 1.374 . S
C393 H373 0.950 . S
C393 C389 1.385 1_556 S
C393 C392 1.374 . S
C394 C391 1.497 1_556 S
C394 C395 1.374 . S
C394 C396 1.388 1_556 S
C395 H374 0.950 . S
C395 C394 1.374 . S
C395 C411 1.377 . S
C396 C394 1.388 1_554 S
C396 C397 1.524 . S
C396 C410 1.377 . S
C397 C396 1.524 . S
C397 C398 1.397 1_554 S
C397 C402 1.363 . S
C398 H375 0.950 . S
C398 C397 1.397 1_556 S
C398 C399 1.334 . S
C399 H376 0.950 . S
C399 C398 1.334 . S
C399 C400 1.287 1_556 S
C400 C399 1.287 1_554 S
C400 C401 1.524 . S
C400 H419 0.913 . S
C401 H377 0.950 . S
C401 C400 1.524 . S
C401 C402 1.415 . S
C402 H378 0.950 . S
C402 C397 1.363 . S
C402 C401 1.415 . S
C403 H379 0.951 . S
C403 C404 1.380 . S
C403 C405 1.388 . S
C404 C403 1.380 . S
C404 C408 1.370 1_556 S
C405 H380 0.951 . S
C405 C403 1.388 . S
C405 C406 1.334 1_556 S
C406 C405 1.334 1_554 S
C406 C407 1.444 . S
C406 C409 1.501 . S
C407 H381 0.950 . S
C407 C406 1.444 . S
C407 C408 1.374 . S
C408 H382 0.950 . S
C408 C404 1.370 1_554 S
C408 C407 1.374 . S
C409 C406 1.501 . S
C409 C410 1.373 . S
C409 C411 1.389 1_554 S
C410 H383 0.950 . S
C410 C396 1.377 . S
C410 C409 1.373 . S
C411 C395 1.377 . S
C411 C409 1.389 1_556 S
C411 C412 1.524 . S
C412 C411 1.524 . S
C412 C413 1.397 1_556 S
C412 C417 1.363 . S
C413 H384 0.950 . S
C413 C412 1.397 1_554 S
C413 C414 1.334 . S
C414 H385 0.950 . S
C414 C413 1.334 . S
C414 C415 1.287 1_554 S
C415 C414 1.287 1_556 S
C415 C416 1.524 . S
C415 H418 0.999 . S
C416 H386 0.950 . S
C416 C415 1.524 . S
C416 C417 1.415 . S
C417 H387 0.950 . S
C417 C412 1.363 . S
C417 C416 1.415 . S
H418 C415 0.999 . S
H419 C400 0.913 . S
H420 C438 0.951 . S
H421 C440 0.951 . S
H422 C442 0.950 . S
H423 C443 0.950 . S
H424 C445 0.950 . S
H425 C448 0.950 . S
H426 C449 0.950 . S
H427 C451 0.950 . S
H428 C452 0.950 . S
H429 C453 0.951 . S
H430 C455 0.951 . S
H431 C457 0.950 . S
H432 C458 0.950 . S
H433 C460 0.950 . S
H434 C463 0.950 . S
H435 C464 0.950 . S
H436 C466 0.950 . S
H437 C467 0.950 . S
C438 H420 0.951 . S
C438 C439 1.366 1_556 S
C438 C440 1.388 . S
C439 C438 1.366 1_554 S
C439 C443 1.385 . S
C440 H421 0.951 . S
C440 C438 1.388 . S
C440 C441 1.366 1_556 S
C441 C440 1.366 1_554 S
C441 C442 1.414 . S
C441 C444 1.499 . S
C442 H422 0.950 . S
C442 C441 1.414 . S
C442 C443 1.374 . S
C443 H423 0.950 . S
C443 C439 1.385 . S
C443 C442 1.374 . S
C444 C441 1.499 . S
C444 C445 1.373 . S
C444 C446 1.389 1_554 S
C445 H424 0.950 . S
C445 C444 1.373 . S
C445 C461 1.377 . S
C446 C444 1.389 1_556 S
C446 C447 1.524 . S
C446 C460 1.377 . S
C447 C446 1.524 . S
C447 C448 1.397 . S
C447 C452 1.363 . S
C448 H425 0.950 . S
C448 C447 1.397 . S
C448 C449 1.334 . S
C449 H426 0.950 . S
C449 C448 1.334 . S
C449 C450 1.287 . S
C450 C449 1.287 . S
C450 C451 1.524 . S
C450 H469 0.913 . S
C451 H427 0.950 . S
C451 C450 1.524 . S
C451 C452 1.415 . S
C452 H428 0.950 . S
C452 C447 1.363 . S
C452 C451 1.415 . S
C453 H429 0.951 . S
C453 C454 1.366 . S
C453 C455 1.388 . S
C454 C453 1.366 . S
C454 C458 1.385 1_554 S
C455 H430 0.951 . S
C455 C453 1.388 . S
C455 C456 1.366 . S
C456 C455 1.366 . S
C456 C457 1.414 1_554 S
C456 C459 1.499 . S
C457 H431 0.950 . S
C457 C456 1.414 1_556 S
C457 C458 1.374 . S
C458 H432 0.950 . S
C458 C454 1.385 1_556 S
C458 C457 1.374 . S
C459 C456 1.499 . S
C459 C460 1.373 1_554 S
C459 C461 1.389 . S
C460 H433 0.950 . S
C460 C446 1.377 . S
C460 C459 1.373 1_556 S
C461 C445 1.377 . S
C461 C459 1.389 . S
C461 C462 1.524 . S
C462 C461 1.524 . S
C462 C463 1.397 . S
C462 C467 1.363 . S
C463 H434 0.950 . S
C463 C462 1.397 . S
C463 C464 1.334 . S
C464 H435 0.950 . S
C464 C463 1.334 . S
C464 C465 1.287 . S
C465 C464 1.287 . S
C465 C466 1.524 . S
C465 H468 0.999 . S
C466 H436 0.950 . S
C466 C465 1.524 . S
C466 C467 1.415 . S
C467 H437 0.950 . S
C467 C462 1.363 . S
C467 C466 1.415 . S
H468 C465 0.999 . S
H469 C450 0.913 . S
H470 C488 0.947 1_556 S
H471 C490 0.951 1_556 S
H472 C492 0.950 . S
H473 C493 0.950 . S
H474 C495 0.968 . S
H475 C498 0.950 . S
H476 C499 0.950 . S
H477 C501 0.950 . S
H478 C502 0.950 . S
H479 C503 0.951 . S
H480 C505 0.951 . S
H481 C507 0.950 1_556 S
H482 C508 0.950 1_556 S
H483 C510 0.950 . S
H484 C513 0.950 . S
H485 C514 0.950 . S
H486 C516 0.950 . S
H487 C517 0.926 1_554 S
C488 H470 0.947 1_554 S
C488 C489 1.369 . S
C488 C490 1.388 . S
C489 C488 1.369 . S
C489 C493 1.385 . S
C490 H471 0.951 1_554 S
C490 C488 1.388 . S
C490 C491 1.366 . S
C491 C490 1.366 . S
C491 C492 1.414 . S
C491 C494 1.499 . S
C492 H472 0.950 . S
C492 C491 1.414 . S
C492 C493 1.374 . S
C493 H473 0.950 . S
C493 C489 1.385 . S
C493 C492 1.374 . S
C494 C491 1.499 . S
C494 C495 1.355 1_554 S
C494 C496 1.389 . S
C495 H474 0.968 . S
C495 C494 1.355 1_556 S
C495 C511 1.379 . S
C496 C494 1.389 . S
C496 C497 1.524 . S
C496 C510 1.377 . S
C497 C496 1.524 . S
C497 C498 1.397 . S
C497 C502 1.363 . S
C498 H475 0.950 . S
C498 C497 1.397 . S
C498 C499 1.334 . S
C499 H476 0.950 . S
C499 C498 1.334 . S
C499 C500 1.287 . S
C500 C499 1.287 . S
C500 C501 1.524 . S
C500 H519 0.913 . S
C501 H477 0.950 . S
C501 C500 1.524 . S
C501 C502 1.415 . S
C502 H478 0.950 . S
C502 C497 1.363 . S
C502 C501 1.415 . S
C503 H479 0.951 . S
C503 C504 1.366 . S
C503 C505 1.388 . S
C504 C503 1.366 . S
C504 C508 1.385 . S
C505 H480 0.951 . S
C505 C503 1.388 . S
C505 C506 1.366 . S
C506 C505 1.366 . S
C506 C507 1.414 . S
C506 C509 1.499 . S
C507 H481 0.950 1_554 S
C507 C506 1.414 . S
C507 C508 1.374 . S
C508 H482 0.950 1_554 S
C508 C504 1.385 . S
C508 C507 1.374 . S
C509 C506 1.499 . S
C509 C510 1.373 . S
C509 C511 1.389 1_554 S
C510 H483 0.950 . S
C510 C496 1.377 . S
C510 C509 1.373 . S
C511 C495 1.379 . S
C511 C509 1.389 1_556 S
C511 C512 1.524 . S
C512 C511 1.524 . S
C512 C513 1.397 . S
C512 C517 1.363 . S
C513 H484 0.950 . S
C513 C512 1.397 . S
C513 C514 1.334 . S
C514 H485 0.950 . S
C514 C513 1.334 . S
C514 C515 1.287 . S
C515 C514 1.287 . S
C515 C516 1.524 . S
C515 H518 0.999 . S
C516 H486 0.950 . S
C516 C515 1.524 . S
C516 C517 1.415 . S
C517 H487 0.926 1_556 S
C517 C512 1.363 . S
C517 C516 1.415 . S
H518 C515 0.999 . S
H519 C500 0.913 . S
H520 C538 0.951 . S
H521 C540 0.951 . S
H522 C542 0.950 . S
H523 C543 0.950 . S
H524 C545 0.950 . S
H525 C548 0.950 . S
H526 C549 0.950 . S
H527 C551 0.950 . S
H528 C552 0.950 . S
H529 C553 0.951 . S
H530 C555 0.951 . S
H531 C557 0.950 . S
H532 C558 0.950 . S
H533 C560 0.950 . S
H534 C563 0.950 . S
H535 C564 0.950 . S
H536 C566 0.950 . S
H537 C567 0.950 . S
C538 H520 0.951 . S
C538 C539 1.366 1_556 S
C538 C540 1.388 . S
C539 C538 1.366 1_554 S
C539 C543 1.385 . S
C540 H521 0.951 . S
C540 C538 1.388 . S
C540 C541 1.366 1_556 S
C541 C540 1.366 1_554 S
C541 C542 1.414 . S
C541 C544 1.499 . S
C542 H522 0.950 . S
C542 C541 1.414 . S
C542 C543 1.374 . S
C543 H523 0.950 . S
C543 C539 1.385 . S
C543 C542 1.374 . S
C544 C541 1.499 . S
C544 C545 1.373 . S
C544 C546 1.389 1_554 S
C545 H524 0.950 . S
C545 C544 1.373 . S
C545 C561 1.377 . S
C546 C544 1.389 1_556 S
C546 C547 1.524 . S
C546 C560 1.377 . S
C547 C546 1.524 . S
C547 C548 1.397 . S
C547 C552 1.363 . S
C548 H525 0.950 . S
C548 C547 1.397 . S
C548 C549 1.334 . S
C549 H526 0.950 . S
C549 C548 1.334 . S
C549 C550 1.287 . S
C550 C549 1.287 . S
C550 C551 1.524 . S
C550 H569 0.913 . S
C551 H527 0.950 . S
C551 C550 1.524 . S
C551 C552 1.415 . S
C552 H528 0.950 . S
C552 C547 1.363 . S
C552 C551 1.415 . S
C553 H529 0.951 . S
C553 C554 1.366 . S
C553 C555 1.388 . S
C554 C553 1.366 . S
C554 C558 1.385 1_554 S
C555 H530 0.951 . S
C555 C553 1.388 . S
C555 C556 1.366 . S
C556 C555 1.366 . S
C556 C557 1.414 1_554 S
C556 C559 1.499 . S
C557 H531 0.950 . S
C557 C556 1.414 1_556 S
C557 C558 1.374 . S
C558 H532 0.950 . S
C558 C554 1.385 1_556 S
C558 C557 1.374 . S
C559 C556 1.499 . S
C559 C560 1.373 1_554 S
C559 C561 1.389 . S
C560 H533 0.950 . S
C560 C546 1.377 . S
C560 C559 1.373 1_556 S
C561 C545 1.377 . S
C561 C559 1.389 . S
C561 C562 1.524 . S
C562 C561 1.524 . S
C562 C563 1.397 . S
C562 C567 1.363 . S
C563 H534 0.950 . S
C563 C562 1.397 . S
C563 C564 1.334 . S
C564 H535 0.950 . S
C564 C563 1.334 . S
C564 C565 1.287 . S
C565 C564 1.287 . S
C565 C566 1.524 . S
C565 H568 0.999 . S
C566 H536 0.950 . S
C566 C565 1.524 . S
C566 C567 1.415 . S
C567 H537 0.950 . S
C567 C562 1.363 . S
C567 C566 1.415 . S
H568 C565 0.999 . S
H569 C550 0.913 . S
H570 C588 0.951 . S
H571 C590 0.951 . S
H572 C592 0.950 . S
H573 C593 0.950 . S
H574 C595 0.950 . S
H575 C598 0.950 . S
H576 C599 0.950 . S
H577 C601 0.950 . S
H578 C602 0.950 . S
H579 C603 0.951 . S
H580 C605 0.951 1_655 S
H581 C607 0.950 1_655 S
H582 C608 0.950 . S
H583 C610 0.950 . S
H584 C613 0.950 . S
H585 C614 0.950 . S
H586 C616 0.950 . S
H587 C617 0.950 . S
C588 H570 0.951 . S
C588 C589 1.366 . S
C588 C590 1.388 . S
C589 C588 1.366 . S
C589 C593 1.385 . S
C590 H571 0.951 . S
C590 C588 1.388 . S
C590 C591 1.366 . S
C591 C590 1.366 . S
C591 C592 1.414 . S
C591 C594 1.499 . S
C592 H572 0.950 . S
C592 C591 1.414 . S
C592 C593 1.374 . S
C593 H573 0.950 . S
C593 C589 1.385 . S
C593 C592 1.374 . S
C594 C591 1.499 . S
C594 C595 1.373 . S
C594 C596 1.389 . S
C595 H574 0.950 . S
C595 C594 1.373 . S
C595 C611 1.377 . S
C596 C594 1.389 . S
C596 C597 1.524 . S
C596 C610 1.377 . S
C597 C596 1.524 . S
C597 C598 1.397 . S
C597 C602 1.363 . S
C598 H575 0.950 . S
C598 C597 1.397 . S
C598 C599 1.334 . S
C599 H576 0.950 . S
C599 C598 1.334 . S
C599 C600 1.287 . S
C600 C599 1.287 . S
C600 C601 1.524 . S
C600 H619 0.913 . S
C601 H577 0.950 . S
C601 C600 1.524 . S
C601 C602 1.415 . S
C602 H578 0.950 . S
C602 C597 1.363 . S
C602 C601 1.415 . S
C603 H579 0.951 . S
C603 C604 1.366 . S
C603 C605 1.388 . S
C604 C603 1.366 . S
C604 C608 1.385 . S
C605 H580 0.951 1_455 S
C605 C603 1.388 . S
C605 C606 1.366 1_455 S
C606 C605 1.366 1_655 S
C606 C607 1.414 1_655 S
C606 C609 1.499 . S
C607 H581 0.950 1_455 S
C607 C606 1.414 1_455 S
C607 C608 1.374 . S
C608 H582 0.950 . S
C608 C604 1.385 . S
C608 C607 1.374 . S
C609 C606 1.499 . S
C609 C610 1.373 . S
C609 C611 1.389 . S
C610 H583 0.950 . S
C610 C596 1.377 . S
C610 C609 1.373 . S
C611 C595 1.377 . S
C611 C609 1.389 . S
C611 C612 1.524 . S
C612 C611 1.524 . S
C612 C613 1.397 . S
C612 C617 1.363 . S
C613 H584 0.950 . S
C613 C612 1.397 . S
C613 C614 1.334 . S
C614 H585 0.950 . S
C614 C613 1.334 . S
C614 C615 1.287 . S
C615 C614 1.287 . S
C615 C616 1.524 . S
C615 H618 0.999 . S
C616 H586 0.950 . S
C616 C615 1.524 . S
C616 C617 1.415 . S
C617 H587 0.950 . S
C617 C612 1.363 . S
C617 C616 1.415 . S
H618 C615 0.999 . S
H619 C600 0.913 . S
H620 C638 0.951 . S
H621 C640 0.951 . S
H622 C642 0.950 . S
H623 C643 0.950 . S
H624 C645 0.950 . S
H625 C648 0.950 . S
H626 C649 0.950 . S
H627 C651 0.950 . S
H628 C652 0.950 . S
H629 C653 0.951 . S
H630 C655 0.951 . S
H631 C657 0.950 . S
H632 C658 0.950 . S
H633 C660 0.950 . S
H634 C663 0.950 . S
H635 C664 0.950 . S
H636 C666 0.950 . S
H637 C667 0.950 . S
C638 H620 0.951 . S
C638 C639 1.366 . S
C638 C640 1.388 . S
C639 C638 1.366 . S
C639 C643 1.385 . S
C640 H621 0.951 . S
C640 C638 1.388 . S
C640 C641 1.366 . S
C641 C640 1.366 . S
C641 C642 1.414 . S
C641 C644 1.499 . S
C642 H622 0.950 . S
C642 C641 1.414 . S
C642 C643 1.374 . S
C643 H623 0.950 . S
C643 C639 1.385 . S
C643 C642 1.374 . S
C644 C641 1.499 . S
C644 C645 1.373 . S
C644 C646 1.389 . S
C645 H624 0.950 . S
C645 C644 1.373 . S
C645 C661 1.377 . S
C646 C644 1.389 . S
C646 C647 1.524 . S
C646 C660 1.377 . S
C647 C646 1.524 . S
C647 C648 1.397 . S
C647 C652 1.363 . S
C648 H625 0.950 . S
C648 C647 1.397 . S
C648 C649 1.334 . S
C649 H626 0.950 . S
C649 C648 1.334 . S
C649 C650 1.287 . S
C650 C649 1.287 . S
C650 C651 1.524 . S
C650 H669 0.913 . S
C651 H627 0.950 . S
C651 C650 1.524 . S
C651 C652 1.415 . S
C652 H628 0.950 . S
C652 C647 1.363 . S
C652 C651 1.415 . S
C653 H629 0.951 . S
C653 C654 1.366 . S
C653 C655 1.388 1_565 S
C654 C653 1.366 . S
C654 C658 1.385 1_565 S
C655 H630 0.951 . S
C655 C653 1.388 1_545 S
C655 C656 1.366 . S
C656 C655 1.366 . S
C656 C657 1.414 . S
C656 C659 1.499 . S
C657 H631 0.950 . S
C657 C656 1.414 . S
C657 C658 1.374 . S
C658 H632 0.950 . S
C658 C654 1.385 1_545 S
C658 C657 1.374 . S
C659 C656 1.499 . S
C659 C660 1.373 . S
C659 C661 1.389 . S
C660 H633 0.950 . S
C660 C646 1.377 . S
C660 C659 1.373 . S
C661 C645 1.377 . S
C661 C659 1.389 . S
C661 C662 1.524 . S
C662 C661 1.524 . S
C662 C663 1.397 . S
C662 C667 1.363 . S
C663 H634 0.950 . S
C663 C662 1.397 . S
C663 C664 1.334 1_545 S
C664 H635 0.950 . S
C664 C663 1.334 1_565 S
C664 C665 1.287 . S
C665 C664 1.287 . S
C665 C666 1.524 . S
C665 H668 0.999 . S
C666 H636 0.950 . S
C666 C665 1.524 . S
C666 C667 1.415 1_565 S
C667 H637 0.950 . S
C667 C662 1.363 . S
C667 C666 1.415 1_545 S
H668 C665 0.999 . S
H669 C650 0.913 . S
H670 C688 0.951 . S
H671 C690 0.951 . S
H672 C692 0.950 . S
H673 C693 0.950 . S
H674 C695 0.950 . S
H675 C698 0.950 . S
H676 C699 0.950 . S
H677 C701 0.950 . S
H678 C702 0.950 . S
H679 C703 0.951 . S
H680 C705 0.951 . S
H681 C707 0.950 . S
H682 C708 0.950 . S
H683 C710 0.950 . S
H684 C713 0.950 . S
H685 C714 0.950 . S
H686 C716 0.950 1_455 S
H687 C717 0.950 . S
C688 H670 0.951 . S
C688 C689 1.366 1_655 S
C688 C690 1.388 . S
C689 C688 1.366 1_455 S
C689 C693 1.385 . S
C690 H671 0.951 . S
C690 C688 1.388 . S
C690 C691 1.366 . S
C691 C690 1.366 . S
C691 C692 1.414 1_655 S
C691 C694 1.499 . S
C692 H672 0.950 . S
C692 C691 1.414 1_455 S
C692 C693 1.374 . S
C693 H673 0.950 . S
C693 C689 1.385 . S
C693 C692 1.374 . S
C694 C691 1.499 . S
C694 C695 1.373 . S
C694 C696 1.389 . S
C695 H674 0.950 . S
C695 C694 1.373 . S
C695 C711 1.377 . S
C696 C694 1.389 . S
C696 C697 1.524 . S
C696 C710 1.377 . S
C697 C696 1.524 . S
C697 C698 1.397 . S
C697 C702 1.363 . S
C698 H675 0.950 . S
C698 C697 1.397 . S
C698 C699 1.334 . S
C699 H676 0.950 . S
C699 C698 1.334 . S
C699 C700 1.287 . S
C700 C699 1.287 . S
C700 C701 1.524 . S
C700 H719 0.913 . S
C701 H677 0.950 . S
C701 C700 1.524 . S
C701 C702 1.415 . S
C702 H678 0.950 . S
C702 C697 1.363 . S
C702 C701 1.415 . S
C703 H679 0.951 . S
C703 C704 1.366 . S
C703 C705 1.388 1_565 S
C704 C703 1.366 . S
C704 C708 1.385 . S
C705 H680 0.951 . S
C705 C703 1.388 1_545 S
C705 C706 1.366 . S
C706 C705 1.366 . S
C706 C707 1.414 . S
C706 C709 1.499 . S
C707 H681 0.950 . S
C707 C706 1.414 . S
C707 C708 1.374 1_545 S
C708 H682 0.950 . S
C708 C704 1.385 . S
C708 C707 1.374 1_565 S
C709 C706 1.499 . S
C709 C710 1.373 . S
C709 C711 1.389 . S
C710 H683 0.950 . S
C710 C696 1.377 . S
C710 C709 1.373 . S
C711 C695 1.377 . S
C711 C709 1.389 . S
C711 C712 1.524 . S
C712 C711 1.524 . S
C712 C713 1.397 . S
C712 C717 1.363 . S
C713 H684 0.950 . S
C713 C712 1.397 . S
C713 C714 1.334 . S
C714 H685 0.950 . S
C714 C713 1.334 . S
C714 C715 1.287 . S
C715 C714 1.287 . S
C715 C716 1.524 . S
C715 H718 0.999 . S
C716 H686 0.950 1_655 S
C716 C715 1.524 . S
C716 C717 1.415 . S
C717 H687 0.950 . S
C717 C712 1.363 . S
C717 C716 1.415 . S
H718 C715 0.999 . S
H719 C700 0.913 . S
H720 C738 0.951 . S
H721 C740 0.951 . S
H722 C742 0.950 . S
H723 C743 0.950 . S
H724 C745 0.950 . S
H725 C748 0.950 . S
H726 C749 0.950 . S
H727 C751 0.950 . S
H728 C752 0.950 . S
H729 C753 0.951 . S
H730 C755 0.951 . S
H731 C757 0.950 . S
H732 C758 0.950 . S
H733 C760 0.950 . S
H734 C763 0.950 . S
H735 C764 0.950 . S
H736 C766 0.950 . S
H737 C767 0.950 . S
C738 H720 0.951 . S
C738 C739 1.366 . S
C738 C740 1.388 . S
C739 C738 1.366 . S
C739 C743 1.385 . S
C740 H721 0.951 . S
C740 C738 1.388 . S
C740 C741 1.366 . S
C741 C740 1.366 . S
C741 C742 1.414 . S
C741 C744 1.499 . S
C742 H722 0.950 . S
C742 C741 1.414 . S
C742 C743 1.374 . S
C743 H723 0.950 . S
C743 C739 1.385 . S
C743 C742 1.374 . S
C744 C741 1.499 . S
C744 C745 1.373 . S
C744 C746 1.389 . S
C745 H724 0.950 . S
C745 C744 1.373 . S
C745 C761 1.377 . S
C746 C744 1.389 . S
C746 C747 1.524 . S
C746 C760 1.377 . S
C747 C746 1.524 . S
C747 C748 1.397 . S
C747 C752 1.363 . S
C748 H725 0.950 . S
C748 C747 1.397 . S
C748 C749 1.334 . S
C749 H726 0.950 . S
C749 C748 1.334 . S
C749 C750 1.287 . S
C750 C749 1.287 . S
C750 C751 1.524 . S
C750 H769 0.913 . S
C751 H727 0.950 . S
C751 C750 1.524 . S
C751 C752 1.415 . S
C752 H728 0.950 . S
C752 C747 1.363 . S
C752 C751 1.415 . S
C753 H729 0.951 . S
C753 C754 1.366 . S
C753 C755 1.388 . S
C754 C753 1.366 . S
C754 C758 1.385 . S
C755 H730 0.951 . S
C755 C753 1.388 . S
C755 C756 1.366 . S
C756 C755 1.366 . S
C756 C757 1.414 . S
C756 C759 1.499 . S
C757 H731 0.950 . S
C757 C756 1.414 . S
C757 C758 1.374 . S
C758 H732 0.950 . S
C758 C754 1.385 . S
C758 C757 1.374 . S
C759 C756 1.499 . S
C759 C760 1.373 . S
C759 C761 1.389 . S
C760 H733 0.950 . S
C760 C746 1.377 . S
C760 C759 1.373 . S
C761 C745 1.377 . S
C761 C759 1.389 . S
C761 C762 1.524 . S
C762 C761 1.524 . S
C762 C763 1.397 . S
C762 C767 1.363 . S
C763 H734 0.950 . S
C763 C762 1.397 . S
C763 C764 1.334 . S
C764 H735 0.950 . S
C764 C763 1.334 . S
C764 C765 1.287 . S
C765 C764 1.287 . S
C765 C766 1.524 . S
C765 H768 0.999 . S
C766 H736 0.950 . S
C766 C765 1.524 . S
C766 C767 1.415 . S
C767 H737 0.950 . S
C767 C762 1.363 . S
C767 C766 1.415 . S
H768 C765 0.999 . S
H769 C750 0.913 . S
H770 C788 0.951 . S
H771 C790 0.951 . S
H772 C792 0.950 . S
H773 C793 0.950 . S
H774 C795 0.950 . S
H775 C798 0.950 . S
H776 C799 0.950 . S
H777 C801 0.950 . S
H778 C802 0.950 . S
H779 C803 0.951 . S
H780 C805 0.951 . S
H781 C807 0.950 . S
H782 C808 0.950 . S
H783 C810 0.950 . S
H784 C813 0.950 . S
H785 C814 0.950 . S
H786 C816 0.950 . S
H787 C817 0.950 . S
C788 H770 0.951 . S
C788 C789 1.366 . S
C788 C790 1.388 . S
C789 C788 1.366 . S
C789 C793 1.385 . S
C790 H771 0.951 . S
C790 C788 1.388 . S
C790 C791 1.366 . S
C791 C790 1.366 . S
C791 C792 1.414 . S
C791 C794 1.499 . S
C792 H772 0.950 . S
C792 C791 1.414 . S
C792 C793 1.374 . S
C793 H773 0.950 . S
C793 C789 1.385 . S
C793 C792 1.374 . S
C794 C791 1.499 . S
C794 C795 1.373 . S
C794 C796 1.389 . S
C795 H774 0.950 . S
C795 C794 1.373 . S
C795 C811 1.377 . S
C796 C794 1.389 . S
C796 C797 1.524 . S
C796 C810 1.377 . S
C797 C796 1.524 . S
C797 C798 1.397 . S
C797 C802 1.363 . S
C798 H775 0.950 . S
C798 C797 1.397 . S
C798 C799 1.334 . S
C799 H776 0.950 . S
C799 C798 1.334 . S
C799 C800 1.287 . S
C800 C799 1.287 . S
C800 C801 1.524 . S
C800 H819 0.913 . S
C801 H777 0.950 . S
C801 C800 1.524 . S
C801 C802 1.415 . S
C802 H778 0.950 . S
C802 C797 1.363 . S
C802 C801 1.415 . S
C803 H779 0.951 . S
C803 C804 1.366 . S
C803 C805 1.388 . S
C804 C803 1.366 . S
C804 C808 1.385 . S
C805 H780 0.951 . S
C805 C803 1.388 . S
C805 C806 1.366 . S
C806 C805 1.366 . S
C806 C807 1.414 . S
C806 C809 1.499 . S
C807 H781 0.950 . S
C807 C806 1.414 . S
C807 C808 1.374 . S
C808 H782 0.950 . S
C808 C804 1.385 . S
C808 C807 1.374 . S
C809 C806 1.499 . S
C809 C810 1.373 . S
C809 C811 1.389 . S
C810 H783 0.950 . S
C810 C796 1.377 . S
C810 C809 1.373 . S
C811 C795 1.377 . S
C811 C809 1.389 . S
C811 C812 1.524 . S
C812 C811 1.524 . S
C812 C813 1.397 . S
C812 C817 1.363 . S
C813 H784 0.950 . S
C813 C812 1.397 . S
C813 C814 1.334 . S
C814 H785 0.950 . S
C814 C813 1.334 . S
C814 C815 1.287 . S
C815 C814 1.287 . S
C815 C816 1.524 . S
C815 H818 0.999 . S
C816 H786 0.950 . S
C816 C815 1.524 . S
C816 C817 1.415 . S
C817 H787 0.950 . S
C817 C812 1.363 . S
C817 C816 1.415 . S
H818 C815 0.999 . S
H819 C800 0.913 . S
H820 C838 0.951 . S
H821 C840 0.951 . S
H822 C842 0.950 . S
H823 C843 0.950 . S
H824 C845 0.950 . S
H825 C848 0.950 . S
H826 C849 0.950 . S
H827 C851 0.950 . S
H828 C852 0.950 . S
H829 C853 0.951 . S
H830 C855 0.951 . S
H831 C857 0.950 . S
H832 C858 0.950 . S
H833 C860 0.950 . S
H834 C863 0.950 . S
H835 C864 0.950 . S
H836 C866 0.950 . S
H837 C867 0.950 . S
C838 H820 0.951 . S
C838 C839 1.366 . S
C838 C840 1.388 . S
C839 C838 1.366 . S
C839 C843 1.385 . S
C840 H821 0.951 . S
C840 C838 1.388 . S
C840 C841 1.366 . S
C841 C840 1.366 . S
C841 C842 1.414 . S
C841 C844 1.499 . S
C842 H822 0.950 . S
C842 C841 1.414 . S
C842 C843 1.374 . S
C843 H823 0.950 . S
C843 C839 1.385 . S
C843 C842 1.374 . S
C844 C841 1.499 . S
C844 C845 1.373 . S
C844 C846 1.389 . S
C845 H824 0.950 . S
C845 C844 1.373 . S
C845 C861 1.377 . S
C846 C844 1.389 . S
C846 C847 1.524 . S
C846 C860 1.377 . S
C847 C846 1.524 . S
C847 C848 1.397 . S
C847 C852 1.363 . S
C848 H825 0.950 . S
C848 C847 1.397 . S
C848 C849 1.334 . S
C849 H826 0.950 . S
C849 C848 1.334 . S
C849 C850 1.287 . S
C850 C849 1.287 . S
C850 C851 1.524 . S
C850 H869 0.913 . S
C851 H827 0.950 . S
C851 C850 1.524 . S
C851 C852 1.415 . S
C852 H828 0.950 . S
C852 C847 1.363 . S
C852 C851 1.415 . S
C853 H829 0.951 . S
C853 C854 1.366 . S
C853 C855 1.388 . S
C854 C853 1.366 . S
C854 C858 1.385 . S
C855 H830 0.951 . S
C855 C853 1.388 . S
C855 C856 1.366 . S
C856 C855 1.366 . S
C856 C857 1.414 . S
C856 C859 1.499 . S
C857 H831 0.950 . S
C857 C856 1.414 . S
C857 C858 1.374 . S
C858 H832 0.950 . S
C858 C854 1.385 . S
C858 C857 1.374 . S
C859 C856 1.499 . S
C859 C860 1.373 . S
C859 C861 1.389 . S
C860 H833 0.950 . S
C860 C846 1.377 . S
C860 C859 1.373 . S
C861 C845 1.377 . S
C861 C859 1.389 . S
C861 C862 1.524 . S
C862 C861 1.524 . S
C862 C863 1.397 . S
C862 C867 1.363 . S
C863 H834 0.950 . S
C863 C862 1.397 . S
C863 C864 1.334 . S
C864 H835 0.950 . S
C864 C863 1.334 . S
C864 C865 1.287 . S
C865 C864 1.287 . S
C865 C866 1.524 . S
C865 H868 0.999 . S
C866 H836 0.950 . S
C866 C865 1.524 . S
C866 C867 1.415 . S
C867 H837 0.950 . S
C867 C862 1.363 . S
C867 C866 1.415 . S
H868 C865 0.999 . S
H869 C850 0.913 . S
H870 C888 0.951 . S
H871 C890 0.951 . S
H872 C892 0.950 . S
H873 C893 0.950 . S
H874 C895 0.950 . S
H875 C898 0.950 . S
H876 C899 0.950 . S
H877 C901 0.950 . S
H878 C902 0.950 . S
H879 C903 0.951 . S
H880 C905 0.951 . S
H881 C907 0.950 . S
H882 C908 0.950 . S
H883 C910 0.950 . S
H884 C913 0.950 . S
H885 C914 0.950 . S
H886 C916 0.950 . S
H887 C917 0.950 . S
C888 H870 0.951 . S
C888 C889 1.366 . S
C888 C890 1.388 . S
C889 C888 1.366 . S
C889 C893 1.385 . S
C890 H871 0.951 . S
C890 C888 1.388 . S
C890 C891 1.366 . S
C891 C890 1.366 . S
C891 C892 1.414 . S
C891 C894 1.499 . S
C892 H872 0.950 . S
C892 C891 1.414 . S
C892 C893 1.374 . S
C893 H873 0.950 . S
C893 C889 1.385 . S
C893 C892 1.374 . S
C894 C891 1.499 . S
C894 C895 1.373 . S
C894 C896 1.389 . S
C895 H874 0.950 . S
C895 C894 1.373 . S
C895 C911 1.377 . S
C896 C894 1.389 . S
C896 C897 1.524 . S
C896 C910 1.377 . S
C897 C896 1.524 . S
C897 C898 1.397 . S
C897 C902 1.363 . S
C898 H875 0.950 . S
C898 C897 1.397 . S
C898 C899 1.334 . S
C899 H876 0.950 . S
C899 C898 1.334 . S
C899 C900 1.287 . S
C900 C899 1.287 . S
C900 C901 1.524 . S
C900 H919 0.913 . S
C901 H877 0.950 . S
C901 C900 1.524 . S
C901 C902 1.415 . S
C902 H878 0.950 . S
C902 C897 1.363 . S
C902 C901 1.415 . S
C903 H879 0.951 . S
C903 C904 1.366 . S
C903 C905 1.388 . S
C904 C903 1.366 . S
C904 C908 1.385 . S
C905 H880 0.951 . S
C905 C903 1.388 . S
C905 C906 1.366 . S
C906 C905 1.366 . S
C906 C907 1.414 . S
C906 C909 1.499 . S
C907 H881 0.950 . S
C907 C906 1.414 . S
C907 C908 1.374 . S
C908 H882 0.950 . S
C908 C904 1.385 . S
C908 C907 1.374 . S
C909 C906 1.499 . S
C909 C910 1.373 . S
C909 C911 1.389 . S
C910 H883 0.950 . S
C910 C896 1.377 . S
C910 C909 1.373 . S
C911 C895 1.377 . S
C911 C909 1.389 . S
C911 C912 1.524 . S
C912 C911 1.524 . S
C912 C913 1.397 . S
C912 C917 1.363 . S
C913 H884 0.950 . S
C913 C912 1.397 . S
C913 C914 1.334 . S
C914 H885 0.950 . S
C914 C913 1.334 . S
C914 C915 1.287 . S
C915 C914 1.287 . S
C915 C916 1.524 . S
C915 H918 0.999 . S
C916 H886 0.950 . S
C916 C915 1.524 . S
C916 C917 1.415 . S
C917 H887 0.950 . S
C917 C912 1.363 . S
C917 C916 1.415 . S
H918 C915 0.999 . S
H919 C900 0.913 . S
H920 C938 0.951 . S
H921 C940 0.951 . S
H922 C942 0.950 . S
H923 C943 0.950 . S
H924 C945 0.950 . S
H925 C948 0.950 . S
H926 C949 0.950 . S
H927 C951 0.950 . S
H928 C952 0.950 . S
H929 C953 0.951 . S
H930 C955 0.951 . S
H931 C957 0.950 . S
H932 C958 0.950 . S
H933 C960 0.950 . S
H934 C963 0.950 . S
H935 C964 0.950 . S
H936 C966 0.950 . S
H937 C967 0.950 . S
C938 H920 0.951 . S
C938 C939 1.366 . S
C938 C940 1.388 . S
C939 C938 1.366 . S
C939 C943 1.385 . S
C940 H921 0.951 . S
C940 C938 1.388 . S
C940 C941 1.366 . S
C941 C940 1.366 . S
C941 C942 1.414 . S
C941 C944 1.499 . S
C942 H922 0.950 . S
C942 C941 1.414 . S
C942 C943 1.374 . S
C943 H923 0.950 . S
C943 C939 1.385 . S
C943 C942 1.374 . S
C944 C941 1.499 . S
C944 C945 1.373 . S
C944 C946 1.389 . S
C945 H924 0.950 . S
C945 C944 1.373 . S
C945 C961 1.377 . S
C946 C944 1.389 . S
C946 C947 1.524 . S
C946 C960 1.377 . S
C947 C946 1.524 . S
C947 C948 1.397 . S
C947 C952 1.363 . S
C948 H925 0.950 . S
C948 C947 1.397 . S
C948 C949 1.334 . S
C949 H926 0.950 . S
C949 C948 1.334 . S
C949 C950 1.287 . S
C950 C949 1.287 . S
C950 C951 1.524 . S
C950 H969 0.913 . S
C951 H927 0.950 . S
C951 C950 1.524 . S
C951 C952 1.415 . S
C952 H928 0.950 . S
C952 C947 1.363 . S
C952 C951 1.415 . S
C953 H929 0.951 . S
C953 C954 1.366 . S
C953 C955 1.388 . S
C954 C953 1.366 . S
C954 C958 1.385 . S
C955 H930 0.951 . S
C955 C953 1.388 . S
C955 C956 1.366 . S
C956 C955 1.366 . S
C956 C957 1.414 . S
C956 C959 1.499 . S
C957 H931 0.950 . S
C957 C956 1.414 . S
C957 C958 1.374 . S
C958 H932 0.950 . S
C958 C954 1.385 . S
C958 C957 1.374 . S
C959 C956 1.499 . S
C959 C960 1.373 . S
C959 C961 1.389 . S
C960 H933 0.950 . S
C960 C946 1.377 . S
C960 C959 1.373 . S
C961 C945 1.377 . S
C961 C959 1.389 . S
C961 C962 1.524 . S
C962 C961 1.524 . S
C962 C963 1.397 . S
C962 C967 1.363 . S
C963 H934 0.950 . S
C963 C962 1.397 . S
C963 C964 1.334 . S
C964 H935 0.950 . S
C964 C963 1.334 . S
C964 C965 1.287 . S
C965 C964 1.287 . S
C965 C966 1.524 . S
C965 H968 0.999 . S
C966 H936 0.950 . S
C966 C965 1.524 . S
C966 C967 1.415 . S
C967 H937 0.950 . S
C967 C962 1.363 . S
C967 C966 1.415 . S
H968 C965 0.999 . S
H969 C950 0.913 . S
H970 C988 0.951 . S
H971 C990 0.951 . S
H972 C992 0.950 . S
H973 C993 0.950 . S
H974 C995 0.950 . S
H975 C998 0.950 . S
H976 C999 0.950 . S
H977 C1001 0.950 . S
H978 C1002 0.950 . S
H979 C1003 0.951 . S
H980 C1005 0.951 . S
H981 C1007 0.950 . S
H982 C1008 0.950 . S
H983 C1010 0.950 . S
H984 C1013 0.950 . S
H985 C1014 0.950 . S
H986 C1016 0.950 . S
H987 C1017 0.950 . S
C988 H970 0.951 . S
C988 C989 1.366 . S
C988 C990 1.388 . S
C989 C988 1.366 . S
C989 C993 1.385 . S
C990 H971 0.951 . S
C990 C988 1.388 . S
C990 C991 1.366 . S
C991 C990 1.366 . S
C991 C992 1.414 . S
C991 C994 1.499 . S
C992 H972 0.950 . S
C992 C991 1.414 . S
C992 C993 1.374 . S
C993 H973 0.950 . S
C993 C989 1.385 . S
C993 C992 1.374 . S
C994 C991 1.499 . S
C994 C995 1.373 . S
C994 C996 1.389 . S
C995 H974 0.950 . S
C995 C994 1.373 . S
C995 C1011 1.377 . S
C996 C994 1.389 . S
C996 C997 1.524 . S
C996 C1010 1.377 . S
C997 C996 1.524 . S
C997 C998 1.397 . S
C997 C1002 1.363 . S
C998 H975 0.950 . S
C998 C997 1.397 . S
C998 C999 1.334 . S
C999 H976 0.950 . S
C999 C998 1.334 . S
C999 C1000 1.287 . S
C1000 C999 1.287 . S
C1000 C1001 1.524 . S
C1000 H1019 0.913 . S
C1001 H977 0.950 . S
C1001 C1000 1.524 . S
C1001 C1002 1.415 . S
C1002 H978 0.950 . S
C1002 C997 1.363 . S
C1002 C1001 1.415 . S
C1003 H979 0.951 . S
C1003 C1004 1.366 . S
C1003 C1005 1.388 . S
C1004 C1003 1.366 . S
C1004 C1008 1.385 . S
C1005 H980 0.951 . S
C1005 C1003 1.388 . S
C1005 C1006 1.366 . S
C1006 C1005 1.366 . S
C1006 C1007 1.414 . S
C1006 C1009 1.499 . S
C1007 H981 0.950 . S
C1007 C1006 1.414 . S
C1007 C1008 1.374 . S
C1008 H982 0.950 . S
C1008 C1004 1.385 . S
C1008 C1007 1.374 . S
C1009 C1006 1.499 . S
C1009 C1010 1.373 . S
C1009 C1011 1.389 . S
C1010 H983 0.950 . S
C1010 C996 1.377 . S
C1010 C1009 1.373 . S
C1011 C995 1.377 . S
C1011 C1009 1.389 . S
C1011 C1012 1.524 . S
C1012 C1011 1.524 . S
C1012 C1013 1.397 . S
C1012 C1017 1.363 . S
C1013 H984 0.950 . S
C1013 C1012 1.397 . S
C1013 C1014 1.334 . S
C1014 H985 0.950 . S
C1014 C1013 1.334 . S
C1014 C1015 1.287 . S
C1015 C1014 1.287 . S
C1015 C1016 1.524 . S
C1015 H1018 0.999 . S
C1016 H986 0.950 . S
C1016 C1015 1.524 . S
C1016 C1017 1.415 . S
C1017 H987 0.950 . S
C1017 C1012 1.363 . S
C1017 C1016 1.415 . S
H1018 C1015 0.999 . S
H1019 C1000 0.913 . S
H1020 C1038 0.951 . S
H1021 C1040 0.951 . S
H1022 C1042 0.950 . S
H1023 C1043 0.950 . S
H1024 C1045 0.950 . S
H1025 C1048 0.950 . S
H1026 C1049 0.950 . S
H1027 C1051 0.950 . S
H1028 C1052 0.950 . S
H1029 C1053 0.951 . S
H1030 C1055 0.951 . S
H1031 C1057 0.950 . S
H1032 C1058 0.950 . S
H1033 C1060 0.950 . S
H1034 C1063 0.950 . S
H1035 C1064 0.950 . S
H1036 C1066 0.950 . S
H1037 C1067 0.950 . S
C1038 H1020 0.951 . S
C1038 C1039 1.366 . S
C1038 C1040 1.388 . S
C1039 C1038 1.366 . S
C1039 C1043 1.385 . S
C1040 H1021 0.951 . S
C1040 C1038 1.388 . S
C1040 C1041 1.366 . S
C1041 C1040 1.366 . S
C1041 C1042 1.414 . S
C1041 C1044 1.499 . S
C1042 H1022 0.950 . S
C1042 C1041 1.414 . S
C1042 C1043 1.374 . S
C1043 H1023 0.950 . S
C1043 C1039 1.385 . S
C1043 C1042 1.374 . S
C1044 C1041 1.499 . S
C1044 C1045 1.373 . S
C1044 C1046 1.389 . S
C1045 H1024 0.950 . S
C1045 C1044 1.373 . S
C1045 C1061 1.377 . S
C1046 C1044 1.389 . S
C1046 C1047 1.524 . S
C1046 C1060 1.377 . S
C1047 C1046 1.524 . S
C1047 C1048 1.397 . S
C1047 C1052 1.363 . S
C1048 H1025 0.950 . S
C1048 C1047 1.397 . S
C1048 C1049 1.334 . S
C1049 H1026 0.950 . S
C1049 C1048 1.334 . S
C1049 C1050 1.287 . S
C1050 C1049 1.287 . S
C1050 C1051 1.524 . S
C1050 H1069 0.913 . S
C1051 H1027 0.950 . S
C1051 C1050 1.524 . S
C1051 C1052 1.415 . S
C1052 H1028 0.950 . S
C1052 C1047 1.363 . S
C1052 C1051 1.415 . S
C1053 H1029 0.951 . S
C1053 C1054 1.366 . S
C1053 C1055 1.388 . S
C1054 C1053 1.366 . S
C1054 C1058 1.385 . S
C1055 H1030 0.951 . S
C1055 C1053 1.388 . S
C1055 C1056 1.366 . S
C1056 C1055 1.366 . S
C1056 C1057 1.414 . S
C1056 C1059 1.499 1_545 S
C1057 H1031 0.950 . S
C1057 C1056 1.414 . S
C1057 C1058 1.374 . S
C1058 H1032 0.950 . S
C1058 C1054 1.385 . S
C1058 C1057 1.374 . S
C1059 C1056 1.499 1_565 S
C1059 C1060 1.373 . S
C1059 C1061 1.389 . S
C1060 H1033 0.950 . S
C1060 C1046 1.377 . S
C1060 C1059 1.373 . S
C1061 C1045 1.377 . S
C1061 C1059 1.389 . S
C1061 C1062 1.524 . S
C1062 C1061 1.524 . S
C1062 C1063 1.397 . S
C1062 C1067 1.363 . S
C1063 H1034 0.950 . S
C1063 C1062 1.397 . S
C1063 C1064 1.334 1_565 S
C1064 H1035 0.950 . S
C1064 C1063 1.334 1_545 S
C1064 C1065 1.287 1_545 S
C1065 C1064 1.287 1_565 S
C1065 C1066 1.524 . S
C1065 H1068 0.999 1_565 S
C1066 H1036 0.950 . S
C1066 C1065 1.524 . S
C1066 C1067 1.415 . S
C1067 H1037 0.950 . S
C1067 C1062 1.363 . S
C1067 C1066 1.415 . S
H1068 C1065 0.999 1_545 S
H1069 C1050 0.913 . S
H1070 C1088 0.951 . S
H1071 C1090 0.951 . S
H1072 C1092 0.950 . S
H1073 C1093 0.950 . S
H1074 C1095 0.950 . S
H1075 C1098 0.950 . S
H1076 C1099 0.950 . S
H1077 C1101 0.950 . S
H1078 C1102 0.950 . S
H1079 C1103 0.951 . S
H1080 C1105 0.951 . S
H1081 C1107 0.950 . S
H1082 C1108 0.950 . S
H1083 C1110 0.950 . S
H1084 C1113 0.950 . S
H1085 C1114 0.950 . S
H1086 C1116 0.950 . S
H1087 C1117 0.950 . S
C1088 H1070 0.951 . S
C1088 C1089 1.366 . S
C1088 C1090 1.388 . S
C1089 C1088 1.366 . S
C1089 C1093 1.385 . S
C1090 H1071 0.951 . S
C1090 C1088 1.388 . S
C1090 C1091 1.366 . S
C1091 C1090 1.366 . S
C1091 C1092 1.414 . S
C1091 C1094 1.499 . S
C1092 H1072 0.950 . S
C1092 C1091 1.414 . S
C1092 C1093 1.374 . S
C1093 H1073 0.950 . S
C1093 C1089 1.385 . S
C1093 C1092 1.374 . S
C1094 C1091 1.499 . S
C1094 C1095 1.373 1_655 S
C1094 C1096 1.389 1_655 S
C1095 H1074 0.950 . S
C1095 C1094 1.373 1_455 S
C1095 C1111 1.377 . S
C1096 C1094 1.389 1_455 S
C1096 C1097 1.519 1_455 S
C1096 C1110 1.377 . S
C1097 C1096 1.519 1_655 S
C1097 C1098 1.394 . S
C1097 C1102 1.370 1_655 S
C1098 H1075 0.950 . S
C1098 C1097 1.394 . S
C1098 C1099 1.334 . S
C1099 H1076 0.950 . S
C1099 C1098 1.334 . S
C1099 C1100 1.287 . S
C1100 C1099 1.287 . S
C1100 C1101 1.524 . S
C1100 H1119 0.913 . S
C1101 H1077 0.950 . S
C1101 C1100 1.524 . S
C1101 C1102 1.415 1_655 S
C1102 H1078 0.950 . S
C1102 C1097 1.370 1_455 S
C1102 C1101 1.415 1_455 S
C1103 H1079 0.951 . S
C1103 C1104 1.366 . S
C1103 C1105 1.388 . S
C1104 C1103 1.366 . S
C1104 C1108 1.385 . S
C1105 H1080 0.951 . S
C1105 C1103 1.388 . S
C1105 C1106 1.366 . S
C1106 C1105 1.366 . S
C1106 C1107 1.414 . S
C1106 C1109 1.499 . S
C1107 H1081 0.950 . S
C1107 C1106 1.414 . S
C1107 C1108 1.374 . S
C1108 H1082 0.950 . S
C1108 C1104 1.385 . S
C1108 C1107 1.374 . S
C1109 C1106 1.499 . S
C1109 C1110 1.373 . S
C1109 C1111 1.389 . S
C1110 H1083 0.950 . S
C1110 C1096 1.377 . S
C1110 C1109 1.373 . S
C1111 C1095 1.377 . S
C1111 C1109 1.389 . S
C1111 C1112 1.524 . S
C1112 C1111 1.524 . S
C1112 C1113 1.397 . S
C1112 C1117 1.363 . S
C1113 H1084 0.950 . S
C1113 C1112 1.397 . S
C1113 C1114 1.334 . S
C1114 H1085 0.950 . S
C1114 C1113 1.334 . S
C1114 C1115 1.287 . S
C1115 C1114 1.287 . S
C1115 C1116 1.524 . S
C1115 H1118 0.999 . S
C1116 H1086 0.950 . S
C1116 C1115 1.524 . S
C1116 C1117 1.415 . S
C1117 H1087 0.950 . S
C1117 C1112 1.363 . S
C1117 C1116 1.415 . S
H1118 C1115 0.999 . S
H1119 C1100 0.913 . S
H1120 C1138 0.951 . S
H1121 C1140 0.951 . S
H1122 C1142 0.950 . S
H1123 C1143 0.950 . S
H1124 C1145 0.950 . S
H1125 C1148 0.950 . S
H1126 C1149 0.950 . S
H1127 C1151 0.950 . S
H1128 C1152 0.950 . S
H1129 C1153 0.951 . S
H1130 C1155 0.951 . S
H1131 C1157 0.950 . S
H1132 C1158 0.950 1_655 S
H1133 C1160 0.950 . S
H1134 C1163 0.950 . S
H1135 C1164 0.950 . S
H1136 C1166 0.950 . S
H1137 C1167 0.950 . S
C1138 H1120 0.951 . S
C1138 C1139 1.366 . S
C1138 C1140 1.388 . S
C1139 C1138 1.366 . S
C1139 C1143 1.385 . S
C1140 H1121 0.951 . S
C1140 C1138 1.388 . S
C1140 C1141 1.366 . S
C1141 C1140 1.366 . S
C1141 C1142 1.414 . S
C1141 C1144 1.499 . S
C1142 H1122 0.950 . S
C1142 C1141 1.414 . S
C1142 C1143 1.374 . S
C1143 H1123 0.950 . S
C1143 C1139 1.385 . S
C1143 C1142 1.374 . S
C1144 C1141 1.499 . S
C1144 C1145 1.373 . S
C1144 C1146 1.389 . S
C1145 H1124 0.950 . S
C1145 C1144 1.373 . S
C1145 C1161 1.377 . S
C1146 C1144 1.389 . S
C1146 C1147 1.524 . S
C1146 C1160 1.377 . S
C1147 C1146 1.524 . S
C1147 C1148 1.397 . S
C1147 C1152 1.363 . S
C1148 H1125 0.950 . S
C1148 C1147 1.397 . S
C1148 C1149 1.334 . S
C1149 H1126 0.950 . S
C1149 C1148 1.334 . S
C1149 C1150 1.287 . S
C1150 C1149 1.287 . S
C1150 C1151 1.524 . S
C1150 H1169 0.913 . S
C1151 H1127 0.950 . S
C1151 C1150 1.524 . S
C1151 C1152 1.415 . S
C1152 H1128 0.950 . S
C1152 C1147 1.363 . S
C1152 C1151 1.415 . S
C1153 H1129 0.951 . S
C1153 C1154 1.366 . S
C1153 C1155 1.388 . S
C1154 C1153 1.366 . S
C1154 C1158 1.385 . S
C1155 H1130 0.951 . S
C1155 C1153 1.388 . S
C1155 C1156 1.366 . S
C1156 C1155 1.366 . S
C1156 C1157 1.414 . S
C1156 C1159 1.499 . S
C1157 H1131 0.950 . S
C1157 C1156 1.414 . S
C1157 C1158 1.374 . S
C1158 H1132 0.950 1_455 S
C1158 C1154 1.385 . S
C1158 C1157 1.374 . S
C1159 C1156 1.499 . S
C1159 C1160 1.373 . S
C1159 C1161 1.389 . S
C1160 H1133 0.950 . S
C1160 C1146 1.377 . S
C1160 C1159 1.373 . S
C1161 C1145 1.377 . S
C1161 C1159 1.389 . S
C1161 C1162 1.524 . S
C1162 C1161 1.524 . S
C1162 C1163 1.397 . S
C1162 C1167 1.363 . S
C1163 H1134 0.950 . S
C1163 C1162 1.397 . S
C1163 C1164 1.334 . S
C1164 H1135 0.950 . S
C1164 C1163 1.334 . S
C1164 C1165 1.287 . S
C1165 C1164 1.287 . S
C1165 C1166 1.524 . S
C1165 H1168 0.999 . S
C1166 H1136 0.950 . S
C1166 C1165 1.524 . S
C1166 C1167 1.415 . S
C1167 H1137 0.950 . S
C1167 C1162 1.363 . S
C1167 C1166 1.415 . S
H1168 C1165 0.999 . S
H1169 C1150 0.913 . S
H1170 C1188 0.951 . S
H1171 C1190 0.951 . S
H1172 C1192 0.950 . S
H1173 C1193 0.950 . S
H1174 C1195 0.950 . S
H1175 C1198 0.950 . S
H1176 C1199 0.950 . S
H1177 C1201 0.950 . S
H1178 C1202 0.950 1_655 S
H1179 C1203 0.951 . S
H1180 C1205 0.951 . S
H1181 C1207 0.950 1_655 S
H1182 C1208 0.950 . S
H1183 C1210 0.950 . S
H1184 C1213 0.950 . S
H1185 C1214 0.950 . S
H1186 C1216 0.950 . S
H1187 C1217 0.950 . S
C1188 H1170 0.951 . S
C1188 C1189 1.366 . S
C1188 C1190 1.388 . S
C1189 C1188 1.366 . S
C1189 C1193 1.385 . S
C1190 H1171 0.951 . S
C1190 C1188 1.388 . S
C1190 C1191 1.366 . S
C1191 C1190 1.366 . S
C1191 C1192 1.414 . S
C1191 C1194 1.499 . S
C1192 H1172 0.950 . S
C1192 C1191 1.414 . S
C1192 C1193 1.374 . S
C1193 H1173 0.950 . S
C1193 C1189 1.385 . S
C1193 C1192 1.374 . S
C1194 C1191 1.499 . S
C1194 C1195 1.373 . S
C1194 C1196 1.389 . S
C1195 H1174 0.950 . S
C1195 C1194 1.373 . S
C1195 C1211 1.377 . S
C1196 C1194 1.389 . S
C1196 C1197 1.524 . S
C1196 C1210 1.377 . S
C1197 C1196 1.524 . S
C1197 C1198 1.397 . S
C1197 C1202 1.363 . S
C1198 H1175 0.950 . S
C1198 C1197 1.397 . S
C1198 C1199 1.334 . S
C1199 H1176 0.950 . S
C1199 C1198 1.334 . S
C1199 C1200 1.287 . S
C1200 C1199 1.287 . S
C1200 C1201 1.524 1_455 S
C1200 H1219 0.913 . S
C1201 H1177 0.950 . S
C1201 C1200 1.524 1_655 S
C1201 C1202 1.415 1_655 S
C1202 H1178 0.950 1_455 S
C1202 C1197 1.363 . S
C1202 C1201 1.415 1_455 S
C1203 H1179 0.951 . S
C1203 C1204 1.366 . S
C1203 C1205 1.388 . S
C1204 C1203 1.366 . S
C1204 C1208 1.385 1_455 S
C1205 H1180 0.951 . S
C1205 C1203 1.388 . S
C1205 C1206 1.366 . S
C1206 C1205 1.366 . S
C1206 C1207 1.414 . S
C1206 C1209 1.499 . S
C1207 H1181 0.950 1_455 S
C1207 C1206 1.414 . S
C1207 C1208 1.374 1_455 S
C1208 H1182 0.950 . S
C1208 C1204 1.385 1_655 S
C1208 C1207 1.374 1_655 S
C1209 C1206 1.499 . S
C1209 C1210 1.373 . S
C1209 C1211 1.389 . S
C1210 H1183 0.950 . S
C1210 C1196 1.377 . S
C1210 C1209 1.373 . S
C1211 C1195 1.377 . S
C1211 C1209 1.389 . S
C1211 C1212 1.524 . S
C1212 C1211 1.524 . S
C1212 C1213 1.397 . S
C1212 C1217 1.363 . S
C1213 H1184 0.950 . S
C1213 C1212 1.397 . S
C1213 C1214 1.334 . S
C1214 H1185 0.950 . S
C1214 C1213 1.334 . S
C1214 C1215 1.287 . S
C1215 C1214 1.287 . S
C1215 C1216 1.524 . S
C1215 H1218 0.999 . S
C1216 H1186 0.950 . S
C1216 C1215 1.524 . S
C1216 C1217 1.415 . S
C1217 H1187 0.950 . S
C1217 C1212 1.363 . S
C1217 C1216 1.415 . S
H1218 C1215 0.999 . S
H1219 C1200 0.913 . S
H1220 C1238 0.951 . S
H1221 C1240 0.951 . S
H1222 C1242 0.950 . S
H1223 C1243 0.950 . S
H1224 C1245 0.950 . S
H1225 C1248 0.950 . S
H1226 C1249 0.950 . S
H1227 C1251 0.950 . S
H1228 C1252 0.950 . S
H1229 C1253 0.951 . S
H1230 C1255 0.951 . S
H1231 C1257 0.950 . S
H1232 C1258 0.950 . S
H1233 C1260 0.950 . S
H1234 C1263 0.950 . S
H1235 C1264 0.950 . S
H1236 C1266 0.950 . S
H1237 C1267 0.950 . S
C1238 H1220 0.951 . S
C1238 C1239 1.366 . S
C1238 C1240 1.388 . S
C1239 C1238 1.366 . S
C1239 C1243 1.385 . S
C1240 H1221 0.951 . S
C1240 C1238 1.388 . S
C1240 C1241 1.366 . S
C1241 C1240 1.366 . S
C1241 C1242 1.414 . S
C1241 C1244 1.499 . S
C1242 H1222 0.950 . S
C1242 C1241 1.414 . S
C1242 C1243 1.374 . S
C1243 H1223 0.950 . S
C1243 C1239 1.385 . S
C1243 C1242 1.374 . S
C1244 C1241 1.499 . S
C1244 C1245 1.373 . S
C1244 C1246 1.389 . S
C1245 H1224 0.950 . S
C1245 C1244 1.373 . S
C1245 C1261 1.377 . S
C1246 C1244 1.389 . S
C1246 C1247 1.524 . S
C1246 C1260 1.377 . S
C1247 C1246 1.524 . S
C1247 C1248 1.397 . S
C1247 C1252 1.363 . S
C1248 H1225 0.950 . S
C1248 C1247 1.397 . S
C1248 C1249 1.334 . S
C1249 H1226 0.950 . S
C1249 C1248 1.334 . S
C1249 C1250 1.287 . S
C1250 C1249 1.287 . S
C1250 C1251 1.524 . S
C1250 H1269 0.913 . S
C1251 H1227 0.950 . S
C1251 C1250 1.524 . S
C1251 C1252 1.415 . S
C1252 H1228 0.950 . S
C1252 C1247 1.363 . S
C1252 C1251 1.415 . S
C1253 H1229 0.951 . S
C1253 C1254 1.366 . S
C1253 C1255 1.388 . S
C1254 C1253 1.366 . S
C1254 C1258 1.385 . S
C1255 H1230 0.951 . S
C1255 C1253 1.388 . S
C1255 C1256 1.366 . S
C1256 C1255 1.366 . S
C1256 C1257 1.414 . S
C1256 C1259 1.499 . S
C1257 H1231 0.950 . S
C1257 C1256 1.414 . S
C1257 C1258 1.374 . S
C1258 H1232 0.950 . S
C1258 C1254 1.385 . S
C1258 C1257 1.374 . S
C1259 C1256 1.499 . S
C1259 C1260 1.373 . S
C1259 C1261 1.389 . S
C1260 H1233 0.950 . S
C1260 C1246 1.377 . S
C1260 C1259 1.373 . S
C1261 C1245 1.377 . S
C1261 C1259 1.389 . S
C1261 C1262 1.524 . S
C1262 C1261 1.524 . S
C1262 C1263 1.397 . S
C1262 C1267 1.363 . S
C1263 H1234 0.950 . S
C1263 C1262 1.397 . S
C1263 C1264 1.334 . S
C1264 H1235 0.950 . S
C1264 C1263 1.334 . S
C1264 C1265 1.287 . S
C1265 C1264 1.287 . S
C1265 C1266 1.524 . S
C1265 H1268 0.999 . S
C1266 H1236 0.950 . S
C1266 C1265 1.524 . S
C1266 C1267 1.415 . S
C1267 H1237 0.950 . S
C1267 C1262 1.363 . S
C1267 C1266 1.415 . S
H1268 C1265 0.999 . S
H1269 C1250 0.913 . S
H1270 C1288 0.951 1_545 S
H1271 C1290 0.951 . S
H1272 C1292 0.950 . S
H1273 C1293 0.950 . S
H1274 C1295 0.950 . S
H1275 C1298 0.950 . S
H1276 C1299 0.950 . S
H1277 C1301 0.950 . S
H1278 C1302 0.950 . S
H1279 C1303 0.951 . S
H1280 C1305 0.951 . S
H1281 C1307 0.950 . S
H1282 C1308 0.950 . S
H1283 C1310 0.950 . S
H1284 C1313 0.950 . S
H1285 C1314 0.950 . S
H1286 C1316 0.950 . S
H1287 C1317 0.950 . S
C1288 H1270 0.951 1_565 S
C1288 C1289 1.366 . S
C1288 C1290 1.388 . S
C1289 C1288 1.366 . S
C1289 C1293 1.385 . S
C1290 H1271 0.951 . S
C1290 C1288 1.388 . S
C1290 C1291 1.366 . S
C1291 C1290 1.366 . S
C1291 C1292 1.414 . S
C1291 C1294 1.499 . S
C1292 H1272 0.950 . S
C1292 C1291 1.414 . S
C1292 C1293 1.374 . S
C1293 H1273 0.950 . S
C1293 C1289 1.385 . S
C1293 C1292 1.374 . S
C1294 C1291 1.499 . S
C1294 C1295 1.373 . S
C1294 C1296 1.389 . S
C1295 H1274 0.950 . S
C1295 C1294 1.373 . S
C1295 C1311 1.377 . S
C1296 C1294 1.389 . S
C1296 C1297 1.524 1_565 S
C1296 C1310 1.377 . S
C1297 C1296 1.524 1_545 S
C1297 C1298 1.397 . S
C1297 C1302 1.363 . S
C1298 H1275 0.950 . S
C1298 C1297 1.397 . S
C1298 C1299 1.334 . S
C1299 H1276 0.950 . S
C1299 C1298 1.334 . S
C1299 C1300 1.287 . S
C1300 C1299 1.287 . S
C1300 C1301 1.524 . S
C1300 H1319 0.913 . S
C1301 H1277 0.950 . S
C1301 C1300 1.524 . S
C1301 C1302 1.415 . S
C1302 H1278 0.950 . S
C1302 C1297 1.363 . S
C1302 C1301 1.415 . S
C1303 H1279 0.951 . S
C1303 C1304 1.366 . S
C1303 C1305 1.388 . S
C1304 C1303 1.366 . S
C1304 C1308 1.385 . S
C1305 H1280 0.951 . S
C1305 C1303 1.388 . S
C1305 C1306 1.366 . S
C1306 C1305 1.366 . S
C1306 C1307 1.414 . S
C1306 C1309 1.499 . S
C1307 H1281 0.950 . S
C1307 C1306 1.414 . S
C1307 C1308 1.374 . S
C1308 H1282 0.950 . S
C1308 C1304 1.385 . S
C1308 C1307 1.374 . S
C1309 C1306 1.499 . S
C1309 C1310 1.373 . S
C1309 C1311 1.389 . S
C1310 H1283 0.950 . S
C1310 C1296 1.377 . S
C1310 C1309 1.373 . S
C1311 C1295 1.377 . S
C1311 C1309 1.389 . S
C1311 C1312 1.524 . S
C1312 C1311 1.524 . S
C1312 C1313 1.397 . S
C1312 C1317 1.363 . S
C1313 H1284 0.950 . S
C1313 C1312 1.397 . S
C1313 C1314 1.334 . S
C1314 H1285 0.950 . S
C1314 C1313 1.334 . S
C1314 C1315 1.287 . S
C1315 C1314 1.287 . S
C1315 C1316 1.524 . S
C1315 H1318 0.999 . S
C1316 H1286 0.950 . S
C1316 C1315 1.524 . S
C1316 C1317 1.415 . S
C1317 H1287 0.950 . S
C1317 C1312 1.363 . S
C1317 C1316 1.415 . S
H1318 C1315 0.999 . S
H1319 C1300 0.913 . S
H1320 C1338 0.951 . S
H1321 C1340 0.951 . S
H1322 C1342 0.950 . S
H1323 C1343 0.950 1_565 S
H1324 C1345 0.950 . S
H1325 C1348 0.950 . S
H1326 C1349 0.950 . S
H1327 C1351 0.950 . S
H1328 C1352 0.950 . S
H1329 C1353 0.951 . S
H1330 C1355 0.951 . S
H1331 C1357 0.950 . S
H1332 C1358 0.950 . S
H1333 C1360 0.950 . S
H1334 C1363 0.950 . S
H1335 C1364 0.950 . S
H1336 C1366 0.950 . S
H1337 C1367 0.950 . S
C1338 H1320 0.951 . S
C1338 C1339 1.366 . S
C1338 C1340 1.388 . S
C1339 C1338 1.366 . S
C1339 C1343 1.385 . S
C1340 H1321 0.951 . S
C1340 C1338 1.388 . S
C1340 C1341 1.366 . S
C1341 C1340 1.366 . S
C1341 C1342 1.414 . S
C1341 C1344 1.499 . S
C1342 H1322 0.950 . S
C1342 C1341 1.414 . S
C1342 C1343 1.374 . S
C1343 H1323 0.950 1_545 S
C1343 C1339 1.385 . S
C1343 C1342 1.374 . S
C1344 C1341 1.499 . S
C1344 C1345 1.373 . S
C1344 C1346 1.389 . S
C1345 H1324 0.950 . S
C1345 C1344 1.373 . S
C1345 C1361 1.377 . S
C1346 C1344 1.389 . S
C1346 C1347 1.524 . S
C1346 C1360 1.377 . S
C1347 C1346 1.524 . S
C1347 C1348 1.397 . S
C1347 C1352 1.363 . S
C1348 H1325 0.950 . S
C1348 C1347 1.397 . S
C1348 C1349 1.334 . S
C1349 H1326 0.950 . S
C1349 C1348 1.334 . S
C1349 C1350 1.287 . S
C1350 C1349 1.287 . S
C1350 C1351 1.524 . S
C1350 H1369 0.913 . S
C1351 H1327 0.950 . S
C1351 C1350 1.524 . S
C1351 C1352 1.415 . S
C1352 H1328 0.950 . S
C1352 C1347 1.363 . S
C1352 C1351 1.415 . S
C1353 H1329 0.951 . S
C1353 C1354 1.366 . S
C1353 C1355 1.388 . S
C1354 C1353 1.366 . S
C1354 C1358 1.385 . S
C1355 H1330 0.951 . S
C1355 C1353 1.388 . S
C1355 C1356 1.366 . S
C1356 C1355 1.366 . S
C1356 C1357 1.414 . S
C1356 C1359 1.499 . S
C1357 H1331 0.950 . S
C1357 C1356 1.414 . S
C1357 C1358 1.374 . S
C1358 H1332 0.950 . S
C1358 C1354 1.385 . S
C1358 C1357 1.374 . S
C1359 C1356 1.499 . S
C1359 C1360 1.373 . S
C1359 C1361 1.389 . S
C1360 H1333 0.950 . S
C1360 C1346 1.377 . S
C1360 C1359 1.373 . S
C1361 C1345 1.377 . S
C1361 C1359 1.389 . S
C1361 C1362 1.524 . S
C1362 C1361 1.524 . S
C1362 C1363 1.397 . S
C1362 C1367 1.363 1_545 S
C1363 H1334 0.950 . S
C1363 C1362 1.397 . S
C1363 C1364 1.334 1_545 S
C1364 H1335 0.950 . S
C1364 C1363 1.334 1_565 S
C1364 C1365 1.287 . S
C1365 C1364 1.287 . S
C1365 C1366 1.524 . S
C1365 H1368 0.999 . S
C1366 H1336 0.950 . S
C1366 C1365 1.524 . S
C1366 C1367 1.415 . S
C1367 H1337 0.950 . S
C1367 C1362 1.363 1_565 S
C1367 C1366 1.415 . S
H1368 C1365 0.999 . S
H1369 C1350 0.913 . S
H1370 C1388 0.951 . S
H1371 C1390 0.951 . S
H1372 C1392 0.950 . S
H1373 C1393 0.950 . S
H1374 C1395 0.950 . S
H1375 C1398 0.950 . S
H1376 C1399 0.950 . S
H1377 C1401 0.950 . S
H1378 C1402 0.950 . S
H1379 C1403 0.951 . S
H1380 C1405 0.951 . S
H1381 C1407 0.950 . S
H1382 C1408 0.950 . S
H1383 C1410 0.950 . S
H1384 C1413 0.950 . S
H1385 C1414 0.950 . S
H1386 C1416 0.950 . S
H1387 C1417 0.950 . S
C1388 H1370 0.951 . S
C1388 C1389 1.366 . S
C1388 C1390 1.388 . S
C1389 C1388 1.366 . S
C1389 C1393 1.385 . S
C1390 H1371 0.951 . S
C1390 C1388 1.388 . S
C1390 C1391 1.366 . S
C1391 C1390 1.366 . S
C1391 C1392 1.414 . S
C1391 C1394 1.499 . S
C1392 H1372 0.950 . S
C1392 C1391 1.414 . S
C1392 C1393 1.374 . S
C1393 H1373 0.950 . S
C1393 C1389 1.385 . S
C1393 C1392 1.374 . S
C1394 C1391 1.499 . S
C1394 C1395 1.373 . S
C1394 C1396 1.389 . S
C1395 H1374 0.950 . S
C1395 C1394 1.373 . S
C1395 C1411 1.377 . S
C1396 C1394 1.389 . S
C1396 C1397 1.524 . S
C1396 C1410 1.377 . S
C1397 C1396 1.524 . S
C1397 C1398 1.397 . S
C1397 C1402 1.363 . S
C1398 H1375 0.950 . S
C1398 C1397 1.397 . S
C1398 C1399 1.334 . S
C1399 H1376 0.950 . S
C1399 C1398 1.334 . S
C1399 C1400 1.287 . S
C1400 C1399 1.287 . S
C1400 C1401 1.524 . S
C1400 H1419 0.913 . S
C1401 H1377 0.950 . S
C1401 C1400 1.524 . S
C1401 C1402 1.415 . S
C1402 H1378 0.950 . S
C1402 C1397 1.363 . S
C1402 C1401 1.415 . S
C1403 H1379 0.951 . S
C1403 C1404 1.366 . S
C1403 C1405 1.388 . S
C1404 C1403 1.366 . S
C1404 C1408 1.385 . S
C1405 H1380 0.951 . S
C1405 C1403 1.388 . S
C1405 C1406 1.366 . S
C1406 C1405 1.366 . S
C1406 C1407 1.414 . S
C1406 C1409 1.499 . S
C1407 H1381 0.950 . S
C1407 C1406 1.414 . S
C1407 C1408 1.374 . S
C1408 H1382 0.950 . S
C1408 C1404 1.385 . S
C1408 C1407 1.374 . S
C1409 C1406 1.499 . S
C1409 C1410 1.373 . S
C1409 C1411 1.389 . S
C1410 H1383 0.950 . S
C1410 C1396 1.377 . S
C1410 C1409 1.373 . S
C1411 C1395 1.377 . S
C1411 C1409 1.389 . S
C1411 C1412 1.524 . S
C1412 C1411 1.524 . S
C1412 C1413 1.397 1_655 S
C1412 C1417 1.363 . S
C1413 H1384 0.950 . S
C1413 C1412 1.397 1_455 S
C1413 C1414 1.334 . S
C1414 H1385 0.950 . S
C1414 C1413 1.334 . S
C1414 C1415 1.287 . S
C1415 C1414 1.287 . S
C1415 C1416 1.524 . S
C1415 H1418 0.999 . S
C1416 H1386 0.950 . S
C1416 C1415 1.524 . S
C1416 C1417 1.415 1_455 S
C1417 H1387 0.950 . S
C1417 C1412 1.363 . S
C1417 C1416 1.415 1_655 S
H1418 C1415 0.999 . S
H1419 C1400 0.913 . S
H1420 C1438 0.951 . S
H1421 C1440 0.951 . S
H1422 C1442 0.950 . S
H1423 C1443 0.950 . S
H1424 C1445 0.950 . S
H1425 C1448 0.950 . S
H1426 C1449 0.950 . S
H1427 C1451 0.950 . S
H1428 C1452 0.950 . S
H1429 C1453 0.951 . S
H1430 C1455 0.951 . S
H1431 C1457 0.950 . S
H1432 C1458 0.950 . S
H1433 C1460 0.950 . S
H1434 C1463 0.950 . S
H1435 C1464 0.950 . S
H1436 C1466 0.950 . S
H1437 C1467 0.950 . S
C1438 H1420 0.951 . S
C1438 C1439 1.366 . S
C1438 C1440 1.388 . S
C1439 C1438 1.366 . S
C1439 C1443 1.385 . S
C1440 H1421 0.951 . S
C1440 C1438 1.388 . S
C1440 C1441 1.366 . S
C1441 C1440 1.366 . S
C1441 C1442 1.414 . S
C1441 C1444 1.499 . S
C1442 H1422 0.950 . S
C1442 C1441 1.414 . S
C1442 C1443 1.374 . S
C1443 H1423 0.950 . S
C1443 C1439 1.385 . S
C1443 C1442 1.374 . S
C1444 C1441 1.499 . S
C1444 C1445 1.373 . S
C1444 C1446 1.389 . S
C1445 H1424 0.950 . S
C1445 C1444 1.373 . S
C1445 C1461 1.377 . S
C1446 C1444 1.389 . S
C1446 C1447 1.524 . S
C1446 C1460 1.377 . S
C1447 C1446 1.524 . S
C1447 C1448 1.397 . S
C1447 C1452 1.363 . S
C1448 H1425 0.950 . S
C1448 C1447 1.397 . S
C1448 C1449 1.334 . S
C1449 H1426 0.950 . S
C1449 C1448 1.334 . S
C1449 C1450 1.287 . S
C1450 C1449 1.287 . S
C1450 C1451 1.524 . S
C1450 H1469 0.913 . S
C1451 H1427 0.950 . S
C1451 C1450 1.524 . S
C1451 C1452 1.415 . S
C1452 H1428 0.950 . S
C1452 C1447 1.363 . S
C1452 C1451 1.415 . S
C1453 H1429 0.951 . S
C1453 C1454 1.366 . S
C1453 C1455 1.388 . S
C1454 C1453 1.366 . S
C1454 C1458 1.385 . S
C1455 H1430 0.951 . S
C1455 C1453 1.388 . S
C1455 C1456 1.366 . S
C1456 C1455 1.366 . S
C1456 C1457 1.414 . S
C1456 C1459 1.499 . S
C1457 H1431 0.950 . S
C1457 C1456 1.414 . S
C1457 C1458 1.374 . S
C1458 H1432 0.950 . S
C1458 C1454 1.385 . S
C1458 C1457 1.374 . S
C1459 C1456 1.499 . S
C1459 C1460 1.373 . S
C1459 C1461 1.389 . S
C1460 H1433 0.950 . S
C1460 C1446 1.377 . S
C1460 C1459 1.373 . S
C1461 C1445 1.377 . S
C1461 C1459 1.389 . S
C1461 C1462 1.524 . S
C1462 C1461 1.524 . S
C1462 C1463 1.397 . S
C1462 C1467 1.363 . S
C1463 H1434 0.950 . S
C1463 C1462 1.397 . S
C1463 C1464 1.334 . S
C1464 H1435 0.950 . S
C1464 C1463 1.334 . S
C1464 C1465 1.287 . S
C1465 C1464 1.287 . S
C1465 C1466 1.524 . S
C1465 H1468 0.999 . S
C1466 H1436 0.950 . S
C1466 C1465 1.524 . S
C1466 C1467 1.415 . S
C1467 H1437 0.950 . S
C1467 C1462 1.363 . S
C1467 C1466 1.415 . S
H1468 C1465 0.999 . S
H1469 C1450 0.913 . S
H1470 C1488 0.951 . S
H1471 C1490 0.951 . S
H1472 C1492 0.950 . S
H1473 C1493 0.950 . S
H1474 C1495 0.950 . S
H1475 C1498 0.950 . S
H1476 C1499 0.950 . S
H1477 C1501 0.950 . S
H1478 C1502 0.950 . S
H1479 C1503 0.951 . S
H1480 C1505 0.951 . S
H1481 C1507 0.950 . S
H1482 C1508 0.950 . S
H1483 C1510 0.950 . S
H1484 C1513 0.950 . S
H1485 C1514 0.950 . S
H1486 C1516 0.950 . S
H1487 C1517 0.950 . S
C1488 H1470 0.951 . S
C1488 C1489 1.366 . S
C1488 C1490 1.388 . S
C1489 C1488 1.366 . S
C1489 C1493 1.385 . S
C1490 H1471 0.951 . S
C1490 C1488 1.388 . S
C1490 C1491 1.366 . S
C1491 C1490 1.366 . S
C1491 C1492 1.414 . S
C1491 C1494 1.499 . S
C1492 H1472 0.950 . S
C1492 C1491 1.414 . S
C1492 C1493 1.374 . S
C1493 H1473 0.950 . S
C1493 C1489 1.385 . S
C1493 C1492 1.374 . S
C1494 C1491 1.499 . S
C1494 C1495 1.373 . S
C1494 C1496 1.389 . S
C1495 H1474 0.950 . S
C1495 C1494 1.373 . S
C1495 C1511 1.377 . S
C1496 C1494 1.389 . S
C1496 C1497 1.524 . S
C1496 C1510 1.377 . S
C1497 C1496 1.524 . S
C1497 C1498 1.397 . S
C1497 C1502 1.363 . S
C1498 H1475 0.950 . S
C1498 C1497 1.397 . S
C1498 C1499 1.334 . S
C1499 H1476 0.950 . S
C1499 C1498 1.334 . S
C1499 C1500 1.287 . S
C1500 C1499 1.287 . S
C1500 C1501 1.524 . S
C1500 H1519 0.913 . S
C1501 H1477 0.950 . S
C1501 C1500 1.524 . S
C1501 C1502 1.415 . S
C1502 H1478 0.950 . S
C1502 C1497 1.363 . S
C1502 C1501 1.415 . S
C1503 H1479 0.951 . S
C1503 C1504 1.366 . S
C1503 C1505 1.388 . S
C1504 C1503 1.366 . S
C1504 C1508 1.385 . S
C1505 H1480 0.951 . S
C1505 C1503 1.388 . S
C1505 C1506 1.366 . S
C1506 C1505 1.366 . S
C1506 C1507 1.414 . S
C1506 C1509 1.499 . S
C1507 H1481 0.950 . S
C1507 C1506 1.414 . S
C1507 C1508 1.374 . S
C1508 H1482 0.950 . S
C1508 C1504 1.385 . S
C1508 C1507 1.374 . S
C1509 C1506 1.499 . S
C1509 C1510 1.373 . S
C1509 C1511 1.389 . S
C1510 H1483 0.950 . S
C1510 C1496 1.377 . S
C1510 C1509 1.373 . S
C1511 C1495 1.377 . S
C1511 C1509 1.389 . S
C1511 C1512 1.524 . S
C1512 C1511 1.524 . S
C1512 C1513 1.397 . S
C1512 C1517 1.363 . S
C1513 H1484 0.950 . S
C1513 C1512 1.397 . S
C1513 C1514 1.334 . S
C1514 H1485 0.950 . S
C1514 C1513 1.334 . S
C1514 C1515 1.287 . S
C1515 C1514 1.287 . S
C1515 C1516 1.524 . S
C1515 H1518 0.999 . S
C1516 H1486 0.950 . S
C1516 C1515 1.524 . S
C1516 C1517 1.415 . S
C1517 H1487 0.950 . S
C1517 C1512 1.363 . S
C1517 C1516 1.415 . S
H1518 C1515 0.999 . S
H1519 C1500 0.913 . S
H1520 C1538 0.951 . S
H1521 C1540 0.951 . S
H1522 C1542 0.950 1_545 S
H1523 C1543 0.950 . S
H1524 C1545 0.950 . S
H1525 C1548 0.950 1_545 S
H1526 C1549 0.950 . S
H1527 C1551 0.950 . S
H1528 C1552 0.950 . S
H1529 C1553 0.951 . S
H1530 C1555 0.951 . S
H1531 C1557 0.950 . S
H1532 C1558 0.950 . S
H1533 C1560 0.950 . S
H1534 C1563 0.950 . S
H1535 C1564 0.950 . S
H1536 C1566 0.950 . S
H1537 C1567 0.950 . S
C1538 H1520 0.951 . S
C1538 C1539 1.366 . S
C1538 C1540 1.388 . S
C1539 C1538 1.366 . S
C1539 C1543 1.385 . S
C1540 H1521 0.951 . S
C1540 C1538 1.388 . S
C1540 C1541 1.366 . S
C1541 C1540 1.366 . S
C1541 C1542 1.414 . S
C1541 C1544 1.499 . S
C1542 H1522 0.950 1_565 S
C1542 C1541 1.414 . S
C1542 C1543 1.374 . S
C1543 H1523 0.950 . S
C1543 C1539 1.385 . S
C1543 C1542 1.374 . S
C1544 C1541 1.499 . S
C1544 C1545 1.373 1_565 S
C1544 C1546 1.389 . S
C1545 H1524 0.950 . S
C1545 C1544 1.373 1_545 S
C1545 C1561 1.377 . S
C1546 C1544 1.389 . S
C1546 C1547 1.524 . S
C1546 C1560 1.377 1_565 S
C1547 C1546 1.524 . S
C1547 C1548 1.397 . S
C1547 C1552 1.363 . S
C1548 H1525 0.950 1_565 S
C1548 C1547 1.397 . S
C1548 C1549 1.334 . S
C1549 H1526 0.950 . S
C1549 C1548 1.334 . S
C1549 C1550 1.287 . S
C1550 C1549 1.287 . S
C1550 C1551 1.524 . S
C1550 H1569 0.913 . S
C1551 H1527 0.950 . S
C1551 C1550 1.524 . S
C1551 C1552 1.415 . S
C1552 H1528 0.950 . S
C1552 C1547 1.363 . S
C1552 C1551 1.415 . S
C1553 H1529 0.951 . S
C1553 C1554 1.366 . S
C1553 C1555 1.388 . S
C1554 C1553 1.366 . S
C1554 C1558 1.385 . S
C1555 H1530 0.951 . S
C1555 C1553 1.388 . S
C1555 C1556 1.366 . S
C1556 C1555 1.366 . S
C1556 C1557 1.414 . S
C1556 C1559 1.499 . S
C1557 H1531 0.950 . S
C1557 C1556 1.414 . S
C1557 C1558 1.374 . S
C1558 H1532 0.950 . S
C1558 C1554 1.385 . S
C1558 C1557 1.374 . S
C1559 C1556 1.499 . S
C1559 C1560 1.373 . S
C1559 C1561 1.389 . S
C1560 H1533 0.950 . S
C1560 C1546 1.377 1_545 S
C1560 C1559 1.373 . S
C1561 C1545 1.377 . S
C1561 C1559 1.389 . S
C1561 C1562 1.524 . S
C1562 C1561 1.524 . S
C1562 C1563 1.397 . S
C1562 C1567 1.363 . S
C1563 H1534 0.950 . S
C1563 C1562 1.397 . S
C1563 C1564 1.334 . S
C1564 H1535 0.950 . S
C1564 C1563 1.334 . S
C1564 C1565 1.287 . S
C1565 C1564 1.287 . S
C1565 C1566 1.524 . S
C1565 H1568 0.999 . S
C1566 H1536 0.950 . S
C1566 C1565 1.524 . S
C1566 C1567 1.415 . S
C1567 H1537 0.950 . S
C1567 C1562 1.363 . S
C1567 C1566 1.415 . S
H1568 C1565 0.999 . S
H1569 C1550 0.913 . S
H1570 C1588 0.951 . S
H1571 C1590 0.951 . S
H1572 C1592 0.950 . S
H1573 C1593 0.950 . S
H1574 C1595 0.950 . S
H1575 C1598 0.950 . S
H1576 C1599 0.950 . S
H1577 C1601 0.950 . S
H1578 C1602 0.950 . S
H1579 C1603 0.951 . S
H1580 C1605 0.951 . S
H1581 C1607 0.950 . S
H1582 C1608 0.950 . S
H1583 C1610 0.950 . S
H1584 C1613 0.950 . S
H1585 C1614 0.950 . S
H1586 C1616 0.950 . S
H1587 C1617 0.950 . S
C1588 H1570 0.951 . S
C1588 C1589 1.366 . S
C1588 C1590 1.388 . S
C1589 C1588 1.366 . S
C1589 C1593 1.385 . S
C1590 H1571 0.951 . S
C1590 C1588 1.388 . S
C1590 C1591 1.366 . S
C1591 C1590 1.366 . S
C1591 C1592 1.414 . S
C1591 C1594 1.499 . S
C1592 H1572 0.950 . S
C1592 C1591 1.414 . S
C1592 C1593 1.374 . S
C1593 H1573 0.950 . S
C1593 C1589 1.385 . S
C1593 C1592 1.374 . S
C1594 C1591 1.499 . S
C1594 C1595 1.373 1_655 S
C1594 C1596 1.389 . S
C1595 H1574 0.950 . S
C1595 C1594 1.373 1_455 S
C1595 C1611 1.377 . S
C1596 C1594 1.389 . S
C1596 C1597 1.524 . S
C1596 C1610 1.377 . S
C1597 C1596 1.524 . S
C1597 C1598 1.397 . S
C1597 C1602 1.363 . S
C1598 H1575 0.950 . S
C1598 C1597 1.397 . S
C1598 C1599 1.334 . S
C1599 H1576 0.950 . S
C1599 C1598 1.334 . S
C1599 C1600 1.287 . S
C1600 C1599 1.287 . S
C1600 C1601 1.524 . S
C1600 H1619 0.913 . S
C1601 H1577 0.950 . S
C1601 C1600 1.524 . S
C1601 C1602 1.415 . S
C1602 H1578 0.950 . S
C1602 C1597 1.363 . S
C1602 C1601 1.415 . S
C1603 H1579 0.951 . S
C1603 C1604 1.366 . S
C1603 C1605 1.388 . S
C1604 C1603 1.366 . S
C1604 C1608 1.385 . S
C1605 H1580 0.951 . S
C1605 C1603 1.388 . S
C1605 C1606 1.366 . S
C1606 C1605 1.366 . S
C1606 C1607 1.414 . S
C1606 C1609 1.499 . S
C1607 H1581 0.950 . S
C1607 C1606 1.414 . S
C1607 C1608 1.374 . S
C1608 H1582 0.950 . S
C1608 C1604 1.385 . S
C1608 C1607 1.374 . S
C1609 C1606 1.499 . S
C1609 C1610 1.373 1_455 S
C1609 C1611 1.389 . S
C1610 H1583 0.950 . S
C1610 C1596 1.377 . S
C1610 C1609 1.373 1_655 S
C1611 C1595 1.377 . S
C1611 C1609 1.389 . S
C1611 C1612 1.524 . S
C1612 C1611 1.524 . S
C1612 C1613 1.397 . S
C1612 C1617 1.363 . S
C1613 H1584 0.950 . S
C1613 C1612 1.397 . S
C1613 C1614 1.334 . S
C1614 H1585 0.950 . S
C1614 C1613 1.334 . S
C1614 C1615 1.287 . S
C1615 C1614 1.287 . S
C1615 C1616 1.524 . S
C1615 H1618 0.999 . S
C1616 H1586 0.950 . S
C1616 C1615 1.524 . S
C1616 C1617 1.415 . S
C1617 H1587 0.950 . S
C1617 C1612 1.363 . S
C1617 C1616 1.415 . S
H1618 C1615 0.999 . S
H1619 C1600 0.913 . S
C289 C57 1.590 . S
C304 C16 1.557 . S
C339 N66 0.369 . S
C354 N44 0.304 1_554 S
C389 C76 0.936 . S
C404 N6 0.944 . S
C439 N74 0.376 . S
C454 N36 0.407 . S
C489 C87 0.752 . S
C504 N14 0.752 . S
C539 C27 1.793 . S
C554 C46 1.747 . S
C589 C106 0.339 . S
C604 N126 0.361 . S
C639 N156 1.187 . S
C654 C136 1.182 . S
C689 C166 1.008 . S
C704 N96 1.012 . S
C739 C147 1.627 . S
C754 N164 1.594 . S
C789 C177 0.649 . S
C804 N104 0.657 . S
C839 N134 0.639 . S
C854 C117 0.630 . S
C889 C237 1.613 . S
C904 C196 1.579 . S
C939 N224 0.336 . S
C954 N246 0.373 . S
C989 C256 0.930 . S
C1004 N186 0.933 . S
C1039 N254 0.383 . S
C1054 N216 0.407 . S
C1089 C267 0.742 . S
C1104 N194 0.743 . S
C1139 C207 1.777 . S
C1154 C226 1.730 1_455 S
C1189 C151 2.093 . S
C1204 C10 2.153 . S
C1239 C91 2.186 . S
C1254 C31 2.192 . S
C1289 C70 1.998 . S
C1304 C121 1.937 . S
C1339 C61 2.079 . S
C1354 C190 2.138 . S
C1389 C1 2.204 . S
C1404 C211 2.210 . S
C1439 C250 1.987 . S
C1454 C40 1.987 . S
C1489 C100 2.126 . S
C1504 C241 2.068 . S
C1539 C130 2.272 . S
C1554 C181 2.200 . S
C1589 C220 2.008 . S
C1604 C160 2.008 . S
