# Generated by pormake.
# Topology ske, (6)-cn, num edge types: 1
# Building blocks:
#     Node 0, Type 0, BuildingBlock: UKALOJ_clean_sbu_0, # of connection points: 6
#     Node 1, Type 0, BuildingBlock: UKALOJ_clean_sbu_0, # of connection points: 6
#     Node 2, Type 0, BuildingBlock: UKALOJ_clean_sbu_0, # of connection points: 6
#     Node 3, Type 0, BuildingBlock: UKALOJ_clean_sbu_0, # of connection points: 6
#     Node 4, Type 0, BuildingBlock: UKALOJ_clean_sbu_0, # of connection points: 6
#     Node 5, Type 0, BuildingBlock: UKALOJ_clean_sbu_0, # of connection points: 6
#     Node 6, Type 0, BuildingBlock: UKALOJ_clean_sbu_0, # of connection points: 6
#     Node 7, Type 0, BuildingBlock: UKALOJ_clean_sbu_0, # of connection points: 6
#     Edge 8, Type (0, 0), BuildingBlock: ZUJKAS_clean_linker_0, # of connection points: 2
#     Edge 9, Type (0, 0), BuildingBlock: ZUJKAS_clean_linker_0, # of connection points: 2
#     Edge 10, Type (0, 0), BuildingBlock: ZUJKAS_clean_linker_0, # of connection points: 2
#     Edge 11, Type (0, 0), BuildingBlock: ZUJKAS_clean_linker_0, # of connection points: 2
#     Edge 12, Type (0, 0), BuildingBlock: ZUJKAS_clean_linker_0, # of connection points: 2
#     Edge 13, Type (0, 0), BuildingBlock: ZUJKAS_clean_linker_0, # of connection points: 2
#     Edge 14, Type (0, 0), BuildingBlock: ZUJKAS_clean_linker_0, # of connection points: 2
#     Edge 15, Type (0, 0), BuildingBlock: ZUJKAS_clean_linker_0, # of connection points: 2
#     Edge 16, Type (0, 0), BuildingBlock: ZUJKAS_clean_linker_0, # of connection points: 2
#     Edge 17, Type (0, 0), BuildingBlock: ZUJKAS_clean_linker_0, # of connection points: 2
#     Edge 18, Type (0, 0), BuildingBlock: ZUJKAS_clean_linker_0, # of connection points: 2
#     Edge 19, Type (0, 0), BuildingBlock: ZUJKAS_clean_linker_0, # of connection points: 2
#     Edge 20, Type (0, 0), BuildingBlock: ZUJKAS_clean_linker_0, # of connection points: 2
#     Edge 21, Type (0, 0), BuildingBlock: ZUJKAS_clean_linker_0, # of connection points: 2
#     Edge 22, Type (0, 0), BuildingBlock: ZUJKAS_clean_linker_0, # of connection points: 2
#     Edge 23, Type (0, 0), BuildingBlock: ZUJKAS_clean_linker_0, # of connection points: 2
#     Edge 24, Type (0, 0), BuildingBlock: ZUJKAS_clean_linker_0, # of connection points: 2
#     Edge 25, Type (0, 0), BuildingBlock: ZUJKAS_clean_linker_0, # of connection points: 2
#     Edge 26, Type (0, 0), BuildingBlock: ZUJKAS_clean_linker_0, # of connection points: 2
#     Edge 27, Type (0, 0), BuildingBlock: ZUJKAS_clean_linker_0, # of connection points: 2
#     Edge 28, Type (0, 0), BuildingBlock: ZUJKAS_clean_linker_0, # of connection points: 2
#     Edge 29, Type (0, 0), BuildingBlock: ZUJKAS_clean_linker_0, # of connection points: 2
#     Edge 30, Type (0, 0), BuildingBlock: ZUJKAS_clean_linker_0, # of connection points: 2
#     Edge 31, Type (0, 0), BuildingBlock: ZUJKAS_clean_linker_0, # of connection points: 2
# Relax obj value: 0.075
# Max RMSD: 0.119
# Mean RMSD: 0.119
data_MOF--net-ske--node1-UKALOJ_clean_sbu_0--edge1-ZUJKAS_clean_linker_0
_symmetry_space_group_name_H-M    P1
_symmetry_Int_Tables_number       1
_symmetry_cell_setting            triclinic
loop_
_symmetry_equiv_pos_as_xyz
'x, y, z'
_cell_length_a     75.206429
_cell_length_b     49.416562
_cell_length_c     19.413618
_cell_angle_alpha  89.941888
_cell_angle_beta   89.848079
_cell_angle_gamma 89.987125
loop_
_atom_site_label
_atom_site_type_symbol
_atom_site_fract_x
_atom_site_fract_y
_atom_site_fract_z
_atom_type_partial_charge
Zn0 Zn 0.13636 0.28583 0.51355 0.0
O1 O 0.13026 0.29162 0.61819 0.0
C2 C 0.17198 0.26707 0.55047 0.0
Zn3 Zn 0.13639 0.24086 0.52087 0.0
C4 C 0.12844 0.27012 0.65358 0.0
O5 O 0.1301 0.24717 0.62476 0.0
C6 C 0.14444 0.25655 0.38079 0.0
O7 O 0.10887 0.23822 0.4979 0.0
O8 O 0.10897 0.28254 0.49095 0.0
N9 N 0.13805 0.20019 0.53977 0.0
C10 C 0.13079 0.17809 0.51032 0.0
C11 C 0.14827 0.16433 0.58922 0.0
N12 N 0.14883 0.19154 0.58892 0.0
N13 N 0.13698 0.15533 0.54063 0.0
C14 C 0.14018 0.3492 0.5221 0.0
C15 C 0.12965 0.35982 0.4238 0.0
N16 N 0.13488 0.3261 0.49139 0.0
N17 N 0.12827 0.33286 0.4306 0.0
N18 N 0.13708 0.37061 0.48042 0.0
H19 H 0.155 0.33078 0.60503 0.0
H20 H 0.13907 0.35592 0.63055 0.0
H21 H 0.15955 0.3664 0.59074 0.0
C22 C 0.14911 0.35054 0.59088 0.0
C23 C 0.11843 0.1788 0.44992 0.0
H24 H 0.11985 0.19788 0.42054 0.0
H25 H 0.10453 0.17743 0.46891 0.0
H26 H 0.12095 0.16135 0.41531 0.0
O27 O 0.14271 0.23512 0.41624 0.0
O28 O 0.14261 0.2794 0.40962 0.0
C29 C 0.10056 0.26028 0.48764 0.0
O30 O 0.16358 0.28874 0.53711 0.0
O31 O 0.16395 0.24449 0.54572 0.0
Zn32 Zn 0.87443 0.28591 0.53148 0.0
O33 O 0.90182 0.29051 0.50748 0.0
C34 C 0.86644 0.2677 0.39294 0.0
Zn35 Zn 0.87505 0.2408 0.52709 0.0
C36 C 0.91041 0.26865 0.4982 0.0
O37 O 0.9023 0.24619 0.50342 0.0
C38 C 0.8393 0.25772 0.56387 0.0
O39 O 0.88135 0.23704 0.63169 0.0
O40 O 0.8809 0.28151 0.63553 0.0
N41 N 0.87851 0.20029 0.51015 0.0
C42 C 0.87101 0.17726 0.53382 0.0
C43 C 0.89075 0.16605 0.46014 0.0
N44 N 0.89073 0.19318 0.46442 0.0
N45 N 0.87848 0.15547 0.50299 0.0
C46 C 0.87802 0.34906 0.51667 0.0
C47 C 0.85998 0.36207 0.59475 0.0
N48 N 0.8713 0.32665 0.54688 0.0
N49 N 0.86015 0.33486 0.59544 0.0
N50 N 0.87111 0.37158 0.54597 0.0
H51 H 0.9044 0.35 0.47594 0.0
H52 H 0.8881 0.36629 0.42226 0.0
H53 H 0.88923 0.32974 0.42684 0.0
C54 C 0.89056 0.34873 0.45659 0.0
C55 C 0.85715 0.17625 0.58921 0.0
H56 H 0.85866 0.19365 0.62476 0.0
H57 H 0.85806 0.15704 0.61866 0.0
H58 H 0.84381 0.17743 0.56515 0.0
O59 O 0.84794 0.23611 0.5519 0.0
O60 O 0.84706 0.28046 0.55725 0.0
C61 C 0.8829 0.25888 0.66566 0.0
O62 O 0.86792 0.28953 0.42688 0.0
O63 O 0.86863 0.24514 0.42304 0.0
Zn64 Zn 0.13658 0.78656 0.45466 0.0
O65 O 0.10898 0.78913 0.4773 0.0
C66 C 0.14465 0.77134 0.59469 0.0
Zn67 Zn 0.13693 0.7416 0.46213 0.0
C68 C 0.10088 0.7669 0.48775 0.0
O69 O 0.10952 0.74483 0.48477 0.0
C70 C 0.17243 0.76053 0.42534 0.0
O71 O 0.13093 0.73537 0.35757 0.0
O72 O 0.13045 0.7798 0.35084 0.0
N73 N 0.13549 0.70143 0.48551 0.0
C74 C 0.14075 0.67814 0.45553 0.0
C75 C 0.13017 0.66811 0.55438 0.0
N76 N 0.12885 0.69504 0.54664 0.0
N77 N 0.13759 0.65697 0.49803 0.0
C78 C 0.131 0.84948 0.46274 0.0
C79 C 0.14847 0.86246 0.38261 0.0
N80 N 0.13822 0.8271 0.43435 0.0
N81 N 0.14899 0.83527 0.38444 0.0
N82 N 0.13724 0.87196 0.43103 0.0
H83 H 0.12002 0.83043 0.5536 0.0
H84 H 0.10473 0.8505 0.50444 0.0
H85 H 0.12113 0.86701 0.55696 0.0
C86 C 0.11862 0.84929 0.52331 0.0
C87 C 0.14967 0.67639 0.38663 0.0
H88 H 0.15574 0.69599 0.37206 0.0
H89 H 0.13958 0.67114 0.34725 0.0
H90 H 0.15996 0.6603 0.38687 0.0
O91 O 0.16415 0.73873 0.43853 0.0
O92 O 0.16423 0.78299 0.4301 0.0
C93 C 0.12895 0.75682 0.32215 0.0
O94 O 0.14269 0.79274 0.5593 0.0
O95 O 0.1431 0.74846 0.56587 0.0
Zn96 Zn 0.8755 0.78605 0.44545 0.0
O97 O 0.88175 0.7898 0.34067 0.0
C98 C 0.83963 0.76895 0.40932 0.0
Zn99 Zn 0.87473 0.74096 0.44022 0.0
C100 C 0.88324 0.76805 0.30625 0.0
O101 O 0.88118 0.74535 0.33599 0.0
C102 C 0.86691 0.75906 0.57944 0.0
O103 O 0.90212 0.73662 0.46372 0.0
O104 O 0.90281 0.78093 0.46845 0.0
N105 N 0.87182 0.70013 0.4254 0.0
C106 C 0.87869 0.67797 0.45617 0.0
C107 C 0.86066 0.66429 0.37916 0.0
N108 N 0.86068 0.69151 0.37749 0.0
N109 N 0.87191 0.65522 0.42786 0.0
C110 C 0.8712 0.84939 0.4367 0.0
C111 C 0.89054 0.86141 0.51069 0.0
N112 N 0.87871 0.82664 0.46184 0.0
N113 N 0.89068 0.83425 0.5078 0.0
N114 N 0.87839 0.87148 0.4668 0.0
H115 H 0.85914 0.83206 0.34645 0.0
H116 H 0.85874 0.86871 0.34969 0.0
H117 H 0.84414 0.84923 0.40409 0.0
C118 C 0.85759 0.84988 0.38057 0.0
C119 C 0.89124 0.67874 0.51595 0.0
H120 H 0.88992 0.69791 0.54494 0.0
H121 H 0.90508 0.67729 0.49635 0.0
H122 H 0.88879 0.66141 0.55112 0.0
O123 O 0.86825 0.73734 0.54492 0.0
O124 O 0.86917 0.78171 0.54979 0.0
C125 C 0.9108 0.75836 0.47318 0.0
O126 O 0.84832 0.79048 0.4214 0.0
O127 O 0.84736 0.74616 0.41519 0.0
Zn128 Zn 0.63684 0.78588 0.01984 0.0
O129 O 0.63095 0.79124 0.12459 0.0
C130 C 0.67256 0.76745 0.05523 0.0
Zn131 Zn 0.637 0.74086 0.02596 0.0
C132 C 0.62906 0.7696 0.15931 0.0
O133 O 0.63067 0.74678 0.12988 0.0
C134 C 0.64487 0.75721 0.88644 0.0
O135 O 0.60948 0.73779 0.00302 0.0
O136 O 0.60941 0.78215 -0.0018 0.0
N137 N 0.63901 0.70021 0.04455 0.0
C138 C 0.63201 0.67785 0.0154 0.0
C139 C 0.64941 0.66478 0.09531 0.0
N140 N 0.64974 0.69198 0.09429 0.0
N141 N 0.63835 0.65532 0.0465 0.0
C142 C 0.64061 0.84935 0.02869 0.0
C143 C 0.62794 0.8601 0.93441 0.0
N144 N 0.63485 0.82626 -0.00088 0.0
N145 N 0.62692 0.8331 0.94086 0.0
N146 N 0.63648 0.87092 -0.01131 0.0
H147 H 0.65664 0.83056 0.10778 0.0
H148 H 0.64167 0.85622 0.13713 0.0
H149 H 0.66152 0.86592 0.09135 0.0
C150 C 0.65084 0.85048 0.09475 0.0
C151 C 0.61975 0.67816 0.95473 0.0
H152 H 0.60582 0.67684 0.97344 0.0
H153 H 0.62237 0.66057 0.92072 0.0
H154 H 0.62117 0.69712 0.92485 0.0
O155 O 0.64333 0.7356 0.92135 0.0
O156 O 0.64287 0.77993 0.91575 0.0
C157 C 0.60108 0.75985 -0.00602 0.0
O158 O 0.66411 0.7891 0.04218 0.0
O159 O 0.66455 0.74485 0.05067 0.0
Zn160 Zn 0.37535 0.74206 0.03152 0.0
O161 O 0.38151 0.7379 0.13618 0.0
C162 C 0.33963 0.75934 0.06807 0.0
Zn163 Zn 0.37496 0.78718 0.03706 0.0
C164 C 0.38317 0.75959 0.17071 0.0
O165 O 0.38131 0.78236 0.14114 0.0
C166 C 0.36706 0.76953 0.89785 0.0
O167 O 0.40244 0.79144 0.01358 0.0
O168 O 0.40265 0.74713 0.00844 0.0
N169 N 0.37208 0.82796 0.05294 0.0
C170 C 0.3788 0.85032 0.02249 0.0
C171 C 0.3608 0.86347 0.10057 0.0
N172 N 0.36096 0.83626 0.10152 0.0
N173 N 0.37192 0.87289 0.05163 0.0
C174 C 0.3709 0.67856 0.03704 0.0
C175 C 0.39059 0.66726 0.96327 0.0
N176 N 0.37856 0.70154 0.01385 0.0
N177 N 0.39075 0.69437 0.96806 0.0
N178 N 0.37823 0.65674 0.00583 0.0
H179 H 0.35859 0.69491 0.12811 0.0
H180 H 0.35783 0.65833 0.12157 0.0
H181 H 0.34369 0.67896 0.06822 0.0
C182 C 0.35702 0.6776 0.09234 0.0
C183 C 0.39132 0.84992 0.96234 0.0
H184 H 0.40515 0.85157 0.98157 0.0
H185 H 0.3887 0.86728 0.92751 0.0
H186 H 0.39015 0.83077 0.93317 0.0
O187 O 0.3686 0.79119 0.93245 0.0
O188 O 0.36909 0.74681 0.92737 0.0
C189 C 0.4109 0.76948 0.00391 0.0
O190 O 0.34819 0.73769 0.05574 0.0
O191 O 0.34751 0.78203 0.06222 0.0
Zn192 Zn 0.63553 0.28665 0.94323 0.0
O193 O 0.60797 0.29056 0.96599 0.0
C194 C 0.64315 0.26938 0.08305 0.0
Zn195 Zn 0.63512 0.24159 0.94949 0.0
C196 C 0.59949 0.2686 0.97533 0.0
O197 O 0.60777 0.24627 0.97117 0.0
C198 C 0.67097 0.25919 0.91392 0.0
O199 O 0.62932 0.23703 0.8445 0.0
O200 O 0.62934 0.2815 0.83908 0.0
N201 N 0.63209 0.20111 0.96837 0.0
C202 C 0.64055 0.17824 0.94905 0.0
C203 C 0.62106 0.16722 0.02407 0.0
N204 N 0.61995 0.19409 0.01461 0.0
N205 N 0.63387 0.15672 0.98366 0.0
C206 C 0.63096 0.34951 0.95688 0.0
C207 C 0.64897 0.36328 0.87946 0.0
N208 N 0.63808 0.32739 0.92679 0.0
N209 N 0.6492 0.33605 0.8786 0.0
N210 N 0.63757 0.37229 0.92788 0.0
H211 H 0.61971 0.32965 0.04611 0.0
H212 H 0.60451 0.34994 -0.00295 0.0
H213 H 0.62063 0.36617 0.05148 0.0
C214 C 0.61833 0.34872 0.01669 0.0
C215 C 0.65636 0.17768 0.90209 0.0
H216 H 0.65482 0.19298 0.86068 0.0
H217 H 0.65841 0.15747 0.87888 0.0
H218 H 0.66837 0.18273 0.93248 0.0
O219 O 0.66237 0.23763 0.92674 0.0
O220 O 0.66309 0.28191 0.91865 0.0
C221 C 0.62762 0.25869 0.8097 0.0
O222 O 0.64175 0.291 0.04808 0.0
O223 O 0.64107 0.24665 0.05382 0.0
Zn224 Zn 0.37341 0.24231 0.9419 0.0
O225 O 0.40083 0.23833 0.96522 0.0
C226 C 0.36549 0.26038 0.08113 0.0
Zn227 Zn 0.3739 0.28743 0.94711 0.0
C228 C 0.40937 0.2602 0.97464 0.0
O229 O 0.40122 0.28264 0.97005 0.0
C230 C 0.33814 0.26989 0.91094 0.0
O231 O 0.38014 0.29119 0.84233 0.0
O232 O 0.37981 0.24673 0.83764 0.0
N233 N 0.37694 0.32805 0.96344 0.0
C234 C 0.36945 0.35078 0.93811 0.0
C235 C 0.38874 0.36287 0.01227 0.0
N236 N 0.38887 0.3357 0.00952 0.0
N237 N 0.37663 0.3729 0.96817 0.0
C238 C 0.37766 0.17937 0.95843 0.0
C239 C 0.35963 0.16537 0.88183 0.0
N240 N 0.3707 0.20141 0.92737 0.0
N241 N 0.35956 0.19258 0.8797 0.0
N242 N 0.37094 0.1565 0.93057 0.0
H243 H 0.38892 0.19961 0.04673 0.0
H244 H 0.40407 0.17889 -0.00162 0.0
H245 H 0.38784 0.16313 0.0536 0.0
C246 C 0.39025 0.18036 0.01809 0.0
C247 C 0.35587 0.35122 0.88189 0.0
H248 H 0.35742 0.33335 0.84793 0.0
H249 H 0.35705 0.37002 0.85087 0.0
H250 H 0.34241 0.35061 0.90532 0.0
O251 O 0.34671 0.29154 0.923 0.0
O252 O 0.346 0.24719 0.91692 0.0
C253 C 0.38175 0.26946 0.80791 0.0
O254 O 0.36698 0.23867 0.04663 0.0
O255 O 0.36759 0.28305 0.05144 0.0
H256 H 0.1919 0.31213 0.5779 0.0
H257 H 0.22024 0.31416 0.6391 0.0
H258 H 0.22154 0.22703 0.65013 0.0
H259 H 0.19312 0.22475 0.58961 0.0
H260 H 0.22656 0.25281 0.77737 0.0
H261 H 0.271 0.29603 0.5764 0.0
H262 H 0.25085 0.31469 0.5912 0.0
H263 H 0.24973 0.28106 0.55637 0.0
C264 C 0.19837 0.29336 0.59214 0.0
C265 C 0.19024 0.26826 0.57872 0.0
C266 C 0.2146 0.29457 0.62702 0.0
C267 C 0.22305 0.27074 0.64869 0.0
C268 C 0.21524 0.24565 0.63369 0.0
H269 H 0.31629 0.22736 0.88121 0.0
H270 H 0.2877 0.22876 0.82218 0.0
C271 C 0.19902 0.2444 0.59884 0.0
C272 C 0.23943 0.27194 0.69088 0.0
H273 H 0.28281 0.2923 0.68903 0.0
C274 C 0.23888 0.26137 0.75803 0.0
C275 C 0.25542 0.28334 0.6657 0.0
C276 C 0.25692 0.29424 0.59329 0.0
C277 C 0.25389 0.26197 0.80081 0.0
C278 C 0.26995 0.27303 0.77533 0.0
C279 C 0.27045 0.28391 0.70849 0.0
C280 C 0.28661 0.27245 0.81595 0.0
C281 C 0.25236 0.25105 0.8732 0.0
C282 C 0.29554 0.29657 0.83192 0.0
C283 C 0.31195 0.29586 0.86567 0.0
C284 C 0.3198 0.27097 0.88342 0.0
C285 C 0.31059 0.24689 0.86869 0.0
C286 C 0.2942 0.24763 0.83513 0.0
H287 H 0.23832 0.25058 0.89109 0.0
H288 H 0.25754 0.23003 0.87445 0.0
H289 H 0.26026 0.26339 0.9098 0.0
H290 H 0.28994 0.31593 0.81727 0.0
H291 H 0.31872 0.31476 0.87584 0.0
H292 H 0.6927 0.30136 0.87833 0.0
H293 H 0.72153 0.29896 0.82016 0.0
H294 H 0.71978 0.21183 0.82914 0.0
H295 H 0.69088 0.21396 0.88676 0.0
H296 H 0.7541 0.27422 0.85944 0.0
H297 H 0.72599 0.22838 0.622 0.0
H298 H 0.71224 0.24398 0.68721 0.0
H299 H 0.72112 0.21064 0.70067 0.0
C300 C 0.69851 0.28166 0.86863 0.0
C301 C 0.68939 0.25783 0.88684 0.0
C302 C 0.71498 0.28035 0.83528 0.0
C303 C 0.7226 0.25522 0.81918 0.0
C304 C 0.71394 0.23142 0.83988 0.0
H305 H 0.8197 0.21274 0.59731 0.0
H306 H 0.79121 0.21145 0.65873 0.0
C307 C 0.69747 0.23269 0.87331 0.0
C308 C 0.73944 0.25403 0.77951 0.0
H309 H 0.75719 0.23392 0.62562 0.0
C310 C 0.75479 0.26542 0.80834 0.0
C311 C 0.74027 0.24249 0.71287 0.0
C312 C 0.72402 0.23086 0.67839 0.0
C313 C 0.77102 0.26544 0.77245 0.0
C314 C 0.7718 0.25423 0.70545 0.0
C315 C 0.75651 0.24253 0.67694 0.0
C316 C 0.78833 0.25495 0.66387 0.0
C317 C 0.78725 0.27717 0.80686 0.0
C318 C 0.79579 0.27982 0.64433 0.0
C319 C 0.812 0.28065 0.60913 0.0
C320 C 0.82104 0.25658 0.5925 0.0
C321 C 0.81311 0.23164 0.60935 0.0
C322 C 0.79686 0.23085 0.6446 0.0
H323 H 0.78555 0.27849 0.86363 0.0
H324 H 0.79924 0.26481 0.79552 0.0
H325 H 0.7896 0.29792 0.78692 0.0
H326 H 0.78922 0.29863 0.65745 0.0
H327 H 0.81766 0.30021 0.59669 0.0
H328 H 0.32012 0.71446 0.10266 0.0
H329 H 0.29124 0.71326 0.16107 0.0
H330 H 0.28909 0.80044 0.15734 0.0
H331 H 0.31778 0.80188 0.09847 0.0
H332 H 0.28383 0.73671 0.28964 0.0
H333 H 0.23986 0.77882 0.08717 0.0
H334 H 0.26184 0.76597 0.06871 0.0
H335 H 0.25906 0.79926 0.10448 0.0
C336 C 0.31336 0.73336 0.11308 0.0
C337 C 0.32126 0.75827 0.09566 0.0
C338 C 0.29689 0.73263 0.14673 0.0
C339 C 0.28795 0.75674 0.16297 0.0
C340 C 0.2956 0.78158 0.14419 0.0
H341 H 0.19341 0.80321 0.3871 0.0
H342 H 0.22206 0.80144 0.32753 0.0
C343 C 0.31205 0.78235 0.11071 0.0
C344 C 0.27119 0.75611 0.2033 0.0
H345 H 0.22776 0.77613 0.20044 0.0
C346 C 0.27151 0.74509 0.27 0.0
C347 C 0.25518 0.76717 0.17759 0.0
C348 C 0.25385 0.77826 0.10533 0.0
C349 C 0.25635 0.74549 0.31241 0.0
C350 C 0.2404 0.75685 0.28696 0.0
C351 C 0.24004 0.76759 0.21999 0.0
C352 C 0.22386 0.75775 0.32863 0.0
C353 C 0.25766 0.73445 0.38471 0.0
C354 C 0.21548 0.73377 0.34979 0.0
C355 C 0.19912 0.73469 0.38413 0.0
C356 C 0.19078 0.75964 0.39751 0.0
C357 C 0.19947 0.78366 0.37788 0.0
C358 C 0.21582 0.7827 0.34358 0.0
H359 H 0.27169 0.73285 0.40204 0.0
H360 H 0.25024 0.74742 0.42159 0.0
H361 H 0.25174 0.7139 0.38628 0.0
H362 H 0.2213 0.71428 0.33773 0.0
H363 H 0.19274 0.7158 0.39801 0.0
H364 H 0.69251 0.81253 0.08226 0.0
H365 H 0.72102 0.81452 0.14228 0.0
H366 H 0.72242 0.72738 0.15243 0.0
H367 H 0.69384 0.72514 0.09311 0.0
H368 H 0.72772 0.75303 0.27973 0.0
H369 H 0.77165 0.7965 0.07741 0.0
H370 H 0.75151 0.81508 0.09318 0.0
H371 H 0.75035 0.78151 0.05805 0.0
C372 C 0.69903 0.79375 0.09608 0.0
C373 C 0.69089 0.76866 0.08278 0.0
C374 C 0.71536 0.79495 0.13026 0.0
C375 C 0.72389 0.77109 0.15135 0.0
C376 C 0.71606 0.74602 0.13644 0.0
H377 H 0.81756 0.7267 0.37947 0.0
H378 H 0.78885 0.72849 0.32143 0.0
C379 C 0.69975 0.74479 0.10229 0.0
C380 C 0.74038 0.77224 0.19291 0.0
H381 H 0.7838 0.79239 0.18938 0.0
C382 C 0.74 0.76158 0.25996 0.0
C383 C 0.75632 0.78363 0.16716 0.0
C384 C 0.75762 0.79465 0.09482 0.0
C385 C 0.75513 0.76202 0.30208 0.0
C386 C 0.77115 0.77302 0.276 0.0
C387 C 0.77147 0.78403 0.20929 0.0
C388 C 0.78793 0.7722 0.31583 0.0
C389 C 0.75378 0.75098 0.37441 0.0
C390 C 0.797 0.7962 0.33176 0.0
C391 C 0.81348 0.79527 0.36493 0.0
C392 C 0.82126 0.77027 0.38214 0.0
C393 C 0.81192 0.7463 0.36738 0.0
C394 C 0.79546 0.74728 0.33437 0.0
H395 H 0.73979 0.75062 0.39295 0.0
H396 H 0.75887 0.72991 0.37517 0.0
H397 H 0.76185 0.76318 0.41079 0.0
H398 H 0.79144 0.81565 0.31758 0.0
H399 H 0.82035 0.81408 0.37516 0.0
H400 H 0.16214 0.91058 0.43695 0.0
H401 H 0.15755 0.95912 0.45355 0.0
H402 H 0.10102 0.94593 0.47143 0.0
H403 H 0.10568 0.89711 0.45509 0.0
H404 H 0.13782 0.99292 0.3702 0.0
H405 H 0.11171 0.99369 0.63885 0.0
H406 H 0.12277 0.96459 0.60236 0.0
H407 H 0.10025 0.97222 0.57889 0.0
C408 C 0.14877 0.91805 0.4452 0.0
C409 C 0.1343 0.90011 0.44592 0.0
C410 C 0.14615 0.94573 0.45458 0.0
C411 C 0.12897 0.95614 0.46448 0.0
C412 C 0.11443 0.93828 0.46544 0.0
H413 H 0.10538 0.13031 0.5183 0.0
H414 H 0.10085 0.08185 0.49414 0.0
C415 C 0.11709 0.91042 0.45636 0.0
C416 C 0.12654 0.98583 0.47074 0.0
H417 H 0.1149 0.03589 0.58353 0.0
C418 C 0.13264 1.00229 0.4166 0.0
C419 C 0.11967 0.99802 0.53114 0.0
C420 C 0.11332 0.98132 0.59147 0.0
C421 C 0.13264 0.03058 0.42218 0.0
C422 C 0.12647 0.04271 0.48357 0.0
C423 C 0.11959 0.02641 0.5365 0.0
C424 C 0.12887 0.07199 0.49631 0.0
C425 C 0.13964 0.04733 0.36304 0.0
C426 C 0.14606 0.08226 0.50587 0.0
C427 C 0.14862 0.10968 0.51961 0.0
C428 C 0.13407 0.1274 0.52341 0.0
C429 C 0.11682 0.11714 0.51389 0.0
C430 C 0.11423 0.08953 0.50074 0.0
H431 H 0.13985 0.03569 0.3141 0.0
H432 H 0.13145 0.06582 0.35577 0.0
H433 H 0.15345 0.05378 0.37464 0.0
H434 H 0.1575 0.06896 0.50346 0.0
H435 H 0.16201 0.11713 0.52725 0.0
H436 H 0.9024 0.39745 0.52057 0.0
H437 H 0.90652 0.44639 0.50371 0.0
H438 H 0.84988 0.45824 0.52159 0.0
H439 H 0.84578 0.40958 0.53832 0.0
H440 H 0.89242 0.48276 0.40523 0.0
H441 H 0.86985 0.50892 0.66844 0.0
H442 H 0.87571 0.47484 0.64383 0.0
H443 H 0.85409 0.48823 0.62351 0.0
C444 C 0.89085 0.41049 0.51946 0.0
C445 C 0.87374 0.39976 0.53008 0.0
C446 C 0.89322 0.43842 0.51048 0.0
C447 C 0.87854 0.456 0.51271 0.0
C448 C 0.86144 0.44515 0.52127 0.0
H449 H 0.84657 0.61748 0.44178 0.0
H450 H 0.8507 0.56916 0.46529 0.0
C451 C 0.85909 0.41738 0.53042 0.0
C452 C 0.88084 0.48573 0.50647 0.0
H453 H 0.87014 0.5452 0.58601 0.0
C454 C 0.88786 0.49645 0.44517 0.0
C455 C 0.87502 0.50355 0.55895 0.0
C456 C 0.86842 0.49331 0.62767 0.0
C457 C 0.88821 0.52454 0.43341 0.0
C458 C 0.88148 0.54221 0.48445 0.0
C459 C 0.8752 0.53154 0.54686 0.0
C460 C 0.87936 0.57159 0.47176 0.0
C461 C 0.89494 0.53516 0.36531 0.0
C462 C 0.89412 0.58895 0.46841 0.0
C463 C 0.89174 0.61663 0.45542 0.0
C464 C 0.87459 0.62724 0.44568 0.0
C465 C 0.8599 0.60976 0.44938 0.0
C466 C 0.86225 0.58225 0.46283 0.0
H467 H 0.89808 0.51862 0.3285 0.0
H468 H 0.88489 0.54874 0.3417 0.0
H469 H 0.90718 0.54722 0.37385 0.0
H470 H 0.90743 0.58107 0.47542 0.0
H471 H 0.9033 0.62958 0.45122 0.0
H472 H 0.84607 0.89587 0.46291 0.0
H473 H 0.84041 0.94497 0.46152 0.0
H474 H 0.8969 0.95976 0.45395 0.0
H475 H 0.90248 0.91102 0.45464 0.0
H476 H 0.85354 0.98249 0.5625 0.0
H477 H 0.87704 1.00871 0.30041 0.0
H478 H 0.87097 0.97464 0.32484 0.0
H479 H 0.89253 0.98787 0.34653 0.0
C480 C 0.85718 0.90969 0.45886 0.0
C481 C 0.8747 0.89979 0.45756 0.0
C482 C 0.85397 0.93764 0.45878 0.0
C483 C 0.86824 0.95597 0.45663 0.0
C484 C 0.88569 0.946 0.45421 0.0
H485 H 0.9025 0.11561 0.50838 0.0
H486 H 0.89683 0.06702 0.49936 0.0
C487 C 0.88888 0.91822 0.45484 0.0
C488 C 0.86529 0.98555 0.46152 0.0
H489 H 0.87674 0.04491 0.38333 0.0
C490 C 0.8582 0.99623 0.52278 0.0
C491 C 0.87136 1.00335 0.40952 0.0
C492 C 0.87824 0.99308 0.34132 0.0
C493 C 0.85819 0.02427 0.53522 0.0
C494 C 0.86531 0.04189 0.48488 0.0
C495 C 0.87142 0.03128 0.4221 0.0
C496 C 0.8682 0.07105 0.49831 0.0
C497 C 0.85157 0.03481 0.60349 0.0
C498 C 0.85394 0.08935 0.50211 0.0
C499 C 0.85719 0.11722 0.50752 0.0
C500 C 0.87473 0.12703 0.50916 0.0
C501 C 0.88888 0.10851 0.5076 0.0
C502 C 0.88566 0.08082 0.50229 0.0
H503 H 0.84808 0.01822 0.63975 0.0
H504 H 0.86184 0.04783 0.62767 0.0
H505 H 0.83957 0.04745 0.59507 0.0
H506 H 0.84037 0.0822 0.49808 0.0
H507 H 0.84607 0.13111 0.50664 0.0
H508 H 0.13025 0.62495 0.3885 0.0
H509 H 0.13328 0.5754 0.38416 0.0
H510 H 0.15592 0.57578 0.58803 0.0
H511 H 0.153 0.62513 0.59214 0.0
H512 H 0.17324 0.53983 0.48611 0.0
H513 H 0.0999 0.52741 0.51012 0.0
H514 H 0.10767 0.54938 0.44247 0.0
H515 H 0.11105 0.55871 0.53076 0.0
C516 C 0.13632 0.61445 0.43137 0.0
C517 C 0.14154 0.62871 0.49044 0.0
C518 C 0.13787 0.58623 0.42922 0.0
C519 C 0.14469 0.57203 0.48606 0.0
C520 C 0.15063 0.5864 0.54373 0.0
H521 H 0.12983 0.40215 0.59102 0.0
H522 H 0.13343 0.45156 0.59758 0.0
C523 C 0.14894 0.61448 0.54607 0.0
C524 C 0.14466 0.54213 0.48774 0.0
H525 H 0.11697 0.48759 0.49899 0.0
C526 C 0.16097 0.52835 0.48872 0.0
C527 C 0.1286 0.52737 0.49257 0.0
C528 C 0.11077 0.54136 0.49448 0.0
C529 C 0.16162 0.49999 0.49305 0.0
C530 C 0.14555 0.48521 0.49635 0.0
C531 C 0.12926 0.49905 0.49653 0.0
C532 C 0.14524 0.4553 0.49621 0.0
C533 C 0.17945 0.48604 0.49466 0.0
C534 C 0.1508 0.44119 0.43741 0.0
C535 C 0.14874 0.41319 0.43375 0.0
C536 C 0.1412 0.39877 0.48892 0.0
C537 C 0.13607 0.41277 0.54862 0.0
C538 C 0.13799 0.44092 0.55209 0.0
H539 H 0.19033 0.50025 0.50829 0.0
H540 H 0.17937 0.46907 0.53221 0.0
H541 H 0.18237 0.47755 0.44296 0.0
H542 H 0.15612 0.45196 0.39331 0.0
H543 H 0.15264 0.40276 0.38705 0.0
H544 H 0.60696 0.63008 0.01963 0.0
H545 H 0.60248 0.58121 0.00296 0.0
H546 H 0.65888 0.56816 0.02542 0.0
H547 H 0.66333 0.61673 0.04184 0.0
H548 H 0.61708 0.54472 0.90534 0.0
H549 H 0.63737 0.51773 0.17046 0.0
H550 H 0.63191 0.55195 0.14553 0.0
H551 H 0.65361 0.53829 0.12737 0.0
C552 C 0.61839 0.61679 0.01962 0.0
C553 C 0.63552 0.62714 0.03135 0.0
C554 C 0.61581 0.58891 0.01076 0.0
C555 C 0.63032 0.57103 0.01426 0.0
C556 C 0.64745 0.5815 0.02411 0.0
H557 H 0.66266 0.41038 0.94158 0.0
H558 H 0.65819 0.45859 0.96536 0.0
C559 C 0.65 0.60922 0.03311 0.0
C560 C 0.62781 0.54138 0.00768 0.0
H561 H 0.63773 0.48165 0.08746 0.0
C562 C 0.62125 0.53089 0.94557 0.0
C563 C 0.63314 0.52339 0.06054 0.0
C564 C 0.63923 0.5334 0.12999 0.0
C565 C 0.62093 0.50284 0.93341 0.0
C566 C 0.62723 0.48501 0.98483 0.0
C567 C 0.633 0.49544 0.04805 0.0
C568 C 0.62954 0.45574 0.9717 0.0
C569 C 0.61473 0.49243 0.86455 0.0
C570 C 0.61489 0.4382 0.96808 0.0
C571 C 0.61745 0.41058 0.95493 0.0
C572 C 0.63469 0.40024 0.94529 0.0
C573 C 0.64927 0.4179 0.94909 0.0
C574 C 0.64673 0.44535 0.9627 0.0
H575 H 0.61156 0.50908 0.82809 0.0
H576 H 0.62513 0.47934 0.84119 0.0
H577 H 0.60264 0.47987 0.87187 0.0
H578 H 0.60152 0.4459 0.97506 0.0
H579 H 0.60599 0.39748 0.95065 0.0
H580 H 0.34639 0.91052 0.04238 0.0
H581 H 0.35021 0.95909 0.02314 0.0
H582 H 0.40696 0.94789 0.00758 0.0
H583 H 0.40309 0.89906 0.02654 0.0
H584 H 0.36899 0.99422 0.10504 0.0
H585 H 0.3962 0.99433 0.83818 0.0
H586 H 0.38557 0.96501 0.87551 0.0
H587 H 0.4079 0.97371 0.89944 0.0
C588 C 0.35965 0.91842 0.03398 0.0
C589 C 0.3744 0.90102 0.03472 0.0
C590 C 0.36183 0.94613 0.0231 0.0
C591 C 0.37885 0.95712 0.01312 0.0
C592 C 0.39367 0.93979 0.01354 0.0
H593 H 0.40236 0.1309 0.95311 0.0
H594 H 0.40653 0.08248 0.97868 0.0
C595 C 0.39146 0.91191 0.02412 0.0
C596 C 0.38084 0.98689 0.00563 0.0
H597 H 0.39278 0.03673 0.89234 0.0
C598 C 0.37433 1.00349 0.05871 0.0
C599 C 0.38792 0.99899 0.94538 0.0
C600 C 0.39469 0.98218 0.88602 0.0
C601 C 0.3742 0.03177 0.05237 0.0
C602 C 0.38065 0.0438 -0.00882 0.0
C603 C 0.38787 0.02737 0.93922 0.0
C604 C 0.37843 0.07313 0.97784 0.0
C605 C 0.36689 0.04861 0.11069 0.0
C606 C 0.36131 0.08375 0.96856 0.0
C607 C 0.35895 0.11117 0.95407 0.0
C608 C 0.37363 0.1286 0.94917 0.0
C609 C 0.39081 0.118 0.95844 0.0
C610 C 0.3932 0.09039 0.97237 0.0
H611 H 0.36663 0.03715 0.15995 0.0
H612 H 0.37489 0.06728 0.11783 0.0
H613 H 0.35306 0.05473 0.09833 0.0
H614 H 0.34976 0.07069 0.97163 0.0
H615 H 0.34561 0.11886 0.94655 0.0
H616 H 0.34438 0.39752 0.96402 0.0
H617 H 0.33889 0.44668 0.96251 0.0
H618 H 0.39543 0.461 0.95449 0.0
H619 H 0.40084 0.41222 0.95536 0.0
H620 H 0.35222 0.48405 0.06347 0.0
H621 H 0.3757 0.51022 0.80136 0.0
H622 H 0.3695 0.47619 0.82567 0.0
H623 H 0.39113 0.4892 0.8472 0.0
C624 C 0.35554 0.41125 0.95984 0.0
C625 C 0.37302 0.40121 0.95853 0.0
C626 C 0.35242 0.43924 0.95967 0.0
C627 C 0.36675 0.45745 0.95739 0.0
C628 C 0.38417 0.44733 0.95485 0.0
H629 H 0.40199 0.61649 0.01029 0.0
H630 H 0.39599 0.56801 0.0006 0.0
C631 C 0.38726 0.41953 0.95558 0.0
C632 C 0.36393 0.48706 0.96242 0.0
H633 H 0.37569 0.54635 0.88456 0.0
C634 C 0.35694 0.49777 0.0238 0.0
C635 C 0.37007 0.50484 0.91049 0.0
C636 C 0.37686 0.49455 0.84218 0.0
C637 C 0.35709 0.52579 0.03644 0.0
C638 C 0.3643 0.54337 0.98618 0.0
C639 C 0.3703 0.53275 0.92327 0.0
C640 C 0.36738 0.57247 -0.00015 0.0
C641 C 0.35058 0.53634 0.10485 0.0
C642 C 0.35325 0.59099 0.00402 0.0
C643 C 0.35669 0.6188 0.00979 0.0
C644 C 0.3743 0.62834 0.01147 0.0
C645 C 0.38832 0.6096 0.00949 0.0
C646 C 0.38491 0.58197 0.0038 0.0
H647 H 0.347 0.51976 0.141 0.0
H648 H 0.36094 0.54918 0.12905 0.0
H649 H 0.33865 0.54917 0.09663 0.0
H650 H 0.33963 0.58406 1e-05 0.0
H651 H 0.34566 0.63286 0.00922 0.0
H652 H 0.64177 0.12781 0.09605 0.0
H653 H 0.64661 0.07878 0.10225 0.0
H654 H 0.64223 0.07356 0.88127 0.0
H655 H 0.63692 0.12262 0.87528 0.0
H656 H 0.61921 0.04133 0.04019 0.0
H657 H 0.68818 0.02722 0.94166 0.0
H658 H 0.6809 0.05835 0.98175 0.0
H659 H 0.67386 0.05032 0.89604 0.0
C660 C 0.64224 0.11619 0.04881 0.0
C661 C 0.6394 0.12893 0.98508 0.0
C662 C 0.64499 0.08831 0.05237 0.0
C663 C 0.645 0.07272 -0.00783 0.0
C664 C 0.64264 0.08543 0.92812 0.0
H665 H 0.6461 0.9047 0.88717 0.0
H666 H 0.64936 0.95378 0.89386 0.0
C667 C 0.63976 0.11339 0.92462 0.0
C668 C 0.64557 0.04291 -0.0028 0.0
H669 H 0.67125 0.98769 0.96226 0.0
C670 C 0.63061 0.02952 0.02371 0.0
C671 C 0.66044 0.02779 0.97522 0.0
C672 C 0.67686 0.04151 0.94733 0.0
C673 C 0.6299 1.00119 0.02702 0.0
C674 C 0.64481 0.98591 0.00519 0.0
C675 C 0.6599 0.99942 0.97953 0.0
C676 C 0.64446 0.95591 0.0036 0.0
C677 C 0.61288 0.98795 0.05102 0.0
C678 C 0.64106 0.94067 0.06339 0.0
C679 C 0.63895 0.91256 0.05945 0.0
C680 C 0.64058 0.89923 -0.00415 0.0
C681 C 0.64475 0.91447 0.93681 0.0
C682 C 0.6467 0.94248 0.94063 0.0
H683 H 0.60143 1.00215 0.04909 0.0
H684 H 0.60967 0.96999 0.01908 0.0
H685 H 0.61445 0.98121 0.10519 0.0
H686 H 0.63957 0.95059 0.11277 0.0
H687 H 0.63529 0.90156 0.10547 0.0
H688 H 0.15431 0.29766 0.29618 0.0
H689 H 0.15195 0.29892 0.17099 0.0
H690 H 0.13659 0.21483 0.16951 0.0
H691 H 0.13877 0.21337 0.2955 0.0
H692 H 0.16739 0.26677 0.0624 0.0
H693 H 0.09383 0.25708 0.08415 0.0
H694 H 0.10773 0.26529 0.15685 0.0
H695 H 0.10668 0.23113 0.12576 0.0
C696 C 0.15073 0.27927 0.26921 0.0
C697 C 0.14649 0.2555 0.30551 0.0
C698 C 0.14941 0.28005 0.19777 0.0
C699 C 0.14376 0.25713 0.16166 0.0
C700 C 0.14071 0.23281 0.19708 0.0
H701 H 0.11837 0.22919 0.73841 0.0
H702 H 0.12094 0.22787 0.86353 0.0
C703 C 0.14209 0.23196 0.26878 0.0
C704 C 0.13992 0.25948 0.08763 0.0
H705 H 0.10587 0.25982 0.97195 0.0
C706 C 0.15397 0.26525 0.04241 0.0
C707 C 0.12234 0.25773 0.06245 0.0
C708 C 0.10671 0.25269 0.1097 0.0
C709 C 0.15092 0.26883 0.97187 0.0
C710 C 0.13333 0.26711 0.94668 0.0
C711 C 0.11929 0.26134 -0.00808 0.0
C712 C 0.12947 0.2695 0.87268 0.0
C713 C 0.16656 0.27383 0.92461 0.0
C714 C 0.13265 0.29377 0.8372 0.0
C715 C 0.13115 0.29465 0.76554 0.0
C716 C 0.1265 0.2712 0.7289 0.0
C717 C 0.12214 0.2475 0.7653 0.0
C718 C 0.12358 0.24669 0.83669 0.0
H719 H 0.17943 0.26926 0.95006 0.0
H720 H 0.16548 0.26133 0.87729 0.0
H721 H 0.16667 0.29542 0.90885 0.0
H722 H 0.13692 0.31169 0.86467 0.0
H723 H 0.13456 0.31319 0.73875 0.0
H724 H 0.85849 0.2252 0.30989 0.0
H725 H 0.86061 0.22387 0.18452 0.0
H726 H 0.87204 0.30938 0.18045 0.0
H727 H 0.86984 0.31104 0.30631 0.0
H728 H 0.84791 0.28841 0.07302 0.0
H729 H 0.91153 0.23174 0.09825 0.0
H730 H 0.89288 0.21778 0.1442 0.0
H731 H 0.90164 0.25013 0.16896 0.0
C732 C 0.86114 0.24384 0.28232 0.0
C733 C 0.86427 0.26816 0.31778 0.0
C734 C 0.86239 0.243 0.21088 0.0
C735 C 0.86686 0.26639 0.17406 0.0
C736 C 0.86871 0.29111 0.2086 0.0
H737 H 0.89038 0.30136 0.7495 0.0
H738 H 0.8877 0.30253 0.87472 0.0
C739 C 0.86741 0.29203 0.28026 0.0
C740 C 0.8708 0.26458 0.10013 0.0
H741 H 0.90035 0.23776 0.98543 0.0
C742 C 0.85938 0.27744 0.05367 0.0
C743 C 0.88581 0.25021 0.07577 0.0
C744 C 0.89878 0.23683 0.12427 0.0
C745 C 0.86244 0.27593 0.98266 0.0
C746 C 0.87747 0.2616 0.95833 0.0
C747 C 0.88888 0.24871 0.00478 0.0
C748 C 0.88152 0.25997 0.88447 0.0
C749 C 0.84946 0.28927 0.9341 0.0
C750 C 0.8799 0.23527 0.84965 0.0
C751 C 0.88152 0.23444 0.77809 0.0
C752 C 0.88478 0.25836 0.74094 0.0
C753 C 0.88765 0.28267 0.77675 0.0
C754 C 0.88606 0.28343 0.84811 0.0
H755 H 0.83669 0.29425 0.96005 0.0
H756 H 0.85533 0.30837 0.91433 0.0
H757 H 0.84667 0.27598 0.88931 0.0
H758 H 0.87654 0.21694 0.87747 0.0
H759 H 0.87927 0.21543 0.75177 0.0
H760 H 0.11733 0.79708 0.23859 0.0
H761 H 0.11926 0.79874 0.11326 0.0
H762 H 0.13853 0.71652 0.11016 0.0
H763 H 0.13642 0.71453 0.23603 0.0
H764 H 0.15193 0.79217 0.04619 0.0
H765 H 0.10171 0.71818 0.95391 0.0
H766 H 0.10127 0.73209 0.0399 0.0
H767 H 0.11663 0.70553 0.01851 0.0
C768 C 0.1216 0.77912 0.21117 0.0
C769 C 0.12684 0.75571 0.24693 0.0
C770 C 0.12271 0.78014 0.13967 0.0
C771 C 0.12903 0.75779 0.10277 0.0
C772 C 0.13338 0.73385 0.13789 0.0
H773 H 0.15613 0.73092 0.678 0.0
H774 H 0.15424 0.72918 0.80333 0.0
C775 C 0.13218 0.73274 0.20966 0.0
C776 C 0.13271 0.76058 0.02853 0.0
H777 H 0.12174 0.7358 0.87068 0.0
C778 C 0.14529 0.77995 0.00764 0.0
C779 C 0.12405 0.7445 0.97887 0.0
C780 C 0.11005 0.72405 -0.00137 0.0
C781 C 0.14962 0.78345 0.938 0.0
C782 C 0.14096 0.76739 0.88833 0.0
C783 C 0.12838 0.74802 0.90923 0.0
C784 C 0.14462 0.77021 0.81408 0.0
C785 C 0.16364 0.8039 0.91828 0.0
C786 C 0.14035 0.79421 0.77909 0.0
C787 C 0.14154 0.79536 0.70731 0.0
C788 C 0.14679 0.77238 0.66991 0.0
C789 C 0.15195 0.7489 0.70553 0.0
C790 C 0.15085 0.74783 0.77703 0.0
H791 H 0.17203 0.80965 0.96297 0.0
H792 H 0.17237 0.79591 0.8768 0.0
H793 H 0.15707 0.82247 0.89872 0.0
H794 H 0.13526 0.81156 0.80692 0.0
H795 H 0.13735 0.81363 0.68106 0.0
H796 H 0.85965 0.80135 0.66436 0.0
H797 H 0.86196 0.80191 0.78965 0.0
H798 H 0.87199 0.71597 0.79023 0.0
H799 H 0.86986 0.71516 0.66437 0.0
H800 H 0.84442 0.7712 0.89768 0.0
H801 H 0.91719 0.75211 0.87579 0.0
H802 H 0.90383 0.76262 0.80339 0.0
H803 H 0.90294 0.72823 0.83312 0.0
C804 C 0.86205 0.78246 0.69115 0.0
C805 C 0.86484 0.75827 0.65468 0.0
C806 C 0.86333 0.78284 0.7626 0.0
C807 C 0.86748 0.75909 0.79842 0.0
C808 C 0.86905 0.73454 0.76282 0.0
H809 H 0.89069 0.72583 0.22135 0.0
H810 H 0.88814 0.72513 0.09616 0.0
C811 C 0.86771 0.7341 0.69119 0.0
C812 C 0.8714 0.76058 0.87236 0.0
H813 H 0.90528 0.75562 -0.01192 0.0
C814 C 0.85769 0.76781 0.91768 0.0
C815 C 0.88881 0.75634 0.89747 0.0
C816 C 0.90412 0.7496 0.85004 0.0
C817 C 0.86088 0.77045 -0.01167 0.0
C818 C 0.87829 0.76623 0.01342 0.0
C819 C 0.892 0.759 0.9681 0.0
C820 C 0.88225 0.76782 0.08732 0.0
C821 C 0.84556 0.77715 0.03576 0.0
C822 C 0.88057 0.79238 0.12284 0.0
C823 C 0.88205 0.7929 0.19442 0.0
C824 C 0.88519 0.76882 0.23097 0.0
C825 C 0.88809 0.74465 0.19455 0.0
C826 C 0.88666 0.74418 0.12314 0.0
H827 H 0.83249 0.77444 0.01013 0.0
H828 H 0.84592 0.76426 0.08262 0.0
H829 H 0.84665 0.79858 0.0523 0.0
H830 H 0.87745 0.81088 0.09543 0.0
H831 H 0.8798 0.81183 0.2212 0.0
H832 H 0.63516 0.8123 0.24556 0.0
H833 H 0.63758 0.81021 0.37139 0.0
H834 H 0.62118 0.7266 0.36804 0.0
H835 H 0.61882 0.72836 0.24283 0.0
H836 H 0.61261 0.79274 0.47977 0.0
H837 H 0.67228 0.727 0.45278 0.0
H838 H 0.6635 0.74671 0.38225 0.0
H839 H 0.65283 0.71572 0.40749 0.0
C840 C 0.63169 0.79367 0.27183 0.0
C841 C 0.62706 0.77037 0.23456 0.0
C842 C 0.63314 0.79249 0.34345 0.0
C843 C 0.62995 0.76807 0.37814 0.0
C844 C 0.62403 0.74543 0.34159 0.0
H845 H 0.63914 0.71442 0.80008 0.0
H846 H 0.63675 0.71652 0.67422 0.0
C847 C 0.62264 0.74653 0.27024 0.0
C848 C 0.63384 0.76564 0.45199 0.0
H849 H 0.6614 0.73409 0.56595 0.0
C850 C 0.6233 0.78004 0.49881 0.0
C851 C 0.64781 0.74899 0.47597 0.0
C852 C 0.65988 0.73386 0.42711 0.0
C853 C 0.6262 0.77784 0.56976 0.0
C854 C 0.64018 0.76119 0.59376 0.0
C855 C 0.65071 0.74679 0.54693 0.0
C856 C 0.64407 0.75879 0.66762 0.0
C857 C 0.6141 0.79295 0.61858 0.0
C858 C 0.64983 0.7815 0.70428 0.0
C859 C 0.65119 0.78039 0.77563 0.0
C860 C 0.64693 0.75647 0.81122 0.0
C861 C 0.64249 0.7331 0.77386 0.0
C862 C 0.64105 0.73429 0.70223 0.0
H863 H 0.60166 0.79964 0.59296 0.0
H864 H 0.61057 0.78017 0.66365 0.0
H865 H 0.62109 0.8112 0.63784 0.0
H866 H 0.65256 0.80039 0.6779 0.0
H867 H 0.65486 0.79862 0.80312 0.0
H868 H 0.35914 0.7275 0.8132 0.0
H869 H 0.36143 0.72681 0.68787 0.0
H870 H 0.37277 0.81237 0.68684 0.0
H871 H 0.37067 0.8133 0.81276 0.0
H872 H 0.34436 0.758 0.58016 0.0
H873 H 0.41739 0.77464 0.60033 0.0
H874 H 0.40389 0.76467 0.67309 0.0
H875 H 0.40349 0.79904 0.64312 0.0
C876 C 0.36183 0.74629 0.78631 0.0
C877 C 0.36499 0.77039 0.82266 0.0
C878 C 0.3631 0.74584 0.71483 0.0
C879 C 0.3676 0.76941 0.67885 0.0
C880 C 0.36955 0.79392 0.71436 0.0
H881 H 0.39129 0.80153 0.25537 0.0
H882 H 0.38876 0.80236 0.3806 0.0
C883 C 0.36823 0.79443 0.78603 0.0
C884 C 0.37149 0.76774 0.60482 0.0
H885 H 0.40542 0.77139 0.48834 0.0
C886 C 0.35767 0.76092 0.55985 0.0
C887 C 0.38895 0.77135 0.5793 0.0
C888 C 0.40436 0.77762 0.62634 0.0
C889 C 0.36082 0.75808 0.48916 0.0
C890 C 0.37829 0.76166 0.46365 0.0
C891 C 0.3921 0.76848 0.50863 0.0
C892 C 0.38221 0.75989 0.38966 0.0
C893 C 0.3454 0.75185 0.44211 0.0
C894 C 0.38015 0.73539 0.35422 0.0
C895 C 0.38161 0.73479 0.28259 0.0
C896 C 0.38512 0.75874 0.24594 0.0
C897 C 0.3884 0.78281 0.28226 0.0
C898 C 0.38698 0.78335 0.35369 0.0
H899 H 0.33238 0.75503 0.46801 0.0
H900 H 0.34594 0.76468 0.39515 0.0
H901 H 0.34618 0.73037 0.4257 0.0
H902 H 0.37675 0.71702 0.38174 0.0
H903 H 0.37907 0.71595 0.25589 0.0
H904 H 0.63884 0.31287 0.16835 0.0
H905 H 0.63729 0.31183 0.29443 0.0
H906 H 0.65011 0.22674 0.29267 0.0
H907 H 0.65183 0.22758 0.16736 0.0
H908 H 0.61235 0.27716 0.36204 0.0
H909 H 0.68161 0.25751 0.44722 0.0
H910 H 0.67639 0.2711 0.36324 0.0
H911 H 0.67393 0.23552 0.37995 0.0
C912 C 0.6418 0.29414 0.19499 0.0
C913 C 0.64534 0.27027 0.1582 0.0
C914 C 0.64085 0.29356 0.26679 0.0
C915 C 0.64368 0.26924 0.30239 0.0
C916 C 0.64815 0.24576 0.26597 0.0
H917 H 0.6324 0.21534 0.72429 0.0
H918 H 0.63411 0.2165 0.59826 0.0
C919 C 0.64902 0.24627 0.1944 0.0
C920 C 0.64002 0.26749 0.37669 0.0
H921 H 0.65877 0.25114 0.53071 0.0
C922 C 0.6225 0.27171 0.39916 0.0
C923 C 0.6533 0.26001 0.4243 0.0
C924 C 0.6724 0.25598 0.40272 0.0
C925 C 0.61782 0.26828 0.46843 0.0
C926 C 0.63109 0.26081 0.51606 0.0
C927 C 0.64862 0.2566 0.49359 0.0
C928 C 0.62741 0.25898 0.59034 0.0
C929 C 0.59869 0.27224 0.48992 0.0
C930 C 0.62271 0.28235 0.62678 0.0
C931 C 0.62172 0.28176 0.69832 0.0
C932 C 0.62553 0.25781 0.7345 0.0
C933 C 0.62933 0.23404 0.69767 0.0
C934 C 0.63038 0.23468 0.62591 0.0
H935 H 0.5895 0.27052 0.44543 0.0
H936 H 0.59474 0.2572 0.52967 0.0
H937 H 0.5971 0.29275 0.51228 0.0
H938 H 0.62065 0.30136 0.60014 0.0
H939 H 0.61872 0.30039 0.72537 0.0
H940 H 0.35802 0.30258 0.16609 0.0
H941 H 0.36037 0.30316 0.29136 0.0
H942 H 0.37091 0.21736 0.29187 0.0
H943 H 0.36874 0.21652 0.16604 0.0
H944 H 0.34302 0.27221 0.39936 0.0
H945 H 0.4159 0.25409 0.37743 0.0
H946 H 0.40248 0.26443 0.30505 0.0
H947 H 0.40179 0.23003 0.33474 0.0
C948 C 0.36054 0.28372 0.19286 0.0
C949 C 0.36346 0.25956 0.15637 0.0
C950 C 0.36185 0.28411 0.2643 0.0
C951 C 0.36615 0.26042 0.30009 0.0
C952 C 0.36785 0.23589 0.26449 0.0
H953 H 0.38944 0.22733 0.72301 0.0
H954 H 0.38694 0.22663 0.59779 0.0
C955 C 0.36649 0.23543 0.19286 0.0
C956 C 0.37007 0.26195 0.37403 0.0
H957 H 0.40397 0.2574 0.48974 0.0
C958 C 0.35631 0.26898 0.41935 0.0
C959 C 0.3875 0.25793 0.39912 0.0
C960 C 0.40284 0.2514 0.35168 0.0
C961 C 0.35949 0.27164 0.49 0.0
C962 C 0.37692 0.26765 0.51509 0.0
C963 C 0.39067 0.26061 0.46976 0.0
C964 C 0.38087 0.26927 0.58899 0.0
C965 C 0.34413 0.27813 0.53744 0.0
C966 C 0.37906 0.2938 0.62453 0.0
C967 C 0.38049 0.29432 0.69612 0.0
C968 C 0.38373 0.27026 0.73265 0.0
C969 C 0.38676 0.24613 0.69621 0.0
C970 C 0.38536 0.24567 0.6248 0.0
H971 H 0.33108 0.27528 0.51179 0.0
H972 H 0.34456 0.26522 0.58426 0.0
H973 H 0.3451 0.29956 0.55407 0.0
H974 H 0.37586 0.31227 0.59712 0.0
H975 H 0.37815 0.31321 0.72291 0.0
H976 H 0.07782 0.21694 0.48074 0.0
H977 H 0.0454 0.21819 0.46882 0.0
H978 H 0.04702 0.30531 0.45707 0.0
H979 H 0.07929 0.30428 0.46764 0.0
H980 H 0.02241 0.24274 0.5589 0.0
H981 H 0.01419 0.28702 0.2985 0.0
H982 H 0.03507 0.27326 0.3281 0.0
H983 H 0.02832 0.30676 0.35325 0.0
C984 C 0.07129 0.23633 0.47458 0.0
C985 C 0.08115 0.2605 0.47522 0.0
C986 C 0.05278 0.23701 0.46779 0.0
C987 C 0.04382 0.26182 0.46108 0.0
C988 C 0.05367 0.28591 0.46051 0.0
H989 H 0.93321 0.31214 0.49408 0.0
H990 H 0.96572 0.31082 0.48134 0.0
C991 C 0.07213 0.28526 0.46713 0.0
C992 C 0.02412 0.26276 0.46054 0.0
H993 H 0.9883 0.28618 0.37028 0.0
C994 C 0.01495 0.252 0.51734 0.0
C995 C 0.01442 0.27507 0.40649 0.0
C996 C 0.02349 0.28596 0.34283 0.0
C997 C 0.99638 0.25362 0.52219 0.0
C998 C 0.98671 0.26605 0.46843 0.0
C999 C 0.99581 0.27679 0.41151 0.0
C1000 C 0.96707 0.26731 0.47014 0.0
C1001 C 0.98724 0.24242 0.5854 0.0
C1002 C 0.95715 0.24339 0.46617 0.0
C1003 C 0.93871 0.24406 0.47341 0.0
C1004 C 0.92978 0.26871 0.48463 0.0
C1005 C 0.9397 0.29284 0.48582 0.0
C1006 C 0.95823 0.29213 0.47848 0.0
H1007 H 0.99672 0.23901 0.62836 0.0
H1008 H 0.9766 0.25633 0.60332 0.0
H1009 H 0.98099 0.22274 0.57247 0.0
H1010 H 0.96373 0.22411 0.45877 0.0
H1011 H 0.9315 0.2251 0.47155 0.0
H1012 H 0.93282 0.7142 0.48378 0.0
H1013 H 0.96514 0.71434 0.50041 0.0
H1014 H 0.96474 0.80155 0.50864 0.0
H1015 H 0.93262 0.80163 0.49337 0.0
H1016 H 0.98969 0.73756 0.41411 0.0
H1017 H 0.99519 0.78296 0.67392 0.0
H1018 H 0.97453 0.76972 0.64087 0.0
H1019 H 0.98198 0.80297 0.61629 0.0
C1020 C 0.9396 0.73337 0.49005 0.0
C1021 C 0.93014 0.75789 0.48723 0.0
C1022 C 0.95805 0.73342 0.49955 0.0
C1023 C 0.96731 0.75794 0.50687 0.0
C1024 C 0.95785 0.78237 0.50486 0.0
H1025 H 0.0773 0.8094 0.48856 0.0
H1026 H 0.04477 0.80682 0.49753 0.0
C1027 C 0.93946 0.78236 0.49552 0.0
C1028 C 0.98698 0.75826 0.51113 0.0
H1029 H 0.02184 0.78211 0.60599 0.0
C1030 C 0.99673 0.74701 0.45647 0.0
C1031 C 0.99613 0.77075 0.56627 0.0
C1032 C 0.98642 0.78205 0.62798 0.0
C1033 C 0.01534 0.74854 0.4545 0.0
C1034 C 0.02445 0.7614 0.50904 0.0
C1035 C 0.01477 0.77241 0.56411 0.0
C1036 C 0.04407 0.76331 0.50956 0.0
C1037 C 0.02512 0.737 0.39322 0.0
C1038 C 0.05437 0.73979 0.51528 0.0
C1039 C 0.07285 0.74117 0.51022 0.0
C1040 C 0.08142 0.76614 0.49947 0.0
C1041 C 0.0711 0.78986 0.49654 0.0
C1042 C 0.05255 0.78843 0.50171 0.0
H1043 H 0.01607 0.73301 0.34925 0.0
H1044 H 0.03579 0.75098 0.37585 0.0
H1045 H 0.03144 0.71757 0.40817 0.0
H1046 H 0.04806 0.72027 0.52236 0.0
H1047 H 0.08038 0.72252 0.51329 0.0
H1048 H 0.57836 0.71646 0.98642 0.0
H1049 H 0.54592 0.7177 0.97447 0.0
H1050 H 0.54751 0.80485 0.96438 0.0
H1051 H 0.57976 0.80384 0.97499 0.0
H1052 H 0.52282 0.74197 0.06469 0.0
H1053 H 0.51482 0.78703 0.80512 0.0
H1054 H 0.53567 0.77319 0.83471 0.0
H1055 H 0.52892 0.80665 0.86027 0.0
C1056 C 0.57182 0.73585 0.98063 0.0
C1057 C 0.58165 0.76004 0.98172 0.0
C1058 C 0.5533 0.73653 0.97382 0.0
C1059 C 0.54433 0.76135 0.96752 0.0
C1060 C 0.55416 0.78545 0.96748 0.0
H1061 H 0.43398 0.81267 0.0007 0.0
H1062 H 0.46648 0.81092 -0.0118 0.0
C1063 C 0.57262 0.78481 0.97414 0.0
C1064 C 0.52462 0.76231 0.96678 0.0
H1065 H 0.4889 0.78632 0.8769 0.0
C1066 C 0.5154 0.75142 0.02329 0.0
C1067 C 0.51498 0.77485 0.91293 0.0
C1068 C 0.52409 0.78587 0.84951 0.0
C1069 C 0.49684 0.75318 0.02813 0.0
C1070 C 0.48722 0.7659 0.97464 0.0
C1071 C 0.49637 0.77673 0.91795 0.0
C1072 C 0.46758 0.76742 0.97641 0.0
C1073 C 0.48764 0.74187 0.09109 0.0
C1074 C 0.45752 0.74365 0.97205 0.0
C1075 C 0.43908 0.74455 0.97915 0.0
C1076 C 0.43029 0.76931 -0.00938 0.0
C1077 C 0.44035 0.79329 -0.00775 0.0
C1078 C 0.45889 0.79234 0.98505 0.0
H1079 H 0.4971 0.73821 0.13397 0.0
H1080 H 0.47706 0.75583 0.10932 0.0
H1081 H 0.4813 0.7223 0.07772 0.0
H1082 H 0.46399 0.72429 0.9644 0.0
H1083 H 0.43176 0.7257 0.97695 0.0
H1084 H 0.4318 0.21646 0.98308 0.0
H1085 H 0.46419 0.21722 -0.00287 0.0
H1086 H 0.46305 0.30437 0.00788 0.0
H1087 H 0.43086 0.30383 -0.00481 0.0
H1088 H 0.48782 0.24142 0.90863 0.0
H1089 H 0.49491 0.28575 0.16915 0.0
H1090 H 0.47413 0.27221 0.13807 0.0
H1091 H 0.48112 0.30568 0.11343 0.0
C1092 C 0.43843 0.23574 -0.01055 0.0
C1093 C 0.42874 0.26007 -0.01206 0.0
C1094 C 0.45692 0.23615 -0.00254 0.0
C1095 C 0.466 0.26084 0.00458 0.0
C1096 C 0.45631 0.28507 0.00418 0.0
H1097 H 0.5764 0.31177 0.97736 0.0
H1098 H 0.54386 0.31001 -0.01168 0.0
C1099 C 0.43788 0.2847 -0.00369 0.0
C1100 C 0.48569 0.26155 0.00663 0.0
H1101 H 0.5211 0.28518 0.09878 0.0
C1102 C 0.4951 0.25073 0.95056 0.0
C1103 C 0.49515 0.2739 0.06117 0.0
C1104 C 0.48582 0.28482 0.12418 0.0
C1105 C 0.51369 0.25241 0.9468 0.0
C1106 C 0.52312 0.26499 0.00092 0.0
C1107 C 0.51377 0.2757 0.05723 0.0
C1108 C 0.54275 0.26651 0.00017 0.0
C1109 C 0.5231 0.2412 0.88427 0.0
C1110 C 0.5528 0.24273 0.00507 0.0
C1111 C 0.57126 0.24365 -0.00114 0.0
C1112 C 0.58007 0.26841 -0.01225 0.0
C1113 C 0.57001 0.29239 0.98557 0.0
C1114 C 0.55145 0.29143 -0.00811 0.0
H1115 H 0.51379 0.23756 0.8409 0.0
H1116 H 0.53372 0.25522 0.8666 0.0
H1117 H 0.52944 0.22164 0.8979 0.0
H1118 H 0.54631 0.22337 0.01243 0.0
H1119 H 0.57858 0.2248 0.00145 0.0
loop_
_geom_bond_atom_site_label_1
_geom_bond_atom_site_label_2
_geom_bond_distance
_geom_bond_site_symmetry_2
_ccdc_geom_bond_type
Zn0 O1 2.055 . S
Zn0 O8 2.046 . S
Zn0 N16 2.036 . S
Zn0 O28 2.053 . S
Zn0 O30 2.066 . S
O1 Zn0 2.055 . S
O1 C4 1.259 . S
C2 O30 1.256 . S
C2 O31 1.244 . S
Zn3 O5 2.046 . S
Zn3 O7 2.055 . S
Zn3 N9 2.036 . S
Zn3 O27 2.066 . S
Zn3 O31 2.053 . S
C4 O1 1.259 . S
C4 O5 1.254 . S
O5 Zn3 2.046 . S
O5 C4 1.254 . S
C6 O27 1.256 . S
C6 O28 1.244 . S
O7 Zn3 2.055 . S
O7 C29 1.259 . S
O8 Zn0 2.046 . S
O8 C29 1.254 . S
N9 Zn3 2.036 . S
N9 C10 1.298 . S
N9 N12 1.398 . S
C10 N9 1.298 . S
C10 N13 1.367 . S
C10 C23 1.481 . S
C11 N12 1.299 . S
C11 N13 1.379 . S
N12 N9 1.398 . S
N12 C11 1.299 . S
N13 C10 1.367 . S
N13 C11 1.379 . S
C14 N16 1.298 . S
C14 N18 1.367 . S
C14 C22 1.481 . S
C15 N17 1.299 . S
C15 N18 1.379 . S
N16 Zn0 2.036 . S
N16 C14 1.298 . S
N16 N17 1.398 . S
N17 C15 1.299 . S
N17 N16 1.398 . S
N18 C14 1.367 . S
N18 C15 1.379 . S
H19 C22 0.980 . S
H20 C22 0.981 . S
H21 C22 0.981 . S
C22 C14 1.481 . S
C22 H19 0.980 . S
C22 H20 0.981 . S
C22 H21 0.981 . S
C23 C10 1.481 . S
C23 H24 0.980 . S
C23 H25 0.981 . S
C23 H26 0.981 . S
H24 C23 0.980 . S
H25 C23 0.981 . S
H26 C23 0.981 . S
O27 Zn3 2.066 . S
O27 C6 1.256 . S
O28 Zn0 2.053 . S
O28 C6 1.244 . S
C29 O7 1.259 . S
C29 O8 1.254 . S
O30 Zn0 2.066 . S
O30 C2 1.256 . S
O31 C2 1.244 . S
O31 Zn3 2.053 . S
Zn32 O33 2.055 . S
Zn32 O40 2.046 . S
Zn32 N48 2.036 . S
Zn32 O60 2.053 . S
Zn32 O62 2.066 . S
O33 Zn32 2.055 . S
O33 C36 1.259 . S
C34 O62 1.256 . S
C34 O63 1.244 . S
Zn35 O37 2.046 . S
Zn35 O39 2.055 . S
Zn35 N41 2.036 . S
Zn35 O59 2.066 . S
Zn35 O63 2.053 . S
C36 O33 1.259 . S
C36 O37 1.254 . S
O37 Zn35 2.046 . S
O37 C36 1.254 . S
C38 O59 1.256 . S
C38 O60 1.244 . S
O39 Zn35 2.055 . S
O39 C61 1.259 . S
O40 Zn32 2.046 . S
O40 C61 1.254 . S
N41 Zn35 2.036 . S
N41 C42 1.298 . S
N41 N44 1.398 . S
C42 N41 1.298 . S
C42 N45 1.367 . S
C42 C55 1.481 . S
C43 N44 1.299 . S
C43 N45 1.379 . S
N44 N41 1.398 . S
N44 C43 1.299 . S
N45 C42 1.367 . S
N45 C43 1.379 . S
C46 N48 1.298 . S
C46 N50 1.367 . S
C46 C54 1.481 . S
C47 N49 1.299 . S
C47 N50 1.379 . S
N48 Zn32 2.036 . S
N48 C46 1.298 . S
N48 N49 1.398 . S
N49 C47 1.299 . S
N49 N48 1.398 . S
N50 C46 1.367 . S
N50 C47 1.379 . S
H51 C54 0.980 . S
H52 C54 0.981 . S
H53 C54 0.981 . S
C54 C46 1.481 . S
C54 H51 0.980 . S
C54 H52 0.981 . S
C54 H53 0.981 . S
C55 C42 1.481 . S
C55 H56 0.980 . S
C55 H57 0.981 . S
C55 H58 0.981 . S
H56 C55 0.980 . S
H57 C55 0.981 . S
H58 C55 0.981 . S
O59 Zn35 2.066 . S
O59 C38 1.256 . S
O60 Zn32 2.053 . S
O60 C38 1.244 . S
C61 O39 1.259 . S
C61 O40 1.254 . S
O62 Zn32 2.066 . S
O62 C34 1.256 . S
O63 C34 1.244 . S
O63 Zn35 2.053 . S
Zn64 O65 2.055 . S
Zn64 O72 2.046 . S
Zn64 N80 2.036 . S
Zn64 O92 2.053 . S
Zn64 O94 2.066 . S
O65 Zn64 2.055 . S
O65 C68 1.259 . S
C66 O94 1.256 . S
C66 O95 1.244 . S
Zn67 O69 2.046 . S
Zn67 O71 2.055 . S
Zn67 N73 2.036 . S
Zn67 O91 2.066 . S
Zn67 O95 2.053 . S
C68 O65 1.259 . S
C68 O69 1.254 . S
O69 Zn67 2.046 . S
O69 C68 1.254 . S
C70 O91 1.256 . S
C70 O92 1.244 . S
O71 Zn67 2.055 . S
O71 C93 1.259 . S
O72 Zn64 2.046 . S
O72 C93 1.254 . S
N73 Zn67 2.036 . S
N73 C74 1.298 . S
N73 N76 1.398 . S
C74 N73 1.298 . S
C74 N77 1.367 . S
C74 C87 1.481 . S
C75 N76 1.299 . S
C75 N77 1.379 . S
N76 N73 1.398 . S
N76 C75 1.299 . S
N77 C74 1.367 . S
N77 C75 1.379 . S
C78 N80 1.298 . S
C78 N82 1.367 . S
C78 C86 1.481 . S
C79 N81 1.299 . S
C79 N82 1.379 . S
N80 Zn64 2.036 . S
N80 C78 1.298 . S
N80 N81 1.398 . S
N81 C79 1.299 . S
N81 N80 1.398 . S
N82 C78 1.367 . S
N82 C79 1.379 . S
H83 C86 0.980 . S
H84 C86 0.981 . S
H85 C86 0.981 . S
C86 C78 1.481 . S
C86 H83 0.980 . S
C86 H84 0.981 . S
C86 H85 0.981 . S
C87 C74 1.481 . S
C87 H88 0.980 . S
C87 H89 0.981 . S
C87 H90 0.981 . S
H88 C87 0.980 . S
H89 C87 0.981 . S
H90 C87 0.981 . S
O91 Zn67 2.066 . S
O91 C70 1.256 . S
O92 Zn64 2.053 . S
O92 C70 1.244 . S
C93 O71 1.259 . S
C93 O72 1.254 . S
O94 Zn64 2.066 . S
O94 C66 1.256 . S
O95 C66 1.244 . S
O95 Zn67 2.053 . S
Zn96 O97 2.055 . S
Zn96 O104 2.046 . S
Zn96 N112 2.036 . S
Zn96 O124 2.053 . S
Zn96 O126 2.066 . S
O97 Zn96 2.055 . S
O97 C100 1.259 . S
C98 O126 1.256 . S
C98 O127 1.244 . S
Zn99 O101 2.046 . S
Zn99 O103 2.055 . S
Zn99 N105 2.036 . S
Zn99 O123 2.066 . S
Zn99 O127 2.053 . S
C100 O97 1.259 . S
C100 O101 1.254 . S
O101 Zn99 2.046 . S
O101 C100 1.254 . S
C102 O123 1.256 . S
C102 O124 1.244 . S
O103 Zn99 2.055 . S
O103 C125 1.259 . S
O104 Zn96 2.046 . S
O104 C125 1.254 . S
N105 Zn99 2.036 . S
N105 C106 1.298 . S
N105 N108 1.398 . S
C106 N105 1.298 . S
C106 N109 1.367 . S
C106 C119 1.481 . S
C107 N108 1.299 . S
C107 N109 1.379 . S
N108 N105 1.398 . S
N108 C107 1.299 . S
N109 C106 1.367 . S
N109 C107 1.379 . S
C110 N112 1.298 . S
C110 N114 1.367 . S
C110 C118 1.481 . S
C111 N113 1.299 . S
C111 N114 1.379 . S
N112 Zn96 2.036 . S
N112 C110 1.298 . S
N112 N113 1.398 . S
N113 C111 1.299 . S
N113 N112 1.398 . S
N114 C110 1.367 . S
N114 C111 1.379 . S
H115 C118 0.980 . S
H116 C118 0.981 . S
H117 C118 0.981 . S
C118 C110 1.481 . S
C118 H115 0.980 . S
C118 H116 0.981 . S
C118 H117 0.981 . S
C119 C106 1.481 . S
C119 H120 0.980 . S
C119 H121 0.981 . S
C119 H122 0.981 . S
H120 C119 0.980 . S
H121 C119 0.981 . S
H122 C119 0.981 . S
O123 Zn99 2.066 . S
O123 C102 1.256 . S
O124 Zn96 2.053 . S
O124 C102 1.244 . S
C125 O103 1.259 . S
C125 O104 1.254 . S
O126 Zn96 2.066 . S
O126 C98 1.256 . S
O127 C98 1.244 . S
O127 Zn99 2.053 . S
Zn128 O129 2.055 . S
Zn128 O136 2.046 . S
Zn128 N144 2.036 . S
Zn128 O156 2.053 1_554 S
Zn128 O158 2.066 . S
O129 Zn128 2.055 . S
O129 C132 1.259 . S
C130 O158 1.256 . S
C130 O159 1.244 . S
Zn131 O133 2.046 . S
Zn131 O135 2.055 . S
Zn131 N137 2.036 . S
Zn131 O155 2.066 1_554 S
Zn131 O159 2.053 . S
C132 O129 1.259 . S
C132 O133 1.254 . S
O133 Zn131 2.046 . S
O133 C132 1.254 . S
C134 O155 1.256 . S
C134 O156 1.244 . S
O135 Zn131 2.055 . S
O135 C157 1.259 . S
O136 Zn128 2.046 . S
O136 C157 1.254 . S
N137 Zn131 2.036 . S
N137 C138 1.298 . S
N137 N140 1.398 . S
C138 N137 1.298 . S
C138 N141 1.367 . S
C138 C151 1.481 . S
C139 N140 1.299 . S
C139 N141 1.379 . S
N140 N137 1.398 . S
N140 C139 1.299 . S
N141 C138 1.367 . S
N141 C139 1.379 . S
C142 N144 1.298 . S
C142 N146 1.367 . S
C142 C150 1.481 . S
C143 N145 1.299 . S
C143 N146 1.379 1_556 S
N144 Zn128 2.036 . S
N144 C142 1.298 . S
N144 N145 1.398 1_554 S
N145 C143 1.299 . S
N145 N144 1.398 1_556 S
N146 C142 1.367 . S
N146 C143 1.379 1_554 S
H147 C150 0.980 . S
H148 C150 0.981 . S
H149 C150 0.981 . S
C150 C142 1.481 . S
C150 H147 0.980 . S
C150 H148 0.981 . S
C150 H149 0.981 . S
C151 C138 1.481 . S
C151 H152 0.980 . S
C151 H153 0.981 . S
C151 H154 0.981 1_554 S
H152 C151 0.980 . S
H153 C151 0.981 . S
H154 C151 0.981 1_556 S
O155 Zn131 2.066 1_556 S
O155 C134 1.256 . S
O156 Zn128 2.053 1_556 S
O156 C134 1.244 . S
C157 O135 1.259 . S
C157 O136 1.254 . S
O158 Zn128 2.066 . S
O158 C130 1.256 . S
O159 C130 1.244 . S
O159 Zn131 2.053 . S
Zn160 O161 2.055 . S
Zn160 O168 2.046 . S
Zn160 N176 2.036 . S
Zn160 O188 2.053 1_554 S
Zn160 O190 2.066 . S
O161 Zn160 2.055 . S
O161 C164 1.259 . S
C162 O190 1.256 . S
C162 O191 1.244 . S
Zn163 O165 2.046 . S
Zn163 O167 2.055 . S
Zn163 N169 2.036 . S
Zn163 O187 2.066 1_554 S
Zn163 O191 2.053 . S
C164 O161 1.259 . S
C164 O165 1.254 . S
O165 Zn163 2.046 . S
O165 C164 1.254 . S
C166 O187 1.256 . S
C166 O188 1.244 . S
O167 Zn163 2.055 . S
O167 C189 1.259 . S
O168 Zn160 2.046 . S
O168 C189 1.254 . S
N169 Zn163 2.036 . S
N169 C170 1.298 . S
N169 N172 1.398 . S
C170 N169 1.298 . S
C170 N173 1.367 . S
C170 C183 1.481 . S
C171 N172 1.299 . S
C171 N173 1.379 . S
N172 N169 1.398 . S
N172 C171 1.299 . S
N173 C170 1.367 . S
N173 C171 1.379 . S
C174 N176 1.298 . S
C174 N178 1.367 . S
C174 C182 1.481 . S
C175 N177 1.299 . S
C175 N178 1.379 1_556 S
N176 Zn160 2.036 . S
N176 C174 1.298 . S
N176 N177 1.398 1_554 S
N177 C175 1.299 . S
N177 N176 1.398 1_556 S
N178 C174 1.367 . S
N178 C175 1.379 1_554 S
H179 C182 0.980 . S
H180 C182 0.981 . S
H181 C182 0.981 . S
C182 C174 1.481 . S
C182 H179 0.980 . S
C182 H180 0.981 . S
C182 H181 0.981 . S
C183 C170 1.481 . S
C183 H184 0.980 . S
C183 H185 0.981 . S
C183 H186 0.981 1_554 S
H184 C183 0.980 . S
H185 C183 0.981 . S
H186 C183 0.981 1_556 S
O187 Zn163 2.066 1_556 S
O187 C166 1.256 . S
O188 Zn160 2.053 1_556 S
O188 C166 1.244 . S
C189 O167 1.259 . S
C189 O168 1.254 . S
O190 Zn160 2.066 . S
O190 C162 1.256 . S
O191 C162 1.244 . S
O191 Zn163 2.053 . S
Zn192 O193 2.055 . S
Zn192 O200 2.046 . S
Zn192 N208 2.036 . S
Zn192 O220 2.053 . S
Zn192 O222 2.066 1_556 S
O193 Zn192 2.055 . S
O193 C196 1.259 . S
C194 O222 1.256 . S
C194 O223 1.244 . S
Zn195 O197 2.046 . S
Zn195 O199 2.055 . S
Zn195 N201 2.036 . S
Zn195 O219 2.066 . S
Zn195 O223 2.053 1_556 S
C196 O193 1.259 . S
C196 O197 1.254 . S
O197 Zn195 2.046 . S
O197 C196 1.254 . S
C198 O219 1.256 . S
C198 O220 1.244 . S
O199 Zn195 2.055 . S
O199 C221 1.259 . S
O200 Zn192 2.046 . S
O200 C221 1.254 . S
N201 Zn195 2.036 . S
N201 C202 1.298 . S
N201 N204 1.398 1_556 S
C202 N201 1.298 . S
C202 N205 1.367 . S
C202 C215 1.481 . S
C203 N204 1.299 . S
C203 N205 1.379 1_554 S
N204 N201 1.398 1_554 S
N204 C203 1.299 . S
N205 C202 1.367 . S
N205 C203 1.379 1_556 S
C206 N208 1.298 . S
C206 N210 1.367 . S
C206 C214 1.481 . S
C207 N209 1.299 . S
C207 N210 1.379 . S
N208 Zn192 2.036 . S
N208 C206 1.298 . S
N208 N209 1.398 . S
N209 C207 1.299 . S
N209 N208 1.398 . S
N210 C206 1.367 . S
N210 C207 1.379 . S
H211 C214 0.980 . S
H212 C214 0.981 . S
H213 C214 0.981 1_554 S
C214 C206 1.481 . S
C214 H211 0.980 . S
C214 H212 0.981 . S
C214 H213 0.981 1_556 S
C215 C202 1.481 . S
C215 H216 0.980 . S
C215 H217 0.981 . S
C215 H218 0.981 . S
H216 C215 0.980 . S
H217 C215 0.981 . S
H218 C215 0.981 . S
O219 Zn195 2.066 . S
O219 C198 1.256 . S
O220 Zn192 2.053 . S
O220 C198 1.244 . S
C221 O199 1.259 . S
C221 O200 1.254 . S
O222 Zn192 2.066 1_554 S
O222 C194 1.256 . S
O223 C194 1.244 . S
O223 Zn195 2.053 1_554 S
Zn224 O225 2.055 . S
Zn224 O232 2.046 . S
Zn224 N240 2.036 . S
Zn224 O252 2.053 . S
Zn224 O254 2.066 1_556 S
O225 Zn224 2.055 . S
O225 C228 1.259 . S
C226 O254 1.256 . S
C226 O255 1.244 . S
Zn227 O229 2.046 . S
Zn227 O231 2.055 . S
Zn227 N233 2.036 . S
Zn227 O251 2.066 . S
Zn227 O255 2.053 1_556 S
C228 O225 1.259 . S
C228 O229 1.254 . S
O229 Zn227 2.046 . S
O229 C228 1.254 . S
C230 O251 1.256 . S
C230 O252 1.244 . S
O231 Zn227 2.055 . S
O231 C253 1.259 . S
O232 Zn224 2.046 . S
O232 C253 1.254 . S
N233 Zn227 2.036 . S
N233 C234 1.298 . S
N233 N236 1.398 1_556 S
C234 N233 1.298 . S
C234 N237 1.367 . S
C234 C247 1.481 . S
C235 N236 1.299 . S
C235 N237 1.379 1_554 S
N236 N233 1.398 1_554 S
N236 C235 1.299 . S
N237 C234 1.367 . S
N237 C235 1.379 1_556 S
C238 N240 1.298 . S
C238 N242 1.367 . S
C238 C246 1.481 . S
C239 N241 1.299 . S
C239 N242 1.379 . S
N240 Zn224 2.036 . S
N240 C238 1.298 . S
N240 N241 1.398 . S
N241 C239 1.299 . S
N241 N240 1.398 . S
N242 C238 1.367 . S
N242 C239 1.379 . S
H243 C246 0.980 . S
H244 C246 0.981 . S
H245 C246 0.981 1_554 S
C246 C238 1.481 . S
C246 H243 0.980 . S
C246 H244 0.981 . S
C246 H245 0.981 1_556 S
C247 C234 1.481 . S
C247 H248 0.980 . S
C247 H249 0.981 . S
C247 H250 0.981 . S
H248 C247 0.980 . S
H249 C247 0.981 . S
H250 C247 0.981 . S
O251 Zn227 2.066 . S
O251 C230 1.256 . S
O252 Zn224 2.053 . S
O252 C230 1.244 . S
C253 O231 1.259 . S
C253 O232 1.254 . S
O254 Zn224 2.066 1_554 S
O254 C226 1.256 . S
O255 C226 1.244 . S
O255 Zn227 2.053 1_554 S
H256 C264 0.929 . S
H257 C266 0.930 . S
H258 C268 0.930 . S
H259 C271 0.929 . S
H260 C274 0.930 . S
H261 C276 0.960 . S
H262 C276 0.960 . S
H263 C276 0.960 . S
C264 H256 0.929 . S
C264 C265 1.377 . S
C264 C266 1.384 . S
C265 C264 1.377 . S
C265 C271 1.390 . S
C266 H257 0.930 . S
C266 C264 1.384 . S
C266 C267 1.372 . S
C267 C266 1.372 . S
C267 C268 1.400 . S
C267 C272 1.490 . S
C268 H258 0.930 . S
C268 C267 1.400 . S
C268 C271 1.386 . S
H269 C285 0.930 . S
H270 C286 0.931 . S
C271 H259 0.929 . S
C271 C265 1.390 . S
C271 C268 1.386 . S
C272 C267 1.490 . S
C272 C274 1.395 . S
C272 C275 1.403 . S
H273 C279 0.930 . S
C274 H260 0.930 . S
C274 C272 1.395 . S
C274 C277 1.403 . S
C275 C272 1.403 . S
C275 C276 1.524 . S
C275 C279 1.400 . S
C276 H261 0.960 . S
C276 H262 0.960 . S
C276 H263 0.960 . S
C276 C275 1.524 . S
C277 C274 1.403 . S
C277 C278 1.392 . S
C277 C281 1.495 . S
C278 C277 1.392 . S
C278 C279 1.385 . S
C278 C280 1.478 . S
C279 H273 0.930 . S
C279 C275 1.400 . S
C279 C278 1.385 . S
C280 C278 1.478 . S
C280 C282 1.381 . S
C280 C286 1.383 . S
C281 C277 1.495 . S
C281 H287 0.959 . S
C281 H288 0.961 . S
C281 H289 0.960 . S
C282 C280 1.381 . S
C282 C283 1.394 . S
C282 H290 0.930 . S
C283 C282 1.394 . S
C283 C284 1.383 . S
C283 H291 0.929 . S
C284 C283 1.383 . S
C284 C285 1.377 . S
C285 H269 0.930 . S
C285 C284 1.377 . S
C285 C286 1.379 . S
C286 H270 0.931 . S
C286 C280 1.383 . S
C286 C285 1.379 . S
H287 C281 0.959 . S
H288 C281 0.961 . S
H289 C281 0.960 . S
H290 C282 0.930 . S
H291 C283 0.929 . S
H292 C300 0.929 . S
H293 C302 0.930 . S
H294 C304 0.930 . S
H295 C307 0.929 . S
H296 C310 0.930 . S
H297 C312 0.960 . S
H298 C312 0.960 . S
H299 C312 0.960 . S
C300 H292 0.929 . S
C300 C301 1.377 . S
C300 C302 1.384 . S
C301 C300 1.377 . S
C301 C307 1.390 . S
C302 H293 0.930 . S
C302 C300 1.384 . S
C302 C303 1.372 . S
C303 C302 1.372 . S
C303 C304 1.400 . S
C303 C308 1.490 . S
C304 H294 0.930 . S
C304 C303 1.400 . S
C304 C307 1.386 . S
H305 C321 0.930 . S
H306 C322 0.931 . S
C307 H295 0.929 . S
C307 C301 1.390 . S
C307 C304 1.386 . S
C308 C303 1.490 . S
C308 C310 1.395 . S
C308 C311 1.403 . S
H309 C315 0.930 . S
C310 H296 0.930 . S
C310 C308 1.395 . S
C310 C313 1.403 . S
C311 C308 1.403 . S
C311 C312 1.524 . S
C311 C315 1.400 . S
C312 H297 0.960 . S
C312 H298 0.960 . S
C312 H299 0.960 . S
C312 C311 1.524 . S
C313 C310 1.403 . S
C313 C314 1.392 . S
C313 C317 1.495 . S
C314 C313 1.392 . S
C314 C315 1.385 . S
C314 C316 1.478 . S
C315 H309 0.930 . S
C315 C311 1.400 . S
C315 C314 1.385 . S
C316 C314 1.478 . S
C316 C318 1.381 . S
C316 C322 1.383 . S
C317 C313 1.495 . S
C317 H323 0.959 . S
C317 H324 0.961 . S
C317 H325 0.960 . S
C318 C316 1.381 . S
C318 C319 1.394 . S
C318 H326 0.930 . S
C319 C318 1.394 . S
C319 C320 1.383 . S
C319 H327 0.929 . S
C320 C319 1.383 . S
C320 C321 1.377 . S
C321 H305 0.930 . S
C321 C320 1.377 . S
C321 C322 1.379 . S
C322 H306 0.931 . S
C322 C316 1.383 . S
C322 C321 1.379 . S
H323 C317 0.959 . S
H324 C317 0.961 . S
H325 C317 0.960 . S
H326 C318 0.930 . S
H327 C319 0.929 . S
H328 C336 0.929 . S
H329 C338 0.930 . S
H330 C340 0.930 . S
H331 C343 0.929 . S
H332 C346 0.930 . S
H333 C348 0.960 . S
H334 C348 0.960 . S
H335 C348 0.960 . S
C336 H328 0.929 . S
C336 C337 1.377 . S
C336 C338 1.384 . S
C337 C336 1.377 . S
C337 C343 1.390 . S
C338 H329 0.930 . S
C338 C336 1.384 . S
C338 C339 1.372 . S
C339 C338 1.372 . S
C339 C340 1.400 . S
C339 C344 1.490 . S
C340 H330 0.930 . S
C340 C339 1.400 . S
C340 C343 1.386 . S
H341 C357 0.930 . S
H342 C358 0.931 . S
C343 H331 0.929 . S
C343 C337 1.390 . S
C343 C340 1.386 . S
C344 C339 1.490 . S
C344 C346 1.395 . S
C344 C347 1.403 . S
H345 C351 0.930 . S
C346 H332 0.930 . S
C346 C344 1.395 . S
C346 C349 1.403 . S
C347 C344 1.403 . S
C347 C348 1.524 . S
C347 C351 1.400 . S
C348 H333 0.960 . S
C348 H334 0.960 . S
C348 H335 0.960 . S
C348 C347 1.524 . S
C349 C346 1.403 . S
C349 C350 1.392 . S
C349 C353 1.495 . S
C350 C349 1.392 . S
C350 C351 1.385 . S
C350 C352 1.478 . S
C351 H345 0.930 . S
C351 C347 1.400 . S
C351 C350 1.385 . S
C352 C350 1.478 . S
C352 C354 1.381 . S
C352 C358 1.383 . S
C353 C349 1.495 . S
C353 H359 0.959 . S
C353 H360 0.961 . S
C353 H361 0.960 . S
C354 C352 1.381 . S
C354 C355 1.394 . S
C354 H362 0.930 . S
C355 C354 1.394 . S
C355 C356 1.383 . S
C355 H363 0.929 . S
C356 C355 1.383 . S
C356 C357 1.377 . S
C357 H341 0.930 . S
C357 C356 1.377 . S
C357 C358 1.379 . S
C358 H342 0.931 . S
C358 C352 1.383 . S
C358 C357 1.379 . S
H359 C353 0.959 . S
H360 C353 0.961 . S
H361 C353 0.960 . S
H362 C354 0.930 . S
H363 C355 0.929 . S
H364 C372 0.929 . S
H365 C374 0.930 . S
H366 C376 0.930 . S
H367 C379 0.929 . S
H368 C382 0.930 . S
H369 C384 0.960 . S
H370 C384 0.960 . S
H371 C384 0.960 . S
C372 H364 0.929 . S
C372 C373 1.377 . S
C372 C374 1.384 . S
C373 C372 1.377 . S
C373 C379 1.390 . S
C374 H365 0.930 . S
C374 C372 1.384 . S
C374 C375 1.372 . S
C375 C374 1.372 . S
C375 C376 1.400 . S
C375 C380 1.490 . S
C376 H366 0.930 . S
C376 C375 1.400 . S
C376 C379 1.386 . S
H377 C393 0.930 . S
H378 C394 0.931 . S
C379 H367 0.929 . S
C379 C373 1.390 . S
C379 C376 1.386 . S
C380 C375 1.490 . S
C380 C382 1.395 . S
C380 C383 1.403 . S
H381 C387 0.930 . S
C382 H368 0.930 . S
C382 C380 1.395 . S
C382 C385 1.403 . S
C383 C380 1.403 . S
C383 C384 1.524 . S
C383 C387 1.400 . S
C384 H369 0.960 . S
C384 H370 0.960 . S
C384 H371 0.960 . S
C384 C383 1.524 . S
C385 C382 1.403 . S
C385 C386 1.392 . S
C385 C389 1.495 . S
C386 C385 1.392 . S
C386 C387 1.385 . S
C386 C388 1.478 . S
C387 H381 0.930 . S
C387 C383 1.400 . S
C387 C386 1.385 . S
C388 C386 1.478 . S
C388 C390 1.381 . S
C388 C394 1.383 . S
C389 C385 1.495 . S
C389 H395 0.959 . S
C389 H396 0.961 . S
C389 H397 0.960 . S
C390 C388 1.381 . S
C390 C391 1.394 . S
C390 H398 0.930 . S
C391 C390 1.394 . S
C391 C392 1.383 . S
C391 H399 0.929 . S
C392 C391 1.383 . S
C392 C393 1.377 . S
C393 H377 0.930 . S
C393 C392 1.377 . S
C393 C394 1.379 . S
C394 H378 0.931 . S
C394 C388 1.383 . S
C394 C393 1.379 . S
H395 C389 0.959 . S
H396 C389 0.961 . S
H397 C389 0.960 . S
H398 C390 0.930 . S
H399 C391 0.929 . S
H400 C408 0.929 . S
H401 C410 0.930 . S
H402 C412 0.930 . S
H403 C415 0.929 . S
H404 C418 0.930 . S
H405 C420 0.960 . S
H406 C420 0.960 . S
H407 C420 0.960 . S
C408 H400 0.929 . S
C408 C409 1.377 . S
C408 C410 1.384 . S
C409 C408 1.377 . S
C409 C415 1.390 . S
C410 H401 0.930 . S
C410 C408 1.384 . S
C410 C411 1.372 . S
C411 C410 1.372 . S
C411 C412 1.400 . S
C411 C416 1.490 . S
C412 H402 0.930 . S
C412 C411 1.400 . S
C412 C415 1.386 . S
H413 C429 0.930 . S
H414 C430 0.931 . S
C415 H403 0.929 . S
C415 C409 1.390 . S
C415 C412 1.386 . S
C416 C411 1.490 . S
C416 C418 1.395 . S
C416 C419 1.403 . S
H417 C423 0.930 . S
C418 H404 0.930 . S
C418 C416 1.395 . S
C418 C421 1.403 1_565 S
C419 C416 1.403 . S
C419 C420 1.524 . S
C419 C423 1.400 1_565 S
C420 H405 0.960 . S
C420 H406 0.960 . S
C420 H407 0.960 . S
C420 C419 1.524 . S
C421 C418 1.403 1_545 S
C421 C422 1.392 . S
C421 C425 1.495 . S
C422 C421 1.392 . S
C422 C423 1.385 . S
C422 C424 1.478 . S
C423 H417 0.930 . S
C423 C419 1.400 1_545 S
C423 C422 1.385 . S
C424 C422 1.478 . S
C424 C426 1.381 . S
C424 C430 1.383 . S
C425 C421 1.495 . S
C425 H431 0.959 . S
C425 H432 0.961 . S
C425 H433 0.960 . S
C426 C424 1.381 . S
C426 C427 1.394 . S
C426 H434 0.930 . S
C427 C426 1.394 . S
C427 C428 1.383 . S
C427 H435 0.929 . S
C428 C427 1.383 . S
C428 C429 1.377 . S
C429 H413 0.930 . S
C429 C428 1.377 . S
C429 C430 1.379 . S
C430 H414 0.931 . S
C430 C424 1.383 . S
C430 C429 1.379 . S
H431 C425 0.959 . S
H432 C425 0.961 . S
H433 C425 0.960 . S
H434 C426 0.930 . S
H435 C427 0.929 . S
H436 C444 0.929 . S
H437 C446 0.930 . S
H438 C448 0.930 . S
H439 C451 0.929 . S
H440 C454 0.930 . S
H441 C456 0.960 . S
H442 C456 0.960 . S
H443 C456 0.960 . S
C444 H436 0.929 . S
C444 C445 1.377 . S
C444 C446 1.384 . S
C445 C444 1.377 . S
C445 C451 1.390 . S
C446 H437 0.930 . S
C446 C444 1.384 . S
C446 C447 1.372 . S
C447 C446 1.372 . S
C447 C448 1.400 . S
C447 C452 1.490 . S
C448 H438 0.930 . S
C448 C447 1.400 . S
C448 C451 1.386 . S
H449 C465 0.930 . S
H450 C466 0.931 . S
C451 H439 0.929 . S
C451 C445 1.390 . S
C451 C448 1.386 . S
C452 C447 1.490 . S
C452 C454 1.395 . S
C452 C455 1.403 . S
H453 C459 0.930 . S
C454 H440 0.930 . S
C454 C452 1.395 . S
C454 C457 1.403 . S
C455 C452 1.403 . S
C455 C456 1.524 . S
C455 C459 1.400 . S
C456 H441 0.960 . S
C456 H442 0.960 . S
C456 H443 0.960 . S
C456 C455 1.524 . S
C457 C454 1.403 . S
C457 C458 1.392 . S
C457 C461 1.495 . S
C458 C457 1.392 . S
C458 C459 1.385 . S
C458 C460 1.478 . S
C459 H453 0.930 . S
C459 C455 1.400 . S
C459 C458 1.385 . S
C460 C458 1.478 . S
C460 C462 1.381 . S
C460 C466 1.383 . S
C461 C457 1.495 . S
C461 H467 0.959 . S
C461 H468 0.961 . S
C461 H469 0.960 . S
C462 C460 1.381 . S
C462 C463 1.394 . S
C462 H470 0.930 . S
C463 C462 1.394 . S
C463 C464 1.383 . S
C463 H471 0.929 . S
C464 C463 1.383 . S
C464 C465 1.377 . S
C465 H449 0.930 . S
C465 C464 1.377 . S
C465 C466 1.379 . S
C466 H450 0.931 . S
C466 C460 1.383 . S
C466 C465 1.379 . S
H467 C461 0.959 . S
H468 C461 0.961 . S
H469 C461 0.960 . S
H470 C462 0.930 . S
H471 C463 0.929 . S
H472 C480 0.929 . S
H473 C482 0.930 . S
H474 C484 0.930 . S
H475 C487 0.929 . S
H476 C490 0.930 . S
H477 C492 0.960 1_545 S
H478 C492 0.960 . S
H479 C492 0.960 . S
C480 H472 0.929 . S
C480 C481 1.377 . S
C480 C482 1.384 . S
C481 C480 1.377 . S
C481 C487 1.390 . S
C482 H473 0.930 . S
C482 C480 1.384 . S
C482 C483 1.372 . S
C483 C482 1.372 . S
C483 C484 1.400 . S
C483 C488 1.490 . S
C484 H474 0.930 . S
C484 C483 1.400 . S
C484 C487 1.386 . S
H485 C501 0.930 . S
H486 C502 0.931 . S
C487 H475 0.929 . S
C487 C481 1.390 . S
C487 C484 1.386 . S
C488 C483 1.490 . S
C488 C490 1.395 . S
C488 C491 1.403 . S
H489 C495 0.930 . S
C490 H476 0.930 . S
C490 C488 1.395 . S
C490 C493 1.403 1_565 S
C491 C488 1.403 . S
C491 C492 1.524 . S
C491 C495 1.400 1_565 S
C492 H477 0.960 1_565 S
C492 H478 0.960 . S
C492 H479 0.960 . S
C492 C491 1.524 . S
C493 C490 1.403 1_545 S
C493 C494 1.392 . S
C493 C497 1.495 . S
C494 C493 1.392 . S
C494 C495 1.385 . S
C494 C496 1.478 . S
C495 H489 0.930 . S
C495 C491 1.400 1_545 S
C495 C494 1.385 . S
C496 C494 1.478 . S
C496 C498 1.381 . S
C496 C502 1.383 . S
C497 C493 1.495 . S
C497 H503 0.959 1_545 S
C497 H504 0.961 . S
C497 H505 0.960 . S
C498 C496 1.381 . S
C498 C499 1.394 . S
C498 H506 0.930 . S
C499 C498 1.394 . S
C499 C500 1.383 . S
C499 H507 0.929 . S
C500 C499 1.383 . S
C500 C501 1.377 . S
C501 H485 0.930 . S
C501 C500 1.377 . S
C501 C502 1.379 . S
C502 H486 0.931 . S
C502 C496 1.383 . S
C502 C501 1.379 . S
H503 C497 0.959 1_565 S
H504 C497 0.961 . S
H505 C497 0.960 . S
H506 C498 0.930 . S
H507 C499 0.929 . S
H508 C516 0.929 . S
H509 C518 0.930 . S
H510 C520 0.930 . S
H511 C523 0.929 . S
H512 C526 0.930 . S
H513 C528 0.960 . S
H514 C528 0.960 . S
H515 C528 0.960 . S
C516 H508 0.929 . S
C516 C517 1.377 . S
C516 C518 1.384 . S
C517 C516 1.377 . S
C517 C523 1.390 . S
C518 H509 0.930 . S
C518 C516 1.384 . S
C518 C519 1.372 . S
C519 C518 1.372 . S
C519 C520 1.400 . S
C519 C524 1.490 . S
C520 H510 0.930 . S
C520 C519 1.400 . S
C520 C523 1.386 . S
H521 C537 0.930 . S
H522 C538 0.931 . S
C523 H511 0.929 . S
C523 C517 1.390 . S
C523 C520 1.386 . S
C524 C519 1.490 . S
C524 C526 1.395 . S
C524 C527 1.403 . S
H525 C531 0.930 . S
C526 H512 0.930 . S
C526 C524 1.395 . S
C526 C529 1.403 . S
C527 C524 1.403 . S
C527 C528 1.524 . S
C527 C531 1.400 . S
C528 H513 0.960 . S
C528 H514 0.960 . S
C528 H515 0.960 . S
C528 C527 1.524 . S
C529 C526 1.403 . S
C529 C530 1.392 . S
C529 C533 1.495 . S
C530 C529 1.392 . S
C530 C531 1.385 . S
C530 C532 1.478 . S
C531 H525 0.930 . S
C531 C527 1.400 . S
C531 C530 1.385 . S
C532 C530 1.478 . S
C532 C534 1.381 . S
C532 C538 1.383 . S
C533 C529 1.495 . S
C533 H539 0.959 . S
C533 H540 0.961 . S
C533 H541 0.960 . S
C534 C532 1.381 . S
C534 C535 1.394 . S
C534 H542 0.930 . S
C535 C534 1.394 . S
C535 C536 1.383 . S
C535 H543 0.929 . S
C536 C535 1.383 . S
C536 C537 1.377 . S
C537 H521 0.930 . S
C537 C536 1.377 . S
C537 C538 1.379 . S
C538 H522 0.931 . S
C538 C532 1.383 . S
C538 C537 1.379 . S
H539 C533 0.959 . S
H540 C533 0.961 . S
H541 C533 0.960 . S
H542 C534 0.930 . S
H543 C535 0.929 . S
H544 C552 0.929 . S
H545 C554 0.930 . S
H546 C556 0.930 1_556 S
H547 C559 0.929 . S
H548 C562 0.930 . S
H549 C564 0.960 . S
H550 C564 0.960 . S
H551 C564 0.960 . S
C552 H544 0.929 . S
C552 C553 1.377 . S
C552 C554 1.384 . S
C553 C552 1.377 . S
C553 C559 1.390 . S
C554 H545 0.930 . S
C554 C552 1.384 . S
C554 C555 1.372 . S
C555 C554 1.372 . S
C555 C556 1.400 . S
C555 C560 1.490 . S
C556 H546 0.930 1_554 S
C556 C555 1.400 . S
C556 C559 1.386 . S
H557 C573 0.930 . S
H558 C574 0.931 . S
C559 H547 0.929 . S
C559 C553 1.390 . S
C559 C556 1.386 . S
C560 C555 1.490 . S
C560 C562 1.395 1_554 S
C560 C563 1.403 . S
H561 C567 0.930 . S
C562 H548 0.930 . S
C562 C560 1.395 1_556 S
C562 C565 1.403 . S
C563 C560 1.403 . S
C563 C564 1.524 . S
C563 C567 1.400 . S
C564 H549 0.960 . S
C564 H550 0.960 . S
C564 H551 0.960 . S
C564 C563 1.524 . S
C565 C562 1.403 . S
C565 C566 1.392 . S
C565 C569 1.495 . S
C566 C565 1.392 . S
C566 C567 1.385 1_556 S
C566 C568 1.478 . S
C567 H561 0.930 . S
C567 C563 1.400 . S
C567 C566 1.385 1_554 S
C568 C566 1.478 . S
C568 C570 1.381 . S
C568 C574 1.383 . S
C569 C565 1.495 . S
C569 H575 0.959 . S
C569 H576 0.961 . S
C569 H577 0.960 . S
C570 C568 1.381 . S
C570 C571 1.394 . S
C570 H578 0.930 1_556 S
C571 C570 1.394 . S
C571 C572 1.383 . S
C571 H579 0.929 1_556 S
C572 C571 1.383 . S
C572 C573 1.377 . S
C573 H557 0.930 . S
C573 C572 1.377 . S
C573 C574 1.379 . S
C574 H558 0.931 . S
C574 C568 1.383 . S
C574 C573 1.379 . S
H575 C569 0.959 . S
H576 C569 0.961 . S
H577 C569 0.960 . S
H578 C570 0.930 1_554 S
H579 C571 0.929 1_554 S
H580 C588 0.929 . S
H581 C590 0.930 . S
H582 C592 0.930 . S
H583 C595 0.929 . S
H584 C598 0.930 . S
H585 C600 0.960 . S
H586 C600 0.960 . S
H587 C600 0.960 . S
C588 H580 0.929 . S
C588 C589 1.377 1_556 S
C588 C590 1.384 . S
C589 C588 1.377 1_554 S
C589 C595 1.390 . S
C590 H581 0.930 . S
C590 C588 1.384 . S
C590 C591 1.372 1_556 S
C591 C590 1.372 1_554 S
C591 C592 1.400 . S
C591 C596 1.490 . S
C592 H582 0.930 . S
C592 C591 1.400 . S
C592 C595 1.386 . S
H593 C609 0.930 . S
H594 C610 0.931 . S
C595 H583 0.929 . S
C595 C589 1.390 . S
C595 C592 1.386 . S
C596 C591 1.490 . S
C596 C598 1.395 . S
C596 C599 1.403 1_554 S
H597 C603 0.930 . S
C598 H584 0.930 . S
C598 C596 1.395 . S
C598 C601 1.403 1_565 S
C599 C596 1.403 1_556 S
C599 C600 1.524 . S
C599 C603 1.400 1_565 S
C600 H585 0.960 . S
C600 H586 0.960 . S
C600 H587 0.960 . S
C600 C599 1.524 . S
C601 C598 1.403 1_545 S
C601 C602 1.392 . S
C601 C605 1.495 . S
C602 C601 1.392 . S
C602 C603 1.385 1_554 S
C602 C604 1.478 1_554 S
C603 H597 0.930 . S
C603 C599 1.400 1_545 S
C603 C602 1.385 1_556 S
C604 C602 1.478 1_556 S
C604 C606 1.381 . S
C604 C610 1.383 1_556 S
C605 C601 1.495 . S
C605 H611 0.959 . S
C605 H612 0.961 . S
C605 H613 0.960 . S
C606 C604 1.381 . S
C606 C607 1.394 . S
C606 H614 0.930 . S
C607 C606 1.394 . S
C607 C608 1.383 . S
C607 H615 0.929 . S
C608 C607 1.383 . S
C608 C609 1.377 1_556 S
C609 H593 0.930 . S
C609 C608 1.377 1_554 S
C609 C610 1.379 . S
C610 H594 0.931 . S
C610 C604 1.383 1_554 S
C610 C609 1.379 . S
H611 C605 0.959 . S
H612 C605 0.961 . S
H613 C605 0.960 . S
H614 C606 0.930 . S
H615 C607 0.929 . S
H616 C624 0.929 . S
H617 C626 0.930 . S
H618 C628 0.930 . S
H619 C631 0.929 . S
H620 C634 0.930 . S
H621 C636 0.960 . S
H622 C636 0.960 . S
H623 C636 0.960 . S
C624 H616 0.929 . S
C624 C625 1.377 . S
C624 C626 1.384 . S
C625 C624 1.377 . S
C625 C631 1.390 . S
C626 H617 0.930 . S
C626 C624 1.384 . S
C626 C627 1.372 . S
C627 C626 1.372 . S
C627 C628 1.400 . S
C627 C632 1.490 . S
C628 H618 0.930 . S
C628 C627 1.400 . S
C628 C631 1.386 . S
H629 C645 0.930 . S
H630 C646 0.931 . S
C631 H619 0.929 . S
C631 C625 1.390 . S
C631 C628 1.386 . S
C632 C627 1.490 . S
C632 C634 1.395 1_556 S
C632 C635 1.403 . S
H633 C639 0.930 . S
C634 H620 0.930 . S
C634 C632 1.395 1_554 S
C634 C637 1.403 . S
C635 C632 1.403 . S
C635 C636 1.524 . S
C635 C639 1.400 . S
C636 H621 0.960 . S
C636 H622 0.960 . S
C636 H623 0.960 . S
C636 C635 1.524 . S
C637 C634 1.403 . S
C637 C638 1.392 . S
C637 C641 1.495 . S
C638 C637 1.392 . S
C638 C639 1.385 1_554 S
C638 C640 1.478 . S
C639 H633 0.930 . S
C639 C635 1.400 . S
C639 C638 1.385 1_556 S
C640 C638 1.478 . S
C640 C642 1.381 . S
C640 C646 1.383 . S
C641 C637 1.495 . S
C641 H647 0.959 . S
C641 H648 0.961 . S
C641 H649 0.960 . S
C642 C640 1.381 . S
C642 C643 1.394 . S
C642 H650 0.930 . S
C643 C642 1.394 . S
C643 C644 1.383 . S
C643 H651 0.929 . S
C644 C643 1.383 . S
C644 C645 1.377 . S
C645 H629 0.930 . S
C645 C644 1.377 . S
C645 C646 1.379 . S
C646 H630 0.931 . S
C646 C640 1.383 . S
C646 C645 1.379 . S
H647 C641 0.959 . S
H648 C641 0.961 . S
H649 C641 0.960 . S
H650 C642 0.930 . S
H651 C643 0.929 . S
H652 C660 0.929 . S
H653 C662 0.930 . S
H654 C664 0.930 . S
H655 C667 0.929 . S
H656 C670 0.930 . S
H657 C672 0.960 . S
H658 C672 0.960 . S
H659 C672 0.960 . S
C660 H652 0.929 . S
C660 C661 1.377 1_554 S
C660 C662 1.384 . S
C661 C660 1.377 1_556 S
C661 C667 1.390 . S
C662 H653 0.930 . S
C662 C660 1.384 . S
C662 C663 1.372 1_554 S
C663 C662 1.372 1_556 S
C663 C664 1.400 . S
C663 C668 1.490 . S
C664 H654 0.930 . S
C664 C663 1.400 . S
C664 C667 1.386 . S
H665 C681 0.930 1_556 S
H666 C682 0.931 . S
C667 H655 0.929 . S
C667 C661 1.390 . S
C667 C664 1.386 . S
C668 C663 1.490 . S
C668 C670 1.395 1_556 S
C668 C671 1.403 . S
H669 C675 0.930 . S
C670 H656 0.930 . S
C670 C668 1.395 1_554 S
C670 C673 1.403 1_545 S
C671 C668 1.403 . S
C671 C672 1.524 . S
C671 C675 1.400 1_545 S
C672 H657 0.960 . S
C672 H658 0.960 . S
C672 H659 0.960 . S
C672 C671 1.524 . S
C673 C670 1.403 1_565 S
C673 C674 1.392 . S
C673 C677 1.495 . S
C674 C673 1.392 . S
C674 C675 1.385 1_554 S
C674 C676 1.478 . S
C675 H669 0.930 . S
C675 C671 1.400 1_565 S
C675 C674 1.385 1_556 S
C676 C674 1.478 . S
C676 C678 1.381 . S
C676 C682 1.383 1_554 S
C677 C673 1.495 . S
C677 H683 0.959 . S
C677 H684 0.961 . S
C677 H685 0.960 . S
C678 C676 1.381 . S
C678 C679 1.394 . S
C678 H686 0.930 . S
C679 C678 1.394 . S
C679 C680 1.383 . S
C679 H687 0.929 . S
C680 C679 1.383 . S
C680 C681 1.377 . S
C681 H665 0.930 1_554 S
C681 C680 1.377 . S
C681 C682 1.379 1_554 S
C682 H666 0.931 . S
C682 C676 1.383 1_556 S
C682 C681 1.379 1_556 S
H683 C677 0.959 . S
H684 C677 0.961 . S
H685 C677 0.960 . S
H686 C678 0.930 . S
H687 C679 0.929 . S
H688 C696 0.929 . S
H689 C698 0.930 . S
H690 C700 0.930 . S
H691 C703 0.929 . S
H692 C706 0.930 . S
H693 C708 0.960 . S
H694 C708 0.960 . S
H695 C708 0.960 . S
C696 H688 0.929 . S
C696 C697 1.377 . S
C696 C698 1.384 . S
C697 C696 1.377 . S
C697 C703 1.390 . S
C698 H689 0.930 . S
C698 C696 1.384 . S
C698 C699 1.372 . S
C699 C698 1.372 . S
C699 C700 1.400 . S
C699 C704 1.490 . S
C700 H690 0.930 . S
C700 C699 1.400 . S
C700 C703 1.386 . S
H701 C717 0.930 . S
H702 C718 0.931 . S
C703 H691 0.929 . S
C703 C697 1.390 . S
C703 C700 1.386 . S
C704 C699 1.490 . S
C704 C706 1.395 . S
C704 C707 1.403 . S
H705 C711 0.930 . S
C706 H692 0.930 . S
C706 C704 1.395 . S
C706 C709 1.403 . S
C707 C704 1.403 . S
C707 C708 1.524 . S
C707 C711 1.400 . S
C708 H693 0.960 . S
C708 H694 0.960 . S
C708 H695 0.960 . S
C708 C707 1.524 . S
C709 C706 1.403 . S
C709 C710 1.394 . S
C709 C713 1.495 . S
C710 C709 1.394 . S
C710 C711 1.387 . S
C710 C712 1.474 1_554 S
C711 H705 0.930 . S
C711 C707 1.400 . S
C711 C710 1.387 . S
C712 C710 1.474 1_556 S
C712 C714 1.381 . S
C712 C718 1.383 . S
C713 C709 1.495 . S
C713 H719 0.959 . S
C713 H720 0.961 1_554 S
C713 H721 0.960 1_554 S
C714 C712 1.381 . S
C714 C715 1.394 . S
C714 H722 0.930 . S
C715 C714 1.394 . S
C715 C716 1.383 . S
C715 H723 0.929 . S
C716 C715 1.383 . S
C716 C717 1.377 . S
C717 H701 0.930 . S
C717 C716 1.377 . S
C717 C718 1.379 . S
C718 H702 0.931 . S
C718 C712 1.383 . S
C718 C717 1.379 . S
H719 C713 0.959 . S
H720 C713 0.961 1_556 S
H721 C713 0.960 1_556 S
H722 C714 0.930 . S
H723 C715 0.929 . S
H724 C732 0.929 . S
H725 C734 0.930 . S
H726 C736 0.930 . S
H727 C739 0.929 . S
H728 C742 0.930 . S
H729 C744 0.960 . S
H730 C744 0.960 . S
H731 C744 0.960 . S
C732 H724 0.929 . S
C732 C733 1.377 . S
C732 C734 1.384 . S
C733 C732 1.377 . S
C733 C739 1.390 . S
C734 H725 0.930 . S
C734 C732 1.384 . S
C734 C735 1.372 . S
C735 C734 1.372 . S
C735 C736 1.400 . S
C735 C740 1.490 . S
C736 H726 0.930 . S
C736 C735 1.400 . S
C736 C739 1.386 . S
H737 C753 0.930 . S
H738 C754 0.931 . S
C739 H727 0.929 . S
C739 C733 1.390 . S
C739 C736 1.386 . S
C740 C735 1.490 . S
C740 C742 1.395 . S
C740 C743 1.403 . S
H741 C747 0.930 . S
C742 H728 0.930 . S
C742 C740 1.395 . S
C742 C745 1.403 . S
C743 C740 1.403 . S
C743 C744 1.524 . S
C743 C747 1.400 . S
C744 H729 0.960 . S
C744 H730 0.960 . S
C744 H731 0.960 . S
C744 C743 1.524 . S
C745 C742 1.403 . S
C745 C746 1.390 1_554 S
C745 C749 1.495 . S
C746 C745 1.390 1_556 S
C746 C747 1.383 1_556 S
C746 C748 1.481 . S
C747 H741 0.930 . S
C747 C743 1.400 . S
C747 C746 1.383 1_554 S
C748 C746 1.481 . S
C748 C750 1.381 . S
C748 C754 1.383 . S
C749 C745 1.495 . S
C749 H755 0.959 . S
C749 H756 0.961 1_554 S
C749 H757 0.960 1_554 S
C750 C748 1.381 . S
C750 C751 1.394 . S
C750 H758 0.930 . S
C751 C750 1.394 . S
C751 C752 1.383 . S
C751 H759 0.929 . S
C752 C751 1.383 . S
C752 C753 1.377 . S
C753 H737 0.930 . S
C753 C752 1.377 . S
C753 C754 1.379 . S
C754 H738 0.931 . S
C754 C748 1.383 . S
C754 C753 1.379 . S
H755 C749 0.959 . S
H756 C749 0.961 1_556 S
H757 C749 0.960 1_556 S
H758 C750 0.930 . S
H759 C751 0.929 . S
H760 C768 0.929 . S
H761 C770 0.930 . S
H762 C772 0.930 . S
H763 C775 0.929 . S
H764 C778 0.930 . S
H765 C780 0.960 . S
H766 C780 0.960 1_554 S
H767 C780 0.960 1_554 S
C768 H760 0.929 . S
C768 C769 1.377 . S
C768 C770 1.384 . S
C769 C768 1.377 . S
C769 C775 1.390 . S
C770 H761 0.930 . S
C770 C768 1.384 . S
C770 C771 1.372 . S
C771 C770 1.372 . S
C771 C772 1.400 . S
C771 C776 1.490 1_554 S
C772 H762 0.930 . S
C772 C771 1.400 . S
C772 C775 1.386 . S
H773 C789 0.930 . S
H774 C790 0.931 . S
C775 H763 0.929 . S
C775 C769 1.390 . S
C775 C772 1.386 . S
C776 C771 1.490 1_556 S
C776 C778 1.395 . S
C776 C779 1.403 . S
H777 C783 0.930 . S
C778 H764 0.930 . S
C778 C776 1.395 . S
C778 C781 1.403 . S
C779 C776 1.403 . S
C779 C780 1.524 . S
C779 C783 1.400 . S
C780 H765 0.960 . S
C780 H766 0.960 1_556 S
C780 H767 0.960 1_556 S
C780 C779 1.524 . S
C781 C778 1.403 . S
C781 C782 1.392 . S
C781 C785 1.495 . S
C782 C781 1.392 . S
C782 C783 1.385 . S
C782 C784 1.478 . S
C783 H777 0.930 . S
C783 C779 1.400 . S
C783 C782 1.385 . S
C784 C782 1.478 . S
C784 C786 1.381 . S
C784 C790 1.383 . S
C785 C781 1.495 . S
C785 H791 0.959 . S
C785 H792 0.961 . S
C785 H793 0.960 . S
C786 C784 1.381 . S
C786 C787 1.394 . S
C786 H794 0.930 . S
C787 C786 1.394 . S
C787 C788 1.383 . S
C787 H795 0.929 . S
C788 C787 1.383 . S
C788 C789 1.377 . S
C789 H773 0.930 . S
C789 C788 1.377 . S
C789 C790 1.379 . S
C790 H774 0.931 . S
C790 C784 1.383 . S
C790 C789 1.379 . S
H791 C785 0.959 . S
H792 C785 0.961 . S
H793 C785 0.960 . S
H794 C786 0.930 . S
H795 C787 0.929 . S
H796 C804 0.929 . S
H797 C806 0.930 . S
H798 C808 0.930 . S
H799 C811 0.929 . S
H800 C814 0.930 . S
H801 C816 0.960 . S
H802 C816 0.960 . S
H803 C816 0.960 . S
C804 H796 0.929 . S
C804 C805 1.377 . S
C804 C806 1.384 . S
C805 C804 1.377 . S
C805 C811 1.390 . S
C806 H797 0.930 . S
C806 C804 1.384 . S
C806 C807 1.372 . S
C807 C806 1.372 . S
C807 C808 1.400 . S
C807 C812 1.490 . S
C808 H798 0.930 . S
C808 C807 1.400 . S
C808 C811 1.386 . S
H809 C825 0.930 . S
H810 C826 0.931 . S
C811 H799 0.929 . S
C811 C805 1.390 . S
C811 C808 1.386 . S
C812 C807 1.490 . S
C812 C814 1.395 . S
C812 C815 1.403 . S
H813 C819 0.930 . S
C814 H800 0.930 . S
C814 C812 1.395 . S
C814 C817 1.403 . S
C815 C812 1.403 . S
C815 C816 1.524 . S
C815 C819 1.400 . S
C816 H801 0.960 . S
C816 H802 0.960 . S
C816 H803 0.960 . S
C816 C815 1.524 . S
C817 C814 1.403 . S
C817 C818 1.394 . S
C817 C821 1.495 . S
C818 C817 1.394 . S
C818 C819 1.387 . S
C818 C820 1.474 1_556 S
C819 H813 0.930 . S
C819 C815 1.400 . S
C819 C818 1.387 . S
C820 C818 1.474 1_554 S
C820 C822 1.381 . S
C820 C826 1.383 . S
C821 C817 1.495 . S
C821 H827 0.959 . S
C821 H828 0.961 1_556 S
C821 H829 0.960 1_556 S
C822 C820 1.381 . S
C822 C823 1.394 . S
C822 H830 0.930 . S
C823 C822 1.394 . S
C823 C824 1.383 . S
C823 H831 0.929 . S
C824 C823 1.383 . S
C824 C825 1.377 . S
C825 H809 0.930 . S
C825 C824 1.377 . S
C825 C826 1.379 . S
C826 H810 0.931 . S
C826 C820 1.383 . S
C826 C825 1.379 . S
H827 C821 0.959 . S
H828 C821 0.961 1_554 S
H829 C821 0.960 1_554 S
H830 C822 0.930 . S
H831 C823 0.929 . S
H832 C840 0.929 . S
H833 C842 0.930 . S
H834 C844 0.930 . S
H835 C847 0.929 . S
H836 C850 0.930 . S
H837 C852 0.960 . S
H838 C852 0.960 . S
H839 C852 0.960 . S
C840 H832 0.929 . S
C840 C841 1.377 . S
C840 C842 1.384 . S
C841 C840 1.377 . S
C841 C847 1.390 . S
C842 H833 0.930 . S
C842 C840 1.384 . S
C842 C843 1.372 . S
C843 C842 1.372 . S
C843 C844 1.400 . S
C843 C848 1.490 . S
C844 H834 0.930 . S
C844 C843 1.400 . S
C844 C847 1.386 . S
H845 C861 0.930 . S
H846 C862 0.931 . S
C847 H835 0.929 . S
C847 C841 1.390 . S
C847 C844 1.386 . S
C848 C843 1.490 . S
C848 C850 1.395 . S
C848 C851 1.403 . S
H849 C855 0.930 . S
C850 H836 0.930 . S
C850 C848 1.395 . S
C850 C853 1.403 . S
C851 C848 1.403 . S
C851 C852 1.524 . S
C851 C855 1.400 . S
C852 H837 0.960 . S
C852 H838 0.960 . S
C852 H839 0.960 . S
C852 C851 1.524 . S
C853 C850 1.403 . S
C853 C854 1.392 . S
C853 C857 1.495 . S
C854 C853 1.392 . S
C854 C855 1.385 . S
C854 C856 1.478 . S
C855 H849 0.930 . S
C855 C851 1.400 . S
C855 C854 1.385 . S
C856 C854 1.478 . S
C856 C858 1.381 . S
C856 C862 1.383 . S
C857 C853 1.495 . S
C857 H863 0.959 . S
C857 H864 0.961 . S
C857 H865 0.960 . S
C858 C856 1.381 . S
C858 C859 1.394 . S
C858 H866 0.930 . S
C859 C858 1.394 . S
C859 C860 1.383 . S
C859 H867 0.929 . S
C860 C859 1.383 . S
C860 C861 1.377 . S
C861 H845 0.930 . S
C861 C860 1.377 . S
C861 C862 1.379 . S
C862 H846 0.931 . S
C862 C856 1.383 . S
C862 C861 1.379 . S
H863 C857 0.959 . S
H864 C857 0.961 . S
H865 C857 0.960 . S
H866 C858 0.930 . S
H867 C859 0.929 . S
H868 C876 0.929 . S
H869 C878 0.930 . S
H870 C880 0.930 . S
H871 C883 0.929 . S
H872 C886 0.930 . S
H873 C888 0.960 . S
H874 C888 0.960 . S
H875 C888 0.960 . S
C876 H868 0.929 . S
C876 C877 1.377 . S
C876 C878 1.384 . S
C877 C876 1.377 . S
C877 C883 1.390 . S
C878 H869 0.930 . S
C878 C876 1.384 . S
C878 C879 1.372 . S
C879 C878 1.372 . S
C879 C880 1.400 . S
C879 C884 1.490 . S
C880 H870 0.930 . S
C880 C879 1.400 . S
C880 C883 1.386 . S
H881 C897 0.930 . S
H882 C898 0.931 . S
C883 H871 0.929 . S
C883 C877 1.390 . S
C883 C880 1.386 . S
C884 C879 1.490 . S
C884 C886 1.395 . S
C884 C887 1.403 . S
H885 C891 0.930 . S
C886 H872 0.930 . S
C886 C884 1.395 . S
C886 C889 1.403 . S
C887 C884 1.403 . S
C887 C888 1.524 . S
C887 C891 1.400 . S
C888 H873 0.960 . S
C888 H874 0.960 . S
C888 H875 0.960 . S
C888 C887 1.524 . S
C889 C886 1.403 . S
C889 C890 1.392 . S
C889 C893 1.495 . S
C890 C889 1.392 . S
C890 C891 1.385 . S
C890 C892 1.478 . S
C891 H885 0.930 . S
C891 C887 1.400 . S
C891 C890 1.385 . S
C892 C890 1.478 . S
C892 C894 1.381 . S
C892 C898 1.383 . S
C893 C889 1.495 . S
C893 H899 0.959 . S
C893 H900 0.961 . S
C893 H901 0.960 . S
C894 C892 1.381 . S
C894 C895 1.394 . S
C894 H902 0.930 . S
C895 C894 1.394 . S
C895 C896 1.383 . S
C895 H903 0.929 . S
C896 C895 1.383 . S
C896 C897 1.377 . S
C897 H881 0.930 . S
C897 C896 1.377 . S
C897 C898 1.379 . S
C898 H882 0.931 . S
C898 C892 1.383 . S
C898 C897 1.379 . S
H899 C893 0.959 . S
H900 C893 0.961 . S
H901 C893 0.960 . S
H902 C894 0.930 . S
H903 C895 0.929 . S
H904 C912 0.929 . S
H905 C914 0.930 . S
H906 C916 0.930 . S
H907 C919 0.929 . S
H908 C922 0.930 . S
H909 C924 0.960 . S
H910 C924 0.960 . S
H911 C924 0.960 . S
C912 H904 0.929 . S
C912 C913 1.377 . S
C912 C914 1.384 . S
C913 C912 1.377 . S
C913 C919 1.390 . S
C914 H905 0.930 . S
C914 C912 1.384 . S
C914 C915 1.372 . S
C915 C914 1.372 . S
C915 C916 1.400 . S
C915 C920 1.490 . S
C916 H906 0.930 . S
C916 C915 1.400 . S
C916 C919 1.386 . S
H917 C933 0.930 . S
H918 C934 0.931 . S
C919 H907 0.929 . S
C919 C913 1.390 . S
C919 C916 1.386 . S
C920 C915 1.490 . S
C920 C922 1.395 . S
C920 C923 1.403 . S
H921 C927 0.930 . S
C922 H908 0.930 . S
C922 C920 1.395 . S
C922 C925 1.403 . S
C923 C920 1.403 . S
C923 C924 1.524 . S
C923 C927 1.400 . S
C924 H909 0.960 . S
C924 H910 0.960 . S
C924 H911 0.960 . S
C924 C923 1.524 . S
C925 C922 1.403 . S
C925 C926 1.392 . S
C925 C929 1.495 . S
C926 C925 1.392 . S
C926 C927 1.385 . S
C926 C928 1.478 . S
C927 H921 0.930 . S
C927 C923 1.400 . S
C927 C926 1.385 . S
C928 C926 1.478 . S
C928 C930 1.381 . S
C928 C934 1.383 . S
C929 C925 1.495 . S
C929 H935 0.959 . S
C929 H936 0.961 . S
C929 H937 0.960 . S
C930 C928 1.381 . S
C930 C931 1.394 . S
C930 H938 0.930 . S
C931 C930 1.394 . S
C931 C932 1.383 . S
C931 H939 0.929 . S
C932 C931 1.383 . S
C932 C933 1.377 . S
C933 H917 0.930 . S
C933 C932 1.377 . S
C933 C934 1.379 . S
C934 H918 0.931 . S
C934 C928 1.383 . S
C934 C933 1.379 . S
H935 C929 0.959 . S
H936 C929 0.961 . S
H937 C929 0.960 . S
H938 C930 0.930 . S
H939 C931 0.929 . S
H940 C948 0.929 . S
H941 C950 0.930 . S
H942 C952 0.930 . S
H943 C955 0.929 . S
H944 C958 0.930 . S
H945 C960 0.960 . S
H946 C960 0.960 . S
H947 C960 0.960 . S
C948 H940 0.929 . S
C948 C949 1.377 . S
C948 C950 1.384 . S
C949 C948 1.377 . S
C949 C955 1.390 . S
C950 H941 0.930 . S
C950 C948 1.384 . S
C950 C951 1.372 . S
C951 C950 1.372 . S
C951 C952 1.400 . S
C951 C956 1.490 . S
C952 H942 0.930 . S
C952 C951 1.400 . S
C952 C955 1.386 . S
H953 C969 0.930 . S
H954 C970 0.931 . S
C955 H943 0.929 . S
C955 C949 1.390 . S
C955 C952 1.386 . S
C956 C951 1.490 . S
C956 C958 1.395 . S
C956 C959 1.403 . S
H957 C963 0.930 . S
C958 H944 0.930 . S
C958 C956 1.395 . S
C958 C961 1.403 . S
C959 C956 1.403 . S
C959 C960 1.524 . S
C959 C963 1.400 . S
C960 H945 0.960 . S
C960 H946 0.960 . S
C960 H947 0.960 . S
C960 C959 1.524 . S
C961 C958 1.403 . S
C961 C962 1.392 . S
C961 C965 1.495 . S
C962 C961 1.392 . S
C962 C963 1.385 . S
C962 C964 1.478 . S
C963 H957 0.930 . S
C963 C959 1.400 . S
C963 C962 1.385 . S
C964 C962 1.478 . S
C964 C966 1.381 . S
C964 C970 1.383 . S
C965 C961 1.495 . S
C965 H971 0.959 . S
C965 H972 0.961 . S
C965 H973 0.960 . S
C966 C964 1.381 . S
C966 C967 1.394 . S
C966 H974 0.930 . S
C967 C966 1.394 . S
C967 C968 1.383 . S
C967 H975 0.929 . S
C968 C967 1.383 . S
C968 C969 1.377 . S
C969 H953 0.930 . S
C969 C968 1.377 . S
C969 C970 1.379 . S
C970 H954 0.931 . S
C970 C964 1.383 . S
C970 C969 1.379 . S
H971 C965 0.959 . S
H972 C965 0.961 . S
H973 C965 0.960 . S
H974 C966 0.930 . S
H975 C967 0.929 . S
H976 C984 0.929 . S
H977 C986 0.930 . S
H978 C988 0.930 . S
H979 C991 0.929 . S
H980 C994 0.930 . S
H981 C996 0.960 . S
H982 C996 0.960 . S
H983 C996 0.960 . S
C984 H976 0.929 . S
C984 C985 1.377 . S
C984 C986 1.384 . S
C985 C984 1.377 . S
C985 C991 1.390 . S
C986 H977 0.930 . S
C986 C984 1.384 . S
C986 C987 1.372 . S
C987 C986 1.372 . S
C987 C988 1.400 . S
C987 C992 1.490 . S
C988 H978 0.930 . S
C988 C987 1.400 . S
C988 C991 1.386 . S
H989 C1005 0.930 . S
H990 C1006 0.931 . S
C991 H979 0.929 . S
C991 C985 1.390 . S
C991 C988 1.386 . S
C992 C987 1.490 . S
C992 C994 1.395 . S
C992 C995 1.403 . S
H993 C999 0.930 . S
C994 H980 0.930 . S
C994 C992 1.395 . S
C994 C997 1.403 1_455 S
C995 C992 1.403 . S
C995 C996 1.524 . S
C995 C999 1.400 1_455 S
C996 H981 0.960 . S
C996 H982 0.960 . S
C996 H983 0.960 . S
C996 C995 1.524 . S
C997 C994 1.403 1_655 S
C997 C998 1.392 . S
C997 C1001 1.495 . S
C998 C997 1.392 . S
C998 C999 1.385 . S
C998 C1000 1.478 . S
C999 H993 0.930 . S
C999 C995 1.400 1_655 S
C999 C998 1.385 . S
C1000 C998 1.478 . S
C1000 C1002 1.381 . S
C1000 C1006 1.383 . S
C1001 C997 1.495 . S
C1001 H1007 0.959 . S
C1001 H1008 0.961 . S
C1001 H1009 0.960 . S
C1002 C1000 1.381 . S
C1002 C1003 1.394 . S
C1002 H1010 0.930 . S
C1003 C1002 1.394 . S
C1003 C1004 1.383 . S
C1003 H1011 0.929 . S
C1004 C1003 1.383 . S
C1004 C1005 1.377 . S
C1005 H989 0.930 . S
C1005 C1004 1.377 . S
C1005 C1006 1.379 . S
C1006 H990 0.931 . S
C1006 C1000 1.383 . S
C1006 C1005 1.379 . S
H1007 C1001 0.959 . S
H1008 C1001 0.961 . S
H1009 C1001 0.960 . S
H1010 C1002 0.930 . S
H1011 C1003 0.929 . S
H1012 C1020 0.929 . S
H1013 C1022 0.930 . S
H1014 C1024 0.930 . S
H1015 C1027 0.929 . S
H1016 C1030 0.930 . S
H1017 C1032 0.960 . S
H1018 C1032 0.960 . S
H1019 C1032 0.960 . S
C1020 H1012 0.929 . S
C1020 C1021 1.377 . S
C1020 C1022 1.384 . S
C1021 C1020 1.377 . S
C1021 C1027 1.390 . S
C1022 H1013 0.930 . S
C1022 C1020 1.384 . S
C1022 C1023 1.372 . S
C1023 C1022 1.372 . S
C1023 C1024 1.400 . S
C1023 C1028 1.490 . S
C1024 H1014 0.930 . S
C1024 C1023 1.400 . S
C1024 C1027 1.386 . S
H1025 C1041 0.930 . S
H1026 C1042 0.931 . S
C1027 H1015 0.929 . S
C1027 C1021 1.390 . S
C1027 C1024 1.386 . S
C1028 C1023 1.490 . S
C1028 C1030 1.395 . S
C1028 C1031 1.403 . S
H1029 C1035 0.930 . S
C1030 H1016 0.930 . S
C1030 C1028 1.395 . S
C1030 C1033 1.403 1_655 S
C1031 C1028 1.403 . S
C1031 C1032 1.524 . S
C1031 C1035 1.400 1_655 S
C1032 H1017 0.960 . S
C1032 H1018 0.960 . S
C1032 H1019 0.960 . S
C1032 C1031 1.524 . S
C1033 C1030 1.403 1_455 S
C1033 C1034 1.392 . S
C1033 C1037 1.495 . S
C1034 C1033 1.392 . S
C1034 C1035 1.385 . S
C1034 C1036 1.478 . S
C1035 H1029 0.930 . S
C1035 C1031 1.400 1_455 S
C1035 C1034 1.385 . S
C1036 C1034 1.478 . S
C1036 C1038 1.381 . S
C1036 C1042 1.383 . S
C1037 C1033 1.495 . S
C1037 H1043 0.959 . S
C1037 H1044 0.961 . S
C1037 H1045 0.960 . S
C1038 C1036 1.381 . S
C1038 C1039 1.394 . S
C1038 H1046 0.930 . S
C1039 C1038 1.394 . S
C1039 C1040 1.383 . S
C1039 H1047 0.929 . S
C1040 C1039 1.383 . S
C1040 C1041 1.377 . S
C1041 H1025 0.930 . S
C1041 C1040 1.377 . S
C1041 C1042 1.379 . S
C1042 H1026 0.931 . S
C1042 C1036 1.383 . S
C1042 C1041 1.379 . S
H1043 C1037 0.959 . S
H1044 C1037 0.961 . S
H1045 C1037 0.960 . S
H1046 C1038 0.930 . S
H1047 C1039 0.929 . S
H1048 C1056 0.929 . S
H1049 C1058 0.930 . S
H1050 C1060 0.930 . S
H1051 C1063 0.929 . S
H1052 C1066 0.930 . S
H1053 C1068 0.960 . S
H1054 C1068 0.960 1_556 S
H1055 C1068 0.960 . S
C1056 H1048 0.929 . S
C1056 C1057 1.377 1_556 S
C1056 C1058 1.384 . S
C1057 C1056 1.377 1_554 S
C1057 C1063 1.390 . S
C1058 H1049 0.930 . S
C1058 C1056 1.384 . S
C1058 C1059 1.372 1_556 S
C1059 C1058 1.372 1_554 S
C1059 C1060 1.400 . S
C1059 C1064 1.490 . S
C1060 H1050 0.930 . S
C1060 C1059 1.400 . S
C1060 C1063 1.386 . S
H1061 C1077 0.930 . S
H1062 C1078 0.931 . S
C1063 H1051 0.929 . S
C1063 C1057 1.390 . S
C1063 C1060 1.386 . S
C1064 C1059 1.490 . S
C1064 C1066 1.395 . S
C1064 C1067 1.403 . S
H1065 C1071 0.930 . S
C1066 H1052 0.930 . S
C1066 C1064 1.395 . S
C1066 C1069 1.403 . S
C1067 C1064 1.403 . S
C1067 C1068 1.524 . S
C1067 C1071 1.400 . S
C1068 H1053 0.960 . S
C1068 H1054 0.960 1_554 S
C1068 H1055 0.960 . S
C1068 C1067 1.524 . S
C1069 C1066 1.403 . S
C1069 C1070 1.392 . S
C1069 C1073 1.495 . S
C1070 C1069 1.392 . S
C1070 C1071 1.385 . S
C1070 C1072 1.478 . S
C1071 H1065 0.930 . S
C1071 C1067 1.400 . S
C1071 C1070 1.385 . S
C1072 C1070 1.478 . S
C1072 C1074 1.381 1_554 S
C1072 C1078 1.383 . S
C1073 C1069 1.495 . S
C1073 H1079 0.959 . S
C1073 H1080 0.961 . S
C1073 H1081 0.960 1_554 S
C1074 C1072 1.381 1_556 S
C1074 C1075 1.394 . S
C1074 H1082 0.930 . S
C1075 C1074 1.394 . S
C1075 C1076 1.383 1_556 S
C1075 H1083 0.929 . S
C1076 C1075 1.383 1_554 S
C1076 C1077 1.377 . S
C1077 H1061 0.930 . S
C1077 C1076 1.377 . S
C1077 C1078 1.379 . S
C1078 H1062 0.931 . S
C1078 C1072 1.383 . S
C1078 C1077 1.379 . S
H1079 C1073 0.959 . S
H1080 C1073 0.961 . S
H1081 C1073 0.960 1_556 S
H1082 C1074 0.930 . S
H1083 C1075 0.929 . S
H1084 C1092 0.929 . S
H1085 C1094 0.930 . S
H1086 C1096 0.930 . S
H1087 C1099 0.929 . S
H1088 C1102 0.930 . S
H1089 C1104 0.960 . S
H1090 C1104 0.960 . S
H1091 C1104 0.960 . S
C1092 H1084 0.929 . S
C1092 C1093 1.377 1_554 S
C1092 C1094 1.384 . S
C1093 C1092 1.377 1_556 S
C1093 C1099 1.390 . S
C1094 H1085 0.930 . S
C1094 C1092 1.384 . S
C1094 C1095 1.372 1_554 S
C1095 C1094 1.372 1_556 S
C1095 C1096 1.400 . S
C1095 C1100 1.490 . S
C1096 H1086 0.930 . S
C1096 C1095 1.400 . S
C1096 C1099 1.386 . S
H1097 C1113 0.930 . S
H1098 C1114 0.931 . S
C1099 H1087 0.929 . S
C1099 C1093 1.390 . S
C1099 C1096 1.386 . S
C1100 C1095 1.490 . S
C1100 C1102 1.395 . S
C1100 C1103 1.403 . S
H1101 C1107 0.930 . S
C1102 H1088 0.930 . S
C1102 C1100 1.395 . S
C1102 C1105 1.403 . S
C1103 C1100 1.403 . S
C1103 C1104 1.524 . S
C1103 C1107 1.400 . S
C1104 H1089 0.960 . S
C1104 H1090 0.960 . S
C1104 H1091 0.960 . S
C1104 C1103 1.524 . S
C1105 C1102 1.403 . S
C1105 C1106 1.392 . S
C1105 C1109 1.497 . S
C1106 C1105 1.392 . S
C1106 C1107 1.385 . S
C1106 C1108 1.478 . S
C1107 H1101 0.930 . S
C1107 C1103 1.400 . S
C1107 C1106 1.385 . S
C1108 C1106 1.478 . S
C1108 C1110 1.381 1_556 S
C1108 C1114 1.383 . S
C1109 C1105 1.497 . S
C1109 H1115 0.957 1_556 S
C1109 H1116 0.968 . S
C1109 H1117 0.953 1_556 S
C1110 C1108 1.381 1_554 S
C1110 C1111 1.394 . S
C1110 H1118 0.930 . S
C1111 C1110 1.394 . S
C1111 C1112 1.383 1_554 S
C1111 H1119 0.929 . S
C1112 C1111 1.383 1_556 S
C1112 C1113 1.377 . S
C1113 H1097 0.930 . S
C1113 C1112 1.377 . S
C1113 C1114 1.379 . S
C1114 H1098 0.931 . S
C1114 C1108 1.383 . S
C1114 C1113 1.379 . S
H1115 C1109 0.957 1_554 S
H1116 C1109 0.968 . S
H1117 C1109 0.953 1_554 S
H1118 C1110 0.930 . S
H1119 C1111 0.929 . S
C265 C2 1.684 . S
C284 C230 1.688 . S
C301 C198 1.682 . S
C320 C38 1.669 . S
C337 C162 1.685 . S
C356 C70 1.678 . S
C373 C130 1.684 . S
C392 C98 1.689 . S
C409 N82 1.651 . S
C428 N13 1.660 . S
C445 N50 1.647 . S
C464 N109 1.640 . S
C481 N114 1.396 . S
C500 N45 1.413 . S
C517 N77 1.390 . S
C536 N18 1.399 . S
C553 N141 1.647 . S
C572 N210 1.638 . S
C589 N173 1.653 . S
C608 N242 1.651 . S
C625 N237 1.397 . S
C644 N178 1.421 . S
C661 N205 1.391 . S
C680 N146 1.385 . S
C697 C6 1.234 . S
C716 C4 1.234 . S
C733 C34 1.232 . S
C752 C61 1.232 . S
C769 C93 1.230 . S
C788 C66 1.234 . S
C805 C102 1.233 . S
C824 C100 1.235 . S
C841 C132 1.231 . S
C860 C134 1.228 . S
C877 C166 1.233 . S
C896 C164 1.237 . S
C913 C194 1.232 . S
C932 C221 1.219 . S
C949 C226 1.232 . S
C968 C253 1.233 . S
C985 C29 1.605 . S
C1004 C36 1.587 . S
C1021 C125 1.604 . S
C1040 C68 1.599 . S
C1057 C157 1.605 . S
C1076 C189 1.596 . S
C1093 C228 1.604 . S
C1112 C196 1.599 . S
