# Generated by pormake.
# Topology lta, (4)-cn, num edge types: 1
# Building blocks:
#     Node 0, Type 0, BuildingBlock: UXUYUI_clean_sbu_0, # of connection points: 4
#     Node 1, Type 0, BuildingBlock: UXUYUI_clean_sbu_0, # of connection points: 4
#     Node 2, Type 0, BuildingBlock: UXUYUI_clean_sbu_0, # of connection points: 4
#     Node 3, Type 0, BuildingBlock: UXUYUI_clean_sbu_0, # of connection points: 4
#     Node 4, Type 0, BuildingBlock: UXUYUI_clean_sbu_0, # of connection points: 4
#     Node 5, Type 0, BuildingBlock: UXUYUI_clean_sbu_0, # of connection points: 4
#     Node 6, Type 0, BuildingBlock: UXUYUI_clean_sbu_0, # of connection points: 4
#     Node 7, Type 0, BuildingBlock: UXUYUI_clean_sbu_0, # of connection points: 4
#     Node 8, Type 0, BuildingBlock: UXUYUI_clean_sbu_0, # of connection points: 4
#     Node 9, Type 0, BuildingBlock: UXUYUI_clean_sbu_0, # of connection points: 4
#     Node 10, Type 0, BuildingBlock: UXUYUI_clean_sbu_0, # of connection points: 4
#     Node 11, Type 0, BuildingBlock: UXUYUI_clean_sbu_0, # of connection points: 4
#     Node 12, Type 0, BuildingBlock: UXUYUI_clean_sbu_0, # of connection points: 4
#     Node 13, Type 0, BuildingBlock: UXUYUI_clean_sbu_0, # of connection points: 4
#     Node 14, Type 0, BuildingBlock: UXUYUI_clean_sbu_0, # of connection points: 4
#     Node 15, Type 0, BuildingBlock: UXUYUI_clean_sbu_0, # of connection points: 4
#     Node 16, Type 0, BuildingBlock: UXUYUI_clean_sbu_0, # of connection points: 4
#     Node 17, Type 0, BuildingBlock: UXUYUI_clean_sbu_0, # of connection points: 4
#     Node 18, Type 0, BuildingBlock: UXUYUI_clean_sbu_0, # of connection points: 4
#     Node 19, Type 0, BuildingBlock: UXUYUI_clean_sbu_0, # of connection points: 4
#     Node 20, Type 0, BuildingBlock: UXUYUI_clean_sbu_0, # of connection points: 4
#     Node 21, Type 0, BuildingBlock: UXUYUI_clean_sbu_0, # of connection points: 4
#     Node 22, Type 0, BuildingBlock: UXUYUI_clean_sbu_0, # of connection points: 4
#     Node 23, Type 0, BuildingBlock: UXUYUI_clean_sbu_0, # of connection points: 4
#     Edge 24, Type (0, 0), BuildingBlock: OJICUG_clean_linker_0, # of connection points: 2
#     Edge 25, Type (0, 0), BuildingBlock: OJICUG_clean_linker_0, # of connection points: 2
#     Edge 26, Type (0, 0), BuildingBlock: OJICUG_clean_linker_0, # of connection points: 2
#     Edge 27, Type (0, 0), BuildingBlock: OJICUG_clean_linker_0, # of connection points: 2
#     Edge 28, Type (0, 0), BuildingBlock: OJICUG_clean_linker_0, # of connection points: 2
#     Edge 29, Type (0, 0), BuildingBlock: OJICUG_clean_linker_0, # of connection points: 2
#     Edge 30, Type (0, 0), BuildingBlock: OJICUG_clean_linker_0, # of connection points: 2
#     Edge 31, Type (0, 0), BuildingBlock: OJICUG_clean_linker_0, # of connection points: 2
#     Edge 32, Type (0, 0), BuildingBlock: OJICUG_clean_linker_0, # of connection points: 2
#     Edge 33, Type (0, 0), BuildingBlock: OJICUG_clean_linker_0, # of connection points: 2
#     Edge 34, Type (0, 0), BuildingBlock: OJICUG_clean_linker_0, # of connection points: 2
#     Edge 35, Type (0, 0), BuildingBlock: OJICUG_clean_linker_0, # of connection points: 2
#     Edge 36, Type (0, 0), BuildingBlock: OJICUG_clean_linker_0, # of connection points: 2
#     Edge 37, Type (0, 0), BuildingBlock: OJICUG_clean_linker_0, # of connection points: 2
#     Edge 38, Type (0, 0), BuildingBlock: OJICUG_clean_linker_0, # of connection points: 2
#     Edge 39, Type (0, 0), BuildingBlock: OJICUG_clean_linker_0, # of connection points: 2
#     Edge 40, Type (0, 0), BuildingBlock: OJICUG_clean_linker_0, # of connection points: 2
#     Edge 41, Type (0, 0), BuildingBlock: OJICUG_clean_linker_0, # of connection points: 2
#     Edge 42, Type (0, 0), BuildingBlock: OJICUG_clean_linker_0, # of connection points: 2
#     Edge 43, Type (0, 0), BuildingBlock: OJICUG_clean_linker_0, # of connection points: 2
#     Edge 44, Type (0, 0), BuildingBlock: OJICUG_clean_linker_0, # of connection points: 2
#     Edge 45, Type (0, 0), BuildingBlock: OJICUG_clean_linker_0, # of connection points: 2
#     Edge 46, Type (0, 0), BuildingBlock: OJICUG_clean_linker_0, # of connection points: 2
#     Edge 47, Type (0, 0), BuildingBlock: OJICUG_clean_linker_0, # of connection points: 2
#     Edge 48, Type (0, 0), BuildingBlock: OJICUG_clean_linker_0, # of connection points: 2
#     Edge 49, Type (0, 0), BuildingBlock: OJICUG_clean_linker_0, # of connection points: 2
#     Edge 50, Type (0, 0), BuildingBlock: OJICUG_clean_linker_0, # of connection points: 2
#     Edge 51, Type (0, 0), BuildingBlock: OJICUG_clean_linker_0, # of connection points: 2
#     Edge 52, Type (0, 0), BuildingBlock: OJICUG_clean_linker_0, # of connection points: 2
#     Edge 53, Type (0, 0), BuildingBlock: OJICUG_clean_linker_0, # of connection points: 2
#     Edge 54, Type (0, 0), BuildingBlock: OJICUG_clean_linker_0, # of connection points: 2
#     Edge 55, Type (0, 0), BuildingBlock: OJICUG_clean_linker_0, # of connection points: 2
#     Edge 56, Type (0, 0), BuildingBlock: OJICUG_clean_linker_0, # of connection points: 2
#     Edge 57, Type (0, 0), BuildingBlock: OJICUG_clean_linker_0, # of connection points: 2
#     Edge 58, Type (0, 0), BuildingBlock: OJICUG_clean_linker_0, # of connection points: 2
#     Edge 59, Type (0, 0), BuildingBlock: OJICUG_clean_linker_0, # of connection points: 2
#     Edge 60, Type (0, 0), BuildingBlock: OJICUG_clean_linker_0, # of connection points: 2
#     Edge 61, Type (0, 0), BuildingBlock: OJICUG_clean_linker_0, # of connection points: 2
#     Edge 62, Type (0, 0), BuildingBlock: OJICUG_clean_linker_0, # of connection points: 2
#     Edge 63, Type (0, 0), BuildingBlock: OJICUG_clean_linker_0, # of connection points: 2
#     Edge 64, Type (0, 0), BuildingBlock: OJICUG_clean_linker_0, # of connection points: 2
#     Edge 65, Type (0, 0), BuildingBlock: OJICUG_clean_linker_0, # of connection points: 2
#     Edge 66, Type (0, 0), BuildingBlock: OJICUG_clean_linker_0, # of connection points: 2
#     Edge 67, Type (0, 0), BuildingBlock: OJICUG_clean_linker_0, # of connection points: 2
#     Edge 68, Type (0, 0), BuildingBlock: OJICUG_clean_linker_0, # of connection points: 2
#     Edge 69, Type (0, 0), BuildingBlock: OJICUG_clean_linker_0, # of connection points: 2
#     Edge 70, Type (0, 0), BuildingBlock: OJICUG_clean_linker_0, # of connection points: 2
#     Edge 71, Type (0, 0), BuildingBlock: OJICUG_clean_linker_0, # of connection points: 2
# Relax obj value: 0.238
# Max RMSD: 0.085
# Mean RMSD: 0.085
data_MOF--net-lta--node1-UXUYUI_clean_sbu_0--edge1-OJICUG_clean_linker_0
_symmetry_space_group_name_H-M    P1
_symmetry_Int_Tables_number       1
_symmetry_cell_setting            triclinic
loop_
_symmetry_equiv_pos_as_xyz
'x, y, z'
_cell_length_a     68.31967
_cell_length_b     68.319619
_cell_length_c     68.31962
_cell_angle_alpha  90.000082
_cell_angle_beta   90.00031
_cell_angle_gamma 90.001107
loop_
_atom_site_label
_atom_site_type_symbol
_atom_site_fract_x
_atom_site_fract_y
_atom_site_fract_z
_atom_type_partial_charge
Li0 Li 0.13132 0.32345 0.51813 0.0
Li1 Li 0.1382 0.29364 0.49986 0.0
Li2 Li 0.13083 0.32334 0.48242 0.0
Li3 Li 0.10614 0.30539 0.50119 0.0
C4 C 0.17085 0.31613 0.50948 0.0
N5 N 0.20574 0.31067 0.52925 0.0
C6 C 0.17123 0.30552 0.527 0.0
C7 C 0.18825 0.32386 0.502 0.0
C8 C 0.18901 0.30295 0.53677 0.0
C9 C 0.20572 0.32098 0.51223 0.0
C10 C 0.10826 0.28634 0.53402 0.0
C11 C 0.08557 0.25939 0.53651 0.0
N12 N 0.0794 0.26632 0.55411 0.0
C13 C 0.10187 0.29305 0.55225 0.0
C14 C 0.10023 0.26923 0.52619 0.0
C15 C 0.08721 0.28278 0.56214 0.0
C16 C 0.1192 0.34487 0.55034 0.0
N17 N 0.13556 0.34029 0.54 0.0
C18 C 0.15465 0.36235 0.55934 0.0
C19 C 0.15308 0.34885 0.54407 0.0
C20 C 0.13799 0.36725 0.57034 0.0
C21 C 0.1201 0.35825 0.56572 0.0
H22 H 0.1053 0.33851 0.54623 0.0
H23 H 0.16576 0.34571 0.53522 0.0
C24 C 0.16973 0.27163 0.48608 0.0
N25 N 0.15456 0.27127 0.49893 0.0
C26 C 0.18261 0.25588 0.48493 0.0
C27 C 0.16423 0.23977 0.51056 0.0
C28 C 0.15162 0.25583 0.51112 0.0
C29 C 0.17997 0.23971 0.49733 0.0
H30 H 0.17193 0.28431 0.47686 0.0
H31 H 0.13965 0.25608 0.52144 0.0
C32 C 0.11121 0.35386 0.50067 0.0
N33 N 0.11166 0.39429 0.50078 0.0
C34 C 0.09366 0.36432 0.50147 0.0
C35 C 0.129 0.36394 0.49995 0.0
C36 C 0.09419 0.38476 0.5015 0.0
C37 C 0.12892 0.38439 0.50001 0.0
C38 C 0.12668 0.28297 0.46477 0.0
C39 C 0.13957 0.28803 0.4497 0.0
C40 C 0.121 0.26344 0.46706 0.0
C41 C 0.14676 0.27342 0.43733 0.0
C42 C 0.12855 0.24925 0.45442 0.0
N43 N 0.14118 0.25449 0.43995 0.0
C44 C 0.15214 0.34723 0.45584 0.0
C45 C 0.11836 0.34296 0.44908 0.0
C46 C 0.15406 0.35993 0.43994 0.0
N47 N 0.13446 0.3392 0.46011 0.0
C48 C 0.1196 0.35554 0.43306 0.0
C49 C 0.1376 0.36434 0.4284 0.0
H50 H 0.16464 0.344 0.46496 0.0
H51 H 0.10447 0.33646 0.45302 0.0
C52 C 0.06801 0.31124 0.51403 0.0
N53 N 0.07902 0.30018 0.50172 0.0
C54 C 0.04768 0.30972 0.51374 0.0
C55 C 0.05046 0.28494 0.48858 0.0
C56 C 0.07078 0.28704 0.48926 0.0
C57 C 0.03866 0.29669 0.50063 0.0
H58 H 0.07506 0.32161 0.5237 0.0
H59 H 0.07994 0.27862 0.4795 0.0
O60 O 0.15371 0.31857 0.49937 0.0
O61 O 0.12242 0.29635 0.52396 0.0
O62 O 0.11086 0.33383 0.50076 0.0
O63 O 0.11977 0.29702 0.47726 0.0
H64 H 0.15802 0.29934 0.53306 0.0
H65 H 0.18829 0.33198 0.48841 0.0
H66 H 0.1895 0.2948 0.55034 0.0
H67 H 0.21928 0.32691 0.5066 0.0
H68 H 0.07909 0.24625 0.5305 0.0
H69 H 0.10825 0.30594 0.55881 0.0
H70 H 0.10507 0.26376 0.51217 0.0
H71 H 0.08207 0.28787 0.57623 0.0
H72 H 0.16871 0.369 0.56238 0.0
H73 H 0.10678 0.36199 0.57347 0.0
H74 H 0.19479 0.25657 0.47481 0.0
H75 H 0.16171 0.22756 0.52035 0.0
H76 H 0.07977 0.3567 0.50207 0.0
H77 H 0.14274 0.3561 0.49941 0.0
H78 H 0.08072 0.39306 0.50211 0.0
H79 H 0.14258 0.39238 0.49947 0.0
H80 H 0.14418 0.30303 0.4477 0.0
H81 H 0.111 0.25923 0.47857 0.0
H82 H 0.15685 0.27712 0.4257 0.0
H83 H 0.12439 0.23407 0.45613 0.0
H84 H 0.16823 0.36627 0.43675 0.0
H85 H 0.10648 0.35877 0.42478 0.0
H86 H 0.03908 0.31888 0.5234 0.0
H87 H 0.04402 0.27487 0.47815 0.0
Li88 Li 0.69946 0.13816 0.49986 0.0
Li89 Li 0.66965 0.13135 0.51816 0.0
Li90 Li 0.68765 0.10613 0.50122 0.0
Li91 Li 0.66973 0.13084 0.48244 0.0
C92 C 0.70675 0.10824 0.53402 0.0
N93 N 0.72678 0.07937 0.55409 0.0
C94 C 0.70008 0.10187 0.55228 0.0
C95 C 0.72383 0.10017 0.52616 0.0
C96 C 0.71035 0.0872 0.56215 0.0
C97 C 0.73368 0.08551 0.53646 0.0
C98 C 0.67705 0.17086 0.50947 0.0
C99 C 0.67239 0.20577 0.51211 0.0
N100 N 0.68265 0.20577 0.52917 0.0
C101 C 0.68761 0.17123 0.52702 0.0
C102 C 0.66944 0.18829 0.50192 0.0
C103 C 0.69025 0.18901 0.53676 0.0
C104 C 0.72151 0.16965 0.48605 0.0
N105 N 0.72186 0.15449 0.49891 0.0
C106 C 0.75336 0.16412 0.51055 0.0
C107 C 0.73728 0.15153 0.51111 0.0
C108 C 0.75345 0.17986 0.49731 0.0
C109 C 0.73728 0.18251 0.48491 0.0
H110 H 0.70884 0.17186 0.47683 0.0
H111 H 0.73702 0.13957 0.52144 0.0
C112 C 0.64827 0.11931 0.55043 0.0
N113 N 0.65284 0.13564 0.54004 0.0
C114 C 0.6349 0.12025 0.56581 0.0
C115 C 0.63078 0.15478 0.55932 0.0
C116 C 0.64427 0.15317 0.54405 0.0
C117 C 0.62589 0.13815 0.57038 0.0
H118 H 0.65463 0.1054 0.54635 0.0
H119 H 0.64739 0.16582 0.53515 0.0
C120 C 0.71007 0.12662 0.46475 0.0
N121 N 0.73853 0.14106 0.43989 0.0
C122 C 0.705 0.13952 0.4497 0.0
C123 C 0.72959 0.1209 0.46702 0.0
C124 C 0.71961 0.14668 0.43731 0.0
C125 C 0.74377 0.12843 0.45435 0.0
C126 C 0.63919 0.11128 0.50074 0.0
C127 C 0.6287 0.09375 0.50157 0.0
C128 C 0.62913 0.12908 0.50002 0.0
C129 C 0.60826 0.09431 0.50163 0.0
C130 C 0.60869 0.12904 0.50011 0.0
N131 N 0.59876 0.1118 0.5009 0.0
C132 C 0.68176 0.06801 0.51408 0.0
C133 C 0.70593 0.07073 0.48928 0.0
C134 C 0.68326 0.04768 0.51381 0.0
N135 N 0.69282 0.079 0.50175 0.0
C136 C 0.70801 0.05041 0.48861 0.0
C137 C 0.69626 0.03864 0.50069 0.0
H138 H 0.67141 0.07508 0.52376 0.0
H139 H 0.71434 0.07988 0.4795 0.0
C140 C 0.64577 0.15215 0.45593 0.0
N141 N 0.65385 0.13448 0.46015 0.0
C142 C 0.63306 0.15408 0.44004 0.0
C143 C 0.63754 0.11965 0.43307 0.0
C144 C 0.65013 0.1184 0.44908 0.0
C145 C 0.62869 0.13764 0.42846 0.0
H146 H 0.64896 0.16464 0.46509 0.0
H147 H 0.65667 0.10452 0.45298 0.0
O148 O 0.69674 0.1224 0.52397 0.0
O149 O 0.67456 0.15372 0.49938 0.0
O150 O 0.69602 0.11973 0.47727 0.0
O151 O 0.65921 0.1109 0.50081 0.0
H152 H 0.68721 0.10828 0.55886 0.0
H153 H 0.72927 0.105 0.51212 0.0
H154 H 0.70529 0.08209 0.57626 0.0
H155 H 0.74679 0.07901 0.53043 0.0
H156 H 0.66655 0.21935 0.50644 0.0
H157 H 0.6937 0.15799 0.53313 0.0
H158 H 0.66137 0.18834 0.4883 0.0
H159 H 0.69836 0.18949 0.55035 0.0
H160 H 0.76557 0.16159 0.52034 0.0
H161 H 0.7366 0.19469 0.47478 0.0
H162 H 0.63117 0.10696 0.5736 0.0
H163 H 0.62411 0.16884 0.56231 0.0
H164 H 0.69001 0.14416 0.44772 0.0
H165 H 0.7338 0.1109 0.47852 0.0
H166 H 0.71591 0.15677 0.42568 0.0
H167 H 0.75895 0.12424 0.45604 0.0
H168 H 0.63629 0.07985 0.50218 0.0
H169 H 0.63699 0.14281 0.49946 0.0
H170 H 0.59994 0.08085 0.50227 0.0
H171 H 0.60072 0.1427 0.49957 0.0
H172 H 0.6741 0.03909 0.52349 0.0
H173 H 0.71805 0.04396 0.47818 0.0
H174 H 0.62668 0.16825 0.43689 0.0
H175 H 0.63434 0.10654 0.42475 0.0
Li176 Li 0.85499 0.69961 0.49984 0.0
Li177 Li 0.86175 0.66981 0.51818 0.0
Li178 Li 0.88701 0.68778 0.50126 0.0
Li179 Li 0.86232 0.66985 0.48246 0.0
C180 C 0.88487 0.70691 0.53404 0.0
N181 N 0.91371 0.72695 0.55414 0.0
C182 C 0.89119 0.70026 0.55232 0.0
C183 C 0.89295 0.72398 0.52618 0.0
C184 C 0.90585 0.71054 0.56221 0.0
C185 C 0.9076 0.73383 0.53649 0.0
C186 C 0.82226 0.67724 0.50942 0.0
C187 C 0.78734 0.67264 0.51199 0.0
N188 N 0.78733 0.68288 0.52906 0.0
C189 C 0.82188 0.68778 0.52697 0.0
C190 C 0.80483 0.66966 0.50183 0.0
C191 C 0.80409 0.69045 0.53668 0.0
C192 C 0.82353 0.72167 0.48598 0.0
N193 N 0.83868 0.72201 0.49886 0.0
C194 C 0.82902 0.75351 0.51049 0.0
C195 C 0.84162 0.73744 0.51106 0.0
C196 C 0.8133 0.75359 0.49724 0.0
C197 C 0.81067 0.73743 0.48483 0.0
H198 H 0.82133 0.70899 0.47676 0.0
H199 H 0.85356 0.73717 0.5214 0.0
C200 C 0.87372 0.64845 0.55049 0.0
N201 N 0.85741 0.65301 0.54005 0.0
C202 C 0.87275 0.63508 0.56587 0.0
C203 C 0.83824 0.63093 0.55928 0.0
C204 C 0.83988 0.64443 0.54403 0.0
C205 C 0.85485 0.62605 0.57038 0.0
H206 H 0.88764 0.65482 0.54644 0.0
H207 H 0.82726 0.64754 0.53509 0.0
C208 C 0.86659 0.71018 0.46475 0.0
N209 N 0.8522 0.73863 0.43984 0.0
C210 C 0.85371 0.70511 0.44967 0.0
C211 C 0.87231 0.7297 0.467 0.0
C212 C 0.84657 0.71971 0.43726 0.0
C213 C 0.86481 0.74387 0.45431 0.0
C214 C 0.88184 0.63932 0.50082 0.0
C215 C 0.89937 0.62883 0.5017 0.0
C216 C 0.86403 0.62927 0.50007 0.0
C217 C 0.89879 0.60839 0.50178 0.0
C218 C 0.86407 0.60883 0.50018 0.0
N219 N 0.8813 0.59889 0.50103 0.0
C220 C 0.92511 0.68188 0.51419 0.0
C221 C 0.92244 0.70602 0.48935 0.0
C222 C 0.94545 0.68336 0.51393 0.0
N223 N 0.91415 0.69293 0.50183 0.0
C224 C 0.94276 0.70808 0.48869 0.0
C225 C 0.95451 0.69633 0.50081 0.0
H226 H 0.91802 0.67155 0.52387 0.0
H227 H 0.91331 0.71443 0.47954 0.0
C228 C 0.84101 0.6459 0.45594 0.0
N229 N 0.85869 0.65395 0.46018 0.0
C230 C 0.83909 0.63317 0.44006 0.0
C231 C 0.87354 0.63758 0.43315 0.0
C232 C 0.87478 0.65019 0.44915 0.0
C233 C 0.85555 0.62875 0.42852 0.0
H234 H 0.82852 0.64913 0.46507 0.0
H235 H 0.88867 0.65671 0.45306 0.0
O236 O 0.87071 0.69689 0.52398 0.0
O237 O 0.83942 0.67472 0.49936 0.0
O238 O 0.87345 0.69614 0.47728 0.0
O239 O 0.88222 0.65935 0.50087 0.0
H240 H 0.88477 0.68741 0.5589 0.0
H241 H 0.88816 0.72941 0.51212 0.0
H242 H 0.91094 0.70549 0.57633 0.0
H243 H 0.91412 0.74694 0.53045 0.0
H244 H 0.77376 0.66683 0.50629 0.0
H245 H 0.83512 0.69384 0.53311 0.0
H246 H 0.80479 0.6616 0.48821 0.0
H247 H 0.8036 0.69856 0.55027 0.0
H248 H 0.83153 0.76571 0.52029 0.0
H249 H 0.7985 0.73675 0.47469 0.0
H250 H 0.88602 0.63136 0.57369 0.0
H251 H 0.82417 0.62426 0.56224 0.0
H252 H 0.84906 0.69012 0.4477 0.0
H253 H 0.88231 0.73392 0.47851 0.0
H254 H 0.83649 0.716 0.42562 0.0
H255 H 0.86901 0.75905 0.45599 0.0
H256 H 0.91327 0.63642 0.50233 0.0
H257 H 0.85031 0.63714 0.49947 0.0
H258 H 0.91225 0.60007 0.50246 0.0
H259 H 0.8504 0.60086 0.49962 0.0
H260 H 0.95402 0.67421 0.52363 0.0
H261 H 0.94924 0.7181 0.47826 0.0
H262 H 0.82492 0.62681 0.4369 0.0
H263 H 0.88666 0.63435 0.42486 0.0
Li264 Li 0.3233 0.86176 0.51813 0.0
Li265 Li 0.29349 0.85496 0.49982 0.0
Li266 Li 0.32323 0.86231 0.48242 0.0
Li267 Li 0.30529 0.88699 0.50121 0.0
C268 C 0.31592 0.82226 0.5094 0.0
N269 N 0.31034 0.78733 0.52907 0.0
C270 C 0.30536 0.82187 0.52695 0.0
C271 C 0.32353 0.80484 0.50184 0.0
C272 C 0.30272 0.80408 0.53667 0.0
C273 C 0.3206 0.78735 0.51201 0.0
C274 C 0.28618 0.88484 0.534 0.0
C275 C 0.25923 0.90754 0.53647 0.0
N276 N 0.26612 0.91367 0.5541 0.0
C277 C 0.29284 0.89119 0.55227 0.0
C278 C 0.26909 0.8929 0.52615 0.0
C279 C 0.28255 0.90584 0.56216 0.0
C280 C 0.34466 0.87377 0.55042 0.0
N281 N 0.34011 0.85746 0.54001 0.0
C282 C 0.36219 0.83831 0.55925 0.0
C283 C 0.34869 0.83993 0.544 0.0
C284 C 0.36707 0.85493 0.57033 0.0
C285 C 0.35804 0.87283 0.5658 0.0
H286 H 0.33829 0.88769 0.54637 0.0
H287 H 0.34558 0.82729 0.53507 0.0
C288 C 0.27147 0.82346 0.48597 0.0
N289 N 0.27111 0.83861 0.49884 0.0
C290 C 0.25572 0.81058 0.48482 0.0
C291 C 0.23963 0.82892 0.51048 0.0
C292 C 0.25568 0.84154 0.51105 0.0
C293 C 0.23956 0.81319 0.49724 0.0
H294 H 0.28415 0.82127 0.47675 0.0
H295 H 0.25594 0.85348 0.52139 0.0
C296 C 0.35374 0.88188 0.50075 0.0
N297 N 0.39417 0.88139 0.50093 0.0
C298 C 0.36422 0.89942 0.50161 0.0
C299 C 0.36382 0.86408 0.5 0.0
C300 C 0.38466 0.89887 0.50168 0.0
C301 C 0.38426 0.86414 0.5001 0.0
C302 C 0.28289 0.86653 0.46472 0.0
C303 C 0.28796 0.85365 0.44965 0.0
C304 C 0.26336 0.87223 0.46699 0.0
C305 C 0.27336 0.84649 0.43725 0.0
C306 C 0.24919 0.86471 0.45431 0.0
N307 N 0.25444 0.85209 0.43983 0.0
C308 C 0.34716 0.84102 0.45587 0.0
C309 C 0.34289 0.87479 0.44911 0.0
C310 C 0.35988 0.8391 0.43999 0.0
N311 N 0.33912 0.85869 0.46012 0.0
C312 C 0.35549 0.87356 0.4331 0.0
C313 C 0.36431 0.85556 0.42846 0.0
H314 H 0.34393 0.82851 0.465 0.0
H315 H 0.33638 0.88868 0.45303 0.0
C316 C 0.31114 0.9251 0.51412 0.0
N317 N 0.3001 0.91412 0.50177 0.0
C318 C 0.30964 0.94544 0.51385 0.0
C319 C 0.28491 0.94272 0.48864 0.0
C320 C 0.28699 0.92239 0.4893 0.0
C321 C 0.29665 0.95448 0.50073 0.0
H322 H 0.32149 0.91803 0.5238 0.0
H323 H 0.27859 0.91325 0.4795 0.0
O324 O 0.3184 0.83942 0.49933 0.0
O325 O 0.2962 0.87069 0.52395 0.0
O326 O 0.33372 0.88224 0.50081 0.0
O327 O 0.29693 0.87341 0.47724 0.0
H328 H 0.29926 0.8351 0.53307 0.0
H329 H 0.33161 0.80481 0.48822 0.0
H330 H 0.29461 0.80358 0.55026 0.0
H331 H 0.32644 0.77378 0.50633 0.0
H332 H 0.24611 0.91404 0.53044 0.0
H333 H 0.30571 0.88478 0.55885 0.0
H334 H 0.26365 0.88808 0.51211 0.0
H335 H 0.28761 0.91094 0.57628 0.0
H336 H 0.36887 0.82425 0.56222 0.0
H337 H 0.36176 0.88611 0.57361 0.0
H338 H 0.25641 0.79841 0.47468 0.0
H339 H 0.22742 0.83142 0.52028 0.0
H340 H 0.35662 0.91331 0.50224 0.0
H341 H 0.35597 0.85035 0.49941 0.0
H342 H 0.39297 0.91233 0.50235 0.0
H343 H 0.39224 0.85048 0.49954 0.0
H344 H 0.30296 0.84902 0.44767 0.0
H345 H 0.25914 0.88222 0.4785 0.0
H346 H 0.27707 0.83642 0.42561 0.0
H347 H 0.23401 0.86888 0.456 0.0
H348 H 0.36623 0.82493 0.43682 0.0
H349 H 0.35873 0.88668 0.42482 0.0
H350 H 0.3188 0.95402 0.52354 0.0
H351 H 0.27488 0.94917 0.4782 0.0
Li352 Li 0.10617 0.68762 0.49191 0.0
Li353 Li 0.13089 0.6697 0.51067 0.0
Li354 Li 0.1382 0.69943 0.49325 0.0
Li355 Li 0.13138 0.66962 0.47496 0.0
C356 C 0.12668 0.71005 0.52836 0.0
N357 N 0.14115 0.73851 0.55321 0.0
C358 C 0.13959 0.70498 0.54341 0.0
C359 C 0.12097 0.72957 0.5261 0.0
C360 C 0.14677 0.71958 0.5558 0.0
C361 C 0.12851 0.74375 0.53876 0.0
C362 C 0.11131 0.63916 0.49239 0.0
C363 C 0.12907 0.60866 0.49301 0.0
N364 N 0.11183 0.59873 0.49224 0.0
C365 C 0.09378 0.62868 0.49159 0.0
C366 C 0.12912 0.6291 0.4931 0.0
C367 C 0.09435 0.60823 0.49153 0.0
C368 C 0.06804 0.68173 0.47908 0.0
N369 N 0.07904 0.6928 0.49139 0.0
C370 C 0.05046 0.70801 0.50454 0.0
C371 C 0.07079 0.70592 0.50386 0.0
C372 C 0.03868 0.69625 0.49248 0.0
C373 C 0.04771 0.68324 0.47937 0.0
H374 H 0.0751 0.67137 0.4694 0.0
H375 H 0.07994 0.71434 0.51363 0.0
C376 C 0.1522 0.64572 0.53716 0.0
N377 N 0.13454 0.65383 0.53297 0.0
C378 C 0.15413 0.63302 0.55306 0.0
C379 C 0.11972 0.63757 0.56008 0.0
C380 C 0.11847 0.65014 0.54406 0.0
C381 C 0.1377 0.62869 0.56467 0.0
H382 H 0.16468 0.64888 0.52798 0.0
H383 H 0.1046 0.65671 0.54017 0.0
C384 C 0.10826 0.70672 0.45911 0.0
N385 N 0.07937 0.72674 0.43906 0.0
C386 C 0.10187 0.70004 0.44086 0.0
C387 C 0.10021 0.72381 0.46697 0.0
C388 C 0.08719 0.71031 0.431 0.0
C389 C 0.08554 0.73365 0.45668 0.0
C390 C 0.1709 0.67702 0.48363 0.0
C391 C 0.17126 0.68757 0.46608 0.0
C392 C 0.18833 0.6694 0.49117 0.0
C393 C 0.18904 0.69021 0.45633 0.0
C394 C 0.2058 0.67235 0.48096 0.0
N395 N 0.20579 0.6826 0.46391 0.0
C396 C 0.1697 0.72148 0.50704 0.0
C397 C 0.15157 0.73725 0.48199 0.0
C398 C 0.18256 0.73725 0.50818 0.0
N399 N 0.15454 0.72183 0.49418 0.0
C400 C 0.16417 0.75333 0.48255 0.0
C401 C 0.17991 0.75342 0.49577 0.0
H402 H 0.17192 0.70881 0.51626 0.0
H403 H 0.13961 0.73699 0.47166 0.0
C404 C 0.11932 0.64823 0.4427 0.0
N405 N 0.13566 0.6528 0.45308 0.0
C406 C 0.12024 0.63486 0.42732 0.0
C407 C 0.15478 0.63075 0.43378 0.0
C408 C 0.15318 0.64424 0.44904 0.0
C409 C 0.13814 0.62585 0.42273 0.0
H410 H 0.10541 0.65459 0.44679 0.0
H411 H 0.16584 0.64736 0.45793 0.0
O412 O 0.11979 0.696 0.51585 0.0
O413 O 0.11094 0.65919 0.49231 0.0
O414 O 0.12243 0.69671 0.46914 0.0
O415 O 0.15376 0.67453 0.49372 0.0
H416 H 0.14423 0.68999 0.54539 0.0
H417 H 0.11096 0.73378 0.5146 0.0
H418 H 0.15686 0.71588 0.56742 0.0
H419 H 0.12432 0.75892 0.53708 0.0
H420 H 0.14274 0.60069 0.49354 0.0
H421 H 0.07988 0.63627 0.49099 0.0
H422 H 0.14285 0.63696 0.49364 0.0
H423 H 0.08088 0.59992 0.49091 0.0
H424 H 0.04402 0.71806 0.51497 0.0
H425 H 0.03911 0.67407 0.4697 0.0
H426 H 0.16829 0.62661 0.55619 0.0
H427 H 0.10662 0.6344 0.56842 0.0
H428 H 0.10827 0.68717 0.43428 0.0
H429 H 0.10505 0.72925 0.481 0.0
H430 H 0.08206 0.70524 0.4169 0.0
H431 H 0.07904 0.74677 0.46271 0.0
H432 H 0.15802 0.69367 0.45997 0.0
H433 H 0.18838 0.66133 0.50478 0.0
H434 H 0.18951 0.69832 0.44274 0.0
H435 H 0.21938 0.6665 0.48663 0.0
H436 H 0.19474 0.73658 0.5183 0.0
H437 H 0.16163 0.76554 0.47276 0.0
H438 H 0.10695 0.63113 0.41953 0.0
H439 H 0.16884 0.62409 0.43077 0.0
Li440 Li 0.32329 0.13081 0.51066 0.0
Li441 Li 0.30534 0.10613 0.49187 0.0
Li442 Li 0.32337 0.13134 0.47494 0.0
Li443 Li 0.29357 0.13818 0.49325 0.0
C444 C 0.3538 0.11122 0.49235 0.0
N445 N 0.39423 0.11169 0.49218 0.0
C446 C 0.36427 0.09367 0.49151 0.0
C447 C 0.36388 0.12901 0.49309 0.0
C448 C 0.38471 0.09422 0.49144 0.0
C449 C 0.38433 0.12894 0.493 0.0
C450 C 0.28294 0.12662 0.52835 0.0
C451 C 0.24924 0.12847 0.53875 0.0
N452 N 0.25449 0.14108 0.55322 0.0
C453 C 0.28802 0.1395 0.54342 0.0
C454 C 0.26342 0.12093 0.52608 0.0
C455 C 0.27342 0.14668 0.55581 0.0
C456 C 0.34722 0.1521 0.53721 0.0
N457 N 0.33918 0.13443 0.53296 0.0
C458 C 0.35552 0.11956 0.55999 0.0
C459 C 0.34294 0.11833 0.54398 0.0
C460 C 0.36434 0.13756 0.56465 0.0
C461 C 0.35993 0.15402 0.55311 0.0
H462 H 0.344 0.16461 0.52809 0.0
H463 H 0.33642 0.10444 0.54005 0.0
C464 C 0.31118 0.06802 0.47899 0.0
N465 N 0.30014 0.079 0.49133 0.0
C466 C 0.30968 0.04768 0.47927 0.0
C467 C 0.28493 0.05042 0.50446 0.0
C468 C 0.28702 0.07075 0.50379 0.0
C469 C 0.29668 0.03865 0.49238 0.0
H470 H 0.32154 0.07508 0.46932 0.0
H471 H 0.27861 0.0799 0.51358 0.0
C472 C 0.31602 0.17085 0.48365 0.0
N473 N 0.31049 0.20577 0.46395 0.0
C474 C 0.30544 0.17124 0.46611 0.0
C475 C 0.32369 0.18826 0.49118 0.0
C476 C 0.30283 0.18903 0.45638 0.0
C477 C 0.32077 0.20575 0.48099 0.0
C478 C 0.28624 0.10828 0.45908 0.0
C479 C 0.29292 0.10191 0.44082 0.0
C480 C 0.26914 0.10024 0.46692 0.0
C481 C 0.28263 0.08726 0.43093 0.0
C482 C 0.25928 0.08559 0.45661 0.0
N483 N 0.26619 0.07944 0.43899 0.0
C484 C 0.34474 0.11929 0.44268 0.0
C485 C 0.34877 0.15314 0.44905 0.0
C486 C 0.35812 0.12021 0.4273 0.0
N487 N 0.34019 0.13562 0.45307 0.0
C488 C 0.36226 0.15474 0.43379 0.0
C489 C 0.36715 0.1381 0.42273 0.0
H490 H 0.33838 0.10538 0.44676 0.0
H491 H 0.34565 0.16579 0.45795 0.0
C492 C 0.27157 0.16969 0.50708 0.0
N493 N 0.27119 0.15454 0.49421 0.0
C494 C 0.25582 0.18258 0.50824 0.0
C495 C 0.23971 0.16423 0.48259 0.0
C496 C 0.25576 0.15161 0.48202 0.0
C497 C 0.23965 0.17996 0.49583 0.0
H498 H 0.28424 0.17188 0.5163 0.0
H499 H 0.25601 0.13966 0.47168 0.0
O500 O 0.33378 0.11087 0.49228 0.0
O501 O 0.29699 0.11973 0.51583 0.0
O502 O 0.31849 0.1537 0.49373 0.0
O503 O 0.29627 0.12243 0.46913 0.0
H504 H 0.35666 0.07979 0.49088 0.0
H505 H 0.35604 0.14275 0.49366 0.0
H506 H 0.39301 0.08075 0.49079 0.0
H507 H 0.39232 0.1426 0.49355 0.0
H508 H 0.23406 0.1243 0.53706 0.0
H509 H 0.30302 0.14412 0.5454 0.0
H510 H 0.25919 0.11094 0.51457 0.0
H511 H 0.27713 0.15675 0.56745 0.0
H512 H 0.35875 0.10644 0.56828 0.0
H513 H 0.36628 0.16819 0.55629 0.0
H514 H 0.31883 0.03909 0.46959 0.0
H515 H 0.27488 0.04398 0.5149 0.0
H516 H 0.29931 0.15802 0.46001 0.0
H517 H 0.33178 0.18829 0.50479 0.0
H518 H 0.2947 0.18952 0.4428 0.0
H519 H 0.32665 0.21932 0.48666 0.0
H520 H 0.30579 0.1083 0.43425 0.0
H521 H 0.2637 0.10506 0.48096 0.0
H522 H 0.28769 0.08214 0.41683 0.0
H523 H 0.24616 0.0791 0.46264 0.0
H524 H 0.36184 0.10692 0.41951 0.0
H525 H 0.36894 0.1688 0.4308 0.0
H526 H 0.25652 0.19475 0.51837 0.0
H527 H 0.2275 0.16173 0.47279 0.0
Li528 Li 0.88701 0.30524 0.49181 0.0
Li529 Li 0.86235 0.32319 0.51061 0.0
Li530 Li 0.85498 0.29345 0.49323 0.0
Li531 Li 0.86177 0.32325 0.47489 0.0
C532 C 0.86657 0.28285 0.52832 0.0
N533 N 0.85215 0.25441 0.55321 0.0
C534 C 0.8537 0.28793 0.54339 0.0
C535 C 0.87227 0.26333 0.52605 0.0
C536 C 0.84655 0.27334 0.5558 0.0
C537 C 0.86475 0.24916 0.53873 0.0
C538 C 0.8819 0.3537 0.49225 0.0
C539 C 0.86418 0.38422 0.4929 0.0
N540 N 0.88142 0.39413 0.49205 0.0
C541 C 0.89944 0.36417 0.49137 0.0
C542 C 0.86411 0.36378 0.49301 0.0
C543 C 0.8989 0.38461 0.49128 0.0
C544 C 0.92511 0.31108 0.47887 0.0
N545 N 0.91414 0.30005 0.49123 0.0
C546 C 0.94274 0.28489 0.50437 0.0
C547 C 0.92242 0.28696 0.50371 0.0
C548 C 0.9545 0.29662 0.49225 0.0
C549 C 0.94545 0.30959 0.47912 0.0
H550 H 0.91803 0.32141 0.46918 0.0
H551 H 0.91328 0.27857 0.51353 0.0
C552 C 0.84106 0.34712 0.53717 0.0
N553 N 0.85874 0.3391 0.5329 0.0
C554 C 0.83915 0.35985 0.55304 0.0
C555 C 0.87362 0.3555 0.55989 0.0
C556 C 0.87485 0.34289 0.54389 0.0
C557 C 0.85562 0.3643 0.56455 0.0
H558 H 0.82855 0.34386 0.52807 0.0
H559 H 0.88874 0.33639 0.53995 0.0
C560 C 0.88484 0.28612 0.45902 0.0
N561 N 0.91365 0.26607 0.43889 0.0
C562 C 0.89116 0.29278 0.44074 0.0
C563 C 0.89291 0.26904 0.46687 0.0
C564 C 0.9058 0.28249 0.43084 0.0
C565 C 0.90754 0.25918 0.45654 0.0
C566 C 0.82227 0.31587 0.48365 0.0
C567 C 0.82187 0.3053 0.46611 0.0
C568 C 0.80486 0.3235 0.49122 0.0
C569 C 0.80408 0.30267 0.4564 0.0
C570 C 0.78737 0.32056 0.48105 0.0
N571 N 0.78734 0.31029 0.464 0.0
C572 C 0.82349 0.27143 0.50709 0.0
C573 C 0.84156 0.25564 0.48201 0.0
C574 C 0.81061 0.25568 0.50825 0.0
N575 N 0.83863 0.27107 0.49421 0.0
C576 C 0.82894 0.23958 0.48259 0.0
C577 C 0.81322 0.23951 0.49583 0.0
H578 H 0.8213 0.28411 0.51631 0.0
H579 H 0.8535 0.25589 0.47167 0.0
C580 C 0.87377 0.3446 0.4426 0.0
N581 N 0.85746 0.34005 0.45302 0.0
C582 C 0.87281 0.35798 0.42722 0.0
C583 C 0.83831 0.36214 0.43378 0.0
C584 C 0.83993 0.34864 0.44904 0.0
C585 C 0.85492 0.36702 0.4227 0.0
H586 H 0.88768 0.33823 0.44664 0.0
H587 H 0.8273 0.34553 0.45797 0.0
O588 O 0.87345 0.29689 0.51579 0.0
O589 O 0.88226 0.33368 0.4922 0.0
O590 O 0.8707 0.29615 0.46908 0.0
O591 O 0.83944 0.31836 0.49371 0.0
H592 H 0.84907 0.30293 0.54537 0.0
H593 H 0.88225 0.25911 0.51454 0.0
H594 H 0.83648 0.27705 0.56744 0.0
H595 H 0.86893 0.23398 0.53705 0.0
H596 H 0.85052 0.3922 0.49347 0.0
H597 H 0.91333 0.35656 0.49073 0.0
H598 H 0.85038 0.35593 0.49362 0.0
H599 H 0.91236 0.39291 0.4906 0.0
H600 H 0.94921 0.27487 0.51482 0.0
H601 H 0.95402 0.31873 0.46942 0.0
H602 H 0.82497 0.36618 0.55623 0.0
H603 H 0.88675 0.35877 0.56815 0.0
H604 H 0.88475 0.30564 0.43416 0.0
H605 H 0.88811 0.26361 0.48092 0.0
H606 H 0.91089 0.28754 0.41671 0.0
H607 H 0.91405 0.24607 0.46257 0.0
H608 H 0.8351 0.2992 0.45998 0.0
H609 H 0.80484 0.33158 0.50483 0.0
H610 H 0.80358 0.29455 0.44281 0.0
H611 H 0.7738 0.32641 0.48674 0.0
H612 H 0.79844 0.25637 0.51839 0.0
H613 H 0.83145 0.22737 0.47279 0.0
H614 H 0.88609 0.3617 0.4194 0.0
H615 H 0.82424 0.36883 0.43083 0.0
Li616 Li 0.68772 0.88697 0.49186 0.0
Li617 Li 0.66981 0.86226 0.51064 0.0
Li618 Li 0.69955 0.85495 0.49323 0.0
Li619 Li 0.66974 0.86174 0.47492 0.0
C620 C 0.71015 0.86651 0.52833 0.0
N621 N 0.73861 0.85208 0.5532 0.0
C622 C 0.70509 0.85361 0.54339 0.0
C623 C 0.72967 0.87223 0.52607 0.0
C624 C 0.71969 0.84646 0.55579 0.0
C625 C 0.74385 0.86472 0.53874 0.0
C626 C 0.63927 0.8818 0.49232 0.0
C627 C 0.60877 0.86403 0.49296 0.0
N628 N 0.59884 0.88127 0.49215 0.0
C629 C 0.62877 0.89933 0.49149 0.0
C630 C 0.62921 0.86399 0.49305 0.0
C631 C 0.60833 0.89876 0.49142 0.0
C632 C 0.68182 0.92508 0.47897 0.0
N633 N 0.69288 0.91411 0.49131 0.0
C634 C 0.70805 0.94271 0.50445 0.0
C635 C 0.70598 0.92238 0.50378 0.0
C636 C 0.69629 0.95447 0.49236 0.0
C637 C 0.68331 0.94542 0.47925 0.0
H638 H 0.67148 0.918 0.46929 0.0
H639 H 0.7144 0.91324 0.51357 0.0
C640 C 0.64586 0.84094 0.53715 0.0
N641 N 0.65392 0.85861 0.53293 0.0
C642 C 0.63315 0.83901 0.55304 0.0
C643 C 0.63758 0.87345 0.55998 0.0
C644 C 0.65018 0.8747 0.54398 0.0
C645 C 0.62875 0.85546 0.5646 0.0
H646 H 0.64907 0.82845 0.52801 0.0
H647 H 0.65671 0.88859 0.54007 0.0
C648 C 0.70683 0.88486 0.45906 0.0
N649 N 0.72684 0.91373 0.43898 0.0
C650 C 0.70016 0.89121 0.44079 0.0
C651 C 0.72391 0.89294 0.46691 0.0
C652 C 0.71042 0.90588 0.43091 0.0
C653 C 0.73375 0.9076 0.45661 0.0
C654 C 0.67716 0.82223 0.48363 0.0
C655 C 0.68772 0.82186 0.46608 0.0
C656 C 0.66956 0.8048 0.49118 0.0
C657 C 0.69037 0.80408 0.45634 0.0
C658 C 0.67251 0.78732 0.48099 0.0
N659 N 0.68277 0.78732 0.46393 0.0
C660 C 0.72161 0.82347 0.50705 0.0
C661 C 0.73738 0.84159 0.48199 0.0
C662 C 0.73739 0.81062 0.50819 0.0
N663 N 0.72195 0.83863 0.49418 0.0
C664 C 0.75346 0.829 0.48255 0.0
C665 C 0.75355 0.81327 0.49578 0.0
H666 H 0.70894 0.82126 0.51626 0.0
H667 H 0.73711 0.85355 0.47166 0.0
C668 C 0.64836 0.87375 0.44265 0.0
N669 N 0.65293 0.85743 0.45304 0.0
C670 C 0.63498 0.87281 0.42727 0.0
C671 C 0.63087 0.83828 0.43377 0.0
C672 C 0.64436 0.8399 0.44903 0.0
C673 C 0.62597 0.85491 0.42271 0.0
H674 H 0.65471 0.88767 0.44672 0.0
H675 H 0.64749 0.82725 0.45794 0.0
O676 O 0.6961 0.87339 0.51581 0.0
O677 O 0.65929 0.88219 0.49226 0.0
O678 O 0.69682 0.8707 0.46911 0.0
O679 O 0.67466 0.83938 0.49371 0.0
H680 H 0.6901 0.84896 0.54537 0.0
H681 H 0.73388 0.88224 0.51456 0.0
H682 H 0.716 0.83637 0.56741 0.0
H683 H 0.75902 0.86891 0.53705 0.0
H684 H 0.60081 0.85036 0.49351 0.0
H685 H 0.63636 0.91323 0.49087 0.0
H686 H 0.63708 0.85027 0.49362 0.0
H687 H 0.60001 0.91221 0.49078 0.0
H688 H 0.71808 0.94917 0.51489 0.0
H689 H 0.67415 0.954 0.46956 0.0
H690 H 0.62678 0.82484 0.55619 0.0
H691 H 0.63436 0.88656 0.56829 0.0
H692 H 0.6873 0.88479 0.43421 0.0
H693 H 0.72935 0.88813 0.48096 0.0
H694 H 0.70536 0.91098 0.4168 0.0
H695 H 0.74686 0.91411 0.46264 0.0
H696 H 0.6938 0.8351 0.45996 0.0
H697 H 0.66148 0.80475 0.50479 0.0
H698 H 0.69848 0.8036 0.44276 0.0
H699 H 0.66668 0.77374 0.48667 0.0
H700 H 0.73671 0.79844 0.51832 0.0
H701 H 0.76566 0.83154 0.47276 0.0
H702 H 0.63125 0.8861 0.41947 0.0
H703 H 0.6242 0.82421 0.43079 0.0
Li704 Li 0.49982 0.13814 0.29351 0.0
Li705 Li 0.51814 0.13134 0.32332 0.0
Li706 Li 0.50122 0.10611 0.30532 0.0
Li707 Li 0.48243 0.13079 0.32326 0.0
C708 C 0.53401 0.10826 0.2862 0.0
N709 N 0.55412 0.07942 0.26616 0.0
C710 C 0.55229 0.10192 0.29286 0.0
C711 C 0.52616 0.10019 0.26912 0.0
C712 C 0.56218 0.08727 0.28258 0.0
C713 C 0.53648 0.08555 0.25926 0.0
C714 C 0.5094 0.17085 0.31593 0.0
C715 C 0.51201 0.20576 0.32059 0.0
N716 N 0.52907 0.20577 0.31033 0.0
C717 C 0.52696 0.17123 0.30537 0.0
C718 C 0.50183 0.18826 0.32353 0.0
C719 C 0.53667 0.18903 0.30273 0.0
C720 C 0.48598 0.16963 0.27148 0.0
N721 N 0.49885 0.15448 0.27113 0.0
C722 C 0.51049 0.16415 0.23964 0.0
C723 C 0.51106 0.15154 0.2557 0.0
C724 C 0.49725 0.17988 0.23956 0.0
C725 C 0.48483 0.1825 0.25572 0.0
H726 H 0.47676 0.17182 0.28415 0.0
H727 H 0.52139 0.13959 0.25596 0.0
C728 C 0.55043 0.11934 0.34468 0.0
N729 N 0.54002 0.13566 0.34013 0.0
C730 C 0.56581 0.12029 0.35805 0.0
C731 C 0.55926 0.1548 0.36221 0.0
C732 C 0.544 0.15318 0.34871 0.0
C733 C 0.57035 0.13819 0.36709 0.0
H734 H 0.54638 0.10543 0.33831 0.0
H735 H 0.53508 0.16582 0.3456 0.0
C736 C 0.46473 0.12656 0.28292 0.0
N737 N 0.43984 0.14099 0.25447 0.0
C738 C 0.44966 0.13944 0.28799 0.0
C739 C 0.46699 0.12086 0.26339 0.0
C740 C 0.43726 0.1466 0.27339 0.0
C741 C 0.45431 0.12837 0.24922 0.0
C742 C 0.50076 0.11123 0.35377 0.0
C743 C 0.50163 0.0937 0.36425 0.0
C744 C 0.50002 0.12903 0.36385 0.0
C745 C 0.5017 0.09425 0.3847 0.0
C746 C 0.50012 0.12897 0.38429 0.0
N747 N 0.50095 0.11173 0.3942 0.0
C748 C 0.51414 0.068 0.31118 0.0
C749 C 0.48931 0.0707 0.28704 0.0
C750 C 0.51387 0.04767 0.30969 0.0
N751 N 0.50179 0.07898 0.30014 0.0
C752 C 0.48865 0.05038 0.28496 0.0
C753 C 0.50075 0.03862 0.2967 0.0
H754 H 0.52382 0.07508 0.32152 0.0
H755 H 0.47951 0.07984 0.27863 0.0
C756 C 0.4559 0.15208 0.34721 0.0
N757 N 0.46014 0.13441 0.33915 0.0
C758 C 0.44002 0.154 0.35993 0.0
C759 C 0.4331 0.11955 0.3555 0.0
C760 C 0.44911 0.11831 0.3429 0.0
C761 C 0.42847 0.13754 0.36434 0.0
H762 H 0.46503 0.16458 0.34399 0.0
H763 H 0.45302 0.10443 0.33637 0.0
O764 O 0.52396 0.12241 0.29623 0.0
O765 O 0.49934 0.15369 0.31842 0.0
O766 O 0.47725 0.11968 0.29696 0.0
O767 O 0.50083 0.11087 0.33375 0.0
H768 H 0.55887 0.10834 0.30573 0.0
H769 H 0.51211 0.10499 0.26369 0.0
H770 H 0.5763 0.08218 0.28763 0.0
H771 H 0.53045 0.07904 0.24615 0.0
H772 H 0.50631 0.21933 0.32642 0.0
H773 H 0.53308 0.158 0.29929 0.0
H774 H 0.48822 0.1883 0.3316 0.0
H775 H 0.55026 0.18952 0.29462 0.0
H776 H 0.52029 0.16164 0.22743 0.0
H777 H 0.4747 0.19467 0.25641 0.0
H778 H 0.57363 0.10701 0.36177 0.0
H779 H 0.56223 0.16887 0.36889 0.0
H780 H 0.44768 0.14408 0.30298 0.0
H781 H 0.4785 0.11086 0.25917 0.0
H782 H 0.42562 0.15668 0.2771 0.0
H783 H 0.456 0.12419 0.23404 0.0
H784 H 0.50225 0.0798 0.35665 0.0
H785 H 0.49943 0.14276 0.35599 0.0
H786 H 0.50237 0.08079 0.393 0.0
H787 H 0.49956 0.14264 0.39227 0.0
H788 H 0.52357 0.03909 0.31884 0.0
H789 H 0.47822 0.04391 0.27493 0.0
H790 H 0.43685 0.16816 0.3663 0.0
H791 H 0.42481 0.10643 0.35873 0.0
Li792 Li 0.86172 0.51812 0.32345 0.0
Li793 Li 0.8549 0.49984 0.29363 0.0
Li794 Li 0.86223 0.48241 0.32335 0.0
Li795 Li 0.88693 0.50119 0.30542 0.0
C796 C 0.82221 0.50944 0.31606 0.0
N797 N 0.7873 0.52916 0.31051 0.0
C798 C 0.82183 0.52699 0.3055 0.0
C799 C 0.80479 0.5019 0.3237 0.0
C800 C 0.80405 0.53673 0.30288 0.0
C801 C 0.78731 0.5121 0.32077 0.0
C802 C 0.88482 0.534 0.28634 0.0
C803 C 0.90753 0.53646 0.2594 0.0
N804 N 0.91368 0.55408 0.26631 0.0
C805 C 0.89118 0.55225 0.29302 0.0
C806 C 0.89288 0.52615 0.26925 0.0
C807 C 0.90585 0.56214 0.28275 0.0
C808 C 0.87378 0.55037 0.34483 0.0
N809 N 0.85745 0.54 0.34027 0.0
C810 C 0.83833 0.55929 0.36233 0.0
C811 C 0.83993 0.54402 0.34884 0.0
C812 C 0.85497 0.57034 0.36722 0.0
C813 C 0.87286 0.56576 0.3582 0.0
H814 H 0.88769 0.54629 0.33847 0.0
H815 H 0.82727 0.53513 0.34572 0.0
C816 C 0.82339 0.48604 0.27159 0.0
N817 N 0.83856 0.4989 0.27124 0.0
C818 C 0.81053 0.4849 0.25582 0.0
C819 C 0.82891 0.51053 0.23974 0.0
C820 C 0.84151 0.5111 0.25581 0.0
C821 C 0.81318 0.49731 0.23966 0.0
H822 H 0.82118 0.47682 0.28426 0.0
H823 H 0.85347 0.52142 0.25608 0.0
C824 C 0.88181 0.50069 0.35388 0.0
N825 N 0.88132 0.50083 0.39431 0.0
C826 C 0.89935 0.5015 0.36436 0.0
C827 C 0.86401 0.49997 0.36395 0.0
C828 C 0.89879 0.50155 0.38481 0.0
C829 C 0.86407 0.50005 0.3844 0.0
C830 C 0.86643 0.46474 0.283 0.0
C831 C 0.85353 0.44968 0.28806 0.0
C832 C 0.87213 0.46701 0.26347 0.0
C833 C 0.84636 0.43729 0.27345 0.0
C834 C 0.8646 0.45435 0.24929 0.0
N835 N 0.85196 0.43989 0.25453 0.0
C836 C 0.84093 0.45588 0.34731 0.0
C837 C 0.87467 0.44904 0.34293 0.0
C838 C 0.839 0.43999 0.36001 0.0
N839 N 0.85859 0.4601 0.33922 0.0
C840 C 0.87343 0.43302 0.35551 0.0
C841 C 0.85545 0.42841 0.36437 0.0
H842 H 0.82844 0.46504 0.34412 0.0
H843 H 0.88856 0.45294 0.33639 0.0
C844 C 0.92506 0.51405 0.31129 0.0
N845 N 0.91406 0.50172 0.30024 0.0
C846 C 0.94539 0.51377 0.30978 0.0
C847 C 0.94264 0.48858 0.28503 0.0
C848 C 0.92232 0.48926 0.28712 0.0
C849 C 0.95442 0.50066 0.29677 0.0
H850 H 0.91799 0.52372 0.32165 0.0
H851 H 0.91316 0.47948 0.2787 0.0
O852 O 0.83935 0.49935 0.31854 0.0
O853 O 0.87066 0.52395 0.29635 0.0
O854 O 0.88218 0.50077 0.33386 0.0
O855 O 0.87333 0.47724 0.29705 0.0
H856 H 0.83507 0.53309 0.29939 0.0
H857 H 0.80474 0.48829 0.33178 0.0
H858 H 0.80357 0.55032 0.29476 0.0
H859 H 0.77373 0.50644 0.32663 0.0
H860 H 0.91403 0.53043 0.24628 0.0
H861 H 0.88478 0.55883 0.30589 0.0
H862 H 0.88805 0.51211 0.2638 0.0
H863 H 0.91096 0.57624 0.28781 0.0
H864 H 0.82426 0.56229 0.369 0.0
H865 H 0.88615 0.57355 0.36193 0.0
H866 H 0.79835 0.47477 0.2565 0.0
H867 H 0.83145 0.52033 0.22754 0.0
H868 H 0.91324 0.50211 0.35676 0.0
H869 H 0.85028 0.49942 0.3561 0.0
H870 H 0.91226 0.50218 0.39311 0.0
H871 H 0.85041 0.4995 0.39237 0.0
H872 H 0.8489 0.44769 0.30305 0.0
H873 H 0.88214 0.47851 0.25926 0.0
H874 H 0.83626 0.42567 0.27715 0.0
H875 H 0.86878 0.45604 0.23412 0.0
H876 H 0.82484 0.43684 0.36639 0.0
H877 H 0.88654 0.4247 0.35871 0.0
H878 H 0.95398 0.52344 0.31894 0.0
H879 H 0.94908 0.47815 0.27497 0.0
Li880 Li 0.51064 0.86226 0.32331 0.0
Li881 Li 0.49187 0.88696 0.30537 0.0
Li882 Li 0.47492 0.86175 0.32337 0.0
Li883 Li 0.49323 0.85493 0.29357 0.0
C884 C 0.49233 0.88183 0.35383 0.0
N885 N 0.49216 0.88132 0.39426 0.0
C886 C 0.4915 0.89937 0.36431 0.0
C887 C 0.49305 0.86403 0.36389 0.0
C888 C 0.49144 0.89881 0.38475 0.0
C889 C 0.49296 0.86408 0.38433 0.0
C890 C 0.52834 0.86647 0.28296 0.0
C891 C 0.53875 0.86464 0.24927 0.0
N892 N 0.55321 0.85201 0.25451 0.0
C893 C 0.5434 0.85358 0.28804 0.0
C894 C 0.52608 0.87217 0.26344 0.0
C895 C 0.5558 0.8464 0.27344 0.0
C896 C 0.53716 0.84094 0.34725 0.0
N897 N 0.53293 0.85862 0.33919 0.0
C898 C 0.55998 0.87346 0.35553 0.0
C899 C 0.54397 0.8747 0.34294 0.0
C900 C 0.56461 0.85546 0.36436 0.0
C901 C 0.55305 0.83901 0.35996 0.0
H902 H 0.52802 0.82845 0.34404 0.0
H903 H 0.54006 0.88859 0.33641 0.0
C904 C 0.47902 0.92508 0.31124 0.0
N905 N 0.49134 0.91409 0.30019 0.0
C906 C 0.4793 0.94542 0.30974 0.0
C907 C 0.50449 0.94267 0.28499 0.0
C908 C 0.50381 0.92235 0.28707 0.0
C909 C 0.49241 0.95445 0.29674 0.0
H910 H 0.46934 0.91802 0.32159 0.0
H911 H 0.51359 0.9132 0.27866 0.0
C912 C 0.48361 0.82223 0.31599 0.0
N913 N 0.46389 0.78733 0.31042 0.0
C914 C 0.46608 0.82186 0.30541 0.0
C915 C 0.49114 0.80481 0.32364 0.0
C916 C 0.45633 0.80408 0.30278 0.0
C917 C 0.48094 0.78733 0.3207 0.0
C918 C 0.45908 0.88485 0.28626 0.0
C919 C 0.44082 0.89123 0.29294 0.0
C920 C 0.46693 0.8929 0.26917 0.0
C921 C 0.43095 0.9059 0.28267 0.0
C922 C 0.45663 0.90757 0.25932 0.0
N923 N 0.43901 0.91372 0.26623 0.0
C924 C 0.44267 0.87381 0.34475 0.0
C925 C 0.449 0.83994 0.34874 0.0
C926 C 0.42728 0.87288 0.35812 0.0
N927 N 0.45304 0.85747 0.34018 0.0
C928 C 0.43374 0.83835 0.36223 0.0
C929 C 0.4227 0.85498 0.36713 0.0
H930 H 0.44676 0.88772 0.3384 0.0
H931 H 0.4579 0.82729 0.34562 0.0
C932 C 0.50705 0.82343 0.27154 0.0
N933 N 0.49419 0.83859 0.27118 0.0
C934 C 0.5082 0.81056 0.25577 0.0
C935 C 0.48257 0.82894 0.23968 0.0
C936 C 0.482 0.84154 0.25575 0.0
C937 C 0.4958 0.8132 0.2396 0.0
H938 H 0.51627 0.82122 0.28422 0.0
H939 H 0.47167 0.85349 0.25601 0.0
O940 O 0.49227 0.8822 0.33381 0.0
O941 O 0.51583 0.87336 0.29701 0.0
O942 O 0.4937 0.83938 0.31847 0.0
O943 O 0.46912 0.87069 0.29628 0.0
H944 H 0.4909 0.91326 0.35671 0.0
H945 H 0.49362 0.8503 0.35604 0.0
H946 H 0.4908 0.91227 0.39306 0.0
H947 H 0.4935 0.85041 0.39231 0.0
H948 H 0.53706 0.86882 0.23409 0.0
H949 H 0.54538 0.84894 0.30303 0.0
H950 H 0.51457 0.88217 0.25922 0.0
H951 H 0.56743 0.83632 0.27714 0.0
H952 H 0.56829 0.88657 0.35875 0.0
H953 H 0.55622 0.82484 0.36632 0.0
H954 H 0.46962 0.95401 0.3189 0.0
H955 H 0.51492 0.94912 0.27494 0.0
H956 H 0.45998 0.83509 0.29929 0.0
H957 H 0.50474 0.80477 0.33173 0.0
H958 H 0.44275 0.8036 0.29465 0.0
H959 H 0.4866 0.77376 0.32657 0.0
H960 H 0.43425 0.88483 0.30581 0.0
H961 H 0.48097 0.88807 0.26373 0.0
H962 H 0.41685 0.91102 0.28773 0.0
H963 H 0.46266 0.91406 0.24621 0.0
H964 H 0.4195 0.88618 0.36186 0.0
H965 H 0.43073 0.82428 0.3689 0.0
H966 H 0.51833 0.79839 0.25646 0.0
H967 H 0.47278 0.83146 0.22747 0.0
Li968 Li 0.13078 0.51061 0.32322 0.0
Li969 Li 0.10608 0.49183 0.30529 0.0
Li970 Li 0.13132 0.47489 0.32327 0.0
Li971 Li 0.13811 0.49322 0.29347 0.0
C972 C 0.11124 0.49226 0.35374 0.0
N973 N 0.11176 0.49206 0.39417 0.0
C974 C 0.09371 0.49141 0.36423 0.0
C975 C 0.12905 0.49299 0.3638 0.0
C976 C 0.09428 0.49132 0.38468 0.0
C977 C 0.129 0.49288 0.38424 0.0
C978 C 0.12653 0.52833 0.28289 0.0
C979 C 0.12832 0.53875 0.2492 0.0
N980 N 0.14094 0.55323 0.25445 0.0
C981 C 0.13941 0.5434 0.28797 0.0
C982 C 0.12082 0.52607 0.26337 0.0
C983 C 0.14656 0.55581 0.27337 0.0
C984 C 0.15209 0.53713 0.34717 0.0
N985 N 0.13441 0.53289 0.33913 0.0
C986 C 0.11956 0.55991 0.3555 0.0
C987 C 0.11831 0.54391 0.3429 0.0
C988 C 0.13755 0.56455 0.36432 0.0
C989 C 0.15401 0.55301 0.35989 0.0
H990 H 0.16459 0.52801 0.34393 0.0
H991 H 0.10442 0.53999 0.33638 0.0
C992 C 0.06797 0.47893 0.31117 0.0
N993 N 0.07895 0.49128 0.30012 0.0
C994 C 0.04764 0.4792 0.30969 0.0
C995 C 0.05034 0.50442 0.28496 0.0
C996 C 0.07067 0.50375 0.28703 0.0
C997 C 0.03859 0.49232 0.29671 0.0
H998 H 0.07506 0.46924 0.32151 0.0
H999 H 0.07981 0.51355 0.27862 0.0
C1000 C 0.17082 0.48362 0.31587 0.0
N1001 N 0.20574 0.46394 0.31026 0.0
C1002 C 0.1712 0.46609 0.30527 0.0
C1003 C 0.18824 0.49116 0.3235 0.0
C1004 C 0.18899 0.45636 0.30262 0.0
C1005 C 0.20573 0.48098 0.32055 0.0
C1006 C 0.1082 0.45905 0.28616 0.0
C1007 C 0.10185 0.44078 0.29283 0.0
C1008 C 0.10014 0.4669 0.26908 0.0
C1009 C 0.08718 0.4309 0.28257 0.0
C1010 C 0.08548 0.45659 0.25924 0.0
N1011 N 0.07934 0.43896 0.26614 0.0
C1012 C 0.1193 0.44262 0.34464 0.0
C1013 C 0.15316 0.44898 0.34861 0.0
C1014 C 0.12025 0.42724 0.35801 0.0
N1015 N 0.13563 0.453 0.34006 0.0
C1016 C 0.15478 0.43372 0.3621 0.0
C1017 C 0.13815 0.42267 0.36702 0.0
H1018 H 0.10538 0.4467 0.3383 0.0
H1019 H 0.16581 0.45788 0.34548 0.0
C1020 C 0.16958 0.50708 0.27143 0.0
N1021 N 0.15443 0.49421 0.27107 0.0
C1022 C 0.18245 0.50824 0.25567 0.0
C1023 C 0.16409 0.48259 0.23957 0.0
C1024 C 0.15149 0.48201 0.25564 0.0
C1025 C 0.17982 0.49583 0.2395 0.0
H1026 H 0.17179 0.51629 0.28411 0.0
H1027 H 0.13954 0.47168 0.2559 0.0
O1028 O 0.11086 0.49221 0.33372 0.0
O1029 O 0.11966 0.5158 0.29694 0.0
O1030 O 0.15367 0.49369 0.31837 0.0
O1031 O 0.12237 0.46909 0.29617 0.0
H1032 H 0.07981 0.49079 0.35664 0.0
H1033 H 0.14277 0.49358 0.35594 0.0
H1034 H 0.08082 0.49066 0.39299 0.0
H1035 H 0.14267 0.49343 0.39221 0.0
H1036 H 0.12414 0.53707 0.23402 0.0
H1037 H 0.14405 0.54537 0.30296 0.0
H1038 H 0.11082 0.51456 0.25915 0.0
H1039 H 0.15664 0.56744 0.27707 0.0
H1040 H 0.10644 0.56819 0.35875 0.0
H1041 H 0.16819 0.55618 0.36624 0.0
H1042 H 0.03906 0.4695 0.31885 0.0
H1043 H 0.04388 0.51485 0.27493 0.0
H1044 H 0.15797 0.45998 0.29917 0.0
H1045 H 0.18828 0.50476 0.3316 0.0
H1046 H 0.18948 0.44279 0.29449 0.0
H1047 H 0.2193 0.48665 0.32641 0.0
H1048 H 0.10826 0.43421 0.3057 0.0
H1049 H 0.10495 0.48094 0.26364 0.0
H1050 H 0.08207 0.41679 0.28763 0.0
H1051 H 0.07897 0.46263 0.24612 0.0
H1052 H 0.10695 0.41945 0.36176 0.0
H1053 H 0.16885 0.43072 0.36876 0.0
H1054 H 0.19462 0.51837 0.25636 0.0
H1055 H 0.16158 0.4728 0.22736 0.0
Li1056 Li 0.48241 0.86223 0.66974 0.0
Li1057 Li 0.50119 0.88693 0.68767 0.0
Li1058 Li 0.51813 0.8617 0.66967 0.0
Li1059 Li 0.49982 0.85489 0.69948 0.0
C1060 C 0.50072 0.88179 0.63922 0.0
N1061 N 0.5009 0.88128 0.59879 0.0
C1062 C 0.50156 0.89932 0.62873 0.0
C1063 C 0.5 0.86399 0.62915 0.0
C1064 C 0.50163 0.89876 0.60829 0.0
C1065 C 0.50009 0.86404 0.60871 0.0
C1066 C 0.46472 0.86644 0.71009 0.0
C1067 C 0.45431 0.86463 0.74378 0.0
N1068 N 0.43984 0.852 0.73854 0.0
C1069 C 0.44965 0.85355 0.70501 0.0
C1070 C 0.46698 0.87215 0.72961 0.0
C1071 C 0.43726 0.84638 0.71961 0.0
C1072 C 0.45589 0.84093 0.64578 0.0
N1073 N 0.46012 0.85859 0.65386 0.0
C1074 C 0.43305 0.87344 0.63755 0.0
C1075 C 0.44906 0.87468 0.65014 0.0
C1076 C 0.42843 0.85546 0.62869 0.0
C1077 C 0.44 0.83901 0.63306 0.0
H1078 H 0.46505 0.82844 0.64897 0.0
H1079 H 0.45297 0.88856 0.65668 0.0
C1080 C 0.51407 0.92504 0.68181 0.0
N1081 N 0.50173 0.91406 0.69285 0.0
C1082 C 0.5138 0.94538 0.68331 0.0
C1083 C 0.48859 0.94264 0.70805 0.0
C1084 C 0.48926 0.92232 0.70596 0.0
C1085 C 0.50068 0.95441 0.69631 0.0
H1086 H 0.52375 0.91797 0.67146 0.0
H1087 H 0.47947 0.91317 0.71437 0.0
C1088 C 0.50941 0.82219 0.67707 0.0
N1089 N 0.5291 0.78728 0.68266 0.0
C1090 C 0.52696 0.82181 0.68763 0.0
C1091 C 0.50186 0.80477 0.66946 0.0
C1092 C 0.53669 0.80403 0.69027 0.0
C1093 C 0.51204 0.78728 0.6724 0.0
C1094 C 0.53399 0.8848 0.70678 0.0
C1095 C 0.55225 0.89116 0.70011 0.0
C1096 C 0.52613 0.89287 0.72386 0.0
C1097 C 0.56213 0.90582 0.71039 0.0
C1098 C 0.53644 0.90752 0.73372 0.0
N1099 N 0.55407 0.91366 0.72682 0.0
C1100 C 0.5504 0.87373 0.64831 0.0
C1101 C 0.54402 0.83988 0.64429 0.0
C1102 C 0.56579 0.87279 0.63494 0.0
N1103 N 0.54001 0.8574 0.65287 0.0
C1104 C 0.55928 0.83827 0.6308 0.0
C1105 C 0.57035 0.85489 0.62592 0.0
H1106 H 0.54633 0.88764 0.65467 0.0
H1107 H 0.5351 0.82723 0.6474 0.0
C1108 C 0.486 0.8234 0.72153 0.0
N1109 N 0.49886 0.83856 0.72187 0.0
C1110 C 0.48486 0.81054 0.73729 0.0
C1111 C 0.5105 0.82892 0.75337 0.0
C1112 C 0.51106 0.84151 0.7373 0.0
C1113 C 0.49727 0.81318 0.75346 0.0
H1114 H 0.47678 0.82119 0.70885 0.0
H1115 H 0.52139 0.85347 0.73703 0.0
O1116 O 0.50079 0.88216 0.65924 0.0
O1117 O 0.47723 0.87333 0.69604 0.0
O1118 O 0.49934 0.83934 0.67458 0.0
O1119 O 0.52394 0.87064 0.69676 0.0
H1120 H 0.50217 0.91322 0.63633 0.0
H1121 H 0.49943 0.85026 0.63701 0.0
H1122 H 0.50227 0.91222 0.59998 0.0
H1123 H 0.49954 0.85037 0.60073 0.0
H1124 H 0.45599 0.86881 0.75896 0.0
H1125 H 0.44768 0.84891 0.69002 0.0
H1126 H 0.47848 0.88215 0.73382 0.0
H1127 H 0.42563 0.8363 0.71591 0.0
H1128 H 0.42474 0.88655 0.63435 0.0
H1129 H 0.43685 0.82485 0.62668 0.0
H1130 H 0.52348 0.95397 0.67416 0.0
H1131 H 0.47816 0.94909 0.71809 0.0
H1132 H 0.53308 0.83505 0.69372 0.0
H1133 H 0.48824 0.80473 0.66138 0.0
H1134 H 0.55028 0.80355 0.69838 0.0
H1135 H 0.50636 0.77371 0.66656 0.0
H1136 H 0.55883 0.88475 0.68725 0.0
H1137 H 0.51209 0.88805 0.7293 0.0
H1138 H 0.57624 0.91093 0.70534 0.0
H1139 H 0.5304 0.91403 0.74683 0.0
H1140 H 0.57359 0.88608 0.63122 0.0
H1141 H 0.56227 0.8242 0.62413 0.0
H1142 H 0.47473 0.79836 0.73662 0.0
H1143 H 0.5203 0.83144 0.76558 0.0
Li1144 Li 0.1313 0.51819 0.66985 0.0
Li1145 Li 0.13807 0.49985 0.69964 0.0
Li1146 Li 0.13069 0.48247 0.6699 0.0
Li1147 Li 0.10604 0.5013 0.68785 0.0
C1148 C 0.17079 0.5094 0.67723 0.0
N1149 N 0.20574 0.52902 0.68282 0.0
C1150 C 0.1712 0.52695 0.68778 0.0
C1151 C 0.18819 0.50181 0.66962 0.0
C1152 C 0.189 0.53664 0.69043 0.0
C1153 C 0.2057 0.51196 0.67257 0.0
C1154 C 0.10824 0.53409 0.70697 0.0
C1155 C 0.08554 0.53658 0.73391 0.0
N1156 N 0.07945 0.55424 0.72703 0.0
C1157 C 0.10194 0.55238 0.70032 0.0
C1158 C 0.10016 0.52624 0.72404 0.0
C1159 C 0.08731 0.5623 0.71061 0.0
C1160 C 0.11934 0.55051 0.6485 0.0
N1161 N 0.13564 0.54006 0.65304 0.0
C1162 C 0.1548 0.55926 0.63094 0.0
C1163 C 0.15316 0.54401 0.64444 0.0
C1164 C 0.1382 0.57037 0.62607 0.0
C1165 C 0.12031 0.56588 0.63512 0.0
H1166 H 0.10542 0.54648 0.65488 0.0
H1167 H 0.16578 0.53506 0.64754 0.0
C1168 C 0.16955 0.48597 0.72167 0.0
N1169 N 0.15441 0.49886 0.72203 0.0
C1170 C 0.18243 0.48481 0.73742 0.0
C1171 C 0.16411 0.51049 0.75351 0.0
C1172 C 0.15149 0.51106 0.73746 0.0
C1173 C 0.17982 0.49723 0.75358 0.0
H1174 H 0.17173 0.47674 0.70899 0.0
H1175 H 0.13955 0.52141 0.7372 0.0
C1176 C 0.11115 0.50085 0.63939 0.0
N1177 N 0.11163 0.50106 0.59896 0.0
C1178 C 0.09361 0.50176 0.62892 0.0
C1179 C 0.12895 0.50007 0.62931 0.0
C1180 C 0.09416 0.50184 0.60848 0.0
C1181 C 0.12888 0.50018 0.60887 0.0
C1182 C 0.12645 0.46477 0.71024 0.0
C1183 C 0.13931 0.44969 0.70516 0.0
C1184 C 0.12075 0.46704 0.72976 0.0
C1185 C 0.14645 0.43727 0.71976 0.0
C1186 C 0.12825 0.45435 0.74393 0.0
N1187 N 0.14085 0.43986 0.73868 0.0
C1188 C 0.15196 0.4559 0.64598 0.0
C1189 C 0.11816 0.44921 0.65019 0.0
C1190 C 0.15387 0.44003 0.63324 0.0
N1191 N 0.13428 0.46018 0.65399 0.0
C1192 C 0.11939 0.43322 0.63757 0.0
C1193 C 0.13739 0.42854 0.62878 0.0
H1194 H 0.16448 0.46499 0.64924 0.0
H1195 H 0.10427 0.45316 0.65668 0.0
C1196 C 0.06795 0.51427 0.682 0.0
N1197 N 0.07891 0.5019 0.69303 0.0
C1198 C 0.04761 0.51403 0.68348 0.0
C1199 C 0.05029 0.48877 0.70818 0.0
C1200 C 0.07062 0.48942 0.70611 0.0
C1201 C 0.03855 0.5009 0.69645 0.0
H1202 H 0.07504 0.52396 0.67167 0.0
H1203 H 0.07974 0.4796 0.71451 0.0
O1204 O 0.15361 0.49935 0.67474 0.0
O1205 O 0.12237 0.52401 0.69694 0.0
O1206 O 0.11079 0.5009 0.65941 0.0
O1207 O 0.11958 0.47731 0.6962 0.0
H1208 H 0.15797 0.53309 0.69387 0.0
H1209 H 0.18821 0.48819 0.66155 0.0
H1210 H 0.18951 0.55023 0.69854 0.0
H1211 H 0.21927 0.50625 0.66673 0.0
H1212 H 0.07901 0.53056 0.74702 0.0
H1213 H 0.10837 0.55895 0.68746 0.0
H1214 H 0.10493 0.51218 0.72947 0.0
H1215 H 0.08225 0.57643 0.70557 0.0
H1216 H 0.16887 0.5622 0.62424 0.0
H1217 H 0.10704 0.57372 0.63141 0.0
H1218 H 0.19459 0.47467 0.73673 0.0
H1219 H 0.16161 0.52029 0.76572 0.0
H1220 H 0.07972 0.50241 0.63653 0.0
H1221 H 0.14268 0.49945 0.63716 0.0
H1222 H 0.08069 0.50254 0.60018 0.0
H1223 H 0.14254 0.4996 0.60088 0.0
H1224 H 0.14394 0.4477 0.69017 0.0
H1225 H 0.11077 0.47856 0.73398 0.0
H1226 H 0.15651 0.42562 0.71605 0.0
H1227 H 0.12407 0.45604 0.75911 0.0
H1228 H 0.16804 0.43683 0.62691 0.0
H1229 H 0.10625 0.42497 0.6343 0.0
H1230 H 0.03905 0.52374 0.67434 0.0
H1231 H 0.04382 0.47833 0.71819 0.0
Li1232 Li 0.49321 0.1381 0.69959 0.0
Li1233 Li 0.47489 0.13131 0.66978 0.0
Li1234 Li 0.49183 0.10608 0.68777 0.0
Li1235 Li 0.51061 0.13078 0.66984 0.0
C1236 C 0.45904 0.10819 0.70688 0.0
N1237 N 0.43897 0.07932 0.7269 0.0
C1238 C 0.44078 0.10183 0.70021 0.0
C1239 C 0.4669 0.10012 0.72397 0.0
C1240 C 0.43091 0.08716 0.71048 0.0
C1241 C 0.45659 0.08546 0.73381 0.0
C1242 C 0.4836 0.17081 0.67719 0.0
C1243 C 0.48095 0.20572 0.67251 0.0
N1244 N 0.46391 0.20572 0.68279 0.0
C1245 C 0.46606 0.17119 0.68776 0.0
C1246 C 0.49114 0.18823 0.66956 0.0
C1247 C 0.45633 0.18897 0.69041 0.0
C1248 C 0.50705 0.16959 0.72163 0.0
N1249 N 0.49418 0.15443 0.72198 0.0
C1250 C 0.48256 0.16408 0.75348 0.0
C1251 C 0.48199 0.15148 0.73741 0.0
C1252 C 0.4958 0.17981 0.75356 0.0
C1253 C 0.5082 0.18245 0.73739 0.0
H1254 H 0.51626 0.17179 0.70895 0.0
H1255 H 0.47165 0.13953 0.73715 0.0
C1256 C 0.44263 0.11928 0.6484 0.0
N1257 N 0.45301 0.13561 0.65298 0.0
C1258 C 0.42725 0.12021 0.63503 0.0
C1259 C 0.43373 0.15475 0.63092 0.0
C1260 C 0.44899 0.15314 0.64442 0.0
C1261 C 0.42268 0.13811 0.62602 0.0
H1262 H 0.44671 0.10536 0.65475 0.0
H1263 H 0.45789 0.16579 0.64755 0.0
C1264 C 0.52832 0.12654 0.71018 0.0
N1265 N 0.5532 0.14096 0.73863 0.0
C1266 C 0.54338 0.13943 0.70511 0.0
C1267 C 0.52605 0.12083 0.7297 0.0
C1268 C 0.55578 0.14658 0.71971 0.0
C1269 C 0.53873 0.12834 0.74387 0.0
C1270 C 0.49228 0.11123 0.63931 0.0
C1271 C 0.49144 0.0937 0.62882 0.0
C1272 C 0.49301 0.12904 0.62926 0.0
C1273 C 0.49137 0.09427 0.60838 0.0
C1274 C 0.49291 0.12899 0.60881 0.0
N1275 N 0.4921 0.11176 0.59888 0.0
C1276 C 0.47895 0.06796 0.68188 0.0
C1277 C 0.50376 0.07067 0.70604 0.0
C1278 C 0.47923 0.04763 0.68336 0.0
N1279 N 0.49129 0.07894 0.69293 0.0
C1280 C 0.50443 0.05034 0.7081 0.0
C1281 C 0.49234 0.03858 0.69635 0.0
H1282 H 0.46927 0.07504 0.67153 0.0
H1283 H 0.51355 0.07981 0.71445 0.0
C1284 C 0.53713 0.1521 0.6459 0.0
N1285 N 0.5329 0.13442 0.65395 0.0
C1286 C 0.55301 0.15402 0.63318 0.0
C1287 C 0.55994 0.11958 0.6376 0.0
C1288 C 0.54393 0.11833 0.65019 0.0
C1289 C 0.56456 0.13757 0.62877 0.0
H1290 H 0.52799 0.16459 0.64912 0.0
H1291 H 0.54002 0.10444 0.65672 0.0
O1292 O 0.46909 0.12236 0.69687 0.0
O1293 O 0.49368 0.15366 0.67469 0.0
O1294 O 0.51579 0.11966 0.69613 0.0
O1295 O 0.49222 0.11085 0.65934 0.0
H1296 H 0.43421 0.10824 0.68734 0.0
H1297 H 0.48094 0.10495 0.72941 0.0
H1298 H 0.4168 0.08204 0.70541 0.0
H1299 H 0.46263 0.07896 0.74692 0.0
H1300 H 0.48662 0.2193 0.66666 0.0
H1301 H 0.45996 0.15795 0.69387 0.0
H1302 H 0.50475 0.18828 0.66147 0.0
H1303 H 0.44275 0.18945 0.69854 0.0
H1304 H 0.47277 0.16156 0.76569 0.0
H1305 H 0.51833 0.19462 0.73671 0.0
H1306 H 0.41946 0.10692 0.63129 0.0
H1307 H 0.43073 0.16882 0.62427 0.0
H1308 H 0.54536 0.14407 0.69012 0.0
H1309 H 0.51455 0.11083 0.73391 0.0
H1310 H 0.56742 0.15667 0.71601 0.0
H1311 H 0.53705 0.12415 0.75905 0.0
H1312 H 0.49083 0.0798 0.63641 0.0
H1313 H 0.49358 0.14276 0.63712 0.0
H1314 H 0.49072 0.08081 0.60006 0.0
H1315 H 0.49346 0.14266 0.60084 0.0
H1316 H 0.46954 0.03905 0.6742 0.0
H1317 H 0.51486 0.04389 0.71814 0.0
H1318 H 0.55617 0.1682 0.62682 0.0
H1319 H 0.56823 0.10646 0.63437 0.0
Li1320 Li 0.86218 0.51066 0.66971 0.0
Li1321 Li 0.8869 0.49192 0.68765 0.0
Li1322 Li 0.86171 0.47495 0.66963 0.0
Li1323 Li 0.85486 0.49323 0.69944 0.0
C1324 C 0.88179 0.4924 0.63919 0.0
N1325 N 0.88129 0.49225 0.59876 0.0
C1326 C 0.89933 0.49161 0.62871 0.0
C1327 C 0.86398 0.4931 0.62912 0.0
C1328 C 0.89877 0.49155 0.60827 0.0
C1329 C 0.86404 0.49301 0.60868 0.0
C1330 C 0.86635 0.52835 0.71007 0.0
C1331 C 0.8645 0.53874 0.74377 0.0
N1332 N 0.85186 0.55319 0.73852 0.0
C1333 C 0.85345 0.5434 0.70499 0.0
C1334 C 0.87205 0.52608 0.72959 0.0
C1335 C 0.84626 0.55578 0.7196 0.0
C1336 C 0.84086 0.53717 0.64575 0.0
N1337 N 0.85852 0.53296 0.65384 0.0
C1338 C 0.87335 0.56006 0.63756 0.0
C1339 C 0.8746 0.54404 0.65013 0.0
C1340 C 0.85536 0.56466 0.6287 0.0
C1341 C 0.83893 0.55307 0.63305 0.0
H1342 H 0.82837 0.528 0.64893 0.0
H1343 H 0.88848 0.54014 0.65668 0.0
C1344 C 0.92504 0.47912 0.68178 0.0
N1345 N 0.91403 0.49142 0.69285 0.0
C1346 C 0.94537 0.47943 0.6833 0.0
C1347 C 0.94258 0.50458 0.70808 0.0
C1348 C 0.92226 0.50388 0.70598 0.0
C1349 C 0.95438 0.49253 0.69633 0.0
H1350 H 0.918 0.46944 0.67141 0.0
H1351 H 0.91309 0.51364 0.7144 0.0
C1352 C 0.82219 0.48359 0.677 0.0
N1353 N 0.7873 0.46383 0.68254 0.0
C1354 C 0.82183 0.46605 0.68758 0.0
C1355 C 0.80476 0.49109 0.66934 0.0
C1356 C 0.80406 0.45628 0.69019 0.0
C1357 C 0.78729 0.48087 0.67226 0.0
C1358 C 0.88483 0.45911 0.70674 0.0
C1359 C 0.89123 0.44088 0.70005 0.0
C1360 C 0.89286 0.46696 0.72384 0.0
C1361 C 0.90592 0.43102 0.71032 0.0
C1362 C 0.90753 0.45668 0.73368 0.0
N1363 N 0.91373 0.43908 0.72676 0.0
C1364 C 0.87382 0.44272 0.64823 0.0
C1365 C 0.83995 0.449 0.64425 0.0
C1366 C 0.87291 0.42733 0.63486 0.0
N1367 N 0.85747 0.45306 0.65281 0.0
C1368 C 0.83837 0.43373 0.63076 0.0
C1369 C 0.85502 0.42272 0.62585 0.0
H1370 H 0.88773 0.44683 0.65458 0.0
H1371 H 0.82727 0.45787 0.64738 0.0
C1372 C 0.82334 0.50701 0.72147 0.0
N1373 N 0.83851 0.49416 0.72182 0.0
C1374 C 0.81048 0.50815 0.73723 0.0
C1375 C 0.82887 0.48253 0.75333 0.0
C1376 C 0.84147 0.48197 0.73726 0.0
C1377 C 0.81313 0.49576 0.7534 0.0
H1378 H 0.82113 0.51622 0.70879 0.0
H1379 H 0.85344 0.47165 0.737 0.0
O1380 O 0.88215 0.49232 0.65921 0.0
O1381 O 0.87326 0.51585 0.69602 0.0
O1382 O 0.83932 0.4937 0.67453 0.0
O1383 O 0.87065 0.46914 0.69672 0.0
H1384 H 0.91322 0.49102 0.63631 0.0
H1385 H 0.85025 0.49363 0.63697 0.0
H1386 H 0.91224 0.49094 0.59996 0.0
H1387 H 0.85038 0.49354 0.6007 0.0
H1388 H 0.86867 0.53705 0.75895 0.0
H1389 H 0.84882 0.54538 0.69 0.0
H1390 H 0.88206 0.51459 0.73381 0.0
H1391 H 0.83616 0.5674 0.71589 0.0
H1392 H 0.88645 0.56838 0.63437 0.0
H1393 H 0.82476 0.55621 0.62667 0.0
H1394 H 0.95398 0.46977 0.67413 0.0
H1395 H 0.94901 0.51501 0.71815 0.0
H1396 H 0.83506 0.45997 0.6937 0.0
H1397 H 0.80471 0.5047 0.66124 0.0
H1398 H 0.80358 0.4427 0.69832 0.0
H1399 H 0.77372 0.48652 0.66638 0.0
H1400 H 0.88485 0.4343 0.68717 0.0
H1401 H 0.888 0.48099 0.72929 0.0
H1402 H 0.91107 0.41693 0.70524 0.0
H1403 H 0.91401 0.46271 0.74681 0.0
H1404 H 0.88622 0.41957 0.63112 0.0
H1405 H 0.8243 0.43071 0.6241 0.0
H1406 H 0.79829 0.51827 0.73655 0.0
H1407 H 0.83141 0.47275 0.76554 0.0
Li1408 Li 0.32337 0.51819 0.13134 0.0
Li1409 Li 0.29356 0.49988 0.13813 0.0
Li1410 Li 0.3233 0.48247 0.13081 0.0
Li1411 Li 0.30538 0.50125 0.1061 0.0
C1412 C 0.31596 0.50948 0.17084 0.0
N1413 N 0.31036 0.52917 0.20575 0.0
C1414 C 0.3054 0.52703 0.17121 0.0
C1415 C 0.32357 0.50193 0.18827 0.0
C1416 C 0.30275 0.53676 0.189 0.0
C1417 C 0.32062 0.51212 0.20575 0.0
C1418 C 0.28627 0.53405 0.10822 0.0
C1419 C 0.25935 0.5365 0.08549 0.0
N1420 N 0.26625 0.55413 0.07935 0.0
C1421 C 0.29295 0.55231 0.10186 0.0
C1422 C 0.26919 0.52619 0.10015 0.0
C1423 C 0.28268 0.56219 0.0872 0.0
C1424 C 0.34475 0.55046 0.11931 0.0
N1425 N 0.34018 0.54006 0.13564 0.0
C1426 C 0.36225 0.55933 0.15478 0.0
C1427 C 0.34875 0.54407 0.15317 0.0
C1428 C 0.36714 0.57039 0.13815 0.0
C1429 C 0.35812 0.56584 0.12025 0.0
H1430 H 0.33839 0.54639 0.1054 0.0
H1431 H 0.34563 0.53516 0.16581 0.0
C1432 C 0.2715 0.48606 0.16961 0.0
N1433 N 0.27116 0.49892 0.15446 0.0
C1434 C 0.25573 0.48491 0.18247 0.0
C1435 C 0.23966 0.51055 0.16409 0.0
C1436 C 0.25573 0.51112 0.1515 0.0
C1437 C 0.23957 0.49732 0.17982 0.0
H1438 H 0.28418 0.47684 0.17182 0.0
H1439 H 0.256 0.52145 0.13955 0.0
C1440 C 0.35383 0.50078 0.11126 0.0
N1441 N 0.39426 0.50095 0.11178 0.0
C1442 C 0.36432 0.50162 0.09373 0.0
C1443 C 0.36389 0.50005 0.12907 0.0
C1444 C 0.38477 0.50168 0.0943 0.0
C1445 C 0.38433 0.50015 0.12902 0.0
C1446 C 0.28296 0.46478 0.12657 0.0
C1447 C 0.28802 0.44971 0.13947 0.0
C1448 C 0.26344 0.46704 0.12086 0.0
C1449 C 0.27342 0.43732 0.14663 0.0
C1450 C 0.24926 0.45437 0.12838 0.0
N1451 N 0.2545 0.4399 0.141 0.0
C1452 C 0.34724 0.45595 0.15213 0.0
C1453 C 0.34293 0.44913 0.11837 0.0
C1454 C 0.35996 0.44006 0.15405 0.0
N1455 N 0.33918 0.46018 0.13445 0.0
C1456 C 0.35552 0.43313 0.11961 0.0
C1457 C 0.36436 0.4285 0.1376 0.0
H1458 H 0.34403 0.46509 0.16462 0.0
H1459 H 0.3364 0.45304 0.10448 0.0
C1460 C 0.31127 0.51413 0.06799 0.0
N1461 N 0.30021 0.50179 0.07897 0.0
C1462 C 0.30978 0.51385 0.04765 0.0
C1463 C 0.28504 0.48865 0.05038 0.0
C1464 C 0.28711 0.48932 0.0707 0.0
C1465 C 0.29679 0.50074 0.03861 0.0
H1466 H 0.32161 0.52381 0.07506 0.0
H1467 H 0.27869 0.47953 0.07984 0.0
O1468 O 0.31845 0.4994 0.15369 0.0
O1469 O 0.29628 0.524 0.12238 0.0
O1470 O 0.33381 0.50085 0.11088 0.0
O1471 O 0.29701 0.47729 0.11969 0.0
H1472 H 0.29931 0.53314 0.15798 0.0
H1473 H 0.33164 0.48831 0.18832 0.0
H1474 H 0.29464 0.55035 0.18947 0.0
H1475 H 0.32645 0.50644 0.21933 0.0
H1476 H 0.24623 0.53047 0.07898 0.0
H1477 H 0.30581 0.55889 0.10828 0.0
H1478 H 0.26375 0.51215 0.10497 0.0
H1479 H 0.28774 0.5763 0.08209 0.0
H1480 H 0.36891 0.56232 0.16885 0.0
H1481 H 0.36186 0.57363 0.10697 0.0
H1482 H 0.25641 0.47478 0.19464 0.0
H1483 H 0.22745 0.52035 0.16156 0.0
H1484 H 0.35673 0.50223 0.07983 0.0
H1485 H 0.35603 0.49948 0.14279 0.0
H1486 H 0.39308 0.50233 0.08084 0.0
H1487 H 0.3923 0.4996 0.14269 0.0
H1488 H 0.30301 0.44774 0.14411 0.0
H1489 H 0.25923 0.47855 0.11086 0.0
H1490 H 0.27712 0.42569 0.15671 0.0
H1491 H 0.23408 0.45606 0.12418 0.0
H1492 H 0.36633 0.43691 0.16822 0.0
H1493 H 0.35874 0.42482 0.1065 0.0
H1494 H 0.31894 0.52354 0.03907 0.0
H1495 H 0.275 0.47822 0.04392 0.0
Li1496 Li 0.32333 0.51064 0.86224 0.0
Li1497 Li 0.30541 0.49186 0.88695 0.0
Li1498 Li 0.32341 0.47492 0.86173 0.0
Li1499 Li 0.2936 0.49322 0.85492 0.0
C1500 C 0.35387 0.49234 0.88181 0.0
N1501 N 0.3943 0.49218 0.8813 0.0
C1502 C 0.36435 0.49151 0.89934 0.0
C1503 C 0.36393 0.49307 0.864 0.0
C1504 C 0.38479 0.49145 0.89878 0.0
C1505 C 0.38437 0.49298 0.86406 0.0
C1506 C 0.28298 0.52832 0.86646 0.0
C1507 C 0.24928 0.53872 0.86465 0.0
N1508 N 0.25452 0.55318 0.85202 0.0
C1509 C 0.28805 0.54338 0.85357 0.0
C1510 C 0.26346 0.52605 0.87218 0.0
C1511 C 0.27344 0.55577 0.8464 0.0
C1512 C 0.34728 0.53716 0.84093 0.0
N1513 N 0.33921 0.53294 0.8586 0.0
C1514 C 0.35553 0.56 0.87345 0.0
C1515 C 0.34294 0.54399 0.87469 0.0
C1516 C 0.36437 0.56462 0.85546 0.0
C1517 C 0.35999 0.55305 0.83901 0.0
H1518 H 0.34408 0.52801 0.82844 0.0
H1519 H 0.3364 0.54008 0.88857 0.0
C1520 C 0.31129 0.47899 0.92507 0.0
N1521 N 0.30024 0.49132 0.91409 0.0
C1522 C 0.3098 0.47927 0.94541 0.0
C1523 C 0.28505 0.50447 0.94267 0.0
C1524 C 0.28713 0.50379 0.92235 0.0
C1525 C 0.2968 0.49239 0.95444 0.0
H1526 H 0.32164 0.46931 0.918 0.0
H1527 H 0.27872 0.51358 0.9132 0.0
C1528 C 0.31601 0.48362 0.82222 0.0
N1529 N 0.31042 0.46391 0.78731 0.0
C1530 C 0.30545 0.46607 0.82185 0.0
C1531 C 0.32362 0.49117 0.80479 0.0
C1532 C 0.30282 0.45633 0.80407 0.0
C1533 C 0.32068 0.48098 0.78731 0.0
C1534 C 0.28631 0.45906 0.88484 0.0
C1535 C 0.29298 0.44079 0.8912 0.0
C1536 C 0.26923 0.46691 0.89291 0.0
C1537 C 0.28271 0.43091 0.90586 0.0
C1538 C 0.25938 0.4566 0.90756 0.0
N1539 N 0.26629 0.43898 0.91371 0.0
C1540 C 0.34479 0.44265 0.87376 0.0
C1541 C 0.3488 0.44904 0.83991 0.0
C1542 C 0.35816 0.42727 0.87282 0.0
N1543 N 0.34023 0.45305 0.85743 0.0
C1544 C 0.3623 0.43378 0.8383 0.0
C1545 C 0.36718 0.42271 0.85493 0.0
H1546 H 0.33843 0.44673 0.88767 0.0
H1547 H 0.34568 0.45795 0.82726 0.0
C1548 C 0.27155 0.50702 0.82343 0.0
N1549 N 0.2712 0.49416 0.83859 0.0
C1550 C 0.25577 0.50816 0.81057 0.0
C1551 C 0.2397 0.48253 0.82896 0.0
C1552 C 0.25577 0.48197 0.84155 0.0
C1553 C 0.23961 0.49576 0.81322 0.0
H1554 H 0.28422 0.51624 0.82121 0.0
H1555 H 0.25604 0.47164 0.85351 0.0
O1556 O 0.33384 0.49227 0.88218 0.0
O1557 O 0.29704 0.51581 0.87335 0.0
O1558 O 0.3185 0.4937 0.83937 0.0
O1559 O 0.29632 0.4691 0.87068 0.0
H1560 H 0.35676 0.4909 0.91324 0.0
H1561 H 0.35607 0.49363 0.85028 0.0
H1562 H 0.39311 0.49081 0.91224 0.0
H1563 H 0.39234 0.49353 0.85039 0.0
H1564 H 0.23411 0.53703 0.86884 0.0
H1565 H 0.30304 0.54536 0.84892 0.0
H1566 H 0.25925 0.51456 0.88218 0.0
H1567 H 0.27714 0.56739 0.8363 0.0
H1568 H 0.35874 0.56831 0.88656 0.0
H1569 H 0.36637 0.5562 0.82484 0.0
H1570 H 0.31895 0.46959 0.95399 0.0
H1571 H 0.27501 0.5149 0.94912 0.0
H1572 H 0.29937 0.45995 0.83509 0.0
H1573 H 0.33169 0.50479 0.80475 0.0
H1574 H 0.29471 0.44274 0.80359 0.0
H1575 H 0.32651 0.48665 0.77373 0.0
H1576 H 0.30585 0.43422 0.88479 0.0
H1577 H 0.26379 0.48095 0.88809 0.0
H1578 H 0.28777 0.41681 0.91097 0.0
H1579 H 0.24627 0.46264 0.91407 0.0
H1580 H 0.36189 0.41947 0.88611 0.0
H1581 H 0.36897 0.43079 0.82423 0.0
H1582 H 0.25645 0.51829 0.79839 0.0
H1583 H 0.22749 0.47274 0.83149 0.0
Li1584 Li 0.48247 0.32326 0.86228 0.0
Li1585 Li 0.50125 0.30534 0.88698 0.0
Li1586 Li 0.51819 0.32333 0.86175 0.0
Li1587 Li 0.49988 0.29352 0.85496 0.0
C1588 C 0.5008 0.35379 0.88183 0.0
N1589 N 0.50098 0.39422 0.88131 0.0
C1590 C 0.50164 0.36428 0.89936 0.0
C1591 C 0.50007 0.36385 0.86402 0.0
C1592 C 0.50171 0.38473 0.89879 0.0
C1593 C 0.50017 0.3843 0.86407 0.0
C1594 C 0.46477 0.28293 0.86652 0.0
C1595 C 0.45436 0.24923 0.86472 0.0
N1596 N 0.43989 0.25447 0.85209 0.0
C1597 C 0.44971 0.288 0.85363 0.0
C1598 C 0.46703 0.26341 0.87224 0.0
C1599 C 0.43731 0.27339 0.84647 0.0
C1600 C 0.45596 0.34722 0.84097 0.0
N1601 N 0.46018 0.33915 0.85864 0.0
C1602 C 0.43314 0.3555 0.87348 0.0
C1603 C 0.44914 0.3429 0.87473 0.0
C1604 C 0.42851 0.36433 0.85549 0.0
C1605 C 0.44007 0.35993 0.83904 0.0
H1606 H 0.4651 0.344 0.82847 0.0
H1607 H 0.45305 0.33637 0.88861 0.0
C1608 C 0.51414 0.31123 0.9251 0.0
N1609 N 0.5018 0.30017 0.91412 0.0
C1610 C 0.51386 0.30974 0.94543 0.0
C1611 C 0.48865 0.285 0.94271 0.0
C1612 C 0.48933 0.28707 0.92239 0.0
C1613 C 0.50075 0.29675 0.95448 0.0
H1614 H 0.52382 0.32157 0.91802 0.0
H1615 H 0.47953 0.27866 0.91325 0.0
C1616 C 0.50948 0.31592 0.82224 0.0
N1617 N 0.52917 0.31031 0.78733 0.0
C1618 C 0.52702 0.30535 0.82187 0.0
C1619 C 0.50193 0.32353 0.80482 0.0
C1620 C 0.53675 0.30271 0.80409 0.0
C1621 C 0.51211 0.32058 0.78734 0.0
C1622 C 0.53404 0.28623 0.88487 0.0
C1623 C 0.55231 0.2929 0.89122 0.0
C1624 C 0.52619 0.26915 0.89294 0.0
C1625 C 0.56219 0.28262 0.90589 0.0
C1626 C 0.53649 0.2593 0.90759 0.0
N1627 N 0.55413 0.2662 0.91373 0.0
C1628 C 0.55046 0.3447 0.87377 0.0
C1629 C 0.54408 0.3487 0.83992 0.0
C1630 C 0.56584 0.35808 0.87283 0.0
N1631 N 0.54007 0.34013 0.85745 0.0
C1632 C 0.55934 0.3622 0.83831 0.0
C1633 C 0.5704 0.36709 0.85493 0.0
H1634 H 0.54639 0.33834 0.88769 0.0
H1635 H 0.53517 0.34558 0.82727 0.0
C1636 C 0.48604 0.27147 0.82348 0.0
N1637 N 0.49891 0.27112 0.83863 0.0
C1638 C 0.48489 0.2557 0.81062 0.0
C1639 C 0.51053 0.23962 0.82899 0.0
C1640 C 0.5111 0.25569 0.84158 0.0
C1641 C 0.49729 0.23954 0.81326 0.0
H1642 H 0.47682 0.28415 0.82127 0.0
H1643 H 0.52144 0.25596 0.85354 0.0
O1644 O 0.50086 0.33377 0.88221 0.0
O1645 O 0.47729 0.29698 0.8734 0.0
O1646 O 0.4994 0.31842 0.8394 0.0
O1647 O 0.524 0.29624 0.8707 0.0
H1648 H 0.50226 0.35669 0.91326 0.0
H1649 H 0.49949 0.35599 0.8503 0.0
H1650 H 0.50237 0.39304 0.91225 0.0
H1651 H 0.49962 0.39227 0.8504 0.0
H1652 H 0.45604 0.23405 0.86891 0.0
H1653 H 0.44773 0.30299 0.84899 0.0
H1654 H 0.47854 0.25919 0.88223 0.0
H1655 H 0.42567 0.2771 0.83639 0.0
H1656 H 0.42483 0.35872 0.8866 0.0
H1657 H 0.43692 0.3663 0.82487 0.0
H1658 H 0.52355 0.3189 0.95401 0.0
H1659 H 0.47822 0.27497 0.94917 0.0
H1660 H 0.53314 0.29927 0.83511 0.0
H1661 H 0.48831 0.33161 0.80478 0.0
H1662 H 0.55034 0.29459 0.80361 0.0
H1663 H 0.50643 0.32641 0.77376 0.0
H1664 H 0.55889 0.30576 0.88481 0.0
H1665 H 0.51215 0.26371 0.88812 0.0
H1666 H 0.5763 0.28768 0.91099 0.0
H1667 H 0.53046 0.24619 0.9141 0.0
H1668 H 0.57364 0.36181 0.88612 0.0
H1669 H 0.56233 0.36887 0.82424 0.0
H1670 H 0.47476 0.25638 0.79844 0.0
H1671 H 0.52032 0.22741 0.83151 0.0
Li1672 Li 0.68774 0.50122 0.88696 0.0
Li1673 Li 0.6698 0.48244 0.86227 0.0
Li1674 Li 0.69954 0.49984 0.85493 0.0
Li1675 Li 0.66974 0.51816 0.86174 0.0
C1676 C 0.71014 0.46473 0.86649 0.0
N1677 N 0.73858 0.43984 0.85205 0.0
C1678 C 0.70506 0.44966 0.85361 0.0
C1679 C 0.72966 0.46699 0.87219 0.0
C1680 C 0.71965 0.43726 0.84644 0.0
C1681 C 0.74383 0.45432 0.86467 0.0
C1682 C 0.63928 0.50077 0.88184 0.0
C1683 C 0.60877 0.50013 0.86409 0.0
N1684 N 0.59885 0.50095 0.88133 0.0
C1685 C 0.6288 0.50161 0.89937 0.0
C1686 C 0.62921 0.50003 0.86403 0.0
C1687 C 0.60836 0.50169 0.89881 0.0
C1688 C 0.68188 0.5141 0.92508 0.0
N1689 N 0.69293 0.50177 0.91409 0.0
C1690 C 0.70812 0.48863 0.94268 0.0
C1691 C 0.70604 0.4893 0.92236 0.0
C1692 C 0.69637 0.50071 0.95445 0.0
C1693 C 0.68338 0.51383 0.94541 0.0
H1694 H 0.67153 0.52378 0.91801 0.0
H1695 H 0.71445 0.47951 0.91321 0.0
C1696 C 0.64585 0.45591 0.84097 0.0
N1697 N 0.65391 0.46015 0.85864 0.0
C1698 C 0.63314 0.44002 0.83904 0.0
C1699 C 0.63757 0.4331 0.87349 0.0
C1700 C 0.65016 0.44911 0.87473 0.0
C1701 C 0.62874 0.42846 0.8555 0.0
H1702 H 0.64906 0.46505 0.82847 0.0
H1703 H 0.65669 0.45303 0.88862 0.0
C1704 C 0.70686 0.53401 0.88483 0.0
N1705 N 0.72691 0.55408 0.91368 0.0
C1706 C 0.70019 0.55227 0.8912 0.0
C1707 C 0.72395 0.52615 0.89288 0.0
C1708 C 0.71048 0.56214 0.90586 0.0
C1709 C 0.73381 0.53645 0.90753 0.0
C1710 C 0.67712 0.50944 0.82223 0.0
C1711 C 0.68769 0.52698 0.82185 0.0
C1712 C 0.66949 0.50189 0.80481 0.0
C1713 C 0.69032 0.53671 0.80406 0.0
C1714 C 0.67243 0.51208 0.78733 0.0
N1715 N 0.6827 0.52913 0.78732 0.0
C1716 C 0.72156 0.48599 0.82343 0.0
C1717 C 0.73735 0.51107 0.84151 0.0
C1718 C 0.73731 0.48484 0.81056 0.0
N1719 N 0.72192 0.49887 0.83858 0.0
C1720 C 0.75341 0.51049 0.8289 0.0
C1721 C 0.75348 0.49725 0.81317 0.0
H1722 H 0.70888 0.47677 0.82124 0.0
H1723 H 0.7371 0.5214 0.85346 0.0
C1724 C 0.64837 0.55043 0.87377 0.0
N1725 N 0.65293 0.54004 0.85744 0.0
C1726 C 0.635 0.56582 0.87283 0.0
C1727 C 0.63086 0.55931 0.83831 0.0
C1728 C 0.64436 0.54405 0.83992 0.0
C1729 C 0.62598 0.57037 0.85494 0.0
H1730 H 0.65473 0.54636 0.88768 0.0
H1731 H 0.64747 0.53514 0.82727 0.0
O1732 O 0.69609 0.47726 0.87337 0.0
O1733 O 0.6593 0.50083 0.88221 0.0
O1734 O 0.69683 0.52396 0.87067 0.0
O1735 O 0.67463 0.49936 0.83938 0.0
H1736 H 0.69006 0.44769 0.84898 0.0
H1737 H 0.73388 0.4785 0.88218 0.0
H1738 H 0.71594 0.42562 0.83637 0.0
H1739 H 0.75901 0.456 0.86885 0.0
H1740 H 0.60079 0.49958 0.85043 0.0
H1741 H 0.6364 0.50223 0.91327 0.0
H1742 H 0.63707 0.49945 0.85031 0.0
H1743 H 0.60005 0.50234 0.91228 0.0
H1744 H 0.71816 0.47819 0.94913 0.0
H1745 H 0.67422 0.52351 0.954 0.0
H1746 H 0.62678 0.43686 0.82487 0.0
H1747 H 0.63435 0.4248 0.8866 0.0
H1748 H 0.68732 0.55885 0.8848 0.0
H1749 H 0.72938 0.51211 0.88805 0.0
H1750 H 0.70542 0.57625 0.91097 0.0
H1751 H 0.74693 0.53042 0.91403 0.0
H1752 H 0.69379 0.53309 0.83508 0.0
H1753 H 0.66141 0.48828 0.80477 0.0
H1754 H 0.69845 0.5503 0.80358 0.0
H1755 H 0.66658 0.5064 0.77375 0.0
H1756 H 0.73662 0.4747 0.79839 0.0
H1757 H 0.76562 0.52029 0.8314 0.0
H1758 H 0.63128 0.57361 0.88612 0.0
H1759 H 0.62419 0.5623 0.82425 0.0
Li1760 Li 0.49188 0.68774 0.88697 0.0
Li1761 Li 0.51067 0.66981 0.86227 0.0
Li1762 Li 0.49326 0.69955 0.85494 0.0
Li1763 Li 0.47495 0.66974 0.86174 0.0
C1764 C 0.52836 0.71015 0.8665 0.0
N1765 N 0.55324 0.7386 0.85206 0.0
C1766 C 0.54343 0.70508 0.85361 0.0
C1767 C 0.5261 0.72967 0.8722 0.0
C1768 C 0.55583 0.71968 0.84645 0.0
C1769 C 0.53877 0.74385 0.86468 0.0
C1770 C 0.49235 0.63928 0.88183 0.0
C1771 C 0.49299 0.60877 0.86408 0.0
N1772 N 0.49217 0.59885 0.88132 0.0
C1773 C 0.4915 0.6288 0.89937 0.0
C1774 C 0.49308 0.62921 0.86403 0.0
C1775 C 0.49143 0.60835 0.89881 0.0
C1776 C 0.479 0.68187 0.92508 0.0
N1777 N 0.49133 0.69292 0.9141 0.0
C1778 C 0.50447 0.7081 0.94269 0.0
C1779 C 0.5038 0.70602 0.92237 0.0
C1780 C 0.49238 0.69636 0.95446 0.0
C1781 C 0.47927 0.68336 0.94542 0.0
H1782 H 0.46932 0.67152 0.91801 0.0
H1783 H 0.5136 0.71443 0.91322 0.0
C1784 C 0.53719 0.64586 0.84097 0.0
N1785 N 0.53296 0.65392 0.85864 0.0
C1786 C 0.55308 0.63314 0.83905 0.0
C1787 C 0.56001 0.63758 0.87349 0.0
C1788 C 0.544 0.65018 0.87473 0.0
C1789 C 0.56464 0.62875 0.8555 0.0
H1790 H 0.52805 0.64907 0.82847 0.0
H1791 H 0.54009 0.65671 0.88862 0.0
C1792 C 0.45909 0.70685 0.88484 0.0
N1793 N 0.43901 0.72689 0.91369 0.0
C1794 C 0.44083 0.70018 0.89119 0.0
C1795 C 0.46695 0.72393 0.8929 0.0
C1796 C 0.43094 0.71046 0.90586 0.0
C1797 C 0.45664 0.73379 0.90755 0.0
C1798 C 0.48367 0.67713 0.82223 0.0
C1799 C 0.46612 0.68769 0.82185 0.0
C1800 C 0.49123 0.66953 0.80481 0.0
C1801 C 0.45639 0.69033 0.80407 0.0
C1802 C 0.48105 0.67247 0.78732 0.0
N1803 N 0.46399 0.68273 0.78731 0.0
C1804 C 0.50709 0.72158 0.82344 0.0
C1805 C 0.48202 0.73736 0.84154 0.0
C1806 C 0.50823 0.73734 0.81057 0.0
N1807 N 0.49422 0.72193 0.8386 0.0
C1808 C 0.48258 0.75342 0.82893 0.0
C1809 C 0.49582 0.7535 0.8132 0.0
H1810 H 0.51631 0.70891 0.82125 0.0
H1811 H 0.47168 0.7371 0.85349 0.0
C1812 C 0.44267 0.64837 0.87376 0.0
N1813 N 0.45307 0.65293 0.85744 0.0
C1814 C 0.42729 0.63499 0.87281 0.0
C1815 C 0.43382 0.63085 0.83829 0.0
C1816 C 0.44908 0.64435 0.83991 0.0
C1817 C 0.42274 0.62597 0.85491 0.0
H1818 H 0.44673 0.65473 0.88767 0.0
H1819 H 0.45799 0.64746 0.82727 0.0
O1820 O 0.51584 0.6961 0.87338 0.0
O1821 O 0.49228 0.6593 0.8822 0.0
O1822 O 0.46914 0.69683 0.87068 0.0
O1823 O 0.49374 0.67464 0.83939 0.0
H1824 H 0.54541 0.69008 0.84897 0.0
H1825 H 0.51459 0.73389 0.8822 0.0
H1826 H 0.56746 0.71597 0.83637 0.0
H1827 H 0.53709 0.75902 0.86887 0.0
H1828 H 0.49354 0.6008 0.85042 0.0
H1829 H 0.49088 0.63639 0.91326 0.0
H1830 H 0.49366 0.63707 0.8503 0.0
H1831 H 0.49078 0.60004 0.91227 0.0
H1832 H 0.51491 0.71814 0.94914 0.0
H1833 H 0.46958 0.67421 0.954 0.0
H1834 H 0.55624 0.62678 0.82488 0.0
H1835 H 0.56831 0.63436 0.8866 0.0
H1836 H 0.43425 0.68732 0.88479 0.0
H1837 H 0.48099 0.72937 0.88808 0.0
H1838 H 0.41683 0.70541 0.91096 0.0
H1839 H 0.46267 0.7469 0.91405 0.0
H1840 H 0.46 0.69377 0.83509 0.0
H1841 H 0.50485 0.66146 0.80477 0.0
H1842 H 0.4428 0.69844 0.80358 0.0
H1843 H 0.48673 0.66664 0.77375 0.0
H1844 H 0.51836 0.73665 0.7984 0.0
H1845 H 0.47278 0.76563 0.83144 0.0
H1846 H 0.41948 0.63127 0.8861 0.0
H1847 H 0.43084 0.62418 0.82423 0.0
Li1848 Li 0.69957 0.49326 0.13814 0.0
Li1849 Li 0.66977 0.47494 0.13134 0.0
Li1850 Li 0.68777 0.49187 0.10611 0.0
Li1851 Li 0.66983 0.51066 0.1308 0.0
C1852 C 0.70689 0.45909 0.10825 0.0
N1853 N 0.72693 0.439 0.0794 0.0
C1854 C 0.70022 0.44082 0.10189 0.0
C1855 C 0.72397 0.46694 0.10019 0.0
C1856 C 0.71051 0.43094 0.08723 0.0
C1857 C 0.73383 0.45664 0.08554 0.0
C1858 C 0.67716 0.48367 0.17084 0.0
C1859 C 0.67249 0.48105 0.20575 0.0
N1860 N 0.68275 0.46399 0.20576 0.0
C1861 C 0.68772 0.46612 0.17123 0.0
C1862 C 0.66955 0.49123 0.18826 0.0
C1863 C 0.69036 0.4564 0.18902 0.0
C1864 C 0.7216 0.5071 0.16963 0.0
N1865 N 0.72196 0.49423 0.15448 0.0
C1866 C 0.75345 0.4826 0.16417 0.0
C1867 C 0.73739 0.48203 0.15155 0.0
C1868 C 0.75352 0.49584 0.17989 0.0
C1869 C 0.73735 0.50825 0.18251 0.0
H1870 H 0.70892 0.51633 0.17183 0.0
H1871 H 0.73713 0.47169 0.1396 0.0
C1872 C 0.64841 0.44266 0.11932 0.0
N1873 N 0.65296 0.45307 0.13564 0.0
C1874 C 0.63503 0.42728 0.12027 0.0
C1875 C 0.63089 0.43381 0.15478 0.0
C1876 C 0.64438 0.44907 0.15317 0.0
C1877 C 0.626 0.42273 0.13816 0.0
H1878 H 0.65477 0.44672 0.10541 0.0
H1879 H 0.64749 0.45799 0.16581 0.0
C1880 C 0.71017 0.52836 0.12658 0.0
N1881 N 0.73862 0.55325 0.14101 0.0
C1882 C 0.70509 0.54343 0.13946 0.0
C1883 C 0.72969 0.5261 0.12087 0.0
C1884 C 0.71969 0.55584 0.14662 0.0
C1885 C 0.74387 0.53878 0.12839 0.0
C1886 C 0.63931 0.49233 0.11124 0.0
C1887 C 0.62883 0.49147 0.0937 0.0
C1888 C 0.62924 0.49307 0.12904 0.0
C1889 C 0.60839 0.4914 0.09426 0.0
C1890 C 0.6088 0.49297 0.12898 0.0
N1891 N 0.59888 0.49214 0.11174 0.0
C1892 C 0.6819 0.47898 0.068 0.0
C1893 C 0.70606 0.50379 0.07071 0.0
C1894 C 0.6834 0.47925 0.04766 0.0
N1895 N 0.69295 0.49132 0.07898 0.0
C1896 C 0.70813 0.50446 0.05038 0.0
C1897 C 0.69639 0.49237 0.03862 0.0
H1898 H 0.67156 0.4693 0.07507 0.0
H1899 H 0.71446 0.51359 0.07985 0.0
C1900 C 0.64589 0.53719 0.1521 0.0
N1901 N 0.65394 0.53295 0.13443 0.0
C1902 C 0.63317 0.55308 0.15402 0.0
C1903 C 0.6376 0.55999 0.11957 0.0
C1904 C 0.65019 0.54399 0.11833 0.0
C1905 C 0.62877 0.56463 0.13757 0.0
H1906 H 0.6491 0.52805 0.1646 0.0
H1907 H 0.65672 0.54007 0.10445 0.0
O1908 O 0.69686 0.46913 0.1224 0.0
O1909 O 0.67467 0.49374 0.15369 0.0
O1910 O 0.69613 0.51584 0.11969 0.0
O1911 O 0.65933 0.49227 0.11087 0.0
H1912 H 0.68736 0.43424 0.10829 0.0
H1913 H 0.72941 0.48099 0.10501 0.0
H1914 H 0.70545 0.41683 0.08212 0.0
H1915 H 0.74695 0.46267 0.07904 0.0
H1916 H 0.66665 0.48674 0.21933 0.0
H1917 H 0.69381 0.46 0.15799 0.0
H1918 H 0.66147 0.50484 0.1883 0.0
H1919 H 0.69847 0.44281 0.1895 0.0
H1920 H 0.76565 0.4728 0.16166 0.0
H1921 H 0.73666 0.51839 0.19468 0.0
H1922 H 0.63131 0.41947 0.10698 0.0
H1923 H 0.62421 0.43083 0.16885 0.0
H1924 H 0.6901 0.54541 0.14409 0.0
H1925 H 0.73391 0.5146 0.11088 0.0
H1926 H 0.71598 0.56747 0.1567 0.0
H1927 H 0.75904 0.5371 0.12421 0.0
H1928 H 0.63643 0.49085 0.07981 0.0
H1929 H 0.6371 0.49365 0.14277 0.0
H1930 H 0.60008 0.49074 0.0808 0.0
H1931 H 0.60082 0.49352 0.14265 0.0
H1932 H 0.67424 0.46956 0.03908 0.0
H1933 H 0.71817 0.5149 0.04393 0.0
H1934 H 0.62681 0.55624 0.16819 0.0
H1935 H 0.63437 0.56829 0.10646 0.0
Li1936 Li 0.49988 0.69955 0.13815 0.0
Li1937 Li 0.51819 0.66974 0.13134 0.0
Li1938 Li 0.50125 0.68774 0.10612 0.0
Li1939 Li 0.48247 0.66981 0.13081 0.0
C1940 C 0.53404 0.70685 0.10824 0.0
N1941 N 0.55412 0.72689 0.07938 0.0
C1942 C 0.5523 0.70018 0.10187 0.0
C1943 C 0.52619 0.72394 0.10018 0.0
C1944 C 0.56218 0.71046 0.08721 0.0
C1945 C 0.53649 0.73379 0.08553 0.0
C1946 C 0.50948 0.67713 0.17085 0.0
C1947 C 0.51213 0.67244 0.20575 0.0
N1948 N 0.52918 0.68271 0.20576 0.0
C1949 C 0.52702 0.6877 0.17122 0.0
C1950 C 0.50194 0.6695 0.18827 0.0
C1951 C 0.53676 0.69034 0.18901 0.0
C1952 C 0.48604 0.72158 0.16964 0.0
N1953 N 0.49891 0.72193 0.15449 0.0
C1954 C 0.51054 0.75343 0.16415 0.0
C1955 C 0.51111 0.73736 0.15154 0.0
C1956 C 0.4973 0.7535 0.17988 0.0
C1957 C 0.48489 0.73734 0.18251 0.0
H1958 H 0.47683 0.7089 0.17184 0.0
H1959 H 0.52144 0.73711 0.13959 0.0
C1960 C 0.55046 0.64837 0.1193 0.0
N1961 N 0.54007 0.65293 0.13563 0.0
C1962 C 0.56584 0.63499 0.12024 0.0
C1963 C 0.55935 0.63087 0.15476 0.0
C1964 C 0.54408 0.64436 0.15316 0.0
C1965 C 0.5704 0.62597 0.13813 0.0
H1966 H 0.54638 0.65473 0.10539 0.0
H1967 H 0.53518 0.64748 0.16581 0.0
C1968 C 0.46477 0.71015 0.12659 0.0
N1969 N 0.43989 0.7386 0.14103 0.0
C1970 C 0.44971 0.70507 0.13948 0.0
C1971 C 0.46704 0.72967 0.12089 0.0
C1972 C 0.43731 0.71967 0.14664 0.0
C1973 C 0.45436 0.74384 0.12841 0.0
C1974 C 0.50079 0.63928 0.11125 0.0
C1975 C 0.50163 0.6288 0.09372 0.0
C1976 C 0.50006 0.62922 0.12905 0.0
C1977 C 0.5017 0.60836 0.09428 0.0
C1978 C 0.50016 0.60878 0.129 0.0
N1979 N 0.50097 0.59885 0.11176 0.0
C1980 C 0.51413 0.68187 0.068 0.0
C1981 C 0.48932 0.70603 0.07072 0.0
C1982 C 0.51385 0.68336 0.04766 0.0
N1983 N 0.50179 0.69292 0.07898 0.0
C1984 C 0.48865 0.7081 0.0504 0.0
C1985 C 0.50073 0.69636 0.03863 0.0
H1986 H 0.52381 0.67152 0.07507 0.0
H1987 H 0.47953 0.71444 0.07986 0.0
C1988 C 0.45595 0.64586 0.15212 0.0
N1989 N 0.46018 0.65392 0.13445 0.0
C1990 C 0.44006 0.63315 0.15405 0.0
C1991 C 0.43313 0.63758 0.1196 0.0
C1992 C 0.44914 0.65017 0.11836 0.0
C1993 C 0.4285 0.62875 0.1376 0.0
H1994 H 0.46509 0.64907 0.16462 0.0
H1995 H 0.45305 0.6567 0.10447 0.0
O1996 O 0.524 0.69683 0.1224 0.0
O1997 O 0.4994 0.67464 0.1537 0.0
O1998 O 0.47729 0.6961 0.11971 0.0
O1999 O 0.50085 0.6593 0.11088 0.0
H2000 H 0.55888 0.68731 0.10828 0.0
H2001 H 0.51215 0.72938 0.10501 0.0
H2002 H 0.57629 0.7054 0.08209 0.0
H2003 H 0.53046 0.74691 0.07903 0.0
H2004 H 0.50645 0.66659 0.21933 0.0
H2005 H 0.53313 0.6938 0.15799 0.0
H2006 H 0.48833 0.66142 0.18831 0.0
H2007 H 0.55034 0.69846 0.18949 0.0
H2008 H 0.52033 0.76564 0.16163 0.0
H2009 H 0.47476 0.73665 0.19468 0.0
H2010 H 0.57363 0.63127 0.10695 0.0
H2011 H 0.56234 0.6242 0.16883 0.0
H2012 H 0.44773 0.69008 0.14412 0.0
H2013 H 0.47854 0.73389 0.11089 0.0
H2014 H 0.42568 0.71597 0.15673 0.0
H2015 H 0.45604 0.75902 0.12422 0.0
H2016 H 0.50224 0.63639 0.07982 0.0
H2017 H 0.49949 0.63707 0.14278 0.0
H2018 H 0.50235 0.60005 0.08082 0.0
H2019 H 0.49961 0.6008 0.14267 0.0
H2020 H 0.52353 0.6742 0.03908 0.0
H2021 H 0.47821 0.71815 0.04394 0.0
H2022 H 0.4369 0.62678 0.16822 0.0
H2023 H 0.42483 0.63436 0.10649 0.0
Li2024 Li 0.47495 0.32341 0.13136 0.0
Li2025 Li 0.49325 0.29359 0.13817 0.0
Li2026 Li 0.51067 0.32333 0.13084 0.0
Li2027 Li 0.49189 0.3054 0.10614 0.0
C2028 C 0.48365 0.31601 0.17087 0.0
N2029 N 0.46396 0.31042 0.20578 0.0
C2030 C 0.4661 0.30545 0.17124 0.0
C2031 C 0.49121 0.32362 0.18829 0.0
C2032 C 0.45637 0.30281 0.18903 0.0
C2033 C 0.48102 0.32067 0.20578 0.0
C2034 C 0.45909 0.2863 0.10825 0.0
C2035 C 0.45664 0.25937 0.08553 0.0
N2036 N 0.43901 0.26627 0.07939 0.0
C2037 C 0.44083 0.29297 0.10189 0.0
C2038 C 0.46694 0.26922 0.10019 0.0
C2039 C 0.43094 0.2827 0.08723 0.0
C2040 C 0.44268 0.34478 0.11933 0.0
N2041 N 0.45307 0.34022 0.13566 0.0
C2042 C 0.4338 0.36229 0.15479 0.0
C2043 C 0.44907 0.34879 0.15318 0.0
C2044 C 0.42274 0.36717 0.13816 0.0
C2045 C 0.4273 0.35815 0.12027 0.0
H2046 H 0.44675 0.33842 0.10542 0.0
H2047 H 0.45798 0.34568 0.16583 0.0
C2048 C 0.50706 0.27155 0.16966 0.0
N2049 N 0.4942 0.2712 0.1545 0.0
C2050 C 0.5082 0.25578 0.18252 0.0
C2051 C 0.48256 0.2397 0.16414 0.0
C2052 C 0.482 0.25578 0.15155 0.0
C2053 C 0.49579 0.23962 0.17988 0.0
H2054 H 0.51629 0.28422 0.17187 0.0
H2055 H 0.47167 0.25604 0.13959 0.0
C2056 C 0.49236 0.35386 0.11128 0.0
N2057 N 0.4922 0.39429 0.11179 0.0
C2058 C 0.49153 0.36434 0.09374 0.0
C2059 C 0.49309 0.36392 0.12908 0.0
C2060 C 0.49146 0.38479 0.09431 0.0
C2061 C 0.493 0.38437 0.12903 0.0
C2062 C 0.52835 0.28298 0.12662 0.0
C2063 C 0.54341 0.28805 0.13951 0.0
C2064 C 0.52609 0.26346 0.12091 0.0
C2065 C 0.55581 0.27345 0.14668 0.0
C2066 C 0.53876 0.24928 0.12843 0.0
N2067 N 0.55322 0.25453 0.14106 0.0
C2068 C 0.53719 0.34728 0.15215 0.0
C2069 C 0.54402 0.34294 0.11839 0.0
C2070 C 0.55308 0.35999 0.15407 0.0
N2071 N 0.53296 0.33921 0.13448 0.0
C2072 C 0.56003 0.35553 0.11963 0.0
C2073 C 0.56465 0.36437 0.13762 0.0
H2074 H 0.52804 0.34408 0.16464 0.0
H2075 H 0.54011 0.3364 0.10451 0.0
C2076 C 0.47901 0.31128 0.06802 0.0
N2077 N 0.49135 0.30023 0.079 0.0
C2078 C 0.47929 0.30978 0.04768 0.0
C2079 C 0.50449 0.28504 0.05042 0.0
C2080 C 0.50381 0.28712 0.07074 0.0
C2081 C 0.4924 0.29678 0.03865 0.0
H2082 H 0.46933 0.32163 0.07509 0.0
H2083 H 0.5136 0.2787 0.07989 0.0
O2084 O 0.49373 0.3185 0.15372 0.0
O2085 O 0.46913 0.29632 0.12241 0.0
O2086 O 0.49229 0.33384 0.1109 0.0
O2087 O 0.51584 0.29703 0.11973 0.0
H2088 H 0.45999 0.29936 0.15801 0.0
H2089 H 0.50482 0.33169 0.18834 0.0
H2090 H 0.44278 0.2947 0.18951 0.0
H2091 H 0.4867 0.32651 0.21936 0.0
H2092 H 0.46267 0.24625 0.07903 0.0
H2093 H 0.43425 0.30584 0.1083 0.0
H2094 H 0.48098 0.26378 0.10501 0.0
H2095 H 0.41684 0.28775 0.08212 0.0
H2096 H 0.43082 0.36896 0.16886 0.0
H2097 H 0.4195 0.36188 0.10698 0.0
H2098 H 0.51833 0.25646 0.1947 0.0
H2099 H 0.47277 0.2275 0.16162 0.0
H2100 H 0.49091 0.35675 0.07985 0.0
H2101 H 0.49366 0.35606 0.14281 0.0
H2102 H 0.49082 0.3931 0.08084 0.0
H2103 H 0.49355 0.39234 0.1427 0.0
H2104 H 0.54539 0.30304 0.14415 0.0
H2105 H 0.51459 0.25925 0.11091 0.0
H2106 H 0.56744 0.27715 0.15677 0.0
H2107 H 0.53707 0.23411 0.12425 0.0
H2108 H 0.55623 0.36637 0.16823 0.0
H2109 H 0.56834 0.35874 0.10652 0.0
H2110 H 0.46961 0.31894 0.0391 0.0
H2111 H 0.51492 0.27499 0.04397 0.0
C2112 C 0.14975 0.41014 0.39951 0.0
C2113 C 0.13916 0.40711 0.38214 0.0
H2114 H 0.15738 0.39912 0.42781 0.0
C2115 C 0.12886 0.38948 0.37969 0.0
H2116 H 0.1576 0.42369 0.40196 0.0
C2117 C 0.12874 0.37539 0.3945 0.0
C2118 C 0.13891 0.37863 0.41209 0.0
H2119 H 0.1208 0.3866 0.36634 0.0
H2120 H 0.12061 0.36197 0.3922 0.0
C2121 C 0.14962 0.39605 0.41433 0.0
C2122 C 0.59695 0.14961 0.41443 0.0
C2123 C 0.61439 0.13895 0.41216 0.0
H2124 H 0.56929 0.15756 0.40208 0.0
C2125 C 0.61766 0.12883 0.39454 0.0
H2126 H 0.59386 0.15733 0.42793 0.0
C2127 C 0.60356 0.12895 0.37973 0.0
C2128 C 0.5859 0.1392 0.38221 0.0
H2129 H 0.63109 0.12074 0.39222 0.0
H2130 H 0.60646 0.12094 0.36636 0.0
C2131 C 0.58286 0.14974 0.39961 0.0
C2132 C 0.86439 0.61765 0.39463 0.0
C2133 C 0.85424 0.61443 0.41224 0.0
H2134 H 0.87231 0.60641 0.36648 0.0
C2135 C 0.84354 0.59701 0.41451 0.0
H2136 H 0.87252 0.63107 0.39231 0.0
C2137 C 0.8434 0.5829 0.39972 0.0
C2138 C 0.85397 0.58591 0.38232 0.0
H2139 H 0.83579 0.59396 0.42801 0.0
H2140 H 0.83555 0.56935 0.40219 0.0
C2141 C 0.86427 0.60354 0.37985 0.0
C2142 C 0.39604 0.84354 0.41443 0.0
C2143 C 0.37862 0.85426 0.41217 0.0
H2144 H 0.42368 0.83555 0.40209 0.0
C2145 C 0.3754 0.86442 0.39457 0.0
H2146 H 0.39909 0.83579 0.42792 0.0
C2147 C 0.3895 0.8643 0.37978 0.0
C2148 C 0.40713 0.85399 0.38224 0.0
H2149 H 0.36199 0.87255 0.39225 0.0
H2150 H 0.38664 0.87234 0.36642 0.0
C2151 C 0.41014 0.84341 0.39963 0.0
C2152 C 0.12902 0.6036 0.61342 0.0
C2153 C 0.13924 0.58592 0.61094 0.0
H2154 H 0.12085 0.63114 0.60093 0.0
C2155 C 0.14975 0.58285 0.59353 0.0
H2156 H 0.12103 0.60652 0.6268 0.0
C2157 C 0.14963 0.59693 0.57871 0.0
C2158 C 0.139 0.6144 0.58098 0.0
H2159 H 0.15753 0.56926 0.59106 0.0
H2160 H 0.15732 0.59382 0.5652 0.0
C2161 C 0.12892 0.61769 0.59861 0.0
C2162 C 0.39606 0.14957 0.5787 0.0
C2163 C 0.37863 0.13886 0.58095 0.0
H2164 H 0.4237 0.15755 0.59106 0.0
C2165 C 0.37539 0.1287 0.59854 0.0
H2166 H 0.39913 0.15732 0.56522 0.0
C2167 C 0.38949 0.12882 0.61335 0.0
C2168 C 0.40712 0.13912 0.6109 0.0
H2169 H 0.36198 0.12057 0.60085 0.0
H2170 H 0.38661 0.12077 0.6267 0.0
C2171 C 0.41015 0.1497 0.59352 0.0
C2172 C 0.84344 0.41013 0.59337 0.0
C2173 C 0.85404 0.40715 0.61074 0.0
H2174 H 0.83581 0.39906 0.56509 0.0
C2175 C 0.86438 0.38954 0.61321 0.0
H2176 H 0.83556 0.42367 0.5909 0.0
C2177 C 0.86451 0.37543 0.59842 0.0
C2178 C 0.85432 0.37862 0.58083 0.0
H2179 H 0.87244 0.38669 0.62656 0.0
H2180 H 0.87266 0.36203 0.60073 0.0
C2181 C 0.84358 0.39603 0.57857 0.0
C2182 C 0.60356 0.86416 0.61329 0.0
C2183 C 0.58592 0.85389 0.61081 0.0
H2184 H 0.63109 0.87239 0.60083 0.0
C2185 C 0.5829 0.84333 0.59341 0.0
H2186 H 0.60644 0.87219 0.62666 0.0
C2187 C 0.597 0.84346 0.57861 0.0
C2188 C 0.61444 0.85415 0.58089 0.0
H2189 H 0.56934 0.8355 0.59094 0.0
H2190 H 0.59394 0.83573 0.56512 0.0
C2191 C 0.61767 0.86428 0.5985 0.0
C2192 C 0.37979 0.12881 0.38953 0.0
C2193 C 0.38226 0.1391 0.40717 0.0
H2194 H 0.39226 0.12057 0.362 0.0
C2195 C 0.39965 0.14966 0.41018 0.0
H2196 H 0.36642 0.12078 0.38666 0.0
C2197 C 0.41446 0.14953 0.39608 0.0
C2198 C 0.41218 0.13884 0.37865 0.0
H2199 H 0.40213 0.1575 0.42374 0.0
H2200 H 0.42795 0.15727 0.39915 0.0
C2201 C 0.39458 0.12869 0.37542 0.0
C2202 C 0.84336 0.39955 0.4102 0.0
C2203 C 0.8539 0.38214 0.40715 0.0
H2204 H 0.83577 0.42786 0.39921 0.0
C2205 C 0.86415 0.37968 0.38948 0.0
H2206 H 0.83555 0.40201 0.42377 0.0
C2207 C 0.86426 0.39448 0.37539 0.0
C2208 C 0.85414 0.4121 0.37866 0.0
H2209 H 0.87216 0.36631 0.38658 0.0
H2210 H 0.87235 0.39217 0.36195 0.0
C2211 C 0.84348 0.41436 0.39611 0.0
C2212 C 0.59852 0.8643 0.37541 0.0
C2213 C 0.58091 0.85415 0.37866 0.0
H2214 H 0.62668 0.87221 0.38662 0.0
C2215 C 0.57865 0.84346 0.39609 0.0
H2216 H 0.60083 0.87241 0.36199 0.0
C2217 C 0.59346 0.84333 0.41018 0.0
C2218 C 0.61086 0.8539 0.40715 0.0
H2219 H 0.56516 0.83573 0.39916 0.0
H2220 H 0.591 0.83549 0.42374 0.0
C2221 C 0.61332 0.86418 0.38951 0.0
C2222 C 0.14971 0.59336 0.41016 0.0
C2223 C 0.13913 0.61075 0.40716 0.0
H2224 H 0.15733 0.56507 0.39911 0.0
C2225 C 0.12883 0.61322 0.38953 0.0
H2226 H 0.15757 0.59089 0.42371 0.0
C2227 C 0.1287 0.59843 0.37542 0.0
C2228 C 0.13886 0.58083 0.37864 0.0
H2229 H 0.12079 0.62658 0.38667 0.0
H2230 H 0.12057 0.60075 0.36201 0.0
C2231 C 0.14958 0.57856 0.39606 0.0
C2232 C 0.39959 0.84337 0.58285 0.0
C2233 C 0.38219 0.85392 0.58589 0.0
H2234 H 0.4279 0.83577 0.59386 0.0
C2235 C 0.37972 0.86417 0.60355 0.0
H2236 H 0.40206 0.83555 0.56928 0.0
C2237 C 0.39452 0.86428 0.61765 0.0
C2238 C 0.41213 0.85416 0.61439 0.0
H2239 H 0.36635 0.87219 0.60644 0.0
H2240 H 0.3922 0.87238 0.63108 0.0
C2241 C 0.4144 0.84349 0.59694 0.0
C2242 C 0.12848 0.39468 0.61763 0.0
C2243 C 0.13868 0.41226 0.61445 0.0
H2244 H 0.12054 0.36655 0.60636 0.0
C2245 C 0.14943 0.41452 0.59705 0.0
H2246 H 0.12032 0.39237 0.63103 0.0
C2247 C 0.14957 0.39973 0.58294 0.0
C2248 C 0.13896 0.38236 0.58591 0.0
H2249 H 0.15721 0.428 0.59402 0.0
H2250 H 0.15746 0.40219 0.56941 0.0
C2251 C 0.12861 0.3799 0.60352 0.0
C2252 C 0.57858 0.14958 0.59703 0.0
C2253 C 0.58086 0.13889 0.61446 0.0
H2254 H 0.59091 0.15756 0.56937 0.0
C2255 C 0.59846 0.12874 0.61769 0.0
H2256 H 0.56509 0.15732 0.59397 0.0
C2257 C 0.61326 0.12886 0.60358 0.0
C2258 C 0.61078 0.13915 0.58594 0.0
H2259 H 0.60078 0.12062 0.63111 0.0
H2260 H 0.62662 0.12083 0.60646 0.0
C2261 C 0.59339 0.14972 0.58293 0.0
C2262 C 0.86416 0.59859 0.61769 0.0
C2263 C 0.85405 0.58097 0.61441 0.0
H2264 H 0.87206 0.62677 0.60651 0.0
C2265 C 0.8434 0.57871 0.59696 0.0
H2266 H 0.87224 0.60091 0.63113 0.0
C2267 C 0.84328 0.59353 0.58287 0.0
C2268 C 0.85382 0.61093 0.58593 0.0
H2269 H 0.83569 0.5652 0.59386 0.0
H2270 H 0.83548 0.59106 0.5693 0.0
C2271 C 0.86405 0.6134 0.6036 0.0
C2272 C 0.37542 0.3946 0.12878 0.0
C2273 C 0.37866 0.41221 0.13891 0.0
H2274 H 0.38665 0.36644 0.12087 0.0
C2275 C 0.3961 0.41448 0.1496 0.0
H2276 H 0.362 0.39228 0.12067 0.0
C2277 C 0.4102 0.39968 0.14973 0.0
C2278 C 0.40717 0.38228 0.13917 0.0
H2279 H 0.39917 0.42798 0.15733 0.0
H2280 H 0.42376 0.40215 0.15756 0.0
C2281 C 0.38953 0.37981 0.12889 0.0
C2282 C 0.38953 0.61333 0.86417 0.0
C2283 C 0.40718 0.61085 0.8539 0.0
H2284 H 0.362 0.60085 0.87238 0.0
C2285 C 0.41021 0.59345 0.84335 0.0
H2286 H 0.38664 0.62669 0.87219 0.0
C2287 C 0.39612 0.57865 0.84347 0.0
C2288 C 0.37868 0.58092 0.85415 0.0
H2289 H 0.42378 0.59098 0.83552 0.0
H2290 H 0.3992 0.56515 0.83575 0.0
C2291 C 0.37543 0.59853 0.86428 0.0
C2292 C 0.41449 0.39607 0.84349 0.0
C2293 C 0.41222 0.37864 0.85418 0.0
H2294 H 0.40216 0.42373 0.83553 0.0
C2295 C 0.39461 0.3754 0.86432 0.0
H2296 H 0.42799 0.39914 0.83576 0.0
C2297 C 0.37982 0.3895 0.8642 0.0
C2298 C 0.38229 0.40715 0.85392 0.0
H2299 H 0.39229 0.36198 0.87243 0.0
H2300 H 0.36645 0.38663 0.87223 0.0
C2301 C 0.39969 0.41017 0.84336 0.0
C2302 C 0.59701 0.41442 0.84349 0.0
C2303 C 0.61445 0.41216 0.85419 0.0
H2304 H 0.56937 0.40207 0.83552 0.0
C2305 C 0.61769 0.39456 0.86433 0.0
H2306 H 0.59394 0.42791 0.83576 0.0
C2307 C 0.6036 0.37975 0.86421 0.0
C2308 C 0.58596 0.38221 0.85393 0.0
H2309 H 0.63112 0.39225 0.87244 0.0
H2310 H 0.60649 0.36639 0.87224 0.0
C2311 C 0.58293 0.3996 0.84336 0.0
C2312 C 0.59347 0.58291 0.84337 0.0
C2313 C 0.61086 0.58594 0.85393 0.0
H2314 H 0.56517 0.59394 0.83577 0.0
C2315 C 0.61334 0.60358 0.86421 0.0
H2316 H 0.591 0.56935 0.83554 0.0
C2317 C 0.59854 0.61768 0.86433 0.0
C2318 C 0.58093 0.61444 0.85419 0.0
H2319 H 0.6267 0.60646 0.87224 0.0
H2320 H 0.60086 0.6311 0.87244 0.0
C2321 C 0.57866 0.59701 0.8435 0.0
C2322 C 0.59703 0.57866 0.14957 0.0
C2323 C 0.61446 0.58092 0.13887 0.0
H2324 H 0.56938 0.591 0.15754 0.0
C2325 C 0.6177 0.59853 0.12873 0.0
H2326 H 0.59397 0.56517 0.15731 0.0
C2327 C 0.6036 0.61333 0.12885 0.0
C2328 C 0.58596 0.61086 0.13914 0.0
H2329 H 0.63112 0.60084 0.12061 0.0
H2330 H 0.60648 0.62669 0.12082 0.0
C2331 C 0.58294 0.59347 0.1497 0.0
C2332 C 0.37979 0.6036 0.12888 0.0
C2333 C 0.38226 0.58595 0.13916 0.0
H2334 H 0.39228 0.63112 0.12065 0.0
C2335 C 0.39965 0.58292 0.14973 0.0
H2336 H 0.36643 0.60648 0.12085 0.0
C2337 C 0.41446 0.59702 0.1496 0.0
C2338 C 0.4122 0.61445 0.13891 0.0
H2339 H 0.40212 0.56936 0.15756 0.0
H2340 H 0.42795 0.59394 0.15733 0.0
C2341 C 0.39459 0.6177 0.12876 0.0
C2342 C 0.59349 0.41021 0.14973 0.0
C2343 C 0.61089 0.40717 0.13918 0.0
H2344 H 0.56518 0.3992 0.15733 0.0
C2345 C 0.61336 0.38952 0.12891 0.0
H2346 H 0.59102 0.42378 0.15755 0.0
C2347 C 0.59856 0.37542 0.1288 0.0
C2348 C 0.58095 0.37868 0.13893 0.0
H2349 H 0.62673 0.38663 0.12089 0.0
H2350 H 0.60088 0.36199 0.1207 0.0
C2351 C 0.57868 0.39612 0.1496 0.0
C2352 C 0.00678 0.27863 0.4975 0.0
C2353 C 0.01709 0.29639 0.49866 0.0
H2354 H 0.97876 0.26475 0.49459 0.0
C2355 C 0.00671 0.31409 0.49752 0.0
H2356 H 0.01446 0.26478 0.49839 0.0
C2357 C 0.98644 0.31407 0.49526 0.0
C2358 C 0.97608 0.29635 0.4942 0.0
H2359 H 0.0143 0.328 0.49813 0.0
H2360 H 0.97883 0.32797 0.49461 0.0
C2361 C 0.98641 0.27861 0.49542 0.0
C2362 C 0.71431 0.00675 0.49756 0.0
C2363 C 0.69655 0.01706 0.49874 0.0
H2364 H 0.72817 0.97872 0.49464 0.0
C2365 C 0.67884 0.00668 0.49764 0.0
H2366 H 0.72816 0.01442 0.49842 0.0
C2367 C 0.67885 0.98641 0.4954 0.0
C2368 C 0.69657 0.97604 0.49431 0.0
H2369 H 0.66494 0.01428 0.49827 0.0
H2370 H 0.66495 0.97881 0.49477 0.0
C2371 C 0.71432 0.98637 0.4955 0.0
C2372 C 0.98643 0.71434 0.49766 0.0
C2373 C 0.97609 0.69659 0.49887 0.0
H2374 H 0.01448 0.72816 0.49472 0.0
C2375 C 0.98645 0.67887 0.4978 0.0
H2376 H 0.97878 0.7282 0.4985 0.0
C2377 C 0.00672 0.67885 0.49556 0.0
C2378 C 0.01711 0.69655 0.49443 0.0
H2379 H 0.97884 0.66498 0.49845 0.0
H2380 H 0.01431 0.66494 0.49495 0.0
C2381 C 0.0068 0.71432 0.4956 0.0
C2382 C 0.27863 0.00676 0.49552 0.0
C2383 C 0.29639 0.01707 0.49434 0.0
H2384 H 0.26477 0.97872 0.49845 0.0
C2385 C 0.3141 0.0067 0.49544 0.0
H2386 H 0.26478 0.01442 0.49465 0.0
C2387 C 0.31409 0.98643 0.4977 0.0
C2388 C 0.29638 0.97606 0.49879 0.0
H2389 H 0.328 0.01429 0.49482 0.0
H2390 H 0.32799 0.97882 0.49833 0.0
C2391 C 0.27863 0.98638 0.49759 0.0
C2392 C 0.49555 0.98634 0.27869 0.0
C2393 C 0.49437 0.97602 0.29645 0.0
H2394 H 0.49846 0.01437 0.26482 0.0
C2395 C 0.49548 0.9864 0.31415 0.0
H2396 H 0.49467 0.97867 0.26484 0.0
C2397 C 0.49773 0.00667 0.31415 0.0
C2398 C 0.49881 0.01704 0.29643 0.0
H2399 H 0.49486 0.97881 0.32806 0.0
H2400 H 0.49837 0.01428 0.32805 0.0
C2401 C 0.49761 0.00671 0.27868 0.0
C2402 C 0.9863 0.49753 0.27871 0.0
C2403 C 0.97599 0.4987 0.29648 0.0
H2404 H 0.01433 0.49461 0.26484 0.0
C2405 C 0.98638 0.49759 0.31418 0.0
H2406 H 0.97863 0.4984 0.26487 0.0
C2407 C 0.00665 0.49535 0.31416 0.0
C2408 C 0.01701 0.49426 0.29644 0.0
H2409 H 0.97879 0.49821 0.32809 0.0
H2410 H 0.01426 0.49471 0.32806 0.0
C2411 C 0.00668 0.49546 0.2787 0.0
C2412 C 0.49754 0.9863 0.71436 0.0
C2413 C 0.49873 0.97599 0.6966 0.0
H2414 H 0.49462 0.01433 0.72823 0.0
C2415 C 0.49764 0.98637 0.67889 0.0
H2416 H 0.49841 0.97863 0.72821 0.0
C2417 C 0.49539 0.00664 0.67891 0.0
C2418 C 0.49429 0.01701 0.69662 0.0
H2419 H 0.49827 0.97878 0.66499 0.0
H2420 H 0.49476 0.01425 0.66501 0.0
C2421 C 0.49548 0.00668 0.71437 0.0
C2422 C 0.98625 0.49567 0.71441 0.0
C2423 C 0.97595 0.49451 0.69664 0.0
H2424 H 0.01427 0.49857 0.7283 0.0
C2425 C 0.98635 0.49565 0.67894 0.0
H2426 H 0.97857 0.49477 0.72825 0.0
C2427 C 0.00662 0.49791 0.67897 0.0
C2428 C 0.01697 0.49897 0.6967 0.0
H2429 H 0.97877 0.49505 0.66503 0.0
H2430 H 0.01423 0.49857 0.66508 0.0
C2431 C 0.00663 0.49774 0.71444 0.0
C2432 C 0.27876 0.49553 0.98634 0.0
C2433 C 0.29652 0.49434 0.97602 0.0
H2434 H 0.2649 0.49846 0.01437 0.0
C2435 C 0.31422 0.49544 0.98639 0.0
H2436 H 0.26491 0.49466 0.97867 0.0
C2437 C 0.31422 0.49769 0.00666 0.0
C2438 C 0.29651 0.49879 0.01704 0.0
H2439 H 0.32813 0.49481 0.9788 0.0
H2440 H 0.32812 0.49832 0.01427 0.0
C2441 C 0.27876 0.49759 0.00671 0.0
C2442 C 0.4976 0.27873 0.98638 0.0
C2443 C 0.4988 0.29648 0.97605 0.0
H2444 H 0.49467 0.26488 0.01442 0.0
C2445 C 0.4977 0.31419 0.98642 0.0
H2446 H 0.49846 0.26487 0.97872 0.0
C2447 C 0.49545 0.3142 0.00669 0.0
C2448 C 0.49435 0.29649 0.01707 0.0
H2449 H 0.49834 0.32809 0.97882 0.0
H2450 H 0.49483 0.32811 0.01429 0.0
C2451 C 0.49554 0.27873 0.00676 0.0
C2452 C 0.67895 0.49766 0.9864 0.0
C2453 C 0.69666 0.49876 0.97603 0.0
H2454 H 0.66505 0.49478 0.01427 0.0
C2455 C 0.71441 0.49757 0.98634 0.0
H2456 H 0.66504 0.49829 0.9788 0.0
C2457 C 0.71442 0.49551 0.00672 0.0
C2458 C 0.69666 0.49432 0.01704 0.0
H2459 H 0.72827 0.49844 0.97868 0.0
H2460 H 0.72827 0.49465 0.01438 0.0
C2461 C 0.67895 0.49541 0.00667 0.0
C2462 C 0.49543 0.67893 0.98641 0.0
C2463 C 0.49433 0.69664 0.97603 0.0
H2464 H 0.49831 0.66502 0.01428 0.0
C2465 C 0.49553 0.71439 0.98635 0.0
H2466 H 0.4948 0.66502 0.97881 0.0
C2467 C 0.49759 0.71439 0.00673 0.0
C2468 C 0.49878 0.69664 0.01705 0.0
H2469 H 0.49466 0.72825 0.97869 0.0
H2470 H 0.49846 0.72825 0.01439 0.0
C2471 C 0.49768 0.67893 0.00668 0.0
C2472 C 0.20105 0.21595 0.47903 0.0
C2473 C 0.1941 0.22329 0.49694 0.0
H2474 H 0.22093 0.19649 0.46465 0.0
C2475 C 0.20144 0.21548 0.51449 0.0
H2476 H 0.1955 0.22158 0.46528 0.0
C2477 C 0.21591 0.20106 0.51413 0.0
C2478 C 0.22324 0.19411 0.49622 0.0
H2479 H 0.19646 0.22095 0.52851 0.0
H2480 H 0.22152 0.19549 0.52788 0.0
C2481 C 0.21545 0.20147 0.47867 0.0
C2482 C 0.77769 0.20131 0.51448 0.0
C2483 C 0.76988 0.19397 0.49693 0.0
H2484 H 0.79768 0.22137 0.52788 0.0
C2485 C 0.77722 0.20093 0.47902 0.0
H2486 H 0.77221 0.19633 0.5285 0.0
C2487 C 0.79171 0.21532 0.47867 0.0
C2488 C 0.79907 0.22311 0.49622 0.0
H2489 H 0.7716 0.19538 0.46527 0.0
H2490 H 0.7967 0.2208 0.46465 0.0
C2491 C 0.79212 0.21577 0.51413 0.0
C2492 C 0.79181 0.77779 0.51442 0.0
C2493 C 0.79916 0.77001 0.49686 0.0
H2494 H 0.77171 0.79774 0.52782 0.0
C2495 C 0.79221 0.77735 0.47896 0.0
H2496 H 0.79679 0.77231 0.52843 0.0
C2497 C 0.77779 0.79182 0.47861 0.0
C2498 C 0.76998 0.79915 0.49616 0.0
H2499 H 0.79776 0.77175 0.46521 0.0
H2500 H 0.7723 0.79681 0.46459 0.0
C2501 C 0.77732 0.79219 0.51407 0.0
C2502 C 0.20098 0.77719 0.51406 0.0
C2503 C 0.19402 0.76985 0.49615 0.0
H2504 H 0.22085 0.79667 0.52843 0.0
C2505 C 0.20135 0.77766 0.4786 0.0
H2506 H 0.19544 0.77157 0.52781 0.0
C2507 C 0.21581 0.79209 0.47895 0.0
C2508 C 0.22315 0.79905 0.49686 0.0
H2509 H 0.19636 0.77218 0.46458 0.0
H2510 H 0.22141 0.79765 0.4652 0.0
C2511 C 0.21537 0.79169 0.51441 0.0
C2512 C 0.51443 0.20136 0.21536 0.0
C2513 C 0.49687 0.19401 0.22315 0.0
H2514 H 0.52783 0.22146 0.19541 0.0
C2515 C 0.47897 0.20097 0.2158 0.0
H2516 H 0.52844 0.19638 0.22084 0.0
C2517 C 0.47862 0.21539 0.20134 0.0
C2518 C 0.49617 0.22319 0.194 0.0
H2519 H 0.46521 0.19542 0.22141 0.0
H2520 H 0.4646 0.22087 0.19635 0.0
C2521 C 0.51408 0.21585 0.20096 0.0
C2522 C 0.7921 0.47902 0.21588 0.0
C2523 C 0.79906 0.49693 0.22323 0.0
H2524 H 0.77223 0.46465 0.19641 0.0
C2525 C 0.79173 0.51448 0.21542 0.0
H2526 H 0.79765 0.46527 0.2215 0.0
C2527 C 0.77727 0.51413 0.201 0.0
C2528 C 0.76992 0.49622 0.19404 0.0
H2529 H 0.79671 0.5285 0.2209 0.0
H2530 H 0.77166 0.52788 0.19543 0.0
C2531 C 0.77771 0.47867 0.20139 0.0
C2532 C 0.479 0.77726 0.20096 0.0
C2533 C 0.49691 0.76992 0.19401 0.0
H2534 H 0.46462 0.79672 0.22085 0.0
C2535 C 0.51446 0.77772 0.20136 0.0
H2536 H 0.46525 0.77165 0.1954 0.0
C2537 C 0.5141 0.79212 0.21584 0.0
C2538 C 0.49619 0.79908 0.22318 0.0
H2539 H 0.52848 0.77224 0.19638 0.0
H2540 H 0.52785 0.79768 0.22146 0.0
C2541 C 0.47864 0.79174 0.21537 0.0
C2542 C 0.20131 0.47867 0.21529 0.0
C2543 C 0.19396 0.49622 0.22308 0.0
H2544 H 0.22141 0.46527 0.19534 0.0
C2545 C 0.20092 0.51413 0.21575 0.0
H2546 H 0.19632 0.46465 0.22077 0.0
C2547 C 0.21534 0.51448 0.20128 0.0
C2548 C 0.22314 0.49693 0.19394 0.0
H2549 H 0.19536 0.52788 0.22136 0.0
H2550 H 0.22082 0.5285 0.1963 0.0
C2551 C 0.21579 0.47902 0.20089 0.0
C2552 C 0.5141 0.77726 0.7921 0.0
C2553 C 0.49619 0.76991 0.79906 0.0
H2554 H 0.52846 0.79671 0.7722 0.0
C2555 C 0.47864 0.7777 0.79171 0.0
H2556 H 0.52785 0.77165 0.79766 0.0
C2557 C 0.47899 0.7921 0.77723 0.0
C2558 C 0.49689 0.79906 0.76988 0.0
H2559 H 0.46462 0.77221 0.7967 0.0
H2560 H 0.46523 0.79765 0.77161 0.0
C2561 C 0.51445 0.79173 0.77768 0.0
C2562 C 0.21583 0.51405 0.79215 0.0
C2563 C 0.22318 0.49614 0.79911 0.0
H2564 H 0.19636 0.52842 0.77228 0.0
C2565 C 0.21536 0.47859 0.79178 0.0
H2566 H 0.22146 0.5278 0.79769 0.0
C2567 C 0.20093 0.47894 0.77733 0.0
C2568 C 0.19397 0.49685 0.76998 0.0
H2569 H 0.22084 0.46457 0.79677 0.0
H2570 H 0.19536 0.46519 0.77173 0.0
C2571 C 0.20134 0.5144 0.77776 0.0
C2572 C 0.5141 0.20089 0.77732 0.0
C2573 C 0.49619 0.19394 0.76998 0.0
H2574 H 0.52847 0.22079 0.79677 0.0
C2575 C 0.47864 0.20129 0.77778 0.0
H2576 H 0.52784 0.19534 0.7717 0.0
C2577 C 0.479 0.21577 0.79219 0.0
C2578 C 0.49691 0.22311 0.79914 0.0
H2579 H 0.46462 0.19631 0.7723 0.0
H2580 H 0.46525 0.22139 0.79774 0.0
C2581 C 0.51445 0.21531 0.79179 0.0
C2582 C 0.77767 0.51441 0.79167 0.0
C2583 C 0.76988 0.49686 0.79903 0.0
H2584 H 0.79761 0.5278 0.77155 0.0
C2585 C 0.77722 0.47895 0.79208 0.0
H2586 H 0.77219 0.52843 0.79665 0.0
C2587 C 0.79169 0.47859 0.77765 0.0
C2588 C 0.79902 0.49614 0.76984 0.0
H2589 H 0.77162 0.4652 0.79764 0.0
H2590 H 0.79667 0.46457 0.77218 0.0
C2591 C 0.79206 0.51405 0.77717 0.0
loop_
_geom_bond_atom_site_label_1
_geom_bond_atom_site_label_2
_geom_bond_distance
_geom_bond_site_symmetry_2
_ccdc_geom_bond_type
Li0 N17 1.990 . S
Li0 O60 1.956 . S
Li0 O61 1.970 . S
Li0 O62 1.961 . S
Li1 N25 1.990 . S
Li1 O60 1.970 . S
Li1 O61 1.956 . S
Li1 O63 1.961 . S
Li2 N47 1.990 . S
Li2 O60 1.961 . S
Li2 O62 1.956 . S
Li2 O63 1.970 . S
Li3 N53 1.990 . S
Li3 O61 1.961 . S
Li3 O62 1.970 . S
Li3 O63 1.956 . S
C4 C6 1.348 . S
C4 C7 1.356 . S
C4 O60 1.325 . S
N5 C8 1.314 . S
N5 C9 1.279 . S
C6 C4 1.348 . S
C6 C8 1.353 . S
C6 H64 0.929 . S
C7 C4 1.356 . S
C7 C9 1.358 . S
C7 H65 0.930 . S
C8 N5 1.314 . S
C8 C6 1.353 . S
C8 H66 0.930 . S
C9 N5 1.279 . S
C9 C7 1.358 . S
C9 H67 0.930 . S
C10 C13 1.348 . S
C10 C14 1.356 . S
C10 O61 1.325 . S
C11 N12 1.279 . S
C11 C14 1.358 . S
C11 H68 0.930 . S
N12 C11 1.279 . S
N12 C15 1.314 . S
C13 C10 1.348 . S
C13 C15 1.353 . S
C13 H69 0.929 . S
C14 C10 1.356 . S
C14 C11 1.358 . S
C14 H70 0.930 . S
C15 N12 1.314 . S
C15 C13 1.353 . S
C15 H71 0.930 . S
C16 N17 1.314 . S
C16 C21 1.353 . S
C16 H22 0.930 . S
N17 Li0 1.990 . S
N17 C16 1.314 . S
N17 C19 1.279 . S
C18 C19 1.358 . S
C18 C20 1.356 . S
C18 H72 0.930 . S
C19 N17 1.279 . S
C19 C18 1.358 . S
C19 H23 0.930 . S
C20 C18 1.356 . S
C20 C21 1.348 . S
C21 C16 1.353 . S
C21 C20 1.348 . S
C21 H73 0.929 . S
H22 C16 0.930 . S
H23 C19 0.930 . S
C24 N25 1.314 . S
C24 C26 1.353 . S
C24 H30 0.930 . S
N25 Li1 1.990 . S
N25 C24 1.314 . S
N25 C28 1.279 . S
C26 C24 1.353 . S
C26 C29 1.348 . S
C26 H74 0.929 . S
C27 C28 1.358 . S
C27 C29 1.356 . S
C27 H75 0.930 . S
C28 N25 1.279 . S
C28 C27 1.358 . S
C28 H31 0.930 . S
C29 C26 1.348 . S
C29 C27 1.356 . S
H30 C24 0.930 . S
H31 C28 0.930 . S
C32 C34 1.348 . S
C32 C35 1.356 . S
C32 O62 1.325 . S
N33 C36 1.314 . S
N33 C37 1.279 . S
C34 C32 1.348 . S
C34 C36 1.353 . S
C34 H76 0.929 . S
C35 C32 1.356 . S
C35 C37 1.358 . S
C35 H77 0.930 . S
C36 N33 1.314 . S
C36 C34 1.353 . S
C36 H78 0.930 . S
C37 N33 1.279 . S
C37 C35 1.358 . S
C37 H79 0.930 . S
C38 C39 1.348 . S
C38 C40 1.356 . S
C38 O63 1.325 . S
C39 C38 1.348 . S
C39 C41 1.353 . S
C39 H80 0.929 . S
C40 C38 1.356 . S
C40 C42 1.358 . S
C40 H81 0.930 . S
C41 C39 1.353 . S
C41 N43 1.314 . S
C41 H82 0.930 . S
C42 C40 1.358 . S
C42 N43 1.279 . S
C42 H83 0.930 . S
N43 C41 1.314 . S
N43 C42 1.279 . S
C44 C46 1.353 . S
C44 N47 1.314 . S
C44 H50 0.930 . S
C45 N47 1.279 . S
C45 C48 1.358 . S
C45 H51 0.930 . S
C46 C44 1.353 . S
C46 C49 1.348 . S
C46 H84 0.929 . S
N47 Li2 1.990 . S
N47 C44 1.314 . S
N47 C45 1.279 . S
C48 C45 1.358 . S
C48 C49 1.356 . S
C48 H85 0.930 . S
C49 C46 1.348 . S
C49 C48 1.356 . S
H50 C44 0.930 . S
H51 C45 0.930 . S
C52 N53 1.314 . S
C52 C54 1.353 . S
C52 H58 0.930 . S
N53 Li3 1.990 . S
N53 C52 1.314 . S
N53 C56 1.279 . S
C54 C52 1.353 . S
C54 C57 1.348 . S
C54 H86 0.929 . S
C55 C56 1.358 . S
C55 C57 1.356 . S
C55 H87 0.930 . S
C56 N53 1.279 . S
C56 C55 1.358 . S
C56 H59 0.930 . S
C57 C54 1.348 . S
C57 C55 1.356 . S
H58 C52 0.930 . S
H59 C56 0.930 . S
O60 Li0 1.956 . S
O60 Li1 1.970 . S
O60 Li2 1.961 . S
O60 C4 1.325 . S
O61 Li0 1.970 . S
O61 Li1 1.956 . S
O61 Li3 1.961 . S
O61 C10 1.325 . S
O62 Li0 1.961 . S
O62 Li2 1.956 . S
O62 Li3 1.970 . S
O62 C32 1.325 . S
O63 Li1 1.961 . S
O63 Li2 1.970 . S
O63 Li3 1.956 . S
O63 C38 1.325 . S
H64 C6 0.929 . S
H65 C7 0.930 . S
H66 C8 0.930 . S
H67 C9 0.930 . S
H68 C11 0.930 . S
H69 C13 0.929 . S
H70 C14 0.930 . S
H71 C15 0.930 . S
H72 C18 0.930 . S
H73 C21 0.929 . S
H74 C26 0.929 . S
H75 C27 0.930 . S
H76 C34 0.929 . S
H77 C35 0.930 . S
H78 C36 0.930 . S
H79 C37 0.930 . S
H80 C39 0.929 . S
H81 C40 0.930 . S
H82 C41 0.930 . S
H83 C42 0.930 . S
H84 C46 0.929 . S
H85 C48 0.930 . S
H86 C54 0.929 . S
H87 C55 0.930 . S
Li88 N105 1.990 . S
Li88 O148 1.956 . S
Li88 O149 1.970 . S
Li88 O150 1.961 . S
Li89 N113 1.990 . S
Li89 O148 1.970 . S
Li89 O149 1.956 . S
Li89 O151 1.961 . S
Li90 N135 1.990 . S
Li90 O148 1.961 . S
Li90 O150 1.956 . S
Li90 O151 1.970 . S
Li91 N141 1.990 . S
Li91 O149 1.961 . S
Li91 O150 1.970 . S
Li91 O151 1.956 . S
C92 C94 1.348 . S
C92 C95 1.356 . S
C92 O148 1.325 . S
N93 C96 1.314 . S
N93 C97 1.279 . S
C94 C92 1.348 . S
C94 C96 1.353 . S
C94 H152 0.929 . S
C95 C92 1.356 . S
C95 C97 1.358 . S
C95 H153 0.930 . S
C96 N93 1.314 . S
C96 C94 1.353 . S
C96 H154 0.930 . S
C97 N93 1.279 . S
C97 C95 1.358 . S
C97 H155 0.930 . S
C98 C101 1.348 . S
C98 C102 1.356 . S
C98 O149 1.325 . S
C99 N100 1.279 . S
C99 C102 1.358 . S
C99 H156 0.930 . S
N100 C99 1.279 . S
N100 C103 1.314 . S
C101 C98 1.348 . S
C101 C103 1.353 . S
C101 H157 0.929 . S
C102 C98 1.356 . S
C102 C99 1.358 . S
C102 H158 0.930 . S
C103 N100 1.314 . S
C103 C101 1.353 . S
C103 H159 0.930 . S
C104 N105 1.314 . S
C104 C109 1.353 . S
C104 H110 0.930 . S
N105 Li88 1.990 . S
N105 C104 1.314 . S
N105 C107 1.279 . S
C106 C107 1.358 . S
C106 C108 1.356 . S
C106 H160 0.930 . S
C107 N105 1.279 . S
C107 C106 1.358 . S
C107 H111 0.930 . S
C108 C106 1.356 . S
C108 C109 1.348 . S
C109 C104 1.353 . S
C109 C108 1.348 . S
C109 H161 0.929 . S
H110 C104 0.930 . S
H111 C107 0.930 . S
C112 N113 1.314 . S
C112 C114 1.353 . S
C112 H118 0.930 . S
N113 Li89 1.990 . S
N113 C112 1.314 . S
N113 C116 1.279 . S
C114 C112 1.353 . S
C114 C117 1.348 . S
C114 H162 0.929 . S
C115 C116 1.358 . S
C115 C117 1.356 . S
C115 H163 0.930 . S
C116 N113 1.279 . S
C116 C115 1.358 . S
C116 H119 0.930 . S
C117 C114 1.348 . S
C117 C115 1.356 . S
H118 C112 0.930 . S
H119 C116 0.930 . S
C120 C122 1.348 . S
C120 C123 1.356 . S
C120 O150 1.325 . S
N121 C124 1.314 . S
N121 C125 1.279 . S
C122 C120 1.348 . S
C122 C124 1.353 . S
C122 H164 0.929 . S
C123 C120 1.356 . S
C123 C125 1.358 . S
C123 H165 0.930 . S
C124 N121 1.314 . S
C124 C122 1.353 . S
C124 H166 0.930 . S
C125 N121 1.279 . S
C125 C123 1.358 . S
C125 H167 0.930 . S
C126 C127 1.348 . S
C126 C128 1.356 . S
C126 O151 1.325 . S
C127 C126 1.348 . S
C127 C129 1.353 . S
C127 H168 0.929 . S
C128 C126 1.356 . S
C128 C130 1.358 . S
C128 H169 0.930 . S
C129 C127 1.353 . S
C129 N131 1.314 . S
C129 H170 0.930 . S
C130 C128 1.358 . S
C130 N131 1.279 . S
C130 H171 0.930 . S
N131 C129 1.314 . S
N131 C130 1.279 . S
C132 C134 1.353 . S
C132 N135 1.314 . S
C132 H138 0.930 . S
C133 N135 1.279 . S
C133 C136 1.358 . S
C133 H139 0.930 . S
C134 C132 1.353 . S
C134 C137 1.348 . S
C134 H172 0.929 . S
N135 Li90 1.990 . S
N135 C132 1.314 . S
N135 C133 1.279 . S
C136 C133 1.358 . S
C136 C137 1.356 . S
C136 H173 0.930 . S
C137 C134 1.348 . S
C137 C136 1.356 . S
H138 C132 0.930 . S
H139 C133 0.930 . S
C140 N141 1.314 . S
C140 C142 1.353 . S
C140 H146 0.930 . S
N141 Li91 1.990 . S
N141 C140 1.314 . S
N141 C144 1.279 . S
C142 C140 1.353 . S
C142 C145 1.348 . S
C142 H174 0.929 . S
C143 C144 1.358 . S
C143 C145 1.356 . S
C143 H175 0.930 . S
C144 N141 1.279 . S
C144 C143 1.358 . S
C144 H147 0.930 . S
C145 C142 1.348 . S
C145 C143 1.356 . S
H146 C140 0.930 . S
H147 C144 0.930 . S
O148 Li88 1.956 . S
O148 Li89 1.970 . S
O148 Li90 1.961 . S
O148 C92 1.325 . S
O149 Li88 1.970 . S
O149 Li89 1.956 . S
O149 Li91 1.961 . S
O149 C98 1.325 . S
O150 Li88 1.961 . S
O150 Li90 1.956 . S
O150 Li91 1.970 . S
O150 C120 1.325 . S
O151 Li89 1.961 . S
O151 Li90 1.970 . S
O151 Li91 1.956 . S
O151 C126 1.325 . S
H152 C94 0.929 . S
H153 C95 0.930 . S
H154 C96 0.930 . S
H155 C97 0.930 . S
H156 C99 0.930 . S
H157 C101 0.929 . S
H158 C102 0.930 . S
H159 C103 0.930 . S
H160 C106 0.930 . S
H161 C109 0.929 . S
H162 C114 0.929 . S
H163 C115 0.930 . S
H164 C122 0.929 . S
H165 C123 0.930 . S
H166 C124 0.930 . S
H167 C125 0.930 . S
H168 C127 0.929 . S
H169 C128 0.930 . S
H170 C129 0.930 . S
H171 C130 0.930 . S
H172 C134 0.929 . S
H173 C136 0.930 . S
H174 C142 0.929 . S
H175 C143 0.930 . S
Li176 N193 1.990 . S
Li176 O236 1.956 . S
Li176 O237 1.970 . S
Li176 O238 1.961 . S
Li177 N201 1.990 . S
Li177 O236 1.970 . S
Li177 O237 1.956 . S
Li177 O239 1.961 . S
Li178 N223 1.990 . S
Li178 O236 1.961 . S
Li178 O238 1.956 . S
Li178 O239 1.970 . S
Li179 N229 1.990 . S
Li179 O237 1.961 . S
Li179 O238 1.970 . S
Li179 O239 1.956 . S
C180 C182 1.348 . S
C180 C183 1.356 . S
C180 O236 1.325 . S
N181 C184 1.314 . S
N181 C185 1.279 . S
C182 C180 1.348 . S
C182 C184 1.353 . S
C182 H240 0.929 . S
C183 C180 1.356 . S
C183 C185 1.358 . S
C183 H241 0.930 . S
C184 N181 1.314 . S
C184 C182 1.353 . S
C184 H242 0.930 . S
C185 N181 1.279 . S
C185 C183 1.358 . S
C185 H243 0.930 . S
C186 C189 1.348 . S
C186 C190 1.356 . S
C186 O237 1.325 . S
C187 N188 1.279 . S
C187 C190 1.358 . S
C187 H244 0.930 . S
N188 C187 1.279 . S
N188 C191 1.314 . S
C189 C186 1.348 . S
C189 C191 1.353 . S
C189 H245 0.929 . S
C190 C186 1.356 . S
C190 C187 1.358 . S
C190 H246 0.930 . S
C191 N188 1.314 . S
C191 C189 1.353 . S
C191 H247 0.930 . S
C192 N193 1.314 . S
C192 C197 1.353 . S
C192 H198 0.930 . S
N193 Li176 1.990 . S
N193 C192 1.314 . S
N193 C195 1.279 . S
C194 C195 1.358 . S
C194 C196 1.356 . S
C194 H248 0.930 . S
C195 N193 1.279 . S
C195 C194 1.358 . S
C195 H199 0.930 . S
C196 C194 1.356 . S
C196 C197 1.348 . S
C197 C192 1.353 . S
C197 C196 1.348 . S
C197 H249 0.929 . S
H198 C192 0.930 . S
H199 C195 0.930 . S
C200 N201 1.314 . S
C200 C202 1.353 . S
C200 H206 0.930 . S
N201 Li177 1.990 . S
N201 C200 1.314 . S
N201 C204 1.279 . S
C202 C200 1.353 . S
C202 C205 1.348 . S
C202 H250 0.929 . S
C203 C204 1.358 . S
C203 C205 1.356 . S
C203 H251 0.930 . S
C204 N201 1.279 . S
C204 C203 1.358 . S
C204 H207 0.930 . S
C205 C202 1.348 . S
C205 C203 1.356 . S
H206 C200 0.930 . S
H207 C204 0.930 . S
C208 C210 1.348 . S
C208 C211 1.356 . S
C208 O238 1.325 . S
N209 C212 1.314 . S
N209 C213 1.279 . S
C210 C208 1.348 . S
C210 C212 1.353 . S
C210 H252 0.929 . S
C211 C208 1.356 . S
C211 C213 1.358 . S
C211 H253 0.930 . S
C212 N209 1.314 . S
C212 C210 1.353 . S
C212 H254 0.930 . S
C213 N209 1.279 . S
C213 C211 1.358 . S
C213 H255 0.930 . S
C214 C215 1.348 . S
C214 C216 1.356 . S
C214 O239 1.325 . S
C215 C214 1.348 . S
C215 C217 1.353 . S
C215 H256 0.929 . S
C216 C214 1.356 . S
C216 C218 1.358 . S
C216 H257 0.930 . S
C217 C215 1.353 . S
C217 N219 1.314 . S
C217 H258 0.930 . S
C218 C216 1.358 . S
C218 N219 1.279 . S
C218 H259 0.930 . S
N219 C217 1.314 . S
N219 C218 1.279 . S
C220 C222 1.353 . S
C220 N223 1.314 . S
C220 H226 0.930 . S
C221 N223 1.279 . S
C221 C224 1.358 . S
C221 H227 0.930 . S
C222 C220 1.353 . S
C222 C225 1.348 . S
C222 H260 0.929 . S
N223 Li178 1.990 . S
N223 C220 1.314 . S
N223 C221 1.279 . S
C224 C221 1.358 . S
C224 C225 1.356 . S
C224 H261 0.930 . S
C225 C222 1.348 . S
C225 C224 1.356 . S
H226 C220 0.930 . S
H227 C221 0.930 . S
C228 N229 1.314 . S
C228 C230 1.353 . S
C228 H234 0.930 . S
N229 Li179 1.990 . S
N229 C228 1.314 . S
N229 C232 1.279 . S
C230 C228 1.353 . S
C230 C233 1.348 . S
C230 H262 0.929 . S
C231 C232 1.358 . S
C231 C233 1.356 . S
C231 H263 0.930 . S
C232 N229 1.279 . S
C232 C231 1.358 . S
C232 H235 0.930 . S
C233 C230 1.348 . S
C233 C231 1.356 . S
H234 C228 0.930 . S
H235 C232 0.930 . S
O236 Li176 1.956 . S
O236 Li177 1.970 . S
O236 Li178 1.961 . S
O236 C180 1.325 . S
O237 Li176 1.970 . S
O237 Li177 1.956 . S
O237 Li179 1.961 . S
O237 C186 1.325 . S
O238 Li176 1.961 . S
O238 Li178 1.956 . S
O238 Li179 1.970 . S
O238 C208 1.325 . S
O239 Li177 1.961 . S
O239 Li178 1.970 . S
O239 Li179 1.956 . S
O239 C214 1.325 . S
H240 C182 0.929 . S
H241 C183 0.930 . S
H242 C184 0.930 . S
H243 C185 0.930 . S
H244 C187 0.930 . S
H245 C189 0.929 . S
H246 C190 0.930 . S
H247 C191 0.930 . S
H248 C194 0.930 . S
H249 C197 0.929 . S
H250 C202 0.929 . S
H251 C203 0.930 . S
H252 C210 0.929 . S
H253 C211 0.930 . S
H254 C212 0.930 . S
H255 C213 0.930 . S
H256 C215 0.929 . S
H257 C216 0.930 . S
H258 C217 0.930 . S
H259 C218 0.930 . S
H260 C222 0.929 . S
H261 C224 0.930 . S
H262 C230 0.929 . S
H263 C231 0.930 . S
Li264 N281 1.990 . S
Li264 O324 1.956 . S
Li264 O325 1.970 . S
Li264 O326 1.961 . S
Li265 N289 1.990 . S
Li265 O324 1.970 . S
Li265 O325 1.956 . S
Li265 O327 1.961 . S
Li266 N311 1.990 . S
Li266 O324 1.961 . S
Li266 O326 1.956 . S
Li266 O327 1.970 . S
Li267 N317 1.990 . S
Li267 O325 1.961 . S
Li267 O326 1.970 . S
Li267 O327 1.956 . S
C268 C270 1.348 . S
C268 C271 1.356 . S
C268 O324 1.325 . S
N269 C272 1.314 . S
N269 C273 1.279 . S
C270 C268 1.348 . S
C270 C272 1.353 . S
C270 H328 0.929 . S
C271 C268 1.356 . S
C271 C273 1.358 . S
C271 H329 0.930 . S
C272 N269 1.314 . S
C272 C270 1.353 . S
C272 H330 0.930 . S
C273 N269 1.279 . S
C273 C271 1.358 . S
C273 H331 0.930 . S
C274 C277 1.348 . S
C274 C278 1.356 . S
C274 O325 1.325 . S
C275 N276 1.279 . S
C275 C278 1.358 . S
C275 H332 0.930 . S
N276 C275 1.279 . S
N276 C279 1.314 . S
C277 C274 1.348 . S
C277 C279 1.353 . S
C277 H333 0.929 . S
C278 C274 1.356 . S
C278 C275 1.358 . S
C278 H334 0.930 . S
C279 N276 1.314 . S
C279 C277 1.353 . S
C279 H335 0.930 . S
C280 N281 1.314 . S
C280 C285 1.353 . S
C280 H286 0.930 . S
N281 Li264 1.990 . S
N281 C280 1.314 . S
N281 C283 1.279 . S
C282 C283 1.358 . S
C282 C284 1.356 . S
C282 H336 0.930 . S
C283 N281 1.279 . S
C283 C282 1.358 . S
C283 H287 0.930 . S
C284 C282 1.356 . S
C284 C285 1.348 . S
C285 C280 1.353 . S
C285 C284 1.348 . S
C285 H337 0.929 . S
H286 C280 0.930 . S
H287 C283 0.930 . S
C288 N289 1.314 . S
C288 C290 1.353 . S
C288 H294 0.930 . S
N289 Li265 1.990 . S
N289 C288 1.314 . S
N289 C292 1.279 . S
C290 C288 1.353 . S
C290 C293 1.348 . S
C290 H338 0.929 . S
C291 C292 1.358 . S
C291 C293 1.356 . S
C291 H339 0.930 . S
C292 N289 1.279 . S
C292 C291 1.358 . S
C292 H295 0.930 . S
C293 C290 1.348 . S
C293 C291 1.356 . S
H294 C288 0.930 . S
H295 C292 0.930 . S
C296 C298 1.348 . S
C296 C299 1.356 . S
C296 O326 1.325 . S
N297 C300 1.314 . S
N297 C301 1.279 . S
C298 C296 1.348 . S
C298 C300 1.353 . S
C298 H340 0.929 . S
C299 C296 1.356 . S
C299 C301 1.358 . S
C299 H341 0.930 . S
C300 N297 1.314 . S
C300 C298 1.353 . S
C300 H342 0.930 . S
C301 N297 1.279 . S
C301 C299 1.358 . S
C301 H343 0.930 . S
C302 C303 1.348 . S
C302 C304 1.356 . S
C302 O327 1.325 . S
C303 C302 1.348 . S
C303 C305 1.353 . S
C303 H344 0.929 . S
C304 C302 1.356 . S
C304 C306 1.358 . S
C304 H345 0.930 . S
C305 C303 1.353 . S
C305 N307 1.314 . S
C305 H346 0.930 . S
C306 C304 1.358 . S
C306 N307 1.279 . S
C306 H347 0.930 . S
N307 C305 1.314 . S
N307 C306 1.279 . S
C308 C310 1.353 . S
C308 N311 1.314 . S
C308 H314 0.930 . S
C309 N311 1.279 . S
C309 C312 1.358 . S
C309 H315 0.930 . S
C310 C308 1.353 . S
C310 C313 1.348 . S
C310 H348 0.929 . S
N311 Li266 1.990 . S
N311 C308 1.314 . S
N311 C309 1.279 . S
C312 C309 1.358 . S
C312 C313 1.356 . S
C312 H349 0.930 . S
C313 C310 1.348 . S
C313 C312 1.356 . S
H314 C308 0.930 . S
H315 C309 0.930 . S
C316 N317 1.314 . S
C316 C318 1.353 . S
C316 H322 0.930 . S
N317 Li267 1.990 . S
N317 C316 1.314 . S
N317 C320 1.279 . S
C318 C316 1.353 . S
C318 C321 1.348 . S
C318 H350 0.929 . S
C319 C320 1.358 . S
C319 C321 1.356 . S
C319 H351 0.930 . S
C320 N317 1.279 . S
C320 C319 1.358 . S
C320 H323 0.930 . S
C321 C318 1.348 . S
C321 C319 1.356 . S
H322 C316 0.930 . S
H323 C320 0.930 . S
O324 Li264 1.956 . S
O324 Li265 1.970 . S
O324 Li266 1.961 . S
O324 C268 1.325 . S
O325 Li264 1.970 . S
O325 Li265 1.956 . S
O325 Li267 1.961 . S
O325 C274 1.325 . S
O326 Li264 1.961 . S
O326 Li266 1.956 . S
O326 Li267 1.970 . S
O326 C296 1.325 . S
O327 Li265 1.961 . S
O327 Li266 1.970 . S
O327 Li267 1.956 . S
O327 C302 1.325 . S
H328 C270 0.929 . S
H329 C271 0.930 . S
H330 C272 0.930 . S
H331 C273 0.930 . S
H332 C275 0.930 . S
H333 C277 0.929 . S
H334 C278 0.930 . S
H335 C279 0.930 . S
H336 C282 0.930 . S
H337 C285 0.929 . S
H338 C290 0.929 . S
H339 C291 0.930 . S
H340 C298 0.929 . S
H341 C299 0.930 . S
H342 C300 0.930 . S
H343 C301 0.930 . S
H344 C303 0.929 . S
H345 C304 0.930 . S
H346 C305 0.930 . S
H347 C306 0.930 . S
H348 C310 0.929 . S
H349 C312 0.930 . S
H350 C318 0.929 . S
H351 C319 0.930 . S
Li352 N369 1.990 . S
Li352 O412 1.956 . S
Li352 O413 1.970 . S
Li352 O414 1.961 . S
Li353 N377 1.990 . S
Li353 O412 1.970 . S
Li353 O413 1.956 . S
Li353 O415 1.961 . S
Li354 N399 1.990 . S
Li354 O412 1.961 . S
Li354 O414 1.956 . S
Li354 O415 1.970 . S
Li355 N405 1.990 . S
Li355 O413 1.961 . S
Li355 O414 1.970 . S
Li355 O415 1.956 . S
C356 C358 1.348 . S
C356 C359 1.356 . S
C356 O412 1.325 . S
N357 C360 1.314 . S
N357 C361 1.279 . S
C358 C356 1.348 . S
C358 C360 1.353 . S
C358 H416 0.929 . S
C359 C356 1.356 . S
C359 C361 1.358 . S
C359 H417 0.930 . S
C360 N357 1.314 . S
C360 C358 1.353 . S
C360 H418 0.930 . S
C361 N357 1.279 . S
C361 C359 1.358 . S
C361 H419 0.930 . S
C362 C365 1.348 . S
C362 C366 1.356 . S
C362 O413 1.325 . S
C363 N364 1.279 . S
C363 C366 1.358 . S
C363 H420 0.930 . S
N364 C363 1.279 . S
N364 C367 1.314 . S
C365 C362 1.348 . S
C365 C367 1.353 . S
C365 H421 0.929 . S
C366 C362 1.356 . S
C366 C363 1.358 . S
C366 H422 0.930 . S
C367 N364 1.314 . S
C367 C365 1.353 . S
C367 H423 0.930 . S
C368 N369 1.314 . S
C368 C373 1.353 . S
C368 H374 0.930 . S
N369 Li352 1.990 . S
N369 C368 1.314 . S
N369 C371 1.279 . S
C370 C371 1.358 . S
C370 C372 1.356 . S
C370 H424 0.930 . S
C371 N369 1.279 . S
C371 C370 1.358 . S
C371 H375 0.930 . S
C372 C370 1.356 . S
C372 C373 1.348 . S
C373 C368 1.353 . S
C373 C372 1.348 . S
C373 H425 0.929 . S
H374 C368 0.930 . S
H375 C371 0.930 . S
C376 N377 1.314 . S
C376 C378 1.353 . S
C376 H382 0.930 . S
N377 Li353 1.990 . S
N377 C376 1.314 . S
N377 C380 1.279 . S
C378 C376 1.353 . S
C378 C381 1.348 . S
C378 H426 0.929 . S
C379 C380 1.358 . S
C379 C381 1.356 . S
C379 H427 0.930 . S
C380 N377 1.279 . S
C380 C379 1.358 . S
C380 H383 0.930 . S
C381 C378 1.348 . S
C381 C379 1.356 . S
H382 C376 0.930 . S
H383 C380 0.930 . S
C384 C386 1.348 . S
C384 C387 1.356 . S
C384 O414 1.325 . S
N385 C388 1.314 . S
N385 C389 1.279 . S
C386 C384 1.348 . S
C386 C388 1.353 . S
C386 H428 0.929 . S
C387 C384 1.356 . S
C387 C389 1.358 . S
C387 H429 0.930 . S
C388 N385 1.314 . S
C388 C386 1.353 . S
C388 H430 0.930 . S
C389 N385 1.279 . S
C389 C387 1.358 . S
C389 H431 0.930 . S
C390 C391 1.348 . S
C390 C392 1.356 . S
C390 O415 1.325 . S
C391 C390 1.348 . S
C391 C393 1.353 . S
C391 H432 0.929 . S
C392 C390 1.356 . S
C392 C394 1.358 . S
C392 H433 0.930 . S
C393 C391 1.353 . S
C393 N395 1.314 . S
C393 H434 0.930 . S
C394 C392 1.358 . S
C394 N395 1.279 . S
C394 H435 0.930 . S
N395 C393 1.314 . S
N395 C394 1.279 . S
C396 C398 1.353 . S
C396 N399 1.314 . S
C396 H402 0.930 . S
C397 N399 1.279 . S
C397 C400 1.358 . S
C397 H403 0.930 . S
C398 C396 1.353 . S
C398 C401 1.348 . S
C398 H436 0.929 . S
N399 Li354 1.990 . S
N399 C396 1.314 . S
N399 C397 1.279 . S
C400 C397 1.358 . S
C400 C401 1.356 . S
C400 H437 0.930 . S
C401 C398 1.348 . S
C401 C400 1.356 . S
H402 C396 0.930 . S
H403 C397 0.930 . S
C404 N405 1.314 . S
C404 C406 1.353 . S
C404 H410 0.930 . S
N405 Li355 1.990 . S
N405 C404 1.314 . S
N405 C408 1.279 . S
C406 C404 1.353 . S
C406 C409 1.348 . S
C406 H438 0.929 . S
C407 C408 1.358 . S
C407 C409 1.356 . S
C407 H439 0.930 . S
C408 N405 1.279 . S
C408 C407 1.358 . S
C408 H411 0.930 . S
C409 C406 1.348 . S
C409 C407 1.356 . S
H410 C404 0.930 . S
H411 C408 0.930 . S
O412 Li352 1.956 . S
O412 Li353 1.970 . S
O412 Li354 1.961 . S
O412 C356 1.325 . S
O413 Li352 1.970 . S
O413 Li353 1.956 . S
O413 Li355 1.961 . S
O413 C362 1.325 . S
O414 Li352 1.961 . S
O414 Li354 1.956 . S
O414 Li355 1.970 . S
O414 C384 1.325 . S
O415 Li353 1.961 . S
O415 Li354 1.970 . S
O415 Li355 1.956 . S
O415 C390 1.325 . S
H416 C358 0.929 . S
H417 C359 0.930 . S
H418 C360 0.930 . S
H419 C361 0.930 . S
H420 C363 0.930 . S
H421 C365 0.929 . S
H422 C366 0.930 . S
H423 C367 0.930 . S
H424 C370 0.930 . S
H425 C373 0.929 . S
H426 C378 0.929 . S
H427 C379 0.930 . S
H428 C386 0.929 . S
H429 C387 0.930 . S
H430 C388 0.930 . S
H431 C389 0.930 . S
H432 C391 0.929 . S
H433 C392 0.930 . S
H434 C393 0.930 . S
H435 C394 0.930 . S
H436 C398 0.929 . S
H437 C400 0.930 . S
H438 C406 0.929 . S
H439 C407 0.930 . S
Li440 N457 1.990 . S
Li440 O500 1.956 . S
Li440 O501 1.970 . S
Li440 O502 1.961 . S
Li441 N465 1.990 . S
Li441 O500 1.970 . S
Li441 O501 1.956 . S
Li441 O503 1.961 . S
Li442 N487 1.990 . S
Li442 O500 1.961 . S
Li442 O502 1.956 . S
Li442 O503 1.970 . S
Li443 N493 1.990 . S
Li443 O501 1.961 . S
Li443 O502 1.970 . S
Li443 O503 1.956 . S
C444 C446 1.348 . S
C444 C447 1.356 . S
C444 O500 1.325 . S
N445 C448 1.314 . S
N445 C449 1.279 . S
C446 C444 1.348 . S
C446 C448 1.353 . S
C446 H504 0.929 . S
C447 C444 1.356 . S
C447 C449 1.358 . S
C447 H505 0.930 . S
C448 N445 1.314 . S
C448 C446 1.353 . S
C448 H506 0.930 . S
C449 N445 1.279 . S
C449 C447 1.358 . S
C449 H507 0.930 . S
C450 C453 1.348 . S
C450 C454 1.356 . S
C450 O501 1.325 . S
C451 N452 1.279 . S
C451 C454 1.358 . S
C451 H508 0.930 . S
N452 C451 1.279 . S
N452 C455 1.314 . S
C453 C450 1.348 . S
C453 C455 1.353 . S
C453 H509 0.929 . S
C454 C450 1.356 . S
C454 C451 1.358 . S
C454 H510 0.930 . S
C455 N452 1.314 . S
C455 C453 1.353 . S
C455 H511 0.930 . S
C456 N457 1.314 . S
C456 C461 1.353 . S
C456 H462 0.930 . S
N457 Li440 1.990 . S
N457 C456 1.314 . S
N457 C459 1.279 . S
C458 C459 1.358 . S
C458 C460 1.356 . S
C458 H512 0.930 . S
C459 N457 1.279 . S
C459 C458 1.358 . S
C459 H463 0.930 . S
C460 C458 1.356 . S
C460 C461 1.348 . S
C461 C456 1.353 . S
C461 C460 1.348 . S
C461 H513 0.929 . S
H462 C456 0.930 . S
H463 C459 0.930 . S
C464 N465 1.314 . S
C464 C466 1.353 . S
C464 H470 0.930 . S
N465 Li441 1.990 . S
N465 C464 1.314 . S
N465 C468 1.279 . S
C466 C464 1.353 . S
C466 C469 1.348 . S
C466 H514 0.929 . S
C467 C468 1.358 . S
C467 C469 1.356 . S
C467 H515 0.930 . S
C468 N465 1.279 . S
C468 C467 1.358 . S
C468 H471 0.930 . S
C469 C466 1.348 . S
C469 C467 1.356 . S
H470 C464 0.930 . S
H471 C468 0.930 . S
C472 C474 1.348 . S
C472 C475 1.356 . S
C472 O502 1.325 . S
N473 C476 1.314 . S
N473 C477 1.279 . S
C474 C472 1.348 . S
C474 C476 1.353 . S
C474 H516 0.929 . S
C475 C472 1.356 . S
C475 C477 1.358 . S
C475 H517 0.930 . S
C476 N473 1.314 . S
C476 C474 1.353 . S
C476 H518 0.930 . S
C477 N473 1.279 . S
C477 C475 1.358 . S
C477 H519 0.930 . S
C478 C479 1.348 . S
C478 C480 1.356 . S
C478 O503 1.325 . S
C479 C478 1.348 . S
C479 C481 1.353 . S
C479 H520 0.929 . S
C480 C478 1.356 . S
C480 C482 1.358 . S
C480 H521 0.930 . S
C481 C479 1.353 . S
C481 N483 1.314 . S
C481 H522 0.930 . S
C482 C480 1.358 . S
C482 N483 1.279 . S
C482 H523 0.930 . S
N483 C481 1.314 . S
N483 C482 1.279 . S
C484 C486 1.353 . S
C484 N487 1.314 . S
C484 H490 0.930 . S
C485 N487 1.279 . S
C485 C488 1.358 . S
C485 H491 0.930 . S
C486 C484 1.353 . S
C486 C489 1.348 . S
C486 H524 0.929 . S
N487 Li442 1.990 . S
N487 C484 1.314 . S
N487 C485 1.279 . S
C488 C485 1.358 . S
C488 C489 1.356 . S
C488 H525 0.930 . S
C489 C486 1.348 . S
C489 C488 1.356 . S
H490 C484 0.930 . S
H491 C485 0.930 . S
C492 N493 1.314 . S
C492 C494 1.353 . S
C492 H498 0.930 . S
N493 Li443 1.990 . S
N493 C492 1.314 . S
N493 C496 1.279 . S
C494 C492 1.353 . S
C494 C497 1.348 . S
C494 H526 0.929 . S
C495 C496 1.358 . S
C495 C497 1.356 . S
C495 H527 0.930 . S
C496 N493 1.279 . S
C496 C495 1.358 . S
C496 H499 0.930 . S
C497 C494 1.348 . S
C497 C495 1.356 . S
H498 C492 0.930 . S
H499 C496 0.930 . S
O500 Li440 1.956 . S
O500 Li441 1.970 . S
O500 Li442 1.961 . S
O500 C444 1.325 . S
O501 Li440 1.970 . S
O501 Li441 1.956 . S
O501 Li443 1.961 . S
O501 C450 1.325 . S
O502 Li440 1.961 . S
O502 Li442 1.956 . S
O502 Li443 1.970 . S
O502 C472 1.325 . S
O503 Li441 1.961 . S
O503 Li442 1.970 . S
O503 Li443 1.956 . S
O503 C478 1.325 . S
H504 C446 0.929 . S
H505 C447 0.930 . S
H506 C448 0.930 . S
H507 C449 0.930 . S
H508 C451 0.930 . S
H509 C453 0.929 . S
H510 C454 0.930 . S
H511 C455 0.930 . S
H512 C458 0.930 . S
H513 C461 0.929 . S
H514 C466 0.929 . S
H515 C467 0.930 . S
H516 C474 0.929 . S
H517 C475 0.930 . S
H518 C476 0.930 . S
H519 C477 0.930 . S
H520 C479 0.929 . S
H521 C480 0.930 . S
H522 C481 0.930 . S
H523 C482 0.930 . S
H524 C486 0.929 . S
H525 C488 0.930 . S
H526 C494 0.929 . S
H527 C495 0.930 . S
Li528 N545 1.990 . S
Li528 O588 1.956 . S
Li528 O589 1.970 . S
Li528 O590 1.961 . S
Li529 N553 1.990 . S
Li529 O588 1.970 . S
Li529 O589 1.956 . S
Li529 O591 1.961 . S
Li530 N575 1.990 . S
Li530 O588 1.961 . S
Li530 O590 1.956 . S
Li530 O591 1.970 . S
Li531 N581 1.990 . S
Li531 O589 1.961 . S
Li531 O590 1.970 . S
Li531 O591 1.956 . S
C532 C534 1.348 . S
C532 C535 1.356 . S
C532 O588 1.325 . S
N533 C536 1.314 . S
N533 C537 1.279 . S
C534 C532 1.348 . S
C534 C536 1.353 . S
C534 H592 0.929 . S
C535 C532 1.356 . S
C535 C537 1.358 . S
C535 H593 0.930 . S
C536 N533 1.314 . S
C536 C534 1.353 . S
C536 H594 0.930 . S
C537 N533 1.279 . S
C537 C535 1.358 . S
C537 H595 0.930 . S
C538 C541 1.348 . S
C538 C542 1.356 . S
C538 O589 1.325 . S
C539 N540 1.279 . S
C539 C542 1.358 . S
C539 H596 0.930 . S
N540 C539 1.279 . S
N540 C543 1.314 . S
C541 C538 1.348 . S
C541 C543 1.353 . S
C541 H597 0.929 . S
C542 C538 1.356 . S
C542 C539 1.358 . S
C542 H598 0.930 . S
C543 N540 1.314 . S
C543 C541 1.353 . S
C543 H599 0.930 . S
C544 N545 1.314 . S
C544 C549 1.353 . S
C544 H550 0.930 . S
N545 Li528 1.990 . S
N545 C544 1.314 . S
N545 C547 1.279 . S
C546 C547 1.358 . S
C546 C548 1.356 . S
C546 H600 0.930 . S
C547 N545 1.279 . S
C547 C546 1.358 . S
C547 H551 0.930 . S
C548 C546 1.356 . S
C548 C549 1.348 . S
C549 C544 1.353 . S
C549 C548 1.348 . S
C549 H601 0.929 . S
H550 C544 0.930 . S
H551 C547 0.930 . S
C552 N553 1.314 . S
C552 C554 1.353 . S
C552 H558 0.930 . S
N553 Li529 1.990 . S
N553 C552 1.314 . S
N553 C556 1.279 . S
C554 C552 1.353 . S
C554 C557 1.348 . S
C554 H602 0.929 . S
C555 C556 1.358 . S
C555 C557 1.356 . S
C555 H603 0.930 . S
C556 N553 1.279 . S
C556 C555 1.358 . S
C556 H559 0.930 . S
C557 C554 1.348 . S
C557 C555 1.356 . S
H558 C552 0.930 . S
H559 C556 0.930 . S
C560 C562 1.348 . S
C560 C563 1.356 . S
C560 O590 1.325 . S
N561 C564 1.314 . S
N561 C565 1.279 . S
C562 C560 1.348 . S
C562 C564 1.353 . S
C562 H604 0.929 . S
C563 C560 1.356 . S
C563 C565 1.358 . S
C563 H605 0.930 . S
C564 N561 1.314 . S
C564 C562 1.353 . S
C564 H606 0.930 . S
C565 N561 1.279 . S
C565 C563 1.358 . S
C565 H607 0.930 . S
C566 C567 1.348 . S
C566 C568 1.356 . S
C566 O591 1.325 . S
C567 C566 1.348 . S
C567 C569 1.353 . S
C567 H608 0.929 . S
C568 C566 1.356 . S
C568 C570 1.358 . S
C568 H609 0.930 . S
C569 C567 1.353 . S
C569 N571 1.314 . S
C569 H610 0.930 . S
C570 C568 1.358 . S
C570 N571 1.279 . S
C570 H611 0.930 . S
N571 C569 1.314 . S
N571 C570 1.279 . S
C572 C574 1.353 . S
C572 N575 1.314 . S
C572 H578 0.930 . S
C573 N575 1.279 . S
C573 C576 1.358 . S
C573 H579 0.930 . S
C574 C572 1.353 . S
C574 C577 1.348 . S
C574 H612 0.929 . S
N575 Li530 1.990 . S
N575 C572 1.314 . S
N575 C573 1.279 . S
C576 C573 1.358 . S
C576 C577 1.356 . S
C576 H613 0.930 . S
C577 C574 1.348 . S
C577 C576 1.356 . S
H578 C572 0.930 . S
H579 C573 0.930 . S
C580 N581 1.314 . S
C580 C582 1.353 . S
C580 H586 0.930 . S
N581 Li531 1.990 . S
N581 C580 1.314 . S
N581 C584 1.279 . S
C582 C580 1.353 . S
C582 C585 1.348 . S
C582 H614 0.929 . S
C583 C584 1.358 . S
C583 C585 1.356 . S
C583 H615 0.930 . S
C584 N581 1.279 . S
C584 C583 1.358 . S
C584 H587 0.930 . S
C585 C582 1.348 . S
C585 C583 1.356 . S
H586 C580 0.930 . S
H587 C584 0.930 . S
O588 Li528 1.956 . S
O588 Li529 1.970 . S
O588 Li530 1.961 . S
O588 C532 1.325 . S
O589 Li528 1.970 . S
O589 Li529 1.956 . S
O589 Li531 1.961 . S
O589 C538 1.325 . S
O590 Li528 1.961 . S
O590 Li530 1.956 . S
O590 Li531 1.970 . S
O590 C560 1.325 . S
O591 Li529 1.961 . S
O591 Li530 1.970 . S
O591 Li531 1.956 . S
O591 C566 1.325 . S
H592 C534 0.929 . S
H593 C535 0.930 . S
H594 C536 0.930 . S
H595 C537 0.930 . S
H596 C539 0.930 . S
H597 C541 0.929 . S
H598 C542 0.930 . S
H599 C543 0.930 . S
H600 C546 0.930 . S
H601 C549 0.929 . S
H602 C554 0.929 . S
H603 C555 0.930 . S
H604 C562 0.929 . S
H605 C563 0.930 . S
H606 C564 0.930 . S
H607 C565 0.930 . S
H608 C567 0.929 . S
H609 C568 0.930 . S
H610 C569 0.930 . S
H611 C570 0.930 . S
H612 C574 0.929 . S
H613 C576 0.930 . S
H614 C582 0.929 . S
H615 C583 0.930 . S
Li616 N633 1.990 . S
Li616 O676 1.956 . S
Li616 O677 1.970 . S
Li616 O678 1.961 . S
Li617 N641 1.990 . S
Li617 O676 1.970 . S
Li617 O677 1.956 . S
Li617 O679 1.961 . S
Li618 N663 1.990 . S
Li618 O676 1.961 . S
Li618 O678 1.956 . S
Li618 O679 1.970 . S
Li619 N669 1.990 . S
Li619 O677 1.961 . S
Li619 O678 1.970 . S
Li619 O679 1.956 . S
C620 C622 1.348 . S
C620 C623 1.356 . S
C620 O676 1.325 . S
N621 C624 1.314 . S
N621 C625 1.279 . S
C622 C620 1.348 . S
C622 C624 1.353 . S
C622 H680 0.929 . S
C623 C620 1.356 . S
C623 C625 1.358 . S
C623 H681 0.930 . S
C624 N621 1.314 . S
C624 C622 1.353 . S
C624 H682 0.930 . S
C625 N621 1.279 . S
C625 C623 1.358 . S
C625 H683 0.930 . S
C626 C629 1.348 . S
C626 C630 1.356 . S
C626 O677 1.325 . S
C627 N628 1.279 . S
C627 C630 1.358 . S
C627 H684 0.930 . S
N628 C627 1.279 . S
N628 C631 1.314 . S
C629 C626 1.348 . S
C629 C631 1.353 . S
C629 H685 0.929 . S
C630 C626 1.356 . S
C630 C627 1.358 . S
C630 H686 0.930 . S
C631 N628 1.314 . S
C631 C629 1.353 . S
C631 H687 0.930 . S
C632 N633 1.314 . S
C632 C637 1.353 . S
C632 H638 0.930 . S
N633 Li616 1.990 . S
N633 C632 1.314 . S
N633 C635 1.279 . S
C634 C635 1.358 . S
C634 C636 1.356 . S
C634 H688 0.930 . S
C635 N633 1.279 . S
C635 C634 1.358 . S
C635 H639 0.930 . S
C636 C634 1.356 . S
C636 C637 1.348 . S
C637 C632 1.353 . S
C637 C636 1.348 . S
C637 H689 0.929 . S
H638 C632 0.930 . S
H639 C635 0.930 . S
C640 N641 1.314 . S
C640 C642 1.353 . S
C640 H646 0.930 . S
N641 Li617 1.990 . S
N641 C640 1.314 . S
N641 C644 1.279 . S
C642 C640 1.353 . S
C642 C645 1.348 . S
C642 H690 0.929 . S
C643 C644 1.358 . S
C643 C645 1.356 . S
C643 H691 0.930 . S
C644 N641 1.279 . S
C644 C643 1.358 . S
C644 H647 0.930 . S
C645 C642 1.348 . S
C645 C643 1.356 . S
H646 C640 0.930 . S
H647 C644 0.930 . S
C648 C650 1.348 . S
C648 C651 1.356 . S
C648 O678 1.325 . S
N649 C652 1.314 . S
N649 C653 1.279 . S
C650 C648 1.348 . S
C650 C652 1.353 . S
C650 H692 0.929 . S
C651 C648 1.356 . S
C651 C653 1.358 . S
C651 H693 0.930 . S
C652 N649 1.314 . S
C652 C650 1.353 . S
C652 H694 0.930 . S
C653 N649 1.279 . S
C653 C651 1.358 . S
C653 H695 0.930 . S
C654 C655 1.348 . S
C654 C656 1.356 . S
C654 O679 1.325 . S
C655 C654 1.348 . S
C655 C657 1.353 . S
C655 H696 0.929 . S
C656 C654 1.356 . S
C656 C658 1.358 . S
C656 H697 0.930 . S
C657 C655 1.353 . S
C657 N659 1.314 . S
C657 H698 0.930 . S
C658 C656 1.358 . S
C658 N659 1.279 . S
C658 H699 0.930 . S
N659 C657 1.314 . S
N659 C658 1.279 . S
C660 C662 1.353 . S
C660 N663 1.314 . S
C660 H666 0.930 . S
C661 N663 1.279 . S
C661 C664 1.358 . S
C661 H667 0.930 . S
C662 C660 1.353 . S
C662 C665 1.348 . S
C662 H700 0.929 . S
N663 Li618 1.990 . S
N663 C660 1.314 . S
N663 C661 1.279 . S
C664 C661 1.358 . S
C664 C665 1.356 . S
C664 H701 0.930 . S
C665 C662 1.348 . S
C665 C664 1.356 . S
H666 C660 0.930 . S
H667 C661 0.930 . S
C668 N669 1.314 . S
C668 C670 1.353 . S
C668 H674 0.930 . S
N669 Li619 1.990 . S
N669 C668 1.314 . S
N669 C672 1.279 . S
C670 C668 1.353 . S
C670 C673 1.348 . S
C670 H702 0.929 . S
C671 C672 1.358 . S
C671 C673 1.356 . S
C671 H703 0.930 . S
C672 N669 1.279 . S
C672 C671 1.358 . S
C672 H675 0.930 . S
C673 C670 1.348 . S
C673 C671 1.356 . S
H674 C668 0.930 . S
H675 C672 0.930 . S
O676 Li616 1.956 . S
O676 Li617 1.970 . S
O676 Li618 1.961 . S
O676 C620 1.325 . S
O677 Li616 1.970 . S
O677 Li617 1.956 . S
O677 Li619 1.961 . S
O677 C626 1.325 . S
O678 Li616 1.961 . S
O678 Li618 1.956 . S
O678 Li619 1.970 . S
O678 C648 1.325 . S
O679 Li617 1.961 . S
O679 Li618 1.970 . S
O679 Li619 1.956 . S
O679 C654 1.325 . S
H680 C622 0.929 . S
H681 C623 0.930 . S
H682 C624 0.930 . S
H683 C625 0.930 . S
H684 C627 0.930 . S
H685 C629 0.929 . S
H686 C630 0.930 . S
H687 C631 0.930 . S
H688 C634 0.930 . S
H689 C637 0.929 . S
H690 C642 0.929 . S
H691 C643 0.930 . S
H692 C650 0.929 . S
H693 C651 0.930 . S
H694 C652 0.930 . S
H695 C653 0.930 . S
H696 C655 0.929 . S
H697 C656 0.930 . S
H698 C657 0.930 . S
H699 C658 0.930 . S
H700 C662 0.929 . S
H701 C664 0.930 . S
H702 C670 0.929 . S
H703 C671 0.930 . S
Li704 N721 1.990 . S
Li704 O764 1.956 . S
Li704 O765 1.970 . S
Li704 O766 1.961 . S
Li705 N729 1.990 . S
Li705 O764 1.970 . S
Li705 O765 1.956 . S
Li705 O767 1.961 . S
Li706 N751 1.990 . S
Li706 O764 1.961 . S
Li706 O766 1.956 . S
Li706 O767 1.970 . S
Li707 N757 1.990 . S
Li707 O765 1.961 . S
Li707 O766 1.970 . S
Li707 O767 1.956 . S
C708 C710 1.348 . S
C708 C711 1.356 . S
C708 O764 1.325 . S
N709 C712 1.314 . S
N709 C713 1.279 . S
C710 C708 1.348 . S
C710 C712 1.353 . S
C710 H768 0.929 . S
C711 C708 1.356 . S
C711 C713 1.358 . S
C711 H769 0.930 . S
C712 N709 1.314 . S
C712 C710 1.353 . S
C712 H770 0.930 . S
C713 N709 1.279 . S
C713 C711 1.358 . S
C713 H771 0.930 . S
C714 C717 1.348 . S
C714 C718 1.356 . S
C714 O765 1.325 . S
C715 N716 1.279 . S
C715 C718 1.358 . S
C715 H772 0.930 . S
N716 C715 1.279 . S
N716 C719 1.314 . S
C717 C714 1.348 . S
C717 C719 1.353 . S
C717 H773 0.929 . S
C718 C714 1.356 . S
C718 C715 1.358 . S
C718 H774 0.930 . S
C719 N716 1.314 . S
C719 C717 1.353 . S
C719 H775 0.930 . S
C720 N721 1.314 . S
C720 C725 1.353 . S
C720 H726 0.930 . S
N721 Li704 1.990 . S
N721 C720 1.314 . S
N721 C723 1.279 . S
C722 C723 1.358 . S
C722 C724 1.356 . S
C722 H776 0.930 . S
C723 N721 1.279 . S
C723 C722 1.358 . S
C723 H727 0.930 . S
C724 C722 1.356 . S
C724 C725 1.348 . S
C725 C720 1.353 . S
C725 C724 1.348 . S
C725 H777 0.929 . S
H726 C720 0.930 . S
H727 C723 0.930 . S
C728 N729 1.314 . S
C728 C730 1.353 . S
C728 H734 0.930 . S
N729 Li705 1.990 . S
N729 C728 1.314 . S
N729 C732 1.279 . S
C730 C728 1.353 . S
C730 C733 1.348 . S
C730 H778 0.929 . S
C731 C732 1.358 . S
C731 C733 1.356 . S
C731 H779 0.930 . S
C732 N729 1.279 . S
C732 C731 1.358 . S
C732 H735 0.930 . S
C733 C730 1.348 . S
C733 C731 1.356 . S
H734 C728 0.930 . S
H735 C732 0.930 . S
C736 C738 1.348 . S
C736 C739 1.356 . S
C736 O766 1.325 . S
N737 C740 1.314 . S
N737 C741 1.279 . S
C738 C736 1.348 . S
C738 C740 1.353 . S
C738 H780 0.929 . S
C739 C736 1.356 . S
C739 C741 1.358 . S
C739 H781 0.930 . S
C740 N737 1.314 . S
C740 C738 1.353 . S
C740 H782 0.930 . S
C741 N737 1.279 . S
C741 C739 1.358 . S
C741 H783 0.930 . S
C742 C743 1.348 . S
C742 C744 1.356 . S
C742 O767 1.325 . S
C743 C742 1.348 . S
C743 C745 1.353 . S
C743 H784 0.929 . S
C744 C742 1.356 . S
C744 C746 1.358 . S
C744 H785 0.930 . S
C745 C743 1.353 . S
C745 N747 1.314 . S
C745 H786 0.930 . S
C746 C744 1.358 . S
C746 N747 1.279 . S
C746 H787 0.930 . S
N747 C745 1.314 . S
N747 C746 1.279 . S
C748 C750 1.353 . S
C748 N751 1.314 . S
C748 H754 0.930 . S
C749 N751 1.279 . S
C749 C752 1.358 . S
C749 H755 0.930 . S
C750 C748 1.353 . S
C750 C753 1.348 . S
C750 H788 0.929 . S
N751 Li706 1.990 . S
N751 C748 1.314 . S
N751 C749 1.279 . S
C752 C749 1.358 . S
C752 C753 1.356 . S
C752 H789 0.930 . S
C753 C750 1.348 . S
C753 C752 1.356 . S
H754 C748 0.930 . S
H755 C749 0.930 . S
C756 N757 1.314 . S
C756 C758 1.353 . S
C756 H762 0.930 . S
N757 Li707 1.990 . S
N757 C756 1.314 . S
N757 C760 1.279 . S
C758 C756 1.353 . S
C758 C761 1.348 . S
C758 H790 0.929 . S
C759 C760 1.358 . S
C759 C761 1.356 . S
C759 H791 0.930 . S
C760 N757 1.279 . S
C760 C759 1.358 . S
C760 H763 0.930 . S
C761 C758 1.348 . S
C761 C759 1.356 . S
H762 C756 0.930 . S
H763 C760 0.930 . S
O764 Li704 1.956 . S
O764 Li705 1.970 . S
O764 Li706 1.961 . S
O764 C708 1.325 . S
O765 Li704 1.970 . S
O765 Li705 1.956 . S
O765 Li707 1.961 . S
O765 C714 1.325 . S
O766 Li704 1.961 . S
O766 Li706 1.956 . S
O766 Li707 1.970 . S
O766 C736 1.325 . S
O767 Li705 1.961 . S
O767 Li706 1.970 . S
O767 Li707 1.956 . S
O767 C742 1.325 . S
H768 C710 0.929 . S
H769 C711 0.930 . S
H770 C712 0.930 . S
H771 C713 0.930 . S
H772 C715 0.930 . S
H773 C717 0.929 . S
H774 C718 0.930 . S
H775 C719 0.930 . S
H776 C722 0.930 . S
H777 C725 0.929 . S
H778 C730 0.929 . S
H779 C731 0.930 . S
H780 C738 0.929 . S
H781 C739 0.930 . S
H782 C740 0.930 . S
H783 C741 0.930 . S
H784 C743 0.929 . S
H785 C744 0.930 . S
H786 C745 0.930 . S
H787 C746 0.930 . S
H788 C750 0.929 . S
H789 C752 0.930 . S
H790 C758 0.929 . S
H791 C759 0.930 . S
Li792 N809 1.990 . S
Li792 O852 1.956 . S
Li792 O853 1.970 . S
Li792 O854 1.961 . S
Li793 N817 1.990 . S
Li793 O852 1.970 . S
Li793 O853 1.956 . S
Li793 O855 1.961 . S
Li794 N839 1.990 . S
Li794 O852 1.961 . S
Li794 O854 1.956 . S
Li794 O855 1.970 . S
Li795 N845 1.990 . S
Li795 O853 1.961 . S
Li795 O854 1.970 . S
Li795 O855 1.956 . S
C796 C798 1.348 . S
C796 C799 1.356 . S
C796 O852 1.325 . S
N797 C800 1.314 . S
N797 C801 1.279 . S
C798 C796 1.348 . S
C798 C800 1.353 . S
C798 H856 0.929 . S
C799 C796 1.356 . S
C799 C801 1.358 . S
C799 H857 0.930 . S
C800 N797 1.314 . S
C800 C798 1.353 . S
C800 H858 0.930 . S
C801 N797 1.279 . S
C801 C799 1.358 . S
C801 H859 0.930 . S
C802 C805 1.348 . S
C802 C806 1.356 . S
C802 O853 1.325 . S
C803 N804 1.279 . S
C803 C806 1.358 . S
C803 H860 0.930 . S
N804 C803 1.279 . S
N804 C807 1.314 . S
C805 C802 1.348 . S
C805 C807 1.353 . S
C805 H861 0.929 . S
C806 C802 1.356 . S
C806 C803 1.358 . S
C806 H862 0.930 . S
C807 N804 1.314 . S
C807 C805 1.353 . S
C807 H863 0.930 . S
C808 N809 1.314 . S
C808 C813 1.353 . S
C808 H814 0.930 . S
N809 Li792 1.990 . S
N809 C808 1.314 . S
N809 C811 1.279 . S
C810 C811 1.358 . S
C810 C812 1.356 . S
C810 H864 0.930 . S
C811 N809 1.279 . S
C811 C810 1.358 . S
C811 H815 0.930 . S
C812 C810 1.356 . S
C812 C813 1.348 . S
C813 C808 1.353 . S
C813 C812 1.348 . S
C813 H865 0.929 . S
H814 C808 0.930 . S
H815 C811 0.930 . S
C816 N817 1.314 . S
C816 C818 1.353 . S
C816 H822 0.930 . S
N817 Li793 1.990 . S
N817 C816 1.314 . S
N817 C820 1.279 . S
C818 C816 1.353 . S
C818 C821 1.348 . S
C818 H866 0.929 . S
C819 C820 1.358 . S
C819 C821 1.356 . S
C819 H867 0.930 . S
C820 N817 1.279 . S
C820 C819 1.358 . S
C820 H823 0.930 . S
C821 C818 1.348 . S
C821 C819 1.356 . S
H822 C816 0.930 . S
H823 C820 0.930 . S
C824 C826 1.348 . S
C824 C827 1.356 . S
C824 O854 1.325 . S
N825 C828 1.314 . S
N825 C829 1.279 . S
C826 C824 1.348 . S
C826 C828 1.353 . S
C826 H868 0.929 . S
C827 C824 1.356 . S
C827 C829 1.358 . S
C827 H869 0.930 . S
C828 N825 1.314 . S
C828 C826 1.353 . S
C828 H870 0.930 . S
C829 N825 1.279 . S
C829 C827 1.358 . S
C829 H871 0.930 . S
C830 C831 1.348 . S
C830 C832 1.356 . S
C830 O855 1.325 . S
C831 C830 1.348 . S
C831 C833 1.353 . S
C831 H872 0.929 . S
C832 C830 1.356 . S
C832 C834 1.358 . S
C832 H873 0.930 . S
C833 C831 1.353 . S
C833 N835 1.314 . S
C833 H874 0.930 . S
C834 C832 1.358 . S
C834 N835 1.279 . S
C834 H875 0.930 . S
N835 C833 1.314 . S
N835 C834 1.279 . S
C836 C838 1.353 . S
C836 N839 1.314 . S
C836 H842 0.930 . S
C837 N839 1.279 . S
C837 C840 1.358 . S
C837 H843 0.930 . S
C838 C836 1.353 . S
C838 C841 1.348 . S
C838 H876 0.929 . S
N839 Li794 1.990 . S
N839 C836 1.314 . S
N839 C837 1.279 . S
C840 C837 1.358 . S
C840 C841 1.356 . S
C840 H877 0.930 . S
C841 C838 1.348 . S
C841 C840 1.356 . S
H842 C836 0.930 . S
H843 C837 0.930 . S
C844 N845 1.314 . S
C844 C846 1.353 . S
C844 H850 0.930 . S
N845 Li795 1.990 . S
N845 C844 1.314 . S
N845 C848 1.279 . S
C846 C844 1.353 . S
C846 C849 1.348 . S
C846 H878 0.929 . S
C847 C848 1.358 . S
C847 C849 1.356 . S
C847 H879 0.930 . S
C848 N845 1.279 . S
C848 C847 1.358 . S
C848 H851 0.930 . S
C849 C846 1.348 . S
C849 C847 1.356 . S
H850 C844 0.930 . S
H851 C848 0.930 . S
O852 Li792 1.956 . S
O852 Li793 1.970 . S
O852 Li794 1.961 . S
O852 C796 1.325 . S
O853 Li792 1.970 . S
O853 Li793 1.956 . S
O853 Li795 1.961 . S
O853 C802 1.325 . S
O854 Li792 1.961 . S
O854 Li794 1.956 . S
O854 Li795 1.970 . S
O854 C824 1.325 . S
O855 Li793 1.961 . S
O855 Li794 1.970 . S
O855 Li795 1.956 . S
O855 C830 1.325 . S
H856 C798 0.929 . S
H857 C799 0.930 . S
H858 C800 0.930 . S
H859 C801 0.930 . S
H860 C803 0.930 . S
H861 C805 0.929 . S
H862 C806 0.930 . S
H863 C807 0.930 . S
H864 C810 0.930 . S
H865 C813 0.929 . S
H866 C818 0.929 . S
H867 C819 0.930 . S
H868 C826 0.929 . S
H869 C827 0.930 . S
H870 C828 0.930 . S
H871 C829 0.930 . S
H872 C831 0.929 . S
H873 C832 0.930 . S
H874 C833 0.930 . S
H875 C834 0.930 . S
H876 C838 0.929 . S
H877 C840 0.930 . S
H878 C846 0.929 . S
H879 C847 0.930 . S
Li880 N897 1.990 . S
Li880 O940 1.956 . S
Li880 O941 1.970 . S
Li880 O942 1.961 . S
Li881 N905 1.990 . S
Li881 O940 1.970 . S
Li881 O941 1.956 . S
Li881 O943 1.961 . S
Li882 N927 1.990 . S
Li882 O940 1.961 . S
Li882 O942 1.956 . S
Li882 O943 1.970 . S
Li883 N933 1.990 . S
Li883 O941 1.961 . S
Li883 O942 1.970 . S
Li883 O943 1.956 . S
C884 C886 1.348 . S
C884 C887 1.356 . S
C884 O940 1.325 . S
N885 C888 1.314 . S
N885 C889 1.279 . S
C886 C884 1.348 . S
C886 C888 1.353 . S
C886 H944 0.929 . S
C887 C884 1.356 . S
C887 C889 1.358 . S
C887 H945 0.930 . S
C888 N885 1.314 . S
C888 C886 1.353 . S
C888 H946 0.930 . S
C889 N885 1.279 . S
C889 C887 1.358 . S
C889 H947 0.930 . S
C890 C893 1.348 . S
C890 C894 1.356 . S
C890 O941 1.325 . S
C891 N892 1.279 . S
C891 C894 1.358 . S
C891 H948 0.930 . S
N892 C891 1.279 . S
N892 C895 1.314 . S
C893 C890 1.348 . S
C893 C895 1.353 . S
C893 H949 0.929 . S
C894 C890 1.356 . S
C894 C891 1.358 . S
C894 H950 0.930 . S
C895 N892 1.314 . S
C895 C893 1.353 . S
C895 H951 0.930 . S
C896 N897 1.314 . S
C896 C901 1.353 . S
C896 H902 0.930 . S
N897 Li880 1.990 . S
N897 C896 1.314 . S
N897 C899 1.279 . S
C898 C899 1.358 . S
C898 C900 1.356 . S
C898 H952 0.930 . S
C899 N897 1.279 . S
C899 C898 1.358 . S
C899 H903 0.930 . S
C900 C898 1.356 . S
C900 C901 1.348 . S
C901 C896 1.353 . S
C901 C900 1.348 . S
C901 H953 0.929 . S
H902 C896 0.930 . S
H903 C899 0.930 . S
C904 N905 1.314 . S
C904 C906 1.353 . S
C904 H910 0.930 . S
N905 Li881 1.990 . S
N905 C904 1.314 . S
N905 C908 1.279 . S
C906 C904 1.353 . S
C906 C909 1.348 . S
C906 H954 0.929 . S
C907 C908 1.358 . S
C907 C909 1.356 . S
C907 H955 0.930 . S
C908 N905 1.279 . S
C908 C907 1.358 . S
C908 H911 0.930 . S
C909 C906 1.348 . S
C909 C907 1.356 . S
H910 C904 0.930 . S
H911 C908 0.930 . S
C912 C914 1.348 . S
C912 C915 1.356 . S
C912 O942 1.325 . S
N913 C916 1.314 . S
N913 C917 1.279 . S
C914 C912 1.348 . S
C914 C916 1.353 . S
C914 H956 0.929 . S
C915 C912 1.356 . S
C915 C917 1.358 . S
C915 H957 0.930 . S
C916 N913 1.314 . S
C916 C914 1.353 . S
C916 H958 0.930 . S
C917 N913 1.279 . S
C917 C915 1.358 . S
C917 H959 0.930 . S
C918 C919 1.348 . S
C918 C920 1.356 . S
C918 O943 1.325 . S
C919 C918 1.348 . S
C919 C921 1.353 . S
C919 H960 0.929 . S
C920 C918 1.356 . S
C920 C922 1.358 . S
C920 H961 0.930 . S
C921 C919 1.353 . S
C921 N923 1.314 . S
C921 H962 0.930 . S
C922 C920 1.358 . S
C922 N923 1.279 . S
C922 H963 0.930 . S
N923 C921 1.314 . S
N923 C922 1.279 . S
C924 C926 1.353 . S
C924 N927 1.314 . S
C924 H930 0.930 . S
C925 N927 1.279 . S
C925 C928 1.358 . S
C925 H931 0.930 . S
C926 C924 1.353 . S
C926 C929 1.348 . S
C926 H964 0.929 . S
N927 Li882 1.990 . S
N927 C924 1.314 . S
N927 C925 1.279 . S
C928 C925 1.358 . S
C928 C929 1.356 . S
C928 H965 0.930 . S
C929 C926 1.348 . S
C929 C928 1.356 . S
H930 C924 0.930 . S
H931 C925 0.930 . S
C932 N933 1.314 . S
C932 C934 1.353 . S
C932 H938 0.930 . S
N933 Li883 1.990 . S
N933 C932 1.314 . S
N933 C936 1.279 . S
C934 C932 1.353 . S
C934 C937 1.348 . S
C934 H966 0.929 . S
C935 C936 1.358 . S
C935 C937 1.356 . S
C935 H967 0.930 . S
C936 N933 1.279 . S
C936 C935 1.358 . S
C936 H939 0.930 . S
C937 C934 1.348 . S
C937 C935 1.356 . S
H938 C932 0.930 . S
H939 C936 0.930 . S
O940 Li880 1.956 . S
O940 Li881 1.970 . S
O940 Li882 1.961 . S
O940 C884 1.325 . S
O941 Li880 1.970 . S
O941 Li881 1.956 . S
O941 Li883 1.961 . S
O941 C890 1.325 . S
O942 Li880 1.961 . S
O942 Li882 1.956 . S
O942 Li883 1.970 . S
O942 C912 1.325 . S
O943 Li881 1.961 . S
O943 Li882 1.970 . S
O943 Li883 1.956 . S
O943 C918 1.325 . S
H944 C886 0.929 . S
H945 C887 0.930 . S
H946 C888 0.930 . S
H947 C889 0.930 . S
H948 C891 0.930 . S
H949 C893 0.929 . S
H950 C894 0.930 . S
H951 C895 0.930 . S
H952 C898 0.930 . S
H953 C901 0.929 . S
H954 C906 0.929 . S
H955 C907 0.930 . S
H956 C914 0.929 . S
H957 C915 0.930 . S
H958 C916 0.930 . S
H959 C917 0.930 . S
H960 C919 0.929 . S
H961 C920 0.930 . S
H962 C921 0.930 . S
H963 C922 0.930 . S
H964 C926 0.929 . S
H965 C928 0.930 . S
H966 C934 0.929 . S
H967 C935 0.930 . S
Li968 N985 1.990 . S
Li968 O1028 1.956 . S
Li968 O1029 1.970 . S
Li968 O1030 1.961 . S
Li969 N993 1.990 . S
Li969 O1028 1.970 . S
Li969 O1029 1.956 . S
Li969 O1031 1.961 . S
Li970 N1015 1.990 . S
Li970 O1028 1.961 . S
Li970 O1030 1.956 . S
Li970 O1031 1.970 . S
Li971 N1021 1.990 . S
Li971 O1029 1.961 . S
Li971 O1030 1.970 . S
Li971 O1031 1.956 . S
C972 C974 1.348 . S
C972 C975 1.356 . S
C972 O1028 1.325 . S
N973 C976 1.314 . S
N973 C977 1.279 . S
C974 C972 1.348 . S
C974 C976 1.353 . S
C974 H1032 0.929 . S
C975 C972 1.356 . S
C975 C977 1.358 . S
C975 H1033 0.930 . S
C976 N973 1.314 . S
C976 C974 1.353 . S
C976 H1034 0.930 . S
C977 N973 1.279 . S
C977 C975 1.358 . S
C977 H1035 0.930 . S
C978 C981 1.348 . S
C978 C982 1.356 . S
C978 O1029 1.325 . S
C979 N980 1.279 . S
C979 C982 1.358 . S
C979 H1036 0.930 . S
N980 C979 1.279 . S
N980 C983 1.314 . S
C981 C978 1.348 . S
C981 C983 1.353 . S
C981 H1037 0.929 . S
C982 C978 1.356 . S
C982 C979 1.358 . S
C982 H1038 0.930 . S
C983 N980 1.314 . S
C983 C981 1.353 . S
C983 H1039 0.930 . S
C984 N985 1.314 . S
C984 C989 1.353 . S
C984 H990 0.930 . S
N985 Li968 1.990 . S
N985 C984 1.314 . S
N985 C987 1.279 . S
C986 C987 1.358 . S
C986 C988 1.356 . S
C986 H1040 0.930 . S
C987 N985 1.279 . S
C987 C986 1.358 . S
C987 H991 0.930 . S
C988 C986 1.356 . S
C988 C989 1.348 . S
C989 C984 1.353 . S
C989 C988 1.348 . S
C989 H1041 0.929 . S
H990 C984 0.930 . S
H991 C987 0.930 . S
C992 N993 1.314 . S
C992 C994 1.353 . S
C992 H998 0.930 . S
N993 Li969 1.990 . S
N993 C992 1.314 . S
N993 C996 1.279 . S
C994 C992 1.353 . S
C994 C997 1.348 . S
C994 H1042 0.929 . S
C995 C996 1.358 . S
C995 C997 1.356 . S
C995 H1043 0.930 . S
C996 N993 1.279 . S
C996 C995 1.358 . S
C996 H999 0.930 . S
C997 C994 1.348 . S
C997 C995 1.356 . S
H998 C992 0.930 . S
H999 C996 0.930 . S
C1000 C1002 1.348 . S
C1000 C1003 1.356 . S
C1000 O1030 1.325 . S
N1001 C1004 1.314 . S
N1001 C1005 1.279 . S
C1002 C1000 1.348 . S
C1002 C1004 1.353 . S
C1002 H1044 0.929 . S
C1003 C1000 1.356 . S
C1003 C1005 1.358 . S
C1003 H1045 0.930 . S
C1004 N1001 1.314 . S
C1004 C1002 1.353 . S
C1004 H1046 0.930 . S
C1005 N1001 1.279 . S
C1005 C1003 1.358 . S
C1005 H1047 0.930 . S
C1006 C1007 1.348 . S
C1006 C1008 1.356 . S
C1006 O1031 1.325 . S
C1007 C1006 1.348 . S
C1007 C1009 1.353 . S
C1007 H1048 0.929 . S
C1008 C1006 1.356 . S
C1008 C1010 1.358 . S
C1008 H1049 0.930 . S
C1009 C1007 1.353 . S
C1009 N1011 1.314 . S
C1009 H1050 0.930 . S
C1010 C1008 1.358 . S
C1010 N1011 1.279 . S
C1010 H1051 0.930 . S
N1011 C1009 1.314 . S
N1011 C1010 1.279 . S
C1012 C1014 1.353 . S
C1012 N1015 1.314 . S
C1012 H1018 0.930 . S
C1013 N1015 1.279 . S
C1013 C1016 1.358 . S
C1013 H1019 0.930 . S
C1014 C1012 1.353 . S
C1014 C1017 1.348 . S
C1014 H1052 0.929 . S
N1015 Li970 1.990 . S
N1015 C1012 1.314 . S
N1015 C1013 1.279 . S
C1016 C1013 1.358 . S
C1016 C1017 1.356 . S
C1016 H1053 0.930 . S
C1017 C1014 1.348 . S
C1017 C1016 1.356 . S
H1018 C1012 0.930 . S
H1019 C1013 0.930 . S
C1020 N1021 1.314 . S
C1020 C1022 1.353 . S
C1020 H1026 0.930 . S
N1021 Li971 1.990 . S
N1021 C1020 1.314 . S
N1021 C1024 1.279 . S
C1022 C1020 1.353 . S
C1022 C1025 1.348 . S
C1022 H1054 0.929 . S
C1023 C1024 1.358 . S
C1023 C1025 1.356 . S
C1023 H1055 0.930 . S
C1024 N1021 1.279 . S
C1024 C1023 1.358 . S
C1024 H1027 0.930 . S
C1025 C1022 1.348 . S
C1025 C1023 1.356 . S
H1026 C1020 0.930 . S
H1027 C1024 0.930 . S
O1028 Li968 1.956 . S
O1028 Li969 1.970 . S
O1028 Li970 1.961 . S
O1028 C972 1.325 . S
O1029 Li968 1.970 . S
O1029 Li969 1.956 . S
O1029 Li971 1.961 . S
O1029 C978 1.325 . S
O1030 Li968 1.961 . S
O1030 Li970 1.956 . S
O1030 Li971 1.970 . S
O1030 C1000 1.325 . S
O1031 Li969 1.961 . S
O1031 Li970 1.970 . S
O1031 Li971 1.956 . S
O1031 C1006 1.325 . S
H1032 C974 0.929 . S
H1033 C975 0.930 . S
H1034 C976 0.930 . S
H1035 C977 0.930 . S
H1036 C979 0.930 . S
H1037 C981 0.929 . S
H1038 C982 0.930 . S
H1039 C983 0.930 . S
H1040 C986 0.930 . S
H1041 C989 0.929 . S
H1042 C994 0.929 . S
H1043 C995 0.930 . S
H1044 C1002 0.929 . S
H1045 C1003 0.930 . S
H1046 C1004 0.930 . S
H1047 C1005 0.930 . S
H1048 C1007 0.929 . S
H1049 C1008 0.930 . S
H1050 C1009 0.930 . S
H1051 C1010 0.930 . S
H1052 C1014 0.929 . S
H1053 C1016 0.930 . S
H1054 C1022 0.929 . S
H1055 C1023 0.930 . S
Li1056 N1073 1.990 . S
Li1056 O1116 1.956 . S
Li1056 O1117 1.970 . S
Li1056 O1118 1.961 . S
Li1057 N1081 1.990 . S
Li1057 O1116 1.970 . S
Li1057 O1117 1.956 . S
Li1057 O1119 1.961 . S
Li1058 N1103 1.990 . S
Li1058 O1116 1.961 . S
Li1058 O1118 1.956 . S
Li1058 O1119 1.970 . S
Li1059 N1109 1.990 . S
Li1059 O1117 1.961 . S
Li1059 O1118 1.970 . S
Li1059 O1119 1.956 . S
C1060 C1062 1.348 . S
C1060 C1063 1.356 . S
C1060 O1116 1.325 . S
N1061 C1064 1.314 . S
N1061 C1065 1.279 . S
C1062 C1060 1.348 . S
C1062 C1064 1.353 . S
C1062 H1120 0.929 . S
C1063 C1060 1.356 . S
C1063 C1065 1.358 . S
C1063 H1121 0.930 . S
C1064 N1061 1.314 . S
C1064 C1062 1.353 . S
C1064 H1122 0.930 . S
C1065 N1061 1.279 . S
C1065 C1063 1.358 . S
C1065 H1123 0.930 . S
C1066 C1069 1.348 . S
C1066 C1070 1.356 . S
C1066 O1117 1.325 . S
C1067 N1068 1.279 . S
C1067 C1070 1.358 . S
C1067 H1124 0.930 . S
N1068 C1067 1.279 . S
N1068 C1071 1.314 . S
C1069 C1066 1.348 . S
C1069 C1071 1.353 . S
C1069 H1125 0.929 . S
C1070 C1066 1.356 . S
C1070 C1067 1.358 . S
C1070 H1126 0.930 . S
C1071 N1068 1.314 . S
C1071 C1069 1.353 . S
C1071 H1127 0.930 . S
C1072 N1073 1.314 . S
C1072 C1077 1.353 . S
C1072 H1078 0.930 . S
N1073 Li1056 1.990 . S
N1073 C1072 1.314 . S
N1073 C1075 1.279 . S
C1074 C1075 1.358 . S
C1074 C1076 1.356 . S
C1074 H1128 0.930 . S
C1075 N1073 1.279 . S
C1075 C1074 1.358 . S
C1075 H1079 0.930 . S
C1076 C1074 1.356 . S
C1076 C1077 1.348 . S
C1077 C1072 1.353 . S
C1077 C1076 1.348 . S
C1077 H1129 0.929 . S
H1078 C1072 0.930 . S
H1079 C1075 0.930 . S
C1080 N1081 1.314 . S
C1080 C1082 1.353 . S
C1080 H1086 0.930 . S
N1081 Li1057 1.990 . S
N1081 C1080 1.314 . S
N1081 C1084 1.279 . S
C1082 C1080 1.353 . S
C1082 C1085 1.348 . S
C1082 H1130 0.929 . S
C1083 C1084 1.358 . S
C1083 C1085 1.356 . S
C1083 H1131 0.930 . S
C1084 N1081 1.279 . S
C1084 C1083 1.358 . S
C1084 H1087 0.930 . S
C1085 C1082 1.348 . S
C1085 C1083 1.356 . S
H1086 C1080 0.930 . S
H1087 C1084 0.930 . S
C1088 C1090 1.348 . S
C1088 C1091 1.356 . S
C1088 O1118 1.325 . S
N1089 C1092 1.314 . S
N1089 C1093 1.279 . S
C1090 C1088 1.348 . S
C1090 C1092 1.353 . S
C1090 H1132 0.929 . S
C1091 C1088 1.356 . S
C1091 C1093 1.358 . S
C1091 H1133 0.930 . S
C1092 N1089 1.314 . S
C1092 C1090 1.353 . S
C1092 H1134 0.930 . S
C1093 N1089 1.279 . S
C1093 C1091 1.358 . S
C1093 H1135 0.930 . S
C1094 C1095 1.348 . S
C1094 C1096 1.356 . S
C1094 O1119 1.325 . S
C1095 C1094 1.348 . S
C1095 C1097 1.353 . S
C1095 H1136 0.929 . S
C1096 C1094 1.356 . S
C1096 C1098 1.358 . S
C1096 H1137 0.930 . S
C1097 C1095 1.353 . S
C1097 N1099 1.314 . S
C1097 H1138 0.930 . S
C1098 C1096 1.358 . S
C1098 N1099 1.279 . S
C1098 H1139 0.930 . S
N1099 C1097 1.314 . S
N1099 C1098 1.279 . S
C1100 C1102 1.353 . S
C1100 N1103 1.314 . S
C1100 H1106 0.930 . S
C1101 N1103 1.279 . S
C1101 C1104 1.358 . S
C1101 H1107 0.930 . S
C1102 C1100 1.353 . S
C1102 C1105 1.348 . S
C1102 H1140 0.929 . S
N1103 Li1058 1.990 . S
N1103 C1100 1.314 . S
N1103 C1101 1.279 . S
C1104 C1101 1.358 . S
C1104 C1105 1.356 . S
C1104 H1141 0.930 . S
C1105 C1102 1.348 . S
C1105 C1104 1.356 . S
H1106 C1100 0.930 . S
H1107 C1101 0.930 . S
C1108 N1109 1.314 . S
C1108 C1110 1.353 . S
C1108 H1114 0.930 . S
N1109 Li1059 1.990 . S
N1109 C1108 1.314 . S
N1109 C1112 1.279 . S
C1110 C1108 1.353 . S
C1110 C1113 1.348 . S
C1110 H1142 0.929 . S
C1111 C1112 1.358 . S
C1111 C1113 1.356 . S
C1111 H1143 0.930 . S
C1112 N1109 1.279 . S
C1112 C1111 1.358 . S
C1112 H1115 0.930 . S
C1113 C1110 1.348 . S
C1113 C1111 1.356 . S
H1114 C1108 0.930 . S
H1115 C1112 0.930 . S
O1116 Li1056 1.956 . S
O1116 Li1057 1.970 . S
O1116 Li1058 1.961 . S
O1116 C1060 1.325 . S
O1117 Li1056 1.970 . S
O1117 Li1057 1.956 . S
O1117 Li1059 1.961 . S
O1117 C1066 1.325 . S
O1118 Li1056 1.961 . S
O1118 Li1058 1.956 . S
O1118 Li1059 1.970 . S
O1118 C1088 1.325 . S
O1119 Li1057 1.961 . S
O1119 Li1058 1.970 . S
O1119 Li1059 1.956 . S
O1119 C1094 1.325 . S
H1120 C1062 0.929 . S
H1121 C1063 0.930 . S
H1122 C1064 0.930 . S
H1123 C1065 0.930 . S
H1124 C1067 0.930 . S
H1125 C1069 0.929 . S
H1126 C1070 0.930 . S
H1127 C1071 0.930 . S
H1128 C1074 0.930 . S
H1129 C1077 0.929 . S
H1130 C1082 0.929 . S
H1131 C1083 0.930 . S
H1132 C1090 0.929 . S
H1133 C1091 0.930 . S
H1134 C1092 0.930 . S
H1135 C1093 0.930 . S
H1136 C1095 0.929 . S
H1137 C1096 0.930 . S
H1138 C1097 0.930 . S
H1139 C1098 0.930 . S
H1140 C1102 0.929 . S
H1141 C1104 0.930 . S
H1142 C1110 0.929 . S
H1143 C1111 0.930 . S
Li1144 N1161 1.990 . S
Li1144 O1204 1.956 . S
Li1144 O1205 1.970 . S
Li1144 O1206 1.961 . S
Li1145 N1169 1.990 . S
Li1145 O1204 1.970 . S
Li1145 O1205 1.956 . S
Li1145 O1207 1.961 . S
Li1146 N1191 1.990 . S
Li1146 O1204 1.961 . S
Li1146 O1206 1.956 . S
Li1146 O1207 1.970 . S
Li1147 N1197 1.990 . S
Li1147 O1205 1.961 . S
Li1147 O1206 1.970 . S
Li1147 O1207 1.956 . S
C1148 C1150 1.348 . S
C1148 C1151 1.356 . S
C1148 O1204 1.325 . S
N1149 C1152 1.314 . S
N1149 C1153 1.279 . S
C1150 C1148 1.348 . S
C1150 C1152 1.353 . S
C1150 H1208 0.929 . S
C1151 C1148 1.356 . S
C1151 C1153 1.358 . S
C1151 H1209 0.930 . S
C1152 N1149 1.314 . S
C1152 C1150 1.353 . S
C1152 H1210 0.930 . S
C1153 N1149 1.279 . S
C1153 C1151 1.358 . S
C1153 H1211 0.930 . S
C1154 C1157 1.348 . S
C1154 C1158 1.356 . S
C1154 O1205 1.325 . S
C1155 N1156 1.279 . S
C1155 C1158 1.358 . S
C1155 H1212 0.930 . S
N1156 C1155 1.279 . S
N1156 C1159 1.314 . S
C1157 C1154 1.348 . S
C1157 C1159 1.353 . S
C1157 H1213 0.929 . S
C1158 C1154 1.356 . S
C1158 C1155 1.358 . S
C1158 H1214 0.930 . S
C1159 N1156 1.314 . S
C1159 C1157 1.353 . S
C1159 H1215 0.930 . S
C1160 N1161 1.314 . S
C1160 C1165 1.353 . S
C1160 H1166 0.930 . S
N1161 Li1144 1.990 . S
N1161 C1160 1.314 . S
N1161 C1163 1.279 . S
C1162 C1163 1.358 . S
C1162 C1164 1.356 . S
C1162 H1216 0.930 . S
C1163 N1161 1.279 . S
C1163 C1162 1.358 . S
C1163 H1167 0.930 . S
C1164 C1162 1.356 . S
C1164 C1165 1.348 . S
C1165 C1160 1.353 . S
C1165 C1164 1.348 . S
C1165 H1217 0.929 . S
H1166 C1160 0.930 . S
H1167 C1163 0.930 . S
C1168 N1169 1.314 . S
C1168 C1170 1.353 . S
C1168 H1174 0.930 . S
N1169 Li1145 1.990 . S
N1169 C1168 1.314 . S
N1169 C1172 1.279 . S
C1170 C1168 1.353 . S
C1170 C1173 1.348 . S
C1170 H1218 0.929 . S
C1171 C1172 1.358 . S
C1171 C1173 1.356 . S
C1171 H1219 0.930 . S
C1172 N1169 1.279 . S
C1172 C1171 1.358 . S
C1172 H1175 0.930 . S
C1173 C1170 1.348 . S
C1173 C1171 1.356 . S
H1174 C1168 0.930 . S
H1175 C1172 0.930 . S
C1176 C1178 1.348 . S
C1176 C1179 1.356 . S
C1176 O1206 1.325 . S
N1177 C1180 1.314 . S
N1177 C1181 1.279 . S
C1178 C1176 1.348 . S
C1178 C1180 1.353 . S
C1178 H1220 0.929 . S
C1179 C1176 1.356 . S
C1179 C1181 1.358 . S
C1179 H1221 0.930 . S
C1180 N1177 1.314 . S
C1180 C1178 1.353 . S
C1180 H1222 0.930 . S
C1181 N1177 1.279 . S
C1181 C1179 1.358 . S
C1181 H1223 0.930 . S
C1182 C1183 1.348 . S
C1182 C1184 1.356 . S
C1182 O1207 1.325 . S
C1183 C1182 1.348 . S
C1183 C1185 1.353 . S
C1183 H1224 0.929 . S
C1184 C1182 1.356 . S
C1184 C1186 1.358 . S
C1184 H1225 0.930 . S
C1185 C1183 1.353 . S
C1185 N1187 1.314 . S
C1185 H1226 0.930 . S
C1186 C1184 1.358 . S
C1186 N1187 1.279 . S
C1186 H1227 0.930 . S
N1187 C1185 1.314 . S
N1187 C1186 1.279 . S
C1188 C1190 1.353 . S
C1188 N1191 1.314 . S
C1188 H1194 0.930 . S
C1189 N1191 1.279 . S
C1189 C1192 1.358 . S
C1189 H1195 0.930 . S
C1190 C1188 1.353 . S
C1190 C1193 1.348 . S
C1190 H1228 0.929 . S
N1191 Li1146 1.990 . S
N1191 C1188 1.314 . S
N1191 C1189 1.279 . S
C1192 C1189 1.358 . S
C1192 C1193 1.356 . S
C1192 H1229 0.930 . S
C1193 C1190 1.348 . S
C1193 C1192 1.356 . S
H1194 C1188 0.930 . S
H1195 C1189 0.930 . S
C1196 N1197 1.314 . S
C1196 C1198 1.353 . S
C1196 H1202 0.930 . S
N1197 Li1147 1.990 . S
N1197 C1196 1.314 . S
N1197 C1200 1.279 . S
C1198 C1196 1.353 . S
C1198 C1201 1.348 . S
C1198 H1230 0.929 . S
C1199 C1200 1.358 . S
C1199 C1201 1.356 . S
C1199 H1231 0.930 . S
C1200 N1197 1.279 . S
C1200 C1199 1.358 . S
C1200 H1203 0.930 . S
C1201 C1198 1.348 . S
C1201 C1199 1.356 . S
H1202 C1196 0.930 . S
H1203 C1200 0.930 . S
O1204 Li1144 1.956 . S
O1204 Li1145 1.970 . S
O1204 Li1146 1.961 . S
O1204 C1148 1.325 . S
O1205 Li1144 1.970 . S
O1205 Li1145 1.956 . S
O1205 Li1147 1.961 . S
O1205 C1154 1.325 . S
O1206 Li1144 1.961 . S
O1206 Li1146 1.956 . S
O1206 Li1147 1.970 . S
O1206 C1176 1.325 . S
O1207 Li1145 1.961 . S
O1207 Li1146 1.970 . S
O1207 Li1147 1.956 . S
O1207 C1182 1.325 . S
H1208 C1150 0.929 . S
H1209 C1151 0.930 . S
H1210 C1152 0.930 . S
H1211 C1153 0.930 . S
H1212 C1155 0.930 . S
H1213 C1157 0.929 . S
H1214 C1158 0.930 . S
H1215 C1159 0.930 . S
H1216 C1162 0.930 . S
H1217 C1165 0.929 . S
H1218 C1170 0.929 . S
H1219 C1171 0.930 . S
H1220 C1178 0.929 . S
H1221 C1179 0.930 . S
H1222 C1180 0.930 . S
H1223 C1181 0.930 . S
H1224 C1183 0.929 . S
H1225 C1184 0.930 . S
H1226 C1185 0.930 . S
H1227 C1186 0.930 . S
H1228 C1190 0.929 . S
H1229 C1192 0.930 . S
H1230 C1198 0.929 . S
H1231 C1199 0.930 . S
Li1232 N1249 1.990 . S
Li1232 O1292 1.956 . S
Li1232 O1293 1.970 . S
Li1232 O1294 1.961 . S
Li1233 N1257 1.990 . S
Li1233 O1292 1.970 . S
Li1233 O1293 1.956 . S
Li1233 O1295 1.961 . S
Li1234 N1279 1.990 . S
Li1234 O1292 1.961 . S
Li1234 O1294 1.956 . S
Li1234 O1295 1.970 . S
Li1235 N1285 1.990 . S
Li1235 O1293 1.961 . S
Li1235 O1294 1.970 . S
Li1235 O1295 1.956 . S
C1236 C1238 1.348 . S
C1236 C1239 1.356 . S
C1236 O1292 1.325 . S
N1237 C1240 1.314 . S
N1237 C1241 1.279 . S
C1238 C1236 1.348 . S
C1238 C1240 1.353 . S
C1238 H1296 0.929 . S
C1239 C1236 1.356 . S
C1239 C1241 1.358 . S
C1239 H1297 0.930 . S
C1240 N1237 1.314 . S
C1240 C1238 1.353 . S
C1240 H1298 0.930 . S
C1241 N1237 1.279 . S
C1241 C1239 1.358 . S
C1241 H1299 0.930 . S
C1242 C1245 1.348 . S
C1242 C1246 1.356 . S
C1242 O1293 1.325 . S
C1243 N1244 1.279 . S
C1243 C1246 1.358 . S
C1243 H1300 0.930 . S
N1244 C1243 1.279 . S
N1244 C1247 1.314 . S
C1245 C1242 1.348 . S
C1245 C1247 1.353 . S
C1245 H1301 0.929 . S
C1246 C1242 1.356 . S
C1246 C1243 1.358 . S
C1246 H1302 0.930 . S
C1247 N1244 1.314 . S
C1247 C1245 1.353 . S
C1247 H1303 0.930 . S
C1248 N1249 1.314 . S
C1248 C1253 1.353 . S
C1248 H1254 0.930 . S
N1249 Li1232 1.990 . S
N1249 C1248 1.314 . S
N1249 C1251 1.279 . S
C1250 C1251 1.358 . S
C1250 C1252 1.356 . S
C1250 H1304 0.930 . S
C1251 N1249 1.279 . S
C1251 C1250 1.358 . S
C1251 H1255 0.930 . S
C1252 C1250 1.356 . S
C1252 C1253 1.348 . S
C1253 C1248 1.353 . S
C1253 C1252 1.348 . S
C1253 H1305 0.929 . S
H1254 C1248 0.930 . S
H1255 C1251 0.930 . S
C1256 N1257 1.314 . S
C1256 C1258 1.353 . S
C1256 H1262 0.930 . S
N1257 Li1233 1.990 . S
N1257 C1256 1.314 . S
N1257 C1260 1.279 . S
C1258 C1256 1.353 . S
C1258 C1261 1.348 . S
C1258 H1306 0.929 . S
C1259 C1260 1.358 . S
C1259 C1261 1.356 . S
C1259 H1307 0.930 . S
C1260 N1257 1.279 . S
C1260 C1259 1.358 . S
C1260 H1263 0.930 . S
C1261 C1258 1.348 . S
C1261 C1259 1.356 . S
H1262 C1256 0.930 . S
H1263 C1260 0.930 . S
C1264 C1266 1.348 . S
C1264 C1267 1.356 . S
C1264 O1294 1.325 . S
N1265 C1268 1.314 . S
N1265 C1269 1.279 . S
C1266 C1264 1.348 . S
C1266 C1268 1.353 . S
C1266 H1308 0.929 . S
C1267 C1264 1.356 . S
C1267 C1269 1.358 . S
C1267 H1309 0.930 . S
C1268 N1265 1.314 . S
C1268 C1266 1.353 . S
C1268 H1310 0.930 . S
C1269 N1265 1.279 . S
C1269 C1267 1.358 . S
C1269 H1311 0.930 . S
C1270 C1271 1.348 . S
C1270 C1272 1.356 . S
C1270 O1295 1.325 . S
C1271 C1270 1.348 . S
C1271 C1273 1.353 . S
C1271 H1312 0.929 . S
C1272 C1270 1.356 . S
C1272 C1274 1.358 . S
C1272 H1313 0.930 . S
C1273 C1271 1.353 . S
C1273 N1275 1.314 . S
C1273 H1314 0.930 . S
C1274 C1272 1.358 . S
C1274 N1275 1.279 . S
C1274 H1315 0.930 . S
N1275 C1273 1.314 . S
N1275 C1274 1.279 . S
C1276 C1278 1.353 . S
C1276 N1279 1.314 . S
C1276 H1282 0.930 . S
C1277 N1279 1.279 . S
C1277 C1280 1.358 . S
C1277 H1283 0.930 . S
C1278 C1276 1.353 . S
C1278 C1281 1.348 . S
C1278 H1316 0.929 . S
N1279 Li1234 1.990 . S
N1279 C1276 1.314 . S
N1279 C1277 1.279 . S
C1280 C1277 1.358 . S
C1280 C1281 1.356 . S
C1280 H1317 0.930 . S
C1281 C1278 1.348 . S
C1281 C1280 1.356 . S
H1282 C1276 0.930 . S
H1283 C1277 0.930 . S
C1284 N1285 1.314 . S
C1284 C1286 1.353 . S
C1284 H1290 0.930 . S
N1285 Li1235 1.990 . S
N1285 C1284 1.314 . S
N1285 C1288 1.279 . S
C1286 C1284 1.353 . S
C1286 C1289 1.348 . S
C1286 H1318 0.929 . S
C1287 C1288 1.358 . S
C1287 C1289 1.356 . S
C1287 H1319 0.930 . S
C1288 N1285 1.279 . S
C1288 C1287 1.358 . S
C1288 H1291 0.930 . S
C1289 C1286 1.348 . S
C1289 C1287 1.356 . S
H1290 C1284 0.930 . S
H1291 C1288 0.930 . S
O1292 Li1232 1.956 . S
O1292 Li1233 1.970 . S
O1292 Li1234 1.961 . S
O1292 C1236 1.325 . S
O1293 Li1232 1.970 . S
O1293 Li1233 1.956 . S
O1293 Li1235 1.961 . S
O1293 C1242 1.325 . S
O1294 Li1232 1.961 . S
O1294 Li1234 1.956 . S
O1294 Li1235 1.970 . S
O1294 C1264 1.325 . S
O1295 Li1233 1.961 . S
O1295 Li1234 1.970 . S
O1295 Li1235 1.956 . S
O1295 C1270 1.325 . S
H1296 C1238 0.929 . S
H1297 C1239 0.930 . S
H1298 C1240 0.930 . S
H1299 C1241 0.930 . S
H1300 C1243 0.930 . S
H1301 C1245 0.929 . S
H1302 C1246 0.930 . S
H1303 C1247 0.930 . S
H1304 C1250 0.930 . S
H1305 C1253 0.929 . S
H1306 C1258 0.929 . S
H1307 C1259 0.930 . S
H1308 C1266 0.929 . S
H1309 C1267 0.930 . S
H1310 C1268 0.930 . S
H1311 C1269 0.930 . S
H1312 C1271 0.929 . S
H1313 C1272 0.930 . S
H1314 C1273 0.930 . S
H1315 C1274 0.930 . S
H1316 C1278 0.929 . S
H1317 C1280 0.930 . S
H1318 C1286 0.929 . S
H1319 C1287 0.930 . S
Li1320 N1337 1.990 . S
Li1320 O1380 1.956 . S
Li1320 O1381 1.970 . S
Li1320 O1382 1.961 . S
Li1321 N1345 1.990 . S
Li1321 O1380 1.970 . S
Li1321 O1381 1.956 . S
Li1321 O1383 1.961 . S
Li1322 N1367 1.990 . S
Li1322 O1380 1.961 . S
Li1322 O1382 1.956 . S
Li1322 O1383 1.970 . S
Li1323 N1373 1.990 . S
Li1323 O1381 1.961 . S
Li1323 O1382 1.970 . S
Li1323 O1383 1.956 . S
C1324 C1326 1.348 . S
C1324 C1327 1.356 . S
C1324 O1380 1.325 . S
N1325 C1328 1.314 . S
N1325 C1329 1.279 . S
C1326 C1324 1.348 . S
C1326 C1328 1.353 . S
C1326 H1384 0.929 . S
C1327 C1324 1.356 . S
C1327 C1329 1.358 . S
C1327 H1385 0.930 . S
C1328 N1325 1.314 . S
C1328 C1326 1.353 . S
C1328 H1386 0.930 . S
C1329 N1325 1.279 . S
C1329 C1327 1.358 . S
C1329 H1387 0.930 . S
C1330 C1333 1.348 . S
C1330 C1334 1.356 . S
C1330 O1381 1.325 . S
C1331 N1332 1.279 . S
C1331 C1334 1.358 . S
C1331 H1388 0.930 . S
N1332 C1331 1.279 . S
N1332 C1335 1.314 . S
C1333 C1330 1.348 . S
C1333 C1335 1.353 . S
C1333 H1389 0.929 . S
C1334 C1330 1.356 . S
C1334 C1331 1.358 . S
C1334 H1390 0.930 . S
C1335 N1332 1.314 . S
C1335 C1333 1.353 . S
C1335 H1391 0.930 . S
C1336 N1337 1.314 . S
C1336 C1341 1.353 . S
C1336 H1342 0.930 . S
N1337 Li1320 1.990 . S
N1337 C1336 1.314 . S
N1337 C1339 1.279 . S
C1338 C1339 1.358 . S
C1338 C1340 1.356 . S
C1338 H1392 0.930 . S
C1339 N1337 1.279 . S
C1339 C1338 1.358 . S
C1339 H1343 0.930 . S
C1340 C1338 1.356 . S
C1340 C1341 1.348 . S
C1341 C1336 1.353 . S
C1341 C1340 1.348 . S
C1341 H1393 0.929 . S
H1342 C1336 0.930 . S
H1343 C1339 0.930 . S
C1344 N1345 1.314 . S
C1344 C1346 1.353 . S
C1344 H1350 0.930 . S
N1345 Li1321 1.990 . S
N1345 C1344 1.314 . S
N1345 C1348 1.279 . S
C1346 C1344 1.353 . S
C1346 C1349 1.348 . S
C1346 H1394 0.929 . S
C1347 C1348 1.358 . S
C1347 C1349 1.356 . S
C1347 H1395 0.930 . S
C1348 N1345 1.279 . S
C1348 C1347 1.358 . S
C1348 H1351 0.930 . S
C1349 C1346 1.348 . S
C1349 C1347 1.356 . S
H1350 C1344 0.930 . S
H1351 C1348 0.930 . S
C1352 C1354 1.348 . S
C1352 C1355 1.356 . S
C1352 O1382 1.325 . S
N1353 C1356 1.314 . S
N1353 C1357 1.279 . S
C1354 C1352 1.348 . S
C1354 C1356 1.353 . S
C1354 H1396 0.929 . S
C1355 C1352 1.356 . S
C1355 C1357 1.358 . S
C1355 H1397 0.930 . S
C1356 N1353 1.314 . S
C1356 C1354 1.353 . S
C1356 H1398 0.930 . S
C1357 N1353 1.279 . S
C1357 C1355 1.358 . S
C1357 H1399 0.930 . S
C1358 C1359 1.348 . S
C1358 C1360 1.356 . S
C1358 O1383 1.325 . S
C1359 C1358 1.348 . S
C1359 C1361 1.353 . S
C1359 H1400 0.929 . S
C1360 C1358 1.356 . S
C1360 C1362 1.358 . S
C1360 H1401 0.930 . S
C1361 C1359 1.353 . S
C1361 N1363 1.314 . S
C1361 H1402 0.930 . S
C1362 C1360 1.358 . S
C1362 N1363 1.279 . S
C1362 H1403 0.930 . S
N1363 C1361 1.314 . S
N1363 C1362 1.279 . S
C1364 C1366 1.353 . S
C1364 N1367 1.314 . S
C1364 H1370 0.930 . S
C1365 N1367 1.279 . S
C1365 C1368 1.358 . S
C1365 H1371 0.930 . S
C1366 C1364 1.353 . S
C1366 C1369 1.348 . S
C1366 H1404 0.929 . S
N1367 Li1322 1.990 . S
N1367 C1364 1.314 . S
N1367 C1365 1.279 . S
C1368 C1365 1.358 . S
C1368 C1369 1.356 . S
C1368 H1405 0.930 . S
C1369 C1366 1.348 . S
C1369 C1368 1.356 . S
H1370 C1364 0.930 . S
H1371 C1365 0.930 . S
C1372 N1373 1.314 . S
C1372 C1374 1.353 . S
C1372 H1378 0.930 . S
N1373 Li1323 1.990 . S
N1373 C1372 1.314 . S
N1373 C1376 1.279 . S
C1374 C1372 1.353 . S
C1374 C1377 1.348 . S
C1374 H1406 0.929 . S
C1375 C1376 1.358 . S
C1375 C1377 1.356 . S
C1375 H1407 0.930 . S
C1376 N1373 1.279 . S
C1376 C1375 1.358 . S
C1376 H1379 0.930 . S
C1377 C1374 1.348 . S
C1377 C1375 1.356 . S
H1378 C1372 0.930 . S
H1379 C1376 0.930 . S
O1380 Li1320 1.956 . S
O1380 Li1321 1.970 . S
O1380 Li1322 1.961 . S
O1380 C1324 1.325 . S
O1381 Li1320 1.970 . S
O1381 Li1321 1.956 . S
O1381 Li1323 1.961 . S
O1381 C1330 1.325 . S
O1382 Li1320 1.961 . S
O1382 Li1322 1.956 . S
O1382 Li1323 1.970 . S
O1382 C1352 1.325 . S
O1383 Li1321 1.961 . S
O1383 Li1322 1.970 . S
O1383 Li1323 1.956 . S
O1383 C1358 1.325 . S
H1384 C1326 0.929 . S
H1385 C1327 0.930 . S
H1386 C1328 0.930 . S
H1387 C1329 0.930 . S
H1388 C1331 0.930 . S
H1389 C1333 0.929 . S
H1390 C1334 0.930 . S
H1391 C1335 0.930 . S
H1392 C1338 0.930 . S
H1393 C1341 0.929 . S
H1394 C1346 0.929 . S
H1395 C1347 0.930 . S
H1396 C1354 0.929 . S
H1397 C1355 0.930 . S
H1398 C1356 0.930 . S
H1399 C1357 0.930 . S
H1400 C1359 0.929 . S
H1401 C1360 0.930 . S
H1402 C1361 0.930 . S
H1403 C1362 0.930 . S
H1404 C1366 0.929 . S
H1405 C1368 0.930 . S
H1406 C1374 0.929 . S
H1407 C1375 0.930 . S
Li1408 N1425 1.990 . S
Li1408 O1468 1.956 . S
Li1408 O1469 1.970 . S
Li1408 O1470 1.961 . S
Li1409 N1433 1.990 . S
Li1409 O1468 1.970 . S
Li1409 O1469 1.956 . S
Li1409 O1471 1.961 . S
Li1410 N1455 1.990 . S
Li1410 O1468 1.961 . S
Li1410 O1470 1.956 . S
Li1410 O1471 1.970 . S
Li1411 N1461 1.990 . S
Li1411 O1469 1.961 . S
Li1411 O1470 1.970 . S
Li1411 O1471 1.956 . S
C1412 C1414 1.348 . S
C1412 C1415 1.356 . S
C1412 O1468 1.325 . S
N1413 C1416 1.314 . S
N1413 C1417 1.279 . S
C1414 C1412 1.348 . S
C1414 C1416 1.353 . S
C1414 H1472 0.929 . S
C1415 C1412 1.356 . S
C1415 C1417 1.358 . S
C1415 H1473 0.930 . S
C1416 N1413 1.314 . S
C1416 C1414 1.353 . S
C1416 H1474 0.930 . S
C1417 N1413 1.279 . S
C1417 C1415 1.358 . S
C1417 H1475 0.930 . S
C1418 C1421 1.348 . S
C1418 C1422 1.356 . S
C1418 O1469 1.325 . S
C1419 N1420 1.279 . S
C1419 C1422 1.358 . S
C1419 H1476 0.930 . S
N1420 C1419 1.279 . S
N1420 C1423 1.314 . S
C1421 C1418 1.348 . S
C1421 C1423 1.353 . S
C1421 H1477 0.929 . S
C1422 C1418 1.356 . S
C1422 C1419 1.358 . S
C1422 H1478 0.930 . S
C1423 N1420 1.314 . S
C1423 C1421 1.353 . S
C1423 H1479 0.930 . S
C1424 N1425 1.314 . S
C1424 C1429 1.353 . S
C1424 H1430 0.930 . S
N1425 Li1408 1.990 . S
N1425 C1424 1.314 . S
N1425 C1427 1.279 . S
C1426 C1427 1.358 . S
C1426 C1428 1.356 . S
C1426 H1480 0.930 . S
C1427 N1425 1.279 . S
C1427 C1426 1.358 . S
C1427 H1431 0.930 . S
C1428 C1426 1.356 . S
C1428 C1429 1.348 . S
C1429 C1424 1.353 . S
C1429 C1428 1.348 . S
C1429 H1481 0.929 . S
H1430 C1424 0.930 . S
H1431 C1427 0.930 . S
C1432 N1433 1.314 . S
C1432 C1434 1.353 . S
C1432 H1438 0.930 . S
N1433 Li1409 1.990 . S
N1433 C1432 1.314 . S
N1433 C1436 1.279 . S
C1434 C1432 1.353 . S
C1434 C1437 1.348 . S
C1434 H1482 0.929 . S
C1435 C1436 1.358 . S
C1435 C1437 1.356 . S
C1435 H1483 0.930 . S
C1436 N1433 1.279 . S
C1436 C1435 1.358 . S
C1436 H1439 0.930 . S
C1437 C1434 1.348 . S
C1437 C1435 1.356 . S
H1438 C1432 0.930 . S
H1439 C1436 0.930 . S
C1440 C1442 1.348 . S
C1440 C1443 1.356 . S
C1440 O1470 1.325 . S
N1441 C1444 1.314 . S
N1441 C1445 1.279 . S
C1442 C1440 1.348 . S
C1442 C1444 1.353 . S
C1442 H1484 0.929 . S
C1443 C1440 1.356 . S
C1443 C1445 1.358 . S
C1443 H1485 0.930 . S
C1444 N1441 1.314 . S
C1444 C1442 1.353 . S
C1444 H1486 0.930 . S
C1445 N1441 1.279 . S
C1445 C1443 1.358 . S
C1445 H1487 0.930 . S
C1446 C1447 1.348 . S
C1446 C1448 1.356 . S
C1446 O1471 1.325 . S
C1447 C1446 1.348 . S
C1447 C1449 1.353 . S
C1447 H1488 0.929 . S
C1448 C1446 1.356 . S
C1448 C1450 1.358 . S
C1448 H1489 0.930 . S
C1449 C1447 1.353 . S
C1449 N1451 1.314 . S
C1449 H1490 0.930 . S
C1450 C1448 1.358 . S
C1450 N1451 1.279 . S
C1450 H1491 0.930 . S
N1451 C1449 1.314 . S
N1451 C1450 1.279 . S
C1452 C1454 1.353 . S
C1452 N1455 1.314 . S
C1452 H1458 0.930 . S
C1453 N1455 1.279 . S
C1453 C1456 1.358 . S
C1453 H1459 0.930 . S
C1454 C1452 1.353 . S
C1454 C1457 1.348 . S
C1454 H1492 0.929 . S
N1455 Li1410 1.990 . S
N1455 C1452 1.314 . S
N1455 C1453 1.279 . S
C1456 C1453 1.358 . S
C1456 C1457 1.356 . S
C1456 H1493 0.930 . S
C1457 C1454 1.348 . S
C1457 C1456 1.356 . S
H1458 C1452 0.930 . S
H1459 C1453 0.930 . S
C1460 N1461 1.314 . S
C1460 C1462 1.353 . S
C1460 H1466 0.930 . S
N1461 Li1411 1.990 . S
N1461 C1460 1.314 . S
N1461 C1464 1.279 . S
C1462 C1460 1.353 . S
C1462 C1465 1.348 . S
C1462 H1494 0.929 . S
C1463 C1464 1.358 . S
C1463 C1465 1.356 . S
C1463 H1495 0.930 . S
C1464 N1461 1.279 . S
C1464 C1463 1.358 . S
C1464 H1467 0.930 . S
C1465 C1462 1.348 . S
C1465 C1463 1.356 . S
H1466 C1460 0.930 . S
H1467 C1464 0.930 . S
O1468 Li1408 1.956 . S
O1468 Li1409 1.970 . S
O1468 Li1410 1.961 . S
O1468 C1412 1.325 . S
O1469 Li1408 1.970 . S
O1469 Li1409 1.956 . S
O1469 Li1411 1.961 . S
O1469 C1418 1.325 . S
O1470 Li1408 1.961 . S
O1470 Li1410 1.956 . S
O1470 Li1411 1.970 . S
O1470 C1440 1.325 . S
O1471 Li1409 1.961 . S
O1471 Li1410 1.970 . S
O1471 Li1411 1.956 . S
O1471 C1446 1.325 . S
H1472 C1414 0.929 . S
H1473 C1415 0.930 . S
H1474 C1416 0.930 . S
H1475 C1417 0.930 . S
H1476 C1419 0.930 . S
H1477 C1421 0.929 . S
H1478 C1422 0.930 . S
H1479 C1423 0.930 . S
H1480 C1426 0.930 . S
H1481 C1429 0.929 . S
H1482 C1434 0.929 . S
H1483 C1435 0.930 . S
H1484 C1442 0.929 . S
H1485 C1443 0.930 . S
H1486 C1444 0.930 . S
H1487 C1445 0.930 . S
H1488 C1447 0.929 . S
H1489 C1448 0.930 . S
H1490 C1449 0.930 . S
H1491 C1450 0.930 . S
H1492 C1454 0.929 . S
H1493 C1456 0.930 . S
H1494 C1462 0.929 . S
H1495 C1463 0.930 . S
Li1496 N1513 1.990 . S
Li1496 O1556 1.956 . S
Li1496 O1557 1.970 . S
Li1496 O1558 1.961 . S
Li1497 N1521 1.990 . S
Li1497 O1556 1.970 . S
Li1497 O1557 1.956 . S
Li1497 O1559 1.961 . S
Li1498 N1543 1.990 . S
Li1498 O1556 1.961 . S
Li1498 O1558 1.956 . S
Li1498 O1559 1.970 . S
Li1499 N1549 1.990 . S
Li1499 O1557 1.961 . S
Li1499 O1558 1.970 . S
Li1499 O1559 1.956 . S
C1500 C1502 1.348 . S
C1500 C1503 1.356 . S
C1500 O1556 1.325 . S
N1501 C1504 1.314 . S
N1501 C1505 1.279 . S
C1502 C1500 1.348 . S
C1502 C1504 1.353 . S
C1502 H1560 0.929 . S
C1503 C1500 1.356 . S
C1503 C1505 1.358 . S
C1503 H1561 0.930 . S
C1504 N1501 1.314 . S
C1504 C1502 1.353 . S
C1504 H1562 0.930 . S
C1505 N1501 1.279 . S
C1505 C1503 1.358 . S
C1505 H1563 0.930 . S
C1506 C1509 1.348 . S
C1506 C1510 1.356 . S
C1506 O1557 1.325 . S
C1507 N1508 1.279 . S
C1507 C1510 1.358 . S
C1507 H1564 0.930 . S
N1508 C1507 1.279 . S
N1508 C1511 1.314 . S
C1509 C1506 1.348 . S
C1509 C1511 1.353 . S
C1509 H1565 0.929 . S
C1510 C1506 1.356 . S
C1510 C1507 1.358 . S
C1510 H1566 0.930 . S
C1511 N1508 1.314 . S
C1511 C1509 1.353 . S
C1511 H1567 0.930 . S
C1512 N1513 1.314 . S
C1512 C1517 1.353 . S
C1512 H1518 0.930 . S
N1513 Li1496 1.990 . S
N1513 C1512 1.314 . S
N1513 C1515 1.279 . S
C1514 C1515 1.358 . S
C1514 C1516 1.356 . S
C1514 H1568 0.930 . S
C1515 N1513 1.279 . S
C1515 C1514 1.358 . S
C1515 H1519 0.930 . S
C1516 C1514 1.356 . S
C1516 C1517 1.348 . S
C1517 C1512 1.353 . S
C1517 C1516 1.348 . S
C1517 H1569 0.929 . S
H1518 C1512 0.930 . S
H1519 C1515 0.930 . S
C1520 N1521 1.314 . S
C1520 C1522 1.353 . S
C1520 H1526 0.930 . S
N1521 Li1497 1.990 . S
N1521 C1520 1.314 . S
N1521 C1524 1.279 . S
C1522 C1520 1.353 . S
C1522 C1525 1.348 . S
C1522 H1570 0.929 . S
C1523 C1524 1.358 . S
C1523 C1525 1.356 . S
C1523 H1571 0.930 . S
C1524 N1521 1.279 . S
C1524 C1523 1.358 . S
C1524 H1527 0.930 . S
C1525 C1522 1.348 . S
C1525 C1523 1.356 . S
H1526 C1520 0.930 . S
H1527 C1524 0.930 . S
C1528 C1530 1.348 . S
C1528 C1531 1.356 . S
C1528 O1558 1.325 . S
N1529 C1532 1.314 . S
N1529 C1533 1.279 . S
C1530 C1528 1.348 . S
C1530 C1532 1.353 . S
C1530 H1572 0.929 . S
C1531 C1528 1.356 . S
C1531 C1533 1.358 . S
C1531 H1573 0.930 . S
C1532 N1529 1.314 . S
C1532 C1530 1.353 . S
C1532 H1574 0.930 . S
C1533 N1529 1.279 . S
C1533 C1531 1.358 . S
C1533 H1575 0.930 . S
C1534 C1535 1.348 . S
C1534 C1536 1.356 . S
C1534 O1559 1.325 . S
C1535 C1534 1.348 . S
C1535 C1537 1.353 . S
C1535 H1576 0.929 . S
C1536 C1534 1.356 . S
C1536 C1538 1.358 . S
C1536 H1577 0.930 . S
C1537 C1535 1.353 . S
C1537 N1539 1.314 . S
C1537 H1578 0.930 . S
C1538 C1536 1.358 . S
C1538 N1539 1.279 . S
C1538 H1579 0.930 . S
N1539 C1537 1.314 . S
N1539 C1538 1.279 . S
C1540 C1542 1.353 . S
C1540 N1543 1.314 . S
C1540 H1546 0.930 . S
C1541 N1543 1.279 . S
C1541 C1544 1.358 . S
C1541 H1547 0.930 . S
C1542 C1540 1.353 . S
C1542 C1545 1.348 . S
C1542 H1580 0.929 . S
N1543 Li1498 1.990 . S
N1543 C1540 1.314 . S
N1543 C1541 1.279 . S
C1544 C1541 1.358 . S
C1544 C1545 1.356 . S
C1544 H1581 0.930 . S
C1545 C1542 1.348 . S
C1545 C1544 1.356 . S
H1546 C1540 0.930 . S
H1547 C1541 0.930 . S
C1548 N1549 1.314 . S
C1548 C1550 1.353 . S
C1548 H1554 0.930 . S
N1549 Li1499 1.990 . S
N1549 C1548 1.314 . S
N1549 C1552 1.279 . S
C1550 C1548 1.353 . S
C1550 C1553 1.348 . S
C1550 H1582 0.929 . S
C1551 C1552 1.358 . S
C1551 C1553 1.356 . S
C1551 H1583 0.930 . S
C1552 N1549 1.279 . S
C1552 C1551 1.358 . S
C1552 H1555 0.930 . S
C1553 C1550 1.348 . S
C1553 C1551 1.356 . S
H1554 C1548 0.930 . S
H1555 C1552 0.930 . S
O1556 Li1496 1.956 . S
O1556 Li1497 1.970 . S
O1556 Li1498 1.961 . S
O1556 C1500 1.325 . S
O1557 Li1496 1.970 . S
O1557 Li1497 1.956 . S
O1557 Li1499 1.961 . S
O1557 C1506 1.325 . S
O1558 Li1496 1.961 . S
O1558 Li1498 1.956 . S
O1558 Li1499 1.970 . S
O1558 C1528 1.325 . S
O1559 Li1497 1.961 . S
O1559 Li1498 1.970 . S
O1559 Li1499 1.956 . S
O1559 C1534 1.325 . S
H1560 C1502 0.929 . S
H1561 C1503 0.930 . S
H1562 C1504 0.930 . S
H1563 C1505 0.930 . S
H1564 C1507 0.930 . S
H1565 C1509 0.929 . S
H1566 C1510 0.930 . S
H1567 C1511 0.930 . S
H1568 C1514 0.930 . S
H1569 C1517 0.929 . S
H1570 C1522 0.929 . S
H1571 C1523 0.930 . S
H1572 C1530 0.929 . S
H1573 C1531 0.930 . S
H1574 C1532 0.930 . S
H1575 C1533 0.930 . S
H1576 C1535 0.929 . S
H1577 C1536 0.930 . S
H1578 C1537 0.930 . S
H1579 C1538 0.930 . S
H1580 C1542 0.929 . S
H1581 C1544 0.930 . S
H1582 C1550 0.929 . S
H1583 C1551 0.930 . S
Li1584 N1601 1.990 . S
Li1584 O1644 1.956 . S
Li1584 O1645 1.970 . S
Li1584 O1646 1.961 . S
Li1585 N1609 1.990 . S
Li1585 O1644 1.970 . S
Li1585 O1645 1.956 . S
Li1585 O1647 1.961 . S
Li1586 N1631 1.990 . S
Li1586 O1644 1.961 . S
Li1586 O1646 1.956 . S
Li1586 O1647 1.970 . S
Li1587 N1637 1.990 . S
Li1587 O1645 1.961 . S
Li1587 O1646 1.970 . S
Li1587 O1647 1.956 . S
C1588 C1590 1.348 . S
C1588 C1591 1.356 . S
C1588 O1644 1.325 . S
N1589 C1592 1.314 . S
N1589 C1593 1.279 . S
C1590 C1588 1.348 . S
C1590 C1592 1.353 . S
C1590 H1648 0.929 . S
C1591 C1588 1.356 . S
C1591 C1593 1.358 . S
C1591 H1649 0.930 . S
C1592 N1589 1.314 . S
C1592 C1590 1.353 . S
C1592 H1650 0.930 . S
C1593 N1589 1.279 . S
C1593 C1591 1.358 . S
C1593 H1651 0.930 . S
C1594 C1597 1.348 . S
C1594 C1598 1.356 . S
C1594 O1645 1.325 . S
C1595 N1596 1.279 . S
C1595 C1598 1.358 . S
C1595 H1652 0.930 . S
N1596 C1595 1.279 . S
N1596 C1599 1.314 . S
C1597 C1594 1.348 . S
C1597 C1599 1.353 . S
C1597 H1653 0.929 . S
C1598 C1594 1.356 . S
C1598 C1595 1.358 . S
C1598 H1654 0.930 . S
C1599 N1596 1.314 . S
C1599 C1597 1.353 . S
C1599 H1655 0.930 . S
C1600 N1601 1.314 . S
C1600 C1605 1.353 . S
C1600 H1606 0.930 . S
N1601 Li1584 1.990 . S
N1601 C1600 1.314 . S
N1601 C1603 1.279 . S
C1602 C1603 1.358 . S
C1602 C1604 1.356 . S
C1602 H1656 0.930 . S
C1603 N1601 1.279 . S
C1603 C1602 1.358 . S
C1603 H1607 0.930 . S
C1604 C1602 1.356 . S
C1604 C1605 1.348 . S
C1605 C1600 1.353 . S
C1605 C1604 1.348 . S
C1605 H1657 0.929 . S
H1606 C1600 0.930 . S
H1607 C1603 0.930 . S
C1608 N1609 1.314 . S
C1608 C1610 1.353 . S
C1608 H1614 0.930 . S
N1609 Li1585 1.990 . S
N1609 C1608 1.314 . S
N1609 C1612 1.279 . S
C1610 C1608 1.353 . S
C1610 C1613 1.348 . S
C1610 H1658 0.929 . S
C1611 C1612 1.358 . S
C1611 C1613 1.356 . S
C1611 H1659 0.930 . S
C1612 N1609 1.279 . S
C1612 C1611 1.358 . S
C1612 H1615 0.930 . S
C1613 C1610 1.348 . S
C1613 C1611 1.356 . S
H1614 C1608 0.930 . S
H1615 C1612 0.930 . S
C1616 C1618 1.348 . S
C1616 C1619 1.356 . S
C1616 O1646 1.325 . S
N1617 C1620 1.314 . S
N1617 C1621 1.279 . S
C1618 C1616 1.348 . S
C1618 C1620 1.353 . S
C1618 H1660 0.929 . S
C1619 C1616 1.356 . S
C1619 C1621 1.358 . S
C1619 H1661 0.930 . S
C1620 N1617 1.314 . S
C1620 C1618 1.353 . S
C1620 H1662 0.930 . S
C1621 N1617 1.279 . S
C1621 C1619 1.358 . S
C1621 H1663 0.930 . S
C1622 C1623 1.348 . S
C1622 C1624 1.356 . S
C1622 O1647 1.325 . S
C1623 C1622 1.348 . S
C1623 C1625 1.353 . S
C1623 H1664 0.929 . S
C1624 C1622 1.356 . S
C1624 C1626 1.358 . S
C1624 H1665 0.930 . S
C1625 C1623 1.353 . S
C1625 N1627 1.314 . S
C1625 H1666 0.930 . S
C1626 C1624 1.358 . S
C1626 N1627 1.279 . S
C1626 H1667 0.930 . S
N1627 C1625 1.314 . S
N1627 C1626 1.279 . S
C1628 C1630 1.353 . S
C1628 N1631 1.314 . S
C1628 H1634 0.930 . S
C1629 N1631 1.279 . S
C1629 C1632 1.358 . S
C1629 H1635 0.930 . S
C1630 C1628 1.353 . S
C1630 C1633 1.348 . S
C1630 H1668 0.929 . S
N1631 Li1586 1.990 . S
N1631 C1628 1.314 . S
N1631 C1629 1.279 . S
C1632 C1629 1.358 . S
C1632 C1633 1.356 . S
C1632 H1669 0.930 . S
C1633 C1630 1.348 . S
C1633 C1632 1.356 . S
H1634 C1628 0.930 . S
H1635 C1629 0.930 . S
C1636 N1637 1.314 . S
C1636 C1638 1.353 . S
C1636 H1642 0.930 . S
N1637 Li1587 1.990 . S
N1637 C1636 1.314 . S
N1637 C1640 1.279 . S
C1638 C1636 1.353 . S
C1638 C1641 1.348 . S
C1638 H1670 0.929 . S
C1639 C1640 1.358 . S
C1639 C1641 1.356 . S
C1639 H1671 0.930 . S
C1640 N1637 1.279 . S
C1640 C1639 1.358 . S
C1640 H1643 0.930 . S
C1641 C1638 1.348 . S
C1641 C1639 1.356 . S
H1642 C1636 0.930 . S
H1643 C1640 0.930 . S
O1644 Li1584 1.956 . S
O1644 Li1585 1.970 . S
O1644 Li1586 1.961 . S
O1644 C1588 1.325 . S
O1645 Li1584 1.970 . S
O1645 Li1585 1.956 . S
O1645 Li1587 1.961 . S
O1645 C1594 1.325 . S
O1646 Li1584 1.961 . S
O1646 Li1586 1.956 . S
O1646 Li1587 1.970 . S
O1646 C1616 1.325 . S
O1647 Li1585 1.961 . S
O1647 Li1586 1.970 . S
O1647 Li1587 1.956 . S
O1647 C1622 1.325 . S
H1648 C1590 0.929 . S
H1649 C1591 0.930 . S
H1650 C1592 0.930 . S
H1651 C1593 0.930 . S
H1652 C1595 0.930 . S
H1653 C1597 0.929 . S
H1654 C1598 0.930 . S
H1655 C1599 0.930 . S
H1656 C1602 0.930 . S
H1657 C1605 0.929 . S
H1658 C1610 0.929 . S
H1659 C1611 0.930 . S
H1660 C1618 0.929 . S
H1661 C1619 0.930 . S
H1662 C1620 0.930 . S
H1663 C1621 0.930 . S
H1664 C1623 0.929 . S
H1665 C1624 0.930 . S
H1666 C1625 0.930 . S
H1667 C1626 0.930 . S
H1668 C1630 0.929 . S
H1669 C1632 0.930 . S
H1670 C1638 0.929 . S
H1671 C1639 0.930 . S
Li1672 N1689 1.990 . S
Li1672 O1732 1.956 . S
Li1672 O1733 1.970 . S
Li1672 O1734 1.961 . S
Li1673 N1697 1.990 . S
Li1673 O1732 1.970 . S
Li1673 O1733 1.956 . S
Li1673 O1735 1.961 . S
Li1674 N1719 1.990 . S
Li1674 O1732 1.961 . S
Li1674 O1734 1.956 . S
Li1674 O1735 1.970 . S
Li1675 N1725 1.990 . S
Li1675 O1733 1.961 . S
Li1675 O1734 1.970 . S
Li1675 O1735 1.956 . S
C1676 C1678 1.348 . S
C1676 C1679 1.356 . S
C1676 O1732 1.325 . S
N1677 C1680 1.314 . S
N1677 C1681 1.279 . S
C1678 C1676 1.348 . S
C1678 C1680 1.353 . S
C1678 H1736 0.929 . S
C1679 C1676 1.356 . S
C1679 C1681 1.358 . S
C1679 H1737 0.930 . S
C1680 N1677 1.314 . S
C1680 C1678 1.353 . S
C1680 H1738 0.930 . S
C1681 N1677 1.279 . S
C1681 C1679 1.358 . S
C1681 H1739 0.930 . S
C1682 C1685 1.348 . S
C1682 C1686 1.356 . S
C1682 O1733 1.325 . S
C1683 N1684 1.279 . S
C1683 C1686 1.358 . S
C1683 H1740 0.930 . S
N1684 C1683 1.279 . S
N1684 C1687 1.314 . S
C1685 C1682 1.348 . S
C1685 C1687 1.353 . S
C1685 H1741 0.929 . S
C1686 C1682 1.356 . S
C1686 C1683 1.358 . S
C1686 H1742 0.930 . S
C1687 N1684 1.314 . S
C1687 C1685 1.353 . S
C1687 H1743 0.930 . S
C1688 N1689 1.314 . S
C1688 C1693 1.353 . S
C1688 H1694 0.930 . S
N1689 Li1672 1.990 . S
N1689 C1688 1.314 . S
N1689 C1691 1.279 . S
C1690 C1691 1.358 . S
C1690 C1692 1.356 . S
C1690 H1744 0.930 . S
C1691 N1689 1.279 . S
C1691 C1690 1.358 . S
C1691 H1695 0.930 . S
C1692 C1690 1.356 . S
C1692 C1693 1.348 . S
C1693 C1688 1.353 . S
C1693 C1692 1.348 . S
C1693 H1745 0.929 . S
H1694 C1688 0.930 . S
H1695 C1691 0.930 . S
C1696 N1697 1.314 . S
C1696 C1698 1.353 . S
C1696 H1702 0.930 . S
N1697 Li1673 1.990 . S
N1697 C1696 1.314 . S
N1697 C1700 1.279 . S
C1698 C1696 1.353 . S
C1698 C1701 1.348 . S
C1698 H1746 0.929 . S
C1699 C1700 1.358 . S
C1699 C1701 1.356 . S
C1699 H1747 0.930 . S
C1700 N1697 1.279 . S
C1700 C1699 1.358 . S
C1700 H1703 0.930 . S
C1701 C1698 1.348 . S
C1701 C1699 1.356 . S
H1702 C1696 0.930 . S
H1703 C1700 0.930 . S
C1704 C1706 1.348 . S
C1704 C1707 1.356 . S
C1704 O1734 1.325 . S
N1705 C1708 1.314 . S
N1705 C1709 1.279 . S
C1706 C1704 1.348 . S
C1706 C1708 1.353 . S
C1706 H1748 0.929 . S
C1707 C1704 1.356 . S
C1707 C1709 1.358 . S
C1707 H1749 0.930 . S
C1708 N1705 1.314 . S
C1708 C1706 1.353 . S
C1708 H1750 0.930 . S
C1709 N1705 1.279 . S
C1709 C1707 1.358 . S
C1709 H1751 0.930 . S
C1710 C1711 1.348 . S
C1710 C1712 1.356 . S
C1710 O1735 1.325 . S
C1711 C1710 1.348 . S
C1711 C1713 1.353 . S
C1711 H1752 0.929 . S
C1712 C1710 1.356 . S
C1712 C1714 1.358 . S
C1712 H1753 0.930 . S
C1713 C1711 1.353 . S
C1713 N1715 1.314 . S
C1713 H1754 0.930 . S
C1714 C1712 1.358 . S
C1714 N1715 1.279 . S
C1714 H1755 0.930 . S
N1715 C1713 1.314 . S
N1715 C1714 1.279 . S
C1716 C1718 1.353 . S
C1716 N1719 1.314 . S
C1716 H1722 0.930 . S
C1717 N1719 1.279 . S
C1717 C1720 1.358 . S
C1717 H1723 0.930 . S
C1718 C1716 1.353 . S
C1718 C1721 1.348 . S
C1718 H1756 0.929 . S
N1719 Li1674 1.990 . S
N1719 C1716 1.314 . S
N1719 C1717 1.279 . S
C1720 C1717 1.358 . S
C1720 C1721 1.356 . S
C1720 H1757 0.930 . S
C1721 C1718 1.348 . S
C1721 C1720 1.356 . S
H1722 C1716 0.930 . S
H1723 C1717 0.930 . S
C1724 N1725 1.314 . S
C1724 C1726 1.353 . S
C1724 H1730 0.930 . S
N1725 Li1675 1.990 . S
N1725 C1724 1.314 . S
N1725 C1728 1.279 . S
C1726 C1724 1.353 . S
C1726 C1729 1.348 . S
C1726 H1758 0.929 . S
C1727 C1728 1.358 . S
C1727 C1729 1.356 . S
C1727 H1759 0.930 . S
C1728 N1725 1.279 . S
C1728 C1727 1.358 . S
C1728 H1731 0.930 . S
C1729 C1726 1.348 . S
C1729 C1727 1.356 . S
H1730 C1724 0.930 . S
H1731 C1728 0.930 . S
O1732 Li1672 1.956 . S
O1732 Li1673 1.970 . S
O1732 Li1674 1.961 . S
O1732 C1676 1.325 . S
O1733 Li1672 1.970 . S
O1733 Li1673 1.956 . S
O1733 Li1675 1.961 . S
O1733 C1682 1.325 . S
O1734 Li1672 1.961 . S
O1734 Li1674 1.956 . S
O1734 Li1675 1.970 . S
O1734 C1704 1.325 . S
O1735 Li1673 1.961 . S
O1735 Li1674 1.970 . S
O1735 Li1675 1.956 . S
O1735 C1710 1.325 . S
H1736 C1678 0.929 . S
H1737 C1679 0.930 . S
H1738 C1680 0.930 . S
H1739 C1681 0.930 . S
H1740 C1683 0.930 . S
H1741 C1685 0.929 . S
H1742 C1686 0.930 . S
H1743 C1687 0.930 . S
H1744 C1690 0.930 . S
H1745 C1693 0.929 . S
H1746 C1698 0.929 . S
H1747 C1699 0.930 . S
H1748 C1706 0.929 . S
H1749 C1707 0.930 . S
H1750 C1708 0.930 . S
H1751 C1709 0.930 . S
H1752 C1711 0.929 . S
H1753 C1712 0.930 . S
H1754 C1713 0.930 . S
H1755 C1714 0.930 . S
H1756 C1718 0.929 . S
H1757 C1720 0.930 . S
H1758 C1726 0.929 . S
H1759 C1727 0.930 . S
Li1760 N1777 1.990 . S
Li1760 O1820 1.956 . S
Li1760 O1821 1.970 . S
Li1760 O1822 1.961 . S
Li1761 N1785 1.990 . S
Li1761 O1820 1.970 . S
Li1761 O1821 1.956 . S
Li1761 O1823 1.961 . S
Li1762 N1807 1.990 . S
Li1762 O1820 1.961 . S
Li1762 O1822 1.956 . S
Li1762 O1823 1.970 . S
Li1763 N1813 1.990 . S
Li1763 O1821 1.961 . S
Li1763 O1822 1.970 . S
Li1763 O1823 1.956 . S
C1764 C1766 1.348 . S
C1764 C1767 1.356 . S
C1764 O1820 1.325 . S
N1765 C1768 1.314 . S
N1765 C1769 1.279 . S
C1766 C1764 1.348 . S
C1766 C1768 1.353 . S
C1766 H1824 0.929 . S
C1767 C1764 1.356 . S
C1767 C1769 1.358 . S
C1767 H1825 0.930 . S
C1768 N1765 1.314 . S
C1768 C1766 1.353 . S
C1768 H1826 0.930 . S
C1769 N1765 1.279 . S
C1769 C1767 1.358 . S
C1769 H1827 0.930 . S
C1770 C1773 1.348 . S
C1770 C1774 1.356 . S
C1770 O1821 1.325 . S
C1771 N1772 1.279 . S
C1771 C1774 1.358 . S
C1771 H1828 0.930 . S
N1772 C1771 1.279 . S
N1772 C1775 1.314 . S
C1773 C1770 1.348 . S
C1773 C1775 1.353 . S
C1773 H1829 0.929 . S
C1774 C1770 1.356 . S
C1774 C1771 1.358 . S
C1774 H1830 0.930 . S
C1775 N1772 1.314 . S
C1775 C1773 1.353 . S
C1775 H1831 0.930 . S
C1776 N1777 1.314 . S
C1776 C1781 1.353 . S
C1776 H1782 0.930 . S
N1777 Li1760 1.990 . S
N1777 C1776 1.314 . S
N1777 C1779 1.279 . S
C1778 C1779 1.358 . S
C1778 C1780 1.356 . S
C1778 H1832 0.930 . S
C1779 N1777 1.279 . S
C1779 C1778 1.358 . S
C1779 H1783 0.930 . S
C1780 C1778 1.356 . S
C1780 C1781 1.348 . S
C1781 C1776 1.353 . S
C1781 C1780 1.348 . S
C1781 H1833 0.929 . S
H1782 C1776 0.930 . S
H1783 C1779 0.930 . S
C1784 N1785 1.314 . S
C1784 C1786 1.353 . S
C1784 H1790 0.930 . S
N1785 Li1761 1.990 . S
N1785 C1784 1.314 . S
N1785 C1788 1.279 . S
C1786 C1784 1.353 . S
C1786 C1789 1.348 . S
C1786 H1834 0.929 . S
C1787 C1788 1.358 . S
C1787 C1789 1.356 . S
C1787 H1835 0.930 . S
C1788 N1785 1.279 . S
C1788 C1787 1.358 . S
C1788 H1791 0.930 . S
C1789 C1786 1.348 . S
C1789 C1787 1.356 . S
H1790 C1784 0.930 . S
H1791 C1788 0.930 . S
C1792 C1794 1.348 . S
C1792 C1795 1.356 . S
C1792 O1822 1.325 . S
N1793 C1796 1.314 . S
N1793 C1797 1.279 . S
C1794 C1792 1.348 . S
C1794 C1796 1.353 . S
C1794 H1836 0.929 . S
C1795 C1792 1.356 . S
C1795 C1797 1.358 . S
C1795 H1837 0.930 . S
C1796 N1793 1.314 . S
C1796 C1794 1.353 . S
C1796 H1838 0.930 . S
C1797 N1793 1.279 . S
C1797 C1795 1.358 . S
C1797 H1839 0.930 . S
C1798 C1799 1.348 . S
C1798 C1800 1.356 . S
C1798 O1823 1.325 . S
C1799 C1798 1.348 . S
C1799 C1801 1.353 . S
C1799 H1840 0.929 . S
C1800 C1798 1.356 . S
C1800 C1802 1.358 . S
C1800 H1841 0.930 . S
C1801 C1799 1.353 . S
C1801 N1803 1.314 . S
C1801 H1842 0.930 . S
C1802 C1800 1.358 . S
C1802 N1803 1.279 . S
C1802 H1843 0.930 . S
N1803 C1801 1.314 . S
N1803 C1802 1.279 . S
C1804 C1806 1.353 . S
C1804 N1807 1.314 . S
C1804 H1810 0.930 . S
C1805 N1807 1.279 . S
C1805 C1808 1.358 . S
C1805 H1811 0.930 . S
C1806 C1804 1.353 . S
C1806 C1809 1.348 . S
C1806 H1844 0.929 . S
N1807 Li1762 1.990 . S
N1807 C1804 1.314 . S
N1807 C1805 1.279 . S
C1808 C1805 1.358 . S
C1808 C1809 1.356 . S
C1808 H1845 0.930 . S
C1809 C1806 1.348 . S
C1809 C1808 1.356 . S
H1810 C1804 0.930 . S
H1811 C1805 0.930 . S
C1812 N1813 1.314 . S
C1812 C1814 1.353 . S
C1812 H1818 0.930 . S
N1813 Li1763 1.990 . S
N1813 C1812 1.314 . S
N1813 C1816 1.279 . S
C1814 C1812 1.353 . S
C1814 C1817 1.348 . S
C1814 H1846 0.929 . S
C1815 C1816 1.358 . S
C1815 C1817 1.356 . S
C1815 H1847 0.930 . S
C1816 N1813 1.279 . S
C1816 C1815 1.358 . S
C1816 H1819 0.930 . S
C1817 C1814 1.348 . S
C1817 C1815 1.356 . S
H1818 C1812 0.930 . S
H1819 C1816 0.930 . S
O1820 Li1760 1.956 . S
O1820 Li1761 1.970 . S
O1820 Li1762 1.961 . S
O1820 C1764 1.325 . S
O1821 Li1760 1.970 . S
O1821 Li1761 1.956 . S
O1821 Li1763 1.961 . S
O1821 C1770 1.325 . S
O1822 Li1760 1.961 . S
O1822 Li1762 1.956 . S
O1822 Li1763 1.970 . S
O1822 C1792 1.325 . S
O1823 Li1761 1.961 . S
O1823 Li1762 1.970 . S
O1823 Li1763 1.956 . S
O1823 C1798 1.325 . S
H1824 C1766 0.929 . S
H1825 C1767 0.930 . S
H1826 C1768 0.930 . S
H1827 C1769 0.930 . S
H1828 C1771 0.930 . S
H1829 C1773 0.929 . S
H1830 C1774 0.930 . S
H1831 C1775 0.930 . S
H1832 C1778 0.930 . S
H1833 C1781 0.929 . S
H1834 C1786 0.929 . S
H1835 C1787 0.930 . S
H1836 C1794 0.929 . S
H1837 C1795 0.930 . S
H1838 C1796 0.930 . S
H1839 C1797 0.930 . S
H1840 C1799 0.929 . S
H1841 C1800 0.930 . S
H1842 C1801 0.930 . S
H1843 C1802 0.930 . S
H1844 C1806 0.929 . S
H1845 C1808 0.930 . S
H1846 C1814 0.929 . S
H1847 C1815 0.930 . S
Li1848 N1865 1.990 . S
Li1848 O1908 1.956 . S
Li1848 O1909 1.970 . S
Li1848 O1910 1.961 . S
Li1849 N1873 1.990 . S
Li1849 O1908 1.970 . S
Li1849 O1909 1.956 . S
Li1849 O1911 1.961 . S
Li1850 N1895 1.990 . S
Li1850 O1908 1.961 . S
Li1850 O1910 1.956 . S
Li1850 O1911 1.970 . S
Li1851 N1901 1.990 . S
Li1851 O1909 1.961 . S
Li1851 O1910 1.970 . S
Li1851 O1911 1.956 . S
C1852 C1854 1.348 . S
C1852 C1855 1.356 . S
C1852 O1908 1.325 . S
N1853 C1856 1.314 . S
N1853 C1857 1.279 . S
C1854 C1852 1.348 . S
C1854 C1856 1.353 . S
C1854 H1912 0.929 . S
C1855 C1852 1.356 . S
C1855 C1857 1.358 . S
C1855 H1913 0.930 . S
C1856 N1853 1.314 . S
C1856 C1854 1.353 . S
C1856 H1914 0.930 . S
C1857 N1853 1.279 . S
C1857 C1855 1.358 . S
C1857 H1915 0.930 . S
C1858 C1861 1.348 . S
C1858 C1862 1.356 . S
C1858 O1909 1.325 . S
C1859 N1860 1.279 . S
C1859 C1862 1.358 . S
C1859 H1916 0.930 . S
N1860 C1859 1.279 . S
N1860 C1863 1.314 . S
C1861 C1858 1.348 . S
C1861 C1863 1.353 . S
C1861 H1917 0.929 . S
C1862 C1858 1.356 . S
C1862 C1859 1.358 . S
C1862 H1918 0.930 . S
C1863 N1860 1.314 . S
C1863 C1861 1.353 . S
C1863 H1919 0.930 . S
C1864 N1865 1.314 . S
C1864 C1869 1.353 . S
C1864 H1870 0.930 . S
N1865 Li1848 1.990 . S
N1865 C1864 1.314 . S
N1865 C1867 1.279 . S
C1866 C1867 1.358 . S
C1866 C1868 1.356 . S
C1866 H1920 0.930 . S
C1867 N1865 1.279 . S
C1867 C1866 1.358 . S
C1867 H1871 0.930 . S
C1868 C1866 1.356 . S
C1868 C1869 1.348 . S
C1869 C1864 1.353 . S
C1869 C1868 1.348 . S
C1869 H1921 0.929 . S
H1870 C1864 0.930 . S
H1871 C1867 0.930 . S
C1872 N1873 1.314 . S
C1872 C1874 1.353 . S
C1872 H1878 0.930 . S
N1873 Li1849 1.990 . S
N1873 C1872 1.314 . S
N1873 C1876 1.279 . S
C1874 C1872 1.353 . S
C1874 C1877 1.348 . S
C1874 H1922 0.929 . S
C1875 C1876 1.358 . S
C1875 C1877 1.356 . S
C1875 H1923 0.930 . S
C1876 N1873 1.279 . S
C1876 C1875 1.358 . S
C1876 H1879 0.930 . S
C1877 C1874 1.348 . S
C1877 C1875 1.356 . S
H1878 C1872 0.930 . S
H1879 C1876 0.930 . S
C1880 C1882 1.348 . S
C1880 C1883 1.356 . S
C1880 O1910 1.325 . S
N1881 C1884 1.314 . S
N1881 C1885 1.279 . S
C1882 C1880 1.348 . S
C1882 C1884 1.353 . S
C1882 H1924 0.929 . S
C1883 C1880 1.356 . S
C1883 C1885 1.358 . S
C1883 H1925 0.930 . S
C1884 N1881 1.314 . S
C1884 C1882 1.353 . S
C1884 H1926 0.930 . S
C1885 N1881 1.279 . S
C1885 C1883 1.358 . S
C1885 H1927 0.930 . S
C1886 C1887 1.348 . S
C1886 C1888 1.356 . S
C1886 O1911 1.325 . S
C1887 C1886 1.348 . S
C1887 C1889 1.353 . S
C1887 H1928 0.929 . S
C1888 C1886 1.356 . S
C1888 C1890 1.358 . S
C1888 H1929 0.930 . S
C1889 C1887 1.353 . S
C1889 N1891 1.314 . S
C1889 H1930 0.930 . S
C1890 C1888 1.358 . S
C1890 N1891 1.279 . S
C1890 H1931 0.930 . S
N1891 C1889 1.314 . S
N1891 C1890 1.279 . S
C1892 C1894 1.353 . S
C1892 N1895 1.314 . S
C1892 H1898 0.930 . S
C1893 N1895 1.279 . S
C1893 C1896 1.358 . S
C1893 H1899 0.930 . S
C1894 C1892 1.353 . S
C1894 C1897 1.348 . S
C1894 H1932 0.929 . S
N1895 Li1850 1.990 . S
N1895 C1892 1.314 . S
N1895 C1893 1.279 . S
C1896 C1893 1.358 . S
C1896 C1897 1.356 . S
C1896 H1933 0.930 . S
C1897 C1894 1.348 . S
C1897 C1896 1.356 . S
H1898 C1892 0.930 . S
H1899 C1893 0.930 . S
C1900 N1901 1.314 . S
C1900 C1902 1.353 . S
C1900 H1906 0.930 . S
N1901 Li1851 1.990 . S
N1901 C1900 1.314 . S
N1901 C1904 1.279 . S
C1902 C1900 1.353 . S
C1902 C1905 1.348 . S
C1902 H1934 0.929 . S
C1903 C1904 1.358 . S
C1903 C1905 1.356 . S
C1903 H1935 0.930 . S
C1904 N1901 1.279 . S
C1904 C1903 1.358 . S
C1904 H1907 0.930 . S
C1905 C1902 1.348 . S
C1905 C1903 1.356 . S
H1906 C1900 0.930 . S
H1907 C1904 0.930 . S
O1908 Li1848 1.956 . S
O1908 Li1849 1.970 . S
O1908 Li1850 1.961 . S
O1908 C1852 1.325 . S
O1909 Li1848 1.970 . S
O1909 Li1849 1.956 . S
O1909 Li1851 1.961 . S
O1909 C1858 1.325 . S
O1910 Li1848 1.961 . S
O1910 Li1850 1.956 . S
O1910 Li1851 1.970 . S
O1910 C1880 1.325 . S
O1911 Li1849 1.961 . S
O1911 Li1850 1.970 . S
O1911 Li1851 1.956 . S
O1911 C1886 1.325 . S
H1912 C1854 0.929 . S
H1913 C1855 0.930 . S
H1914 C1856 0.930 . S
H1915 C1857 0.930 . S
H1916 C1859 0.930 . S
H1917 C1861 0.929 . S
H1918 C1862 0.930 . S
H1919 C1863 0.930 . S
H1920 C1866 0.930 . S
H1921 C1869 0.929 . S
H1922 C1874 0.929 . S
H1923 C1875 0.930 . S
H1924 C1882 0.929 . S
H1925 C1883 0.930 . S
H1926 C1884 0.930 . S
H1927 C1885 0.930 . S
H1928 C1887 0.929 . S
H1929 C1888 0.930 . S
H1930 C1889 0.930 . S
H1931 C1890 0.930 . S
H1932 C1894 0.929 . S
H1933 C1896 0.930 . S
H1934 C1902 0.929 . S
H1935 C1903 0.930 . S
Li1936 N1953 1.990 . S
Li1936 O1996 1.956 . S
Li1936 O1997 1.970 . S
Li1936 O1998 1.961 . S
Li1937 N1961 1.990 . S
Li1937 O1996 1.970 . S
Li1937 O1997 1.956 . S
Li1937 O1999 1.961 . S
Li1938 N1983 1.990 . S
Li1938 O1996 1.961 . S
Li1938 O1998 1.956 . S
Li1938 O1999 1.970 . S
Li1939 N1989 1.990 . S
Li1939 O1997 1.961 . S
Li1939 O1998 1.970 . S
Li1939 O1999 1.956 . S
C1940 C1942 1.348 . S
C1940 C1943 1.356 . S
C1940 O1996 1.325 . S
N1941 C1944 1.314 . S
N1941 C1945 1.279 . S
C1942 C1940 1.348 . S
C1942 C1944 1.353 . S
C1942 H2000 0.929 . S
C1943 C1940 1.356 . S
C1943 C1945 1.358 . S
C1943 H2001 0.930 . S
C1944 N1941 1.314 . S
C1944 C1942 1.353 . S
C1944 H2002 0.930 . S
C1945 N1941 1.279 . S
C1945 C1943 1.358 . S
C1945 H2003 0.930 . S
C1946 C1949 1.348 . S
C1946 C1950 1.356 . S
C1946 O1997 1.325 . S
C1947 N1948 1.279 . S
C1947 C1950 1.358 . S
C1947 H2004 0.930 . S
N1948 C1947 1.279 . S
N1948 C1951 1.314 . S
C1949 C1946 1.348 . S
C1949 C1951 1.353 . S
C1949 H2005 0.929 . S
C1950 C1946 1.356 . S
C1950 C1947 1.358 . S
C1950 H2006 0.930 . S
C1951 N1948 1.314 . S
C1951 C1949 1.353 . S
C1951 H2007 0.930 . S
C1952 N1953 1.314 . S
C1952 C1957 1.353 . S
C1952 H1958 0.930 . S
N1953 Li1936 1.990 . S
N1953 C1952 1.314 . S
N1953 C1955 1.279 . S
C1954 C1955 1.358 . S
C1954 C1956 1.356 . S
C1954 H2008 0.930 . S
C1955 N1953 1.279 . S
C1955 C1954 1.358 . S
C1955 H1959 0.930 . S
C1956 C1954 1.356 . S
C1956 C1957 1.348 . S
C1957 C1952 1.353 . S
C1957 C1956 1.348 . S
C1957 H2009 0.929 . S
H1958 C1952 0.930 . S
H1959 C1955 0.930 . S
C1960 N1961 1.314 . S
C1960 C1962 1.353 . S
C1960 H1966 0.930 . S
N1961 Li1937 1.990 . S
N1961 C1960 1.314 . S
N1961 C1964 1.279 . S
C1962 C1960 1.353 . S
C1962 C1965 1.348 . S
C1962 H2010 0.929 . S
C1963 C1964 1.358 . S
C1963 C1965 1.356 . S
C1963 H2011 0.930 . S
C1964 N1961 1.279 . S
C1964 C1963 1.358 . S
C1964 H1967 0.930 . S
C1965 C1962 1.348 . S
C1965 C1963 1.356 . S
H1966 C1960 0.930 . S
H1967 C1964 0.930 . S
C1968 C1970 1.348 . S
C1968 C1971 1.356 . S
C1968 O1998 1.325 . S
N1969 C1972 1.314 . S
N1969 C1973 1.279 . S
C1970 C1968 1.348 . S
C1970 C1972 1.353 . S
C1970 H2012 0.929 . S
C1971 C1968 1.356 . S
C1971 C1973 1.358 . S
C1971 H2013 0.930 . S
C1972 N1969 1.314 . S
C1972 C1970 1.353 . S
C1972 H2014 0.930 . S
C1973 N1969 1.279 . S
C1973 C1971 1.358 . S
C1973 H2015 0.930 . S
C1974 C1975 1.348 . S
C1974 C1976 1.356 . S
C1974 O1999 1.325 . S
C1975 C1974 1.348 . S
C1975 C1977 1.353 . S
C1975 H2016 0.929 . S
C1976 C1974 1.356 . S
C1976 C1978 1.358 . S
C1976 H2017 0.930 . S
C1977 C1975 1.353 . S
C1977 N1979 1.314 . S
C1977 H2018 0.930 . S
C1978 C1976 1.358 . S
C1978 N1979 1.279 . S
C1978 H2019 0.930 . S
N1979 C1977 1.314 . S
N1979 C1978 1.279 . S
C1980 C1982 1.353 . S
C1980 N1983 1.314 . S
C1980 H1986 0.930 . S
C1981 N1983 1.279 . S
C1981 C1984 1.358 . S
C1981 H1987 0.930 . S
C1982 C1980 1.353 . S
C1982 C1985 1.348 . S
C1982 H2020 0.929 . S
N1983 Li1938 1.990 . S
N1983 C1980 1.314 . S
N1983 C1981 1.279 . S
C1984 C1981 1.358 . S
C1984 C1985 1.356 . S
C1984 H2021 0.930 . S
C1985 C1982 1.348 . S
C1985 C1984 1.356 . S
H1986 C1980 0.930 . S
H1987 C1981 0.930 . S
C1988 N1989 1.314 . S
C1988 C1990 1.353 . S
C1988 H1994 0.930 . S
N1989 Li1939 1.990 . S
N1989 C1988 1.314 . S
N1989 C1992 1.279 . S
C1990 C1988 1.353 . S
C1990 C1993 1.348 . S
C1990 H2022 0.929 . S
C1991 C1992 1.358 . S
C1991 C1993 1.356 . S
C1991 H2023 0.930 . S
C1992 N1989 1.279 . S
C1992 C1991 1.358 . S
C1992 H1995 0.930 . S
C1993 C1990 1.348 . S
C1993 C1991 1.356 . S
H1994 C1988 0.930 . S
H1995 C1992 0.930 . S
O1996 Li1936 1.956 . S
O1996 Li1937 1.970 . S
O1996 Li1938 1.961 . S
O1996 C1940 1.325 . S
O1997 Li1936 1.970 . S
O1997 Li1937 1.956 . S
O1997 Li1939 1.961 . S
O1997 C1946 1.325 . S
O1998 Li1936 1.961 . S
O1998 Li1938 1.956 . S
O1998 Li1939 1.970 . S
O1998 C1968 1.325 . S
O1999 Li1937 1.961 . S
O1999 Li1938 1.970 . S
O1999 Li1939 1.956 . S
O1999 C1974 1.325 . S
H2000 C1942 0.929 . S
H2001 C1943 0.930 . S
H2002 C1944 0.930 . S
H2003 C1945 0.930 . S
H2004 C1947 0.930 . S
H2005 C1949 0.929 . S
H2006 C1950 0.930 . S
H2007 C1951 0.930 . S
H2008 C1954 0.930 . S
H2009 C1957 0.929 . S
H2010 C1962 0.929 . S
H2011 C1963 0.930 . S
H2012 C1970 0.929 . S
H2013 C1971 0.930 . S
H2014 C1972 0.930 . S
H2015 C1973 0.930 . S
H2016 C1975 0.929 . S
H2017 C1976 0.930 . S
H2018 C1977 0.930 . S
H2019 C1978 0.930 . S
H2020 C1982 0.929 . S
H2021 C1984 0.930 . S
H2022 C1990 0.929 . S
H2023 C1991 0.930 . S
Li2024 N2041 1.990 . S
Li2024 O2084 1.956 . S
Li2024 O2085 1.970 . S
Li2024 O2086 1.961 . S
Li2025 N2049 1.990 . S
Li2025 O2084 1.970 . S
Li2025 O2085 1.956 . S
Li2025 O2087 1.961 . S
Li2026 N2071 1.990 . S
Li2026 O2084 1.961 . S
Li2026 O2086 1.956 . S
Li2026 O2087 1.970 . S
Li2027 N2077 1.990 . S
Li2027 O2085 1.961 . S
Li2027 O2086 1.970 . S
Li2027 O2087 1.956 . S
C2028 C2030 1.348 . S
C2028 C2031 1.356 . S
C2028 O2084 1.325 . S
N2029 C2032 1.314 . S
N2029 C2033 1.279 . S
C2030 C2028 1.348 . S
C2030 C2032 1.353 . S
C2030 H2088 0.929 . S
C2031 C2028 1.356 . S
C2031 C2033 1.358 . S
C2031 H2089 0.930 . S
C2032 N2029 1.314 . S
C2032 C2030 1.353 . S
C2032 H2090 0.930 . S
C2033 N2029 1.279 . S
C2033 C2031 1.358 . S
C2033 H2091 0.930 . S
C2034 C2037 1.348 . S
C2034 C2038 1.356 . S
C2034 O2085 1.325 . S
C2035 N2036 1.279 . S
C2035 C2038 1.358 . S
C2035 H2092 0.930 . S
N2036 C2035 1.279 . S
N2036 C2039 1.314 . S
C2037 C2034 1.348 . S
C2037 C2039 1.353 . S
C2037 H2093 0.929 . S
C2038 C2034 1.356 . S
C2038 C2035 1.358 . S
C2038 H2094 0.930 . S
C2039 N2036 1.314 . S
C2039 C2037 1.353 . S
C2039 H2095 0.930 . S
C2040 N2041 1.314 . S
C2040 C2045 1.353 . S
C2040 H2046 0.930 . S
N2041 Li2024 1.990 . S
N2041 C2040 1.314 . S
N2041 C2043 1.279 . S
C2042 C2043 1.358 . S
C2042 C2044 1.356 . S
C2042 H2096 0.930 . S
C2043 N2041 1.279 . S
C2043 C2042 1.358 . S
C2043 H2047 0.930 . S
C2044 C2042 1.356 . S
C2044 C2045 1.348 . S
C2045 C2040 1.353 . S
C2045 C2044 1.348 . S
C2045 H2097 0.929 . S
H2046 C2040 0.930 . S
H2047 C2043 0.930 . S
C2048 N2049 1.314 . S
C2048 C2050 1.353 . S
C2048 H2054 0.930 . S
N2049 Li2025 1.990 . S
N2049 C2048 1.314 . S
N2049 C2052 1.279 . S
C2050 C2048 1.353 . S
C2050 C2053 1.348 . S
C2050 H2098 0.929 . S
C2051 C2052 1.358 . S
C2051 C2053 1.356 . S
C2051 H2099 0.930 . S
C2052 N2049 1.279 . S
C2052 C2051 1.358 . S
C2052 H2055 0.930 . S
C2053 C2050 1.348 . S
C2053 C2051 1.356 . S
H2054 C2048 0.930 . S
H2055 C2052 0.930 . S
C2056 C2058 1.348 . S
C2056 C2059 1.356 . S
C2056 O2086 1.325 . S
N2057 C2060 1.314 . S
N2057 C2061 1.279 . S
C2058 C2056 1.348 . S
C2058 C2060 1.353 . S
C2058 H2100 0.929 . S
C2059 C2056 1.356 . S
C2059 C2061 1.358 . S
C2059 H2101 0.930 . S
C2060 N2057 1.314 . S
C2060 C2058 1.353 . S
C2060 H2102 0.930 . S
C2061 N2057 1.279 . S
C2061 C2059 1.358 . S
C2061 H2103 0.930 . S
C2062 C2063 1.348 . S
C2062 C2064 1.356 . S
C2062 O2087 1.325 . S
C2063 C2062 1.348 . S
C2063 C2065 1.353 . S
C2063 H2104 0.929 . S
C2064 C2062 1.356 . S
C2064 C2066 1.358 . S
C2064 H2105 0.930 . S
C2065 C2063 1.353 . S
C2065 N2067 1.314 . S
C2065 H2106 0.930 . S
C2066 C2064 1.358 . S
C2066 N2067 1.279 . S
C2066 H2107 0.930 . S
N2067 C2065 1.314 . S
N2067 C2066 1.279 . S
C2068 C2070 1.353 . S
C2068 N2071 1.314 . S
C2068 H2074 0.930 . S
C2069 N2071 1.279 . S
C2069 C2072 1.358 . S
C2069 H2075 0.930 . S
C2070 C2068 1.353 . S
C2070 C2073 1.348 . S
C2070 H2108 0.929 . S
N2071 Li2026 1.990 . S
N2071 C2068 1.314 . S
N2071 C2069 1.279 . S
C2072 C2069 1.358 . S
C2072 C2073 1.356 . S
C2072 H2109 0.930 . S
C2073 C2070 1.348 . S
C2073 C2072 1.356 . S
H2074 C2068 0.930 . S
H2075 C2069 0.930 . S
C2076 N2077 1.314 . S
C2076 C2078 1.353 . S
C2076 H2082 0.930 . S
N2077 Li2027 1.990 . S
N2077 C2076 1.314 . S
N2077 C2080 1.279 . S
C2078 C2076 1.353 . S
C2078 C2081 1.348 . S
C2078 H2110 0.929 . S
C2079 C2080 1.358 . S
C2079 C2081 1.356 . S
C2079 H2111 0.930 . S
C2080 N2077 1.279 . S
C2080 C2079 1.358 . S
C2080 H2083 0.930 . S
C2081 C2078 1.348 . S
C2081 C2079 1.356 . S
H2082 C2076 0.930 . S
H2083 C2080 0.930 . S
O2084 Li2024 1.956 . S
O2084 Li2025 1.970 . S
O2084 Li2026 1.961 . S
O2084 C2028 1.325 . S
O2085 Li2024 1.970 . S
O2085 Li2025 1.956 . S
O2085 Li2027 1.961 . S
O2085 C2034 1.325 . S
O2086 Li2024 1.961 . S
O2086 Li2026 1.956 . S
O2086 Li2027 1.970 . S
O2086 C2056 1.325 . S
O2087 Li2025 1.961 . S
O2087 Li2026 1.970 . S
O2087 Li2027 1.956 . S
O2087 C2062 1.325 . S
H2088 C2030 0.929 . S
H2089 C2031 0.930 . S
H2090 C2032 0.930 . S
H2091 C2033 0.930 . S
H2092 C2035 0.930 . S
H2093 C2037 0.929 . S
H2094 C2038 0.930 . S
H2095 C2039 0.930 . S
H2096 C2042 0.930 . S
H2097 C2045 0.929 . S
H2098 C2050 0.929 . S
H2099 C2051 0.930 . S
H2100 C2058 0.929 . S
H2101 C2059 0.930 . S
H2102 C2060 0.930 . S
H2103 C2061 0.930 . S
H2104 C2063 0.929 . S
H2105 C2064 0.930 . S
H2106 C2065 0.930 . S
H2107 C2066 0.930 . S
H2108 C2070 0.929 . S
H2109 C2072 0.930 . S
H2110 C2078 0.929 . S
H2111 C2079 0.930 . S
C2112 C2113 1.387 . S
C2112 H2116 0.950 . S
C2112 C2121 1.390 . S
C2113 C2112 1.387 . S
C2113 C2115 1.387 . S
H2114 C2121 0.950 . S
C2115 C2113 1.387 . S
C2115 C2117 1.390 . S
C2115 H2119 0.950 . S
H2116 C2112 0.950 . S
C2117 C2115 1.390 . S
C2117 C2118 1.387 . S
C2117 H2120 0.950 . S
C2118 C2117 1.387 . S
C2118 C2121 1.387 . S
H2119 C2115 0.950 . S
H2120 C2117 0.950 . S
C2121 C2112 1.390 . S
C2121 H2114 0.950 . S
C2121 C2118 1.387 . S
C2122 C2123 1.387 . S
C2122 H2126 0.950 . S
C2122 C2131 1.390 . S
C2123 C2122 1.387 . S
C2123 C2125 1.387 . S
H2124 C2131 0.950 . S
C2125 C2123 1.387 . S
C2125 C2127 1.390 . S
C2125 H2129 0.950 . S
H2126 C2122 0.950 . S
C2127 C2125 1.390 . S
C2127 C2128 1.387 . S
C2127 H2130 0.950 . S
C2128 C2127 1.387 . S
C2128 C2131 1.387 . S
H2129 C2125 0.950 . S
H2130 C2127 0.950 . S
C2131 C2122 1.390 . S
C2131 H2124 0.950 . S
C2131 C2128 1.387 . S
C2132 C2133 1.387 . S
C2132 H2136 0.950 . S
C2132 C2141 1.390 . S
C2133 C2132 1.387 . S
C2133 C2135 1.387 . S
H2134 C2141 0.950 . S
C2135 C2133 1.387 . S
C2135 C2137 1.390 . S
C2135 H2139 0.950 . S
H2136 C2132 0.950 . S
C2137 C2135 1.390 . S
C2137 C2138 1.387 . S
C2137 H2140 0.950 . S
C2138 C2137 1.387 . S
C2138 C2141 1.387 . S
H2139 C2135 0.950 . S
H2140 C2137 0.950 . S
C2141 C2132 1.390 . S
C2141 H2134 0.950 . S
C2141 C2138 1.387 . S
C2142 C2143 1.387 . S
C2142 H2146 0.950 . S
C2142 C2151 1.390 . S
C2143 C2142 1.387 . S
C2143 C2145 1.387 . S
H2144 C2151 0.950 . S
C2145 C2143 1.387 . S
C2145 C2147 1.390 . S
C2145 H2149 0.950 . S
H2146 C2142 0.950 . S
C2147 C2145 1.390 . S
C2147 C2148 1.387 . S
C2147 H2150 0.950 . S
C2148 C2147 1.387 . S
C2148 C2151 1.387 . S
H2149 C2145 0.950 . S
H2150 C2147 0.950 . S
C2151 C2142 1.390 . S
C2151 H2144 0.950 . S
C2151 C2148 1.387 . S
C2152 C2153 1.387 . S
C2152 H2156 0.950 . S
C2152 C2161 1.390 . S
C2153 C2152 1.387 . S
C2153 C2155 1.387 . S
H2154 C2161 0.950 . S
C2155 C2153 1.387 . S
C2155 C2157 1.390 . S
C2155 H2159 0.950 . S
H2156 C2152 0.950 . S
C2157 C2155 1.390 . S
C2157 C2158 1.387 . S
C2157 H2160 0.950 . S
C2158 C2157 1.387 . S
C2158 C2161 1.387 . S
H2159 C2155 0.950 . S
H2160 C2157 0.950 . S
C2161 C2152 1.390 . S
C2161 H2154 0.950 . S
C2161 C2158 1.387 . S
C2162 C2163 1.387 . S
C2162 H2166 0.950 . S
C2162 C2171 1.390 . S
C2163 C2162 1.387 . S
C2163 C2165 1.387 . S
H2164 C2171 0.950 . S
C2165 C2163 1.387 . S
C2165 C2167 1.390 . S
C2165 H2169 0.950 . S
H2166 C2162 0.950 . S
C2167 C2165 1.390 . S
C2167 C2168 1.387 . S
C2167 H2170 0.950 . S
C2168 C2167 1.387 . S
C2168 C2171 1.387 . S
H2169 C2165 0.950 . S
H2170 C2167 0.950 . S
C2171 C2162 1.390 . S
C2171 H2164 0.950 . S
C2171 C2168 1.387 . S
C2172 C2173 1.387 . S
C2172 H2176 0.950 . S
C2172 C2181 1.390 . S
C2173 C2172 1.387 . S
C2173 C2175 1.387 . S
H2174 C2181 0.950 . S
C2175 C2173 1.387 . S
C2175 C2177 1.390 . S
C2175 H2179 0.950 . S
H2176 C2172 0.950 . S
C2177 C2175 1.390 . S
C2177 C2178 1.387 . S
C2177 H2180 0.950 . S
C2178 C2177 1.387 . S
C2178 C2181 1.387 . S
H2179 C2175 0.950 . S
H2180 C2177 0.950 . S
C2181 C2172 1.390 . S
C2181 H2174 0.950 . S
C2181 C2178 1.387 . S
C2182 C2183 1.387 . S
C2182 H2186 0.950 . S
C2182 C2191 1.390 . S
C2183 C2182 1.387 . S
C2183 C2185 1.387 . S
H2184 C2191 0.950 . S
C2185 C2183 1.387 . S
C2185 C2187 1.390 . S
C2185 H2189 0.950 . S
H2186 C2182 0.950 . S
C2187 C2185 1.390 . S
C2187 C2188 1.387 . S
C2187 H2190 0.950 . S
C2188 C2187 1.387 . S
C2188 C2191 1.387 . S
H2189 C2185 0.950 . S
H2190 C2187 0.950 . S
C2191 C2182 1.390 . S
C2191 H2184 0.950 . S
C2191 C2188 1.387 . S
C2192 C2193 1.387 . S
C2192 H2196 0.950 . S
C2192 C2201 1.390 . S
C2193 C2192 1.387 . S
C2193 C2195 1.387 . S
H2194 C2201 0.950 . S
C2195 C2193 1.387 . S
C2195 C2197 1.390 . S
C2195 H2199 0.950 . S
H2196 C2192 0.950 . S
C2197 C2195 1.390 . S
C2197 C2198 1.387 . S
C2197 H2200 0.950 . S
C2198 C2197 1.387 . S
C2198 C2201 1.387 . S
H2199 C2195 0.950 . S
H2200 C2197 0.950 . S
C2201 C2192 1.390 . S
C2201 H2194 0.950 . S
C2201 C2198 1.387 . S
C2202 C2203 1.387 . S
C2202 H2206 0.950 . S
C2202 C2211 1.390 . S
C2203 C2202 1.387 . S
C2203 C2205 1.387 . S
H2204 C2211 0.950 . S
C2205 C2203 1.387 . S
C2205 C2207 1.390 . S
C2205 H2209 0.950 . S
H2206 C2202 0.950 . S
C2207 C2205 1.390 . S
C2207 C2208 1.387 . S
C2207 H2210 0.950 . S
C2208 C2207 1.387 . S
C2208 C2211 1.387 . S
H2209 C2205 0.950 . S
H2210 C2207 0.950 . S
C2211 C2202 1.390 . S
C2211 H2204 0.950 . S
C2211 C2208 1.387 . S
C2212 C2213 1.387 . S
C2212 H2216 0.950 . S
C2212 C2221 1.390 . S
C2213 C2212 1.387 . S
C2213 C2215 1.387 . S
H2214 C2221 0.950 . S
C2215 C2213 1.387 . S
C2215 C2217 1.390 . S
C2215 H2219 0.950 . S
H2216 C2212 0.950 . S
C2217 C2215 1.390 . S
C2217 C2218 1.387 . S
C2217 H2220 0.950 . S
C2218 C2217 1.387 . S
C2218 C2221 1.387 . S
H2219 C2215 0.950 . S
H2220 C2217 0.950 . S
C2221 C2212 1.390 . S
C2221 H2214 0.950 . S
C2221 C2218 1.387 . S
C2222 C2223 1.387 . S
C2222 H2226 0.950 . S
C2222 C2231 1.390 . S
C2223 C2222 1.387 . S
C2223 C2225 1.387 . S
H2224 C2231 0.950 . S
C2225 C2223 1.387 . S
C2225 C2227 1.390 . S
C2225 H2229 0.950 . S
H2226 C2222 0.950 . S
C2227 C2225 1.390 . S
C2227 C2228 1.387 . S
C2227 H2230 0.950 . S
C2228 C2227 1.387 . S
C2228 C2231 1.387 . S
H2229 C2225 0.950 . S
H2230 C2227 0.950 . S
C2231 C2222 1.390 . S
C2231 H2224 0.950 . S
C2231 C2228 1.387 . S
C2232 C2233 1.387 . S
C2232 H2236 0.950 . S
C2232 C2241 1.390 . S
C2233 C2232 1.387 . S
C2233 C2235 1.387 . S
H2234 C2241 0.950 . S
C2235 C2233 1.387 . S
C2235 C2237 1.390 . S
C2235 H2239 0.950 . S
H2236 C2232 0.950 . S
C2237 C2235 1.390 . S
C2237 C2238 1.387 . S
C2237 H2240 0.950 . S
C2238 C2237 1.387 . S
C2238 C2241 1.387 . S
H2239 C2235 0.950 . S
H2240 C2237 0.950 . S
C2241 C2232 1.390 . S
C2241 H2234 0.950 . S
C2241 C2238 1.387 . S
C2242 C2243 1.387 . S
C2242 H2246 0.950 . S
C2242 C2251 1.390 . S
C2243 C2242 1.387 . S
C2243 C2245 1.387 . S
H2244 C2251 0.950 . S
C2245 C2243 1.387 . S
C2245 C2247 1.390 . S
C2245 H2249 0.950 . S
H2246 C2242 0.950 . S
C2247 C2245 1.390 . S
C2247 C2248 1.387 . S
C2247 H2250 0.950 . S
C2248 C2247 1.387 . S
C2248 C2251 1.387 . S
H2249 C2245 0.950 . S
H2250 C2247 0.950 . S
C2251 C2242 1.390 . S
C2251 H2244 0.950 . S
C2251 C2248 1.387 . S
C2252 C2253 1.387 . S
C2252 H2256 0.950 . S
C2252 C2261 1.390 . S
C2253 C2252 1.387 . S
C2253 C2255 1.387 . S
H2254 C2261 0.950 . S
C2255 C2253 1.387 . S
C2255 C2257 1.390 . S
C2255 H2259 0.950 . S
H2256 C2252 0.950 . S
C2257 C2255 1.390 . S
C2257 C2258 1.387 . S
C2257 H2260 0.950 . S
C2258 C2257 1.387 . S
C2258 C2261 1.387 . S
H2259 C2255 0.950 . S
H2260 C2257 0.950 . S
C2261 C2252 1.390 . S
C2261 H2254 0.950 . S
C2261 C2258 1.387 . S
C2262 C2263 1.387 . S
C2262 H2266 0.950 . S
C2262 C2271 1.390 . S
C2263 C2262 1.387 . S
C2263 C2265 1.387 . S
H2264 C2271 0.950 . S
C2265 C2263 1.387 . S
C2265 C2267 1.390 . S
C2265 H2269 0.950 . S
H2266 C2262 0.950 . S
C2267 C2265 1.390 . S
C2267 C2268 1.387 . S
C2267 H2270 0.950 . S
C2268 C2267 1.387 . S
C2268 C2271 1.387 . S
H2269 C2265 0.950 . S
H2270 C2267 0.950 . S
C2271 C2262 1.390 . S
C2271 H2264 0.950 . S
C2271 C2268 1.387 . S
C2272 C2273 1.387 . S
C2272 H2276 0.950 . S
C2272 C2281 1.390 . S
C2273 C2272 1.387 . S
C2273 C2275 1.387 . S
H2274 C2281 0.950 . S
C2275 C2273 1.387 . S
C2275 C2277 1.390 . S
C2275 H2279 0.950 . S
H2276 C2272 0.950 . S
C2277 C2275 1.390 . S
C2277 C2278 1.387 . S
C2277 H2280 0.950 . S
C2278 C2277 1.387 . S
C2278 C2281 1.387 . S
H2279 C2275 0.950 . S
H2280 C2277 0.950 . S
C2281 C2272 1.390 . S
C2281 H2274 0.950 . S
C2281 C2278 1.387 . S
C2282 C2283 1.387 . S
C2282 H2286 0.950 . S
C2282 C2291 1.390 . S
C2283 C2282 1.387 . S
C2283 C2285 1.387 . S
H2284 C2291 0.950 . S
C2285 C2283 1.387 . S
C2285 C2287 1.390 . S
C2285 H2289 0.950 . S
H2286 C2282 0.950 . S
C2287 C2285 1.390 . S
C2287 C2288 1.387 . S
C2287 H2290 0.950 . S
C2288 C2287 1.387 . S
C2288 C2291 1.387 . S
H2289 C2285 0.950 . S
H2290 C2287 0.950 . S
C2291 C2282 1.390 . S
C2291 H2284 0.950 . S
C2291 C2288 1.387 . S
C2292 C2293 1.387 . S
C2292 H2296 0.950 . S
C2292 C2301 1.390 . S
C2293 C2292 1.387 . S
C2293 C2295 1.387 . S
H2294 C2301 0.950 . S
C2295 C2293 1.387 . S
C2295 C2297 1.390 . S
C2295 H2299 0.950 . S
H2296 C2292 0.950 . S
C2297 C2295 1.390 . S
C2297 C2298 1.387 . S
C2297 H2300 0.950 . S
C2298 C2297 1.387 . S
C2298 C2301 1.387 . S
H2299 C2295 0.950 . S
H2300 C2297 0.950 . S
C2301 C2292 1.390 . S
C2301 H2294 0.950 . S
C2301 C2298 1.387 . S
C2302 C2303 1.387 . S
C2302 H2306 0.950 . S
C2302 C2311 1.390 . S
C2303 C2302 1.387 . S
C2303 C2305 1.387 . S
H2304 C2311 0.950 . S
C2305 C2303 1.387 . S
C2305 C2307 1.390 . S
C2305 H2309 0.950 . S
H2306 C2302 0.950 . S
C2307 C2305 1.390 . S
C2307 C2308 1.387 . S
C2307 H2310 0.950 . S
C2308 C2307 1.387 . S
C2308 C2311 1.387 . S
H2309 C2305 0.950 . S
H2310 C2307 0.950 . S
C2311 C2302 1.390 . S
C2311 H2304 0.950 . S
C2311 C2308 1.387 . S
C2312 C2313 1.387 . S
C2312 H2316 0.950 . S
C2312 C2321 1.390 . S
C2313 C2312 1.387 . S
C2313 C2315 1.387 . S
H2314 C2321 0.950 . S
C2315 C2313 1.387 . S
C2315 C2317 1.390 . S
C2315 H2319 0.950 . S
H2316 C2312 0.950 . S
C2317 C2315 1.390 . S
C2317 C2318 1.387 . S
C2317 H2320 0.950 . S
C2318 C2317 1.387 . S
C2318 C2321 1.387 . S
H2319 C2315 0.950 . S
H2320 C2317 0.950 . S
C2321 C2312 1.390 . S
C2321 H2314 0.950 . S
C2321 C2318 1.387 . S
C2322 C2323 1.387 . S
C2322 H2326 0.950 . S
C2322 C2331 1.390 . S
C2323 C2322 1.387 . S
C2323 C2325 1.387 . S
H2324 C2331 0.950 . S
C2325 C2323 1.387 . S
C2325 C2327 1.390 . S
C2325 H2329 0.950 . S
H2326 C2322 0.950 . S
C2327 C2325 1.390 . S
C2327 C2328 1.387 . S
C2327 H2330 0.950 . S
C2328 C2327 1.387 . S
C2328 C2331 1.387 . S
H2329 C2325 0.950 . S
H2330 C2327 0.950 . S
C2331 C2322 1.390 . S
C2331 H2324 0.950 . S
C2331 C2328 1.387 . S
C2332 C2333 1.387 . S
C2332 H2336 0.950 . S
C2332 C2341 1.390 . S
C2333 C2332 1.387 . S
C2333 C2335 1.387 . S
H2334 C2341 0.950 . S
C2335 C2333 1.387 . S
C2335 C2337 1.390 . S
C2335 H2339 0.950 . S
H2336 C2332 0.950 . S
C2337 C2335 1.390 . S
C2337 C2338 1.387 . S
C2337 H2340 0.950 . S
C2338 C2337 1.387 . S
C2338 C2341 1.387 . S
H2339 C2335 0.950 . S
H2340 C2337 0.950 . S
C2341 C2332 1.390 . S
C2341 H2334 0.950 . S
C2341 C2338 1.387 . S
C2342 C2343 1.387 . S
C2342 H2346 0.950 . S
C2342 C2351 1.390 . S
C2343 C2342 1.387 . S
C2343 C2345 1.387 . S
H2344 C2351 0.950 . S
C2345 C2343 1.387 . S
C2345 C2347 1.390 . S
C2345 H2349 0.950 . S
H2346 C2342 0.950 . S
C2347 C2345 1.390 . S
C2347 C2348 1.387 . S
C2347 H2350 0.950 . S
C2348 C2347 1.387 . S
C2348 C2351 1.387 . S
H2349 C2345 0.950 . S
H2350 C2347 0.950 . S
C2351 C2342 1.390 . S
C2351 H2344 0.950 . S
C2351 C2348 1.387 . S
C2352 C2353 1.387 . S
C2352 H2356 0.950 . S
C2352 C2361 1.390 1_455 S
C2353 C2352 1.387 . S
C2353 C2355 1.387 . S
H2354 C2361 0.950 . S
C2355 C2353 1.387 . S
C2355 C2357 1.390 1_455 S
C2355 H2359 0.950 . S
H2356 C2352 0.950 . S
C2357 C2355 1.390 1_655 S
C2357 C2358 1.387 . S
C2357 H2360 0.950 . S
C2358 C2357 1.387 . S
C2358 C2361 1.387 . S
H2359 C2355 0.950 . S
H2360 C2357 0.950 . S
C2361 C2352 1.390 1_655 S
C2361 H2354 0.950 . S
C2361 C2358 1.387 . S
C2362 C2363 1.387 . S
C2362 H2366 0.950 . S
C2362 C2371 1.390 1_545 S
C2363 C2362 1.387 . S
C2363 C2365 1.387 . S
H2364 C2371 0.950 . S
C2365 C2363 1.387 . S
C2365 C2367 1.390 1_545 S
C2365 H2369 0.950 . S
H2366 C2362 0.950 . S
C2367 C2365 1.390 1_565 S
C2367 C2368 1.387 . S
C2367 H2370 0.950 . S
C2368 C2367 1.387 . S
C2368 C2371 1.387 . S
H2369 C2365 0.950 . S
H2370 C2367 0.950 . S
C2371 C2362 1.390 1_565 S
C2371 H2364 0.950 . S
C2371 C2368 1.387 . S
C2372 C2373 1.387 . S
C2372 H2376 0.950 . S
C2372 C2381 1.390 1_655 S
C2373 C2372 1.387 . S
C2373 C2375 1.387 . S
H2374 C2381 0.950 . S
C2375 C2373 1.387 . S
C2375 C2377 1.390 1_655 S
C2375 H2379 0.950 . S
H2376 C2372 0.950 . S
C2377 C2375 1.390 1_455 S
C2377 C2378 1.387 . S
C2377 H2380 0.950 . S
C2378 C2377 1.387 . S
C2378 C2381 1.387 . S
H2379 C2375 0.950 . S
H2380 C2377 0.950 . S
C2381 C2372 1.390 1_455 S
C2381 H2374 0.950 . S
C2381 C2378 1.387 . S
C2382 C2383 1.387 . S
C2382 H2386 0.950 . S
C2382 C2391 1.390 1_545 S
C2383 C2382 1.387 . S
C2383 C2385 1.387 . S
H2384 C2391 0.950 . S
C2385 C2383 1.387 . S
C2385 C2387 1.390 1_545 S
C2385 H2389 0.950 . S
H2386 C2382 0.950 . S
C2387 C2385 1.390 1_565 S
C2387 C2388 1.387 . S
C2387 H2390 0.950 . S
C2388 C2387 1.387 . S
C2388 C2391 1.387 . S
H2389 C2385 0.950 . S
H2390 C2387 0.950 . S
C2391 C2382 1.390 1_565 S
C2391 H2384 0.950 . S
C2391 C2388 1.387 . S
C2392 C2393 1.387 . S
C2392 H2396 0.950 . S
C2392 C2401 1.390 1_565 S
C2393 C2392 1.387 . S
C2393 C2395 1.387 . S
H2394 C2401 0.950 . S
C2395 C2393 1.387 . S
C2395 C2397 1.390 1_565 S
C2395 H2399 0.950 . S
H2396 C2392 0.950 . S
C2397 C2395 1.390 1_545 S
C2397 C2398 1.387 . S
C2397 H2400 0.950 . S
C2398 C2397 1.387 . S
C2398 C2401 1.387 . S
H2399 C2395 0.950 . S
H2400 C2397 0.950 . S
C2401 C2392 1.390 1_545 S
C2401 H2394 0.950 . S
C2401 C2398 1.387 . S
C2402 C2403 1.387 . S
C2402 H2406 0.950 . S
C2402 C2411 1.390 1_655 S
C2403 C2402 1.387 . S
C2403 C2405 1.387 . S
H2404 C2411 0.950 . S
C2405 C2403 1.387 . S
C2405 C2407 1.390 1_655 S
C2405 H2409 0.950 . S
H2406 C2402 0.950 . S
C2407 C2405 1.390 1_455 S
C2407 C2408 1.387 . S
C2407 H2410 0.950 . S
C2408 C2407 1.387 . S
C2408 C2411 1.387 . S
H2409 C2405 0.950 . S
H2410 C2407 0.950 . S
C2411 C2402 1.390 1_455 S
C2411 H2404 0.950 . S
C2411 C2408 1.387 . S
C2412 C2413 1.387 . S
C2412 H2416 0.950 . S
C2412 C2421 1.390 1_565 S
C2413 C2412 1.387 . S
C2413 C2415 1.387 . S
H2414 C2421 0.950 . S
C2415 C2413 1.387 . S
C2415 C2417 1.390 1_565 S
C2415 H2419 0.950 . S
H2416 C2412 0.950 . S
C2417 C2415 1.390 1_545 S
C2417 C2418 1.387 . S
C2417 H2420 0.950 . S
C2418 C2417 1.387 . S
C2418 C2421 1.387 . S
H2419 C2415 0.950 . S
H2420 C2417 0.950 . S
C2421 C2412 1.390 1_545 S
C2421 H2414 0.950 . S
C2421 C2418 1.387 . S
C2422 C2423 1.387 . S
C2422 H2426 0.950 . S
C2422 C2431 1.390 1_655 S
C2423 C2422 1.387 . S
C2423 C2425 1.387 . S
H2424 C2431 0.950 . S
C2425 C2423 1.387 . S
C2425 C2427 1.390 1_655 S
C2425 H2429 0.950 . S
H2426 C2422 0.950 . S
C2427 C2425 1.390 1_455 S
C2427 C2428 1.387 . S
C2427 H2430 0.950 . S
C2428 C2427 1.387 . S
C2428 C2431 1.387 . S
H2429 C2425 0.950 . S
H2430 C2427 0.950 . S
C2431 C2422 1.390 1_455 S
C2431 H2424 0.950 . S
C2431 C2428 1.387 . S
C2432 C2433 1.387 . S
C2432 H2436 0.950 . S
C2432 C2441 1.390 1_556 S
C2433 C2432 1.387 . S
C2433 C2435 1.387 . S
H2434 C2441 0.950 . S
C2435 C2433 1.387 . S
C2435 C2437 1.390 1_556 S
C2435 H2439 0.950 . S
H2436 C2432 0.950 . S
C2437 C2435 1.390 1_554 S
C2437 C2438 1.387 . S
C2437 H2440 0.950 . S
C2438 C2437 1.387 . S
C2438 C2441 1.387 . S
H2439 C2435 0.950 . S
H2440 C2437 0.950 . S
C2441 C2432 1.390 1_554 S
C2441 H2434 0.950 . S
C2441 C2438 1.387 . S
C2442 C2443 1.387 . S
C2442 H2446 0.950 . S
C2442 C2451 1.390 1_556 S
C2443 C2442 1.387 . S
C2443 C2445 1.387 . S
H2444 C2451 0.950 . S
C2445 C2443 1.387 . S
C2445 C2447 1.390 1_556 S
C2445 H2449 0.950 . S
H2446 C2442 0.950 . S
C2447 C2445 1.390 1_554 S
C2447 C2448 1.387 . S
C2447 H2450 0.950 . S
C2448 C2447 1.387 . S
C2448 C2451 1.387 . S
H2449 C2445 0.950 . S
H2450 C2447 0.950 . S
C2451 C2442 1.390 1_554 S
C2451 H2444 0.950 . S
C2451 C2448 1.387 . S
C2452 C2453 1.387 . S
C2452 H2456 0.950 . S
C2452 C2461 1.390 1_556 S
C2453 C2452 1.387 . S
C2453 C2455 1.387 . S
H2454 C2461 0.950 . S
C2455 C2453 1.387 . S
C2455 C2457 1.390 1_556 S
C2455 H2459 0.950 . S
H2456 C2452 0.950 . S
C2457 C2455 1.390 1_554 S
C2457 C2458 1.387 . S
C2457 H2460 0.950 . S
C2458 C2457 1.387 . S
C2458 C2461 1.387 . S
H2459 C2455 0.950 . S
H2460 C2457 0.950 . S
C2461 C2452 1.390 1_554 S
C2461 H2454 0.950 . S
C2461 C2458 1.387 . S
C2462 C2463 1.387 . S
C2462 H2466 0.950 . S
C2462 C2471 1.390 1_556 S
C2463 C2462 1.387 . S
C2463 C2465 1.387 . S
H2464 C2471 0.950 . S
C2465 C2463 1.387 . S
C2465 C2467 1.390 1_556 S
C2465 H2469 0.950 . S
H2466 C2462 0.950 . S
C2467 C2465 1.390 1_554 S
C2467 C2468 1.387 . S
C2467 H2470 0.950 . S
C2468 C2467 1.387 . S
C2468 C2471 1.387 . S
H2469 C2465 0.950 . S
H2470 C2467 0.950 . S
C2471 C2462 1.390 1_554 S
C2471 H2464 0.950 . S
C2471 C2468 1.387 . S
C2472 C2473 1.387 . S
C2472 H2476 0.950 . S
C2472 C2481 1.390 . S
C2473 C2472 1.387 . S
C2473 C2475 1.387 . S
H2474 C2481 0.950 . S
C2475 C2473 1.387 . S
C2475 C2477 1.390 . S
C2475 H2479 0.950 . S
H2476 C2472 0.950 . S
C2477 C2475 1.390 . S
C2477 C2478 1.387 . S
C2477 H2480 0.950 . S
C2478 C2477 1.387 . S
C2478 C2481 1.387 . S
H2479 C2475 0.950 . S
H2480 C2477 0.950 . S
C2481 C2472 1.390 . S
C2481 H2474 0.950 . S
C2481 C2478 1.387 . S
C2482 C2483 1.387 . S
C2482 H2486 0.950 . S
C2482 C2491 1.390 . S
C2483 C2482 1.387 . S
C2483 C2485 1.387 . S
H2484 C2491 0.950 . S
C2485 C2483 1.387 . S
C2485 C2487 1.390 . S
C2485 H2489 0.950 . S
H2486 C2482 0.950 . S
C2487 C2485 1.390 . S
C2487 C2488 1.387 . S
C2487 H2490 0.950 . S
C2488 C2487 1.387 . S
C2488 C2491 1.387 . S
H2489 C2485 0.950 . S
H2490 C2487 0.950 . S
C2491 C2482 1.390 . S
C2491 H2484 0.950 . S
C2491 C2488 1.387 . S
C2492 C2493 1.387 . S
C2492 H2496 0.950 . S
C2492 C2501 1.390 . S
C2493 C2492 1.387 . S
C2493 C2495 1.387 . S
H2494 C2501 0.950 . S
C2495 C2493 1.387 . S
C2495 C2497 1.390 . S
C2495 H2499 0.950 . S
H2496 C2492 0.950 . S
C2497 C2495 1.390 . S
C2497 C2498 1.387 . S
C2497 H2500 0.950 . S
C2498 C2497 1.387 . S
C2498 C2501 1.387 . S
H2499 C2495 0.950 . S
H2500 C2497 0.950 . S
C2501 C2492 1.390 . S
C2501 H2494 0.950 . S
C2501 C2498 1.387 . S
C2502 C2503 1.387 . S
C2502 H2506 0.950 . S
C2502 C2511 1.390 . S
C2503 C2502 1.387 . S
C2503 C2505 1.387 . S
H2504 C2511 0.950 . S
C2505 C2503 1.387 . S
C2505 C2507 1.390 . S
C2505 H2509 0.950 . S
H2506 C2502 0.950 . S
C2507 C2505 1.390 . S
C2507 C2508 1.387 . S
C2507 H2510 0.950 . S
C2508 C2507 1.387 . S
C2508 C2511 1.387 . S
H2509 C2505 0.950 . S
H2510 C2507 0.950 . S
C2511 C2502 1.390 . S
C2511 H2504 0.950 . S
C2511 C2508 1.387 . S
C2512 C2513 1.387 . S
C2512 H2516 0.950 . S
C2512 C2521 1.390 . S
C2513 C2512 1.387 . S
C2513 C2515 1.387 . S
H2514 C2521 0.950 . S
C2515 C2513 1.387 . S
C2515 C2517 1.390 . S
C2515 H2519 0.950 . S
H2516 C2512 0.950 . S
C2517 C2515 1.390 . S
C2517 C2518 1.387 . S
C2517 H2520 0.950 . S
C2518 C2517 1.387 . S
C2518 C2521 1.387 . S
H2519 C2515 0.950 . S
H2520 C2517 0.950 . S
C2521 C2512 1.390 . S
C2521 H2514 0.950 . S
C2521 C2518 1.387 . S
C2522 C2523 1.387 . S
C2522 H2526 0.950 . S
C2522 C2531 1.390 . S
C2523 C2522 1.387 . S
C2523 C2525 1.387 . S
H2524 C2531 0.950 . S
C2525 C2523 1.387 . S
C2525 C2527 1.390 . S
C2525 H2529 0.950 . S
H2526 C2522 0.950 . S
C2527 C2525 1.390 . S
C2527 C2528 1.387 . S
C2527 H2530 0.950 . S
C2528 C2527 1.387 . S
C2528 C2531 1.387 . S
H2529 C2525 0.950 . S
H2530 C2527 0.950 . S
C2531 C2522 1.390 . S
C2531 H2524 0.950 . S
C2531 C2528 1.387 . S
C2532 C2533 1.387 . S
C2532 H2536 0.950 . S
C2532 C2541 1.390 . S
C2533 C2532 1.387 . S
C2533 C2535 1.387 . S
H2534 C2541 0.950 . S
C2535 C2533 1.387 . S
C2535 C2537 1.390 . S
C2535 H2539 0.950 . S
H2536 C2532 0.950 . S
C2537 C2535 1.390 . S
C2537 C2538 1.387 . S
C2537 H2540 0.950 . S
C2538 C2537 1.387 . S
C2538 C2541 1.387 . S
H2539 C2535 0.950 . S
H2540 C2537 0.950 . S
C2541 C2532 1.390 . S
C2541 H2534 0.950 . S
C2541 C2538 1.387 . S
C2542 C2543 1.387 . S
C2542 H2546 0.950 . S
C2542 C2551 1.390 . S
C2543 C2542 1.387 . S
C2543 C2545 1.387 . S
H2544 C2551 0.950 . S
C2545 C2543 1.387 . S
C2545 C2547 1.390 . S
C2545 H2549 0.950 . S
H2546 C2542 0.950 . S
C2547 C2545 1.390 . S
C2547 C2548 1.387 . S
C2547 H2550 0.950 . S
C2548 C2547 1.387 . S
C2548 C2551 1.387 . S
H2549 C2545 0.950 . S
H2550 C2547 0.950 . S
C2551 C2542 1.390 . S
C2551 H2544 0.950 . S
C2551 C2548 1.387 . S
C2552 C2553 1.387 . S
C2552 H2556 0.950 . S
C2552 C2561 1.390 . S
C2553 C2552 1.387 . S
C2553 C2555 1.387 . S
H2554 C2561 0.950 . S
C2555 C2553 1.387 . S
C2555 C2557 1.390 . S
C2555 H2559 0.950 . S
H2556 C2552 0.950 . S
C2557 C2555 1.390 . S
C2557 C2558 1.387 . S
C2557 H2560 0.950 . S
C2558 C2557 1.387 . S
C2558 C2561 1.387 . S
H2559 C2555 0.950 . S
H2560 C2557 0.950 . S
C2561 C2552 1.390 . S
C2561 H2554 0.950 . S
C2561 C2558 1.387 . S
C2562 C2563 1.387 . S
C2562 H2566 0.950 . S
C2562 C2571 1.390 . S
C2563 C2562 1.387 . S
C2563 C2565 1.387 . S
H2564 C2571 0.950 . S
C2565 C2563 1.387 . S
C2565 C2567 1.390 . S
C2565 H2569 0.950 . S
H2566 C2562 0.950 . S
C2567 C2565 1.390 . S
C2567 C2568 1.387 . S
C2567 H2570 0.950 . S
C2568 C2567 1.387 . S
C2568 C2571 1.387 . S
H2569 C2565 0.950 . S
H2570 C2567 0.950 . S
C2571 C2562 1.390 . S
C2571 H2564 0.950 . S
C2571 C2568 1.387 . S
C2572 C2573 1.387 . S
C2572 H2576 0.950 . S
C2572 C2581 1.390 . S
C2573 C2572 1.387 . S
C2573 C2575 1.387 . S
H2574 C2581 0.950 . S
C2575 C2573 1.387 . S
C2575 C2577 1.390 . S
C2575 H2579 0.950 . S
H2576 C2572 0.950 . S
C2577 C2575 1.390 . S
C2577 C2578 1.387 . S
C2577 H2580 0.950 . S
C2578 C2577 1.387 . S
C2578 C2581 1.387 . S
H2579 C2575 0.950 . S
H2580 C2577 0.950 . S
C2581 C2572 1.390 . S
C2581 H2574 0.950 . S
C2581 C2578 1.387 . S
C2582 C2583 1.387 . S
C2582 H2586 0.950 . S
C2582 C2591 1.390 . S
C2583 C2582 1.387 . S
C2583 C2585 1.387 . S
H2584 C2591 0.950 . S
C2585 C2583 1.387 . S
C2585 C2587 1.390 . S
C2585 H2589 0.950 . S
H2586 C2582 0.950 . S
C2587 C2585 1.390 . S
C2587 C2588 1.387 . S
C2587 H2590 0.950 . S
C2588 C2587 1.387 . S
C2588 C2591 1.387 . S
H2589 C2585 0.950 . S
H2590 C2587 0.950 . S
C2591 C2582 1.390 . S
C2591 H2584 0.950 . S
C2591 C2588 1.387 . S
C2113 C1017 1.577 . S
C2118 C49 1.573 . S
C2123 C145 1.573 . S
C2128 C733 1.577 . S
C2133 C233 1.575 . S
C2138 C812 1.576 . S
C2143 C313 1.573 . S
C2148 C929 1.577 . S
C2153 C1164 1.576 . S
C2158 C381 1.575 . S
C2163 C460 1.573 . S
C2168 C1261 1.577 . S
C2173 C1369 1.577 . S
C2178 C557 1.573 . S
C2183 C1105 1.576 . S
C2188 C645 1.575 . S
C2193 C489 1.576 . S
C2198 C761 1.575 . S
C2203 C585 1.577 . S
C2208 C841 1.573 . S
C2213 C900 1.575 . S
C2218 C673 1.576 . S
C2223 C409 1.577 . S
C2228 C988 1.573 . S
C2233 C284 1.577 . S
C2238 C1076 1.573 . S
C2243 C1193 1.575 . S
C2248 C20 1.576 . S
C2253 C1289 1.573 . S
C2258 C117 1.577 . S
C2263 C1340 1.575 . S
C2268 C205 1.576 . S
C2273 C1457 1.575 . S
C2278 C2044 1.576 . S
C2283 C1817 1.576 . S
C2288 C1516 1.575 . S
C2293 C1604 1.573 . S
C2298 C1545 1.577 . S
C2303 C1701 1.573 . S
C2308 C1633 1.577 . S
C2313 C1729 1.577 . S
C2318 C1789 1.573 . S
C2323 C1905 1.573 . S
C2328 C1965 1.577 . S
C2333 C1428 1.576 . S
C2338 C1993 1.575 . S
C2343 C1877 1.577 . S
C2348 C2073 1.573 . S
C2353 C57 1.434 . S
C2358 C548 1.434 . S
C2363 C137 1.434 . S
C2368 C636 1.434 . S
C2373 C225 1.434 . S
C2378 C372 1.434 . S
C2383 C469 1.434 . S
C2388 C321 1.434 . S
C2393 C909 1.434 . S
C2398 C753 1.434 . S
C2403 C849 1.434 . S
C2408 C997 1.434 . S
C2413 C1085 1.434 . S
C2418 C1281 1.434 . S
C2423 C1349 1.434 . S
C2428 C1201 1.434 . S
C2433 C1525 1.434 . S
C2438 C1465 1.434 . S
C2443 C1613 1.434 . S
C2448 C2081 1.434 . S
C2453 C1692 1.435 . S
C2458 C1897 1.435 . S
C2463 C1780 1.435 . S
C2468 C1985 1.435 . S
C2473 C29 0.730 . S
C2478 C497 0.729 . S
C2483 C108 0.729 . S
C2488 C577 0.730 . S
C2493 C196 0.729 . S
C2498 C665 0.730 . S
C2503 C401 0.730 . S
C2508 C293 0.729 . S
C2513 C724 0.729 . S
C2518 C2053 0.730 . S
C2523 C821 0.730 . S
C2528 C1868 0.729 . S
C2533 C1956 0.730 . S
C2538 C937 0.729 . S
C2543 C1025 0.729 . S
C2548 C1437 0.730 . S
C2553 C1809 0.730 . S
C2558 C1113 0.729 . S
C2563 C1553 0.730 . S
C2568 C1173 0.729 . S
C2573 C1252 0.730 . S
C2578 C1641 0.729 . S
C2583 C1721 0.729 . S
C2588 C1377 0.730 . S
