# Generated by pormake.
# Topology uml, (4)-cn, num edge types: 1
# Building blocks:
#     Node 0, Type 0, BuildingBlock: GALJAG_clean_sbu_0, # of connection points: 4
#     Node 1, Type 0, BuildingBlock: GALJAG_clean_sbu_0, # of connection points: 4
#     Node 2, Type 0, BuildingBlock: GALJAG_clean_sbu_0, # of connection points: 4
#     Node 3, Type 0, BuildingBlock: GALJAG_clean_sbu_0, # of connection points: 4
#     Node 4, Type 0, BuildingBlock: GALJAG_clean_sbu_0, # of connection points: 4
#     Node 5, Type 0, BuildingBlock: GALJAG_clean_sbu_0, # of connection points: 4
#     Node 6, Type 0, BuildingBlock: GALJAG_clean_sbu_0, # of connection points: 4
#     Node 7, Type 0, BuildingBlock: GALJAG_clean_sbu_0, # of connection points: 4
#     Node 8, Type 0, BuildingBlock: GALJAG_clean_sbu_0, # of connection points: 4
#     Node 9, Type 0, BuildingBlock: GALJAG_clean_sbu_0, # of connection points: 4
#     Node 10, Type 0, BuildingBlock: GALJAG_clean_sbu_0, # of connection points: 4
#     Node 11, Type 0, BuildingBlock: GALJAG_clean_sbu_0, # of connection points: 4
#     Node 12, Type 0, BuildingBlock: GALJAG_clean_sbu_0, # of connection points: 4
#     Node 13, Type 0, BuildingBlock: GALJAG_clean_sbu_0, # of connection points: 4
#     Node 14, Type 0, BuildingBlock: GALJAG_clean_sbu_0, # of connection points: 4
#     Node 15, Type 0, BuildingBlock: GALJAG_clean_sbu_0, # of connection points: 4
#     Node 16, Type 0, BuildingBlock: GALJAG_clean_sbu_0, # of connection points: 4
#     Node 17, Type 0, BuildingBlock: GALJAG_clean_sbu_0, # of connection points: 4
#     Node 18, Type 0, BuildingBlock: GALJAG_clean_sbu_0, # of connection points: 4
#     Node 19, Type 0, BuildingBlock: GALJAG_clean_sbu_0, # of connection points: 4
#     Node 20, Type 0, BuildingBlock: GALJAG_clean_sbu_0, # of connection points: 4
#     Node 21, Type 0, BuildingBlock: GALJAG_clean_sbu_0, # of connection points: 4
#     Node 22, Type 0, BuildingBlock: GALJAG_clean_sbu_0, # of connection points: 4
#     Node 23, Type 0, BuildingBlock: GALJAG_clean_sbu_0, # of connection points: 4
#     Node 24, Type 0, BuildingBlock: GALJAG_clean_sbu_0, # of connection points: 4
#     Node 25, Type 0, BuildingBlock: GALJAG_clean_sbu_0, # of connection points: 4
#     Node 26, Type 0, BuildingBlock: GALJAG_clean_sbu_0, # of connection points: 4
#     Node 27, Type 0, BuildingBlock: GALJAG_clean_sbu_0, # of connection points: 4
#     Node 28, Type 0, BuildingBlock: GALJAG_clean_sbu_0, # of connection points: 4
#     Node 29, Type 0, BuildingBlock: GALJAG_clean_sbu_0, # of connection points: 4
#     Node 30, Type 0, BuildingBlock: GALJAG_clean_sbu_0, # of connection points: 4
#     Node 31, Type 0, BuildingBlock: GALJAG_clean_sbu_0, # of connection points: 4
#     Node 32, Type 0, BuildingBlock: GALJAG_clean_sbu_0, # of connection points: 4
#     Node 33, Type 0, BuildingBlock: GALJAG_clean_sbu_0, # of connection points: 4
#     Node 34, Type 0, BuildingBlock: GALJAG_clean_sbu_0, # of connection points: 4
#     Node 35, Type 0, BuildingBlock: GALJAG_clean_sbu_0, # of connection points: 4
#     Edge 36, Type (0, 0), BuildingBlock: XIVTED_clean_linker_0, # of connection points: 2
#     Edge 37, Type (0, 0), BuildingBlock: XIVTED_clean_linker_0, # of connection points: 2
#     Edge 38, Type (0, 0), BuildingBlock: XIVTED_clean_linker_0, # of connection points: 2
#     Edge 39, Type (0, 0), BuildingBlock: XIVTED_clean_linker_0, # of connection points: 2
#     Edge 40, Type (0, 0), BuildingBlock: XIVTED_clean_linker_0, # of connection points: 2
#     Edge 41, Type (0, 0), BuildingBlock: XIVTED_clean_linker_0, # of connection points: 2
#     Edge 42, Type (0, 0), BuildingBlock: XIVTED_clean_linker_0, # of connection points: 2
#     Edge 43, Type (0, 0), BuildingBlock: XIVTED_clean_linker_0, # of connection points: 2
#     Edge 44, Type (0, 0), BuildingBlock: XIVTED_clean_linker_0, # of connection points: 2
#     Edge 45, Type (0, 0), BuildingBlock: XIVTED_clean_linker_0, # of connection points: 2
#     Edge 46, Type (0, 0), BuildingBlock: XIVTED_clean_linker_0, # of connection points: 2
#     Edge 47, Type (0, 0), BuildingBlock: XIVTED_clean_linker_0, # of connection points: 2
#     Edge 48, Type (0, 0), BuildingBlock: XIVTED_clean_linker_0, # of connection points: 2
#     Edge 49, Type (0, 0), BuildingBlock: XIVTED_clean_linker_0, # of connection points: 2
#     Edge 50, Type (0, 0), BuildingBlock: XIVTED_clean_linker_0, # of connection points: 2
#     Edge 51, Type (0, 0), BuildingBlock: XIVTED_clean_linker_0, # of connection points: 2
#     Edge 52, Type (0, 0), BuildingBlock: XIVTED_clean_linker_0, # of connection points: 2
#     Edge 53, Type (0, 0), BuildingBlock: XIVTED_clean_linker_0, # of connection points: 2
#     Edge 54, Type (0, 0), BuildingBlock: XIVTED_clean_linker_0, # of connection points: 2
#     Edge 55, Type (0, 0), BuildingBlock: XIVTED_clean_linker_0, # of connection points: 2
#     Edge 56, Type (0, 0), BuildingBlock: XIVTED_clean_linker_0, # of connection points: 2
#     Edge 57, Type (0, 0), BuildingBlock: XIVTED_clean_linker_0, # of connection points: 2
#     Edge 58, Type (0, 0), BuildingBlock: XIVTED_clean_linker_0, # of connection points: 2
#     Edge 59, Type (0, 0), BuildingBlock: XIVTED_clean_linker_0, # of connection points: 2
#     Edge 60, Type (0, 0), BuildingBlock: XIVTED_clean_linker_0, # of connection points: 2
#     Edge 61, Type (0, 0), BuildingBlock: XIVTED_clean_linker_0, # of connection points: 2
#     Edge 62, Type (0, 0), BuildingBlock: XIVTED_clean_linker_0, # of connection points: 2
#     Edge 63, Type (0, 0), BuildingBlock: XIVTED_clean_linker_0, # of connection points: 2
#     Edge 64, Type (0, 0), BuildingBlock: XIVTED_clean_linker_0, # of connection points: 2
#     Edge 65, Type (0, 0), BuildingBlock: XIVTED_clean_linker_0, # of connection points: 2
#     Edge 66, Type (0, 0), BuildingBlock: XIVTED_clean_linker_0, # of connection points: 2
#     Edge 67, Type (0, 0), BuildingBlock: XIVTED_clean_linker_0, # of connection points: 2
#     Edge 68, Type (0, 0), BuildingBlock: XIVTED_clean_linker_0, # of connection points: 2
#     Edge 69, Type (0, 0), BuildingBlock: XIVTED_clean_linker_0, # of connection points: 2
#     Edge 70, Type (0, 0), BuildingBlock: XIVTED_clean_linker_0, # of connection points: 2
#     Edge 71, Type (0, 0), BuildingBlock: XIVTED_clean_linker_0, # of connection points: 2
#     Edge 72, Type (0, 0), BuildingBlock: XIVTED_clean_linker_0, # of connection points: 2
#     Edge 73, Type (0, 0), BuildingBlock: XIVTED_clean_linker_0, # of connection points: 2
#     Edge 74, Type (0, 0), BuildingBlock: XIVTED_clean_linker_0, # of connection points: 2
#     Edge 75, Type (0, 0), BuildingBlock: XIVTED_clean_linker_0, # of connection points: 2
#     Edge 76, Type (0, 0), BuildingBlock: XIVTED_clean_linker_0, # of connection points: 2
#     Edge 77, Type (0, 0), BuildingBlock: XIVTED_clean_linker_0, # of connection points: 2
#     Edge 78, Type (0, 0), BuildingBlock: XIVTED_clean_linker_0, # of connection points: 2
#     Edge 79, Type (0, 0), BuildingBlock: XIVTED_clean_linker_0, # of connection points: 2
#     Edge 80, Type (0, 0), BuildingBlock: XIVTED_clean_linker_0, # of connection points: 2
#     Edge 81, Type (0, 0), BuildingBlock: XIVTED_clean_linker_0, # of connection points: 2
#     Edge 82, Type (0, 0), BuildingBlock: XIVTED_clean_linker_0, # of connection points: 2
#     Edge 83, Type (0, 0), BuildingBlock: XIVTED_clean_linker_0, # of connection points: 2
#     Edge 84, Type (0, 0), BuildingBlock: XIVTED_clean_linker_0, # of connection points: 2
#     Edge 85, Type (0, 0), BuildingBlock: XIVTED_clean_linker_0, # of connection points: 2
#     Edge 86, Type (0, 0), BuildingBlock: XIVTED_clean_linker_0, # of connection points: 2
#     Edge 87, Type (0, 0), BuildingBlock: XIVTED_clean_linker_0, # of connection points: 2
#     Edge 88, Type (0, 0), BuildingBlock: XIVTED_clean_linker_0, # of connection points: 2
#     Edge 89, Type (0, 0), BuildingBlock: XIVTED_clean_linker_0, # of connection points: 2
#     Edge 90, Type (0, 0), BuildingBlock: XIVTED_clean_linker_0, # of connection points: 2
#     Edge 91, Type (0, 0), BuildingBlock: XIVTED_clean_linker_0, # of connection points: 2
#     Edge 92, Type (0, 0), BuildingBlock: XIVTED_clean_linker_0, # of connection points: 2
#     Edge 93, Type (0, 0), BuildingBlock: XIVTED_clean_linker_0, # of connection points: 2
#     Edge 94, Type (0, 0), BuildingBlock: XIVTED_clean_linker_0, # of connection points: 2
#     Edge 95, Type (0, 0), BuildingBlock: XIVTED_clean_linker_0, # of connection points: 2
#     Edge 96, Type (0, 0), BuildingBlock: XIVTED_clean_linker_0, # of connection points: 2
#     Edge 97, Type (0, 0), BuildingBlock: XIVTED_clean_linker_0, # of connection points: 2
#     Edge 98, Type (0, 0), BuildingBlock: XIVTED_clean_linker_0, # of connection points: 2
#     Edge 99, Type (0, 0), BuildingBlock: XIVTED_clean_linker_0, # of connection points: 2
#     Edge 100, Type (0, 0), BuildingBlock: XIVTED_clean_linker_0, # of connection points: 2
#     Edge 101, Type (0, 0), BuildingBlock: XIVTED_clean_linker_0, # of connection points: 2
#     Edge 102, Type (0, 0), BuildingBlock: XIVTED_clean_linker_0, # of connection points: 2
#     Edge 103, Type (0, 0), BuildingBlock: XIVTED_clean_linker_0, # of connection points: 2
#     Edge 104, Type (0, 0), BuildingBlock: XIVTED_clean_linker_0, # of connection points: 2
#     Edge 105, Type (0, 0), BuildingBlock: XIVTED_clean_linker_0, # of connection points: 2
#     Edge 106, Type (0, 0), BuildingBlock: XIVTED_clean_linker_0, # of connection points: 2
#     Edge 107, Type (0, 0), BuildingBlock: XIVTED_clean_linker_0, # of connection points: 2
# Relax obj value: 0.085
# Max RMSD: 0.314
# Mean RMSD: 0.220
data_MOF--net-uml--node1-GALJAG_clean_sbu_0--edge1-XIVTED_clean_linker_0
_symmetry_space_group_name_H-M    P1
_symmetry_Int_Tables_number       1
_symmetry_cell_setting            triclinic
loop_
_symmetry_equiv_pos_as_xyz
'x, y, z'
_cell_length_a     94.500723
_cell_length_b     94.326709
_cell_length_c     28.569338
_cell_angle_alpha  89.994227
_cell_angle_beta   90.144927
_cell_angle_gamma 116.40428
loop_
_atom_site_label
_atom_site_type_symbol
_atom_site_fract_x
_atom_site_fract_y
_atom_site_fract_z
_atom_type_partial_charge
In0 In 0.34421 0.09033 0.18704 0.0
O1 O 0.32583 0.07382 0.23846 0.0
O2 O 0.34829 0.09007 0.26526 0.0
C3 C 0.33226 0.07913 0.10203 0.0
C4 C 0.34134 0.11743 0.18751 0.0
C5 C 0.36928 0.08492 0.1717 0.0
O6 O 0.32468 0.07286 0.13897 0.0
O7 O 0.34539 0.09096 0.10841 0.0
O8 O 0.37051 0.09883 0.17366 0.0
O9 O 0.35571 0.07407 0.18106 0.0
C10 C 0.33464 0.0793 0.27388 0.0
O11 O 0.35456 0.11728 0.19275 0.0
O12 O 0.32976 0.104 0.18296 0.0
In13 In 0.89177 0.25559 0.1588 0.0
O14 O 0.86674 0.23565 0.16984 0.0
O15 O 0.88524 0.22942 0.15407 0.0
C16 C 0.88807 0.28225 0.15507 0.0
C17 C 0.90482 0.25789 0.24421 0.0
C18 C 0.90287 0.25855 0.07048 0.0
O19 O 0.87681 0.26881 0.14625 0.0
O20 O 0.90088 0.2821 0.16703 0.0
O21 O 0.91167 0.25987 0.10541 0.0
O22 O 0.88886 0.25559 0.08061 0.0
C23 C 0.8708 0.22471 0.16303 0.0
O24 O 0.9116 0.25658 0.20738 0.0
O25 O 0.89177 0.25825 0.23758 0.0
In26 In 0.74247 0.62462 0.13423 0.0
O27 O 0.76619 0.6234 0.1439 0.0
O28 O 0.76646 0.64548 0.12683 0.0
C29 C 0.71843 0.59541 0.12669 0.0
C30 C 0.738 0.63275 0.22057 0.0
C31 C 0.73601 0.6328 0.05 0.0
O32 O 0.73225 0.59839 0.11321 0.0
O33 O 0.71721 0.6068 0.14626 0.0
O34 O 0.73469 0.63952 0.08699 0.0
O35 O 0.74091 0.62249 0.05589 0.0
C36 C 0.77438 0.63807 0.13629 0.0
O37 O 0.73662 0.6399 0.1846 0.0
O38 O 0.74148 0.62148 0.21267 0.0
In39 In 0.09165 0.34334 0.31267 0.0
O40 O 0.11858 0.35373 0.30872 0.0
O41 O 0.10528 0.32888 0.31813 0.0
C42 C 0.08613 0.36851 0.3256 0.0
C43 C 0.08103 0.33373 0.22548 0.0
C44 C 0.07965 0.3312 0.39667 0.0
O45 O 0.09998 0.36964 0.32702 0.0
O46 O 0.07547 0.35499 0.31457 0.0
O47 O 0.07399 0.32356 0.35927 0.0
O48 O 0.09128 0.34454 0.39129 0.0
C49 C 0.1187 0.34049 0.31428 0.0
O50 O 0.0752 0.32504 0.26084 0.0
O51 O 0.09205 0.34726 0.23428 0.0
In52 In 0.62134 0.7427 0.36097 0.0
O53 O 0.6365 0.73586 0.31295 0.0
O54 O 0.61819 0.7404 0.28255 0.0
C55 C 0.63002 0.73846 0.44726 0.0
C56 C 0.63423 0.77451 0.35345 0.0
C57 C 0.59236 0.71855 0.37033 0.0
O58 O 0.63685 0.73668 0.41123 0.0
O59 O 0.61925 0.74259 0.43936 0.0
O60 O 0.59521 0.73254 0.38183 0.0
O61 O 0.60379 0.71712 0.35206 0.0
C62 C 0.62939 0.73672 0.27618 0.0
O63 O 0.61957 0.76599 0.34691 0.0
O64 O 0.64189 0.76697 0.36446 0.0
In65 In 0.25501 0.89218 0.33031 0.0
O66 O 0.25639 0.91217 0.28238 0.0
O67 O 0.25762 0.89213 0.2515 0.0
C68 C 0.25379 0.9018 0.41838 0.0
C69 C 0.22437 0.87125 0.32086 0.0
C70 C 0.28224 0.88972 0.33946 0.0
O71 O 0.25884 0.91165 0.38505 0.0
O72 O 0.24974 0.88762 0.4069 0.0
O73 O 0.26894 0.87797 0.34567 0.0
O74 O 0.28169 0.90235 0.32762 0.0
C75 C 0.25745 0.90533 0.24531 0.0
O76 O 0.2353 0.86696 0.31837 0.0
O77 O 0.22904 0.88589 0.32729 0.0
In78 In 0.65384 0.90903 0.82426 0.0
O79 O 0.66496 0.92613 0.76207 0.0
O80 O 0.65237 0.90153 0.7485 0.0
C81 C 0.67014 0.92932 0.89394 0.0
C82 C 0.65821 0.88324 0.84201 0.0
C83 C 0.62429 0.90407 0.84527 0.0
O84 O 0.67636 0.92302 0.86727 0.0
O85 O 0.65622 0.92641 0.88298 0.0
O86 O 0.6308 0.89626 0.86351 0.0
O87 O 0.63248 0.91395 0.8145 0.0
C88 C 0.66039 0.91515 0.73205 0.0
O89 O 0.64475 0.88248 0.83382 0.0
O90 O 0.66946 0.89702 0.8412 0.0
In91 In 0.10599 0.74609 0.83837 0.0
O92 O 0.13119 0.76642 0.83462 0.0
O93 O 0.11219 0.77203 0.84849 0.0
C94 C 0.11024 0.71974 0.84431 0.0
C95 C 0.0951 0.74507 0.75037 0.0
C96 C 0.09136 0.74178 0.92189 0.0
O97 O 0.12092 0.73322 0.85582 0.0
O98 O 0.09777 0.71971 0.82808 0.0
O99 O 0.08466 0.74264 0.88428 0.0
O100 O 0.1051 0.74305 0.9169 0.0
C101 C 0.12684 0.77706 0.8427 0.0
O102 O 0.08701 0.74469 0.786 0.0
O103 O 0.10844 0.74562 0.75928 0.0
In104 In 0.25413 0.37619 0.8638 0.0
O105 O 0.23028 0.37694 0.85196 0.0
O106 O 0.23026 0.35503 0.86981 0.0
C107 C 0.27778 0.40564 0.8713 0.0
C108 C 0.25962 0.36827 0.7784 0.0
C109 C 0.26054 0.3685 0.94875 0.0
O110 O 0.26398 0.40234 0.88562 0.0
O111 O 0.27916 0.39445 0.85103 0.0
O112 O 0.26209 0.36172 0.91221 0.0
O113 O 0.25537 0.37857 0.94208 0.0
C114 C 0.22222 0.36224 0.8593 0.0
O115 O 0.26086 0.36121 0.8148 0.0
O116 O 0.25569 0.37928 0.78542 0.0
In117 In 0.90869 0.65764 0.68322 0.0
O118 O 0.88184 0.6475 0.6897 0.0
O119 O 0.8954 0.67244 0.68267 0.0
C120 C 0.91454 0.63305 0.66419 0.0
C121 C 0.92054 0.66699 0.76949 0.0
C122 C 0.91861 0.66938 0.59756 0.0
O123 O 0.90056 0.63125 0.67021 0.0
O124 O 0.92527 0.64684 0.67196 0.0
O125 O 0.9256 0.67696 0.63395 0.0
O126 O 0.90663 0.65644 0.6049 0.0
C127 C 0.88191 0.66091 0.68648 0.0
O128 O 0.92565 0.6759 0.73419 0.0
O129 O 0.90972 0.65332 0.76098 0.0
In130 In 0.37859 0.25784 0.641 0.0
O131 O 0.37956 0.23401 0.65099 0.0
O132 O 0.35753 0.23395 0.63474 0.0
C133 C 0.40781 0.28157 0.63205 0.0
C134 C 0.37121 0.26291 0.7276 0.0
C135 C 0.37041 0.26399 0.55635 0.0
O136 O 0.40458 0.26761 0.61905 0.0
O137 O 0.39667 0.2831 0.65195 0.0
O138 O 0.36372 0.26551 0.59309 0.0
O139 O 0.38065 0.25904 0.56274 0.0
C140 C 0.36485 0.22592 0.644 0.0
O141 O 0.36389 0.26426 0.69195 0.0
O142 O 0.38226 0.25918 0.71922 0.0
In143 In 0.74601 0.10436 0.68136 0.0
O144 O 0.74064 0.08445 0.73488 0.0
O145 O 0.74376 0.1069 0.75981 0.0
C146 C 0.74396 0.08533 0.60733 0.0
C147 C 0.77629 0.12717 0.68319 0.0
C148 C 0.72306 0.11293 0.65994 0.0
O149 O 0.73227 0.08699 0.6222 0.0
O150 O 0.75625 0.09229 0.63164 0.0
O151 O 0.73605 0.11834 0.63815 0.0
O152 O 0.72209 0.10396 0.69388 0.0
C153 C 0.74124 0.09295 0.76979 0.0
O154 O 0.76501 0.1302 0.6715 0.0
O155 O 0.77216 0.11299 0.6945 0.0
In156 In 0.01263 0.42613 0.52586 0.0
O157 O 0.99417 0.40877 0.57535 0.0
O158 O 0.01588 0.42596 0.60431 0.0
C159 C 0.00172 0.41537 0.43962 0.0
C160 C 0.00863 0.45256 0.52928 0.0
C161 C 0.03794 0.42079 0.51539 0.0
O162 O 0.99374 0.4089 0.47578 0.0
O163 O 0.01478 0.42715 0.44734 0.0
O164 O 0.0389 0.43457 0.51154 0.0
O165 O 0.02452 0.41019 0.52718 0.0
C166 C 0.00246 0.41456 0.6116 0.0
O167 O 0.02211 0.45297 0.53445 0.0
O168 O 0.99749 0.43898 0.52267 0.0
In169 In 0.5568 0.58841 0.49906 0.0
O170 O 0.57628 0.59022 0.55019 0.0
O171 O 0.55507 0.58941 0.57823 0.0
C172 C 0.57051 0.59178 0.41423 0.0
C173 C 0.53573 0.55749 0.4982 0.0
C174 C 0.55259 0.61476 0.49299 0.0
O175 O 0.57753 0.59113 0.45138 0.0
O176 O 0.55692 0.59082 0.42029 0.0
O177 O 0.5418 0.60124 0.48232 0.0
O178 O 0.56519 0.61485 0.50821 0.0
C179 C 0.56848 0.59005 0.58631 0.0
O180 O 0.53158 0.5683 0.5059 0.0
O181 O 0.55028 0.56234 0.49086 0.0
In182 In 0.41368 0.96191 0.45984 0.0
O183 O 0.40891 0.97796 0.51028 0.0
O184 O 0.41212 0.95853 0.53817 0.0
C185 C 0.40863 0.97092 0.37494 0.0
C186 C 0.44548 0.97363 0.46427 0.0
C187 C 0.38855 0.93341 0.45203 0.0
O188 O 0.40728 0.97768 0.41182 0.0
O189 O 0.41282 0.9601 0.38132 0.0
O190 O 0.40218 0.93562 0.43893 0.0
O191 O 0.38795 0.94521 0.47094 0.0
C192 C 0.40959 0.97039 0.54618 0.0
O193 O 0.43652 0.95905 0.47096 0.0
O194 O 0.43837 0.98181 0.45435 0.0
In195 In 0.75679 0.67791 0.639 0.0
O196 O 0.74079 0.65964 0.58637 0.0
O197 O 0.75829 0.68166 0.56044 0.0
C198 C 0.74388 0.6661 0.72237 0.0
C199 C 0.78359 0.67466 0.64486 0.0
C200 C 0.75113 0.70309 0.64954 0.0
O201 O 0.73867 0.65826 0.68501 0.0
O202 O 0.7555 0.67946 0.71726 0.0
O203 O 0.76493 0.70419 0.65323 0.0
O204 O 0.74066 0.68962 0.63719 0.0
C205 C 0.74721 0.6682 0.55117 0.0
O206 O 0.78375 0.68798 0.63809 0.0
O207 O 0.77003 0.66319 0.64771 0.0
In208 In 0.29005 0.07618 0.68774 0.0
O209 O 0.28927 0.10006 0.67659 0.0
O210 O 0.31123 0.10006 0.69329 0.0
C211 C 0.26047 0.05302 0.69663 0.0
C212 C 0.29751 0.07054 0.6017 0.0
C213 C 0.29844 0.07028 0.77257 0.0
O214 O 0.26409 0.06709 0.70933 0.0
O215 O 0.27146 0.05105 0.67735 0.0
O216 O 0.30495 0.06856 0.73572 0.0
O217 O 0.28817 0.07519 0.76622 0.0
C218 C 0.30398 0.10811 0.68354 0.0
O219 O 0.30462 0.06917 0.6378 0.0
O220 O 0.28663 0.07458 0.60933 0.0
In221 In 0.92138 0.22712 0.66174 0.0
O222 O 0.90226 0.20137 0.67198 0.0
O223 O 0.89523 0.21861 0.64843 0.0
C224 C 0.94419 0.21807 0.68041 0.0
C225 C 0.92596 0.23881 0.57361 0.0
C226 C 0.92378 0.24592 0.73676 0.0
O227 O 0.93134 0.21269 0.7029 0.0
O228 O 0.94512 0.22734 0.64737 0.0
O229 O 0.9354 0.2443 0.72108 0.0
O230 O 0.91139 0.23903 0.71286 0.0
C231 C 0.89103 0.20445 0.66008 0.0
O232 O 0.9267 0.24723 0.60887 0.0
O233 O 0.92337 0.22481 0.58309 0.0
In234 In 0.32463 0.24298 0.144 0.0
O235 O 0.34314 0.25891 0.09197 0.0
O236 O 0.32093 0.2419 0.06551 0.0
C237 C 0.33608 0.25539 0.2284 0.0
C238 C 0.32723 0.21579 0.14823 0.0
C239 C 0.29982 0.24917 0.15362 0.0
O240 O 0.34417 0.2607 0.19159 0.0
O241 O 0.32269 0.24392 0.22223 0.0
O242 O 0.29847 0.23526 0.15758 0.0
O243 O 0.31337 0.2595 0.1417 0.0
C244 C 0.33449 0.2528 0.05659 0.0
O245 O 0.31409 0.21597 0.1413 0.0
O246 O 0.33886 0.22922 0.15215 0.0
In247 In 0.77631 0.07765 0.18483 0.0
O248 O 0.75652 0.07671 0.13629 0.0
O249 O 0.77622 0.07476 0.10613 0.0
C250 C 0.76491 0.07465 0.27273 0.0
C251 C 0.7973 0.10851 0.18022 0.0
C252 C 0.78006 0.05103 0.18969 0.0
O253 O 0.75615 0.07302 0.23746 0.0
O254 O 0.77904 0.07799 0.26314 0.0
O255 O 0.79123 0.06447 0.19908 0.0
O256 O 0.76737 0.05118 0.17646 0.0
C257 C 0.76321 0.07521 0.0995 0.0
O258 O 0.80134 0.09756 0.17336 0.0
O259 O 0.78287 0.10383 0.18939 0.0
In260 In 0.92398 0.71201 0.18238 0.0
O261 O 0.9308 0.69714 0.1331 0.0
O262 O 0.92598 0.71548 0.10412 0.0
C263 C 0.92905 0.7037 0.26805 0.0
C264 C 0.89213 0.6984 0.17663 0.0
C265 C 0.94795 0.74114 0.19232 0.0
O266 O 0.93072 0.69684 0.23183 0.0
O267 O 0.92454 0.71423 0.26063 0.0
O268 O 0.93396 0.73817 0.2039 0.0
O269 O 0.94943 0.72978 0.17346 0.0
C270 C 0.92978 0.70439 0.09686 0.0
O271 O 0.90032 0.71312 0.16991 0.0
O272 O 0.90001 0.69101 0.18687 0.0
In273 In 0.5764 0.98599 0.01801 0.0
O274 O 0.59508 0.002 0.07036 0.0
O275 O 0.57446 0.98273 0.0968 0.0
C276 C 0.59163 0.99752 0.93648 0.0
C277 C 0.55146 0.99265 0.01331 0.0
C278 C 0.5746 0.957 0.00757 0.0
O279 O 0.59521 0.0058 0.97336 0.0
O280 O 0.58076 0.98373 0.94129 0.0
O281 O 0.56345 0.96024 0.99594 0.0
O282 O 0.5864 0.96826 0.02625 0.0
C283 C 0.58742 0.99451 0.10582 0.0
O284 O 0.54999 0.979 0.02277 0.0
O285 O 0.56546 0.0029 0.00679 0.0
In286 In 0.03987 0.59185 0.97584 0.0
O287 O 0.04089 0.568 0.9778 0.0
O288 O 0.01853 0.56809 0.96845 0.0
C289 C 0.06909 0.61571 0.96828 0.0
C290 C 0.03359 0.59415 0.06603 0.0
C291 C 0.03116 0.59879 0.89297 0.0
O292 O 0.06586 0.60186 0.95417 0.0
O293 O 0.05792 0.61706 0.98871 0.0
O294 O 0.02424 0.59942 0.93038 0.0
O295 O 0.04181 0.59431 0.89795 0.0
C296 C 0.02607 0.55999 0.97304 0.0
O297 O 0.02748 0.59887 0.03367 0.0
O298 O 0.04295 0.58872 0.05252 0.0
In299 In 0.40891 0.4415 0.99611 0.0
O300 O 0.40733 0.42222 0.04771 0.0
O301 O 0.40795 0.4435 0.07519 0.0
C302 C 0.40556 0.42755 0.91148 0.0
C303 C 0.43979 0.46265 0.99568 0.0
C304 C 0.38224 0.44516 0.99053 0.0
O305 O 0.40608 0.42058 0.94885 0.0
O306 O 0.40665 0.44124 0.91719 0.0
O307 O 0.39557 0.45608 0.97915 0.0
O308 O 0.38251 0.43273 0.00594 0.0
C309 C 0.40741 0.43012 0.08363 0.0
O310 O 0.42897 0.46684 0.00262 0.0
O311 O 0.43496 0.44805 0.98876 0.0
In312 In 0.67711 0.75887 0.86402 0.0
O313 O 0.65827 0.74179 0.91304 0.0
O314 O 0.68054 0.75766 0.94217 0.0
C315 C 0.66559 0.74942 0.77746 0.0
C316 C 0.67477 0.78614 0.87066 0.0
C317 C 0.70123 0.75191 0.8492 0.0
O318 O 0.6577 0.74264 0.81348 0.0
O319 O 0.67882 0.76093 0.78553 0.0
O320 O 0.70316 0.76609 0.84919 0.0
O321 O 0.68751 0.74168 0.85993 0.0
C322 C 0.66679 0.74681 0.94926 0.0
O323 O 0.68796 0.78578 0.874 0.0
O324 O 0.66308 0.77288 0.86437 0.0
In325 In 0.22178 0.92381 0.83446 0.0
O326 O 0.19684 0.90388 0.84712 0.0
O327 O 0.21589 0.89787 0.83771 0.0
C328 C 0.21773 0.95018 0.82415 0.0
C329 C 0.23526 0.9268 0.91933 0.0
C330 C 0.23204 0.92299 0.74694 0.0
O331 O 0.20658 0.93653 0.81726 0.0
O332 O 0.23057 0.9504 0.83736 0.0
O333 O 0.24169 0.9288 0.78055 0.0
O334 O 0.21772 0.91793 0.7579 0.0
C335 C 0.2013 0.89305 0.8446 0.0
O336 O 0.24198 0.9256 0.88225 0.0
O337 O 0.22204 0.92687 0.91321 0.0
In338 In 0.07288 0.28768 0.81059 0.0
O339 O 0.09652 0.28625 0.82016 0.0
O340 O 0.09687 0.3085 0.80483 0.0
C341 C 0.04787 0.25907 0.80528 0.0
C342 C 0.06875 0.29585 0.89709 0.0
C343 C 0.06765 0.29601 0.72512 0.0
O344 O 0.0615 0.2611 0.79263 0.0
O345 O 0.04725 0.27114 0.82211 0.0
O346 O 0.06624 0.30295 0.76152 0.0
O347 O 0.07187 0.28523 0.73225 0.0
C348 C 0.10474 0.30099 0.81373 0.0
O349 O 0.06728 0.30305 0.86132 0.0
O350 O 0.07216 0.28455 0.88887 0.0
In351 In 0.43098 0.01761 0.9636 0.0
O352 O 0.41475 0.99983 0.91025 0.0
O353 O 0.43319 0.02144 0.88514 0.0
C354 C 0.41799 0.00578 0.04698 0.0
C355 C 0.45726 0.01346 0.96926 0.0
C356 C 0.4253 0.04279 0.97319 0.0
O357 O 0.4128 0.99796 0.00956 0.0
O358 O 0.42956 0.01918 0.04188 0.0
O359 O 0.43896 0.04376 0.97976 0.0
O360 O 0.41507 0.02949 0.95881 0.0
C361 C 0.4217 0.00829 0.87535 0.0
O362 O 0.45794 0.02702 0.96272 0.0
O363 O 0.44351 0.00232 0.97206 0.0
In364 In 0.95766 0.41023 0.02432 0.0
O365 O 0.97288 0.40365 0.97581 0.0
O366 O 0.95441 0.40804 0.9459 0.0
C367 C 0.96643 0.40564 0.11014 0.0
C368 C 0.97042 0.44207 0.01743 0.0
C369 C 0.9287 0.38601 0.03326 0.0
O370 O 0.97323 0.40402 0.0738 0.0
O371 O 0.95567 0.40982 0.1028 0.0
O372 O 0.93149 0.39997 0.045 0.0
O373 O 0.94018 0.38467 0.01495 0.0
C374 C 0.96567 0.40448 0.93921 0.0
O375 O 0.95576 0.43351 0.01115 0.0
O376 O 0.97816 0.43456 0.02798 0.0
In377 In 0.58699 0.55677 0.00262 0.0
O378 O 0.56698 0.53141 0.99537 0.0
O379 O 0.56093 0.55008 0.01047 0.0
C380 C 0.61379 0.55334 0.00735 0.0
C381 C 0.58839 0.56852 0.91571 0.0
C382 C 0.59041 0.57043 0.0877 0.0
O383 O 0.60055 0.54238 0.01924 0.0
O384 O 0.61334 0.56568 0.99179 0.0
O385 O 0.5897 0.57747 0.05067 0.0
O386 O 0.58945 0.55681 0.08141 0.0
C387 C 0.55614 0.53552 0.00289 0.0
O388 O 0.58855 0.57627 0.95206 0.0
O389 O 0.5878 0.55509 0.92341 0.0
In390 In 0.9859 0.57447 0.48576 0.0
O391 O 0.97707 0.5478 0.49107 0.0
O392 O 0.00129 0.56272 0.50649 0.0
C393 C 0.95802 0.57557 0.4831 0.0
C394 C 0.99694 0.5817 0.39782 0.0
C395 C 0.99706 0.59071 0.56616 0.0
O396 O 0.95938 0.56377 0.49931 0.0
O397 O 0.97049 0.58616 0.46551 0.0
O398 O 0.00581 0.59306 0.53069 0.0
O399 O 0.98298 0.58054 0.56039 0.0
C400 C 0.99037 0.5488 0.50313 0.0
O401 O 0.00045 0.59223 0.42909 0.0
O402 O 0.98789 0.56784 0.41096 0.0
In403 In 0.43977 0.41068 0.50018 0.0
O404 O 0.42041 0.40863 0.44816 0.0
O405 O 0.44174 0.40946 0.42112 0.0
C406 C 0.42559 0.40722 0.58435 0.0
C407 C 0.46067 0.44167 0.501 0.0
C408 C 0.44458 0.38468 0.50736 0.0
O409 O 0.43929 0.40837 0.57907 0.0
O410 O 0.41871 0.40771 0.54675 0.0
O411 O 0.43188 0.38427 0.49174 0.0
O412 O 0.45513 0.39832 0.51798 0.0
C413 C 0.42833 0.40873 0.4124 0.0
O414 O 0.46492 0.43091 0.49372 0.0
O415 O 0.44609 0.43674 0.50793 0.0
In416 In 0.59491 0.03961 0.52108 0.0
O417 O 0.57209 0.04233 0.50843 0.0
O418 O 0.57022 0.01965 0.52615 0.0
C419 C 0.62003 0.06818 0.52663 0.0
C420 C 0.59931 0.03045 0.43583 0.0
C421 C 0.59975 0.03164 0.60778 0.0
O422 O 0.60634 0.06622 0.53829 0.0
O423 O 0.62069 0.05605 0.51047 0.0
O424 O 0.6014 0.02459 0.57199 0.0
O425 O 0.59536 0.04221 0.59947 0.0
C426 C 0.56312 0.02777 0.5154 0.0
O427 O 0.59967 0.02304 0.47249 0.0
O428 O 0.59689 0.04245 0.44254 0.0
In429 In 0.24397 0.32389 0.36129 0.0
O430 O 0.25999 0.34238 0.41343 0.0
O431 O 0.24309 0.32009 0.43967 0.0
C432 C 0.25574 0.33548 0.27673 0.0
C433 C 0.21678 0.32639 0.35768 0.0
C434 C 0.25051 0.29933 0.34982 0.0
O435 O 0.26118 0.34361 0.31352 0.0
O436 O 0.24446 0.32197 0.28302 0.0
O437 O 0.23647 0.29767 0.34818 0.0
O438 O 0.26083 0.31305 0.36072 0.0
C439 C 0.25395 0.33369 0.44871 0.0
O440 O 0.217 0.31321 0.36376 0.0
O441 O 0.23017 0.33809 0.35437 0.0
In442 In 0.70491 0.92421 0.31122 0.0
O443 O 0.69148 0.93157 0.3652 0.0
O444 O 0.70584 0.92068 0.38867 0.0
C445 C 0.69856 0.93144 0.22523 0.0
C446 C 0.69075 0.89235 0.30881 0.0
C447 C 0.73468 0.94736 0.30985 0.0
O448 O 0.69123 0.93282 0.26077 0.0
O449 O 0.70839 0.92609 0.23357 0.0
O450 O 0.73134 0.93349 0.29583 0.0
O451 O 0.72325 0.9491 0.32687 0.0
C452 C 0.69651 0.92646 0.39937 0.0
O453 O 0.70549 0.90023 0.31571 0.0
O454 O 0.68345 0.90059 0.30191 0.0
In455 In 0.07715 0.77729 0.3316 0.0
O456 O 0.09744 0.80258 0.33527 0.0
O457 O 0.10308 0.78355 0.32172 0.0
C458 C 0.05074 0.7814 0.32562 0.0
C459 C 0.07604 0.76629 0.41946 0.0
C460 C 0.0727 0.7624 0.24825 0.0
O461 O 0.06414 0.7921 0.31394 0.0
O462 O 0.05083 0.769 0.34205 0.0
O463 O 0.0739 0.77615 0.25306 0.0
O464 O 0.07374 0.75585 0.28591 0.0
C465 C 0.10809 0.79824 0.32734 0.0
O466 O 0.07563 0.75821 0.38369 0.0
O467 O 0.07673 0.77972 0.41079 0.0
H468 H 0.28028 0.06613 0.52179 0.0
H469 H 0.35243 0.08509 0.35334 0.0
H470 H 0.32497 0.07027 0.57276 0.0
H471 H 0.3042 0.06296 0.30413 0.0
H472 H 0.34284 0.07995 0.43401 0.0
H473 H 0.28882 0.06516 0.44167 0.0
C474 C 0.29185 0.0667 0.51607 0.0
C475 C 0.30199 0.06839 0.55381 0.0
C476 C 0.33436 0.07602 0.40555 0.0
C477 C 0.3119 0.06748 0.46236 0.0
C478 C 0.33982 0.07898 0.35956 0.0
C479 C 0.32907 0.07453 0.32214 0.0
C480 C 0.31804 0.06884 0.41411 0.0
C481 C 0.31287 0.0666 0.33204 0.0
C482 C 0.29669 0.06608 0.47039 0.0
C483 C 0.31681 0.06898 0.54455 0.0
N484 N 0.30783 0.06422 0.37716 0.0
N485 N 0.32143 0.06876 0.49963 0.0
H486 H 0.93149 0.22584 0.49455 0.0
H487 H 0.89745 0.26889 0.32402 0.0
H488 H 0.92147 0.26388 0.54148 0.0
H489 H 0.926 0.24708 0.27305 0.0
H490 H 0.90551 0.26669 0.40405 0.0
H491 H 0.92914 0.23285 0.41332 0.0
C492 C 0.92898 0.2358 0.48771 0.0
C493 C 0.9266 0.24427 0.52476 0.0
C494 C 0.91018 0.26257 0.37535 0.0
C495 C 0.92362 0.25215 0.432 0.0
C496 C 0.90555 0.26377 0.32969 0.0
C497 C 0.91103 0.2581 0.29192 0.0
C498 C 0.9201 0.25531 0.38349 0.0
C499 C 0.92153 0.25162 0.30122 0.0
C500 C 0.92768 0.23981 0.44137 0.0
C501 C 0.92341 0.25707 0.51394 0.0
N502 N 0.92554 0.25016 0.34618 0.0
N503 N 0.92176 0.26046 0.46854 0.0
H504 H 0.72996 0.63781 0.52082 0.0
H505 H 0.73889 0.66077 0.24943 0.0
H506 H 0.75459 0.68592 0.47147 0.0
H507 H 0.73352 0.61562 0.30064 0.0
H508 H 0.7386 0.66925 0.33047 0.0
H509 H 0.72508 0.62865 0.43939 0.0
C510 C 0.73415 0.64645 0.49284 0.0
C511 C 0.7428 0.66262 0.50271 0.0
C512 C 0.73735 0.65745 0.3238 0.0
C513 C 0.7372 0.65227 0.40999 0.0
C514 C 0.73746 0.65259 0.2777 0.0
C515 C 0.73637 0.63754 0.26853 0.0
C516 C 0.7359 0.64707 0.36073 0.0
C517 C 0.73454 0.62738 0.30633 0.0
C518 C 0.73143 0.64121 0.44651 0.0
C519 C 0.74799 0.67333 0.46525 0.0
N520 N 0.73438 0.63234 0.35085 0.0
N521 N 0.74514 0.66796 0.42045 0.0
H522 H 0.06439 0.27857 0.97671 0.0
H523 H 0.08746 0.35155 0.14611 0.0
H524 H 0.07005 0.32397 0.92686 0.0
H525 H 0.06372 0.30335 0.19519 0.0
H526 H 0.08163 0.34193 0.06545 0.0
H527 H 0.06452 0.28745 0.05715 0.0
C528 C 0.06553 0.29037 0.98276 0.0
C529 C 0.06732 0.30061 0.94525 0.0
C530 C 0.07752 0.33348 0.09389 0.0
C531 C 0.06767 0.31089 0.037 0.0
C532 C 0.08088 0.33895 0.13986 0.0
C533 C 0.07615 0.3282 0.17722 0.0
C534 C 0.06963 0.31713 0.0853 0.0
C535 C 0.0676 0.31201 0.16731 0.0
C536 C 0.06554 0.2954 0.02862 0.0
C537 C 0.06867 0.31574 0.9549 0.0
N538 N 0.06481 0.30694 0.1222 0.0
N539 N 0.06904 0.32052 0.99997 0.0
H540 H 0.65719 0.7367 0.24975 0.0
H541 H 0.63612 0.72964 0.97661 0.0
H542 H 0.61263 0.73178 0.19506 0.0
H543 H 0.68384 0.75193 0.03004 0.0
H544 H 0.62631 0.72388 0.0571 0.0
H545 H 0.66599 0.73589 0.16949 0.0
C546 C 0.64919 0.73523 0.2209 0.0
C547 C 0.63424 0.73448 0.22886 0.0
C548 C 0.63893 0.72987 0.05109 0.0
C549 C 0.64415 0.73345 0.13748 0.0
C550 C 0.64453 0.7331 0.00525 0.0
C551 C 0.6608 0.74142 0.99682 0.0
C552 C 0.64969 0.73485 0.08858 0.0
C553 C 0.67119 0.74563 0.03513 0.0
C554 C 0.65423 0.73482 0.17522 0.0
C555 C 0.62432 0.73257 0.19033 0.0
N556 N 0.66546 0.74236 0.07942 0.0
N557 N 0.62947 0.73218 0.14624 0.0
H558 H 0.24883 0.9284 0.21976 0.0
H559 H 0.25838 0.91827 0.94483 0.0
H560 H 0.26546 0.89618 0.16291 0.0
H561 H 0.22636 0.93509 0.00167 0.0
H562 H 0.26634 0.91541 0.02475 0.0
H563 H 0.2458 0.93622 0.13983 0.0
C564 C 0.25206 0.92315 0.1905 0.0
C565 C 0.25729 0.91155 0.19789 0.0
C566 C 0.25769 0.91988 0.01962 0.0
C567 C 0.25392 0.92045 0.10665 0.0
C568 C 0.25321 0.92159 0.97408 0.0
C569 C 0.24162 0.92682 0.9667 0.0
C570 C 0.25067 0.92363 0.05793 0.0
C571 C 0.23525 0.93091 0.00586 0.0
C572 C 0.25026 0.92755 0.14496 0.0
C573 C 0.26127 0.90509 0.15873 0.0
N574 N 0.23983 0.92919 0.04979 0.0
N575 N 0.25947 0.90959 0.11479 0.0
H576 H 0.65936 0.89287 0.67073 0.0
H577 H 0.68301 0.94411 0.43977 0.0
H578 H 0.67189 0.94271 0.68009 0.0
H579 H 0.69814 0.90812 0.46993 0.0
H580 H 0.674 0.94238 0.52163 0.0
H581 H 0.66809 0.89653 0.58955 0.0
C582 C 0.66383 0.90459 0.65555 0.0
C583 C 0.66496 0.91753 0.68221 0.0
C584 C 0.67938 0.93497 0.51005 0.0
C585 C 0.67485 0.92174 0.58904 0.0
C586 C 0.68444 0.93589 0.46355 0.0
C587 C 0.69131 0.92623 0.44819 0.0
C588 C 0.68086 0.92403 0.54055 0.0
C589 C 0.69296 0.91582 0.48031 0.0
C590 C 0.66888 0.90666 0.60931 0.0
C591 C 0.67091 0.93246 0.66069 0.0
N592 N 0.68761 0.91487 0.52473 0.0
N593 N 0.67559 0.93418 0.61504 0.0
H594 H 0.08386 0.743 0.44831 0.0
H595 H 0.07245 0.75374 0.72115 0.0
H596 H 0.06952 0.77752 0.50062 0.0
H597 H 0.10616 0.73831 0.6694 0.0
H598 H 0.06593 0.75728 0.64005 0.0
H599 H 0.08678 0.73594 0.52928 0.0
C600 C 0.08114 0.74895 0.47681 0.0
C601 C 0.07653 0.76092 0.46782 0.0
C602 C 0.07466 0.75299 0.64657 0.0
C603 C 0.07969 0.75282 0.56019 0.0
C604 C 0.07831 0.75089 0.69273 0.0
C605 C 0.08992 0.74581 0.70192 0.0
C606 C 0.08244 0.74968 0.60942 0.0
C607 C 0.09722 0.74236 0.66381 0.0
C608 C 0.08288 0.74497 0.52291 0.0
C609 C 0.07321 0.76829 0.50606 0.0
N610 N 0.09335 0.74434 0.61921 0.0
N611 N 0.07483 0.76411 0.55059 0.0
H612 H 0.27037 0.36419 0.47925 0.0
H613 H 0.26023 0.34081 0.75047 0.0
H614 H 0.24737 0.31592 0.52814 0.0
H615 H 0.26444 0.38545 0.69836 0.0
H616 H 0.26187 0.33272 0.66982 0.0
H617 H 0.27472 0.3733 0.56078 0.0
C618 C 0.26646 0.35552 0.50715 0.0
C619 C 0.25836 0.3393 0.49713 0.0
C620 C 0.26257 0.34434 0.67622 0.0
C621 C 0.26334 0.34958 0.58994 0.0
C622 C 0.26169 0.34897 0.72211 0.0
C623 C 0.26203 0.36374 0.73086 0.0
C624 C 0.26404 0.35467 0.63913 0.0
C625 C 0.26395 0.37389 0.69297 0.0
C626 C 0.26888 0.36071 0.55353 0.0
C627 C 0.25352 0.32854 0.53448 0.0
N628 N 0.26485 0.36915 0.64868 0.0
N629 N 0.25603 0.33388 0.57933 0.0
H630 H 0.91506 0.64916 0.84869 0.0
H631 H 0.93486 0.72176 0.0171 0.0
H632 H 0.93737 0.69745 0.79977 0.0
H633 H 0.9297 0.67667 0.06824 0.0
H634 H 0.93598 0.71313 0.93715 0.0
H635 H 0.92054 0.65881 0.92938 0.0
C636 C 0.92129 0.66179 0.85496 0.0
C637 C 0.92566 0.67254 0.81764 0.0
C638 C 0.93481 0.70519 0.96587 0.0
C639 C 0.93174 0.68364 0.90964 0.0
C640 C 0.93411 0.71008 0.01146 0.0
C641 C 0.93206 0.69985 0.04917 0.0
C642 C 0.93314 0.68984 0.95789 0.0
C643 C 0.93125 0.6849 0.04003 0.0
C644 C 0.92445 0.66728 0.90097 0.0
C645 C 0.93376 0.68877 0.82761 0.0
N646 N 0.93155 0.68023 0.99517 0.0
N647 N 0.93633 0.69384 0.87274 0.0
H648 H 0.31661 0.24631 0.97729 0.0
H649 H 0.38869 0.26723 0.80696 0.0
H650 H 0.36488 0.26937 0.02596 0.0
H651 H 0.34359 0.26249 0.75782 0.0
H652 H 0.38022 0.2676 0.88755 0.0
H653 H 0.32605 0.25162 0.89655 0.0
C654 C 0.3292 0.25262 0.97093 0.0
C655 C 0.34 0.25733 0.00821 0.0
C656 C 0.37225 0.26668 0.85913 0.0
C657 C 0.35087 0.26325 0.91614 0.0
C658 C 0.37705 0.26641 0.81319 0.0
C659 C 0.36676 0.26472 0.77582 0.0
C660 C 0.35694 0.26494 0.86775 0.0
C661 C 0.35185 0.26378 0.78572 0.0
C662 C 0.33457 0.25569 0.9249 0.0
C663 C 0.35617 0.26553 0.99813 0.0
N664 N 0.34728 0.26368 0.83085 0.0
N665 N 0.36114 0.26804 0.95295 0.0
H666 H 0.73582 0.10621 0.84843 0.0
H667 H 0.7704 0.06393 0.01994 0.0
H668 H 0.74578 0.06801 0.80271 0.0
H669 H 0.74198 0.08595 0.07056 0.0
H670 H 0.7621 0.0658 0.93994 0.0
H671 H 0.73838 0.09955 0.92987 0.0
C672 C 0.73835 0.09629 0.85558 0.0
C673 C 0.74065 0.08768 0.81881 0.0
C674 C 0.75752 0.07004 0.96857 0.0
C675 C 0.74388 0.08019 0.91178 0.0
C676 C 0.76229 0.06903 0.0142 0.0
C677 C 0.75691 0.07485 0.05185 0.0
C678 C 0.74757 0.07726 0.96034 0.0
C679 C 0.74638 0.0813 0.04248 0.0
C680 C 0.73977 0.09248 0.90204 0.0
C681 C 0.74389 0.07493 0.83003 0.0
N682 N 0.74223 0.08256 0.99754 0.0
N683 N 0.74566 0.07173 0.87552 0.0
H684 H 0.99358 0.40485 0.91221 0.0
H685 H 0.97194 0.39678 0.63946 0.0
H686 H 0.9487 0.3993 0.85843 0.0
H687 H 0.01968 0.42057 0.69215 0.0
H688 H 0.9623 0.39109 0.72021 0.0
H689 H 0.00227 0.40412 0.83178 0.0
C690 C 0.98549 0.40326 0.88352 0.0
C691 C 0.97048 0.40231 0.89178 0.0
C692 C 0.9749 0.39739 0.71395 0.0
C693 C 0.98025 0.40136 0.80022 0.0
C694 C 0.98039 0.40058 0.66799 0.0
C695 C 0.9966 0.40929 0.65931 0.0
C696 C 0.98572 0.40279 0.75125 0.0
C697 C 0.00707 0.41396 0.69746 0.0
C698 C 0.99046 0.4029 0.83775 0.0
C699 C 0.96044 0.40025 0.85345 0.0
N700 N 0.00144 0.4107 0.74185 0.0
N701 N 0.96552 0.39989 0.80926 0.0
H702 H 0.59149 0.58172 0.61446 0.0
H703 H 0.58029 0.59177 0.88811 0.0
H704 H 0.55785 0.597 0.66777 0.0
H705 H 0.59541 0.55804 0.83406 0.0
H706 H 0.57735 0.59913 0.80748 0.0
H707 H 0.59841 0.57834 0.69525 0.0
C708 C 0.58573 0.58458 0.64315 0.0
C709 C 0.57402 0.58956 0.63449 0.0
C710 C 0.58144 0.59022 0.8134 0.0
C711 C 0.58194 0.58585 0.72665 0.0
C712 C 0.58319 0.58607 0.8593 0.0
C713 C 0.588 0.57421 0.86769 0.0
C714 C 0.58482 0.58265 0.77572 0.0
C715 C 0.59156 0.56717 0.82909 0.0
C716 C 0.58962 0.58257 0.68914 0.0
C717 C 0.56687 0.59303 0.67294 0.0
N718 N 0.5899 0.57149 0.78478 0.0
N719 N 0.57094 0.59112 0.71736 0.0
H720 H 0.43051 0.02618 0.796 0.0
H721 H 0.40362 0.95281 0.62578 0.0
H722 H 0.40316 0.97827 0.84402 0.0
H723 H 0.413 0.99932 0.57586 0.0
H724 H 0.40412 0.9619 0.70618 0.0
H725 H 0.42504 0.01678 0.71505 0.0
C726 C 0.42325 0.0137 0.78945 0.0
C727 C 0.41734 0.00296 0.82664 0.0
C728 C 0.40588 0.97007 0.67763 0.0
C729 C 0.41122 0.99212 0.73436 0.0
C730 C 0.40565 0.96491 0.63179 0.0
C731 C 0.40836 0.97537 0.59426 0.0
C732 C 0.40915 0.98589 0.686 0.0
C733 C 0.41086 0.99089 0.60389 0.0
C734 C 0.42009 0.00835 0.74331 0.0
C735 C 0.40795 0.98693 0.81629 0.0
N736 N 0.41142 0.99576 0.64895 0.0
N737 N 0.40534 0.98195 0.77105 0.0
H738 H 0.59508 0.00107 0.40792 0.0
H739 H 0.60874 0.02378 0.13638 0.0
H740 H 0.60682 0.0479 0.35573 0.0
H741 H 0.57751 0.97694 0.18538 0.0
H742 H 0.61446 0.03271 0.218 0.0
H743 H 0.59491 0.99207 0.32716 0.0
C744 C 0.59785 0.00949 0.37953 0.0
C745 C 0.60082 0.0252 0.3883 0.0
C746 C 0.6065 0.02044 0.21075 0.0
C747 C 0.60079 0.01507 0.29643 0.0
C748 C 0.6033 0.01533 0.16432 0.0
C749 C 0.59254 0.99965 0.1543 0.0
C750 C 0.59909 0.00971 0.2472 0.0
C751 C 0.58577 0.98917 0.19171 0.0
C752 C 0.59769 0.00435 0.33358 0.0
C753 C 0.60431 0.03564 0.35033 0.0
N754 N 0.58913 0.9944 0.23657 0.0
N755 N 0.60418 0.03039 0.30599 0.0
H756 H 0.00737 0.6095 0.3481 0.0
H757 H 0.03882 0.57752 0.13563 0.0
H758 H 0.00064 0.56126 0.33848 0.0
H759 H 0.01901 0.61014 0.10989 0.0
H760 H 0.03072 0.57566 0.2173 0.0
H761 H 0.0171 0.61388 0.26669 0.0
C762 C 0.00803 0.5999 0.32895 0.0
C763 C 0.00318 0.58499 0.34975 0.0
C764 C 0.02822 0.58328 0.19381 0.0
C765 C 0.01445 0.58998 0.25801 0.0
C766 C 0.03288 0.58441 0.14728 0.0
C767 C 0.02948 0.59393 0.11593 0.0
C768 C 0.02033 0.59193 0.20946 0.0
C769 C 0.02174 0.60259 0.13298 0.0
C770 C 0.01348 0.60238 0.28269 0.0
C771 C 0.00418 0.5729 0.3236 0.0
N772 N 0.01744 0.60143 0.17885 0.0
N773 N 0.00983 0.5757 0.27925 0.0
H774 H 0.40014 0.44087 0.16433 0.0
H775 H 0.43929 0.40163 0.33185 0.0
H776 H 0.41587 0.40728 0.11301 0.0
H777 H 0.40539 0.41695 0.38264 0.0
H778 H 0.4321 0.40472 0.25138 0.0
H779 H 0.40311 0.43351 0.24467 0.0
C780 C 0.4041 0.43185 0.17001 0.0
C781 C 0.4078 0.42469 0.132 0.0
C782 C 0.42611 0.40723 0.28013 0.0
C783 C 0.41147 0.41641 0.22377 0.0
C784 C 0.43023 0.40551 0.32603 0.0
C785 C 0.42294 0.40907 0.36393 0.0
C786 C 0.41487 0.41289 0.27202 0.0
C787 C 0.41126 0.41404 0.3544 0.0
C788 C 0.40574 0.42762 0.21583 0.0
C789 C 0.41285 0.41305 0.14133 0.0
N790 N 0.40774 0.41602 0.30937 0.0
N791 N 0.41476 0.40943 0.18631 0.0
H792 H 0.30411 0.18519 0.14492 0.0
H793 H 0.36438 0.14803 0.19233 0.0
H794 H 0.35437 0.21308 0.16338 0.0
H795 H 0.31407 0.12013 0.17516 0.0
H796 H 0.36092 0.17209 0.18289 0.0
H797 H 0.30748 0.16113 0.15607 0.0
C798 C 0.31585 0.18623 0.15115 0.0
C799 C 0.32898 0.20111 0.1532 0.0
C800 C 0.35063 0.1607 0.18133 0.0
C801 C 0.33293 0.17374 0.1662 0.0
C802 C 0.35261 0.14698 0.18683 0.0
C803 C 0.3395 0.1321 0.18446 0.0
C804 C 0.33544 0.15948 0.17335 0.0
C805 C 0.3245 0.13139 0.17718 0.0
C806 C 0.31777 0.17252 0.15763 0.0
C807 C 0.34393 0.20182 0.1615 0.0
N808 N 0.32289 0.14489 0.17177 0.0
N809 N 0.34549 0.18833 0.16772 0.0
H810 H 0.82904 0.12217 0.16075 0.0
H811 H 0.83904 0.21104 0.18226 0.0
H812 H 0.79079 0.13363 0.1937 0.0
H813 H 0.87733 0.1996 0.14951 0.0
H814 H 0.82112 0.1827 0.1865 0.0
H815 H 0.84697 0.15051 0.15642 0.0
C816 C 0.82443 0.13064 0.16709 0.0
C817 C 0.80842 0.12554 0.1776 0.0
C818 C 0.83345 0.18639 0.17837 0.0
C819 C 0.82881 0.15796 0.1727 0.0
C820 C 0.84367 0.20257 0.17594 0.0
C821 C 0.85969 0.20768 0.16552 0.0
C822 C 0.8393 0.17525 0.17032 0.0
C823 C 0.86506 0.19619 0.15765 0.0
C824 C 0.83465 0.14682 0.16461 0.0
C825 C 0.80305 0.13704 0.18549 0.0
N826 N 0.8549 0.18054 0.16022 0.0
N827 N 0.81321 0.15268 0.18287 0.0
H828 H 0.87159 0.71043 0.14978 0.0
H829 H 0.79497 0.626 0.16201 0.0
H830 H 0.87304 0.66708 0.19099 0.0
H831 H 0.7935 0.66928 0.12016 0.0
H832 H 0.82369 0.64079 0.17201 0.0
H833 H 0.84292 0.6956 0.13874 0.0
C834 C 0.86588 0.69783 0.15668 0.0
C835 C 0.87472 0.69 0.17135 0.0
C836 C 0.81708 0.64703 0.16051 0.0
C837 C 0.84197 0.67292 0.15858 0.0
C838 C 0.80069 0.63857 0.15468 0.0
C839 C 0.79183 0.6464 0.14026 0.0
C840 C 0.82463 0.66344 0.15189 0.0
C841 C 0.79986 0.66274 0.13139 0.0
C842 C 0.84952 0.68934 0.15027 0.0
C843 C 0.8667 0.67362 0.17964 0.0
N844 N 0.81576 0.6707 0.13742 0.0
N845 N 0.85083 0.66565 0.17311 0.0
H846 H 0.14926 0.36358 0.31134 0.0
H847 H 0.18624 0.30316 0.35937 0.0
H848 H 0.12135 0.31316 0.32705 0.0
H849 H 0.21405 0.35361 0.34401 0.0
H850 H 0.16224 0.30652 0.34756 0.0
H851 H 0.17323 0.36013 0.32222 0.0
C852 C 0.14819 0.35179 0.31684 0.0
C853 C 0.13334 0.33864 0.31835 0.0
C854 C 0.1736 0.31686 0.34686 0.0
C855 C 0.16061 0.33459 0.33109 0.0
C856 C 0.18727 0.31493 0.35372 0.0
C857 C 0.20211 0.32812 0.35268 0.0
C858 C 0.17482 0.33207 0.3389 0.0
C859 C 0.20282 0.34312 0.34509 0.0
C860 C 0.16186 0.34981 0.32317 0.0
C861 C 0.13259 0.32362 0.32567 0.0
N862 N 0.18937 0.34469 0.33844 0.0
N863 N 0.14604 0.322 0.33187 0.0
H864 H 0.66542 0.79409 0.36603 0.0
H865 H 0.6593 0.87325 0.29487 0.0
H866 H 0.62156 0.79452 0.32592 0.0
H867 H 0.703 0.87167 0.33014 0.0
H868 H 0.64524 0.84455 0.30505 0.0
H869 H 0.67918 0.82252 0.35309 0.0
C870 C 0.65864 0.80019 0.35461 0.0
C871 C 0.64228 0.7919 0.3471 0.0
C872 C 0.6579 0.85046 0.31037 0.0
C873 C 0.65808 0.82463 0.33195 0.0
C874 C 0.66596 0.86685 0.30446 0.0
C875 C 0.68237 0.87487 0.3117 0.0
C876 C 0.66629 0.84201 0.32377 0.0
C877 C 0.69037 0.86597 0.32415 0.0
C878 C 0.66655 0.81646 0.3471 0.0
C879 C 0.63417 0.80046 0.33223 0.0
N880 N 0.68224 0.85004 0.32995 0.0
N881 N 0.64216 0.81638 0.32513 0.0
H882 H 0.21033 0.83886 0.3105 0.0
H883 H 0.12236 0.8306 0.33611 0.0
H884 H 0.19959 0.87852 0.32653 0.0
H885 H 0.13262 0.79092 0.313 0.0
H886 H 0.15069 0.84838 0.33238 0.0
H887 H 0.18192 0.82102 0.31056 0.0
C888 C 0.20201 0.84381 0.3138 0.0
C889 C 0.20733 0.86018 0.31858 0.0
C890 C 0.14674 0.83578 0.32804 0.0
C891 C 0.17486 0.8399 0.31894 0.0
C892 C 0.13057 0.82564 0.33022 0.0
C893 C 0.12513 0.80927 0.32492 0.0
C894 C 0.15756 0.8295 0.32062 0.0
C895 C 0.1363 0.80348 0.31731 0.0
C896 C 0.1858 0.83364 0.3139 0.0
C897 C 0.19602 0.86597 0.32282 0.0
N898 N 0.15196 0.81356 0.31548 0.0
N899 N 0.18037 0.85586 0.32303 0.0
H900 H 0.63575 0.85262 0.84758 0.0
H901 H 0.69788 0.81684 0.87628 0.0
H902 H 0.68612 0.88169 0.85654 0.0
H903 H 0.64733 0.78879 0.86802 0.0
H904 H 0.69404 0.84091 0.87356 0.0
H905 H 0.63993 0.82916 0.85933 0.0
C906 C 0.64769 0.85405 0.85217 0.0
C907 C 0.66061 0.86908 0.85084 0.0
C908 C 0.68381 0.82947 0.8726 0.0
C909 C 0.66553 0.84229 0.86421 0.0
C910 C 0.686 0.81576 0.87421 0.0
C911 C 0.67291 0.80084 0.87209 0.0
C912 C 0.66843 0.82816 0.86884 0.0
C913 C 0.65776 0.80006 0.86947 0.0
C914 C 0.65009 0.84066 0.85891 0.0
C915 C 0.67584 0.87028 0.85717 0.0
N916 N 0.65595 0.81352 0.86773 0.0
N917 N 0.6779 0.85703 0.86338 0.0
H918 H 0.20884 0.8684 0.839 0.0
H919 H 0.11947 0.80153 0.85801 0.0
H920 H 0.16905 0.87878 0.85626 0.0
H921 H 0.15909 0.79148 0.83256 0.0
H922 H 0.13749 0.82975 0.86078 0.0
H923 H 0.1909 0.84019 0.84021 0.0
C924 C 0.19631 0.86474 0.84325 0.0
C925 C 0.19042 0.87597 0.84746 0.0
C926 C 0.14227 0.8214 0.85464 0.0
C927 C 0.16976 0.84359 0.84872 0.0
C928 C 0.13199 0.80527 0.85305 0.0
C929 C 0.1378 0.79413 0.84495 0.0
C930 C 0.15852 0.82648 0.84813 0.0
C931 C 0.15411 0.79966 0.83883 0.0
C932 C 0.18606 0.84861 0.84385 0.0
C933 C 0.17408 0.87052 0.85288 0.0
N934 N 0.1639 0.81545 0.84051 0.0
N935 N 0.16431 0.85471 0.85326 0.0
H936 H 0.12537 0.28902 0.84058 0.0
H937 H 0.20151 0.37391 0.83151 0.0
H938 H 0.12381 0.33223 0.79837 0.0
H939 H 0.20333 0.33087 0.8741 0.0
H940 H 0.17294 0.3588 0.81933 0.0
H941 H 0.15402 0.304 0.85225 0.0
C942 C 0.13106 0.30161 0.83349 0.0
C943 C 0.12218 0.30936 0.8185 0.0
C944 C 0.17959 0.35267 0.83145 0.0
C945 C 0.15489 0.32661 0.83206 0.0
C946 C 0.1959 0.36132 0.83853 0.0
C947 C 0.20482 0.35366 0.85386 0.0
C948 C 0.17217 0.33624 0.83973 0.0
C949 C 0.19692 0.33728 0.86225 0.0
C950 C 0.1474 0.31018 0.8403 0.0
C951 C 0.13016 0.32573 0.81002 0.0
N952 N 0.18109 0.32913 0.85502 0.0
N953 N 0.146 0.33379 0.81699 0.0
H954 H 0.78555 0.64703 0.65883 0.0
H955 H 0.87976 0.68867 0.67957 0.0
H956 H 0.81435 0.69739 0.64529 0.0
H957 H 0.85115 0.63812 0.68758 0.0
H958 H 0.85585 0.69216 0.67022 0.0
H959 H 0.80937 0.64359 0.67155 0.0
C960 C 0.79691 0.65738 0.65839 0.0
C961 C 0.79801 0.67253 0.65091 0.0
C962 C 0.85477 0.6803 0.67418 0.0
C963 C 0.82531 0.66868 0.6657 0.0
C964 C 0.86842 0.6783 0.67965 0.0
C965 C 0.86741 0.66307 0.68424 0.0
C966 C 0.84 0.66698 0.67322 0.0
C967 C 0.85243 0.65007 0.68413 0.0
C968 C 0.8105 0.6554 0.66575 0.0
C969 C 0.81301 0.6855 0.65081 0.0
N970 N 0.83929 0.65232 0.67852 0.0
N971 N 0.82609 0.68328 0.65814 0.0
H972 H 0.37677 0.20516 0.66922 0.0
H973 H 0.29212 0.12888 0.65792 0.0
H974 H 0.33356 0.20698 0.62907 0.0
H975 H 0.33531 0.12701 0.698 0.0
H976 H 0.30708 0.15759 0.64743 0.0
H977 H 0.36185 0.17642 0.6794 0.0
C978 C 0.36418 0.19951 0.66232 0.0
C979 C 0.35641 0.20847 0.64828 0.0
C980 C 0.31327 0.15089 0.65861 0.0
C981 C 0.33923 0.17567 0.6601 0.0
C982 C 0.30472 0.13452 0.66471 0.0
C983 C 0.31247 0.12555 0.67885 0.0
C984 C 0.32969 0.15833 0.66671 0.0
C985 C 0.32884 0.13345 0.68703 0.0
C986 C 0.35565 0.18312 0.66825 0.0
C987 C 0.34005 0.20055 0.63997 0.0
N988 N 0.33689 0.14935 0.68079 0.0
N989 N 0.33202 0.18464 0.64607 0.0
H990 H 0.80166 0.12256 0.70922 0.0
H991 H 0.86568 0.20916 0.6343 0.0
H992 H 0.78935 0.15812 0.6533 0.0
H993 H 0.87791 0.17353 0.69013 0.0
H994 H 0.83776 0.19064 0.64062 0.0
H995 H 0.82956 0.14112 0.70307 0.0
C996 C 0.80483 0.13433 0.69581 0.0
C997 C 0.79315 0.13881 0.68173 0.0
C998 C 0.84652 0.18683 0.65141 0.0
C999 C 0.82518 0.16014 0.67432 0.0
C1000 C 0.86249 0.19739 0.64772 0.0
C1001 C 0.87416 0.19287 0.66171 0.0
C1002 C 0.84211 0.1716 0.66931 0.0
C1003 C 0.86931 0.17749 0.67886 0.0
C1004 C 0.82079 0.14491 0.69222 0.0
C1005 C 0.79797 0.1542 0.66462 0.0
N1006 N 0.85365 0.16741 0.68227 0.0
N1007 N 0.81363 0.16431 0.6613 0.0
H1008 H 0.98054 0.45369 0.51997 0.0
H1009 H 0.01815 0.54818 0.52613 0.0
H1010 H 0.0304 0.48365 0.53917 0.0
H1011 H 0.96892 0.51767 0.49834 0.0
H1012 H 0.02273 0.52481 0.5362 0.0
H1013 H 0.97595 0.4771 0.51724 0.0
C1014 C 0.99054 0.46523 0.52377 0.0
C1015 C 0.0059 0.46676 0.5296 0.0
C1016 C 0.01092 0.52323 0.52805 0.0
C1017 C 0.00071 0.49366 0.52639 0.0
C1018 C 0.00829 0.53655 0.52234 0.0
C1019 C 0.99314 0.53482 0.51121 0.0
C1020 C 0.9983 0.50809 0.52261 0.0
C1021 C 0.98079 0.51951 0.50678 0.0
C1022 C 0.9879 0.4786 0.52218 0.0
C1023 C 0.01838 0.48198 0.5345 0.0
N1024 N 0.98366 0.50673 0.51237 0.0
N1025 N 0.01553 0.49488 0.53262 0.0
H1026 H 0.45366 0.46636 0.51636 0.0
H1027 H 0.54262 0.53277 0.48236 0.0
H1028 H 0.49266 0.45583 0.48561 0.0
H1029 H 0.50373 0.54339 0.51403 0.0
H1030 H 0.52448 0.50459 0.48313 0.0
H1031 H 0.47176 0.49457 0.51558 0.0
C1032 C 0.46606 0.46999 0.50947 0.0
C1033 C 0.47168 0.45873 0.50102 0.0
C1034 C 0.51989 0.51305 0.4899 0.0
C1035 C 0.49249 0.49106 0.50003 0.0
C1036 C 0.53024 0.52916 0.48945 0.0
C1037 C 0.52466 0.54044 0.49816 0.0
C1038 C 0.5038 0.50813 0.49914 0.0
C1039 C 0.50852 0.53509 0.50713 0.0
C1040 C 0.47639 0.48611 0.50902 0.0
C1041 C 0.48784 0.46412 0.49231 0.0
N1042 N 0.49864 0.5193 0.50741 0.0
N1043 N 0.49769 0.4799 0.49201 0.0
H1044 H 0.54427 0.04154 0.48658 0.0
H1045 H 0.46436 0.9598 0.49233 0.0
H1046 H 0.54237 0.99688 0.52962 0.0
H1047 H 0.46624 0.0045 0.44984 0.0
H1048 H 0.49303 0.9731 0.50546 0.0
H1049 H 0.51563 0.02822 0.47315 0.0
C1050 C 0.53782 0.02897 0.49344 0.0
C1051 C 0.54572 0.02033 0.50926 0.0
C1052 C 0.48716 0.97998 0.49313 0.0
C1053 C 0.51299 0.00496 0.49368 0.0
C1054 C 0.47081 0.97237 0.4855 0.0
C1055 C 0.46289 0.98103 0.46996 0.0
C1056 C 0.49565 0.99638 0.4852 0.0
C1057 C 0.47184 0.99733 0.46185 0.0
C1058 C 0.52148 0.02135 0.48564 0.0
C1059 C 0.53678 0.00404 0.51741 0.0
N1060 N 0.48769 0.00446 0.46962 0.0
N1061 N 0.52094 0.9969 0.50948 0.0
H1062 H 0.45774 0.98533 0.98552 0.0
H1063 H 0.55191 0.02119 0.99359 0.0
H1064 H 0.48861 0.03503 0.96641 0.0
H1065 H 0.52016 0.9723 0.02182 0.0
H1066 H 0.52912 0.02668 0.98276 0.0
H1067 H 0.4807 0.98047 0.99736 0.0
C1068 C 0.46939 0.99524 0.98368 0.0
C1069 C 0.47129 0.01062 0.97494 0.0
C1070 C 0.52715 0.01477 0.99145 0.0
C1071 C 0.4977 0.00513 0.98866 0.0
C1072 C 0.54013 0.01163 0.99767 0.0
C1073 C 0.53788 0.99626 0.00855 0.0
C1074 C 0.51183 0.00242 0.996 0.0
C1075 C 0.52241 0.98431 0.01343 0.0
C1076 C 0.48251 0.99246 0.99057 0.0
C1077 C 0.48665 0.023 0.97302 0.0
N1078 N 0.50997 0.98764 0.007 0.0
N1079 N 0.49931 0.01998 0.97984 0.0
H1080 H 0.99457 0.54073 0.96158 0.0
H1081 H 0.00168 0.46176 0.02858 0.0
H1082 H 0.03874 0.53942 0.9916 0.0
H1083 H 0.9575 0.46201 0.99147 0.0
H1084 H 0.01526 0.49021 0.01561 0.0
H1085 H 0.98076 0.51203 0.97172 0.0
C1086 C 0.00139 0.53438 0.97001 0.0
C1087 C 0.01786 0.54249 0.97578 0.0
C1088 C 0.0026 0.4841 0.01029 0.0
C1089 C 0.00205 0.5096 0.98782 0.0
C1090 C 0.9948 0.46782 0.01783 0.0
C1091 C 0.97839 0.45947 0.01116 0.0
C1092 C 0.99398 0.49222 0.99599 0.0
C1093 C 0.97014 0.46798 0.99712 0.0
C1094 C 0.99347 0.51799 0.97588 0.0
C1095 C 0.02606 0.53366 0.98674 0.0
N1096 N 0.97803 0.4839 0.99 0.0
N1097 N 0.01806 0.51771 0.99258 0.0
H1098 H 0.45389 0.49471 0.01184 0.0
H1099 H 0.54207 0.50349 0.986 0.0
H1100 H 0.46451 0.45569 0.98107 0.0
H1101 H 0.5314 0.5424 0.01798 0.0
H1102 H 0.51367 0.48572 0.98393 0.0
H1103 H 0.48229 0.51245 0.01382 0.0
C1104 C 0.46219 0.48989 0.00542 0.0
C1105 C 0.45684 0.47372 0.99629 0.0
C1106 C 0.51755 0.49815 0.99144 0.0
C1107 C 0.48931 0.49389 0.99857 0.0
C1108 C 0.53376 0.50828 0.99266 0.0
C1109 C 0.5391 0.52443 0.00218 0.0
C1110 C 0.50663 0.50424 0.99977 0.0
C1111 C 0.52781 0.53002 0.0105 0.0
C1112 C 0.4784 0.50001 0.00659 0.0
C1113 C 0.46811 0.46809 0.98826 0.0
N1114 N 0.51214 0.51996 0.00907 0.0
N1115 N 0.48379 0.47814 0.98961 0.0
H1116 H 0.39724 0.0435 0.95951 0.0
H1117 H 0.39895 0.1056 0.14068 0.0
H1118 H 0.44186 0.06803 0.03148 0.0
H1119 H 0.36655 0.0559 0.14962 0.0
H1120 H 0.4155 0.09891 0.08683 0.0
H1121 H 0.38593 0.05654 0.01044 0.0
C1122 C 0.40481 0.05202 0.98499 0.0
C1123 C 0.42041 0.05447 0.99198 0.0
C1124 C 0.40488 0.08957 0.10143 0.0
C1125 C 0.40752 0.06929 0.05005 0.0
C1126 C 0.39552 0.09331 0.13223 0.0
C1127 C 0.38131 0.08128 0.14933 0.0
C1128 C 0.39965 0.07383 0.08718 0.0
C1129 C 0.37734 0.06556 0.13715 0.0
C1130 C 0.39831 0.05935 0.01413 0.0
C1131 C 0.42973 0.06575 0.02531 0.0
N1132 N 0.38629 0.06233 0.10604 0.0
N1133 N 0.42304 0.07261 0.05398 0.0
H1134 H 0.90286 0.31001 0.2026 0.0
H1135 H 0.91342 0.38172 0.11664 0.0
H1136 H 0.87239 0.28865 0.08429 0.0
H1137 H 0.91353 0.3578 0.9882 0.0
H1138 H 0.8975 0.35591 0.15332 0.0
H1139 H 0.90644 0.33605 0.17602 0.0
C1140 C 0.89655 0.3108 0.17178 0.0
C1141 C 0.88731 0.29725 0.14558 0.0
C1142 C 0.90063 0.35639 0.11671 0.0
C1143 C 0.89156 0.32693 0.11444 0.0
C1144 C 0.9095 0.37108 0.0956 0.0
C1145 C 0.91485 0.3718 0.04952 0.0
C1146 C 0.89702 0.34246 0.0912 0.0
C1147 C 0.90969 0.35768 0.02395 0.0
C1148 C 0.8985 0.32564 0.15676 0.0
C1149 C 0.87951 0.29886 0.10559 0.0
N1150 N 0.90119 0.34354 0.0453 0.0
N1151 N 0.88221 0.31352 0.09036 0.0
H1152 H 0.71359 0.57986 0.04331 0.0
H1153 H 0.64124 0.5678 0.95856 0.0
H1154 H 0.69051 0.58036 0.17279 0.0
H1155 H 0.62088 0.53884 0.08008 0.0
H1156 H 0.66746 0.57194 0.98478 0.0
H1157 H 0.68762 0.56379 0.00773 0.0
C1158 C 0.7031 0.57602 0.06479 0.0
C1159 C 0.70412 0.58152 0.11088 0.0
C1160 C 0.65723 0.56421 0.0049 0.0
C1161 C 0.67455 0.56354 0.07038 0.0
C1162 C 0.64228 0.56194 0.99009 0.0
C1163 C 0.62894 0.55297 0.01722 0.0
C1164 C 0.65886 0.55784 0.04788 0.0
C1165 C 0.6309 0.54575 0.05805 0.0
C1166 C 0.68831 0.56707 0.04429 0.0
C1167 C 0.69017 0.57642 0.13702 0.0
N1168 N 0.64567 0.54873 0.07293 0.0
N1169 N 0.67592 0.56786 0.11625 0.0
H1170 H 0.03885 0.39266 0.52535 0.0
H1171 H 0.10596 0.39715 0.36545 0.0
H1172 H 0.06411 0.4388 0.46248 0.0
H1173 H 0.05692 0.36694 0.33367 0.0
H1174 H 0.09759 0.4131 0.41667 0.0
H1175 H 0.05359 0.38281 0.476 0.0
C1176 C 0.04784 0.40085 0.50222 0.0
C1177 C 0.05008 0.41648 0.49731 0.0
C1178 C 0.08881 0.40316 0.39751 0.0
C1179 C 0.06684 0.40526 0.44113 0.0
C1180 C 0.09352 0.39413 0.36821 0.0
C1181 C 0.08208 0.38061 0.34576 0.0
C1182 C 0.07267 0.39831 0.40463 0.0
C1183 C 0.06612 0.37716 0.35063 0.0
C1184 C 0.05614 0.39519 0.47402 0.0
C1185 C 0.06199 0.42662 0.46699 0.0
N1186 N 0.06187 0.38574 0.38041 0.0
N1187 N 0.06982 0.42075 0.43914 0.0
H1188 H 0.57946 0.71369 0.45711 0.0
H1189 H 0.53627 0.61999 0.42162 0.0
H1190 H 0.57532 0.69106 0.32334 0.0
H1191 H 0.56737 0.64327 0.53729 0.0
H1192 H 0.53992 0.64593 0.39264 0.0
H1193 H 0.56389 0.68759 0.49261 0.0
C1194 C 0.57459 0.7033 0.43483 0.0
C1195 C 0.57861 0.70443 0.38731 0.0
C1196 C 0.54553 0.64525 0.4251 0.0
C1197 C 0.56099 0.67478 0.42747 0.0
C1198 C 0.54343 0.63051 0.44174 0.0
C1199 C 0.55167 0.62958 0.48162 0.0
C1200 C 0.55563 0.65903 0.4492 0.0
C1201 C 0.56093 0.64354 0.50617 0.0
C1202 C 0.56589 0.68845 0.45518 0.0
C1203 C 0.5724 0.69061 0.36012 0.0
N1204 N 0.56276 0.65774 0.48939 0.0
N1205 N 0.56401 0.6763 0.38068 0.0
H1206 H 0.28894 0.87522 0.41301 0.0
H1207 H 0.38199 0.91882 0.36716 0.0
H1208 H 0.31004 0.90461 0.29278 0.0
H1209 H 0.36152 0.9181 0.50229 0.0
H1210 H 0.35536 0.90265 0.3356 0.0
H1211 H 0.31551 0.88042 0.4408 0.0
C1212 C 0.29912 0.8823 0.3917 0.0
C1213 C 0.29741 0.88958 0.35072 0.0
C1214 C 0.35681 0.90558 0.37253 0.0
C1215 C 0.32753 0.8953 0.38171 0.0
C1216 C 0.37196 0.91463 0.39064 0.0
C1217 C 0.37387 0.91974 0.43734 0.0
C1218 C 0.34361 0.90138 0.40167 0.0
C1219 C 0.36048 0.91435 0.46609 0.0
C1220 C 0.31421 0.88531 0.40767 0.0
C1221 C 0.31094 0.89885 0.32468 0.0
N1222 N 0.34587 0.90555 0.44771 0.0
N1223 N 0.32547 0.90151 0.34069 0.0
H1224 H 0.59131 0.94264 0.0459 0.0
H1225 H 0.60974 0.89038 0.92694 0.0
H1226 H 0.56038 0.93934 0.93079 0.0
H1227 H 0.60707 0.91882 0.81205 0.0
H1228 H 0.59179 0.89748 0.97176 0.0
H1229 H 0.59772 0.92308 0.00733 0.0
C1230 C 0.58549 0.93739 0.01323 0.0
C1231 C 0.57536 0.94257 0.99137 0.0
C1232 C 0.59489 0.90185 0.93636 0.0
C1233 C 0.5828 0.92052 0.94672 0.0
C1234 C 0.60502 0.89774 0.91059 0.0
C1235 C 0.61018 0.90436 0.86616 0.0
C1236 C 0.58985 0.91254 0.91729 0.0
C1237 C 0.60359 0.91371 0.84654 0.0
C1238 C 0.58907 0.92618 0.99133 0.0
C1239 C 0.56821 0.93556 0.94882 0.0
N1240 N 0.5939 0.91772 0.87257 0.0
N1241 N 0.57246 0.92524 0.92706 0.0
H1242 H 0.12583 0.71437 0.9174 0.0
H1243 H 0.0824 0.62066 0.88194 0.0
H1244 H 0.09571 0.69125 0.79972 0.0
H1245 H 0.08581 0.64332 0.01532 0.0
H1246 H 0.0982 0.64673 0.8467 0.0
H1247 H 0.12167 0.68836 0.94724 0.0
C1248 C 0.11879 0.70387 0.89704 0.0
C1249 C 0.11098 0.70487 0.85627 0.0
C1250 C 0.09597 0.64589 0.88401 0.0
C1251 C 0.1064 0.67533 0.88975 0.0
C1252 C 0.08712 0.63105 0.90424 0.0
C1253 C 0.08282 0.62992 0.95155 0.0
C1254 C 0.10075 0.65956 0.91161 0.0
C1255 C 0.08891 0.64376 0.9787 0.0
C1256 C 0.11638 0.68909 0.91419 0.0
C1257 C 0.10184 0.69093 0.83147 0.0
N1258 N 0.09746 0.65806 0.95824 0.0
N1259 N 0.09971 0.67669 0.84876 0.0
H1260 H 0.35439 0.43015 0.03723 0.0
H1261 H 0.30445 0.42307 0.82178 0.0
H1262 H 0.37582 0.46098 0.91993 0.0
H1263 H 0.28385 0.41831 0.95871 0.0
H1264 H 0.33063 0.4388 0.85589 0.0
H1265 H 0.32844 0.42685 0.01077 0.0
C1266 C 0.35364 0.4365 0.00648 0.0
C1267 C 0.3672 0.44578 0.98055 0.0
C1268 C 0.32034 0.43481 0.87827 0.0
C1269 C 0.33758 0.44172 0.9494 0.0
C1270 C 0.30541 0.42592 0.85875 0.0
C1271 C 0.29203 0.41949 0.88751 0.0
C1272 C 0.32191 0.4367 0.92705 0.0
C1273 C 0.29389 0.42323 0.93534 0.0
C1274 C 0.33885 0.43467 0.99148 0.0
C1275 C 0.36561 0.45374 0.94091 0.0
N1276 N 0.30863 0.43119 0.95393 0.0
N1277 N 0.351 0.4512 0.92577 0.0
H1278 H 0.89526 0.60123 0.64914 0.0
H1279 H 0.95216 0.59945 0.45018 0.0
H1280 H 0.94171 0.63865 0.6201 0.0
H1281 H 0.93437 0.56016 0.54663 0.0
H1282 H 0.93757 0.61118 0.49254 0.0
H1283 H 0.90098 0.58366 0.59618 0.0
C1284 C 0.90666 0.60566 0.63216 0.0
C1285 C 0.91809 0.62135 0.63923 0.0
C1286 C 0.93648 0.59973 0.5034 0.0
C1287 C 0.92419 0.60185 0.57763 0.0
C1288 C 0.9447 0.59299 0.47916 0.0
C1289 C 0.9448 0.57906 0.49577 0.0
C1290 C 0.92828 0.59245 0.54422 0.0
C1291 C 0.93478 0.57107 0.5332 0.0
C1292 C 0.90981 0.59573 0.60186 0.0
C1293 C 0.93261 0.62662 0.6161 0.0
N1294 N 0.92717 0.57811 0.55715 0.0
N1295 N 0.93514 0.61696 0.5859 0.0
H1296 H 0.46161 0.38013 0.57797 0.0
H1297 H 0.41993 0.28635 0.54426 0.0
H1298 H 0.43005 0.35596 0.46404 0.0
H1299 H 0.42529 0.30914 0.67831 0.0
H1300 H 0.43479 0.31241 0.50794 0.0
H1301 H 0.45889 0.35451 0.60695 0.0
C1302 C 0.45453 0.36949 0.55824 0.0
C1303 C 0.4459 0.37007 0.51887 0.0
C1304 C 0.43322 0.31161 0.54556 0.0
C1305 C 0.44299 0.34097 0.55127 0.0
C1306 C 0.42494 0.29677 0.56638 0.0
C1307 C 0.42142 0.29568 0.61428 0.0
C1308 C 0.43821 0.32532 0.57312 0.0
C1309 C 0.42781 0.30955 0.64124 0.0
C1310 C 0.45295 0.35492 0.57488 0.0
C1311 C 0.43677 0.35596 0.49479 0.0
N1312 N 0.43576 0.32386 0.6202 0.0
N1313 N 0.43546 0.34194 0.51156 0.0
H1314 H 0.64744 0.08123 0.47762 0.0
H1315 H 0.69575 0.10694 0.70642 0.0
H1316 H 0.62613 0.08613 0.60587 0.0
H1317 H 0.71805 0.1209 0.57155 0.0
H1318 H 0.67048 0.10228 0.67085 0.0
H1319 H 0.67347 0.09872 0.50928 0.0
C1320 C 0.64824 0.08645 0.51191 0.0
C1321 C 0.63468 0.08226 0.53925 0.0
C1322 C 0.68096 0.10677 0.64921 0.0
C1323 C 0.66444 0.10171 0.57656 0.0
C1324 C 0.6954 0.10943 0.66953 0.0
C1325 C 0.70896 0.11413 0.64177 0.0
C1326 C 0.68003 0.10844 0.60059 0.0
C1327 C 0.70786 0.11721 0.59419 0.0
C1328 C 0.66311 0.09639 0.53009 0.0
C1329 C 0.63633 0.08918 0.58362 0.0
N1330 N 0.69356 0.11393 0.57485 0.0
N1331 N 0.651 0.09824 0.60147 0.0
H1332 H 0.6987 0.72222 0.8438 0.0
H1333 H 0.76999 0.73079 0.69566 0.0
H1334 H 0.72924 0.77051 0.80459 0.0
H1335 H 0.72191 0.7018 0.65123 0.0
H1336 H 0.76036 0.74537 0.74805 0.0
H1337 H 0.71316 0.71321 0.79066 0.0
C1338 C 0.70871 0.73097 0.82495 0.0
C1339 C 0.71263 0.74712 0.82801 0.0
C1340 C 0.75209 0.73605 0.72584 0.0
C1341 C 0.7291 0.73683 0.76731 0.0
C1342 C 0.75752 0.72781 0.69582 0.0
C1343 C 0.74667 0.71492 0.6696 0.0
C1344 C 0.7358 0.73105 0.72989 0.0
C1345 C 0.73066 0.71151 0.67122 0.0
C1346 C 0.71684 0.7258 0.79443 0.0
C1347 C 0.72581 0.75794 0.80293 0.0
N1348 N 0.72565 0.71927 0.70181 0.0
N1349 N 0.73356 0.75258 0.77297 0.0
H1350 H 0.20205 0.9551 0.75042 0.0
H1351 H 0.24667 0.04893 0.78213 0.0
H1352 H 0.23203 0.97874 0.86779 0.0
H1353 H 0.24316 0.02544 0.65018 0.0
H1354 H 0.23002 0.02319 0.818 0.0
H1355 H 0.20631 0.98101 0.7192 0.0
C1356 C 0.20904 0.9657 0.77043 0.0
C1357 C 0.21682 0.96489 0.81147 0.0
C1358 C 0.23242 0.02379 0.7808 0.0
C1359 C 0.2215 0.99429 0.77654 0.0
C1360 C 0.24175 0.03846 0.76022 0.0
C1361 C 0.24629 0.03922 0.71324 0.0
C1362 C 0.2274 0.00995 0.75386 0.0
C1363 C 0.23991 0.02528 0.68657 0.0
C1364 C 0.21151 0.98042 0.75252 0.0
C1365 C 0.22593 0.97894 0.83584 0.0
N1366 N 0.23092 0.01114 0.70738 0.0
N1367 N 0.22812 0.9931 0.81784 0.0
H1368 H 0.0211 0.24537 0.8569 0.0
H1369 H 0.97089 0.22371 0.63111 0.0
H1370 H 0.04092 0.24203 0.72415 0.0
H1371 H 0.94959 0.20904 0.76698 0.0
H1372 H 0.99616 0.22711 0.66364 0.0
H1373 H 0.99468 0.22863 0.82641 0.0
C1374 C 0.01988 0.2406 0.82181 0.0
C1375 C 0.03314 0.24506 0.79293 0.0
C1376 C 0.98589 0.22274 0.68613 0.0
C1377 C 0.00294 0.22651 0.75701 0.0
C1378 C 0.97145 0.22082 0.66755 0.0
C1379 C 0.95819 0.21628 0.69655 0.0
C1380 C 0.98716 0.22051 0.7343 0.0
C1381 C 0.95956 0.21264 0.74345 0.0
C1382 C 0.00479 0.23111 0.80428 0.0
C1383 C 0.03097 0.23875 0.74758 0.0
N1384 N 0.97388 0.21521 0.76116 0.0
N1385 N 0.01609 0.23014 0.73051 0.0
H1386 H 0.30087 0.27834 0.15049 0.0
H1387 H 0.23154 0.27053 0.30933 0.0
H1388 H 0.27252 0.23098 0.20176 0.0
H1389 H 0.2802 0.3022 0.34104 0.0
H1390 H 0.24072 0.25568 0.25643 0.0
H1391 H 0.28645 0.288 0.20169 0.0
C1392 C 0.2913 0.26989 0.17148 0.0
C1393 C 0.28807 0.25388 0.17258 0.0
C1394 C 0.24925 0.26571 0.27588 0.0
C1395 C 0.27166 0.26491 0.23102 0.0
C1396 C 0.24409 0.2741 0.3062 0.0
C1397 C 0.25516 0.28773 0.32913 0.0
C1398 C 0.26548 0.27131 0.26814 0.0
C1399 C 0.27126 0.29188 0.32373 0.0
C1400 C 0.2832 0.27544 0.20086 0.0
C1401 C 0.27544 0.24344 0.20025 0.0
N1402 N 0.27595 0.28393 0.29294 0.0
N1403 N 0.26775 0.24918 0.22915 0.0
H1404 H 0.75084 0.97428 0.36031 0.0
H1405 H 0.76593 0.02323 0.14204 0.0
H1406 H 0.75049 0.95251 0.22747 0.0
H1407 H 0.79466 0.04468 0.2635 0.0
H1408 H 0.76146 0.99714 0.171 0.0
H1409 H 0.76865 1.00008 0.32748 0.0
C1410 C 0.75504 0.97488 0.32477 0.0
C1411 C 0.74924 0.96132 0.2965 0.0
C1412 C 0.76914 0.00758 0.19064 0.0
C1413 C 0.76892 0.99075 0.2582 0.0
C1414 C 0.77166 0.02244 0.17417 0.0
C1415 C 0.78063 0.03603 0.20054 0.0
C1416 C 0.77515 0.00632 0.23462 0.0
C1417 C 0.78772 0.03443 0.24211 0.0
C1418 C 0.76515 0.98959 0.30599 0.0
C1419 C 0.75482 0.96271 0.25045 0.0
N1420 N 0.78444 0.01976 0.25866 0.0
N1421 N 0.76396 0.97726 0.23218 0.0
H1422 H 0.02229 0.76633 0.36945 0.0
H1423 H 0.9755 0.75824 0.14632 0.0
H1424 H 0.04516 0.79715 0.25328 0.0
H1425 H 0.95271 0.75387 0.2796 0.0
H1426 H 0.0011 0.77411 0.18363 0.0
H1427 H 0.99664 0.76268 0.33892 0.0
C1428 C 0.02191 0.77264 0.33813 0.0
C1429 C 0.0358 0.782 0.3137 0.0
C1430 C 0.99046 0.77016 0.20445 0.0
C1431 C 0.00656 0.77752 0.2779 0.0
C1432 C 0.97586 0.76119 0.18311 0.0
C1433 C 0.96203 0.75487 0.20994 0.0
C1434 C 0.99124 0.77225 0.25321 0.0
C1435 C 0.96312 0.75872 0.25766 0.0
C1436 C 0.00729 0.77059 0.32079 0.0
C1437 C 0.03469 0.78987 0.27319 0.0
N1438 N 0.97755 0.76677 0.27815 0.0
N1439 N 0.02027 0.78711 0.2558 0.0
H1440 H 0.30162 0.06177 0.07277 0.0
H1441 H 0.32561 0.06921 0.8018 0.0
H1442 H 0.34973 0.08393 0.02334 0.0
H1443 H 0.28068 0.06469 0.8511 0.0
H1444 H 0.33323 0.06752 0.88314 0.0
H1445 H 0.29247 0.05571 0.99125 0.0
C1446 C 0.31023 0.06512 0.04483 0.0
C1447 C 0.3264 0.07355 0.05448 0.0
C1448 C 0.32163 0.0667 0.87595 0.0
C1449 C 0.31613 0.0666 0.96194 0.0
C1450 C 0.31729 0.06762 0.82967 0.0
C1451 C 0.30263 0.06734 0.82003 0.0
C1452 C 0.31113 0.06528 0.91245 0.0
C1453 C 0.29221 0.06521 0.85727 0.0
C1454 C 0.30503 0.06172 0.99847 0.0
C1455 C 0.33712 0.07762 0.01718 0.0
N1456 N 0.29669 0.06435 0.90191 0.0
N1457 N 0.3318 0.07418 0.9725 0.0
H1458 H 0.88711 0.26129 0.99439 0.0
H1459 H 0.94597 0.25371 0.80673 0.0
H1460 H 0.93035 0.25945 0.03397 0.0
H1461 H 0.90107 0.25291 0.77356 0.0
H1462 H 0.94277 0.25975 0.88849 0.0
H1463 H 0.89423 0.26196 0.91253 0.0
C1464 C 0.89817 0.26108 0.98582 0.0
C1465 C 0.90806 0.26012 0.0211 0.0
C1466 C 0.93375 0.2585 0.86313 0.0
C1467 C 0.91632 0.26081 0.92674 0.0
C1468 C 0.93562 0.25517 0.81641 0.0
C1469 C 0.9237 0.25271 0.78338 0.0
C1470 C 0.9199 0.2594 0.87674 0.0
C1471 C 0.9105 0.25462 0.79788 0.0
C1472 C 0.90226 0.2615 0.93892 0.0
C1473 C 0.92235 0.26009 0.00782 0.0
N1474 N 0.9089 0.25771 0.84345 0.0
N1475 N 0.92599 0.26026 0.96157 0.0
H1476 H 0.73391 0.65956 0.02147 0.0
H1477 H 0.72712 0.6353 0.75073 0.0
H1478 H 0.73019 0.61486 0.97153 0.0
H1479 H 0.74669 0.68349 0.80039 0.0
H1480 H 0.72079 0.62606 0.8319 0.0
H1481 H 0.73128 0.66682 0.94048 0.0
C1482 C 0.73231 0.65121 0.99354 0.0
C1483 C 0.73256 0.63674 0.00286 0.0
C1484 C 0.72625 0.63865 0.82481 0.0
C1485 C 0.72944 0.64483 0.91084 0.0
C1486 C 0.7298 0.64389 0.77862 0.0
C1487 C 0.73766 0.66014 0.76921 0.0
C1488 C 0.73046 0.64977 0.86139 0.0
C1489 C 0.74086 0.67084 0.80643 0.0
C1490 C 0.73084 0.65534 0.94746 0.0
C1491 C 0.73036 0.62627 0.96559 0.0
N1492 N 0.73736 0.66547 0.85097 0.0
N1493 N 0.729 0.63057 0.92113 0.0
H1494 H 0.06712 0.32341 0.69566 0.0
H1495 H 0.06234 0.30037 0.4242 0.0
H1496 H 0.06276 0.27844 0.64603 0.0
H1497 H 0.08353 0.34837 0.47584 0.0
H1498 H 0.05559 0.29086 0.50504 0.0
H1499 H 0.06625 0.33134 0.61428 0.0
C1500 C 0.06575 0.31514 0.66768 0.0
C1501 C 0.06525 0.30037 0.67732 0.0
C1502 C 0.06154 0.30347 0.49845 0.0
C1503 C 0.06416 0.30925 0.58477 0.0
C1504 C 0.06533 0.30888 0.45247 0.0
C1505 C 0.07368 0.32513 0.44366 0.0
C1506 C 0.06595 0.31445 0.53544 0.0
C1507 C 0.07729 0.33571 0.48136 0.0
C1508 C 0.0653 0.31967 0.62137 0.0
C1509 C 0.06342 0.29005 0.63992 0.0
N1510 N 0.07347 0.33019 0.52566 0.0
N1511 N 0.06303 0.29472 0.59521 0.0
H1512 H 0.68352 0.75579 0.69918 0.0
H1513 H 0.61198 0.73301 0.52517 0.0
H1514 H 0.63518 0.73215 0.74609 0.0
H1515 H 0.65785 0.7394 0.47884 0.0
H1516 H 0.62004 0.73249 0.6062 0.0
H1517 H 0.67441 0.74989 0.6183 0.0
C1518 C 0.67097 0.74926 0.69237 0.0
C1519 C 0.66004 0.74458 0.7292 0.0
C1520 C 0.62828 0.7338 0.57834 0.0
C1521 C 0.64954 0.73791 0.63677 0.0
C1522 C 0.62373 0.73418 0.53213 0.0
C1523 C 0.63436 0.73643 0.49545 0.0
C1524 C 0.64368 0.736 0.58797 0.0
C1525 C 0.64935 0.7377 0.50622 0.0
C1526 C 0.66579 0.74582 0.64624 0.0
C1527 C 0.64395 0.736 0.71858 0.0
N1528 N 0.65367 0.73772 0.55168 0.0
N1529 N 0.63914 0.73314 0.67316 0.0
H1530 H 0.26111 0.9387 0.70359 0.0
H1531 H 0.23484 0.8819 0.48403 0.0
H1532 H 0.21321 0.90329 0.68035 0.0
H1533 H 0.26795 0.93086 0.46327 0.0
H1534 H 0.23066 0.88802 0.56396 0.0
H1535 H 0.26751 0.93477 0.62213 0.0
C1536 C 0.252 0.93013 0.68146 0.0
C1537 C 0.23663 0.92127 0.69865 0.0
C1538 C 0.23886 0.89744 0.54199 0.0
C1539 C 0.24386 0.91664 0.6068 0.0
C1540 C 0.24131 0.89396 0.4964 0.0
C1541 C 0.2517 0.90591 0.46691 0.0
C1542 C 0.24705 0.91295 0.55885 0.0
C1543 C 0.25974 0.92135 0.48491 0.0
C1544 C 0.25562 0.92798 0.63516 0.0
C1545 C 0.2252 0.91039 0.6686 0.0
N1546 N 0.25732 0.92445 0.53008 0.0
N1547 N 0.22909 0.90828 0.62444 0.0
H1548 H 0.7178 0.93576 0.151 0.0
H1549 H 0.65645 0.93858 0.96416 0.0
H1550 H 0.67416 0.93679 0.18966 0.0
H1551 H 0.69906 0.93486 0.92923 0.0
H1552 H 0.66499 0.94317 0.04598 0.0
H1553 H 0.71319 0.94028 0.06985 0.0
C1554 C 0.70723 0.93701 0.14238 0.0
C1555 C 0.69619 0.93563 0.177 0.0
C1556 C 0.67261 0.94165 0.02028 0.0
C1557 C 0.69079 0.94077 0.08364 0.0
C1558 C 0.66781 0.93915 0.97346 0.0
C1559 C 0.67698 0.93614 0.93993 0.0
C1560 C 0.68668 0.94113 0.03357 0.0
C1561 C 0.69156 0.937 0.95397 0.0
C1562 C 0.70464 0.93965 0.09595 0.0
C1563 C 0.68289 0.93764 0.16392 0.0
N1564 N 0.69585 0.93919 0.99982 0.0
N1565 N 0.68044 0.93991 0.11805 0.0
H1566 H 0.07987 0.73836 0.22185 0.0
H1567 H 0.06757 0.7492 0.94865 0.0
H1568 H 0.06248 0.77042 0.16813 0.0
H1569 H 0.09965 0.7318 0.00198 0.0
H1570 H 0.0594 0.7508 0.0293 0.0
H1571 H 0.08094 0.72968 0.1414 0.0
C1572 C 0.07601 0.74335 0.19322 0.0
C1573 C 0.07128 0.75525 0.20144 0.0
C1574 C 0.06806 0.74642 0.02317 0.0
C1575 C 0.0724 0.74539 0.10983 0.0
C1576 C 0.07265 0.74544 0.97724 0.0
C1577 C 0.08442 0.74056 0.96884 0.0
C1578 C 0.07516 0.74229 0.06067 0.0
C1579 C 0.09067 0.73583 0.00707 0.0
C1580 C 0.07669 0.73845 0.14741 0.0
C1581 C 0.06641 0.76135 0.16316 0.0
N1582 N 0.08603 0.7369 0.05134 0.0
N1583 N 0.06718 0.75643 0.119 0.0
H1584 H 0.25327 0.31773 0.19989 0.0
H1585 H 0.26613 0.38694 0.02604 0.0
H1586 H 0.27064 0.36616 0.24572 0.0
H1587 H 0.26334 0.34229 0.97923 0.0
H1588 H 0.26944 0.38012 0.10634 0.0
H1589 H 0.25864 0.32679 0.11901 0.0
C1590 C 0.25842 0.33032 0.19284 0.0
C1591 C 0.26133 0.34123 0.22927 0.0
C1592 C 0.26833 0.37189 0.07852 0.0
C1593 C 0.26728 0.35166 0.13684 0.0
C1594 C 0.26633 0.37572 0.03272 0.0
C1595 C 0.2642 0.36501 0.9962 0.0
C1596 C 0.2679 0.35711 0.08798 0.0
C1597 C 0.26482 0.35079 0.00655 0.0
C1598 C 0.26153 0.33548 0.1467 0.0
C1599 C 0.26817 0.35739 0.21847 0.0
N1600 N 0.26635 0.34712 0.05171 0.0
N1601 N 0.27065 0.36213 0.173 0.0
H1602 H 0.91259 0.65122 0.51981 0.0
H1603 H 0.93522 0.72222 0.34532 0.0
H1604 H 0.9364 0.69974 0.56644 0.0
H1605 H 0.9287 0.67611 0.29965 0.0
H1606 H 0.93636 0.71455 0.42635 0.0
H1607 H 0.91886 0.66012 0.43904 0.0
C1608 C 0.91925 0.66377 0.51295 0.0
C1609 C 0.92383 0.67482 0.54961 0.0
C1610 C 0.93491 0.70618 0.39862 0.0
C1611 C 0.93092 0.68507 0.45731 0.0
C1612 C 0.93418 0.71051 0.35243 0.0
C1613 C 0.93165 0.69967 0.31599 0.0
C1614 C 0.93279 0.6908 0.40847 0.0
C1615 C 0.93058 0.68475 0.32689 0.0
C1616 C 0.92291 0.66883 0.46688 0.0
C1617 C 0.9326 0.69089 0.539 0.0
N1618 N 0.93088 0.68064 0.37236 0.0
N1619 N 0.93565 0.69559 0.49359 0.0
H1620 H 0.38885 0.27038 0.47917 0.0
H1621 H 0.31829 0.25245 0.30534 0.0
H1622 H 0.34339 0.26514 0.52574 0.0
H1623 H 0.36668 0.2717 0.2591 0.0
H1624 H 0.32746 0.25878 0.386 0.0
H1625 H 0.38147 0.27267 0.39868 0.0
C1626 C 0.37734 0.26985 0.47239 0.0
C1627 C 0.36658 0.26732 0.50891 0.0
C1628 C 0.33611 0.26187 0.35825 0.0
C1629 C 0.35802 0.26981 0.41687 0.0
C1630 C 0.33088 0.2582 0.31223 0.0
C1631 C 0.34178 0.26137 0.27575 0.0
C1632 C 0.35234 0.26847 0.36797 0.0
C1633 C 0.35793 0.26899 0.28637 0.0
C1634 C 0.37317 0.27125 0.42646 0.0
C1635 C 0.35195 0.26697 0.49842 0.0
N1636 N 0.36274 0.27204 0.33174 0.0
N1637 N 0.34797 0.26792 0.45314 0.0
H1638 H 0.76663 0.07792 0.57247 0.0
H1639 H 0.73659 0.07204 0.30766 0.0
H1640 H 0.72239 0.07807 0.53591 0.0
H1641 H 0.78096 0.07319 0.34982 0.0
H1642 H 0.72925 0.07087 0.39073 0.0
H1643 H 0.7699 0.07216 0.49116 0.0
C1644 C 0.75745 0.07644 0.54742 0.0
C1645 C 0.74428 0.07858 0.56088 0.0
C1646 C 0.74053 0.07124 0.38163 0.0
C1647 C 0.74811 0.07237 0.46718 0.0
C1648 C 0.74471 0.07192 0.33431 0.0
C1649 C 0.75947 0.07291 0.32188 0.0
C1650 C 0.75119 0.07148 0.4165 0.0
C1651 C 0.76953 0.07265 0.35774 0.0
C1652 C 0.75935 0.07324 0.50085 0.0
C1653 C 0.73273 0.07651 0.52694 0.0
N1654 N 0.76524 0.07204 0.40321 0.0
N1655 N 0.73502 0.07376 0.48144 0.0
H1656 H 0.94839 0.39974 0.18817 0.0
H1657 H 0.01977 0.42123 0.36167 0.0
H1658 H 0.99419 0.40621 0.14095 0.0
H1659 H 0.97137 0.39791 0.40821 0.0
H1660 H 0.0107 0.41541 0.2807 0.0
H1661 H 0.95637 0.39855 0.26886 0.0
C1662 C 0.96011 0.40079 0.19485 0.0
C1663 C 0.97074 0.40327 0.15804 0.0
C1664 C 0.00206 0.41136 0.30858 0.0
C1665 C 0.97998 0.40206 0.25021 0.0
C1666 C 0.00722 0.41474 0.35477 0.0
C1667 C 0.99626 0.41018 0.3915 0.0
C1668 C 0.98581 0.40364 0.29899 0.0
C1669 C 0.98017 0.40167 0.38078 0.0
C1670 C 0.96461 0.40002 0.24087 0.0
C1671 C 0.98569 0.40436 0.16845 0.0
N1672 N 0.97539 0.39889 0.33533 0.0
N1673 N 0.98998 0.404 0.21376 0.0
H1674 H 0.59978 0.56136 0.16762 0.0
H1675 H 0.56177 0.60148 0.33439 0.0
H1676 H 0.58278 0.59398 0.11613 0.0
H1677 H 0.59353 0.58343 0.38588 0.0
H1678 H 0.5697 0.59936 0.25437 0.0
H1679 H 0.59811 0.56963 0.24763 0.0
C1680 C 0.59586 0.57041 0.17318 0.0
C1681 C 0.59129 0.57692 0.13527 0.0
C1682 C 0.57513 0.59608 0.28313 0.0
C1683 C 0.58913 0.58628 0.22683 0.0
C1684 C 0.57057 0.59724 0.32881 0.0
C1685 C 0.57694 0.59251 0.36672 0.0
C1686 C 0.58589 0.58982 0.27516 0.0
C1687 C 0.58835 0.58719 0.35759 0.0
C1688 C 0.59495 0.57516 0.21886 0.0
C1689 C 0.58639 0.58866 0.14441 0.0
N1690 N 0.59228 0.58574 0.31262 0.0
N1691 N 0.58519 0.59279 0.18936 0.0
H1692 H 0.40754 0.9982 0.34652 0.0
H1693 H 0.40129 0.97491 0.07487 0.0
H1694 H 0.40345 0.95348 0.29555 0.0
H1695 H 0.42107 0.02298 0.12569 0.0
H1696 H 0.3951 0.96546 0.15589 0.0
H1697 H 0.40573 0.00599 0.26552 0.0
C1698 C 0.40606 0.98997 0.31835 0.0
C1699 C 0.40591 0.97531 0.32748 0.0
C1700 C 0.40059 0.97807 0.14911 0.0
C1701 C 0.40369 0.984 0.23536 0.0
C1702 C 0.40405 0.98344 0.10299 0.0
C1703 C 0.41189 0.99971 0.09389 0.0
C1704 C 0.40486 0.98909 0.18599 0.0
C1705 C 0.41522 0.01031 0.13144 0.0
C1706 C 0.40505 0.9944 0.27225 0.0
C1707 C 0.40388 0.96501 0.28985 0.0
N1708 N 0.41179 0.00482 0.17591 0.0
N1709 N 0.40295 0.96958 0.24539 0.0
H1710 H 0.59189 0.98044 0.86038 0.0
H1711 H 0.60342 0.04949 0.68568 0.0
H1712 H 0.60553 0.02832 0.90635 0.0
H1713 H 0.60245 0.0055 0.63977 0.0
H1714 H 0.60584 0.04252 0.76652 0.0
H1715 H 0.59768 0.9898 0.7798 0.0
C1716 C 0.59639 0.993 0.8535 0.0
C1717 C 0.5981 0.00363 0.88988 0.0
C1718 C 0.60529 0.03445 0.73882 0.0
C1719 C 0.60444 0.01438 0.79767 0.0
C1720 C 0.60381 0.03838 0.69265 0.0
C1721 C 0.60252 0.02793 0.6561 0.0
C1722 C 0.60523 0.01985 0.74865 0.0
C1723 C 0.6033 0.01381 0.66701 0.0
C1724 C 0.59969 0.99833 0.80749 0.0
C1725 C 0.60404 0.01975 0.87921 0.0
N1726 N 0.60438 0.01007 0.71245 0.0
N1727 N 0.60672 0.02462 0.83386 0.0
H1728 H 0.97957 0.59092 0.64139 0.0
H1729 H 0.05005 0.60733 0.81674 0.0
H1730 H 0.0277 0.60572 0.59726 0.0
H1731 H 0.00354 0.59893 0.86268 0.0
H1732 H 0.04284 0.61027 0.73673 0.0
H1733 H 0.9887 0.5974 0.7221 0.0
C1734 C 0.99212 0.59581 0.64864 0.0
C1735 C 0.0029 0.59758 0.61275 0.0
C1736 C 0.03423 0.60798 0.76422 0.0
C1737 C 0.01339 0.6048 0.70517 0.0
C1738 C 0.03832 0.60624 0.80993 0.0
C1739 C 0.02726 0.60262 0.84614 0.0
C1740 C 0.01885 0.60583 0.75436 0.0
C1741 C 0.01235 0.6016 0.83561 0.0
C1742 C 0.99732 0.5995 0.69476 0.0
C1743 C 0.019 0.60409 0.62395 0.0
N1744 N 0.00848 0.60293 0.79042 0.0
N1745 N 0.02374 0.60721 0.66936 0.0
H1746 H 0.40207 0.41509 0.61079 0.0
H1747 H 0.41294 0.40369 0.88466 0.0
H1748 H 0.43414 0.39785 0.66519 0.0
H1749 H 0.39663 0.43655 0.83058 0.0
H1750 H 0.41481 0.39558 0.80406 0.0
H1751 H 0.39403 0.41712 0.69132 0.0
C1752 C 0.4072 0.41147 0.6396 0.0
C1753 C 0.41889 0.40645 0.63148 0.0
C1754 C 0.41064 0.40442 0.81 0.0
C1755 C 0.40975 0.40865 0.72321 0.0
C1756 C 0.4095 0.40899 0.8559 0.0
C1757 C 0.40479 0.42091 0.86415 0.0
C1758 C 0.4068 0.41168 0.77231 0.0
C1759 C 0.40049 0.42743 0.82565 0.0
C1760 C 0.40268 0.4127 0.68546 0.0
C1761 C 0.42521 0.40194 0.67003 0.0
N1762 N 0.40166 0.42278 0.7814 0.0
N1763 N 0.42061 0.40321 0.71421 0.0
loop_
_geom_bond_atom_site_label_1
_geom_bond_atom_site_label_2
_geom_bond_distance
_geom_bond_site_symmetry_2
_ccdc_geom_bond_type
In0 O1 2.294 . S
In0 O2 2.326 . S
In0 O6 2.266 . S
In0 O7 2.326 . S
In0 O8 2.266 . S
In0 O9 2.326 . S
In0 O11 2.294 . S
In0 O12 2.326 . S
O1 In0 2.294 . S
O1 C10 1.240 . S
O2 In0 2.326 . S
O2 C10 1.252 . S
C3 O6 1.252 . S
C3 O7 1.260 . S
C4 O11 1.240 . S
C4 O12 1.252 . S
C5 O8 1.252 . S
C5 O9 1.260 . S
O6 In0 2.266 . S
O6 C3 1.252 . S
O7 In0 2.326 . S
O7 C3 1.260 . S
O8 In0 2.266 . S
O8 C5 1.252 . S
O9 In0 2.326 . S
O9 C5 1.260 . S
C10 O1 1.240 . S
C10 O2 1.252 . S
O11 In0 2.294 . S
O11 C4 1.240 . S
O12 In0 2.326 . S
O12 C4 1.252 . S
In13 O14 2.294 . S
In13 O15 2.326 . S
In13 O19 2.266 . S
In13 O20 2.326 . S
In13 O21 2.266 . S
In13 O22 2.326 . S
In13 O24 2.294 . S
In13 O25 2.326 . S
O14 In13 2.294 . S
O14 C23 1.240 . S
O15 In13 2.326 . S
O15 C23 1.252 . S
C16 O19 1.252 . S
C16 O20 1.260 . S
C17 O24 1.240 . S
C17 O25 1.252 . S
C18 O21 1.252 . S
C18 O22 1.260 . S
O19 In13 2.266 . S
O19 C16 1.252 . S
O20 In13 2.326 . S
O20 C16 1.260 . S
O21 In13 2.266 . S
O21 C18 1.252 . S
O22 In13 2.326 . S
O22 C18 1.260 . S
C23 O14 1.240 . S
C23 O15 1.252 . S
O24 In13 2.294 . S
O24 C17 1.240 . S
O25 In13 2.326 . S
O25 C17 1.252 . S
In26 O27 2.294 . S
In26 O28 2.326 . S
In26 O32 2.266 . S
In26 O33 2.326 . S
In26 O34 2.266 . S
In26 O35 2.326 . S
In26 O37 2.294 . S
In26 O38 2.326 . S
O27 In26 2.294 . S
O27 C36 1.240 . S
O28 In26 2.326 . S
O28 C36 1.252 . S
C29 O32 1.252 . S
C29 O33 1.260 . S
C30 O37 1.240 . S
C30 O38 1.252 . S
C31 O34 1.252 . S
C31 O35 1.260 . S
O32 In26 2.266 . S
O32 C29 1.252 . S
O33 In26 2.326 . S
O33 C29 1.260 . S
O34 In26 2.266 . S
O34 C31 1.252 . S
O35 In26 2.326 . S
O35 C31 1.260 . S
C36 O27 1.240 . S
C36 O28 1.252 . S
O37 In26 2.294 . S
O37 C30 1.240 . S
O38 In26 2.326 . S
O38 C30 1.252 . S
In39 O40 2.294 . S
In39 O41 2.326 . S
In39 O45 2.266 . S
In39 O46 2.326 . S
In39 O47 2.266 . S
In39 O48 2.326 . S
In39 O50 2.294 . S
In39 O51 2.326 . S
O40 In39 2.294 . S
O40 C49 1.240 . S
O41 In39 2.326 . S
O41 C49 1.252 . S
C42 O45 1.252 . S
C42 O46 1.260 . S
C43 O50 1.240 . S
C43 O51 1.252 . S
C44 O47 1.252 . S
C44 O48 1.260 . S
O45 In39 2.266 . S
O45 C42 1.252 . S
O46 In39 2.326 . S
O46 C42 1.260 . S
O47 In39 2.266 . S
O47 C44 1.252 . S
O48 In39 2.326 . S
O48 C44 1.260 . S
C49 O40 1.240 . S
C49 O41 1.252 . S
O50 In39 2.294 . S
O50 C43 1.240 . S
O51 In39 2.326 . S
O51 C43 1.252 . S
In52 O53 2.294 . S
In52 O54 2.326 . S
In52 O58 2.266 . S
In52 O59 2.326 . S
In52 O60 2.266 . S
In52 O61 2.326 . S
In52 O63 2.294 . S
In52 O64 2.326 . S
O53 In52 2.294 . S
O53 C62 1.240 . S
O54 In52 2.326 . S
O54 C62 1.252 . S
C55 O58 1.252 . S
C55 O59 1.260 . S
C56 O63 1.240 . S
C56 O64 1.252 . S
C57 O60 1.252 . S
C57 O61 1.260 . S
O58 In52 2.266 . S
O58 C55 1.252 . S
O59 In52 2.326 . S
O59 C55 1.260 . S
O60 In52 2.266 . S
O60 C57 1.252 . S
O61 In52 2.326 . S
O61 C57 1.260 . S
C62 O53 1.240 . S
C62 O54 1.252 . S
O63 In52 2.294 . S
O63 C56 1.240 . S
O64 In52 2.326 . S
O64 C56 1.252 . S
In65 O66 2.294 . S
In65 O67 2.326 . S
In65 O71 2.266 . S
In65 O72 2.326 . S
In65 O73 2.266 . S
In65 O74 2.326 . S
In65 O76 2.294 . S
In65 O77 2.326 . S
O66 In65 2.294 . S
O66 C75 1.240 . S
O67 In65 2.326 . S
O67 C75 1.252 . S
C68 O71 1.252 . S
C68 O72 1.260 . S
C69 O76 1.240 . S
C69 O77 1.252 . S
C70 O73 1.252 . S
C70 O74 1.260 . S
O71 In65 2.266 . S
O71 C68 1.252 . S
O72 In65 2.326 . S
O72 C68 1.260 . S
O73 In65 2.266 . S
O73 C70 1.252 . S
O74 In65 2.326 . S
O74 C70 1.260 . S
C75 O66 1.240 . S
C75 O67 1.252 . S
O76 In65 2.294 . S
O76 C69 1.240 . S
O77 In65 2.326 . S
O77 C69 1.252 . S
In78 O79 2.294 . S
In78 O80 2.326 . S
In78 O84 2.266 . S
In78 O85 2.326 . S
In78 O86 2.266 . S
In78 O87 2.326 . S
In78 O89 2.294 . S
In78 O90 2.326 . S
O79 In78 2.294 . S
O79 C88 1.240 . S
O80 In78 2.326 . S
O80 C88 1.252 . S
C81 O84 1.252 . S
C81 O85 1.260 . S
C82 O89 1.240 . S
C82 O90 1.252 . S
C83 O86 1.252 . S
C83 O87 1.260 . S
O84 In78 2.266 . S
O84 C81 1.252 . S
O85 In78 2.326 . S
O85 C81 1.260 . S
O86 In78 2.266 . S
O86 C83 1.252 . S
O87 In78 2.326 . S
O87 C83 1.260 . S
C88 O79 1.240 . S
C88 O80 1.252 . S
O89 In78 2.294 . S
O89 C82 1.240 . S
O90 In78 2.326 . S
O90 C82 1.252 . S
In91 O92 2.294 . S
In91 O93 2.326 . S
In91 O97 2.266 . S
In91 O98 2.326 . S
In91 O99 2.266 . S
In91 O100 2.326 . S
In91 O102 2.294 . S
In91 O103 2.326 . S
O92 In91 2.294 . S
O92 C101 1.240 . S
O93 In91 2.326 . S
O93 C101 1.252 . S
C94 O97 1.252 . S
C94 O98 1.260 . S
C95 O102 1.240 . S
C95 O103 1.252 . S
C96 O99 1.252 . S
C96 O100 1.260 . S
O97 In91 2.266 . S
O97 C94 1.252 . S
O98 In91 2.326 . S
O98 C94 1.260 . S
O99 In91 2.266 . S
O99 C96 1.252 . S
O100 In91 2.326 . S
O100 C96 1.260 . S
C101 O92 1.240 . S
C101 O93 1.252 . S
O102 In91 2.294 . S
O102 C95 1.240 . S
O103 In91 2.326 . S
O103 C95 1.252 . S
In104 O105 2.294 . S
In104 O106 2.326 . S
In104 O110 2.266 . S
In104 O111 2.326 . S
In104 O112 2.266 . S
In104 O113 2.326 . S
In104 O115 2.294 . S
In104 O116 2.326 . S
O105 In104 2.294 . S
O105 C114 1.240 . S
O106 In104 2.326 . S
O106 C114 1.252 . S
C107 O110 1.252 . S
C107 O111 1.260 . S
C108 O115 1.240 . S
C108 O116 1.252 . S
C109 O112 1.252 . S
C109 O113 1.260 . S
O110 In104 2.266 . S
O110 C107 1.252 . S
O111 In104 2.326 . S
O111 C107 1.260 . S
O112 In104 2.266 . S
O112 C109 1.252 . S
O113 In104 2.326 . S
O113 C109 1.260 . S
C114 O105 1.240 . S
C114 O106 1.252 . S
O115 In104 2.294 . S
O115 C108 1.240 . S
O116 In104 2.326 . S
O116 C108 1.252 . S
In117 O118 2.294 . S
In117 O119 2.326 . S
In117 O123 2.266 . S
In117 O124 2.326 . S
In117 O125 2.266 . S
In117 O126 2.326 . S
In117 O128 2.294 . S
In117 O129 2.326 . S
O118 In117 2.294 . S
O118 C127 1.240 . S
O119 In117 2.326 . S
O119 C127 1.252 . S
C120 O123 1.252 . S
C120 O124 1.260 . S
C121 O128 1.240 . S
C121 O129 1.252 . S
C122 O125 1.252 . S
C122 O126 1.260 . S
O123 In117 2.266 . S
O123 C120 1.252 . S
O124 In117 2.326 . S
O124 C120 1.260 . S
O125 In117 2.266 . S
O125 C122 1.252 . S
O126 In117 2.326 . S
O126 C122 1.260 . S
C127 O118 1.240 . S
C127 O119 1.252 . S
O128 In117 2.294 . S
O128 C121 1.240 . S
O129 In117 2.326 . S
O129 C121 1.252 . S
In130 O131 2.294 . S
In130 O132 2.326 . S
In130 O136 2.266 . S
In130 O137 2.326 . S
In130 O138 2.266 . S
In130 O139 2.326 . S
In130 O141 2.294 . S
In130 O142 2.326 . S
O131 In130 2.294 . S
O131 C140 1.240 . S
O132 In130 2.326 . S
O132 C140 1.252 . S
C133 O136 1.252 . S
C133 O137 1.260 . S
C134 O141 1.240 . S
C134 O142 1.252 . S
C135 O138 1.252 . S
C135 O139 1.260 . S
O136 In130 2.266 . S
O136 C133 1.252 . S
O137 In130 2.326 . S
O137 C133 1.260 . S
O138 In130 2.266 . S
O138 C135 1.252 . S
O139 In130 2.326 . S
O139 C135 1.260 . S
C140 O131 1.240 . S
C140 O132 1.252 . S
O141 In130 2.294 . S
O141 C134 1.240 . S
O142 In130 2.326 . S
O142 C134 1.252 . S
In143 O144 2.294 . S
In143 O145 2.326 . S
In143 O149 2.266 . S
In143 O150 2.326 . S
In143 O151 2.266 . S
In143 O152 2.326 . S
In143 O154 2.294 . S
In143 O155 2.326 . S
O144 In143 2.294 . S
O144 C153 1.240 . S
O145 In143 2.326 . S
O145 C153 1.252 . S
C146 O149 1.252 . S
C146 O150 1.260 . S
C147 O154 1.240 . S
C147 O155 1.252 . S
C148 O151 1.252 . S
C148 O152 1.260 . S
O149 In143 2.266 . S
O149 C146 1.252 . S
O150 In143 2.326 . S
O150 C146 1.260 . S
O151 In143 2.266 . S
O151 C148 1.252 . S
O152 In143 2.326 . S
O152 C148 1.260 . S
C153 O144 1.240 . S
C153 O145 1.252 . S
O154 In143 2.294 . S
O154 C147 1.240 . S
O155 In143 2.326 . S
O155 C147 1.252 . S
In156 O157 2.294 1_455 S
In156 O158 2.326 . S
In156 O162 2.267 1_455 S
In156 O163 2.326 . S
In156 O164 2.265 . S
In156 O165 2.325 . S
In156 O167 2.294 . S
In156 O168 2.327 1_455 S
O157 In156 2.294 1_655 S
O157 C166 1.240 . S
O158 In156 2.326 . S
O158 C166 1.252 1_455 S
C159 O162 1.252 . S
C159 O163 1.260 1_655 S
C160 O167 1.240 . S
C160 O168 1.252 1_455 S
C161 O164 1.252 . S
C161 O165 1.260 . S
O162 In156 2.267 1_655 S
O162 C159 1.252 . S
O163 In156 2.326 . S
O163 C159 1.260 1_455 S
O164 In156 2.265 . S
O164 C161 1.252 . S
O165 In156 2.325 . S
O165 C161 1.260 . S
C166 O157 1.240 . S
C166 O158 1.252 1_655 S
O167 In156 2.294 . S
O167 C160 1.240 . S
O168 In156 2.327 1_655 S
O168 C160 1.252 1_655 S
In169 O170 2.294 . S
In169 O171 2.326 . S
In169 O175 2.266 . S
In169 O176 2.326 . S
In169 O177 2.266 . S
In169 O178 2.326 . S
In169 O180 2.294 . S
In169 O181 2.326 . S
O170 In169 2.294 . S
O170 C179 1.240 . S
O171 In169 2.326 . S
O171 C179 1.252 . S
C172 O175 1.252 . S
C172 O176 1.260 . S
C173 O180 1.240 . S
C173 O181 1.252 . S
C174 O177 1.252 . S
C174 O178 1.260 . S
O175 In169 2.266 . S
O175 C172 1.252 . S
O176 In169 2.326 . S
O176 C172 1.260 . S
O177 In169 2.266 . S
O177 C174 1.252 . S
O178 In169 2.326 . S
O178 C174 1.260 . S
C179 O170 1.240 . S
C179 O171 1.252 . S
O180 In169 2.294 . S
O180 C173 1.240 . S
O181 In169 2.326 . S
O181 C173 1.252 . S
In182 O183 2.294 . S
In182 O184 2.326 . S
In182 O188 2.266 . S
In182 O189 2.326 . S
In182 O190 2.266 . S
In182 O191 2.326 . S
In182 O193 2.294 . S
In182 O194 2.326 . S
O183 In182 2.294 . S
O183 C192 1.240 . S
O184 In182 2.326 . S
O184 C192 1.252 . S
C185 O188 1.252 . S
C185 O189 1.260 . S
C186 O193 1.240 . S
C186 O194 1.252 . S
C187 O190 1.252 . S
C187 O191 1.260 . S
O188 In182 2.266 . S
O188 C185 1.252 . S
O189 In182 2.326 . S
O189 C185 1.260 . S
O190 In182 2.266 . S
O190 C187 1.252 . S
O191 In182 2.326 . S
O191 C187 1.260 . S
C192 O183 1.240 . S
C192 O184 1.252 . S
O193 In182 2.294 . S
O193 C186 1.240 . S
O194 In182 2.326 . S
O194 C186 1.252 . S
In195 O196 2.294 . S
In195 O197 2.326 . S
In195 O201 2.266 . S
In195 O202 2.326 . S
In195 O203 2.266 . S
In195 O204 2.326 . S
In195 O206 2.294 . S
In195 O207 2.326 . S
O196 In195 2.294 . S
O196 C205 1.240 . S
O197 In195 2.326 . S
O197 C205 1.252 . S
C198 O201 1.252 . S
C198 O202 1.260 . S
C199 O206 1.240 . S
C199 O207 1.252 . S
C200 O203 1.252 . S
C200 O204 1.260 . S
O201 In195 2.266 . S
O201 C198 1.252 . S
O202 In195 2.326 . S
O202 C198 1.260 . S
O203 In195 2.266 . S
O203 C200 1.252 . S
O204 In195 2.326 . S
O204 C200 1.260 . S
C205 O196 1.240 . S
C205 O197 1.252 . S
O206 In195 2.294 . S
O206 C199 1.240 . S
O207 In195 2.326 . S
O207 C199 1.252 . S
In208 O209 2.294 . S
In208 O210 2.326 . S
In208 O214 2.266 . S
In208 O215 2.326 . S
In208 O216 2.266 . S
In208 O217 2.326 . S
In208 O219 2.294 . S
In208 O220 2.326 . S
O209 In208 2.294 . S
O209 C218 1.240 . S
O210 In208 2.326 . S
O210 C218 1.252 . S
C211 O214 1.252 . S
C211 O215 1.260 . S
C212 O219 1.240 . S
C212 O220 1.252 . S
C213 O216 1.252 . S
C213 O217 1.260 . S
O214 In208 2.266 . S
O214 C211 1.252 . S
O215 In208 2.326 . S
O215 C211 1.260 . S
O216 In208 2.266 . S
O216 C213 1.252 . S
O217 In208 2.326 . S
O217 C213 1.260 . S
C218 O209 1.240 . S
C218 O210 1.252 . S
O219 In208 2.294 . S
O219 C212 1.240 . S
O220 In208 2.326 . S
O220 C212 1.252 . S
In221 O222 2.294 . S
In221 O223 2.326 . S
In221 O227 2.266 . S
In221 O228 2.326 . S
In221 O229 2.266 . S
In221 O230 2.326 . S
In221 O232 2.294 . S
In221 O233 2.326 . S
O222 In221 2.294 . S
O222 C231 1.240 . S
O223 In221 2.326 . S
O223 C231 1.252 . S
C224 O227 1.252 . S
C224 O228 1.260 . S
C225 O232 1.240 . S
C225 O233 1.252 . S
C226 O229 1.252 . S
C226 O230 1.260 . S
O227 In221 2.266 . S
O227 C224 1.252 . S
O228 In221 2.326 . S
O228 C224 1.260 . S
O229 In221 2.266 . S
O229 C226 1.252 . S
O230 In221 2.326 . S
O230 C226 1.260 . S
C231 O222 1.240 . S
C231 O223 1.252 . S
O232 In221 2.294 . S
O232 C225 1.240 . S
O233 In221 2.326 . S
O233 C225 1.252 . S
In234 O235 2.294 . S
In234 O236 2.326 . S
In234 O240 2.266 . S
In234 O241 2.326 . S
In234 O242 2.266 . S
In234 O243 2.326 . S
In234 O245 2.294 . S
In234 O246 2.326 . S
O235 In234 2.294 . S
O235 C244 1.240 . S
O236 In234 2.326 . S
O236 C244 1.252 . S
C237 O240 1.252 . S
C237 O241 1.260 . S
C238 O245 1.240 . S
C238 O246 1.252 . S
C239 O242 1.252 . S
C239 O243 1.260 . S
O240 In234 2.266 . S
O240 C237 1.252 . S
O241 In234 2.326 . S
O241 C237 1.260 . S
O242 In234 2.266 . S
O242 C239 1.252 . S
O243 In234 2.326 . S
O243 C239 1.260 . S
C244 O235 1.240 . S
C244 O236 1.252 . S
O245 In234 2.294 . S
O245 C238 1.240 . S
O246 In234 2.326 . S
O246 C238 1.252 . S
In247 O248 2.294 . S
In247 O249 2.326 . S
In247 O253 2.266 . S
In247 O254 2.326 . S
In247 O255 2.266 . S
In247 O256 2.326 . S
In247 O258 2.294 . S
In247 O259 2.326 . S
O248 In247 2.294 . S
O248 C257 1.240 . S
O249 In247 2.326 . S
O249 C257 1.252 . S
C250 O253 1.252 . S
C250 O254 1.260 . S
C251 O258 1.240 . S
C251 O259 1.252 . S
C252 O255 1.252 . S
C252 O256 1.260 . S
O253 In247 2.266 . S
O253 C250 1.252 . S
O254 In247 2.326 . S
O254 C250 1.260 . S
O255 In247 2.266 . S
O255 C252 1.252 . S
O256 In247 2.326 . S
O256 C252 1.260 . S
C257 O248 1.240 . S
C257 O249 1.252 . S
O258 In247 2.294 . S
O258 C251 1.240 . S
O259 In247 2.326 . S
O259 C251 1.252 . S
In260 O261 2.294 . S
In260 O262 2.326 . S
In260 O266 2.266 . S
In260 O267 2.326 . S
In260 O268 2.266 . S
In260 O269 2.326 . S
In260 O271 2.294 . S
In260 O272 2.326 . S
O261 In260 2.294 . S
O261 C270 1.240 . S
O262 In260 2.326 . S
O262 C270 1.252 . S
C263 O266 1.252 . S
C263 O267 1.260 . S
C264 O271 1.240 . S
C264 O272 1.252 . S
C265 O268 1.252 . S
C265 O269 1.260 . S
O266 In260 2.266 . S
O266 C263 1.252 . S
O267 In260 2.326 . S
O267 C263 1.260 . S
O268 In260 2.266 . S
O268 C265 1.252 . S
O269 In260 2.326 . S
O269 C265 1.260 . S
C270 O261 1.240 . S
C270 O262 1.252 . S
O271 In260 2.294 . S
O271 C264 1.240 . S
O272 In260 2.326 . S
O272 C264 1.252 . S
In273 O274 2.297 1_565 S
In273 O275 2.330 . S
In273 O279 2.264 1_564 S
In273 O280 2.322 1_554 S
In273 O281 2.265 1_554 S
In273 O282 2.325 1_554 S
In273 O284 2.294 . S
In273 O285 2.327 1_565 S
O274 In273 2.297 1_545 S
O274 C283 1.240 . S
O275 In273 2.330 . S
O275 C283 1.252 1_565 S
C276 O279 1.252 . S
C276 O280 1.260 1_545 S
C277 O284 1.240 . S
C277 O285 1.252 1_565 S
C278 O281 1.252 . S
C278 O282 1.260 . S
O279 In273 2.264 1_546 S
O279 C276 1.252 . S
O280 In273 2.322 1_556 S
O280 C276 1.260 1_565 S
O281 In273 2.265 1_556 S
O281 C278 1.252 . S
O282 In273 2.325 1_556 S
O282 C278 1.260 . S
C283 O274 1.240 . S
C283 O275 1.252 1_545 S
O284 In273 2.294 . S
O284 C277 1.240 . S
O285 In273 2.327 1_545 S
O285 C277 1.252 1_545 S
In286 O287 2.294 . S
In286 O288 2.327 . S
In286 O292 2.265 1_554 S
In286 O293 2.325 1_554 S
In286 O294 2.264 1_554 S
In286 O295 2.322 1_554 S
In286 O297 2.296 . S
In286 O298 2.330 . S
O287 In286 2.294 . S
O287 C296 1.240 . S
O288 In286 2.327 . S
O288 C296 1.252 . S
C289 O292 1.252 . S
C289 O293 1.260 . S
C290 O297 1.240 . S
C290 O298 1.252 . S
C291 O294 1.252 . S
C291 O295 1.260 . S
O292 In286 2.265 1_556 S
O292 C289 1.252 . S
O293 In286 2.325 1_556 S
O293 C289 1.260 . S
O294 In286 2.264 1_556 S
O294 C291 1.252 . S
O295 In286 2.322 1_556 S
O295 C291 1.260 . S
C296 O287 1.240 . S
C296 O288 1.252 . S
O297 In286 2.296 . S
O297 C290 1.240 . S
O298 In286 2.330 . S
O298 C290 1.252 . S
In299 O300 2.296 . S
In299 O301 2.330 . S
In299 O305 2.264 1_554 S
In299 O306 2.322 1_554 S
In299 O307 2.265 1_554 S
In299 O308 2.325 1_554 S
In299 O310 2.294 . S
In299 O311 2.327 . S
O300 In299 2.296 . S
O300 C309 1.240 . S
O301 In299 2.330 . S
O301 C309 1.252 . S
C302 O305 1.252 . S
C302 O306 1.260 . S
C303 O310 1.240 . S
C303 O311 1.252 . S
C304 O307 1.252 . S
C304 O308 1.260 . S
O305 In299 2.264 1_556 S
O305 C302 1.252 . S
O306 In299 2.322 1_556 S
O306 C302 1.260 . S
O307 In299 2.265 1_556 S
O307 C304 1.252 . S
O308 In299 2.325 1_556 S
O308 C304 1.260 . S
C309 O300 1.240 . S
C309 O301 1.252 . S
O310 In299 2.294 . S
O310 C303 1.240 . S
O311 In299 2.327 . S
O311 C303 1.252 . S
In312 O313 2.294 . S
In312 O314 2.326 . S
In312 O318 2.266 . S
In312 O319 2.326 . S
In312 O320 2.266 . S
In312 O321 2.326 . S
In312 O323 2.294 . S
In312 O324 2.326 . S
O313 In312 2.294 . S
O313 C322 1.240 . S
O314 In312 2.326 . S
O314 C322 1.252 . S
C315 O318 1.252 . S
C315 O319 1.260 . S
C316 O323 1.240 . S
C316 O324 1.252 . S
C317 O320 1.252 . S
C317 O321 1.260 . S
O318 In312 2.266 . S
O318 C315 1.252 . S
O319 In312 2.326 . S
O319 C315 1.260 . S
O320 In312 2.266 . S
O320 C317 1.252 . S
O321 In312 2.326 . S
O321 C317 1.260 . S
C322 O313 1.240 . S
C322 O314 1.252 . S
O323 In312 2.294 . S
O323 C316 1.240 . S
O324 In312 2.326 . S
O324 C316 1.252 . S
In325 O326 2.294 . S
In325 O327 2.326 . S
In325 O331 2.266 . S
In325 O332 2.326 . S
In325 O333 2.266 . S
In325 O334 2.326 . S
In325 O336 2.294 . S
In325 O337 2.326 . S
O326 In325 2.294 . S
O326 C335 1.240 . S
O327 In325 2.326 . S
O327 C335 1.252 . S
C328 O331 1.252 . S
C328 O332 1.260 . S
C329 O336 1.240 . S
C329 O337 1.252 . S
C330 O333 1.252 . S
C330 O334 1.260 . S
O331 In325 2.266 . S
O331 C328 1.252 . S
O332 In325 2.326 . S
O332 C328 1.260 . S
O333 In325 2.266 . S
O333 C330 1.252 . S
O334 In325 2.326 . S
O334 C330 1.260 . S
C335 O326 1.240 . S
C335 O327 1.252 . S
O336 In325 2.294 . S
O336 C329 1.240 . S
O337 In325 2.326 . S
O337 C329 1.252 . S
In338 O339 2.294 . S
In338 O340 2.326 . S
In338 O344 2.266 . S
In338 O345 2.326 . S
In338 O346 2.266 . S
In338 O347 2.326 . S
In338 O349 2.294 . S
In338 O350 2.326 . S
O339 In338 2.294 . S
O339 C348 1.240 . S
O340 In338 2.326 . S
O340 C348 1.252 . S
C341 O344 1.252 . S
C341 O345 1.260 . S
C342 O349 1.240 . S
C342 O350 1.252 . S
C343 O346 1.252 . S
C343 O347 1.260 . S
O344 In338 2.266 . S
O344 C341 1.252 . S
O345 In338 2.326 . S
O345 C341 1.260 . S
O346 In338 2.266 . S
O346 C343 1.252 . S
O347 In338 2.326 . S
O347 C343 1.260 . S
C348 O339 1.240 . S
C348 O340 1.252 . S
O349 In338 2.294 . S
O349 C342 1.240 . S
O350 In338 2.326 . S
O350 C342 1.252 . S
In351 O352 2.297 1_545 S
In351 O353 2.330 . S
In351 O357 2.264 1_546 S
In351 O358 2.322 1_556 S
In351 O359 2.265 1_556 S
In351 O360 2.325 1_556 S
In351 O362 2.294 . S
In351 O363 2.327 1_545 S
O352 In351 2.297 1_565 S
O352 C361 1.240 . S
O353 In351 2.330 . S
O353 C361 1.252 1_545 S
C354 O357 1.252 . S
C354 O358 1.260 1_565 S
C355 O362 1.240 . S
C355 O363 1.252 1_545 S
C356 O359 1.252 . S
C356 O360 1.260 . S
O357 In351 2.264 1_564 S
O357 C354 1.252 . S
O358 In351 2.322 1_554 S
O358 C354 1.260 1_545 S
O359 In351 2.265 1_554 S
O359 C356 1.252 . S
O360 In351 2.325 1_554 S
O360 C356 1.260 . S
C361 O352 1.240 . S
C361 O353 1.252 1_565 S
O362 In351 2.294 . S
O362 C355 1.240 . S
O363 In351 2.327 1_565 S
O363 C355 1.252 1_565 S
In364 O365 2.296 . S
In364 O366 2.330 . S
In364 O370 2.264 1_556 S
In364 O371 2.322 1_556 S
In364 O372 2.265 1_556 S
In364 O373 2.325 1_556 S
In364 O375 2.294 . S
In364 O376 2.327 . S
O365 In364 2.296 . S
O365 C374 1.240 . S
O366 In364 2.330 . S
O366 C374 1.252 . S
C367 O370 1.252 . S
C367 O371 1.260 . S
C368 O375 1.240 . S
C368 O376 1.252 . S
C369 O372 1.252 . S
C369 O373 1.260 . S
O370 In364 2.264 1_554 S
O370 C367 1.252 . S
O371 In364 2.322 1_554 S
O371 C367 1.260 . S
O372 In364 2.265 1_554 S
O372 C369 1.252 . S
O373 In364 2.325 1_554 S
O373 C369 1.260 . S
C374 O365 1.240 . S
C374 O366 1.252 . S
O375 In364 2.294 . S
O375 C368 1.240 . S
O376 In364 2.327 . S
O376 C368 1.252 . S
In377 O378 2.294 . S
In377 O379 2.327 . S
In377 O383 2.265 1_556 S
In377 O384 2.325 1_556 S
In377 O385 2.264 1_556 S
In377 O386 2.322 1_556 S
In377 O388 2.296 . S
In377 O389 2.330 . S
O378 In377 2.294 . S
O378 C387 1.240 . S
O379 In377 2.327 . S
O379 C387 1.252 . S
C380 O383 1.252 . S
C380 O384 1.260 . S
C381 O388 1.240 . S
C381 O389 1.252 . S
C382 O385 1.252 . S
C382 O386 1.260 . S
O383 In377 2.265 1_554 S
O383 C380 1.252 . S
O384 In377 2.325 1_554 S
O384 C380 1.260 . S
O385 In377 2.264 1_554 S
O385 C382 1.252 . S
O386 In377 2.322 1_554 S
O386 C382 1.260 . S
C387 O378 1.240 . S
C387 O379 1.252 . S
O388 In377 2.296 . S
O388 C381 1.240 . S
O389 In377 2.330 . S
O389 C381 1.252 . S
In390 O391 2.294 . S
In390 O392 2.327 1_655 S
In390 O396 2.265 . S
In390 O397 2.325 . S
In390 O398 2.267 1_655 S
In390 O399 2.326 . S
In390 O401 2.294 1_655 S
In390 O402 2.326 . S
O391 In390 2.294 . S
O391 C400 1.240 . S
O392 In390 2.327 1_455 S
O392 C400 1.252 1_455 S
C393 O396 1.252 . S
C393 O397 1.260 . S
C394 O401 1.240 . S
C394 O402 1.252 1_455 S
C395 O398 1.252 . S
C395 O399 1.260 1_455 S
O396 In390 2.265 . S
O396 C393 1.252 . S
O397 In390 2.325 . S
O397 C393 1.260 . S
O398 In390 2.267 1_455 S
O398 C395 1.252 . S
O399 In390 2.326 . S
O399 C395 1.260 1_655 S
C400 O391 1.240 . S
C400 O392 1.252 1_655 S
O401 In390 2.294 1_455 S
O401 C394 1.240 . S
O402 In390 2.326 . S
O402 C394 1.252 1_655 S
In403 O404 2.294 . S
In403 O405 2.326 . S
In403 O409 2.266 . S
In403 O410 2.326 . S
In403 O411 2.266 . S
In403 O412 2.326 . S
In403 O414 2.294 . S
In403 O415 2.326 . S
O404 In403 2.294 . S
O404 C413 1.240 . S
O405 In403 2.326 . S
O405 C413 1.252 . S
C406 O409 1.252 . S
C406 O410 1.260 . S
C407 O414 1.240 . S
C407 O415 1.252 . S
C408 O411 1.252 . S
C408 O412 1.260 . S
O409 In403 2.266 . S
O409 C406 1.252 . S
O410 In403 2.326 . S
O410 C406 1.260 . S
O411 In403 2.266 . S
O411 C408 1.252 . S
O412 In403 2.326 . S
O412 C408 1.260 . S
C413 O404 1.240 . S
C413 O405 1.252 . S
O414 In403 2.294 . S
O414 C407 1.240 . S
O415 In403 2.326 . S
O415 C407 1.252 . S
In416 O417 2.294 . S
In416 O418 2.326 . S
In416 O422 2.266 . S
In416 O423 2.326 . S
In416 O424 2.266 . S
In416 O425 2.326 . S
In416 O427 2.294 . S
In416 O428 2.326 . S
O417 In416 2.294 . S
O417 C426 1.240 . S
O418 In416 2.326 . S
O418 C426 1.252 . S
C419 O422 1.252 . S
C419 O423 1.260 . S
C420 O427 1.240 . S
C420 O428 1.252 . S
C421 O424 1.252 . S
C421 O425 1.260 . S
O422 In416 2.266 . S
O422 C419 1.252 . S
O423 In416 2.326 . S
O423 C419 1.260 . S
O424 In416 2.266 . S
O424 C421 1.252 . S
O425 In416 2.326 . S
O425 C421 1.260 . S
C426 O417 1.240 . S
C426 O418 1.252 . S
O427 In416 2.294 . S
O427 C420 1.240 . S
O428 In416 2.326 . S
O428 C420 1.252 . S
In429 O430 2.294 . S
In429 O431 2.326 . S
In429 O435 2.266 . S
In429 O436 2.326 . S
In429 O437 2.266 . S
In429 O438 2.326 . S
In429 O440 2.294 . S
In429 O441 2.326 . S
O430 In429 2.294 . S
O430 C439 1.240 . S
O431 In429 2.326 . S
O431 C439 1.252 . S
C432 O435 1.252 . S
C432 O436 1.260 . S
C433 O440 1.240 . S
C433 O441 1.252 . S
C434 O437 1.252 . S
C434 O438 1.260 . S
O435 In429 2.266 . S
O435 C432 1.252 . S
O436 In429 2.326 . S
O436 C432 1.260 . S
O437 In429 2.266 . S
O437 C434 1.252 . S
O438 In429 2.326 . S
O438 C434 1.260 . S
C439 O430 1.240 . S
C439 O431 1.252 . S
O440 In429 2.294 . S
O440 C433 1.240 . S
O441 In429 2.326 . S
O441 C433 1.252 . S
In442 O443 2.294 . S
In442 O444 2.326 . S
In442 O448 2.266 . S
In442 O449 2.326 . S
In442 O450 2.266 . S
In442 O451 2.326 . S
In442 O453 2.294 . S
In442 O454 2.326 . S
O443 In442 2.294 . S
O443 C452 1.240 . S
O444 In442 2.326 . S
O444 C452 1.252 . S
C445 O448 1.252 . S
C445 O449 1.260 . S
C446 O453 1.240 . S
C446 O454 1.252 . S
C447 O450 1.252 . S
C447 O451 1.260 . S
O448 In442 2.266 . S
O448 C445 1.252 . S
O449 In442 2.326 . S
O449 C445 1.260 . S
O450 In442 2.266 . S
O450 C447 1.252 . S
O451 In442 2.326 . S
O451 C447 1.260 . S
C452 O443 1.240 . S
C452 O444 1.252 . S
O453 In442 2.294 . S
O453 C446 1.240 . S
O454 In442 2.326 . S
O454 C446 1.252 . S
In455 O456 2.294 . S
In455 O457 2.326 . S
In455 O461 2.266 . S
In455 O462 2.326 . S
In455 O463 2.266 . S
In455 O464 2.326 . S
In455 O466 2.294 . S
In455 O467 2.326 . S
O456 In455 2.294 . S
O456 C465 1.240 . S
O457 In455 2.326 . S
O457 C465 1.252 . S
C458 O461 1.252 . S
C458 O462 1.260 . S
C459 O466 1.240 . S
C459 O467 1.252 . S
C460 O463 1.252 . S
C460 O464 1.260 . S
O461 In455 2.266 . S
O461 C458 1.252 . S
O462 In455 2.326 . S
O462 C458 1.260 . S
O463 In455 2.266 . S
O463 C460 1.252 . S
O464 In455 2.326 . S
O464 C460 1.260 . S
C465 O456 1.240 . S
C465 O457 1.252 . S
O466 In455 2.294 . S
O466 C459 1.240 . S
O467 In455 2.326 . S
O467 C459 1.252 . S
H468 C474 0.930 . S
H469 C478 0.930 . S
H470 C483 0.929 . S
H471 C481 0.929 . S
H472 C476 0.929 . S
H473 C482 0.929 . S
C474 H468 0.930 . S
C474 C475 1.367 . S
C474 C482 1.378 . S
C475 C474 1.367 . S
C475 C483 1.433 . S
C476 H472 0.929 . S
C476 C478 1.378 . S
C476 C480 1.350 . S
C477 C480 1.463 . S
C477 C482 1.350 . S
C477 N485 1.427 . S
C478 H469 0.930 . S
C478 C476 1.378 . S
C478 C479 1.367 . S
C479 C478 1.367 . S
C479 C481 1.433 . S
C480 C476 1.350 . S
C480 C477 1.463 . S
C480 N484 1.427 . S
C481 H471 0.929 . S
C481 C479 1.433 . S
C481 N484 1.384 . S
C482 H473 0.929 . S
C482 C474 1.378 . S
C482 C477 1.350 . S
C483 H470 0.929 . S
C483 C475 1.433 . S
C483 N485 1.384 . S
N484 C480 1.427 . S
N484 C481 1.384 . S
N485 C477 1.427 . S
N485 C483 1.384 . S
H486 C492 0.930 . S
H487 C496 0.930 . S
H488 C501 0.929 . S
H489 C499 0.929 . S
H490 C494 0.929 . S
H491 C500 0.929 . S
C492 H486 0.930 . S
C492 C493 1.367 . S
C492 C500 1.378 . S
C493 C492 1.367 . S
C493 C501 1.433 . S
C494 H490 0.929 . S
C494 C496 1.378 . S
C494 C498 1.350 . S
C495 C498 1.463 . S
C495 C500 1.350 . S
C495 N503 1.427 . S
C496 H487 0.930 . S
C496 C494 1.378 . S
C496 C497 1.367 . S
C497 C496 1.367 . S
C497 C499 1.433 . S
C498 C494 1.350 . S
C498 C495 1.463 . S
C498 N502 1.427 . S
C499 H489 0.929 . S
C499 C497 1.433 . S
C499 N502 1.384 . S
C500 H491 0.929 . S
C500 C492 1.378 . S
C500 C495 1.350 . S
C501 H488 0.929 . S
C501 C493 1.433 . S
C501 N503 1.384 . S
N502 C498 1.427 . S
N502 C499 1.384 . S
N503 C495 1.427 . S
N503 C501 1.384 . S
H504 C510 0.930 . S
H505 C514 0.930 . S
H506 C519 0.929 . S
H507 C517 0.929 . S
H508 C512 0.929 . S
H509 C518 0.929 . S
C510 H504 0.930 . S
C510 C511 1.367 . S
C510 C518 1.378 . S
C511 C510 1.367 . S
C511 C519 1.433 . S
C512 H508 0.929 . S
C512 C514 1.378 . S
C512 C516 1.350 . S
C513 C516 1.463 . S
C513 C518 1.350 . S
C513 N521 1.427 . S
C514 H505 0.930 . S
C514 C512 1.378 . S
C514 C515 1.367 . S
C515 C514 1.367 . S
C515 C517 1.433 . S
C516 C512 1.350 . S
C516 C513 1.463 . S
C516 N520 1.427 . S
C517 H507 0.929 . S
C517 C515 1.433 . S
C517 N520 1.384 . S
C518 H509 0.929 . S
C518 C510 1.378 . S
C518 C513 1.350 . S
C519 H506 0.929 . S
C519 C511 1.433 . S
C519 N521 1.384 . S
N520 C516 1.427 . S
N520 C517 1.384 . S
N521 C513 1.427 . S
N521 C519 1.384 . S
H522 C528 0.930 . S
H523 C532 0.930 . S
H524 C537 0.929 . S
H525 C535 0.929 . S
H526 C530 0.929 . S
H527 C536 0.929 . S
C528 H522 0.930 . S
C528 C529 1.367 . S
C528 C536 1.378 1_556 S
C529 C528 1.367 . S
C529 C537 1.433 . S
C530 H526 0.929 . S
C530 C532 1.378 . S
C530 C534 1.350 . S
C531 C534 1.463 . S
C531 C536 1.350 . S
C531 N539 1.427 . S
C532 H523 0.930 . S
C532 C530 1.378 . S
C532 C533 1.367 . S
C533 C532 1.367 . S
C533 C535 1.433 . S
C534 C530 1.350 . S
C534 C531 1.463 . S
C534 N538 1.427 . S
C535 H525 0.929 . S
C535 C533 1.433 . S
C535 N538 1.384 . S
C536 H527 0.929 . S
C536 C528 1.378 1_554 S
C536 C531 1.350 . S
C537 H524 0.929 . S
C537 C529 1.433 . S
C537 N539 1.384 1_556 S
N538 C534 1.427 . S
N538 C535 1.384 . S
N539 C531 1.427 . S
N539 C537 1.384 1_554 S
H540 C546 0.930 . S
H541 C550 0.930 . S
H542 C555 0.929 . S
H543 C553 0.929 . S
H544 C548 0.929 . S
H545 C554 0.929 . S
C546 H540 0.930 . S
C546 C547 1.367 . S
C546 C554 1.378 . S
C547 C546 1.367 . S
C547 C555 1.433 . S
C548 H544 0.929 . S
C548 C550 1.378 1_554 S
C548 C552 1.350 . S
C549 C552 1.463 . S
C549 C554 1.350 . S
C549 N557 1.427 . S
C550 H541 0.930 . S
C550 C548 1.378 1_556 S
C550 C551 1.367 . S
C551 C550 1.367 . S
C551 C553 1.433 . S
C552 C548 1.350 . S
C552 C549 1.463 . S
C552 N556 1.427 . S
C553 H543 0.929 . S
C553 C551 1.433 . S
C553 N556 1.384 1_556 S
C554 H545 0.929 . S
C554 C546 1.378 . S
C554 C549 1.350 . S
C555 H542 0.929 . S
C555 C547 1.433 . S
C555 N557 1.384 . S
N556 C552 1.427 . S
N556 C553 1.384 1_554 S
N557 C549 1.427 . S
N557 C555 1.384 . S
H558 C564 0.930 . S
H559 C568 0.930 . S
H560 C573 0.929 . S
H561 C571 0.929 . S
H562 C566 0.929 . S
H563 C572 0.929 . S
C564 H558 0.930 . S
C564 C565 1.367 . S
C564 C572 1.378 . S
C565 C564 1.367 . S
C565 C573 1.433 . S
C566 H562 0.929 . S
C566 C568 1.378 1_554 S
C566 C570 1.350 . S
C567 C570 1.463 . S
C567 C572 1.350 . S
C567 N575 1.427 . S
C568 H559 0.930 . S
C568 C566 1.378 1_556 S
C568 C569 1.367 . S
C569 C568 1.367 . S
C569 C571 1.433 . S
C570 C566 1.350 . S
C570 C567 1.463 . S
C570 N574 1.427 . S
C571 H561 0.929 . S
C571 C569 1.433 . S
C571 N574 1.384 1_556 S
C572 H563 0.929 . S
C572 C564 1.378 . S
C572 C567 1.350 . S
C573 H560 0.929 . S
C573 C565 1.433 . S
C573 N575 1.384 . S
N574 C570 1.427 . S
N574 C571 1.384 1_554 S
N575 C567 1.427 . S
N575 C573 1.384 . S
H576 C582 0.930 . S
H577 C586 0.930 . S
H578 C591 0.929 . S
H579 C589 0.929 . S
H580 C584 0.929 . S
H581 C590 0.929 . S
C582 H576 0.930 . S
C582 C583 1.367 . S
C582 C590 1.378 . S
C583 C582 1.367 . S
C583 C591 1.433 . S
C584 H580 0.929 . S
C584 C586 1.378 . S
C584 C588 1.350 . S
C585 C588 1.463 . S
C585 C590 1.350 . S
C585 N593 1.427 . S
C586 H577 0.930 . S
C586 C584 1.378 . S
C586 C587 1.367 . S
C587 C586 1.367 . S
C587 C589 1.433 . S
C588 C584 1.350 . S
C588 C585 1.463 . S
C588 N592 1.427 . S
C589 H579 0.929 . S
C589 C587 1.433 . S
C589 N592 1.384 . S
C590 H581 0.929 . S
C590 C582 1.378 . S
C590 C585 1.350 . S
C591 H578 0.929 . S
C591 C583 1.433 . S
C591 N593 1.384 . S
N592 C588 1.427 . S
N592 C589 1.384 . S
N593 C585 1.427 . S
N593 C591 1.384 . S
H594 C600 0.930 . S
H595 C604 0.930 . S
H596 C609 0.929 . S
H597 C607 0.929 . S
H598 C602 0.929 . S
H599 C608 0.929 . S
C600 H594 0.930 . S
C600 C601 1.367 . S
C600 C608 1.378 . S
C601 C600 1.367 . S
C601 C609 1.433 . S
C602 H598 0.929 . S
C602 C604 1.378 . S
C602 C606 1.350 . S
C603 C606 1.463 . S
C603 C608 1.350 . S
C603 N611 1.427 . S
C604 H595 0.930 . S
C604 C602 1.378 . S
C604 C605 1.367 . S
C605 C604 1.367 . S
C605 C607 1.433 . S
C606 C602 1.350 . S
C606 C603 1.463 . S
C606 N610 1.427 . S
C607 H597 0.929 . S
C607 C605 1.433 . S
C607 N610 1.384 . S
C608 H599 0.929 . S
C608 C600 1.378 . S
C608 C603 1.350 . S
C609 H596 0.929 . S
C609 C601 1.433 . S
C609 N611 1.384 . S
N610 C606 1.427 . S
N610 C607 1.384 . S
N611 C603 1.427 . S
N611 C609 1.384 . S
H612 C618 0.930 . S
H613 C622 0.930 . S
H614 C627 0.929 . S
H615 C625 0.929 . S
H616 C620 0.929 . S
H617 C626 0.929 . S
C618 H612 0.930 . S
C618 C619 1.367 . S
C618 C626 1.378 . S
C619 C618 1.367 . S
C619 C627 1.433 . S
C620 H616 0.929 . S
C620 C622 1.378 . S
C620 C624 1.350 . S
C621 C624 1.463 . S
C621 C626 1.350 . S
C621 N629 1.427 . S
C622 H613 0.930 . S
C622 C620 1.378 . S
C622 C623 1.367 . S
C623 C622 1.367 . S
C623 C625 1.433 . S
C624 C620 1.350 . S
C624 C621 1.463 . S
C624 N628 1.427 . S
C625 H615 0.929 . S
C625 C623 1.433 . S
C625 N628 1.384 . S
C626 H617 0.929 . S
C626 C618 1.378 . S
C626 C621 1.350 . S
C627 H614 0.929 . S
C627 C619 1.433 . S
C627 N629 1.384 . S
N628 C624 1.427 . S
N628 C625 1.384 . S
N629 C621 1.427 . S
N629 C627 1.384 . S
H630 C636 0.930 . S
H631 C640 0.930 . S
H632 C645 0.929 . S
H633 C643 0.929 . S
H634 C638 0.929 . S
H635 C644 0.929 . S
C636 H630 0.930 . S
C636 C637 1.367 . S
C636 C644 1.378 . S
C637 C636 1.367 . S
C637 C645 1.433 . S
C638 H634 0.929 . S
C638 C640 1.378 1_556 S
C638 C642 1.350 . S
C639 C642 1.463 . S
C639 C644 1.350 . S
C639 N647 1.427 . S
C640 H631 0.930 . S
C640 C638 1.378 1_554 S
C640 C641 1.367 . S
C641 C640 1.367 . S
C641 C643 1.433 . S
C642 C638 1.350 . S
C642 C639 1.463 . S
C642 N646 1.427 . S
C643 H633 0.929 . S
C643 C641 1.433 . S
C643 N646 1.384 1_554 S
C644 H635 0.929 . S
C644 C636 1.378 . S
C644 C639 1.350 . S
C645 H632 0.929 . S
C645 C637 1.433 . S
C645 N647 1.384 . S
N646 C642 1.427 . S
N646 C643 1.384 1_556 S
N647 C639 1.427 . S
N647 C645 1.384 . S
H648 C654 0.930 . S
H649 C658 0.930 . S
H650 C663 0.929 . S
H651 C661 0.929 . S
H652 C656 0.929 . S
H653 C662 0.929 . S
C654 H648 0.930 . S
C654 C655 1.367 . S
C654 C662 1.378 1_554 S
C655 C654 1.367 . S
C655 C663 1.433 . S
C656 H652 0.929 . S
C656 C658 1.378 . S
C656 C660 1.350 . S
C657 C660 1.463 . S
C657 C662 1.350 . S
C657 N665 1.427 . S
C658 H649 0.930 . S
C658 C656 1.378 . S
C658 C659 1.367 . S
C659 C658 1.367 . S
C659 C661 1.433 . S
C660 C656 1.350 . S
C660 C657 1.463 . S
C660 N664 1.427 . S
C661 H651 0.929 . S
C661 C659 1.433 . S
C661 N664 1.384 . S
C662 H653 0.929 . S
C662 C654 1.378 1_556 S
C662 C657 1.350 . S
C663 H650 0.929 . S
C663 C655 1.433 . S
C663 N665 1.384 1_554 S
N664 C660 1.427 . S
N664 C661 1.384 . S
N665 C657 1.427 . S
N665 C663 1.384 1_556 S
H666 C672 0.930 . S
H667 C676 0.930 . S
H668 C681 0.929 . S
H669 C679 0.929 . S
H670 C674 0.929 . S
H671 C680 0.929 . S
C672 H666 0.930 . S
C672 C673 1.367 . S
C672 C680 1.378 . S
C673 C672 1.367 . S
C673 C681 1.433 . S
C674 H670 0.929 . S
C674 C676 1.378 1_556 S
C674 C678 1.350 . S
C675 C678 1.463 . S
C675 C680 1.350 . S
C675 N683 1.427 . S
C676 H667 0.930 . S
C676 C674 1.378 1_554 S
C676 C677 1.367 . S
C677 C676 1.367 . S
C677 C679 1.433 . S
C678 C674 1.350 . S
C678 C675 1.463 . S
C678 N682 1.427 . S
C679 H669 0.929 . S
C679 C677 1.433 . S
C679 N682 1.384 1_554 S
C680 H671 0.929 . S
C680 C672 1.378 . S
C680 C675 1.350 . S
C681 H668 0.929 . S
C681 C673 1.433 . S
C681 N683 1.384 . S
N682 C678 1.427 . S
N682 C679 1.384 1_556 S
N683 C675 1.427 . S
N683 C681 1.384 . S
H684 C690 0.930 1_455 S
H685 C694 0.930 . S
H686 C699 0.929 . S
H687 C697 0.920 1_455 S
H688 C692 0.929 . S
H689 C698 0.929 1_455 S
C690 H684 0.930 1_655 S
C690 C691 1.367 . S
C690 C698 1.378 . S
C691 C690 1.367 . S
C691 C699 1.433 . S
C692 H688 0.929 . S
C692 C694 1.378 . S
C692 C696 1.350 . S
C693 C696 1.463 . S
C693 C698 1.350 . S
C693 N701 1.427 . S
C694 H685 0.930 . S
C694 C692 1.378 . S
C694 C695 1.367 . S
C695 C694 1.367 . S
C695 C697 1.442 . S
C696 C692 1.350 . S
C696 C693 1.463 . S
C696 N700 1.427 . S
C697 H687 0.920 1_655 S
C697 C695 1.442 . S
C697 N700 1.385 . S
C698 H689 0.929 1_655 S
C698 C690 1.378 . S
C698 C693 1.350 . S
C699 H686 0.929 . S
C699 C691 1.433 . S
C699 N701 1.384 . S
N700 C696 1.427 . S
N700 C697 1.385 . S
N701 C693 1.427 . S
N701 C699 1.384 . S
H702 C708 0.930 . S
H703 C712 0.930 . S
H704 C717 0.929 . S
H705 C715 0.929 . S
H706 C710 0.929 . S
H707 C716 0.929 . S
C708 H702 0.930 . S
C708 C709 1.367 . S
C708 C716 1.378 . S
C709 C708 1.367 . S
C709 C717 1.433 . S
C710 H706 0.929 . S
C710 C712 1.378 . S
C710 C714 1.350 . S
C711 C714 1.463 . S
C711 C716 1.350 . S
C711 N719 1.427 . S
C712 H703 0.930 . S
C712 C710 1.378 . S
C712 C713 1.367 . S
C713 C712 1.367 . S
C713 C715 1.433 . S
C714 C710 1.350 . S
C714 C711 1.463 . S
C714 N718 1.427 . S
C715 H705 0.929 . S
C715 C713 1.433 . S
C715 N718 1.384 . S
C716 H707 0.929 . S
C716 C708 1.378 . S
C716 C711 1.350 . S
C717 H704 0.929 . S
C717 C709 1.433 . S
C717 N719 1.384 . S
N718 C714 1.427 . S
N718 C715 1.384 . S
N719 C711 1.427 . S
N719 C717 1.384 . S
H720 C726 0.930 1_545 S
H721 C730 0.930 . S
H722 C735 0.929 . S
H723 C733 0.942 . S
H724 C728 0.929 . S
H725 C734 0.919 1_545 S
C726 H720 0.930 1_565 S
C726 C727 1.367 . S
C726 C734 1.378 . S
C727 C726 1.367 . S
C727 C735 1.433 . S
C728 H724 0.929 . S
C728 C730 1.378 . S
C728 C732 1.350 . S
C729 C732 1.463 . S
C729 C734 1.350 . S
C729 N737 1.427 . S
C730 H721 0.930 . S
C730 C728 1.378 . S
C730 C731 1.367 . S
C731 C730 1.367 . S
C731 C733 1.433 . S
C732 C728 1.350 . S
C732 C729 1.463 . S
C732 N736 1.427 . S
C733 H723 0.942 . S
C733 C731 1.433 . S
C733 N736 1.384 . S
C734 H725 0.919 1_565 S
C734 C726 1.378 . S
C734 C729 1.350 . S
C735 H722 0.929 . S
C735 C727 1.433 . S
C735 N737 1.384 . S
N736 C732 1.427 . S
N736 C733 1.384 . S
N737 C729 1.427 . S
N737 C735 1.384 . S
H738 C744 0.930 1_565 S
H739 C748 0.930 . S
H740 C753 0.929 . S
H741 C751 0.929 1_565 S
H742 C746 0.929 . S
H743 C752 0.929 1_565 S
C744 H738 0.930 1_545 S
C744 C745 1.367 . S
C744 C752 1.378 . S
C745 C744 1.367 . S
C745 C753 1.433 . S
C746 H742 0.929 . S
C746 C748 1.378 . S
C746 C750 1.350 . S
C747 C750 1.463 . S
C747 C752 1.350 . S
C747 N755 1.427 . S
C748 H739 0.930 . S
C748 C746 1.378 . S
C748 C749 1.367 . S
C749 C748 1.367 . S
C749 C751 1.433 . S
C750 C746 1.350 . S
C750 C747 1.463 . S
C750 N754 1.427 . S
C751 H741 0.929 1_545 S
C751 C749 1.433 . S
C751 N754 1.384 . S
C752 H743 0.929 1_545 S
C752 C744 1.378 . S
C752 C747 1.350 . S
C753 H740 0.929 . S
C753 C745 1.433 . S
C753 N755 1.384 . S
N754 C750 1.427 . S
N754 C751 1.384 . S
N755 C747 1.427 . S
N755 C753 1.384 . S
H756 C762 0.930 . S
H757 C766 0.930 . S
H758 C771 0.929 . S
H759 C769 0.929 . S
H760 C764 0.929 . S
H761 C770 0.929 . S
C762 H756 0.930 . S
C762 C763 1.367 . S
C762 C770 1.378 . S
C763 C762 1.367 . S
C763 C771 1.433 . S
C764 H760 0.929 . S
C764 C766 1.378 . S
C764 C768 1.350 . S
C765 C768 1.463 . S
C765 C770 1.350 . S
C765 N773 1.427 . S
C766 H757 0.930 . S
C766 C764 1.378 . S
C766 C767 1.367 . S
C767 C766 1.367 . S
C767 C769 1.433 . S
C768 C764 1.350 . S
C768 C765 1.463 . S
C768 N772 1.427 . S
C769 H759 0.929 . S
C769 C767 1.433 . S
C769 N772 1.384 . S
C770 H761 0.929 . S
C770 C762 1.378 . S
C770 C765 1.350 . S
C771 H758 0.929 . S
C771 C763 1.433 . S
C771 N773 1.384 . S
N772 C768 1.427 . S
N772 C769 1.384 . S
N773 C765 1.427 . S
N773 C771 1.384 . S
H774 C780 0.930 . S
H775 C784 0.930 . S
H776 C789 0.929 . S
H777 C787 0.929 . S
H778 C782 0.929 . S
H779 C788 0.929 . S
C780 H774 0.930 . S
C780 C781 1.367 . S
C780 C788 1.378 . S
C781 C780 1.367 . S
C781 C789 1.433 . S
C782 H778 0.929 . S
C782 C784 1.378 . S
C782 C786 1.350 . S
C783 C786 1.463 . S
C783 C788 1.350 . S
C783 N791 1.427 . S
C784 H775 0.930 . S
C784 C782 1.378 . S
C784 C785 1.367 . S
C785 C784 1.367 . S
C785 C787 1.433 . S
C786 C782 1.350 . S
C786 C783 1.463 . S
C786 N790 1.427 . S
C787 H777 0.929 . S
C787 C785 1.433 . S
C787 N790 1.384 . S
C788 H779 0.929 . S
C788 C780 1.378 . S
C788 C783 1.350 . S
C789 H776 0.929 . S
C789 C781 1.433 . S
C789 N791 1.384 . S
N790 C786 1.427 . S
N790 C787 1.384 . S
N791 C783 1.427 . S
N791 C789 1.384 . S
H792 C798 0.930 . S
H793 C802 0.930 . S
H794 C807 0.929 . S
H795 C805 0.929 . S
H796 C800 0.929 . S
H797 C806 0.929 . S
C798 H792 0.930 . S
C798 C799 1.367 . S
C798 C806 1.378 . S
C799 C798 1.367 . S
C799 C807 1.433 . S
C800 H796 0.929 . S
C800 C802 1.378 . S
C800 C804 1.350 . S
C801 C804 1.463 . S
C801 C806 1.350 . S
C801 N809 1.427 . S
C802 H793 0.930 . S
C802 C800 1.378 . S
C802 C803 1.367 . S
C803 C802 1.367 . S
C803 C805 1.433 . S
C804 C800 1.350 . S
C804 C801 1.463 . S
C804 N808 1.427 . S
C805 H795 0.929 . S
C805 C803 1.433 . S
C805 N808 1.384 . S
C806 H797 0.929 . S
C806 C798 1.378 . S
C806 C801 1.350 . S
C807 H794 0.929 . S
C807 C799 1.433 . S
C807 N809 1.384 . S
N808 C804 1.427 . S
N808 C805 1.384 . S
N809 C801 1.427 . S
N809 C807 1.384 . S
H810 C816 0.930 . S
H811 C820 0.930 . S
H812 C825 0.929 . S
H813 C823 0.929 . S
H814 C818 0.929 . S
H815 C824 0.929 . S
C816 H810 0.930 . S
C816 C817 1.367 . S
C816 C824 1.378 . S
C817 C816 1.367 . S
C817 C825 1.433 . S
C818 H814 0.929 . S
C818 C820 1.378 . S
C818 C822 1.350 . S
C819 C822 1.463 . S
C819 C824 1.350 . S
C819 N827 1.427 . S
C820 H811 0.930 . S
C820 C818 1.378 . S
C820 C821 1.367 . S
C821 C820 1.367 . S
C821 C823 1.433 . S
C822 C818 1.350 . S
C822 C819 1.463 . S
C822 N826 1.427 . S
C823 H813 0.929 . S
C823 C821 1.433 . S
C823 N826 1.384 . S
C824 H815 0.929 . S
C824 C816 1.378 . S
C824 C819 1.350 . S
C825 H812 0.929 . S
C825 C817 1.433 . S
C825 N827 1.384 . S
N826 C822 1.427 . S
N826 C823 1.384 . S
N827 C819 1.427 . S
N827 C825 1.384 . S
H828 C834 0.930 . S
H829 C838 0.930 . S
H830 C843 0.929 . S
H831 C841 0.929 . S
H832 C836 0.929 . S
H833 C842 0.929 . S
C834 H828 0.930 . S
C834 C835 1.367 . S
C834 C842 1.378 . S
C835 C834 1.367 . S
C835 C843 1.433 . S
C836 H832 0.929 . S
C836 C838 1.378 . S
C836 C840 1.350 . S
C837 C840 1.463 . S
C837 C842 1.350 . S
C837 N845 1.427 . S
C838 H829 0.930 . S
C838 C836 1.378 . S
C838 C839 1.367 . S
C839 C838 1.367 . S
C839 C841 1.433 . S
C840 C836 1.350 . S
C840 C837 1.463 . S
C840 N844 1.427 . S
C841 H831 0.929 . S
C841 C839 1.433 . S
C841 N844 1.384 . S
C842 H833 0.929 . S
C842 C834 1.378 . S
C842 C837 1.350 . S
C843 H830 0.929 . S
C843 C835 1.433 . S
C843 N845 1.384 . S
N844 C840 1.427 . S
N844 C841 1.384 . S
N845 C837 1.427 . S
N845 C843 1.384 . S
H846 C852 0.930 . S
H847 C856 0.930 . S
H848 C861 0.929 . S
H849 C859 0.929 . S
H850 C854 0.929 . S
H851 C860 0.929 . S
C852 H846 0.930 . S
C852 C853 1.367 . S
C852 C860 1.378 . S
C853 C852 1.367 . S
C853 C861 1.433 . S
C854 H850 0.929 . S
C854 C856 1.378 . S
C854 C858 1.350 . S
C855 C858 1.463 . S
C855 C860 1.350 . S
C855 N863 1.427 . S
C856 H847 0.930 . S
C856 C854 1.378 . S
C856 C857 1.367 . S
C857 C856 1.367 . S
C857 C859 1.433 . S
C858 C854 1.350 . S
C858 C855 1.463 . S
C858 N862 1.427 . S
C859 H849 0.929 . S
C859 C857 1.433 . S
C859 N862 1.384 . S
C860 H851 0.929 . S
C860 C852 1.378 . S
C860 C855 1.350 . S
C861 H848 0.929 . S
C861 C853 1.433 . S
C861 N863 1.384 . S
N862 C858 1.427 . S
N862 C859 1.384 . S
N863 C855 1.427 . S
N863 C861 1.384 . S
H864 C870 0.930 . S
H865 C874 0.930 . S
H866 C879 0.929 . S
H867 C877 0.929 . S
H868 C872 0.929 . S
H869 C878 0.929 . S
C870 H864 0.930 . S
C870 C871 1.367 . S
C870 C878 1.378 . S
C871 C870 1.367 . S
C871 C879 1.433 . S
C872 H868 0.929 . S
C872 C874 1.378 . S
C872 C876 1.350 . S
C873 C876 1.463 . S
C873 C878 1.350 . S
C873 N881 1.427 . S
C874 H865 0.930 . S
C874 C872 1.378 . S
C874 C875 1.367 . S
C875 C874 1.367 . S
C875 C877 1.433 . S
C876 C872 1.350 . S
C876 C873 1.463 . S
C876 N880 1.427 . S
C877 H867 0.929 . S
C877 C875 1.433 . S
C877 N880 1.384 . S
C878 H869 0.929 . S
C878 C870 1.378 . S
C878 C873 1.350 . S
C879 H866 0.929 . S
C879 C871 1.433 . S
C879 N881 1.384 . S
N880 C876 1.427 . S
N880 C877 1.384 . S
N881 C873 1.427 . S
N881 C879 1.384 . S
H882 C888 0.930 . S
H883 C892 0.930 . S
H884 C897 0.929 . S
H885 C895 0.929 . S
H886 C890 0.929 . S
H887 C896 0.929 . S
C888 H882 0.930 . S
C888 C889 1.367 . S
C888 C896 1.378 . S
C889 C888 1.367 . S
C889 C897 1.433 . S
C890 H886 0.929 . S
C890 C892 1.378 . S
C890 C894 1.350 . S
C891 C894 1.463 . S
C891 C896 1.350 . S
C891 N899 1.427 . S
C892 H883 0.930 . S
C892 C890 1.378 . S
C892 C893 1.367 . S
C893 C892 1.367 . S
C893 C895 1.433 . S
C894 C890 1.350 . S
C894 C891 1.463 . S
C894 N898 1.427 . S
C895 H885 0.929 . S
C895 C893 1.433 . S
C895 N898 1.384 . S
C896 H887 0.929 . S
C896 C888 1.378 . S
C896 C891 1.350 . S
C897 H884 0.929 . S
C897 C889 1.433 . S
C897 N899 1.384 . S
N898 C894 1.427 . S
N898 C895 1.384 . S
N899 C891 1.427 . S
N899 C897 1.384 . S
H900 C906 0.930 . S
H901 C910 0.930 . S
H902 C915 0.929 . S
H903 C913 0.929 . S
H904 C908 0.929 . S
H905 C914 0.929 . S
C906 H900 0.930 . S
C906 C907 1.367 . S
C906 C914 1.378 . S
C907 C906 1.367 . S
C907 C915 1.433 . S
C908 H904 0.929 . S
C908 C910 1.378 . S
C908 C912 1.350 . S
C909 C912 1.463 . S
C909 C914 1.350 . S
C909 N917 1.427 . S
C910 H901 0.930 . S
C910 C908 1.378 . S
C910 C911 1.367 . S
C911 C910 1.367 . S
C911 C913 1.433 . S
C912 C908 1.350 . S
C912 C909 1.463 . S
C912 N916 1.427 . S
C913 H903 0.929 . S
C913 C911 1.433 . S
C913 N916 1.384 . S
C914 H905 0.929 . S
C914 C906 1.378 . S
C914 C909 1.350 . S
C915 H902 0.929 . S
C915 C907 1.433 . S
C915 N917 1.384 . S
N916 C912 1.427 . S
N916 C913 1.384 . S
N917 C909 1.427 . S
N917 C915 1.384 . S
H918 C924 0.930 . S
H919 C928 0.930 . S
H920 C933 0.929 . S
H921 C931 0.929 . S
H922 C926 0.929 . S
H923 C932 0.929 . S
C924 H918 0.930 . S
C924 C925 1.367 . S
C924 C932 1.378 . S
C925 C924 1.367 . S
C925 C933 1.433 . S
C926 H922 0.929 . S
C926 C928 1.378 . S
C926 C930 1.350 . S
C927 C930 1.463 . S
C927 C932 1.350 . S
C927 N935 1.427 . S
C928 H919 0.930 . S
C928 C926 1.378 . S
C928 C929 1.367 . S
C929 C928 1.367 . S
C929 C931 1.433 . S
C930 C926 1.350 . S
C930 C927 1.463 . S
C930 N934 1.427 . S
C931 H921 0.929 . S
C931 C929 1.433 . S
C931 N934 1.384 . S
C932 H923 0.929 . S
C932 C924 1.378 . S
C932 C927 1.350 . S
C933 H920 0.929 . S
C933 C925 1.433 . S
C933 N935 1.384 . S
N934 C930 1.427 . S
N934 C931 1.384 . S
N935 C927 1.427 . S
N935 C933 1.384 . S
H936 C942 0.930 . S
H937 C946 0.930 . S
H938 C951 0.929 . S
H939 C949 0.929 . S
H940 C944 0.929 . S
H941 C950 0.929 . S
C942 H936 0.930 . S
C942 C943 1.367 . S
C942 C950 1.378 . S
C943 C942 1.367 . S
C943 C951 1.433 . S
C944 H940 0.929 . S
C944 C946 1.378 . S
C944 C948 1.350 . S
C945 C948 1.463 . S
C945 C950 1.350 . S
C945 N953 1.427 . S
C946 H937 0.930 . S
C946 C944 1.378 . S
C946 C947 1.367 . S
C947 C946 1.367 . S
C947 C949 1.433 . S
C948 C944 1.350 . S
C948 C945 1.463 . S
C948 N952 1.427 . S
C949 H939 0.929 . S
C949 C947 1.433 . S
C949 N952 1.384 . S
C950 H941 0.929 . S
C950 C942 1.378 . S
C950 C945 1.350 . S
C951 H938 0.929 . S
C951 C943 1.433 . S
C951 N953 1.384 . S
N952 C948 1.427 . S
N952 C949 1.384 . S
N953 C945 1.427 . S
N953 C951 1.384 . S
H954 C960 0.930 . S
H955 C964 0.930 . S
H956 C969 0.929 . S
H957 C967 0.929 . S
H958 C962 0.929 . S
H959 C968 0.929 . S
C960 H954 0.930 . S
C960 C961 1.367 . S
C960 C968 1.378 . S
C961 C960 1.367 . S
C961 C969 1.433 . S
C962 H958 0.929 . S
C962 C964 1.378 . S
C962 C966 1.350 . S
C963 C966 1.463 . S
C963 C968 1.350 . S
C963 N971 1.427 . S
C964 H955 0.930 . S
C964 C962 1.378 . S
C964 C965 1.367 . S
C965 C964 1.367 . S
C965 C967 1.433 . S
C966 C962 1.350 . S
C966 C963 1.463 . S
C966 N970 1.427 . S
C967 H957 0.929 . S
C967 C965 1.433 . S
C967 N970 1.384 . S
C968 H959 0.929 . S
C968 C960 1.378 . S
C968 C963 1.350 . S
C969 H956 0.929 . S
C969 C961 1.433 . S
C969 N971 1.384 . S
N970 C966 1.427 . S
N970 C967 1.384 . S
N971 C963 1.427 . S
N971 C969 1.384 . S
H972 C978 0.930 . S
H973 C982 0.930 . S
H974 C987 0.929 . S
H975 C985 0.929 . S
H976 C980 0.929 . S
H977 C986 0.929 . S
C978 H972 0.930 . S
C978 C979 1.367 . S
C978 C986 1.378 . S
C979 C978 1.367 . S
C979 C987 1.433 . S
C980 H976 0.929 . S
C980 C982 1.378 . S
C980 C984 1.350 . S
C981 C984 1.463 . S
C981 C986 1.350 . S
C981 N989 1.427 . S
C982 H973 0.930 . S
C982 C980 1.378 . S
C982 C983 1.367 . S
C983 C982 1.367 . S
C983 C985 1.433 . S
C984 C980 1.350 . S
C984 C981 1.463 . S
C984 N988 1.427 . S
C985 H975 0.929 . S
C985 C983 1.433 . S
C985 N988 1.384 . S
C986 H977 0.929 . S
C986 C978 1.378 . S
C986 C981 1.350 . S
C987 H974 0.929 . S
C987 C979 1.433 . S
C987 N989 1.384 . S
N988 C984 1.427 . S
N988 C985 1.384 . S
N989 C981 1.427 . S
N989 C987 1.384 . S
H990 C996 0.930 . S
H991 C1000 0.930 . S
H992 C1005 0.929 . S
H993 C1003 0.929 . S
H994 C998 0.929 . S
H995 C1004 0.929 . S
C996 H990 0.930 . S
C996 C997 1.367 . S
C996 C1004 1.378 . S
C997 C996 1.367 . S
C997 C1005 1.433 . S
C998 H994 0.929 . S
C998 C1000 1.378 . S
C998 C1002 1.350 . S
C999 C1002 1.463 . S
C999 C1004 1.350 . S
C999 N1007 1.427 . S
C1000 H991 0.930 . S
C1000 C998 1.378 . S
C1000 C1001 1.367 . S
C1001 C1000 1.367 . S
C1001 C1003 1.433 . S
C1002 C998 1.350 . S
C1002 C999 1.463 . S
C1002 N1006 1.427 . S
C1003 H993 0.929 . S
C1003 C1001 1.433 . S
C1003 N1006 1.384 . S
C1004 H995 0.929 . S
C1004 C996 1.378 . S
C1004 C999 1.350 . S
C1005 H992 0.929 . S
C1005 C997 1.433 . S
C1005 N1007 1.384 . S
N1006 C1002 1.427 . S
N1006 C1003 1.384 . S
N1007 C999 1.427 . S
N1007 C1005 1.384 . S
H1008 C1014 0.930 . S
H1009 C1018 0.930 . S
H1010 C1023 0.929 . S
H1011 C1021 0.929 . S
H1012 C1016 0.929 . S
H1013 C1022 0.929 . S
C1014 H1008 0.930 . S
C1014 C1015 1.367 1_655 S
C1014 C1022 1.378 . S
C1015 C1014 1.367 1_455 S
C1015 C1023 1.433 . S
C1016 H1012 0.929 . S
C1016 C1018 1.378 . S
C1016 C1020 1.338 1_455 S
C1017 C1020 1.412 1_455 S
C1017 C1022 1.334 1_455 S
C1017 N1025 1.478 . S
C1018 H1009 0.930 . S
C1018 C1016 1.378 . S
C1018 C1019 1.367 1_455 S
C1019 C1018 1.367 1_655 S
C1019 C1021 1.433 . S
C1020 C1016 1.338 1_655 S
C1020 C1017 1.412 1_655 S
C1020 N1024 1.462 . S
C1021 H1011 0.929 . S
C1021 C1019 1.433 . S
C1021 N1024 1.384 . S
C1022 H1013 0.929 . S
C1022 C1014 1.378 . S
C1022 C1017 1.334 1_655 S
C1023 H1010 0.929 . S
C1023 C1015 1.433 . S
C1023 N1025 1.384 . S
N1024 C1020 1.462 . S
N1024 C1021 1.384 . S
N1025 C1017 1.478 . S
N1025 C1023 1.384 . S
H1026 C1032 0.930 . S
H1027 C1036 0.930 . S
H1028 C1041 0.929 . S
H1029 C1039 0.929 . S
H1030 C1034 0.929 . S
H1031 C1040 0.929 . S
C1032 H1026 0.930 . S
C1032 C1033 1.367 . S
C1032 C1040 1.378 . S
C1033 C1032 1.367 . S
C1033 C1041 1.433 . S
C1034 H1030 0.929 . S
C1034 C1036 1.378 . S
C1034 C1038 1.350 . S
C1035 C1038 1.463 . S
C1035 C1040 1.350 . S
C1035 N1043 1.427 . S
C1036 H1027 0.930 . S
C1036 C1034 1.378 . S
C1036 C1037 1.367 . S
C1037 C1036 1.367 . S
C1037 C1039 1.433 . S
C1038 C1034 1.350 . S
C1038 C1035 1.463 . S
C1038 N1042 1.427 . S
C1039 H1029 0.929 . S
C1039 C1037 1.433 . S
C1039 N1042 1.384 . S
C1040 H1031 0.929 . S
C1040 C1032 1.378 . S
C1040 C1035 1.350 . S
C1041 H1028 0.929 . S
C1041 C1033 1.433 . S
C1041 N1043 1.384 . S
N1042 C1038 1.427 . S
N1042 C1039 1.384 . S
N1043 C1035 1.427 . S
N1043 C1041 1.384 . S
H1044 C1050 0.930 . S
H1045 C1054 0.930 . S
H1046 C1059 0.929 . S
H1047 C1057 0.929 . S
H1048 C1052 0.929 . S
H1049 C1058 0.929 . S
C1050 H1044 0.930 . S
C1050 C1051 1.367 . S
C1050 C1058 1.378 . S
C1051 C1050 1.367 . S
C1051 C1059 1.433 . S
C1052 H1048 0.929 . S
C1052 C1054 1.378 . S
C1052 C1056 1.350 . S
C1053 C1056 1.463 1_545 S
C1053 C1058 1.350 . S
C1053 N1061 1.427 . S
C1054 H1045 0.930 . S
C1054 C1052 1.378 . S
C1054 C1055 1.367 . S
C1055 C1054 1.367 . S
C1055 C1057 1.433 . S
C1056 C1052 1.350 . S
C1056 C1053 1.463 1_565 S
C1056 N1060 1.427 . S
C1057 H1047 0.929 . S
C1057 C1055 1.433 . S
C1057 N1060 1.384 . S
C1058 H1049 0.929 . S
C1058 C1050 1.378 . S
C1058 C1053 1.350 . S
C1059 H1046 0.929 . S
C1059 C1051 1.433 . S
C1059 N1061 1.384 . S
N1060 C1056 1.427 . S
N1060 C1057 1.384 . S
N1061 C1053 1.427 . S
N1061 C1059 1.384 . S
H1062 C1068 0.930 . S
H1063 C1072 0.930 . S
H1064 C1077 0.926 1_554 S
H1065 C1075 0.927 1_556 S
H1066 C1070 0.929 . S
H1067 C1076 0.929 . S
C1068 H1062 0.930 . S
C1068 C1069 1.367 1_565 S
C1068 C1076 1.378 . S
C1069 C1068 1.367 1_545 S
C1069 C1077 1.438 . S
C1070 H1066 0.929 . S
C1070 C1072 1.378 . S
C1070 C1074 1.335 1_545 S
C1071 C1074 1.423 1_546 S
C1071 C1076 1.327 1_545 S
C1071 N1079 1.478 1_556 S
C1072 H1063 0.930 . S
C1072 C1070 1.378 . S
C1072 C1073 1.367 1_545 S
C1073 C1072 1.367 1_565 S
C1073 C1075 1.437 . S
C1074 C1070 1.335 1_565 S
C1074 C1071 1.423 1_564 S
C1074 N1078 1.460 1_554 S
C1075 H1065 0.927 1_554 S
C1075 C1073 1.437 . S
C1075 N1078 1.382 1_554 S
C1076 H1067 0.929 . S
C1076 C1068 1.378 . S
C1076 C1071 1.327 1_565 S
C1077 H1064 0.926 1_556 S
C1077 C1069 1.438 . S
C1077 N1079 1.382 1_556 S
N1078 C1074 1.460 1_556 S
N1078 C1075 1.382 1_556 S
N1079 C1071 1.478 1_554 S
N1079 C1077 1.382 1_554 S
H1080 C1086 0.930 . S
H1081 C1090 0.930 . S
H1082 C1095 0.929 . S
H1083 C1093 0.929 . S
H1084 C1088 0.929 1_455 S
H1085 C1094 0.929 1_655 S
C1086 H1080 0.930 . S
C1086 C1087 1.367 . S
C1086 C1094 1.378 . S
C1087 C1086 1.367 . S
C1087 C1095 1.433 1_554 S
C1088 H1084 0.929 1_655 S
C1088 C1090 1.378 . S
C1088 C1092 1.350 . S
C1089 C1092 1.463 1_454 S
C1089 C1094 1.350 . S
C1089 N1097 1.427 1_554 S
C1090 H1081 0.930 . S
C1090 C1088 1.378 . S
C1090 C1091 1.367 . S
C1091 C1090 1.367 . S
C1091 C1093 1.433 1_556 S
C1092 C1088 1.350 . S
C1092 C1089 1.463 1_656 S
C1092 N1096 1.427 1_556 S
C1093 H1083 0.929 . S
C1093 C1091 1.433 1_554 S
C1093 N1096 1.384 . S
C1094 H1085 0.929 1_455 S
C1094 C1086 1.378 . S
C1094 C1089 1.350 . S
C1095 H1082 0.929 . S
C1095 C1087 1.433 1_556 S
C1095 N1097 1.384 . S
N1096 C1092 1.427 1_554 S
N1096 C1093 1.384 . S
N1097 C1089 1.427 1_556 S
N1097 C1095 1.384 . S
H1098 C1104 0.930 . S
H1099 C1108 0.930 . S
H1100 C1113 0.929 . S
H1101 C1111 0.929 . S
H1102 C1106 0.929 . S
H1103 C1112 0.929 . S
C1104 H1098 0.930 . S
C1104 C1105 1.367 . S
C1104 C1112 1.378 . S
C1105 C1104 1.367 . S
C1105 C1113 1.433 1_554 S
C1106 H1102 0.929 . S
C1106 C1108 1.378 . S
C1106 C1110 1.350 . S
C1107 C1110 1.463 1_554 S
C1107 C1112 1.350 . S
C1107 N1115 1.427 1_554 S
C1108 H1099 0.930 . S
C1108 C1106 1.378 . S
C1108 C1109 1.367 . S
C1109 C1108 1.367 . S
C1109 C1111 1.433 1_556 S
C1110 C1106 1.350 . S
C1110 C1107 1.463 1_556 S
C1110 N1114 1.427 1_556 S
C1111 H1101 0.929 . S
C1111 C1109 1.433 1_554 S
C1111 N1114 1.384 . S
C1112 H1103 0.929 . S
C1112 C1104 1.378 . S
C1112 C1107 1.350 . S
C1113 H1100 0.929 . S
C1113 C1105 1.433 1_556 S
C1113 N1115 1.384 . S
N1114 C1110 1.427 1_554 S
N1114 C1111 1.384 . S
N1115 C1107 1.427 1_556 S
N1115 C1113 1.384 . S
H1116 C1122 0.930 . S
H1117 C1126 0.930 . S
H1118 C1131 0.929 1_556 S
H1119 C1129 0.929 . S
H1120 C1124 0.929 . S
H1121 C1130 0.929 . S
C1122 H1116 0.930 . S
C1122 C1123 1.367 . S
C1122 C1130 1.378 . S
C1123 C1122 1.367 . S
C1123 C1131 1.433 . S
C1124 H1120 0.929 . S
C1124 C1126 1.378 . S
C1124 C1128 1.350 . S
C1125 C1128 1.463 . S
C1125 C1130 1.350 . S
C1125 N1133 1.427 . S
C1126 H1117 0.930 . S
C1126 C1124 1.378 . S
C1126 C1127 1.367 . S
C1127 C1126 1.367 . S
C1127 C1129 1.433 . S
C1128 C1124 1.350 . S
C1128 C1125 1.463 . S
C1128 N1132 1.427 . S
C1129 H1119 0.929 . S
C1129 C1127 1.433 . S
C1129 N1132 1.384 . S
C1130 H1121 0.929 . S
C1130 C1122 1.378 . S
C1130 C1125 1.350 . S
C1131 H1118 0.929 1_554 S
C1131 C1123 1.433 . S
C1131 N1133 1.384 . S
N1132 C1128 1.427 . S
N1132 C1129 1.384 . S
N1133 C1125 1.427 . S
N1133 C1131 1.384 . S
H1134 C1140 0.930 . S
H1135 C1144 0.930 . S
H1136 C1149 0.929 . S
H1137 C1147 0.929 . S
H1138 C1142 0.929 . S
H1139 C1148 0.929 . S
C1140 H1134 0.930 . S
C1140 C1141 1.367 . S
C1140 C1148 1.378 . S
C1141 C1140 1.367 . S
C1141 C1149 1.433 . S
C1142 H1138 0.929 . S
C1142 C1144 1.378 . S
C1142 C1146 1.350 . S
C1143 C1146 1.463 . S
C1143 C1148 1.350 . S
C1143 N1151 1.427 . S
C1144 H1135 0.930 . S
C1144 C1142 1.378 . S
C1144 C1145 1.367 . S
C1145 C1144 1.367 . S
C1145 C1147 1.433 . S
C1146 C1142 1.350 . S
C1146 C1143 1.463 . S
C1146 N1150 1.427 . S
C1147 H1137 0.929 . S
C1147 C1145 1.433 . S
C1147 N1150 1.384 . S
C1148 H1139 0.929 . S
C1148 C1140 1.378 . S
C1148 C1143 1.350 . S
C1149 H1136 0.929 . S
C1149 C1141 1.433 . S
C1149 N1151 1.384 . S
N1150 C1146 1.427 . S
N1150 C1147 1.384 . S
N1151 C1143 1.427 . S
N1151 C1149 1.384 . S
H1152 C1158 0.930 . S
H1153 C1162 0.930 . S
H1154 C1167 0.929 . S
H1155 C1165 0.929 1_556 S
H1156 C1160 0.929 . S
H1157 C1166 0.929 . S
C1158 H1152 0.930 . S
C1158 C1159 1.367 . S
C1158 C1166 1.378 . S
C1159 C1158 1.367 . S
C1159 C1167 1.433 . S
C1160 H1156 0.929 . S
C1160 C1162 1.378 . S
C1160 C1164 1.350 . S
C1161 C1164 1.463 . S
C1161 C1166 1.350 . S
C1161 N1169 1.427 . S
C1162 H1153 0.930 . S
C1162 C1160 1.378 . S
C1162 C1163 1.367 . S
C1163 C1162 1.367 . S
C1163 C1165 1.433 . S
C1164 C1160 1.350 . S
C1164 C1161 1.463 . S
C1164 N1168 1.427 . S
C1165 H1155 0.929 1_554 S
C1165 C1163 1.433 . S
C1165 N1168 1.384 . S
C1166 H1157 0.929 . S
C1166 C1158 1.378 . S
C1166 C1161 1.350 . S
C1167 H1154 0.929 . S
C1167 C1159 1.433 . S
C1167 N1169 1.384 . S
N1168 C1164 1.427 . S
N1168 C1165 1.384 . S
N1169 C1161 1.427 . S
N1169 C1167 1.384 . S
H1170 C1176 0.930 . S
H1171 C1180 0.930 . S
H1172 C1185 0.929 . S
H1173 C1183 0.929 . S
H1174 C1178 0.929 . S
H1175 C1184 0.929 . S
C1176 H1170 0.930 . S
C1176 C1177 1.367 . S
C1176 C1184 1.378 . S
C1177 C1176 1.367 . S
C1177 C1185 1.433 . S
C1178 H1174 0.929 . S
C1178 C1180 1.378 . S
C1178 C1182 1.350 . S
C1179 C1182 1.463 . S
C1179 C1184 1.350 . S
C1179 N1187 1.427 . S
C1180 H1171 0.930 . S
C1180 C1178 1.378 . S
C1180 C1181 1.367 . S
C1181 C1180 1.367 . S
C1181 C1183 1.433 . S
C1182 C1178 1.350 . S
C1182 C1179 1.463 . S
C1182 N1186 1.427 . S
C1183 H1173 0.929 . S
C1183 C1181 1.433 . S
C1183 N1186 1.384 . S
C1184 H1175 0.929 . S
C1184 C1176 1.378 . S
C1184 C1179 1.350 . S
C1185 H1172 0.929 . S
C1185 C1177 1.433 . S
C1185 N1187 1.384 . S
N1186 C1182 1.427 . S
N1186 C1183 1.384 . S
N1187 C1179 1.427 . S
N1187 C1185 1.384 . S
H1188 C1194 0.930 . S
H1189 C1198 0.930 . S
H1190 C1203 0.929 . S
H1191 C1201 0.929 . S
H1192 C1196 0.929 . S
H1193 C1202 0.929 . S
C1194 H1188 0.930 . S
C1194 C1195 1.367 . S
C1194 C1202 1.378 . S
C1195 C1194 1.367 . S
C1195 C1203 1.433 . S
C1196 H1192 0.929 . S
C1196 C1198 1.378 . S
C1196 C1200 1.350 . S
C1197 C1200 1.463 . S
C1197 C1202 1.350 . S
C1197 N1205 1.427 . S
C1198 H1189 0.930 . S
C1198 C1196 1.378 . S
C1198 C1199 1.367 . S
C1199 C1198 1.367 . S
C1199 C1201 1.433 . S
C1200 C1196 1.350 . S
C1200 C1197 1.463 . S
C1200 N1204 1.427 . S
C1201 H1191 0.929 . S
C1201 C1199 1.433 . S
C1201 N1204 1.384 . S
C1202 H1193 0.929 . S
C1202 C1194 1.378 . S
C1202 C1197 1.350 . S
C1203 H1190 0.929 . S
C1203 C1195 1.433 . S
C1203 N1205 1.384 . S
N1204 C1200 1.427 . S
N1204 C1201 1.384 . S
N1205 C1197 1.427 . S
N1205 C1203 1.384 . S
H1206 C1212 0.930 . S
H1207 C1216 0.930 . S
H1208 C1221 0.929 . S
H1209 C1219 0.929 . S
H1210 C1214 0.929 . S
H1211 C1220 0.929 . S
C1212 H1206 0.930 . S
C1212 C1213 1.367 . S
C1212 C1220 1.378 . S
C1213 C1212 1.367 . S
C1213 C1221 1.433 . S
C1214 H1210 0.929 . S
C1214 C1216 1.378 . S
C1214 C1218 1.350 . S
C1215 C1218 1.463 . S
C1215 C1220 1.350 . S
C1215 N1223 1.427 . S
C1216 H1207 0.930 . S
C1216 C1214 1.378 . S
C1216 C1217 1.367 . S
C1217 C1216 1.367 . S
C1217 C1219 1.433 . S
C1218 C1214 1.350 . S
C1218 C1215 1.463 . S
C1218 N1222 1.427 . S
C1219 H1209 0.929 . S
C1219 C1217 1.433 . S
C1219 N1222 1.384 . S
C1220 H1211 0.929 . S
C1220 C1212 1.378 . S
C1220 C1215 1.350 . S
C1221 H1208 0.929 . S
C1221 C1213 1.433 . S
C1221 N1223 1.384 . S
N1222 C1218 1.427 . S
N1222 C1219 1.384 . S
N1223 C1215 1.427 . S
N1223 C1221 1.384 . S
H1224 C1230 0.930 . S
H1225 C1234 0.930 . S
H1226 C1239 0.935 . S
H1227 C1237 0.929 . S
H1228 C1232 0.929 . S
H1229 C1238 0.929 . S
C1230 H1224 0.930 . S
C1230 C1231 1.367 . S
C1230 C1238 1.378 . S
C1231 C1230 1.367 . S
C1231 C1239 1.433 . S
C1232 H1228 0.929 . S
C1232 C1234 1.378 . S
C1232 C1236 1.350 . S
C1233 C1236 1.463 . S
C1233 C1238 1.350 . S
C1233 N1241 1.427 . S
C1234 H1225 0.930 . S
C1234 C1232 1.378 . S
C1234 C1235 1.367 . S
C1235 C1234 1.367 . S
C1235 C1237 1.433 . S
C1236 C1232 1.350 . S
C1236 C1233 1.463 . S
C1236 N1240 1.427 . S
C1237 H1227 0.929 . S
C1237 C1235 1.433 . S
C1237 N1240 1.384 . S
C1238 H1229 0.929 . S
C1238 C1230 1.378 . S
C1238 C1233 1.350 . S
C1239 H1226 0.935 . S
C1239 C1231 1.433 . S
C1239 N1241 1.384 . S
N1240 C1236 1.427 . S
N1240 C1237 1.384 . S
N1241 C1233 1.427 . S
N1241 C1239 1.384 . S
H1242 C1248 0.930 . S
H1243 C1252 0.930 . S
H1244 C1257 0.929 . S
H1245 C1255 0.916 1_554 S
H1246 C1250 0.929 . S
H1247 C1256 0.929 . S
C1248 H1242 0.930 . S
C1248 C1249 1.367 . S
C1248 C1256 1.378 . S
C1249 C1248 1.367 . S
C1249 C1257 1.433 . S
C1250 H1246 0.929 . S
C1250 C1252 1.378 . S
C1250 C1254 1.350 . S
C1251 C1254 1.463 . S
C1251 C1256 1.350 . S
C1251 N1259 1.427 . S
C1252 H1243 0.930 . S
C1252 C1250 1.378 . S
C1252 C1253 1.367 . S
C1253 C1252 1.367 . S
C1253 C1255 1.433 . S
C1254 C1250 1.350 . S
C1254 C1251 1.463 . S
C1254 N1258 1.427 . S
C1255 H1245 0.916 1_556 S
C1255 C1253 1.433 . S
C1255 N1258 1.384 . S
C1256 H1247 0.929 . S
C1256 C1248 1.378 . S
C1256 C1251 1.350 . S
C1257 H1244 0.929 . S
C1257 C1249 1.433 . S
C1257 N1259 1.384 . S
N1258 C1254 1.427 . S
N1258 C1255 1.384 . S
N1259 C1251 1.427 . S
N1259 C1257 1.384 . S
H1260 C1266 0.930 1_554 S
H1261 C1270 0.930 . S
H1262 C1275 0.929 . S
H1263 C1273 0.929 . S
H1264 C1268 0.929 . S
H1265 C1274 0.929 . S
C1266 H1260 0.930 1_556 S
C1266 C1267 1.367 . S
C1266 C1274 1.378 . S
C1267 C1266 1.367 . S
C1267 C1275 1.433 . S
C1268 H1264 0.929 . S
C1268 C1270 1.378 . S
C1268 C1272 1.350 . S
C1269 C1272 1.463 . S
C1269 C1274 1.350 . S
C1269 N1277 1.427 . S
C1270 H1261 0.930 . S
C1270 C1268 1.378 . S
C1270 C1271 1.367 . S
C1271 C1270 1.367 . S
C1271 C1273 1.433 . S
C1272 C1268 1.350 . S
C1272 C1269 1.463 . S
C1272 N1276 1.427 . S
C1273 H1263 0.929 . S
C1273 C1271 1.433 . S
C1273 N1276 1.384 . S
C1274 H1265 0.929 . S
C1274 C1266 1.378 . S
C1274 C1269 1.350 . S
C1275 H1262 0.929 . S
C1275 C1267 1.433 . S
C1275 N1277 1.384 . S
N1276 C1272 1.427 . S
N1276 C1273 1.384 . S
N1277 C1269 1.427 . S
N1277 C1275 1.384 . S
H1278 C1284 0.930 . S
H1279 C1288 0.930 . S
H1280 C1293 0.929 . S
H1281 C1291 0.929 . S
H1282 C1286 0.929 . S
H1283 C1292 0.929 . S
C1284 H1278 0.930 . S
C1284 C1285 1.367 . S
C1284 C1292 1.378 . S
C1285 C1284 1.367 . S
C1285 C1293 1.433 . S
C1286 H1282 0.929 . S
C1286 C1288 1.378 . S
C1286 C1290 1.350 . S
C1287 C1290 1.463 . S
C1287 C1292 1.350 . S
C1287 N1295 1.427 . S
C1288 H1279 0.930 . S
C1288 C1286 1.378 . S
C1288 C1289 1.367 . S
C1289 C1288 1.367 . S
C1289 C1291 1.433 . S
C1290 C1286 1.350 . S
C1290 C1287 1.463 . S
C1290 N1294 1.427 . S
C1291 H1281 0.929 . S
C1291 C1289 1.433 . S
C1291 N1294 1.384 . S
C1292 H1283 0.929 . S
C1292 C1284 1.378 . S
C1292 C1287 1.350 . S
C1293 H1280 0.929 . S
C1293 C1285 1.433 . S
C1293 N1295 1.384 . S
N1294 C1290 1.427 . S
N1294 C1291 1.384 . S
N1295 C1287 1.427 . S
N1295 C1293 1.384 . S
H1296 C1302 0.930 . S
H1297 C1306 0.930 . S
H1298 C1311 0.929 . S
H1299 C1309 0.929 . S
H1300 C1304 0.929 . S
H1301 C1310 0.929 . S
C1302 H1296 0.930 . S
C1302 C1303 1.367 . S
C1302 C1310 1.378 . S
C1303 C1302 1.367 . S
C1303 C1311 1.433 . S
C1304 H1300 0.929 . S
C1304 C1306 1.378 . S
C1304 C1308 1.350 . S
C1305 C1308 1.463 . S
C1305 C1310 1.350 . S
C1305 N1313 1.427 . S
C1306 H1297 0.930 . S
C1306 C1304 1.378 . S
C1306 C1307 1.367 . S
C1307 C1306 1.367 . S
C1307 C1309 1.433 . S
C1308 C1304 1.350 . S
C1308 C1305 1.463 . S
C1308 N1312 1.427 . S
C1309 H1299 0.929 . S
C1309 C1307 1.433 . S
C1309 N1312 1.384 . S
C1310 H1301 0.929 . S
C1310 C1302 1.378 . S
C1310 C1305 1.350 . S
C1311 H1298 0.929 . S
C1311 C1303 1.433 . S
C1311 N1313 1.384 . S
N1312 C1308 1.427 . S
N1312 C1309 1.384 . S
N1313 C1305 1.427 . S
N1313 C1311 1.384 . S
H1314 C1320 0.930 . S
H1315 C1324 0.930 . S
H1316 C1329 0.929 . S
H1317 C1327 0.929 . S
H1318 C1322 0.929 . S
H1319 C1328 0.929 . S
C1320 H1314 0.930 . S
C1320 C1321 1.367 . S
C1320 C1328 1.378 . S
C1321 C1320 1.367 . S
C1321 C1329 1.433 . S
C1322 H1318 0.929 . S
C1322 C1324 1.378 . S
C1322 C1326 1.350 . S
C1323 C1326 1.463 . S
C1323 C1328 1.350 . S
C1323 N1331 1.427 . S
C1324 H1315 0.930 . S
C1324 C1322 1.378 . S
C1324 C1325 1.367 . S
C1325 C1324 1.367 . S
C1325 C1327 1.433 . S
C1326 C1322 1.350 . S
C1326 C1323 1.463 . S
C1326 N1330 1.427 . S
C1327 H1317 0.929 . S
C1327 C1325 1.433 . S
C1327 N1330 1.384 . S
C1328 H1319 0.929 . S
C1328 C1320 1.378 . S
C1328 C1323 1.350 . S
C1329 H1316 0.929 . S
C1329 C1321 1.433 . S
C1329 N1331 1.384 . S
N1330 C1326 1.427 . S
N1330 C1327 1.384 . S
N1331 C1323 1.427 . S
N1331 C1329 1.384 . S
H1332 C1338 0.930 . S
H1333 C1342 0.930 . S
H1334 C1347 0.929 . S
H1335 C1345 0.929 . S
H1336 C1340 0.929 . S
H1337 C1346 0.929 . S
C1338 H1332 0.930 . S
C1338 C1339 1.367 . S
C1338 C1346 1.378 . S
C1339 C1338 1.367 . S
C1339 C1347 1.433 . S
C1340 H1336 0.929 . S
C1340 C1342 1.378 . S
C1340 C1344 1.350 . S
C1341 C1344 1.463 . S
C1341 C1346 1.350 . S
C1341 N1349 1.427 . S
C1342 H1333 0.930 . S
C1342 C1340 1.378 . S
C1342 C1343 1.367 . S
C1343 C1342 1.367 . S
C1343 C1345 1.433 . S
C1344 C1340 1.350 . S
C1344 C1341 1.463 . S
C1344 N1348 1.427 . S
C1345 H1335 0.929 . S
C1345 C1343 1.433 . S
C1345 N1348 1.384 . S
C1346 H1337 0.929 . S
C1346 C1338 1.378 . S
C1346 C1341 1.350 . S
C1347 H1334 0.929 . S
C1347 C1339 1.433 . S
C1347 N1349 1.384 . S
N1348 C1344 1.427 . S
N1348 C1345 1.384 . S
N1349 C1341 1.427 . S
N1349 C1347 1.384 . S
H1350 C1356 0.930 . S
H1351 C1360 0.930 . S
H1352 C1365 0.929 . S
H1353 C1363 0.929 . S
H1354 C1358 0.929 . S
H1355 C1364 0.929 . S
C1356 H1350 0.930 . S
C1356 C1357 1.367 . S
C1356 C1364 1.378 . S
C1357 C1356 1.367 . S
C1357 C1365 1.433 . S
C1358 H1354 0.929 . S
C1358 C1360 1.378 . S
C1358 C1362 1.350 . S
C1359 C1362 1.463 1_565 S
C1359 C1364 1.350 . S
C1359 N1367 1.427 . S
C1360 H1351 0.930 . S
C1360 C1358 1.378 . S
C1360 C1361 1.367 . S
C1361 C1360 1.367 . S
C1361 C1363 1.433 . S
C1362 C1358 1.350 . S
C1362 C1359 1.463 1_545 S
C1362 N1366 1.427 . S
C1363 H1353 0.929 . S
C1363 C1361 1.433 . S
C1363 N1366 1.384 . S
C1364 H1355 0.929 . S
C1364 C1356 1.378 . S
C1364 C1359 1.350 . S
C1365 H1352 0.929 . S
C1365 C1357 1.433 . S
C1365 N1367 1.384 . S
N1366 C1362 1.427 . S
N1366 C1363 1.384 . S
N1367 C1359 1.427 . S
N1367 C1365 1.384 . S
H1368 C1374 0.930 . S
H1369 C1378 0.930 . S
H1370 C1383 0.929 . S
H1371 C1381 0.929 . S
H1372 C1376 0.929 . S
H1373 C1382 0.929 1_655 S
C1374 H1368 0.930 . S
C1374 C1375 1.367 . S
C1374 C1382 1.378 . S
C1375 C1374 1.367 . S
C1375 C1383 1.433 . S
C1376 H1372 0.929 . S
C1376 C1378 1.378 . S
C1376 C1380 1.350 . S
C1377 C1380 1.463 1_455 S
C1377 C1382 1.350 . S
C1377 N1385 1.427 . S
C1378 H1369 0.930 . S
C1378 C1376 1.378 . S
C1378 C1379 1.367 . S
C1379 C1378 1.367 . S
C1379 C1381 1.433 . S
C1380 C1376 1.350 . S
C1380 C1377 1.463 1_655 S
C1380 N1384 1.427 . S
C1381 H1371 0.929 . S
C1381 C1379 1.433 . S
C1381 N1384 1.384 . S
C1382 H1373 0.929 1_455 S
C1382 C1374 1.378 . S
C1382 C1377 1.350 . S
C1383 H1370 0.929 . S
C1383 C1375 1.433 . S
C1383 N1385 1.384 . S
N1384 C1380 1.427 . S
N1384 C1381 1.384 . S
N1385 C1377 1.427 . S
N1385 C1383 1.384 . S
H1386 C1392 0.930 . S
H1387 C1396 0.930 . S
H1388 C1401 0.929 . S
H1389 C1399 0.929 . S
H1390 C1394 0.929 . S
H1391 C1400 0.929 . S
C1392 H1386 0.930 . S
C1392 C1393 1.367 . S
C1392 C1400 1.378 . S
C1393 C1392 1.367 . S
C1393 C1401 1.433 . S
C1394 H1390 0.929 . S
C1394 C1396 1.378 . S
C1394 C1398 1.350 . S
C1395 C1398 1.463 . S
C1395 C1400 1.350 . S
C1395 N1403 1.427 . S
C1396 H1387 0.930 . S
C1396 C1394 1.378 . S
C1396 C1397 1.367 . S
C1397 C1396 1.367 . S
C1397 C1399 1.433 . S
C1398 C1394 1.350 . S
C1398 C1395 1.463 . S
C1398 N1402 1.427 . S
C1399 H1389 0.929 . S
C1399 C1397 1.433 . S
C1399 N1402 1.384 . S
C1400 H1391 0.929 . S
C1400 C1392 1.378 . S
C1400 C1395 1.350 . S
C1401 H1388 0.929 . S
C1401 C1393 1.433 . S
C1401 N1403 1.384 . S
N1402 C1398 1.427 . S
N1402 C1399 1.384 . S
N1403 C1395 1.427 . S
N1403 C1401 1.384 . S
H1404 C1410 0.930 . S
H1405 C1414 0.930 . S
H1406 C1419 0.929 . S
H1407 C1417 0.929 . S
H1408 C1412 0.929 . S
H1409 C1418 0.867 1_545 S
C1410 H1404 0.930 . S
C1410 C1411 1.367 . S
C1410 C1418 1.378 . S
C1411 C1410 1.367 . S
C1411 C1419 1.433 . S
C1412 H1408 0.929 . S
C1412 C1414 1.378 . S
C1412 C1416 1.350 . S
C1413 C1416 1.463 1_565 S
C1413 C1418 1.350 . S
C1413 N1421 1.427 . S
C1414 H1405 0.930 . S
C1414 C1412 1.378 . S
C1414 C1415 1.367 . S
C1415 C1414 1.367 . S
C1415 C1417 1.433 . S
C1416 C1412 1.350 . S
C1416 C1413 1.463 1_545 S
C1416 N1420 1.427 . S
C1417 H1407 0.929 . S
C1417 C1415 1.433 . S
C1417 N1420 1.384 . S
C1418 H1409 0.867 1_565 S
C1418 C1410 1.378 . S
C1418 C1413 1.350 . S
C1419 H1406 0.929 . S
C1419 C1411 1.433 . S
C1419 N1421 1.384 . S
N1420 C1416 1.427 . S
N1420 C1417 1.384 . S
N1421 C1413 1.427 . S
N1421 C1419 1.384 . S
H1422 C1428 0.930 . S
H1423 C1432 0.930 . S
H1424 C1437 0.929 . S
H1425 C1435 0.929 . S
H1426 C1430 0.929 1_455 S
H1427 C1436 0.929 . S
C1428 H1422 0.930 . S
C1428 C1429 1.367 . S
C1428 C1436 1.378 . S
C1429 C1428 1.367 . S
C1429 C1437 1.433 . S
C1430 H1426 0.929 1_655 S
C1430 C1432 1.378 . S
C1430 C1434 1.350 . S
C1431 C1434 1.463 1_455 S
C1431 C1436 1.350 . S
C1431 N1439 1.427 . S
C1432 H1423 0.930 . S
C1432 C1430 1.378 . S
C1432 C1433 1.367 . S
C1433 C1432 1.367 . S
C1433 C1435 1.433 . S
C1434 C1430 1.350 . S
C1434 C1431 1.463 1_655 S
C1434 N1438 1.427 . S
C1435 H1425 0.929 . S
C1435 C1433 1.433 . S
C1435 N1438 1.384 . S
C1436 H1427 0.929 . S
C1436 C1428 1.378 . S
C1436 C1431 1.350 . S
C1437 H1424 0.929 . S
C1437 C1429 1.433 . S
C1437 N1439 1.384 . S
N1438 C1434 1.427 . S
N1438 C1435 1.384 . S
N1439 C1431 1.427 . S
N1439 C1437 1.384 . S
H1440 C1446 0.930 . S
H1441 C1450 0.930 . S
H1442 C1455 0.929 . S
H1443 C1453 0.929 . S
H1444 C1448 0.929 . S
H1445 C1454 0.929 . S
C1446 H1440 0.930 . S
C1446 C1447 1.367 . S
C1446 C1454 1.378 1_554 S
C1447 C1446 1.367 . S
C1447 C1455 1.433 . S
C1448 H1444 0.929 . S
C1448 C1450 1.378 . S
C1448 C1452 1.350 . S
C1449 C1452 1.463 . S
C1449 C1454 1.350 . S
C1449 N1457 1.427 . S
C1450 H1441 0.930 . S
C1450 C1448 1.378 . S
C1450 C1451 1.367 . S
C1451 C1450 1.367 . S
C1451 C1453 1.433 . S
C1452 C1448 1.350 . S
C1452 C1449 1.463 . S
C1452 N1456 1.427 . S
C1453 H1443 0.929 . S
C1453 C1451 1.433 . S
C1453 N1456 1.384 . S
C1454 H1445 0.929 . S
C1454 C1446 1.378 1_556 S
C1454 C1449 1.350 . S
C1455 H1442 0.929 . S
C1455 C1447 1.433 . S
C1455 N1457 1.384 1_554 S
N1456 C1452 1.427 . S
N1456 C1453 1.384 . S
N1457 C1449 1.427 . S
N1457 C1455 1.384 1_556 S
H1458 C1464 0.930 . S
H1459 C1468 0.930 . S
H1460 C1473 0.929 . S
H1461 C1471 0.929 . S
H1462 C1466 0.929 . S
H1463 C1472 0.929 . S
C1464 H1458 0.930 . S
C1464 C1465 1.367 . S
C1464 C1472 1.378 1_554 S
C1465 C1464 1.367 . S
C1465 C1473 1.433 . S
C1466 H1462 0.929 . S
C1466 C1468 1.378 . S
C1466 C1470 1.350 . S
C1467 C1470 1.463 . S
C1467 C1472 1.350 . S
C1467 N1475 1.427 . S
C1468 H1459 0.930 . S
C1468 C1466 1.378 . S
C1468 C1469 1.367 . S
C1469 C1468 1.367 . S
C1469 C1471 1.433 . S
C1470 C1466 1.350 . S
C1470 C1467 1.463 . S
C1470 N1474 1.427 . S
C1471 H1461 0.929 . S
C1471 C1469 1.433 . S
C1471 N1474 1.384 . S
C1472 H1463 0.929 . S
C1472 C1464 1.378 1_556 S
C1472 C1467 1.350 . S
C1473 H1460 0.929 . S
C1473 C1465 1.433 . S
C1473 N1475 1.384 1_554 S
N1474 C1470 1.427 . S
N1474 C1471 1.384 . S
N1475 C1467 1.427 . S
N1475 C1473 1.384 1_556 S
H1476 C1482 0.930 . S
H1477 C1486 0.930 . S
H1478 C1491 0.929 . S
H1479 C1489 0.929 . S
H1480 C1484 0.929 . S
H1481 C1490 0.929 . S
C1482 H1476 0.930 . S
C1482 C1483 1.367 . S
C1482 C1490 1.378 1_554 S
C1483 C1482 1.367 . S
C1483 C1491 1.433 . S
C1484 H1480 0.929 . S
C1484 C1486 1.378 . S
C1484 C1488 1.350 . S
C1485 C1488 1.463 . S
C1485 C1490 1.350 . S
C1485 N1493 1.427 . S
C1486 H1477 0.930 . S
C1486 C1484 1.378 . S
C1486 C1487 1.367 . S
C1487 C1486 1.367 . S
C1487 C1489 1.433 . S
C1488 C1484 1.350 . S
C1488 C1485 1.463 . S
C1488 N1492 1.427 . S
C1489 H1479 0.929 . S
C1489 C1487 1.433 . S
C1489 N1492 1.384 . S
C1490 H1481 0.929 . S
C1490 C1482 1.378 1_556 S
C1490 C1485 1.350 . S
C1491 H1478 0.929 . S
C1491 C1483 1.433 . S
C1491 N1493 1.384 1_554 S
N1492 C1488 1.427 . S
N1492 C1489 1.384 . S
N1493 C1485 1.427 . S
N1493 C1491 1.384 1_556 S
H1494 C1500 0.930 . S
H1495 C1504 0.930 . S
H1496 C1509 0.929 . S
H1497 C1507 0.929 . S
H1498 C1502 0.929 . S
H1499 C1508 0.929 . S
C1500 H1494 0.930 . S
C1500 C1501 1.367 . S
C1500 C1508 1.378 . S
C1501 C1500 1.367 . S
C1501 C1509 1.433 . S
C1502 H1498 0.929 . S
C1502 C1504 1.378 . S
C1502 C1506 1.350 . S
C1503 C1506 1.463 . S
C1503 C1508 1.350 . S
C1503 N1511 1.427 . S
C1504 H1495 0.930 . S
C1504 C1502 1.378 . S
C1504 C1505 1.367 . S
C1505 C1504 1.367 . S
C1505 C1507 1.433 . S
C1506 C1502 1.350 . S
C1506 C1503 1.463 . S
C1506 N1510 1.427 . S
C1507 H1497 0.929 . S
C1507 C1505 1.433 . S
C1507 N1510 1.384 . S
C1508 H1499 0.929 . S
C1508 C1500 1.378 . S
C1508 C1503 1.350 . S
C1509 H1496 0.929 . S
C1509 C1501 1.433 . S
C1509 N1511 1.384 . S
N1510 C1506 1.427 . S
N1510 C1507 1.384 . S
N1511 C1503 1.427 . S
N1511 C1509 1.384 . S
H1512 C1518 0.930 . S
H1513 C1522 0.930 . S
H1514 C1527 0.929 . S
H1515 C1525 0.929 . S
H1516 C1520 0.929 . S
H1517 C1526 0.929 . S
C1518 H1512 0.930 . S
C1518 C1519 1.367 . S
C1518 C1526 1.378 . S
C1519 C1518 1.367 . S
C1519 C1527 1.433 . S
C1520 H1516 0.929 . S
C1520 C1522 1.378 . S
C1520 C1524 1.350 . S
C1521 C1524 1.463 . S
C1521 C1526 1.350 . S
C1521 N1529 1.427 . S
C1522 H1513 0.930 . S
C1522 C1520 1.378 . S
C1522 C1523 1.367 . S
C1523 C1522 1.367 . S
C1523 C1525 1.433 . S
C1524 C1520 1.350 . S
C1524 C1521 1.463 . S
C1524 N1528 1.427 . S
C1525 H1515 0.929 . S
C1525 C1523 1.433 . S
C1525 N1528 1.384 . S
C1526 H1517 0.929 . S
C1526 C1518 1.378 . S
C1526 C1521 1.350 . S
C1527 H1514 0.929 . S
C1527 C1519 1.433 . S
C1527 N1529 1.384 . S
N1528 C1524 1.427 . S
N1528 C1525 1.384 . S
N1529 C1521 1.427 . S
N1529 C1527 1.384 . S
H1530 C1536 0.930 . S
H1531 C1540 0.930 . S
H1532 C1545 0.929 . S
H1533 C1543 0.929 . S
H1534 C1538 0.929 . S
H1535 C1544 0.929 . S
C1536 H1530 0.930 . S
C1536 C1537 1.367 . S
C1536 C1544 1.378 . S
C1537 C1536 1.367 . S
C1537 C1545 1.433 . S
C1538 H1534 0.929 . S
C1538 C1540 1.378 . S
C1538 C1542 1.350 . S
C1539 C1542 1.463 . S
C1539 C1544 1.350 . S
C1539 N1547 1.427 . S
C1540 H1531 0.930 . S
C1540 C1538 1.378 . S
C1540 C1541 1.367 . S
C1541 C1540 1.367 . S
C1541 C1543 1.433 . S
C1542 C1538 1.350 . S
C1542 C1539 1.463 . S
C1542 N1546 1.427 . S
C1543 H1533 0.929 . S
C1543 C1541 1.433 . S
C1543 N1546 1.384 . S
C1544 H1535 0.929 . S
C1544 C1536 1.378 . S
C1544 C1539 1.350 . S
C1545 H1532 0.929 . S
C1545 C1537 1.433 . S
C1545 N1547 1.384 . S
N1546 C1542 1.427 . S
N1546 C1543 1.384 . S
N1547 C1539 1.427 . S
N1547 C1545 1.384 . S
H1548 C1554 0.930 . S
H1549 C1558 0.930 . S
H1550 C1563 0.929 . S
H1551 C1561 0.929 . S
H1552 C1556 0.929 . S
H1553 C1562 0.929 . S
C1554 H1548 0.930 . S
C1554 C1555 1.367 . S
C1554 C1562 1.378 . S
C1555 C1554 1.367 . S
C1555 C1563 1.433 . S
C1556 H1552 0.929 . S
C1556 C1558 1.378 1_554 S
C1556 C1560 1.350 . S
C1557 C1560 1.463 . S
C1557 C1562 1.350 . S
C1557 N1565 1.427 . S
C1558 H1549 0.930 . S
C1558 C1556 1.378 1_556 S
C1558 C1559 1.367 . S
C1559 C1558 1.367 . S
C1559 C1561 1.433 . S
C1560 C1556 1.350 . S
C1560 C1557 1.463 . S
C1560 N1564 1.427 . S
C1561 H1551 0.929 . S
C1561 C1559 1.433 . S
C1561 N1564 1.384 1_556 S
C1562 H1553 0.929 . S
C1562 C1554 1.378 . S
C1562 C1557 1.350 . S
C1563 H1550 0.929 . S
C1563 C1555 1.433 . S
C1563 N1565 1.384 . S
N1564 C1560 1.427 . S
N1564 C1561 1.384 1_554 S
N1565 C1557 1.427 . S
N1565 C1563 1.384 . S
H1566 C1572 0.930 . S
H1567 C1576 0.930 . S
H1568 C1581 0.929 . S
H1569 C1579 0.929 . S
H1570 C1574 0.929 . S
H1571 C1580 0.929 . S
C1572 H1566 0.930 . S
C1572 C1573 1.367 . S
C1572 C1580 1.378 . S
C1573 C1572 1.367 . S
C1573 C1581 1.433 . S
C1574 H1570 0.929 . S
C1574 C1576 1.378 1_554 S
C1574 C1578 1.350 . S
C1575 C1578 1.463 . S
C1575 C1580 1.350 . S
C1575 N1583 1.427 . S
C1576 H1567 0.930 . S
C1576 C1574 1.378 1_556 S
C1576 C1577 1.367 . S
C1577 C1576 1.367 . S
C1577 C1579 1.433 . S
C1578 C1574 1.350 . S
C1578 C1575 1.463 . S
C1578 N1582 1.427 . S
C1579 H1569 0.929 . S
C1579 C1577 1.433 . S
C1579 N1582 1.384 1_556 S
C1580 H1571 0.929 . S
C1580 C1572 1.378 . S
C1580 C1575 1.350 . S
C1581 H1568 0.929 . S
C1581 C1573 1.433 . S
C1581 N1583 1.384 . S
N1582 C1578 1.427 . S
N1582 C1579 1.384 1_554 S
N1583 C1575 1.427 . S
N1583 C1581 1.384 . S
H1584 C1590 0.930 . S
H1585 C1594 0.930 . S
H1586 C1599 0.929 . S
H1587 C1597 0.929 . S
H1588 C1592 0.929 . S
H1589 C1598 0.929 . S
C1590 H1584 0.930 . S
C1590 C1591 1.367 . S
C1590 C1598 1.378 . S
C1591 C1590 1.367 . S
C1591 C1599 1.433 . S
C1592 H1588 0.929 . S
C1592 C1594 1.378 1_554 S
C1592 C1596 1.350 . S
C1593 C1596 1.463 . S
C1593 C1598 1.350 . S
C1593 N1601 1.427 . S
C1594 H1585 0.930 . S
C1594 C1592 1.378 1_556 S
C1594 C1595 1.367 . S
C1595 C1594 1.367 . S
C1595 C1597 1.433 . S
C1596 C1592 1.350 . S
C1596 C1593 1.463 . S
C1596 N1600 1.427 . S
C1597 H1587 0.929 . S
C1597 C1595 1.433 . S
C1597 N1600 1.384 1_556 S
C1598 H1589 0.929 . S
C1598 C1590 1.378 . S
C1598 C1593 1.350 . S
C1599 H1586 0.929 . S
C1599 C1591 1.433 . S
C1599 N1601 1.384 . S
N1600 C1596 1.427 . S
N1600 C1597 1.384 1_554 S
N1601 C1593 1.427 . S
N1601 C1599 1.384 . S
H1602 C1608 0.930 . S
H1603 C1612 0.930 . S
H1604 C1617 0.929 . S
H1605 C1615 0.929 . S
H1606 C1610 0.929 . S
H1607 C1616 0.929 . S
C1608 H1602 0.930 . S
C1608 C1609 1.367 . S
C1608 C1616 1.378 . S
C1609 C1608 1.367 . S
C1609 C1617 1.433 . S
C1610 H1606 0.929 . S
C1610 C1612 1.378 . S
C1610 C1614 1.350 . S
C1611 C1614 1.463 . S
C1611 C1616 1.350 . S
C1611 N1619 1.427 . S
C1612 H1603 0.930 . S
C1612 C1610 1.378 . S
C1612 C1613 1.367 . S
C1613 C1612 1.367 . S
C1613 C1615 1.433 . S
C1614 C1610 1.350 . S
C1614 C1611 1.463 . S
C1614 N1618 1.427 . S
C1615 H1605 0.929 . S
C1615 C1613 1.433 . S
C1615 N1618 1.384 . S
C1616 H1607 0.929 . S
C1616 C1608 1.378 . S
C1616 C1611 1.350 . S
C1617 H1604 0.929 . S
C1617 C1609 1.433 . S
C1617 N1619 1.384 . S
N1618 C1614 1.427 . S
N1618 C1615 1.384 . S
N1619 C1611 1.427 . S
N1619 C1617 1.384 . S
H1620 C1626 0.930 . S
H1621 C1630 0.930 . S
H1622 C1635 0.929 . S
H1623 C1633 0.929 . S
H1624 C1628 0.929 . S
H1625 C1634 0.929 . S
C1626 H1620 0.930 . S
C1626 C1627 1.367 . S
C1626 C1634 1.378 . S
C1627 C1626 1.367 . S
C1627 C1635 1.433 . S
C1628 H1624 0.929 . S
C1628 C1630 1.378 . S
C1628 C1632 1.350 . S
C1629 C1632 1.463 . S
C1629 C1634 1.350 . S
C1629 N1637 1.427 . S
C1630 H1621 0.930 . S
C1630 C1628 1.378 . S
C1630 C1631 1.367 . S
C1631 C1630 1.367 . S
C1631 C1633 1.433 . S
C1632 C1628 1.350 . S
C1632 C1629 1.463 . S
C1632 N1636 1.427 . S
C1633 H1623 0.929 . S
C1633 C1631 1.433 . S
C1633 N1636 1.384 . S
C1634 H1625 0.929 . S
C1634 C1626 1.378 . S
C1634 C1629 1.350 . S
C1635 H1622 0.929 . S
C1635 C1627 1.433 . S
C1635 N1637 1.384 . S
N1636 C1632 1.427 . S
N1636 C1633 1.384 . S
N1637 C1629 1.427 . S
N1637 C1635 1.384 . S
H1638 C1644 0.930 . S
H1639 C1648 0.930 . S
H1640 C1653 0.929 . S
H1641 C1651 0.929 . S
H1642 C1646 0.929 . S
H1643 C1652 0.929 . S
C1644 H1638 0.930 . S
C1644 C1645 1.367 . S
C1644 C1652 1.378 . S
C1645 C1644 1.367 . S
C1645 C1653 1.433 . S
C1646 H1642 0.929 . S
C1646 C1648 1.378 . S
C1646 C1650 1.350 . S
C1647 C1650 1.463 . S
C1647 C1652 1.350 . S
C1647 N1655 1.427 . S
C1648 H1639 0.930 . S
C1648 C1646 1.378 . S
C1648 C1649 1.367 . S
C1649 C1648 1.367 . S
C1649 C1651 1.433 . S
C1650 C1646 1.350 . S
C1650 C1647 1.463 . S
C1650 N1654 1.427 . S
C1651 H1641 0.929 . S
C1651 C1649 1.433 . S
C1651 N1654 1.384 . S
C1652 H1643 0.929 . S
C1652 C1644 1.378 . S
C1652 C1647 1.350 . S
C1653 H1640 0.929 . S
C1653 C1645 1.433 . S
C1653 N1655 1.384 . S
N1654 C1650 1.427 . S
N1654 C1651 1.384 . S
N1655 C1647 1.427 . S
N1655 C1653 1.384 . S
H1656 C1662 0.930 . S
H1657 C1666 0.930 . S
H1658 C1671 0.929 . S
H1659 C1669 0.929 . S
H1660 C1664 0.929 . S
H1661 C1670 0.929 . S
C1662 H1656 0.930 . S
C1662 C1663 1.367 . S
C1662 C1670 1.378 . S
C1663 C1662 1.367 . S
C1663 C1671 1.433 . S
C1664 H1660 0.929 . S
C1664 C1666 1.378 . S
C1664 C1668 1.350 . S
C1665 C1668 1.463 . S
C1665 C1670 1.350 . S
C1665 N1673 1.427 . S
C1666 H1657 0.930 . S
C1666 C1664 1.378 . S
C1666 C1667 1.367 . S
C1667 C1666 1.367 . S
C1667 C1669 1.433 . S
C1668 C1664 1.350 . S
C1668 C1665 1.463 . S
C1668 N1672 1.427 . S
C1669 H1659 0.929 . S
C1669 C1667 1.433 . S
C1669 N1672 1.384 . S
C1670 H1661 0.929 . S
C1670 C1662 1.378 . S
C1670 C1665 1.350 . S
C1671 H1658 0.929 . S
C1671 C1663 1.433 . S
C1671 N1673 1.384 . S
N1672 C1668 1.427 . S
N1672 C1669 1.384 . S
N1673 C1665 1.427 . S
N1673 C1671 1.384 . S
H1674 C1680 0.930 . S
H1675 C1684 0.930 . S
H1676 C1689 0.929 . S
H1677 C1687 0.929 . S
H1678 C1682 0.929 . S
H1679 C1688 0.929 . S
C1680 H1674 0.930 . S
C1680 C1681 1.367 . S
C1680 C1688 1.378 . S
C1681 C1680 1.367 . S
C1681 C1689 1.433 . S
C1682 H1678 0.929 . S
C1682 C1684 1.378 . S
C1682 C1686 1.350 . S
C1683 C1686 1.463 . S
C1683 C1688 1.350 . S
C1683 N1691 1.427 . S
C1684 H1675 0.930 . S
C1684 C1682 1.378 . S
C1684 C1685 1.367 . S
C1685 C1684 1.367 . S
C1685 C1687 1.433 . S
C1686 C1682 1.350 . S
C1686 C1683 1.463 . S
C1686 N1690 1.427 . S
C1687 H1677 0.929 . S
C1687 C1685 1.433 . S
C1687 N1690 1.384 . S
C1688 H1679 0.929 . S
C1688 C1680 1.378 . S
C1688 C1683 1.350 . S
C1689 H1676 0.929 . S
C1689 C1681 1.433 . S
C1689 N1691 1.384 . S
N1690 C1686 1.427 . S
N1690 C1687 1.384 . S
N1691 C1683 1.427 . S
N1691 C1689 1.384 . S
H1692 C1698 0.922 1_545 S
H1693 C1702 0.930 . S
H1694 C1707 0.929 . S
H1695 C1705 0.927 . S
H1696 C1700 0.929 . S
H1697 C1706 0.925 1_545 S
C1698 H1692 0.922 1_565 S
C1698 C1699 1.367 . S
C1698 C1706 1.378 . S
C1699 C1698 1.367 . S
C1699 C1707 1.433 . S
C1700 H1696 0.929 . S
C1700 C1702 1.378 . S
C1700 C1704 1.350 . S
C1701 C1704 1.463 . S
C1701 C1706 1.350 . S
C1701 N1709 1.427 . S
C1702 H1693 0.930 . S
C1702 C1700 1.378 . S
C1702 C1703 1.367 . S
C1703 C1702 1.367 . S
C1703 C1705 1.433 . S
C1704 C1700 1.350 . S
C1704 C1701 1.463 . S
C1704 N1708 1.427 . S
C1705 H1695 0.927 . S
C1705 C1703 1.433 . S
C1705 N1708 1.384 . S
C1706 H1697 0.925 1_565 S
C1706 C1698 1.378 . S
C1706 C1701 1.350 . S
C1707 H1694 0.929 . S
C1707 C1699 1.433 . S
C1707 N1709 1.384 . S
N1708 C1704 1.427 . S
N1708 C1705 1.384 . S
N1709 C1701 1.427 . S
N1709 C1707 1.384 . S
H1710 C1716 0.930 1_565 S
H1711 C1720 0.930 . S
H1712 C1725 0.929 . S
H1713 C1723 0.929 1_565 S
H1714 C1718 0.929 . S
H1715 C1724 0.929 1_565 S
C1716 H1710 0.930 1_545 S
C1716 C1717 1.367 . S
C1716 C1724 1.378 . S
C1717 C1716 1.367 . S
C1717 C1725 1.433 . S
C1718 H1714 0.929 . S
C1718 C1720 1.378 . S
C1718 C1722 1.350 . S
C1719 C1722 1.463 . S
C1719 C1724 1.350 . S
C1719 N1727 1.427 . S
C1720 H1711 0.930 . S
C1720 C1718 1.378 . S
C1720 C1721 1.367 . S
C1721 C1720 1.367 . S
C1721 C1723 1.433 . S
C1722 C1718 1.350 . S
C1722 C1719 1.463 . S
C1722 N1726 1.427 . S
C1723 H1713 0.929 1_545 S
C1723 C1721 1.433 . S
C1723 N1726 1.384 . S
C1724 H1715 0.929 1_545 S
C1724 C1716 1.378 . S
C1724 C1719 1.350 . S
C1725 H1712 0.929 . S
C1725 C1717 1.433 . S
C1725 N1727 1.384 . S
N1726 C1722 1.427 . S
N1726 C1723 1.384 . S
N1727 C1719 1.427 . S
N1727 C1725 1.384 . S
H1728 C1734 0.930 . S
H1729 C1738 0.930 . S
H1730 C1743 0.929 . S
H1731 C1741 0.929 . S
H1732 C1736 0.929 . S
H1733 C1742 0.929 . S
C1734 H1728 0.930 . S
C1734 C1735 1.367 . S
C1734 C1742 1.378 . S
C1735 C1734 1.367 . S
C1735 C1743 1.433 . S
C1736 H1732 0.929 . S
C1736 C1738 1.378 . S
C1736 C1740 1.350 . S
C1737 C1740 1.463 . S
C1737 C1742 1.350 . S
C1737 N1745 1.427 . S
C1738 H1729 0.930 . S
C1738 C1736 1.378 . S
C1738 C1739 1.367 . S
C1739 C1738 1.367 . S
C1739 C1741 1.433 . S
C1740 C1736 1.350 . S
C1740 C1737 1.463 . S
C1740 N1744 1.427 . S
C1741 H1731 0.929 . S
C1741 C1739 1.433 . S
C1741 N1744 1.384 . S
C1742 H1733 0.929 . S
C1742 C1734 1.378 . S
C1742 C1737 1.350 . S
C1743 H1730 0.929 . S
C1743 C1735 1.433 . S
C1743 N1745 1.384 . S
N1744 C1740 1.427 . S
N1744 C1741 1.384 . S
N1745 C1737 1.427 . S
N1745 C1743 1.384 . S
H1746 C1752 0.930 . S
H1747 C1756 0.930 . S
H1748 C1761 0.929 . S
H1749 C1759 0.929 . S
H1750 C1754 0.929 . S
H1751 C1760 0.929 . S
C1752 H1746 0.930 . S
C1752 C1753 1.367 . S
C1752 C1760 1.378 . S
C1753 C1752 1.367 . S
C1753 C1761 1.433 . S
C1754 H1750 0.929 . S
C1754 C1756 1.378 . S
C1754 C1758 1.350 . S
C1755 C1758 1.463 . S
C1755 C1760 1.350 . S
C1755 N1763 1.427 . S
C1756 H1747 0.930 . S
C1756 C1754 1.378 . S
C1756 C1757 1.367 . S
C1757 C1756 1.367 . S
C1757 C1759 1.433 . S
C1758 C1754 1.350 . S
C1758 C1755 1.463 . S
C1758 N1762 1.427 . S
C1759 H1749 0.929 . S
C1759 C1757 1.433 . S
C1759 N1762 1.384 . S
C1760 H1751 0.929 . S
C1760 C1752 1.378 . S
C1760 C1755 1.350 . S
C1761 H1748 0.929 . S
C1761 C1753 1.433 . S
C1761 N1763 1.384 . S
N1762 C1758 1.427 . S
N1762 C1759 1.384 . S
N1763 C1755 1.427 . S
N1763 C1761 1.384 . S
C475 C212 1.616 . S
C479 C10 1.611 . S
C493 C225 1.595 . S
C497 C17 1.599 . S
C511 C205 1.608 . S
C515 C30 1.611 . S
C529 C342 1.585 . S
C533 C43 1.582 . S
C547 C62 1.595 . S
C551 C322 1.589 . S
C565 C75 1.577 . S
C569 C329 1.574 . S
C583 C88 1.610 . S
C587 C452 1.620 . S
C601 C459 1.603 . S
C605 C95 1.598 . S
C619 C439 1.607 . S
C623 C108 1.615 . S
C637 C121 1.582 . S
C641 C270 1.585 . S
C655 C244 1.580 . S
C659 C134 1.591 . S
C673 C153 1.568 . S
C677 C257 1.567 . S
C691 C374 1.541 . S
C695 C166 1.535 . S
C709 C179 1.511 . S
C713 C381 1.515 . S
C727 C361 1.501 . S
C731 C192 1.504 . S
C745 C420 1.508 . S
C749 C283 1.508 . S
C763 C394 1.534 . S
C767 C290 1.535 . S
C781 C309 1.514 . S
C785 C413 1.503 . S
C799 C238 1.324 . S
C803 C4 1.325 . S
C817 C251 1.448 . S
C821 C23 1.446 . S
C835 C264 1.699 . S
C839 C36 1.709 . S
C853 C49 1.328 . S
C857 C433 1.327 . S
C871 C56 1.721 . S
C875 C446 1.722 . S
C889 C69 1.459 . S
C893 C465 1.463 . S
C907 C82 1.325 . S
C911 C316 1.324 . S
C925 C335 1.444 . S
C929 C101 1.442 . S
C943 C348 1.700 . S
C947 C114 1.710 . S
C961 C199 1.328 . S
C965 C127 1.329 . S
C979 C140 1.730 . S
C983 C218 1.732 . S
C997 C147 1.453 . S
C1001 C231 1.458 . S
C1015 C160 1.327 . S
C1019 C400 1.335 . S
C1033 C407 1.420 . S
C1037 C173 1.420 . S
C1051 C426 1.559 . S
C1055 C186 1.559 . S
C1069 C355 1.387 . S
C1073 C277 1.395 . S
C1087 C296 1.637 . S
C1091 C368 1.637 . S
C1105 C303 1.501 . S
C1109 C387 1.501 . S
C1123 C356 1.454 . S
C1127 C5 1.455 . S
C1141 C16 1.389 . S
C1145 C369 1.359 . S
C1159 C29 1.347 . S
C1163 C380 1.384 . S
C1177 C161 1.432 . S
C1181 C42 1.429 . S
C1195 C57 1.359 . S
C1199 C174 1.420 . S
C1213 C70 1.330 . S
C1217 C187 1.311 . S
C1231 C278 1.454 . S
C1235 C83 1.456 . S
C1249 C94 1.387 . S
C1253 C289 1.357 . S
C1267 C304 1.389 . S
C1271 C107 1.351 . S
C1285 C120 1.435 . S
C1289 C393 1.420 . S
C1303 C408 1.420 . S
C1307 C133 1.364 . S
C1321 C419 1.304 . S
C1325 C148 1.335 . S
C1339 C317 1.471 . S
C1343 C200 1.472 . S
C1357 C328 1.436 . S
C1361 C211 1.387 . S
C1375 C341 1.392 . S
C1379 C224 1.443 . S
C1393 C239 1.469 . S
C1397 C434 1.471 . S
C1411 C447 1.383 . S
C1415 C252 1.441 . S
C1429 C458 1.444 . S
C1433 C265 1.391 . S
C1447 C3 0.956 . S
C1451 C213 0.953 . S
C1465 C18 0.946 . S
C1469 C226 0.953 . S
C1483 C31 0.956 . S
C1487 C198 0.956 . S
C1501 C343 0.987 . S
C1505 C44 0.987 . S
C1519 C315 0.958 . S
C1523 C55 0.965 . S
C1537 C330 0.974 . S
C1541 C68 0.967 . S
C1555 C445 0.940 . S
C1559 C81 0.937 . S
C1573 C460 0.943 . S
C1577 C96 0.951 . S
C1591 C432 0.936 . S
C1595 C109 0.943 . S
C1609 C122 0.969 . S
C1613 C263 0.973 . S
C1627 C135 0.967 . S
C1631 C237 0.971 . S
C1645 C146 0.971 . S
C1649 C250 0.977 . S
C1663 C367 1.012 . S
C1667 C159 1.022 . S
C1681 C382 1.016 . S
C1685 C172 1.018 . S
C1699 C185 1.047 . S
C1703 C354 1.053 . S
C1717 C276 1.035 . S
C1721 C421 1.041 . S
C1735 C395 1.019 . S
C1739 C291 1.019 . S
C1753 C406 1.027 . S
C1757 C302 1.034 . S
