# Generated by pormake.
# Topology zfb, (5)-cn, num edge types: 1
# Building blocks:
#     Node 0, Type 0, BuildingBlock: XOMCOT_clean_sbu_1, # of connection points: 5
#     Node 1, Type 0, BuildingBlock: XOMCOT_clean_sbu_1, # of connection points: 5
#     Node 2, Type 0, BuildingBlock: XOMCOT_clean_sbu_1, # of connection points: 5
#     Node 3, Type 0, BuildingBlock: XOMCOT_clean_sbu_1, # of connection points: 5
#     Node 4, Type 0, BuildingBlock: XOMCOT_clean_sbu_1, # of connection points: 5
#     Node 5, Type 0, BuildingBlock: XOMCOT_clean_sbu_1, # of connection points: 5
#     Node 6, Type 0, BuildingBlock: XOMCOT_clean_sbu_1, # of connection points: 5
#     Node 7, Type 0, BuildingBlock: XOMCOT_clean_sbu_1, # of connection points: 5
#     Edge 8, Type (0, 0), BuildingBlock: AJUNOK_clean_linker_0, # of connection points: 2
#     Edge 9, Type (0, 0), BuildingBlock: AJUNOK_clean_linker_0, # of connection points: 2
#     Edge 10, Type (0, 0), BuildingBlock: AJUNOK_clean_linker_0, # of connection points: 2
#     Edge 11, Type (0, 0), BuildingBlock: AJUNOK_clean_linker_0, # of connection points: 2
#     Edge 12, Type (0, 0), BuildingBlock: AJUNOK_clean_linker_0, # of connection points: 2
#     Edge 13, Type (0, 0), BuildingBlock: AJUNOK_clean_linker_0, # of connection points: 2
#     Edge 14, Type (0, 0), BuildingBlock: AJUNOK_clean_linker_0, # of connection points: 2
#     Edge 15, Type (0, 0), BuildingBlock: AJUNOK_clean_linker_0, # of connection points: 2
#     Edge 16, Type (0, 0), BuildingBlock: AJUNOK_clean_linker_0, # of connection points: 2
#     Edge 17, Type (0, 0), BuildingBlock: AJUNOK_clean_linker_0, # of connection points: 2
#     Edge 18, Type (0, 0), BuildingBlock: AJUNOK_clean_linker_0, # of connection points: 2
#     Edge 19, Type (0, 0), BuildingBlock: AJUNOK_clean_linker_0, # of connection points: 2
#     Edge 20, Type (0, 0), BuildingBlock: AJUNOK_clean_linker_0, # of connection points: 2
#     Edge 21, Type (0, 0), BuildingBlock: AJUNOK_clean_linker_0, # of connection points: 2
#     Edge 22, Type (0, 0), BuildingBlock: AJUNOK_clean_linker_0, # of connection points: 2
#     Edge 23, Type (0, 0), BuildingBlock: AJUNOK_clean_linker_0, # of connection points: 2
#     Edge 24, Type (0, 0), BuildingBlock: AJUNOK_clean_linker_0, # of connection points: 2
#     Edge 25, Type (0, 0), BuildingBlock: AJUNOK_clean_linker_0, # of connection points: 2
#     Edge 26, Type (0, 0), BuildingBlock: AJUNOK_clean_linker_0, # of connection points: 2
#     Edge 27, Type (0, 0), BuildingBlock: AJUNOK_clean_linker_0, # of connection points: 2
# Relax obj value: 0.169
# Max RMSD: 0.182
# Mean RMSD: 0.182
data_MOF--net-zfb--node1-XOMCOT_clean_sbu_1--edge1-AJUNOK_clean_linker_0
_symmetry_space_group_name_H-M    P1
_symmetry_Int_Tables_number       1
_symmetry_cell_setting            triclinic
loop_
_symmetry_equiv_pos_as_xyz
'x, y, z'
_cell_length_a     24.749228
_cell_length_b     24.429138
_cell_length_c     26.325962
_cell_angle_alpha  89.837917
_cell_angle_beta   89.576191
_cell_angle_gamma 89.580634
loop_
_atom_site_label
_atom_site_type_symbol
_atom_site_fract_x
_atom_site_fract_y
_atom_site_fract_z
_atom_type_partial_charge
C0 C 0.24439 0.4203 0.95136 0.0
C1 C 0.23578 0.41311 0.90045 0.0
N2 N 0.18696 0.39012 0.89433 0.0
N3 N 0.20125 0.40224 0.97787 0.0
C4 C 0.16701 0.38326 0.9421 0.0
H5 H 0.28081 0.4359 0.96836 0.0
Co6 Co 0.20233 0.39924 0.0492 0.0
C7 C 0.10154 0.45133 0.08128 0.0
O8 O 0.13044 0.47845 0.11434 0.0
N9 N 0.20725 0.39209 0.121 0.0
C10 C 0.24763 0.3717 0.19423 0.0
C11 C 0.25536 0.38506 0.144 0.0
C12 C 0.1707 0.37909 0.15792 0.0
N13 N 0.19421 0.3675 0.2031 0.0
O14 O 0.18895 0.32194 0.04685 0.0
H15 H 0.29407 0.38684 0.12477 0.0
H16 H 0.12784 0.37498 0.15137 0.0
O17 O 0.12423 0.41477 0.05328 0.0
C18 C 0.2252 0.29013 1.02874 0.0
O19 O 0.2702 0.31138 1.01105 0.0
N20 N 0.21661 0.47702 0.05037 0.0
C21 C 0.22943 0.59113 0.05279 0.0
C22 C 0.19118 0.56728 1.0211 0.0
C23 C 0.18566 0.51054 1.0202 0.0
C24 C 0.2571 0.4995 0.0783 0.0
C25 C 0.26368 0.55639 0.08062 0.0
H26 H 0.15502 0.49365 0.99591 0.0
H27 H 0.28476 0.4741 0.09913 0.0
H28 H 0.12914 0.36337 0.95095 0.0
H29 H 0.26474 0.42136 0.87044 0.0
H30 H 0.27919 0.36499 0.22181 0.0
H31 H 0.16545 0.59223 0.99714 0.0
H32 H 0.29482 0.57301 0.10467 0.0
C33 C 0.60259 0.26811 0.46834 0.0
C34 C 0.61214 0.26173 0.41721 0.0
N35 N 0.61962 0.20805 0.40778 0.0
N36 N 0.60392 0.21873 0.49132 0.0
C37 C 0.61512 0.18286 0.45347 0.0
H38 H 0.59529 0.30643 0.48779 0.0
Co39 Co 0.5921 0.20903 0.5613 0.0
C40 C 0.57634 0.08895 0.55006 0.0
O41 O 0.62811 0.07726 0.55277 0.0
N42 N 0.58006 0.19884 0.63195 0.0
C43 C 0.53794 0.18084 0.7052 0.0
C44 C 0.53143 0.18983 0.65413 0.0
C45 C 0.61575 0.19356 0.67064 0.0
N46 N 0.59091 0.18315 0.7156 0.0
O47 O 0.66225 0.17801 0.56724 0.0
H48 H 0.49344 0.18781 0.63423 0.0
H49 H 0.65914 0.19586 0.66595 0.0
O50 O 0.5604 0.13851 0.55127 0.0
C51 C 0.69973 0.21268 0.56172 0.0
O52 O 0.68726 0.26458 0.55531 0.0
N53 N 0.52412 0.24231 0.55417 0.0
C54 C 0.42281 0.29134 0.54567 0.0
C55 C 0.43615 0.24468 0.51728 0.0
C56 C 0.48706 0.22109 0.5217 0.0
C57 C 0.5133 0.28958 0.57989 0.0
C58 C 0.46236 0.3146 0.57666 0.0
H59 H 0.49649 0.1855 0.49896 0.0
H60 H 0.54386 0.30705 0.60401 0.0
H61 H 0.61963 0.1392 0.4591 0.0
H62 H 0.61466 0.29425 0.3893 0.0
H63 H 0.50645 0.17045 0.73226 0.0
H64 H 0.40685 0.22539 0.49289 0.0
H65 H 0.4538 0.35119 0.5985 0.0
C66 C 0.72873 0.60796 0.98168 0.0
C67 C 0.73715 0.61909 0.931 0.0
N68 N 0.79076 0.62171 0.9222 0.0
N69 N 0.77676 0.60282 1.0051 0.0
C70 C 0.81393 0.61171 0.96792 0.0
H71 H 0.68995 0.60434 1.00056 0.0
Co72 Co 0.78459 0.58996 0.07557 0.0
C73 C 0.8738 0.50454 0.06916 0.0
O74 O 0.84273 0.46367 0.08258 0.0
N75 N 0.793 0.57868 0.14775 0.0
C76 C 0.80603 0.53975 0.22363 0.0
C77 C 0.79672 0.53056 0.17306 0.0
C78 C 0.79989 0.61667 0.18491 0.0
N79 N 0.8077 0.59408 0.23156 0.0
O80 O 0.8211 0.65818 0.08051 0.0
H81 H 0.79269 0.4906 0.15645 0.0
H82 H 0.79953 0.66024 0.17803 0.0
O83 O 0.85455 0.55315 0.0645 0.0
C84 C 0.7871 0.69724 0.07715 0.0
O85 O 0.7354 0.68582 0.07477 0.0
N86 N 0.74444 0.52489 0.06881 0.0
C87 C 0.6856 0.42861 0.06244 0.0
C88 C 0.72499 0.44108 1.02582 0.0
C89 C 0.75332 0.48987 1.02918 0.0
C90 C 0.70139 0.51688 0.10064 0.0
C91 C 0.6721 0.46819 0.09893 0.0
H92 H 0.78483 0.49792 1.00156 0.0
H93 H 0.6912 0.54727 0.129 0.0
H94 H 0.85704 0.61085 0.97439 0.0
H95 H 0.70607 0.6264 0.90302 0.0
H96 H 0.81307 0.50832 0.25189 0.0
H97 H 0.73628 0.41192 0.9966 0.0
H98 H 0.6406 0.46076 0.12682 0.0
C99 C 0.35384 0.73694 0.52643 0.0
C100 C 0.3405 0.73977 0.4757 0.0
N101 N 0.34407 0.79236 0.46046 0.0
N102 N 0.3663 0.78744 0.54286 0.0
C103 C 0.35962 0.82031 0.50196 0.0
H104 H 0.35532 0.7004 0.54969 0.0
Co105 Co 0.3901 0.80647 0.60744 0.0
C106 C 0.41619 0.92212 0.59148 0.0
O107 O 0.37728 0.93654 0.62303 0.0
N108 N 0.41446 0.82707 0.67301 0.0
C109 C 0.47014 0.8552 0.73368 0.0
C110 C 0.46546 0.84328 0.68301 0.0
C111 C 0.38863 0.83063 0.71856 0.0
N112 N 0.4218 0.84748 0.75595 0.0
O113 O 0.32286 0.84277 0.61807 0.0
H114 H 0.49751 0.84639 0.65503 0.0
H115 H 0.34651 0.82109 0.7246 0.0
O116 O 0.42351 0.87184 0.58082 0.0
C117 C 0.28788 0.81082 0.63718 0.0
O118 O 0.30331 0.76181 0.65211 0.0
N119 N 0.45425 0.76722 0.59585 0.0
C120 C 0.55581 0.71973 0.58707 0.0
C121 C 0.53575 0.75297 0.54813 0.0
C122 C 0.48467 0.77641 0.55325 0.0
C123 C 0.47046 0.72966 0.63112 0.0
C124 C 0.5221 0.70641 0.62818 0.0
H125 H 0.47076 0.80421 0.52409 0.0
H126 H 0.44488 0.72088 0.66358 0.0
H127 H 0.36773 0.86371 0.50214 0.0
H128 H 0.32907 0.7058 0.45185 0.0
H129 H 0.50598 0.86971 0.75259 0.0
H130 H 0.56094 0.7643 0.51599 0.0
H131 H 0.5366 0.68073 0.65888 0.0
C132 C 0.74377 0.10405 0.15102 0.0
C133 C 0.73963 0.11692 0.20173 0.0
N134 N 0.68706 0.12475 0.21335 0.0
N135 N 0.69401 0.103 0.13059 0.0
C136 C 0.66022 0.11596 0.16949 0.0
H137 H 0.78085 0.09693 0.12998 0.0
Co138 Co 0.68075 0.09162 0.06118 0.0
C139 C 0.56584 0.05965 0.08621 0.0
O140 O 0.54597 0.10942 0.09056 0.0
N141 N 0.66769 0.08128 0.99126 0.0
C142 C 0.64744 0.04308 0.91713 0.0
C143 C 0.65504 0.03379 0.96817 0.0
C144 C 0.66707 0.11893 0.95332 0.0
N145 N 0.65466 0.09673 0.90789 0.0
O146 O 0.6433 0.15978 0.05895 0.0
H147 H 0.65119 0.99479 0.98731 0.0
H148 H 0.67528 0.16191 0.95875 0.0
O149 O 0.61558 0.05213 0.07582 0.0
C150 C 0.6771 0.19861 0.05799 0.0
O151 O 0.72897 0.18697 0.05629 0.0
N152 N 0.71985 0.02545 0.06441 0.0
C153 C 0.77603 0.92651 0.06863 0.0
C154 C 0.73435 0.93787 0.10327 0.0
C155 C 0.70673 0.98744 0.10052 0.0
C156 C 0.76234 0.01649 1.03206 0.0
C157 C 0.79037 0.96647 1.03275 0.0
H158 H 0.67447 0.99514 0.12751 0.0
H159 H 0.77338 0.04754 1.00459 0.0
H160 H 0.61693 0.11946 0.16562 0.0
H161 H 0.77293 0.12206 0.22768 0.0
H162 H 0.63567 0.01306 0.88921 0.0
H163 H 0.72161 0.90764 0.131 0.0
H164 H 0.82216 0.95869 1.00516 0.0
C165 C 0.88823 0.7629 0.67209 0.0
C166 C 0.87977 0.75344 0.72291 0.0
N167 N 0.87039 0.6997 0.72976 0.0
N168 N 0.88439 0.71548 0.64633 0.0
C169 C 0.87268 0.67755 0.68251 0.0
H170 H 0.89593 0.80226 0.65472 0.0
Co171 Co 0.89302 0.71302 0.57499 0.0
C172 C 0.95636 0.61421 0.5542 0.0
O173 O 0.98714 0.64354 0.52398 0.0
N174 N 0.90011 0.71156 0.50132 0.0
C175 C 0.9281 0.72035 0.42072 0.0
C176 C 0.93873 0.73277 0.47049 0.0
C177 C 0.86628 0.68655 0.4681 0.0
N178 N 0.88232 0.69111 0.41872 0.0
O179 O 0.82049 0.68954 0.56956 0.0
H180 H 0.9745 0.75376 0.48245 0.0
H181 H 0.83035 0.66544 0.48009 0.0
O182 O 0.91667 0.63658 0.57787 0.0
C183 C 0.78638 0.72747 0.57822 0.0
O184 O 0.80375 0.77715 0.58732 0.0
N185 N 0.96375 0.73959 0.58402 0.0
C186 C 0.06222 0.78722 0.60859 0.0
C187 C 0.04964 0.73436 0.62531 0.0
C188 C -0.00019 0.71196 0.61387 0.0
C189 C 0.97344 0.79277 0.57092 0.0
C190 C 0.02311 0.81707 0.5817 0.0
H191 H 0.98982 0.67293 0.63059 0.0
H192 H 0.94248 0.81632 0.55173 0.0
H193 H 0.8658 0.63476 0.67443 0.0
H194 H 0.8787 0.78423 0.75239 0.0
H195 H 0.95364 0.73058 0.38859 0.0
H196 H 0.07814 0.71026 0.6472 0.0
H197 H 0.03056 0.8588 0.56975 0.0
C198 C 0.25939 0.89904 0.19128 0.0
C199 C 0.2547 0.88602 0.24189 0.0
N200 N 0.30362 0.87045 0.25853 0.0
N201 N 0.31132 0.89231 0.17584 0.0
C202 C 0.33712 0.87424 0.21801 0.0
H203 H 0.22677 0.91366 0.16777 0.0
Co204 Co 0.34117 0.90526 0.11033 0.0
C205 C 0.44799 0.85892 0.1247 0.0
O206 O 0.4786 0.81553 0.1321 0.0
N207 N 0.37084 0.91747 0.04563 0.0
C208 C 0.40041 0.96257 0.97752 0.0
C209 C 0.38834 0.96644 1.0285 0.0
C210 C 0.37366 0.88413 1.00468 0.0
N211 N 0.39108 0.91087 0.96282 0.0
O212 O 0.3 0.84449 0.08497 0.0
H213 H 0.38966 0.00325 0.05118 0.0
H214 H 0.36085 0.84188 1.0048 0.0
O215 O 0.39692 0.85301 0.12417 0.0
C216 C 0.25208 0.82727 0.07869 0.0
O217 O 0.21071 0.85947 0.08873 0.0
N218 N 0.28813 0.95916 0.09647 0.0
C219 C 0.23978 0.05856 0.06958 0.0
C220 C 0.26446 0.052 0.11684 0.0
C221 C 0.28904 0.00236 0.12913 0.0
C222 C 0.26094 0.96337 0.05158 0.0
C223 C 0.23646 0.01301 1.03733 0.0
H224 H 0.31168 0.99945 0.16388 0.0
H225 H 0.26214 0.93003 1.02468 0.0
H226 H 0.37985 0.8648 0.21947 0.0
H227 H 0.21814 0.88748 0.2647 0.0
H228 H 0.4136 0.99542 0.95278 0.0
H229 H 0.26863 0.0863 0.14249 0.0
H230 H 0.21795 0.01665 1.00032 0.0
C231 C 0.11772 0.23599 0.64225 0.0
C232 C 0.12929 0.24445 0.69267 0.0
N233 N 0.12484 0.29843 0.70252 0.0
N234 N 0.10555 0.28429 0.62019 0.0
C235 C 0.1103 0.32164 0.65777 0.0
H236 H 0.11876 0.19717 0.62259 0.0
Co237 Co 0.09017 0.29362 0.55094 0.0
C238 C 0.00642 0.38336 0.55911 0.0
O239 O 0.96712 0.35236 0.54298 0.0
N240 N 0.07652 0.30357 0.47921 0.0
C241 C 0.03763 0.31501 0.40333 0.0
C242 C 0.02889 0.30501 0.45413 0.0
C243 C 0.1136 0.31257 0.44171 0.0
N244 N 0.09104 0.3196 0.39539 0.0
O245 O 0.15651 0.33131 0.54403 0.0
H246 H 0.98968 0.29785 0.47077 0.0
H247 H 0.1565 0.31518 0.448 0.0
O248 O 0.05416 0.36377 0.5643 0.0
C249 C 0.19568 0.29779 0.53992 0.0
O250 O 0.18574 0.24516 0.53703 0.0
N251 N 0.02655 0.25281 0.56007 0.0
C252 C 0.9284 0.19927 0.56571 0.0
C253 C 0.94289 0.23646 0.60347 0.0
C254 C 0.99264 0.26235 0.60033 0.0
C255 C 0.01703 0.20999 0.52827 0.0
C256 C 0.96718 0.18352 0.52943 0.0
H257 H 0.00188 0.29346 0.62798 0.0
H258 H 0.0465 0.19912 0.4994 0.0
H259 H 0.10291 0.36491 0.6523 0.0
H260 H 0.14155 0.21336 0.7197 0.0
H261 H 0.00701 0.31773 0.37426 0.0
H262 H 0.91428 0.24909 0.63259 0.0
H263 H 0.95781 0.15363 0.50054 0.0
C264 C 0.195 0.14981 0.08351 0.0
C265 C 0.2259 0.11479 0.05214 0.0
C266 C 0.19173 0.20629 0.07369 0.0
C267 C 0.22018 0.22984 1.03274 0.0
H268 H 0.17531 0.13376 0.11724 0.0
H269 H 0.16962 0.23203 0.10021 0.0
S270 S 0.30238 0.15528 0.93649 0.0
N271 N 0.28185 0.10719 0.97622 0.0
N272 N 0.27602 0.21313 0.95792 0.0
C273 C 0.24851 0.19482 0.99942 0.0
C274 C 0.25125 0.13732 1.00904 0.0
C275 C 0.83932 0.16911 0.60089 0.0
C276 C 0.8706 0.18681 0.55913 0.0
C277 C 0.78273 0.17296 0.60009 0.0
C278 C 0.75632 0.19551 0.55788 0.0
H279 H 0.85887 0.15568 0.63549 0.0
H280 H 0.75997 0.16227 0.63396 0.0
S281 S 0.81876 0.2417 0.43717 0.0
N282 N 0.87026 0.22251 0.47272 0.0
N283 N 0.76407 0.2303 0.4718 0.0
C284 C 0.78664 0.20942 0.51469 0.0
C285 C 0.84391 0.20478 0.51511 0.0
C286 C 0.7873 0.83853 1.02312 0.0
C287 C 0.79792 0.87018 0.06632 0.0
C288 C 0.7896 0.78131 1.02547 0.0
C289 C 0.80362 0.75428 0.07071 0.0
H290 H 0.7719 0.85773 0.98895 0.0
H291 H 0.7762 0.75802 0.99297 0.0
S292 S 0.8445 0.81878 0.19127 0.0
N293 N 0.82983 0.87081 0.15341 0.0
N294 N 0.8352 0.76292 0.15729 0.0
C295 C 0.82004 0.78541 0.11232 0.0
C296 C 0.81699 0.84367 0.11023 0.0
C297 C 0.14013 0.80131 0.66664 0.0
C298 C 0.11686 0.80904 0.61849 0.0
C299 C 0.19573 0.80721 0.67373 0.0
C300 C 0.22971 0.82229 0.63326 0.0
H301 H 0.11576 0.78687 0.69824 0.0
H302 H 0.21273 0.79651 0.71029 0.0
S303 S 0.18819 0.85333 0.50134 0.0
N304 N 0.13147 0.83688 0.5308 0.0
N305 N 0.23599 0.84984 0.54471 0.0
C306 C 0.20642 0.83533 0.58623 0.0
C307 C 0.14982 0.82838 0.57872 0.0
C308 C 0.64989 0.34404 1.02164 0.0
C309 C 0.66551 0.37177 0.066 0.0
C310 C 0.64751 0.28672 1.02049 0.0
C311 C 0.66051 0.25578 0.06369 0.0
H312 H 0.64365 0.36655 0.98663 0.0
H313 H 0.64004 0.26654 0.98465 0.0
S314 S 0.69714 0.30805 0.19051 0.0
N315 N 0.68862 0.36358 0.15545 0.0
N316 N 0.68421 0.25594 0.15281 0.0
C317 C 0.67135 0.28287 0.10924 0.0
C318 C 0.67359 0.34104 0.11061 0.0
C319 C 0.6438 0.73546 0.62762 0.0
C320 C 0.61438 0.7095 0.5893 0.0
C321 C 0.7 0.73906 0.62452 0.0
C322 C 0.7286 0.71586 0.58357 0.0
H323 H 0.62298 0.75638 0.65839 0.0
H324 H 0.7211 0.7617 0.65354 0.0
S325 S 0.67069 0.63882 0.47621 0.0
N326 N 0.61773 0.65736 0.51089 0.0
N327 N 0.7242 0.66235 0.50607 0.0
C328 C 0.70012 0.68649 0.54684 0.0
C329 C 0.64263 0.68385 0.5494 0.0
C330 C 0.28455 0.67698 0.05467 0.0
C331 C 0.23368 0.65183 0.05663 0.0
C332 C 0.28973 0.73381 0.05989 0.0
C333 C 0.24425 0.76808 0.06756 0.0
H334 H 0.3208 0.65252 0.04916 0.0
H335 H 0.33005 0.75076 0.05885 0.0
S336 S 0.10159 0.72251 0.07481 0.0
N337 N 0.13671 0.66552 0.06634 0.0
N338 N 0.14629 0.77228 0.07548 0.0
C339 C 0.19296 0.74354 0.06842 0.0
C340 C 0.18772 0.68554 0.06316 0.0
C341 C 0.28237 0.3163 0.4968 0.0
C342 C 0.25176 0.31568 0.54175 0.0
C343 C 0.33885 0.31493 0.49842 0.0
C344 C 0.36624 0.31153 0.54509 0.0
H345 H 0.26261 0.31364 0.46029 0.0
H346 H 0.3611 0.31191 0.46292 0.0
S347 S 0.3031 0.31534 0.67334 0.0
N348 N 0.25165 0.31781 0.63379 0.0
N349 N 0.35805 0.31353 0.63731 0.0
C350 C 0.33583 0.31588 0.59029 0.0
C351 C 0.27832 0.31803 0.58847 0.0
C352 C 0.00725 0.42923 0.0549 0.0
C353 C 0.04431 0.46704 0.07412 0.0
C354 C 0.95216 0.44251 0.05155 0.0
C355 C 0.93253 0.49443 0.06615 0.0
H356 H 0.02052 0.38852 0.04408 0.0
H357 H 0.92455 0.41151 1.03833 0.0
S358 S 0.01346 0.60932 0.11554 0.0
N359 N 0.05786 0.55971 0.10549 0.0
N360 N 0.95455 0.58447 0.09846 0.0
C361 C 0.96947 0.5334 0.08321 0.0
C362 C 0.02533 0.5197 0.08745 0.0
C363 C 0.44266 0.01913 0.57612 0.0
C364 C 0.45615 0.96324 0.57434 0.0
C365 C 0.48126 0.05929 0.56575 0.0
C366 C 0.53524 0.04524 0.55377 0.0
H367 H 0.40219 0.03213 0.58674 0.0
H368 H 0.4689 0.10175 0.56913 0.0
S369 S 0.59069 0.9044 0.54075 0.0
N370 N 0.52677 0.89576 0.55687 0.0
N371 N 0.59928 0.97126 0.53756 0.0
C372 C 0.54881 0.98946 0.54981 0.0
C373 C 0.5093 0.94848 0.56001 0.0
C374 C 0.51803 0.91295 0.07958 0.0
C375 C 0.47389 0.91193 0.11334 0.0
C376 C 0.54628 0.96134 0.0701 0.0
C377 C 0.53165 0.01077 0.09409 0.0
H378 H 0.53113 0.87584 0.06053 0.0
H379 H 0.58037 0.95974 0.04413 0.0
S380 S 0.4216 0.02904 0.18879 0.0
N381 N 0.41823 0.96383 0.17266 0.0
N382 N 0.47122 0.05526 0.15448 0.0
C383 C 0.48732 0.01049 0.12773 0.0
C384 C 0.45853 0.96092 0.13754 0.0
C385 C 0.92937 0.51739 0.56854 0.0
C386 C 0.97034 0.5563 0.56275 0.0
C387 C 0.94177 0.46139 0.56967 0.0
C388 C -0.00438 0.44249 0.56588 0.0
H389 H 0.88734 0.53012 0.56969 0.0
H390 H 0.90869 0.43267 0.57201 0.0
S391 S 0.118 0.52909 0.55818 0.0
N392 N 0.06702 0.57306 0.5587 0.0
N393 N 0.09051 0.46782 0.56159 0.0
C394 C 0.03717 0.48137 0.56375 0.0
C395 C 0.02445 0.53832 0.56187 0.0
C396 C 0.11843 0.37776 0.2646 0.0
C397 C 0.16804 0.35328 0.25079 0.0
C398 C 0.09369 0.36666 0.31179 0.0
C399 C 0.11757 0.33072 0.34726 0.0
H400 H 0.09911 0.40663 0.23915 0.0
H401 H 0.05593 0.38711 0.32096 0.0
S402 S 0.24402 0.25099 0.32753 0.0
N403 N 0.23778 0.28769 0.2751 0.0
N404 N 0.19163 0.2676 0.36363 0.0
C405 C 0.16652 0.30503 0.33353 0.0
C406 C 0.1916 0.31606 0.2854 0.0
C407 C 0.6642 0.10071 0.8143 0.0
C408 C 0.64537 0.12417 0.86004 0.0
C409 C 0.64956 0.12268 0.76684 0.0
C410 C 0.61464 0.16816 0.76352 0.0
H411 H 0.68923 0.06419 0.81535 0.0
H412 H 0.66301 0.10217 0.73254 0.0
S413 S 0.55601 0.24604 0.87142 0.0
N414 N 0.59206 0.19706 0.89863 0.0
N415 N 0.56364 0.23736 0.80955 0.0
C416 C 0.5971 0.19305 0.80882 0.0
C417 C 0.61274 0.17139 0.85705 0.0
C418 C 0.86948 0.69268 0.32485 0.0
C419 C 0.85839 0.66869 0.37277 0.0
C420 C 0.85128 0.66942 0.27922 0.0
C421 C 0.82071 0.62112 0.27909 0.0
H422 H 0.89319 0.72961 0.32225 0.0
H423 H 0.86294 0.68848 0.24368 0.0
S424 S 0.77449 0.54481 0.39363 0.0
N425 N 0.81157 0.59476 0.41649 0.0
N426 N 0.77508 0.55325 0.33143 0.0
C427 C 0.80668 0.59825 0.32667 0.0
C428 C 0.82586 0.62147 0.3732 0.0
C429 C 0.43607 0.85392 0.89789 0.0
C430 C 0.39453 0.89039 0.91182 0.0
C431 C 0.44366 0.83857 0.84691 0.0
C432 C 0.40919 0.85825 0.8085 0.0
H433 H 0.46398 0.839 0.92632 0.0
H434 H 0.47731 0.81195 0.83714 0.0
S435 S 0.2932 0.95311 0.82639 0.0
N436 N 0.31796 0.9449 0.88408 0.0
N437 N 0.33123 0.91497 0.7884 0.0
C438 C 0.3663 0.89314 0.82246 0.0
C439 C 0.35928 0.90956 0.87414 0.0
C440 C 0.79284 0.61894 0.82795 0.0
C441 C 0.81603 0.63592 0.8741 0.0
C442 C 0.81263 0.63735 0.78064 0.0
C443 C 0.85604 0.67404 0.7776 0.0
H444 H 0.75827 0.59205 0.82848 0.0
H445 H 0.79219 0.6249 0.74639 0.0
S446 S 0.93376 0.72795 0.88646 0.0
N447 N 0.88674 0.68957 0.91311 0.0
N448 N 0.9243 0.72336 0.82459 0.0
C449 C 0.88111 0.6894 0.82326 0.0
C450 C 0.86112 0.67052 0.87135 0.0
C451 C 0.35096 0.78261 0.36704 0.0
C452 C 0.33549 0.81364 0.40989 0.0
C453 C 0.34218 0.80218 0.31751 0.0
C454 C 0.31657 0.85287 0.30918 0.0
H455 H 0.37025 0.74305 0.37189 0.0
H456 H 0.35406 0.77697 0.2855 0.0
S457 S 0.26979 0.95075 0.4075 0.0
N458 N 0.29504 0.89875 0.44001 0.0
N459 N 0.2774 0.93444 0.34702 0.0
C460 C 0.30147 0.88451 0.35138 0.0
C461 C 0.3113 0.86522 0.40171 0.0
C462 C 0.12551 0.29707 0.7968 0.0
C463 C 0.13588 0.32471 0.75062 0.0
C464 C 0.13985 0.31969 0.84388 0.0
C465 C 0.16545 0.37077 0.8467 0.0
H466 H 0.1068 0.25717 0.79652 0.0
H467 H 0.13284 0.29602 0.87809 0.0
S468 S 0.19875 0.46161 0.73772 0.0
N469 N 0.17195 0.40704 0.71136 0.0
N470 N 0.19708 0.45013 0.79953 0.0
C471 C 0.17411 0.3998 0.80106 0.0
C472 C 0.15974 0.37673 0.75316 0.0
C473 C 0.68996 0.12376 0.30734 0.0
C474 C 0.66585 0.14238 0.26203 0.0
C475 C 0.67333 0.14376 0.35501 0.0
C476 C 0.6325 0.18381 0.35917 0.0
H477 H 0.72242 0.09386 0.30583 0.0
H478 H 0.69388 0.12931 0.38871 0.0
S479 S 0.55453 0.24445 0.25284 0.0
N480 N 0.59747 0.2019 0.22496 0.0
N481 N 0.56633 0.23932 0.31433 0.0
C482 C 0.60705 0.20173 0.3144 0.0
C483 C 0.62358 0.18099 0.26593 0.0
loop_
_geom_bond_atom_site_label_1
_geom_bond_atom_site_label_2
_geom_bond_distance
_geom_bond_site_symmetry_2
_ccdc_geom_bond_type
C0 C1 1.351 . S
C0 N3 1.368 . S
C0 H5 0.931 . S
C1 C0 1.351 . S
C1 N2 1.373 . S
C1 H29 0.930 . S
N2 C1 1.373 . S
N2 C4 1.340 . S
N3 C0 1.368 . S
N3 C4 1.321 . S
N3 Co6 2.135 1_556 S
C4 N2 1.340 . S
C4 N3 1.321 . S
C4 H28 0.930 . S
H5 C0 0.931 . S
Co6 N3 2.135 1_554 S
Co6 N9 2.121 . S
Co6 O14 2.055 . S
Co6 O17 2.039 . S
Co6 N20 2.140 . S
C7 O8 1.227 . S
C7 O17 1.265 . S
O8 C7 1.227 . S
N9 Co6 2.121 . S
N9 C11 1.375 . S
N9 C12 1.313 . S
C10 C11 1.338 . S
C10 N13 1.377 . S
C10 H30 0.930 . S
C11 N9 1.375 . S
C11 C10 1.338 . S
C11 H15 0.931 . S
C12 N9 1.313 . S
C12 N13 1.344 . S
C12 H16 0.930 . S
N13 C10 1.377 . S
N13 C12 1.344 . S
O14 Co6 2.055 . S
O14 C18 1.253 . S
H15 C11 0.931 . S
H16 C12 0.930 . S
O17 Co6 2.039 . S
O17 C7 1.265 . S
C18 O14 1.253 . S
C18 O19 1.227 . S
O19 C18 1.227 . S
N20 Co6 2.140 . S
N20 C23 1.346 1_554 S
N20 C24 1.345 . S
C21 C22 1.387 1_554 S
C21 C25 1.391 . S
C22 C21 1.387 1_556 S
C22 C23 1.369 . S
C22 H31 0.929 . S
C23 N20 1.346 1_556 S
C23 C22 1.369 . S
C23 H26 0.928 . S
C24 N20 1.345 . S
C24 C25 1.371 . S
C24 H27 0.931 . S
C25 C21 1.391 . S
C25 C24 1.371 . S
C25 H32 0.930 . S
H26 C23 0.928 . S
H27 C24 0.931 . S
H28 C4 0.930 . S
H29 C1 0.930 . S
H30 C10 0.930 . S
H31 C22 0.929 . S
H32 C25 0.930 . S
C33 C34 1.351 . S
C33 N36 1.368 . S
C33 H38 0.931 . S
C34 C33 1.351 . S
C34 N35 1.373 . S
C34 H62 0.930 . S
N35 C34 1.373 . S
N35 C37 1.340 . S
N36 C33 1.368 . S
N36 C37 1.321 . S
N36 Co39 2.135 . S
C37 N35 1.340 . S
C37 N36 1.321 . S
C37 H61 0.930 . S
H38 C33 0.931 . S
Co39 N36 2.135 . S
Co39 N42 2.121 . S
Co39 O47 2.055 . S
Co39 O50 2.039 . S
Co39 N53 2.140 . S
C40 O41 1.227 . S
C40 O50 1.265 . S
O41 C40 1.227 . S
N42 Co39 2.121 . S
N42 C44 1.375 . S
N42 C45 1.313 . S
C43 C44 1.338 . S
C43 N46 1.377 . S
C43 H63 0.930 . S
C44 N42 1.375 . S
C44 C43 1.338 . S
C44 H48 0.931 . S
C45 N42 1.313 . S
C45 N46 1.344 . S
C45 H49 0.930 . S
N46 C43 1.377 . S
N46 C45 1.344 . S
O47 Co39 2.055 . S
O47 C51 1.253 . S
H48 C44 0.931 . S
H49 C45 0.930 . S
O50 Co39 2.039 . S
O50 C40 1.265 . S
C51 O47 1.253 . S
C51 O52 1.227 . S
O52 C51 1.227 . S
N53 Co39 2.140 . S
N53 C56 1.346 . S
N53 C57 1.345 . S
C54 C55 1.387 . S
C54 C58 1.391 . S
C55 C54 1.387 . S
C55 C56 1.369 . S
C55 H64 0.929 . S
C56 N53 1.346 . S
C56 C55 1.369 . S
C56 H59 0.928 . S
C57 N53 1.345 . S
C57 C58 1.371 . S
C57 H60 0.931 . S
C58 C54 1.391 . S
C58 C57 1.371 . S
C58 H65 0.930 . S
H59 C56 0.928 . S
H60 C57 0.931 . S
H61 C37 0.930 . S
H62 C34 0.930 . S
H63 C43 0.930 . S
H64 C55 0.929 . S
H65 C58 0.930 . S
C66 C67 1.351 . S
C66 N69 1.368 . S
C66 H71 0.931 . S
C67 C66 1.351 . S
C67 N68 1.373 . S
C67 H95 0.930 . S
N68 C67 1.373 . S
N68 C70 1.340 . S
N69 C66 1.368 . S
N69 C70 1.321 . S
N69 Co72 2.135 1_556 S
C70 N68 1.340 . S
C70 N69 1.321 . S
C70 H94 0.930 . S
H71 C66 0.931 . S
Co72 N69 2.135 1_554 S
Co72 N75 2.121 . S
Co72 O80 2.055 . S
Co72 O83 2.039 . S
Co72 N86 2.140 . S
C73 O74 1.227 . S
C73 O83 1.265 . S
O74 C73 1.227 . S
N75 Co72 2.121 . S
N75 C77 1.375 . S
N75 C78 1.313 . S
C76 C77 1.338 . S
C76 N79 1.377 . S
C76 H96 0.930 . S
C77 N75 1.375 . S
C77 C76 1.338 . S
C77 H81 0.931 . S
C78 N75 1.313 . S
C78 N79 1.344 . S
C78 H82 0.930 . S
N79 C76 1.377 . S
N79 C78 1.344 . S
O80 Co72 2.055 . S
O80 C84 1.253 . S
H81 C77 0.931 . S
H82 C78 0.930 . S
O83 Co72 2.039 . S
O83 C73 1.265 . S
C84 O80 1.253 . S
C84 O85 1.227 . S
O85 C84 1.227 . S
N86 Co72 2.140 . S
N86 C89 1.346 1_554 S
N86 C90 1.345 . S
C87 C88 1.387 1_554 S
C87 C91 1.391 . S
C88 C87 1.387 1_556 S
C88 C89 1.369 . S
C88 H97 0.929 . S
C89 N86 1.346 1_556 S
C89 C88 1.369 . S
C89 H92 0.928 . S
C90 N86 1.345 . S
C90 C91 1.371 . S
C90 H93 0.931 . S
C91 C87 1.391 . S
C91 C90 1.371 . S
C91 H98 0.930 . S
H92 C89 0.928 . S
H93 C90 0.931 . S
H94 C70 0.930 . S
H95 C67 0.930 . S
H96 C76 0.930 . S
H97 C88 0.929 . S
H98 C91 0.930 . S
C99 C100 1.351 . S
C99 N102 1.368 . S
C99 H104 0.931 . S
C100 C99 1.351 . S
C100 N101 1.373 . S
C100 H128 0.930 . S
N101 C100 1.373 . S
N101 C103 1.340 . S
N102 C99 1.368 . S
N102 C103 1.321 . S
N102 Co105 2.135 . S
C103 N101 1.340 . S
C103 N102 1.321 . S
C103 H127 0.930 . S
H104 C99 0.931 . S
Co105 N102 2.135 . S
Co105 N108 2.121 . S
Co105 O113 2.055 . S
Co105 O116 2.039 . S
Co105 N119 2.140 . S
C106 O107 1.227 . S
C106 O116 1.265 . S
O107 C106 1.227 . S
N108 Co105 2.121 . S
N108 C110 1.375 . S
N108 C111 1.313 . S
C109 C110 1.338 . S
C109 N112 1.377 . S
C109 H129 0.930 . S
C110 N108 1.375 . S
C110 C109 1.338 . S
C110 H114 0.931 . S
C111 N108 1.313 . S
C111 N112 1.344 . S
C111 H115 0.930 . S
N112 C109 1.377 . S
N112 C111 1.344 . S
O113 Co105 2.055 . S
O113 C117 1.253 . S
H114 C110 0.931 . S
H115 C111 0.930 . S
O116 Co105 2.039 . S
O116 C106 1.265 . S
C117 O113 1.253 . S
C117 O118 1.227 . S
O118 C117 1.227 . S
N119 Co105 2.140 . S
N119 C122 1.346 . S
N119 C123 1.345 . S
C120 C121 1.387 . S
C120 C124 1.391 . S
C121 C120 1.387 . S
C121 C122 1.369 . S
C121 H130 0.929 . S
C122 N119 1.346 . S
C122 C121 1.369 . S
C122 H125 0.928 . S
C123 N119 1.345 . S
C123 C124 1.371 . S
C123 H126 0.931 . S
C124 C120 1.391 . S
C124 C123 1.371 . S
C124 H131 0.930 . S
H125 C122 0.928 . S
H126 C123 0.931 . S
H127 C103 0.930 . S
H128 C100 0.930 . S
H129 C109 0.930 . S
H130 C121 0.929 . S
H131 C124 0.930 . S
C132 C133 1.351 . S
C132 N135 1.368 . S
C132 H137 0.931 . S
C133 C132 1.351 . S
C133 N134 1.373 . S
C133 H161 0.930 . S
N134 C133 1.373 . S
N134 C136 1.340 . S
N135 C132 1.368 . S
N135 C136 1.321 . S
N135 Co138 2.135 . S
C136 N134 1.340 . S
C136 N135 1.321 . S
C136 H160 0.930 . S
H137 C132 0.931 . S
Co138 N135 2.135 . S
Co138 N141 2.121 1_554 S
Co138 O146 2.055 . S
Co138 O149 2.039 . S
Co138 N152 2.140 . S
C139 O140 1.227 . S
C139 O149 1.265 . S
O140 C139 1.227 . S
N141 Co138 2.121 1_556 S
N141 C143 1.375 . S
N141 C144 1.313 . S
C142 C143 1.338 . S
C142 N145 1.377 . S
C142 H162 0.930 . S
C143 N141 1.375 . S
C143 C142 1.338 . S
C143 H147 0.931 . S
C144 N141 1.313 . S
C144 N145 1.344 . S
C144 H148 0.930 . S
N145 C142 1.377 . S
N145 C144 1.344 . S
O146 Co138 2.055 . S
O146 C150 1.253 . S
H147 C143 0.931 . S
H148 C144 0.930 . S
O149 Co138 2.039 . S
O149 C139 1.265 . S
C150 O146 1.253 . S
C150 O151 1.227 . S
O151 C150 1.227 . S
N152 Co138 2.140 . S
N152 C155 1.346 1_545 S
N152 C156 1.345 . S
C153 C154 1.387 . S
C153 C157 1.391 . S
C154 C153 1.387 . S
C154 C155 1.369 . S
C154 H163 0.929 . S
C155 N152 1.346 1_565 S
C155 C154 1.369 . S
C155 H158 0.928 . S
C156 N152 1.345 . S
C156 C157 1.371 1_545 S
C156 H159 0.931 1_554 S
C157 C153 1.391 . S
C157 C156 1.371 1_565 S
C157 H164 0.930 1_554 S
H158 C155 0.928 . S
H159 C156 0.931 1_556 S
H160 C136 0.930 . S
H161 C133 0.930 . S
H162 C142 0.930 . S
H163 C154 0.929 . S
H164 C157 0.930 1_556 S
C165 C166 1.351 . S
C165 N168 1.368 . S
C165 H170 0.931 . S
C166 C165 1.351 . S
C166 N167 1.373 . S
C166 H194 0.930 . S
N167 C166 1.373 . S
N167 C169 1.340 . S
N168 C165 1.368 . S
N168 C169 1.321 . S
N168 Co171 2.135 . S
C169 N167 1.340 . S
C169 N168 1.321 . S
C169 H193 0.930 . S
H170 C165 0.931 . S
Co171 N168 2.135 . S
Co171 N174 2.121 . S
Co171 O179 2.055 . S
Co171 O182 2.039 . S
Co171 N185 2.140 . S
C172 O173 1.227 . S
C172 O182 1.265 . S
O173 C172 1.227 . S
N174 Co171 2.121 . S
N174 C176 1.375 . S
N174 C177 1.313 . S
C175 C176 1.338 . S
C175 N178 1.377 . S
C175 H195 0.930 . S
C176 N174 1.375 . S
C176 C175 1.338 . S
C176 H180 0.931 . S
C177 N174 1.313 . S
C177 N178 1.344 . S
C177 H181 0.930 . S
N178 C175 1.377 . S
N178 C177 1.344 . S
O179 Co171 2.055 . S
O179 C183 1.253 . S
H180 C176 0.931 . S
H181 C177 0.930 . S
O182 Co171 2.039 . S
O182 C172 1.265 . S
C183 O179 1.253 . S
C183 O184 1.227 . S
O184 C183 1.227 . S
N185 Co171 2.140 . S
N185 C188 1.346 1_655 S
N185 C189 1.345 . S
C186 C187 1.387 . S
C186 C190 1.391 . S
C187 C186 1.387 . S
C187 C188 1.369 . S
C187 H196 0.929 . S
C188 N185 1.346 1_455 S
C188 C187 1.369 . S
C188 H191 0.928 . S
C189 N185 1.345 . S
C189 C190 1.371 1_655 S
C189 H192 0.931 . S
C190 C186 1.391 . S
C190 C189 1.371 1_455 S
C190 H197 0.930 . S
H191 C188 0.928 . S
H192 C189 0.931 . S
H193 C169 0.930 . S
H194 C166 0.930 . S
H195 C175 0.930 . S
H196 C187 0.929 . S
H197 C190 0.930 . S
C198 C199 1.351 . S
C198 N201 1.368 . S
C198 H203 0.931 . S
C199 C198 1.351 . S
C199 N200 1.373 . S
C199 H227 0.930 . S
N200 C199 1.373 . S
N200 C202 1.340 . S
N201 C198 1.368 . S
N201 C202 1.321 . S
N201 Co204 2.135 . S
C202 N200 1.340 . S
C202 N201 1.321 . S
C202 H226 0.930 . S
H203 C198 0.931 . S
Co204 N201 2.135 . S
Co204 N207 2.121 1_554 S
Co204 O212 2.055 . S
Co204 O215 2.039 . S
Co204 N218 2.140 . S
C205 O206 1.227 . S
C205 O215 1.265 . S
O206 C205 1.227 . S
N207 Co204 2.121 1_556 S
N207 C209 1.375 . S
N207 C210 1.313 . S
C208 C209 1.338 . S
C208 N211 1.377 . S
C208 H228 0.930 . S
C209 N207 1.375 . S
C209 C208 1.338 . S
C209 H213 0.931 . S
C210 N207 1.313 . S
C210 N211 1.344 . S
C210 H214 0.930 . S
N211 C208 1.377 . S
N211 C210 1.344 . S
O212 Co204 2.055 . S
O212 C216 1.253 . S
H213 C209 0.931 . S
H214 C210 0.930 . S
O215 Co204 2.039 . S
O215 C205 1.265 . S
C216 O212 1.253 . S
C216 O217 1.227 . S
O217 C216 1.227 . S
N218 Co204 2.140 . S
N218 C221 1.346 1_565 S
N218 C222 1.345 . S
C219 C220 1.387 . S
C219 C223 1.391 . S
C220 C219 1.387 . S
C220 C221 1.369 . S
C220 H229 0.929 . S
C221 N218 1.346 1_545 S
C221 C220 1.369 . S
C221 H224 0.928 . S
C222 N218 1.345 . S
C222 C223 1.371 1_565 S
C222 H225 0.931 1_554 S
C223 C219 1.391 . S
C223 C222 1.371 1_545 S
C223 H230 0.930 1_554 S
H224 C221 0.928 . S
H225 C222 0.931 1_556 S
H226 C202 0.930 . S
H227 C199 0.930 . S
H228 C208 0.930 . S
H229 C220 0.929 . S
H230 C223 0.930 1_556 S
C231 C232 1.351 . S
C231 N234 1.368 . S
C231 H236 0.931 . S
C232 C231 1.351 . S
C232 N233 1.373 . S
C232 H260 0.930 . S
N233 C232 1.373 . S
N233 C235 1.340 . S
N234 C231 1.368 . S
N234 C235 1.321 . S
N234 Co237 2.135 . S
C235 N233 1.340 . S
C235 N234 1.321 . S
C235 H259 0.930 . S
H236 C231 0.931 . S
Co237 N234 2.135 . S
Co237 N240 2.121 . S
Co237 O245 2.055 . S
Co237 O248 2.039 . S
Co237 N251 2.140 . S
C238 O239 1.227 . S
C238 O248 1.265 . S
O239 C238 1.227 . S
N240 Co237 2.121 . S
N240 C242 1.375 . S
N240 C243 1.313 . S
C241 C242 1.338 . S
C241 N244 1.377 . S
C241 H261 0.930 . S
C242 N240 1.375 . S
C242 C241 1.338 . S
C242 H246 0.931 . S
C243 N240 1.313 . S
C243 N244 1.344 . S
C243 H247 0.930 . S
N244 C241 1.377 . S
N244 C243 1.344 . S
O245 Co237 2.055 . S
O245 C249 1.253 . S
H246 C242 0.931 . S
H247 C243 0.930 . S
O248 Co237 2.039 . S
O248 C238 1.265 . S
C249 O245 1.253 . S
C249 O250 1.227 . S
O250 C249 1.227 . S
N251 Co237 2.140 . S
N251 C254 1.346 1_455 S
N251 C255 1.345 . S
C252 C253 1.387 . S
C252 C256 1.391 . S
C253 C252 1.387 . S
C253 C254 1.369 . S
C253 H262 0.929 . S
C254 N251 1.346 1_655 S
C254 C253 1.369 . S
C254 H257 0.928 . S
C255 N251 1.345 . S
C255 C256 1.371 1_455 S
C255 H258 0.931 . S
C256 C252 1.391 . S
C256 C255 1.371 1_655 S
C256 H263 0.930 . S
H257 C254 0.928 . S
H258 C255 0.931 . S
H259 C235 0.930 . S
H260 C232 0.930 . S
H261 C241 0.930 . S
H262 C253 0.929 . S
H263 C256 0.930 . S
C264 C265 1.369 . S
C264 C266 1.419 . S
C264 H268 0.930 1_554 S
C265 C264 1.369 . S
C265 C274 1.429 . S
C266 C264 1.419 . S
C266 C267 1.363 . S
C266 H269 0.929 1_554 S
C267 C266 1.363 . S
C267 C273 1.428 . S
H268 C264 0.930 1_556 S
H269 C266 0.929 1_556 S
S270 N271 1.613 . S
S270 N272 1.610 . S
N271 S270 1.613 . S
N271 C274 1.350 . S
N272 S270 1.610 . S
N272 C273 1.351 . S
C273 C267 1.428 . S
C273 N272 1.351 . S
C273 C274 1.434 . S
C274 C265 1.429 . S
C274 N271 1.350 . S
C274 C273 1.434 . S
C275 C276 1.369 . S
C275 C277 1.419 . S
C275 H279 0.930 . S
C276 C275 1.369 . S
C276 C285 1.429 . S
C277 C275 1.419 . S
C277 C278 1.363 . S
C277 H280 0.929 . S
C278 C277 1.363 . S
C278 C284 1.428 . S
H279 C275 0.930 . S
H280 C277 0.929 . S
S281 N282 1.613 . S
S281 N283 1.610 . S
N282 S281 1.613 . S
N282 C285 1.350 . S
N283 S281 1.610 . S
N283 C284 1.351 . S
C284 C278 1.428 . S
C284 N283 1.351 . S
C284 C285 1.434 . S
C285 C276 1.429 . S
C285 N282 1.350 . S
C285 C284 1.434 . S
C286 C287 1.369 . S
C286 C288 1.419 . S
C286 H290 0.930 . S
C287 C286 1.369 . S
C287 C296 1.429 . S
C288 C286 1.419 . S
C288 C289 1.363 . S
C288 H291 0.929 . S
C289 C288 1.363 . S
C289 C295 1.428 . S
H290 C286 0.930 . S
H291 C288 0.929 . S
S292 N293 1.613 . S
S292 N294 1.610 . S
N293 S292 1.613 . S
N293 C296 1.350 . S
N294 S292 1.610 . S
N294 C295 1.351 . S
C295 C289 1.428 . S
C295 N294 1.351 . S
C295 C296 1.434 . S
C296 C287 1.429 . S
C296 N293 1.350 . S
C296 C295 1.434 . S
C297 C298 1.369 . S
C297 C299 1.419 . S
C297 H301 0.930 . S
C298 C297 1.369 . S
C298 C307 1.429 . S
C299 C297 1.419 . S
C299 C300 1.363 . S
C299 H302 0.929 . S
C300 C299 1.363 . S
C300 C306 1.428 . S
H301 C297 0.930 . S
H302 C299 0.929 . S
S303 N304 1.613 . S
S303 N305 1.610 . S
N304 S303 1.613 . S
N304 C307 1.350 . S
N305 S303 1.610 . S
N305 C306 1.351 . S
C306 C300 1.428 . S
C306 N305 1.351 . S
C306 C307 1.434 . S
C307 C298 1.429 . S
C307 N304 1.350 . S
C307 C306 1.434 . S
C308 C309 1.369 1_556 S
C308 C310 1.419 . S
C308 H312 0.930 . S
C309 C308 1.369 1_554 S
C309 C318 1.429 . S
C310 C308 1.419 . S
C310 C311 1.363 1_556 S
C310 H313 0.929 . S
C311 C310 1.363 1_554 S
C311 C317 1.428 . S
H312 C308 0.930 . S
H313 C310 0.929 . S
S314 N315 1.613 . S
S314 N316 1.610 . S
N315 S314 1.613 . S
N315 C318 1.350 . S
N316 S314 1.610 . S
N316 C317 1.351 . S
C317 C311 1.428 . S
C317 N316 1.351 . S
C317 C318 1.434 . S
C318 C309 1.429 . S
C318 N315 1.350 . S
C318 C317 1.434 . S
C319 C320 1.369 . S
C319 C321 1.419 . S
C319 H323 0.930 . S
C320 C319 1.369 . S
C320 C329 1.429 . S
C321 C319 1.419 . S
C321 C322 1.363 . S
C321 H324 0.929 . S
C322 C321 1.363 . S
C322 C328 1.428 . S
H323 C319 0.930 . S
H324 C321 0.929 . S
S325 N326 1.613 . S
S325 N327 1.610 . S
N326 S325 1.613 . S
N326 C329 1.350 . S
N327 S325 1.610 . S
N327 C328 1.351 . S
C328 C322 1.428 . S
C328 N327 1.351 . S
C328 C329 1.434 . S
C329 C320 1.429 . S
C329 N326 1.350 . S
C329 C328 1.434 . S
C330 C331 1.369 . S
C330 C332 1.419 . S
C330 H334 0.930 . S
C331 C330 1.369 . S
C331 C340 1.429 . S
C332 C330 1.419 . S
C332 C333 1.363 . S
C332 H335 0.929 . S
C333 C332 1.363 . S
C333 C339 1.428 . S
H334 C330 0.930 . S
H335 C332 0.929 . S
S336 N337 1.613 . S
S336 N338 1.610 . S
N337 S336 1.613 . S
N337 C340 1.350 . S
N338 S336 1.610 . S
N338 C339 1.351 . S
C339 C333 1.428 . S
C339 N338 1.351 . S
C339 C340 1.434 . S
C340 C331 1.429 . S
C340 N337 1.350 . S
C340 C339 1.434 . S
C341 C342 1.369 . S
C341 C343 1.419 . S
C341 H345 0.930 . S
C342 C341 1.369 . S
C342 C351 1.429 . S
C343 C341 1.419 . S
C343 C344 1.363 . S
C343 H346 0.929 . S
C344 C343 1.363 . S
C344 C350 1.428 . S
H345 C341 0.930 . S
H346 C343 0.929 . S
S347 N348 1.613 . S
S347 N349 1.610 . S
N348 S347 1.613 . S
N348 C351 1.350 . S
N349 S347 1.610 . S
N349 C350 1.351 . S
C350 C344 1.428 . S
C350 N349 1.351 . S
C350 C351 1.434 . S
C351 C342 1.429 . S
C351 N348 1.350 . S
C351 C350 1.434 . S
C352 C353 1.369 1_656 S
C352 C354 1.419 . S
C352 H356 0.930 . S
C353 C352 1.369 1_454 S
C353 C362 1.429 . S
C354 C352 1.419 . S
C354 C355 1.363 1_556 S
C354 H357 0.929 . S
C355 C354 1.363 1_554 S
C355 C361 1.428 1_655 S
H356 C352 0.930 . S
H357 C354 0.929 . S
S358 N359 1.613 . S
S358 N360 1.610 . S
N359 S358 1.613 . S
N359 C362 1.350 . S
N360 S358 1.610 . S
N360 C361 1.351 . S
C361 C355 1.428 1_455 S
C361 N360 1.351 . S
C361 C362 1.434 . S
C362 C353 1.429 . S
C362 N359 1.350 . S
C362 C361 1.434 . S
C363 C364 1.369 1_545 S
C363 C365 1.419 . S
C363 H367 0.930 . S
C364 C363 1.369 1_565 S
C364 C373 1.429 . S
C365 C363 1.419 . S
C365 C366 1.363 . S
C365 H368 0.929 . S
C366 C365 1.363 . S
C366 C372 1.428 1_545 S
H367 C363 0.930 . S
H368 C365 0.929 . S
S369 N370 1.613 . S
S369 N371 1.610 . S
N370 S369 1.613 . S
N370 C373 1.350 . S
N371 S369 1.610 . S
N371 C372 1.351 . S
C372 C366 1.428 1_565 S
C372 N371 1.351 . S
C372 C373 1.434 . S
C373 C364 1.429 . S
C373 N370 1.350 . S
C373 C372 1.434 . S
C374 C375 1.369 . S
C374 C376 1.419 1_565 S
C374 H378 0.930 . S
C375 C374 1.369 . S
C375 C384 1.429 . S
C376 C374 1.419 1_545 S
C376 C377 1.363 . S
C376 H379 0.929 . S
C377 C376 1.363 . S
C377 C383 1.428 . S
H378 C374 0.930 . S
H379 C376 0.929 . S
S380 N381 1.613 1_545 S
S380 N382 1.610 . S
N381 S380 1.613 1_565 S
N381 C384 1.350 . S
N382 S380 1.610 . S
N382 C383 1.351 . S
C383 C377 1.428 . S
C383 N382 1.351 . S
C383 C384 1.434 1_545 S
C384 C375 1.429 . S
C384 N381 1.350 . S
C384 C383 1.434 1_565 S
C385 C386 1.369 . S
C385 C387 1.419 1_655 S
C385 H389 0.930 . S
C386 C385 1.369 . S
C386 C395 1.429 . S
C387 C385 1.419 1_455 S
C387 C388 1.363 . S
C387 H390 0.929 . S
C388 C387 1.363 . S
C388 C394 1.428 . S
H389 C385 0.930 . S
H390 C387 0.929 . S
S391 N392 1.610 1_455 S
S391 N393 1.613 . S
N392 S391 1.610 1_655 S
N392 C395 1.350 . S
N393 S391 1.613 . S
N393 C394 1.351 . S
C394 C388 1.428 . S
C394 N393 1.351 . S
C394 C395 1.434 1_455 S
C395 C386 1.429 . S
C395 N392 1.350 . S
C395 C394 1.434 1_655 S
C396 C397 1.369 . S
C396 C398 1.419 . S
C396 H400 0.930 . S
C397 C396 1.369 . S
C397 C406 1.429 . S
C398 C396 1.419 . S
C398 C399 1.363 . S
C398 H401 0.929 . S
C399 C398 1.363 . S
C399 C405 1.428 . S
H400 C396 0.930 . S
H401 C398 0.929 . S
S402 N403 1.613 . S
S402 N404 1.610 . S
N403 S402 1.613 . S
N403 C406 1.350 . S
N404 S402 1.610 . S
N404 C405 1.351 . S
C405 C399 1.428 . S
C405 N404 1.351 . S
C405 C406 1.434 . S
C406 C397 1.429 . S
C406 N403 1.350 . S
C406 C405 1.434 . S
C407 C408 1.369 . S
C407 C409 1.419 . S
C407 H411 0.930 . S
C408 C407 1.369 . S
C408 C417 1.429 . S
C409 C407 1.419 . S
C409 C410 1.363 . S
C409 H412 0.929 . S
C410 C409 1.363 . S
C410 C416 1.428 . S
H411 C407 0.930 . S
H412 C409 0.929 . S
S413 N414 1.613 . S
S413 N415 1.610 . S
N414 S413 1.613 . S
N414 C417 1.350 . S
N415 S413 1.610 . S
N415 C416 1.351 . S
C416 C410 1.428 . S
C416 N415 1.351 . S
C416 C417 1.434 . S
C417 C408 1.429 . S
C417 N414 1.350 . S
C417 C416 1.434 . S
C418 C419 1.369 . S
C418 C420 1.419 . S
C418 H422 0.930 . S
C419 C418 1.369 . S
C419 C428 1.429 . S
C420 C418 1.419 . S
C420 C421 1.363 . S
C420 H423 0.929 . S
C421 C420 1.363 . S
C421 C427 1.428 . S
H422 C418 0.930 . S
H423 C420 0.929 . S
S424 N425 1.613 . S
S424 N426 1.610 . S
N425 S424 1.613 . S
N425 C428 1.350 . S
N426 S424 1.610 . S
N426 C427 1.351 . S
C427 C421 1.428 . S
C427 N426 1.351 . S
C427 C428 1.434 . S
C428 C419 1.429 . S
C428 N425 1.350 . S
C428 C427 1.434 . S
C429 C430 1.369 . S
C429 C431 1.419 . S
C429 H433 0.930 . S
C430 C429 1.369 . S
C430 C439 1.429 . S
C431 C429 1.419 . S
C431 C432 1.363 . S
C431 H434 0.929 . S
C432 C431 1.363 . S
C432 C438 1.428 . S
H433 C429 0.930 . S
H434 C431 0.929 . S
S435 N436 1.613 . S
S435 N437 1.610 . S
N436 S435 1.613 . S
N436 C439 1.350 . S
N437 S435 1.610 . S
N437 C438 1.351 . S
C438 C432 1.428 . S
C438 N437 1.351 . S
C438 C439 1.434 . S
C439 C430 1.429 . S
C439 N436 1.350 . S
C439 C438 1.434 . S
C440 C441 1.369 . S
C440 C442 1.419 . S
C440 H444 0.930 . S
C441 C440 1.369 . S
C441 C450 1.429 . S
C442 C440 1.419 . S
C442 C443 1.363 . S
C442 H445 0.929 . S
C443 C442 1.363 . S
C443 C449 1.428 . S
H444 C440 0.930 . S
H445 C442 0.929 . S
S446 N447 1.613 . S
S446 N448 1.610 . S
N447 S446 1.613 . S
N447 C450 1.350 . S
N448 S446 1.610 . S
N448 C449 1.351 . S
C449 C443 1.428 . S
C449 N448 1.351 . S
C449 C450 1.434 . S
C450 C441 1.429 . S
C450 N447 1.350 . S
C450 C449 1.434 . S
C451 C452 1.369 . S
C451 C453 1.419 . S
C451 H455 0.930 . S
C452 C451 1.369 . S
C452 C461 1.429 . S
C453 C451 1.419 . S
C453 C454 1.363 . S
C453 H456 0.929 . S
C454 C453 1.363 . S
C454 C460 1.428 . S
H455 C451 0.930 . S
H456 C453 0.929 . S
S457 N458 1.613 . S
S457 N459 1.610 . S
N458 S457 1.613 . S
N458 C461 1.350 . S
N459 S457 1.610 . S
N459 C460 1.351 . S
C460 C454 1.428 . S
C460 N459 1.351 . S
C460 C461 1.434 . S
C461 C452 1.429 . S
C461 N458 1.350 . S
C461 C460 1.434 . S
C462 C463 1.369 . S
C462 C464 1.419 . S
C462 H466 0.930 . S
C463 C462 1.369 . S
C463 C472 1.429 . S
C464 C462 1.419 . S
C464 C465 1.363 . S
C464 H467 0.929 . S
C465 C464 1.363 . S
C465 C471 1.428 . S
H466 C462 0.930 . S
H467 C464 0.929 . S
S468 N469 1.613 . S
S468 N470 1.610 . S
N469 S468 1.613 . S
N469 C472 1.350 . S
N470 S468 1.610 . S
N470 C471 1.351 . S
C471 C465 1.428 . S
C471 N470 1.351 . S
C471 C472 1.434 . S
C472 C463 1.429 . S
C472 N469 1.350 . S
C472 C471 1.434 . S
C473 C474 1.369 . S
C473 C475 1.419 . S
C473 H477 0.930 . S
C474 C473 1.369 . S
C474 C483 1.429 . S
C475 C473 1.419 . S
C475 C476 1.363 . S
C475 H478 0.929 . S
C476 C475 1.363 . S
C476 C482 1.428 . S
H477 C473 0.930 . S
H478 C475 0.929 . S
S479 N480 1.613 . S
S479 N481 1.610 . S
N480 S479 1.613 . S
N480 C483 1.350 . S
N481 S479 1.610 . S
N481 C482 1.351 . S
C482 C476 1.428 . S
C482 N481 1.351 . S
C482 C483 1.434 . S
C483 C474 1.429 . S
C483 N480 1.350 . S
C483 C482 1.434 . S
C265 C219 1.581 . S
C267 C18 1.641 . S
C276 C252 1.578 . S
C278 C51 1.640 . S
C287 C153 1.587 . S
C289 C84 1.637 . S
C298 C186 1.577 . S
C300 C117 1.641 . S
C309 C87 1.580 . S
C311 C150 1.640 . S
C320 C120 1.587 . S
C322 C183 1.637 . S
C331 C21 1.578 . S
C333 C216 1.642 . S
C342 C249 1.642 . S
C344 C54 1.579 . S
C353 C7 0.684 . S
C355 C73 0.684 . S
C364 C106 0.665 . S
C366 C40 0.695 . S
C375 C205 0.668 . S
C377 C139 0.694 . S
C386 C172 0.690 . S
C388 C238 0.679 . S
C397 N13 1.727 . S
C399 N244 1.725 . S
C408 N145 1.722 . S
C410 N46 1.726 . S
C419 N178 1.719 . S
C421 N79 1.723 . S
C430 N211 1.727 . S
C432 N112 1.726 . S
C441 N68 1.447 . S
C443 N167 1.450 . S
C452 N101 1.455 . S
C454 N200 1.456 . S
C463 N233 1.452 . S
C465 N2 1.457 . S
C474 N134 1.450 . S
C476 N35 1.456 . S
