# Generated by pormake.
# Topology ttw, (5)-cn, num edge types: 1
# Building blocks:
#     Node 0, Type 0, BuildingBlock: BEQFEK_clean_sbu_0, # of connection points: 5
#     Node 1, Type 0, BuildingBlock: BEQFEK_clean_sbu_0, # of connection points: 5
#     Node 2, Type 0, BuildingBlock: BEQFEK_clean_sbu_0, # of connection points: 5
#     Node 3, Type 0, BuildingBlock: BEQFEK_clean_sbu_0, # of connection points: 5
#     Node 4, Type 0, BuildingBlock: BEQFEK_clean_sbu_0, # of connection points: 5
#     Node 5, Type 0, BuildingBlock: BEQFEK_clean_sbu_0, # of connection points: 5
#     Edge 6, Type (0, 0), BuildingBlock: TEMPAE_clean_linker_10, # of connection points: 2
#     Edge 7, Type (0, 0), BuildingBlock: TEMPAE_clean_linker_10, # of connection points: 2
#     Edge 8, Type (0, 0), BuildingBlock: TEMPAE_clean_linker_10, # of connection points: 2
#     Edge 9, Type (0, 0), BuildingBlock: TEMPAE_clean_linker_10, # of connection points: 2
#     Edge 10, Type (0, 0), BuildingBlock: TEMPAE_clean_linker_10, # of connection points: 2
#     Edge 11, Type (0, 0), BuildingBlock: TEMPAE_clean_linker_10, # of connection points: 2
#     Edge 12, Type (0, 0), BuildingBlock: TEMPAE_clean_linker_10, # of connection points: 2
#     Edge 13, Type (0, 0), BuildingBlock: TEMPAE_clean_linker_10, # of connection points: 2
#     Edge 14, Type (0, 0), BuildingBlock: TEMPAE_clean_linker_10, # of connection points: 2
#     Edge 15, Type (0, 0), BuildingBlock: TEMPAE_clean_linker_10, # of connection points: 2
#     Edge 16, Type (0, 0), BuildingBlock: TEMPAE_clean_linker_10, # of connection points: 2
#     Edge 17, Type (0, 0), BuildingBlock: TEMPAE_clean_linker_10, # of connection points: 2
#     Edge 18, Type (0, 0), BuildingBlock: TEMPAE_clean_linker_10, # of connection points: 2
#     Edge 19, Type (0, 0), BuildingBlock: TEMPAE_clean_linker_10, # of connection points: 2
#     Edge 20, Type (0, 0), BuildingBlock: TEMPAE_clean_linker_10, # of connection points: 2
# Relax obj value: 0.109
# Max RMSD: 0.171
# Mean RMSD: 0.159
data_MOF--net-ttw--node1-BEQFEK_clean_sbu_0--edge1-TEMPAE_clean_linker_10
_symmetry_space_group_name_H-M    P1
_symmetry_Int_Tables_number       1
_symmetry_cell_setting            triclinic
loop_
_symmetry_equiv_pos_as_xyz
'x, y, z'
_cell_length_a     55.945213
_cell_length_b     58.361304
_cell_length_c     19.705454
_cell_angle_alpha  91.303246
_cell_angle_beta   90.0791
_cell_angle_gamma 125.70405
loop_
_atom_site_label
_atom_site_type_symbol
_atom_site_fract_x
_atom_site_fract_y
_atom_site_fract_z
_atom_type_partial_charge
Co0 Co 0.17828 0.52455 0.99725 0.0
Co1 Co 0.17905 0.53534 0.15487 0.0
C2 C 0.22183 0.5265 0.0875 0.0
O3 O 0.20972 0.52146 0.02907 0.0
O4 O 0.2123 0.53231 0.13905 0.0
C5 C 0.18557 0.51061 0.86012 0.0
O6 O 0.20727 0.51083 0.88656 0.0
C7 C 0.17464 0.52366 0.30176 0.0
C8 C 0.17267 0.55793 0.34389 0.0
C9 C 0.1734 0.53559 0.36235 0.0
N10 N 0.17464 0.53836 0.2501 0.0
N11 N 0.17323 0.55866 0.27576 0.0
C12 C 0.17772 0.49998 0.29306 0.0
H13 H 0.19324 0.50191 0.3319 0.0
H14 H 0.18537 0.49966 0.24142 0.0
H15 H 0.15597 0.47964 0.30001 0.0
C16 C 0.11574 0.4805 0.02558 0.0
N17 N 0.14336 0.50103 0.04666 0.0
N18 N 0.1435 0.50538 0.11252 0.0
C19 C 0.11585 0.48799 0.13537 0.0
C20 C 0.09734 0.47156 0.081 0.0
C21 C 0.10723 0.47019 0.95334 0.0
H22 H 0.12286 0.46619 0.93194 0.0
H23 H 0.08455 0.4505 0.94899 0.0
H24 H 0.10871 0.48678 0.92315 0.0
O25 O 0.19371 0.56504 0.00745 0.0
O26 O 0.19087 0.57146 0.1178 0.0
H27 H 0.11729 0.51204 0.22106 0.0
H28 H 0.08275 0.47775 0.21024 0.0
C29 C 0.10696 0.48967 0.20593 0.0
H30 H 0.11498 0.48099 0.24152 0.0
H31 H 0.17329 0.57343 0.24677 0.0
O32 O 0.17045 0.5152 0.8985 0.0
C33 C 0.19698 0.58071 0.05794 0.0
Co34 Co 0.48308 0.16593 0.17895 0.0
Co35 Co 0.4815 0.16122 0.01937 0.0
C36 C 0.48089 0.2063 0.09205 0.0
O37 O 0.4817 0.19701 0.14915 0.0
O38 O 0.47984 0.19413 0.03643 0.0
C39 C 0.45982 0.16459 0.31104 0.0
O40 O 0.44003 0.16524 0.27691 0.0
C41 C 0.46644 0.15777 0.87332 0.0
C42 C 0.48663 0.13759 0.83041 0.0
C43 C 0.4709 0.14815 0.81283 0.0
N44 N 0.47885 0.1529 0.92423 0.0
N45 N 0.49106 0.14105 0.89803 0.0
C46 C 0.44994 0.17049 0.88324 0.0
H47 H 0.43896 0.16457 0.93311 0.0
H48 H 0.43337 0.16354 0.84188 0.0
H49 H 0.46573 0.19383 0.88302 0.0
C50 C 0.4378 0.10488 0.16087 0.0
N51 N 0.45404 0.1309 0.1353 0.0
N52 N 0.453 0.12871 0.06856 0.0
C53 C 0.43597 0.10112 0.04966 0.0
C54 C 0.4263 0.08498 0.10764 0.0
C55 C 0.43645 0.09927 0.23504 0.0
H56 H 0.42732 0.10931 0.26221 0.0
H57 H 0.42223 0.07634 0.24491 0.0
H58 H 0.45901 0.10881 0.25541 0.0
O59 O 0.52293 0.17647 0.15899 0.0
O60 O 0.52119 0.17265 0.04637 0.0
H61 H 0.45453 0.09266 0.96671 0.0
H62 H 0.41525 0.06816 0.97076 0.0
C63 C 0.43397 0.09058 0.9784 0.0
H64 H 0.43116 0.10319 0.94249 0.0
H65 H 0.5025 0.13536 0.92644 0.0
O66 O 0.47927 0.16417 0.279 0.0
C67 C 0.53489 0.17807 0.10269 0.0
Co68 Co 0.49376 0.65567 0.02169 0.0
Co69 Co 0.48489 0.64956 0.17849 0.0
C70 C 0.50007 0.70149 0.10981 0.0
O71 O 0.50222 0.6921 0.05301 0.0
O72 O 0.49286 0.68708 0.16327 0.0
C73 C 0.49925 0.67347 0.88764 0.0
O74 O 0.48873 0.68657 0.91482 0.0
C75 C 0.49248 0.6574 0.32855 0.0
C76 C 0.46366 0.61277 0.3581 0.0
C77 C 0.48206 0.6401 0.38426 0.0
N78 N 0.48094 0.64088 0.27202 0.0
N79 N 0.46376 0.61428 0.2902 0.0
C80 C 0.51194 0.68899 0.32899 0.0
H81 H 0.50672 0.69691 0.28511 0.0
H82 H 0.5352 0.6964 0.32522 0.0
H83 H 0.50944 0.69793 0.3765 0.0
C84 C 0.53404 0.63997 0.05407 0.0
N85 N 0.51589 0.64695 0.07278 0.0
N86 N 0.51358 0.6461 0.1392 0.0
C87 C 0.53069 0.63906 0.16516 0.0
C88 C 0.54411 0.63474 0.11212 0.0
C89 C 0.53882 0.63541 0.98169 0.0
H90 H 0.51777 0.62464 0.95253 0.0
H91 H 0.55465 0.65622 0.95888 0.0
H92 H 0.54751 0.62256 0.97733 0.0
O93 O 0.45078 0.62593 0.02755 0.0
O94 O 0.44574 0.62039 0.13883 0.0
H95 H 0.5139 0.61623 0.25673 0.0
H96 H 0.55342 0.6363 0.25002 0.0
C97 C 0.53392 0.63627 0.23933 0.0
H98 H 0.53631 0.65403 0.26824 0.0
H99 H 0.452 0.5971 0.25605 0.0
O100 O 0.50381 0.65891 0.92508 0.0
C101 C 0.43495 0.61356 0.07891 0.0
Co102 Co 0.79941 0.33988 0.16905 0.0
Co103 Co 0.80343 0.35125 0.01305 0.0
C104 C 0.75179 0.29801 0.07396 0.0
O105 O 0.76362 0.30449 0.13299 0.0
O106 O 0.7645 0.31438 0.02432 0.0
C107 C 0.78347 0.31855 0.30427 0.0
O108 O 0.75711 0.30063 0.27715 0.0
C109 C 0.80491 0.34272 0.86449 0.0
C110 C 0.82241 0.3855 0.82985 0.0
C111 C 0.81202 0.35857 0.80657 0.0
N112 N 0.81084 0.35963 0.91916 0.0
N113 N 0.82151 0.38519 0.89795 0.0
C114 C 0.79119 0.3118 0.86792 0.0
H115 H 0.78153 0.30372 0.91827 0.0
H116 H 0.80841 0.30821 0.85993 0.0
H117 H 0.77404 0.29994 0.82748 0.0
C118 C 0.85862 0.35395 0.14403 0.0
N119 N 0.83307 0.34867 0.12169 0.0
N120 N 0.83464 0.3529 0.05608 0.0
C121 C 0.86136 0.36121 0.03454 0.0
C122 C 0.87746 0.36214 0.08966 0.0
C123 C 0.86511 0.35218 0.21666 0.0
H124 H 0.84692 0.33158 0.23664 0.0
H125 H 0.8861 0.35439 0.22243 0.0
H126 H 0.86636 0.36909 0.24712 0.0
O127 O 0.79323 0.37013 0.16203 0.0
O128 O 0.80025 0.38053 0.0529 0.0
H129 H 0.86982 0.38859 0.95338 0.0
H130 H 0.89583 0.37993 0.95933 0.0
C131 C 0.87237 0.37159 0.96475 0.0
H132 H 0.85887 0.35405 0.92714 0.0
H133 H 0.82758 0.40232 0.93002 0.0
O134 O 0.80439 0.33646 0.26688 0.0
C135 C 0.79506 0.38482 0.11281 0.0
Co136 Co 0.4036 0.8358 0.14492 0.0
Co137 Co 0.39621 0.83346 0.98601 0.0
C138 C 0.44134 0.82858 0.0549 0.0
O139 O 0.43494 0.83274 0.11365 0.0
O140 O 0.42786 0.82782 0.00161 0.0
C141 C 0.43032 0.85384 0.28008 0.0
O142 O 0.45564 0.86722 0.2489 0.0
C143 C 0.41158 0.84617 0.84139 0.0
C144 C 0.36894 0.83333 0.79728 0.0
C145 C 0.39777 0.84445 0.78093 0.0
N146 N 0.39179 0.83667 0.89127 0.0
N147 N 0.36631 0.82879 0.86433 0.0
C148 C 0.44317 0.85753 0.85231 0.0
H149 H 0.45096 0.86815 0.90313 0.0
H150 H 0.45711 0.87252 0.81229 0.0
H151 H 0.44521 0.83971 0.85051 0.0
C152 C 0.40858 0.88878 0.12879 0.0
N153 N 0.40595 0.86586 0.10278 0.0
N154 N 0.4027 0.86492 0.03638 0.0
C155 C 0.40261 0.887 0.01807 0.0
C156 C 0.4063 0.90287 0.0761 0.0
C157 C 0.4141 0.89727 0.20255 0.0
H158 H 0.43327 0.89796 0.22061 0.0
H159 H 0.41885 0.91835 0.2123 0.0
H160 H 0.39467 0.88124 0.23192 0.0
O161 O 0.3651 0.7991 0.12432 0.0
O162 O 0.35874 0.79889 0.01297 0.0
H163 H 0.37374 0.87195 0.93172 0.0
H164 H 0.39538 0.90948 0.94351 0.0
C165 C 0.39575 0.89081 0.94749 0.0
H166 H 0.41221 0.89272 0.91215 0.0
H167 H 0.34711 0.82043 0.8919 0.0
O168 O 0.40645 0.84038 0.24534 0.0
C169 C 0.34973 0.78742 0.07016 0.0
Co170 Co 0.63407 0.4614 0.16235 0.0
Co171 Co 0.63734 0.46529 0.00373 0.0
C172 C 0.68292 0.46616 0.08047 0.0
O173 O 0.66983 0.46393 0.13548 0.0
O174 O 0.67325 0.46743 0.0231 0.0
C175 C 0.65841 0.4842 0.29514 0.0
O176 O 0.68203 0.50282 0.26148 0.0
C177 C 0.65098 0.47804 0.8578 0.0
C178 C 0.60801 0.46676 0.82004 0.0
C179 C 0.63616 0.47691 0.79972 0.0
N180 N 0.63234 0.46905 0.91001 0.0
N181 N 0.60669 0.46218 0.88687 0.0
C182 C 0.68257 0.4888 0.86472 0.0
H183 H 0.684 0.47062 0.8634 0.0
H184 H 0.69175 0.50024 0.91426 0.0
H185 H 0.69577 0.50302 0.82286 0.0
C186 C 0.62869 0.5086 0.14759 0.0
N187 N 0.6332 0.48984 0.12201 0.0
N188 N 0.63643 0.49262 0.05595 0.0
C189 C 0.63514 0.51399 0.0377 0.0
C190 C 0.62979 0.5246 0.09491 0.0
C191 C 0.62022 0.50888 0.21949 0.0
H192 H 0.60765 0.48728 0.23957 0.0
H193 H 0.64049 0.52266 0.25108 0.0
H194 H 0.60668 0.51708 0.22352 0.0
O195 O 0.5986 0.4237 0.1354 0.0
O196 O 0.6035 0.42628 0.02348 0.0
H197 H 0.61851 0.51138 0.93793 0.0
H198 H 0.64682 0.54676 0.96757 0.0
C199 C 0.63957 0.52454 0.96705 0.0
H200 H 0.65632 0.52317 0.94132 0.0
H201 H 0.5883 0.45457 0.91704 0.0
O202 O 0.63529 0.46501 0.26247 0.0
C203 C 0.59 0.41261 0.07607 0.0
C204 C 0.05006 0.43038 0.12548 0.0
C205 C 0.06488 0.45261 0.0804 0.0
C206 C 0.01921 0.41335 0.12812 0.0
C207 C 0.00303 0.41889 0.0848 0.0
C208 C 0.01799 0.44103 0.03824 0.0
C209 C 0.0488 0.45764 0.03665 0.0
C210 C 0.00398 0.38988 0.17823 0.0
C211 C 0.00153 0.4477 0.9915 0.0
C212 C 0.92127 0.36476 0.04982 0.0
C213 C 0.90928 0.37498 0.09243 0.0
C214 C 0.95181 0.3783 0.04834 0.0
C215 C 0.97057 0.40263 0.09031 0.0
C216 C 0.95837 0.4125 0.13481 0.0
C217 C 0.9278 0.3985 0.1353 0.0
C218 C 0.96405 0.36712 0.00052 0.0
C219 C 0.97764 0.43843 0.1801 0.0
H220 H 0.06267 0.42656 0.15913 0.0
H221 H 0.0604 0.47511 0.00243 0.0
H222 H 0.99239 0.3943 0.21608 0.0
H223 H 0.9871 0.36961 0.1517 0.0
H224 H 0.01964 0.38734 0.2056 0.0
H225 H 0.01638 0.46478 0.95621 0.0
H226 H 0.9847 0.42859 0.96115 0.0
H227 H 0.98976 0.45434 0.02195 0.0
H228 H 0.90675 0.34646 0.01688 0.0
H229 H 0.91839 0.40649 0.16773 0.0
H230 H 0.979 0.36383 0.02848 0.0
H231 H 0.97724 0.38282 0.96114 0.0
H232 H 0.94643 0.34689 0.97487 0.0
H233 H 0.9927 0.43626 0.21129 0.0
H234 H 0.96459 0.44233 0.21454 0.0
H235 H 0.99152 0.45721 0.14847 0.0
C236 C 0.38817 0.92928 0.12893 0.0
C237 C 0.40592 0.92798 0.08121 0.0
C238 C 0.38858 0.95347 0.13638 0.0
C239 C 0.40638 0.97641 0.09333 0.0
C240 C 0.42349 0.97473 0.04329 0.0
C241 C 0.4235 0.95073 0.03879 0.0
C242 C 0.37078 0.95485 0.19171 0.0
C243 C 0.44227 0.99851 0.99537 0.0
C244 C 0.39404 0.03347 0.07497 0.0
C245 C 0.41837 0.056 0.11127 0.0
C246 C 0.38938 0.00709 0.06957 0.0
C247 C 0.40893 0.00304 0.10352 0.0
C248 C 0.4324 0.02526 0.14386 0.0
C249 C 0.43721 0.05162 0.14601 0.0
C250 C 0.36458 0.98412 0.02463 0.0
C251 C 0.45324 0.02158 0.18252 0.0
H252 H 0.37424 0.91148 0.16111 0.0
H253 H 0.4375 0.94986 0.00244 0.0
H254 H 0.38578 0.97223 0.22856 0.0
H255 H 0.35589 0.95961 0.17002 0.0
H256 H 0.35738 0.93484 0.21952 0.0
H257 H 0.4517 0.99262 0.95486 0.0
H258 H 0.42907 0.00481 0.9712 0.0
H259 H 0.46065 0.01723 0.02407 0.0
H260 H 0.37934 0.03684 0.04865 0.0
H261 H 0.45638 0.06913 0.17315 0.0
H262 H 0.35089 0.96422 0.05251 0.0
H263 H 0.37387 0.97981 0.98054 0.0
H264 H 0.3502 0.98999 0.00538 0.0
H265 H 0.44074 0.00196 0.2119 0.0
H266 H 0.46795 0.03969 0.21806 0.0
H267 H 0.46713 0.01957 0.14634 0.0
C268 C 0.60056 0.54084 0.05025 0.0
C269 C 0.62144 0.54441 0.09698 0.0
C270 C 0.5908 0.55812 0.05362 0.0
C271 C 0.6019 0.57922 0.10568 0.0
C272 C 0.62346 0.58331 0.15231 0.0
C273 C 0.63306 0.56584 0.14725 0.0
C274 C 0.56782 0.55309 0.00286 0.0
C275 C 0.63564 0.6055 0.20867 0.0
C276 C 0.58683 0.63396 0.07993 0.0
C277 C 0.56068 0.62228 0.11562 0.0
C278 C 0.60128 0.62079 0.07834 0.0
C279 C 0.58927 0.59549 0.11362 0.0
C280 C 0.56347 0.58427 0.15192 0.0
C281 C 0.54938 0.59772 0.15205 0.0
C282 C 0.62867 0.63328 0.03675 0.0
C283 C 0.55001 0.55736 0.19037 0.0
H284 H 0.59109 0.52389 0.01224 0.0
H285 H 0.64933 0.56864 0.18316 0.0
H286 H 0.54704 0.54551 0.02934 0.0
H287 H 0.57517 0.5731 0.9784 0.0
H288 H 0.56309 0.53724 0.96264 0.0
H289 H 0.65368 0.60726 0.23785 0.0
H290 H 0.64407 0.62638 0.18768 0.0
H291 H 0.61781 0.60022 0.24415 0.0
H292 H 0.5956 0.65308 0.05213 0.0
H293 H 0.52891 0.58846 0.17885 0.0
H294 H 0.62404 0.61887 0.99294 0.0
H295 H 0.64657 0.6355 0.06753 0.0
H296 H 0.63657 0.65426 0.01717 0.0
H297 H 0.54162 0.53932 0.15397 0.0
H298 H 0.5315 0.55289 0.2225 0.0
H299 H 0.56687 0.55863 0.22326 0.0
C300 C 0.15923 0.5005 0.45342 0.0
C301 C 0.17501 0.52856 0.4331 0.0
C302 C 0.15961 0.49418 0.5217 0.0
C303 C 0.17619 0.51647 0.57042 0.0
C304 C 0.19251 0.54481 0.54975 0.0
C305 C 0.19154 0.55048 0.4815 0.0
C306 C 0.14168 0.46373 0.54202 0.0
C307 C 0.21065 0.56922 0.59995 0.0
C308 C 0.15809 0.50882 0.75745 0.0
C309 C 0.18077 0.50821 0.78553 0.0
C310 C 0.15539 0.50999 0.68703 0.0
C311 C 0.17586 0.51057 0.6436 0.0
C312 C 0.19781 0.50841 0.6713 0.0
C313 C 0.2 0.50724 0.74197 0.0
C314 C 0.13155 0.5121 0.65948 0.0
C315 C 0.21997 0.50885 0.62661 0.0
H316 H 0.1458 0.4835 0.41657 0.0
H317 H 0.20381 0.5722 0.46588 0.0
H318 H 0.15572 0.45935 0.57023 0.0
H319 H 0.12398 0.45952 0.57659 0.0
H320 H 0.13145 0.44886 0.49749 0.0
H321 H 0.22293 0.58997 0.57515 0.0
H322 H 0.19611 0.56896 0.63865 0.0
H323 H 0.22667 0.56714 0.62704 0.0
H324 H 0.14294 0.5093 0.79062 0.0
H325 H 0.21748 0.50658 0.76313 0.0
H326 H 0.1194 0.49661 0.6169 0.0
H327 H 0.14168 0.53344 0.63923 0.0
H328 H 0.11558 0.5084 0.69896 0.0
H329 H 0.20868 0.49345 0.58347 0.0
H330 H 0.23355 0.50391 0.65497 0.0
H331 H 0.23485 0.53007 0.60493 0.0
C332 C 0.43366 0.15552 0.42121 0.0
C333 C 0.45907 0.16338 0.386 0.0
C334 C 0.43251 0.15314 0.49217 0.0
C335 C 0.45751 0.15919 0.52861 0.0
C336 C 0.48346 0.1679 0.4934 0.0
C337 C 0.48383 0.16966 0.42256 0.0
C338 C 0.40435 0.14343 0.52791 0.0
C339 C 0.51073 0.17491 0.53044 0.0
C340 C 0.46841 0.17484 0.71876 0.0
C341 C 0.46294 0.14977 0.74251 0.0
C342 C 0.46533 0.17782 0.64936 0.0
C343 C 0.45638 0.1551 0.6031 0.0
C344 C 0.44925 0.12923 0.62764 0.0
C345 C 0.45295 0.127 0.69696 0.0
C346 C 0.47347 0.20585 0.62508 0.0
C347 C 0.4392 0.10436 0.58022 0.0
H348 H 0.41442 0.15055 0.39318 0.0
H349 H 0.50363 0.176 0.39573 0.0
H350 H 0.39532 0.12289 0.55167 0.0
H351 H 0.40876 0.15872 0.56926 0.0
H352 H 0.38737 0.14091 0.49276 0.0
H353 H 0.52963 0.18297 0.49605 0.0
H354 H 0.51723 0.19104 0.57128 0.0
H355 H 0.50607 0.15579 0.55489 0.0
H356 H 0.47672 0.19266 0.75369 0.0
H357 H 0.4487 0.10759 0.71542 0.0
H358 H 0.45621 0.20276 0.59012 0.0
H359 H 0.49421 0.21629 0.5963 0.0
H360 H 0.47671 0.2202 0.66783 0.0
H361 H 0.4212 0.1002 0.54609 0.0
H362 H 0.43135 0.08487 0.6081 0.0
H363 H 0.45773 0.1092 0.54775 0.0
C364 C 0.49688 0.68869 0.77202 0.0
C365 C 0.50273 0.67322 0.81343 0.0
C366 C 0.49669 0.68608 0.70113 0.0
C367 C 0.5024 0.6675 0.6712 0.0
C368 C 0.50986 0.65299 0.71263 0.0
C369 C 0.51 0.65607 0.78338 0.0
C370 C 0.48888 0.70207 0.65841 0.0
C371 C 0.51609 0.63299 0.68242 0.0
C372 C 0.46467 0.63238 0.50277 0.0
C373 C 0.48764 0.64793 0.4572 0.0
C374 C 0.46924 0.63869 0.57253 0.0
C375 C 0.49754 0.661 0.59725 0.0
C376 C 0.52091 0.67672 0.55156 0.0
C377 C 0.51571 0.66985 0.48187 0.0
C378 C 0.44377 0.62139 0.61978 0.0
C379 C 0.55139 0.70054 0.57636 0.0
H380 H 0.49153 0.7022 0.79491 0.0
H381 H 0.51474 0.64419 0.8151 0.0
H382 H 0.50506 0.71309 0.61746 0.0
H383 H 0.46699 0.68701 0.63374 0.0
H384 H 0.48811 0.71785 0.68901 0.0
H385 H 0.52455 0.62568 0.72101 0.0
H386 H 0.49556 0.61425 0.65938 0.0
H387 H 0.53239 0.64326 0.6414 0.0
H388 H 0.44298 0.61533 0.48373 0.0
H389 H 0.53375 0.68126 0.44699 0.0
H390 H 0.4397 0.63532 0.64863 0.0
H391 H 0.4492 0.6111 0.65727 0.0
H392 H 0.42315 0.60479 0.59222 0.0
H393 H 0.55046 0.71641 0.60587 0.0
H394 H 0.56692 0.71122 0.534 0.0
H395 H 0.56023 0.69232 0.61097 0.0
C396 C 0.79878 0.36164 0.68842 0.0
C397 C 0.80713 0.34935 0.73416 0.0
C398 C 0.79472 0.35421 0.61916 0.0
C399 C 0.79924 0.33404 0.59482 0.0
C400 C 0.80755 0.32141 0.64067 0.0
C401 C 0.81156 0.32935 0.70991 0.0
C402 C 0.78587 0.3682 0.57192 0.0
C403 C 0.81271 0.29993 0.61638 0.0
C404 C 0.76458 0.30238 0.42134 0.0
C405 C 0.78823 0.31989 0.3786 0.0
C406 C 0.7682 0.30572 0.49223 0.0
C407 C 0.7961 0.32708 0.52088 0.0
C408 C 0.82039 0.34378 0.47807 0.0
C409 C 0.81617 0.33997 0.40745 0.0
C410 C 0.74183 0.28737 0.53631 0.0
C411 C 0.85052 0.36674 0.50668 0.0
H412 H 0.7953 0.37711 0.7069 0.0
H413 H 0.81893 0.32043 0.74447 0.0
H414 H 0.80303 0.38003 0.53325 0.0
H415 H 0.76509 0.35198 0.54446 0.0
H416 H 0.78268 0.38307 0.59925 0.0
H417 H 0.81744 0.29091 0.65898 0.0
H418 H 0.79314 0.28247 0.58749 0.0
H419 H 0.83155 0.30991 0.58135 0.0
H420 H 0.74296 0.28667 0.39951 0.0
H421 H 0.83465 0.35341 0.37483 0.0
H422 H 0.73549 0.30036 0.56077 0.0
H423 H 0.74731 0.2784 0.57745 0.0
H424 H 0.72256 0.26977 0.50679 0.0
H425 H 0.84997 0.38393 0.52985 0.0
H426 H 0.86765 0.37587 0.46714 0.0
H427 H 0.857 0.35843 0.54731 0.0
C428 C 0.45356 0.87584 0.39398 0.0
C429 C 0.42931 0.85439 0.35505 0.0
C430 C 0.45222 0.87683 0.46516 0.0
C431 C 0.42623 0.85553 0.49797 0.0
C432 C 0.40201 0.83345 0.45885 0.0
C433 C 0.40373 0.83332 0.38793 0.0
C434 C 0.47826 0.90098 0.5051 0.0
C435 C 0.37407 0.81005 0.49188 0.0
C436 C 0.42443 0.84042 0.68511 0.0
C437 C 0.4095 0.85116 0.71162 0.0
C438 C 0.43136 0.84283 0.61592 0.0
C439 C 0.42353 0.85669 0.57289 0.0
C440 C 0.41008 0.86908 0.60062 0.0
C441 C 0.40284 0.86578 0.66949 0.0
C442 C 0.44524 0.82892 0.58811 0.0
C443 C 0.40196 0.88456 0.55687 0.0
H444 H 0.47334 0.89223 0.36872 0.0
H445 H 0.38503 0.81653 0.35812 0.0
H446 H 0.47178 0.91344 0.53196 0.0
H447 H 0.48546 0.89279 0.54434 0.0
H448 H 0.49721 0.91528 0.47222 0.0
H449 H 0.35797 0.79354 0.45452 0.0
H450 H 0.37924 0.79995 0.53059 0.0
H451 H 0.36353 0.81889 0.51837 0.0
H452 H 0.42914 0.8287 0.71752 0.0
H453 H 0.39133 0.87412 0.69022 0.0
H454 H 0.46419 0.84363 0.55584 0.0
H455 H 0.42891 0.81034 0.55559 0.0
H456 H 0.45289 0.82174 0.62908 0.0
H457 H 0.42082 0.89998 0.52522 0.0
H458 H 0.3951 0.89594 0.58758 0.0
H459 H 0.38351 0.86929 0.52189 0.0
C460 C 0.63459 0.46326 0.40557 0.0
C461 C 0.65859 0.48527 0.37028 0.0
C462 C 0.63419 0.46384 0.47666 0.0
C463 C 0.65827 0.48712 0.51352 0.0
C464 C 0.68269 0.50933 0.47836 0.0
C465 C 0.68261 0.5081 0.40705 0.0
C466 C 0.60778 0.43964 0.51231 0.0
C467 C 0.70863 0.53456 0.51604 0.0
C468 C 0.63742 0.49684 0.68879 0.0
C469 C 0.64626 0.48348 0.7291 0.0
C470 C 0.64285 0.49973 0.61903 0.0
C471 C 0.65701 0.4885 0.58872 0.0
C472 C 0.66714 0.47605 0.62974 0.0
C473 C 0.66167 0.47373 0.6997 0.0
C474 C 0.63202 0.51344 0.57725 0.0
C475 C 0.68208 0.46362 0.59916 0.0
H476 H 0.61601 0.44546 0.37763 0.0
H477 H 0.70124 0.52519 0.38013 0.0
H478 H 0.61489 0.43055 0.54919 0.0
H479 H 0.59676 0.44742 0.54137 0.0
H480 H 0.59144 0.42257 0.47632 0.0
H481 H 0.72637 0.54957 0.48134 0.0
H482 H 0.70132 0.54589 0.54506 0.0
H483 H 0.71787 0.52758 0.55329 0.0
H484 H 0.62552 0.5044 0.71165 0.0
H485 H 0.66798 0.46286 0.73055 0.0
H486 H 0.61341 0.49725 0.54386 0.0
H487 H 0.64969 0.52943 0.54399 0.0
H488 H 0.6244 0.52381 0.60944 0.0
H489 H 0.66584 0.44444 0.56817 0.0
H490 H 0.69162 0.4577 0.6386 0.0
H491 H 0.69985 0.47878 0.56487 0.0
C492 C 0.25816 0.5178 0.04535 0.0
C493 C 0.25052 0.53074 0.09265 0.0
C494 C 0.28724 0.52598 0.04173 0.0
C495 C 0.30924 0.54833 0.08462 0.0
C496 C 0.3013 0.56044 0.13468 0.0
C497 C 0.27192 0.55113 0.13885 0.0
C498 C 0.29461 0.5117 0.98977 0.0
C499 C 0.32414 0.58473 0.18058 0.0
C500 C 0.387 0.57041 0.11381 0.0
C501 C 0.40279 0.59326 0.07056 0.0
C502 C 0.35612 0.55384 0.11465 0.0
C503 C 0.34093 0.56116 0.07344 0.0
C504 C 0.35677 0.58338 0.02723 0.0
C505 C 0.38755 0.59886 0.02553 0.0
C506 C 0.33995 0.52954 0.16233 0.0
C507 C 0.34151 0.59232 0.98351 0.0
H508 H 0.2416 0.5019 0.00978 0.0
H509 H 0.2662 0.56136 0.17514 0.0
H510 H 0.30577 0.52576 0.94636 0.0
H511 H 0.30992 0.5075 0.01184 0.0
H512 H 0.27458 0.49147 0.97005 0.0
H513 H 0.31418 0.59116 0.21822 0.0
H514 H 0.33709 0.57897 0.20838 0.0
H515 H 0.33976 0.60321 0.14953 0.0
H516 H 0.39885 0.56598 0.14834 0.0
H517 H 0.39981 0.6167 0.99253 0.0
H518 H 0.31998 0.51097 0.13705 0.0
H519 H 0.33268 0.53572 0.20706 0.0
H520 H 0.35409 0.52325 0.18063 0.0
H521 H 0.32309 0.57397 0.95401 0.0
H522 H 0.35675 0.60888 0.94755 0.0
H523 H 0.33199 0.60069 0.01639 0.0
C524 C 0.58621 0.21144 0.14631 0.0
C525 C 0.56625 0.18924 0.10163 0.0
C526 C 0.61662 0.22555 0.13899 0.0
C527 C 0.6272 0.21652 0.08725 0.0
C528 C 0.60701 0.19277 0.04514 0.0
C529 C 0.5767 0.17975 0.05187 0.0
C530 C 0.63739 0.25123 0.18391 0.0
C531 C 0.61741 0.18178 0.99138 0.0
C532 C 0.70189 0.2753 0.02329 0.0
C533 C 0.72069 0.27359 0.0664 0.0
C534 C 0.67126 0.25592 0.02718 0.0
C535 C 0.65925 0.23373 0.07365 0.0
C536 C 0.67823 0.23034 0.11257 0.0
C537 C 0.7088 0.25068 0.10949 0.0
C538 C 0.65184 0.26069 0.98584 0.0
C539 C 0.66627 0.20626 0.16043 0.0
H540 H 0.5781 0.21892 0.18437 0.0
H541 H 0.56118 0.16241 0.01759 0.0
H542 H 0.65323 0.24876 0.21037 0.0
H543 H 0.65034 0.27017 0.15233 0.0
H544 H 0.62559 0.25507 0.22263 0.0
H545 H 0.5992 0.16057 0.97112 0.0
H546 H 0.62678 0.19647 0.94861 0.0
H547 H 0.63508 0.18056 0.01213 0.0
H548 H 0.711 0.29311 0.99031 0.0
H549 H 0.72334 0.24922 0.14257 0.0
H550 H 0.64035 0.26646 0.02036 0.0
H551 H 0.63471 0.24109 0.95751 0.0
H552 H 0.66455 0.2778 0.94903 0.0
H553 H 0.65786 0.21047 0.20645 0.0
H554 H 0.68344 0.20347 0.17654 0.0
H555 H 0.64761 0.18622 0.13629 0.0
C556 C 0.48137 0.72896 0.14893 0.0
C557 C 0.5014 0.72748 0.1102 0.0
C558 C 0.47711 0.75001 0.13798 0.0
C559 C 0.4941 0.77065 0.08883 0.0
C560 C 0.51628 0.77073 0.05413 0.0
C561 C 0.51925 0.74876 0.06418 0.0
C562 C 0.45283 0.7488 0.17526 0.0
C563 C 0.53575 0.79306 0.00371 0.0
C564 C 0.45289 0.79643 0.0073 0.0
C565 C 0.46065 0.8191 0.0511 0.0
C566 C 0.46504 0.78139 0.01642 0.0
C567 C 0.48618 0.78992 0.0691 0.0
C568 C 0.49647 0.81473 0.10838 0.0
C569 C 0.48313 0.82873 0.09984 0.0
C570 C 0.45311 0.75481 0.97397 0.0
C571 C 0.52001 0.82533 0.16266 0.0
H572 H 0.46737 0.71238 0.18405 0.0
H573 H 0.53488 0.74769 0.0344 0.0
H574 H 0.46155 0.76933 0.20147 0.0
H575 H 0.43564 0.7447 0.13834 0.0
H576 H 0.44232 0.73201 0.21344 0.0
H577 H 0.55572 0.79386 0.99294 0.0
H578 H 0.52338 0.78833 0.95527 0.0
H579 H 0.54267 0.81419 0.02263 0.0
H580 H 0.43536 0.78881 0.96993 0.0
H581 H 0.48929 0.84641 0.13349 0.0
H582 H 0.44052 0.73619 0.0067 0.0
H583 H 0.47135 0.75488 0.95181 0.0
H584 H 0.43833 0.75222 0.93207 0.0
H585 H 0.5103 0.81224 0.20814 0.0
H586 H 0.52987 0.84763 0.17807 0.0
H587 H 0.53775 0.82363 0.14481 0.0
C588 C 0.76039 0.39469 0.15685 0.0
C589 C 0.78625 0.40401 0.12214 0.0
C590 C 0.74746 0.4092 0.15269 0.0
C591 C 0.76142 0.43421 0.11509 0.0
C592 C 0.78896 0.44505 0.08516 0.0
C593 C 0.80072 0.4294 0.08759 0.0
C594 C 0.71767 0.39645 0.18379 0.0
C595 C 0.80521 0.47231 0.04748 0.0
C596 C 0.70871 0.44651 0.03298 0.0
C597 C 0.70715 0.46295 0.08312 0.0
C598 C 0.72721 0.43788 0.04162 0.0
C599 C 0.74539 0.44685 0.10067 0.0
C600 C 0.74572 0.46547 0.14861 0.0
C601 C 0.72608 0.47282 0.14002 0.0
C602 C 0.72561 0.41745 0.99002 0.0
C603 C 0.76574 0.47653 0.21056 0.0
H604 H 0.74903 0.37482 0.18275 0.0
H605 H 0.82078 0.43658 0.06081 0.0
H606 H 0.71809 0.41219 0.21733 0.0
H607 H 0.70103 0.39009 0.14297 0.0
H608 H 0.71043 0.3776 0.21382 0.0
H609 H 0.82856 0.48056 0.03921 0.0
H610 H 0.79446 0.46878 0.99722 0.0
H611 H 0.80456 0.48861 0.07573 0.0
H612 H 0.69387 0.43864 0.98929 0.0
H613 H 0.72497 0.48568 0.17868 0.0
H614 H 0.71704 0.3971 0.01434 0.0
H615 H 0.74786 0.42574 0.97116 0.0
H616 H 0.71109 0.4133 0.94587 0.0
H617 H 0.75708 0.45956 0.24785 0.0
H618 H 0.7674 0.49468 0.23553 0.0
H619 H 0.78814 0.48319 0.19684 0.0
C620 C 0.23563 0.6253 0.00347 0.0
C621 C 0.2125 0.61129 0.04931 0.0
C622 C 0.25513 0.65484 0.00521 0.0
C623 C 0.25073 0.67067 0.05243 0.0
C624 C 0.22585 0.65666 0.09465 0.0
C625 C 0.20731 0.62704 0.09352 0.0
C626 C 0.28176 0.6689 0.96038 0.0
C627 C 0.21977 0.67286 0.1437 0.0
C628 C 0.3204 0.7392 0.11647 0.0
C629 C 0.32236 0.7586 0.07206 0.0
C630 C 0.29672 0.71058 0.11172 0.0
C631 C 0.27399 0.70137 0.06285 0.0
C632 C 0.27491 0.72123 0.02091 0.0
C633 C 0.29942 0.74959 0.02512 0.0
C634 C 0.29694 0.68999 0.15634 0.0
C635 C 0.25056 0.71238 0.97006 0.0
H636 H 0.23986 0.61315 0.96974 0.0
H637 H 0.1893 0.61619 0.12878 0.0
H638 H 0.28369 0.68607 0.93193 0.0
H639 H 0.30198 0.67862 0.99239 0.0
H640 H 0.28093 0.65378 0.92343 0.0
H641 H 0.19712 0.65938 0.16384 0.0
H642 H 0.2356 0.68114 0.18713 0.0
H643 H 0.22275 0.69121 0.11882 0.0
H644 H 0.33827 0.74611 0.15233 0.0
H645 H 0.30087 0.76466 0.991 0.0
H646 H 0.29794 0.67469 0.12426 0.0
H647 H 0.27635 0.67774 0.18558 0.0
H648 H 0.31594 0.70068 0.19264 0.0
H649 H 0.25132 0.70001 0.92766 0.0
H650 H 0.25246 0.73082 0.94866 0.0
H651 H 0.22875 0.69859 0.99398 0.0
C652 C 0.47895 0.24347 0.03594 0.0
C653 C 0.48742 0.23474 0.09096 0.0
C654 C 0.48955 0.27194 0.03064 0.0
C655 C 0.51022 0.29214 0.07955 0.0
C656 C 0.51777 0.28311 0.13658 0.0
C657 C 0.50574 0.25448 0.14228 0.0
C658 C 0.47972 0.28048 0.97105 0.0
C659 C 0.54049 0.30391 0.18881 0.0
C660 C 0.57246 0.36554 0.02911 0.0
C661 C 0.56686 0.38213 0.06844 0.0
C662 C 0.55327 0.33604 0.02937 0.0
C663 C 0.52718 0.32289 0.06756 0.0
C664 C 0.52016 0.3397 0.10245 0.0
C665 C 0.54057 0.36924 0.10416 0.0
C666 C 0.56221 0.31906 0.99331 0.0
C667 C 0.49178 0.32649 0.14044 0.0
H668 H 0.46462 0.22822 0.9964 0.0
H669 H 0.51257 0.24792 0.1847 0.0
H670 H 0.47773 0.29776 0.98581 0.0
H671 H 0.49621 0.28823 0.93036 0.0
H672 H 0.45824 0.26235 0.94974 0.0
H673 H 0.54352 0.29332 0.23062 0.0
H674 H 0.56201 0.31828 0.16404 0.0
H675 H 0.53407 0.31713 0.21121 0.0
H676 H 0.59294 0.37565 0.00182 0.0
H677 H 0.53618 0.3822 0.13395 0.0
H678 H 0.54452 0.30328 0.9576 0.0
H679 H 0.56565 0.30733 0.03098 0.0
H680 H 0.58281 0.33254 0.96444 0.0
H681 H 0.4732 0.30814 0.11111 0.0
H682 H 0.48657 0.34189 0.15108 0.0
H683 H 0.49364 0.31872 0.1896 0.0
loop_
_geom_bond_atom_site_label_1
_geom_bond_atom_site_label_2
_geom_bond_distance
_geom_bond_site_symmetry_2
_ccdc_geom_bond_type
Co0 O3 1.970 . S
Co0 N17 1.989 . S
Co0 O25 1.967 . S
Co0 O32 1.920 1_554 S
Co1 O4 1.966 . S
Co1 N10 2.022 . S
Co1 N18 1.993 . S
Co1 O26 1.941 . S
C2 O3 1.258 . S
C2 O4 1.263 . S
O3 Co0 1.970 . S
O3 C2 1.258 . S
O4 Co1 1.966 . S
O4 C2 1.263 . S
C5 O6 1.235 . S
C5 O32 1.289 . S
O6 C5 1.235 . S
C7 C9 1.400 . S
C7 N10 1.351 . S
C7 C12 1.501 . S
C8 C9 1.387 . S
C8 N11 1.341 . S
C9 C7 1.400 . S
C9 C8 1.387 . S
N10 Co1 2.022 . S
N10 C7 1.351 . S
N10 N11 1.365 . S
N11 C8 1.341 . S
N11 N10 1.365 . S
N11 H31 0.862 . S
C12 C7 1.501 . S
C12 H13 0.961 . S
C12 H14 0.961 . S
C12 H15 0.960 . S
H13 C12 0.961 . S
H14 C12 0.961 . S
H15 C12 0.960 . S
C16 N17 1.342 . S
C16 C20 1.401 . S
C16 C21 1.499 1_554 S
N17 Co0 1.989 . S
N17 C16 1.342 . S
N17 N18 1.388 . S
N18 Co1 1.993 . S
N18 N17 1.388 . S
N18 C19 1.346 . S
C19 N18 1.346 . S
C19 C20 1.396 . S
C19 C29 1.510 . S
C20 C16 1.401 . S
C20 C19 1.396 . S
C21 C16 1.499 1_556 S
C21 H22 0.959 . S
C21 H23 0.960 . S
C21 H24 0.961 . S
H22 C21 0.959 . S
H23 C21 0.960 . S
H24 C21 0.961 . S
O25 Co0 1.967 . S
O25 C33 1.258 . S
O26 Co1 1.941 . S
O26 C33 1.266 . S
H27 C29 0.959 . S
H28 C29 0.961 . S
C29 C19 1.510 . S
C29 H27 0.959 . S
C29 H28 0.961 . S
C29 H30 0.960 . S
H30 C29 0.960 . S
H31 N11 0.862 . S
O32 Co0 1.920 1_556 S
O32 C5 1.289 . S
C33 O25 1.258 . S
C33 O26 1.266 . S
Co34 O37 1.970 . S
Co34 N51 1.989 . S
Co34 O59 1.967 . S
Co34 O66 1.920 . S
Co35 O38 1.966 1_556 S
Co35 N44 2.022 . S
Co35 N52 1.993 1_556 S
Co35 O60 1.941 1_556 S
C36 O37 1.258 . S
C36 O38 1.263 . S
O37 Co34 1.970 . S
O37 C36 1.258 . S
O38 Co35 1.966 1_554 S
O38 C36 1.263 . S
C39 O40 1.235 . S
C39 O66 1.289 . S
O40 C39 1.235 . S
C41 C43 1.400 . S
C41 N44 1.351 . S
C41 C46 1.501 . S
C42 C43 1.387 . S
C42 N45 1.341 . S
C43 C41 1.400 . S
C43 C42 1.387 . S
N44 Co35 2.022 . S
N44 C41 1.351 . S
N44 N45 1.365 . S
N45 C42 1.341 . S
N45 N44 1.365 . S
N45 H65 0.862 . S
C46 C41 1.501 . S
C46 H47 0.961 . S
C46 H48 0.961 . S
C46 H49 0.960 . S
H47 C46 0.961 . S
H48 C46 0.961 . S
H49 C46 0.960 . S
C50 N51 1.342 . S
C50 C54 1.401 . S
C50 C55 1.499 . S
N51 Co34 1.989 . S
N51 C50 1.342 . S
N51 N52 1.388 . S
N52 Co35 1.993 1_554 S
N52 N51 1.388 . S
N52 C53 1.346 . S
C53 N52 1.346 . S
C53 C54 1.396 . S
C53 C63 1.510 1_554 S
C54 C50 1.401 . S
C54 C53 1.396 . S
C55 C50 1.499 . S
C55 H56 0.959 . S
C55 H57 0.960 . S
C55 H58 0.961 . S
H56 C55 0.959 . S
H57 C55 0.960 . S
H58 C55 0.961 . S
O59 Co34 1.967 . S
O59 C67 1.258 . S
O60 Co35 1.941 1_554 S
O60 C67 1.266 . S
H61 C63 0.959 . S
H62 C63 0.961 . S
C63 C53 1.510 1_556 S
C63 H61 0.959 . S
C63 H62 0.961 . S
C63 H64 0.960 . S
H64 C63 0.960 . S
H65 N45 0.862 . S
O66 Co34 1.920 . S
O66 C39 1.289 . S
C67 O59 1.258 . S
C67 O60 1.266 . S
Co68 O71 1.970 . S
Co68 N85 1.989 . S
Co68 O93 1.967 . S
Co68 O100 1.920 1_554 S
Co69 O72 1.966 . S
Co69 N78 2.022 . S
Co69 N86 1.993 . S
Co69 O94 1.941 . S
C70 O71 1.258 . S
C70 O72 1.263 . S
O71 Co68 1.970 . S
O71 C70 1.258 . S
O72 Co69 1.966 . S
O72 C70 1.263 . S
C73 O74 1.235 . S
C73 O100 1.289 . S
O74 C73 1.235 . S
C75 C77 1.400 . S
C75 N78 1.351 . S
C75 C80 1.501 . S
C76 C77 1.387 . S
C76 N79 1.341 . S
C77 C75 1.400 . S
C77 C76 1.387 . S
N78 Co69 2.022 . S
N78 C75 1.351 . S
N78 N79 1.365 . S
N79 C76 1.341 . S
N79 N78 1.365 . S
N79 H99 0.862 . S
C80 C75 1.501 . S
C80 H81 0.961 . S
C80 H82 0.961 . S
C80 H83 0.960 . S
H81 C80 0.961 . S
H82 C80 0.961 . S
H83 C80 0.960 . S
C84 N85 1.342 . S
C84 C88 1.401 . S
C84 C89 1.499 1_554 S
N85 Co68 1.989 . S
N85 C84 1.342 . S
N85 N86 1.388 . S
N86 Co69 1.993 . S
N86 N85 1.388 . S
N86 C87 1.346 . S
C87 N86 1.346 . S
C87 C88 1.396 . S
C87 C97 1.510 . S
C88 C84 1.401 . S
C88 C87 1.396 . S
C89 C84 1.499 1_556 S
C89 H90 0.959 . S
C89 H91 0.960 . S
C89 H92 0.961 . S
H90 C89 0.959 . S
H91 C89 0.960 . S
H92 C89 0.961 . S
O93 Co68 1.967 . S
O93 C101 1.258 . S
O94 Co69 1.941 . S
O94 C101 1.266 . S
H95 C97 0.959 . S
H96 C97 0.961 . S
C97 C87 1.510 . S
C97 H95 0.959 . S
C97 H96 0.961 . S
C97 H98 0.960 . S
H98 C97 0.960 . S
H99 N79 0.862 . S
O100 Co68 1.920 1_556 S
O100 C73 1.289 . S
C101 O93 1.258 . S
C101 O94 1.266 . S
Co102 O105 1.970 . S
Co102 N119 1.989 . S
Co102 O127 1.967 . S
Co102 O134 1.920 . S
Co103 O106 1.966 . S
Co103 N112 2.022 1_554 S
Co103 N120 1.993 . S
Co103 O128 1.941 . S
C104 O105 1.258 . S
C104 O106 1.263 . S
O105 Co102 1.970 . S
O105 C104 1.258 . S
O106 Co103 1.966 . S
O106 C104 1.263 . S
C107 O108 1.235 . S
C107 O134 1.289 . S
O108 C107 1.235 . S
C109 C111 1.400 . S
C109 N112 1.351 . S
C109 C114 1.501 . S
C110 C111 1.387 . S
C110 N113 1.341 . S
C111 C109 1.400 . S
C111 C110 1.387 . S
N112 Co103 2.022 1_556 S
N112 C109 1.351 . S
N112 N113 1.365 . S
N113 C110 1.341 . S
N113 N112 1.365 . S
N113 H133 0.862 . S
C114 C109 1.501 . S
C114 H115 0.961 . S
C114 H116 0.961 . S
C114 H117 0.960 . S
H115 C114 0.961 . S
H116 C114 0.961 . S
H117 C114 0.960 . S
C118 N119 1.342 . S
C118 C122 1.401 . S
C118 C123 1.499 . S
N119 Co102 1.989 . S
N119 C118 1.342 . S
N119 N120 1.388 . S
N120 Co103 1.993 . S
N120 N119 1.388 . S
N120 C121 1.346 . S
C121 N120 1.346 . S
C121 C122 1.396 . S
C121 C131 1.510 1_554 S
C122 C118 1.401 . S
C122 C121 1.396 . S
C123 C118 1.499 . S
C123 H124 0.959 . S
C123 H125 0.960 . S
C123 H126 0.961 . S
H124 C123 0.959 . S
H125 C123 0.960 . S
H126 C123 0.961 . S
O127 Co102 1.967 . S
O127 C135 1.258 . S
O128 Co103 1.941 . S
O128 C135 1.266 . S
H129 C131 0.959 . S
H130 C131 0.961 . S
C131 C121 1.510 1_556 S
C131 H129 0.959 . S
C131 H130 0.961 . S
C131 H132 0.960 . S
H132 C131 0.960 . S
H133 N113 0.862 . S
O134 Co102 1.920 . S
O134 C107 1.289 . S
C135 O127 1.258 . S
C135 O128 1.266 . S
Co136 O139 1.970 . S
Co136 N153 1.989 . S
Co136 O161 1.967 . S
Co136 O168 1.920 . S
Co137 O140 1.966 . S
Co137 N146 2.022 . S
Co137 N154 1.993 1_556 S
Co137 O162 1.941 . S
C138 O139 1.258 . S
C138 O140 1.263 1_554 S
O139 Co136 1.970 . S
O139 C138 1.258 . S
O140 Co137 1.966 . S
O140 C138 1.263 1_556 S
C141 O142 1.235 . S
C141 O168 1.289 . S
O142 C141 1.235 . S
C143 C145 1.400 . S
C143 N146 1.351 . S
C143 C148 1.501 . S
C144 C145 1.387 . S
C144 N147 1.341 . S
C145 C143 1.400 . S
C145 C144 1.387 . S
N146 Co137 2.022 . S
N146 C143 1.351 . S
N146 N147 1.365 . S
N147 C144 1.341 . S
N147 N146 1.365 . S
N147 H167 0.862 . S
C148 C143 1.501 . S
C148 H149 0.961 . S
C148 H150 0.961 . S
C148 H151 0.960 . S
H149 C148 0.961 . S
H150 C148 0.961 . S
H151 C148 0.960 . S
C152 N153 1.342 . S
C152 C156 1.401 . S
C152 C157 1.499 . S
N153 Co136 1.989 . S
N153 C152 1.342 . S
N153 N154 1.388 . S
N154 Co137 1.993 1_554 S
N154 N153 1.388 . S
N154 C155 1.346 1_554 S
C155 N154 1.346 1_556 S
C155 C156 1.396 1_556 S
C155 C165 1.510 . S
C156 C152 1.401 . S
C156 C155 1.396 1_554 S
C157 C152 1.499 . S
C157 H158 0.959 . S
C157 H159 0.960 . S
C157 H160 0.961 . S
H158 C157 0.959 . S
H159 C157 0.960 . S
H160 C157 0.961 . S
O161 Co136 1.967 . S
O161 C169 1.258 . S
O162 Co137 1.941 . S
O162 C169 1.266 1_556 S
H163 C165 0.959 . S
H164 C165 0.961 . S
C165 C155 1.510 . S
C165 H163 0.959 . S
C165 H164 0.961 . S
C165 H166 0.960 . S
H166 C165 0.960 . S
H167 N147 0.862 . S
O168 Co136 1.920 . S
O168 C141 1.289 . S
C169 O161 1.258 . S
C169 O162 1.266 1_554 S
Co170 O173 1.970 . S
Co170 N187 1.989 . S
Co170 O195 1.967 . S
Co170 O202 1.920 . S
Co171 O174 1.966 . S
Co171 N180 2.022 1_554 S
Co171 N188 1.993 . S
Co171 O196 1.941 . S
C172 O173 1.258 . S
C172 O174 1.263 . S
O173 Co170 1.970 . S
O173 C172 1.258 . S
O174 Co171 1.966 . S
O174 C172 1.263 . S
C175 O176 1.235 . S
C175 O202 1.289 . S
O176 C175 1.235 . S
C177 C179 1.400 . S
C177 N180 1.351 . S
C177 C182 1.501 . S
C178 C179 1.387 . S
C178 N181 1.341 . S
C179 C177 1.400 . S
C179 C178 1.387 . S
N180 Co171 2.022 1_556 S
N180 C177 1.351 . S
N180 N181 1.365 . S
N181 C178 1.341 . S
N181 N180 1.365 . S
N181 H201 0.862 . S
C182 C177 1.501 . S
C182 H183 0.961 . S
C182 H184 0.961 . S
C182 H185 0.960 . S
H183 C182 0.961 . S
H184 C182 0.961 . S
H185 C182 0.960 . S
C186 N187 1.342 . S
C186 C190 1.401 . S
C186 C191 1.499 . S
N187 Co170 1.989 . S
N187 C186 1.342 . S
N187 N188 1.388 . S
N188 Co171 1.993 . S
N188 N187 1.388 . S
N188 C189 1.346 . S
C189 N188 1.346 . S
C189 C190 1.396 . S
C189 C199 1.510 1_554 S
C190 C186 1.401 . S
C190 C189 1.396 . S
C191 C186 1.499 . S
C191 H192 0.959 . S
C191 H193 0.960 . S
C191 H194 0.961 . S
H192 C191 0.959 . S
H193 C191 0.960 . S
H194 C191 0.961 . S
O195 Co170 1.967 . S
O195 C203 1.258 . S
O196 Co171 1.941 . S
O196 C203 1.266 . S
H197 C199 0.959 . S
H198 C199 0.961 . S
C199 C189 1.510 1_556 S
C199 H197 0.959 . S
C199 H198 0.961 . S
C199 H200 0.960 . S
H200 C199 0.960 . S
H201 N181 0.862 . S
O202 Co170 1.920 . S
O202 C175 1.289 . S
C203 O195 1.258 . S
C203 O196 1.266 . S
C204 C205 1.391 . S
C204 C206 1.394 . S
C204 H220 0.931 . S
C205 C204 1.391 . S
C205 C209 1.376 . S
C206 C204 1.394 . S
C206 C207 1.369 . S
C206 C210 1.531 . S
C207 C206 1.369 . S
C207 C208 1.410 . S
C207 C215 1.503 1_455 S
C208 C207 1.410 . S
C208 C209 1.392 . S
C208 C211 1.511 . S
C209 C205 1.376 . S
C209 C208 1.392 . S
C209 H221 0.929 . S
C210 C206 1.531 . S
C210 H222 0.960 1_455 S
C210 H223 0.962 1_455 S
C210 H224 0.960 . S
C211 C208 1.511 . S
C211 H225 0.961 1_554 S
C211 H226 0.961 1_454 S
C211 H227 0.961 . S
C212 C213 1.370 . S
C212 C214 1.363 . S
C212 H228 0.931 . S
C213 C212 1.370 . S
C213 C217 1.408 . S
C214 C212 1.363 . S
C214 C215 1.370 . S
C214 C218 1.524 . S
C215 C207 1.503 1_655 S
C215 C214 1.370 . S
C215 C216 1.403 . S
C216 C215 1.403 . S
C216 C217 1.404 . S
C216 C219 1.539 . S
C217 C213 1.408 . S
C217 C216 1.404 . S
C217 H229 0.930 . S
C218 C214 1.524 . S
C218 H230 0.956 . S
C218 H231 0.961 1_554 S
C218 H232 0.961 1_554 S
C219 C216 1.539 . S
C219 H233 0.958 . S
C219 H234 0.961 . S
C219 H235 0.954 1_655 S
H220 C204 0.931 . S
H221 C209 0.929 . S
H222 C210 0.960 1_655 S
H223 C210 0.962 1_655 S
H224 C210 0.960 . S
H225 C211 0.961 1_556 S
H226 C211 0.961 1_656 S
H227 C211 0.961 . S
H228 C212 0.931 . S
H229 C217 0.930 . S
H230 C218 0.956 . S
H231 C218 0.961 1_556 S
H232 C218 0.961 1_556 S
H233 C219 0.958 . S
H234 C219 0.961 . S
H235 C219 0.954 1_455 S
C236 C237 1.391 . S
C236 C238 1.394 . S
C236 H252 0.931 . S
C237 C236 1.391 . S
C237 C241 1.376 . S
C238 C236 1.394 . S
C238 C239 1.369 . S
C238 C242 1.531 . S
C239 C238 1.369 . S
C239 C240 1.410 . S
C239 C247 1.503 1_565 S
C240 C239 1.410 . S
C240 C241 1.392 . S
C240 C243 1.511 1_554 S
C241 C237 1.376 . S
C241 C240 1.392 . S
C241 H253 0.929 1_554 S
C242 C238 1.531 . S
C242 H254 0.960 . S
C242 H255 0.962 . S
C242 H256 0.960 . S
C243 C240 1.511 1_556 S
C243 H257 0.961 . S
C243 H258 0.961 1_565 S
C243 H259 0.961 1_565 S
C244 C245 1.370 . S
C244 C246 1.363 . S
C244 H260 0.931 . S
C245 C244 1.370 . S
C245 C249 1.408 . S
C246 C244 1.363 . S
C246 C247 1.370 . S
C246 C250 1.524 1_544 S
C247 C239 1.503 1_545 S
C247 C246 1.370 . S
C247 C248 1.403 . S
C248 C247 1.403 . S
C248 C249 1.404 . S
C248 C251 1.539 . S
C249 C245 1.408 . S
C249 C248 1.404 . S
C249 H261 0.930 . S
C250 C246 1.524 1_566 S
C250 H262 0.956 1_556 S
C250 H263 0.961 . S
C250 H264 0.961 . S
C251 C248 1.539 . S
C251 H265 0.958 . S
C251 H266 0.961 . S
C251 H267 0.960 . S
H252 C236 0.931 . S
H253 C241 0.929 1_556 S
H254 C242 0.960 . S
H255 C242 0.962 . S
H256 C242 0.960 . S
H257 C243 0.961 . S
H258 C243 0.961 1_545 S
H259 C243 0.961 1_545 S
H260 C244 0.931 . S
H261 C249 0.930 . S
H262 C250 0.956 1_554 S
H263 C250 0.961 . S
H264 C250 0.961 . S
H265 C251 0.958 . S
H266 C251 0.961 . S
H267 C251 0.960 . S
C268 C269 1.391 . S
C268 C270 1.394 . S
C268 H284 0.931 . S
C269 C268 1.391 . S
C269 C273 1.376 . S
C270 C268 1.394 . S
C270 C271 1.369 . S
C270 C274 1.531 . S
C271 C270 1.369 . S
C271 C272 1.410 . S
C271 C279 1.503 . S
C272 C271 1.410 . S
C272 C273 1.392 . S
C272 C275 1.511 . S
C273 C269 1.376 . S
C273 C272 1.392 . S
C273 H285 0.929 . S
C274 C270 1.531 . S
C274 H286 0.960 . S
C274 H287 0.962 . S
C274 H288 0.960 . S
C275 C272 1.511 . S
C275 H289 0.961 . S
C275 H290 0.961 . S
C275 H291 0.961 . S
C276 C277 1.370 . S
C276 C278 1.363 . S
C276 H292 0.931 . S
C277 C276 1.370 . S
C277 C281 1.408 . S
C278 C276 1.363 . S
C278 C279 1.370 . S
C278 C282 1.524 1_554 S
C279 C271 1.503 . S
C279 C278 1.370 . S
C279 C280 1.403 . S
C280 C279 1.403 . S
C280 C281 1.404 . S
C280 C283 1.539 . S
C281 C277 1.408 . S
C281 C280 1.404 . S
C281 H293 0.930 . S
C282 C278 1.524 1_556 S
C282 H294 0.956 . S
C282 H295 0.961 . S
C282 H296 0.961 . S
C283 C280 1.539 . S
C283 H297 0.958 . S
C283 H298 0.961 . S
C283 H299 0.960 . S
H284 C268 0.931 . S
H285 C273 0.929 . S
H286 C274 0.960 . S
H287 C274 0.962 . S
H288 C274 0.960 . S
H289 C275 0.961 . S
H290 C275 0.961 . S
H291 C275 0.961 . S
H292 C276 0.931 . S
H293 C281 0.930 . S
H294 C282 0.956 . S
H295 C282 0.961 . S
H296 C282 0.961 . S
H297 C283 0.958 . S
H298 C283 0.961 . S
H299 C283 0.960 . S
C300 C301 1.391 . S
C300 C302 1.394 . S
C300 H316 0.931 . S
C301 C300 1.391 . S
C301 C305 1.376 . S
C302 C300 1.394 . S
C302 C303 1.369 . S
C302 C306 1.531 . S
C303 C302 1.369 . S
C303 C304 1.410 . S
C303 C311 1.503 . S
C304 C303 1.410 . S
C304 C305 1.392 . S
C304 C307 1.511 . S
C305 C301 1.376 . S
C305 C304 1.392 . S
C305 H317 0.929 . S
C306 C302 1.531 . S
C306 H318 0.960 . S
C306 H319 0.962 . S
C306 H320 0.960 . S
C307 C304 1.511 . S
C307 H321 0.961 . S
C307 H322 0.961 . S
C307 H323 0.961 . S
C308 C309 1.370 . S
C308 C310 1.363 . S
C308 H324 0.931 . S
C309 C308 1.370 . S
C309 C313 1.408 . S
C310 C308 1.363 . S
C310 C311 1.370 . S
C310 C314 1.524 . S
C311 C303 1.503 . S
C311 C310 1.370 . S
C311 C312 1.403 . S
C312 C311 1.403 . S
C312 C313 1.404 . S
C312 C315 1.539 . S
C313 C309 1.408 . S
C313 C312 1.404 . S
C313 H325 0.930 . S
C314 C310 1.524 . S
C314 H326 0.956 . S
C314 H327 0.961 . S
C314 H328 0.961 . S
C315 C312 1.539 . S
C315 H329 0.958 . S
C315 H330 0.961 . S
C315 H331 0.960 . S
H316 C300 0.931 . S
H317 C305 0.929 . S
H318 C306 0.960 . S
H319 C306 0.962 . S
H320 C306 0.960 . S
H321 C307 0.961 . S
H322 C307 0.961 . S
H323 C307 0.961 . S
H324 C308 0.931 . S
H325 C313 0.930 . S
H326 C314 0.956 . S
H327 C314 0.961 . S
H328 C314 0.961 . S
H329 C315 0.958 . S
H330 C315 0.961 . S
H331 C315 0.960 . S
C332 C333 1.391 . S
C332 C334 1.394 . S
C332 H348 0.931 . S
C333 C332 1.391 . S
C333 C337 1.376 . S
C334 C332 1.394 . S
C334 C335 1.369 . S
C334 C338 1.531 . S
C335 C334 1.369 . S
C335 C336 1.410 . S
C335 C343 1.503 . S
C336 C335 1.410 . S
C336 C337 1.392 . S
C336 C339 1.511 . S
C337 C333 1.376 . S
C337 C336 1.392 . S
C337 H349 0.929 . S
C338 C334 1.531 . S
C338 H350 0.960 . S
C338 H351 0.962 . S
C338 H352 0.960 . S
C339 C336 1.511 . S
C339 H353 0.961 . S
C339 H354 0.961 . S
C339 H355 0.961 . S
C340 C341 1.370 . S
C340 C342 1.363 . S
C340 H356 0.931 . S
C341 C340 1.370 . S
C341 C345 1.408 . S
C342 C340 1.363 . S
C342 C343 1.370 . S
C342 C346 1.524 . S
C343 C335 1.503 . S
C343 C342 1.370 . S
C343 C344 1.403 . S
C344 C343 1.403 . S
C344 C345 1.404 . S
C344 C347 1.539 . S
C345 C341 1.408 . S
C345 C344 1.404 . S
C345 H357 0.930 . S
C346 C342 1.524 . S
C346 H358 0.956 . S
C346 H359 0.961 . S
C346 H360 0.961 . S
C347 C344 1.539 . S
C347 H361 0.958 . S
C347 H362 0.961 . S
C347 H363 0.960 . S
H348 C332 0.931 . S
H349 C337 0.929 . S
H350 C338 0.960 . S
H351 C338 0.962 . S
H352 C338 0.960 . S
H353 C339 0.961 . S
H354 C339 0.961 . S
H355 C339 0.961 . S
H356 C340 0.931 . S
H357 C345 0.930 . S
H358 C346 0.956 . S
H359 C346 0.961 . S
H360 C346 0.961 . S
H361 C347 0.958 . S
H362 C347 0.961 . S
H363 C347 0.960 . S
C364 C365 1.391 . S
C364 C366 1.394 . S
C364 H380 0.931 . S
C365 C364 1.391 . S
C365 C369 1.376 . S
C366 C364 1.394 . S
C366 C367 1.369 . S
C366 C370 1.531 . S
C367 C366 1.369 . S
C367 C368 1.410 . S
C367 C375 1.503 . S
C368 C367 1.410 . S
C368 C369 1.392 . S
C368 C371 1.511 . S
C369 C365 1.376 . S
C369 C368 1.392 . S
C369 H381 0.929 . S
C370 C366 1.531 . S
C370 H382 0.960 . S
C370 H383 0.962 . S
C370 H384 0.960 . S
C371 C368 1.511 . S
C371 H385 0.961 . S
C371 H386 0.961 . S
C371 H387 0.961 . S
C372 C373 1.370 . S
C372 C374 1.363 . S
C372 H388 0.931 . S
C373 C372 1.370 . S
C373 C377 1.408 . S
C374 C372 1.363 . S
C374 C375 1.370 . S
C374 C378 1.524 . S
C375 C367 1.503 . S
C375 C374 1.370 . S
C375 C376 1.403 . S
C376 C375 1.403 . S
C376 C377 1.404 . S
C376 C379 1.539 . S
C377 C373 1.408 . S
C377 C376 1.404 . S
C377 H389 0.930 . S
C378 C374 1.524 . S
C378 H390 0.956 . S
C378 H391 0.961 . S
C378 H392 0.961 . S
C379 C376 1.539 . S
C379 H393 0.958 . S
C379 H394 0.961 . S
C379 H395 0.960 . S
H380 C364 0.931 . S
H381 C369 0.929 . S
H382 C370 0.960 . S
H383 C370 0.962 . S
H384 C370 0.960 . S
H385 C371 0.961 . S
H386 C371 0.961 . S
H387 C371 0.961 . S
H388 C372 0.931 . S
H389 C377 0.930 . S
H390 C378 0.956 . S
H391 C378 0.961 . S
H392 C378 0.961 . S
H393 C379 0.958 . S
H394 C379 0.961 . S
H395 C379 0.960 . S
C396 C397 1.391 . S
C396 C398 1.394 . S
C396 H412 0.931 . S
C397 C396 1.391 . S
C397 C401 1.376 . S
C398 C396 1.394 . S
C398 C399 1.369 . S
C398 C402 1.531 . S
C399 C398 1.369 . S
C399 C400 1.410 . S
C399 C407 1.503 . S
C400 C399 1.410 . S
C400 C401 1.392 . S
C400 C403 1.511 . S
C401 C397 1.376 . S
C401 C400 1.392 . S
C401 H413 0.929 . S
C402 C398 1.531 . S
C402 H414 0.960 . S
C402 H415 0.962 . S
C402 H416 0.960 . S
C403 C400 1.511 . S
C403 H417 0.961 . S
C403 H418 0.961 . S
C403 H419 0.961 . S
C404 C405 1.370 . S
C404 C406 1.363 . S
C404 H420 0.931 . S
C405 C404 1.370 . S
C405 C409 1.408 . S
C406 C404 1.363 . S
C406 C407 1.370 . S
C406 C410 1.524 . S
C407 C399 1.503 . S
C407 C406 1.370 . S
C407 C408 1.403 . S
C408 C407 1.403 . S
C408 C409 1.404 . S
C408 C411 1.539 . S
C409 C405 1.408 . S
C409 C408 1.404 . S
C409 H421 0.930 . S
C410 C406 1.524 . S
C410 H422 0.956 . S
C410 H423 0.961 . S
C410 H424 0.961 . S
C411 C408 1.539 . S
C411 H425 0.958 . S
C411 H426 0.961 . S
C411 H427 0.960 . S
H412 C396 0.931 . S
H413 C401 0.929 . S
H414 C402 0.960 . S
H415 C402 0.962 . S
H416 C402 0.960 . S
H417 C403 0.961 . S
H418 C403 0.961 . S
H419 C403 0.961 . S
H420 C404 0.931 . S
H421 C409 0.930 . S
H422 C410 0.956 . S
H423 C410 0.961 . S
H424 C410 0.961 . S
H425 C411 0.958 . S
H426 C411 0.961 . S
H427 C411 0.960 . S
C428 C429 1.391 . S
C428 C430 1.394 . S
C428 H444 0.931 . S
C429 C428 1.391 . S
C429 C433 1.376 . S
C430 C428 1.394 . S
C430 C431 1.369 . S
C430 C434 1.531 . S
C431 C430 1.369 . S
C431 C432 1.410 . S
C431 C439 1.503 . S
C432 C431 1.410 . S
C432 C433 1.392 . S
C432 C435 1.511 . S
C433 C429 1.376 . S
C433 C432 1.392 . S
C433 H445 0.929 . S
C434 C430 1.531 . S
C434 H446 0.960 . S
C434 H447 0.962 . S
C434 H448 0.960 . S
C435 C432 1.511 . S
C435 H449 0.961 . S
C435 H450 0.961 . S
C435 H451 0.961 . S
C436 C437 1.370 . S
C436 C438 1.363 . S
C436 H452 0.931 . S
C437 C436 1.370 . S
C437 C441 1.408 . S
C438 C436 1.363 . S
C438 C439 1.370 . S
C438 C442 1.524 . S
C439 C431 1.503 . S
C439 C438 1.370 . S
C439 C440 1.403 . S
C440 C439 1.403 . S
C440 C441 1.404 . S
C440 C443 1.539 . S
C441 C437 1.408 . S
C441 C440 1.404 . S
C441 H453 0.930 . S
C442 C438 1.524 . S
C442 H454 0.956 . S
C442 H455 0.961 . S
C442 H456 0.961 . S
C443 C440 1.539 . S
C443 H457 0.958 . S
C443 H458 0.961 . S
C443 H459 0.960 . S
H444 C428 0.931 . S
H445 C433 0.929 . S
H446 C434 0.960 . S
H447 C434 0.962 . S
H448 C434 0.960 . S
H449 C435 0.961 . S
H450 C435 0.961 . S
H451 C435 0.961 . S
H452 C436 0.931 . S
H453 C441 0.930 . S
H454 C442 0.956 . S
H455 C442 0.961 . S
H456 C442 0.961 . S
H457 C443 0.958 . S
H458 C443 0.961 . S
H459 C443 0.960 . S
C460 C461 1.391 . S
C460 C462 1.394 . S
C460 H476 0.931 . S
C461 C460 1.391 . S
C461 C465 1.376 . S
C462 C460 1.394 . S
C462 C463 1.369 . S
C462 C466 1.531 . S
C463 C462 1.369 . S
C463 C464 1.410 . S
C463 C471 1.503 . S
C464 C463 1.410 . S
C464 C465 1.392 . S
C464 C467 1.511 . S
C465 C461 1.376 . S
C465 C464 1.392 . S
C465 H477 0.929 . S
C466 C462 1.531 . S
C466 H478 0.960 . S
C466 H479 0.962 . S
C466 H480 0.960 . S
C467 C464 1.511 . S
C467 H481 0.961 . S
C467 H482 0.961 . S
C467 H483 0.961 . S
C468 C469 1.370 . S
C468 C470 1.363 . S
C468 H484 0.931 . S
C469 C468 1.370 . S
C469 C473 1.408 . S
C470 C468 1.363 . S
C470 C471 1.370 . S
C470 C474 1.524 . S
C471 C463 1.503 . S
C471 C470 1.370 . S
C471 C472 1.403 . S
C472 C471 1.403 . S
C472 C473 1.404 . S
C472 C475 1.539 . S
C473 C469 1.408 . S
C473 C472 1.404 . S
C473 H485 0.930 . S
C474 C470 1.524 . S
C474 H486 0.956 . S
C474 H487 0.961 . S
C474 H488 0.961 . S
C475 C472 1.539 . S
C475 H489 0.958 . S
C475 H490 0.961 . S
C475 H491 0.960 . S
H476 C460 0.931 . S
H477 C465 0.929 . S
H478 C466 0.960 . S
H479 C466 0.962 . S
H480 C466 0.960 . S
H481 C467 0.961 . S
H482 C467 0.961 . S
H483 C467 0.961 . S
H484 C468 0.931 . S
H485 C473 0.930 . S
H486 C474 0.956 . S
H487 C474 0.961 . S
H488 C474 0.961 . S
H489 C475 0.958 . S
H490 C475 0.961 . S
H491 C475 0.960 . S
C492 C493 1.391 . S
C492 C494 1.394 . S
C492 H508 0.931 . S
C493 C492 1.391 . S
C493 C497 1.376 . S
C494 C492 1.394 . S
C494 C495 1.369 . S
C494 C498 1.531 . S
C495 C494 1.369 . S
C495 C496 1.410 . S
C495 C503 1.503 . S
C496 C495 1.410 . S
C496 C497 1.392 . S
C496 C499 1.511 . S
C497 C493 1.376 . S
C497 C496 1.392 . S
C497 H509 0.929 . S
C498 C494 1.531 . S
C498 H510 0.960 . S
C498 H511 0.962 . S
C498 H512 0.960 . S
C499 C496 1.511 . S
C499 H513 0.961 . S
C499 H514 0.961 . S
C499 H515 0.961 . S
C500 C501 1.370 . S
C500 C502 1.363 . S
C500 H516 0.931 . S
C501 C500 1.370 . S
C501 C505 1.408 . S
C502 C500 1.363 . S
C502 C503 1.370 . S
C502 C506 1.524 . S
C503 C495 1.503 . S
C503 C502 1.370 . S
C503 C504 1.403 . S
C504 C503 1.403 . S
C504 C505 1.404 . S
C504 C507 1.539 1_554 S
C505 C501 1.408 . S
C505 C504 1.404 . S
C505 H517 0.930 1_554 S
C506 C502 1.524 . S
C506 H518 0.956 . S
C506 H519 0.961 . S
C506 H520 0.961 . S
C507 C504 1.539 1_556 S
C507 H521 0.958 . S
C507 H522 0.961 . S
C507 H523 0.960 . S
H508 C492 0.931 . S
H509 C497 0.929 . S
H510 C498 0.960 . S
H511 C498 0.962 . S
H512 C498 0.960 . S
H513 C499 0.961 . S
H514 C499 0.961 . S
H515 C499 0.961 . S
H516 C500 0.931 . S
H517 C505 0.930 1_556 S
H518 C506 0.956 . S
H519 C506 0.961 . S
H520 C506 0.961 . S
H521 C507 0.958 . S
H522 C507 0.961 . S
H523 C507 0.960 . S
C524 C525 1.391 . S
C524 C526 1.394 . S
C524 H540 0.931 . S
C525 C524 1.391 . S
C525 C529 1.376 . S
C526 C524 1.394 . S
C526 C527 1.369 . S
C526 C530 1.531 . S
C527 C526 1.369 . S
C527 C528 1.410 . S
C527 C535 1.503 . S
C528 C527 1.410 . S
C528 C529 1.392 . S
C528 C531 1.511 . S
C529 C525 1.376 . S
C529 C528 1.392 . S
C529 H541 0.929 . S
C530 C526 1.531 . S
C530 H542 0.960 . S
C530 H543 0.962 . S
C530 H544 0.960 . S
C531 C528 1.511 . S
C531 H545 0.971 . S
C531 H546 0.961 . S
C531 H547 0.961 . S
C532 C533 1.370 . S
C532 C534 1.363 . S
C532 H548 0.931 . S
C533 C532 1.370 . S
C533 C537 1.408 . S
C534 C532 1.363 . S
C534 C535 1.370 . S
C534 C538 1.524 1_554 S
C535 C527 1.503 . S
C535 C534 1.370 . S
C535 C536 1.403 . S
C536 C535 1.403 . S
C536 C537 1.404 . S
C536 C539 1.539 . S
C537 C533 1.408 . S
C537 C536 1.404 . S
C537 H549 0.930 . S
C538 C534 1.524 1_556 S
C538 H550 0.956 1_556 S
C538 H551 0.961 . S
C538 H552 0.961 . S
C539 C536 1.539 . S
C539 H553 0.958 . S
C539 H554 0.961 . S
C539 H555 0.960 . S
H540 C524 0.931 . S
H541 C529 0.929 . S
H542 C530 0.960 . S
H543 C530 0.962 . S
H544 C530 0.960 . S
H545 C531 0.971 . S
H546 C531 0.961 . S
H547 C531 0.961 . S
H548 C532 0.931 . S
H549 C537 0.930 . S
H550 C538 0.956 1_554 S
H551 C538 0.961 . S
H552 C538 0.961 . S
H553 C539 0.958 . S
H554 C539 0.961 . S
H555 C539 0.960 . S
C556 C557 1.391 . S
C556 C558 1.394 . S
C556 H572 0.931 . S
C557 C556 1.391 . S
C557 C561 1.376 . S
C558 C556 1.394 . S
C558 C559 1.369 . S
C558 C562 1.531 . S
C559 C558 1.369 . S
C559 C560 1.410 . S
C559 C567 1.503 . S
C560 C559 1.410 . S
C560 C561 1.392 . S
C560 C563 1.511 . S
C561 C557 1.376 . S
C561 C560 1.392 . S
C561 H573 0.929 . S
C562 C558 1.531 . S
C562 H574 0.960 . S
C562 H575 0.962 . S
C562 H576 0.960 . S
C563 C560 1.511 . S
C563 H577 0.961 . S
C563 H578 0.961 . S
C563 H579 0.961 . S
C564 C565 1.370 . S
C564 C566 1.363 . S
C564 H580 0.931 1_554 S
C565 C564 1.370 . S
C565 C569 1.408 . S
C566 C564 1.363 . S
C566 C567 1.370 . S
C566 C570 1.524 1_554 S
C567 C559 1.503 . S
C567 C566 1.370 . S
C567 C568 1.403 . S
C568 C567 1.403 . S
C568 C569 1.404 . S
C568 C571 1.539 . S
C569 C565 1.408 . S
C569 C568 1.404 . S
C569 H581 0.930 . S
C570 C566 1.524 1_556 S
C570 H582 0.956 . S
C570 H583 0.961 . S
C570 H584 0.961 . S
C571 C568 1.539 . S
C571 H585 0.958 . S
C571 H586 0.961 . S
C571 H587 0.960 . S
H572 C556 0.931 . S
H573 C561 0.929 . S
H574 C562 0.960 . S
H575 C562 0.962 . S
H576 C562 0.960 . S
H577 C563 0.961 . S
H578 C563 0.961 . S
H579 C563 0.961 . S
H580 C564 0.931 1_556 S
H581 C569 0.930 . S
H582 C570 0.956 . S
H583 C570 0.961 . S
H584 C570 0.961 . S
H585 C571 0.958 . S
H586 C571 0.961 . S
H587 C571 0.960 . S
C588 C589 1.391 . S
C588 C590 1.394 . S
C588 H604 0.931 . S
C589 C588 1.391 . S
C589 C593 1.376 . S
C590 C588 1.394 . S
C590 C591 1.369 . S
C590 C594 1.531 . S
C591 C590 1.369 . S
C591 C592 1.410 . S
C591 C599 1.503 . S
C592 C591 1.410 . S
C592 C593 1.392 . S
C592 C595 1.511 . S
C593 C589 1.376 . S
C593 C592 1.392 . S
C593 H605 0.929 . S
C594 C590 1.531 . S
C594 H606 0.960 . S
C594 H607 0.962 . S
C594 H608 0.960 . S
C595 C592 1.511 . S
C595 H609 0.961 . S
C595 H610 0.961 . S
C595 H611 0.961 . S
C596 C597 1.370 . S
C596 C598 1.363 . S
C596 H612 0.931 . S
C597 C596 1.370 . S
C597 C601 1.408 . S
C598 C596 1.363 . S
C598 C599 1.370 . S
C598 C602 1.524 1_554 S
C599 C591 1.503 . S
C599 C598 1.370 . S
C599 C600 1.403 . S
C600 C599 1.403 . S
C600 C601 1.404 . S
C600 C603 1.539 . S
C601 C597 1.408 . S
C601 C600 1.404 . S
C601 H613 0.930 . S
C602 C598 1.524 1_556 S
C602 H614 0.956 . S
C602 H615 0.961 1_556 S
C602 H616 0.961 . S
C603 C600 1.539 . S
C603 H617 0.958 . S
C603 H618 0.961 . S
C603 H619 0.960 . S
H604 C588 0.931 . S
H605 C593 0.929 . S
H606 C594 0.960 . S
H607 C594 0.962 . S
H608 C594 0.960 . S
H609 C595 0.961 . S
H610 C595 0.961 . S
H611 C595 0.961 . S
H612 C596 0.931 . S
H613 C601 0.930 . S
H614 C602 0.956 . S
H615 C602 0.961 1_554 S
H616 C602 0.961 . S
H617 C603 0.958 . S
H618 C603 0.961 . S
H619 C603 0.960 . S
C620 C621 1.391 . S
C620 C622 1.394 . S
C620 H636 0.931 . S
C621 C620 1.391 . S
C621 C625 1.376 . S
C622 C620 1.394 . S
C622 C623 1.369 . S
C622 C626 1.531 . S
C623 C622 1.369 . S
C623 C624 1.410 . S
C623 C631 1.503 . S
C624 C623 1.410 . S
C624 C625 1.392 . S
C624 C627 1.511 . S
C625 C621 1.376 . S
C625 C624 1.392 . S
C625 H637 0.929 . S
C626 C622 1.531 . S
C626 H638 0.960 . S
C626 H639 0.962 . S
C626 H640 0.960 . S
C627 C624 1.511 . S
C627 H641 0.961 . S
C627 H642 0.961 . S
C627 H643 0.961 . S
C628 C629 1.370 . S
C628 C630 1.363 . S
C628 H644 0.931 . S
C629 C628 1.370 . S
C629 C633 1.408 1_554 S
C630 C628 1.363 . S
C630 C631 1.370 . S
C630 C634 1.524 . S
C631 C623 1.503 . S
C631 C630 1.370 . S
C631 C632 1.403 1_554 S
C632 C631 1.403 1_556 S
C632 C633 1.404 . S
C632 C635 1.539 . S
C633 C629 1.408 1_556 S
C633 C632 1.404 . S
C633 H645 0.930 . S
C634 C630 1.524 . S
C634 H646 0.956 . S
C634 H647 0.961 . S
C634 H648 0.961 . S
C635 C632 1.539 . S
C635 H649 0.958 . S
C635 H650 0.961 . S
C635 H651 0.960 . S
H636 C620 0.931 . S
H637 C625 0.929 . S
H638 C626 0.960 . S
H639 C626 0.962 . S
H640 C626 0.960 . S
H641 C627 0.961 . S
H642 C627 0.961 . S
H643 C627 0.961 . S
H644 C628 0.931 . S
H645 C633 0.930 . S
H646 C634 0.956 . S
H647 C634 0.961 . S
H648 C634 0.961 . S
H649 C635 0.958 . S
H650 C635 0.961 . S
H651 C635 0.960 . S
C652 C653 1.391 . S
C652 C654 1.394 . S
C652 H668 0.931 . S
C653 C652 1.391 . S
C653 C657 1.376 . S
C654 C652 1.394 . S
C654 C655 1.369 . S
C654 C658 1.531 . S
C655 C654 1.369 . S
C655 C656 1.410 . S
C655 C663 1.503 . S
C656 C655 1.410 . S
C656 C657 1.392 . S
C656 C659 1.511 . S
C657 C653 1.376 . S
C657 C656 1.392 . S
C657 H669 0.929 . S
C658 C654 1.531 . S
C658 H670 0.960 . S
C658 H671 0.962 1_554 S
C658 H672 0.960 . S
C659 C656 1.511 . S
C659 H673 0.961 . S
C659 H674 0.961 . S
C659 H675 0.961 . S
C660 C661 1.370 . S
C660 C662 1.363 . S
C660 H676 0.931 . S
C661 C660 1.370 . S
C661 C665 1.408 . S
C662 C660 1.363 . S
C662 C663 1.370 . S
C662 C666 1.524 1_554 S
C663 C655 1.503 . S
C663 C662 1.370 . S
C663 C664 1.403 . S
C664 C663 1.403 . S
C664 C665 1.404 . S
C664 C667 1.539 . S
C665 C661 1.408 . S
C665 C664 1.404 . S
C665 H677 0.930 . S
C666 C662 1.524 1_556 S
C666 H678 0.956 . S
C666 H679 0.961 1_556 S
C666 H680 0.961 . S
C667 C664 1.539 . S
C667 H681 0.958 . S
C667 H682 0.961 . S
C667 H683 0.960 . S
H668 C652 0.931 . S
H669 C657 0.929 . S
H670 C658 0.960 . S
H671 C658 0.962 1_556 S
H672 C658 0.960 . S
H673 C659 0.961 . S
H674 C659 0.961 . S
H675 C659 0.961 . S
H676 C660 0.931 . S
H677 C665 0.930 . S
H678 C666 0.956 . S
H679 C666 0.961 1_554 S
H680 C666 0.961 . S
H681 C667 0.958 . S
H682 C667 0.961 . S
H683 C667 0.960 . S
C205 C20 1.306 . S
C213 C122 1.308 . S
C237 C156 1.453 . S
C245 C54 1.443 . S
C269 C190 1.324 . S
C277 C88 1.329 . S
C301 C9 1.447 . S
C309 C5 1.489 . S
C333 C39 1.497 . S
C341 C43 1.392 . S
C365 C73 1.484 . S
C373 C77 1.412 . S
C397 C111 1.385 . S
C405 C107 1.499 . S
C429 C141 1.487 . S
C437 C145 1.393 . S
C461 C175 1.504 . S
C469 C179 1.396 . S
C493 C2 1.019 . S
C501 C101 1.049 . S
C525 C67 1.132 . S
C533 C104 1.105 . S
C557 C70 1.067 . S
C565 C138 1.066 . S
C589 C135 0.920 . S
C597 C172 0.903 . S
C621 C33 0.903 . S
C629 C169 0.888 . S
C653 C36 1.239 . S
C661 C203 1.284 . S
