# Generated by pormake.
# Topology gsi, (4)-cn, num edge types: 1
# Building blocks:
#     Node 0, Type 0, BuildingBlock: QUQFOY_clean_sbu_3, # of connection points: 4
#     Node 1, Type 0, BuildingBlock: QUQFOY_clean_sbu_3, # of connection points: 4
#     Node 2, Type 0, BuildingBlock: QUQFOY_clean_sbu_3, # of connection points: 4
#     Node 3, Type 0, BuildingBlock: QUQFOY_clean_sbu_3, # of connection points: 4
#     Node 4, Type 0, BuildingBlock: QUQFOY_clean_sbu_3, # of connection points: 4
#     Node 5, Type 0, BuildingBlock: QUQFOY_clean_sbu_3, # of connection points: 4
#     Node 6, Type 0, BuildingBlock: QUQFOY_clean_sbu_3, # of connection points: 4
#     Node 7, Type 0, BuildingBlock: QUQFOY_clean_sbu_3, # of connection points: 4
#     Node 8, Type 0, BuildingBlock: QUQFOY_clean_sbu_3, # of connection points: 4
#     Node 9, Type 0, BuildingBlock: QUQFOY_clean_sbu_3, # of connection points: 4
#     Node 10, Type 0, BuildingBlock: QUQFOY_clean_sbu_3, # of connection points: 4
#     Node 11, Type 0, BuildingBlock: QUQFOY_clean_sbu_3, # of connection points: 4
#     Node 12, Type 0, BuildingBlock: QUQFOY_clean_sbu_3, # of connection points: 4
#     Node 13, Type 0, BuildingBlock: QUQFOY_clean_sbu_3, # of connection points: 4
#     Node 14, Type 0, BuildingBlock: QUQFOY_clean_sbu_3, # of connection points: 4
#     Node 15, Type 0, BuildingBlock: QUQFOY_clean_sbu_3, # of connection points: 4
#     Edge 16, Type (0, 0), BuildingBlock: MIFKUJ_clean_linker_0, # of connection points: 2
#     Edge 17, Type (0, 0), BuildingBlock: MIFKUJ_clean_linker_0, # of connection points: 2
#     Edge 18, Type (0, 0), BuildingBlock: MIFKUJ_clean_linker_0, # of connection points: 2
#     Edge 19, Type (0, 0), BuildingBlock: MIFKUJ_clean_linker_0, # of connection points: 2
#     Edge 20, Type (0, 0), BuildingBlock: MIFKUJ_clean_linker_0, # of connection points: 2
#     Edge 21, Type (0, 0), BuildingBlock: MIFKUJ_clean_linker_0, # of connection points: 2
#     Edge 22, Type (0, 0), BuildingBlock: MIFKUJ_clean_linker_0, # of connection points: 2
#     Edge 23, Type (0, 0), BuildingBlock: MIFKUJ_clean_linker_0, # of connection points: 2
#     Edge 24, Type (0, 0), BuildingBlock: MIFKUJ_clean_linker_0, # of connection points: 2
#     Edge 25, Type (0, 0), BuildingBlock: MIFKUJ_clean_linker_0, # of connection points: 2
#     Edge 26, Type (0, 0), BuildingBlock: MIFKUJ_clean_linker_0, # of connection points: 2
#     Edge 27, Type (0, 0), BuildingBlock: MIFKUJ_clean_linker_0, # of connection points: 2
#     Edge 28, Type (0, 0), BuildingBlock: MIFKUJ_clean_linker_0, # of connection points: 2
#     Edge 29, Type (0, 0), BuildingBlock: MIFKUJ_clean_linker_0, # of connection points: 2
#     Edge 30, Type (0, 0), BuildingBlock: MIFKUJ_clean_linker_0, # of connection points: 2
#     Edge 31, Type (0, 0), BuildingBlock: MIFKUJ_clean_linker_0, # of connection points: 2
#     Edge 32, Type (0, 0), BuildingBlock: MIFKUJ_clean_linker_0, # of connection points: 2
#     Edge 33, Type (0, 0), BuildingBlock: MIFKUJ_clean_linker_0, # of connection points: 2
#     Edge 34, Type (0, 0), BuildingBlock: MIFKUJ_clean_linker_0, # of connection points: 2
#     Edge 35, Type (0, 0), BuildingBlock: MIFKUJ_clean_linker_0, # of connection points: 2
#     Edge 36, Type (0, 0), BuildingBlock: MIFKUJ_clean_linker_0, # of connection points: 2
#     Edge 37, Type (0, 0), BuildingBlock: MIFKUJ_clean_linker_0, # of connection points: 2
#     Edge 38, Type (0, 0), BuildingBlock: MIFKUJ_clean_linker_0, # of connection points: 2
#     Edge 39, Type (0, 0), BuildingBlock: MIFKUJ_clean_linker_0, # of connection points: 2
#     Edge 40, Type (0, 0), BuildingBlock: MIFKUJ_clean_linker_0, # of connection points: 2
#     Edge 41, Type (0, 0), BuildingBlock: MIFKUJ_clean_linker_0, # of connection points: 2
#     Edge 42, Type (0, 0), BuildingBlock: MIFKUJ_clean_linker_0, # of connection points: 2
#     Edge 43, Type (0, 0), BuildingBlock: MIFKUJ_clean_linker_0, # of connection points: 2
#     Edge 44, Type (0, 0), BuildingBlock: MIFKUJ_clean_linker_0, # of connection points: 2
#     Edge 45, Type (0, 0), BuildingBlock: MIFKUJ_clean_linker_0, # of connection points: 2
#     Edge 46, Type (0, 0), BuildingBlock: MIFKUJ_clean_linker_0, # of connection points: 2
#     Edge 47, Type (0, 0), BuildingBlock: MIFKUJ_clean_linker_0, # of connection points: 2
# Relax obj value: 0.141
# Max RMSD: 0.123
# Mean RMSD: 0.120
data_MOF--net-gsi--node1-QUQFOY_clean_sbu_3--edge1-MIFKUJ_clean_linker_0
_symmetry_space_group_name_H-M    P1
_symmetry_Int_Tables_number       1
_symmetry_cell_setting            triclinic
loop_
_symmetry_equiv_pos_as_xyz
'x, y, z'
_cell_length_a     59.567302
_cell_length_b     48.26782
_cell_length_c     58.717355
_cell_angle_alpha  89.93175
_cell_angle_beta   90.068083
_cell_angle_gamma 90.077656
loop_
_atom_site_label
_atom_site_type_symbol
_atom_site_fract_x
_atom_site_fract_y
_atom_site_fract_z
_atom_type_partial_charge
C0 C 0.09794 0.19378 0.13623 0.0
O1 O 0.10402 0.2002 0.15628 0.0
Cd2 Cd 0.13911 0.19196 0.17438 0.0
O3 O 0.11089 0.18009 0.12311 0.0
Cd4 Cd 0.14883 0.15853 0.12818 0.0
C5 C 0.13559 0.12153 0.17591 0.0
O6 O 0.16612 0.19903 0.14533 0.0
O7 O 0.18649 0.16243 0.1457 0.0
O8 O 0.15696 0.1661 0.08784 0.0
C9 C 0.1848 0.18804 0.15 0.0
O10 O 0.13774 0.14411 0.18687 0.0
C11 C 0.16424 0.14179 0.08422 0.0
O12 O 0.13676 0.12115 0.15423 0.0
O13 O 0.16314 0.12483 0.10072 0.0
C14 C 0.87998 0.29909 0.12811 0.0
O15 O 0.87133 0.28863 0.14593 0.0
Cd16 Cd 0.83524 0.2962 0.16192 0.0
O17 O 0.86909 0.31652 0.11602 0.0
Cd18 Cd 0.83106 0.33839 0.11921 0.0
C19 C 0.84125 0.36571 0.17183 0.0
O20 O 0.81077 0.29691 0.13009 0.0
O21 O 0.79236 0.33473 0.13378 0.0
O22 O 0.82559 0.3382 0.078 0.0
C23 C 0.79245 0.30855 0.13511 0.0
O24 O 0.83791 0.34156 0.17991 0.0
C25 C 0.81939 0.36333 0.07674 0.0
O26 O 0.84137 0.36988 0.15037 0.0
O27 O 0.82013 0.37732 0.09503 0.0
C28 C 0.09583 0.79852 0.35529 0.0
O29 O 0.1004 0.79099 0.33511 0.0
Cd30 Cd 0.13195 0.80374 0.31289 0.0
O31 O 0.10866 0.81536 0.36589 0.0
Cd32 Cd 0.14504 0.83926 0.3567 0.0
C33 C 0.12595 0.87423 0.31016 0.0
O34 O 0.16212 0.79888 0.33925 0.0
O35 O 0.18127 0.83642 0.33625 0.0
O36 O 0.15609 0.8324 0.39628 0.0
C37 C 0.18012 0.81052 0.33308 0.0
O38 O 0.12619 0.85107 0.29984 0.0
C39 C 0.16337 0.85684 0.39936 0.0
O40 O 0.13075 0.8757 0.33129 0.0
O41 O 0.16104 0.87368 0.3829 0.0
C42 C 0.89713 0.67427 0.35976 0.0
O43 O 0.89554 0.68052 0.33881 0.0
Cd44 Cd 0.86301 0.67699 0.31526 0.0
O45 O 0.88072 0.66323 0.37036 0.0
Cd46 Cd 0.84268 0.64687 0.35853 0.0
C47 C 0.85806 0.60684 0.31332 0.0
O48 O 0.83199 0.68946 0.33872 0.0
O49 O 0.80878 0.65538 0.33599 0.0
O50 O 0.82776 0.65736 0.39608 0.0
C51 C 0.81307 0.68063 0.33205 0.0
O52 O 0.86089 0.62939 0.30246 0.0
C53 C 0.81952 0.63348 0.39965 0.0
O54 O 0.85326 0.6071 0.33447 0.0
O55 O 0.82308 0.61523 0.38453 0.0
C56 C 0.3856 0.80755 0.62977 0.0
O57 O 0.38021 0.79923 0.64956 0.0
Cd58 Cd 0.34627 0.80678 0.6698 0.0
O59 O 0.37235 0.82288 0.61822 0.0
Cd60 Cd 0.33455 0.84376 0.62552 0.0
C61 C 0.34917 0.87736 0.67436 0.0
O62 O 0.31841 0.80179 0.64132 0.0
O63 O 0.2975 0.83774 0.64385 0.0
O64 O 0.32633 0.83857 0.58504 0.0
C65 C 0.29976 0.81196 0.64712 0.0
O66 O 0.34804 0.85386 0.68415 0.0
C67 C 0.31766 0.86241 0.58263 0.0
O68 O 0.34692 0.87947 0.65282 0.0
O69 O 0.31803 0.87823 0.59989 0.0
C70 C 0.87392 0.78428 0.87705 0.0
O71 O 0.85821 0.76648 0.87642 0.0
Cd72 Cd 0.82179 0.77397 0.8608 0.0
O73 O 0.87094 0.80865 0.86915 0.0
Cd74 Cd 0.84008 0.83518 0.85032 0.0
C75 C 0.80369 0.82788 0.89441 0.0
O76 O 0.82881 0.79711 0.82585 0.0
O77 O 0.80701 0.83274 0.82521 0.0
O78 O 0.86693 0.85525 0.82377 0.0
C79 C 0.81219 0.80935 0.81697 0.0
O80 O 0.80193 0.80289 0.88774 0.0
C81 C 0.86136 0.88027 0.82705 0.0
O82 O 0.81752 0.8444 0.88486 0.0
O83 O 0.84676 0.88472 0.84237 0.0
C84 C 0.10117 0.70243 0.87555 0.0
O85 O 0.11547 0.72193 0.87477 0.0
Cd86 Cd 0.1533 0.71667 0.86276 0.0
O87 O 0.10638 0.67804 0.86905 0.0
Cd88 Cd 0.13966 0.65414 0.85217 0.0
C89 C 0.17199 0.66475 0.89866 0.0
O90 O 0.15125 0.69215 0.82773 0.0
O91 O 0.17494 0.65856 0.83088 0.0
O92 O 0.11721 0.6334 0.82225 0.0
C93 C 0.16928 0.68092 0.82108 0.0
O94 O 0.17183 0.68996 0.89226 0.0
C95 C 0.12172 0.60842 0.82704 0.0
O96 O 0.16098 0.6464 0.88772 0.0
O97 O 0.13374 0.60419 0.84461 0.0
C98 C 0.87731 0.20039 0.62337 0.0
O99 O 0.86097 0.21691 0.626 0.0
Cd100 Cd 0.82523 0.20426 0.6408 0.0
O101 O 0.8753 0.17483 0.62859 0.0
Cd102 Cd 0.84477 0.14513 0.64477 0.0
C103 C 0.8085 0.15549 0.60189 0.0
O104 O 0.83256 0.17724 0.67383 0.0
O105 O 0.80851 0.14548 0.66548 0.0
O106 O 0.87049 0.12272 0.67109 0.0
C107 C 0.81469 0.16457 0.67892 0.0
O108 O 0.80471 0.17841 0.61187 0.0
C109 C 0.86541 0.09804 0.66583 0.0
O110 O 0.82424 0.13958 0.60858 0.0
O111 O 0.85168 0.09493 0.64943 0.0
C112 C 0.1013 0.2986 0.61388 0.0
O113 O 0.11616 0.27979 0.61416 0.0
Cd114 Cd 0.15366 0.28634 0.62751 0.0
O115 O 0.10589 0.32297 0.62089 0.0
Cd116 Cd 0.13871 0.34805 0.63733 0.0
C117 C 0.17274 0.33823 0.59212 0.0
O118 O 0.1511 0.31084 0.6626 0.0
O119 O 0.17384 0.34536 0.65883 0.0
O120 O 0.11396 0.36915 0.66516 0.0
C121 C 0.16888 0.323 0.66898 0.0
O122 O 0.17362 0.31334 0.59924 0.0
C123 C 0.11985 0.39398 0.66142 0.0
O124 O 0.15987 0.3558 0.60169 0.0
O125 O 0.13373 0.3979 0.64529 0.0
C126 C 0.61281 0.21093 0.37699 0.0
O127 O 0.62847 0.22867 0.37508 0.0
Cd128 Cd 0.66456 0.2195 0.35915 0.0
O129 O 0.61572 0.18592 0.37058 0.0
Cd130 Cd 0.64637 0.15811 0.35275 0.0
C131 C 0.68414 0.16921 0.39531 0.0
O132 O 0.65517 0.19448 0.32549 0.0
O133 O 0.67686 0.15888 0.32419 0.0
O134 O 0.61702 0.13326 0.33208 0.0
C135 C 0.67076 0.18166 0.31545 0.0
O136 O 0.68615 0.19354 0.38718 0.0
C137 C 0.62545 0.10936 0.3349 0.0
O138 O 0.66978 0.15239 0.38708 0.0
O139 O 0.6428 0.10789 0.34743 0.0
C140 C 0.59151 0.6896 0.62566 0.0
O141 O 0.59663 0.69776 0.64555 0.0
Cd142 Cd 0.63055 0.68914 0.66578 0.0
O143 O 0.60488 0.67445 0.61419 0.0
Cd144 Cd 0.64239 0.65308 0.62142 0.0
C145 C 0.62651 0.61833 0.66921 0.0
O146 O 0.65996 0.69335 0.63876 0.0
O147 O 0.67852 0.65527 0.64134 0.0
O148 O 0.65345 0.66266 0.58256 0.0
C149 C 0.67778 0.68117 0.64484 0.0
O150 O 0.62737 0.64174 0.67913 0.0
C151 C 0.65942 0.63814 0.57776 0.0
O152 O 0.62963 0.61642 0.64776 0.0
O153 O 0.65633 0.61983 0.59301 0.0
C154 C 0.59516 0.30502 0.86143 0.0
O155 O 0.59971 0.29577 0.84174 0.0
Cd156 Cd 0.63071 0.30757 0.81845 0.0
O157 O 0.60777 0.32311 0.87086 0.0
Cd158 Cd 0.64391 0.3463 0.8594 0.0
C159 C 0.62362 0.37775 0.8123 0.0
O160 O 0.66169 0.30507 0.84392 0.0
O161 O 0.67773 0.3435 0.8352 0.0
O162 O 0.65711 0.34306 0.89869 0.0
C163 C 0.67831 0.31728 0.83509 0.0
O164 O 0.62492 0.35401 0.80295 0.0
C165 C 0.6646 0.36765 0.89972 0.0
O166 O 0.62765 0.38061 0.83349 0.0
O167 O 0.66139 0.38287 0.88238 0.0
C168 C 0.39384 0.18823 0.86327 0.0
O169 O 0.39255 0.19559 0.84255 0.0
Cd170 Cd 0.3609 0.19112 0.81788 0.0
O171 O 0.37768 0.17557 0.87301 0.0
Cd172 Cd 0.34047 0.15741 0.86 0.0
C173 C 0.35942 0.12065 0.81424 0.0
O174 O 0.32865 0.19999 0.84076 0.0
O175 O 0.3068 0.16472 0.83705 0.0
O176 O 0.32662 0.16433 0.89875 0.0
C177 C 0.31035 0.19018 0.83329 0.0
O178 O 0.36168 0.14384 0.80417 0.0
C179 C 0.31722 0.14078 0.90035 0.0
O180 O 0.35369 0.11958 0.83515 0.0
O181 O 0.31953 0.12446 0.88358 0.0
C182 C 0.38548 0.29894 0.3789 0.0
O183 O 0.37079 0.27989 0.3798 0.0
Cd184 Cd 0.33314 0.28424 0.36729 0.0
O185 O 0.38045 0.32286 0.37107 0.0
Cd186 Cd 0.34569 0.34521 0.35497 0.0
C187 C 0.31479 0.33584 0.40267 0.0
O188 O 0.33619 0.30577 0.33068 0.0
O189 O 0.31117 0.33776 0.33278 0.0
O190 O 0.37106 0.3721 0.33034 0.0
C191 C 0.31807 0.31592 0.32317 0.0
O192 O 0.31404 0.31051 0.39673 0.0
C193 C 0.35949 0.39414 0.3311 0.0
O194 O 0.32613 0.35333 0.39119 0.0
O195 O 0.34246 0.3939 0.34403 0.0
C196 C 0.38396 0.7005 0.11427 0.0
O197 O 0.36855 0.71855 0.11552 0.0
Cd198 Cd 0.33214 0.71037 0.13044 0.0
O199 O 0.38038 0.67563 0.12079 0.0
Cd200 Cd 0.34754 0.64949 0.13691 0.0
C201 C 0.31305 0.66173 0.09252 0.0
O202 O 0.33745 0.68466 0.16476 0.0
O203 O 0.31236 0.65338 0.15877 0.0
O204 O 0.37365 0.62395 0.16121 0.0
C205 C 0.31927 0.67337 0.17086 0.0
O206 O 0.31134 0.68577 0.10121 0.0
C207 C 0.36471 0.60038 0.15817 0.0
O208 O 0.32666 0.64409 0.10089 0.0
O209 O 0.34867 0.59924 0.14392 0.0
C210 C 0.60652 0.80267 0.12394 0.0
O211 O 0.62146 0.7842 0.12653 0.0
Cd212 Cd 0.65889 0.79204 0.13812 0.0
O213 O 0.61085 0.82812 0.12814 0.0
Cd214 Cd 0.64406 0.85518 0.14323 0.0
C215 C 0.6756 0.83947 0.09728 0.0
O216 O 0.65433 0.82006 0.17099 0.0
O217 O 0.67875 0.85235 0.16639 0.0
O218 O 0.61691 0.88257 0.16507 0.0
C219 C 0.6724 0.83128 0.17751 0.0
O220 O 0.6765 0.81533 0.10599 0.0
C221 C 0.62734 0.90536 0.16287 0.0
O222 O 0.66416 0.85857 0.10669 0.0
O223 O 0.64459 0.90519 0.15021 0.0
H224 H 0.18105 0.2393 0.16893 0.0
H225 H 0.20669 0.26134 0.19573 0.0
H226 H 0.25215 0.19218 0.1898 0.0
H227 H 0.22615 0.16956 0.16335 0.0
H228 H 0.24507 0.20392 0.23283 0.0
H229 H 0.26475 0.25704 0.1671 0.0
H230 H 0.25808 0.28594 0.13312 0.0
H231 H 0.22778 0.34863 0.17477 0.0
H232 H 0.23399 0.31994 0.20898 0.0
H233 H 0.32939 0.2692 0.29979 0.0
H234 H 0.30909 0.24782 0.26817 0.0
H235 H 0.25824 0.31115 0.27252 0.0
H236 H 0.27862 0.33292 0.30398 0.0
H237 H 0.27073 0.30162 0.22881 0.0
H238 H 0.24881 0.24694 0.29386 0.0
H239 H 0.25529 0.21793 0.32784 0.0
H240 H 0.29001 0.15804 0.28696 0.0
H241 H 0.28399 0.18689 0.25277 0.0
C242 C 0.19664 0.22893 0.17307 0.0
C243 C 0.20156 0.20264 0.16411 0.0
C244 C 0.21136 0.24164 0.18832 0.0
C245 C 0.23145 0.22854 0.19461 0.0
C246 C 0.23673 0.20265 0.18516 0.0
C247 C 0.22191 0.18979 0.17002 0.0
C248 C 0.24605 0.24098 0.21233 0.0
C249 C 0.25107 0.22511 0.23172 0.0
C250 C 0.25339 0.26885 0.21114 0.0
C251 C 0.2497 0.28622 0.1906 0.0
C252 C 0.25652 0.2769 0.169 0.0
C253 C 0.25284 0.29326 0.1497 0.0
C254 C 0.24247 0.31908 0.15178 0.0
C255 C 0.2358 0.32862 0.17318 0.0
C256 C 0.23943 0.31233 0.19254 0.0
C257 C 0.31386 0.27854 0.29406 0.0
C258 C 0.30553 0.30267 0.30442 0.0
C259 C 0.30227 0.26627 0.27602 0.0
C260 C 0.28208 0.27778 0.26815 0.0
C261 C 0.2738 0.30197 0.27836 0.0
C262 C 0.28541 0.31429 0.29638 0.0
C263 C 0.26954 0.2646 0.24927 0.0
C264 C 0.26491 0.28034 0.22973 0.0
C265 C 0.26257 0.2366 0.25028 0.0
C266 C 0.26616 0.21922 0.27081 0.0
C267 C 0.25799 0.22769 0.29215 0.0
C268 C 0.26155 0.21126 0.31144 0.0
C269 C 0.27311 0.1862 0.30957 0.0
C270 C 0.28109 0.17748 0.28839 0.0
C271 C 0.27759 0.19385 0.26905 0.0
H272 H 0.27585 0.17351 0.32452 0.0
H273 H 0.23964 0.33172 0.13681 0.0
H274 H 0.75667 0.33051 0.15781 0.0
H275 H 0.73262 0.30672 0.1853 0.0
H276 H 0.76517 0.22925 0.16984 0.0
H277 H 0.78936 0.25285 0.1423 0.0
H278 H 0.71814 0.22444 0.17793 0.0
H279 H 0.7846 0.26312 0.21191 0.0
H280 H 0.81168 0.30066 0.21953 0.0
H281 H 0.7599 0.34837 0.25175 0.0
H282 H 0.73238 0.31132 0.24387 0.0
H283 H 0.69742 0.15495 0.28452 0.0
H284 H 0.71484 0.17483 0.25032 0.0
H285 H 0.68534 0.25416 0.26582 0.0
H286 H 0.66782 0.2345 0.29977 0.0
H287 H 0.7308 0.2572 0.25702 0.0
H288 H 0.66426 0.21924 0.22266 0.0
H289 H 0.63622 0.18403 0.21169 0.0
H290 H 0.68779 0.1355 0.17997 0.0
H291 H 0.71615 0.17041 0.19079 0.0
C292 C 0.75839 0.30831 0.15987 0.0
C293 C 0.77513 0.29359 0.14819 0.0
C294 C 0.74466 0.29479 0.1756 0.0
C295 C 0.74745 0.26638 0.17979 0.0
C296 C 0.76288 0.25122 0.16685 0.0
C297 C 0.77671 0.26476 0.15121 0.0
C298 C 0.73602 0.25319 0.19928 0.0
C299 C 0.72105 0.23131 0.19527 0.0
C300 C 0.73973 0.26253 0.2218 0.0
C301 C 0.75637 0.28456 0.22709 0.0
C302 C 0.77895 0.2817 0.22047 0.0
C303 C 0.79438 0.30289 0.22485 0.0
C304 C 0.78751 0.32692 0.23607 0.0
C305 C 0.7652 0.32976 0.24302 0.0
C306 C 0.74967 0.30867 0.23861 0.0
C307 C 0.69467 0.17661 0.28059 0.0
C308 C 0.6814 0.19324 0.29485 0.0
C309 C 0.70446 0.18786 0.261 0.0
C310 C 0.70125 0.21591 0.25554 0.0
C311 C 0.68797 0.23247 0.26974 0.0
C312 C 0.67799 0.22119 0.28912 0.0
C313 C 0.71265 0.22851 0.23572 0.0
C314 C 0.72782 0.25025 0.23971 0.0
C315 C 0.70914 0.21897 0.21323 0.0
C316 C 0.69235 0.19729 0.20775 0.0
C317 C 0.66966 0.2009 0.21358 0.0
C318 C 0.65369 0.1811 0.20724 0.0
C319 C 0.66022 0.15758 0.19509 0.0
C320 C 0.68275 0.15375 0.18935 0.0
C321 C 0.69877 0.17355 0.19554 0.0
H322 H 0.64783 0.14231 0.19015 0.0
H323 H 0.79948 0.34332 0.23942 0.0
H324 H 0.33389 0.70495 0.20617 0.0
H325 H 0.31118 0.7261 0.23628 0.0
H326 H 0.25137 0.69054 0.20691 0.0
H327 H 0.27404 0.66858 0.1771 0.0
H328 H 0.25388 0.75383 0.21698 0.0
H329 H 0.26173 0.66154 0.2487 0.0
H330 H 0.28336 0.62076 0.26127 0.0
H331 H 0.3194 0.67111 0.30925 0.0
H332 H 0.29821 0.7123 0.29668 0.0
H333 H 0.18096 0.75532 0.3237 0.0
H334 H 0.20679 0.73091 0.29849 0.0
H335 H 0.24349 0.80679 0.28719 0.0
H336 H 0.21756 0.8315 0.31231 0.0
H337 H 0.25276 0.7226 0.29757 0.0
H338 H 0.2566 0.80864 0.23048 0.0
H339 H 0.23475 0.8495 0.21832 0.0
H340 H 0.1739 0.81024 0.24066 0.0
H341 H 0.19534 0.76901 0.25265 0.0
C342 C 0.31591 0.7015 0.20624 0.0
C343 C 0.30567 0.6852 0.18935 0.0
C344 C 0.30303 0.71351 0.22343 0.0
C345 C 0.27972 0.70978 0.22369 0.0
C346 C 0.26941 0.69352 0.20689 0.0
C347 C 0.28234 0.68098 0.18998 0.0
C348 C 0.26602 0.72372 0.24108 0.0
C349 C 0.25361 0.74706 0.23461 0.0
C350 C 0.26583 0.71477 0.26399 0.0
C351 C 0.27859 0.69006 0.27154 0.0
C352 C 0.27445 0.66398 0.26174 0.0
C353 C 0.28659 0.64077 0.26891 0.0
C354 C 0.3028 0.64335 0.28599 0.0
C355 C 0.30687 0.66914 0.29598 0.0
C356 C 0.29479 0.69242 0.28885 0.0
C357 C 0.19467 0.76678 0.31604 0.0
C358 C 0.1971 0.79539 0.31974 0.0
C359 C 0.20947 0.75276 0.30175 0.0
C360 C 0.22686 0.76712 0.29083 0.0
C361 C 0.22999 0.79543 0.29531 0.0
C362 C 0.2152 0.80949 0.30966 0.0
C363 C 0.24058 0.75282 0.27351 0.0
C364 C 0.25308 0.72947 0.27998 0.0
C365 C 0.2408 0.7617 0.25054 0.0
C366 C 0.22761 0.7859 0.24265 0.0
C367 C 0.23854 0.80868 0.23266 0.0
C368 C 0.22624 0.8319 0.22583 0.0
C369 C 0.20298 0.83248 0.22881 0.0
C370 C 0.19193 0.80978 0.23844 0.0
C371 C 0.20415 0.78649 0.24527 0.0
H372 H 0.19351 0.85051 0.22364 0.0
H373 H 0.31216 0.62535 0.29154 0.0
H374 H 0.82057 0.73318 0.31652 0.0
H375 H 0.79621 0.7609 0.29193 0.0
H376 H 0.74689 0.69533 0.29211 0.0
H377 H 0.77134 0.66729 0.31634 0.0
H378 H 0.7545 0.71321 0.25009 0.0
H379 H 0.73889 0.75544 0.32225 0.0
H380 H 0.74807 0.77825 0.35865 0.0
H381 H 0.77845 0.846 0.32255 0.0
H382 H 0.76972 0.82339 0.28591 0.0
H383 H 0.66355 0.78404 0.20117 0.0
H384 H 0.68755 0.76085 0.22893 0.0
H385 H 0.73717 0.82542 0.22164 0.0
H386 H 0.71308 0.849 0.1938 0.0
H387 H 0.73024 0.80935 0.26693 0.0
H388 H 0.74537 0.76674 0.19473 0.0
H389 H 0.7355 0.74387 0.15854 0.0
H390 H 0.7054 0.67646 0.19531 0.0
H391 H 0.7148 0.69914 0.23174 0.0
C392 C 0.80446 0.72475 0.31145 0.0
C393 C 0.79788 0.69803 0.31828 0.0
C394 C 0.79052 0.74067 0.29749 0.0
C395 C 0.76967 0.73025 0.29034 0.0
C396 C 0.76293 0.70374 0.29742 0.0
C397 C 0.7769 0.68777 0.31129 0.0
C398 C 0.75531 0.74641 0.27459 0.0
C399 C 0.74894 0.73409 0.25394 0.0
C400 C 0.74861 0.77393 0.27934 0.0
C401 C 0.75386 0.78758 0.30134 0.0
C402 C 0.7477 0.77509 0.32208 0.0
C403 C 0.75278 0.788 0.34275 0.0
C404 C 0.76389 0.81352 0.34291 0.0
C405 C 0.76988 0.82621 0.32239 0.0
C406 C 0.76485 0.81337 0.30167 0.0
C407 C 0.67952 0.79343 0.20552 0.0
C408 C 0.68654 0.81822 0.19516 0.0
C409 C 0.69321 0.78011 0.22136 0.0
C410 C 0.71422 0.79127 0.22708 0.0
C411 C 0.72101 0.81649 0.21736 0.0
C412 C 0.7073 0.82984 0.20143 0.0
C413 C 0.72929 0.77598 0.24266 0.0
C414 C 0.73585 0.78847 0.26317 0.0
C415 C 0.73614 0.74856 0.23785 0.0
C416 C 0.73062 0.73477 0.21596 0.0
C417 C 0.73649 0.74714 0.1951 0.0
C418 C 0.73101 0.7342 0.17455 0.0
C419 C 0.71978 0.70876 0.17463 0.0
C420 C 0.71407 0.69618 0.19527 0.0
C421 C 0.7195 0.70906 0.21588 0.0
H422 H 0.71555 0.69877 0.15869 0.0
H423 H 0.76781 0.82349 0.35894 0.0
H424 H 0.30459 0.75916 0.66286 0.0
H425 H 0.28113 0.7353 0.69071 0.0
H426 H 0.23599 0.80514 0.69207 0.0
H427 H 0.25969 0.82943 0.66449 0.0
H428 H 0.2481 0.79023 0.73396 0.0
H429 H 0.22086 0.74299 0.6675 0.0
H430 H 0.22405 0.71619 0.63193 0.0
H431 H 0.2556 0.64959 0.66838 0.0
H432 H 0.25288 0.67616 0.70413 0.0
H433 H 0.16169 0.72978 0.79925 0.0
H434 H 0.18359 0.75036 0.7685 0.0
H435 H 0.22962 0.68148 0.77089 0.0
H436 H 0.20759 0.6605 0.80166 0.0
H437 H 0.21739 0.695 0.72715 0.0
H438 H 0.24507 0.7419 0.79323 0.0
H439 H 0.24239 0.76844 0.82898 0.0
H440 H 0.21065 0.83547 0.79325 0.0
H441 H 0.21285 0.80916 0.75732 0.0
C442 C 0.28949 0.76929 0.66882 0.0
C443 C 0.28404 0.79625 0.66162 0.0
C444 C 0.27605 0.75557 0.68468 0.0
C445 C 0.25676 0.7684 0.69338 0.0
C446 C 0.25084 0.79491 0.68558 0.0
C447 C 0.26434 0.80872 0.6698 0.0
C448 C 0.24373 0.75504 0.71183 0.0
C449 C 0.24105 0.76959 0.73232 0.0
C450 C 0.23526 0.72773 0.70994 0.0
C451 C 0.23685 0.71168 0.68846 0.0
C452 C 0.22864 0.72273 0.6679 0.0
C453 C 0.23033 0.70756 0.64771 0.0
C454 C 0.24007 0.68124 0.64788 0.0
C455 C 0.24808 0.67 0.66826 0.0
C456 C 0.24645 0.68509 0.6885 0.0
C457 C 0.17651 0.71901 0.79331 0.0
C458 C 0.18299 0.69357 0.80293 0.0
C459 C 0.18903 0.73085 0.77577 0.0
C460 C 0.20831 0.71755 0.7676 0.0
C461 C 0.21478 0.69205 0.77702 0.0
C462 C 0.20226 0.68018 0.79464 0.0
C463 C 0.22158 0.73035 0.7491 0.0
C464 C 0.2244 0.71567 0.7287 0.0
C465 C 0.23025 0.75753 0.75104 0.0
C466 C 0.22894 0.77344 0.77262 0.0
C467 C 0.23735 0.76221 0.79303 0.0
C468 C 0.23595 0.77722 0.81332 0.0
C469 C 0.2263 0.80359 0.8134 0.0
C470 C 0.21809 0.81503 0.79317 0.0
C471 C 0.21943 0.80008 0.77283 0.0
H472 H 0.22523 0.81519 0.82912 0.0
H473 H 0.24136 0.66953 0.63223 0.0
H474 H 0.71393 0.65804 0.66628 0.0
H475 H 0.73902 0.68037 0.6937 0.0
H476 H 0.70458 0.75798 0.68364 0.0
H477 H 0.67946 0.73589 0.65613 0.0
H478 H 0.75115 0.76394 0.68703 0.0
H479 H 0.6904 0.71898 0.72717 0.0
H480 H 0.66625 0.67928 0.73722 0.0
H481 H 0.72372 0.63461 0.76171 0.0
H482 H 0.74829 0.67387 0.75142 0.0
H483 H 0.7803 0.83329 0.78986 0.0
H484 H 0.75945 0.81148 0.75864 0.0
H485 H 0.79395 0.73443 0.77119 0.0
H486 H 0.81487 0.75602 0.80229 0.0
H487 H 0.7484 0.7275 0.76608 0.0
H488 H 0.80917 0.77054 0.72697 0.0
H489 H 0.83485 0.80818 0.71565 0.0
H490 H 0.77933 0.85466 0.68893 0.0
H491 H 0.75323 0.81738 0.70034 0.0
C492 C 0.71188 0.67994 0.66967 0.0
C493 C 0.69458 0.69517 0.65927 0.0
C494 C 0.72619 0.69263 0.68536 0.0
C495 C 0.72339 0.72069 0.69087 0.0
C496 C 0.70692 0.73628 0.67962 0.0
C497 C 0.69256 0.7236 0.66399 0.0
C498 C 0.73668 0.73337 0.70939 0.0
C499 C 0.75037 0.75623 0.70438 0.0
C500 C 0.73601 0.72276 0.73186 0.0
C501 C 0.72121 0.69926 0.73831 0.0
C502 C 0.69792 0.70061 0.73453 0.0
C503 C 0.68415 0.67819 0.74029 0.0
C504 C 0.69345 0.6544 0.75003 0.0
C505 C 0.71654 0.65302 0.75411 0.0
C506 C 0.73039 0.67535 0.74833 0.0
C507 C 0.78338 0.81169 0.78598 0.0
C508 C 0.79919 0.79634 0.79848 0.0
C509 C 0.77157 0.79933 0.76811 0.0
C510 C 0.77531 0.77142 0.76258 0.0
C511 C 0.79087 0.75599 0.77522 0.0
C512 C 0.80282 0.76838 0.79292 0.0
C513 C 0.7628 0.75819 0.74377 0.0
C514 C 0.74921 0.73524 0.74874 0.0
C515 C 0.76371 0.76857 0.72126 0.0
C516 C 0.77922 0.79128 0.71471 0.0
C517 C 0.80239 0.78891 0.7189 0.0
C518 C 0.81703 0.81014 0.71242 0.0
C519 C 0.80872 0.83378 0.70159 0.0
C520 C 0.78573 0.83631 0.69731 0.0
C521 C 0.77101 0.81513 0.70376 0.0
H522 H 0.82014 0.85002 0.69638 0.0
H523 H 0.68275 0.63708 0.75449 0.0
H524 H 0.70174 0.33618 0.79835 0.0
H525 H 0.72463 0.3088 0.77221 0.0
H526 H 0.71471 0.23652 0.81447 0.0
H527 H 0.69077 0.26352 0.83988 0.0
H528 H 0.76107 0.28279 0.77324 0.0
H529 H 0.71293 0.17833 0.78384 0.0
H530 H 0.67454 0.16215 0.7924 0.0
H531 H 0.6476 0.23908 0.76787 0.0
H532 H 0.68577 0.25556 0.75887 0.0
H533 H 0.82719 0.18316 0.72037 0.0
H534 H 0.80375 0.20658 0.74852 0.0
H535 H 0.74606 0.19643 0.70464 0.0
H536 H 0.7693 0.17113 0.67725 0.0
H537 H 0.73236 0.19263 0.74487 0.0
H538 H 0.77875 0.25852 0.70716 0.0
H539 H 0.81396 0.27899 0.6928 0.0
H540 H 0.83851 0.28706 0.76126 0.0
H541 H 0.80356 0.26628 0.77602 0.0
C542 C 0.70461 0.3145 0.80211 0.0
C543 C 0.69437 0.30184 0.82097 0.0
C544 C 0.71768 0.29885 0.78718 0.0
C545 C 0.72102 0.27042 0.79108 0.0
C546 C 0.71183 0.25819 0.81069 0.0
C547 C 0.69832 0.27366 0.8253 0.0
C548 C 0.73376 0.2535 0.77444 0.0
C549 C 0.75477 0.26308 0.76705 0.0
C550 C 0.7253 0.22815 0.76578 0.0
C551 C 0.70224 0.21827 0.77092 0.0
C552 C 0.6988 0.19174 0.78019 0.0
C553 C 0.67708 0.18253 0.78513 0.0
C554 C 0.65865 0.19961 0.78075 0.0
C555 C 0.66189 0.22591 0.77134 0.0
C556 C 0.68357 0.23521 0.76633 0.0
C557 C 0.80941 0.18554 0.71702 0.0
C558 C 0.79997 0.17557 0.69674 0.0
C559 C 0.79607 0.19913 0.73296 0.0
C560 C 0.77327 0.20409 0.7284 0.0
C561 C 0.76363 0.193 0.70852 0.0
C562 C 0.77686 0.17858 0.69288 0.0
C563 C 0.75978 0.22177 0.74388 0.0
C564 C 0.73865 0.21233 0.75107 0.0
C565 C 0.76762 0.24794 0.75146 0.0
C566 C 0.78862 0.26061 0.74267 0.0
C567 C 0.79171 0.26451 0.71914 0.0
C568 C 0.81162 0.27618 0.71093 0.0
C569 C 0.82848 0.28426 0.7261 0.0
C570 C 0.82545 0.28076 0.74952 0.0
C571 C 0.80558 0.26906 0.75782 0.0
H572 H 0.84388 0.29328 0.71971 0.0
H573 H 0.64185 0.19245 0.78461 0.0
H574 H 0.20724 0.34526 0.68682 0.0
H575 H 0.23133 0.3254 0.71637 0.0
H576 H 0.18784 0.25402 0.72059 0.0
H577 H 0.16348 0.27392 0.69135 0.0
H578 H 0.19928 0.27213 0.76217 0.0
H579 H 0.23755 0.25106 0.69216 0.0
H580 H 0.25506 0.26195 0.65518 0.0
H581 H 0.30286 0.31484 0.68853 0.0
H582 H 0.28542 0.30455 0.7257 0.0
H583 H 0.27016 0.1741 0.81544 0.0
H584 H 0.24616 0.20004 0.78931 0.0
H585 H 0.29234 0.26893 0.79153 0.0
H586 H 0.31662 0.24297 0.8176 0.0
H587 H 0.28025 0.25541 0.74806 0.0
H588 H 0.24306 0.27351 0.81867 0.0
H589 H 0.22547 0.26161 0.85539 0.0
H590 H 0.17555 0.21321 0.82067 0.0
H591 H 0.19304 0.22449 0.78374 0.0
C592 C 0.20282 0.32532 0.69403 0.0
C593 C 0.18353 0.31108 0.68672 0.0
C594 C 0.21662 0.31399 0.71087 0.0
C595 C 0.21147 0.28812 0.72049 0.0
C596 C 0.19209 0.27401 0.71337 0.0
C597 C 0.17825 0.28537 0.69662 0.0
C598 C 0.22627 0.27563 0.73795 0.0
C599 C 0.21693 0.26822 0.75902 0.0
C600 C 0.24942 0.2712 0.73399 0.0
C601 C 0.26002 0.27727 0.71168 0.0
C602 C 0.25168 0.26518 0.69159 0.0
C603 C 0.26161 0.27122 0.6706 0.0
C604 C 0.28001 0.28915 0.66949 0.0
C605 C 0.28857 0.301 0.6894 0.0
C606 C 0.27869 0.29506 0.71044 0.0
C607 C 0.27515 0.19485 0.8105 0.0
C608 C 0.29526 0.20651 0.81855 0.0
C609 C 0.26137 0.20968 0.79565 0.0
C610 C 0.26741 0.23647 0.78866 0.0
C611 C 0.2874 0.24828 0.79678 0.0
C612 C 0.30118 0.23347 0.81171 0.0
C613 C 0.25319 0.25164 0.77218 0.0
C614 C 0.26264 0.25955 0.75128 0.0
C615 C 0.23012 0.25639 0.77626 0.0
C616 C 0.21948 0.24967 0.79844 0.0
C617 C 0.22844 0.26015 0.81887 0.0
C618 C 0.21846 0.25355 0.83973 0.0
C619 C 0.19943 0.23662 0.84037 0.0
C620 C 0.1903 0.22631 0.82015 0.0
C621 C 0.20022 0.23283 0.79925 0.0
H622 H 0.19173 0.23153 0.85653 0.0
H623 H 0.28767 0.2938 0.65322 0.0
H624 H 0.10732 0.87851 0.26776 0.0
H625 H 0.10388 0.92008 0.24427 0.0
H626 H 0.13206 0.96917 0.29863 0.0
H627 H 0.1349 0.9278 0.32251 0.0
H628 H 0.09925 0.99674 0.27793 0.0
H629 H 0.16417 0.9436 0.25276 0.0
H630 H 0.18333 0.90223 0.23764 0.0
H631 H 0.14126 0.90416 0.17823 0.0
H632 H 0.12167 0.94531 0.19313 0.0
H633 H 0.14293 0.11264 0.2211 0.0
H634 H 0.13678 0.07028 0.24272 0.0
H635 H 0.11276 0.02946 0.18202 0.0
H636 H 0.11972 0.07176 0.15997 0.0
H637 H 0.13921 0.99644 0.20385 0.0
H638 H 0.07652 0.05105 0.22606 0.0
H639 H 0.05667 0.09253 0.23988 0.0
H640 H 0.09227 0.08772 0.30338 0.0
H641 H 0.11258 0.04642 0.28983 0.0
C642 C 0.11256 0.8982 0.27482 0.0
C643 C 0.1216 0.89981 0.29693 0.0
C644 C 0.11067 0.92194 0.26132 0.0
C645 C 0.1182 0.94765 0.26948 0.0
C646 C 0.12626 0.94953 0.29192 0.0
C647 C 0.12788 0.92585 0.30556 0.0
C648 C 0.11864 0.97238 0.25441 0.0
C649 C 0.10813 0.99676 0.26181 0.0
C650 C 0.12956 0.97216 0.23299 0.0
C651 C 0.14133 0.94735 0.22416 0.0
C652 C 0.15891 0.93507 0.23656 0.0
C653 C 0.16985 0.91168 0.22801 0.0
C654 C 0.16348 0.90056 0.207 0.0
C655 C 0.14615 0.91278 0.1945 0.0
C656 C 0.13514 0.93613 0.20298 0.0
C657 C 0.13625 0.09471 0.21231 0.0
C658 C 0.13171 0.09561 0.18882 0.0
C659 C 0.13258 0.07051 0.22477 0.0
C660 C 0.1238 0.04681 0.21415 0.0
C661 C 0.11941 0.04754 0.19063 0.0
C662 C 0.1234 0.0717 0.17804 0.0
C663 C 0.12016 0.02102 0.22752 0.0
C664 C 0.13008 0.99642 0.21983 0.0
C665 C 0.1085 0.02099 0.24855 0.0
C666 C 0.09619 0.04573 0.25685 0.0
C667 C 0.08022 0.05893 0.24292 0.0
C668 C 0.06887 0.08241 0.25071 0.0
C669 C 0.07324 0.09279 0.27248 0.0
C670 C 0.08892 0.07967 0.28652 0.0
C671 C 0.10033 0.05619 0.2788 0.0
H672 H 0.06444 0.11097 0.27847 0.0
H673 H 0.17199 0.88254 0.20033 0.0
H674 H 0.85017 0.41994 0.16124 0.0
H675 H 0.85562 0.45852 0.18757 0.0
H676 H 0.84615 0.4033 0.24458 0.0
H677 H 0.84034 0.36465 0.21842 0.0
H678 H 0.82266 0.45015 0.24998 0.0
H679 H 0.89835 0.42674 0.23086 0.0
H680 H 0.93011 0.4167 0.20528 0.0
H681 H 0.92507 0.49824 0.17642 0.0
H682 H 0.89307 0.50865 0.20162 0.0
H683 H 0.85393 0.55393 0.33024 0.0
H684 H 0.854 0.51056 0.3086 0.0
H685 H 0.86467 0.55646 0.24644 0.0
H686 H 0.86517 0.59958 0.26784 0.0
H687 H 0.8896 0.51128 0.24652 0.0
H688 H 0.812 0.53306 0.2627 0.0
H689 H 0.77979 0.54337 0.28764 0.0
H690 H 0.78816 0.4651 0.32142 0.0
H691 H 0.82062 0.45448 0.29685 0.0
C692 C 0.8493 0.41595 0.17937 0.0
C693 C 0.84489 0.38916 0.18769 0.0
C694 C 0.85254 0.43801 0.19441 0.0
C695 C 0.85158 0.43371 0.21805 0.0
C696 C 0.84704 0.40706 0.22641 0.0
C697 C 0.84379 0.38498 0.2114 0.0
C698 C 0.85471 0.4572 0.23401 0.0
C699 C 0.83748 0.46324 0.24951 0.0
C700 C 0.87387 0.47454 0.23313 0.0
C701 C 0.89319 0.46839 0.21801 0.0
C702 C 0.90391 0.44246 0.21895 0.0
C703 C 0.92197 0.43672 0.20453 0.0
C704 C 0.92957 0.4568 0.1892 0.0
C705 C 0.91915 0.48269 0.1883 0.0
C706 C 0.90107 0.48854 0.20266 0.0
C707 C 0.85647 0.55475 0.31199 0.0
C708 C 0.85941 0.58027 0.30077 0.0
C709 C 0.85642 0.52996 0.29964 0.0
C710 C 0.85904 0.5303 0.27585 0.0
C711 C 0.86262 0.55566 0.26477 0.0
C712 C 0.86282 0.58036 0.27707 0.0
C713 C 0.85738 0.5045 0.26221 0.0
C714 C 0.87489 0.49801 0.24716 0.0
C715 C 0.83844 0.48681 0.26344 0.0
C716 C 0.81888 0.49312 0.27812 0.0
C717 C 0.80707 0.51814 0.27556 0.0
C718 C 0.78875 0.52403 0.28961 0.0
C719 C 0.78198 0.50494 0.30615 0.0
C720 C 0.79346 0.47989 0.30863 0.0
C721 C 0.8118 0.47392 0.29464 0.0
H722 H 0.76779 0.50954 0.31701 0.0
H723 H 0.94355 0.45231 0.17806 0.0
H724 H 0.31356 0.16835 0.94074 0.0
H725 H 0.28657 0.15966 0.97128 0.0
H726 H 0.26055 0.08927 0.93454 0.0
H727 H 0.28765 0.09768 0.90394 0.0
H728 H 0.22726 0.1257 0.94876 0.0
H729 H 0.28926 0.07689 0.98073 0.0
H730 H 0.32848 0.07004 0.99291 0.0
H731 H 0.32239 0.13724 0.04034 0.0
H732 H 0.28321 0.14476 0.02821 0.0
H733 H 0.18611 0.09367 0.07391 0.0
H734 H 0.21012 0.0848 0.04094 0.0
H735 H 0.19318 0.16501 0.01344 0.0
H736 H 0.16907 0.17396 0.04622 0.0
H737 H 0.24708 0.11393 0.03029 0.0
H738 H 0.19683 0.16345 0.95579 0.0
H739 H 0.15748 0.16844 0.94337 0.0
H740 H 0.13953 0.09506 0.98056 0.0
H741 H 0.17882 0.08939 0.99295 0.0
C742 C 0.30233 0.15078 0.9393 0.0
C743 C 0.30273 0.1337 0.91994 0.0
C744 C 0.28694 0.14582 0.95678 0.0
C745 C 0.2716 0.1238 0.95515 0.0
C746 C 0.27226 0.10636 0.93608 0.0
C747 C 0.28782 0.11112 0.9187 0.0
C748 C 0.25416 0.12007 0.97286 0.0
C749 C 0.23154 0.12293 0.96658 0.0
C750 C 0.25978 0.11599 -0.00399 0.0
C751 C 0.28333 0.11151 0.00343 0.0
C752 C 0.29633 0.09035 0.99363 0.0
C753 C 0.31855 0.08631 0.00055 0.0
C754 C 0.32793 0.10322 0.01736 0.0
C755 C 0.3151 0.12416 0.02732 0.0
C756 C 0.29287 0.1283 0.02044 0.0
C757 C 0.18712 0.10918 0.0606 0.0
C758 C 0.17575 0.13457 0.06271 0.0
C759 C 0.20092 0.10412 0.04183 0.0
C760 C 0.20343 0.12422 0.02472 0.0
C761 C 0.1913 0.14906 0.02629 0.0
C762 C 0.17756 0.15418 0.04508 0.0
C763 C 0.22016 0.12038 0.0063 0.0
C764 C 0.2427 0.11627 0.01245 0.0
C765 C 0.21442 0.12307 0.98301 0.0
C766 C 0.19077 0.12613 0.97544 0.0
C767 C 0.18452 0.14829 0.96123 0.0
C768 C 0.16221 0.15126 0.95421 0.0
C769 C 0.146 0.13212 0.96122 0.0
C770 C 0.15208 0.10993 0.97521 0.0
C771 C 0.17437 0.10685 0.98227 0.0
H772 H 0.12874 0.13446 0.95578 0.0
H773 H 0.34514 0.10007 0.0227 0.0
H774 H 0.81608 0.33846 0.03513 0.0
H775 H 0.79174 0.35224 0.00365 0.0
H776 H 0.77359 0.42663 0.03983 0.0
H777 H 0.79789 0.41292 0.07149 0.0
H778 H 0.73724 0.39753 0.02779 0.0
H779 H 0.80176 0.43186 0.99017 0.0
H780 H 0.84061 0.43173 0.97575 0.0
H781 H 0.82521 0.36241 0.93269 0.0
H782 H 0.78634 0.36184 0.94709 0.0
H783 H 0.68995 0.4148 0.90285 0.0
H784 H 0.71699 0.42661 0.9328 0.0
H785 H 0.69801 0.35314 0.97002 0.0
H786 H 0.67103 0.34123 0.94027 0.0
H787 H 0.75329 0.39579 0.94493 0.0
H788 H 0.70338 0.36438 0.02621 0.0
H789 H 0.66455 0.36671 0.04059 0.0
H790 H 0.65101 0.43569 -0.00356 0.0
H791 H 0.68984 0.43405 0.98203 0.0
C792 C 0.80739 0.35812 0.03615 0.0
C793 C 0.80877 0.37448 0.05588 0.0
C794 C 0.79352 0.36603 0.01809 0.0
C795 C 0.78082 0.39046 0.0194 0.0
C796 C 0.78323 0.40768 0.03849 0.0
C797 C 0.79719 0.39985 0.05652 0.0
C798 C 0.76312 0.39601 0.00221 0.0
C799 C 0.74077 0.3975 0.00967 0.0
C800 C 0.76776 0.3965 0.97859 0.0
C801 C 0.79113 0.39674 0.96981 0.0
C802 C 0.80669 0.41645 0.97775 0.0
C803 C 0.82871 0.41653 0.96955 0.0
C804 C 0.83538 0.39706 0.95334 0.0
C805 C 0.82002 0.37749 0.94525 0.0
C806 C 0.79797 0.37732 0.95339 0.0
C807 C 0.69122 0.40146 0.91765 0.0
C808 C 0.67839 0.37704 0.9192 0.0
C809 C 0.70675 0.40818 0.93466 0.0
C810 C 0.70946 0.39081 0.95364 0.0
C811 C 0.69601 0.36703 0.95565 0.0
C812 C 0.68063 0.3602 0.9386 0.0
C813 C 0.72745 0.3961 0.97056 0.0
C814 C 0.74982 0.39648 0.96305 0.0
C815 C 0.72285 0.39763 0.99414 0.0
C816 C 0.69952 0.39897 0.00294 0.0
C817 C 0.69216 0.38016 0.01966 0.0
C818 C 0.67014 0.38133 0.0278 0.0
C819 C 0.65531 0.40129 0.0194 0.0
C820 C 0.66249 0.42018 0.00288 0.0
C821 C 0.6845 0.41911 -0.0053 0.0
H822 H 0.63826 0.40215 0.02571 0.0
H823 H 0.85244 0.39715 0.94702 0.0
H824 H 0.28988 0.90672 0.576 0.0
H825 H 0.264 0.91392 0.54413 0.0
H826 H 0.29103 0.84201 0.51042 0.0
H827 H 0.3169 0.83462 0.54219 0.0
H828 H 0.28061 0.88455 0.48011 0.0
H829 H 0.24672 0.83393 0.54239 0.0
H830 H 0.23529 0.82714 0.58237 0.0
H831 H 0.19461 0.90042 0.57904 0.0
H832 H 0.2061 0.90786 0.53911 0.0
H833 H 0.16982 0.82519 0.43728 0.0
H834 H 0.19572 0.83415 0.46867 0.0
H835 H 0.21187 0.91396 0.43985 0.0
H836 H 0.18608 0.90503 0.40818 0.0
H837 H 0.20056 0.87275 0.50158 0.0
H838 H 0.2691 0.9231 0.4465 0.0
H839 H 0.28109 0.92509 0.4063 0.0
H840 H 0.25293 0.84439 0.39466 0.0
H841 H 0.24106 0.84179 0.43484 0.0
C842 C 0.29069 0.89283 0.56156 0.0
C843 C 0.30527 0.86992 0.56169 0.0
C844 C 0.27585 0.89693 0.54341 0.0
C845 C 0.27544 0.87829 0.52509 0.0
C846 C 0.29109 0.85661 0.52442 0.0
C847 C 0.30581 0.85237 0.54262 0.0
C848 C 0.25732 0.87951 0.50782 0.0
C849 C 0.26308 0.88235 0.48479 0.0
C850 C 0.2345 0.87617 0.51395 0.0
C851 C 0.22748 0.87164 0.53789 0.0
C852 C 0.23549 0.84872 0.55026 0.0
C853 C 0.22898 0.84473 0.57289 0.0
C854 C 0.21429 0.86339 0.58326 0.0
C855 C 0.20603 0.88603 0.571 0.0
C856 C 0.21253 0.89014 0.54837 0.0
C857 C 0.17858 0.84486 0.4378 0.0
C858 C 0.17607 0.86428 0.42013 0.0
C859 C 0.19334 0.84998 0.45579 0.0
C860 C 0.20594 0.87454 0.45641 0.0
C861 C 0.2025 0.89472 0.43952 0.0
C862 C 0.18768 0.88962 0.4215 0.0
C863 C 0.2238 0.87786 0.47381 0.0
C864 C 0.21802 0.87571 0.49689 0.0
C865 C 0.24664 0.8813 0.46768 0.0
C866 C 0.25396 0.88243 0.44358 0.0
C867 C 0.26553 0.90577 0.43536 0.0
C868 C 0.2723 0.907 0.41259 0.0
C869 C 0.2677 0.88493 0.39792 0.0
C870 C 0.2564 0.86152 0.40602 0.0
C871 C 0.24963 0.86017 0.42878 0.0
H872 H 0.27293 0.88594 0.38029 0.0
H873 H 0.20926 0.86026 0.60079 0.0
H874 H 0.6725 0.58753 0.5611 0.0
H875 H 0.69709 0.57895 0.5284 0.0
H876 H 0.6996 0.66681 0.51477 0.0
H877 H 0.67443 0.6753 0.54652 0.0
H878 H 0.6988 0.6414 0.4767 0.0
H879 H 0.74116 0.6299 0.54682 0.0
H880 H 0.74964 0.60859 0.58406 0.0
H881 H 0.75639 0.52903 0.55214 0.0
H882 H 0.74769 0.54986 0.51474 0.0
H883 H 0.80374 0.67112 0.43013 0.0
H884 H 0.7747 0.66402 0.45884 0.0
H885 H 0.77196 0.57711 0.4422 0.0
H886 H 0.80096 0.58406 0.41304 0.0
H887 H 0.77072 0.59303 0.49213 0.0
H888 H 0.73382 0.60939 0.4203 0.0
H889 H 0.72796 0.63437 0.38412 0.0
H890 H 0.71307 0.70893 0.42091 0.0
H891 H 0.7192 0.6845 0.45732 0.0
C892 C 0.67799 0.60492 0.55083 0.0
C893 C 0.67166 0.63211 0.55647 0.0
C894 C 0.69218 0.60002 0.53226 0.0
C895 C 0.70061 0.62229 0.51939 0.0
C896 C 0.69338 0.64926 0.52441 0.0
C897 C 0.67898 0.6541 0.54265 0.0
C898 C 0.71785 0.61817 0.50143 0.0
C899 C 0.71449 0.63079 0.48014 0.0
C900 C 0.73822 0.60384 0.50563 0.0
C901 C 0.7435 0.59135 0.52807 0.0
C902 C 0.7443 0.60783 0.54778 0.0
C903 C 0.74917 0.59585 0.56891 0.0
C904 C 0.75347 0.56746 0.57048 0.0
C905 C 0.75299 0.551 0.55091 0.0
C906 C 0.7481 0.56288 0.52975 0.0
C907 C 0.79727 0.65038 0.43278 0.0
C908 C 0.80454 0.62817 0.41921 0.0
C909 C 0.78064 0.6464 0.44914 0.0
C910 C 0.7711 0.62013 0.45239 0.0
C911 C 0.77915 0.59754 0.43984 0.0
C912 C 0.79566 0.60157 0.42321 0.0
C913 C 0.75178 0.61701 0.46794 0.0
C914 C 0.75478 0.60305 0.48864 0.0
C915 C 0.73122 0.63052 0.4634 0.0
C916 C 0.72712 0.64515 0.44153 0.0
C917 C 0.72945 0.63116 0.42067 0.0
C918 C 0.72606 0.64521 0.40012 0.0
C919 C 0.72018 0.67323 0.40022 0.0
C920 C 0.71762 0.68723 0.42087 0.0
C921 C 0.72103 0.67328 0.44146 0.0
H922 H 0.71758 0.68408 0.38429 0.0
H923 H 0.75724 0.55822 0.58684 0.0
H924 H 0.90235 0.30614 0.08732 0.0
H925 H 0.94126 0.29229 0.07866 0.0
H926 H 0.94866 0.261 0.14707 0.0
H927 H 0.91033 0.27422 0.15573 0.0
H928 H 0.98372 0.29813 0.13139 0.0
H929 H 0.93898 0.2169 0.10751 0.0
H930 H 0.91085 0.19445 0.08277 0.0
H931 H 0.94877 0.21774 0.02359 0.0
H932 H 0.97699 0.24063 0.04802 0.0
H933 H 0.0615 0.20342 0.16235 0.0
H934 H 0.02626 0.22476 0.15107 0.0
H935 H 0.04861 0.2279 0.08126 0.0
H936 H 0.08417 0.20563 0.09249 0.0
H937 H 0.00257 0.21506 0.0855 0.0
H938 H 0.05212 0.28578 0.11053 0.0
H939 H 0.08047 0.30754 0.13538 0.0
H940 H 0.03409 0.30615 0.19128 0.0
H941 H 0.00556 0.28399 0.16689 0.0
C942 C 0.91235 0.29631 0.10045 0.0
C943 C 0.90326 0.29125 0.1222 0.0
C944 C 0.93447 0.28839 0.09547 0.0
C945 C 0.94774 0.27572 0.11228 0.0
C946 C 0.93868 0.27085 0.13391 0.0
C947 C 0.9167 0.27835 0.13878 0.0
C948 C 0.97122 0.26738 0.10811 0.0
C949 C 0.98796 0.28018 0.12116 0.0
C950 C 0.97681 0.24462 0.0941 0.0
C951 C 0.95989 0.23078 0.07954 0.0
C952 C 0.94119 0.21746 0.08921 0.0
C953 C 0.92526 0.2046 0.07525 0.0
C954 C 0.92797 0.20476 0.05161 0.0
C955 C 0.94666 0.21769 0.04189 0.0
C956 C 0.96262 0.2306 0.05578 0.0
C957 C 0.05889 0.20835 0.14454 0.0
C958 C 0.07569 0.20325 0.12835 0.0
C959 C 0.03875 0.22061 0.13812 0.0
C960 C 0.0351 0.22861 0.11545 0.0
C961 C 0.05125 0.22212 0.09889 0.0
C962 C 0.07147 0.20941 0.10531 0.0
C963 C 0.01474 0.24487 0.1099 0.0
C964 C -0.00135 0.23368 0.09503 0.0
C965 C 0.00972 0.26935 0.12213 0.0
C966 C 0.02668 0.28319 0.13684 0.0
C967 C 0.04798 0.29002 0.12814 0.0
C968 C 0.06409 0.30242 0.14216 0.0
C969 C 0.05908 0.30823 0.16489 0.0
C970 C 0.03793 0.30169 0.17365 0.0
C971 C 0.02176 0.28926 0.15972 0.0
H972 H 0.07159 0.31781 0.17572 0.0
H973 H 0.91563 0.19479 0.04083 0.0
H974 H 0.90243 0.69341 0.4034 0.0
H975 H 0.93716 0.71238 0.42014 0.0
H976 H 0.97349 0.68942 0.35951 0.0
H977 H 0.93909 0.67121 0.34272 0.0
H978 H -0.00219 0.68047 0.40108 0.0
H979 H 0.95081 0.75188 0.36194 0.0
H980 H 0.91593 0.77926 0.3593 0.0
H981 H 0.92498 0.80705 0.42817 0.0
H982 H 0.95981 0.77956 0.43123 0.0
H983 H 0.0703 0.75612 0.33957 0.0
H984 H 0.03852 0.73399 0.35768 0.0
H985 H 0.04413 0.78954 0.41488 0.0
H986 H 0.07665 0.81216 0.39668 0.0
H987 H -0.00055 0.78315 0.39672 0.0
H988 H 0.05577 0.72619 0.42698 0.0
H989 H 0.09105 0.69959 0.42787 0.0
H990 H 0.0652 0.64418 0.37703 0.0
H991 H 0.02991 0.67067 0.37553 0.0
C992 C 0.918 0.69186 0.39398 0.0
C993 C 0.91816 0.68107 0.37174 0.0
C994 C 0.93774 0.7027 0.40352 0.0
C995 C 0.95783 0.70228 0.39103 0.0
C996 C 0.95819 0.68978 0.36948 0.0
C997 C 0.93852 0.67953 0.35984 0.0
C998 C 0.97806 0.7176 0.39848 0.0
C999 C -0.00175 0.70293 0.40063 0.0
C1000 C 0.97846 0.7469 0.39884 0.0
C1001 C 0.95768 0.76347 0.3969 0.0
C1002 C 0.94526 0.76371 0.37654 0.0
C1003 C 0.92553 0.77925 0.37497 0.0
C1004 C 0.9182 0.79482 0.39359 0.0
C1005 C 0.93064 0.79493 0.41379 0.0
C1006 C 0.95036 0.77938 0.41546 0.0
C1007 C 0.06495 0.7638 0.35601 0.0
C1008 C 0.07608 0.78598 0.36665 0.0
C1009 C 0.04682 0.7509 0.36645 0.0
C1010 C 0.03925 0.75977 0.38781 0.0
C1011 C 0.04995 0.78221 0.3985 0.0
C1012 C 0.06844 0.7951 0.38807 0.0
C1013 C 0.01933 0.74591 0.39768 0.0
C1014 C -0.00084 0.76079 0.39866 0.0
C1015 C 0.01897 0.71677 0.40035 0.0
C1016 C 0.04011 0.70044 0.40121 0.0
C1017 C 0.05762 0.7084 0.41592 0.0
C1018 C 0.07764 0.69333 0.41653 0.0
C1019 C 0.08035 0.67019 0.40253 0.0
C1020 C 0.06305 0.66207 0.38791 0.0
C1021 C 0.043 0.67707 0.38722 0.0
H1022 H 0.09587 0.65856 0.40302 0.0
H1023 H 0.90293 0.80684 0.39234 0.0
H1024 H 0.58029 0.69946 0.58093 0.0
H1025 H 0.54415 0.71739 0.56658 0.0
H1026 H 0.5176 0.71567 0.63489 0.0
H1027 H 0.55337 0.69862 0.64923 0.0
H1028 H 0.48827 0.69327 0.59926 0.0
H1029 H 0.5378 0.77345 0.61776 0.0
H1030 H 0.57186 0.80132 0.61074 0.0
H1031 H 0.55294 0.81107 0.54058 0.0
H1032 H 0.51888 0.78295 0.5472 0.0
H1033 H 0.41927 0.78145 0.65224 0.0
H1034 H 0.45261 0.76021 0.63635 0.0
H1035 H 0.43457 0.78953 0.56941 0.0
H1036 H 0.40053 0.81112 0.58531 0.0
H1037 H 0.48383 0.79442 0.58458 0.0
H1038 H 0.42667 0.72779 0.57222 0.0
H1039 H 0.39244 0.70128 0.58139 0.0
H1040 H 0.42533 0.66536 0.63942 0.0
H1041 H 0.45964 0.69197 0.63084 0.0
C1042 C 0.56658 0.70264 0.59274 0.0
C1043 C 0.56958 0.69782 0.61619 0.0
C1044 C 0.54606 0.71287 0.58455 0.0
C1045 C 0.5283 0.71772 0.59971 0.0
C1046 C 0.5311 0.71189 0.62293 0.0
C1047 C 0.55157 0.7023 0.63112 0.0
C1048 C 0.50697 0.73048 0.59237 0.0
C1049 C 0.48719 0.71524 0.5955 0.0
C1050 C 0.50566 0.75893 0.58675 0.0
C1051 C 0.52602 0.77585 0.58289 0.0
C1052 C 0.54103 0.78136 0.60081 0.0
C1053 C 0.56029 0.79723 0.59691 0.0
C1054 C 0.56461 0.80788 0.57521 0.0
C1055 C 0.54961 0.80274 0.55737 0.0
C1056 C 0.53033 0.78685 0.56118 0.0
C1057 C 0.42231 0.78366 0.63415 0.0
C1058 C 0.40705 0.79771 0.62 0.0
C1059 C 0.44142 0.77147 0.6251 0.0
C1060 C 0.44578 0.77295 0.6017 0.0
C1061 C 0.43132 0.78808 0.58752 0.0
C1062 C 0.41196 0.80038 0.59663 0.0
C1063 C 0.46522 0.75743 0.59277 0.0
C1064 C 0.48467 0.77213 0.58684 0.0
C1065 C 0.46624 0.72837 0.5957 0.0
C1066 C 0.44577 0.71188 0.60083 0.0
C1067 C 0.42659 0.71432 0.58699 0.0
C1068 C 0.40716 0.69927 0.59209 0.0
C1069 C 0.40672 0.68164 0.61096 0.0
C1070 C 0.42571 0.67899 0.62477 0.0
C1071 C 0.44518 0.694 0.61976 0.0
H1072 H 0.39165 0.67002 0.61489 0.0
H1073 H 0.57953 0.82017 0.57222 0.0
H1074 H 0.88076 0.10025 0.7093 0.0
H1075 H 0.88666 0.06182 0.73535 0.0
H1076 H 0.87328 0.00396 0.68092 0.0
H1077 H 0.86581 0.04275 0.65506 0.0
H1078 H 0.85124 0.98821 0.71411 0.0
H1079 H 0.92783 0.01363 0.70845 0.0
H1080 H 0.9611 0.04406 0.70816 0.0
H1081 H 0.94908 0.06595 0.77794 0.0
H1082 H 0.91554 0.03594 0.77857 0.0
H1083 H 0.88106 0.87434 0.78556 0.0
H1084 H 0.88828 0.91056 0.75735 0.0
H1085 H 0.86711 0.97271 0.80536 0.0
H1086 H 0.85912 0.93643 0.83358 0.0
H1087 H 0.90988 0.98289 0.77402 0.0
H1088 H 0.83023 0.95683 0.77558 0.0
H1089 H 0.79948 0.92269 0.77351 0.0
H1090 H 0.82124 0.89825 0.70682 0.0
H1091 H 0.85265 0.93143 0.70889 0.0
C1092 C 0.87951 0.07934 0.70273 0.0
C1093 C 0.8728 0.07451 0.68012 0.0
C1094 C 0.88306 0.05727 0.71767 0.0
C1095 C 0.88076 0.02977 0.71018 0.0
C1096 C 0.87513 0.02493 0.68722 0.0
C1097 C 0.87097 0.04708 0.67239 0.0
C1098 C 0.88191 0.00642 0.72681 0.0
C1099 C 0.8644 0.98688 0.72684 0.0
C1100 C 0.89887 0.00456 0.74377 0.0
C1101 C 0.91905 0.02267 0.74349 0.0
C1102 C 0.93217 0.02508 0.72369 0.0
C1103 C 0.9511 0.04224 0.72347 0.0
C1104 C 0.95717 0.05697 0.743 0.0
C1105 C 0.94435 0.05453 0.76281 0.0
C1106 C 0.92539 0.03742 0.76312 0.0
C1107 C 0.87837 0.89575 0.79033 0.0
C1108 C 0.86939 0.90255 0.81176 0.0
C1109 C 0.8825 0.91638 0.77417 0.0
C1110 C 0.87814 0.94419 0.77931 0.0
C1111 C 0.87062 0.9513 0.80117 0.0
C1112 C 0.86601 0.93059 0.81722 0.0
C1113 C 0.87921 0.9654 0.76115 0.0
C1114 C 0.89703 0.98436 0.76097 0.0
C1115 C 0.86292 0.96634 0.74366 0.0
C1116 C 0.84405 0.94627 0.74257 0.0
C1117 C 0.82872 0.9438 0.76066 0.0
C1118 C 0.81114 0.92461 0.75948 0.0
C1119 C 0.80852 0.90808 0.74013 0.0
C1120 C 0.82342 0.91079 0.72191 0.0
C1121 C 0.84114 0.92974 0.7231 0.0
H1122 H 0.79487 0.8933 0.7392 0.0
H1123 H 0.97183 0.07024 0.7428 0.0
H1124 H 0.11477 0.55346 0.8368 0.0
H1125 H 0.10743 0.51608 0.80954 0.0
H1126 H 0.10934 0.57532 0.75436 0.0
H1127 H 0.11481 0.61265 0.78162 0.0
H1128 H 0.08098 0.54041 0.74335 0.0
H1129 H 0.15629 0.53112 0.77234 0.0
H1130 H 0.18558 0.5256 0.80172 0.0
H1131 H 0.15591 0.44866 0.82292 0.0
H1132 H 0.12629 0.45389 0.79381 0.0
H1133 H 0.12636 0.44992 0.65622 0.0
H1134 H 0.11984 0.48602 0.68486 0.0
H1135 H 0.09237 0.42492 0.73063 0.0
H1136 H 0.09832 0.38891 0.70208 0.0
H1137 H 0.13046 0.458 0.74735 0.0
H1138 H 0.05762 0.46759 0.71215 0.0
H1139 H 0.03191 0.47479 0.67975 0.0
H1140 H 0.06209 0.55401 0.66649 0.0
H1141 H 0.08821 0.54711 0.69862 0.0
C1142 C 0.11324 0.55842 0.81887 0.0
C1143 C 0.11542 0.58587 0.8113 0.0
C1144 C 0.10926 0.53705 0.80325 0.0
C1145 C 0.10843 0.54264 0.7797 0.0
C1146 C 0.10988 0.57028 0.77233 0.0
C1147 C 0.11309 0.59166 0.78797 0.0
C1148 C 0.10706 0.51991 0.76256 0.0
C1149 C 0.09197 0.52254 0.74421 0.0
C1150 C 0.12115 0.49626 0.76361 0.0
C1151 C 0.13894 0.49306 0.78109 0.0
C1152 C 0.15594 0.51312 0.78337 0.0
C1153 C 0.17261 0.51003 0.79996 0.0
C1154 C 0.17257 0.48684 0.81423 0.0
C1155 C 0.15589 0.46664 0.81189 0.0
C1156 C 0.13917 0.46965 0.79534 0.0
C1157 C 0.11848 0.4443 0.67219 0.0
C1158 C 0.11293 0.41656 0.67691 0.0
C1159 C 0.11476 0.46492 0.6885 0.0
C1160 C 0.10569 0.45803 0.70983 0.0
C1161 C 0.09937 0.43059 0.71425 0.0
C1162 C 0.10274 0.41008 0.69787 0.0
C1163 C 0.10472 0.4789 0.72824 0.0
C1164 C 0.11939 0.47584 0.74674 0.0
C1165 C 0.09079 0.50249 0.72692 0.0
C1166 C 0.07501 0.50672 0.70768 0.0
C1167 C 0.05891 0.48644 0.7022 0.0
C1168 C 0.04423 0.49049 0.68391 0.0
C1169 C 0.0454 0.51481 0.67103 0.0
C1170 C 0.06121 0.53517 0.67646 0.0
C1171 C 0.07594 0.53121 0.69473 0.0
H1172 H 0.03402 0.5179 0.65687 0.0
H1173 H 0.18548 0.48448 0.82706 0.0
H1174 H 0.69135 0.88916 0.08057 0.0
H1175 H 0.71471 0.89621 0.04656 0.0
H1176 H 0.7105 0.80877 0.03174 0.0
H1177 H 0.68812 0.80157 0.0658 0.0
H1178 H 0.75174 0.8244 0.02883 0.0
H1179 H 0.68049 0.86136 0.00177 0.0
H1180 H 0.6483 0.89346 0.00262 0.0
H1181 H 0.69307 0.96279 -0.00409 0.0
H1182 H 0.72555 0.93109 -0.00472 0.0
H1183 H 0.77064 0.79868 0.91549 0.0
H1184 H 0.75052 0.81051 0.95008 0.0
H1185 H 0.78499 0.88899 0.95312 0.0
H1186 H 0.80559 0.87726 0.9181 0.0
H1187 H 0.73453 0.88773 0.96453 0.0
H1188 H 0.80543 0.84747 0.98587 0.0
H1189 H 0.83591 0.81316 0.98276 0.0
H1190 H 0.78968 0.74773 -0.00102 0.0
H1191 H 0.75885 0.78161 0.00184 0.0
C1192 C 0.69532 0.87155 0.0699 0.0
C1193 C 0.68807 0.84478 0.07594 0.0
C1194 C 0.70861 0.8756 0.05046 0.0
C1195 C 0.71442 0.85301 0.03656 0.0
C1196 C 0.70651 0.8265 0.04229 0.0
C1197 C 0.69364 0.8224 0.06178 0.0
C1198 C 0.72937 0.85612 0.01644 0.0
C1199 C 0.74791 0.8383 0.01482 0.0
C1200 C 0.72495 0.87491 -0.00158 0.0
C1201 C 0.70544 0.8939 -0.00123 0.0
C1202 C 0.68347 0.88347 0.00066 0.0
C1203 C 0.66518 0.90158 0.00106 0.0
C1204 C 0.66864 0.93015 -0.0006 0.0
C1205 C 0.69041 0.94066 -0.00275 0.0
C1206 C 0.70876 0.92264 -0.00314 0.0
C1207 C 0.77392 0.81862 0.92328 0.0
C1208 C 0.79 0.83687 0.91414 0.0
C1209 C 0.7623 0.82536 0.94304 0.0
C1210 C 0.76644 0.85047 0.95421 0.0
C1211 C 0.78161 0.86949 0.94467 0.0
C1212 C 0.79339 0.86271 0.92475 0.0
C1213 C 0.75607 0.85517 0.97675 0.0
C1214 C 0.73857 0.8744 0.97885 0.0
C1215 C 0.76121 0.83747 -0.00479 0.0
C1216 C 0.77982 0.81709 0.99398 0.0
C1217 C 0.80174 0.82575 0.98865 0.0
C1218 C 0.81908 0.80638 0.98694 0.0
C1219 C 0.81473 0.77828 0.99065 0.0
C1220 C 0.79303 0.76951 -0.00388 0.0
C1221 C 0.77563 0.78879 -0.00217 0.0
H1222 H 0.82818 0.76331 0.9893 0.0
H1223 H 0.65446 0.94414 -0.00029 0.0
H1224 H 0.18804 0.61342 0.91145 0.0
H1225 H 0.21388 0.60332 0.94313 0.0
H1226 H 0.21203 0.68932 0.963 0.0
H1227 H 0.18688 0.69953 0.93156 0.0
H1228 H 0.25407 0.67164 0.95949 0.0
H1229 H 0.1842 0.63734 0.99268 0.0
H1230 H 0.15115 0.60655 0.99412 0.0
H1231 H 0.19427 0.53534 -0.00457 0.0
H1232 H 0.22759 0.56574 0.99372 0.0
H1233 H 0.28337 0.69544 0.07082 0.0
H1234 H 0.26168 0.68593 0.03668 0.0
H1235 H 0.28912 0.60342 0.03368 0.0
H1236 H 0.31121 0.61276 0.0683 0.0
H1237 H 0.24034 0.60821 0.02457 0.0
H1238 H 0.31032 0.64463 -0.00165 0.0
H1239 H 0.34255 0.67673 -0.00151 0.0
H1240 H 0.29849 0.74501 0.98451 0.0
H1241 H 0.26594 0.71339 0.98464 0.0
C1242 C 0.193 0.63003 0.92277 0.0
C1243 C 0.18561 0.65732 0.91887 0.0
C1244 C 0.20774 0.62425 0.94084 0.0
C1245 C 0.21501 0.64562 0.95533 0.0
C1246 C 0.20689 0.67256 0.95188 0.0
C1247 C 0.19245 0.67835 0.93388 0.0
C1248 C 0.2318 0.64093 0.97364 0.0
C1249 C 0.25106 0.65771 0.97369 0.0
C1250 C 0.22837 0.62197 0.99173 0.0
C1251 C 0.20835 0.60378 0.99276 0.0
C1252 C 0.18662 0.61511 0.99307 0.0
C1253 C 0.16785 0.59773 0.99398 0.0
C1254 C 0.17061 0.569 -0.00522 0.0
C1255 C 0.19215 0.55759 -0.00525 0.0
C1256 C 0.21098 0.57488 0.99382 0.0
C1257 C 0.28485 0.67517 0.06308 0.0
C1258 C 0.29924 0.65494 0.07224 0.0
C1259 C 0.27238 0.66979 0.04352 0.0
C1260 C 0.27399 0.6441 0.03256 0.0
C1261 C 0.28773 0.62341 0.04193 0.0
C1262 C 0.30037 0.62883 0.06161 0.0
C1263 C 0.26183 0.63999 0.01082 0.0
C1264 C 0.24361 0.62155 0.01006 0.0
C1265 C 0.26608 0.65753 0.99202 0.0
C1266 C 0.28567 0.67661 0.99158 0.0
C1267 C 0.30748 0.66651 -0.00457 0.0
C1268 C 0.32582 0.68462 -0.00455 0.0
C1269 C 0.32257 0.71289 0.99153 0.0
C1270 C 0.30098 0.7231 0.98753 0.0
C1271 C 0.28259 0.70508 0.98751 0.0
H1272 H 0.33678 0.72689 0.99156 0.0
H1273 H 0.15605 0.55558 -0.00451 0.0
H1274 H 0.67839 0.125 0.42431 0.0
H1275 H 0.69904 0.11569 0.45969 0.0
H1276 H 0.74212 0.1857 0.44626 0.0
H1277 H 0.72143 0.19546 0.41137 0.0
H1278 H 0.74242 0.10502 0.47262 0.0
H1279 H 0.74924 0.22219 0.49388 0.0
H1280 H 0.72839 0.26543 0.48652 0.0
H1281 H 0.66749 0.21896 0.47757 0.0
H1282 H 0.68791 0.17551 0.48521 0.0
H1283 H 0.82164 0.13052 0.56224 0.0
H1284 H 0.79932 0.12562 0.52734 0.0
H1285 H 0.74142 0.15818 0.56246 0.0
H1286 H 0.76402 0.16459 0.59671 0.0
H1287 H 0.74512 0.18428 0.52626 0.0
H1288 H 0.74675 0.08767 0.54322 0.0
H1289 H 0.76372 0.04251 0.55266 0.0
H1290 H 0.80065 0.04388 0.48991 0.0
H1291 H 0.78413 0.08923 0.48022 0.0
C1292 C 0.69244 0.13819 0.42878 0.0
C1293 C 0.69803 0.16125 0.41522 0.0
C1294 C 0.70426 0.13279 0.44896 0.0
C1295 C 0.72186 0.1503 0.4558 0.0
C1296 C 0.72832 0.17223 0.44153 0.0
C1297 C 0.71645 0.17779 0.42157 0.0
C1298 C 0.73242 0.14724 0.47857 0.0
C1299 C 0.74302 0.12226 0.48445 0.0
C1300 C 0.73264 0.16949 0.49423 0.0
C1301 C 0.72016 0.19559 0.4899 0.0
C1302 C 0.73138 0.22122 0.49044 0.0
C1303 C 0.71964 0.24576 0.4862 0.0
C1304 C 0.69665 0.24493 0.48151 0.0
C1305 C 0.68532 0.21957 0.48113 0.0
C1306 C 0.69697 0.19498 0.48538 0.0
C1307 C 0.80404 0.13614 0.56251 0.0
C1308 C 0.79455 0.14814 0.58202 0.0
C1309 C 0.79124 0.13322 0.54261 0.0
C1310 C 0.76858 0.14149 0.54217 0.0
C1311 C 0.75887 0.15191 0.5622 0.0
C1312 C 0.77177 0.1555 0.5818 0.0
C1313 C 0.75555 0.14208 0.5205 0.0
C1314 C 0.7445 0.1668 0.51469 0.0
C1315 C 0.75439 0.11926 0.50535 0.0
C1316 C 0.76434 0.09197 0.51109 0.0
C1317 C 0.75862 0.07844 0.53151 0.0
C1318 C 0.76813 0.05279 0.53689 0.0
C1319 C 0.78329 0.04037 0.52192 0.0
C1320 C 0.78892 0.05354 0.5015 0.0
C1321 C 0.77946 0.0792 0.49604 0.0
H1322 H 0.79064 0.02051 0.52612 0.0
H1323 H 0.68759 0.26395 0.47822 0.0
H1324 H 0.20374 0.30614 0.5709 0.0
H1325 H 0.22917 0.31887 0.54044 0.0
H1326 H 0.20147 0.40135 0.53901 0.0
H1327 H 0.17551 0.38869 0.56995 0.0
H1328 H 0.20731 0.37735 0.49526 0.0
H1329 H 0.25158 0.39576 0.56027 0.0
H1330 H 0.26746 0.38776 0.5985 0.0
H1331 H 0.30042 0.31434 0.57452 0.0
H1332 H 0.28447 0.32163 0.53622 0.0
H1333 H 0.29922 0.38776 0.41352 0.0
H1334 H 0.27662 0.40071 0.44692 0.0
H1335 H 0.28014 0.31656 0.47143 0.0
H1336 H 0.30219 0.30345 0.43822 0.0
H1337 H 0.28857 0.35816 0.50531 0.0
H1338 H 0.23563 0.33484 0.44414 0.0
H1339 H 0.21892 0.34184 0.40611 0.0
H1340 H 0.20253 0.42579 0.42354 0.0
H1341 H 0.21944 0.41935 0.4616 0.0
C1342 C 0.2029 0.32705 0.56423 0.0
C1343 C 0.18758 0.34643 0.57299 0.0
C1344 C 0.2176 0.33433 0.54684 0.0
C1345 C 0.21747 0.36118 0.53775 0.0
C1346 C 0.20192 0.38057 0.54598 0.0
C1347 C 0.18714 0.3733 0.56362 0.0
C1348 C 0.23355 0.36805 0.51935 0.0
C1349 C 0.22518 0.37405 0.49756 0.0
C1350 C 0.25686 0.36366 0.52237 0.0
C1351 C 0.26676 0.35925 0.54534 0.0
C1352 C 0.26212 0.37782 0.56316 0.0
C1353 C 0.27114 0.37342 0.58485 0.0
C1354 C 0.28493 0.35055 0.58894 0.0
C1355 C 0.28976 0.33207 0.57132 0.0
C1356 C 0.28076 0.33636 0.5496 0.0
C1357 C 0.29529 0.37214 0.42616 0.0
C1358 C 0.30236 0.34457 0.42322 0.0
C1359 C 0.28238 0.37955 0.44515 0.0
C1360 C 0.27676 0.35956 0.46158 0.0
C1361 C 0.28439 0.33229 0.45897 0.0
C1362 C 0.29688 0.32481 0.43991 0.0
C1363 C 0.26214 0.36617 0.48119 0.0
C1364 C 0.27084 0.3626 0.50319 0.0
C1365 C 0.23921 0.37293 0.47837 0.0
C1366 C 0.22907 0.37675 0.45554 0.0
C1367 C 0.22866 0.35487 0.43977 0.0
C1368 C 0.21912 0.35871 0.41824 0.0
C1369 C 0.20975 0.38428 0.41238 0.0
C1370 C 0.20985 0.40603 0.42807 0.0
C1371 C 0.21941 0.40229 0.44962 0.0
H1372 H 0.20235 0.38722 0.39571 0.0
H1373 H 0.29188 0.34716 0.60575 0.0
H1374 H 0.06706 0.66589 0.88492 0.0
H1375 H 0.02787 0.67707 0.89334 0.0
H1376 H 0.04348 0.7643 0.88972 0.0
H1377 H 0.08263 0.75337 0.88219 0.0
H1378 H 0.01406 0.75616 0.92196 0.0
H1379 H 0.02159 0.72753 0.84349 0.0
H1380 H 0.03186 0.69566 0.8124 0.0
H1381 H 0.98683 0.63417 0.83914 0.0
H1382 H 0.97651 0.6656 0.87056 0.0
H1383 H 0.91228 0.81563 0.87998 0.0
H1384 H 0.95027 0.79916 0.88811 0.0
H1385 H 0.92452 0.7169 0.90017 0.0
H1386 H 0.88656 0.73306 0.89214 0.0
H1387 H 0.95773 0.71824 0.86805 0.0
H1388 H 0.94614 0.75222 0.94353 0.0
H1389 H 0.93571 0.78648 0.97276 0.0
H1390 H 0.9881 0.8408 0.94963 0.0
H1391 H -0.00136 0.80703 0.92003 0.0
C1392 C 0.06217 0.68744 0.8862 0.0
C1393 C 0.07791 0.70873 0.88263 0.0
C1394 C 0.03977 0.69381 0.89096 0.0
C1395 C 0.03265 0.72154 0.89174 0.0
C1396 C 0.04855 0.74276 0.88919 0.0
C1397 C 0.07095 0.73644 0.88477 0.0
C1398 C 0.00851 0.72869 0.89359 0.0
C1399 C 0.00174 0.74796 0.91013 0.0
C1400 C -0.00766 0.71763 0.87841 0.0
C1401 C -0.00151 0.69876 0.85951 0.0
C1402 C 0.01401 0.70713 0.84282 0.0
C1403 C 0.01982 0.68917 0.82514 0.0
C1404 C 0.01006 0.66287 0.82384 0.0
C1405 C -0.00558 0.65452 0.8402 0.0
C1406 C 0.98857 0.6724 0.85794 0.0
C1407 C 0.91463 0.79416 0.88479 0.0
C1408 C 0.8964 0.77562 0.88516 0.0
C1409 C 0.93634 0.78481 0.88953 0.0
C1410 C 0.94016 0.75681 0.89474 0.0
C1411 C 0.92189 0.73858 0.89617 0.0
C1412 C 0.9002 0.7479 0.89156 0.0
C1413 C 0.96334 0.74598 0.8962 0.0
C1414 C 0.96994 0.72608 0.88018 0.0
C1415 C 0.97934 0.7568 0.91162 0.0
C1416 C 0.97307 0.77715 0.92944 0.0
C1417 C 0.95532 0.77156 0.94455 0.0
C1418 C 0.94941 0.79088 0.96121 0.0
C1419 C 0.9612 0.81582 0.96302 0.0
C1420 C 0.97897 0.82147 0.9482 0.0
C1421 C 0.98494 0.80223 0.93149 0.0
H1422 H 0.95661 0.83075 0.97594 0.0
H1423 H 0.01458 0.64899 0.81013 0.0
H1424 H 0.06399 0.33172 0.61522 0.0
H1425 H 0.02494 0.31737 0.61017 0.0
H1426 H 0.04667 0.23469 0.5934 0.0
H1427 H 0.08574 0.24886 0.59808 0.0
H1428 H 0.0099 0.24995 0.56821 0.0
H1429 H 0.03278 0.24886 0.6467 0.0
H1430 H 0.04874 0.26846 0.68196 0.0
H1431 H -0.00258 0.33085 0.68274 0.0
H1432 H 0.98135 0.31184 0.64726 0.0
H1433 H 0.91501 0.17164 0.61057 0.0
H1434 H 0.95221 0.19091 0.60209 0.0
H1435 H 0.92646 0.27354 0.61145 0.0
H1436 H 0.88933 0.25469 0.61958 0.0
H1437 H 0.96448 0.25995 0.63853 0.0
H1438 H 0.93972 0.25708 0.56094 0.0
H1439 H 0.92409 0.23552 0.52634 0.0
H1440 H 0.97897 0.17796 0.52474 0.0
H1441 H -0.00524 0.19893 0.55957 0.0
C1442 C 0.06051 0.31062 0.61003 0.0
C1443 C 0.07799 0.29133 0.60741 0.0
C1444 C 0.03818 0.30245 0.60718 0.0
C1445 C 0.03294 0.27485 0.6018 0.0
C1446 C 0.05036 0.25606 0.59762 0.0
C1447 C 0.0727 0.2642 0.60044 0.0
C1448 C 0.00943 0.26489 0.60277 0.0
C1449 C -2e-05 0.25196 0.5836 0.0
C1450 C -0.00352 0.26772 0.62282 0.0
C1451 C 0.00603 0.27914 0.6442 0.0
C1452 C 0.02502 0.2669 0.65429 0.0
C1453 C 0.03406 0.27787 0.67433 0.0
C1454 C 0.02414 0.30094 0.68454 0.0
C1455 C 0.00511 0.31302 0.67478 0.0
C1456 C -0.00398 0.30215 0.65471 0.0
C1457 C 0.9172 0.19392 0.61048 0.0
C1458 C 0.89924 0.21161 0.61589 0.0
C1459 C 0.93841 0.20487 0.60555 0.0
C1460 C 0.94199 0.23361 0.60616 0.0
C1461 C 0.92397 0.2513 0.61088 0.0
C1462 C 0.90276 0.24045 0.6155 0.0
C1463 C 0.96487 0.24516 0.60394 0.0
C1464 C 0.97428 0.25821 0.62302 0.0
C1465 C 0.97777 0.24212 0.58391 0.0
C1466 C 0.96829 0.22939 0.56302 0.0
C1467 C 0.94833 0.23964 0.55336 0.0
C1468 C 0.93947 0.22757 0.53367 0.0
C1469 C 0.95049 0.20533 0.52338 0.0
C1470 C 0.97043 0.19516 0.53275 0.0
C1471 C 0.97935 0.20715 0.55245 0.0
H1472 H 0.94362 0.19603 0.50813 0.0
H1473 H 0.03116 0.3094 0.70006 0.0
H1474 H 0.57721 0.17898 0.39071 0.0
H1475 H 0.53881 0.19446 0.3981 0.0
H1476 H 0.55899 0.27916 0.38621 0.0
H1477 H 0.59746 0.26401 0.37986 0.0
H1478 H 0.52859 0.27869 0.41778 0.0
H1479 H 0.53526 0.2375 0.34349 0.0
H1480 H 0.54464 0.20065 0.31605 0.0
H1481 H 0.49728 0.1461 0.34822 0.0
H1482 H 0.48783 0.18255 0.37605 0.0
H1483 H 0.42319 0.33168 0.3753 0.0
H1484 H 0.46222 0.31752 0.38168 0.0
H1485 H 0.43965 0.23676 0.4033 0.0
H1486 H 0.40085 0.25056 0.39707 0.0
H1487 H 0.47073 0.23454 0.36896 0.0
H1488 H 0.46193 0.27979 0.44133 0.0
H1489 H 0.45269 0.31869 0.46681 0.0
H1490 H 0.504 0.36834 0.43555 0.0
H1491 H 0.51335 0.32985 0.40964 0.0
C1492 C 0.57352 0.20093 0.39005 0.0
C1493 C 0.59032 0.22022 0.38442 0.0
C1494 C 0.55155 0.20976 0.39418 0.0
C1495 C 0.54588 0.23792 0.39213 0.0
C1496 C 0.5629 0.25732 0.3878 0.0
C1497 C 0.58492 0.24859 0.3841 0.0
C1498 C 0.52207 0.24703 0.39275 0.0
C1499 C 0.51597 0.26915 0.407 0.0
C1500 C 0.50551 0.23449 0.37881 0.0
C1501 C 0.51102 0.21264 0.36198 0.0
C1502 C 0.52695 0.21759 0.34479 0.0
C1503 C 0.53227 0.19678 0.32916 0.0
C1504 C 0.52161 0.17102 0.33043 0.0
C1505 C 0.50556 0.16604 0.34729 0.0
C1506 C 0.5002 0.18677 0.36298 0.0
C1507 C 0.42652 0.31108 0.38179 0.0
C1508 C 0.40888 0.29219 0.38545 0.0
C1509 C 0.44882 0.30305 0.38548 0.0
C1510 C 0.45378 0.27607 0.39292 0.0
C1511 C 0.43617 0.25763 0.39749 0.0
C1512 C 0.41397 0.26562 0.3939 0.0
C1513 C 0.47726 0.26609 0.39402 0.0
C1514 C 0.48331 0.24388 0.37993 0.0
C1515 C 0.49376 0.27887 0.4078 0.0
C1516 C 0.4882 0.30201 0.4234 0.0
C1517 C 0.47112 0.29908 0.43975 0.0
C1518 C 0.46589 0.32104 0.4543 0.0
C1519 C 0.47771 0.346 0.45276 0.0
C1520 C 0.49484 0.34901 0.4367 0.0
C1521 C 0.50012 0.32712 0.4221 0.0
H1522 H 0.47364 0.36297 0.46405 0.0
H1523 H 0.52576 0.15493 0.31832 0.0
H1524 H 0.6196 0.61573 0.71507 0.0
H1525 H 0.61573 0.5746 0.73876 0.0
H1526 H 0.6209 0.52268 0.6793 0.0
H1527 H 0.62468 0.56398 0.65518 0.0
H1528 H 0.58774 0.50499 0.71018 0.0
H1529 H 0.66574 0.53083 0.71126 0.0
H1530 H 0.69752 0.56312 0.716 0.0
H1531 H 0.67849 0.57729 0.78552 0.0
H1532 H 0.64639 0.54534 0.7811 0.0
H1533 H 0.61741 0.37959 0.76617 0.0
H1534 H 0.61419 0.42054 0.74208 0.0
H1535 H 0.61638 0.47285 0.80157 0.0
H1536 H 0.62009 0.43192 0.82586 0.0
H1537 H 0.64498 0.49069 0.77052 0.0
H1538 H 0.56769 0.46407 0.77027 0.0
H1539 H 0.53537 0.43258 0.76574 0.0
H1540 H 0.55222 0.42047 0.69537 0.0
H1541 H 0.58484 0.4516 0.69956 0.0
C1542 C 0.61978 0.59563 0.70689 0.0
C1543 C 0.62265 0.59318 0.68319 0.0
C1544 C 0.61759 0.57212 0.72052 0.0
C1545 C 0.61832 0.54563 0.71081 0.0
C1546 C 0.62035 0.543 0.6871 0.0
C1547 C 0.62258 0.56659 0.67337 0.0
C1548 C 0.6179 0.52081 0.72567 0.0
C1549 C 0.60039 0.5016 0.72319 0.0
C1550 C 0.63411 0.51688 0.743 0.0
C1551 C 0.65355 0.53587 0.74579 0.0
C1552 C 0.66824 0.54098 0.72751 0.0
C1553 C 0.68632 0.55919 0.73015 0.0
C1554 C 0.69 0.57226 0.75104 0.0
C1555 C 0.67561 0.56714 0.76935 0.0
C1556 C 0.65749 0.54895 0.7668 0.0
C1557 C 0.61692 0.39976 0.77422 0.0
C1558 C 0.6191 0.40244 0.79799 0.0
C1559 C 0.61496 0.42319 0.76038 0.0
C1560 C 0.61488 0.44979 0.77001 0.0
C1561 C 0.61642 0.45252 0.79377 0.0
C1562 C 0.61847 0.42909 0.80764 0.0
C1563 C 0.61473 0.47473 0.75519 0.0
C1564 C 0.63223 0.49401 0.7576 0.0
C1565 C 0.59845 0.47872 0.73788 0.0
C1566 C 0.57884 0.45998 0.73529 0.0
C1567 C 0.56462 0.45451 0.75388 0.0
C1568 C 0.54622 0.43676 0.75136 0.0
C1569 C 0.54178 0.42447 0.73029 0.0
C1570 C 0.5557 0.42997 0.71169 0.0
C1571 C 0.57413 0.4477 0.71412 0.0
H1572 H 0.52753 0.41074 0.72838 0.0
H1573 H 0.70403 0.58632 0.75305 0.0
H1574 H 0.37419 0.11581 0.77044 0.0
H1575 H 0.37549 0.07416 0.74708 0.0
H1576 H 0.35226 0.02536 0.80395 0.0
H1577 H 0.35108 0.06706 0.82769 0.0
H1578 H 0.38555 -0.00102 0.7793 0.0
H1579 H 0.31567 0.04583 0.76416 0.0
H1580 H 0.29213 0.08586 0.75366 0.0
H1581 H 0.32522 0.09114 0.68887 0.0
H1582 H 0.34919 0.05136 0.69912 0.0
H1583 H 0.34552 0.88158 0.72049 0.0
H1584 H 0.3502 0.9227 0.74396 0.0
H1585 H 0.36586 0.97093 0.6841 0.0
H1586 H 0.36043 0.92983 0.66028 0.0
H1587 H 0.33804 0.99825 0.70981 0.0
H1588 H 0.40698 0.95046 0.72378 0.0
H1589 H 0.43101 0.9108 0.73404 0.0
H1590 H 0.4008 0.9075 0.80035 0.0
H1591 H 0.37637 0.94692 0.79038 0.0
C1592 C 0.36952 0.09623 0.77812 0.0
C1593 C 0.36229 0.09485 0.80091 0.0
C1594 C 0.37024 0.07244 0.76469 0.0
C1595 C 0.3636 0.04678 0.77368 0.0
C1596 C 0.35736 0.04502 0.79668 0.0
C1597 C 0.35666 0.06887 0.8102 0.0
C1598 C 0.36224 0.02211 0.75874 0.0
C1599 C 0.37499 -0.00136 0.76423 0.0
C1600 C 0.3489 0.02203 0.73876 0.0
C1601 C 0.33436 0.04579 0.7325 0.0
C1602 C 0.31803 0.05566 0.74774 0.0
C1603 C 0.3046 0.07828 0.74182 0.0
C1604 C 0.30722 0.09108 0.72063 0.0
C1605 C 0.32323 0.08123 0.70529 0.0
C1606 C 0.33673 0.05863 0.71113 0.0
C1607 C 0.3501 0.90087 0.71227 0.0
C1608 C 0.35269 0.90239 0.68848 0.0
C1609 C 0.3529 0.92438 0.72577 0.0
C1610 C 0.35881 0.94984 0.71588 0.0
C1611 C 0.3614 0.95147 0.69213 0.0
C1612 C 0.35831 0.92797 0.67853 0.0
C1613 C 0.36137 0.97492 0.7303 0.0
C1614 C 0.34876 -0.00147 0.72476 0.0
C1615 C 0.37494 0.97514 0.75016 0.0
C1616 C 0.38972 0.95152 0.75626 0.0
C1617 C 0.40535 0.94116 0.7405 0.0
C1618 C 0.41906 0.91874 0.74627 0.0
C1619 C 0.4174 0.9066 0.76782 0.0
C1620 C 0.40206 0.91691 0.78366 0.0
C1621 C 0.3883 0.93932 0.77797 0.0
H1622 H 0.42803 0.88923 0.77225 0.0
H1623 H 0.2968 0.1086 0.71609 0.0
H1624 H 0.39728 0.21213 0.90535 0.0
H1625 H 0.43161 0.23179 0.92246 0.0
H1626 H 0.47051 0.19977 0.86646 0.0
H1627 H 0.43643 0.18114 0.8491 0.0
H1628 H 0.49162 0.19563 0.91206 0.0
H1629 H 0.45164 0.26103 0.85998 0.0
H1630 H 0.41824 0.28887 0.85029 0.0
H1631 H 0.42117 0.32833 0.91576 0.0
H1632 H 0.45446 0.30042 0.92588 0.0
H1633 H 0.5735 0.25725 0.85148 0.0
H1634 H 0.54039 0.23797 0.86934 0.0
H1635 H 0.53855 0.30628 0.91663 0.0
H1636 H 0.57232 0.32607 0.89855 0.0
H1637 H 0.49751 0.29633 0.89591 0.0
H1638 H 0.54803 0.24385 0.93885 0.0
H1639 H 0.58186 0.21647 0.94756 0.0
H1640 H 0.55976 0.15266 0.90182 0.0
H1641 H 0.52597 0.1798 0.89252 0.0
C1642 C 0.4133 0.20875 0.89711 0.0
C1643 C 0.41437 0.19525 0.87594 0.0
C1644 C 0.43281 0.21997 0.90684 0.0
C1645 C 0.45353 0.21712 0.89571 0.0
C1646 C 0.4547 0.20196 0.87539 0.0
C1647 C 0.43526 0.19145 0.86544 0.0
C1648 C 0.47368 0.23266 0.90302 0.0
C1649 C 0.49297 0.21773 0.90899 0.0
C1650 C 0.47514 0.26166 0.89992 0.0
C1651 C 0.45529 0.27846 0.89377 0.0
C1652 C 0.44504 0.27551 0.87234 0.0
C1653 C 0.42616 0.29131 0.86677 0.0
C1654 C 0.41754 0.3103 0.88243 0.0
C1655 C 0.42783 0.31357 0.90367 0.0
C1656 C 0.44669 0.29776 0.90933 0.0
C1657 C 0.56626 0.26824 0.86577 0.0
C1658 C 0.57549 0.29333 0.87349 0.0
C1659 C 0.54741 0.25696 0.87617 0.0
C1660 C 0.53721 0.27039 0.8946 0.0
C1661 C 0.54636 0.29542 0.90259 0.0
C1662 C 0.56557 0.30669 0.89225 0.0
C1663 C 0.51584 0.25896 0.9035 0.0
C1664 C 0.49623 0.27458 0.90041 0.0
C1665 C 0.51411 0.23061 0.9095 0.0
C1666 C 0.53437 0.21392 0.91503 0.0
C1667 C 0.55041 0.22404 0.93056 0.0
C1668 C 0.56959 0.20854 0.9356 0.0
C1669 C 0.57294 0.18283 0.92527 0.0
C1670 C 0.55711 0.17255 0.90987 0.0
C1671 C 0.53789 0.18796 0.90475 0.0
H1672 H 0.58781 0.17087 0.92919 0.0
H1673 H 0.40293 0.32252 0.87808 0.0
H1674 H 0.39757 0.59771 0.19059 0.0
H1675 H 0.40232 0.56187 0.21971 0.0
H1676 H 0.34941 0.51383 0.18887 0.0
H1677 H 0.34458 0.54942 0.15957 0.0
H1678 H 0.36178 0.54644 0.24807 0.0
H1679 H 0.36499 0.46476 0.18761 0.0
H1680 H 0.38355 0.44863 0.15242 0.0
H1681 H 0.44757 0.4739 0.17903 0.0
H1682 H 0.42926 0.49048 0.21421 0.0
H1683 H 0.3301 0.43366 0.31714 0.0
H1684 H 0.33579 0.46873 0.28789 0.0
H1685 H 0.40501 0.44359 0.28117 0.0
H1686 H 0.3989 0.40714 0.30959 0.0
H1687 H 0.38951 0.44992 0.24147 0.0
H1688 H 0.38662 0.50764 0.30769 0.0
H1689 H 0.37138 0.5264 0.34352 0.0
H1690 H 0.31183 0.55284 0.30847 0.0
H1691 H 0.32655 0.53388 0.27249 0.0
C1692 C 0.38733 0.57919 0.18963 0.0
C1693 C 0.37062 0.57647 0.17281 0.0
C1694 C 0.39007 0.55877 0.2063 0.0
C1695 C 0.37631 0.5352 0.20633 0.0
C1696 C 0.36044 0.53168 0.18889 0.0
C1697 C 0.35767 0.55209 0.1722 0.0
C1698 C 0.37658 0.51605 0.226 0.0
C1699 C 0.36776 0.52528 0.24675 0.0
C1700 C 0.38493 0.48886 0.22432 0.0
C1701 C 0.39581 0.47894 0.20332 0.0
C1702 C 0.383 0.46694 0.18584 0.0
C1703 C 0.39346 0.45775 0.16593 0.0
C1704 C 0.41672 0.46027 0.16347 0.0
C1705 C 0.42956 0.47201 0.18093 0.0
C1706 C 0.41916 0.48136 0.20081 0.0
C1707 C 0.34665 0.43589 0.30971 0.0
C1708 C 0.3641 0.41776 0.31575 0.0
C1709 C 0.34993 0.45609 0.293 0.0
C1710 C 0.37096 0.45927 0.28248 0.0
C1711 C 0.38862 0.44162 0.28898 0.0
C1712 C 0.38517 0.42091 0.30533 0.0
C1713 C 0.37407 0.47991 0.26384 0.0
C1714 C 0.38357 0.47105 0.24316 0.0
C1715 C 0.36654 0.50769 0.26577 0.0
C1716 C 0.35765 0.51914 0.28742 0.0
C1717 C 0.37021 0.51728 0.30765 0.0
C1718 C 0.36167 0.52797 0.32799 0.0
C1719 C 0.34063 0.54075 0.32828 0.0
C1720 C 0.32811 0.54291 0.30822 0.0
C1721 C 0.33656 0.53222 0.28785 0.0
H1722 H 0.33405 0.54902 0.34404 0.0
H1723 H 0.42479 0.4531 0.14807 0.0
H1724 H 0.6414 0.05621 0.33586 0.0
H1725 H 0.6347 0.02025 0.30731 0.0
H1726 H 0.58568 0.0724 0.27443 0.0
H1727 H 0.59221 0.10843 0.30286 0.0
H1728 H 0.59814 0.99014 0.28743 0.0
H1729 H 0.6016 0.077 0.22087 0.0
H1730 H 0.61571 0.12514 0.21902 0.0
H1731 H 0.66864 0.10471 0.2658 0.0
H1732 H 0.65495 0.05651 0.26775 0.0
H1733 H 0.58764 0.9165 0.18445 0.0
H1734 H 0.58082 0.95248 0.21297 0.0
H1735 H 0.64817 0.98342 0.20318 0.0
H1736 H 0.6545 0.94868 0.17382 0.0
H1737 H 0.62397 0.0246 0.21214 0.0
H1738 H 0.63237 0.9347 0.24697 0.0
H1739 H 0.62324 0.88549 0.25366 0.0
H1740 H 0.55668 0.90796 0.27466 0.0
H1741 H 0.56536 0.9573 0.26784 0.0
C1742 C 0.62869 0.0597 0.32297 0.0
C1743 C 0.61758 0.08533 0.32142 0.0
C1744 C 0.62483 0.03907 0.30672 0.0
C1745 C 0.60992 0.04385 0.28863 0.0
C1746 C 0.59736 0.06842 0.2882 0.0
C1747 C 0.60113 0.08899 0.30448 0.0
C1748 C 0.6101 0.02533 0.26852 0.0
C1749 C 0.60352 0.99763 0.27088 0.0
C1750 C 0.61786 0.03497 0.24718 0.0
C1751 C 0.62715 0.06329 0.24456 0.0
C1752 C 0.61638 0.08276 0.23054 0.0
C1753 C 0.62426 0.11005 0.22955 0.0
C1754 C 0.64299 0.11798 0.24239 0.0
C1755 C 0.65409 0.09856 0.25595 0.0
C1756 C 0.64629 0.07128 0.257 0.0
C1757 C 0.60077 0.93143 0.18804 0.0
C1758 C 0.62165 0.92967 0.17702 0.0
C1759 C 0.59695 0.95183 0.20449 0.0
C1760 C 0.6142 0.97024 0.21079 0.0
C1761 C 0.63458 0.96947 0.19878 0.0
C1762 C 0.6382 0.94955 0.18195 0.0
C1763 C 0.61177 0.98903 0.23076 0.0
C1764 C 0.6181 0.01697 0.22847 0.0
C1765 C 0.60462 0.97922 0.2524 0.0
C1766 C 0.59944 0.94962 0.25666 0.0
C1767 C 0.61576 0.92911 0.2529 0.0
C1768 C 0.61067 0.90121 0.25672 0.0
C1769 C 0.58937 0.8936 0.26452 0.0
C1770 C 0.57315 0.91388 0.26858 0.0
C1771 C 0.57815 0.94181 0.26475 0.0
H1772 H 0.58546 0.87198 0.26746 0.0
H1773 H 0.64889 0.13917 0.24192 0.0
H1774 H 0.57202 0.83434 0.10669 0.0
H1775 H 0.534 0.81866 0.09692 0.0
H1776 H 0.55143 0.73549 0.11742 0.0
H1777 H 0.58934 0.75063 0.12611 0.0
H1778 H 0.5268 0.73231 0.08177 0.0
H1779 H 0.52195 0.78376 0.15275 0.0
H1780 H 0.52627 0.8251 0.17706 0.0
H1781 H 0.48318 0.87131 0.13235 0.0
H1782 H 0.47881 0.8303 0.10765 0.0
H1783 H 0.42387 0.67289 0.11954 0.0
H1784 H 0.46157 0.69148 0.11322 0.0
H1785 H 0.43304 0.76696 0.08653 0.0
H1786 H 0.3954 0.74877 0.09311 0.0
H1787 H 0.46215 0.77784 0.11933 0.0
H1788 H 0.46236 0.72203 0.05209 0.0
H1789 H 0.45769 0.67931 0.02958 0.0
H1790 H 0.50918 0.63955 0.06899 0.0
H1791 H 0.51396 0.68191 0.09195 0.0
C1792 C 0.56772 0.81271 0.10893 0.0
C1793 C 0.58366 0.79378 0.11725 0.0
C1794 C 0.54599 0.80376 0.10342 0.0
C1795 C 0.53972 0.77592 0.10672 0.0
C1796 C 0.55581 0.75702 0.1146 0.0
C1797 C 0.57752 0.76578 0.11968 0.0
C1798 C 0.51628 0.76627 0.10304 0.0
C1799 C 0.51266 0.74221 0.09006 0.0
C1800 C 0.49771 0.77952 0.11336 0.0
C1801 C 0.50028 0.8041 0.12824 0.0
C1802 C 0.51352 0.8028 0.14805 0.0
C1803 C 0.51596 0.82616 0.1619 0.0
C1804 C 0.50507 0.85084 0.15621 0.0
C1805 C 0.49165 0.8522 0.1367 0.0
C1806 C 0.48918 0.82891 0.12278 0.0
C1807 C 0.42562 0.6932 0.11187 0.0
C1808 C 0.40664 0.70945 0.10705 0.0
C1809 C 0.4472 0.70379 0.1082 0.0
C1810 C 0.45013 0.73064 0.09937 0.0
C1811 C 0.43118 0.74626 0.09343 0.0
C1812 C 0.40967 0.73579 0.09721 0.0
C1813 C 0.47275 0.74349 0.09855 0.0
C1814 C 0.4762 0.76817 0.1107 0.0
C1815 C 0.49116 0.7306 0.08771 0.0
C1816 C 0.48841 0.70512 0.07384 0.0
C1817 C 0.47258 0.70412 0.05606 0.0
C1818 C 0.46993 0.67997 0.04321 0.0
C1819 C 0.4831 0.65671 0.04788 0.0
C1820 C 0.49899 0.65758 0.06539 0.0
C1821 C 0.50169 0.68167 0.07831 0.0
H1822 H 0.48102 0.63804 0.03791 0.0
H1823 H 0.50698 0.8689 0.16695 0.0
loop_
_geom_bond_atom_site_label_1
_geom_bond_atom_site_label_2
_geom_bond_distance
_geom_bond_site_symmetry_2
_ccdc_geom_bond_type
C0 O1 1.306 . S
C0 O3 1.160 . S
O1 C0 1.306 . S
O1 Cd2 2.228 . S
Cd2 O1 2.228 . S
Cd2 O6 2.273 . S
Cd2 O10 2.277 . S
O3 C0 1.160 . S
O3 Cd4 2.203 . S
Cd4 O3 2.203 . S
Cd4 O6 2.411 . S
Cd4 O7 2.333 . S
Cd4 O8 2.352 . S
Cd4 O12 2.277 . S
Cd4 O13 2.356 . S
C5 O10 1.209 . S
C5 O12 1.226 . S
O6 Cd2 2.273 . S
O6 Cd4 2.411 . S
O6 C9 1.320 . S
O7 Cd4 2.333 . S
O7 C9 1.214 . S
O8 Cd4 2.352 . S
O8 C11 1.258 . S
C9 O6 1.320 . S
C9 O7 1.214 . S
O10 Cd2 2.277 . S
O10 C5 1.209 . S
C11 O8 1.258 . S
C11 O13 1.282 . S
O12 Cd4 2.277 . S
O12 C5 1.226 . S
O13 Cd4 2.356 . S
O13 C11 1.282 . S
C14 O15 1.306 . S
C14 O17 1.160 . S
O15 C14 1.306 . S
O15 Cd16 2.228 . S
Cd16 O15 2.228 . S
Cd16 O20 2.273 . S
Cd16 O24 2.277 . S
O17 C14 1.160 . S
O17 Cd18 2.203 . S
Cd18 O17 2.203 . S
Cd18 O20 2.411 . S
Cd18 O21 2.333 . S
Cd18 O22 2.352 . S
Cd18 O26 2.277 . S
Cd18 O27 2.356 . S
C19 O24 1.209 . S
C19 O26 1.226 . S
O20 Cd16 2.273 . S
O20 Cd18 2.411 . S
O20 C23 1.320 . S
O21 Cd18 2.333 . S
O21 C23 1.214 . S
O22 Cd18 2.352 . S
O22 C25 1.258 . S
C23 O20 1.320 . S
C23 O21 1.214 . S
O24 Cd16 2.277 . S
O24 C19 1.209 . S
C25 O22 1.258 . S
C25 O27 1.282 . S
O26 Cd18 2.277 . S
O26 C19 1.226 . S
O27 Cd18 2.356 . S
O27 C25 1.282 . S
C28 O29 1.306 . S
C28 O31 1.160 . S
O29 C28 1.306 . S
O29 Cd30 2.228 . S
Cd30 O29 2.228 . S
Cd30 O34 2.273 . S
Cd30 O38 2.277 . S
O31 C28 1.160 . S
O31 Cd32 2.203 . S
Cd32 O31 2.203 . S
Cd32 O34 2.411 . S
Cd32 O35 2.333 . S
Cd32 O36 2.352 . S
Cd32 O40 2.277 . S
Cd32 O41 2.356 . S
C33 O38 1.209 . S
C33 O40 1.226 . S
O34 Cd30 2.273 . S
O34 Cd32 2.411 . S
O34 C37 1.320 . S
O35 Cd32 2.333 . S
O35 C37 1.214 . S
O36 Cd32 2.352 . S
O36 C39 1.258 . S
C37 O34 1.320 . S
C37 O35 1.214 . S
O38 Cd30 2.277 . S
O38 C33 1.209 . S
C39 O36 1.258 . S
C39 O41 1.282 . S
O40 Cd32 2.277 . S
O40 C33 1.226 . S
O41 Cd32 2.356 . S
O41 C39 1.282 . S
C42 O43 1.306 . S
C42 O45 1.160 . S
O43 C42 1.306 . S
O43 Cd44 2.228 . S
Cd44 O43 2.228 . S
Cd44 O48 2.273 . S
Cd44 O52 2.277 . S
O45 C42 1.160 . S
O45 Cd46 2.203 . S
Cd46 O45 2.203 . S
Cd46 O48 2.411 . S
Cd46 O49 2.333 . S
Cd46 O50 2.352 . S
Cd46 O54 2.277 . S
Cd46 O55 2.356 . S
C47 O52 1.209 . S
C47 O54 1.226 . S
O48 Cd44 2.273 . S
O48 Cd46 2.411 . S
O48 C51 1.320 . S
O49 Cd46 2.333 . S
O49 C51 1.214 . S
O50 Cd46 2.352 . S
O50 C53 1.258 . S
C51 O48 1.320 . S
C51 O49 1.214 . S
O52 Cd44 2.277 . S
O52 C47 1.209 . S
C53 O50 1.258 . S
C53 O55 1.282 . S
O54 Cd46 2.277 . S
O54 C47 1.226 . S
O55 Cd46 2.356 . S
O55 C53 1.282 . S
C56 O57 1.306 . S
C56 O59 1.160 . S
O57 C56 1.306 . S
O57 Cd58 2.228 . S
Cd58 O57 2.228 . S
Cd58 O62 2.273 . S
Cd58 O66 2.277 . S
O59 C56 1.160 . S
O59 Cd60 2.203 . S
Cd60 O59 2.203 . S
Cd60 O62 2.411 . S
Cd60 O63 2.333 . S
Cd60 O64 2.352 . S
Cd60 O68 2.277 . S
Cd60 O69 2.356 . S
C61 O66 1.209 . S
C61 O68 1.226 . S
O62 Cd58 2.273 . S
O62 Cd60 2.411 . S
O62 C65 1.320 . S
O63 Cd60 2.333 . S
O63 C65 1.214 . S
O64 Cd60 2.352 . S
O64 C67 1.258 . S
C65 O62 1.320 . S
C65 O63 1.214 . S
O66 Cd58 2.277 . S
O66 C61 1.209 . S
C67 O64 1.258 . S
C67 O69 1.282 . S
O68 Cd60 2.277 . S
O68 C61 1.226 . S
O69 Cd60 2.356 . S
O69 C67 1.282 . S
C70 O71 1.306 . S
C70 O73 1.160 . S
O71 C70 1.306 . S
O71 Cd72 2.228 . S
Cd72 O71 2.228 . S
Cd72 O76 2.273 . S
Cd72 O80 2.277 . S
O73 C70 1.160 . S
O73 Cd74 2.203 . S
Cd74 O73 2.203 . S
Cd74 O76 2.411 . S
Cd74 O77 2.333 . S
Cd74 O78 2.352 . S
Cd74 O82 2.277 . S
Cd74 O83 2.356 . S
C75 O80 1.209 . S
C75 O82 1.226 . S
O76 Cd72 2.273 . S
O76 Cd74 2.411 . S
O76 C79 1.320 . S
O77 Cd74 2.333 . S
O77 C79 1.214 . S
O78 Cd74 2.352 . S
O78 C81 1.258 . S
C79 O76 1.320 . S
C79 O77 1.214 . S
O80 Cd72 2.277 . S
O80 C75 1.209 . S
C81 O78 1.258 . S
C81 O83 1.282 . S
O82 Cd74 2.277 . S
O82 C75 1.226 . S
O83 Cd74 2.356 . S
O83 C81 1.282 . S
C84 O85 1.306 . S
C84 O87 1.160 . S
O85 C84 1.306 . S
O85 Cd86 2.228 . S
Cd86 O85 2.228 . S
Cd86 O90 2.273 . S
Cd86 O94 2.277 . S
O87 C84 1.160 . S
O87 Cd88 2.203 . S
Cd88 O87 2.203 . S
Cd88 O90 2.411 . S
Cd88 O91 2.333 . S
Cd88 O92 2.352 . S
Cd88 O96 2.277 . S
Cd88 O97 2.356 . S
C89 O94 1.209 . S
C89 O96 1.226 . S
O90 Cd86 2.273 . S
O90 Cd88 2.411 . S
O90 C93 1.320 . S
O91 Cd88 2.333 . S
O91 C93 1.214 . S
O92 Cd88 2.352 . S
O92 C95 1.258 . S
C93 O90 1.320 . S
C93 O91 1.214 . S
O94 Cd86 2.277 . S
O94 C89 1.209 . S
C95 O92 1.258 . S
C95 O97 1.282 . S
O96 Cd88 2.277 . S
O96 C89 1.226 . S
O97 Cd88 2.356 . S
O97 C95 1.282 . S
C98 O99 1.306 . S
C98 O101 1.160 . S
O99 C98 1.306 . S
O99 Cd100 2.228 . S
Cd100 O99 2.228 . S
Cd100 O104 2.273 . S
Cd100 O108 2.277 . S
O101 C98 1.160 . S
O101 Cd102 2.203 . S
Cd102 O101 2.203 . S
Cd102 O104 2.411 . S
Cd102 O105 2.333 . S
Cd102 O106 2.352 . S
Cd102 O110 2.277 . S
Cd102 O111 2.356 . S
C103 O108 1.209 . S
C103 O110 1.226 . S
O104 Cd100 2.273 . S
O104 Cd102 2.411 . S
O104 C107 1.320 . S
O105 Cd102 2.333 . S
O105 C107 1.214 . S
O106 Cd102 2.352 . S
O106 C109 1.258 . S
C107 O104 1.320 . S
C107 O105 1.214 . S
O108 Cd100 2.277 . S
O108 C103 1.209 . S
C109 O106 1.258 . S
C109 O111 1.282 . S
O110 Cd102 2.277 . S
O110 C103 1.226 . S
O111 Cd102 2.356 . S
O111 C109 1.282 . S
C112 O113 1.306 . S
C112 O115 1.160 . S
O113 C112 1.306 . S
O113 Cd114 2.228 . S
Cd114 O113 2.228 . S
Cd114 O118 2.273 . S
Cd114 O122 2.277 . S
O115 C112 1.160 . S
O115 Cd116 2.203 . S
Cd116 O115 2.203 . S
Cd116 O118 2.411 . S
Cd116 O119 2.333 . S
Cd116 O120 2.352 . S
Cd116 O124 2.277 . S
Cd116 O125 2.356 . S
C117 O122 1.209 . S
C117 O124 1.226 . S
O118 Cd114 2.273 . S
O118 Cd116 2.411 . S
O118 C121 1.320 . S
O119 Cd116 2.333 . S
O119 C121 1.214 . S
O120 Cd116 2.352 . S
O120 C123 1.258 . S
C121 O118 1.320 . S
C121 O119 1.214 . S
O122 Cd114 2.277 . S
O122 C117 1.209 . S
C123 O120 1.258 . S
C123 O125 1.282 . S
O124 Cd116 2.277 . S
O124 C117 1.226 . S
O125 Cd116 2.356 . S
O125 C123 1.282 . S
C126 O127 1.306 . S
C126 O129 1.160 . S
O127 C126 1.306 . S
O127 Cd128 2.228 . S
Cd128 O127 2.228 . S
Cd128 O132 2.273 . S
Cd128 O136 2.277 . S
O129 C126 1.160 . S
O129 Cd130 2.203 . S
Cd130 O129 2.203 . S
Cd130 O132 2.411 . S
Cd130 O133 2.333 . S
Cd130 O134 2.352 . S
Cd130 O138 2.277 . S
Cd130 O139 2.356 . S
C131 O136 1.209 . S
C131 O138 1.226 . S
O132 Cd128 2.273 . S
O132 Cd130 2.411 . S
O132 C135 1.320 . S
O133 Cd130 2.333 . S
O133 C135 1.214 . S
O134 Cd130 2.352 . S
O134 C137 1.258 . S
C135 O132 1.320 . S
C135 O133 1.214 . S
O136 Cd128 2.277 . S
O136 C131 1.209 . S
C137 O134 1.258 . S
C137 O139 1.282 . S
O138 Cd130 2.277 . S
O138 C131 1.226 . S
O139 Cd130 2.356 . S
O139 C137 1.282 . S
C140 O141 1.306 . S
C140 O143 1.160 . S
O141 C140 1.306 . S
O141 Cd142 2.228 . S
Cd142 O141 2.228 . S
Cd142 O146 2.273 . S
Cd142 O150 2.277 . S
O143 C140 1.160 . S
O143 Cd144 2.203 . S
Cd144 O143 2.203 . S
Cd144 O146 2.411 . S
Cd144 O147 2.333 . S
Cd144 O148 2.352 . S
Cd144 O152 2.277 . S
Cd144 O153 2.356 . S
C145 O150 1.209 . S
C145 O152 1.226 . S
O146 Cd142 2.273 . S
O146 Cd144 2.411 . S
O146 C149 1.320 . S
O147 Cd144 2.333 . S
O147 C149 1.214 . S
O148 Cd144 2.352 . S
O148 C151 1.258 . S
C149 O146 1.320 . S
C149 O147 1.214 . S
O150 Cd142 2.277 . S
O150 C145 1.209 . S
C151 O148 1.258 . S
C151 O153 1.282 . S
O152 Cd144 2.277 . S
O152 C145 1.226 . S
O153 Cd144 2.356 . S
O153 C151 1.282 . S
C154 O155 1.306 . S
C154 O157 1.160 . S
O155 C154 1.306 . S
O155 Cd156 2.228 . S
Cd156 O155 2.228 . S
Cd156 O160 2.273 . S
Cd156 O164 2.277 . S
O157 C154 1.160 . S
O157 Cd158 2.203 . S
Cd158 O157 2.203 . S
Cd158 O160 2.411 . S
Cd158 O161 2.333 . S
Cd158 O162 2.352 . S
Cd158 O166 2.277 . S
Cd158 O167 2.356 . S
C159 O164 1.209 . S
C159 O166 1.226 . S
O160 Cd156 2.273 . S
O160 Cd158 2.411 . S
O160 C163 1.320 . S
O161 Cd158 2.333 . S
O161 C163 1.214 . S
O162 Cd158 2.352 . S
O162 C165 1.258 . S
C163 O160 1.320 . S
C163 O161 1.214 . S
O164 Cd156 2.277 . S
O164 C159 1.209 . S
C165 O162 1.258 . S
C165 O167 1.282 . S
O166 Cd158 2.277 . S
O166 C159 1.226 . S
O167 Cd158 2.356 . S
O167 C165 1.282 . S
C168 O169 1.306 . S
C168 O171 1.160 . S
O169 C168 1.306 . S
O169 Cd170 2.228 . S
Cd170 O169 2.228 . S
Cd170 O174 2.273 . S
Cd170 O178 2.277 . S
O171 C168 1.160 . S
O171 Cd172 2.203 . S
Cd172 O171 2.203 . S
Cd172 O174 2.411 . S
Cd172 O175 2.333 . S
Cd172 O176 2.352 . S
Cd172 O180 2.277 . S
Cd172 O181 2.356 . S
C173 O178 1.209 . S
C173 O180 1.226 . S
O174 Cd170 2.273 . S
O174 Cd172 2.411 . S
O174 C177 1.320 . S
O175 Cd172 2.333 . S
O175 C177 1.214 . S
O176 Cd172 2.352 . S
O176 C179 1.258 . S
C177 O174 1.320 . S
C177 O175 1.214 . S
O178 Cd170 2.277 . S
O178 C173 1.209 . S
C179 O176 1.258 . S
C179 O181 1.282 . S
O180 Cd172 2.277 . S
O180 C173 1.226 . S
O181 Cd172 2.356 . S
O181 C179 1.282 . S
C182 O183 1.306 . S
C182 O185 1.160 . S
O183 C182 1.306 . S
O183 Cd184 2.228 . S
Cd184 O183 2.228 . S
Cd184 O188 2.273 . S
Cd184 O192 2.277 . S
O185 C182 1.160 . S
O185 Cd186 2.203 . S
Cd186 O185 2.203 . S
Cd186 O188 2.411 . S
Cd186 O189 2.333 . S
Cd186 O190 2.352 . S
Cd186 O194 2.277 . S
Cd186 O195 2.356 . S
C187 O192 1.209 . S
C187 O194 1.226 . S
O188 Cd184 2.273 . S
O188 Cd186 2.411 . S
O188 C191 1.320 . S
O189 Cd186 2.333 . S
O189 C191 1.214 . S
O190 Cd186 2.352 . S
O190 C193 1.258 . S
C191 O188 1.320 . S
C191 O189 1.214 . S
O192 Cd184 2.277 . S
O192 C187 1.209 . S
C193 O190 1.258 . S
C193 O195 1.282 . S
O194 Cd186 2.277 . S
O194 C187 1.226 . S
O195 Cd186 2.356 . S
O195 C193 1.282 . S
C196 O197 1.306 . S
C196 O199 1.160 . S
O197 C196 1.306 . S
O197 Cd198 2.228 . S
Cd198 O197 2.228 . S
Cd198 O202 2.273 . S
Cd198 O206 2.277 . S
O199 C196 1.160 . S
O199 Cd200 2.203 . S
Cd200 O199 2.203 . S
Cd200 O202 2.411 . S
Cd200 O203 2.333 . S
Cd200 O204 2.352 . S
Cd200 O208 2.277 . S
Cd200 O209 2.356 . S
C201 O206 1.209 . S
C201 O208 1.226 . S
O202 Cd198 2.273 . S
O202 Cd200 2.411 . S
O202 C205 1.320 . S
O203 Cd200 2.333 . S
O203 C205 1.214 . S
O204 Cd200 2.352 . S
O204 C207 1.258 . S
C205 O202 1.320 . S
C205 O203 1.214 . S
O206 Cd198 2.277 . S
O206 C201 1.209 . S
C207 O204 1.258 . S
C207 O209 1.282 . S
O208 Cd200 2.277 . S
O208 C201 1.226 . S
O209 Cd200 2.356 . S
O209 C207 1.282 . S
C210 O211 1.306 . S
C210 O213 1.160 . S
O211 C210 1.306 . S
O211 Cd212 2.228 . S
Cd212 O211 2.228 . S
Cd212 O216 2.273 . S
Cd212 O220 2.277 . S
O213 C210 1.160 . S
O213 Cd214 2.203 . S
Cd214 O213 2.203 . S
Cd214 O216 2.411 . S
Cd214 O217 2.333 . S
Cd214 O218 2.352 . S
Cd214 O222 2.277 . S
Cd214 O223 2.356 . S
C215 O220 1.209 . S
C215 O222 1.226 . S
O216 Cd212 2.273 . S
O216 Cd214 2.411 . S
O216 C219 1.320 . S
O217 Cd214 2.333 . S
O217 C219 1.214 . S
O218 Cd214 2.352 . S
O218 C221 1.258 . S
C219 O216 1.320 . S
C219 O217 1.214 . S
O220 Cd212 2.277 . S
O220 C215 1.209 . S
C221 O218 1.258 . S
C221 O223 1.282 . S
O222 Cd214 2.277 . S
O222 C215 1.226 . S
O223 Cd214 2.356 . S
O223 C221 1.282 . S
H224 C242 0.951 . S
H225 C244 0.951 . S
H226 C246 0.950 . S
H227 C247 0.950 . S
H228 C249 0.950 . S
H229 C252 0.950 . S
H230 C253 0.950 . S
H231 C255 0.950 . S
H232 C256 0.950 . S
H233 C257 0.951 . S
H234 C259 0.951 . S
H235 C261 0.950 . S
H236 C262 0.950 . S
H237 C264 0.950 . S
H238 C267 0.950 . S
H239 C268 0.950 . S
H240 C270 0.950 . S
H241 C271 0.950 . S
C242 H224 0.951 . S
C242 C243 1.366 . S
C242 C244 1.388 . S
C243 C242 1.366 . S
C243 C247 1.385 . S
C244 H225 0.951 . S
C244 C242 1.388 . S
C244 C245 1.366 . S
C245 C244 1.366 . S
C245 C246 1.414 . S
C245 C248 1.499 . S
C246 H226 0.950 . S
C246 C245 1.414 . S
C246 C247 1.374 . S
C247 H227 0.950 . S
C247 C243 1.385 . S
C247 C246 1.374 . S
C248 C245 1.499 . S
C248 C249 1.373 . S
C248 C250 1.389 . S
C249 H228 0.950 . S
C249 C248 1.373 . S
C249 C265 1.377 . S
C250 C248 1.389 . S
C250 C251 1.524 . S
C250 C264 1.377 . S
C251 C250 1.524 . S
C251 C252 1.397 . S
C251 C256 1.363 . S
C252 H229 0.950 . S
C252 C251 1.397 . S
C252 C253 1.334 . S
C253 H230 0.950 . S
C253 C252 1.334 . S
C253 C254 1.287 . S
C254 C253 1.287 . S
C254 C255 1.524 . S
C254 H273 0.913 . S
C255 H231 0.950 . S
C255 C254 1.524 . S
C255 C256 1.415 . S
C256 H232 0.950 . S
C256 C251 1.363 . S
C256 C255 1.415 . S
C257 H233 0.951 . S
C257 C258 1.366 . S
C257 C259 1.388 . S
C258 C257 1.366 . S
C258 C262 1.385 . S
C259 H234 0.951 . S
C259 C257 1.388 . S
C259 C260 1.366 . S
C260 C259 1.366 . S
C260 C261 1.414 . S
C260 C263 1.499 . S
C261 H235 0.950 . S
C261 C260 1.414 . S
C261 C262 1.374 . S
C262 H236 0.950 . S
C262 C258 1.385 . S
C262 C261 1.374 . S
C263 C260 1.499 . S
C263 C264 1.373 . S
C263 C265 1.389 . S
C264 H237 0.950 . S
C264 C250 1.377 . S
C264 C263 1.373 . S
C265 C249 1.377 . S
C265 C263 1.389 . S
C265 C266 1.524 . S
C266 C265 1.524 . S
C266 C267 1.397 . S
C266 C271 1.363 . S
C267 H238 0.950 . S
C267 C266 1.397 . S
C267 C268 1.334 . S
C268 H239 0.950 . S
C268 C267 1.334 . S
C268 C269 1.287 . S
C269 C268 1.287 . S
C269 C270 1.524 . S
C269 H272 0.999 . S
C270 H240 0.950 . S
C270 C269 1.524 . S
C270 C271 1.415 . S
C271 H241 0.950 . S
C271 C266 1.363 . S
C271 C270 1.415 . S
H272 C269 0.999 . S
H273 C254 0.913 . S
H274 C292 0.951 . S
H275 C294 0.951 . S
H276 C296 0.950 . S
H277 C297 0.950 . S
H278 C299 0.950 . S
H279 C302 0.950 . S
H280 C303 0.950 . S
H281 C305 0.950 . S
H282 C306 0.950 . S
H283 C307 0.951 . S
H284 C309 0.951 . S
H285 C311 0.950 . S
H286 C312 0.950 . S
H287 C314 0.950 . S
H288 C317 0.950 . S
H289 C318 0.950 . S
H290 C320 0.950 . S
H291 C321 0.950 . S
C292 H274 0.951 . S
C292 C293 1.366 . S
C292 C294 1.388 . S
C293 C292 1.366 . S
C293 C297 1.385 . S
C294 H275 0.951 . S
C294 C292 1.388 . S
C294 C295 1.366 . S
C295 C294 1.366 . S
C295 C296 1.414 . S
C295 C298 1.499 . S
C296 H276 0.950 . S
C296 C295 1.414 . S
C296 C297 1.374 . S
C297 H277 0.950 . S
C297 C293 1.385 . S
C297 C296 1.374 . S
C298 C295 1.499 . S
C298 C299 1.373 . S
C298 C300 1.389 . S
C299 H278 0.950 . S
C299 C298 1.373 . S
C299 C315 1.377 . S
C300 C298 1.389 . S
C300 C301 1.524 . S
C300 C314 1.377 . S
C301 C300 1.524 . S
C301 C302 1.397 . S
C301 C306 1.363 . S
C302 H279 0.950 . S
C302 C301 1.397 . S
C302 C303 1.334 . S
C303 H280 0.950 . S
C303 C302 1.334 . S
C303 C304 1.287 . S
C304 C303 1.287 . S
C304 C305 1.524 . S
C304 H323 0.913 . S
C305 H281 0.950 . S
C305 C304 1.524 . S
C305 C306 1.415 . S
C306 H282 0.950 . S
C306 C301 1.363 . S
C306 C305 1.415 . S
C307 H283 0.951 . S
C307 C308 1.366 . S
C307 C309 1.388 . S
C308 C307 1.366 . S
C308 C312 1.385 . S
C309 H284 0.951 . S
C309 C307 1.388 . S
C309 C310 1.366 . S
C310 C309 1.366 . S
C310 C311 1.414 . S
C310 C313 1.499 . S
C311 H285 0.950 . S
C311 C310 1.414 . S
C311 C312 1.374 . S
C312 H286 0.950 . S
C312 C308 1.385 . S
C312 C311 1.374 . S
C313 C310 1.499 . S
C313 C314 1.373 . S
C313 C315 1.389 . S
C314 H287 0.950 . S
C314 C300 1.377 . S
C314 C313 1.373 . S
C315 C299 1.377 . S
C315 C313 1.389 . S
C315 C316 1.524 . S
C316 C315 1.524 . S
C316 C317 1.397 . S
C316 C321 1.363 . S
C317 H288 0.950 . S
C317 C316 1.397 . S
C317 C318 1.334 . S
C318 H289 0.950 . S
C318 C317 1.334 . S
C318 C319 1.287 . S
C319 C318 1.287 . S
C319 C320 1.524 . S
C319 H322 0.999 . S
C320 H290 0.950 . S
C320 C319 1.524 . S
C320 C321 1.415 . S
C321 H291 0.950 . S
C321 C316 1.363 . S
C321 C320 1.415 . S
H322 C319 0.999 . S
H323 C304 0.913 . S
H324 C342 0.951 . S
H325 C344 0.951 . S
H326 C346 0.950 . S
H327 C347 0.950 . S
H328 C349 0.950 . S
H329 C352 0.950 . S
H330 C353 0.950 . S
H331 C355 0.950 . S
H332 C356 0.950 . S
H333 C357 0.951 . S
H334 C359 0.951 . S
H335 C361 0.950 . S
H336 C362 0.950 . S
H337 C364 0.950 . S
H338 C367 0.950 . S
H339 C368 0.950 . S
H340 C370 0.950 . S
H341 C371 0.950 . S
C342 H324 0.951 . S
C342 C343 1.366 . S
C342 C344 1.388 . S
C343 C342 1.366 . S
C343 C347 1.385 . S
C344 H325 0.951 . S
C344 C342 1.388 . S
C344 C345 1.366 . S
C345 C344 1.366 . S
C345 C346 1.414 . S
C345 C348 1.499 . S
C346 H326 0.950 . S
C346 C345 1.414 . S
C346 C347 1.374 . S
C347 H327 0.950 . S
C347 C343 1.385 . S
C347 C346 1.374 . S
C348 C345 1.499 . S
C348 C349 1.373 . S
C348 C350 1.389 . S
C349 H328 0.950 . S
C349 C348 1.373 . S
C349 C365 1.377 . S
C350 C348 1.389 . S
C350 C351 1.524 . S
C350 C364 1.377 . S
C351 C350 1.524 . S
C351 C352 1.397 . S
C351 C356 1.363 . S
C352 H329 0.950 . S
C352 C351 1.397 . S
C352 C353 1.334 . S
C353 H330 0.950 . S
C353 C352 1.334 . S
C353 C354 1.287 . S
C354 C353 1.287 . S
C354 C355 1.524 . S
C354 H373 0.913 . S
C355 H331 0.950 . S
C355 C354 1.524 . S
C355 C356 1.415 . S
C356 H332 0.950 . S
C356 C351 1.363 . S
C356 C355 1.415 . S
C357 H333 0.951 . S
C357 C358 1.366 . S
C357 C359 1.388 . S
C358 C357 1.366 . S
C358 C362 1.385 . S
C359 H334 0.951 . S
C359 C357 1.388 . S
C359 C360 1.366 . S
C360 C359 1.366 . S
C360 C361 1.414 . S
C360 C363 1.499 . S
C361 H335 0.950 . S
C361 C360 1.414 . S
C361 C362 1.374 . S
C362 H336 0.950 . S
C362 C358 1.385 . S
C362 C361 1.374 . S
C363 C360 1.499 . S
C363 C364 1.373 . S
C363 C365 1.389 . S
C364 H337 0.950 . S
C364 C350 1.377 . S
C364 C363 1.373 . S
C365 C349 1.377 . S
C365 C363 1.389 . S
C365 C366 1.524 . S
C366 C365 1.524 . S
C366 C367 1.397 . S
C366 C371 1.363 . S
C367 H338 0.950 . S
C367 C366 1.397 . S
C367 C368 1.334 . S
C368 H339 0.950 . S
C368 C367 1.334 . S
C368 C369 1.287 . S
C369 C368 1.287 . S
C369 C370 1.524 . S
C369 H372 0.999 . S
C370 H340 0.950 . S
C370 C369 1.524 . S
C370 C371 1.415 . S
C371 H341 0.950 . S
C371 C366 1.363 . S
C371 C370 1.415 . S
H372 C369 0.999 . S
H373 C354 0.913 . S
H374 C392 0.951 . S
H375 C394 0.951 . S
H376 C396 0.950 . S
H377 C397 0.950 . S
H378 C399 0.950 . S
H379 C402 0.950 . S
H380 C403 0.950 . S
H381 C405 0.950 . S
H382 C406 0.950 . S
H383 C407 0.951 . S
H384 C409 0.951 . S
H385 C411 0.950 . S
H386 C412 0.950 . S
H387 C414 0.950 . S
H388 C417 0.950 . S
H389 C418 0.950 . S
H390 C420 0.950 . S
H391 C421 0.950 . S
C392 H374 0.951 . S
C392 C393 1.366 . S
C392 C394 1.388 . S
C393 C392 1.366 . S
C393 C397 1.385 . S
C394 H375 0.951 . S
C394 C392 1.388 . S
C394 C395 1.366 . S
C395 C394 1.366 . S
C395 C396 1.414 . S
C395 C398 1.499 . S
C396 H376 0.950 . S
C396 C395 1.414 . S
C396 C397 1.374 . S
C397 H377 0.950 . S
C397 C393 1.385 . S
C397 C396 1.374 . S
C398 C395 1.499 . S
C398 C399 1.373 . S
C398 C400 1.389 . S
C399 H378 0.950 . S
C399 C398 1.373 . S
C399 C415 1.377 . S
C400 C398 1.389 . S
C400 C401 1.524 . S
C400 C414 1.377 . S
C401 C400 1.524 . S
C401 C402 1.397 . S
C401 C406 1.363 . S
C402 H379 0.950 . S
C402 C401 1.397 . S
C402 C403 1.334 . S
C403 H380 0.950 . S
C403 C402 1.334 . S
C403 C404 1.287 . S
C404 C403 1.287 . S
C404 C405 1.524 . S
C404 H423 0.913 . S
C405 H381 0.950 . S
C405 C404 1.524 . S
C405 C406 1.415 . S
C406 H382 0.950 . S
C406 C401 1.363 . S
C406 C405 1.415 . S
C407 H383 0.951 . S
C407 C408 1.366 . S
C407 C409 1.388 . S
C408 C407 1.366 . S
C408 C412 1.385 . S
C409 H384 0.951 . S
C409 C407 1.388 . S
C409 C410 1.366 . S
C410 C409 1.366 . S
C410 C411 1.414 . S
C410 C413 1.499 . S
C411 H385 0.950 . S
C411 C410 1.414 . S
C411 C412 1.374 . S
C412 H386 0.950 . S
C412 C408 1.385 . S
C412 C411 1.374 . S
C413 C410 1.499 . S
C413 C414 1.373 . S
C413 C415 1.389 . S
C414 H387 0.950 . S
C414 C400 1.377 . S
C414 C413 1.373 . S
C415 C399 1.377 . S
C415 C413 1.389 . S
C415 C416 1.524 . S
C416 C415 1.524 . S
C416 C417 1.397 . S
C416 C421 1.363 . S
C417 H388 0.950 . S
C417 C416 1.397 . S
C417 C418 1.334 . S
C418 H389 0.950 . S
C418 C417 1.334 . S
C418 C419 1.287 . S
C419 C418 1.287 . S
C419 C420 1.524 . S
C419 H422 0.999 . S
C420 H390 0.950 . S
C420 C419 1.524 . S
C420 C421 1.415 . S
C421 H391 0.950 . S
C421 C416 1.363 . S
C421 C420 1.415 . S
H422 C419 0.999 . S
H423 C404 0.913 . S
H424 C442 0.951 . S
H425 C444 0.951 . S
H426 C446 0.950 . S
H427 C447 0.950 . S
H428 C449 0.950 . S
H429 C452 0.950 . S
H430 C453 0.950 . S
H431 C455 0.950 . S
H432 C456 0.950 . S
H433 C457 0.951 . S
H434 C459 0.951 . S
H435 C461 0.950 . S
H436 C462 0.950 . S
H437 C464 0.950 . S
H438 C467 0.950 . S
H439 C468 0.950 . S
H440 C470 0.950 . S
H441 C471 0.950 . S
C442 H424 0.951 . S
C442 C443 1.366 . S
C442 C444 1.388 . S
C443 C442 1.366 . S
C443 C447 1.385 . S
C444 H425 0.951 . S
C444 C442 1.388 . S
C444 C445 1.366 . S
C445 C444 1.366 . S
C445 C446 1.414 . S
C445 C448 1.499 . S
C446 H426 0.950 . S
C446 C445 1.414 . S
C446 C447 1.374 . S
C447 H427 0.950 . S
C447 C443 1.385 . S
C447 C446 1.374 . S
C448 C445 1.499 . S
C448 C449 1.373 . S
C448 C450 1.389 . S
C449 H428 0.950 . S
C449 C448 1.373 . S
C449 C465 1.377 . S
C450 C448 1.389 . S
C450 C451 1.524 . S
C450 C464 1.377 . S
C451 C450 1.524 . S
C451 C452 1.397 . S
C451 C456 1.363 . S
C452 H429 0.950 . S
C452 C451 1.397 . S
C452 C453 1.334 . S
C453 H430 0.950 . S
C453 C452 1.334 . S
C453 C454 1.287 . S
C454 C453 1.287 . S
C454 C455 1.524 . S
C454 H473 0.913 . S
C455 H431 0.950 . S
C455 C454 1.524 . S
C455 C456 1.415 . S
C456 H432 0.950 . S
C456 C451 1.363 . S
C456 C455 1.415 . S
C457 H433 0.951 . S
C457 C458 1.366 . S
C457 C459 1.388 . S
C458 C457 1.366 . S
C458 C462 1.385 . S
C459 H434 0.951 . S
C459 C457 1.388 . S
C459 C460 1.366 . S
C460 C459 1.366 . S
C460 C461 1.414 . S
C460 C463 1.499 . S
C461 H435 0.950 . S
C461 C460 1.414 . S
C461 C462 1.374 . S
C462 H436 0.950 . S
C462 C458 1.385 . S
C462 C461 1.374 . S
C463 C460 1.499 . S
C463 C464 1.373 . S
C463 C465 1.389 . S
C464 H437 0.950 . S
C464 C450 1.377 . S
C464 C463 1.373 . S
C465 C449 1.377 . S
C465 C463 1.389 . S
C465 C466 1.524 . S
C466 C465 1.524 . S
C466 C467 1.397 . S
C466 C471 1.363 . S
C467 H438 0.950 . S
C467 C466 1.397 . S
C467 C468 1.334 . S
C468 H439 0.950 . S
C468 C467 1.334 . S
C468 C469 1.287 . S
C469 C468 1.287 . S
C469 C470 1.524 . S
C469 H472 0.999 . S
C470 H440 0.950 . S
C470 C469 1.524 . S
C470 C471 1.415 . S
C471 H441 0.950 . S
C471 C466 1.363 . S
C471 C470 1.415 . S
H472 C469 0.999 . S
H473 C454 0.913 . S
H474 C492 0.951 . S
H475 C494 0.951 . S
H476 C496 0.950 . S
H477 C497 0.950 . S
H478 C499 0.950 . S
H479 C502 0.950 . S
H480 C503 0.950 . S
H481 C505 0.950 . S
H482 C506 0.950 . S
H483 C507 0.951 . S
H484 C509 0.951 . S
H485 C511 0.950 . S
H486 C512 0.950 . S
H487 C514 0.950 . S
H488 C517 0.950 . S
H489 C518 0.950 . S
H490 C520 0.950 . S
H491 C521 0.950 . S
C492 H474 0.951 . S
C492 C493 1.366 . S
C492 C494 1.388 . S
C493 C492 1.366 . S
C493 C497 1.385 . S
C494 H475 0.951 . S
C494 C492 1.388 . S
C494 C495 1.366 . S
C495 C494 1.366 . S
C495 C496 1.414 . S
C495 C498 1.499 . S
C496 H476 0.950 . S
C496 C495 1.414 . S
C496 C497 1.374 . S
C497 H477 0.950 . S
C497 C493 1.385 . S
C497 C496 1.374 . S
C498 C495 1.499 . S
C498 C499 1.373 . S
C498 C500 1.389 . S
C499 H478 0.950 . S
C499 C498 1.373 . S
C499 C515 1.377 . S
C500 C498 1.389 . S
C500 C501 1.524 . S
C500 C514 1.377 . S
C501 C500 1.524 . S
C501 C502 1.397 . S
C501 C506 1.363 . S
C502 H479 0.950 . S
C502 C501 1.397 . S
C502 C503 1.334 . S
C503 H480 0.950 . S
C503 C502 1.334 . S
C503 C504 1.287 . S
C504 C503 1.287 . S
C504 C505 1.524 . S
C504 H523 0.913 . S
C505 H481 0.950 . S
C505 C504 1.524 . S
C505 C506 1.415 . S
C506 H482 0.950 . S
C506 C501 1.363 . S
C506 C505 1.415 . S
C507 H483 0.951 . S
C507 C508 1.366 . S
C507 C509 1.388 . S
C508 C507 1.366 . S
C508 C512 1.385 . S
C509 H484 0.951 . S
C509 C507 1.388 . S
C509 C510 1.366 . S
C510 C509 1.366 . S
C510 C511 1.414 . S
C510 C513 1.499 . S
C511 H485 0.950 . S
C511 C510 1.414 . S
C511 C512 1.374 . S
C512 H486 0.950 . S
C512 C508 1.385 . S
C512 C511 1.374 . S
C513 C510 1.499 . S
C513 C514 1.373 . S
C513 C515 1.389 . S
C514 H487 0.950 . S
C514 C500 1.377 . S
C514 C513 1.373 . S
C515 C499 1.377 . S
C515 C513 1.389 . S
C515 C516 1.524 . S
C516 C515 1.524 . S
C516 C517 1.397 . S
C516 C521 1.363 . S
C517 H488 0.950 . S
C517 C516 1.397 . S
C517 C518 1.334 . S
C518 H489 0.950 . S
C518 C517 1.334 . S
C518 C519 1.287 . S
C519 C518 1.287 . S
C519 C520 1.524 . S
C519 H522 0.999 . S
C520 H490 0.950 . S
C520 C519 1.524 . S
C520 C521 1.415 . S
C521 H491 0.950 . S
C521 C516 1.363 . S
C521 C520 1.415 . S
H522 C519 0.999 . S
H523 C504 0.913 . S
H524 C542 0.951 . S
H525 C544 0.951 . S
H526 C546 0.950 . S
H527 C547 0.950 . S
H528 C549 0.950 . S
H529 C552 0.950 . S
H530 C553 0.950 . S
H531 C555 0.950 . S
H532 C556 0.950 . S
H533 C557 0.951 . S
H534 C559 0.951 . S
H535 C561 0.950 . S
H536 C562 0.950 . S
H537 C564 0.950 . S
H538 C567 0.950 . S
H539 C568 0.950 . S
H540 C570 0.950 . S
H541 C571 0.950 . S
C542 H524 0.951 . S
C542 C543 1.366 . S
C542 C544 1.388 . S
C543 C542 1.366 . S
C543 C547 1.385 . S
C544 H525 0.951 . S
C544 C542 1.388 . S
C544 C545 1.366 . S
C545 C544 1.366 . S
C545 C546 1.414 . S
C545 C548 1.499 . S
C546 H526 0.950 . S
C546 C545 1.414 . S
C546 C547 1.374 . S
C547 H527 0.950 . S
C547 C543 1.385 . S
C547 C546 1.374 . S
C548 C545 1.499 . S
C548 C549 1.373 . S
C548 C550 1.389 . S
C549 H528 0.950 . S
C549 C548 1.373 . S
C549 C565 1.377 . S
C550 C548 1.389 . S
C550 C551 1.524 . S
C550 C564 1.377 . S
C551 C550 1.524 . S
C551 C552 1.397 . S
C551 C556 1.363 . S
C552 H529 0.950 . S
C552 C551 1.397 . S
C552 C553 1.334 . S
C553 H530 0.950 . S
C553 C552 1.334 . S
C553 C554 1.287 . S
C554 C553 1.287 . S
C554 C555 1.524 . S
C554 H573 0.913 . S
C555 H531 0.950 . S
C555 C554 1.524 . S
C555 C556 1.415 . S
C556 H532 0.950 . S
C556 C551 1.363 . S
C556 C555 1.415 . S
C557 H533 0.951 . S
C557 C558 1.366 . S
C557 C559 1.388 . S
C558 C557 1.366 . S
C558 C562 1.385 . S
C559 H534 0.951 . S
C559 C557 1.388 . S
C559 C560 1.366 . S
C560 C559 1.366 . S
C560 C561 1.414 . S
C560 C563 1.499 . S
C561 H535 0.950 . S
C561 C560 1.414 . S
C561 C562 1.374 . S
C562 H536 0.950 . S
C562 C558 1.385 . S
C562 C561 1.374 . S
C563 C560 1.499 . S
C563 C564 1.373 . S
C563 C565 1.389 . S
C564 H537 0.950 . S
C564 C550 1.377 . S
C564 C563 1.373 . S
C565 C549 1.377 . S
C565 C563 1.389 . S
C565 C566 1.524 . S
C566 C565 1.524 . S
C566 C567 1.397 . S
C566 C571 1.363 . S
C567 H538 0.950 . S
C567 C566 1.397 . S
C567 C568 1.334 . S
C568 H539 0.950 . S
C568 C567 1.334 . S
C568 C569 1.287 . S
C569 C568 1.287 . S
C569 C570 1.524 . S
C569 H572 0.999 . S
C570 H540 0.950 . S
C570 C569 1.524 . S
C570 C571 1.415 . S
C571 H541 0.950 . S
C571 C566 1.363 . S
C571 C570 1.415 . S
H572 C569 0.999 . S
H573 C554 0.913 . S
H574 C592 0.951 . S
H575 C594 0.951 . S
H576 C596 0.950 . S
H577 C597 0.950 . S
H578 C599 0.950 . S
H579 C602 0.950 . S
H580 C603 0.950 . S
H581 C605 0.950 . S
H582 C606 0.950 . S
H583 C607 0.951 . S
H584 C609 0.951 . S
H585 C611 0.950 . S
H586 C612 0.950 . S
H587 C614 0.950 . S
H588 C617 0.950 . S
H589 C618 0.950 . S
H590 C620 0.950 . S
H591 C621 0.950 . S
C592 H574 0.951 . S
C592 C593 1.366 . S
C592 C594 1.388 . S
C593 C592 1.366 . S
C593 C597 1.385 . S
C594 H575 0.951 . S
C594 C592 1.388 . S
C594 C595 1.366 . S
C595 C594 1.366 . S
C595 C596 1.414 . S
C595 C598 1.499 . S
C596 H576 0.950 . S
C596 C595 1.414 . S
C596 C597 1.374 . S
C597 H577 0.950 . S
C597 C593 1.385 . S
C597 C596 1.374 . S
C598 C595 1.499 . S
C598 C599 1.373 . S
C598 C600 1.389 . S
C599 H578 0.950 . S
C599 C598 1.373 . S
C599 C615 1.377 . S
C600 C598 1.389 . S
C600 C601 1.524 . S
C600 C614 1.377 . S
C601 C600 1.524 . S
C601 C602 1.397 . S
C601 C606 1.363 . S
C602 H579 0.950 . S
C602 C601 1.397 . S
C602 C603 1.334 . S
C603 H580 0.950 . S
C603 C602 1.334 . S
C603 C604 1.287 . S
C604 C603 1.287 . S
C604 C605 1.524 . S
C604 H623 0.913 . S
C605 H581 0.950 . S
C605 C604 1.524 . S
C605 C606 1.415 . S
C606 H582 0.950 . S
C606 C601 1.363 . S
C606 C605 1.415 . S
C607 H583 0.951 . S
C607 C608 1.366 . S
C607 C609 1.388 . S
C608 C607 1.366 . S
C608 C612 1.385 . S
C609 H584 0.951 . S
C609 C607 1.388 . S
C609 C610 1.366 . S
C610 C609 1.366 . S
C610 C611 1.414 . S
C610 C613 1.499 . S
C611 H585 0.950 . S
C611 C610 1.414 . S
C611 C612 1.374 . S
C612 H586 0.950 . S
C612 C608 1.385 . S
C612 C611 1.374 . S
C613 C610 1.499 . S
C613 C614 1.373 . S
C613 C615 1.389 . S
C614 H587 0.950 . S
C614 C600 1.377 . S
C614 C613 1.373 . S
C615 C599 1.377 . S
C615 C613 1.389 . S
C615 C616 1.524 . S
C616 C615 1.524 . S
C616 C617 1.397 . S
C616 C621 1.363 . S
C617 H588 0.950 . S
C617 C616 1.397 . S
C617 C618 1.334 . S
C618 H589 0.950 . S
C618 C617 1.334 . S
C618 C619 1.287 . S
C619 C618 1.287 . S
C619 C620 1.524 . S
C619 H622 0.999 . S
C620 H590 0.950 . S
C620 C619 1.524 . S
C620 C621 1.415 . S
C621 H591 0.950 . S
C621 C616 1.363 . S
C621 C620 1.415 . S
H622 C619 0.999 . S
H623 C604 0.913 . S
H624 C642 0.951 . S
H625 C644 0.951 . S
H626 C646 0.950 . S
H627 C647 0.950 . S
H628 C649 0.950 1_545 S
H629 C652 0.950 . S
H630 C653 0.950 . S
H631 C655 0.950 . S
H632 C656 0.950 . S
H633 C657 0.951 . S
H634 C659 0.951 . S
H635 C661 0.950 . S
H636 C662 0.950 . S
H637 C664 0.950 1_565 S
H638 C667 0.950 . S
H639 C668 0.950 . S
H640 C670 0.950 . S
H641 C671 0.950 . S
C642 H624 0.951 . S
C642 C643 1.366 . S
C642 C644 1.388 . S
C643 C642 1.366 . S
C643 C647 1.385 . S
C644 H625 0.951 . S
C644 C642 1.388 . S
C644 C645 1.366 . S
C645 C644 1.366 . S
C645 C646 1.414 . S
C645 C648 1.499 . S
C646 H626 0.950 . S
C646 C645 1.414 . S
C646 C647 1.374 . S
C647 H627 0.950 . S
C647 C643 1.385 . S
C647 C646 1.374 . S
C648 C645 1.499 . S
C648 C649 1.372 . S
C648 C650 1.389 . S
C649 H628 0.950 1_565 S
C649 C648 1.372 . S
C649 C665 1.377 1_565 S
C650 C648 1.389 . S
C650 C651 1.524 . S
C650 C664 1.377 1_565 S
C651 C650 1.524 . S
C651 C652 1.397 . S
C651 C656 1.363 . S
C652 H629 0.950 . S
C652 C651 1.397 . S
C652 C653 1.334 . S
C653 H630 0.950 . S
C653 C652 1.334 . S
C653 C654 1.287 . S
C654 C653 1.287 . S
C654 C655 1.524 . S
C654 H673 0.913 . S
C655 H631 0.950 . S
C655 C654 1.524 . S
C655 C656 1.415 . S
C656 H632 0.950 . S
C656 C651 1.363 . S
C656 C655 1.415 . S
C657 H633 0.951 . S
C657 C658 1.366 . S
C657 C659 1.388 . S
C658 C657 1.366 . S
C658 C662 1.385 . S
C659 H634 0.951 . S
C659 C657 1.388 . S
C659 C660 1.366 . S
C660 C659 1.366 . S
C660 C661 1.414 . S
C660 C663 1.499 . S
C661 H635 0.950 . S
C661 C660 1.414 . S
C661 C662 1.374 . S
C662 H636 0.950 . S
C662 C658 1.385 . S
C662 C661 1.374 . S
C663 C660 1.499 . S
C663 C664 1.372 . S
C663 C665 1.389 . S
C664 H637 0.950 1_545 S
C664 C650 1.377 1_545 S
C664 C663 1.372 . S
C665 C649 1.377 1_545 S
C665 C663 1.389 . S
C665 C666 1.524 . S
C666 C665 1.524 . S
C666 C667 1.397 . S
C666 C671 1.363 . S
C667 H638 0.950 . S
C667 C666 1.397 . S
C667 C668 1.334 . S
C668 H639 0.950 . S
C668 C667 1.334 . S
C668 C669 1.287 . S
C669 C668 1.287 . S
C669 C670 1.524 . S
C669 H672 0.999 . S
C670 H640 0.950 . S
C670 C669 1.524 . S
C670 C671 1.415 . S
C671 H641 0.950 . S
C671 C666 1.363 . S
C671 C670 1.415 . S
H672 C669 0.999 . S
H673 C654 0.913 . S
H674 C692 0.951 . S
H675 C694 0.951 . S
H676 C696 0.950 . S
H677 C697 0.950 . S
H678 C699 0.950 . S
H679 C702 0.950 . S
H680 C703 0.950 . S
H681 C705 0.950 . S
H682 C706 0.950 . S
H683 C707 0.951 . S
H684 C709 0.951 . S
H685 C711 0.950 . S
H686 C712 0.950 . S
H687 C714 0.950 . S
H688 C717 0.950 . S
H689 C718 0.950 . S
H690 C720 0.950 . S
H691 C721 0.950 . S
C692 H674 0.951 . S
C692 C693 1.366 . S
C692 C694 1.388 . S
C693 C692 1.366 . S
C693 C697 1.385 . S
C694 H675 0.951 . S
C694 C692 1.388 . S
C694 C695 1.366 . S
C695 C694 1.366 . S
C695 C696 1.414 . S
C695 C698 1.499 . S
C696 H676 0.950 . S
C696 C695 1.414 . S
C696 C697 1.374 . S
C697 H677 0.950 . S
C697 C693 1.385 . S
C697 C696 1.374 . S
C698 C695 1.499 . S
C698 C699 1.373 . S
C698 C700 1.389 . S
C699 H678 0.950 . S
C699 C698 1.373 . S
C699 C715 1.377 . S
C700 C698 1.389 . S
C700 C701 1.524 . S
C700 C714 1.377 . S
C701 C700 1.524 . S
C701 C702 1.397 . S
C701 C706 1.363 . S
C702 H679 0.950 . S
C702 C701 1.397 . S
C702 C703 1.334 . S
C703 H680 0.950 . S
C703 C702 1.334 . S
C703 C704 1.287 . S
C704 C703 1.287 . S
C704 C705 1.524 . S
C704 H723 0.913 . S
C705 H681 0.950 . S
C705 C704 1.524 . S
C705 C706 1.415 . S
C706 H682 0.950 . S
C706 C701 1.363 . S
C706 C705 1.415 . S
C707 H683 0.951 . S
C707 C708 1.366 . S
C707 C709 1.388 . S
C708 C707 1.366 . S
C708 C712 1.385 . S
C709 H684 0.951 . S
C709 C707 1.388 . S
C709 C710 1.366 . S
C710 C709 1.366 . S
C710 C711 1.414 . S
C710 C713 1.499 . S
C711 H685 0.950 . S
C711 C710 1.414 . S
C711 C712 1.374 . S
C712 H686 0.950 . S
C712 C708 1.385 . S
C712 C711 1.374 . S
C713 C710 1.499 . S
C713 C714 1.373 . S
C713 C715 1.389 . S
C714 H687 0.950 . S
C714 C700 1.377 . S
C714 C713 1.373 . S
C715 C699 1.377 . S
C715 C713 1.389 . S
C715 C716 1.524 . S
C716 C715 1.524 . S
C716 C717 1.397 . S
C716 C721 1.363 . S
C717 H688 0.950 . S
C717 C716 1.397 . S
C717 C718 1.334 . S
C718 H689 0.950 . S
C718 C717 1.334 . S
C718 C719 1.287 . S
C719 C718 1.287 . S
C719 C720 1.524 . S
C719 H722 0.999 . S
C720 H690 0.950 . S
C720 C719 1.524 . S
C720 C721 1.415 . S
C721 H691 0.950 . S
C721 C716 1.363 . S
C721 C720 1.415 . S
H722 C719 0.999 . S
H723 C704 0.913 . S
H724 C742 0.951 . S
H725 C744 0.951 . S
H726 C746 0.950 . S
H727 C747 0.950 . S
H728 C749 0.950 . S
H729 C752 0.950 . S
H730 C753 0.950 . S
H731 C755 0.950 . S
H732 C756 0.950 . S
H733 C757 0.951 . S
H734 C759 0.951 . S
H735 C761 0.950 . S
H736 C762 0.950 . S
H737 C764 0.950 . S
H738 C767 0.950 . S
H739 C768 0.950 . S
H740 C770 0.950 . S
H741 C771 0.950 . S
C742 H724 0.951 . S
C742 C743 1.366 . S
C742 C744 1.388 . S
C743 C742 1.366 . S
C743 C747 1.385 . S
C744 H725 0.951 . S
C744 C742 1.388 . S
C744 C745 1.366 . S
C745 C744 1.366 . S
C745 C746 1.414 . S
C745 C748 1.499 . S
C746 H726 0.950 . S
C746 C745 1.414 . S
C746 C747 1.374 . S
C747 H727 0.950 . S
C747 C743 1.385 . S
C747 C746 1.374 . S
C748 C745 1.499 . S
C748 C749 1.373 . S
C748 C750 1.389 1_556 S
C749 H728 0.950 . S
C749 C748 1.373 . S
C749 C765 1.377 . S
C750 C748 1.389 1_554 S
C750 C751 1.524 . S
C750 C764 1.377 . S
C751 C750 1.524 . S
C751 C752 1.397 1_554 S
C751 C756 1.363 . S
C752 H729 0.950 . S
C752 C751 1.397 1_556 S
C752 C753 1.334 . S
C753 H730 0.950 . S
C753 C752 1.334 . S
C753 C754 1.287 1_556 S
C754 C753 1.287 1_554 S
C754 C755 1.524 . S
C754 H773 0.913 . S
C755 H731 0.950 . S
C755 C754 1.524 . S
C755 C756 1.415 . S
C756 H732 0.950 . S
C756 C751 1.363 . S
C756 C755 1.415 . S
C757 H733 0.951 . S
C757 C758 1.366 . S
C757 C759 1.388 . S
C758 C757 1.366 . S
C758 C762 1.385 . S
C759 H734 0.951 . S
C759 C757 1.388 . S
C759 C760 1.366 . S
C760 C759 1.366 . S
C760 C761 1.414 . S
C760 C763 1.499 . S
C761 H735 0.950 . S
C761 C760 1.414 . S
C761 C762 1.374 . S
C762 H736 0.950 . S
C762 C758 1.385 . S
C762 C761 1.374 . S
C763 C760 1.499 . S
C763 C764 1.373 . S
C763 C765 1.389 1_554 S
C764 H737 0.950 . S
C764 C750 1.377 . S
C764 C763 1.373 . S
C765 C749 1.377 . S
C765 C763 1.389 1_556 S
C765 C766 1.524 . S
C766 C765 1.524 . S
C766 C767 1.397 1_556 S
C766 C771 1.363 . S
C767 H738 0.950 . S
C767 C766 1.397 1_554 S
C767 C768 1.334 . S
C768 H739 0.950 . S
C768 C767 1.334 . S
C768 C769 1.287 1_554 S
C769 C768 1.287 1_556 S
C769 C770 1.524 . S
C769 H772 0.999 . S
C770 H740 0.950 . S
C770 C769 1.524 . S
C770 C771 1.415 . S
C771 H741 0.950 . S
C771 C766 1.363 . S
C771 C770 1.415 . S
H772 C769 0.999 . S
H773 C754 0.913 . S
H774 C792 0.951 . S
H775 C794 0.951 . S
H776 C796 0.950 . S
H777 C797 0.950 . S
H778 C799 0.950 . S
H779 C802 0.950 . S
H780 C803 0.950 1_554 S
H781 C805 0.950 . S
H782 C806 0.950 . S
H783 C807 0.951 . S
H784 C809 0.951 . S
H785 C811 0.950 . S
H786 C812 0.950 . S
H787 C814 0.950 . S
H788 C817 0.950 . S
H789 C818 0.950 1_556 S
H790 C820 0.950 . S
H791 C821 0.950 . S
C792 H774 0.951 . S
C792 C793 1.366 . S
C792 C794 1.388 . S
C793 C792 1.366 . S
C793 C797 1.385 . S
C794 H775 0.951 . S
C794 C792 1.388 . S
C794 C795 1.366 . S
C795 C794 1.366 . S
C795 C796 1.414 . S
C795 C798 1.499 . S
C796 H776 0.950 . S
C796 C795 1.414 . S
C796 C797 1.374 . S
C797 H777 0.950 . S
C797 C793 1.385 . S
C797 C796 1.374 . S
C798 C795 1.499 . S
C798 C799 1.373 . S
C798 C800 1.389 1_554 S
C799 H778 0.950 . S
C799 C798 1.373 . S
C799 C815 1.377 . S
C800 C798 1.389 1_556 S
C800 C801 1.524 . S
C800 C814 1.377 . S
C801 C800 1.524 . S
C801 C802 1.397 1_556 S
C801 C806 1.363 . S
C802 H779 0.950 . S
C802 C801 1.397 1_554 S
C802 C803 1.334 1_554 S
C803 H780 0.950 1_556 S
C803 C802 1.334 1_556 S
C803 C804 1.287 . S
C804 C803 1.287 . S
C804 C805 1.524 . S
C804 H823 0.913 . S
C805 H781 0.950 . S
C805 C804 1.524 . S
C805 C806 1.415 . S
C806 H782 0.950 . S
C806 C801 1.363 . S
C806 C805 1.415 . S
C807 H783 0.951 . S
C807 C808 1.366 . S
C807 C809 1.388 . S
C808 C807 1.366 . S
C808 C812 1.385 . S
C809 H784 0.951 . S
C809 C807 1.388 . S
C809 C810 1.366 . S
C810 C809 1.366 . S
C810 C811 1.414 . S
C810 C813 1.499 . S
C811 H785 0.950 . S
C811 C810 1.414 . S
C811 C812 1.374 . S
C812 H786 0.950 . S
C812 C808 1.385 . S
C812 C811 1.374 . S
C813 C810 1.499 . S
C813 C814 1.373 . S
C813 C815 1.389 1_556 S
C814 H787 0.950 . S
C814 C800 1.377 . S
C814 C813 1.373 . S
C815 C799 1.377 . S
C815 C813 1.389 1_554 S
C815 C816 1.524 . S
C816 C815 1.524 . S
C816 C817 1.397 1_554 S
C816 C821 1.363 . S
C817 H788 0.950 . S
C817 C816 1.397 1_556 S
C817 C818 1.334 1_556 S
C818 H789 0.950 1_554 S
C818 C817 1.334 1_554 S
C818 C819 1.287 . S
C819 C818 1.287 . S
C819 C820 1.524 . S
C819 H822 0.999 . S
C820 H790 0.950 . S
C820 C819 1.524 . S
C820 C821 1.415 . S
C821 H791 0.950 . S
C821 C816 1.363 . S
C821 C820 1.415 . S
H822 C819 0.999 . S
H823 C804 0.913 . S
H824 C842 0.951 . S
H825 C844 0.951 . S
H826 C846 0.950 . S
H827 C847 0.950 . S
H828 C849 0.950 . S
H829 C852 0.950 . S
H830 C853 0.950 . S
H831 C855 0.950 . S
H832 C856 0.950 . S
H833 C857 0.951 . S
H834 C859 0.951 . S
H835 C861 0.950 . S
H836 C862 0.950 . S
H837 C864 0.950 . S
H838 C867 0.950 . S
H839 C868 0.950 . S
H840 C870 0.950 . S
H841 C871 0.950 . S
C842 H824 0.951 . S
C842 C843 1.366 . S
C842 C844 1.388 . S
C843 C842 1.366 . S
C843 C847 1.385 . S
C844 H825 0.951 . S
C844 C842 1.388 . S
C844 C845 1.366 . S
C845 C844 1.366 . S
C845 C846 1.414 . S
C845 C848 1.499 . S
C846 H826 0.950 . S
C846 C845 1.414 . S
C846 C847 1.374 . S
C847 H827 0.950 . S
C847 C843 1.385 . S
C847 C846 1.374 . S
C848 C845 1.499 . S
C848 C849 1.373 . S
C848 C850 1.389 . S
C849 H828 0.950 . S
C849 C848 1.373 . S
C849 C865 1.377 . S
C850 C848 1.389 . S
C850 C851 1.524 . S
C850 C864 1.377 . S
C851 C850 1.524 . S
C851 C852 1.397 . S
C851 C856 1.363 . S
C852 H829 0.950 . S
C852 C851 1.397 . S
C852 C853 1.334 . S
C853 H830 0.950 . S
C853 C852 1.334 . S
C853 C854 1.287 . S
C854 C853 1.287 . S
C854 C855 1.524 . S
C854 H873 0.913 . S
C855 H831 0.950 . S
C855 C854 1.524 . S
C855 C856 1.415 . S
C856 H832 0.950 . S
C856 C851 1.363 . S
C856 C855 1.415 . S
C857 H833 0.951 . S
C857 C858 1.366 . S
C857 C859 1.388 . S
C858 C857 1.366 . S
C858 C862 1.385 . S
C859 H834 0.951 . S
C859 C857 1.388 . S
C859 C860 1.366 . S
C860 C859 1.366 . S
C860 C861 1.414 . S
C860 C863 1.499 . S
C861 H835 0.950 . S
C861 C860 1.414 . S
C861 C862 1.374 . S
C862 H836 0.950 . S
C862 C858 1.385 . S
C862 C861 1.374 . S
C863 C860 1.499 . S
C863 C864 1.373 . S
C863 C865 1.389 . S
C864 H837 0.950 . S
C864 C850 1.377 . S
C864 C863 1.373 . S
C865 C849 1.377 . S
C865 C863 1.389 . S
C865 C866 1.524 . S
C866 C865 1.524 . S
C866 C867 1.397 . S
C866 C871 1.363 . S
C867 H838 0.950 . S
C867 C866 1.397 . S
C867 C868 1.334 . S
C868 H839 0.950 . S
C868 C867 1.334 . S
C868 C869 1.287 . S
C869 C868 1.287 . S
C869 C870 1.524 . S
C869 H872 0.999 . S
C870 H840 0.950 . S
C870 C869 1.524 . S
C870 C871 1.415 . S
C871 H841 0.950 . S
C871 C866 1.363 . S
C871 C870 1.415 . S
H872 C869 0.999 . S
H873 C854 0.913 . S
H874 C892 0.951 . S
H875 C894 0.951 . S
H876 C896 0.950 . S
H877 C897 0.950 . S
H878 C899 0.950 . S
H879 C902 0.950 . S
H880 C903 0.950 . S
H881 C905 0.950 . S
H882 C906 0.950 . S
H883 C907 0.951 . S
H884 C909 0.951 . S
H885 C911 0.950 . S
H886 C912 0.950 . S
H887 C914 0.950 . S
H888 C917 0.950 . S
H889 C918 0.950 . S
H890 C920 0.950 . S
H891 C921 0.950 . S
C892 H874 0.951 . S
C892 C893 1.366 . S
C892 C894 1.388 . S
C893 C892 1.366 . S
C893 C897 1.385 . S
C894 H875 0.951 . S
C894 C892 1.388 . S
C894 C895 1.366 . S
C895 C894 1.366 . S
C895 C896 1.414 . S
C895 C898 1.499 . S
C896 H876 0.950 . S
C896 C895 1.414 . S
C896 C897 1.374 . S
C897 H877 0.950 . S
C897 C893 1.385 . S
C897 C896 1.374 . S
C898 C895 1.499 . S
C898 C899 1.373 . S
C898 C900 1.389 . S
C899 H878 0.950 . S
C899 C898 1.373 . S
C899 C915 1.377 . S
C900 C898 1.389 . S
C900 C901 1.524 . S
C900 C914 1.377 . S
C901 C900 1.524 . S
C901 C902 1.397 . S
C901 C906 1.363 . S
C902 H879 0.950 . S
C902 C901 1.397 . S
C902 C903 1.334 . S
C903 H880 0.950 . S
C903 C902 1.334 . S
C903 C904 1.287 . S
C904 C903 1.287 . S
C904 C905 1.524 . S
C904 H923 0.913 . S
C905 H881 0.950 . S
C905 C904 1.524 . S
C905 C906 1.415 . S
C906 H882 0.950 . S
C906 C901 1.363 . S
C906 C905 1.415 . S
C907 H883 0.951 . S
C907 C908 1.366 . S
C907 C909 1.388 . S
C908 C907 1.366 . S
C908 C912 1.385 . S
C909 H884 0.951 . S
C909 C907 1.388 . S
C909 C910 1.366 . S
C910 C909 1.366 . S
C910 C911 1.414 . S
C910 C913 1.499 . S
C911 H885 0.950 . S
C911 C910 1.414 . S
C911 C912 1.374 . S
C912 H886 0.950 . S
C912 C908 1.385 . S
C912 C911 1.374 . S
C913 C910 1.499 . S
C913 C914 1.373 . S
C913 C915 1.389 . S
C914 H887 0.950 . S
C914 C900 1.377 . S
C914 C913 1.373 . S
C915 C899 1.377 . S
C915 C913 1.389 . S
C915 C916 1.524 . S
C916 C915 1.524 . S
C916 C917 1.397 . S
C916 C921 1.363 . S
C917 H888 0.950 . S
C917 C916 1.397 . S
C917 C918 1.334 . S
C918 H889 0.950 . S
C918 C917 1.334 . S
C918 C919 1.287 . S
C919 C918 1.287 . S
C919 C920 1.524 . S
C919 H922 0.999 . S
C920 H890 0.950 . S
C920 C919 1.524 . S
C920 C921 1.415 . S
C921 H891 0.950 . S
C921 C916 1.363 . S
C921 C920 1.415 . S
H922 C919 0.999 . S
H923 C904 0.913 . S
H924 C942 0.951 . S
H925 C944 0.951 . S
H926 C946 0.950 . S
H927 C947 0.950 . S
H928 C949 0.950 . S
H929 C952 0.950 . S
H930 C953 0.950 . S
H931 C955 0.950 . S
H932 C956 0.950 1_455 S
H933 C957 0.951 . S
H934 C959 0.951 . S
H935 C961 0.950 . S
H936 C962 0.950 . S
H937 C964 0.950 . S
H938 C967 0.950 . S
H939 C968 0.950 . S
H940 C970 0.950 . S
H941 C971 0.950 1_655 S
C942 H924 0.951 . S
C942 C943 1.366 . S
C942 C944 1.388 . S
C943 C942 1.366 . S
C943 C947 1.385 . S
C944 H925 0.951 . S
C944 C942 1.388 . S
C944 C945 1.366 . S
C945 C944 1.366 . S
C945 C946 1.414 . S
C945 C948 1.499 . S
C946 H926 0.950 . S
C946 C945 1.414 . S
C946 C947 1.374 . S
C947 H927 0.950 . S
C947 C943 1.385 . S
C947 C946 1.374 . S
C948 C945 1.499 . S
C948 C949 1.373 . S
C948 C950 1.389 . S
C949 H928 0.950 . S
C949 C948 1.373 . S
C949 C965 1.377 1_655 S
C950 C948 1.389 . S
C950 C951 1.524 . S
C950 C964 1.377 1_655 S
C951 C950 1.524 . S
C951 C952 1.397 . S
C951 C956 1.363 . S
C952 H929 0.950 . S
C952 C951 1.397 . S
C952 C953 1.334 . S
C953 H930 0.950 . S
C953 C952 1.334 . S
C953 C954 1.287 . S
C954 C953 1.287 . S
C954 C955 1.524 . S
C954 H973 0.913 . S
C955 H931 0.950 . S
C955 C954 1.524 . S
C955 C956 1.415 . S
C956 H932 0.950 1_655 S
C956 C951 1.363 . S
C956 C955 1.415 . S
C957 H933 0.951 . S
C957 C958 1.366 . S
C957 C959 1.388 . S
C958 C957 1.366 . S
C958 C962 1.385 . S
C959 H934 0.951 . S
C959 C957 1.388 . S
C959 C960 1.366 . S
C960 C959 1.366 . S
C960 C961 1.414 . S
C960 C963 1.499 . S
C961 H935 0.950 . S
C961 C960 1.414 . S
C961 C962 1.374 . S
C962 H936 0.950 . S
C962 C958 1.385 . S
C962 C961 1.374 . S
C963 C960 1.499 . S
C963 C964 1.373 . S
C963 C965 1.389 . S
C964 H937 0.950 . S
C964 C950 1.377 1_455 S
C964 C963 1.373 . S
C965 C949 1.377 1_455 S
C965 C963 1.389 . S
C965 C966 1.524 . S
C966 C965 1.524 . S
C966 C967 1.397 . S
C966 C971 1.363 . S
C967 H938 0.950 . S
C967 C966 1.397 . S
C967 C968 1.334 . S
C968 H939 0.950 . S
C968 C967 1.334 . S
C968 C969 1.287 . S
C969 C968 1.287 . S
C969 C970 1.524 . S
C969 H972 0.999 . S
C970 H940 0.950 . S
C970 C969 1.524 . S
C970 C971 1.415 . S
C971 H941 0.950 1_455 S
C971 C966 1.363 . S
C971 C970 1.415 . S
H972 C969 0.999 . S
H973 C954 0.913 . S
H974 C992 0.951 . S
H975 C994 0.951 . S
H976 C996 0.950 . S
H977 C997 0.950 . S
H978 C999 0.950 . S
H979 C1002 0.950 . S
H980 C1003 0.950 . S
H981 C1005 0.950 . S
H982 C1006 0.950 . S
H983 C1007 0.951 . S
H984 C1009 0.951 . S
H985 C1011 0.950 . S
H986 C1012 0.950 . S
H987 C1014 0.950 . S
H988 C1017 0.950 . S
H989 C1018 0.950 . S
H990 C1020 0.950 . S
H991 C1021 0.950 . S
C992 H974 0.951 . S
C992 C993 1.366 . S
C992 C994 1.388 . S
C993 C992 1.366 . S
C993 C997 1.385 . S
C994 H975 0.951 . S
C994 C992 1.388 . S
C994 C995 1.366 . S
C995 C994 1.366 . S
C995 C996 1.414 . S
C995 C998 1.499 . S
C996 H976 0.950 . S
C996 C995 1.414 . S
C996 C997 1.374 . S
C997 H977 0.950 . S
C997 C993 1.385 . S
C997 C996 1.374 . S
C998 C995 1.499 . S
C998 C999 1.373 . S
C998 C1000 1.389 . S
C999 H978 0.950 . S
C999 C998 1.373 . S
C999 C1015 1.377 1_655 S
C1000 C998 1.389 . S
C1000 C1001 1.524 . S
C1000 C1014 1.377 1_655 S
C1001 C1000 1.524 . S
C1001 C1002 1.397 . S
C1001 C1006 1.363 . S
C1002 H979 0.950 . S
C1002 C1001 1.397 . S
C1002 C1003 1.334 . S
C1003 H980 0.950 . S
C1003 C1002 1.334 . S
C1003 C1004 1.287 . S
C1004 C1003 1.287 . S
C1004 C1005 1.524 . S
C1004 H1023 0.913 . S
C1005 H981 0.950 . S
C1005 C1004 1.524 . S
C1005 C1006 1.415 . S
C1006 H982 0.950 . S
C1006 C1001 1.363 . S
C1006 C1005 1.415 . S
C1007 H983 0.951 . S
C1007 C1008 1.366 . S
C1007 C1009 1.388 . S
C1008 C1007 1.366 . S
C1008 C1012 1.385 . S
C1009 H984 0.951 . S
C1009 C1007 1.388 . S
C1009 C1010 1.366 . S
C1010 C1009 1.366 . S
C1010 C1011 1.414 . S
C1010 C1013 1.499 . S
C1011 H985 0.950 . S
C1011 C1010 1.414 . S
C1011 C1012 1.374 . S
C1012 H986 0.950 . S
C1012 C1008 1.385 . S
C1012 C1011 1.374 . S
C1013 C1010 1.499 . S
C1013 C1014 1.373 . S
C1013 C1015 1.389 . S
C1014 H987 0.950 . S
C1014 C1000 1.377 1_455 S
C1014 C1013 1.373 . S
C1015 C999 1.377 1_455 S
C1015 C1013 1.389 . S
C1015 C1016 1.524 . S
C1016 C1015 1.524 . S
C1016 C1017 1.397 . S
C1016 C1021 1.363 . S
C1017 H988 0.950 . S
C1017 C1016 1.397 . S
C1017 C1018 1.334 . S
C1018 H989 0.950 . S
C1018 C1017 1.334 . S
C1018 C1019 1.287 . S
C1019 C1018 1.287 . S
C1019 C1020 1.524 . S
C1019 H1022 0.999 . S
C1020 H990 0.950 . S
C1020 C1019 1.524 . S
C1020 C1021 1.415 . S
C1021 H991 0.950 . S
C1021 C1016 1.363 . S
C1021 C1020 1.415 . S
H1022 C1019 0.999 . S
H1023 C1004 0.913 . S
H1024 C1042 0.951 . S
H1025 C1044 0.951 . S
H1026 C1046 0.950 . S
H1027 C1047 0.950 . S
H1028 C1049 0.950 . S
H1029 C1052 0.950 . S
H1030 C1053 0.950 . S
H1031 C1055 0.950 . S
H1032 C1056 0.950 . S
H1033 C1057 0.951 . S
H1034 C1059 0.951 . S
H1035 C1061 0.950 . S
H1036 C1062 0.950 . S
H1037 C1064 0.950 . S
H1038 C1067 0.950 . S
H1039 C1068 0.950 . S
H1040 C1070 0.950 . S
H1041 C1071 0.950 . S
C1042 H1024 0.951 . S
C1042 C1043 1.366 . S
C1042 C1044 1.388 . S
C1043 C1042 1.366 . S
C1043 C1047 1.385 . S
C1044 H1025 0.951 . S
C1044 C1042 1.388 . S
C1044 C1045 1.366 . S
C1045 C1044 1.366 . S
C1045 C1046 1.414 . S
C1045 C1048 1.499 . S
C1046 H1026 0.950 . S
C1046 C1045 1.414 . S
C1046 C1047 1.374 . S
C1047 H1027 0.950 . S
C1047 C1043 1.385 . S
C1047 C1046 1.374 . S
C1048 C1045 1.499 . S
C1048 C1049 1.373 . S
C1048 C1050 1.389 . S
C1049 H1028 0.950 . S
C1049 C1048 1.373 . S
C1049 C1065 1.377 . S
C1050 C1048 1.389 . S
C1050 C1051 1.524 . S
C1050 C1064 1.377 . S
C1051 C1050 1.524 . S
C1051 C1052 1.397 . S
C1051 C1056 1.363 . S
C1052 H1029 0.950 . S
C1052 C1051 1.397 . S
C1052 C1053 1.334 . S
C1053 H1030 0.950 . S
C1053 C1052 1.334 . S
C1053 C1054 1.287 . S
C1054 C1053 1.287 . S
C1054 C1055 1.524 . S
C1054 H1073 0.913 . S
C1055 H1031 0.950 . S
C1055 C1054 1.524 . S
C1055 C1056 1.415 . S
C1056 H1032 0.950 . S
C1056 C1051 1.363 . S
C1056 C1055 1.415 . S
C1057 H1033 0.951 . S
C1057 C1058 1.366 . S
C1057 C1059 1.388 . S
C1058 C1057 1.366 . S
C1058 C1062 1.385 . S
C1059 H1034 0.951 . S
C1059 C1057 1.388 . S
C1059 C1060 1.366 . S
C1060 C1059 1.366 . S
C1060 C1061 1.414 . S
C1060 C1063 1.499 . S
C1061 H1035 0.950 . S
C1061 C1060 1.414 . S
C1061 C1062 1.374 . S
C1062 H1036 0.950 . S
C1062 C1058 1.385 . S
C1062 C1061 1.374 . S
C1063 C1060 1.499 . S
C1063 C1064 1.373 . S
C1063 C1065 1.389 . S
C1064 H1037 0.950 . S
C1064 C1050 1.377 . S
C1064 C1063 1.373 . S
C1065 C1049 1.377 . S
C1065 C1063 1.389 . S
C1065 C1066 1.524 . S
C1066 C1065 1.524 . S
C1066 C1067 1.397 . S
C1066 C1071 1.363 . S
C1067 H1038 0.950 . S
C1067 C1066 1.397 . S
C1067 C1068 1.334 . S
C1068 H1039 0.950 . S
C1068 C1067 1.334 . S
C1068 C1069 1.287 . S
C1069 C1068 1.287 . S
C1069 C1070 1.524 . S
C1069 H1072 0.999 . S
C1070 H1040 0.950 . S
C1070 C1069 1.524 . S
C1070 C1071 1.415 . S
C1071 H1041 0.950 . S
C1071 C1066 1.363 . S
C1071 C1070 1.415 . S
H1072 C1069 0.999 . S
H1073 C1054 0.913 . S
H1074 C1092 0.951 . S
H1075 C1094 0.951 . S
H1076 C1096 0.950 . S
H1077 C1097 0.950 . S
H1078 C1099 0.952 . S
H1079 C1102 0.950 . S
H1080 C1103 0.950 . S
H1081 C1105 0.950 . S
H1082 C1106 0.950 . S
H1083 C1107 0.951 . S
H1084 C1109 0.951 . S
H1085 C1111 0.950 . S
H1086 C1112 0.950 . S
H1087 C1114 0.952 . S
H1088 C1117 0.950 . S
H1089 C1118 0.950 . S
H1090 C1120 0.950 . S
H1091 C1121 0.950 . S
C1092 H1074 0.951 . S
C1092 C1093 1.366 . S
C1092 C1094 1.388 . S
C1093 C1092 1.366 . S
C1093 C1097 1.385 . S
C1094 H1075 0.951 . S
C1094 C1092 1.388 . S
C1094 C1095 1.366 . S
C1095 C1094 1.366 . S
C1095 C1096 1.414 . S
C1095 C1098 1.499 . S
C1096 H1076 0.950 . S
C1096 C1095 1.414 . S
C1096 C1097 1.374 . S
C1097 H1077 0.950 . S
C1097 C1093 1.385 . S
C1097 C1096 1.374 . S
C1098 C1095 1.499 . S
C1098 C1099 1.348 1_545 S
C1098 C1100 1.389 . S
C1099 H1078 0.952 . S
C1099 C1098 1.348 1_565 S
C1099 C1115 1.401 . S
C1100 C1098 1.389 . S
C1100 C1101 1.524 . S
C1100 C1114 1.401 . S
C1101 C1100 1.524 . S
C1101 C1102 1.397 . S
C1101 C1106 1.363 . S
C1102 H1079 0.950 . S
C1102 C1101 1.397 . S
C1102 C1103 1.334 . S
C1103 H1080 0.950 . S
C1103 C1102 1.334 . S
C1103 C1104 1.287 . S
C1104 C1103 1.287 . S
C1104 C1105 1.524 . S
C1104 H1123 0.913 . S
C1105 H1081 0.950 . S
C1105 C1104 1.524 . S
C1105 C1106 1.415 . S
C1106 H1082 0.950 . S
C1106 C1101 1.363 . S
C1106 C1105 1.415 . S
C1107 H1083 0.951 . S
C1107 C1108 1.366 . S
C1107 C1109 1.388 . S
C1108 C1107 1.366 . S
C1108 C1112 1.385 . S
C1109 H1084 0.951 . S
C1109 C1107 1.388 . S
C1109 C1110 1.366 . S
C1110 C1109 1.366 . S
C1110 C1111 1.414 . S
C1110 C1113 1.499 . S
C1111 H1085 0.950 . S
C1111 C1110 1.414 . S
C1111 C1112 1.374 . S
C1112 H1086 0.950 . S
C1112 C1108 1.385 . S
C1112 C1111 1.374 . S
C1113 C1110 1.499 . S
C1113 C1114 1.348 1_565 S
C1113 C1115 1.389 . S
C1114 H1087 0.952 . S
C1114 C1100 1.401 . S
C1114 C1113 1.348 1_545 S
C1115 C1099 1.401 . S
C1115 C1113 1.389 . S
C1115 C1116 1.524 . S
C1116 C1115 1.524 . S
C1116 C1117 1.397 . S
C1116 C1121 1.363 . S
C1117 H1088 0.950 . S
C1117 C1116 1.397 . S
C1117 C1118 1.334 . S
C1118 H1089 0.950 . S
C1118 C1117 1.334 . S
C1118 C1119 1.287 . S
C1119 C1118 1.287 . S
C1119 C1120 1.524 . S
C1119 H1122 0.999 . S
C1120 H1090 0.950 . S
C1120 C1119 1.524 . S
C1120 C1121 1.415 . S
C1121 H1091 0.950 . S
C1121 C1116 1.363 . S
C1121 C1120 1.415 . S
H1122 C1119 0.999 . S
H1123 C1104 0.913 . S
H1124 C1142 0.951 . S
H1125 C1144 0.951 . S
H1126 C1146 0.950 . S
H1127 C1147 0.950 . S
H1128 C1149 0.950 . S
H1129 C1152 0.950 . S
H1130 C1153 0.950 . S
H1131 C1155 0.950 . S
H1132 C1156 0.950 . S
H1133 C1157 0.951 . S
H1134 C1159 0.951 . S
H1135 C1161 0.950 . S
H1136 C1162 0.950 . S
H1137 C1164 0.950 . S
H1138 C1167 0.950 . S
H1139 C1168 0.950 . S
H1140 C1170 0.950 . S
H1141 C1171 0.950 . S
C1142 H1124 0.951 . S
C1142 C1143 1.366 . S
C1142 C1144 1.388 . S
C1143 C1142 1.366 . S
C1143 C1147 1.385 . S
C1144 H1125 0.951 . S
C1144 C1142 1.388 . S
C1144 C1145 1.366 . S
C1145 C1144 1.366 . S
C1145 C1146 1.414 . S
C1145 C1148 1.499 . S
C1146 H1126 0.950 . S
C1146 C1145 1.414 . S
C1146 C1147 1.374 . S
C1147 H1127 0.950 . S
C1147 C1143 1.385 . S
C1147 C1146 1.374 . S
C1148 C1145 1.499 . S
C1148 C1149 1.373 . S
C1148 C1150 1.389 . S
C1149 H1128 0.950 . S
C1149 C1148 1.373 . S
C1149 C1165 1.377 . S
C1150 C1148 1.389 . S
C1150 C1151 1.524 . S
C1150 C1164 1.377 . S
C1151 C1150 1.524 . S
C1151 C1152 1.397 . S
C1151 C1156 1.363 . S
C1152 H1129 0.950 . S
C1152 C1151 1.397 . S
C1152 C1153 1.334 . S
C1153 H1130 0.950 . S
C1153 C1152 1.334 . S
C1153 C1154 1.287 . S
C1154 C1153 1.287 . S
C1154 C1155 1.524 . S
C1154 H1173 0.913 . S
C1155 H1131 0.950 . S
C1155 C1154 1.524 . S
C1155 C1156 1.415 . S
C1156 H1132 0.950 . S
C1156 C1151 1.363 . S
C1156 C1155 1.415 . S
C1157 H1133 0.951 . S
C1157 C1158 1.366 . S
C1157 C1159 1.388 . S
C1158 C1157 1.366 . S
C1158 C1162 1.385 . S
C1159 H1134 0.951 . S
C1159 C1157 1.388 . S
C1159 C1160 1.366 . S
C1160 C1159 1.366 . S
C1160 C1161 1.414 . S
C1160 C1163 1.499 . S
C1161 H1135 0.950 . S
C1161 C1160 1.414 . S
C1161 C1162 1.374 . S
C1162 H1136 0.950 . S
C1162 C1158 1.385 . S
C1162 C1161 1.374 . S
C1163 C1160 1.499 . S
C1163 C1164 1.373 . S
C1163 C1165 1.389 . S
C1164 H1137 0.950 . S
C1164 C1150 1.377 . S
C1164 C1163 1.373 . S
C1165 C1149 1.377 . S
C1165 C1163 1.389 . S
C1165 C1166 1.524 . S
C1166 C1165 1.524 . S
C1166 C1167 1.397 . S
C1166 C1171 1.363 . S
C1167 H1138 0.950 . S
C1167 C1166 1.397 . S
C1167 C1168 1.334 . S
C1168 H1139 0.950 . S
C1168 C1167 1.334 . S
C1168 C1169 1.287 . S
C1169 C1168 1.287 . S
C1169 C1170 1.524 . S
C1169 H1172 0.999 . S
C1170 H1140 0.950 . S
C1170 C1169 1.524 . S
C1170 C1171 1.415 . S
C1171 H1141 0.950 . S
C1171 C1166 1.363 . S
C1171 C1170 1.415 . S
H1172 C1169 0.999 . S
H1173 C1154 0.913 . S
H1174 C1192 0.951 . S
H1175 C1194 0.951 . S
H1176 C1196 0.950 . S
H1177 C1197 0.950 . S
H1178 C1199 0.950 . S
H1179 C1202 0.950 . S
H1180 C1203 0.950 . S
H1181 C1205 0.950 . S
H1182 C1206 0.950 . S
H1183 C1207 0.951 . S
H1184 C1209 0.951 . S
H1185 C1211 0.950 . S
H1186 C1212 0.950 . S
H1187 C1214 0.950 . S
H1188 C1217 0.950 . S
H1189 C1218 0.950 . S
H1190 C1220 0.950 . S
H1191 C1221 0.950 . S
C1192 H1174 0.951 . S
C1192 C1193 1.366 . S
C1192 C1194 1.388 . S
C1193 C1192 1.366 . S
C1193 C1197 1.385 . S
C1194 H1175 0.951 . S
C1194 C1192 1.388 . S
C1194 C1195 1.366 . S
C1195 C1194 1.366 . S
C1195 C1196 1.414 . S
C1195 C1198 1.499 . S
C1196 H1176 0.950 . S
C1196 C1195 1.414 . S
C1196 C1197 1.374 . S
C1197 H1177 0.950 . S
C1197 C1193 1.385 . S
C1197 C1196 1.374 . S
C1198 C1195 1.499 . S
C1198 C1199 1.373 . S
C1198 C1200 1.389 . S
C1199 H1178 0.950 . S
C1199 C1198 1.373 . S
C1199 C1215 1.377 1_554 S
C1200 C1198 1.389 . S
C1200 C1201 1.524 . S
C1200 C1214 1.377 1_554 S
C1201 C1200 1.524 . S
C1201 C1202 1.397 . S
C1201 C1206 1.363 . S
C1202 H1179 0.950 . S
C1202 C1201 1.397 . S
C1202 C1203 1.334 . S
C1203 H1180 0.950 . S
C1203 C1202 1.334 . S
C1203 C1204 1.287 . S
C1204 C1203 1.287 . S
C1204 C1205 1.524 . S
C1204 H1223 0.913 . S
C1205 H1181 0.950 . S
C1205 C1204 1.524 . S
C1205 C1206 1.415 . S
C1206 H1182 0.950 . S
C1206 C1201 1.363 . S
C1206 C1205 1.415 . S
C1207 H1183 0.951 . S
C1207 C1208 1.366 . S
C1207 C1209 1.388 . S
C1208 C1207 1.366 . S
C1208 C1212 1.385 . S
C1209 H1184 0.951 . S
C1209 C1207 1.388 . S
C1209 C1210 1.366 . S
C1210 C1209 1.366 . S
C1210 C1211 1.414 . S
C1210 C1213 1.499 . S
C1211 H1185 0.950 . S
C1211 C1210 1.414 . S
C1211 C1212 1.374 . S
C1212 H1186 0.950 . S
C1212 C1208 1.385 . S
C1212 C1211 1.374 . S
C1213 C1210 1.499 . S
C1213 C1214 1.373 . S
C1213 C1215 1.389 . S
C1214 H1187 0.950 . S
C1214 C1200 1.377 1_556 S
C1214 C1213 1.373 . S
C1215 C1199 1.377 1_556 S
C1215 C1213 1.389 . S
C1215 C1216 1.524 . S
C1216 C1215 1.524 . S
C1216 C1217 1.397 . S
C1216 C1221 1.363 . S
C1217 H1188 0.950 . S
C1217 C1216 1.397 . S
C1217 C1218 1.334 . S
C1218 H1189 0.950 . S
C1218 C1217 1.334 . S
C1218 C1219 1.287 . S
C1219 C1218 1.287 . S
C1219 C1220 1.524 . S
C1219 H1222 0.999 . S
C1220 H1190 0.950 . S
C1220 C1219 1.524 . S
C1220 C1221 1.415 . S
C1221 H1191 0.950 . S
C1221 C1216 1.363 . S
C1221 C1220 1.415 . S
H1222 C1219 0.999 . S
H1223 C1204 0.913 . S
H1224 C1242 0.951 . S
H1225 C1244 0.951 . S
H1226 C1246 0.950 . S
H1227 C1247 0.950 . S
H1228 C1249 0.950 . S
H1229 C1252 0.950 . S
H1230 C1253 0.950 . S
H1231 C1255 0.950 . S
H1232 C1256 0.950 . S
H1233 C1257 0.951 . S
H1234 C1259 0.951 . S
H1235 C1261 0.950 . S
H1236 C1262 0.950 . S
H1237 C1264 0.950 . S
H1238 C1267 0.950 . S
H1239 C1268 0.950 . S
H1240 C1270 0.950 . S
H1241 C1271 0.950 . S
C1242 H1224 0.951 . S
C1242 C1243 1.366 . S
C1242 C1244 1.388 . S
C1243 C1242 1.366 . S
C1243 C1247 1.385 . S
C1244 H1225 0.951 . S
C1244 C1242 1.388 . S
C1244 C1245 1.366 . S
C1245 C1244 1.366 . S
C1245 C1246 1.414 . S
C1245 C1248 1.499 . S
C1246 H1226 0.950 . S
C1246 C1245 1.414 . S
C1246 C1247 1.374 . S
C1247 H1227 0.950 . S
C1247 C1243 1.385 . S
C1247 C1246 1.374 . S
C1248 C1245 1.499 . S
C1248 C1249 1.373 . S
C1248 C1250 1.389 . S
C1249 H1228 0.950 . S
C1249 C1248 1.373 . S
C1249 C1265 1.377 1_556 S
C1250 C1248 1.389 . S
C1250 C1251 1.524 . S
C1250 C1264 1.377 1_556 S
C1251 C1250 1.524 . S
C1251 C1252 1.397 . S
C1251 C1256 1.363 . S
C1252 H1229 0.950 . S
C1252 C1251 1.397 . S
C1252 C1253 1.334 . S
C1253 H1230 0.950 . S
C1253 C1252 1.334 . S
C1253 C1254 1.287 . S
C1254 C1253 1.287 . S
C1254 C1255 1.524 . S
C1254 H1273 0.913 . S
C1255 H1231 0.950 . S
C1255 C1254 1.524 . S
C1255 C1256 1.415 . S
C1256 H1232 0.950 . S
C1256 C1251 1.363 . S
C1256 C1255 1.415 . S
C1257 H1233 0.951 . S
C1257 C1258 1.366 . S
C1257 C1259 1.388 . S
C1258 C1257 1.366 . S
C1258 C1262 1.385 . S
C1259 H1234 0.951 . S
C1259 C1257 1.388 . S
C1259 C1260 1.366 . S
C1260 C1259 1.366 . S
C1260 C1261 1.414 . S
C1260 C1263 1.499 . S
C1261 H1235 0.950 . S
C1261 C1260 1.414 . S
C1261 C1262 1.374 . S
C1262 H1236 0.950 . S
C1262 C1258 1.385 . S
C1262 C1261 1.374 . S
C1263 C1260 1.499 . S
C1263 C1264 1.373 . S
C1263 C1265 1.389 . S
C1264 H1237 0.950 . S
C1264 C1250 1.377 1_554 S
C1264 C1263 1.373 . S
C1265 C1249 1.377 1_554 S
C1265 C1263 1.389 . S
C1265 C1266 1.524 . S
C1266 C1265 1.524 . S
C1266 C1267 1.397 . S
C1266 C1271 1.363 . S
C1267 H1238 0.950 . S
C1267 C1266 1.397 . S
C1267 C1268 1.334 . S
C1268 H1239 0.950 . S
C1268 C1267 1.334 . S
C1268 C1269 1.287 . S
C1269 C1268 1.287 . S
C1269 C1270 1.524 . S
C1269 H1272 0.999 . S
C1270 H1240 0.950 . S
C1270 C1269 1.524 . S
C1270 C1271 1.415 . S
C1271 H1241 0.950 . S
C1271 C1266 1.363 . S
C1271 C1270 1.415 . S
H1272 C1269 0.999 . S
H1273 C1254 0.913 . S
H1274 C1292 0.951 . S
H1275 C1294 0.951 . S
H1276 C1296 0.950 . S
H1277 C1297 0.950 . S
H1278 C1299 0.950 . S
H1279 C1302 0.950 . S
H1280 C1303 0.950 . S
H1281 C1305 0.950 . S
H1282 C1306 0.950 . S
H1283 C1307 0.951 . S
H1284 C1309 0.951 . S
H1285 C1311 0.950 . S
H1286 C1312 0.950 . S
H1287 C1314 0.950 . S
H1288 C1317 0.950 . S
H1289 C1318 0.950 . S
H1290 C1320 0.950 . S
H1291 C1321 0.950 . S
C1292 H1274 0.951 . S
C1292 C1293 1.366 . S
C1292 C1294 1.388 . S
C1293 C1292 1.366 . S
C1293 C1297 1.385 . S
C1294 H1275 0.951 . S
C1294 C1292 1.388 . S
C1294 C1295 1.366 . S
C1295 C1294 1.366 . S
C1295 C1296 1.414 . S
C1295 C1298 1.499 . S
C1296 H1276 0.950 . S
C1296 C1295 1.414 . S
C1296 C1297 1.374 . S
C1297 H1277 0.950 . S
C1297 C1293 1.385 . S
C1297 C1296 1.374 . S
C1298 C1295 1.499 . S
C1298 C1299 1.373 . S
C1298 C1300 1.389 . S
C1299 H1278 0.950 . S
C1299 C1298 1.373 . S
C1299 C1315 1.377 . S
C1300 C1298 1.389 . S
C1300 C1301 1.524 . S
C1300 C1314 1.377 . S
C1301 C1300 1.524 . S
C1301 C1302 1.397 . S
C1301 C1306 1.363 . S
C1302 H1279 0.950 . S
C1302 C1301 1.397 . S
C1302 C1303 1.334 . S
C1303 H1280 0.950 . S
C1303 C1302 1.334 . S
C1303 C1304 1.287 . S
C1304 C1303 1.287 . S
C1304 C1305 1.524 . S
C1304 H1323 0.913 . S
C1305 H1281 0.950 . S
C1305 C1304 1.524 . S
C1305 C1306 1.415 . S
C1306 H1282 0.950 . S
C1306 C1301 1.363 . S
C1306 C1305 1.415 . S
C1307 H1283 0.951 . S
C1307 C1308 1.366 . S
C1307 C1309 1.388 . S
C1308 C1307 1.366 . S
C1308 C1312 1.385 . S
C1309 H1284 0.951 . S
C1309 C1307 1.388 . S
C1309 C1310 1.366 . S
C1310 C1309 1.366 . S
C1310 C1311 1.414 . S
C1310 C1313 1.499 . S
C1311 H1285 0.950 . S
C1311 C1310 1.414 . S
C1311 C1312 1.374 . S
C1312 H1286 0.950 . S
C1312 C1308 1.385 . S
C1312 C1311 1.374 . S
C1313 C1310 1.499 . S
C1313 C1314 1.373 . S
C1313 C1315 1.389 . S
C1314 H1287 0.950 . S
C1314 C1300 1.377 . S
C1314 C1313 1.373 . S
C1315 C1299 1.377 . S
C1315 C1313 1.389 . S
C1315 C1316 1.524 . S
C1316 C1315 1.524 . S
C1316 C1317 1.397 . S
C1316 C1321 1.363 . S
C1317 H1288 0.950 . S
C1317 C1316 1.397 . S
C1317 C1318 1.334 . S
C1318 H1289 0.950 . S
C1318 C1317 1.334 . S
C1318 C1319 1.287 . S
C1319 C1318 1.287 . S
C1319 C1320 1.524 . S
C1319 H1322 0.999 . S
C1320 H1290 0.950 . S
C1320 C1319 1.524 . S
C1320 C1321 1.415 . S
C1321 H1291 0.950 . S
C1321 C1316 1.363 . S
C1321 C1320 1.415 . S
H1322 C1319 0.999 . S
H1323 C1304 0.913 . S
H1324 C1342 0.951 . S
H1325 C1344 0.951 . S
H1326 C1346 0.950 . S
H1327 C1347 0.950 . S
H1328 C1349 0.950 . S
H1329 C1352 0.950 . S
H1330 C1353 0.950 . S
H1331 C1355 0.950 . S
H1332 C1356 0.950 . S
H1333 C1357 0.951 . S
H1334 C1359 0.951 . S
H1335 C1361 0.950 . S
H1336 C1362 0.950 . S
H1337 C1364 0.950 . S
H1338 C1367 0.950 . S
H1339 C1368 0.950 . S
H1340 C1370 0.950 . S
H1341 C1371 0.950 . S
C1342 H1324 0.951 . S
C1342 C1343 1.366 . S
C1342 C1344 1.388 . S
C1343 C1342 1.366 . S
C1343 C1347 1.385 . S
C1344 H1325 0.951 . S
C1344 C1342 1.388 . S
C1344 C1345 1.366 . S
C1345 C1344 1.366 . S
C1345 C1346 1.414 . S
C1345 C1348 1.499 . S
C1346 H1326 0.950 . S
C1346 C1345 1.414 . S
C1346 C1347 1.374 . S
C1347 H1327 0.950 . S
C1347 C1343 1.385 . S
C1347 C1346 1.374 . S
C1348 C1345 1.499 . S
C1348 C1349 1.373 . S
C1348 C1350 1.389 . S
C1349 H1328 0.950 . S
C1349 C1348 1.373 . S
C1349 C1365 1.377 . S
C1350 C1348 1.389 . S
C1350 C1351 1.524 . S
C1350 C1364 1.377 . S
C1351 C1350 1.524 . S
C1351 C1352 1.397 . S
C1351 C1356 1.363 . S
C1352 H1329 0.950 . S
C1352 C1351 1.397 . S
C1352 C1353 1.334 . S
C1353 H1330 0.950 . S
C1353 C1352 1.334 . S
C1353 C1354 1.287 . S
C1354 C1353 1.287 . S
C1354 C1355 1.524 . S
C1354 H1373 0.913 . S
C1355 H1331 0.950 . S
C1355 C1354 1.524 . S
C1355 C1356 1.415 . S
C1356 H1332 0.950 . S
C1356 C1351 1.363 . S
C1356 C1355 1.415 . S
C1357 H1333 0.951 . S
C1357 C1358 1.366 . S
C1357 C1359 1.388 . S
C1358 C1357 1.366 . S
C1358 C1362 1.385 . S
C1359 H1334 0.951 . S
C1359 C1357 1.388 . S
C1359 C1360 1.366 . S
C1360 C1359 1.366 . S
C1360 C1361 1.414 . S
C1360 C1363 1.499 . S
C1361 H1335 0.950 . S
C1361 C1360 1.414 . S
C1361 C1362 1.374 . S
C1362 H1336 0.950 . S
C1362 C1358 1.385 . S
C1362 C1361 1.374 . S
C1363 C1360 1.499 . S
C1363 C1364 1.373 . S
C1363 C1365 1.389 . S
C1364 H1337 0.950 . S
C1364 C1350 1.377 . S
C1364 C1363 1.373 . S
C1365 C1349 1.377 . S
C1365 C1363 1.389 . S
C1365 C1366 1.524 . S
C1366 C1365 1.524 . S
C1366 C1367 1.397 . S
C1366 C1371 1.363 . S
C1367 H1338 0.950 . S
C1367 C1366 1.397 . S
C1367 C1368 1.334 . S
C1368 H1339 0.950 . S
C1368 C1367 1.334 . S
C1368 C1369 1.287 . S
C1369 C1368 1.287 . S
C1369 C1370 1.524 . S
C1369 H1372 0.999 . S
C1370 H1340 0.950 . S
C1370 C1369 1.524 . S
C1370 C1371 1.415 . S
C1371 H1341 0.950 . S
C1371 C1366 1.363 . S
C1371 C1370 1.415 . S
H1372 C1369 0.999 . S
H1373 C1354 0.913 . S
H1374 C1392 0.951 . S
H1375 C1394 0.951 . S
H1376 C1396 0.950 . S
H1377 C1397 0.950 . S
H1378 C1399 0.950 . S
H1379 C1402 0.950 . S
H1380 C1403 0.950 . S
H1381 C1405 0.950 . S
H1382 C1406 0.950 . S
H1383 C1407 0.951 . S
H1384 C1409 0.951 . S
H1385 C1411 0.950 . S
H1386 C1412 0.950 . S
H1387 C1414 0.950 . S
H1388 C1417 0.950 . S
H1389 C1418 0.950 . S
H1390 C1420 0.950 . S
H1391 C1421 0.950 . S
C1392 H1374 0.951 . S
C1392 C1393 1.366 . S
C1392 C1394 1.388 . S
C1393 C1392 1.366 . S
C1393 C1397 1.385 . S
C1394 H1375 0.951 . S
C1394 C1392 1.388 . S
C1394 C1395 1.366 . S
C1395 C1394 1.366 . S
C1395 C1396 1.414 . S
C1395 C1398 1.499 . S
C1396 H1376 0.950 . S
C1396 C1395 1.414 . S
C1396 C1397 1.374 . S
C1397 H1377 0.950 . S
C1397 C1393 1.385 . S
C1397 C1396 1.374 . S
C1398 C1395 1.499 . S
C1398 C1399 1.373 . S
C1398 C1400 1.389 . S
C1399 H1378 0.950 . S
C1399 C1398 1.373 . S
C1399 C1415 1.377 1_455 S
C1400 C1398 1.389 . S
C1400 C1401 1.524 . S
C1400 C1414 1.377 1_455 S
C1401 C1400 1.524 . S
C1401 C1402 1.397 . S
C1401 C1406 1.363 1_455 S
C1402 H1379 0.950 . S
C1402 C1401 1.397 . S
C1402 C1403 1.334 . S
C1403 H1380 0.950 . S
C1403 C1402 1.334 . S
C1403 C1404 1.287 . S
C1404 C1403 1.287 . S
C1404 C1405 1.524 1_455 S
C1404 H1423 0.913 . S
C1405 H1381 0.950 . S
C1405 C1404 1.524 1_655 S
C1405 C1406 1.415 . S
C1406 H1382 0.950 . S
C1406 C1401 1.363 1_655 S
C1406 C1405 1.415 . S
C1407 H1383 0.951 . S
C1407 C1408 1.366 . S
C1407 C1409 1.388 . S
C1408 C1407 1.366 . S
C1408 C1412 1.385 . S
C1409 H1384 0.951 . S
C1409 C1407 1.388 . S
C1409 C1410 1.366 . S
C1410 C1409 1.366 . S
C1410 C1411 1.414 . S
C1410 C1413 1.499 . S
C1411 H1385 0.950 . S
C1411 C1410 1.414 . S
C1411 C1412 1.374 . S
C1412 H1386 0.950 . S
C1412 C1408 1.385 . S
C1412 C1411 1.374 . S
C1413 C1410 1.499 . S
C1413 C1414 1.373 . S
C1413 C1415 1.389 . S
C1414 H1387 0.950 . S
C1414 C1400 1.377 1_655 S
C1414 C1413 1.373 . S
C1415 C1399 1.377 1_655 S
C1415 C1413 1.389 . S
C1415 C1416 1.524 . S
C1416 C1415 1.524 . S
C1416 C1417 1.397 . S
C1416 C1421 1.363 1_655 S
C1417 H1388 0.950 . S
C1417 C1416 1.397 . S
C1417 C1418 1.334 . S
C1418 H1389 0.950 . S
C1418 C1417 1.334 . S
C1418 C1419 1.287 . S
C1419 C1418 1.287 . S
C1419 C1420 1.524 1_655 S
C1419 H1422 0.999 . S
C1420 H1390 0.950 . S
C1420 C1419 1.524 1_455 S
C1420 C1421 1.415 . S
C1421 H1391 0.950 . S
C1421 C1416 1.363 1_455 S
C1421 C1420 1.415 . S
H1422 C1419 0.999 . S
H1423 C1404 0.913 . S
H1424 C1442 0.951 . S
H1425 C1444 0.951 . S
H1426 C1446 0.950 . S
H1427 C1447 0.950 . S
H1428 C1449 0.950 . S
H1429 C1452 0.950 . S
H1430 C1453 0.950 . S
H1431 C1455 0.950 . S
H1432 C1456 0.950 . S
H1433 C1457 0.951 . S
H1434 C1459 0.951 . S
H1435 C1461 0.950 . S
H1436 C1462 0.950 . S
H1437 C1464 0.950 . S
H1438 C1467 0.950 . S
H1439 C1468 0.950 . S
H1440 C1470 0.950 . S
H1441 C1471 0.950 . S
C1442 H1424 0.951 . S
C1442 C1443 1.366 . S
C1442 C1444 1.388 . S
C1443 C1442 1.366 . S
C1443 C1447 1.385 . S
C1444 H1425 0.951 . S
C1444 C1442 1.388 . S
C1444 C1445 1.366 . S
C1445 C1444 1.366 . S
C1445 C1446 1.414 . S
C1445 C1448 1.499 . S
C1446 H1426 0.950 . S
C1446 C1445 1.414 . S
C1446 C1447 1.374 . S
C1447 H1427 0.950 . S
C1447 C1443 1.385 . S
C1447 C1446 1.374 . S
C1448 C1445 1.499 . S
C1448 C1449 1.373 . S
C1448 C1450 1.389 . S
C1449 H1428 0.950 . S
C1449 C1448 1.373 . S
C1449 C1465 1.377 1_455 S
C1450 C1448 1.389 . S
C1450 C1451 1.524 . S
C1450 C1464 1.377 1_455 S
C1451 C1450 1.524 . S
C1451 C1452 1.397 . S
C1451 C1456 1.363 . S
C1452 H1429 0.950 . S
C1452 C1451 1.397 . S
C1452 C1453 1.334 . S
C1453 H1430 0.950 . S
C1453 C1452 1.334 . S
C1453 C1454 1.287 . S
C1454 C1453 1.287 . S
C1454 C1455 1.524 . S
C1454 H1473 0.913 . S
C1455 H1431 0.950 . S
C1455 C1454 1.524 . S
C1455 C1456 1.415 . S
C1456 H1432 0.950 . S
C1456 C1451 1.363 . S
C1456 C1455 1.415 . S
C1457 H1433 0.951 . S
C1457 C1458 1.366 . S
C1457 C1459 1.388 . S
C1458 C1457 1.366 . S
C1458 C1462 1.385 . S
C1459 H1434 0.951 . S
C1459 C1457 1.388 . S
C1459 C1460 1.366 . S
C1460 C1459 1.366 . S
C1460 C1461 1.414 . S
C1460 C1463 1.499 . S
C1461 H1435 0.950 . S
C1461 C1460 1.414 . S
C1461 C1462 1.374 . S
C1462 H1436 0.950 . S
C1462 C1458 1.385 . S
C1462 C1461 1.374 . S
C1463 C1460 1.499 . S
C1463 C1464 1.373 . S
C1463 C1465 1.389 . S
C1464 H1437 0.950 . S
C1464 C1450 1.377 1_655 S
C1464 C1463 1.373 . S
C1465 C1449 1.377 1_655 S
C1465 C1463 1.389 . S
C1465 C1466 1.524 . S
C1466 C1465 1.524 . S
C1466 C1467 1.397 . S
C1466 C1471 1.363 . S
C1467 H1438 0.950 . S
C1467 C1466 1.397 . S
C1467 C1468 1.334 . S
C1468 H1439 0.950 . S
C1468 C1467 1.334 . S
C1468 C1469 1.287 . S
C1469 C1468 1.287 . S
C1469 C1470 1.524 . S
C1469 H1472 0.999 . S
C1470 H1440 0.950 . S
C1470 C1469 1.524 . S
C1470 C1471 1.415 . S
C1471 H1441 0.950 . S
C1471 C1466 1.363 . S
C1471 C1470 1.415 . S
H1472 C1469 0.999 . S
H1473 C1454 0.913 . S
H1474 C1492 0.951 . S
H1475 C1494 0.951 . S
H1476 C1496 0.950 . S
H1477 C1497 0.950 . S
H1478 C1499 0.950 . S
H1479 C1502 0.950 . S
H1480 C1503 0.950 . S
H1481 C1505 0.950 . S
H1482 C1506 0.950 . S
H1483 C1507 0.951 . S
H1484 C1509 0.951 . S
H1485 C1511 0.950 . S
H1486 C1512 0.950 . S
H1487 C1514 0.950 . S
H1488 C1517 0.950 . S
H1489 C1518 0.950 . S
H1490 C1520 0.950 . S
H1491 C1521 0.950 . S
C1492 H1474 0.951 . S
C1492 C1493 1.366 . S
C1492 C1494 1.388 . S
C1493 C1492 1.366 . S
C1493 C1497 1.385 . S
C1494 H1475 0.951 . S
C1494 C1492 1.388 . S
C1494 C1495 1.366 . S
C1495 C1494 1.366 . S
C1495 C1496 1.414 . S
C1495 C1498 1.499 . S
C1496 H1476 0.950 . S
C1496 C1495 1.414 . S
C1496 C1497 1.374 . S
C1497 H1477 0.950 . S
C1497 C1493 1.385 . S
C1497 C1496 1.374 . S
C1498 C1495 1.499 . S
C1498 C1499 1.373 . S
C1498 C1500 1.389 . S
C1499 H1478 0.950 . S
C1499 C1498 1.373 . S
C1499 C1515 1.377 . S
C1500 C1498 1.389 . S
C1500 C1501 1.524 . S
C1500 C1514 1.377 . S
C1501 C1500 1.524 . S
C1501 C1502 1.397 . S
C1501 C1506 1.363 . S
C1502 H1479 0.950 . S
C1502 C1501 1.397 . S
C1502 C1503 1.334 . S
C1503 H1480 0.950 . S
C1503 C1502 1.334 . S
C1503 C1504 1.287 . S
C1504 C1503 1.287 . S
C1504 C1505 1.524 . S
C1504 H1523 0.913 . S
C1505 H1481 0.950 . S
C1505 C1504 1.524 . S
C1505 C1506 1.415 . S
C1506 H1482 0.950 . S
C1506 C1501 1.363 . S
C1506 C1505 1.415 . S
C1507 H1483 0.951 . S
C1507 C1508 1.366 . S
C1507 C1509 1.388 . S
C1508 C1507 1.366 . S
C1508 C1512 1.385 . S
C1509 H1484 0.951 . S
C1509 C1507 1.388 . S
C1509 C1510 1.366 . S
C1510 C1509 1.366 . S
C1510 C1511 1.414 . S
C1510 C1513 1.499 . S
C1511 H1485 0.950 . S
C1511 C1510 1.414 . S
C1511 C1512 1.374 . S
C1512 H1486 0.950 . S
C1512 C1508 1.385 . S
C1512 C1511 1.374 . S
C1513 C1510 1.499 . S
C1513 C1514 1.373 . S
C1513 C1515 1.389 . S
C1514 H1487 0.950 . S
C1514 C1500 1.377 . S
C1514 C1513 1.373 . S
C1515 C1499 1.377 . S
C1515 C1513 1.389 . S
C1515 C1516 1.524 . S
C1516 C1515 1.524 . S
C1516 C1517 1.397 . S
C1516 C1521 1.363 . S
C1517 H1488 0.950 . S
C1517 C1516 1.397 . S
C1517 C1518 1.334 . S
C1518 H1489 0.950 . S
C1518 C1517 1.334 . S
C1518 C1519 1.287 . S
C1519 C1518 1.287 . S
C1519 C1520 1.524 . S
C1519 H1522 0.999 . S
C1520 H1490 0.950 . S
C1520 C1519 1.524 . S
C1520 C1521 1.415 . S
C1521 H1491 0.950 . S
C1521 C1516 1.363 . S
C1521 C1520 1.415 . S
H1522 C1519 0.999 . S
H1523 C1504 0.913 . S
H1524 C1542 0.951 . S
H1525 C1544 0.951 . S
H1526 C1546 0.950 . S
H1527 C1547 0.950 . S
H1528 C1549 0.950 . S
H1529 C1552 0.950 . S
H1530 C1553 0.950 . S
H1531 C1555 0.950 . S
H1532 C1556 0.950 . S
H1533 C1557 0.951 . S
H1534 C1559 0.951 . S
H1535 C1561 0.950 . S
H1536 C1562 0.950 . S
H1537 C1564 0.950 . S
H1538 C1567 0.950 . S
H1539 C1568 0.950 . S
H1540 C1570 0.950 . S
H1541 C1571 0.950 . S
C1542 H1524 0.951 . S
C1542 C1543 1.366 . S
C1542 C1544 1.388 . S
C1543 C1542 1.366 . S
C1543 C1547 1.385 . S
C1544 H1525 0.951 . S
C1544 C1542 1.388 . S
C1544 C1545 1.366 . S
C1545 C1544 1.366 . S
C1545 C1546 1.414 . S
C1545 C1548 1.499 . S
C1546 H1526 0.950 . S
C1546 C1545 1.414 . S
C1546 C1547 1.374 . S
C1547 H1527 0.950 . S
C1547 C1543 1.385 . S
C1547 C1546 1.374 . S
C1548 C1545 1.499 . S
C1548 C1549 1.373 . S
C1548 C1550 1.389 . S
C1549 H1528 0.950 . S
C1549 C1548 1.373 . S
C1549 C1565 1.377 . S
C1550 C1548 1.389 . S
C1550 C1551 1.524 . S
C1550 C1564 1.377 . S
C1551 C1550 1.524 . S
C1551 C1552 1.397 . S
C1551 C1556 1.363 . S
C1552 H1529 0.950 . S
C1552 C1551 1.397 . S
C1552 C1553 1.334 . S
C1553 H1530 0.950 . S
C1553 C1552 1.334 . S
C1553 C1554 1.287 . S
C1554 C1553 1.287 . S
C1554 C1555 1.524 . S
C1554 H1573 0.913 . S
C1555 H1531 0.950 . S
C1555 C1554 1.524 . S
C1555 C1556 1.415 . S
C1556 H1532 0.950 . S
C1556 C1551 1.363 . S
C1556 C1555 1.415 . S
C1557 H1533 0.951 . S
C1557 C1558 1.366 . S
C1557 C1559 1.388 . S
C1558 C1557 1.366 . S
C1558 C1562 1.385 . S
C1559 H1534 0.951 . S
C1559 C1557 1.388 . S
C1559 C1560 1.366 . S
C1560 C1559 1.366 . S
C1560 C1561 1.414 . S
C1560 C1563 1.499 . S
C1561 H1535 0.950 . S
C1561 C1560 1.414 . S
C1561 C1562 1.374 . S
C1562 H1536 0.950 . S
C1562 C1558 1.385 . S
C1562 C1561 1.374 . S
C1563 C1560 1.499 . S
C1563 C1564 1.373 . S
C1563 C1565 1.389 . S
C1564 H1537 0.950 . S
C1564 C1550 1.377 . S
C1564 C1563 1.373 . S
C1565 C1549 1.377 . S
C1565 C1563 1.389 . S
C1565 C1566 1.524 . S
C1566 C1565 1.524 . S
C1566 C1567 1.397 . S
C1566 C1571 1.363 . S
C1567 H1538 0.950 . S
C1567 C1566 1.397 . S
C1567 C1568 1.334 . S
C1568 H1539 0.950 . S
C1568 C1567 1.334 . S
C1568 C1569 1.287 . S
C1569 C1568 1.287 . S
C1569 C1570 1.524 . S
C1569 H1572 0.999 . S
C1570 H1540 0.950 . S
C1570 C1569 1.524 . S
C1570 C1571 1.415 . S
C1571 H1541 0.950 . S
C1571 C1566 1.363 . S
C1571 C1570 1.415 . S
H1572 C1569 0.999 . S
H1573 C1554 0.913 . S
H1574 C1592 0.951 . S
H1575 C1594 0.951 . S
H1576 C1596 0.950 . S
H1577 C1597 0.950 . S
H1578 C1599 0.950 . S
H1579 C1602 0.950 . S
H1580 C1603 0.950 . S
H1581 C1605 0.950 . S
H1582 C1606 0.950 . S
H1583 C1607 0.951 . S
H1584 C1609 0.951 . S
H1585 C1611 0.950 . S
H1586 C1612 0.950 . S
H1587 C1614 0.950 . S
H1588 C1617 0.950 . S
H1589 C1618 0.950 . S
H1590 C1620 0.950 . S
H1591 C1621 0.950 . S
C1592 H1574 0.951 . S
C1592 C1593 1.366 . S
C1592 C1594 1.388 . S
C1593 C1592 1.366 . S
C1593 C1597 1.385 . S
C1594 H1575 0.951 . S
C1594 C1592 1.388 . S
C1594 C1595 1.366 . S
C1595 C1594 1.366 . S
C1595 C1596 1.414 . S
C1595 C1598 1.499 . S
C1596 H1576 0.950 . S
C1596 C1595 1.414 . S
C1596 C1597 1.374 . S
C1597 H1577 0.950 . S
C1597 C1593 1.385 . S
C1597 C1596 1.374 . S
C1598 C1595 1.499 . S
C1598 C1599 1.373 1_545 S
C1598 C1600 1.389 . S
C1599 H1578 0.950 . S
C1599 C1598 1.373 1_565 S
C1599 C1615 1.377 . S
C1600 C1598 1.389 . S
C1600 C1601 1.524 . S
C1600 C1614 1.377 . S
C1601 C1600 1.524 . S
C1601 C1602 1.397 . S
C1601 C1606 1.363 . S
C1602 H1579 0.950 . S
C1602 C1601 1.397 . S
C1602 C1603 1.334 . S
C1603 H1580 0.950 . S
C1603 C1602 1.334 . S
C1603 C1604 1.287 . S
C1604 C1603 1.287 . S
C1604 C1605 1.524 . S
C1604 H1623 0.913 . S
C1605 H1581 0.950 . S
C1605 C1604 1.524 . S
C1605 C1606 1.415 . S
C1606 H1582 0.950 . S
C1606 C1601 1.363 . S
C1606 C1605 1.415 . S
C1607 H1583 0.951 . S
C1607 C1608 1.366 . S
C1607 C1609 1.388 . S
C1608 C1607 1.366 . S
C1608 C1612 1.385 . S
C1609 H1584 0.951 . S
C1609 C1607 1.388 . S
C1609 C1610 1.366 . S
C1610 C1609 1.366 . S
C1610 C1611 1.414 . S
C1610 C1613 1.499 . S
C1611 H1585 0.950 . S
C1611 C1610 1.414 . S
C1611 C1612 1.374 . S
C1612 H1586 0.950 . S
C1612 C1608 1.385 . S
C1612 C1611 1.374 . S
C1613 C1610 1.499 . S
C1613 C1614 1.373 1_565 S
C1613 C1615 1.389 . S
C1614 H1587 0.950 . S
C1614 C1600 1.377 . S
C1614 C1613 1.373 1_545 S
C1615 C1599 1.377 . S
C1615 C1613 1.389 . S
C1615 C1616 1.524 . S
C1616 C1615 1.524 . S
C1616 C1617 1.397 . S
C1616 C1621 1.363 . S
C1617 H1588 0.950 . S
C1617 C1616 1.397 . S
C1617 C1618 1.334 . S
C1618 H1589 0.950 . S
C1618 C1617 1.334 . S
C1618 C1619 1.287 . S
C1619 C1618 1.287 . S
C1619 C1620 1.524 . S
C1619 H1622 0.999 . S
C1620 H1590 0.950 . S
C1620 C1619 1.524 . S
C1620 C1621 1.415 . S
C1621 H1591 0.950 . S
C1621 C1616 1.363 . S
C1621 C1620 1.415 . S
H1622 C1619 0.999 . S
H1623 C1604 0.913 . S
H1624 C1642 0.951 . S
H1625 C1644 0.951 . S
H1626 C1646 0.950 . S
H1627 C1647 0.950 . S
H1628 C1649 0.950 . S
H1629 C1652 0.950 . S
H1630 C1653 0.950 . S
H1631 C1655 0.950 . S
H1632 C1656 0.950 . S
H1633 C1657 0.951 . S
H1634 C1659 0.951 . S
H1635 C1661 0.950 . S
H1636 C1662 0.950 . S
H1637 C1664 0.950 . S
H1638 C1667 0.950 . S
H1639 C1668 0.950 . S
H1640 C1670 0.950 . S
H1641 C1671 0.950 . S
C1642 H1624 0.951 . S
C1642 C1643 1.366 . S
C1642 C1644 1.388 . S
C1643 C1642 1.366 . S
C1643 C1647 1.385 . S
C1644 H1625 0.951 . S
C1644 C1642 1.388 . S
C1644 C1645 1.366 . S
C1645 C1644 1.366 . S
C1645 C1646 1.414 . S
C1645 C1648 1.499 . S
C1646 H1626 0.950 . S
C1646 C1645 1.414 . S
C1646 C1647 1.374 . S
C1647 H1627 0.950 . S
C1647 C1643 1.385 . S
C1647 C1646 1.374 . S
C1648 C1645 1.499 . S
C1648 C1649 1.373 . S
C1648 C1650 1.389 . S
C1649 H1628 0.950 . S
C1649 C1648 1.373 . S
C1649 C1665 1.377 . S
C1650 C1648 1.389 . S
C1650 C1651 1.524 . S
C1650 C1664 1.377 . S
C1651 C1650 1.524 . S
C1651 C1652 1.397 . S
C1651 C1656 1.363 . S
C1652 H1629 0.950 . S
C1652 C1651 1.397 . S
C1652 C1653 1.334 . S
C1653 H1630 0.950 . S
C1653 C1652 1.334 . S
C1653 C1654 1.287 . S
C1654 C1653 1.287 . S
C1654 C1655 1.524 . S
C1654 H1673 0.913 . S
C1655 H1631 0.950 . S
C1655 C1654 1.524 . S
C1655 C1656 1.415 . S
C1656 H1632 0.950 . S
C1656 C1651 1.363 . S
C1656 C1655 1.415 . S
C1657 H1633 0.951 . S
C1657 C1658 1.366 . S
C1657 C1659 1.388 . S
C1658 C1657 1.366 . S
C1658 C1662 1.385 . S
C1659 H1634 0.951 . S
C1659 C1657 1.388 . S
C1659 C1660 1.366 . S
C1660 C1659 1.366 . S
C1660 C1661 1.414 . S
C1660 C1663 1.499 . S
C1661 H1635 0.950 . S
C1661 C1660 1.414 . S
C1661 C1662 1.374 . S
C1662 H1636 0.950 . S
C1662 C1658 1.385 . S
C1662 C1661 1.374 . S
C1663 C1660 1.499 . S
C1663 C1664 1.373 . S
C1663 C1665 1.389 . S
C1664 H1637 0.950 . S
C1664 C1650 1.377 . S
C1664 C1663 1.373 . S
C1665 C1649 1.377 . S
C1665 C1663 1.389 . S
C1665 C1666 1.524 . S
C1666 C1665 1.524 . S
C1666 C1667 1.397 . S
C1666 C1671 1.363 . S
C1667 H1638 0.950 . S
C1667 C1666 1.397 . S
C1667 C1668 1.334 . S
C1668 H1639 0.950 . S
C1668 C1667 1.334 . S
C1668 C1669 1.287 . S
C1669 C1668 1.287 . S
C1669 C1670 1.524 . S
C1669 H1672 0.999 . S
C1670 H1640 0.950 . S
C1670 C1669 1.524 . S
C1670 C1671 1.415 . S
C1671 H1641 0.950 . S
C1671 C1666 1.363 . S
C1671 C1670 1.415 . S
H1672 C1669 0.999 . S
H1673 C1654 0.913 . S
H1674 C1692 0.951 . S
H1675 C1694 0.951 . S
H1676 C1696 0.950 . S
H1677 C1697 0.950 . S
H1678 C1699 0.950 . S
H1679 C1702 0.950 . S
H1680 C1703 0.950 . S
H1681 C1705 0.950 . S
H1682 C1706 0.950 . S
H1683 C1707 0.951 . S
H1684 C1709 0.951 . S
H1685 C1711 0.950 . S
H1686 C1712 0.950 . S
H1687 C1714 0.950 . S
H1688 C1717 0.950 . S
H1689 C1718 0.950 . S
H1690 C1720 0.950 . S
H1691 C1721 0.950 . S
C1692 H1674 0.951 . S
C1692 C1693 1.366 . S
C1692 C1694 1.388 . S
C1693 C1692 1.366 . S
C1693 C1697 1.385 . S
C1694 H1675 0.951 . S
C1694 C1692 1.388 . S
C1694 C1695 1.366 . S
C1695 C1694 1.366 . S
C1695 C1696 1.414 . S
C1695 C1698 1.499 . S
C1696 H1676 0.950 . S
C1696 C1695 1.414 . S
C1696 C1697 1.374 . S
C1697 H1677 0.950 . S
C1697 C1693 1.385 . S
C1697 C1696 1.374 . S
C1698 C1695 1.499 . S
C1698 C1699 1.373 . S
C1698 C1700 1.389 . S
C1699 H1678 0.950 . S
C1699 C1698 1.373 . S
C1699 C1715 1.377 . S
C1700 C1698 1.389 . S
C1700 C1701 1.524 . S
C1700 C1714 1.377 . S
C1701 C1700 1.524 . S
C1701 C1702 1.397 . S
C1701 C1706 1.363 . S
C1702 H1679 0.950 . S
C1702 C1701 1.397 . S
C1702 C1703 1.334 . S
C1703 H1680 0.950 . S
C1703 C1702 1.334 . S
C1703 C1704 1.287 . S
C1704 C1703 1.287 . S
C1704 C1705 1.524 . S
C1704 H1723 0.913 . S
C1705 H1681 0.950 . S
C1705 C1704 1.524 . S
C1705 C1706 1.415 . S
C1706 H1682 0.950 . S
C1706 C1701 1.363 . S
C1706 C1705 1.415 . S
C1707 H1683 0.951 . S
C1707 C1708 1.366 . S
C1707 C1709 1.388 . S
C1708 C1707 1.366 . S
C1708 C1712 1.385 . S
C1709 H1684 0.951 . S
C1709 C1707 1.388 . S
C1709 C1710 1.366 . S
C1710 C1709 1.366 . S
C1710 C1711 1.414 . S
C1710 C1713 1.499 . S
C1711 H1685 0.950 . S
C1711 C1710 1.414 . S
C1711 C1712 1.374 . S
C1712 H1686 0.950 . S
C1712 C1708 1.385 . S
C1712 C1711 1.374 . S
C1713 C1710 1.499 . S
C1713 C1714 1.373 . S
C1713 C1715 1.389 . S
C1714 H1687 0.950 . S
C1714 C1700 1.377 . S
C1714 C1713 1.373 . S
C1715 C1699 1.377 . S
C1715 C1713 1.389 . S
C1715 C1716 1.524 . S
C1716 C1715 1.524 . S
C1716 C1717 1.397 . S
C1716 C1721 1.363 . S
C1717 H1688 0.950 . S
C1717 C1716 1.397 . S
C1717 C1718 1.334 . S
C1718 H1689 0.950 . S
C1718 C1717 1.334 . S
C1718 C1719 1.287 . S
C1719 C1718 1.287 . S
C1719 C1720 1.524 . S
C1719 H1722 0.999 . S
C1720 H1690 0.950 . S
C1720 C1719 1.524 . S
C1720 C1721 1.415 . S
C1721 H1691 0.950 . S
C1721 C1716 1.363 . S
C1721 C1720 1.415 . S
H1722 C1719 0.999 . S
H1723 C1704 0.913 . S
H1724 C1742 0.951 . S
H1725 C1744 0.951 . S
H1726 C1746 0.950 . S
H1727 C1747 0.950 . S
H1728 C1749 0.950 . S
H1729 C1752 0.950 . S
H1730 C1753 0.950 . S
H1731 C1755 0.950 . S
H1732 C1756 0.950 . S
H1733 C1757 0.951 . S
H1734 C1759 0.951 . S
H1735 C1761 0.950 . S
H1736 C1762 0.950 . S
H1737 C1764 0.950 . S
H1738 C1767 0.950 . S
H1739 C1768 0.950 . S
H1740 C1770 0.950 . S
H1741 C1771 0.950 . S
C1742 H1724 0.951 . S
C1742 C1743 1.366 . S
C1742 C1744 1.388 . S
C1743 C1742 1.366 . S
C1743 C1747 1.385 . S
C1744 H1725 0.951 . S
C1744 C1742 1.388 . S
C1744 C1745 1.366 . S
C1745 C1744 1.366 . S
C1745 C1746 1.414 . S
C1745 C1748 1.499 . S
C1746 H1726 0.950 . S
C1746 C1745 1.414 . S
C1746 C1747 1.374 . S
C1747 H1727 0.950 . S
C1747 C1743 1.385 . S
C1747 C1746 1.374 . S
C1748 C1745 1.499 . S
C1748 C1749 1.373 . S
C1748 C1750 1.389 . S
C1749 H1728 0.950 . S
C1749 C1748 1.373 . S
C1749 C1765 1.377 1_545 S
C1750 C1748 1.389 . S
C1750 C1751 1.524 . S
C1750 C1764 1.377 1_545 S
C1751 C1750 1.524 . S
C1751 C1752 1.397 . S
C1751 C1756 1.363 . S
C1752 H1729 0.950 . S
C1752 C1751 1.397 . S
C1752 C1753 1.334 . S
C1753 H1730 0.950 . S
C1753 C1752 1.334 . S
C1753 C1754 1.287 . S
C1754 C1753 1.287 . S
C1754 C1755 1.524 . S
C1754 H1773 0.913 . S
C1755 H1731 0.950 . S
C1755 C1754 1.524 . S
C1755 C1756 1.415 . S
C1756 H1732 0.950 . S
C1756 C1751 1.363 . S
C1756 C1755 1.415 . S
C1757 H1733 0.951 . S
C1757 C1758 1.366 . S
C1757 C1759 1.388 . S
C1758 C1757 1.366 . S
C1758 C1762 1.385 . S
C1759 H1734 0.951 . S
C1759 C1757 1.388 . S
C1759 C1760 1.366 . S
C1760 C1759 1.366 . S
C1760 C1761 1.414 . S
C1760 C1763 1.499 . S
C1761 H1735 0.950 . S
C1761 C1760 1.414 . S
C1761 C1762 1.374 . S
C1762 H1736 0.950 . S
C1762 C1758 1.385 . S
C1762 C1761 1.374 . S
C1763 C1760 1.499 . S
C1763 C1764 1.373 . S
C1763 C1765 1.389 . S
C1764 H1737 0.950 . S
C1764 C1750 1.377 1_565 S
C1764 C1763 1.373 . S
C1765 C1749 1.377 1_565 S
C1765 C1763 1.389 . S
C1765 C1766 1.524 . S
C1766 C1765 1.524 . S
C1766 C1767 1.397 . S
C1766 C1771 1.363 . S
C1767 H1738 0.950 . S
C1767 C1766 1.397 . S
C1767 C1768 1.334 . S
C1768 H1739 0.950 . S
C1768 C1767 1.334 . S
C1768 C1769 1.287 . S
C1769 C1768 1.287 . S
C1769 C1770 1.524 . S
C1769 H1772 0.999 . S
C1770 H1740 0.950 . S
C1770 C1769 1.524 . S
C1770 C1771 1.415 . S
C1771 H1741 0.950 . S
C1771 C1766 1.363 . S
C1771 C1770 1.415 . S
H1772 C1769 0.999 . S
H1773 C1754 0.913 . S
H1774 C1792 0.951 . S
H1775 C1794 0.951 . S
H1776 C1796 0.950 . S
H1777 C1797 0.950 . S
H1778 C1799 0.950 . S
H1779 C1802 0.950 . S
H1780 C1803 0.950 . S
H1781 C1805 0.950 . S
H1782 C1806 0.950 . S
H1783 C1807 0.951 . S
H1784 C1809 0.951 . S
H1785 C1811 0.950 . S
H1786 C1812 0.950 . S
H1787 C1814 0.950 . S
H1788 C1817 0.950 . S
H1789 C1818 0.950 . S
H1790 C1820 0.950 . S
H1791 C1821 0.950 . S
C1792 H1774 0.951 . S
C1792 C1793 1.366 . S
C1792 C1794 1.388 . S
C1793 C1792 1.366 . S
C1793 C1797 1.385 . S
C1794 H1775 0.951 . S
C1794 C1792 1.388 . S
C1794 C1795 1.366 . S
C1795 C1794 1.366 . S
C1795 C1796 1.414 . S
C1795 C1798 1.499 . S
C1796 H1776 0.950 . S
C1796 C1795 1.414 . S
C1796 C1797 1.374 . S
C1797 H1777 0.950 . S
C1797 C1793 1.385 . S
C1797 C1796 1.374 . S
C1798 C1795 1.499 . S
C1798 C1799 1.373 . S
C1798 C1800 1.389 . S
C1799 H1778 0.950 . S
C1799 C1798 1.373 . S
C1799 C1815 1.377 . S
C1800 C1798 1.389 . S
C1800 C1801 1.524 . S
C1800 C1814 1.377 . S
C1801 C1800 1.524 . S
C1801 C1802 1.397 . S
C1801 C1806 1.363 . S
C1802 H1779 0.950 . S
C1802 C1801 1.397 . S
C1802 C1803 1.334 . S
C1803 H1780 0.950 . S
C1803 C1802 1.334 . S
C1803 C1804 1.287 . S
C1804 C1803 1.287 . S
C1804 C1805 1.524 . S
C1804 H1823 0.913 . S
C1805 H1781 0.950 . S
C1805 C1804 1.524 . S
C1805 C1806 1.415 . S
C1806 H1782 0.950 . S
C1806 C1801 1.363 . S
C1806 C1805 1.415 . S
C1807 H1783 0.951 . S
C1807 C1808 1.366 . S
C1807 C1809 1.388 . S
C1808 C1807 1.366 . S
C1808 C1812 1.385 . S
C1809 H1784 0.951 . S
C1809 C1807 1.388 . S
C1809 C1810 1.366 . S
C1810 C1809 1.366 . S
C1810 C1811 1.414 . S
C1810 C1813 1.499 . S
C1811 H1785 0.950 . S
C1811 C1810 1.414 . S
C1811 C1812 1.374 . S
C1812 H1786 0.950 . S
C1812 C1808 1.385 . S
C1812 C1811 1.374 . S
C1813 C1810 1.499 . S
C1813 C1814 1.373 . S
C1813 C1815 1.389 . S
C1814 H1787 0.950 . S
C1814 C1800 1.377 . S
C1814 C1813 1.373 . S
C1815 C1799 1.377 . S
C1815 C1813 1.389 . S
C1815 C1816 1.524 . S
C1816 C1815 1.524 . S
C1816 C1817 1.397 . S
C1816 C1821 1.363 . S
C1817 H1788 0.950 . S
C1817 C1816 1.397 . S
C1817 C1818 1.334 . S
C1818 H1789 0.950 . S
C1818 C1817 1.334 . S
C1818 C1819 1.287 . S
C1819 C1818 1.287 . S
C1819 C1820 1.524 . S
C1819 H1822 0.999 . S
C1820 H1790 0.950 . S
C1820 C1819 1.524 . S
C1820 C1821 1.415 . S
C1821 H1791 0.950 . S
C1821 C1816 1.363 . S
C1821 C1820 1.415 . S
H1822 C1819 0.999 . S
H1823 C1804 0.913 . S
C243 C9 0.915 . S
C258 C191 0.910 . S
C293 C23 0.916 . S
C308 C135 0.911 . S
C343 C205 0.911 . S
C358 C37 0.916 . S
C393 C51 0.915 . S
C408 C219 0.910 . S
C443 C65 0.915 . S
C458 C93 0.910 . S
C493 C149 0.916 . S
C508 C79 0.911 . S
C543 C163 0.915 . S
C558 C107 0.911 . S
C593 C121 0.910 . S
C608 C177 0.916 . S
C643 C33 1.676 . S
C658 C5 1.677 . S
C693 C19 1.676 . S
C708 C47 1.677 . S
C743 C179 1.809 . S
C758 C11 1.808 . S
C793 C25 1.809 . S
C808 C165 1.808 . S
C843 C67 1.809 . S
C858 C39 1.809 . S
C893 C151 1.809 . S
C908 C53 1.809 . S
C943 C14 1.367 . S
C958 C0 1.367 . S
C993 C42 1.367 . S
C1008 C28 1.367 . S
C1043 C140 1.367 . S
C1058 C56 1.367 . S
C1093 C109 1.593 . S
C1108 C81 1.593 . S
C1143 C95 1.593 . S
C1158 C123 1.593 . S
C1193 C215 1.866 . S
C1208 C75 1.866 . S
C1243 C89 1.866 . S
C1258 C201 1.866 . S
C1293 C131 1.866 . S
C1308 C103 1.866 . S
C1343 C117 1.867 . S
C1358 C187 1.866 . S
C1393 C84 1.447 . S
C1408 C70 1.447 . S
C1443 C112 1.448 . S
C1458 C98 1.448 . S
C1493 C126 1.447 . S
C1508 C182 1.447 . S
C1543 C145 1.677 . S
C1558 C159 1.676 . S
C1593 C173 1.677 . S
C1608 C61 1.676 . S
C1643 C168 1.367 . S
C1658 C154 1.367 . S
C1693 C207 1.593 . S
C1708 C193 1.593 . S
C1743 C137 1.593 . S
C1758 C221 1.593 . S
C1793 C210 1.447 . S
C1808 C196 1.447 . S
