# Generated by pormake.
# Topology wiy, (3)-cn, num edge types: 1
# Building blocks:
#     Node 0, Type 0, BuildingBlock: OLANEW_clean_sbu_2, # of connection points: 3
#     Node 1, Type 0, BuildingBlock: OLANEW_clean_sbu_2, # of connection points: 3
#     Node 2, Type 0, BuildingBlock: OLANEW_clean_sbu_2, # of connection points: 3
#     Node 3, Type 0, BuildingBlock: OLANEW_clean_sbu_2, # of connection points: 3
#     Node 4, Type 0, BuildingBlock: OLANEW_clean_sbu_2, # of connection points: 3
#     Node 5, Type 0, BuildingBlock: OLANEW_clean_sbu_2, # of connection points: 3
#     Node 6, Type 0, BuildingBlock: OLANEW_clean_sbu_2, # of connection points: 3
#     Node 7, Type 0, BuildingBlock: OLANEW_clean_sbu_2, # of connection points: 3
#     Node 8, Type 0, BuildingBlock: OLANEW_clean_sbu_2, # of connection points: 3
#     Node 9, Type 0, BuildingBlock: OLANEW_clean_sbu_2, # of connection points: 3
#     Node 10, Type 0, BuildingBlock: OLANEW_clean_sbu_2, # of connection points: 3
#     Node 11, Type 0, BuildingBlock: OLANEW_clean_sbu_2, # of connection points: 3
#     Edge 12, Type (0, 0), BuildingBlock: KIFKEQ_clean_linker_1, # of connection points: 2
#     Edge 13, Type (0, 0), BuildingBlock: KIFKEQ_clean_linker_1, # of connection points: 2
#     Edge 14, Type (0, 0), BuildingBlock: KIFKEQ_clean_linker_1, # of connection points: 2
#     Edge 15, Type (0, 0), BuildingBlock: KIFKEQ_clean_linker_1, # of connection points: 2
#     Edge 16, Type (0, 0), BuildingBlock: KIFKEQ_clean_linker_1, # of connection points: 2
#     Edge 17, Type (0, 0), BuildingBlock: KIFKEQ_clean_linker_1, # of connection points: 2
#     Edge 18, Type (0, 0), BuildingBlock: KIFKEQ_clean_linker_1, # of connection points: 2
#     Edge 19, Type (0, 0), BuildingBlock: KIFKEQ_clean_linker_1, # of connection points: 2
#     Edge 20, Type (0, 0), BuildingBlock: KIFKEQ_clean_linker_1, # of connection points: 2
#     Edge 21, Type (0, 0), BuildingBlock: KIFKEQ_clean_linker_1, # of connection points: 2
#     Edge 22, Type (0, 0), BuildingBlock: KIFKEQ_clean_linker_1, # of connection points: 2
#     Edge 23, Type (0, 0), BuildingBlock: KIFKEQ_clean_linker_1, # of connection points: 2
#     Edge 24, Type (0, 0), BuildingBlock: KIFKEQ_clean_linker_1, # of connection points: 2
#     Edge 25, Type (0, 0), BuildingBlock: KIFKEQ_clean_linker_1, # of connection points: 2
#     Edge 26, Type (0, 0), BuildingBlock: KIFKEQ_clean_linker_1, # of connection points: 2
#     Edge 27, Type (0, 0), BuildingBlock: KIFKEQ_clean_linker_1, # of connection points: 2
#     Edge 28, Type (0, 0), BuildingBlock: KIFKEQ_clean_linker_1, # of connection points: 2
#     Edge 29, Type (0, 0), BuildingBlock: KIFKEQ_clean_linker_1, # of connection points: 2
# Relax obj value: 0.012
# Max RMSD: 0.018
# Mean RMSD: 0.018
data_MOF--net-wiy--node1-OLANEW_clean_sbu_2--edge1-KIFKEQ_clean_linker_1
_symmetry_space_group_name_H-M    P1
_symmetry_Int_Tables_number       1
_symmetry_cell_setting            triclinic
loop_
_symmetry_equiv_pos_as_xyz
'x, y, z'
_cell_length_a     60.408425
_cell_length_b     60.297726
_cell_length_c     28.850611
_cell_angle_alpha  89.972218
_cell_angle_beta   90.097403
_cell_angle_gamma 119.81543
loop_
_atom_site_label
_atom_site_type_symbol
_atom_site_fract_x
_atom_site_fract_y
_atom_site_fract_z
_atom_type_partial_charge
O0 O 0.12095 0.46744 0.03548 0.0
Cd1 Cd 0.12304 0.42831 0.02478 0.0
O2 O 0.0819 0.44791 0.06321 0.0
Cd3 Cd 0.07428 0.40997 0.04219 0.0
O4 O 0.05074 0.37894 -0.0055 0.0
C5 C 0.05985 0.37493 0.95784 0.0
O6 O 0.08457 0.38824 0.95064 0.0
C7 C 0.10227 0.46848 0.05338 0.0
C8 C 0.15028 0.42322 0.09826 0.0
O9 O 0.16176 0.43711 0.063 0.0
O10 O 0.12583 0.41127 0.09852 0.0
O11 O 0.6458 0.11868 0.19183 0.0
Cd12 Cd 0.68796 0.12457 0.17421 0.0
O13 O 0.62939 0.0788 0.21474 0.0
Cd14 Cd 0.66134 0.07563 0.18715 0.0
O15 O 0.67403 0.06111 0.12978 0.0
C16 C 0.67574 0.07116 0.09027 0.0
O17 O 0.67213 0.09089 0.08729 0.0
C18 C 0.62732 0.0986 0.20909 0.0
C19 C 0.72162 0.15237 0.24553 0.0
O20 O 0.71684 0.1636 0.21251 0.0
O21 O 0.71084 0.12793 0.24451 0.0
O22 O 0.52599 0.63319 0.42842 0.0
Cd23 Cd 0.57004 0.66808 0.435 0.0
O24 O 0.53003 0.62216 0.35758 0.0
Cd25 Cd 0.57044 0.64988 0.34807 0.0
O26 O 0.6031 0.65816 0.30424 0.0
C27 C 0.61021 0.6746 0.27189 0.0
O28 O 0.59924 0.68864 0.2678 0.0
C29 C 0.51638 0.61889 0.39317 0.0
C30 C 0.57246 0.70685 0.49131 0.0
O31 O 0.57218 0.68719 0.50887 0.0
O32 O 0.57187 0.70836 0.44705 0.0
O33 O 0.87743 0.53012 0.56072 0.0
Cd34 Cd 0.88038 0.57183 0.55206 0.0
O35 O 0.87943 0.5238 0.4861 0.0
Cd36 Cd 0.88846 0.56209 0.46429 0.0
O37 O 0.91145 0.59366 0.41723 0.0
C38 C 0.93235 0.61273 0.43044 0.0
O39 O 0.93892 0.61445 0.47429 0.0
C40 C 0.87686 0.5159 0.52767 0.0
C41 C 0.84968 0.57659 0.61904 0.0
O42 O 0.84092 0.56775 0.57861 0.0
O43 O 0.87311 0.58365 0.62746 0.0
O44 O 0.32419 0.8492 0.68786 0.0
Cd45 Cd 0.2812 0.84242 0.67548 0.0
O46 O 0.33717 0.8847 0.72746 0.0
Cd47 Cd 0.30549 0.88926 0.70268 0.0
O48 O 0.29739 0.9095 0.64844 0.0
C49 C 0.29894 0.93095 0.65658 0.0
O50 O 0.30283 0.93955 0.69937 0.0
C51 C 0.34115 0.86718 0.71233 0.0
C52 C 0.25114 0.81811 0.75282 0.0
O53 O 0.25438 0.80535 0.72065 0.0
O54 O 0.26177 0.84241 0.74817 0.0
O55 O 0.45978 0.338 0.88918 0.0
Cd56 Cd 0.41822 0.29906 0.88311 0.0
O57 O 0.45211 0.35662 0.83059 0.0
Cd58 Cd 0.41364 0.32631 0.81291 0.0
O59 O 0.38191 0.31699 0.76559 0.0
C60 C 0.36348 0.32028 0.77744 0.0
O61 O 0.36244 0.32704 0.82032 0.0
C62 C 0.46692 0.35713 0.86244 0.0
C63 C 0.41398 0.26216 0.94665 0.0
O64 O 0.42262 0.26315 0.9057 0.0
O65 O 0.40723 0.27856 0.95749 0.0
O66 O 0.52163 0.87104 0.74857 0.0
Cd67 Cd 0.56471 0.87689 0.75109 0.0
O68 O 0.5365 0.91246 0.74326 0.0
Cd69 Cd 0.57556 0.92316 0.76239 0.0
O70 O 0.60538 0.94253 0.81446 0.0
C71 C 0.62391 0.96499 0.80794 0.0
O72 O 0.62638 0.97581 0.7673 0.0
C73 C 0.51772 0.88974 0.74307 0.0
C74 C 0.56845 0.84115 0.69518 0.0
O75 O 0.56477 0.83755 0.73894 0.0
O76 O 0.57049 0.86167 0.67792 0.0
O77 O 0.65406 0.52058 0.92572 0.0
Cd78 Cd 0.69429 0.56006 0.93979 0.0
O79 O 0.63294 0.54126 0.91637 0.0
Cd80 Cd 0.66352 0.57787 0.942 0.0
O81 O 0.67422 0.60802 -0.00637 0.0
C82 C 0.6637 0.62171 -0.00955 0.0
O83 O 0.64905 0.61853 0.95444 0.0
C84 C 0.63348 0.52045 0.91573 0.0
C85 C 0.72997 0.56735 0.87147 0.0
O86 O 0.72873 0.5556 0.90926 0.0
O87 O 0.71446 0.57587 0.86615 0.0
O88 O 0.12472 0.65586 0.10921 0.0
Cd89 Cd 0.12885 0.69807 0.11811 0.0
O90 O 0.08693 0.63873 0.07621 0.0
Cd91 Cd 0.08089 0.67015 0.09686 0.0
O92 O 0.05966 0.67962 0.14662 0.0
C93 C 0.06557 0.68021 0.18907 0.0
O94 O 0.08535 0.67765 0.19967 0.0
C95 C 0.1062 0.63704 0.08899 0.0
C96 C 0.15523 0.72801 0.04186 0.0
O97 O 0.16711 0.72589 0.0769 0.0
O98 O 0.1308 0.7164 0.04317 0.0
O99 O 0.44983 0.10011 0.23558 0.0
Cd100 Cd 0.40875 0.09865 0.24099 0.0
O101 O 0.44314 0.07518 0.29589 0.0
Cd102 Cd 0.40488 0.06783 0.31319 0.0
O103 O 0.37232 0.04771 0.3597 0.0
C104 C 0.37545 0.05517 0.40161 0.0
O105 O 0.39692 0.07565 0.4133 0.0
C106 C 0.45743 0.08873 0.26296 0.0
C107 C 0.40703 0.13313 0.17841 0.0
O108 O 0.41506 0.1399 0.22 0.0
O109 O 0.39954 0.10997 0.16659 0.0
O110 O 0.32388 0.46348 0.44016 0.0
Cd111 Cd 0.2814 0.42662 0.45222 0.0
O112 O 0.33917 0.44139 0.4059 0.0
Cd113 Cd 0.30765 0.40494 0.42969 0.0
O114 O 0.29809 0.37575 0.48284 0.0
C115 C 0.29823 0.38259 0.52455 0.0
O116 O 0.30162 0.40554 0.53247 0.0
C117 C 0.34184 0.46279 0.41852 0.0
C118 C 0.25018 0.42253 0.37751 0.0
O119 O 0.25365 0.43759 0.41151 0.0
O120 O 0.2611 0.40897 0.37909 0.0
O121 O 0.86358 0.33128 0.57005 0.0
Cd122 Cd 0.86141 0.29016 0.58255 0.0
O123 O 0.88963 0.35089 0.62833 0.0
Cd124 Cd 0.89605 0.31979 0.64985 0.0
O125 O 0.91894 0.31021 0.6956 0.0
C126 C 0.94295 0.32279 0.68961 0.0
O127 O 0.952 0.33869 0.65444 0.0
C128 C 0.87607 0.35114 0.59483 0.0
C129 C 0.8313 0.25629 0.51315 0.0
O130 O 0.82124 0.25977 0.5495 0.0
O131 O 0.85568 0.26843 0.50992 0.0
H132 H 0.134 0.38635 0.16537 0.0
H133 H 0.19952 0.45703 0.12148 0.0
H134 H 0.15804 0.38512 0.23301 0.0
H135 H 0.22316 0.45603 0.1896 0.0
H136 H 0.23832 0.45859 0.35004 0.0
H137 H 0.21414 0.45784 0.28143 0.0
H138 H 0.20236 0.38332 0.24527 0.0
H139 H 0.22717 0.38424 0.31341 0.0
C140 C 0.1535 0.40157 0.17014 0.0
C141 C 0.1649 0.42179 0.13818 0.0
C142 C 0.16722 0.4008 0.20866 0.0
C143 C 0.19234 0.42053 0.21638 0.0
C144 C 0.20375 0.44067 0.1844 0.0
C145 C 0.19026 0.44116 0.1454 0.0
C146 C 0.23052 0.442 0.32757 0.0
C147 C 0.23465 0.42148 0.33703 0.0
C148 C 0.21681 0.44166 0.28828 0.0
C149 C 0.2065 0.42055 0.25824 0.0
C150 C 0.21011 0.39976 0.2681 0.0
C151 C 0.22433 0.40034 0.3069 0.0
H152 H 0.84486 0.23413 0.44444 0.0
H153 H 0.78135 0.24087 0.49604 0.0
H154 H 0.81837 0.20795 0.37975 0.0
H155 H 0.75523 0.21528 0.43085 0.0
H156 H 0.73434 0.20051 0.27269 0.0
H157 H 0.76082 0.2246 0.33869 0.0
H158 H 0.77387 0.16223 0.37172 0.0
H159 H 0.74679 0.1377 0.30622 0.0
C160 C 0.82527 0.22997 0.44202 0.0
C161 C 0.81516 0.23954 0.47524 0.0
C162 C 0.81015 0.21496 0.40518 0.0
C163 C 0.78488 0.20977 0.40043 0.0
C164 C 0.77473 0.21917 0.43374 0.0
C165 C 0.78964 0.23369 0.47107 0.0
C166 C 0.7429 0.19194 0.29391 0.0
C167 C 0.73849 0.16722 0.28436 0.0
C168 C 0.75792 0.20568 0.33174 0.0
C169 C 0.76926 0.19518 0.36015 0.0
C170 C 0.76534 0.1707 0.35015 0.0
C171 C 0.74983 0.1567 0.31285 0.0
H172 H 0.56106 0.83506 0.60175 0.0
H173 H 0.57934 0.80412 0.72132 0.0
H174 H 0.56213 0.80274 0.55289 0.0
H175 H 0.582 0.7727 0.67226 0.0
H176 H 0.55885 0.70288 0.58224 0.0
H177 H 0.55794 0.73529 0.63102 0.0
H178 H 0.58772 0.7892 0.51748 0.0
H179 H 0.58709 0.75615 0.46809 0.0
C180 C 0.56565 0.82152 0.61746 0.0
C181 C 0.57002 0.82205 0.66536 0.0
C182 C 0.56647 0.80305 0.58938 0.0
C183 C 0.57218 0.78495 0.60838 0.0
C184 C 0.57698 0.78586 0.65634 0.0
C185 C 0.57566 0.80402 0.68453 0.0
C186 C 0.56522 0.72169 0.56779 0.0
C187 C 0.57297 0.72697 0.52133 0.0
C188 C 0.56488 0.7404 0.59588 0.0
C189 C 0.57279 0.76505 0.57846 0.0
C190 C 0.58097 0.77037 0.53203 0.0
C191 C 0.58081 0.75147 0.5037 0.0
H192 H 0.79982 0.56458 0.61099 0.0
H193 H 0.86176 0.59093 0.7096 0.0
H194 H 0.77164 0.56389 0.67214 0.0
H195 H 0.83363 0.59051 0.77059 0.0
H196 H 0.76694 0.55386 0.87475 0.0
H197 H 0.79646 0.55784 0.81353 0.0
H198 H 0.76458 0.59232 0.72403 0.0
H199 H 0.73481 0.5881 0.78513 0.0
C200 C 0.80749 0.57044 0.64561 0.0
C201 C 0.83301 0.57772 0.65545 0.0
C202 C 0.79137 0.57017 0.6806 0.0
C203 C 0.80038 0.57706 0.72625 0.0
C204 C 0.82603 0.58478 0.73589 0.0
C205 C 0.84218 0.58516 0.70087 0.0
C206 C 0.76627 0.56238 0.84209 0.0
C207 C 0.74848 0.57061 0.8348 0.0
C208 C 0.78331 0.5648 0.8071 0.0
C209 C 0.78287 0.5754 0.76393 0.0
C210 C 0.76522 0.58383 0.75675 0.0
C211 C 0.74825 0.58153 0.79185 0.0
H212 H 0.20377 0.74143 0.0169 0.0
H213 H 0.13847 0.74736 0.97309 0.0
H214 H 0.22643 0.76353 0.94643 0.0
H215 H 0.16153 0.77006 0.90298 0.0
H216 H 0.2292 0.83583 0.81454 0.0
H217 H 0.20541 0.81455 0.88501 0.0
H218 H 0.21631 0.75038 0.85664 0.0
H219 H 0.23951 0.77122 0.7858 0.0
C220 C 0.19436 0.74768 -0.00753 0.0
C221 C 0.16933 0.74263 0.00044 0.0
C222 C 0.20728 0.7602 0.95211 0.0
C223 C 0.19565 0.76838 0.91942 0.0
C224 C 0.17089 0.76397 0.92784 0.0
C225 C 0.15772 0.75095 0.96779 0.0
C226 C 0.22639 0.81712 0.82327 0.0
C227 C 0.23619 0.80517 0.79469 0.0
C228 C 0.21274 0.80497 0.8634 0.0
C229 C 0.20918 0.78093 0.87614 0.0
C230 C 0.21896 0.76899 0.84761 0.0
C231 C 0.23211 0.78087 0.80703 0.0
H232 H 0.39726 0.25579 0.03634 0.0
H233 H 0.42639 0.22475 0.93366 0.0
H234 H 0.39451 0.22417 0.09228 0.0
H235 H 0.42403 0.19343 -0.01018 0.0
H236 H 0.39217 0.1248 0.08751 0.0
H237 H 0.39288 0.15554 0.03171 0.0
H238 H 0.42274 0.21419 0.13715 0.0
H239 H 0.42164 0.18337 0.19317 0.0
C240 C 0.40311 0.24225 0.0257 0.0
C241 C 0.41205 0.2428 0.98052 0.0
C242 C 0.40166 0.22421 0.05786 0.0
C243 C 0.40907 0.20628 0.04555 0.0
C244 C 0.41787 0.20676 0.00026 0.0
C245 C 0.41936 0.22482 0.96814 0.0
C246 C 0.3988 0.14423 0.09885 0.0
C247 C 0.40687 0.15164 0.1448 0.0
C248 C 0.39934 0.16189 0.06678 0.0
C249 C 0.40793 0.18735 0.07992 0.0
C250 C 0.41574 0.19467 0.12602 0.0
C251 C 0.41524 0.17702 0.15808 0.0
H252 H 0.14281 0.51622 0.03679 0.0
H253 H 0.06498 0.47745 0.08616 0.0
H254 H 0.14425 0.5572 0.04451 0.0
H255 H 0.06661 0.51843 0.09444 0.0
H256 H 0.06869 0.59231 0.05172 0.0
H257 H 0.06843 0.55196 0.04376 0.0
H258 H 0.14392 0.58638 0.10369 0.0
H259 H 0.14439 0.62691 0.1111 0.0
C260 C 0.12608 0.51643 0.04963 0.0
C261 C 0.10375 0.49351 0.06072 0.0
C262 C 0.12695 0.53994 0.0542 0.0
C263 C 0.1055 0.54105 0.06981 0.0
C264 C 0.08333 0.51818 0.08161 0.0
C265 C 0.08247 0.4947 0.07718 0.0
C266 C 0.08531 0.59135 0.06299 0.0
C267 C 0.10655 0.61286 0.08213 0.0
C268 C 0.08507 0.56816 0.05874 0.0
C269 C 0.10608 0.56592 0.07339 0.0
C270 C 0.12751 0.58753 0.09176 0.0
C271 C 0.12773 0.61073 0.09616 0.0
H272 H 0.47991 0.06812 0.31684 0.0
H273 H 0.49249 0.11444 0.19469 0.0
H274 H 0.52139 0.0714 0.30626 0.0
H275 H 0.53381 0.11724 0.18358 0.0
H276 H 0.61668 0.13763 0.20271 0.0
H277 H 0.57615 0.13592 0.21746 0.0
H278 H 0.54231 0.05616 0.25434 0.0
H279 H 0.58294 0.05798 0.2406 0.0
C280 C 0.49148 0.07896 0.28763 0.0
C281 C 0.48282 0.091 0.25657 0.0
C282 C 0.51523 0.08072 0.28145 0.0
C283 C 0.53092 0.09454 0.24403 0.0
C284 C 0.52235 0.10672 0.21312 0.0
C285 C 0.49858 0.10499 0.21933 0.0
C286 C 0.60065 0.11976 0.21427 0.0
C287 C 0.60308 0.09793 0.22043 0.0
C288 C 0.57735 0.11875 0.2224 0.0
C289 C 0.55594 0.09588 0.23686 0.0
C290 C 0.55849 0.07417 0.24375 0.0
C291 C 0.58179 0.07518 0.23568 0.0
H292 H 0.49032 0.58443 0.32437 0.0
H293 H 0.48183 0.60499 0.46407 0.0
H294 H 0.44728 0.54788 0.3273 0.0
H295 H 0.43889 0.56812 0.46719 0.0
H296 H 0.35471 0.51153 0.44374 0.0
H297 H 0.3959 0.55036 0.43485 0.0
H298 H 0.42571 0.50685 0.3671 0.0
H299 H 0.38448 0.46813 0.37522 0.0
C300 C 0.47926 0.58124 0.35567 0.0
C301 C 0.48961 0.59761 0.39408 0.0
C302 C 0.45462 0.56018 0.35741 0.0
C303 C 0.4397 0.55499 0.39755 0.0
C304 C 0.44978 0.57172 0.43555 0.0
C305 C 0.47447 0.59279 0.43385 0.0
C306 C 0.36998 0.51027 0.42658 0.0
C307 C 0.36629 0.48668 0.41031 0.0
C308 C 0.39364 0.53251 0.42176 0.0
C309 C 0.41412 0.53169 0.40046 0.0
C310 C 0.41025 0.50821 0.38321 0.0
C311 C 0.38662 0.48597 0.38808 0.0
H312 H 0.84894 0.35887 0.5266 0.0
H313 H 0.90048 0.39673 0.64094 0.0
H314 H 0.84712 0.39772 0.51097 0.0
H315 H 0.899 0.43555 0.62474 0.0
H316 H 0.87203 0.49329 0.61223 0.0
H317 H 0.87016 0.45272 0.62854 0.0
H318 H 0.87464 0.44095 0.48194 0.0
H319 H 0.87602 0.48124 0.46549 0.0
C320 C 0.85992 0.37546 0.54834 0.0
C321 C 0.87486 0.37466 0.58502 0.0
C322 C 0.85895 0.39776 0.53925 0.0
C323 C 0.87287 0.41972 0.56667 0.0
C324 C 0.88773 0.41886 0.60341 0.0
C325 C 0.88872 0.39662 0.61247 0.0
C326 C 0.87243 0.48198 0.58343 0.0
C327 C 0.87428 0.49059 0.53756 0.0
C328 C 0.87151 0.45879 0.59282 0.0
C329 C 0.8724 0.44367 0.55656 0.0
C330 C 0.87366 0.452 0.51064 0.0
C331 C 0.87459 0.47519 0.50125 0.0
H332 H 0.35747 0.83513 0.67956 0.0
H333 H 0.38136 0.90266 0.76352 0.0
H334 H 0.39977 0.83982 0.68745 0.0
H335 H 0.42343 0.90699 0.77219 0.0
H336 H 0.50321 0.92546 0.72873 0.0
H337 H 0.46017 0.91879 0.72331 0.0
H338 H 0.4294 0.83761 0.74213 0.0
H339 H 0.47264 0.8442 0.74664 0.0
C340 C 0.37163 0.85079 0.70019 0.0
C341 C 0.36605 0.86862 0.72065 0.0
C342 C 0.39586 0.85341 0.70485 0.0
C343 C 0.41506 0.8739 0.7301 0.0
C344 C 0.40923 0.89126 0.75175 0.0
C345 C 0.38503 0.88867 0.74705 0.0
C346 C 0.48731 0.90615 0.73159 0.0
C347 C 0.49141 0.88537 0.73817 0.0
C348 C 0.46259 0.90236 0.72885 0.0
C349 C 0.44132 0.8777 0.73271 0.0
C350 C 0.44538 0.85684 0.73871 0.0
C351 C 0.47016 0.86063 0.74142 0.0
H352 H 0.50373 0.36603 0.92745 0.0
H353 H 0.48756 0.40083 0.81086 0.0
H354 H 0.54465 0.40513 0.93856 0.0
H355 H 0.52844 0.43952 0.82155 0.0
H356 H 0.58694 0.51395 0.89136 0.0
H357 H 0.54753 0.47408 0.87777 0.0
H358 H 0.58683 0.43178 0.90234 0.0
H359 H 0.6264 0.47182 0.91676 0.0
C360 C 0.50895 0.38191 0.90402 0.0
C361 C 0.49227 0.38032 0.86845 0.0
C362 C 0.53246 0.40426 0.91022 0.0
C363 C 0.53973 0.42548 0.88108 0.0
C364 C 0.52324 0.42367 0.84506 0.0
C365 C 0.49982 0.4014 0.83882 0.0
C366 C 0.58728 0.49619 0.89368 0.0
C367 C 0.60987 0.49612 0.90515 0.0
C368 C 0.56467 0.47331 0.88565 0.0
C369 C 0.56404 0.44974 0.88891 0.0
C370 C 0.58664 0.44961 0.90005 0.0
C371 C 0.60934 0.47257 0.90798 0.0
H372 H 0.07237 0.36332 0.87355 0.0
H373 H 0.00777 0.35091 0.95673 0.0
H374 H 0.04415 0.34374 0.80724 0.0
H375 H 0.97983 0.33226 0.8904 0.0
H376 H 0.93093 0.29401 0.76897 0.0
H377 H 0.95931 0.29959 0.8337 0.0
H378 H 0.02286 0.35838 0.75701 0.0
H379 H -0.0052 0.35219 0.69212 0.0
C380 C 0.05212 0.3561 0.87791 0.0
C381 C 0.0424 0.35906 0.92025 0.0
C382 C 0.03594 0.34501 0.8398 0.0
C383 C 0.00973 0.33677 0.84314 0.0
C384 C -0.00017 0.33815 0.88646 0.0
C385 C 0.01594 0.34906 0.92457 0.0
C386 C 0.95107 0.30774 0.76562 0.0
C387 C 0.96053 0.32293 0.72564 0.0
C388 C 0.96732 0.31104 0.80284 0.0
C389 C -0.00666 0.32969 0.80096 0.0
C390 C 0.00302 0.34366 0.75971 0.0
C391 C 0.98683 0.34025 0.72247 0.0
H392 H 0.61935 0.95022 0.89859 0.0
H393 H 0.66349 0.01439 0.80794 0.0
H394 H 0.63887 0.97738 0.96559 0.0
H395 H 0.68372 0.04152 0.87528 0.0
H396 H 0.67418 0.08478 0.00068 0.0
H397 H 0.66828 0.05956 0.93151 0.0
H398 H 0.67503 0.00317 0.01344 0.0
H399 H 0.68016 0.02815 0.08322 0.0
C400 C 0.63371 0.97 0.89289 0.0
C401 C 0.63949 0.98023 0.84788 0.0
C402 C 0.6451 0.98559 0.93145 0.0
C403 C 0.66267 0.01178 0.92595 0.0
C404 C 0.66987 0.02156 0.88079 0.0
C405 C 0.65837 0.00596 0.84217 0.0
C406 C 0.67487 0.06723 0.00394 0.0
C407 C 0.67718 0.05827 0.04762 0.0
C408 C 0.67168 0.05281 0.96407 0.0
C409 C 0.67086 0.02913 0.96687 0.0
C410 C 0.67505 0.02107 0.01017 0.0
C411 C 0.67813 0.03547 0.05014 0.0
H412 H 0.62734 0.70519 0.19494 0.0
H413 H 0.63052 0.64317 0.26378 0.0
H414 H 0.64785 0.69929 0.12701 0.0
H415 H 0.65016 0.63675 0.19568 0.0
H416 H 0.68989 0.63062 0.0724 0.0
H417 H 0.68457 0.65034 0.14217 0.0
H418 H 0.63229 0.66713 0.06841 0.0
H419 H 0.63824 0.64827 -0.00131 0.0
C420 C 0.63276 0.69056 0.19589 0.0
C421 C 0.62688 0.67436 0.23449 0.0
C422 C 0.6444 0.68709 0.15683 0.0
C423 C 0.65029 0.66727 0.15547 0.0
C424 C 0.6461 0.65233 0.19545 0.0
C425 C 0.63462 0.6559 0.23454 0.0
C426 C 0.6777 0.63903 0.07086 0.0
C427 C 0.66417 0.6375 0.03017 0.0
C428 C 0.67454 0.65022 0.11094 0.0
C429 C 0.6577 0.66001 0.11122 0.0
C430 C 0.64558 0.66003 0.06955 0.0
C431 C 0.64885 0.64898 0.02949 0.0
H432 H 0.02093 0.6813 0.17941 0.0
H433 H 0.07022 0.67609 0.28229 0.0
H434 H 0.98875 0.6719 0.23884 0.0
H435 H 0.03793 0.66599 0.34111 0.0
H436 H 0.97976 0.65404 0.44571 0.0
H437 H 0.01281 0.67768 0.3882 0.0
H438 H 0.96021 0.63341 0.27904 0.0
H439 H 0.92711 0.61044 0.33618 0.0
C440 C 0.02507 0.67854 0.2148 0.0
C441 C 0.04799 0.67906 0.22596 0.0
C442 C 0.00656 0.673 0.24883 0.0
C443 C 0.01055 0.66782 0.29469 0.0
C444 C 0.03421 0.67008 0.30633 0.0
C445 C 0.05272 0.6757 0.27241 0.0
C446 C 0.97511 0.64974 0.40936 0.0
C447 C 0.9509 0.63007 0.39561 0.0
C448 C -0.0059 0.66321 0.37639 0.0
C449 C 0.98933 0.65722 0.32898 0.0
C450 C 0.96458 0.63874 0.31513 0.0
C451 C 0.94558 0.62538 0.34803 0.0
H452 H 0.29959 0.92197 0.56388 0.0
H453 H 0.3042 0.97871 0.66087 0.0
H454 H 0.31225 0.95287 0.50144 0.0
H455 H 0.3161 0.00953 0.59786 0.0
H456 H 0.37971 0.06307 0.49504 0.0
H457 H 0.35473 0.0329 0.55526 0.0
H458 H 0.30486 0.98 0.45121 0.0
H459 H 0.3305 0.01004 0.39058 0.0
C460 C 0.30264 0.94086 0.57171 0.0
C461 C 0.30135 0.948 0.61756 0.0
C462 C 0.30976 0.9586 0.53571 0.0
C463 C 0.31558 0.98387 0.54463 0.0
C464 C 0.31231 0.9904 0.58993 0.0
C465 C 0.30533 0.97268 0.62602 0.0
C466 C 0.36316 0.04521 0.48493 0.0
C467 C 0.35738 0.0388 0.43794 0.0
C468 C 0.34866 0.02791 0.5196 0.0
C469 C 0.32789 0.00383 0.50817 0.0
C470 C 0.32102 -0.00183 0.46122 0.0
C471 C 0.33564 0.01545 0.42647 0.0
H472 H 0.29564 0.33588 0.52056 0.0
H473 H 0.3033 0.39424 0.61668 0.0
H474 H 0.30442 0.31412 0.58322 0.0
H475 H 0.31279 0.37305 0.67868 0.0
H476 H 0.32332 0.32873 0.78963 0.0
H477 H 0.30021 0.33756 0.72971 0.0
H478 H 0.3426 0.32366 0.62425 0.0
H479 H 0.36502 0.31411 0.68387 0.0
C480 C 0.29882 0.34387 0.55516 0.0
C481 C 0.29914 0.36701 0.56347 0.0
C482 C 0.304 0.33148 0.59103 0.0
C483 C 0.30966 0.34198 0.63594 0.0
C484 C 0.3083 0.36421 0.64474 0.0
C485 C 0.30303 0.37652 0.60898 0.0
C486 C 0.3273 0.32703 0.75362 0.0
C487 C 0.34631 0.32111 0.74157 0.0
C488 C 0.31415 0.33223 0.71926 0.0
C489 C 0.3198 0.33173 0.6721 0.0
C490 C 0.33755 0.32406 0.66011 0.0
C491 C 0.35059 0.31874 0.69442 0.0
loop_
_geom_bond_atom_site_label_1
_geom_bond_atom_site_label_2
_geom_bond_distance
_geom_bond_site_symmetry_2
_ccdc_geom_bond_type
O0 Cd1 2.300 . S
O0 C7 1.275 . S
Cd1 O0 2.300 . S
Cd1 O9 2.381 . S
Cd1 O10 2.378 . S
O2 Cd3 2.385 . S
O2 C7 1.255 . S
Cd3 O2 2.385 . S
Cd3 O4 2.317 . S
O4 Cd3 2.317 . S
O4 C5 1.232 . S
C5 O4 1.232 . S
C5 O6 1.218 . S
O6 C5 1.218 . S
C7 O0 1.275 . S
C7 O2 1.255 . S
C8 O9 1.258 . S
C8 O10 1.256 . S
O9 Cd1 2.381 . S
O9 C8 1.258 . S
O10 Cd1 2.378 . S
O10 C8 1.256 . S
O11 Cd12 2.300 . S
O11 C18 1.275 . S
Cd12 O11 2.300 . S
Cd12 O20 2.381 . S
Cd12 O21 2.378 . S
O13 Cd14 2.385 . S
O13 C18 1.255 . S
Cd14 O13 2.385 . S
Cd14 O15 2.317 . S
O15 Cd14 2.317 . S
O15 C16 1.232 . S
C16 O15 1.232 . S
C16 O17 1.218 . S
O17 C16 1.218 . S
C18 O11 1.275 . S
C18 O13 1.255 . S
C19 O20 1.258 . S
C19 O21 1.256 . S
O20 Cd12 2.381 . S
O20 C19 1.258 . S
O21 Cd12 2.378 . S
O21 C19 1.256 . S
O22 Cd23 2.300 . S
O22 C29 1.275 . S
Cd23 O22 2.300 . S
Cd23 O31 2.381 . S
Cd23 O32 2.378 . S
O24 Cd25 2.385 . S
O24 C29 1.255 . S
Cd25 O24 2.385 . S
Cd25 O26 2.317 . S
O26 Cd25 2.317 . S
O26 C27 1.232 . S
C27 O26 1.232 . S
C27 O28 1.218 . S
O28 C27 1.218 . S
C29 O22 1.275 . S
C29 O24 1.255 . S
C30 O31 1.258 . S
C30 O32 1.256 . S
O31 Cd23 2.381 . S
O31 C30 1.258 . S
O32 Cd23 2.378 . S
O32 C30 1.256 . S
O33 Cd34 2.300 . S
O33 C40 1.275 . S
Cd34 O33 2.300 . S
Cd34 O42 2.381 . S
Cd34 O43 2.378 . S
O35 Cd36 2.385 . S
O35 C40 1.255 . S
Cd36 O35 2.385 . S
Cd36 O37 2.317 . S
O37 Cd36 2.317 . S
O37 C38 1.232 . S
C38 O37 1.232 . S
C38 O39 1.218 . S
O39 C38 1.218 . S
C40 O33 1.275 . S
C40 O35 1.255 . S
C41 O42 1.258 . S
C41 O43 1.256 . S
O42 Cd34 2.381 . S
O42 C41 1.258 . S
O43 Cd34 2.378 . S
O43 C41 1.256 . S
O44 Cd45 2.300 . S
O44 C51 1.275 . S
Cd45 O44 2.300 . S
Cd45 O53 2.381 . S
Cd45 O54 2.378 . S
O46 Cd47 2.385 . S
O46 C51 1.255 . S
Cd47 O46 2.385 . S
Cd47 O48 2.317 . S
O48 Cd47 2.317 . S
O48 C49 1.232 . S
C49 O48 1.232 . S
C49 O50 1.218 . S
O50 C49 1.218 . S
C51 O44 1.275 . S
C51 O46 1.255 . S
C52 O53 1.258 . S
C52 O54 1.256 . S
O53 Cd45 2.381 . S
O53 C52 1.258 . S
O54 Cd45 2.378 . S
O54 C52 1.256 . S
O55 Cd56 2.300 . S
O55 C62 1.275 . S
Cd56 O55 2.300 . S
Cd56 O64 2.381 . S
Cd56 O65 2.378 1_556 S
O57 Cd58 2.385 . S
O57 C62 1.255 . S
Cd58 O57 2.385 . S
Cd58 O59 2.317 . S
O59 Cd58 2.317 . S
O59 C60 1.232 . S
C60 O59 1.232 . S
C60 O61 1.218 . S
O61 C60 1.218 . S
C62 O55 1.275 . S
C62 O57 1.255 . S
C63 O64 1.258 1_554 S
C63 O65 1.256 . S
O64 Cd56 2.381 . S
O64 C63 1.258 1_556 S
O65 Cd56 2.378 1_554 S
O65 C63 1.256 . S
O66 Cd67 2.300 . S
O66 C73 1.275 . S
Cd67 O66 2.300 . S
Cd67 O75 2.381 . S
Cd67 O76 2.378 . S
O68 Cd69 2.385 . S
O68 C73 1.255 . S
Cd69 O68 2.385 . S
Cd69 O70 2.317 . S
O70 Cd69 2.317 . S
O70 C71 1.232 . S
C71 O70 1.232 . S
C71 O72 1.218 . S
O72 C71 1.218 . S
C73 O66 1.275 . S
C73 O68 1.255 . S
C74 O75 1.258 . S
C74 O76 1.256 . S
O75 Cd67 2.381 . S
O75 C74 1.258 . S
O76 Cd67 2.378 . S
O76 C74 1.256 . S
O77 Cd78 2.300 . S
O77 C84 1.275 . S
Cd78 O77 2.300 . S
Cd78 O86 2.381 . S
Cd78 O87 2.378 . S
O79 Cd80 2.385 . S
O79 C84 1.255 . S
Cd80 O79 2.385 . S
Cd80 O81 2.317 . S
O81 Cd80 2.317 . S
O81 C82 1.250 . S
C82 O81 1.250 . S
C82 O83 1.221 . S
O83 C82 1.221 . S
C84 O77 1.275 . S
C84 O79 1.255 . S
C85 O86 1.258 . S
C85 O87 1.256 . S
O86 Cd78 2.381 . S
O86 C85 1.258 . S
O87 Cd78 2.378 . S
O87 C85 1.256 . S
O88 Cd89 2.300 . S
O88 C95 1.275 . S
Cd89 O88 2.300 . S
Cd89 O97 2.381 . S
Cd89 O98 2.378 1_554 S
O90 Cd91 2.385 . S
O90 C95 1.255 . S
Cd91 O90 2.385 . S
Cd91 O92 2.317 . S
O92 Cd91 2.317 . S
O92 C93 1.232 . S
C93 O92 1.232 . S
C93 O94 1.218 . S
O94 C93 1.218 . S
C95 O88 1.275 . S
C95 O90 1.255 . S
C96 O97 1.258 1_556 S
C96 O98 1.256 . S
O97 Cd89 2.381 . S
O97 C96 1.258 1_554 S
O98 Cd89 2.378 1_556 S
O98 C96 1.256 . S
O99 Cd100 2.300 . S
O99 C106 1.275 . S
Cd100 O99 2.300 . S
Cd100 O108 2.381 . S
Cd100 O109 2.378 . S
O101 Cd102 2.385 . S
O101 C106 1.255 . S
Cd102 O101 2.385 . S
Cd102 O103 2.317 . S
O103 Cd102 2.317 . S
O103 C104 1.232 . S
C104 O103 1.232 . S
C104 O105 1.218 . S
O105 C104 1.218 . S
C106 O99 1.275 . S
C106 O101 1.255 . S
C107 O108 1.258 . S
C107 O109 1.256 . S
O108 Cd100 2.381 . S
O108 C107 1.258 . S
O109 Cd100 2.378 . S
O109 C107 1.256 . S
O110 Cd111 2.300 . S
O110 C117 1.275 . S
Cd111 O110 2.300 . S
Cd111 O119 2.381 . S
Cd111 O120 2.378 . S
O112 Cd113 2.385 . S
O112 C117 1.255 . S
Cd113 O112 2.385 . S
Cd113 O114 2.317 . S
O114 Cd113 2.317 . S
O114 C115 1.232 . S
C115 O114 1.232 . S
C115 O116 1.218 . S
O116 C115 1.218 . S
C117 O110 1.275 . S
C117 O112 1.255 . S
C118 O119 1.258 . S
C118 O120 1.256 . S
O119 Cd111 2.381 . S
O119 C118 1.258 . S
O120 Cd111 2.378 . S
O120 C118 1.256 . S
O121 Cd122 2.300 . S
O121 C128 1.275 . S
Cd122 O121 2.300 . S
Cd122 O130 2.381 . S
Cd122 O131 2.378 . S
O123 Cd124 2.385 . S
O123 C128 1.255 . S
Cd124 O123 2.385 . S
Cd124 O125 2.317 . S
O125 Cd124 2.317 . S
O125 C126 1.232 . S
C126 O125 1.232 . S
C126 O127 1.218 . S
O127 C126 1.218 . S
C128 O121 1.275 . S
C128 O123 1.255 . S
C129 O130 1.258 . S
C129 O131 1.256 . S
O130 Cd122 2.381 . S
O130 C129 1.258 . S
O131 Cd122 2.378 . S
O131 C129 1.256 . S
H132 C140 0.950 . S
H133 C145 0.950 . S
H134 C142 0.950 . S
H135 C144 0.950 . S
H136 C146 0.950 . S
H137 C148 0.950 . S
H138 C150 0.950 . S
H139 C151 0.950 . S
C140 H132 0.950 . S
C140 C141 1.386 . S
C140 C142 1.391 . S
C141 C140 1.386 . S
C141 C145 1.393 . S
C142 H134 0.950 . S
C142 C140 1.391 . S
C142 C143 1.400 . S
C143 C142 1.400 . S
C143 C144 1.398 . S
C143 C149 1.491 . S
C144 H135 0.950 . S
C144 C143 1.398 . S
C144 C145 1.391 . S
C145 H133 0.950 . S
C145 C141 1.393 . S
C145 C144 1.391 . S
C146 H136 0.950 . S
C146 C147 1.386 . S
C146 C148 1.391 . S
C147 C146 1.386 . S
C147 C151 1.393 . S
C148 H137 0.950 . S
C148 C146 1.391 . S
C148 C149 1.400 . S
C149 C143 1.491 . S
C149 C148 1.400 . S
C149 C150 1.398 . S
C150 H138 0.950 . S
C150 C149 1.398 . S
C150 C151 1.391 . S
C151 H139 0.950 . S
C151 C147 1.393 . S
C151 C150 1.391 . S
H152 C160 0.950 . S
H153 C165 0.950 . S
H154 C162 0.950 . S
H155 C164 0.950 . S
H156 C166 0.950 . S
H157 C168 0.950 . S
H158 C170 0.950 . S
H159 C171 0.950 . S
C160 H152 0.950 . S
C160 C161 1.386 . S
C160 C162 1.391 . S
C161 C160 1.386 . S
C161 C165 1.393 . S
C162 H154 0.950 . S
C162 C160 1.391 . S
C162 C163 1.400 . S
C163 C162 1.400 . S
C163 C164 1.398 . S
C163 C169 1.491 . S
C164 H155 0.950 . S
C164 C163 1.398 . S
C164 C165 1.391 . S
C165 H153 0.950 . S
C165 C161 1.393 . S
C165 C164 1.391 . S
C166 H156 0.950 . S
C166 C167 1.386 . S
C166 C168 1.391 . S
C167 C166 1.386 . S
C167 C171 1.393 . S
C168 H157 0.950 . S
C168 C166 1.391 . S
C168 C169 1.400 . S
C169 C163 1.491 . S
C169 C168 1.400 . S
C169 C170 1.398 . S
C170 H158 0.950 . S
C170 C169 1.398 . S
C170 C171 1.391 . S
C171 H159 0.950 . S
C171 C167 1.393 . S
C171 C170 1.391 . S
H172 C180 0.950 . S
H173 C185 0.950 . S
H174 C182 0.950 . S
H175 C184 0.950 . S
H176 C186 0.950 . S
H177 C188 0.950 . S
H178 C190 0.950 . S
H179 C191 0.950 . S
C180 H172 0.950 . S
C180 C181 1.386 . S
C180 C182 1.391 . S
C181 C180 1.386 . S
C181 C185 1.393 . S
C182 H174 0.950 . S
C182 C180 1.391 . S
C182 C183 1.400 . S
C183 C182 1.400 . S
C183 C184 1.398 . S
C183 C189 1.491 . S
C184 H175 0.950 . S
C184 C183 1.398 . S
C184 C185 1.391 . S
C185 H173 0.950 . S
C185 C181 1.393 . S
C185 C184 1.391 . S
C186 H176 0.950 . S
C186 C187 1.386 . S
C186 C188 1.391 . S
C187 C186 1.386 . S
C187 C191 1.393 . S
C188 H177 0.950 . S
C188 C186 1.391 . S
C188 C189 1.400 . S
C189 C183 1.491 . S
C189 C188 1.400 . S
C189 C190 1.398 . S
C190 H178 0.950 . S
C190 C189 1.398 . S
C190 C191 1.391 . S
C191 H179 0.950 . S
C191 C187 1.393 . S
C191 C190 1.391 . S
H192 C200 0.950 . S
H193 C205 0.950 . S
H194 C202 0.950 . S
H195 C204 0.950 . S
H196 C206 0.950 . S
H197 C208 0.950 . S
H198 C210 0.950 . S
H199 C211 0.950 . S
C200 H192 0.950 . S
C200 C201 1.386 . S
C200 C202 1.391 . S
C201 C200 1.386 . S
C201 C205 1.393 . S
C202 H194 0.950 . S
C202 C200 1.391 . S
C202 C203 1.400 . S
C203 C202 1.400 . S
C203 C204 1.398 . S
C203 C209 1.491 . S
C204 H195 0.950 . S
C204 C203 1.398 . S
C204 C205 1.391 . S
C205 H193 0.950 . S
C205 C201 1.393 . S
C205 C204 1.391 . S
C206 H196 0.950 . S
C206 C207 1.386 . S
C206 C208 1.391 . S
C207 C206 1.386 . S
C207 C211 1.393 . S
C208 H197 0.950 . S
C208 C206 1.391 . S
C208 C209 1.400 . S
C209 C203 1.491 . S
C209 C208 1.400 . S
C209 C210 1.398 . S
C210 H198 0.950 . S
C210 C209 1.398 . S
C210 C211 1.391 . S
C211 H199 0.950 . S
C211 C207 1.393 . S
C211 C210 1.391 . S
H212 C220 0.950 . S
H213 C225 0.950 . S
H214 C222 0.950 . S
H215 C224 0.950 . S
H216 C226 0.950 . S
H217 C228 0.950 . S
H218 C230 0.950 . S
H219 C231 0.950 . S
C220 H212 0.950 . S
C220 C221 1.386 . S
C220 C222 1.391 . S
C221 C220 1.386 . S
C221 C225 1.393 . S
C222 H214 0.950 . S
C222 C220 1.391 . S
C222 C223 1.400 . S
C223 C222 1.400 . S
C223 C224 1.398 . S
C223 C229 1.491 . S
C224 H215 0.950 . S
C224 C223 1.398 . S
C224 C225 1.391 . S
C225 H213 0.950 . S
C225 C221 1.393 . S
C225 C224 1.391 . S
C226 H216 0.950 . S
C226 C227 1.386 . S
C226 C228 1.391 . S
C227 C226 1.386 . S
C227 C231 1.393 . S
C228 H217 0.950 . S
C228 C226 1.391 . S
C228 C229 1.400 . S
C229 C223 1.491 . S
C229 C228 1.400 . S
C229 C230 1.398 . S
C230 H218 0.950 . S
C230 C229 1.398 . S
C230 C231 1.391 . S
C231 H219 0.950 . S
C231 C227 1.393 . S
C231 C230 1.391 . S
H232 C240 0.950 . S
H233 C245 0.937 1_556 S
H234 C242 0.950 . S
H235 C244 0.950 . S
H236 C246 0.950 . S
H237 C248 0.950 . S
H238 C250 0.950 . S
H239 C251 0.950 . S
C240 H232 0.950 . S
C240 C241 1.386 . S
C240 C242 1.391 . S
C241 C240 1.386 . S
C241 C245 1.400 . S
C242 H234 0.950 . S
C242 C240 1.391 . S
C242 C243 1.400 . S
C243 C242 1.400 . S
C243 C244 1.398 . S
C243 C249 1.491 . S
C244 H235 0.950 . S
C244 C243 1.398 . S
C244 C245 1.396 . S
C245 H233 0.937 1_554 S
C245 C241 1.400 . S
C245 C244 1.396 . S
C246 H236 0.950 . S
C246 C247 1.386 . S
C246 C248 1.391 . S
C247 C246 1.386 . S
C247 C251 1.393 . S
C248 H237 0.950 . S
C248 C246 1.391 . S
C248 C249 1.400 . S
C249 C243 1.491 . S
C249 C248 1.400 . S
C249 C250 1.398 . S
C250 H238 0.950 . S
C250 C249 1.398 . S
C250 C251 1.391 . S
C251 H239 0.950 . S
C251 C247 1.393 . S
C251 C250 1.391 . S
H252 C260 0.950 . S
H253 C265 0.950 . S
H254 C262 0.950 . S
H255 C264 0.950 . S
H256 C266 0.950 . S
H257 C268 0.950 . S
H258 C270 0.950 . S
H259 C271 0.950 . S
C260 H252 0.950 . S
C260 C261 1.386 . S
C260 C262 1.391 . S
C261 C260 1.386 . S
C261 C265 1.393 . S
C262 H254 0.950 . S
C262 C260 1.391 . S
C262 C263 1.400 . S
C263 C262 1.400 . S
C263 C264 1.398 . S
C263 C269 1.491 . S
C264 H255 0.950 . S
C264 C263 1.398 . S
C264 C265 1.391 . S
C265 H253 0.950 . S
C265 C261 1.393 . S
C265 C264 1.391 . S
C266 H256 0.950 . S
C266 C267 1.386 . S
C266 C268 1.391 . S
C267 C266 1.386 . S
C267 C271 1.393 . S
C268 H257 0.950 . S
C268 C266 1.391 . S
C268 C269 1.400 . S
C269 C263 1.491 . S
C269 C268 1.400 . S
C269 C270 1.398 . S
C270 H258 0.950 . S
C270 C269 1.398 . S
C270 C271 1.391 . S
C271 H259 0.950 . S
C271 C267 1.393 . S
C271 C270 1.391 . S
H272 C280 0.950 . S
H273 C285 0.950 . S
H274 C282 0.950 . S
H275 C284 0.950 . S
H276 C286 0.950 . S
H277 C288 0.950 . S
H278 C290 0.950 . S
H279 C291 0.950 . S
C280 H272 0.950 . S
C280 C281 1.386 . S
C280 C282 1.391 . S
C281 C280 1.386 . S
C281 C285 1.393 . S
C282 H274 0.950 . S
C282 C280 1.391 . S
C282 C283 1.400 . S
C283 C282 1.400 . S
C283 C284 1.398 . S
C283 C289 1.491 . S
C284 H275 0.950 . S
C284 C283 1.398 . S
C284 C285 1.391 . S
C285 H273 0.950 . S
C285 C281 1.393 . S
C285 C284 1.391 . S
C286 H276 0.950 . S
C286 C287 1.386 . S
C286 C288 1.391 . S
C287 C286 1.386 . S
C287 C291 1.393 . S
C288 H277 0.950 . S
C288 C286 1.391 . S
C288 C289 1.400 . S
C289 C283 1.491 . S
C289 C288 1.400 . S
C289 C290 1.398 . S
C290 H278 0.950 . S
C290 C289 1.398 . S
C290 C291 1.391 . S
C291 H279 0.950 . S
C291 C287 1.393 . S
C291 C290 1.391 . S
H292 C300 0.950 . S
H293 C305 0.950 . S
H294 C302 0.950 . S
H295 C304 0.950 . S
H296 C306 0.950 . S
H297 C308 0.950 . S
H298 C310 0.950 . S
H299 C311 0.950 . S
C300 H292 0.950 . S
C300 C301 1.386 . S
C300 C302 1.391 . S
C301 C300 1.386 . S
C301 C305 1.393 . S
C302 H294 0.950 . S
C302 C300 1.391 . S
C302 C303 1.400 . S
C303 C302 1.400 . S
C303 C304 1.398 . S
C303 C309 1.491 . S
C304 H295 0.950 . S
C304 C303 1.398 . S
C304 C305 1.391 . S
C305 H293 0.950 . S
C305 C301 1.393 . S
C305 C304 1.391 . S
C306 H296 0.950 . S
C306 C307 1.386 . S
C306 C308 1.391 . S
C307 C306 1.386 . S
C307 C311 1.393 . S
C308 H297 0.950 . S
C308 C306 1.391 . S
C308 C309 1.400 . S
C309 C303 1.491 . S
C309 C308 1.400 . S
C309 C310 1.398 . S
C310 H298 0.950 . S
C310 C309 1.398 . S
C310 C311 1.391 . S
C311 H299 0.950 . S
C311 C307 1.393 . S
C311 C310 1.391 . S
H312 C320 0.950 . S
H313 C325 0.950 . S
H314 C322 0.950 . S
H315 C324 0.950 . S
H316 C326 0.950 . S
H317 C328 0.950 . S
H318 C330 0.950 . S
H319 C331 0.950 . S
C320 H312 0.950 . S
C320 C321 1.386 . S
C320 C322 1.391 . S
C321 C320 1.386 . S
C321 C325 1.393 . S
C322 H314 0.950 . S
C322 C320 1.391 . S
C322 C323 1.400 . S
C323 C322 1.400 . S
C323 C324 1.398 . S
C323 C329 1.491 . S
C324 H315 0.950 . S
C324 C323 1.398 . S
C324 C325 1.391 . S
C325 H313 0.950 . S
C325 C321 1.393 . S
C325 C324 1.391 . S
C326 H316 0.950 . S
C326 C327 1.386 . S
C326 C328 1.391 . S
C327 C326 1.386 . S
C327 C331 1.393 . S
C328 H317 0.950 . S
C328 C326 1.391 . S
C328 C329 1.400 . S
C329 C323 1.491 . S
C329 C328 1.400 . S
C329 C330 1.398 . S
C330 H318 0.950 . S
C330 C329 1.398 . S
C330 C331 1.391 . S
C331 H319 0.950 . S
C331 C327 1.393 . S
C331 C330 1.391 . S
H332 C340 0.950 . S
H333 C345 0.950 . S
H334 C342 0.950 . S
H335 C344 0.950 . S
H336 C346 0.950 . S
H337 C348 0.950 . S
H338 C350 0.950 . S
H339 C351 0.950 . S
C340 H332 0.950 . S
C340 C341 1.386 . S
C340 C342 1.391 . S
C341 C340 1.386 . S
C341 C345 1.393 . S
C342 H334 0.950 . S
C342 C340 1.391 . S
C342 C343 1.400 . S
C343 C342 1.400 . S
C343 C344 1.398 . S
C343 C349 1.491 . S
C344 H335 0.950 . S
C344 C343 1.398 . S
C344 C345 1.391 . S
C345 H333 0.950 . S
C345 C341 1.393 . S
C345 C344 1.391 . S
C346 H336 0.950 . S
C346 C347 1.386 . S
C346 C348 1.391 . S
C347 C346 1.386 . S
C347 C351 1.393 . S
C348 H337 0.950 . S
C348 C346 1.391 . S
C348 C349 1.400 . S
C349 C343 1.491 . S
C349 C348 1.400 . S
C349 C350 1.398 . S
C350 H338 0.950 . S
C350 C349 1.398 . S
C350 C351 1.391 . S
C351 H339 0.950 . S
C351 C347 1.393 . S
C351 C350 1.391 . S
H352 C360 0.950 . S
H353 C365 0.950 . S
H354 C362 0.950 . S
H355 C364 0.950 . S
H356 C366 0.950 . S
H357 C368 0.950 . S
H358 C370 0.950 . S
H359 C371 0.950 . S
C360 H352 0.950 . S
C360 C361 1.386 . S
C360 C362 1.391 . S
C361 C360 1.386 . S
C361 C365 1.393 . S
C362 H354 0.950 . S
C362 C360 1.391 . S
C362 C363 1.400 . S
C363 C362 1.400 . S
C363 C364 1.398 . S
C363 C369 1.491 . S
C364 H355 0.950 . S
C364 C363 1.398 . S
C364 C365 1.391 . S
C365 H353 0.950 . S
C365 C361 1.393 . S
C365 C364 1.391 . S
C366 H356 0.950 . S
C366 C367 1.386 . S
C366 C368 1.391 . S
C367 C366 1.386 . S
C367 C371 1.393 . S
C368 H357 0.950 . S
C368 C366 1.391 . S
C368 C369 1.400 . S
C369 C363 1.491 . S
C369 C368 1.400 . S
C369 C370 1.398 . S
C370 H358 0.950 . S
C370 C369 1.398 . S
C370 C371 1.391 . S
C371 H359 0.950 . S
C371 C367 1.393 . S
C371 C370 1.391 . S
H372 C380 0.950 . S
H373 C385 0.950 . S
H374 C382 0.950 . S
H375 C384 0.950 1_655 S
H376 C386 0.950 . S
H377 C388 0.950 . S
H378 C390 0.950 1_455 S
H379 C391 0.950 . S
C380 H372 0.950 . S
C380 C381 1.386 . S
C380 C382 1.391 . S
C381 C380 1.386 . S
C381 C385 1.393 . S
C382 H374 0.950 . S
C382 C380 1.391 . S
C382 C383 1.400 . S
C383 C382 1.400 . S
C383 C384 1.398 . S
C383 C389 1.491 1_455 S
C384 H375 0.950 1_455 S
C384 C383 1.398 . S
C384 C385 1.391 . S
C385 H373 0.950 . S
C385 C381 1.393 . S
C385 C384 1.391 . S
C386 H376 0.950 . S
C386 C387 1.386 . S
C386 C388 1.391 . S
C387 C386 1.386 . S
C387 C391 1.393 . S
C388 H377 0.950 . S
C388 C386 1.391 . S
C388 C389 1.400 . S
C389 C383 1.491 1_655 S
C389 C388 1.400 . S
C389 C390 1.398 . S
C390 H378 0.950 1_655 S
C390 C389 1.398 . S
C390 C391 1.391 . S
C391 H379 0.950 . S
C391 C387 1.393 . S
C391 C390 1.391 . S
H392 C400 0.950 . S
H393 C405 0.952 . S
H394 C402 0.950 . S
H395 C404 0.950 . S
H396 C406 0.950 . S
H397 C408 0.950 . S
H398 C410 0.950 . S
H399 C411 0.943 1_565 S
C400 H392 0.950 . S
C400 C401 1.386 . S
C400 C402 1.391 . S
C401 C400 1.386 . S
C401 C405 1.389 1_565 S
C402 H394 0.950 . S
C402 C400 1.391 . S
C402 C403 1.400 . S
C403 C402 1.400 . S
C403 C404 1.398 1_565 S
C403 C409 1.491 1_566 S
C404 H395 0.950 . S
C404 C403 1.398 1_545 S
C404 C405 1.392 . S
C405 H393 0.952 . S
C405 C401 1.389 1_545 S
C405 C404 1.392 . S
C406 H396 0.950 . S
C406 C407 1.386 . S
C406 C408 1.391 . S
C407 C406 1.386 . S
C407 C411 1.403 . S
C408 H397 0.950 . S
C408 C406 1.391 . S
C408 C409 1.400 . S
C409 C403 1.491 1_544 S
C409 C408 1.400 . S
C409 C410 1.398 1_545 S
C410 H398 0.950 . S
C410 C409 1.398 1_565 S
C410 C411 1.387 1_565 S
C411 H399 0.943 1_545 S
C411 C407 1.403 . S
C411 C410 1.387 1_545 S
H412 C420 0.950 . S
H413 C425 0.950 . S
H414 C422 0.950 . S
H415 C424 0.950 . S
H416 C426 0.950 . S
H417 C428 0.950 . S
H418 C430 0.950 . S
H419 C431 0.950 . S
C420 H412 0.950 . S
C420 C421 1.386 . S
C420 C422 1.391 . S
C421 C420 1.386 . S
C421 C425 1.393 . S
C422 H414 0.950 . S
C422 C420 1.391 . S
C422 C423 1.400 . S
C423 C422 1.400 . S
C423 C424 1.398 . S
C423 C429 1.491 . S
C424 H415 0.950 . S
C424 C423 1.398 . S
C424 C425 1.391 . S
C425 H413 0.950 . S
C425 C421 1.393 . S
C425 C424 1.391 . S
C426 H416 0.950 . S
C426 C427 1.386 . S
C426 C428 1.391 . S
C427 C426 1.386 . S
C427 C431 1.393 . S
C428 H417 0.950 . S
C428 C426 1.391 . S
C428 C429 1.400 . S
C429 C423 1.491 . S
C429 C428 1.400 . S
C429 C430 1.398 . S
C430 H418 0.950 . S
C430 C429 1.398 . S
C430 C431 1.391 . S
C431 H419 0.950 . S
C431 C427 1.393 . S
C431 C430 1.391 . S
H432 C440 0.923 1_655 S
H433 C445 0.950 . S
H434 C442 0.950 . S
H435 C444 0.950 . S
H436 C446 0.939 1_455 S
H437 C448 0.950 . S
H438 C450 0.950 . S
H439 C451 0.950 . S
C440 H432 0.923 1_455 S
C440 C441 1.427 . S
C440 C442 1.377 1_455 S
C441 C440 1.427 . S
C441 C445 1.393 . S
C442 H434 0.950 . S
C442 C440 1.377 1_655 S
C442 C443 1.400 1_655 S
C443 C442 1.400 1_455 S
C443 C444 1.398 . S
C443 C449 1.491 1_455 S
C444 H435 0.950 . S
C444 C443 1.398 . S
C444 C445 1.391 . S
C445 H433 0.950 . S
C445 C441 1.393 . S
C445 C444 1.391 . S
C446 H436 0.939 1_655 S
C446 C447 1.402 . S
C446 C448 1.386 1_655 S
C447 C446 1.402 . S
C447 C451 1.393 . S
C448 H437 0.950 . S
C448 C446 1.386 1_455 S
C448 C449 1.400 1_455 S
C449 C443 1.491 1_655 S
C449 C448 1.400 1_655 S
C449 C450 1.398 . S
C450 H438 0.950 . S
C450 C449 1.398 . S
C450 C451 1.391 . S
C451 H439 0.950 . S
C451 C447 1.393 . S
C451 C450 1.391 . S
H452 C460 0.950 . S
H453 C465 0.950 1_545 S
H454 C462 0.950 . S
H455 C464 0.950 . S
H456 C466 0.950 . S
H457 C468 0.950 . S
H458 C470 0.950 . S
H459 C471 0.950 1_565 S
C460 H452 0.950 . S
C460 C461 1.386 . S
C460 C462 1.391 . S
C461 C460 1.386 . S
C461 C465 1.393 . S
C462 H454 0.950 . S
C462 C460 1.391 . S
C462 C463 1.400 . S
C463 C462 1.400 . S
C463 C464 1.398 1_565 S
C463 C469 1.491 1_565 S
C464 H455 0.950 . S
C464 C463 1.398 1_545 S
C464 C465 1.391 1_545 S
C465 H453 0.950 1_565 S
C465 C461 1.393 . S
C465 C464 1.391 1_565 S
C466 H456 0.950 . S
C466 C467 1.386 . S
C466 C468 1.391 . S
C467 C466 1.386 . S
C467 C471 1.393 . S
C468 H457 0.950 . S
C468 C466 1.391 . S
C468 C469 1.400 . S
C469 C463 1.491 1_545 S
C469 C468 1.400 . S
C469 C470 1.398 1_545 S
C470 H458 0.950 . S
C470 C469 1.398 1_565 S
C470 C471 1.391 1_565 S
C471 H459 0.950 1_545 S
C471 C467 1.393 . S
C471 C470 1.391 1_545 S
H472 C480 0.950 . S
H473 C485 0.950 . S
H474 C482 0.950 . S
H475 C484 0.950 . S
H476 C486 0.950 . S
H477 C488 0.950 . S
H478 C490 0.950 . S
H479 C491 0.950 . S
C480 H472 0.950 . S
C480 C481 1.386 . S
C480 C482 1.391 . S
C481 C480 1.386 . S
C481 C485 1.393 . S
C482 H474 0.950 . S
C482 C480 1.391 . S
C482 C483 1.400 . S
C483 C482 1.400 . S
C483 C484 1.398 . S
C483 C489 1.491 . S
C484 H475 0.950 . S
C484 C483 1.398 . S
C484 C485 1.391 . S
C485 H473 0.950 . S
C485 C481 1.393 . S
C485 C484 1.391 . S
C486 H476 0.950 . S
C486 C487 1.386 . S
C486 C488 1.391 . S
C487 C486 1.386 . S
C487 C491 1.393 . S
C488 H477 0.950 . S
C488 C486 1.391 . S
C488 C489 1.400 . S
C489 C483 1.491 . S
C489 C488 1.400 . S
C489 C490 1.398 . S
C490 H478 0.950 . S
C490 C489 1.398 . S
C490 C491 1.391 . S
C491 H479 0.950 . S
C491 C487 1.393 . S
C491 C490 1.391 . S
C141 C8 1.622 . S
C147 C118 1.621 . S
C161 C129 1.620 . S
C167 C19 1.619 . S
C181 C74 1.623 . S
C187 C30 1.621 . S
C201 C41 1.620 . S
C207 C85 1.624 . S
C221 C96 1.619 . S
C227 C52 1.619 . S
C241 C63 1.623 . S
C247 C107 1.619 . S
C261 C7 1.644 . S
C267 C95 1.647 . S
C281 C106 1.640 . S
C287 C18 1.638 . S
C301 C29 1.639 . S
C307 C117 1.638 . S
C321 C128 1.642 . S
C327 C40 1.646 . S
C341 C51 1.647 . S
C347 C73 1.644 . S
C361 C62 1.649 . S
C367 C84 1.649 . S
C381 C5 1.406 1_556 S
C387 C126 1.400 . S
C401 C71 1.386 . S
C407 C16 1.376 . S
C421 C27 1.407 . S
C427 C82 1.378 1_554 S
C441 C93 1.379 . S
C447 C38 1.391 . S
C461 C49 1.381 . S
C467 C104 1.373 . S
C481 C115 1.379 . S
C487 C60 1.390 . S
