# Generated by pormake.
# Topology snk, (6)-cn, num edge types: 1
# Building blocks:
#     Node 0, Type 0, BuildingBlock: KUMBOL_clean_sbu_1, # of connection points: 6
#     Node 1, Type 0, BuildingBlock: KUMBOL_clean_sbu_1, # of connection points: 6
#     Node 2, Type 0, BuildingBlock: KUMBOL_clean_sbu_1, # of connection points: 6
#     Node 3, Type 0, BuildingBlock: KUMBOL_clean_sbu_1, # of connection points: 6
#     Node 4, Type 0, BuildingBlock: KUMBOL_clean_sbu_1, # of connection points: 6
#     Node 5, Type 0, BuildingBlock: KUMBOL_clean_sbu_1, # of connection points: 6
#     Node 6, Type 0, BuildingBlock: KUMBOL_clean_sbu_1, # of connection points: 6
#     Node 7, Type 0, BuildingBlock: KUMBOL_clean_sbu_1, # of connection points: 6
#     Edge 8, Type (0, 0), BuildingBlock: KIFKEQ_clean_linker_1, # of connection points: 2
#     Edge 9, Type (0, 0), BuildingBlock: KIFKEQ_clean_linker_1, # of connection points: 2
#     Edge 10, Type (0, 0), BuildingBlock: KIFKEQ_clean_linker_1, # of connection points: 2
#     Edge 11, Type (0, 0), BuildingBlock: KIFKEQ_clean_linker_1, # of connection points: 2
#     Edge 12, Type (0, 0), BuildingBlock: KIFKEQ_clean_linker_1, # of connection points: 2
#     Edge 13, Type (0, 0), BuildingBlock: KIFKEQ_clean_linker_1, # of connection points: 2
#     Edge 14, Type (0, 0), BuildingBlock: KIFKEQ_clean_linker_1, # of connection points: 2
#     Edge 15, Type (0, 0), BuildingBlock: KIFKEQ_clean_linker_1, # of connection points: 2
#     Edge 16, Type (0, 0), BuildingBlock: KIFKEQ_clean_linker_1, # of connection points: 2
#     Edge 17, Type (0, 0), BuildingBlock: KIFKEQ_clean_linker_1, # of connection points: 2
#     Edge 18, Type (0, 0), BuildingBlock: KIFKEQ_clean_linker_1, # of connection points: 2
#     Edge 19, Type (0, 0), BuildingBlock: KIFKEQ_clean_linker_1, # of connection points: 2
#     Edge 20, Type (0, 0), BuildingBlock: KIFKEQ_clean_linker_1, # of connection points: 2
#     Edge 21, Type (0, 0), BuildingBlock: KIFKEQ_clean_linker_1, # of connection points: 2
#     Edge 22, Type (0, 0), BuildingBlock: KIFKEQ_clean_linker_1, # of connection points: 2
#     Edge 23, Type (0, 0), BuildingBlock: KIFKEQ_clean_linker_1, # of connection points: 2
#     Edge 24, Type (0, 0), BuildingBlock: KIFKEQ_clean_linker_1, # of connection points: 2
#     Edge 25, Type (0, 0), BuildingBlock: KIFKEQ_clean_linker_1, # of connection points: 2
#     Edge 26, Type (0, 0), BuildingBlock: KIFKEQ_clean_linker_1, # of connection points: 2
#     Edge 27, Type (0, 0), BuildingBlock: KIFKEQ_clean_linker_1, # of connection points: 2
#     Edge 28, Type (0, 0), BuildingBlock: KIFKEQ_clean_linker_1, # of connection points: 2
#     Edge 29, Type (0, 0), BuildingBlock: KIFKEQ_clean_linker_1, # of connection points: 2
#     Edge 30, Type (0, 0), BuildingBlock: KIFKEQ_clean_linker_1, # of connection points: 2
#     Edge 31, Type (0, 0), BuildingBlock: KIFKEQ_clean_linker_1, # of connection points: 2
# Relax obj value: 0.007
# Max RMSD: 0.070
# Mean RMSD: 0.069
data_MOF--net-snk--node1-KUMBOL_clean_sbu_1--edge1-KIFKEQ_clean_linker_1
_symmetry_space_group_name_H-M    P1
_symmetry_Int_Tables_number       1
_symmetry_cell_setting            triclinic
loop_
_symmetry_equiv_pos_as_xyz
'x, y, z'
_cell_length_a     39.142998
_cell_length_b     39.120226
_cell_length_c     25.012628
_cell_angle_alpha  90.200966
_cell_angle_beta   90.023881
_cell_angle_gamma 89.855409
loop_
_atom_site_label
_atom_site_type_symbol
_atom_site_fract_x
_atom_site_fract_y
_atom_site_fract_z
_atom_type_partial_charge
C0 C 0.97562 0.90318 0.45416 0.0
C1 C 0.91482 0.90272 0.43497 0.0
C2 C 0.94572 0.92056 0.4422 0.0
C3 C 0.91407 0.8672 0.44281 0.0
C4 C 0.97529 0.86729 0.45957 0.0
C5 C 0.94423 0.84954 0.45524 0.0
N6 N 0.00533 0.92104 0.4568 0.0
C7 C 0.03586 0.90414 0.45953 0.0
C8 C 0.00636 0.8502 0.46708 0.0
C9 C 0.03682 0.86866 0.4661 0.0
Gd10 Gd 0.00491 0.03158 0.59079 0.0
Gd11 Gd 1.00041 0.98088 0.44855 0.0
N12 N 0.94713 0.95496 0.43579 0.0
C13 C 0.8858 0.92104 0.41888 0.0
C14 C 0.9195 0.97275 0.4173 0.0
C15 C 0.88829 0.95614 0.40925 0.0
H16 H 0.92155 0.99988 0.40985 0.0
H17 H 0.8662 0.9704 0.39576 0.0
H18 H 0.07004 0.99053 0.65325 0.0
H19 H 0.05965 0.91778 0.45577 0.0
H20 H 0.13026 1.00126 0.67547 0.0
H21 H 0.86158 0.90825 0.41278 0.0
H22 H 0.89048 0.85306 0.43813 0.0
H23 H 0.9715 0.10689 0.55782 0.0
H24 H 0.0072 0.82266 0.47142 0.0
H25 H 0.06109 0.85553 0.46947 0.0
H26 H 0.14743 0.11881 0.6287 0.0
H27 H 0.94345 0.82201 0.45978 0.0
H28 H 0.05078 0.18213 0.56445 0.0
H29 H 0.99056 0.1667 0.54639 0.0
N30 N 0.02065 0.08885 0.58029 0.0
C31 C 0.05338 0.09702 0.59293 0.0
C32 C 0.99785 0.11345 0.56532 0.0
C33 C 0.04256 0.15591 0.56939 0.0
C34 C 0.00854 0.14729 0.55907 0.0
C35 C 0.0654 0.13072 0.587 0.0
H36 H 0.10939 0.16393 0.59466 0.0
N37 N 0.06202 0.0394 0.61817 0.0
C38 C 0.07479 0.07146 0.6118 0.0
C39 C 0.12923 0.05326 0.64749 0.0
C40 C 0.10884 0.07916 0.6258 0.0
C41 C 0.08109 0.01481 0.64287 0.0
C42 C 0.11511 0.02109 0.6568 0.0
O43 O 0.95692 0.97702 0.50924 0.0
O44 O 0.98493 0.97766 0.58916 0.0
O45 O 0.00881 0.03671 0.67772 0.0
O46 O 0.96045 0.04741 0.63707 0.0
O47 O 0.97895 0.0343 0.45259 0.0
O48 O 0.95852 0.043 0.53857 0.0
O49 O 0.02707 0.05497 0.51525 0.0
O50 O 0.04893 0.00965 0.46781 0.0
O51 O 0.99215 0.0074 0.37352 0.0
O52 O 0.01857 0.95909 0.37338 0.0
O53 O 0.02722 0.97804 0.58683 0.0
O54 O 0.0473 0.9707 0.50049 0.0
C55 C 0.95971 0.96695 0.55911 0.0
C56 C 0.95733 0.04842 0.48643 0.0
C57 C 0.96066 0.05356 0.73442 0.0
C58 C 0.95894 0.04992 0.83242 0.0
C59 C 0.91205 0.07626 0.78349 0.0
C60 C 0.92865 0.06983 0.73519 0.0
C61 C 0.92692 0.06631 0.83165 0.0
C62 C 0.97597 0.04394 0.78339 0.0
C63 C 0.97689 0.04549 0.68232 0.0
C64 C 0.12126 0.11251 0.61862 0.0
C65 C 0.09958 0.13823 0.5993 0.0
H66 H 0.15552 0.05811 0.65868 0.0
C67 C 0.05041 0.04163 0.48371 0.0
C68 C 0.04824 0.96374 0.55208 0.0
C69 C 0.03189 0.99837 0.30445 0.0
C70 C 0.04325 0.01477 0.21156 0.0
C71 C 0.08588 0.02454 0.28112 0.0
C72 C 0.06418 0.01046 0.31941 0.0
C73 C 0.07562 0.02666 0.22767 0.0
C74 C 0.02151 1.00057 0.25064 0.0
C75 C 0.00814 0.98478 0.34475 0.0
H76 H 0.88742 0.08891 0.78359 0.0
H77 H 0.91632 0.07754 0.69836 0.0
H78 H 0.91346 0.0718 0.86854 0.0
H79 H 1.00049 0.03103 0.78331 0.0
H80 H 0.11079 0.03388 0.29292 0.0
H81 H 0.07249 0.00918 0.36066 0.0
H82 H 0.09325 0.03732 0.19888 0.0
H83 H 0.9962 0.99185 0.23957 0.0
C84 C 0.36183 0.74053 0.69174 0.0
C85 C 0.36679 0.67926 0.67776 0.0
C86 C 0.34654 0.7088 0.68457 0.0
C87 C 0.40255 0.68206 0.67818 0.0
C88 C 0.39771 0.74347 0.69181 0.0
C89 C 0.41797 0.71407 0.68514 0.0
N90 N 0.34158 0.76853 0.69807 0.0
C91 C 0.35544 0.8003 0.70336 0.0
C92 C 0.41215 0.77594 0.69829 0.0
C93 C 0.3909 0.80448 0.7039 0.0
Gd94 Gd 0.22481 0.75464 0.83123 0.0
Gd95 Gd 0.2826 0.75892 0.69631 0.0
N96 N 0.31183 0.70681 0.68555 0.0
C97 C 0.35046 0.64777 0.67079 0.0
C98 C 0.29579 0.67638 0.67692 0.0
C99 C 0.31481 0.64638 0.67003 0.0
H100 H 0.26839 0.67502 0.67487 0.0
H101 H 0.30196 0.62223 0.66378 0.0
H102 H 0.25835 0.82759 0.88456 0.0
H103 H 0.3391 0.82249 0.70604 0.0
H104 H 0.24161 0.88754 0.89608 0.0
H105 H 0.3651 0.62447 0.66546 0.0
H106 H 0.41853 0.65963 0.67306 0.0
H107 H 0.15418 0.71281 0.79619 0.0
H108 H 0.43962 0.77928 0.69851 0.0
H109 H 0.40182 0.82974 0.70821 0.0
H110 H 0.12348 0.88975 0.8463 0.0
H111 H 0.44559 0.71583 0.68516 0.0
H112 H 0.07086 0.78406 0.79547 0.0
H113 H 0.09276 0.72521 0.7825 0.0
N114 N 0.16658 0.76411 0.81609 0.0
C115 C 0.15501 0.79648 0.82478 0.0
C116 C 0.14474 0.73856 0.80167 0.0
C117 C 0.09775 0.77873 0.80167 0.0
C118 C 0.11002 0.74549 0.79414 0.0
C119 C 0.12028 0.80473 0.81708 0.0
H120 H 0.08267 0.84545 0.81844 0.0
N121 N 0.21173 0.81273 0.8473 0.0
C122 C 0.17834 0.82157 0.83975 0.0
C123 C 0.19048 0.87964 0.86692 0.0
C124 C 0.16701 0.85541 0.8485 0.0
C125 C 0.23366 0.83552 0.87039 0.0
C126 C 0.22377 0.86946 0.87892 0.0
O127 O 0.30556 0.73014 0.76676 0.0
O128 O 0.26114 0.71034 0.81948 0.0
O129 O 0.23232 0.75915 0.9188 0.0
O130 O 0.19533 0.7235 0.88488 0.0
O131 O 0.23371 0.728 0.69378 0.0
O132 O 0.2208 0.70772 0.77872 0.0
O133 O 0.20209 0.77465 0.75364 0.0
O134 O 0.24751 0.80253 0.7178 0.0
O135 O 0.263 0.74876 0.6161 0.0
O136 O 0.2999 0.7889 0.62873 0.0
O137 O 0.27797 0.77778 0.83572 0.0
O138 O 0.28438 0.80346 0.75362 0.0
C139 C 0.29328 0.70988 0.80411 0.0
C140 C 0.21803 0.70657 0.72617 0.0
C141 C 0.19713 0.72526 0.9814 0.0
C142 C 0.20349 0.72133 0.07885 0.0
C143 C 0.15396 0.69655 0.03457 0.0
C144 C 0.16624 0.70719 0.9852 0.0
C145 C 0.17232 0.70352 0.08095 0.0
C146 C 0.21567 0.73263 0.02863 0.0
C147 C 0.20868 0.73653 0.92781 0.0
C148 C 0.13251 0.86384 0.84007 0.0
C149 C 0.10922 0.83858 0.82446 0.0
H150 H 0.18279 0.90588 0.87416 0.0
C151 C 0.21449 0.79846 0.72243 0.0
C152 C 0.29292 0.8002 0.80421 0.0
C153 C 0.30154 0.76035 0.54514 0.0
C154 C 0.3041 0.75266 0.44786 0.0
C155 C 0.35401 0.74093 0.50288 0.0
C156 C 0.3358 0.74995 0.5487 0.0
C157 C 0.3384 0.74239 0.45282 0.0
C158 C 0.28563 0.76136 0.49453 0.0
C159 C 0.28274 0.7713 0.5936 0.0
H160 H 0.13 0.68288 0.03693 0.0
H161 H 0.15123 0.70147 0.9499 0.0
H162 H 0.16184 0.69519 0.1188 0.0
H163 H 0.23957 0.74646 0.02626 0.0
H164 H 0.3804 0.73289 0.50618 0.0
H165 H 0.3487 0.74916 0.58676 0.0
H166 H 0.35308 0.73499 0.41792 0.0
H167 H 0.25921 0.76952 0.4914 0.0
C168 C 0.52476 0.10887 0.94881 0.0
C169 C 0.58651 0.11122 0.93973 0.0
C170 C 0.5561 0.09221 0.94433 0.0
C171 C 0.58502 0.14709 0.93965 0.0
C172 C 0.52321 0.14489 0.94873 0.0
C173 C 0.55348 0.16387 0.94413 0.0
N174 N 0.4959 0.0899 0.95401 0.0
C175 C 0.46463 0.1052 0.95759 0.0
C176 C 0.49126 0.16079 0.95347 0.0
C177 C 0.46184 0.14084 0.9577 0.0
Gd178 Gd 0.50446 0.97315 0.08635 0.0
Gd179 Gd 0.50353 0.03053 0.95315 0.0
N180 N 0.55691 0.05744 0.94655 0.0
C181 C 0.61758 0.0936 0.93582 0.0
C182 C 0.58696 0.04014 0.94058 0.0
C183 C 0.61775 0.05791 0.93584 0.0
H184 H 0.5874 0.01271 0.93901 0.0
H185 H 0.64159 0.04405 0.93186 0.0
H186 H 0.42019 0.99111 0.09329 0.0
H187 H 0.44177 0.08992 0.95904 0.0
H188 H 0.36567 0.95992 0.09202 0.0
H189 H 0.64151 0.10727 0.93232 0.0
H190 H 0.60814 0.16211 0.9363 0.0
H191 H 0.56613 0.91376 0.08725 0.0
H192 H 0.489 0.1884 0.95354 0.0
H193 H 0.43699 0.15289 0.96064 0.0
H194 H 0.39891 0.84183 0.08483 0.0
H195 H 0.55277 0.19156 0.94409 0.0
H196 H 0.51855 0.81534 0.08265 0.0
H197 H 0.57083 0.85076 0.08413 0.0
N198 N 0.5119 0.91382 0.08549 0.0
C199 C 0.48281 0.89489 0.08597 0.0
C200 C 0.54322 0.8985 0.08552 0.0
C201 C 0.51635 0.84295 0.08365 0.0
C202 C 0.54594 0.86286 0.08432 0.0
C203 C 0.48427 0.85888 0.08466 0.0
H204 H 0.45445 0.81228 0.08306 0.0
N205 N 0.45077 0.94641 0.08672 0.0
C206 C 0.45137 0.9116 0.08708 0.0
C207 C 0.38965 0.91036 0.08789 0.0
C208 C 0.42077 0.89266 0.08681 0.0
C209 C 0.42058 0.96373 0.09018 0.0
C210 C 0.38959 0.94604 0.09011 0.0
O211 O 0.53093 0.05208 0.02592 0.0
O212 O 0.551 0.00644 0.07533 0.0
O213 O 0.48368 0.98613 0.16398 0.0
O214 O 0.52994 0.95603 0.15901 0.0
O215 O 0.53074 0.9794 0.95191 0.0
O216 O 0.55214 0.96757 0.03625 0.0
O217 O 0.48154 0.95113 1.01024 0.0
O218 O 0.45763 0.99713 0.96762 0.0
O219 O 0.51722 0.01086 0.87474 0.0
O220 O 0.4798 0.05144 0.88197 0.0
O221 O 0.48103 0.02615 0.08733 0.0
O222 O 0.45654 0.03484 1.00488 0.0
C223 C 0.55195 0.03883 0.06144 0.0
C224 C 0.55261 0.96394 0.98381 0.0
C225 C 0.52383 0.99426 0.23176 0.0
C226 C 0.5292 0.01139 0.32527 0.0
C227 C 0.5554 0.04543 0.25528 0.0
C228 C 0.54239 0.02319 0.21675 0.0
C229 C 0.54888 0.03962 0.30928 0.0
C230 C 0.51722 0.98833 0.28614 0.0
C231 C 0.50875 0.97222 0.1904 0.0
C232 C 0.42217 0.85679 0.08525 0.0
C233 C 0.45381 0.83996 0.08422 0.0
H234 H 0.36559 0.89674 0.08765 0.0
C235 C 0.45948 0.96414 0.9763 0.0
C236 C 0.45746 0.04003 0.05687 0.0
C237 C 0.47402 0.01317 0.80942 0.0
C238 C 0.46545 0.9958 0.71642 0.0
C239 C 0.42228 0.98343 0.78376 0.0
C240 C 0.4422 0.99936 0.82279 0.0
C241 C 0.43367 0.98177 0.73085 0.0
C242 C 0.48571 0.01102 0.75654 0.0
C243 C 0.49527 0.0302 0.84987 0.0
H244 H 0.56992 0.06762 0.24322 0.0
H245 H 0.54596 0.02887 0.1751 0.0
H246 H 0.55884 0.05748 0.33854 0.0
H247 H 0.50161 0.96672 0.29767 0.0
H248 H 0.39768 0.97285 0.79434 0.0
H249 H 0.43274 1.0013 0.86323 0.0
H250 H 0.41712 0.97032 0.70112 0.0
H251 H 0.51058 0.0214 0.7468 0.0
C252 C 0.36037 0.27231 0.33906 0.0
C253 C 0.36268 0.3342 0.34679 0.0
C254 C 0.3437 0.30368 0.34309 0.0
C255 C 0.39853 0.33277 0.34637 0.0
C256 C 0.39637 0.27081 0.33879 0.0
C257 C 0.41532 0.30118 0.34242 0.0
N258 N 0.3414 0.24335 0.33463 0.0
C259 C 0.35672 0.21205 0.33164 0.0
C260 C 0.41226 0.23881 0.33466 0.0
C261 C 0.39234 0.2093 0.33131 0.0
Gd262 Gd 0.22608 0.25301 0.20082 0.0
Gd263 Gd 0.28204 0.25085 0.33519 0.0
N264 N 0.30891 0.30439 0.34151 0.0
C265 C 0.34504 0.36528 0.35044 0.0
C266 C 0.29163 0.33447 0.34748 0.0
C267 C 0.30937 0.36537 0.35127 0.0
H268 H 0.26425 0.33486 0.34979 0.0
H269 H 0.29552 0.38922 0.35517 0.0
H270 H 0.24109 0.16832 0.19321 0.0
H271 H 0.34147 0.18914 0.33072 0.0
H272 H 0.20792 0.11488 0.1904 0.0
H273 H 0.35869 0.38928 0.35322 0.0
H274 H 0.41352 0.35596 0.34901 0.0
H275 H 0.1691 0.31687 0.19797 0.0
H276 H 0.43986 0.23659 0.33437 0.0
H277 H 0.4044 0.18442 0.32882 0.0
H278 H 0.09107 0.15242 0.19035 0.0
H279 H 0.44299 0.30052 0.34215 0.0
H280 H 0.06899 0.27302 0.19464 0.0
H281 H 0.10633 0.32396 0.19709 0.0
N282 N 0.1671 0.26265 0.19841 0.0
C283 C 0.14712 0.2343 0.19586 0.0
C284 C 0.15297 0.29454 0.19822 0.0
C285 C 0.09649 0.26978 0.19554 0.0
C286 C 0.11747 0.29861 0.19708 0.0
C287 C 0.11121 0.23712 0.19469 0.0
H288 H 0.06357 0.20904 0.19193 0.0
N289 N 0.19735 0.20041 0.19739 0.0
C290 C 0.16265 0.20228 0.1948 0.0
C291 C 0.15922 0.14064 0.1918 0.0
C292 C 0.14264 0.17239 0.19273 0.0
C293 C 0.21367 0.16963 0.19417 0.0
C294 C 0.19488 0.13929 0.19206 0.0
O295 O 0.30475 0.27674 0.262 0.0
O296 O 0.25952 0.29924 0.21478 0.0
O297 O 0.24189 0.23328 0.12374 0.0
O298 O 0.21028 0.27863 0.12766 0.0
O299 O 0.23055 0.27744 0.33572 0.0
O300 O 0.22126 0.3003 0.25191 0.0
O301 O 0.20287 0.2283 0.27473 0.0
O302 O 0.24805 0.20507 0.32099 0.0
O303 O 0.26396 0.26616 0.41373 0.0
O304 O 0.30203 0.22622 0.4063 0.0
O305 O 0.27816 0.22775 0.20127 0.0
O306 O 0.28636 0.20345 0.28398 0.0
C307 C 0.292 0.29909 0.22817 0.0
C308 C 0.21617 0.30005 0.30394 0.0
C309 C 0.25008 0.27408 0.05691 0.0
C310 C 0.2682 0.27985 0.96411 0.0
C311 C 0.3005 0.30726 0.03532 0.0
C312 C 0.27792 0.29403 0.07304 0.0
C313 C 0.29582 0.30011 0.9811 0.0
C314 C 0.24515 0.26716 1.00237 0.0
C315 C 0.22785 0.25813 0.09698 0.0
C316 C 0.10686 0.17511 0.19181 0.0
C317 C 0.0912 0.20737 0.19275 0.0
H318 H 0.14475 0.11708 0.19031 0.0
C319 C 0.21533 0.20628 0.30934 0.0
C320 C 0.29141 0.20395 0.23195 0.0
C321 C 0.26401 0.2233 0.47935 0.0
C322 C 0.24749 0.21584 0.57282 0.0
C323 C 0.22973 0.17458 0.50512 0.0
C324 C 0.24677 0.19318 0.46585 0.0
C325 C 0.2302 0.18564 0.5583 0.0
C326 C 0.26399 0.23475 0.53253 0.0
C327 C 0.2821 0.2432 0.43856 0.0
H328 H 0.32194 0.32267 0.0482 0.0
H329 H 0.28243 0.29876 0.11485 0.0
H330 H 0.31379 0.31036 0.95244 0.0
H331 H 0.22413 0.25096 0.98994 0.0
H332 H 0.21651 0.15125 0.49443 0.0
H333 H 0.24679 0.18403 0.4251 0.0
H334 H 0.21765 0.17007 0.58808 0.0
H335 H 0.27685 0.25847 0.54227 0.0
C336 C 0.84205 0.2036 0.19758 0.0
C337 C 0.8245 0.14798 0.16496 0.0
C338 C 0.81658 0.182 0.17923 0.0
C339 C 0.85795 0.13567 0.17203 0.0
C340 C 0.87597 0.19187 0.20251 0.0
C341 C 0.88365 0.15758 0.19071 0.0
N342 N 0.83374 0.23647 0.20938 0.0
C343 C 0.85835 0.25973 0.22225 0.0
C344 C 0.90122 0.21518 0.21817 0.0
C345 C 0.89243 0.24937 0.22737 0.0
Gd346 Gd 0.7252 0.25727 0.34255 0.0
Gd347 Gd 0.77619 0.25175 0.20068 0.0
N348 N 0.78459 0.19487 0.1722 0.0
C349 C 0.79885 0.12775 0.14221 0.0
C350 C 0.7604 0.17612 0.14599 0.0
C351 C 0.76687 0.14211 0.13173 0.0
H352 H 0.73611 0.18734 0.13536 0.0
H353 H 0.74729 0.12712 0.11212 0.0
H354 H 0.74074 0.33712 0.38006 0.0
H355 H 0.85153 0.28615 0.22919 0.0
H356 H 0.7091 0.39175 0.391 0.0
H357 H 0.80388 0.10149 0.13071 0.0
H358 H 0.86442 0.10951 0.16179 0.0
H359 H 0.66431 0.19589 0.33371 0.0
H360 H 0.92761 0.20719 0.22231 0.0
H361 H 0.91185 0.2677 0.2385 0.0
H362 H 0.59375 0.36347 0.3423 0.0
H363 H 0.9095 0.14796 0.19479 0.0
H364 H 0.56794 0.24541 0.31154 0.0
H365 H 0.60245 0.19251 0.31742 0.0
N366 N 0.66586 0.25033 0.33073 0.0
C367 C 0.64699 0.27958 0.33154 0.0
C368 C 0.65001 0.21928 0.32859 0.0
C369 C 0.59533 0.24712 0.31721 0.0
C370 C 0.61472 0.21721 0.32046 0.0
C371 C 0.61125 0.27879 0.32431 0.0
H372 H 0.56498 0.30929 0.32066 0.0
N373 N 0.69734 0.30992 0.35213 0.0
C374 C 0.66309 0.31019 0.34366 0.0
C375 C 0.66102 0.3704 0.36542 0.0
C376 C 0.64407 0.34065 0.349 0.0
C377 C 0.71376 0.33829 0.37095 0.0
C378 C 0.69593 0.36908 0.37723 0.0
O379 O 0.80157 0.2329 0.27705 0.0
O380 O 0.75729 0.2104 0.3255 0.0
O381 O 0.75067 0.26552 0.41884 0.0
O382 O 0.70133 0.24141 0.41693 0.0
O383 O 0.72384 0.22731 0.20709 0.0
O384 O 0.71848 0.20826 0.29412 0.0
O385 O 0.72071 0.29961 0.28014 0.0
O386 O 0.72137 0.26862 0.20322 0.0
O387 O 0.78224 0.24866 0.11367 0.0
O388 O 0.78814 0.29752 0.15544 0.0
O389 O 0.77713 0.28175 0.33959 0.0
O390 O 0.78707 0.29881 0.25191 0.0
C391 C 0.78975 0.21096 0.31222 0.0
C392 C 0.71259 0.20516 0.24242 0.0
C393 C 0.7382 0.22698 0.48833 0.0
C394 C 0.75257 0.21577 0.58205 0.0
C395 C 0.75674 0.17044 0.51522 0.0
C396 C 0.74573 0.19291 0.47552 0.0
C397 C 0.7601 0.18168 0.56808 0.0
C398 C 0.74169 0.23835 0.54151 0.0
C399 C 0.72681 0.25099 0.44672 0.0
C400 C 0.60876 0.34024 0.33911 0.0
C401 C 0.5924 0.30939 0.32666 0.0
H402 H 0.64729 0.3943 0.37014 0.0
C403 C 0.71152 0.29563 0.22998 0.0
C404 C 0.79208 0.3015 0.30407 0.0
C405 C 0.79526 0.29862 0.05852 0.0
C406 C 0.79584 0.29971 0.96036 0.0
C407 C 0.81443 0.34933 1.0116 0.0
C408 C 0.80791 0.33217 0.05921 0.0
C409 C 0.80846 0.33333 0.96263 0.0
C410 C 0.78909 0.28244 1.00878 0.0
C411 C 0.7882 0.28124 0.1099 0.0
H412 H 0.76276 0.1442 0.50497 0.0
H413 H 0.74298 0.18377 0.43487 0.0
H414 H 0.76913 0.16378 0.59788 0.0
H415 H 0.73554 0.26467 0.55131 0.0
H416 H 0.82407 0.37523 1.01265 0.0
H417 H 0.81282 0.34526 0.09667 0.0
H418 H 0.81335 0.34754 0.92634 0.0
H419 H 0.77935 0.25655 1.00773 0.0
C420 C 0.86156 0.7704 0.83464 0.0
C421 C 0.86608 0.83228 0.83866 0.0
C422 C 0.84605 0.80241 0.83654 0.0
C423 C 0.90186 0.82955 0.83874 0.0
C424 C 0.89748 0.76757 0.835 0.0
C425 C 0.91751 0.7973 0.83695 0.0
N426 N 0.84157 0.74206 0.8321 0.0
C427 C 0.85569 0.71017 0.83149 0.0
C428 C 0.91219 0.73492 0.83334 0.0
C429 C 0.89119 0.7061 0.8318 0.0
Gd430 Gd 0.72513 0.755 0.69782 0.0
Gd431 Gd 0.78258 0.75173 0.83105 0.0
N432 N 0.81133 0.80431 0.83471 0.0
C433 C 0.84951 0.86403 0.84049 0.0
C434 C 0.79505 0.83506 0.83885 0.0
C435 C 0.81385 0.86538 0.84106 0.0
H436 H 0.76765 0.83637 0.84049 0.0
H437 H 0.80083 0.88978 0.84345 0.0
H438 H 0.74471 0.67166 0.67825 0.0
H439 H 0.83954 0.68786 0.83173 0.0
H440 H 0.71478 0.6166 0.67295 0.0
H441 H 0.86399 0.88758 0.84206 0.0
H442 H 0.91767 0.85224 0.84021 0.0
H443 H 0.66428 0.81499 0.70844 0.0
H444 H 0.93969 0.73167 0.8336 0.0
H445 H 0.90232 0.68075 0.83116 0.0
H446 H 0.59623 0.64658 0.68742 0.0
H447 H 0.94515 0.79563 0.83714 0.0
H448 H 0.56714 0.76497 0.70789 0.0
H449 H 0.60133 0.81797 0.71377 0.0
N450 N 0.66566 0.76089 0.70188 0.0
C451 C 0.64737 0.73149 0.69727 0.0
C452 C 0.64962 0.7917 0.70714 0.0
C453 C 0.59476 0.7635 0.70596 0.0
C454 C 0.61397 0.79348 0.7095 0.0
C455 C 0.61138 0.73201 0.69964 0.0
H456 H 0.5655 0.70111 0.69789 0.0
N457 N 0.69957 0.70083 0.6908 0.0
C458 C 0.66476 0.70063 0.69123 0.0
C459 C 0.66483 0.63913 0.6817 0.0
C460 C 0.6465 0.66967 0.68753 0.0
C461 C 0.71744 0.67131 0.68257 0.0
C462 C 0.70043 0.64001 0.67869 0.0
O463 O 0.8049 0.77738 0.75726 0.0
O464 O 0.75942 0.80061 0.71149 0.0
O465 O 0.74156 0.74114 0.61767 0.0
O466 O 0.70329 0.78051 0.62879 0.0
O467 O 0.73056 0.77696 0.8322 0.0
O468 O 0.72128 0.80196 0.75022 0.0
O469 O 0.70342 0.72898 0.77158 0.0
O470 O 0.74914 0.70556 0.81643 0.0
O471 O 0.76701 0.77063 0.90884 0.0
O472 O 0.79919 0.72577 0.90349 0.0
O473 O 0.7768 0.7288 0.69529 0.0
O474 O 0.78714 0.70512 0.77831 0.0
C475 C 0.7922 0.79932 0.72268 0.0
C476 C 0.71705 0.80107 0.80244 0.0
C477 C 0.73944 0.78492 0.55344 0.0
C478 C 0.75545 0.79274 0.45966 0.0
C479 C 0.77042 0.8356 0.52667 0.0
C480 C 0.75473 0.8162 0.56635 0.0
C481 C 0.77065 0.82415 0.47368 0.0
C482 C 0.74016 0.77311 0.50036 0.0
C483 C 0.72262 0.76426 0.59474 0.0
C484 C 0.61066 0.67013 0.69002 0.0
C485 C 0.59316 0.7012 0.696 0.0
H486 H 0.65175 0.61482 0.67882 0.0
C487 C 0.7165 0.70603 0.80406 0.0
C488 C 0.79189 0.70614 0.72621 0.0
C489 C 0.7602 0.72941 0.97562 0.0
C490 C 0.74158 0.72466 0.06849 0.0
C491 C 0.71231 0.69299 0.99832 0.0
C492 C 0.7343 0.7068 0.96026 0.0
C493 C 0.71578 0.70193 0.05213 0.0
C494 C 0.76395 0.73817 0.02984 0.0
C495 C 0.78169 0.74585 0.93494 0.0
H496 H 0.78208 0.85983 0.53689 0.0
H497 H 0.75423 0.82567 0.60697 0.0
H498 H 0.78211 0.84033 0.44364 0.0
H499 H 0.72884 0.74855 0.49105 0.0
H500 H 0.69233 0.67556 0.98601 0.0
H501 H 0.73091 0.70028 0.91875 0.0
H502 H 0.69838 0.69098 0.08102 0.0
H503 H 0.78354 0.75623 0.04166 0.0
C504 C 0.4809 0.39792 0.94556 0.0
C505 C 0.41887 0.39657 0.94402 0.0
C506 C 0.44974 0.41507 0.94513 0.0
C507 C 0.41976 0.36068 0.9435 0.0
C508 C 0.48188 0.36189 0.94461 0.0
C509 C 0.45116 0.34339 0.94373 0.0
N510 N 0.51023 0.41644 0.9473 0.0
C511 C 0.54132 0.40069 0.94611 0.0
C512 C 0.51373 0.34551 0.94463 0.0
C513 C 0.54358 0.36502 0.94507 0.0
Gd514 Gd 0.50275 0.53188 0.08461 0.0
Gd515 Gd 0.50375 0.4759 0.95009 0.0
N516 N 0.44966 0.44986 0.94735 0.0
C517 C 0.38801 0.41471 0.94366 0.0
C518 C 0.4197 0.46765 0.94451 0.0
C519 C 0.38846 0.4504 0.94338 0.0
H520 H 0.41967 0.49507 0.94291 0.0
H521 H 0.36474 0.46465 0.94203 0.0
H522 H 0.58669 0.51385 0.09702 0.0
H523 H 0.56438 0.41569 0.94486 0.0
H524 H 0.64113 0.54502 0.10224 0.0
H525 H 0.36375 0.40144 0.94295 0.0
H526 H 0.39629 0.34604 0.94285 0.0
H527 H 0.44115 0.59149 0.08266 0.0
H528 H 0.51556 0.31787 0.94384 0.0
H529 H 0.56831 0.3526 0.94431 0.0
H530 H 0.60811 0.66321 0.09892 0.0
H531 H 0.45141 0.31569 0.94317 0.0
H532 H 0.48876 0.68985 0.08711 0.0
H533 H 0.43653 0.65448 0.08202 0.0
N534 N 0.49536 0.59132 0.08541 0.0
C535 C 0.52436 0.61023 0.08954 0.0
C536 C 0.46409 0.60672 0.08336 0.0
C537 C 0.49093 0.66223 0.08683 0.0
C538 C 0.46139 0.64236 0.08375 0.0
C539 C 0.52292 0.64625 0.08998 0.0
H540 H 0.55271 0.69284 0.09365 0.0
N541 N 0.5563 0.55869 0.09056 0.0
C542 C 0.55568 0.59348 0.09273 0.0
C543 C 0.61728 0.59465 0.09899 0.0
C544 C 0.58624 0.61239 0.0962 0.0
C545 C 0.58636 0.54129 0.09556 0.0
C546 C 0.61729 0.55895 0.09912 0.0
O547 O 0.4799 0.45313 0.02485 0.0
O548 O 0.45649 0.49876 0.06979 0.0
O549 O 0.51755 0.51269 0.1626 0.0
O550 O 0.47883 0.55203 0.15643 0.0
O551 O 0.47986 0.52879 0.95015 0.0
O552 O 0.4557 0.53735 0.03302 0.0
O553 O 0.52929 0.5541 1.01182 0.0
O554 O 0.5506 0.5085 0.96373 0.0
O555 O 0.48442 0.49084 0.87251 0.0
O556 O 0.52977 0.45939 0.87745 0.0
O557 O 0.52965 0.48037 0.08504 0.0
O558 O 0.5511 0.46876 1.0006 0.0
C559 C 0.45762 0.46593 0.05884 0.0
C560 C 0.45689 0.5433 0.98127 0.0
C561 C 0.47493 0.51368 0.22876 0.0
C562 C 0.46689 0.49719 0.32206 0.0
C563 C 0.42536 0.48053 0.25424 0.0
C564 C 0.44442 0.49723 0.21514 0.0
C565 C 0.43635 0.48061 0.30741 0.0
C566 C 0.48626 0.51331 0.28192 0.0
C567 C 0.49526 0.53139 0.18808 0.0
C568 C 0.58488 0.64827 0.09644 0.0
C569 C 0.55332 0.66514 0.09339 0.0
H570 H 0.64131 0.60825 0.10157 0.0
C571 C 0.55112 0.54095 0.97741 0.0
C572 C 0.55148 0.46477 0.05296 0.0
C573 C 0.52552 0.49853 0.80596 0.0
C574 C 0.53099 0.51657 0.71315 0.0
C575 C 0.55917 0.54856 0.78398 0.0
C576 C 0.54589 0.52614 0.82185 0.0
C577 C 0.55166 0.54396 0.72988 0.0
C578 C 0.51825 0.49366 0.75153 0.0
C579 C 0.50942 0.47659 0.84624 0.0
H580 H 0.40175 0.46792 0.24345 0.0
H581 H 0.43533 0.49764 0.17443 0.0
H582 H 0.42046 0.46838 0.3371 0.0
H583 H 0.51023 0.52563 0.29181 0.0
H584 H 0.57489 0.56983 0.79667 0.0
H585 H 0.55089 0.53061 0.86359 0.0
H586 H 0.56196 0.56181 0.7011 0.0
H587 H 0.50172 0.47284 0.73931 0.0
C588 C 0.02538 0.61331 0.4418 0.0
C589 C 0.08725 0.6156 0.4349 0.0
C590 C 0.05674 0.59662 0.43788 0.0
C591 C 0.08584 0.65147 0.43585 0.0
C592 C 0.0239 0.64932 0.44267 0.0
C593 C 0.05427 0.66827 0.43968 0.0
N594 N 0.9964 0.59434 0.44552 0.0
C595 C 0.96513 0.60967 0.4485 0.0
C596 C 0.99192 0.66524 0.4467 0.0
C597 C 0.96241 0.64531 0.44942 0.0
Gd598 Gd 0.00472 0.47757 0.5767 0.0
Gd599 Gd 1.00392 0.53497 0.44354 0.0
N600 N 0.05743 0.56181 0.43891 0.0
C601 C 0.11831 0.59793 0.4314 0.0
C602 C 0.08749 0.5445 0.43327 0.0
C603 C 0.11839 0.56224 0.43015 0.0
H604 H 0.08785 0.51708 0.4308 0.0
H605 H 0.14224 0.54837 0.42647 0.0
H606 H 0.92004 0.49299 0.58097 0.0
H607 H 0.94221 0.59443 0.44892 0.0
H608 H 0.86646 0.46007 0.58028 0.0
H609 H 0.14232 0.61158 0.42914 0.0
H610 H 0.10904 0.66646 0.43373 0.0
H611 H 0.06817 0.42029 0.58176 0.0
H612 H 0.98971 0.69285 0.44742 0.0
H613 H 0.93754 0.65739 0.45185 0.0
H614 H 0.90341 0.34297 0.57865 0.0
H615 H 0.05363 0.69597 0.44039 0.0
H616 H 0.02385 0.3203 0.58007 0.0
H617 H 0.07496 0.35742 0.58136 0.0
N618 N 0.01403 0.41852 0.57845 0.0
C619 C 0.98557 0.39867 0.57895 0.0
C620 C 0.04581 0.40424 0.57996 0.0
C621 C 0.02076 0.34783 0.57977 0.0
C622 C 0.04969 0.36869 0.58035 0.0
C623 C 0.98819 0.36272 0.57929 0.0
H624 H 0.95987 0.31518 0.57921 0.0
N625 N 0.95196 0.44911 0.57707 0.0
C626 C 0.95363 0.41436 0.57879 0.0
C627 C 0.89199 0.41122 0.57867 0.0
C628 C 0.92365 0.39448 0.5788 0.0
C629 C 0.92124 0.46556 0.57931 0.0
C630 C 0.89081 0.44691 0.57941 0.0
O631 O 0.03005 0.55652 0.51747 0.0
O632 O 0.0513 0.51057 0.56455 0.0
O633 O 0.98356 0.49246 0.65323 0.0
O634 O 0.0296 0.46184 0.65058 0.0
O635 O 0.03077 0.48357 0.44216 0.0
O636 O 0.05227 0.47239 0.52656 0.0
O637 O 0.98099 0.45541 0.50122 0.0
O638 O 0.95805 0.5012 0.45632 0.0
O639 O 0.0189 0.51663 0.36492 0.0
O640 O 0.98041 0.55615 0.37234 0.0
O641 O 0.98078 0.53018 0.5766 0.0
O642 O 0.95636 0.53903 0.49419 0.0
C643 C 0.05164 0.54316 0.55198 0.0
C644 C 0.05252 0.46811 0.47429 0.0
C645 C 0.02353 0.50179 0.72102 0.0
C646 C 0.02927 0.52004 0.81391 0.0
C647 C 0.05458 0.55364 0.74264 0.0
C648 C 0.04188 0.53064 0.70492 0.0
C649 C 0.04826 0.54848 0.79688 0.0
C650 C 0.01732 0.49643 0.77561 0.0
C651 C 0.00842 0.47898 0.68071 0.0
C652 C 0.92618 0.35866 0.57881 0.0
C653 C 0.95835 0.34283 0.57909 0.0
H654 H 0.86836 0.39686 0.57857 0.0
C655 C 0.95952 0.46831 0.46616 0.0
C656 C 0.95677 0.54344 0.54639 0.0
C657 C 0.97618 0.51838 0.29893 0.0
C658 C 0.96843 0.50136 0.20564 0.0
C659 C 0.92574 0.48672 0.27255 0.0
C660 C 0.94495 0.50319 0.31189 0.0
C661 C 0.93725 0.48589 0.2197 0.0
C662 C 0.98799 0.51717 0.24605 0.0
C663 C 0.9967 0.53567 0.34004 0.0
H664 H 0.06885 0.5758 0.72973 0.0
H665 H 0.04567 0.53564 0.6631 0.0
H666 H 0.05805 0.56683 0.82555 0.0
H667 H 1.00214 0.47471 0.78802 0.0
H668 H 0.90159 0.47505 0.28286 0.0
H669 H 0.93541 0.50447 0.35229 0.0
H670 H 0.92125 0.47394 0.18971 0.0
H671 H 0.0124 0.52866 0.23655 0.0
H672 H 0.04005 0.07863 0.3938 0.0
H673 H 0.11564 0.0556 0.5136 0.0
H674 H 0.08032 0.11694 0.34927 0.0
H675 H 0.1556 0.09523 0.47123 0.0
H676 H 0.23045 0.14383 0.35347 0.0
H677 H 0.19104 0.10329 0.39435 0.0
H678 H 0.10671 0.17119 0.35962 0.0
H679 H 0.14605 0.21142 0.31872 0.0
C680 C 0.0653 0.08213 0.41074 0.0
C681 C 0.07485 0.06454 0.45713 0.0
C682 C 0.08833 0.1042 0.38556 0.0
C683 C 0.12131 0.10948 0.40667 0.0
C684 C 0.13069 0.09156 0.45327 0.0
C685 C 0.10775 0.06915 0.47798 0.0
C686 C 0.20352 0.15018 0.35499 0.0
C687 C 0.19152 0.18111 0.33351 0.0
C688 C 0.18086 0.12693 0.37847 0.0
C689 C 0.14555 0.13389 0.3807 0.0
C690 C 0.13358 0.16463 0.35825 0.0
C691 C 0.15623 0.18786 0.33495 0.0
H692 H 0.11047 0.9445 0.51046 0.0
H693 H 0.04108 0.92453 0.64074 0.0
H694 H 0.15109 0.90318 0.54805 0.0
H695 H 0.08161 0.88416 0.67867 0.0
H696 H 0.14615 0.78955 0.70563 0.0
H697 H 0.10632 0.82812 0.66156 0.0
H698 H 0.18914 0.89728 0.62668 0.0
H699 H 0.22909 0.85867 0.67149 0.0
C700 C 0.10383 0.93115 0.54687 0.0
C701 C 0.07259 0.93778 0.5726 0.0
C702 C 0.12718 0.90774 0.56866 0.0
C703 C 0.11962 0.89032 0.61641 0.0
C704 C 0.08813 0.89672 0.64154 0.0
C705 C 0.06498 0.92011 0.61996 0.0
C706 C 0.15587 0.81312 0.68909 0.0
C707 C 0.19071 0.82131 0.6931 0.0
C708 C 0.13302 0.83522 0.66359 0.0
C709 C 0.14445 0.86596 0.64083 0.0
C710 C 0.17951 0.8737 0.64339 0.0
C711 C 0.20238 0.85163 0.6693 0.0
H712 H 0.31107 0.86377 0.76852 0.0
H713 H 0.33049 0.79126 0.89478 0.0
H714 H 0.35149 0.90357 0.80947 0.0
H715 H 0.37011 0.83133 0.93647 0.0
H716 H 0.39673 0.97928 0.93339 0.0
H717 H 0.35678 0.93985 0.89038 0.0
H718 H 0.42635 0.85615 0.92008 0.0
H719 H 0.46634 0.8955 0.96209 0.0
C720 C 0.32413 0.85625 0.80481 0.0
C721 C 0.31788 0.82423 0.82812 0.0
C722 C 0.34697 0.87921 0.82861 0.0
C723 C 0.36404 0.87062 0.87622 0.0
C724 C 0.35772 0.83857 0.89945 0.0
C725 C 0.33487 0.81569 0.87574 0.0
C726 C 0.40367 0.95255 0.92995 0.0
C727 C 0.43492 0.94062 0.95036 0.0
C728 C 0.38076 0.92995 0.90546 0.0
C729 C 0.38842 0.89486 0.90163 0.0
C730 C 0.41951 0.88294 0.92274 0.0
C731 C 0.44248 0.90554 0.94672 0.0
H732 H 0.39801 0.06547 1.01402 0.0
H733 H 0.45852 0.06553 0.15862 0.0
H734 H 0.35689 0.10395 0.05654 0.0
H735 H 0.41725 0.10352 0.20108 0.0
H736 H 0.3169 0.20483 0.13048 0.0
H737 H 0.35558 0.1641 0.08861 0.0
H738 H 0.35698 0.10429 0.23335 0.0
H739 H 0.31769 0.14495 0.27542 0.0
C740 C 0.40274 0.0739 0.05462 0.0
C741 C 0.4319 0.06286 0.08249 0.0
C742 C 0.3791 0.09584 0.07906 0.0
C743 C 0.38387 0.10684 0.13215 0.0
C744 C 0.41266 0.09524 0.16034 0.0
C745 C 0.43641 0.07357 0.1358 0.0
C746 C 0.32525 0.18295 0.15351 0.0
C747 C 0.31451 0.17846 0.20673 0.0
C748 C 0.34735 0.15951 0.12929 0.0
C749 C 0.35941 0.13102 0.15766 0.0
C750 C 0.34847 0.12627 0.21069 0.0
C751 C 0.32605 0.14962 0.23485 0.0
H752 H 0.89442 0.9531 0.52502 0.0
H753 H 0.96747 0.9271 0.64753 0.0
H754 H 0.85399 0.91215 0.56246 0.0
H755 H 0.92659 0.88785 0.68697 0.0
H756 H 0.86132 0.79367 0.71249 0.0
H757 H 0.90089 0.83389 0.67238 0.0
H758 H 0.81696 0.90224 0.63747 0.0
H759 H 0.77723 0.86165 0.67767 0.0
C760 C 0.90195 0.93844 0.55964 0.0
C761 C 0.93447 0.94285 0.58241 0.0
C762 C 0.87854 0.91536 0.58177 0.0
C763 C 0.88695 0.8964 0.62776 0.0
C764 C 0.91933 0.90137 0.65099 0.0
C765 C 0.94274 0.9242 0.62862 0.0
C766 C 0.85124 0.81729 0.69634 0.0
C767 C 0.81599 0.82423 0.69785 0.0
C768 C 0.87403 0.84051 0.67345 0.0
C769 C 0.86229 0.87149 0.65151 0.0
C770 C 0.82696 0.87846 0.6531 0.0
C771 C 0.80413 0.85517 0.67615 0.0
H772 H 0.95984 0.07934 0.3892 0.0
H773 H 0.89867 0.07418 0.53275 0.0
H774 H 0.91915 0.1189 0.35007 0.0
H775 H 0.85755 0.11426 0.49296 0.0
H776 H 0.77523 0.15274 0.36846 0.0
H777 H 0.8153 0.11501 0.41488 0.0
H778 H 0.89912 0.17877 0.36454 0.0
H779 H 0.85907 0.21708 0.32017 0.0
C780 C 0.93769 0.08665 0.41258 0.0
C781 C 0.93252 0.07343 0.46422 0.0
C782 C 0.91445 0.10958 0.39013 0.0
C783 C 0.88516 0.1198 0.4184 0.0
C784 C 0.87982 0.10667 0.47009 0.0
C785 C 0.90343 0.0839 0.49297 0.0
C786 C 0.80215 0.15898 0.368 0.0
C787 C 0.81394 0.18787 0.34027 0.0
C788 C 0.8251 0.13734 0.39457 0.0
C789 C 0.8604 0.14383 0.39328 0.0
C790 C 0.87212 0.17282 0.36578 0.0
C791 C 0.84917 0.19467 0.33997 0.0
H792 H 0.72211 0.13642 0.23497 0.0
H793 H 0.64881 0.21644 0.20612 0.0
H794 H 0.6853 0.09548 0.18945 0.0
H795 H 0.60964 0.17543 0.16732 0.0
H796 H 0.55639 0.10828 0.05301 0.0
H797 H 0.59608 0.14633 0.09537 0.0
H798 H 0.64087 0.06072 0.17999 0.0
H799 H 0.60418 0.02209 0.13042 0.0
C800 C 0.69747 0.14484 0.22024 0.0
C801 C 0.68813 0.17934 0.22368 0.0
C802 C 0.67607 0.12137 0.1943 0.0
C803 C 0.64419 0.13172 0.1732 0.0
C804 C 0.63432 0.1662 0.18029 0.0
C805 C 0.65644 0.18982 0.20372 0.0
C806 C 0.57541 0.09733 0.07923 0.0
C807 C 0.57708 0.06192 0.0877 0.0
C808 C 0.59784 0.1195 0.10521 0.0
C809 C 0.62167 0.10728 0.14293 0.0
C810 C 0.62349 0.07163 0.15107 0.0
C811 C 0.60202 0.04926 0.12296 0.0
H812 H 0.69054 0.8607 0.76155 0.0
H813 H 0.69262 0.79892 0.90448 0.0
H814 H 0.6522 0.90112 0.80615 0.0
H815 H 0.65452 0.83913 0.94867 0.0
H816 H 0.55229 0.94019 0.88128 0.0
H817 H 0.59319 0.90247 0.83813 0.0
H818 H 0.65174 0.89753 0.98431 0.0
H819 H 0.61056 0.93557 0.02795 0.0
C820 C 0.68269 0.8556 0.80225 0.0
C821 C 0.69435 0.82633 0.82907 0.0
C822 C 0.66076 0.87878 0.82786 0.0
C823 C 0.65025 0.87331 0.88099 0.0
C824 C 0.66243 0.84436 0.90802 0.0
C825 C 0.68418 0.82118 0.88243 0.0
C826 C 0.57392 0.93126 0.90441 0.0
C827 C 0.57795 0.94077 0.95838 0.0
C828 C 0.59751 0.90972 0.87941 0.0
C829 C 0.6258 0.89705 0.90763 0.0
C830 C 0.62998 0.90657 0.9616 0.0
C831 C 0.60635 0.9283 0.98668 0.0
H832 H 0.55066 0.61072 0.97672 0.0
H833 H 0.60985 0.52385 0.92296 0.0
H834 H 0.59165 0.64911 0.93623 0.0
H835 H 0.65025 0.5625 0.87968 0.0
H836 H 0.73303 0.64514 0.8524 0.0
H837 H 0.69427 0.60467 0.89528 0.0
H838 H 0.6083 0.66768 0.84978 0.0
H839 H 0.64693 0.70869 0.80979 0.0
C840 C 0.57251 0.59973 0.95637 0.0
C841 C 0.57691 0.5641 0.95326 0.0
C842 C 0.59586 0.62184 0.93241 0.0
C843 C 0.62416 0.60902 0.90398 0.0
C844 C 0.62893 0.57335 0.90153 0.0
C845 C 0.60563 0.55116 0.92604 0.0
C846 C 0.70584 0.65032 0.85171 0.0
C847 C 0.69316 0.68028 0.82783 0.0
C848 C 0.68357 0.62699 0.87595 0.0
C849 C 0.64808 0.63295 0.87651 0.0
C850 C 0.63547 0.6625 0.85127 0.0
C851 C 0.65768 0.68589 0.8276 0.0
H852 H 0.6962 0.36078 0.26313 0.0
H853 H 0.67849 0.2895 0.13407 0.0
H854 H 0.65818 0.40205 0.22035 0.0
H855 H 0.64162 0.33132 0.09017 0.0
H856 H 0.60612 0.43156 1.00585 0.0
H857 H 0.64547 0.39086 0.04737 0.0
H858 H 0.5946 0.4051 0.19883 0.0
H859 H 0.55463 0.44466 0.15742 0.0
C860 C 0.68391 0.35374 0.22605 0.0
C861 C 0.68972 0.32148 0.20294 0.0
C862 C 0.66237 0.37751 0.20124 0.0
C863 C 0.6468 0.36989 0.15195 0.0
C864 C 0.65341 0.33803 0.12795 0.0
C865 C 0.67448 0.31405 0.15326 0.0
C866 C 0.60289 0.42559 0.04773 0.0
C867 C 0.57662 0.44097 0.07781 0.0
C868 C 0.62561 0.40242 0.07159 0.0
C869 C 0.62308 0.39474 0.12635 0.0
C870 C 0.59738 0.41068 0.15666 0.0
C871 C 0.57438 0.43334 0.1327 0.0
H872 H 0.9654 0.39927 0.45586 0.0
H873 H 0.89805 0.48352 0.41847 0.0
H874 H 0.92542 0.35967 0.41424 0.0
H875 H 0.85862 0.44377 0.37453 0.0
H876 H 0.81684 0.35943 0.25523 0.0
H877 H 0.85756 0.40092 0.29257 0.0
H878 H 0.86475 0.34104 0.43674 0.0
H879 H 0.82438 0.30008 0.40022 0.0
C880 C 0.94218 0.40942 0.43841 0.0
C881 C 0.93517 0.44467 0.4398 0.0
C882 C 0.91933 0.3867 0.41445 0.0
C883 C 0.88907 0.39869 0.39074 0.0
C884 C 0.88205 0.43393 0.39173 0.0
C885 C 0.90468 0.45666 0.41668 0.0
C886 C 0.82722 0.35517 0.2948 0.0
C887 C 0.81726 0.32652 0.32477 0.0
C888 C 0.85032 0.37896 0.31624 0.0
C889 C 0.8643 0.37411 0.3675 0.0
C890 C 0.85459 0.3453 0.397 0.0
C891 C 0.83127 0.32193 0.37607 0.0
H892 H 0.81847 0.64688 0.76807 0.0
H893 H 0.81744 0.70845 0.6249 0.0
H894 H 0.8572 0.60643 0.72444 0.0
H895 H 0.8557 0.66797 0.58145 0.0
H896 H 0.89769 0.57006 0.50367 0.0
H897 H 0.85682 0.60841 0.54729 0.0
H898 H 0.9169 0.60543 0.69206 0.0
H899 H 0.95772 0.56756 0.64876 0.0
C900 C 0.82673 0.65199 0.72759 0.0
C901 C 0.81519 0.68116 0.70034 0.0
C902 C 0.84879 0.62875 0.7025 0.0
C903 C 0.85949 0.63401 0.64946 0.0
C904 C 0.84759 0.66294 0.62206 0.0
C905 C 0.82576 0.68624 0.64718 0.0
C906 C 0.90234 0.57785 0.5446 0.0
C907 C 0.93126 0.5661 0.57235 0.0
C908 C 0.87889 0.59973 0.56964 0.0
C909 C 0.88367 0.60996 0.62312 0.0
C910 C 0.91226 0.59771 0.65106 0.0
C911 C 0.93576 0.5761 0.62601 0.0
H912 H 0.27547 0.35806 0.17435 0.0
H913 H 0.3618 0.29836 0.22794 0.0
H914 H 0.31437 0.39856 0.13216 0.0
H915 H 0.40051 0.33965 0.18898 0.0
H916 H 0.46159 0.39653 0.06582 0.0
H917 H 0.42068 0.35734 0.10486 0.0
H918 H 0.35545 0.44253 0.14719 0.0
H919 H 0.39561 0.48165 0.10464 0.0
C920 C 0.30273 0.35377 0.17769 0.0
C921 C 0.31543 0.32488 0.2046 0.0
C922 C 0.32509 0.37716 0.15382 0.0
C923 C 0.36074 0.37243 0.15672 0.0
C924 C 0.3733 0.3439 0.18477 0.0
C925 C 0.351 0.32038 0.20794 0.0
C926 C 0.43843 0.40696 0.08313 0.0
C927 C 0.4322 0.44236 0.08288 0.0
C928 C 0.41505 0.38444 0.10614 0.0
C929 C 0.38486 0.39665 0.13018 0.0
C930 C 0.37829 0.43207 0.12898 0.0
C931 C 0.40157 0.4546 0.10524 0.0
H932 H 0.46025 0.57104 0.8815 0.0
H933 H 0.39758 0.57019 0.02362 0.0
H934 H 0.42054 0.61028 0.83918 0.0
H935 H 0.35842 0.6109 0.98193 0.0
H936 H 0.27718 0.65597 0.86931 0.0
H937 H 0.31611 0.61587 0.91245 0.0
H938 H 0.40204 0.66837 0.84238 0.0
H939 H 0.36323 0.70816 0.79906 0.0
C940 C 0.43811 0.57942 0.90402 0.0
C941 C 0.4324 0.56767 0.95638 0.0
C942 C 0.41541 0.60225 0.87978 0.0
C943 C 0.3863 0.6141 0.90713 0.0
C944 C 0.38041 0.60217 0.95942 0.0
C945 C 0.40312 0.57915 0.98367 0.0
C946 C 0.30438 0.65895 0.86301 0.0
C947 C 0.31695 0.68515 0.83006 0.0
C948 C 0.32676 0.63603 0.88808 0.0
C949 C 0.36232 0.63872 0.88095 0.0
C950 C 0.37484 0.66504 0.84814 0.0
C951 C 0.35249 0.68793 0.82314 0.0
H952 H 0.19431 0.70567 0.62368 0.0
H953 H 0.1888 0.64989 0.77234 0.0
H954 H 0.1551 0.66531 0.58262 0.0
H955 H 0.1492 0.60926 0.73064 0.0
H956 H 0.10821 0.52559 0.61112 0.0
H957 H 0.1488 0.5641 0.65506 0.0
H958 H 0.09287 0.65104 0.5948 0.0
H959 H 0.05193 0.61297 0.55253 0.0
C960 C 0.1849 0.6847 0.64766 0.0
C961 C 0.19475 0.68109 0.70145 0.0
C962 C 0.16222 0.66167 0.62408 0.0
C963 C 0.14901 0.63421 0.65343 0.0
C964 C 0.1592 0.6301 0.70697 0.0
C965 C 0.18171 0.65345 0.73087 0.0
C966 C 0.1046 0.55293 0.60727 0.0
C967 C 0.077 0.56614 0.57768 0.0
C968 C 0.12774 0.57493 0.63265 0.0
C969 C 0.12409 0.61056 0.62814 0.0
C970 C 0.09661 0.6237 0.59844 0.0
C971 C 0.07322 0.6018 0.57392 0.0
H972 H 0.18966 0.29942 0.40474 0.0
H973 H 0.19083 0.35906 0.2596 0.0
H974 H 0.1514 0.34089 0.44588 0.0
H975 H 0.15221 0.40056 0.30094 0.0
H976 H 0.11024 0.44039 0.51949 0.0
H977 H 0.15064 0.40057 0.47825 0.0
H978 H 0.09237 0.40324 0.33165 0.0
H979 H 0.05198 0.44265 0.37268 0.0
C980 C 0.18183 0.32142 0.38154 0.0
C981 C 0.193 0.32567 0.32852 0.0
C982 C 0.16 0.34528 0.40533 0.0
C983 C 0.14874 0.37399 0.37669 0.0
C984 C 0.16008 0.37843 0.32379 0.0
C985 C 0.18211 0.3546 0.30004 0.0
C986 C 0.10585 0.4322 0.47869 0.0
C987 C 0.07763 0.44441 0.44971 0.0
C988 C 0.12905 0.40947 0.45499 0.0
C989 C 0.12468 0.39875 0.40167 0.0
C990 C 0.09671 0.41133 0.37255 0.0
C991 C 0.07347 0.43385 0.39626 0.0
H992 H 0.02452 0.05934 0.86884 0.0
H993 H 0.92711 0.01725 0.91481 0.0
H994 H 0.04664 0.04819 0.95878 0.0
H995 H 0.9488 0.00676 1.00461 0.0
H996 H 0.00641 0.9686 0.15161 0.0
H997 H 0.98844 0.97348 0.05846 0.0
H998 H 0.03742 0.07201 0.0484 0.0
H999 H 0.05509 0.06735 0.14144 0.0
C1000 C 0.00799 0.0473 0.8979 0.0
C1001 C 0.97397 0.0395 0.88478 0.0
C1002 C 0.02052 0.04123 0.94963 0.0
C1003 C 0.99941 0.0269 0.98928 0.0
C1004 C 0.96588 0.01768 0.97524 0.0
C1005 C 0.95333 0.02396 0.92379 0.0
C1006 C 0.01315 0.99144 0.12971 0.0
C1007 C 0.03226 0.01755 0.15437 0.0
C1008 C 1.00293 0.99418 0.07614 0.0
C1009 C 0.01159 0.02308 0.04565 0.0
C1010 C 0.03085 0.04908 0.0702 0.0
C1011 C 0.04096 0.0464 0.12375 0.0
H1012 H 0.24239 0.7261 0.41775 0.0
H1013 H 0.32972 0.78017 0.35579 0.0
H1014 H 0.21942 0.72086 0.32712 0.0
H1015 H 0.30688 0.77474 0.26505 0.0
H1016 H 0.23407 0.78072 0.1145 0.0
H1017 H 0.25785 0.79178 0.20388 0.0
H1018 H 0.2385 0.68695 0.24754 0.0
H1019 H 0.21541 0.67586 0.15889 0.0
C1020 C 0.25639 0.73734 0.38489 0.0
C1021 C 0.28798 0.75328 0.39389 0.0
C1022 C 0.24344 0.73407 0.33291 0.0
C1023 C 0.26158 0.74699 0.28876 0.0
C1024 C 0.2923 0.7645 0.2981 0.0
C1025 C 0.30545 0.76743 0.35002 0.0
C1026 C 0.23549 0.75996 0.14296 0.0
C1027 C 0.22238 0.72754 0.1298 0.0
C1028 C 0.2489 0.76632 0.1942 0.0
C1029 C 0.24929 0.74043 0.23322 0.0
C1030 C 0.23765 0.70771 0.21902 0.0
C1031 C 0.22455 0.70134 0.16805 0.0
H1032 H 0.50026 0.0462 0.66386 0.0
H1033 H 0.4561 0.94615 0.63943 0.0
H1034 H 0.51725 0.04777 0.57081 0.0
H1035 H 0.47102 0.94888 0.54494 0.0
H1036 H 0.53078 0.95318 0.38625 0.0
H1037 H 0.51683 0.94786 0.48125 0.0
H1038 H 0.49105 0.05535 0.48675 0.0
H1039 H 0.50572 0.06064 0.39285 0.0
C1040 C 0.49431 0.02438 0.63882 0.0
C1041 C 0.47673 0.99604 0.65948 0.0
C1042 C 0.50358 0.02556 0.58501 0.0
C1043 C 0.49512 0.99867 0.55 0.0
C1044 C 0.47813 0.96999 0.57073 0.0
C1045 C 0.46914 0.96864 0.62485 0.0
C1046 C 0.52204 0.97556 0.40795 0.0
C1047 C 0.51976 0.00741 0.38236 0.0
C1048 C 0.51396 0.97254 0.4623 0.0
C1049 C 0.50318 1.00126 0.49196 0.0
C1050 C 0.50016 0.03287 0.46573 0.0
C1051 C 0.50847 0.03591 0.41177 0.0
H1052 H 0.21052 0.28373 0.90273 0.0
H1053 H 0.31711 0.25565 0.89655 0.0
H1054 H 0.20466 0.27002 0.80781 0.0
H1055 H 0.31122 0.2406 0.80257 0.0
H1056 H 0.30105 0.24663 0.62473 0.0
H1057 H 0.3046 0.26406 0.71754 0.0
H1058 H 0.20289 0.22508 0.74504 0.0
H1059 H 0.19821 0.21021 0.65086 0.0
C1060 C 0.23259 0.27432 0.88105 0.0
C1061 C 0.26431 0.27098 0.90678 0.0
C1062 C 0.22926 0.26631 0.82673 0.0
C1063 C 0.2575 0.25433 0.79716 0.0
C1064 C 0.28908 0.25055 0.82346 0.0
C1065 C 0.29249 0.259 0.87746 0.0
C1066 C 0.27908 0.2424 0.6501 0.0
C1067 C 0.24931 0.22695 0.62988 0.0
C1068 C 0.28137 0.25188 0.70384 0.0
C1069 C 0.25421 0.24567 0.73927 0.0
C1070 C 0.22426 0.23057 0.71902 0.0
C1071 C 0.22177 0.22152 0.66499 0.0
H1072 H 0.83771 0.3006 0.87325 0.0
H1073 H 0.74019 0.2624 0.9266 0.0
H1074 H 0.82594 0.27993 0.78329 0.0
H1075 H 0.72821 0.24166 0.8359 0.0
H1076 H 0.73528 0.18224 0.67452 0.0
H1077 H 0.74549 0.20032 0.76674 0.0
H1078 H 0.78869 0.29487 0.70964 0.0
H1079 H 0.77953 0.27635 0.61765 0.0
C1080 C 0.81369 0.28777 0.86572 0.0
C1081 C 0.78974 0.28351 0.90708 0.0
C1082 C 0.80686 0.27603 0.814 0.0
C1083 C 0.77587 0.25963 0.80195 0.0
C1084 C 0.75239 0.25411 0.84374 0.0
C1085 C 0.75927 0.2659 0.89576 0.0
C1086 C 0.74712 0.20683 0.68165 0.0
C1087 C 0.75681 0.22771 0.63849 0.0
C1088 C 0.75265 0.21734 0.7346 0.0
C1089 C 0.76821 0.24893 0.74578 0.0
C1090 C 0.77718 0.27011 0.70261 0.0
C1091 C 0.77154 0.25967 0.64975 0.0
H1092 H 0.70463 0.75744 0.40755 0.0
H1093 H 0.80445 0.80151 0.38188 0.0
H1094 H 0.70277 0.73945 0.31479 0.0
H1095 H 0.80128 0.78602 0.28788 0.0
H1096 H 0.79916 0.7267 0.13048 0.0
H1097 H 0.8034 0.74135 0.22522 0.0
H1098 H 0.6947 0.76136 0.22913 0.0
H1099 H 0.69053 0.74539 0.13526 0.0
C1100 C 0.7263 0.76326 0.38232 0.0
C1101 C 0.75469 0.78107 0.40268 0.0
C1102 C 0.72494 0.75344 0.32857 0.0
C1103 C 0.75168 0.76157 0.29326 0.0
C1104 C 0.78028 0.77899 0.31372 0.0
C1105 C 0.78186 0.7884 0.3677 0.0
C1106 C 0.77626 0.73433 0.15176 0.0
C1107 C 0.7445 0.73471 0.12562 0.0
C1108 C 0.77865 0.74286 0.20605 0.0
C1109 C 0.74937 0.75243 0.2353 0.0
C1110 C 0.71771 0.75333 0.20858 0.0
C1111 C 0.71529 0.74436 0.15459 0.0
H1112 H 0.50685 0.56574 0.64637 0.0
H1113 H 0.53404 0.45885 0.65136 0.0
H1114 H 0.49158 0.56011 0.55247 0.0
H1115 H 0.52008 0.45324 0.55652 0.0
H1116 H 0.46037 0.44781 0.39954 0.0
H1117 H 0.47506 0.4521 0.49383 0.0
H1118 H 0.51535 0.55343 0.46739 0.0
H1119 H 0.49821 0.55025 0.37446 0.0
C1120 C 0.50994 0.5411 0.62703 0.0
C1121 C 0.52178 0.51278 0.65597 0.0
C1122 C 0.50135 0.53785 0.57309 0.0
C1123 C 0.50486 0.50627 0.54648 0.0
C1124 C 0.51661 0.47785 0.5757 0.0
C1125 C 0.52476 0.48104 0.62997 0.0
C1126 C 0.47195 0.4712 0.41395 0.0
C1127 C 0.47786 0.49874 0.37913 0.0
C1128 C 0.48088 0.47346 0.46802 0.0
C1129 C 0.49628 0.5032 0.48857 0.0
C1130 C 0.50293 0.53037 0.45343 0.0
C1131 C 0.49361 0.52829 0.39964 0.0
H1132 H 0.03424 0.46234 0.87516 0.0
H1133 H 0.00478 0.56866 0.88183 0.0
H1134 H 0.02149 0.4566 0.9704 0.0
H1135 H 0.99108 0.5629 0.97615 0.0
H1136 H 1.00066 0.55363 0.15356 0.0
H1137 H 0.01732 0.55642 0.06034 0.0
H1138 H 0.97615 0.45534 0.03398 0.0
H1139 H 0.96164 0.45154 0.12844 0.0
C1140 C 0.02477 0.48438 0.89697 0.0
C1141 C 0.0208 0.51601 0.8713 0.0
C1142 C 0.01736 0.48111 0.95146 0.0
C1143 C 0.00551 0.50936 0.98123 0.0
C1144 C 1.00099 0.5408 0.95501 0.0
C1145 C 0.00871 0.54412 0.90084 0.0
C1146 C 0.99578 0.53164 0.12831 0.0
C1147 C 0.97971 0.50236 0.14878 0.0
C1148 C 0.00485 0.53348 0.07445 0.0
C1149 C 0.9977 0.50629 0.03928 0.0
C1150 C 0.98225 0.4767 0.05987 0.0
C1151 C 0.97348 0.47472 0.11399 0.0
loop_
_geom_bond_atom_site_label_1
_geom_bond_atom_site_label_2
_geom_bond_distance
_geom_bond_site_symmetry_2
_ccdc_geom_bond_type
C0 C2 1.422 . S
C0 C4 1.415 . S
C0 N6 1.369 1_655 S
C1 C2 1.421 . S
C1 C3 1.417 . S
C1 C13 1.422 . S
C2 C0 1.422 . S
C2 C1 1.421 . S
C2 N12 1.359 . S
C3 C1 1.417 . S
C3 C5 1.329 . S
C3 H22 0.930 . S
C4 C0 1.415 . S
C4 C5 1.437 . S
C4 C8 1.413 1_655 S
C5 C3 1.329 . S
C5 C4 1.437 . S
C5 H27 0.929 . S
N6 C0 1.369 1_455 S
N6 C7 1.338 . S
N6 Gd11 2.622 . S
C7 N6 1.338 . S
C7 C9 1.378 . S
C7 H19 0.929 . S
C8 C4 1.413 1_455 S
C8 C9 1.348 . S
C8 H24 0.931 . S
C9 C7 1.378 . S
C9 C8 1.348 . S
C9 H25 0.930 . S
Gd10 N30 2.623 . S
Gd10 N37 2.546 1_655 S
Gd10 O44 2.371 1_545 S
Gd10 O45 2.463 1_655 S
Gd10 O46 2.443 . S
Gd10 O48 2.410 . S
Gd10 O49 2.371 1_655 S
Gd10 O53 2.288 1_645 S
Gd10 C63 2.811 . S
Gd11 N6 2.622 . S
Gd11 N12 2.570 1_455 S
Gd11 O43 2.386 1_455 S
Gd11 O47 2.307 1_465 S
Gd11 O50 2.353 1_565 S
Gd11 O51 2.468 1_455 S
Gd11 O52 2.427 . S
Gd11 O54 2.388 . S
Gd11 C75 2.805 . S
N12 C2 1.359 . S
N12 Gd11 2.570 1_655 S
N12 C14 1.343 . S
C13 C1 1.422 . S
C13 C15 1.321 . S
C13 H21 0.931 . S
C14 N12 1.343 . S
C14 C15 1.390 . S
C14 H16 0.931 . S
C15 C13 1.321 . S
C15 C14 1.390 . S
C15 H17 0.930 . S
H16 C14 0.931 . S
H17 C15 0.930 . S
H18 C41 0.931 . S
H19 C7 0.929 . S
H20 C42 0.930 . S
H21 C13 0.931 . S
H22 C3 0.930 . S
H23 C32 0.929 . S
H24 C8 0.931 . S
H25 C9 0.930 . S
H26 C64 0.930 . S
H27 C5 0.929 . S
H28 C33 0.931 . S
H29 C34 0.930 . S
N30 Gd10 2.623 . S
N30 C31 1.369 1_655 S
N30 C32 1.338 . S
C31 N30 1.369 1_455 S
C31 C35 1.415 . S
C31 C38 1.422 . S
C32 H23 0.929 . S
C32 N30 1.338 . S
C32 C34 1.378 . S
C33 H28 0.931 . S
C33 C34 1.348 . S
C33 C35 1.413 1_655 S
C34 H29 0.930 . S
C34 C32 1.378 . S
C34 C33 1.348 . S
C35 C31 1.415 . S
C35 C33 1.413 1_455 S
C35 C65 1.437 . S
H36 C65 0.929 . S
N37 Gd10 2.546 1_455 S
N37 C38 1.359 . S
N37 C41 1.343 . S
C38 C31 1.422 . S
C38 N37 1.359 . S
C38 C40 1.421 . S
C39 C40 1.422 . S
C39 C42 1.321 . S
C39 H66 0.931 . S
C40 C38 1.421 . S
C40 C39 1.422 . S
C40 C64 1.417 . S
C41 H18 0.931 . S
C41 N37 1.343 . S
C41 C42 1.390 . S
C42 H20 0.930 . S
C42 C39 1.321 . S
C42 C41 1.390 . S
O43 Gd11 2.386 1_655 S
O43 C55 1.265 . S
O44 Gd10 2.371 1_565 S
O44 C55 1.242 . S
O45 Gd10 2.463 1_455 S
O45 C63 1.263 1_455 S
O46 Gd10 2.443 . S
O46 C63 1.252 . S
O47 Gd11 2.307 1_645 S
O47 C56 1.261 . S
O48 Gd10 2.410 . S
O48 C56 1.252 . S
O49 Gd10 2.371 1_455 S
O49 C67 1.265 . S
O50 Gd11 2.353 1_545 S
O50 C67 1.242 . S
O51 Gd11 2.468 1_655 S
O51 C75 1.263 1_655 S
O52 Gd11 2.427 . S
O52 C75 1.252 . S
O53 Gd10 2.288 1_465 S
O53 C68 1.261 . S
O54 Gd11 2.388 . S
O54 C68 1.252 . S
C55 O43 1.265 . S
C55 O44 1.242 . S
C56 O47 1.261 . S
C56 O48 1.252 . S
C57 C60 1.394 . S
C57 C62 1.370 . S
C57 C63 1.500 . S
C58 C61 1.383 . S
C58 C62 1.395 . S
C59 C60 1.396 . S
C59 C61 1.365 . S
C59 H76 0.929 . S
C60 C57 1.394 . S
C60 C59 1.396 . S
C60 H77 0.930 . S
C61 C58 1.383 . S
C61 C59 1.365 . S
C61 H78 0.931 . S
C62 C57 1.370 . S
C62 C58 1.395 . S
C62 H79 0.930 1_645 S
C63 Gd10 2.811 . S
C63 O45 1.263 1_655 S
C63 O46 1.252 . S
C63 C57 1.500 . S
C64 H26 0.930 . S
C64 C40 1.417 . S
C64 C65 1.329 . S
C65 C35 1.437 . S
C65 H36 0.929 . S
C65 C64 1.329 . S
H66 C39 0.931 . S
C67 O49 1.265 . S
C67 O50 1.242 . S
C68 O53 1.261 . S
C68 O54 1.252 . S
C69 C72 1.394 . S
C69 C74 1.370 . S
C69 C75 1.500 . S
C70 C73 1.383 . S
C70 C74 1.395 . S
C71 C72 1.396 . S
C71 C73 1.365 . S
C71 H80 0.929 . S
C72 C69 1.394 . S
C72 C71 1.396 . S
C72 H81 0.930 . S
C73 C70 1.383 . S
C73 C71 1.365 . S
C73 H82 0.931 . S
C74 C69 1.370 . S
C74 C70 1.395 . S
C74 H83 0.930 1_465 S
C75 Gd11 2.805 . S
C75 O51 1.263 1_455 S
C75 O52 1.252 . S
C75 C69 1.500 . S
H76 C59 0.929 . S
H77 C60 0.930 . S
H78 C61 0.931 . S
H79 C62 0.930 1_465 S
H80 C71 0.929 . S
H81 C72 0.930 . S
H82 C73 0.931 . S
H83 C74 0.930 1_645 S
C84 C86 1.422 . S
C84 C88 1.415 . S
C84 N90 1.369 . S
C85 C86 1.421 . S
C85 C87 1.417 . S
C85 C97 1.422 . S
C86 C84 1.422 . S
C86 C85 1.421 . S
C86 N96 1.359 . S
C87 C85 1.417 . S
C87 C89 1.329 . S
C87 H106 0.930 . S
C88 C84 1.415 . S
C88 C89 1.437 . S
C88 C92 1.413 . S
C89 C87 1.329 . S
C89 C88 1.437 . S
C89 H111 0.929 . S
N90 C84 1.369 . S
N90 C91 1.338 . S
N90 Gd95 2.622 . S
C91 N90 1.338 . S
C91 C93 1.378 . S
C91 H103 0.929 . S
C92 C88 1.413 . S
C92 C93 1.348 . S
C92 H108 0.931 . S
C93 C91 1.378 . S
C93 C92 1.348 . S
C93 H109 0.930 . S
Gd94 N114 2.622 . S
Gd94 N121 2.570 . S
Gd94 O128 2.353 . S
Gd94 O129 2.468 . S
Gd94 O130 2.427 . S
Gd94 O132 2.388 . S
Gd94 O133 2.386 . S
Gd94 O137 2.307 . S
Gd94 C147 2.805 . S
Gd95 N90 2.622 . S
Gd95 N96 2.570 . S
Gd95 O127 2.386 . S
Gd95 O131 2.307 . S
Gd95 O134 2.353 . S
Gd95 O135 2.468 . S
Gd95 O136 2.427 . S
Gd95 O138 2.388 . S
Gd95 C159 2.805 . S
N96 C86 1.359 . S
N96 Gd95 2.570 . S
N96 C98 1.343 . S
C97 C85 1.422 . S
C97 C99 1.321 . S
C97 H105 0.931 . S
C98 N96 1.343 . S
C98 C99 1.390 . S
C98 H100 0.931 . S
C99 C97 1.321 . S
C99 C98 1.390 . S
C99 H101 0.930 . S
H100 C98 0.931 . S
H101 C99 0.930 . S
H102 C125 0.931 . S
H103 C91 0.929 . S
H104 C126 0.930 . S
H105 C97 0.931 . S
H106 C87 0.930 . S
H107 C116 0.929 . S
H108 C92 0.931 . S
H109 C93 0.930 . S
H110 C148 0.930 . S
H111 C89 0.929 . S
H112 C117 0.931 . S
H113 C118 0.930 . S
N114 Gd94 2.622 . S
N114 C115 1.369 . S
N114 C116 1.338 . S
C115 N114 1.369 . S
C115 C119 1.415 . S
C115 C122 1.422 . S
C116 H107 0.929 . S
C116 N114 1.338 . S
C116 C118 1.378 . S
C117 H112 0.931 . S
C117 C118 1.348 . S
C117 C119 1.413 . S
C118 H113 0.930 . S
C118 C116 1.378 . S
C118 C117 1.348 . S
C119 C115 1.415 . S
C119 C117 1.413 . S
C119 C149 1.437 . S
H120 C149 0.929 . S
N121 Gd94 2.570 . S
N121 C122 1.359 . S
N121 C125 1.343 . S
C122 C115 1.422 . S
C122 N121 1.359 . S
C122 C124 1.421 . S
C123 C124 1.422 . S
C123 C126 1.321 . S
C123 H150 0.931 . S
C124 C122 1.421 . S
C124 C123 1.422 . S
C124 C148 1.417 . S
C125 H102 0.931 . S
C125 N121 1.343 . S
C125 C126 1.390 . S
C126 H104 0.930 . S
C126 C123 1.321 . S
C126 C125 1.390 . S
O127 Gd95 2.386 . S
O127 C139 1.265 . S
O128 Gd94 2.353 . S
O128 C139 1.242 . S
O129 Gd94 2.468 . S
O129 C147 1.263 . S
O130 Gd94 2.427 . S
O130 C147 1.252 . S
O131 Gd95 2.307 . S
O131 C140 1.261 . S
O132 Gd94 2.388 . S
O132 C140 1.252 . S
O133 Gd94 2.386 . S
O133 C151 1.265 . S
O134 Gd95 2.353 . S
O134 C151 1.242 . S
O135 Gd95 2.468 . S
O135 C159 1.263 . S
O136 Gd95 2.427 . S
O136 C159 1.252 . S
O137 Gd94 2.307 . S
O137 C152 1.261 . S
O138 Gd95 2.388 . S
O138 C152 1.252 . S
C139 O127 1.265 . S
C139 O128 1.242 . S
C140 O131 1.261 . S
C140 O132 1.252 . S
C141 C144 1.398 . S
C141 C146 1.370 1_556 S
C141 C147 1.500 . S
C142 C145 1.383 . S
C142 C146 1.395 . S
C143 C144 1.385 1_554 S
C143 C145 1.365 . S
C143 H160 0.929 . S
C144 C141 1.398 . S
C144 C143 1.385 1_556 S
C144 H161 0.937 . S
C145 C142 1.383 . S
C145 C143 1.365 . S
C145 H162 0.931 . S
C146 C141 1.370 1_554 S
C146 C142 1.395 . S
C146 H163 0.930 1_554 S
C147 Gd94 2.805 . S
C147 O129 1.263 . S
C147 O130 1.252 . S
C147 C141 1.500 . S
C148 H110 0.930 . S
C148 C124 1.417 . S
C148 C149 1.329 . S
C149 C119 1.437 . S
C149 H120 0.929 . S
C149 C148 1.329 . S
H150 C123 0.931 . S
C151 O133 1.265 . S
C151 O134 1.242 . S
C152 O137 1.261 . S
C152 O138 1.252 . S
C153 C156 1.394 . S
C153 C158 1.370 . S
C153 C159 1.500 . S
C154 C157 1.383 . S
C154 C158 1.395 . S
C155 C156 1.396 . S
C155 C157 1.365 . S
C155 H164 0.929 . S
C156 C153 1.394 . S
C156 C155 1.396 . S
C156 H165 0.930 . S
C157 C154 1.383 . S
C157 C155 1.365 . S
C157 H166 0.931 . S
C158 C153 1.370 . S
C158 C154 1.395 . S
C158 H167 0.930 . S
C159 Gd95 2.805 . S
C159 O135 1.263 . S
C159 O136 1.252 . S
C159 C153 1.500 . S
H160 C143 0.929 . S
H161 C144 0.937 . S
H162 C145 0.931 . S
H163 C146 0.930 1_556 S
H164 C155 0.929 . S
H165 C156 0.930 . S
H166 C157 0.931 . S
H167 C158 0.930 . S
C168 C170 1.422 . S
C168 C172 1.415 . S
C168 N174 1.369 . S
C169 C170 1.421 . S
C169 C171 1.417 . S
C169 C181 1.422 . S
C170 C168 1.422 . S
C170 C169 1.421 . S
C170 N180 1.359 . S
C171 C169 1.417 . S
C171 C173 1.329 . S
C171 H190 0.930 . S
C172 C168 1.415 . S
C172 C173 1.437 . S
C172 C176 1.413 . S
C173 C171 1.329 . S
C173 C172 1.437 . S
C173 H195 0.929 . S
N174 C168 1.369 . S
N174 C175 1.338 . S
N174 Gd179 2.622 . S
C175 N174 1.338 . S
C175 C177 1.378 . S
C175 H187 0.929 . S
C176 C172 1.413 . S
C176 C177 1.348 . S
C176 H192 0.931 . S
C177 C175 1.378 . S
C177 C176 1.348 . S
C177 H193 0.930 . S
Gd178 N198 2.622 . S
Gd178 N205 2.570 . S
Gd178 O212 2.353 1_565 S
Gd178 O213 2.468 . S
Gd178 O214 2.427 . S
Gd178 O216 2.388 . S
Gd178 O217 2.386 1_554 S
Gd178 O221 2.307 1_565 S
Gd178 C231 2.805 . S
Gd179 N174 2.622 . S
Gd179 N180 2.570 . S
Gd179 O211 2.386 1_556 S
Gd179 O215 2.307 1_545 S
Gd179 O218 2.353 1_545 S
Gd179 O219 2.468 . S
Gd179 O220 2.427 . S
Gd179 O222 2.388 . S
Gd179 C243 2.805 . S
N180 C170 1.359 . S
N180 Gd179 2.570 . S
N180 C182 1.343 . S
C181 C169 1.422 . S
C181 C183 1.321 . S
C181 H189 0.931 . S
C182 N180 1.343 . S
C182 C183 1.390 . S
C182 H184 0.931 . S
C183 C181 1.321 . S
C183 C182 1.390 . S
C183 H185 0.930 . S
H184 C182 0.931 . S
H185 C183 0.930 . S
H186 C209 0.931 . S
H187 C175 0.929 . S
H188 C210 0.930 . S
H189 C181 0.931 . S
H190 C171 0.930 . S
H191 C200 0.929 . S
H192 C176 0.931 . S
H193 C177 0.930 . S
H194 C232 0.930 . S
H195 C173 0.929 . S
H196 C201 0.931 . S
H197 C202 0.930 . S
N198 Gd178 2.622 . S
N198 C199 1.369 . S
N198 C200 1.338 . S
C199 N198 1.369 . S
C199 C203 1.415 . S
C199 C206 1.422 . S
C200 H191 0.929 . S
C200 N198 1.338 . S
C200 C202 1.378 . S
C201 H196 0.931 . S
C201 C202 1.348 . S
C201 C203 1.413 . S
C202 H197 0.930 . S
C202 C200 1.378 . S
C202 C201 1.348 . S
C203 C199 1.415 . S
C203 C201 1.413 . S
C203 C233 1.437 . S
H204 C233 0.929 . S
N205 Gd178 2.570 . S
N205 C206 1.359 . S
N205 C209 1.343 . S
C206 C199 1.422 . S
C206 N205 1.359 . S
C206 C208 1.421 . S
C207 C208 1.422 . S
C207 C210 1.321 . S
C207 H234 0.931 . S
C208 C206 1.421 . S
C208 C207 1.422 . S
C208 C232 1.417 . S
C209 H186 0.931 . S
C209 N205 1.343 . S
C209 C210 1.390 . S
C210 H188 0.930 . S
C210 C207 1.321 . S
C210 C209 1.390 . S
O211 Gd179 2.386 1_554 S
O211 C223 1.265 . S
O212 Gd178 2.353 1_545 S
O212 C223 1.242 . S
O213 Gd178 2.468 . S
O213 C231 1.263 . S
O214 Gd178 2.427 . S
O214 C231 1.252 . S
O215 Gd179 2.307 1_565 S
O215 C224 1.261 . S
O216 Gd178 2.388 . S
O216 C224 1.252 1_554 S
O217 Gd178 2.386 1_556 S
O217 C235 1.265 . S
O218 Gd179 2.353 1_565 S
O218 C235 1.242 . S
O219 Gd179 2.468 . S
O219 C243 1.263 . S
O220 Gd179 2.427 . S
O220 C243 1.252 . S
O221 Gd178 2.307 1_545 S
O221 C236 1.261 . S
O222 Gd179 2.388 . S
O222 C236 1.252 1_556 S
C223 O211 1.265 . S
C223 O212 1.242 . S
C224 O215 1.261 . S
C224 O216 1.252 1_556 S
C225 C228 1.394 . S
C225 C230 1.370 . S
C225 C231 1.500 . S
C226 C229 1.383 . S
C226 C230 1.395 . S
C227 C228 1.396 . S
C227 C229 1.365 . S
C227 H244 0.929 . S
C228 C225 1.394 . S
C228 C227 1.396 . S
C228 H245 0.930 . S
C229 C226 1.383 . S
C229 C227 1.365 . S
C229 H246 0.931 . S
C230 C225 1.370 . S
C230 C226 1.395 . S
C230 H247 0.930 1_565 S
C231 Gd178 2.805 . S
C231 O213 1.263 . S
C231 O214 1.252 . S
C231 C225 1.500 . S
C232 H194 0.930 . S
C232 C208 1.417 . S
C232 C233 1.329 . S
C233 C203 1.437 . S
C233 H204 0.929 . S
C233 C232 1.329 . S
H234 C207 0.931 . S
C235 O217 1.265 . S
C235 O218 1.242 . S
C236 O221 1.261 . S
C236 O222 1.252 1_554 S
C237 C240 1.394 . S
C237 C242 1.370 . S
C237 C243 1.500 . S
C238 C241 1.383 . S
C238 C242 1.395 . S
C239 C240 1.396 . S
C239 C241 1.365 . S
C239 H248 0.929 . S
C240 C237 1.394 . S
C240 C239 1.396 . S
C240 H249 0.930 . S
C241 C238 1.383 . S
C241 C239 1.365 . S
C241 H250 0.931 . S
C242 C237 1.370 . S
C242 C238 1.395 . S
C242 H251 0.930 1_545 S
C243 Gd179 2.805 . S
C243 O219 1.263 . S
C243 O220 1.252 . S
C243 C237 1.500 . S
H244 C227 0.929 . S
H245 C228 0.930 . S
H246 C229 0.931 . S
H247 C230 0.930 1_545 S
H248 C239 0.929 . S
H249 C240 0.930 . S
H250 C241 0.931 . S
H251 C242 0.930 1_565 S
C252 C254 1.422 . S
C252 C256 1.415 . S
C252 N258 1.369 . S
C253 C254 1.421 . S
C253 C255 1.417 . S
C253 C265 1.422 . S
C254 C252 1.422 . S
C254 C253 1.421 . S
C254 N264 1.359 . S
C255 C253 1.417 . S
C255 C257 1.329 . S
C255 H274 0.930 . S
C256 C252 1.415 . S
C256 C257 1.437 . S
C256 C260 1.413 . S
C257 C255 1.329 . S
C257 C256 1.437 . S
C257 H279 0.929 . S
N258 C252 1.369 . S
N258 C259 1.338 . S
N258 Gd263 2.622 . S
C259 N258 1.338 . S
C259 C261 1.378 . S
C259 H271 0.929 . S
C260 C256 1.413 . S
C260 C261 1.348 . S
C260 H276 0.931 . S
C261 C259 1.378 . S
C261 C260 1.348 . S
C261 H277 0.930 . S
Gd262 N282 2.622 . S
Gd262 N289 2.570 . S
Gd262 O296 2.353 . S
Gd262 O297 2.468 . S
Gd262 O298 2.427 . S
Gd262 O300 2.388 . S
Gd262 O301 2.386 . S
Gd262 O305 2.307 . S
Gd262 C315 2.805 . S
Gd263 N258 2.622 . S
Gd263 N264 2.570 . S
Gd263 O295 2.386 . S
Gd263 O299 2.307 . S
Gd263 O302 2.353 . S
Gd263 O303 2.468 . S
Gd263 O304 2.427 . S
Gd263 O306 2.388 . S
Gd263 C327 2.805 . S
N264 C254 1.359 . S
N264 Gd263 2.570 . S
N264 C266 1.343 . S
C265 C253 1.422 . S
C265 C267 1.321 . S
C265 H273 0.931 . S
C266 N264 1.343 . S
C266 C267 1.390 . S
C266 H268 0.931 . S
C267 C265 1.321 . S
C267 C266 1.390 . S
C267 H269 0.930 . S
H268 C266 0.931 . S
H269 C267 0.930 . S
H270 C293 0.931 . S
H271 C259 0.929 . S
H272 C294 0.930 . S
H273 C265 0.931 . S
H274 C255 0.930 . S
H275 C284 0.929 . S
H276 C260 0.931 . S
H277 C261 0.930 . S
H278 C316 0.930 . S
H279 C257 0.929 . S
H280 C285 0.931 . S
H281 C286 0.930 . S
N282 Gd262 2.622 . S
N282 C283 1.369 . S
N282 C284 1.338 . S
C283 N282 1.369 . S
C283 C287 1.415 . S
C283 C290 1.422 . S
C284 H275 0.929 . S
C284 N282 1.338 . S
C284 C286 1.378 . S
C285 H280 0.931 . S
C285 C286 1.348 . S
C285 C287 1.413 . S
C286 H281 0.930 . S
C286 C284 1.378 . S
C286 C285 1.348 . S
C287 C283 1.415 . S
C287 C285 1.413 . S
C287 C317 1.437 . S
H288 C317 0.929 . S
N289 Gd262 2.570 . S
N289 C290 1.359 . S
N289 C293 1.343 . S
C290 C283 1.422 . S
C290 N289 1.359 . S
C290 C292 1.421 . S
C291 C292 1.422 . S
C291 C294 1.321 . S
C291 H318 0.931 . S
C292 C290 1.421 . S
C292 C291 1.422 . S
C292 C316 1.417 . S
C293 H270 0.931 . S
C293 N289 1.343 . S
C293 C294 1.390 . S
C294 H272 0.930 . S
C294 C291 1.321 . S
C294 C293 1.390 . S
O295 Gd263 2.386 . S
O295 C307 1.265 . S
O296 Gd262 2.353 . S
O296 C307 1.242 . S
O297 Gd262 2.468 . S
O297 C315 1.263 . S
O298 Gd262 2.427 . S
O298 C315 1.252 . S
O299 Gd263 2.307 . S
O299 C308 1.261 . S
O300 Gd262 2.388 . S
O300 C308 1.252 . S
O301 Gd262 2.386 . S
O301 C319 1.265 . S
O302 Gd263 2.353 . S
O302 C319 1.242 . S
O303 Gd263 2.468 . S
O303 C327 1.263 . S
O304 Gd263 2.427 . S
O304 C327 1.252 . S
O305 Gd262 2.307 . S
O305 C320 1.261 . S
O306 Gd263 2.388 . S
O306 C320 1.252 . S
C307 O295 1.265 . S
C307 O296 1.242 . S
C308 O299 1.261 . S
C308 O300 1.252 . S
C309 C312 1.400 . S
C309 C314 1.370 1_554 S
C309 C315 1.500 . S
C310 C313 1.383 . S
C310 C314 1.395 . S
C311 C312 1.380 1_556 S
C311 C313 1.365 . S
C311 H328 0.929 . S
C312 C309 1.400 . S
C312 C311 1.380 1_554 S
C312 H329 0.939 . S
C313 C310 1.383 . S
C313 C311 1.365 . S
C313 H330 0.931 . S
C314 C309 1.370 1_556 S
C314 C310 1.395 . S
C314 H331 0.930 1_556 S
C315 Gd262 2.805 . S
C315 O297 1.263 . S
C315 O298 1.252 . S
C315 C309 1.500 . S
C316 H278 0.930 . S
C316 C292 1.417 . S
C316 C317 1.329 . S
C317 C287 1.437 . S
C317 H288 0.929 . S
C317 C316 1.329 . S
H318 C291 0.931 . S
C319 O301 1.265 . S
C319 O302 1.242 . S
C320 O305 1.261 . S
C320 O306 1.252 . S
C321 C324 1.394 . S
C321 C326 1.370 . S
C321 C327 1.500 . S
C322 C325 1.383 . S
C322 C326 1.395 . S
C323 C324 1.396 . S
C323 C325 1.365 . S
C323 H332 0.929 . S
C324 C321 1.394 . S
C324 C323 1.396 . S
C324 H333 0.930 . S
C325 C322 1.383 . S
C325 C323 1.365 . S
C325 H334 0.931 . S
C326 C321 1.370 . S
C326 C322 1.395 . S
C326 H335 0.930 . S
C327 Gd263 2.805 . S
C327 O303 1.263 . S
C327 O304 1.252 . S
C327 C321 1.500 . S
H328 C311 0.929 . S
H329 C312 0.939 . S
H330 C313 0.931 . S
H331 C314 0.930 1_554 S
H332 C323 0.929 . S
H333 C324 0.930 . S
H334 C325 0.931 . S
H335 C326 0.930 . S
C336 C338 1.422 . S
C336 C340 1.415 . S
C336 N342 1.369 . S
C337 C338 1.421 . S
C337 C339 1.417 . S
C337 C349 1.422 . S
C338 C336 1.422 . S
C338 C337 1.421 . S
C338 N348 1.359 . S
C339 C337 1.417 . S
C339 C341 1.329 . S
C339 H358 0.930 . S
C340 C336 1.415 . S
C340 C341 1.437 . S
C340 C344 1.413 . S
C341 C339 1.329 . S
C341 C340 1.437 . S
C341 H363 0.929 . S
N342 C336 1.369 . S
N342 C343 1.338 . S
N342 Gd347 2.622 . S
C343 N342 1.338 . S
C343 C345 1.378 . S
C343 H355 0.929 . S
C344 C340 1.413 . S
C344 C345 1.348 . S
C344 H360 0.931 . S
C345 C343 1.378 . S
C345 C344 1.348 . S
C345 H361 0.930 . S
Gd346 N366 2.622 . S
Gd346 N373 2.570 . S
Gd346 O380 2.353 . S
Gd346 O381 2.468 . S
Gd346 O382 2.427 . S
Gd346 O384 2.388 . S
Gd346 O385 2.386 . S
Gd346 O389 2.307 . S
Gd346 C399 2.805 . S
Gd347 N342 2.622 . S
Gd347 N348 2.570 . S
Gd347 O379 2.386 . S
Gd347 O383 2.307 . S
Gd347 O386 2.353 . S
Gd347 O387 2.468 . S
Gd347 O388 2.427 . S
Gd347 O390 2.388 . S
Gd347 C411 2.805 . S
N348 C338 1.359 . S
N348 Gd347 2.570 . S
N348 C350 1.343 . S
C349 C337 1.422 . S
C349 C351 1.321 . S
C349 H357 0.931 . S
C350 N348 1.343 . S
C350 C351 1.390 . S
C350 H352 0.931 . S
C351 C349 1.321 . S
C351 C350 1.390 . S
C351 H353 0.930 . S
H352 C350 0.931 . S
H353 C351 0.930 . S
H354 C377 0.931 . S
H355 C343 0.929 . S
H356 C378 0.930 . S
H357 C349 0.931 . S
H358 C339 0.930 . S
H359 C368 0.929 . S
H360 C344 0.931 . S
H361 C345 0.930 . S
H362 C400 0.930 . S
H363 C341 0.929 . S
H364 C369 0.931 . S
H365 C370 0.930 . S
N366 Gd346 2.622 . S
N366 C367 1.369 . S
N366 C368 1.338 . S
C367 N366 1.369 . S
C367 C371 1.415 . S
C367 C374 1.422 . S
C368 H359 0.929 . S
C368 N366 1.338 . S
C368 C370 1.378 . S
C369 H364 0.931 . S
C369 C370 1.348 . S
C369 C371 1.413 . S
C370 H365 0.930 . S
C370 C368 1.378 . S
C370 C369 1.348 . S
C371 C367 1.415 . S
C371 C369 1.413 . S
C371 C401 1.437 . S
H372 C401 0.929 . S
N373 Gd346 2.570 . S
N373 C374 1.359 . S
N373 C377 1.343 . S
C374 C367 1.422 . S
C374 N373 1.359 . S
C374 C376 1.421 . S
C375 C376 1.422 . S
C375 C378 1.321 . S
C375 H402 0.931 . S
C376 C374 1.421 . S
C376 C375 1.422 . S
C376 C400 1.417 . S
C377 H354 0.931 . S
C377 N373 1.343 . S
C377 C378 1.390 . S
C378 H356 0.930 . S
C378 C375 1.321 . S
C378 C377 1.390 . S
O379 Gd347 2.386 . S
O379 C391 1.265 . S
O380 Gd346 2.353 . S
O380 C391 1.242 . S
O381 Gd346 2.468 . S
O381 C399 1.263 . S
O382 Gd346 2.427 . S
O382 C399 1.252 . S
O383 Gd347 2.307 . S
O383 C392 1.261 . S
O384 Gd346 2.388 . S
O384 C392 1.252 . S
O385 Gd346 2.386 . S
O385 C403 1.265 . S
O386 Gd347 2.353 . S
O386 C403 1.242 . S
O387 Gd347 2.468 . S
O387 C411 1.263 . S
O388 Gd347 2.427 . S
O388 C411 1.252 . S
O389 Gd346 2.307 . S
O389 C404 1.261 . S
O390 Gd347 2.388 . S
O390 C404 1.252 . S
C391 O379 1.265 . S
C391 O380 1.242 . S
C392 O383 1.261 . S
C392 O384 1.252 . S
C393 C396 1.394 . S
C393 C398 1.370 . S
C393 C399 1.500 . S
C394 C397 1.383 . S
C394 C398 1.395 . S
C395 C396 1.396 . S
C395 C397 1.365 . S
C395 H412 0.929 . S
C396 C393 1.394 . S
C396 C395 1.396 . S
C396 H413 0.930 . S
C397 C394 1.383 . S
C397 C395 1.365 . S
C397 H414 0.931 . S
C398 C393 1.370 . S
C398 C394 1.395 . S
C398 H415 0.930 . S
C399 Gd346 2.805 . S
C399 O381 1.263 . S
C399 O382 1.252 . S
C399 C393 1.500 . S
C400 H362 0.930 . S
C400 C376 1.417 . S
C400 C401 1.329 . S
C401 C371 1.437 . S
C401 H372 0.929 . S
C401 C400 1.329 . S
H402 C375 0.931 . S
C403 O385 1.265 . S
C403 O386 1.242 . S
C404 O389 1.261 . S
C404 O390 1.252 . S
C405 C408 1.398 . S
C405 C410 1.370 1_554 S
C405 C411 1.500 . S
C406 C409 1.383 . S
C406 C410 1.395 . S
C407 C408 1.385 1_556 S
C407 C409 1.365 . S
C407 H416 0.929 . S
C408 C405 1.398 . S
C408 C407 1.385 1_554 S
C408 H417 0.937 . S
C409 C406 1.383 . S
C409 C407 1.365 . S
C409 H418 0.931 . S
C410 C405 1.370 1_556 S
C410 C406 1.395 . S
C410 H419 0.930 1_556 S
C411 Gd347 2.805 . S
C411 O387 1.263 . S
C411 O388 1.252 . S
C411 C405 1.500 . S
H412 C395 0.929 . S
H413 C396 0.930 . S
H414 C397 0.931 . S
H415 C398 0.930 . S
H416 C407 0.929 . S
H417 C408 0.937 . S
H418 C409 0.931 . S
H419 C410 0.930 1_554 S
C420 C422 1.422 . S
C420 C424 1.415 . S
C420 N426 1.369 . S
C421 C422 1.421 . S
C421 C423 1.417 . S
C421 C433 1.422 . S
C422 C420 1.422 . S
C422 C421 1.421 . S
C422 N432 1.359 . S
C423 C421 1.417 . S
C423 C425 1.329 . S
C423 H442 0.930 . S
C424 C420 1.415 . S
C424 C425 1.437 . S
C424 C428 1.413 . S
C425 C423 1.329 . S
C425 C424 1.437 . S
C425 H447 0.929 . S
N426 C420 1.369 . S
N426 C427 1.338 . S
N426 Gd431 2.622 . S
C427 N426 1.338 . S
C427 C429 1.378 . S
C427 H439 0.929 . S
C428 C424 1.413 . S
C428 C429 1.348 . S
C428 H444 0.931 . S
C429 C427 1.378 . S
C429 C428 1.348 . S
C429 H445 0.930 . S
Gd430 N450 2.622 . S
Gd430 N457 2.570 . S
Gd430 O464 2.353 . S
Gd430 O465 2.468 . S
Gd430 O466 2.427 . S
Gd430 O468 2.388 . S
Gd430 O469 2.386 . S
Gd430 O473 2.307 . S
Gd430 C483 2.805 . S
Gd431 N426 2.622 . S
Gd431 N432 2.570 . S
Gd431 O463 2.386 . S
Gd431 O467 2.307 . S
Gd431 O470 2.353 . S
Gd431 O471 2.468 . S
Gd431 O472 2.427 . S
Gd431 O474 2.388 . S
Gd431 C495 2.805 . S
N432 C422 1.359 . S
N432 Gd431 2.570 . S
N432 C434 1.343 . S
C433 C421 1.422 . S
C433 C435 1.321 . S
C433 H441 0.931 . S
C434 N432 1.343 . S
C434 C435 1.390 . S
C434 H436 0.931 . S
C435 C433 1.321 . S
C435 C434 1.390 . S
C435 H437 0.930 . S
H436 C434 0.931 . S
H437 C435 0.930 . S
H438 C461 0.931 . S
H439 C427 0.929 . S
H440 C462 0.930 . S
H441 C433 0.931 . S
H442 C423 0.930 . S
H443 C452 0.929 . S
H444 C428 0.931 . S
H445 C429 0.930 . S
H446 C484 0.930 . S
H447 C425 0.929 . S
H448 C453 0.931 . S
H449 C454 0.930 . S
N450 Gd430 2.622 . S
N450 C451 1.369 . S
N450 C452 1.338 . S
C451 N450 1.369 . S
C451 C455 1.415 . S
C451 C458 1.422 . S
C452 H443 0.929 . S
C452 N450 1.338 . S
C452 C454 1.378 . S
C453 H448 0.931 . S
C453 C454 1.348 . S
C453 C455 1.413 . S
C454 H449 0.930 . S
C454 C452 1.378 . S
C454 C453 1.348 . S
C455 C451 1.415 . S
C455 C453 1.413 . S
C455 C485 1.437 . S
H456 C485 0.929 . S
N457 Gd430 2.570 . S
N457 C458 1.359 . S
N457 C461 1.343 . S
C458 C451 1.422 . S
C458 N457 1.359 . S
C458 C460 1.421 . S
C459 C460 1.422 . S
C459 C462 1.321 . S
C459 H486 0.931 . S
C460 C458 1.421 . S
C460 C459 1.422 . S
C460 C484 1.417 . S
C461 H438 0.931 . S
C461 N457 1.343 . S
C461 C462 1.390 . S
C462 H440 0.930 . S
C462 C459 1.321 . S
C462 C461 1.390 . S
O463 Gd431 2.386 . S
O463 C475 1.265 . S
O464 Gd430 2.353 . S
O464 C475 1.242 . S
O465 Gd430 2.468 . S
O465 C483 1.263 . S
O466 Gd430 2.427 . S
O466 C483 1.252 . S
O467 Gd431 2.307 . S
O467 C476 1.261 . S
O468 Gd430 2.388 . S
O468 C476 1.252 . S
O469 Gd430 2.386 . S
O469 C487 1.265 . S
O470 Gd431 2.353 . S
O470 C487 1.242 . S
O471 Gd431 2.468 . S
O471 C495 1.263 . S
O472 Gd431 2.427 . S
O472 C495 1.252 . S
O473 Gd430 2.307 . S
O473 C488 1.261 . S
O474 Gd431 2.388 . S
O474 C488 1.252 . S
C475 O463 1.265 . S
C475 O464 1.242 . S
C476 O467 1.261 . S
C476 O468 1.252 . S
C477 C480 1.394 . S
C477 C482 1.370 . S
C477 C483 1.500 . S
C478 C481 1.383 . S
C478 C482 1.395 . S
C479 C480 1.396 . S
C479 C481 1.365 . S
C479 H496 0.929 . S
C480 C477 1.394 . S
C480 C479 1.396 . S
C480 H497 0.930 . S
C481 C478 1.383 . S
C481 C479 1.365 . S
C481 H498 0.931 . S
C482 C477 1.370 . S
C482 C478 1.395 . S
C482 H499 0.930 . S
C483 Gd430 2.805 . S
C483 O465 1.263 . S
C483 O466 1.252 . S
C483 C477 1.500 . S
C484 H446 0.930 . S
C484 C460 1.417 . S
C484 C485 1.329 . S
C485 C455 1.437 . S
C485 H456 0.929 . S
C485 C484 1.329 . S
H486 C459 0.931 . S
C487 O469 1.265 . S
C487 O470 1.242 . S
C488 O473 1.261 . S
C488 O474 1.252 . S
C489 C492 1.400 . S
C489 C494 1.370 1_556 S
C489 C495 1.500 . S
C490 C493 1.383 . S
C490 C494 1.395 . S
C491 C492 1.380 1_554 S
C491 C493 1.365 . S
C491 H500 0.929 . S
C492 C489 1.400 . S
C492 C491 1.380 1_556 S
C492 H501 0.939 . S
C493 C490 1.383 . S
C493 C491 1.365 . S
C493 H502 0.931 . S
C494 C489 1.370 1_554 S
C494 C490 1.395 . S
C494 H503 0.930 1_554 S
C495 Gd431 2.805 . S
C495 O471 1.263 . S
C495 O472 1.252 . S
C495 C489 1.500 . S
H496 C479 0.929 . S
H497 C480 0.930 . S
H498 C481 0.931 . S
H499 C482 0.930 . S
H500 C491 0.929 . S
H501 C492 0.939 . S
H502 C493 0.931 . S
H503 C494 0.930 1_556 S
C504 C506 1.422 . S
C504 C508 1.415 . S
C504 N510 1.369 . S
C505 C506 1.421 . S
C505 C507 1.417 . S
C505 C517 1.422 . S
C506 C504 1.422 . S
C506 C505 1.421 . S
C506 N516 1.359 . S
C507 C505 1.417 . S
C507 C509 1.329 . S
C507 H526 0.930 . S
C508 C504 1.415 . S
C508 C509 1.437 . S
C508 C512 1.413 . S
C509 C507 1.329 . S
C509 C508 1.437 . S
C509 H531 0.929 . S
N510 C504 1.369 . S
N510 C511 1.338 . S
N510 Gd515 2.622 . S
C511 N510 1.338 . S
C511 C513 1.378 . S
C511 H523 0.929 . S
C512 C508 1.413 . S
C512 C513 1.348 . S
C512 H528 0.931 . S
C513 C511 1.378 . S
C513 C512 1.348 . S
C513 H529 0.930 . S
Gd514 N534 2.622 . S
Gd514 N541 2.570 . S
Gd514 O548 2.353 . S
Gd514 O549 2.468 . S
Gd514 O550 2.427 . S
Gd514 O552 2.388 . S
Gd514 O553 2.386 1_554 S
Gd514 O557 2.307 . S
Gd514 C567 2.805 . S
Gd515 N510 2.622 . S
Gd515 N516 2.570 . S
Gd515 O547 2.386 1_556 S
Gd515 O551 2.307 . S
Gd515 O554 2.353 . S
Gd515 O555 2.468 . S
Gd515 O556 2.427 . S
Gd515 O558 2.388 . S
Gd515 C579 2.805 . S
N516 C506 1.359 . S
N516 Gd515 2.570 . S
N516 C518 1.343 . S
C517 C505 1.422 . S
C517 C519 1.321 . S
C517 H525 0.931 . S
C518 N516 1.343 . S
C518 C519 1.390 . S
C518 H520 0.931 . S
C519 C517 1.321 . S
C519 C518 1.390 . S
C519 H521 0.930 . S
H520 C518 0.931 . S
H521 C519 0.930 . S
H522 C545 0.931 . S
H523 C511 0.929 . S
H524 C546 0.930 . S
H525 C517 0.931 . S
H526 C507 0.930 . S
H527 C536 0.929 . S
H528 C512 0.931 . S
H529 C513 0.930 . S
H530 C568 0.930 . S
H531 C509 0.929 . S
H532 C537 0.931 . S
H533 C538 0.930 . S
N534 Gd514 2.622 . S
N534 C535 1.369 . S
N534 C536 1.338 . S
C535 N534 1.369 . S
C535 C539 1.415 . S
C535 C542 1.422 . S
C536 H527 0.929 . S
C536 N534 1.338 . S
C536 C538 1.378 . S
C537 H532 0.931 . S
C537 C538 1.348 . S
C537 C539 1.413 . S
C538 H533 0.930 . S
C538 C536 1.378 . S
C538 C537 1.348 . S
C539 C535 1.415 . S
C539 C537 1.413 . S
C539 C569 1.437 . S
H540 C569 0.929 . S
N541 Gd514 2.570 . S
N541 C542 1.359 . S
N541 C545 1.343 . S
C542 C535 1.422 . S
C542 N541 1.359 . S
C542 C544 1.421 . S
C543 C544 1.422 . S
C543 C546 1.321 . S
C543 H570 0.931 . S
C544 C542 1.421 . S
C544 C543 1.422 . S
C544 C568 1.417 . S
C545 H522 0.931 . S
C545 N541 1.343 . S
C545 C546 1.390 . S
C546 H524 0.930 . S
C546 C543 1.321 . S
C546 C545 1.390 . S
O547 Gd515 2.386 1_554 S
O547 C559 1.265 . S
O548 Gd514 2.353 . S
O548 C559 1.242 . S
O549 Gd514 2.468 . S
O549 C567 1.263 . S
O550 Gd514 2.427 . S
O550 C567 1.252 . S
O551 Gd515 2.307 . S
O551 C560 1.261 . S
O552 Gd514 2.388 . S
O552 C560 1.252 1_554 S
O553 Gd514 2.386 1_556 S
O553 C571 1.265 . S
O554 Gd515 2.353 . S
O554 C571 1.242 . S
O555 Gd515 2.468 . S
O555 C579 1.263 . S
O556 Gd515 2.427 . S
O556 C579 1.252 . S
O557 Gd514 2.307 . S
O557 C572 1.261 . S
O558 Gd515 2.388 . S
O558 C572 1.252 1_556 S
C559 O547 1.265 . S
C559 O548 1.242 . S
C560 O551 1.261 . S
C560 O552 1.252 1_556 S
C561 C564 1.394 . S
C561 C566 1.370 . S
C561 C567 1.500 . S
C562 C565 1.383 . S
C562 C566 1.395 . S
C563 C564 1.396 . S
C563 C565 1.365 . S
C563 H580 0.929 . S
C564 C561 1.394 . S
C564 C563 1.396 . S
C564 H581 0.930 . S
C565 C562 1.383 . S
C565 C563 1.365 . S
C565 H582 0.931 . S
C566 C561 1.370 . S
C566 C562 1.395 . S
C566 H583 0.930 . S
C567 Gd514 2.805 . S
C567 O549 1.263 . S
C567 O550 1.252 . S
C567 C561 1.500 . S
C568 H530 0.930 . S
C568 C544 1.417 . S
C568 C569 1.329 . S
C569 C539 1.437 . S
C569 H540 0.929 . S
C569 C568 1.329 . S
H570 C543 0.931 . S
C571 O553 1.265 . S
C571 O554 1.242 . S
C572 O557 1.261 . S
C572 O558 1.252 1_554 S
C573 C576 1.394 . S
C573 C578 1.370 . S
C573 C579 1.500 . S
C574 C577 1.383 . S
C574 C578 1.395 . S
C575 C576 1.396 . S
C575 C577 1.365 . S
C575 H584 0.929 . S
C576 C573 1.394 . S
C576 C575 1.396 . S
C576 H585 0.930 . S
C577 C574 1.383 . S
C577 C575 1.365 . S
C577 H586 0.931 . S
C578 C573 1.370 . S
C578 C574 1.395 . S
C578 H587 0.930 . S
C579 Gd515 2.805 . S
C579 O555 1.263 . S
C579 O556 1.252 . S
C579 C573 1.500 . S
H580 C563 0.929 . S
H581 C564 0.930 . S
H582 C565 0.931 . S
H583 C566 0.930 . S
H584 C575 0.929 . S
H585 C576 0.930 . S
H586 C577 0.931 . S
H587 C578 0.930 . S
C588 C590 1.422 . S
C588 C592 1.415 . S
C588 N594 1.369 1_455 S
C589 C590 1.421 . S
C589 C591 1.417 . S
C589 C601 1.422 . S
C590 C588 1.422 . S
C590 C589 1.421 . S
C590 N600 1.359 . S
C591 C589 1.417 . S
C591 C593 1.329 . S
C591 H610 0.930 . S
C592 C588 1.415 . S
C592 C593 1.437 . S
C592 C596 1.413 1_455 S
C593 C591 1.329 . S
C593 C592 1.437 . S
C593 H615 0.929 . S
N594 C588 1.369 1_655 S
N594 C595 1.338 . S
N594 Gd599 2.623 . S
C595 N594 1.338 . S
C595 C597 1.378 . S
C595 H607 0.929 . S
C596 C592 1.413 1_655 S
C596 C597 1.348 . S
C596 H612 0.931 . S
C597 C595 1.378 . S
C597 C596 1.348 . S
C597 H613 0.930 . S
Gd598 N618 2.622 . S
Gd598 N625 2.570 1_455 S
Gd598 O632 2.353 . S
Gd598 O633 2.468 1_455 S
Gd598 O634 2.427 . S
Gd598 O636 2.388 . S
Gd598 O637 2.386 1_455 S
Gd598 O641 2.307 1_455 S
Gd598 C651 2.805 . S
Gd599 N594 2.623 . S
Gd599 N600 2.546 1_655 S
Gd599 O631 2.371 1_655 S
Gd599 O635 2.288 1_655 S
Gd599 O638 2.371 . S
Gd599 O639 2.463 1_655 S
Gd599 O640 2.443 . S
Gd599 O642 2.410 . S
Gd599 C663 2.811 . S
N600 C590 1.359 . S
N600 Gd599 2.546 1_455 S
N600 C602 1.343 . S
C601 C589 1.422 . S
C601 C603 1.321 . S
C601 H609 0.931 . S
C602 N600 1.343 . S
C602 C603 1.390 . S
C602 H604 0.931 . S
C603 C601 1.321 . S
C603 C602 1.390 . S
C603 H605 0.930 . S
H604 C602 0.931 . S
H605 C603 0.930 . S
H606 C629 0.931 . S
H607 C595 0.929 . S
H608 C630 0.930 . S
H609 C601 0.931 . S
H610 C591 0.930 . S
H611 C620 0.929 . S
H612 C596 0.931 . S
H613 C597 0.930 . S
H614 C652 0.930 . S
H615 C593 0.929 . S
H616 C621 0.931 . S
H617 C622 0.930 . S
N618 Gd598 2.622 . S
N618 C619 1.369 1_455 S
N618 C620 1.338 . S
C619 N618 1.369 1_655 S
C619 C623 1.415 . S
C619 C626 1.422 . S
C620 H611 0.929 . S
C620 N618 1.338 . S
C620 C622 1.378 . S
C621 H616 0.931 . S
C621 C622 1.348 . S
C621 C623 1.413 1_455 S
C622 H617 0.930 . S
C622 C620 1.378 . S
C622 C621 1.348 . S
C623 C619 1.415 . S
C623 C621 1.413 1_655 S
C623 C653 1.437 . S
H624 C653 0.929 . S
N625 Gd598 2.570 1_655 S
N625 C626 1.359 . S
N625 C629 1.343 . S
C626 C619 1.422 . S
C626 N625 1.359 . S
C626 C628 1.421 . S
C627 C628 1.422 . S
C627 C630 1.321 . S
C627 H654 0.931 . S
C628 C626 1.421 . S
C628 C627 1.422 . S
C628 C652 1.417 . S
C629 H606 0.931 . S
C629 N625 1.343 . S
C629 C630 1.390 . S
C630 H608 0.930 . S
C630 C627 1.321 . S
C630 C629 1.390 . S
O631 Gd599 2.371 1_455 S
O631 C643 1.265 . S
O632 Gd598 2.353 . S
O632 C643 1.242 . S
O633 Gd598 2.468 1_655 S
O633 C651 1.263 1_655 S
O634 Gd598 2.427 . S
O634 C651 1.252 . S
O635 Gd599 2.288 1_455 S
O635 C644 1.261 . S
O636 Gd598 2.388 . S
O636 C644 1.252 . S
O637 Gd598 2.386 1_655 S
O637 C655 1.265 . S
O638 Gd599 2.371 . S
O638 C655 1.242 . S
O639 Gd599 2.463 1_455 S
O639 C663 1.263 1_455 S
O640 Gd599 2.443 . S
O640 C663 1.252 . S
O641 Gd598 2.307 1_655 S
O641 C656 1.261 . S
O642 Gd599 2.410 . S
O642 C656 1.252 . S
C643 O631 1.265 . S
C643 O632 1.242 . S
C644 O635 1.261 . S
C644 O636 1.252 . S
C645 C648 1.394 . S
C645 C650 1.370 . S
C645 C651 1.500 . S
C646 C649 1.383 . S
C646 C650 1.395 . S
C647 C648 1.396 . S
C647 C649 1.365 . S
C647 H664 0.929 . S
C648 C645 1.394 . S
C648 C647 1.396 . S
C648 H665 0.930 . S
C649 C646 1.383 . S
C649 C647 1.365 . S
C649 H666 0.931 . S
C650 C645 1.370 . S
C650 C646 1.395 . S
C650 H667 0.930 1_455 S
C651 Gd598 2.805 . S
C651 O633 1.263 1_455 S
C651 O634 1.252 . S
C651 C645 1.500 . S
C652 H614 0.930 . S
C652 C628 1.417 . S
C652 C653 1.329 . S
C653 C623 1.437 . S
C653 H624 0.929 . S
C653 C652 1.329 . S
H654 C627 0.931 . S
C655 O637 1.265 . S
C655 O638 1.242 . S
C656 O641 1.261 . S
C656 O642 1.252 . S
C657 C660 1.394 . S
C657 C662 1.370 . S
C657 C663 1.500 . S
C658 C661 1.383 . S
C658 C662 1.395 . S
C659 C660 1.396 . S
C659 C661 1.365 . S
C659 H668 0.929 . S
C660 C657 1.394 . S
C660 C659 1.396 . S
C660 H669 0.930 . S
C661 C658 1.383 . S
C661 C659 1.365 . S
C661 H670 0.931 . S
C662 C657 1.370 . S
C662 C658 1.395 . S
C662 H671 0.930 1_655 S
C663 Gd599 2.811 . S
C663 O639 1.263 1_655 S
C663 O640 1.252 . S
C663 C657 1.500 . S
H664 C647 0.929 . S
H665 C648 0.930 . S
H666 C649 0.931 . S
H667 C650 0.930 1_655 S
H668 C659 0.929 . S
H669 C660 0.930 . S
H670 C661 0.931 . S
H671 C662 0.930 1_455 S
H672 C680 0.950 . S
H673 C685 0.950 . S
H674 C682 0.950 . S
H675 C684 0.950 . S
H676 C686 0.950 . S
H677 C688 0.950 . S
H678 C690 0.950 . S
H679 C691 0.950 . S
C680 H672 0.950 . S
C680 C681 1.386 . S
C680 C682 1.391 . S
C681 C680 1.386 . S
C681 C685 1.393 . S
C682 H674 0.950 . S
C682 C680 1.391 . S
C682 C683 1.400 . S
C683 C682 1.400 . S
C683 C684 1.398 . S
C683 C689 1.491 . S
C684 H675 0.950 . S
C684 C683 1.398 . S
C684 C685 1.391 . S
C685 H673 0.950 . S
C685 C681 1.393 . S
C685 C684 1.391 . S
C686 H676 0.950 . S
C686 C687 1.386 . S
C686 C688 1.391 . S
C687 C686 1.386 . S
C687 C691 1.393 . S
C688 H677 0.950 . S
C688 C686 1.391 . S
C688 C689 1.400 . S
C689 C683 1.491 . S
C689 C688 1.400 . S
C689 C690 1.398 . S
C690 H678 0.950 . S
C690 C689 1.398 . S
C690 C691 1.391 . S
C691 H679 0.950 . S
C691 C687 1.393 . S
C691 C690 1.391 . S
H692 C700 0.950 . S
H693 C705 0.950 . S
H694 C702 0.950 . S
H695 C704 0.950 . S
H696 C706 0.950 . S
H697 C708 0.950 . S
H698 C710 0.950 . S
H699 C711 0.950 . S
C700 H692 0.950 . S
C700 C701 1.386 . S
C700 C702 1.391 . S
C701 C700 1.386 . S
C701 C705 1.393 . S
C702 H694 0.950 . S
C702 C700 1.391 . S
C702 C703 1.400 . S
C703 C702 1.400 . S
C703 C704 1.398 . S
C703 C709 1.491 . S
C704 H695 0.950 . S
C704 C703 1.398 . S
C704 C705 1.391 . S
C705 H693 0.950 . S
C705 C701 1.393 . S
C705 C704 1.391 . S
C706 H696 0.950 . S
C706 C707 1.386 . S
C706 C708 1.391 . S
C707 C706 1.386 . S
C707 C711 1.393 . S
C708 H697 0.950 . S
C708 C706 1.391 . S
C708 C709 1.400 . S
C709 C703 1.491 . S
C709 C708 1.400 . S
C709 C710 1.398 . S
C710 H698 0.950 . S
C710 C709 1.398 . S
C710 C711 1.391 . S
C711 H699 0.950 . S
C711 C707 1.393 . S
C711 C710 1.391 . S
H712 C720 0.950 . S
H713 C725 0.950 . S
H714 C722 0.950 . S
H715 C724 0.950 . S
H716 C726 0.950 . S
H717 C728 0.950 . S
H718 C730 0.950 . S
H719 C731 0.950 . S
C720 H712 0.950 . S
C720 C721 1.386 . S
C720 C722 1.391 . S
C721 C720 1.386 . S
C721 C725 1.393 . S
C722 H714 0.950 . S
C722 C720 1.391 . S
C722 C723 1.400 . S
C723 C722 1.400 . S
C723 C724 1.398 . S
C723 C729 1.491 . S
C724 H715 0.950 . S
C724 C723 1.398 . S
C724 C725 1.391 . S
C725 H713 0.950 . S
C725 C721 1.393 . S
C725 C724 1.391 . S
C726 H716 0.950 . S
C726 C727 1.386 . S
C726 C728 1.391 . S
C727 C726 1.386 . S
C727 C731 1.393 . S
C728 H717 0.950 . S
C728 C726 1.391 . S
C728 C729 1.400 . S
C729 C723 1.491 . S
C729 C728 1.400 . S
C729 C730 1.398 . S
C730 H718 0.950 . S
C730 C729 1.398 . S
C730 C731 1.391 . S
C731 H719 0.950 . S
C731 C727 1.393 . S
C731 C730 1.391 . S
H732 C740 0.950 . S
H733 C745 0.950 . S
H734 C742 0.950 . S
H735 C744 0.950 . S
H736 C746 0.950 . S
H737 C748 0.950 . S
H738 C750 0.950 . S
H739 C751 0.950 . S
C740 H732 0.950 . S
C740 C741 1.386 . S
C740 C742 1.391 . S
C741 C740 1.386 . S
C741 C745 1.393 . S
C742 H734 0.950 . S
C742 C740 1.391 . S
C742 C743 1.400 . S
C743 C742 1.400 . S
C743 C744 1.398 . S
C743 C749 1.491 . S
C744 H735 0.950 . S
C744 C743 1.398 . S
C744 C745 1.391 . S
C745 H733 0.950 . S
C745 C741 1.393 . S
C745 C744 1.391 . S
C746 H736 0.950 . S
C746 C747 1.386 . S
C746 C748 1.391 . S
C747 C746 1.386 . S
C747 C751 1.393 . S
C748 H737 0.950 . S
C748 C746 1.391 . S
C748 C749 1.400 . S
C749 C743 1.491 . S
C749 C748 1.400 . S
C749 C750 1.398 . S
C750 H738 0.950 . S
C750 C749 1.398 . S
C750 C751 1.391 . S
C751 H739 0.950 . S
C751 C747 1.393 . S
C751 C750 1.391 . S
H752 C760 0.950 . S
H753 C765 0.950 . S
H754 C762 0.950 . S
H755 C764 0.950 . S
H756 C766 0.950 . S
H757 C768 0.950 . S
H758 C770 0.950 . S
H759 C771 0.950 . S
C760 H752 0.950 . S
C760 C761 1.386 . S
C760 C762 1.391 . S
C761 C760 1.386 . S
C761 C765 1.393 . S
C762 H754 0.950 . S
C762 C760 1.391 . S
C762 C763 1.400 . S
C763 C762 1.400 . S
C763 C764 1.398 . S
C763 C769 1.491 . S
C764 H755 0.950 . S
C764 C763 1.398 . S
C764 C765 1.391 . S
C765 H753 0.950 . S
C765 C761 1.393 . S
C765 C764 1.391 . S
C766 H756 0.950 . S
C766 C767 1.386 . S
C766 C768 1.391 . S
C767 C766 1.386 . S
C767 C771 1.393 . S
C768 H757 0.950 . S
C768 C766 1.391 . S
C768 C769 1.400 . S
C769 C763 1.491 . S
C769 C768 1.400 . S
C769 C770 1.398 . S
C770 H758 0.950 . S
C770 C769 1.398 . S
C770 C771 1.391 . S
C771 H759 0.950 . S
C771 C767 1.393 . S
C771 C770 1.391 . S
H772 C780 0.950 . S
H773 C785 0.950 . S
H774 C782 0.950 . S
H775 C784 0.950 . S
H776 C786 0.950 . S
H777 C788 0.950 . S
H778 C790 0.950 . S
H779 C791 0.950 . S
C780 H772 0.950 . S
C780 C781 1.386 . S
C780 C782 1.391 . S
C781 C780 1.386 . S
C781 C785 1.393 . S
C782 H774 0.950 . S
C782 C780 1.391 . S
C782 C783 1.400 . S
C783 C782 1.400 . S
C783 C784 1.398 . S
C783 C789 1.491 . S
C784 H775 0.950 . S
C784 C783 1.398 . S
C784 C785 1.391 . S
C785 H773 0.950 . S
C785 C781 1.393 . S
C785 C784 1.391 . S
C786 H776 0.950 . S
C786 C787 1.386 . S
C786 C788 1.391 . S
C787 C786 1.386 . S
C787 C791 1.393 . S
C788 H777 0.950 . S
C788 C786 1.391 . S
C788 C789 1.400 . S
C789 C783 1.491 . S
C789 C788 1.400 . S
C789 C790 1.398 . S
C790 H778 0.950 . S
C790 C789 1.398 . S
C790 C791 1.391 . S
C791 H779 0.950 . S
C791 C787 1.393 . S
C791 C790 1.391 . S
H792 C800 0.950 . S
H793 C805 0.950 . S
H794 C802 0.950 . S
H795 C804 0.950 . S
H796 C806 0.950 . S
H797 C808 0.950 . S
H798 C810 0.950 . S
H799 C811 0.950 . S
C800 H792 0.950 . S
C800 C801 1.386 . S
C800 C802 1.391 . S
C801 C800 1.386 . S
C801 C805 1.393 . S
C802 H794 0.950 . S
C802 C800 1.391 . S
C802 C803 1.400 . S
C803 C802 1.400 . S
C803 C804 1.398 . S
C803 C809 1.491 . S
C804 H795 0.950 . S
C804 C803 1.398 . S
C804 C805 1.391 . S
C805 H793 0.950 . S
C805 C801 1.393 . S
C805 C804 1.391 . S
C806 H796 0.950 . S
C806 C807 1.386 . S
C806 C808 1.391 . S
C807 C806 1.386 . S
C807 C811 1.393 . S
C808 H797 0.950 . S
C808 C806 1.391 . S
C808 C809 1.400 . S
C809 C803 1.491 . S
C809 C808 1.400 . S
C809 C810 1.398 . S
C810 H798 0.950 . S
C810 C809 1.398 . S
C810 C811 1.391 . S
C811 H799 0.950 . S
C811 C807 1.393 . S
C811 C810 1.391 . S
H812 C820 0.950 . S
H813 C825 0.950 . S
H814 C822 0.950 . S
H815 C824 0.950 . S
H816 C826 0.950 . S
H817 C828 0.950 . S
H818 C830 0.950 . S
H819 C831 0.950 . S
C820 H812 0.950 . S
C820 C821 1.386 . S
C820 C822 1.391 . S
C821 C820 1.386 . S
C821 C825 1.393 . S
C822 H814 0.950 . S
C822 C820 1.391 . S
C822 C823 1.400 . S
C823 C822 1.400 . S
C823 C824 1.398 . S
C823 C829 1.491 . S
C824 H815 0.950 . S
C824 C823 1.398 . S
C824 C825 1.391 . S
C825 H813 0.950 . S
C825 C821 1.393 . S
C825 C824 1.391 . S
C826 H816 0.950 . S
C826 C827 1.386 . S
C826 C828 1.391 . S
C827 C826 1.386 . S
C827 C831 1.393 . S
C828 H817 0.950 . S
C828 C826 1.391 . S
C828 C829 1.400 . S
C829 C823 1.491 . S
C829 C828 1.400 . S
C829 C830 1.398 . S
C830 H818 0.950 . S
C830 C829 1.398 . S
C830 C831 1.391 . S
C831 H819 0.950 . S
C831 C827 1.393 . S
C831 C830 1.391 . S
H832 C840 0.950 . S
H833 C845 0.950 . S
H834 C842 0.950 . S
H835 C844 0.950 . S
H836 C846 0.950 . S
H837 C848 0.950 . S
H838 C850 0.950 . S
H839 C851 0.950 . S
C840 H832 0.950 . S
C840 C841 1.386 . S
C840 C842 1.391 . S
C841 C840 1.386 . S
C841 C845 1.393 . S
C842 H834 0.950 . S
C842 C840 1.391 . S
C842 C843 1.400 . S
C843 C842 1.400 . S
C843 C844 1.398 . S
C843 C849 1.491 . S
C844 H835 0.950 . S
C844 C843 1.398 . S
C844 C845 1.391 . S
C845 H833 0.950 . S
C845 C841 1.393 . S
C845 C844 1.391 . S
C846 H836 0.950 . S
C846 C847 1.386 . S
C846 C848 1.391 . S
C847 C846 1.386 . S
C847 C851 1.393 . S
C848 H837 0.950 . S
C848 C846 1.391 . S
C848 C849 1.400 . S
C849 C843 1.491 . S
C849 C848 1.400 . S
C849 C850 1.398 . S
C850 H838 0.950 . S
C850 C849 1.398 . S
C850 C851 1.391 . S
C851 H839 0.950 . S
C851 C847 1.393 . S
C851 C850 1.391 . S
H852 C860 0.950 . S
H853 C865 0.950 . S
H854 C862 0.950 . S
H855 C864 0.950 . S
H856 C866 0.950 1_556 S
H857 C868 0.950 . S
H858 C870 0.950 . S
H859 C871 0.950 . S
C860 H852 0.950 . S
C860 C861 1.386 . S
C860 C862 1.391 . S
C861 C860 1.386 . S
C861 C865 1.393 . S
C862 H854 0.950 . S
C862 C860 1.391 . S
C862 C863 1.400 . S
C863 C862 1.400 . S
C863 C864 1.398 . S
C863 C869 1.491 . S
C864 H855 0.950 . S
C864 C863 1.398 . S
C864 C865 1.391 . S
C865 H853 0.950 . S
C865 C861 1.393 . S
C865 C864 1.391 . S
C866 H856 0.950 1_554 S
C866 C867 1.386 . S
C866 C868 1.391 . S
C867 C866 1.386 . S
C867 C871 1.393 . S
C868 H857 0.950 . S
C868 C866 1.391 . S
C868 C869 1.400 . S
C869 C863 1.491 . S
C869 C868 1.400 . S
C869 C870 1.398 . S
C870 H858 0.950 . S
C870 C869 1.398 . S
C870 C871 1.391 . S
C871 H859 0.950 . S
C871 C867 1.393 . S
C871 C870 1.391 . S
H872 C880 0.950 . S
H873 C885 0.950 . S
H874 C882 0.950 . S
H875 C884 0.950 . S
H876 C886 0.950 . S
H877 C888 0.950 . S
H878 C890 0.950 . S
H879 C891 0.950 . S
C880 H872 0.950 . S
C880 C881 1.386 . S
C880 C882 1.391 . S
C881 C880 1.386 . S
C881 C885 1.393 . S
C882 H874 0.950 . S
C882 C880 1.391 . S
C882 C883 1.400 . S
C883 C882 1.400 . S
C883 C884 1.398 . S
C883 C889 1.491 . S
C884 H875 0.950 . S
C884 C883 1.398 . S
C884 C885 1.391 . S
C885 H873 0.950 . S
C885 C881 1.393 . S
C885 C884 1.391 . S
C886 H876 0.950 . S
C886 C887 1.386 . S
C886 C888 1.391 . S
C887 C886 1.386 . S
C887 C891 1.393 . S
C888 H877 0.950 . S
C888 C886 1.391 . S
C888 C889 1.400 . S
C889 C883 1.491 . S
C889 C888 1.400 . S
C889 C890 1.398 . S
C890 H878 0.950 . S
C890 C889 1.398 . S
C890 C891 1.391 . S
C891 H879 0.950 . S
C891 C887 1.393 . S
C891 C890 1.391 . S
H892 C900 0.950 . S
H893 C905 0.950 . S
H894 C902 0.950 . S
H895 C904 0.950 . S
H896 C906 0.950 . S
H897 C908 0.950 . S
H898 C910 0.950 . S
H899 C911 0.950 . S
C900 H892 0.950 . S
C900 C901 1.386 . S
C900 C902 1.391 . S
C901 C900 1.386 . S
C901 C905 1.393 . S
C902 H894 0.950 . S
C902 C900 1.391 . S
C902 C903 1.400 . S
C903 C902 1.400 . S
C903 C904 1.398 . S
C903 C909 1.491 . S
C904 H895 0.950 . S
C904 C903 1.398 . S
C904 C905 1.391 . S
C905 H893 0.950 . S
C905 C901 1.393 . S
C905 C904 1.391 . S
C906 H896 0.950 . S
C906 C907 1.386 . S
C906 C908 1.391 . S
C907 C906 1.386 . S
C907 C911 1.393 . S
C908 H897 0.950 . S
C908 C906 1.391 . S
C908 C909 1.400 . S
C909 C903 1.491 . S
C909 C908 1.400 . S
C909 C910 1.398 . S
C910 H898 0.950 . S
C910 C909 1.398 . S
C910 C911 1.391 . S
C911 H899 0.950 . S
C911 C907 1.393 . S
C911 C910 1.391 . S
H912 C920 0.950 . S
H913 C925 0.950 . S
H914 C922 0.950 . S
H915 C924 0.950 . S
H916 C926 0.950 . S
H917 C928 0.950 . S
H918 C930 0.950 . S
H919 C931 0.950 . S
C920 H912 0.950 . S
C920 C921 1.386 . S
C920 C922 1.391 . S
C921 C920 1.386 . S
C921 C925 1.393 . S
C922 H914 0.950 . S
C922 C920 1.391 . S
C922 C923 1.400 . S
C923 C922 1.400 . S
C923 C924 1.398 . S
C923 C929 1.491 . S
C924 H915 0.950 . S
C924 C923 1.398 . S
C924 C925 1.391 . S
C925 H913 0.950 . S
C925 C921 1.393 . S
C925 C924 1.391 . S
C926 H916 0.950 . S
C926 C927 1.386 . S
C926 C928 1.391 . S
C927 C926 1.386 . S
C927 C931 1.393 . S
C928 H917 0.950 . S
C928 C926 1.391 . S
C928 C929 1.400 . S
C929 C923 1.491 . S
C929 C928 1.400 . S
C929 C930 1.398 . S
C930 H918 0.950 . S
C930 C929 1.398 . S
C930 C931 1.391 . S
C931 H919 0.950 . S
C931 C927 1.393 . S
C931 C930 1.391 . S
H932 C940 0.950 . S
H933 C945 0.950 . S
H934 C942 0.950 . S
H935 C944 0.950 . S
H936 C946 0.950 . S
H937 C948 0.950 . S
H938 C950 0.950 . S
H939 C951 0.950 . S
C940 H932 0.950 . S
C940 C941 1.386 . S
C940 C942 1.391 . S
C941 C940 1.386 . S
C941 C945 1.393 . S
C942 H934 0.950 . S
C942 C940 1.391 . S
C942 C943 1.400 . S
C943 C942 1.400 . S
C943 C944 1.398 . S
C943 C949 1.491 . S
C944 H935 0.950 . S
C944 C943 1.398 . S
C944 C945 1.391 . S
C945 H933 0.950 . S
C945 C941 1.393 . S
C945 C944 1.391 . S
C946 H936 0.950 . S
C946 C947 1.386 . S
C946 C948 1.391 . S
C947 C946 1.386 . S
C947 C951 1.393 . S
C948 H937 0.950 . S
C948 C946 1.391 . S
C948 C949 1.400 . S
C949 C943 1.491 . S
C949 C948 1.400 . S
C949 C950 1.398 . S
C950 H938 0.950 . S
C950 C949 1.398 . S
C950 C951 1.391 . S
C951 H939 0.950 . S
C951 C947 1.393 . S
C951 C950 1.391 . S
H952 C960 0.950 . S
H953 C965 0.950 . S
H954 C962 0.950 . S
H955 C964 0.950 . S
H956 C966 0.950 . S
H957 C968 0.950 . S
H958 C970 0.950 . S
H959 C971 0.950 . S
C960 H952 0.950 . S
C960 C961 1.386 . S
C960 C962 1.391 . S
C961 C960 1.386 . S
C961 C965 1.393 . S
C962 H954 0.950 . S
C962 C960 1.391 . S
C962 C963 1.400 . S
C963 C962 1.400 . S
C963 C964 1.398 . S
C963 C969 1.491 . S
C964 H955 0.950 . S
C964 C963 1.398 . S
C964 C965 1.391 . S
C965 H953 0.950 . S
C965 C961 1.393 . S
C965 C964 1.391 . S
C966 H956 0.950 . S
C966 C967 1.386 . S
C966 C968 1.391 . S
C967 C966 1.386 . S
C967 C971 1.393 . S
C968 H957 0.950 . S
C968 C966 1.391 . S
C968 C969 1.400 . S
C969 C963 1.491 . S
C969 C968 1.400 . S
C969 C970 1.398 . S
C970 H958 0.950 . S
C970 C969 1.398 . S
C970 C971 1.391 . S
C971 H959 0.950 . S
C971 C967 1.393 . S
C971 C970 1.391 . S
H972 C980 0.950 . S
H973 C985 0.950 . S
H974 C982 0.950 . S
H975 C984 0.950 . S
H976 C986 0.950 . S
H977 C988 0.950 . S
H978 C990 0.950 . S
H979 C991 0.950 . S
C980 H972 0.950 . S
C980 C981 1.386 . S
C980 C982 1.391 . S
C981 C980 1.386 . S
C981 C985 1.393 . S
C982 H974 0.950 . S
C982 C980 1.391 . S
C982 C983 1.400 . S
C983 C982 1.400 . S
C983 C984 1.398 . S
C983 C989 1.491 . S
C984 H975 0.950 . S
C984 C983 1.398 . S
C984 C985 1.391 . S
C985 H973 0.950 . S
C985 C981 1.393 . S
C985 C984 1.391 . S
C986 H976 0.950 . S
C986 C987 1.386 . S
C986 C988 1.391 . S
C987 C986 1.386 . S
C987 C991 1.393 . S
C988 H977 0.950 . S
C988 C986 1.391 . S
C988 C989 1.400 . S
C989 C983 1.491 . S
C989 C988 1.400 . S
C989 C990 1.398 . S
C990 H978 0.950 . S
C990 C989 1.398 . S
C990 C991 1.391 . S
C991 H979 0.950 . S
C991 C987 1.393 . S
C991 C990 1.391 . S
H992 C1000 0.950 . S
H993 C1005 0.950 . S
H994 C1002 0.950 . S
H995 C1004 0.950 . S
H996 C1006 0.950 . S
H997 C1008 0.950 . S
H998 C1010 0.950 . S
H999 C1011 0.950 . S
C1000 H992 0.950 . S
C1000 C1001 1.386 1_445 S
C1000 C1002 1.391 . S
C1001 C1000 1.386 1_665 S
C1001 C1005 1.393 . S
C1002 H994 0.950 . S
C1002 C1000 1.391 . S
C1002 C1003 1.366 1_445 S
C1003 C1002 1.366 1_665 S
C1003 C1004 1.437 . S
C1003 C1009 1.488 1_666 S
C1004 H995 0.950 . S
C1004 C1003 1.437 . S
C1004 C1005 1.391 . S
C1005 H993 0.950 . S
C1005 C1001 1.393 . S
C1005 C1004 1.391 . S
C1006 H996 0.950 . S
C1006 C1007 1.386 1_665 S
C1006 C1008 1.391 . S
C1007 C1006 1.386 1_445 S
C1007 C1011 1.393 . S
C1008 H997 0.950 . S
C1008 C1006 1.391 . S
C1008 C1009 1.400 1_665 S
C1009 C1003 1.488 1_444 S
C1009 C1008 1.400 1_445 S
C1009 C1010 1.398 . S
C1010 H998 0.950 . S
C1010 C1009 1.398 . S
C1010 C1011 1.391 . S
C1011 H999 0.950 . S
C1011 C1007 1.393 . S
C1011 C1010 1.391 . S
H1012 C1020 0.950 . S
H1013 C1025 0.950 . S
H1014 C1022 0.950 . S
H1015 C1024 0.950 . S
H1016 C1026 0.950 . S
H1017 C1028 0.950 . S
H1018 C1030 0.950 . S
H1019 C1031 0.950 . S
C1020 H1012 0.950 . S
C1020 C1021 1.386 . S
C1020 C1022 1.391 . S
C1021 C1020 1.386 . S
C1021 C1025 1.393 . S
C1022 H1014 0.950 . S
C1022 C1020 1.391 . S
C1022 C1023 1.400 . S
C1023 C1022 1.400 . S
C1023 C1024 1.398 . S
C1023 C1029 1.491 . S
C1024 H1015 0.950 . S
C1024 C1023 1.398 . S
C1024 C1025 1.391 . S
C1025 H1013 0.950 . S
C1025 C1021 1.393 . S
C1025 C1024 1.391 . S
C1026 H1016 0.950 . S
C1026 C1027 1.386 . S
C1026 C1028 1.391 . S
C1027 C1026 1.386 . S
C1027 C1031 1.393 . S
C1028 H1017 0.950 . S
C1028 C1026 1.391 . S
C1028 C1029 1.400 . S
C1029 C1023 1.491 . S
C1029 C1028 1.400 . S
C1029 C1030 1.398 . S
C1030 H1018 0.950 . S
C1030 C1029 1.398 . S
C1030 C1031 1.391 . S
C1031 H1019 0.950 . S
C1031 C1027 1.393 . S
C1031 C1030 1.391 . S
H1032 C1040 0.950 . S
H1033 C1045 0.950 . S
H1034 C1042 0.950 . S
H1035 C1044 0.950 . S
H1036 C1046 0.950 . S
H1037 C1048 0.950 . S
H1038 C1050 0.950 . S
H1039 C1051 0.950 . S
C1040 H1032 0.950 . S
C1040 C1041 1.386 . S
C1040 C1042 1.391 . S
C1041 C1040 1.386 . S
C1041 C1045 1.393 . S
C1042 H1034 0.950 . S
C1042 C1040 1.391 . S
C1042 C1043 1.400 . S
C1043 C1042 1.400 . S
C1043 C1044 1.398 . S
C1043 C1049 1.491 1_565 S
C1044 H1035 0.950 . S
C1044 C1043 1.398 . S
C1044 C1045 1.391 . S
C1045 H1033 0.950 . S
C1045 C1041 1.393 . S
C1045 C1044 1.391 . S
C1046 H1036 0.950 . S
C1046 C1047 1.386 . S
C1046 C1048 1.391 . S
C1047 C1046 1.386 . S
C1047 C1051 1.393 . S
C1048 H1037 0.950 . S
C1048 C1046 1.391 . S
C1048 C1049 1.400 . S
C1049 C1043 1.491 1_545 S
C1049 C1048 1.400 . S
C1049 C1050 1.398 . S
C1050 H1038 0.950 . S
C1050 C1049 1.398 . S
C1050 C1051 1.391 . S
C1051 H1039 0.950 . S
C1051 C1047 1.393 . S
C1051 C1050 1.391 . S
H1052 C1060 0.950 . S
H1053 C1065 0.950 . S
H1054 C1062 0.950 . S
H1055 C1064 0.950 . S
H1056 C1066 0.950 . S
H1057 C1068 0.950 . S
H1058 C1070 0.950 . S
H1059 C1071 0.950 . S
C1060 H1052 0.950 . S
C1060 C1061 1.386 . S
C1060 C1062 1.391 . S
C1061 C1060 1.386 . S
C1061 C1065 1.393 . S
C1062 H1054 0.950 . S
C1062 C1060 1.391 . S
C1062 C1063 1.400 . S
C1063 C1062 1.400 . S
C1063 C1064 1.398 . S
C1063 C1069 1.491 . S
C1064 H1055 0.950 . S
C1064 C1063 1.398 . S
C1064 C1065 1.391 . S
C1065 H1053 0.950 . S
C1065 C1061 1.393 . S
C1065 C1064 1.391 . S
C1066 H1056 0.950 . S
C1066 C1067 1.386 . S
C1066 C1068 1.391 . S
C1067 C1066 1.386 . S
C1067 C1071 1.393 . S
C1068 H1057 0.950 . S
C1068 C1066 1.391 . S
C1068 C1069 1.400 . S
C1069 C1063 1.491 . S
C1069 C1068 1.400 . S
C1069 C1070 1.398 . S
C1070 H1058 0.950 . S
C1070 C1069 1.398 . S
C1070 C1071 1.391 . S
C1071 H1059 0.950 . S
C1071 C1067 1.393 . S
C1071 C1070 1.391 . S
H1072 C1080 0.950 . S
H1073 C1085 0.950 . S
H1074 C1082 0.950 . S
H1075 C1084 0.950 . S
H1076 C1086 0.950 . S
H1077 C1088 0.950 . S
H1078 C1090 0.950 . S
H1079 C1091 0.950 . S
C1080 H1072 0.950 . S
C1080 C1081 1.386 . S
C1080 C1082 1.391 . S
C1081 C1080 1.386 . S
C1081 C1085 1.393 . S
C1082 H1074 0.950 . S
C1082 C1080 1.391 . S
C1082 C1083 1.400 . S
C1083 C1082 1.400 . S
C1083 C1084 1.398 . S
C1083 C1089 1.491 . S
C1084 H1075 0.950 . S
C1084 C1083 1.398 . S
C1084 C1085 1.391 . S
C1085 H1073 0.950 . S
C1085 C1081 1.393 . S
C1085 C1084 1.391 . S
C1086 H1076 0.950 . S
C1086 C1087 1.386 . S
C1086 C1088 1.391 . S
C1087 C1086 1.386 . S
C1087 C1091 1.393 . S
C1088 H1077 0.950 . S
C1088 C1086 1.391 . S
C1088 C1089 1.400 . S
C1089 C1083 1.491 . S
C1089 C1088 1.400 . S
C1089 C1090 1.398 . S
C1090 H1078 0.950 . S
C1090 C1089 1.398 . S
C1090 C1091 1.391 . S
C1091 H1079 0.950 . S
C1091 C1087 1.393 . S
C1091 C1090 1.391 . S
H1092 C1100 0.950 . S
H1093 C1105 0.950 . S
H1094 C1102 0.950 . S
H1095 C1104 0.950 . S
H1096 C1106 0.950 . S
H1097 C1108 0.950 . S
H1098 C1110 0.950 . S
H1099 C1111 0.950 . S
C1100 H1092 0.950 . S
C1100 C1101 1.386 . S
C1100 C1102 1.391 . S
C1101 C1100 1.386 . S
C1101 C1105 1.393 . S
C1102 H1094 0.950 . S
C1102 C1100 1.391 . S
C1102 C1103 1.400 . S
C1103 C1102 1.400 . S
C1103 C1104 1.398 . S
C1103 C1109 1.491 . S
C1104 H1095 0.950 . S
C1104 C1103 1.398 . S
C1104 C1105 1.391 . S
C1105 H1093 0.950 . S
C1105 C1101 1.393 . S
C1105 C1104 1.391 . S
C1106 H1096 0.950 . S
C1106 C1107 1.386 . S
C1106 C1108 1.391 . S
C1107 C1106 1.386 . S
C1107 C1111 1.393 . S
C1108 H1097 0.950 . S
C1108 C1106 1.391 . S
C1108 C1109 1.400 . S
C1109 C1103 1.491 . S
C1109 C1108 1.400 . S
C1109 C1110 1.398 . S
C1110 H1098 0.950 . S
C1110 C1109 1.398 . S
C1110 C1111 1.391 . S
C1111 H1099 0.950 . S
C1111 C1107 1.393 . S
C1111 C1110 1.391 . S
H1112 C1120 0.950 . S
H1113 C1125 0.950 . S
H1114 C1122 0.950 . S
H1115 C1124 0.950 . S
H1116 C1126 0.950 . S
H1117 C1128 0.950 . S
H1118 C1130 0.950 . S
H1119 C1131 0.950 . S
C1120 H1112 0.950 . S
C1120 C1121 1.386 . S
C1120 C1122 1.391 . S
C1121 C1120 1.386 . S
C1121 C1125 1.393 . S
C1122 H1114 0.950 . S
C1122 C1120 1.391 . S
C1122 C1123 1.400 . S
C1123 C1122 1.400 . S
C1123 C1124 1.398 . S
C1123 C1129 1.491 . S
C1124 H1115 0.950 . S
C1124 C1123 1.398 . S
C1124 C1125 1.391 . S
C1125 H1113 0.950 . S
C1125 C1121 1.393 . S
C1125 C1124 1.391 . S
C1126 H1116 0.950 . S
C1126 C1127 1.386 . S
C1126 C1128 1.391 . S
C1127 C1126 1.386 . S
C1127 C1131 1.393 . S
C1128 H1117 0.950 . S
C1128 C1126 1.391 . S
C1128 C1129 1.400 . S
C1129 C1123 1.491 . S
C1129 C1128 1.400 . S
C1129 C1130 1.398 . S
C1130 H1118 0.950 . S
C1130 C1129 1.398 . S
C1130 C1131 1.391 . S
C1131 H1119 0.950 . S
C1131 C1127 1.393 . S
C1131 C1130 1.391 . S
H1132 C1140 0.950 . S
H1133 C1145 0.950 . S
H1134 C1142 0.950 . S
H1135 C1144 0.950 . S
H1136 C1146 0.950 . S
H1137 C1148 0.950 . S
H1138 C1150 0.950 . S
H1139 C1151 0.950 . S
C1140 H1132 0.950 . S
C1140 C1141 1.386 . S
C1140 C1142 1.391 . S
C1141 C1140 1.386 . S
C1141 C1145 1.393 1_455 S
C1142 H1134 0.950 . S
C1142 C1140 1.391 . S
C1142 C1143 1.400 . S
C1143 C1142 1.400 . S
C1143 C1144 1.398 1_455 S
C1143 C1149 1.489 1_456 S
C1144 H1135 0.950 . S
C1144 C1143 1.398 1_655 S
C1144 C1145 1.391 . S
C1145 H1133 0.950 . S
C1145 C1141 1.393 1_655 S
C1145 C1144 1.391 . S
C1146 H1136 0.950 . S
C1146 C1147 1.386 . S
C1146 C1148 1.391 . S
C1147 C1146 1.386 . S
C1147 C1151 1.393 1_655 S
C1148 H1137 0.950 . S
C1148 C1146 1.391 . S
C1148 C1149 1.408 . S
C1149 C1143 1.489 1_654 S
C1149 C1148 1.408 . S
C1149 C1150 1.393 1_655 S
C1150 H1138 0.950 . S
C1150 C1149 1.393 1_455 S
C1150 C1151 1.391 . S
C1151 H1139 0.950 . S
C1151 C1147 1.393 1_455 S
C1151 C1150 1.391 . S
C681 C67 1.499 . S
C687 C319 1.503 . S
C701 C68 1.505 . S
C707 C151 1.504 . S
C721 C152 1.487 . S
C727 C235 1.498 . S
C741 C236 1.498 . S
C747 C320 1.493 . S
C761 C55 1.497 . S
C767 C475 1.513 . S
C781 C56 1.504 . S
C787 C391 1.497 . S
C801 C392 1.485 . S
C807 C223 1.496 . S
C821 C476 1.487 . S
C827 C224 1.491 . S
C841 C571 1.505 . S
C847 C487 1.504 . S
C861 C403 1.507 . S
C867 C572 1.499 . S
C881 C655 1.498 . S
C887 C404 1.487 . S
C901 C488 1.496 . S
C907 C656 1.500 . S
C921 C307 1.506 . S
C927 C559 1.501 . S
C941 C560 1.502 . S
C947 C139 1.498 . S
C961 C140 1.493 . S
C967 C643 1.489 . S
C981 C308 1.500 . S
C987 C644 1.497 . S
C1001 C58 1.340 1_565 S
C1007 C70 1.340 1_545 S
C1021 C154 1.367 . S
C1027 C142 1.367 . S
C1041 C238 1.371 1_565 S
C1047 C226 1.371 1_545 S
C1061 C310 1.340 . S
C1067 C322 1.340 . S
C1081 C406 1.362 . S
C1087 C394 1.362 . S
C1101 C478 1.329 . S
C1107 C490 1.329 . S
C1121 C574 1.341 . S
C1127 C562 1.341 . S
C1141 C646 1.349 . S
C1147 C658 1.349 . S
