# Generated by pormake.
# Topology pcl, (4)-cn, num edge types: 1
# Building blocks:
#     Node 0, Type 0, BuildingBlock: ICAMEG_clean_sbu_1, # of connection points: 4
#     Node 1, Type 0, BuildingBlock: ICAMEG_clean_sbu_1, # of connection points: 4
#     Node 2, Type 0, BuildingBlock: ICAMEG_clean_sbu_1, # of connection points: 4
#     Node 3, Type 0, BuildingBlock: ICAMEG_clean_sbu_1, # of connection points: 4
#     Node 4, Type 0, BuildingBlock: ICAMEG_clean_sbu_1, # of connection points: 4
#     Node 5, Type 0, BuildingBlock: ICAMEG_clean_sbu_1, # of connection points: 4
#     Node 6, Type 0, BuildingBlock: ICAMEG_clean_sbu_1, # of connection points: 4
#     Node 7, Type 0, BuildingBlock: ICAMEG_clean_sbu_1, # of connection points: 4
#     Node 8, Type 0, BuildingBlock: ICAMEG_clean_sbu_1, # of connection points: 4
#     Node 9, Type 0, BuildingBlock: ICAMEG_clean_sbu_1, # of connection points: 4
#     Node 10, Type 0, BuildingBlock: ICAMEG_clean_sbu_1, # of connection points: 4
#     Node 11, Type 0, BuildingBlock: ICAMEG_clean_sbu_1, # of connection points: 4
#     Node 12, Type 0, BuildingBlock: ICAMEG_clean_sbu_1, # of connection points: 4
#     Node 13, Type 0, BuildingBlock: ICAMEG_clean_sbu_1, # of connection points: 4
#     Node 14, Type 0, BuildingBlock: ICAMEG_clean_sbu_1, # of connection points: 4
#     Node 15, Type 0, BuildingBlock: ICAMEG_clean_sbu_1, # of connection points: 4
#     Edge 16, Type (0, 0), BuildingBlock: XIVTED_clean_linker_0, # of connection points: 2
#     Edge 17, Type (0, 0), BuildingBlock: XIVTED_clean_linker_0, # of connection points: 2
#     Edge 18, Type (0, 0), BuildingBlock: XIVTED_clean_linker_0, # of connection points: 2
#     Edge 19, Type (0, 0), BuildingBlock: XIVTED_clean_linker_0, # of connection points: 2
#     Edge 20, Type (0, 0), BuildingBlock: XIVTED_clean_linker_0, # of connection points: 2
#     Edge 21, Type (0, 0), BuildingBlock: XIVTED_clean_linker_0, # of connection points: 2
#     Edge 22, Type (0, 0), BuildingBlock: XIVTED_clean_linker_0, # of connection points: 2
#     Edge 23, Type (0, 0), BuildingBlock: XIVTED_clean_linker_0, # of connection points: 2
#     Edge 24, Type (0, 0), BuildingBlock: XIVTED_clean_linker_0, # of connection points: 2
#     Edge 25, Type (0, 0), BuildingBlock: XIVTED_clean_linker_0, # of connection points: 2
#     Edge 26, Type (0, 0), BuildingBlock: XIVTED_clean_linker_0, # of connection points: 2
#     Edge 27, Type (0, 0), BuildingBlock: XIVTED_clean_linker_0, # of connection points: 2
#     Edge 28, Type (0, 0), BuildingBlock: XIVTED_clean_linker_0, # of connection points: 2
#     Edge 29, Type (0, 0), BuildingBlock: XIVTED_clean_linker_0, # of connection points: 2
#     Edge 30, Type (0, 0), BuildingBlock: XIVTED_clean_linker_0, # of connection points: 2
#     Edge 31, Type (0, 0), BuildingBlock: XIVTED_clean_linker_0, # of connection points: 2
#     Edge 32, Type (0, 0), BuildingBlock: XIVTED_clean_linker_0, # of connection points: 2
#     Edge 33, Type (0, 0), BuildingBlock: XIVTED_clean_linker_0, # of connection points: 2
#     Edge 34, Type (0, 0), BuildingBlock: XIVTED_clean_linker_0, # of connection points: 2
#     Edge 35, Type (0, 0), BuildingBlock: XIVTED_clean_linker_0, # of connection points: 2
#     Edge 36, Type (0, 0), BuildingBlock: XIVTED_clean_linker_0, # of connection points: 2
#     Edge 37, Type (0, 0), BuildingBlock: XIVTED_clean_linker_0, # of connection points: 2
#     Edge 38, Type (0, 0), BuildingBlock: XIVTED_clean_linker_0, # of connection points: 2
#     Edge 39, Type (0, 0), BuildingBlock: XIVTED_clean_linker_0, # of connection points: 2
#     Edge 40, Type (0, 0), BuildingBlock: XIVTED_clean_linker_0, # of connection points: 2
#     Edge 41, Type (0, 0), BuildingBlock: XIVTED_clean_linker_0, # of connection points: 2
#     Edge 42, Type (0, 0), BuildingBlock: XIVTED_clean_linker_0, # of connection points: 2
#     Edge 43, Type (0, 0), BuildingBlock: XIVTED_clean_linker_0, # of connection points: 2
#     Edge 44, Type (0, 0), BuildingBlock: XIVTED_clean_linker_0, # of connection points: 2
#     Edge 45, Type (0, 0), BuildingBlock: XIVTED_clean_linker_0, # of connection points: 2
#     Edge 46, Type (0, 0), BuildingBlock: XIVTED_clean_linker_0, # of connection points: 2
#     Edge 47, Type (0, 0), BuildingBlock: XIVTED_clean_linker_0, # of connection points: 2
# Relax obj value: 0.091
# Max RMSD: 0.122
# Mean RMSD: 0.117
data_MOF--net-pcl--node1-ICAMEG_clean_sbu_1--edge1-XIVTED_clean_linker_0
_symmetry_space_group_name_H-M    P1
_symmetry_Int_Tables_number       1
_symmetry_cell_setting            triclinic
loop_
_symmetry_equiv_pos_as_xyz
'x, y, z'
_cell_length_a     55.538721
_cell_length_b     43.445169
_cell_length_c     47.072024
_cell_angle_alpha  90.007808
_cell_angle_beta   89.982667
_cell_angle_gamma 89.996772
loop_
_atom_site_label
_atom_site_type_symbol
_atom_site_fract_x
_atom_site_fract_y
_atom_site_fract_z
_atom_type_partial_charge
Co0 Co 0.14075 0.37044 0.11749 0.0
Co1 Co 0.13595 0.29955 0.08447 0.0
O2 O 0.14948 0.34118 0.08744 0.0
C3 C 0.13223 0.40623 0.0648 0.0
O4 O 0.12192 0.38176 0.05386 0.0
C5 C 0.1891 0.28813 0.08179 0.0
O6 O 0.19189 0.30647 0.10372 0.0
O7 O 0.144 0.29059 0.12514 0.0
O8 O 0.1404 0.33689 0.14622 0.0
H9 H 0.08542 0.21007 0.1163 0.0
H10 H 0.18317 0.38275 0.08108 0.0
O11 O 0.14106 0.4053 0.08971 0.0
H12 H 0.21492 0.37688 0.17876 0.0
H13 H 0.14591 0.47112 0.1702 0.0
H14 H 0.10622 0.3697 0.16551 0.0
H15 H 0.17147 0.3708 0.16957 0.0
H16 H 0.15684 0.43386 0.13282 0.0
O17 O 0.16811 0.28296 0.07199 0.0
H18 H 0.1025 0.26238 0.11948 0.0
H19 H 0.14135 0.24809 0.04287 0.0
H20 H 0.09487 0.40617 0.2034 0.0
H21 H 0.22674 0.38927 0.08935 0.0
H22 H 0.11479 0.4573 0.20591 0.0
H23 H 0.24288 0.38624 0.13848 0.0
O24 O 0.10571 0.36418 0.11008 0.0
H25 H 0.15326 0.33914 0.98628 0.0
H26 H 0.09233 0.29099 0.04812 0.0
H27 H 0.08196 0.30335 0.9985 0.0
H28 H 0.11257 0.32755 0.96718 0.0
H29 H 0.16275 0.32673 0.03617 0.0
H30 H 0.12488 0.19554 0.03901 0.0
H31 H 0.09662 0.17626 0.07584 0.0
O32 O 0.10327 0.31491 0.09591 0.0
C33 C 0.14322 0.30784 0.14708 0.0
C34 C 0.09768 0.21823 0.10008 0.0
C35 C 0.11985 0.21006 0.05673 0.0
N36 N 0.1228 0.25833 0.08131 0.0
C37 C 0.10736 0.24785 0.10174 0.0
C38 C 0.12918 0.2398 0.05908 0.0
C39 C 0.10398 0.19926 0.07739 0.0
C40 C 0.19004 0.3817 0.10254 0.0
N41 N 0.17479 0.37653 0.12481 0.0
C42 C 0.21473 0.38529 0.10708 0.0
C43 C 0.22378 0.38355 0.13465 0.0
C44 C 0.20811 0.37828 0.15726 0.0
C45 C 0.18353 0.37479 0.15191 0.0
C46 C 0.13713 0.44889 0.16936 0.0
C47 C 0.11505 0.39185 0.16656 0.0
C48 C 0.1432 0.42773 0.1482 0.0
N49 N 0.13228 0.39956 0.1471 0.0
C50 C 0.10851 0.41243 0.18801 0.0
C51 C 0.11967 0.44112 0.18939 0.0
C52 C 0.09357 0.34029 0.10346 0.0
C53 C 0.13977 0.32857 0.99971 0.0
C54 C 0.10567 0.30175 0.03473 0.0
C55 C 0.09974 0.30856 0.00659 0.0
C56 C 0.11693 0.3221 0.98902 0.0
N57 N 0.12809 0.30821 0.04509 0.0
C58 C 0.14506 0.32139 0.02795 0.0
Co59 Co 0.87539 0.63467 0.61402 0.0
Co60 Co 0.88043 0.70819 0.58743 0.0
O61 O 0.8663 0.66678 0.58681 0.0
C62 C 0.88164 0.60268 0.55895 0.0
O63 O 0.89263 0.62739 0.5495 0.0
C64 C 0.82734 0.72041 0.5837 0.0
O65 O 0.82359 0.6995 0.60335 0.0
O66 O 0.87184 0.7133 0.62858 0.0
O67 O 0.87862 0.66556 0.64506 0.0
H68 H 0.93148 0.79322 0.62743 0.0
H69 H 0.83101 0.62668 0.58 0.0
O70 O 0.87274 0.60232 0.58387 0.0
H71 H 0.80414 0.627 0.67987 0.0
H72 H 0.86926 0.53015 0.6597 0.0
H73 H 0.91252 0.62926 0.65903 0.0
H74 H 0.84721 0.63213 0.66803 0.0
H75 H 0.85775 0.57112 0.62608 0.0
O76 O 0.84872 0.72662 0.57576 0.0
H77 H 0.91378 0.74116 0.62596 0.0
H78 H 0.87631 0.76354 0.55008 0.0
H79 H 0.92448 0.58902 0.69317 0.0
H80 H 0.78776 0.62116 0.59089 0.0
H81 H 0.90278 0.53903 0.69365 0.0
H82 H 0.77408 0.6214 0.64114 0.0
O83 O 0.90999 0.64007 0.60457 0.0
H84 H 0.86406 0.67841 0.48611 0.0
H85 H 0.92459 0.71949 0.55261 0.0
H86 H 0.93549 0.7118 0.50235 0.0
H87 H 0.90508 0.69117 0.46868 0.0
H88 H 0.85405 0.6861 0.53666 0.0
H89 H 0.89341 0.81591 0.55088 0.0
H90 H 0.9213 0.831 0.5897 0.0
O91 O 0.91297 0.69112 0.59803 0.0
C92 C 0.87495 0.6942 0.64886 0.0
C93 C 0.91939 0.78689 0.61037 0.0
C94 C 0.898 0.79964 0.56743 0.0
N95 N 0.89412 0.74927 0.5879 0.0
C96 C 0.90936 0.75744 0.6094 0.0
C97 C 0.8883 0.76998 0.56715 0.0
C98 C 0.91366 0.80809 0.58921 0.0
C99 C 0.8252 0.62648 0.60192 0.0
N100 N 0.84161 0.62958 0.62334 0.0
C101 C 0.80069 0.62349 0.60795 0.0
C102 C 0.79302 0.62367 0.63615 0.0
C103 C 0.80988 0.62684 0.65789 0.0
C104 C 0.83424 0.62982 0.65105 0.0
C105 C 0.87882 0.55186 0.65974 0.0
C106 C 0.90289 0.60765 0.65923 0.0
C107 C 0.87241 0.57513 0.64072 0.0
N108 N 0.88433 0.60266 0.64075 0.0
C109 C 0.90979 0.58491 0.67855 0.0
C110 C 0.89762 0.55686 0.67879 0.0
C111 C 0.92241 0.66451 0.60135 0.0
C112 C 0.87747 0.68743 0.50056 0.0
C113 C 0.91134 0.71026 0.53818 0.0
C114 C 0.91757 0.70609 0.50969 0.0
C115 C 0.90049 0.69456 0.49081 0.0
N116 N 0.88874 0.70318 0.54762 0.0
C117 C 0.87188 0.69194 0.5292 0.0
Co118 Co 0.14014 0.63676 0.90183 0.0
Co119 Co 0.13377 0.71114 0.92432 0.0
O120 O 0.14899 0.67048 0.92727 0.0
C121 C 0.13668 0.60601 0.9579 0.0
O122 O 0.12488 0.63012 0.96736 0.0
C123 C 0.18617 0.72562 0.92703 0.0
O124 O 0.18954 0.70539 0.90669 0.0
O125 O 0.14304 0.71421 0.88331 0.0
O126 O 0.13448 0.66595 0.86976 0.0
H127 H 0.0818 0.79219 0.87918 0.0
H128 H 0.18614 0.63313 0.93327 0.0
O129 O 0.14524 0.60591 0.93282 0.0
H130 H 0.20867 0.62982 0.83197 0.0
H131 H 0.14802 0.53079 0.85942 0.0
H132 H 0.10123 0.62725 0.85959 0.0
H133 H 0.16601 0.633 0.84624 0.0
H134 H 0.15955 0.57382 0.89077 0.0
O135 O 0.16496 0.73104 0.93604 0.0
H136 H 0.10049 0.7409 0.88344 0.0
H137 H 0.1361 0.76848 0.95911 0.0
H138 H 0.0892 0.58492 0.8277 0.0
H139 H 0.22905 0.62966 0.91995 0.0
H140 H 0.11267 0.53625 0.82749 0.0
H141 H 0.24053 0.62807 0.86896 0.0
O142 O 0.10599 0.64091 0.9135 0.0
H143 H 0.14823 0.68844 0.02759 0.0
H144 H 0.08822 0.7215 0.95668 0.0
H145 H 0.07618 0.71632 0.00687 0.0
H146 H 0.10631 0.69975 0.04274 0.0
H147 H 0.15944 0.6936 0.97712 0.0
H148 H 0.11796 0.82015 0.95555 0.0
H149 H 0.09052 0.83224 0.91541 0.0
O150 O 0.10183 0.69233 0.91328 0.0
C151 C 0.13868 0.69415 0.86421 0.0
C152 C 0.09369 0.78718 0.8968 0.0
C153 C 0.11401 0.80289 0.93964 0.0
N154 N 0.11926 0.75164 0.92158 0.0
C155 C 0.10428 0.75815 0.89936 0.0
C156 C 0.12428 0.77361 0.94151 0.0
C157 C 0.0986 0.80965 0.91713 0.0
C158 C 0.19102 0.63214 0.91106 0.0
N159 N 0.17362 0.63313 0.89058 0.0
C160 C 0.21533 0.6303 0.90364 0.0
C161 C 0.22176 0.62947 0.87502 0.0
C162 C 0.20389 0.63047 0.85425 0.0
C163 C 0.17977 0.63235 0.86247 0.0
C164 C 0.13767 0.5519 0.85928 0.0
C165 C 0.11162 0.60622 0.85951 0.0
C166 C 0.14408 0.57632 0.87703 0.0
N167 N 0.13117 0.60311 0.87687 0.0
C168 C 0.10468 0.58229 0.84146 0.0
C169 C 0.11784 0.55498 0.84137 0.0
C170 C 0.09304 0.66511 0.91382 0.0
C171 C 0.13495 0.69576 0.01218 0.0
C172 C 0.10142 0.71417 0.97213 0.0
C173 C 0.09451 0.71135 1.00054 0.0
C174 C 0.11142 0.70207 0.02065 0.0
N175 N 0.12455 0.70797 0.96398 0.0
C176 C 0.14122 0.69885 0.98358 0.0
Co177 Co 0.87166 0.37296 0.3932 0.0
Co178 Co 0.87869 0.30048 0.42296 0.0
O179 O 0.86451 0.34193 0.42232 0.0
C180 C 0.88279 0.40597 0.44694 0.0
O181 O 0.89326 0.38089 0.4564 0.0
C182 C 0.82562 0.28821 0.42715 0.0
O183 O 0.8218 0.3089 0.40731 0.0
O184 O 0.87033 0.29346 0.38202 0.0
O185 O 0.87029 0.34102 0.36301 0.0
H186 H 0.93027 0.21431 0.38603 0.0
H187 H 0.83136 0.38278 0.4334 0.0
O188 O 0.87295 0.40626 0.42254 0.0
H189 H 0.79435 0.38369 0.33819 0.0
H190 H 0.86401 0.47653 0.34595 0.0
H191 H 0.90343 0.37487 0.34266 0.0
H192 H 0.83819 0.37694 0.34371 0.0
H193 H 0.85497 0.43722 0.38221 0.0
O194 O 0.84703 0.28222 0.43515 0.0
H195 H 0.91231 0.26624 0.38566 0.0
H196 H 0.87477 0.24666 0.46218 0.0
H197 H 0.91284 0.41342 0.30581 0.0
H198 H 0.78745 0.3899 0.42886 0.0
H199 H 0.89306 0.46467 0.30733 0.0
H200 H 0.76866 0.39027 0.38098 0.0
O201 O 0.90711 0.3665 0.39762 0.0
H202 H 0.86205 0.33423 0.52317 0.0
H203 H 0.9229 0.2911 0.45812 0.0
H204 H 0.93373 0.30102 0.50807 0.0
H205 H 0.90316 0.32269 0.54101 0.0
H206 H 0.85211 0.32429 0.47294 0.0
H207 H 0.89214 0.19443 0.46323 0.0
H208 H 0.92019 0.178 0.42502 0.0
O209 O 0.91084 0.31735 0.41172 0.0
C210 C 0.86888 0.31187 0.36094 0.0
C211 C 0.91811 0.22122 0.40283 0.0
C212 C 0.89668 0.21005 0.44613 0.0
N213 N 0.89259 0.25952 0.42392 0.0
C214 C 0.90792 0.25061 0.40276 0.0
C215 C 0.88683 0.23962 0.44537 0.0
C216 C 0.91243 0.20085 0.4247 0.0
C217 C 0.82332 0.38316 0.41249 0.0
N218 N 0.83731 0.37946 0.38885 0.0
C219 C 0.79845 0.3871 0.41005 0.0
C220 C 0.78792 0.38727 0.38318 0.0
C221 C 0.80231 0.38355 0.35917 0.0
C222 C 0.82712 0.37963 0.36243 0.0
C223 C 0.87272 0.45426 0.34504 0.0
C224 C 0.89466 0.39707 0.34337 0.0
C225 C 0.86772 0.43194 0.36556 0.0
N226 N 0.87857 0.40371 0.36445 0.0
C227 C 0.9001 0.41883 0.32249 0.0
C228 C 0.88901 0.44759 0.32337 0.0
C229 C 0.91985 0.34296 0.40375 0.0
C230 C 0.87553 0.32475 0.50904 0.0
C231 C 0.90958 0.30076 0.47223 0.0
C232 C 0.91577 0.3062 0.50055 0.0
C233 C 0.8986 0.31832 0.51902 0.0
N234 N 0.88692 0.30717 0.46257 0.0
C235 C 0.86998 0.31897 0.48059 0.0
Co236 Co 0.86546 0.63594 0.89798 0.0
Co237 Co 0.87256 0.67455 0.96152 0.0
O238 O 0.85796 0.67051 0.92344 0.0
C239 C 0.86274 0.6913 0.85745 0.0
O240 O 0.85643 0.71135 0.87693 0.0
C241 C 0.82013 0.68162 0.97513 0.0
O242 O 0.81567 0.65668 0.96026 0.0
O243 O 0.86233 0.63196 0.97208 0.0
O244 O 0.86633 0.6068 0.93081 0.0
H245 H 0.92201 0.63974 0.04494 0.0
H246 H 0.82201 0.67485 0.88813 0.0
O247 O 0.86572 0.66295 0.86339 0.0
H248 H 0.79156 0.56878 0.89671 0.0
H249 H 0.85832 0.57206 0.80901 0.0
H250 H 0.89985 0.58388 0.90095 0.0
H251 H 0.83499 0.57951 0.90048 0.0
H252 H 0.84808 0.61501 0.84109 0.0
O253 O 0.8416 0.69173 0.97711 0.0
H254 H 0.90406 0.63527 0.9972 0.0
H255 H 0.87099 0.72284 0.00663 0.0
H256 H 0.91047 0.54041 0.86965 0.0
H257 H 0.77853 0.66516 0.88389 0.0
H258 H 0.88964 0.5343 0.8233 0.0
H259 H 0.76297 0.61177 0.88822 0.0
O260 O 0.90043 0.64453 0.90182 0.0
H261 H 0.86056 0.78096 0.92223 0.0
H262 H 0.91893 0.70923 0.96521 0.0
H263 H 0.93213 0.76134 0.95154 0.0
H264 H 0.90283 0.79765 0.92996 0.0
H265 H 0.84818 0.72849 0.93593 0.0
H266 H 0.88844 0.72815 0.05455 0.0
H267 H 0.91423 0.68645 0.07396 0.0
O268 O 0.90425 0.65823 0.94755 0.0
C269 C 0.86329 0.60713 0.95764 0.0
C270 C 0.91086 0.65811 0.03668 0.0
C271 C 0.89199 0.70771 0.04209 0.0
N272 N 0.88661 0.67884 0.99906 0.0
C273 C 0.90069 0.65574 0.00964 0.0
C274 C 0.88211 0.70453 0.01497 0.0
C275 C 0.90646 0.68431 0.05297 0.0
C276 C 0.81555 0.65154 0.88956 0.0
N277 N 0.8312 0.62778 0.894 0.0
C278 C 0.79082 0.64619 0.88735 0.0
C279 C 0.78209 0.61625 0.88986 0.0
C280 C 0.79812 0.59213 0.89462 0.0
C281 C 0.82272 0.59837 0.89675 0.0
C282 C 0.86748 0.57443 0.82918 0.0
C283 C 0.89059 0.58125 0.88091 0.0
C284 C 0.8618 0.59874 0.84741 0.0
N285 N 0.87321 0.60179 0.87299 0.0
C286 C 0.89673 0.55664 0.86323 0.0
C287 C 0.88505 0.55325 0.83722 0.0
C288 C 0.91317 0.6507 0.92356 0.0
C289 C 0.87349 0.76537 0.93165 0.0
C290 C 0.9061 0.7248 0.95564 0.0
C291 C 0.91367 0.75433 0.94805 0.0
C292 C 0.89721 0.7747 0.93596 0.0
N293 N 0.88279 0.71581 0.95135 0.0
C294 C 0.86656 0.73566 0.93952 0.0
Co295 Co 0.14881 0.36969 0.39405 0.0
Co296 Co 0.1409 0.33019 0.45684 0.0
O297 O 0.15616 0.33543 0.41966 0.0
C298 C 0.13935 0.31811 0.35319 0.0
O299 O 0.1223 0.30763 0.36992 0.0
C300 C 0.19317 0.32631 0.47288 0.0
O301 O 0.19725 0.35211 0.45915 0.0
O302 O 0.14923 0.37338 0.46784 0.0
O303 O 0.14618 0.399 0.42659 0.0
H304 H 0.08753 0.36122 0.53812 0.0
H305 H 0.19221 0.33143 0.38441 0.0
O306 O 0.15176 0.34152 0.36041 0.0
H307 H 0.2225 0.43717 0.3976 0.0
H308 H 0.1589 0.4322 0.30474 0.0
H309 H 0.1139 0.42136 0.39452 0.0
H310 H 0.17894 0.42637 0.39919 0.0
H311 H 0.16819 0.38993 0.33793 0.0
O312 O 0.17206 0.31485 0.47342 0.0
H313 H 0.10668 0.36703 0.49114 0.0
H314 H 0.14335 0.28205 0.50206 0.0
H315 H 0.10417 0.46413 0.36204 0.0
H316 H 0.23593 0.34125 0.38241 0.0
H317 H 0.12674 0.46974 0.31677 0.0
H318 H 0.25133 0.39443 0.38911 0.0
O319 O 0.11349 0.36122 0.39665 0.0
H320 H 0.15805 0.22602 0.41518 0.0
H321 H 0.09647 0.29152 0.46026 0.0
H322 H 0.08579 0.23888 0.44534 0.0
H323 H 0.11674 0.20568 0.42267 0.0
H324 H 0.16785 0.27896 0.43018 0.0
H325 H 0.12477 0.27547 0.54926 0.0
H326 H 0.09655 0.31518 0.56752 0.0
O327 O 0.10915 0.34437 0.44145 0.0
C328 C 0.14844 0.39836 0.45354 0.0
C329 C 0.09974 0.34373 0.53036 0.0
C330 C 0.12067 0.29562 0.53663 0.0
N331 N 0.12601 0.32483 0.49379 0.0
C332 C 0.1106 0.34685 0.50375 0.0
C333 C 0.1312 0.29952 0.50992 0.0
C334 C 0.10483 0.3179 0.54686 0.0
C335 C 0.19877 0.35467 0.38713 0.0
N336 N 0.18303 0.3783 0.39181 0.0
C337 C 0.22355 0.36007 0.38607 0.0
C338 C 0.23218 0.38991 0.38986 0.0
C339 C 0.21601 0.4139 0.39464 0.0
C340 C 0.19136 0.40763 0.3956 0.0
C341 C 0.14896 0.43003 0.32442 0.0
C342 C 0.1239 0.42376 0.37494 0.0
C343 C 0.15411 0.4061 0.34328 0.0
N344 N 0.1417 0.4033 0.36824 0.0
C345 C 0.11827 0.44797 0.3566 0.0
C346 C 0.13092 0.45109 0.33119 0.0
C347 C 0.10042 0.3535 0.41781 0.0
C348 C 0.14441 0.24025 0.42504 0.0
C349 C 0.10996 0.27734 0.45021 0.0
C350 C 0.10384 0.24748 0.44192 0.0
C351 C 0.12122 0.22886 0.42923 0.0
N352 N 0.13273 0.28835 0.44605 0.0
C353 C 0.14987 0.27022 0.43363 0.0
Co354 Co 0.8645 0.3697 0.11175 0.0
Co355 Co 0.87268 0.33085 0.04854 0.0
O356 O 0.8572 0.33583 0.08566 0.0
C357 C 0.8744 0.31916 0.15399 0.0
O358 O 0.89314 0.31005 0.13921 0.0
C359 C 0.82032 0.32812 0.03339 0.0
O360 O 0.81672 0.35281 0.04892 0.0
O361 O 0.8651 0.37443 0.03802 0.0
O362 O 0.86741 0.39947 0.07963 0.0
H363 H 0.92725 0.36187 0.96839 0.0
H364 H 0.82092 0.33157 0.12069 0.0
O365 O 0.86115 0.34109 0.14508 0.0
H366 H 0.79103 0.43762 0.10846 0.0
H367 H 0.85413 0.43098 0.20177 0.0
H368 H 0.89963 0.42113 0.11224 0.0
H369 H 0.83457 0.42661 0.10705 0.0
H370 H 0.84483 0.3893 0.16795 0.0
O371 O 0.84139 0.31669 0.03134 0.0
H372 H 0.9078 0.36734 0.01524 0.0
H373 H 0.86981 0.28362 1.00253 0.0
H374 H 0.90937 0.46332 0.14535 0.0
H375 H 0.77723 0.34159 0.12251 0.0
H376 H 0.88655 0.46843 0.1905 0.0
H377 H 0.76203 0.39494 0.11629 0.0
O378 O 0.89977 0.36111 0.10924 0.0
H379 H 0.85349 0.22643 0.08837 0.0
H380 H 0.91647 0.29103 0.04492 0.0
H381 H 0.92616 0.23783 0.05907 0.0
H382 H 0.8945 0.20508 0.08091 0.0
H383 H 0.84469 0.27991 0.07416 0.0
H384 H 0.88868 0.27738 0.95545 0.0
H385 H 0.91771 0.31663 0.93815 0.0
O386 O 0.90454 0.3439 0.06458 0.0
C387 C 0.86565 0.39922 0.05263 0.0
C388 C 0.91468 0.34457 0.97572 0.0
C389 C 0.893 0.29718 0.96844 0.0
N390 N 0.8878 0.32574 0.01168 0.0
C391 C 0.90366 0.34751 1.00226 0.0
C392 C 0.88232 0.30088 0.99509 0.0
C393 C 0.9093 0.3192 0.95875 0.0
C394 C 0.81445 0.35487 0.11819 0.0
N395 N 0.83029 0.37848 0.11385 0.0
C396 C 0.78969 0.3604 0.11915 0.0
C397 C 0.78117 0.39032 0.11562 0.0
C398 C 0.79743 0.41428 0.1112 0.0
C399 C 0.82207 0.40789 0.11034 0.0
C400 C 0.86418 0.42903 0.18214 0.0
C401 C 0.88951 0.42331 0.13176 0.0
C402 C 0.85903 0.40543 0.16293 0.0
N403 N 0.87157 0.4029 0.13804 0.0
C404 C 0.89516 0.4472 0.15046 0.0
C405 C 0.88236 0.45004 0.1758 0.0
C406 C 0.91303 0.35301 0.08836 0.0
C407 C 0.86744 0.24046 0.07887 0.0
C408 C 0.90268 0.27705 0.05463 0.0
C409 C 0.90823 0.24687 0.06248 0.0
C410 C 0.89046 0.22851 0.0747 0.0
N411 N 0.88007 0.28862 0.05878 0.0
C412 C 0.86255 0.27074 0.07074 0.0
Co413 Co 0.14918 0.62991 0.61552 0.0
Co414 Co 0.14663 0.67139 0.55211 0.0
O415 O 0.15919 0.66453 0.59098 0.0
C416 C 0.14859 0.68547 0.65557 0.0
O417 O 0.1554 0.70518 0.63605 0.0
C418 C 0.20077 0.68117 0.5473 0.0
O419 O 0.20407 0.673 0.57382 0.0
O420 O 0.15165 0.62715 0.54166 0.0
O421 O 0.15087 0.60117 0.58276 0.0
H422 H 0.09446 0.64665 0.46797 0.0
H423 H 0.19141 0.668 0.63317 0.0
O424 O 0.14633 0.65691 0.64999 0.0
H425 H 0.22231 0.56213 0.62472 0.0
H426 H 0.14873 0.56576 0.70471 0.0
H427 H 0.11509 0.57795 0.60843 0.0
H428 H 0.17969 0.5735 0.61487 0.0
H429 H 0.16166 0.60877 0.67411 0.0
O430 O 0.17974 0.68111 0.53643 0.0
H431 H 0.11077 0.63922 0.51622 0.0
H432 H 0.1557 0.71762 0.50624 0.0
H433 H 0.10183 0.53446 0.63824 0.0
H434 H 0.23398 0.65758 0.64378 0.0
H435 H 0.11868 0.52816 0.68676 0.0
H436 H 0.24979 0.60431 0.63946 0.0
O437 O 0.11455 0.63822 0.60773 0.0
H438 H 0.16976 0.77436 0.59329 0.0
H439 H 0.10628 0.71572 0.54416 0.0
H440 H 0.09914 0.77003 0.55651 0.0
H441 H 0.13109 0.79985 0.58112 0.0
H442 H 0.1759 0.71992 0.58109 0.0
H443 H 0.14004 0.7257 0.4578 0.0
H444 H 0.10912 0.69014 0.43841 0.0
O445 O 0.11314 0.66244 0.56564 0.0
C446 C 0.1521 0.6021 0.55581 0.0
C447 C 0.10788 0.66235 0.47621 0.0
C448 C 0.13349 0.70669 0.47049 0.0
N449 N 0.13405 0.67806 0.51412 0.0
C450 C 0.11713 0.65831 0.50355 0.0
C451 C 0.14235 0.70193 0.49791 0.0
C452 C 0.11613 0.68674 0.45963 0.0
C453 C 0.19792 0.64472 0.63169 0.0
N454 N 0.18288 0.62143 0.62363 0.0
C455 C 0.22217 0.63897 0.63751 0.0
C456 C 0.23104 0.6091 0.63502 0.0
C457 C 0.21564 0.58544 0.62671 0.0
C458 C 0.19152 0.59207 0.62103 0.0
C459 C 0.1413 0.56822 0.68358 0.0
C460 C 0.12263 0.57525 0.62945 0.0
C461 C 0.14851 0.59256 0.66617 0.0
N462 N 0.13928 0.59573 0.6394 0.0
C463 C 0.115 0.55063 0.64626 0.0
C464 C 0.12444 0.54713 0.6735 0.0
C465 C 0.10296 0.65048 0.58729 0.0
C466 C 0.15574 0.76167 0.58244 0.0
C467 C 0.1202 0.72838 0.55508 0.0
C468 C 0.11609 0.75922 0.56191 0.0
C469 C 0.13402 0.77594 0.57567 0.0
N470 N 0.14159 0.71451 0.56165 0.0
C471 C 0.1592 0.73078 0.57526 0.0
Co472 Co 0.64147 0.87489 0.11715 0.0
Co473 Co 0.63346 0.80239 0.08776 0.0
O474 O 0.64782 0.84377 0.0878 0.0
C475 C 0.62887 0.908 0.06398 0.0
O476 O 0.61806 0.88295 0.05501 0.0
C477 C 0.68632 0.78961 0.0809 0.0
O478 O 0.69107 0.81039 0.10037 0.0
O479 O 0.64313 0.79535 0.1283 0.0
O480 O 0.64342 0.84292 0.14733 0.0
H481 H 0.58284 0.71655 0.12709 0.0
H482 H 0.68085 0.88452 0.07569 0.0
O483 O 0.63959 0.90823 0.08787 0.0
H484 H 0.72008 0.88504 0.16966 0.0
H485 H 0.65062 0.9784 0.16415 0.0
H486 H 0.6109 0.877 0.1687 0.0
H487 H 0.6761 0.87857 0.16556 0.0
H488 H 0.65865 0.93904 0.1276 0.0
O489 O 0.66458 0.78384 0.07411 0.0
H490 H 0.60101 0.76835 0.12661 0.0
H491 H 0.63578 0.74856 0.04834 0.0
H492 H 0.60251 0.91561 0.20585 0.0
H493 H 0.72488 0.89138 0.07881 0.0
H494 H 0.62245 0.96673 0.20371 0.0
H495 H 0.74477 0.89156 0.12606 0.0
O496 O 0.60592 0.86872 0.11382 0.0
H497 H 0.64698 0.83604 0.9869 0.0
H498 H 0.58809 0.79334 0.05462 0.0
H499 H 0.5757 0.80335 0.0052 0.0
H500 H 0.60527 0.82481 0.97092 0.0
H501 H 0.6585 0.82602 0.03664 0.0
H502 H 0.61818 0.69646 0.0481 0.0
H503 H 0.59141 0.68019 0.08762 0.0
O504 O 0.60177 0.81943 0.1004 0.0
C505 C 0.64501 0.81376 0.14934 0.0
C506 C 0.59444 0.72338 0.10972 0.0
C507 C 0.6143 0.71209 0.06541 0.0
N508 N 0.61937 0.76152 0.08744 0.0
C509 C 0.60474 0.7527 0.10931 0.0
C510 C 0.62429 0.74159 0.06572 0.0
C511 C 0.59927 0.70299 0.08758 0.0
C512 C 0.68937 0.88482 0.09633 0.0
N513 N 0.67594 0.88116 0.1204 0.0
C514 C 0.71431 0.88861 0.09796 0.0
C515 C 0.72547 0.88867 0.12448 0.0
C516 C 0.71162 0.88499 0.14895 0.0
C517 C 0.68674 0.88123 0.14649 0.0
C518 C 0.64185 0.95619 0.16534 0.0
C519 C 0.61974 0.89914 0.16772 0.0
C520 C 0.64628 0.93384 0.14466 0.0
N521 N 0.63536 0.90568 0.14612 0.0
C522 C 0.61488 0.92093 0.18877 0.0
C523 C 0.62605 0.94963 0.18754 0.0
C524 C 0.59299 0.84518 0.10833 0.0
C525 C 0.63393 0.82666 1.00162 0.0
C526 C 0.60099 0.8029 0.03992 0.0
C527 C 0.59391 0.80839 0.01191 0.0
C528 C 0.61052 0.82039 0.99268 0.0
N529 N 0.62397 0.80913 0.04856 0.0
C530 C 0.64037 0.82083 0.02979 0.0
Co531 Co 0.37201 0.13852 0.61261 0.0
Co532 Co 0.3814 0.21154 0.58562 0.0
O533 O 0.36627 0.17065 0.58427 0.0
C534 C 0.38263 0.10561 0.55862 0.0
O535 O 0.39447 0.12992 0.5497 0.0
C536 C 0.32909 0.22525 0.58036 0.0
O537 O 0.32548 0.20579 0.60128 0.0
O538 O 0.37135 0.21772 0.62604 0.0
O539 O 0.37185 0.16963 0.64378 0.0
H540 H 0.43267 0.29539 0.62741 0.0
H541 H 0.33135 0.13288 0.57237 0.0
O542 O 0.37201 0.10596 0.58257 0.0
H543 H 0.29448 0.13039 0.66766 0.0
H544 H 0.36064 0.03425 0.6575 0.0
H545 H 0.40389 0.13323 0.66278 0.0
H546 H 0.33853 0.13447 0.66215 0.0
H547 H 0.35292 0.07507 0.62226 0.0
O548 O 0.35046 0.23066 0.57184 0.0
H549 H 0.41394 0.24395 0.62562 0.0
H550 H 0.37993 0.26636 0.54751 0.0
H551 H 0.41199 0.09313 0.69866 0.0
H552 H 0.2872 0.12851 0.57687 0.0
H553 H 0.39028 0.04322 0.69613 0.0
H554 H 0.26849 0.12737 0.6248 0.0
O555 O 0.40748 0.14304 0.60778 0.0
H556 H 0.36931 0.18203 0.48338 0.0
H557 H 0.42779 0.21917 0.55435 0.0
H558 H 0.44103 0.21044 0.505 0.0
H559 H 0.41168 0.19179 0.46911 0.0
H560 H 0.35687 0.19076 0.53303 0.0
H561 H 0.39814 0.31813 0.54856 0.0
H562 H 0.4248 0.33289 0.58867 0.0
O563 O 0.41275 0.19346 0.59881 0.0
C564 C 0.37013 0.19871 0.64665 0.0
C565 C 0.42113 0.28921 0.60979 0.0
C566 C 0.40172 0.30199 0.56555 0.0
N567 N 0.39596 0.25211 0.58643 0.0
C568 C 0.41051 0.2601 0.60863 0.0
C569 C 0.39141 0.27267 0.56512 0.0
C570 C 0.41669 0.31025 0.58806 0.0
C571 C 0.32332 0.13218 0.59328 0.0
N572 N 0.33747 0.134 0.61696 0.0
C573 C 0.29833 0.12979 0.5957 0.0
C574 C 0.28784 0.12919 0.6226 0.0
C575 C 0.3024 0.13091 0.64666 0.0
C576 C 0.32733 0.13333 0.64341 0.0
C577 C 0.37019 0.05592 0.65885 0.0
C578 C 0.39428 0.11162 0.66165 0.0
C579 C 0.36594 0.07909 0.63891 0.0
N580 N 0.37784 0.10658 0.64057 0.0
C581 C 0.39898 0.08898 0.68197 0.0
C582 C 0.38682 0.06097 0.68053 0.0
C583 C 0.42086 0.16661 0.60434 0.0
C584 C 0.38224 0.19024 0.4988 0.0
C585 C 0.41491 0.21096 0.53889 0.0
C586 C 0.42251 0.20613 0.51096 0.0
C587 C 0.40603 0.19568 0.49082 0.0
N588 N 0.39154 0.20561 0.54655 0.0
C589 C 0.37528 0.19536 0.52692 0.0
Co590 Co 0.64284 0.13463 0.89635 0.0
Co591 Co 0.63317 0.20887 0.92042 0.0
O592 O 0.64806 0.16793 0.92372 0.0
C593 C 0.63041 0.10401 0.95103 0.0
O594 O 0.61867 0.12886 0.95881 0.0
C595 C 0.68551 0.2225 0.92748 0.0
O596 O 0.68994 0.20156 0.90805 0.0
O597 O 0.64409 0.21326 0.8801 0.0
O598 O 0.64418 0.16444 0.86412 0.0
H599 H 0.58305 0.2911 0.87418 0.0
H600 H 0.68225 0.13038 0.93842 0.0
O601 O 0.64167 0.10331 0.92749 0.0
H602 H 0.72184 0.12272 0.8449 0.0
H603 H 0.65449 0.02837 0.8557 0.0
H604 H 0.61242 0.12767 0.84511 0.0
H605 H 0.67768 0.12762 0.84844 0.0
H606 H 0.66159 0.07054 0.88976 0.0
O607 O 0.66383 0.22852 0.93443 0.0
H608 H 0.60153 0.23968 0.8784 0.0
H609 H 0.63403 0.26529 0.95656 0.0
H610 H 0.60497 0.08621 0.81038 0.0
H611 H 0.72646 0.1252 0.93592 0.0
H612 H 0.62609 0.03613 0.81558 0.0
H613 H 0.74653 0.12146 0.88888 0.0
O614 O 0.60726 0.13975 0.89956 0.0
H615 H 0.64297 0.18365 0.02397 0.0
H616 H 0.58617 0.21811 0.95001 0.0
H617 H 0.57185 0.21156 0.99923 0.0
H618 H 0.60035 0.19427 0.03662 0.0
H619 H 0.65649 0.1902 0.97443 0.0
H620 H 0.61607 0.31707 0.95309 0.0
H621 H 0.59029 0.33022 0.91171 0.0
O622 O 0.60207 0.19045 0.90698 0.0
C623 C 0.6459 0.19339 0.86023 0.0
C624 C 0.59422 0.28564 0.89233 0.0
C625 C 0.61277 0.30022 0.9366 0.0
N626 N 0.61879 0.24946 0.91772 0.0
C627 C 0.6047 0.25654 0.89485 0.0
C628 C 0.62296 0.2709 0.9384 0.0
C629 C 0.5983 0.30758 0.91338 0.0
C630 C 0.69087 0.12859 0.91789 0.0
N631 N 0.67745 0.12947 0.8936 0.0
C632 C 0.7159 0.12573 0.9166 0.0
C633 C 0.72715 0.12367 0.8902 0.0
C634 C 0.71331 0.12441 0.86552 0.0
C635 C 0.68834 0.12734 0.86764 0.0
C636 C 0.64521 0.0501 0.85318 0.0
C637 C 0.62177 0.106 0.84741 0.0
C638 C 0.6491 0.07404 0.87245 0.0
N639 N 0.63753 0.10161 0.86932 0.0
C640 C 0.61744 0.08258 0.82772 0.0
C641 C 0.62928 0.05448 0.83067 0.0
C642 C 0.59394 0.16353 0.90191 0.0
C643 C 0.6304 0.19129 0.00788 0.0
C644 C 0.59868 0.21048 0.96613 0.0
C645 C 0.59047 0.20689 0.99399 0.0
C646 C 0.60647 0.19721 0.01496 0.0
N647 N 0.62218 0.20468 0.95937 0.0
C648 C 0.63797 0.19516 0.97982 0.0
Co649 Co 0.37534 0.87551 0.39221 0.0
Co650 Co 0.37941 0.80223 0.41991 0.0
O651 O 0.36639 0.84447 0.42067 0.0
C652 C 0.3833 0.90915 0.44631 0.0
O653 O 0.39389 0.88447 0.45645 0.0
C654 C 0.32714 0.79651 0.43825 0.0
O655 O 0.32344 0.82567 0.43268 0.0
O656 O 0.36843 0.79695 0.37989 0.0
O657 O 0.37681 0.84355 0.36164 0.0
H658 H 0.42608 0.71464 0.37714 0.0
H659 H 0.33207 0.88832 0.42711 0.0
O660 O 0.3742 0.90888 0.42151 0.0
H661 H 0.30304 0.88484 0.32817 0.0
H662 H 0.37108 0.97888 0.34399 0.0
H663 H 0.4114 0.87776 0.34583 0.0
H664 H 0.34603 0.87724 0.33899 0.0
H665 H 0.35923 0.93954 0.37908 0.0
O666 O 0.34773 0.78432 0.4338 0.0
H667 H 0.40975 0.76738 0.37929 0.0
H668 H 0.37606 0.74757 0.45823 0.0
H669 H 0.42367 0.91635 0.31022 0.0
H670 H 0.28893 0.89659 0.4172 0.0
H671 H 0.40345 0.96734 0.30916 0.0
H672 H 0.27414 0.8947 0.36743 0.0
O673 O 0.40983 0.86904 0.40109 0.0
H674 H 0.37113 0.83488 0.52213 0.0
H675 H 0.42531 0.78945 0.45052 0.0
H676 H 0.43985 0.79693 0.49947 0.0
H677 H 0.41266 0.81966 0.53573 0.0
H678 H 0.35744 0.82744 0.47293 0.0
H679 H 0.39184 0.69453 0.45679 0.0
H680 H 0.41713 0.6778 0.41609 0.0
O681 O 0.41175 0.81775 0.40642 0.0
C682 C 0.37136 0.81521 0.35899 0.0
C683 C 0.41513 0.72168 0.39503 0.0
C684 C 0.39588 0.71038 0.43971 0.0
N685 N 0.39209 0.76062 0.41893 0.0
C686 C 0.40588 0.75154 0.39639 0.0
C687 C 0.38694 0.74042 0.44036 0.0
C688 C 0.41008 0.70101 0.41687 0.0
C689 C 0.32579 0.88766 0.40539 0.0
N690 N 0.34152 0.882 0.38372 0.0
C691 C 0.30133 0.89227 0.39991 0.0
C692 C 0.29304 0.89117 0.37199 0.0
C693 C 0.30923 0.8856 0.34996 0.0
C694 C 0.33355 0.8811 0.35625 0.0
C695 C 0.37999 0.95673 0.34421 0.0
C696 C 0.40242 0.89983 0.3454 0.0
C697 C 0.3734 0.93438 0.36406 0.0
N698 N 0.3845 0.90629 0.36437 0.0
C699 C 0.40949 0.92162 0.32524 0.0
C700 C 0.39816 0.95023 0.32467 0.0
C701 C 0.42168 0.8441 0.40352 0.0
C702 C 0.38309 0.82471 0.50659 0.0
C703 C 0.41331 0.79935 0.46614 0.0
C704 C 0.42167 0.8035 0.49385 0.0
C705 C 0.40641 0.81625 0.51419 0.0
N706 N 0.39033 0.80747 0.45886 0.0
C707 C 0.37534 0.82019 0.47867 0.0
Co708 Co 0.36515 0.14139 0.89534 0.0
Co709 Co 0.37655 0.17669 0.9591 0.0
O710 O 0.35976 0.17473 0.92253 0.0
C711 C 0.37362 0.1931 0.85413 0.0
O712 O 0.39229 0.20234 0.86896 0.0
C713 C 0.32515 0.18461 0.97642 0.0
O714 O 0.31992 0.16008 0.96133 0.0
O715 O 0.36588 0.13416 0.96876 0.0
O716 O 0.36929 0.11052 0.92661 0.0
H717 H 0.42989 0.13673 0.03701 0.0
H718 H 0.3217 0.18047 0.89023 0.0
O719 O 0.36065 0.17082 0.86285 0.0
H720 H 0.29119 0.07464 0.90205 0.0
H721 H 0.34975 0.08251 0.80496 0.0
H722 H 0.39965 0.08946 0.89137 0.0
H723 H 0.33484 0.08486 0.9008 0.0
H724 H 0.34258 0.12351 0.84018 0.0
O725 O 0.34681 0.1943 0.9775 0.0
H726 H 0.4092 0.13493 0.99069 0.0
H727 H 0.37842 0.22289 0.00596 0.0
H728 H 0.40727 0.04789 0.85682 0.0
H729 H 0.27786 0.17126 0.8911 0.0
H730 H 0.38223 0.04424 0.81324 0.0
H731 H 0.26236 0.11803 0.89712 0.0
O732 O 0.40044 0.14968 0.8957 0.0
H733 H 0.36528 0.28452 0.92296 0.0
H734 H 0.42374 0.20959 0.96081 0.0
H735 H 0.43753 0.26158 0.9475 0.0
H736 H 0.40819 0.29949 0.92849 0.0
H737 H 0.3523 0.23217 0.93631 0.0
H738 H 0.39862 0.22554 0.05255 0.0
H739 H 0.42465 0.18229 0.0683 0.0
O740 O 0.40695 0.15971 0.94189 0.0
C741 C 0.36677 0.10986 0.95355 0.0
C742 C 0.41865 0.15576 0.03035 0.0
C743 C 0.40108 0.20559 0.03909 0.0
N744 N 0.39276 0.17886 0.99554 0.0
C745 C 0.40694 0.15491 1.00411 0.0
C746 C 0.38964 0.20392 0.01271 0.0
C747 C 0.41569 0.18132 0.04791 0.0
C748 C 0.31507 0.15722 0.89264 0.0
N749 N 0.33081 0.13324 0.89539 0.0
C750 C 0.29024 0.15216 0.89321 0.0
C751 C 0.28156 0.12229 0.89662 0.0
C752 C 0.29772 0.09794 0.89941 0.0
C753 C 0.32243 0.10388 0.89877 0.0
C754 C 0.36076 0.08382 0.8239 0.0
C755 C 0.38858 0.08791 0.87254 0.0
C756 C 0.35682 0.10704 0.84389 0.0
N757 N 0.37058 0.10876 0.86792 0.0
C758 C 0.39302 0.06437 0.85302 0.0
C759 C 0.37898 0.06235 0.82856 0.0
C760 C 0.41445 0.15361 0.91685 0.0
C761 C 0.37822 0.26824 0.93129 0.0
C762 C 0.41087 0.22592 0.95247 0.0
C763 C 0.41878 0.25535 0.94503 0.0
C764 C 0.4023 0.27661 0.93437 0.0
N765 N 0.3872 0.21792 0.94947 0.0
C766 C 0.37096 0.2386 0.93897 0.0
Co767 Co 0.65012 0.8671 0.39854 0.0
Co768 Co 0.64036 0.83034 0.46211 0.0
O769 O 0.65667 0.83364 0.42527 0.0
C770 C 0.64226 0.81557 0.35693 0.0
O771 O 0.62429 0.80518 0.37233 0.0
C772 C 0.6921 0.82524 0.47811 0.0
O773 O 0.69611 0.84988 0.46266 0.0
O774 O 0.64964 0.87333 0.47216 0.0
O775 O 0.64576 0.8974 0.43028 0.0
H776 H 0.58646 0.86629 0.54118 0.0
H777 H 0.69433 0.82971 0.392 0.0
O778 O 0.65479 0.83832 0.36553 0.0
H779 H 0.72268 0.93641 0.40461 0.0
H780 H 0.66288 0.92783 0.30863 0.0
H781 H 0.61438 0.91771 0.3959 0.0
H782 H 0.67925 0.92464 0.40408 0.0
H783 H 0.67151 0.88663 0.34319 0.0
O784 O 0.67086 0.8143 0.47992 0.0
H785 H 0.60662 0.86983 0.4946 0.0
H786 H 0.64056 0.78352 0.50848 0.0
H787 H 0.60528 0.95944 0.36204 0.0
H788 H 0.73796 0.84048 0.39213 0.0
H789 H 0.62962 0.96468 0.31802 0.0
H790 H 0.75237 0.89415 0.39855 0.0
O791 O 0.61505 0.85746 0.39948 0.0
H792 H 0.65504 0.72368 0.42469 0.0
H793 H 0.59438 0.79478 0.46407 0.0
H794 H 0.58229 0.74222 0.45038 0.0
H795 H 0.61275 0.70624 0.4306 0.0
H796 H 0.66632 0.77656 0.43844 0.0
H797 H 0.62091 0.77915 0.55531 0.0
H798 H 0.59357 0.82069 0.57189 0.0
O799 O 0.60929 0.84577 0.4455 0.0
C800 C 0.64824 0.89779 0.45723 0.0
C801 C 0.59828 0.848 0.53416 0.0
C802 C 0.61764 0.79911 0.5421 0.0
N803 N 0.62461 0.82681 0.49874 0.0
C804 C 0.60969 0.84984 0.50777 0.0
C805 C 0.62876 0.80174 0.51559 0.0
C806 C 0.60229 0.82242 0.55139 0.0
C807 C 0.70048 0.85315 0.39458 0.0
N808 N 0.68427 0.87652 0.39797 0.0
C809 C 0.72519 0.8591 0.39473 0.0
C810 C 0.73327 0.88921 0.39837 0.0
C811 C 0.71662 0.91293 0.4018 0.0
C812 C 0.69205 0.90611 0.40157 0.0
C813 C 0.65218 0.92582 0.32776 0.0
C814 C 0.62514 0.91996 0.37688 0.0
C815 C 0.65694 0.90249 0.34738 0.0
N816 N 0.64356 0.89989 0.37164 0.0
C817 C 0.61987 0.94358 0.35775 0.0
C818 C 0.63352 0.94649 0.33304 0.0
C819 C 0.6014 0.8522 0.42073 0.0
C820 C 0.64162 0.73912 0.43336 0.0
C821 C 0.60773 0.77929 0.45539 0.0
C822 C 0.60078 0.74953 0.44774 0.0
C823 C 0.61788 0.72936 0.43665 0.0
N824 N 0.63107 0.78866 0.45219 0.0
C825 C 0.64792 0.76904 0.44126 0.0
Co826 Co 0.36417 0.87472 0.1106 0.0
Co827 Co 0.37385 0.83532 0.04805 0.0
O828 O 0.35764 0.84044 0.0847 0.0
C829 C 0.37315 0.82329 0.15158 0.0
O830 O 0.39028 0.81274 0.13499 0.0
C831 C 0.32191 0.83116 0.03086 0.0
O832 O 0.31747 0.8566 0.045 0.0
O833 O 0.36588 0.87858 0.03675 0.0
O834 O 0.36736 0.90399 0.07822 0.0
H835 H 0.42942 0.86633 0.96884 0.0
H836 H 0.32087 0.83596 0.11892 0.0
O837 O 0.36071 0.84658 0.14414 0.0
H838 H 0.29008 0.94131 0.10475 0.0
H839 H 0.3516 0.93715 0.19954 0.0
H840 H 0.39876 0.92673 0.11128 0.0
H841 H 0.33374 0.93104 0.10452 0.0
H842 H 0.34335 0.89477 0.16607 0.0
O843 O 0.34314 0.82006 0.03036 0.0
H844 H 0.40903 0.87211 0.0151 0.0
H845 H 0.3725 0.78729 1.00265 0.0
H846 H 0.40745 0.96961 0.14405 0.0
H847 H 0.27704 0.84524 0.11955 0.0
H848 H 0.38379 0.97502 0.18856 0.0
H849 H 0.2614 0.89823 0.11236 0.0
O850 O 0.39958 0.86662 0.10913 0.0
H851 H 0.35553 0.73111 0.08892 0.0
H852 H 0.41828 0.79652 0.04608 0.0
H853 H 0.42852 0.74384 0.06129 0.0
H854 H 0.39699 0.71069 0.08283 0.0
H855 H 0.34617 0.7841 0.07368 0.0
H856 H 0.39232 0.78073 0.95615 0.0
H857 H 0.4211 0.82037 0.93902 0.0
O858 O 0.40517 0.8494 0.06463 0.0
C859 C 0.36608 0.90349 0.0512 0.0
C860 C 0.41696 0.84886 0.9761 0.0
C861 C 0.39611 0.80085 0.96896 0.0
N862 N 0.3897 0.82999 0.01164 0.0
C863 C 0.40541 0.85198 1.00231 0.0
C864 C 0.38488 0.80474 0.99527 0.0
C865 C 0.41227 0.82309 0.95937 0.0
C866 C 0.31419 0.85911 0.11599 0.0
N867 N 0.32985 0.88293 0.11177 0.0
C868 C 0.28936 0.86421 0.11628 0.0
C869 C 0.28059 0.89394 0.1122 0.0
C870 C 0.29668 0.91812 0.10791 0.0
C871 C 0.32139 0.91215 0.10772 0.0
C872 C 0.36201 0.93507 0.18019 0.0
C873 C 0.38829 0.92903 0.13052 0.0
C874 C 0.35746 0.91108 0.16118 0.0
N875 N 0.37046 0.9084 0.13664 0.0
C876 C 0.39333 0.95332 0.14903 0.0
C877 C 0.38006 0.95632 0.17401 0.0
C878 C 0.41323 0.85872 0.08854 0.0
C879 C 0.36943 0.74532 0.07956 0.0
C880 C 0.40454 0.78237 0.05565 0.0
C881 C 0.4104 0.75249 0.0641 0.0
C882 C 0.3927 0.73389 0.07616 0.0
N883 N 0.38168 0.79343 0.05905 0.0
C884 C 0.36423 0.77532 0.07084 0.0
Co885 Co 0.64909 0.137 0.60951 0.0
Co886 Co 0.6388 0.17394 0.54623 0.0
O887 O 0.65534 0.17063 0.5829 0.0
C888 C 0.64156 0.18796 0.65194 0.0
O889 O 0.62296 0.1981 0.63748 0.0
C890 C 0.69047 0.17988 0.5301 0.0
O891 O 0.69466 0.15517 0.54539 0.0
O892 O 0.64838 0.13112 0.53592 0.0
O893 O 0.64446 0.10687 0.57769 0.0
H894 H 0.58474 0.13779 0.46742 0.0
H895 H 0.69335 0.17439 0.6156 0.0
O896 O 0.65413 0.16559 0.64257 0.0
H897 H 0.72163 0.06778 0.60218 0.0
H898 H 0.66274 0.07577 0.69894 0.0
H899 H 0.6134 0.08634 0.6124 0.0
H900 H 0.67821 0.0795 0.60333 0.0
H901 H 0.67101 0.11718 0.66448 0.0
O902 O 0.66912 0.19049 0.5283 0.0
H903 H 0.60516 0.13423 0.51383 0.0
H904 H 0.63844 0.22098 0.50006 0.0
H905 H 0.60466 0.04441 0.64618 0.0
H906 H 0.73697 0.16366 0.61486 0.0
H907 H 0.62941 0.03894 0.68983 0.0
H908 H 0.75135 0.11003 0.60801 0.0
O909 O 0.61401 0.14663 0.60905 0.0
H910 H 0.6528 0.28057 0.58406 0.0
H911 H 0.59253 0.20893 0.54474 0.0
H912 H 0.58009 0.26126 0.55875 0.0
H913 H 0.61034 0.29751 0.57851 0.0
H914 H 0.66443 0.22791 0.57 0.0
H915 H 0.61853 0.22537 0.4534 0.0
H916 H 0.59138 0.18362 0.43686 0.0
O917 O 0.60788 0.15802 0.56303 0.0
C918 C 0.64702 0.10659 0.55075 0.0
C919 C 0.59647 0.15617 0.47443 0.0
C920 C 0.61546 0.20531 0.46655 0.0
N921 N 0.62284 0.17747 0.50973 0.0
C922 C 0.60803 0.15433 0.50072 0.0
C923 C 0.62673 0.20266 0.49296 0.0
C924 C 0.60022 0.18188 0.45728 0.0
C925 C 0.69948 0.15096 0.61285 0.0
N926 N 0.68325 0.12761 0.60957 0.0
C927 C 0.72419 0.14504 0.61235 0.0
C928 C 0.73225 0.11495 0.60847 0.0
C929 C 0.71559 0.09124 0.60516 0.0
C930 C 0.69101 0.09804 0.60575 0.0
C931 C 0.65185 0.07788 0.67997 0.0
C932 C 0.62434 0.084 0.63126 0.0
C933 C 0.65641 0.10133 0.66041 0.0
N934 N 0.6428 0.10406 0.63634 0.0
C935 C 0.61927 0.06026 0.65035 0.0
C936 C 0.63315 0.05722 0.67484 0.0
C937 C 0.60017 0.15167 0.58793 0.0
C938 C 0.63946 0.26501 0.57541 0.0
C939 C 0.6058 0.22453 0.5534 0.0
C940 C 0.59865 0.25416 0.56124 0.0
C941 C 0.61564 0.27449 0.57232 0.0
N942 N 0.62923 0.21544 0.55642 0.0
C943 C 0.64596 0.23521 0.56733 0.0
H944 H 0.06154 0.29823 0.0822 0.0
H945 H 0.9404 0.37865 0.13141 0.0
H946 H 0.06418 0.38614 0.12497 0.0
H947 H 0.9468 0.32773 0.05296 0.0
H948 H 0.98451 0.37643 0.13662 0.0
H949 H 0.01793 0.3026 0.07933 0.0
C950 C 0.05305 0.31851 0.091 0.0
C951 C 0.06679 0.34212 0.10339 0.0
C952 C 0.97609 0.3658 0.11833 0.0
C953 C 0.01644 0.34681 0.1007 0.0
C954 C 0.95096 0.36695 0.11535 0.0
C955 C 0.93969 0.35304 0.09185 0.0
C956 C 0.98993 0.35005 0.09802 0.0
C957 C 0.95443 0.33844 0.07163 0.0
C958 C 0.02807 0.32094 0.08933 0.0
C959 C 0.05441 0.36753 0.11491 0.0
N960 N 0.97864 0.33705 0.07535 0.0
N961 N 0.0299 0.36918 0.11338 0.0
H962 H 0.95052 0.61476 0.616 0.0
H963 H 0.07195 0.68635 0.55627 0.0
H964 H 0.95548 0.70841 0.5858 0.0
H965 H 0.07278 0.61729 0.62221 0.0
H966 H 0.02828 0.6897 0.56073 0.0
H967 H 0.99451 0.61067 0.61305 0.0
C968 C 0.96077 0.63444 0.60869 0.0
C969 C 0.94912 0.66189 0.60082 0.0
C970 C 0.03804 0.67386 0.57425 0.0
C971 C 0.9994 0.65709 0.59707 0.0
C972 C 0.06303 0.67183 0.57167 0.0
C973 C 0.07623 0.65171 0.58907 0.0
C974 C 0.02596 0.65517 0.59394 0.0
C975 C 0.06343 0.63332 0.6085 0.0
C976 C 0.98587 0.63207 0.60711 0.0
C977 C 0.96348 0.68667 0.59176 0.0
N978 N 0.03899 0.63536 0.6103 0.0
N979 N 0.98778 0.68356 0.58986 0.0
H980 H 0.94006 0.66579 0.87697 0.0
H981 H 0.06703 0.62047 0.94069 0.0
H982 H 0.94654 0.63559 0.96394 0.0
H983 H 0.05899 0.70161 0.88875 0.0
H984 H 0.02297 0.61555 0.94261 0.0
H985 H 0.98419 0.66878 0.87391 0.0
C986 C 0.95078 0.65941 0.89528 0.0
C987 C 0.93969 0.65042 0.92076 0.0
C988 C 0.03094 0.63433 0.93075 0.0
C989 C 0.98991 0.65338 0.91721 0.0
C990 C 0.05598 0.63708 0.92953 0.0
C991 C 0.06659 0.66152 0.91459 0.0
C992 C 0.01648 0.65562 0.91624 0.0
C993 C 0.05148 0.68255 0.90064 0.0
C994 C 0.97586 0.66134 0.89356 0.0
C995 C 0.95441 0.64271 0.94394 0.0
N996 N 0.02715 0.67896 0.90156 0.0
N997 N 0.9788 0.64412 0.94156 0.0
H998 H 0.06714 0.33033 0.45491 0.0
H999 H 0.94811 0.38965 0.38152 0.0
H1000 H 0.07241 0.37814 0.37469 0.0
H1001 H 0.95292 0.30175 0.424 0.0
H1002 H 0.99237 0.39357 0.38333 0.0
H1003 H 0.02368 0.32831 0.44945 0.0
C1004 C 0.05927 0.34038 0.43605 0.0
C1005 C 0.07371 0.35392 0.41496 0.0
C1006 C 0.98356 0.37347 0.39212 0.0
C1007 C 0.02346 0.35229 0.40904 0.0
C1008 C 0.95835 0.37122 0.39121 0.0
C1009 C 0.94659 0.3455 0.40298 0.0
C1010 C 0.99697 0.3502 0.40546 0.0
C1011 C 0.96093 0.32223 0.41502 0.0
C1012 C 0.03435 0.3392 0.43301 0.0
C1013 C 0.06207 0.36713 0.39133 0.0
N1014 N 0.98522 0.32535 0.41626 0.0
N1015 N 0.03757 0.36612 0.38904 0.0
H1016 H 0.44744 0.83487 0.05304 0.0
H1017 H 0.56515 0.89364 0.12799 0.0
H1018 H 0.44006 0.88349 0.13264 0.0
H1019 H 0.55956 0.8029 0.09101 0.0
H1020 H 0.52097 0.89838 0.12515 0.0
H1021 H 0.49064 0.83201 0.06057 0.0
C1022 C 0.45479 0.84494 0.07218 0.0
C1023 C 0.43982 0.85891 0.09251 0.0
C1024 C 0.5296 0.87747 0.11785 0.0
C1025 C 0.48977 0.85635 0.10078 0.0
C1026 C 0.55475 0.87472 0.11937 0.0
C1027 C 0.56628 0.848 0.1093 0.0
C1028 C 0.51605 0.85366 0.10558 0.0
C1029 C 0.55175 0.82417 0.09858 0.0
C1030 C 0.47955 0.84328 0.07641 0.0
C1031 C 0.45082 0.87215 0.11656 0.0
N1032 N 0.52755 0.82777 0.09662 0.0
N1033 N 0.47521 0.87069 0.12 0.0
H1034 H 0.56593 0.1307 0.55118 0.0
H1035 H 0.45464 0.20673 0.62477 0.0
H1036 H 0.57446 0.17119 0.63422 0.0
H1037 H 0.44716 0.11765 0.58529 0.0
H1038 H 0.49867 0.20081 0.62312 0.0
H1039 H 0.52204 0.13206 0.55752 0.0
C1040 C 0.55855 0.13976 0.57078 0.0
C1041 C 0.5738 0.15074 0.59227 0.0
C1042 C 0.48732 0.1825 0.61507 0.0
C1043 C 0.5238 0.15309 0.59926 0.0
C1044 C 0.46229 0.18588 0.61591 0.0
C1045 C 0.4473 0.16255 0.60529 0.0
C1046 C 0.49739 0.15611 0.60265 0.0
C1047 C 0.4581 0.13602 0.59395 0.0
C1048 C 0.53358 0.14042 0.57439 0.0
C1049 C 0.56331 0.16228 0.61725 0.0
N1050 N 0.48252 0.13372 0.5925 0.0
N1051 N 0.53891 0.16363 0.6199 0.0
H1052 H 0.56089 0.20364 0.87993 0.0
H1053 H 0.44817 0.13089 0.95338 0.0
H1054 H 0.56687 0.11524 0.92101 0.0
H1055 H 0.44061 0.17238 0.87063 0.0
H1056 H 0.49206 0.13065 0.94707 0.0
H1057 H 0.51681 0.19864 0.88099 0.0
C1058 C 0.55291 0.1831 0.88897 0.0
C1059 C 0.5675 0.15973 0.90028 0.0
C1060 C 0.48074 0.13956 0.93024 0.0
C1061 C 0.5173 0.15434 0.90223 0.0
C1062 C 0.45577 0.13981 0.93384 0.0
C1063 C 0.44078 0.15158 0.91244 0.0
C1064 C 0.49083 0.15207 0.90548 0.0
C1065 C 0.45154 0.1629 0.88754 0.0
C1066 C 0.52784 0.18025 0.88948 0.0
C1067 C 0.55625 0.13363 0.91184 0.0
N1068 N 0.47597 0.16333 0.88491 0.0
N1069 N 0.5318 0.13185 0.91295 0.0
H1070 H 0.45424 0.80179 0.38361 0.0
H1071 H 0.56765 0.87319 0.45801 0.0
H1072 H 0.44955 0.89035 0.4247 0.0
H1073 H 0.57518 0.83276 0.37479 0.0
H1074 H 0.52373 0.87236 0.45224 0.0
H1075 H 0.49846 0.80515 0.38593 0.0
C1076 C 0.46252 0.82191 0.39306 0.0
C1077 C 0.44828 0.84591 0.40386 0.0
C1078 C 0.53505 0.86383 0.43523 0.0
C1079 C 0.4985 0.84947 0.40715 0.0
C1080 C 0.56003 0.86421 0.4385 0.0
C1081 C 0.57501 0.85318 0.41676 0.0
C1082 C 0.52496 0.85142 0.41044 0.0
C1083 C 0.56423 0.84173 0.39192 0.0
C1084 C 0.48765 0.82385 0.39425 0.0
C1085 C 0.45989 0.87148 0.41591 0.0
N1086 N 0.53979 0.84073 0.38957 0.0
N1087 N 0.48432 0.87241 0.41759 0.0
H1088 H 0.18333 0.309 0.17938 0.0
H1089 H 0.10791 0.28262 0.32199 0.0
H1090 H 0.10918 0.28019 0.17999 0.0
H1091 H 0.1778 0.32577 0.31781 0.0
H1092 H 0.11117 0.26987 0.27132 0.0
H1093 H 0.18485 0.30258 0.23099 0.0
C1094 C 0.16763 0.3002 0.19039 0.0
C1095 C 0.14622 0.29465 0.17558 0.0
C1096 C 0.12593 0.2817 0.28165 0.0
C1097 C 0.14739 0.28849 0.23469 0.0
C1098 C 0.12413 0.28888 0.31059 0.0
C1099 C 0.14248 0.30564 0.32409 0.0
C1100 C 0.14631 0.29115 0.26619 0.0
C1101 C 0.16306 0.31318 0.30822 0.0
C1102 C 0.16838 0.29688 0.21987 0.0
C1103 C 0.12613 0.28413 0.19076 0.0
N1104 N 0.16432 0.30612 0.28015 0.0
N1105 N 0.12709 0.28177 0.2196 0.0
H1106 H 0.84208 0.72957 0.67861 0.0
H1107 H 0.8993 0.67219 0.82438 0.0
H1108 H 0.90957 0.68151 0.68688 0.0
H1109 H 0.83682 0.73101 0.82307 0.0
H1110 H 0.90483 0.68082 0.77386 0.0
H1111 H 0.84105 0.73618 0.73076 0.0
C1112 C 0.85696 0.72122 0.69133 0.0
C1113 C 0.87589 0.70485 0.67861 0.0
C1114 C 0.89 0.69225 0.78444 0.0
C1115 C 0.87473 0.71185 0.73778 0.0
C1116 C 0.88687 0.68729 0.81338 0.0
C1117 C 0.86754 0.70081 0.82784 0.0
C1118 C 0.87336 0.71035 0.76939 0.0
C1119 C 0.85202 0.72027 0.81261 0.0
C1120 C 0.85631 0.72478 0.72103 0.0
C1121 C 0.89456 0.69406 0.69593 0.0
N1122 N 0.855 0.72409 0.784 0.0
N1123 N 0.8934 0.69751 0.7245 0.0
H1124 H 0.10313 0.67832 0.82843 0.0
H1125 H 0.1713 0.73109 0.6866 0.0
H1126 H 0.16964 0.72929 0.83151 0.0
H1127 H 0.11615 0.66146 0.69206 0.0
H1128 H 0.16653 0.74082 0.73803 0.0
H1129 H 0.10267 0.68342 0.777 0.0
C1130 C 0.1175 0.69105 0.81817 0.0
C1131 C 0.13656 0.70316 0.83411 0.0
C1132 C 0.1553 0.72376 0.72777 0.0
C1133 C 0.13653 0.70849 0.77492 0.0
C1134 C 0.15791 0.71833 0.69849 0.0
C1135 C 0.14419 0.6953 0.68519 0.0
C1136 C 0.13859 0.70636 0.74347 0.0
C1137 C 0.12725 0.67923 0.70151 0.0
C1138 C 0.1173 0.69386 0.78878 0.0
C1139 C 0.15462 0.71967 0.81986 0.0
N1140 N 0.12499 0.68501 0.72967 0.0
N1141 N 0.1544 0.72146 0.79087 0.0
H1142 H 0.83402 0.32569 0.18644 0.0
H1143 H 0.89985 0.27608 0.33012 0.0
H1144 H 0.90538 0.28644 0.18838 0.0
H1145 H 0.83144 0.32246 0.32564 0.0
H1146 H 0.89891 0.2692 0.2782 0.0
H1147 H 0.82959 0.31432 0.23682 0.0
C1148 C 0.84868 0.31428 0.19739 0.0
C1149 C 0.87025 0.3074 0.18319 0.0
C1150 C 0.88384 0.28023 0.28866 0.0
C1151 C 0.86539 0.29463 0.2413 0.0
C1152 C 0.88427 0.28383 0.31827 0.0
C1153 C 0.86566 0.29978 0.33198 0.0
C1154 C 0.86466 0.29275 0.27289 0.0
C1155 C 0.84613 0.31007 0.31575 0.0
C1156 C 0.84614 0.3078 0.22624 0.0
C1157 C 0.88848 0.2923 0.19849 0.0
N1158 N 0.84624 0.30664 0.28708 0.0
N1159 N 0.8858 0.28685 0.22684 0.0
H1160 H 0.61185 0.7804 0.32393 0.0
H1161 H 0.68372 0.82378 0.18282 0.0
H1162 H 0.6807 0.82642 0.32215 0.0
H1163 H 0.61479 0.77847 0.18168 0.0
H1164 H 0.686 0.81592 0.2341 0.0
H1165 H 0.61541 0.77092 0.27271 0.0
C1166 C 0.62793 0.78797 0.31293 0.0
C1167 C 0.64586 0.80459 0.32735 0.0
C1168 C 0.67054 0.80709 0.22271 0.0
C1169 C 0.64995 0.79401 0.26871 0.0
C1170 C 0.66933 0.81145 0.1934 0.0
C1171 C 0.6491 0.80165 0.17815 0.0
C1172 C 0.65109 0.79341 0.23707 0.0
C1173 C 0.63082 0.78601 0.19277 0.0
C1174 C 0.6299 0.78265 0.28364 0.0
C1175 C 0.66626 0.81386 0.31192 0.0
N1176 N 0.63204 0.7828 0.22156 0.0
N1177 N 0.66761 0.80874 0.2835 0.0
H1178 H 0.33357 0.18581 0.82126 0.0
H1179 H 0.40061 0.23463 0.678 0.0
H1180 H 0.4046 0.22604 0.81995 0.0
H1181 H 0.33279 0.18681 0.68188 0.0
H1182 H 0.39906 0.24186 0.72985 0.0
H1183 H 0.32969 0.19623 0.77064 0.0
C1184 C 0.34825 0.19728 0.8104 0.0
C1185 C 0.36959 0.20468 0.82486 0.0
C1186 C 0.38428 0.23035 0.71927 0.0
C1187 C 0.36539 0.21634 0.76649 0.0
C1188 C 0.38507 0.22651 0.68971 0.0
C1189 C 0.36681 0.21006 0.67585 0.0
C1190 C 0.36508 0.21762 0.73487 0.0
C1191 C 0.34728 0.19941 0.6919 0.0
C1192 C 0.34604 0.20319 0.78141 0.0
C1193 C 0.38788 0.2198 0.80965 0.0
N1194 N 0.34702 0.20314 0.72054 0.0
N1195 N 0.38552 0.2247 0.78118 0.0
H1196 H 0.61787 0.23252 0.82875 0.0
H1197 H 0.68119 0.17734 0.68479 0.0
H1198 H 0.68153 0.17613 0.82426 0.0
H1199 H 0.61196 0.22243 0.68663 0.0
H1200 H 0.68553 0.18687 0.7355 0.0
H1201 H 0.61943 0.23908 0.77683 0.0
C1202 C 0.63253 0.22225 0.8169 0.0
C1203 C 0.64953 0.20359 0.83065 0.0
C1204 C 0.66948 0.19505 0.72483 0.0
C1205 C 0.65127 0.21056 0.77153 0.0
C1206 C 0.66701 0.18966 0.69577 0.0
C1207 C 0.64601 0.19871 0.68142 0.0
C1208 C 0.65078 0.20944 0.73991 0.0
C1209 C 0.62839 0.21489 0.69683 0.0
C1210 C 0.6333 0.22573 0.78729 0.0
C1211 C 0.66793 0.19036 0.81437 0.0
N1212 N 0.63101 0.21935 0.72534 0.0
N1213 N 0.66822 0.1939 0.78572 0.0
H1214 H 0.40492 0.78864 0.18301 0.0
H1215 H 0.33106 0.81703 0.32671 0.0
H1216 H 0.33501 0.83177 0.18732 0.0
H1217 H 0.4057 0.7904 0.32485 0.0
H1218 H 0.32908 0.81056 0.27504 0.0
H1219 H 0.40236 0.77755 0.23403 0.0
C1220 C 0.38883 0.79522 0.19453 0.0
C1221 C 0.37028 0.8115 0.18094 0.0
C1222 C 0.34578 0.80544 0.28593 0.0
C1223 C 0.36729 0.79899 0.23926 0.0
C1224 C 0.34681 0.80888 0.3154 0.0
C1225 C 0.36847 0.80385 0.32983 0.0
C1226 C 0.36668 0.79729 0.27081 0.0
C1227 C 0.3886 0.79403 0.31433 0.0
C1228 C 0.38744 0.78903 0.22368 0.0
C1229 C 0.34989 0.81951 0.19697 0.0
N1230 N 0.3873 0.79135 0.28556 0.0
N1231 N 0.34904 0.81342 0.22526 0.0
H1232 H 0.32995 0.23528 0.01078 0.0
H1233 H 0.23718 0.2947 0.09484 0.0
H1234 H 0.27665 0.17171 0.97907 0.0
H1235 H 0.18945 0.24819 0.03663 0.0
H1236 H 0.27145 0.27068 0.07115 0.0
H1237 H 0.29867 0.26189 0.03736 0.0
C1238 C 0.31166 0.22672 0.00957 0.0
C1239 C 0.30604 0.201 0.99271 0.0
C1240 C 0.25358 0.26603 0.06314 0.0
C1241 C 0.26981 0.23119 0.02393 0.0
C1242 C 0.2339 0.27959 0.07695 0.0
C1243 C 0.21031 0.27365 0.06772 0.0
C1244 C 0.24973 0.2464 0.03974 0.0
C1245 C 0.20725 0.25363 0.0445 0.0
C1246 C 0.29372 0.24184 0.02509 0.0
C1247 C 0.28192 0.19129 0.99186 0.0
N1248 N 0.22666 0.24075 0.03142 0.0
N1249 N 0.26476 0.20641 0.00716 0.0
H1250 H 0.77866 0.70944 0.58962 0.0
H1251 H 0.74028 0.83957 0.47699 0.0
H1252 H 0.8292 0.76745 0.54504 0.0
H1253 H 0.68972 0.77652 0.51525 0.0
H1254 H 0.77285 0.81463 0.50331 0.0
H1255 H 0.7456 0.73503 0.56438 0.0
C1256 C 0.78283 0.72762 0.57467 0.0
C1257 C 0.80682 0.73624 0.56951 0.0
C1258 C 0.75463 0.80622 0.50597 0.0
C1259 C 0.76901 0.76562 0.54044 0.0
C1260 C 0.73599 0.8205 0.49092 0.0
C1261 C 0.71216 0.81019 0.49384 0.0
C1262 C 0.7495 0.78144 0.52422 0.0
C1263 C 0.70779 0.78529 0.51225 0.0
C1264 C 0.76394 0.74217 0.56018 0.0
C1265 C 0.81106 0.75992 0.54975 0.0
N1266 N 0.72623 0.77183 0.52672 0.0
N1267 N 0.79241 0.77371 0.53601 0.0
H1268 H 0.3255 0.77816 0.99976 0.0
H1269 H 0.23427 0.71904 0.91481 0.0
H1270 H 0.27392 0.84694 0.02572 0.0
H1271 H 0.18572 0.76829 0.97013 0.0
H1272 H 0.26817 0.74416 0.93806 0.0
H1273 H 0.29405 0.75173 0.9736 0.0
C1274 C 0.30756 0.78794 0.99974 0.0
C1275 C 0.30249 0.81507 0.01489 0.0
C1276 C 0.2502 0.74918 0.94557 0.0
C1277 C 0.26607 0.78503 0.98398 0.0
C1278 C 0.23073 0.73501 0.93198 0.0
C1279 C 0.20704 0.74132 0.94058 0.0
C1280 C 0.24606 0.76975 0.96819 0.0
C1281 C 0.20365 0.76252 0.96283 0.0
C1282 C 0.28954 0.7729 0.98443 0.0
C1283 C 0.27875 0.82624 0.01426 0.0
N1284 N 0.22289 0.77593 0.97581 0.0
N1285 N 0.26145 0.81115 0.99913 0.0
H1286 H 0.7388 0.16656 0.5318 0.0
H1287 H 0.77688 0.2984 0.42072 0.0
H1288 H 0.68787 0.22892 0.49329 0.0
H1289 H 0.82761 0.24129 0.46595 0.0
H1290 H 0.74385 0.27205 0.44536 0.0
H1291 H 0.77135 0.1925 0.50628 0.0
C1292 C 0.73442 0.18568 0.51797 0.0
C1293 C 0.71049 0.1955 0.51475 0.0
C1294 C 0.76222 0.26528 0.44984 0.0
C1295 C 0.74783 0.22543 0.4853 0.0
C1296 C 0.78111 0.28028 0.43571 0.0
C1297 C 0.80514 0.27212 0.4412 0.0
C1298 C 0.76735 0.24183 0.46956 0.0
C1299 C 0.80943 0.24848 0.46098 0.0
C1300 C 0.75306 0.20054 0.50339 0.0
C1301 C 0.70602 0.22051 0.49651 0.0
N1302 N 0.79079 0.23424 0.47436 0.0
N1303 N 0.72446 0.23454 0.48248 0.0
H1304 H 0.68238 0.74236 0.04261 0.0
H1305 H 0.82387 0.73154 0.01055 0.0
H1306 H 0.73534 0.79923 0.08441 0.0
H1307 H 0.77149 0.66895 0.97518 0.0
H1308 H 0.7917 0.75749 0.03656 0.0
H1309 H 0.71461 0.71622 0.01697 0.0
C1310 C 0.7008 0.74938 0.04649 0.0
C1311 C 0.70607 0.77313 0.06582 0.0
C1312 C 0.78721 0.73809 0.02313 0.0
C1313 C 0.74328 0.74311 0.03619 0.0
C1314 C 0.8056 0.72322 0.00817 0.0
C1315 C 0.80046 0.69789 0.99056 0.0
C1316 C 0.76336 0.72775 0.02051 0.0
C1317 C 0.77637 0.6883 0.98847 0.0
C1318 C 0.71924 0.73436 0.03178 0.0
C1319 C 0.73036 0.78105 0.06982 0.0
N1320 N 0.75876 0.70323 1.00321 0.0
N1321 N 0.74802 0.76615 0.05511 0.0
H1322 H 0.28089 0.21754 0.59112 0.0
H1323 H 0.19041 0.27261 0.50309 0.0
H1324 H 0.3298 0.26702 0.53644 0.0
H1325 H 0.24084 0.34345 0.47877 0.0
H1326 H 0.22205 0.24706 0.52969 0.0
H1327 H 0.2471 0.2413 0.56651 0.0
C1328 C 0.28454 0.23327 0.57379 0.0
C1329 C 0.3083 0.24007 0.5658 0.0
C1330 C 0.22625 0.26848 0.51911 0.0
C1331 C 0.26941 0.26693 0.53664 0.0
C1332 C 0.20813 0.28302 0.50353 0.0
C1333 C 0.21281 0.31049 0.48876 0.0
C1334 C 0.24942 0.28148 0.52022 0.0
C1335 C 0.23631 0.32246 0.48993 0.0
C1336 C 0.26514 0.24665 0.55943 0.0
C1337 C 0.31182 0.26092 0.5433 0.0
N1338 N 0.25371 0.30786 0.50533 0.0
N1339 N 0.29263 0.27359 0.52957 0.0
H1340 H 0.77204 0.3428 0.03477 0.0
H1341 H 0.73417 0.21213 0.92239 0.0
H1342 H 0.8223 0.27941 0.99641 0.0
H1343 H 0.68283 0.2694 0.96651 0.0
H1344 H 0.7668 0.23807 0.94785 0.0
H1345 H 0.73926 0.31771 0.00869 0.0
C1346 C 0.77622 0.32366 0.02087 0.0
C1347 C 0.80004 0.31328 0.01785 0.0
C1348 C 0.7484 0.245 0.95194 0.0
C1349 C 0.76252 0.28441 0.98781 0.0
C1350 C 0.72973 0.23023 0.93732 0.0
C1351 C 0.70565 0.23855 0.94222 0.0
C1352 C 0.74305 0.26842 0.97162 0.0
C1353 C 0.70108 0.26214 0.96199 0.0
C1354 C 0.75747 0.3093 0.00599 0.0
C1355 C 0.80427 0.28827 0.99951 0.0
N1356 N 0.71956 0.27621 0.9759 0.0
N1357 N 0.78577 0.27479 0.98523 0.0
H1358 H 0.20991 0.67638 0.49032 0.0
H1359 H 0.29609 0.81748 0.47867 0.0
H1360 H 0.23657 0.71859 0.56701 0.0
H1361 H 0.31594 0.73517 0.43314 0.0
H1362 H 0.26641 0.78749 0.50575 0.0
H1363 H 0.24164 0.70308 0.46319 0.0
C1364 C 0.22255 0.69107 0.50143 0.0
C1365 C 0.22081 0.69509 0.53096 0.0
C1366 C 0.27724 0.77611 0.48973 0.0
C1367 C 0.25631 0.72634 0.50005 0.0
C1368 C 0.294 0.79317 0.47416 0.0
C1369 C 0.30841 0.77876 0.45358 0.0
C1370 C 0.2743 0.74465 0.48408 0.0
C1371 C 0.30516 0.7471 0.44883 0.0
C1372 C 0.24057 0.7062 0.48598 0.0
C1373 C 0.23749 0.71458 0.54433 0.0
N1374 N 0.2882 0.73111 0.46372 0.0
N1375 N 0.2543 0.72991 0.52871 0.0
H1376 H 0.1281 0.59829 0.01499 0.0
H1377 H 0.12728 0.41496 0.00736 0.0
H1378 H 0.14687 0.54803 0.93902 0.0
H1379 H 0.13936 0.46412 0.08577 0.0
H1380 H 0.12924 0.46399 0.98158 0.0
H1381 H 0.12737 0.5495 0.04133 0.0
C1382 C 0.13218 0.57708 1.0039 0.0
C1383 C 0.13763 0.57728 0.9748 0.0
C1384 C 0.13151 0.46396 1.00444 0.0
C1385 C 0.13638 0.52151 1.00458 0.0
C1386 C 0.13028 0.43604 0.01914 0.0
C1387 C 0.13322 0.43546 0.04872 0.0
C1388 C 0.13526 0.49149 0.01949 0.0
C1389 C 0.13714 0.46348 0.06293 0.0
C1390 C 0.13178 0.54929 0.01892 0.0
C1391 C 0.14273 0.54906 0.96147 0.0
N1392 N 0.13789 0.49037 0.04822 0.0
N1393 N 0.14178 0.52233 0.97639 0.0
H1394 H 0.88912 0.59627 0.5016 0.0
H1395 H 0.89015 0.41253 0.50435 0.0
H1396 H 0.87353 0.54395 0.57736 0.0
H1397 H 0.8756 0.46468 0.42821 0.0
H1398 H 0.88964 0.46068 0.5317 0.0
H1399 H 0.88955 0.54817 0.47427 0.0
C1400 C 0.88575 0.57471 0.51246 0.0
C1401 C 0.88118 0.57415 0.54176 0.0
C1402 C 0.88654 0.46148 0.509 0.0
C1403 C 0.88202 0.51913 0.51079 0.0
C1404 C 0.88692 0.43407 0.4934 0.0
C1405 C 0.88283 0.43459 0.464 0.0
C1406 C 0.88247 0.48959 0.495 0.0
C1407 C 0.87868 0.46317 0.45088 0.0
C1408 C 0.88596 0.54731 0.49687 0.0
C1409 C 0.87695 0.54552 0.55476 0.0
N1410 N 0.87874 0.48951 0.46643 0.0
N1411 N 0.87764 0.51916 0.53924 0.0
H1412 H 0.86305 0.41132 0.99513 0.0
H1413 H 0.86091 0.59508 0.01517 0.0
H1414 H 0.86513 0.45666 0.07678 0.0
H1415 H 0.86256 0.54971 0.93354 0.0
H1416 H 0.86051 0.54452 0.03822 0.0
H1417 H 0.86114 0.46185 0.97217 0.0
C1418 C 0.86304 0.4318 0.00826 0.0
C1419 C 0.86423 0.42954 0.03799 0.0
C1420 C 0.86086 0.54568 0.01525 0.0
C1421 C 0.86205 0.4876 0.01179 0.0
C1422 C 0.86101 0.57459 1.00207 0.0
C1423 C 0.86175 0.57685 0.97232 0.0
C1424 C 0.86142 0.51877 0.9986 0.0
C1425 C 0.86197 0.54932 0.95651 0.0
C1426 C 0.86196 0.4607 0.99513 0.0
C1427 C 0.86421 0.45706 0.05382 0.0
N1428 N 0.86185 0.52156 0.96981 0.0
N1429 N 0.86315 0.48481 0.04056 0.0
H1430 H 0.14815 0.45613 0.43007 0.0
H1431 H 0.15466 0.54431 0.57896 0.0
H1432 H 0.15224 0.4097 0.51108 0.0
H1433 H 0.15187 0.59099 0.49799 0.0
H1434 H 0.15474 0.49512 0.55436 0.0
H1435 H 0.15029 0.50543 0.45446 0.0
C1436 C 0.14957 0.45618 0.45302 0.0
C1437 C 0.15004 0.42847 0.46849 0.0
C1438 C 0.15421 0.51607 0.54192 0.0
C1439 C 0.15243 0.48539 0.49665 0.0
C1440 C 0.15421 0.54434 0.55597 0.0
C1441 C 0.1533 0.57211 0.54059 0.0
C1442 C 0.15322 0.51525 0.51217 0.0
C1443 C 0.15265 0.57032 0.5108 0.0
C1444 C 0.15078 0.4845 0.46693 0.0
C1445 C 0.15184 0.43034 0.49821 0.0
N1446 N 0.15255 0.5424 0.49759 0.0
N1447 N 0.15292 0.45828 0.51128 0.0
H1448 H 0.62032 0.09825 0.00801 0.0
H1449 H 0.62049 0.91437 0.00681 0.0
H1450 H 0.63816 0.04506 0.93347 0.0
H1451 H 0.63551 0.96692 0.08258 0.0
H1452 H 0.6201 0.96244 0.97938 0.0
H1453 H 0.61913 0.05033 0.0358 0.0
C1454 C 0.62393 0.07654 0.99751 0.0
C1455 C 0.62951 0.07566 0.96845 0.0
C1456 C 0.62346 0.96336 1.00203 0.0
C1457 C 0.62779 0.02096 0.99987 0.0
C1458 C 0.62361 0.93599 0.01767 0.0
C1459 C 0.62817 0.93664 0.04696 0.0
C1460 C 0.62744 0.99158 0.01588 0.0
C1461 C 0.63212 0.96533 0.05998 0.0
C1462 C 0.62331 0.04928 0.01335 0.0
C1463 C 0.63402 0.04688 0.95588 0.0
N1464 N 0.63154 0.99166 0.04439 0.0
N1465 N 0.63293 0.0207 0.9716 0.0
H1466 H 0.37641 0.96742 0.4262 0.0
H1467 H 0.37341 0.04759 0.5778 0.0
H1468 H 0.38974 0.91714 0.5037 0.0
H1469 H 0.392 0.09766 0.50169 0.0
H1470 H 0.37383 0.99973 0.55062 0.0
H1471 H 0.37661 0.01547 0.45324 0.0
C1472 C 0.37927 0.96645 0.44895 0.0
C1473 C 0.38303 0.93818 0.46275 0.0
C1474 C 0.37785 0.02117 0.53989 0.0
C1475 C 0.38312 0.99315 0.49376 0.0
C1476 C 0.37747 0.04856 0.55531 0.0
C1477 C 0.38263 0.07672 0.54196 0.0
C1478 C 0.38301 0.02189 0.51074 0.0
C1479 C 0.38798 0.07647 0.51282 0.0
C1480 C 0.37952 0.99392 0.4643 0.0
C1481 C 0.38682 0.9384 0.49221 0.0
N1482 N 0.38785 0.04947 0.49811 0.0
N1483 N 0.3866 0.96546 0.50679 0.0
H1484 H 0.36455 0.96077 0.07532 0.0
H1485 H 0.36704 0.05288 0.92829 0.0
H1486 H 0.36554 0.91571 0.9935 0.0
H1487 H 0.3638 0.09655 0.01065 0.0
H1488 H 0.36598 1.00268 0.95143 0.0
H1489 H 0.36375 0.01037 0.05165 0.0
C1490 C 0.36451 0.96118 0.05232 0.0
C1491 C 0.36507 0.93375 0.03644 0.0
C1492 C 0.36542 0.02322 0.96444 0.0
C1493 C 0.36427 0.99115 0.00905 0.0
C1494 C 0.36602 0.05201 0.95125 0.0
C1495 C 0.36549 0.0792 0.96751 0.0
C1496 C 0.36436 0.0214 0.99417 0.0
C1497 C 0.36421 0.07636 0.99719 0.0
C1498 C 0.36407 0.9897 0.0388 0.0
C1499 C 0.36506 0.93613 0.00667 0.0
N1500 N 0.36374 0.04803 0.00952 0.0
N1501 N 0.36473 0.96432 0.99395 0.0
H1502 H 0.64967 0.094 0.4934 0.0
H1503 H 0.6503 0.91051 0.51456 0.0
H1504 H 0.64644 0.04932 0.57529 0.0
H1505 H 0.64767 0.95502 0.43257 0.0
H1506 H 0.65068 0.96122 0.5372 0.0
H1507 H 0.65069 0.0433 0.47071 0.0
C1508 C 0.64926 0.07362 0.50665 0.0
C1509 C 0.64802 0.07611 0.53636 0.0
C1510 C 0.65007 0.95986 0.51424 0.0
C1511 C 0.64916 0.01786 0.51045 0.0
C1512 C 0.6499 0.93086 0.50128 0.0
C1513 C 0.649 0.92831 0.47155 0.0
C1514 C 0.64938 0.98661 0.49741 0.0
C1515 C 0.64841 0.95567 0.45553 0.0
C1516 C 0.6498 0.04463 0.49365 0.0
C1517 C 0.64744 0.04873 0.55234 0.0
N1518 N 0.64862 0.98356 0.46864 0.0
N1519 N 0.64803 0.02086 0.53921 0.0
loop_
_geom_bond_atom_site_label_1
_geom_bond_atom_site_label_2
_geom_bond_distance
_geom_bond_site_symmetry_2
_ccdc_geom_bond_type
Co0 O2 2.143 . S
Co0 O8 2.074 . S
Co0 O11 2.093 . S
Co0 O24 2.097 . S
Co0 N41 2.151 . S
Co0 N49 2.214 . S
Co1 O2 2.160 . S
Co1 O7 2.058 . S
Co1 O17 2.057 . S
Co1 O32 2.037 . S
Co1 N36 2.145 . S
Co1 N57 2.257 . S
O2 Co0 2.143 . S
O2 Co1 2.160 . S
C3 O4 1.278 . S
C3 O11 1.224 . S
O4 C3 1.278 . S
C5 O6 1.245 . S
C5 O17 1.232 . S
O6 C5 1.245 . S
O7 Co1 2.058 . S
O7 C33 1.269 . S
O8 Co0 2.074 . S
O8 C33 1.257 . S
H9 C34 0.930 . S
H10 C40 0.930 . S
O11 Co0 2.093 . S
O11 C3 1.224 . S
H12 C44 0.929 . S
H13 C46 0.930 . S
H14 C47 0.930 . S
H15 C45 0.929 . S
H16 C48 0.928 . S
O17 Co1 2.057 . S
O17 C5 1.232 . S
H18 C37 0.929 . S
H19 C38 0.929 . S
H20 C50 0.931 . S
H21 C42 0.929 . S
H22 C51 0.930 . S
H23 C43 0.931 . S
O24 Co0 2.097 . S
O24 C52 1.214 . S
H25 C53 0.929 . S
H26 C54 0.929 . S
H27 C55 0.930 . S
H28 C56 0.929 . S
H29 C58 0.930 . S
H30 C35 0.930 . S
H31 C39 0.930 . S
O32 Co1 2.037 . S
O32 C52 1.234 . S
C33 O7 1.269 . S
C33 O8 1.257 . S
C34 H9 0.930 . S
C34 C37 1.388 . S
C34 C39 1.418 . S
C35 H30 0.930 . S
C35 C38 1.404 . S
C35 C39 1.353 . S
N36 Co1 2.145 . S
N36 C37 1.397 . S
N36 C38 1.334 . S
C37 H18 0.929 . S
C37 C34 1.388 . S
C37 N36 1.397 . S
C38 H19 0.929 . S
C38 C35 1.404 . S
C38 N36 1.334 . S
C39 H31 0.930 . S
C39 C34 1.418 . S
C39 C35 1.353 . S
C40 H10 0.930 . S
C40 N41 1.330 . S
C40 C42 1.446 . S
N41 Co0 2.151 . S
N41 C40 1.330 . S
N41 C45 1.418 . S
C42 H21 0.929 . S
C42 C40 1.446 . S
C42 C43 1.332 . S
C43 H23 0.931 . S
C43 C42 1.332 . S
C43 C44 1.267 . S
C44 H12 0.929 . S
C44 C43 1.267 . S
C44 C45 1.251 . S
C45 H15 0.929 . S
C45 N41 1.418 . S
C45 C44 1.251 . S
C46 H13 0.930 . S
C46 C48 1.406 . S
C46 C51 1.261 . S
C47 H14 0.930 . S
C47 N49 1.325 . S
C47 C50 1.357 . S
C48 H16 0.928 . S
C48 C46 1.406 . S
C48 N49 1.261 . S
N49 Co0 2.214 . S
N49 C47 1.325 . S
N49 C48 1.261 . S
C50 H20 0.931 . S
C50 C47 1.357 . S
C50 C51 1.312 . S
C51 H22 0.930 . S
C51 C46 1.261 . S
C51 C50 1.312 . S
C52 O24 1.214 . S
C52 O32 1.234 . S
C53 H25 0.929 . S
C53 C56 1.391 . S
C53 C58 1.391 1_556 S
C54 H26 0.929 . S
C54 C55 1.390 1_554 S
C54 N57 1.391 . S
C55 H27 0.930 . S
C55 C54 1.390 1_556 S
C55 C56 1.392 . S
C56 H28 0.929 . S
C56 C53 1.391 . S
C56 C55 1.392 . S
N57 Co1 2.257 . S
N57 C54 1.391 . S
N57 C58 1.388 . S
C58 H29 0.930 . S
C58 C53 1.391 1_554 S
C58 N57 1.388 . S
Co59 O61 2.143 . S
Co59 O67 2.074 . S
Co59 O70 2.093 . S
Co59 O83 2.097 . S
Co59 N100 2.151 . S
Co59 N108 2.214 . S
Co60 O61 2.160 . S
Co60 O66 2.058 . S
Co60 O76 2.057 . S
Co60 O91 2.037 . S
Co60 N95 2.145 . S
Co60 N116 2.257 . S
O61 Co59 2.143 . S
O61 Co60 2.160 . S
C62 O63 1.278 . S
C62 O70 1.224 . S
O63 C62 1.278 . S
C64 O65 1.245 . S
C64 O76 1.232 . S
O65 C64 1.245 . S
O66 Co60 2.058 . S
O66 C92 1.269 . S
O67 Co59 2.074 . S
O67 C92 1.257 . S
H68 C93 0.930 . S
H69 C99 0.930 . S
O70 Co59 2.093 . S
O70 C62 1.224 . S
H71 C103 0.929 . S
H72 C105 0.930 . S
H73 C106 0.930 . S
H74 C104 0.929 . S
H75 C107 0.928 . S
O76 Co60 2.057 . S
O76 C64 1.232 . S
H77 C96 0.929 . S
H78 C97 0.929 . S
H79 C109 0.931 . S
H80 C101 0.929 . S
H81 C110 0.930 . S
H82 C102 0.931 . S
O83 Co59 2.097 . S
O83 C111 1.214 . S
H84 C112 0.929 . S
H85 C113 0.929 . S
H86 C114 0.930 . S
H87 C115 0.929 . S
H88 C117 0.930 . S
H89 C94 0.930 . S
H90 C98 0.930 . S
O91 Co60 2.037 . S
O91 C111 1.234 . S
C92 O66 1.269 . S
C92 O67 1.257 . S
C93 H68 0.930 . S
C93 C96 1.388 . S
C93 C98 1.418 . S
C94 H89 0.930 . S
C94 C97 1.404 . S
C94 C98 1.353 . S
N95 Co60 2.145 . S
N95 C96 1.397 . S
N95 C97 1.334 . S
C96 H77 0.929 . S
C96 C93 1.388 . S
C96 N95 1.397 . S
C97 H78 0.929 . S
C97 C94 1.404 . S
C97 N95 1.334 . S
C98 H90 0.930 . S
C98 C93 1.418 . S
C98 C94 1.353 . S
C99 H69 0.930 . S
C99 N100 1.330 . S
C99 C101 1.446 . S
N100 Co59 2.151 . S
N100 C99 1.330 . S
N100 C104 1.418 . S
C101 H80 0.929 . S
C101 C99 1.446 . S
C101 C102 1.332 . S
C102 H82 0.931 . S
C102 C101 1.332 . S
C102 C103 1.267 . S
C103 H71 0.929 . S
C103 C102 1.267 . S
C103 C104 1.251 . S
C104 H74 0.929 . S
C104 N100 1.418 . S
C104 C103 1.251 . S
C105 H72 0.930 . S
C105 C107 1.406 . S
C105 C110 1.261 . S
C106 H73 0.930 . S
C106 N108 1.325 . S
C106 C109 1.357 . S
C107 H75 0.928 . S
C107 C105 1.406 . S
C107 N108 1.261 . S
N108 Co59 2.214 . S
N108 C106 1.325 . S
N108 C107 1.261 . S
C109 H79 0.931 . S
C109 C106 1.357 . S
C109 C110 1.312 . S
C110 H81 0.930 . S
C110 C105 1.261 . S
C110 C109 1.312 . S
C111 O83 1.214 . S
C111 O91 1.234 . S
C112 H84 0.929 . S
C112 C115 1.391 . S
C112 C117 1.391 . S
C113 H85 0.929 . S
C113 C114 1.390 . S
C113 N116 1.391 . S
C114 H86 0.930 . S
C114 C113 1.390 . S
C114 C115 1.392 . S
C115 H87 0.929 . S
C115 C112 1.391 . S
C115 C114 1.392 . S
N116 Co60 2.257 . S
N116 C113 1.391 . S
N116 C117 1.388 . S
C117 H88 0.930 . S
C117 C112 1.391 . S
C117 N116 1.388 . S
Co118 O120 2.143 . S
Co118 O126 2.074 . S
Co118 O129 2.093 . S
Co118 O142 2.097 . S
Co118 N159 2.151 . S
Co118 N167 2.214 . S
Co119 O120 2.160 . S
Co119 O125 2.058 . S
Co119 O135 2.057 . S
Co119 O150 2.037 . S
Co119 N154 2.145 . S
Co119 N175 2.257 . S
O120 Co118 2.143 . S
O120 Co119 2.160 . S
C121 O122 1.278 . S
C121 O129 1.224 . S
O122 C121 1.278 . S
C123 O124 1.245 . S
C123 O135 1.232 . S
O124 C123 1.245 . S
O125 Co119 2.058 . S
O125 C151 1.269 . S
O126 Co118 2.074 . S
O126 C151 1.257 . S
H127 C152 0.930 . S
H128 C158 0.930 . S
O129 Co118 2.093 . S
O129 C121 1.224 . S
H130 C162 0.929 . S
H131 C164 0.930 . S
H132 C165 0.930 . S
H133 C163 0.929 . S
H134 C166 0.928 . S
O135 Co119 2.057 . S
O135 C123 1.232 . S
H136 C155 0.929 . S
H137 C156 0.929 . S
H138 C168 0.931 . S
H139 C160 0.929 . S
H140 C169 0.930 . S
H141 C161 0.931 . S
O142 Co118 2.097 . S
O142 C170 1.214 . S
H143 C171 0.929 . S
H144 C172 0.929 . S
H145 C173 0.930 . S
H146 C174 0.929 . S
H147 C176 0.930 . S
H148 C153 0.930 . S
H149 C157 0.930 . S
O150 Co119 2.037 . S
O150 C170 1.234 . S
C151 O125 1.269 . S
C151 O126 1.257 . S
C152 H127 0.930 . S
C152 C155 1.388 . S
C152 C157 1.418 . S
C153 H148 0.930 . S
C153 C156 1.404 . S
C153 C157 1.353 . S
N154 Co119 2.145 . S
N154 C155 1.397 . S
N154 C156 1.334 . S
C155 H136 0.929 . S
C155 C152 1.388 . S
C155 N154 1.397 . S
C156 H137 0.929 . S
C156 C153 1.404 . S
C156 N154 1.334 . S
C157 H149 0.930 . S
C157 C152 1.418 . S
C157 C153 1.353 . S
C158 H128 0.930 . S
C158 N159 1.330 . S
C158 C160 1.446 . S
N159 Co118 2.151 . S
N159 C158 1.330 . S
N159 C163 1.418 . S
C160 H139 0.929 . S
C160 C158 1.446 . S
C160 C161 1.332 . S
C161 H141 0.931 . S
C161 C160 1.332 . S
C161 C162 1.267 . S
C162 H130 0.929 . S
C162 C161 1.267 . S
C162 C163 1.251 . S
C163 H133 0.929 . S
C163 N159 1.418 . S
C163 C162 1.251 . S
C164 H131 0.930 . S
C164 C166 1.406 . S
C164 C169 1.261 . S
C165 H132 0.930 . S
C165 N167 1.325 . S
C165 C168 1.357 . S
C166 H134 0.928 . S
C166 C164 1.406 . S
C166 N167 1.261 . S
N167 Co118 2.214 . S
N167 C165 1.325 . S
N167 C166 1.261 . S
C168 H138 0.931 . S
C168 C165 1.357 . S
C168 C169 1.312 . S
C169 H140 0.930 . S
C169 C164 1.261 . S
C169 C168 1.312 . S
C170 O142 1.214 . S
C170 O150 1.234 . S
C171 H143 0.929 . S
C171 C174 1.391 . S
C171 C176 1.391 1_554 S
C172 H144 0.929 . S
C172 C173 1.390 1_556 S
C172 N175 1.391 . S
C173 H145 0.930 . S
C173 C172 1.390 1_554 S
C173 C174 1.392 . S
C174 H146 0.929 . S
C174 C171 1.391 . S
C174 C173 1.392 . S
N175 Co119 2.257 . S
N175 C172 1.391 . S
N175 C176 1.388 . S
C176 H147 0.930 . S
C176 C171 1.391 1_556 S
C176 N175 1.388 . S
Co177 O179 2.143 . S
Co177 O185 2.074 . S
Co177 O188 2.093 . S
Co177 O201 2.097 . S
Co177 N218 2.151 . S
Co177 N226 2.214 . S
Co178 O179 2.160 . S
Co178 O184 2.058 . S
Co178 O194 2.057 . S
Co178 O209 2.037 . S
Co178 N213 2.145 . S
Co178 N234 2.257 . S
O179 Co177 2.143 . S
O179 Co178 2.160 . S
C180 O181 1.278 . S
C180 O188 1.224 . S
O181 C180 1.278 . S
C182 O183 1.245 . S
C182 O194 1.232 . S
O183 C182 1.245 . S
O184 Co178 2.058 . S
O184 C210 1.269 . S
O185 Co177 2.074 . S
O185 C210 1.257 . S
H186 C211 0.930 . S
H187 C217 0.930 . S
O188 Co177 2.093 . S
O188 C180 1.224 . S
H189 C221 0.929 . S
H190 C223 0.930 . S
H191 C224 0.930 . S
H192 C222 0.929 . S
H193 C225 0.928 . S
O194 Co178 2.057 . S
O194 C182 1.232 . S
H195 C214 0.929 . S
H196 C215 0.929 . S
H197 C227 0.931 . S
H198 C219 0.929 . S
H199 C228 0.930 . S
H200 C220 0.931 . S
O201 Co177 2.097 . S
O201 C229 1.214 . S
H202 C230 0.929 . S
H203 C231 0.929 . S
H204 C232 0.930 . S
H205 C233 0.929 . S
H206 C235 0.930 . S
H207 C212 0.930 . S
H208 C216 0.930 . S
O209 Co178 2.037 . S
O209 C229 1.234 . S
C210 O184 1.269 . S
C210 O185 1.257 . S
C211 H186 0.930 . S
C211 C214 1.388 . S
C211 C216 1.418 . S
C212 H207 0.930 . S
C212 C215 1.404 . S
C212 C216 1.353 . S
N213 Co178 2.145 . S
N213 C214 1.397 . S
N213 C215 1.334 . S
C214 H195 0.929 . S
C214 C211 1.388 . S
C214 N213 1.397 . S
C215 H196 0.929 . S
C215 C212 1.404 . S
C215 N213 1.334 . S
C216 H208 0.930 . S
C216 C211 1.418 . S
C216 C212 1.353 . S
C217 H187 0.930 . S
C217 N218 1.330 . S
C217 C219 1.446 . S
N218 Co177 2.151 . S
N218 C217 1.330 . S
N218 C222 1.418 . S
C219 H198 0.929 . S
C219 C217 1.446 . S
C219 C220 1.332 . S
C220 H200 0.931 . S
C220 C219 1.332 . S
C220 C221 1.267 . S
C221 H189 0.929 . S
C221 C220 1.267 . S
C221 C222 1.251 . S
C222 H192 0.929 . S
C222 N218 1.418 . S
C222 C221 1.251 . S
C223 H190 0.930 . S
C223 C225 1.406 . S
C223 C228 1.261 . S
C224 H191 0.930 . S
C224 N226 1.325 . S
C224 C227 1.357 . S
C225 H193 0.928 . S
C225 C223 1.406 . S
C225 N226 1.261 . S
N226 Co177 2.214 . S
N226 C224 1.325 . S
N226 C225 1.261 . S
C227 H197 0.931 . S
C227 C224 1.357 . S
C227 C228 1.312 . S
C228 H199 0.930 . S
C228 C223 1.261 . S
C228 C227 1.312 . S
C229 O201 1.214 . S
C229 O209 1.234 . S
C230 H202 0.929 . S
C230 C233 1.391 . S
C230 C235 1.391 . S
C231 H203 0.929 . S
C231 C232 1.390 . S
C231 N234 1.391 . S
C232 H204 0.930 . S
C232 C231 1.390 . S
C232 C233 1.392 . S
C233 H205 0.929 . S
C233 C230 1.391 . S
C233 C232 1.392 . S
N234 Co178 2.257 . S
N234 C231 1.391 . S
N234 C235 1.388 . S
C235 H206 0.930 . S
C235 C230 1.391 . S
C235 N234 1.388 . S
Co236 O238 2.143 . S
Co236 O244 2.074 . S
Co236 O247 2.093 . S
Co236 O260 2.097 . S
Co236 N277 2.151 . S
Co236 N285 2.214 . S
Co237 O238 2.160 . S
Co237 O243 2.058 . S
Co237 O253 2.057 . S
Co237 O268 2.037 . S
Co237 N272 2.145 . S
Co237 N293 2.257 . S
O238 Co236 2.143 . S
O238 Co237 2.160 . S
C239 O240 1.278 . S
C239 O247 1.224 . S
O240 C239 1.278 . S
C241 O242 1.245 . S
C241 O253 1.232 . S
O242 C241 1.245 . S
O243 Co237 2.058 . S
O243 C269 1.269 . S
O244 Co236 2.074 . S
O244 C269 1.257 . S
H245 C270 0.930 . S
H246 C276 0.930 . S
O247 Co236 2.093 . S
O247 C239 1.224 . S
H248 C280 0.929 . S
H249 C282 0.930 . S
H250 C283 0.930 . S
H251 C281 0.929 . S
H252 C284 0.928 . S
O253 Co237 2.057 . S
O253 C241 1.232 . S
H254 C273 0.929 1_556 S
H255 C274 0.929 1_556 S
H256 C286 0.931 . S
H257 C278 0.929 . S
H258 C287 0.930 . S
H259 C279 0.931 . S
O260 Co236 2.097 . S
O260 C288 1.214 . S
H261 C289 0.929 . S
H262 C290 0.929 . S
H263 C291 0.930 . S
H264 C292 0.929 . S
H265 C294 0.930 . S
H266 C271 0.930 . S
H267 C275 0.930 . S
O268 Co237 2.037 . S
O268 C288 1.234 . S
C269 O243 1.269 . S
C269 O244 1.257 . S
C270 H245 0.930 . S
C270 C273 1.388 . S
C270 C275 1.418 . S
C271 H266 0.930 . S
C271 C274 1.404 . S
C271 C275 1.353 . S
N272 Co237 2.145 . S
N272 C273 1.397 1_556 S
N272 C274 1.334 1_556 S
C273 H254 0.929 1_554 S
C273 C270 1.388 . S
C273 N272 1.397 1_554 S
C274 H255 0.929 1_554 S
C274 C271 1.404 . S
C274 N272 1.334 1_554 S
C275 H267 0.930 . S
C275 C270 1.418 . S
C275 C271 1.353 . S
C276 H246 0.930 . S
C276 N277 1.330 . S
C276 C278 1.446 . S
N277 Co236 2.151 . S
N277 C276 1.330 . S
N277 C281 1.418 . S
C278 H257 0.929 . S
C278 C276 1.446 . S
C278 C279 1.332 . S
C279 H259 0.931 . S
C279 C278 1.332 . S
C279 C280 1.267 . S
C280 H248 0.929 . S
C280 C279 1.267 . S
C280 C281 1.251 . S
C281 H251 0.929 . S
C281 N277 1.418 . S
C281 C280 1.251 . S
C282 H249 0.930 . S
C282 C284 1.406 . S
C282 C287 1.261 . S
C283 H250 0.930 . S
C283 N285 1.325 . S
C283 C286 1.357 . S
C284 H252 0.928 . S
C284 C282 1.406 . S
C284 N285 1.261 . S
N285 Co236 2.214 . S
N285 C283 1.325 . S
N285 C284 1.261 . S
C286 H256 0.931 . S
C286 C283 1.357 . S
C286 C287 1.312 . S
C287 H258 0.930 . S
C287 C282 1.261 . S
C287 C286 1.312 . S
C288 O260 1.214 . S
C288 O268 1.234 . S
C289 H261 0.929 . S
C289 C292 1.391 . S
C289 C294 1.391 . S
C290 H262 0.929 . S
C290 C291 1.390 . S
C290 N293 1.391 . S
C291 H263 0.930 . S
C291 C290 1.390 . S
C291 C292 1.392 . S
C292 H264 0.929 . S
C292 C289 1.391 . S
C292 C291 1.392 . S
N293 Co237 2.257 . S
N293 C290 1.391 . S
N293 C294 1.388 . S
C294 H265 0.930 . S
C294 C289 1.391 . S
C294 N293 1.388 . S
Co295 O297 2.143 . S
Co295 O303 2.074 . S
Co295 O306 2.093 . S
Co295 O319 2.097 . S
Co295 N336 2.151 . S
Co295 N344 2.214 . S
Co296 O297 2.160 . S
Co296 O302 2.058 . S
Co296 O312 2.057 . S
Co296 O327 2.037 . S
Co296 N331 2.145 . S
Co296 N352 2.257 . S
O297 Co295 2.143 . S
O297 Co296 2.160 . S
C298 O299 1.278 . S
C298 O306 1.224 . S
O299 C298 1.278 . S
C300 O301 1.245 . S
C300 O312 1.232 . S
O301 C300 1.245 . S
O302 Co296 2.058 . S
O302 C328 1.269 . S
O303 Co295 2.074 . S
O303 C328 1.257 . S
H304 C329 0.930 . S
H305 C335 0.930 . S
O306 Co295 2.093 . S
O306 C298 1.224 . S
H307 C339 0.929 . S
H308 C341 0.930 . S
H309 C342 0.930 . S
H310 C340 0.929 . S
H311 C343 0.928 . S
O312 Co296 2.057 . S
O312 C300 1.232 . S
H313 C332 0.929 . S
H314 C333 0.929 . S
H315 C345 0.931 . S
H316 C337 0.929 . S
H317 C346 0.930 . S
H318 C338 0.931 . S
O319 Co295 2.097 . S
O319 C347 1.214 . S
H320 C348 0.929 . S
H321 C349 0.929 . S
H322 C350 0.930 . S
H323 C351 0.929 . S
H324 C353 0.930 . S
H325 C330 0.930 . S
H326 C334 0.930 . S
O327 Co296 2.037 . S
O327 C347 1.234 . S
C328 O302 1.269 . S
C328 O303 1.257 . S
C329 H304 0.930 . S
C329 C332 1.388 . S
C329 C334 1.418 . S
C330 H325 0.930 . S
C330 C333 1.404 . S
C330 C334 1.353 . S
N331 Co296 2.145 . S
N331 C332 1.397 . S
N331 C333 1.334 . S
C332 H313 0.929 . S
C332 C329 1.388 . S
C332 N331 1.397 . S
C333 H314 0.929 . S
C333 C330 1.404 . S
C333 N331 1.334 . S
C334 H326 0.930 . S
C334 C329 1.418 . S
C334 C330 1.353 . S
C335 H305 0.930 . S
C335 N336 1.330 . S
C335 C337 1.446 . S
N336 Co295 2.151 . S
N336 C335 1.330 . S
N336 C340 1.418 . S
C337 H316 0.929 . S
C337 C335 1.446 . S
C337 C338 1.332 . S
C338 H318 0.931 . S
C338 C337 1.332 . S
C338 C339 1.267 . S
C339 H307 0.929 . S
C339 C338 1.267 . S
C339 C340 1.251 . S
C340 H310 0.929 . S
C340 N336 1.418 . S
C340 C339 1.251 . S
C341 H308 0.930 . S
C341 C343 1.406 . S
C341 C346 1.261 . S
C342 H309 0.930 . S
C342 N344 1.325 . S
C342 C345 1.357 . S
C343 H311 0.928 . S
C343 C341 1.406 . S
C343 N344 1.261 . S
N344 Co295 2.214 . S
N344 C342 1.325 . S
N344 C343 1.261 . S
C345 H315 0.931 . S
C345 C342 1.357 . S
C345 C346 1.312 . S
C346 H317 0.930 . S
C346 C341 1.261 . S
C346 C345 1.312 . S
C347 O319 1.214 . S
C347 O327 1.234 . S
C348 H320 0.929 . S
C348 C351 1.391 . S
C348 C353 1.391 . S
C349 H321 0.929 . S
C349 C350 1.390 . S
C349 N352 1.391 . S
C350 H322 0.930 . S
C350 C349 1.390 . S
C350 C351 1.392 . S
C351 H323 0.929 . S
C351 C348 1.391 . S
C351 C350 1.392 . S
N352 Co296 2.257 . S
N352 C349 1.391 . S
N352 C353 1.388 . S
C353 H324 0.930 . S
C353 C348 1.391 . S
C353 N352 1.388 . S
Co354 O356 2.143 . S
Co354 O362 2.074 . S
Co354 O365 2.093 . S
Co354 O378 2.097 . S
Co354 N395 2.151 . S
Co354 N403 2.214 . S
Co355 O356 2.160 . S
Co355 O361 2.058 . S
Co355 O371 2.057 . S
Co355 O386 2.037 . S
Co355 N390 2.145 . S
Co355 N411 2.257 . S
O356 Co354 2.143 . S
O356 Co355 2.160 . S
C357 O358 1.278 . S
C357 O365 1.224 . S
O358 C357 1.278 . S
C359 O360 1.245 . S
C359 O371 1.232 . S
O360 C359 1.245 . S
O361 Co355 2.058 . S
O361 C387 1.269 . S
O362 Co354 2.074 . S
O362 C387 1.257 . S
H363 C388 0.930 . S
H364 C394 0.930 . S
O365 Co354 2.093 . S
O365 C357 1.224 . S
H366 C398 0.929 . S
H367 C400 0.930 . S
H368 C401 0.930 . S
H369 C399 0.929 . S
H370 C402 0.928 . S
O371 Co355 2.057 . S
O371 C359 1.232 . S
H372 C391 0.929 1_554 S
H373 C392 0.929 1_554 S
H374 C404 0.931 . S
H375 C396 0.929 . S
H376 C405 0.930 . S
H377 C397 0.931 . S
O378 Co354 2.097 . S
O378 C406 1.214 . S
H379 C407 0.929 . S
H380 C408 0.929 . S
H381 C409 0.930 . S
H382 C410 0.929 . S
H383 C412 0.930 . S
H384 C389 0.930 . S
H385 C393 0.930 . S
O386 Co355 2.037 . S
O386 C406 1.234 . S
C387 O361 1.269 . S
C387 O362 1.257 . S
C388 H363 0.930 . S
C388 C391 1.388 . S
C388 C393 1.418 . S
C389 H384 0.930 . S
C389 C392 1.404 . S
C389 C393 1.353 . S
N390 Co355 2.145 . S
N390 C391 1.397 1_554 S
N390 C392 1.334 1_554 S
C391 H372 0.929 1_556 S
C391 C388 1.388 . S
C391 N390 1.397 1_556 S
C392 H373 0.929 1_556 S
C392 C389 1.404 . S
C392 N390 1.334 1_556 S
C393 H385 0.930 . S
C393 C388 1.418 . S
C393 C389 1.353 . S
C394 H364 0.930 . S
C394 N395 1.330 . S
C394 C396 1.446 . S
N395 Co354 2.151 . S
N395 C394 1.330 . S
N395 C399 1.418 . S
C396 H375 0.929 . S
C396 C394 1.446 . S
C396 C397 1.332 . S
C397 H377 0.931 . S
C397 C396 1.332 . S
C397 C398 1.267 . S
C398 H366 0.929 . S
C398 C397 1.267 . S
C398 C399 1.251 . S
C399 H369 0.929 . S
C399 N395 1.418 . S
C399 C398 1.251 . S
C400 H367 0.930 . S
C400 C402 1.406 . S
C400 C405 1.261 . S
C401 H368 0.930 . S
C401 N403 1.325 . S
C401 C404 1.357 . S
C402 H370 0.928 . S
C402 C400 1.406 . S
C402 N403 1.261 . S
N403 Co354 2.214 . S
N403 C401 1.325 . S
N403 C402 1.261 . S
C404 H374 0.931 . S
C404 C401 1.357 . S
C404 C405 1.312 . S
C405 H376 0.930 . S
C405 C400 1.261 . S
C405 C404 1.312 . S
C406 O378 1.214 . S
C406 O386 1.234 . S
C407 H379 0.929 . S
C407 C410 1.391 . S
C407 C412 1.391 . S
C408 H380 0.929 . S
C408 C409 1.390 . S
C408 N411 1.391 . S
C409 H381 0.930 . S
C409 C408 1.390 . S
C409 C410 1.392 . S
C410 H382 0.929 . S
C410 C407 1.391 . S
C410 C409 1.392 . S
N411 Co355 2.257 . S
N411 C408 1.391 . S
N411 C412 1.388 . S
C412 H383 0.930 . S
C412 C407 1.391 . S
C412 N411 1.388 . S
Co413 O415 2.143 . S
Co413 O421 2.074 . S
Co413 O424 2.093 . S
Co413 O437 2.097 . S
Co413 N454 2.151 . S
Co413 N462 2.214 . S
Co414 O415 2.160 . S
Co414 O420 2.058 . S
Co414 O430 2.057 . S
Co414 O445 2.037 . S
Co414 N449 2.145 . S
Co414 N470 2.257 . S
O415 Co413 2.143 . S
O415 Co414 2.160 . S
C416 O417 1.278 . S
C416 O424 1.224 . S
O417 C416 1.278 . S
C418 O419 1.245 . S
C418 O430 1.232 . S
O419 C418 1.245 . S
O420 Co414 2.058 . S
O420 C446 1.269 . S
O421 Co413 2.074 . S
O421 C446 1.257 . S
H422 C447 0.930 . S
H423 C453 0.930 . S
O424 Co413 2.093 . S
O424 C416 1.224 . S
H425 C457 0.929 . S
H426 C459 0.930 . S
H427 C460 0.930 . S
H428 C458 0.929 . S
H429 C461 0.928 . S
O430 Co414 2.057 . S
O430 C418 1.232 . S
H431 C450 0.929 . S
H432 C451 0.929 . S
H433 C463 0.931 . S
H434 C455 0.929 . S
H435 C464 0.930 . S
H436 C456 0.931 . S
O437 Co413 2.097 . S
O437 C465 1.214 . S
H438 C466 0.929 . S
H439 C467 0.929 . S
H440 C468 0.930 . S
H441 C469 0.929 . S
H442 C471 0.930 . S
H443 C448 0.930 . S
H444 C452 0.930 . S
O445 Co414 2.037 . S
O445 C465 1.234 . S
C446 O420 1.269 . S
C446 O421 1.257 . S
C447 H422 0.930 . S
C447 C450 1.388 . S
C447 C452 1.418 . S
C448 H443 0.930 . S
C448 C451 1.404 . S
C448 C452 1.353 . S
N449 Co414 2.145 . S
N449 C450 1.397 . S
N449 C451 1.334 . S
C450 H431 0.929 . S
C450 C447 1.388 . S
C450 N449 1.397 . S
C451 H432 0.929 . S
C451 C448 1.404 . S
C451 N449 1.334 . S
C452 H444 0.930 . S
C452 C447 1.418 . S
C452 C448 1.353 . S
C453 H423 0.930 . S
C453 N454 1.330 . S
C453 C455 1.446 . S
N454 Co413 2.151 . S
N454 C453 1.330 . S
N454 C458 1.418 . S
C455 H434 0.929 . S
C455 C453 1.446 . S
C455 C456 1.332 . S
C456 H436 0.931 . S
C456 C455 1.332 . S
C456 C457 1.267 . S
C457 H425 0.929 . S
C457 C456 1.267 . S
C457 C458 1.251 . S
C458 H428 0.929 . S
C458 N454 1.418 . S
C458 C457 1.251 . S
C459 H426 0.930 . S
C459 C461 1.406 . S
C459 C464 1.261 . S
C460 H427 0.930 . S
C460 N462 1.325 . S
C460 C463 1.357 . S
C461 H429 0.928 . S
C461 C459 1.406 . S
C461 N462 1.261 . S
N462 Co413 2.214 . S
N462 C460 1.325 . S
N462 C461 1.261 . S
C463 H433 0.931 . S
C463 C460 1.357 . S
C463 C464 1.312 . S
C464 H435 0.930 . S
C464 C459 1.261 . S
C464 C463 1.312 . S
C465 O437 1.214 . S
C465 O445 1.234 . S
C466 H438 0.929 . S
C466 C469 1.391 . S
C466 C471 1.391 . S
C467 H439 0.929 . S
C467 C468 1.390 . S
C467 N470 1.391 . S
C468 H440 0.930 . S
C468 C467 1.390 . S
C468 C469 1.392 . S
C469 H441 0.929 . S
C469 C466 1.391 . S
C469 C468 1.392 . S
N470 Co414 2.257 . S
N470 C467 1.391 . S
N470 C471 1.388 . S
C471 H442 0.930 . S
C471 C466 1.391 . S
C471 N470 1.388 . S
Co472 O474 2.143 . S
Co472 O480 2.074 . S
Co472 O483 2.093 . S
Co472 O496 2.097 . S
Co472 N513 2.151 . S
Co472 N521 2.214 . S
Co473 O474 2.160 . S
Co473 O479 2.058 . S
Co473 O489 2.057 . S
Co473 O504 2.037 . S
Co473 N508 2.145 . S
Co473 N529 2.257 . S
O474 Co472 2.143 . S
O474 Co473 2.160 . S
C475 O476 1.278 . S
C475 O483 1.224 . S
O476 C475 1.278 . S
C477 O478 1.245 . S
C477 O489 1.232 . S
O478 C477 1.245 . S
O479 Co473 2.058 . S
O479 C505 1.269 . S
O480 Co472 2.074 . S
O480 C505 1.257 . S
H481 C506 0.930 . S
H482 C512 0.930 . S
O483 Co472 2.093 . S
O483 C475 1.224 . S
H484 C516 0.929 . S
H485 C518 0.930 . S
H486 C519 0.930 . S
H487 C517 0.929 . S
H488 C520 0.928 . S
O489 Co473 2.057 . S
O489 C477 1.232 . S
H490 C509 0.929 . S
H491 C510 0.929 . S
H492 C522 0.931 . S
H493 C514 0.929 . S
H494 C523 0.930 . S
H495 C515 0.931 . S
O496 Co472 2.097 . S
O496 C524 1.214 . S
H497 C525 0.929 . S
H498 C526 0.929 . S
H499 C527 0.930 . S
H500 C528 0.929 . S
H501 C530 0.930 . S
H502 C507 0.930 . S
H503 C511 0.930 . S
O504 Co473 2.037 . S
O504 C524 1.234 . S
C505 O479 1.269 . S
C505 O480 1.257 . S
C506 H481 0.930 . S
C506 C509 1.388 . S
C506 C511 1.418 . S
C507 H502 0.930 . S
C507 C510 1.404 . S
C507 C511 1.353 . S
N508 Co473 2.145 . S
N508 C509 1.397 . S
N508 C510 1.334 . S
C509 H490 0.929 . S
C509 C506 1.388 . S
C509 N508 1.397 . S
C510 H491 0.929 . S
C510 C507 1.404 . S
C510 N508 1.334 . S
C511 H503 0.930 . S
C511 C506 1.418 . S
C511 C507 1.353 . S
C512 H482 0.930 . S
C512 N513 1.330 . S
C512 C514 1.446 . S
N513 Co472 2.151 . S
N513 C512 1.330 . S
N513 C517 1.418 . S
C514 H493 0.929 . S
C514 C512 1.446 . S
C514 C515 1.332 . S
C515 H495 0.931 . S
C515 C514 1.332 . S
C515 C516 1.267 . S
C516 H484 0.929 . S
C516 C515 1.267 . S
C516 C517 1.251 . S
C517 H487 0.929 . S
C517 N513 1.418 . S
C517 C516 1.251 . S
C518 H485 0.930 . S
C518 C520 1.406 . S
C518 C523 1.261 . S
C519 H486 0.930 . S
C519 N521 1.325 . S
C519 C522 1.357 . S
C520 H488 0.928 . S
C520 C518 1.406 . S
C520 N521 1.261 . S
N521 Co472 2.214 . S
N521 C519 1.325 . S
N521 C520 1.261 . S
C522 H492 0.931 . S
C522 C519 1.357 . S
C522 C523 1.312 . S
C523 H494 0.930 . S
C523 C518 1.261 . S
C523 C522 1.312 . S
C524 O496 1.214 . S
C524 O504 1.234 . S
C525 H497 0.929 . S
C525 C528 1.391 . S
C525 C530 1.391 1_556 S
C526 H498 0.929 . S
C526 C527 1.390 1_554 S
C526 N529 1.391 . S
C527 H499 0.930 . S
C527 C526 1.390 1_556 S
C527 C528 1.392 . S
C528 H500 0.929 . S
C528 C525 1.391 . S
C528 C527 1.392 . S
N529 Co473 2.257 . S
N529 C526 1.391 . S
N529 C530 1.388 . S
C530 H501 0.930 . S
C530 C525 1.391 1_554 S
C530 N529 1.388 . S
Co531 O533 2.143 . S
Co531 O539 2.074 . S
Co531 O542 2.093 . S
Co531 O555 2.097 . S
Co531 N572 2.151 . S
Co531 N580 2.214 . S
Co532 O533 2.160 . S
Co532 O538 2.058 . S
Co532 O548 2.057 . S
Co532 O563 2.037 . S
Co532 N567 2.145 . S
Co532 N588 2.257 . S
O533 Co531 2.143 . S
O533 Co532 2.160 . S
C534 O535 1.278 . S
C534 O542 1.224 . S
O535 C534 1.278 . S
C536 O537 1.245 . S
C536 O548 1.232 . S
O537 C536 1.245 . S
O538 Co532 2.058 . S
O538 C564 1.269 . S
O539 Co531 2.074 . S
O539 C564 1.257 . S
H540 C565 0.930 . S
H541 C571 0.930 . S
O542 Co531 2.093 . S
O542 C534 1.224 . S
H543 C575 0.929 . S
H544 C577 0.930 . S
H545 C578 0.930 . S
H546 C576 0.929 . S
H547 C579 0.928 . S
O548 Co532 2.057 . S
O548 C536 1.232 . S
H549 C568 0.929 . S
H550 C569 0.929 . S
H551 C581 0.931 . S
H552 C573 0.929 . S
H553 C582 0.930 . S
H554 C574 0.931 . S
O555 Co531 2.097 . S
O555 C583 1.214 . S
H556 C584 0.929 . S
H557 C585 0.929 . S
H558 C586 0.930 . S
H559 C587 0.929 . S
H560 C589 0.930 . S
H561 C566 0.930 . S
H562 C570 0.930 . S
O563 Co532 2.037 . S
O563 C583 1.234 . S
C564 O538 1.269 . S
C564 O539 1.257 . S
C565 H540 0.930 . S
C565 C568 1.388 . S
C565 C570 1.418 . S
C566 H561 0.930 . S
C566 C569 1.404 . S
C566 C570 1.353 . S
N567 Co532 2.145 . S
N567 C568 1.397 . S
N567 C569 1.334 . S
C568 H549 0.929 . S
C568 C565 1.388 . S
C568 N567 1.397 . S
C569 H550 0.929 . S
C569 C566 1.404 . S
C569 N567 1.334 . S
C570 H562 0.930 . S
C570 C565 1.418 . S
C570 C566 1.353 . S
C571 H541 0.930 . S
C571 N572 1.330 . S
C571 C573 1.446 . S
N572 Co531 2.151 . S
N572 C571 1.330 . S
N572 C576 1.418 . S
C573 H552 0.929 . S
C573 C571 1.446 . S
C573 C574 1.332 . S
C574 H554 0.931 . S
C574 C573 1.332 . S
C574 C575 1.267 . S
C575 H543 0.929 . S
C575 C574 1.267 . S
C575 C576 1.251 . S
C576 H546 0.929 . S
C576 N572 1.418 . S
C576 C575 1.251 . S
C577 H544 0.930 . S
C577 C579 1.406 . S
C577 C582 1.261 . S
C578 H545 0.930 . S
C578 N580 1.325 . S
C578 C581 1.357 . S
C579 H547 0.928 . S
C579 C577 1.406 . S
C579 N580 1.261 . S
N580 Co531 2.214 . S
N580 C578 1.325 . S
N580 C579 1.261 . S
C581 H551 0.931 . S
C581 C578 1.357 . S
C581 C582 1.312 . S
C582 H553 0.930 . S
C582 C577 1.261 . S
C582 C581 1.312 . S
C583 O555 1.214 . S
C583 O563 1.234 . S
C584 H556 0.929 . S
C584 C587 1.391 . S
C584 C589 1.391 . S
C585 H557 0.929 . S
C585 C586 1.390 . S
C585 N588 1.391 . S
C586 H558 0.930 . S
C586 C585 1.390 . S
C586 C587 1.392 . S
C587 H559 0.929 . S
C587 C584 1.391 . S
C587 C586 1.392 . S
N588 Co532 2.257 . S
N588 C585 1.391 . S
N588 C589 1.388 . S
C589 H560 0.930 . S
C589 C584 1.391 . S
C589 N588 1.388 . S
Co590 O592 2.143 . S
Co590 O598 2.074 . S
Co590 O601 2.093 . S
Co590 O614 2.097 . S
Co590 N631 2.151 . S
Co590 N639 2.214 . S
Co591 O592 2.160 . S
Co591 O597 2.058 . S
Co591 O607 2.057 . S
Co591 O622 2.037 . S
Co591 N626 2.145 . S
Co591 N647 2.257 . S
O592 Co590 2.143 . S
O592 Co591 2.160 . S
C593 O594 1.278 . S
C593 O601 1.224 . S
O594 C593 1.278 . S
C595 O596 1.245 . S
C595 O607 1.232 . S
O596 C595 1.245 . S
O597 Co591 2.058 . S
O597 C623 1.269 . S
O598 Co590 2.074 . S
O598 C623 1.257 . S
H599 C624 0.930 . S
H600 C630 0.930 . S
O601 Co590 2.093 . S
O601 C593 1.224 . S
H602 C634 0.929 . S
H603 C636 0.930 . S
H604 C637 0.930 . S
H605 C635 0.929 . S
H606 C638 0.928 . S
O607 Co591 2.057 . S
O607 C595 1.232 . S
H608 C627 0.929 . S
H609 C628 0.929 . S
H610 C640 0.931 . S
H611 C632 0.929 . S
H612 C641 0.930 . S
H613 C633 0.931 . S
O614 Co590 2.097 . S
O614 C642 1.214 . S
H615 C643 0.929 . S
H616 C644 0.929 . S
H617 C645 0.930 . S
H618 C646 0.929 . S
H619 C648 0.930 . S
H620 C625 0.930 . S
H621 C629 0.930 . S
O622 Co591 2.037 . S
O622 C642 1.234 . S
C623 O597 1.269 . S
C623 O598 1.257 . S
C624 H599 0.930 . S
C624 C627 1.388 . S
C624 C629 1.418 . S
C625 H620 0.930 . S
C625 C628 1.404 . S
C625 C629 1.353 . S
N626 Co591 2.145 . S
N626 C627 1.397 . S
N626 C628 1.334 . S
C627 H608 0.929 . S
C627 C624 1.388 . S
C627 N626 1.397 . S
C628 H609 0.929 . S
C628 C625 1.404 . S
C628 N626 1.334 . S
C629 H621 0.930 . S
C629 C624 1.418 . S
C629 C625 1.353 . S
C630 H600 0.930 . S
C630 N631 1.330 . S
C630 C632 1.446 . S
N631 Co590 2.151 . S
N631 C630 1.330 . S
N631 C635 1.418 . S
C632 H611 0.929 . S
C632 C630 1.446 . S
C632 C633 1.332 . S
C633 H613 0.931 . S
C633 C632 1.332 . S
C633 C634 1.267 . S
C634 H602 0.929 . S
C634 C633 1.267 . S
C634 C635 1.251 . S
C635 H605 0.929 . S
C635 N631 1.418 . S
C635 C634 1.251 . S
C636 H603 0.930 . S
C636 C638 1.406 . S
C636 C641 1.261 . S
C637 H604 0.930 . S
C637 N639 1.325 . S
C637 C640 1.357 . S
C638 H606 0.928 . S
C638 C636 1.406 . S
C638 N639 1.261 . S
N639 Co590 2.214 . S
N639 C637 1.325 . S
N639 C638 1.261 . S
C640 H610 0.931 . S
C640 C637 1.357 . S
C640 C641 1.312 . S
C641 H612 0.930 . S
C641 C636 1.261 . S
C641 C640 1.312 . S
C642 O614 1.214 . S
C642 O622 1.234 . S
C643 H615 0.929 . S
C643 C646 1.391 . S
C643 C648 1.391 1_554 S
C644 H616 0.929 . S
C644 C645 1.390 1_556 S
C644 N647 1.391 . S
C645 H617 0.930 . S
C645 C644 1.390 1_554 S
C645 C646 1.392 . S
C646 H618 0.929 . S
C646 C643 1.391 . S
C646 C645 1.392 . S
N647 Co591 2.257 . S
N647 C644 1.391 . S
N647 C648 1.388 . S
C648 H619 0.930 . S
C648 C643 1.391 1_556 S
C648 N647 1.388 . S
Co649 O651 2.143 . S
Co649 O657 2.074 . S
Co649 O660 2.093 . S
Co649 O673 2.097 . S
Co649 N690 2.151 . S
Co649 N698 2.214 . S
Co650 O651 2.160 . S
Co650 O656 2.058 . S
Co650 O666 2.057 . S
Co650 O681 2.037 . S
Co650 N685 2.145 . S
Co650 N706 2.257 . S
O651 Co649 2.143 . S
O651 Co650 2.160 . S
C652 O653 1.278 . S
C652 O660 1.224 . S
O653 C652 1.278 . S
C654 O655 1.245 . S
C654 O666 1.232 . S
O655 C654 1.245 . S
O656 Co650 2.058 . S
O656 C682 1.269 . S
O657 Co649 2.074 . S
O657 C682 1.257 . S
H658 C683 0.930 . S
H659 C689 0.930 . S
O660 Co649 2.093 . S
O660 C652 1.224 . S
H661 C693 0.929 . S
H662 C695 0.930 . S
H663 C696 0.930 . S
H664 C694 0.929 . S
H665 C697 0.928 . S
O666 Co650 2.057 . S
O666 C654 1.232 . S
H667 C686 0.929 . S
H668 C687 0.929 . S
H669 C699 0.931 . S
H670 C691 0.929 . S
H671 C700 0.930 . S
H672 C692 0.931 . S
O673 Co649 2.097 . S
O673 C701 1.214 . S
H674 C702 0.929 . S
H675 C703 0.929 . S
H676 C704 0.930 . S
H677 C705 0.929 . S
H678 C707 0.930 . S
H679 C684 0.930 . S
H680 C688 0.930 . S
O681 Co650 2.037 . S
O681 C701 1.234 . S
C682 O656 1.269 . S
C682 O657 1.257 . S
C683 H658 0.930 . S
C683 C686 1.388 . S
C683 C688 1.418 . S
C684 H679 0.930 . S
C684 C687 1.404 . S
C684 C688 1.353 . S
N685 Co650 2.145 . S
N685 C686 1.397 . S
N685 C687 1.334 . S
C686 H667 0.929 . S
C686 C683 1.388 . S
C686 N685 1.397 . S
C687 H668 0.929 . S
C687 C684 1.404 . S
C687 N685 1.334 . S
C688 H680 0.930 . S
C688 C683 1.418 . S
C688 C684 1.353 . S
C689 H659 0.930 . S
C689 N690 1.330 . S
C689 C691 1.446 . S
N690 Co649 2.151 . S
N690 C689 1.330 . S
N690 C694 1.418 . S
C691 H670 0.929 . S
C691 C689 1.446 . S
C691 C692 1.332 . S
C692 H672 0.931 . S
C692 C691 1.332 . S
C692 C693 1.267 . S
C693 H661 0.929 . S
C693 C692 1.267 . S
C693 C694 1.251 . S
C694 H664 0.929 . S
C694 N690 1.418 . S
C694 C693 1.251 . S
C695 H662 0.930 . S
C695 C697 1.406 . S
C695 C700 1.261 . S
C696 H663 0.930 . S
C696 N698 1.325 . S
C696 C699 1.357 . S
C697 H665 0.928 . S
C697 C695 1.406 . S
C697 N698 1.261 . S
N698 Co649 2.214 . S
N698 C696 1.325 . S
N698 C697 1.261 . S
C699 H669 0.931 . S
C699 C696 1.357 . S
C699 C700 1.312 . S
C700 H671 0.930 . S
C700 C695 1.261 . S
C700 C699 1.312 . S
C701 O673 1.214 . S
C701 O681 1.234 . S
C702 H674 0.929 . S
C702 C705 1.391 . S
C702 C707 1.391 . S
C703 H675 0.929 . S
C703 C704 1.390 . S
C703 N706 1.391 . S
C704 H676 0.930 . S
C704 C703 1.390 . S
C704 C705 1.392 . S
C705 H677 0.929 . S
C705 C702 1.391 . S
C705 C704 1.392 . S
N706 Co650 2.257 . S
N706 C703 1.391 . S
N706 C707 1.388 . S
C707 H678 0.930 . S
C707 C702 1.391 . S
C707 N706 1.388 . S
Co708 O710 2.143 . S
Co708 O716 2.074 . S
Co708 O719 2.093 . S
Co708 O732 2.097 . S
Co708 N749 2.151 . S
Co708 N757 2.214 . S
Co709 O710 2.160 . S
Co709 O715 2.058 . S
Co709 O725 2.057 . S
Co709 O740 2.037 . S
Co709 N744 2.145 . S
Co709 N765 2.257 . S
O710 Co708 2.143 . S
O710 Co709 2.160 . S
C711 O712 1.278 . S
C711 O719 1.224 . S
O712 C711 1.278 . S
C713 O714 1.245 . S
C713 O725 1.232 . S
O714 C713 1.245 . S
O715 Co709 2.058 . S
O715 C741 1.269 . S
O716 Co708 2.074 . S
O716 C741 1.257 . S
H717 C742 0.930 . S
H718 C748 0.930 . S
O719 Co708 2.093 . S
O719 C711 1.224 . S
H720 C752 0.929 . S
H721 C754 0.930 . S
H722 C755 0.930 . S
H723 C753 0.929 . S
H724 C756 0.928 . S
O725 Co709 2.057 . S
O725 C713 1.232 . S
H726 C745 0.929 1_556 S
H727 C746 0.929 1_556 S
H728 C758 0.931 . S
H729 C750 0.929 . S
H730 C759 0.930 . S
H731 C751 0.931 . S
O732 Co708 2.097 . S
O732 C760 1.214 . S
H733 C761 0.929 . S
H734 C762 0.929 . S
H735 C763 0.930 . S
H736 C764 0.929 . S
H737 C766 0.930 . S
H738 C743 0.930 . S
H739 C747 0.930 . S
O740 Co709 2.037 . S
O740 C760 1.234 . S
C741 O715 1.269 . S
C741 O716 1.257 . S
C742 H717 0.930 . S
C742 C745 1.388 . S
C742 C747 1.418 . S
C743 H738 0.930 . S
C743 C746 1.404 . S
C743 C747 1.353 . S
N744 Co709 2.145 . S
N744 C745 1.397 1_556 S
N744 C746 1.334 1_556 S
C745 H726 0.929 1_554 S
C745 C742 1.388 . S
C745 N744 1.397 1_554 S
C746 H727 0.929 1_554 S
C746 C743 1.404 . S
C746 N744 1.334 1_554 S
C747 H739 0.930 . S
C747 C742 1.418 . S
C747 C743 1.353 . S
C748 H718 0.930 . S
C748 N749 1.330 . S
C748 C750 1.446 . S
N749 Co708 2.151 . S
N749 C748 1.330 . S
N749 C753 1.418 . S
C750 H729 0.929 . S
C750 C748 1.446 . S
C750 C751 1.332 . S
C751 H731 0.931 . S
C751 C750 1.332 . S
C751 C752 1.267 . S
C752 H720 0.929 . S
C752 C751 1.267 . S
C752 C753 1.251 . S
C753 H723 0.929 . S
C753 N749 1.418 . S
C753 C752 1.251 . S
C754 H721 0.930 . S
C754 C756 1.406 . S
C754 C759 1.261 . S
C755 H722 0.930 . S
C755 N757 1.325 . S
C755 C758 1.357 . S
C756 H724 0.928 . S
C756 C754 1.406 . S
C756 N757 1.261 . S
N757 Co708 2.214 . S
N757 C755 1.325 . S
N757 C756 1.261 . S
C758 H728 0.931 . S
C758 C755 1.357 . S
C758 C759 1.312 . S
C759 H730 0.930 . S
C759 C754 1.261 . S
C759 C758 1.312 . S
C760 O732 1.214 . S
C760 O740 1.234 . S
C761 H733 0.929 . S
C761 C764 1.391 . S
C761 C766 1.391 . S
C762 H734 0.929 . S
C762 C763 1.390 . S
C762 N765 1.391 . S
C763 H735 0.930 . S
C763 C762 1.390 . S
C763 C764 1.392 . S
C764 H736 0.929 . S
C764 C761 1.391 . S
C764 C763 1.392 . S
N765 Co709 2.257 . S
N765 C762 1.391 . S
N765 C766 1.388 . S
C766 H737 0.930 . S
C766 C761 1.391 . S
C766 N765 1.388 . S
Co767 O769 2.143 . S
Co767 O775 2.074 . S
Co767 O778 2.093 . S
Co767 O791 2.097 . S
Co767 N808 2.151 . S
Co767 N816 2.214 . S
Co768 O769 2.160 . S
Co768 O774 2.058 . S
Co768 O784 2.057 . S
Co768 O799 2.037 . S
Co768 N803 2.145 . S
Co768 N824 2.257 . S
O769 Co767 2.143 . S
O769 Co768 2.160 . S
C770 O771 1.278 . S
C770 O778 1.224 . S
O771 C770 1.278 . S
C772 O773 1.245 . S
C772 O784 1.232 . S
O773 C772 1.245 . S
O774 Co768 2.058 . S
O774 C800 1.269 . S
O775 Co767 2.074 . S
O775 C800 1.257 . S
H776 C801 0.930 . S
H777 C807 0.930 . S
O778 Co767 2.093 . S
O778 C770 1.224 . S
H779 C811 0.929 . S
H780 C813 0.930 . S
H781 C814 0.930 . S
H782 C812 0.929 . S
H783 C815 0.928 . S
O784 Co768 2.057 . S
O784 C772 1.232 . S
H785 C804 0.929 . S
H786 C805 0.929 . S
H787 C817 0.931 . S
H788 C809 0.929 . S
H789 C818 0.930 . S
H790 C810 0.931 . S
O791 Co767 2.097 . S
O791 C819 1.214 . S
H792 C820 0.929 . S
H793 C821 0.929 . S
H794 C822 0.930 . S
H795 C823 0.929 . S
H796 C825 0.930 . S
H797 C802 0.930 . S
H798 C806 0.930 . S
O799 Co768 2.037 . S
O799 C819 1.234 . S
C800 O774 1.269 . S
C800 O775 1.257 . S
C801 H776 0.930 . S
C801 C804 1.388 . S
C801 C806 1.418 . S
C802 H797 0.930 . S
C802 C805 1.404 . S
C802 C806 1.353 . S
N803 Co768 2.145 . S
N803 C804 1.397 . S
N803 C805 1.334 . S
C804 H785 0.929 . S
C804 C801 1.388 . S
C804 N803 1.397 . S
C805 H786 0.929 . S
C805 C802 1.404 . S
C805 N803 1.334 . S
C806 H798 0.930 . S
C806 C801 1.418 . S
C806 C802 1.353 . S
C807 H777 0.930 . S
C807 N808 1.330 . S
C807 C809 1.446 . S
N808 Co767 2.151 . S
N808 C807 1.330 . S
N808 C812 1.418 . S
C809 H788 0.929 . S
C809 C807 1.446 . S
C809 C810 1.332 . S
C810 H790 0.931 . S
C810 C809 1.332 . S
C810 C811 1.267 . S
C811 H779 0.929 . S
C811 C810 1.267 . S
C811 C812 1.251 . S
C812 H782 0.929 . S
C812 N808 1.418 . S
C812 C811 1.251 . S
C813 H780 0.930 . S
C813 C815 1.406 . S
C813 C818 1.261 . S
C814 H781 0.930 . S
C814 N816 1.325 . S
C814 C817 1.357 . S
C815 H783 0.928 . S
C815 C813 1.406 . S
C815 N816 1.261 . S
N816 Co767 2.214 . S
N816 C814 1.325 . S
N816 C815 1.261 . S
C817 H787 0.931 . S
C817 C814 1.357 . S
C817 C818 1.312 . S
C818 H789 0.930 . S
C818 C813 1.261 . S
C818 C817 1.312 . S
C819 O791 1.214 . S
C819 O799 1.234 . S
C820 H792 0.929 . S
C820 C823 1.391 . S
C820 C825 1.391 . S
C821 H793 0.929 . S
C821 C822 1.390 . S
C821 N824 1.391 . S
C822 H794 0.930 . S
C822 C821 1.390 . S
C822 C823 1.392 . S
C823 H795 0.929 . S
C823 C820 1.391 . S
C823 C822 1.392 . S
N824 Co768 2.257 . S
N824 C821 1.391 . S
N824 C825 1.388 . S
C825 H796 0.930 . S
C825 C820 1.391 . S
C825 N824 1.388 . S
Co826 O828 2.143 . S
Co826 O834 2.074 . S
Co826 O837 2.093 . S
Co826 O850 2.097 . S
Co826 N867 2.151 . S
Co826 N875 2.214 . S
Co827 O828 2.160 . S
Co827 O833 2.058 . S
Co827 O843 2.057 . S
Co827 O858 2.037 . S
Co827 N862 2.145 . S
Co827 N883 2.257 . S
O828 Co826 2.143 . S
O828 Co827 2.160 . S
C829 O830 1.278 . S
C829 O837 1.224 . S
O830 C829 1.278 . S
C831 O832 1.245 . S
C831 O843 1.232 . S
O832 C831 1.245 . S
O833 Co827 2.058 . S
O833 C859 1.269 . S
O834 Co826 2.074 . S
O834 C859 1.257 . S
H835 C860 0.930 . S
H836 C866 0.930 . S
O837 Co826 2.093 . S
O837 C829 1.224 . S
H838 C870 0.929 . S
H839 C872 0.930 . S
H840 C873 0.930 . S
H841 C871 0.929 . S
H842 C874 0.928 . S
O843 Co827 2.057 . S
O843 C831 1.232 . S
H844 C863 0.929 1_554 S
H845 C864 0.929 1_554 S
H846 C876 0.931 . S
H847 C868 0.929 . S
H848 C877 0.930 . S
H849 C869 0.931 . S
O850 Co826 2.097 . S
O850 C878 1.214 . S
H851 C879 0.929 . S
H852 C880 0.929 . S
H853 C881 0.930 . S
H854 C882 0.929 . S
H855 C884 0.930 . S
H856 C861 0.930 . S
H857 C865 0.930 . S
O858 Co827 2.037 . S
O858 C878 1.234 . S
C859 O833 1.269 . S
C859 O834 1.257 . S
C860 H835 0.930 . S
C860 C863 1.388 . S
C860 C865 1.418 . S
C861 H856 0.930 . S
C861 C864 1.404 . S
C861 C865 1.353 . S
N862 Co827 2.145 . S
N862 C863 1.397 1_554 S
N862 C864 1.334 1_554 S
C863 H844 0.929 1_556 S
C863 C860 1.388 . S
C863 N862 1.397 1_556 S
C864 H845 0.929 1_556 S
C864 C861 1.404 . S
C864 N862 1.334 1_556 S
C865 H857 0.930 . S
C865 C860 1.418 . S
C865 C861 1.353 . S
C866 H836 0.930 . S
C866 N867 1.330 . S
C866 C868 1.446 . S
N867 Co826 2.151 . S
N867 C866 1.330 . S
N867 C871 1.418 . S
C868 H847 0.929 . S
C868 C866 1.446 . S
C868 C869 1.332 . S
C869 H849 0.931 . S
C869 C868 1.332 . S
C869 C870 1.267 . S
C870 H838 0.929 . S
C870 C869 1.267 . S
C870 C871 1.251 . S
C871 H841 0.929 . S
C871 N867 1.418 . S
C871 C870 1.251 . S
C872 H839 0.930 . S
C872 C874 1.406 . S
C872 C877 1.261 . S
C873 H840 0.930 . S
C873 N875 1.325 . S
C873 C876 1.357 . S
C874 H842 0.928 . S
C874 C872 1.406 . S
C874 N875 1.261 . S
N875 Co826 2.214 . S
N875 C873 1.325 . S
N875 C874 1.261 . S
C876 H846 0.931 . S
C876 C873 1.357 . S
C876 C877 1.312 . S
C877 H848 0.930 . S
C877 C872 1.261 . S
C877 C876 1.312 . S
C878 O850 1.214 . S
C878 O858 1.234 . S
C879 H851 0.929 . S
C879 C882 1.391 . S
C879 C884 1.391 . S
C880 H852 0.929 . S
C880 C881 1.390 . S
C880 N883 1.391 . S
C881 H853 0.930 . S
C881 C880 1.390 . S
C881 C882 1.392 . S
C882 H854 0.929 . S
C882 C879 1.391 . S
C882 C881 1.392 . S
N883 Co827 2.257 . S
N883 C880 1.391 . S
N883 C884 1.388 . S
C884 H855 0.930 . S
C884 C879 1.391 . S
C884 N883 1.388 . S
Co885 O887 2.143 . S
Co885 O893 2.074 . S
Co885 O896 2.093 . S
Co885 O909 2.097 . S
Co885 N926 2.151 . S
Co885 N934 2.214 . S
Co886 O887 2.160 . S
Co886 O892 2.058 . S
Co886 O902 2.057 . S
Co886 O917 2.037 . S
Co886 N921 2.145 . S
Co886 N942 2.257 . S
O887 Co885 2.143 . S
O887 Co886 2.160 . S
C888 O889 1.278 . S
C888 O896 1.224 . S
O889 C888 1.278 . S
C890 O891 1.245 . S
C890 O902 1.232 . S
O891 C890 1.245 . S
O892 Co886 2.058 . S
O892 C918 1.269 . S
O893 Co885 2.074 . S
O893 C918 1.257 . S
H894 C919 0.930 . S
H895 C925 0.930 . S
O896 Co885 2.093 . S
O896 C888 1.224 . S
H897 C929 0.929 . S
H898 C931 0.930 . S
H899 C932 0.930 . S
H900 C930 0.929 . S
H901 C933 0.928 . S
O902 Co886 2.057 . S
O902 C890 1.232 . S
H903 C922 0.929 . S
H904 C923 0.929 . S
H905 C935 0.931 . S
H906 C927 0.929 . S
H907 C936 0.930 . S
H908 C928 0.931 . S
O909 Co885 2.097 . S
O909 C937 1.214 . S
H910 C938 0.929 . S
H911 C939 0.929 . S
H912 C940 0.930 . S
H913 C941 0.929 . S
H914 C943 0.930 . S
H915 C920 0.930 . S
H916 C924 0.930 . S
O917 Co886 2.037 . S
O917 C937 1.234 . S
C918 O892 1.269 . S
C918 O893 1.257 . S
C919 H894 0.930 . S
C919 C922 1.388 . S
C919 C924 1.418 . S
C920 H915 0.930 . S
C920 C923 1.404 . S
C920 C924 1.353 . S
N921 Co886 2.145 . S
N921 C922 1.397 . S
N921 C923 1.334 . S
C922 H903 0.929 . S
C922 C919 1.388 . S
C922 N921 1.397 . S
C923 H904 0.929 . S
C923 C920 1.404 . S
C923 N921 1.334 . S
C924 H916 0.930 . S
C924 C919 1.418 . S
C924 C920 1.353 . S
C925 H895 0.930 . S
C925 N926 1.330 . S
C925 C927 1.446 . S
N926 Co885 2.151 . S
N926 C925 1.330 . S
N926 C930 1.418 . S
C927 H906 0.929 . S
C927 C925 1.446 . S
C927 C928 1.332 . S
C928 H908 0.931 . S
C928 C927 1.332 . S
C928 C929 1.267 . S
C929 H897 0.929 . S
C929 C928 1.267 . S
C929 C930 1.251 . S
C930 H900 0.929 . S
C930 N926 1.418 . S
C930 C929 1.251 . S
C931 H898 0.930 . S
C931 C933 1.406 . S
C931 C936 1.261 . S
C932 H899 0.930 . S
C932 N934 1.325 . S
C932 C935 1.357 . S
C933 H901 0.928 . S
C933 C931 1.406 . S
C933 N934 1.261 . S
N934 Co885 2.214 . S
N934 C932 1.325 . S
N934 C933 1.261 . S
C935 H905 0.931 . S
C935 C932 1.357 . S
C935 C936 1.312 . S
C936 H907 0.930 . S
C936 C931 1.261 . S
C936 C935 1.312 . S
C937 O909 1.214 . S
C937 O917 1.234 . S
C938 H910 0.929 . S
C938 C941 1.391 . S
C938 C943 1.391 . S
C939 H911 0.929 . S
C939 C940 1.390 . S
C939 N942 1.391 . S
C940 H912 0.930 . S
C940 C939 1.390 . S
C940 C941 1.392 . S
C941 H913 0.929 . S
C941 C938 1.391 . S
C941 C940 1.392 . S
N942 Co886 2.257 . S
N942 C939 1.391 . S
N942 C943 1.388 . S
C943 H914 0.930 . S
C943 C938 1.391 . S
C943 N942 1.388 . S
H944 C950 0.930 . S
H945 C954 0.930 . S
H946 C959 0.929 . S
H947 C957 0.929 . S
H948 C952 0.929 . S
H949 C958 0.929 . S
C950 H944 0.930 . S
C950 C951 1.367 . S
C950 C958 1.378 . S
C951 C950 1.367 . S
C951 C959 1.433 . S
C952 H948 0.929 . S
C952 C954 1.378 . S
C952 C956 1.350 . S
C953 C956 1.463 1_455 S
C953 C958 1.350 . S
C953 N961 1.427 . S
C954 H945 0.930 . S
C954 C952 1.378 . S
C954 C955 1.367 . S
C955 C954 1.367 . S
C955 C957 1.433 . S
C956 C952 1.350 . S
C956 C953 1.463 1_655 S
C956 N960 1.427 . S
C957 H947 0.929 . S
C957 C955 1.433 . S
C957 N960 1.384 . S
C958 H949 0.929 . S
C958 C950 1.378 . S
C958 C953 1.350 . S
C959 H946 0.929 . S
C959 C951 1.433 . S
C959 N961 1.384 . S
N960 C956 1.427 . S
N960 C957 1.384 . S
N961 C953 1.427 . S
N961 C959 1.384 . S
H962 C968 0.930 . S
H963 C972 0.930 . S
H964 C977 0.929 . S
H965 C975 0.929 . S
H966 C970 0.929 . S
H967 C976 0.929 . S
C968 H962 0.930 . S
C968 C969 1.367 . S
C968 C976 1.378 . S
C969 C968 1.367 . S
C969 C977 1.433 . S
C970 H966 0.929 . S
C970 C972 1.378 . S
C970 C974 1.350 . S
C971 C974 1.463 1_655 S
C971 C976 1.350 . S
C971 N979 1.427 . S
C972 H963 0.930 . S
C972 C970 1.378 . S
C972 C973 1.367 . S
C973 C972 1.367 . S
C973 C975 1.433 . S
C974 C970 1.350 . S
C974 C971 1.463 1_455 S
C974 N978 1.427 . S
C975 H965 0.929 . S
C975 C973 1.433 . S
C975 N978 1.384 . S
C976 H967 0.929 . S
C976 C968 1.378 . S
C976 C971 1.350 . S
C977 H964 0.929 . S
C977 C969 1.433 . S
C977 N979 1.384 . S
N978 C974 1.427 . S
N978 C975 1.384 . S
N979 C971 1.427 . S
N979 C977 1.384 . S
H980 C986 0.930 . S
H981 C990 0.930 . S
H982 C995 0.929 . S
H983 C993 0.929 . S
H984 C988 0.929 . S
H985 C994 0.929 . S
C986 H980 0.930 . S
C986 C987 1.367 . S
C986 C994 1.378 . S
C987 C986 1.367 . S
C987 C995 1.433 . S
C988 H984 0.929 . S
C988 C990 1.378 . S
C988 C992 1.350 . S
C989 C992 1.463 1_655 S
C989 C994 1.350 . S
C989 N997 1.427 . S
C990 H981 0.930 . S
C990 C988 1.378 . S
C990 C991 1.367 . S
C991 C990 1.367 . S
C991 C993 1.433 . S
C992 C988 1.350 . S
C992 C989 1.463 1_455 S
C992 N996 1.427 . S
C993 H983 0.929 . S
C993 C991 1.433 . S
C993 N996 1.384 . S
C994 H985 0.929 . S
C994 C986 1.378 . S
C994 C989 1.350 . S
C995 H982 0.929 . S
C995 C987 1.433 . S
C995 N997 1.384 . S
N996 C992 1.427 . S
N996 C993 1.384 . S
N997 C989 1.427 . S
N997 C995 1.384 . S
H998 C1004 0.930 . S
H999 C1008 0.930 . S
H1000 C1013 0.929 . S
H1001 C1011 0.929 . S
H1002 C1006 0.929 . S
H1003 C1012 0.929 . S
C1004 H998 0.930 . S
C1004 C1005 1.367 . S
C1004 C1012 1.378 . S
C1005 C1004 1.367 . S
C1005 C1013 1.433 . S
C1006 H1002 0.929 . S
C1006 C1008 1.378 . S
C1006 C1010 1.350 . S
C1007 C1010 1.463 1_455 S
C1007 C1012 1.350 . S
C1007 N1015 1.427 . S
C1008 H999 0.930 . S
C1008 C1006 1.378 . S
C1008 C1009 1.367 . S
C1009 C1008 1.367 . S
C1009 C1011 1.433 . S
C1010 C1006 1.350 . S
C1010 C1007 1.463 1_655 S
C1010 N1014 1.427 . S
C1011 H1001 0.929 . S
C1011 C1009 1.433 . S
C1011 N1014 1.384 . S
C1012 H1003 0.929 . S
C1012 C1004 1.378 . S
C1012 C1007 1.350 . S
C1013 H1000 0.929 . S
C1013 C1005 1.433 . S
C1013 N1015 1.384 . S
N1014 C1010 1.427 . S
N1014 C1011 1.384 . S
N1015 C1007 1.427 . S
N1015 C1013 1.384 . S
H1016 C1022 0.930 . S
H1017 C1026 0.930 . S
H1018 C1031 0.929 . S
H1019 C1029 0.929 . S
H1020 C1024 0.929 . S
H1021 C1030 0.929 . S
C1022 H1016 0.930 . S
C1022 C1023 1.367 . S
C1022 C1030 1.378 . S
C1023 C1022 1.367 . S
C1023 C1031 1.433 . S
C1024 H1020 0.929 . S
C1024 C1026 1.378 . S
C1024 C1028 1.350 . S
C1025 C1028 1.463 . S
C1025 C1030 1.350 . S
C1025 N1033 1.427 . S
C1026 H1017 0.930 . S
C1026 C1024 1.378 . S
C1026 C1027 1.367 . S
C1027 C1026 1.367 . S
C1027 C1029 1.433 . S
C1028 C1024 1.350 . S
C1028 C1025 1.463 . S
C1028 N1032 1.427 . S
C1029 H1019 0.929 . S
C1029 C1027 1.433 . S
C1029 N1032 1.384 . S
C1030 H1021 0.929 . S
C1030 C1022 1.378 . S
C1030 C1025 1.350 . S
C1031 H1018 0.929 . S
C1031 C1023 1.433 . S
C1031 N1033 1.384 . S
N1032 C1028 1.427 . S
N1032 C1029 1.384 . S
N1033 C1025 1.427 . S
N1033 C1031 1.384 . S
H1034 C1040 0.930 . S
H1035 C1044 0.930 . S
H1036 C1049 0.929 . S
H1037 C1047 0.929 . S
H1038 C1042 0.929 . S
H1039 C1048 0.929 . S
C1040 H1034 0.930 . S
C1040 C1041 1.367 . S
C1040 C1048 1.378 . S
C1041 C1040 1.367 . S
C1041 C1049 1.433 . S
C1042 H1038 0.929 . S
C1042 C1044 1.378 . S
C1042 C1046 1.350 . S
C1043 C1046 1.463 . S
C1043 C1048 1.350 . S
C1043 N1051 1.427 . S
C1044 H1035 0.930 . S
C1044 C1042 1.378 . S
C1044 C1045 1.367 . S
C1045 C1044 1.367 . S
C1045 C1047 1.433 . S
C1046 C1042 1.350 . S
C1046 C1043 1.463 . S
C1046 N1050 1.427 . S
C1047 H1037 0.929 . S
C1047 C1045 1.433 . S
C1047 N1050 1.384 . S
C1048 H1039 0.929 . S
C1048 C1040 1.378 . S
C1048 C1043 1.350 . S
C1049 H1036 0.929 . S
C1049 C1041 1.433 . S
C1049 N1051 1.384 . S
N1050 C1046 1.427 . S
N1050 C1047 1.384 . S
N1051 C1043 1.427 . S
N1051 C1049 1.384 . S
H1052 C1058 0.930 . S
H1053 C1062 0.930 . S
H1054 C1067 0.929 . S
H1055 C1065 0.929 . S
H1056 C1060 0.929 . S
H1057 C1066 0.929 . S
C1058 H1052 0.930 . S
C1058 C1059 1.367 . S
C1058 C1066 1.378 . S
C1059 C1058 1.367 . S
C1059 C1067 1.433 . S
C1060 H1056 0.929 . S
C1060 C1062 1.378 . S
C1060 C1064 1.350 . S
C1061 C1064 1.463 . S
C1061 C1066 1.350 . S
C1061 N1069 1.427 . S
C1062 H1053 0.930 . S
C1062 C1060 1.378 . S
C1062 C1063 1.367 . S
C1063 C1062 1.367 . S
C1063 C1065 1.433 . S
C1064 C1060 1.350 . S
C1064 C1061 1.463 . S
C1064 N1068 1.427 . S
C1065 H1055 0.929 . S
C1065 C1063 1.433 . S
C1065 N1068 1.384 . S
C1066 H1057 0.929 . S
C1066 C1058 1.378 . S
C1066 C1061 1.350 . S
C1067 H1054 0.929 . S
C1067 C1059 1.433 . S
C1067 N1069 1.384 . S
N1068 C1064 1.427 . S
N1068 C1065 1.384 . S
N1069 C1061 1.427 . S
N1069 C1067 1.384 . S
H1070 C1076 0.930 . S
H1071 C1080 0.930 . S
H1072 C1085 0.929 . S
H1073 C1083 0.929 . S
H1074 C1078 0.929 . S
H1075 C1084 0.929 . S
C1076 H1070 0.930 . S
C1076 C1077 1.367 . S
C1076 C1084 1.378 . S
C1077 C1076 1.367 . S
C1077 C1085 1.433 . S
C1078 H1074 0.929 . S
C1078 C1080 1.378 . S
C1078 C1082 1.350 . S
C1079 C1082 1.463 . S
C1079 C1084 1.350 . S
C1079 N1087 1.427 . S
C1080 H1071 0.930 . S
C1080 C1078 1.378 . S
C1080 C1081 1.367 . S
C1081 C1080 1.367 . S
C1081 C1083 1.433 . S
C1082 C1078 1.350 . S
C1082 C1079 1.463 . S
C1082 N1086 1.427 . S
C1083 H1073 0.929 . S
C1083 C1081 1.433 . S
C1083 N1086 1.384 . S
C1084 H1075 0.929 . S
C1084 C1076 1.378 . S
C1084 C1079 1.350 . S
C1085 H1072 0.929 . S
C1085 C1077 1.433 . S
C1085 N1087 1.384 . S
N1086 C1082 1.427 . S
N1086 C1083 1.384 . S
N1087 C1079 1.427 . S
N1087 C1085 1.384 . S
H1088 C1094 0.930 . S
H1089 C1098 0.930 . S
H1090 C1103 0.929 . S
H1091 C1101 0.929 . S
H1092 C1096 0.929 . S
H1093 C1102 0.929 . S
C1094 H1088 0.930 . S
C1094 C1095 1.367 . S
C1094 C1102 1.378 . S
C1095 C1094 1.367 . S
C1095 C1103 1.433 . S
C1096 H1092 0.929 . S
C1096 C1098 1.378 . S
C1096 C1100 1.350 . S
C1097 C1100 1.463 . S
C1097 C1102 1.350 . S
C1097 N1105 1.427 . S
C1098 H1089 0.930 . S
C1098 C1096 1.378 . S
C1098 C1099 1.367 . S
C1099 C1098 1.367 . S
C1099 C1101 1.433 . S
C1100 C1096 1.350 . S
C1100 C1097 1.463 . S
C1100 N1104 1.427 . S
C1101 H1091 0.929 . S
C1101 C1099 1.433 . S
C1101 N1104 1.384 . S
C1102 H1093 0.929 . S
C1102 C1094 1.378 . S
C1102 C1097 1.350 . S
C1103 H1090 0.929 . S
C1103 C1095 1.433 . S
C1103 N1105 1.384 . S
N1104 C1100 1.427 . S
N1104 C1101 1.384 . S
N1105 C1097 1.427 . S
N1105 C1103 1.384 . S
H1106 C1112 0.930 . S
H1107 C1116 0.930 . S
H1108 C1121 0.929 . S
H1109 C1119 0.929 . S
H1110 C1114 0.929 . S
H1111 C1120 0.929 . S
C1112 H1106 0.930 . S
C1112 C1113 1.367 . S
C1112 C1120 1.378 . S
C1113 C1112 1.367 . S
C1113 C1121 1.433 . S
C1114 H1110 0.929 . S
C1114 C1116 1.378 . S
C1114 C1118 1.350 . S
C1115 C1118 1.463 . S
C1115 C1120 1.350 . S
C1115 N1123 1.427 . S
C1116 H1107 0.930 . S
C1116 C1114 1.378 . S
C1116 C1117 1.367 . S
C1117 C1116 1.367 . S
C1117 C1119 1.433 . S
C1118 C1114 1.350 . S
C1118 C1115 1.463 . S
C1118 N1122 1.427 . S
C1119 H1109 0.929 . S
C1119 C1117 1.433 . S
C1119 N1122 1.384 . S
C1120 H1111 0.929 . S
C1120 C1112 1.378 . S
C1120 C1115 1.350 . S
C1121 H1108 0.929 . S
C1121 C1113 1.433 . S
C1121 N1123 1.384 . S
N1122 C1118 1.427 . S
N1122 C1119 1.384 . S
N1123 C1115 1.427 . S
N1123 C1121 1.384 . S
H1124 C1130 0.930 . S
H1125 C1134 0.930 . S
H1126 C1139 0.929 . S
H1127 C1137 0.929 . S
H1128 C1132 0.929 . S
H1129 C1138 0.929 . S
C1130 H1124 0.930 . S
C1130 C1131 1.367 . S
C1130 C1138 1.378 . S
C1131 C1130 1.367 . S
C1131 C1139 1.433 . S
C1132 H1128 0.929 . S
C1132 C1134 1.378 . S
C1132 C1136 1.350 . S
C1133 C1136 1.463 . S
C1133 C1138 1.350 . S
C1133 N1141 1.427 . S
C1134 H1125 0.930 . S
C1134 C1132 1.378 . S
C1134 C1135 1.367 . S
C1135 C1134 1.367 . S
C1135 C1137 1.433 . S
C1136 C1132 1.350 . S
C1136 C1133 1.463 . S
C1136 N1140 1.427 . S
C1137 H1127 0.929 . S
C1137 C1135 1.433 . S
C1137 N1140 1.384 . S
C1138 H1129 0.929 . S
C1138 C1130 1.378 . S
C1138 C1133 1.350 . S
C1139 H1126 0.929 . S
C1139 C1131 1.433 . S
C1139 N1141 1.384 . S
N1140 C1136 1.427 . S
N1140 C1137 1.384 . S
N1141 C1133 1.427 . S
N1141 C1139 1.384 . S
H1142 C1148 0.930 . S
H1143 C1152 0.930 . S
H1144 C1157 0.929 . S
H1145 C1155 0.929 . S
H1146 C1150 0.929 . S
H1147 C1156 0.929 . S
C1148 H1142 0.930 . S
C1148 C1149 1.367 . S
C1148 C1156 1.378 . S
C1149 C1148 1.367 . S
C1149 C1157 1.433 . S
C1150 H1146 0.929 . S
C1150 C1152 1.378 . S
C1150 C1154 1.350 . S
C1151 C1154 1.463 . S
C1151 C1156 1.350 . S
C1151 N1159 1.427 . S
C1152 H1143 0.930 . S
C1152 C1150 1.378 . S
C1152 C1153 1.367 . S
C1153 C1152 1.367 . S
C1153 C1155 1.433 . S
C1154 C1150 1.350 . S
C1154 C1151 1.463 . S
C1154 N1158 1.427 . S
C1155 H1145 0.929 . S
C1155 C1153 1.433 . S
C1155 N1158 1.384 . S
C1156 H1147 0.929 . S
C1156 C1148 1.378 . S
C1156 C1151 1.350 . S
C1157 H1144 0.929 . S
C1157 C1149 1.433 . S
C1157 N1159 1.384 . S
N1158 C1154 1.427 . S
N1158 C1155 1.384 . S
N1159 C1151 1.427 . S
N1159 C1157 1.384 . S
H1160 C1166 0.930 . S
H1161 C1170 0.930 . S
H1162 C1175 0.929 . S
H1163 C1173 0.929 . S
H1164 C1168 0.929 . S
H1165 C1174 0.929 . S
C1166 H1160 0.930 . S
C1166 C1167 1.367 . S
C1166 C1174 1.378 . S
C1167 C1166 1.367 . S
C1167 C1175 1.433 . S
C1168 H1164 0.929 . S
C1168 C1170 1.378 . S
C1168 C1172 1.350 . S
C1169 C1172 1.463 . S
C1169 C1174 1.350 . S
C1169 N1177 1.427 . S
C1170 H1161 0.930 . S
C1170 C1168 1.378 . S
C1170 C1171 1.367 . S
C1171 C1170 1.367 . S
C1171 C1173 1.433 . S
C1172 C1168 1.350 . S
C1172 C1169 1.463 . S
C1172 N1176 1.427 . S
C1173 H1163 0.929 . S
C1173 C1171 1.433 . S
C1173 N1176 1.384 . S
C1174 H1165 0.929 . S
C1174 C1166 1.378 . S
C1174 C1169 1.350 . S
C1175 H1162 0.929 . S
C1175 C1167 1.433 . S
C1175 N1177 1.384 . S
N1176 C1172 1.427 . S
N1176 C1173 1.384 . S
N1177 C1169 1.427 . S
N1177 C1175 1.384 . S
H1178 C1184 0.930 . S
H1179 C1188 0.930 . S
H1180 C1193 0.929 . S
H1181 C1191 0.929 . S
H1182 C1186 0.929 . S
H1183 C1192 0.929 . S
C1184 H1178 0.930 . S
C1184 C1185 1.367 . S
C1184 C1192 1.378 . S
C1185 C1184 1.367 . S
C1185 C1193 1.433 . S
C1186 H1182 0.929 . S
C1186 C1188 1.378 . S
C1186 C1190 1.350 . S
C1187 C1190 1.463 . S
C1187 C1192 1.350 . S
C1187 N1195 1.427 . S
C1188 H1179 0.930 . S
C1188 C1186 1.378 . S
C1188 C1189 1.367 . S
C1189 C1188 1.367 . S
C1189 C1191 1.433 . S
C1190 C1186 1.350 . S
C1190 C1187 1.463 . S
C1190 N1194 1.427 . S
C1191 H1181 0.929 . S
C1191 C1189 1.433 . S
C1191 N1194 1.384 . S
C1192 H1183 0.929 . S
C1192 C1184 1.378 . S
C1192 C1187 1.350 . S
C1193 H1180 0.929 . S
C1193 C1185 1.433 . S
C1193 N1195 1.384 . S
N1194 C1190 1.427 . S
N1194 C1191 1.384 . S
N1195 C1187 1.427 . S
N1195 C1193 1.384 . S
H1196 C1202 0.930 . S
H1197 C1206 0.930 . S
H1198 C1211 0.929 . S
H1199 C1209 0.929 . S
H1200 C1204 0.929 . S
H1201 C1210 0.929 . S
C1202 H1196 0.930 . S
C1202 C1203 1.367 . S
C1202 C1210 1.378 . S
C1203 C1202 1.367 . S
C1203 C1211 1.433 . S
C1204 H1200 0.929 . S
C1204 C1206 1.378 . S
C1204 C1208 1.350 . S
C1205 C1208 1.463 . S
C1205 C1210 1.350 . S
C1205 N1213 1.427 . S
C1206 H1197 0.930 . S
C1206 C1204 1.378 . S
C1206 C1207 1.367 . S
C1207 C1206 1.367 . S
C1207 C1209 1.433 . S
C1208 C1204 1.350 . S
C1208 C1205 1.463 . S
C1208 N1212 1.427 . S
C1209 H1199 0.929 . S
C1209 C1207 1.433 . S
C1209 N1212 1.384 . S
C1210 H1201 0.929 . S
C1210 C1202 1.378 . S
C1210 C1205 1.350 . S
C1211 H1198 0.929 . S
C1211 C1203 1.433 . S
C1211 N1213 1.384 . S
N1212 C1208 1.427 . S
N1212 C1209 1.384 . S
N1213 C1205 1.427 . S
N1213 C1211 1.384 . S
H1214 C1220 0.930 . S
H1215 C1224 0.930 . S
H1216 C1229 0.929 . S
H1217 C1227 0.929 . S
H1218 C1222 0.929 . S
H1219 C1228 0.929 . S
C1220 H1214 0.930 . S
C1220 C1221 1.367 . S
C1220 C1228 1.378 . S
C1221 C1220 1.367 . S
C1221 C1229 1.433 . S
C1222 H1218 0.929 . S
C1222 C1224 1.378 . S
C1222 C1226 1.350 . S
C1223 C1226 1.463 . S
C1223 C1228 1.350 . S
C1223 N1231 1.427 . S
C1224 H1215 0.930 . S
C1224 C1222 1.378 . S
C1224 C1225 1.367 . S
C1225 C1224 1.367 . S
C1225 C1227 1.433 . S
C1226 C1222 1.350 . S
C1226 C1223 1.463 . S
C1226 N1230 1.427 . S
C1227 H1217 0.929 . S
C1227 C1225 1.433 . S
C1227 N1230 1.384 . S
C1228 H1219 0.929 . S
C1228 C1220 1.378 . S
C1228 C1223 1.350 . S
C1229 H1216 0.929 . S
C1229 C1221 1.433 . S
C1229 N1231 1.384 . S
N1230 C1226 1.427 . S
N1230 C1227 1.384 . S
N1231 C1223 1.427 . S
N1231 C1229 1.384 . S
H1232 C1238 0.930 . S
H1233 C1242 0.930 . S
H1234 C1247 0.929 . S
H1235 C1245 0.929 . S
H1236 C1240 0.929 . S
H1237 C1246 0.929 . S
C1238 H1232 0.930 . S
C1238 C1239 1.367 . S
C1238 C1246 1.378 1_556 S
C1239 C1238 1.367 . S
C1239 C1247 1.433 . S
C1240 H1236 0.929 . S
C1240 C1242 1.378 1_556 S
C1240 C1244 1.350 1_556 S
C1241 C1244 1.463 1_556 S
C1241 C1246 1.350 1_556 S
C1241 N1249 1.427 . S
C1242 H1233 0.930 . S
C1242 C1240 1.378 1_554 S
C1242 C1243 1.367 . S
C1243 C1242 1.367 . S
C1243 C1245 1.433 . S
C1244 C1240 1.350 1_554 S
C1244 C1241 1.463 1_554 S
C1244 N1248 1.427 . S
C1245 H1235 0.929 . S
C1245 C1243 1.433 . S
C1245 N1248 1.384 . S
C1246 H1237 0.929 . S
C1246 C1238 1.378 1_554 S
C1246 C1241 1.350 1_554 S
C1247 H1234 0.929 . S
C1247 C1239 1.433 . S
C1247 N1249 1.384 . S
N1248 C1244 1.427 . S
N1248 C1245 1.384 . S
N1249 C1241 1.427 . S
N1249 C1247 1.384 . S
H1250 C1256 0.930 . S
H1251 C1260 0.930 . S
H1252 C1265 0.929 . S
H1253 C1263 0.929 . S
H1254 C1258 0.929 . S
H1255 C1264 0.929 . S
C1256 H1250 0.930 . S
C1256 C1257 1.367 . S
C1256 C1264 1.378 . S
C1257 C1256 1.367 . S
C1257 C1265 1.433 . S
C1258 H1254 0.929 . S
C1258 C1260 1.378 . S
C1258 C1262 1.350 . S
C1259 C1262 1.463 . S
C1259 C1264 1.350 . S
C1259 N1267 1.427 . S
C1260 H1251 0.930 . S
C1260 C1258 1.378 . S
C1260 C1261 1.367 . S
C1261 C1260 1.367 . S
C1261 C1263 1.433 . S
C1262 C1258 1.350 . S
C1262 C1259 1.463 . S
C1262 N1266 1.427 . S
C1263 H1253 0.929 . S
C1263 C1261 1.433 . S
C1263 N1266 1.384 . S
C1264 H1255 0.929 . S
C1264 C1256 1.378 . S
C1264 C1259 1.350 . S
C1265 H1252 0.929 . S
C1265 C1257 1.433 . S
C1265 N1267 1.384 . S
N1266 C1262 1.427 . S
N1266 C1263 1.384 . S
N1267 C1259 1.427 . S
N1267 C1265 1.384 . S
H1268 C1274 0.930 . S
H1269 C1278 0.930 . S
H1270 C1283 0.929 . S
H1271 C1281 0.929 . S
H1272 C1276 0.919 1_554 S
H1273 C1282 0.929 . S
C1274 H1268 0.930 . S
C1274 C1275 1.367 . S
C1274 C1282 1.378 1_554 S
C1275 C1274 1.367 . S
C1275 C1283 1.433 . S
C1276 H1272 0.919 1_556 S
C1276 C1278 1.384 . S
C1276 C1280 1.354 . S
C1277 C1280 1.463 1_554 S
C1277 C1282 1.350 1_554 S
C1277 N1285 1.427 . S
C1278 H1269 0.930 . S
C1278 C1276 1.384 . S
C1278 C1279 1.367 . S
C1279 C1278 1.367 . S
C1279 C1281 1.433 . S
C1280 C1276 1.354 . S
C1280 C1277 1.463 1_556 S
C1280 N1284 1.427 . S
C1281 H1271 0.929 . S
C1281 C1279 1.433 . S
C1281 N1284 1.384 . S
C1282 H1273 0.929 . S
C1282 C1274 1.378 1_556 S
C1282 C1277 1.350 1_556 S
C1283 H1270 0.929 . S
C1283 C1275 1.433 . S
C1283 N1285 1.384 . S
N1284 C1280 1.427 . S
N1284 C1281 1.384 . S
N1285 C1277 1.427 . S
N1285 C1283 1.384 . S
H1286 C1292 0.930 . S
H1287 C1296 0.930 . S
H1288 C1301 0.929 . S
H1289 C1299 0.929 . S
H1290 C1294 0.929 . S
H1291 C1300 0.929 . S
C1292 H1286 0.930 . S
C1292 C1293 1.367 . S
C1292 C1300 1.378 . S
C1293 C1292 1.367 . S
C1293 C1301 1.433 . S
C1294 H1290 0.929 . S
C1294 C1296 1.378 . S
C1294 C1298 1.350 . S
C1295 C1298 1.463 . S
C1295 C1300 1.350 . S
C1295 N1303 1.427 . S
C1296 H1287 0.930 . S
C1296 C1294 1.378 . S
C1296 C1297 1.367 . S
C1297 C1296 1.367 . S
C1297 C1299 1.433 . S
C1298 C1294 1.350 . S
C1298 C1295 1.463 . S
C1298 N1302 1.427 . S
C1299 H1289 0.929 . S
C1299 C1297 1.433 . S
C1299 N1302 1.384 . S
C1300 H1291 0.929 . S
C1300 C1292 1.378 . S
C1300 C1295 1.350 . S
C1301 H1288 0.929 . S
C1301 C1293 1.433 . S
C1301 N1303 1.384 . S
N1302 C1298 1.427 . S
N1302 C1299 1.384 . S
N1303 C1295 1.427 . S
N1303 C1301 1.384 . S
H1304 C1310 0.930 . S
H1305 C1314 0.930 . S
H1306 C1319 0.929 . S
H1307 C1317 0.929 . S
H1308 C1312 0.929 1_554 S
H1309 C1318 0.929 1_556 S
C1310 H1304 0.930 . S
C1310 C1311 1.367 . S
C1310 C1318 1.378 . S
C1311 C1310 1.367 . S
C1311 C1319 1.433 . S
C1312 H1308 0.929 1_556 S
C1312 C1314 1.378 . S
C1312 C1316 1.350 . S
C1313 C1316 1.463 1_554 S
C1313 C1318 1.350 . S
C1313 N1321 1.427 . S
C1314 H1305 0.930 . S
C1314 C1312 1.378 . S
C1314 C1315 1.367 . S
C1315 C1314 1.367 . S
C1315 C1317 1.433 . S
C1316 C1312 1.350 . S
C1316 C1313 1.463 1_556 S
C1316 N1320 1.427 . S
C1317 H1307 0.929 . S
C1317 C1315 1.433 . S
C1317 N1320 1.384 . S
C1318 H1309 0.929 1_554 S
C1318 C1310 1.378 . S
C1318 C1313 1.350 . S
C1319 H1306 0.929 . S
C1319 C1311 1.433 . S
C1319 N1321 1.384 . S
N1320 C1316 1.427 . S
N1320 C1317 1.384 . S
N1321 C1313 1.427 . S
N1321 C1319 1.384 . S
H1322 C1328 0.930 . S
H1323 C1332 0.930 . S
H1324 C1337 0.929 . S
H1325 C1335 0.929 . S
H1326 C1330 0.929 . S
H1327 C1336 0.929 . S
C1328 H1322 0.930 . S
C1328 C1329 1.367 . S
C1328 C1336 1.378 . S
C1329 C1328 1.367 . S
C1329 C1337 1.433 . S
C1330 H1326 0.929 . S
C1330 C1332 1.378 . S
C1330 C1334 1.350 . S
C1331 C1334 1.463 . S
C1331 C1336 1.350 . S
C1331 N1339 1.427 . S
C1332 H1323 0.930 . S
C1332 C1330 1.378 . S
C1332 C1333 1.367 . S
C1333 C1332 1.367 . S
C1333 C1335 1.433 . S
C1334 C1330 1.350 . S
C1334 C1331 1.463 . S
C1334 N1338 1.427 . S
C1335 H1325 0.929 . S
C1335 C1333 1.433 . S
C1335 N1338 1.384 . S
C1336 H1327 0.929 . S
C1336 C1328 1.378 . S
C1336 C1331 1.350 . S
C1337 H1324 0.929 . S
C1337 C1329 1.433 . S
C1337 N1339 1.384 . S
N1338 C1334 1.427 . S
N1338 C1335 1.384 . S
N1339 C1331 1.427 . S
N1339 C1337 1.384 . S
H1340 C1346 0.930 . S
H1341 C1350 0.930 . S
H1342 C1355 0.929 . S
H1343 C1353 0.929 . S
H1344 C1348 0.929 . S
H1345 C1354 0.929 . S
C1346 H1340 0.930 . S
C1346 C1347 1.367 . S
C1346 C1354 1.378 . S
C1347 C1346 1.367 . S
C1347 C1355 1.433 . S
C1348 H1344 0.929 . S
C1348 C1350 1.378 . S
C1348 C1352 1.350 . S
C1349 C1352 1.463 1_554 S
C1349 C1354 1.350 . S
C1349 N1357 1.427 1_554 S
C1350 H1341 0.930 . S
C1350 C1348 1.378 . S
C1350 C1351 1.367 . S
C1351 C1350 1.367 . S
C1351 C1353 1.433 . S
C1352 C1348 1.350 . S
C1352 C1349 1.463 1_556 S
C1352 N1356 1.427 . S
C1353 H1343 0.929 . S
C1353 C1351 1.433 . S
C1353 N1356 1.384 . S
C1354 H1345 0.929 . S
C1354 C1346 1.378 . S
C1354 C1349 1.350 . S
C1355 H1342 0.929 . S
C1355 C1347 1.433 . S
C1355 N1357 1.384 1_554 S
N1356 C1352 1.427 . S
N1356 C1353 1.384 . S
N1357 C1349 1.427 1_556 S
N1357 C1355 1.384 1_556 S
H1358 C1364 0.930 . S
H1359 C1368 0.930 . S
H1360 C1373 0.929 . S
H1361 C1371 0.929 . S
H1362 C1366 0.929 . S
H1363 C1372 0.929 . S
C1364 H1358 0.930 . S
C1364 C1365 1.367 . S
C1364 C1372 1.378 . S
C1365 C1364 1.367 . S
C1365 C1373 1.433 . S
C1366 H1362 0.929 . S
C1366 C1368 1.378 . S
C1366 C1370 1.350 . S
C1367 C1370 1.463 . S
C1367 C1372 1.350 . S
C1367 N1375 1.427 . S
C1368 H1359 0.930 . S
C1368 C1366 1.378 . S
C1368 C1369 1.367 . S
C1369 C1368 1.367 . S
C1369 C1371 1.433 . S
C1370 C1366 1.350 . S
C1370 C1367 1.463 . S
C1370 N1374 1.427 . S
C1371 H1361 0.929 . S
C1371 C1369 1.433 . S
C1371 N1374 1.384 . S
C1372 H1363 0.929 . S
C1372 C1364 1.378 . S
C1372 C1367 1.350 . S
C1373 H1360 0.929 . S
C1373 C1365 1.433 . S
C1373 N1375 1.384 . S
N1374 C1370 1.427 . S
N1374 C1371 1.384 . S
N1375 C1367 1.427 . S
N1375 C1373 1.384 . S
H1376 C1382 0.930 . S
H1377 C1386 0.930 . S
H1378 C1391 0.929 . S
H1379 C1389 0.929 . S
H1380 C1384 0.929 . S
H1381 C1390 0.929 . S
C1382 H1376 0.930 . S
C1382 C1383 1.367 1_554 S
C1382 C1390 1.378 . S
C1383 C1382 1.367 1_556 S
C1383 C1391 1.433 . S
C1384 H1380 0.929 . S
C1384 C1386 1.378 . S
C1384 C1388 1.350 1_556 S
C1385 C1388 1.463 1_556 S
C1385 C1390 1.350 1_556 S
C1385 N1393 1.427 . S
C1386 H1377 0.930 . S
C1386 C1384 1.378 . S
C1386 C1387 1.367 1_556 S
C1387 C1386 1.367 1_554 S
C1387 C1389 1.433 . S
C1388 C1384 1.350 1_554 S
C1388 C1385 1.463 1_554 S
C1388 N1392 1.427 . S
C1389 H1379 0.929 . S
C1389 C1387 1.433 . S
C1389 N1392 1.384 . S
C1390 H1381 0.929 . S
C1390 C1382 1.378 . S
C1390 C1385 1.350 1_554 S
C1391 H1378 0.929 . S
C1391 C1383 1.433 . S
C1391 N1393 1.384 . S
N1392 C1388 1.427 . S
N1392 C1389 1.384 . S
N1393 C1385 1.427 . S
N1393 C1391 1.384 . S
H1394 C1400 0.930 . S
H1395 C1404 0.930 . S
H1396 C1409 0.929 . S
H1397 C1407 0.929 . S
H1398 C1402 0.929 . S
H1399 C1408 0.929 . S
C1400 H1394 0.930 . S
C1400 C1401 1.367 . S
C1400 C1408 1.378 . S
C1401 C1400 1.367 . S
C1401 C1409 1.433 . S
C1402 H1398 0.929 . S
C1402 C1404 1.378 . S
C1402 C1406 1.350 . S
C1403 C1406 1.463 . S
C1403 C1408 1.350 . S
C1403 N1411 1.427 . S
C1404 H1395 0.930 . S
C1404 C1402 1.378 . S
C1404 C1405 1.367 . S
C1405 C1404 1.367 . S
C1405 C1407 1.433 . S
C1406 C1402 1.350 . S
C1406 C1403 1.463 . S
C1406 N1410 1.427 . S
C1407 H1397 0.929 . S
C1407 C1405 1.433 . S
C1407 N1410 1.384 . S
C1408 H1399 0.929 . S
C1408 C1400 1.378 . S
C1408 C1403 1.350 . S
C1409 H1396 0.929 . S
C1409 C1401 1.433 . S
C1409 N1411 1.384 . S
N1410 C1406 1.427 . S
N1410 C1407 1.384 . S
N1411 C1403 1.427 . S
N1411 C1409 1.384 . S
H1412 C1418 0.930 1_556 S
H1413 C1422 0.930 1_554 S
H1414 C1427 0.929 . S
H1415 C1425 0.929 . S
H1416 C1420 0.929 . S
H1417 C1426 0.929 . S
C1418 H1412 0.930 1_554 S
C1418 C1419 1.367 . S
C1418 C1426 1.378 1_554 S
C1419 C1418 1.367 . S
C1419 C1427 1.433 . S
C1420 H1416 0.929 . S
C1420 C1422 1.378 1_554 S
C1420 C1424 1.350 1_554 S
C1421 C1424 1.463 1_554 S
C1421 C1426 1.350 1_554 S
C1421 N1429 1.427 . S
C1422 H1413 0.930 1_556 S
C1422 C1420 1.378 1_556 S
C1422 C1423 1.367 . S
C1423 C1422 1.367 . S
C1423 C1425 1.433 . S
C1424 C1420 1.350 1_556 S
C1424 C1421 1.463 1_556 S
C1424 N1428 1.427 . S
C1425 H1415 0.929 . S
C1425 C1423 1.433 . S
C1425 N1428 1.384 . S
C1426 H1417 0.929 . S
C1426 C1418 1.378 1_556 S
C1426 C1421 1.350 1_556 S
C1427 H1414 0.929 . S
C1427 C1419 1.433 . S
C1427 N1429 1.384 . S
N1428 C1424 1.427 . S
N1428 C1425 1.384 . S
N1429 C1421 1.427 . S
N1429 C1427 1.384 . S
H1430 C1436 0.930 . S
H1431 C1440 0.930 . S
H1432 C1445 0.929 . S
H1433 C1443 0.929 . S
H1434 C1438 0.929 . S
H1435 C1444 0.929 . S
C1436 H1430 0.930 . S
C1436 C1437 1.367 . S
C1436 C1444 1.378 . S
C1437 C1436 1.367 . S
C1437 C1445 1.433 . S
C1438 H1434 0.929 . S
C1438 C1440 1.378 . S
C1438 C1442 1.350 . S
C1439 C1442 1.463 . S
C1439 C1444 1.350 . S
C1439 N1447 1.427 . S
C1440 H1431 0.930 . S
C1440 C1438 1.378 . S
C1440 C1441 1.367 . S
C1441 C1440 1.367 . S
C1441 C1443 1.433 . S
C1442 C1438 1.350 . S
C1442 C1439 1.463 . S
C1442 N1446 1.427 . S
C1443 H1433 0.929 . S
C1443 C1441 1.433 . S
C1443 N1446 1.384 . S
C1444 H1435 0.929 . S
C1444 C1436 1.378 . S
C1444 C1439 1.350 . S
C1445 H1432 0.929 . S
C1445 C1437 1.433 . S
C1445 N1447 1.384 . S
N1446 C1442 1.427 . S
N1446 C1443 1.384 . S
N1447 C1439 1.427 . S
N1447 C1445 1.384 . S
H1448 C1454 0.930 . S
H1449 C1458 0.930 . S
H1450 C1463 0.929 . S
H1451 C1461 0.929 . S
H1452 C1456 0.929 . S
H1453 C1462 0.929 . S
C1454 H1448 0.930 . S
C1454 C1455 1.367 1_554 S
C1454 C1462 1.378 . S
C1455 C1454 1.367 1_556 S
C1455 C1463 1.433 . S
C1456 H1452 0.929 . S
C1456 C1458 1.378 . S
C1456 C1460 1.350 1_556 S
C1457 C1460 1.463 1_546 S
C1457 C1462 1.350 1_556 S
C1457 N1465 1.427 . S
C1458 H1449 0.930 . S
C1458 C1456 1.378 . S
C1458 C1459 1.367 1_556 S
C1459 C1458 1.367 1_554 S
C1459 C1461 1.433 . S
C1460 C1456 1.350 1_554 S
C1460 C1457 1.463 1_564 S
C1460 N1464 1.427 . S
C1461 H1451 0.929 . S
C1461 C1459 1.433 . S
C1461 N1464 1.384 . S
C1462 H1453 0.929 . S
C1462 C1454 1.378 . S
C1462 C1457 1.350 1_554 S
C1463 H1450 0.929 . S
C1463 C1455 1.433 . S
C1463 N1465 1.384 . S
N1464 C1460 1.427 . S
N1464 C1461 1.384 . S
N1465 C1457 1.427 . S
N1465 C1463 1.384 . S
H1466 C1472 0.930 . S
H1467 C1476 0.930 . S
H1468 C1481 0.929 . S
H1469 C1479 0.929 . S
H1470 C1474 0.929 . S
H1471 C1480 0.929 . S
C1472 H1466 0.930 . S
C1472 C1473 1.367 . S
C1472 C1480 1.378 . S
C1473 C1472 1.367 . S
C1473 C1481 1.433 . S
C1474 H1470 0.929 . S
C1474 C1476 1.378 . S
C1474 C1478 1.350 . S
C1475 C1478 1.463 1_565 S
C1475 C1480 1.350 . S
C1475 N1483 1.427 . S
C1476 H1467 0.930 . S
C1476 C1474 1.378 . S
C1476 C1477 1.367 . S
C1477 C1476 1.367 . S
C1477 C1479 1.433 . S
C1478 C1474 1.350 . S
C1478 C1475 1.463 1_545 S
C1478 N1482 1.427 . S
C1479 H1469 0.929 . S
C1479 C1477 1.433 . S
C1479 N1482 1.384 . S
C1480 H1471 0.929 . S
C1480 C1472 1.378 . S
C1480 C1475 1.350 . S
C1481 H1468 0.929 . S
C1481 C1473 1.433 . S
C1481 N1483 1.384 . S
N1482 C1478 1.427 . S
N1482 C1479 1.384 . S
N1483 C1475 1.427 . S
N1483 C1481 1.384 . S
H1484 C1490 0.930 . S
H1485 C1494 0.930 . S
H1486 C1499 0.929 1_556 S
H1487 C1497 0.929 1_554 S
H1488 C1492 0.929 . S
H1489 C1498 0.929 . S
C1490 H1484 0.930 . S
C1490 C1491 1.367 . S
C1490 C1498 1.378 . S
C1491 C1490 1.367 . S
C1491 C1499 1.433 . S
C1492 H1488 0.929 . S
C1492 C1494 1.378 . S
C1492 C1496 1.350 . S
C1493 C1496 1.463 1_564 S
C1493 C1498 1.350 . S
C1493 N1501 1.427 1_554 S
C1494 H1485 0.930 . S
C1494 C1492 1.378 . S
C1494 C1495 1.367 . S
C1495 C1494 1.367 . S
C1495 C1497 1.433 . S
C1496 C1492 1.350 . S
C1496 C1493 1.463 1_546 S
C1496 N1500 1.427 1_556 S
C1497 H1487 0.929 1_556 S
C1497 C1495 1.433 . S
C1497 N1500 1.384 1_556 S
C1498 H1489 0.929 . S
C1498 C1490 1.378 . S
C1498 C1493 1.350 . S
C1499 H1486 0.929 1_554 S
C1499 C1491 1.433 . S
C1499 N1501 1.384 1_554 S
N1500 C1496 1.427 1_554 S
N1500 C1497 1.384 1_554 S
N1501 C1493 1.427 1_556 S
N1501 C1499 1.384 1_556 S
H1502 C1508 0.930 . S
H1503 C1512 0.930 . S
H1504 C1517 0.929 . S
H1505 C1515 0.929 . S
H1506 C1510 0.929 . S
H1507 C1516 0.929 . S
C1508 H1502 0.930 . S
C1508 C1509 1.367 . S
C1508 C1516 1.378 . S
C1509 C1508 1.367 . S
C1509 C1517 1.433 . S
C1510 H1506 0.929 . S
C1510 C1512 1.378 . S
C1510 C1514 1.350 . S
C1511 C1514 1.463 1_545 S
C1511 C1516 1.350 . S
C1511 N1519 1.427 . S
C1512 H1503 0.930 . S
C1512 C1510 1.378 . S
C1512 C1513 1.367 . S
C1513 C1512 1.367 . S
C1513 C1515 1.433 . S
C1514 C1510 1.350 . S
C1514 C1511 1.463 1_565 S
C1514 N1518 1.427 . S
C1515 H1505 0.929 . S
C1515 C1513 1.433 . S
C1515 N1518 1.384 . S
C1516 H1507 0.929 . S
C1516 C1508 1.378 . S
C1516 C1511 1.350 . S
C1517 H1504 0.929 . S
C1517 C1509 1.433 . S
C1517 N1519 1.384 . S
N1518 C1514 1.427 . S
N1518 C1515 1.384 . S
N1519 C1511 1.427 . S
N1519 C1517 1.384 . S
C951 C52 1.530 . S
C955 C406 1.535 . S
C969 C111 1.531 . S
C973 C465 1.536 . S
C987 C288 1.533 . S
C991 C170 1.527 . S
C1005 C347 1.537 . S
C1009 C229 1.532 . S
C1023 C878 1.537 . S
C1027 C524 1.532 . S
C1041 C937 1.537 . S
C1045 C583 1.533 . S
C1059 C642 1.533 . S
C1063 C760 1.537 . S
C1077 C701 1.533 . S
C1081 C819 1.537 . S
C1095 C33 1.598 . S
C1099 C298 1.581 . S
C1113 C92 1.602 . S
C1117 C239 1.578 . S
C1131 C151 1.596 . S
C1135 C416 1.588 . S
C1149 C357 1.582 . S
C1153 C210 1.601 . S
C1167 C770 1.585 . S
C1171 C505 1.596 . S
C1185 C711 1.583 . S
C1189 C564 1.600 . S
C1203 C623 1.601 . S
C1207 C888 1.582 . S
C1221 C829 1.583 . S
C1225 C682 1.598 . S
C1239 C713 1.558 . S
C1243 C5 1.563 . S
C1257 C64 1.567 . S
C1261 C772 1.563 . S
C1275 C831 1.558 . S
C1279 C123 1.563 . S
C1293 C890 1.559 . S
C1297 C182 1.563 . S
C1311 C477 1.565 . S
C1315 C241 1.561 . S
C1329 C536 1.563 . S
C1333 C300 1.558 . S
C1347 C359 1.563 . S
C1351 C595 1.567 . S
C1365 C418 1.558 . S
C1369 C654 1.563 . S
C1383 C121 1.212 . S
C1387 C3 1.215 . S
C1401 C62 1.210 . S
C1405 C180 1.216 . S
C1419 C387 1.946 . S
C1423 C269 1.946 . S
C1437 C328 1.942 . S
C1441 C446 1.942 . S
C1455 C593 1.212 . S
C1459 C475 1.215 . S
C1473 C652 1.205 . S
C1477 C534 1.202 . S
C1491 C859 1.942 . S
C1495 C741 1.942 . S
C1509 C918 1.946 . S
C1513 C800 1.946 . S
