# Generated by pormake.
# Topology mdf, (4)-cn, num edge types: 1
# Building blocks:
#     Node 0, Type 0, BuildingBlock: KUFVIS_clean_sbu_0, # of connection points: 4
#     Node 1, Type 0, BuildingBlock: KUFVIS_clean_sbu_0, # of connection points: 4
#     Node 2, Type 0, BuildingBlock: KUFVIS_clean_sbu_0, # of connection points: 4
#     Node 3, Type 0, BuildingBlock: KUFVIS_clean_sbu_0, # of connection points: 4
#     Node 4, Type 0, BuildingBlock: KUFVIS_clean_sbu_0, # of connection points: 4
#     Node 5, Type 0, BuildingBlock: KUFVIS_clean_sbu_0, # of connection points: 4
#     Node 6, Type 0, BuildingBlock: KUFVIS_clean_sbu_0, # of connection points: 4
#     Node 7, Type 0, BuildingBlock: KUFVIS_clean_sbu_0, # of connection points: 4
#     Edge 8, Type (0, 0), BuildingBlock: CIFDUS_clean_linker_0, # of connection points: 2
#     Edge 9, Type (0, 0), BuildingBlock: CIFDUS_clean_linker_0, # of connection points: 2
#     Edge 10, Type (0, 0), BuildingBlock: CIFDUS_clean_linker_0, # of connection points: 2
#     Edge 11, Type (0, 0), BuildingBlock: CIFDUS_clean_linker_0, # of connection points: 2
#     Edge 12, Type (0, 0), BuildingBlock: CIFDUS_clean_linker_0, # of connection points: 2
#     Edge 13, Type (0, 0), BuildingBlock: CIFDUS_clean_linker_0, # of connection points: 2
#     Edge 14, Type (0, 0), BuildingBlock: CIFDUS_clean_linker_0, # of connection points: 2
#     Edge 15, Type (0, 0), BuildingBlock: CIFDUS_clean_linker_0, # of connection points: 2
#     Edge 16, Type (0, 0), BuildingBlock: CIFDUS_clean_linker_0, # of connection points: 2
#     Edge 17, Type (0, 0), BuildingBlock: CIFDUS_clean_linker_0, # of connection points: 2
#     Edge 18, Type (0, 0), BuildingBlock: CIFDUS_clean_linker_0, # of connection points: 2
#     Edge 19, Type (0, 0), BuildingBlock: CIFDUS_clean_linker_0, # of connection points: 2
#     Edge 20, Type (0, 0), BuildingBlock: CIFDUS_clean_linker_0, # of connection points: 2
#     Edge 21, Type (0, 0), BuildingBlock: CIFDUS_clean_linker_0, # of connection points: 2
#     Edge 22, Type (0, 0), BuildingBlock: CIFDUS_clean_linker_0, # of connection points: 2
#     Edge 23, Type (0, 0), BuildingBlock: CIFDUS_clean_linker_0, # of connection points: 2
# Relax obj value: 0.028
# Max RMSD: 0.051
# Mean RMSD: 0.051
data_MOF--net-mdf--node1-KUFVIS_clean_sbu_0--edge1-CIFDUS_clean_linker_0
_symmetry_space_group_name_H-M    P1
_symmetry_Int_Tables_number       1
_symmetry_cell_setting            triclinic
loop_
_symmetry_equiv_pos_as_xyz
'x, y, z'
_cell_length_a     32.733579
_cell_length_b     32.733073
_cell_length_c     10.607009
_cell_angle_alpha  90.398797
_cell_angle_beta   90.097796
_cell_angle_gamma 92.619733
loop_
_atom_site_label
_atom_site_type_symbol
_atom_site_fract_x
_atom_site_fract_y
_atom_site_fract_z
_atom_type_partial_charge
Mn0 Mn 0.24279 0.53459 0.37864 0.0
Mn1 Mn 0.26679 0.47616 0.12584 0.0
C2 C 0.20075 0.47764 0.32338 0.0
C3 C 0.21211 0.58872 0.48381 0.0
C4 C 0.31379 0.47748 0.37275 0.0
O5 O 0.28091 0.57282 0.27284 0.0
O6 O 0.28656 0.53299 0.09915 0.0
C7 C 0.2193 0.51063 0.91619 0.0
N8 N 0.23021 0.47804 0.98578 0.0
C9 C 0.19492 0.43078 0.84375 0.0
C10 C 0.18374 0.46376 0.76964 0.0
C11 C 0.19558 0.50384 0.80678 0.0
C12 C 0.21839 0.43935 0.95191 0.0
H13 H 0.22842 0.54145 0.94449 0.0
C14 C 0.29155 0.56717 0.15764 0.0
O15 O 0.24429 0.57208 0.52688 0.0
O16 O 0.1984 0.57536 0.37507 0.0
N17 N 0.24835 0.42022 0.1402 0.0
C18 C 0.25688 0.39261 0.23097 0.0
C19 C 0.24408 0.3514 0.21414 0.0
C20 C 0.22309 0.33903 0.10372 0.0
C21 C 0.21445 0.36812 1.0122 0.0
C22 C 0.22776 0.40873 0.03441 0.0
H23 H 0.27353 0.4019 0.31507 0.0
O24 O 0.20154 0.4917 0.43831 0.0
O25 O 0.2253 0.49644 0.24444 0.0
O26 O 0.28994 0.49979 0.43373 0.0
O27 O 0.30874 0.46932 0.25639 0.0
C28 C 0.19266 0.3585 0.90063 0.0
C29 C 0.18279 0.38983 0.81648 0.0
H30 H 0.16539 0.45873 0.6854 0.0
H31 H 0.18638 0.52931 0.75086 0.0
H32 H 0.2508 0.32917 0.28536 0.0
H33 H 0.21349 0.30722 0.09044 0.0
H34 H 0.18295 0.32713 0.88007 0.0
H35 H 0.16522 0.38233 0.73223 0.0
Mn36 Mn 0.48097 0.76621 0.61489 0.0
Mn37 Mn 0.52849 0.7583 0.89744 0.0
C38 C 0.54232 0.80352 0.65419 0.0
C39 C 0.43224 0.79531 0.48506 0.0
C40 C 0.53364 0.69451 0.68921 0.0
O41 O 0.43628 0.73953 0.72576 0.0
O42 O 0.47062 0.74021 0.90895 0.0
C43 C 0.48234 0.82522 1.00807 0.0
N44 N 0.51862 0.80762 0.98708 0.0
C45 C 0.55602 0.86447 0.08382 0.0
C46 C 0.51905 0.88298 0.10819 0.0
C47 C 0.48211 0.86341 0.0687 0.0
C48 C 0.5544 0.82697 0.01949 0.0
H49 H 0.45386 0.81064 0.97642 0.0
C50 C 0.43819 0.73361 0.84432 0.0
O51 O 0.44487 0.75897 0.46317 0.0
O52 O 0.44728 0.81457 0.58322 0.0
N53 N 0.58521 0.7744 0.91183 0.0
C54 C 0.61771 0.75073 0.8897 0.0
C55 C 0.65646 0.7629 0.93742 0.0
C56 C 0.66145 0.79911 1.00864 0.0
C57 C 0.62766 0.82295 0.03063 0.0
C58 C 0.58953 0.8083 0.98527 0.0
H59 H 0.61401 0.72226 0.83838 0.0
O60 O 0.52945 0.79702 0.53972 0.0
O61 O 0.51856 0.78863 0.74181 0.0
O62 O 0.51141 0.71312 0.61106 0.0
O63 O 0.54106 0.70759 0.80174 0.0
C64 C 0.6302 0.86052 0.09648 0.0
C65 C 0.59445 0.8819 0.11951 0.0
H66 H 0.51867 0.91231 0.15597 0.0
H67 H 0.45357 0.87788 0.08337 0.0
H68 H 0.68238 0.7443 0.91996 0.0
H69 H 0.69146 0.80867 0.04409 0.0
H70 H 0.6595 0.87341 0.12847 0.0
H71 H 0.59667 0.91137 0.16657 0.0
Mn72 Mn 0.27139 0.97822 0.8911 0.0
Mn73 Mn 0.25923 0.03033 0.61982 0.0
C74 C 0.30451 0.04172 0.86398 0.0
C75 C 0.30687 0.93122 1.00997 0.0
C76 C 0.19678 0.02906 0.83136 0.0
O77 O 0.24577 0.93428 0.773 0.0
O78 O 0.24211 0.97202 0.59743 0.0
C79 C 0.32648 0.9884 0.49586 0.0
N80 N 0.30832 0.02373 0.52623 0.0
C81 C 0.36558 0.0643 0.44631 0.0
C82 C 0.38455 0.02835 0.41202 0.0
C83 C 0.36512 0.99027 0.43869 0.0
C84 C 0.32752 0.06051 0.5061 0.0
H85 H 0.31211 0.95901 0.51829 0.0
C86 C 0.23726 0.93826 0.65625 0.0
O87 O 0.26953 0.93961 0.03783 0.0
O88 O 0.32248 0.94817 0.91002 0.0
N89 N 0.27422 0.08755 0.61959 0.0
C90 C 0.25095 0.11923 0.65455 0.0
C91 C 0.26461 0.15959 0.62817 0.0
C92 C 0.30184 0.16699 0.56485 0.0
C93 C 0.32462 0.13388 0.52632 0.0
C94 C 0.30871 0.09436 0.55147 0.0
H95 H 0.22211 0.11379 0.7019 0.0
O96 O 0.29968 0.02672 0.9759 0.0
O97 O 0.29069 0.01888 0.77155 0.0
O98 O 0.21631 0.00558 0.9039 0.0
O99 O 0.20918 0.03941 0.72078 0.0
C100 C 0.36258 0.13852 0.46456 0.0
C101 C 0.38346 0.1037 0.4269 0.0
H102 H 0.41436 0.0296 0.36765 0.0
H103 H 0.38022 0.96242 0.41794 0.0
H104 H 0.2466 0.18491 0.65716 0.0
H105 H 0.31271 0.19815 0.54676 0.0
H106 H 0.37627 0.16872 0.44751 0.0
H107 H 0.41317 0.10753 0.38264 0.0
Mn108 Mn 0.03708 0.7412 0.11475 0.0
Mn109 Mn 0.97957 0.76151 0.37206 0.0
C110 C 0.97819 0.70026 0.15561 0.0
C111 C 0.09054 0.71056 1.00697 0.0
C112 C 0.97969 0.81207 0.13283 0.0
O113 O 0.07637 0.77682 0.22564 0.0
O114 O 0.03677 0.78179 0.39811 0.0
C115 C 0.01743 0.71071 0.56712 0.0
N116 N 0.9837 0.7231 0.50552 0.0
C117 C 0.93879 0.68916 0.65499 0.0
C118 C 0.97302 0.67611 0.72042 0.0
C119 C 0.01244 0.6864 0.67522 0.0
C120 C 0.94561 0.71226 0.54597 0.0
H121 H 0.04775 0.71937 0.53391 0.0
C122 C 0.07089 0.7873 0.34074 0.0
O123 O 0.07507 0.74391 0.96821 0.0
O124 O 0.07628 0.69563 0.11232 0.0
N125 N 0.92333 0.74345 0.36353 0.0
C126 C 0.89396 0.75395 0.28023 0.0
C127 C 0.85281 0.74304 0.30548 0.0
C128 C 0.84232 0.72207 0.41686 0.0
C129 C 0.87313 0.71151 0.50085 0.0
C130 C 0.91357 0.72289 0.47019 0.0
H131 H 0.90185 0.77105 0.19634 0.0
O132 O 0.99367 0.70322 0.04326 0.0
O133 O 0.9976 0.72149 0.24369 0.0
O134 O 1.00342 0.79023 0.06931 0.0
O135 O 0.97071 0.80463 0.24725 0.0
C136 C 0.86534 0.69008 0.61368 0.0
C137 C 0.89816 0.67893 0.69086 0.0
H138 H 0.96945 0.65738 0.80372 0.0
H139 H 0.03878 0.67564 0.72418 0.0
H140 H 0.82917 0.75155 0.24062 0.0
H141 H 0.81056 0.71434 0.43736 0.0
H142 H 0.83427 0.68138 0.64058 0.0
H143 H 0.89192 0.66146 0.77544 0.0
Mn144 Mn 0.74869 0.02738 0.93831 0.0
Mn145 Mn 0.77163 0.98056 0.66287 0.0
C146 C 0.71318 0.96708 0.87982 0.0
C147 C 0.71356 0.07847 0.04381 0.0
C148 C 0.8233 0.97561 0.90103 0.0
O149 O 0.78437 0.07026 0.8452 0.0
O150 O 0.78689 0.03928 0.65573 0.0
C151 C 0.70892 0.02134 0.51358 0.0
N152 N 0.72663 0.98646 0.55025 0.0
C153 C 0.67615 0.94464 0.43795 0.0
C154 C 0.65762 0.98006 0.39782 0.0
C155 C 0.67394 0.01857 0.43645 0.0
C156 C 0.71049 0.94927 0.5163 0.0
H157 H 0.72102 0.05097 0.54465 0.0
C158 C 0.79334 0.07017 0.72814 0.0
O159 O 0.7463 0.06362 0.09106 0.0
O160 O 0.70144 0.06392 0.93524 0.0
N161 N 0.75935 0.92298 0.64898 0.0
C162 C 0.78264 0.89197 0.68851 0.0
C163 C 0.77265 0.85163 0.64959 0.0
C164 C 0.73937 0.84357 0.56812 0.0
C165 C 0.71675 0.87605 0.52501 0.0
C166 C 0.72885 0.91573 0.56448 0.0
H167 H 0.80876 0.89789 0.749 0.0
O168 O 0.7115 0.98046 0.99496 0.0
O169 O 0.73392 0.99016 0.80196 0.0
O170 O 0.79909 0.99446 0.97348 0.0
O171 O 0.81782 0.9718 0.78142 0.0
C172 C 0.68246 0.87062 0.44536 0.0
C173 C 0.66155 0.90487 0.40484 0.0
H174 H 0.63071 0.97805 0.33809 0.0
H175 H 0.65931 0.04596 0.40768 0.0
H176 H 0.79063 0.82683 0.68214 0.0
H177 H 0.73139 0.81238 0.53958 0.0
H178 H 0.67154 0.84025 0.41637 0.0
H179 H 0.63434 0.90028 0.34822 0.0
Mn180 Mn 0.97958 0.25607 0.10105 0.0
Mn181 Mn 0.03529 0.22547 0.34963 0.0
C182 C 0.03403 0.29839 0.17294 0.0
C183 C 0.92369 0.28723 1.00969 0.0
C184 C 0.03888 0.18758 0.08758 0.0
O185 O 0.94269 0.21224 0.18584 0.0
O186 O 0.97824 0.20381 0.36572 0.0
C187 C 0.99724 0.26601 0.56797 0.0
N188 N 0.03103 0.25735 0.49986 0.0
C189 C 0.07544 0.29054 0.65382 0.0
C190 C 0.04125 0.2992 0.72669 0.0
C191 C 1.00201 0.28725 0.68296 0.0
C192 C 0.069 0.26914 0.54044 0.0
H193 H 0.967 0.25715 0.53405 0.0
C194 C 0.94588 0.19885 0.29837 0.0
O195 O 0.94252 0.25848 0.95294 0.0
O196 O 0.93644 0.29728 0.12246 0.0
N197 N 0.09115 0.24526 0.34638 0.0
C198 C 0.12012 0.24003 0.25639 0.0
C199 C 0.16073 0.2536 0.28019 0.0
C200 C 0.17112 0.27241 0.39607 0.0
C201 C 0.14072 0.27764 0.48693 0.0
C202 C 0.10085 0.26312 0.45839 0.0
H203 H 0.11239 0.22537 0.16755 0.0
O204 O 0.02017 0.30101 0.05855 0.0
O205 O 0.01587 0.2705 0.24314 0.0
O206 O 0.01772 0.21348 0.03153 0.0
O207 O 0.04426 0.18814 0.20637 0.0
C208 C 0.14817 0.29752 0.60352 0.0
C209 C 0.11546 0.30392 0.68682 0.0
H210 H 0.04469 0.31605 0.81458 0.0
H211 H 0.97569 0.2948 0.7377 0.0
H212 H 0.18403 0.24927 0.20979 0.0
H213 H 0.20244 0.28296 0.41393 0.0
H214 H 0.17873 0.30887 0.62863 0.0
H215 H 0.12094 0.32019 0.77462 0.0
Mn216 Mn 0.76575 0.47847 0.45282 0.0
Mn217 Mn 0.7399 0.53483 0.2008 0.0
C218 C 0.80854 0.53482 0.39953 0.0
C219 C 0.79559 0.42228 0.54576 0.0
C220 C 0.69749 0.53834 0.45576 0.0
O221 O 0.72403 0.4414 0.35811 0.0
O222 O 0.71781 0.47782 0.18082 0.0
C223 C 0.78462 0.49485 0.99456 0.0
N224 N 0.77402 0.52925 0.05693 0.0
C225 C 0.8037 0.57251 0.89589 0.0
C226 C 0.81501 0.53761 0.82984 0.0
C227 C 0.80596 0.49869 0.88014 0.0
C228 C 0.78361 0.56688 1.01101 0.0
H229 H 0.77686 0.46488 0.03206 0.0
C230 C 0.71158 0.44523 0.24491 0.0
O231 O 0.76557 0.44037 0.59817 0.0
O232 O 0.80785 0.4361 0.43684 0.0
N233 N 0.75877 0.59092 0.20165 0.0
C234 C 0.75069 0.62114 0.28558 0.0
C235 C 0.76045 0.66203 0.25404 0.0
C236 C 0.77814 0.67141 0.13645 0.0
C237 C 0.78612 0.63976 0.05155 0.0
C238 C 0.77561 0.59966 0.08806 0.0
H239 H 0.73611 0.61415 0.37458 0.0
O240 O 0.80827 0.51887 0.51116 0.0
O241 O 0.78349 0.51678 0.31755 0.0
O242 O 0.72133 0.51568 0.51505 0.0
O243 O 0.70071 0.54493 0.33794 0.0
C244 C 0.80406 0.64633 0.93214 0.0
C245 C 0.8128 0.61266 0.85428 0.0
H246 H 0.83163 0.54031 0.7422 0.0
H247 H 0.81546 0.47192 0.83035 0.0
H248 H 0.75349 0.68632 0.31906 0.0
H249 H 0.78528 0.70299 0.11206 0.0
H250 H 0.81214 0.67704 0.90055 0.0
H251 H 0.82757 0.6178 0.76426 0.0
Mn252 Mn 0.52997 0.25121 0.60204 0.0
Mn253 Mn 0.48216 0.27747 0.86995 0.0
C254 C 0.47047 0.21356 0.66185 0.0
C255 C 0.58193 0.2158 0.50218 0.0
C256 C 0.47831 0.32566 0.62613 0.0
O257 O 0.57183 0.28933 0.69424 0.0
O258 O 0.54118 0.29179 0.88344 0.0
C259 C 0.51959 0.21691 0.03549 0.0
N260 N 0.48578 0.23497 0.9914 0.0
C261 C 0.44148 0.19183 0.11914 0.0
C262 C 0.47579 0.17302 0.16719 0.0
C263 C 0.51497 0.1853 0.12403 0.0
C264 C 0.4479 0.22235 0.02881 0.0
H265 H 0.54973 0.22626 1.00212 0.0
C266 C 0.57187 0.29874 0.81137 0.0
O267 O 0.5665 0.24762 0.45147 0.0
O268 O 0.56775 0.20498 0.61176 0.0
N269 N 0.42435 0.26648 0.87666 0.0
C270 C 0.39431 0.28763 0.8208 0.0
C271 C 0.35349 0.28076 0.85844 0.0
C272 C 0.34391 0.25271 0.95453 0.0
C273 C 0.37524 0.23148 1.0113 0.0
C274 C 0.41547 0.24027 0.97177 0.0
H275 H 0.4013 0.30986 0.74877 0.0
O276 O 0.48432 0.21208 0.54747 0.0
O277 O 0.49256 0.23663 0.73832 0.0
O278 O 0.49609 0.29983 0.557 0.0
O279 O 0.47541 0.32228 0.74616 0.0
C280 C 0.36809 0.20158 0.10447 0.0
C281 C 0.40113 0.18112 0.15597 0.0
H282 H 0.47238 0.14888 0.23624 0.0
H283 H 0.54143 0.17022 0.15852 0.0
H284 H 0.3295 0.29727 0.81406 0.0
H285 H 0.31235 0.24726 0.98275 0.0
H286 H 0.33724 0.19347 0.13516 0.0
H287 H 0.39517 0.15717 0.22357 0.0
H288 H 0.3801 0.67918 0.75522 0.0
H289 H 0.41842 0.74593 0.09012 0.0
H290 H 0.37232 0.70294 0.21848 0.0
H291 H 0.32909 0.6395 0.23954 0.0
H292 H 0.29442 0.57153 0.90232 0.0
H293 H 0.33024 0.62176 0.77276 0.0
C294 C 0.3774 0.68505 0.85561 0.0
C295 C 0.40298 0.7151 0.9132 0.0
C296 C 0.3519 0.65936 0.9297 0.0
C297 C 0.39934 0.7224 0.04375 0.0
C298 C 0.37312 0.69774 0.11752 0.0
C299 C 0.32895 0.63607 0.13777 0.0
C300 C 0.30976 0.60123 0.0819 0.0
C301 C 0.35061 0.66489 0.06234 0.0
C302 C 0.30952 0.59753 0.9492 0.0
C303 C 0.33001 0.62637 0.87409 0.0
H304 H 0.43961 0.87131 0.38931 0.0
H305 H 0.36132 0.76202 0.38464 0.0
H306 H 0.3137 0.79462 0.24152 0.0
H307 H 0.29456 0.8552 0.11624 0.0
H308 H 0.37867 0.96028 0.10222 0.0
H309 H 0.4237 0.92866 0.25287 0.0
C310 C 0.41195 0.85482 0.35742 0.0
C311 C 0.40349 0.8147 0.3987 0.0
C312 C 0.38576 0.87313 0.27148 0.0
C313 C 0.36821 0.7931 0.35434 0.0
C314 C 0.34102 0.81176 0.27271 0.0
C315 C 0.32275 0.87097 0.14668 0.0
C316 C 0.33329 0.91007 0.09911 0.0
C317 C 0.34944 0.85187 0.23047 0.0
C318 C 0.37008 0.93011 0.13751 0.0
C319 C 0.39573 0.91214 0.22406 0.0
H320 H 0.14005 0.82952 0.25718 0.0
H321 H 0.07844 0.78818 0.59587 0.0
H322 H 0.12861 0.82598 0.72497 0.0
H323 H 0.18475 0.878 0.74271 0.0
H324 H 0.24476 0.92233 0.40555 0.0
H325 H 0.20144 0.87595 0.27649 0.0
C326 C 0.13801 0.82834 0.35914 0.0
C327 C 0.10498 0.80662 0.41601 0.0
C328 C 0.16673 0.851 0.43397 0.0
C329 C 0.103 0.80525 0.54875 0.0
C330 C 0.13181 0.82684 0.6233 0.0
C331 C 0.18904 0.87668 0.64139 0.0
C332 C 0.21762 0.9038 0.58393 0.0
C333 C 0.16306 0.85088 0.56708 0.0
C334 C 0.22262 0.90199 0.45213 0.0
C335 C 0.19772 0.87559 0.37801 0.0
H336 H 0.10095 0.71627 0.75363 0.0
H337 H 0.14651 0.65602 0.08218 0.0
H338 H 0.19184 0.61684 0.94853 0.0
H339 H 0.21524 0.59684 0.73782 0.0
H340 H 0.15998 0.64727 0.40754 0.0
H341 H 0.12169 0.69342 0.54171 0.0
C342 C 0.12071 0.69446 0.79603 0.0
C343 C 0.12017 0.68887 0.92783 0.0
C344 C 0.14469 0.67022 0.71788 0.0
C345 C 0.14619 0.66074 0.9812 0.0
C346 C 0.17202 0.6383 0.90472 0.0
C347 C 0.19465 0.61774 0.69494 0.0
C348 C 0.1903 0.61844 0.56264 0.0
C349 C 0.17096 0.64227 0.77285 0.0
C350 C 0.16374 0.646 0.50891 0.0
C351 C 0.14182 0.67231 0.5857 0.0
H352 H 0.79307 0.09255 0.4837 0.0
H353 H 0.84586 0.12567 0.84556 0.0
H354 H 0.89658 0.17116 0.74181 0.0
H355 H 0.9313 0.1929 0.54848 0.0
H356 H 0.8794 0.15949 0.18552 0.0
H357 H 0.82286 0.12175 0.2903 0.0
C358 C 0.81527 0.11029 0.54008 0.0
C359 C 0.81632 0.10525 0.67189 0.0
C360 C 0.84489 0.1353 0.47965 0.0
C361 C 0.84454 0.12899 0.74411 0.0
C362 C 0.87381 0.15456 0.68466 0.0
C363 C 0.90755 0.17768 0.49177 0.0
C364 C 0.91002 0.17825 0.35914 0.0
C365 C 0.87524 0.15648 0.55243 0.0
C366 C 0.87846 0.15903 0.28758 0.0
C367 C 0.84616 0.13757 0.34745 0.0
H368 H 0.90739 0.28667 0.75851 0.0
H369 H 0.86784 0.33809 0.11086 0.0
H370 H 0.81996 0.38 0.99691 0.0
H371 H 0.79348 0.40564 0.79636 0.0
H372 H 0.84472 0.36505 0.44523 0.0
H373 H 0.88401 0.31501 0.55883 0.0
C374 C 0.88881 0.30741 0.81068 0.0
C375 C 0.89185 0.30978 0.94312 0.0
C376 C 0.86356 0.33337 0.7442 0.0
C377 C 0.86639 0.33591 1.00899 0.0
C378 C 0.8391 0.35993 0.94379 0.0
C379 C 0.81361 0.38625 0.74465 0.0
C380 C 0.81673 0.38962 0.61256 0.0
C381 C 0.83817 0.35961 0.81127 0.0
C382 C 0.84207 0.36335 0.54687 0.0
C383 C 0.86456 0.33481 0.61185 0.0
H384 H 0.70403 0.43099 0.99326 0.0
H385 H 0.66875 0.38112 0.35501 0.0
H386 H 0.6263 0.32766 0.24976 0.0
H387 H 0.5941 0.29976 0.05698 0.0
H388 H 0.6287 0.34982 0.69513 0.0
H389 H 0.67762 0.39805 0.79873 0.0
C390 C 0.6872 0.40834 0.04929 0.0
C391 C 0.68886 0.41056 0.1821 0.0
C392 C 0.66295 0.37774 0.98818 0.0
C393 C 0.6677 0.38035 0.25293 0.0
C394 C 0.6434 0.34982 0.19277 0.0
C395 C 0.61272 0.32089 1.00045 0.0
C396 C 0.60731 0.32171 0.86862 0.0
C397 C 0.64006 0.3489 0.06073 0.0
C398 C 0.63223 0.34862 0.79658 0.0
C399 C 0.65989 0.37644 0.85596 0.0
H400 H 0.71104 0.0933 0.29688 0.0
H401 H 0.66357 0.13382 0.94193 0.0
H402 H 0.62218 0.18316 0.05199 0.0
H403 H 0.59665 0.21241 0.25004 0.0
H404 H 0.63631 0.16467 0.60532 0.0
H405 H 0.68388 0.12121 0.49545 0.0
C406 C 0.69169 0.11301 0.24382 0.0
C407 C 0.6903 0.10978 0.11142 0.0
C408 C 0.6665 0.14005 0.30819 0.0
C409 C 0.66503 0.13552 0.04389 0.0
C410 C 0.64136 0.16377 0.1068 0.0
C411 C 0.61565 0.19242 0.30327 0.0
C412 C 0.61271 0.1916 0.43561 0.0
C413 C 0.64136 0.1659 0.23903 0.0
C414 C 0.63778 0.16572 0.50336 0.0
C415 C 0.66495 0.14079 0.44051 0.0
H416 H 0.37493 0.43449 0.27044 0.0
H417 H 0.32751 0.47432 0.62823 0.0
H418 H 0.37741 0.43422 0.73877 0.0
H419 H 0.43042 0.38313 0.73352 0.0
H420 H 0.4758 0.34225 0.37387 0.0
H421 H 0.43128 0.38806 0.26531 0.0
C422 C 0.37565 0.43483 0.37268 0.0
C423 C 0.3471 0.45722 0.44056 0.0
C424 C 0.4041 0.41138 0.43569 0.0
C425 C 0.34896 0.4574 0.57314 0.0
C426 C 0.37745 0.43433 0.63659 0.0
C427 C 0.43103 0.38455 0.63145 0.0
C428 C 0.45622 0.35862 0.56249 0.0
C429 C 0.40461 0.4105 0.5688 0.0
C430 C 0.45666 0.36141 0.43007 0.0
C431 C 0.43102 0.38756 0.36749 0.0
H432 H 0.6365 0.96977 0.79197 0.0
H433 H 0.72977 0.88679 0.88643 0.0
H434 H 0.68935 0.83005 0.78909 0.0
H435 H 0.62453 0.80305 0.69368 0.0
H436 H 0.52368 0.88231 0.6661 0.0
H437 H 0.56882 0.94154 0.72167 0.0
C438 C 0.6475 0.939 0.79264 0.0
C439 C 0.68685 0.93231 0.83808 0.0
C440 C 0.62205 0.90588 0.75165 0.0
C441 C 0.7003 0.8925 0.84531 0.0
C442 C 0.6769 0.86009 0.79212 0.0
C443 C 0.61242 0.83314 0.70293 0.0
C444 C 0.57089 0.83841 0.68023 0.0
C445 C 0.63747 0.86624 0.7466 0.0
C446 C 0.55564 0.87775 0.6858 0.0
C447 C 0.58128 0.91145 0.71812 0.0
H448 H 0.06973 0.1171 0.17089 0.0
H449 H 0.0586 0.18985 0.83587 0.0
H450 H 0.10311 0.14431 0.72162 0.0
H451 H 0.15041 0.08761 0.72357 0.0
H452 H 0.1616 0.01621 0.06216 0.0
H453 H 0.11131 0.05698 0.16667 0.0
C454 C 0.07665 0.12283 0.07243 0.0
C455 C 0.06112 0.15715 1.01267 0.0
C456 C 0.10243 0.09675 1.00769 0.0
C457 C 0.07006 0.1637 0.88447 0.0
C458 C 0.0957 0.13774 0.81916 0.0
C459 C 0.14155 0.08056 0.81967 0.0
C460 C 0.1606 0.04912 0.88501 0.0
C461 C 0.11285 0.10469 0.88073 0.0
C462 C 0.14802 0.04031 1.00918 0.0
C463 C 0.11926 0.06377 0.06964 0.0
H464 H 0.96229 0.65886 0.37351 0.0
H465 H 0.92523 0.66416 0.98606 0.0
H466 H 0.87582 0.60716 0.02061 0.0
H467 H 0.84009 0.55843 0.16867 0.0
H468 H 0.85944 0.57473 0.56601 0.0
H469 H 0.9194 0.61854 0.52354 0.0
C470 C 0.94085 0.65053 0.29957 0.0
C471 C 0.94546 0.6684 0.18045 0.0
C472 C 0.90876 0.62162 0.32307 0.0
C473 C 0.92133 0.65231 0.08038 0.0
C474 C 0.89257 0.62004 0.10018 0.0
C475 C 0.85385 0.57527 0.24577 0.0
C476 C 0.84196 0.56575 0.36954 0.0
C477 C 0.88479 0.6056 0.22226 0.0
C478 C 0.86605 0.58254 0.4691 0.0
C479 C 0.90026 0.6083 0.44549 0.0
H480 H 0.38289 0.04334 0.78854 0.0
H481 H 0.28675 0.12072 0.90374 0.0
H482 H 0.32786 0.18112 0.83947 0.0
H483 H 0.3898 0.21091 0.73313 0.0
H484 H 0.49243 0.13583 0.67344 0.0
H485 H 0.4501 0.07486 0.72752 0.0
C486 C 0.37154 0.07369 0.80197 0.0
C487 C 0.33138 0.07807 0.84431 0.0
C488 C 0.39669 0.10842 0.77501 0.0
C489 C 0.31728 0.11706 0.86733 0.0
C490 C 0.34107 0.15159 0.8325 0.0
C491 C 0.40388 0.18195 0.7417 0.0
C492 C 0.44482 0.17838 0.70673 0.0
C493 C 0.38059 0.14765 0.78415 0.0
C494 C 0.46116 0.13944 0.70353 0.0
C495 C 0.4371 0.10464 0.73483 0.0
H496 H 0.88053 0.92895 0.78682 0.0
H497 H 0.84189 0.9718 0.1521 0.0
H498 H 0.88917 0.92743 0.25466 0.0
H499 H 0.93648 0.87184 0.24272 0.0
H500 H 0.97486 0.82766 0.87923 0.0
H501 H 0.93288 0.87725 0.77484 0.0
C502 C 0.88272 0.92902 0.88882 0.0
C503 C 0.85699 0.95348 0.96104 0.0
C504 C 0.90975 0.90285 0.94807 0.0
C505 C 0.86087 0.95327 0.09333 0.0
C506 C 0.88789 0.92771 0.15254 0.0
C507 C 0.9361 0.87325 0.1406 0.0
C508 C 0.95863 0.84566 0.06928 0.0
C509 C 0.91165 0.90161 0.08105 0.0
C510 C 0.95791 0.8484 0.93692 0.0
C511 C 0.93372 0.87669 0.87696 0.0
H512 H 0.08184 0.35234 0.03892 0.0
H513 H 0.04078 0.32797 0.41407 0.0
H514 H 0.09536 0.37356 0.50172 0.0
H515 H 0.15605 0.42138 0.4637 0.0
H516 H 0.16275 0.4749 0.09645 0.0
H517 H 0.11928 0.41899 1.00856 0.0
C518 C 0.08524 0.35649 0.14002 0.0
C519 C 0.06264 0.33101 0.22303 0.0
C520 C 0.1109 0.38855 0.18745 0.0
C521 C 0.06363 0.34093 0.35178 0.0
C522 C 0.09336 0.36873 0.40069 0.0
C523 C 0.14837 0.42043 0.3642 0.0
C524 C 0.16801 0.44805 0.28067 0.0
C525 C 0.11818 0.39204 0.31858 0.0
C526 C 0.15354 0.4497 0.15644 0.0
C527 C 0.1275 0.41864 0.10754 0.0
H528 H 0.59278 0.65041 0.80559 0.0
H529 H 0.5235 0.65731 0.45963 0.0
H530 H 0.56623 0.60763 0.36113 0.0
H531 H 0.62737 0.5676 0.36397 0.0
H532 H 0.69755 0.55956 0.70669 0.0
H533 H 0.65045 0.60404 0.81488 0.0
C534 C 0.58667 0.64074 0.70922 0.0
C535 C 0.55526 0.65854 0.64001 0.0
C536 C 0.61185 0.61215 0.65156 0.0
C537 C 0.54762 0.64484 0.51555 0.0
C538 C 0.57219 0.61637 0.45844 0.0
C539 C 0.63217 0.57521 0.46277 0.0
C540 C 0.66619 0.56059 0.52657 0.0
C541 C 0.60509 0.60078 0.52415 0.0
C542 C 0.67159 0.57033 0.65514 0.0
C543 C 0.64475 0.59596 0.71696 0.0
loop_
_geom_bond_atom_site_label_1
_geom_bond_atom_site_label_2
_geom_bond_distance
_geom_bond_site_symmetry_2
_ccdc_geom_bond_type
Mn0 O5 2.095 . S
Mn0 O15 2.162 . S
Mn0 O16 2.297 . S
Mn0 O24 2.385 . S
Mn0 O25 2.209 . S
Mn0 O26 2.094 . S
Mn1 O6 2.121 . S
Mn1 N8 2.257 1_554 S
Mn1 N17 2.282 . S
Mn1 O25 2.215 . S
Mn1 O27 2.117 . S
C2 O24 1.234 . S
C2 O25 1.283 . S
C3 O15 1.281 . S
C3 O16 1.236 . S
C4 O26 1.240 . S
C4 O27 1.264 . S
O5 Mn0 2.095 . S
O5 C14 1.250 . S
O6 Mn1 2.121 . S
O6 C14 1.258 . S
C7 N8 1.326 . S
C7 C11 1.460 . S
C7 H13 0.929 . S
N8 Mn1 2.257 1_556 S
N8 C7 1.326 . S
N8 C12 1.362 . S
C9 C10 1.258 . S
C9 C12 1.431 . S
C9 C29 1.449 . S
C10 C9 1.258 . S
C10 C11 1.477 . S
C10 H30 0.931 . S
C11 C7 1.460 . S
C11 C10 1.477 . S
C11 H31 0.930 . S
C12 N8 1.362 . S
C12 C9 1.431 . S
C12 C22 1.476 1_556 S
H13 C7 0.929 . S
C14 O5 1.250 . S
C14 O6 1.258 . S
O15 Mn0 2.162 . S
O15 C3 1.281 . S
O16 Mn0 2.297 . S
O16 C3 1.236 . S
N17 Mn1 2.282 . S
N17 C18 1.328 . S
N17 C22 1.318 . S
C18 N17 1.328 . S
C18 C19 1.457 . S
C18 H23 0.929 . S
C19 C18 1.457 . S
C19 C20 1.291 . S
C19 H32 0.931 . S
C20 C19 1.291 . S
C20 C21 1.373 . S
C20 H33 0.929 . S
C21 C20 1.373 . S
C21 C22 1.396 . S
C21 C28 1.403 1_554 S
C22 C12 1.476 1_554 S
C22 N17 1.318 . S
C22 C21 1.396 . S
H23 C18 0.929 . S
O24 Mn0 2.385 . S
O24 C2 1.234 . S
O25 Mn0 2.209 . S
O25 Mn1 2.215 . S
O25 C2 1.283 . S
O26 Mn0 2.094 . S
O26 C4 1.240 . S
O27 Mn1 2.117 . S
O27 C4 1.264 . S
C28 C21 1.403 1_556 S
C28 C29 1.399 . S
C28 H34 0.929 . S
C29 C9 1.449 . S
C29 C28 1.399 . S
C29 H35 0.930 . S
H30 C10 0.931 . S
H31 C11 0.930 . S
H32 C19 0.931 . S
H33 C20 0.929 . S
H34 C28 0.929 . S
H35 C29 0.930 . S
Mn36 O41 2.095 . S
Mn36 O51 2.162 . S
Mn36 O52 2.297 . S
Mn36 O60 2.385 . S
Mn36 O61 2.209 . S
Mn36 O62 2.094 . S
Mn37 O42 2.121 . S
Mn37 N44 2.257 1_556 S
Mn37 N53 2.282 . S
Mn37 O61 2.215 . S
Mn37 O63 2.117 . S
C38 O60 1.234 . S
C38 O61 1.283 . S
C39 O51 1.281 . S
C39 O52 1.236 . S
C40 O62 1.240 . S
C40 O63 1.264 . S
O41 Mn36 2.095 . S
O41 C50 1.250 . S
O42 Mn37 2.121 . S
O42 C50 1.258 . S
C43 N44 1.326 . S
C43 C47 1.460 . S
C43 H49 0.929 . S
N44 Mn37 2.257 1_554 S
N44 C43 1.326 . S
N44 C48 1.362 . S
C45 C46 1.258 . S
C45 C48 1.431 . S
C45 C65 1.449 . S
C46 C45 1.258 . S
C46 C47 1.477 . S
C46 H66 0.931 . S
C47 C43 1.460 . S
C47 C46 1.477 . S
C47 H67 0.930 . S
C48 N44 1.362 . S
C48 C45 1.431 . S
C48 C58 1.476 1_554 S
H49 C43 0.929 . S
C50 O41 1.250 . S
C50 O42 1.258 . S
O51 Mn36 2.162 . S
O51 C39 1.281 . S
O52 Mn36 2.297 . S
O52 C39 1.236 . S
N53 Mn37 2.282 . S
N53 C54 1.328 . S
N53 C58 1.318 . S
C54 N53 1.328 . S
C54 C55 1.457 . S
C54 H59 0.929 . S
C55 C54 1.457 . S
C55 C56 1.291 . S
C55 H68 0.931 . S
C56 C55 1.291 . S
C56 C57 1.373 . S
C56 H69 0.929 . S
C57 C56 1.373 . S
C57 C58 1.396 . S
C57 C64 1.403 1_556 S
C58 C48 1.476 1_556 S
C58 N53 1.318 . S
C58 C57 1.396 . S
H59 C54 0.929 . S
O60 Mn36 2.385 . S
O60 C38 1.234 . S
O61 Mn36 2.209 . S
O61 Mn37 2.215 . S
O61 C38 1.283 . S
O62 Mn36 2.094 . S
O62 C40 1.240 . S
O63 Mn37 2.117 . S
O63 C40 1.264 . S
C64 C57 1.403 1_554 S
C64 C65 1.399 . S
C64 H70 0.929 . S
C65 C45 1.449 . S
C65 C64 1.399 . S
C65 H71 0.930 . S
H66 C46 0.931 . S
H67 C47 0.930 . S
H68 C55 0.931 . S
H69 C56 0.929 . S
H70 C64 0.929 . S
H71 C65 0.930 . S
Mn72 O77 2.095 . S
Mn72 O87 2.162 1_556 S
Mn72 O88 2.297 . S
Mn72 O96 2.385 1_565 S
Mn72 O97 2.209 1_565 S
Mn72 O98 2.094 1_566 S
Mn73 O78 2.121 1_545 S
Mn73 N80 2.257 . S
Mn73 N89 2.282 . S
Mn73 O97 2.215 . S
Mn73 O99 2.117 . S
C74 O96 1.234 . S
C74 O97 1.283 . S
C75 O87 1.281 . S
C75 O88 1.236 1_554 S
C76 O98 1.240 1_556 S
C76 O99 1.264 . S
O77 Mn72 2.095 . S
O77 C86 1.250 . S
O78 Mn73 2.121 1_565 S
O78 C86 1.258 . S
C79 N80 1.324 1_565 S
C79 C83 1.459 1_565 S
C79 H85 0.932 . S
N80 Mn73 2.257 . S
N80 C79 1.324 1_545 S
N80 C84 1.362 . S
C81 C82 1.258 . S
C81 C84 1.431 . S
C81 C101 1.449 . S
C82 C81 1.258 . S
C82 C83 1.477 . S
C82 H102 0.931 . S
C83 C79 1.459 1_545 S
C83 C82 1.477 . S
C83 H103 0.930 1_545 S
C84 N80 1.362 . S
C84 C81 1.431 . S
C84 C94 1.476 . S
H85 C79 0.932 . S
C86 O77 1.250 . S
C86 O78 1.258 . S
O87 Mn72 2.162 1_554 S
O87 C75 1.281 . S
O88 Mn72 2.297 . S
O88 C75 1.236 1_556 S
N89 Mn73 2.282 . S
N89 C90 1.328 . S
N89 C94 1.318 . S
C90 N89 1.328 . S
C90 C91 1.457 . S
C90 H95 0.929 . S
C91 C90 1.457 . S
C91 C92 1.291 . S
C91 H104 0.931 . S
C92 C91 1.291 . S
C92 C93 1.373 . S
C92 H105 0.929 . S
C93 C92 1.373 . S
C93 C94 1.396 . S
C93 C100 1.403 . S
C94 C84 1.476 . S
C94 N89 1.318 . S
C94 C93 1.396 . S
H95 C90 0.929 . S
O96 Mn72 2.385 1_545 S
O96 C74 1.234 . S
O97 Mn72 2.209 1_545 S
O97 Mn73 2.215 . S
O97 C74 1.283 . S
O98 Mn72 2.094 1_544 S
O98 C76 1.240 1_554 S
O99 Mn73 2.117 . S
O99 C76 1.264 . S
C100 C93 1.403 . S
C100 C101 1.399 . S
C100 H106 0.929 . S
C101 C81 1.449 . S
C101 C100 1.399 . S
C101 H107 0.930 . S
H102 C82 0.931 . S
H103 C83 0.930 1_565 S
H104 C91 0.931 . S
H105 C92 0.929 . S
H106 C100 0.929 . S
H107 C101 0.930 . S
Mn108 O113 2.095 . S
Mn108 O123 2.162 1_554 S
Mn108 O124 2.297 . S
Mn108 O132 2.385 1_455 S
Mn108 O133 2.209 1_455 S
Mn108 O134 2.094 1_454 S
Mn109 O114 2.121 1_655 S
Mn109 N116 2.257 . S
Mn109 N125 2.282 . S
Mn109 O133 2.215 . S
Mn109 O135 2.117 . S
C110 O132 1.234 . S
C110 O133 1.283 . S
C111 O123 1.281 . S
C111 O124 1.236 1_556 S
C112 O134 1.240 1_554 S
C112 O135 1.264 . S
O113 Mn108 2.095 . S
O113 C122 1.250 . S
O114 Mn109 2.121 1_455 S
O114 C122 1.258 . S
C115 N116 1.324 1_455 S
C115 C119 1.459 1_455 S
C115 H121 0.932 . S
N116 Mn109 2.257 . S
N116 C115 1.324 1_655 S
N116 C120 1.362 . S
C117 C118 1.258 . S
C117 C120 1.431 . S
C117 C137 1.449 . S
C118 C117 1.258 . S
C118 C119 1.477 . S
C118 H138 0.931 . S
C119 C115 1.459 1_655 S
C119 C118 1.477 . S
C119 H139 0.930 1_655 S
C120 N116 1.362 . S
C120 C117 1.431 . S
C120 C130 1.476 . S
H121 C115 0.932 . S
C122 O113 1.250 . S
C122 O114 1.258 . S
O123 Mn108 2.162 1_556 S
O123 C111 1.281 . S
O124 Mn108 2.297 . S
O124 C111 1.236 1_554 S
N125 Mn109 2.282 . S
N125 C126 1.328 . S
N125 C130 1.318 . S
C126 N125 1.328 . S
C126 C127 1.457 . S
C126 H131 0.929 . S
C127 C126 1.457 . S
C127 C128 1.291 . S
C127 H140 0.931 . S
C128 C127 1.291 . S
C128 C129 1.373 . S
C128 H141 0.929 . S
C129 C128 1.373 . S
C129 C130 1.396 . S
C129 C136 1.403 . S
C130 C120 1.476 . S
C130 N125 1.318 . S
C130 C129 1.396 . S
H131 C126 0.929 . S
O132 Mn108 2.385 1_655 S
O132 C110 1.234 . S
O133 Mn108 2.209 1_655 S
O133 Mn109 2.215 . S
O133 C110 1.283 . S
O134 Mn108 2.094 1_656 S
O134 C112 1.240 1_556 S
O135 Mn109 2.117 . S
O135 C112 1.264 . S
C136 C129 1.403 . S
C136 C137 1.399 . S
C136 H142 0.929 . S
C137 C117 1.449 . S
C137 C136 1.399 . S
C137 H143 0.930 . S
H138 C118 0.931 . S
H139 C119 0.930 1_455 S
H140 C127 0.931 . S
H141 C128 0.929 . S
H142 C136 0.929 . S
H143 C137 0.930 . S
Mn144 O149 2.095 . S
Mn144 O159 2.162 1_556 S
Mn144 O160 2.297 . S
Mn144 O168 2.385 1_545 S
Mn144 O169 2.209 1_545 S
Mn144 O170 2.094 1_546 S
Mn145 O150 2.121 1_565 S
Mn145 N152 2.257 . S
Mn145 N161 2.282 . S
Mn145 O169 2.215 . S
Mn145 O171 2.117 . S
C146 O168 1.234 . S
C146 O169 1.283 . S
C147 O159 1.281 . S
C147 O160 1.236 1_554 S
C148 O170 1.240 1_556 S
C148 O171 1.264 . S
O149 Mn144 2.095 . S
O149 C158 1.250 . S
O150 Mn145 2.121 1_545 S
O150 C158 1.258 . S
C151 N152 1.324 1_545 S
C151 C155 1.459 1_545 S
C151 H157 0.932 . S
N152 Mn145 2.257 . S
N152 C151 1.324 1_565 S
N152 C156 1.362 . S
C153 C154 1.258 . S
C153 C156 1.431 . S
C153 C173 1.449 . S
C154 C153 1.258 . S
C154 C155 1.477 . S
C154 H174 0.931 . S
C155 C151 1.459 1_565 S
C155 C154 1.477 . S
C155 H175 0.930 1_565 S
C156 N152 1.362 . S
C156 C153 1.431 . S
C156 C166 1.476 . S
H157 C151 0.932 . S
C158 O149 1.250 . S
C158 O150 1.258 . S
O159 Mn144 2.162 1_554 S
O159 C147 1.281 . S
O160 Mn144 2.297 . S
O160 C147 1.236 1_556 S
N161 Mn145 2.282 . S
N161 C162 1.328 . S
N161 C166 1.318 . S
C162 N161 1.328 . S
C162 C163 1.457 . S
C162 H167 0.929 . S
C163 C162 1.457 . S
C163 C164 1.291 . S
C163 H176 0.931 . S
C164 C163 1.291 . S
C164 C165 1.373 . S
C164 H177 0.929 . S
C165 C164 1.373 . S
C165 C166 1.396 . S
C165 C172 1.403 . S
C166 C156 1.476 . S
C166 N161 1.318 . S
C166 C165 1.396 . S
H167 C162 0.929 . S
O168 Mn144 2.385 1_565 S
O168 C146 1.234 . S
O169 Mn144 2.209 1_565 S
O169 Mn145 2.215 . S
O169 C146 1.283 . S
O170 Mn144 2.094 1_564 S
O170 C148 1.240 1_554 S
O171 Mn145 2.117 . S
O171 C148 1.264 . S
C172 C165 1.403 . S
C172 C173 1.399 . S
C172 H178 0.929 . S
C173 C153 1.449 . S
C173 C172 1.399 . S
C173 H179 0.930 . S
H174 C154 0.931 . S
H175 C155 0.930 1_545 S
H176 C163 0.931 . S
H177 C164 0.929 . S
H178 C172 0.929 . S
H179 C173 0.930 . S
Mn180 O185 2.095 . S
Mn180 O195 2.162 1_554 S
Mn180 O196 2.297 . S
Mn180 O204 2.385 1_655 S
Mn180 O205 2.209 1_655 S
Mn180 O206 2.094 1_654 S
Mn181 O186 2.121 1_455 S
Mn181 N188 2.257 . S
Mn181 N197 2.282 . S
Mn181 O205 2.215 . S
Mn181 O207 2.117 . S
C182 O204 1.234 . S
C182 O205 1.283 . S
C183 O195 1.281 . S
C183 O196 1.236 1_556 S
C184 O206 1.240 1_554 S
C184 O207 1.264 . S
O185 Mn180 2.095 . S
O185 C194 1.250 . S
O186 Mn181 2.121 1_655 S
O186 C194 1.258 . S
C187 N188 1.324 1_655 S
C187 C191 1.459 1_655 S
C187 H193 0.932 . S
N188 Mn181 2.257 . S
N188 C187 1.324 1_455 S
N188 C192 1.362 . S
C189 C190 1.258 . S
C189 C192 1.431 . S
C189 C209 1.449 . S
C190 C189 1.258 . S
C190 C191 1.477 . S
C190 H210 0.931 . S
C191 C187 1.459 1_455 S
C191 C190 1.477 . S
C191 H211 0.930 1_455 S
C192 N188 1.362 . S
C192 C189 1.431 . S
C192 C202 1.476 . S
H193 C187 0.932 . S
C194 O185 1.250 . S
C194 O186 1.258 . S
O195 Mn180 2.162 1_556 S
O195 C183 1.281 . S
O196 Mn180 2.297 . S
O196 C183 1.236 1_554 S
N197 Mn181 2.282 . S
N197 C198 1.328 . S
N197 C202 1.318 . S
C198 N197 1.328 . S
C198 C199 1.457 . S
C198 H203 0.929 . S
C199 C198 1.457 . S
C199 C200 1.291 . S
C199 H212 0.931 . S
C200 C199 1.291 . S
C200 C201 1.373 . S
C200 H213 0.929 . S
C201 C200 1.373 . S
C201 C202 1.396 . S
C201 C208 1.403 . S
C202 C192 1.476 . S
C202 N197 1.318 . S
C202 C201 1.396 . S
H203 C198 0.929 . S
O204 Mn180 2.385 1_455 S
O204 C182 1.234 . S
O205 Mn180 2.209 1_455 S
O205 Mn181 2.215 . S
O205 C182 1.283 . S
O206 Mn180 2.094 1_456 S
O206 C184 1.240 1_556 S
O207 Mn181 2.117 . S
O207 C184 1.264 . S
C208 C201 1.403 . S
C208 C209 1.399 . S
C208 H214 0.929 . S
C209 C189 1.449 . S
C209 C208 1.399 . S
C209 H215 0.930 . S
H210 C190 0.931 . S
H211 C191 0.930 1_655 S
H212 C199 0.931 . S
H213 C200 0.929 . S
H214 C208 0.929 . S
H215 C209 0.930 . S
Mn216 O221 2.095 . S
Mn216 O231 2.162 . S
Mn216 O232 2.297 . S
Mn216 O240 2.385 . S
Mn216 O241 2.209 . S
Mn216 O242 2.094 . S
Mn217 O222 2.121 . S
Mn217 N224 2.257 1_554 S
Mn217 N233 2.282 . S
Mn217 O241 2.215 . S
Mn217 O243 2.117 . S
C218 O240 1.234 . S
C218 O241 1.283 . S
C219 O231 1.281 . S
C219 O232 1.236 . S
C220 O242 1.240 . S
C220 O243 1.264 . S
O221 Mn216 2.095 . S
O221 C230 1.250 . S
O222 Mn217 2.121 . S
O222 C230 1.258 . S
C223 N224 1.326 . S
C223 C227 1.460 . S
C223 H229 0.929 . S
N224 Mn217 2.257 1_556 S
N224 C223 1.326 . S
N224 C228 1.362 . S
C225 C226 1.258 . S
C225 C228 1.431 . S
C225 C245 1.449 . S
C226 C225 1.258 . S
C226 C227 1.477 . S
C226 H246 0.931 . S
C227 C223 1.460 . S
C227 C226 1.477 . S
C227 H247 0.930 . S
C228 N224 1.362 . S
C228 C225 1.431 . S
C228 C238 1.476 1_556 S
H229 C223 0.929 . S
C230 O221 1.250 . S
C230 O222 1.258 . S
O231 Mn216 2.162 . S
O231 C219 1.281 . S
O232 Mn216 2.297 . S
O232 C219 1.236 . S
N233 Mn217 2.282 . S
N233 C234 1.328 . S
N233 C238 1.318 . S
C234 N233 1.328 . S
C234 C235 1.457 . S
C234 H239 0.929 . S
C235 C234 1.457 . S
C235 C236 1.291 . S
C235 H248 0.931 . S
C236 C235 1.291 . S
C236 C237 1.373 . S
C236 H249 0.929 . S
C237 C236 1.373 . S
C237 C238 1.396 . S
C237 C244 1.403 1_554 S
C238 C228 1.476 1_554 S
C238 N233 1.318 . S
C238 C237 1.396 . S
H239 C234 0.929 . S
O240 Mn216 2.385 . S
O240 C218 1.234 . S
O241 Mn216 2.209 . S
O241 Mn217 2.215 . S
O241 C218 1.283 . S
O242 Mn216 2.094 . S
O242 C220 1.240 . S
O243 Mn217 2.117 . S
O243 C220 1.264 . S
C244 C237 1.403 1_556 S
C244 C245 1.399 . S
C244 H250 0.929 . S
C245 C225 1.449 . S
C245 C244 1.399 . S
C245 H251 0.930 . S
H246 C226 0.931 . S
H247 C227 0.930 . S
H248 C235 0.931 . S
H249 C236 0.929 . S
H250 C244 0.929 . S
H251 C245 0.930 . S
Mn252 O257 2.095 . S
Mn252 O267 2.162 . S
Mn252 O268 2.297 . S
Mn252 O276 2.385 . S
Mn252 O277 2.209 . S
Mn252 O278 2.094 . S
Mn253 O258 2.121 . S
Mn253 N260 2.257 1_556 S
Mn253 N269 2.282 . S
Mn253 O277 2.215 . S
Mn253 O279 2.117 . S
C254 O276 1.234 . S
C254 O277 1.283 . S
C255 O267 1.281 . S
C255 O268 1.236 . S
C256 O278 1.240 . S
C256 O279 1.264 . S
O257 Mn252 2.095 . S
O257 C266 1.250 . S
O258 Mn253 2.121 . S
O258 C266 1.258 . S
C259 N260 1.326 . S
C259 C263 1.460 . S
C259 H265 0.929 . S
N260 Mn253 2.257 1_554 S
N260 C259 1.326 . S
N260 C264 1.362 . S
C261 C262 1.258 . S
C261 C264 1.431 . S
C261 C281 1.449 . S
C262 C261 1.258 . S
C262 C263 1.477 . S
C262 H282 0.931 . S
C263 C259 1.460 . S
C263 C262 1.477 . S
C263 H283 0.930 . S
C264 N260 1.362 . S
C264 C261 1.431 . S
C264 C274 1.476 1_554 S
H265 C259 0.929 . S
C266 O257 1.250 . S
C266 O258 1.258 . S
O267 Mn252 2.162 . S
O267 C255 1.281 . S
O268 Mn252 2.297 . S
O268 C255 1.236 . S
N269 Mn253 2.282 . S
N269 C270 1.328 . S
N269 C274 1.318 . S
C270 N269 1.328 . S
C270 C271 1.457 . S
C270 H275 0.929 . S
C271 C270 1.457 . S
C271 C272 1.291 . S
C271 H284 0.931 . S
C272 C271 1.291 . S
C272 C273 1.373 . S
C272 H285 0.929 . S
C273 C272 1.373 . S
C273 C274 1.396 . S
C273 C280 1.403 1_556 S
C274 C264 1.476 1_556 S
C274 N269 1.318 . S
C274 C273 1.396 . S
H275 C270 0.929 . S
O276 Mn252 2.385 . S
O276 C254 1.234 . S
O277 Mn252 2.209 . S
O277 Mn253 2.215 . S
O277 C254 1.283 . S
O278 Mn252 2.094 . S
O278 C256 1.240 . S
O279 Mn253 2.117 . S
O279 C256 1.264 . S
C280 C273 1.403 1_554 S
C280 C281 1.399 . S
C280 H286 0.929 . S
C281 C261 1.449 . S
C281 C280 1.399 . S
C281 H287 0.930 . S
H282 C262 0.931 . S
H283 C263 0.930 . S
H284 C271 0.931 . S
H285 C272 0.929 . S
H286 C280 0.929 . S
H287 C281 0.930 . S
H288 C294 0.930 . S
H289 C297 0.930 . S
H290 C298 0.930 . S
H291 C299 0.930 . S
H292 C302 0.930 . S
H293 C303 0.930 . S
C294 H288 0.930 . S
C294 C295 1.355 . S
C294 C296 1.415 . S
C295 C294 1.355 . S
C295 C297 1.419 . S
C296 C294 1.415 . S
C296 C301 1.425 1_556 S
C296 C303 1.409 . S
C297 H289 0.930 . S
C297 C295 1.419 . S
C297 C298 1.362 1_556 S
C298 H290 0.930 . S
C298 C297 1.362 1_554 S
C298 C301 1.409 . S
C299 H291 0.930 . S
C299 C300 1.355 . S
C299 C301 1.415 . S
C300 C299 1.355 . S
C300 C302 1.419 . S
C301 C296 1.425 1_554 S
C301 C298 1.409 . S
C301 C299 1.415 . S
C302 H292 0.930 . S
C302 C300 1.419 . S
C302 C303 1.362 1_554 S
C303 H293 0.930 . S
C303 C296 1.409 . S
C303 C302 1.362 1_556 S
H304 C310 0.930 . S
H305 C313 0.930 . S
H306 C314 0.930 . S
H307 C315 0.930 . S
H308 C318 0.930 . S
H309 C319 0.930 . S
C310 H304 0.930 . S
C310 C311 1.355 . S
C310 C312 1.415 . S
C311 C310 1.355 . S
C311 C313 1.419 . S
C312 C310 1.415 . S
C312 C317 1.425 . S
C312 C319 1.409 . S
C313 H305 0.930 . S
C313 C311 1.419 . S
C313 C314 1.362 . S
C314 H306 0.930 . S
C314 C313 1.362 . S
C314 C317 1.409 . S
C315 H307 0.930 . S
C315 C316 1.355 . S
C315 C317 1.415 . S
C316 C315 1.355 . S
C316 C318 1.419 . S
C317 C312 1.425 . S
C317 C314 1.409 . S
C317 C315 1.415 . S
C318 H308 0.930 . S
C318 C316 1.419 . S
C318 C319 1.362 . S
C319 H309 0.930 . S
C319 C312 1.409 . S
C319 C318 1.362 . S
H320 C326 0.930 . S
H321 C329 0.930 . S
H322 C330 0.930 . S
H323 C331 0.930 . S
H324 C334 0.930 . S
H325 C335 0.930 . S
C326 H320 0.930 . S
C326 C327 1.355 . S
C326 C328 1.415 . S
C327 C326 1.355 . S
C327 C329 1.419 . S
C328 C326 1.415 . S
C328 C333 1.425 . S
C328 C335 1.409 . S
C329 H321 0.930 . S
C329 C327 1.419 . S
C329 C330 1.362 . S
C330 H322 0.930 . S
C330 C329 1.362 . S
C330 C333 1.409 . S
C331 H323 0.930 . S
C331 C332 1.355 . S
C331 C333 1.415 . S
C332 C331 1.355 . S
C332 C334 1.419 . S
C333 C328 1.425 . S
C333 C330 1.409 . S
C333 C331 1.415 . S
C334 H324 0.930 . S
C334 C332 1.419 . S
C334 C335 1.362 . S
C335 H325 0.930 . S
C335 C328 1.409 . S
C335 C334 1.362 . S
H336 C342 0.930 . S
H337 C345 0.930 1_554 S
H338 C346 0.930 . S
H339 C347 0.930 . S
H340 C350 0.930 . S
H341 C351 0.930 . S
C342 H336 0.930 . S
C342 C343 1.355 . S
C342 C344 1.415 . S
C343 C342 1.355 . S
C343 C345 1.419 . S
C344 C342 1.415 . S
C344 C349 1.425 . S
C344 C351 1.409 . S
C345 H337 0.930 1_556 S
C345 C343 1.419 . S
C345 C346 1.362 . S
C346 H338 0.930 . S
C346 C345 1.362 . S
C346 C349 1.409 . S
C347 H339 0.930 . S
C347 C348 1.355 . S
C347 C349 1.415 . S
C348 C347 1.355 . S
C348 C350 1.419 . S
C349 C344 1.425 . S
C349 C346 1.409 . S
C349 C347 1.415 . S
C350 H340 0.930 . S
C350 C348 1.419 . S
C350 C351 1.362 . S
C351 H341 0.930 . S
C351 C344 1.409 . S
C351 C350 1.362 . S
H352 C358 0.930 . S
H353 C361 0.930 . S
H354 C362 0.930 . S
H355 C363 0.930 . S
H356 C366 0.930 . S
H357 C367 0.930 . S
C358 H352 0.930 . S
C358 C359 1.355 . S
C358 C360 1.415 . S
C359 C358 1.355 . S
C359 C361 1.419 . S
C360 C358 1.415 . S
C360 C365 1.425 . S
C360 C367 1.409 . S
C361 H353 0.930 . S
C361 C359 1.419 . S
C361 C362 1.362 . S
C362 H354 0.930 . S
C362 C361 1.362 . S
C362 C365 1.409 . S
C363 H355 0.930 . S
C363 C364 1.355 . S
C363 C365 1.415 . S
C364 C363 1.355 . S
C364 C366 1.419 . S
C365 C360 1.425 . S
C365 C362 1.409 . S
C365 C363 1.415 . S
C366 H356 0.930 . S
C366 C364 1.419 . S
C366 C367 1.362 . S
C367 H357 0.930 . S
C367 C360 1.409 . S
C367 C366 1.362 . S
H368 C374 0.930 . S
H369 C377 0.930 1_554 S
H370 C378 0.930 . S
H371 C379 0.930 . S
H372 C382 0.930 . S
H373 C383 0.930 . S
C374 H368 0.930 . S
C374 C375 1.355 . S
C374 C376 1.415 . S
C375 C374 1.355 . S
C375 C377 1.419 . S
C376 C374 1.415 . S
C376 C381 1.425 . S
C376 C383 1.409 . S
C377 H369 0.930 1_556 S
C377 C375 1.419 . S
C377 C378 1.362 . S
C378 H370 0.930 . S
C378 C377 1.362 . S
C378 C381 1.409 . S
C379 H371 0.930 . S
C379 C380 1.355 . S
C379 C381 1.415 . S
C380 C379 1.355 . S
C380 C382 1.419 . S
C381 C376 1.425 . S
C381 C378 1.409 . S
C381 C379 1.415 . S
C382 H372 0.930 . S
C382 C380 1.419 . S
C382 C383 1.362 . S
C383 H373 0.930 . S
C383 C376 1.409 . S
C383 C382 1.362 . S
H384 C390 0.930 . S
H385 C393 0.930 . S
H386 C394 0.930 . S
H387 C395 0.930 . S
H388 C398 0.930 . S
H389 C399 0.930 . S
C390 H384 0.930 . S
C390 C391 1.355 . S
C390 C392 1.415 1_554 S
C391 C390 1.355 . S
C391 C393 1.419 . S
C392 C390 1.415 1_556 S
C392 C397 1.425 1_556 S
C392 C399 1.409 . S
C393 H385 0.930 . S
C393 C391 1.419 . S
C393 C394 1.362 . S
C394 H386 0.930 . S
C394 C393 1.362 . S
C394 C397 1.409 . S
C395 H387 0.930 . S
C395 C396 1.355 . S
C395 C397 1.415 1_556 S
C396 C395 1.355 . S
C396 C398 1.419 . S
C397 C392 1.425 1_554 S
C397 C394 1.409 . S
C397 C395 1.415 1_554 S
C398 H388 0.930 . S
C398 C396 1.419 . S
C398 C399 1.362 . S
C399 H389 0.930 . S
C399 C392 1.409 . S
C399 C398 1.362 . S
H400 C406 0.930 . S
H401 C409 0.930 1_556 S
H402 C410 0.930 . S
H403 C411 0.930 . S
H404 C414 0.930 . S
H405 C415 0.930 . S
C406 H400 0.930 . S
C406 C407 1.355 . S
C406 C408 1.415 . S
C407 C406 1.355 . S
C407 C409 1.419 . S
C408 C406 1.415 . S
C408 C413 1.425 . S
C408 C415 1.409 . S
C409 H401 0.930 1_554 S
C409 C407 1.419 . S
C409 C410 1.362 . S
C410 H402 0.930 . S
C410 C409 1.362 . S
C410 C413 1.409 . S
C411 H403 0.930 . S
C411 C412 1.355 . S
C411 C413 1.415 . S
C412 C411 1.355 . S
C412 C414 1.419 . S
C413 C408 1.425 . S
C413 C410 1.409 . S
C413 C411 1.415 . S
C414 H404 0.930 . S
C414 C412 1.419 . S
C414 C415 1.362 . S
C415 H405 0.930 . S
C415 C408 1.409 . S
C415 C414 1.362 . S
H416 C422 0.930 . S
H417 C425 0.930 . S
H418 C426 0.930 . S
H419 C427 0.930 . S
H420 C430 0.930 . S
H421 C431 0.930 . S
C422 H416 0.930 . S
C422 C423 1.355 . S
C422 C424 1.415 . S
C423 C422 1.355 . S
C423 C425 1.419 . S
C424 C422 1.415 . S
C424 C429 1.425 . S
C424 C431 1.409 . S
C425 H417 0.930 . S
C425 C423 1.419 . S
C425 C426 1.362 . S
C426 H418 0.930 . S
C426 C425 1.362 . S
C426 C429 1.409 . S
C427 H419 0.930 . S
C427 C428 1.355 . S
C427 C429 1.415 . S
C428 C427 1.355 . S
C428 C430 1.419 . S
C429 C424 1.425 . S
C429 C426 1.409 . S
C429 C427 1.415 . S
C430 H420 0.930 . S
C430 C428 1.419 . S
C430 C431 1.362 . S
C431 H421 0.930 . S
C431 C424 1.409 . S
C431 C430 1.362 . S
H432 C438 0.930 . S
H433 C441 0.930 . S
H434 C442 0.930 . S
H435 C443 0.930 . S
H436 C446 0.930 . S
H437 C447 0.930 . S
C438 H432 0.930 . S
C438 C439 1.355 . S
C438 C440 1.415 . S
C439 C438 1.355 . S
C439 C441 1.419 . S
C440 C438 1.415 . S
C440 C445 1.425 . S
C440 C447 1.409 . S
C441 H433 0.930 . S
C441 C439 1.419 . S
C441 C442 1.362 . S
C442 H434 0.930 . S
C442 C441 1.362 . S
C442 C445 1.409 . S
C443 H435 0.930 . S
C443 C444 1.355 . S
C443 C445 1.415 . S
C444 C443 1.355 . S
C444 C446 1.419 . S
C445 C440 1.425 . S
C445 C442 1.409 . S
C445 C443 1.415 . S
C446 H436 0.930 . S
C446 C444 1.419 . S
C446 C447 1.362 . S
C447 H437 0.930 . S
C447 C440 1.409 . S
C447 C446 1.362 . S
H448 C454 0.928 1_556 S
H449 C457 0.930 . S
H450 C458 0.930 . S
H451 C459 0.928 1_554 S
H452 C462 0.930 . S
H453 C463 0.930 . S
C454 H448 0.928 1_554 S
C454 C455 1.356 . S
C454 C456 1.414 1_554 S
C455 C454 1.356 . S
C455 C457 1.419 . S
C456 C454 1.414 1_556 S
C456 C461 1.425 1_556 S
C456 C463 1.409 . S
C457 H449 0.930 . S
C457 C455 1.419 . S
C457 C458 1.362 . S
C458 H450 0.930 . S
C458 C457 1.362 . S
C458 C461 1.409 . S
C459 H451 0.928 1_556 S
C459 C460 1.356 . S
C459 C461 1.414 1_556 S
C460 C459 1.356 . S
C460 C462 1.419 . S
C461 C456 1.425 1_554 S
C461 C458 1.409 . S
C461 C459 1.414 1_554 S
C462 H452 0.930 . S
C462 C460 1.419 . S
C462 C463 1.362 . S
C463 H453 0.930 . S
C463 C456 1.409 . S
C463 C462 1.362 . S
H464 C470 0.930 . S
H465 C473 0.930 . S
H466 C474 0.930 . S
H467 C475 0.930 . S
H468 C478 0.930 . S
H469 C479 0.930 . S
C470 H464 0.930 . S
C470 C471 1.355 . S
C470 C472 1.415 . S
C471 C470 1.355 . S
C471 C473 1.419 . S
C472 C470 1.415 . S
C472 C477 1.425 . S
C472 C479 1.409 . S
C473 H465 0.930 . S
C473 C471 1.419 . S
C473 C474 1.362 . S
C474 H466 0.930 . S
C474 C473 1.362 . S
C474 C477 1.409 . S
C475 H467 0.930 . S
C475 C476 1.355 . S
C475 C477 1.415 . S
C476 C475 1.355 . S
C476 C478 1.419 . S
C477 C472 1.425 . S
C477 C474 1.409 . S
C477 C475 1.415 . S
C478 H468 0.930 . S
C478 C476 1.419 . S
C478 C479 1.362 . S
C479 H469 0.930 . S
C479 C472 1.409 . S
C479 C478 1.362 . S
H480 C486 0.930 . S
H481 C489 0.930 . S
H482 C490 0.930 . S
H483 C491 0.930 . S
H484 C494 0.930 . S
H485 C495 0.930 . S
C486 H480 0.930 . S
C486 C487 1.355 . S
C486 C488 1.415 . S
C487 C486 1.355 . S
C487 C489 1.419 . S
C488 C486 1.415 . S
C488 C493 1.425 . S
C488 C495 1.409 . S
C489 H481 0.930 . S
C489 C487 1.419 . S
C489 C490 1.362 . S
C490 H482 0.930 . S
C490 C489 1.362 . S
C490 C493 1.409 . S
C491 H483 0.930 . S
C491 C492 1.355 . S
C491 C493 1.415 . S
C492 C491 1.355 . S
C492 C494 1.419 . S
C493 C488 1.425 . S
C493 C490 1.409 . S
C493 C491 1.415 . S
C494 H484 0.930 . S
C494 C492 1.419 . S
C494 C495 1.362 . S
C495 H485 0.930 . S
C495 C488 1.409 . S
C495 C494 1.362 . S
H496 C502 0.930 . S
H497 C505 0.930 . S
H498 C506 0.930 . S
H499 C507 0.930 . S
H500 C510 0.930 . S
H501 C511 0.930 . S
C502 H496 0.930 . S
C502 C503 1.355 . S
C502 C504 1.415 . S
C503 C502 1.355 . S
C503 C505 1.419 1_556 S
C504 C502 1.415 . S
C504 C509 1.425 1_556 S
C504 C511 1.409 . S
C505 H497 0.930 . S
C505 C503 1.419 1_554 S
C505 C506 1.362 . S
C506 H498 0.930 . S
C506 C505 1.362 . S
C506 C509 1.409 . S
C507 H499 0.930 . S
C507 C508 1.355 . S
C507 C509 1.415 . S
C508 C507 1.355 . S
C508 C510 1.419 1_554 S
C509 C504 1.425 1_554 S
C509 C506 1.409 . S
C509 C507 1.415 . S
C510 H500 0.930 . S
C510 C508 1.419 1_556 S
C510 C511 1.362 . S
C511 H501 0.930 . S
C511 C504 1.409 . S
C511 C510 1.362 . S
H512 C518 0.930 . S
H513 C521 0.930 . S
H514 C522 0.930 . S
H515 C523 0.930 . S
H516 C526 0.930 . S
H517 C527 0.930 . S
C518 H512 0.930 . S
C518 C519 1.355 . S
C518 C520 1.415 . S
C519 C518 1.355 . S
C519 C521 1.419 . S
C520 C518 1.415 . S
C520 C525 1.425 . S
C520 C527 1.409 . S
C521 H513 0.930 . S
C521 C519 1.419 . S
C521 C522 1.362 . S
C522 H514 0.930 . S
C522 C521 1.362 . S
C522 C525 1.409 . S
C523 H515 0.930 . S
C523 C524 1.355 . S
C523 C525 1.415 . S
C524 C523 1.355 . S
C524 C526 1.419 . S
C525 C520 1.425 . S
C525 C522 1.409 . S
C525 C523 1.415 . S
C526 H516 0.930 . S
C526 C524 1.419 . S
C526 C527 1.362 . S
C527 H517 0.930 . S
C527 C520 1.409 . S
C527 C526 1.362 . S
H528 C534 0.930 . S
H529 C537 0.930 . S
H530 C538 0.930 . S
H531 C539 0.930 . S
H532 C542 0.930 . S
H533 C543 0.930 . S
C534 H528 0.930 . S
C534 C535 1.355 . S
C534 C536 1.415 . S
C535 C534 1.355 . S
C535 C537 1.419 . S
C536 C534 1.415 . S
C536 C541 1.425 . S
C536 C543 1.409 . S
C537 H529 0.930 . S
C537 C535 1.419 . S
C537 C538 1.362 . S
C538 H530 0.930 . S
C538 C537 1.362 . S
C538 C541 1.409 . S
C539 H531 0.930 . S
C539 C540 1.355 . S
C539 C541 1.415 . S
C540 C539 1.355 . S
C540 C542 1.419 . S
C541 C536 1.425 . S
C541 C538 1.409 . S
C541 C539 1.415 . S
C542 H532 0.930 . S
C542 C540 1.419 . S
C542 C543 1.362 . S
C543 H533 0.930 . S
C543 C536 1.409 . S
C543 C542 1.362 . S
C295 C50 1.328 . S
C300 C14 1.346 . S
C311 C39 1.439 . S
C316 C75 1.438 . S
C327 C122 1.364 . S
C332 C86 1.318 . S
C343 C111 1.442 . S
C348 C3 1.443 . S
C359 C158 1.367 . S
C364 C194 1.387 . S
C375 C183 1.441 . S
C380 C219 1.442 . S
C391 C230 1.340 . S
C396 C266 1.398 . S
C407 C147 1.442 . S
C412 C255 1.443 . S
C423 C4 1.458 . S
C428 C256 1.472 . S
C439 C146 1.421 . S
C444 C38 1.439 . S
C455 C184 1.464 . S
C460 C76 1.442 . S
C471 C110 1.418 . S
C476 C218 1.407 . S
C487 C74 1.421 . S
C492 C254 1.439 . S
C503 C148 1.472 . S
C508 C112 1.456 . S
C519 C182 1.456 . S
C524 C2 1.445 . S
C535 C40 1.472 . S
C540 C220 1.459 . S
