# Generated by pormake.
# Topology sxb, (6)-cn, num edge types: 1
# Building blocks:
#     Node 0, Type 0, BuildingBlock: INOVEN_clean_sbu_0, # of connection points: 6
#     Node 1, Type 0, BuildingBlock: INOVEN_clean_sbu_0, # of connection points: 6
#     Node 2, Type 0, BuildingBlock: INOVEN_clean_sbu_0, # of connection points: 6
#     Node 3, Type 0, BuildingBlock: INOVEN_clean_sbu_0, # of connection points: 6
#     Edge 4, Type (0, 0), BuildingBlock: XUDNAN_clean_linker_2, # of connection points: 2
#     Edge 5, Type (0, 0), BuildingBlock: XUDNAN_clean_linker_2, # of connection points: 2
#     Edge 6, Type (0, 0), BuildingBlock: XUDNAN_clean_linker_2, # of connection points: 2
#     Edge 7, Type (0, 0), BuildingBlock: XUDNAN_clean_linker_2, # of connection points: 2
#     Edge 8, Type (0, 0), BuildingBlock: XUDNAN_clean_linker_2, # of connection points: 2
#     Edge 9, Type (0, 0), BuildingBlock: XUDNAN_clean_linker_2, # of connection points: 2
#     Edge 10, Type (0, 0), BuildingBlock: XUDNAN_clean_linker_2, # of connection points: 2
#     Edge 11, Type (0, 0), BuildingBlock: XUDNAN_clean_linker_2, # of connection points: 2
#     Edge 12, Type (0, 0), BuildingBlock: XUDNAN_clean_linker_2, # of connection points: 2
#     Edge 13, Type (0, 0), BuildingBlock: XUDNAN_clean_linker_2, # of connection points: 2
#     Edge 14, Type (0, 0), BuildingBlock: XUDNAN_clean_linker_2, # of connection points: 2
#     Edge 15, Type (0, 0), BuildingBlock: XUDNAN_clean_linker_2, # of connection points: 2
# Relax obj value: 0.401
# Max RMSD: 0.128
# Mean RMSD: 0.084
data_MOF--net-sxb--node1-INOVEN_clean_sbu_0--edge1-XUDNAN_clean_linker_2
_symmetry_space_group_name_H-M    P1
_symmetry_Int_Tables_number       1
_symmetry_cell_setting            triclinic
loop_
_symmetry_equiv_pos_as_xyz
'x, y, z'
_cell_length_a     16.48639
_cell_length_b     35.03828
_cell_length_c     30.088259
_cell_angle_alpha  94.15633
_cell_angle_beta   95.514461
_cell_angle_gamma 65.812289
loop_
_atom_site_label
_atom_site_type_symbol
_atom_site_fract_x
_atom_site_fract_y
_atom_site_fract_z
_atom_type_partial_charge
Gd0 Gd 1.03086 1.05676 -0.00306 0.0
Gd1 Gd 0.18904 1.06313 0.00438 0.0
C2 C 1.02485 0.15141 -0.0008 0.0
C3 C 0.87781 1.06537 0.0196 0.0
C4 C 0.8464 0.08019 0.06442 0.0
C5 C 0.78893 1.06619 0.08255 0.0
C6 C 0.88122 0.10543 0.09119 0.0
C7 C 0.79762 0.10454 0.15267 0.0
C8 C 0.85663 0.11774 0.13475 0.0
C9 C 0.76456 0.07833 0.1263 0.0
C10 C 1.08999 1.0485 0.91271 0.0
C11 C 0.19506 0.96843 -0.00474 0.0
C12 C 0.34445 1.06282 0.01854 0.0
C13 C 0.37082 0.0788 0.06178 0.0
C14 C 0.39682 0.11225 0.06333 0.0
C15 C 0.35408 1.06585 0.10195 0.0
C16 C 0.38828 0.11966 0.14432 0.0
C17 C 0.36255 0.08607 0.14264 0.0
C18 C 0.40587 0.13237 0.10419 0.0
C19 C 0.12028 0.07633 0.08683 0.0
O20 O 0.98701 0.12728 0.01087 0.0
O21 O 0.10786 0.13244 0.98765 0.0
O22 O 0.88765 0.09277 -0.00407 0.0
O23 O 0.9455 1.02918 0.01852 0.0
O24 O 1.04303 1.02976 0.92523 0.0
O25 O 1.09719 1.0734 0.9438 0.0
O26 O 0.23672 0.99178 0.9852 0.0
O27 O 0.11292 0.98813 0.00712 0.0
O28 O 0.28183 0.09097 -0.00585 0.0
O29 O 0.33108 1.02873 0.01997 0.0
O30 O 0.15105 0.09952 0.06938 0.0
O31 O 0.12284 1.04744 0.05847 0.0
H32 H 0.76272 1.04607 0.06288 0.0
H33 H 0.92758 0.11577 0.07859 0.0
H34 H 0.88278 0.13798 0.15424 0.0
H35 H 0.71721 1.0684 0.13896 0.0
H36 H 0.4084 0.12335 0.03287 0.0
H37 H 0.33163 1.04081 0.10198 0.0
H38 H 0.34904 1.07536 0.17286 0.0
H39 H 0.42868 0.15731 0.10439 0.0
Gd40 Gd 0.15673 1.01128 0.4975 0.0
Gd41 Gd 1.08504 0.09665 0.50312 0.0
C42 C 0.93906 1.05154 0.49869 0.0
C43 C 0.24654 0.93169 0.50825 0.0
C44 C 0.22294 0.89597 0.51057 0.0
C45 C 0.27832 0.85671 0.4929 0.0
C46 C 0.13991 0.90205 0.52477 0.0
C47 C 0.16366 0.8311 0.49928 0.0
C48 C 0.11063 0.86984 0.51932 0.0
C49 C 0.24884 0.82441 0.48723 0.0
C50 C 0.11412 1.04361 0.41408 0.0
C51 C 0.30042 1.05767 0.49883 0.0
C52 C 0.99446 0.1756 0.48985 0.0
C53 C 1.01184 0.20823 0.47004 0.0
C54 C 0.97736 0.24913 0.48844 0.0
C55 C 1.06935 0.19801 0.43548 0.0
C56 C 1.06513 0.26816 0.44096 0.0
C57 C 1.09541 0.2278 0.42084 0.0
C58 C 1.00396 0.27896 0.47404 0.0
C59 C 0.13597 1.06608 0.58663 0.0
O60 O 1.01137 1.01559 0.50165 0.0
O61 O 0.95351 0.08608 0.49665 0.0
O62 O 0.22685 0.94886 0.46951 0.0
O63 O 0.22554 0.95936 0.54142 0.0
O64 O 1.09507 1.01356 0.42601 0.0
O65 O 0.15234 1.05574 0.44709 0.0
O66 O 0.22552 0.09152 0.49096 0.0
O67 O 0.29024 1.02282 0.50686 0.0
O68 O 1.0415 0.1613 0.52708 0.0
O69 O 0.98905 0.14592 0.4624 0.0
O70 O 0.15206 0.09568 0.57146 0.0
O71 O 1.09424 1.05258 0.55607 0.0
H72 H 0.34244 0.85169 0.48152 0.0
H73 H 1.09573 0.93233 0.53792 0.0
H74 H 1.04397 0.87627 0.52816 0.0
H75 H 0.29106 0.79483 0.47186 0.0
H76 H 0.93296 0.25748 0.51521 0.0
H77 H 1.09725 0.16653 0.42122 0.0
H78 H 0.14376 0.2184 0.39584 0.0
H79 H 0.97966 0.30994 0.48999 0.0
Gd80 Gd 0.54317 0.55422 0.97693 0.0
Gd81 Gd 0.69367 0.56612 -0.0043 0.0
C82 C 0.51723 0.6511 -0.00905 0.0
C83 C 0.38762 0.55745 0.95281 0.0
C84 C 0.33932 0.579 0.9122 0.0
C85 C 0.27063 0.57012 0.88963 0.0
C86 C 0.36799 0.60679 0.89384 0.0
C87 C 0.25313 0.6203 0.83333 0.0
C88 C 0.32507 0.62741 0.85488 0.0
C89 C 0.22764 0.5907 0.85043 0.0
C90 C 0.61733 0.55718 0.8999 0.0
C91 C 0.70847 0.4692 -0.00311 0.0
C92 C 0.83767 0.57453 0.9843 0.0
C93 C 0.83926 0.60519 0.95384 0.0
C94 C 0.90914 0.61828 0.956 0.0
C95 C 0.76669 0.62247 0.92227 0.0
C96 C 0.83592 0.66312 0.89275 0.0
C97 C 0.76486 0.65104 0.89202 0.0
C98 C 0.90757 0.64709 0.92554 0.0
C99 C 0.62269 0.56874 0.07493 0.0
O100 O 0.48155 0.62432 -0.00352 0.0
O101 O 0.60252 0.63522 0.98354 0.0
O102 O 0.45952 0.52418 0.9453 0.0
O103 O 0.40094 0.58157 0.98532 0.0
O104 O 0.59727 0.52709 0.90943 0.0
O105 O 0.60517 0.58201 0.93351 0.0
O106 O 0.75235 0.49253 0.98968 0.0
O107 O 0.62209 0.48896 0.00137 0.0
O108 O 0.81885 0.54432 0.96449 0.0
O109 O 0.79207 0.59085 0.01917 0.0
O110 O 0.66543 0.59073 0.06612 0.0
O111 O 0.62377 0.54344 0.04226 0.0
H112 H 0.24905 0.5481 0.90275 0.0
H113 H 0.42257 0.61329 0.9102 0.0
H114 H 0.34512 0.6504 0.8428 0.0
H115 H 0.17075 0.58542 0.83509 0.0
H116 H 0.96537 0.60565 0.98038 0.0
H117 H 0.71203 0.61306 0.92033 0.0
H118 H 0.70926 0.66268 0.86712 0.0
H119 H 0.96434 0.65527 0.92625 0.0
Gd120 Gd 0.62518 0.53231 0.48829 0.0
Gd121 Gd 0.54382 0.61646 0.48595 0.0
C122 C 0.39786 0.57696 0.48532 0.0
C123 C 0.66576 0.45442 0.50032 0.0
C124 C 0.613 0.43108 0.48257 0.0
C125 C 0.55344 0.44575 0.44485 0.0
C126 C 0.6128 0.39791 0.50573 0.0
C127 C 0.49001 0.39598 0.45501 0.0
C128 C 0.55175 0.38033 0.49194 0.0
C129 C 0.49262 0.42833 0.43116 0.0
C130 C 0.6023 0.5578 0.40254 0.0
C131 C 0.76809 0.57385 0.48934 0.0
C132 C 0.49908 0.69285 0.46473 0.0
C133 C 0.55517 0.71122 0.44789 0.0
C134 C 0.55588 0.74845 0.46778 0.0
C135 C 0.62014 0.68768 0.41822 0.0
C136 C 0.69547 0.73415 0.43526 0.0
C137 C 0.68961 0.69913 0.41187 0.0
C138 C 0.62546 0.75996 0.46137 0.0
C139 C 0.56277 0.5918 0.5719 0.0
O140 O 0.47276 0.54182 0.4897 0.0
O141 O 0.40875 0.61189 0.48109 0.0
O142 O 0.70044 0.46701 0.47031 0.0
O143 O 0.62736 0.48387 0.53006 0.0
O144 O 0.67568 0.53067 0.42049 0.0
O145 O 0.54423 0.57074 0.43103 0.0
O146 O 0.69179 0.60604 0.47784 0.0
O147 O 0.7603 0.53966 0.50102 0.0
O148 O 0.52135 0.68056 0.50575 0.0
O149 O 0.4829 0.66533 0.438 0.0
O150 O 0.49168 0.62018 0.55314 0.0
O151 O 0.62257 0.57746 0.54407 0.0
H152 H 0.55145 0.47193 0.42697 0.0
H153 H 0.65766 0.38659 0.53517 0.0
H154 H 0.55166 0.35507 0.51064 0.0
H155 H 0.44508 0.44148 0.40308 0.0
H156 H 0.50621 0.76704 0.49065 0.0
H157 H 0.62138 0.65862 0.40256 0.0
H158 H 0.7425 0.67851 0.39168 0.0
H159 H 0.62705 0.78781 0.47886 0.0
H160 H 0.5624 0.72114 0.98434 0.0
H161 H 0.33756 0.68975 -0.00139 0.0
H162 H 0.23779 0.76449 -0.00041 0.0
H163 H 0.48676 0.81617 0.0571 0.0
H164 H 0.52361 0.84582 0.02363 0.0
H165 H 0.58003 0.78954 0.02339 0.0
H166 H 0.55271 0.78622 0.93753 0.0
H167 H 0.49611 0.8425 0.93749 0.0
H168 H 0.44067 0.81053 0.91226 0.0
H169 H 0.15907 0.84259 -0.00024 0.0
H170 H 0.1059 0.91876 -0.00012 0.0
H171 H 0.37526 0.9067 0.98574 0.0
C172 C 0.49217 0.72998 0.98773 0.0
C173 C 0.45914 0.69833 -0.00842 0.0
C174 C 0.36618 0.71224 -0.00419 0.0
C175 C 0.30824 0.7551 -0.00367 0.0
C176 C 0.34247 0.78513 -0.00734 0.0
C177 C 0.43226 0.77343 0.98848 0.0
C178 C 0.45001 0.81308 0.98543 0.0
C179 C 0.51393 0.81634 0.02472 0.0
C180 C 0.48711 0.81307 0.9405 0.0
C181 C 0.35642 0.84862 0.98865 0.0
C182 C 0.29608 0.83116 -0.00727 0.0
C183 C 0.20603 0.85641 -0.0034 0.0
C184 C 0.17629 0.90028 -0.00333 0.0
C185 C 0.23503 0.92024 -0.00713 0.0
C186 C 0.32733 0.89335 0.98851 0.0
H187 H 0.8821 0.40637 0.97615 0.0
H188 H 0.63295 0.42141 0.02764 0.0
H189 H 0.68808 0.3456 0.03335 0.0
H190 H 0.91492 0.30973 0.91034 0.0
H191 H 1.03389 0.28479 0.92253 0.0
H192 H 0.97835 0.34111 0.92289 0.0
H193 H 1.04422 0.34536 0.00357 0.0
H194 H 1.1001 0.28904 0.0034 0.0
H195 H 1.02627 0.3168 0.04636 0.0
H196 H 0.76441 0.26809 0.03307 0.0
H197 H 0.85847 0.1932 0.02763 0.0
H198 H 1.06658 0.21999 0.97645 0.0
C199 C 0.83942 0.39376 0.98897 0.0
C200 C 0.75175 0.42136 0.00141 0.0
C201 C 0.69941 0.40236 0.01761 0.0
C202 C 0.73042 0.35871 0.0211 0.0
C203 C 0.81532 0.33272 0.00837 0.0
C204 C 0.86983 0.34919 -0.0073 0.0
C205 C 0.95834 0.31277 0.98111 0.0
C206 C 0.97221 0.31207 0.93124 0.0
C207 C 1.03692 0.31621 0.01034 0.0
C208 C 0.94413 0.27375 -0.00755 0.0
C209 C 0.86063 0.2867 0.0082 0.0
C210 C 0.82996 0.25773 0.02082 0.0
C211 C 0.88481 0.21464 0.01747 0.0
C212 C 0.97146 0.19919 0.00152 0.0
C213 C 1.00129 0.22985 0.98885 0.0
H214 H 0.13442 0.30878 0.50281 0.0
H215 H 1.09811 0.28788 0.35986 0.0
H216 H 0.19497 0.32393 0.3472 0.0
H217 H 0.14695 0.41152 0.49979 0.0
H218 H 0.23306 0.39963 0.5448 0.0
H219 H 0.15118 0.37765 0.54296 0.0
H220 H 0.27506 0.30298 0.54628 0.0
H221 H 0.35859 0.32383 0.54867 0.0
H222 H 0.35759 0.28543 0.50563 0.0
H223 H 0.31045 0.35378 0.35116 0.0
H224 H 0.43087 0.3781 0.37106 0.0
H225 H 0.38952 0.37944 0.51156 0.0
C226 C 0.14383 0.31332 0.46876 0.0
C227 C 0.10797 0.29621 0.43224 0.0
C228 C 0.1247 0.30115 0.3882 0.0
C229 C 0.17938 0.32157 0.38075 0.0
C230 C 0.21636 0.33679 0.41772 0.0
C231 C 0.19858 0.33323 0.46084 0.0
C232 C 0.25307 0.34842 0.49502 0.0
C233 C 0.19248 0.38659 0.52225 0.0
C234 C 0.3147 0.31305 0.52567 0.0
C235 C 0.30579 0.36026 0.46447 0.0
C236 C 0.28339 0.35361 0.42001 0.0
C237 C 0.3274 0.35986 0.38581 0.0
C238 C 0.3957 0.37356 0.39742 0.0
C239 C 0.41945 0.38056 0.44284 0.0
C240 C 0.37342 0.37396 0.4766 0.0
H241 H 1.06367 0.80672 0.54853 0.0
H242 H 0.17001 0.78916 0.41868 0.0
H243 H 1.07336 0.75333 0.39 0.0
H244 H 1.01912 0.70789 0.54302 0.0
H245 H 0.91769 0.73533 0.57064 0.0
H246 H 1.01124 0.74933 0.58381 0.0
H247 H 0.90923 0.8262 0.56523 0.0
H248 H 0.81615 0.81242 0.55084 0.0
H249 H 0.85066 0.83754 0.51077 0.0
H250 H 0.94399 0.73361 0.37139 0.0
H251 H 0.80145 0.72531 0.36651 0.0
H252 H 0.77959 0.75634 0.50842 0.0
C253 C 1.06888 0.79393 0.51454 0.0
C254 C 0.12431 0.80055 0.48587 0.0
C255 C 0.12907 0.78377 0.44146 0.0
C256 C 1.07405 0.76356 0.42479 0.0
C257 C 1.01573 0.76 0.45316 0.0
C258 C 1.01422 0.77391 0.49743 0.0
C259 C 0.93829 0.77117 0.51948 0.0
C260 C 0.97373 0.739 0.55641 0.0
C261 C 0.8749 0.81439 0.53761 0.0
C262 C 0.89433 0.75591 0.48008 0.0
C263 C 0.94056 0.74894 0.44229 0.0
C264 C 0.90838 0.73794 0.40103 0.0
C265 C 0.82723 0.73353 0.39852 0.0
C266 C 0.77909 0.74051 0.43699 0.0
C267 C 0.81392 0.75148 0.47822 0.0
H268 H 0.4769 0.0766 0.21693 0.0
H269 H 0.35256 0.20185 0.16871 0.0
H270 H 0.45206 0.22269 0.22021 0.0
H271 H 0.60545 0.12042 0.33251 0.0
H272 H 0.69551 1.06943 0.32876 0.0
H273 H 0.58187 1.07444 0.32661 0.0
H274 H 0.60549 1.03057 0.25372 0.0
H275 H 0.7178 1.02575 0.25551 0.0
H276 H 0.64351 1.0462 0.20663 0.0
H277 H 0.60026 0.21674 0.22578 0.0
H278 H 0.72583 0.18681 0.17905 0.0
H279 H 0.77967 1.06336 0.22094 0.0
C280 C 0.46721 0.10908 0.22004 0.0
C281 C 0.41084 0.13709 0.18786 0.0
C282 C 0.39793 0.17944 0.19222 0.0
C283 C 0.45412 0.19157 0.22204 0.0
C284 C 0.52417 0.16079 0.24635 0.0
C285 C 0.52655 0.12067 0.24855 0.0
C286 C 0.61916 0.09055 0.26486 0.0
C287 C 0.62584 0.08867 0.31618 0.0
C288 C 0.6481 1.0457 0.24371 0.0
C289 C 0.67142 0.11421 0.25142 0.0
C290 C 0.61639 0.15679 0.2489 0.0
C291 C 0.64282 0.18372 0.22778 0.0
C292 C 0.71459 0.16641 0.20082 0.0
C293 C 0.75935 0.12263 0.19574 0.0
C294 C 0.74457 0.09695 0.22494 0.0
H295 H 0.48757 0.99565 0.51049 0.0
H296 H 0.33154 0.12693 0.48446 0.0
H297 H 0.46954 0.13723 0.4817 0.0
H298 H 0.67064 1.01096 0.58068 0.0
H299 H 0.75933 0.96508 0.55908 0.0
H300 H 0.64882 0.96641 0.55925 0.0
H301 H 0.64761 0.94924 0.4745 0.0
H302 H 0.75812 0.94786 0.47417 0.0
H303 H 0.66861 0.98196 0.4376 0.0
H304 H 0.62759 0.13558 0.48181 0.0
H305 H 0.78593 0.12229 0.48438 0.0
H306 H 0.85728 0.99165 0.50964 0.0
C307 C 0.48187 1.0267 0.5042 0.0
C308 C 0.39381 1.06051 0.4978 0.0
C309 C 0.39424 0.10006 0.48965 0.0
C310 C 0.47394 0.10639 0.48796 0.0
C311 C 0.55785 1.07309 0.49433 0.0
C312 C 0.56292 1.03377 0.50226 0.0
C313 C 0.66365 1.00369 0.50775 0.0
C314 C 0.687 0.98542 0.55447 0.0
C315 C 0.68582 0.96858 0.47135 0.0
C316 C 0.71367 1.03212 0.50187 0.0
C317 C 0.64996 1.07208 0.49415 0.0
C318 C 0.6771 0.10424 0.48785 0.0
C319 C 0.76933 0.09614 0.48944 0.0
C320 C 0.8392 1.05581 0.49722 0.0
C321 C 0.80873 1.02314 0.50345 0.0
H322 H 0.8803 0.72978 0.8974 0.0
H323 H 0.81071 0.64685 0.8041 0.0
H324 H 0.88443 0.66256 0.74603 0.0
H325 H 0.92645 0.79035 0.78611 0.0
H326 H 1.00884 0.79954 0.82375 0.0
H327 H 0.90082 0.80971 0.84238 0.0
H328 H 0.97595 0.7626 0.90868 0.0
H329 H 1.08251 0.75296 0.89058 0.0
H330 H 1.0547 0.70928 0.89896 0.0
H331 H 1.02934 0.64501 0.72522 0.0
H332 H 0.18436 0.60411 0.75082 0.0
H333 H 0.1782 0.70305 0.84562 0.0
C334 C 0.87622 0.71757 0.86358 0.0
C335 C 0.84295 0.68646 0.85531 0.0
C336 C 0.83679 0.67061 0.81129 0.0
C337 C 0.87836 0.67974 0.77778 0.0
C338 C 0.92551 0.70484 0.78877 0.0
C339 C 0.91823 0.72667 0.82983 0.0
C340 C 0.99023 0.74324 0.83751 0.0
C341 C 0.95445 0.78833 0.82144 0.0
C342 C 1.02821 0.74169 0.88682 0.0
C343 C 1.05606 0.71369 0.80567 0.0
C344 C 1.01331 0.69593 0.77373 0.0
C345 C 1.06241 0.65927 0.7494 0.0
C346 C 0.15123 0.63588 0.76401 0.0
C347 C 0.19064 0.65044 0.8011 0.0
C348 C 0.14736 0.69199 0.81719 0.0
H349 H 0.32156 0.51424 0.49292 0.0
H350 H 0.24186 0.64729 0.47733 0.0
H351 H 1.0851 0.65861 0.47683 0.0
H352 H 0.1323 0.50739 0.42135 0.0
H353 H 0.11285 0.47169 0.45455 0.0
H354 H 0.2232 0.47072 0.45518 0.0
H355 H 0.23093 0.48156 0.53991 0.0
H356 H 0.12106 0.48248 0.5417 0.0
H357 H 0.14493 0.52558 0.56602 0.0
H358 H 0.92956 0.65823 0.47908 0.0
H359 H 0.79417 0.64565 0.48216 0.0
H360 H 0.95668 0.51302 0.4959 0.0
C361 C 0.27152 0.54588 0.48948 0.0
C362 C 0.29923 0.57982 0.48524 0.0
C363 C 0.22749 0.62018 0.48074 0.0
C364 C 0.13607 0.6272 0.48049 0.0
C365 C 0.11162 0.59384 0.48486 0.0
C366 C 0.17718 0.55373 0.48919 0.0
C367 C 0.12972 0.5238 0.49295 0.0
C368 C 0.15087 0.49144 0.45371 0.0
C369 C 0.15845 0.50202 0.5378 0.0
C370 C 1.02843 0.55327 0.49046 0.0
C371 C 1.02077 0.59358 0.48567 0.0
C372 C 0.93586 0.62661 0.48262 0.0
C373 C 0.85772 0.61895 0.48424 0.0
C374 C 0.85994 0.57829 0.48892 0.0
C375 C 0.94902 0.54485 0.49229 0.0
H376 H 1.07005 1.00787 0.33356 0.0
H377 H 0.16492 0.10188 0.38623 0.0
H378 H 0.16927 0.12112 0.3097 0.0
H379 H 0.2107 0.97381 0.2399 0.0
H380 H 0.12859 0.96537 0.20123 0.0
H381 H 0.1272 0.96006 0.26025 0.0
H382 H 0.96338 1.01409 0.25785 0.0
H383 H 0.96391 1.02058 0.19895 0.0
H384 H 0.93558 1.06532 0.23731 0.0
H385 H 0.16233 0.13147 0.22848 0.0
H386 H 0.15614 0.12936 0.14682 0.0
H387 H 1.07691 1.02506 0.14114 0.0
C388 C 1.09109 1.03271 0.3289 0.0
C389 C 0.11502 1.05418 0.36651 0.0
C390 C 0.14379 0.08584 0.35854 0.0
C391 C 0.1471 0.09679 0.31494 0.0
C392 C 0.12294 1.07537 0.27883 0.0
C393 C 1.09645 1.04363 0.28503 0.0
C394 C 1.07757 1.02487 0.23963 0.0
C395 C 0.13973 0.97825 0.23499 0.0
C396 C 0.97925 1.03153 0.23303 0.0
C397 C 1.0983 1.05081 0.20721 0.0
C398 C 0.12312 0.08006 0.23104 0.0
C399 C 0.1436 0.10849 0.20957 0.0
C400 C 0.13978 0.10694 0.16277 0.0
C401 C 0.11721 0.07671 0.13682 0.0
C402 C 1.09536 1.04832 0.15965 0.0
H403 H 1.02088 1.02368 0.83185 0.0
H404 H 0.2051 0.07795 0.88592 0.0
H405 H 0.24083 0.08353 0.80962 0.0
H406 H 0.14869 0.96454 0.73713 0.0
H407 H 1.05199 0.97532 0.69851 0.0
H408 H 1.04299 0.97308 0.75743 0.0
H409 H 0.9166 1.04748 0.75708 0.0
H410 H 0.92507 1.04989 0.69817 0.0
H411 H 0.93563 0.08992 0.7364 0.0
H412 H 0.25645 0.08474 0.7286 0.0
H413 H 0.24516 0.0858 0.64677 0.0
H414 H 1.0473 1.03309 0.63974 0.0
C415 C 1.06931 1.03637 0.82754 0.0
C416 C 0.11066 1.05018 0.86539 0.0
C417 C 0.17259 1.06713 0.85793 0.0
C418 C 0.19355 1.07032 0.81453 0.0
C419 C 0.15173 1.05677 0.77813 0.0
C420 C 1.09039 1.04037 0.78386 0.0
C421 C 1.05265 1.03008 0.7382 0.0
C422 C 1.07544 0.98295 0.73249 0.0
C423 C 0.95147 1.05588 0.73211 0.0
C424 C 0.1021 1.04347 0.70614 0.0
C425 C 0.15938 1.05837 0.7304 0.0
C426 C 0.21181 1.07315 0.70934 0.0
C427 C 0.20482 1.07358 0.66253 0.0
C428 C 0.14553 1.05955 0.63618 0.0
C429 C 1.09406 1.04366 0.65855 0.0
H430 H 0.70698 0.56862 0.34327 0.0
H431 H 0.45855 0.55543 0.34974 0.0
H432 H 0.43776 0.55465 0.26683 0.0
H433 H 0.62607 0.64016 0.25024 0.0
H434 H 0.73262 0.6193 0.22639 0.0
H435 H 0.72738 0.618 0.28576 0.0
H436 H 0.82029 0.53787 0.28244 0.0
H437 H 0.82492 0.53884 0.22299 0.0
H438 H 0.78174 0.5051 0.24524 0.0
H439 H 0.45255 0.54915 0.18108 0.0
H440 H 0.48789 0.55129 0.10303 0.0
H441 H 0.7172 0.57627 0.15319 0.0
C442 C 0.64781 0.56592 0.32716 0.0
C443 C 0.58442 0.56195 0.35303 0.0
C444 C 0.50764 0.55878 0.33071 0.0
C445 C 0.4957 0.55802 0.28354 0.0
C446 C 0.56008 0.56147 0.2589 0.0
C447 C 0.63353 0.56644 0.28016 0.0
C448 C 0.69087 0.57157 0.24631 0.0
C449 C 0.69442 0.61483 0.25254 0.0
C450 C 0.78502 0.53624 0.24944 0.0
C451 C 0.63945 0.56794 0.20257 0.0
C452 C 0.56493 0.5614 0.21039 0.0
C453 C 0.51002 0.55492 0.17484 0.0
C454 C 0.5308 0.55593 0.13052 0.0
C455 C 0.60473 0.56428 0.12179 0.0
C456 C 0.65954 0.57027 0.15859 0.0
H457 H 0.6191 0.52588 0.63028 0.0
H458 H 0.54153 0.65969 0.62632 0.0
H459 H 0.55481 0.66462 0.70882 0.0
H460 H 0.49502 0.53134 0.72369 0.0
H461 H 0.57587 0.48404 0.74827 0.0
H462 H 0.5684 0.48994 0.68886 0.0
H463 H 0.73585 0.47571 0.69279 0.0
H464 H 0.74379 0.46965 0.75225 0.0
H465 H 0.77715 0.50719 0.73046 0.0
H466 H 0.56884 0.65617 0.79221 0.0
H467 H 0.57972 0.63509 0.86982 0.0
H468 H 0.64552 0.50675 0.82243 0.0
C469 C 0.6069 0.55598 0.64691 0.0
C470 C 0.58078 0.59239 0.62165 0.0
C471 C 0.5626 0.63138 0.64478 0.0
C472 C 0.56991 0.63448 0.69175 0.0
C473 C 0.59454 0.59833 0.71577 0.0
C474 C 0.61261 0.55976 0.69424 0.0
C475 C 0.63255 0.52634 0.72841 0.0
C476 C 0.56387 0.50676 0.72191 0.0
C477 C 0.72802 0.49273 0.72581 0.0
C478 C 0.62261 0.55214 0.77224 0.0
C479 C 0.60121 0.59357 0.76406 0.0
C480 C 0.58657 0.62369 0.79892 0.0
C481 C 0.59365 0.61132 0.84315 0.0
C482 C 0.61556 0.56908 0.85273 0.0
C483 C 0.62993 0.5392 0.81647 0.0
loop_
_geom_bond_atom_site_label_1
_geom_bond_atom_site_label_2
_geom_bond_distance
_geom_bond_site_symmetry_2
_ccdc_geom_bond_type
Gd0 C3 2.820 . S
Gd0 O20 2.377 1_565 S
Gd0 O22 2.448 . S
Gd0 O23 2.505 1_566 S
Gd0 O24 2.435 . S
Gd0 O25 2.718 1_655 S
Gd0 O27 2.395 1_655 S
Gd0 O31 2.323 1_566 S
Gd1 C12 2.818 . S
Gd1 O21 2.395 1_455 S
Gd1 O25 2.327 1_544 S
Gd1 O26 2.377 1_545 S
Gd1 O28 2.448 . S
Gd1 O29 2.506 1_544 S
Gd1 O30 2.435 . S
Gd1 O31 2.722 1_455 S
C2 O20 1.249 . S
C2 O21 1.237 1_556 S
C3 Gd0 2.820 . S
C3 C4 1.508 1_565 S
C3 O22 1.257 . S
C3 O23 1.246 1_566 S
C4 C3 1.508 1_545 S
C4 C5 1.404 . S
C4 C6 1.352 1_556 S
C5 C4 1.404 . S
C5 C9 1.389 . S
C5 H32 0.930 1_545 S
C6 C4 1.352 1_554 S
C6 C8 1.374 . S
C6 H33 0.931 . S
C7 C8 1.354 1_556 S
C7 C9 1.370 . S
C8 C6 1.374 . S
C8 C7 1.354 1_554 S
C8 H34 0.931 . S
C9 C5 1.389 . S
C9 C7 1.370 . S
C9 H35 0.931 . S
C10 O24 1.256 . S
C10 O25 1.258 1_655 S
C11 O26 1.240 . S
C11 O27 1.240 1_554 S
C12 Gd1 2.818 . S
C12 C13 1.510 1_545 S
C12 O28 1.249 . S
C12 O29 1.252 1_544 S
C13 C12 1.510 1_565 S
C13 C14 1.404 . S
C13 C15 1.352 1_554 S
C14 C13 1.404 . S
C14 C18 1.389 . S
C14 H36 0.930 1_565 S
C15 C13 1.352 1_556 S
C15 C17 1.374 . S
C15 H37 0.931 . S
C16 C17 1.349 1_554 S
C16 C18 1.375 . S
C17 C15 1.374 . S
C17 C16 1.349 1_556 S
C17 H38 0.931 . S
C18 C14 1.389 . S
C18 C16 1.375 . S
C18 H39 0.931 . S
C19 O30 1.256 . S
C19 O31 1.259 1_455 S
O20 Gd0 2.377 1_545 S
O20 C2 1.249 . S
O21 Gd1 2.395 1_655 S
O21 C2 1.237 1_554 S
O22 Gd0 2.448 . S
O22 C3 1.257 . S
O23 Gd0 2.505 1_544 S
O23 C3 1.246 1_544 S
O24 Gd0 2.435 . S
O24 C10 1.256 . S
O25 Gd0 2.718 1_455 S
O25 Gd1 2.327 1_566 S
O25 C10 1.258 1_455 S
O26 Gd1 2.377 1_565 S
O26 C11 1.240 . S
O27 Gd0 2.395 1_455 S
O27 C11 1.240 1_556 S
O28 Gd1 2.448 . S
O28 C12 1.249 . S
O29 Gd1 2.506 1_566 S
O29 C12 1.252 1_566 S
O30 Gd1 2.435 . S
O30 C19 1.256 . S
O31 Gd0 2.323 1_544 S
O31 Gd1 2.722 1_655 S
O31 C19 1.259 1_655 S
H32 C5 0.930 1_565 S
H33 C6 0.931 . S
H34 C8 0.931 . S
H35 C9 0.931 . S
H36 C14 0.930 1_545 S
H37 C15 0.931 . S
H38 C17 0.931 . S
H39 C18 0.931 . S
Gd40 C43 2.818 1_455 S
Gd40 O60 2.377 1_455 S
Gd40 O62 2.448 1_455 S
Gd40 O63 2.506 1_455 S
Gd40 O64 2.435 . S
Gd40 O65 2.717 1_565 S
Gd40 O67 2.395 . S
Gd40 O71 2.327 1_455 S
Gd41 C52 2.818 1_655 S
Gd41 O61 2.395 . S
Gd41 O65 2.327 1_655 S
Gd41 O66 2.377 1_655 S
Gd41 O68 2.448 1_655 S
Gd41 O69 2.506 1_655 S
Gd41 O70 2.435 . S
Gd41 O71 2.717 1_545 S
C42 O60 1.240 1_545 S
C42 O61 1.240 . S
C43 Gd40 2.818 1_655 S
C43 C44 1.510 . S
C43 O62 1.249 . S
C43 O63 1.252 . S
C44 C43 1.510 . S
C44 C45 1.404 . S
C44 C46 1.352 . S
C45 C44 1.404 . S
C45 C49 1.389 . S
C45 H72 0.930 . S
C46 C44 1.352 . S
C46 C48 1.374 . S
C46 H73 0.931 . S
C47 C48 1.359 . S
C47 C49 1.364 . S
C48 C46 1.374 . S
C48 C47 1.359 . S
C48 H74 0.931 . S
C49 C45 1.389 . S
C49 C47 1.364 . S
C49 H75 0.931 . S
C50 O64 1.258 1_655 S
C50 O65 1.257 1_665 S
C51 O66 1.240 1_565 S
C51 O67 1.240 . S
C52 Gd41 2.818 1_455 S
C52 C53 1.510 . S
C52 O68 1.249 . S
C52 O69 1.252 . S
C53 C52 1.510 . S
C53 C54 1.404 . S
C53 C55 1.352 . S
C54 C53 1.404 . S
C54 C58 1.389 . S
C54 H76 0.930 . S
C55 C53 1.352 . S
C55 C57 1.374 . S
C55 H77 0.931 . S
C56 C57 1.359 . S
C56 C58 1.364 . S
C57 C55 1.374 . S
C57 C56 1.359 . S
C57 H78 0.931 . S
C58 C54 1.389 . S
C58 C56 1.364 . S
C58 H79 0.931 . S
C59 O70 1.259 1_455 S
C59 O71 1.257 1_445 S
O60 Gd40 2.377 1_655 S
O60 C42 1.240 1_565 S
O61 Gd41 2.395 . S
O61 C42 1.240 . S
O62 Gd40 2.448 1_655 S
O62 C43 1.249 . S
O63 Gd40 2.506 1_655 S
O63 C43 1.252 . S
O64 Gd40 2.435 . S
O64 C50 1.258 1_455 S
O65 Gd40 2.717 1_545 S
O65 Gd41 2.327 1_455 S
O65 C50 1.257 1_445 S
O66 Gd41 2.377 1_455 S
O66 C51 1.240 1_545 S
O67 Gd40 2.395 . S
O67 C51 1.240 . S
O68 Gd41 2.448 1_455 S
O68 C52 1.249 . S
O69 Gd41 2.506 1_455 S
O69 C52 1.252 . S
O70 Gd41 2.435 . S
O70 C59 1.259 1_655 S
O71 Gd40 2.327 1_655 S
O71 Gd41 2.717 1_565 S
O71 C59 1.257 1_665 S
H72 C45 0.930 . S
H73 C46 0.931 . S
H74 C48 0.931 . S
H75 C49 0.931 . S
H76 C54 0.930 . S
H77 C55 0.931 . S
H78 C57 0.931 . S
H79 C58 0.931 . S
Gd80 C83 2.818 . S
Gd80 O100 2.377 . S
Gd80 O102 2.448 . S
Gd80 O103 2.506 1_556 S
Gd80 O104 2.435 . S
Gd80 O105 2.717 . S
Gd80 O107 2.395 . S
Gd80 O111 2.327 1_556 S
Gd81 C92 2.818 . S
Gd81 O101 2.395 . S
Gd81 O105 2.327 1_554 S
Gd81 O106 2.377 . S
Gd81 O108 2.448 . S
Gd81 O109 2.506 1_554 S
Gd81 O110 2.435 . S
Gd81 O111 2.717 . S
C82 O100 1.249 . S
C82 O101 1.237 1_556 S
C83 Gd80 2.818 . S
C83 C84 1.510 . S
C83 O102 1.249 . S
C83 O103 1.252 1_556 S
C84 C83 1.510 . S
C84 C85 1.404 . S
C84 C86 1.352 1_556 S
C85 C84 1.404 . S
C85 C89 1.389 . S
C85 H112 0.930 . S
C86 C84 1.352 1_554 S
C86 C88 1.374 . S
C86 H113 0.931 . S
C87 C88 1.354 1_556 S
C87 C89 1.370 . S
C88 C86 1.374 . S
C88 C87 1.354 1_554 S
C88 H114 0.931 . S
C89 C85 1.389 . S
C89 C87 1.370 . S
C89 H115 0.931 . S
C90 O104 1.256 . S
C90 O105 1.257 . S
C91 O106 1.240 . S
C91 O107 1.240 1_554 S
C92 Gd81 2.818 . S
C92 C93 1.510 . S
C92 O108 1.249 . S
C92 O109 1.252 1_554 S
C93 C92 1.510 . S
C93 C94 1.404 . S
C93 C95 1.352 1_554 S
C94 C93 1.404 . S
C94 C98 1.389 . S
C94 H116 0.930 . S
C95 C93 1.352 1_556 S
C95 C97 1.374 . S
C95 H117 0.931 . S
C96 C97 1.349 1_554 S
C96 C98 1.375 . S
C97 C95 1.374 . S
C97 C96 1.349 1_556 S
C97 H118 0.931 . S
C98 C94 1.389 . S
C98 C96 1.375 . S
C98 H119 0.931 . S
C99 O110 1.256 . S
C99 O111 1.257 . S
O100 Gd80 2.377 . S
O100 C82 1.249 . S
O101 Gd81 2.395 . S
O101 C82 1.237 1_554 S
O102 Gd80 2.448 . S
O102 C83 1.249 . S
O103 Gd80 2.506 1_554 S
O103 C83 1.252 1_554 S
O104 Gd80 2.435 . S
O104 C90 1.256 . S
O105 Gd80 2.717 . S
O105 Gd81 2.327 1_556 S
O105 C90 1.257 . S
O106 Gd81 2.377 . S
O106 C91 1.240 . S
O107 Gd80 2.395 . S
O107 C91 1.240 1_556 S
O108 Gd81 2.448 . S
O108 C92 1.249 . S
O109 Gd81 2.506 1_556 S
O109 C92 1.252 1_556 S
O110 Gd81 2.435 . S
O110 C99 1.256 . S
O111 Gd80 2.327 1_554 S
O111 Gd81 2.717 . S
O111 C99 1.257 . S
H112 C85 0.930 . S
H113 C86 0.931 . S
H114 C88 0.931 . S
H115 C89 0.931 . S
H116 C94 0.930 . S
H117 C95 0.931 . S
H118 C97 0.931 . S
H119 C98 0.931 . S
Gd120 C123 2.818 . S
Gd120 O140 2.377 . S
Gd120 O142 2.448 . S
Gd120 O143 2.506 . S
Gd120 O144 2.435 . S
Gd120 O145 2.717 . S
Gd120 O147 2.395 . S
Gd120 O151 2.327 . S
Gd121 C132 2.818 . S
Gd121 O141 2.395 . S
Gd121 O145 2.327 . S
Gd121 O146 2.377 . S
Gd121 O148 2.448 . S
Gd121 O149 2.506 . S
Gd121 O150 2.435 . S
Gd121 O151 2.717 . S
C122 O140 1.240 . S
C122 O141 1.240 . S
C123 Gd120 2.818 . S
C123 C124 1.510 . S
C123 O142 1.249 . S
C123 O143 1.252 . S
C124 C123 1.510 . S
C124 C125 1.404 . S
C124 C126 1.352 . S
C125 C124 1.404 . S
C125 C129 1.389 . S
C125 H152 0.930 . S
C126 C124 1.352 . S
C126 C128 1.374 . S
C126 H153 0.931 . S
C127 C128 1.359 . S
C127 C129 1.364 . S
C128 C126 1.374 . S
C128 C127 1.359 . S
C128 H154 0.931 . S
C129 C125 1.389 . S
C129 C127 1.364 . S
C129 H155 0.931 . S
C130 O144 1.256 . S
C130 O145 1.257 . S
C131 O146 1.240 . S
C131 O147 1.240 . S
C132 Gd121 2.818 . S
C132 C133 1.510 . S
C132 O148 1.249 . S
C132 O149 1.252 . S
C133 C132 1.510 . S
C133 C134 1.404 . S
C133 C135 1.352 . S
C134 C133 1.404 . S
C134 C138 1.389 . S
C134 H156 0.930 . S
C135 C133 1.352 . S
C135 C137 1.374 . S
C135 H157 0.931 . S
C136 C137 1.359 . S
C136 C138 1.364 . S
C137 C135 1.374 . S
C137 C136 1.359 . S
C137 H158 0.931 . S
C138 C134 1.389 . S
C138 C136 1.364 . S
C138 H159 0.931 . S
C139 O150 1.256 . S
C139 O151 1.257 . S
O140 Gd120 2.377 . S
O140 C122 1.240 . S
O141 Gd121 2.395 . S
O141 C122 1.240 . S
O142 Gd120 2.448 . S
O142 C123 1.249 . S
O143 Gd120 2.506 . S
O143 C123 1.252 . S
O144 Gd120 2.435 . S
O144 C130 1.256 . S
O145 Gd120 2.717 . S
O145 Gd121 2.327 . S
O145 C130 1.257 . S
O146 Gd121 2.377 . S
O146 C131 1.240 . S
O147 Gd120 2.395 . S
O147 C131 1.240 . S
O148 Gd121 2.448 . S
O148 C132 1.249 . S
O149 Gd121 2.506 . S
O149 C132 1.252 . S
O150 Gd121 2.435 . S
O150 C139 1.256 . S
O151 Gd120 2.327 . S
O151 Gd121 2.717 . S
O151 C139 1.257 . S
H152 C125 0.930 . S
H153 C126 0.931 . S
H154 C128 0.931 . S
H155 C129 0.931 . S
H156 C134 0.930 . S
H157 C135 0.931 . S
H158 C137 0.931 . S
H159 C138 0.931 . S
H160 C172 0.930 . S
H161 C174 0.930 . S
H162 C175 0.930 . S
H163 C179 0.959 . S
H164 C179 0.959 . S
H165 C179 0.961 . S
H166 C180 0.960 . S
H167 C180 0.961 . S
H168 C180 0.959 . S
H169 C183 0.929 . S
H170 C184 0.931 . S
H171 C186 0.930 . S
C172 H160 0.930 . S
C172 C173 1.399 1_556 S
C172 C177 1.399 . S
C173 C172 1.399 1_554 S
C173 C174 1.376 . S
C174 H161 0.930 . S
C174 C173 1.376 . S
C174 C175 1.388 . S
C175 H162 0.930 . S
C175 C174 1.388 . S
C175 C176 1.390 . S
C176 C175 1.390 . S
C176 C177 1.394 1_554 S
C176 C182 1.465 . S
C177 C172 1.399 . S
C177 C176 1.394 1_556 S
C177 C178 1.516 . S
C178 C177 1.516 . S
C178 C179 1.502 . S
C178 C180 1.561 . S
C178 C181 1.526 . S
C179 H163 0.959 . S
C179 H164 0.959 . S
C179 H165 0.961 . S
C179 C178 1.502 . S
C180 H166 0.960 . S
C180 H167 0.961 . S
C180 H168 0.959 . S
C180 C178 1.561 . S
C181 C178 1.526 . S
C181 C182 1.396 1_556 S
C181 C186 1.390 . S
C182 C176 1.465 . S
C182 C181 1.396 1_554 S
C182 C183 1.399 . S
C183 H169 0.929 . S
C183 C182 1.399 . S
C183 C184 1.385 . S
C184 H170 0.931 . S
C184 C183 1.385 . S
C184 C185 1.389 . S
C185 C184 1.389 . S
C185 C186 1.387 1_554 S
C186 H171 0.930 . S
C186 C181 1.390 . S
C186 C185 1.387 1_556 S
H187 C199 0.930 . S
H188 C201 0.930 . S
H189 C202 0.930 . S
H190 C206 0.959 . S
H191 C206 0.959 . S
H192 C206 0.961 . S
H193 C207 0.960 . S
H194 C207 0.961 . S
H195 C207 0.959 . S
H196 C210 0.929 . S
H197 C211 0.931 . S
H198 C213 0.930 . S
C199 H187 0.930 . S
C199 C200 1.399 1_554 S
C199 C204 1.399 . S
C200 C199 1.399 1_556 S
C200 C201 1.376 . S
C201 H188 0.930 . S
C201 C200 1.376 . S
C201 C202 1.388 . S
C202 H189 0.930 . S
C202 C201 1.388 . S
C202 C203 1.390 . S
C203 C202 1.390 . S
C203 C204 1.394 1_556 S
C203 C209 1.465 . S
C204 C199 1.399 . S
C204 C203 1.394 1_554 S
C204 C205 1.516 . S
C205 C204 1.516 . S
C205 C206 1.502 . S
C205 C207 1.561 . S
C205 C208 1.526 . S
C206 H190 0.959 . S
C206 H191 0.959 . S
C206 H192 0.961 . S
C206 C205 1.502 . S
C207 H193 0.960 . S
C207 H194 0.961 . S
C207 H195 0.959 . S
C207 C205 1.561 . S
C208 C205 1.526 . S
C208 C209 1.396 1_554 S
C208 C213 1.390 . S
C209 C203 1.465 . S
C209 C208 1.396 1_556 S
C209 C210 1.399 . S
C210 H196 0.929 . S
C210 C209 1.399 . S
C210 C211 1.385 . S
C211 H197 0.931 . S
C211 C210 1.385 . S
C211 C212 1.389 . S
C212 C211 1.389 . S
C212 C213 1.387 1_556 S
C213 H198 0.930 . S
C213 C208 1.390 . S
C213 C212 1.387 1_554 S
H214 C226 0.930 . S
H215 C228 0.930 . S
H216 C229 0.930 . S
H217 C233 0.959 . S
H218 C233 0.959 . S
H219 C233 0.961 . S
H220 C234 0.960 . S
H221 C234 0.961 . S
H222 C234 0.959 . S
H223 C237 0.929 . S
H224 C238 0.931 . S
H225 C240 0.930 . S
C226 H214 0.930 . S
C226 C227 1.399 . S
C226 C231 1.399 . S
C227 C226 1.399 . S
C227 C228 1.376 . S
C228 H215 0.930 . S
C228 C227 1.376 . S
C228 C229 1.388 . S
C229 H216 0.930 . S
C229 C228 1.388 . S
C229 C230 1.390 . S
C230 C229 1.390 . S
C230 C231 1.394 . S
C230 C236 1.465 . S
C231 C226 1.399 . S
C231 C230 1.394 . S
C231 C232 1.516 . S
C232 C231 1.516 . S
C232 C233 1.502 . S
C232 C234 1.561 . S
C232 C235 1.526 . S
C233 H217 0.959 . S
C233 H218 0.959 . S
C233 H219 0.961 . S
C233 C232 1.502 . S
C234 H220 0.960 . S
C234 H221 0.961 . S
C234 H222 0.959 . S
C234 C232 1.561 . S
C235 C232 1.526 . S
C235 C236 1.396 . S
C235 C240 1.390 . S
C236 C230 1.465 . S
C236 C235 1.396 . S
C236 C237 1.399 . S
C237 H223 0.929 . S
C237 C236 1.399 . S
C237 C238 1.385 . S
C238 H224 0.931 . S
C238 C237 1.385 . S
C238 C239 1.389 . S
C239 C238 1.389 . S
C239 C240 1.387 . S
C240 H225 0.930 . S
C240 C235 1.390 . S
C240 C239 1.387 . S
H241 C253 0.930 . S
H242 C255 0.930 . S
H243 C256 0.930 . S
H244 C260 0.959 . S
H245 C260 0.959 . S
H246 C260 0.961 . S
H247 C261 0.960 . S
H248 C261 0.961 . S
H249 C261 0.959 . S
H250 C264 0.929 . S
H251 C265 0.931 . S
H252 C267 0.930 . S
C253 H241 0.930 . S
C253 C254 1.399 . S
C253 C258 1.399 . S
C254 C253 1.399 . S
C254 C255 1.376 . S
C255 H242 0.930 . S
C255 C254 1.376 . S
C255 C256 1.388 . S
C256 H243 0.930 . S
C256 C255 1.388 . S
C256 C257 1.390 . S
C257 C256 1.390 . S
C257 C258 1.394 . S
C257 C263 1.465 . S
C258 C253 1.399 . S
C258 C257 1.394 . S
C258 C259 1.516 . S
C259 C258 1.516 . S
C259 C260 1.502 . S
C259 C261 1.561 . S
C259 C262 1.526 . S
C260 H244 0.959 . S
C260 H245 0.959 . S
C260 H246 0.961 . S
C260 C259 1.502 . S
C261 H247 0.960 . S
C261 H248 0.961 . S
C261 H249 0.959 . S
C261 C259 1.561 . S
C262 C259 1.526 . S
C262 C263 1.396 . S
C262 C267 1.390 . S
C263 C257 1.465 . S
C263 C262 1.396 . S
C263 C264 1.399 . S
C264 H250 0.929 . S
C264 C263 1.399 . S
C264 C265 1.385 . S
C265 H251 0.931 . S
C265 C264 1.385 . S
C265 C266 1.389 . S
C266 C265 1.389 . S
C266 C267 1.387 . S
C267 H252 0.930 . S
C267 C262 1.390 . S
C267 C266 1.387 . S
H268 C280 0.930 . S
H269 C282 0.930 . S
H270 C283 0.930 1_545 S
H271 C287 0.959 . S
H272 C287 0.959 . S
H273 C287 0.961 . S
H274 C288 0.960 1_565 S
H275 C288 0.961 . S
H276 C288 0.959 . S
H277 C291 0.929 . S
H278 C292 0.931 . S
H279 C294 0.930 . S
C280 H268 0.930 . S
C280 C281 1.399 1_556 S
C280 C285 1.399 . S
C281 C280 1.399 1_554 S
C281 C282 1.376 . S
C282 H269 0.930 . S
C282 C281 1.376 . S
C282 C283 1.388 . S
C283 H270 0.930 1_565 S
C283 C282 1.388 . S
C283 C284 1.390 . S
C284 C283 1.390 . S
C284 C285 1.394 1_554 S
C284 C290 1.465 1_565 S
C285 C280 1.399 . S
C285 C284 1.394 1_556 S
C285 C286 1.516 . S
C286 C285 1.516 . S
C286 C287 1.502 . S
C286 C288 1.561 1_565 S
C286 C289 1.526 1_565 S
C287 H271 0.959 . S
C287 H272 0.959 . S
C287 H273 0.961 . S
C287 C286 1.502 . S
C288 H274 0.960 1_545 S
C288 H275 0.961 . S
C288 H276 0.959 . S
C288 C286 1.561 1_545 S
C289 C286 1.526 1_545 S
C289 C290 1.396 1_556 S
C289 C294 1.390 . S
C290 C284 1.465 1_545 S
C290 C289 1.396 1_554 S
C290 C291 1.399 . S
C291 H277 0.929 . S
C291 C290 1.399 . S
C291 C292 1.385 . S
C292 H278 0.931 . S
C292 C291 1.385 . S
C292 C293 1.389 . S
C293 C292 1.389 . S
C293 C294 1.387 1_554 S
C294 H279 0.930 . S
C294 C289 1.390 . S
C294 C293 1.387 1_556 S
H295 C307 0.930 . S
H296 C309 0.928 . S
H297 C310 0.922 1_545 S
H298 C314 0.959 . S
H299 C314 0.959 . S
H300 C314 0.961 . S
H301 C315 0.960 . S
H302 C315 0.961 . S
H303 C315 0.959 . S
H304 C318 0.929 . S
H305 C319 0.931 . S
H306 C321 0.930 . S
C307 H295 0.930 . S
C307 C308 1.399 . S
C307 C312 1.399 . S
C308 C307 1.399 . S
C308 C309 1.376 . S
C309 H296 0.928 . S
C309 C308 1.376 . S
C309 C310 1.394 . S
C310 H297 0.922 1_565 S
C310 C309 1.394 . S
C310 C311 1.388 . S
C311 C310 1.388 . S
C311 C312 1.394 . S
C311 C317 1.465 . S
C312 C307 1.399 . S
C312 C311 1.394 . S
C312 C313 1.516 . S
C313 C312 1.516 . S
C313 C314 1.502 1_565 S
C313 C315 1.561 . S
C313 C316 1.526 . S
C314 H298 0.959 . S
C314 H299 0.959 . S
C314 H300 0.961 . S
C314 C313 1.502 1_545 S
C315 H301 0.960 . S
C315 H302 0.961 . S
C315 H303 0.959 . S
C315 C313 1.561 . S
C316 C313 1.526 . S
C316 C317 1.396 . S
C316 C321 1.390 . S
C317 C311 1.465 . S
C317 C316 1.396 . S
C317 C318 1.399 1_565 S
C318 H304 0.929 . S
C318 C317 1.399 1_545 S
C318 C319 1.385 . S
C319 H305 0.931 . S
C319 C318 1.385 . S
C319 C320 1.389 . S
C320 C319 1.389 . S
C320 C321 1.387 1_545 S
C321 H306 0.930 . S
C321 C316 1.390 . S
C321 C320 1.387 1_565 S
H322 C334 0.930 . S
H323 C336 0.930 . S
H324 C337 0.930 . S
H325 C341 0.959 . S
H326 C341 0.959 1_455 S
H327 C341 0.961 . S
H328 C342 0.960 . S
H329 C342 0.961 . S
H330 C342 0.959 . S
H331 C345 0.929 . S
H332 C346 0.931 . S
H333 C348 0.930 . S
C334 H322 0.930 . S
C334 C335 1.399 1_554 S
C334 C339 1.399 . S
C335 C334 1.399 1_556 S
C335 C336 1.376 . S
C336 H323 0.930 . S
C336 C335 1.376 . S
C336 C337 1.388 . S
C337 H324 0.930 . S
C337 C336 1.388 . S
C337 C338 1.390 . S
C338 C337 1.390 . S
C338 C339 1.394 1_556 S
C338 C344 1.465 1_655 S
C339 C334 1.399 . S
C339 C338 1.394 1_554 S
C339 C340 1.516 1_655 S
C340 C339 1.516 1_455 S
C340 C341 1.502 1_455 S
C340 C342 1.561 . S
C340 C343 1.526 . S
C341 H325 0.959 . S
C341 H326 0.959 1_655 S
C341 H327 0.961 . S
C341 C340 1.502 1_655 S
C342 H328 0.960 . S
C342 H329 0.961 . S
C342 H330 0.959 . S
C342 C340 1.561 . S
C343 C340 1.526 . S
C343 C344 1.396 1_554 S
C343 C348 1.390 . S
C344 C338 1.465 1_455 S
C344 C343 1.396 1_556 S
C344 C345 1.399 . S
C345 H331 0.929 . S
C345 C344 1.399 . S
C345 C346 1.385 . S
C346 H332 0.931 . S
C346 C345 1.385 . S
C346 C347 1.389 . S
C347 C346 1.389 . S
C347 C348 1.387 1_556 S
C348 H333 0.930 . S
C348 C343 1.390 . S
C348 C347 1.387 1_554 S
H349 C361 0.930 . S
H350 C363 0.930 . S
H351 C364 0.930 . S
H352 C368 0.959 . S
H353 C368 0.965 . S
H354 C368 0.961 . S
H355 C369 0.960 . S
H356 C369 0.961 . S
H357 C369 0.959 . S
H358 C372 0.929 . S
H359 C373 0.931 . S
H360 C375 0.930 . S
C361 H349 0.930 . S
C361 C362 1.399 . S
C361 C366 1.399 . S
C362 C361 1.399 . S
C362 C363 1.376 . S
C363 H350 0.930 . S
C363 C362 1.376 . S
C363 C364 1.388 . S
C364 H351 0.930 . S
C364 C363 1.388 . S
C364 C365 1.390 . S
C365 C364 1.390 . S
C365 C366 1.394 . S
C365 C371 1.465 1_455 S
C366 C361 1.399 . S
C366 C365 1.394 . S
C366 C367 1.516 . S
C367 C366 1.516 . S
C367 C368 1.502 . S
C367 C369 1.561 . S
C367 C370 1.526 1_455 S
C368 H352 0.959 . S
C368 H353 0.965 . S
C368 H354 0.961 . S
C368 C367 1.502 . S
C369 H355 0.960 . S
C369 H356 0.961 . S
C369 H357 0.959 . S
C369 C367 1.561 . S
C370 C367 1.526 1_655 S
C370 C371 1.396 . S
C370 C375 1.390 . S
C371 C365 1.465 1_655 S
C371 C370 1.396 . S
C371 C372 1.399 . S
C372 H358 0.929 . S
C372 C371 1.399 . S
C372 C373 1.385 . S
C373 H359 0.931 . S
C373 C372 1.385 . S
C373 C374 1.389 . S
C374 C373 1.389 . S
C374 C375 1.387 . S
C375 H360 0.930 . S
C375 C370 1.390 . S
C375 C374 1.387 . S
H376 C388 0.930 . S
H377 C390 0.930 . S
H378 C391 0.930 . S
H379 C395 0.959 . S
H380 C395 0.959 . S
H381 C395 0.961 . S
H382 C396 0.960 . S
H383 C396 0.961 . S
H384 C396 0.959 . S
H385 C399 0.929 . S
H386 C400 0.931 . S
H387 C402 0.930 . S
C388 H376 0.930 . S
C388 C389 1.399 1_465 S
C388 C393 1.399 . S
C389 C388 1.399 1_645 S
C389 C390 1.376 . S
C390 H377 0.930 . S
C390 C389 1.376 . S
C390 C391 1.388 . S
C391 H378 0.930 . S
C391 C390 1.388 . S
C391 C392 1.390 . S
C392 C391 1.390 . S
C392 C393 1.394 1_645 S
C392 C398 1.465 . S
C393 C388 1.399 . S
C393 C392 1.394 1_465 S
C393 C394 1.516 . S
C394 C393 1.516 . S
C394 C395 1.502 . S
C394 C396 1.561 1_455 S
C394 C397 1.526 . S
C395 H379 0.959 . S
C395 H380 0.959 . S
C395 H381 0.961 . S
C395 C394 1.502 . S
C396 H382 0.960 . S
C396 H383 0.961 . S
C396 H384 0.959 . S
C396 C394 1.561 1_655 S
C397 C394 1.526 . S
C397 C398 1.396 1_465 S
C397 C402 1.390 . S
C398 C392 1.465 . S
C398 C397 1.396 1_645 S
C398 C399 1.399 . S
C399 H385 0.929 . S
C399 C398 1.399 . S
C399 C400 1.385 . S
C400 H386 0.931 . S
C400 C399 1.385 . S
C400 C401 1.389 . S
C401 C400 1.389 . S
C401 C402 1.387 1_645 S
C402 H387 0.930 . S
C402 C397 1.390 . S
C402 C401 1.387 1_465 S
H403 C415 0.930 . S
H404 C417 0.930 . S
H405 C418 0.930 . S
H406 C422 0.959 . S
H407 C422 0.959 . S
H408 C422 0.961 . S
H409 C423 0.960 . S
H410 C423 0.961 . S
H411 C423 0.959 . S
H412 C426 0.929 . S
H413 C427 0.931 . S
H414 C429 0.930 . S
C415 H403 0.930 . S
C415 C416 1.399 1_465 S
C415 C420 1.399 . S
C416 C415 1.399 1_645 S
C416 C417 1.376 . S
C417 H404 0.930 . S
C417 C416 1.376 . S
C417 C418 1.388 . S
C418 H405 0.930 . S
C418 C417 1.388 . S
C418 C419 1.390 . S
C419 C418 1.390 . S
C419 C420 1.394 1_645 S
C419 C425 1.465 . S
C420 C415 1.399 . S
C420 C419 1.394 1_465 S
C420 C421 1.516 . S
C421 C420 1.516 . S
C421 C422 1.502 . S
C421 C423 1.561 1_455 S
C421 C424 1.526 . S
C422 H406 0.959 . S
C422 H407 0.959 . S
C422 H408 0.961 . S
C422 C421 1.502 . S
C423 H409 0.960 . S
C423 H410 0.961 . S
C423 H411 0.959 . S
C423 C421 1.561 1_655 S
C424 C421 1.526 . S
C424 C425 1.396 1_465 S
C424 C429 1.390 . S
C425 C419 1.465 . S
C425 C424 1.396 1_645 S
C425 C426 1.399 . S
C426 H412 0.929 . S
C426 C425 1.399 . S
C426 C427 1.385 . S
C427 H413 0.931 . S
C427 C426 1.385 . S
C427 C428 1.390 . S
C428 C427 1.390 . S
C428 C429 1.387 1_645 S
C429 H414 0.930 . S
C429 C424 1.390 . S
C429 C428 1.387 1_465 S
H430 C442 0.930 . S
H431 C444 0.930 . S
H432 C445 0.930 . S
H433 C449 0.959 . S
H434 C449 0.959 . S
H435 C449 0.961 . S
H436 C450 0.960 . S
H437 C450 0.961 . S
H438 C450 0.959 . S
H439 C453 0.929 . S
H440 C454 0.931 . S
H441 C456 0.930 . S
C442 H430 0.930 . S
C442 C443 1.399 . S
C442 C447 1.399 . S
C443 C442 1.399 . S
C443 C444 1.376 . S
C444 H431 0.930 . S
C444 C443 1.376 . S
C444 C445 1.388 . S
C445 H432 0.930 . S
C445 C444 1.388 . S
C445 C446 1.390 . S
C446 C445 1.390 . S
C446 C447 1.394 . S
C446 C452 1.465 . S
C447 C442 1.399 . S
C447 C446 1.394 . S
C447 C448 1.516 . S
C448 C447 1.516 . S
C448 C449 1.502 . S
C448 C450 1.561 . S
C448 C451 1.526 . S
C449 H433 0.959 . S
C449 H434 0.959 . S
C449 H435 0.961 . S
C449 C448 1.502 . S
C450 H436 0.960 . S
C450 H437 0.961 . S
C450 H438 0.959 . S
C450 C448 1.561 . S
C451 C448 1.526 . S
C451 C452 1.396 . S
C451 C456 1.390 . S
C452 C446 1.465 . S
C452 C451 1.396 . S
C452 C453 1.399 . S
C453 H439 0.929 . S
C453 C452 1.399 . S
C453 C454 1.385 . S
C454 H440 0.931 . S
C454 C453 1.385 . S
C454 C455 1.389 . S
C455 C454 1.389 . S
C455 C456 1.387 . S
C456 H441 0.930 . S
C456 C451 1.390 . S
C456 C455 1.387 . S
H457 C469 0.930 . S
H458 C471 0.930 . S
H459 C472 0.930 . S
H460 C476 0.959 . S
H461 C476 0.959 . S
H462 C476 0.961 . S
H463 C477 0.960 . S
H464 C477 0.961 . S
H465 C477 0.959 . S
H466 C480 0.929 . S
H467 C481 0.931 . S
H468 C483 0.930 . S
C469 H457 0.930 . S
C469 C470 1.399 . S
C469 C474 1.399 . S
C470 C469 1.399 . S
C470 C471 1.376 . S
C471 H458 0.930 . S
C471 C470 1.376 . S
C471 C472 1.388 . S
C472 H459 0.930 . S
C472 C471 1.388 . S
C472 C473 1.390 . S
C473 C472 1.390 . S
C473 C474 1.394 . S
C473 C479 1.465 . S
C474 C469 1.399 . S
C474 C473 1.394 . S
C474 C475 1.516 . S
C475 C474 1.516 . S
C475 C476 1.502 . S
C475 C477 1.561 . S
C475 C478 1.526 . S
C476 H460 0.959 . S
C476 H461 0.959 . S
C476 H462 0.961 . S
C476 C475 1.502 . S
C477 H463 0.960 . S
C477 H464 0.961 . S
C477 H465 0.959 . S
C477 C475 1.561 . S
C478 C475 1.526 . S
C478 C479 1.396 . S
C478 C483 1.390 . S
C479 C473 1.465 . S
C479 C478 1.396 . S
C479 C480 1.399 . S
C480 H466 0.929 . S
C480 C479 1.399 . S
C480 C481 1.385 . S
C481 H467 0.931 . S
C481 C480 1.385 . S
C481 C482 1.389 . S
C482 C481 1.389 . S
C482 C483 1.387 . S
C483 H468 0.930 . S
C483 C478 1.390 . S
C483 C482 1.387 . S
C173 C82 3.577 1_554 S
C185 C11 3.557 . S
C200 C91 3.565 1_556 S
C212 C2 3.567 . S
C227 C56 0.199 . S
C239 C127 0.212 . S
C254 C47 0.147 . S
C266 C136 0.260 . S
C281 C16 0.855 . S
C293 C7 0.979 1_554 S
C308 C51 4.854 . S
C320 C42 4.850 . S
C335 C96 0.969 1_556 S
C347 C87 0.916 . S
C362 C122 4.852 . S
C374 C131 4.852 . S
C389 C50 1.475 1_545 S
C401 C19 1.454 1_655 S
C416 C10 1.448 1_545 S
C428 C59 1.418 1_655 S
C443 C130 1.426 . S
C455 C99 1.451 . S
C470 C139 1.423 . S
C482 C90 1.480 . S
