# Generated by pormake.
# Topology vbb, (4)-cn, num edge types: 1
# Building blocks:
#     Node 0, Type 0, BuildingBlock: MUDLON_clean_sbu_0, # of connection points: 4
#     Node 1, Type 0, BuildingBlock: MUDLON_clean_sbu_0, # of connection points: 4
#     Node 2, Type 0, BuildingBlock: MUDLON_clean_sbu_0, # of connection points: 4
#     Node 3, Type 0, BuildingBlock: MUDLON_clean_sbu_0, # of connection points: 4
#     Node 4, Type 0, BuildingBlock: MUDLON_clean_sbu_0, # of connection points: 4
#     Node 5, Type 0, BuildingBlock: MUDLON_clean_sbu_0, # of connection points: 4
#     Node 6, Type 0, BuildingBlock: MUDLON_clean_sbu_0, # of connection points: 4
#     Node 7, Type 0, BuildingBlock: MUDLON_clean_sbu_0, # of connection points: 4
#     Node 8, Type 0, BuildingBlock: MUDLON_clean_sbu_0, # of connection points: 4
#     Node 9, Type 0, BuildingBlock: MUDLON_clean_sbu_0, # of connection points: 4
#     Node 10, Type 0, BuildingBlock: MUDLON_clean_sbu_0, # of connection points: 4
#     Node 11, Type 0, BuildingBlock: MUDLON_clean_sbu_0, # of connection points: 4
#     Node 12, Type 0, BuildingBlock: MUDLON_clean_sbu_0, # of connection points: 4
#     Node 13, Type 0, BuildingBlock: MUDLON_clean_sbu_0, # of connection points: 4
#     Node 14, Type 0, BuildingBlock: MUDLON_clean_sbu_0, # of connection points: 4
#     Node 15, Type 0, BuildingBlock: MUDLON_clean_sbu_0, # of connection points: 4
#     Node 16, Type 0, BuildingBlock: MUDLON_clean_sbu_0, # of connection points: 4
#     Node 17, Type 0, BuildingBlock: MUDLON_clean_sbu_0, # of connection points: 4
#     Node 18, Type 0, BuildingBlock: MUDLON_clean_sbu_0, # of connection points: 4
#     Node 19, Type 0, BuildingBlock: MUDLON_clean_sbu_0, # of connection points: 4
#     Node 20, Type 0, BuildingBlock: MUDLON_clean_sbu_0, # of connection points: 4
#     Node 21, Type 0, BuildingBlock: MUDLON_clean_sbu_0, # of connection points: 4
#     Node 22, Type 0, BuildingBlock: MUDLON_clean_sbu_0, # of connection points: 4
#     Node 23, Type 0, BuildingBlock: MUDLON_clean_sbu_0, # of connection points: 4
#     Node 24, Type 0, BuildingBlock: MUDLON_clean_sbu_0, # of connection points: 4
#     Node 25, Type 0, BuildingBlock: MUDLON_clean_sbu_0, # of connection points: 4
#     Node 26, Type 0, BuildingBlock: MUDLON_clean_sbu_0, # of connection points: 4
#     Node 27, Type 0, BuildingBlock: MUDLON_clean_sbu_0, # of connection points: 4
#     Node 28, Type 0, BuildingBlock: MUDLON_clean_sbu_0, # of connection points: 4
#     Node 29, Type 0, BuildingBlock: MUDLON_clean_sbu_0, # of connection points: 4
#     Node 30, Type 0, BuildingBlock: MUDLON_clean_sbu_0, # of connection points: 4
#     Node 31, Type 0, BuildingBlock: MUDLON_clean_sbu_0, # of connection points: 4
#     Edge 32, Type (0, 0), BuildingBlock: XIVTED_clean_linker_0, # of connection points: 2
#     Edge 33, Type (0, 0), BuildingBlock: XIVTED_clean_linker_0, # of connection points: 2
#     Edge 34, Type (0, 0), BuildingBlock: XIVTED_clean_linker_0, # of connection points: 2
#     Edge 35, Type (0, 0), BuildingBlock: XIVTED_clean_linker_0, # of connection points: 2
#     Edge 36, Type (0, 0), BuildingBlock: XIVTED_clean_linker_0, # of connection points: 2
#     Edge 37, Type (0, 0), BuildingBlock: XIVTED_clean_linker_0, # of connection points: 2
#     Edge 38, Type (0, 0), BuildingBlock: XIVTED_clean_linker_0, # of connection points: 2
#     Edge 39, Type (0, 0), BuildingBlock: XIVTED_clean_linker_0, # of connection points: 2
#     Edge 40, Type (0, 0), BuildingBlock: XIVTED_clean_linker_0, # of connection points: 2
#     Edge 41, Type (0, 0), BuildingBlock: XIVTED_clean_linker_0, # of connection points: 2
#     Edge 42, Type (0, 0), BuildingBlock: XIVTED_clean_linker_0, # of connection points: 2
#     Edge 43, Type (0, 0), BuildingBlock: XIVTED_clean_linker_0, # of connection points: 2
#     Edge 44, Type (0, 0), BuildingBlock: XIVTED_clean_linker_0, # of connection points: 2
#     Edge 45, Type (0, 0), BuildingBlock: XIVTED_clean_linker_0, # of connection points: 2
#     Edge 46, Type (0, 0), BuildingBlock: XIVTED_clean_linker_0, # of connection points: 2
#     Edge 47, Type (0, 0), BuildingBlock: XIVTED_clean_linker_0, # of connection points: 2
#     Edge 48, Type (0, 0), BuildingBlock: XIVTED_clean_linker_0, # of connection points: 2
#     Edge 49, Type (0, 0), BuildingBlock: XIVTED_clean_linker_0, # of connection points: 2
#     Edge 50, Type (0, 0), BuildingBlock: XIVTED_clean_linker_0, # of connection points: 2
#     Edge 51, Type (0, 0), BuildingBlock: XIVTED_clean_linker_0, # of connection points: 2
#     Edge 52, Type (0, 0), BuildingBlock: XIVTED_clean_linker_0, # of connection points: 2
#     Edge 53, Type (0, 0), BuildingBlock: XIVTED_clean_linker_0, # of connection points: 2
#     Edge 54, Type (0, 0), BuildingBlock: XIVTED_clean_linker_0, # of connection points: 2
#     Edge 55, Type (0, 0), BuildingBlock: XIVTED_clean_linker_0, # of connection points: 2
#     Edge 56, Type (0, 0), BuildingBlock: XIVTED_clean_linker_0, # of connection points: 2
#     Edge 57, Type (0, 0), BuildingBlock: XIVTED_clean_linker_0, # of connection points: 2
#     Edge 58, Type (0, 0), BuildingBlock: XIVTED_clean_linker_0, # of connection points: 2
#     Edge 59, Type (0, 0), BuildingBlock: XIVTED_clean_linker_0, # of connection points: 2
#     Edge 60, Type (0, 0), BuildingBlock: XIVTED_clean_linker_0, # of connection points: 2
#     Edge 61, Type (0, 0), BuildingBlock: XIVTED_clean_linker_0, # of connection points: 2
#     Edge 62, Type (0, 0), BuildingBlock: XIVTED_clean_linker_0, # of connection points: 2
#     Edge 63, Type (0, 0), BuildingBlock: XIVTED_clean_linker_0, # of connection points: 2
#     Edge 64, Type (0, 0), BuildingBlock: XIVTED_clean_linker_0, # of connection points: 2
#     Edge 65, Type (0, 0), BuildingBlock: XIVTED_clean_linker_0, # of connection points: 2
#     Edge 66, Type (0, 0), BuildingBlock: XIVTED_clean_linker_0, # of connection points: 2
#     Edge 67, Type (0, 0), BuildingBlock: XIVTED_clean_linker_0, # of connection points: 2
#     Edge 68, Type (0, 0), BuildingBlock: XIVTED_clean_linker_0, # of connection points: 2
#     Edge 69, Type (0, 0), BuildingBlock: XIVTED_clean_linker_0, # of connection points: 2
#     Edge 70, Type (0, 0), BuildingBlock: XIVTED_clean_linker_0, # of connection points: 2
#     Edge 71, Type (0, 0), BuildingBlock: XIVTED_clean_linker_0, # of connection points: 2
#     Edge 72, Type (0, 0), BuildingBlock: XIVTED_clean_linker_0, # of connection points: 2
#     Edge 73, Type (0, 0), BuildingBlock: XIVTED_clean_linker_0, # of connection points: 2
#     Edge 74, Type (0, 0), BuildingBlock: XIVTED_clean_linker_0, # of connection points: 2
#     Edge 75, Type (0, 0), BuildingBlock: XIVTED_clean_linker_0, # of connection points: 2
#     Edge 76, Type (0, 0), BuildingBlock: XIVTED_clean_linker_0, # of connection points: 2
#     Edge 77, Type (0, 0), BuildingBlock: XIVTED_clean_linker_0, # of connection points: 2
#     Edge 78, Type (0, 0), BuildingBlock: XIVTED_clean_linker_0, # of connection points: 2
#     Edge 79, Type (0, 0), BuildingBlock: XIVTED_clean_linker_0, # of connection points: 2
#     Edge 80, Type (0, 0), BuildingBlock: XIVTED_clean_linker_0, # of connection points: 2
#     Edge 81, Type (0, 0), BuildingBlock: XIVTED_clean_linker_0, # of connection points: 2
#     Edge 82, Type (0, 0), BuildingBlock: XIVTED_clean_linker_0, # of connection points: 2
#     Edge 83, Type (0, 0), BuildingBlock: XIVTED_clean_linker_0, # of connection points: 2
#     Edge 84, Type (0, 0), BuildingBlock: XIVTED_clean_linker_0, # of connection points: 2
#     Edge 85, Type (0, 0), BuildingBlock: XIVTED_clean_linker_0, # of connection points: 2
#     Edge 86, Type (0, 0), BuildingBlock: XIVTED_clean_linker_0, # of connection points: 2
#     Edge 87, Type (0, 0), BuildingBlock: XIVTED_clean_linker_0, # of connection points: 2
#     Edge 88, Type (0, 0), BuildingBlock: XIVTED_clean_linker_0, # of connection points: 2
#     Edge 89, Type (0, 0), BuildingBlock: XIVTED_clean_linker_0, # of connection points: 2
#     Edge 90, Type (0, 0), BuildingBlock: XIVTED_clean_linker_0, # of connection points: 2
#     Edge 91, Type (0, 0), BuildingBlock: XIVTED_clean_linker_0, # of connection points: 2
#     Edge 92, Type (0, 0), BuildingBlock: XIVTED_clean_linker_0, # of connection points: 2
#     Edge 93, Type (0, 0), BuildingBlock: XIVTED_clean_linker_0, # of connection points: 2
#     Edge 94, Type (0, 0), BuildingBlock: XIVTED_clean_linker_0, # of connection points: 2
#     Edge 95, Type (0, 0), BuildingBlock: XIVTED_clean_linker_0, # of connection points: 2
# Relax obj value: 0.000
# Max RMSD: 0.063
# Mean RMSD: 0.061
data_MOF--net-vbb--node1-MUDLON_clean_sbu_0--edge1-XIVTED_clean_linker_0
_symmetry_space_group_name_H-M    P1
_symmetry_Int_Tables_number       1
_symmetry_cell_setting            triclinic
loop_
_symmetry_equiv_pos_as_xyz
'x, y, z'
_cell_length_a     60.143474
_cell_length_b     15.735688
_cell_length_c     123.14185
_cell_angle_alpha  89.98023
_cell_angle_beta   90.064629
_cell_angle_gamma 89.983978
loop_
_atom_site_label
_atom_site_type_symbol
_atom_site_fract_x
_atom_site_fract_y
_atom_site_fract_z
_atom_type_partial_charge
Mg0 Mg 0.50376 0.02893 0.06978 0.0
C1 C 0.50274 2e-05 0.04728 0.0
O2 O 0.50873 0.93031 0.0524 0.0
C3 C 0.50091 0.04985 0.09221 0.0
O4 O 0.50655 0.9714 0.08978 0.0
C5 C 0.45918 0.98245 0.07148 0.0
O6 O 0.46117 0.0654 0.07067 0.0
O7 O 0.47686 0.93758 0.07144 0.0
O8 O 0.49846 0.06593 0.05294 0.0
O9 O 0.53944 0.00541 0.07047 0.0
C10 C 0.5491 0.06871 0.06606 0.0
O11 O 0.53683 0.12977 0.06193 0.0
O12 O 0.49834 0.10268 0.08445 0.0
Mg13 Mg 0.75808 0.21438 0.06936 0.0
C14 C 0.76035 0.24534 0.04688 0.0
O15 O 0.75603 0.31649 0.05205 0.0
C16 C 0.76048 0.192 0.09179 0.0
O17 O 0.75608 0.27166 0.08939 0.0
C18 C 0.80324 0.25527 0.07143 0.0
O19 O 0.80081 0.17244 0.07072 0.0
O20 O 0.78584 0.30159 0.07122 0.0
O21 O 0.76307 0.17786 0.05247 0.0
O22 O 0.72288 0.24726 0.07014 0.0
C23 C 0.71148 0.19448 0.06461 0.0
O24 O 0.72185 0.13514 0.05909 0.0
O25 O 0.76236 0.13898 0.08401 0.0
Mg26 Mg 0.50134 0.21224 0.19358 0.0
C27 C 0.50583 0.23759 0.21596 0.0
O28 O 0.51145 0.30685 0.21066 0.0
C29 C 0.494 0.19149 0.17129 0.0
O30 O 0.49724 0.27215 0.17356 0.0
C31 C 0.45626 0.25446 0.1938 0.0
O32 O 0.4589 0.17194 0.19487 0.0
O33 O 0.4736 0.30077 0.19305 0.0
O34 O 0.49995 0.17264 0.21047 0.0
O35 O 0.53663 0.23683 0.19141 0.0
C36 C 0.54595 0.16399 0.19158 0.0
O37 O 0.53329 0.09663 0.19284 0.0
O38 O 0.49438 0.13804 0.17908 0.0
Mg39 Mg 0.75597 0.03003 0.19336 0.0
C40 C 0.75177 0.00897 0.21589 0.0
O41 O 0.74539 0.93943 0.21086 0.0
C42 C 0.76293 0.04834 0.17097 0.0
O43 O 0.75895 0.96831 0.17333 0.0
C44 C 0.80078 0.98429 0.19376 0.0
O45 O 0.79855 0.06692 0.19489 0.0
O46 O 0.78322 0.93933 0.19291 0.0
O47 O 0.75795 0.0721 0.21014 0.0
O48 O 0.72059 0.00656 0.19131 0.0
C49 C 0.71135 0.07952 0.19106 0.0
O50 O 0.72409 0.14709 0.19189 0.0
O51 O 0.76321 0.10217 0.17871 0.0
Mg52 Mg 0.50706 0.96019 0.94335 0.0
C53 C 0.46233 0.91499 0.94042 0.0
O54 O 0.4746 0.8463 0.94143 0.0
C55 C 0.55207 0.00247 0.94476 0.0
O56 O 0.5493 0.92033 0.94616 0.0
C57 C 0.51554 0.9413 0.92113 0.0
O58 O 0.51186 0.02163 0.92344 0.0
O59 O 0.51493 0.88736 0.92886 0.0
O60 O 0.472 0.98707 0.94075 0.0
O61 O 0.5074 0.91735 0.96012 0.0
C62 C 0.50134 0.98113 0.96578 0.0
O63 O 0.49614 0.0518 0.96067 0.0
O64 O 0.53484 0.04851 0.94336 0.0
Mg65 Mg 0.25222 0.78351 0.94291 0.0
C66 C 0.297 0.82983 0.94033 0.0
O67 O 0.28465 0.89832 0.9413 0.0
C68 C 0.20729 0.73982 0.94383 0.0
O69 O 0.20981 0.82231 0.94499 0.0
C70 C 0.24457 0.80037 0.92056 0.0
O71 O 0.24859 0.72053 0.92302 0.0
O72 O 0.24462 0.85495 0.92822 0.0
O73 O 0.2874 0.7576 0.94058 0.0
O74 O 0.25114 0.82567 0.95972 0.0
C75 C 0.25763 0.76246 0.96539 0.0
O76 O 0.26374 0.69297 0.96028 0.0
O77 O 0.22468 0.69416 0.94276 0.0
Mg78 Mg 0.50755 0.78003 0.81976 0.0
C79 C 0.46285 0.8285 0.82193 0.0
O80 O 0.4754 0.89626 0.82076 0.0
C81 C 0.55237 0.73513 0.81936 0.0
O82 O 0.55001 0.81774 0.81825 0.0
C83 C 0.51441 0.79868 0.84207 0.0
O84 O 0.50973 0.71922 0.83969 0.0
O85 O 0.51507 0.85257 0.83433 0.0
O86 O 0.47226 0.75587 0.82197 0.0
O87 O 0.50917 0.8208 0.80293 0.0
C88 C 0.5025 0.75754 0.79733 0.0
O89 O 0.49592 0.689 0.80252 0.0
O90 O 0.53488 0.68979 0.82021 0.0
Mg91 Mg 0.2531 0.96746 0.81933 0.0
C92 C 0.29776 0.92056 0.82218 0.0
O93 O 0.2853 0.85227 0.82133 0.0
C94 C 0.20819 0.01024 0.81832 0.0
O95 O 0.21091 0.92788 0.81712 0.0
C96 C 0.24537 0.95056 0.84165 0.0
O97 O 0.24956 0.03027 0.8392 0.0
O98 O 0.24536 0.89598 0.83399 0.0
O99 O 0.28828 0.99299 0.82176 0.0
O100 O 0.25211 0.92589 0.80249 0.0
C101 C 0.25891 0.98887 0.79688 0.0
O102 O 0.2653 0.05776 0.80205 0.0
O103 O 0.22547 0.05642 0.81945 0.0
Mg104 Mg 0.50312 0.53697 0.56982 0.0
C105 C 0.50777 0.5154 0.54736 0.0
O106 O 0.51389 0.44584 0.55246 0.0
C107 C 0.49635 0.55501 0.59215 0.0
O108 O 0.5008 0.47542 0.58974 0.0
C109 C 0.45819 0.49419 0.56938 0.0
O110 O 0.46079 0.57677 0.56839 0.0
O111 O 0.47554 0.44793 0.57016 0.0
O112 O 0.50158 0.57893 0.55303 0.0
O113 O 0.53835 0.5113 0.57201 0.0
C114 C 0.54789 0.58367 0.57204 0.0
O115 O 0.53545 0.65185 0.57094 0.0
O116 O 0.49583 0.60914 0.58444 0.0
Mg117 Mg 0.75781 0.71921 0.5699 0.0
C118 C 0.75251 0.7391 0.54741 0.0
O119 O 0.74614 0.80854 0.55247 0.0
C120 C 0.76563 0.70247 0.59223 0.0
O121 O 0.76151 0.78228 0.5898 0.0
C122 C 0.80263 0.76358 0.56901 0.0
O123 O 0.80018 0.68097 0.56796 0.0
O124 O 0.7852 0.80912 0.57001 0.0
O125 O 0.75908 0.67634 0.55314 0.0
O126 O 0.7226 0.74464 0.57217 0.0
C127 C 0.71309 0.67228 0.57254 0.0
O128 O 0.72553 0.60389 0.57173 0.0
O129 O 0.76555 0.64797 0.58456 0.0
Mg130 Mg 0.50326 0.7159 0.69348 0.0
C131 C 0.50949 0.73744 0.71589 0.0
O132 O 0.51589 0.80621 0.7107 0.0
C133 C 0.49506 0.69672 0.67125 0.0
O134 O 0.49896 0.7769 0.67356 0.0
C135 C 0.45836 0.75848 0.69464 0.0
O136 O 0.46115 0.67636 0.69607 0.0
O137 O 0.47559 0.80458 0.69331 0.0
O138 O 0.50254 0.67456 0.71031 0.0
O139 O 0.53836 0.74179 0.69091 0.0
C140 C 0.5479 0.66944 0.69058 0.0
O141 O 0.53551 0.60109 0.69159 0.0
O142 O 0.4954 0.64285 0.67899 0.0
Mg143 Mg 0.75763 0.53146 0.69327 0.0
C144 C 0.7519 0.50934 0.71569 0.0
O145 O 0.74534 0.44087 0.71048 0.0
C146 C 0.7654 0.54962 0.671 0.0
O147 O 0.76109 0.46987 0.67337 0.0
C148 C 0.80242 0.48675 0.69414 0.0
O149 O 0.79998 0.56917 0.69541 0.0
O150 O 0.785 0.4414 0.69302 0.0
O151 O 0.75881 0.57234 0.71011 0.0
O152 O 0.72244 0.5068 0.69082 0.0
C153 C 0.71299 0.57935 0.69067 0.0
O154 O 0.72548 0.64735 0.69177 0.0
O155 O 0.76546 0.60379 0.67871 0.0
Mg156 Mg 0.50744 0.46753 0.44343 0.0
C157 C 0.46273 0.42068 0.4411 0.0
O158 O 0.47519 0.35263 0.44228 0.0
C159 C 0.55238 0.51019 0.44407 0.0
O160 O 0.54972 0.42774 0.4452 0.0
C161 C 0.5147 0.44846 0.42114 0.0
O162 O 0.51055 0.52842 0.42347 0.0
O163 O 0.51486 0.39465 0.42889 0.0
O164 O 0.47225 0.49312 0.44113 0.0
O165 O 0.50879 0.42585 0.46024 0.0
C166 C 0.50253 0.48935 0.4659 0.0
O167 O 0.49642 0.55887 0.46078 0.0
O168 O 0.53506 0.55643 0.44312 0.0
Mg169 Mg 0.25297 0.28272 0.44301 0.0
C170 C 0.29763 0.33039 0.44023 0.0
O171 O 0.28513 0.39863 0.44104 0.0
C172 C 0.20822 0.23762 0.44396 0.0
O173 O 0.21061 0.32011 0.44518 0.0
C174 C 0.24505 0.29953 0.42069 0.0
O175 O 0.24936 0.21987 0.42312 0.0
O176 O 0.24503 0.35406 0.42835 0.0
O177 O 0.28817 0.25792 0.44063 0.0
O178 O 0.25181 0.32426 0.45984 0.0
C179 C 0.25886 0.26169 0.46547 0.0
O180 O 0.26556 0.19321 0.46031 0.0
O181 O 0.22567 0.1924 0.44285 0.0
Mg182 Mg 0.5074 0.28348 0.31985 0.0
C183 C 0.46281 0.33243 0.32191 0.0
O184 O 0.47549 0.39965 0.32056 0.0
C185 C 0.55236 0.24067 0.31937 0.0
O186 O 0.54968 0.32303 0.31812 0.0
C187 C 0.51453 0.30365 0.34211 0.0
O188 O 0.51022 0.22376 0.33982 0.0
O189 O 0.51484 0.3572 0.33434 0.0
O190 O 0.4721 0.25955 0.32212 0.0
O191 O 0.50873 0.32294 0.30296 0.0
C192 C 0.50276 0.25808 0.29747 0.0
O193 O 0.49707 0.18894 0.30278 0.0
O194 O 0.53504 0.1945 0.32035 0.0
Mg195 Mg 0.25286 0.46547 0.31948 0.0
C196 C 0.2974 0.41627 0.32253 0.0
O197 O 0.28473 0.34843 0.32183 0.0
C198 C 0.2081 0.51046 0.31845 0.0
O199 O 0.21056 0.42794 0.31729 0.0
C200 C 0.24479 0.44917 0.3418 0.0
O201 O 0.24911 0.52879 0.33935 0.0
O202 O 0.24479 0.39455 0.33414 0.0
O203 O 0.28814 0.48906 0.32193 0.0
O204 O 0.25163 0.42357 0.30266 0.0
C205 C 0.25907 0.48528 0.29701 0.0
O206 O 0.26625 0.55318 0.30215 0.0
O207 O 0.22552 0.55587 0.31956 0.0
Mg208 Mg 1.00358 0.03242 0.56939 0.0
C209 C 0.00881 0.01249 0.54688 0.0
O210 O 0.01535 0.94324 0.55193 0.0
C211 C 0.99592 0.04919 0.59171 0.0
O212 O 1.00024 0.96955 0.58928 0.0
C213 C 0.95882 0.98745 0.56847 0.0
O214 O 0.96123 0.06996 0.56728 0.0
O215 O 0.97627 0.94213 0.56956 0.0
O216 O 1.00216 0.07505 0.55261 0.0
O217 O 0.03881 0.00779 0.5717 0.0
C218 C 0.04822 0.08039 0.57195 0.0
O219 O 0.03568 0.14841 0.57099 0.0
O220 O 0.9958 0.10367 0.58403 0.0
Mg221 Mg 0.25791 0.21929 0.56941 0.0
C222 C 0.2519 0.24091 0.54694 0.0
O223 O 0.24529 0.30944 0.55212 0.0
C224 C 0.26585 0.20099 0.59172 0.0
O225 O 0.26194 0.28107 0.58935 0.0
C226 C 0.30278 0.26244 0.56841 0.0
O227 O 0.3001 0.18018 0.56708 0.0
O228 O 0.28548 0.30839 0.56962 0.0
O229 O 0.25892 0.17819 0.55255 0.0
O230 O 0.22274 0.2446 0.57183 0.0
C231 C 0.21328 0.17209 0.57204 0.0
O232 O 0.22576 0.10399 0.57101 0.0
O233 O 0.26562 0.14688 0.584 0.0
Mg234 Mg 1.00347 0.2187 0.6928 0.0
C235 C 0.00925 0.2402 0.71524 0.0
O236 O 0.01589 0.30866 0.71005 0.0
C237 C 0.99555 0.20117 0.6705 0.0
O238 O 0.99974 0.28098 0.67289 0.0
C239 C 0.95869 0.26337 0.69364 0.0
O240 O 0.96113 0.18082 0.69478 0.0
O241 O 0.97611 0.30883 0.69261 0.0
O242 O 1.00229 0.17739 0.70964 0.0
O243 O 0.03868 0.24322 0.69042 0.0
C244 C 0.04808 0.17059 0.69011 0.0
O245 O 0.03553 0.10259 0.69103 0.0
O246 O 0.9956 0.14686 0.6782 0.0
Mg247 Mg 0.25775 0.03003 0.6929 0.0
C248 C 0.25251 0.00777 0.71536 0.0
O249 O 0.24612 0.93893 0.71018 0.0
C250 C 0.26467 0.04759 0.67053 0.0
O251 O 0.26034 0.96798 0.67298 0.0
C252 C 0.30268 0.98763 0.69335 0.0
O253 O 0.29998 0.0702 0.69431 0.0
O254 O 0.28537 0.94113 0.69259 0.0
O255 O 0.25912 0.07106 0.70975 0.0
O256 O 0.22252 0.00484 0.69063 0.0
C257 C 0.21309 0.07745 0.69056 0.0
O258 O 0.22562 0.14533 0.69167 0.0
O259 O 0.26507 0.10192 0.67822 0.0
Mg260 Mg 0.00736 0.96759 0.44292 0.0
C261 C 0.96263 0.92016 0.44041 0.0
O262 O 0.97512 0.8519 0.44126 0.0
C263 C 0.05214 0.0125 0.44361 0.0
O264 O 0.04978 0.92987 0.44468 0.0
C265 C 0.01454 0.95031 0.42056 0.0
O266 O 0.01007 0.02988 0.42297 0.0
O267 O 0.01495 0.89611 0.42827 0.0
O268 O 0.97211 0.9926 0.44071 0.0
O269 O 0.00893 0.92509 0.4597 0.0
C270 C 1.00236 0.98777 0.46542 0.0
O271 O 0.99584 0.05706 0.46037 0.0
O272 O 0.03466 0.05785 0.44267 0.0
Mg273 Mg 0.75276 0.78421 0.44346 0.0
C274 C 0.79747 0.83078 0.44104 0.0
O275 O 0.78503 0.89899 0.4421 0.0
C276 C 0.70784 0.74152 0.44431 0.0
O277 O 0.71053 0.82394 0.44546 0.0
C278 C 0.74514 0.80141 0.42114 0.0
O279 O 0.74907 0.72148 0.42359 0.0
O280 O 0.74526 0.85594 0.4288 0.0
O281 O 0.78794 0.75839 0.44118 0.0
O282 O 0.75154 0.82675 0.46024 0.0
C283 C 0.75804 0.76382 0.46595 0.0
O284 O 0.76433 0.69433 0.46089 0.0
O285 O 0.72514 0.6953 0.44328 0.0
Mg286 Mg 0.00808 0.79035 0.31912 0.0
C287 C 0.96327 0.83675 0.32156 0.0
O288 O 0.9756 0.90513 0.32041 0.0
C289 C 0.05308 0.747 0.31843 0.0
O290 O 0.05054 0.8295 0.31727 0.0
C291 C 0.01564 0.80942 0.34141 0.0
O292 O 0.01164 0.72937 0.33906 0.0
O293 O 0.0156 0.86332 0.33366 0.0
O294 O 0.9729 0.76453 0.32148 0.0
O295 O 0.00916 0.83116 0.30226 0.0
C296 C 1.00271 0.76745 0.29668 0.0
O297 O 0.99663 0.69836 0.3019 0.0
O298 O 0.03569 0.70124 0.31942 0.0
Mg299 Mg 0.75303 0.96811 0.31989 0.0
C300 C 0.79791 0.92241 0.32232 0.0
O301 O 0.78557 0.85375 0.32151 0.0
C302 C 0.70801 0.01029 0.3192 0.0
O303 O 0.71072 0.92783 0.31811 0.0
C304 C 0.74603 0.95167 0.34225 0.0
O305 O 0.7502 0.03131 0.33975 0.0
O306 O 0.74579 0.89694 0.33461 0.0
O307 O 0.78825 0.99454 0.32203 0.0
O308 O 0.75159 0.92491 0.30314 0.0
C309 C 0.7578 0.98793 0.29738 0.0
O310 O 0.76392 0.0579 0.30239 0.0
O311 O 0.7253 0.05668 0.32012 0.0
Mg312 Mg 1.00442 0.51926 0.06942 0.0
C313 C 0.01001 0.49666 0.04693 0.0
O314 O 0.0168 0.4283 0.0521 0.0
C315 C 0.99676 0.54 0.09166 0.0
O316 O 1.00154 0.4603 0.08948 0.0
C317 C 0.95973 0.47365 0.06845 0.0
O318 O 0.96221 0.55541 0.06661 0.0
O319 O 0.97715 0.42885 0.06994 0.0
O320 O 1.00305 0.55934 0.05254 0.0
O321 O 0.03966 0.4955 0.07189 0.0
C322 C 0.04901 0.56821 0.07213 0.0
O323 O 0.03642 0.63605 0.0711 0.0
O324 O 0.99638 0.59304 0.08383 0.0
Mg325 Mg 0.2586 0.71126 0.06942 0.0
C326 C 0.25376 0.73482 0.0469 0.0
O327 O 0.2475 0.80389 0.05206 0.0
C328 C 0.26573 0.69166 0.09174 0.0
O329 O 0.26132 0.77145 0.08942 0.0
C330 C 0.30338 0.75677 0.0687 0.0
O331 O 0.30103 0.6748 0.06698 0.0
O332 O 0.28589 0.80147 0.07002 0.0
O333 O 0.26012 0.67121 0.05253 0.0
O334 O 0.22333 0.73547 0.0717 0.0
C335 C 0.21396 0.66278 0.07177 0.0
O336 O 0.22654 0.59503 0.07063 0.0
O337 O 0.26616 0.63807 0.08396 0.0
Mg338 Mg 1.00141 0.71041 0.19279 0.0
C339 C 0.0065 0.73424 0.21523 0.0
O340 O 0.01278 0.80299 0.21 0.0
C341 C 0.99375 0.68979 0.1705 0.0
O342 O 0.99785 0.76999 0.17272 0.0
C343 C 0.9566 0.75602 0.19341 0.0
O344 O 0.95889 0.67352 0.19468 0.0
O345 O 0.97413 0.80092 0.19236 0.0
O346 O 1.00002 0.67049 0.20967 0.0
O347 O 0.03671 0.73391 0.19045 0.0
C348 C 0.046 0.66103 0.19046 0.0
O349 O 0.03335 0.59359 0.19168 0.0
O350 O 0.99371 0.63664 0.17833 0.0
Mg351 Mg 0.25601 0.53045 0.19313 0.0
C352 C 0.24967 0.50965 0.21561 0.0
O353 O 0.24254 0.44181 0.21045 0.0
C354 C 0.26402 0.54879 0.17084 0.0
O355 O 0.25958 0.46905 0.17316 0.0
C356 C 0.30079 0.48638 0.19423 0.0
O357 O 0.29816 0.56863 0.1956 0.0
O358 O 0.28347 0.44068 0.19296 0.0
O359 O 0.25711 0.57152 0.20999 0.0
O360 O 0.22077 0.50643 0.19059 0.0
C361 C 0.21145 0.57915 0.19012 0.0
O362 O 0.22405 0.64706 0.19098 0.0
O363 O 0.2641 0.60268 0.17858 0.0
Mg364 Mg 0.00751 0.45834 0.94299 0.0
C365 C 0.96278 0.41034 0.94054 0.0
O366 O 0.97531 0.34229 0.9415 0.0
C367 C 0.05236 0.50279 0.94362 0.0
O368 O 0.04994 0.42018 0.94468 0.0
C369 C 0.0147 0.44108 0.92065 0.0
O370 O 0.01026 0.52064 0.92308 0.0
O371 O 0.01509 0.38676 0.92835 0.0
O372 O 0.97222 0.4829 0.94073 0.0
O373 O 0.009 0.41639 0.9598 0.0
C374 C 1.00214 0.47897 0.96546 0.0
O375 O 0.99545 0.54772 0.96035 0.0
O376 O 0.0349 0.54836 0.94273 0.0
Mg377 Mg 0.7529 0.27334 0.94289 0.0
C378 C 0.79763 0.31934 0.94051 0.0
O379 O 0.78519 0.38757 0.94154 0.0
C380 C 0.70777 0.23185 0.94342 0.0
O381 O 0.71049 0.31445 0.94431 0.0
C382 C 0.7456 0.29137 0.92057 0.0
O383 O 0.74959 0.21143 0.92298 0.0
O384 O 0.7456 0.34566 0.92826 0.0
O385 O 0.78808 0.24696 0.94063 0.0
O386 O 0.75212 0.31513 0.9597 0.0
C387 C 0.75696 0.24951 0.96531 0.0
O388 O 0.76114 0.17821 0.96014 0.0
O389 O 0.72506 0.18525 0.94267 0.0
Mg390 Mg 0.00774 0.28425 0.81913 0.0
C391 C 0.9632 0.33279 0.82169 0.0
O392 O 0.97582 0.40042 0.8206 0.0
C393 C 0.05263 0.24115 0.81844 0.0
O394 O 0.04997 0.3236 0.81729 0.0
C395 C 0.01532 0.30248 0.84143 0.0
O396 O 0.01112 0.22266 0.83905 0.0
O397 O 0.01542 0.35662 0.83372 0.0
O398 O 0.9725 0.25995 0.82152 0.0
O399 O 0.00893 0.3251 0.80228 0.0
C400 C 1.00201 0.26215 0.79669 0.0
O401 O 0.99541 0.19371 0.80189 0.0
O402 O 0.03531 0.19499 0.81941 0.0
Mg403 Mg 0.75325 0.46476 0.81958 0.0
C404 C 0.79779 0.41535 0.82225 0.0
O405 O 0.78511 0.34772 0.82129 0.0
C406 C 0.7085 0.51022 0.81871 0.0
O407 O 0.71087 0.42784 0.81737 0.0
C408 C 0.74543 0.44628 0.84185 0.0
O409 O 0.74976 0.52609 0.83951 0.0
O410 O 0.74535 0.39231 0.83412 0.0
O411 O 0.78853 0.48824 0.82197 0.0
O412 O 0.75192 0.42417 0.80272 0.0
C413 C 0.75883 0.48719 0.79715 0.0
O414 O 0.76548 0.55551 0.80236 0.0
O415 O 0.72597 0.55527 0.81988 0.0
H416 H 0.49147 0.20675 0.10112 0.0
H417 H 0.49526 0.03083 0.16236 0.0
H418 H 0.5024 0.94371 0.1096 0.0
H419 H 0.48715 0.29554 0.15401 0.0
H420 H 0.49463 0.99563 0.14295 0.0
H421 H 0.48694 0.23954 0.12048 0.0
C422 C 0.49286 0.15602 0.10703 0.0
C423 C 0.49749 0.07263 0.10374 0.0
C424 C 0.49285 0.06137 0.14539 0.0
C425 C 0.49227 0.10925 0.12583 0.0
C426 C 0.49313 0.0813 0.15646 0.0
C427 C 0.49147 0.16618 0.1598 0.0
C428 C 0.49087 0.12685 0.13764 0.0
C429 C 0.48873 0.22921 0.15181 0.0
C430 C 0.49026 0.1746 0.11807 0.0
C431 C 0.49902 0.00915 0.11174 0.0
N432 N 0.48865 0.20836 0.14113 0.0
N433 N 0.49649 0.0288 0.12239 0.0
H434 H 0.76474 0.20879 0.16198 0.0
H435 H 0.76642 0.03254 0.10074 0.0
H436 H 0.76744 0.94242 0.15369 0.0
H437 H 0.76091 0.29801 0.10919 0.0
H438 H 0.7696 0.99823 0.12013 0.0
H439 H 0.76638 0.24361 0.14258 0.0
C440 C 0.76586 0.15779 0.1561 0.0
C441 C 0.76575 0.0727 0.15945 0.0
C442 C 0.76777 0.06401 0.11771 0.0
C443 C 0.76753 0.11165 0.13729 0.0
C444 C 0.76595 0.08347 0.10665 0.0
C445 C 0.76322 0.16806 0.10333 0.0
C446 C 0.76689 0.12969 0.12547 0.0
C447 C 0.7628 0.23171 0.11135 0.0
C448 C 0.76673 0.17753 0.14503 0.0
C449 C 0.76725 0.00901 0.15148 0.0
N450 N 0.76454 0.21122 0.12201 0.0
N451 N 0.76796 0.02974 0.14079 0.0
H452 H 0.51979 0.95812 0.85104 0.0
H453 H 0.51746 0.78078 0.91217 0.0
H454 H 0.51698 0.69172 0.85934 0.0
H455 H 0.52136 0.04707 0.90392 0.0
H456 H 0.52004 0.746 0.89279 0.0
H457 H 0.52306 0.99203 0.87043 0.0
C458 C 0.52001 0.90689 0.85692 0.0
C459 C 0.51791 0.82216 0.85357 0.0
C460 C 0.52048 0.81203 0.89525 0.0
C461 C 0.52157 0.86009 0.8757 0.0
C462 C 0.51905 0.83175 0.90631 0.0
C463 C 0.51898 0.91683 0.90966 0.0
C464 C 0.52182 0.87793 0.88753 0.0
C465 C 0.52111 0.9805 0.90172 0.0
C466 C 0.52185 0.92612 0.86798 0.0
C467 C 0.51834 0.75812 0.86154 0.0
N468 N 0.5223 0.9598 0.89104 0.0
N469 N 0.52 0.77841 0.87221 0.0
H470 H 0.24059 0.05867 0.8587 0.0
H471 H 0.2396 0.69246 0.9035 0.0
H472 H 0.24215 0.79118 0.85094 0.0
H473 H 0.24197 0.95986 0.91126 0.0
H474 H 0.23704 0.72772 0.88433 0.0
H475 H 0.23761 0.02353 0.87786 0.0
C476 C 0.24021 0.99227 0.86101 0.0
C477 C 0.24183 0.92763 0.85318 0.0
C478 C 0.238 0.77882 0.8902 0.0
C479 C 0.23843 0.88707 0.87524 0.0
C480 C 0.23948 0.75887 0.90119 0.0
C481 C 0.24121 0.82344 0.90903 0.0
C482 C 0.23829 0.86412 0.88694 0.0
C483 C 0.24074 0.90811 0.9055 0.0
C484 C 0.23849 0.97238 0.87199 0.0
C485 C 0.24102 0.84298 0.8567 0.0
N486 N 0.23947 0.92602 0.89469 0.0
N487 N 0.23952 0.82513 0.8675 0.0
H488 H 0.49119 0.71438 0.60116 0.0
H489 H 0.49294 0.53626 0.66227 0.0
H490 H 0.49366 0.44779 0.6094 0.0
H491 H 0.48954 0.8027 0.65404 0.0
H492 H 0.49044 0.50169 0.64287 0.0
H493 H 0.48791 0.74806 0.62055 0.0
C494 C 0.4909 0.66306 0.60702 0.0
C495 C 0.4929 0.57834 0.60366 0.0
C496 C 0.4901 0.56771 0.64534 0.0
C497 C 0.48922 0.61601 0.6258 0.0
C498 C 0.49147 0.58731 0.65641 0.0
C499 C 0.49166 0.67237 0.65977 0.0
C500 C 0.48892 0.63371 0.63763 0.0
C501 C 0.4897 0.73614 0.65183 0.0
C502 C 0.48905 0.68216 0.61808 0.0
C503 C 0.49237 0.51419 0.61161 0.0
N504 N 0.48855 0.71555 0.64115 0.0
N505 N 0.49071 0.53435 0.62228 0.0
H506 H 0.77047 0.44229 0.65391 0.0
H507 H 0.77053 0.81009 0.60933 0.0
H508 H 0.76847 0.70943 0.66183 0.0
H509 H 0.76865 0.54287 0.60144 0.0
H510 H 0.77336 0.77429 0.62848 0.0
H511 H 0.7734 0.47825 0.63477 0.0
C512 C 0.77075 0.50878 0.65163 0.0
C513 C 0.769 0.57309 0.65951 0.0
C514 C 0.77245 0.72336 0.62259 0.0
C515 C 0.77235 0.61458 0.63747 0.0
C516 C 0.77082 0.74363 0.61161 0.0
C517 C 0.76914 0.67924 0.60374 0.0
C518 C 0.77237 0.63794 0.62579 0.0
C519 C 0.76982 0.59447 0.60722 0.0
C520 C 0.77244 0.52914 0.64067 0.0
C521 C 0.76969 0.65789 0.65604 0.0
N522 N 0.77124 0.57626 0.61801 0.0
N523 N 0.77116 0.67621 0.64526 0.0
H524 H 0.51833 0.28816 0.41223 0.0
H525 H 0.51829 0.46405 0.351 0.0
H526 H 0.51862 0.55461 0.40384 0.0
H527 H 0.51846 0.19767 0.35943 0.0
H528 H 0.52118 0.499 0.37037 0.0
H529 H 0.52114 0.25333 0.39286 0.0
C530 C 0.51915 0.3392 0.40634 0.0
C531 C 0.51804 0.42426 0.40965 0.0
C532 C 0.52071 0.43289 0.36795 0.0
C533 C 0.52117 0.38528 0.38753 0.0
C534 C 0.5191 0.41306 0.3569 0.0
C535 C 0.51793 0.32798 0.35359 0.0
C536 C 0.52114 0.36708 0.37571 0.0
C537 C 0.51909 0.26429 0.36159 0.0
C538 C 0.52072 0.31944 0.39528 0.0
C539 C 0.51921 0.48801 0.40167 0.0
N540 N 0.5205 0.28512 0.37225 0.0
N541 N 0.52058 0.46723 0.391 0.0
H542 H 0.23976 0.55736 0.35882 0.0
H543 H 0.23996 0.19143 0.40366 0.0
H544 H 0.24174 0.28984 0.3511 0.0
H545 H 0.24194 0.45892 0.41139 0.0
H546 H 0.23699 0.22654 0.38449 0.0
H547 H 0.23693 0.52231 0.37799 0.0
C548 C 0.23949 0.49097 0.36115 0.0
C549 C 0.24121 0.4263 0.35332 0.0
C550 C 0.23795 0.27769 0.39036 0.0
C551 C 0.23798 0.38585 0.3754 0.0
C552 C 0.23967 0.25783 0.40134 0.0
C553 C 0.24142 0.32248 0.40917 0.0
C554 C 0.23803 0.36299 0.3871 0.0
C555 C 0.24071 0.40712 0.40564 0.0
C556 C 0.23786 0.47114 0.37213 0.0
C557 C 0.24054 0.34166 0.35685 0.0
N558 N 0.23922 0.42495 0.39484 0.0
N559 N 0.23913 0.32387 0.36766 0.0
H560 H 0.99135 0.94129 0.6088 0.0
H561 H 0.99022 0.30859 0.65341 0.0
H562 H 0.99244 0.20864 0.60092 0.0
H563 H 0.99287 0.04142 0.6613 0.0
H564 H 0.98745 0.27278 0.63426 0.0
H565 H 0.98836 0.97681 0.62795 0.0
C566 C 0.99086 0.00773 0.61108 0.0
C567 C 0.99235 0.07224 0.60322 0.0
C568 C 0.98852 0.22185 0.64016 0.0
C569 C 0.98894 0.11322 0.62527 0.0
C570 C 0.99012 0.24212 0.65113 0.0
C571 C 0.992 0.17777 0.659 0.0
C572 C 0.98885 0.13646 0.63695 0.0
C573 C 0.99153 0.09299 0.65552 0.0
C574 C 0.98913 0.02784 0.62206 0.0
C575 C 0.99141 0.15695 0.6067 0.0
N576 N 0.99016 0.07478 0.64473 0.0
N577 N 0.98991 0.17501 0.61749 0.0
H578 H 0.27166 0.30765 0.60883 0.0
H579 H 0.26823 0.93977 0.65338 0.0
H580 H 0.26758 0.0409 0.60089 0.0
H581 H 0.26885 0.20697 0.66133 0.0
H582 H 0.2713 0.9754 0.63424 0.0
H583 H 0.27404 0.27133 0.62799 0.0
C584 C 0.27137 0.24116 0.61111 0.0
C585 C 0.26921 0.17711 0.60322 0.0
C586 C 0.27087 0.02637 0.64015 0.0
C587 C 0.2719 0.1352 0.62527 0.0
C588 C 0.2691 0.0062 0.65112 0.0
C589 C 0.26809 0.07065 0.659 0.0
C590 C 0.27161 0.11177 0.63696 0.0
C591 C 0.2695 0.15532 0.65554 0.0
C592 C 0.27274 0.22059 0.62208 0.0
C593 C 0.26916 0.09226 0.60669 0.0
N594 N 0.27105 0.17347 0.64475 0.0
N595 N 0.27032 0.07378 0.61748 0.0
H596 H 0.01827 0.96972 0.35043 0.0
H597 H 0.01926 0.79085 0.41152 0.0
H598 H 0.02048 0.70305 0.35863 0.0
H599 H 0.01769 0.05764 0.40334 0.0
H600 H 0.02243 0.75728 0.39212 0.0
H601 H 0.02082 0.00398 0.36983 0.0
C602 C 0.01947 0.91854 0.35628 0.0
C603 C 0.01895 0.83353 0.3529 0.0
C604 C 0.02151 0.8232 0.3946 0.0
C605 C 0.02177 0.87185 0.37506 0.0
C606 C 0.01974 0.84224 0.40567 0.0
C607 C 0.01802 0.927 0.40905 0.0
C608 C 0.02155 0.88945 0.3869 0.0
C609 C 0.01876 0.99123 0.40111 0.0
C610 C 0.02088 0.93797 0.36735 0.0
C611 C 0.02058 0.7696 0.36085 0.0
N612 N 0.02035 0.97113 0.39043 0.0
N613 N 0.02178 0.79003 0.37153 0.0
H614 H 0.73977 0.6938 0.40409 0.0
H615 H 0.74208 0.0601 0.35931 0.0
H616 H 0.74301 0.96103 0.41186 0.0
H617 H 0.74229 0.79256 0.35154 0.0
H618 H 0.73909 0.02509 0.37848 0.0
H619 H 0.7373 0.72929 0.38491 0.0
C620 C 0.73986 0.76022 0.40177 0.0
C621 C 0.74181 0.82467 0.40961 0.0
C622 C 0.73968 0.97392 0.37261 0.0
C623 C 0.739 0.86561 0.38754 0.0
C624 C 0.74141 0.99373 0.36163 0.0
C625 C 0.74264 0.929 0.35378 0.0
C626 C 0.73922 0.88861 0.37585 0.0
C627 C 0.74148 0.84441 0.3573 0.0
C628 C 0.73843 0.78031 0.39078 0.0
C629 C 0.7416 0.90938 0.4061 0.0
N630 N 0.73997 0.82663 0.3681 0.0
N631 N 0.74039 0.92741 0.3953 0.0
H632 H 0.99113 0.52861 0.16176 0.0
H633 H 0.99168 0.70056 0.10036 0.0
H634 H 0.98916 0.79438 0.15309 0.0
H635 H 0.99303 0.43478 0.10906 0.0
H636 H 0.9879 0.73641 0.11966 0.0
H637 H 0.98892 0.49226 0.14241 0.0
C638 C 0.99004 0.57916 0.15581 0.0
C639 C 0.99054 0.66452 0.15904 0.0
C640 C 0.9889 0.67022 0.11732 0.0
C641 C 0.98813 0.62382 0.13694 0.0
C642 C 0.99102 0.64987 0.1063 0.0
C643 C 0.99288 0.56473 0.10309 0.0
C644 C 0.98864 0.60488 0.12514 0.0
C645 C 0.99188 0.50145 0.11115 0.0
C646 C 0.98883 0.55854 0.14477 0.0
C647 C 0.98906 0.7276 0.15098 0.0
N648 N 0.98996 0.5228 0.12177 0.0
N649 N 0.98806 0.70602 0.14033 0.0
H650 H 0.26817 0.70881 0.16187 0.0
H651 H 0.26917 0.53134 0.10072 0.0
H652 H 0.2683 0.44216 0.15362 0.0
H653 H 0.2697 0.79792 0.10901 0.0
H654 H 0.27167 0.49683 0.12013 0.0
H655 H 0.27153 0.74307 0.1425 0.0
C656 C 0.26908 0.65761 0.15601 0.0
C657 C 0.26775 0.57266 0.15936 0.0
C658 C 0.27137 0.56289 0.11767 0.0
C659 C 0.2715 0.61099 0.13724 0.0
C660 C 0.26999 0.58246 0.1066 0.0
C661 C 0.26901 0.66749 0.10324 0.0
C662 C 0.27177 0.62887 0.1254 0.0
C663 C 0.27017 0.73134 0.11121 0.0
C664 C 0.27096 0.67704 0.14495 0.0
C665 C 0.26903 0.50869 0.15141 0.0
N666 N 0.27135 0.71075 0.12189 0.0
N667 N 0.27071 0.52915 0.14075 0.0
H668 H 0.01843 0.46238 0.85053 0.0
H669 H 0.01906 0.28169 0.91154 0.0
H670 H 0.01985 0.19539 0.8586 0.0
H671 H 0.01815 0.54874 0.90348 0.0
H672 H 0.02212 0.24855 0.89212 0.0
H673 H 0.02112 0.49595 0.86995 0.0
C674 C 0.01948 0.41098 0.85636 0.0
C675 C 0.01871 0.32611 0.85294 0.0
C676 C 0.02138 0.31442 0.89463 0.0
C677 C 0.02169 0.36363 0.87512 0.0
C678 C 0.01967 0.33322 0.90571 0.0
C679 C 0.01815 0.41794 0.90913 0.0
C680 C 0.02156 0.38088 0.88696 0.0
C681 C 0.01905 0.48235 0.90123 0.0
C682 C 0.02098 0.43001 0.86744 0.0
C683 C 0.02017 0.26186 0.86085 0.0
N684 N 0.02057 0.4625 0.89054 0.0
N685 N 0.02145 0.28192 0.87154 0.0
H686 H 0.74115 0.18413 0.90341 0.0
H687 H 0.74022 0.55311 0.85898 0.0
H688 H 0.74234 0.45118 0.91142 0.0
H689 H 0.74267 0.28622 0.85095 0.0
H690 H 0.73749 0.51661 0.87812 0.0
H691 H 0.73825 0.22039 0.88427 0.0
C692 C 0.74071 0.25066 0.90115 0.0
C693 C 0.74219 0.31487 0.90905 0.0
C694 C 0.7385 0.46588 0.8722 0.0
C695 C 0.73888 0.3567 0.88703 0.0
C696 C 0.74008 0.48655 0.86123 0.0
C697 C 0.74189 0.42248 0.85333 0.0
C698 C 0.73879 0.38037 0.87536 0.0
C699 C 0.74138 0.33758 0.85676 0.0
C700 C 0.73904 0.27119 0.89019 0.0
C701 C 0.74132 0.39971 0.90562 0.0
N702 N 0.74003 0.31897 0.86755 0.0
N703 N 0.73986 0.41819 0.89483 0.0
H704 H 0.31612 0.92259 0.0725 0.0
H705 H 0.44665 0.81404 0.07004 0.0
H706 H 0.34245 0.67137 0.06669 0.0
H707 H 0.42023 0.06722 0.07409 0.0
H708 H 0.40848 0.75881 0.0698 0.0
H709 H 0.35431 0.97635 0.07391 0.0
C710 C 0.32989 0.87889 0.07151 0.0
C711 C 0.32607 0.79254 0.06945 0.0
C712 C 0.4111 0.82645 0.07077 0.0
C713 C 0.3697 0.85309 0.07109 0.0
C714 C 0.43287 0.85781 0.07094 0.0
C715 C 0.43664 0.94528 0.07201 0.0
C716 C 0.39305 0.88307 0.0717 0.0
C717 C 0.41815 -0.00072 0.07316 0.0
C718 C 0.35167 0.90942 0.07233 0.0
C719 C 0.34455 0.73856 0.06826 0.0
N720 N 0.39722 0.96739 0.07294 0.0
N721 N 0.36551 0.76967 0.0691 0.0
H722 H 0.81645 0.42264 0.06988 0.0
H723 H 0.94663 0.30849 0.07252 0.0
H724 H 0.8419 0.16812 0.07407 0.0
H725 H 0.92086 0.55983 0.06616 0.0
H726 H 0.90829 0.25614 0.07397 0.0
H727 H 0.85478 0.47571 0.06958 0.0
C728 C 0.83005 0.37811 0.07081 0.0
C729 C 0.82596 0.29091 0.07194 0.0
C730 C 0.9111 0.32277 0.07226 0.0
C731 C 0.86977 0.35068 0.07155 0.0
C732 C 0.93296 0.3525 0.07142 0.0
C733 C 0.93698 0.43849 0.06919 0.0
C734 C 0.89321 0.37959 0.0709 0.0
C735 C 0.91862 0.4929 0.06786 0.0
C736 C 0.85193 0.40824 0.0706 0.0
C737 C 0.84424 0.2359 0.0731 0.0
N738 N 0.8976 0.46259 0.06874 0.0
N739 N 0.8653 0.26662 0.07285 0.0
H740 H 0.41757 0.16538 0.19312 0.0
H741 H 0.33953 0.57474 0.19552 0.0
H742 H 0.44278 0.42225 0.19357 0.0
H743 H 0.31425 0.31922 0.19221 0.0
H744 H 0.37725 0.51977 0.19501 0.0
H745 H 0.37982 0.22044 0.19292 0.0
C746 C 0.41519 0.23362 0.19318 0.0
C747 C 0.43344 0.2894 0.19341 0.0
C748 C 0.36351 0.47556 0.19438 0.0
C749 C 0.38998 0.35286 0.19318 0.0
C750 C 0.34188 0.5068 0.19469 0.0
C751 C 0.32361 0.45137 0.19393 0.0
C752 C 0.36707 0.38799 0.19334 0.0
C753 C 0.32781 0.36417 0.19284 0.0
C754 C 0.39355 0.26492 0.19304 0.0
C755 C 0.42923 0.377 0.19341 0.0
N756 N 0.34914 0.33511 0.1926 0.0
N757 N 0.40791 0.40607 0.19333 0.0
H758 H 0.81336 0.81575 0.19267 0.0
H759 H 0.94396 0.92438 0.19208 0.0
H760 H 0.83992 0.07052 0.19383 0.0
H761 H 0.91748 0.66976 0.19394 0.0
H762 H 0.9058 0.97961 0.19177 0.0
H763 H 0.85151 0.76044 0.19219 0.0
C764 C 0.82717 0.85993 0.19281 0.0
C765 C 0.82342 0.94774 0.19333 0.0
C766 C 0.9084 0.91162 0.19225 0.0
C767 C 0.86701 0.88537 0.19277 0.0
C768 C 0.93017 0.88022 0.19241 0.0
C769 C 0.93394 0.79249 0.19308 0.0
C770 C 0.89034 0.85475 0.19271 0.0
C771 C 0.91542 0.738 0.19347 0.0
C772 C 0.84893 0.82848 0.19255 0.0
C773 C 0.84196 0.00223 0.19348 0.0
N774 N 0.89448 0.76997 0.19328 0.0
N775 N 0.86288 0.97022 0.1932 0.0
H776 H 0.66914 0.32132 0.94268 0.0
H777 H 0.59072 0.91378 0.94652 0.0
H778 H 0.69416 0.06423 0.94374 0.0
H779 H 0.56572 0.16895 0.9423 0.0
H780 H 0.62851 0.96804 0.94587 0.0
H781 H 0.63134 0.26679 0.9428 0.0
C782 C 0.66671 0.25315 0.94294 0.0
C783 C 0.68492 0.19716 0.94324 0.0
C784 C 0.61481 0.0123 0.94507 0.0
C785 C 0.6414 0.13429 0.94339 0.0
C786 C 0.59314 0.98148 0.94547 0.0
C787 C 0.57494 0.03702 0.94448 0.0
C788 C 0.61847 0.09956 0.94372 0.0
C789 C 0.57923 0.12391 0.94311 0.0
C790 C 0.64504 0.22214 0.94299 0.0
C791 C 0.68064 0.10963 0.9435 0.0
N792 N 0.60058 0.15256 0.94278 0.0
N793 N 0.65929 0.08085 0.94361 0.0
H794 H 0.16836 0.82748 0.94468 0.0
H795 H 0.0913 0.41516 0.94355 0.0
H796 H 0.19417 0.57202 0.94237 0.0
H797 H 0.06539 0.67108 0.94301 0.0
H798 H 0.12889 0.47155 0.94333 0.0
H799 H 0.13074 0.77131 0.94432 0.0
C800 C 0.16615 0.75932 0.9441 0.0
C801 C 0.18453 0.70425 0.94358 0.0
C802 C 0.11504 0.51554 0.94324 0.0
C803 C 0.1412 0.63951 0.94316 0.0
C804 C 0.09349 0.48347 0.94339 0.0
C805 C 0.07509 0.53859 0.94334 0.0
C806 C 0.11839 0.60361 0.94309 0.0
C807 C 0.07906 0.62633 0.94307 0.0
C808 C 0.14458 0.72739 0.94387 0.0
C809 C 0.18052 0.61673 0.9428 0.0
N810 N 0.10032 0.65617 0.94299 0.0
N811 N 0.15925 0.58702 0.94264 0.0
H812 H 0.56521 0.56674 0.81997 0.0
H813 H 0.69565 0.67801 0.82061 0.0
H814 H 0.59137 0.82225 0.81956 0.0
H815 H 0.66948 0.42343 0.8178 0.0
H816 H 0.65742 0.73236 0.82119 0.0
H817 H 0.60345 0.51221 0.82017 0.0
C818 C 0.57894 0.61123 0.81994 0.0
C819 C 0.57507 0.69903 0.8197 0.0
C820 C 0.6601 0.66458 0.82044 0.0
C821 C 0.61874 0.63757 0.81995 0.0
C822 C 0.68192 0.63368 0.82011 0.0
C823 C 0.68579 0.54622 0.81911 0.0
C824 C 0.64212 0.60747 0.81981 0.0
C825 C 0.66734 0.49148 0.81853 0.0
C826 C 0.60076 0.58024 0.82004 0.0
C827 C 0.59351 0.75396 0.81969 0.0
N828 N 0.64637 0.52296 0.81889 0.0
N829 N 0.61449 0.72238 0.8198 0.0
H830 H 0.09131 0.33035 0.81842 0.0
H831 H 0.16952 0.92112 0.81749 0.0
H832 H 0.06615 0.07344 0.81919 0.0
H833 H 0.19463 0.17756 0.81977 0.0
H834 H 0.13175 0.97584 0.81784 0.0
H835 H 0.12906 0.27548 0.81867 0.0
C836 C 0.09369 0.26214 0.81864 0.0
C837 C 0.07546 0.20628 0.81874 0.0
C838 C 0.14547 0.02029 0.81828 0.0
C839 C 0.11894 0.14304 0.81904 0.0
C840 C 0.16712 0.9892 0.81806 0.0
C841 C 0.18535 0.04497 0.81857 0.0
C842 C 0.14185 0.10804 0.81898 0.0
C843 C 0.1811 0.13234 0.81934 0.0
C844 C 0.11534 0.23095 0.81881 0.0
C845 C 0.07969 0.11873 0.81909 0.0
N846 N 0.15976 0.16124 0.8195 0.0
N847 N 0.10102 0.08975 0.81919 0.0
H848 H 0.41947 0.58314 0.56989 0.0
H849 H 0.34151 0.17384 0.56721 0.0
H850 H 0.44477 0.32633 0.5695 0.0
H851 H 0.31624 0.42946 0.57045 0.0
H852 H 0.37924 0.2287 0.56781 0.0
H853 H 0.38175 0.52801 0.56994 0.0
C854 C 0.41712 0.5149 0.56982 0.0
C855 C 0.43538 0.45915 0.56965 0.0
C856 C 0.3655 0.27294 0.56841 0.0
C857 C 0.39195 0.3956 0.56969 0.0
C858 C 0.34386 0.24176 0.56804 0.0
C859 C 0.3256 0.29727 0.56876 0.0
C860 C 0.36905 0.3605 0.56946 0.0
C861 C 0.3298 0.38445 0.56986 0.0
C862 C 0.39549 0.48355 0.56986 0.0
C863 C 0.43121 0.37154 0.56962 0.0
N864 N 0.35112 0.41344 0.57016 0.0
N865 N 0.40989 0.34242 0.5696 0.0
H866 H 0.81555 0.93173 0.5699 0.0
H867 H 0.94594 0.81945 0.56991 0.0
H868 H 0.84159 0.67615 0.56863 0.0
H869 H 0.91984 0.07463 0.56781 0.0
H870 H 0.90769 0.76525 0.57034 0.0
H871 H 0.85381 0.98592 0.57005 0.0
C872 C 0.82927 0.88715 0.56966 0.0
C873 C 0.82535 0.79944 0.56921 0.0
C874 C 0.91039 0.83314 0.56979 0.0
C875 C 0.86905 0.86052 0.56941 0.0
C876 C 0.93221 0.86395 0.56954 0.0
C877 C 0.93611 0.95154 0.56878 0.0
C878 C 0.89242 0.89046 0.56931 0.0
C879 C 0.91768 0.00648 0.56835 0.0
C880 C 0.85109 0.91795 0.56974 0.0
C881 C 0.84376 0.74438 0.56893 0.0
N882 N 0.8967 0.97508 0.56863 0.0
N883 N 0.86476 0.77578 0.56904 0.0
H884 H 0.41975 0.66947 0.69613 0.0
H885 H 0.34128 0.07711 0.69265 0.0
H886 H 0.44468 0.92502 0.69228 0.0
H887 H 0.31629 0.81997 0.69349 0.0
H888 H 0.37907 0.02258 0.6927 0.0
H889 H 0.38195 0.72364 0.69544 0.0
C890 C 0.41731 0.73723 0.69515 0.0
C891 C 0.4355 0.79293 0.69429 0.0
C892 C 0.36537 0.97792 0.69285 0.0
C893 C 0.39196 0.85535 0.69348 0.0
C894 C 0.34371 0.00892 0.69284 0.0
C895 C 0.32551 0.95291 0.69311 0.0
C896 C 0.36903 0.89005 0.69318 0.0
C897 C 0.3298 0.86537 0.69329 0.0
C898 C 0.39563 0.768 0.69473 0.0
C899 C 0.43119 0.87988 0.693 0.0
N900 N 0.35115 0.83659 0.69336 0.0
N901 N 0.40983 0.90848 0.69265 0.0
H902 H 0.81538 0.31888 0.69262 0.0
H903 H 0.94573 0.43151 0.69268 0.0
H904 H 0.84137 0.57412 0.69479 0.0
H905 H 0.91975 0.1759 0.69398 0.0
H906 H 0.90745 0.48563 0.69247 0.0
H907 H 0.85365 0.26485 0.69215 0.0
C908 C 0.82908 0.36342 0.69299 0.0
C909 C 0.82515 0.45098 0.69379 0.0
C910 C 0.91019 0.41767 0.6928 0.0
C911 C 0.86886 0.39009 0.69321 0.0
C912 C 0.93202 0.3869 0.69291 0.0
C913 C 0.93596 0.29921 0.69339 0.0
C914 C 0.89225 0.36021 0.69313 0.0
C915 C 0.91756 0.24412 0.69365 0.0
C916 C 0.85092 0.33271 0.69273 0.0
C917 C 0.84356 0.50599 0.69422 0.0
N918 N 0.89656 0.27549 0.69352 0.0
N919 N 0.86455 0.47468 0.69393 0.0
H920 H 0.59109 0.42103 0.44417 0.0
H921 H 0.66913 0.83057 0.44493 0.0
H922 H 0.56584 0.67786 0.44326 0.0
H923 H 0.69435 0.57408 0.44298 0.0
H924 H 0.63139 0.7757 0.44454 0.0
H925 H 0.62882 0.47597 0.44393 0.0
C926 C 0.59345 0.48923 0.44392 0.0
C927 C 0.5752 0.54505 0.44377 0.0
C928 C 0.64513 0.73127 0.44418 0.0
C929 C 0.61865 0.60839 0.4435 0.0
C930 C 0.66677 0.76246 0.44443 0.0
C931 C 0.68501 0.70671 0.44402 0.0
C932 C 0.64155 0.64346 0.44357 0.0
C933 C 0.68081 0.61928 0.44333 0.0
C934 C 0.61509 0.52047 0.44377 0.0
C935 C 0.5794 0.6326 0.4434 0.0
N936 N 0.65948 0.59029 0.44315 0.0
N937 N 0.60072 0.66163 0.44331 0.0
H938 H 0.06494 0.18083 0.44277 0.0
H939 H 0.19539 0.06963 0.44244 0.0
H940 H 0.09116 0.92543 0.44379 0.0
H941 H 0.1692 0.32453 0.44474 0.0
H942 H 0.15717 0.01518 0.44202 0.0
H943 H 0.10317 0.23538 0.44256 0.0
C944 C 0.07869 0.13636 0.44294 0.0
C945 C 0.07483 0.0486 0.44334 0.0
C946 C 0.15984 0.08306 0.44262 0.0
C947 C 0.11849 0.1101 0.44308 0.0
C948 C 0.18165 0.11401 0.44285 0.0
C949 C 0.18552 0.20159 0.44366 0.0
C950 C 0.14185 0.14023 0.44315 0.0
C951 C 0.16706 0.25639 0.44415 0.0
C952 C 0.10049 0.16738 0.44283 0.0
C953 C 0.09329 0.9937 0.44353 0.0
N954 N 0.14609 0.22485 0.44389 0.0
N955 N 0.11426 0.02531 0.44339 0.0
H956 H 0.66934 0.92091 0.31882 0.0
H957 H 0.59103 0.32999 0.31925 0.0
H958 H 0.69441 0.17774 0.32036 0.0
H959 H 0.56593 0.07306 0.32033 0.0
H960 H 0.6288 0.27529 0.31954 0.0
H961 H 0.63156 0.97551 0.31924 0.0
C962 C 0.66693 0.98904 0.31924 0.0
C963 C 0.68515 0.04496 0.31953 0.0
C964 C 0.61509 0.23072 0.31973 0.0
C965 C 0.64164 0.10791 0.32 0.0
C966 C 0.59343 0.26181 0.31955 0.0
C967 C 0.5752 0.2059 0.31972 0.0
C968 C 0.61871 0.14283 0.32006 0.0
C969 C 0.57946 0.11839 0.32017 0.0
C970 C 0.64527 0.02008 0.3195 0.0
C971 C 0.68089 0.1324 0.32011 0.0
N972 N 0.60081 0.0895 0.32028 0.0
N973 N 0.65954 0.16123 0.3203 0.0
H974 H 0.16917 0.42291 0.31781 0.0
H975 H 0.09197 0.83502 0.31816 0.0
H976 H 0.195 0.67853 0.31966 0.0
H977 H 0.06625 0.57903 0.31939 0.0
H978 H 0.12961 0.77893 0.31844 0.0
H979 H 0.13157 0.47914 0.3181 0.0
C980 C 0.16697 0.49113 0.31827 0.0
C981 C 0.18535 0.54621 0.31868 0.0
C982 C 0.11579 0.73488 0.31867 0.0
C983 C 0.14203 0.61105 0.31902 0.0
C984 C 0.09421 0.76677 0.31849 0.0
C985 C 0.07585 0.71152 0.31872 0.0
C986 C 0.11919 0.64688 0.31904 0.0
C987 C 0.07989 0.62387 0.31919 0.0
C988 C 0.1454 0.52309 0.31846 0.0
C989 C 0.18134 0.63381 0.31932 0.0
N990 N 0.10116 0.59422 0.31931 0.0
N991 N 0.16008 0.66358 0.31944 0.0
H992 H 0.49131 0.1303 0.03333 0.0
H993 H 0.51241 0.85042 0.97973 0.0
H994 H 0.51165 0.86714 0.03386 0.0
H995 H 0.4889 0.1097 0.97922 0.0
H996 H 0.51212 0.85486 0.99964 0.0
H997 H 0.49026 0.12427 0.01343 0.0
C998 C 0.49551 0.07139 0.02928 0.0
C999 C 0.50158 -0.00071 0.03528 0.0
C1000 C 0.50698 0.91067 0.99515 0.0
C1001 C 0.50048 0.99173 0.01256 0.0
C1002 C 0.50713 0.90802 0.98379 0.0
C1003 C 0.50072 0.97971 0.97779 0.0
C1004 C 0.50041 0.98558 1.00052 0.0
C1005 C 0.49404 0.05282 0.98349 0.0
C1006 C 0.49492 0.06785 0.01792 0.0
C1007 C 0.50688 0.92448 0.02959 0.0
N1008 N 0.49411 0.05391 0.9945 0.0
N1009 N 0.50624 0.92272 0.01858 0.0
H1010 H 0.75515 0.38196 0.03356 0.0
H1011 H 0.76563 0.11561 0.97864 0.0
H1012 H 0.7665 0.11109 0.03275 0.0
H1013 H 0.75037 0.38368 0.97943 0.0
H1014 H 0.7671 0.114 0.99835 0.0
H1015 H 0.7546 0.38443 0.01382 0.0
C1016 C 0.75759 0.32277 0.02924 0.0
C1017 C 0.76085 0.24598 0.03486 0.0
C1018 C 0.76343 0.17326 0.99425 0.0
C1019 C 0.7602 0.24873 0.01212 0.0
C1020 C 0.76259 0.17443 0.98295 0.0
C1021 C 0.75785 0.25009 0.97733 0.0
C1022 C 0.75955 0.24832 1.00006 0.0
C1023 C 0.75406 0.32399 0.98341 0.0
C1024 C 0.75724 0.32441 0.01793 0.0
C1025 C 0.76395 0.17165 0.02877 0.0
N1026 N 0.755 0.32124 0.99446 0.0
N1027 N 0.76352 0.17488 0.01772 0.0
H1028 H 0.51865 0.36794 0.22905 0.0
H1029 H 0.48987 0.12779 0.28439 0.0
H1030 H 0.49297 0.11191 0.23031 0.0
H1031 H 0.51568 0.38363 0.28312 0.0
H1032 H 0.49077 0.12138 0.26468 0.0
H1033 H 0.51775 0.37432 0.24876 0.0
C1034 C 0.51285 0.31273 0.23347 0.0
C1035 C 0.50584 0.2391 0.22798 0.0
C1036 C 0.49621 0.17902 0.26868 0.0
C1037 C 0.50475 0.24644 0.25069 0.0
C1038 C 0.4957 0.18295 0.27997 0.0
C1039 C 0.50275 0.25654 0.28545 0.0
C1040 C 0.50383 0.24915 0.26274 0.0
C1041 C 0.51008 0.32572 0.27924 0.0
C1042 C 0.51234 0.31664 0.24476 0.0
C1043 C 0.49854 0.16985 0.23419 0.0
N1044 N 0.51046 0.32028 0.26821 0.0
N1045 N 0.49816 0.17528 0.24523 0.0
H1046 H 0.76684 0.13484 0.22966 0.0
H1047 H 0.74294 0.86163 0.2836 0.0
H1048 H 0.73821 0.88324 0.22952 0.0
H1049 H 0.77169 0.11303 0.28373 0.0
H1050 H 0.74133 0.86757 0.2637 0.0
H1051 H 0.76865 0.12852 0.24956 0.0
C1052 C 0.76087 0.07856 0.2338 0.0
C1053 C 0.75239 0.00957 0.22791 0.0
C1054 C 0.74802 0.92133 0.26811 0.0
C1055 C 0.75449 0.0015 0.25062 0.0
C1056 C 0.74899 0.91776 0.27946 0.0
C1057 C 0.75741 0.98685 0.28535 0.0
C1058 C 0.75553 0.99451 0.26264 0.0
C1059 C 0.76499 0.0582 0.27955 0.0
C1060 C 0.76195 0.07478 0.24515 0.0
C1061 C 0.74493 0.93803 0.2337 0.0
N1062 N 0.76384 0.0602 0.26855 0.0
N1063 N 0.74617 0.93584 0.2447 0.0
H1064 H 0.24276 0.88719 0.9794 0.0
H1065 H 0.26867 0.61047 0.03287 0.0
H1066 H 0.27223 0.637 0.97882 0.0
H1067 H 0.2396 0.86133 0.03351 0.0
H1068 H 0.26994 0.61849 0.01298 0.0
H1069 H 0.24166 0.87967 0.9993 0.0
C1070 C 0.24907 0.831 0.98344 0.0
C1071 C 0.25755 0.7627 0.97742 0.0
C1072 C 0.26326 0.6717 0.01749 0.0
C1073 C 0.25625 0.75324 1.00014 0.0
C1074 C 0.26249 0.66694 0.02884 0.0
C1075 C 0.25405 0.73523 0.03487 0.0
C1076 C 0.25553 0.74525 0.01216 0.0
C1077 C 0.2463 0.80707 0.02921 0.0
C1078 C 0.2484 0.82653 0.9948 0.0
C1079 C 0.26547 0.69124 0.9831 0.0
N1080 N 0.24725 0.8102 0.01821 0.0
N1081 N 0.26459 0.68836 0.9941 0.0
H1082 H 0.52542 0.86119 0.72921 0.0
H1083 H 0.48717 0.63278 0.784 0.0
H1084 H 0.4932 0.61611 0.73 0.0
H1085 H 0.51891 0.87878 0.78323 0.0
H1086 H 0.48926 0.62595 0.76431 0.0
H1087 H 0.52358 0.86766 0.74892 0.0
C1088 C 0.51801 0.80836 0.73353 0.0
C1089 C 0.50939 0.7379 0.72791 0.0
C1090 C 0.49575 0.68155 0.76842 0.0
C1091 C 0.50718 0.74541 0.7506 0.0
C1092 C 0.49454 0.68572 0.77969 0.0
C1093 C 0.50292 0.75659 0.78531 0.0
C1094 C 0.50542 0.74868 0.76263 0.0
C1095 C 0.51222 0.82305 0.77924 0.0
C1096 C 0.51695 0.81233 0.74481 0.0
C1097 C 0.50006 0.67154 0.73399 0.0
N1098 N 0.51326 0.81737 0.76822 0.0
N1099 N 0.49915 0.67704 0.74501 0.0
H1100 H 0.23712 0.88312 0.72869 0.0
H1101 H 0.27466 0.11284 0.78354 0.0
H1102 H 0.26864 0.12952 0.7295 0.0
H1103 H 0.24276 0.86716 0.78275 0.0
H1104 H 0.2729 0.1191 0.76384 0.0
H1105 H 0.23899 0.87666 0.74839 0.0
C1106 C 0.2444 0.93624 0.73301 0.0
C1107 C 0.25279 0.0071 0.72739 0.0
C1108 C 0.26631 0.06369 0.76794 0.0
C1109 C 0.25502 -0.0004 0.7501 0.0
C1110 C 0.26732 0.05983 0.77923 0.0
C1111 C 0.25879 0.98925 0.78485 0.0
C1112 C 0.25667 0.99652 0.76214 0.0
C1113 C 0.24956 0.92268 0.77877 0.0
C1114 C 0.24547 0.93227 0.7443 0.0
C1115 C 0.26195 0.07378 0.73348 0.0
N1116 N 0.2487 0.92806 0.76773 0.0
N1117 N 0.26287 0.0683 0.74451 0.0
H1118 H 0.51722 0.36391 0.47985 0.0
H1119 H 0.49305 0.64089 0.53342 0.0
H1120 H 0.48873 0.61579 0.47936 0.0
H1121 H 0.52149 0.38893 0.53389 0.0
H1122 H 0.4915 0.63354 0.51352 0.0
H1123 H 0.51872 0.37127 0.49974 0.0
C1124 C 0.51121 0.42046 0.48391 0.0
C1125 C 0.50288 0.48925 0.47792 0.0
C1126 C 0.49811 0.57995 0.51801 0.0
C1127 C 0.50463 0.49852 0.50062 0.0
C1128 C 0.49904 0.58433 0.52935 0.0
C1129 C 0.50737 0.51552 0.53534 0.0
C1130 C 0.50557 0.50626 0.51263 0.0
C1131 C 0.51487 0.44359 0.52964 0.0
C1132 C 0.51211 0.42484 0.49526 0.0
C1133 C 0.49535 0.56115 0.48362 0.0
N1134 N 0.51376 0.44082 0.51864 0.0
N1135 N 0.49643 0.56393 0.49462 0.0
H1136 H 0.76818 0.61483 0.53357 0.0
H1137 H 0.74248 0.88818 0.47981 0.0
H1138 H 0.73775 0.86338 0.53385 0.0
H1139 H 0.77273 0.63933 0.47951 0.0
H1140 H 0.74085 0.88102 0.4997 0.0
H1141 H 0.76982 0.62195 0.51368 0.0
C1142 C 0.76176 0.67056 0.52946 0.0
C1143 C 0.75287 0.73853 0.53539 0.0
C1144 C 0.74788 0.82808 0.49526 0.0
C1145 C 0.75478 0.74756 0.51269 0.0
C1146 C 0.74886 0.83237 0.48391 0.0
C1147 C 0.7577 0.76433 0.47797 0.0
C1148 C 0.75581 0.75526 0.50068 0.0
C1149 C 0.7657 0.69334 0.48372 0.0
C1150 C 0.76275 0.67483 0.51811 0.0
C1151 C 0.74483 0.80942 0.52963 0.0
N1152 N 0.76453 0.69063 0.49472 0.0
N1153 N 0.74602 0.81212 0.51864 0.0
H1154 H 0.77465 0.61141 0.78388 0.0
H1155 H 0.73599 0.38532 0.72897 0.0
H1156 H 0.74224 0.36672 0.78298 0.0
H1157 H 0.76844 0.62993 0.72986 0.0
H1158 H 0.73792 0.37822 0.74867 0.0
H1159 H 0.77267 0.61863 0.76418 0.0
C1160 C 0.76715 0.55883 0.77954 0.0
C1161 C 0.75854 0.48823 0.78513 0.0
C1162 C 0.74459 0.43358 0.74459 0.0
C1163 C 0.75618 0.49661 0.76244 0.0
C1164 C 0.74348 0.43792 0.73331 0.0
C1165 C 0.75213 0.50844 0.72772 0.0
C1166 C 0.75443 0.5002 0.75041 0.0
C1167 C 0.76156 0.57447 0.73382 0.0
C1168 C 0.76602 0.56323 0.76826 0.0
C1169 C 0.7491 0.42223 0.77902 0.0
N1170 N 0.7625 0.56863 0.74485 0.0
N1171 N 0.74813 0.42814 0.768 0.0
H1172 H 0.27535 0.13919 0.47883 0.0
H1173 H 0.23543 0.36361 0.5336 0.0
H1174 H 0.24172 0.38154 0.47956 0.0
H1175 H 0.26892 0.12098 0.53283 0.0
H1176 H 0.23739 0.37055 0.5139 0.0
H1177 H 0.27336 0.13229 0.49852 0.0
C1178 C 0.26758 0.19134 0.48313 0.0
C1179 C 0.25863 0.26115 0.4775 0.0
C1180 C 0.24428 0.31565 0.51801 0.0
C1181 C 0.25624 0.25312 0.50019 0.0
C1182 C 0.24316 0.31141 0.52929 0.0
C1183 C 0.25209 0.24151 0.53492 0.0
C1184 C 0.25444 0.24958 0.51222 0.0
C1185 C 0.26181 0.17595 0.52884 0.0
C1186 C 0.26644 0.18711 0.49441 0.0
C1187 C 0.24885 0.32664 0.48356 0.0
N1188 N 0.26278 0.18171 0.51782 0.0
N1189 N 0.24787 0.3209 0.49459 0.0
H1190 H 0.27665 0.60495 0.28359 0.0
H1191 H 0.23219 0.38956 0.22901 0.0
H1192 H 0.24029 0.36847 0.28299 0.0
H1193 H 0.26835 0.62646 0.22966 0.0
H1194 H 0.23479 0.38152 0.24869 0.0
H1195 H 0.27403 0.61286 0.26391 0.0
C1196 C 0.26816 0.55427 0.27932 0.0
C1197 C 0.25861 0.48586 0.28498 0.0
C1198 C 0.24212 0.43541 0.24456 0.0
C1199 C 0.25549 0.49508 0.26232 0.0
C1200 C 0.24063 0.4403 0.23329 0.0
C1201 C 0.25013 0.50888 0.22764 0.0
C1202 C 0.25324 0.49949 0.2503 0.0
C1203 C 0.26076 0.57258 0.23367 0.0
C1204 C 0.26666 0.55908 0.26805 0.0
C1205 C 0.24792 0.42222 0.27896 0.0
N1206 N 0.26209 0.5662 0.24468 0.0
N1207 N 0.24659 0.42852 0.26795 0.0
H1208 H 0.01841 0.86391 0.47925 0.0
H1209 H 0.99275 0.1363 0.53305 0.0
H1210 H 0.98758 0.11173 0.47901 0.0
H1211 H 0.02371 0.88871 0.5333 0.0
H1212 H 0.99091 0.12916 0.51316 0.0
H1213 H 0.02028 0.87107 0.49914 0.0
C1214 C 0.01195 0.91949 0.48337 0.0
C1215 C 1.00287 0.98724 0.47745 0.0
C1216 C 0.99814 0.0765 0.51759 0.0
C1217 C 1.00505 0.99632 0.50015 0.0
C1218 C 0.99924 0.08077 0.52894 0.0
C1219 C 0.00835 0.01307 0.53486 0.0
C1220 C 0.0062 0.00402 0.51216 0.0
C1221 C 0.01647 0.94245 0.52909 0.0
C1222 C 0.01307 0.92378 0.49471 0.0
C1223 C 0.99479 0.05794 0.48321 0.0
N1224 N 0.01517 0.93973 0.5181 0.0
N1225 N 0.9961 0.06066 0.49421 0.0
H1226 H 0.02536 0.36361 0.72856 0.0
H1227 H 0.98601 0.13842 0.78339 0.0
H1228 H 0.99242 0.11994 0.72937 0.0
H1229 H 0.01878 0.38241 0.78255 0.0
H1230 H 0.98805 0.1312 0.76369 0.0
H1231 H 0.02333 0.37072 0.74825 0.0
C1232 C 0.01774 0.31122 0.73287 0.0
C1233 C 0.00899 0.24096 0.72726 0.0
C1234 C 0.99477 0.18645 0.76778 0.0
C1235 C 0.00656 0.24922 0.74995 0.0
C1236 C 0.9936 0.19085 0.77906 0.0
C1237 C 1.00229 0.26124 0.78466 0.0
C1238 C 1.00474 0.25287 0.76198 0.0
C1239 C 0.01184 0.32707 0.77858 0.0
C1240 C 0.01657 0.31556 0.74415 0.0
C1241 C 0.9994 0.17519 0.73335 0.0
N1242 N 0.01286 0.32116 0.76755 0.0
N1243 N 0.99839 0.18104 0.74437 0.0
H1244 H 0.99155 0.61087 0.2294 0.0
H1245 H 0.01751 0.89117 0.28252 0.0
H1246 H 0.02082 0.86128 0.22848 0.0
H1247 H 0.98819 0.64084 0.28343 0.0
H1248 H 0.01862 0.88218 0.26263 0.0
H1249 H 0.99031 0.62014 0.24929 0.0
C1250 C 0.99778 0.6675 0.23337 0.0
C1251 C 0.00626 0.7353 0.22726 0.0
C1252 C 0.01192 0.82932 0.26721 0.0
C1253 C 1.00482 0.74676 0.24995 0.0
C1254 C 0.01124 0.83464 0.27855 0.0
C1255 C 1.0028 0.76674 0.28466 0.0
C1256 C 1.0041 0.75559 0.26196 0.0
C1257 C 0.99491 0.6948 0.27908 0.0
C1258 C 0.99703 0.67297 0.24471 0.0
C1259 C 0.01408 0.80737 0.23283 0.0
N1260 N 0.99579 0.6911 0.26808 0.0
N1261 N 0.01314 0.81121 0.24383 0.0
H1262 H 0.98622 0.6018 0.97891 0.0
H1263 H 0.02584 0.37327 0.03352 0.0
H1264 H 0.01905 0.35779 0.97947 0.0
H1265 H 0.99312 0.61749 0.03289 0.0
H1266 H 0.02366 0.36704 0.01382 0.0
H1267 H 0.98839 0.60772 0.9986 0.0
C1268 C 0.99385 0.54908 0.98317 0.0
C1269 C 1.00253 0.47908 0.97749 0.0
C1270 C 0.01698 0.42211 0.01796 0.0
C1271 C 1.00511 0.48596 1.00018 0.0
C1272 C 0.01823 0.42595 0.02924 0.0
C1273 C 0.0096 0.49612 0.0349 0.0
C1274 C 0.007 0.48889 0.01221 0.0
C1275 C 1.00001 0.56228 0.02887 0.0
C1276 C 0.99509 0.55274 0.99445 0.0
C1277 C 0.01213 0.41286 0.9835 0.0
N1278 N 0.99892 0.55693 0.01785 0.0
N1279 N 0.01321 0.41804 0.99453 0.0
H1280 H 0.57978 0.02573 0.08176 0.0
H1281 H 0.68384 0.18095 0.04747 0.0
H1282 H 0.5734 0.13848 0.04999 0.0
H1283 H 0.68423 0.19458 0.08242 0.0
H1284 H 0.64417 0.14728 0.04791 0.0
H1285 H 0.61955 0.06483 0.08183 0.0
C1286 C 0.58686 0.05714 0.07474 0.0
C1287 C 0.57345 0.07864 0.06583 0.0
C1288 C 0.65282 0.15879 0.05549 0.0
C1289 C 0.61839 0.12373 0.06588 0.0
C1290 C 0.67536 0.17859 0.05523 0.0
C1291 C 0.68707 0.19197 0.06491 0.0
C1292 C 0.64203 0.14974 0.06552 0.0
C1293 C 0.67555 0.18643 0.07478 0.0
C1294 C 0.60936 0.08044 0.07485 0.0
C1295 C 0.58323 0.12074 0.05701 0.0
N1296 N 0.65362 0.1645 0.07486 0.0
N1297 N 0.6051 0.14153 0.05723 0.0
H1298 H 0.56855 0.0144 0.19087 0.0
H1299 H 0.68879 0.22876 0.18929 0.0
H1300 H 0.57892 0.28586 0.1902 0.0
H1301 H 0.67831 0.95764 0.19095 0.0
H1302 H 0.64877 0.25032 0.18874 0.0
H1303 H 0.60851 0.99276 0.19004 0.0
C1304 C 0.57923 0.06974 0.19053 0.0
C1305 C 0.5703 0.15232 0.19065 0.0
C1306 C 0.65516 0.18607 0.18919 0.0
C1307 C 0.61637 0.12745 0.1897 0.0
C1308 C 0.67807 0.17348 0.18951 0.0
C1309 C 0.68698 0.09105 0.19022 0.0
C1310 C 0.64088 0.1158 0.18959 0.0
C1311 C 0.67219 0.02221 0.19042 0.0
C1312 C 0.60212 0.0571 0.19005 0.0
C1313 C 0.58505 0.22118 0.19014 0.0
N1314 N 0.64985 0.03618 0.19014 0.0
N1315 N 0.60739 0.20718 0.18972 0.0
H1316 H 0.43012 0.03999 0.9397 0.0
H1317 H 0.32925 0.70512 0.93943 0.0
H1318 H 0.43889 0.76773 0.93884 0.0
H1319 H 0.32041 0.97743 0.93912 0.0
H1320 H 0.36962 0.72661 0.93864 0.0
H1321 H 0.38973 0.01873 0.9389 0.0
C1322 C 0.42358 0.97595 0.93929 0.0
C1323 C 0.43791 0.90568 0.93939 0.0
C1324 C 0.3588 0.7816 0.93871 0.0
C1325 C 0.39183 0.88066 0.93851 0.0
C1326 C 0.33576 0.76924 0.93915 0.0
C1327 C 0.32142 0.83943 0.93939 0.0
C1328 C 0.36749 0.86471 0.93852 0.0
C1329 C 0.3308 0.92126 0.939 0.0
C1330 C 0.40054 0.96372 0.93885 0.0
C1331 C 0.42851 0.82395 0.93884 0.0
N1332 N 0.35318 0.93158 0.93863 0.0
N1333 N 0.40613 0.81375 0.93847 0.0
H1334 H 0.4303 0.70542 0.82346 0.0
H1335 H 0.3303 0.04428 0.82234 0.0
H1336 H 0.43983 0.97727 0.82246 0.0
H1337 H 0.32083 0.77267 0.82416 0.0
H1338 H 0.37065 0.02149 0.823 0.0
H1339 H 0.39 0.72873 0.82431 0.0
C1340 C 0.42395 0.76983 0.82346 0.0
C1341 C 0.43846 0.83934 0.82285 0.0
C1342 C 0.35969 0.96696 0.8233 0.0
C1343 C 0.39248 0.86668 0.82379 0.0
C1344 C 0.33668 0.98006 0.82294 0.0
C1345 C 0.32216 0.91041 0.82314 0.0
C1346 C 0.36819 0.88363 0.82386 0.0
C1347 C 0.33135 0.82842 0.82392 0.0
C1348 C 0.40096 0.78323 0.82394 0.0
C1349 C 0.4293 0.92159 0.82288 0.0
N1350 N 0.35371 0.81735 0.82421 0.0
N1351 N 0.40696 0.93291 0.82331 0.0
H1352 H 0.68068 0.79648 0.57281 0.0
H1353 H 0.58026 0.45964 0.57338 0.0
H1354 H 0.68986 0.52455 0.57421 0.0
H1355 H 0.57113 0.7318 0.57281 0.0
H1356 H 0.6206 0.48194 0.57425 0.0
H1357 H 0.64032 0.77438 0.5734 0.0
C1358 C 0.67424 0.73233 0.57329 0.0
C1359 C 0.68868 0.6624 0.57341 0.0
C1360 C 0.60972 0.53671 0.57397 0.0
C1361 C 0.64262 0.63641 0.57405 0.0
C1362 C 0.58671 0.5239 0.57348 0.0
C1363 C 0.57229 0.5938 0.57297 0.0
C1364 C 0.61831 0.61998 0.57395 0.0
C1365 C 0.58157 0.67582 0.57313 0.0
C1366 C 0.65121 0.71961 0.57361 0.0
C1367 C 0.6794 0.58051 0.57404 0.0
N1368 N 0.60393 0.68658 0.57357 0.0
N1369 N 0.65702 0.56982 0.5743 0.0
H1370 H 0.58032 0.79354 0.69003 0.0
H1371 H 0.68053 0.45574 0.68945 0.0
H1372 H 0.57104 0.52162 0.68882 0.0
H1373 H 0.68988 0.72779 0.68965 0.0
H1374 H 0.64021 0.4785 0.68859 0.0
H1375 H 0.62066 0.77116 0.68925 0.0
C1376 C 0.58673 0.72934 0.68954 0.0
C1377 C 0.57228 0.65948 0.68955 0.0
C1378 C 0.65114 0.53316 0.68878 0.0
C1379 C 0.6183 0.63319 0.68869 0.0
C1380 C 0.67414 0.52008 0.68927 0.0
C1381 C 0.68861 0.58981 0.68967 0.0
C1382 C 0.6426 0.61653 0.68872 0.0
C1383 C 0.67939 0.67195 0.6894 0.0
C1384 C 0.60975 0.71647 0.68911 0.0
C1385 C 0.58152 0.57752 0.6889 0.0
N1386 N 0.65703 0.68297 0.68898 0.0
N1387 N 0.60388 0.5667 0.68854 0.0
H1388 H 0.43031 0.54441 0.4396 0.0
H1389 H 0.33013 0.20656 0.44005 0.0
H1390 H 0.4396 0.27236 0.4403 0.0
H1391 H 0.32074 0.47833 0.43847 0.0
H1392 H 0.37047 0.2291 0.43952 0.0
H1393 H 0.38999 0.52172 0.43859 0.0
C1394 C 0.4239 0.4801 0.4395 0.0
C1395 C 0.43836 0.41034 0.44008 0.0
C1396 C 0.35953 0.28373 0.43925 0.0
C1397 C 0.39236 0.38371 0.43896 0.0
C1398 C 0.33652 0.27077 0.43954 0.0
C1399 C 0.32203 0.34053 0.43936 0.0
C1400 C 0.36806 0.36702 0.43879 0.0
C1401 C 0.33125 0.4225 0.43869 0.0
C1402 C 0.4009 0.46705 0.43893 0.0
C1403 C 0.42913 0.32823 0.43992 0.0
N1404 N 0.35362 0.43344 0.43847 0.0
N1405 N 0.40678 0.31726 0.43941 0.0
H1406 H 0.44018 0.48208 0.32218 0.0
H1407 H 0.32002 0.26786 0.32514 0.0
H1408 H 0.42988 0.21083 0.32378 0.0
H1409 H 0.33039 0.53828 0.32207 0.0
H1410 H 0.36006 0.24663 0.32569 0.0
H1411 H 0.40022 0.50379 0.32311 0.0
C1412 C 0.42952 0.4268 0.32275 0.0
C1413 C 0.43846 0.34425 0.32286 0.0
C1414 C 0.35364 0.31067 0.32493 0.0
C1415 C 0.3924 0.36919 0.32393 0.0
C1416 C 0.33072 0.32306 0.32461 0.0
C1417 C 0.32177 0.40516 0.32349 0.0
C1418 C 0.36789 0.3808 0.32411 0.0
C1419 C 0.33653 0.47395 0.32292 0.0
C1420 C 0.40663 0.43948 0.32329 0.0
C1421 C 0.42373 0.27548 0.32366 0.0
N1422 N 0.35889 0.46016 0.32319 0.0
N1423 N 0.4014 0.28951 0.32413 0.0
H1424 H 0.08079 0.95692 0.57281 0.0
H1425 H 0.18074 0.29573 0.57284 0.0
H1426 H 0.07123 0.22887 0.57323 0.0
H1427 H 0.19025 0.02377 0.57339 0.0
H1428 H 0.14042 0.27283 0.57358 0.0
H1429 H 0.1211 0.97993 0.57361 0.0
C1430 C 0.08713 0.02127 0.57312 0.0
C1431 C 0.07261 0.09092 0.5729 0.0
C1432 C 0.15138 0.21824 0.57358 0.0
C1433 C 0.1186 0.11793 0.57379 0.0
C1434 C 0.17438 0.2314 0.57317 0.0
C1435 C 0.1889 0.16171 0.573 0.0
C1436 C 0.14289 0.13482 0.57382 0.0
C1437 C 0.17972 0.07957 0.57345 0.0
C1438 C 0.11013 0.0345 0.57357 0.0
C1439 C 0.08176 0.17309 0.57333 0.0
N1440 N 0.15737 0.06847 0.57379 0.0
N1441 N 0.10412 0.18426 0.57371 0.0
H1442 H 0.18051 0.95422 0.68931 0.0
H1443 H 0.08069 0.29388 0.68966 0.0
H1444 H 0.19011 0.22614 0.68962 0.0
H1445 H 0.07102 0.02214 0.68852 0.0
H1446 H 0.12101 0.27062 0.68902 0.0
H1447 H 0.1402 0.97759 0.68842 0.0
C1448 C 0.17417 0.01865 0.68915 0.0
C1449 C 0.18871 0.08817 0.68959 0.0
C1450 C 0.11002 0.21615 0.68887 0.0
C1451 C 0.14274 0.11558 0.68859 0.0
C1452 C 0.08702 0.22952 0.68922 0.0
C1453 C 0.07246 0.15999 0.68919 0.0
C1454 C 0.11845 0.13268 0.6885 0.0
C1455 C 0.08159 0.07781 0.68861 0.0
C1456 C 0.15118 0.03207 0.68864 0.0
C1457 C 0.17957 0.17044 0.68935 0.0
N1458 N 0.10394 0.06649 0.68833 0.0
N1459 N 0.15723 0.18179 0.6889 0.0
H1460 H 0.93017 0.04414 0.43998 0.0
H1461 H 0.82987 0.70678 0.43988 0.0
H1462 H 0.93945 0.77215 0.43897 0.0
H1463 H 0.82065 0.97892 0.44001 0.0
H1464 H 0.8702 0.72918 0.43897 0.0
H1465 H 0.88982 0.02177 0.43941 0.0
C1466 C 0.92375 0.97991 0.43959 0.0
C1467 C 0.93821 0.91005 0.43957 0.0
C1468 C 0.8593 0.78393 0.43916 0.0
C1469 C 0.89217 0.88377 0.43895 0.0
C1470 C 0.83629 0.77105 0.43967 0.0
C1471 C 0.82185 0.84093 0.44006 0.0
C1472 C 0.86787 0.86723 0.43906 0.0
C1473 C 0.83111 0.92297 0.43977 0.0
C1474 C 0.90073 0.96705 0.43927 0.0
C1475 C 0.92896 0.82806 0.43905 0.0
N1476 N 0.85346 0.93379 0.43932 0.0
N1477 N 0.90659 0.81724 0.4388 0.0
H1478 H 0.93106 0.71218 0.32286 0.0
H1479 H 0.83015 0.04727 0.32264 0.0
H1480 H 0.93985 0.98448 0.32249 0.0
H1481 H 0.82139 0.77509 0.32381 0.0
H1482 H 0.87056 0.02592 0.32317 0.0
H1483 H 0.89069 0.73378 0.32379 0.0
C1484 C 0.92453 0.77632 0.32302 0.0
C1485 C 0.93886 0.84647 0.32255 0.0
C1486 C 0.85975 0.97094 0.32335 0.0
C1487 C 0.8928 0.87187 0.32359 0.0
C1488 C 0.8367 0.98322 0.32306 0.0
C1489 C 0.82236 0.91301 0.32313 0.0
C1490 C 0.86846 0.88788 0.32371 0.0
C1491 C 0.83177 0.83127 0.32369 0.0
C1492 C 0.90151 0.78875 0.32354 0.0
C1493 C 0.92948 0.92833 0.32279 0.0
N1494 N 0.85416 0.82101 0.32392 0.0
N1495 N 0.9071 0.93871 0.32325 0.0
H1496 H 0.18129 0.78571 0.07298 0.0
H1497 H 0.08171 0.4452 0.07275 0.0
H1498 H 0.1911 0.51387 0.07277 0.0
H1499 H 0.07186 0.71692 0.07363 0.0
H1500 H 0.12201 0.46881 0.07344 0.0
H1501 H 0.14101 0.76201 0.07388 0.0
C1502 C 0.17501 0.72123 0.07317 0.0
C1503 C 0.1896 0.65182 0.07275 0.0
C1504 C 0.11098 0.5232 0.07352 0.0
C1505 C 0.14364 0.62404 0.07375 0.0
C1506 C 0.088 0.50963 0.07315 0.0
C1507 C 0.07339 0.57905 0.07308 0.0
C1508 C 0.11937 0.60674 0.07383 0.0
C1509 C 0.08246 0.66132 0.0736 0.0
C1510 C 0.15203 0.70761 0.07367 0.0
C1511 C 0.18052 0.56948 0.07303 0.0
N1512 N 0.10481 0.67283 0.07392 0.0
N1513 N 0.15819 0.55795 0.07347 0.0
H1514 H 0.0687 0.51159 0.18965 0.0
H1515 H 0.18873 0.72765 0.18786 0.0
H1516 H 0.07887 0.78316 0.18905 0.0
H1517 H 0.17857 0.45662 0.19011 0.0
H1518 H 0.14869 0.74842 0.18719 0.0
H1519 H 0.10869 0.49041 0.18876 0.0
C1520 C 0.07934 0.56704 0.1893 0.0
C1521 C 0.07036 0.64952 0.18948 0.0
C1522 C 0.15516 0.68435 0.1878 0.0
C1523 C 0.11644 0.62519 0.18845 0.0
C1524 C 0.17808 0.67222 0.18818 0.0
C1525 C 0.18708 0.59007 0.1891 0.0
C1526 C 0.14096 0.6139 0.18835 0.0
C1527 C 0.17238 0.52099 0.18941 0.0
C1528 C 0.10224 0.55467 0.18879 0.0
C1529 C 0.08505 0.71855 0.18896 0.0
N1530 N 0.15002 0.53451 0.18908 0.0
N1531 N 0.10739 0.70481 0.1885 0.0
H1532 H 0.83013 0.19545 0.93964 0.0
H1533 H 0.93022 0.5339 0.93975 0.0
H1534 H 0.82076 0.46751 0.93935 0.0
H1535 H 0.93972 0.26193 0.93929 0.0
H1536 H 0.8899 0.511 0.93902 0.0
H1537 H 0.87048 0.21816 0.93892 0.0
C1538 C 0.83652 0.25976 0.93938 0.0
C1539 C 0.82203 0.32953 0.9396 0.0
C1540 C 0.90086 0.45639 0.93904 0.0
C1541 C 0.86806 0.35619 0.93881 0.0
C1542 C 0.92386 0.46956 0.93945 0.0
C1543 C 0.93838 0.39988 0.93963 0.0
C1544 C 0.89236 0.37299 0.93882 0.0
C1545 C 0.9292 0.31773 0.93922 0.0
C1546 C 0.85954 0.27281 0.93898 0.0
C1547 C 0.83125 0.41163 0.93925 0.0
N1548 N 0.90684 0.30662 0.93887 0.0
N1549 N 0.85361 0.42262 0.9389 0.0
H1550 H 0.94054 0.48201 0.82309 0.0
H1551 H 0.82045 0.26619 0.82387 0.0
H1552 H 0.93031 0.21045 0.82264 0.0
H1553 H 0.83073 0.53758 0.82271 0.0
H1554 H 0.86047 0.24503 0.82449 0.0
H1555 H 0.90056 0.50311 0.82401 0.0
C1556 C 0.92989 0.42653 0.82322 0.0
C1557 C 0.93885 0.3441 0.82274 0.0
C1558 C 0.85404 0.30925 0.82414 0.0
C1559 C 0.89278 0.36834 0.82378 0.0
C1560 C 0.83112 0.32161 0.82378 0.0
C1561 C 0.82216 0.404 0.82318 0.0
C1562 C 0.86826 0.37972 0.82389 0.0
C1563 C 0.83689 0.47303 0.82315 0.0
C1564 C 0.90699 0.43887 0.82374 0.0
C1565 C 0.92414 0.27503 0.82298 0.0
N1566 N 0.85924 0.4593 0.82345 0.0
N1567 N 0.9018 0.28874 0.82345 0.0
loop_
_geom_bond_atom_site_label_1
_geom_bond_atom_site_label_2
_geom_bond_distance
_geom_bond_site_symmetry_2
_ccdc_geom_bond_type
Mg0 O7 2.141 . S
Mg0 O8 2.048 . S
Mg0 O9 2.048 . S
Mg0 O12 2.141 . S
C1 O2 1.313 1_545 S
C1 O8 1.195 . S
O2 C1 1.313 1_565 S
C3 O4 1.245 1_545 S
C3 O12 1.289 . S
O4 C3 1.245 1_565 S
C5 O6 1.245 . S
C5 O7 1.289 1_565 S
O6 C5 1.245 . S
O7 Mg0 2.141 . S
O7 C5 1.289 1_545 S
O8 Mg0 2.048 . S
O8 C1 1.195 . S
O9 Mg0 2.048 . S
O9 C10 1.195 . S
C10 O9 1.195 . S
C10 O11 1.300 1_545 S
O11 C10 1.300 1_565 S
O12 Mg0 2.141 . S
O12 C3 1.289 . S
Mg13 O20 2.141 . S
Mg13 O21 2.048 . S
Mg13 O22 2.048 . S
Mg13 O25 2.141 . S
C14 O15 1.313 . S
C14 O21 1.195 . S
O15 C14 1.313 . S
C16 O17 1.245 . S
C16 O25 1.289 . S
O17 C16 1.245 . S
C18 O19 1.245 . S
C18 O20 1.289 . S
O19 C18 1.245 . S
O20 Mg13 2.141 . S
O20 C18 1.289 . S
O21 Mg13 2.048 . S
O21 C14 1.195 . S
O22 Mg13 2.048 . S
O22 C23 1.195 . S
C23 O22 1.195 . S
C23 O24 1.313 . S
O24 C23 1.313 . S
O25 Mg13 2.141 . S
O25 C16 1.289 . S
Mg26 O33 2.141 . S
Mg26 O34 2.048 . S
Mg26 O35 2.048 . S
Mg26 O38 2.141 . S
C27 O28 1.313 . S
C27 O34 1.195 . S
O28 C27 1.313 . S
C29 O30 1.245 . S
C29 O38 1.289 . S
O30 C29 1.245 . S
C31 O32 1.245 . S
C31 O33 1.289 . S
O32 C31 1.245 . S
O33 Mg26 2.141 . S
O33 C31 1.289 . S
O34 Mg26 2.048 . S
O34 C27 1.195 . S
O35 Mg26 2.048 . S
O35 C36 1.195 . S
C36 O35 1.195 . S
C36 O37 1.313 . S
O37 C36 1.313 . S
O38 Mg26 2.141 . S
O38 C29 1.289 . S
Mg39 O46 2.141 . S
Mg39 O47 2.048 . S
Mg39 O48 2.048 . S
Mg39 O51 2.141 . S
C40 O41 1.313 1_545 S
C40 O47 1.195 . S
O41 C40 1.313 1_565 S
C42 O43 1.245 1_545 S
C42 O51 1.289 . S
O43 C42 1.245 1_565 S
C44 O45 1.245 . S
C44 O46 1.289 1_565 S
O45 C44 1.245 . S
O46 Mg39 2.141 . S
O46 C44 1.289 1_545 S
O47 Mg39 2.048 . S
O47 C40 1.195 . S
O48 Mg39 2.048 . S
O48 C49 1.195 . S
C49 O48 1.195 . S
C49 O50 1.313 1_545 S
O50 C49 1.313 1_565 S
O51 Mg39 2.141 . S
O51 C42 1.289 . S
Mg52 O59 2.141 . S
Mg52 O60 2.048 . S
Mg52 O61 2.048 . S
Mg52 O64 2.141 . S
C53 O54 1.300 1_565 S
C53 O60 1.195 . S
O54 C53 1.300 1_545 S
C55 O56 1.245 . S
C55 O64 1.289 1_545 S
O56 C55 1.245 . S
C57 O58 1.245 1_565 S
C57 O59 1.289 . S
O58 C57 1.245 1_545 S
O59 Mg52 2.141 . S
O59 C57 1.289 . S
O60 Mg52 2.048 . S
O60 C53 1.195 . S
O61 Mg52 2.048 . S
O61 C62 1.195 . S
C62 O61 1.195 . S
C62 O63 1.313 1_565 S
O63 C62 1.313 1_545 S
O64 Mg52 2.141 . S
O64 C55 1.289 1_565 S
Mg65 O72 2.141 . S
Mg65 O73 2.048 . S
Mg65 O74 2.048 . S
Mg65 O77 2.141 . S
C66 O67 1.313 . S
C66 O73 1.195 . S
O67 C66 1.313 . S
C68 O69 1.245 . S
C68 O77 1.289 . S
O69 C68 1.245 . S
C70 O71 1.245 . S
C70 O72 1.289 . S
O71 C70 1.245 . S
O72 Mg65 2.141 . S
O72 C70 1.289 . S
O73 Mg65 2.048 . S
O73 C66 1.195 . S
O74 Mg65 2.048 . S
O74 C75 1.195 . S
C75 O74 1.195 . S
C75 O76 1.313 . S
O76 C75 1.313 . S
O77 Mg65 2.141 . S
O77 C68 1.289 . S
Mg78 O85 2.141 . S
Mg78 O86 2.048 . S
Mg78 O87 2.048 . S
Mg78 O90 2.141 . S
C79 O80 1.313 . S
C79 O86 1.195 . S
O80 C79 1.313 . S
C81 O82 1.245 . S
C81 O90 1.289 . S
O82 C81 1.245 . S
C83 O84 1.245 . S
C83 O85 1.289 . S
O84 C83 1.245 . S
O85 Mg78 2.141 . S
O85 C83 1.289 . S
O86 Mg78 2.048 . S
O86 C79 1.195 . S
O87 Mg78 2.048 . S
O87 C88 1.195 . S
C88 O87 1.195 . S
C88 O89 1.313 . S
O89 C88 1.313 . S
O90 Mg78 2.141 . S
O90 C81 1.289 . S
Mg91 O98 2.141 . S
Mg91 O99 2.048 . S
Mg91 O100 2.048 . S
Mg91 O103 2.141 . S
C92 O93 1.313 1_565 S
C92 O99 1.195 . S
O93 C92 1.313 1_545 S
C94 O95 1.245 . S
C94 O103 1.289 1_545 S
O95 C94 1.245 . S
C96 O97 1.245 1_565 S
C96 O98 1.289 . S
O97 C96 1.245 1_545 S
O98 Mg91 2.141 . S
O98 C96 1.289 . S
O99 Mg91 2.048 . S
O99 C92 1.195 . S
O100 Mg91 2.048 . S
O100 C101 1.195 . S
C101 O100 1.195 . S
C101 O102 1.313 1_565 S
O102 C101 1.313 1_545 S
O103 Mg91 2.141 . S
O103 C94 1.289 1_565 S
Mg104 O111 2.141 . S
Mg104 O112 2.048 . S
Mg104 O113 2.048 . S
Mg104 O116 2.141 . S
C105 O106 1.313 . S
C105 O112 1.195 . S
O106 C105 1.313 . S
C107 O108 1.245 . S
C107 O116 1.289 . S
O108 C107 1.245 . S
C109 O110 1.245 . S
C109 O111 1.289 . S
O110 C109 1.245 . S
O111 Mg104 2.141 . S
O111 C109 1.289 . S
O112 Mg104 2.048 . S
O112 C105 1.195 . S
O113 Mg104 2.048 . S
O113 C114 1.195 . S
C114 O113 1.195 . S
C114 O115 1.313 . S
O115 C114 1.313 . S
O116 Mg104 2.141 . S
O116 C107 1.289 . S
Mg117 O124 2.141 . S
Mg117 O125 2.048 . S
Mg117 O126 2.048 . S
Mg117 O129 2.141 . S
C118 O119 1.313 . S
C118 O125 1.195 . S
O119 C118 1.313 . S
C120 O121 1.245 . S
C120 O129 1.289 . S
O121 C120 1.245 . S
C122 O123 1.245 . S
C122 O124 1.289 . S
O123 C122 1.245 . S
O124 Mg117 2.141 . S
O124 C122 1.289 . S
O125 Mg117 2.048 . S
O125 C118 1.195 . S
O126 Mg117 2.048 . S
O126 C127 1.195 . S
C127 O126 1.195 . S
C127 O128 1.313 . S
O128 C127 1.313 . S
O129 Mg117 2.141 . S
O129 C120 1.289 . S
Mg130 O137 2.141 . S
Mg130 O138 2.048 . S
Mg130 O139 2.048 . S
Mg130 O142 2.141 . S
C131 O132 1.313 . S
C131 O138 1.195 . S
O132 C131 1.313 . S
C133 O134 1.245 . S
C133 O142 1.289 . S
O134 C133 1.245 . S
C135 O136 1.245 . S
C135 O137 1.289 . S
O136 C135 1.245 . S
O137 Mg130 2.141 . S
O137 C135 1.289 . S
O138 Mg130 2.048 . S
O138 C131 1.195 . S
O139 Mg130 2.048 . S
O139 C140 1.195 . S
C140 O139 1.195 . S
C140 O141 1.313 . S
O141 C140 1.313 . S
O142 Mg130 2.141 . S
O142 C133 1.289 . S
Mg143 O150 2.141 . S
Mg143 O151 2.048 . S
Mg143 O152 2.048 . S
Mg143 O155 2.141 . S
C144 O145 1.313 . S
C144 O151 1.195 . S
O145 C144 1.313 . S
C146 O147 1.245 . S
C146 O155 1.289 . S
O147 C146 1.245 . S
C148 O149 1.245 . S
C148 O150 1.289 . S
O149 C148 1.245 . S
O150 Mg143 2.141 . S
O150 C148 1.289 . S
O151 Mg143 2.048 . S
O151 C144 1.195 . S
O152 Mg143 2.048 . S
O152 C153 1.195 . S
C153 O152 1.195 . S
C153 O154 1.313 . S
O154 C153 1.313 . S
O155 Mg143 2.141 . S
O155 C146 1.289 . S
Mg156 O163 2.141 . S
Mg156 O164 2.048 . S
Mg156 O165 2.048 . S
Mg156 O168 2.141 . S
C157 O158 1.313 . S
C157 O164 1.195 . S
O158 C157 1.313 . S
C159 O160 1.245 . S
C159 O168 1.289 . S
O160 C159 1.245 . S
C161 O162 1.245 . S
C161 O163 1.289 . S
O162 C161 1.245 . S
O163 Mg156 2.141 . S
O163 C161 1.289 . S
O164 Mg156 2.048 . S
O164 C157 1.195 . S
O165 Mg156 2.048 . S
O165 C166 1.195 . S
C166 O165 1.195 . S
C166 O167 1.313 . S
O167 C166 1.313 . S
O168 Mg156 2.141 . S
O168 C159 1.289 . S
Mg169 O176 2.141 . S
Mg169 O177 2.048 . S
Mg169 O178 2.048 . S
Mg169 O181 2.141 . S
C170 O171 1.313 . S
C170 O177 1.195 . S
O171 C170 1.313 . S
C172 O173 1.245 . S
C172 O181 1.289 . S
O173 C172 1.245 . S
C174 O175 1.245 . S
C174 O176 1.289 . S
O175 C174 1.245 . S
O176 Mg169 2.141 . S
O176 C174 1.289 . S
O177 Mg169 2.048 . S
O177 C170 1.195 . S
O178 Mg169 2.048 . S
O178 C179 1.195 . S
C179 O178 1.195 . S
C179 O180 1.313 . S
O180 C179 1.313 . S
O181 Mg169 2.141 . S
O181 C172 1.289 . S
Mg182 O189 2.141 . S
Mg182 O190 2.048 . S
Mg182 O191 2.048 . S
Mg182 O194 2.141 . S
C183 O184 1.313 . S
C183 O190 1.195 . S
O184 C183 1.313 . S
C185 O186 1.245 . S
C185 O194 1.289 . S
O186 C185 1.245 . S
C187 O188 1.245 . S
C187 O189 1.289 . S
O188 C187 1.245 . S
O189 Mg182 2.141 . S
O189 C187 1.289 . S
O190 Mg182 2.048 . S
O190 C183 1.195 . S
O191 Mg182 2.048 . S
O191 C192 1.195 . S
C192 O191 1.195 . S
C192 O193 1.313 . S
O193 C192 1.313 . S
O194 Mg182 2.141 . S
O194 C185 1.289 . S
Mg195 O202 2.141 . S
Mg195 O203 2.048 . S
Mg195 O204 2.048 . S
Mg195 O207 2.141 . S
C196 O197 1.313 . S
C196 O203 1.195 . S
O197 C196 1.313 . S
C198 O199 1.245 . S
C198 O207 1.289 . S
O199 C198 1.245 . S
C200 O201 1.245 . S
C200 O202 1.289 . S
O201 C200 1.245 . S
O202 Mg195 2.141 . S
O202 C200 1.289 . S
O203 Mg195 2.048 . S
O203 C196 1.195 . S
O204 Mg195 2.048 . S
O204 C205 1.195 . S
C205 O204 1.195 . S
C205 O206 1.313 . S
O206 C205 1.313 . S
O207 Mg195 2.141 . S
O207 C198 1.289 . S
Mg208 O215 2.141 . S
Mg208 O216 2.048 . S
Mg208 O217 2.048 1_655 S
Mg208 O220 2.141 . S
C209 O210 1.323 1_545 S
C209 O216 1.188 1_455 S
O210 C209 1.323 1_565 S
C211 O212 1.245 1_645 S
C211 O220 1.289 . S
O212 C211 1.245 1_465 S
C213 O214 1.245 . S
C213 O215 1.289 1_565 S
O214 C213 1.245 . S
O215 Mg208 2.141 . S
O215 C213 1.289 1_545 S
O216 Mg208 2.048 . S
O216 C209 1.188 1_655 S
O217 Mg208 2.048 1_455 S
O217 C218 1.195 . S
C218 O217 1.195 . S
C218 O219 1.313 . S
O219 C218 1.313 . S
O220 Mg208 2.141 . S
O220 C211 1.289 . S
Mg221 O228 2.141 . S
Mg221 O229 2.048 . S
Mg221 O230 2.048 . S
Mg221 O233 2.141 . S
C222 O223 1.313 . S
C222 O229 1.195 . S
O223 C222 1.313 . S
C224 O225 1.245 . S
C224 O233 1.289 . S
O225 C224 1.245 . S
C226 O227 1.245 . S
C226 O228 1.289 . S
O227 C226 1.245 . S
O228 Mg221 2.141 . S
O228 C226 1.289 . S
O229 Mg221 2.048 . S
O229 C222 1.195 . S
O230 Mg221 2.048 . S
O230 C231 1.195 . S
C231 O230 1.195 . S
C231 O232 1.313 . S
O232 C231 1.313 . S
O233 Mg221 2.141 . S
O233 C224 1.289 . S
Mg234 O241 2.141 . S
Mg234 O242 2.048 . S
Mg234 O243 2.048 1_655 S
Mg234 O246 2.141 . S
C235 O236 1.325 . S
C235 O242 1.187 1_455 S
O236 C235 1.325 . S
C237 O238 1.245 1_655 S
C237 O246 1.289 . S
O238 C237 1.245 1_455 S
C239 O240 1.245 . S
C239 O241 1.289 . S
O240 C239 1.245 . S
O241 Mg234 2.141 . S
O241 C239 1.289 . S
O242 Mg234 2.048 . S
O242 C235 1.187 1_655 S
O243 Mg234 2.048 1_455 S
O243 C244 1.195 . S
C244 O243 1.195 . S
C244 O245 1.313 . S
O245 C244 1.313 . S
O246 Mg234 2.141 . S
O246 C237 1.289 . S
Mg247 O254 2.141 . S
Mg247 O255 2.048 . S
Mg247 O256 2.048 . S
Mg247 O259 2.141 . S
C248 O249 1.313 1_545 S
C248 O255 1.195 . S
O249 C248 1.313 1_565 S
C250 O251 1.245 1_545 S
C250 O259 1.289 . S
O251 C250 1.245 1_565 S
C252 O253 1.245 . S
C252 O254 1.289 1_565 S
O253 C252 1.245 . S
O254 Mg247 2.141 . S
O254 C252 1.289 1_545 S
O255 Mg247 2.048 . S
O255 C248 1.195 . S
O256 Mg247 2.048 . S
O256 C257 1.195 . S
C257 O256 1.195 . S
C257 O258 1.313 . S
O258 C257 1.313 . S
O259 Mg247 2.141 . S
O259 C250 1.289 . S
Mg260 O267 2.141 . S
Mg260 O268 2.048 1_455 S
Mg260 O269 2.048 . S
Mg260 O272 2.141 . S
C261 O262 1.313 . S
C261 O268 1.195 . S
O262 C261 1.313 . S
C263 O264 1.245 . S
C263 O272 1.289 1_545 S
O264 C263 1.245 . S
C265 O266 1.245 1_465 S
C265 O267 1.289 . S
O266 C265 1.245 1_645 S
O267 Mg260 2.141 . S
O267 C265 1.289 . S
O268 Mg260 2.048 1_655 S
O268 C261 1.195 . S
O269 Mg260 2.048 . S
O269 C270 1.189 1_455 S
C270 O269 1.189 1_655 S
C270 O271 1.323 1_565 S
O271 C270 1.323 1_545 S
O272 Mg260 2.141 . S
O272 C263 1.289 1_565 S
Mg273 O280 2.141 . S
Mg273 O281 2.048 . S
Mg273 O282 2.048 . S
Mg273 O285 2.141 . S
C274 O275 1.313 . S
C274 O281 1.195 . S
O275 C274 1.313 . S
C276 O277 1.245 . S
C276 O285 1.289 . S
O277 C276 1.245 . S
C278 O279 1.245 . S
C278 O280 1.289 . S
O279 C278 1.245 . S
O280 Mg273 2.141 . S
O280 C278 1.289 . S
O281 Mg273 2.048 . S
O281 C274 1.195 . S
O282 Mg273 2.048 . S
O282 C283 1.195 . S
C283 O282 1.195 . S
C283 O284 1.313 . S
O284 C283 1.313 . S
O285 Mg273 2.141 . S
O285 C276 1.289 . S
Mg286 O293 2.141 . S
Mg286 O294 2.048 1_455 S
Mg286 O295 2.048 . S
Mg286 O298 2.141 . S
C287 O288 1.313 . S
C287 O294 1.195 . S
O288 C287 1.313 . S
C289 O290 1.245 . S
C289 O298 1.289 . S
O290 C289 1.245 . S
C291 O292 1.245 1_455 S
C291 O293 1.289 . S
O292 C291 1.245 1_655 S
O293 Mg286 2.141 . S
O293 C291 1.289 . S
O294 Mg286 2.048 1_655 S
O294 C287 1.195 . S
O295 Mg286 2.048 . S
O295 C296 1.187 1_455 S
C296 O295 1.187 1_655 S
C296 O297 1.325 . S
O297 C296 1.325 . S
O298 Mg286 2.141 . S
O298 C289 1.289 . S
Mg299 O306 2.141 . S
Mg299 O307 2.048 . S
Mg299 O308 2.048 . S
Mg299 O311 2.141 . S
C300 O301 1.313 . S
C300 O307 1.195 . S
O301 C300 1.313 . S
C302 O303 1.245 . S
C302 O311 1.289 1_545 S
O303 C302 1.245 . S
C304 O305 1.245 1_565 S
C304 O306 1.289 . S
O305 C304 1.245 1_545 S
O306 Mg299 2.141 . S
O306 C304 1.289 . S
O307 Mg299 2.048 . S
O307 C300 1.195 . S
O308 Mg299 2.048 . S
O308 C309 1.195 . S
C309 O308 1.195 . S
C309 O310 1.313 1_565 S
O310 C309 1.313 1_545 S
O311 Mg299 2.141 . S
O311 C302 1.289 1_565 S
Mg312 O319 2.141 . S
Mg312 O320 2.048 . S
Mg312 O321 2.048 1_655 S
Mg312 O324 2.141 . S
C313 O314 1.330 . S
C313 O320 1.184 1_455 S
O314 C313 1.330 . S
C315 O316 1.245 1_655 S
C315 O324 1.289 . S
O316 C315 1.245 1_455 S
C317 O318 1.245 . S
C317 O319 1.289 . S
O318 C317 1.245 . S
O319 Mg312 2.141 . S
O319 C317 1.289 . S
O320 Mg312 2.048 . S
O320 C313 1.184 1_655 S
O321 Mg312 2.048 1_455 S
O321 C322 1.195 . S
C322 O321 1.195 . S
C322 O323 1.313 . S
O323 C322 1.313 . S
O324 Mg312 2.141 . S
O324 C315 1.289 . S
Mg325 O332 2.141 . S
Mg325 O333 2.048 . S
Mg325 O334 2.048 . S
Mg325 O337 2.141 . S
C326 O327 1.313 . S
C326 O333 1.195 . S
O327 C326 1.313 . S
C328 O329 1.245 . S
C328 O337 1.289 . S
O329 C328 1.245 . S
C330 O331 1.245 . S
C330 O332 1.289 . S
O331 C330 1.245 . S
O332 Mg325 2.141 . S
O332 C330 1.289 . S
O333 Mg325 2.048 . S
O333 C326 1.195 . S
O334 Mg325 2.048 . S
O334 C335 1.195 . S
C335 O334 1.195 . S
C335 O336 1.313 . S
O336 C335 1.313 . S
O337 Mg325 2.141 . S
O337 C328 1.289 . S
Mg338 O345 2.141 . S
Mg338 O346 2.048 . S
Mg338 O347 2.048 1_655 S
Mg338 O350 2.141 . S
C339 O340 1.334 . S
C339 O346 1.182 1_455 S
O340 C339 1.334 . S
C341 O342 1.245 1_655 S
C341 O350 1.289 . S
O342 C341 1.245 1_455 S
C343 O344 1.245 . S
C343 O345 1.289 . S
O344 C343 1.245 . S
O345 Mg338 2.141 . S
O345 C343 1.289 . S
O346 Mg338 2.048 . S
O346 C339 1.182 1_655 S
O347 Mg338 2.048 1_455 S
O347 C348 1.195 . S
C348 O347 1.195 . S
C348 O349 1.313 . S
O349 C348 1.313 . S
O350 Mg338 2.141 . S
O350 C341 1.289 . S
Mg351 O358 2.141 . S
Mg351 O359 2.048 . S
Mg351 O360 2.048 . S
Mg351 O363 2.141 . S
C352 O353 1.313 . S
C352 O359 1.195 . S
O353 C352 1.313 . S
C354 O355 1.245 . S
C354 O363 1.289 . S
O355 C354 1.245 . S
C356 O357 1.245 . S
C356 O358 1.289 . S
O357 C356 1.245 . S
O358 Mg351 2.141 . S
O358 C356 1.289 . S
O359 Mg351 2.048 . S
O359 C352 1.195 . S
O360 Mg351 2.048 . S
O360 C361 1.195 . S
C361 O360 1.195 . S
C361 O362 1.313 . S
O362 C361 1.313 . S
O363 Mg351 2.141 . S
O363 C354 1.289 . S
Mg364 O371 2.141 . S
Mg364 O372 2.048 1_455 S
Mg364 O373 2.048 . S
Mg364 O376 2.141 . S
C365 O366 1.313 . S
C365 O372 1.195 . S
O366 C365 1.313 . S
C367 O368 1.245 . S
C367 O376 1.289 . S
O368 C367 1.245 . S
C369 O370 1.245 1_455 S
C369 O371 1.289 . S
O370 C369 1.245 1_655 S
O371 Mg364 2.141 . S
O371 C369 1.289 . S
O372 Mg364 2.048 1_655 S
O372 C365 1.195 . S
O373 Mg364 2.048 . S
O373 C374 1.184 1_455 S
C374 O373 1.184 1_655 S
C374 O375 1.330 . S
O375 C374 1.330 . S
O376 Mg364 2.141 . S
O376 C367 1.289 . S
Mg377 O384 2.141 . S
Mg377 O385 2.048 . S
Mg377 O386 2.048 . S
Mg377 O389 2.141 . S
C378 O379 1.313 . S
C378 O385 1.195 . S
O379 C378 1.313 . S
C380 O381 1.245 . S
C380 O389 1.289 . S
O381 C380 1.245 . S
C382 O383 1.245 . S
C382 O384 1.289 . S
O383 C382 1.245 . S
O384 Mg377 2.141 . S
O384 C382 1.289 . S
O385 Mg377 2.048 . S
O385 C378 1.195 . S
O386 Mg377 2.048 . S
O386 C387 1.195 . S
C387 O386 1.195 . S
C387 O388 1.313 . S
O388 C387 1.313 . S
O389 Mg377 2.141 . S
O389 C380 1.289 . S
Mg390 O397 2.141 . S
Mg390 O398 2.048 1_455 S
Mg390 O399 2.048 . S
Mg390 O402 2.141 . S
C391 O392 1.313 . S
C391 O398 1.195 . S
O392 C391 1.313 . S
C393 O394 1.245 . S
C393 O402 1.289 . S
O394 C393 1.245 . S
C395 O396 1.245 1_455 S
C395 O397 1.289 . S
O396 C395 1.245 1_655 S
O397 Mg390 2.141 . S
O397 C395 1.289 . S
O398 Mg390 2.048 1_655 S
O398 C391 1.195 . S
O399 Mg390 2.048 . S
O399 C400 1.182 1_455 S
C400 O399 1.182 1_655 S
C400 O401 1.334 . S
O401 C400 1.334 . S
O402 Mg390 2.141 . S
O402 C393 1.289 . S
Mg403 O410 2.141 . S
Mg403 O411 2.048 . S
Mg403 O412 2.048 . S
Mg403 O415 2.141 . S
C404 O405 1.313 . S
C404 O411 1.195 . S
O405 C404 1.313 . S
C406 O407 1.245 . S
C406 O415 1.289 . S
O407 C406 1.245 . S
C408 O409 1.245 . S
C408 O410 1.289 . S
O409 C408 1.245 . S
O410 Mg403 2.141 . S
O410 C408 1.289 . S
O411 Mg403 2.048 . S
O411 C404 1.195 . S
O412 Mg403 2.048 . S
O412 C413 1.195 . S
C413 O412 1.195 . S
C413 O414 1.313 . S
O414 C413 1.313 . S
O415 Mg403 2.141 . S
O415 C406 1.289 . S
H416 C422 0.930 . S
H417 C426 0.930 . S
H418 C431 0.929 1_565 S
H419 C429 0.929 . S
H420 C424 0.929 . S
H421 C430 0.929 . S
C422 H416 0.930 . S
C422 C423 1.367 . S
C422 C430 1.378 . S
C423 C422 1.367 . S
C423 C431 1.433 . S
C424 H420 0.929 . S
C424 C426 1.378 . S
C424 C428 1.350 . S
C425 C428 1.463 . S
C425 C430 1.350 . S
C425 N433 1.427 . S
C426 H417 0.930 . S
C426 C424 1.378 . S
C426 C427 1.367 . S
C427 C426 1.367 . S
C427 C429 1.433 . S
C428 C424 1.350 . S
C428 C425 1.463 . S
C428 N432 1.427 . S
C429 H419 0.929 . S
C429 C427 1.433 . S
C429 N432 1.384 . S
C430 H421 0.929 . S
C430 C422 1.378 . S
C430 C425 1.350 . S
C431 H418 0.929 1_545 S
C431 C423 1.433 . S
C431 N433 1.384 . S
N432 C428 1.427 . S
N432 C429 1.384 . S
N433 C425 1.427 . S
N433 C431 1.384 . S
H434 C440 0.930 . S
H435 C444 0.930 . S
H436 C449 0.929 . S
H437 C447 0.929 . S
H438 C442 0.929 . S
H439 C448 0.929 . S
C440 H434 0.930 . S
C440 C441 1.367 . S
C440 C448 1.378 . S
C441 C440 1.367 . S
C441 C449 1.433 . S
C442 H438 0.929 . S
C442 C444 1.378 . S
C442 C446 1.350 . S
C443 C446 1.463 . S
C443 C448 1.350 . S
C443 N451 1.427 . S
C444 H435 0.930 . S
C444 C442 1.378 . S
C444 C445 1.367 . S
C445 C444 1.367 . S
C445 C447 1.433 . S
C446 C442 1.350 . S
C446 C443 1.463 . S
C446 N450 1.427 . S
C447 H437 0.929 . S
C447 C445 1.433 . S
C447 N450 1.384 . S
C448 H439 0.929 . S
C448 C440 1.378 . S
C448 C443 1.350 . S
C449 H436 0.929 . S
C449 C441 1.433 . S
C449 N451 1.384 . S
N450 C446 1.427 . S
N450 C447 1.384 . S
N451 C443 1.427 . S
N451 C449 1.384 . S
H452 C458 0.930 . S
H453 C462 0.930 . S
H454 C467 0.929 . S
H455 C465 0.929 . S
H456 C460 0.929 . S
H457 C466 0.929 . S
C458 H452 0.930 . S
C458 C459 1.367 . S
C458 C466 1.378 . S
C459 C458 1.367 . S
C459 C467 1.433 . S
C460 H456 0.929 . S
C460 C462 1.378 . S
C460 C464 1.350 . S
C461 C464 1.463 . S
C461 C466 1.350 . S
C461 N469 1.427 . S
C462 H453 0.930 . S
C462 C460 1.378 . S
C462 C463 1.367 . S
C463 C462 1.367 . S
C463 C465 1.433 . S
C464 C460 1.350 . S
C464 C461 1.463 . S
C464 N468 1.427 . S
C465 H455 0.929 . S
C465 C463 1.433 . S
C465 N468 1.384 . S
C466 H457 0.929 . S
C466 C458 1.378 . S
C466 C461 1.350 . S
C467 H454 0.929 . S
C467 C459 1.433 . S
C467 N469 1.384 . S
N468 C464 1.427 . S
N468 C465 1.384 . S
N469 C461 1.427 . S
N469 C467 1.384 . S
H470 C476 0.930 1_545 S
H471 C480 0.930 . S
H472 C485 0.929 . S
H473 C483 0.929 . S
H474 C478 0.929 . S
H475 C484 0.929 . S
C476 H470 0.930 1_565 S
C476 C477 1.367 . S
C476 C484 1.378 . S
C477 C476 1.367 . S
C477 C485 1.433 . S
C478 H474 0.929 . S
C478 C480 1.378 . S
C478 C482 1.350 . S
C479 C482 1.463 . S
C479 C484 1.350 . S
C479 N487 1.427 . S
C480 H471 0.930 . S
C480 C478 1.378 . S
C480 C481 1.367 . S
C481 C480 1.367 . S
C481 C483 1.433 . S
C482 C478 1.350 . S
C482 C479 1.463 . S
C482 N486 1.427 . S
C483 H473 0.929 . S
C483 C481 1.433 . S
C483 N486 1.384 . S
C484 H475 0.929 . S
C484 C476 1.378 . S
C484 C479 1.350 . S
C485 H472 0.929 . S
C485 C477 1.433 . S
C485 N487 1.384 . S
N486 C482 1.427 . S
N486 C483 1.384 . S
N487 C479 1.427 . S
N487 C485 1.384 . S
H488 C494 0.930 . S
H489 C498 0.930 . S
H490 C503 0.929 . S
H491 C501 0.929 . S
H492 C496 0.929 . S
H493 C502 0.929 . S
C494 H488 0.930 . S
C494 C495 1.367 . S
C494 C502 1.378 . S
C495 C494 1.367 . S
C495 C503 1.433 . S
C496 H492 0.929 . S
C496 C498 1.378 . S
C496 C500 1.350 . S
C497 C500 1.463 . S
C497 C502 1.350 . S
C497 N505 1.427 . S
C498 H489 0.930 . S
C498 C496 1.378 . S
C498 C499 1.367 . S
C499 C498 1.367 . S
C499 C501 1.433 . S
C500 C496 1.350 . S
C500 C497 1.463 . S
C500 N504 1.427 . S
C501 H491 0.929 . S
C501 C499 1.433 . S
C501 N504 1.384 . S
C502 H493 0.929 . S
C502 C494 1.378 . S
C502 C497 1.350 . S
C503 H490 0.929 . S
C503 C495 1.433 . S
C503 N505 1.384 . S
N504 C500 1.427 . S
N504 C501 1.384 . S
N505 C497 1.427 . S
N505 C503 1.384 . S
H506 C512 0.930 . S
H507 C516 0.930 . S
H508 C521 0.929 . S
H509 C519 0.929 . S
H510 C514 0.929 . S
H511 C520 0.929 . S
C512 H506 0.930 . S
C512 C513 1.367 . S
C512 C520 1.378 . S
C513 C512 1.367 . S
C513 C521 1.433 . S
C514 H510 0.929 . S
C514 C516 1.378 . S
C514 C518 1.350 . S
C515 C518 1.463 . S
C515 C520 1.350 . S
C515 N523 1.427 . S
C516 H507 0.930 . S
C516 C514 1.378 . S
C516 C517 1.367 . S
C517 C516 1.367 . S
C517 C519 1.433 . S
C518 C514 1.350 . S
C518 C515 1.463 . S
C518 N522 1.427 . S
C519 H509 0.929 . S
C519 C517 1.433 . S
C519 N522 1.384 . S
C520 H511 0.929 . S
C520 C512 1.378 . S
C520 C515 1.350 . S
C521 H508 0.929 . S
C521 C513 1.433 . S
C521 N523 1.384 . S
N522 C518 1.427 . S
N522 C519 1.384 . S
N523 C515 1.427 . S
N523 C521 1.384 . S
H524 C530 0.930 . S
H525 C534 0.930 . S
H526 C539 0.929 . S
H527 C537 0.929 . S
H528 C532 0.929 . S
H529 C538 0.929 . S
C530 H524 0.930 . S
C530 C531 1.367 . S
C530 C538 1.378 . S
C531 C530 1.367 . S
C531 C539 1.433 . S
C532 H528 0.929 . S
C532 C534 1.378 . S
C532 C536 1.350 . S
C533 C536 1.463 . S
C533 C538 1.350 . S
C533 N541 1.427 . S
C534 H525 0.930 . S
C534 C532 1.378 . S
C534 C535 1.367 . S
C535 C534 1.367 . S
C535 C537 1.433 . S
C536 C532 1.350 . S
C536 C533 1.463 . S
C536 N540 1.427 . S
C537 H527 0.929 . S
C537 C535 1.433 . S
C537 N540 1.384 . S
C538 H529 0.929 . S
C538 C530 1.378 . S
C538 C533 1.350 . S
C539 H526 0.929 . S
C539 C531 1.433 . S
C539 N541 1.384 . S
N540 C536 1.427 . S
N540 C537 1.384 . S
N541 C533 1.427 . S
N541 C539 1.384 . S
H542 C548 0.930 . S
H543 C552 0.930 . S
H544 C557 0.929 . S
H545 C555 0.929 . S
H546 C550 0.929 . S
H547 C556 0.929 . S
C548 H542 0.930 . S
C548 C549 1.367 . S
C548 C556 1.378 . S
C549 C548 1.367 . S
C549 C557 1.433 . S
C550 H546 0.929 . S
C550 C552 1.378 . S
C550 C554 1.350 . S
C551 C554 1.463 . S
C551 C556 1.350 . S
C551 N559 1.427 . S
C552 H543 0.930 . S
C552 C550 1.378 . S
C552 C553 1.367 . S
C553 C552 1.367 . S
C553 C555 1.433 . S
C554 C550 1.350 . S
C554 C551 1.463 . S
C554 N558 1.427 . S
C555 H545 0.929 . S
C555 C553 1.433 . S
C555 N558 1.384 . S
C556 H547 0.929 . S
C556 C548 1.378 . S
C556 C551 1.350 . S
C557 H544 0.929 . S
C557 C549 1.433 . S
C557 N559 1.384 . S
N558 C554 1.427 . S
N558 C555 1.384 . S
N559 C551 1.427 . S
N559 C557 1.384 . S
H560 C566 0.930 . S
H561 C570 0.930 . S
H562 C575 0.929 . S
H563 C573 0.929 . S
H564 C568 0.929 . S
H565 C574 0.929 . S
C566 H560 0.930 . S
C566 C567 1.367 1_455 S
C566 C574 1.378 . S
C567 C566 1.367 1_655 S
C567 C575 1.433 . S
C568 H564 0.929 . S
C568 C570 1.378 . S
C568 C572 1.350 . S
C569 C572 1.463 . S
C569 C574 1.350 1_655 S
C569 N577 1.427 . S
C570 H561 0.930 . S
C570 C568 1.378 . S
C570 C571 1.367 . S
C571 C570 1.367 . S
C571 C573 1.433 1_655 S
C572 C568 1.350 . S
C572 C569 1.463 . S
C572 N576 1.427 1_655 S
C573 H563 0.929 . S
C573 C571 1.433 1_455 S
C573 N576 1.384 . S
C574 H565 0.929 . S
C574 C566 1.378 . S
C574 C569 1.350 1_455 S
C575 H562 0.929 . S
C575 C567 1.433 . S
C575 N577 1.384 . S
N576 C572 1.427 1_455 S
N576 C573 1.384 . S
N577 C569 1.427 . S
N577 C575 1.384 . S
H578 C584 0.930 . S
H579 C588 0.930 1_565 S
H580 C593 0.929 . S
H581 C591 0.929 . S
H582 C586 0.929 . S
H583 C592 0.929 . S
C584 H578 0.930 . S
C584 C585 1.367 . S
C584 C592 1.378 . S
C585 C584 1.367 . S
C585 C593 1.433 . S
C586 H582 0.929 . S
C586 C588 1.378 . S
C586 C590 1.350 . S
C587 C590 1.463 . S
C587 C592 1.350 . S
C587 N595 1.427 . S
C588 H579 0.930 1_545 S
C588 C586 1.378 . S
C588 C589 1.367 . S
C589 C588 1.367 . S
C589 C591 1.433 . S
C590 C586 1.350 . S
C590 C587 1.463 . S
C590 N594 1.427 . S
C591 H581 0.929 . S
C591 C589 1.433 . S
C591 N594 1.384 . S
C592 H583 0.929 . S
C592 C584 1.378 . S
C592 C587 1.350 . S
C593 H580 0.929 . S
C593 C585 1.433 . S
C593 N595 1.384 . S
N594 C590 1.427 . S
N594 C591 1.384 . S
N595 C587 1.427 . S
N595 C593 1.384 . S
H596 C602 0.930 . S
H597 C606 0.930 . S
H598 C611 0.929 . S
H599 C609 0.929 1_545 S
H600 C604 0.929 . S
H601 C610 0.929 . S
C602 H596 0.930 . S
C602 C603 1.367 . S
C602 C610 1.378 . S
C603 C602 1.367 . S
C603 C611 1.433 1_455 S
C604 H600 0.929 . S
C604 C606 1.378 . S
C604 C608 1.350 1_655 S
C605 C608 1.463 . S
C605 C610 1.350 . S
C605 N613 1.427 1_455 S
C606 H597 0.930 . S
C606 C604 1.378 . S
C606 C607 1.367 1_655 S
C607 C606 1.367 1_455 S
C607 C609 1.433 . S
C608 C604 1.350 1_455 S
C608 C605 1.463 . S
C608 N612 1.427 . S
C609 H599 0.929 1_565 S
C609 C607 1.433 . S
C609 N612 1.384 . S
C610 H601 0.929 . S
C610 C602 1.378 . S
C610 C605 1.350 . S
C611 H598 0.929 . S
C611 C603 1.433 1_655 S
C611 N613 1.384 . S
N612 C608 1.427 . S
N612 C609 1.384 . S
N613 C605 1.427 1_655 S
N613 C611 1.384 . S
H614 C620 0.930 . S
H615 C624 0.930 . S
H616 C629 0.929 . S
H617 C627 0.929 . S
H618 C622 0.929 . S
H619 C628 0.929 . S
C620 H614 0.930 . S
C620 C621 1.367 . S
C620 C628 1.378 . S
C621 C620 1.367 . S
C621 C629 1.433 . S
C622 H618 0.929 . S
C622 C624 1.378 . S
C622 C626 1.350 . S
C623 C626 1.463 . S
C623 C628 1.350 . S
C623 N631 1.427 . S
C624 H615 0.930 . S
C624 C622 1.378 . S
C624 C625 1.367 . S
C625 C624 1.367 . S
C625 C627 1.433 . S
C626 C622 1.350 . S
C626 C623 1.463 . S
C626 N630 1.427 . S
C627 H617 0.929 . S
C627 C625 1.433 . S
C627 N630 1.384 . S
C628 H619 0.929 . S
C628 C620 1.378 . S
C628 C623 1.350 . S
C629 H616 0.929 . S
C629 C621 1.433 . S
C629 N631 1.384 . S
N630 C626 1.427 . S
N630 C627 1.384 . S
N631 C623 1.427 . S
N631 C629 1.384 . S
H632 C638 0.929 1_455 S
H633 C642 0.930 . S
H634 C647 0.929 . S
H635 C645 0.928 1_455 S
H636 C640 0.929 . S
H637 C646 0.927 1_455 S
C638 H632 0.929 1_655 S
C638 C639 1.367 . S
C638 C646 1.378 . S
C639 C638 1.367 . S
C639 C647 1.433 . S
C640 H636 0.929 . S
C640 C642 1.378 . S
C640 C644 1.350 . S
C641 C644 1.463 . S
C641 C646 1.350 . S
C641 N649 1.427 . S
C642 H633 0.930 . S
C642 C640 1.378 . S
C642 C643 1.367 . S
C643 C642 1.367 . S
C643 C645 1.433 . S
C644 C640 1.350 . S
C644 C641 1.463 . S
C644 N648 1.427 . S
C645 H635 0.928 1_655 S
C645 C643 1.433 . S
C645 N648 1.384 . S
C646 H637 0.927 1_655 S
C646 C638 1.378 . S
C646 C641 1.350 . S
C647 H634 0.929 . S
C647 C639 1.433 . S
C647 N649 1.384 . S
N648 C644 1.427 . S
N648 C645 1.384 . S
N649 C641 1.427 . S
N649 C647 1.384 . S
H650 C656 0.930 . S
H651 C660 0.930 . S
H652 C665 0.929 . S
H653 C663 0.929 . S
H654 C658 0.929 . S
H655 C664 0.929 . S
C656 H650 0.930 . S
C656 C657 1.367 . S
C656 C664 1.378 . S
C657 C656 1.367 . S
C657 C665 1.433 . S
C658 H654 0.929 . S
C658 C660 1.378 . S
C658 C662 1.350 . S
C659 C662 1.463 . S
C659 C664 1.350 . S
C659 N667 1.427 . S
C660 H651 0.930 . S
C660 C658 1.378 . S
C660 C661 1.367 . S
C661 C660 1.367 . S
C661 C663 1.433 . S
C662 C658 1.350 . S
C662 C659 1.463 . S
C662 N666 1.427 . S
C663 H653 0.929 . S
C663 C661 1.433 . S
C663 N666 1.384 . S
C664 H655 0.929 . S
C664 C656 1.378 . S
C664 C659 1.350 . S
C665 H652 0.929 . S
C665 C657 1.433 . S
C665 N667 1.384 . S
N666 C662 1.427 . S
N666 C663 1.384 . S
N667 C659 1.427 . S
N667 C665 1.384 . S
H668 C674 0.930 . S
H669 C678 0.930 . S
H670 C683 0.929 . S
H671 C681 0.929 . S
H672 C676 0.929 . S
H673 C682 0.929 . S
C674 H668 0.930 . S
C674 C675 1.326 1_655 S
C674 C682 1.378 . S
C675 C674 1.326 1_455 S
C675 C683 1.476 . S
C676 H672 0.929 . S
C676 C678 1.378 . S
C676 C680 1.350 . S
C677 C680 1.465 . S
C677 C682 1.317 1_455 S
C677 N685 1.462 . S
C678 H669 0.930 . S
C678 C676 1.378 . S
C678 C679 1.367 . S
C679 C678 1.367 . S
C679 C681 1.433 1_455 S
C680 C676 1.350 . S
C680 C677 1.465 . S
C680 N684 1.427 1_455 S
C681 H671 0.929 . S
C681 C679 1.433 1_655 S
C681 N684 1.384 . S
C682 H673 0.929 . S
C682 C674 1.378 . S
C682 C677 1.317 1_655 S
C683 H670 0.929 . S
C683 C675 1.476 . S
C683 N685 1.384 . S
N684 C680 1.427 1_655 S
N684 C681 1.384 . S
N685 C677 1.462 . S
N685 C683 1.384 . S
H686 C692 0.930 . S
H687 C696 0.930 . S
H688 C701 0.929 . S
H689 C699 0.929 . S
H690 C694 0.929 . S
H691 C700 0.929 . S
C692 H686 0.930 . S
C692 C693 1.367 . S
C692 C700 1.378 . S
C693 C692 1.367 . S
C693 C701 1.433 . S
C694 H690 0.929 . S
C694 C696 1.378 . S
C694 C698 1.350 . S
C695 C698 1.463 . S
C695 C700 1.350 . S
C695 N703 1.427 . S
C696 H687 0.930 . S
C696 C694 1.378 . S
C696 C697 1.367 . S
C697 C696 1.367 . S
C697 C699 1.433 . S
C698 C694 1.350 . S
C698 C695 1.463 . S
C698 N702 1.427 . S
C699 H689 0.929 . S
C699 C697 1.433 . S
C699 N702 1.384 . S
C700 H691 0.929 . S
C700 C692 1.378 . S
C700 C695 1.350 . S
C701 H688 0.929 . S
C701 C693 1.433 . S
C701 N703 1.384 . S
N702 C698 1.427 . S
N702 C699 1.384 . S
N703 C695 1.427 . S
N703 C701 1.384 . S
H704 C710 0.930 . S
H705 C714 0.930 . S
H706 C719 0.929 . S
H707 C717 0.929 . S
H708 C712 0.929 . S
H709 C718 0.929 . S
C710 H704 0.930 . S
C710 C711 1.367 . S
C710 C718 1.378 . S
C711 C710 1.367 . S
C711 C719 1.433 . S
C712 H708 0.929 . S
C712 C714 1.378 . S
C712 C716 1.350 . S
C713 C716 1.463 . S
C713 C718 1.350 . S
C713 N721 1.427 . S
C714 H705 0.930 . S
C714 C712 1.378 . S
C714 C715 1.367 . S
C715 C714 1.367 . S
C715 C717 1.433 . S
C716 C712 1.350 . S
C716 C713 1.463 . S
C716 N720 1.427 . S
C717 H707 0.929 . S
C717 C715 1.433 . S
C717 N720 1.384 . S
C718 H709 0.929 . S
C718 C710 1.378 . S
C718 C713 1.350 . S
C719 H706 0.929 . S
C719 C711 1.433 . S
C719 N721 1.384 . S
N720 C716 1.427 . S
N720 C717 1.384 . S
N721 C713 1.427 . S
N721 C719 1.384 . S
H722 C728 0.930 . S
H723 C732 0.930 . S
H724 C737 0.929 . S
H725 C735 0.929 . S
H726 C730 0.929 . S
H727 C736 0.929 . S
C728 H722 0.930 . S
C728 C729 1.367 . S
C728 C736 1.378 . S
C729 C728 1.367 . S
C729 C737 1.433 . S
C730 H726 0.929 . S
C730 C732 1.378 . S
C730 C734 1.350 . S
C731 C734 1.463 . S
C731 C736 1.350 . S
C731 N739 1.427 . S
C732 H723 0.930 . S
C732 C730 1.378 . S
C732 C733 1.367 . S
C733 C732 1.367 . S
C733 C735 1.433 . S
C734 C730 1.350 . S
C734 C731 1.463 . S
C734 N738 1.427 . S
C735 H725 0.929 . S
C735 C733 1.433 . S
C735 N738 1.384 . S
C736 H727 0.929 . S
C736 C728 1.378 . S
C736 C731 1.350 . S
C737 H724 0.929 . S
C737 C729 1.433 . S
C737 N739 1.384 . S
N738 C734 1.427 . S
N738 C735 1.384 . S
N739 C731 1.427 . S
N739 C737 1.384 . S
H740 C746 0.930 . S
H741 C750 0.930 . S
H742 C755 0.929 . S
H743 C753 0.929 . S
H744 C748 0.929 . S
H745 C754 0.929 . S
C746 H740 0.930 . S
C746 C747 1.367 . S
C746 C754 1.378 . S
C747 C746 1.367 . S
C747 C755 1.433 . S
C748 H744 0.929 . S
C748 C750 1.378 . S
C748 C752 1.350 . S
C749 C752 1.463 . S
C749 C754 1.350 . S
C749 N757 1.427 . S
C750 H741 0.930 . S
C750 C748 1.378 . S
C750 C751 1.367 . S
C751 C750 1.367 . S
C751 C753 1.433 . S
C752 C748 1.350 . S
C752 C749 1.463 . S
C752 N756 1.427 . S
C753 H743 0.929 . S
C753 C751 1.433 . S
C753 N756 1.384 . S
C754 H745 0.929 . S
C754 C746 1.378 . S
C754 C749 1.350 . S
C755 H742 0.929 . S
C755 C747 1.433 . S
C755 N757 1.384 . S
N756 C752 1.427 . S
N756 C753 1.384 . S
N757 C749 1.427 . S
N757 C755 1.384 . S
H758 C764 0.931 . S
H759 C768 0.930 . S
H760 C773 0.929 . S
H761 C771 0.929 . S
H762 C766 0.929 . S
H763 C772 0.929 . S
C764 H758 0.931 . S
C764 C765 1.367 . S
C764 C772 1.378 . S
C765 C764 1.367 . S
C765 C773 1.433 . S
C766 H762 0.929 . S
C766 C768 1.378 . S
C766 C770 1.350 . S
C767 C770 1.463 . S
C767 C772 1.350 . S
C767 N775 1.427 . S
C768 H759 0.930 . S
C768 C766 1.378 . S
C768 C769 1.367 . S
C769 C768 1.367 . S
C769 C771 1.433 . S
C770 C766 1.350 . S
C770 C767 1.463 . S
C770 N774 1.427 . S
C771 H761 0.929 . S
C771 C769 1.433 . S
C771 N774 1.384 . S
C772 H763 0.929 . S
C772 C764 1.378 . S
C772 C767 1.350 . S
C773 H760 0.929 . S
C773 C765 1.433 . S
C773 N775 1.384 . S
N774 C770 1.427 . S
N774 C771 1.384 . S
N775 C767 1.427 . S
N775 C773 1.384 . S
H776 C782 0.930 . S
H777 C786 0.930 . S
H778 C791 0.929 . S
H779 C789 0.929 . S
H780 C784 0.929 . S
H781 C790 0.929 . S
C782 H776 0.930 . S
C782 C783 1.367 . S
C782 C790 1.378 . S
C783 C782 1.367 . S
C783 C791 1.433 . S
C784 H780 0.929 . S
C784 C786 1.378 . S
C784 C788 1.350 . S
C785 C788 1.463 . S
C785 C790 1.350 . S
C785 N793 1.427 . S
C786 H777 0.930 . S
C786 C784 1.378 . S
C786 C787 1.367 . S
C787 C786 1.367 . S
C787 C789 1.433 1_545 S
C788 C784 1.350 . S
C788 C785 1.463 . S
C788 N792 1.427 . S
C789 H779 0.929 . S
C789 C787 1.433 1_565 S
C789 N792 1.384 1_565 S
C790 H781 0.929 . S
C790 C782 1.378 . S
C790 C785 1.350 . S
C791 H778 0.929 . S
C791 C783 1.433 . S
C791 N793 1.384 . S
N792 C788 1.427 . S
N792 C789 1.384 1_545 S
N793 C785 1.427 . S
N793 C791 1.384 . S
H794 C800 0.930 . S
H795 C804 0.930 . S
H796 C809 0.929 . S
H797 C807 0.929 . S
H798 C802 0.929 . S
H799 C808 0.929 . S
C800 H794 0.930 . S
C800 C801 1.367 . S
C800 C808 1.378 . S
C801 C800 1.367 . S
C801 C809 1.433 . S
C802 H798 0.929 . S
C802 C804 1.378 . S
C802 C806 1.350 . S
C803 C806 1.463 . S
C803 C808 1.350 . S
C803 N811 1.427 . S
C804 H795 0.930 . S
C804 C802 1.378 . S
C804 C805 1.367 . S
C805 C804 1.367 . S
C805 C807 1.433 . S
C806 C802 1.350 . S
C806 C803 1.463 . S
C806 N810 1.427 . S
C807 H797 0.929 . S
C807 C805 1.433 . S
C807 N810 1.384 . S
C808 H799 0.929 . S
C808 C800 1.378 . S
C808 C803 1.350 . S
C809 H796 0.929 . S
C809 C801 1.433 . S
C809 N811 1.384 . S
N810 C806 1.427 . S
N810 C807 1.384 . S
N811 C803 1.427 . S
N811 C809 1.384 . S
H812 C818 0.930 . S
H813 C822 0.930 . S
H814 C827 0.929 . S
H815 C825 0.929 . S
H816 C820 0.929 . S
H817 C826 0.929 . S
C818 H812 0.930 . S
C818 C819 1.367 . S
C818 C826 1.378 . S
C819 C818 1.367 . S
C819 C827 1.433 . S
C820 H816 0.929 . S
C820 C822 1.378 . S
C820 C824 1.350 . S
C821 C824 1.463 . S
C821 C826 1.350 . S
C821 N829 1.427 . S
C822 H813 0.930 . S
C822 C820 1.378 . S
C822 C823 1.367 . S
C823 C822 1.367 . S
C823 C825 1.433 . S
C824 C820 1.350 . S
C824 C821 1.463 . S
C824 N828 1.427 . S
C825 H815 0.929 . S
C825 C823 1.433 . S
C825 N828 1.384 . S
C826 H817 0.929 . S
C826 C818 1.378 . S
C826 C821 1.350 . S
C827 H814 0.929 . S
C827 C819 1.433 . S
C827 N829 1.384 . S
N828 C824 1.427 . S
N828 C825 1.384 . S
N829 C821 1.427 . S
N829 C827 1.384 . S
H830 C836 0.930 . S
H831 C840 0.930 . S
H832 C845 0.929 . S
H833 C843 0.929 . S
H834 C838 0.929 . S
H835 C844 0.929 . S
C836 H830 0.930 . S
C836 C837 1.367 . S
C836 C844 1.378 . S
C837 C836 1.367 . S
C837 C845 1.433 . S
C838 H834 0.929 . S
C838 C840 1.378 . S
C838 C842 1.350 . S
C839 C842 1.463 . S
C839 C844 1.350 . S
C839 N847 1.427 . S
C840 H831 0.930 . S
C840 C838 1.378 . S
C840 C841 1.367 . S
C841 C840 1.367 . S
C841 C843 1.433 1_545 S
C842 C838 1.350 . S
C842 C839 1.463 . S
C842 N846 1.427 . S
C843 H833 0.929 . S
C843 C841 1.433 1_565 S
C843 N846 1.384 1_565 S
C844 H835 0.929 . S
C844 C836 1.378 . S
C844 C839 1.350 . S
C845 H832 0.929 . S
C845 C837 1.433 . S
C845 N847 1.384 . S
N846 C842 1.427 . S
N846 C843 1.384 1_545 S
N847 C839 1.427 . S
N847 C845 1.384 . S
H848 C854 0.930 . S
H849 C858 0.930 . S
H850 C863 0.929 . S
H851 C861 0.929 . S
H852 C856 0.929 . S
H853 C862 0.929 . S
C854 H848 0.930 . S
C854 C855 1.367 . S
C854 C862 1.378 . S
C855 C854 1.367 . S
C855 C863 1.433 . S
C856 H852 0.929 . S
C856 C858 1.378 . S
C856 C860 1.350 . S
C857 C860 1.463 . S
C857 C862 1.350 . S
C857 N865 1.427 . S
C858 H849 0.930 . S
C858 C856 1.378 . S
C858 C859 1.367 . S
C859 C858 1.367 . S
C859 C861 1.433 . S
C860 C856 1.350 . S
C860 C857 1.463 . S
C860 N864 1.427 . S
C861 H851 0.929 . S
C861 C859 1.433 . S
C861 N864 1.384 . S
C862 H853 0.929 . S
C862 C854 1.378 . S
C862 C857 1.350 . S
C863 H850 0.929 . S
C863 C855 1.433 . S
C863 N865 1.384 . S
N864 C860 1.427 . S
N864 C861 1.384 . S
N865 C857 1.427 . S
N865 C863 1.384 . S
H866 C872 0.930 . S
H867 C876 0.930 1_545 S
H868 C881 0.929 . S
H869 C879 0.929 . S
H870 C874 0.929 . S
H871 C880 0.929 . S
C872 H866 0.930 . S
C872 C873 1.367 . S
C872 C880 1.378 . S
C873 C872 1.367 . S
C873 C881 1.433 . S
C874 H870 0.929 . S
C874 C876 1.378 . S
C874 C878 1.350 . S
C875 C878 1.463 . S
C875 C880 1.350 . S
C875 N883 1.427 . S
C876 H867 0.930 1_565 S
C876 C874 1.378 . S
C876 C877 1.367 . S
C877 C876 1.367 . S
C877 C879 1.433 . S
C878 C874 1.350 . S
C878 C875 1.463 . S
C878 N882 1.427 . S
C879 H869 0.929 . S
C879 C877 1.433 . S
C879 N882 1.384 . S
C880 H871 0.929 . S
C880 C872 1.378 . S
C880 C875 1.350 . S
C881 H868 0.929 . S
C881 C873 1.433 . S
C881 N883 1.384 . S
N882 C878 1.427 . S
N882 C879 1.384 . S
N883 C875 1.427 . S
N883 C881 1.384 . S
H884 C890 0.930 . S
H885 C894 0.930 . S
H886 C899 0.929 . S
H887 C897 0.929 1_545 S
H888 C892 0.929 . S
H889 C898 0.929 . S
C890 H884 0.930 . S
C890 C891 1.367 . S
C890 C898 1.378 . S
C891 C890 1.367 . S
C891 C899 1.433 . S
C892 H888 0.929 . S
C892 C894 1.378 . S
C892 C896 1.350 . S
C893 C896 1.463 . S
C893 C898 1.350 . S
C893 N901 1.427 . S
C894 H885 0.930 . S
C894 C892 1.378 . S
C894 C895 1.367 . S
C895 C894 1.367 . S
C895 C897 1.433 . S
C896 C892 1.350 . S
C896 C893 1.463 . S
C896 N900 1.427 . S
C897 H887 0.929 1_565 S
C897 C895 1.433 . S
C897 N900 1.384 . S
C898 H889 0.929 . S
C898 C890 1.378 . S
C898 C893 1.350 . S
C899 H886 0.929 . S
C899 C891 1.433 . S
C899 N901 1.384 . S
N900 C896 1.427 . S
N900 C897 1.384 . S
N901 C893 1.427 . S
N901 C899 1.384 . S
H902 C908 0.930 . S
H903 C912 0.930 . S
H904 C917 0.929 . S
H905 C915 0.929 . S
H906 C910 0.929 . S
H907 C916 0.929 . S
C908 H902 0.930 . S
C908 C909 1.367 . S
C908 C916 1.378 . S
C909 C908 1.367 . S
C909 C917 1.433 . S
C910 H906 0.929 . S
C910 C912 1.378 . S
C910 C914 1.350 . S
C911 C914 1.463 . S
C911 C916 1.350 . S
C911 N919 1.427 . S
C912 H903 0.930 . S
C912 C910 1.378 . S
C912 C913 1.367 . S
C913 C912 1.367 . S
C913 C915 1.433 . S
C914 C910 1.350 . S
C914 C911 1.463 . S
C914 N918 1.427 . S
C915 H905 0.929 . S
C915 C913 1.433 . S
C915 N918 1.384 . S
C916 H907 0.929 . S
C916 C908 1.378 . S
C916 C911 1.350 . S
C917 H904 0.929 . S
C917 C909 1.433 . S
C917 N919 1.384 . S
N918 C914 1.427 . S
N918 C915 1.384 . S
N919 C911 1.427 . S
N919 C917 1.384 . S
H920 C926 0.930 . S
H921 C930 0.930 . S
H922 C935 0.929 . S
H923 C933 0.929 . S
H924 C928 0.929 . S
H925 C934 0.929 . S
C926 H920 0.930 . S
C926 C927 1.367 . S
C926 C934 1.378 . S
C927 C926 1.367 . S
C927 C935 1.433 . S
C928 H924 0.929 . S
C928 C930 1.378 . S
C928 C932 1.350 . S
C929 C932 1.463 . S
C929 C934 1.350 . S
C929 N937 1.427 . S
C930 H921 0.930 . S
C930 C928 1.378 . S
C930 C931 1.367 . S
C931 C930 1.367 . S
C931 C933 1.433 . S
C932 C928 1.350 . S
C932 C929 1.463 . S
C932 N936 1.427 . S
C933 H923 0.929 . S
C933 C931 1.433 . S
C933 N936 1.384 . S
C934 H925 0.929 . S
C934 C926 1.378 . S
C934 C929 1.350 . S
C935 H922 0.929 . S
C935 C927 1.433 . S
C935 N937 1.384 . S
N936 C932 1.427 . S
N936 C933 1.384 . S
N937 C929 1.427 . S
N937 C935 1.384 . S
H938 C944 0.930 1_565 S
H939 C948 0.930 . S
H940 C953 0.929 . S
H941 C951 0.929 . S
H942 C946 0.929 . S
H943 C952 0.929 . S
C944 H938 0.930 1_545 S
C944 C945 1.367 . S
C944 C952 1.378 . S
C945 C944 1.367 . S
C945 C953 1.433 . S
C946 H942 0.929 . S
C946 C948 1.378 . S
C946 C950 1.350 . S
C947 C950 1.463 . S
C947 C952 1.350 . S
C947 N955 1.427 . S
C948 H939 0.930 . S
C948 C946 1.378 . S
C948 C949 1.367 . S
C949 C948 1.367 . S
C949 C951 1.433 . S
C950 C946 1.350 . S
C950 C947 1.463 . S
C950 N954 1.427 . S
C951 H941 0.929 . S
C951 C949 1.433 . S
C951 N954 1.384 . S
C952 H943 0.929 . S
C952 C944 1.378 . S
C952 C947 1.350 . S
C953 H940 0.929 . S
C953 C945 1.433 . S
C953 N955 1.384 . S
N954 C950 1.427 . S
N954 C951 1.384 . S
N955 C947 1.427 . S
N955 C953 1.384 . S
H956 C962 0.930 . S
H957 C966 0.930 . S
H958 C971 0.929 . S
H959 C969 0.929 . S
H960 C964 0.929 . S
H961 C970 0.929 . S
C962 H956 0.930 . S
C962 C963 1.367 . S
C962 C970 1.378 . S
C963 C962 1.367 . S
C963 C971 1.433 . S
C964 H960 0.929 . S
C964 C966 1.378 . S
C964 C968 1.350 . S
C965 C968 1.463 . S
C965 C970 1.350 . S
C965 N973 1.427 . S
C966 H957 0.930 . S
C966 C964 1.378 . S
C966 C967 1.367 . S
C967 C966 1.367 . S
C967 C969 1.433 . S
C968 C964 1.350 . S
C968 C965 1.463 . S
C968 N972 1.427 . S
C969 H959 0.929 . S
C969 C967 1.433 . S
C969 N972 1.384 . S
C970 H961 0.929 . S
C970 C962 1.378 . S
C970 C965 1.350 . S
C971 H958 0.929 . S
C971 C963 1.433 . S
C971 N973 1.384 . S
N972 C968 1.427 . S
N972 C969 1.384 . S
N973 C965 1.427 . S
N973 C971 1.384 . S
H974 C980 0.930 . S
H975 C984 0.930 . S
H976 C989 0.929 . S
H977 C987 0.929 . S
H978 C982 0.929 . S
H979 C988 0.929 . S
C980 H974 0.930 . S
C980 C981 1.367 . S
C980 C988 1.378 . S
C981 C980 1.367 . S
C981 C989 1.433 . S
C982 H978 0.929 . S
C982 C984 1.378 . S
C982 C986 1.350 . S
C983 C986 1.463 . S
C983 C988 1.350 . S
C983 N991 1.427 . S
C984 H975 0.930 . S
C984 C982 1.378 . S
C984 C985 1.367 . S
C985 C984 1.367 . S
C985 C987 1.433 . S
C986 C982 1.350 . S
C986 C983 1.463 . S
C986 N990 1.427 . S
C987 H977 0.929 . S
C987 C985 1.433 . S
C987 N990 1.384 . S
C988 H979 0.929 . S
C988 C980 1.378 . S
C988 C983 1.350 . S
C989 H976 0.929 . S
C989 C981 1.433 . S
C989 N991 1.384 . S
N990 C986 1.427 . S
N990 C987 1.384 . S
N991 C983 1.427 . S
N991 C989 1.384 . S
H992 C998 0.930 . S
H993 C1002 0.930 . S
H994 C1007 0.929 . S
H995 C1005 0.929 . S
H996 C1000 0.929 . S
H997 C1006 0.929 . S
C998 H992 0.930 . S
C998 C999 1.367 . S
C998 C1006 1.378 . S
C999 C998 1.367 . S
C999 C1007 1.433 1_545 S
C1000 H996 0.929 . S
C1000 C1002 1.378 . S
C1000 C1004 1.350 . S
C1001 C1004 1.463 1_544 S
C1001 C1006 1.350 . S
C1001 N1009 1.427 1_545 S
C1002 H993 0.930 . S
C1002 C1000 1.378 . S
C1002 C1003 1.367 . S
C1003 C1002 1.367 . S
C1003 C1005 1.433 1_565 S
C1004 C1000 1.350 . S
C1004 C1001 1.463 1_566 S
C1004 N1008 1.427 1_565 S
C1005 H995 0.929 . S
C1005 C1003 1.433 1_545 S
C1005 N1008 1.384 . S
C1006 H997 0.929 . S
C1006 C998 1.378 . S
C1006 C1001 1.350 . S
C1007 H994 0.929 . S
C1007 C999 1.433 1_565 S
C1007 N1009 1.384 . S
N1008 C1004 1.427 1_545 S
N1008 C1005 1.384 . S
N1009 C1001 1.427 1_565 S
N1009 C1007 1.384 . S
H1010 C1016 0.930 . S
H1011 C1020 0.930 . S
H1012 C1025 0.929 . S
H1013 C1023 0.929 . S
H1014 C1018 0.929 . S
H1015 C1024 0.929 . S
C1016 H1010 0.930 . S
C1016 C1017 1.367 . S
C1016 C1024 1.378 . S
C1017 C1016 1.367 . S
C1017 C1025 1.433 . S
C1018 H1014 0.929 . S
C1018 C1020 1.378 . S
C1018 C1022 1.350 . S
C1019 C1022 1.463 1_554 S
C1019 C1024 1.350 . S
C1019 N1027 1.427 . S
C1020 H1011 0.930 . S
C1020 C1018 1.378 . S
C1020 C1021 1.367 . S
C1021 C1020 1.367 . S
C1021 C1023 1.433 . S
C1022 C1018 1.350 . S
C1022 C1019 1.463 1_556 S
C1022 N1026 1.427 . S
C1023 H1013 0.929 . S
C1023 C1021 1.433 . S
C1023 N1026 1.384 . S
C1024 H1015 0.929 . S
C1024 C1016 1.378 . S
C1024 C1019 1.350 . S
C1025 H1012 0.929 . S
C1025 C1017 1.433 . S
C1025 N1027 1.384 . S
N1026 C1022 1.427 . S
N1026 C1023 1.384 . S
N1027 C1019 1.427 . S
N1027 C1025 1.384 . S
H1028 C1034 0.930 . S
H1029 C1038 0.930 . S
H1030 C1043 0.929 . S
H1031 C1041 0.929 . S
H1032 C1036 0.929 . S
H1033 C1042 0.929 . S
C1034 H1028 0.930 . S
C1034 C1035 1.367 . S
C1034 C1042 1.378 . S
C1035 C1034 1.367 . S
C1035 C1043 1.433 . S
C1036 H1032 0.929 . S
C1036 C1038 1.378 . S
C1036 C1040 1.350 . S
C1037 C1040 1.463 . S
C1037 C1042 1.350 . S
C1037 N1045 1.427 . S
C1038 H1029 0.930 . S
C1038 C1036 1.378 . S
C1038 C1039 1.367 . S
C1039 C1038 1.367 . S
C1039 C1041 1.433 . S
C1040 C1036 1.350 . S
C1040 C1037 1.463 . S
C1040 N1044 1.427 . S
C1041 H1031 0.929 . S
C1041 C1039 1.433 . S
C1041 N1044 1.384 . S
C1042 H1033 0.929 . S
C1042 C1034 1.378 . S
C1042 C1037 1.350 . S
C1043 H1030 0.929 . S
C1043 C1035 1.433 . S
C1043 N1045 1.384 . S
N1044 C1040 1.427 . S
N1044 C1041 1.384 . S
N1045 C1037 1.427 . S
N1045 C1043 1.384 . S
H1046 C1052 0.930 . S
H1047 C1056 0.930 . S
H1048 C1061 0.929 . S
H1049 C1059 0.929 . S
H1050 C1054 0.929 . S
H1051 C1060 0.929 . S
C1052 H1046 0.930 . S
C1052 C1053 1.367 . S
C1052 C1060 1.378 . S
C1053 C1052 1.367 . S
C1053 C1061 1.433 1_545 S
C1054 H1050 0.929 . S
C1054 C1056 1.378 . S
C1054 C1058 1.350 . S
C1055 C1058 1.463 1_545 S
C1055 C1060 1.350 . S
C1055 N1063 1.427 1_545 S
C1056 H1047 0.930 . S
C1056 C1054 1.378 . S
C1056 C1057 1.367 . S
C1057 C1056 1.367 . S
C1057 C1059 1.433 1_565 S
C1058 C1054 1.350 . S
C1058 C1055 1.463 1_565 S
C1058 N1062 1.427 1_565 S
C1059 H1049 0.929 . S
C1059 C1057 1.433 1_545 S
C1059 N1062 1.384 . S
C1060 H1051 0.929 . S
C1060 C1052 1.378 . S
C1060 C1055 1.350 . S
C1061 H1048 0.929 . S
C1061 C1053 1.433 1_565 S
C1061 N1063 1.384 . S
N1062 C1058 1.427 1_545 S
N1062 C1059 1.384 . S
N1063 C1055 1.427 1_565 S
N1063 C1061 1.384 . S
H1064 C1070 0.930 . S
H1065 C1074 0.930 . S
H1066 C1079 0.929 . S
H1067 C1077 0.929 . S
H1068 C1072 0.929 . S
H1069 C1078 0.929 . S
C1070 H1064 0.930 . S
C1070 C1071 1.367 . S
C1070 C1078 1.378 . S
C1071 C1070 1.367 . S
C1071 C1079 1.433 . S
C1072 H1068 0.929 . S
C1072 C1074 1.378 . S
C1072 C1076 1.350 . S
C1073 C1076 1.463 1_556 S
C1073 C1078 1.350 . S
C1073 N1081 1.427 . S
C1074 H1065 0.930 . S
C1074 C1072 1.378 . S
C1074 C1075 1.367 . S
C1075 C1074 1.367 . S
C1075 C1077 1.433 . S
C1076 C1072 1.350 . S
C1076 C1073 1.463 1_554 S
C1076 N1080 1.427 . S
C1077 H1067 0.929 . S
C1077 C1075 1.433 . S
C1077 N1080 1.384 . S
C1078 H1069 0.929 . S
C1078 C1070 1.378 . S
C1078 C1073 1.350 . S
C1079 H1066 0.929 . S
C1079 C1071 1.433 . S
C1079 N1081 1.384 . S
N1080 C1076 1.427 . S
N1080 C1077 1.384 . S
N1081 C1073 1.427 . S
N1081 C1079 1.384 . S
H1082 C1088 0.930 . S
H1083 C1092 0.930 . S
H1084 C1097 0.929 . S
H1085 C1095 0.929 . S
H1086 C1090 0.929 . S
H1087 C1096 0.929 . S
C1088 H1082 0.930 . S
C1088 C1089 1.367 . S
C1088 C1096 1.378 . S
C1089 C1088 1.367 . S
C1089 C1097 1.433 . S
C1090 H1086 0.929 . S
C1090 C1092 1.378 . S
C1090 C1094 1.350 . S
C1091 C1094 1.463 . S
C1091 C1096 1.350 . S
C1091 N1099 1.427 . S
C1092 H1083 0.930 . S
C1092 C1090 1.378 . S
C1092 C1093 1.367 . S
C1093 C1092 1.367 . S
C1093 C1095 1.433 . S
C1094 C1090 1.350 . S
C1094 C1091 1.463 . S
C1094 N1098 1.427 . S
C1095 H1085 0.929 . S
C1095 C1093 1.433 . S
C1095 N1098 1.384 . S
C1096 H1087 0.929 . S
C1096 C1088 1.378 . S
C1096 C1091 1.350 . S
C1097 H1084 0.929 . S
C1097 C1089 1.433 . S
C1097 N1099 1.384 . S
N1098 C1094 1.427 . S
N1098 C1095 1.384 . S
N1099 C1091 1.427 . S
N1099 C1097 1.384 . S
H1100 C1106 0.930 . S
H1101 C1110 0.930 . S
H1102 C1115 0.929 . S
H1103 C1113 0.929 . S
H1104 C1108 0.929 . S
H1105 C1114 0.929 . S
C1106 H1100 0.930 . S
C1106 C1107 1.367 1_565 S
C1106 C1114 1.378 . S
C1107 C1106 1.367 1_545 S
C1107 C1115 1.433 . S
C1108 H1104 0.929 . S
C1108 C1110 1.378 . S
C1108 C1112 1.350 . S
C1109 C1112 1.463 . S
C1109 C1114 1.350 1_545 S
C1109 N1117 1.427 . S
C1110 H1101 0.930 . S
C1110 C1108 1.378 . S
C1110 C1111 1.367 1_545 S
C1111 C1110 1.367 1_565 S
C1111 C1113 1.433 . S
C1112 C1108 1.350 . S
C1112 C1109 1.463 . S
C1112 N1116 1.427 1_545 S
C1113 H1103 0.929 . S
C1113 C1111 1.433 . S
C1113 N1116 1.384 . S
C1114 H1105 0.929 . S
C1114 C1106 1.378 . S
C1114 C1109 1.350 1_565 S
C1115 H1102 0.929 . S
C1115 C1107 1.433 . S
C1115 N1117 1.384 . S
N1116 C1112 1.427 1_565 S
N1116 C1113 1.384 . S
N1117 C1109 1.427 . S
N1117 C1115 1.384 . S
H1118 C1124 0.930 . S
H1119 C1128 0.930 . S
H1120 C1133 0.929 . S
H1121 C1131 0.929 . S
H1122 C1126 0.929 . S
H1123 C1132 0.929 . S
C1124 H1118 0.930 . S
C1124 C1125 1.367 . S
C1124 C1132 1.378 . S
C1125 C1124 1.367 . S
C1125 C1133 1.433 . S
C1126 H1122 0.929 . S
C1126 C1128 1.378 . S
C1126 C1130 1.350 . S
C1127 C1130 1.463 . S
C1127 C1132 1.350 . S
C1127 N1135 1.427 . S
C1128 H1119 0.930 . S
C1128 C1126 1.378 . S
C1128 C1129 1.367 . S
C1129 C1128 1.367 . S
C1129 C1131 1.433 . S
C1130 C1126 1.350 . S
C1130 C1127 1.463 . S
C1130 N1134 1.427 . S
C1131 H1121 0.929 . S
C1131 C1129 1.433 . S
C1131 N1134 1.384 . S
C1132 H1123 0.929 . S
C1132 C1124 1.378 . S
C1132 C1127 1.350 . S
C1133 H1120 0.929 . S
C1133 C1125 1.433 . S
C1133 N1135 1.384 . S
N1134 C1130 1.427 . S
N1134 C1131 1.384 . S
N1135 C1127 1.427 . S
N1135 C1133 1.384 . S
H1136 C1142 0.930 . S
H1137 C1146 0.930 . S
H1138 C1151 0.929 . S
H1139 C1149 0.929 . S
H1140 C1144 0.929 . S
H1141 C1150 0.929 . S
C1142 H1136 0.930 . S
C1142 C1143 1.367 . S
C1142 C1150 1.378 . S
C1143 C1142 1.367 . S
C1143 C1151 1.433 . S
C1144 H1140 0.929 . S
C1144 C1146 1.378 . S
C1144 C1148 1.350 . S
C1145 C1148 1.463 . S
C1145 C1150 1.350 . S
C1145 N1153 1.427 . S
C1146 H1137 0.930 . S
C1146 C1144 1.378 . S
C1146 C1147 1.367 . S
C1147 C1146 1.367 . S
C1147 C1149 1.433 . S
C1148 C1144 1.350 . S
C1148 C1145 1.463 . S
C1148 N1152 1.427 . S
C1149 H1139 0.929 . S
C1149 C1147 1.433 . S
C1149 N1152 1.384 . S
C1150 H1141 0.929 . S
C1150 C1142 1.378 . S
C1150 C1145 1.350 . S
C1151 H1138 0.929 . S
C1151 C1143 1.433 . S
C1151 N1153 1.384 . S
N1152 C1148 1.427 . S
N1152 C1149 1.384 . S
N1153 C1145 1.427 . S
N1153 C1151 1.384 . S
H1154 C1160 0.930 . S
H1155 C1164 0.930 . S
H1156 C1169 0.929 . S
H1157 C1167 0.929 . S
H1158 C1162 0.929 . S
H1159 C1168 0.929 . S
C1160 H1154 0.930 . S
C1160 C1161 1.367 . S
C1160 C1168 1.378 . S
C1161 C1160 1.367 . S
C1161 C1169 1.433 . S
C1162 H1158 0.929 . S
C1162 C1164 1.378 . S
C1162 C1166 1.350 . S
C1163 C1166 1.463 . S
C1163 C1168 1.350 . S
C1163 N1171 1.427 . S
C1164 H1155 0.930 . S
C1164 C1162 1.378 . S
C1164 C1165 1.367 . S
C1165 C1164 1.367 . S
C1165 C1167 1.433 . S
C1166 C1162 1.350 . S
C1166 C1163 1.463 . S
C1166 N1170 1.427 . S
C1167 H1157 0.929 . S
C1167 C1165 1.433 . S
C1167 N1170 1.384 . S
C1168 H1159 0.929 . S
C1168 C1160 1.378 . S
C1168 C1163 1.350 . S
C1169 H1156 0.929 . S
C1169 C1161 1.433 . S
C1169 N1171 1.384 . S
N1170 C1166 1.427 . S
N1170 C1167 1.384 . S
N1171 C1163 1.427 . S
N1171 C1169 1.384 . S
H1172 C1178 0.930 . S
H1173 C1182 0.930 . S
H1174 C1187 0.929 . S
H1175 C1185 0.929 . S
H1176 C1180 0.929 . S
H1177 C1186 0.929 . S
C1178 H1172 0.930 . S
C1178 C1179 1.367 . S
C1178 C1186 1.378 . S
C1179 C1178 1.367 . S
C1179 C1187 1.433 . S
C1180 H1176 0.929 . S
C1180 C1182 1.378 . S
C1180 C1184 1.350 . S
C1181 C1184 1.463 . S
C1181 C1186 1.350 . S
C1181 N1189 1.427 . S
C1182 H1173 0.930 . S
C1182 C1180 1.378 . S
C1182 C1183 1.367 . S
C1183 C1182 1.367 . S
C1183 C1185 1.433 . S
C1184 C1180 1.350 . S
C1184 C1181 1.463 . S
C1184 N1188 1.427 . S
C1185 H1175 0.929 . S
C1185 C1183 1.433 . S
C1185 N1188 1.384 . S
C1186 H1177 0.929 . S
C1186 C1178 1.378 . S
C1186 C1181 1.350 . S
C1187 H1174 0.929 . S
C1187 C1179 1.433 . S
C1187 N1189 1.384 . S
N1188 C1184 1.427 . S
N1188 C1185 1.384 . S
N1189 C1181 1.427 . S
N1189 C1187 1.384 . S
H1190 C1196 0.930 . S
H1191 C1200 0.930 . S
H1192 C1205 0.929 . S
H1193 C1203 0.929 . S
H1194 C1198 0.929 . S
H1195 C1204 0.929 . S
C1196 H1190 0.930 . S
C1196 C1197 1.367 . S
C1196 C1204 1.378 . S
C1197 C1196 1.367 . S
C1197 C1205 1.433 . S
C1198 H1194 0.929 . S
C1198 C1200 1.378 . S
C1198 C1202 1.350 . S
C1199 C1202 1.463 . S
C1199 C1204 1.350 . S
C1199 N1207 1.427 . S
C1200 H1191 0.930 . S
C1200 C1198 1.378 . S
C1200 C1201 1.367 . S
C1201 C1200 1.367 . S
C1201 C1203 1.433 . S
C1202 C1198 1.350 . S
C1202 C1199 1.463 . S
C1202 N1206 1.427 . S
C1203 H1193 0.929 . S
C1203 C1201 1.433 . S
C1203 N1206 1.384 . S
C1204 H1195 0.929 . S
C1204 C1196 1.378 . S
C1204 C1199 1.350 . S
C1205 H1192 0.929 . S
C1205 C1197 1.433 . S
C1205 N1207 1.384 . S
N1206 C1202 1.427 . S
N1206 C1203 1.384 . S
N1207 C1199 1.427 . S
N1207 C1205 1.384 . S
H1208 C1214 0.930 . S
H1209 C1218 0.930 . S
H1210 C1223 0.929 . S
H1211 C1221 0.929 . S
H1212 C1216 0.929 . S
H1213 C1222 0.929 . S
C1214 H1208 0.930 . S
C1214 C1215 1.364 1_655 S
C1214 C1222 1.378 . S
C1215 C1214 1.364 1_455 S
C1215 C1223 1.436 1_565 S
C1216 H1212 0.929 . S
C1216 C1218 1.378 . S
C1216 C1220 1.351 1_455 S
C1217 C1220 1.463 1_465 S
C1217 C1222 1.350 1_455 S
C1217 N1225 1.427 1_565 S
C1218 H1209 0.930 . S
C1218 C1216 1.378 . S
C1218 C1219 1.364 1_455 S
C1219 C1218 1.364 1_655 S
C1219 C1221 1.436 1_545 S
C1220 C1216 1.351 1_655 S
C1220 C1217 1.463 1_645 S
C1220 N1224 1.427 1_545 S
C1221 H1211 0.929 . S
C1221 C1219 1.436 1_565 S
C1221 N1224 1.384 . S
C1222 H1213 0.929 . S
C1222 C1214 1.378 . S
C1222 C1217 1.350 1_655 S
C1223 H1210 0.929 . S
C1223 C1215 1.436 1_545 S
C1223 N1225 1.384 . S
N1224 C1220 1.427 1_565 S
N1224 C1221 1.384 . S
N1225 C1217 1.427 1_545 S
N1225 C1223 1.384 . S
H1226 C1232 0.930 . S
H1227 C1236 0.930 . S
H1228 C1241 0.929 . S
H1229 C1239 0.929 . S
H1230 C1234 0.929 . S
H1231 C1240 0.929 . S
C1232 H1226 0.930 . S
C1232 C1233 1.394 . S
C1232 C1240 1.378 . S
C1233 C1232 1.394 . S
C1233 C1241 1.406 1_655 S
C1234 H1230 0.929 . S
C1234 C1236 1.378 . S
C1234 C1238 1.361 . S
C1235 C1238 1.461 1_655 S
C1235 C1240 1.372 . S
C1235 N1243 1.405 1_655 S
C1236 H1227 0.930 . S
C1236 C1234 1.378 . S
C1236 C1237 1.383 . S
C1237 C1236 1.383 . S
C1237 C1239 1.417 1_455 S
C1238 C1234 1.361 . S
C1238 C1235 1.461 1_455 S
C1238 N1242 1.416 1_455 S
C1239 H1229 0.929 . S
C1239 C1237 1.417 1_655 S
C1239 N1242 1.384 . S
C1240 H1231 0.929 . S
C1240 C1232 1.378 . S
C1240 C1235 1.372 . S
C1241 H1228 0.929 . S
C1241 C1233 1.406 1_455 S
C1241 N1243 1.384 . S
N1242 C1238 1.416 1_655 S
N1242 C1239 1.384 . S
N1243 C1235 1.405 1_455 S
N1243 C1241 1.384 . S
H1244 C1250 0.930 . S
H1245 C1254 0.930 . S
H1246 C1259 0.929 . S
H1247 C1257 0.929 . S
H1248 C1252 0.929 . S
H1249 C1258 0.929 . S
C1250 H1244 0.930 . S
C1250 C1251 1.368 1_455 S
C1250 C1258 1.378 . S
C1251 C1250 1.368 1_655 S
C1251 C1259 1.432 . S
C1252 H1248 0.929 . S
C1252 C1254 1.378 . S
C1252 C1256 1.349 . S
C1253 C1256 1.462 1_455 S
C1253 C1258 1.355 . S
C1253 N1261 1.422 1_455 S
C1254 H1245 0.930 . S
C1254 C1252 1.378 . S
C1254 C1255 1.362 1_655 S
C1255 C1254 1.362 1_455 S
C1255 C1257 1.438 . S
C1256 C1252 1.349 . S
C1256 C1253 1.462 1_655 S
C1256 N1260 1.429 1_655 S
C1257 H1247 0.929 . S
C1257 C1255 1.438 . S
C1257 N1260 1.384 . S
C1258 H1249 0.929 . S
C1258 C1250 1.378 . S
C1258 C1253 1.355 . S
C1259 H1246 0.929 . S
C1259 C1251 1.432 . S
C1259 N1261 1.384 . S
N1260 C1256 1.429 1_455 S
N1260 C1257 1.384 . S
N1261 C1253 1.422 1_655 S
N1261 C1259 1.384 . S
H1262 C1268 0.930 . S
H1263 C1272 0.930 . S
H1264 C1277 0.929 . S
H1265 C1275 0.929 . S
H1266 C1270 0.929 . S
H1267 C1276 0.929 . S
C1268 H1262 0.930 . S
C1268 C1269 1.367 1_655 S
C1268 C1276 1.378 . S
C1269 C1268 1.367 1_455 S
C1269 C1277 1.433 . S
C1270 H1266 0.929 . S
C1270 C1272 1.378 . S
C1270 C1274 1.356 . S
C1271 C1274 1.462 1_656 S
C1271 C1276 1.356 . S
C1271 N1279 1.421 1_655 S
C1272 H1263 0.930 . S
C1272 C1270 1.378 . S
C1272 C1273 1.367 1_455 S
C1273 C1272 1.367 1_655 S
C1273 C1275 1.433 . S
C1274 C1270 1.356 . S
C1274 C1271 1.462 1_454 S
C1274 N1278 1.421 1_455 S
C1275 H1265 0.929 . S
C1275 C1273 1.433 . S
C1275 N1278 1.384 . S
C1276 H1267 0.929 . S
C1276 C1268 1.378 . S
C1276 C1271 1.356 . S
C1277 H1264 0.929 . S
C1277 C1269 1.433 . S
C1277 N1279 1.384 . S
N1278 C1274 1.421 1_655 S
N1278 C1275 1.384 . S
N1279 C1271 1.421 1_455 S
N1279 C1277 1.384 . S
H1280 C1286 0.930 . S
H1281 C1290 0.930 . S
H1282 C1295 0.929 . S
H1283 C1293 0.929 . S
H1284 C1288 0.929 . S
H1285 C1294 0.929 . S
C1286 H1280 0.930 . S
C1286 C1287 1.367 . S
C1286 C1294 1.378 . S
C1287 C1286 1.367 . S
C1287 C1295 1.433 . S
C1288 H1284 0.929 . S
C1288 C1290 1.378 . S
C1288 C1292 1.350 . S
C1289 C1292 1.463 . S
C1289 C1294 1.350 . S
C1289 N1297 1.427 . S
C1290 H1281 0.930 . S
C1290 C1288 1.378 . S
C1290 C1291 1.367 . S
C1291 C1290 1.367 . S
C1291 C1293 1.433 . S
C1292 C1288 1.350 . S
C1292 C1289 1.463 . S
C1292 N1296 1.427 . S
C1293 H1283 0.929 . S
C1293 C1291 1.433 . S
C1293 N1296 1.384 . S
C1294 H1285 0.929 . S
C1294 C1286 1.378 . S
C1294 C1289 1.350 . S
C1295 H1282 0.929 . S
C1295 C1287 1.433 . S
C1295 N1297 1.384 . S
N1296 C1292 1.427 . S
N1296 C1293 1.384 . S
N1297 C1289 1.427 . S
N1297 C1295 1.384 . S
H1298 C1304 0.930 . S
H1299 C1308 0.930 1_565 S
H1300 C1313 0.929 . S
H1301 C1311 0.929 . S
H1302 C1306 0.929 . S
H1303 C1312 0.929 . S
C1304 H1298 0.930 . S
C1304 C1305 1.367 . S
C1304 C1312 1.378 . S
C1305 C1304 1.367 . S
C1305 C1313 1.433 . S
C1306 H1302 0.929 . S
C1306 C1308 1.378 . S
C1306 C1310 1.350 . S
C1307 C1310 1.463 . S
C1307 C1312 1.350 . S
C1307 N1315 1.427 . S
C1308 H1299 0.930 1_545 S
C1308 C1306 1.378 . S
C1308 C1309 1.367 . S
C1309 C1308 1.367 . S
C1309 C1311 1.433 . S
C1310 C1306 1.350 . S
C1310 C1307 1.463 . S
C1310 N1314 1.427 . S
C1311 H1301 0.929 . S
C1311 C1309 1.433 . S
C1311 N1314 1.384 . S
C1312 H1303 0.929 . S
C1312 C1304 1.378 . S
C1312 C1307 1.350 . S
C1313 H1300 0.929 . S
C1313 C1305 1.433 . S
C1313 N1315 1.384 . S
N1314 C1310 1.427 . S
N1314 C1311 1.384 . S
N1315 C1307 1.427 . S
N1315 C1313 1.384 . S
H1316 C1322 0.930 . S
H1317 C1326 0.930 . S
H1318 C1331 0.929 . S
H1319 C1329 0.929 . S
H1320 C1324 0.929 . S
H1321 C1330 0.929 . S
C1322 H1316 0.930 . S
C1322 C1323 1.367 . S
C1322 C1330 1.378 . S
C1323 C1322 1.367 . S
C1323 C1331 1.433 . S
C1324 H1320 0.929 . S
C1324 C1326 1.378 . S
C1324 C1328 1.350 . S
C1325 C1328 1.463 . S
C1325 C1330 1.350 . S
C1325 N1333 1.427 . S
C1326 H1317 0.930 . S
C1326 C1324 1.378 . S
C1326 C1327 1.367 . S
C1327 C1326 1.367 . S
C1327 C1329 1.433 . S
C1328 C1324 1.350 . S
C1328 C1325 1.463 . S
C1328 N1332 1.427 . S
C1329 H1319 0.929 . S
C1329 C1327 1.433 . S
C1329 N1332 1.384 . S
C1330 H1321 0.929 . S
C1330 C1322 1.378 . S
C1330 C1325 1.350 . S
C1331 H1318 0.929 . S
C1331 C1323 1.433 . S
C1331 N1333 1.384 . S
N1332 C1328 1.427 . S
N1332 C1329 1.384 . S
N1333 C1325 1.427 . S
N1333 C1331 1.384 . S
H1334 C1340 0.930 . S
H1335 C1344 0.930 . S
H1336 C1349 0.929 . S
H1337 C1347 0.929 1_545 S
H1338 C1342 0.929 . S
H1339 C1348 0.929 . S
C1340 H1334 0.930 . S
C1340 C1341 1.367 . S
C1340 C1348 1.378 . S
C1341 C1340 1.367 . S
C1341 C1349 1.433 . S
C1342 H1338 0.929 . S
C1342 C1344 1.378 . S
C1342 C1346 1.350 . S
C1343 C1346 1.463 . S
C1343 C1348 1.350 . S
C1343 N1351 1.427 . S
C1344 H1335 0.930 . S
C1344 C1342 1.378 . S
C1344 C1345 1.367 . S
C1345 C1344 1.367 . S
C1345 C1347 1.433 . S
C1346 C1342 1.350 . S
C1346 C1343 1.463 . S
C1346 N1350 1.427 . S
C1347 H1337 0.929 1_565 S
C1347 C1345 1.433 . S
C1347 N1350 1.384 . S
C1348 H1339 0.929 . S
C1348 C1340 1.378 . S
C1348 C1343 1.350 . S
C1349 H1336 0.929 . S
C1349 C1341 1.433 . S
C1349 N1351 1.384 . S
N1350 C1346 1.427 . S
N1350 C1347 1.384 . S
N1351 C1343 1.427 . S
N1351 C1349 1.384 . S
H1352 C1358 0.930 . S
H1353 C1362 0.930 . S
H1354 C1367 0.929 . S
H1355 C1365 0.929 . S
H1356 C1360 0.929 . S
H1357 C1366 0.929 . S
C1358 H1352 0.930 . S
C1358 C1359 1.367 . S
C1358 C1366 1.378 . S
C1359 C1358 1.367 . S
C1359 C1367 1.433 . S
C1360 H1356 0.929 . S
C1360 C1362 1.378 . S
C1360 C1364 1.350 . S
C1361 C1364 1.463 . S
C1361 C1366 1.350 . S
C1361 N1369 1.427 . S
C1362 H1353 0.930 . S
C1362 C1360 1.378 . S
C1362 C1363 1.367 . S
C1363 C1362 1.367 . S
C1363 C1365 1.433 . S
C1364 C1360 1.350 . S
C1364 C1361 1.463 . S
C1364 N1368 1.427 . S
C1365 H1355 0.929 . S
C1365 C1363 1.433 . S
C1365 N1368 1.384 . S
C1366 H1357 0.929 . S
C1366 C1358 1.378 . S
C1366 C1361 1.350 . S
C1367 H1354 0.929 . S
C1367 C1359 1.433 . S
C1367 N1369 1.384 . S
N1368 C1364 1.427 . S
N1368 C1365 1.384 . S
N1369 C1361 1.427 . S
N1369 C1367 1.384 . S
H1370 C1376 0.930 . S
H1371 C1380 0.930 . S
H1372 C1385 0.929 . S
H1373 C1383 0.929 . S
H1374 C1378 0.929 . S
H1375 C1384 0.929 . S
C1376 H1370 0.930 . S
C1376 C1377 1.367 . S
C1376 C1384 1.378 . S
C1377 C1376 1.367 . S
C1377 C1385 1.433 . S
C1378 H1374 0.929 . S
C1378 C1380 1.378 . S
C1378 C1382 1.350 . S
C1379 C1382 1.463 . S
C1379 C1384 1.350 . S
C1379 N1387 1.427 . S
C1380 H1371 0.930 . S
C1380 C1378 1.378 . S
C1380 C1381 1.367 . S
C1381 C1380 1.367 . S
C1381 C1383 1.433 . S
C1382 C1378 1.350 . S
C1382 C1379 1.463 . S
C1382 N1386 1.427 . S
C1383 H1373 0.929 . S
C1383 C1381 1.433 . S
C1383 N1386 1.384 . S
C1384 H1375 0.929 . S
C1384 C1376 1.378 . S
C1384 C1379 1.350 . S
C1385 H1372 0.929 . S
C1385 C1377 1.433 . S
C1385 N1387 1.384 . S
N1386 C1382 1.427 . S
N1386 C1383 1.384 . S
N1387 C1379 1.427 . S
N1387 C1385 1.384 . S
H1388 C1394 0.930 . S
H1389 C1398 0.930 . S
H1390 C1403 0.929 . S
H1391 C1401 0.929 . S
H1392 C1396 0.929 . S
H1393 C1402 0.929 . S
C1394 H1388 0.930 . S
C1394 C1395 1.367 . S
C1394 C1402 1.378 . S
C1395 C1394 1.367 . S
C1395 C1403 1.433 . S
C1396 H1392 0.929 . S
C1396 C1398 1.378 . S
C1396 C1400 1.350 . S
C1397 C1400 1.463 . S
C1397 C1402 1.350 . S
C1397 N1405 1.427 . S
C1398 H1389 0.930 . S
C1398 C1396 1.378 . S
C1398 C1399 1.367 . S
C1399 C1398 1.367 . S
C1399 C1401 1.433 . S
C1400 C1396 1.350 . S
C1400 C1397 1.463 . S
C1400 N1404 1.427 . S
C1401 H1391 0.929 . S
C1401 C1399 1.433 . S
C1401 N1404 1.384 . S
C1402 H1393 0.929 . S
C1402 C1394 1.378 . S
C1402 C1397 1.350 . S
C1403 H1390 0.929 . S
C1403 C1395 1.433 . S
C1403 N1405 1.384 . S
N1404 C1400 1.427 . S
N1404 C1401 1.384 . S
N1405 C1397 1.427 . S
N1405 C1403 1.384 . S
H1406 C1412 0.930 . S
H1407 C1416 0.930 . S
H1408 C1421 0.929 . S
H1409 C1419 0.929 . S
H1410 C1414 0.929 . S
H1411 C1420 0.929 . S
C1412 H1406 0.930 . S
C1412 C1413 1.367 . S
C1412 C1420 1.378 . S
C1413 C1412 1.367 . S
C1413 C1421 1.433 . S
C1414 H1410 0.929 . S
C1414 C1416 1.378 . S
C1414 C1418 1.350 . S
C1415 C1418 1.463 . S
C1415 C1420 1.350 . S
C1415 N1423 1.427 . S
C1416 H1407 0.930 . S
C1416 C1414 1.378 . S
C1416 C1417 1.367 . S
C1417 C1416 1.367 . S
C1417 C1419 1.433 . S
C1418 C1414 1.350 . S
C1418 C1415 1.463 . S
C1418 N1422 1.427 . S
C1419 H1409 0.929 . S
C1419 C1417 1.433 . S
C1419 N1422 1.384 . S
C1420 H1411 0.929 . S
C1420 C1412 1.378 . S
C1420 C1415 1.350 . S
C1421 H1408 0.929 . S
C1421 C1413 1.433 . S
C1421 N1423 1.384 . S
N1422 C1418 1.427 . S
N1422 C1419 1.384 . S
N1423 C1415 1.427 . S
N1423 C1421 1.384 . S
H1424 C1430 0.930 . S
H1425 C1434 0.930 . S
H1426 C1439 0.929 . S
H1427 C1437 0.929 . S
H1428 C1432 0.929 . S
H1429 C1438 0.929 . S
C1430 H1424 0.930 . S
C1430 C1431 1.367 . S
C1430 C1438 1.378 . S
C1431 C1430 1.367 . S
C1431 C1439 1.433 . S
C1432 H1428 0.929 . S
C1432 C1434 1.378 . S
C1432 C1436 1.350 . S
C1433 C1436 1.463 . S
C1433 C1438 1.350 . S
C1433 N1441 1.427 . S
C1434 H1425 0.930 . S
C1434 C1432 1.378 . S
C1434 C1435 1.367 . S
C1435 C1434 1.367 . S
C1435 C1437 1.433 . S
C1436 C1432 1.350 . S
C1436 C1433 1.463 . S
C1436 N1440 1.427 . S
C1437 H1427 0.929 . S
C1437 C1435 1.433 . S
C1437 N1440 1.384 . S
C1438 H1429 0.929 . S
C1438 C1430 1.378 . S
C1438 C1433 1.350 . S
C1439 H1426 0.929 . S
C1439 C1431 1.433 . S
C1439 N1441 1.384 . S
N1440 C1436 1.427 . S
N1440 C1437 1.384 . S
N1441 C1433 1.427 . S
N1441 C1439 1.384 . S
H1442 C1448 0.930 . S
H1443 C1452 0.930 . S
H1444 C1457 0.929 1_565 S
H1445 C1455 0.929 . S
H1446 C1450 0.929 . S
H1447 C1456 0.929 . S
C1448 H1442 0.930 . S
C1448 C1449 1.367 . S
C1448 C1456 1.378 . S
C1449 C1448 1.367 . S
C1449 C1457 1.433 . S
C1450 H1446 0.929 . S
C1450 C1452 1.378 . S
C1450 C1454 1.350 . S
C1451 C1454 1.463 . S
C1451 C1456 1.350 . S
C1451 N1459 1.427 . S
C1452 H1443 0.930 . S
C1452 C1450 1.378 . S
C1452 C1453 1.367 . S
C1453 C1452 1.367 . S
C1453 C1455 1.433 . S
C1454 C1450 1.350 . S
C1454 C1451 1.463 . S
C1454 N1458 1.427 . S
C1455 H1445 0.929 . S
C1455 C1453 1.433 . S
C1455 N1458 1.384 . S
C1456 H1447 0.929 . S
C1456 C1448 1.378 . S
C1456 C1451 1.350 . S
C1457 H1444 0.929 1_545 S
C1457 C1449 1.433 . S
C1457 N1459 1.384 . S
N1458 C1454 1.427 . S
N1458 C1455 1.384 . S
N1459 C1451 1.427 . S
N1459 C1457 1.384 . S
H1460 C1466 0.930 . S
H1461 C1470 0.930 . S
H1462 C1475 0.929 1_545 S
H1463 C1473 0.929 . S
H1464 C1468 0.929 . S
H1465 C1474 0.929 . S
C1466 H1460 0.930 . S
C1466 C1467 1.367 . S
C1466 C1474 1.378 . S
C1467 C1466 1.367 . S
C1467 C1475 1.433 . S
C1468 H1464 0.929 . S
C1468 C1470 1.378 . S
C1468 C1472 1.350 . S
C1469 C1472 1.463 . S
C1469 C1474 1.350 . S
C1469 N1477 1.427 . S
C1470 H1461 0.930 . S
C1470 C1468 1.378 . S
C1470 C1471 1.367 . S
C1471 C1470 1.367 . S
C1471 C1473 1.433 . S
C1472 C1468 1.350 . S
C1472 C1469 1.463 . S
C1472 N1476 1.427 . S
C1473 H1463 0.929 . S
C1473 C1471 1.433 . S
C1473 N1476 1.384 . S
C1474 H1465 0.929 . S
C1474 C1466 1.378 . S
C1474 C1469 1.350 . S
C1475 H1462 0.929 1_565 S
C1475 C1467 1.433 . S
C1475 N1477 1.384 . S
N1476 C1472 1.427 . S
N1476 C1473 1.384 . S
N1477 C1469 1.427 . S
N1477 C1475 1.384 . S
H1478 C1484 0.930 . S
H1479 C1488 0.930 . S
H1480 C1493 0.929 . S
H1481 C1491 0.929 . S
H1482 C1486 0.929 . S
H1483 C1492 0.929 . S
C1484 H1478 0.930 . S
C1484 C1485 1.367 . S
C1484 C1492 1.378 . S
C1485 C1484 1.367 . S
C1485 C1493 1.433 . S
C1486 H1482 0.929 . S
C1486 C1488 1.378 . S
C1486 C1490 1.350 . S
C1487 C1490 1.463 . S
C1487 C1492 1.350 . S
C1487 N1495 1.427 . S
C1488 H1479 0.930 . S
C1488 C1486 1.378 . S
C1488 C1489 1.367 . S
C1489 C1488 1.367 . S
C1489 C1491 1.433 . S
C1490 C1486 1.350 . S
C1490 C1487 1.463 . S
C1490 N1494 1.427 . S
C1491 H1481 0.929 . S
C1491 C1489 1.433 . S
C1491 N1494 1.384 . S
C1492 H1483 0.929 . S
C1492 C1484 1.378 . S
C1492 C1487 1.350 . S
C1493 H1480 0.929 . S
C1493 C1485 1.433 . S
C1493 N1495 1.384 . S
N1494 C1490 1.427 . S
N1494 C1491 1.384 . S
N1495 C1487 1.427 . S
N1495 C1493 1.384 . S
H1496 C1502 0.930 . S
H1497 C1506 0.930 . S
H1498 C1511 0.929 . S
H1499 C1509 0.929 . S
H1500 C1504 0.929 . S
H1501 C1510 0.929 . S
C1502 H1496 0.930 . S
C1502 C1503 1.367 . S
C1502 C1510 1.378 . S
C1503 C1502 1.367 . S
C1503 C1511 1.433 . S
C1504 H1500 0.929 . S
C1504 C1506 1.378 . S
C1504 C1508 1.350 . S
C1505 C1508 1.463 . S
C1505 C1510 1.350 . S
C1505 N1513 1.427 . S
C1506 H1497 0.930 . S
C1506 C1504 1.378 . S
C1506 C1507 1.367 . S
C1507 C1506 1.367 . S
C1507 C1509 1.433 . S
C1508 C1504 1.350 . S
C1508 C1505 1.463 . S
C1508 N1512 1.427 . S
C1509 H1499 0.929 . S
C1509 C1507 1.433 . S
C1509 N1512 1.384 . S
C1510 H1501 0.929 . S
C1510 C1502 1.378 . S
C1510 C1505 1.350 . S
C1511 H1498 0.929 . S
C1511 C1503 1.433 . S
C1511 N1513 1.384 . S
N1512 C1508 1.427 . S
N1512 C1509 1.384 . S
N1513 C1505 1.427 . S
N1513 C1511 1.384 . S
H1514 C1520 0.930 . S
H1515 C1524 0.930 . S
H1516 C1529 0.929 . S
H1517 C1527 0.929 . S
H1518 C1522 0.929 . S
H1519 C1528 0.929 . S
C1520 H1514 0.930 . S
C1520 C1521 1.367 . S
C1520 C1528 1.378 . S
C1521 C1520 1.367 . S
C1521 C1529 1.433 . S
C1522 H1518 0.929 . S
C1522 C1524 1.378 . S
C1522 C1526 1.350 . S
C1523 C1526 1.463 . S
C1523 C1528 1.350 . S
C1523 N1531 1.427 . S
C1524 H1515 0.930 . S
C1524 C1522 1.378 . S
C1524 C1525 1.367 . S
C1525 C1524 1.367 . S
C1525 C1527 1.433 . S
C1526 C1522 1.350 . S
C1526 C1523 1.463 . S
C1526 N1530 1.427 . S
C1527 H1517 0.929 . S
C1527 C1525 1.433 . S
C1527 N1530 1.384 . S
C1528 H1519 0.929 . S
C1528 C1520 1.378 . S
C1528 C1523 1.350 . S
C1529 H1516 0.929 . S
C1529 C1521 1.433 . S
C1529 N1531 1.384 . S
N1530 C1526 1.427 . S
N1530 C1527 1.384 . S
N1531 C1523 1.427 . S
N1531 C1529 1.384 . S
H1532 C1538 0.930 . S
H1533 C1542 0.930 . S
H1534 C1547 0.929 . S
H1535 C1545 0.929 . S
H1536 C1540 0.929 . S
H1537 C1546 0.929 . S
C1538 H1532 0.930 . S
C1538 C1539 1.367 . S
C1538 C1546 1.378 . S
C1539 C1538 1.367 . S
C1539 C1547 1.433 . S
C1540 H1536 0.929 . S
C1540 C1542 1.378 . S
C1540 C1544 1.350 . S
C1541 C1544 1.463 . S
C1541 C1546 1.350 . S
C1541 N1549 1.427 . S
C1542 H1533 0.930 . S
C1542 C1540 1.378 . S
C1542 C1543 1.367 . S
C1543 C1542 1.367 . S
C1543 C1545 1.433 . S
C1544 C1540 1.350 . S
C1544 C1541 1.463 . S
C1544 N1548 1.427 . S
C1545 H1535 0.929 . S
C1545 C1543 1.433 . S
C1545 N1548 1.384 . S
C1546 H1537 0.929 . S
C1546 C1538 1.378 . S
C1546 C1541 1.350 . S
C1547 H1534 0.929 . S
C1547 C1539 1.433 . S
C1547 N1549 1.384 . S
N1548 C1544 1.427 . S
N1548 C1545 1.384 . S
N1549 C1541 1.427 . S
N1549 C1547 1.384 . S
H1550 C1556 0.930 . S
H1551 C1560 0.930 . S
H1552 C1565 0.929 . S
H1553 C1563 0.929 . S
H1554 C1558 0.929 . S
H1555 C1564 0.929 . S
C1556 H1550 0.930 . S
C1556 C1557 1.367 . S
C1556 C1564 1.378 . S
C1557 C1556 1.367 . S
C1557 C1565 1.433 . S
C1558 H1554 0.929 . S
C1558 C1560 1.378 . S
C1558 C1562 1.350 . S
C1559 C1562 1.463 . S
C1559 C1564 1.350 . S
C1559 N1567 1.427 . S
C1560 H1551 0.930 . S
C1560 C1558 1.378 . S
C1560 C1561 1.367 . S
C1561 C1560 1.367 . S
C1561 C1563 1.433 . S
C1562 C1558 1.350 . S
C1562 C1559 1.463 . S
C1562 N1566 1.427 . S
C1563 H1553 0.929 . S
C1563 C1561 1.433 . S
C1563 N1566 1.384 . S
C1564 H1555 0.929 . S
C1564 C1556 1.378 . S
C1564 C1559 1.350 . S
C1565 H1552 0.929 . S
C1565 C1557 1.433 . S
C1565 N1567 1.384 . S
N1566 C1562 1.427 . S
N1566 C1563 1.384 . S
N1567 C1559 1.427 . S
N1567 C1565 1.384 . S
C423 C3 1.500 . S
C427 C29 1.500 . S
C441 C42 1.499 . S
C445 C16 1.498 . S
C459 C83 1.497 . S
C463 C57 1.497 . S
C477 C96 1.496 . S
C481 C70 1.495 . S
C495 C107 1.500 . S
C499 C133 1.500 . S
C513 C146 1.496 . S
C517 C120 1.497 . S
C531 C161 1.499 . S
C535 C187 1.500 . S
C549 C200 1.495 . S
C553 C174 1.496 . S
C567 C211 1.497 . S
C571 C237 1.498 . S
C585 C224 1.495 . S
C589 C250 1.495 . S
C603 C291 1.501 . S
C607 C265 1.501 . S
C621 C278 1.496 . S
C625 C304 1.495 . S
C639 C341 1.501 . S
C643 C315 1.501 . S
C657 C354 1.500 . S
C661 C328 1.500 . S
C675 C395 1.500 . S
C679 C369 1.500 . S
C693 C382 1.497 . S
C697 C408 1.496 . S
C711 C330 1.511 . S
C715 C5 1.513 . S
C729 C18 1.512 . S
C733 C317 1.510 . S
C747 C31 1.506 . S
C751 C356 1.508 . S
C765 C44 1.513 . S
C769 C343 1.512 . S
C783 C380 1.506 . S
C787 C55 1.507 . S
C801 C68 1.506 . S
C805 C367 1.505 . S
C819 C81 1.515 . S
C823 C406 1.513 . S
C837 C393 1.506 . S
C841 C94 1.507 . S
C855 C109 1.506 . S
C859 C226 1.508 . S
C873 C122 1.513 . S
C877 C213 1.514 . S
C891 C135 1.509 . S
C895 C252 1.507 . S
C909 C148 1.511 . S
C913 C239 1.513 . S
C927 C159 1.506 . S
C931 C276 1.508 . S
C945 C263 1.515 . S
C949 C172 1.513 . S
C963 C302 1.509 . S
C967 C185 1.511 . S
C981 C198 1.506 . S
C985 C289 1.508 . S
C999 C1 1.501 . S
C1003 C62 1.501 . S
C1017 C14 1.500 . S
C1021 C387 1.500 . S
C1035 C27 1.499 . S
C1039 C192 1.499 . S
C1053 C40 1.502 . S
C1057 C309 1.502 . S
C1071 C75 1.502 . S
C1075 C326 1.502 . S
C1089 C131 1.500 . S
C1093 C88 1.500 . S
C1107 C248 1.501 . S
C1111 C101 1.501 . S
C1125 C166 1.503 . S
C1129 C105 1.503 . S
C1143 C118 1.502 . S
C1147 C283 1.502 . S
C1161 C413 1.499 . S
C1165 C144 1.499 . S
C1179 C179 1.499 . S
C1183 C222 1.499 . S
C1197 C205 1.499 . S
C1201 C352 1.499 . S
C1215 C270 1.502 1_455 S
C1219 C209 1.502 1_655 S
C1233 C235 1.499 1_655 S
C1237 C400 1.499 1_455 S
C1251 C339 1.501 1_655 S
C1255 C296 1.501 1_455 S
C1269 C374 1.498 1_455 S
C1273 C313 1.498 1_655 S
C1287 C10 1.533 . S
C1291 C23 1.532 . S
C1305 C36 1.528 . S
C1309 C49 1.529 . S
C1323 C53 1.535 . S
C1327 C66 1.535 . S
C1341 C79 1.537 . S
C1345 C92 1.537 . S
C1359 C127 1.533 . S
C1363 C114 1.534 . S
C1377 C140 1.537 . S
C1381 C153 1.537 . S
C1395 C157 1.536 . S
C1399 C170 1.535 . S
C1413 C183 1.528 . S
C1417 C196 1.529 . S
C1431 C218 1.534 . S
C1435 C231 1.535 . S
C1449 C257 1.537 . S
C1453 C244 1.537 . S
C1467 C261 1.537 . S
C1471 C274 1.537 . S
C1485 C287 1.535 . S
C1489 C300 1.534 . S
C1503 C335 1.535 . S
C1507 C322 1.534 . S
C1521 C348 1.529 . S
C1525 C361 1.529 . S
C1539 C378 1.536 . S
C1543 C365 1.535 . S
C1557 C391 1.531 . S
C1561 C404 1.530 . S
