# Generated by pormake.
# Topology unf, (4)-cn, num edge types: 1
# Building blocks:
#     Node 0, Type 0, BuildingBlock: ICAMEG_clean_sbu_1, # of connection points: 4
#     Node 1, Type 0, BuildingBlock: ICAMEG_clean_sbu_1, # of connection points: 4
#     Node 2, Type 0, BuildingBlock: ICAMEG_clean_sbu_1, # of connection points: 4
#     Node 3, Type 0, BuildingBlock: ICAMEG_clean_sbu_1, # of connection points: 4
#     Node 4, Type 0, BuildingBlock: ICAMEG_clean_sbu_1, # of connection points: 4
#     Node 5, Type 0, BuildingBlock: ICAMEG_clean_sbu_1, # of connection points: 4
#     Node 6, Type 0, BuildingBlock: ICAMEG_clean_sbu_1, # of connection points: 4
#     Node 7, Type 0, BuildingBlock: ICAMEG_clean_sbu_1, # of connection points: 4
#     Node 8, Type 0, BuildingBlock: ICAMEG_clean_sbu_1, # of connection points: 4
#     Node 9, Type 0, BuildingBlock: ICAMEG_clean_sbu_1, # of connection points: 4
#     Node 10, Type 0, BuildingBlock: ICAMEG_clean_sbu_1, # of connection points: 4
#     Node 11, Type 0, BuildingBlock: ICAMEG_clean_sbu_1, # of connection points: 4
#     Edge 12, Type (0, 0), BuildingBlock: XUDNAN_clean_linker_2, # of connection points: 2
#     Edge 13, Type (0, 0), BuildingBlock: XUDNAN_clean_linker_2, # of connection points: 2
#     Edge 14, Type (0, 0), BuildingBlock: XUDNAN_clean_linker_2, # of connection points: 2
#     Edge 15, Type (0, 0), BuildingBlock: XUDNAN_clean_linker_2, # of connection points: 2
#     Edge 16, Type (0, 0), BuildingBlock: XUDNAN_clean_linker_2, # of connection points: 2
#     Edge 17, Type (0, 0), BuildingBlock: XUDNAN_clean_linker_2, # of connection points: 2
#     Edge 18, Type (0, 0), BuildingBlock: XUDNAN_clean_linker_2, # of connection points: 2
#     Edge 19, Type (0, 0), BuildingBlock: XUDNAN_clean_linker_2, # of connection points: 2
#     Edge 20, Type (0, 0), BuildingBlock: XUDNAN_clean_linker_2, # of connection points: 2
#     Edge 21, Type (0, 0), BuildingBlock: XUDNAN_clean_linker_2, # of connection points: 2
#     Edge 22, Type (0, 0), BuildingBlock: XUDNAN_clean_linker_2, # of connection points: 2
#     Edge 23, Type (0, 0), BuildingBlock: XUDNAN_clean_linker_2, # of connection points: 2
#     Edge 24, Type (0, 0), BuildingBlock: XUDNAN_clean_linker_2, # of connection points: 2
#     Edge 25, Type (0, 0), BuildingBlock: XUDNAN_clean_linker_2, # of connection points: 2
#     Edge 26, Type (0, 0), BuildingBlock: XUDNAN_clean_linker_2, # of connection points: 2
#     Edge 27, Type (0, 0), BuildingBlock: XUDNAN_clean_linker_2, # of connection points: 2
#     Edge 28, Type (0, 0), BuildingBlock: XUDNAN_clean_linker_2, # of connection points: 2
#     Edge 29, Type (0, 0), BuildingBlock: XUDNAN_clean_linker_2, # of connection points: 2
#     Edge 30, Type (0, 0), BuildingBlock: XUDNAN_clean_linker_2, # of connection points: 2
#     Edge 31, Type (0, 0), BuildingBlock: XUDNAN_clean_linker_2, # of connection points: 2
#     Edge 32, Type (0, 0), BuildingBlock: XUDNAN_clean_linker_2, # of connection points: 2
#     Edge 33, Type (0, 0), BuildingBlock: XUDNAN_clean_linker_2, # of connection points: 2
#     Edge 34, Type (0, 0), BuildingBlock: XUDNAN_clean_linker_2, # of connection points: 2
#     Edge 35, Type (0, 0), BuildingBlock: XUDNAN_clean_linker_2, # of connection points: 2
# Relax obj value: 0.237
# Max RMSD: 0.194
# Mean RMSD: 0.194
data_MOF--net-unf--node1-ICAMEG_clean_sbu_1--edge1-XUDNAN_clean_linker_2
_symmetry_space_group_name_H-M    P1
_symmetry_Int_Tables_number       1
_symmetry_cell_setting            triclinic
loop_
_symmetry_equiv_pos_as_xyz
'x, y, z'
_cell_length_a     38.093743
_cell_length_b     38.059868
_cell_length_c     40.898694
_cell_angle_alpha  90.0921
_cell_angle_beta   89.994808
_cell_angle_gamma 119.89366
loop_
_atom_site_label
_atom_site_type_symbol
_atom_site_fract_x
_atom_site_fract_y
_atom_site_fract_z
_atom_type_partial_charge
Co0 Co 0.16105 0.43829 0.04704 0.0
Co1 Co 0.09971 0.41612 0.11424 0.0
O2 O 0.15141 0.42991 0.09381 0.0
C3 C 0.18687 0.37821 0.06061 0.0
O4 O 0.15298 0.35679 0.07682 0.0
C5 C 0.16473 0.47977 0.15717 0.0
O6 O 0.18136 0.50251 0.13133 0.0
O7 O 0.09924 0.46409 0.09299 0.0
O8 O 0.1266 0.46386 0.0444 0.0
H9 H 0.9568 0.39029 0.11756 0.0
H10 H 0.23116 0.46631 0.09177 0.0
O11 O 0.19527 0.41216 0.0482 0.0
H12 H 0.25138 0.58919 0.03492 0.0
H13 H 0.24627 0.47444 0.94518 0.0
H14 H 0.10976 0.42876 0.98933 0.0
H15 H 0.19211 0.52252 0.02244 0.0
H16 H 0.23355 0.46492 1.00451 0.0
O17 O 0.13033 0.44753 0.15462 0.0
H18 H 0.02183 0.40778 0.09157 0.0
H19 H 0.06814 0.39494 0.18246 0.0
H20 H 0.12126 0.43842 0.92989 0.0
H21 H 0.29117 0.53229 0.10474 0.0
H22 H 0.18992 0.46136 0.90744 0.0
H23 H 0.30151 0.59435 0.07627 0.0
O24 O 0.11243 0.38484 0.03755 0.0
H25 H 0.15926 0.34061 0.17114 0.0
H26 H 0.03676 0.32895 0.11979 0.0
H27 H 0.03471 0.26805 0.14264 0.0
H28 H 0.09621 0.27369 0.16871 0.0
H29 H 0.16016 0.40061 0.14768 0.0
H30 H 1.00374 0.37778 0.20954 0.0
H31 H 0.94744 0.37521 0.17702 0.0
O32 O 0.06886 0.38287 0.07549 0.0
C33 C 0.1057 0.47378 0.06255 0.0
C34 C 0.98113 0.39141 0.13202 0.0
C35 C 0.0075 0.38443 0.18364 0.0
N36 N 0.04889 0.40261 0.13544 0.0
C37 C 0.01806 0.40129 0.11742 0.0
C38 C 0.044 0.3944 0.16819 0.0
C39 C 0.9759 0.38295 0.16537 0.0
C40 C 0.23566 0.49313 0.07907 0.0
N41 N 0.20819 0.49057 0.05634 0.0
C42 C 0.2696 0.53043 0.08661 0.0
C43 C 0.27535 0.56524 0.07068 0.0
C44 C 0.24721 0.56238 0.0475 0.0
C45 C 0.21359 0.52457 0.04063 0.0
C46 C 0.21624 0.4645 0.95467 0.0
C47 C 0.13978 0.43902 0.97979 0.0
C48 C 0.20882 0.45894 0.98823 0.0
N49 N 0.171 0.44651 1.0004 0.0
C50 C 0.14609 0.44432 0.94609 0.0
C51 C 0.18461 0.45716 0.93351 0.0
C52 C 0.07674 0.37018 0.04909 0.0
C53 C 0.13216 0.33783 0.16012 0.0
C54 C 0.06366 0.3317 0.13114 0.0
C55 C 0.0623 0.29709 0.14404 0.0
C56 C 0.09681 0.30027 0.15866 0.0
N57 N 0.09833 0.36854 0.13294 0.0
C58 C 0.13239 0.37178 0.14697 0.0
Co59 Co 0.56884 0.71449 0.04537 0.0
Co60 Co 0.59121 0.69025 0.12083 0.0
O61 O 0.5763 0.72232 0.09268 0.0
C62 C 0.62712 0.80142 0.05205 0.0
O63 O 0.64729 0.79034 0.07145 0.0
C64 C 0.53778 0.71256 0.16176 0.0
O65 O 0.53232 0.73045 0.1365 0.0
O66 O 0.54483 0.63841 0.10299 0.0
O67 O 0.54519 0.6545 0.05005 0.0
H68 H 0.62277 0.57928 0.14477 0.0
H69 H 0.53733 0.76367 0.07669 0.0
O70 O 0.59381 0.77465 0.0394 0.0
H71 H 0.41788 0.64538 0.02912 0.0
H72 H 0.53326 0.74216 0.93347 0.0
H73 H 0.58143 0.66401 0.99646 0.0
H74 H 0.48587 0.65329 0.02322 0.0
H75 H 0.54202 0.75054 0.99326 0.0
O76 O 0.55671 0.69273 0.15848 0.0
H77 H 0.60432 0.62035 0.11003 0.0
H78 H 0.60997 0.69165 0.192 0.0
H79 H 0.57277 0.65446 0.93678 0.0
H80 H 0.46996 0.75724 0.08279 0.0
H81 H 0.54848 0.69366 0.90486 0.0
H82 H 0.40961 0.69767 0.05901 0.0
O83 O 0.62297 0.71961 0.04062 0.0
H84 H 0.66559 0.83543 0.16094 0.0
H85 H 0.67767 0.71611 0.13227 0.0
H86 H 0.73777 0.77826 0.15149 0.0
H87 H 0.73197 0.83848 0.16626 0.0
H88 H 0.60673 0.77332 0.14101 0.0
H89 H 0.62797 0.65097 0.22774 0.0
H90 H 0.63465 0.5944 0.20416 0.0
O91 O 0.62653 0.68748 0.08544 0.0
C92 C 0.53613 0.62839 0.07276 0.0
C93 C 0.61983 0.60376 0.15538 0.0
C94 C 0.62266 0.64394 0.20193 0.0
N95 N 0.60557 0.65813 0.14891 0.0
C96 C 0.60936 0.62715 0.13579 0.0
C97 C 0.61213 0.66668 0.18158 0.0
C98 C 0.62647 0.61225 0.18869 0.0
C99 C 0.51126 0.73775 0.06615 0.0
N100 N 0.51552 0.70876 0.04985 0.0
C101 C 0.47316 0.73423 0.06974 0.0
C102 C 0.43931 0.70078 0.05642 0.0
C103 C 0.44392 0.6714 0.03969 0.0
C104 C 0.48248 0.67593 0.0366 0.0
C105 C 0.54375 0.72481 0.94712 0.0
C106 C 0.57061 0.68102 0.9828 0.0
C107 C 0.54883 0.72948 0.98097 0.0
N108 N 0.56187 0.70752 0.99838 0.0
C109 C 0.56587 0.67555 0.94898 0.0
C110 C 0.55229 0.69759 0.93109 0.0
C111 C 0.63875 0.70254 0.05702 0.0
C112 C 0.66838 0.80918 0.1551 0.0
C113 C 0.67462 0.74196 0.13888 0.0
C114 C 0.7089 0.77718 0.14968 0.0
C115 C 0.70564 0.81093 0.15796 0.0
N116 N 0.63785 0.74006 0.1367 0.0
C117 C 0.63475 0.77343 0.14422 0.0
Co118 Co 0.29712 0.85717 0.04859 0.0
Co119 Co 0.32234 0.91027 0.12087 0.0
O120 O 0.2908 0.86059 0.09566 0.0
C121 C 0.21026 0.82595 0.05803 0.0
O122 O 0.22117 0.85849 0.07585 0.0
C123 C 0.31745 0.84166 0.16049 0.0
O124 O 0.32329 0.82652 0.13356 0.0
O125 O 0.37412 0.91544 0.10374 0.0
O126 O 0.35712 0.89561 0.0515 0.0
H127 H 0.43124 0.0551 0.13809 0.0
H128 H 0.25242 0.78004 0.08538 0.0
O129 O 0.2371 0.81996 0.04471 0.0
H130 H 0.37011 0.77811 0.03718 0.0
H131 H 0.26699 0.78429 0.94054 0.0
H132 H 0.34413 0.91622 0.99637 0.0
H133 H 0.35922 0.83595 0.02764 0.0
H134 H 0.26079 0.78973 1.00014 0.0
O135 O 0.32091 0.87678 0.15999 0.0
H136 H 0.39105 0.99241 0.1064 0.0
H137 H 0.32086 0.93349 0.19044 0.0
H138 H 0.35162 0.91206 0.93686 0.0
H139 H 0.26179 0.72129 0.0951 0.0
H140 H 0.31285 0.84572 0.90853 0.0
H141 H 0.3211 0.72017 0.07102 0.0
O142 O 0.28927 0.90415 0.04085 0.0
H143 H 0.18145 0.83772 0.16766 0.0
H144 H 0.29094 0.96786 0.12564 0.0
H145 H 0.22708 0.96299 0.14418 0.0
H146 H 0.17183 0.89759 0.16549 0.0
H147 H 0.24545 0.8437 0.14842 0.0
H148 H 0.36062 0.99543 0.22316 0.0
H149 H 0.41618 0.05689 0.19698 0.0
O150 O 0.32303 0.94453 0.08321 0.0
C151 C 0.38358 0.91489 0.07365 0.0
C152 C 0.40715 0.02852 0.14981 0.0
C153 C 0.36755 0.995 0.19755 0.0
N154 N 0.35373 0.95921 0.14651 0.0
C155 C 0.38423 0.99291 0.13196 0.0
C156 C 0.34527 0.95992 0.17891 0.0
C157 C 0.39869 0.02949 0.18284 0.0
C158 C 0.27803 0.77955 0.07449 0.0
N159 N 0.30522 0.81137 0.05595 0.0
C160 C 0.2833 0.7463 0.08023 0.0
C161 C 0.31663 0.74573 0.06677 0.0
C162 C 0.34418 0.77826 0.04782 0.0
C163 C 0.33796 0.81103 0.04264 0.0
C164 C 0.28413 0.81334 0.95262 0.0
C165 C 0.32739 0.88718 0.98429 0.0
C166 C 0.28068 0.81662 0.98634 0.0
N167 N 0.30238 0.85317 1.00177 0.0
C168 C 0.33166 0.88504 0.95055 0.0
C169 C 0.30987 0.84782 0.93467 0.0
C170 C 0.30633 0.93847 0.05509 0.0
C171 C 0.20539 0.86644 0.15861 0.0
C172 C 0.26702 0.93925 0.13479 0.0
C173 C 0.23095 0.9367 0.14532 0.0
C174 C 0.19997 0.90002 0.15731 0.0
N175 N 0.27218 0.90621 0.13623 0.0
C176 C 0.24187 0.87011 0.14788 0.0
Co177 Co 0.57084 0.84956 0.47581 0.0
Co178 Co 0.58606 0.90828 0.40789 0.0
O179 O 0.57533 0.85754 0.42872 0.0
C180 C 0.62988 0.82283 0.45866 0.0
O181 O 0.65057 0.8561 0.44152 0.0
C182 C 0.52228 0.8391 0.3692 0.0
O183 O 0.50398 0.82266 0.39683 0.0
O184 O 0.53941 0.90824 0.43187 0.0
O185 O 0.54494 0.88373 0.48028 0.0
H186 H 0.60791 0.04985 0.40438 0.0
H187 H 0.53991 0.77661 0.43366 0.0
O188 O 0.59723 0.8156 0.47291 0.0
H189 H 0.42173 0.75858 0.4967 0.0
H190 H 0.54429 0.76858 0.57926 0.0
H191 H 0.58515 0.90316 0.53301 0.0
H192 H 0.48871 0.8193 0.50469 0.0
H193 H 0.54845 0.77884 0.51957 0.0
O194 O 0.5514 0.87572 0.36921 0.0
H195 H 0.59439 0.98618 0.43078 0.0
H196 H 0.60072 0.93756 0.33885 0.0
H197 H 0.58087 0.89413 0.59284 0.0
H198 H 0.47369 0.71495 0.42543 0.0
H199 H 0.56036 0.82645 0.61635 0.0
H200 H 0.41394 0.70575 0.45694 0.0
O201 O 0.62456 0.89873 0.48208 0.0
H202 H 0.65866 0.85002 0.34454 0.0
H203 H 0.67206 0.97223 0.39821 0.0
H204 H 0.7315 0.97522 0.37152 0.0
H205 H 0.72498 0.91386 0.34428 0.0
H206 H 0.60022 0.84813 0.37192 0.0
H207 H 0.61387 1.00059 0.31139 0.0
H208 H 0.61769 0.05736 0.34422 0.0
O209 O 0.62225 0.94102 0.44499 0.0
C210 C 0.53265 0.90322 0.4628 0.0
C211 C 0.60624 0.02531 0.38979 0.0
C212 C 0.60953 0.99764 0.3376 0.0
N213 N 0.59655 0.95805 0.38641 0.0
C214 C 0.5986 0.98915 0.40462 0.0
C215 C 0.60185 0.96191 0.35328 0.0
C216 C 0.61172 0.0295 0.35604 0.0
C217 C 0.51418 0.77261 0.44776 0.0
N218 N 0.51819 0.8016 0.4696 0.0
C219 C 0.4767 0.73772 0.44286 0.0
C220 C 0.44317 0.73262 0.4605 0.0
C221 C 0.44751 0.76228 0.48277 0.0
C222 C 0.48547 0.79676 0.48704 0.0
C223 C 0.5532 0.7982 0.56932 0.0
C224 C 0.57595 0.87356 0.54303 0.0
C225 C 0.55573 0.80422 0.53554 0.0
N226 N 0.56684 0.84152 0.52279 0.0
C227 C 0.57369 0.86865 0.57694 0.0
C228 C 0.56221 0.83068 0.59011 0.0
C229 C 0.63748 0.93409 0.47036 0.0
C230 C 0.66183 0.87703 0.35615 0.0
C231 C 0.66894 0.94535 0.38647 0.0
C232 C 0.70272 0.94726 0.37135 0.0
C233 C 0.69904 0.91283 0.35607 0.0
N234 N 0.63243 0.9102 0.38627 0.0
C235 C 0.62871 0.87623 0.37153 0.0
Co236 Co 0.15007 0.71404 0.48373 0.0
Co237 Co 0.1036 0.68773 0.40845 0.0
O238 O 0.14988 0.72183 0.43647 0.0
C239 C 0.17536 0.80027 0.47676 0.0
O240 O 0.14388 0.7883 0.45748 0.0
C241 C 0.1798 0.71363 0.36759 0.0
O242 O 0.20267 0.73207 0.39296 0.0
O243 O 0.10256 0.63771 0.4256 0.0
O244 O 0.116 0.6537 0.4788 0.0
H245 H 0.96467 0.5704 0.38457 0.0
H246 H 0.23005 0.76608 0.45246 0.0
O247 O 0.18288 0.77429 0.48971 0.0
H248 H 0.23758 0.65073 0.49934 0.0
H249 H 0.21417 0.74497 0.5954 0.0
H250 H 0.08884 0.66137 0.53283 0.0
H251 H 0.17566 0.65545 0.50539 0.0
H252 H 0.21281 0.75272 0.53563 0.0
O253 O 0.14118 0.69294 0.37057 0.0
H254 H 0.02299 0.61451 0.41938 0.0
H255 H 0.08484 0.6881 0.33754 0.0
H256 H 0.08892 0.65241 0.59247 0.0
H257 H 0.29275 0.76283 0.44622 0.0
H258 H 0.15194 0.69438 0.6242 0.0
H259 H 0.29675 0.70475 0.46964 0.0
O260 O 0.09953 0.7165 0.48878 0.0
H261 H 0.16496 0.83202 0.3682 0.0
H262 H 0.03882 0.70844 0.39896 0.0
H263 H 0.03596 0.76851 0.38056 0.0
H264 H 0.09931 0.83084 0.36476 0.0
H265 H 0.16659 0.77187 0.38734 0.0
H266 H 0.02722 0.64456 0.30181 0.0
H267 H 0.96652 0.58523 0.32527 0.0
O268 O 0.06502 0.68157 0.4444 0.0
C269 C 0.10076 0.62758 0.45579 0.0
C270 C 0.99101 0.59606 0.37401 0.0
C271 C 0.02615 0.63763 0.32757 0.0
N272 N 0.0577 0.65354 0.38053 0.0
C273 C 0.02423 0.62116 0.39363 0.0
C274 C 0.05884 0.66202 0.34793 0.0
C275 C 0.99207 0.60439 0.34075 0.0
C276 C 0.23158 0.74079 0.46284 0.0
N277 N 0.19908 0.71083 0.47901 0.0
C278 C 0.26716 0.73907 0.45916 0.0
C279 C 0.26937 0.70646 0.47229 0.0
C280 C 0.23616 0.67611 0.4889 0.0
C281 C 0.20107 0.67883 0.49207 0.0
C282 C 0.18655 0.72644 0.58184 0.0
C283 C 0.11642 0.67961 0.54639 0.0
C284 C 0.18557 0.73075 0.548 0.0
N285 N 0.15084 0.70734 0.53069 0.0
C286 C 0.11627 0.67445 0.58019 0.0
C287 C 0.15162 0.69804 0.59798 0.0
C288 C 0.06681 0.69657 0.47268 0.0
C289 C 0.13707 0.80485 0.37456 0.0
C290 C 0.06658 0.73529 0.39197 0.0
C291 C 0.06473 0.76928 0.38161 0.0
C292 C 0.10026 0.80423 0.37275 0.0
N293 N 0.10273 0.73581 0.39323 0.0
C294 C 0.13773 0.77028 0.38502 0.0
Co295 Co 0.28771 0.43704 0.4713 0.0
Co296 Co 0.30885 0.406 0.3987 0.0
O297 O 0.27867 0.42493 0.42473 0.0
C298 C 0.20093 0.3786 0.46676 0.0
O299 O 0.21172 0.35679 0.44902 0.0
C300 C 0.3074 0.47096 0.35705 0.0
O301 O 0.32166 0.49644 0.3817 0.0
O302 O 0.36181 0.45343 0.41362 0.0
O303 O 0.34737 0.4599 0.46592 0.0
H304 H 0.41656 0.36916 0.37728 0.0
H305 H 0.23981 0.46524 0.43384 0.0
O306 O 0.22783 0.41295 0.47779 0.0
H307 H 0.3568 0.5892 0.4775 0.0
H308 H 0.26257 0.48402 0.57935 0.0
H309 H 0.33918 0.42942 0.52221 0.0
H310 H 0.34838 0.5219 0.48949 0.0
H311 H 0.25313 0.46943 0.5202 0.0
O312 O 0.30383 0.4359 0.35955 0.0
H313 H 0.37844 0.39283 0.41046 0.0
H314 H 0.30289 0.37881 0.32937 0.0
H315 H 0.34965 0.44373 0.58132 0.0
H316 H 0.24683 0.53189 0.42146 0.0
H317 H 0.31128 0.47133 0.61027 0.0
H318 H 0.30571 0.59447 0.44333 0.0
O319 O 0.28263 0.3834 0.48039 0.0
H320 H 0.16484 0.33527 0.35854 0.0
H321 H 0.27787 0.31702 0.39576 0.0
H322 H 0.21301 0.25718 0.38023 0.0
H323 H 0.15598 0.26611 0.36133 0.0
H324 H 0.22991 0.39416 0.37483 0.0
H325 H 0.3405 0.3554 0.29516 0.0
H326 H 0.39772 0.3503 0.3191 0.0
O327 O 0.31273 0.37445 0.4365 0.0
C328 C 0.37269 0.46568 0.4432 0.0
C329 C 0.39176 0.37134 0.36651 0.0
C330 C 0.34911 0.36368 0.32044 0.0
N331 N 0.33866 0.38757 0.3719 0.0
C332 C 0.37004 0.38474 0.38522 0.0
C333 C 0.32808 0.37722 0.33991 0.0
C334 C 0.38118 0.36077 0.33389 0.0
C335 C 0.2653 0.49233 0.44367 0.0
N336 N 0.29351 0.48971 0.46251 0.0
C337 C 0.26921 0.52998 0.43648 0.0
C338 C 0.30229 0.56508 0.44871 0.0
C339 C 0.33098 0.56215 0.46787 0.0
C340 C 0.32611 0.52398 0.47451 0.0
C341 C 0.27958 0.47214 0.56699 0.0
C342 C 0.32251 0.44164 0.53458 0.0
C343 C 0.27431 0.46377 0.53352 0.0
N344 N 0.29584 0.44895 0.51771 0.0
C345 C 0.32852 0.4496 0.56808 0.0
C346 C 0.30693 0.46502 0.58432 0.0
C347 C 0.29905 0.36573 0.46564 0.0
C348 C 0.18953 0.33099 0.36656 0.0
C349 C 0.25318 0.32117 0.38763 0.0
C350 C 0.21654 0.28717 0.37882 0.0
C351 C 0.18456 0.2922 0.3682 0.0
N352 N 0.2579 0.35915 0.38582 0.0
C353 C 0.22658 0.36428 0.37559 0.0
Co354 Co 0.85654 0.56063 0.97813 0.0
Co355 Co 0.91221 0.59572 0.90781 0.0
O356 O 0.8621 0.57676 0.93232 0.0
C357 C 0.83156 0.62192 0.97686 0.0
O358 O 0.86605 0.64448 0.9618 0.0
C359 C 0.84513 0.54264 0.85855 0.0
O360 O 0.82605 0.51296 0.8795 0.0
O361 O 0.91275 0.54438 0.91886 0.0
O362 O 0.89232 0.53644 0.97136 0.0
H363 H 0.05498 0.6251 0.88964 0.0
H364 H 0.78258 0.53791 0.93915 0.0
O365 O 0.82185 0.58608 0.98574 0.0
H366 H 0.76984 0.40866 0.9758 0.0
H367 H 0.77926 0.50673 0.0831 0.0
H368 H 0.91232 0.5618 0.02946 0.0
H369 H 0.82936 0.47385 0.99139 0.0
H370 H 0.78758 0.52634 0.02493 0.0
O371 O 0.8794 0.57324 0.86604 0.0
H372 H 0.99184 0.60162 0.92067 0.0
H373 H 0.93934 0.63042 0.84093 0.0
H374 H 0.9053 0.54238 0.08761 0.0
H375 H 0.72234 0.47345 0.92325 0.0
H376 H 0.83838 0.51454 0.11479 0.0
H377 H 0.71574 0.40822 0.94159 0.0
O378 O 0.90553 0.61253 0.99033 0.0
H379 H 0.84994 0.68106 0.87834 0.0
H380 H 0.97575 0.6831 0.91031 0.0
H381 H 0.97696 0.74758 0.90056 0.0
H382 H 0.91378 0.74684 0.88426 0.0
H383 H 0.84996 0.61733 0.88886 0.0
H384 H 1.00178 0.65376 0.80885 0.0
H385 H 0.06028 0.65135 0.83321 0.0
O386 O 0.94601 0.62095 0.94775 0.0
C387 C 0.91119 0.53068 0.94795 0.0
C388 C 0.02966 0.62615 0.87868 0.0
C389 C 0.99977 0.64216 0.83334 0.0
N390 N 0.9616 0.61405 0.88259 0.0
C391 C 0.99374 0.61282 0.89615 0.0
C392 C 0.96433 0.62857 0.85157 0.0
C393 C 0.0326 0.64087 0.84704 0.0
C394 C 0.77972 0.50965 0.94744 0.0
N395 N 0.80928 0.50961 0.96632 0.0
C396 C 0.74564 0.47325 0.93826 0.0
C397 C 0.74199 0.43666 0.94851 0.0
C398 C 0.77234 0.43688 0.9677 0.0
C399 C 0.80601 0.47387 0.97637 0.0
C400 C 0.80855 0.51868 0.0715 0.0
C401 C 0.88303 0.54946 0.04105 0.0
C402 C 0.81344 0.52989 0.03859 0.0
N403 N 0.85029 0.5448 0.02374 0.0
C404 C 0.87927 0.53862 0.074 0.0
C405 C 0.84173 0.52306 0.08926 0.0
C406 C 0.94027 0.62915 0.97683 0.0
C407 C 0.87778 0.68178 0.88507 0.0
C408 C 0.94814 0.68246 0.90307 0.0
C409 C 0.94902 0.7191 0.89763 0.0
C410 C 0.91357 0.71867 0.88849 0.0
N411 N 0.91302 0.64633 0.89928 0.0
C412 C 0.87805 0.64575 0.89077 0.0
Co413 Co 0.44855 0.28922 0.97182 0.0
Co414 Co 0.42635 0.3281 0.90437 0.0
O415 O 0.4398 0.29002 0.92508 0.0
C416 C 0.38725 0.20383 0.95917 0.0
O417 O 0.36645 0.2169 0.9427 0.0
C418 C 0.48982 0.32587 0.86178 0.0
O419 O 0.51272 0.33257 0.88766 0.0
O420 O 0.47456 0.37647 0.9254 0.0
O421 O 0.47471 0.34921 0.97401 0.0
H422 H 0.40157 0.44602 0.90009 0.0
H423 H 0.47527 0.24564 0.92736 0.0
O424 O 0.42164 0.22885 0.97117 0.0
H425 H 0.59923 0.34787 0.98323 0.0
H426 H 0.48452 0.24047 0.074 0.0
H427 H 0.44016 0.33227 0.02924 0.0
H428 H 0.53308 0.34167 0.99595 0.0
H429 H 0.47472 0.24313 0.01465 0.0
O430 O 0.45748 0.32794 0.86412 0.0
H431 H 0.41866 0.39834 0.92651 0.0
H432 H 0.40521 0.33803 0.83599 0.0
H433 H 0.45013 0.33099 0.0887 0.0
H434 H 0.54072 0.25043 0.91414 0.0
H435 H 0.4724 0.28478 0.11146 0.0
H436 H 0.60332 0.30193 0.94212 0.0
O437 O 0.3956 0.2855 0.98135 0.0
H438 H 0.34972 0.19252 0.84836 0.0
H439 H 0.33943 0.30489 0.89866 0.0
H440 H 0.27822 0.24625 0.87608 0.0
H441 H 0.28316 0.18961 0.85054 0.0
H442 H 0.41003 0.25144 0.87158 0.0
H443 H 0.38845 0.3854 0.80849 0.0
H444 H 0.38638 0.43978 0.84061 0.0
O445 O 0.39338 0.3266 0.94305 0.0
C446 C 0.48456 0.37989 0.95579 0.0
C447 C 0.40247 0.42252 0.88581 0.0
C448 C 0.39515 0.38852 0.8344 0.0
N449 N 0.41316 0.36552 0.88285 0.0
C450 C 0.41212 0.3954 0.90065 0.0
C451 C 0.4049 0.36192 0.85009 0.0
C452 C 0.39395 0.419 0.85244 0.0
C453 C 0.50234 0.26787 0.93985 0.0
N454 N 0.50037 0.2933 0.96245 0.0
C455 C 0.53933 0.27055 0.93217 0.0
C456 C 0.57444 0.2995 0.94783 0.0
C457 C 0.57218 0.32531 0.97088 0.0
C458 C 0.53466 0.32178 0.97789 0.0
C459 C 0.47489 0.26079 0.06438 0.0
C460 C 0.45015 0.3123 0.03892 0.0
C461 C 0.46919 0.26235 0.0308 0.0
N462 N 0.45712 0.28801 0.01846 0.0
C463 C 0.45562 0.31162 0.07263 0.0
C464 C 0.46809 0.28566 0.08538 0.0
C465 C 0.38094 0.3065 0.96962 0.0
C466 C 0.34724 0.21718 0.85915 0.0
C467 C 0.34189 0.28042 0.88753 0.0
C468 C 0.3071 0.24728 0.87479 0.0
C469 C 0.30989 0.21552 0.86046 0.0
N470 N 0.37852 0.28205 0.88586 0.0
C471 C 0.38138 0.2508 0.87214 0.0
Co472 Co 0.72574 0.15602 0.97268 0.0
Co473 Co 0.68232 0.10183 0.90222 0.0
O474 O 0.72318 0.15056 0.92524 0.0
C475 C 0.81091 0.17922 0.95712 0.0
O476 O 0.79772 0.14699 0.93844 0.0
C477 C 0.69908 0.17537 0.86131 0.0
O478 O 0.71553 0.19881 0.88676 0.0
O479 O 0.63634 0.10256 0.92666 0.0
O480 O 0.6657 0.12437 0.97573 0.0
H481 H 0.5597 0.96278 0.89428 0.0
H482 H 0.7735 0.23217 0.93519 0.0
O483 O 0.78609 0.18734 0.97134 0.0
H484 H 0.67363 0.25169 0.99737 0.0
H485 H 0.77947 0.2297 0.07947 0.0
H486 H 0.68299 0.09979 0.02753 0.0
H487 H 0.67565 0.18822 1.00224 0.0
H488 H 0.77488 0.22323 0.01943 0.0
O489 O 0.68089 0.13671 0.8645 0.0
H490 H 0.6111 0.02409 0.92267 0.0
H491 H 0.66758 0.07609 0.83211 0.0
H492 H 0.6862 0.10509 0.08766 0.0
H493 H 0.77325 0.29657 0.93017 0.0
H494 H 0.73476 0.17039 0.11403 0.0
H495 H 0.72285 0.30657 0.96122 0.0
O496 O 0.72726 0.10495 0.97687 0.0
H497 H 0.81559 0.15872 0.84258 0.0
H498 H 0.69997 0.03551 0.88815 0.0
H499 H 0.75516 0.03076 0.86098 0.0
H500 H 0.81341 0.0926 0.83774 0.0
H501 H 0.76034 0.16228 0.87039 0.0
H502 H 0.6165 0.01546 0.80269 0.0
H503 H 0.56214 0.95818 0.83381 0.0
O504 O 0.68384 0.06598 0.93772 0.0
C505 C 0.6343 0.10677 0.95769 0.0
C506 C 0.58317 0.98757 0.88042 0.0
C507 C 0.61502 0.01717 0.82903 0.0
N508 N 0.64218 0.05386 0.87912 0.0
C509 C 0.61239 0.02242 0.89638 0.0
C510 C 0.64373 0.05156 0.84583 0.0
C511 C 0.58456 0.98502 0.8465 0.0
C512 C 0.75165 0.23634 0.94899 0.0
N513 N 0.72418 0.2061 0.96863 0.0
C514 C 0.75156 0.27286 0.94594 0.0
C515 C 0.72325 0.27842 0.96332 0.0
C516 C 0.69555 0.2476 0.98353 0.0
C517 C 0.69655 0.2115 0.98595 0.0
C518 C 0.75814 0.2011 0.06828 0.0
C519 C 0.70402 0.1284 0.03879 0.0
C520 C 0.75549 0.19721 0.03428 0.0
N521 N 0.72857 0.16122 0.01995 0.0
C522 C 0.70577 0.13117 0.07287 0.0
C523 C 0.73305 0.16781 0.08765 0.0
C524 C 0.70475 0.0706 0.96348 0.0
C525 C 0.79014 0.13145 0.85225 0.0
C526 C 0.72507 0.06259 0.87798 0.0
C527 C 0.75629 0.05969 0.86265 0.0
C528 C 0.78896 0.09438 0.84963 0.0
N529 N 0.72606 0.09895 0.88005 0.0
C530 C 0.75838 0.13319 0.86776 0.0
Co531 Co 0.44286 0.15258 0.55041 0.0
Co532 Co 0.41563 0.10283 0.62402 0.0
O533 O 0.43343 0.15124 0.5974 0.0
C534 C 0.38551 0.18233 0.55714 0.0
O535 O 0.36477 0.15053 0.57579 0.0
C536 C 0.48154 0.17075 0.66411 0.0
O537 O 0.50593 0.1824 0.63878 0.0
O538 O 0.46236 0.09682 0.60783 0.0
O539 O 0.46543 0.11509 0.55511 0.0
H540 H 0.38093 0.95916 0.64624 0.0
H541 H 0.47397 0.2301 0.58648 0.0
O542 O 0.41894 0.18889 0.54465 0.0
H543 H 0.59448 0.2333 0.53886 0.0
H544 H 0.48431 0.22073 0.44066 0.0
H545 H 0.43188 0.09154 0.50008 0.0
H546 H 0.5263 0.17472 0.52943 0.0
H547 H 0.47281 0.21777 0.50021 0.0
O548 O 0.44706 0.13851 0.66243 0.0
H549 H 0.40301 0.02022 0.61258 0.0
H550 H 0.39098 0.08295 0.69392 0.0
H551 H 0.44336 0.09322 0.44064 0.0
H552 H 0.54153 0.28949 0.59626 0.0
H553 H 0.46976 0.15817 0.41052 0.0
H554 H 0.60238 0.29128 0.5724 0.0
O555 O 0.38851 0.10452 0.5433 0.0
H556 H 0.34673 0.17747 0.66592 0.0
H557 H 0.3269 0.04513 0.62968 0.0
H558 H 0.26788 0.05075 0.64694 0.0
H559 H 0.27761 0.11725 0.66539 0.0
H560 H 0.40476 0.17068 0.64786 0.0
H561 H 0.36919 0.02266 0.72858 0.0
H562 H 0.36387 0.96012 0.70475 0.0
O563 O 0.38223 0.06659 0.58723 0.0
C564 C 0.47264 0.09654 0.57787 0.0
C565 C 0.38317 0.98624 0.65694 0.0
C566 C 0.37665 0.0219 0.70315 0.0
N567 N 0.3985 0.05524 0.65123 0.0
C568 C 0.39565 0.02094 0.63797 0.0
C569 C 0.38924 0.05604 0.68342 0.0
C570 C 0.37362 0.9868 0.68975 0.0
C571 C 0.50029 0.23086 0.57578 0.0
N572 N 0.49622 0.19913 0.55726 0.0
C573 C 0.53847 0.26447 0.58151 0.0
C574 C 0.5726 0.26543 0.56816 0.0
C575 C 0.56819 0.23289 0.54935 0.0
C576 C 0.52954 0.19977 0.54417 0.0
C577 C 0.4729 0.19227 0.45352 0.0
C578 C 0.44366 0.11999 0.48721 0.0
C579 C 0.46626 0.1904 0.48722 0.0
N580 N 0.45207 0.15461 0.50365 0.0
C581 C 0.44997 0.12072 0.45352 0.0
C582 C 0.46474 0.15716 0.43663 0.0
C583 C 0.37144 0.07099 0.55867 0.0
C584 C 0.34211 0.14827 0.65814 0.0
C585 C 0.33141 0.07421 0.63758 0.0
C586 C 0.29786 0.07718 0.64739 0.0
C587 C 0.30334 0.1145 0.65776 0.0
N588 N 0.36939 0.10742 0.63819 0.0
C589 C 0.37494 0.14416 0.64813 0.0
Co590 Co 0.84946 0.28501 0.55104 0.0
Co591 Co 0.90534 0.32672 0.62076 0.0
O592 O 0.85578 0.28689 0.59828 0.0
C593 C 0.82515 0.19951 0.5654 0.0
O594 O 0.85786 0.21244 0.5834 0.0
C595 C 0.83416 0.31965 0.6574 0.0
O596 O 0.81899 0.32227 0.62932 0.0
O597 O 0.90548 0.37373 0.59736 0.0
O598 O 0.88243 0.34498 0.54831 0.0
H599 H 0.04571 0.44716 0.62915 0.0
H600 H 0.77518 0.24008 0.591 0.0
O601 O 0.81681 0.22464 0.55205 0.0
H602 H 0.75656 0.34115 0.52981 0.0
H603 H 0.77293 0.23353 0.44518 0.0
H604 H 0.90487 0.32706 0.49555 0.0
H605 H 0.81855 0.33675 0.52277 0.0
H606 H 0.78082 0.23756 0.50513 0.0
O607 O 0.87076 0.32711 0.65854 0.0
H608 H 0.98361 0.3975 0.6006 0.0
H609 H 0.93148 0.33942 0.69065 0.0
H610 H 0.89818 0.32439 0.43551 0.0
H611 H 0.71229 0.2428 0.59825 0.0
H612 H 0.83184 0.27732 0.40993 0.0
H613 H 0.70278 0.29378 0.56766 0.0
O614 O 0.89968 0.28209 0.54559 0.0
H615 H 0.84635 0.19411 0.68119 0.0
H616 H 0.96978 0.30545 0.63177 0.0
H617 H 0.97268 0.2486 0.65784 0.0
H618 H 0.9107 0.19248 0.68293 0.0
H619 H 0.8446 0.25113 0.65449 0.0
H620 H 0.99287 0.38881 0.72024 0.0
H621 H 0.05061 0.44308 0.68944 0.0
O622 O 0.94011 0.32504 0.58447 0.0
C623 C 0.90112 0.37623 0.56644 0.0
C624 C 0.02072 0.42372 0.64286 0.0
C625 C 0.99104 0.39099 0.69397 0.0
N626 N 0.95381 0.36567 0.6439 0.0
C627 C 0.98545 0.39547 0.62681 0.0
C628 C 0.95625 0.36323 0.67709 0.0
C629 C 0.02345 0.42141 0.67668 0.0
C630 C 0.77104 0.26201 0.57729 0.0
N631 N 0.80053 0.28824 0.55648 0.0
C632 C 0.73547 0.26356 0.58164 0.0
C633 C 0.73019 0.29222 0.56452 0.0
C634 C 0.76038 0.31885 0.54332 0.0
C635 C 0.79555 0.3164 0.53958 0.0
C636 C 0.80197 0.25422 0.45603 0.0
C637 C 0.87583 0.3067 0.48463 0.0
C638 C 0.80665 0.25656 0.48997 0.0
N639 N 0.84321 0.28269 0.50386 0.0
C640 C 0.87225 0.30524 0.45061 0.0
C641 C 0.83504 0.2788 0.43627 0.0
C642 C 0.93445 0.30412 0.55849 0.0
C643 C 0.87362 0.2185 0.67051 0.0
C644 C 0.94263 0.28113 0.64257 0.0
C645 C 0.94449 0.24903 0.65734 0.0
C646 C 0.90971 0.21757 0.67142 0.0
N647 N 0.90719 0.282 0.64195 0.0
C648 C 0.87289 0.25107 0.65551 0.0
Co649 Co 0.70906 0.55275 0.54763 0.0
Co650 Co 0.67157 0.58124 0.61204 0.0
O651 O 0.70852 0.56465 0.59378 0.0
C652 C 0.79717 0.6126 0.55524 0.0
O653 O 0.78883 0.64146 0.56165 0.0
C654 C 0.68258 0.52962 0.66386 0.0
O655 O 0.68439 0.50545 0.64189 0.0
O656 O 0.62275 0.53108 0.59367 0.0
O657 O 0.64927 0.52872 0.54512 0.0
H658 H 0.55538 0.60877 0.60981 0.0
H659 H 0.75001 0.52551 0.59455 0.0
O660 O 0.76905 0.57652 0.54952 0.0
H661 H 0.64479 0.40077 0.54152 0.0
H662 H 0.75531 0.50719 0.44915 0.0
H663 H 0.66731 0.55906 0.48857 0.0
H664 H 0.6539 0.46744 0.52622 0.0
H665 H 0.75349 0.52178 0.50771 0.0
O666 O 0.67168 0.55522 0.6555 0.0
H667 H 0.60153 0.58728 0.58695 0.0
H668 H 0.66351 0.61125 0.67771 0.0
H669 H 0.66792 0.54449 0.42988 0.0
H670 H 0.74253 0.45957 0.61017 0.0
H671 H 0.71217 0.51837 0.40981 0.0
H672 H 0.68945 0.39655 0.58369 0.0
O673 O 0.71537 0.60631 0.53512 0.0
H674 H 0.81101 0.66443 0.6605 0.0
H675 H 0.69458 0.66845 0.61204 0.0
H676 H 0.75442 0.73209 0.62956 0.0
H677 H 0.81316 0.73036 0.65415 0.0
H678 H 0.75074 0.60159 0.64256 0.0
H679 H 0.61757 0.63231 0.70173 0.0
H680 H 0.56313 0.63138 0.66766 0.0
O681 O 0.67262 0.60974 0.57084 0.0
C682 C 0.61887 0.51966 0.56354 0.0
C683 C 0.57885 0.60911 0.62495 0.0
C684 C 0.61373 0.6223 0.67653 0.0
N685 N 0.63504 0.59759 0.63095 0.0
C686 C 0.6051 0.59695 0.61213 0.0
C687 C 0.63949 0.61002 0.66284 0.0
C688 C 0.58323 0.62183 0.6574 0.0
C689 C 0.72709 0.49829 0.58269 0.0
N690 N 0.70228 0.50035 0.55958 0.0
C691 C 0.72289 0.461 0.59174 0.0
C692 C 0.69306 0.42565 0.57692 0.0
C693 C 0.66795 0.428 0.5533 0.0
C694 C 0.67305 0.46582 0.54488 0.0
C695 C 0.73586 0.51851 0.4576 0.0
C696 C 0.6865 0.5475 0.48007 0.0
C697 C 0.73478 0.52693 0.49072 0.0
N698 N 0.71013 0.54103 0.50159 0.0
C699 C 0.68678 0.5394 0.44679 0.0
C700 C 0.71164 0.52478 0.43554 0.0
C701 C 0.69374 0.62127 0.54479 0.0
C702 C 0.78545 0.66556 0.65014 0.0
C703 C 0.71979 0.6673 0.62303 0.0
C704 C 0.7537 0.70351 0.63278 0.0
C705 C 0.78666 0.70253 0.64652 0.0
N706 N 0.71847 0.631 0.62719 0.0
C707 C 0.75105 0.62997 0.64007 0.0
H708 H 0.24747 0.40586 0.01563 0.0
H709 H 0.18702 0.31285 0.08939 0.0
H710 H 0.23107 0.28428 0.07516 0.0
H711 H 0.25505 0.34243 0.95635 0.0
H712 H 0.30372 0.3809 0.94144 0.0
H713 H 0.26931 0.39518 0.95904 0.0
H714 H 0.3244 0.44169 1.00075 0.0
H715 H 0.35895 0.42774 0.9829 0.0
H716 H 0.34826 0.42083 0.02608 0.0
H717 H 0.28247 0.26606 0.05183 0.0
H718 H 0.33427 0.25873 0.02064 0.0
H719 H 0.35686 0.36238 0.96124 0.0
C720 C 0.24368 0.37978 0.02918 0.0
C721 C 0.214 0.36173 0.0538 0.0
C722 C 0.20968 0.32721 0.07048 0.0
C723 C 0.23457 0.31083 0.06259 0.0
C724 C 0.26329 0.32923 0.03786 0.0
C725 C 0.26777 0.36291 0.0214 0.0
C726 C 0.29942 0.37622 0.99486 0.0
C727 C 0.28074 0.3735 0.96092 0.0
C728 C 0.33485 0.41916 1.00158 0.0
C729 C 0.31215 0.34475 0.99883 0.0
C730 C 0.29138 0.31805 0.02387 0.0
C731 C 0.29879 0.28676 0.03211 0.0
C732 C 0.32822 0.28283 0.01428 0.0
C733 C 0.34944 0.30977 0.98831 0.0
C734 C 0.34101 0.34097 0.98066 0.0
H735 H 0.59974 0.83464 1.00588 0.0
H736 H 0.69314 0.86625 0.07939 0.0
H737 H 0.72344 0.93832 0.06434 0.0
H738 H 0.6634 0.90553 0.94549 0.0
H739 H 0.62574 0.91755 0.93151 0.0
H740 H 0.61035 0.86842 0.94867 0.0
H741 H 0.56596 0.87883 0.99131 0.0
H742 H 0.58103 0.92785 0.97406 0.0
H743 H 0.58859 0.92329 0.017 0.0
H744 H 0.74383 0.00689 0.04132 0.0
H745 H 0.7527 0.06739 0.01201 0.0
H746 H 0.64711 0.99101 0.9525 0.0
C747 C 0.6264 0.85673 0.01898 0.0
C748 C 0.64407 0.84476 0.04383 0.0
C749 C 0.6791 0.87464 0.06023 0.0
C750 C 0.69654 0.91568 0.05187 0.0
C751 C 0.67866 0.92639 0.02704 0.0
C752 C 0.64433 0.89785 1.01086 0.0
C753 C 0.63147 0.91742 0.98478 0.0
C754 C 0.63284 0.90127 0.95059 0.0
C755 C 0.58927 0.9115 0.99225 0.0
C756 C 0.6641 0.96136 0.98874 0.0
C757 C 0.69088 0.96589 0.01335 0.0
C758 C 0.72311 0.00373 0.02194 0.0
C759 C 0.72791 0.03792 1.0051 0.0
C760 C 0.70078 0.03405 0.97979 0.0
C761 C 0.66866 0.99508 0.97146 0.0
H762 H 0.17629 0.7671 1.01097 0.0
H763 H 0.14615 0.81989 0.09284 0.0
H764 H 0.07333 0.77314 0.08271 0.0
H765 H 0.09746 0.75683 0.95896 0.0
H766 H 0.08813 0.70958 0.94118 0.0
H767 H 0.13778 0.74512 0.95637 0.0
H768 H 0.13617 0.68951 0.99396 0.0
H769 H 0.08652 0.65381 0.97877 0.0
H770 H 0.09468 0.66311 0.02208 0.0
H771 H 1.00339 0.72112 0.0627 0.0
H772 H 0.94242 0.67036 0.03286 0.0
H773 H 0.0195 0.65438 0.96332 0.0
C774 C 0.15441 0.76851 0.02702 0.0
C775 C 0.16683 0.79697 0.05277 0.0
C776 C 0.13725 0.7983 0.07293 0.0
C777 C 0.09585 0.7718 0.06745 0.0
C778 C 0.08458 0.74434 0.04163 0.0
C779 C 0.11303 0.74263 0.02169 0.0
C780 C 0.09309 0.7118 0.99463 0.0
C781 C 0.10481 0.73206 0.96079 0.0
C782 C 0.10322 0.67753 0.99755 0.0
C783 C 0.04902 0.69677 1.00224 0.0
C784 C 0.04459 0.71545 0.02963 0.0
C785 C 0.0065 0.70629 0.0412 0.0
C786 C 0.97208 0.67744 0.02414 0.0
C787 C 0.97615 0.65859 0.99563 0.0
C788 C 0.01522 0.66841 0.98483 0.0
H789 H 0.63717 0.64439 0.55042 0.0
H790 H 0.7435 0.66843 0.49426 0.0
H791 H 0.73819 0.722 0.46365 0.0
H792 H 0.58221 0.65777 0.48536 0.0
H793 H 0.56133 0.68085 0.51162 0.0
H794 H 0.57365 0.64447 0.52806 0.0
H795 H 0.61948 0.69611 0.57176 0.0
H796 H 0.60736 0.73284 0.55583 0.0
H797 H 0.65949 0.74528 0.55916 0.0
H798 H 0.72192 0.77634 0.44163 0.0
H799 H 0.69555 0.82292 0.42962 0.0
H800 H 0.59951 0.75885 0.50038 0.0
C801 C 0.65948 0.66065 0.5317 0.0
C802 C 0.69094 0.65232 0.52493 0.0
C803 C 0.71911 0.6743 0.49988 0.0
C804 C 0.71633 0.70477 0.48244 0.0
C805 C 0.68497 0.71238 0.49017 0.0
C806 C 0.65697 0.69054 0.51414 0.0
C807 C 0.62628 0.70418 0.51857 0.0
C808 C 0.58333 0.66977 0.51038 0.0
C809 C 0.62831 0.72058 0.55338 0.0
C810 C 0.64139 0.73756 0.49351 0.0
C811 C 0.67529 0.74219 0.4773 0.0
C812 C 0.69517 0.77262 0.45401 0.0
C813 C 0.68004 0.79896 0.44737 0.0
C814 C 0.64534 0.79446 0.46391 0.0
C815 C 0.62584 0.76304 0.487 0.0
H816 H 0.23186 0.83444 0.52547 0.0
H817 H 0.17848 0.86455 0.44414 0.0
H818 H 0.22253 0.93744 0.45627 0.0
H819 H 0.23951 0.91212 0.57968 0.0
H820 H 0.28701 0.92189 0.59711 0.0
H821 H 0.25192 0.87222 0.58154 0.0
H822 H 0.30773 0.87515 0.54342 0.0
H823 H 0.34298 0.92477 0.55901 0.0
H824 H 0.33358 0.91716 0.51567 0.0
H825 H 0.27389 0.00733 0.47673 0.0
H826 H 0.32659 0.06837 0.50516 0.0
H827 H 0.34351 0.99154 0.57423 0.0
C828 C 0.22952 0.85634 0.51011 0.0
C829 C 0.20183 0.84386 0.4838 0.0
C830 C 0.19943 0.87346 0.46447 0.0
C831 C 0.22436 0.9149 0.47113 0.0
C832 C 0.25124 0.92617 0.49734 0.0
C833 C 0.2538 0.89772 0.51661 0.0
C834 C 0.28466 0.91764 0.54365 0.0
C835 C 0.26456 0.90523 0.5775 0.0
C836 C 0.31928 0.90811 0.54021 0.0
C837 C 0.29909 0.96176 0.53659 0.0
C838 C 0.27974 0.96616 0.50966 0.0
C839 C 0.28905 0.00424 0.49799 0.0
C840 C 0.31902 0.03871 0.51427 0.0
C841 C 0.33895 0.03478 0.54209 0.0
C842 C 0.32854 0.99569 0.55333 0.0
H843 H 0.01422 0.36106 0.56851 0.0
H844 H 0.93589 0.25593 0.50916 0.0
H845 H 0.99555 0.26416 0.47881 0.0
H846 H 0.08078 0.41936 0.50373 0.0
H847 H 0.12556 0.44151 0.52897 0.0
H848 H 0.07692 0.42659 0.54687 0.0
H849 H 0.08704 0.38126 0.58852 0.0
H850 H 0.13587 0.3962 0.571 0.0
H851 H 0.09833 0.34325 0.57396 0.0
H852 H 0.06368 0.28363 0.45513 0.0
H853 H 0.1355 0.31307 0.43957 0.0
H854 H 0.16895 0.40684 0.51321 0.0
C855 C 0.00953 0.33948 0.54935 0.0
C856 C 0.97031 0.30766 0.54138 0.0
C857 C 0.96561 0.28048 0.51579 0.0
C858 C 0.9993 0.28492 0.49838 0.0
C859 C 0.03743 0.31687 0.50668 0.0
C860 C 0.04272 0.34371 0.53151 0.0
C861 C 0.08681 0.37596 0.53514 0.0
C862 C 0.09286 0.41836 0.52825 0.0
C863 C 0.10295 0.37403 0.56917 0.0
C864 C 0.10559 0.36283 0.50862 0.0
C865 C 0.07658 0.32866 0.49252 0.0
C866 C 0.08666 0.31044 0.46749 0.0
C867 C 0.12754 0.32737 0.45886 0.0
C868 C 0.15781 0.36228 0.47513 0.0
C869 C 0.14649 0.38033 0.50014 0.0
H870 H 0.66052 0.64549 0.07075 0.0
H871 H 0.68935 0.74787 1.0075 0.0
H872 H 0.74138 0.73779 0.97987 0.0
H873 H 0.76155 0.66194 0.07977 0.0
H874 H 0.74577 0.60875 0.07842 0.0
H875 H 0.71175 0.6249 0.09379 0.0
H876 H 0.65753 0.5785 0.05167 0.0
H877 H 0.69141 0.56233 0.03599 0.0
H878 H 0.67007 0.58399 1.00879 0.0
H879 H 0.79079 0.71738 0.95988 0.0
H880 H 0.83325 0.68694 0.94756 0.0
H881 H 0.76988 0.59548 0.02194 0.0
C882 C 0.67806 0.6661 0.05136 0.0
C883 C 0.67118 0.69776 0.04149 0.0
C884 C 0.69423 0.72352 0.01552 0.0
C885 C 0.72381 0.71803 0.9997 0.0
C886 C 0.72957 0.68633 1.00986 0.0
C887 C 0.70722 0.66065 0.03496 0.0
C888 C 0.71853 0.62817 0.04049 0.0
C889 C 0.73541 0.63114 0.07518 0.0
C890 C 0.68223 0.58574 0.03383 0.0
C891 C 0.75117 0.63991 0.01482 0.0
C892 C 0.75711 0.67363 0.99752 0.0
C893 C 0.78631 0.69086 0.97313 0.0
C894 C 0.81031 0.67337 0.96636 0.0
C895 C 0.80477 0.63877 0.98371 0.0
C896 C 0.77453 0.62168 1.00806 0.0
H897 H 0.41257 0.17069 1.00606 0.0
H898 H 0.32083 0.139 0.93114 0.0
H899 H 0.28936 0.06683 0.9474 0.0
H900 H 0.42283 0.08165 0.9989 0.0
H901 H 0.42932 0.0789 0.04229 0.0
H902 H 0.4453 0.12721 0.0233 0.0
H903 H 0.40041 0.1401 0.06369 0.0
H904 H 0.38401 0.09166 0.08258 0.0
H905 H 0.34714 0.10362 0.06653 0.0
H906 H 0.26856 0.99776 0.97226 0.0
H907 H 0.25922 0.93852 1.00427 0.0
H908 H 0.36285 0.01797 0.0643 0.0
C909 C 0.38614 0.14863 0.99272 0.0
C910 C 0.36929 0.16039 0.96714 0.0
C911 C 0.33428 0.13057 0.95075 0.0
C912 C 0.31625 0.08958 0.95981 0.0
C913 C 0.33345 0.07917 0.98546 0.0
C914 C 0.36759 0.10795 1.00168 0.0
C915 C 0.37957 0.08947 0.02912 0.0
C916 C 0.42175 0.09461 0.02302 0.0
C917 C 0.37765 0.10727 0.06245 0.0
C918 C 0.34674 0.0457 0.02596 0.0
C919 C 0.32062 0.04014 1.00049 0.0
C920 C 0.2887 1.00185 0.99238 0.0
C921 C 0.28361 0.96843 1.01069 0.0
C922 C 0.31 0.97371 0.03702 0.0
C923 C 0.34171 0.01296 0.04474 0.0
H924 H 0.9969 0.34502 0.05842 0.0
H925 H 0.07786 0.32447 0.99692 0.0
H926 H 0.0187 0.27302 0.96552 0.0
H927 H 0.91591 0.24311 0.06221 0.0
H928 H 0.87738 0.2574 0.06077 0.0
H929 H 0.92616 0.29149 0.07823 0.0
H930 H 0.93427 0.34778 0.03833 0.0
H931 H 0.88566 0.31393 0.02047 0.0
H932 H 0.93004 0.33825 0.99492 0.0
H933 H 0.94865 0.22207 0.94173 0.0
H934 H 0.87601 0.17913 0.92726 0.0
H935 H 0.84458 0.23774 1.00378 0.0
C936 C 1.00249 0.32969 0.03852 0.0
C937 C 0.04207 0.33862 0.03033 0.0
C938 C 0.04775 0.31802 1.00373 0.0
C939 C 0.01436 0.28879 0.98577 0.0
C940 C 0.97569 0.28094 0.99455 0.0
C941 C 0.96986 0.30109 0.02025 0.0
C942 C 0.92577 0.28829 0.02467 0.0
C943 C 0.91042 0.26891 0.05847 0.0
C944 C 0.91853 0.32419 0.01925 0.0
C945 C 0.90739 0.25737 0.9976 0.0
C946 C 0.93637 0.25321 0.98046 0.0
C947 C 0.92579 0.22533 0.9549 0.0
C948 C 0.88452 0.20107 0.94686 0.0
C949 C 0.85459 0.20519 0.96423 0.0
C950 C 0.86655 0.23396 0.98973 0.0
H951 H 0.40698 0.23724 0.50697 0.0
H952 H 0.32574 0.18736 0.58991 0.0
H953 H 0.29495 0.22914 0.5759 0.0
H954 H 0.42181 0.33945 0.51205 0.0
H955 H 0.42222 0.34525 0.46831 0.0
H956 H 0.43942 0.31316 0.48601 0.0
H957 H 0.3878 0.25316 0.45033 0.0
H958 H 0.3703 0.28504 0.43274 0.0
H959 H 0.33487 0.23816 0.45231 0.0
H960 H 0.27266 0.27622 0.55265 0.0
H961 H 0.25977 0.32403 0.52107 0.0
H962 H 0.35327 0.34029 0.45203 0.0
C963 C 0.38304 0.23548 0.5224 0.0
C964 C 0.36885 0.20916 0.5496 0.0
C965 C 0.33707 0.20729 0.56893 0.0
C966 C 0.31942 0.23094 0.56121 0.0
C967 C 0.3337 0.25614 0.53397 0.0
C968 C 0.36476 0.25855 0.51484 0.0
C969 C 0.37351 0.28699 0.48625 0.0
C970 C 0.41681 0.32337 0.48829 0.0
C971 C 0.36617 0.26447 0.45347 0.0
C972 C 0.34229 0.29985 0.49215 0.0
C973 C 0.3199 0.2821 0.51998 0.0
C974 C 0.28989 0.29018 0.53073 0.0
C975 C 0.28274 0.31732 0.51262 0.0
C976 C 0.30517 0.33562 0.48387 0.0
C977 C 0.33514 0.32644 0.47358 0.0
H978 H 0.76445 0.16607 0.52034 0.0
H979 H 0.8282 0.13453 0.59202 0.0
H980 H 0.787 0.06234 0.57577 0.0
H981 H 0.66591 0.07718 0.52959 0.0
H982 H 0.65467 0.07452 0.48655 0.0
H983 H 0.68772 0.12278 0.50538 0.0
H984 H 0.74345 0.13563 0.46292 0.0
H985 H 0.71063 0.08722 0.44422 0.0
H986 H 0.76012 0.09908 0.45848 0.0
H987 H 0.73814 0.99317 0.5508 0.0
H988 H 0.68723 0.93408 0.51922 0.0
H989 H 0.65944 0.01374 0.46282 0.0
C990 C 0.76964 0.1441 0.53298 0.0
C991 C 0.79946 0.15595 0.5576 0.0
C992 C 0.80543 0.12611 0.57315 0.0
C993 C 0.7822 0.08509 0.56407 0.0
C994 C 0.75342 0.07463 0.53932 0.0
C995 C 0.74718 0.10341 0.52404 0.0
C996 C 0.71548 0.08498 0.49748 0.0
C997 C 0.67878 0.09017 0.50524 0.0
C998 C 0.73352 0.10279 0.46379 0.0
C999 C 0.7048 0.0412 0.50003 0.0
C1000 C 0.72665 0.03559 0.52441 0.0
C1001 C 0.72102 0.99731 0.53158 0.0
C1002 C 0.69209 0.96395 0.51348 0.0
C1003 C 0.66953 0.96925 0.48833 0.0
C1004 C 0.6764 0.00854 0.48156 0.0
H1005 H 0.02359 0.73471 0.48812 0.0
H1006 H 0.02429 0.62158 0.49659 0.0
H1007 H 0.95887 0.5908 0.52552 0.0
H1008 H 0.97194 0.7279 0.56712 0.0
H1009 H 0.94215 0.74825 0.55011 0.0
H1010 H 0.99167 0.76349 0.53378 0.0
H1011 H 0.96083 0.74092 0.47587 0.0
H1012 H 0.91136 0.72584 0.49198 0.0
H1013 H 0.91986 0.68986 0.46968 0.0
H1014 H 0.89211 0.57042 0.54874 0.0
H1015 H 0.82457 0.55961 0.56243 0.0
H1016 H 0.8644 0.68513 0.53873 0.0
C1017 C 0.01007 0.70377 0.49673 0.0
C1018 C 0.02877 0.68043 0.49076 0.0
C1019 C 0.01025 0.63978 0.50141 0.0
C1020 C 0.9733 0.62218 0.51795 0.0
C1021 C 0.95523 0.64567 0.52342 0.0
C1022 C 0.9727 0.68548 0.51305 0.0
C1023 C 0.94475 0.70244 0.51944 0.0
C1024 C 0.96377 0.73761 0.54408 0.0
C1025 C 0.93353 0.71552 0.48733 0.0
C1026 C 0.90854 0.66559 0.53413 0.0
C1027 C 0.91571 0.63349 0.53662 0.0
C1028 C 0.88622 0.59541 0.54734 0.0
C1029 C 0.84793 0.58956 0.55498 0.0
C1030 C 0.83938 0.62159 0.5518 0.0
C1031 C 0.87039 0.66037 0.54199 0.0
H1032 H 0.24636 0.41876 0.31579 0.0
H1033 H 0.33185 0.54632 0.33101 0.0
H1034 H 0.30454 0.56312 0.28214 0.0
H1035 H 0.24565 0.4183 0.22779 0.0
H1036 H 0.19201 0.38345 0.22479 0.0
H1037 H 0.21987 0.38178 0.25976 0.0
H1038 H 0.17067 0.39058 0.2981 0.0
H1039 H 0.14284 0.39247 0.26317 0.0
H1040 H 0.16303 0.43328 0.29254 0.0
H1041 H 0.26935 0.56509 0.22889 0.0
H1042 H 0.22638 0.55269 0.17987 0.0
H1043 H 0.1585 0.42488 0.20401 0.0
C1044 C 0.25958 0.45025 0.30877 0.0
C1045 C 0.29175 0.48122 0.32713 0.0
C1046 C 0.30748 0.52205 0.31731 0.0
C1047 C 0.2921 0.53185 0.28954 0.0
C1048 C 0.26023 0.50059 0.27212 0.0
C1049 C 0.2438 0.46063 0.2817 0.0
C1050 C 0.20843 0.43281 0.25985 0.0
C1051 C 0.21703 0.40229 0.24199 0.0
C1052 C 0.1689 0.41101 0.2796 0.0
C1053 C 0.20775 0.46319 0.23617 0.0
C1054 C 0.23822 0.50209 0.24331 0.0
C1055 C 0.24505 0.53479 0.22348 0.0
C1056 C 0.22042 0.52749 0.19565 0.0
C1057 C 0.18859 0.48795 0.18813 0.0
C1058 C 0.18207 0.45561 0.20914 0.0
H1059 H 0.5543 0.78693 0.1844 0.0
H1060 H 0.50429 0.66201 0.21474 0.0
H1061 H 0.49074 0.68007 0.2699 0.0
H1062 H 0.60628 0.82939 0.26061 0.0
H1063 H 0.59873 0.87248 0.25903 0.0
H1064 H 0.60166 0.84891 0.22169 0.0
H1065 H 0.53195 0.83881 0.20387 0.0
H1066 H 0.52869 0.86206 0.2413 0.0
H1067 H 0.48883 0.81199 0.23042 0.0
H1068 H 0.48093 0.71228 0.32162 0.0
H1069 H 0.48424 0.7562 0.36733 0.0
H1070 H 0.54691 0.86178 0.30494 0.0
C1071 C 0.54002 0.76327 0.20257 0.0
C1072 C 0.52944 0.72276 0.19506 0.0
C1073 C 0.51214 0.69302 0.21982 0.0
C1074 C 0.50428 0.70307 0.25118 0.0
C1075 C 0.51483 0.74327 0.25772 0.0
C1076 C 0.53311 0.77305 0.23424 0.0
C1077 C 0.54435 0.81448 0.24813 0.0
C1078 C 0.59049 0.84299 0.24731 0.0
C1079 C 0.52212 0.83291 0.22984 0.0
C1080 C 0.52907 0.80344 0.28303 0.0
C1081 C 0.5116 0.76212 0.28791 0.0
C1082 C 0.49477 0.74466 0.318 0.0
C1083 C 0.49657 0.76997 0.34387 0.0
C1084 C 0.51569 0.81265 0.33996 0.0
C1085 C 0.53188 0.82936 0.30886 0.0
H1086 H 0.31468 0.86409 0.22442 0.0
H1087 H 0.27609 0.75871 0.16217 0.0
H1088 H 0.23728 0.71417 0.20811 0.0
H1089 H 0.32669 0.81675 0.29872 0.0
H1090 H 0.30901 0.84254 0.32525 0.0
H1091 H 0.33441 0.86593 0.28759 0.0
H1092 H 0.27299 0.87314 0.27002 0.0
H1093 H 0.24723 0.84947 0.30747 0.0
H1094 H 0.22331 0.82879 0.26867 0.0
H1095 H 0.19628 0.68128 0.25991 0.0
H1096 H 0.16491 0.66282 0.31507 0.0
H1097 H 0.23533 0.78851 0.34497 0.0
C1098 C 0.29859 0.83161 0.2206 0.0
C1099 C 0.29868 0.81502 0.18956 0.0
C1100 C 0.27698 0.77229 0.18567 0.0
C1101 C 0.25455 0.74666 0.21164 0.0
C1102 C 0.25453 0.76399 0.24172 0.0
C1103 C 0.27672 0.80547 0.2465 0.0
C1104 C 0.27204 0.81639 0.28135 0.0
C1105 C 0.31297 0.83659 0.29928 0.0
C1106 C 0.25275 0.84355 0.28189 0.0
C1107 C 0.24344 0.77471 0.2953 0.0
C1108 C 0.23314 0.74487 0.27194 0.0
C1109 C 0.20485 0.70435 0.27856 0.0
C1110 C 0.18708 0.69408 0.30988 0.0
C1111 C 0.19837 0.724 0.33447 0.0
C1112 C 0.22694 0.76478 0.32691 0.0
H1113 H 0.78811 0.48133 0.81729 0.0
H1114 H 0.85468 0.61179 0.83102 0.0
H1115 H 0.81497 0.61983 0.78778 0.0
H1116 H 0.79098 0.49154 0.7274 0.0
H1117 H 0.74222 0.44702 0.72109 0.0
H1118 H 0.77261 0.44998 0.75588 0.0
H1119 H 0.71308 0.43599 0.79431 0.0
H1120 H 0.6827 0.43351 0.75964 0.0
H1121 H 0.69117 0.46841 0.79256 0.0
H1122 H 0.76332 0.61396 0.74784 0.0
H1123 H 0.71798 0.59825 0.70089 0.0
H1124 H 0.69467 0.47428 0.70078 0.0
C1125 C 0.7942 0.51152 0.81115 0.0
C1126 C 0.82357 0.54583 0.82895 0.0
C1127 C 0.83151 0.58484 0.81912 0.0
C1128 C 0.80904 0.58982 0.79434 0.0
C1129 C 0.77972 0.55566 0.77804 0.0
C1130 C 0.77342 0.5174 0.78484 0.0
C1131 C 0.7434 0.48686 0.76028 0.0
C1132 C 0.76351 0.46772 0.73995 0.0
C1133 C 0.70533 0.45426 0.77775 0.0
C1134 C 0.73364 0.51406 0.73921 0.0
C1135 C 0.75402 0.55329 0.75094 0.0
C1136 C 0.7481 0.58362 0.73775 0.0
C1137 C 0.72203 0.57425 0.71095 0.0
C1138 C 0.70338 0.53531 0.6962 0.0
C1139 C 0.70888 0.50454 0.71103 0.0
H1140 H 0.43483 0.27508 0.81587 0.0
H1141 H 0.56303 0.33826 0.83872 0.0
H1142 H 0.57566 0.3071 0.79011 0.0
H1143 H 0.43068 0.18206 0.79396 0.0
H1144 H 0.39317 0.16938 0.76241 0.0
H1145 H 0.39492 0.19988 0.79675 0.0
H1146 H 0.40141 0.25601 0.75746 0.0
H1147 H 0.39951 0.22564 0.72293 0.0
H1148 H 0.44145 0.27648 0.72751 0.0
H1149 H 0.57378 0.26905 0.73717 0.0
H1150 H 0.55705 0.22378 0.68895 0.0
H1151 H 0.4293 0.17881 0.70589 0.0
C1152 C 0.46567 0.28279 0.81056 0.0
C1153 C 0.49805 0.30971 0.83107 0.0
C1154 C 0.53778 0.31816 0.82331 0.0
C1155 C 0.54521 0.3005 0.79571 0.0
C1156 C 0.51247 0.27355 0.77638 0.0
C1157 C 0.4734 0.26435 0.7838 0.0
C1158 C 0.44309 0.23215 0.76075 0.0
C1159 C 0.41374 0.19358 0.7796 0.0
C1160 C 0.42001 0.24856 0.74099 0.0
C1161 C 0.47112 0.22483 0.73896 0.0
C1162 C 0.51112 0.24947 0.74794 0.0
C1163 C 0.54249 0.24933 0.73028 0.0
C1164 C 0.53273 0.22349 0.70289 0.0
C1165 C 0.49188 0.19724 0.69374 0.0
C1166 C 0.46083 0.19796 0.71237 0.0
H1167 H 0.77419 0.23267 0.84057 0.0
H1168 H 0.65056 0.15915 0.80689 0.0
H1169 H 0.67092 0.19139 0.75211 0.0
H1170 H 0.80166 0.32378 0.79516 0.0
H1171 H 0.85197 0.33357 0.78572 0.0
H1172 H 0.82714 0.30663 0.82249 0.0
H1173 H 0.83735 0.24684 0.80507 0.0
H1174 H 0.86252 0.27377 0.7684 0.0
H1175 H 0.81929 0.22345 0.76566 0.0
H1176 H 0.70541 0.23417 0.70123 0.0
H1177 H 0.75127 0.27536 0.65682 0.0
H1178 H 0.85405 0.31617 0.72223 0.0
C1179 C 0.7513 0.22368 0.82173 0.0
C1180 C 0.7105 0.194 0.82817 0.0
C1181 C 0.68177 0.1821 0.8026 0.0
C1182 C 0.69314 0.20038 0.77147 0.0
C1183 C 0.73362 0.22979 0.76601 0.0
C1184 C 0.76239 0.24069 0.79032 0.0
C1185 C 0.80439 0.27072 0.7776 0.0
C1186 C 0.82234 0.31107 0.79637 0.0
C1187 C 0.83254 0.25261 0.77928 0.0
C1188 C 0.79484 0.27568 0.74241 0.0
C1189 C 0.75375 0.25224 0.73635 0.0
C1190 C 0.7376 0.25235 0.70577 0.0
C1191 C 0.76401 0.27619 0.68066 0.0
C1192 C 0.80648 0.29933 0.68581 0.0
C1193 C 0.82184 0.29909 0.71736 0.0
H1194 H 0.03383 0.47429 0.07841 0.0
H1195 H 0.12743 0.51291 1.00418 0.0
H1196 H 0.08536 0.52539 0.96612 0.0
H1197 H 0.94961 0.42331 0.02522 0.0
H1198 H 0.91812 0.43984 0.04513 0.0
H1199 H 0.95611 0.43554 0.06819 0.0
H1200 H 0.98838 0.51067 0.08631 0.0
H1201 H 0.94983 0.51467 0.06388 0.0
H1202 H 1.00252 0.54951 0.05571 0.0
H1203 H 0.03008 0.52542 0.93287 0.0
H1204 H 0.97227 0.53063 0.91154 0.0
H1205 H 0.91553 0.49775 1.00721 0.0
C1206 C 0.04591 0.48624 0.05448 0.0
C1207 C 0.08409 0.49184 0.0445 0.0
C1208 C 0.09838 0.50783 0.01274 0.0
C1209 C 0.07447 0.51477 0.99059 0.0
C1210 C 0.03618 0.50649 1.00036 0.0
C1211 C 0.02239 0.49395 0.03186 0.0
C1212 C 0.98017 0.48842 0.03589 0.0
C1213 C 0.94917 0.44414 0.0441 0.0
C1214 C 0.98025 0.51757 0.062 0.0
C1215 C 0.9727 0.49967 1.00183 0.0
C1216 C 0.00512 0.50912 0.98158 0.0
C1217 C 0.00485 0.51902 0.94874 0.0
C1218 C 0.97166 0.52171 0.93673 0.0
C1219 C 0.93958 0.51587 0.95768 0.0
C1220 C 0.93965 0.50307 0.99041 0.0
H1221 H 0.50714 0.5936 0.01192 0.0
H1222 H 0.53493 0.56633 0.10835 0.0
H1223 H 0.53161 0.50444 0.08633 0.0
H1224 H 0.43345 0.48563 0.99209 0.0
H1225 H 0.44667 0.49205 0.94935 0.0
H1226 H 0.45049 0.53399 0.97274 0.0
H1227 H 0.52546 0.57723 0.95556 0.0
H1228 H 0.52246 0.5353 0.93271 0.0
H1229 H 0.56027 0.55931 0.96419 0.0
H1230 H 0.53443 0.45099 0.05271 0.0
H1231 H 0.52333 0.39714 0.01432 0.0
H1232 H 0.4855 0.45255 0.9397 0.0
C1233 C 0.51171 0.57422 0.02867 0.0
C1234 C 0.5226 0.58587 0.06191 0.0
C1235 C 0.5276 0.55903 0.0828 0.0
C1236 C 0.52591 0.52374 0.07042 0.0
C1237 C 0.51769 0.51466 0.03724 0.0
C1238 C 0.50888 0.53808 0.01691 0.0
C1239 C 0.49872 0.51997 0.98254 0.0
C1240 C 0.45472 0.50715 0.97365 0.0
C1241 C 0.52852 0.54974 0.95726 0.0
C1242 C 0.50422 0.4832 0.98656 0.0
C1243 C 0.51592 0.48146 0.01827 0.0
C1244 C 0.52432 0.45152 0.02808 0.0
C1245 C 0.51817 0.42107 1.00574 0.0
C1246 C 0.5026 0.41957 0.97381 0.0
C1247 C 0.49707 0.45223 0.96378 0.0
H1248 H 0.41684 0.92158 0.01194 0.0
H1249 H 0.44618 0.9748 0.10917 0.0
H1250 H 0.5092 0.03188 0.08774 0.0
H1251 H 0.5228 0.95142 0.99067 0.0
H1252 H 0.51648 0.96021 0.94836 0.0
H1253 H 0.47389 0.92287 0.97143 0.0
H1254 H 0.43371 0.95892 0.95631 0.0
H1255 H 0.47647 0.9969 0.9338 0.0
H1256 H 0.45448 0.01179 0.96621 0.0
H1257 H 0.56516 0.08614 0.0555 0.0
H1258 H 0.62012 0.12736 0.0178 0.0
H1259 H 0.55949 0.03858 0.94071 0.0
C1260 C 0.43682 0.94483 0.02894 0.0
C1261 C 0.42575 0.94379 0.06236 0.0
C1262 C 0.45327 0.97482 0.08355 0.0
C1263 C 0.48918 0.00763 0.07151 0.0
C1264 C 0.49799 0.00869 0.03829 0.0
C1265 C 0.47344 0.97751 0.01745 0.0
C1266 C 0.49122 0.98569 0.98301 0.0
C1267 C 0.50172 0.95311 0.97277 0.0
C1268 C 0.46223 0.98849 0.95838 0.0
C1269 C 0.52934 0.02671 0.98771 0.0
C1270 C 0.53197 0.0394 0.01978 0.0
C1271 C 0.56371 0.07621 0.03047 0.0
C1272 C 0.59482 0.09971 1.00852 0.0
C1273 C 0.59494 0.08646 0.976 0.0
C1274 C 0.56073 0.0499 0.9652 0.0
H1275 H 0.52716 0.97234 0.4464 0.0
H1276 H 0.49934 0.88388 0.5235 0.0
H1277 H 0.4857 0.92554 0.56123 0.0
H1278 H 0.57746 0.0599 0.49666 0.0
H1279 H 0.55719 0.08825 0.47688 0.0
H1280 H 0.56272 0.05063 0.45425 0.0
H1281 H 0.48653 0.01382 0.43911 0.0
H1282 H 0.48106 0.05183 0.46117 0.0
H1283 H 0.44928 0.99903 0.47113 0.0
H1284 H 0.48226 0.9798 0.59327 0.0
H1285 H 0.47499 0.03668 0.61408 0.0
H1286 H 0.50073 0.08964 0.51691 0.0
C1287 C 0.51732 0.96126 0.47094 0.0
C1288 C 0.51486 0.92458 0.48167 0.0
C1289 C 0.50182 0.91166 0.51428 0.0
C1290 C 0.4942 0.93537 0.53622 0.0
C1291 C 0.49906 0.97215 0.52551 0.0
C1292 C 0.50917 0.98467 0.49344 0.0
C1293 C 0.51183 0.02563 0.48862 0.0
C1294 C 0.55486 0.05802 0.4785 0.0
C1295 C 0.48029 0.02237 0.46352 0.0
C1296 C 0.50176 0.03389 0.5229 0.0
C1297 C 0.49519 1.00287 0.54386 0.0
C1298 C 0.48664 0.00399 0.57693 0.0
C1299 C 0.48278 0.03669 0.58863 0.0
C1300 C 0.48654 0.06766 0.56728 0.0
C1301 C 0.49734 0.06652 0.53407 0.0
H1302 H 0.96852 0.45079 0.58528 0.0
H1303 H 0.88505 0.39083 0.50481 0.0
H1304 H 0.92983 0.44523 0.46789 0.0
H1305 H 0.99664 0.55558 0.55751 0.0
H1306 H 0.04838 0.57665 0.57078 0.0
H1307 H 0.00856 0.53375 0.59189 0.0
H1308 H 0.04669 0.49419 0.58206 0.0
H1309 H 0.08602 0.53662 0.56017 0.0
H1310 H 0.05928 0.48751 0.54089 0.0
H1311 H 0.98753 0.50046 0.43718 0.0
H1312 H 0.04601 0.56391 0.41771 0.0
H1313 H 0.0904 0.59364 0.51749 0.0
C1314 C 0.95913 0.44958 0.56015 0.0
C1315 C 0.92323 0.41557 0.54818 0.0
C1316 C 0.91238 0.41584 0.51492 0.0
C1317 C 0.93787 0.44663 0.49343 0.0
C1318 C 0.97406 0.4781 0.50538 0.0
C1319 C 0.98411 0.48087 0.53815 0.0
C1320 C 0.02456 0.51916 0.54432 0.0
C1321 C 0.0192 0.54799 0.5675 0.0
C1322 C 0.05599 0.50873 0.55766 0.0
C1323 C 0.03558 0.53668 0.5099 0.0
C1324 C 0.00629 0.51197 0.48779 0.0
C1325 C 0.01024 0.52066 0.4544 0.0
C1326 C 0.04381 0.55681 0.44349 0.0
C1327 C 0.07254 0.58469 0.46594 0.0
C1328 C 0.06891 0.57345 0.49952 0.0
H1329 H 0.40865 0.49976 0.50256 0.0
H1330 H 0.43316 0.46158 0.4093 0.0
H1331 H 0.4941 0.46454 0.43297 0.0
H1332 H 0.51709 0.5717 0.52088 0.0
H1333 H 0.5104 0.56198 0.56419 0.0
H1334 H 0.46919 0.55796 0.53975 0.0
H1335 H 0.42383 0.48488 0.56051 0.0
H1336 H 0.4649 0.48785 0.58447 0.0
H1337 H 0.43965 0.44785 0.55478 0.0
H1338 H 0.54679 0.46299 0.46828 0.0
H1339 H 0.60033 0.47591 0.5074 0.0
H1340 H 0.54714 0.52143 0.57781 0.0
C1341 C 0.42724 0.49284 0.48679 0.0
C1342 C 0.41509 0.4792 0.45409 0.0
C1343 C 0.44091 0.47115 0.43445 0.0
C1344 C 0.47561 0.47257 0.4478 0.0
C1345 C 0.48504 0.48344 0.48059 0.0
C1346 C 0.46265 0.49511 0.4995 0.0
C1347 C 0.48079 0.50744 0.53369 0.0
C1348 C 0.49523 0.55245 0.54001 0.0
C1349 C 0.45047 0.48037 0.55991 0.0
C1350 C 0.51643 0.49996 0.53128 0.0
C1351 C 0.5176 0.48546 0.50049 0.0
C1352 C 0.54666 0.47518 0.49218 0.0
C1353 C 0.57692 0.48237 0.51496 0.0
C1354 C 0.57904 0.50068 0.54582 0.0
C1355 C 0.54708 0.50792 0.55453 0.0
loop_
_geom_bond_atom_site_label_1
_geom_bond_atom_site_label_2
_geom_bond_distance
_geom_bond_site_symmetry_2
_ccdc_geom_bond_type
Co0 O2 2.143 . S
Co0 O8 2.074 . S
Co0 O11 2.093 . S
Co0 O24 2.097 . S
Co0 N41 2.151 . S
Co0 N49 2.214 1_554 S
Co1 O2 2.160 . S
Co1 O7 2.058 . S
Co1 O17 2.057 . S
Co1 O32 2.037 . S
Co1 N36 2.145 . S
Co1 N57 2.257 . S
O2 Co0 2.143 . S
O2 Co1 2.160 . S
C3 O4 1.278 . S
C3 O11 1.224 . S
O4 C3 1.278 . S
C5 O6 1.245 . S
C5 O17 1.232 . S
O6 C5 1.245 . S
O7 Co1 2.058 . S
O7 C33 1.269 . S
O8 Co0 2.074 . S
O8 C33 1.257 . S
H9 C34 0.930 . S
H10 C40 0.930 . S
O11 Co0 2.093 . S
O11 C3 1.224 . S
H12 C44 0.929 1_556 S
H13 C46 0.930 . S
H14 C47 0.930 . S
H15 C45 0.929 1_556 S
H16 C48 0.928 . S
O17 Co1 2.057 . S
O17 C5 1.232 . S
H18 C37 0.929 . S
H19 C38 0.929 . S
H20 C50 0.931 . S
H21 C42 0.929 . S
H22 C51 0.930 . S
H23 C43 0.931 . S
O24 Co0 2.097 . S
O24 C52 1.214 . S
H25 C53 0.929 . S
H26 C54 0.929 . S
H27 C55 0.930 . S
H28 C56 0.929 . S
H29 C58 0.930 . S
H30 C35 0.930 . S
H31 C39 0.930 . S
O32 Co1 2.037 . S
O32 C52 1.234 . S
C33 O7 1.269 . S
C33 O8 1.257 . S
C34 H9 0.930 . S
C34 C37 1.388 . S
C34 C39 1.418 . S
C35 H30 0.930 . S
C35 C38 1.404 . S
C35 C39 1.353 1_455 S
N36 Co1 2.145 . S
N36 C37 1.397 1_455 S
N36 C38 1.334 . S
C37 H18 0.929 . S
C37 C34 1.388 . S
C37 N36 1.397 1_655 S
C38 H19 0.929 . S
C38 C35 1.404 . S
C38 N36 1.334 . S
C39 H31 0.930 . S
C39 C34 1.418 . S
C39 C35 1.353 1_655 S
C40 H10 0.930 . S
C40 N41 1.330 . S
C40 C42 1.446 . S
N41 Co0 2.151 . S
N41 C40 1.330 . S
N41 C45 1.418 . S
C42 H21 0.929 . S
C42 C40 1.446 . S
C42 C43 1.332 . S
C43 H23 0.931 . S
C43 C42 1.332 . S
C43 C44 1.267 . S
C44 H12 0.929 1_554 S
C44 C43 1.267 . S
C44 C45 1.251 . S
C45 H15 0.929 1_554 S
C45 N41 1.418 . S
C45 C44 1.251 . S
C46 H13 0.930 . S
C46 C48 1.406 . S
C46 C51 1.261 . S
C47 H14 0.930 . S
C47 N49 1.325 . S
C47 C50 1.357 . S
C48 H16 0.928 . S
C48 C46 1.406 . S
C48 N49 1.261 . S
N49 Co0 2.214 1_556 S
N49 C47 1.325 . S
N49 C48 1.261 . S
C50 H20 0.931 . S
C50 C47 1.357 . S
C50 C51 1.312 . S
C51 H22 0.930 . S
C51 C46 1.261 . S
C51 C50 1.312 . S
C52 O24 1.214 . S
C52 O32 1.234 . S
C53 H25 0.929 . S
C53 C56 1.391 . S
C53 C58 1.391 . S
C54 H26 0.929 . S
C54 C55 1.390 . S
C54 N57 1.391 . S
C55 H27 0.930 . S
C55 C54 1.390 . S
C55 C56 1.392 . S
C56 H28 0.929 . S
C56 C53 1.391 . S
C56 C55 1.392 . S
N57 Co1 2.257 . S
N57 C54 1.391 . S
N57 C58 1.388 . S
C58 H29 0.930 . S
C58 C53 1.391 . S
C58 N57 1.388 . S
Co59 O61 2.143 . S
Co59 O67 2.074 . S
Co59 O70 2.093 . S
Co59 O83 2.097 . S
Co59 N100 2.151 . S
Co59 N108 2.214 1_554 S
Co60 O61 2.160 . S
Co60 O66 2.058 . S
Co60 O76 2.057 . S
Co60 O91 2.037 . S
Co60 N95 2.145 . S
Co60 N116 2.257 . S
O61 Co59 2.143 . S
O61 Co60 2.160 . S
C62 O63 1.278 . S
C62 O70 1.224 . S
O63 C62 1.278 . S
C64 O65 1.245 . S
C64 O76 1.232 . S
O65 C64 1.245 . S
O66 Co60 2.058 . S
O66 C92 1.269 . S
O67 Co59 2.074 . S
O67 C92 1.257 . S
H68 C93 0.930 . S
H69 C99 0.930 . S
O70 Co59 2.093 . S
O70 C62 1.224 . S
H71 C103 0.929 1_556 S
H72 C105 0.930 . S
H73 C106 0.930 . S
H74 C104 0.929 1_556 S
H75 C107 0.928 . S
O76 Co60 2.057 . S
O76 C64 1.232 . S
H77 C96 0.929 . S
H78 C97 0.929 . S
H79 C109 0.931 . S
H80 C101 0.929 . S
H81 C110 0.930 . S
H82 C102 0.931 . S
O83 Co59 2.097 . S
O83 C111 1.214 . S
H84 C112 0.929 . S
H85 C113 0.929 . S
H86 C114 0.930 . S
H87 C115 0.929 . S
H88 C117 0.930 . S
H89 C94 0.930 . S
H90 C98 0.930 . S
O91 Co60 2.037 . S
O91 C111 1.234 . S
C92 O66 1.269 . S
C92 O67 1.257 . S
C93 H68 0.930 . S
C93 C96 1.388 . S
C93 C98 1.418 . S
C94 H89 0.930 . S
C94 C97 1.404 . S
C94 C98 1.353 . S
N95 Co60 2.145 . S
N95 C96 1.397 . S
N95 C97 1.334 . S
C96 H77 0.929 . S
C96 C93 1.388 . S
C96 N95 1.397 . S
C97 H78 0.929 . S
C97 C94 1.404 . S
C97 N95 1.334 . S
C98 H90 0.930 . S
C98 C93 1.418 . S
C98 C94 1.353 . S
C99 H69 0.930 . S
C99 N100 1.330 . S
C99 C101 1.446 . S
N100 Co59 2.151 . S
N100 C99 1.330 . S
N100 C104 1.418 . S
C101 H80 0.929 . S
C101 C99 1.446 . S
C101 C102 1.332 . S
C102 H82 0.931 . S
C102 C101 1.332 . S
C102 C103 1.267 . S
C103 H71 0.929 1_554 S
C103 C102 1.267 . S
C103 C104 1.251 . S
C104 H74 0.929 1_554 S
C104 N100 1.418 . S
C104 C103 1.251 . S
C105 H72 0.930 . S
C105 C107 1.406 . S
C105 C110 1.261 . S
C106 H73 0.930 . S
C106 N108 1.325 . S
C106 C109 1.357 . S
C107 H75 0.928 . S
C107 C105 1.406 . S
C107 N108 1.261 . S
N108 Co59 2.214 1_556 S
N108 C106 1.325 . S
N108 C107 1.261 . S
C109 H79 0.931 . S
C109 C106 1.357 . S
C109 C110 1.312 . S
C110 H81 0.930 . S
C110 C105 1.261 . S
C110 C109 1.312 . S
C111 O83 1.214 . S
C111 O91 1.234 . S
C112 H84 0.929 . S
C112 C115 1.391 . S
C112 C117 1.391 . S
C113 H85 0.929 . S
C113 C114 1.390 . S
C113 N116 1.391 . S
C114 H86 0.930 . S
C114 C113 1.390 . S
C114 C115 1.392 . S
C115 H87 0.929 . S
C115 C112 1.391 . S
C115 C114 1.392 . S
N116 Co60 2.257 . S
N116 C113 1.391 . S
N116 C117 1.388 . S
C117 H88 0.930 . S
C117 C112 1.391 . S
C117 N116 1.388 . S
Co118 O120 2.143 . S
Co118 O126 2.074 . S
Co118 O129 2.093 . S
Co118 O142 2.097 . S
Co118 N159 2.151 . S
Co118 N167 2.214 1_554 S
Co119 O120 2.160 . S
Co119 O125 2.058 . S
Co119 O135 2.057 . S
Co119 O150 2.037 . S
Co119 N154 2.145 . S
Co119 N175 2.257 . S
O120 Co118 2.143 . S
O120 Co119 2.160 . S
C121 O122 1.278 . S
C121 O129 1.224 . S
O122 C121 1.278 . S
C123 O124 1.245 . S
C123 O135 1.232 . S
O124 C123 1.245 . S
O125 Co119 2.058 . S
O125 C151 1.269 . S
O126 Co118 2.074 . S
O126 C151 1.257 . S
H127 C152 0.930 . S
H128 C158 0.930 . S
O129 Co118 2.093 . S
O129 C121 1.224 . S
H130 C162 0.929 1_556 S
H131 C164 0.930 . S
H132 C165 0.930 . S
H133 C163 0.929 1_556 S
H134 C166 0.928 . S
O135 Co119 2.057 . S
O135 C123 1.232 . S
H136 C155 0.929 . S
H137 C156 0.929 . S
H138 C168 0.931 . S
H139 C160 0.929 . S
H140 C169 0.930 . S
H141 C161 0.931 . S
O142 Co118 2.097 . S
O142 C170 1.214 . S
H143 C171 0.929 . S
H144 C172 0.929 . S
H145 C173 0.930 . S
H146 C174 0.929 . S
H147 C176 0.930 . S
H148 C153 0.930 . S
H149 C157 0.930 . S
O150 Co119 2.037 . S
O150 C170 1.234 . S
C151 O125 1.269 . S
C151 O126 1.257 . S
C152 H127 0.930 . S
C152 C155 1.388 . S
C152 C157 1.418 . S
C153 H148 0.930 . S
C153 C156 1.404 . S
C153 C157 1.353 1_565 S
N154 Co119 2.145 . S
N154 C155 1.397 1_565 S
N154 C156 1.334 . S
C155 H136 0.929 . S
C155 C152 1.388 . S
C155 N154 1.397 1_545 S
C156 H137 0.929 . S
C156 C153 1.404 . S
C156 N154 1.334 . S
C157 H149 0.930 . S
C157 C152 1.418 . S
C157 C153 1.353 1_545 S
C158 H128 0.930 . S
C158 N159 1.330 . S
C158 C160 1.446 . S
N159 Co118 2.151 . S
N159 C158 1.330 . S
N159 C163 1.418 . S
C160 H139 0.929 . S
C160 C158 1.446 . S
C160 C161 1.332 . S
C161 H141 0.931 . S
C161 C160 1.332 . S
C161 C162 1.267 . S
C162 H130 0.929 1_554 S
C162 C161 1.267 . S
C162 C163 1.251 . S
C163 H133 0.929 1_554 S
C163 N159 1.418 . S
C163 C162 1.251 . S
C164 H131 0.930 . S
C164 C166 1.406 . S
C164 C169 1.261 . S
C165 H132 0.930 . S
C165 N167 1.325 . S
C165 C168 1.357 . S
C166 H134 0.928 . S
C166 C164 1.406 . S
C166 N167 1.261 . S
N167 Co118 2.214 1_556 S
N167 C165 1.325 . S
N167 C166 1.261 . S
C168 H138 0.931 . S
C168 C165 1.357 . S
C168 C169 1.312 . S
C169 H140 0.930 . S
C169 C164 1.261 . S
C169 C168 1.312 . S
C170 O142 1.214 . S
C170 O150 1.234 . S
C171 H143 0.929 . S
C171 C174 1.391 . S
C171 C176 1.391 . S
C172 H144 0.929 . S
C172 C173 1.390 . S
C172 N175 1.391 . S
C173 H145 0.930 . S
C173 C172 1.390 . S
C173 C174 1.392 . S
C174 H146 0.929 . S
C174 C171 1.391 . S
C174 C173 1.392 . S
N175 Co119 2.257 . S
N175 C172 1.391 . S
N175 C176 1.388 . S
C176 H147 0.930 . S
C176 C171 1.391 . S
C176 N175 1.388 . S
Co177 O179 2.143 . S
Co177 O185 2.074 . S
Co177 O188 2.093 . S
Co177 O201 2.097 . S
Co177 N218 2.151 . S
Co177 N226 2.214 . S
Co178 O179 2.160 . S
Co178 O184 2.058 . S
Co178 O194 2.057 . S
Co178 O209 2.037 . S
Co178 N213 2.145 . S
Co178 N234 2.257 . S
O179 Co177 2.143 . S
O179 Co178 2.160 . S
C180 O181 1.278 . S
C180 O188 1.224 . S
O181 C180 1.278 . S
C182 O183 1.245 . S
C182 O194 1.232 . S
O183 C182 1.245 . S
O184 Co178 2.058 . S
O184 C210 1.269 . S
O185 Co177 2.074 . S
O185 C210 1.257 . S
H186 C211 0.930 . S
H187 C217 0.930 . S
O188 Co177 2.093 . S
O188 C180 1.224 . S
H189 C221 0.929 . S
H190 C223 0.930 . S
H191 C224 0.930 . S
H192 C222 0.929 . S
H193 C225 0.928 . S
O194 Co178 2.057 . S
O194 C182 1.232 . S
H195 C214 0.929 . S
H196 C215 0.929 . S
H197 C227 0.931 . S
H198 C219 0.929 . S
H199 C228 0.930 . S
H200 C220 0.931 . S
O201 Co177 2.097 . S
O201 C229 1.214 . S
H202 C230 0.929 . S
H203 C231 0.929 . S
H204 C232 0.930 . S
H205 C233 0.929 . S
H206 C235 0.930 . S
H207 C212 0.930 . S
H208 C216 0.930 . S
O209 Co178 2.037 . S
O209 C229 1.234 . S
C210 O184 1.269 . S
C210 O185 1.257 . S
C211 H186 0.930 . S
C211 C214 1.388 . S
C211 C216 1.418 . S
C212 H207 0.930 . S
C212 C215 1.404 . S
C212 C216 1.353 1_565 S
N213 Co178 2.145 . S
N213 C214 1.397 1_565 S
N213 C215 1.334 . S
C214 H195 0.929 . S
C214 C211 1.388 . S
C214 N213 1.397 1_545 S
C215 H196 0.929 . S
C215 C212 1.404 . S
C215 N213 1.334 . S
C216 H208 0.930 . S
C216 C211 1.418 . S
C216 C212 1.353 1_545 S
C217 H187 0.930 . S
C217 N218 1.330 . S
C217 C219 1.446 . S
N218 Co177 2.151 . S
N218 C217 1.330 . S
N218 C222 1.418 . S
C219 H198 0.929 . S
C219 C217 1.446 . S
C219 C220 1.332 . S
C220 H200 0.931 . S
C220 C219 1.332 . S
C220 C221 1.267 . S
C221 H189 0.929 . S
C221 C220 1.267 . S
C221 C222 1.251 . S
C222 H192 0.929 . S
C222 N218 1.418 . S
C222 C221 1.251 . S
C223 H190 0.930 . S
C223 C225 1.406 . S
C223 C228 1.261 . S
C224 H191 0.930 . S
C224 N226 1.325 . S
C224 C227 1.357 . S
C225 H193 0.928 . S
C225 C223 1.406 . S
C225 N226 1.261 . S
N226 Co177 2.214 . S
N226 C224 1.325 . S
N226 C225 1.261 . S
C227 H197 0.931 . S
C227 C224 1.357 . S
C227 C228 1.312 . S
C228 H199 0.930 . S
C228 C223 1.261 . S
C228 C227 1.312 . S
C229 O201 1.214 . S
C229 O209 1.234 . S
C230 H202 0.929 . S
C230 C233 1.391 . S
C230 C235 1.391 . S
C231 H203 0.929 . S
C231 C232 1.390 . S
C231 N234 1.391 . S
C232 H204 0.930 . S
C232 C231 1.390 . S
C232 C233 1.392 . S
C233 H205 0.929 . S
C233 C230 1.391 . S
C233 C232 1.392 . S
N234 Co178 2.257 . S
N234 C231 1.391 . S
N234 C235 1.388 . S
C235 H206 0.930 . S
C235 C230 1.391 . S
C235 N234 1.388 . S
Co236 O238 2.143 . S
Co236 O244 2.074 . S
Co236 O247 2.093 . S
Co236 O260 2.097 . S
Co236 N277 2.151 . S
Co236 N285 2.214 . S
Co237 O238 2.160 . S
Co237 O243 2.058 . S
Co237 O253 2.057 . S
Co237 O268 2.037 . S
Co237 N272 2.145 . S
Co237 N293 2.257 . S
O238 Co236 2.143 . S
O238 Co237 2.160 . S
C239 O240 1.278 . S
C239 O247 1.224 . S
O240 C239 1.278 . S
C241 O242 1.245 . S
C241 O253 1.232 . S
O242 C241 1.245 . S
O243 Co237 2.058 . S
O243 C269 1.269 . S
O244 Co236 2.074 . S
O244 C269 1.257 . S
H245 C270 0.930 . S
H246 C276 0.930 . S
O247 Co236 2.093 . S
O247 C239 1.224 . S
H248 C280 0.929 . S
H249 C282 0.930 . S
H250 C283 0.930 . S
H251 C281 0.929 . S
H252 C284 0.928 . S
O253 Co237 2.057 . S
O253 C241 1.232 . S
H254 C273 0.929 . S
H255 C274 0.929 . S
H256 C286 0.931 . S
H257 C278 0.929 . S
H258 C287 0.930 . S
H259 C279 0.931 . S
O260 Co236 2.097 . S
O260 C288 1.214 . S
H261 C289 0.929 . S
H262 C290 0.929 . S
H263 C291 0.930 . S
H264 C292 0.929 . S
H265 C294 0.930 . S
H266 C271 0.930 . S
H267 C275 0.930 . S
O268 Co237 2.037 . S
O268 C288 1.234 . S
C269 O243 1.269 . S
C269 O244 1.257 . S
C270 H245 0.930 . S
C270 C273 1.388 . S
C270 C275 1.418 . S
C271 H266 0.930 . S
C271 C274 1.404 . S
C271 C275 1.353 1_455 S
N272 Co237 2.145 . S
N272 C273 1.397 1_455 S
N272 C274 1.334 . S
C273 H254 0.929 . S
C273 C270 1.388 . S
C273 N272 1.397 1_655 S
C274 H255 0.929 . S
C274 C271 1.404 . S
C274 N272 1.334 . S
C275 H267 0.930 . S
C275 C270 1.418 . S
C275 C271 1.353 1_655 S
C276 H246 0.930 . S
C276 N277 1.330 . S
C276 C278 1.446 . S
N277 Co236 2.151 . S
N277 C276 1.330 . S
N277 C281 1.418 . S
C278 H257 0.929 . S
C278 C276 1.446 . S
C278 C279 1.332 . S
C279 H259 0.931 . S
C279 C278 1.332 . S
C279 C280 1.267 . S
C280 H248 0.929 . S
C280 C279 1.267 . S
C280 C281 1.251 . S
C281 H251 0.929 . S
C281 N277 1.418 . S
C281 C280 1.251 . S
C282 H249 0.930 . S
C282 C284 1.406 . S
C282 C287 1.261 . S
C283 H250 0.930 . S
C283 N285 1.325 . S
C283 C286 1.357 . S
C284 H252 0.928 . S
C284 C282 1.406 . S
C284 N285 1.261 . S
N285 Co236 2.214 . S
N285 C283 1.325 . S
N285 C284 1.261 . S
C286 H256 0.931 . S
C286 C283 1.357 . S
C286 C287 1.312 . S
C287 H258 0.930 . S
C287 C282 1.261 . S
C287 C286 1.312 . S
C288 O260 1.214 . S
C288 O268 1.234 . S
C289 H261 0.929 . S
C289 C292 1.391 . S
C289 C294 1.391 . S
C290 H262 0.929 . S
C290 C291 1.390 . S
C290 N293 1.391 . S
C291 H263 0.930 . S
C291 C290 1.390 . S
C291 C292 1.392 . S
C292 H264 0.929 . S
C292 C289 1.391 . S
C292 C291 1.392 . S
N293 Co237 2.257 . S
N293 C290 1.391 . S
N293 C294 1.388 . S
C294 H265 0.930 . S
C294 C289 1.391 . S
C294 N293 1.388 . S
Co295 O297 2.143 . S
Co295 O303 2.074 . S
Co295 O306 2.093 . S
Co295 O319 2.097 . S
Co295 N336 2.151 . S
Co295 N344 2.214 . S
Co296 O297 2.160 . S
Co296 O302 2.058 . S
Co296 O312 2.057 . S
Co296 O327 2.037 . S
Co296 N331 2.145 . S
Co296 N352 2.257 . S
O297 Co295 2.143 . S
O297 Co296 2.160 . S
C298 O299 1.278 . S
C298 O306 1.224 . S
O299 C298 1.278 . S
C300 O301 1.245 . S
C300 O312 1.232 . S
O301 C300 1.245 . S
O302 Co296 2.058 . S
O302 C328 1.269 . S
O303 Co295 2.074 . S
O303 C328 1.257 . S
H304 C329 0.930 . S
H305 C335 0.930 . S
O306 Co295 2.093 . S
O306 C298 1.224 . S
H307 C339 0.929 . S
H308 C341 0.930 . S
H309 C342 0.930 . S
H310 C340 0.929 . S
H311 C343 0.928 . S
O312 Co296 2.057 . S
O312 C300 1.232 . S
H313 C332 0.929 . S
H314 C333 0.929 . S
H315 C345 0.931 . S
H316 C337 0.929 . S
H317 C346 0.930 . S
H318 C338 0.931 . S
O319 Co295 2.097 . S
O319 C347 1.214 . S
H320 C348 0.929 . S
H321 C349 0.929 . S
H322 C350 0.930 . S
H323 C351 0.929 . S
H324 C353 0.930 . S
H325 C330 0.930 . S
H326 C334 0.930 . S
O327 Co296 2.037 . S
O327 C347 1.234 . S
C328 O302 1.269 . S
C328 O303 1.257 . S
C329 H304 0.930 . S
C329 C332 1.388 . S
C329 C334 1.418 . S
C330 H325 0.930 . S
C330 C333 1.404 . S
C330 C334 1.353 . S
N331 Co296 2.145 . S
N331 C332 1.397 . S
N331 C333 1.334 . S
C332 H313 0.929 . S
C332 C329 1.388 . S
C332 N331 1.397 . S
C333 H314 0.929 . S
C333 C330 1.404 . S
C333 N331 1.334 . S
C334 H326 0.930 . S
C334 C329 1.418 . S
C334 C330 1.353 . S
C335 H305 0.930 . S
C335 N336 1.330 . S
C335 C337 1.446 . S
N336 Co295 2.151 . S
N336 C335 1.330 . S
N336 C340 1.418 . S
C337 H316 0.929 . S
C337 C335 1.446 . S
C337 C338 1.332 . S
C338 H318 0.931 . S
C338 C337 1.332 . S
C338 C339 1.267 . S
C339 H307 0.929 . S
C339 C338 1.267 . S
C339 C340 1.251 . S
C340 H310 0.929 . S
C340 N336 1.418 . S
C340 C339 1.251 . S
C341 H308 0.930 . S
C341 C343 1.406 . S
C341 C346 1.261 . S
C342 H309 0.930 . S
C342 N344 1.325 . S
C342 C345 1.357 . S
C343 H311 0.928 . S
C343 C341 1.406 . S
C343 N344 1.261 . S
N344 Co295 2.214 . S
N344 C342 1.325 . S
N344 C343 1.261 . S
C345 H315 0.931 . S
C345 C342 1.357 . S
C345 C346 1.312 . S
C346 H317 0.930 . S
C346 C341 1.261 . S
C346 C345 1.312 . S
C347 O319 1.214 . S
C347 O327 1.234 . S
C348 H320 0.929 . S
C348 C351 1.391 . S
C348 C353 1.391 . S
C349 H321 0.929 . S
C349 C350 1.390 . S
C349 N352 1.391 . S
C350 H322 0.930 . S
C350 C349 1.390 . S
C350 C351 1.392 . S
C351 H323 0.929 . S
C351 C348 1.391 . S
C351 C350 1.392 . S
N352 Co296 2.257 . S
N352 C349 1.391 . S
N352 C353 1.388 . S
C353 H324 0.930 . S
C353 C348 1.391 . S
C353 N352 1.388 . S
Co354 O356 2.143 . S
Co354 O362 2.074 . S
Co354 O365 2.093 . S
Co354 O378 2.097 . S
Co354 N395 2.151 . S
Co354 N403 2.214 1_556 S
Co355 O356 2.160 . S
Co355 O361 2.058 . S
Co355 O371 2.057 . S
Co355 O386 2.037 . S
Co355 N390 2.145 . S
Co355 N411 2.257 . S
O356 Co354 2.143 . S
O356 Co355 2.160 . S
C357 O358 1.278 . S
C357 O365 1.224 . S
O358 C357 1.278 . S
C359 O360 1.245 . S
C359 O371 1.232 . S
O360 C359 1.245 . S
O361 Co355 2.058 . S
O361 C387 1.269 . S
O362 Co354 2.074 . S
O362 C387 1.257 . S
H363 C388 0.930 . S
H364 C394 0.930 . S
O365 Co354 2.093 . S
O365 C357 1.224 . S
H366 C398 0.929 1_554 S
H367 C400 0.930 . S
H368 C401 0.930 . S
H369 C399 0.929 1_554 S
H370 C402 0.928 . S
O371 Co355 2.057 . S
O371 C359 1.232 . S
H372 C391 0.929 . S
H373 C392 0.929 . S
H374 C404 0.931 . S
H375 C396 0.929 . S
H376 C405 0.930 . S
H377 C397 0.931 . S
O378 Co354 2.097 . S
O378 C406 1.214 . S
H379 C407 0.929 . S
H380 C408 0.929 . S
H381 C409 0.930 . S
H382 C410 0.929 . S
H383 C412 0.930 . S
H384 C389 0.930 . S
H385 C393 0.930 . S
O386 Co355 2.037 . S
O386 C406 1.234 . S
C387 O361 1.269 . S
C387 O362 1.257 . S
C388 H363 0.930 . S
C388 C391 1.388 . S
C388 C393 1.418 . S
C389 H384 0.930 . S
C389 C392 1.404 . S
C389 C393 1.353 1_655 S
N390 Co355 2.145 . S
N390 C391 1.397 1_655 S
N390 C392 1.334 . S
C391 H372 0.929 . S
C391 C388 1.388 . S
C391 N390 1.397 1_455 S
C392 H373 0.929 . S
C392 C389 1.404 . S
C392 N390 1.334 . S
C393 H385 0.930 . S
C393 C388 1.418 . S
C393 C389 1.353 1_455 S
C394 H364 0.930 . S
C394 N395 1.330 . S
C394 C396 1.446 . S
N395 Co354 2.151 . S
N395 C394 1.330 . S
N395 C399 1.418 . S
C396 H375 0.929 . S
C396 C394 1.446 . S
C396 C397 1.332 . S
C397 H377 0.931 . S
C397 C396 1.332 . S
C397 C398 1.267 . S
C398 H366 0.929 1_556 S
C398 C397 1.267 . S
C398 C399 1.251 . S
C399 H369 0.929 1_556 S
C399 N395 1.418 . S
C399 C398 1.251 . S
C400 H367 0.930 . S
C400 C402 1.406 . S
C400 C405 1.261 . S
C401 H368 0.930 . S
C401 N403 1.325 . S
C401 C404 1.357 . S
C402 H370 0.928 . S
C402 C400 1.406 . S
C402 N403 1.261 . S
N403 Co354 2.214 1_554 S
N403 C401 1.325 . S
N403 C402 1.261 . S
C404 H374 0.931 . S
C404 C401 1.357 . S
C404 C405 1.312 . S
C405 H376 0.930 . S
C405 C400 1.261 . S
C405 C404 1.312 . S
C406 O378 1.214 . S
C406 O386 1.234 . S
C407 H379 0.929 . S
C407 C410 1.391 . S
C407 C412 1.391 . S
C408 H380 0.929 . S
C408 C409 1.390 . S
C408 N411 1.391 . S
C409 H381 0.930 . S
C409 C408 1.390 . S
C409 C410 1.392 . S
C410 H382 0.929 . S
C410 C407 1.391 . S
C410 C409 1.392 . S
N411 Co355 2.257 . S
N411 C408 1.391 . S
N411 C412 1.388 . S
C412 H383 0.930 . S
C412 C407 1.391 . S
C412 N411 1.388 . S
Co413 O415 2.143 . S
Co413 O421 2.074 . S
Co413 O424 2.093 . S
Co413 O437 2.097 . S
Co413 N454 2.151 . S
Co413 N462 2.214 1_556 S
Co414 O415 2.160 . S
Co414 O420 2.058 . S
Co414 O430 2.057 . S
Co414 O445 2.037 . S
Co414 N449 2.145 . S
Co414 N470 2.257 . S
O415 Co413 2.143 . S
O415 Co414 2.160 . S
C416 O417 1.278 . S
C416 O424 1.224 . S
O417 C416 1.278 . S
C418 O419 1.245 . S
C418 O430 1.232 . S
O419 C418 1.245 . S
O420 Co414 2.058 . S
O420 C446 1.269 . S
O421 Co413 2.074 . S
O421 C446 1.257 . S
H422 C447 0.930 . S
H423 C453 0.930 . S
O424 Co413 2.093 . S
O424 C416 1.224 . S
H425 C457 0.929 1_554 S
H426 C459 0.930 . S
H427 C460 0.930 . S
H428 C458 0.929 1_554 S
H429 C461 0.928 . S
O430 Co414 2.057 . S
O430 C418 1.232 . S
H431 C450 0.929 . S
H432 C451 0.929 . S
H433 C463 0.931 . S
H434 C455 0.929 . S
H435 C464 0.930 . S
H436 C456 0.931 . S
O437 Co413 2.097 . S
O437 C465 1.214 . S
H438 C466 0.929 . S
H439 C467 0.929 . S
H440 C468 0.930 . S
H441 C469 0.929 . S
H442 C471 0.930 . S
H443 C448 0.930 . S
H444 C452 0.930 . S
O445 Co414 2.037 . S
O445 C465 1.234 . S
C446 O420 1.269 . S
C446 O421 1.257 . S
C447 H422 0.930 . S
C447 C450 1.388 . S
C447 C452 1.418 . S
C448 H443 0.930 . S
C448 C451 1.404 . S
C448 C452 1.353 . S
N449 Co414 2.145 . S
N449 C450 1.397 . S
N449 C451 1.334 . S
C450 H431 0.929 . S
C450 C447 1.388 . S
C450 N449 1.397 . S
C451 H432 0.929 . S
C451 C448 1.404 . S
C451 N449 1.334 . S
C452 H444 0.930 . S
C452 C447 1.418 . S
C452 C448 1.353 . S
C453 H423 0.930 . S
C453 N454 1.330 . S
C453 C455 1.446 . S
N454 Co413 2.151 . S
N454 C453 1.330 . S
N454 C458 1.418 . S
C455 H434 0.929 . S
C455 C453 1.446 . S
C455 C456 1.332 . S
C456 H436 0.931 . S
C456 C455 1.332 . S
C456 C457 1.267 . S
C457 H425 0.929 1_556 S
C457 C456 1.267 . S
C457 C458 1.251 . S
C458 H428 0.929 1_556 S
C458 N454 1.418 . S
C458 C457 1.251 . S
C459 H426 0.930 . S
C459 C461 1.406 . S
C459 C464 1.261 . S
C460 H427 0.930 . S
C460 N462 1.325 . S
C460 C463 1.357 . S
C461 H429 0.928 . S
C461 C459 1.406 . S
C461 N462 1.261 . S
N462 Co413 2.214 1_554 S
N462 C460 1.325 . S
N462 C461 1.261 . S
C463 H433 0.931 . S
C463 C460 1.357 . S
C463 C464 1.312 . S
C464 H435 0.930 . S
C464 C459 1.261 . S
C464 C463 1.312 . S
C465 O437 1.214 . S
C465 O445 1.234 . S
C466 H438 0.929 . S
C466 C469 1.391 . S
C466 C471 1.391 . S
C467 H439 0.929 . S
C467 C468 1.390 . S
C467 N470 1.391 . S
C468 H440 0.930 . S
C468 C467 1.390 . S
C468 C469 1.392 . S
C469 H441 0.929 . S
C469 C466 1.391 . S
C469 C468 1.392 . S
N470 Co414 2.257 . S
N470 C467 1.391 . S
N470 C471 1.388 . S
C471 H442 0.930 . S
C471 C466 1.391 . S
C471 N470 1.388 . S
Co472 O474 2.143 . S
Co472 O480 2.074 . S
Co472 O483 2.093 . S
Co472 O496 2.097 . S
Co472 N513 2.151 . S
Co472 N521 2.214 1_556 S
Co473 O474 2.160 . S
Co473 O479 2.058 . S
Co473 O489 2.057 . S
Co473 O504 2.037 . S
Co473 N508 2.145 . S
Co473 N529 2.257 . S
O474 Co472 2.143 . S
O474 Co473 2.160 . S
C475 O476 1.278 . S
C475 O483 1.224 . S
O476 C475 1.278 . S
C477 O478 1.245 . S
C477 O489 1.232 . S
O478 C477 1.245 . S
O479 Co473 2.058 . S
O479 C505 1.269 . S
O480 Co472 2.074 . S
O480 C505 1.257 . S
H481 C506 0.930 . S
H482 C512 0.930 . S
O483 Co472 2.093 . S
O483 C475 1.224 . S
H484 C516 0.929 1_554 S
H485 C518 0.930 . S
H486 C519 0.930 . S
H487 C517 0.929 1_554 S
H488 C520 0.928 . S
O489 Co473 2.057 . S
O489 C477 1.232 . S
H490 C509 0.929 . S
H491 C510 0.929 . S
H492 C522 0.931 . S
H493 C514 0.929 . S
H494 C523 0.930 . S
H495 C515 0.931 . S
O496 Co472 2.097 . S
O496 C524 1.214 . S
H497 C525 0.929 . S
H498 C526 0.929 . S
H499 C527 0.930 . S
H500 C528 0.929 . S
H501 C530 0.930 . S
H502 C507 0.930 . S
H503 C511 0.930 . S
O504 Co473 2.037 . S
O504 C524 1.234 . S
C505 O479 1.269 . S
C505 O480 1.257 . S
C506 H481 0.930 . S
C506 C509 1.388 . S
C506 C511 1.418 . S
C507 H502 0.930 . S
C507 C510 1.404 . S
C507 C511 1.353 1_545 S
N508 Co473 2.145 . S
N508 C509 1.397 1_545 S
N508 C510 1.334 . S
C509 H490 0.929 . S
C509 C506 1.388 . S
C509 N508 1.397 1_565 S
C510 H491 0.929 . S
C510 C507 1.404 . S
C510 N508 1.334 . S
C511 H503 0.930 . S
C511 C506 1.418 . S
C511 C507 1.353 1_565 S
C512 H482 0.930 . S
C512 N513 1.330 . S
C512 C514 1.446 . S
N513 Co472 2.151 . S
N513 C512 1.330 . S
N513 C517 1.418 . S
C514 H493 0.929 . S
C514 C512 1.446 . S
C514 C515 1.332 . S
C515 H495 0.931 . S
C515 C514 1.332 . S
C515 C516 1.267 . S
C516 H484 0.929 1_556 S
C516 C515 1.267 . S
C516 C517 1.251 . S
C517 H487 0.929 1_556 S
C517 N513 1.418 . S
C517 C516 1.251 . S
C518 H485 0.930 . S
C518 C520 1.406 . S
C518 C523 1.261 . S
C519 H486 0.930 . S
C519 N521 1.325 . S
C519 C522 1.357 . S
C520 H488 0.928 . S
C520 C518 1.406 . S
C520 N521 1.261 . S
N521 Co472 2.214 1_554 S
N521 C519 1.325 . S
N521 C520 1.261 . S
C522 H492 0.931 . S
C522 C519 1.357 . S
C522 C523 1.312 . S
C523 H494 0.930 . S
C523 C518 1.261 . S
C523 C522 1.312 . S
C524 O496 1.214 . S
C524 O504 1.234 . S
C525 H497 0.929 . S
C525 C528 1.391 . S
C525 C530 1.391 . S
C526 H498 0.929 . S
C526 C527 1.390 . S
C526 N529 1.391 . S
C527 H499 0.930 . S
C527 C526 1.390 . S
C527 C528 1.392 . S
C528 H500 0.929 . S
C528 C525 1.391 . S
C528 C527 1.392 . S
N529 Co473 2.257 . S
N529 C526 1.391 . S
N529 C530 1.388 . S
C530 H501 0.930 . S
C530 C525 1.391 . S
C530 N529 1.388 . S
Co531 O533 2.143 . S
Co531 O539 2.074 . S
Co531 O542 2.093 . S
Co531 O555 2.097 . S
Co531 N572 2.151 . S
Co531 N580 2.214 . S
Co532 O533 2.160 . S
Co532 O538 2.058 . S
Co532 O548 2.057 . S
Co532 O563 2.037 . S
Co532 N567 2.145 . S
Co532 N588 2.257 . S
O533 Co531 2.143 . S
O533 Co532 2.160 . S
C534 O535 1.278 . S
C534 O542 1.224 . S
O535 C534 1.278 . S
C536 O537 1.245 . S
C536 O548 1.232 . S
O537 C536 1.245 . S
O538 Co532 2.058 . S
O538 C564 1.269 . S
O539 Co531 2.074 . S
O539 C564 1.257 . S
H540 C565 0.930 . S
H541 C571 0.930 . S
O542 Co531 2.093 . S
O542 C534 1.224 . S
H543 C575 0.929 . S
H544 C577 0.930 . S
H545 C578 0.930 . S
H546 C576 0.929 . S
H547 C579 0.928 . S
O548 Co532 2.057 . S
O548 C536 1.232 . S
H549 C568 0.929 . S
H550 C569 0.929 . S
H551 C581 0.931 . S
H552 C573 0.929 . S
H553 C582 0.930 . S
H554 C574 0.931 . S
O555 Co531 2.097 . S
O555 C583 1.214 . S
H556 C584 0.929 . S
H557 C585 0.929 . S
H558 C586 0.930 . S
H559 C587 0.929 . S
H560 C589 0.930 . S
H561 C566 0.930 . S
H562 C570 0.930 . S
O563 Co532 2.037 . S
O563 C583 1.234 . S
C564 O538 1.269 . S
C564 O539 1.257 . S
C565 H540 0.930 . S
C565 C568 1.388 . S
C565 C570 1.418 . S
C566 H561 0.930 . S
C566 C569 1.404 . S
C566 C570 1.353 1_545 S
N567 Co532 2.145 . S
N567 C568 1.397 1_545 S
N567 C569 1.334 . S
C568 H549 0.929 . S
C568 C565 1.388 . S
C568 N567 1.397 1_565 S
C569 H550 0.929 . S
C569 C566 1.404 . S
C569 N567 1.334 . S
C570 H562 0.930 . S
C570 C565 1.418 . S
C570 C566 1.353 1_565 S
C571 H541 0.930 . S
C571 N572 1.330 . S
C571 C573 1.446 . S
N572 Co531 2.151 . S
N572 C571 1.330 . S
N572 C576 1.418 . S
C573 H552 0.929 . S
C573 C571 1.446 . S
C573 C574 1.332 . S
C574 H554 0.931 . S
C574 C573 1.332 . S
C574 C575 1.267 . S
C575 H543 0.929 . S
C575 C574 1.267 . S
C575 C576 1.251 . S
C576 H546 0.929 . S
C576 N572 1.418 . S
C576 C575 1.251 . S
C577 H544 0.930 . S
C577 C579 1.406 . S
C577 C582 1.261 . S
C578 H545 0.930 . S
C578 N580 1.325 . S
C578 C581 1.357 . S
C579 H547 0.928 . S
C579 C577 1.406 . S
C579 N580 1.261 . S
N580 Co531 2.214 . S
N580 C578 1.325 . S
N580 C579 1.261 . S
C581 H551 0.931 . S
C581 C578 1.357 . S
C581 C582 1.312 . S
C582 H553 0.930 . S
C582 C577 1.261 . S
C582 C581 1.312 . S
C583 O555 1.214 . S
C583 O563 1.234 . S
C584 H556 0.929 . S
C584 C587 1.391 . S
C584 C589 1.391 . S
C585 H557 0.929 . S
C585 C586 1.390 . S
C585 N588 1.391 . S
C586 H558 0.930 . S
C586 C585 1.390 . S
C586 C587 1.392 . S
C587 H559 0.929 . S
C587 C584 1.391 . S
C587 C586 1.392 . S
N588 Co532 2.257 . S
N588 C585 1.391 . S
N588 C589 1.388 . S
C589 H560 0.930 . S
C589 C584 1.391 . S
C589 N588 1.388 . S
Co590 O592 2.143 . S
Co590 O598 2.074 . S
Co590 O601 2.093 . S
Co590 O614 2.097 . S
Co590 N631 2.151 . S
Co590 N639 2.214 . S
Co591 O592 2.160 . S
Co591 O597 2.058 . S
Co591 O607 2.057 . S
Co591 O622 2.037 . S
Co591 N626 2.145 . S
Co591 N647 2.257 . S
O592 Co590 2.143 . S
O592 Co591 2.160 . S
C593 O594 1.278 . S
C593 O601 1.224 . S
O594 C593 1.278 . S
C595 O596 1.245 . S
C595 O607 1.232 . S
O596 C595 1.245 . S
O597 Co591 2.058 . S
O597 C623 1.269 . S
O598 Co590 2.074 . S
O598 C623 1.257 . S
H599 C624 0.930 . S
H600 C630 0.930 . S
O601 Co590 2.093 . S
O601 C593 1.224 . S
H602 C634 0.929 . S
H603 C636 0.930 . S
H604 C637 0.930 . S
H605 C635 0.929 . S
H606 C638 0.928 . S
O607 Co591 2.057 . S
O607 C595 1.232 . S
H608 C627 0.929 . S
H609 C628 0.929 . S
H610 C640 0.931 . S
H611 C632 0.929 . S
H612 C641 0.930 . S
H613 C633 0.931 . S
O614 Co590 2.097 . S
O614 C642 1.214 . S
H615 C643 0.929 . S
H616 C644 0.929 . S
H617 C645 0.930 . S
H618 C646 0.929 . S
H619 C648 0.930 . S
H620 C625 0.930 . S
H621 C629 0.930 . S
O622 Co591 2.037 . S
O622 C642 1.234 . S
C623 O597 1.269 . S
C623 O598 1.257 . S
C624 H599 0.930 . S
C624 C627 1.388 . S
C624 C629 1.418 . S
C625 H620 0.930 . S
C625 C628 1.404 . S
C625 C629 1.353 1_655 S
N626 Co591 2.145 . S
N626 C627 1.397 1_655 S
N626 C628 1.334 . S
C627 H608 0.929 . S
C627 C624 1.388 . S
C627 N626 1.397 1_455 S
C628 H609 0.929 . S
C628 C625 1.404 . S
C628 N626 1.334 . S
C629 H621 0.930 . S
C629 C624 1.418 . S
C629 C625 1.353 1_455 S
C630 H600 0.930 . S
C630 N631 1.330 . S
C630 C632 1.446 . S
N631 Co590 2.151 . S
N631 C630 1.330 . S
N631 C635 1.418 . S
C632 H611 0.929 . S
C632 C630 1.446 . S
C632 C633 1.332 . S
C633 H613 0.931 . S
C633 C632 1.332 . S
C633 C634 1.267 . S
C634 H602 0.929 . S
C634 C633 1.267 . S
C634 C635 1.251 . S
C635 H605 0.929 . S
C635 N631 1.418 . S
C635 C634 1.251 . S
C636 H603 0.930 . S
C636 C638 1.406 . S
C636 C641 1.261 . S
C637 H604 0.930 . S
C637 N639 1.325 . S
C637 C640 1.357 . S
C638 H606 0.928 . S
C638 C636 1.406 . S
C638 N639 1.261 . S
N639 Co590 2.214 . S
N639 C637 1.325 . S
N639 C638 1.261 . S
C640 H610 0.931 . S
C640 C637 1.357 . S
C640 C641 1.312 . S
C641 H612 0.930 . S
C641 C636 1.261 . S
C641 C640 1.312 . S
C642 O614 1.214 . S
C642 O622 1.234 . S
C643 H615 0.929 . S
C643 C646 1.391 . S
C643 C648 1.391 . S
C644 H616 0.929 . S
C644 C645 1.390 . S
C644 N647 1.391 . S
C645 H617 0.930 . S
C645 C644 1.390 . S
C645 C646 1.392 . S
C646 H618 0.929 . S
C646 C643 1.391 . S
C646 C645 1.392 . S
N647 Co591 2.257 . S
N647 C644 1.391 . S
N647 C648 1.388 . S
C648 H619 0.930 . S
C648 C643 1.391 . S
C648 N647 1.388 . S
Co649 O651 2.143 . S
Co649 O657 2.074 . S
Co649 O660 2.093 . S
Co649 O673 2.097 . S
Co649 N690 2.151 . S
Co649 N698 2.214 . S
Co650 O651 2.160 . S
Co650 O656 2.058 . S
Co650 O666 2.057 . S
Co650 O681 2.037 . S
Co650 N685 2.145 . S
Co650 N706 2.257 . S
O651 Co649 2.143 . S
O651 Co650 2.160 . S
C652 O653 1.278 . S
C652 O660 1.224 . S
O653 C652 1.278 . S
C654 O655 1.245 . S
C654 O666 1.232 . S
O655 C654 1.245 . S
O656 Co650 2.058 . S
O656 C682 1.269 . S
O657 Co649 2.074 . S
O657 C682 1.257 . S
H658 C683 0.930 . S
H659 C689 0.930 . S
O660 Co649 2.093 . S
O660 C652 1.224 . S
H661 C693 0.929 . S
H662 C695 0.930 . S
H663 C696 0.930 . S
H664 C694 0.929 . S
H665 C697 0.928 . S
O666 Co650 2.057 . S
O666 C654 1.232 . S
H667 C686 0.929 . S
H668 C687 0.929 . S
H669 C699 0.931 . S
H670 C691 0.929 . S
H671 C700 0.930 . S
H672 C692 0.931 . S
O673 Co649 2.097 . S
O673 C701 1.214 . S
H674 C702 0.929 . S
H675 C703 0.929 . S
H676 C704 0.930 . S
H677 C705 0.929 . S
H678 C707 0.930 . S
H679 C684 0.930 . S
H680 C688 0.930 . S
O681 Co650 2.037 . S
O681 C701 1.234 . S
C682 O656 1.269 . S
C682 O657 1.257 . S
C683 H658 0.930 . S
C683 C686 1.388 . S
C683 C688 1.418 . S
C684 H679 0.930 . S
C684 C687 1.404 . S
C684 C688 1.353 . S
N685 Co650 2.145 . S
N685 C686 1.397 . S
N685 C687 1.334 . S
C686 H667 0.929 . S
C686 C683 1.388 . S
C686 N685 1.397 . S
C687 H668 0.929 . S
C687 C684 1.404 . S
C687 N685 1.334 . S
C688 H680 0.930 . S
C688 C683 1.418 . S
C688 C684 1.353 . S
C689 H659 0.930 . S
C689 N690 1.330 . S
C689 C691 1.446 . S
N690 Co649 2.151 . S
N690 C689 1.330 . S
N690 C694 1.418 . S
C691 H670 0.929 . S
C691 C689 1.446 . S
C691 C692 1.332 . S
C692 H672 0.931 . S
C692 C691 1.332 . S
C692 C693 1.267 . S
C693 H661 0.929 . S
C693 C692 1.267 . S
C693 C694 1.251 . S
C694 H664 0.929 . S
C694 N690 1.418 . S
C694 C693 1.251 . S
C695 H662 0.930 . S
C695 C697 1.406 . S
C695 C700 1.261 . S
C696 H663 0.930 . S
C696 N698 1.325 . S
C696 C699 1.357 . S
C697 H665 0.928 . S
C697 C695 1.406 . S
C697 N698 1.261 . S
N698 Co649 2.214 . S
N698 C696 1.325 . S
N698 C697 1.261 . S
C699 H669 0.931 . S
C699 C696 1.357 . S
C699 C700 1.312 . S
C700 H671 0.930 . S
C700 C695 1.261 . S
C700 C699 1.312 . S
C701 O673 1.214 . S
C701 O681 1.234 . S
C702 H674 0.929 . S
C702 C705 1.391 . S
C702 C707 1.391 . S
C703 H675 0.929 . S
C703 C704 1.390 . S
C703 N706 1.391 . S
C704 H676 0.930 . S
C704 C703 1.390 . S
C704 C705 1.392 . S
C705 H677 0.929 . S
C705 C702 1.391 . S
C705 C704 1.392 . S
N706 Co650 2.257 . S
N706 C703 1.391 . S
N706 C707 1.388 . S
C707 H678 0.930 . S
C707 C702 1.391 . S
C707 N706 1.388 . S
H708 C720 0.930 . S
H709 C722 0.930 . S
H710 C723 0.930 . S
H711 C727 0.959 . S
H712 C727 0.959 . S
H713 C727 0.961 . S
H714 C728 0.960 . S
H715 C728 0.961 . S
H716 C728 0.959 . S
H717 C731 0.929 . S
H718 C732 0.931 . S
H719 C734 0.930 . S
C720 H708 0.930 . S
C720 C721 1.399 1_556 S
C720 C725 1.399 . S
C721 C720 1.399 1_554 S
C721 C722 1.376 . S
C722 H709 0.930 . S
C722 C721 1.376 . S
C722 C723 1.388 . S
C723 H710 0.930 . S
C723 C722 1.388 . S
C723 C724 1.390 . S
C724 C723 1.390 . S
C724 C725 1.394 1_554 S
C724 C730 1.465 . S
C725 C720 1.399 . S
C725 C724 1.394 1_556 S
C725 C726 1.516 . S
C726 C725 1.516 . S
C726 C727 1.502 . S
C726 C728 1.561 . S
C726 C729 1.526 . S
C727 H711 0.959 . S
C727 H712 0.959 . S
C727 H713 0.961 . S
C727 C726 1.502 . S
C728 H714 0.960 . S
C728 H715 0.961 . S
C728 H716 0.959 . S
C728 C726 1.561 . S
C729 C726 1.526 . S
C729 C730 1.396 1_556 S
C729 C734 1.390 . S
C730 C724 1.465 . S
C730 C729 1.396 1_554 S
C730 C731 1.399 . S
C731 H717 0.929 . S
C731 C730 1.399 . S
C731 C732 1.385 . S
C732 H718 0.931 . S
C732 C731 1.385 . S
C732 C733 1.389 1_554 S
C733 C732 1.389 1_556 S
C733 C734 1.387 . S
C734 H719 0.930 . S
C734 C729 1.390 . S
C734 C733 1.387 . S
H735 C747 0.930 . S
H736 C749 0.930 . S
H737 C750 0.930 . S
H738 C754 0.959 . S
H739 C754 0.959 . S
H740 C754 0.961 . S
H741 C755 0.960 . S
H742 C755 0.961 . S
H743 C755 0.959 . S
H744 C758 0.929 . S
H745 C759 0.931 . S
H746 C761 0.930 . S
C747 H735 0.930 . S
C747 C748 1.399 . S
C747 C752 1.399 . S
C748 C747 1.399 . S
C748 C749 1.376 1_554 S
C749 H736 0.930 . S
C749 C748 1.376 1_556 S
C749 C750 1.388 . S
C750 H737 0.930 . S
C750 C749 1.388 . S
C750 C751 1.390 . S
C751 C750 1.390 . S
C751 C752 1.394 1_556 S
C751 C757 1.465 . S
C752 C747 1.399 . S
C752 C751 1.394 1_554 S
C752 C753 1.516 . S
C753 C752 1.516 . S
C753 C754 1.502 . S
C753 C755 1.561 . S
C753 C756 1.526 . S
C754 H738 0.959 . S
C754 H739 0.959 . S
C754 H740 0.961 . S
C754 C753 1.502 . S
C755 H741 0.960 . S
C755 H742 0.961 . S
C755 H743 0.959 . S
C755 C753 1.561 . S
C756 C753 1.526 . S
C756 C757 1.396 1_554 S
C756 C761 1.390 1_565 S
C757 C751 1.465 . S
C757 C756 1.396 1_556 S
C757 C758 1.399 . S
C758 H744 0.929 . S
C758 C757 1.399 . S
C758 C759 1.385 1_565 S
C759 H745 0.931 . S
C759 C758 1.385 1_545 S
C759 C760 1.389 . S
C760 C759 1.389 . S
C760 C761 1.387 1_556 S
C761 H746 0.930 . S
C761 C756 1.390 1_545 S
C761 C760 1.387 1_554 S
H762 C774 0.930 . S
H763 C776 0.930 . S
H764 C777 0.930 . S
H765 C781 0.959 1_556 S
H766 C781 0.959 . S
H767 C781 0.961 . S
H768 C782 0.960 . S
H769 C782 0.961 . S
H770 C782 0.959 . S
H771 C785 0.929 . S
H772 C786 0.931 . S
H773 C788 0.930 1_554 S
C774 H762 0.930 . S
C774 C775 1.399 . S
C774 C779 1.399 . S
C775 C774 1.399 . S
C775 C776 1.376 . S
C776 H763 0.930 . S
C776 C775 1.376 . S
C776 C777 1.388 1_554 S
C777 H764 0.930 . S
C777 C776 1.388 1_556 S
C777 C778 1.396 . S
C778 C777 1.396 . S
C778 C779 1.377 1_556 S
C778 C784 1.475 . S
C779 C774 1.399 . S
C779 C778 1.377 1_554 S
C779 C780 1.516 . S
C780 C779 1.516 . S
C780 C781 1.502 . S
C780 C782 1.561 . S
C780 C783 1.542 . S
C781 H765 0.959 1_554 S
C781 H766 0.959 . S
C781 H767 0.961 . S
C781 C780 1.502 . S
C782 H768 0.960 . S
C782 H769 0.961 . S
C782 H770 0.959 . S
C782 C780 1.561 . S
C783 C780 1.542 . S
C783 C784 1.386 1_554 S
C783 C788 1.384 1_454 S
C784 C778 1.475 . S
C784 C783 1.386 1_556 S
C784 C785 1.399 . S
C785 H771 0.929 . S
C785 C784 1.399 . S
C785 C786 1.385 1_455 S
C786 H772 0.931 . S
C786 C785 1.385 1_655 S
C786 C787 1.389 . S
C787 C786 1.389 . S
C787 C788 1.387 . S
C788 H773 0.930 1_556 S
C788 C783 1.384 1_656 S
C788 C787 1.387 . S
H789 C801 0.930 . S
H790 C803 0.930 . S
H791 C804 0.930 . S
H792 C808 0.959 . S
H793 C808 0.959 . S
H794 C808 0.961 . S
H795 C809 0.960 . S
H796 C809 0.961 . S
H797 C809 0.959 . S
H798 C812 0.929 . S
H799 C813 0.931 . S
H800 C815 0.930 . S
C801 H789 0.930 . S
C801 C802 1.399 . S
C801 C806 1.399 . S
C802 C801 1.399 . S
C802 C803 1.376 . S
C803 H790 0.930 . S
C803 C802 1.376 . S
C803 C804 1.388 . S
C804 H791 0.930 . S
C804 C803 1.388 . S
C804 C805 1.390 . S
C805 C804 1.390 . S
C805 C806 1.394 . S
C805 C811 1.465 . S
C806 C801 1.399 . S
C806 C805 1.394 . S
C806 C807 1.516 . S
C807 C806 1.516 . S
C807 C808 1.502 . S
C807 C809 1.561 . S
C807 C810 1.526 . S
C808 H792 0.959 . S
C808 H793 0.959 . S
C808 H794 0.961 . S
C808 C807 1.502 . S
C809 H795 0.960 . S
C809 H796 0.961 . S
C809 H797 0.959 . S
C809 C807 1.561 . S
C810 C807 1.526 . S
C810 C811 1.396 . S
C810 C815 1.390 . S
C811 C805 1.465 . S
C811 C810 1.396 . S
C811 C812 1.399 . S
C812 H798 0.929 . S
C812 C811 1.399 . S
C812 C813 1.385 . S
C813 H799 0.931 . S
C813 C812 1.385 . S
C813 C814 1.389 . S
C814 C813 1.389 . S
C814 C815 1.387 . S
C815 H800 0.930 . S
C815 C810 1.390 . S
C815 C814 1.387 . S
H816 C828 0.930 . S
H817 C830 0.930 . S
H818 C831 0.930 . S
H819 C835 0.959 . S
H820 C835 0.959 . S
H821 C835 0.961 . S
H822 C836 0.960 . S
H823 C836 0.961 . S
H824 C836 0.959 . S
H825 C839 0.929 . S
H826 C840 0.931 . S
H827 C842 0.923 1_545 S
C828 H816 0.930 . S
C828 C829 1.399 . S
C828 C833 1.399 . S
C829 C828 1.399 . S
C829 C830 1.376 . S
C830 H817 0.930 . S
C830 C829 1.376 . S
C830 C831 1.388 . S
C831 H818 0.930 . S
C831 C830 1.388 . S
C831 C832 1.390 . S
C832 C831 1.390 . S
C832 C833 1.394 . S
C832 C838 1.465 . S
C833 C828 1.399 . S
C833 C832 1.394 . S
C833 C834 1.516 . S
C834 C833 1.516 . S
C834 C835 1.502 . S
C834 C836 1.561 . S
C834 C837 1.526 . S
C835 H819 0.959 . S
C835 H820 0.959 . S
C835 H821 0.961 . S
C835 C834 1.502 . S
C836 H822 0.960 . S
C836 H823 0.961 . S
C836 H824 0.959 . S
C836 C834 1.561 . S
C837 C834 1.526 . S
C837 C838 1.396 . S
C837 C842 1.390 . S
C838 C832 1.465 . S
C838 C837 1.396 . S
C838 C839 1.399 . S
C839 H825 0.929 . S
C839 C838 1.399 . S
C839 C840 1.385 1_565 S
C840 H826 0.931 . S
C840 C839 1.385 1_545 S
C840 C841 1.389 . S
C841 C840 1.389 . S
C841 C842 1.387 1_545 S
C842 H827 0.923 1_565 S
C842 C837 1.390 . S
C842 C841 1.387 1_565 S
H843 C855 0.930 . S
H844 C857 0.930 . S
H845 C858 0.930 . S
H846 C862 0.959 . S
H847 C862 0.959 . S
H848 C862 0.961 . S
H849 C863 0.960 . S
H850 C863 0.961 . S
H851 C863 0.959 . S
H852 C866 0.929 . S
H853 C867 0.931 . S
H854 C869 0.930 . S
C855 H843 0.930 . S
C855 C856 1.399 . S
C855 C860 1.399 1_655 S
C856 C855 1.399 . S
C856 C857 1.376 . S
C857 H844 0.930 . S
C857 C856 1.376 . S
C857 C858 1.388 1_655 S
C858 H845 0.930 . S
C858 C857 1.388 1_455 S
C858 C859 1.390 . S
C859 C858 1.390 . S
C859 C860 1.394 . S
C859 C865 1.465 . S
C860 C855 1.399 1_455 S
C860 C859 1.394 . S
C860 C861 1.516 . S
C861 C860 1.516 . S
C861 C862 1.502 . S
C861 C863 1.561 . S
C861 C864 1.526 . S
C862 H846 0.959 . S
C862 H847 0.959 . S
C862 H848 0.961 . S
C862 C861 1.502 . S
C863 H849 0.960 . S
C863 H850 0.961 . S
C863 H851 0.959 . S
C863 C861 1.561 . S
C864 C861 1.526 . S
C864 C865 1.396 . S
C864 C869 1.390 . S
C865 C859 1.465 . S
C865 C864 1.396 . S
C865 C866 1.399 . S
C866 H852 0.929 . S
C866 C865 1.399 . S
C866 C867 1.385 . S
C867 H853 0.931 . S
C867 C866 1.385 . S
C867 C868 1.389 . S
C868 C867 1.389 . S
C868 C869 1.387 . S
C869 H854 0.930 . S
C869 C864 1.390 . S
C869 C868 1.387 . S
H870 C882 0.930 . S
H871 C884 0.930 . S
H872 C885 0.930 . S
H873 C889 0.959 . S
H874 C889 0.959 . S
H875 C889 0.961 . S
H876 C890 0.960 . S
H877 C890 0.961 . S
H878 C890 0.959 . S
H879 C893 0.929 . S
H880 C894 0.931 . S
H881 C896 0.930 . S
C882 H870 0.930 . S
C882 C883 1.399 . S
C882 C887 1.399 . S
C883 C882 1.399 . S
C883 C884 1.376 1_554 S
C884 H871 0.930 . S
C884 C883 1.376 1_556 S
C884 C885 1.388 . S
C885 H872 0.930 . S
C885 C884 1.388 . S
C885 C886 1.390 . S
C886 C885 1.390 . S
C886 C887 1.394 1_556 S
C886 C892 1.465 . S
C887 C882 1.399 . S
C887 C886 1.394 1_554 S
C887 C888 1.516 . S
C888 C887 1.516 . S
C888 C889 1.502 . S
C888 C890 1.561 . S
C888 C891 1.526 . S
C889 H873 0.959 . S
C889 H874 0.959 . S
C889 H875 0.961 . S
C889 C888 1.502 . S
C890 H876 0.960 . S
C890 H877 0.961 . S
C890 H878 0.959 . S
C890 C888 1.561 . S
C891 C888 1.526 . S
C891 C892 1.396 1_554 S
C891 C896 1.390 . S
C892 C886 1.465 . S
C892 C891 1.396 1_556 S
C892 C893 1.399 . S
C893 H879 0.929 . S
C893 C892 1.399 . S
C893 C894 1.385 . S
C894 H880 0.931 . S
C894 C893 1.385 . S
C894 C895 1.389 . S
C895 C894 1.389 . S
C895 C896 1.387 1_556 S
C896 H881 0.930 . S
C896 C891 1.390 . S
C896 C895 1.387 1_554 S
H897 C909 0.930 . S
H898 C911 0.930 . S
H899 C912 0.930 . S
H900 C916 0.959 . S
H901 C916 0.959 . S
H902 C916 0.961 . S
H903 C917 0.960 . S
H904 C917 0.961 . S
H905 C917 0.959 . S
H906 C920 0.929 . S
H907 C921 0.931 . S
H908 C923 0.930 . S
C909 H897 0.930 . S
C909 C910 1.399 1_554 S
C909 C914 1.399 . S
C910 C909 1.399 1_556 S
C910 C911 1.376 . S
C911 H898 0.930 . S
C911 C910 1.376 . S
C911 C912 1.388 . S
C912 H899 0.930 . S
C912 C911 1.388 . S
C912 C913 1.390 . S
C913 C912 1.390 . S
C913 C914 1.394 1_556 S
C913 C919 1.465 . S
C914 C909 1.399 . S
C914 C913 1.394 1_554 S
C914 C915 1.516 . S
C915 C914 1.516 . S
C915 C916 1.502 . S
C915 C917 1.561 . S
C915 C918 1.526 . S
C916 H900 0.959 . S
C916 H901 0.959 . S
C916 H902 0.961 . S
C916 C915 1.502 . S
C917 H903 0.960 . S
C917 H904 0.961 . S
C917 H905 0.959 . S
C917 C915 1.561 . S
C918 C915 1.526 . S
C918 C919 1.396 1_554 S
C918 C923 1.390 . S
C919 C913 1.465 . S
C919 C918 1.396 1_556 S
C919 C920 1.399 . S
C920 H906 0.929 . S
C920 C919 1.399 . S
C920 C921 1.385 1_545 S
C921 H907 0.931 . S
C921 C920 1.385 1_565 S
C921 C922 1.389 1_556 S
C922 C921 1.389 1_554 S
C922 C923 1.387 1_565 S
C923 H908 0.930 . S
C923 C918 1.390 . S
C923 C922 1.387 1_545 S
H924 C936 0.930 . S
H925 C938 0.930 1_556 S
H926 C939 0.930 . S
H927 C943 0.981 . S
H928 C943 0.959 . S
H929 C943 0.961 . S
H930 C944 0.960 . S
H931 C944 0.961 . S
H932 C944 0.959 . S
H933 C947 0.929 . S
H934 C948 0.931 . S
H935 C950 0.930 1_554 S
C936 H924 0.930 . S
C936 C937 1.399 . S
C936 C941 1.399 1_455 S
C937 C936 1.399 . S
C937 C938 1.376 . S
C938 H925 0.930 1_554 S
C938 C937 1.376 . S
C938 C939 1.388 1_454 S
C939 H926 0.930 . S
C939 C938 1.388 1_656 S
C939 C940 1.390 . S
C940 C939 1.390 . S
C940 C941 1.394 1_556 S
C940 C946 1.465 . S
C941 C936 1.399 1_655 S
C941 C940 1.394 1_554 S
C941 C942 1.516 . S
C942 C941 1.516 . S
C942 C943 1.502 . S
C942 C944 1.561 . S
C942 C945 1.526 . S
C943 H927 0.981 . S
C943 H928 0.959 . S
C943 H929 0.961 . S
C943 C942 1.502 . S
C944 H930 0.960 . S
C944 H931 0.961 . S
C944 H932 0.959 . S
C944 C942 1.561 . S
C945 C942 1.526 . S
C945 C946 1.396 1_554 S
C945 C950 1.390 1_554 S
C946 C940 1.465 . S
C946 C945 1.396 1_556 S
C946 C947 1.399 . S
C947 H933 0.929 . S
C947 C946 1.399 . S
C947 C948 1.385 . S
C948 H934 0.931 . S
C948 C947 1.385 . S
C948 C949 1.389 . S
C949 C948 1.389 . S
C949 C950 1.387 . S
C950 H935 0.930 1_556 S
C950 C945 1.390 1_556 S
C950 C949 1.387 . S
H951 C963 0.930 . S
H952 C965 0.930 . S
H953 C966 0.930 . S
H954 C970 0.959 . S
H955 C970 0.959 . S
H956 C970 0.961 . S
H957 C971 0.960 . S
H958 C971 0.961 . S
H959 C971 0.959 . S
H960 C974 0.929 . S
H961 C975 0.931 . S
H962 C977 0.930 . S
C963 H951 0.930 . S
C963 C964 1.399 . S
C963 C968 1.399 . S
C964 C963 1.399 . S
C964 C965 1.376 . S
C965 H952 0.930 . S
C965 C964 1.376 . S
C965 C966 1.388 . S
C966 H953 0.930 . S
C966 C965 1.388 . S
C966 C967 1.390 . S
C967 C966 1.390 . S
C967 C968 1.394 . S
C967 C973 1.465 . S
C968 C963 1.399 . S
C968 C967 1.394 . S
C968 C969 1.516 . S
C969 C968 1.516 . S
C969 C970 1.502 . S
C969 C971 1.561 . S
C969 C972 1.526 . S
C970 H954 0.959 . S
C970 H955 0.959 . S
C970 H956 0.961 . S
C970 C969 1.502 . S
C971 H957 0.960 . S
C971 H958 0.961 . S
C971 H959 0.959 . S
C971 C969 1.561 . S
C972 C969 1.526 . S
C972 C973 1.396 . S
C972 C977 1.390 . S
C973 C967 1.465 . S
C973 C972 1.396 . S
C973 C974 1.399 . S
C974 H960 0.929 . S
C974 C973 1.399 . S
C974 C975 1.385 . S
C975 H961 0.931 . S
C975 C974 1.385 . S
C975 C976 1.389 . S
C976 C975 1.389 . S
C976 C977 1.387 . S
C977 H962 0.930 . S
C977 C972 1.390 . S
C977 C976 1.387 . S
H978 C990 0.930 . S
H979 C992 0.930 . S
H980 C993 0.930 . S
H981 C997 0.959 . S
H982 C997 0.959 . S
H983 C997 0.961 . S
H984 C998 0.960 . S
H985 C998 0.961 . S
H986 C998 0.959 . S
H987 C1001 0.929 . S
H988 C1002 0.931 . S
H989 C1004 0.930 . S
C990 H978 0.930 . S
C990 C991 1.399 . S
C990 C995 1.399 . S
C991 C990 1.399 . S
C991 C992 1.376 . S
C992 H979 0.930 . S
C992 C991 1.376 . S
C992 C993 1.388 . S
C993 H980 0.930 . S
C993 C992 1.388 . S
C993 C994 1.390 . S
C994 C993 1.390 . S
C994 C995 1.394 . S
C994 C1000 1.465 . S
C995 C990 1.399 . S
C995 C994 1.394 . S
C995 C996 1.516 . S
C996 C995 1.516 . S
C996 C997 1.502 . S
C996 C998 1.561 . S
C996 C999 1.526 . S
C997 H981 0.959 . S
C997 H982 0.959 . S
C997 H983 0.961 . S
C997 C996 1.502 . S
C998 H984 0.960 . S
C998 H985 0.961 . S
C998 H986 0.959 . S
C998 C996 1.561 . S
C999 C996 1.526 . S
C999 C1000 1.396 . S
C999 C1004 1.390 . S
C1000 C994 1.465 . S
C1000 C999 1.396 . S
C1000 C1001 1.399 . S
C1001 H987 0.929 . S
C1001 C1000 1.399 . S
C1001 C1002 1.385 1_545 S
C1002 H988 0.931 . S
C1002 C1001 1.385 1_565 S
C1002 C1003 1.389 . S
C1003 C1002 1.389 . S
C1003 C1004 1.387 1_565 S
C1004 H989 0.930 . S
C1004 C999 1.390 . S
C1004 C1003 1.387 1_545 S
H1005 C1017 0.930 . S
H1006 C1019 0.930 . S
H1007 C1020 0.930 . S
H1008 C1024 0.959 . S
H1009 C1024 0.959 . S
H1010 C1024 0.961 . S
H1011 C1025 0.960 . S
H1012 C1025 0.961 . S
H1013 C1025 0.959 . S
H1014 C1028 0.929 . S
H1015 C1029 0.931 . S
H1016 C1031 0.930 . S
C1017 H1005 0.930 . S
C1017 C1018 1.399 . S
C1017 C1022 1.399 1_455 S
C1018 C1017 1.399 . S
C1018 C1019 1.376 . S
C1019 H1006 0.930 . S
C1019 C1018 1.376 . S
C1019 C1020 1.388 1_455 S
C1020 H1007 0.930 . S
C1020 C1019 1.388 1_655 S
C1020 C1021 1.390 . S
C1021 C1020 1.390 . S
C1021 C1022 1.394 . S
C1021 C1027 1.465 . S
C1022 C1017 1.399 1_655 S
C1022 C1021 1.394 . S
C1022 C1023 1.516 . S
C1023 C1022 1.516 . S
C1023 C1024 1.502 . S
C1023 C1025 1.561 . S
C1023 C1026 1.526 . S
C1024 H1008 0.959 . S
C1024 H1009 0.959 . S
C1024 H1010 0.961 . S
C1024 C1023 1.502 . S
C1025 H1011 0.960 . S
C1025 H1012 0.961 . S
C1025 H1013 0.959 . S
C1025 C1023 1.561 . S
C1026 C1023 1.526 . S
C1026 C1027 1.396 . S
C1026 C1031 1.390 . S
C1027 C1021 1.465 . S
C1027 C1026 1.396 . S
C1027 C1028 1.399 . S
C1028 H1014 0.929 . S
C1028 C1027 1.399 . S
C1028 C1029 1.385 . S
C1029 H1015 0.931 . S
C1029 C1028 1.385 . S
C1029 C1030 1.389 . S
C1030 C1029 1.389 . S
C1030 C1031 1.387 . S
C1031 H1016 0.930 . S
C1031 C1026 1.390 . S
C1031 C1030 1.387 . S
H1032 C1044 0.930 . S
H1033 C1046 0.930 . S
H1034 C1047 0.930 . S
H1035 C1051 0.959 . S
H1036 C1051 0.959 . S
H1037 C1051 0.961 . S
H1038 C1052 0.960 . S
H1039 C1052 0.961 . S
H1040 C1052 0.959 . S
H1041 C1055 0.929 . S
H1042 C1056 0.931 . S
H1043 C1058 0.930 . S
C1044 H1032 0.930 . S
C1044 C1045 1.399 . S
C1044 C1049 1.399 . S
C1045 C1044 1.399 . S
C1045 C1046 1.376 . S
C1046 H1033 0.930 . S
C1046 C1045 1.376 . S
C1046 C1047 1.388 . S
C1047 H1034 0.930 . S
C1047 C1046 1.388 . S
C1047 C1048 1.390 . S
C1048 C1047 1.390 . S
C1048 C1049 1.394 . S
C1048 C1054 1.465 . S
C1049 C1044 1.399 . S
C1049 C1048 1.394 . S
C1049 C1050 1.516 . S
C1050 C1049 1.516 . S
C1050 C1051 1.502 . S
C1050 C1052 1.561 . S
C1050 C1053 1.526 . S
C1051 H1035 0.959 . S
C1051 H1036 0.959 . S
C1051 H1037 0.961 . S
C1051 C1050 1.502 . S
C1052 H1038 0.960 . S
C1052 H1039 0.961 . S
C1052 H1040 0.959 . S
C1052 C1050 1.561 . S
C1053 C1050 1.526 . S
C1053 C1054 1.396 . S
C1053 C1058 1.390 . S
C1054 C1048 1.465 . S
C1054 C1053 1.396 . S
C1054 C1055 1.399 . S
C1055 H1041 0.929 . S
C1055 C1054 1.399 . S
C1055 C1056 1.385 . S
C1056 H1042 0.931 . S
C1056 C1055 1.385 . S
C1056 C1057 1.389 . S
C1057 C1056 1.389 . S
C1057 C1058 1.387 . S
C1058 H1043 0.930 . S
C1058 C1053 1.390 . S
C1058 C1057 1.387 . S
H1059 C1071 0.930 . S
H1060 C1073 0.930 . S
H1061 C1074 0.930 . S
H1062 C1078 0.959 . S
H1063 C1078 0.959 . S
H1064 C1078 0.961 . S
H1065 C1079 0.960 . S
H1066 C1079 0.961 . S
H1067 C1079 0.959 . S
H1068 C1082 0.929 . S
H1069 C1083 0.931 . S
H1070 C1085 0.930 . S
C1071 H1059 0.930 . S
C1071 C1072 1.399 . S
C1071 C1076 1.399 . S
C1072 C1071 1.399 . S
C1072 C1073 1.376 . S
C1073 H1060 0.930 . S
C1073 C1072 1.376 . S
C1073 C1074 1.388 . S
C1074 H1061 0.930 . S
C1074 C1073 1.388 . S
C1074 C1075 1.390 . S
C1075 C1074 1.390 . S
C1075 C1076 1.394 . S
C1075 C1081 1.465 . S
C1076 C1071 1.399 . S
C1076 C1075 1.394 . S
C1076 C1077 1.516 . S
C1077 C1076 1.516 . S
C1077 C1078 1.502 . S
C1077 C1079 1.561 . S
C1077 C1080 1.526 . S
C1078 H1062 0.959 . S
C1078 H1063 0.959 . S
C1078 H1064 0.961 . S
C1078 C1077 1.502 . S
C1079 H1065 0.960 . S
C1079 H1066 0.961 . S
C1079 H1067 0.959 . S
C1079 C1077 1.561 . S
C1080 C1077 1.526 . S
C1080 C1081 1.396 . S
C1080 C1085 1.390 . S
C1081 C1075 1.465 . S
C1081 C1080 1.396 . S
C1081 C1082 1.399 . S
C1082 H1068 0.929 . S
C1082 C1081 1.399 . S
C1082 C1083 1.385 . S
C1083 H1069 0.931 . S
C1083 C1082 1.385 . S
C1083 C1084 1.389 . S
C1084 C1083 1.389 . S
C1084 C1085 1.387 . S
C1085 H1070 0.930 . S
C1085 C1080 1.390 . S
C1085 C1084 1.387 . S
H1086 C1098 0.930 . S
H1087 C1100 0.930 . S
H1088 C1101 0.930 . S
H1089 C1105 0.959 . S
H1090 C1105 0.959 . S
H1091 C1105 0.961 . S
H1092 C1106 0.960 . S
H1093 C1106 0.961 . S
H1094 C1106 0.959 . S
H1095 C1109 0.929 . S
H1096 C1110 0.931 . S
H1097 C1112 0.930 . S
C1098 H1086 0.930 . S
C1098 C1099 1.399 . S
C1098 C1103 1.399 . S
C1099 C1098 1.399 . S
C1099 C1100 1.376 . S
C1100 H1087 0.930 . S
C1100 C1099 1.376 . S
C1100 C1101 1.388 . S
C1101 H1088 0.930 . S
C1101 C1100 1.388 . S
C1101 C1102 1.390 . S
C1102 C1101 1.390 . S
C1102 C1103 1.394 . S
C1102 C1108 1.465 . S
C1103 C1098 1.399 . S
C1103 C1102 1.394 . S
C1103 C1104 1.516 . S
C1104 C1103 1.516 . S
C1104 C1105 1.502 . S
C1104 C1106 1.561 . S
C1104 C1107 1.526 . S
C1105 H1089 0.959 . S
C1105 H1090 0.959 . S
C1105 H1091 0.961 . S
C1105 C1104 1.502 . S
C1106 H1092 0.960 . S
C1106 H1093 0.961 . S
C1106 H1094 0.959 . S
C1106 C1104 1.561 . S
C1107 C1104 1.526 . S
C1107 C1108 1.396 . S
C1107 C1112 1.390 . S
C1108 C1102 1.465 . S
C1108 C1107 1.396 . S
C1108 C1109 1.399 . S
C1109 H1095 0.929 . S
C1109 C1108 1.399 . S
C1109 C1110 1.385 . S
C1110 H1096 0.931 . S
C1110 C1109 1.385 . S
C1110 C1111 1.389 . S
C1111 C1110 1.389 . S
C1111 C1112 1.387 . S
C1112 H1097 0.930 . S
C1112 C1107 1.390 . S
C1112 C1111 1.387 . S
H1113 C1125 0.930 . S
H1114 C1127 0.930 . S
H1115 C1128 0.930 . S
H1116 C1132 0.959 . S
H1117 C1132 0.959 . S
H1118 C1132 0.961 . S
H1119 C1133 0.960 . S
H1120 C1133 0.961 . S
H1121 C1133 0.959 . S
H1122 C1136 0.929 . S
H1123 C1137 0.931 . S
H1124 C1139 0.930 . S
C1125 H1113 0.930 . S
C1125 C1126 1.399 . S
C1125 C1130 1.399 . S
C1126 C1125 1.399 . S
C1126 C1127 1.376 . S
C1127 H1114 0.930 . S
C1127 C1126 1.376 . S
C1127 C1128 1.388 . S
C1128 H1115 0.930 . S
C1128 C1127 1.388 . S
C1128 C1129 1.390 . S
C1129 C1128 1.390 . S
C1129 C1130 1.394 . S
C1129 C1135 1.465 . S
C1130 C1125 1.399 . S
C1130 C1129 1.394 . S
C1130 C1131 1.516 . S
C1131 C1130 1.516 . S
C1131 C1132 1.502 . S
C1131 C1133 1.561 . S
C1131 C1134 1.526 . S
C1132 H1116 0.959 . S
C1132 H1117 0.959 . S
C1132 H1118 0.961 . S
C1132 C1131 1.502 . S
C1133 H1119 0.960 . S
C1133 H1120 0.961 . S
C1133 H1121 0.959 . S
C1133 C1131 1.561 . S
C1134 C1131 1.526 . S
C1134 C1135 1.396 . S
C1134 C1139 1.390 . S
C1135 C1129 1.465 . S
C1135 C1134 1.396 . S
C1135 C1136 1.399 . S
C1136 H1122 0.929 . S
C1136 C1135 1.399 . S
C1136 C1137 1.385 . S
C1137 H1123 0.931 . S
C1137 C1136 1.385 . S
C1137 C1138 1.389 . S
C1138 C1137 1.389 . S
C1138 C1139 1.387 . S
C1139 H1124 0.930 . S
C1139 C1134 1.390 . S
C1139 C1138 1.387 . S
H1140 C1152 0.930 . S
H1141 C1154 0.930 . S
H1142 C1155 0.930 . S
H1143 C1159 0.959 . S
H1144 C1159 0.959 . S
H1145 C1159 0.961 . S
H1146 C1160 0.960 . S
H1147 C1160 0.961 . S
H1148 C1160 0.959 . S
H1149 C1163 0.929 . S
H1150 C1164 0.931 . S
H1151 C1166 0.930 . S
C1152 H1140 0.930 . S
C1152 C1153 1.399 . S
C1152 C1157 1.399 . S
C1153 C1152 1.399 . S
C1153 C1154 1.376 . S
C1154 H1141 0.930 . S
C1154 C1153 1.376 . S
C1154 C1155 1.388 . S
C1155 H1142 0.930 . S
C1155 C1154 1.388 . S
C1155 C1156 1.390 . S
C1156 C1155 1.390 . S
C1156 C1157 1.394 . S
C1156 C1162 1.465 . S
C1157 C1152 1.399 . S
C1157 C1156 1.394 . S
C1157 C1158 1.516 . S
C1158 C1157 1.516 . S
C1158 C1159 1.502 . S
C1158 C1160 1.561 . S
C1158 C1161 1.526 . S
C1159 H1143 0.959 . S
C1159 H1144 0.959 . S
C1159 H1145 0.961 . S
C1159 C1158 1.502 . S
C1160 H1146 0.960 . S
C1160 H1147 0.961 . S
C1160 H1148 0.959 . S
C1160 C1158 1.561 . S
C1161 C1158 1.526 . S
C1161 C1162 1.396 . S
C1161 C1166 1.390 . S
C1162 C1156 1.465 . S
C1162 C1161 1.396 . S
C1162 C1163 1.399 . S
C1163 H1149 0.929 . S
C1163 C1162 1.399 . S
C1163 C1164 1.385 . S
C1164 H1150 0.931 . S
C1164 C1163 1.385 . S
C1164 C1165 1.389 . S
C1165 C1164 1.389 . S
C1165 C1166 1.387 . S
C1166 H1151 0.930 . S
C1166 C1161 1.390 . S
C1166 C1165 1.387 . S
H1167 C1179 0.930 . S
H1168 C1181 0.930 . S
H1169 C1182 0.930 . S
H1170 C1186 0.959 . S
H1171 C1186 0.959 . S
H1172 C1186 0.961 . S
H1173 C1187 0.960 . S
H1174 C1187 0.961 . S
H1175 C1187 0.959 . S
H1176 C1190 0.929 . S
H1177 C1191 0.931 . S
H1178 C1193 0.930 . S
C1179 H1167 0.930 . S
C1179 C1180 1.399 . S
C1179 C1184 1.399 . S
C1180 C1179 1.399 . S
C1180 C1181 1.376 . S
C1181 H1168 0.930 . S
C1181 C1180 1.376 . S
C1181 C1182 1.388 . S
C1182 H1169 0.930 . S
C1182 C1181 1.388 . S
C1182 C1183 1.390 . S
C1183 C1182 1.390 . S
C1183 C1184 1.394 . S
C1183 C1189 1.465 . S
C1184 C1179 1.399 . S
C1184 C1183 1.394 . S
C1184 C1185 1.516 . S
C1185 C1184 1.516 . S
C1185 C1186 1.502 . S
C1185 C1187 1.561 . S
C1185 C1188 1.526 . S
C1186 H1170 0.959 . S
C1186 H1171 0.959 . S
C1186 H1172 0.961 . S
C1186 C1185 1.502 . S
C1187 H1173 0.960 . S
C1187 H1174 0.961 . S
C1187 H1175 0.959 . S
C1187 C1185 1.561 . S
C1188 C1185 1.526 . S
C1188 C1189 1.396 . S
C1188 C1193 1.390 . S
C1189 C1183 1.465 . S
C1189 C1188 1.396 . S
C1189 C1190 1.399 . S
C1190 H1176 0.929 . S
C1190 C1189 1.399 . S
C1190 C1191 1.385 . S
C1191 H1177 0.931 . S
C1191 C1190 1.385 . S
C1191 C1192 1.389 . S
C1192 C1191 1.389 . S
C1192 C1193 1.387 . S
C1193 H1178 0.930 . S
C1193 C1188 1.390 . S
C1193 C1192 1.387 . S
H1194 C1206 0.930 . S
H1195 C1208 0.930 . S
H1196 C1209 0.930 . S
H1197 C1213 0.959 . S
H1198 C1213 0.959 . S
H1199 C1213 0.961 . S
H1200 C1214 0.960 . S
H1201 C1214 0.961 1_556 S
H1202 C1214 0.959 . S
H1203 C1217 0.929 1_454 S
H1204 C1218 0.931 . S
H1205 C1220 0.930 . S
C1206 H1194 0.930 . S
C1206 C1207 1.399 . S
C1206 C1211 1.399 . S
C1207 C1206 1.399 . S
C1207 C1208 1.376 . S
C1208 H1195 0.930 . S
C1208 C1207 1.376 . S
C1208 C1209 1.388 . S
C1209 H1196 0.930 . S
C1209 C1208 1.388 . S
C1209 C1210 1.390 . S
C1210 C1209 1.390 . S
C1210 C1211 1.394 . S
C1210 C1216 1.462 1_454 S
C1211 C1206 1.399 . S
C1211 C1210 1.394 . S
C1211 C1212 1.516 1_454 S
C1212 C1211 1.516 1_656 S
C1212 C1213 1.502 . S
C1212 C1214 1.561 1_556 S
C1212 C1215 1.526 . S
C1213 H1197 0.959 . S
C1213 H1198 0.959 . S
C1213 H1199 0.961 . S
C1213 C1212 1.502 . S
C1214 H1200 0.960 . S
C1214 H1201 0.961 1_554 S
C1214 H1202 0.959 . S
C1214 C1212 1.561 1_554 S
C1215 C1212 1.526 . S
C1215 C1216 1.400 . S
C1215 C1220 1.390 . S
C1216 C1210 1.462 1_656 S
C1216 C1215 1.400 . S
C1216 C1217 1.399 . S
C1217 H1203 0.929 1_656 S
C1217 C1216 1.399 . S
C1217 C1218 1.385 . S
C1218 H1204 0.931 . S
C1218 C1217 1.385 . S
C1218 C1219 1.389 . S
C1219 C1218 1.389 . S
C1219 C1220 1.387 . S
C1220 H1205 0.930 . S
C1220 C1215 1.390 . S
C1220 C1219 1.387 . S
H1221 C1233 0.930 1_556 S
H1222 C1235 0.930 . S
H1223 C1236 0.930 . S
H1224 C1240 0.959 . S
H1225 C1240 0.959 . S
H1226 C1240 0.961 . S
H1227 C1241 0.960 . S
H1228 C1241 0.961 . S
H1229 C1241 0.959 . S
H1230 C1244 0.929 . S
H1231 C1245 0.931 1_554 S
H1232 C1247 0.930 . S
C1233 H1221 0.930 1_554 S
C1233 C1234 1.399 . S
C1233 C1238 1.402 . S
C1234 C1233 1.399 . S
C1234 C1235 1.376 . S
C1235 H1222 0.930 . S
C1235 C1234 1.376 . S
C1235 C1236 1.388 . S
C1236 H1223 0.930 . S
C1236 C1235 1.388 . S
C1236 C1237 1.390 . S
C1237 C1236 1.390 . S
C1237 C1238 1.401 . S
C1237 C1243 1.465 . S
C1238 C1233 1.402 . S
C1238 C1237 1.401 . S
C1238 C1239 1.506 1_554 S
C1239 C1238 1.506 1_556 S
C1239 C1240 1.502 . S
C1239 C1241 1.561 . S
C1239 C1242 1.526 . S
C1240 H1224 0.959 . S
C1240 H1225 0.959 . S
C1240 H1226 0.961 . S
C1240 C1239 1.502 . S
C1241 H1227 0.960 . S
C1241 H1228 0.961 . S
C1241 H1229 0.959 . S
C1241 C1239 1.561 . S
C1242 C1239 1.526 . S
C1242 C1243 1.396 1_556 S
C1242 C1247 1.390 . S
C1243 C1237 1.465 . S
C1243 C1242 1.396 1_554 S
C1243 C1244 1.399 . S
C1244 H1230 0.929 . S
C1244 C1243 1.399 . S
C1244 C1245 1.385 1_554 S
C1245 H1231 0.931 1_556 S
C1245 C1244 1.385 1_556 S
C1245 C1246 1.389 . S
C1246 C1245 1.389 . S
C1246 C1247 1.387 . S
C1247 H1232 0.930 . S
C1247 C1242 1.390 . S
C1247 C1246 1.387 . S
H1248 C1260 0.930 . S
H1249 C1262 0.930 . S
H1250 C1263 0.930 . S
H1251 C1267 0.959 . S
H1252 C1267 0.959 . S
H1253 C1267 0.961 . S
H1254 C1268 0.960 . S
H1255 C1268 0.961 . S
H1256 C1268 0.959 . S
H1257 C1271 0.929 . S
H1258 C1272 0.931 . S
H1259 C1274 0.930 . S
C1260 H1248 0.930 . S
C1260 C1261 1.399 . S
C1260 C1265 1.399 . S
C1261 C1260 1.399 . S
C1261 C1262 1.376 . S
C1262 H1249 0.930 . S
C1262 C1261 1.376 . S
C1262 C1263 1.388 1_565 S
C1263 H1250 0.930 . S
C1263 C1262 1.388 1_545 S
C1263 C1264 1.390 . S
C1264 C1263 1.390 . S
C1264 C1265 1.394 1_545 S
C1264 C1270 1.474 . S
C1265 C1260 1.399 . S
C1265 C1264 1.394 1_565 S
C1265 C1266 1.516 1_554 S
C1266 C1265 1.516 1_556 S
C1266 C1267 1.502 . S
C1266 C1268 1.561 . S
C1266 C1269 1.526 1_565 S
C1267 H1251 0.959 . S
C1267 H1252 0.959 . S
C1267 H1253 0.961 . S
C1267 C1266 1.502 . S
C1268 H1254 0.960 . S
C1268 H1255 0.961 . S
C1268 H1256 0.959 . S
C1268 C1266 1.561 . S
C1269 C1266 1.526 1_545 S
C1269 C1270 1.382 1_556 S
C1269 C1274 1.390 . S
C1270 C1264 1.474 . S
C1270 C1269 1.382 1_554 S
C1270 C1271 1.402 . S
C1271 H1257 0.929 . S
C1271 C1270 1.402 . S
C1271 C1272 1.385 1_554 S
C1272 H1258 0.931 . S
C1272 C1271 1.385 1_556 S
C1272 C1273 1.389 . S
C1273 C1272 1.389 . S
C1273 C1274 1.387 . S
C1274 H1259 0.930 . S
C1274 C1269 1.390 . S
C1274 C1273 1.387 . S
H1275 C1287 0.930 . S
H1276 C1289 0.930 . S
H1277 C1290 0.930 . S
H1278 C1294 0.959 . S
H1279 C1294 0.959 . S
H1280 C1294 0.961 . S
H1281 C1295 0.960 . S
H1282 C1295 0.961 . S
H1283 C1295 0.959 . S
H1284 C1298 0.929 . S
H1285 C1299 0.931 . S
H1286 C1301 0.930 . S
C1287 H1275 0.930 . S
C1287 C1288 1.399 . S
C1287 C1292 1.399 . S
C1288 C1287 1.399 . S
C1288 C1289 1.376 . S
C1289 H1276 0.930 . S
C1289 C1288 1.376 . S
C1289 C1290 1.388 . S
C1290 H1277 0.930 . S
C1290 C1289 1.388 . S
C1290 C1291 1.390 . S
C1291 C1290 1.390 . S
C1291 C1292 1.394 . S
C1291 C1297 1.465 . S
C1292 C1287 1.399 . S
C1292 C1291 1.394 . S
C1292 C1293 1.516 1_565 S
C1293 C1292 1.516 1_545 S
C1293 C1294 1.502 . S
C1293 C1295 1.561 . S
C1293 C1296 1.526 . S
C1294 H1278 0.959 . S
C1294 H1279 0.959 . S
C1294 H1280 0.961 . S
C1294 C1293 1.502 . S
C1295 H1281 0.960 . S
C1295 H1282 0.961 . S
C1295 H1283 0.959 . S
C1295 C1293 1.561 . S
C1296 C1293 1.526 . S
C1296 C1297 1.396 1_545 S
C1296 C1301 1.390 . S
C1297 C1291 1.465 . S
C1297 C1296 1.396 1_565 S
C1297 C1298 1.399 . S
C1298 H1284 0.929 . S
C1298 C1297 1.399 . S
C1298 C1299 1.385 1_565 S
C1299 H1285 0.931 . S
C1299 C1298 1.385 1_545 S
C1299 C1300 1.389 . S
C1300 C1299 1.389 . S
C1300 C1301 1.387 . S
C1301 H1286 0.930 . S
C1301 C1296 1.390 . S
C1301 C1300 1.387 . S
H1302 C1314 0.930 . S
H1303 C1316 0.930 . S
H1304 C1317 0.930 . S
H1305 C1321 0.959 . S
H1306 C1321 0.959 . S
H1307 C1321 0.961 . S
H1308 C1322 0.960 . S
H1309 C1322 0.961 . S
H1310 C1322 0.959 . S
H1311 C1325 0.929 . S
H1312 C1326 0.931 . S
H1313 C1328 0.930 . S
C1314 H1302 0.930 . S
C1314 C1315 1.399 . S
C1314 C1319 1.399 . S
C1315 C1314 1.399 . S
C1315 C1316 1.376 . S
C1316 H1303 0.930 . S
C1316 C1315 1.376 . S
C1316 C1317 1.388 . S
C1317 H1304 0.930 . S
C1317 C1316 1.388 . S
C1317 C1318 1.390 . S
C1318 C1317 1.390 . S
C1318 C1319 1.394 . S
C1318 C1324 1.465 1_655 S
C1319 C1314 1.399 . S
C1319 C1318 1.394 . S
C1319 C1320 1.516 1_655 S
C1320 C1319 1.516 1_455 S
C1320 C1321 1.502 . S
C1320 C1322 1.561 . S
C1320 C1323 1.526 . S
C1321 H1305 0.959 . S
C1321 H1306 0.959 . S
C1321 H1307 0.961 . S
C1321 C1320 1.502 . S
C1322 H1308 0.960 . S
C1322 H1309 0.961 . S
C1322 H1310 0.959 . S
C1322 C1320 1.561 . S
C1323 C1320 1.526 . S
C1323 C1324 1.396 . S
C1323 C1328 1.390 . S
C1324 C1318 1.465 1_455 S
C1324 C1323 1.396 . S
C1324 C1325 1.399 1_455 S
C1325 H1311 0.929 . S
C1325 C1324 1.399 1_655 S
C1325 C1326 1.385 1_655 S
C1326 H1312 0.931 . S
C1326 C1325 1.385 1_455 S
C1326 C1327 1.389 . S
C1327 C1326 1.389 . S
C1327 C1328 1.387 . S
C1328 H1313 0.930 . S
C1328 C1323 1.390 . S
C1328 C1327 1.387 . S
H1329 C1341 0.930 . S
H1330 C1343 0.930 . S
H1331 C1344 0.930 . S
H1332 C1348 0.959 . S
H1333 C1348 0.959 . S
H1334 C1348 0.961 . S
H1335 C1349 0.960 . S
H1336 C1349 0.961 . S
H1337 C1349 0.959 . S
H1338 C1352 0.929 . S
H1339 C1353 0.931 . S
H1340 C1355 0.930 . S
C1341 H1329 0.930 . S
C1341 C1342 1.399 . S
C1341 C1346 1.399 . S
C1342 C1341 1.399 . S
C1342 C1343 1.376 . S
C1343 H1330 0.930 . S
C1343 C1342 1.376 . S
C1343 C1344 1.388 . S
C1344 H1331 0.930 . S
C1344 C1343 1.388 . S
C1344 C1345 1.390 . S
C1345 C1344 1.390 . S
C1345 C1346 1.394 . S
C1345 C1351 1.465 . S
C1346 C1341 1.399 . S
C1346 C1345 1.394 . S
C1346 C1347 1.516 . S
C1347 C1346 1.516 . S
C1347 C1348 1.502 . S
C1347 C1349 1.561 . S
C1347 C1350 1.526 . S
C1348 H1332 0.959 . S
C1348 H1333 0.959 . S
C1348 H1334 0.961 . S
C1348 C1347 1.502 . S
C1349 H1335 0.960 . S
C1349 H1336 0.961 . S
C1349 H1337 0.959 . S
C1349 C1347 1.561 . S
C1350 C1347 1.526 . S
C1350 C1351 1.396 . S
C1350 C1355 1.390 . S
C1351 C1345 1.465 . S
C1351 C1350 1.396 . S
C1351 C1352 1.399 . S
C1352 H1338 0.929 . S
C1352 C1351 1.399 . S
C1352 C1353 1.385 . S
C1353 H1339 0.931 . S
C1353 C1352 1.385 . S
C1353 C1354 1.389 . S
C1354 C1353 1.389 . S
C1354 C1355 1.387 . S
C1355 H1340 0.930 . S
C1355 C1350 1.390 . S
C1355 C1354 1.387 . S
C721 C3 0.891 . S
C733 C465 0.899 . S
C748 C62 0.856 . S
C760 C524 0.858 . S
C775 C121 0.848 . S
C787 C406 0.875 . S
C802 C701 0.903 . S
C814 C180 0.871 . S
C829 C239 0.897 . S
C841 C583 0.894 . S
C856 C642 0.856 . S
C868 C298 0.857 . S
C883 C111 0.892 . S
C895 C357 0.886 . S
C910 C416 0.865 . S
C922 C170 0.902 . S
C937 C52 0.874 . S
C949 C475 0.900 . S
C964 C534 0.869 . S
C976 C347 0.859 . S
C991 C593 0.856 . S
C1003 C229 0.903 . S
C1018 C288 0.855 . S
C1030 C652 0.902 . S
C1045 C300 1.659 . S
C1057 C5 1.676 . S
C1072 C64 1.665 . S
C1084 C182 1.645 . S
C1099 C123 1.656 . S
C1111 C241 1.676 . S
C1126 C359 1.644 . S
C1138 C654 1.656 . S
C1153 C418 1.673 . S
C1165 C536 1.674 . S
C1180 C477 1.657 . S
C1192 C595 1.645 . S
C1207 C33 1.809 . S
C1219 C387 1.740 . S
C1234 C92 1.777 . S
C1246 C446 1.764 . S
C1261 C151 1.756 . S
C1273 C505 1.785 . S
C1288 C210 1.794 . S
C1300 C564 1.768 . S
C1315 C623 1.759 . S
C1327 C269 1.781 . S
C1342 C328 1.740 . S
C1354 C682 1.810 . S
