# Generated by pormake.
# Topology unm, (4)-cn, num edge types: 1
# Building blocks:
#     Node 0, Type 0, BuildingBlock: NAHDIM_clean_sbu_0, # of connection points: 4
#     Node 1, Type 0, BuildingBlock: NAHDIM_clean_sbu_0, # of connection points: 4
#     Node 2, Type 0, BuildingBlock: NAHDIM_clean_sbu_0, # of connection points: 4
#     Node 3, Type 0, BuildingBlock: NAHDIM_clean_sbu_0, # of connection points: 4
#     Node 4, Type 0, BuildingBlock: NAHDIM_clean_sbu_0, # of connection points: 4
#     Node 5, Type 0, BuildingBlock: NAHDIM_clean_sbu_0, # of connection points: 4
#     Node 6, Type 0, BuildingBlock: NAHDIM_clean_sbu_0, # of connection points: 4
#     Node 7, Type 0, BuildingBlock: NAHDIM_clean_sbu_0, # of connection points: 4
#     Edge 8, Type (0, 0), BuildingBlock: EZIPEK_clean_linker_0, # of connection points: 2
#     Edge 9, Type (0, 0), BuildingBlock: EZIPEK_clean_linker_0, # of connection points: 2
#     Edge 10, Type (0, 0), BuildingBlock: EZIPEK_clean_linker_0, # of connection points: 2
#     Edge 11, Type (0, 0), BuildingBlock: EZIPEK_clean_linker_0, # of connection points: 2
#     Edge 12, Type (0, 0), BuildingBlock: EZIPEK_clean_linker_0, # of connection points: 2
#     Edge 13, Type (0, 0), BuildingBlock: EZIPEK_clean_linker_0, # of connection points: 2
#     Edge 14, Type (0, 0), BuildingBlock: EZIPEK_clean_linker_0, # of connection points: 2
#     Edge 15, Type (0, 0), BuildingBlock: EZIPEK_clean_linker_0, # of connection points: 2
#     Edge 16, Type (0, 0), BuildingBlock: EZIPEK_clean_linker_0, # of connection points: 2
#     Edge 17, Type (0, 0), BuildingBlock: EZIPEK_clean_linker_0, # of connection points: 2
#     Edge 18, Type (0, 0), BuildingBlock: EZIPEK_clean_linker_0, # of connection points: 2
#     Edge 19, Type (0, 0), BuildingBlock: EZIPEK_clean_linker_0, # of connection points: 2
#     Edge 20, Type (0, 0), BuildingBlock: EZIPEK_clean_linker_0, # of connection points: 2
#     Edge 21, Type (0, 0), BuildingBlock: EZIPEK_clean_linker_0, # of connection points: 2
#     Edge 22, Type (0, 0), BuildingBlock: EZIPEK_clean_linker_0, # of connection points: 2
#     Edge 23, Type (0, 0), BuildingBlock: EZIPEK_clean_linker_0, # of connection points: 2
# Relax obj value: 0.223
# Max RMSD: 0.178
# Mean RMSD: 0.178
data_MOF--net-unm--node1-NAHDIM_clean_sbu_0--edge1-EZIPEK_clean_linker_0
_symmetry_space_group_name_H-M    P1
_symmetry_Int_Tables_number       1
_symmetry_cell_setting            triclinic
loop_
_symmetry_equiv_pos_as_xyz
'x, y, z'
_cell_length_a     19.51567
_cell_length_b     19.582653
_cell_length_c     30.691443
_cell_angle_alpha  90.021817
_cell_angle_beta   90.070286
_cell_angle_gamma 90.480938
loop_
_atom_site_label
_atom_site_type_symbol
_atom_site_fract_x
_atom_site_fract_y
_atom_site_fract_z
_atom_type_partial_charge
C0 C 0.27382 0.26016 0.21105 0.0
O1 O 0.23997 0.21781 0.23648 0.0
O2 O 0.0909 0.21163 0.20163 0.0
Zn3 Zn 0.15017 0.25705 0.15562 0.0
O4 O 0.1569 0.20602 0.09878 0.0
C5 C 0.03964 0.35222 0.145 0.0
O6 O 0.00056 0.29974 0.15501 0.0
O7 O 0.24584 0.28189 0.17642 0.0
C8 C 0.10804 0.20417 0.07137 0.0
O9 O 0.04885 0.23137 0.08104 0.0
C10 C 0.04594 0.16599 0.19357 0.0
O11 O 0.04516 0.13921 0.15435 0.0
O12 O 0.10429 0.34604 0.14314 0.0
C13 C 0.2305 0.72018 0.68712 0.0
O14 O 0.22768 0.72979 0.6448 0.0
O15 O 0.27948 0.49724 0.69041 0.0
Zn16 Zn 0.25633 0.58444 0.6596 0.0
O17 O 0.31524 0.60945 0.60863 0.0
C18 C 0.12154 0.54305 0.66477 0.0
O19 O 0.14244 0.53408 0.70505 0.0
O20 O 0.24595 0.66162 0.70177 0.0
C21 C 0.3049 0.57792 0.57301 0.0
O22 O 0.26141 0.52645 0.57187 0.0
C23 C 0.30833 0.44539 0.67408 0.0
O24 O 0.33918 0.44997 0.63618 0.0
O25 O 0.16244 0.56793 0.63682 0.0
C26 C 0.72946 0.70698 0.18785 0.0
O27 O 0.73663 0.66097 0.15708 0.0
O28 O 0.94451 0.77304 0.19802 0.0
Zn29 Zn 0.86483 0.74181 0.16175 0.0
O30 O 0.85746 0.7849 0.10234 0.0
C31 C 0.9326 0.62332 0.13214 0.0
O32 O 0.96967 0.66859 0.11118 0.0
O33 O 0.77724 0.75005 0.19508 0.0
C34 C 0.90566 0.80644 0.07798 0.0
O35 O 0.96922 0.80755 0.09202 0.0
C36 C 0.98058 0.82719 0.19964 0.0
O37 O 0.96604 0.87932 0.17448 0.0
O38 O 0.88175 0.64226 0.1546 0.0
C39 C 0.74991 0.28106 0.72687 0.0
O40 O 0.77992 0.33397 0.74533 0.0
O41 O 0.69522 0.4576 0.6951 0.0
Zn42 Zn 0.72905 0.37816 0.65937 0.0
O43 O 0.68895 0.37185 0.59892 0.0
C44 C 0.84756 0.44875 0.63231 0.0
O45 O 0.80186 0.48391 0.61076 0.0
O46 O 0.72087 0.28807 0.6901 0.0
C47 C 0.72593 0.34099 0.57124 0.0
O48 O 0.78533 0.3163 0.58329 0.0
C49 C 0.67246 0.51253 0.67869 0.0
O50 O 0.65718 0.51492 0.63704 0.0
O51 O 0.82894 0.39771 0.65481 0.0
C52 C 0.77005 0.20054 0.24959 0.0
O53 O 0.72384 0.18839 0.21934 0.0
O54 O 0.58563 0.27325 0.26344 0.0
Zn55 Zn 0.65401 0.23764 0.30702 0.0
O56 O 0.65583 0.29193 0.36258 0.0
C57 C 0.55072 0.15082 0.33596 0.0
O58 O 0.52493 0.21049 0.34595 0.0
O59 O 0.75128 0.22228 0.28668 0.0
C60 C 0.67646 0.25872 0.39556 0.0
O61 O 0.69485 0.19479 0.39101 0.0
C62 C 0.5482 0.32517 0.26959 0.0
O63 O 0.56803 0.37238 0.29738 0.0
O64 O 0.61106 0.14748 0.32067 0.0
C65 C 0.21796 0.20214 0.76356 0.0
O66 O 0.15248 0.18623 0.7621 0.0
O67 O 0.20526 0.00337 0.78242 0.0
Zn68 Zn 0.23524 0.08213 0.81994 0.0
O69 O 0.17236 0.10238 0.86981 0.0
C70 C 0.3346 0.00855 0.87268 0.0
O71 O 0.28236 0.98219 0.89383 0.0
O72 O 0.25895 0.16541 0.78512 0.0
C73 C 0.20097 0.13635 0.90011 0.0
O74 O 0.26421 0.15831 0.89487 0.0
C75 C 0.17674 0.9505 0.7984 0.0
O76 O 0.15495 0.95122 0.83886 0.0
O77 O 0.32501 0.05257 0.84307 0.0
C78 C 0.21906 0.80052 0.31005 0.0
O79 O 0.21729 0.81521 0.3518 0.0
O80 O 0.43544 0.7366 0.28761 0.0
Zn81 Zn 0.35957 0.76539 0.32809 0.0
O82 O 0.3454 0.70185 0.37858 0.0
C83 C 0.3973 0.90086 0.32136 0.0
O84 O 0.38314 0.8854 0.28065 0.0
O85 O 0.27359 0.77697 0.29347 0.0
C86 C 0.38143 0.71007 0.41272 0.0
O87 O 0.42802 0.75872 0.41422 0.0
C88 C 0.49413 0.71865 0.30114 0.0
O89 O 0.50549 0.71234 0.34307 0.0
O90 O 0.38646 0.85684 0.35082 0.0
C91 C 0.7152 0.73596 0.79889 0.0
O92 O 0.70642 0.72481 0.84072 0.0
O93 O 0.74017 0.96358 0.79448 0.0
Zn94 Zn 0.73069 0.87463 0.82774 0.0
O95 O 0.79953 0.86821 0.87681 0.0
C96 C 0.61498 0.9247 0.87366 0.0
O97 O 0.65879 0.97136 0.88703 0.0
O98 O 0.73132 0.79563 0.78594 0.0
C99 C 0.7799 0.84373 0.9131 0.0
O100 O 0.71678 0.82117 0.91745 0.0
C101 C 0.76607 0.0173 0.81121 0.0
O102 O 0.79278 0.01513 0.85046 0.0
O103 O 0.63589 0.8746 0.85136 0.0
C104 C 0.1161 0.11854 0.01124 0.0
C105 C 0.12298 0.18685 0.02575 0.0
C106 C 0.16035 0.22262 0.95321 0.0
C107 C 0.16433 0.15313 0.94077 0.0
N108 N 0.14838 0.03354 0.95792 0.0
N109 N 0.15501 0.30432 0.01227 0.0
C110 C 0.14181 0.10057 0.96948 0.0
C111 C 0.14552 0.2392 -0.00288 0.0
N112 N 0.08461 0.07118 0.03728 0.0
N113 N 0.16902 0.27267 0.9226 0.0
H114 H 0.14341 0.319 0.04408 0.0
H115 H 0.17892 0.34279 -0.00568 0.0
H116 H 0.17786 0.26185 0.8898 0.0
H117 H 0.16045 0.32422 0.92863 0.0
H118 H 0.07149 0.02216 0.0269 0.0
H119 H 0.06641 0.08277 0.06835 0.0
H120 H 0.14121 -0.0069 0.97949 0.0
H121 H 0.16481 0.01798 0.92728 0.0
C122 C 0.38235 0.58669 0.5082 0.0
C123 C 0.32512 0.61084 0.53184 0.0
C124 C 0.30723 0.70155 0.47832 0.0
C125 C 0.36172 0.67489 0.45321 0.0
N126 N 0.44645 0.58851 0.44033 0.0
N127 N 0.22549 0.68281 0.53643 0.0
C128 C 0.39809 0.61636 0.46703 0.0
C129 C 0.2854 0.66596 0.51608 0.0
N130 N 0.42231 0.53659 0.52565 0.0
N131 N 0.27765 0.76203 0.46672 0.0
H132 H 0.20774 0.65835 0.56446 0.0
H133 H 0.19035 0.71717 0.52367 0.0
H134 H 0.29108 0.78903 0.43866 0.0
H135 H 0.2435 0.78829 0.4865 0.0
H136 H 0.46872 0.52125 0.51234 0.0
H137 H 0.41115 0.51311 0.55535 0.0
H138 H 0.47012 0.54203 0.44632 0.0
H139 H 0.45974 0.60983 0.41032 0.0
C140 C 0.84535 0.88342 0.0267 0.0
C141 C 0.88892 0.82692 0.03293 0.0
C142 C 0.87803 0.79657 0.95566 0.0
C143 C 0.8252 0.84532 0.95167 0.0
N144 N 0.75997 0.93817 0.98156 0.0
N145 N 0.94891 0.72955 0.00413 0.0
C146 C 0.80986 0.89025 0.98656 0.0
C147 C 0.90722 0.7843 -0.00261 0.0
N148 N 0.83891 0.9308 0.05916 0.0
N149 N 0.89941 0.76145 0.91971 0.0
H150 H 0.97357 0.72051 0.03362 0.0
H151 H 0.95679 0.69118 0.98126 0.0
H152 H 0.87751 0.76781 0.88899 0.0
H153 H 0.94222 0.73011 0.9194 0.0
H154 H 0.81263 0.97649 0.05569 0.0
H155 H 0.86537 0.92714 0.08864 0.0
H156 H 0.73984 0.96663 0.0071 0.0
H157 H 0.73673 0.94786 0.95167 0.0
C158 C 0.73129 0.33989 0.44838 0.0
C159 C 0.67981 0.29051 0.43909 0.0
C160 C 0.65087 0.28183 0.51655 0.0
C161 C 0.70276 0.3308 0.52589 0.0
N162 N 0.78037 0.41865 0.50105 0.0
N163 N 0.58008 0.22654 0.46166 0.0
C164 C 0.73907 0.36385 0.4918 0.0
C165 C 0.63608 0.26545 0.47241 0.0
N166 N 0.77515 0.36099 0.41628 0.0
N167 N 0.61847 0.24826 0.54983 0.0
H168 H 0.56806 0.21367 0.42956 0.0
H169 H 0.54233 0.21215 0.48385 0.0
H170 H 0.6269 0.25978 0.58259 0.0
H171 H 0.58636 0.20615 0.54524 0.0
H172 H 0.81891 0.39039 0.42209 0.0
H173 H 0.77045 0.34546 0.3839 0.0
H174 H 0.80335 0.44918 0.47736 0.0
H175 H 0.78646 0.43755 0.53257 0.0
C176 C 0.35218 0.31617 0.26538 0.0
C177 C 0.34299 0.28549 0.22396 0.0
C178 C 0.46523 0.30362 0.20868 0.0
C179 C 0.47644 0.32233 0.25283 0.0
N180 N 0.42909 0.33497 0.32566 0.0
N181 N 0.3928 0.24262 0.15744 0.0
C182 C 0.41954 0.32653 0.28184 0.0
C183 C 0.39993 0.27783 0.19566 0.0
N184 N 0.29654 0.33678 0.28883 0.0
N185 N 0.517 0.31117 0.1791 0.0
H186 H 0.34641 0.2214 0.14708 0.0
H187 H 0.43417 0.2291 0.13793 0.0
H188 H 0.5649 0.33132 0.18751 0.0
H189 H 0.51019 0.30433 0.1457 0.0
H190 H 0.30068 0.36583 0.31719 0.0
H191 H 0.24636 0.33144 0.2775 0.0
H192 H 0.38948 0.32973 0.34819 0.0
H193 H 0.47671 0.34033 0.3405 0.0
C194 C 0.15278 0.81549 0.71046 0.0
C195 C 0.2128 0.77623 0.71753 0.0
C196 C 0.2335 0.83837 0.78545 0.0
C197 C 0.18164 0.88551 0.77406 0.0
N198 N 0.09418 0.92211 0.72397 0.0
N199 N 0.31794 0.76015 0.75795 0.0
C200 C 0.14198 0.8751 0.73593 0.0
C201 C 0.25505 0.78987 0.7542 0.0
N202 N 0.10438 0.79414 0.68113 0.0
N203 N 0.26262 0.83976 0.82592 0.0
H204 H 0.33802 0.72741 0.73452 0.0
H205 H 0.35343 0.77412 0.78181 0.0
H206 H 0.24866 0.87442 0.84991 0.0
H207 H 0.29598 0.80222 0.83695 0.0
H208 H 0.05698 0.8176 0.67763 0.0
H209 H 0.10814 0.74856 0.66376 0.0
H210 H 0.06945 0.92119 0.69386 0.0
H211 H 0.08219 0.96429 0.74322 0.0
C212 C 0.58662 0.6514 0.26484 0.0
C213 C 0.55203 0.71415 0.2703 0.0
C214 C 0.62712 0.76816 0.21625 0.0
C215 C 0.66671 0.70796 0.21469 0.0
N216 N 0.69089 0.5952 0.24244 0.0
N217 N 0.54769 0.83585 0.25773 0.0
C218 C 0.64814 0.65006 0.24011 0.0
C219 C 0.57431 0.77353 0.24764 0.0
N220 N 0.55991 0.5929 0.2825 0.0
N221 N 0.63868 0.81953 0.18692 0.0
H222 H 0.51044 0.84234 0.28151 0.0
H223 H 0.56737 0.88175 0.24576 0.0
H224 H 0.67627 0.81701 0.16285 0.0
H225 H 0.60663 0.86152 0.18369 0.0
H226 H 0.57877 0.54444 0.27575 0.0
H227 H 0.51501 0.59218 0.30093 0.0
H228 H 0.68359 0.55483 0.26407 0.0
H229 H 0.73714 0.5926 0.22558 0.0
C230 C 0.81875 0.18152 0.75342 0.0
C231 C 0.7538 0.21271 0.74743 0.0
C232 C 0.69699 0.11566 0.7832 0.0
C233 C 0.76157 0.08344 0.78793 0.0
N234 N 0.88237 0.07957 0.77257 0.0
N235 N 0.63041 0.20735 0.75175 0.0
C236 C 0.82214 0.11488 0.77186 0.0
C237 C 0.69269 0.17888 0.76063 0.0
N238 N 0.87719 0.21552 0.74123 0.0
N239 N 0.64018 0.08747 0.80229 0.0
H240 H 0.62481 0.25617 0.73878 0.0
H241 H 0.58395 0.18139 0.755 0.0
H242 H 0.64097 0.04091 0.81847 0.0
H243 H 0.59323 0.1119 0.80489 0.0
H244 H 0.92631 0.20018 0.74978 0.0
H245 H 0.87694 0.26121 0.72382 0.0
H246 H 0.9272 0.09597 0.75739 0.0
H247 H 0.88657 0.0307 0.78579 0.0
C248 C 0.86323 0.12001 0.22565 0.0
C249 C 0.84364 0.18523 0.24168 0.0
C250 C 0.96491 0.21603 0.24875 0.0
C251 C 0.9827 0.16066 0.22136 0.0
N252 N 0.95152 0.05041 0.19248 0.0
N253 N 0.87782 0.29869 0.26507 0.0
C254 C 0.93255 0.10941 0.21267 0.0
C255 C 0.89504 0.23401 0.25278 0.0
N256 N 0.81659 0.06753 0.22484 0.0
N257 N 0.01401 0.24969 0.27227 0.0
H258 H 0.82741 0.31572 0.26637 0.0
H259 H 0.91419 0.33737 0.26953 0.0
H260 H 0.06416 0.232 0.27445 0.0
H261 H 0.00254 0.28799 0.29464 0.0
H262 H 0.82897 0.01738 0.21711 0.0
H263 H 0.76646 0.07255 0.23602 0.0
H264 H 0.91682 0.01548 0.1792 0.0
H265 H 0.00284 0.03683 0.18905 0.0
C266 C 0.3116 0.36904 0.73905 0.0
C267 C 0.29455 0.37823 0.69456 0.0
C268 C 0.23664 0.26654 0.69396 0.0
C269 C 0.24502 0.2623 0.73975 0.0
N270 N 0.28284 0.31385 0.80725 0.0
N271 N 0.23136 0.33997 0.63093 0.0
C272 C 0.28093 0.31448 0.76271 0.0
C273 C 0.255 0.32792 0.67214 0.0
N274 N 0.35799 0.41204 0.75845 0.0
N275 N 0.21313 0.21123 0.67103 0.0
H276 H 0.24303 0.38385 0.61323 0.0
H277 H 0.1952 0.3088 0.61553 0.0
H278 H 0.19996 0.16494 0.68572 0.0
H279 H 0.21313 0.20906 0.63711 0.0
H280 H 0.37764 0.4041 0.78959 0.0
H281 H 0.38202 0.45196 0.7417 0.0
H282 H 0.30184 0.35432 0.82582 0.0
H283 H 0.25972 0.2757 0.82595 0.0
C284 C 0.13757 0.75558 0.25386 0.0
C285 C 0.15762 0.80926 0.28223 0.0
C286 C 0.05959 0.87668 0.25719 0.0
C287 C 0.04461 0.82573 0.22565 0.0
N288 N 0.08378 0.72754 0.18541 0.0
N289 N 0.14646 0.92766 0.30356 0.0
C290 C 0.08801 0.76841 0.22139 0.0
C291 C 0.12116 0.87192 0.2819 0.0
N292 N 0.16341 0.6914 0.25892 0.0
N293 N 0.01411 0.92792 0.26492 0.0
H294 H 0.1924 0.92716 0.32089 0.0
H295 H 0.12538 0.97616 0.30065 0.0
H296 H 0.9679 0.93236 0.24814 0.0
H297 H 0.01948 0.96237 0.2906 0.0
H298 H 0.14516 0.64941 0.24136 0.0
H299 H 0.19696 0.67842 0.284 0.0
H300 H 0.118 0.6881 0.17927 0.0
H301 H 0.05173 0.73867 0.15923 0.0
C302 C 0.72888 0.6241 0.69793 0.0
C303 C 0.67547 0.57576 0.7053 0.0
C304 C 0.64034 0.64061 0.76967 0.0
C305 C 0.70125 0.68087 0.76665 0.0
N306 N 0.81049 0.70099 0.73172 0.0
N307 N 0.58245 0.53492 0.7501 0.0
C308 C 0.74734 0.67022 0.73167 0.0
C309 C 0.63195 0.58295 0.7419 0.0
N310 N 0.7622 0.62638 0.65886 0.0
N311 N 0.58876 0.65945 0.79714 0.0
H312 H 0.57189 0.49447 0.72891 0.0
H313 H 0.55465 0.53324 0.77905 0.0
H314 H 0.59061 0.70379 0.81592 0.0
H315 H 0.54093 0.63544 0.7976 0.0
H316 H 0.79745 0.66458 0.6508 0.0
H317 H 0.74921 0.59512 0.63272 0.0
H318 H 0.8484 0.68964 0.70903 0.0
H319 H 0.82801 0.73199 0.75708 0.0
C320 C 0.95969 0.51152 0.09763 0.0
C321 C 0.95695 0.55282 0.13548 0.0
C322 C 0.00081 0.45936 0.17996 0.0
C323 C 0.00937 0.42027 0.14157 0.0
N324 N 0.0048 0.40982 0.06335 0.0
N325 N 0.98699 0.57186 0.211 0.0
C326 C 0.99102 0.4465 0.10017 0.0
C327 C 0.98039 0.5283 0.17633 0.0
N328 N 0.93052 0.53372 0.0597 0.0
N329 N 0.01179 0.43045 0.21991 0.0
H330 H 0.97408 0.62337 0.20964 0.0
H331 H 0.01126 0.55869 0.24001 0.0
H332 H 0.02914 0.3806 0.22391 0.0
H333 H -0.0014 0.45396 0.24914 0.0
H334 H 0.92455 0.50325 0.03214 0.0
H335 H 0.90717 0.58125 0.05676 0.0
H336 H -9e-05 0.42928 0.03195 0.0
H337 H 0.02563 0.36102 0.0642 0.0
C338 C 0.96976 0.45647 0.60937 0.0
C339 C 0.91692 0.47652 0.63802 0.0
C340 C -0.00378 0.55138 0.6773 0.0
C341 C 0.05091 0.52422 0.65267 0.0
N342 N 0.09179 0.44414 0.59878 0.0
N343 N 0.8804 0.53496 0.70319 0.0
C344 C 0.03836 0.47541 0.61925 0.0
C345 C 0.93017 0.52186 0.67308 0.0
N346 N 0.95433 0.4194 0.57285 0.0
N347 N 0.00701 0.60678 0.70366 0.0
H348 H 0.83104 0.51444 0.7012 0.0
H349 H 0.88964 0.56159 0.73202 0.0
H350 H 0.05454 0.63123 0.70643 0.0
H351 H 0.96759 0.63273 0.7192 0.0
H352 H 0.98971 0.40945 0.54832 0.0
H353 H 0.90463 0.40319 0.56537 0.0
H354 H 0.08568 0.40265 0.57786 0.0
H355 H 0.14292 0.45569 0.60536 0.0
C356 C 0.52884 0.03146 0.36093 0.0
C357 C 0.50708 0.08915 0.33706 0.0
C358 C 0.40403 0.02717 0.31408 0.0
C359 C 0.43169 0.96635 0.33145 0.0
N360 N 0.52677 0.90862 0.36629 0.0
N361 N 0.42925 0.13873 0.28461 0.0
C362 C 0.49548 0.9678 0.354 0.0
C363 C 0.44569 0.08658 0.31221 0.0
N364 N 0.5807 0.0377 0.39067 0.0
N365 N 0.33766 0.02839 0.29983 0.0
H366 H 0.46013 0.18178 0.28033 0.0
H367 H 0.38865 0.13606 0.26257 0.0
H368 H 0.30513 0.98594 0.30166 0.0
H369 H 0.31299 0.07313 0.29063 0.0
H370 H 0.59402 -0.00122 0.41214 0.0
H371 H 0.60562 0.08401 0.39694 0.0
H372 H 0.57677 0.90719 0.37817 0.0
H373 H 0.50605 0.86021 0.36098 0.0
C374 C 0.4406 0.97882 0.91505 0.0
C375 C 0.40275 0.9774 0.8756 0.0
C376 C 0.50371 0.94157 0.83529 0.0
C377 C 0.54112 0.93901 0.87497 0.0
N378 N 0.54243 0.94166 0.95352 0.0
N379 N 0.39253 0.93808 0.80119 0.0
C380 C 0.50867 0.95342 0.91525 0.0
C381 C 0.43246 0.95223 0.83677 0.0
N382 N 0.41289 0.00725 0.9516 0.0
N383 N 0.53638 0.93898 0.79588 0.0
H384 H 0.33978 0.94572 0.80062 0.0
H385 H 0.41069 0.91227 0.77388 0.0
H386 H 0.58923 0.93504 0.79229 0.0
H387 H 0.51166 0.94855 0.76641 0.0
H388 H 0.4408 0.01664 0.97995 0.0
H389 H 0.36304 0.02595 0.95264 0.0
H390 H 0.51919 0.94506 0.98396 0.0
H391 H 0.59215 0.92252 0.95468 0.0
loop_
_geom_bond_atom_site_label_1
_geom_bond_atom_site_label_2
_geom_bond_distance
_geom_bond_site_symmetry_2
_ccdc_geom_bond_type
C0 O1 1.160 . S
C0 O7 1.185 . S
O1 C0 1.160 . S
O2 Zn3 1.899 . S
O2 C10 1.284 . S
Zn3 O2 1.899 . S
Zn3 O4 2.032 . S
Zn3 O7 2.086 . S
Zn3 O12 1.977 . S
O4 Zn3 2.032 . S
O4 C8 1.278 . S
C5 O6 1.203 1_455 S
C5 O12 1.267 . S
O6 C5 1.203 1_655 S
O7 C0 1.185 . S
O7 Zn3 2.086 . S
C8 O4 1.278 . S
C8 O9 1.211 . S
O9 C8 1.211 . S
C10 O2 1.284 . S
C10 O11 1.273 1_455 S
O11 C10 1.273 1_655 S
O12 Zn3 1.977 . S
O12 C5 1.267 . S
C13 O14 1.160 . S
C13 O20 1.185 . S
O14 C13 1.160 . S
O15 Zn16 1.899 . S
O15 C23 1.284 . S
Zn16 O15 1.899 . S
Zn16 O17 2.032 . S
Zn16 O20 2.086 . S
Zn16 O25 1.977 . S
O17 Zn16 2.032 . S
O17 C21 1.278 . S
C18 O19 1.203 . S
C18 O25 1.267 . S
O19 C18 1.203 . S
O20 C13 1.185 . S
O20 Zn16 2.086 . S
C21 O17 1.278 . S
C21 O22 1.211 . S
O22 C21 1.211 . S
C23 O15 1.284 . S
C23 O24 1.273 . S
O24 C23 1.273 . S
O25 Zn16 1.977 . S
O25 C18 1.267 . S
C26 O27 1.160 . S
C26 O33 1.185 . S
O27 C26 1.160 . S
O28 Zn29 1.899 . S
O28 C36 1.284 . S
Zn29 O28 1.899 . S
Zn29 O30 2.032 . S
Zn29 O33 2.086 . S
Zn29 O38 1.977 . S
O30 Zn29 2.032 . S
O30 C34 1.278 . S
C31 O32 1.203 1_655 S
C31 O38 1.267 . S
O32 C31 1.203 1_455 S
O33 C26 1.185 . S
O33 Zn29 2.086 . S
C34 O30 1.278 . S
C34 O35 1.211 . S
O35 C34 1.211 . S
C36 O28 1.284 . S
C36 O37 1.273 1_655 S
O37 C36 1.273 1_455 S
O38 Zn29 1.977 . S
O38 C31 1.267 . S
C39 O40 1.160 . S
C39 O46 1.185 . S
O40 C39 1.160 . S
O41 Zn42 1.899 . S
O41 C49 1.284 . S
Zn42 O41 1.899 . S
Zn42 O43 2.032 . S
Zn42 O46 2.086 . S
Zn42 O51 1.977 . S
O43 Zn42 2.032 . S
O43 C47 1.278 . S
C44 O45 1.203 . S
C44 O51 1.267 . S
O45 C44 1.203 . S
O46 C39 1.185 . S
O46 Zn42 2.086 . S
C47 O43 1.278 . S
C47 O48 1.211 . S
O48 C47 1.211 . S
C49 O41 1.284 . S
C49 O50 1.273 . S
O50 C49 1.273 . S
O51 Zn42 1.977 . S
O51 C44 1.267 . S
C52 O53 1.160 . S
C52 O59 1.185 . S
O53 C52 1.160 . S
O54 Zn55 1.899 . S
O54 C62 1.284 . S
Zn55 O54 1.899 . S
Zn55 O56 2.032 . S
Zn55 O59 2.086 . S
Zn55 O64 1.977 . S
O56 Zn55 2.032 . S
O56 C60 1.278 . S
C57 O58 1.203 . S
C57 O64 1.267 . S
O58 C57 1.203 . S
O59 C52 1.185 . S
O59 Zn55 2.086 . S
C60 O56 1.278 . S
C60 O61 1.211 . S
O61 C60 1.211 . S
C62 O54 1.284 . S
C62 O63 1.273 . S
O63 C62 1.273 . S
O64 Zn55 1.977 . S
O64 C57 1.267 . S
C65 O66 1.160 . S
C65 O72 1.185 . S
O66 C65 1.160 . S
O67 Zn68 1.899 . S
O67 C75 1.284 . S
Zn68 O67 1.899 . S
Zn68 O69 2.032 . S
Zn68 O72 2.086 . S
Zn68 O77 1.977 . S
O69 Zn68 2.032 . S
O69 C73 1.278 . S
C70 O71 1.203 1_545 S
C70 O77 1.267 . S
O71 C70 1.203 1_565 S
O72 C65 1.185 . S
O72 Zn68 2.086 . S
C73 O69 1.278 . S
C73 O74 1.211 . S
O74 C73 1.211 . S
C75 O67 1.284 . S
C75 O76 1.273 1_545 S
O76 C75 1.273 1_565 S
O77 Zn68 1.977 . S
O77 C70 1.267 . S
C78 O79 1.160 . S
C78 O85 1.185 . S
O79 C78 1.160 . S
O80 Zn81 1.899 . S
O80 C88 1.284 . S
Zn81 O80 1.899 . S
Zn81 O82 2.032 . S
Zn81 O85 2.086 . S
Zn81 O90 1.977 . S
O82 Zn81 2.032 . S
O82 C86 1.278 . S
C83 O84 1.203 . S
C83 O90 1.267 . S
O84 C83 1.203 . S
O85 C78 1.185 . S
O85 Zn81 2.086 . S
C86 O82 1.278 . S
C86 O87 1.211 . S
O87 C86 1.211 . S
C88 O80 1.284 . S
C88 O89 1.273 . S
O89 C88 1.273 . S
O90 Zn81 1.977 . S
O90 C83 1.267 . S
C91 O92 1.160 . S
C91 O98 1.185 . S
O92 C91 1.160 . S
O93 Zn94 1.899 . S
O93 C101 1.284 . S
Zn94 O93 1.899 . S
Zn94 O95 2.032 . S
Zn94 O98 2.086 . S
Zn94 O103 1.977 . S
O95 Zn94 2.032 . S
O95 C99 1.278 . S
C96 O97 1.203 1_565 S
C96 O103 1.267 . S
O97 C96 1.203 1_545 S
O98 C91 1.185 . S
O98 Zn94 2.086 . S
C99 O95 1.278 . S
C99 O100 1.211 . S
O100 C99 1.211 . S
C101 O93 1.284 . S
C101 O102 1.273 1_565 S
O102 C101 1.273 1_545 S
O103 Zn94 1.977 . S
O103 C96 1.267 . S
C104 C105 1.363 . S
C104 C110 1.379 1_554 S
C104 N112 1.356 . S
C105 C104 1.363 . S
C105 C111 1.363 . S
C106 C107 1.363 . S
C106 C111 1.379 1_556 S
C106 N113 1.356 . S
C107 C106 1.363 . S
C107 C110 1.363 . S
N108 C110 1.356 . S
N108 H120 0.984 . S
N108 H121 0.985 . S
N109 C111 1.356 . S
N109 H114 0.984 . S
N109 H115 0.985 . S
C110 C104 1.379 1_556 S
C110 C107 1.363 . S
C110 N108 1.356 . S
C111 C105 1.363 . S
C111 C106 1.379 1_554 S
C111 N109 1.356 . S
N112 C104 1.356 . S
N112 H118 0.984 . S
N112 H119 0.984 . S
N113 C106 1.356 . S
N113 H116 0.984 . S
N113 H117 0.985 . S
H114 N109 0.984 . S
H115 N109 0.985 . S
H116 N113 0.984 . S
H117 N113 0.985 . S
H118 N112 0.984 . S
H119 N112 0.984 . S
H120 N108 0.984 . S
H121 N108 0.985 . S
C122 C123 1.363 . S
C122 C128 1.379 . S
C122 N130 1.356 . S
C123 C122 1.363 . S
C123 C129 1.363 . S
C124 C125 1.363 . S
C124 C129 1.379 . S
C124 N131 1.356 . S
C125 C124 1.363 . S
C125 C128 1.363 . S
N126 C128 1.356 . S
N126 H138 0.984 . S
N126 H139 0.985 . S
N127 C129 1.356 . S
N127 H132 0.984 . S
N127 H133 0.985 . S
C128 C122 1.379 . S
C128 C125 1.363 . S
C128 N126 1.356 . S
C129 C123 1.363 . S
C129 C124 1.379 . S
C129 N127 1.356 . S
N130 C122 1.356 . S
N130 H136 0.984 . S
N130 H137 0.984 . S
N131 C124 1.356 . S
N131 H134 0.984 . S
N131 H135 0.985 . S
H132 N127 0.984 . S
H133 N127 0.985 . S
H134 N131 0.984 . S
H135 N131 0.985 . S
H136 N130 0.984 . S
H137 N130 0.984 . S
H138 N126 0.984 . S
H139 N126 0.985 . S
C140 C141 1.363 . S
C140 C146 1.379 1_554 S
C140 N148 1.356 . S
C141 C140 1.363 . S
C141 C147 1.363 . S
C142 C143 1.363 . S
C142 C147 1.379 1_556 S
C142 N149 1.356 . S
C143 C142 1.363 . S
C143 C146 1.363 . S
N144 C146 1.356 . S
N144 H156 0.984 . S
N144 H157 0.985 . S
N145 C147 1.356 . S
N145 H150 0.984 . S
N145 H151 0.985 . S
C146 C140 1.379 1_556 S
C146 C143 1.363 . S
C146 N144 1.356 . S
C147 C141 1.363 . S
C147 C142 1.379 1_554 S
C147 N145 1.356 . S
N148 C140 1.356 . S
N148 H154 0.984 . S
N148 H155 0.984 . S
N149 C142 1.356 . S
N149 H152 0.984 . S
N149 H153 0.985 . S
H150 N145 0.984 . S
H151 N145 0.985 . S
H152 N149 0.984 . S
H153 N149 0.985 . S
H154 N148 0.984 . S
H155 N148 0.984 . S
H156 N144 0.984 . S
H157 N144 0.985 . S
C158 C159 1.363 . S
C158 C164 1.379 . S
C158 N166 1.356 . S
C159 C158 1.363 . S
C159 C165 1.363 . S
C160 C161 1.363 . S
C160 C165 1.379 . S
C160 N167 1.356 . S
C161 C160 1.363 . S
C161 C164 1.363 . S
N162 C164 1.356 . S
N162 H174 0.984 . S
N162 H175 0.985 . S
N163 C165 1.356 . S
N163 H168 0.984 . S
N163 H169 0.985 . S
C164 C158 1.379 . S
C164 C161 1.363 . S
C164 N162 1.356 . S
C165 C159 1.363 . S
C165 C160 1.379 . S
C165 N163 1.356 . S
N166 C158 1.356 . S
N166 H172 0.984 . S
N166 H173 0.984 . S
N167 C160 1.356 . S
N167 H170 0.984 . S
N167 H171 0.985 . S
H168 N163 0.984 . S
H169 N163 0.985 . S
H170 N167 0.984 . S
H171 N167 0.985 . S
H172 N166 0.984 . S
H173 N166 0.984 . S
H174 N162 0.984 . S
H175 N162 0.985 . S
C176 C177 1.363 . S
C176 C182 1.379 . S
C176 N184 1.356 . S
C177 C176 1.363 . S
C177 C183 1.363 . S
C178 C179 1.363 . S
C178 C183 1.379 . S
C178 N185 1.356 . S
C179 C178 1.363 . S
C179 C182 1.363 . S
N180 C182 1.356 . S
N180 H192 0.984 . S
N180 H193 0.985 . S
N181 C183 1.356 . S
N181 H186 0.984 . S
N181 H187 0.985 . S
C182 C176 1.379 . S
C182 C179 1.363 . S
C182 N180 1.356 . S
C183 C177 1.363 . S
C183 C178 1.379 . S
C183 N181 1.356 . S
N184 C176 1.356 . S
N184 H190 0.984 . S
N184 H191 0.984 . S
N185 C178 1.356 . S
N185 H188 0.984 . S
N185 H189 0.985 . S
H186 N181 0.984 . S
H187 N181 0.985 . S
H188 N185 0.984 . S
H189 N185 0.985 . S
H190 N184 0.984 . S
H191 N184 0.984 . S
H192 N180 0.984 . S
H193 N180 0.985 . S
C194 C195 1.363 . S
C194 C200 1.379 . S
C194 N202 1.356 . S
C195 C194 1.363 . S
C195 C201 1.363 . S
C196 C197 1.363 . S
C196 C201 1.379 . S
C196 N203 1.356 . S
C197 C196 1.363 . S
C197 C200 1.363 . S
N198 C200 1.356 1_545 S
N198 H210 0.984 . S
N198 H211 0.985 . S
N199 C201 1.356 . S
N199 H204 0.984 . S
N199 H205 0.985 . S
C200 C194 1.379 . S
C200 C197 1.363 . S
C200 N198 1.356 1_565 S
C201 C195 1.363 . S
C201 C196 1.379 . S
C201 N199 1.356 . S
N202 C194 1.356 . S
N202 H208 0.984 . S
N202 H209 0.984 . S
N203 C196 1.356 . S
N203 H206 0.984 . S
N203 H207 0.985 . S
H204 N199 0.984 . S
H205 N199 0.985 . S
H206 N203 0.984 . S
H207 N203 0.985 . S
H208 N202 0.984 . S
H209 N202 0.984 . S
H210 N198 0.984 . S
H211 N198 0.985 . S
C212 C213 1.363 . S
C212 C218 1.379 . S
C212 N220 1.356 . S
C213 C212 1.363 . S
C213 C219 1.363 . S
C214 C215 1.363 . S
C214 C219 1.379 . S
C214 N221 1.356 . S
C215 C214 1.363 . S
C215 C218 1.363 . S
N216 C218 1.356 . S
N216 H228 0.984 . S
N216 H229 0.985 . S
N217 C219 1.356 . S
N217 H222 0.984 . S
N217 H223 0.985 . S
C218 C212 1.379 . S
C218 C215 1.363 . S
C218 N216 1.356 . S
C219 C213 1.363 . S
C219 C214 1.379 . S
C219 N217 1.356 . S
N220 C212 1.356 . S
N220 H226 0.984 . S
N220 H227 0.984 . S
N221 C214 1.356 . S
N221 H224 0.984 . S
N221 H225 0.985 . S
H222 N217 0.984 . S
H223 N217 0.985 . S
H224 N221 0.984 . S
H225 N221 0.985 . S
H226 N220 0.984 . S
H227 N220 0.984 . S
H228 N216 0.984 . S
H229 N216 0.985 . S
C230 C231 1.363 . S
C230 C236 1.379 . S
C230 N238 1.356 . S
C231 C230 1.363 . S
C231 C237 1.363 . S
C232 C233 1.363 . S
C232 C237 1.379 . S
C232 N239 1.356 . S
C233 C232 1.363 . S
C233 C236 1.363 . S
N234 C236 1.356 . S
N234 H246 0.984 . S
N234 H247 0.985 . S
N235 C237 1.356 . S
N235 H240 0.984 . S
N235 H241 0.985 . S
C236 C230 1.379 . S
C236 C233 1.363 . S
C236 N234 1.356 . S
C237 C231 1.363 . S
C237 C232 1.379 . S
C237 N235 1.356 . S
N238 C230 1.356 . S
N238 H244 0.984 . S
N238 H245 0.984 . S
N239 C232 1.356 . S
N239 H242 0.984 1_545 S
N239 H243 0.985 1_545 S
H240 N235 0.984 . S
H241 N235 0.985 . S
H242 N239 0.984 1_565 S
H243 N239 0.985 1_565 S
H244 N238 0.984 . S
H245 N238 0.984 . S
H246 N234 0.984 . S
H247 N234 0.985 . S
C248 C249 1.363 . S
C248 C254 1.379 . S
C248 N256 1.356 . S
C249 C248 1.363 . S
C249 C255 1.363 . S
C250 C251 1.363 . S
C250 C255 1.379 . S
C250 N257 1.356 . S
C251 C250 1.363 . S
C251 C254 1.363 . S
N252 C254 1.356 . S
N252 H264 0.984 . S
N252 H265 0.985 . S
N253 C255 1.356 . S
N253 H258 0.984 . S
N253 H259 0.985 . S
C254 C248 1.379 . S
C254 C251 1.363 . S
C254 N252 1.356 . S
C255 C249 1.363 . S
C255 C250 1.379 . S
C255 N253 1.356 . S
N256 C248 1.356 . S
N256 H262 0.984 . S
N256 H263 0.984 . S
N257 C250 1.356 . S
N257 H260 0.984 1_655 S
N257 H261 0.985 . S
H258 N253 0.984 . S
H259 N253 0.985 . S
H260 N257 0.984 1_455 S
H261 N257 0.985 . S
H262 N256 0.984 . S
H263 N256 0.984 . S
H264 N252 0.984 . S
H265 N252 0.985 . S
C266 C267 1.363 . S
C266 C272 1.379 . S
C266 N274 1.356 . S
C267 C266 1.363 . S
C267 C273 1.363 . S
C268 C269 1.363 . S
C268 C273 1.379 . S
C268 N275 1.356 . S
C269 C268 1.363 . S
C269 C272 1.363 . S
N270 C272 1.356 . S
N270 H282 0.984 . S
N270 H283 0.985 . S
N271 C273 1.356 . S
N271 H276 0.984 . S
N271 H277 0.985 . S
C272 C266 1.379 . S
C272 C269 1.363 . S
C272 N270 1.356 . S
C273 C267 1.363 . S
C273 C268 1.379 . S
C273 N271 1.356 . S
N274 C266 1.356 . S
N274 H280 0.984 . S
N274 H281 0.984 . S
N275 C268 1.356 . S
N275 H278 0.984 . S
N275 H279 0.985 . S
H276 N271 0.984 . S
H277 N271 0.985 . S
H278 N275 0.984 . S
H279 N275 0.985 . S
H280 N274 0.984 . S
H281 N274 0.984 . S
H282 N270 0.984 . S
H283 N270 0.985 . S
C284 C285 1.363 . S
C284 C290 1.379 . S
C284 N292 1.356 . S
C285 C284 1.363 . S
C285 C291 1.363 . S
C286 C287 1.363 . S
C286 C291 1.379 . S
C286 N293 1.356 . S
C287 C286 1.363 . S
C287 C290 1.363 . S
N288 C290 1.356 . S
N288 H300 0.984 . S
N288 H301 0.985 . S
N289 C291 1.356 . S
N289 H294 0.984 . S
N289 H295 0.985 . S
C290 C284 1.379 . S
C290 C287 1.363 . S
C290 N288 1.356 . S
C291 C285 1.363 . S
C291 C286 1.379 . S
C291 N289 1.356 . S
N292 C284 1.356 . S
N292 H298 0.984 . S
N292 H299 0.984 . S
N293 C286 1.356 . S
N293 H296 0.984 1_455 S
N293 H297 0.985 . S
H294 N289 0.984 . S
H295 N289 0.985 . S
H296 N293 0.984 1_655 S
H297 N293 0.985 . S
H298 N292 0.984 . S
H299 N292 0.984 . S
H300 N288 0.984 . S
H301 N288 0.985 . S
C302 C303 1.363 . S
C302 C308 1.379 . S
C302 N310 1.356 . S
C303 C302 1.363 . S
C303 C309 1.363 . S
C304 C305 1.363 . S
C304 C309 1.379 . S
C304 N311 1.356 . S
C305 C304 1.363 . S
C305 C308 1.363 . S
N306 C308 1.356 . S
N306 H318 0.984 . S
N306 H319 0.985 . S
N307 C309 1.356 . S
N307 H312 0.984 . S
N307 H313 0.985 . S
C308 C302 1.379 . S
C308 C305 1.363 . S
C308 N306 1.356 . S
C309 C303 1.363 . S
C309 C304 1.379 . S
C309 N307 1.356 . S
N310 C302 1.356 . S
N310 H316 0.984 . S
N310 H317 0.984 . S
N311 C304 1.356 . S
N311 H314 0.984 . S
N311 H315 0.985 . S
H312 N307 0.984 . S
H313 N307 0.985 . S
H314 N311 0.984 . S
H315 N311 0.985 . S
H316 N310 0.984 . S
H317 N310 0.984 . S
H318 N306 0.984 . S
H319 N306 0.985 . S
C320 C321 1.363 . S
C320 C326 1.379 . S
C320 N328 1.356 . S
C321 C320 1.363 . S
C321 C327 1.363 1_655 S
C322 C323 1.363 . S
C322 C327 1.379 . S
C322 N329 1.356 . S
C323 C322 1.363 . S
C323 C326 1.363 1_455 S
N324 C326 1.356 1_455 S
N324 H336 0.984 1_455 S
N324 H337 0.985 . S
N325 C327 1.356 1_655 S
N325 H330 0.984 . S
N325 H331 0.985 1_655 S
C326 C320 1.379 . S
C326 C323 1.363 1_655 S
C326 N324 1.356 1_655 S
C327 C321 1.363 1_455 S
C327 C322 1.379 . S
C327 N325 1.356 1_455 S
N328 C320 1.356 . S
N328 H334 0.984 . S
N328 H335 0.984 . S
N329 C322 1.356 . S
N329 H332 0.984 . S
N329 H333 0.985 . S
H330 N325 0.984 . S
H331 N325 0.985 1_455 S
H332 N329 0.984 . S
H333 N329 0.985 . S
H334 N328 0.984 . S
H335 N328 0.984 . S
H336 N324 0.984 1_655 S
H337 N324 0.985 . S
C338 C339 1.363 . S
C338 C344 1.379 1_655 S
C338 N346 1.356 . S
C339 C338 1.363 . S
C339 C345 1.363 . S
C340 C341 1.363 . S
C340 C345 1.379 1_455 S
C340 N347 1.356 . S
C341 C340 1.363 . S
C341 C344 1.363 . S
N342 C344 1.356 . S
N342 H354 0.984 . S
N342 H355 0.985 . S
N343 C345 1.356 . S
N343 H348 0.984 . S
N343 H349 0.985 . S
C344 C338 1.379 1_455 S
C344 C341 1.363 . S
C344 N342 1.356 . S
C345 C339 1.363 . S
C345 C340 1.379 1_655 S
C345 N343 1.356 . S
N346 C338 1.356 . S
N346 H352 0.984 1_655 S
N346 H353 0.984 . S
N347 C340 1.356 . S
N347 H350 0.984 . S
N347 H351 0.985 1_455 S
H348 N343 0.984 . S
H349 N343 0.985 . S
H350 N347 0.984 . S
H351 N347 0.985 1_655 S
H352 N346 0.984 1_455 S
H353 N346 0.984 . S
H354 N342 0.984 . S
H355 N342 0.985 . S
C356 C357 1.363 . S
C356 C362 1.379 1_545 S
C356 N364 1.356 . S
C357 C356 1.363 . S
C357 C363 1.363 . S
C358 C359 1.363 . S
C358 C363 1.379 1_565 S
C358 N365 1.356 . S
C359 C358 1.363 . S
C359 C362 1.363 . S
N360 C362 1.356 . S
N360 H372 0.984 . S
N360 H373 0.985 . S
N361 C363 1.356 . S
N361 H366 0.984 . S
N361 H367 0.985 . S
C362 C356 1.379 1_565 S
C362 C359 1.363 . S
C362 N360 1.356 . S
C363 C357 1.363 . S
C363 C358 1.379 1_545 S
C363 N361 1.356 . S
N364 C356 1.356 . S
N364 H370 0.984 1_545 S
N364 H371 0.984 . S
N365 C358 1.356 . S
N365 H368 0.984 . S
N365 H369 0.985 1_565 S
H366 N361 0.984 . S
H367 N361 0.985 . S
H368 N365 0.984 . S
H369 N365 0.985 1_545 S
H370 N364 0.984 1_565 S
H371 N364 0.984 . S
H372 N360 0.984 . S
H373 N360 0.985 . S
C374 C375 1.363 . S
C374 C380 1.379 . S
C374 N382 1.356 . S
C375 C374 1.363 . S
C375 C381 1.363 1_545 S
C376 C377 1.363 . S
C376 C381 1.379 . S
C376 N383 1.356 . S
C377 C376 1.363 . S
C377 C380 1.363 1_565 S
N378 C380 1.356 1_565 S
N378 H390 0.984 1_565 S
N378 H391 0.985 . S
N379 C381 1.356 1_545 S
N379 H384 0.984 . S
N379 H385 0.985 1_545 S
C380 C374 1.379 . S
C380 C377 1.363 1_545 S
C380 N378 1.356 1_545 S
C381 C375 1.363 1_565 S
C381 C376 1.379 . S
C381 N379 1.356 1_565 S
N382 C374 1.356 . S
N382 H388 0.984 . S
N382 H389 0.984 . S
N383 C376 1.356 . S
N383 H386 0.984 . S
N383 H387 0.985 . S
H384 N379 0.984 . S
H385 N379 0.985 1_565 S
H386 N383 0.984 . S
H387 N383 0.985 . S
H388 N382 0.984 . S
H389 N382 0.984 . S
H390 N378 0.984 1_545 S
H391 N378 0.985 . S
C105 C8 1.328 . S
C107 C73 1.328 . S
C123 C21 1.328 . S
C125 C86 1.328 . S
C141 C34 1.328 . S
C143 C99 1.328 . S
C159 C60 1.328 . S
C161 C47 1.328 . S
C177 C0 1.637 . S
C179 C62 1.596 . S
C195 C13 1.637 . S
C197 C75 1.597 1_565 S
C213 C88 1.596 . S
C215 C26 1.637 . S
C231 C39 1.637 . S
C233 C101 1.597 1_545 S
C249 C52 1.637 . S
C251 C10 1.597 1_655 S
C267 C23 1.596 . S
C269 C65 1.637 . S
C285 C78 1.637 . S
C287 C36 1.597 1_455 S
C303 C49 1.596 . S
C305 C91 1.637 . S
C321 C31 0.835 . S
C323 C5 0.835 . S
C339 C44 0.835 . S
C341 C18 0.835 . S
C357 C57 0.835 . S
C359 C83 0.835 . S
C375 C70 0.835 . S
C377 C96 0.835 . S
