# Generated by pormake.
# Topology uke, (4)-cn, num edge types: 1
# Building blocks:
#     Node 0, Type 0, BuildingBlock: KUFVIS_clean_sbu_0, # of connection points: 4
#     Node 1, Type 0, BuildingBlock: KUFVIS_clean_sbu_0, # of connection points: 4
#     Node 2, Type 0, BuildingBlock: KUFVIS_clean_sbu_0, # of connection points: 4
#     Node 3, Type 0, BuildingBlock: KUFVIS_clean_sbu_0, # of connection points: 4
#     Node 4, Type 0, BuildingBlock: KUFVIS_clean_sbu_0, # of connection points: 4
#     Node 5, Type 0, BuildingBlock: KUFVIS_clean_sbu_0, # of connection points: 4
#     Node 6, Type 0, BuildingBlock: KUFVIS_clean_sbu_0, # of connection points: 4
#     Node 7, Type 0, BuildingBlock: KUFVIS_clean_sbu_0, # of connection points: 4
#     Node 8, Type 0, BuildingBlock: KUFVIS_clean_sbu_0, # of connection points: 4
#     Node 9, Type 0, BuildingBlock: KUFVIS_clean_sbu_0, # of connection points: 4
#     Node 10, Type 0, BuildingBlock: KUFVIS_clean_sbu_0, # of connection points: 4
#     Node 11, Type 0, BuildingBlock: KUFVIS_clean_sbu_0, # of connection points: 4
#     Node 12, Type 0, BuildingBlock: KUFVIS_clean_sbu_0, # of connection points: 4
#     Node 13, Type 0, BuildingBlock: KUFVIS_clean_sbu_0, # of connection points: 4
#     Node 14, Type 0, BuildingBlock: KUFVIS_clean_sbu_0, # of connection points: 4
#     Node 15, Type 0, BuildingBlock: KUFVIS_clean_sbu_0, # of connection points: 4
#     Node 16, Type 0, BuildingBlock: KUFVIS_clean_sbu_0, # of connection points: 4
#     Node 17, Type 0, BuildingBlock: KUFVIS_clean_sbu_0, # of connection points: 4
#     Node 18, Type 0, BuildingBlock: KUFVIS_clean_sbu_0, # of connection points: 4
#     Node 19, Type 0, BuildingBlock: KUFVIS_clean_sbu_0, # of connection points: 4
#     Node 20, Type 0, BuildingBlock: KUFVIS_clean_sbu_0, # of connection points: 4
#     Node 21, Type 0, BuildingBlock: KUFVIS_clean_sbu_0, # of connection points: 4
#     Node 22, Type 0, BuildingBlock: KUFVIS_clean_sbu_0, # of connection points: 4
#     Node 23, Type 0, BuildingBlock: KUFVIS_clean_sbu_0, # of connection points: 4
#     Node 24, Type 0, BuildingBlock: KUFVIS_clean_sbu_0, # of connection points: 4
#     Node 25, Type 0, BuildingBlock: KUFVIS_clean_sbu_0, # of connection points: 4
#     Node 26, Type 0, BuildingBlock: KUFVIS_clean_sbu_0, # of connection points: 4
#     Node 27, Type 0, BuildingBlock: KUFVIS_clean_sbu_0, # of connection points: 4
#     Node 28, Type 0, BuildingBlock: KUFVIS_clean_sbu_0, # of connection points: 4
#     Node 29, Type 0, BuildingBlock: KUFVIS_clean_sbu_0, # of connection points: 4
#     Node 30, Type 0, BuildingBlock: KUFVIS_clean_sbu_0, # of connection points: 4
#     Node 31, Type 0, BuildingBlock: KUFVIS_clean_sbu_0, # of connection points: 4
#     Edge 32, Type (0, 0), BuildingBlock: ZUJKAS_clean_linker_0, # of connection points: 2
#     Edge 33, Type (0, 0), BuildingBlock: ZUJKAS_clean_linker_0, # of connection points: 2
#     Edge 34, Type (0, 0), BuildingBlock: ZUJKAS_clean_linker_0, # of connection points: 2
#     Edge 35, Type (0, 0), BuildingBlock: ZUJKAS_clean_linker_0, # of connection points: 2
#     Edge 36, Type (0, 0), BuildingBlock: ZUJKAS_clean_linker_0, # of connection points: 2
#     Edge 37, Type (0, 0), BuildingBlock: ZUJKAS_clean_linker_0, # of connection points: 2
#     Edge 38, Type (0, 0), BuildingBlock: ZUJKAS_clean_linker_0, # of connection points: 2
#     Edge 39, Type (0, 0), BuildingBlock: ZUJKAS_clean_linker_0, # of connection points: 2
#     Edge 40, Type (0, 0), BuildingBlock: ZUJKAS_clean_linker_0, # of connection points: 2
#     Edge 41, Type (0, 0), BuildingBlock: ZUJKAS_clean_linker_0, # of connection points: 2
#     Edge 42, Type (0, 0), BuildingBlock: ZUJKAS_clean_linker_0, # of connection points: 2
#     Edge 43, Type (0, 0), BuildingBlock: ZUJKAS_clean_linker_0, # of connection points: 2
#     Edge 44, Type (0, 0), BuildingBlock: ZUJKAS_clean_linker_0, # of connection points: 2
#     Edge 45, Type (0, 0), BuildingBlock: ZUJKAS_clean_linker_0, # of connection points: 2
#     Edge 46, Type (0, 0), BuildingBlock: ZUJKAS_clean_linker_0, # of connection points: 2
#     Edge 47, Type (0, 0), BuildingBlock: ZUJKAS_clean_linker_0, # of connection points: 2
#     Edge 48, Type (0, 0), BuildingBlock: ZUJKAS_clean_linker_0, # of connection points: 2
#     Edge 49, Type (0, 0), BuildingBlock: ZUJKAS_clean_linker_0, # of connection points: 2
#     Edge 50, Type (0, 0), BuildingBlock: ZUJKAS_clean_linker_0, # of connection points: 2
#     Edge 51, Type (0, 0), BuildingBlock: ZUJKAS_clean_linker_0, # of connection points: 2
#     Edge 52, Type (0, 0), BuildingBlock: ZUJKAS_clean_linker_0, # of connection points: 2
#     Edge 53, Type (0, 0), BuildingBlock: ZUJKAS_clean_linker_0, # of connection points: 2
#     Edge 54, Type (0, 0), BuildingBlock: ZUJKAS_clean_linker_0, # of connection points: 2
#     Edge 55, Type (0, 0), BuildingBlock: ZUJKAS_clean_linker_0, # of connection points: 2
#     Edge 56, Type (0, 0), BuildingBlock: ZUJKAS_clean_linker_0, # of connection points: 2
#     Edge 57, Type (0, 0), BuildingBlock: ZUJKAS_clean_linker_0, # of connection points: 2
#     Edge 58, Type (0, 0), BuildingBlock: ZUJKAS_clean_linker_0, # of connection points: 2
#     Edge 59, Type (0, 0), BuildingBlock: ZUJKAS_clean_linker_0, # of connection points: 2
#     Edge 60, Type (0, 0), BuildingBlock: ZUJKAS_clean_linker_0, # of connection points: 2
#     Edge 61, Type (0, 0), BuildingBlock: ZUJKAS_clean_linker_0, # of connection points: 2
#     Edge 62, Type (0, 0), BuildingBlock: ZUJKAS_clean_linker_0, # of connection points: 2
#     Edge 63, Type (0, 0), BuildingBlock: ZUJKAS_clean_linker_0, # of connection points: 2
#     Edge 64, Type (0, 0), BuildingBlock: ZUJKAS_clean_linker_0, # of connection points: 2
#     Edge 65, Type (0, 0), BuildingBlock: ZUJKAS_clean_linker_0, # of connection points: 2
#     Edge 66, Type (0, 0), BuildingBlock: ZUJKAS_clean_linker_0, # of connection points: 2
#     Edge 67, Type (0, 0), BuildingBlock: ZUJKAS_clean_linker_0, # of connection points: 2
#     Edge 68, Type (0, 0), BuildingBlock: ZUJKAS_clean_linker_0, # of connection points: 2
#     Edge 69, Type (0, 0), BuildingBlock: ZUJKAS_clean_linker_0, # of connection points: 2
#     Edge 70, Type (0, 0), BuildingBlock: ZUJKAS_clean_linker_0, # of connection points: 2
#     Edge 71, Type (0, 0), BuildingBlock: ZUJKAS_clean_linker_0, # of connection points: 2
#     Edge 72, Type (0, 0), BuildingBlock: ZUJKAS_clean_linker_0, # of connection points: 2
#     Edge 73, Type (0, 0), BuildingBlock: ZUJKAS_clean_linker_0, # of connection points: 2
#     Edge 74, Type (0, 0), BuildingBlock: ZUJKAS_clean_linker_0, # of connection points: 2
#     Edge 75, Type (0, 0), BuildingBlock: ZUJKAS_clean_linker_0, # of connection points: 2
#     Edge 76, Type (0, 0), BuildingBlock: ZUJKAS_clean_linker_0, # of connection points: 2
#     Edge 77, Type (0, 0), BuildingBlock: ZUJKAS_clean_linker_0, # of connection points: 2
#     Edge 78, Type (0, 0), BuildingBlock: ZUJKAS_clean_linker_0, # of connection points: 2
#     Edge 79, Type (0, 0), BuildingBlock: ZUJKAS_clean_linker_0, # of connection points: 2
#     Edge 80, Type (0, 0), BuildingBlock: ZUJKAS_clean_linker_0, # of connection points: 2
#     Edge 81, Type (0, 0), BuildingBlock: ZUJKAS_clean_linker_0, # of connection points: 2
#     Edge 82, Type (0, 0), BuildingBlock: ZUJKAS_clean_linker_0, # of connection points: 2
#     Edge 83, Type (0, 0), BuildingBlock: ZUJKAS_clean_linker_0, # of connection points: 2
#     Edge 84, Type (0, 0), BuildingBlock: ZUJKAS_clean_linker_0, # of connection points: 2
#     Edge 85, Type (0, 0), BuildingBlock: ZUJKAS_clean_linker_0, # of connection points: 2
#     Edge 86, Type (0, 0), BuildingBlock: ZUJKAS_clean_linker_0, # of connection points: 2
#     Edge 87, Type (0, 0), BuildingBlock: ZUJKAS_clean_linker_0, # of connection points: 2
#     Edge 88, Type (0, 0), BuildingBlock: ZUJKAS_clean_linker_0, # of connection points: 2
#     Edge 89, Type (0, 0), BuildingBlock: ZUJKAS_clean_linker_0, # of connection points: 2
#     Edge 90, Type (0, 0), BuildingBlock: ZUJKAS_clean_linker_0, # of connection points: 2
#     Edge 91, Type (0, 0), BuildingBlock: ZUJKAS_clean_linker_0, # of connection points: 2
#     Edge 92, Type (0, 0), BuildingBlock: ZUJKAS_clean_linker_0, # of connection points: 2
#     Edge 93, Type (0, 0), BuildingBlock: ZUJKAS_clean_linker_0, # of connection points: 2
#     Edge 94, Type (0, 0), BuildingBlock: ZUJKAS_clean_linker_0, # of connection points: 2
#     Edge 95, Type (0, 0), BuildingBlock: ZUJKAS_clean_linker_0, # of connection points: 2
# Relax obj value: 0.129
# Max RMSD: 0.215
# Mean RMSD: 0.213
data_MOF--net-uke--node1-KUFVIS_clean_sbu_0--edge1-ZUJKAS_clean_linker_0
_symmetry_space_group_name_H-M    P1
_symmetry_Int_Tables_number       1
_symmetry_cell_setting            triclinic
loop_
_symmetry_equiv_pos_as_xyz
'x, y, z'
_cell_length_a     27.06542
_cell_length_b     142.30235
_cell_length_c     67.301778
_cell_angle_alpha  89.996892
_cell_angle_beta   89.995627
_cell_angle_gamma 89.999519
loop_
_atom_site_label
_atom_site_type_symbol
_atom_site_fract_x
_atom_site_fract_y
_atom_site_fract_z
_atom_type_partial_charge
Mn0 Mn 0.08905 0.06401 0.26709 0.0
Mn1 Mn 0.98585 0.07485 0.2512 0.0
C2 C 0.08754 0.0703 0.23576 0.0
C3 C 0.12857 0.04964 0.27114 0.0
C4 C 0.06032 0.08394 0.27902 0.0
O5 O 0.03798 0.06049 0.28761 0.0
O6 O 0.96897 0.06659 0.27424 0.0
C7 C 0.93358 0.05811 0.2358 0.0
N8 N 0.95316 0.06679 0.23267 0.0
C9 C 0.93121 0.06633 0.19804 0.0
C10 C 0.91042 0.0574 0.20092 0.0
C11 C 0.91166 0.05327 0.21989 0.0
C12 C 0.95228 0.07082 0.21449 0.0
H13 H 0.9349 0.05488 0.25032 0.0
C14 C 0.99156 0.06188 0.2877 0.0
O15 O 0.14149 0.05685 0.28183 0.0
O16 O 0.09338 0.05082 0.25842 0.0
N17 N 0.99614 0.08307 0.22909 0.0
C18 C 0.01819 0.09168 0.22879 0.0
C19 C 0.02044 0.09674 0.21088 0.0
C20 C -0.00032 0.09292 0.19353 0.0
C21 C 0.9762 0.08415 0.19431 0.0
C22 C 0.97458 0.07949 0.21263 0.0
H23 H 0.03432 0.09464 0.24206 0.0
O24 O 0.12921 0.06808 0.24399 0.0
O25 O 0.04774 0.06828 0.24579 0.0
O26 O 0.09261 0.07734 0.27895 0.0
O27 O 0.01907 0.08352 0.26974 0.0
C28 C 0.95488 0.07979 0.17759 0.0
C29 C 0.93248 0.07087 0.17944 0.0
H30 H 0.89372 0.05363 0.18866 0.0
H31 H 0.89596 0.04637 0.2222 0.0
H32 H 0.03842 0.10352 0.21043 0.0
H33 H 0.00201 0.09679 0.1797 0.0
H34 H 0.95584 0.08319 0.1632 0.0
H35 H 0.91658 0.06756 0.16645 0.0
Mn36 Mn 0.17414 0.19748 0.26253 0.0
Mn37 Mn 0.27147 0.18409 0.24946 0.0
C38 C 0.17415 0.19025 0.23212 0.0
C39 C 0.14091 0.21255 0.26399 0.0
C40 C 0.18981 0.1773 0.27685 0.0
O41 O 0.22548 0.20076 0.28302 0.0
O42 O 0.29036 0.19228 0.27238 0.0
C43 C 0.33615 0.19927 0.2344 0.0
N44 N 0.31171 0.19103 0.23133 0.0
C45 C 0.34044 0.19021 0.19754 0.0
C46 C 0.36626 0.19865 0.20039 0.0
C47 C 0.36404 0.2032 0.21889 0.0
C48 C 0.3136 0.18659 0.21359 0.0
H49 H 0.33422 0.20282 0.24856 0.0
C50 C 0.27014 0.19809 0.28449 0.0
O51 O 0.1247 0.20595 0.27569 0.0
O52 O 0.17623 0.21037 0.25191 0.0
N53 N 0.25911 0.17582 0.22761 0.0
C54 C 0.2303 0.16797 0.22705 0.0
C55 C 0.22722 0.16274 0.2094 0.0
C56 C 0.25411 0.16558 0.19259 0.0
C57 C 0.28413 0.1736 0.19363 0.0
C58 C 0.28601 0.17849 0.21167 0.0
H59 H 0.20942 0.16577 0.23991 0.0
O60 O 0.13343 0.1934 0.23976 0.0
O61 O 0.2145 0.19184 0.2422 0.0
O62 O 0.16282 0.1847 0.27624 0.0
O63 O 0.23095 0.17649 0.26765 0.0
C64 C 0.31143 0.17704 0.17735 0.0
C65 C 0.33954 0.18534 0.17931 0.0
H66 H 0.38754 0.20174 0.18842 0.0
H67 H 0.38363 0.20974 0.22117 0.0
H68 H 0.20398 0.15656 0.20872 0.0
H69 H 0.25124 0.16159 0.17894 0.0
H70 H 0.31057 0.17343 0.1632 0.0
H71 H 0.35991 0.18798 0.16662 0.0
Mn72 Mn 0.06795 0.19772 0.99847 0.0
Mn73 Mn 0.97039 0.184 0.00969 0.0
C74 C 0.06555 0.19022 0.02858 0.0
C75 C 0.10197 0.21276 0.9982 0.0
C76 C 0.055 0.17751 0.98359 0.0
O77 O 0.01803 0.20129 0.97759 0.0
O78 O 0.95398 0.19211 0.98634 0.0
C79 C 0.90306 0.19906 0.0233 0.0
N80 N 0.9275 0.19088 0.02692 0.0
C81 C 0.89445 0.19002 0.06006 0.0
C82 C 0.86858 0.19841 0.05664 0.0
C83 C 0.87298 0.20295 0.03819 0.0
C84 C 0.92355 0.18645 0.04462 0.0
H85 H 0.90662 0.20261 0.00919 0.0
C86 C 0.97426 0.19827 0.97508 0.0
O87 O 0.11849 0.20627 0.98631 0.0
O88 O 0.06557 0.21052 0.00972 0.0
N89 N 0.98038 0.17577 0.03182 0.0
C90 C 0.00945 0.16797 0.03302 0.0
C91 C 0.01047 0.16276 0.05074 0.0
C92 C 0.98122 0.16556 0.06693 0.0
C93 C 0.95099 0.17352 0.06523 0.0
C94 C 0.95126 0.17841 0.04716 0.0
H95 H 0.03212 0.16581 0.02063 0.0
O96 O 0.10689 0.19339 0.02153 0.0
O97 O 0.02598 0.19189 0.01805 0.0
O98 O 0.08054 0.18509 0.98429 0.0
O99 O 0.01359 0.17647 0.99247 0.0
C100 C 0.92142 0.17692 0.08088 0.0
C101 C 0.89319 0.18517 0.07831 0.0
H102 H 0.8456 0.20147 0.06812 0.0
H103 H 0.85337 0.20946 0.03547 0.0
H104 H 0.0339 0.15663 0.05194 0.0
H105 H 0.98244 0.16157 0.08063 0.0
H106 H 0.92058 0.17331 0.09505 0.0
H107 H 0.87104 0.18777 0.09053 0.0
Mn108 Mn 0.17766 0.06569 0.99925 0.0
Mn109 Mn 0.28071 0.07674 0.0146 0.0
C110 C 0.17914 0.07248 0.03012 0.0
C111 C 0.13689 0.05133 0.99658 0.0
C112 C 0.20668 0.08549 0.98614 0.0
O113 O 0.22892 0.06163 0.97927 0.0
O114 O 0.2974 0.06836 0.99175 0.0
C115 C 0.33336 0.06011 0.03033 0.0
N116 N 0.31362 0.0688 0.03328 0.0
C117 C 0.33548 0.06849 0.06794 0.0
C118 C 0.35643 0.05957 0.06523 0.0
C119 C 0.35533 0.05536 0.04635 0.0
C120 C 0.31445 0.07291 0.05139 0.0
H121 H 0.33213 0.05682 0.01589 0.0
C122 C 0.27513 0.06325 0.97884 0.0
O123 O 0.12511 0.05832 0.98502 0.0
O124 O 0.17203 0.05274 0.00922 0.0
N125 N 0.2704 0.08507 0.03654 0.0
C126 C 0.24772 0.09362 0.03671 0.0
C127 C 0.24508 0.09872 0.05454 0.0
C128 C 0.26599 0.09501 0.07196 0.0
C129 C 0.28992 0.08628 0.07133 0.0
C130 C 0.29195 0.08157 0.05307 0.0
H131 H 0.23138 0.09649 0.02339 0.0
O132 O 0.13741 0.07032 0.02187 0.0
O133 O 0.21889 0.07022 0.02032 0.0
O134 O 0.17505 0.07878 0.98617 0.0
O135 O 0.24731 0.0853 0.99589 0.0
C136 C 0.31122 0.08199 0.08815 0.0
C137 C 0.33393 0.0731 0.08646 0.0
H138 H 0.37311 0.05586 0.07758 0.0
H139 H 0.37115 0.04845 0.04418 0.0
H140 H 0.22666 0.10547 0.05489 0.0
H141 H 0.26334 0.09891 0.08574 0.0
H142 H 0.30995 0.08544 0.10249 0.0
H143 H 0.34978 0.06985 0.09954 0.0
Mn144 Mn 0.87102 0.94593 0.73827 0.0
Mn145 Mn 0.80642 0.95022 0.69647 0.0
C146 C 0.84079 0.96074 0.73261 0.0
C147 C 0.86957 0.94063 0.77102 0.0
C148 C 0.91827 0.94898 0.69735 0.0
O149 O 0.85494 0.93298 0.72816 0.0
O150 O 0.81005 0.9363 0.70087 0.0
C151 C 0.70881 0.94378 0.71083 0.0
N152 N 0.73788 0.9507 0.7032 0.0
C153 C 0.67036 0.9617 0.70357 0.0
C154 C 0.63957 0.95467 0.71128 0.0
C155 C 0.65891 0.94567 0.71494 0.0
C156 C 0.71967 0.95939 0.69962 0.0
H157 H 0.72366 0.93688 0.71383 0.0
C158 C 0.83 0.93049 0.71305 0.0
O159 O 0.9104 0.94054 0.7608 0.0
O160 O 0.83041 0.94371 0.76216 0.0
N161 N 0.79984 0.96329 0.69028 0.0
C162 C 0.83488 0.96937 0.68348 0.0
C163 C 0.82183 0.97873 0.67949 0.0
C164 C 0.7729 0.98173 0.6824 0.0
C165 C 0.73733 0.9753 0.68909 0.0
C166 C 0.7524 0.96603 0.69263 0.0
H167 H 0.87259 0.96712 0.68131 0.0
O168 O 0.87648 0.95943 0.74516 0.0
O169 O 0.82301 0.95324 0.72406 0.0
O170 O 0.92288 0.94748 0.71604 0.0
O171 O 0.87654 0.95007 0.68873 0.0
C172 C 0.68774 0.97776 0.69275 0.0
C173 C 0.65429 0.97097 0.69999 0.0
H174 H 0.60116 0.95611 0.7146 0.0
H175 H 0.63546 0.94021 0.721 0.0
H176 H 0.84948 0.98365 0.67431 0.0
H177 H 0.76311 0.98898 0.67955 0.0
H178 H 0.67507 0.98489 0.69025 0.0
H179 H 0.61638 0.97298 0.70294 0.0
Mn180 Mn 0.87149 0.81644 0.74081 0.0
Mn181 Mn 0.93963 0.81314 0.69952 0.0
C182 C 0.90629 0.80202 0.73496 0.0
C183 C 0.86947 0.82136 0.77386 0.0
C184 C 0.82777 0.8129 0.69932 0.0
O185 O 0.88416 0.82962 0.73139 0.0
O186 O 0.92933 0.82696 0.70389 0.0
C187 C 0.03291 0.82117 0.71494 0.0
N188 N 0.00766 0.8138 0.70699 0.0
C189 C 0.07999 0.80397 0.70804 0.0
C190 C 0.10687 0.81149 0.71609 0.0
C191 C 0.0832 0.82012 0.71957 0.0
C192 C 0.03006 0.80546 0.7036 0.0
H193 H 0.01475 0.82779 0.7178 0.0
C194 C 0.90759 0.83248 0.71617 0.0
O195 O 0.82928 0.82116 0.76325 0.0
O196 O 0.90995 0.81883 0.76519 0.0
N197 N 0.9527 0.80025 0.69331 0.0
C198 C 0.92116 0.79363 0.68602 0.0
C199 C 0.9388 0.78454 0.68208 0.0
C200 C 0.9887 0.78237 0.68553 0.0
C201 C 0.02064 0.78935 0.6927 0.0
C202 C 0.00105 0.79831 0.69619 0.0
H203 H 0.88269 0.79524 0.68348 0.0
O204 O 0.86943 0.80285 0.74712 0.0
O205 O 0.92257 0.80976 0.72688 0.0
O206 O 0.8216 0.81457 0.71789 0.0
O207 O 0.87022 0.81213 0.69112 0.0
C208 C 0.07093 0.78772 0.69688 0.0
C209 C 0.10057 0.79503 0.70455 0.0
H210 H 0.14559 0.81069 0.7198 0.0
H211 H 0.10363 0.82593 0.72589 0.0
H212 H 0.91392 0.7792 0.67654 0.0
H213 H 0.00204 0.77532 0.68271 0.0
H214 H 0.08705 0.78085 0.69443 0.0
H215 H 0.13907 0.79366 0.70788 0.0
Mn216 Mn 0.88711 0.81548 0.01876 0.0
Mn217 Mn 0.81643 0.81409 0.0598 0.0
C218 C 0.84967 0.80148 0.02654 0.0
C219 C 0.89106 0.81956 0.98522 0.0
C220 C 0.92852 0.81345 0.06089 0.0
O221 O 0.87692 0.82902 0.02641 0.0
O222 O 0.82626 0.82762 0.05271 0.0
C223 C 0.72342 0.8212 0.04227 0.0
N224 N 0.74866 0.81429 0.05189 0.0
C225 C 0.67628 0.80449 0.0533 0.0
C226 C 0.64939 0.81153 0.04353 0.0
C227 C 0.67311 0.81991 0.03794 0.0
C228 C 0.72631 0.80617 0.0572 0.0
H229 H 0.74161 0.82763 0.0379 0.0
C230 C 0.85108 0.83257 0.04028 0.0
O231 O 0.93082 0.81935 0.9961 0.0
O232 O 0.84989 0.81743 0.99388 0.0
N233 N 0.80372 0.80154 0.06858 0.0
C234 C 0.83522 0.79538 0.07753 0.0
C235 C 0.81738 0.78664 0.08402 0.0
C236 C 0.76732 0.78436 0.08141 0.0
C237 C 0.73556 0.79082 0.07223 0.0
C238 C 0.75535 0.79946 0.06624 0.0
H239 H 0.87368 0.79712 0.07969 0.0
O240 O 0.88666 0.80171 0.01431 0.0
O241 O 0.83456 0.80956 0.03334 0.0
O242 O 0.93586 0.81395 0.04211 0.0
O243 O 0.88556 0.81357 0.06882 0.0
C244 C 0.6851 0.78903 0.06872 0.0
C245 C 0.65555 0.79584 0.05917 0.0
H246 H 0.6106 0.81056 0.04014 0.0
H247 H 0.65266 0.82536 0.03031 0.0
H248 H 0.8421 0.78168 0.09108 0.0
H249 H 0.75368 0.77764 0.08659 0.0
H250 H 0.66871 0.78242 0.07318 0.0
H251 H 0.61692 0.79435 0.05639 0.0
Mn252 Mn 0.85649 0.94858 0.01401 0.0
Mn253 Mn 0.93176 0.95127 0.0534 0.0
C254 C 0.89251 0.96291 0.01943 0.0
C255 C 0.84959 0.94357 0.98116 0.0
C256 C 0.81985 0.95092 0.05653 0.0
O257 O 0.86979 0.93534 0.02312 0.0
O258 O 0.92605 0.93754 0.04729 0.0
C259 C 0.02535 0.9451 0.03484 0.0
N260 N 0.99859 0.95184 0.04435 0.0
C261 C 0.06679 0.96268 0.04323 0.0
C262 C 0.09524 0.95583 0.03357 0.0
C263 C 0.0744 0.94701 0.02934 0.0
C264 C 0.01827 0.96035 0.0485 0.0
H265 H 0.00929 0.93835 0.03142 0.0
C266 C 0.89955 0.93221 0.03618 0.0
O267 O 0.81101 0.94386 0.9927 0.0
O268 O 0.89132 0.94614 0.98879 0.0
N269 N 0.9406 0.96413 0.06099 0.0
C270 C 0.90752 0.97008 0.06962 0.0
C271 C 0.92213 0.97929 0.07436 0.0
C272 C 0.97059 0.98225 0.07028 0.0
C273 C 0.00417 0.97595 0.06165 0.0
C274 C 0.98765 0.96684 0.05744 0.0
H275 H 0.87016 0.96786 0.07269 0.0
O276 O 0.85437 0.9622 0.00786 0.0
O277 O 0.90941 0.9551 0.02694 0.0
O278 O 0.8102 0.95053 0.03792 0.0
O279 O 0.86359 0.95096 0.06372 0.0
C280 C 0.05306 0.97841 0.05671 0.0
C281 C 0.08435 0.97178 0.0475 0.0
H282 H 0.13297 0.95729 0.02917 0.0
H283 H 0.09603 0.9417 0.02178 0.0
H284 H 0.896 0.9841 0.08102 0.0
H285 H 0.98154 0.98939 0.07373 0.0
H286 H 0.06679 0.98542 0.0597 0.0
H287 H 0.12169 0.97379 0.04356 0.0
Mn288 Mn 0.06904 0.56539 0.75768 0.0
Mn289 Mn 0.96699 0.57738 0.74434 0.0
C290 C 0.06683 0.57269 0.72737 0.0
C291 C 0.1071 0.55071 0.75933 0.0
C292 C 0.04598 0.58548 0.77137 0.0
O293 O 0.01908 0.56143 0.7782 0.0
O294 O 0.95187 0.56922 0.76773 0.0
C295 C 0.90969 0.56097 0.73026 0.0
N296 N 0.93023 0.56954 0.72666 0.0
C297 C 0.90206 0.56932 0.69276 0.0
C298 C 0.88029 0.56053 0.69614 0.0
C299 C 0.88423 0.55632 0.71496 0.0
C300 C 0.92704 0.57361 0.70856 0.0
H301 H 0.91286 0.5577 0.74468 0.0
C302 C 0.97384 0.56367 0.77984 0.0
O303 O 0.12113 0.55752 0.77096 0.0
O304 O 0.07154 0.55249 0.74708 0.0
N305 N 0.97489 0.58559 0.72207 0.0
C306 C 0.99718 0.59418 0.72138 0.0
C307 C 0.99658 0.59933 0.70359 0.0
C308 C 0.97237 0.59568 0.68681 0.0
C309 C 0.94849 0.58696 0.68805 0.0
C310 C 0.95018 0.58216 0.7062 0.0
H311 H 0.01567 0.59703 0.73426 0.0
O312 O 0.1085 0.56999 0.73491 0.0
O313 O 0.02708 0.57053 0.73733 0.0
O314 O 0.07502 0.57835 0.77131 0.0
O315 O 0.00483 0.58575 0.76197 0.0
C316 C 0.92309 0.58283 0.67199 0.0
C317 C 0.90013 0.574 0.67431 0.0
H318 H 0.86063 0.55692 0.68437 0.0
H319 H 0.86771 0.54952 0.71766 0.0
H320 H 0.01478 0.60609 0.70279 0.0
H321 H 0.97214 0.59967 0.6731 0.0
H322 H 0.92104 0.58638 0.65778 0.0
H323 H 0.88099 0.57087 0.66182 0.0
Mn324 Mn 0.173 0.69798 0.76569 0.0
Mn325 Mn 0.27169 0.68488 0.753 0.0
C326 C 0.17394 0.69061 0.73542 0.0
C327 C 0.13841 0.71297 0.76663 0.0
C328 C 0.19079 0.67801 0.7807 0.0
O329 O 0.22402 0.70151 0.7862 0.0
O330 O 0.29007 0.69339 0.77542 0.0
C331 C 0.33485 0.70007 0.73702 0.0
N332 N 0.31107 0.69172 0.73442 0.0
C333 C 0.33954 0.69059 0.70064 0.0
C334 C 0.3647 0.69913 0.703 0.0
C335 C 0.36228 0.70389 0.72126 0.0
C336 C 0.31319 0.68707 0.71693 0.0
H337 H 0.33278 0.70378 0.75099 0.0
C338 C 0.26918 0.69911 0.78752 0.0
O339 O 0.12273 0.7064 0.77852 0.0
O340 O 0.17414 0.71082 0.75473 0.0
N341 N 0.25963 0.67633 0.7316 0.0
C342 C 0.23119 0.66843 0.73147 0.0
C343 C 0.2282 0.663 0.71408 0.0
C344 C 0.25478 0.66571 0.69709 0.0
C345 C 0.28435 0.6738 0.69768 0.0
C346 C 0.28617 0.67889 0.71547 0.0
H347 H 0.21053 0.66633 0.74446 0.0
O348 O 0.13286 0.69366 0.74293 0.0
O349 O 0.21399 0.69237 0.74555 0.0
O350 O 0.16252 0.68522 0.77963 0.0
O351 O 0.23227 0.67734 0.7717 0.0
C352 C 0.31121 0.67713 0.68118 0.0
C353 C 0.33878 0.68551 0.68266 0.0
H354 H 0.38559 0.70214 0.69083 0.0
H355 H 0.38135 0.71052 0.72315 0.0
H356 H 0.2053 0.65677 0.71374 0.0
H357 H 0.25198 0.66156 0.68364 0.0
H358 H 0.31041 0.67335 0.66721 0.0
H359 H 0.35878 0.68806 0.6698 0.0
Mn360 Mn 0.0711 0.69842 0.50137 0.0
Mn361 Mn 0.97237 0.6851 0.51308 0.0
C362 C 0.06846 0.69108 0.53164 0.0
C363 C 0.10589 0.71339 0.50062 0.0
C364 C 0.0559 0.67824 0.48674 0.0
O365 O 0.02133 0.70195 0.48043 0.0
O366 O 0.95594 0.69329 0.48986 0.0
C367 C 0.90686 0.70036 0.52711 0.0
N368 N 0.93063 0.69209 0.53056 0.0
C369 C 0.89821 0.69126 0.5638 0.0
C370 C 0.87304 0.69974 0.56056 0.0
C371 C 0.87746 0.70431 0.54214 0.0
C372 C 0.92665 0.68762 0.54821 0.0
H373 H 0.91044 0.70393 0.51302 0.0
C374 C 0.97694 0.69922 0.47824 0.0
O375 O 0.12202 0.70679 0.4889 0.0
O376 O 0.06956 0.71128 0.51227 0.0
N377 N 0.98232 0.67681 0.53512 0.0
C378 C 0.01086 0.66894 0.53615 0.0
C379 C 0.01185 0.66369 0.55382 0.0
C380 C 0.98312 0.66653 0.57013 0.0
C381 C 0.95346 0.67457 0.5686 0.0
C382 C 0.95373 0.67949 0.55058 0.0
H383 H 0.03312 0.66674 0.52368 0.0
O384 O 0.10995 0.69412 0.5245 0.0
O385 O 0.02893 0.6928 0.52114 0.0
O386 O 0.08255 0.68568 0.48747 0.0
O387 O 0.01431 0.67743 0.4956 0.0
C388 C 0.92452 0.67803 0.5844 0.0
C389 C 0.89693 0.68636 0.582 0.0
H390 H 0.85059 0.70284 0.57216 0.0
H391 H 0.85838 0.71088 0.53957 0.0
H392 H 0.03485 0.65749 0.55488 0.0
H393 H 0.98431 0.6625 0.58378 0.0
H394 H 0.9237 0.67439 0.59853 0.0
H395 H 0.87529 0.68901 0.59433 0.0
Mn396 Mn 0.19005 0.56664 0.49869 0.0
Mn397 Mn 0.29143 0.57888 0.51181 0.0
C398 C 0.19163 0.5742 0.52871 0.0
C399 C 0.15229 0.55193 0.49767 0.0
C400 C 0.21304 0.58657 0.48405 0.0
O401 O 0.24067 0.5625 0.47855 0.0
O402 O 0.3073 0.57058 0.48877 0.0
C403 C 0.34919 0.56271 0.52674 0.0
N404 N 0.32817 0.57127 0.52993 0.0
C405 C 0.35547 0.57139 0.56395 0.0
C406 C 0.37776 0.56261 0.56099 0.0
C407 C 0.37451 0.55824 0.54232 0.0
C408 C 0.33075 0.5755 0.54787 0.0
H409 H 0.34651 0.55931 0.51244 0.0
C410 C 0.28577 0.56485 0.47692 0.0
O411 O 0.13832 0.55859 0.48565 0.0
O412 O 0.18768 0.55387 0.50989 0.0
N413 N 0.28247 0.58726 0.53374 0.0
C414 C 0.25911 0.59575 0.53408 0.0
C415 C 0.25863 0.60101 0.55173 0.0
C416 C 0.28276 0.59757 0.56872 0.0
C417 C 0.30763 0.58894 0.56785 0.0
C418 C 0.307 0.58402 0.54983 0.0
H419 H 0.2406 0.59842 0.52104 0.0
O420 O 0.1501 0.57144 0.52113 0.0
O421 O 0.23154 0.57199 0.51891 0.0
O422 O 0.18387 0.57946 0.48446 0.0
O423 O 0.25386 0.58702 0.49363 0.0
C424 C 0.33287 0.58499 0.58415 0.0
C425 C 0.35654 0.57621 0.58224 0.0
H426 H 0.39726 0.55913 0.57298 0.0
H427 H 0.3914 0.55144 0.53995 0.0
H428 H 0.2396 0.6077 0.55225 0.0
H429 H 0.28207 0.60163 0.58233 0.0
H430 H 0.33418 0.58864 0.59827 0.0
H431 H 0.37547 0.57322 0.59493 0.0
Mn432 Mn 0.88449 0.44831 0.24072 0.0
Mn433 Mn 0.81316 0.45029 0.19995 0.0
C434 C 0.84663 0.46236 0.23401 0.0
C435 C 0.88883 0.44389 0.27404 0.0
C436 C 0.92527 0.45085 0.1986 0.0
O437 O 0.87385 0.43489 0.23235 0.0
O438 O 0.82303 0.43664 0.20615 0.0
C439 C 0.72029 0.4429 0.2171 0.0
N440 N 0.74547 0.44998 0.20799 0.0
C441 C 0.67361 0.45994 0.2082 0.0
C442 C 0.64677 0.45273 0.21743 0.0
C443 C 0.67024 0.44418 0.22192 0.0
C444 C 0.72325 0.45823 0.2036 0.0
H445 H 0.73833 0.43636 0.22073 0.0
C446 C 0.84775 0.43153 0.21833 0.0
O447 O 0.92852 0.44421 0.26313 0.0
O448 O 0.84756 0.44606 0.26553 0.0
N449 N 0.80045 0.463 0.19221 0.0
C450 C 0.83206 0.46937 0.184 0.0
C451 C 0.81469 0.47837 0.17907 0.0
C452 C 0.76501 0.48071 0.18251 0.0
C453 C 0.733 0.474 0.19068 0.0
C454 C 0.75229 0.46511 0.19511 0.0
H455 H 0.87036 0.46762 0.18143 0.0
O456 O 0.8841 0.46201 0.24598 0.0
O457 O 0.83167 0.45437 0.22669 0.0
O458 O 0.93284 0.4501 0.21734 0.0
O459 O 0.88219 0.45091 0.19078 0.0
C460 C 0.68296 0.47583 0.19495 0.0
C461 C 0.65329 0.46881 0.20372 0.0
H462 H 0.60826 0.4537 0.22131 0.0
H463 H 0.64986 0.4386 0.22915 0.0
H464 H 0.83962 0.48351 0.17276 0.0
H465 H 0.7519 0.4877 0.17892 0.0
H466 H 0.66708 0.48265 0.19178 0.0
H467 H 0.61502 0.47034 0.20714 0.0
Mn468 Mn 0.86986 0.31489 0.23777 0.0
Mn469 Mn 0.94188 0.31349 0.19712 0.0
C470 C 0.90719 0.30087 0.23004 0.0
C471 C 0.86473 0.31878 0.27139 0.0
C472 C 0.82977 0.31327 0.19539 0.0
O473 O 0.88129 0.32843 0.23041 0.0
O474 O 0.93338 0.32702 0.20452 0.0
C475 C 0.03528 0.32013 0.21515 0.0
N476 N 0.00946 0.31336 0.20531 0.0
C477 C 0.08055 0.30322 0.20421 0.0
C478 C 0.10803 0.31011 0.2142 0.0
C479 C 0.08525 0.31859 0.21973 0.0
C480 C 0.03093 0.30516 0.2 0.0
H481 H 0.01779 0.32663 0.2195 0.0
C482 C 0.90829 0.33197 0.21686 0.0
O483 O 0.82544 0.31872 0.26024 0.0
O484 O 0.90616 0.31665 0.26295 0.0
N485 N 0.95327 0.30091 0.18823 0.0
C486 C 0.92109 0.29488 0.17931 0.0
C487 C 0.93785 0.28602 0.17304 0.0
C488 C 0.98751 0.2835 0.17589 0.0
C489 C 0.01998 0.28984 0.18504 0.0
C490 C 0.00128 0.2986 0.1908 0.0
H491 H 0.88292 0.29679 0.17703 0.0
O492 O 0.86955 0.30108 0.24196 0.0
O493 O 0.92265 0.30896 0.22343 0.0
O494 O 0.8219 0.31356 0.21415 0.0
O495 O 0.87298 0.31334 0.18768 0.0
C496 C 0.07003 0.28779 0.18884 0.0
C497 C 0.10024 0.29446 0.19848 0.0
H498 H 0.14654 0.30894 0.21783 0.0
H499 H 0.10615 0.32392 0.22754 0.0
H500 H 0.91257 0.28116 0.16601 0.0
H501 H 0.00025 0.27667 0.17097 0.0
H502 H 0.08558 0.28108 0.18456 0.0
H503 H 0.13852 0.29277 0.20152 0.0
Mn504 Mn 0.87945 0.31534 0.51716 0.0
Mn505 Mn 0.81141 0.31439 0.55897 0.0
C506 C 0.84108 0.30152 0.52564 0.0
C507 C 0.88133 0.31916 0.48344 0.0
C508 C 0.92348 0.31336 0.55886 0.0
O509 O 0.87113 0.32896 0.52462 0.0
O510 O 0.82188 0.32785 0.55143 0.0
C511 C 0.71778 0.32169 0.54233 0.0
N512 N 0.74313 0.31475 0.55181 0.0
C513 C 0.6702 0.30514 0.5541 0.0
C514 C 0.64319 0.31221 0.54448 0.0
C515 C 0.66713 0.32051 0.53854 0.0
C516 C 0.72055 0.30671 0.55749 0.0
H517 H 0.73613 0.32806 0.53767 0.0
C518 C 0.8464 0.33266 0.53867 0.0
O519 O 0.92187 0.31888 0.49383 0.0
O520 O 0.84062 0.3173 0.49268 0.0
N521 N 0.79832 0.30191 0.56816 0.0
C522 C 0.82994 0.29571 0.57687 0.0
C523 C 0.81193 0.28703 0.58364 0.0
C524 C 0.76158 0.28486 0.58154 0.0
C525 C 0.72969 0.29138 0.57261 0.0
C526 C 0.74968 0.29995 0.56634 0.0
H527 H 0.86864 0.29736 0.57862 0.0
O528 O 0.87725 0.30155 0.51301 0.0
O529 O 0.82731 0.30969 0.53243 0.0
O530 O 0.92966 0.31372 0.53998 0.0
O531 O 0.88107 0.3137 0.56722 0.0
C532 C 0.67894 0.28969 0.5696 0.0
C533 C 0.64926 0.29655 0.56027 0.0
H534 H 0.60415 0.31133 0.54148 0.0
H535 H 0.64659 0.32599 0.53102 0.0
H536 H 0.83675 0.28203 0.59051 0.0
H537 H 0.74784 0.27818 0.5869 0.0
H538 H 0.66242 0.28312 0.57426 0.0
H539 H 0.6104 0.29514 0.55786 0.0
Mn540 Mn 0.87905 0.44945 0.51947 0.0
Mn541 Mn 0.94989 0.4506 0.56047 0.0
C542 C 0.916 0.46343 0.52772 0.0
C543 C 0.87472 0.4457 0.48578 0.0
C544 C 0.83778 0.45095 0.56169 0.0
O545 O 0.89024 0.43587 0.52652 0.0
O546 O 0.94123 0.4371 0.55278 0.0
C547 C 0.04357 0.44395 0.54269 0.0
N548 N 0.01768 0.4507 0.55256 0.0
C549 C 0.089 0.46077 0.55412 0.0
C550 C 0.11655 0.4539 0.5441 0.0
C551 C 0.09369 0.44546 0.53833 0.0
C552 C 0.03923 0.45886 0.5581 0.0
H553 H 0.02603 0.43748 0.53815 0.0
C554 C 0.91661 0.43223 0.54014 0.0
O555 O 0.83518 0.4457 0.4968 0.0
O556 O 0.91595 0.44783 0.4944 0.0
N557 N 0.96143 0.46313 0.56969 0.0
C558 C 0.92926 0.46914 0.5787 0.0
C559 C 0.94613 0.47793 0.58526 0.0
C560 C 0.9959 0.48043 0.58263 0.0
C561 C 0.02837 0.47411 0.57338 0.0
C562 C 0.00955 0.46541 0.56733 0.0
H563 H 0.89099 0.46725 0.58082 0.0
O564 O 0.87874 0.46326 0.5156 0.0
O565 O 0.93145 0.45531 0.53418 0.0
O566 O 0.83046 0.45066 0.5429 0.0
O567 O 0.88075 0.45082 0.5696 0.0
C568 C 0.07854 0.47613 0.5698 0.0
C569 C 0.10879 0.46948 0.5601 0.0
H570 H 0.15517 0.45505 0.54065 0.0
H571 H 0.11464 0.44014 0.53051 0.0
H572 H 0.92086 0.48278 0.59236 0.0
H573 H 0.00875 0.48721 0.58779 0.0
H574 H 0.09416 0.48281 0.57428 0.0
H575 H 0.14718 0.47116 0.55724 0.0
Mn576 Mn 0.58099 0.06547 0.764 0.0
Mn577 Mn 0.48089 0.07859 0.7533 0.0
C578 C 0.57643 0.07288 0.73381 0.0
C579 C 0.61623 0.05053 0.76422 0.0
C580 C 0.56471 0.08537 0.77962 0.0
O581 O 0.53229 0.06188 0.78539 0.0
O582 O 0.46502 0.06999 0.77588 0.0
C583 C 0.41595 0.06349 0.73815 0.0
N584 N 0.43944 0.07184 0.73531 0.0
C585 C 0.407 0.07317 0.70215 0.0
C586 C 0.38212 0.06462 0.70477 0.0
C587 C 0.38667 0.05975 0.72284 0.0
C588 C 0.43526 0.07659 0.718 0.0
H589 H 0.41965 0.0597 0.75198 0.0
C590 C 0.48729 0.06426 0.78755 0.0
O591 O 0.63282 0.05711 0.7759 0.0
O592 O 0.57911 0.05264 0.75298 0.0
N593 N 0.49064 0.08724 0.73188 0.0
C594 C 0.51919 0.09512 0.73137 0.0
C595 C 0.52018 0.10064 0.71408 0.0
C596 C 0.49154 0.09804 0.69757 0.0
C597 C 0.46195 0.08996 0.69853 0.0
C598 C 0.46216 0.08478 0.71622 0.0
H599 H 0.54141 0.09714 0.744 0.0
O600 O 0.6184 0.06986 0.74052 0.0
O601 O 0.53765 0.0711 0.7447 0.0
O602 O 0.59292 0.07819 0.77786 0.0
O603 O 0.52225 0.08606 0.77143 0.0
C604 C 0.43313 0.08673 0.68249 0.0
C605 C 0.40569 0.07835 0.6843 0.0
H606 H 0.3598 0.06168 0.69294 0.0
H607 H 0.36782 0.05312 0.72493 0.0
H608 H 0.54314 0.10686 0.71344 0.0
H609 H 0.49276 0.10226 0.68419 0.0
H610 H 0.43235 0.09058 0.66861 0.0
H611 H 0.38418 0.07587 0.67177 0.0
Mn612 Mn 0.68923 0.19776 0.75986 0.0
Mn613 Mn 0.79027 0.18549 0.74638 0.0
C614 C 0.69017 0.19016 0.72988 0.0
C615 C 0.6503 0.21235 0.76107 0.0
C616 C 0.71218 0.17772 0.7741 0.0
O617 O 0.74027 0.202 0.77971 0.0
O618 O 0.80614 0.19365 0.76967 0.0
C619 C 0.84816 0.20176 0.73195 0.0
N620 N 0.82707 0.19322 0.7285 0.0
C621 C 0.85437 0.19333 0.69448 0.0
C622 C 0.8767 0.20209 0.6977 0.0
C623 C 0.87349 0.20633 0.71651 0.0
C624 C 0.82961 0.18912 0.71042 0.0
H625 H 0.84554 0.20506 0.74636 0.0
C626 C 0.78514 0.1995 0.78142 0.0
O627 O 0.63751 0.20565 0.77319 0.0
O628 O 0.68551 0.21054 0.74866 0.0
N629 N 0.78145 0.17725 0.72421 0.0
C630 C 0.75842 0.16873 0.72365 0.0
C631 C 0.75811 0.16357 0.70586 0.0
C632 C 0.78213 0.16714 0.68897 0.0
C633 C 0.80672 0.1758 0.69007 0.0
C634 C 0.80593 0.18061 0.70821 0.0
H635 H 0.74002 0.16595 0.73661 0.0
O636 O 0.64879 0.19287 0.73767 0.0
O637 O 0.73037 0.19244 0.73943 0.0
O638 O 0.68389 0.18495 0.77417 0.0
O639 O 0.75256 0.17722 0.76424 0.0
C640 C 0.83189 0.17986 0.67387 0.0
C641 C 0.85548 0.18864 0.67604 0.0
H642 H 0.89623 0.20564 0.68583 0.0
H643 H 0.89043 0.21311 0.71909 0.0
H644 H 0.73933 0.15687 0.70517 0.0
H645 H 0.78163 0.16315 0.67526 0.0
H646 H 0.83323 0.1763 0.65965 0.0
H647 H 0.87441 0.19172 0.66344 0.0
Mn648 Mn 0.56759 0.19805 0.50111 0.0
Mn649 Mn 0.46581 0.18579 0.51368 0.0
C650 C 0.56442 0.19078 0.53141 0.0
C651 C 0.60473 0.2128 0.4997 0.0
C652 C 0.54684 0.17784 0.48747 0.0
O653 O 0.51848 0.20183 0.48015 0.0
O654 O 0.45148 0.19377 0.48993 0.0
C655 C 0.40654 0.20211 0.52686 0.0
N656 N 0.42754 0.19362 0.53085 0.0
C657 C 0.39819 0.19401 0.56459 0.0
C658 C 0.37593 0.20273 0.56081 0.0
C659 C 0.38021 0.2068 0.54187 0.0
C660 C 0.42398 0.18967 0.54906 0.0
H661 H 0.41002 0.20529 0.51236 0.0
C662 C 0.47368 0.19938 0.478 0.0
O663 O 0.61978 0.20602 0.4882 0.0
O664 O 0.56861 0.21095 0.51164 0.0
N665 N 0.47303 0.1777 0.5362 0.0
C666 C 0.49566 0.16916 0.53726 0.0
C667 C 0.49472 0.16413 0.5552 0.0
C668 C 0.46985 0.16785 0.57175 0.0
C669 C 0.44557 0.17652 0.57012 0.0
C670 C 0.44756 0.18119 0.55183 0.0
H671 H 0.51471 0.16626 0.52456 0.0
O672 O 0.60625 0.19359 0.52419 0.0
O673 O 0.52499 0.19282 0.52113 0.0
O674 O 0.57519 0.18508 0.48763 0.0
O675 O 0.50532 0.17745 0.49659 0.0
C676 C 0.4195 0.18072 0.58592 0.0
C677 C 0.39602 0.18947 0.58319 0.0
H678 H 0.35564 0.20637 0.57234 0.0
H679 H 0.36333 0.21355 0.53885 0.0
H680 H 0.51321 0.1574 0.55629 0.0
H681 H 0.46942 0.16396 0.58559 0.0
H682 H 0.41731 0.17728 0.60025 0.0
H683 H 0.37632 0.19265 0.59548 0.0
Mn684 Mn 0.67474 0.06575 0.49918 0.0
Mn685 Mn 0.77458 0.07849 0.51205 0.0
C686 C 0.67593 0.07317 0.5294 0.0
C687 C 0.63819 0.05094 0.4982 0.0
C688 C 0.69508 0.08562 0.48404 0.0
O689 O 0.72578 0.06193 0.47893 0.0
O690 O 0.79231 0.06994 0.4896 0.0
C691 C 0.83598 0.06306 0.52809 0.0
N692 N 0.81304 0.07149 0.53067 0.0
C693 C 0.84133 0.0725 0.56449 0.0
C694 C 0.86562 0.06387 0.56215 0.0
C695 C 0.86287 0.05912 0.54388 0.0
C696 C 0.8155 0.07612 0.54817 0.0
H697 H 0.83364 0.05936 0.5141 0.0
C698 C 0.77108 0.06422 0.47758 0.0
O699 O 0.62374 0.05756 0.48619 0.0
O700 O 0.67383 0.05294 0.51027 0.0
N701 N 0.76318 0.08707 0.53345 0.0
C702 C 0.73547 0.09506 0.53358 0.0
C703 C 0.73285 0.10049 0.55098 0.0
C704 C 0.75901 0.09767 0.568 0.0
C705 C 0.78781 0.08949 0.56742 0.0
C706 C 0.7893 0.0844 0.54962 0.0
H707 H 0.71512 0.09723 0.52056 0.0
O708 O 0.63464 0.07032 0.52174 0.0
O709 O 0.71598 0.07122 0.51942 0.0
O710 O 0.66619 0.0785 0.48501 0.0
O711 O 0.73624 0.08619 0.49329 0.0
C712 C 0.81417 0.08605 0.58395 0.0
C713 C 0.84091 0.07757 0.58249 0.0
H714 H 0.88608 0.06077 0.57434 0.0
H715 H 0.88126 0.05243 0.542 0.0
H716 H 0.71052 0.10679 0.55131 0.0
H717 H 0.75648 0.10182 0.58145 0.0
H718 H 0.81361 0.08982 0.59794 0.0
H719 H 0.86053 0.07494 0.59537 0.0
Mn720 Mn 0.39302 0.947 0.24514 0.0
Mn721 Mn 0.32748 0.94896 0.20284 0.0
C722 C 0.35675 0.96113 0.2376 0.0
C723 C 0.39297 0.94235 0.27835 0.0
C724 C 0.43945 0.94929 0.2042 0.0
O725 O 0.38403 0.9336 0.23616 0.0
O726 O 0.3342 0.93533 0.20967 0.0
C727 C 0.23098 0.94225 0.21782 0.0
N728 N 0.25866 0.94909 0.20909 0.0
C729 C 0.18792 0.95921 0.2059 0.0
C730 C 0.15854 0.95225 0.21473 0.0
C731 C 0.18021 0.94374 0.22077 0.0
C732 C 0.23827 0.95732 0.20333 0.0
H733 H 0.24758 0.93571 0.22251 0.0
C734 C 0.35847 0.93023 0.22198 0.0
O735 O 0.43399 0.94277 0.26829 0.0
O736 O 0.35278 0.94458 0.26907 0.0
N737 N 0.31807 0.96166 0.19433 0.0
C738 C 0.35199 0.9678 0.18688 0.0
C739 C 0.33657 0.97673 0.18057 0.0
C740 C 0.28644 0.97922 0.18178 0.0
C741 C 0.25217 0.97276 0.18936 0.0
C742 C 0.26968 0.96395 0.19538 0.0
H743 H 0.39053 0.9659 0.18585 0.0
O744 O 0.39187 0.96066 0.25067 0.0
O745 O 0.34245 0.95317 0.22989 0.0
O746 O 0.44466 0.94901 0.22308 0.0
O747 O 0.3978 0.94906 0.19528 0.0
C748 C 0.2014 0.97474 0.19135 0.0
C749 C 0.16935 0.96799 0.19972 0.0
H750 H 0.11939 0.95339 0.21706 0.0
H751 H 0.15783 0.93836 0.22768 0.0
H752 H 0.36324 0.98169 0.17475 0.0
H753 H 0.27471 0.98612 0.17689 0.0
H754 H 0.18668 0.98146 0.18665 0.0
H755 H 0.13051 0.96965 0.20143 0.0
Mn756 Mn 0.36501 0.81455 0.24487 0.0
Mn757 Mn 0.43932 0.81145 0.20528 0.0
C758 C 0.39867 0.80003 0.23918 0.0
C759 C 0.3588 0.81941 0.27785 0.0
C760 C 0.32747 0.81215 0.20224 0.0
O761 O 0.38074 0.82773 0.23622 0.0
O762 O 0.4334 0.82525 0.2109 0.0
C763 C 0.53275 0.81784 0.22366 0.0
N764 N 0.50617 0.81101 0.21435 0.0
C765 C 0.57463 0.80024 0.21584 0.0
C766 C 0.60289 0.80719 0.2253 0.0
C767 C 0.58182 0.81602 0.22925 0.0
C768 C 0.52606 0.80249 0.21048 0.0
H769 H 0.51654 0.82461 0.22686 0.0
C770 C 0.40918 0.8307 0.22257 0.0
O771 O 0.32024 0.81941 0.26629 0.0
O772 O 0.40007 0.8166 0.2702 0.0
N773 N 0.44857 0.79856 0.19805 0.0
C774 C 0.41576 0.79253 0.18948 0.0
C775 C 0.43065 0.78332 0.18498 0.0
C776 C 0.47915 0.78042 0.18921 0.0
C777 C 0.51247 0.7868 0.19773 0.0
C778 C 0.49566 0.79592 0.20172 0.0
H779 H 0.37837 0.7947 0.18629 0.0
O780 O 0.3604 0.80092 0.25062 0.0
O781 O 0.41698 0.80776 0.23184 0.0
O782 O 0.31846 0.8131 0.22082 0.0
O783 O 0.37113 0.81157 0.19505 0.0
C784 C 0.56141 0.78442 0.20278 0.0
C785 C 0.59246 0.79113 0.21184 0.0
H786 H 0.64064 0.80579 0.22976 0.0
H787 H 0.6033 0.82139 0.23665 0.0
H788 H 0.40473 0.77844 0.17839 0.0
H789 H 0.49032 0.77328 0.18594 0.0
H790 H 0.57536 0.77741 0.19997 0.0
H791 H 0.62984 0.78919 0.21585 0.0
Mn792 Mn 0.37472 0.81699 0.52153 0.0
Mn793 Mn 0.30828 0.81392 0.56335 0.0
C794 C 0.33949 0.80265 0.52778 0.0
C795 C 0.37566 0.8219 0.48849 0.0
C796 C 0.42011 0.81345 0.56272 0.0
O797 O 0.36316 0.8302 0.53092 0.0
O798 O 0.31892 0.8277 0.55873 0.0
C799 C 0.21467 0.82204 0.54849 0.0
N800 N 0.23994 0.81466 0.55638 0.0
C801 C 0.16713 0.80495 0.55606 0.0
C802 C 0.14021 0.81248 0.54808 0.0
C803 C 0.16412 0.82106 0.54427 0.0
C804 C 0.21733 0.80637 0.56009 0.0
H805 H 0.23299 0.82862 0.54539 0.0
C806 C 0.34039 0.83315 0.54622 0.0
O807 O 0.41626 0.82162 0.49884 0.0
O808 O 0.33538 0.81943 0.4974 0.0
N809 N 0.29493 0.80107 0.56985 0.0
C810 C 0.3265 0.79442 0.57701 0.0
C811 C 0.30862 0.78537 0.58125 0.0
C812 C 0.25846 0.78328 0.57823 0.0
C813 C 0.22651 0.79029 0.57119 0.0
C814 C 0.24636 0.7992 0.56739 0.0
H815 H 0.36516 0.79597 0.57921 0.0
O816 O 0.37577 0.8034 0.5153 0.0
O817 O 0.32395 0.81044 0.53591 0.0
O818 O 0.42552 0.81505 0.54409 0.0
O819 O 0.37802 0.81281 0.57126 0.0
C820 C 0.17596 0.78873 0.56744 0.0
C821 C 0.1463 0.79606 0.55987 0.0
H822 H 0.10129 0.81174 0.54469 0.0
H823 H 0.14366 0.82689 0.53801 0.0
H824 H 0.33351 0.78001 0.58668 0.0
H825 H 0.24493 0.77626 0.58128 0.0
H826 H 0.15963 0.7819 0.57014 0.0
H827 H 0.10758 0.79475 0.55686 0.0
Mn828 Mn 0.37655 0.94678 0.52238 0.0
Mn829 Mn 0.4464 0.95079 0.56293 0.0
C830 C 0.40761 0.96154 0.52788 0.0
C831 C 0.3729 0.94181 0.4894 0.0
C832 C 0.3347 0.94956 0.56436 0.0
O833 O 0.3941 0.93375 0.53163 0.0
O834 O 0.4416 0.93691 0.55829 0.0
C835 C 0.54181 0.94429 0.54645 0.0
N836 N 0.51402 0.95121 0.55482 0.0
C837 C 0.58194 0.96211 0.55342 0.0
C838 C 0.61142 0.95507 0.54492 0.0
C839 C 0.59123 0.94612 0.54141 0.0
C840 C 0.53307 0.95984 0.55827 0.0
H841 H 0.52629 0.93743 0.54357 0.0
C842 C 0.42043 0.93117 0.5463 0.0
O843 O 0.33386 0.94157 0.50068 0.0
O844 O 0.41342 0.94481 0.4974 0.0
N845 N 0.45431 0.96381 0.56929 0.0
C846 C 0.42043 0.96991 0.57692 0.0
C847 C 0.43438 0.97923 0.58088 0.0
C848 C 0.48304 0.98216 0.5771 0.0
C849 C 0.51746 0.97572 0.56955 0.0
C850 C 0.50154 0.9665 0.56607 0.0
H851 H 0.38291 0.9677 0.57976 0.0
O852 O 0.37012 0.96034 0.51615 0.0
O853 O 0.42648 0.95398 0.53577 0.0
O854 O 0.32788 0.94812 0.54577 0.0
O855 O 0.37738 0.95068 0.57217 0.0
C856 C 0.56667 0.97812 0.565 0.0
C857 C 0.59887 0.97132 0.55692 0.0
H858 H 0.64945 0.95647 0.54089 0.0
H859 H 0.61366 0.94067 0.53475 0.0
H860 H 0.40761 0.98416 0.58672 0.0
H861 H 0.4935 0.98938 0.57994 0.0
H862 H 0.57995 0.98521 0.56743 0.0
H863 H 0.63647 0.97329 0.55328 0.0
Mn864 Mn 0.5702 0.56572 0.25986 0.0
Mn865 Mn 0.47436 0.57962 0.24728 0.0
C866 C 0.57041 0.5731 0.22962 0.0
C867 C 0.6035 0.55064 0.2609 0.0
C868 C 0.55742 0.58604 0.2742 0.0
O869 O 0.51857 0.56232 0.28018 0.0
O870 O 0.456 0.57171 0.27069 0.0
C871 C 0.40698 0.56462 0.2334 0.0
N872 N 0.4321 0.57274 0.22981 0.0
C873 C 0.40092 0.57349 0.19637 0.0
C874 C 0.37438 0.56518 0.19975 0.0
C875 C 0.37749 0.56072 0.21834 0.0
C876 C 0.4294 0.57709 0.21199 0.0
H877 H 0.40954 0.56114 0.24762 0.0
C878 C 0.47499 0.56551 0.28221 0.0
O879 O 0.61938 0.55718 0.27283 0.0
O880 O 0.56813 0.55287 0.24886 0.0
N881 N 0.48618 0.58769 0.22505 0.0
C882 C 0.51577 0.59543 0.22394 0.0
C883 C 0.51805 0.60055 0.20613 0.0
C884 C 0.48948 0.59774 0.18975 0.0
C885 C 0.45871 0.58985 0.19135 0.0
C886 C 0.45773 0.58505 0.20952 0.0
H887 H 0.53788 0.5976 0.23648 0.0
O888 O 0.61105 0.56989 0.23721 0.0
O889 O 0.52998 0.57156 0.23969 0.0
O890 O 0.58235 0.57838 0.274 0.0
O891 O 0.5169 0.58716 0.26473 0.0
C892 C 0.42977 0.58644 0.17551 0.0
C893 C 0.40093 0.57826 0.17802 0.0
H894 H 0.35184 0.56212 0.18813 0.0
H895 H 0.35734 0.55428 0.22102 0.0
H896 H 0.54189 0.60663 0.205 0.0
H897 H 0.49165 0.60167 0.17598 0.0
H898 H 0.42991 0.58998 0.16127 0.0
H899 H 0.37928 0.57565 0.16566 0.0
Mn900 Mn 0.68419 0.69729 0.26226 0.0
Mn901 Mn 0.78995 0.6864 0.24947 0.0
C902 C 0.68946 0.68998 0.23203 0.0
C903 C 0.6414 0.71148 0.2634 0.0
C904 C 0.71323 0.67763 0.27662 0.0
O905 O 0.73251 0.70184 0.2829 0.0
O906 O 0.8024 0.69488 0.27258 0.0
C907 C 0.84282 0.70324 0.23488 0.0
N908 N 0.82465 0.69445 0.23155 0.0
C909 C 0.85291 0.69469 0.19766 0.0
C910 C 0.87228 0.70372 0.20076 0.0
C911 C 0.86712 0.70801 0.21945 0.0
C912 C 0.82913 0.69028 0.2136 0.0
H913 H 0.83867 0.70658 0.24919 0.0
C914 C 0.77844 0.70017 0.2846 0.0
O915 O 0.62941 0.70459 0.27519 0.0
O916 O 0.67795 0.71008 0.2514 0.0
N917 N 0.78427 0.67796 0.22745 0.0
C918 C 0.7634 0.66925 0.22691 0.0
C919 C 0.76495 0.66403 0.2092 0.0
C920 C 0.78849 0.66777 0.19236 0.0
C921 C 0.81074 0.67665 0.19342 0.0
C922 C 0.80819 0.68151 0.21149 0.0
H923 H 0.7453 0.66635 0.23982 0.0
O924 O 0.64681 0.69218 0.23941 0.0
O925 O 0.72816 0.69259 0.24216 0.0
O926 O 0.68166 0.68435 0.27606 0.0
O927 O 0.75467 0.67777 0.26743 0.0
C928 C 0.83509 0.68091 0.17725 0.0
C929 C 0.85595 0.68994 0.17934 0.0
H930 H 0.89095 0.70743 0.18889 0.0
H931 H 0.88175 0.71499 0.22193 0.0
H932 H 0.74791 0.65716 0.20853 0.0
H933 H 0.78934 0.66374 0.1787 0.0
H934 H 0.83782 0.67731 0.16311 0.0
H935 H 0.8742 0.69317 0.16674 0.0
Mn936 Mn 0.57563 0.69814 0.00156 0.0
Mn937 Mn 0.47301 0.68641 0.01517 0.0
C938 C 0.57293 0.69106 0.03209 0.0
C939 C 0.61432 0.71273 -0.0005 0.0
C940 C 0.55178 0.678 0.98847 0.0
O941 O 0.52598 0.70205 0.98089 0.0
O942 O 0.45841 0.6944 0.99147 0.0
C943 C 0.41635 0.70301 0.02863 0.0
N944 N 0.43644 0.69444 0.03254 0.0
C945 C 0.40794 0.69494 0.06638 0.0
C946 C 0.38662 0.70375 0.06269 0.0
C947 C 0.39095 0.70781 0.04374 0.0
C948 C 0.43287 0.6905 0.05075 0.0
H949 H 0.41983 0.70618 0.01411 0.0
C950 C 0.48069 0.69985 0.97924 0.0
O951 O 0.62819 0.70583 0.98809 0.0
O952 O 0.5786 0.71109 0.01176 0.0
N953 N 0.48043 0.67835 0.03772 0.0
C954 C 0.50252 0.66976 0.03875 0.0
C955 C 0.50154 0.66474 0.05671 0.0
C956 C 0.47719 0.66853 0.07331 0.0
C957 C 0.45361 0.67727 0.07174 0.0
C958 C 0.45565 0.68193 0.05344 0.0
H959 H 0.52111 0.6668 0.02601 0.0
O960 O 0.61477 0.69363 0.02448 0.0
O961 O 0.53333 0.69322 0.02203 0.0
O962 O 0.58109 0.68509 0.98831 0.0
O963 O 0.51061 0.67785 0.99787 0.0
C964 C 0.42823 0.68156 0.08762 0.0
C965 C 0.40565 0.69041 0.08498 0.0
H966 H 0.36702 0.70747 0.0743 0.0
H967 H 0.3748 0.71463 0.04079 0.0
H968 H 0.51955 0.65797 0.05776 0.0
H969 H 0.47663 0.66464 0.08714 0.0
H970 H 0.42593 0.67812 0.10195 0.0
H971 H 0.38655 0.69366 0.09734 0.0
Mn972 Mn 0.67633 0.56538 0.99596 0.0
Mn973 Mn 0.7765 0.57829 0.00759 0.0
C974 C 0.67939 0.57282 0.02611 0.0
C975 C 0.6406 0.55048 0.99547 0.0
C976 C 0.69441 0.5853 0.98069 0.0
O977 O 0.72589 0.56168 0.97503 0.0
O978 O 0.79281 0.5698 0.98487 0.0
C979 C 0.83966 0.56291 0.02276 0.0
N980 N 0.81662 0.57131 0.02568 0.0
C981 C 0.84722 0.57228 0.05918 0.0
C982 C 0.87163 0.56368 0.05648 0.0
C983 C 0.86777 0.55898 0.03819 0.0
C984 C 0.82011 0.5759 0.0432 0.0
H985 H 0.83646 0.55925 0.00877 0.0
C986 C 0.77091 0.56407 0.97308 0.0
O987 O 0.6248 0.55707 0.98364 0.0
O988 O 0.67711 0.55256 0.00704 0.0
N989 N 0.7665 0.58683 0.02918 0.0
C990 C 0.73879 0.59482 0.02965 0.0
C991 C 0.73734 0.60022 0.04711 0.0
C992 C 0.7647 0.59739 0.06381 0.0
C993 C 0.79353 0.58922 0.06286 0.0
C994 C 0.79381 0.58416 0.04501 0.0
H995 H 0.71754 0.59701 0.01688 0.0
O996 O 0.63773 0.56984 0.019 0.0
O997 O 0.7188 0.57093 0.01567 0.0
O998 O 0.66598 0.57813 0.98197 0.0
O999 O 0.7363 0.58594 0.98939 0.0
C1000 C 0.82114 0.58578 0.07905 0.0
C1001 C 0.84795 0.57732 0.07721 0.0
H1002 H 0.89305 0.56059 0.0684 0.0
H1003 H 0.88625 0.55231 0.03604 0.0
H1004 H 0.71501 0.60652 0.04773 0.0
H1005 H 0.76308 0.60152 0.07731 0.0
H1006 H 0.82152 0.58952 0.09306 0.0
H1007 H 0.86857 0.57469 0.08984 0.0
Mn1008 Mn 0.39321 0.44907 0.7426 0.0
Mn1009 Mn 0.32121 0.44946 0.70187 0.0
C1010 C 0.35157 0.46263 0.73469 0.0
C1011 C 0.39872 0.44509 0.77615 0.0
C1012 C 0.43321 0.45103 0.70038 0.0
O1013 O 0.38725 0.43542 0.73504 0.0
O1014 O 0.33307 0.43606 0.70974 0.0
C1015 C 0.22946 0.44206 0.71994 0.0
N1016 N 0.25357 0.44899 0.7099 0.0
C1017 C 0.17974 0.45837 0.70809 0.0
C1018 C 0.154 0.45131 0.71829 0.0
C1019 C 0.17901 0.44313 0.72428 0.0
C1020 C 0.22996 0.45691 0.70418 0.0
H1021 H 0.24864 0.43578 0.72463 0.0
C1022 C 0.36083 0.4315 0.7218 0.0
O1023 O 0.43825 0.44571 0.76521 0.0
O1024 O 0.3569 0.44677 0.76757 0.0
N1025 N 0.30657 0.46183 0.69247 0.0
C1026 C 0.33711 0.46807 0.68322 0.0
C1027 C 0.31793 0.47663 0.67633 0.0
C1028 C 0.26756 0.47867 0.67888 0.0
C1029 C 0.23682 0.47213 0.6884 0.0
C1030 C 0.25792 0.46367 0.69476 0.0
H1031 H 0.3758 0.46652 0.68112 0.0
O1032 O 0.38859 0.46284 0.74691 0.0
O1033 O 0.33888 0.45437 0.72805 0.0
O1034 O 0.441 0.45104 0.71916 0.0
O1035 O 0.39022 0.45025 0.69263 0.0
C1036 C 0.18616 0.4737 0.6919 0.0
C1037 C 0.15769 0.46684 0.70183 0.0
H1038 H 0.11511 0.45211 0.7217 0.0
H1039 H 0.15945 0.43766 0.73224 0.0
H1040 H 0.34188 0.48165 0.66902 0.0
H1041 H 0.25291 0.48525 0.67341 0.0
H1042 H 0.16878 0.48018 0.68717 0.0
H1043 H 0.11889 0.46816 0.70462 0.0
Mn1044 Mn 0.35522 0.31374 0.74325 0.0
Mn1045 Mn 0.43283 0.31222 0.70431 0.0
C1046 C 0.39616 0.29989 0.73758 0.0
C1047 C 0.34591 0.31839 0.77626 0.0
C1048 C 0.32098 0.31114 0.70036 0.0
O1049 O 0.36423 0.32717 0.73472 0.0
O1050 O 0.42177 0.32583 0.71076 0.0
C1051 C 0.52293 0.31959 0.72372 0.0
N1052 N 0.49931 0.31255 0.71383 0.0
C1053 C 0.57154 0.30272 0.71514 0.0
C1054 C 0.5968 0.30989 0.7252 0.0
C1055 C 0.57235 0.31836 0.72952 0.0
C1056 C 0.52246 0.30438 0.70959 0.0
H1057 H 0.50412 0.32608 0.72721 0.0
C1058 C 0.3931 0.33074 0.72186 0.0
O1059 O 0.30772 0.31772 0.76458 0.0
O1060 O 0.3885 0.31636 0.7687 0.0
N1061 N 0.44705 0.29958 0.69645 0.0
C1062 C 0.41683 0.29323 0.68739 0.0
C1063 C 0.43527 0.2843 0.6825 0.0
C1064 C 0.48458 0.28201 0.68684 0.0
C1065 C 0.51517 0.28871 0.6959 0.0
C1066 C 0.49489 0.29753 0.70026 0.0
H1067 H 0.37883 0.29493 0.6841 0.0
O1068 O 0.35735 0.30006 0.74887 0.0
O1069 O 0.41076 0.30794 0.73047 0.0
O1070 O 0.31056 0.31153 0.71892 0.0
O1071 O 0.3651 0.31156 0.69356 0.0
C1072 C 0.5647 0.28693 0.70112 0.0
C1073 C 0.59285 0.29392 0.71075 0.0
H1074 H 0.63481 0.30894 0.72982 0.0
H1075 H 0.5915 0.3239 0.73738 0.0
H1076 H 0.41143 0.27917 0.6755 0.0
H1077 H 0.49849 0.27508 0.68327 0.0
H1078 H 0.58131 0.28016 0.69802 0.0
H1079 H 0.63072 0.29243 0.71489 0.0
Mn1080 Mn 0.36816 0.31632 0.02011 0.0
Mn1081 Mn 0.30475 0.31337 0.0627 0.0
C1082 C 0.33422 0.30195 0.02713 0.0
C1083 C 0.36621 0.32102 0.98691 0.0
C1084 C 0.41663 0.31324 0.06085 0.0
O1085 O 0.3565 0.32957 0.02933 0.0
O1086 O 0.31347 0.32715 0.05749 0.0
C1087 C 0.20913 0.32097 0.04871 0.0
N1088 N 0.23588 0.31376 0.05651 0.0
C1089 C 0.16435 0.30372 0.05729 0.0
C1090 C 0.13593 0.31107 0.04941 0.0
C1091 C 0.15845 0.31973 0.04509 0.0
C1092 C 0.2146 0.30539 0.06072 0.0
H1093 H 0.2264 0.32761 0.04521 0.0
C1094 C 0.33411 0.33256 0.04468 0.0
O1095 O 0.40761 0.3209 0.99676 0.0
O1096 O 0.32683 0.31852 0.99642 0.0
N1097 N 0.29351 0.30052 0.06976 0.0
C1098 C 0.32643 0.29407 0.07674 0.0
C1099 C 0.31004 0.28496 0.0814 0.0
C1100 C 0.25999 0.28262 0.07898 0.0
C1101 C 0.22666 0.28943 0.07212 0.0
C1102 C 0.24505 0.29841 0.06788 0.0
H1103 H 0.36499 0.29582 0.07851 0.0
O1104 O 0.36954 0.30269 0.01422 0.0
O1105 O 0.31887 0.30975 0.03523 0.0
O1106 O 0.42074 0.31461 0.04209 0.0
O1107 O 0.3751 0.31264 0.06984 0.0
C1108 C 0.17608 0.28761 0.06898 0.0
C1109 C 0.14496 0.29475 0.06155 0.0
H1110 H 0.0969 0.31012 0.04648 0.0
H1111 H 0.13682 0.32542 0.0389 0.0
H1112 H 0.33598 0.27975 0.08671 0.0
H1113 H 0.2476 0.27556 0.08236 0.0
H1114 H 0.16085 0.28072 0.07203 0.0
H1115 H 0.10624 0.29324 0.05902 0.0
Mn1116 Mn 0.37921 0.44655 0.02061 0.0
Mn1117 Mn 0.44661 0.45004 0.06202 0.0
C1118 C 0.41159 0.46114 0.02681 0.0
C1119 C 0.37848 0.44175 0.98747 0.0
C1120 C 0.33461 0.44937 0.06211 0.0
O1121 O 0.39408 0.43339 0.02987 0.0
O1122 O 0.44057 0.43621 0.05697 0.0
C1123 C 0.54237 0.44322 0.04647 0.0
N1124 N 0.51481 0.45022 0.05468 0.0
C1125 C 0.58395 0.46085 0.0542 0.0
C1126 C 0.61321 0.45373 0.04589 0.0
C1127 C 0.5923 0.44488 0.04199 0.0
C1128 C 0.53454 0.45876 0.0585 0.0
H1129 H 0.52631 0.43644 0.04329 0.0
C1130 C 0.41928 0.43062 0.0447 0.0
O1131 O 0.33813 0.44167 0.998 0.0
O1132 O 0.41841 0.44448 0.99629 0.0
N1133 N 0.45556 0.46299 0.06879 0.0
C1134 C 0.42188 0.46918 0.07622 0.0
C1135 C 0.43658 0.47843 0.08053 0.0
C1136 C 0.48576 0.48118 0.07728 0.0
C1137 C 0.51993 0.47464 0.06995 0.0
C1138 C 0.50325 0.4655 0.06611 0.0
H1139 H 0.38397 0.46711 0.07864 0.0
O1140 O 0.37508 0.46015 0.01452 0.0
O1141 O 0.42891 0.45346 0.03477 0.0
O1142 O 0.32872 0.44806 0.04341 0.0
O1143 O 0.37695 0.45019 0.07038 0.0
C1144 C 0.56966 0.47687 0.06595 0.0
C1145 C 0.60164 0.46998 0.05807 0.0
H1146 H 0.65164 0.455 0.04229 0.0
H1147 H 0.61456 0.43937 0.03547 0.0
H1148 H 0.40999 0.48343 0.08621 0.0
H1149 H 0.49681 0.48835 0.08039 0.0
H1150 H 0.58356 0.48389 0.06867 0.0
H1151 H 0.63967 0.47181 0.05487 0.0
H1152 H 0.21937 0.06286 0.06066 0.0
H1153 H 0.2038 0.06544 0.09608 0.0
H1154 H 0.12061 0.09046 0.08205 0.0
H1155 H 0.13453 0.08762 0.04652 0.0
H1156 H 0.22118 0.07886 0.12265 0.0
H1157 H 0.01874 0.0754 0.11115 0.0
H1158 H 0.06284 0.07306 0.09171 0.0
H1159 H 0.04623 0.08496 0.09776 0.0
C1160 C 0.19884 0.06903 0.06526 0.0
C1161 C 0.17894 0.07517 0.0511 0.0
C1162 C 0.18971 0.07048 0.08543 0.0
C1163 C 0.16015 0.07804 0.09168 0.0
C1164 C 0.14243 0.08446 0.07753 0.0
H1165 H 0.13128 0.08578 0.22065 0.0
H1166 H 0.14519 0.08933 0.18542 0.0
C1167 C 0.15084 0.08291 0.05733 0.0
C1168 C 0.14553 0.07876 0.11284 0.0
H1169 H 0.0456 0.07826 0.14384 0.0
C1170 C 0.1828 0.07879 0.12731 0.0
C1171 C 0.09534 0.07854 0.11885 0.0
C1172 C 0.05346 0.0779 0.10409 0.0
C1173 C 0.17144 0.07833 0.14762 0.0
C1174 C 0.12126 0.0782 0.15363 0.0
C1175 C 0.08396 0.07845 0.13918 0.0
C1176 C 0.10677 0.07698 0.1747 0.0
C1177 C 0.21342 0.07748 0.16229 0.0
C1178 C 0.07786 0.0692 0.18028 0.0
C1179 C 0.06866 0.06736 0.20031 0.0
C1180 C 0.08785 0.0733 0.21499 0.0
C1181 C 0.11547 0.08121 0.20944 0.0
C1182 C 0.12389 0.08317 0.1894 0.0
H1183 H 0.24829 0.07524 0.15498 0.0
H1184 H 0.22014 0.08442 0.1693 0.0
H1185 H 0.20448 0.07234 0.17418 0.0
H1186 H 0.06423 0.06434 0.16919 0.0
H1187 H 0.04852 0.06106 0.20438 0.0
H1188 H 0.12713 0.17745 0.04458 0.0
H1189 H 0.14186 0.17477 0.07989 0.0
H1190 H 0.01935 0.19299 0.09428 0.0
H1191 H 0.00762 0.19628 0.0589 0.0
H1192 H 0.09469 0.19842 0.11298 0.0
H1193 H 0.0866 0.16008 0.12424 0.0
H1194 H 0.12923 0.16281 0.10472 0.0
H1195 H 0.0646 0.16557 0.10175 0.0
C1196 C 0.10246 0.18063 0.05533 0.0
C1197 C 0.06512 0.1868 0.04912 0.0
C1198 C 0.11056 0.17903 0.07552 0.0
C1199 C 0.08113 0.18351 0.08984 0.0
C1200 C 0.04229 0.18937 0.08353 0.0
H1201 H 0.11258 0.1772 0.21713 0.0
H1202 H 0.09325 0.17473 0.18202 0.0
C1203 C 0.03501 0.19114 0.06333 0.0
C1204 C 0.09577 0.18329 0.1111 0.0
H1205 H 0.13347 0.16885 0.1487 0.0
C1206 C 0.10241 0.19193 0.12084 0.0
C1207 C 0.10573 0.17485 0.12147 0.0
C1208 C 0.09561 0.16532 0.11253 0.0
C1209 C 0.11918 0.19238 0.14048 0.0
C1210 C 0.13229 0.18397 0.15042 0.0
C1211 C 0.12477 0.17531 0.14088 0.0
C1212 C 0.15043 0.18407 0.17122 0.0
C1213 C 0.12124 0.20188 0.15046 0.0
C1214 C 0.19056 0.18977 0.17678 0.0
C1215 C 0.20072 0.19136 0.19685 0.0
C1216 C 0.17275 0.18686 0.21156 0.0
C1217 C 0.13524 0.18059 0.20596 0.0
C1218 C 0.12425 0.17918 0.18594 0.0
H1219 H 0.09655 0.20704 0.14302 0.0
H1220 H 0.11035 0.20141 0.16633 0.0
H1221 H 0.15947 0.20467 0.14959 0.0
H1222 H 0.21209 0.19343 0.16565 0.0
H1223 H 0.22853 0.1965 0.20085 0.0
H1224 H 0.92667 0.94138 0.95582 0.0
H1225 H 0.92401 0.93821 0.92033 0.0
H1226 H 0.7652 0.93601 0.92291 0.0
H1227 H 0.76743 0.93937 0.95873 0.0
H1228 H 0.88676 0.92332 0.89765 0.0
H1229 H 0.78945 0.957 0.88219 0.0
H1230 H 0.81692 0.95444 0.906 0.0
H1231 H 0.75897 0.94919 0.89921 0.0
C1232 C 0.89106 0.94018 0.94894 0.0
C1233 C 0.84713 0.94075 0.96005 0.0
C1234 C 0.8897 0.93831 0.92863 0.0
C1235 C 0.84444 0.937 0.91895 0.0
C1236 C 0.8005 0.93715 0.93009 0.0
H1237 H 0.78689 0.93688 0.7923 0.0
H1238 H 0.78002 0.93441 0.82801 0.0
C1239 C 0.80181 0.93904 0.95053 0.0
C1240 C 0.84384 0.93606 0.89704 0.0
H1241 H 0.8104 0.94765 0.85476 0.0
C1242 C 0.8697 0.92858 0.88823 0.0
C1243 C 0.82193 0.94299 0.88483 0.0
C1244 C 0.79557 0.95141 0.89345 0.0
C1245 C 0.87438 0.92787 0.86749 0.0
C1246 C 0.85323 0.9349 0.85533 0.0
C1247 C 0.82655 0.94226 0.86414 0.0
C1248 C 0.85873 0.93495 0.83343 0.0
C1249 C 0.90173 0.91961 0.85877 0.0
C1250 C 0.90548 0.93586 0.82452 0.0
C1251 C 0.90961 0.93724 0.80396 0.0
C1252 C 0.86696 0.93784 0.79214 0.0
C1253 C 0.82046 0.93652 0.80103 0.0
C1254 C 0.81641 0.9351 0.82145 0.0
H1255 H 0.90385 0.91366 0.86943 0.0
H1256 H 0.88371 0.91713 0.84491 0.0
H1257 H 0.94002 0.92178 0.85509 0.0
H1258 H 0.93859 0.93594 0.83355 0.0
H1259 H 0.94586 0.93827 0.79751 0.0
H1260 H 0.97121 0.82232 0.96074 0.0
H1261 H 0.96975 0.82506 0.92467 0.0
H1262 H 0.81045 0.82454 0.9255 0.0
H1263 H 0.8115 0.82193 0.96121 0.0
H1264 H 0.92811 0.81286 0.89703 0.0
H1265 H 0.83843 0.84777 0.89204 0.0
H1266 H 0.86514 0.84337 0.9148 0.0
H1267 H 0.80464 0.83959 0.90711 0.0
C1268 C 0.93595 0.82293 0.95324 0.0
C1269 C 0.89152 0.82189 0.96381 0.0
C1270 C 0.93514 0.8245 0.93267 0.0
C1271 C 0.88994 0.82515 0.92247 0.0
C1272 C 0.84569 0.82429 0.9331 0.0
H1273 H 0.79126 0.82241 0.79991 0.0
H1274 H 0.79629 0.82416 0.83624 0.0
C1275 C 0.84645 0.8227 0.95354 0.0
C1276 C 0.88855 0.82587 0.90051 0.0
H1277 H 0.84038 0.83866 0.8621 0.0
C1278 C 0.90952 0.81856 0.88938 0.0
C1279 C 0.86373 0.83327 0.89058 0.0
C1280 C 0.84209 0.84149 0.90174 0.0
C1281 C 0.90526 0.81831 0.86862 0.0
C1282 C 0.88007 0.82565 0.85871 0.0
C1283 C 0.85946 0.83302 0.86978 0.0
C1284 C 0.87579 0.82579 0.83678 0.0
C1285 C 0.92663 0.81003 0.8575 0.0
C1286 C 0.9185 0.82649 0.82514 0.0
C1287 C 0.91575 0.82546 0.80458 0.0
C1288 C 0.87014 0.82379 0.79521 0.0
C1289 C 0.82687 0.82368 0.80675 0.0
C1290 C 0.82972 0.82466 0.82745 0.0
H1291 H 0.93402 0.80398 0.8675 0.0
H1292 H 0.90128 0.8077 0.8455 0.0
H1293 H 0.96213 0.81215 0.85057 0.0
H1294 H 0.95425 0.82754 0.83203 0.0
H1295 H 0.94972 0.82571 0.79608 0.0
H1296 H 0.11303 0.5885 0.71558 0.0
H1297 H 0.13066 0.59324 0.68132 0.0
H1298 H 0.04613 0.56956 0.65998 0.0
H1299 H 0.02638 0.56519 0.69421 0.0
H1300 H 0.18409 0.58386 0.65755 0.0
H1301 H 0.00462 0.58827 0.62 0.0
H1302 H 0.01052 0.58818 0.64669 0.0
H1303 H 0.00583 0.5773 0.63306 0.0
C1304 C 0.09661 0.58458 0.70346 0.0
C1305 C 0.06715 0.57669 0.70733 0.0
C1306 C 0.1069 0.58724 0.68393 0.0
C1307 C 0.08928 0.58184 0.66797 0.0
C1308 C 0.05878 0.57405 0.67191 0.0
H1309 H 0.23347 0.5666 0.56145 0.0
H1310 H 0.2134 0.57051 0.59588 0.0
C1311 C 0.0476 0.57152 0.69146 0.0
C1312 C 0.10828 0.58352 0.64757 0.0
H1313 H 0.07329 0.58378 0.59895 0.0
C1314 C 0.15971 0.58404 0.64477 0.0
C1315 C 0.0768 0.584 0.63084 0.0
C1316 C 0.02137 0.58452 0.63282 0.0
C1317 C 0.18045 0.58446 0.6257 0.0
C1318 C 0.14908 0.58395 0.60894 0.0
C1319 C 0.0976 0.584 0.61175 0.0
C1320 C 0.16843 0.58264 0.58849 0.0
C1321 C 0.2357 0.58546 0.62372 0.0
C1322 C 0.15002 0.58812 0.57281 0.0
C1323 C 0.16066 0.58574 0.55316 0.0
C1324 C 0.1911 0.57803 0.54889 0.0
C1325 C 0.21147 0.5728 0.5645 0.0
C1326 C 0.20007 0.57506 0.58417 0.0
H1327 H 0.25171 0.58912 0.63681 0.0
H1328 H 0.25285 0.57839 0.62288 0.0
H1329 H 0.24557 0.58946 0.61013 0.0
H1330 H 0.12535 0.59395 0.57573 0.0
H1331 H 0.14362 0.5897 0.54123 0.0
H1332 H 0.22873 0.69699 0.70442 0.0
H1333 H 0.21331 0.69394 0.66916 0.0
H1334 H 0.09478 0.67506 0.68494 0.0
H1335 H 0.11337 0.67746 0.72013 0.0
H1336 H 0.13496 0.66938 0.65162 0.0
H1337 H 0.0982 0.70758 0.64654 0.0
H1338 H 0.16108 0.70522 0.65315 0.0
H1339 H 0.11185 0.70188 0.66976 0.0
C1340 C 0.20131 0.6918 0.70029 0.0
C1341 C 0.17321 0.68723 0.71486 0.0
C1342 C 0.19168 0.69023 0.68018 0.0
C1343 C 0.15182 0.68451 0.67442 0.0
C1344 C 0.12556 0.67953 0.689 0.0
H1345 H 0.01118 0.6973 0.562 0.0
H1346 H 0.02242 0.6939 0.59735 0.0
C1347 C 0.13613 0.68091 0.70907 0.0
C1348 C 0.13394 0.68449 0.6536 0.0
H1349 H 0.09716 0.6991 0.61631 0.0
C1350 C 0.12644 0.67587 0.64389 0.0
C1351 C 0.12103 0.69294 0.64377 0.0
C1352 C 0.12289 0.70241 0.65392 0.0
C1353 C 0.10764 0.67549 0.62444 0.0
C1354 C 0.098 0.68398 0.61418 0.0
C1355 C 0.10463 0.69257 0.62407 0.0
C1356 C 0.0836 0.68429 0.5929 0.0
C1357 C 0.09739 0.666 0.61535 0.0
C1358 C 0.11286 0.67977 0.57856 0.0
C1359 C 0.10491 0.68142 0.55839 0.0
C1360 C 0.06798 0.68768 0.55219 0.0
C1361 C 0.03818 0.69209 0.56642 0.0
C1362 C 0.04521 0.69025 0.5866 0.0
H1363 H 0.08795 0.66075 0.62697 0.0
H1364 H 0.06662 0.66631 0.60447 0.0
H1365 H 0.13109 0.66347 0.60764 0.0
H1366 H 0.14387 0.67544 0.58292 0.0
H1367 H 0.12938 0.67819 0.54762 0.0
H1368 H 0.95338 0.44492 0.46081 0.0
H1369 H 0.9531 0.44263 0.42496 0.0
H1370 H 0.79471 0.43935 0.42591 0.0
H1371 H 0.79451 0.4418 0.46205 0.0
H1372 H 0.92032 0.42793 0.401 0.0
H1373 H 0.81655 0.46097 0.38663 0.0
H1374 H 0.8432 0.45829 0.41053 0.0
H1375 H 0.78647 0.45279 0.40296 0.0
C1376 C 0.91837 0.44368 0.45347 0.0
C1377 C 0.87382 0.44364 0.46425 0.0
C1378 C 0.91838 0.44234 0.43296 0.0
C1379 C 0.8739 0.44095 0.42275 0.0
C1380 C 0.8294 0.44057 0.4335 0.0
H1381 H 0.8099 0.43967 0.29711 0.0
H1382 H 0.80756 0.43776 0.33305 0.0
C1383 C 0.82933 0.44193 0.45412 0.0
C1384 C 0.87453 0.44031 0.40078 0.0
H1385 H 0.83753 0.45177 0.35882 0.0
C1386 C 0.90206 0.43311 0.39174 0.0
C1387 C 0.85107 0.44714 0.38878 0.0
C1388 C 0.82299 0.45529 0.39765 0.0
C1389 C 0.90638 0.43251 0.37097 0.0
C1390 C 0.8831 0.43937 0.35901 0.0
C1391 C 0.85529 0.44652 0.36806 0.0
C1392 C 0.88641 0.43931 0.33704 0.0
C1393 C 0.93526 0.42451 0.36197 0.0
C1394 C 0.9318 0.44065 0.32727 0.0
C1395 C 0.93335 0.44172 0.30657 0.0
C1396 C 0.88942 0.44157 0.29545 0.0
C1397 C 0.8444 0.43989 0.30526 0.0
C1398 C 0.84293 0.43878 0.32581 0.0
H1399 H 0.94066 0.41867 0.37272 0.0
H1400 H 0.91631 0.42172 0.34858 0.0
H1401 H 0.97222 0.4271 0.35739 0.0
H1402 H 0.96572 0.44124 0.33571 0.0
H1403 H 0.96849 0.44305 0.2994 0.0
H1404 H 0.78361 0.32108 0.29557 0.0
H1405 H 0.78368 0.3233 0.3318 0.0
H1406 H 0.94301 0.32319 0.33181 0.0
H1407 H 0.94332 0.32109 0.29594 0.0
H1408 H 0.82551 0.31077 0.35891 0.0
H1409 H 0.91196 0.34587 0.36657 0.0
H1410 H 0.88617 0.34172 0.34342 0.0
H1411 H 0.94682 0.33803 0.3511 0.0
C1412 C 0.81856 0.32168 0.30329 0.0
C1413 C 0.86341 0.32089 0.29291 0.0
C1414 C 0.81858 0.32294 0.32395 0.0
C1415 C 0.86339 0.32355 0.33445 0.0
C1416 C 0.90804 0.32296 0.324 0.0
H1417 H 0.95957 0.32025 0.45737 0.0
H1418 H 0.95488 0.3219 0.42102 0.0
C1419 C 0.90808 0.32167 0.30347 0.0
C1420 C 0.86403 0.32395 0.35645 0.0
H1421 H 0.91002 0.33632 0.39588 0.0
C1422 C 0.8434 0.31642 0.36701 0.0
C1423 C 0.88791 0.33128 0.36696 0.0
C1424 C 0.90908 0.33973 0.35645 0.0
C1425 C 0.84714 0.31587 0.38777 0.0
C1426 C 0.87145 0.32314 0.39826 0.0
C1427 C 0.89167 0.33073 0.38776 0.0
C1428 C 0.87514 0.323 0.42022 0.0
C1429 C 0.8262 0.30738 0.39825 0.0
C1430 C 0.8321 0.32338 0.43173 0.0
C1431 C 0.83465 0.32241 0.45231 0.0
C1432 C 0.8804 0.32112 0.46186 0.0
C1433 C 0.92383 0.3212 0.45041 0.0
C1434 C 0.92119 0.32214 0.42969 0.0
H1435 H 0.81991 0.30143 0.38785 0.0
H1436 H 0.85125 0.30498 0.4103 0.0
H1437 H 0.79016 0.30926 0.40503 0.0
H1438 H 0.79632 0.32423 0.42473 0.0
H1439 H 0.8005 0.3225 0.4607 0.0
H1440 H 0.6357 0.08589 0.71723 0.0
H1441 H 0.64832 0.08858 0.68181 0.0
H1442 H 0.52698 0.06989 0.66855 0.0
H1443 H 0.51779 0.06653 0.704 0.0
H1444 H 0.60042 0.06473 0.649 0.0
H1445 H 0.59053 0.10304 0.63793 0.0
H1446 H 0.63454 0.10043 0.657 0.0
H1447 H 0.57026 0.09754 0.66067 0.0
C1448 C 0.61082 0.0826 0.70671 0.0
C1449 C 0.57454 0.07628 0.71327 0.0
C1450 C 0.61769 0.08421 0.68645 0.0
C1451 C 0.58797 0.07961 0.67239 0.0
C1452 C 0.55014 0.0736 0.67907 0.0
H1453 H 0.61596 0.08641 0.54483 0.0
H1454 H 0.59737 0.08876 0.58004 0.0
C1455 C 0.54424 0.0718 0.69932 0.0
C1456 C 0.60141 0.07986 0.65099 0.0
H1457 H 0.63727 0.09437 0.6132 0.0
C1458 C 0.60764 0.07124 0.64114 0.0
C1459 C 0.61067 0.08832 0.64056 0.0
C1460 C 0.60057 0.09784 0.64957 0.0
C1461 C 0.62339 0.07082 0.62135 0.0
C1462 C 0.63615 0.07925 0.61138 0.0
C1463 C 0.62892 0.08789 0.62103 0.0
C1464 C 0.65381 0.07918 0.5905 0.0
C1465 C 0.62473 0.06133 0.61129 0.0
C1466 C 0.69333 0.07338 0.5847 0.0
C1467 C 0.70291 0.07182 0.56457 0.0
C1468 C 0.67519 0.07649 0.55003 0.0
C1469 C 0.63845 0.08288 0.55586 0.0
C1470 C 0.62788 0.08423 0.57595 0.0
H1471 H 0.59985 0.05622 0.61876 0.0
H1472 H 0.61359 0.06185 0.59545 0.0
H1473 H 0.66279 0.05846 0.61205 0.0
H1474 H 0.71479 0.06961 0.59568 0.0
H1475 H 0.73 0.06658 0.56041 0.0
H1476 H 0.64188 0.17463 0.71774 0.0
H1477 H 0.623 0.17023 0.68338 0.0
H1478 H 0.71029 0.19365 0.66254 0.0
H1479 H 0.73103 0.19769 0.69684 0.0
H1480 H 0.57045 0.18018 0.65998 0.0
H1481 H 0.74879 0.17489 0.62205 0.0
H1482 H 0.74305 0.17479 0.64874 0.0
H1483 H 0.74957 0.18574 0.63551 0.0
C1484 C 0.6586 0.17856 0.7057 0.0
C1485 C 0.68906 0.18629 0.70973 0.0
C1486 C 0.6476 0.1761 0.68613 0.0
C1487 C 0.66566 0.18152 0.67029 0.0
C1488 C 0.69723 0.18914 0.67438 0.0
H1489 H 0.52273 0.19825 0.56434 0.0
H1490 H 0.54218 0.19401 0.59866 0.0
C1491 C 0.70901 0.19148 0.69397 0.0
C1492 C 0.64618 0.18008 0.64989 0.0
H1493 H 0.68082 0.17995 0.60125 0.0
C1494 C 0.59467 0.17993 0.64715 0.0
C1495 C 0.67744 0.17952 0.63311 0.0
C1496 C 0.73277 0.17864 0.63502 0.0
C1497 C 0.57373 0.17979 0.62809 0.0
C1498 C 0.60507 0.18021 0.61131 0.0
C1499 C 0.65654 0.1798 0.61406 0.0
C1500 C 0.58591 0.18177 0.5909 0.0
C1501 C 0.51829 0.1792 0.6262 0.0
C1502 C 0.60387 0.17634 0.57504 0.0
C1503 C 0.59378 0.17894 0.55547 0.0
C1504 C 0.56415 0.18679 0.55144 0.0
C1505 C 0.54411 0.19196 0.5672 0.0
C1506 C 0.55512 0.1895 0.58681 0.0
H1507 H 0.50183 0.17543 0.63905 0.0
H1508 H 0.5025 0.18639 0.626 0.0
H1509 H 0.50733 0.17552 0.61235 0.0
H1510 H 0.62784 0.17038 0.57777 0.0
H1511 H 0.61059 0.17501 0.54343 0.0
H1512 H 0.45131 0.94052 0.46439 0.0
H1513 H 0.45021 0.93819 0.42854 0.0
H1514 H 0.29179 0.93501 0.43005 0.0
H1515 H 0.29243 0.93749 0.46618 0.0
H1516 H 0.41528 0.92369 0.40381 0.0
H1517 H 0.31427 0.95731 0.39216 0.0
H1518 H 0.3418 0.95423 0.41569 0.0
H1519 H 0.28448 0.94895 0.40818 0.0
C1520 C 0.41615 0.93925 0.45718 0.0
C1521 C 0.37182 0.93931 0.46809 0.0
C1522 C 0.41569 0.93788 0.43667 0.0
C1523 C 0.37092 0.93657 0.42662 0.0
C1524 C 0.32669 0.93617 0.43753 0.0
H1525 H 0.31113 0.93858 0.30022 0.0
H1526 H 0.30574 0.93589 0.3359 0.0
C1527 C 0.32711 0.93754 0.45815 0.0
C1528 C 0.37091 0.93624 0.40462 0.0
H1529 H 0.33572 0.9487 0.36368 0.0
C1530 C 0.3976 0.92911 0.39499 0.0
C1531 C 0.34818 0.94338 0.3932 0.0
C1532 C 0.32088 0.95145 0.40276 0.0
C1533 C 0.40208 0.92891 0.37419 0.0
C1534 C 0.37992 0.93612 0.36282 0.0
C1535 C 0.35264 0.94317 0.37245 0.0
C1536 C 0.38457 0.93663 0.3409 0.0
C1537 C 0.4301 0.92096 0.36456 0.0
C1538 C 0.43089 0.93782 0.33178 0.0
C1539 C 0.43418 0.93933 0.31124 0.0
C1540 C 0.39112 0.93979 0.29962 0.0
C1541 C 0.34503 0.93832 0.30877 0.0
C1542 C 0.34182 0.93677 0.32917 0.0
H1543 H 0.4333 0.9148 0.37462 0.0
H1544 H 0.41189 0.9187 0.35057 0.0
H1545 H 0.46799 0.92338 0.36088 0.0
H1546 H 0.46431 0.93791 0.34062 0.0
H1547 H 0.47014 0.94048 0.30462 0.0
H1548 H 0.29478 0.82643 0.46677 0.0
H1549 H 0.28928 0.82851 0.43088 0.0
H1550 H 0.44701 0.82498 0.42585 0.0
H1551 H 0.45303 0.823 0.46209 0.0
H1552 H 0.40362 0.83957 0.40058 0.0
H1553 H 0.3068 0.80522 0.39476 0.0
H1554 H 0.27948 0.81344 0.41178 0.0
H1555 H 0.33987 0.80876 0.41681 0.0
C1556 C 0.32848 0.8262 0.45809 0.0
C1557 C 0.37432 0.82442 0.4672 0.0
C1558 C 0.32518 0.82737 0.43758 0.0
C1559 C 0.36754 0.8267 0.42572 0.0
C1560 C 0.41384 0.82546 0.43481 0.0
H1561 H 0.43662 0.82209 0.30257 0.0
H1562 H 0.43512 0.82522 0.33808 0.0
C1563 C 0.41725 0.82434 0.45546 0.0
C1564 C 0.36277 0.82669 0.40382 0.0
H1565 H 0.31448 0.81406 0.36532 0.0
C1566 C 0.38413 0.83401 0.39283 0.0
C1567 C 0.33701 0.81944 0.39381 0.0
C1568 C 0.31478 0.81122 0.40483 0.0
C1569 C 0.38038 0.83427 0.37202 0.0
C1570 C 0.35532 0.82694 0.362 0.0
C1571 C 0.33326 0.81971 0.37304 0.0
C1572 C 0.35548 0.82609 0.34006 0.0
C1573 C 0.40309 0.84241 0.36094 0.0
C1574 C 0.31104 0.82544 0.32933 0.0
C1575 C 0.3117 0.82358 0.30888 0.0
C1576 C 0.35684 0.82222 0.29898 0.0
C1577 C 0.40117 0.82309 0.30974 0.0
C1578 C 0.40046 0.82498 0.33005 0.0
H1579 H 0.40642 0.84872 0.37057 0.0
H1580 H 0.44079 0.84043 0.35599 0.0
H1581 H 0.38097 0.84427 0.34761 0.0
H1582 H 0.27588 0.82618 0.33686 0.0
H1583 H 0.27701 0.82292 0.30098 0.0
H1584 H 0.73493 0.56643 0.05692 0.0
H1585 H 0.72055 0.56959 0.09222 0.0
H1586 H 0.60316 0.58877 0.0767 0.0
H1587 H 0.62065 0.58623 0.04147 0.0
H1588 H 0.64451 0.59437 0.10992 0.0
H1589 H 0.60456 0.55627 0.1151 0.0
H1590 H 0.66753 0.5585 0.10838 0.0
H1591 H 0.61834 0.56193 0.09184 0.0
C1592 C 0.70802 0.5717 0.06111 0.0
C1593 C 0.67983 0.5763 0.0466 0.0
C1594 C 0.69899 0.57335 0.08124 0.0
C1595 C 0.65969 0.57919 0.0871 0.0
C1596 C 0.63351 0.58421 0.07257 0.0
H1597 H 0.51397 0.56712 0.19878 0.0
H1598 H 0.52771 0.57039 0.16351 0.0
C1599 C 0.64345 0.58275 0.05247 0.0
C1600 C 0.64204 0.57926 0.10796 0.0
H1601 H 0.60318 0.56481 0.14519 0.0
C1602 C 0.63529 0.58792 0.11764 0.0
C1603 C 0.62828 0.57086 0.11779 0.0
C1604 C 0.62949 0.56138 0.10768 0.0
C1605 C 0.61618 0.58837 0.13704 0.0
C1606 C 0.60539 0.57992 0.14727 0.0
C1607 C 0.6115 0.5713 0.13743 0.0
C1608 C 0.59 0.57968 0.16844 0.0
C1609 C 0.60674 0.5979 0.14609 0.0
C1610 C 0.61914 0.58406 0.183 0.0
C1611 C 0.60987 0.58249 0.20311 0.0
C1612 C 0.57166 0.57645 0.20903 0.0
C1613 C 0.54201 0.57217 0.19457 0.0
C1614 C 0.55044 0.57393 0.17444 0.0
H1615 H 0.59849 0.60321 0.13445 0.0
H1616 H 0.57546 0.59772 0.15676 0.0
H1617 H 0.6404 0.60026 0.15407 0.0
H1618 H 0.65096 0.58824 0.17888 0.0
H1619 H 0.6342 0.58561 0.21407 0.0
H1620 H 0.64639 0.67414 0.21856 0.0
H1621 H 0.63044 0.67009 0.18377 0.0
H1622 H 0.71332 0.69448 0.16518 0.0
H1623 H 0.7308 0.69826 0.19991 0.0
H1624 H 0.5766 0.68048 0.16083 0.0
H1625 H 0.75727 0.67631 0.12379 0.0
H1626 H 0.74993 0.67556 0.15039 0.0
H1627 H 0.7558 0.68683 0.1384 0.0
C1628 C 0.66286 0.67837 0.20692 0.0
C1629 C 0.691 0.68633 0.21171 0.0
C1630 C 0.65355 0.6761 0.18711 0.0
C1631 C 0.67112 0.68191 0.1718 0.0
C1632 C 0.70067 0.68971 0.17663 0.0
H1633 H 0.53178 0.69883 0.06485 0.0
H1634 H 0.55092 0.69477 0.09931 0.0
C1635 C 0.71063 0.69189 0.19646 0.0
C1636 C 0.65267 0.68065 0.15122 0.0
H1637 H 0.68927 0.68099 0.1028 0.0
C1638 C 0.60131 0.6804 0.14814 0.0
C1639 C 0.68468 0.68036 0.13465 0.0
C1640 C 0.73998 0.67967 0.13697 0.0
C1641 C 0.58116 0.68038 0.12895 0.0
C1642 C 0.61315 0.68097 0.1124 0.0
C1643 C 0.66454 0.68069 0.11546 0.0
C1644 C 0.59461 0.68248 0.09189 0.0
C1645 C 0.52585 0.6797 0.12666 0.0
C1646 C 0.61268 0.67696 0.0762 0.0
C1647 C 0.60256 0.67942 0.05655 0.0
C1648 C 0.57299 0.68725 0.05229 0.0
C1649 C 0.55308 0.69255 0.06789 0.0
C1650 C 0.56396 0.6902 0.08757 0.0
H1651 H 0.5088 0.67602 0.13951 0.0
H1652 H 0.50986 0.68687 0.12599 0.0
H1653 H 0.51584 0.67589 0.11287 0.0
H1654 H 0.6366 0.67102 0.07912 0.0
H1655 H 0.61926 0.6754 0.04463 0.0
H1656 H 0.4798 0.44296 0.80043 0.0
H1657 H 0.47951 0.44 0.83643 0.0
H1658 H 0.32024 0.43917 0.83596 0.0
H1659 H 0.32015 0.44199 0.80033 0.0
H1660 H 0.43551 0.45158 0.86465 0.0
H1661 H 0.35413 0.41591 0.86844 0.0
H1662 H 0.37948 0.42074 0.8458 0.0
H1663 H 0.31822 0.42391 0.85373 0.0
C1664 C 0.44484 0.44201 0.808 0.0
C1665 C 0.40006 0.44272 0.79755 0.0
C1666 C 0.4447 0.44032 0.82852 0.0
C1667 C 0.39984 0.4392 0.8388 0.0
C1668 C 0.35528 0.43977 0.82829 0.0
H1669 H 0.30075 0.4403 0.96129 0.0
H1670 H 0.3064 0.43883 0.92492 0.0
C1671 C 0.35536 0.44148 0.8079 0.0
C1672 C 0.39891 0.43829 0.86073 0.0
H1673 H 0.35388 0.42481 0.8987 0.0
C1674 C 0.41829 0.44567 0.87211 0.0
C1675 C 0.3759 0.43061 0.8704 0.0
C1676 C 0.35615 0.4223 0.85897 0.0
C1677 C 0.41407 0.44573 0.89287 0.0
C1678 C 0.39056 0.43811 0.90253 0.0
C1679 C 0.37164 0.43066 0.89121 0.0
C1680 C 0.38617 0.43778 0.92444 0.0
C1681 C 0.43362 0.45407 0.90429 0.0
C1682 C 0.4289 0.43731 0.93612 0.0
C1683 C 0.4258 0.43817 0.95671 0.0
C1684 C 0.37981 0.43945 0.96606 0.0
C1685 C 0.33664 0.43933 0.95447 0.0
C1686 C 0.33984 0.43851 0.93374 0.0
H1687 H 0.43987 0.46024 0.8945 0.0
H1688 H 0.40768 0.45612 0.91631 0.0
H1689 H 0.46945 0.45217 0.91123 0.0
H1690 H 0.46489 0.43657 0.92924 0.0
H1691 H 0.45973 0.43811 0.96524 0.0
H1692 H 0.26261 0.32025 0.79945 0.0
H1693 H 0.2599 0.3234 0.83539 0.0
H1694 H 0.41884 0.32552 0.83649 0.0
H1695 H 0.42183 0.32253 0.80097 0.0
H1696 H 0.30424 0.31214 0.86385 0.0
H1697 H 0.3787 0.34826 0.8691 0.0
H1698 H 0.35577 0.34338 0.84611 0.0
H1699 H 0.41734 0.3407 0.8545 0.0
C1700 C 0.29679 0.32156 0.80734 0.0
C1701 C 0.34238 0.32111 0.79741 0.0
C1702 C 0.29523 0.32335 0.82783 0.0
C1703 C 0.33915 0.32485 0.83854 0.0
C1704 C 0.38444 0.32463 0.82848 0.0
H1705 H 0.44181 0.32286 0.95985 0.0
H1706 H 0.43345 0.3247 0.92365 0.0
C1707 C 0.38604 0.32281 0.80816 0.0
C1708 C 0.33878 0.32567 0.86049 0.0
H1709 H 0.38228 0.33897 0.89899 0.0
C1710 C 0.32051 0.31808 0.87155 0.0
C1711 C 0.36051 0.33339 0.87048 0.0
C1712 C 0.37876 0.34193 0.85943 0.0
C1713 C 0.32507 0.31782 0.8923 0.0
C1714 C 0.34785 0.32543 0.90225 0.0
C1715 C 0.36519 0.33313 0.89127 0.0
C1716 C 0.35359 0.32545 0.92412 0.0
C1717 C 0.30697 0.30925 0.90336 0.0
C1718 C 0.31164 0.32561 0.93627 0.0
C1719 C 0.31627 0.32454 0.95677 0.0
C1720 C 0.36304 0.32336 0.96556 0.0
C1721 C 0.40534 0.32374 0.95348 0.0
C1722 C 0.40061 0.32478 0.93285 0.0
H1723 H 0.30057 0.3032 0.89326 0.0
H1724 H 0.33389 0.30712 0.91497 0.0
H1725 H 0.2715 0.31094 0.91082 0.0
H1726 H 0.27512 0.32628 0.92983 0.0
H1727 H 0.28295 0.32439 0.96568 0.0
H1728 H 0.25853 0.96419 0.24292 0.0
H1729 H 0.21834 0.97952 0.24745 0.0
H1730 H 0.35657 0.99343 0.23523 0.0
H1731 H 0.3964 0.97813 0.2302 0.0
H1732 H 0.30525 0.99709 0.27463 0.0
H1733 H 0.18833 0.00232 0.20748 0.0
H1734 H 0.18695 0.99096 0.21927 0.0
H1735 H 0.24252 0.9949 0.20736 0.0
C1736 C 0.27958 0.97054 0.24027 0.0
C1737 C 0.33001 0.97005 0.23555 0.0
C1738 C 0.25685 0.97927 0.24309 0.0
C1739 C 0.2846 0.98757 0.24162 0.0
C1740 C 0.33459 0.98709 0.2363 0.0
H1741 H 0.22711 0.04586 0.2757 0.0
H1742 H 0.26735 0.03061 0.27013 0.0
C1743 C 0.35715 0.97838 0.23333 0.0
C1744 C 0.2629 0.99668 0.24757 0.0
H1745 H 0.18046 0.01343 0.23323 0.0
C1746 C 0.27802 0.00071 0.26561 0.0
C1747 C 0.22731 0.00128 0.2358 0.0
C1748 C 0.21029 0.99721 0.2163 0.0
C1749 C 0.2576 0.0092 0.27241 0.0
C1750 C 0.22219 0.01388 0.26053 0.0
C1751 C 0.20753 0.00984 0.24238 0.0
C1752 C 0.19887 0.02288 0.26657 0.0
C1753 C 0.27305 0.01289 0.29248 0.0
C1754 C 0.14718 0.02362 0.26658 0.0
C1755 C 0.12447 0.0323 0.26931 0.0
C1756 C 0.1529 0.04042 0.27241 0.0
C1757 C 0.20449 0.03965 0.27365 0.0
C1758 C 0.22741 0.03094 0.27049 0.0
H1759 H 0.2883 0.00721 0.30203 0.0
H1760 H 0.3024 0.01825 0.29047 0.0
H1761 H 0.24154 0.01621 0.30036 0.0
H1762 H 0.12437 0.01751 0.26369 0.0
H1763 H 0.08457 0.03273 0.26829 0.0
H1764 H 0.00347 0.29853 0.23983 0.0
H1765 H 0.04666 0.28352 0.24459 0.0
H1766 H 0.91681 0.26863 0.22488 0.0
H1767 H 0.87393 0.28363 0.21987 0.0
H1768 H 0.00677 0.26924 0.27156 0.0
H1769 H 0.03292 0.25574 0.19457 0.0
H1770 H 0.03135 0.26812 0.20031 0.0
H1771 H 0.97519 0.26143 0.20026 0.0
C1772 C 0.98502 0.29205 0.23578 0.0
C1773 C 0.93613 0.29218 0.22885 0.0
C1774 C 0.0094 0.28351 0.23872 0.0
C1775 C 0.985 0.27499 0.23491 0.0
C1776 C 0.93653 0.27513 0.22754 0.0
H1777 H 0.0529 0.21872 0.27982 0.0
H1778 H 0.01404 0.23413 0.27435 0.0
C1779 C 0.91214 0.28367 0.22468 0.0
C1780 C 0.00842 0.26597 0.24033 0.0
H1781 H 0.05242 0.2455 0.22084 0.0
C1782 C 0.0169 0.26404 0.26051 0.0
C1783 C 0.02148 0.25924 0.22585 0.0
C1784 C 0.0151 0.26118 0.20398 0.0
C1785 C 0.03814 0.25551 0.26659 0.0
C1786 C 0.05065 0.24873 0.2521 0.0
C1787 C 0.04226 0.25069 0.23192 0.0
C1788 C 0.07508 0.23976 0.25728 0.0
C1789 C 0.04801 0.25388 0.28838 0.0
C1790 C 0.12218 0.23788 0.24965 0.0
C1791 C 0.1441 0.22915 0.25264 0.0
C1792 C 0.11935 0.22208 0.2633 0.0
C1793 C 0.07289 0.22406 0.27164 0.0
C1794 C 0.05075 0.23285 0.26855 0.0
H1795 H 0.04551 0.26049 0.29712 0.0
H1796 H 0.02028 0.24887 0.29432 0.0
H1797 H 0.08521 0.25076 0.29061 0.0
H1798 H 0.1416 0.24313 0.24097 0.0
H1799 H 0.18009 0.22787 0.24613 0.0
H1800 H 0.18652 0.21932 0.98023 0.0
H1801 H 0.22656 0.23461 0.98581 0.0
H1802 H 0.10816 0.24265 0.02516 0.0
H1803 H 0.06835 0.22752 0.01985 0.0
H1804 H 0.18915 0.2534 0.98029 0.0
H1805 H 0.23428 0.24586 0.05915 0.0
H1806 H 0.21716 0.23678 0.04172 0.0
H1807 H 0.1705 0.24407 0.05284 0.0
C1808 C 0.16894 0.22439 0.98994 0.0
C1809 C 0.12456 0.22219 -0.00027 0.0
C1810 C 0.19183 0.23309 0.99314 0.0
C1811 C 0.17073 0.23965 0.00622 0.0
C1812 C 0.12555 0.2376 0.01537 0.0
H1813 H 0.23677 0.29905 0.02009 0.0
H1814 H 0.19531 0.28381 0.0161 0.0
C1815 C 0.10276 0.22895 0.01221 0.0
C1816 C 0.1957 0.24867 0.01054 0.0
H1817 H 0.24491 0.26166 0.04837 0.0
C1818 C 0.2016 0.2552 0.99513 0.0
C1819 C 0.21217 0.25094 0.02992 0.0
C1820 C 0.20869 0.24402 0.04684 0.0
C1821 C 0.22273 0.26405 0.99866 0.0
C1822 C 0.23767 0.26643 0.01817 0.0
C1823 C 0.2327 0.25983 0.0335 0.0
C1824 C 0.26062 0.2756 0.02272 0.0
C1825 C 0.22949 0.27073 0.98147 0.0
C1826 C 0.31035 0.27599 0.0285 0.0
C1827 C 0.33373 0.28465 0.03099 0.0
C1828 C 0.30734 0.29303 0.02825 0.0
C1829 C 0.25725 0.29265 0.02296 0.0
C1830 C 0.23386 0.28398 0.02041 0.0
H1831 H 0.22598 0.26711 0.96691 0.0
H1832 H 0.20077 0.27629 0.98222 0.0
H1833 H 0.26621 0.2742 0.9822 0.0
H1834 H 0.33157 0.26959 0.03032 0.0
H1835 H 0.37274 0.28482 0.03459 0.0
H1836 H 0.04906 0.04663 0.97834 0.0
H1837 H 0.00377 0.03169 0.98182 0.0
H1838 H 0.12181 0.02061 0.0179 0.0
H1839 H 0.16666 0.03534 0.01468 0.0
H1840 H 0.03341 0.01252 0.97304 0.0
H1841 H 0.99757 0.01812 0.05331 0.0
H1842 H 0.01646 0.02749 0.03688 0.0
H1843 H 0.06139 0.01938 0.04652 0.0
C1844 C 0.06541 0.04096 0.98683 0.0
C1845 C 0.11107 0.04219 0.99642 0.0
C1846 C 0.03954 0.03247 0.98885 0.0
C1847 C 0.05908 0.02516 0.00051 0.0
C1848 C 0.10562 0.02625 0.00925 0.0
H1849 H 0.9874 0.96604 0.00841 0.0
H1850 H 0.0278 0.98137 0.00422 0.0
C1851 C 0.13125 0.03467 0.0073 0.0
C1852 C 0.03116 0.01638 0.00393 0.0
H1853 H 0.984 0.00262 0.04094 0.0
C1854 C 0.02211 0.01038 0.98782 0.0
C1855 C 0.0162 0.01366 0.02325 0.0
C1856 C 0.02294 0.02003 0.04097 0.0
C1857 C -0.0002 0.00157 0.99063 0.0
C1858 C 0.98694 0.99868 0.01008 0.0
C1859 C 0.99459 0.00481 0.02609 0.0
C1860 C 0.96442 0.98941 0.01405 0.0
C1861 C 0.98994 0.99545 0.97277 0.0
C1862 C 0.91627 0.98888 0.02168 0.0
C1863 C 0.89359 0.98016 0.02431 0.0
C1864 C 0.91925 0.97186 0.01989 0.0
C1865 C 0.96769 0.97237 0.01258 0.0
C1866 C 0.99038 0.9811 0.00989 0.0
H1867 H 0.99086 -0.00046 0.95872 0.0
H1868 H 0.01877 0.98992 0.97186 0.0
H1869 H 0.95344 0.99193 0.97403 0.0
H1870 H 0.8957 0.99522 0.02498 0.0
H1871 H 0.8557 0.97989 0.02948 0.0
H1872 H 0.70185 0.04417 0.78177 0.0
H1873 H 0.74248 0.02893 0.77612 0.0
H1874 H 0.62325 0.02061 0.73746 0.0
H1875 H 0.58283 0.03567 0.74287 0.0
H1876 H 0.70537 0.01003 0.78198 0.0
H1877 H 0.74892 0.01752 0.70296 0.0
H1878 H 0.73224 0.02662 0.72044 0.0
H1879 H 0.68527 0.01935 0.70946 0.0
C1880 C 0.68423 0.03905 0.7722 0.0
C1881 C 0.6394 0.04115 0.76264 0.0
C1882 C 0.70746 0.03038 0.76896 0.0
C1883 C 0.68626 0.02375 0.75605 0.0
C1884 C 0.6407 0.02571 0.74712 0.0
H1885 H 0.74464 0.96433 0.74087 0.0
H1886 H 0.7066 0.97982 0.74586 0.0
C1887 C 0.61757 0.03432 0.75033 0.0
C1888 C 0.71137 0.01475 0.7517 0.0
H1889 H 0.75871 0.00167 0.71363 0.0
C1890 C 0.71741 0.00822 0.76709 0.0
C1891 C 0.72727 0.01246 0.73226 0.0
C1892 C 0.72358 0.01938 0.71534 0.0
C1893 C 0.73785 0.99932 0.76344 0.0
C1894 C 0.752 0.9969 0.74385 0.0
C1895 C 0.74716 0.00352 0.72857 0.0
C1896 C 0.77324 0.9876 0.7391 0.0
C1897 C 0.74446 0.99259 0.78056 0.0
C1898 C 0.82264 0.9869 0.73298 0.0
C1899 C 0.8441 0.9781 0.72995 0.0
C1900 C 0.81605 0.9699 0.73244 0.0
C1901 C 0.76636 0.9706 0.73818 0.0
C1902 C 0.74492 0.9794 0.74131 0.0
H1903 H 0.74194 0.99622 0.79515 0.0
H1904 H 0.71506 0.98716 0.77997 0.0
H1905 H 0.78073 0.98897 0.7796 0.0
H1906 H 0.84504 0.99316 0.73123 0.0
H1907 H 0.88285 0.97767 0.72601 0.0
H1908 H 0.05251 0.71926 0.78412 0.0
H1909 H 0.01212 0.73454 0.77863 0.0
H1910 H 0.13305 0.74312 0.74108 0.0
H1911 H 0.17318 0.72802 0.7463 0.0
H1912 H 0.04808 0.75356 0.78484 0.0
H1913 H 0.00901 0.74593 0.7055 0.0
H1914 H 0.02526 0.73688 0.72315 0.0
H1915 H 0.07239 0.74424 0.71257 0.0
C1916 C 0.0706 0.72445 0.77487 0.0
C1917 C 0.11572 0.7224 0.76548 0.0
C1918 C 0.04751 0.73315 0.77171 0.0
C1919 C 0.06921 0.73985 0.75911 0.0
C1920 C 0.11522 0.73796 0.75049 0.0
H1921 H 0.00291 0.79916 0.74384 0.0
H1922 H 0.0439 0.78394 0.74892 0.0
C1923 C 0.13816 0.72932 0.75359 0.0
C1924 C 0.04389 0.74881 0.75454 0.0
H1925 H 0.99713 0.76172 0.7161 0.0
C1926 C 0.03663 0.75534 0.76986 0.0
C1927 C 0.02875 0.75105 0.73498 0.0
C1928 C 0.03378 0.74413 0.71811 0.0
C1929 C 0.01552 0.76417 0.76604 0.0
C1930 C 0.00198 0.76653 0.74635 0.0
C1931 C 0.00824 0.75992 0.73112 0.0
C1932 C 0.97932 0.77569 0.74144 0.0
C1933 C 0.00736 0.77086 0.78311 0.0
C1934 C 0.9302 0.77604 0.73485 0.0
C1935 C 0.90711 0.78469 0.73175 0.0
C1936 C 0.93323 0.79309 0.73466 0.0
C1937 C 0.98271 0.79274 0.74083 0.0
C1938 C 0.0058 0.78408 0.74401 0.0
H1939 H 0.00975 0.76725 0.79771 0.0
H1940 H 0.03609 0.77642 0.7827 0.0
H1941 H 0.97069 0.77432 0.7819 0.0
H1942 H 0.9092 0.76963 0.73282 0.0
H1943 H 0.86852 0.78483 0.72748 0.0
H1944 H 0.57687 0.72878 0.01474 0.0
H1945 H 0.61782 0.74388 0.01856 0.0
H1946 H 0.74677 0.73305 0.98867 0.0
H1947 H 0.7053 0.71777 0.98449 0.0
H1948 H 0.7048 0.74625 0.03991 0.0
H1949 H 0.72339 0.75888 0.96201 0.0
H1950 H 0.68122 0.74961 0.96895 0.0
H1951 H 0.74618 0.74725 0.96699 0.0
C1952 C 0.61374 0.72961 0.00873 0.0
C1953 C 0.63805 0.72207 -0.00059 0.0
C1954 C 0.63706 0.73826 0.01094 0.0
C1955 C 0.68524 0.73959 0.00391 0.0
C1956 C 0.70928 0.73219 0.99398 0.0
H1957 H 0.88545 0.78452 0.03726 0.0
H1958 H 0.84422 0.76927 0.03334 0.0
C1959 C 0.68566 0.72348 0.99163 0.0
C1960 C 0.71073 0.74855 0.00836 0.0
H1961 H 0.75839 0.76838 0.98721 0.0
C1962 C 0.71685 0.75107 0.02839 0.0
C1963 C 0.72571 0.75484 0.99329 0.0
C1964 C 0.71858 0.75259 0.97158 0.0
C1965 C 0.73744 0.75974 0.03375 0.0
C1966 C 0.75245 0.76603 0.01872 0.0
C1967 C 0.74664 0.76351 0.99868 0.0
C1968 C 0.77491 0.77522 0.02347 0.0
C1969 C 0.74117 0.76233 0.0554 0.0
C1970 C 0.74918 0.78357 0.01949 0.0
C1971 C 0.77254 0.79226 0.02189 0.0
C1972 C 0.82174 0.79269 0.0284 0.0
C1973 C 0.84703 0.78433 0.03275 0.0
C1974 C 0.82364 0.77565 0.03046 0.0
H1975 H 0.72596 0.75679 0.0653 0.0
H1976 H 0.78035 0.76358 0.05948 0.0
H1977 H 0.72052 0.76895 0.05801 0.0
H1978 H 0.71165 0.78335 0.01392 0.0
H1979 H 0.75303 0.79862 0.01774 0.0
H1980 H 0.071 0.53494 0.74224 0.0
H1981 H 0.11132 0.51977 0.73862 0.0
H1982 H 0.23682 0.52995 0.77173 0.0
H1983 H 0.19595 0.54528 0.77572 0.0
H1984 H 0.19958 0.51703 0.7192 0.0
H1985 H 0.20861 0.50416 0.79712 0.0
H1986 H 0.16869 0.51369 0.7896 0.0
H1987 H 0.23364 0.5157 0.79298 0.0
C1988 C 0.10697 0.53396 0.74898 0.0
C1989 C 0.13047 0.54133 0.7592 0.0
C1990 C 0.12994 0.52526 0.74688 0.0
C1991 C 0.17695 0.52372 0.75493 0.0
C1992 C 0.20018 0.53096 0.76565 0.0
H1993 H 0.38294 0.47976 0.72307 0.0
H1994 H 0.33816 0.49466 0.72638 0.0
C1995 C 0.17692 0.53971 0.76787 0.0
C1996 C 0.20227 0.5147 0.75081 0.0
H1997 H 0.24841 0.49489 0.77262 0.0
C1998 C 0.21045 0.5122 0.73089 0.0
C1999 C 0.21562 0.50836 0.76607 0.0
C2000 C 0.20591 0.51053 0.78766 0.0
C2001 C 0.23187 0.50355 0.72581 0.0
C2002 C 0.24585 0.49729 0.74105 0.0
C2003 C 0.23757 0.49974 0.76098 0.0
C2004 C 0.27038 0.48823 0.73665 0.0
C2005 C 0.23771 0.501 0.70422 0.0
C2006 C 0.24683 0.4797 0.74114 0.0
C2007 C 0.27228 0.4712 0.73912 0.0
C2008 C 0.32144 0.47114 0.73249 0.0
C2009 C 0.34457 0.47965 0.72766 0.0
C2010 C 0.31911 0.48814 0.72958 0.0
H2011 H 0.2209 0.5063 0.69416 0.0
H2012 H 0.27748 0.50033 0.70048 0.0
H2013 H 0.21993 0.4941 0.70145 0.0
H2014 H 0.20936 0.47965 0.7468 0.0
H2015 H 0.25443 0.46473 0.74366 0.0
H2016 H 0.3774 0.78549 0.53536 0.0
H2017 H 0.3361 0.77029 0.53096 0.0
H2018 H 0.20074 0.78458 0.51569 0.0
H2019 H 0.24236 0.7998 0.51981 0.0
H2020 H 0.24931 0.76261 0.54891 0.0
H2021 H 0.23114 0.76744 0.46726 0.0
H2022 H 0.27131 0.77463 0.48236 0.0
H2023 H 0.20589 0.77674 0.48221 0.0
C2024 C 0.33856 0.78535 0.53146 0.0
C2025 C 0.31244 0.79374 0.52852 0.0
C2026 C 0.31512 0.7767 0.5289 0.0
C2027 C 0.26559 0.77634 0.52283 0.0
C2028 C 0.23914 0.78473 0.5202 0.0
H2029 H 0.07241 0.72838 0.52156 0.0
H2030 H 0.11237 0.74354 0.52622 0.0
C2031 C 0.26261 0.79339 0.52284 0.0
C2032 C 0.24243 0.76715 0.51854 0.0
H2033 H 0.19389 0.75385 0.48107 0.0
C2034 C 0.23718 0.76068 0.5341 0.0
C2035 C 0.22755 0.76463 0.49911 0.0
C2036 C 0.23456 0.77117 0.4817 0.0
C2037 C 0.21651 0.75178 0.5308 0.0
C2038 C 0.20014 0.74936 0.51149 0.0
C2039 C 0.20628 0.75576 0.49585 0.0
C2040 C 0.17501 0.74033 0.50748 0.0
C2041 C 0.21277 0.74499 0.54797 0.0
C2042 C 0.19611 0.73362 0.49472 0.0
C2043 C 0.17312 0.7249 0.49189 0.0
C2044 C 0.12868 0.72281 0.50175 0.0
C2045 C 0.10689 0.72971 0.51389 0.0
C2046 C 0.12975 0.73838 0.51667 0.0
H2047 H 0.23833 0.74691 0.56024 0.0
H2048 H 0.17454 0.74512 0.55392 0.0
H2049 H 0.22112 0.7377 0.54312 0.0
H2050 H 0.2309 0.73505 0.48736 0.0
H2051 H 0.19069 0.71972 0.48244 0.0
H2052 H 0.01253 0.4661 0.51859 0.0
H2053 H 0.05469 0.48127 0.51459 0.0
H2054 H 0.9231 0.49564 0.53419 0.0
H2055 H 0.88123 0.48048 0.53842 0.0
H2056 H 0.01345 0.49577 0.48791 0.0
H2057 H 0.03793 0.50852 0.5656 0.0
H2058 H 0.03927 0.4962 0.55923 0.0
H2059 H 0.98162 0.50241 0.55951 0.0
C2060 C 0.99345 0.47249 0.52278 0.0
C2061 C 0.94435 0.47217 0.52944 0.0
C2062 C 0.01724 0.48113 0.52027 0.0
C2063 C 0.99207 0.48955 0.52426 0.0
C2064 C 0.9434 0.48921 0.53138 0.0
H2065 H 0.06343 0.5463 0.48157 0.0
H2066 H 0.02242 0.53103 0.48656 0.0
C2067 C 0.91959 0.48058 0.53381 0.0
C2068 C 0.01494 0.49869 0.5193 0.0
H2069 H 0.05852 0.51895 0.53987 0.0
C2070 C 0.02339 0.50086 0.49923 0.0
C2071 C 0.02772 0.50526 0.53413 0.0
C2072 C 0.02147 0.50304 0.55588 0.0
C2073 C 0.04455 0.50947 0.4936 0.0
C2074 C 0.05697 0.51608 0.50845 0.0
C2075 C 0.04838 0.5139 0.52851 0.0
C2076 C 0.08223 0.52505 0.50379 0.0
C2077 C 0.05463 0.51134 0.47191 0.0
C2078 C 0.12927 0.52668 0.51171 0.0
C2079 C 0.15235 0.53533 0.50902 0.0
C2080 C 0.1289 0.54256 0.49833 0.0
C2081 C 0.08241 0.54083 0.48978 0.0
C2082 C 0.05907 0.53213 0.49258 0.0
H2083 H 0.05193 0.50484 0.46283 0.0
H2084 H 0.02715 0.51645 0.46621 0.0
H2085 H 0.09197 0.51443 0.46989 0.0
H2086 H 0.14785 0.52131 0.52032 0.0
H2087 H 0.18834 0.5364 0.51569 0.0
H2088 H 0.68853 0.54436 0.27884 0.0
H2089 H 0.72881 0.52906 0.27385 0.0
H2090 H 0.60884 0.52037 0.23591 0.0
H2091 H 0.56889 0.53555 0.24057 0.0
H2092 H 0.69505 0.51043 0.28066 0.0
H2093 H 0.73161 0.51699 0.2007 0.0
H2094 H 0.71409 0.52622 0.2177 0.0
H2095 H 0.66805 0.51843 0.20771 0.0
C2096 C 0.67063 0.53915 0.26959 0.0
C2097 C 0.62587 0.54119 0.25994 0.0
C2098 C 0.69366 0.53044 0.26672 0.0
C2099 C 0.67225 0.52369 0.25415 0.0
C2100 C 0.62652 0.52557 0.24526 0.0
H2101 H 0.75008 0.46453 0.24362 0.0
H2102 H 0.70538 0.47944 0.24754 0.0
C2103 C 0.60365 0.53424 0.24805 0.0
C2104 C 0.69775 0.5147 0.25 0.0
H2105 H 0.74589 0.50145 0.21237 0.0
C2106 C 0.70636 0.50847 0.26576 0.0
C2107 C 0.71281 0.51222 0.23055 0.0
C2108 C 0.70664 0.51884 0.21321 0.0
C2109 C 0.729 0.49973 0.26253 0.0
C2110 C 0.74263 0.49714 0.24298 0.0
C2111 C 0.73472 0.50343 0.22728 0.0
C2112 C 0.76737 0.48811 0.23872 0.0
C2113 C 0.7389 0.49341 0.28009 0.0
C2114 C 0.81621 0.48807 0.23175 0.0
C2115 C 0.84137 0.47959 0.22927 0.0
C2116 C 0.8176 0.47104 0.23323 0.0
C2117 C 0.76843 0.47106 0.23981 0.0
C2118 C 0.74324 0.47954 0.24233 0.0
H2119 H 0.73635 0.49728 0.2944 0.0
H2120 H 0.71115 0.48767 0.28032 0.0
H2121 H 0.77613 0.49017 0.27897 0.0
H2122 H 0.83542 0.49461 0.22892 0.0
H2123 H 0.87972 0.4797 0.22466 0.0
H2124 H 0.7437 0.299 0.51776 0.0
H2125 H 0.70056 0.28388 0.51457 0.0
H2126 H 0.83269 0.26938 0.5331 0.0
H2127 H 0.87563 0.28448 0.53642 0.0
H2128 H 0.74212 0.26898 0.48769 0.0
H2129 H 0.71731 0.25702 0.56595 0.0
H2130 H 0.71365 0.26925 0.55899 0.0
H2131 H 0.77245 0.26345 0.55953 0.0
C2132 C 0.76275 0.29259 0.52188 0.0
C2133 C 0.81232 0.29286 0.52795 0.0
C2134 C 0.73837 0.28398 0.51985 0.0
C2135 C 0.76342 0.27555 0.52376 0.0
C2136 C 0.81256 0.27583 0.53033 0.0
H2137 H 0.69372 0.21842 0.48373 0.0
H2138 H 0.73379 0.23381 0.48812 0.0
C2139 C 0.83696 0.28443 0.53225 0.0
C2140 C 0.73998 0.26642 0.5192 0.0
H2141 H 0.69572 0.24643 0.54068 0.0
C2142 C 0.73185 0.26403 0.49923 0.0
C2143 C 0.7268 0.26003 0.53432 0.0
C2144 C 0.73274 0.2625 0.55596 0.0
C2145 C 0.71071 0.25537 0.49398 0.0
C2146 C 0.698 0.24892 0.50912 0.0
C2147 C 0.70611 0.25134 0.52909 0.0
C2148 C 0.67326 0.23987 0.50482 0.0
C2149 C 0.70108 0.25326 0.47236 0.0
C2150 C 0.62615 0.23823 0.51267 0.0
C2151 C 0.60359 0.22951 0.51032 0.0
C2152 C 0.62766 0.22222 0.50007 0.0
C2153 C 0.67426 0.22393 0.49161 0.0
C2154 C 0.69707 0.23271 0.49407 0.0
H2155 H 0.70362 0.25967 0.46298 0.0
H2156 H 0.72892 0.24813 0.46696 0.0
H2157 H 0.66393 0.25008 0.47037 0.0
H2158 H 0.6071 0.24366 0.52095 0.0
H2159 H 0.56751 0.22844 0.51691 0.0
H2160 H 0.36512 0.2826 0.72682 0.0
H2161 H 0.40978 0.26773 0.73094 0.0
H2162 H 0.53686 0.28289 0.75265 0.0
H2163 H 0.49167 0.29775 0.74892 0.0
H2164 H 0.49935 0.26129 0.71522 0.0
H2165 H 0.50565 0.26418 0.79749 0.0
H2166 H 0.46666 0.27155 0.78231 0.0
H2167 H 0.53155 0.27403 0.78445 0.0
C2168 C 0.40291 0.28273 0.73212 0.0
C2169 C 0.42575 0.29127 0.73696 0.0
C2170 C 0.42828 0.27426 0.73453 0.0
C2171 C 0.47637 0.27421 0.7423 0.0
C2172 C 0.49953 0.28278 0.74687 0.0
H2173 H 0.68073 0.22789 0.74124 0.0
H2174 H 0.63756 0.24278 0.73746 0.0
C2175 C 0.47412 0.29125 0.74443 0.0
C2176 C 0.5015 0.26516 0.74612 0.0
H2177 H 0.54963 0.25147 0.78305 0.0
C2178 C 0.51031 0.25913 0.73004 0.0
C2179 C 0.51484 0.26231 0.76554 0.0
C2180 C 0.50385 0.2683 0.78349 0.0
C2181 C 0.53298 0.25036 0.7328 0.0
C2182 C 0.54802 0.24765 0.75212 0.0
C2183 C 0.53834 0.2536 0.76826 0.0
C2184 C 0.57521 0.23878 0.75568 0.0
C2185 C 0.54008 0.24403 0.71503 0.0
C2186 C 0.55548 0.23173 0.76797 0.0
C2187 C 0.58043 0.22317 0.77035 0.0
C2188 C 0.62542 0.22159 0.76048 0.0
C2189 C 0.64582 0.22883 0.74885 0.0
C2190 C 0.6211 0.23735 0.74657 0.0
H2191 H 0.51448 0.24589 0.70274 0.0
H2192 H 0.57842 0.24481 0.70943 0.0
H2193 H 0.53418 0.23655 0.71906 0.0
H2194 H 0.52024 0.23276 0.77528 0.0
H2195 H 0.56392 0.21772 0.77942 0.0
H2196 H 0.55264 0.045 0.47995 0.0
H2197 H 0.51054 0.02984 0.48487 0.0
H2198 H 0.62827 0.0208 0.52356 0.0
H2199 H 0.67003 0.03578 0.51892 0.0
H2200 H 0.54466 0.01091 0.4785 0.0
H2201 H 0.50269 0.01791 0.55781 0.0
H2202 H 0.52088 0.02706 0.54072 0.0
H2203 H 0.56664 0.01945 0.5515 0.0
C2204 C 0.56962 0.03973 0.48936 0.0
C2205 C 0.61434 0.04161 0.4992 0.0
C2206 C 0.54555 0.03111 0.49219 0.0
C2207 C 0.56586 0.02431 0.50494 0.0
C2208 C 0.61145 0.02604 0.51405 0.0
H2209 H 0.50284 0.96499 0.51785 0.0
H2210 H 0.54138 0.98042 0.51275 0.0
C2211 C 0.63535 0.0346 0.51128 0.0
C2212 C 0.53974 0.01538 0.50898 0.0
H2213 H 0.49198 0.00213 0.54669 0.0
C2214 C 0.53273 0.00901 0.49336 0.0
C2215 C 0.52391 0.01298 0.52837 0.0
C2216 C 0.52843 0.01974 0.54555 0.0
C2217 C 0.51149 0.00015 0.49673 0.0
C2218 C 0.49759 0.9976 0.51627 0.0
C2219 C 0.50333 0.00408 0.53179 0.0
C2220 C 0.47597 0.98831 0.52081 0.0
C2221 C 0.5038 0.99361 0.47935 0.0
C2222 C 0.42716 0.98768 0.5277 0.0
C2223 C 0.40548 0.9789 0.53084 0.0
C2224 C 0.43275 0.97066 0.52766 0.0
C2225 C 0.48179 0.97129 0.52106 0.0
C2226 C 0.50347 0.98007 0.51786 0.0
H2227 H 0.50549 0.99741 0.46494 0.0
H2228 H 0.53324 0.98819 0.47938 0.0
H2229 H 0.46758 0.98998 0.48047 0.0
H2230 H 0.4054 0.99397 0.53005 0.0
H2231 H 0.36717 0.97853 0.53545 0.0
H2232 H 0.5539 0.71628 0.28179 0.0
H2233 H 0.50776 0.73108 0.27777 0.0
H2234 H 0.62284 0.74175 0.23963 0.0
H2235 H 0.66849 0.72715 0.24336 0.0
H2236 H 0.53725 0.75011 0.28553 0.0
H2237 H 0.49694 0.7443 0.20573 0.0
H2238 H 0.51723 0.73499 0.22203 0.0
H2239 H 0.56125 0.74311 0.21175 0.0
C2240 C 0.56934 0.72181 0.27265 0.0
C2241 C 0.61452 0.72051 0.26273 0.0
C2242 C 0.54299 0.73023 0.27034 0.0
C2243 C 0.56148 0.7374 0.25803 0.0
C2244 C 0.60738 0.73622 0.24878 0.0
H2245 H 0.49331 0.79656 0.25008 0.0
H2246 H 0.53229 0.78111 0.25429 0.0
C2247 C 0.63351 0.72787 0.25104 0.0
C2248 C 0.53348 0.74618 0.2547 0.0
H2249 H 0.48525 0.75993 0.2179 0.0
C2250 C 0.52535 0.75223 0.27081 0.0
C2251 C 0.51769 0.74887 0.23547 0.0
C2252 C 0.52325 0.74244 0.21777 0.0
C2253 C 0.50328 0.76106 0.26807 0.0
C2254 C 0.48977 0.76393 0.24868 0.0
C2255 C 0.49636 0.75775 0.23269 0.0
C2256 C 0.46794 0.77327 0.24476 0.0
C2257 C 0.49446 0.76724 0.28595 0.0
C2258 C 0.41968 0.77396 0.2373 0.0
C2259 C 0.39781 0.78275 0.23464 0.0
C2260 C 0.42437 0.79097 0.23887 0.0
C2261 C 0.47288 0.7903 0.24605 0.0
C2262 C 0.49477 0.7815 0.24876 0.0
H2263 H 0.49536 0.76314 0.30001 0.0
H2264 H 0.52386 0.77266 0.28672 0.0
H2265 H 0.45828 0.77088 0.28484 0.0
H2266 H 0.39844 0.76768 0.23413 0.0
H2267 H 0.35987 0.78314 0.22957 0.0
H2268 H 0.37192 0.47816 0.03458 0.0
H2269 H 0.41099 0.49353 0.02943 0.0
H2270 H 0.54708 0.47978 0.01302 0.0
H2271 H 0.50772 0.46441 0.01789 0.0
H2272 H 0.49854 0.50172 0.04616 0.0
H2273 H 0.51053 0.49646 0.96446 0.0
H2274 H 0.47231 0.48923 0.98027 0.0
H2275 H 0.53785 0.48731 0.97924 0.0
C2276 C 0.41047 0.47847 0.03028 0.0
C2277 C 0.43745 0.47018 0.02721 0.0
C2278 C 0.43264 0.48721 0.02729 0.0
C2279 C 0.48167 0.48776 0.02066 0.0
C2280 C 0.50902 0.47948 0.01796 0.0
H2281 H 0.67442 0.53547 0.01615 0.0
H2282 H 0.63367 0.52044 0.02149 0.0
C2283 C 0.48686 0.47073 0.02102 0.0
C2284 C 0.50341 0.49701 0.01584 0.0
H2285 H 0.5488 0.51014 0.97747 0.0
C2286 C 0.50944 0.50359 0.03115 0.0
C2287 C 0.51667 0.49945 0.99616 0.0
C2288 C 0.50869 0.49279 0.97901 0.0
C2289 C 0.52961 0.51249 0.02738 0.0
C2290 C 0.54465 0.5148 0.00784 0.0
C2291 C 0.53744 0.50831 0.99243 0.0
C2292 C 0.57005 0.52376 0.00338 0.0
C2293 C 0.53451 0.51936 0.04434 0.0
C2294 C 0.54864 0.53046 0.99071 0.0
C2295 C 0.57209 0.53912 0.98749 0.0
C2296 C 0.61729 0.54112 0.99685 0.0
C2297 C 0.63936 0.5342 0.00886 0.0
C2298 C 0.61605 0.52561 0.01204 0.0
H2299 H 0.50959 0.51754 0.05688 0.0
H2300 H 0.57306 0.51922 0.04995 0.0
H2301 H 0.52612 0.52663 0.03938 0.0
H2302 H 0.51327 0.5291 0.98375 0.0
H2303 H 0.55429 0.54431 0.97815 0.0
H2304 H 0.09446 0.1728 0.28724 0.0
H2305 H 0.06468 0.15738 0.29832 0.0
H2306 H 0.21472 0.1472 0.30022 0.0
H2307 H 0.24459 0.16249 0.28968 0.0
H2308 H 0.07877 0.14224 0.27505 0.0
H2309 H 0.15874 0.13461 0.34875 0.0
H2310 H 0.15551 0.14639 0.33879 0.0
H2311 H 0.2052 0.13863 0.33178 0.0
C2312 C 0.12113 0.16736 0.29069 0.0
C2313 C 0.17181 0.16883 0.28737 0.0
C2314 C 0.10409 0.15856 0.29699 0.0
C2315 C 0.13751 0.15115 0.30029 0.0
C2316 C 0.18827 0.15283 0.29824 0.0
H2317 H 0.15106 0.09199 0.28522 0.0
H2318 H 0.1667 0.1084 0.29457 0.0
C2319 C 0.20525 0.16158 0.29195 0.0
C2320 C 0.11976 0.14135 0.30241 0.0
H2321 H 0.13859 0.12101 0.32837 0.0
C2322 C 0.09082 0.13766 0.28698 0.0
C2323 C 0.13605 0.13534 0.31785 0.0
C2324 C 0.16519 0.13898 0.33532 0.0
C2325 C 0.07994 0.12805 0.28597 0.0
C2326 C 0.09776 0.12198 0.301 0.0
C2327 C 0.1252 0.12569 0.31685 0.0
C2328 C 0.08974 0.11172 0.29974 0.0
C2329 C 0.05151 0.12439 0.26826 0.0
C2330 C 0.04168 0.1081 0.30052 0.0
C2331 C 0.03266 0.09881 0.29506 0.0
C2332 C 0.07166 0.09295 0.28893 0.0
C2333 C 0.12035 0.09634 0.2899 0.0
C2334 C 0.1293 0.1057 0.29522 0.0
H2335 H 0.04896 0.12967 0.25615 0.0
H2336 H 0.06911 0.11794 0.26224 0.0
H2337 H 0.0134 0.12256 0.27295 0.0
H2338 H 0.0108 0.11261 0.30424 0.0
H2339 H 0.9948 0.09634 0.29471 0.0
H2340 H 0.00575 0.16147 0.9739 0.0
H2341 H 0.04124 0.14647 0.96436 0.0
H2342 H 0.18549 0.15921 0.96051 0.0
H2343 H 0.15032 0.17435 0.97077 0.0
H2344 H 0.09679 0.1389 0.93391 0.0
H2345 H 0.2021 0.14011 0.00501 0.0
H2346 H 0.15471 0.14855 0.99913 0.0
H2347 H 0.21462 0.14943 0.98776 0.0
C2348 C 0.04498 0.16117 0.97077 0.0
C2349 C 0.07542 0.16908 0.9736 0.0
C2350 C 0.06514 0.15256 0.96516 0.0
C2351 C 0.11613 0.15167 0.96218 0.0
C2352 C 0.14612 0.15972 0.96318 0.0
H2353 H 0.27192 0.09856 0.97268 0.0
H2354 H 0.25362 0.11449 0.9616 0.0
C2355 C 0.12594 0.16838 0.96892 0.0
C2356 C 0.13759 0.14212 0.96055 0.0
H2357 H 0.20479 0.12615 0.98695 0.0
C2358 C 0.12109 0.13614 0.94531 0.0
C2359 C 0.16886 0.1385 0.97557 0.0
C2360 C 0.1859 0.14443 0.9929 0.0
C2361 C 0.13406 0.12657 0.94499 0.0
C2362 C 0.16389 0.12292 0.96039 0.0
C2363 C 0.18204 0.12899 0.97512 0.0
C2364 C 0.17429 0.11275 0.96261 0.0
C2365 C 0.1152 0.12044 0.92838 0.0
C2366 C 0.13567 0.10637 0.96625 0.0
C2367 C 0.14601 0.09721 0.97256 0.0
C2368 C 0.19514 0.09435 0.9756 0.0
C2369 C 0.23364 0.10057 0.97069 0.0
C2370 C 0.2233 0.10968 0.96428 0.0
H2371 H 0.10598 0.12465 0.91498 0.0
H2372 H 0.1428 0.115 0.92426 0.0
H2373 H 0.08104 0.11682 0.93335 0.0
H2374 H 0.09754 0.10865 0.96544 0.0
H2375 H 0.11559 0.09259 0.97633 0.0
H2376 H 0.82388 0.92155 0.677 0.0
H2377 H 0.83165 0.90456 0.67088 0.0
H2378 H 0.83775 0.89958 0.73402 0.0
H2379 H 0.83066 0.91642 0.74023 0.0
H2380 H 0.918 0.89331 0.6877 0.0
H2381 H 0.73311 0.8804 0.71055 0.0
H2382 H 0.74376 0.89228 0.70203 0.0
H2383 H 0.75992 0.88897 0.72696 0.0
C2384 C 0.8258 0.9168 0.68955 0.0
C2385 C 0.82671 0.92029 0.70909 0.0
C2386 C 0.83052 0.90713 0.68603 0.0
C2387 C 0.83507 0.90086 0.70202 0.0
C2388 C 0.83387 0.90431 0.72151 0.0
H2389 H 0.8911 0.84655 0.74267 0.0
H2390 H 0.87547 0.86306 0.7356 0.0
C2391 C 0.82992 0.91393 0.72502 0.0
C2392 C 0.84465 0.89074 0.69879 0.0
H2393 H 0.79882 0.86916 0.71065 0.0
C2394 C 0.89169 0.88797 0.69224 0.0
C2395 C 0.81018 0.88387 0.70478 0.0
C2396 C 0.75871 0.88649 0.71133 0.0
C2397 C 0.90636 0.8785 0.69289 0.0
C2398 C 0.87273 0.87167 0.69999 0.0
C2399 C 0.82468 0.87442 0.70535 0.0
C2400 C 0.88763 0.86183 0.70394 0.0
C2401 C 0.95855 0.87593 0.68719 0.0
C2402 C 0.90106 0.85569 0.68851 0.0
C2403 C 0.91053 0.84619 0.69255 0.0
C2404 C 0.90605 0.8427 0.71204 0.0
C2405 C 0.89452 0.84898 0.72748 0.0
C2406 C 0.88546 0.85843 0.72347 0.0
H2407 H 0.98219 0.88223 0.68504 0.0
H2408 H 0.97552 0.8714 0.69875 0.0
H2409 H 0.95801 0.87191 0.67307 0.0
H2410 H 0.90239 0.85815 0.6733 0.0
H2411 H 0.9189 0.8415 0.68032 0.0
H2412 H 0.86008 0.91877 0.01212 0.0
H2413 H 0.85315 0.902 0.0185 0.0
H2414 H 0.93361 0.90528 0.07334 0.0
H2415 H 0.94105 0.92223 0.06707 0.0
H2416 H 0.96288 0.88953 0.04989 0.0
H2417 H 0.76021 0.89054 0.06058 0.0
H2418 H 0.77927 0.89616 0.03797 0.0
H2419 H 0.79828 0.90096 0.0615 0.0
C2420 C 0.87655 0.91597 0.02555 0.0
C2421 C 0.90068 0.92189 0.03921 0.0
C2422 C 0.87223 0.90638 0.02921 0.0
C2423 C 0.89166 0.90246 0.04663 0.0
C2424 C 0.91778 0.90822 0.05992 0.0
H2425 H 0.81535 0.84328 0.07121 0.0
H2426 H 0.8261 0.86025 0.07609 0.0
C2427 C 0.92218 0.91788 0.05627 0.0
C2428 C 0.88472 0.89231 0.05054 0.0
H2429 H 0.79525 0.87543 0.05273 0.0
C2430 C 0.92631 0.88645 0.05087 0.0
C2431 C 0.837 0.88832 0.05223 0.0
C2432 C 0.79115 0.89433 0.05327 0.0
C2433 C 0.92125 0.87663 0.05146 0.0
C2434 C 0.87336 0.87263 0.05139 0.0
C2435 C 0.8319 0.87851 0.05248 0.0
C2436 C 0.86562 0.86241 0.04852 0.0
C2437 C 0.96722 0.87064 0.05171 0.0
C2438 C 0.88269 0.8581 0.03111 0.0
C2439 C 0.87649 0.84848 0.02823 0.0
C2440 C 0.85273 0.84293 0.04267 0.0
C2441 C 0.83388 0.84733 0.0598 0.0
C2442 C 0.84018 0.85701 0.06267 0.0
H2443 H 0.99913 0.87452 0.05807 0.0
H2444 H 0.96143 0.86411 0.06043 0.0
H2445 H 0.97688 0.86864 0.03625 0.0
H2446 H 0.90111 0.86219 0.01972 0.0
H2447 H 0.89103 0.84538 0.01474 0.0
H2448 H 0.99194 0.60151 0.7762 0.0
H2449 H 0.02062 0.61672 0.78768 0.0
H2450 H 0.16297 0.60482 0.80163 0.0
H2451 H 0.135 0.58946 0.7895 0.0
H2452 H 0.05955 0.62425 0.82194 0.0
H2453 H 0.19648 0.62458 0.76017 0.0
H2454 H 0.14887 0.61577 0.76202 0.0
H2455 H 0.20276 0.61509 0.77757 0.0
C2456 C 0.02929 0.60204 0.78188 0.0
C2457 C 0.06152 0.59426 0.78151 0.0
C2458 C 0.04548 0.61077 0.78858 0.0
C2459 C 0.09418 0.61195 0.79513 0.0
C2460 C 0.12549 0.60409 0.79622 0.0
H2461 H 0.24781 0.66531 0.80003 0.0
H2462 H 0.22458 0.64933 0.80932 0.0
C2463 C 0.10937 0.59531 0.78937 0.0
C2464 C 0.11276 0.6216 0.79878 0.0
H2465 H 0.1898 0.63819 0.77933 0.0
C2466 C 0.08853 0.62728 0.81283 0.0
C2467 C 0.15022 0.62556 0.78673 0.0
C2468 C 0.1759 0.61999 0.77065 0.0
C2469 C 0.10015 0.63686 0.81487 0.0
C2470 C 0.13663 0.64084 0.80245 0.0
C2471 C 0.16201 0.63509 0.78893 0.0
C2472 C 0.14732 0.65106 0.80197 0.0
C2473 C 0.07299 0.64266 0.83011 0.0
C2474 C 0.1111 0.65747 0.79559 0.0
C2475 C 0.12426 0.66666 0.79038 0.0
C2476 C 0.17394 0.66949 0.79122 0.0
C2477 C 0.20927 0.66329 0.79912 0.0
C2478 C 0.19607 0.65416 0.80446 0.0
H2479 H 0.05728 0.63819 0.84208 0.0
H2480 H 0.09773 0.648 0.83688 0.0
H2481 H 0.04199 0.6464 0.82275 0.0
H2482 H 0.07342 0.65517 0.7932 0.0
H2483 H 0.09642 0.67127 0.78415 0.0
H2484 H 0.0056 0.66207 0.47889 0.0
H2485 H 0.03945 0.6471 0.46833 0.0
H2486 H 0.18252 0.65989 0.46036 0.0
H2487 H 0.14916 0.67501 0.47165 0.0
H2488 H 0.0884 0.63971 0.43618 0.0
H2489 H 0.20837 0.64052 0.50342 0.0
H2490 H 0.16008 0.64901 0.49935 0.0
H2491 H 0.21751 0.64994 0.48607 0.0
C2492 C 0.04421 0.66179 0.47469 0.0
C2493 C 0.07496 0.66972 0.4766 0.0
C2494 C 0.06341 0.6532 0.4685 0.0
C2495 C 0.1137 0.65233 0.46399 0.0
C2496 C 0.14376 0.66038 0.46422 0.0
H2497 H 0.27361 0.59955 0.46739 0.0
H2498 H 0.25157 0.61541 0.45689 0.0
C2499 C 0.12459 0.66902 0.47057 0.0
C2500 C 0.13478 0.64279 0.46138 0.0
H2501 H 0.20803 0.62672 0.48474 0.0
C2502 C 0.11516 0.63689 0.44659 0.0
C2503 C 0.16928 0.6391 0.47513 0.0
C2504 C 0.18984 0.64492 0.492 0.0
C2505 C 0.1283 0.62735 0.44549 0.0
C2506 C 0.16158 0.62363 0.45962 0.0
C2507 C 0.18264 0.62961 0.47387 0.0
C2508 C 0.17301 0.61348 0.46106 0.0
C2509 C 0.10601 0.6213 0.42944 0.0
C2510 C 0.13588 0.607 0.46614 0.0
C2511 C 0.14839 0.59787 0.4721 0.0
C2512 C 0.19823 0.59517 0.47331 0.0
C2513 C 0.23489 0.60146 0.46679 0.0
C2514 C 0.22239 0.61052 0.46072 0.0
H2515 H 0.09314 0.62559 0.41666 0.0
H2516 H 0.13298 0.616 0.42403 0.0
H2517 H 0.07361 0.6175 0.43559 0.0
H2518 H 0.0976 0.60918 0.46687 0.0
H2519 H 0.11944 0.59319 0.47718 0.0
H2520 H 0.94543 0.34271 0.18626 0.0
H2521 H 0.93591 0.35972 0.18166 0.0
H2522 H 0.85992 0.36162 0.23782 0.0
H2523 H 0.86885 0.34476 0.24255 0.0
H2524 H 0.81009 0.37036 0.20513 0.0
H2525 H 0.00699 0.38133 0.212 0.0
H2526 H 0.99299 0.37209 0.19461 0.0
H2527 H 0.98531 0.37006 0.22074 0.0
C2528 C 0.92729 0.34677 0.19775 0.0
C2529 C 0.90778 0.34235 0.21475 0.0
C2530 C 0.92185 0.35648 0.19508 0.0
C2531 C 0.89715 0.3619 0.2094 0.0
C2532 C 0.87883 0.35754 0.22654 0.0
H2533 H 0.8822 0.41845 0.24443 0.0
H2534 H 0.89197 0.40165 0.23914 0.0
C2535 C 0.88415 0.34789 0.22923 0.0
C2536 C 0.88902 0.3721 0.20663 0.0
H2537 H 0.94793 0.39327 0.20794 0.0
C2538 C 0.84019 0.37539 0.20546 0.0
C2539 C 0.92845 0.37859 0.20713 0.0
C2540 C 0.98146 0.3754 0.2088 0.0
C2541 C 0.82959 0.38504 0.20556 0.0
C2542 C 0.86897 0.39154 0.20666 0.0
C2543 C 0.91788 0.38825 0.20703 0.0
C2544 C 0.86027 0.40171 0.20965 0.0
C2545 C 0.77641 0.38822 0.20552 0.0
C2546 C 0.83835 0.4073 0.19489 0.0
C2547 C 0.8324 0.41698 0.19789 0.0
C2548 C 0.84867 0.4212 0.21565 0.0
C2549 C 0.8695 0.41548 0.23052 0.0
C2550 C 0.87528 0.40586 0.22752 0.0
H2551 H 0.75033 0.38228 0.20761 0.0
H2552 H 0.77001 0.39346 0.21748 0.0
H2553 H 0.76792 0.39165 0.19112 0.0
H2554 H 0.82691 0.40422 0.18092 0.0
H2555 H 0.81651 0.42118 0.1861 0.0
H2556 H 0.81581 0.34353 0.57018 0.0
H2557 H 0.82858 0.36046 0.57466 0.0
H2558 H 0.89615 0.36209 0.51675 0.0
H2559 H 0.8841 0.34528 0.51217 0.0
H2560 H 0.95183 0.37067 0.5474 0.0
H2561 H 0.75548 0.38238 0.54711 0.0
H2562 H 0.77148 0.37319 0.5643 0.0
H2563 H 0.77408 0.37097 0.53807 0.0
C2564 C 0.83279 0.34752 0.55829 0.0
C2565 C 0.84898 0.34302 0.54083 0.0
C2566 C 0.84007 0.35719 0.56089 0.0
C2567 C 0.86328 0.36252 0.54602 0.0
C2568 C 0.87841 0.35809 0.52845 0.0
H2569 H 0.87795 0.41967 0.51377 0.0
H2570 H 0.86809 0.4028 0.51789 0.0
C2571 C 0.8713 0.34847 0.52585 0.0
C2572 C 0.87303 0.37268 0.54865 0.0
H2573 H 0.8163 0.39408 0.55038 0.0
C2574 C 0.92227 0.3758 0.54829 0.0
C2575 C 0.83432 0.37932 0.54974 0.0
C2576 C 0.78079 0.37636 0.5497 0.0
C2577 C 0.93381 0.38542 0.54835 0.0
C2578 C 0.89505 0.39206 0.54896 0.0
C2579 C 0.84589 0.38894 0.54999 0.0
C2580 C 0.90421 0.40225 0.54651 0.0
C2581 C 0.98711 0.38843 0.54682 0.0
C2582 C 0.92864 0.40752 0.56115 0.0
C2583 C 0.93455 0.41725 0.55885 0.0
C2584 C 0.91584 0.42184 0.54191 0.0
C2585 C 0.89263 0.41643 0.52708 0.0
C2586 C 0.88679 0.40676 0.5294 0.0
H2587 H 0.01214 0.38243 0.54367 0.0
H2588 H 0.9916 0.39377 0.53491 0.0
H2589 H 0.99872 0.3917 0.56104 0.0
H2590 H 0.94203 0.40416 0.57454 0.0
H2591 H 0.95239 0.4212 0.57059 0.0
H2592 H 0.50996 0.09785 0.80061 0.0
H2593 H 0.53404 0.1138 0.80991 0.0
H2594 H 0.68299 0.10825 0.79047 0.0
H2595 H 0.65924 0.09217 0.78132 0.0
H2596 H 0.66972 0.12115 0.82623 0.0
H2597 H 0.55942 0.13039 0.75913 0.0
H2598 H 0.52848 0.12348 0.77771 0.0
H2599 H 0.57941 0.11854 0.76419 0.0
C2600 C 0.54824 0.09993 0.79889 0.0
C2601 C 0.58265 0.09383 0.79001 0.0
C2602 C 0.56188 0.10903 0.80421 0.0
C2603 C 0.60998 0.11222 0.80054 0.0
C2604 C 0.64564 0.10589 0.79339 0.0
H2605 H 0.76875 0.16246 0.78309 0.0
H2606 H 0.74072 0.14715 0.79432 0.0
C2607 C 0.63209 0.09671 0.78821 0.0
C2608 C 0.62076 0.12239 0.80118 0.0
H2609 H 0.59751 0.14276 0.77615 0.0
C2610 C 0.65373 0.12591 0.81542 0.0
C2611 C 0.59958 0.12857 0.78707 0.0
C2612 C 0.56502 0.12509 0.77104 0.0
C2613 C 0.66657 0.13549 0.81575 0.0
C2614 C 0.64656 0.1416 0.80123 0.0
C2615 C 0.61246 0.13809 0.7874 0.0
C2616 C 0.66453 0.15135 0.79836 0.0
C2617 C 0.70157 0.13894 0.83157 0.0
C2618 C 0.63109 0.15888 0.79699 0.0
C2619 C 0.64696 0.1677 0.79029 0.0
C2620 C 0.69645 0.16907 0.78464 0.0
C2621 C 0.73027 0.16165 0.78718 0.0
C2622 C 0.71443 0.15288 0.79386 0.0
H2623 H 0.69908 0.13455 0.84519 0.0
H2624 H 0.74003 0.13846 0.82595 0.0
H2625 H 0.69395 0.14637 0.83559 0.0
H2626 H 0.59229 0.15782 0.80024 0.0
H2627 H 0.61996 0.17325 0.78849 0.0
H2628 H 0.49416 0.16171 0.48202 0.0
H2629 H 0.52486 0.14652 0.47127 0.0
H2630 H 0.66753 0.15872 0.45909 0.0
H2631 H 0.63747 0.17405 0.4705 0.0
H2632 H 0.56783 0.13883 0.4379 0.0
H2633 H 0.69824 0.13944 0.50192 0.0
H2634 H 0.65018 0.14809 0.49894 0.0
H2635 H 0.70548 0.14878 0.48422 0.0
C2636 C 0.532 0.16125 0.47687 0.0
C2637 C 0.56369 0.1691 0.47758 0.0
C2638 C 0.54937 0.15253 0.47058 0.0
C2639 C 0.59871 0.15144 0.46477 0.0
C2640 C 0.62954 0.15938 0.46393 0.0
H2641 H 0.7543 0.09823 0.46548 0.0
H2642 H 0.73209 0.11408 0.45497 0.0
C2643 C 0.61223 0.16815 0.47037 0.0
C2644 C 0.61836 0.14182 0.46183 0.0
H2645 H 0.69384 0.1256 0.48347 0.0
C2646 C 0.59594 0.13595 0.44765 0.0
C2647 C 0.65467 0.13807 0.47471 0.0
C2648 C 0.67835 0.14387 0.49092 0.0
C2649 C 0.60814 0.12637 0.44632 0.0
C2650 C 0.6433 0.12259 0.45961 0.0
C2651 C 0.66703 0.12854 0.47323 0.0
C2652 C 0.65406 0.1124 0.46091 0.0
C2653 C 0.58289 0.12035 0.43093 0.0
C2654 C 0.61717 0.10606 0.46695 0.0
C2655 C 0.62976 0.09693 0.47289 0.0
C2656 C 0.67949 0.09411 0.47313 0.0
C2657 C 0.71569 0.10024 0.46561 0.0
C2658 C 0.70308 0.1093 0.45955 0.0
H2659 H 0.56863 0.12465 0.4184 0.0
H2660 H 0.60844 0.11493 0.42497 0.0
H2661 H 0.55103 0.11671 0.4379 0.0
H2662 H 0.57923 0.10836 0.46848 0.0
H2663 H 0.60122 0.09238 0.47877 0.0
H2664 H 0.32363 0.9199 0.19032 0.0
H2665 H 0.33346 0.90296 0.18481 0.0
H2666 H 0.40641 0.90032 0.24147 0.0
H2667 H 0.39719 0.91711 0.24711 0.0
H2668 H 0.45734 0.89169 0.20892 0.0
H2669 H 0.25911 0.88132 0.21358 0.0
H2670 H 0.27503 0.89062 0.19662 0.0
H2671 H 0.28118 0.89246 0.22287 0.0
C2672 C 0.34124 0.91569 0.20171 0.0
C2673 C 0.35965 0.91989 0.21915 0.0
C2674 C 0.34687 0.90602 0.19851 0.0
C2675 C 0.37071 0.90041 0.21274 0.0
C2676 C 0.3882 0.90455 0.23026 0.0
H2677 H 0.37927 0.84424 0.24845 0.0
H2678 H 0.37297 0.86105 0.24261 0.0
C2679 C 0.38267 0.91416 0.23347 0.0
C2680 C 0.37819 0.89021 0.20963 0.0
H2681 H 0.31738 0.86922 0.21014 0.0
C2682 C 0.42679 0.88676 0.20885 0.0
C2683 C 0.33817 0.88384 0.20961 0.0
C2684 C 0.28535 0.88718 0.21082 0.0
C2685 C 0.4365 0.87707 0.20892 0.0
C2686 C 0.39651 0.8707 0.20964 0.0
C2687 C 0.3479 0.87415 0.20952 0.0
C2688 C 0.40406 0.86053 0.21304 0.0
C2689 C 0.48932 0.87369 0.20933 0.0
C2690 C 0.42471 0.85468 0.19844 0.0
C2691 C 0.42859 0.84497 0.20175 0.0
C2692 C 0.41152 0.84101 0.21965 0.0
C2693 C 0.39241 0.847 0.23441 0.0
C2694 C 0.38866 0.85663 0.23111 0.0
H2695 H 0.51603 0.87957 0.21093 0.0
H2696 H 0.49484 0.86869 0.22181 0.0
H2697 H 0.49766 0.8699 0.19532 0.0
H2698 H 0.43654 0.85757 0.18434 0.0
H2699 H 0.44323 0.84055 0.19005 0.0
H2700 H 0.4315 0.92219 0.58208 0.0
H2701 H 0.42378 0.90522 0.58837 0.0
H2702 H 0.4077 0.90028 0.5255 0.0
H2703 H 0.41473 0.91711 0.51913 0.0
H2704 H 0.33418 0.89412 0.57351 0.0
H2705 H 0.51526 0.88095 0.54665 0.0
H2706 H 0.50629 0.89283 0.55546 0.0
H2707 H 0.48644 0.88958 0.53094 0.0
C2708 C 0.42738 0.91745 0.5696 0.0
C2709 C 0.42367 0.92096 0.55011 0.0
C2710 C 0.42269 0.90779 0.57323 0.0
C2711 C 0.41534 0.90154 0.55738 0.0
C2712 C 0.41372 0.905 0.5379 0.0
H2713 H 0.35342 0.84704 0.51906 0.0
H2714 H 0.36988 0.86359 0.52537 0.0
C2715 C 0.41766 0.91461 0.5343 0.0
C2716 C 0.40584 0.89145 0.56086 0.0
H2717 H 0.44951 0.86978 0.54842 0.0
C2718 C 0.35969 0.88875 0.56848 0.0
C2719 C 0.43927 0.88452 0.55423 0.0
C2720 C 0.48982 0.88708 0.5465 0.0
C2721 C 0.34474 0.87928 0.56834 0.0
C2722 C 0.37723 0.8724 0.56065 0.0
C2723 C 0.42452 0.87508 0.55418 0.0
C2724 C 0.36166 0.86255 0.55727 0.0
C2725 C 0.29335 0.87679 0.57522 0.0
C2726 C 0.3501 0.8565 0.57311 0.0
C2727 C 0.34011 0.84698 0.56951 0.0
C2728 C 0.34225 0.84338 0.55005 0.0
C2729 C 0.35184 0.84957 0.53423 0.0
C2730 C 0.36138 0.85904 0.53781 0.0
H2731 H 0.27011 0.88312 0.57767 0.0
H2732 H 0.2748 0.87219 0.56418 0.0
H2733 H 0.2957 0.87287 0.58944 0.0
H2734 H 0.35069 0.85905 0.58826 0.0
H2735 H 0.33326 0.84237 0.58201 0.0
H2736 H 0.62119 0.67057 0.28487 0.0
H2737 H 0.60189 0.65449 0.29526 0.0
H2738 H 0.75735 0.64863 0.30194 0.0
H2739 H 0.77692 0.66458 0.29132 0.0
H2740 H 0.7121 0.63707 0.27561 0.0
H2741 H 0.60371 0.63825 0.3453 0.0
H2742 H 0.58085 0.64616 0.32666 0.0
H2743 H 0.64143 0.64797 0.33697 0.0
C2744 C 0.65114 0.66595 0.28918 0.0
C2745 C 0.70056 0.6688 0.28704 0.0
C2746 C 0.64007 0.65677 0.29521 0.0
C2747 C 0.67822 0.65037 0.29947 0.0
C2748 C 0.72738 0.65345 0.29876 0.0
H2749 H 0.65123 0.58884 0.28906 0.0
H2750 H 0.68638 0.6038 0.30044 0.0
C2751 C 0.73846 0.66257 0.29262 0.0
C2752 C 0.66751 0.6402 0.30126 0.0
H2753 H 0.59581 0.62417 0.32558 0.0
C2754 C 0.68755 0.6342 0.28681 0.0
C2755 C 0.63537 0.6365 0.31583 0.0
C2756 C 0.61446 0.64254 0.33219 0.0
C2757 C 0.67395 0.62471 0.28573 0.0
C2758 C 0.64022 0.62106 0.29983 0.0
C2759 C 0.62192 0.62697 0.31488 0.0
C2760 C 0.61817 0.61161 0.29728 0.0
C2761 C 0.69323 0.61887 0.26866 0.0
C2762 C 0.56768 0.61093 0.29298 0.0
C2763 C 0.54751 0.60244 0.2867 0.0
C2764 C 0.57746 0.59441 0.28452 0.0
C2765 C 0.62727 0.59491 0.29038 0.0
C2766 C 0.64746 0.60346 0.29679 0.0
H2767 H 0.71179 0.62322 0.25717 0.0
H2768 H 0.72054 0.61371 0.27436 0.0
H2769 H 0.66272 0.61491 0.26147 0.0
H2770 H 0.54434 0.61712 0.29335 0.0
H2771 H 0.50879 0.6023 0.28264 0.0
H2772 H 0.49749 0.66195 0.98449 0.0
H2773 H 0.52557 0.64666 0.97324 0.0
H2774 H 0.66746 0.65843 0.95805 0.0
H2775 H 0.64012 0.67386 0.96995 0.0
H2776 H 0.563 0.63894 0.93891 0.0
H2777 H 0.70244 0.63889 -0.00023 0.0
H2778 H 0.65488 0.64771 0.99802 0.0
H2779 H 0.70811 0.64827 0.98209 0.0
C2780 C 0.53461 0.66138 0.97859 0.0
C2781 C 0.56692 0.66914 0.97855 0.0
C2782 C 0.55046 0.6526 0.97203 0.0
C2783 C 0.59887 0.65136 0.96518 0.0
C2784 C 0.63022 0.6592 0.96369 0.0
H2785 H 0.75112 0.59786 0.9608 0.0
H2786 H 0.72799 0.6138 0.95122 0.0
C2787 C 0.61446 0.66803 0.97041 0.0
C2788 C 0.61719 0.64169 0.96165 0.0
H2789 H 0.69467 0.62517 0.98104 0.0
C2790 C 0.59229 0.63595 0.9479 0.0
C2791 C 0.65505 0.63778 0.97355 0.0
C2792 C 0.68148 0.64343 0.98931 0.0
C2793 C 0.60364 0.62634 0.94605 0.0
C2794 C 0.64051 0.62241 0.95835 0.0
C2795 C 0.66656 0.62823 0.97154 0.0
C2796 C 0.65096 0.6122 0.95906 0.0
C2797 C 0.57574 0.62047 0.93116 0.0
C2798 C 0.6148 0.60587 0.96583 0.0
C2799 C 0.6279 0.59669 0.97121 0.0
C2800 C 0.67746 0.59381 0.97016 0.0
C2801 C 0.71268 0.59993 0.96189 0.0
C2802 C 0.69954 0.60903 0.95638 0.0
H2803 H 0.55974 0.62488 0.91914 0.0
H2804 H 0.60006 0.61506 0.9244 0.0
H2805 H 0.54489 0.61683 0.93881 0.0
H2806 H 0.57727 0.60822 0.96838 0.0
H2807 H 0.60016 0.59214 0.97771 0.0
H2808 H 0.4327 0.42024 0.73702 0.0
H2809 H 0.44091 0.4033 0.73407 0.0
H2810 H 0.30609 0.40215 0.69997 0.0
H2811 H 0.29825 0.4193 0.70235 0.0
H2812 H 0.38155 0.39022 0.74801 0.0
H2813 H 0.39669 0.38614 0.66629 0.0
H2814 H 0.40172 0.3974 0.67846 0.0
H2815 H 0.34199 0.39227 0.67399 0.0
C2816 C 0.40469 0.41643 0.72883 0.0
C2817 C 0.36465 0.42114 0.71996 0.0
C2818 C 0.40962 0.40672 0.7271 0.0
C2819 C 0.37454 0.40145 0.71659 0.0
C2820 C 0.3343 0.4061 0.70774 0.0
H2821 H 0.32259 0.3427 0.73561 0.0
H2822 H 0.32024 0.35971 0.73315 0.0
C2823 C 0.32961 0.41588 0.70926 0.0
C2824 C 0.37912 0.39106 0.71606 0.0
H2825 H 0.38646 0.37205 0.68514 0.0
C2826 C 0.38288 0.38627 0.73424 0.0
C2827 C 0.38168 0.38591 0.69809 0.0
C2828 C 0.38082 0.39069 0.67809 0.0
C2829 C 0.38831 0.37649 0.73499 0.0
C2830 C 0.38856 0.37129 0.71708 0.0
C2831 C 0.38585 0.37606 0.69885 0.0
C2832 C 0.38933 0.36089 0.71721 0.0
C2833 C 0.39419 0.37183 0.75501 0.0
C2834 C 0.42814 0.35584 0.70834 0.0
C2835 C 0.42949 0.34601 0.70956 0.0
C2836 C 0.39203 0.3411 0.71969 0.0
C2837 C 0.3526 0.34622 0.72801 0.0
C2838 C 0.35113 0.35598 0.72665 0.0
H2839 H 0.40827 0.37684 0.76634 0.0
H2840 H 0.35768 0.36924 0.76013 0.0
H2841 H 0.41987 0.36576 0.75417 0.0
H2842 H 0.45782 0.35952 0.70086 0.0
H2843 H 0.4602 0.34227 0.70291 0.0
H2844 H 0.42976 0.42141 0.08028 0.0
H2845 H 0.42057 0.40443 0.0862 0.0
H2846 H 0.40259 0.39988 0.02329 0.0
H2847 H 0.41117 0.4167 0.01727 0.0
H2848 H 0.33039 0.39361 0.07186 0.0
H2849 H 0.50912 0.38019 0.0431 0.0
H2850 H 0.50123 0.39208 0.05206 0.0
H2851 H 0.47989 0.38889 0.0277 0.0
C2852 C 0.42485 0.41675 0.0677 0.0
C2853 C 0.42113 0.42038 0.04831 0.0
C2854 C 0.41932 0.40709 0.07112 0.0
C2855 C 0.4111 0.40094 0.05516 0.0
C2856 C 0.40931 0.40451 0.03577 0.0
H2857 H 0.34537 0.34637 0.01718 0.0
H2858 H 0.36209 0.36295 0.02312 0.0
C2859 C 0.41411 0.41413 0.03237 0.0
C2860 C 0.4011 0.39085 0.05845 0.0
H2861 H 0.4429 0.36914 0.04526 0.0
C2862 C 0.35528 0.3882 0.06647 0.0
C2863 C 0.43373 0.38388 0.05136 0.0
C2864 C 0.48398 0.38637 0.04321 0.0
C2865 C 0.33986 0.37877 0.06635 0.0
C2866 C 0.37152 0.37185 0.05825 0.0
C2867 C 0.4185 0.37447 0.05131 0.0
C2868 C 0.35549 0.362 0.0551 0.0
C2869 C 0.28881 0.37634 0.07374 0.0
C2870 C 0.34473 0.35601 0.07111 0.0
C2871 C 0.33457 0.34648 0.06772 0.0
C2872 C 0.33576 0.34281 0.04831 0.0
C2873 C 0.3445 0.34895 0.03232 0.0
C2874 C 0.35419 0.35843 0.03569 0.0
H2875 H 0.26589 0.38271 0.0763 0.0
H2876 H 0.2695 0.37172 0.06297 0.0
H2877 H 0.2919 0.37248 0.08801 0.0
H2878 H 0.34615 0.3586 0.08622 0.0
H2879 H 0.32844 0.3419 0.08034 0.0
H2880 H 0.02636 0.05195 0.31957 0.0
H2881 H 0.98544 0.04955 0.35133 0.0
H2882 H 0.85258 0.06219 0.32819 0.0
H2883 H 0.8936 0.06484 0.29632 0.0
H2884 H 0.88484 0.07073 0.36157 0.0
H2885 H 0.88079 0.03227 0.37385 0.0
H2886 H 0.94116 0.03648 0.36735 0.0
H2887 H 0.89148 0.03741 0.34969 0.0
C2888 C 0.98806 0.05404 0.321 0.0
C2889 C 0.96351 0.05871 0.30541 0.0
C2890 C 0.96457 0.05258 0.3392 0.0
C2891 C 0.91588 0.05564 0.34211 0.0
C2892 C 0.8902 0.05976 0.32621 0.0
H2893 H 0.73962 0.05191 0.44901 0.0
H2894 H 0.77756 0.04901 0.41673 0.0
C2895 C 0.91372 0.06126 0.30799 0.0
C2896 C 0.89442 0.05571 0.36236 0.0
H2897 H 0.86943 0.04196 0.40274 0.0
C2898 C 0.88104 0.06442 0.37049 0.0
C2899 C 0.88943 0.04747 0.37396 0.0
C2900 C 0.90102 0.03787 0.3657 0.0
C2901 C 0.86363 0.06516 0.39002 0.0
C2902 C 0.86058 0.05699 0.40191 0.0
C2903 C 0.87281 0.04823 0.39368 0.0
C2904 C 0.84232 0.05745 0.4226 0.0
C2905 C 0.84805 0.07469 0.39766 0.0
C2906 C 0.86741 0.06279 0.43693 0.0
C2907 C 0.84576 0.06453 0.45543 0.0
C2908 C 0.79868 0.0609 0.45989 0.0
C2909 C 0.77562 0.05492 0.44603 0.0
C2910 C 0.79728 0.05321 0.42755 0.0
H2911 H 0.8417 0.07976 0.38536 0.0
H2912 H 0.8137 0.07416 0.40661 0.0
H2913 H 0.87763 0.07757 0.40732 0.0
H2914 H 0.90275 0.06597 0.43347 0.0
H2915 H 0.86481 0.06908 0.46579 0.0
H2916 H 0.23828 0.20962 0.31435 0.0
H2917 H 0.27743 0.21227 0.34633 0.0
H2918 H 0.40443 0.1963 0.3274 0.0
H2919 H 0.36484 0.19335 0.29533 0.0
H2920 H 0.36741 0.18981 0.36148 0.0
H2921 H 0.38734 0.22838 0.36755 0.0
H2922 H 0.32545 0.22503 0.36122 0.0
H2923 H 0.37515 0.22258 0.3442 0.0
C2924 C 0.27501 0.20681 0.31673 0.0
C2925 C 0.29814 0.20116 0.30228 0.0
C2926 C 0.29755 0.20843 0.33505 0.0
C2927 C 0.34403 0.20456 0.33922 0.0
C2928 C 0.36853 0.19937 0.32445 0.0
H2929 H 0.50988 0.2106 0.44835 0.0
H2930 H 0.47601 0.21258 0.41509 0.0
C2931 C 0.34586 0.1977 0.30611 0.0
C2932 C 0.36386 0.20491 0.35973 0.0
H2933 H 0.39046 0.21971 0.39824 0.0
C2934 C 0.37295 0.19636 0.36943 0.0
C2935 C 0.37122 0.21346 0.37009 0.0
C2936 C 0.36476 0.22288 0.36015 0.0
C2937 C 0.38826 0.19609 0.3893 0.0
C2938 C 0.39331 0.20461 0.39995 0.0
C2939 C 0.38546 0.21318 0.39015 0.0
C2940 C 0.40937 0.20468 0.42097 0.0
C2941 C 0.39962 0.18667 0.39859 0.0
C2942 C 0.38187 0.19998 0.43561 0.0
C2943 C 0.40126 0.19875 0.45469 0.0
C2944 C 0.44835 0.20228 0.45945 0.0
C2945 C 0.47377 0.20768 0.44518 0.0
C2946 C 0.45446 0.20885 0.42612 0.0
H2947 H 0.40597 0.18116 0.38718 0.0
H2948 H 0.4328 0.18709 0.40826 0.0
H2949 H 0.36783 0.18444 0.40787 0.0
H2950 H 0.34636 0.19691 0.43202 0.0
H2951 H 0.3804 0.19466 0.46534 0.0
H2952 H 0.76505 0.21481 0.80458 0.0
H2953 H 0.79996 0.21842 0.83718 0.0
H2954 H 0.89854 0.19473 0.8318 0.0
H2955 H 0.86515 0.19129 0.79899 0.0
H2956 H 0.79175 0.20764 0.86827 0.0
H2957 H 0.99053 0.21348 0.85536 0.0
H2958 H 0.94628 0.21339 0.8353 0.0
H2959 H 0.97182 0.20254 0.84457 0.0
C2960 C 0.79513 0.21053 0.81012 0.0
C2961 C 0.81227 0.20275 0.79922 0.0
C2962 C 0.81496 0.21259 0.82878 0.0
C2963 C 0.85215 0.2069 0.83693 0.0
C2964 C 0.87082 0.19938 0.82567 0.0
H2965 H 0.89838 0.18944 0.95591 0.0
H2966 H 0.86509 0.19323 0.92321 0.0
C2967 C 0.85149 0.19739 0.80689 0.0
C2968 C 0.86722 0.20808 0.85799 0.0
H2969 H 0.96787 0.20821 0.88843 0.0
C2970 C 0.83027 0.20795 0.87266 0.0
C2971 C 0.91733 0.20866 0.8638 0.0
C2972 C 0.95863 0.20963 0.84888 0.0
C2973 C 0.84219 0.20786 0.89294 0.0
C2974 C 0.89242 0.20759 0.8987 0.0
C2975 C 0.92929 0.20826 0.88406 0.0
C2976 C 0.90782 0.206 0.91959 0.0
C2977 C 0.80074 0.20799 0.90794 0.0
C2978 C 0.94305 0.21188 0.9285 0.0
C2979 C 0.96282 0.20963 0.94706 0.0
C2980 C 0.94758 0.20146 0.95713 0.0
C2981 C 0.91049 0.19584 0.94865 0.0
C2982 C 0.89123 0.19803 0.92996 0.0
H2983 H 0.76772 0.21165 0.90192 0.0
H2984 H 0.78972 0.20066 0.91139 0.0
H2985 H 0.81205 0.2115 0.92194 0.0
H2986 H 0.95644 0.21806 0.92078 0.0
H2987 H 0.99122 0.21413 0.95324 0.0
H2988 H 0.24058 0.05279 0.94769 0.0
H2989 H 0.28113 0.0501 0.91595 0.0
H2990 H 0.41346 0.06337 0.938 0.0
H2991 H 0.37279 0.06631 0.96982 0.0
H2992 H 0.37997 0.07146 0.90442 0.0
H2993 H 0.38645 0.03291 0.89372 0.0
H2994 H 0.32589 0.03701 0.90025 0.0
H2995 H 0.37584 0.03824 0.9177 0.0
C2996 C 0.27872 0.05495 0.94604 0.0
C2997 C 0.30316 0.05989 0.96128 0.0
C2998 C 0.30201 0.05333 0.92786 0.0
C2999 C 0.35041 0.05648 0.92463 0.0
C3000 C 0.37606 0.06086 0.94022 0.0
H3001 H 0.52218 0.05237 0.81634 0.0
H3002 H 0.48669 0.04963 0.84914 0.0
C3003 C 0.35274 0.06253 0.95841 0.0
C3004 C 0.37139 0.05641 0.90429 0.0
H3005 H 0.39586 0.04236 0.86432 0.0
C3006 C 0.38393 0.06508 0.89574 0.0
C3007 C 0.37658 0.04808 0.893 0.0
C3008 C 0.36594 0.03853 0.9017 0.0
C3009 C 0.40054 0.06569 0.87608 0.0
C3010 C 0.40367 0.05742 0.86449 0.0
C3011 C 0.39244 0.0487 0.87315 0.0
C3012 C 0.42062 0.05775 0.84361 0.0
C3013 C 0.41508 0.07518 0.86795 0.0
C3014 C 0.39403 0.06287 0.82935 0.0
C3015 C 0.41425 0.06451 0.81056 0.0
C3016 C 0.4614 0.06102 0.80572 0.0
C3017 C 0.48604 0.05526 0.81958 0.0
C3018 C 0.46581 0.05365 0.83836 0.0
H3019 H 0.42169 0.08037 0.87999 0.0
H3020 H 0.449 0.07466 0.85873 0.0
H3021 H 0.38482 0.07791 0.85842 0.0
H3022 H 0.35859 0.06594 0.83306 0.0
H3023 H 0.39397 0.06888 0.80022 0.0
H3024 H 0.3356 0.95098 0.60484 0.0
H3025 H 0.2656 0.95083 0.62749 0.0
H3026 H 0.16558 0.94879 0.57781 0.0
H3027 H 0.23579 0.94871 0.55484 0.0
H3028 H 0.18849 0.96283 0.63118 0.0
H3029 H 0.12076 0.9271 0.61249 0.0
H3030 H 0.18032 0.93138 0.60452 0.0
H3031 H 0.12522 0.93479 0.59143 0.0
C3032 C 0.2988 0.95048 0.59861 0.0
C3033 C 0.29147 0.94979 0.57794 0.0
C3034 C 0.25877 0.95041 0.61166 0.0
C3035 C 0.21043 0.94964 0.60439 0.0
C3036 C 0.20269 0.94916 0.58377 0.0
H3037 H 0.92178 0.95084 0.65701 0.0
H3038 H 0.99416 0.95108 0.63562 0.0
C3039 C 0.24286 0.94918 0.57065 0.0
C3040 C 0.16838 0.94946 0.61852 0.0
H3041 H 0.06964 0.93632 0.63356 0.0
C3042 C 0.16265 0.95702 0.63178 0.0
C3043 C 0.13496 0.94183 0.61938 0.0
C3044 C 0.14077 0.93327 0.60634 0.0
C3045 C 0.12371 0.95723 0.64556 0.0
C3046 C 0.08992 0.94968 0.64616 0.0
C3047 C 0.09577 0.9421 0.63303 0.0
C3048 C 0.04671 0.9497 0.65961 0.0
C3049 C 0.11816 0.96563 0.65906 0.0
C3050 C 0.05238 0.94883 0.68026 0.0
C3051 C 0.01083 0.94864 0.69269 0.0
C3052 C 0.963 0.94935 0.68461 0.0
C3053 C 0.95787 0.95028 0.66386 0.0
C3054 C 0.99922 0.95041 0.65153 0.0
H3055 H 0.14272 0.97152 0.65463 0.0
H3056 H 0.07932 0.96814 0.65905 0.0
H3057 H 0.12762 0.96355 0.6745 0.0
H3058 H 0.08887 0.94818 0.68673 0.0
H3059 H 0.01618 0.9479 0.70856 0.0
H3060 H 0.82519 0.8057 0.6618 0.0
H3061 H 0.75588 0.80538 0.63878 0.0
H3062 H 0.66194 0.81782 0.68331 0.0
H3063 H 0.7316 0.81822 0.70669 0.0
H3064 H 0.6607 0.79671 0.64308 0.0
H3065 H 0.6513 0.83552 0.63374 0.0
H3066 H 0.70449 0.82967 0.64423 0.0
H3067 H 0.6497 0.83123 0.65889 0.0
C3068 C 0.78983 0.80835 0.66684 0.0
C3069 C 0.78411 0.81205 0.68612 0.0
C3070 C 0.75022 0.80814 0.65362 0.0
C3071 C 0.70408 0.81169 0.65926 0.0
C3072 C 0.69758 0.81517 0.67862 0.0
H3073 H 0.42394 0.80623 0.60021 0.0
H3074 H 0.49458 0.80551 0.62251 0.0
C3075 C 0.73728 0.81533 0.69199 0.0
C3076 C 0.66324 0.81181 0.64462 0.0
H3077 H 0.59092 0.8265 0.61696 0.0
C3078 C 0.64534 0.80321 0.63738 0.0
C3079 C 0.64404 0.82032 0.63698 0.0
C3080 C 0.66348 0.82973 0.64368 0.0
C3081 C 0.60799 0.8029 0.62293 0.0
C3082 C 0.58797 0.8114 0.61564 0.0
C3083 C 0.60643 0.82 0.62262 0.0
C3084 C 0.54611 0.81149 0.6015 0.0
C3085 C 0.59041 0.79348 0.61545 0.0
C3086 C 0.55167 0.81515 0.58225 0.0
C3087 C 0.51117 0.81556 0.56929 0.0
C3088 C 0.46436 0.81244 0.57555 0.0
C3089 C 0.45933 0.80871 0.59484 0.0
C3090 C 0.49974 0.80824 0.60764 0.0
H3091 H 0.61716 0.78779 0.61893 0.0
H3092 H 0.55472 0.79172 0.62267 0.0
H3093 H 0.5843 0.79367 0.59914 0.0
H3094 H 0.58726 0.81774 0.57731 0.0
H3095 H 0.51626 0.81852 0.55461 0.0
H3096 H 0.33295 0.81081 0.1618 0.0
H3097 H 0.2656 0.81087 0.13791 0.0
H3098 H 0.15994 0.81258 0.18573 0.0
H3099 H 0.22749 0.81273 0.20997 0.0
H3100 H 0.18876 0.79868 0.13287 0.0
H3101 H 0.11943 0.83446 0.15035 0.0
H3102 H 0.17819 0.83018 0.15922 0.0
H3103 H 0.12191 0.82672 0.1714 0.0
C3104 C 0.29547 0.81122 0.16737 0.0
C3105 C 0.28579 0.81185 0.18791 0.0
C3106 C 0.25696 0.81123 0.15362 0.0
C3107 C 0.20783 0.81188 0.16 0.0
C3108 C 0.19772 0.81229 0.18046 0.0
H3109 H 0.92624 0.812 0.10132 0.0
H3110 H 0.99547 0.81141 0.12427 0.0
C3111 C 0.23636 0.81232 0.19431 0.0
C3112 C 0.16749 0.81207 0.1451 0.0
H3113 H 0.07146 0.82536 0.12799 0.0
C3114 C 0.16321 0.80452 0.13174 0.0
C3115 C 0.13449 0.81975 0.14356 0.0
C3116 C 0.13887 0.82828 0.15676 0.0
C3117 C 0.12609 0.80435 0.11717 0.0
C3118 C 0.09277 0.81197 0.11583 0.0
C3119 C 0.09719 0.81953 0.12909 0.0
C3120 C 0.05147 0.81204 0.10142 0.0
C3121 C 0.12197 0.79594 0.10362 0.0
C3122 C 0.06008 0.8126 0.08087 0.0
C3123 C 0.02033 0.81297 0.06754 0.0
C3124 C 0.97139 0.8128 0.0746 0.0
C3125 C 0.96328 0.81217 0.09524 0.0
C3126 C 0.00284 0.81183 0.10846 0.0
H3127 H 0.14466 0.78994 0.10892 0.0
H3128 H 0.08291 0.79363 0.10238 0.0
H3129 H 0.13491 0.79791 0.08854 0.0
H3130 H 0.09748 0.81289 0.07518 0.0
H3131 H 0.02797 0.81347 0.05178 0.0
H3132 H 0.7331 0.96077 0.05394 0.0
H3133 H 0.6693 0.96222 0.07976 0.0
H3134 H 0.75005 0.94275 0.11672 0.0
H3135 H 0.81474 0.94176 0.0916 0.0
H3136 H 0.60801 0.95083 0.09579 0.0
H3137 H 0.73013 0.96293 0.15605 0.0
H3138 H 0.751 0.96213 0.13067 0.0
H3139 H 0.75221 0.95194 0.14665 0.0
C3140 C 0.73699 0.95683 0.06762 0.0
C3141 C 0.7789 0.95124 0.07093 0.0
C3142 C 0.70074 0.95767 0.08238 0.0
C3143 C 0.7056 0.95283 0.10051 0.0
C3144 C 0.74641 0.94689 0.1033 0.0
H3145 H 0.46718 0.9365 0.17698 0.0
H3146 H 0.53297 0.93799 0.15228 0.0
C3147 C 0.78308 0.94623 0.08883 0.0
C3148 C 0.66736 0.95365 0.11628 0.0
H3149 H 0.65255 0.95605 0.16643 0.0
C3150 C 0.61774 0.9521 0.11119 0.0
C3151 C 0.67957 0.95559 0.13635 0.0
C3152 C 0.73107 0.95835 0.14268 0.0
C3153 C 0.5805 0.95198 0.12568 0.0
C3154 C 0.59349 0.95299 0.14598 0.0
C3155 C 0.64267 0.95503 0.15097 0.0
C3156 C 0.55681 0.95175 0.1622 0.0
C3157 C 0.5276 0.95084 0.11898 0.0
C3158 C 0.55069 0.95865 0.17696 0.0
C3159 C 0.51424 0.95762 0.19158 0.0
C3160 C 0.48334 0.94972 0.19147 0.0
C3161 C 0.49072 0.94266 0.17725 0.0
C3162 C 0.52775 0.94358 0.16298 0.0
H3163 H 0.52234 0.95359 0.10367 0.0
H3164 H 0.518 0.94326 0.11876 0.0
H3165 H 0.50159 0.95455 0.12905 0.0
H3166 H 0.57302 0.96497 0.1768 0.0
H3167 H 0.5086 0.96319 0.20233 0.0
H3168 H 0.00981 0.55291 0.81027 0.0
H3169 H 0.97206 0.5503 0.84258 0.0
H3170 H 0.83995 0.5645 0.82301 0.0
H3171 H 0.87793 0.56738 0.79062 0.0
H3172 H 0.87685 0.57205 0.85637 0.0
H3173 H 0.8668 0.53345 0.86558 0.0
H3174 H 0.92738 0.53734 0.85856 0.0
H3175 H 0.87644 0.53895 0.84171 0.0
C3176 C 0.97227 0.55531 0.81259 0.0
C3177 C 0.94716 0.56047 0.79786 0.0
C3178 C 0.95058 0.55373 0.8311 0.0
C3179 C 0.90307 0.55714 0.83518 0.0
C3180 C 0.87669 0.56179 0.82014 0.0
H3181 H 0.73663 0.55219 0.94422 0.0
H3182 H 0.77182 0.54969 0.91131 0.0
C3183 C 0.89845 0.56342 0.80162 0.0
C3184 C 0.88383 0.55697 0.85579 0.0
H3185 H 0.86041 0.54264 0.89542 0.0
C3186 C 0.87282 0.5656 0.86483 0.0
C3187 C 0.87853 0.54856 0.86681 0.0
C3188 C 0.88744 0.53905 0.8576 0.0
C3189 C 0.85739 0.56609 0.88466 0.0
C3190 C 0.85408 0.55772 0.89594 0.0
C3191 C 0.86402 0.54906 0.88683 0.0
C3192 C 0.83759 0.5579 0.9169 0.0
C3193 C 0.84401 0.57556 0.89326 0.0
C3194 C 0.86418 0.56295 0.93127 0.0
C3195 C 0.84406 0.56446 0.95013 0.0
C3196 C 0.79708 0.56089 0.95493 0.0
C3197 C 0.77261 0.55515 0.941 0.0
C3198 C 0.79269 0.55368 0.92215 0.0
H3199 H 0.83713 0.58086 0.88146 0.0
H3200 H 0.81055 0.57506 0.90275 0.0
H3201 H 0.87499 0.57813 0.90259 0.0
H3202 H 0.89948 0.56609 0.92758 0.0
H3203 H 0.86421 0.56882 0.96053 0.0
H3204 H 0.23606 0.71031 0.81777 0.0
H3205 H 0.27593 0.7131 0.84959 0.0
H3206 H 0.40533 0.69818 0.8295 0.0
H3207 H 0.36523 0.69512 0.79762 0.0
H3208 H 0.36918 0.69111 0.86354 0.0
H3209 H 0.38456 0.72974 0.87085 0.0
H3210 H 0.3232 0.72605 0.86448 0.0
H3211 H 0.37311 0.72403 0.84732 0.0
C3212 C 0.27345 0.70778 0.81986 0.0
C3213 C 0.29717 0.70237 0.80516 0.0
C3214 C 0.29637 0.70947 0.83809 0.0
C3215 C 0.34372 0.70591 0.84189 0.0
C3216 C 0.36874 0.70101 0.82684 0.0
H3217 H 0.51582 0.71114 0.9495 0.0
H3218 H 0.4798 0.71345 0.91667 0.0
C3219 C 0.34576 0.69927 0.80861 0.0
C3220 C 0.3641 0.7062 0.86231 0.0
H3221 H 0.39132 0.72082 0.90106 0.0
C3222 C 0.37446 0.69761 0.87166 0.0
C3223 C 0.37104 0.7147 0.87288 0.0
C3224 C 0.36287 0.72415 0.8633 0.0
C3225 C 0.39078 0.69726 0.89139 0.0
C3226 C 0.39571 0.70572 0.90223 0.0
C3227 C 0.38648 0.71434 0.8928 0.0
C3228 C 0.41303 0.70568 0.92308 0.0
C3229 C 0.40331 0.68782 0.90033 0.0
C3230 C 0.38623 0.70094 0.93786 0.0
C3231 C 0.4068 0.69954 0.95667 0.0
C3232 C 0.45446 0.70291 0.96102 0.0
C3233 C 0.4793 0.70834 0.94664 0.0
C3234 C 0.45875 0.7097 0.92784 0.0
H3235 H 0.40892 0.68237 0.88873 0.0
H3236 H 0.43727 0.68826 0.90954 0.0
H3237 H 0.37246 0.6855 0.91002 0.0
H3238 H 0.35033 0.69796 0.93454 0.0
H3239 H 0.38638 0.69542 0.96743 0.0
H3240 H 0.88542 0.6937 0.46499 0.0
H3241 H 0.84994 0.69661 0.43214 0.0
H3242 H 0.97341 0.71443 0.41736 0.0
H3243 H 0.00877 0.71174 0.45016 0.0
H3244 H 0.8826 0.7209 0.40188 0.0
H3245 H 0.9172 0.68324 0.38507 0.0
H3246 H 0.87852 0.68524 0.40634 0.0
H3247 H 0.942 0.68896 0.40681 0.0
C3248 C 0.90458 0.69839 0.45493 0.0
C3249 C 0.95049 0.70233 0.46011 0.0
C3250 C 0.88433 0.70001 0.43613 0.0
C3251 C 0.90974 0.70554 0.42221 0.0
C3252 C 0.95347 0.71007 0.42786 0.0
H3253 H 0.87545 0.69773 0.29535 0.0
H3254 H 0.9117 0.70068 0.328 0.0
C3255 C 0.97367 0.70849 0.44663 0.0
C3256 C 0.89346 0.70591 0.40124 0.0
H3257 H 0.87584 0.69208 0.3605 0.0
C3258 C 0.88108 0.71461 0.39278 0.0
C3259 C 0.89284 0.69773 0.38932 0.0
C3260 C 0.90878 0.68827 0.39724 0.0
C3261 C 0.86683 0.71531 0.37276 0.0
C3262 C 0.86439 0.70706 0.36107 0.0
C3263 C 0.87774 0.6984 0.36948 0.0
C3264 C 0.84587 0.70704 0.34036 0.0
C3265 C 0.85515 0.72486 0.36427 0.0
C3266 C 0.79738 0.70991 0.33628 0.0
C3267 C 0.77664 0.7083 0.31761 0.0
C3268 C 0.80375 0.70363 0.30272 0.0
C3269 C 0.85338 0.70129 0.30647 0.0
C3270 C 0.87417 0.70296 0.32514 0.0
H3271 H 0.87361 0.73054 0.37282 0.0
H3272 H 0.86666 0.72537 0.34847 0.0
H3273 H 0.81469 0.72607 0.36509 0.0
H3274 H 0.77451 0.7129 0.34788 0.0
H3275 H 0.73835 0.71022 0.3153 0.0
H3276 H 0.40287 0.57526 0.30164 0.0
H3277 H 0.36993 0.57195 0.33469 0.0
H3278 H 0.45084 0.54583 0.33625 0.0
H3279 H 0.48556 0.54929 0.30349 0.0
H3280 H 0.31696 0.55849 0.35215 0.0
H3281 H 0.50607 0.55887 0.38424 0.0
H3282 H 0.49376 0.56223 0.35891 0.0
H3283 H 0.49662 0.55001 0.36567 0.0
C3284 C 0.41297 0.56873 0.30885 0.0
C3285 C 0.44737 0.5626 0.30011 0.0
C3286 C 0.39422 0.56685 0.32778 0.0
C3287 C 0.4091 0.55878 0.33818 0.0
C3288 C 0.44018 0.55226 0.32877 0.0
H3289 H 0.26618 0.54947 0.45383 0.0
H3290 H 0.29936 0.54617 0.42074 0.0
C3291 C 0.45963 0.5542 0.31 0.0
C3292 C 0.3943 0.55755 0.35924 0.0
H3293 H 0.44044 0.55614 0.40639 0.0
C3294 C 0.34389 0.5579 0.36402 0.0
C3295 C 0.42965 0.5569 0.37471 0.0
C3296 C 0.48455 0.55707 0.37071 0.0
C3297 C 0.32781 0.55791 0.38384 0.0
C3298 C 0.36314 0.5572 0.39931 0.0
C3299 C 0.41346 0.55657 0.39451 0.0
C3300 C 0.34901 0.55809 0.42052 0.0
C3301 C 0.27336 0.55918 0.38796 0.0
C3302 C 0.3687 0.56545 0.43196 0.0
C3303 C 0.35075 0.56721 0.45105 0.0
C3304 C 0.31239 0.5617 0.45894 0.0
C3305 C 0.29529 0.55392 0.44802 0.0
C3306 C 0.31387 0.55207 0.42905 0.0
H3307 H 0.25321 0.56188 0.37475 0.0
H3308 H 0.25694 0.5523 0.39203 0.0
H3309 H 0.26735 0.56414 0.40047 0.0
H3310 H 0.39617 0.57014 0.42573 0.0
H3311 H 0.36468 0.57326 0.45905 0.0
H3312 H 0.0247 0.45045 0.20757 0.0
H3313 H 0.09407 0.45076 0.18411 0.0
H3314 H 0.99204 0.45286 0.13514 0.0
H3315 H 0.92284 0.45256 0.15819 0.0
H3316 H 0.06603 0.43848 0.1313 0.0
H3317 H 0.14462 0.47344 0.15039 0.0
H3318 H 0.1336 0.46562 0.1709 0.0
H3319 H 0.08231 0.47009 0.15689 0.0
C3320 C 0.01701 0.45105 0.19183 0.0
C3321 C 0.96806 0.45147 0.18484 0.0
C3322 C 0.0567 0.45125 0.17846 0.0
C3323 C 0.04806 0.45189 0.15792 0.0
C3324 C -0.00057 0.45237 0.15094 0.0
H3325 H 0.23586 0.44926 0.05185 0.0
H3326 H 0.1647 0.45006 0.07437 0.0
C3327 C 0.9599 0.45221 0.16421 0.0
C3328 C 0.08941 0.45173 0.14353 0.0
H3329 H 0.18932 0.4642 0.1274 0.0
C3330 C 0.09299 0.4441 0.13037 0.0
C3331 C 0.12427 0.45909 0.14238 0.0
C3332 C 0.12106 0.46758 0.15576 0.0
C3333 C 0.13129 0.44354 0.11635 0.0
C3334 C 0.16623 0.45091 0.11518 0.0
C3335 C 0.16237 0.45857 0.12827 0.0
C3336 C 0.20865 0.4506 0.10123 0.0
C3337 C 0.13485 0.43491 0.10337 0.0
C3338 C 0.25681 0.4509 0.1088 0.0
C3339 C 0.29732 0.45055 0.09604 0.0
C3340 C 0.29073 0.44989 0.07532 0.0
C3341 C 0.24233 0.4497 0.0677 0.0
C3342 C 0.20162 0.4501 0.08056 0.0
H3343 H 0.11287 0.42897 0.10943 0.0
H3344 H 0.12029 0.43659 0.08838 0.0
H3345 H 0.17383 0.4326 0.10175 0.0
H3346 H 0.26312 0.45131 0.12468 0.0
H3347 H 0.3339 0.45073 0.10255 0.0
H3348 H 0.83226 0.31444 0.15489 0.0
H3349 H 0.76316 0.31431 0.13181 0.0
H3350 H 0.66162 0.31102 0.18069 0.0
H3351 H 0.73081 0.31136 0.20416 0.0
H3352 H 0.6947 0.30087 0.12428 0.0
H3353 H 0.60348 0.33334 0.15146 0.0
H3354 H 0.66524 0.33007 0.15882 0.0
H3355 H 0.61259 0.32464 0.17041 0.0
C3356 C 0.7953 0.31371 0.16086 0.0
C3357 C 0.78719 0.31297 0.18149 0.0
C3358 C 0.75579 0.31362 0.14757 0.0
C3359 C 0.70719 0.3128 0.15451 0.0
C3360 C 0.6988 0.31188 0.17503 0.0
H3361 H 0.42147 0.30889 0.10028 0.0
H3362 H 0.49377 0.30861 0.12166 0.0
C3363 C 0.73841 0.31202 0.18843 0.0
C3364 C 0.66564 0.31281 0.14013 0.0
H3365 H 0.55925 0.32429 0.12774 0.0
C3366 C 0.6652 0.30602 0.12496 0.0
C3367 C 0.62744 0.31959 0.14095 0.0
C3368 C 0.6273 0.32738 0.15615 0.0
C3369 C 0.62689 0.30568 0.1109 0.0
C3370 C 0.58832 0.31235 0.11198 0.0
C3371 C 0.58897 0.31918 0.127 0.0
C3372 C 0.54547 0.31209 0.09832 0.0
C3373 C 0.62719 0.29807 0.09531 0.0
C3374 C 0.55066 0.31408 0.07799 0.0
C3375 C 0.50909 0.31428 0.06555 0.0
C3376 C 0.46172 0.31251 0.07333 0.0
C3377 C 0.45716 0.31035 0.09369 0.0
C3378 C 0.4985 0.31018 0.10601 0.0
H3379 H 0.65491 0.29252 0.09859 0.0
H3380 H 0.59015 0.29476 0.09411 0.0
H3381 H 0.63625 0.30121 0.08067 0.0
H3382 H 0.58667 0.31568 0.07183 0.0
H3383 H 0.51396 0.31599 0.05 0.0
H3384 H 0.92351 0.31252 0.59935 0.0
H3385 H 0.9938 0.31141 0.62162 0.0
H3386 H 0.09284 0.31089 0.57145 0.0
H3387 H 0.0222 0.31218 0.54875 0.0
H3388 H 0.06465 0.29758 0.62473 0.0
H3389 H 0.14896 0.33208 0.60581 0.0
H3390 H 0.087 0.32895 0.59844 0.0
H3391 H 0.13913 0.3243 0.58517 0.0
C3392 C 0.96013 0.3122 0.59289 0.0
C3393 C 0.96706 0.31251 0.57215 0.0
C3394 C 0.00034 0.31154 0.60573 0.0
C3395 C 0.04854 0.31118 0.59823 0.0
C3396 C 0.0559 0.31133 0.57756 0.0
H3397 H 0.32949 0.30931 0.66009 0.0
H3398 H 0.26373 0.30874 0.63546 0.0
C3399 C 0.01548 0.31202 0.5646 0.0
C3400 C 0.09058 0.31063 0.6123 0.0
H3401 H 0.19131 0.32268 0.62912 0.0
C3402 C 0.09245 0.30305 0.62566 0.0
C3403 C 0.12665 0.3178 0.61352 0.0
C3404 C 0.12534 0.32629 0.60011 0.0
C3405 C 0.12945 0.30245 0.64023 0.0
C3406 C 0.16509 0.30967 0.6416 0.0
C3407 C 0.16375 0.31717 0.62804 0.0
C3408 C 0.20443 0.30958 0.65689 0.0
C3409 C 0.13041 0.29405 0.6539 0.0
C3410 C 0.19284 0.31024 0.67719 0.0
C3411 C 0.23049 0.31059 0.69145 0.0
C3412 C 0.2804 0.31033 0.68561 0.0
C3413 C 0.29159 0.30956 0.66522 0.0
C3414 C 0.25404 0.30923 0.65105 0.0
H3415 H 0.10801 0.28814 0.64798 0.0
H3416 H 0.16886 0.29157 0.65627 0.0
H3417 H 0.11492 0.29608 0.66855 0.0
H3418 H 0.15469 0.31067 0.68198 0.0
H3419 H 0.22049 0.31121 0.70698 0.0
H3420 H 0.53271 0.45136 0.70915 0.0
H3421 H 0.60169 0.45196 0.68555 0.0
H3422 H 0.49872 0.45313 0.63674 0.0
H3423 H 0.42991 0.45248 0.65994 0.0
H3424 H 0.57321 0.43945 0.63239 0.0
H3425 H 0.65028 0.47447 0.6519 0.0
H3426 H 0.64173 0.46653 0.67239 0.0
H3427 H 0.58888 0.47085 0.65909 0.0
C3428 C 0.52473 0.45182 0.69341 0.0
C3429 C 0.47565 0.45185 0.68651 0.0
C3430 C 0.56419 0.4522 0.67996 0.0
C3431 C 0.5552 0.45267 0.65942 0.0
C3432 C 0.50641 0.45279 0.65253 0.0
H3433 H 0.7386 0.45137 0.55237 0.0
H3434 H 0.6688 0.45199 0.57556 0.0
C3435 C 0.4671 0.45241 0.66588 0.0
C3436 C 0.59637 0.45266 0.64493 0.0
H3437 H 0.69566 0.46533 0.62885 0.0
C3438 C 0.59994 0.44512 0.63155 0.0
C3439 C 0.63101 0.46007 0.64389 0.0
C3440 C 0.62778 0.46849 0.65745 0.0
C3441 C 0.63789 0.4447 0.61736 0.0
C3442 C 0.67255 0.45212 0.61629 0.0
C3443 C 0.66888 0.45967 0.62965 0.0
C3444 C 0.71426 0.45198 0.60203 0.0
C3445 C 0.64132 0.4362 0.60403 0.0
C3446 C 0.76282 0.45203 0.6092 0.0
C3447 C 0.80261 0.45174 0.59607 0.0
C3448 C 0.79482 0.45143 0.57538 0.0
C3449 C 0.746 0.45154 0.56818 0.0
C3450 C 0.70606 0.45184 0.58141 0.0
H3451 H 0.61943 0.4302 0.60988 0.0
H3452 H 0.62664 0.43801 0.58912 0.0
H3453 H 0.6803 0.43391 0.60225 0.0
H3454 H 0.76997 0.45217 0.62504 0.0
H3455 H 0.83957 0.45172 0.60224 0.0
loop_
_geom_bond_atom_site_label_1
_geom_bond_atom_site_label_2
_geom_bond_distance
_geom_bond_site_symmetry_2
_ccdc_geom_bond_type
Mn0 O5 2.095 . S
Mn0 O15 2.162 . S
Mn0 O16 2.297 . S
Mn0 O24 2.385 . S
Mn0 O25 2.209 . S
Mn0 O26 2.094 . S
Mn1 O6 2.121 1_455 S
Mn1 N8 2.257 1_455 S
Mn1 N17 2.282 . S
Mn1 O25 2.215 . S
Mn1 O27 2.117 . S
C2 O24 1.234 . S
C2 O25 1.283 . S
C3 O15 1.281 . S
C3 O16 1.236 . S
C4 O26 1.240 . S
C4 O27 1.264 . S
O5 Mn0 2.095 . S
O5 C14 1.250 . S
O6 Mn1 2.121 1_655 S
O6 C14 1.258 1_655 S
C7 N8 1.326 . S
C7 C11 1.460 . S
C7 H13 0.929 . S
N8 Mn1 2.257 1_655 S
N8 C7 1.326 . S
N8 C12 1.362 . S
C9 C10 1.258 . S
C9 C12 1.431 . S
C9 C29 1.449 . S
C10 C9 1.258 . S
C10 C11 1.477 . S
C10 H30 0.931 . S
C11 C7 1.460 . S
C11 C10 1.477 . S
C11 H31 0.930 . S
C12 N8 1.362 . S
C12 C9 1.431 . S
C12 C22 1.476 . S
H13 C7 0.929 . S
C14 O5 1.250 . S
C14 O6 1.258 1_455 S
O15 Mn0 2.162 . S
O15 C3 1.281 . S
O16 Mn0 2.297 . S
O16 C3 1.236 . S
N17 Mn1 2.282 . S
N17 C18 1.328 . S
N17 C22 1.318 1_455 S
C18 N17 1.328 . S
C18 C19 1.457 . S
C18 H23 0.929 . S
C19 C18 1.457 . S
C19 C20 1.291 . S
C19 H32 0.931 . S
C20 C19 1.291 . S
C20 C21 1.373 1_455 S
C20 H33 0.929 . S
C21 C20 1.373 1_655 S
C21 C22 1.396 . S
C21 C28 1.403 . S
C22 C12 1.476 . S
C22 N17 1.318 1_655 S
C22 C21 1.396 . S
H23 C18 0.929 . S
O24 Mn0 2.385 . S
O24 C2 1.234 . S
O25 Mn0 2.209 . S
O25 Mn1 2.215 . S
O25 C2 1.283 . S
O26 Mn0 2.094 . S
O26 C4 1.240 . S
O27 Mn1 2.117 . S
O27 C4 1.264 . S
C28 C21 1.403 . S
C28 C29 1.399 . S
C28 H34 0.929 . S
C29 C9 1.449 . S
C29 C28 1.399 . S
C29 H35 0.930 . S
H30 C10 0.931 . S
H31 C11 0.930 . S
H32 C19 0.931 . S
H33 C20 0.929 . S
H34 C28 0.929 . S
H35 C29 0.930 . S
Mn36 O41 2.095 . S
Mn36 O51 2.162 . S
Mn36 O52 2.297 . S
Mn36 O60 2.385 . S
Mn36 O61 2.209 . S
Mn36 O62 2.094 . S
Mn37 O42 2.121 . S
Mn37 N44 2.257 . S
Mn37 N53 2.282 . S
Mn37 O61 2.215 . S
Mn37 O63 2.117 . S
C38 O60 1.234 . S
C38 O61 1.283 . S
C39 O51 1.281 . S
C39 O52 1.236 . S
C40 O62 1.240 . S
C40 O63 1.264 . S
O41 Mn36 2.095 . S
O41 C50 1.250 . S
O42 Mn37 2.121 . S
O42 C50 1.258 . S
C43 N44 1.326 . S
C43 C47 1.460 . S
C43 H49 0.929 . S
N44 Mn37 2.257 . S
N44 C43 1.326 . S
N44 C48 1.362 . S
C45 C46 1.258 . S
C45 C48 1.431 . S
C45 C65 1.449 . S
C46 C45 1.258 . S
C46 C47 1.477 . S
C46 H66 0.931 . S
C47 C43 1.460 . S
C47 C46 1.477 . S
C47 H67 0.930 . S
C48 N44 1.362 . S
C48 C45 1.431 . S
C48 C58 1.476 . S
H49 C43 0.929 . S
C50 O41 1.250 . S
C50 O42 1.258 . S
O51 Mn36 2.162 . S
O51 C39 1.281 . S
O52 Mn36 2.297 . S
O52 C39 1.236 . S
N53 Mn37 2.282 . S
N53 C54 1.328 . S
N53 C58 1.318 . S
C54 N53 1.328 . S
C54 C55 1.457 . S
C54 H59 0.929 . S
C55 C54 1.457 . S
C55 C56 1.291 . S
C55 H68 0.931 . S
C56 C55 1.291 . S
C56 C57 1.373 . S
C56 H69 0.929 . S
C57 C56 1.373 . S
C57 C58 1.396 . S
C57 C64 1.403 . S
C58 C48 1.476 . S
C58 N53 1.318 . S
C58 C57 1.396 . S
H59 C54 0.929 . S
O60 Mn36 2.385 . S
O60 C38 1.234 . S
O61 Mn36 2.209 . S
O61 Mn37 2.215 . S
O61 C38 1.283 . S
O62 Mn36 2.094 . S
O62 C40 1.240 . S
O63 Mn37 2.117 . S
O63 C40 1.264 . S
C64 C57 1.403 . S
C64 C65 1.399 . S
C64 H70 0.929 . S
C65 C45 1.449 . S
C65 C64 1.399 . S
C65 H71 0.930 . S
H66 C46 0.931 . S
H67 C47 0.930 . S
H68 C55 0.931 . S
H69 C56 0.929 . S
H70 C64 0.929 . S
H71 C65 0.930 . S
Mn72 O77 2.095 . S
Mn72 O87 2.162 . S
Mn72 O88 2.297 . S
Mn72 O96 2.385 1_556 S
Mn72 O97 2.209 1_556 S
Mn72 O98 2.094 . S
Mn73 O78 2.121 1_454 S
Mn73 N80 2.257 1_455 S
Mn73 N89 2.282 . S
Mn73 O97 2.215 . S
Mn73 O99 2.117 . S
C74 O96 1.234 . S
C74 O97 1.283 . S
C75 O87 1.281 . S
C75 O88 1.236 . S
C76 O98 1.240 . S
C76 O99 1.264 1_556 S
O77 Mn72 2.095 . S
O77 C86 1.250 . S
O78 Mn73 2.121 1_656 S
O78 C86 1.258 1_655 S
C79 N80 1.326 . S
C79 C83 1.460 . S
C79 H85 0.929 . S
N80 Mn73 2.257 1_655 S
N80 C79 1.326 . S
N80 C84 1.362 . S
C81 C82 1.258 . S
C81 C84 1.431 . S
C81 C101 1.449 . S
C82 C81 1.258 . S
C82 C83 1.477 . S
C82 H102 0.931 . S
C83 C79 1.460 . S
C83 C82 1.477 . S
C83 H103 0.930 . S
C84 N80 1.362 . S
C84 C81 1.431 . S
C84 C94 1.476 . S
H85 C79 0.929 . S
C86 O77 1.250 . S
C86 O78 1.258 1_455 S
O87 Mn72 2.162 . S
O87 C75 1.281 . S
O88 Mn72 2.297 . S
O88 C75 1.236 . S
N89 Mn73 2.282 . S
N89 C90 1.328 . S
N89 C94 1.318 1_455 S
C90 N89 1.328 . S
C90 C91 1.457 . S
C90 H95 0.929 . S
C91 C90 1.457 . S
C91 C92 1.291 . S
C91 H104 0.931 . S
C92 C91 1.291 . S
C92 C93 1.373 1_455 S
C92 H105 0.929 . S
C93 C92 1.373 1_655 S
C93 C94 1.396 . S
C93 C100 1.403 . S
C94 C84 1.476 . S
C94 N89 1.318 1_655 S
C94 C93 1.396 . S
H95 C90 0.929 . S
O96 Mn72 2.385 1_554 S
O96 C74 1.234 . S
O97 Mn72 2.209 1_554 S
O97 Mn73 2.215 . S
O97 C74 1.283 . S
O98 Mn72 2.094 . S
O98 C76 1.240 . S
O99 Mn73 2.117 . S
O99 C76 1.264 1_554 S
C100 C93 1.403 . S
C100 C101 1.399 . S
C100 H106 0.929 . S
C101 C81 1.449 . S
C101 C100 1.399 . S
C101 H107 0.930 . S
H102 C82 0.931 . S
H103 C83 0.930 . S
H104 C91 0.931 . S
H105 C92 0.929 . S
H106 C100 0.929 . S
H107 C101 0.930 . S
Mn108 O113 2.095 . S
Mn108 O123 2.162 . S
Mn108 O124 2.297 . S
Mn108 O132 2.385 1_556 S
Mn108 O133 2.209 1_556 S
Mn108 O134 2.094 . S
Mn109 O114 2.121 1_554 S
Mn109 N116 2.257 . S
Mn109 N125 2.282 . S
Mn109 O133 2.215 . S
Mn109 O135 2.117 . S
C110 O132 1.234 . S
C110 O133 1.283 . S
C111 O123 1.281 . S
C111 O124 1.236 . S
C112 O134 1.240 . S
C112 O135 1.264 1_556 S
O113 Mn108 2.095 . S
O113 C122 1.250 . S
O114 Mn109 2.121 1_556 S
O114 C122 1.258 . S
C115 N116 1.326 . S
C115 C119 1.460 . S
C115 H121 0.929 . S
N116 Mn109 2.257 . S
N116 C115 1.326 . S
N116 C120 1.362 . S
C117 C118 1.258 . S
C117 C120 1.431 . S
C117 C137 1.449 . S
C118 C117 1.258 . S
C118 C119 1.477 . S
C118 H138 0.931 . S
C119 C115 1.460 . S
C119 C118 1.477 . S
C119 H139 0.930 . S
C120 N116 1.362 . S
C120 C117 1.431 . S
C120 C130 1.476 . S
H121 C115 0.929 . S
C122 O113 1.250 . S
C122 O114 1.258 . S
O123 Mn108 2.162 . S
O123 C111 1.281 . S
O124 Mn108 2.297 . S
O124 C111 1.236 . S
N125 Mn109 2.282 . S
N125 C126 1.328 . S
N125 C130 1.318 . S
C126 N125 1.328 . S
C126 C127 1.457 . S
C126 H131 0.929 . S
C127 C126 1.457 . S
C127 C128 1.291 . S
C127 H140 0.931 . S
C128 C127 1.291 . S
C128 C129 1.373 . S
C128 H141 0.929 . S
C129 C128 1.373 . S
C129 C130 1.396 . S
C129 C136 1.403 . S
C130 C120 1.476 . S
C130 N125 1.318 . S
C130 C129 1.396 . S
H131 C126 0.929 . S
O132 Mn108 2.385 1_554 S
O132 C110 1.234 . S
O133 Mn108 2.209 1_554 S
O133 Mn109 2.215 . S
O133 C110 1.283 . S
O134 Mn108 2.094 . S
O134 C112 1.240 . S
O135 Mn109 2.117 . S
O135 C112 1.264 1_554 S
C136 C129 1.403 . S
C136 C137 1.399 . S
C136 H142 0.929 . S
C137 C117 1.449 . S
C137 C136 1.399 . S
C137 H143 0.930 . S
H138 C118 0.931 . S
H139 C119 0.930 . S
H140 C127 0.931 . S
H141 C128 0.929 . S
H142 C136 0.929 . S
H143 C137 0.930 . S
Mn144 O149 2.095 . S
Mn144 O159 2.162 . S
Mn144 O160 2.297 . S
Mn144 O168 2.385 . S
Mn144 O169 2.209 . S
Mn144 O170 2.094 . S
Mn145 O150 2.121 . S
Mn145 N152 2.257 . S
Mn145 N161 2.282 . S
Mn145 O169 2.215 . S
Mn145 O171 2.117 . S
C146 O168 1.234 . S
C146 O169 1.283 . S
C147 O159 1.281 . S
C147 O160 1.236 . S
C148 O170 1.240 . S
C148 O171 1.264 . S
O149 Mn144 2.095 . S
O149 C158 1.250 . S
O150 Mn145 2.121 . S
O150 C158 1.258 . S
C151 N152 1.326 . S
C151 C155 1.460 . S
C151 H157 0.929 . S
N152 Mn145 2.257 . S
N152 C151 1.326 . S
N152 C156 1.362 . S
C153 C154 1.258 . S
C153 C156 1.431 . S
C153 C173 1.449 . S
C154 C153 1.258 . S
C154 C155 1.477 . S
C154 H174 0.931 . S
C155 C151 1.460 . S
C155 C154 1.477 . S
C155 H175 0.930 . S
C156 N152 1.362 . S
C156 C153 1.431 . S
C156 C166 1.476 . S
H157 C151 0.929 . S
C158 O149 1.250 . S
C158 O150 1.258 . S
O159 Mn144 2.162 . S
O159 C147 1.281 . S
O160 Mn144 2.297 . S
O160 C147 1.236 . S
N161 Mn145 2.282 . S
N161 C162 1.328 . S
N161 C166 1.318 . S
C162 N161 1.328 . S
C162 C163 1.457 . S
C162 H167 0.929 . S
C163 C162 1.457 . S
C163 C164 1.291 . S
C163 H176 0.931 . S
C164 C163 1.291 . S
C164 C165 1.373 . S
C164 H177 0.929 . S
C165 C164 1.373 . S
C165 C166 1.396 . S
C165 C172 1.403 . S
C166 C156 1.476 . S
C166 N161 1.318 . S
C166 C165 1.396 . S
H167 C162 0.929 . S
O168 Mn144 2.385 . S
O168 C146 1.234 . S
O169 Mn144 2.209 . S
O169 Mn145 2.215 . S
O169 C146 1.283 . S
O170 Mn144 2.094 . S
O170 C148 1.240 . S
O171 Mn145 2.117 . S
O171 C148 1.264 . S
C172 C165 1.403 . S
C172 C173 1.399 . S
C172 H178 0.929 . S
C173 C153 1.449 . S
C173 C172 1.399 . S
C173 H179 0.930 . S
H174 C154 0.931 . S
H175 C155 0.930 . S
H176 C163 0.931 . S
H177 C164 0.929 . S
H178 C172 0.929 . S
H179 C173 0.930 . S
Mn180 O185 2.095 . S
Mn180 O195 2.162 . S
Mn180 O196 2.297 . S
Mn180 O204 2.385 . S
Mn180 O205 2.209 . S
Mn180 O206 2.094 . S
Mn181 O186 2.121 . S
Mn181 N188 2.257 . S
Mn181 N197 2.282 . S
Mn181 O205 2.215 . S
Mn181 O207 2.117 . S
C182 O204 1.234 . S
C182 O205 1.283 . S
C183 O195 1.281 . S
C183 O196 1.236 . S
C184 O206 1.240 . S
C184 O207 1.264 . S
O185 Mn180 2.095 . S
O185 C194 1.250 . S
O186 Mn181 2.121 . S
O186 C194 1.258 . S
C187 N188 1.326 1_455 S
C187 C191 1.460 . S
C187 H193 0.929 1_455 S
N188 Mn181 2.257 . S
N188 C187 1.326 1_655 S
N188 C192 1.362 . S
C189 C190 1.258 . S
C189 C192 1.431 1_455 S
C189 C209 1.449 . S
C190 C189 1.258 . S
C190 C191 1.477 . S
C190 H210 0.931 . S
C191 C187 1.460 . S
C191 C190 1.477 . S
C191 H211 0.930 . S
C192 N188 1.362 . S
C192 C189 1.431 1_655 S
C192 C202 1.476 . S
H193 C187 0.929 1_655 S
C194 O185 1.250 . S
C194 O186 1.258 . S
O195 Mn180 2.162 . S
O195 C183 1.281 . S
O196 Mn180 2.297 . S
O196 C183 1.236 . S
N197 Mn181 2.282 . S
N197 C198 1.328 . S
N197 C202 1.318 . S
C198 N197 1.328 . S
C198 C199 1.457 . S
C198 H203 0.929 . S
C199 C198 1.457 . S
C199 C200 1.291 . S
C199 H212 0.931 . S
C200 C199 1.291 . S
C200 C201 1.373 . S
C200 H213 0.929 . S
C201 C200 1.373 . S
C201 C202 1.396 . S
C201 C208 1.403 1_655 S
C202 C192 1.476 . S
C202 N197 1.318 . S
C202 C201 1.396 . S
H203 C198 0.929 . S
O204 Mn180 2.385 . S
O204 C182 1.234 . S
O205 Mn180 2.209 . S
O205 Mn181 2.215 . S
O205 C182 1.283 . S
O206 Mn180 2.094 . S
O206 C184 1.240 . S
O207 Mn181 2.117 . S
O207 C184 1.264 . S
C208 C201 1.403 1_455 S
C208 C209 1.399 . S
C208 H214 0.929 . S
C209 C189 1.449 . S
C209 C208 1.399 . S
C209 H215 0.930 . S
H210 C190 0.931 . S
H211 C191 0.930 . S
H212 C199 0.931 . S
H213 C200 0.929 . S
H214 C208 0.929 . S
H215 C209 0.930 . S
Mn216 O221 2.095 . S
Mn216 O231 2.162 1_554 S
Mn216 O232 2.297 1_554 S
Mn216 O240 2.385 . S
Mn216 O241 2.209 . S
Mn216 O242 2.094 . S
Mn217 O222 2.121 . S
Mn217 N224 2.257 . S
Mn217 N233 2.282 . S
Mn217 O241 2.215 . S
Mn217 O243 2.117 . S
C218 O240 1.234 . S
C218 O241 1.283 . S
C219 O231 1.281 . S
C219 O232 1.236 . S
C220 O242 1.240 . S
C220 O243 1.264 . S
O221 Mn216 2.095 . S
O221 C230 1.250 . S
O222 Mn217 2.121 . S
O222 C230 1.258 . S
C223 N224 1.326 . S
C223 C227 1.460 . S
C223 H229 0.929 . S
N224 Mn217 2.257 . S
N224 C223 1.326 . S
N224 C228 1.362 . S
C225 C226 1.258 . S
C225 C228 1.431 . S
C225 C245 1.449 . S
C226 C225 1.258 . S
C226 C227 1.477 . S
C226 H246 0.931 . S
C227 C223 1.460 . S
C227 C226 1.477 . S
C227 H247 0.930 . S
C228 N224 1.362 . S
C228 C225 1.431 . S
C228 C238 1.476 . S
H229 C223 0.929 . S
C230 O221 1.250 . S
C230 O222 1.258 . S
O231 Mn216 2.162 1_556 S
O231 C219 1.281 . S
O232 Mn216 2.297 1_556 S
O232 C219 1.236 . S
N233 Mn217 2.282 . S
N233 C234 1.328 . S
N233 C238 1.318 . S
C234 N233 1.328 . S
C234 C235 1.457 . S
C234 H239 0.929 . S
C235 C234 1.457 . S
C235 C236 1.291 . S
C235 H248 0.931 . S
C236 C235 1.291 . S
C236 C237 1.373 . S
C236 H249 0.929 . S
C237 C236 1.373 . S
C237 C238 1.396 . S
C237 C244 1.403 . S
C238 C228 1.476 . S
C238 N233 1.318 . S
C238 C237 1.396 . S
H239 C234 0.929 . S
O240 Mn216 2.385 . S
O240 C218 1.234 . S
O241 Mn216 2.209 . S
O241 Mn217 2.215 . S
O241 C218 1.283 . S
O242 Mn216 2.094 . S
O242 C220 1.240 . S
O243 Mn217 2.117 . S
O243 C220 1.264 . S
C244 C237 1.403 . S
C244 C245 1.399 . S
C244 H250 0.929 . S
C245 C225 1.449 . S
C245 C244 1.399 . S
C245 H251 0.930 . S
H246 C226 0.931 . S
H247 C227 0.930 . S
H248 C235 0.931 . S
H249 C236 0.929 . S
H250 C244 0.929 . S
H251 C245 0.930 . S
Mn252 O257 2.095 . S
Mn252 O267 2.162 1_554 S
Mn252 O268 2.297 1_554 S
Mn252 O276 2.385 . S
Mn252 O277 2.209 . S
Mn252 O278 2.094 . S
Mn253 O258 2.121 . S
Mn253 N260 2.257 . S
Mn253 N269 2.282 . S
Mn253 O277 2.215 . S
Mn253 O279 2.117 . S
C254 O276 1.234 . S
C254 O277 1.283 . S
C255 O267 1.281 . S
C255 O268 1.236 . S
C256 O278 1.240 . S
C256 O279 1.264 . S
O257 Mn252 2.095 . S
O257 C266 1.250 . S
O258 Mn253 2.121 . S
O258 C266 1.258 . S
C259 N260 1.326 1_455 S
C259 C263 1.460 . S
C259 H265 0.929 1_455 S
N260 Mn253 2.257 . S
N260 C259 1.326 1_655 S
N260 C264 1.362 . S
C261 C262 1.258 . S
C261 C264 1.431 1_455 S
C261 C281 1.449 . S
C262 C261 1.258 . S
C262 C263 1.477 . S
C262 H282 0.931 . S
C263 C259 1.460 . S
C263 C262 1.477 . S
C263 H283 0.930 . S
C264 N260 1.362 . S
C264 C261 1.431 1_655 S
C264 C274 1.476 . S
H265 C259 0.929 1_655 S
C266 O257 1.250 . S
C266 O258 1.258 . S
O267 Mn252 2.162 1_556 S
O267 C255 1.281 . S
O268 Mn252 2.297 1_556 S
O268 C255 1.236 . S
N269 Mn253 2.282 . S
N269 C270 1.328 . S
N269 C274 1.318 . S
C270 N269 1.328 . S
C270 C271 1.457 . S
C270 H275 0.929 . S
C271 C270 1.457 . S
C271 C272 1.291 . S
C271 H284 0.931 . S
C272 C271 1.291 . S
C272 C273 1.373 . S
C272 H285 0.929 . S
C273 C272 1.373 . S
C273 C274 1.396 . S
C273 C280 1.403 1_655 S
C274 C264 1.476 . S
C274 N269 1.318 . S
C274 C273 1.396 . S
H275 C270 0.929 . S
O276 Mn252 2.385 . S
O276 C254 1.234 . S
O277 Mn252 2.209 . S
O277 Mn253 2.215 . S
O277 C254 1.283 . S
O278 Mn252 2.094 . S
O278 C256 1.240 . S
O279 Mn253 2.117 . S
O279 C256 1.264 . S
C280 C273 1.403 1_455 S
C280 C281 1.399 . S
C280 H286 0.929 . S
C281 C261 1.449 . S
C281 C280 1.399 . S
C281 H287 0.930 . S
H282 C262 0.931 . S
H283 C263 0.930 . S
H284 C271 0.931 . S
H285 C272 0.929 . S
H286 C280 0.929 . S
H287 C281 0.930 . S
Mn288 O293 2.095 . S
Mn288 O303 2.162 . S
Mn288 O304 2.297 . S
Mn288 O312 2.385 . S
Mn288 O313 2.209 . S
Mn288 O314 2.094 . S
Mn289 O294 2.121 1_455 S
Mn289 N296 2.257 1_455 S
Mn289 N305 2.282 . S
Mn289 O313 2.215 . S
Mn289 O315 2.117 . S
C290 O312 1.234 . S
C290 O313 1.283 . S
C291 O303 1.281 . S
C291 O304 1.236 . S
C292 O314 1.240 . S
C292 O315 1.264 . S
O293 Mn288 2.095 . S
O293 C302 1.250 . S
O294 Mn289 2.121 1_655 S
O294 C302 1.258 1_655 S
C295 N296 1.326 . S
C295 C299 1.460 . S
C295 H301 0.929 . S
N296 Mn289 2.257 1_655 S
N296 C295 1.326 . S
N296 C300 1.362 . S
C297 C298 1.258 . S
C297 C300 1.431 . S
C297 C317 1.449 . S
C298 C297 1.258 . S
C298 C299 1.477 . S
C298 H318 0.931 . S
C299 C295 1.460 . S
C299 C298 1.477 . S
C299 H319 0.930 . S
C300 N296 1.362 . S
C300 C297 1.431 . S
C300 C310 1.476 . S
H301 C295 0.929 . S
C302 O293 1.250 . S
C302 O294 1.258 1_455 S
O303 Mn288 2.162 . S
O303 C291 1.281 . S
O304 Mn288 2.297 . S
O304 C291 1.236 . S
N305 Mn289 2.282 . S
N305 C306 1.328 . S
N305 C310 1.318 1_455 S
C306 N305 1.328 . S
C306 C307 1.457 . S
C306 H311 0.929 . S
C307 C306 1.457 . S
C307 C308 1.291 . S
C307 H320 0.931 . S
C308 C307 1.291 . S
C308 C309 1.373 1_455 S
C308 H321 0.929 . S
C309 C308 1.373 1_655 S
C309 C310 1.396 . S
C309 C316 1.403 . S
C310 C300 1.476 . S
C310 N305 1.318 1_655 S
C310 C309 1.396 . S
H311 C306 0.929 . S
O312 Mn288 2.385 . S
O312 C290 1.234 . S
O313 Mn288 2.209 . S
O313 Mn289 2.215 . S
O313 C290 1.283 . S
O314 Mn288 2.094 . S
O314 C292 1.240 . S
O315 Mn289 2.117 . S
O315 C292 1.264 . S
C316 C309 1.403 . S
C316 C317 1.399 . S
C316 H322 0.929 . S
C317 C297 1.449 . S
C317 C316 1.399 . S
C317 H323 0.930 . S
H318 C298 0.931 . S
H319 C299 0.930 . S
H320 C307 0.931 . S
H321 C308 0.929 . S
H322 C316 0.929 . S
H323 C317 0.930 . S
Mn324 O329 2.095 . S
Mn324 O339 2.162 . S
Mn324 O340 2.297 . S
Mn324 O348 2.385 . S
Mn324 O349 2.209 . S
Mn324 O350 2.094 . S
Mn325 O330 2.121 . S
Mn325 N332 2.257 . S
Mn325 N341 2.282 . S
Mn325 O349 2.215 . S
Mn325 O351 2.117 . S
C326 O348 1.234 . S
C326 O349 1.283 . S
C327 O339 1.281 . S
C327 O340 1.236 . S
C328 O350 1.240 . S
C328 O351 1.264 . S
O329 Mn324 2.095 . S
O329 C338 1.250 . S
O330 Mn325 2.121 . S
O330 C338 1.258 . S
C331 N332 1.326 . S
C331 C335 1.460 . S
C331 H337 0.929 . S
N332 Mn325 2.257 . S
N332 C331 1.326 . S
N332 C336 1.362 . S
C333 C334 1.258 . S
C333 C336 1.431 . S
C333 C353 1.449 . S
C334 C333 1.258 . S
C334 C335 1.477 . S
C334 H354 0.931 . S
C335 C331 1.460 . S
C335 C334 1.477 . S
C335 H355 0.930 . S
C336 N332 1.362 . S
C336 C333 1.431 . S
C336 C346 1.476 . S
H337 C331 0.929 . S
C338 O329 1.250 . S
C338 O330 1.258 . S
O339 Mn324 2.162 . S
O339 C327 1.281 . S
O340 Mn324 2.297 . S
O340 C327 1.236 . S
N341 Mn325 2.282 . S
N341 C342 1.328 . S
N341 C346 1.318 . S
C342 N341 1.328 . S
C342 C343 1.457 . S
C342 H347 0.929 . S
C343 C342 1.457 . S
C343 C344 1.291 . S
C343 H356 0.931 . S
C344 C343 1.291 . S
C344 C345 1.373 . S
C344 H357 0.929 . S
C345 C344 1.373 . S
C345 C346 1.396 . S
C345 C352 1.403 . S
C346 C336 1.476 . S
C346 N341 1.318 . S
C346 C345 1.396 . S
H347 C342 0.929 . S
O348 Mn324 2.385 . S
O348 C326 1.234 . S
O349 Mn324 2.209 . S
O349 Mn325 2.215 . S
O349 C326 1.283 . S
O350 Mn324 2.094 . S
O350 C328 1.240 . S
O351 Mn325 2.117 . S
O351 C328 1.264 . S
C352 C345 1.403 . S
C352 C353 1.399 . S
C352 H358 0.929 . S
C353 C333 1.449 . S
C353 C352 1.399 . S
C353 H359 0.930 . S
H354 C334 0.931 . S
H355 C335 0.930 . S
H356 C343 0.931 . S
H357 C344 0.929 . S
H358 C352 0.929 . S
H359 C353 0.930 . S
Mn360 O365 2.095 . S
Mn360 O375 2.162 . S
Mn360 O376 2.297 . S
Mn360 O384 2.385 . S
Mn360 O385 2.209 . S
Mn360 O386 2.094 . S
Mn361 O366 2.121 1_455 S
Mn361 N368 2.257 1_455 S
Mn361 N377 2.282 . S
Mn361 O385 2.215 . S
Mn361 O387 2.117 . S
C362 O384 1.234 . S
C362 O385 1.283 . S
C363 O375 1.281 . S
C363 O376 1.236 . S
C364 O386 1.240 . S
C364 O387 1.264 . S
O365 Mn360 2.095 . S
O365 C374 1.250 . S
O366 Mn361 2.121 1_655 S
O366 C374 1.258 1_655 S
C367 N368 1.326 . S
C367 C371 1.460 . S
C367 H373 0.929 . S
N368 Mn361 2.257 1_655 S
N368 C367 1.326 . S
N368 C372 1.362 . S
C369 C370 1.258 . S
C369 C372 1.431 . S
C369 C389 1.449 . S
C370 C369 1.258 . S
C370 C371 1.477 . S
C370 H390 0.931 . S
C371 C367 1.460 . S
C371 C370 1.477 . S
C371 H391 0.930 . S
C372 N368 1.362 . S
C372 C369 1.431 . S
C372 C382 1.476 . S
H373 C367 0.929 . S
C374 O365 1.250 . S
C374 O366 1.258 1_455 S
O375 Mn360 2.162 . S
O375 C363 1.281 . S
O376 Mn360 2.297 . S
O376 C363 1.236 . S
N377 Mn361 2.282 . S
N377 C378 1.328 . S
N377 C382 1.318 1_455 S
C378 N377 1.328 . S
C378 C379 1.457 . S
C378 H383 0.929 . S
C379 C378 1.457 . S
C379 C380 1.291 . S
C379 H392 0.931 . S
C380 C379 1.291 . S
C380 C381 1.373 1_455 S
C380 H393 0.929 . S
C381 C380 1.373 1_655 S
C381 C382 1.396 . S
C381 C388 1.403 . S
C382 C372 1.476 . S
C382 N377 1.318 1_655 S
C382 C381 1.396 . S
H383 C378 0.929 . S
O384 Mn360 2.385 . S
O384 C362 1.234 . S
O385 Mn360 2.209 . S
O385 Mn361 2.215 . S
O385 C362 1.283 . S
O386 Mn360 2.094 . S
O386 C364 1.240 . S
O387 Mn361 2.117 . S
O387 C364 1.264 . S
C388 C381 1.403 . S
C388 C389 1.399 . S
C388 H394 0.929 . S
C389 C369 1.449 . S
C389 C388 1.399 . S
C389 H395 0.930 . S
H390 C370 0.931 . S
H391 C371 0.930 . S
H392 C379 0.931 . S
H393 C380 0.929 . S
H394 C388 0.929 . S
H395 C389 0.930 . S
Mn396 O401 2.095 . S
Mn396 O411 2.162 . S
Mn396 O412 2.297 . S
Mn396 O420 2.385 . S
Mn396 O421 2.209 . S
Mn396 O422 2.094 . S
Mn397 O402 2.121 . S
Mn397 N404 2.257 . S
Mn397 N413 2.282 . S
Mn397 O421 2.215 . S
Mn397 O423 2.117 . S
C398 O420 1.234 . S
C398 O421 1.283 . S
C399 O411 1.281 . S
C399 O412 1.236 . S
C400 O422 1.240 . S
C400 O423 1.264 . S
O401 Mn396 2.095 . S
O401 C410 1.250 . S
O402 Mn397 2.121 . S
O402 C410 1.258 . S
C403 N404 1.326 . S
C403 C407 1.460 . S
C403 H409 0.929 . S
N404 Mn397 2.257 . S
N404 C403 1.326 . S
N404 C408 1.362 . S
C405 C406 1.258 . S
C405 C408 1.431 . S
C405 C425 1.449 . S
C406 C405 1.258 . S
C406 C407 1.477 . S
C406 H426 0.931 . S
C407 C403 1.460 . S
C407 C406 1.477 . S
C407 H427 0.930 . S
C408 N404 1.362 . S
C408 C405 1.431 . S
C408 C418 1.476 . S
H409 C403 0.929 . S
C410 O401 1.250 . S
C410 O402 1.258 . S
O411 Mn396 2.162 . S
O411 C399 1.281 . S
O412 Mn396 2.297 . S
O412 C399 1.236 . S
N413 Mn397 2.282 . S
N413 C414 1.328 . S
N413 C418 1.318 . S
C414 N413 1.328 . S
C414 C415 1.457 . S
C414 H419 0.929 . S
C415 C414 1.457 . S
C415 C416 1.291 . S
C415 H428 0.931 . S
C416 C415 1.291 . S
C416 C417 1.373 . S
C416 H429 0.929 . S
C417 C416 1.373 . S
C417 C418 1.396 . S
C417 C424 1.403 . S
C418 C408 1.476 . S
C418 N413 1.318 . S
C418 C417 1.396 . S
H419 C414 0.929 . S
O420 Mn396 2.385 . S
O420 C398 1.234 . S
O421 Mn396 2.209 . S
O421 Mn397 2.215 . S
O421 C398 1.283 . S
O422 Mn396 2.094 . S
O422 C400 1.240 . S
O423 Mn397 2.117 . S
O423 C400 1.264 . S
C424 C417 1.403 . S
C424 C425 1.399 . S
C424 H430 0.929 . S
C425 C405 1.449 . S
C425 C424 1.399 . S
C425 H431 0.930 . S
H426 C406 0.931 . S
H427 C407 0.930 . S
H428 C415 0.931 . S
H429 C416 0.929 . S
H430 C424 0.929 . S
H431 C425 0.930 . S
Mn432 O437 2.095 . S
Mn432 O447 2.162 . S
Mn432 O448 2.297 . S
Mn432 O456 2.385 . S
Mn432 O457 2.209 . S
Mn432 O458 2.094 . S
Mn433 O438 2.121 . S
Mn433 N440 2.257 . S
Mn433 N449 2.282 . S
Mn433 O457 2.215 . S
Mn433 O459 2.117 . S
C434 O456 1.234 . S
C434 O457 1.283 . S
C435 O447 1.281 . S
C435 O448 1.236 . S
C436 O458 1.240 . S
C436 O459 1.264 . S
O437 Mn432 2.095 . S
O437 C446 1.250 . S
O438 Mn433 2.121 . S
O438 C446 1.258 . S
C439 N440 1.326 . S
C439 C443 1.460 . S
C439 H445 0.929 . S
N440 Mn433 2.257 . S
N440 C439 1.326 . S
N440 C444 1.362 . S
C441 C442 1.258 . S
C441 C444 1.431 . S
C441 C461 1.449 . S
C442 C441 1.258 . S
C442 C443 1.477 . S
C442 H462 0.931 . S
C443 C439 1.460 . S
C443 C442 1.477 . S
C443 H463 0.930 . S
C444 N440 1.362 . S
C444 C441 1.431 . S
C444 C454 1.476 . S
H445 C439 0.929 . S
C446 O437 1.250 . S
C446 O438 1.258 . S
O447 Mn432 2.162 . S
O447 C435 1.281 . S
O448 Mn432 2.297 . S
O448 C435 1.236 . S
N449 Mn433 2.282 . S
N449 C450 1.328 . S
N449 C454 1.318 . S
C450 N449 1.328 . S
C450 C451 1.457 . S
C450 H455 0.929 . S
C451 C450 1.457 . S
C451 C452 1.291 . S
C451 H464 0.931 . S
C452 C451 1.291 . S
C452 C453 1.373 . S
C452 H465 0.929 . S
C453 C452 1.373 . S
C453 C454 1.396 . S
C453 C460 1.403 . S
C454 C444 1.476 . S
C454 N449 1.318 . S
C454 C453 1.396 . S
H455 C450 0.929 . S
O456 Mn432 2.385 . S
O456 C434 1.234 . S
O457 Mn432 2.209 . S
O457 Mn433 2.215 . S
O457 C434 1.283 . S
O458 Mn432 2.094 . S
O458 C436 1.240 . S
O459 Mn433 2.117 . S
O459 C436 1.264 . S
C460 C453 1.403 . S
C460 C461 1.399 . S
C460 H466 0.929 . S
C461 C441 1.449 . S
C461 C460 1.399 . S
C461 H467 0.930 . S
H462 C442 0.931 . S
H463 C443 0.930 . S
H464 C451 0.931 . S
H465 C452 0.929 . S
H466 C460 0.929 . S
H467 C461 0.930 . S
Mn468 O473 2.095 . S
Mn468 O483 2.162 . S
Mn468 O484 2.297 . S
Mn468 O492 2.385 . S
Mn468 O493 2.209 . S
Mn468 O494 2.094 . S
Mn469 O474 2.121 . S
Mn469 N476 2.257 . S
Mn469 N485 2.282 . S
Mn469 O493 2.215 . S
Mn469 O495 2.117 . S
C470 O492 1.234 . S
C470 O493 1.283 . S
C471 O483 1.281 . S
C471 O484 1.236 . S
C472 O494 1.240 . S
C472 O495 1.264 . S
O473 Mn468 2.095 . S
O473 C482 1.250 . S
O474 Mn469 2.121 . S
O474 C482 1.258 . S
C475 N476 1.326 1_455 S
C475 C479 1.460 . S
C475 H481 0.929 1_455 S
N476 Mn469 2.257 . S
N476 C475 1.326 1_655 S
N476 C480 1.362 . S
C477 C478 1.258 . S
C477 C480 1.431 1_455 S
C477 C497 1.449 . S
C478 C477 1.258 . S
C478 C479 1.477 . S
C478 H498 0.931 . S
C479 C475 1.460 . S
C479 C478 1.477 . S
C479 H499 0.930 . S
C480 N476 1.362 . S
C480 C477 1.431 1_655 S
C480 C490 1.476 . S
H481 C475 0.929 1_655 S
C482 O473 1.250 . S
C482 O474 1.258 . S
O483 Mn468 2.162 . S
O483 C471 1.281 . S
O484 Mn468 2.297 . S
O484 C471 1.236 . S
N485 Mn469 2.282 . S
N485 C486 1.328 . S
N485 C490 1.318 . S
C486 N485 1.328 . S
C486 C487 1.457 . S
C486 H491 0.929 . S
C487 C486 1.457 . S
C487 C488 1.291 . S
C487 H500 0.931 . S
C488 C487 1.291 . S
C488 C489 1.373 . S
C488 H501 0.929 . S
C489 C488 1.373 . S
C489 C490 1.396 . S
C489 C496 1.403 1_655 S
C490 C480 1.476 . S
C490 N485 1.318 . S
C490 C489 1.396 . S
H491 C486 0.929 . S
O492 Mn468 2.385 . S
O492 C470 1.234 . S
O493 Mn468 2.209 . S
O493 Mn469 2.215 . S
O493 C470 1.283 . S
O494 Mn468 2.094 . S
O494 C472 1.240 . S
O495 Mn469 2.117 . S
O495 C472 1.264 . S
C496 C489 1.403 1_455 S
C496 C497 1.399 . S
C496 H502 0.929 . S
C497 C477 1.449 . S
C497 C496 1.399 . S
C497 H503 0.930 . S
H498 C478 0.931 . S
H499 C479 0.930 . S
H500 C487 0.931 . S
H501 C488 0.929 . S
H502 C496 0.929 . S
H503 C497 0.930 . S
Mn504 O509 2.095 . S
Mn504 O519 2.162 . S
Mn504 O520 2.297 . S
Mn504 O528 2.385 . S
Mn504 O529 2.209 . S
Mn504 O530 2.094 . S
Mn505 O510 2.121 . S
Mn505 N512 2.257 . S
Mn505 N521 2.282 . S
Mn505 O529 2.215 . S
Mn505 O531 2.117 . S
C506 O528 1.234 . S
C506 O529 1.283 . S
C507 O519 1.281 . S
C507 O520 1.236 . S
C508 O530 1.240 . S
C508 O531 1.264 . S
O509 Mn504 2.095 . S
O509 C518 1.250 . S
O510 Mn505 2.121 . S
O510 C518 1.258 . S
C511 N512 1.326 . S
C511 C515 1.460 . S
C511 H517 0.929 . S
N512 Mn505 2.257 . S
N512 C511 1.326 . S
N512 C516 1.362 . S
C513 C514 1.258 . S
C513 C516 1.431 . S
C513 C533 1.449 . S
C514 C513 1.258 . S
C514 C515 1.477 . S
C514 H534 0.931 . S
C515 C511 1.460 . S
C515 C514 1.477 . S
C515 H535 0.930 . S
C516 N512 1.362 . S
C516 C513 1.431 . S
C516 C526 1.476 . S
H517 C511 0.929 . S
C518 O509 1.250 . S
C518 O510 1.258 . S
O519 Mn504 2.162 . S
O519 C507 1.281 . S
O520 Mn504 2.297 . S
O520 C507 1.236 . S
N521 Mn505 2.282 . S
N521 C522 1.328 . S
N521 C526 1.318 . S
C522 N521 1.328 . S
C522 C523 1.457 . S
C522 H527 0.929 . S
C523 C522 1.457 . S
C523 C524 1.291 . S
C523 H536 0.931 . S
C524 C523 1.291 . S
C524 C525 1.373 . S
C524 H537 0.929 . S
C525 C524 1.373 . S
C525 C526 1.396 . S
C525 C532 1.403 . S
C526 C516 1.476 . S
C526 N521 1.318 . S
C526 C525 1.396 . S
H527 C522 0.929 . S
O528 Mn504 2.385 . S
O528 C506 1.234 . S
O529 Mn504 2.209 . S
O529 Mn505 2.215 . S
O529 C506 1.283 . S
O530 Mn504 2.094 . S
O530 C508 1.240 . S
O531 Mn505 2.117 . S
O531 C508 1.264 . S
C532 C525 1.403 . S
C532 C533 1.399 . S
C532 H538 0.929 . S
C533 C513 1.449 . S
C533 C532 1.399 . S
C533 H539 0.930 . S
H534 C514 0.931 . S
H535 C515 0.930 . S
H536 C523 0.931 . S
H537 C524 0.929 . S
H538 C532 0.929 . S
H539 C533 0.930 . S
Mn540 O545 2.095 . S
Mn540 O555 2.162 . S
Mn540 O556 2.297 . S
Mn540 O564 2.385 . S
Mn540 O565 2.209 . S
Mn540 O566 2.094 . S
Mn541 O546 2.121 . S
Mn541 N548 2.257 . S
Mn541 N557 2.282 . S
Mn541 O565 2.215 . S
Mn541 O567 2.117 . S
C542 O564 1.234 . S
C542 O565 1.283 . S
C543 O555 1.281 . S
C543 O556 1.236 . S
C544 O566 1.240 . S
C544 O567 1.264 . S
O545 Mn540 2.095 . S
O545 C554 1.250 . S
O546 Mn541 2.121 . S
O546 C554 1.258 . S
C547 N548 1.326 1_455 S
C547 C551 1.460 . S
C547 H553 0.929 1_455 S
N548 Mn541 2.257 . S
N548 C547 1.326 1_655 S
N548 C552 1.362 . S
C549 C550 1.258 . S
C549 C552 1.431 1_455 S
C549 C569 1.449 . S
C550 C549 1.258 . S
C550 C551 1.477 . S
C550 H570 0.931 . S
C551 C547 1.460 . S
C551 C550 1.477 . S
C551 H571 0.930 . S
C552 N548 1.362 . S
C552 C549 1.431 1_655 S
C552 C562 1.476 . S
H553 C547 0.929 1_655 S
C554 O545 1.250 . S
C554 O546 1.258 . S
O555 Mn540 2.162 . S
O555 C543 1.281 . S
O556 Mn540 2.297 . S
O556 C543 1.236 . S
N557 Mn541 2.282 . S
N557 C558 1.328 . S
N557 C562 1.318 . S
C558 N557 1.328 . S
C558 C559 1.457 . S
C558 H563 0.929 . S
C559 C558 1.457 . S
C559 C560 1.291 . S
C559 H572 0.931 . S
C560 C559 1.291 . S
C560 C561 1.373 . S
C560 H573 0.929 . S
C561 C560 1.373 . S
C561 C562 1.396 . S
C561 C568 1.403 1_655 S
C562 C552 1.476 . S
C562 N557 1.318 . S
C562 C561 1.396 . S
H563 C558 0.929 . S
O564 Mn540 2.385 . S
O564 C542 1.234 . S
O565 Mn540 2.209 . S
O565 Mn541 2.215 . S
O565 C542 1.283 . S
O566 Mn540 2.094 . S
O566 C544 1.240 . S
O567 Mn541 2.117 . S
O567 C544 1.264 . S
C568 C561 1.403 1_455 S
C568 C569 1.399 . S
C568 H574 0.929 . S
C569 C549 1.449 . S
C569 C568 1.399 . S
C569 H575 0.930 . S
H570 C550 0.931 . S
H571 C551 0.930 . S
H572 C559 0.931 . S
H573 C560 0.929 . S
H574 C568 0.929 . S
H575 C569 0.930 . S
Mn576 O581 2.095 . S
Mn576 O591 2.162 . S
Mn576 O592 2.297 . S
Mn576 O600 2.385 . S
Mn576 O601 2.209 . S
Mn576 O602 2.094 . S
Mn577 O582 2.121 . S
Mn577 N584 2.257 . S
Mn577 N593 2.282 . S
Mn577 O601 2.215 . S
Mn577 O603 2.117 . S
C578 O600 1.234 . S
C578 O601 1.283 . S
C579 O591 1.281 . S
C579 O592 1.236 . S
C580 O602 1.240 . S
C580 O603 1.264 . S
O581 Mn576 2.095 . S
O581 C590 1.250 . S
O582 Mn577 2.121 . S
O582 C590 1.258 . S
C583 N584 1.326 . S
C583 C587 1.460 . S
C583 H589 0.929 . S
N584 Mn577 2.257 . S
N584 C583 1.326 . S
N584 C588 1.362 . S
C585 C586 1.258 . S
C585 C588 1.431 . S
C585 C605 1.449 . S
C586 C585 1.258 . S
C586 C587 1.477 . S
C586 H606 0.931 . S
C587 C583 1.460 . S
C587 C586 1.477 . S
C587 H607 0.930 . S
C588 N584 1.362 . S
C588 C585 1.431 . S
C588 C598 1.476 . S
H589 C583 0.929 . S
C590 O581 1.250 . S
C590 O582 1.258 . S
O591 Mn576 2.162 . S
O591 C579 1.281 . S
O592 Mn576 2.297 . S
O592 C579 1.236 . S
N593 Mn577 2.282 . S
N593 C594 1.328 . S
N593 C598 1.318 . S
C594 N593 1.328 . S
C594 C595 1.457 . S
C594 H599 0.929 . S
C595 C594 1.457 . S
C595 C596 1.291 . S
C595 H608 0.931 . S
C596 C595 1.291 . S
C596 C597 1.373 . S
C596 H609 0.929 . S
C597 C596 1.373 . S
C597 C598 1.396 . S
C597 C604 1.403 . S
C598 C588 1.476 . S
C598 N593 1.318 . S
C598 C597 1.396 . S
H599 C594 0.929 . S
O600 Mn576 2.385 . S
O600 C578 1.234 . S
O601 Mn576 2.209 . S
O601 Mn577 2.215 . S
O601 C578 1.283 . S
O602 Mn576 2.094 . S
O602 C580 1.240 . S
O603 Mn577 2.117 . S
O603 C580 1.264 . S
C604 C597 1.403 . S
C604 C605 1.399 . S
C604 H610 0.929 . S
C605 C585 1.449 . S
C605 C604 1.399 . S
C605 H611 0.930 . S
H606 C586 0.931 . S
H607 C587 0.930 . S
H608 C595 0.931 . S
H609 C596 0.929 . S
H610 C604 0.929 . S
H611 C605 0.930 . S
Mn612 O617 2.095 . S
Mn612 O627 2.162 . S
Mn612 O628 2.297 . S
Mn612 O636 2.385 . S
Mn612 O637 2.209 . S
Mn612 O638 2.094 . S
Mn613 O618 2.121 . S
Mn613 N620 2.257 . S
Mn613 N629 2.282 . S
Mn613 O637 2.215 . S
Mn613 O639 2.117 . S
C614 O636 1.234 . S
C614 O637 1.283 . S
C615 O627 1.281 . S
C615 O628 1.236 . S
C616 O638 1.240 . S
C616 O639 1.264 . S
O617 Mn612 2.095 . S
O617 C626 1.250 . S
O618 Mn613 2.121 . S
O618 C626 1.258 . S
C619 N620 1.326 . S
C619 C623 1.460 . S
C619 H625 0.929 . S
N620 Mn613 2.257 . S
N620 C619 1.326 . S
N620 C624 1.362 . S
C621 C622 1.258 . S
C621 C624 1.431 . S
C621 C641 1.449 . S
C622 C621 1.258 . S
C622 C623 1.477 . S
C622 H642 0.931 . S
C623 C619 1.460 . S
C623 C622 1.477 . S
C623 H643 0.930 . S
C624 N620 1.362 . S
C624 C621 1.431 . S
C624 C634 1.476 . S
H625 C619 0.929 . S
C626 O617 1.250 . S
C626 O618 1.258 . S
O627 Mn612 2.162 . S
O627 C615 1.281 . S
O628 Mn612 2.297 . S
O628 C615 1.236 . S
N629 Mn613 2.282 . S
N629 C630 1.328 . S
N629 C634 1.318 . S
C630 N629 1.328 . S
C630 C631 1.457 . S
C630 H635 0.929 . S
C631 C630 1.457 . S
C631 C632 1.291 . S
C631 H644 0.931 . S
C632 C631 1.291 . S
C632 C633 1.373 . S
C632 H645 0.929 . S
C633 C632 1.373 . S
C633 C634 1.396 . S
C633 C640 1.403 . S
C634 C624 1.476 . S
C634 N629 1.318 . S
C634 C633 1.396 . S
H635 C630 0.929 . S
O636 Mn612 2.385 . S
O636 C614 1.234 . S
O637 Mn612 2.209 . S
O637 Mn613 2.215 . S
O637 C614 1.283 . S
O638 Mn612 2.094 . S
O638 C616 1.240 . S
O639 Mn613 2.117 . S
O639 C616 1.264 . S
C640 C633 1.403 . S
C640 C641 1.399 . S
C640 H646 0.929 . S
C641 C621 1.449 . S
C641 C640 1.399 . S
C641 H647 0.930 . S
H642 C622 0.931 . S
H643 C623 0.930 . S
H644 C631 0.931 . S
H645 C632 0.929 . S
H646 C640 0.929 . S
H647 C641 0.930 . S
Mn648 O653 2.095 . S
Mn648 O663 2.162 . S
Mn648 O664 2.297 . S
Mn648 O672 2.385 . S
Mn648 O673 2.209 . S
Mn648 O674 2.094 . S
Mn649 O654 2.121 . S
Mn649 N656 2.257 . S
Mn649 N665 2.282 . S
Mn649 O673 2.215 . S
Mn649 O675 2.117 . S
C650 O672 1.234 . S
C650 O673 1.283 . S
C651 O663 1.281 . S
C651 O664 1.236 . S
C652 O674 1.240 . S
C652 O675 1.264 . S
O653 Mn648 2.095 . S
O653 C662 1.250 . S
O654 Mn649 2.121 . S
O654 C662 1.258 . S
C655 N656 1.326 . S
C655 C659 1.460 . S
C655 H661 0.929 . S
N656 Mn649 2.257 . S
N656 C655 1.326 . S
N656 C660 1.362 . S
C657 C658 1.258 . S
C657 C660 1.431 . S
C657 C677 1.449 . S
C658 C657 1.258 . S
C658 C659 1.477 . S
C658 H678 0.931 . S
C659 C655 1.460 . S
C659 C658 1.477 . S
C659 H679 0.930 . S
C660 N656 1.362 . S
C660 C657 1.431 . S
C660 C670 1.476 . S
H661 C655 0.929 . S
C662 O653 1.250 . S
C662 O654 1.258 . S
O663 Mn648 2.162 . S
O663 C651 1.281 . S
O664 Mn648 2.297 . S
O664 C651 1.236 . S
N665 Mn649 2.282 . S
N665 C666 1.328 . S
N665 C670 1.318 . S
C666 N665 1.328 . S
C666 C667 1.457 . S
C666 H671 0.929 . S
C667 C666 1.457 . S
C667 C668 1.291 . S
C667 H680 0.931 . S
C668 C667 1.291 . S
C668 C669 1.373 . S
C668 H681 0.929 . S
C669 C668 1.373 . S
C669 C670 1.396 . S
C669 C676 1.403 . S
C670 C660 1.476 . S
C670 N665 1.318 . S
C670 C669 1.396 . S
H671 C666 0.929 . S
O672 Mn648 2.385 . S
O672 C650 1.234 . S
O673 Mn648 2.209 . S
O673 Mn649 2.215 . S
O673 C650 1.283 . S
O674 Mn648 2.094 . S
O674 C652 1.240 . S
O675 Mn649 2.117 . S
O675 C652 1.264 . S
C676 C669 1.403 . S
C676 C677 1.399 . S
C676 H682 0.929 . S
C677 C657 1.449 . S
C677 C676 1.399 . S
C677 H683 0.930 . S
H678 C658 0.931 . S
H679 C659 0.930 . S
H680 C667 0.931 . S
H681 C668 0.929 . S
H682 C676 0.929 . S
H683 C677 0.930 . S
Mn684 O689 2.095 . S
Mn684 O699 2.162 . S
Mn684 O700 2.297 . S
Mn684 O708 2.385 . S
Mn684 O709 2.209 . S
Mn684 O710 2.094 . S
Mn685 O690 2.121 . S
Mn685 N692 2.257 . S
Mn685 N701 2.282 . S
Mn685 O709 2.215 . S
Mn685 O711 2.117 . S
C686 O708 1.234 . S
C686 O709 1.283 . S
C687 O699 1.281 . S
C687 O700 1.236 . S
C688 O710 1.240 . S
C688 O711 1.264 . S
O689 Mn684 2.095 . S
O689 C698 1.250 . S
O690 Mn685 2.121 . S
O690 C698 1.258 . S
C691 N692 1.326 . S
C691 C695 1.460 . S
C691 H697 0.929 . S
N692 Mn685 2.257 . S
N692 C691 1.326 . S
N692 C696 1.362 . S
C693 C694 1.258 . S
C693 C696 1.431 . S
C693 C713 1.449 . S
C694 C693 1.258 . S
C694 C695 1.477 . S
C694 H714 0.931 . S
C695 C691 1.460 . S
C695 C694 1.477 . S
C695 H715 0.930 . S
C696 N692 1.362 . S
C696 C693 1.431 . S
C696 C706 1.476 . S
H697 C691 0.929 . S
C698 O689 1.250 . S
C698 O690 1.258 . S
O699 Mn684 2.162 . S
O699 C687 1.281 . S
O700 Mn684 2.297 . S
O700 C687 1.236 . S
N701 Mn685 2.282 . S
N701 C702 1.328 . S
N701 C706 1.318 . S
C702 N701 1.328 . S
C702 C703 1.457 . S
C702 H707 0.929 . S
C703 C702 1.457 . S
C703 C704 1.291 . S
C703 H716 0.931 . S
C704 C703 1.291 . S
C704 C705 1.373 . S
C704 H717 0.929 . S
C705 C704 1.373 . S
C705 C706 1.396 . S
C705 C712 1.403 . S
C706 C696 1.476 . S
C706 N701 1.318 . S
C706 C705 1.396 . S
H707 C702 0.929 . S
O708 Mn684 2.385 . S
O708 C686 1.234 . S
O709 Mn684 2.209 . S
O709 Mn685 2.215 . S
O709 C686 1.283 . S
O710 Mn684 2.094 . S
O710 C688 1.240 . S
O711 Mn685 2.117 . S
O711 C688 1.264 . S
C712 C705 1.403 . S
C712 C713 1.399 . S
C712 H718 0.929 . S
C713 C693 1.449 . S
C713 C712 1.399 . S
C713 H719 0.930 . S
H714 C694 0.931 . S
H715 C695 0.930 . S
H716 C703 0.931 . S
H717 C704 0.929 . S
H718 C712 0.929 . S
H719 C713 0.930 . S
Mn720 O725 2.095 . S
Mn720 O735 2.162 . S
Mn720 O736 2.297 . S
Mn720 O744 2.385 . S
Mn720 O745 2.209 . S
Mn720 O746 2.094 . S
Mn721 O726 2.121 . S
Mn721 N728 2.257 . S
Mn721 N737 2.282 . S
Mn721 O745 2.215 . S
Mn721 O747 2.117 . S
C722 O744 1.234 . S
C722 O745 1.283 . S
C723 O735 1.281 . S
C723 O736 1.236 . S
C724 O746 1.240 . S
C724 O747 1.264 . S
O725 Mn720 2.095 . S
O725 C734 1.250 . S
O726 Mn721 2.121 . S
O726 C734 1.258 . S
C727 N728 1.326 . S
C727 C731 1.460 . S
C727 H733 0.929 . S
N728 Mn721 2.257 . S
N728 C727 1.326 . S
N728 C732 1.362 . S
C729 C730 1.258 . S
C729 C732 1.431 . S
C729 C749 1.449 . S
C730 C729 1.258 . S
C730 C731 1.477 . S
C730 H750 0.931 . S
C731 C727 1.460 . S
C731 C730 1.477 . S
C731 H751 0.930 . S
C732 N728 1.362 . S
C732 C729 1.431 . S
C732 C742 1.476 . S
H733 C727 0.929 . S
C734 O725 1.250 . S
C734 O726 1.258 . S
O735 Mn720 2.162 . S
O735 C723 1.281 . S
O736 Mn720 2.297 . S
O736 C723 1.236 . S
N737 Mn721 2.282 . S
N737 C738 1.328 . S
N737 C742 1.318 . S
C738 N737 1.328 . S
C738 C739 1.457 . S
C738 H743 0.929 . S
C739 C738 1.457 . S
C739 C740 1.291 . S
C739 H752 0.931 . S
C740 C739 1.291 . S
C740 C741 1.373 . S
C740 H753 0.929 . S
C741 C740 1.373 . S
C741 C742 1.396 . S
C741 C748 1.403 . S
C742 C732 1.476 . S
C742 N737 1.318 . S
C742 C741 1.396 . S
H743 C738 0.929 . S
O744 Mn720 2.385 . S
O744 C722 1.234 . S
O745 Mn720 2.209 . S
O745 Mn721 2.215 . S
O745 C722 1.283 . S
O746 Mn720 2.094 . S
O746 C724 1.240 . S
O747 Mn721 2.117 . S
O747 C724 1.264 . S
C748 C741 1.403 . S
C748 C749 1.399 . S
C748 H754 0.929 . S
C749 C729 1.449 . S
C749 C748 1.399 . S
C749 H755 0.930 . S
H750 C730 0.931 . S
H751 C731 0.930 . S
H752 C739 0.931 . S
H753 C740 0.929 . S
H754 C748 0.929 . S
H755 C749 0.930 . S
Mn756 O761 2.095 . S
Mn756 O771 2.162 . S
Mn756 O772 2.297 . S
Mn756 O780 2.385 . S
Mn756 O781 2.209 . S
Mn756 O782 2.094 . S
Mn757 O762 2.121 . S
Mn757 N764 2.257 . S
Mn757 N773 2.282 . S
Mn757 O781 2.215 . S
Mn757 O783 2.117 . S
C758 O780 1.234 . S
C758 O781 1.283 . S
C759 O771 1.281 . S
C759 O772 1.236 . S
C760 O782 1.240 . S
C760 O783 1.264 . S
O761 Mn756 2.095 . S
O761 C770 1.250 . S
O762 Mn757 2.121 . S
O762 C770 1.258 . S
C763 N764 1.326 . S
C763 C767 1.460 . S
C763 H769 0.929 . S
N764 Mn757 2.257 . S
N764 C763 1.326 . S
N764 C768 1.362 . S
C765 C766 1.258 . S
C765 C768 1.431 . S
C765 C785 1.449 . S
C766 C765 1.258 . S
C766 C767 1.477 . S
C766 H786 0.931 . S
C767 C763 1.460 . S
C767 C766 1.477 . S
C767 H787 0.930 . S
C768 N764 1.362 . S
C768 C765 1.431 . S
C768 C778 1.476 . S
H769 C763 0.929 . S
C770 O761 1.250 . S
C770 O762 1.258 . S
O771 Mn756 2.162 . S
O771 C759 1.281 . S
O772 Mn756 2.297 . S
O772 C759 1.236 . S
N773 Mn757 2.282 . S
N773 C774 1.328 . S
N773 C778 1.318 . S
C774 N773 1.328 . S
C774 C775 1.457 . S
C774 H779 0.929 . S
C775 C774 1.457 . S
C775 C776 1.291 . S
C775 H788 0.931 . S
C776 C775 1.291 . S
C776 C777 1.373 . S
C776 H789 0.929 . S
C777 C776 1.373 . S
C777 C778 1.396 . S
C777 C784 1.403 . S
C778 C768 1.476 . S
C778 N773 1.318 . S
C778 C777 1.396 . S
H779 C774 0.929 . S
O780 Mn756 2.385 . S
O780 C758 1.234 . S
O781 Mn756 2.209 . S
O781 Mn757 2.215 . S
O781 C758 1.283 . S
O782 Mn756 2.094 . S
O782 C760 1.240 . S
O783 Mn757 2.117 . S
O783 C760 1.264 . S
C784 C777 1.403 . S
C784 C785 1.399 . S
C784 H790 0.929 . S
C785 C765 1.449 . S
C785 C784 1.399 . S
C785 H791 0.930 . S
H786 C766 0.931 . S
H787 C767 0.930 . S
H788 C775 0.931 . S
H789 C776 0.929 . S
H790 C784 0.929 . S
H791 C785 0.930 . S
Mn792 O797 2.095 . S
Mn792 O807 2.162 . S
Mn792 O808 2.297 . S
Mn792 O816 2.385 . S
Mn792 O817 2.209 . S
Mn792 O818 2.094 . S
Mn793 O798 2.121 . S
Mn793 N800 2.257 . S
Mn793 N809 2.282 . S
Mn793 O817 2.215 . S
Mn793 O819 2.117 . S
C794 O816 1.234 . S
C794 O817 1.283 . S
C795 O807 1.281 . S
C795 O808 1.236 . S
C796 O818 1.240 . S
C796 O819 1.264 . S
O797 Mn792 2.095 . S
O797 C806 1.250 . S
O798 Mn793 2.121 . S
O798 C806 1.258 . S
C799 N800 1.326 . S
C799 C803 1.460 . S
C799 H805 0.929 . S
N800 Mn793 2.257 . S
N800 C799 1.326 . S
N800 C804 1.362 . S
C801 C802 1.258 . S
C801 C804 1.431 . S
C801 C821 1.449 . S
C802 C801 1.258 . S
C802 C803 1.477 . S
C802 H822 0.931 . S
C803 C799 1.460 . S
C803 C802 1.477 . S
C803 H823 0.930 . S
C804 N800 1.362 . S
C804 C801 1.431 . S
C804 C814 1.476 . S
H805 C799 0.929 . S
C806 O797 1.250 . S
C806 O798 1.258 . S
O807 Mn792 2.162 . S
O807 C795 1.281 . S
O808 Mn792 2.297 . S
O808 C795 1.236 . S
N809 Mn793 2.282 . S
N809 C810 1.328 . S
N809 C814 1.318 . S
C810 N809 1.328 . S
C810 C811 1.457 . S
C810 H815 0.929 . S
C811 C810 1.457 . S
C811 C812 1.291 . S
C811 H824 0.931 . S
C812 C811 1.291 . S
C812 C813 1.373 . S
C812 H825 0.929 . S
C813 C812 1.373 . S
C813 C814 1.396 . S
C813 C820 1.403 . S
C814 C804 1.476 . S
C814 N809 1.318 . S
C814 C813 1.396 . S
H815 C810 0.929 . S
O816 Mn792 2.385 . S
O816 C794 1.234 . S
O817 Mn792 2.209 . S
O817 Mn793 2.215 . S
O817 C794 1.283 . S
O818 Mn792 2.094 . S
O818 C796 1.240 . S
O819 Mn793 2.117 . S
O819 C796 1.264 . S
C820 C813 1.403 . S
C820 C821 1.399 . S
C820 H826 0.929 . S
C821 C801 1.449 . S
C821 C820 1.399 . S
C821 H827 0.930 . S
H822 C802 0.931 . S
H823 C803 0.930 . S
H824 C811 0.931 . S
H825 C812 0.929 . S
H826 C820 0.929 . S
H827 C821 0.930 . S
Mn828 O833 2.095 . S
Mn828 O843 2.162 . S
Mn828 O844 2.297 . S
Mn828 O852 2.385 . S
Mn828 O853 2.209 . S
Mn828 O854 2.094 . S
Mn829 O834 2.121 . S
Mn829 N836 2.257 . S
Mn829 N845 2.282 . S
Mn829 O853 2.215 . S
Mn829 O855 2.117 . S
C830 O852 1.234 . S
C830 O853 1.283 . S
C831 O843 1.281 . S
C831 O844 1.236 . S
C832 O854 1.240 . S
C832 O855 1.264 . S
O833 Mn828 2.095 . S
O833 C842 1.250 . S
O834 Mn829 2.121 . S
O834 C842 1.258 . S
C835 N836 1.326 . S
C835 C839 1.460 . S
C835 H841 0.929 . S
N836 Mn829 2.257 . S
N836 C835 1.326 . S
N836 C840 1.362 . S
C837 C838 1.258 . S
C837 C840 1.431 . S
C837 C857 1.449 . S
C838 C837 1.258 . S
C838 C839 1.477 . S
C838 H858 0.931 . S
C839 C835 1.460 . S
C839 C838 1.477 . S
C839 H859 0.930 . S
C840 N836 1.362 . S
C840 C837 1.431 . S
C840 C850 1.476 . S
H841 C835 0.929 . S
C842 O833 1.250 . S
C842 O834 1.258 . S
O843 Mn828 2.162 . S
O843 C831 1.281 . S
O844 Mn828 2.297 . S
O844 C831 1.236 . S
N845 Mn829 2.282 . S
N845 C846 1.328 . S
N845 C850 1.318 . S
C846 N845 1.328 . S
C846 C847 1.457 . S
C846 H851 0.929 . S
C847 C846 1.457 . S
C847 C848 1.291 . S
C847 H860 0.931 . S
C848 C847 1.291 . S
C848 C849 1.373 . S
C848 H861 0.929 . S
C849 C848 1.373 . S
C849 C850 1.396 . S
C849 C856 1.403 . S
C850 C840 1.476 . S
C850 N845 1.318 . S
C850 C849 1.396 . S
H851 C846 0.929 . S
O852 Mn828 2.385 . S
O852 C830 1.234 . S
O853 Mn828 2.209 . S
O853 Mn829 2.215 . S
O853 C830 1.283 . S
O854 Mn828 2.094 . S
O854 C832 1.240 . S
O855 Mn829 2.117 . S
O855 C832 1.264 . S
C856 C849 1.403 . S
C856 C857 1.399 . S
C856 H862 0.929 . S
C857 C837 1.449 . S
C857 C856 1.399 . S
C857 H863 0.930 . S
H858 C838 0.931 . S
H859 C839 0.930 . S
H860 C847 0.931 . S
H861 C848 0.929 . S
H862 C856 0.929 . S
H863 C857 0.930 . S
Mn864 O869 2.095 . S
Mn864 O879 2.162 . S
Mn864 O880 2.297 . S
Mn864 O888 2.385 . S
Mn864 O889 2.209 . S
Mn864 O890 2.094 . S
Mn865 O870 2.121 . S
Mn865 N872 2.257 . S
Mn865 N881 2.282 . S
Mn865 O889 2.215 . S
Mn865 O891 2.117 . S
C866 O888 1.234 . S
C866 O889 1.283 . S
C867 O879 1.281 . S
C867 O880 1.236 . S
C868 O890 1.240 . S
C868 O891 1.264 . S
O869 Mn864 2.095 . S
O869 C878 1.250 . S
O870 Mn865 2.121 . S
O870 C878 1.258 . S
C871 N872 1.326 . S
C871 C875 1.460 . S
C871 H877 0.929 . S
N872 Mn865 2.257 . S
N872 C871 1.326 . S
N872 C876 1.362 . S
C873 C874 1.258 . S
C873 C876 1.431 . S
C873 C893 1.449 . S
C874 C873 1.258 . S
C874 C875 1.477 . S
C874 H894 0.931 . S
C875 C871 1.460 . S
C875 C874 1.477 . S
C875 H895 0.930 . S
C876 N872 1.362 . S
C876 C873 1.431 . S
C876 C886 1.476 . S
H877 C871 0.929 . S
C878 O869 1.250 . S
C878 O870 1.258 . S
O879 Mn864 2.162 . S
O879 C867 1.281 . S
O880 Mn864 2.297 . S
O880 C867 1.236 . S
N881 Mn865 2.282 . S
N881 C882 1.328 . S
N881 C886 1.318 . S
C882 N881 1.328 . S
C882 C883 1.457 . S
C882 H887 0.929 . S
C883 C882 1.457 . S
C883 C884 1.291 . S
C883 H896 0.931 . S
C884 C883 1.291 . S
C884 C885 1.373 . S
C884 H897 0.929 . S
C885 C884 1.373 . S
C885 C886 1.396 . S
C885 C892 1.403 . S
C886 C876 1.476 . S
C886 N881 1.318 . S
C886 C885 1.396 . S
H887 C882 0.929 . S
O888 Mn864 2.385 . S
O888 C866 1.234 . S
O889 Mn864 2.209 . S
O889 Mn865 2.215 . S
O889 C866 1.283 . S
O890 Mn864 2.094 . S
O890 C868 1.240 . S
O891 Mn865 2.117 . S
O891 C868 1.264 . S
C892 C885 1.403 . S
C892 C893 1.399 . S
C892 H898 0.929 . S
C893 C873 1.449 . S
C893 C892 1.399 . S
C893 H899 0.930 . S
H894 C874 0.931 . S
H895 C875 0.930 . S
H896 C883 0.931 . S
H897 C884 0.929 . S
H898 C892 0.929 . S
H899 C893 0.930 . S
Mn900 O905 2.095 . S
Mn900 O915 2.162 . S
Mn900 O916 2.297 . S
Mn900 O924 2.385 . S
Mn900 O925 2.209 . S
Mn900 O926 2.094 . S
Mn901 O906 2.121 . S
Mn901 N908 2.257 . S
Mn901 N917 2.282 . S
Mn901 O925 2.215 . S
Mn901 O927 2.117 . S
C902 O924 1.234 . S
C902 O925 1.283 . S
C903 O915 1.281 . S
C903 O916 1.236 . S
C904 O926 1.240 . S
C904 O927 1.264 . S
O905 Mn900 2.095 . S
O905 C914 1.250 . S
O906 Mn901 2.121 . S
O906 C914 1.258 . S
C907 N908 1.326 . S
C907 C911 1.460 . S
C907 H913 0.929 . S
N908 Mn901 2.257 . S
N908 C907 1.326 . S
N908 C912 1.362 . S
C909 C910 1.258 . S
C909 C912 1.431 . S
C909 C929 1.449 . S
C910 C909 1.258 . S
C910 C911 1.477 . S
C910 H930 0.931 . S
C911 C907 1.460 . S
C911 C910 1.477 . S
C911 H931 0.930 . S
C912 N908 1.362 . S
C912 C909 1.431 . S
C912 C922 1.476 . S
H913 C907 0.929 . S
C914 O905 1.250 . S
C914 O906 1.258 . S
O915 Mn900 2.162 . S
O915 C903 1.281 . S
O916 Mn900 2.297 . S
O916 C903 1.236 . S
N917 Mn901 2.282 . S
N917 C918 1.328 . S
N917 C922 1.318 . S
C918 N917 1.328 . S
C918 C919 1.457 . S
C918 H923 0.929 . S
C919 C918 1.457 . S
C919 C920 1.291 . S
C919 H932 0.931 . S
C920 C919 1.291 . S
C920 C921 1.373 . S
C920 H933 0.929 . S
C921 C920 1.373 . S
C921 C922 1.396 . S
C921 C928 1.403 . S
C922 C912 1.476 . S
C922 N917 1.318 . S
C922 C921 1.396 . S
H923 C918 0.929 . S
O924 Mn900 2.385 . S
O924 C902 1.234 . S
O925 Mn900 2.209 . S
O925 Mn901 2.215 . S
O925 C902 1.283 . S
O926 Mn900 2.094 . S
O926 C904 1.240 . S
O927 Mn901 2.117 . S
O927 C904 1.264 . S
C928 C921 1.403 . S
C928 C929 1.399 . S
C928 H934 0.929 . S
C929 C909 1.449 . S
C929 C928 1.399 . S
C929 H935 0.930 . S
H930 C910 0.931 . S
H931 C911 0.930 . S
H932 C919 0.931 . S
H933 C920 0.929 . S
H934 C928 0.929 . S
H935 C929 0.930 . S
Mn936 O941 2.095 . S
Mn936 O951 2.162 . S
Mn936 O952 2.297 . S
Mn936 O960 2.385 1_556 S
Mn936 O961 2.209 1_556 S
Mn936 O962 2.094 . S
Mn937 O942 2.121 1_554 S
Mn937 N944 2.257 . S
Mn937 N953 2.282 . S
Mn937 O961 2.215 . S
Mn937 O963 2.117 . S
C938 O960 1.234 . S
C938 O961 1.283 . S
C939 O951 1.281 . S
C939 O952 1.236 . S
C940 O962 1.240 . S
C940 O963 1.264 1_556 S
O941 Mn936 2.095 . S
O941 C950 1.250 . S
O942 Mn937 2.121 1_556 S
O942 C950 1.258 . S
C943 N944 1.326 . S
C943 C947 1.460 . S
C943 H949 0.929 . S
N944 Mn937 2.257 . S
N944 C943 1.326 . S
N944 C948 1.362 . S
C945 C946 1.258 . S
C945 C948 1.431 . S
C945 C965 1.449 . S
C946 C945 1.258 . S
C946 C947 1.477 . S
C946 H966 0.931 . S
C947 C943 1.460 . S
C947 C946 1.477 . S
C947 H967 0.930 . S
C948 N944 1.362 . S
C948 C945 1.431 . S
C948 C958 1.476 . S
H949 C943 0.929 . S
C950 O941 1.250 . S
C950 O942 1.258 . S
O951 Mn936 2.162 . S
O951 C939 1.281 . S
O952 Mn936 2.297 . S
O952 C939 1.236 . S
N953 Mn937 2.282 . S
N953 C954 1.328 . S
N953 C958 1.318 . S
C954 N953 1.328 . S
C954 C955 1.457 . S
C954 H959 0.929 . S
C955 C954 1.457 . S
C955 C956 1.291 . S
C955 H968 0.931 . S
C956 C955 1.291 . S
C956 C957 1.373 . S
C956 H969 0.929 . S
C957 C956 1.373 . S
C957 C958 1.396 . S
C957 C964 1.403 . S
C958 C948 1.476 . S
C958 N953 1.318 . S
C958 C957 1.396 . S
H959 C954 0.929 . S
O960 Mn936 2.385 1_554 S
O960 C938 1.234 . S
O961 Mn936 2.209 1_554 S
O961 Mn937 2.215 . S
O961 C938 1.283 . S
O962 Mn936 2.094 . S
O962 C940 1.240 . S
O963 Mn937 2.117 . S
O963 C940 1.264 1_554 S
C964 C957 1.403 . S
C964 C965 1.399 . S
C964 H970 0.929 . S
C965 C945 1.449 . S
C965 C964 1.399 . S
C965 H971 0.930 . S
H966 C946 0.931 . S
H967 C947 0.930 . S
H968 C955 0.931 . S
H969 C956 0.929 . S
H970 C964 0.929 . S
H971 C965 0.930 . S
Mn972 O977 2.095 . S
Mn972 O987 2.162 . S
Mn972 O988 2.297 . S
Mn972 O996 2.385 1_556 S
Mn972 O997 2.209 1_556 S
Mn972 O998 2.094 . S
Mn973 O978 2.121 1_554 S
Mn973 N980 2.257 . S
Mn973 N989 2.282 . S
Mn973 O997 2.215 . S
Mn973 O999 2.117 . S
C974 O996 1.234 . S
C974 O997 1.283 . S
C975 O987 1.281 . S
C975 O988 1.236 . S
C976 O998 1.240 . S
C976 O999 1.264 1_556 S
O977 Mn972 2.095 . S
O977 C986 1.250 . S
O978 Mn973 2.121 1_556 S
O978 C986 1.258 . S
C979 N980 1.326 . S
C979 C983 1.460 . S
C979 H985 0.929 . S
N980 Mn973 2.257 . S
N980 C979 1.326 . S
N980 C984 1.362 . S
C981 C982 1.258 . S
C981 C984 1.431 . S
C981 C1001 1.449 . S
C982 C981 1.258 . S
C982 C983 1.477 . S
C982 H1002 0.931 . S
C983 C979 1.460 . S
C983 C982 1.477 . S
C983 H1003 0.930 . S
C984 N980 1.362 . S
C984 C981 1.431 . S
C984 C994 1.476 . S
H985 C979 0.929 . S
C986 O977 1.250 . S
C986 O978 1.258 . S
O987 Mn972 2.162 . S
O987 C975 1.281 . S
O988 Mn972 2.297 . S
O988 C975 1.236 . S
N989 Mn973 2.282 . S
N989 C990 1.328 . S
N989 C994 1.318 . S
C990 N989 1.328 . S
C990 C991 1.457 . S
C990 H995 0.929 . S
C991 C990 1.457 . S
C991 C992 1.291 . S
C991 H1004 0.931 . S
C992 C991 1.291 . S
C992 C993 1.373 . S
C992 H1005 0.929 . S
C993 C992 1.373 . S
C993 C994 1.396 . S
C993 C1000 1.403 . S
C994 C984 1.476 . S
C994 N989 1.318 . S
C994 C993 1.396 . S
H995 C990 0.929 . S
O996 Mn972 2.385 1_554 S
O996 C974 1.234 . S
O997 Mn972 2.209 1_554 S
O997 Mn973 2.215 . S
O997 C974 1.283 . S
O998 Mn972 2.094 . S
O998 C976 1.240 . S
O999 Mn973 2.117 . S
O999 C976 1.264 1_554 S
C1000 C993 1.403 . S
C1000 C1001 1.399 . S
C1000 H1006 0.929 . S
C1001 C981 1.449 . S
C1001 C1000 1.399 . S
C1001 H1007 0.930 . S
H1002 C982 0.931 . S
H1003 C983 0.930 . S
H1004 C991 0.931 . S
H1005 C992 0.929 . S
H1006 C1000 0.929 . S
H1007 C1001 0.930 . S
Mn1008 O1013 2.095 . S
Mn1008 O1023 2.162 . S
Mn1008 O1024 2.297 . S
Mn1008 O1032 2.385 . S
Mn1008 O1033 2.209 . S
Mn1008 O1034 2.094 . S
Mn1009 O1014 2.121 . S
Mn1009 N1016 2.257 . S
Mn1009 N1025 2.282 . S
Mn1009 O1033 2.215 . S
Mn1009 O1035 2.117 . S
C1010 O1032 1.234 . S
C1010 O1033 1.283 . S
C1011 O1023 1.281 . S
C1011 O1024 1.236 . S
C1012 O1034 1.240 . S
C1012 O1035 1.264 . S
O1013 Mn1008 2.095 . S
O1013 C1022 1.250 . S
O1014 Mn1009 2.121 . S
O1014 C1022 1.258 . S
C1015 N1016 1.326 . S
C1015 C1019 1.460 . S
C1015 H1021 0.929 . S
N1016 Mn1009 2.257 . S
N1016 C1015 1.326 . S
N1016 C1020 1.362 . S
C1017 C1018 1.258 . S
C1017 C1020 1.431 . S
C1017 C1037 1.449 . S
C1018 C1017 1.258 . S
C1018 C1019 1.477 . S
C1018 H1038 0.931 . S
C1019 C1015 1.460 . S
C1019 C1018 1.477 . S
C1019 H1039 0.930 . S
C1020 N1016 1.362 . S
C1020 C1017 1.431 . S
C1020 C1030 1.476 . S
H1021 C1015 0.929 . S
C1022 O1013 1.250 . S
C1022 O1014 1.258 . S
O1023 Mn1008 2.162 . S
O1023 C1011 1.281 . S
O1024 Mn1008 2.297 . S
O1024 C1011 1.236 . S
N1025 Mn1009 2.282 . S
N1025 C1026 1.328 . S
N1025 C1030 1.318 . S
C1026 N1025 1.328 . S
C1026 C1027 1.457 . S
C1026 H1031 0.929 . S
C1027 C1026 1.457 . S
C1027 C1028 1.291 . S
C1027 H1040 0.931 . S
C1028 C1027 1.291 . S
C1028 C1029 1.373 . S
C1028 H1041 0.929 . S
C1029 C1028 1.373 . S
C1029 C1030 1.396 . S
C1029 C1036 1.403 . S
C1030 C1020 1.476 . S
C1030 N1025 1.318 . S
C1030 C1029 1.396 . S
H1031 C1026 0.929 . S
O1032 Mn1008 2.385 . S
O1032 C1010 1.234 . S
O1033 Mn1008 2.209 . S
O1033 Mn1009 2.215 . S
O1033 C1010 1.283 . S
O1034 Mn1008 2.094 . S
O1034 C1012 1.240 . S
O1035 Mn1009 2.117 . S
O1035 C1012 1.264 . S
C1036 C1029 1.403 . S
C1036 C1037 1.399 . S
C1036 H1042 0.929 . S
C1037 C1017 1.449 . S
C1037 C1036 1.399 . S
C1037 H1043 0.930 . S
H1038 C1018 0.931 . S
H1039 C1019 0.930 . S
H1040 C1027 0.931 . S
H1041 C1028 0.929 . S
H1042 C1036 0.929 . S
H1043 C1037 0.930 . S
Mn1044 O1049 2.095 . S
Mn1044 O1059 2.162 . S
Mn1044 O1060 2.297 . S
Mn1044 O1068 2.385 . S
Mn1044 O1069 2.209 . S
Mn1044 O1070 2.094 . S
Mn1045 O1050 2.121 . S
Mn1045 N1052 2.257 . S
Mn1045 N1061 2.282 . S
Mn1045 O1069 2.215 . S
Mn1045 O1071 2.117 . S
C1046 O1068 1.234 . S
C1046 O1069 1.283 . S
C1047 O1059 1.281 . S
C1047 O1060 1.236 . S
C1048 O1070 1.240 . S
C1048 O1071 1.264 . S
O1049 Mn1044 2.095 . S
O1049 C1058 1.250 . S
O1050 Mn1045 2.121 . S
O1050 C1058 1.258 . S
C1051 N1052 1.326 . S
C1051 C1055 1.460 . S
C1051 H1057 0.929 . S
N1052 Mn1045 2.257 . S
N1052 C1051 1.326 . S
N1052 C1056 1.362 . S
C1053 C1054 1.258 . S
C1053 C1056 1.431 . S
C1053 C1073 1.449 . S
C1054 C1053 1.258 . S
C1054 C1055 1.477 . S
C1054 H1074 0.931 . S
C1055 C1051 1.460 . S
C1055 C1054 1.477 . S
C1055 H1075 0.930 . S
C1056 N1052 1.362 . S
C1056 C1053 1.431 . S
C1056 C1066 1.476 . S
H1057 C1051 0.929 . S
C1058 O1049 1.250 . S
C1058 O1050 1.258 . S
O1059 Mn1044 2.162 . S
O1059 C1047 1.281 . S
O1060 Mn1044 2.297 . S
O1060 C1047 1.236 . S
N1061 Mn1045 2.282 . S
N1061 C1062 1.328 . S
N1061 C1066 1.318 . S
C1062 N1061 1.328 . S
C1062 C1063 1.457 . S
C1062 H1067 0.929 . S
C1063 C1062 1.457 . S
C1063 C1064 1.291 . S
C1063 H1076 0.931 . S
C1064 C1063 1.291 . S
C1064 C1065 1.373 . S
C1064 H1077 0.929 . S
C1065 C1064 1.373 . S
C1065 C1066 1.396 . S
C1065 C1072 1.403 . S
C1066 C1056 1.476 . S
C1066 N1061 1.318 . S
C1066 C1065 1.396 . S
H1067 C1062 0.929 . S
O1068 Mn1044 2.385 . S
O1068 C1046 1.234 . S
O1069 Mn1044 2.209 . S
O1069 Mn1045 2.215 . S
O1069 C1046 1.283 . S
O1070 Mn1044 2.094 . S
O1070 C1048 1.240 . S
O1071 Mn1045 2.117 . S
O1071 C1048 1.264 . S
C1072 C1065 1.403 . S
C1072 C1073 1.399 . S
C1072 H1078 0.929 . S
C1073 C1053 1.449 . S
C1073 C1072 1.399 . S
C1073 H1079 0.930 . S
H1074 C1054 0.931 . S
H1075 C1055 0.930 . S
H1076 C1063 0.931 . S
H1077 C1064 0.929 . S
H1078 C1072 0.929 . S
H1079 C1073 0.930 . S
Mn1080 O1085 2.095 . S
Mn1080 O1095 2.162 1_554 S
Mn1080 O1096 2.297 1_554 S
Mn1080 O1104 2.385 . S
Mn1080 O1105 2.209 . S
Mn1080 O1106 2.094 . S
Mn1081 O1086 2.121 . S
Mn1081 N1088 2.257 . S
Mn1081 N1097 2.282 . S
Mn1081 O1105 2.215 . S
Mn1081 O1107 2.117 . S
C1082 O1104 1.234 . S
C1082 O1105 1.283 . S
C1083 O1095 1.281 . S
C1083 O1096 1.236 . S
C1084 O1106 1.240 . S
C1084 O1107 1.264 . S
O1085 Mn1080 2.095 . S
O1085 C1094 1.250 . S
O1086 Mn1081 2.121 . S
O1086 C1094 1.258 . S
C1087 N1088 1.326 . S
C1087 C1091 1.460 . S
C1087 H1093 0.929 . S
N1088 Mn1081 2.257 . S
N1088 C1087 1.326 . S
N1088 C1092 1.362 . S
C1089 C1090 1.258 . S
C1089 C1092 1.431 . S
C1089 C1109 1.449 . S
C1090 C1089 1.258 . S
C1090 C1091 1.477 . S
C1090 H1110 0.931 . S
C1091 C1087 1.460 . S
C1091 C1090 1.477 . S
C1091 H1111 0.930 . S
C1092 N1088 1.362 . S
C1092 C1089 1.431 . S
C1092 C1102 1.476 . S
H1093 C1087 0.929 . S
C1094 O1085 1.250 . S
C1094 O1086 1.258 . S
O1095 Mn1080 2.162 1_556 S
O1095 C1083 1.281 . S
O1096 Mn1080 2.297 1_556 S
O1096 C1083 1.236 . S
N1097 Mn1081 2.282 . S
N1097 C1098 1.328 . S
N1097 C1102 1.318 . S
C1098 N1097 1.328 . S
C1098 C1099 1.457 . S
C1098 H1103 0.929 . S
C1099 C1098 1.457 . S
C1099 C1100 1.291 . S
C1099 H1112 0.931 . S
C1100 C1099 1.291 . S
C1100 C1101 1.373 . S
C1100 H1113 0.929 . S
C1101 C1100 1.373 . S
C1101 C1102 1.396 . S
C1101 C1108 1.403 . S
C1102 C1092 1.476 . S
C1102 N1097 1.318 . S
C1102 C1101 1.396 . S
H1103 C1098 0.929 . S
O1104 Mn1080 2.385 . S
O1104 C1082 1.234 . S
O1105 Mn1080 2.209 . S
O1105 Mn1081 2.215 . S
O1105 C1082 1.283 . S
O1106 Mn1080 2.094 . S
O1106 C1084 1.240 . S
O1107 Mn1081 2.117 . S
O1107 C1084 1.264 . S
C1108 C1101 1.403 . S
C1108 C1109 1.399 . S
C1108 H1114 0.929 . S
C1109 C1089 1.449 . S
C1109 C1108 1.399 . S
C1109 H1115 0.930 . S
H1110 C1090 0.931 . S
H1111 C1091 0.930 . S
H1112 C1099 0.931 . S
H1113 C1100 0.929 . S
H1114 C1108 0.929 . S
H1115 C1109 0.930 . S
Mn1116 O1121 2.095 . S
Mn1116 O1131 2.162 1_554 S
Mn1116 O1132 2.297 1_554 S
Mn1116 O1140 2.385 . S
Mn1116 O1141 2.209 . S
Mn1116 O1142 2.094 . S
Mn1117 O1122 2.121 . S
Mn1117 N1124 2.257 . S
Mn1117 N1133 2.282 . S
Mn1117 O1141 2.215 . S
Mn1117 O1143 2.117 . S
C1118 O1140 1.234 . S
C1118 O1141 1.283 . S
C1119 O1131 1.281 . S
C1119 O1132 1.236 . S
C1120 O1142 1.240 . S
C1120 O1143 1.264 . S
O1121 Mn1116 2.095 . S
O1121 C1130 1.250 . S
O1122 Mn1117 2.121 . S
O1122 C1130 1.258 . S
C1123 N1124 1.326 . S
C1123 C1127 1.460 . S
C1123 H1129 0.929 . S
N1124 Mn1117 2.257 . S
N1124 C1123 1.326 . S
N1124 C1128 1.362 . S
C1125 C1126 1.258 . S
C1125 C1128 1.431 . S
C1125 C1145 1.449 . S
C1126 C1125 1.258 . S
C1126 C1127 1.477 . S
C1126 H1146 0.931 . S
C1127 C1123 1.460 . S
C1127 C1126 1.477 . S
C1127 H1147 0.930 . S
C1128 N1124 1.362 . S
C1128 C1125 1.431 . S
C1128 C1138 1.476 . S
H1129 C1123 0.929 . S
C1130 O1121 1.250 . S
C1130 O1122 1.258 . S
O1131 Mn1116 2.162 1_556 S
O1131 C1119 1.281 . S
O1132 Mn1116 2.297 1_556 S
O1132 C1119 1.236 . S
N1133 Mn1117 2.282 . S
N1133 C1134 1.328 . S
N1133 C1138 1.318 . S
C1134 N1133 1.328 . S
C1134 C1135 1.457 . S
C1134 H1139 0.929 . S
C1135 C1134 1.457 . S
C1135 C1136 1.291 . S
C1135 H1148 0.931 . S
C1136 C1135 1.291 . S
C1136 C1137 1.373 . S
C1136 H1149 0.929 . S
C1137 C1136 1.373 . S
C1137 C1138 1.396 . S
C1137 C1144 1.403 . S
C1138 C1128 1.476 . S
C1138 N1133 1.318 . S
C1138 C1137 1.396 . S
H1139 C1134 0.929 . S
O1140 Mn1116 2.385 . S
O1140 C1118 1.234 . S
O1141 Mn1116 2.209 . S
O1141 Mn1117 2.215 . S
O1141 C1118 1.283 . S
O1142 Mn1116 2.094 . S
O1142 C1120 1.240 . S
O1143 Mn1117 2.117 . S
O1143 C1120 1.264 . S
C1144 C1137 1.403 . S
C1144 C1145 1.399 . S
C1144 H1150 0.929 . S
C1145 C1125 1.449 . S
C1145 C1144 1.399 . S
C1145 H1151 0.930 . S
H1146 C1126 0.931 . S
H1147 C1127 0.930 . S
H1148 C1135 0.931 . S
H1149 C1136 0.929 . S
H1150 C1144 0.929 . S
H1151 C1145 0.930 . S
H1152 C1160 0.929 . S
H1153 C1162 0.930 . S
H1154 C1164 0.930 . S
H1155 C1167 0.929 . S
H1156 C1170 0.930 . S
H1157 C1172 0.960 . S
H1158 C1172 0.960 . S
H1159 C1172 0.960 . S
C1160 H1152 0.929 . S
C1160 C1161 1.377 . S
C1160 C1162 1.384 . S
C1161 C1160 1.377 . S
C1161 C1167 1.390 . S
C1162 H1153 0.930 . S
C1162 C1160 1.384 . S
C1162 C1163 1.372 . S
C1163 C1162 1.372 . S
C1163 C1164 1.400 . S
C1163 C1168 1.490 . S
C1164 H1154 0.930 . S
C1164 C1163 1.400 . S
C1164 C1167 1.386 . S
H1165 C1181 0.930 . S
H1166 C1182 0.931 . S
C1167 H1155 0.929 . S
C1167 C1161 1.390 . S
C1167 C1164 1.386 . S
C1168 C1163 1.490 . S
C1168 C1170 1.395 . S
C1168 C1171 1.403 . S
H1169 C1175 0.930 . S
C1170 H1156 0.930 . S
C1170 C1168 1.395 . S
C1170 C1173 1.403 . S
C1171 C1168 1.403 . S
C1171 C1172 1.524 . S
C1171 C1175 1.400 . S
C1172 H1157 0.960 . S
C1172 H1158 0.960 . S
C1172 H1159 0.960 . S
C1172 C1171 1.524 . S
C1173 C1170 1.403 . S
C1173 C1174 1.392 . S
C1173 C1177 1.495 . S
C1174 C1173 1.392 . S
C1174 C1175 1.385 . S
C1174 C1176 1.478 . S
C1175 H1169 0.930 . S
C1175 C1171 1.400 . S
C1175 C1174 1.385 . S
C1176 C1174 1.478 . S
C1176 C1178 1.381 . S
C1176 C1182 1.383 . S
C1177 C1173 1.495 . S
C1177 H1183 0.959 . S
C1177 H1184 0.961 . S
C1177 H1185 0.960 . S
C1178 C1176 1.381 . S
C1178 C1179 1.394 . S
C1178 H1186 0.930 . S
C1179 C1178 1.394 . S
C1179 C1180 1.383 . S
C1179 H1187 0.929 . S
C1180 C1179 1.383 . S
C1180 C1181 1.377 . S
C1181 H1165 0.930 . S
C1181 C1180 1.377 . S
C1181 C1182 1.379 . S
C1182 H1166 0.931 . S
C1182 C1176 1.383 . S
C1182 C1181 1.379 . S
H1183 C1177 0.959 . S
H1184 C1177 0.961 . S
H1185 C1177 0.960 . S
H1186 C1178 0.930 . S
H1187 C1179 0.929 . S
H1188 C1196 0.929 . S
H1189 C1198 0.930 . S
H1190 C1200 0.930 . S
H1191 C1203 0.929 . S
H1192 C1206 0.930 . S
H1193 C1208 0.960 . S
H1194 C1208 0.960 . S
H1195 C1208 0.960 . S
C1196 H1188 0.929 . S
C1196 C1197 1.377 . S
C1196 C1198 1.384 . S
C1197 C1196 1.377 . S
C1197 C1203 1.390 . S
C1198 H1189 0.930 . S
C1198 C1196 1.384 . S
C1198 C1199 1.372 . S
C1199 C1198 1.372 . S
C1199 C1200 1.400 . S
C1199 C1204 1.490 . S
C1200 H1190 0.930 . S
C1200 C1199 1.400 . S
C1200 C1203 1.386 . S
H1201 C1217 0.930 . S
H1202 C1218 0.931 . S
C1203 H1191 0.929 . S
C1203 C1197 1.390 . S
C1203 C1200 1.386 . S
C1204 C1199 1.490 . S
C1204 C1206 1.395 . S
C1204 C1207 1.403 . S
H1205 C1211 0.930 . S
C1206 H1192 0.930 . S
C1206 C1204 1.395 . S
C1206 C1209 1.403 . S
C1207 C1204 1.403 . S
C1207 C1208 1.524 . S
C1207 C1211 1.400 . S
C1208 H1193 0.960 . S
C1208 H1194 0.960 . S
C1208 H1195 0.960 . S
C1208 C1207 1.524 . S
C1209 C1206 1.403 . S
C1209 C1210 1.392 . S
C1209 C1213 1.495 . S
C1210 C1209 1.392 . S
C1210 C1211 1.385 . S
C1210 C1212 1.478 . S
C1211 H1205 0.930 . S
C1211 C1207 1.400 . S
C1211 C1210 1.385 . S
C1212 C1210 1.478 . S
C1212 C1214 1.381 . S
C1212 C1218 1.383 . S
C1213 C1209 1.495 . S
C1213 H1219 0.959 . S
C1213 H1220 0.961 . S
C1213 H1221 0.960 . S
C1214 C1212 1.381 . S
C1214 C1215 1.394 . S
C1214 H1222 0.930 . S
C1215 C1214 1.394 . S
C1215 C1216 1.383 . S
C1215 H1223 0.929 . S
C1216 C1215 1.383 . S
C1216 C1217 1.377 . S
C1217 H1201 0.930 . S
C1217 C1216 1.377 . S
C1217 C1218 1.379 . S
C1218 H1202 0.931 . S
C1218 C1212 1.383 . S
C1218 C1217 1.379 . S
H1219 C1213 0.959 . S
H1220 C1213 0.961 . S
H1221 C1213 0.960 . S
H1222 C1214 0.930 . S
H1223 C1215 0.929 . S
H1224 C1232 0.929 . S
H1225 C1234 0.930 . S
H1226 C1236 0.930 . S
H1227 C1239 0.929 . S
H1228 C1242 0.930 . S
H1229 C1244 0.960 . S
H1230 C1244 0.960 . S
H1231 C1244 0.960 . S
C1232 H1224 0.929 . S
C1232 C1233 1.377 . S
C1232 C1234 1.384 . S
C1233 C1232 1.377 . S
C1233 C1239 1.390 . S
C1234 H1225 0.930 . S
C1234 C1232 1.384 . S
C1234 C1235 1.372 . S
C1235 C1234 1.372 . S
C1235 C1236 1.400 . S
C1235 C1240 1.490 . S
C1236 H1226 0.930 . S
C1236 C1235 1.400 . S
C1236 C1239 1.386 . S
H1237 C1253 0.930 . S
H1238 C1254 0.931 . S
C1239 H1227 0.929 . S
C1239 C1233 1.390 . S
C1239 C1236 1.386 . S
C1240 C1235 1.490 . S
C1240 C1242 1.395 . S
C1240 C1243 1.403 . S
H1241 C1247 0.930 . S
C1242 H1228 0.930 . S
C1242 C1240 1.395 . S
C1242 C1245 1.403 . S
C1243 C1240 1.403 . S
C1243 C1244 1.524 . S
C1243 C1247 1.400 . S
C1244 H1229 0.960 . S
C1244 H1230 0.960 . S
C1244 H1231 0.960 . S
C1244 C1243 1.524 . S
C1245 C1242 1.403 . S
C1245 C1246 1.392 . S
C1245 C1249 1.495 . S
C1246 C1245 1.392 . S
C1246 C1247 1.385 . S
C1246 C1248 1.478 . S
C1247 H1241 0.930 . S
C1247 C1243 1.400 . S
C1247 C1246 1.385 . S
C1248 C1246 1.478 . S
C1248 C1250 1.381 . S
C1248 C1254 1.383 . S
C1249 C1245 1.495 . S
C1249 H1255 0.959 . S
C1249 H1256 0.961 . S
C1249 H1257 0.960 . S
C1250 C1248 1.381 . S
C1250 C1251 1.394 . S
C1250 H1258 0.930 . S
C1251 C1250 1.394 . S
C1251 C1252 1.383 . S
C1251 H1259 0.929 . S
C1252 C1251 1.383 . S
C1252 C1253 1.377 . S
C1253 H1237 0.930 . S
C1253 C1252 1.377 . S
C1253 C1254 1.379 . S
C1254 H1238 0.931 . S
C1254 C1248 1.383 . S
C1254 C1253 1.379 . S
H1255 C1249 0.959 . S
H1256 C1249 0.961 . S
H1257 C1249 0.960 . S
H1258 C1250 0.930 . S
H1259 C1251 0.929 . S
H1260 C1268 0.929 . S
H1261 C1270 0.930 . S
H1262 C1272 0.930 . S
H1263 C1275 0.929 . S
H1264 C1278 0.930 . S
H1265 C1280 0.960 . S
H1266 C1280 0.960 . S
H1267 C1280 0.960 . S
C1268 H1260 0.929 . S
C1268 C1269 1.377 . S
C1268 C1270 1.384 . S
C1269 C1268 1.377 . S
C1269 C1275 1.390 . S
C1270 H1261 0.930 . S
C1270 C1268 1.384 . S
C1270 C1271 1.372 . S
C1271 C1270 1.372 . S
C1271 C1272 1.400 . S
C1271 C1276 1.490 . S
C1272 H1262 0.930 . S
C1272 C1271 1.400 . S
C1272 C1275 1.386 . S
H1273 C1289 0.930 . S
H1274 C1290 0.931 . S
C1275 H1263 0.929 . S
C1275 C1269 1.390 . S
C1275 C1272 1.386 . S
C1276 C1271 1.490 . S
C1276 C1278 1.395 . S
C1276 C1279 1.403 . S
H1277 C1283 0.930 . S
C1278 H1264 0.930 . S
C1278 C1276 1.395 . S
C1278 C1281 1.403 . S
C1279 C1276 1.403 . S
C1279 C1280 1.524 . S
C1279 C1283 1.400 . S
C1280 H1265 0.960 . S
C1280 H1266 0.960 . S
C1280 H1267 0.960 . S
C1280 C1279 1.524 . S
C1281 C1278 1.403 . S
C1281 C1282 1.392 . S
C1281 C1285 1.495 . S
C1282 C1281 1.392 . S
C1282 C1283 1.385 . S
C1282 C1284 1.478 . S
C1283 H1277 0.930 . S
C1283 C1279 1.400 . S
C1283 C1282 1.385 . S
C1284 C1282 1.478 . S
C1284 C1286 1.381 . S
C1284 C1290 1.383 . S
C1285 C1281 1.495 . S
C1285 H1291 0.959 . S
C1285 H1292 0.961 . S
C1285 H1293 0.960 . S
C1286 C1284 1.381 . S
C1286 C1287 1.394 . S
C1286 H1294 0.930 . S
C1287 C1286 1.394 . S
C1287 C1288 1.383 . S
C1287 H1295 0.929 . S
C1288 C1287 1.383 . S
C1288 C1289 1.377 . S
C1289 H1273 0.930 . S
C1289 C1288 1.377 . S
C1289 C1290 1.379 . S
C1290 H1274 0.931 . S
C1290 C1284 1.383 . S
C1290 C1289 1.379 . S
H1291 C1285 0.959 . S
H1292 C1285 0.961 . S
H1293 C1285 0.960 . S
H1294 C1286 0.930 . S
H1295 C1287 0.929 . S
H1296 C1304 0.929 . S
H1297 C1306 0.930 . S
H1298 C1308 0.930 . S
H1299 C1311 0.929 . S
H1300 C1314 0.930 . S
H1301 C1316 0.960 . S
H1302 C1316 0.960 . S
H1303 C1316 0.960 . S
C1304 H1296 0.929 . S
C1304 C1305 1.377 . S
C1304 C1306 1.384 . S
C1305 C1304 1.377 . S
C1305 C1311 1.390 . S
C1306 H1297 0.930 . S
C1306 C1304 1.384 . S
C1306 C1307 1.372 . S
C1307 C1306 1.372 . S
C1307 C1308 1.400 . S
C1307 C1312 1.490 . S
C1308 H1298 0.930 . S
C1308 C1307 1.400 . S
C1308 C1311 1.386 . S
H1309 C1325 0.930 . S
H1310 C1326 0.931 . S
C1311 H1299 0.929 . S
C1311 C1305 1.390 . S
C1311 C1308 1.386 . S
C1312 C1307 1.490 . S
C1312 C1314 1.395 . S
C1312 C1315 1.403 . S
H1313 C1319 0.930 . S
C1314 H1300 0.930 . S
C1314 C1312 1.395 . S
C1314 C1317 1.403 . S
C1315 C1312 1.403 . S
C1315 C1316 1.524 . S
C1315 C1319 1.400 . S
C1316 H1301 0.960 . S
C1316 H1302 0.960 . S
C1316 H1303 0.960 . S
C1316 C1315 1.524 . S
C1317 C1314 1.403 . S
C1317 C1318 1.392 . S
C1317 C1321 1.495 . S
C1318 C1317 1.392 . S
C1318 C1319 1.385 . S
C1318 C1320 1.478 . S
C1319 H1313 0.930 . S
C1319 C1315 1.400 . S
C1319 C1318 1.385 . S
C1320 C1318 1.478 . S
C1320 C1322 1.381 . S
C1320 C1326 1.383 . S
C1321 C1317 1.495 . S
C1321 H1327 0.959 . S
C1321 H1328 0.961 . S
C1321 H1329 0.960 . S
C1322 C1320 1.381 . S
C1322 C1323 1.394 . S
C1322 H1330 0.930 . S
C1323 C1322 1.394 . S
C1323 C1324 1.383 . S
C1323 H1331 0.929 . S
C1324 C1323 1.383 . S
C1324 C1325 1.377 . S
C1325 H1309 0.930 . S
C1325 C1324 1.377 . S
C1325 C1326 1.379 . S
C1326 H1310 0.931 . S
C1326 C1320 1.383 . S
C1326 C1325 1.379 . S
H1327 C1321 0.959 . S
H1328 C1321 0.961 . S
H1329 C1321 0.960 . S
H1330 C1322 0.930 . S
H1331 C1323 0.929 . S
H1332 C1340 0.929 . S
H1333 C1342 0.930 . S
H1334 C1344 0.930 . S
H1335 C1347 0.929 . S
H1336 C1350 0.930 . S
H1337 C1352 0.960 . S
H1338 C1352 0.960 . S
H1339 C1352 0.960 . S
C1340 H1332 0.929 . S
C1340 C1341 1.377 . S
C1340 C1342 1.384 . S
C1341 C1340 1.377 . S
C1341 C1347 1.390 . S
C1342 H1333 0.930 . S
C1342 C1340 1.384 . S
C1342 C1343 1.372 . S
C1343 C1342 1.372 . S
C1343 C1344 1.400 . S
C1343 C1348 1.490 . S
C1344 H1334 0.930 . S
C1344 C1343 1.400 . S
C1344 C1347 1.386 . S
H1345 C1361 0.930 . S
H1346 C1362 0.931 . S
C1347 H1335 0.929 . S
C1347 C1341 1.390 . S
C1347 C1344 1.386 . S
C1348 C1343 1.490 . S
C1348 C1350 1.395 . S
C1348 C1351 1.403 . S
H1349 C1355 0.930 . S
C1350 H1336 0.930 . S
C1350 C1348 1.395 . S
C1350 C1353 1.403 . S
C1351 C1348 1.403 . S
C1351 C1352 1.524 . S
C1351 C1355 1.400 . S
C1352 H1337 0.960 . S
C1352 H1338 0.960 . S
C1352 H1339 0.960 . S
C1352 C1351 1.524 . S
C1353 C1350 1.403 . S
C1353 C1354 1.392 . S
C1353 C1357 1.495 . S
C1354 C1353 1.392 . S
C1354 C1355 1.385 . S
C1354 C1356 1.478 . S
C1355 H1349 0.930 . S
C1355 C1351 1.400 . S
C1355 C1354 1.385 . S
C1356 C1354 1.478 . S
C1356 C1358 1.381 . S
C1356 C1362 1.383 . S
C1357 C1353 1.495 . S
C1357 H1363 0.959 . S
C1357 H1364 0.961 . S
C1357 H1365 0.960 . S
C1358 C1356 1.381 . S
C1358 C1359 1.394 . S
C1358 H1366 0.930 . S
C1359 C1358 1.394 . S
C1359 C1360 1.383 . S
C1359 H1367 0.929 . S
C1360 C1359 1.383 . S
C1360 C1361 1.377 . S
C1361 H1345 0.930 . S
C1361 C1360 1.377 . S
C1361 C1362 1.379 . S
C1362 H1346 0.931 . S
C1362 C1356 1.383 . S
C1362 C1361 1.379 . S
H1363 C1357 0.959 . S
H1364 C1357 0.961 . S
H1365 C1357 0.960 . S
H1366 C1358 0.930 . S
H1367 C1359 0.929 . S
H1368 C1376 0.929 . S
H1369 C1378 0.930 . S
H1370 C1380 0.930 . S
H1371 C1383 0.929 . S
H1372 C1386 0.930 . S
H1373 C1388 0.960 . S
H1374 C1388 0.960 . S
H1375 C1388 0.960 . S
C1376 H1368 0.929 . S
C1376 C1377 1.377 . S
C1376 C1378 1.384 . S
C1377 C1376 1.377 . S
C1377 C1383 1.390 . S
C1378 H1369 0.930 . S
C1378 C1376 1.384 . S
C1378 C1379 1.372 . S
C1379 C1378 1.372 . S
C1379 C1380 1.400 . S
C1379 C1384 1.490 . S
C1380 H1370 0.930 . S
C1380 C1379 1.400 . S
C1380 C1383 1.386 . S
H1381 C1397 0.930 . S
H1382 C1398 0.931 . S
C1383 H1371 0.929 . S
C1383 C1377 1.390 . S
C1383 C1380 1.386 . S
C1384 C1379 1.490 . S
C1384 C1386 1.395 . S
C1384 C1387 1.403 . S
H1385 C1391 0.930 . S
C1386 H1372 0.930 . S
C1386 C1384 1.395 . S
C1386 C1389 1.403 . S
C1387 C1384 1.403 . S
C1387 C1388 1.524 . S
C1387 C1391 1.400 . S
C1388 H1373 0.960 . S
C1388 H1374 0.960 . S
C1388 H1375 0.960 . S
C1388 C1387 1.524 . S
C1389 C1386 1.403 . S
C1389 C1390 1.392 . S
C1389 C1393 1.495 . S
C1390 C1389 1.392 . S
C1390 C1391 1.385 . S
C1390 C1392 1.478 . S
C1391 H1385 0.930 . S
C1391 C1387 1.400 . S
C1391 C1390 1.385 . S
C1392 C1390 1.478 . S
C1392 C1394 1.381 . S
C1392 C1398 1.383 . S
C1393 C1389 1.495 . S
C1393 H1399 0.959 1_655 S
C1393 H1400 0.961 . S
C1393 H1401 0.960 . S
C1394 C1392 1.381 . S
C1394 C1395 1.394 . S
C1394 H1402 0.930 . S
C1395 C1394 1.394 . S
C1395 C1396 1.383 . S
C1395 H1403 0.929 . S
C1396 C1395 1.383 . S
C1396 C1397 1.377 . S
C1397 H1381 0.930 . S
C1397 C1396 1.377 . S
C1397 C1398 1.379 . S
C1398 H1382 0.931 . S
C1398 C1392 1.383 . S
C1398 C1397 1.379 . S
H1399 C1393 0.959 1_455 S
H1400 C1393 0.961 . S
H1401 C1393 0.960 . S
H1402 C1394 0.930 . S
H1403 C1395 0.929 . S
H1404 C1412 0.929 . S
H1405 C1414 0.930 . S
H1406 C1416 0.930 . S
H1407 C1419 0.929 . S
H1408 C1422 0.930 . S
H1409 C1424 0.960 . S
H1410 C1424 0.960 . S
H1411 C1424 0.960 . S
C1412 H1404 0.929 . S
C1412 C1413 1.377 . S
C1412 C1414 1.384 . S
C1413 C1412 1.377 . S
C1413 C1419 1.390 . S
C1414 H1405 0.930 . S
C1414 C1412 1.384 . S
C1414 C1415 1.372 . S
C1415 C1414 1.372 . S
C1415 C1416 1.400 . S
C1415 C1420 1.490 . S
C1416 H1406 0.930 . S
C1416 C1415 1.400 . S
C1416 C1419 1.386 . S
H1417 C1433 0.930 . S
H1418 C1434 0.931 . S
C1419 H1407 0.929 . S
C1419 C1413 1.390 . S
C1419 C1416 1.386 . S
C1420 C1415 1.490 . S
C1420 C1422 1.395 . S
C1420 C1423 1.403 . S
H1421 C1427 0.930 . S
C1422 H1408 0.930 . S
C1422 C1420 1.395 . S
C1422 C1425 1.403 . S
C1423 C1420 1.403 . S
C1423 C1424 1.524 . S
C1423 C1427 1.400 . S
C1424 H1409 0.960 . S
C1424 H1410 0.960 . S
C1424 H1411 0.960 . S
C1424 C1423 1.524 . S
C1425 C1422 1.403 . S
C1425 C1426 1.392 . S
C1425 C1429 1.495 . S
C1426 C1425 1.392 . S
C1426 C1427 1.385 . S
C1426 C1428 1.478 . S
C1427 H1421 0.930 . S
C1427 C1423 1.400 . S
C1427 C1426 1.385 . S
C1428 C1426 1.478 . S
C1428 C1430 1.381 . S
C1428 C1434 1.383 . S
C1429 C1425 1.495 . S
C1429 H1435 0.959 . S
C1429 H1436 0.961 . S
C1429 H1437 0.960 . S
C1430 C1428 1.381 . S
C1430 C1431 1.394 . S
C1430 H1438 0.930 . S
C1431 C1430 1.394 . S
C1431 C1432 1.383 . S
C1431 H1439 0.929 . S
C1432 C1431 1.383 . S
C1432 C1433 1.377 . S
C1433 H1417 0.930 . S
C1433 C1432 1.377 . S
C1433 C1434 1.379 . S
C1434 H1418 0.931 . S
C1434 C1428 1.383 . S
C1434 C1433 1.379 . S
H1435 C1429 0.959 . S
H1436 C1429 0.961 . S
H1437 C1429 0.960 . S
H1438 C1430 0.930 . S
H1439 C1431 0.929 . S
H1440 C1448 0.929 . S
H1441 C1450 0.930 . S
H1442 C1452 0.930 . S
H1443 C1455 0.929 . S
H1444 C1458 0.930 . S
H1445 C1460 0.960 . S
H1446 C1460 0.960 . S
H1447 C1460 0.960 . S
C1448 H1440 0.929 . S
C1448 C1449 1.377 . S
C1448 C1450 1.384 . S
C1449 C1448 1.377 . S
C1449 C1455 1.390 . S
C1450 H1441 0.930 . S
C1450 C1448 1.384 . S
C1450 C1451 1.372 . S
C1451 C1450 1.372 . S
C1451 C1452 1.400 . S
C1451 C1456 1.490 . S
C1452 H1442 0.930 . S
C1452 C1451 1.400 . S
C1452 C1455 1.386 . S
H1453 C1469 0.930 . S
H1454 C1470 0.931 . S
C1455 H1443 0.929 . S
C1455 C1449 1.390 . S
C1455 C1452 1.386 . S
C1456 C1451 1.490 . S
C1456 C1458 1.395 . S
C1456 C1459 1.403 . S
H1457 C1463 0.930 . S
C1458 H1444 0.930 . S
C1458 C1456 1.395 . S
C1458 C1461 1.403 . S
C1459 C1456 1.403 . S
C1459 C1460 1.524 . S
C1459 C1463 1.400 . S
C1460 H1445 0.960 . S
C1460 H1446 0.960 . S
C1460 H1447 0.960 . S
C1460 C1459 1.524 . S
C1461 C1458 1.403 . S
C1461 C1462 1.392 . S
C1461 C1465 1.495 . S
C1462 C1461 1.392 . S
C1462 C1463 1.385 . S
C1462 C1464 1.478 . S
C1463 H1457 0.930 . S
C1463 C1459 1.400 . S
C1463 C1462 1.385 . S
C1464 C1462 1.478 . S
C1464 C1466 1.381 . S
C1464 C1470 1.383 . S
C1465 C1461 1.495 . S
C1465 H1471 0.959 . S
C1465 H1472 0.961 . S
C1465 H1473 0.960 . S
C1466 C1464 1.381 . S
C1466 C1467 1.394 . S
C1466 H1474 0.930 . S
C1467 C1466 1.394 . S
C1467 C1468 1.383 . S
C1467 H1475 0.929 . S
C1468 C1467 1.383 . S
C1468 C1469 1.377 . S
C1469 H1453 0.930 . S
C1469 C1468 1.377 . S
C1469 C1470 1.379 . S
C1470 H1454 0.931 . S
C1470 C1464 1.383 . S
C1470 C1469 1.379 . S
H1471 C1465 0.959 . S
H1472 C1465 0.961 . S
H1473 C1465 0.960 . S
H1474 C1466 0.930 . S
H1475 C1467 0.929 . S
H1476 C1484 0.929 . S
H1477 C1486 0.930 . S
H1478 C1488 0.930 . S
H1479 C1491 0.929 . S
H1480 C1494 0.930 . S
H1481 C1496 0.960 . S
H1482 C1496 0.960 . S
H1483 C1496 0.960 . S
C1484 H1476 0.929 . S
C1484 C1485 1.377 . S
C1484 C1486 1.384 . S
C1485 C1484 1.377 . S
C1485 C1491 1.390 . S
C1486 H1477 0.930 . S
C1486 C1484 1.384 . S
C1486 C1487 1.372 . S
C1487 C1486 1.372 . S
C1487 C1488 1.400 . S
C1487 C1492 1.490 . S
C1488 H1478 0.930 . S
C1488 C1487 1.400 . S
C1488 C1491 1.386 . S
H1489 C1505 0.930 . S
H1490 C1506 0.931 . S
C1491 H1479 0.929 . S
C1491 C1485 1.390 . S
C1491 C1488 1.386 . S
C1492 C1487 1.490 . S
C1492 C1494 1.395 . S
C1492 C1495 1.403 . S
H1493 C1499 0.930 . S
C1494 H1480 0.930 . S
C1494 C1492 1.395 . S
C1494 C1497 1.403 . S
C1495 C1492 1.403 . S
C1495 C1496 1.524 . S
C1495 C1499 1.400 . S
C1496 H1481 0.960 . S
C1496 H1482 0.960 . S
C1496 H1483 0.960 . S
C1496 C1495 1.524 . S
C1497 C1494 1.403 . S
C1497 C1498 1.392 . S
C1497 C1501 1.495 . S
C1498 C1497 1.392 . S
C1498 C1499 1.385 . S
C1498 C1500 1.478 . S
C1499 H1493 0.930 . S
C1499 C1495 1.400 . S
C1499 C1498 1.385 . S
C1500 C1498 1.478 . S
C1500 C1502 1.381 . S
C1500 C1506 1.383 . S
C1501 C1497 1.495 . S
C1501 H1507 0.959 . S
C1501 H1508 0.961 . S
C1501 H1509 0.960 . S
C1502 C1500 1.381 . S
C1502 C1503 1.394 . S
C1502 H1510 0.930 . S
C1503 C1502 1.394 . S
C1503 C1504 1.383 . S
C1503 H1511 0.929 . S
C1504 C1503 1.383 . S
C1504 C1505 1.377 . S
C1505 H1489 0.930 . S
C1505 C1504 1.377 . S
C1505 C1506 1.379 . S
C1506 H1490 0.931 . S
C1506 C1500 1.383 . S
C1506 C1505 1.379 . S
H1507 C1501 0.959 . S
H1508 C1501 0.961 . S
H1509 C1501 0.960 . S
H1510 C1502 0.930 . S
H1511 C1503 0.929 . S
H1512 C1520 0.929 . S
H1513 C1522 0.930 . S
H1514 C1524 0.930 . S
H1515 C1527 0.929 . S
H1516 C1530 0.930 . S
H1517 C1532 0.960 . S
H1518 C1532 0.960 . S
H1519 C1532 0.960 . S
C1520 H1512 0.929 . S
C1520 C1521 1.377 . S
C1520 C1522 1.384 . S
C1521 C1520 1.377 . S
C1521 C1527 1.390 . S
C1522 H1513 0.930 . S
C1522 C1520 1.384 . S
C1522 C1523 1.372 . S
C1523 C1522 1.372 . S
C1523 C1524 1.400 . S
C1523 C1528 1.490 . S
C1524 H1514 0.930 . S
C1524 C1523 1.400 . S
C1524 C1527 1.386 . S
H1525 C1541 0.930 . S
H1526 C1542 0.931 . S
C1527 H1515 0.929 . S
C1527 C1521 1.390 . S
C1527 C1524 1.386 . S
C1528 C1523 1.490 . S
C1528 C1530 1.395 . S
C1528 C1531 1.403 . S
H1529 C1535 0.930 . S
C1530 H1516 0.930 . S
C1530 C1528 1.395 . S
C1530 C1533 1.403 . S
C1531 C1528 1.403 . S
C1531 C1532 1.524 . S
C1531 C1535 1.400 . S
C1532 H1517 0.960 . S
C1532 H1518 0.960 . S
C1532 H1519 0.960 . S
C1532 C1531 1.524 . S
C1533 C1530 1.403 . S
C1533 C1534 1.392 . S
C1533 C1537 1.495 . S
C1534 C1533 1.392 . S
C1534 C1535 1.385 . S
C1534 C1536 1.478 . S
C1535 H1529 0.930 . S
C1535 C1531 1.400 . S
C1535 C1534 1.385 . S
C1536 C1534 1.478 . S
C1536 C1538 1.381 . S
C1536 C1542 1.383 . S
C1537 C1533 1.495 . S
C1537 H1543 0.959 . S
C1537 H1544 0.961 . S
C1537 H1545 0.960 . S
C1538 C1536 1.381 . S
C1538 C1539 1.394 . S
C1538 H1546 0.930 . S
C1539 C1538 1.394 . S
C1539 C1540 1.383 . S
C1539 H1547 0.929 . S
C1540 C1539 1.383 . S
C1540 C1541 1.377 . S
C1541 H1525 0.930 . S
C1541 C1540 1.377 . S
C1541 C1542 1.379 . S
C1542 H1526 0.931 . S
C1542 C1536 1.383 . S
C1542 C1541 1.379 . S
H1543 C1537 0.959 . S
H1544 C1537 0.961 . S
H1545 C1537 0.960 . S
H1546 C1538 0.930 . S
H1547 C1539 0.929 . S
H1548 C1556 0.929 . S
H1549 C1558 0.930 . S
H1550 C1560 0.930 . S
H1551 C1563 0.929 . S
H1552 C1566 0.930 . S
H1553 C1568 0.960 . S
H1554 C1568 0.960 . S
H1555 C1568 0.960 . S
C1556 H1548 0.929 . S
C1556 C1557 1.377 . S
C1556 C1558 1.384 . S
C1557 C1556 1.377 . S
C1557 C1563 1.390 . S
C1558 H1549 0.930 . S
C1558 C1556 1.384 . S
C1558 C1559 1.372 . S
C1559 C1558 1.372 . S
C1559 C1560 1.400 . S
C1559 C1564 1.490 . S
C1560 H1550 0.930 . S
C1560 C1559 1.400 . S
C1560 C1563 1.386 . S
H1561 C1577 0.930 . S
H1562 C1578 0.931 . S
C1563 H1551 0.929 . S
C1563 C1557 1.390 . S
C1563 C1560 1.386 . S
C1564 C1559 1.490 . S
C1564 C1566 1.395 . S
C1564 C1567 1.403 . S
H1565 C1571 0.930 . S
C1566 H1552 0.930 . S
C1566 C1564 1.395 . S
C1566 C1569 1.403 . S
C1567 C1564 1.403 . S
C1567 C1568 1.524 . S
C1567 C1571 1.400 . S
C1568 H1553 0.960 . S
C1568 H1554 0.960 . S
C1568 H1555 0.960 . S
C1568 C1567 1.524 . S
C1569 C1566 1.403 . S
C1569 C1570 1.392 . S
C1569 C1573 1.495 . S
C1570 C1569 1.392 . S
C1570 C1571 1.385 . S
C1570 C1572 1.478 . S
C1571 H1565 0.930 . S
C1571 C1567 1.400 . S
C1571 C1570 1.385 . S
C1572 C1570 1.478 . S
C1572 C1574 1.381 . S
C1572 C1578 1.383 . S
C1573 C1569 1.495 . S
C1573 H1579 0.959 . S
C1573 H1580 0.961 . S
C1573 H1581 0.960 . S
C1574 C1572 1.381 . S
C1574 C1575 1.394 . S
C1574 H1582 0.930 . S
C1575 C1574 1.394 . S
C1575 C1576 1.383 . S
C1575 H1583 0.929 . S
C1576 C1575 1.383 . S
C1576 C1577 1.377 . S
C1577 H1561 0.930 . S
C1577 C1576 1.377 . S
C1577 C1578 1.379 . S
C1578 H1562 0.931 . S
C1578 C1572 1.383 . S
C1578 C1577 1.379 . S
H1579 C1573 0.959 . S
H1580 C1573 0.961 . S
H1581 C1573 0.960 . S
H1582 C1574 0.930 . S
H1583 C1575 0.929 . S
H1584 C1592 0.929 . S
H1585 C1594 0.930 . S
H1586 C1596 0.930 . S
H1587 C1599 0.929 . S
H1588 C1602 0.930 . S
H1589 C1604 0.960 . S
H1590 C1604 0.960 . S
H1591 C1604 0.960 . S
C1592 H1584 0.929 . S
C1592 C1593 1.377 . S
C1592 C1594 1.384 . S
C1593 C1592 1.377 . S
C1593 C1599 1.390 . S
C1594 H1585 0.930 . S
C1594 C1592 1.384 . S
C1594 C1595 1.372 . S
C1595 C1594 1.372 . S
C1595 C1596 1.400 . S
C1595 C1600 1.490 . S
C1596 H1586 0.930 . S
C1596 C1595 1.400 . S
C1596 C1599 1.386 . S
H1597 C1613 0.930 . S
H1598 C1614 0.931 . S
C1599 H1587 0.929 . S
C1599 C1593 1.390 . S
C1599 C1596 1.386 . S
C1600 C1595 1.490 . S
C1600 C1602 1.395 . S
C1600 C1603 1.403 . S
H1601 C1607 0.930 . S
C1602 H1588 0.930 . S
C1602 C1600 1.395 . S
C1602 C1605 1.403 . S
C1603 C1600 1.403 . S
C1603 C1604 1.524 . S
C1603 C1607 1.400 . S
C1604 H1589 0.960 . S
C1604 H1590 0.960 . S
C1604 H1591 0.960 . S
C1604 C1603 1.524 . S
C1605 C1602 1.403 . S
C1605 C1606 1.392 . S
C1605 C1609 1.495 . S
C1606 C1605 1.392 . S
C1606 C1607 1.385 . S
C1606 C1608 1.478 . S
C1607 H1601 0.930 . S
C1607 C1603 1.400 . S
C1607 C1606 1.385 . S
C1608 C1606 1.478 . S
C1608 C1610 1.381 . S
C1608 C1614 1.383 . S
C1609 C1605 1.495 . S
C1609 H1615 0.959 . S
C1609 H1616 0.961 . S
C1609 H1617 0.960 . S
C1610 C1608 1.381 . S
C1610 C1611 1.394 . S
C1610 H1618 0.930 . S
C1611 C1610 1.394 . S
C1611 C1612 1.383 . S
C1611 H1619 0.929 . S
C1612 C1611 1.383 . S
C1612 C1613 1.377 . S
C1613 H1597 0.930 . S
C1613 C1612 1.377 . S
C1613 C1614 1.379 . S
C1614 H1598 0.931 . S
C1614 C1608 1.383 . S
C1614 C1613 1.379 . S
H1615 C1609 0.959 . S
H1616 C1609 0.961 . S
H1617 C1609 0.960 . S
H1618 C1610 0.930 . S
H1619 C1611 0.929 . S
H1620 C1628 0.929 . S
H1621 C1630 0.930 . S
H1622 C1632 0.930 . S
H1623 C1635 0.929 . S
H1624 C1638 0.930 . S
H1625 C1640 0.960 . S
H1626 C1640 0.960 . S
H1627 C1640 0.960 . S
C1628 H1620 0.929 . S
C1628 C1629 1.377 . S
C1628 C1630 1.384 . S
C1629 C1628 1.377 . S
C1629 C1635 1.390 . S
C1630 H1621 0.930 . S
C1630 C1628 1.384 . S
C1630 C1631 1.372 . S
C1631 C1630 1.372 . S
C1631 C1632 1.400 . S
C1631 C1636 1.490 . S
C1632 H1622 0.930 . S
C1632 C1631 1.400 . S
C1632 C1635 1.386 . S
H1633 C1649 0.930 . S
H1634 C1650 0.931 . S
C1635 H1623 0.929 . S
C1635 C1629 1.390 . S
C1635 C1632 1.386 . S
C1636 C1631 1.490 . S
C1636 C1638 1.395 . S
C1636 C1639 1.403 . S
H1637 C1643 0.930 . S
C1638 H1624 0.930 . S
C1638 C1636 1.395 . S
C1638 C1641 1.403 . S
C1639 C1636 1.403 . S
C1639 C1640 1.524 . S
C1639 C1643 1.400 . S
C1640 H1625 0.960 . S
C1640 H1626 0.960 . S
C1640 H1627 0.960 . S
C1640 C1639 1.524 . S
C1641 C1638 1.403 . S
C1641 C1642 1.392 . S
C1641 C1645 1.495 . S
C1642 C1641 1.392 . S
C1642 C1643 1.385 . S
C1642 C1644 1.478 . S
C1643 H1637 0.930 . S
C1643 C1639 1.400 . S
C1643 C1642 1.385 . S
C1644 C1642 1.478 . S
C1644 C1646 1.381 . S
C1644 C1650 1.383 . S
C1645 C1641 1.495 . S
C1645 H1651 0.959 . S
C1645 H1652 0.961 . S
C1645 H1653 0.960 . S
C1646 C1644 1.381 . S
C1646 C1647 1.394 . S
C1646 H1654 0.930 . S
C1647 C1646 1.394 . S
C1647 C1648 1.383 . S
C1647 H1655 0.929 . S
C1648 C1647 1.383 . S
C1648 C1649 1.377 . S
C1649 H1633 0.930 . S
C1649 C1648 1.377 . S
C1649 C1650 1.379 . S
C1650 H1634 0.931 . S
C1650 C1644 1.383 . S
C1650 C1649 1.379 . S
H1651 C1645 0.959 . S
H1652 C1645 0.961 . S
H1653 C1645 0.960 . S
H1654 C1646 0.930 . S
H1655 C1647 0.929 . S
H1656 C1664 0.929 . S
H1657 C1666 0.930 . S
H1658 C1668 0.930 . S
H1659 C1671 0.929 . S
H1660 C1674 0.930 . S
H1661 C1676 0.960 . S
H1662 C1676 0.960 . S
H1663 C1676 0.960 . S
C1664 H1656 0.929 . S
C1664 C1665 1.377 . S
C1664 C1666 1.384 . S
C1665 C1664 1.377 . S
C1665 C1671 1.390 . S
C1666 H1657 0.930 . S
C1666 C1664 1.384 . S
C1666 C1667 1.372 . S
C1667 C1666 1.372 . S
C1667 C1668 1.400 . S
C1667 C1672 1.490 . S
C1668 H1658 0.930 . S
C1668 C1667 1.400 . S
C1668 C1671 1.386 . S
H1669 C1685 0.930 . S
H1670 C1686 0.931 . S
C1671 H1659 0.929 . S
C1671 C1665 1.390 . S
C1671 C1668 1.386 . S
C1672 C1667 1.490 . S
C1672 C1674 1.395 . S
C1672 C1675 1.403 . S
H1673 C1679 0.930 . S
C1674 H1660 0.930 . S
C1674 C1672 1.395 . S
C1674 C1677 1.403 . S
C1675 C1672 1.403 . S
C1675 C1676 1.524 . S
C1675 C1679 1.400 . S
C1676 H1661 0.960 . S
C1676 H1662 0.960 . S
C1676 H1663 0.960 . S
C1676 C1675 1.524 . S
C1677 C1674 1.403 . S
C1677 C1678 1.392 . S
C1677 C1681 1.495 . S
C1678 C1677 1.392 . S
C1678 C1679 1.385 . S
C1678 C1680 1.478 . S
C1679 H1673 0.930 . S
C1679 C1675 1.400 . S
C1679 C1678 1.385 . S
C1680 C1678 1.478 . S
C1680 C1682 1.381 . S
C1680 C1686 1.383 . S
C1681 C1677 1.495 . S
C1681 H1687 0.959 . S
C1681 H1688 0.961 . S
C1681 H1689 0.960 . S
C1682 C1680 1.381 . S
C1682 C1683 1.394 . S
C1682 H1690 0.930 . S
C1683 C1682 1.394 . S
C1683 C1684 1.383 . S
C1683 H1691 0.929 . S
C1684 C1683 1.383 . S
C1684 C1685 1.377 . S
C1685 H1669 0.930 . S
C1685 C1684 1.377 . S
C1685 C1686 1.379 . S
C1686 H1670 0.931 . S
C1686 C1680 1.383 . S
C1686 C1685 1.379 . S
H1687 C1681 0.959 . S
H1688 C1681 0.961 . S
H1689 C1681 0.960 . S
H1690 C1682 0.930 . S
H1691 C1683 0.929 . S
H1692 C1700 0.929 . S
H1693 C1702 0.930 . S
H1694 C1704 0.930 . S
H1695 C1707 0.929 . S
H1696 C1710 0.930 . S
H1697 C1712 0.960 . S
H1698 C1712 0.960 . S
H1699 C1712 0.960 . S
C1700 H1692 0.929 . S
C1700 C1701 1.377 . S
C1700 C1702 1.384 . S
C1701 C1700 1.377 . S
C1701 C1707 1.390 . S
C1702 H1693 0.930 . S
C1702 C1700 1.384 . S
C1702 C1703 1.372 . S
C1703 C1702 1.372 . S
C1703 C1704 1.400 . S
C1703 C1708 1.490 . S
C1704 H1694 0.930 . S
C1704 C1703 1.400 . S
C1704 C1707 1.386 . S
H1705 C1721 0.930 . S
H1706 C1722 0.931 . S
C1707 H1695 0.929 . S
C1707 C1701 1.390 . S
C1707 C1704 1.386 . S
C1708 C1703 1.490 . S
C1708 C1710 1.395 . S
C1708 C1711 1.403 . S
H1709 C1715 0.930 . S
C1710 H1696 0.930 . S
C1710 C1708 1.395 . S
C1710 C1713 1.403 . S
C1711 C1708 1.403 . S
C1711 C1712 1.524 . S
C1711 C1715 1.400 . S
C1712 H1697 0.960 . S
C1712 H1698 0.960 . S
C1712 H1699 0.960 . S
C1712 C1711 1.524 . S
C1713 C1710 1.403 . S
C1713 C1714 1.392 . S
C1713 C1717 1.495 . S
C1714 C1713 1.392 . S
C1714 C1715 1.385 . S
C1714 C1716 1.478 . S
C1715 H1709 0.930 . S
C1715 C1711 1.400 . S
C1715 C1714 1.385 . S
C1716 C1714 1.478 . S
C1716 C1718 1.381 . S
C1716 C1722 1.383 . S
C1717 C1713 1.495 . S
C1717 H1723 0.959 . S
C1717 H1724 0.961 . S
C1717 H1725 0.960 . S
C1718 C1716 1.381 . S
C1718 C1719 1.394 . S
C1718 H1726 0.930 . S
C1719 C1718 1.394 . S
C1719 C1720 1.383 . S
C1719 H1727 0.929 . S
C1720 C1719 1.383 . S
C1720 C1721 1.377 . S
C1721 H1705 0.930 . S
C1721 C1720 1.377 . S
C1721 C1722 1.379 . S
C1722 H1706 0.931 . S
C1722 C1716 1.383 . S
C1722 C1721 1.379 . S
H1723 C1717 0.959 . S
H1724 C1717 0.961 . S
H1725 C1717 0.960 . S
H1726 C1718 0.930 . S
H1727 C1719 0.929 . S
H1728 C1736 0.929 . S
H1729 C1738 0.930 . S
H1730 C1740 0.930 . S
H1731 C1743 0.929 . S
H1732 C1746 0.936 . S
H1733 C1748 0.960 . S
H1734 C1748 0.960 . S
H1735 C1748 0.960 . S
C1736 H1728 0.929 . S
C1736 C1737 1.377 . S
C1736 C1738 1.384 . S
C1737 C1736 1.377 . S
C1737 C1743 1.390 . S
C1738 H1729 0.930 . S
C1738 C1736 1.384 . S
C1738 C1739 1.372 . S
C1739 C1738 1.372 . S
C1739 C1740 1.400 . S
C1739 C1744 1.490 . S
C1740 H1730 0.930 . S
C1740 C1739 1.400 . S
C1740 C1743 1.386 . S
H1741 C1757 0.930 . S
H1742 C1758 0.931 . S
C1743 H1731 0.929 . S
C1743 C1737 1.390 . S
C1743 C1740 1.386 . S
C1744 C1739 1.490 . S
C1744 C1746 1.402 . S
C1744 C1747 1.403 . S
H1745 C1751 0.930 . S
C1746 H1732 0.936 . S
C1746 C1744 1.402 . S
C1746 C1749 1.390 1_565 S
C1747 C1744 1.403 . S
C1747 C1748 1.524 . S
C1747 C1751 1.400 1_565 S
C1748 H1733 0.960 . S
C1748 H1734 0.960 . S
C1748 H1735 0.960 . S
C1748 C1747 1.524 . S
C1749 C1746 1.390 1_545 S
C1749 C1750 1.392 . S
C1749 C1753 1.495 . S
C1750 C1749 1.392 . S
C1750 C1751 1.385 . S
C1750 C1752 1.478 . S
C1751 H1745 0.930 . S
C1751 C1747 1.400 1_545 S
C1751 C1750 1.385 . S
C1752 C1750 1.478 . S
C1752 C1754 1.381 . S
C1752 C1758 1.383 . S
C1753 C1749 1.495 . S
C1753 H1759 0.959 . S
C1753 H1760 0.961 . S
C1753 H1761 0.960 . S
C1754 C1752 1.381 . S
C1754 C1755 1.394 . S
C1754 H1762 0.930 . S
C1755 C1754 1.394 . S
C1755 C1756 1.383 . S
C1755 H1763 0.929 . S
C1756 C1755 1.383 . S
C1756 C1757 1.377 . S
C1757 H1741 0.930 . S
C1757 C1756 1.377 . S
C1757 C1758 1.379 . S
C1758 H1742 0.931 . S
C1758 C1752 1.383 . S
C1758 C1757 1.379 . S
H1759 C1753 0.959 . S
H1760 C1753 0.961 . S
H1761 C1753 0.960 . S
H1762 C1754 0.930 . S
H1763 C1755 0.929 . S
H1764 C1772 0.929 . S
H1765 C1774 0.930 1_455 S
H1766 C1776 0.930 . S
H1767 C1779 0.929 . S
H1768 C1782 0.930 . S
H1769 C1784 0.960 . S
H1770 C1784 0.960 . S
H1771 C1784 0.960 . S
C1772 H1764 0.929 . S
C1772 C1773 1.377 . S
C1772 C1774 1.384 . S
C1773 C1772 1.377 . S
C1773 C1779 1.390 . S
C1774 H1765 0.930 1_655 S
C1774 C1772 1.384 . S
C1774 C1775 1.372 . S
C1775 C1774 1.372 . S
C1775 C1776 1.400 . S
C1775 C1780 1.490 . S
C1776 H1766 0.930 . S
C1776 C1775 1.400 . S
C1776 C1779 1.386 . S
H1777 C1793 0.930 . S
H1778 C1794 0.931 1_655 S
C1779 H1767 0.929 . S
C1779 C1773 1.390 . S
C1779 C1776 1.386 . S
C1780 C1775 1.490 . S
C1780 C1782 1.395 1_655 S
C1780 C1783 1.403 . S
H1781 C1787 0.930 . S
C1782 H1768 0.930 . S
C1782 C1780 1.395 1_455 S
C1782 C1785 1.403 . S
C1783 C1780 1.403 . S
C1783 C1784 1.524 . S
C1783 C1787 1.400 . S
C1784 H1769 0.960 . S
C1784 H1770 0.960 . S
C1784 H1771 0.960 . S
C1784 C1783 1.524 . S
C1785 C1782 1.403 . S
C1785 C1786 1.392 . S
C1785 C1789 1.495 . S
C1786 C1785 1.392 . S
C1786 C1787 1.385 1_455 S
C1786 C1788 1.478 . S
C1787 H1781 0.930 . S
C1787 C1783 1.400 . S
C1787 C1786 1.385 1_655 S
C1788 C1786 1.478 . S
C1788 C1790 1.381 . S
C1788 C1794 1.383 . S
C1789 C1785 1.495 . S
C1789 H1795 0.959 . S
C1789 H1796 0.961 . S
C1789 H1797 0.960 . S
C1790 C1788 1.381 . S
C1790 C1791 1.394 . S
C1790 H1798 0.930 . S
C1791 C1790 1.394 . S
C1791 C1792 1.383 . S
C1791 H1799 0.929 . S
C1792 C1791 1.383 . S
C1792 C1793 1.377 . S
C1793 H1777 0.930 . S
C1793 C1792 1.377 . S
C1793 C1794 1.379 . S
C1794 H1778 0.931 1_455 S
C1794 C1788 1.383 . S
C1794 C1793 1.379 . S
H1795 C1789 0.959 . S
H1796 C1789 0.961 . S
H1797 C1789 0.960 . S
H1798 C1790 0.930 . S
H1799 C1791 0.929 . S
H1800 C1808 0.929 . S
H1801 C1810 0.930 . S
H1802 C1812 0.930 . S
H1803 C1815 0.929 . S
H1804 C1818 0.930 . S
H1805 C1820 0.960 . S
H1806 C1820 0.960 . S
H1807 C1820 0.960 1_556 S
C1808 H1800 0.929 . S
C1808 C1809 1.377 1_554 S
C1808 C1810 1.384 . S
C1809 C1808 1.377 1_556 S
C1809 C1815 1.390 . S
C1810 H1801 0.930 . S
C1810 C1808 1.384 . S
C1810 C1811 1.394 . S
C1811 C1810 1.394 . S
C1811 C1812 1.372 1_554 S
C1811 C1816 1.496 . S
C1812 H1802 0.930 . S
C1812 C1811 1.372 1_556 S
C1812 C1815 1.386 . S
H1813 C1829 0.930 1_556 S
H1814 C1830 0.949 . S
C1815 H1803 0.929 . S
C1815 C1809 1.390 . S
C1815 C1812 1.386 . S
C1816 C1811 1.496 . S
C1816 C1818 1.395 . S
C1816 C1819 1.403 . S
H1817 C1823 0.930 . S
C1818 H1804 0.930 . S
C1818 C1816 1.395 . S
C1818 C1821 1.403 . S
C1819 C1816 1.403 . S
C1819 C1820 1.524 . S
C1819 C1823 1.400 . S
C1820 H1805 0.960 . S
C1820 H1806 0.960 . S
C1820 H1807 0.960 1_554 S
C1820 C1819 1.524 . S
C1821 C1818 1.403 . S
C1821 C1822 1.392 . S
C1821 C1825 1.495 . S
C1822 C1821 1.392 . S
C1822 C1823 1.385 . S
C1822 C1824 1.478 . S
C1823 H1817 0.930 . S
C1823 C1819 1.400 . S
C1823 C1822 1.385 . S
C1824 C1822 1.478 . S
C1824 C1826 1.381 . S
C1824 C1830 1.368 1_554 S
C1825 C1821 1.495 . S
C1825 H1831 0.959 . S
C1825 H1832 0.924 1_554 S
C1825 H1833 0.960 . S
C1826 C1824 1.381 . S
C1826 C1827 1.394 . S
C1826 H1834 0.930 . S
C1827 C1826 1.394 . S
C1827 C1828 1.383 . S
C1827 H1835 0.929 . S
C1828 C1827 1.383 . S
C1828 C1829 1.377 . S
C1829 H1813 0.930 1_554 S
C1829 C1828 1.377 . S
C1829 C1830 1.376 1_554 S
C1830 H1814 0.949 . S
C1830 C1824 1.368 1_556 S
C1830 C1829 1.376 1_556 S
H1831 C1825 0.959 . S
H1832 C1825 0.924 1_556 S
H1833 C1825 0.960 . S
H1834 C1826 0.930 . S
H1835 C1827 0.929 . S
H1836 C1844 0.929 . S
H1837 C1846 0.930 1_655 S
H1838 C1848 0.930 . S
H1839 C1851 0.929 . S
H1840 C1854 0.930 . S
H1841 C1856 0.960 . S
H1842 C1856 0.960 . S
H1843 C1856 0.960 . S
C1844 H1836 0.929 . S
C1844 C1845 1.377 1_554 S
C1844 C1846 1.384 . S
C1845 C1844 1.377 1_556 S
C1845 C1851 1.390 . S
C1846 H1837 0.930 1_455 S
C1846 C1844 1.384 . S
C1846 C1847 1.374 . S
C1847 C1846 1.374 . S
C1847 C1848 1.396 1_554 S
C1847 C1852 1.491 . S
C1848 H1838 0.930 . S
C1848 C1847 1.396 1_556 S
C1848 C1851 1.386 . S
H1849 C1865 0.930 . S
H1850 C1866 0.931 1_456 S
C1851 H1839 0.929 . S
C1851 C1845 1.390 . S
C1851 C1848 1.386 . S
C1852 C1847 1.491 . S
C1852 C1854 1.395 1_454 S
C1852 C1855 1.403 . S
H1853 C1859 0.930 . S
C1854 H1840 0.930 . S
C1854 C1852 1.395 1_656 S
C1854 C1857 1.403 . S
C1855 C1852 1.403 . S
C1855 C1856 1.524 . S
C1855 C1859 1.400 1_545 S
C1856 H1841 0.960 . S
C1856 H1842 0.960 . S
C1856 H1843 0.960 . S
C1856 C1855 1.524 . S
C1857 C1854 1.403 . S
C1857 C1858 1.392 1_546 S
C1857 C1861 1.490 1_545 S
C1858 C1857 1.392 1_564 S
C1858 C1859 1.385 1_655 S
C1858 C1860 1.478 . S
C1859 H1853 0.930 . S
C1859 C1855 1.400 1_565 S
C1859 C1858 1.385 1_455 S
C1860 C1858 1.478 . S
C1860 C1862 1.381 . S
C1860 C1866 1.383 . S
C1861 C1857 1.490 1_565 S
C1861 H1867 0.938 1_565 S
C1861 H1868 0.982 . S
C1861 H1869 0.966 . S
C1862 C1860 1.381 . S
C1862 C1863 1.394 . S
C1862 H1870 0.930 . S
C1863 C1862 1.394 . S
C1863 C1864 1.383 . S
C1863 H1871 0.929 . S
C1864 C1863 1.383 . S
C1864 C1865 1.377 . S
C1865 H1849 0.930 . S
C1865 C1864 1.377 . S
C1865 C1866 1.379 . S
C1866 H1850 0.931 1_654 S
C1866 C1860 1.383 . S
C1866 C1865 1.379 . S
H1867 C1861 0.938 1_545 S
H1868 C1861 0.982 . S
H1869 C1861 0.966 . S
H1870 C1862 0.930 . S
H1871 C1863 0.929 . S
H1872 C1880 0.929 . S
H1873 C1882 0.930 . S
H1874 C1884 0.930 . S
H1875 C1887 0.929 . S
H1876 C1890 0.930 . S
H1877 C1892 0.960 . S
H1878 C1892 0.960 . S
H1879 C1892 0.960 . S
C1880 H1872 0.929 . S
C1880 C1881 1.377 . S
C1880 C1882 1.384 . S
C1881 C1880 1.377 . S
C1881 C1887 1.390 . S
C1882 H1873 0.930 . S
C1882 C1880 1.384 . S
C1882 C1883 1.372 . S
C1883 C1882 1.372 . S
C1883 C1884 1.400 . S
C1883 C1888 1.490 . S
C1884 H1874 0.930 . S
C1884 C1883 1.400 . S
C1884 C1887 1.386 . S
H1885 C1901 0.930 . S
H1886 C1902 0.931 . S
C1887 H1875 0.929 . S
C1887 C1881 1.390 . S
C1887 C1884 1.386 . S
C1888 C1883 1.490 . S
C1888 C1890 1.395 . S
C1888 C1891 1.403 . S
H1889 C1895 0.931 . S
C1890 H1876 0.930 . S
C1890 C1888 1.395 . S
C1890 C1893 1.403 1_545 S
C1891 C1888 1.403 . S
C1891 C1892 1.524 . S
C1891 C1895 1.398 1_545 S
C1892 H1877 0.960 . S
C1892 H1878 0.960 . S
C1892 H1879 0.960 . S
C1892 C1891 1.524 . S
C1893 C1890 1.403 1_565 S
C1893 C1894 1.392 . S
C1893 C1897 1.495 . S
C1894 C1893 1.392 . S
C1894 C1895 1.386 . S
C1894 C1896 1.478 . S
C1895 H1889 0.931 . S
C1895 C1891 1.398 1_565 S
C1895 C1894 1.386 . S
C1896 C1894 1.478 . S
C1896 C1898 1.381 . S
C1896 C1902 1.383 . S
C1897 C1893 1.495 . S
C1897 H1903 0.959 . S
C1897 H1904 0.961 . S
C1897 H1905 0.960 . S
C1898 C1896 1.381 . S
C1898 C1899 1.394 . S
C1898 H1906 0.930 . S
C1899 C1898 1.394 . S
C1899 C1900 1.383 . S
C1899 H1907 0.929 . S
C1900 C1899 1.383 . S
C1900 C1901 1.377 . S
C1901 H1885 0.930 . S
C1901 C1900 1.377 . S
C1901 C1902 1.379 . S
C1902 H1886 0.931 . S
C1902 C1896 1.383 . S
C1902 C1901 1.379 . S
H1903 C1897 0.959 . S
H1904 C1897 0.961 . S
H1905 C1897 0.960 . S
H1906 C1898 0.930 . S
H1907 C1899 0.929 . S
H1908 C1916 0.929 . S
H1909 C1918 0.930 1_655 S
H1910 C1920 0.930 . S
H1911 C1923 0.929 . S
H1912 C1926 0.930 . S
H1913 C1928 0.960 . S
H1914 C1928 0.960 . S
H1915 C1928 0.960 . S
C1916 H1908 0.929 . S
C1916 C1917 1.377 . S
C1916 C1918 1.384 . S
C1917 C1916 1.377 . S
C1917 C1923 1.390 . S
C1918 H1909 0.930 1_455 S
C1918 C1916 1.384 . S
C1918 C1919 1.372 . S
C1919 C1918 1.372 . S
C1919 C1920 1.400 . S
C1919 C1924 1.490 . S
C1920 H1910 0.930 . S
C1920 C1919 1.400 . S
C1920 C1923 1.386 . S
H1921 C1937 0.930 . S
H1922 C1938 0.931 . S
C1923 H1911 0.929 . S
C1923 C1917 1.390 . S
C1923 C1920 1.386 . S
C1924 C1919 1.490 . S
C1924 C1926 1.395 1_455 S
C1924 C1927 1.403 . S
H1925 C1931 0.930 . S
C1926 H1912 0.930 . S
C1926 C1924 1.395 1_655 S
C1926 C1929 1.403 . S
C1927 C1924 1.403 . S
C1927 C1928 1.524 . S
C1927 C1931 1.400 . S
C1928 H1913 0.960 . S
C1928 H1914 0.960 . S
C1928 H1915 0.960 . S
C1928 C1927 1.524 . S
C1929 C1926 1.403 . S
C1929 C1930 1.392 . S
C1929 C1933 1.495 . S
C1930 C1929 1.392 . S
C1930 C1931 1.385 1_655 S
C1930 C1932 1.478 . S
C1931 H1925 0.930 . S
C1931 C1927 1.400 . S
C1931 C1930 1.385 1_455 S
C1932 C1930 1.478 . S
C1932 C1934 1.381 . S
C1932 C1938 1.383 . S
C1933 C1929 1.495 . S
C1933 H1939 0.959 . S
C1933 H1940 0.961 . S
C1933 H1941 0.960 . S
C1934 C1932 1.381 . S
C1934 C1935 1.394 . S
C1934 H1942 0.930 . S
C1935 C1934 1.394 . S
C1935 C1936 1.383 . S
C1935 H1943 0.929 . S
C1936 C1935 1.383 . S
C1936 C1937 1.377 . S
C1937 H1921 0.930 . S
C1937 C1936 1.377 . S
C1937 C1938 1.379 . S
C1938 H1922 0.931 . S
C1938 C1932 1.383 . S
C1938 C1937 1.379 . S
H1939 C1933 0.959 . S
H1940 C1933 0.961 . S
H1941 C1933 0.960 . S
H1942 C1934 0.930 . S
H1943 C1935 0.929 . S
H1944 C1952 0.929 . S
H1945 C1954 0.930 . S
H1946 C1956 0.930 . S
H1947 C1959 0.929 . S
H1948 C1962 0.930 . S
H1949 C1964 0.960 . S
H1950 C1964 0.960 . S
H1951 C1964 0.960 . S
C1952 H1944 0.929 . S
C1952 C1953 1.377 . S
C1952 C1954 1.384 . S
C1953 C1952 1.377 . S
C1953 C1959 1.390 . S
C1954 H1945 0.930 . S
C1954 C1952 1.384 . S
C1954 C1955 1.383 . S
C1955 C1954 1.383 . S
C1955 C1956 1.398 1_556 S
C1955 C1960 1.482 1_556 S
C1956 H1946 0.930 . S
C1956 C1955 1.398 1_554 S
C1956 C1959 1.385 1_554 S
H1957 C1973 0.930 . S
H1958 C1974 0.931 . S
C1959 H1947 0.929 . S
C1959 C1953 1.390 . S
C1959 C1956 1.385 1_556 S
C1960 C1955 1.482 1_554 S
C1960 C1962 1.395 . S
C1960 C1963 1.403 1_554 S
H1961 C1967 0.930 . S
C1962 H1948 0.930 . S
C1962 C1960 1.395 . S
C1962 C1965 1.403 . S
C1963 C1960 1.403 1_556 S
C1963 C1964 1.524 . S
C1963 C1967 1.400 . S
C1964 H1949 0.960 . S
C1964 H1950 0.960 . S
C1964 H1951 0.960 . S
C1964 C1963 1.524 . S
C1965 C1962 1.403 . S
C1965 C1966 1.392 . S
C1965 C1969 1.495 . S
C1966 C1965 1.392 . S
C1966 C1967 1.385 1_554 S
C1966 C1968 1.478 . S
C1967 H1961 0.930 . S
C1967 C1963 1.400 . S
C1967 C1966 1.385 1_556 S
C1968 C1966 1.478 . S
C1968 C1970 1.381 . S
C1968 C1974 1.383 . S
C1969 C1965 1.495 . S
C1969 H1975 0.959 . S
C1969 H1976 0.961 . S
C1969 H1977 0.960 . S
C1970 C1968 1.381 . S
C1970 C1971 1.394 . S
C1970 H1978 0.930 . S
C1971 C1970 1.394 . S
C1971 C1972 1.383 . S
C1971 H1979 0.929 . S
C1972 C1971 1.383 . S
C1972 C1973 1.377 . S
C1973 H1957 0.930 . S
C1973 C1972 1.377 . S
C1973 C1974 1.379 . S
C1974 H1958 0.931 . S
C1974 C1968 1.383 . S
C1974 C1973 1.379 . S
H1975 C1969 0.959 . S
H1976 C1969 0.961 . S
H1977 C1969 0.960 . S
H1978 C1970 0.930 . S
H1979 C1971 0.929 . S
H1980 C1988 0.929 . S
H1981 C1990 0.930 . S
H1982 C1992 0.930 . S
H1983 C1995 0.929 . S
H1984 C1998 0.930 . S
H1985 C2000 0.960 . S
H1986 C2000 0.960 . S
H1987 C2000 0.960 . S
C1988 H1980 0.929 . S
C1988 C1989 1.377 . S
C1988 C1990 1.384 . S
C1989 C1988 1.377 . S
C1989 C1995 1.390 . S
C1990 H1981 0.930 . S
C1990 C1988 1.384 . S
C1990 C1991 1.372 . S
C1991 C1990 1.372 . S
C1991 C1992 1.400 . S
C1991 C1996 1.490 . S
C1992 H1982 0.930 . S
C1992 C1991 1.400 . S
C1992 C1995 1.386 . S
H1993 C2009 0.930 . S
H1994 C2010 0.931 . S
C1995 H1983 0.929 . S
C1995 C1989 1.390 . S
C1995 C1992 1.386 . S
C1996 C1991 1.490 . S
C1996 C1998 1.395 . S
C1996 C1999 1.403 . S
H1997 C2003 0.930 . S
C1998 H1984 0.930 . S
C1998 C1996 1.395 . S
C1998 C2001 1.403 . S
C1999 C1996 1.403 . S
C1999 C2000 1.524 . S
C1999 C2003 1.400 . S
C2000 H1985 0.960 . S
C2000 H1986 0.960 . S
C2000 H1987 0.960 . S
C2000 C1999 1.524 . S
C2001 C1998 1.403 . S
C2001 C2002 1.392 . S
C2001 C2005 1.495 . S
C2002 C2001 1.392 . S
C2002 C2003 1.385 . S
C2002 C2004 1.478 . S
C2003 H1997 0.930 . S
C2003 C1999 1.400 . S
C2003 C2002 1.385 . S
C2004 C2002 1.478 . S
C2004 C2006 1.381 . S
C2004 C2010 1.383 . S
C2005 C2001 1.495 . S
C2005 H2011 0.959 . S
C2005 H2012 0.961 . S
C2005 H2013 0.960 . S
C2006 C2004 1.381 . S
C2006 C2007 1.394 . S
C2006 H2014 0.930 . S
C2007 C2006 1.394 . S
C2007 C2008 1.383 . S
C2007 H2015 0.929 . S
C2008 C2007 1.383 . S
C2008 C2009 1.377 . S
C2009 H1993 0.930 . S
C2009 C2008 1.377 . S
C2009 C2010 1.379 . S
C2010 H1994 0.931 . S
C2010 C2004 1.383 . S
C2010 C2009 1.379 . S
H2011 C2005 0.959 . S
H2012 C2005 0.961 . S
H2013 C2005 0.960 . S
H2014 C2006 0.930 . S
H2015 C2007 0.929 . S
H2016 C2024 0.929 . S
H2017 C2026 0.930 . S
H2018 C2028 0.930 . S
H2019 C2031 0.929 . S
H2020 C2034 0.930 . S
H2021 C2036 0.960 . S
H2022 C2036 0.960 . S
H2023 C2036 0.960 . S
C2024 H2016 0.929 . S
C2024 C2025 1.377 . S
C2024 C2026 1.384 . S
C2025 C2024 1.377 . S
C2025 C2031 1.390 . S
C2026 H2017 0.930 . S
C2026 C2024 1.384 . S
C2026 C2027 1.372 . S
C2027 C2026 1.372 . S
C2027 C2028 1.400 . S
C2027 C2032 1.490 . S
C2028 H2018 0.930 . S
C2028 C2027 1.400 . S
C2028 C2031 1.386 . S
H2029 C2045 0.930 . S
H2030 C2046 0.931 . S
C2031 H2019 0.929 . S
C2031 C2025 1.390 . S
C2031 C2028 1.386 . S
C2032 C2027 1.490 . S
C2032 C2034 1.395 . S
C2032 C2035 1.403 . S
H2033 C2039 0.930 . S
C2034 H2020 0.930 . S
C2034 C2032 1.395 . S
C2034 C2037 1.403 . S
C2035 C2032 1.403 . S
C2035 C2036 1.524 . S
C2035 C2039 1.400 . S
C2036 H2021 0.960 . S
C2036 H2022 0.960 . S
C2036 H2023 0.960 . S
C2036 C2035 1.524 . S
C2037 C2034 1.403 . S
C2037 C2038 1.392 . S
C2037 C2041 1.495 . S
C2038 C2037 1.392 . S
C2038 C2039 1.385 . S
C2038 C2040 1.478 . S
C2039 H2033 0.930 . S
C2039 C2035 1.400 . S
C2039 C2038 1.385 . S
C2040 C2038 1.478 . S
C2040 C2042 1.381 . S
C2040 C2046 1.383 . S
C2041 C2037 1.495 . S
C2041 H2047 0.959 . S
C2041 H2048 0.961 . S
C2041 H2049 0.960 . S
C2042 C2040 1.381 . S
C2042 C2043 1.394 . S
C2042 H2050 0.930 . S
C2043 C2042 1.394 . S
C2043 C2044 1.383 . S
C2043 H2051 0.929 . S
C2044 C2043 1.383 . S
C2044 C2045 1.377 . S
C2045 H2029 0.930 . S
C2045 C2044 1.377 . S
C2045 C2046 1.379 . S
C2046 H2030 0.931 . S
C2046 C2040 1.383 . S
C2046 C2045 1.379 . S
H2047 C2041 0.959 . S
H2048 C2041 0.961 . S
H2049 C2041 0.960 . S
H2050 C2042 0.930 . S
H2051 C2043 0.929 . S
H2052 C2060 0.929 . S
H2053 C2062 0.930 1_455 S
H2054 C2064 0.930 . S
H2055 C2067 0.929 . S
H2056 C2070 0.930 . S
H2057 C2072 0.960 . S
H2058 C2072 0.960 . S
H2059 C2072 0.960 . S
C2060 H2052 0.929 . S
C2060 C2061 1.377 . S
C2060 C2062 1.384 . S
C2061 C2060 1.377 . S
C2061 C2067 1.390 . S
C2062 H2053 0.930 1_655 S
C2062 C2060 1.384 . S
C2062 C2063 1.372 . S
C2063 C2062 1.372 . S
C2063 C2064 1.400 . S
C2063 C2068 1.490 . S
C2064 H2054 0.930 . S
C2064 C2063 1.400 . S
C2064 C2067 1.386 . S
H2065 C2081 0.930 . S
H2066 C2082 0.931 1_655 S
C2067 H2055 0.929 . S
C2067 C2061 1.390 . S
C2067 C2064 1.386 . S
C2068 C2063 1.490 . S
C2068 C2070 1.395 1_655 S
C2068 C2071 1.403 . S
H2069 C2075 0.930 . S
C2070 H2056 0.930 . S
C2070 C2068 1.395 1_455 S
C2070 C2073 1.403 . S
C2071 C2068 1.403 . S
C2071 C2072 1.524 . S
C2071 C2075 1.400 . S
C2072 H2057 0.960 . S
C2072 H2058 0.960 . S
C2072 H2059 0.960 . S
C2072 C2071 1.524 . S
C2073 C2070 1.403 . S
C2073 C2074 1.392 . S
C2073 C2077 1.495 . S
C2074 C2073 1.392 . S
C2074 C2075 1.385 1_455 S
C2074 C2076 1.478 . S
C2075 H2069 0.930 . S
C2075 C2071 1.400 . S
C2075 C2074 1.385 1_655 S
C2076 C2074 1.478 . S
C2076 C2078 1.381 . S
C2076 C2082 1.383 . S
C2077 C2073 1.495 . S
C2077 H2083 0.959 . S
C2077 H2084 0.961 . S
C2077 H2085 0.960 . S
C2078 C2076 1.381 . S
C2078 C2079 1.394 . S
C2078 H2086 0.930 . S
C2079 C2078 1.394 . S
C2079 C2080 1.383 . S
C2079 H2087 0.929 . S
C2080 C2079 1.383 . S
C2080 C2081 1.377 . S
C2081 H2065 0.930 . S
C2081 C2080 1.377 . S
C2081 C2082 1.379 . S
C2082 H2066 0.931 1_455 S
C2082 C2076 1.383 . S
C2082 C2081 1.379 . S
H2083 C2077 0.959 . S
H2084 C2077 0.961 . S
H2085 C2077 0.960 . S
H2086 C2078 0.930 . S
H2087 C2079 0.929 . S
H2088 C2096 0.929 . S
H2089 C2098 0.930 . S
H2090 C2100 0.930 . S
H2091 C2103 0.929 . S
H2092 C2106 0.930 . S
H2093 C2108 0.960 . S
H2094 C2108 0.960 . S
H2095 C2108 0.960 . S
C2096 H2088 0.929 . S
C2096 C2097 1.377 . S
C2096 C2098 1.384 . S
C2097 C2096 1.377 . S
C2097 C2103 1.390 . S
C2098 H2089 0.930 . S
C2098 C2096 1.384 . S
C2098 C2099 1.372 . S
C2099 C2098 1.372 . S
C2099 C2100 1.400 . S
C2099 C2104 1.490 . S
C2100 H2090 0.930 . S
C2100 C2099 1.400 . S
C2100 C2103 1.386 . S
H2101 C2117 0.930 . S
H2102 C2118 0.931 . S
C2103 H2091 0.929 . S
C2103 C2097 1.390 . S
C2103 C2100 1.386 . S
C2104 C2099 1.490 . S
C2104 C2106 1.395 . S
C2104 C2107 1.403 . S
H2105 C2111 0.930 . S
C2106 H2092 0.930 . S
C2106 C2104 1.395 . S
C2106 C2109 1.403 . S
C2107 C2104 1.403 . S
C2107 C2108 1.524 . S
C2107 C2111 1.400 . S
C2108 H2093 0.960 . S
C2108 H2094 0.960 . S
C2108 H2095 0.960 . S
C2108 C2107 1.524 . S
C2109 C2106 1.403 . S
C2109 C2110 1.392 . S
C2109 C2113 1.495 . S
C2110 C2109 1.392 . S
C2110 C2111 1.385 . S
C2110 C2112 1.478 . S
C2111 H2105 0.930 . S
C2111 C2107 1.400 . S
C2111 C2110 1.385 . S
C2112 C2110 1.478 . S
C2112 C2114 1.381 . S
C2112 C2118 1.383 . S
C2113 C2109 1.495 . S
C2113 H2119 0.959 . S
C2113 H2120 0.961 . S
C2113 H2121 0.960 . S
C2114 C2112 1.381 . S
C2114 C2115 1.394 . S
C2114 H2122 0.930 . S
C2115 C2114 1.394 . S
C2115 C2116 1.383 . S
C2115 H2123 0.929 . S
C2116 C2115 1.383 . S
C2116 C2117 1.377 . S
C2117 H2101 0.930 . S
C2117 C2116 1.377 . S
C2117 C2118 1.379 . S
C2118 H2102 0.931 . S
C2118 C2112 1.383 . S
C2118 C2117 1.379 . S
H2119 C2113 0.959 . S
H2120 C2113 0.961 . S
H2121 C2113 0.960 . S
H2122 C2114 0.930 . S
H2123 C2115 0.929 . S
H2124 C2132 0.929 . S
H2125 C2134 0.930 . S
H2126 C2136 0.930 . S
H2127 C2139 0.929 . S
H2128 C2142 0.930 . S
H2129 C2144 0.960 . S
H2130 C2144 0.960 . S
H2131 C2144 0.960 . S
C2132 H2124 0.929 . S
C2132 C2133 1.377 . S
C2132 C2134 1.384 . S
C2133 C2132 1.377 . S
C2133 C2139 1.390 . S
C2134 H2125 0.930 . S
C2134 C2132 1.384 . S
C2134 C2135 1.372 . S
C2135 C2134 1.372 . S
C2135 C2136 1.400 . S
C2135 C2140 1.490 . S
C2136 H2126 0.930 . S
C2136 C2135 1.400 . S
C2136 C2139 1.386 . S
H2137 C2153 0.930 . S
H2138 C2154 0.931 . S
C2139 H2127 0.929 . S
C2139 C2133 1.390 . S
C2139 C2136 1.386 . S
C2140 C2135 1.490 . S
C2140 C2142 1.395 . S
C2140 C2143 1.403 . S
H2141 C2147 0.930 . S
C2142 H2128 0.930 . S
C2142 C2140 1.395 . S
C2142 C2145 1.403 . S
C2143 C2140 1.403 . S
C2143 C2144 1.524 . S
C2143 C2147 1.400 . S
C2144 H2129 0.960 . S
C2144 H2130 0.960 . S
C2144 H2131 0.960 . S
C2144 C2143 1.524 . S
C2145 C2142 1.403 . S
C2145 C2146 1.392 . S
C2145 C2149 1.495 . S
C2146 C2145 1.392 . S
C2146 C2147 1.385 . S
C2146 C2148 1.478 . S
C2147 H2141 0.930 . S
C2147 C2143 1.400 . S
C2147 C2146 1.385 . S
C2148 C2146 1.478 . S
C2148 C2150 1.381 . S
C2148 C2154 1.383 . S
C2149 C2145 1.495 . S
C2149 H2155 0.959 . S
C2149 H2156 0.961 . S
C2149 H2157 0.960 . S
C2150 C2148 1.381 . S
C2150 C2151 1.394 . S
C2150 H2158 0.930 . S
C2151 C2150 1.394 . S
C2151 C2152 1.383 . S
C2151 H2159 0.929 . S
C2152 C2151 1.383 . S
C2152 C2153 1.377 . S
C2153 H2137 0.930 . S
C2153 C2152 1.377 . S
C2153 C2154 1.379 . S
C2154 H2138 0.931 . S
C2154 C2148 1.383 . S
C2154 C2153 1.379 . S
H2155 C2149 0.959 . S
H2156 C2149 0.961 . S
H2157 C2149 0.960 . S
H2158 C2150 0.930 . S
H2159 C2151 0.929 . S
H2160 C2168 0.929 . S
H2161 C2170 0.930 . S
H2162 C2172 0.930 . S
H2163 C2175 0.929 . S
H2164 C2178 0.930 . S
H2165 C2180 0.960 . S
H2166 C2180 0.960 . S
H2167 C2180 0.960 . S
C2168 H2160 0.929 . S
C2168 C2169 1.377 . S
C2168 C2170 1.384 . S
C2169 C2168 1.377 . S
C2169 C2175 1.390 . S
C2170 H2161 0.930 . S
C2170 C2168 1.384 . S
C2170 C2171 1.372 . S
C2171 C2170 1.372 . S
C2171 C2172 1.400 . S
C2171 C2176 1.490 . S
C2172 H2162 0.930 . S
C2172 C2171 1.400 . S
C2172 C2175 1.386 . S
H2173 C2189 0.930 . S
H2174 C2190 0.931 . S
C2175 H2163 0.929 . S
C2175 C2169 1.390 . S
C2175 C2172 1.386 . S
C2176 C2171 1.490 . S
C2176 C2178 1.395 . S
C2176 C2179 1.403 . S
H2177 C2183 0.930 . S
C2178 H2164 0.930 . S
C2178 C2176 1.395 . S
C2178 C2181 1.403 . S
C2179 C2176 1.403 . S
C2179 C2180 1.524 . S
C2179 C2183 1.400 . S
C2180 H2165 0.960 . S
C2180 H2166 0.960 . S
C2180 H2167 0.960 . S
C2180 C2179 1.524 . S
C2181 C2178 1.403 . S
C2181 C2182 1.392 . S
C2181 C2185 1.495 . S
C2182 C2181 1.392 . S
C2182 C2183 1.385 . S
C2182 C2184 1.478 . S
C2183 H2177 0.930 . S
C2183 C2179 1.400 . S
C2183 C2182 1.385 . S
C2184 C2182 1.478 . S
C2184 C2186 1.381 . S
C2184 C2190 1.383 . S
C2185 C2181 1.495 . S
C2185 H2191 0.959 . S
C2185 H2192 0.961 . S
C2185 H2193 0.960 . S
C2186 C2184 1.381 . S
C2186 C2187 1.394 . S
C2186 H2194 0.930 . S
C2187 C2186 1.394 . S
C2187 C2188 1.383 . S
C2187 H2195 0.929 . S
C2188 C2187 1.383 . S
C2188 C2189 1.377 . S
C2189 H2173 0.930 . S
C2189 C2188 1.377 . S
C2189 C2190 1.379 . S
C2190 H2174 0.931 . S
C2190 C2184 1.383 . S
C2190 C2189 1.379 . S
H2191 C2185 0.959 . S
H2192 C2185 0.961 . S
H2193 C2185 0.960 . S
H2194 C2186 0.930 . S
H2195 C2187 0.929 . S
H2196 C2204 0.929 . S
H2197 C2206 0.930 . S
H2198 C2208 0.930 . S
H2199 C2211 0.929 . S
H2200 C2214 0.930 . S
H2201 C2216 0.960 1_565 S
H2202 C2216 0.960 . S
H2203 C2216 0.960 . S
C2204 H2196 0.929 . S
C2204 C2205 1.377 . S
C2204 C2206 1.384 . S
C2205 C2204 1.377 . S
C2205 C2211 1.390 . S
C2206 H2197 0.930 . S
C2206 C2204 1.384 . S
C2206 C2207 1.372 . S
C2207 C2206 1.372 . S
C2207 C2208 1.400 . S
C2207 C2212 1.490 . S
C2208 H2198 0.930 . S
C2208 C2207 1.400 . S
C2208 C2211 1.386 . S
H2209 C2225 0.930 . S
H2210 C2226 0.931 . S
C2211 H2199 0.929 . S
C2211 C2205 1.390 . S
C2211 C2208 1.386 . S
C2212 C2207 1.490 . S
C2212 C2214 1.395 . S
C2212 C2215 1.403 . S
H2213 C2219 0.930 . S
C2214 H2200 0.930 . S
C2214 C2212 1.395 . S
C2214 C2217 1.403 . S
C2215 C2212 1.403 . S
C2215 C2216 1.524 . S
C2215 C2219 1.400 1_545 S
C2216 H2201 0.960 1_545 S
C2216 H2202 0.960 . S
C2216 H2203 0.960 . S
C2216 C2215 1.524 . S
C2217 C2214 1.403 . S
C2217 C2218 1.392 1_545 S
C2217 C2221 1.495 . S
C2218 C2217 1.392 1_565 S
C2218 C2219 1.385 . S
C2218 C2220 1.478 . S
C2219 H2213 0.930 . S
C2219 C2215 1.400 1_565 S
C2219 C2218 1.385 . S
C2220 C2218 1.478 . S
C2220 C2222 1.381 . S
C2220 C2226 1.383 . S
C2221 C2217 1.495 . S
C2221 H2227 0.959 . S
C2221 H2228 0.943 1_545 S
C2221 H2229 0.991 . S
C2222 C2220 1.381 . S
C2222 C2223 1.394 . S
C2222 H2230 0.930 . S
C2223 C2222 1.394 . S
C2223 C2224 1.383 . S
C2223 H2231 0.929 . S
C2224 C2223 1.383 . S
C2224 C2225 1.377 . S
C2225 H2209 0.930 . S
C2225 C2224 1.377 . S
C2225 C2226 1.379 . S
C2226 H2210 0.931 . S
C2226 C2220 1.383 . S
C2226 C2225 1.379 . S
H2227 C2221 0.959 . S
H2228 C2221 0.943 1_565 S
H2229 C2221 0.991 . S
H2230 C2222 0.930 . S
H2231 C2223 0.929 . S
H2232 C2240 0.929 . S
H2233 C2242 0.930 . S
H2234 C2244 0.930 . S
H2235 C2247 0.929 . S
H2236 C2250 0.930 . S
H2237 C2252 0.960 . S
H2238 C2252 0.960 . S
H2239 C2252 0.960 . S
C2240 H2232 0.929 . S
C2240 C2241 1.377 . S
C2240 C2242 1.384 . S
C2241 C2240 1.377 . S
C2241 C2247 1.390 . S
C2242 H2233 0.930 . S
C2242 C2240 1.384 . S
C2242 C2243 1.372 . S
C2243 C2242 1.372 . S
C2243 C2244 1.400 . S
C2243 C2248 1.490 . S
C2244 H2234 0.930 . S
C2244 C2243 1.400 . S
C2244 C2247 1.386 . S
H2245 C2261 0.930 . S
H2246 C2262 0.931 . S
C2247 H2235 0.929 . S
C2247 C2241 1.390 . S
C2247 C2244 1.386 . S
C2248 C2243 1.490 . S
C2248 C2250 1.395 . S
C2248 C2251 1.403 . S
H2249 C2255 0.930 . S
C2250 H2236 0.930 . S
C2250 C2248 1.395 . S
C2250 C2253 1.403 . S
C2251 C2248 1.403 . S
C2251 C2252 1.524 . S
C2251 C2255 1.400 . S
C2252 H2237 0.960 . S
C2252 H2238 0.960 . S
C2252 H2239 0.960 . S
C2252 C2251 1.524 . S
C2253 C2250 1.403 . S
C2253 C2254 1.392 . S
C2253 C2257 1.495 . S
C2254 C2253 1.392 . S
C2254 C2255 1.385 . S
C2254 C2256 1.478 . S
C2255 H2249 0.930 . S
C2255 C2251 1.400 . S
C2255 C2254 1.385 . S
C2256 C2254 1.478 . S
C2256 C2258 1.381 . S
C2256 C2262 1.383 . S
C2257 C2253 1.495 . S
C2257 H2263 0.959 . S
C2257 H2264 0.961 . S
C2257 H2265 0.960 . S
C2258 C2256 1.381 . S
C2258 C2259 1.394 . S
C2258 H2266 0.930 . S
C2259 C2258 1.394 . S
C2259 C2260 1.383 . S
C2259 H2267 0.929 . S
C2260 C2259 1.383 . S
C2260 C2261 1.377 . S
C2261 H2245 0.930 . S
C2261 C2260 1.377 . S
C2261 C2262 1.379 . S
C2262 H2246 0.931 . S
C2262 C2256 1.383 . S
C2262 C2261 1.379 . S
H2263 C2257 0.959 . S
H2264 C2257 0.961 . S
H2265 C2257 0.960 . S
H2266 C2258 0.930 . S
H2267 C2259 0.929 . S
H2268 C2276 0.929 . S
H2269 C2278 0.930 . S
H2270 C2280 0.930 1_556 S
H2271 C2283 0.929 1_556 S
H2272 C2286 0.930 . S
H2273 C2288 0.960 . S
H2274 C2288 0.960 . S
H2275 C2288 0.960 . S
C2276 H2268 0.929 . S
C2276 C2277 1.377 . S
C2276 C2278 1.384 . S
C2277 C2276 1.377 . S
C2277 C2283 1.390 . S
C2278 H2269 0.930 . S
C2278 C2276 1.384 . S
C2278 C2279 1.372 . S
C2279 C2278 1.372 . S
C2279 C2280 1.400 . S
C2279 C2284 1.490 . S
C2280 H2270 0.930 1_554 S
C2280 C2279 1.400 . S
C2280 C2283 1.386 . S
H2281 C2297 0.930 . S
H2282 C2298 0.931 . S
C2283 H2271 0.929 1_554 S
C2283 C2277 1.390 . S
C2283 C2280 1.386 . S
C2284 C2279 1.490 . S
C2284 C2286 1.395 . S
C2284 C2287 1.403 1_554 S
H2285 C2291 0.930 . S
C2286 H2272 0.930 . S
C2286 C2284 1.395 . S
C2286 C2289 1.403 . S
C2287 C2284 1.403 1_556 S
C2287 C2288 1.524 . S
C2287 C2291 1.400 . S
C2288 H2273 0.960 . S
C2288 H2274 0.960 . S
C2288 H2275 0.960 . S
C2288 C2287 1.524 . S
C2289 C2286 1.403 . S
C2289 C2290 1.392 . S
C2289 C2293 1.495 . S
C2290 C2289 1.392 . S
C2290 C2291 1.385 1_554 S
C2290 C2292 1.478 . S
C2291 H2285 0.930 . S
C2291 C2287 1.400 . S
C2291 C2290 1.385 1_556 S
C2292 C2290 1.478 . S
C2292 C2294 1.381 . S
C2292 C2298 1.383 1_554 S
C2293 C2289 1.495 . S
C2293 H2299 0.959 . S
C2293 H2300 0.961 . S
C2293 H2301 0.960 . S
C2294 C2292 1.381 . S
C2294 C2295 1.394 . S
C2294 H2302 0.930 . S
C2295 C2294 1.394 . S
C2295 C2296 1.383 1_554 S
C2295 H2303 0.929 . S
C2296 C2295 1.383 1_556 S
C2296 C2297 1.377 . S
C2297 H2281 0.930 . S
C2297 C2296 1.377 . S
C2297 C2298 1.379 . S
C2298 H2282 0.931 . S
C2298 C2292 1.383 1_556 S
C2298 C2297 1.379 . S
H2299 C2293 0.959 . S
H2300 C2293 0.961 . S
H2301 C2293 0.960 . S
H2302 C2294 0.930 . S
H2303 C2295 0.929 . S
H2304 C2312 0.929 . S
H2305 C2314 0.930 . S
H2306 C2316 0.930 . S
H2307 C2319 0.929 . S
H2308 C2322 0.930 . S
H2309 C2324 0.960 . S
H2310 C2324 0.960 . S
H2311 C2324 0.960 . S
C2312 H2304 0.929 . S
C2312 C2313 1.377 . S
C2312 C2314 1.384 . S
C2313 C2312 1.377 . S
C2313 C2319 1.390 . S
C2314 H2305 0.930 . S
C2314 C2312 1.384 . S
C2314 C2315 1.372 . S
C2315 C2314 1.372 . S
C2315 C2316 1.400 . S
C2315 C2320 1.490 . S
C2316 H2306 0.930 . S
C2316 C2315 1.400 . S
C2316 C2319 1.386 . S
H2317 C2333 0.930 . S
H2318 C2334 0.931 . S
C2319 H2307 0.929 . S
C2319 C2313 1.390 . S
C2319 C2316 1.386 . S
C2320 C2315 1.490 . S
C2320 C2322 1.395 . S
C2320 C2323 1.403 . S
H2321 C2327 0.930 . S
C2322 H2308 0.930 . S
C2322 C2320 1.395 . S
C2322 C2325 1.403 . S
C2323 C2320 1.403 . S
C2323 C2324 1.524 . S
C2323 C2327 1.400 . S
C2324 H2309 0.960 . S
C2324 H2310 0.960 . S
C2324 H2311 0.960 . S
C2324 C2323 1.524 . S
C2325 C2322 1.403 . S
C2325 C2326 1.392 . S
C2325 C2329 1.495 . S
C2326 C2325 1.392 . S
C2326 C2327 1.385 . S
C2326 C2328 1.478 . S
C2327 H2321 0.930 . S
C2327 C2323 1.400 . S
C2327 C2326 1.385 . S
C2328 C2326 1.478 . S
C2328 C2330 1.381 . S
C2328 C2334 1.383 . S
C2329 C2325 1.495 . S
C2329 H2335 0.952 1_455 S
C2329 H2336 0.961 . S
C2329 H2337 0.960 . S
C2330 C2328 1.381 . S
C2330 C2331 1.394 . S
C2330 H2338 0.930 . S
C2331 C2330 1.394 . S
C2331 C2332 1.383 . S
C2331 H2339 0.929 . S
C2332 C2331 1.383 . S
C2332 C2333 1.377 . S
C2333 H2317 0.930 . S
C2333 C2332 1.377 . S
C2333 C2334 1.379 . S
C2334 H2318 0.931 . S
C2334 C2328 1.383 . S
C2334 C2333 1.379 . S
H2335 C2329 0.952 1_655 S
H2336 C2329 0.961 . S
H2337 C2329 0.960 . S
H2338 C2330 0.930 . S
H2339 C2331 0.929 . S
H2340 C2348 0.929 . S
H2341 C2350 0.930 . S
H2342 C2352 0.930 . S
H2343 C2355 0.929 . S
H2344 C2358 0.930 . S
H2345 C2360 0.960 . S
H2346 C2360 0.960 . S
H2347 C2360 0.960 . S
C2348 H2340 0.929 . S
C2348 C2349 1.377 . S
C2348 C2350 1.384 . S
C2349 C2348 1.377 . S
C2349 C2355 1.390 . S
C2350 H2341 0.930 . S
C2350 C2348 1.384 . S
C2350 C2351 1.372 . S
C2351 C2350 1.372 . S
C2351 C2352 1.400 . S
C2351 C2356 1.490 . S
C2352 H2342 0.930 . S
C2352 C2351 1.400 . S
C2352 C2355 1.386 . S
H2353 C2369 0.930 . S
H2354 C2370 0.931 . S
C2355 H2343 0.929 . S
C2355 C2349 1.390 . S
C2355 C2352 1.386 . S
C2356 C2351 1.490 . S
C2356 C2358 1.395 . S
C2356 C2359 1.403 1_556 S
H2357 C2363 0.930 . S
C2358 H2344 0.930 . S
C2358 C2356 1.395 . S
C2358 C2361 1.403 . S
C2359 C2356 1.403 1_554 S
C2359 C2360 1.524 . S
C2359 C2363 1.400 . S
C2360 H2345 0.960 . S
C2360 H2346 0.960 . S
C2360 H2347 0.960 . S
C2360 C2359 1.524 . S
C2361 C2358 1.403 . S
C2361 C2362 1.392 . S
C2361 C2365 1.495 . S
C2362 C2361 1.392 . S
C2362 C2363 1.385 1_556 S
C2362 C2364 1.478 . S
C2363 H2357 0.930 . S
C2363 C2359 1.400 . S
C2363 C2362 1.385 1_554 S
C2364 C2362 1.478 . S
C2364 C2366 1.381 . S
C2364 C2370 1.383 . S
C2365 C2361 1.495 . S
C2365 H2371 0.959 . S
C2365 H2372 0.961 . S
C2365 H2373 0.960 . S
C2366 C2364 1.381 . S
C2366 C2367 1.394 . S
C2366 H2374 0.930 . S
C2367 C2366 1.394 . S
C2367 C2368 1.383 . S
C2367 H2375 0.929 . S
C2368 C2367 1.383 . S
C2368 C2369 1.377 . S
C2369 H2353 0.930 . S
C2369 C2368 1.377 . S
C2369 C2370 1.379 . S
C2370 H2354 0.931 . S
C2370 C2364 1.383 . S
C2370 C2369 1.379 . S
H2371 C2365 0.959 . S
H2372 C2365 0.961 . S
H2373 C2365 0.960 . S
H2374 C2366 0.930 . S
H2375 C2367 0.929 . S
H2376 C2384 0.929 . S
H2377 C2386 0.930 . S
H2378 C2388 0.930 . S
H2379 C2391 0.929 . S
H2380 C2394 0.930 . S
H2381 C2396 0.960 . S
H2382 C2396 0.960 . S
H2383 C2396 0.960 . S
C2384 H2376 0.929 . S
C2384 C2385 1.377 . S
C2384 C2386 1.384 . S
C2385 C2384 1.377 . S
C2385 C2391 1.390 . S
C2386 H2377 0.930 . S
C2386 C2384 1.384 . S
C2386 C2387 1.372 . S
C2387 C2386 1.372 . S
C2387 C2388 1.400 . S
C2387 C2392 1.490 . S
C2388 H2378 0.930 . S
C2388 C2387 1.400 . S
C2388 C2391 1.386 . S
H2389 C2405 0.930 . S
H2390 C2406 0.931 . S
C2391 H2379 0.929 . S
C2391 C2385 1.390 . S
C2391 C2388 1.386 . S
C2392 C2387 1.490 . S
C2392 C2394 1.395 . S
C2392 C2395 1.403 . S
H2393 C2399 0.930 . S
C2394 H2380 0.930 . S
C2394 C2392 1.395 . S
C2394 C2397 1.403 . S
C2395 C2392 1.403 . S
C2395 C2396 1.524 . S
C2395 C2399 1.400 . S
C2396 H2381 0.960 . S
C2396 H2382 0.960 . S
C2396 H2383 0.960 . S
C2396 C2395 1.524 . S
C2397 C2394 1.403 . S
C2397 C2398 1.392 . S
C2397 C2401 1.495 . S
C2398 C2397 1.392 . S
C2398 C2399 1.385 . S
C2398 C2400 1.478 . S
C2399 H2393 0.930 . S
C2399 C2395 1.400 . S
C2399 C2398 1.385 . S
C2400 C2398 1.478 . S
C2400 C2402 1.381 . S
C2400 C2406 1.383 . S
C2401 C2397 1.495 . S
C2401 H2407 0.959 . S
C2401 H2408 0.961 . S
C2401 H2409 0.960 . S
C2402 C2400 1.381 . S
C2402 C2403 1.394 . S
C2402 H2410 0.930 . S
C2403 C2402 1.394 . S
C2403 C2404 1.383 . S
C2403 H2411 0.929 . S
C2404 C2403 1.383 . S
C2404 C2405 1.377 . S
C2405 H2389 0.930 . S
C2405 C2404 1.377 . S
C2405 C2406 1.379 . S
C2406 H2390 0.931 . S
C2406 C2400 1.383 . S
C2406 C2405 1.379 . S
H2407 C2401 0.959 . S
H2408 C2401 0.961 . S
H2409 C2401 0.960 . S
H2410 C2402 0.930 . S
H2411 C2403 0.929 . S
H2412 C2420 0.929 1_556 S
H2413 C2422 0.930 1_556 S
H2414 C2424 0.930 . S
H2415 C2427 0.929 . S
H2416 C2430 0.930 . S
H2417 C2432 0.960 . S
H2418 C2432 0.960 . S
H2419 C2432 0.960 . S
C2420 H2412 0.929 1_554 S
C2420 C2421 1.377 . S
C2420 C2422 1.384 . S
C2421 C2420 1.377 . S
C2421 C2427 1.390 . S
C2422 H2413 0.930 1_554 S
C2422 C2420 1.384 . S
C2422 C2423 1.372 . S
C2423 C2422 1.372 . S
C2423 C2424 1.400 . S
C2423 C2428 1.490 . S
C2424 H2414 0.930 . S
C2424 C2423 1.400 . S
C2424 C2427 1.386 . S
H2425 C2441 0.930 . S
H2426 C2442 0.931 . S
C2427 H2415 0.929 . S
C2427 C2421 1.390 . S
C2427 C2424 1.386 . S
C2428 C2423 1.490 . S
C2428 C2430 1.395 . S
C2428 C2431 1.403 . S
H2429 C2435 0.930 . S
C2430 H2416 0.930 . S
C2430 C2428 1.395 . S
C2430 C2433 1.403 . S
C2431 C2428 1.403 . S
C2431 C2432 1.524 . S
C2431 C2435 1.400 . S
C2432 H2417 0.960 . S
C2432 H2418 0.960 . S
C2432 H2419 0.960 . S
C2432 C2431 1.524 . S
C2433 C2430 1.403 . S
C2433 C2434 1.392 . S
C2433 C2437 1.495 . S
C2434 C2433 1.392 . S
C2434 C2435 1.385 . S
C2434 C2436 1.478 . S
C2435 H2429 0.930 . S
C2435 C2431 1.400 . S
C2435 C2434 1.385 . S
C2436 C2434 1.478 . S
C2436 C2438 1.381 . S
C2436 C2442 1.383 . S
C2437 C2433 1.495 . S
C2437 H2443 0.959 1_655 S
C2437 H2444 0.961 . S
C2437 H2445 0.960 . S
C2438 C2436 1.381 . S
C2438 C2439 1.394 . S
C2438 H2446 0.930 1_554 S
C2439 C2438 1.394 . S
C2439 C2440 1.383 . S
C2439 H2447 0.929 1_554 S
C2440 C2439 1.383 . S
C2440 C2441 1.377 . S
C2441 H2425 0.930 . S
C2441 C2440 1.377 . S
C2441 C2442 1.379 . S
C2442 H2426 0.931 . S
C2442 C2436 1.383 . S
C2442 C2441 1.379 . S
H2443 C2437 0.959 1_455 S
H2444 C2437 0.961 . S
H2445 C2437 0.960 . S
H2446 C2438 0.930 1_556 S
H2447 C2439 0.929 1_556 S
H2448 C2456 0.929 . S
H2449 C2458 0.930 . S
H2450 C2460 0.930 . S
H2451 C2463 0.929 . S
H2452 C2466 0.930 . S
H2453 C2468 0.960 . S
H2454 C2468 0.960 . S
H2455 C2468 0.960 . S
C2456 H2448 0.929 . S
C2456 C2457 1.377 . S
C2456 C2458 1.384 . S
C2457 C2456 1.377 . S
C2457 C2463 1.390 . S
C2458 H2449 0.930 . S
C2458 C2456 1.384 . S
C2458 C2459 1.372 . S
C2459 C2458 1.372 . S
C2459 C2460 1.400 . S
C2459 C2464 1.490 . S
C2460 H2450 0.930 . S
C2460 C2459 1.400 . S
C2460 C2463 1.386 . S
H2461 C2477 0.930 . S
H2462 C2478 0.931 . S
C2463 H2451 0.929 . S
C2463 C2457 1.390 . S
C2463 C2460 1.386 . S
C2464 C2459 1.490 . S
C2464 C2466 1.395 . S
C2464 C2467 1.403 . S
H2465 C2471 0.930 . S
C2466 H2452 0.930 . S
C2466 C2464 1.395 . S
C2466 C2469 1.403 . S
C2467 C2464 1.403 . S
C2467 C2468 1.524 . S
C2467 C2471 1.400 . S
C2468 H2453 0.960 . S
C2468 H2454 0.960 . S
C2468 H2455 0.960 . S
C2468 C2467 1.524 . S
C2469 C2466 1.403 . S
C2469 C2470 1.392 . S
C2469 C2473 1.495 . S
C2470 C2469 1.392 . S
C2470 C2471 1.385 . S
C2470 C2472 1.478 . S
C2471 H2465 0.930 . S
C2471 C2467 1.400 . S
C2471 C2470 1.385 . S
C2472 C2470 1.478 . S
C2472 C2474 1.381 . S
C2472 C2478 1.383 . S
C2473 C2469 1.495 . S
C2473 H2479 0.959 . S
C2473 H2480 0.961 . S
C2473 H2481 0.960 . S
C2474 C2472 1.381 . S
C2474 C2475 1.394 . S
C2474 H2482 0.930 . S
C2475 C2474 1.394 . S
C2475 C2476 1.383 . S
C2475 H2483 0.929 . S
C2476 C2475 1.383 . S
C2476 C2477 1.377 . S
C2477 H2461 0.930 . S
C2477 C2476 1.377 . S
C2477 C2478 1.379 . S
C2478 H2462 0.931 . S
C2478 C2472 1.383 . S
C2478 C2477 1.379 . S
H2479 C2473 0.959 . S
H2480 C2473 0.961 . S
H2481 C2473 0.960 . S
H2482 C2474 0.930 . S
H2483 C2475 0.929 . S
H2484 C2492 0.929 . S
H2485 C2494 0.930 . S
H2486 C2496 0.930 . S
H2487 C2499 0.929 . S
H2488 C2502 0.930 . S
H2489 C2504 0.960 . S
H2490 C2504 0.960 . S
H2491 C2504 0.960 . S
C2492 H2484 0.929 . S
C2492 C2493 1.377 . S
C2492 C2494 1.384 . S
C2493 C2492 1.377 . S
C2493 C2499 1.390 . S
C2494 H2485 0.930 . S
C2494 C2492 1.384 . S
C2494 C2495 1.372 . S
C2495 C2494 1.372 . S
C2495 C2496 1.400 . S
C2495 C2500 1.490 . S
C2496 H2486 0.930 . S
C2496 C2495 1.400 . S
C2496 C2499 1.386 . S
H2497 C2513 0.930 . S
H2498 C2514 0.931 . S
C2499 H2487 0.929 . S
C2499 C2493 1.390 . S
C2499 C2496 1.386 . S
C2500 C2495 1.490 . S
C2500 C2502 1.395 . S
C2500 C2503 1.403 . S
H2501 C2507 0.930 . S
C2502 H2488 0.930 . S
C2502 C2500 1.395 . S
C2502 C2505 1.403 . S
C2503 C2500 1.403 . S
C2503 C2504 1.524 . S
C2503 C2507 1.400 . S
C2504 H2489 0.960 . S
C2504 H2490 0.960 . S
C2504 H2491 0.960 . S
C2504 C2503 1.524 . S
C2505 C2502 1.403 . S
C2505 C2506 1.392 . S
C2505 C2509 1.495 . S
C2506 C2505 1.392 . S
C2506 C2507 1.385 . S
C2506 C2508 1.478 . S
C2507 H2501 0.930 . S
C2507 C2503 1.400 . S
C2507 C2506 1.385 . S
C2508 C2506 1.478 . S
C2508 C2510 1.381 . S
C2508 C2514 1.383 . S
C2509 C2505 1.495 . S
C2509 H2515 0.964 . S
C2509 H2516 0.961 . S
C2509 H2517 0.960 . S
C2510 C2508 1.381 . S
C2510 C2511 1.394 . S
C2510 H2518 0.930 . S
C2511 C2510 1.394 . S
C2511 C2512 1.383 . S
C2511 H2519 0.929 . S
C2512 C2511 1.383 . S
C2512 C2513 1.377 . S
C2513 H2497 0.930 . S
C2513 C2512 1.377 . S
C2513 C2514 1.379 . S
C2514 H2498 0.931 . S
C2514 C2508 1.383 . S
C2514 C2513 1.379 . S
H2515 C2509 0.964 . S
H2516 C2509 0.961 . S
H2517 C2509 0.960 . S
H2518 C2510 0.930 . S
H2519 C2511 0.929 . S
H2520 C2528 0.929 . S
H2521 C2530 0.930 . S
H2522 C2532 0.930 . S
H2523 C2535 0.929 . S
H2524 C2538 0.930 . S
H2525 C2540 0.960 . S
H2526 C2540 0.960 . S
H2527 C2540 0.960 . S
C2528 H2520 0.929 . S
C2528 C2529 1.377 . S
C2528 C2530 1.384 . S
C2529 C2528 1.377 . S
C2529 C2535 1.390 . S
C2530 H2521 0.930 . S
C2530 C2528 1.384 . S
C2530 C2531 1.372 . S
C2531 C2530 1.372 . S
C2531 C2532 1.400 . S
C2531 C2536 1.490 . S
C2532 H2522 0.930 . S
C2532 C2531 1.400 . S
C2532 C2535 1.386 . S
H2533 C2549 0.930 . S
H2534 C2550 0.931 . S
C2535 H2523 0.929 . S
C2535 C2529 1.390 . S
C2535 C2532 1.386 . S
C2536 C2531 1.490 . S
C2536 C2538 1.395 . S
C2536 C2539 1.403 . S
H2537 C2543 0.930 . S
C2538 H2524 0.930 . S
C2538 C2536 1.395 . S
C2538 C2541 1.403 . S
C2539 C2536 1.403 . S
C2539 C2540 1.524 . S
C2539 C2543 1.400 . S
C2540 H2525 0.960 . S
C2540 H2526 0.960 . S
C2540 H2527 0.960 . S
C2540 C2539 1.524 . S
C2541 C2538 1.403 . S
C2541 C2542 1.392 . S
C2541 C2545 1.495 . S
C2542 C2541 1.392 . S
C2542 C2543 1.385 . S
C2542 C2544 1.478 . S
C2543 H2537 0.930 . S
C2543 C2539 1.400 . S
C2543 C2542 1.385 . S
C2544 C2542 1.478 . S
C2544 C2546 1.381 . S
C2544 C2550 1.383 . S
C2545 C2541 1.495 . S
C2545 H2551 0.959 . S
C2545 H2552 0.961 . S
C2545 H2553 0.960 . S
C2546 C2544 1.381 . S
C2546 C2547 1.394 . S
C2546 H2554 0.930 . S
C2547 C2546 1.394 . S
C2547 C2548 1.383 . S
C2547 H2555 0.929 . S
C2548 C2547 1.383 . S
C2548 C2549 1.377 . S
C2549 H2533 0.930 . S
C2549 C2548 1.377 . S
C2549 C2550 1.379 . S
C2550 H2534 0.931 . S
C2550 C2544 1.383 . S
C2550 C2549 1.379 . S
H2551 C2545 0.959 . S
H2552 C2545 0.961 . S
H2553 C2545 0.960 . S
H2554 C2546 0.930 . S
H2555 C2547 0.929 . S
H2556 C2564 0.929 . S
H2557 C2566 0.930 . S
H2558 C2568 0.930 . S
H2559 C2571 0.929 . S
H2560 C2574 0.930 . S
H2561 C2576 0.960 . S
H2562 C2576 0.960 . S
H2563 C2576 0.960 . S
C2564 H2556 0.929 . S
C2564 C2565 1.377 . S
C2564 C2566 1.384 . S
C2565 C2564 1.377 . S
C2565 C2571 1.390 . S
C2566 H2557 0.930 . S
C2566 C2564 1.384 . S
C2566 C2567 1.372 . S
C2567 C2566 1.372 . S
C2567 C2568 1.400 . S
C2567 C2572 1.490 . S
C2568 H2558 0.930 . S
C2568 C2567 1.400 . S
C2568 C2571 1.386 . S
H2569 C2585 0.930 . S
H2570 C2586 0.931 . S
C2571 H2559 0.929 . S
C2571 C2565 1.390 . S
C2571 C2568 1.386 . S
C2572 C2567 1.490 . S
C2572 C2574 1.395 . S
C2572 C2575 1.403 . S
H2573 C2579 0.930 . S
C2574 H2560 0.930 . S
C2574 C2572 1.395 . S
C2574 C2577 1.403 . S
C2575 C2572 1.403 . S
C2575 C2576 1.524 . S
C2575 C2579 1.400 . S
C2576 H2561 0.960 . S
C2576 H2562 0.960 . S
C2576 H2563 0.960 . S
C2576 C2575 1.524 . S
C2577 C2574 1.403 . S
C2577 C2578 1.392 . S
C2577 C2581 1.495 . S
C2578 C2577 1.392 . S
C2578 C2579 1.385 . S
C2578 C2580 1.478 . S
C2579 H2573 0.930 . S
C2579 C2575 1.400 . S
C2579 C2578 1.385 . S
C2580 C2578 1.478 . S
C2580 C2582 1.381 . S
C2580 C2586 1.383 . S
C2581 C2577 1.495 . S
C2581 H2587 0.957 1_655 S
C2581 H2588 0.961 . S
C2581 H2589 0.960 . S
C2582 C2580 1.381 . S
C2582 C2583 1.394 . S
C2582 H2590 0.930 . S
C2583 C2582 1.394 . S
C2583 C2584 1.383 . S
C2583 H2591 0.929 . S
C2584 C2583 1.383 . S
C2584 C2585 1.377 . S
C2585 H2569 0.930 . S
C2585 C2584 1.377 . S
C2585 C2586 1.379 . S
C2586 H2570 0.931 . S
C2586 C2580 1.383 . S
C2586 C2585 1.379 . S
H2587 C2581 0.957 1_455 S
H2588 C2581 0.961 . S
H2589 C2581 0.960 . S
H2590 C2582 0.930 . S
H2591 C2583 0.929 . S
H2592 C2600 0.929 . S
H2593 C2602 0.930 . S
H2594 C2604 0.930 . S
H2595 C2607 0.929 . S
H2596 C2610 0.930 . S
H2597 C2612 0.960 . S
H2598 C2612 0.960 . S
H2599 C2612 0.960 . S
C2600 H2592 0.929 . S
C2600 C2601 1.377 . S
C2600 C2602 1.384 . S
C2601 C2600 1.377 . S
C2601 C2607 1.390 . S
C2602 H2593 0.930 . S
C2602 C2600 1.384 . S
C2602 C2603 1.372 . S
C2603 C2602 1.372 . S
C2603 C2604 1.400 . S
C2603 C2608 1.490 . S
C2604 H2594 0.930 . S
C2604 C2603 1.400 . S
C2604 C2607 1.386 . S
H2605 C2621 0.930 . S
H2606 C2622 0.931 . S
C2607 H2595 0.929 . S
C2607 C2601 1.390 . S
C2607 C2604 1.386 . S
C2608 C2603 1.490 . S
C2608 C2610 1.395 . S
C2608 C2611 1.403 . S
H2609 C2615 0.930 . S
C2610 H2596 0.930 . S
C2610 C2608 1.395 . S
C2610 C2613 1.403 . S
C2611 C2608 1.403 . S
C2611 C2612 1.524 . S
C2611 C2615 1.400 . S
C2612 H2597 0.960 . S
C2612 H2598 0.960 . S
C2612 H2599 0.960 . S
C2612 C2611 1.524 . S
C2613 C2610 1.403 . S
C2613 C2614 1.392 . S
C2613 C2617 1.495 . S
C2614 C2613 1.392 . S
C2614 C2615 1.385 . S
C2614 C2616 1.478 . S
C2615 H2609 0.930 . S
C2615 C2611 1.400 . S
C2615 C2614 1.385 . S
C2616 C2614 1.478 . S
C2616 C2618 1.381 . S
C2616 C2622 1.383 . S
C2617 C2613 1.495 . S
C2617 H2623 0.959 . S
C2617 H2624 0.961 . S
C2617 H2625 0.960 . S
C2618 C2616 1.381 . S
C2618 C2619 1.394 . S
C2618 H2626 0.930 . S
C2619 C2618 1.394 . S
C2619 C2620 1.383 . S
C2619 H2627 0.929 . S
C2620 C2619 1.383 . S
C2620 C2621 1.377 . S
C2621 H2605 0.930 . S
C2621 C2620 1.377 . S
C2621 C2622 1.379 . S
C2622 H2606 0.931 . S
C2622 C2616 1.383 . S
C2622 C2621 1.379 . S
H2623 C2617 0.959 . S
H2624 C2617 0.961 . S
H2625 C2617 0.960 . S
H2626 C2618 0.930 . S
H2627 C2619 0.929 . S
H2628 C2636 0.929 . S
H2629 C2638 0.930 . S
H2630 C2640 0.930 . S
H2631 C2643 0.929 . S
H2632 C2646 0.930 . S
H2633 C2648 0.960 . S
H2634 C2648 0.960 . S
H2635 C2648 0.960 . S
C2636 H2628 0.929 . S
C2636 C2637 1.377 . S
C2636 C2638 1.384 . S
C2637 C2636 1.377 . S
C2637 C2643 1.390 . S
C2638 H2629 0.930 . S
C2638 C2636 1.384 . S
C2638 C2639 1.372 . S
C2639 C2638 1.372 . S
C2639 C2640 1.400 . S
C2639 C2644 1.490 . S
C2640 H2630 0.930 . S
C2640 C2639 1.400 . S
C2640 C2643 1.386 . S
H2641 C2657 0.930 . S
H2642 C2658 0.931 . S
C2643 H2631 0.929 . S
C2643 C2637 1.390 . S
C2643 C2640 1.386 . S
C2644 C2639 1.490 . S
C2644 C2646 1.395 . S
C2644 C2647 1.403 . S
H2645 C2651 0.930 . S
C2646 H2632 0.930 . S
C2646 C2644 1.395 . S
C2646 C2649 1.403 . S
C2647 C2644 1.403 . S
C2647 C2648 1.524 . S
C2647 C2651 1.400 . S
C2648 H2633 0.960 . S
C2648 H2634 0.960 . S
C2648 H2635 0.960 . S
C2648 C2647 1.524 . S
C2649 C2646 1.403 . S
C2649 C2650 1.392 . S
C2649 C2653 1.495 . S
C2650 C2649 1.392 . S
C2650 C2651 1.385 . S
C2650 C2652 1.478 . S
C2651 H2645 0.930 . S
C2651 C2647 1.400 . S
C2651 C2650 1.385 . S
C2652 C2650 1.478 . S
C2652 C2654 1.381 . S
C2652 C2658 1.383 . S
C2653 C2649 1.495 . S
C2653 H2659 0.959 . S
C2653 H2660 0.961 . S
C2653 H2661 0.960 . S
C2654 C2652 1.381 . S
C2654 C2655 1.394 . S
C2654 H2662 0.930 . S
C2655 C2654 1.394 . S
C2655 C2656 1.383 . S
C2655 H2663 0.929 . S
C2656 C2655 1.383 . S
C2656 C2657 1.377 . S
C2657 H2641 0.930 . S
C2657 C2656 1.377 . S
C2657 C2658 1.379 . S
C2658 H2642 0.931 . S
C2658 C2652 1.383 . S
C2658 C2657 1.379 . S
H2659 C2653 0.959 . S
H2660 C2653 0.961 . S
H2661 C2653 0.960 . S
H2662 C2654 0.930 . S
H2663 C2655 0.929 . S
H2664 C2672 0.929 . S
H2665 C2674 0.930 . S
H2666 C2676 0.930 . S
H2667 C2679 0.929 . S
H2668 C2682 0.930 . S
H2669 C2684 0.960 . S
H2670 C2684 0.960 . S
H2671 C2684 0.960 . S
C2672 H2664 0.929 . S
C2672 C2673 1.377 . S
C2672 C2674 1.384 . S
C2673 C2672 1.377 . S
C2673 C2679 1.390 . S
C2674 H2665 0.930 . S
C2674 C2672 1.384 . S
C2674 C2675 1.372 . S
C2675 C2674 1.372 . S
C2675 C2676 1.400 . S
C2675 C2680 1.490 . S
C2676 H2666 0.930 . S
C2676 C2675 1.400 . S
C2676 C2679 1.386 . S
H2677 C2693 0.930 . S
H2678 C2694 0.931 . S
C2679 H2667 0.929 . S
C2679 C2673 1.390 . S
C2679 C2676 1.386 . S
C2680 C2675 1.490 . S
C2680 C2682 1.395 . S
C2680 C2683 1.403 . S
H2681 C2687 0.930 . S
C2682 H2668 0.930 . S
C2682 C2680 1.395 . S
C2682 C2685 1.403 . S
C2683 C2680 1.403 . S
C2683 C2684 1.524 . S
C2683 C2687 1.400 . S
C2684 H2669 0.960 . S
C2684 H2670 0.960 . S
C2684 H2671 0.960 . S
C2684 C2683 1.524 . S
C2685 C2682 1.403 . S
C2685 C2686 1.392 . S
C2685 C2689 1.495 . S
C2686 C2685 1.392 . S
C2686 C2687 1.385 . S
C2686 C2688 1.478 . S
C2687 H2681 0.930 . S
C2687 C2683 1.400 . S
C2687 C2686 1.385 . S
C2688 C2686 1.478 . S
C2688 C2690 1.381 . S
C2688 C2694 1.383 . S
C2689 C2685 1.495 . S
C2689 H2695 0.959 . S
C2689 H2696 0.961 . S
C2689 H2697 0.960 . S
C2690 C2688 1.381 . S
C2690 C2691 1.394 . S
C2690 H2698 0.930 . S
C2691 C2690 1.394 . S
C2691 C2692 1.383 . S
C2691 H2699 0.929 . S
C2692 C2691 1.383 . S
C2692 C2693 1.377 . S
C2693 H2677 0.930 . S
C2693 C2692 1.377 . S
C2693 C2694 1.379 . S
C2694 H2678 0.931 . S
C2694 C2688 1.383 . S
C2694 C2693 1.379 . S
H2695 C2689 0.959 . S
H2696 C2689 0.961 . S
H2697 C2689 0.960 . S
H2698 C2690 0.930 . S
H2699 C2691 0.929 . S
H2700 C2708 0.929 . S
H2701 C2710 0.930 . S
H2702 C2712 0.930 . S
H2703 C2715 0.929 . S
H2704 C2718 0.930 . S
H2705 C2720 0.960 . S
H2706 C2720 0.960 . S
H2707 C2720 0.960 . S
C2708 H2700 0.929 . S
C2708 C2709 1.377 . S
C2708 C2710 1.384 . S
C2709 C2708 1.377 . S
C2709 C2715 1.390 . S
C2710 H2701 0.930 . S
C2710 C2708 1.384 . S
C2710 C2711 1.372 . S
C2711 C2710 1.372 . S
C2711 C2712 1.400 . S
C2711 C2716 1.490 . S
C2712 H2702 0.930 . S
C2712 C2711 1.400 . S
C2712 C2715 1.386 . S
H2713 C2729 0.930 . S
H2714 C2730 0.931 . S
C2715 H2703 0.929 . S
C2715 C2709 1.390 . S
C2715 C2712 1.386 . S
C2716 C2711 1.490 . S
C2716 C2718 1.395 . S
C2716 C2719 1.403 . S
H2717 C2723 0.930 . S
C2718 H2704 0.930 . S
C2718 C2716 1.395 . S
C2718 C2721 1.403 . S
C2719 C2716 1.403 . S
C2719 C2720 1.524 . S
C2719 C2723 1.400 . S
C2720 H2705 0.960 . S
C2720 H2706 0.960 . S
C2720 H2707 0.960 . S
C2720 C2719 1.524 . S
C2721 C2718 1.403 . S
C2721 C2722 1.392 . S
C2721 C2725 1.495 . S
C2722 C2721 1.392 . S
C2722 C2723 1.385 . S
C2722 C2724 1.478 . S
C2723 H2717 0.930 . S
C2723 C2719 1.400 . S
C2723 C2722 1.385 . S
C2724 C2722 1.478 . S
C2724 C2726 1.381 . S
C2724 C2730 1.383 . S
C2725 C2721 1.495 . S
C2725 H2731 0.959 . S
C2725 H2732 0.961 . S
C2725 H2733 0.960 . S
C2726 C2724 1.381 . S
C2726 C2727 1.394 . S
C2726 H2734 0.930 . S
C2727 C2726 1.394 . S
C2727 C2728 1.383 . S
C2727 H2735 0.929 . S
C2728 C2727 1.383 . S
C2728 C2729 1.377 . S
C2729 H2713 0.930 . S
C2729 C2728 1.377 . S
C2729 C2730 1.379 . S
C2730 H2714 0.931 . S
C2730 C2724 1.383 . S
C2730 C2729 1.379 . S
H2731 C2725 0.959 . S
H2732 C2725 0.961 . S
H2733 C2725 0.960 . S
H2734 C2726 0.930 . S
H2735 C2727 0.929 . S
H2736 C2744 0.929 . S
H2737 C2746 0.930 . S
H2738 C2748 0.930 . S
H2739 C2751 0.929 . S
H2740 C2754 0.930 . S
H2741 C2756 0.960 . S
H2742 C2756 0.960 . S
H2743 C2756 0.960 . S
C2744 H2736 0.929 . S
C2744 C2745 1.377 . S
C2744 C2746 1.384 . S
C2745 C2744 1.377 . S
C2745 C2751 1.390 . S
C2746 H2737 0.930 . S
C2746 C2744 1.384 . S
C2746 C2747 1.372 . S
C2747 C2746 1.372 . S
C2747 C2748 1.400 . S
C2747 C2752 1.490 . S
C2748 H2738 0.930 . S
C2748 C2747 1.400 . S
C2748 C2751 1.386 . S
H2749 C2765 0.930 . S
H2750 C2766 0.931 . S
C2751 H2739 0.929 . S
C2751 C2745 1.390 . S
C2751 C2748 1.386 . S
C2752 C2747 1.490 . S
C2752 C2754 1.395 . S
C2752 C2755 1.403 . S
H2753 C2759 0.930 . S
C2754 H2740 0.930 . S
C2754 C2752 1.395 . S
C2754 C2757 1.403 . S
C2755 C2752 1.403 . S
C2755 C2756 1.524 . S
C2755 C2759 1.400 . S
C2756 H2741 0.960 . S
C2756 H2742 0.960 . S
C2756 H2743 0.960 . S
C2756 C2755 1.524 . S
C2757 C2754 1.403 . S
C2757 C2758 1.392 . S
C2757 C2761 1.495 . S
C2758 C2757 1.392 . S
C2758 C2759 1.385 . S
C2758 C2760 1.478 . S
C2759 H2753 0.930 . S
C2759 C2755 1.400 . S
C2759 C2758 1.385 . S
C2760 C2758 1.478 . S
C2760 C2762 1.381 . S
C2760 C2766 1.383 . S
C2761 C2757 1.495 . S
C2761 H2767 0.959 . S
C2761 H2768 0.961 . S
C2761 H2769 0.960 . S
C2762 C2760 1.381 . S
C2762 C2763 1.394 . S
C2762 H2770 0.930 . S
C2763 C2762 1.394 . S
C2763 C2764 1.383 . S
C2763 H2771 0.929 . S
C2764 C2763 1.383 . S
C2764 C2765 1.377 . S
C2765 H2749 0.930 . S
C2765 C2764 1.377 . S
C2765 C2766 1.379 . S
C2766 H2750 0.931 . S
C2766 C2760 1.383 . S
C2766 C2765 1.379 . S
H2767 C2761 0.959 . S
H2768 C2761 0.961 . S
H2769 C2761 0.960 . S
H2770 C2762 0.930 . S
H2771 C2763 0.929 . S
H2772 C2780 0.929 . S
H2773 C2782 0.930 . S
H2774 C2784 0.930 . S
H2775 C2787 0.929 . S
H2776 C2790 0.930 . S
H2777 C2792 0.957 1_554 S
H2778 C2792 0.919 1_554 S
H2779 C2792 0.997 . S
C2780 H2772 0.929 . S
C2780 C2781 1.377 1_554 S
C2780 C2782 1.384 . S
C2781 C2780 1.377 1_556 S
C2781 C2787 1.390 . S
C2782 H2773 0.930 . S
C2782 C2780 1.384 . S
C2782 C2783 1.372 1_554 S
C2783 C2782 1.372 1_556 S
C2783 C2784 1.400 . S
C2783 C2788 1.490 . S
C2784 H2774 0.930 . S
C2784 C2783 1.400 . S
C2784 C2787 1.386 . S
H2785 C2801 0.930 . S
H2786 C2802 0.931 . S
C2787 H2775 0.929 . S
C2787 C2781 1.390 . S
C2787 C2784 1.386 . S
C2788 C2783 1.490 . S
C2788 C2790 1.395 . S
C2788 C2791 1.403 . S
H2789 C2795 0.930 . S
C2790 H2776 0.930 . S
C2790 C2788 1.395 . S
C2790 C2793 1.403 . S
C2791 C2788 1.403 . S
C2791 C2792 1.533 . S
C2791 C2795 1.400 . S
C2792 H2777 0.957 1_556 S
C2792 H2778 0.919 1_556 S
C2792 H2779 0.997 . S
C2792 C2791 1.533 . S
C2793 C2790 1.403 . S
C2793 C2794 1.392 . S
C2793 C2797 1.495 . S
C2794 C2793 1.392 . S
C2794 C2795 1.385 . S
C2794 C2796 1.478 . S
C2795 H2789 0.930 . S
C2795 C2791 1.400 . S
C2795 C2794 1.385 . S
C2796 C2794 1.478 . S
C2796 C2798 1.381 1_556 S
C2796 C2802 1.383 . S
C2797 C2793 1.495 . S
C2797 H2803 0.959 . S
C2797 H2804 0.961 . S
C2797 H2805 0.960 . S
C2798 C2796 1.381 1_554 S
C2798 C2799 1.394 . S
C2798 H2806 0.930 . S
C2799 C2798 1.394 . S
C2799 C2800 1.383 1_554 S
C2799 H2807 0.929 . S
C2800 C2799 1.383 1_556 S
C2800 C2801 1.377 . S
C2801 H2785 0.930 . S
C2801 C2800 1.377 . S
C2801 C2802 1.379 . S
C2802 H2786 0.931 . S
C2802 C2796 1.383 . S
C2802 C2801 1.379 . S
H2803 C2797 0.959 . S
H2804 C2797 0.961 . S
H2805 C2797 0.960 . S
H2806 C2798 0.930 . S
H2807 C2799 0.929 . S
H2808 C2816 0.929 . S
H2809 C2818 0.930 . S
H2810 C2820 0.930 . S
H2811 C2823 0.929 . S
H2812 C2826 0.930 . S
H2813 C2828 0.960 . S
H2814 C2828 0.960 . S
H2815 C2828 0.960 . S
C2816 H2808 0.929 . S
C2816 C2817 1.377 . S
C2816 C2818 1.384 . S
C2817 C2816 1.377 . S
C2817 C2823 1.390 . S
C2818 H2809 0.930 . S
C2818 C2816 1.384 . S
C2818 C2819 1.372 . S
C2819 C2818 1.372 . S
C2819 C2820 1.400 . S
C2819 C2824 1.490 . S
C2820 H2810 0.930 . S
C2820 C2819 1.400 . S
C2820 C2823 1.386 . S
H2821 C2837 0.930 . S
H2822 C2838 0.931 . S
C2823 H2811 0.929 . S
C2823 C2817 1.390 . S
C2823 C2820 1.386 . S
C2824 C2819 1.490 . S
C2824 C2826 1.395 . S
C2824 C2827 1.403 . S
H2825 C2831 0.930 . S
C2826 H2812 0.930 . S
C2826 C2824 1.395 . S
C2826 C2829 1.403 . S
C2827 C2824 1.403 . S
C2827 C2828 1.524 . S
C2827 C2831 1.400 . S
C2828 H2813 0.960 . S
C2828 H2814 0.960 . S
C2828 H2815 0.960 . S
C2828 C2827 1.524 . S
C2829 C2826 1.403 . S
C2829 C2830 1.392 . S
C2829 C2833 1.495 . S
C2830 C2829 1.392 . S
C2830 C2831 1.385 . S
C2830 C2832 1.478 . S
C2831 H2825 0.930 . S
C2831 C2827 1.400 . S
C2831 C2830 1.385 . S
C2832 C2830 1.478 . S
C2832 C2834 1.381 . S
C2832 C2838 1.383 . S
C2833 C2829 1.495 . S
C2833 H2839 0.959 . S
C2833 H2840 0.961 . S
C2833 H2841 0.960 . S
C2834 C2832 1.381 . S
C2834 C2835 1.394 . S
C2834 H2842 0.930 . S
C2835 C2834 1.394 . S
C2835 C2836 1.383 . S
C2835 H2843 0.929 . S
C2836 C2835 1.383 . S
C2836 C2837 1.377 . S
C2837 H2821 0.930 . S
C2837 C2836 1.377 . S
C2837 C2838 1.379 . S
C2838 H2822 0.931 . S
C2838 C2832 1.383 . S
C2838 C2837 1.379 . S
H2839 C2833 0.959 . S
H2840 C2833 0.961 . S
H2841 C2833 0.960 . S
H2842 C2834 0.930 . S
H2843 C2835 0.929 . S
H2844 C2852 0.929 . S
H2845 C2854 0.930 . S
H2846 C2856 0.930 1_556 S
H2847 C2859 0.929 1_556 S
H2848 C2862 0.930 . S
H2849 C2864 0.960 . S
H2850 C2864 0.960 . S
H2851 C2864 0.960 . S
C2852 H2844 0.929 . S
C2852 C2853 1.377 . S
C2852 C2854 1.384 . S
C2853 C2852 1.377 . S
C2853 C2859 1.390 . S
C2854 H2845 0.930 . S
C2854 C2852 1.384 . S
C2854 C2855 1.372 . S
C2855 C2854 1.372 . S
C2855 C2856 1.400 . S
C2855 C2860 1.490 . S
C2856 H2846 0.930 1_554 S
C2856 C2855 1.400 . S
C2856 C2859 1.386 . S
H2857 C2873 0.901 1_556 S
H2858 C2874 0.931 . S
C2859 H2847 0.929 1_554 S
C2859 C2853 1.390 . S
C2859 C2856 1.386 . S
C2860 C2855 1.490 . S
C2860 C2862 1.395 . S
C2860 C2863 1.403 . S
H2861 C2867 0.959 . S
C2862 H2848 0.930 . S
C2862 C2860 1.395 . S
C2862 C2865 1.403 . S
C2863 C2860 1.403 . S
C2863 C2864 1.524 1_554 S
C2863 C2867 1.400 . S
C2864 H2849 0.960 . S
C2864 H2850 0.960 . S
C2864 H2851 0.960 . S
C2864 C2863 1.524 1_556 S
C2865 C2862 1.403 . S
C2865 C2866 1.392 . S
C2865 C2869 1.495 . S
C2866 C2865 1.392 . S
C2866 C2867 1.385 . S
C2866 C2868 1.478 . S
C2867 H2861 0.959 . S
C2867 C2863 1.400 . S
C2867 C2866 1.385 . S
C2868 C2866 1.478 . S
C2868 C2870 1.381 . S
C2868 C2874 1.383 . S
C2869 C2865 1.495 . S
C2869 H2875 0.959 . S
C2869 H2876 0.961 . S
C2869 H2877 0.960 . S
C2870 C2868 1.381 . S
C2870 C2871 1.394 . S
C2870 H2878 0.930 . S
C2871 C2870 1.394 . S
C2871 C2872 1.383 . S
C2871 H2879 0.929 . S
C2872 C2871 1.383 . S
C2872 C2873 1.377 . S
C2873 H2857 0.901 1_554 S
C2873 C2872 1.377 . S
C2873 C2874 1.379 . S
C2874 H2858 0.931 . S
C2874 C2868 1.383 . S
C2874 C2873 1.379 . S
H2875 C2869 0.959 . S
H2876 C2869 0.961 . S
H2877 C2869 0.960 . S
H2878 C2870 0.930 . S
H2879 C2871 0.929 . S
H2880 C2888 0.929 . S
H2881 C2890 0.930 1_455 S
H2882 C2892 0.930 . S
H2883 C2895 0.929 . S
H2884 C2898 0.930 . S
H2885 C2900 0.960 . S
H2886 C2900 0.960 . S
H2887 C2900 0.960 . S
C2888 H2880 0.929 . S
C2888 C2889 1.377 1_455 S
C2888 C2890 1.384 1_455 S
C2889 C2888 1.377 1_655 S
C2889 C2895 1.390 . S
C2890 H2881 0.930 1_655 S
C2890 C2888 1.384 1_655 S
C2890 C2891 1.372 . S
C2891 C2890 1.372 . S
C2891 C2892 1.400 . S
C2891 C2896 1.490 . S
C2892 H2882 0.930 . S
C2892 C2891 1.400 . S
C2892 C2895 1.386 . S
H2893 C2909 0.930 . S
H2894 C2910 0.931 . S
C2895 H2883 0.929 . S
C2895 C2889 1.390 . S
C2895 C2892 1.386 . S
C2896 C2891 1.490 . S
C2896 C2898 1.395 . S
C2896 C2899 1.403 . S
H2897 C2903 0.930 . S
C2898 H2884 0.930 . S
C2898 C2896 1.395 . S
C2898 C2901 1.403 . S
C2899 C2896 1.403 . S
C2899 C2900 1.524 . S
C2899 C2903 1.400 . S
C2900 H2885 0.960 . S
C2900 H2886 0.960 . S
C2900 H2887 0.960 . S
C2900 C2899 1.524 . S
C2901 C2898 1.403 . S
C2901 C2902 1.392 . S
C2901 C2905 1.495 . S
C2902 C2901 1.392 . S
C2902 C2903 1.385 . S
C2902 C2904 1.478 . S
C2903 H2897 0.930 . S
C2903 C2899 1.400 . S
C2903 C2902 1.385 . S
C2904 C2902 1.478 . S
C2904 C2906 1.381 . S
C2904 C2910 1.383 . S
C2905 C2901 1.495 . S
C2905 H2911 0.959 . S
C2905 H2912 0.961 . S
C2905 H2913 0.960 . S
C2906 C2904 1.381 . S
C2906 C2907 1.394 . S
C2906 H2914 0.930 . S
C2907 C2906 1.394 . S
C2907 C2908 1.383 . S
C2907 H2915 0.929 . S
C2908 C2907 1.383 . S
C2908 C2909 1.377 . S
C2909 H2893 0.930 . S
C2909 C2908 1.377 . S
C2909 C2910 1.379 . S
C2910 H2894 0.931 . S
C2910 C2904 1.383 . S
C2910 C2909 1.379 . S
H2911 C2905 0.959 . S
H2912 C2905 0.961 . S
H2913 C2905 0.960 . S
H2914 C2906 0.930 . S
H2915 C2907 0.929 . S
H2916 C2924 0.929 . S
H2917 C2926 0.930 . S
H2918 C2928 0.930 . S
H2919 C2931 0.929 . S
H2920 C2934 0.930 . S
H2921 C2936 0.960 . S
H2922 C2936 0.960 . S
H2923 C2936 0.960 . S
C2924 H2916 0.929 . S
C2924 C2925 1.377 . S
C2924 C2926 1.384 . S
C2925 C2924 1.377 . S
C2925 C2931 1.390 . S
C2926 H2917 0.930 . S
C2926 C2924 1.384 . S
C2926 C2927 1.372 . S
C2927 C2926 1.372 . S
C2927 C2928 1.400 . S
C2927 C2932 1.490 . S
C2928 H2918 0.930 . S
C2928 C2927 1.400 . S
C2928 C2931 1.386 . S
H2929 C2945 0.930 . S
H2930 C2946 0.931 . S
C2931 H2919 0.929 . S
C2931 C2925 1.390 . S
C2931 C2928 1.386 . S
C2932 C2927 1.490 . S
C2932 C2934 1.395 . S
C2932 C2935 1.403 . S
H2933 C2939 0.930 . S
C2934 H2920 0.930 . S
C2934 C2932 1.395 . S
C2934 C2937 1.403 . S
C2935 C2932 1.403 . S
C2935 C2936 1.524 . S
C2935 C2939 1.400 . S
C2936 H2921 0.960 . S
C2936 H2922 0.960 . S
C2936 H2923 0.960 . S
C2936 C2935 1.524 . S
C2937 C2934 1.403 . S
C2937 C2938 1.392 . S
C2937 C2941 1.495 . S
C2938 C2937 1.392 . S
C2938 C2939 1.385 . S
C2938 C2940 1.478 . S
C2939 H2933 0.930 . S
C2939 C2935 1.400 . S
C2939 C2938 1.385 . S
C2940 C2938 1.478 . S
C2940 C2942 1.381 . S
C2940 C2946 1.383 . S
C2941 C2937 1.495 . S
C2941 H2947 0.959 . S
C2941 H2948 0.961 . S
C2941 H2949 0.960 . S
C2942 C2940 1.381 . S
C2942 C2943 1.394 . S
C2942 H2950 0.930 . S
C2943 C2942 1.394 . S
C2943 C2944 1.383 . S
C2943 H2951 0.929 . S
C2944 C2943 1.383 . S
C2944 C2945 1.377 . S
C2945 H2929 0.930 . S
C2945 C2944 1.377 . S
C2945 C2946 1.379 . S
C2946 H2930 0.931 . S
C2946 C2940 1.383 . S
C2946 C2945 1.379 . S
H2947 C2941 0.959 . S
H2948 C2941 0.961 . S
H2949 C2941 0.960 . S
H2950 C2942 0.930 . S
H2951 C2943 0.929 . S
H2952 C2960 0.929 . S
H2953 C2962 0.930 . S
H2954 C2964 0.930 . S
H2955 C2967 0.929 . S
H2956 C2970 0.930 . S
H2957 C2972 0.960 . S
H2958 C2972 0.960 . S
H2959 C2972 0.960 . S
C2960 H2952 0.929 . S
C2960 C2961 1.377 . S
C2960 C2962 1.384 . S
C2961 C2960 1.377 . S
C2961 C2967 1.390 . S
C2962 H2953 0.930 . S
C2962 C2960 1.384 . S
C2962 C2963 1.372 . S
C2963 C2962 1.372 . S
C2963 C2964 1.400 . S
C2963 C2968 1.490 . S
C2964 H2954 0.930 . S
C2964 C2963 1.400 . S
C2964 C2967 1.386 . S
H2965 C2981 0.930 . S
H2966 C2982 0.931 . S
C2967 H2955 0.929 . S
C2967 C2961 1.390 . S
C2967 C2964 1.386 . S
C2968 C2963 1.490 . S
C2968 C2970 1.395 . S
C2968 C2971 1.403 . S
H2969 C2975 0.930 . S
C2970 H2956 0.930 . S
C2970 C2968 1.395 . S
C2970 C2973 1.403 . S
C2971 C2968 1.403 . S
C2971 C2972 1.524 . S
C2971 C2975 1.400 . S
C2972 H2957 0.960 . S
C2972 H2958 0.960 . S
C2972 H2959 0.960 . S
C2972 C2971 1.524 . S
C2973 C2970 1.403 . S
C2973 C2974 1.392 . S
C2973 C2977 1.495 . S
C2974 C2973 1.392 . S
C2974 C2975 1.385 . S
C2974 C2976 1.478 . S
C2975 H2969 0.930 . S
C2975 C2971 1.400 . S
C2975 C2974 1.385 . S
C2976 C2974 1.478 . S
C2976 C2978 1.381 . S
C2976 C2982 1.383 . S
C2977 C2973 1.495 . S
C2977 H2983 0.959 . S
C2977 H2984 0.961 . S
C2977 H2985 0.960 . S
C2978 C2976 1.381 . S
C2978 C2979 1.394 . S
C2978 H2986 0.930 . S
C2979 C2978 1.394 . S
C2979 C2980 1.383 . S
C2979 H2987 0.929 . S
C2980 C2979 1.383 . S
C2980 C2981 1.377 . S
C2981 H2965 0.930 . S
C2981 C2980 1.377 . S
C2981 C2982 1.379 . S
C2982 H2966 0.931 . S
C2982 C2976 1.383 . S
C2982 C2981 1.379 . S
H2983 C2977 0.959 . S
H2984 C2977 0.961 . S
H2985 C2977 0.960 . S
H2986 C2978 0.930 . S
H2987 C2979 0.929 . S
H2988 C2996 0.929 . S
H2989 C2998 0.930 . S
H2990 C3000 0.930 . S
H2991 C3003 0.929 . S
H2992 C3006 0.930 . S
H2993 C3008 0.960 . S
H2994 C3008 0.960 . S
H2995 C3008 0.960 . S
C2996 H2988 0.929 . S
C2996 C2997 1.377 . S
C2996 C2998 1.384 . S
C2997 C2996 1.377 . S
C2997 C3003 1.390 . S
C2998 H2989 0.930 . S
C2998 C2996 1.384 . S
C2998 C2999 1.372 . S
C2999 C2998 1.372 . S
C2999 C3000 1.400 . S
C2999 C3004 1.490 . S
C3000 H2990 0.930 . S
C3000 C2999 1.400 . S
C3000 C3003 1.386 . S
H3001 C3017 0.930 . S
H3002 C3018 0.931 . S
C3003 H2991 0.929 . S
C3003 C2997 1.390 . S
C3003 C3000 1.386 . S
C3004 C2999 1.490 . S
C3004 C3006 1.395 . S
C3004 C3007 1.403 . S
H3005 C3011 0.930 . S
C3006 H2992 0.930 . S
C3006 C3004 1.395 . S
C3006 C3009 1.403 . S
C3007 C3004 1.403 . S
C3007 C3008 1.524 . S
C3007 C3011 1.400 . S
C3008 H2993 0.960 . S
C3008 H2994 0.960 . S
C3008 H2995 0.960 . S
C3008 C3007 1.524 . S
C3009 C3006 1.403 . S
C3009 C3010 1.392 . S
C3009 C3013 1.495 . S
C3010 C3009 1.392 . S
C3010 C3011 1.385 . S
C3010 C3012 1.478 . S
C3011 H3005 0.930 . S
C3011 C3007 1.400 . S
C3011 C3010 1.385 . S
C3012 C3010 1.478 . S
C3012 C3014 1.381 . S
C3012 C3018 1.383 . S
C3013 C3009 1.495 . S
C3013 H3019 0.959 . S
C3013 H3020 0.961 . S
C3013 H3021 0.960 . S
C3014 C3012 1.381 . S
C3014 C3015 1.394 . S
C3014 H3022 0.930 . S
C3015 C3014 1.394 . S
C3015 C3016 1.383 . S
C3015 H3023 0.929 . S
C3016 C3015 1.383 . S
C3016 C3017 1.377 . S
C3017 H3001 0.930 . S
C3017 C3016 1.377 . S
C3017 C3018 1.379 . S
C3018 H3002 0.931 . S
C3018 C3012 1.383 . S
C3018 C3017 1.379 . S
H3019 C3013 0.959 . S
H3020 C3013 0.961 . S
H3021 C3013 0.960 . S
H3022 C3014 0.930 . S
H3023 C3015 0.929 . S
H3024 C3032 0.929 . S
H3025 C3034 0.930 . S
H3026 C3036 0.930 . S
H3027 C3039 0.929 . S
H3028 C3042 0.930 . S
H3029 C3044 0.960 . S
H3030 C3044 0.960 . S
H3031 C3044 0.960 . S
C3032 H3024 0.929 . S
C3032 C3033 1.377 . S
C3032 C3034 1.384 . S
C3033 C3032 1.377 . S
C3033 C3039 1.390 . S
C3034 H3025 0.930 . S
C3034 C3032 1.384 . S
C3034 C3035 1.372 . S
C3035 C3034 1.372 . S
C3035 C3036 1.400 . S
C3035 C3040 1.490 . S
C3036 H3026 0.930 . S
C3036 C3035 1.400 . S
C3036 C3039 1.386 . S
H3037 C3053 0.930 . S
H3038 C3054 0.931 . S
C3039 H3027 0.929 . S
C3039 C3033 1.390 . S
C3039 C3036 1.386 . S
C3040 C3035 1.490 . S
C3040 C3042 1.395 . S
C3040 C3043 1.403 . S
H3041 C3047 0.930 . S
C3042 H3028 0.930 . S
C3042 C3040 1.395 . S
C3042 C3045 1.403 . S
C3043 C3040 1.403 . S
C3043 C3044 1.524 . S
C3043 C3047 1.400 . S
C3044 H3029 0.960 . S
C3044 H3030 0.960 . S
C3044 H3031 0.960 . S
C3044 C3043 1.524 . S
C3045 C3042 1.403 . S
C3045 C3046 1.392 . S
C3045 C3049 1.495 . S
C3046 C3045 1.392 . S
C3046 C3047 1.385 . S
C3046 C3048 1.478 . S
C3047 H3041 0.930 . S
C3047 C3043 1.400 . S
C3047 C3046 1.385 . S
C3048 C3046 1.478 . S
C3048 C3050 1.381 . S
C3048 C3054 1.383 . S
C3049 C3045 1.495 . S
C3049 H3055 0.959 . S
C3049 H3056 0.961 . S
C3049 H3057 0.960 . S
C3050 C3048 1.381 . S
C3050 C3051 1.394 . S
C3050 H3058 0.930 . S
C3051 C3050 1.394 . S
C3051 C3052 1.383 . S
C3051 H3059 0.929 . S
C3052 C3051 1.383 . S
C3052 C3053 1.377 1_455 S
C3053 H3037 0.930 . S
C3053 C3052 1.377 1_655 S
C3053 C3054 1.379 1_655 S
C3054 H3038 0.931 . S
C3054 C3048 1.383 . S
C3054 C3053 1.379 1_455 S
H3055 C3049 0.959 . S
H3056 C3049 0.961 . S
H3057 C3049 0.960 . S
H3058 C3050 0.930 . S
H3059 C3051 0.929 . S
H3060 C3068 0.929 . S
H3061 C3070 0.930 . S
H3062 C3072 0.930 . S
H3063 C3075 0.929 . S
H3064 C3078 0.930 . S
H3065 C3080 0.960 . S
H3066 C3080 0.960 . S
H3067 C3080 0.960 . S
C3068 H3060 0.929 . S
C3068 C3069 1.377 . S
C3068 C3070 1.384 . S
C3069 C3068 1.377 . S
C3069 C3075 1.390 . S
C3070 H3061 0.930 . S
C3070 C3068 1.384 . S
C3070 C3071 1.372 . S
C3071 C3070 1.372 . S
C3071 C3072 1.400 . S
C3071 C3076 1.490 . S
C3072 H3062 0.930 . S
C3072 C3071 1.400 . S
C3072 C3075 1.386 . S
H3073 C3089 0.930 . S
H3074 C3090 0.931 . S
C3075 H3063 0.929 . S
C3075 C3069 1.390 . S
C3075 C3072 1.386 . S
C3076 C3071 1.490 . S
C3076 C3078 1.395 . S
C3076 C3079 1.403 . S
H3077 C3083 0.930 . S
C3078 H3064 0.930 . S
C3078 C3076 1.395 . S
C3078 C3081 1.403 . S
C3079 C3076 1.403 . S
C3079 C3080 1.524 . S
C3079 C3083 1.400 . S
C3080 H3065 0.960 . S
C3080 H3066 0.960 . S
C3080 H3067 0.960 . S
C3080 C3079 1.524 . S
C3081 C3078 1.403 . S
C3081 C3082 1.392 . S
C3081 C3085 1.495 . S
C3082 C3081 1.392 . S
C3082 C3083 1.385 . S
C3082 C3084 1.478 . S
C3083 H3077 0.930 . S
C3083 C3079 1.400 . S
C3083 C3082 1.385 . S
C3084 C3082 1.478 . S
C3084 C3086 1.381 . S
C3084 C3090 1.383 . S
C3085 C3081 1.495 . S
C3085 H3091 0.959 . S
C3085 H3092 0.961 . S
C3085 H3093 0.960 . S
C3086 C3084 1.381 . S
C3086 C3087 1.394 . S
C3086 H3094 0.930 . S
C3087 C3086 1.394 . S
C3087 C3088 1.383 . S
C3087 H3095 0.929 . S
C3088 C3087 1.383 . S
C3088 C3089 1.377 . S
C3089 H3073 0.930 . S
C3089 C3088 1.377 . S
C3089 C3090 1.379 . S
C3090 H3074 0.931 . S
C3090 C3084 1.383 . S
C3090 C3089 1.379 . S
H3091 C3085 0.959 . S
H3092 C3085 0.961 . S
H3093 C3085 0.960 . S
H3094 C3086 0.930 . S
H3095 C3087 0.929 . S
H3096 C3104 0.929 . S
H3097 C3106 0.930 . S
H3098 C3108 0.930 . S
H3099 C3111 0.929 . S
H3100 C3114 0.930 . S
H3101 C3116 0.960 . S
H3102 C3116 0.960 . S
H3103 C3116 0.960 . S
C3104 H3096 0.929 . S
C3104 C3105 1.377 . S
C3104 C3106 1.384 . S
C3105 C3104 1.377 . S
C3105 C3111 1.390 . S
C3106 H3097 0.930 . S
C3106 C3104 1.384 . S
C3106 C3107 1.372 . S
C3107 C3106 1.372 . S
C3107 C3108 1.400 . S
C3107 C3112 1.490 . S
C3108 H3098 0.930 . S
C3108 C3107 1.400 . S
C3108 C3111 1.386 . S
H3109 C3125 0.930 1_655 S
H3110 C3126 0.931 . S
C3111 H3099 0.929 . S
C3111 C3105 1.390 . S
C3111 C3108 1.386 . S
C3112 C3107 1.490 . S
C3112 C3114 1.395 . S
C3112 C3115 1.403 . S
H3113 C3119 0.930 . S
C3114 H3100 0.930 . S
C3114 C3112 1.395 . S
C3114 C3117 1.403 . S
C3115 C3112 1.403 . S
C3115 C3116 1.524 . S
C3115 C3119 1.400 . S
C3116 H3101 0.960 . S
C3116 H3102 0.960 . S
C3116 H3103 0.960 . S
C3116 C3115 1.524 . S
C3117 C3114 1.403 . S
C3117 C3118 1.392 . S
C3117 C3121 1.495 . S
C3118 C3117 1.392 . S
C3118 C3119 1.385 . S
C3118 C3120 1.478 . S
C3119 H3113 0.930 . S
C3119 C3115 1.400 . S
C3119 C3118 1.385 . S
C3120 C3118 1.478 . S
C3120 C3122 1.381 . S
C3120 C3126 1.383 . S
C3121 C3117 1.495 . S
C3121 H3127 0.959 . S
C3121 H3128 0.961 . S
C3121 H3129 0.960 . S
C3122 C3120 1.381 . S
C3122 C3123 1.394 . S
C3122 H3130 0.930 . S
C3123 C3122 1.394 . S
C3123 C3124 1.383 . S
C3123 H3131 0.929 . S
C3124 C3123 1.383 . S
C3124 C3125 1.377 . S
C3125 H3109 0.930 1_455 S
C3125 C3124 1.377 . S
C3125 C3126 1.379 . S
C3126 H3110 0.931 . S
C3126 C3120 1.383 . S
C3126 C3125 1.379 . S
H3127 C3121 0.959 . S
H3128 C3121 0.961 . S
H3129 C3121 0.960 . S
H3130 C3122 0.930 . S
H3131 C3123 0.929 . S
H3132 C3140 0.929 . S
H3133 C3142 0.930 . S
H3134 C3144 0.930 . S
H3135 C3147 0.929 . S
H3136 C3150 0.930 . S
H3137 C3152 0.960 . S
H3138 C3152 0.960 . S
H3139 C3152 0.960 . S
C3140 H3132 0.929 . S
C3140 C3141 1.377 . S
C3140 C3142 1.384 . S
C3141 C3140 1.377 . S
C3141 C3147 1.390 . S
C3142 H3133 0.930 . S
C3142 C3140 1.384 . S
C3142 C3143 1.372 . S
C3143 C3142 1.372 . S
C3143 C3144 1.400 . S
C3143 C3148 1.490 . S
C3144 H3134 0.930 . S
C3144 C3143 1.400 . S
C3144 C3147 1.386 . S
H3145 C3161 0.930 . S
H3146 C3162 0.931 . S
C3147 H3135 0.929 . S
C3147 C3141 1.390 . S
C3147 C3144 1.386 . S
C3148 C3143 1.490 . S
C3148 C3150 1.395 . S
C3148 C3151 1.403 . S
H3149 C3155 0.930 . S
C3150 H3136 0.930 . S
C3150 C3148 1.395 . S
C3150 C3153 1.403 . S
C3151 C3148 1.403 . S
C3151 C3152 1.524 . S
C3151 C3155 1.400 . S
C3152 H3137 0.960 . S
C3152 H3138 0.960 . S
C3152 H3139 0.960 . S
C3152 C3151 1.524 . S
C3153 C3150 1.403 . S
C3153 C3154 1.392 . S
C3153 C3157 1.495 . S
C3154 C3153 1.392 . S
C3154 C3155 1.385 . S
C3154 C3156 1.478 . S
C3155 H3149 0.930 . S
C3155 C3151 1.400 . S
C3155 C3154 1.385 . S
C3156 C3154 1.478 . S
C3156 C3158 1.381 . S
C3156 C3162 1.383 . S
C3157 C3153 1.495 . S
C3157 H3163 0.959 . S
C3157 H3164 0.961 . S
C3157 H3165 0.960 . S
C3158 C3156 1.381 . S
C3158 C3159 1.394 . S
C3158 H3166 0.930 . S
C3159 C3158 1.394 . S
C3159 C3160 1.383 . S
C3159 H3167 0.929 . S
C3160 C3159 1.383 . S
C3160 C3161 1.377 . S
C3161 H3145 0.930 . S
C3161 C3160 1.377 . S
C3161 C3162 1.379 . S
C3162 H3146 0.931 . S
C3162 C3156 1.383 . S
C3162 C3161 1.379 . S
H3163 C3157 0.959 . S
H3164 C3157 0.961 . S
H3165 C3157 0.960 . S
H3166 C3158 0.930 . S
H3167 C3159 0.929 . S
H3168 C3176 0.929 . S
H3169 C3178 0.930 . S
H3170 C3180 0.930 . S
H3171 C3183 0.929 . S
H3172 C3186 0.930 . S
H3173 C3188 0.960 . S
H3174 C3188 0.960 . S
H3175 C3188 0.960 . S
C3176 H3168 0.929 . S
C3176 C3177 1.377 1_455 S
C3176 C3178 1.384 1_455 S
C3177 C3176 1.377 1_655 S
C3177 C3183 1.390 . S
C3178 H3169 0.930 . S
C3178 C3176 1.384 1_655 S
C3178 C3179 1.372 . S
C3179 C3178 1.372 . S
C3179 C3180 1.400 . S
C3179 C3184 1.490 . S
C3180 H3170 0.930 . S
C3180 C3179 1.400 . S
C3180 C3183 1.386 . S
H3181 C3197 0.930 . S
H3182 C3198 0.931 . S
C3183 H3171 0.929 . S
C3183 C3177 1.390 . S
C3183 C3180 1.386 . S
C3184 C3179 1.490 . S
C3184 C3186 1.395 . S
C3184 C3187 1.403 . S
H3185 C3191 0.930 . S
C3186 H3172 0.930 . S
C3186 C3184 1.395 . S
C3186 C3189 1.403 . S
C3187 C3184 1.403 . S
C3187 C3188 1.524 . S
C3187 C3191 1.400 . S
C3188 H3173 0.960 . S
C3188 H3174 0.960 . S
C3188 H3175 0.960 . S
C3188 C3187 1.524 . S
C3189 C3186 1.403 . S
C3189 C3190 1.392 . S
C3189 C3193 1.495 . S
C3190 C3189 1.392 . S
C3190 C3191 1.385 . S
C3190 C3192 1.478 . S
C3191 H3185 0.930 . S
C3191 C3187 1.400 . S
C3191 C3190 1.385 . S
C3192 C3190 1.478 . S
C3192 C3194 1.381 . S
C3192 C3198 1.383 . S
C3193 C3189 1.495 . S
C3193 H3199 0.959 . S
C3193 H3200 0.961 . S
C3193 H3201 0.960 . S
C3194 C3192 1.381 . S
C3194 C3195 1.394 . S
C3194 H3202 0.930 . S
C3195 C3194 1.394 . S
C3195 C3196 1.383 . S
C3195 H3203 0.929 . S
C3196 C3195 1.383 . S
C3196 C3197 1.377 . S
C3197 H3181 0.930 . S
C3197 C3196 1.377 . S
C3197 C3198 1.379 . S
C3198 H3182 0.931 . S
C3198 C3192 1.383 . S
C3198 C3197 1.379 . S
H3199 C3193 0.959 . S
H3200 C3193 0.961 . S
H3201 C3193 0.960 . S
H3202 C3194 0.930 . S
H3203 C3195 0.929 . S
H3204 C3212 0.929 . S
H3205 C3214 0.930 . S
H3206 C3216 0.930 . S
H3207 C3219 0.929 . S
H3208 C3222 0.930 . S
H3209 C3224 0.960 . S
H3210 C3224 0.960 . S
H3211 C3224 0.960 . S
C3212 H3204 0.929 . S
C3212 C3213 1.377 . S
C3212 C3214 1.384 . S
C3213 C3212 1.377 . S
C3213 C3219 1.390 . S
C3214 H3205 0.930 . S
C3214 C3212 1.384 . S
C3214 C3215 1.372 . S
C3215 C3214 1.372 . S
C3215 C3216 1.400 . S
C3215 C3220 1.490 . S
C3216 H3206 0.930 . S
C3216 C3215 1.400 . S
C3216 C3219 1.386 . S
H3217 C3233 0.930 . S
H3218 C3234 0.931 . S
C3219 H3207 0.929 . S
C3219 C3213 1.390 . S
C3219 C3216 1.386 . S
C3220 C3215 1.490 . S
C3220 C3222 1.395 . S
C3220 C3223 1.403 . S
H3221 C3227 0.930 . S
C3222 H3208 0.930 . S
C3222 C3220 1.395 . S
C3222 C3225 1.403 . S
C3223 C3220 1.403 . S
C3223 C3224 1.524 . S
C3223 C3227 1.400 . S
C3224 H3209 0.960 . S
C3224 H3210 0.960 . S
C3224 H3211 0.960 . S
C3224 C3223 1.524 . S
C3225 C3222 1.403 . S
C3225 C3226 1.392 . S
C3225 C3229 1.495 . S
C3226 C3225 1.392 . S
C3226 C3227 1.385 . S
C3226 C3228 1.478 . S
C3227 H3221 0.930 . S
C3227 C3223 1.400 . S
C3227 C3226 1.385 . S
C3228 C3226 1.478 . S
C3228 C3230 1.381 . S
C3228 C3234 1.383 . S
C3229 C3225 1.495 . S
C3229 H3235 0.959 . S
C3229 H3236 0.961 . S
C3229 H3237 0.960 . S
C3230 C3228 1.381 . S
C3230 C3231 1.394 . S
C3230 H3238 0.930 . S
C3231 C3230 1.394 . S
C3231 C3232 1.383 . S
C3231 H3239 0.929 . S
C3232 C3231 1.383 . S
C3232 C3233 1.377 . S
C3233 H3217 0.930 . S
C3233 C3232 1.377 . S
C3233 C3234 1.379 . S
C3234 H3218 0.931 . S
C3234 C3228 1.383 . S
C3234 C3233 1.379 . S
H3235 C3229 0.959 . S
H3236 C3229 0.961 . S
H3237 C3229 0.960 . S
H3238 C3230 0.930 . S
H3239 C3231 0.929 . S
H3240 C3248 0.929 . S
H3241 C3250 0.930 . S
H3242 C3252 0.930 . S
H3243 C3255 0.929 1_455 S
H3244 C3258 0.930 . S
H3245 C3260 0.960 . S
H3246 C3260 0.960 . S
H3247 C3260 0.960 . S
C3248 H3240 0.929 . S
C3248 C3249 1.377 . S
C3248 C3250 1.384 . S
C3249 C3248 1.377 . S
C3249 C3255 1.390 . S
C3250 H3241 0.930 . S
C3250 C3248 1.384 . S
C3250 C3251 1.372 . S
C3251 C3250 1.372 . S
C3251 C3252 1.400 . S
C3251 C3256 1.490 . S
C3252 H3242 0.930 . S
C3252 C3251 1.400 . S
C3252 C3255 1.386 . S
H3253 C3269 0.930 . S
H3254 C3270 0.931 . S
C3255 H3243 0.929 1_655 S
C3255 C3249 1.390 . S
C3255 C3252 1.386 . S
C3256 C3251 1.490 . S
C3256 C3258 1.395 . S
C3256 C3259 1.403 . S
H3257 C3263 0.930 . S
C3258 H3244 0.930 . S
C3258 C3256 1.395 . S
C3258 C3261 1.403 . S
C3259 C3256 1.403 . S
C3259 C3260 1.524 . S
C3259 C3263 1.400 . S
C3260 H3245 0.960 . S
C3260 H3246 0.960 . S
C3260 H3247 0.960 . S
C3260 C3259 1.524 . S
C3261 C3258 1.403 . S
C3261 C3262 1.392 . S
C3261 C3265 1.495 . S
C3262 C3261 1.392 . S
C3262 C3263 1.385 . S
C3262 C3264 1.478 . S
C3263 H3257 0.930 . S
C3263 C3259 1.400 . S
C3263 C3262 1.385 . S
C3264 C3262 1.478 . S
C3264 C3266 1.381 . S
C3264 C3270 1.383 . S
C3265 C3261 1.495 . S
C3265 H3271 0.959 . S
C3265 H3272 0.961 . S
C3265 H3273 0.960 . S
C3266 C3264 1.381 . S
C3266 C3267 1.394 . S
C3266 H3274 0.930 . S
C3267 C3266 1.394 . S
C3267 C3268 1.383 . S
C3267 H3275 0.929 . S
C3268 C3267 1.383 . S
C3268 C3269 1.377 . S
C3269 H3253 0.930 . S
C3269 C3268 1.377 . S
C3269 C3270 1.379 . S
C3270 H3254 0.931 . S
C3270 C3264 1.383 . S
C3270 C3269 1.379 . S
H3271 C3265 0.959 . S
H3272 C3265 0.961 . S
H3273 C3265 0.960 . S
H3274 C3266 0.930 . S
H3275 C3267 0.929 . S
H3276 C3284 0.929 . S
H3277 C3286 0.930 . S
H3278 C3288 0.930 . S
H3279 C3291 0.929 . S
H3280 C3294 0.930 . S
H3281 C3296 0.960 . S
H3282 C3296 0.960 . S
H3283 C3296 0.960 . S
C3284 H3276 0.929 . S
C3284 C3285 1.377 . S
C3284 C3286 1.384 . S
C3285 C3284 1.377 . S
C3285 C3291 1.390 . S
C3286 H3277 0.930 . S
C3286 C3284 1.384 . S
C3286 C3287 1.372 . S
C3287 C3286 1.372 . S
C3287 C3288 1.400 . S
C3287 C3292 1.490 . S
C3288 H3278 0.930 . S
C3288 C3287 1.400 . S
C3288 C3291 1.386 . S
H3289 C3305 0.930 . S
H3290 C3306 0.931 . S
C3291 H3279 0.929 . S
C3291 C3285 1.390 . S
C3291 C3288 1.386 . S
C3292 C3287 1.490 . S
C3292 C3294 1.395 . S
C3292 C3295 1.403 . S
H3293 C3299 0.930 . S
C3294 H3280 0.930 . S
C3294 C3292 1.395 . S
C3294 C3297 1.403 . S
C3295 C3292 1.403 . S
C3295 C3296 1.524 . S
C3295 C3299 1.400 . S
C3296 H3281 0.960 . S
C3296 H3282 0.960 . S
C3296 H3283 0.960 . S
C3296 C3295 1.524 . S
C3297 C3294 1.403 . S
C3297 C3298 1.392 . S
C3297 C3301 1.495 . S
C3298 C3297 1.392 . S
C3298 C3299 1.385 . S
C3298 C3300 1.478 . S
C3299 H3293 0.930 . S
C3299 C3295 1.400 . S
C3299 C3298 1.385 . S
C3300 C3298 1.478 . S
C3300 C3302 1.381 . S
C3300 C3306 1.383 . S
C3301 C3297 1.495 . S
C3301 H3307 0.959 . S
C3301 H3308 0.961 . S
C3301 H3309 0.960 . S
C3302 C3300 1.381 . S
C3302 C3303 1.394 . S
C3302 H3310 0.930 . S
C3303 C3302 1.394 . S
C3303 C3304 1.383 . S
C3303 H3311 0.929 . S
C3304 C3303 1.383 . S
C3304 C3305 1.377 . S
C3305 H3289 0.930 . S
C3305 C3304 1.377 . S
C3305 C3306 1.379 . S
C3306 H3290 0.931 . S
C3306 C3300 1.383 . S
C3306 C3305 1.379 . S
H3307 C3301 0.959 . S
H3308 C3301 0.961 . S
H3309 C3301 0.960 . S
H3310 C3302 0.930 . S
H3311 C3303 0.929 . S
H3312 C3320 0.929 . S
H3313 C3322 0.930 . S
H3314 C3324 0.930 . S
H3315 C3327 0.929 . S
H3316 C3330 0.930 . S
H3317 C3332 0.960 . S
H3318 C3332 0.960 . S
H3319 C3332 0.960 . S
C3320 H3312 0.929 . S
C3320 C3321 1.377 . S
C3320 C3322 1.384 . S
C3321 C3320 1.377 . S
C3321 C3327 1.390 . S
C3322 H3313 0.930 . S
C3322 C3320 1.384 . S
C3322 C3323 1.372 . S
C3323 C3322 1.372 . S
C3323 C3324 1.400 . S
C3323 C3328 1.490 . S
C3324 H3314 0.930 . S
C3324 C3323 1.400 . S
C3324 C3327 1.386 . S
H3325 C3341 0.930 . S
H3326 C3342 0.931 . S
C3327 H3315 0.929 . S
C3327 C3321 1.390 . S
C3327 C3324 1.386 . S
C3328 C3323 1.490 . S
C3328 C3330 1.395 . S
C3328 C3331 1.403 . S
H3329 C3335 0.930 . S
C3330 H3316 0.930 . S
C3330 C3328 1.395 . S
C3330 C3333 1.403 . S
C3331 C3328 1.403 . S
C3331 C3332 1.524 . S
C3331 C3335 1.400 . S
C3332 H3317 0.960 . S
C3332 H3318 0.960 . S
C3332 H3319 0.960 . S
C3332 C3331 1.524 . S
C3333 C3330 1.403 . S
C3333 C3334 1.392 . S
C3333 C3337 1.495 . S
C3334 C3333 1.392 . S
C3334 C3335 1.385 . S
C3334 C3336 1.478 . S
C3335 H3329 0.930 . S
C3335 C3331 1.400 . S
C3335 C3334 1.385 . S
C3336 C3334 1.478 . S
C3336 C3338 1.381 . S
C3336 C3342 1.383 . S
C3337 C3333 1.495 . S
C3337 H3343 0.959 . S
C3337 H3344 0.961 . S
C3337 H3345 0.960 . S
C3338 C3336 1.381 . S
C3338 C3339 1.394 . S
C3338 H3346 0.930 . S
C3339 C3338 1.394 . S
C3339 C3340 1.383 . S
C3339 H3347 0.929 . S
C3340 C3339 1.383 . S
C3340 C3341 1.377 . S
C3341 H3325 0.930 . S
C3341 C3340 1.377 . S
C3341 C3342 1.379 . S
C3342 H3326 0.931 . S
C3342 C3336 1.383 . S
C3342 C3341 1.379 . S
H3343 C3337 0.959 . S
H3344 C3337 0.961 . S
H3345 C3337 0.960 . S
H3346 C3338 0.930 . S
H3347 C3339 0.929 . S
H3348 C3356 0.929 . S
H3349 C3358 0.930 . S
H3350 C3360 0.930 . S
H3351 C3363 0.929 . S
H3352 C3366 0.930 . S
H3353 C3368 0.960 . S
H3354 C3368 0.960 . S
H3355 C3368 0.960 . S
C3356 H3348 0.929 . S
C3356 C3357 1.377 . S
C3356 C3358 1.384 . S
C3357 C3356 1.377 . S
C3357 C3363 1.390 . S
C3358 H3349 0.930 . S
C3358 C3356 1.384 . S
C3358 C3359 1.372 . S
C3359 C3358 1.372 . S
C3359 C3360 1.400 . S
C3359 C3364 1.490 . S
C3360 H3350 0.930 . S
C3360 C3359 1.400 . S
C3360 C3363 1.386 . S
H3361 C3377 0.930 . S
H3362 C3378 0.931 . S
C3363 H3351 0.929 . S
C3363 C3357 1.390 . S
C3363 C3360 1.386 . S
C3364 C3359 1.490 . S
C3364 C3366 1.395 . S
C3364 C3367 1.403 . S
H3365 C3371 0.930 . S
C3366 H3352 0.930 . S
C3366 C3364 1.395 . S
C3366 C3369 1.403 . S
C3367 C3364 1.403 . S
C3367 C3368 1.524 . S
C3367 C3371 1.400 . S
C3368 H3353 0.960 . S
C3368 H3354 0.960 . S
C3368 H3355 0.960 . S
C3368 C3367 1.524 . S
C3369 C3366 1.403 . S
C3369 C3370 1.392 . S
C3369 C3373 1.495 . S
C3370 C3369 1.392 . S
C3370 C3371 1.385 . S
C3370 C3372 1.478 . S
C3371 H3365 0.930 . S
C3371 C3367 1.400 . S
C3371 C3370 1.385 . S
C3372 C3370 1.478 . S
C3372 C3374 1.381 . S
C3372 C3378 1.383 . S
C3373 C3369 1.495 . S
C3373 H3379 0.959 . S
C3373 H3380 0.961 . S
C3373 H3381 0.960 . S
C3374 C3372 1.381 . S
C3374 C3375 1.394 . S
C3374 H3382 0.930 . S
C3375 C3374 1.394 . S
C3375 C3376 1.383 . S
C3375 H3383 0.929 . S
C3376 C3375 1.383 . S
C3376 C3377 1.377 . S
C3377 H3361 0.930 . S
C3377 C3376 1.377 . S
C3377 C3378 1.379 . S
C3378 H3362 0.931 . S
C3378 C3372 1.383 . S
C3378 C3377 1.379 . S
H3379 C3373 0.959 . S
H3380 C3373 0.961 . S
H3381 C3373 0.960 . S
H3382 C3374 0.930 . S
H3383 C3375 0.929 . S
H3384 C3392 0.929 1_655 S
H3385 C3394 0.930 . S
H3386 C3396 0.930 . S
H3387 C3399 0.929 . S
H3388 C3402 0.930 . S
H3389 C3404 0.960 . S
H3390 C3404 0.960 . S
H3391 C3404 0.960 . S
C3392 H3384 0.929 1_455 S
C3392 C3393 1.377 . S
C3392 C3394 1.384 . S
C3393 C3392 1.377 . S
C3393 C3399 1.390 . S
C3394 H3385 0.930 . S
C3394 C3392 1.384 . S
C3394 C3395 1.372 . S
C3395 C3394 1.372 . S
C3395 C3396 1.400 . S
C3395 C3400 1.490 . S
C3396 H3386 0.930 . S
C3396 C3395 1.400 . S
C3396 C3399 1.386 . S
H3397 C3413 0.930 . S
H3398 C3414 0.931 . S
C3399 H3387 0.929 . S
C3399 C3393 1.390 . S
C3399 C3396 1.386 . S
C3400 C3395 1.490 . S
C3400 C3402 1.395 . S
C3400 C3403 1.403 . S
H3401 C3407 0.930 . S
C3402 H3388 0.930 . S
C3402 C3400 1.395 . S
C3402 C3405 1.403 . S
C3403 C3400 1.403 . S
C3403 C3404 1.524 . S
C3403 C3407 1.400 . S
C3404 H3389 0.960 . S
C3404 H3390 0.960 . S
C3404 H3391 0.960 . S
C3404 C3403 1.524 . S
C3405 C3402 1.403 . S
C3405 C3406 1.392 . S
C3405 C3409 1.495 . S
C3406 C3405 1.392 . S
C3406 C3407 1.385 . S
C3406 C3408 1.478 . S
C3407 H3401 0.930 . S
C3407 C3403 1.400 . S
C3407 C3406 1.385 . S
C3408 C3406 1.478 . S
C3408 C3410 1.381 . S
C3408 C3414 1.383 . S
C3409 C3405 1.495 . S
C3409 H3415 0.959 . S
C3409 H3416 0.961 . S
C3409 H3417 0.960 . S
C3410 C3408 1.381 . S
C3410 C3411 1.394 . S
C3410 H3418 0.930 . S
C3411 C3410 1.394 . S
C3411 C3412 1.383 . S
C3411 H3419 0.929 . S
C3412 C3411 1.383 . S
C3412 C3413 1.377 . S
C3413 H3397 0.930 . S
C3413 C3412 1.377 . S
C3413 C3414 1.379 . S
C3414 H3398 0.931 . S
C3414 C3408 1.383 . S
C3414 C3413 1.379 . S
H3415 C3409 0.959 . S
H3416 C3409 0.961 . S
H3417 C3409 0.960 . S
H3418 C3410 0.930 . S
H3419 C3411 0.929 . S
H3420 C3428 0.929 . S
H3421 C3430 0.930 . S
H3422 C3432 0.930 . S
H3423 C3435 0.929 . S
H3424 C3438 0.930 . S
H3425 C3440 0.960 . S
H3426 C3440 0.960 . S
H3427 C3440 0.960 . S
C3428 H3420 0.929 . S
C3428 C3429 1.377 . S
C3428 C3430 1.384 . S
C3429 C3428 1.377 . S
C3429 C3435 1.390 . S
C3430 H3421 0.930 . S
C3430 C3428 1.384 . S
C3430 C3431 1.372 . S
C3431 C3430 1.372 . S
C3431 C3432 1.400 . S
C3431 C3436 1.490 . S
C3432 H3422 0.930 . S
C3432 C3431 1.400 . S
C3432 C3435 1.386 . S
H3433 C3449 0.930 . S
H3434 C3450 0.931 . S
C3435 H3423 0.929 . S
C3435 C3429 1.390 . S
C3435 C3432 1.386 . S
C3436 C3431 1.490 . S
C3436 C3438 1.395 . S
C3436 C3439 1.403 . S
H3437 C3443 0.930 . S
C3438 H3424 0.930 . S
C3438 C3436 1.395 . S
C3438 C3441 1.403 . S
C3439 C3436 1.403 . S
C3439 C3440 1.524 . S
C3439 C3443 1.400 . S
C3440 H3425 0.960 . S
C3440 H3426 0.960 . S
C3440 H3427 0.960 . S
C3440 C3439 1.524 . S
C3441 C3438 1.403 . S
C3441 C3442 1.392 . S
C3441 C3445 1.495 . S
C3442 C3441 1.392 . S
C3442 C3443 1.385 . S
C3442 C3444 1.478 . S
C3443 H3437 0.930 . S
C3443 C3439 1.400 . S
C3443 C3442 1.385 . S
C3444 C3442 1.478 . S
C3444 C3446 1.381 . S
C3444 C3450 1.383 . S
C3445 C3441 1.495 . S
C3445 H3451 0.959 . S
C3445 H3452 0.961 . S
C3445 H3453 0.960 . S
C3446 C3444 1.381 . S
C3446 C3447 1.394 . S
C3446 H3454 0.930 . S
C3447 C3446 1.394 . S
C3447 C3448 1.383 . S
C3447 H3455 0.929 . S
C3448 C3447 1.383 . S
C3448 C3449 1.377 . S
C3449 H3433 0.930 . S
C3449 C3448 1.377 . S
C3449 C3450 1.379 . S
C3450 H3434 0.931 . S
C3450 C3444 1.383 . S
C3450 C3449 1.379 . S
H3451 C3445 0.959 . S
H3452 C3445 0.961 . S
H3453 C3445 0.960 . S
H3454 C3446 0.930 . S
H3455 C3447 0.929 . S
C1161 C110 0.984 . S
C1180 C2 0.963 . S
C1197 C74 0.983 . S
C1216 C38 0.998 . S
C1233 C255 0.603 . S
C1252 C147 0.606 . S
C1269 C219 0.604 . S
C1288 C183 0.584 . S
C1305 C290 0.994 . S
C1324 C398 1.034 . S
C1341 C326 1.000 . S
C1360 C362 0.972 . S
C1377 C543 0.611 . S
C1396 C435 0.641 . S
C1413 C471 0.603 . S
C1432 C507 0.582 . S
C1449 C578 0.988 . S
C1468 C686 1.027 . S
C1485 C614 0.999 . S
C1504 C650 1.026 . S
C1521 C831 0.607 . S
C1540 C723 0.627 . S
C1557 C795 0.598 . S
C1576 C759 0.570 . S
C1593 C974 0.996 . S
C1612 C866 0.955 . S
C1629 C902 0.995 . S
C1648 C938 1.034 . S
C1665 C1011 0.601 . S
C1684 C1119 0.573 . S
C1701 C1047 0.599 . S
C1720 C1083 0.569 . S
C1737 C722 1.107 . S
C1756 C3 1.153 . S
C1773 C470 1.109 . S
C1792 C39 1.143 . S
C1809 C75 1.132 . S
C1828 C1082 1.066 . S
C1845 C111 1.132 . S
C1864 C254 1.060 . S
C1881 C579 1.137 . S
C1900 C146 1.080 . S
C1917 C327 1.132 . S
C1936 C182 1.062 . S
C1953 C939 1.137 . S
C1972 C218 1.135 . S
C1989 C291 1.139 . S
C2008 C1010 1.134 . S
C2025 C794 1.095 . S
C2044 C363 1.133 . S
C2061 C542 1.108 . S
C2080 C399 1.138 . S
C2097 C867 1.137 . S
C2116 C434 1.089 . S
C2133 C506 1.106 . S
C2152 C651 1.129 . S
C2169 C1046 1.096 . S
C2188 C615 1.135 . S
C2205 C687 1.131 . S
C2224 C830 1.068 . S
C2241 C903 1.132 . S
C2260 C758 1.063 . S
C2277 C1118 1.095 . S
C2296 C975 1.115 . S
C2313 C40 1.267 . S
C2332 C4 1.238 . S
C2349 C76 1.261 . S
C2368 C112 1.284 . S
C2385 C158 1.157 . S
C2404 C194 1.134 . S
C2421 C266 1.157 . S
C2440 C230 1.136 . S
C2457 C292 1.263 . S
C2476 C328 1.291 . S
C2493 C364 1.265 . S
C2512 C400 1.291 . S
C2529 C482 1.157 . S
C2548 C446 1.139 . S
C2565 C518 1.149 . S
C2584 C554 1.174 . S
C2601 C580 1.261 . S
C2620 C616 1.265 . S
C2637 C652 1.262 . S
C2656 C688 1.289 . S
C2673 C734 1.153 . S
C2692 C770 1.158 . S
C2709 C842 1.154 . S
C2728 C806 1.153 . S
C2745 C904 1.272 . S
C2764 C868 1.262 . S
C2781 C940 1.265 . S
C2800 C976 1.291 . S
C2817 C1022 1.148 . S
C2836 C1058 1.179 . S
C2853 C1130 1.156 . S
C2872 C1094 1.143 . S
C2889 C14 1.674 1_655 S
C2908 C698 1.647 . S
C2925 C50 1.673 . S
C2944 C662 1.643 . S
C2961 C626 1.672 . S
C2980 C86 1.672 1_655 S
C2997 C122 1.673 . S
C3016 C590 1.646 . S
C3033 C832 1.229 . S
C3052 C148 1.242 1_455 S
C3069 C184 1.229 . S
C3088 C796 1.224 . S
C3105 C760 1.234 . S
C3124 C220 1.253 1_455 S
C3141 C256 1.231 . S
C3160 C724 1.209 . S
C3177 C302 1.671 1_655 S
C3196 C986 1.643 . S
C3213 C338 1.674 . S
C3232 C950 1.653 . S
C3249 C374 1.665 1_655 S
C3268 C914 1.671 . S
C3285 C878 1.666 . S
C3304 C410 1.662 . S
C3321 C436 1.235 1_455 S
C3340 C1120 1.251 . S
C3357 C472 1.235 . S
C3376 C1084 1.252 . S
C3393 C508 1.234 1_455 S
C3412 C1048 1.253 . S
C3429 C1012 1.238 . S
C3448 C544 1.235 . S
