# Generated by pormake.
# Topology ukp, (4)-cn, num edge types: 1
# Building blocks:
#     Node 0, Type 0, BuildingBlock: NAWXER_clean_sbu_0, # of connection points: 4
#     Node 1, Type 0, BuildingBlock: NAWXER_clean_sbu_0, # of connection points: 4
#     Node 2, Type 0, BuildingBlock: NAWXER_clean_sbu_0, # of connection points: 4
#     Node 3, Type 0, BuildingBlock: NAWXER_clean_sbu_0, # of connection points: 4
#     Node 4, Type 0, BuildingBlock: NAWXER_clean_sbu_0, # of connection points: 4
#     Node 5, Type 0, BuildingBlock: NAWXER_clean_sbu_0, # of connection points: 4
#     Node 6, Type 0, BuildingBlock: NAWXER_clean_sbu_0, # of connection points: 4
#     Node 7, Type 0, BuildingBlock: NAWXER_clean_sbu_0, # of connection points: 4
#     Node 8, Type 0, BuildingBlock: NAWXER_clean_sbu_0, # of connection points: 4
#     Node 9, Type 0, BuildingBlock: NAWXER_clean_sbu_0, # of connection points: 4
#     Node 10, Type 0, BuildingBlock: NAWXER_clean_sbu_0, # of connection points: 4
#     Node 11, Type 0, BuildingBlock: NAWXER_clean_sbu_0, # of connection points: 4
#     Node 12, Type 0, BuildingBlock: NAWXER_clean_sbu_0, # of connection points: 4
#     Node 13, Type 0, BuildingBlock: NAWXER_clean_sbu_0, # of connection points: 4
#     Node 14, Type 0, BuildingBlock: NAWXER_clean_sbu_0, # of connection points: 4
#     Node 15, Type 0, BuildingBlock: NAWXER_clean_sbu_0, # of connection points: 4
#     Node 16, Type 0, BuildingBlock: NAWXER_clean_sbu_0, # of connection points: 4
#     Node 17, Type 0, BuildingBlock: NAWXER_clean_sbu_0, # of connection points: 4
#     Node 18, Type 0, BuildingBlock: NAWXER_clean_sbu_0, # of connection points: 4
#     Node 19, Type 0, BuildingBlock: NAWXER_clean_sbu_0, # of connection points: 4
#     Node 20, Type 0, BuildingBlock: NAWXER_clean_sbu_0, # of connection points: 4
#     Node 21, Type 0, BuildingBlock: NAWXER_clean_sbu_0, # of connection points: 4
#     Node 22, Type 0, BuildingBlock: NAWXER_clean_sbu_0, # of connection points: 4
#     Node 23, Type 0, BuildingBlock: NAWXER_clean_sbu_0, # of connection points: 4
#     Node 24, Type 0, BuildingBlock: NAWXER_clean_sbu_0, # of connection points: 4
#     Node 25, Type 0, BuildingBlock: NAWXER_clean_sbu_0, # of connection points: 4
#     Node 26, Type 0, BuildingBlock: NAWXER_clean_sbu_0, # of connection points: 4
#     Node 27, Type 0, BuildingBlock: NAWXER_clean_sbu_0, # of connection points: 4
#     Node 28, Type 0, BuildingBlock: NAWXER_clean_sbu_0, # of connection points: 4
#     Node 29, Type 0, BuildingBlock: NAWXER_clean_sbu_0, # of connection points: 4
#     Node 30, Type 0, BuildingBlock: NAWXER_clean_sbu_0, # of connection points: 4
#     Node 31, Type 0, BuildingBlock: NAWXER_clean_sbu_0, # of connection points: 4
#     Node 32, Type 0, BuildingBlock: NAWXER_clean_sbu_0, # of connection points: 4
#     Node 33, Type 0, BuildingBlock: NAWXER_clean_sbu_0, # of connection points: 4
#     Node 34, Type 0, BuildingBlock: NAWXER_clean_sbu_0, # of connection points: 4
#     Node 35, Type 0, BuildingBlock: NAWXER_clean_sbu_0, # of connection points: 4
#     Node 36, Type 0, BuildingBlock: NAWXER_clean_sbu_0, # of connection points: 4
#     Node 37, Type 0, BuildingBlock: NAWXER_clean_sbu_0, # of connection points: 4
#     Node 38, Type 0, BuildingBlock: NAWXER_clean_sbu_0, # of connection points: 4
#     Node 39, Type 0, BuildingBlock: NAWXER_clean_sbu_0, # of connection points: 4
#     Node 40, Type 0, BuildingBlock: NAWXER_clean_sbu_0, # of connection points: 4
#     Node 41, Type 0, BuildingBlock: NAWXER_clean_sbu_0, # of connection points: 4
#     Node 42, Type 0, BuildingBlock: NAWXER_clean_sbu_0, # of connection points: 4
#     Node 43, Type 0, BuildingBlock: NAWXER_clean_sbu_0, # of connection points: 4
#     Node 44, Type 0, BuildingBlock: NAWXER_clean_sbu_0, # of connection points: 4
#     Node 45, Type 0, BuildingBlock: NAWXER_clean_sbu_0, # of connection points: 4
#     Node 46, Type 0, BuildingBlock: NAWXER_clean_sbu_0, # of connection points: 4
#     Node 47, Type 0, BuildingBlock: NAWXER_clean_sbu_0, # of connection points: 4
#     Edge 48, Type (0, 0), BuildingBlock: XIVTED_clean_linker_0, # of connection points: 2
#     Edge 49, Type (0, 0), BuildingBlock: XIVTED_clean_linker_0, # of connection points: 2
#     Edge 50, Type (0, 0), BuildingBlock: XIVTED_clean_linker_0, # of connection points: 2
#     Edge 51, Type (0, 0), BuildingBlock: XIVTED_clean_linker_0, # of connection points: 2
#     Edge 52, Type (0, 0), BuildingBlock: XIVTED_clean_linker_0, # of connection points: 2
#     Edge 53, Type (0, 0), BuildingBlock: XIVTED_clean_linker_0, # of connection points: 2
#     Edge 54, Type (0, 0), BuildingBlock: XIVTED_clean_linker_0, # of connection points: 2
#     Edge 55, Type (0, 0), BuildingBlock: XIVTED_clean_linker_0, # of connection points: 2
#     Edge 56, Type (0, 0), BuildingBlock: XIVTED_clean_linker_0, # of connection points: 2
#     Edge 57, Type (0, 0), BuildingBlock: XIVTED_clean_linker_0, # of connection points: 2
#     Edge 58, Type (0, 0), BuildingBlock: XIVTED_clean_linker_0, # of connection points: 2
#     Edge 59, Type (0, 0), BuildingBlock: XIVTED_clean_linker_0, # of connection points: 2
#     Edge 60, Type (0, 0), BuildingBlock: XIVTED_clean_linker_0, # of connection points: 2
#     Edge 61, Type (0, 0), BuildingBlock: XIVTED_clean_linker_0, # of connection points: 2
#     Edge 62, Type (0, 0), BuildingBlock: XIVTED_clean_linker_0, # of connection points: 2
#     Edge 63, Type (0, 0), BuildingBlock: XIVTED_clean_linker_0, # of connection points: 2
#     Edge 64, Type (0, 0), BuildingBlock: XIVTED_clean_linker_0, # of connection points: 2
#     Edge 65, Type (0, 0), BuildingBlock: XIVTED_clean_linker_0, # of connection points: 2
#     Edge 66, Type (0, 0), BuildingBlock: XIVTED_clean_linker_0, # of connection points: 2
#     Edge 67, Type (0, 0), BuildingBlock: XIVTED_clean_linker_0, # of connection points: 2
#     Edge 68, Type (0, 0), BuildingBlock: XIVTED_clean_linker_0, # of connection points: 2
#     Edge 69, Type (0, 0), BuildingBlock: XIVTED_clean_linker_0, # of connection points: 2
#     Edge 70, Type (0, 0), BuildingBlock: XIVTED_clean_linker_0, # of connection points: 2
#     Edge 71, Type (0, 0), BuildingBlock: XIVTED_clean_linker_0, # of connection points: 2
#     Edge 72, Type (0, 0), BuildingBlock: XIVTED_clean_linker_0, # of connection points: 2
#     Edge 73, Type (0, 0), BuildingBlock: XIVTED_clean_linker_0, # of connection points: 2
#     Edge 74, Type (0, 0), BuildingBlock: XIVTED_clean_linker_0, # of connection points: 2
#     Edge 75, Type (0, 0), BuildingBlock: XIVTED_clean_linker_0, # of connection points: 2
#     Edge 76, Type (0, 0), BuildingBlock: XIVTED_clean_linker_0, # of connection points: 2
#     Edge 77, Type (0, 0), BuildingBlock: XIVTED_clean_linker_0, # of connection points: 2
#     Edge 78, Type (0, 0), BuildingBlock: XIVTED_clean_linker_0, # of connection points: 2
#     Edge 79, Type (0, 0), BuildingBlock: XIVTED_clean_linker_0, # of connection points: 2
#     Edge 80, Type (0, 0), BuildingBlock: XIVTED_clean_linker_0, # of connection points: 2
#     Edge 81, Type (0, 0), BuildingBlock: XIVTED_clean_linker_0, # of connection points: 2
#     Edge 82, Type (0, 0), BuildingBlock: XIVTED_clean_linker_0, # of connection points: 2
#     Edge 83, Type (0, 0), BuildingBlock: XIVTED_clean_linker_0, # of connection points: 2
#     Edge 84, Type (0, 0), BuildingBlock: XIVTED_clean_linker_0, # of connection points: 2
#     Edge 85, Type (0, 0), BuildingBlock: XIVTED_clean_linker_0, # of connection points: 2
#     Edge 86, Type (0, 0), BuildingBlock: XIVTED_clean_linker_0, # of connection points: 2
#     Edge 87, Type (0, 0), BuildingBlock: XIVTED_clean_linker_0, # of connection points: 2
#     Edge 88, Type (0, 0), BuildingBlock: XIVTED_clean_linker_0, # of connection points: 2
#     Edge 89, Type (0, 0), BuildingBlock: XIVTED_clean_linker_0, # of connection points: 2
#     Edge 90, Type (0, 0), BuildingBlock: XIVTED_clean_linker_0, # of connection points: 2
#     Edge 91, Type (0, 0), BuildingBlock: XIVTED_clean_linker_0, # of connection points: 2
#     Edge 92, Type (0, 0), BuildingBlock: XIVTED_clean_linker_0, # of connection points: 2
#     Edge 93, Type (0, 0), BuildingBlock: XIVTED_clean_linker_0, # of connection points: 2
#     Edge 94, Type (0, 0), BuildingBlock: XIVTED_clean_linker_0, # of connection points: 2
#     Edge 95, Type (0, 0), BuildingBlock: XIVTED_clean_linker_0, # of connection points: 2
#     Edge 96, Type (0, 0), BuildingBlock: XIVTED_clean_linker_0, # of connection points: 2
#     Edge 97, Type (0, 0), BuildingBlock: XIVTED_clean_linker_0, # of connection points: 2
#     Edge 98, Type (0, 0), BuildingBlock: XIVTED_clean_linker_0, # of connection points: 2
#     Edge 99, Type (0, 0), BuildingBlock: XIVTED_clean_linker_0, # of connection points: 2
#     Edge 100, Type (0, 0), BuildingBlock: XIVTED_clean_linker_0, # of connection points: 2
#     Edge 101, Type (0, 0), BuildingBlock: XIVTED_clean_linker_0, # of connection points: 2
#     Edge 102, Type (0, 0), BuildingBlock: XIVTED_clean_linker_0, # of connection points: 2
#     Edge 103, Type (0, 0), BuildingBlock: XIVTED_clean_linker_0, # of connection points: 2
#     Edge 104, Type (0, 0), BuildingBlock: XIVTED_clean_linker_0, # of connection points: 2
#     Edge 105, Type (0, 0), BuildingBlock: XIVTED_clean_linker_0, # of connection points: 2
#     Edge 106, Type (0, 0), BuildingBlock: XIVTED_clean_linker_0, # of connection points: 2
#     Edge 107, Type (0, 0), BuildingBlock: XIVTED_clean_linker_0, # of connection points: 2
#     Edge 108, Type (0, 0), BuildingBlock: XIVTED_clean_linker_0, # of connection points: 2
#     Edge 109, Type (0, 0), BuildingBlock: XIVTED_clean_linker_0, # of connection points: 2
#     Edge 110, Type (0, 0), BuildingBlock: XIVTED_clean_linker_0, # of connection points: 2
#     Edge 111, Type (0, 0), BuildingBlock: XIVTED_clean_linker_0, # of connection points: 2
#     Edge 112, Type (0, 0), BuildingBlock: XIVTED_clean_linker_0, # of connection points: 2
#     Edge 113, Type (0, 0), BuildingBlock: XIVTED_clean_linker_0, # of connection points: 2
#     Edge 114, Type (0, 0), BuildingBlock: XIVTED_clean_linker_0, # of connection points: 2
#     Edge 115, Type (0, 0), BuildingBlock: XIVTED_clean_linker_0, # of connection points: 2
#     Edge 116, Type (0, 0), BuildingBlock: XIVTED_clean_linker_0, # of connection points: 2
#     Edge 117, Type (0, 0), BuildingBlock: XIVTED_clean_linker_0, # of connection points: 2
#     Edge 118, Type (0, 0), BuildingBlock: XIVTED_clean_linker_0, # of connection points: 2
#     Edge 119, Type (0, 0), BuildingBlock: XIVTED_clean_linker_0, # of connection points: 2
#     Edge 120, Type (0, 0), BuildingBlock: XIVTED_clean_linker_0, # of connection points: 2
#     Edge 121, Type (0, 0), BuildingBlock: XIVTED_clean_linker_0, # of connection points: 2
#     Edge 122, Type (0, 0), BuildingBlock: XIVTED_clean_linker_0, # of connection points: 2
#     Edge 123, Type (0, 0), BuildingBlock: XIVTED_clean_linker_0, # of connection points: 2
#     Edge 124, Type (0, 0), BuildingBlock: XIVTED_clean_linker_0, # of connection points: 2
#     Edge 125, Type (0, 0), BuildingBlock: XIVTED_clean_linker_0, # of connection points: 2
#     Edge 126, Type (0, 0), BuildingBlock: XIVTED_clean_linker_0, # of connection points: 2
#     Edge 127, Type (0, 0), BuildingBlock: XIVTED_clean_linker_0, # of connection points: 2
#     Edge 128, Type (0, 0), BuildingBlock: XIVTED_clean_linker_0, # of connection points: 2
#     Edge 129, Type (0, 0), BuildingBlock: XIVTED_clean_linker_0, # of connection points: 2
#     Edge 130, Type (0, 0), BuildingBlock: XIVTED_clean_linker_0, # of connection points: 2
#     Edge 131, Type (0, 0), BuildingBlock: XIVTED_clean_linker_0, # of connection points: 2
#     Edge 132, Type (0, 0), BuildingBlock: XIVTED_clean_linker_0, # of connection points: 2
#     Edge 133, Type (0, 0), BuildingBlock: XIVTED_clean_linker_0, # of connection points: 2
#     Edge 134, Type (0, 0), BuildingBlock: XIVTED_clean_linker_0, # of connection points: 2
#     Edge 135, Type (0, 0), BuildingBlock: XIVTED_clean_linker_0, # of connection points: 2
#     Edge 136, Type (0, 0), BuildingBlock: XIVTED_clean_linker_0, # of connection points: 2
#     Edge 137, Type (0, 0), BuildingBlock: XIVTED_clean_linker_0, # of connection points: 2
#     Edge 138, Type (0, 0), BuildingBlock: XIVTED_clean_linker_0, # of connection points: 2
#     Edge 139, Type (0, 0), BuildingBlock: XIVTED_clean_linker_0, # of connection points: 2
#     Edge 140, Type (0, 0), BuildingBlock: XIVTED_clean_linker_0, # of connection points: 2
#     Edge 141, Type (0, 0), BuildingBlock: XIVTED_clean_linker_0, # of connection points: 2
#     Edge 142, Type (0, 0), BuildingBlock: XIVTED_clean_linker_0, # of connection points: 2
#     Edge 143, Type (0, 0), BuildingBlock: XIVTED_clean_linker_0, # of connection points: 2
# Relax obj value: 0.179
# Max RMSD: 0.216
# Mean RMSD: 0.216
data_MOF--net-ukp--node1-NAWXER_clean_sbu_0--edge1-XIVTED_clean_linker_0
_symmetry_space_group_name_H-M    P1
_symmetry_Int_Tables_number       1
_symmetry_cell_setting            triclinic
loop_
_symmetry_equiv_pos_as_xyz
'x, y, z'
_cell_length_a     60.906555
_cell_length_b     61.009045
_cell_length_c     61.068751
_cell_angle_alpha  90.074297
_cell_angle_beta   89.946633
_cell_angle_gamma 90.043304
loop_
_atom_site_label
_atom_site_type_symbol
_atom_site_fract_x
_atom_site_fract_y
_atom_site_fract_z
_atom_type_partial_charge
C0 C 0.23108 0.34081 0.3777 0.0
C1 C 0.18769 0.29065 0.42613 0.0
O2 O 0.2321 0.34211 0.3986 0.0
Zn3 Zn 0.21097 0.31735 0.40425 0.0
O4 O 0.21886 0.32648 0.36877 0.0
Zn5 Zn 0.19702 0.30105 0.37522 0.0
O6 O 0.17111 0.31537 0.36177 0.0
O7 O 0.18254 0.33257 0.39147 0.0
O8 O 0.1856 0.28769 0.40543 0.0
O9 O 0.20045 0.3058 0.4329 0.0
O10 O 0.23095 0.2918 0.39138 0.0
O11 O 0.21549 0.27804 0.36172 0.0
C12 C 0.16919 0.33113 0.3754 0.0
C13 C 0.23168 0.27874 0.37498 0.0
C14 C 0.99873 0.9474 0.67754 0.0
C15 C 0.95535 0.98189 0.61714 0.0
O16 O 0.98366 0.96167 0.68023 0.0
Zn17 Zn 0.9754 0.96665 0.64915 0.0
O18 O 1.00409 0.94168 0.65806 0.0
Zn19 Zn 0.99551 0.94889 0.62503 0.0
O20 O 1.02054 0.96565 0.61271 0.0
O21 O 1.00214 0.98508 0.63701 0.0
O22 O 0.9709 0.96896 0.61191 0.0
O23 O 0.95122 0.98561 0.63735 0.0
O24 O 0.96263 0.93589 0.63913 0.0
O25 O 0.98399 0.92057 0.61414 0.0
C26 C 1.01767 0.98365 0.62301 0.0
C27 C 0.96666 0.92015 0.62589 0.0
C28 C 0.28893 0.78062 0.89127 0.0
C29 C 0.34278 0.72488 0.90477 0.0
O30 O 0.30619 0.78477 0.87983 0.0
Zn31 Zn 0.34004 0.77167 0.87953 0.0
O32 O 0.28992 0.76617 0.90603 0.0
Zn33 Zn 0.31887 0.75577 0.89987 0.0
O34 O 0.34088 0.77708 0.91799 0.0
O35 O 0.35949 0.79374 0.89229 0.0
O36 O 0.32415 0.72874 0.91313 0.0
O37 O 0.35144 0.73915 0.8918 0.0
O38 O 0.34323 0.76733 0.84855 0.0
O39 O 0.31821 0.74636 0.86434 0.0
C40 C 0.35564 0.79101 0.91248 0.0
C41 C 0.32859 0.75255 0.84696 0.0
C42 C 0.5249 0.06894 0.12771 0.0
C43 C 0.5688 0.13754 0.12825 0.0
O44 O 0.52116 0.08554 0.11558 0.0
Zn45 Zn 0.54309 0.10586 0.128 0.0
O46 O 0.53958 0.07018 0.14262 0.0
Zn47 Zn 0.56392 0.09205 0.15431 0.0
O48 O 0.55404 0.09954 0.18472 0.0
O49 O 0.53175 0.11351 0.16003 0.0
O50 O 0.57353 0.12323 0.14275 0.0
O51 O 0.55227 0.13454 0.11574 0.0
O52 O 0.57087 0.08911 0.11733 0.0
O53 O 0.59081 0.07525 0.14398 0.0
C54 C 0.53691 0.11072 0.18018 0.0
C55 C 0.58771 0.07847 0.12349 0.0
C56 C 0.20846 0.73813 0.20762 0.0
C57 C 0.1817 0.77025 0.13874 0.0
O58 O 0.2175 0.72916 0.19076 0.0
Zn59 Zn 0.21607 0.73338 0.15475 0.0
O60 O 0.1948 0.7536 0.20482 0.0
Zn61 Zn 0.19615 0.75332 0.17317 0.0
O62 O 0.18251 0.72027 0.16628 0.0
O63 O 0.20802 0.70457 0.14606 0.0
O64 O 0.17732 0.77424 0.15862 0.0
O65 O 0.19586 0.7552 0.13443 0.0
O66 O 0.24608 0.74056 0.14796 0.0
O67 O 0.22996 0.76542 0.16851 0.0
C68 C 0.18974 0.70335 0.1559 0.0
C69 C 0.24726 0.7583 0.15868 0.0
C70 C 0.52681 0.97463 0.41487 0.0
C71 C 0.58074 0.91367 0.41267 0.0
O72 O 0.52513 0.95703 0.42604 0.0
Zn73 Zn 0.55023 0.94077 0.4131 0.0
O74 O 0.54168 0.97609 0.40019 0.0
Zn75 Zn 0.56878 0.95847 0.38781 0.0
O76 O 0.55967 0.95211 0.35724 0.0
O77 O 0.54054 0.93218 0.38054 0.0
O78 O 0.58354 0.92891 0.3986 0.0
O79 O 0.56364 0.91367 0.42476 0.0
O80 O 0.57432 0.96237 0.42476 0.0
O81 O 0.59219 0.97923 0.39819 0.0
C82 C 0.54505 0.93754 0.36074 0.0
C83 C 0.58899 0.97589 0.41863 0.0
C84 C 0.38309 0.32418 0.66625 0.0
C85 C 0.34385 0.25428 0.67987 0.0
O86 O 0.39061 0.30883 0.67824 0.0
Zn87 Zn 0.36781 0.28646 0.67155 0.0
O88 O 0.36624 0.32057 0.65428 0.0
Zn89 Zn 0.34307 0.29556 0.64736 0.0
O90 O 0.31633 0.31145 0.65737 0.0
O91 O 0.33984 0.30332 0.68372 0.0
O92 O 0.33653 0.266 0.66416 0.0
O93 O 0.36203 0.25947 0.68892 0.0
O94 O 0.37552 0.27499 0.63922 0.0
O95 O 0.34897 0.28548 0.61715 0.0
C96 C 0.32165 0.31168 0.67762 0.0
C97 C 0.36712 0.27552 0.61997 0.0
C98 C 1.01926 0.10056 0.86931 0.0
C99 C 0.9657 0.06297 0.91946 0.0
O100 O 1.00315 0.0888 0.86288 0.0
Zn101 Zn 0.99023 0.08073 0.89189 0.0
O102 O 1.02185 0.10372 0.88991 0.0
Zn103 Zn 1.00688 0.09549 0.92038 0.0
O104 O 0.02881 0.07693 0.93529 0.0
O105 O 1.01475 0.06057 0.90622 0.0
O106 O 0.98047 0.07508 0.92783 0.0
O107 O 0.96445 0.06104 0.89862 0.0
O108 O 0.9762 0.11046 0.90272 0.0
O109 O 0.99374 0.12302 0.93176 0.0
C110 C 0.02759 0.06017 0.92278 0.0
C111 C 0.9782 0.12476 0.91788 0.0
C112 C 0.38097 0.23048 0.27093 0.0
C113 C 0.38292 0.16812 0.32323 0.0
O114 O 0.36831 0.2138 0.26994 0.0
Zn115 Zn 0.38189 0.1962 0.2935 0.0
O116 O 0.39688 0.23058 0.28458 0.0
Zn117 Zn 0.40975 0.2116 0.31069 0.0
O118 O 0.43944 0.20267 0.2998 0.0
O119 O 0.41311 0.18676 0.28088 0.0
O120 O 0.398 0.18252 0.32542 0.0
O121 O 0.36973 0.16926 0.30706 0.0
O122 O 0.37323 0.21782 0.31851 0.0
O123 O 0.40189 0.23265 0.33493 0.0
C124 C 0.43365 0.18985 0.28431 0.0
C125 C 0.38106 0.23065 0.33295 0.0
C126 C 0.06164 0.13054 0.56851 0.0
C127 C 0.10033 0.18564 0.52111 0.0
O128 O 0.05955 0.15118 0.57168 0.0
Zn129 Zn 0.07916 0.16045 0.54669 0.0
O130 O 0.07401 0.12364 0.55319 0.0
Zn131 Zn 0.09493 0.1336 0.52802 0.0
O132 O 0.12256 0.1216 0.54044 0.0
O133 O 0.10879 0.14897 0.5598 0.0
O134 O 0.10359 0.16536 0.51669 0.0
O135 O 0.08763 0.19061 0.53701 0.0
O136 O 0.05987 0.14794 0.52056 0.0
O137 O 0.07735 0.12074 0.50421 0.0
C138 C 0.12358 0.13445 0.55691 0.0
C139 C 0.06022 0.13266 0.50618 0.0
C140 C 0.15206 0.83376 0.77521 0.0
C141 C 0.14426 0.89207 0.83099 0.0
O142 O 0.16286 0.85168 0.77559 0.0
Zn143 Zn 0.14687 0.86642 0.79959 0.0
O144 O 0.13534 0.8317 0.78774 0.0
Zn145 Zn 0.11903 0.84913 0.81327 0.0
O146 O 0.0902 0.85648 0.80059 0.0
O147 O 0.11614 0.87694 0.78594 0.0
O148 O 0.12891 0.8777 0.83121 0.0
O149 O 0.15832 0.89198 0.81552 0.0
O150 O 0.15404 0.84299 0.82406 0.0
O151 O 0.12399 0.82699 0.83665 0.0
C152 C 0.09578 0.87171 0.78747 0.0
C153 C 0.14485 0.82923 0.83681 0.0
C154 C 0.48434 0.92166 0.0795 0.0
C155 C 0.44239 0.87754 0.02465 0.0
O156 O 0.48425 0.90069 0.07997 0.0
Zn157 Zn 0.46455 0.8971 0.05378 0.0
O158 O 0.47353 0.93176 0.06487 0.0
Zn159 Zn 0.45298 0.92746 0.03801 0.0
O160 O 0.42693 0.94154 0.05146 0.0
O161 O 0.43598 0.91063 0.06786 0.0
O162 O 0.44138 0.89842 0.02248 0.0
O163 O 0.45355 0.86954 0.04039 0.0
O164 O 0.48643 0.91 0.02994 0.0
O165 O 0.47323 0.94096 1.01669 0.0
C166 C 0.42353 0.9274 0.06647 0.0
C167 C 0.48863 0.9268 1.01762 0.0
C168 C 0.44272 0.86426 0.2534 0.0
C169 C 0.38763 0.82819 0.20422 0.0
O170 O 0.44674 0.84907 0.23962 0.0
Zn171 Zn 0.41673 0.84411 0.22785 0.0
O172 O 0.42284 0.87065 0.25601 0.0
Zn173 Zn 0.39082 0.86292 0.24386 0.0
O174 O 0.37533 0.84794 0.26819 0.0
O175 O 0.40085 0.8271 0.25348 0.0
O176 O 0.38063 0.84215 0.21814 0.0
O177 O 0.40808 0.82346 0.20375 0.0
O178 O 0.40855 0.87458 0.21238 0.0
O179 O 0.38116 0.89042 0.23019 0.0
C180 C 0.38522 0.82954 0.26724 0.0
C181 C 0.39472 0.89029 0.21426 0.0
C182 C 0.4786 0.12276 0.52457 0.0
C183 C 0.41833 0.12838 0.46993 0.0
O184 O 0.46117 0.1111 0.52503 0.0
Zn185 Zn 0.4452 0.12545 0.50056 0.0
O186 O 0.48012 0.13839 0.51078 0.0
Zn187 Zn 0.46307 0.15234 0.48429 0.0
O188 O 0.45638 0.18217 0.49561 0.0
O189 O 0.43637 0.15716 0.51241 0.0
O190 O 0.43361 0.14268 0.46848 0.0
O191 O 0.41825 0.11483 0.48584 0.0
O192 O 0.46728 0.1157 0.47625 0.0
O193 O 0.48446 0.14354 0.46078 0.0
C194 C 0.4416 0.17732 0.50963 0.0
C195 C 0.48112 0.1229 0.46241 0.0
C196 C 0.13259 0.17325 0.77106 0.0
C197 C 0.20177 0.19999 0.73837 0.0
O198 O 0.12827 0.18648 0.75524 0.0
Zn199 Zn 0.1486 0.20599 0.73277 0.0
O200 O 0.15255 0.16963 0.77559 0.0
Zn201 Zn 0.16724 0.18776 0.75394 0.0
O202 O 0.16173 0.22206 0.76409 0.0
O203 O 0.14107 0.23603 0.7381 0.0
O204 O 0.19909 0.18725 0.75462 0.0
O205 O 0.18477 0.20804 0.72878 0.0
O206 O 0.14049 0.19645 0.70436 0.0
O207 O 0.16135 0.1724 0.72141 0.0
C208 C 0.15159 0.23858 0.75579 0.0
C209 C 0.15097 0.17853 0.7041 0.0
C210 C 0.1265 0.9155 0.98364 0.0
C211 C 0.06167 0.91475 0.03251 0.0
O212 O 0.12361 0.92885 0.99948 0.0
Zn213 Zn 0.09744 0.91477 1.01253 0.0
O214 O 0.11382 0.89893 0.98166 0.0
Zn215 Zn 0.08506 0.88546 0.9955 0.0
O216 O 0.06551 0.89059 0.96938 0.0
O217 O 0.07699 0.92071 0.98587 0.0
O218 O 0.06338 0.89826 1.01965 0.0
O219 O 0.07759 0.92829 0.03411 0.0
O220 O 0.10804 0.88484 0.02712 0.0
O221 O 0.09512 0.85707 1.00797 0.0
C222 C 0.06594 0.91153 0.9708 0.0
C223 C 0.10634 0.86408 0.02416 0.0
C224 C 0.27351 0.37921 0.22774 0.0
C225 C 0.32337 0.37329 0.1639 0.0
O226 O 0.27136 0.36536 0.21221 0.0
Zn227 Zn 0.29439 0.37652 0.19247 0.0
O228 O 0.28746 0.39478 0.22584 0.0
Zn229 Zn 0.31282 0.40526 0.20428 0.0
O230 O 0.30245 0.43401 0.19261 0.0
O231 O 0.28248 0.40679 0.17979 0.0
O232 O 0.32619 0.38999 0.17622 0.0
O233 O 0.30689 0.36075 0.16702 0.0
O234 O 0.32034 0.36963 0.21358 0.0
O235 O 0.33837 0.39912 0.22434 0.0
C236 C 0.28661 0.4274 0.18063 0.0
C237 C 0.33577 0.3783 0.22457 0.0
C238 C 0.83689 0.17094 0.8187 0.0
C239 C 0.79633 0.11109 0.85793 0.0
O240 O 0.84077 0.15067 0.81494 0.0
Zn241 Zn 0.81845 0.13892 0.83626 0.0
O242 O 0.82256 0.17628 0.8329 0.0
Zn243 Zn 0.79983 0.16362 0.85517 0.0
O244 O 0.81407 0.17484 0.88218 0.0
O245 O 0.83382 0.14941 0.86553 0.0
O246 O 0.7916 0.13075 0.86359 0.0
O247 O 0.81031 0.10794 0.84266 0.0
O248 O 0.79027 0.15053 0.82003 0.0
O249 O 0.77361 0.17572 0.83991 0.0
C250 C 0.83129 0.16296 0.8813 0.0
C251 C 0.77495 0.16463 0.8222 0.0
C252 C 0.12956 0.51321 0.05656 0.0
C253 C 0.13629 0.55958 0.12314 0.0
O254 O 0.11835 0.51039 0.07402 0.0
Zn255 Zn 0.13239 0.53297 0.09262 0.0
O256 O 0.14475 0.52768 0.05624 0.0
Zn257 Zn 0.15829 0.5527 0.07587 0.0
O258 O 0.18903 0.54255 0.08187 0.0
O259 O 0.16469 0.52144 0.09827 0.0
O260 O 0.14941 0.56344 0.10731 0.0
O261 O 0.12306 0.54335 0.12212 0.0
O262 O 0.12108 0.56017 0.0756 0.0
O263 O 0.14702 0.57889 0.0588 0.0
C264 C 0.18477 0.52605 0.09404 0.0
C265 C 0.12674 0.57635 0.06375 0.0
C266 C 0.77348 0.87816 0.30989 0.0
C267 C 0.72686 0.88082 0.37693 0.0
O268 O 0.77781 0.86801 0.32764 0.0
Zn269 Zn 0.75383 0.87984 0.34639 0.0
O270 O 0.75736 0.8915 0.30941 0.0
Zn271 Zn 0.73153 0.90285 0.32924 0.0
O272 O 0.73899 0.93437 0.33351 0.0
O273 O 0.7614 0.91329 0.35252 0.0
O274 O 0.72155 0.89353 0.36118 0.0
O275 O 0.7444 0.86938 0.37567 0.0
O276 O 0.72773 0.86546 0.32977 0.0
O277 O 0.70631 0.88891 0.31267 0.0
C278 C 0.75494 0.93244 0.34693 0.0
C279 C 0.71089 0.86915 0.31802 0.0
C280 C 0.91111 1.01908 0.06574 0.0
C281 C 0.90613 0.96672 0.12776 0.0
O282 O 0.92241 1.02033 0.0833 0.0
Zn283 Zn 0.9079 0.99664 0.10021 0.0
O284 O 0.89523 1.00544 0.06472 0.0
Zn285 Zn 0.88098 0.97987 0.08332 0.0
O286 O 0.85124 0.9911 0.08999 0.0
O287 O 0.87619 1.00852 0.10955 0.0
O288 O 0.89127 0.96481 0.11307 0.0
O289 O 0.91953 0.98279 0.12699 0.0
O290 O 0.91716 0.97129 0.07905 0.0
O291 O 0.88889 0.95532 0.06294 0.0
C292 C 0.85599 1.00535 0.10453 0.0
C293 C 0.9096 0.9569 0.06599 0.0
C294 C 0.27738 0.69105 0.70404 0.0
C295 C 0.21633 0.67971 0.65134 0.0
O296 O 0.2766 0.69996 0.68513 0.0
Zn297 Zn 0.24968 0.68479 0.67444 0.0
O298 O 0.26303 0.67664 0.70914 0.0
Zn299 Zn 0.23421 0.66153 0.69728 0.0
O300 O 0.24382 0.63053 0.69386 0.0
O301 O 0.25953 0.65161 0.66908 0.0
O302 O 0.21577 0.66785 0.66858 0.0
O303 O 0.23276 0.6922 0.64782 0.0
O304 O 0.2283 0.69866 0.69771 0.0
O305 O 0.21322 0.6741 0.71949 0.0
C306 C 0.25654 0.63254 0.67736 0.0
C307 C 0.2157 0.69412 0.71378 0.0
C308 C 0.18928 0.51408 0.43821 0.0
C309 C 0.13202 0.46464 0.47062 0.0
O310 O 0.19323 0.49889 0.45201 0.0
Zn311 Zn 0.16278 0.48808 0.45705 0.0
O312 O 0.16935 0.51805 0.43282 0.0
Zn313 Zn 0.13699 0.50689 0.43996 0.0
O314 O 0.1229 0.53014 0.45801 0.0
O315 O 0.14912 0.51328 0.47622 0.0
O316 O 0.12602 0.48022 0.45816 0.0
O317 O 0.15236 0.46256 0.47545 0.0
O318 O 0.15362 0.47565 0.42573 0.0
O319 O 0.12663 0.49526 0.41152 0.0
C320 C 0.13399 0.52773 0.47556 0.0
C321 C 0.13976 0.47898 0.41035 0.0
C322 C 0.39834 0.523 1.00321 0.0
C323 C 0.38649 0.57389 0.94435 0.0
O324 O 0.40837 0.51592 0.98602 0.0
Zn325 Zn 0.4104 0.52691 0.95164 0.0
O326 O 0.38592 0.53949 1.00154 0.0
Zn327 Zn 0.39132 0.54601 0.97156 0.0
O328 O 0.37202 0.52272 0.95239 0.0
O329 O 0.39664 0.50393 0.93415 0.0
O330 O 0.37854 0.57262 0.96346 0.0
O331 O 0.39892 0.55839 0.93714 0.0
O332 O 0.44185 0.52983 0.94848 0.0
O333 O 0.42687 0.55393 0.97091 0.0
C334 C 0.37663 0.50747 0.93863 0.0
C335 C 0.44403 0.54608 0.96134 0.0
C336 C 0.66911 0.82217 0.88427 0.0
C337 C 0.72937 0.76747 0.87907 0.0
O338 O 0.66928 0.80627 0.87067 0.0
Zn339 Zn 0.69574 0.79117 0.88186 0.0
O340 O 0.68393 0.82335 0.89904 0.0
Zn341 Zn 0.71309 0.80725 0.90912 0.0
O342 O 0.73463 0.83095 0.90108 0.0
O343 O 0.71804 0.81556 0.87285 0.0
O344 O 0.73058 0.781 0.89498 0.0
O345 O 0.71207 0.76704 0.86727 0.0
O346 O 0.68635 0.77878 0.91324 0.0
O347 O 0.70595 0.79553 0.93859 0.0
C348 C 0.73173 0.82938 0.88039 0.0
C349 C 0.69136 0.78141 0.93347 0.0
C350 C 0.51456 0.42915 0.18782 0.0
C351 C 0.45815 0.46374 0.14025 0.0
O352 O 0.50017 0.44309 0.19376 0.0
Zn353 Zn 0.48583 0.44861 0.16532 0.0
O354 O 0.51596 0.42389 0.16753 0.0
Zn355 Zn 0.50058 0.43254 0.13728 0.0
O356 O 0.52223 0.44977 0.1206 0.0
O357 O 0.5087 0.46859 0.14824 0.0
O358 O 0.47242 0.45163 0.13091 0.0
O359 O 0.45942 0.4674 0.16082 0.0
O360 O 0.47137 0.41765 0.15629 0.0
O361 O 0.48791 0.40504 0.12657 0.0
C362 C 0.52109 0.46766 0.13134 0.0
C363 C 0.4729 0.40324 0.14104 0.0
C364 C 0.84894 0.28486 0.36233 0.0
C365 C 0.89934 0.22173 0.36956 0.0
O366 O 0.86708 0.28302 0.35198 0.0
Zn367 Zn 0.87712 0.25597 0.36658 0.0
O368 O 0.84399 0.27081 0.3771 0.0
Zn369 Zn 0.85548 0.24099 0.39111 0.0
O370 O 0.86134 0.24952 0.42208 0.0
O371 O 0.88363 0.26653 0.39932 0.0
O372 O 0.88281 0.22149 0.38245 0.0
O373 O 0.9028 0.23838 0.35747 0.0
O374 O 0.85197 0.2359 0.35404 0.0
O375 O 0.83149 0.22124 0.37999 0.0
C376 C 0.87687 0.26321 0.41895 0.0
C377 C 0.83578 0.22388 0.35965 0.0
C378 C 0.03613 0.60832 0.67923 0.0
C379 C 0.08405 0.5704 0.62407 0.0
O380 O 0.0529 0.59675 0.68402 0.0
Zn381 Zn 0.06224 0.58809 0.65385 0.0
O382 O 0.03105 0.6108 0.65901 0.0
Zn383 Zn 0.04207 0.6017 0.62722 0.0
O384 O 1.0187 0.58255 0.61567 0.0
O385 O 0.03656 0.567 0.643 0.0
O386 O 0.06799 0.58174 0.61715 0.0
O387 O 0.08777 0.56919 0.64466 0.0
O388 O 0.07398 0.61793 0.64081 0.0
O389 O 0.05286 0.62921 0.61371 0.0
C390 C 1.0217 0.56609 0.62821 0.0
C391 C 0.0698 0.63178 0.62572 0.0
C392 C 0.65776 0.21402 0.67173 0.0
C393 C 0.71732 0.26992 0.67384 0.0
O394 O 0.658 0.23008 0.68516 0.0
Zn395 Zn 0.68414 0.24526 0.67309 0.0
O396 O 0.67249 0.21268 0.65686 0.0
Zn397 Zn 0.70135 0.22859 0.64591 0.0
O398 O 0.72344 0.20567 0.65468 0.0
O399 O 0.70704 0.22172 0.68263 0.0
O400 O 0.71841 0.25573 0.65851 0.0
O401 O 0.70033 0.27047 0.68611 0.0
O402 O 0.67364 0.25587 0.64143 0.0
O403 O 0.69321 0.23897 0.61613 0.0
C404 C 0.72088 0.20791 0.67536 0.0
C405 C 0.67815 0.25262 0.62117 0.0
C406 C 1.0148 0.47775 0.90341 0.0
C407 C 0.06397 0.41296 0.90559 0.0
O408 O 1.01162 0.46071 0.91511 0.0
Zn409 Zn 0.0358 0.44223 0.9038 0.0
O410 O 0.03003 0.47758 0.889 0.0
Zn411 Zn 0.05587 0.45706 0.87796 0.0
O412 O 0.04707 0.4495 0.84762 0.0
O413 O 0.02651 0.43195 0.87162 0.0
O414 O 0.06796 0.42694 0.89051 0.0
O415 O 0.04699 0.41522 0.91764 0.0
O416 O 0.06132 0.46254 0.9146 0.0
O417 O 0.08115 0.47597 0.88747 0.0
C418 C 0.03177 0.4358 0.85165 0.0
C419 C 0.07728 0.47427 0.90798 0.0
C420 C 0.81462 0.82832 0.16111 0.0
C421 C 0.85474 0.78107 0.10677 0.0
O422 O 0.81282 0.8313 0.14045 0.0
Zn423 Zn 0.833 0.80658 0.13169 0.0
O424 O 0.82695 0.81314 0.16828 0.0
Zn425 Zn 0.8482 0.7881 0.1587 0.0
O426 O 0.8751 0.80111 0.17162 0.0
O427 O 0.86223 0.82052 0.14399 0.0
O428 O 0.85778 0.77674 0.12709 0.0
O429 O 0.84197 0.79685 0.1017 0.0
O430 O 0.81344 0.78025 0.14368 0.0
O431 O 0.83036 0.76418 0.17128 0.0
C432 C 0.87646 0.81777 0.15907 0.0
C433 C 0.81351 0.76592 0.15897 0.0
C434 C 0.46729 0.56819 0.42237 0.0
C435 C 0.51211 0.6032 0.3629 0.0
O436 O 0.46295 0.56531 0.40207 0.0
Zn437 Zn 0.48813 0.58358 0.39087 0.0
O438 O 0.48336 0.58035 0.42787 0.0
Zn439 Zn 0.50868 0.59999 0.41539 0.0
O440 O 0.49766 0.62782 0.42778 0.0
O441 O 0.47617 0.61438 0.40188 0.0
O442 O 0.51762 0.6083 0.38252 0.0
O443 O 0.49674 0.58929 0.35996 0.0
O444 O 0.51395 0.56366 0.40288 0.0
O445 O 0.53287 0.58208 0.42754 0.0
C446 C 0.48043 0.62927 0.41601 0.0
C447 C 0.52932 0.56428 0.4171 0.0
C448 C 0.93196 0.68464 0.78438 0.0
C449 C 0.87864 0.72334 0.83366 0.0
O450 O 0.93747 0.69663 0.80062 0.0
Zn451 Zn 0.90763 0.70525 0.81115 0.0
O452 O 0.91149 0.68185 0.78033 0.0
Zn453 Zn 0.88005 0.69087 0.79261 0.0
O454 O 0.86716 0.70956 0.76956 0.0
O455 O 0.89545 0.72554 0.78561 0.0
O456 O 0.87109 0.71139 0.81835 0.0
O457 O 0.89941 0.72496 0.83638 0.0
O458 O 0.89534 0.67564 0.82424 0.0
O459 O 0.86727 0.66355 0.80482 0.0
C460 C 0.87987 0.72611 0.77157 0.0
C461 C 0.88013 0.66155 0.82118 0.0
C462 C 0.58748 0.61049 1.00862 0.0
C463 C 0.64115 0.61982 0.069 0.0
O464 O 0.60617 0.60106 1.00935 0.0
Zn465 Zn 0.61767 0.61616 0.03583 0.0
O466 O 0.58301 0.62543 0.02264 0.0
Zn467 Zn 0.59611 0.64045 0.05113 0.0
O468 O 0.60078 0.67114 0.04161 0.0
O469 O 0.62474 0.64913 0.02584 0.0
O470 O 0.62467 0.63279 0.06955 0.0
O471 O 0.6438 0.60708 0.05265 0.0
O472 O 0.59374 0.60367 0.05739 0.0
O473 O 0.57344 0.62959 0.07242 0.0
C474 C 0.61721 0.66853 0.02892 0.0
C475 C 0.57805 0.60928 0.07004 0.0
C476 C 0.63279 0.36357 0.28266 0.0
C477 C 0.70397 0.33934 0.31176 0.0
O478 O 0.62996 0.34822 0.29678 0.0
Zn479 Zn 0.65169 0.32969 0.31837 0.0
O480 O 0.65212 0.37024 0.27887 0.0
Zn481 Zn 0.66845 0.35096 0.29816 0.0
O482 O 0.66408 0.31721 0.28551 0.0
O483 O 0.64589 0.29975 0.31137 0.0
O484 O 0.70016 0.35324 0.29675 0.0
O485 O 0.68775 0.32955 0.32108 0.0
O486 O 0.64345 0.33747 0.34743 0.0
O487 O 0.66245 0.36365 0.33142 0.0
C488 C 0.65542 0.29941 0.29292 0.0
C489 C 0.65279 0.356 0.34851 0.0
C490 C 0.97886 0.41594 0.58624 0.0
C491 C 0.94382 0.363 0.53388 0.0
O492 O 0.98025 0.39519 0.58897 0.0
Zn493 Zn 0.96223 0.38713 0.56257 0.0
O494 O 0.96794 0.42359 0.57021 0.0
Zn495 Zn 0.94895 0.41463 0.54309 0.0
O496 O 0.92075 0.42708 0.55375 0.0
O497 O 0.93193 0.39923 0.5739 0.0
O498 O 0.94111 0.38344 0.52997 0.0
O499 O 0.95455 0.35737 0.55091 0.0
O500 O 0.9842 0.40007 0.5389 0.0
O501 O 0.96882 0.42719 0.52061 0.0
C502 C 0.91794 0.4143 0.57005 0.0
C503 C 0.9856 0.41526 0.52454 0.0
C504 C 0.92951 0.35695 0.74935 0.0
C505 C 0.86904 0.31816 0.70926 0.0
O506 O 0.9325 0.34192 0.73509 0.0
Zn507 Zn 0.90141 0.33574 0.72719 0.0
O508 O 0.90989 0.36264 0.75432 0.0
Zn509 Zn 0.87687 0.3545 0.74629 0.0
O510 O 0.86509 0.33903 0.7725 0.0
O511 O 0.89015 0.31944 0.7553 0.0
O512 O 0.86387 0.33234 0.72366 0.0
O513 O 0.8893 0.31444 0.7051 0.0
O514 O 0.89084 0.36515 0.71231 0.0
O515 O 0.86564 0.3817 0.73246 0.0
C516 C 0.87627 0.32138 0.77083 0.0
C517 C 0.87737 0.38094 0.71514 0.0
C518 C 0.91276 0.6274 0.96693 0.0
C519 C 0.98 0.62871 1.01306 0.0
O520 O 0.91567 0.6148 0.98335 0.0
Zn521 Zn 0.94329 0.62835 0.99428 0.0
O522 O 0.92643 0.6428 0.96314 0.0
Zn523 Zn 0.95631 0.65581 0.97453 0.0
O524 O 0.97434 0.64765 0.94806 0.0
O525 O 0.96268 0.61938 0.96744 0.0
O526 O 0.97851 0.64368 0.99847 0.0
O527 O 0.96328 0.61672 1.01713 0.0
O528 O 0.93379 0.65952 1.00637 0.0
O529 O 0.94734 0.68556 0.98544 0.0
C530 C 0.97343 0.62692 0.95123 0.0
C531 C 0.93592 0.67996 1.00206 0.0
C532 C 0.61001 0.67806 0.25267 0.0
C533 C 0.66522 0.71731 0.20568 0.0
O534 O 0.60541 0.6914 0.23728 0.0
Zn535 Zn 0.63553 0.69933 0.22721 0.0
O536 O 0.63021 0.67445 0.2573 0.0
Zn537 Zn 0.66201 0.68512 0.24716 0.0
O538 O 0.67289 0.7041 0.27143 0.0
O539 O 0.64687 0.72012 0.25228 0.0
O540 O 0.67224 0.70568 0.22148 0.0
O541 O 0.64455 0.71863 0.20209 0.0
O542 O 0.64865 0.6697 0.21486 0.0
O543 O 0.67614 0.65832 0.23551 0.0
C544 C 0.66116 0.721 0.26753 0.0
C545 C 0.66406 0.656 0.21859 0.0
C546 C 0.62269 0.40872 0.49219 0.0
C547 C 0.55724 0.41272 0.54016 0.0
O548 O 0.62163 0.42164 0.50862 0.0
Zn549 Zn 0.59304 0.41059 0.51961 0.0
O550 O 0.60722 0.3951 0.48846 0.0
Zn551 Zn 0.57617 0.38522 0.49985 0.0
O552 O 0.55859 0.39619 0.47413 0.0
O553 O 0.57397 0.42243 0.49372 0.0
O554 O 0.55661 0.39808 0.5252 0.0
O555 O 0.57497 0.42343 0.54334 0.0
O556 O 0.60113 0.37793 0.52914 0.0
O557 O 0.58206 0.35448 0.50926 0.0
C558 C 0.56193 0.41659 0.47772 0.0
C559 C 0.59622 0.35809 0.52424 0.0
C560 C 0.83651 0.87573 0.72806 0.0
C561 C 0.78591 0.92837 0.69042 0.0
O562 O 0.83851 0.8965 0.73021 0.0
Zn563 Zn 0.81313 0.90437 0.71064 0.0
O564 O 0.82146 0.86795 0.71591 0.0
Zn565 Zn 0.79535 0.87663 0.69567 0.0
O566 O 0.80776 0.86481 0.66804 0.0
O567 O 0.82632 0.89325 0.68066 0.0
O568 O 0.78232 0.90789 0.6872 0.0
O569 O 0.80191 0.93403 0.70267 0.0
O570 O 0.78792 0.89103 0.73063 0.0
O571 O 0.77254 0.86276 0.71405 0.0
C572 C 0.82365 0.87833 0.66621 0.0
C573 C 0.7743 0.87507 0.7309 0.0
C574 C 0.26552 0.6857 0.35039 0.0
C575 C 0.33146 0.67507 0.39677 0.0
O576 O 0.26798 0.69452 0.36921 0.0
Zn577 Zn 0.29601 0.67968 0.37691 0.0
O578 O 0.27967 0.6718 0.3436 0.0
Zn579 Zn 0.3099 0.65739 0.35219 0.0
O580 O 0.30141 0.62612 0.35544 0.0
O581 O 0.28702 0.64619 0.38183 0.0
O582 O 0.33084 0.66379 0.37912 0.0
O583 O 0.31493 0.68665 0.4023 0.0
O584 O 0.31496 0.69465 0.35217 0.0
O585 O 0.32825 0.67087 0.32842 0.0
C586 C 0.28976 0.62743 0.37276 0.0
C587 C 0.32606 0.69071 0.33488 0.0
C588 C 0.63012 1.01706 0.57013 0.0
C589 C 0.62854 0.06663 0.63472 0.0
O590 O 0.61741 1.01461 0.58659 0.0
Zn591 Zn 0.62951 0.03807 0.60537 0.0
O592 O 0.6453 0.03156 0.57085 0.0
Zn593 Zn 0.65663 0.05744 0.59126 0.0
O594 O 0.68665 0.04781 0.60013 0.0
O595 O 0.66119 0.02671 0.61467 0.0
O596 O 0.64371 0.07019 0.62072 0.0
O597 O 0.61621 0.04984 0.63263 0.0
O598 O 0.61998 0.06356 0.58478 0.0
O599 O 0.64794 0.0824 0.57154 0.0
C600 C 0.68154 0.03142 0.61206 0.0
C601 C 0.62723 0.07907 0.57291 0.0
C602 C 0.20112 0.376 0.82211 0.0
C603 C 0.2591 0.41855 0.86144 0.0
O604 O 0.20355 0.39668 0.81972 0.0
Zn605 Zn 0.22893 0.39918 0.84043 0.0
O606 O 0.21406 0.36544 0.83463 0.0
Zn607 Zn 0.24125 0.36924 0.85555 0.0
O608 O 0.2264 0.35894 0.8823 0.0
O609 O 0.21239 0.38985 0.86974 0.0
O610 O 0.25932 0.39782 0.86488 0.0
O611 O 0.24448 0.42648 0.8488 0.0
O612 O 0.25198 0.38154 0.82104 0.0
O613 O 0.26208 0.35154 0.83839 0.0
C614 C 0.21227 0.37429 0.88377 0.0
C615 C 0.26283 0.36359 0.82135 0.0
C616 C 0.3564 0.51931 0.60937 0.0
C617 C 0.40882 0.46829 0.57204 0.0
O618 O 0.35124 0.50497 0.59505 0.0
Zn619 Zn 0.38063 0.49244 0.58876 0.0
O620 O 0.37667 0.52172 0.61457 0.0
Zn621 Zn 0.40806 0.50844 0.60584 0.0
O622 O 0.42349 0.5315 0.58886 0.0
O623 O 0.39597 0.51729 0.57023 0.0
O624 O 0.41666 0.48264 0.58497 0.0
O625 O 0.38808 0.46726 0.56886 0.0
O626 O 0.38997 0.47748 0.61868 0.0
O627 O 0.41886 0.4942 0.63288 0.0
C628 C 0.41226 0.53045 0.57124 0.0
C629 C 0.40473 0.47875 0.63351 0.0
C630 C 0.70476 0.1624 0.22112 0.0
C631 C 0.75398 0.10965 0.18254 0.0
O632 O 0.7042 0.14172 0.22445 0.0
Zn633 Zn 0.72889 0.13479 0.20401 0.0
O634 O 0.71915 0.1704 0.20819 0.0
Zn635 Zn 0.74546 0.1614 0.1874 0.0
O636 O 0.73257 0.17364 0.16072 0.0
O637 O 0.71378 0.14558 0.17399 0.0
O638 O 0.75718 0.12979 0.17744 0.0
O639 O 0.73995 0.10506 0.19731 0.0
O640 O 0.75441 0.14928 0.22284 0.0
O641 O 0.76961 0.17567 0.20354 0.0
C642 C 0.71617 0.16068 0.15958 0.0
C643 C 0.76834 0.16491 0.22138 0.0
C644 C 0.64485 1.02217 0.98062 0.0
C645 C 0.64323 0.972 0.91632 0.0
O646 O 0.63352 0.02587 0.96342 0.0
Zn647 Zn 0.64476 1.00132 0.94478 0.0
O648 O 0.65934 1.00707 0.98015 0.0
Zn649 Zn 0.67126 0.98187 0.95975 0.0
O650 O 0.70138 0.99171 0.95165 0.0
O651 O 0.67656 1.01098 0.93387 0.0
O652 O 0.6585 0.96872 0.93027 0.0
O653 O 0.63095 0.98887 0.91811 0.0
O654 O 0.63467 0.97585 0.96551 0.0
O655 O 0.66237 0.957 0.97934 0.0
C656 C 0.69675 1.00647 0.93762 0.0
C657 C 0.6417 0.96035 0.97754 0.0
C658 C 0.85681 0.03668 0.42374 0.0
C659 C 0.91164 0.0827 0.46382 0.0
O660 O 0.8523 0.05192 0.43732 0.0
Zn661 Zn 0.88238 0.06112 0.44558 0.0
O662 O 0.87698 0.03176 0.42023 0.0
Zn663 Zn 0.90889 0.04162 0.43115 0.0
O664 O 0.92032 1.01756 0.44951 0.0
O665 O 0.89346 0.0353 0.46601 0.0
O666 O 0.91878 0.06701 0.45205 0.0
O667 O 0.89099 0.08627 0.46506 0.0
O668 O 0.89569 0.07387 0.41605 0.0
O669 O 0.92342 0.05341 0.40478 0.0
C670 C 0.9082 1.0204 0.46634 0.0
C671 C 0.91133 0.07033 0.40252 0.0
H672 H 0.11673 0.18043 0.48004 0.0
H673 H 0.17958 0.29565 0.47084 0.0
H674 H 0.11077 0.22918 0.53089 0.0
H675 H 0.16639 0.25253 0.41639 0.0
H676 H 0.15743 0.27137 0.49454 0.0
H677 H 0.13765 0.20627 0.45807 0.0
C678 C 0.11974 0.19666 0.48662 0.0
C679 C 0.11183 0.20253 0.50744 0.0
C680 C 0.15941 0.26732 0.47738 0.0
C681 C 0.13637 0.23255 0.48208 0.0
C682 C 0.17216 0.28111 0.46386 0.0
C683 C 0.17497 0.27622 0.44147 0.0
C684 C 0.14964 0.24832 0.46856 0.0
C685 C 0.16477 0.25714 0.43343 0.0
C686 C 0.13175 0.21149 0.47397 0.0
C687 C 0.11636 0.22393 0.5149 0.0
N688 N 0.15278 0.244 0.44688 0.0
N689 N 0.12847 0.23811 0.50232 0.0
H690 H 0.05758 0.85526 0.76984 0.0
H691 H 1.01528 0.96642 0.71517 0.0
H692 H 0.09638 0.91428 0.7731 0.0
H693 H 1.00882 0.90423 0.68229 0.0
H694 H 0.03777 0.94841 0.74361 0.0
H695 H 0.03216 0.8739 0.74463 0.0
C696 C 0.0606 0.87221 0.76551 0.0
C697 C 0.07922 0.88317 0.77355 0.0
C698 C 0.03119 0.93873 0.73026 0.0
C699 C 0.04992 0.90473 0.74509 0.0
C700 C 1.01825 0.94895 0.71415 0.0
C701 C 1.01016 0.9368 0.69634 0.0
C702 C 0.03549 0.9161 0.7289 0.0
C703 C 1.01477 0.91422 0.69571 0.0
C704 C 0.04615 0.88279 0.75106 0.0
C705 C 0.08233 0.90514 0.76721 0.0
N706 N 0.02694 0.90459 0.71176 0.0
N707 N 0.06781 0.91522 0.75351 0.0
H708 H 0.42907 0.83414 0.02856 0.0
H709 H 0.38085 0.82773 0.90649 0.0
H710 H 0.42821 0.8888 0.98384 0.0
H711 H 0.35996 0.78275 0.9568 0.0
H712 H 0.4023 0.8478 0.93376 0.0
H713 H 0.40784 0.81255 1.0017 0.0
C714 C 0.42458 0.84156 1.0131 0.0
C715 C 0.43046 0.86339 1.00854 0.0
C716 C 0.39301 0.83356 0.93889 0.0
C717 C 0.40631 0.83872 0.97769 0.0
C718 C 0.38075 0.82204 0.92328 0.0
C719 C 0.36842 0.80351 0.92929 0.0
C720 C 0.39338 0.82644 0.96078 0.0
C721 C 0.36905 0.797 0.9514 0.0
C722 C 0.41236 0.82927 0.99783 0.0
C723 C 0.42403 0.87212 0.98822 0.0
N724 N 0.38139 0.80835 0.9663 0.0
N725 N 0.41248 0.8598 0.97362 0.0
H726 H 0.42541 0.16888 0.24579 0.0
H727 H 0.54636 0.12098 0.22382 0.0
H728 H 0.47894 0.18396 0.2895 0.0
H729 H 0.4947 0.12454 0.17571 0.0
H730 H 0.52225 0.14042 0.25007 0.0
H731 H 0.45066 0.14919 0.22213 0.0
C732 C 0.44253 0.16809 0.2505 0.0
C733 C 0.44991 0.17828 0.26981 0.0
C734 C 0.51626 0.13686 0.23376 0.0
C735 C 0.47938 0.15523 0.24234 0.0
C736 C 0.52996 0.12562 0.21881 0.0
C737 C 0.52265 0.12104 0.1974 0.0
C738 C 0.49498 0.14327 0.22738 0.0
C739 C 0.50124 0.12769 0.19189 0.0
C740 C 0.45705 0.15678 0.23684 0.0
C741 C 0.47245 0.17652 0.27477 0.0
N742 N 0.48831 0.13829 0.20667 0.0
N743 N 0.48637 0.16516 0.26119 0.0
H744 H 0.1596 0.80889 0.14328 0.0
H745 H 0.11624 0.8197 1.0199 0.0
H746 H 0.17841 0.76176 0.09403 0.0
H747 H 0.12147 0.87385 0.06507 0.0
H748 H 0.13491 0.79611 0.04696 0.0
H749 H 0.14138 0.83058 0.11521 0.0
C750 C 0.15989 0.80301 0.12654 0.0
C751 C 0.1707 0.78338 0.12114 0.0
C752 C 0.13196 0.81317 0.05085 0.0
C753 C 0.14942 0.80839 0.08855 0.0
C754 C 0.1212 0.82663 0.03546 0.0
C755 C 0.11723 0.84889 0.0401 0.0
C756 C 0.13841 0.82191 0.07121 0.0
C757 C 0.12418 0.85689 0.06058 0.0
C758 C 0.14948 0.81552 0.11044 0.0
C759 C 0.17042 0.77681 0.099 0.0
N760 N 0.13421 0.84348 0.07528 0.0
N761 N 0.15986 0.7892 0.08355 0.0
H762 H 0.53027 0.95548 0.32196 0.0
H763 H 0.47944 0.84532 0.27195 0.0
H764 H 0.53145 0.89491 0.35814 0.0
H765 H 0.44612 0.90725 0.26555 0.0
H766 H 0.50621 0.86294 0.29672 0.0
H767 H 0.50688 0.93767 0.29413 0.0
C768 C 0.52593 0.93837 0.32387 0.0
C769 C 0.53281 0.9267 0.34246 0.0
C770 C 0.49314 0.87266 0.28967 0.0
C771 C 0.50643 0.90613 0.31049 0.0
C772 C 0.47796 0.86266 0.27545 0.0
C773 C 0.46046 0.8748 0.26668 0.0
C774 C 0.49125 0.89512 0.29463 0.0
C775 C 0.45926 0.89723 0.272 0.0
C776 C 0.51249 0.92827 0.30807 0.0
C777 C 0.52646 0.90457 0.34415 0.0
N778 N 0.47447 0.90667 0.28545 0.0
N779 N 0.51381 0.89499 0.32837 0.0
H780 H 0.4111 0.26731 0.61504 0.0
H781 H 0.39878 0.17767 0.52257 0.0
H782 H 0.3489 0.25649 0.5832 0.0
H783 H 0.45842 0.21532 0.52794 0.0
H784 H 0.38054 0.20353 0.5474 0.0
H785 H 0.42924 0.24576 0.58623 0.0
C786 C 0.40125 0.26051 0.60193 0.0
C787 C 0.37839 0.2638 0.60158 0.0
C788 C 0.39755 0.20628 0.543 0.0
C789 C 0.3991 0.23861 0.56874 0.0
C790 C 0.40802 0.1915 0.52885 0.0
C791 C 0.43018 0.19435 0.52305 0.0
C792 C 0.40944 0.22379 0.55208 0.0
C793 C 0.44129 0.21258 0.53179 0.0
C794 C 0.41166 0.24827 0.58545 0.0
C795 C 0.36654 0.25454 0.58411 0.0
N796 N 0.43093 0.22639 0.54613 0.0
N797 N 0.37695 0.24212 0.56863 0.0
H798 H 0.08789 0.16939 0.76231 0.0
H799 H 0.06049 0.11518 0.87861 0.0
H800 H 0.13676 0.15224 0.81037 0.0
H801 H 1.0154 0.10909 0.82453 0.0
H802 H 0.08706 0.13246 0.85433 0.0
H803 H 0.05979 0.15109 0.78505 0.0
C804 C 0.09275 0.16186 0.7776 0.0
C805 C 0.11486 0.16244 0.78433 0.0
C806 C 0.0714 0.12734 0.84764 0.0
C807 C 0.08267 0.14162 0.81056 0.0
C808 C 0.0561 0.11746 0.86158 0.0
C809 C 0.03552 0.11053 0.85372 0.0
C810 C 0.06626 0.13082 0.8255 0.0
C811 C 0.03104 0.11401 0.83135 0.0
C812 C 0.07669 0.15132 0.79052 0.0
C813 C 0.12005 0.15226 0.80434 0.0
N814 N 0.04618 0.12404 0.81808 0.0
N815 N 0.10418 0.1425 0.81668 0.0
H816 H 0.2489 0.41777 0.15862 0.0
H817 H 0.22808 0.53642 0.10509 0.0
H818 H 0.29232 0.47206 0.17195 0.0
H819 H 0.1809 0.48374 0.10717 0.0
H820 H 0.25402 0.51322 0.12593 0.0
H821 H 0.22614 0.44166 0.13648 0.0
C822 C 0.25374 0.43477 0.15694 0.0
C823 C 0.27269 0.44277 0.16739 0.0
C824 C 0.23802 0.50677 0.12167 0.0
C825 C 0.24625 0.47068 0.1415 0.0
C826 C 0.22327 0.51994 0.10961 0.0
C827 C 0.20219 0.51208 0.10429 0.0
C828 C 0.23173 0.48551 0.12821 0.0
C829 C 0.19685 0.49065 0.11088 0.0
C830 C 0.2406 0.44851 0.1442 0.0
C831 C 0.27785 0.46511 0.16436 0.0
N832 N 0.2114 0.47827 0.12235 0.0
N833 N 0.26476 0.47826 0.15168 0.0
H834 H 0.78947 0.1071 0.90179 0.0
H835 H 0.69586 1.01894 0.89478 0.0
H836 H 0.77725 0.07364 0.84085 0.0
H837 H 0.73677 1.02224 0.95221 0.0
H838 H 0.72257 0.04166 0.87497 0.0
H839 H 0.76777 0.07916 0.92105 0.0
C840 C 0.7824 0.09371 0.89249 0.0
C841 C 0.78533 0.09264 0.86967 0.0
C842 C 0.72583 0.03723 0.89183 0.0
C843 C 0.7598 0.06093 0.89161 0.0
C844 C 0.71057 0.02431 0.90319 0.0
C845 C 0.71409 1.01858 0.92521 0.0
C846 C 0.74452 0.04519 0.90269 0.0
C847 C 0.73346 0.02609 0.93524 0.0
C848 C 0.77005 0.07776 0.90351 0.0
C849 C 0.77565 0.07498 0.85845 0.0
N850 N 0.74773 0.03932 0.92405 0.0
N851 N 0.763 0.06006 0.86946 0.0
H852 H 0.77884 0.96502 0.32681 0.0
H853 H 0.81495 0.02605 0.43765 0.0
H854 H 0.75746 0.94266 0.39019 0.0
H855 H 0.85878 1.01893 0.38266 0.0
H856 H 0.78781 1.003 0.41839 0.0
H857 H 0.80223 0.99267 0.34497 0.0
C858 C 0.77863 0.96633 0.3445 0.0
C859 C 0.76603 0.95171 0.35702 0.0
C860 C 0.80331 1.0067 0.4105 0.0
C861 C 0.79267 0.98321 0.37788 0.0
C862 C 0.81875 1.01992 0.42144 0.0
C863 C 0.83925 0.02437 0.41183 0.0
C864 C 0.80811 0.99836 0.38953 0.0
C865 C 0.84328 1.01581 0.39078 0.0
C866 C 0.79212 0.98194 0.35486 0.0
C867 C 0.76679 0.95377 0.37994 0.0
N868 N 0.82788 1.00337 0.38034 0.0
N869 N 0.77976 0.96923 0.38962 0.0
H870 H 0.81805 0.02307 0.08742 0.0
H871 H 0.77046 0.0711 0.19934 0.0
H872 H 0.85476 1.01786 0.14747 0.0
H873 H 0.76705 0.10861 0.13969 0.0
H874 H 0.79405 0.04419 0.18042 0.0
H875 H 0.79168 0.04738 0.10626 0.0
C876 C 0.82038 0.02676 0.10461 0.0
C877 C 0.83868 1.01846 0.11586 0.0
C878 C 0.78794 0.05824 0.17148 0.0
C879 C 0.80838 0.04582 0.13758 0.0
C880 C 0.77441 0.07352 0.18222 0.0
C881 C 0.76682 0.09219 0.17112 0.0
C882 C 0.79335 0.06125 0.14929 0.0
C883 C 0.77263 0.09454 0.14893 0.0
C884 C 0.80543 0.0407 0.1153 0.0
C885 C 0.84097 0.02397 0.13813 0.0
N886 N 0.78536 0.07922 0.13872 0.0
N887 N 0.82596 0.03712 0.14828 0.0
H888 H 0.26515 0.62512 0.63413 0.0
H889 H 0.35671 0.53559 0.65111 0.0
H890 H 0.2754 0.5968 0.6979 0.0
H891 H 0.31784 0.53588 0.59219 0.0
H892 H 0.33039 0.56091 0.66814 0.0
H893 H 0.28731 0.59569 0.61785 0.0
C894 C 0.27193 0.6126 0.64471 0.0
C895 C 0.26828 0.61342 0.66745 0.0
C896 C 0.32751 0.55529 0.65156 0.0
C897 C 0.29429 0.57993 0.64887 0.0
C898 C 0.34257 0.5409 0.64177 0.0
C899 C 0.3395 0.5335 0.62015 0.0
C900 C 0.30951 0.56302 0.63949 0.0
C901 C 0.32082 0.54099 0.6089 0.0
C902 C 0.28454 0.59578 0.63537 0.0
C903 C 0.27759 0.59673 0.68031 0.0
N904 N 0.30676 0.55558 0.61855 0.0
N905 N 0.29045 0.58092 0.67091 0.0
H906 H 0.28131 0.61933 0.41594 0.0
H907 H 0.19134 0.52873 0.39617 0.0
H908 H 0.27196 0.59139 0.35178 0.0
H909 H 0.22732 0.53055 0.45686 0.0
H910 H 0.21829 0.55376 0.37989 0.0
H911 H 0.25956 0.58936 0.43173 0.0
C912 C 0.27485 0.60677 0.40517 0.0
C913 C 0.27856 0.6079 0.38246 0.0
C914 C 0.22046 0.54851 0.39669 0.0
C915 C 0.25307 0.57374 0.40048 0.0
C916 C 0.20505 0.53426 0.40604 0.0
C917 C 0.20708 0.52743 0.42793 0.0
C918 C 0.23779 0.55669 0.40945 0.0
C919 C 0.22519 0.53521 0.4399 0.0
C920 C 0.26248 0.58963 0.41424 0.0
C921 C 0.2697 0.59112 0.36936 0.0
N922 N 0.23962 0.54971 0.43064 0.0
N923 N 0.25707 0.57499 0.37849 0.0
H924 H 0.38044 0.46775 0.91794 0.0
H925 H 0.25841 0.46337 0.86926 0.0
H926 H 0.33259 0.51739 0.93374 0.0
H927 H 0.29857 0.40595 0.87852 0.0
H928 H 0.2865 0.48537 0.88837 0.0
H929 H 0.35186 0.44682 0.89905 0.0
C930 C 0.36392 0.47428 0.91746 0.0
C931 C 0.35899 0.49439 0.9276 0.0
C932 C 0.2891 0.46795 0.88618 0.0
C933 C 0.32603 0.47047 0.90553 0.0
C934 C 0.27313 0.4554 0.87517 0.0
C935 C 0.27603 0.4327 0.87226 0.0
C936 C 0.30836 0.45785 0.89396 0.0
C937 C 0.29548 0.42332 0.88042 0.0
C938 C 0.34756 0.46227 0.90668 0.0
C939 C 0.33717 0.50192 0.92634 0.0
N940 N 0.31085 0.43588 0.89069 0.0
N941 N 0.32157 0.49007 0.91539 0.0
H942 H 0.59796 0.70612 1.01272 0.0
H943 H 0.7087 0.76321 0.97104 0.0
H944 H 0.66059 0.67383 1.01847 0.0
H945 H 0.64876 0.76726 0.93383 0.0
H946 H 0.69062 0.737 0.99601 0.0
H947 H 0.61572 0.73529 0.99105 0.0
C948 C 0.61546 0.70531 1.00971 0.0
C949 C 0.62776 0.68742 1.01738 0.0
C950 C 0.68141 0.74385 0.98249 0.0
C951 C 0.64825 0.72097 0.99299 0.0
C952 C 0.69166 0.7589 0.96834 0.0
C953 C 0.68026 0.76745 0.95028 0.0
C954 C 0.65939 0.73777 0.97897 0.0
C955 C 0.65822 0.76104 0.94748 0.0
C956 C 0.62556 0.72189 0.99726 0.0
C957 C 0.65042 0.68722 1.01279 0.0
N958 N 0.6485 0.74676 0.96168 0.0
N959 N 0.65993 0.70374 1.00107 0.0
H960 H 0.62814 0.40604 0.26916 0.0
H961 H 0.53003 0.38718 0.18799 0.0
H962 H 0.5946 0.3438 0.26864 0.0
H963 H 0.53453 0.44797 0.22371 0.0
H964 H 0.55724 0.37098 0.21286 0.0
H965 H 0.59778 0.42205 0.24808 0.0
C966 C 0.61436 0.39574 0.26465 0.0
C967 C 0.61391 0.37353 0.27073 0.0
C968 C 0.55214 0.38781 0.21534 0.0
C969 C 0.57936 0.39169 0.24612 0.0
C970 C 0.53668 0.39709 0.20114 0.0
C971 C 0.52992 0.41895 0.20382 0.0
C972 C 0.56155 0.40066 0.23195 0.0
C973 C 0.53913 0.43103 0.22115 0.0
C974 C 0.59702 0.40493 0.25271 0.0
C975 C 0.59558 0.36101 0.26443 0.0
N976 N 0.55474 0.42185 0.23432 0.0
N977 N 0.57923 0.37015 0.25218 0.0
H978 H 0.93478 0.37009 0.49098 0.0
H979 H 0.87382 0.25716 0.46419 0.0
H980 H 0.93197 0.31905 0.5397 0.0
H981 H 0.90299 0.29934 0.41553 0.0
H982 H 0.89082 0.28 0.49309 0.0
H983 H 0.91885 0.34513 0.46432 0.0
C984 C 0.93082 0.35357 0.49614 0.0
C985 C 0.93484 0.34677 0.51775 0.0
C986 C 0.89352 0.2841 0.47605 0.0
C987 C 0.9161 0.31777 0.48687 0.0
C988 C 0.88375 0.27114 0.45954 0.0
C989 C 0.8869 0.27624 0.43726 0.0
C990 C 0.90618 0.30254 0.47026 0.0
C991 C 0.90003 0.29458 0.43235 0.0
C992 C 0.92173 0.33924 0.48079 0.0
C993 C 0.92932 0.32501 0.52323 0.0
N994 N 0.90893 0.30701 0.44858 0.0
N995 N 0.92006 0.31133 0.50795 0.0
H996 H 0.92465 0.66684 0.74417 0.0
H997 H 0.04444 0.61601 0.7236 0.0
H998 H 0.97686 0.67731 0.79071 0.0
H999 H 0.99522 0.6254 0.67374 0.0
H1000 H 1.02019 0.63499 0.75005 0.0
H1001 H 0.95027 0.64825 0.72004 0.0
C1002 C 0.94156 0.66527 0.7494 0.0
C1003 C 0.94846 0.67381 0.76965 0.0
C1004 C 1.01481 0.63286 0.73329 0.0
C1005 C 0.97835 0.65205 0.74165 0.0
C1006 C 0.02858 0.62192 0.7182 0.0
C1007 C 1.02197 0.61903 0.69629 0.0
C1008 C 0.99413 0.64065 0.7265 0.0
C1009 C 1.00123 0.6272 0.69032 0.0
C1010 C 0.95629 0.6546 0.73548 0.0
C1011 C 0.97075 0.67113 0.77525 0.0
N1012 N 0.98818 0.63744 0.70524 0.0
N1013 N 0.98488 0.6604 0.7614 0.0
H1014 H 0.63991 0.35606 0.53305 0.0
H1015 H 0.63456 0.26289 0.62157 0.0
H1016 H 0.58011 0.31929 0.5416 0.0
H1017 H 0.69295 0.27125 0.58259 0.0
H1018 H 0.61428 0.28611 0.59574 0.0
H1019 H 0.65979 0.32818 0.55411 0.0
C1020 C 0.63097 0.34201 0.53926 0.0
C1021 C 0.60829 0.34 0.53547 0.0
C1022 C 0.63146 0.28268 0.59269 0.0
C1023 C 0.63096 0.30822 0.56019 0.0
C1024 C 0.64309 0.26947 0.60746 0.0
C1025 C 0.66552 0.265 0.60423 0.0
C1026 C 0.64242 0.29219 0.57485 0.0
C1027 C 0.67568 0.27407 0.58564 0.0
C1028 C 0.64237 0.32608 0.55121 0.0
C1029 C 0.5976 0.32143 0.54396 0.0
N1030 N 0.66418 0.28753 0.5719 0.0
N1031 N 0.60893 0.30647 0.55624 0.0
H1032 H 0.96609 0.33863 0.76864 0.0
H1033 H 1.0186 0.45128 0.81126 0.0
H1034 H 0.9346 0.40069 0.75678 0.0
H1035 H 1.01745 0.3934 0.85162 0.0
H1036 H 0.9958 0.43192 0.78397 0.0
H1037 H 0.99329 0.35755 0.79197 0.0
C1038 C 0.96521 0.35627 0.77052 0.0
C1039 C 0.94809 0.36811 0.76071 0.0
C1040 C 1.00079 0.42344 0.79872 0.0
C1041 C 0.97923 0.38984 0.78708 0.0
C1042 C 1.01387 0.43442 0.81422 0.0
C1043 C 1.01987 0.42398 0.83381 0.0
C1044 C 0.99424 0.40163 0.80249 0.0
C1045 C 1.01309 0.40213 0.83683 0.0
C1046 C 0.98059 0.36701 0.78395 0.0
C1047 C 0.94753 0.39093 0.76403 0.0
N1048 N 1.0008 0.39167 0.82135 0.0
N1049 N 0.96288 0.40105 0.77679 0.0
H1050 H 0.86062 0.78845 0.06196 0.0
H1051 H 0.92121 0.67304 0.04353 0.0
H1052 H 0.87575 0.74214 0.11307 0.0
H1053 H 0.92494 0.72391 0.9947 0.0
H1054 H 0.90165 0.69794 0.06767 0.0
H1055 H 0.88101 0.76512 0.03575 0.0
C1056 C 0.8681 0.77342 0.06769 0.0
C1057 C 0.86635 0.76736 0.08989 0.0
C1058 C 0.90674 0.70384 0.05174 0.0
C1059 C 0.88965 0.74054 0.05993 0.0
C1060 C 0.91797 0.68952 0.03781 0.0
C1061 C 0.92489 0.69625 1.0169 0.0
C1062 C 0.90193 0.72528 0.04489 0.0
C1063 C 0.92009 0.71798 1.01068 0.0
C1064 C 0.87983 0.76017 0.05273 0.0
C1065 C 0.87656 0.74769 0.09626 0.0
N1066 N 0.9088 0.73167 0.02453 0.0
N1067 N 0.88755 0.73511 0.08147 0.0
H1068 H 0.52661 0.58481 0.3241 0.0
H1069 H 0.57177 0.69519 0.26989 0.0
H1070 H 0.52456 0.64606 0.35924 0.0
H1071 H 0.60912 0.63536 0.26612 0.0
H1072 H 0.54607 0.67697 0.29536 0.0
H1073 H 0.54884 0.60272 0.29535 0.0
C1074 C 0.53051 0.60207 0.3256 0.0
C1075 C 0.52374 0.61393 0.34416 0.0
C1076 C 0.55975 0.6678 0.28869 0.0
C1077 C 0.5487 0.6346 0.31111 0.0
C1078 C 0.57431 0.67813 0.27405 0.0
C1079 C 0.59263 0.66679 0.26582 0.0
C1080 C 0.56309 0.64576 0.29462 0.0
C1081 C 0.59525 0.64474 0.27207 0.0
C1082 C 0.54328 0.61224 0.30927 0.0
C1083 C 0.5295 0.63626 0.34529 0.0
N1084 N 0.58063 0.63493 0.28591 0.0
N1085 N 0.54144 0.64588 0.32899 0.0
H1086 H 0.74552 0.92085 0.67293 0.0
H1087 H 0.72604 0.03947 0.61974 0.0
H1088 H 0.79229 0.97307 0.68269 0.0
H1089 H 0.67548 0.991 0.62996 0.0
H1090 H 0.75218 1.01549 0.63935 0.0
H1091 H 0.72147 0.9462 0.65389 0.0
C1092 C 0.7508 0.93771 0.67112 0.0
C1093 C 0.77109 0.94471 0.67958 0.0
C1094 C 0.73533 1.01021 0.63727 0.0
C1095 C 0.74325 0.97422 0.65727 0.0
C1096 C 0.72043 0.02383 0.62597 0.0
C1097 C 0.69841 1.01735 0.62311 0.0
C1098 C 0.72826 0.98981 0.64549 0.0
C1099 C 0.69216 0.99688 0.63171 0.0
C1100 C 0.73694 0.95227 0.6602 0.0
C1101 C 0.77678 0.96691 0.6766 0.0
N1102 N 0.70691 0.98397 0.6423 0.0
N1103 N 0.76302 0.98084 0.66559 0.0
H1104 H 0.25761 0.40952 0.25675 0.0
H1105 H 0.26827 0.32797 0.35787 0.0
H1106 H 0.27042 0.34042 0.24976 0.0
H1107 H 0.2213 0.3806 0.35986 0.0
H1108 H 0.27793 0.33832 0.32036 0.0
H1109 H 0.25042 0.40387 0.29602 0.0
C1110 C 0.25838 0.39308 0.26339 0.0
C1111 C 0.26412 0.37532 0.24985 0.0
C1112 C 0.26602 0.34807 0.32925 0.0
C1113 C 0.25725 0.36902 0.29493 0.0
C1114 C 0.26095 0.34257 0.35089 0.0
C1115 C 0.24439 0.35381 0.36229 0.0
C1116 C 0.25461 0.36513 0.31889 0.0
C1117 C 0.23465 0.37193 0.35195 0.0
C1118 C 0.25452 0.38994 0.28581 0.0
C1119 C 0.26548 0.35447 0.25944 0.0
N1120 N 0.23975 0.37694 0.33075 0.0
N1121 N 0.2624 0.35195 0.2814 0.0
H1122 H 0.87971 1.00939 0.49917 0.0
H1123 H 0.97435 1.00957 0.58886 0.0
H1124 H 0.94866 1.01084 0.4833 0.0
H1125 H 0.91301 0.97692 0.60186 0.0
H1126 H 0.96215 1.01708 0.55152 0.0
H1127 H 0.88909 1.00191 0.53759 0.0
C1128 C 0.89682 1.00757 0.50367 0.0
C1129 C 0.91343 1.01042 0.4879 0.0
C1130 C 0.95112 1.00867 0.56262 0.0
C1131 C 0.92423 1.00297 0.53202 0.0
C1132 C 0.95788 1.00479 0.58409 0.0
C1133 C 0.94445 0.99309 0.59867 0.0
C1134 C 0.93069 1.00082 0.55549 0.0
C1135 C 0.92359 0.98656 0.59135 0.0
C1136 C 0.90212 1.00351 0.52562 0.0
C1137 C 0.93531 1.00833 0.49475 0.0
N1138 N 0.91734 0.99045 0.5702 0.0
N1139 N 0.94006 1.00509 0.51631 0.0
H1140 H 0.30676 0.71422 0.838 0.0
H1141 H 0.29695 0.73183 0.70922 0.0
H1142 H 0.33872 0.76868 0.80615 0.0
H1143 H 0.28932 0.66903 0.74071 0.0
H1144 H 0.31188 0.74667 0.74372 0.0
H1145 H 0.29838 0.69862 0.80202 0.0
C1146 C 0.31201 0.72291 0.82345 0.0
C1147 C 0.32347 0.74279 0.82517 0.0
C1148 C 0.30728 0.72954 0.74288 0.0
C1149 C 0.31379 0.72506 0.78374 0.0
C1150 C 0.29899 0.72101 0.72312 0.0
C1151 C 0.29175 0.69916 0.72204 0.0
C1152 C 0.30805 0.71617 0.76166 0.0
C1153 C 0.29448 0.68602 0.74076 0.0
C1154 C 0.30733 0.71394 0.80288 0.0
C1155 C 0.32991 0.75326 0.80564 0.0
N1156 N 0.30204 0.69478 0.75977 0.0
N1157 N 0.32483 0.7444 0.78576 0.0
H1158 H 0.65711 1.00722 1.02083 0.0
H1159 H 0.59929 0.1026 0.08871 0.0
H1160 H 0.62023 0.05936 0.99049 0.0
H1161 H 0.60924 0.03857 0.11658 0.0
H1162 H 0.61502 0.09001 0.05431 0.0
H1163 H 0.64681 1.02123 0.05681 0.0
C1164 C 0.64707 1.02184 1.02164 0.0
C1165 C 0.63966 0.0322 1.00236 0.0
C1166 C 0.61411 0.07874 0.06797 0.0
C1167 C 0.62788 0.04836 0.04399 0.0
C1168 C 0.60537 0.08598 0.08778 0.0
C1169 C 0.60296 0.07168 0.10568 0.0
C1170 C 0.62076 0.05692 0.0658 0.0
C1171 C 0.61101 0.05025 0.10336 0.0
C1172 C 0.6411 0.02969 0.04231 0.0
C1173 C 0.62642 0.05086 1.00475 0.0
N1174 N 0.61943 0.04345 0.08368 0.0
N1175 N 0.62106 0.05839 0.02516 0.0
H1176 H 0.2262 0.69874 0.21932 0.0
H1177 H 0.24902 0.72741 0.34384 0.0
H1178 H 0.20269 0.7594 0.24708 0.0
H1179 H 0.24626 0.66142 0.31868 0.0
H1180 H 0.23187 0.74049 0.30971 0.0
H1181 H 0.23503 0.68582 0.25608 0.0
C1182 C 0.22291 0.70938 0.23316 0.0
C1183 C 0.21373 0.73021 0.23005 0.0
C1184 C 0.23455 0.72309 0.31194 0.0
C1185 C 0.22393 0.7155 0.27244 0.0
C1186 C 0.24407 0.7156 0.33154 0.0
C1187 C 0.24912 0.69328 0.33411 0.0
C1188 C 0.23037 0.70816 0.29483 0.0
C1189 C 0.24278 0.67877 0.31737 0.0
C1190 C 0.22782 0.70192 0.25421 0.0
C1191 C 0.20971 0.74319 0.24871 0.0
N1192 N 0.23414 0.68647 0.2984 0.0
N1193 N 0.21505 0.73574 0.26909 0.0
H1194 H 0.65951 1.00298 0.53937 0.0
H1195 H 0.571 1.00741 0.44349 0.0
H1196 H 0.59012 1.01071 0.55076 0.0
H1197 H 0.62988 0.96911 0.43618 0.0
H1198 H 0.58154 1.01597 0.48121 0.0
H1199 H 0.65193 0.99532 0.50057 0.0
C1200 C 0.64263 1.0025 0.53381 0.0
C1201 C 0.62537 1.00707 0.54844 0.0
C1202 C 0.59246 1.00615 0.47122 0.0
C1203 C 0.61673 0.99951 0.50384 0.0
C1204 C 0.58674 1.00171 0.44951 0.0
C1205 C 0.59994 0.98811 0.43642 0.0
C1206 C 0.61162 0.99696 0.48006 0.0
C1207 C 0.61963 0.98028 0.44544 0.0
C1208 C 0.63836 0.99835 0.51163 0.0
C1209 C 0.60387 1.00676 0.54022 0.0
N1210 N 0.62486 0.98474 0.46675 0.0
N1211 N 0.60019 1.00339 0.51844 0.0
H1212 H 0.30667 0.35348 0.68581 0.0
H1213 H 0.27691 0.32207 0.81024 0.0
H1214 H 0.30584 0.28749 0.71075 0.0
H1215 H 0.27109 0.38765 0.7845 0.0
H1216 H 0.28814 0.30933 0.77384 0.0
H1217 H 0.29228 0.36652 0.72123 0.0
C1218 C 0.30265 0.34169 0.69845 0.0
C1219 C 0.30699 0.31937 0.69528 0.0
C1220 C 0.2845 0.32654 0.77618 0.0
C1221 C 0.29162 0.33411 0.73606 0.0
C1222 C 0.27834 0.33386 0.79707 0.0
C1223 C 0.27309 0.35598 0.80055 0.0
C1224 C 0.2855 0.34143 0.75859 0.0
C1225 C 0.27497 0.37043 0.78266 0.0
C1226 C 0.29482 0.34913 0.7188 0.0
C1227 C 0.30236 0.30482 0.71248 0.0
N1228 N 0.28095 0.36292 0.76253 0.0
N1229 N 0.29513 0.31243 0.73212 0.0
H1230 H 0.95307 0.02512 0.05074 0.0
H1231 H 0.92333 0.07092 0.93259 0.0
H1232 H 0.8854 0.0343 0.03237 0.0
H1233 H 0.97947 0.02998 0.94496 0.0
H1234 H 0.90888 0.06146 0.96913 0.0
H1235 H 0.96401 0.033 1.01284 0.0
C1236 C 0.94057 0.02951 0.03893 0.0
C1237 C 0.91831 0.02934 0.04484 0.0
C1238 C 0.92405 0.05406 0.96355 0.0
C1239 C 0.93065 0.03789 1.00125 0.0
C1240 C 0.93202 0.05905 0.94251 0.0
C1241 C 0.95227 0.05062 0.9354 0.0
C1242 C 0.93681 0.04117 0.97779 0.0
C1243 C 0.96348 0.0363 0.94951 0.0
C1244 C 0.94677 0.03359 1.01719 0.0
C1245 C 0.90277 0.03447 0.02857 0.0
N1246 N 0.95586 0.03237 0.97008 0.0
N1247 N 0.9092 0.03859 1.00757 0.0
H1248 H 0.35974 0.26592 0.31755 0.0
H1249 H 0.2612 0.26104 0.40363 0.0
H1250 H 0.3626 0.22264 0.37305 0.0
H1251 H 0.25203 0.27511 0.33513 0.0
H1252 H 0.29982 0.25192 0.3962 0.0
H1253 H 0.32251 0.27668 0.32824 0.0
C1254 C 0.35297 0.25958 0.3327 0.0
C1255 C 0.36463 0.24391 0.34485 0.0
C1256 C 0.28927 0.25671 0.38277 0.0
C1257 C 0.32146 0.25534 0.35662 0.0
C1258 C 0.26719 0.2617 0.38693 0.0
C1259 C 0.25321 0.2684 0.36989 0.0
C1260 C 0.29771 0.25915 0.36151 0.0
C1261 C 0.26202 0.2695 0.34866 0.0
C1262 C 0.33148 0.2653 0.33846 0.0
C1263 C 0.35453 0.23535 0.36369 0.0
N1264 N 0.28373 0.26523 0.34514 0.0
N1265 N 0.33349 0.24109 0.36896 0.0
H1266 H 0.02971 0.99678 0.58184 0.0
H1267 H 0.06505 0.11902 0.61209 0.0
H1268 H 0.02846 1.01854 0.649 0.0
H1269 H 0.03386 0.10112 0.55139 0.0
H1270 H 0.0561 0.08234 0.62673 0.0
H1271 H 0.03819 0.0344 0.57041 0.0
C1272 C 0.03194 1.0093 0.59423 0.0
C1273 C 0.02858 1.00443 0.61641 0.0
C1274 C 0.05077 0.0867 0.6104 0.0
C1275 C 0.03779 0.0477 0.60344 0.0
C1276 C 0.05547 0.10777 0.60224 0.0
C1277 C 0.04968 0.11332 0.5807 0.0
C1278 C 0.04082 0.07101 0.59666 0.0
C1279 C 0.0382 0.09767 0.56824 0.0
C1280 C 0.03638 0.03087 0.58769 0.0
C1281 C 0.03108 1.02156 0.63172 0.0
N1282 N 0.03449 0.07722 0.57623 0.0
N1283 N 0.03553 0.0424 0.62499 0.0
H1284 H 0.16882 0.79615 0.82074 0.0
H1285 H 0.25439 0.78948 0.91857 0.0
H1286 H 0.15725 0.83308 0.87974 0.0
H1287 H 0.27345 0.79081 0.85058 0.0
H1288 H 0.21647 0.79826 0.90781 0.0
H1289 H 0.20432 0.78439 0.83533 0.0
C1290 C 0.17328 0.80083 0.83728 0.0
C1291 C 0.15985 0.81512 0.84931 0.0
C1292 C 0.22904 0.79682 0.89532 0.0
C1293 C 0.20084 0.80251 0.86571 0.0
C1294 C 0.25066 0.79197 0.90142 0.0
C1295 C 0.26714 0.78969 0.88544 0.0
C1296 C 0.22375 0.79864 0.87306 0.0
C1297 C 0.26136 0.79278 0.86344 0.0
C1298 C 0.19374 0.79455 0.84536 0.0
C1299 C 0.16685 0.82153 0.87026 0.0
N1300 N 0.24009 0.79678 0.85788 0.0
N1301 N 0.18698 0.81528 0.87781 0.0
H1302 H 0.51022 0.03803 0.1566 0.0
H1303 H 0.52241 0.94164 0.07007 0.0
H1304 H 0.52117 0.04914 0.08779 0.0
H1305 H 0.47262 0.9369 0.1199 0.0
H1306 H 0.53156 0.97847 0.08313 0.0
H1307 H 0.50322 0.99901 0.14877 0.0
C1308 C 0.51065 0.03233 0.13979 0.0
C1309 C 0.51581 0.04693 0.12274 0.0
C1310 C 0.51914 0.96907 0.09169 0.0
C1311 C 0.50921 1.00222 0.11394 0.0
C1312 C 0.51434 0.9478 0.08466 0.0
C1313 C 0.4971 0.9359 0.09425 0.0
C1314 C 0.50683 0.9785 0.10869 0.0
C1315 C 0.48646 0.94521 0.11246 0.0
C1316 C 0.50689 1.01008 0.13541 0.0
C1317 C 0.51672 0.03859 0.10134 0.0
N1318 N 0.49134 0.96607 0.119 0.0
N1319 N 0.5138 1.01675 0.09759 0.0
H1320 H 0.38376 0.78487 0.19058 0.0
H1321 H 0.25544 0.80037 0.17259 0.0
H1322 H 0.35218 0.84796 0.18689 0.0
H1323 H 0.28841 0.7416 0.15107 0.0
H1324 H 0.29125 0.81747 0.17895 0.0
H1325 H 0.34997 0.76785 0.17598 0.0
C1326 C 0.37004 0.79518 0.18606 0.0
C1327 C 0.37076 0.81784 0.19002 0.0
C1328 C 0.29068 0.80089 0.17264 0.0
C1329 C 0.33198 0.79856 0.17413 0.0
C1330 C 0.2702 0.79111 0.16906 0.0
C1331 C 0.26884 0.76954 0.16123 0.0
C1332 C 0.31008 0.78891 0.16881 0.0
C1333 C 0.28863 0.75833 0.157 0.0
C1334 C 0.35067 0.78548 0.17797 0.0
C1335 C 0.35229 0.8304 0.18426 0.0
N1336 N 0.3084 0.76802 0.16108 0.0
N1337 N 0.33366 0.82061 0.17697 0.0
H1338 H 0.50894 1.00514 0.38765 0.0
H1339 H 0.51398 0.09869 0.47889 0.0
H1340 H 0.52163 0.99214 0.45577 0.0
H1341 H 0.47403 0.10635 0.42132 0.0
H1342 H 0.52338 0.06149 0.46707 0.0
H1343 H 0.5001 0.04333 0.39695 0.0
C1344 C 0.5092 1.01018 0.40467 0.0
C1345 C 0.51552 0.99528 0.42104 0.0
C1346 C 0.51301 0.07147 0.4567 0.0
C1347 C 0.50669 0.03929 0.43161 0.0
C1348 C 0.5081 0.09292 0.46315 0.0
C1349 C 0.49381 0.10594 0.45068 0.0
C1350 C 0.50357 0.06284 0.43758 0.0
C1351 C 0.48573 0.09717 0.43099 0.0
C1352 C 0.50443 0.03203 0.40991 0.0
C1353 C 0.51625 1.00287 0.44273 0.0
N1354 N 0.49065 0.07614 0.42507 0.0
N1355 N 0.51222 0.02439 0.44733 0.0
H1356 H 0.21342 0.21427 0.69761 0.0
H1357 H 0.3373 0.24342 0.72334 0.0
H1358 H 0.24135 0.19731 0.7602 0.0
H1359 H 0.31326 0.23036 0.65825 0.0
H1360 H 0.3034 0.22725 0.73841 0.0
H1361 H 0.2502 0.22254 0.68394 0.0
C1362 C 0.22729 0.21233 0.70852 0.0
C1363 C 0.22423 0.20511 0.73011 0.0
C1364 C 0.30585 0.22744 0.72085 0.0
C1365 C 0.26664 0.2147 0.71453 0.0
C1366 C 0.32535 0.23638 0.71225 0.0
C1367 C 0.32817 0.23825 0.68947 0.0
C1368 C 0.28905 0.22066 0.70654 0.0
C1369 C 0.3118 0.22934 0.6759 0.0
C1370 C 0.24836 0.2169 0.70065 0.0
C1371 C 0.24295 0.20278 0.74342 0.0
N1372 N 0.29287 0.22136 0.68458 0.0
N1373 N 0.26334 0.20779 0.73551 0.0
H1374 H 0.07793 0.92626 0.93034 0.0
H1375 H 0.02944 0.04182 0.96354 0.0
H1376 H 0.02957 0.93411 0.98117 0.0
H1377 H 0.04449 0.02857 0.89585 0.0
H1378 H 0.0355 1.00292 0.97192 0.0
H1379 H 0.06961 0.96351 0.91735 0.0
C1380 C 0.06465 0.9353 0.93794 0.0
C1381 C 0.05391 0.92676 0.95644 0.0
C1382 C 0.03776 1.00861 0.95527 0.0
C1383 C 0.04565 0.96997 0.94287 0.0
C1384 C 0.03475 0.03089 0.95059 0.0
C1385 C 0.0368 0.03853 0.92903 0.0
C1386 C 0.04325 0.99388 0.93838 0.0
C1387 C 0.043 0.02339 0.91274 0.0
C1388 C 0.0603 0.95678 0.93089 0.0
C1389 C 0.03774 0.93978 0.96645 0.0
N1390 N 0.0461 1.00183 0.91773 0.0
N1391 N 0.03448 0.96084 0.9599 0.0
H1392 H 0.32343 0.35791 0.26153 0.0
H1393 H 0.409 0.25966 0.2517 0.0
H1394 H 0.37573 0.3607 0.21418 0.0
H1395 H 0.34092 0.25048 0.26852 0.0
H1396 H 0.40125 0.29823 0.24288 0.0
H1397 H 0.33505 0.32089 0.27167 0.0
C1398 C 0.33817 0.3512 0.25415 0.0
C1399 C 0.34905 0.36274 0.23746 0.0
C1400 C 0.38797 0.28767 0.24818 0.0
C1401 C 0.36179 0.3198 0.2482 0.0
C1402 C 0.3923 0.26562 0.25296 0.0
C1403 C 0.37546 0.25167 0.26034 0.0
C1404 C 0.36679 0.29608 0.25157 0.0
C1405 C 0.35425 0.26044 0.26231 0.0
C1406 C 0.34441 0.32982 0.25951 0.0
C1407 C 0.36737 0.35273 0.22765 0.0
N1408 N 0.3506 0.28212 0.25827 0.0
N1409 N 0.3731 0.33177 0.23305 0.0
H1410 H 0.87894 0.18736 0.82069 0.0
H1411 H 0.83572 0.30486 0.78112 0.0
H1412 H 0.81548 0.19814 0.79168 0.0
H1413 H 0.90482 0.29066 0.78609 0.0
H1414 H 0.82762 0.26661 0.79068 0.0
H1415 H 0.8892 0.22533 0.81127 0.0
C1416 C 0.86757 0.19738 0.81145 0.0
C1417 C 0.84659 0.18938 0.80632 0.0
C1418 C 0.84457 0.27196 0.79005 0.0
C1419 C 0.85753 0.23318 0.79694 0.0
C1420 C 0.84916 0.29393 0.78505 0.0
C1421 C 0.87096 0.30107 0.78312 0.0
C1422 C 0.8619 0.25703 0.79335 0.0
C1423 C 0.88776 0.28589 0.78765 0.0
C1424 C 0.87322 0.21919 0.80651 0.0
C1425 C 0.83203 0.20348 0.79539 0.0
N1426 N 0.88291 0.26463 0.79249 0.0
N1427 N 0.83764 0.22468 0.79133 0.0
H1428 H 0.99106 0.60503 0.05016 0.0
H1429 H 0.11873 0.59621 0.02341 0.0
H1430 H 1.01974 0.641 0.99647 0.0
H1431 H 0.09241 0.58865 0.08852 0.0
H1432 H 0.08301 0.61144 1.01167 0.0
H1433 H 0.02827 0.59623 0.06306 0.0
C1434 C 1.00511 0.6112 0.04119 0.0
C1435 C 1.00216 0.62395 0.02234 0.0
C1436 C 0.08529 0.60679 0.02862 0.0
C1437 C 0.04484 0.61357 0.0367 0.0
C1438 C 0.10576 0.59838 0.03535 0.0
C1439 C 0.10859 0.59116 0.05697 0.0
C1440 C 0.06759 0.60757 0.04356 0.0
C1441 C 0.09095 0.59391 0.07165 0.0
C1442 C 0.02636 0.60621 0.04854 0.0
C1443 C 1.02112 0.63134 1.01126 0.0
N1444 N 0.07123 0.6015 0.06464 0.0
N1445 N 0.04156 0.62588 1.01844 0.0
H1446 H 0.68801 0.73169 0.30268 0.0
H1447 H 0.68583 0.86078 0.28055 0.0
H1448 H 0.64483 0.76056 0.25468 0.0
H1449 H 0.70686 0.8321 0.34156 0.0
H1450 H 0.67137 0.82454 0.26944 0.0
H1451 H 0.69681 0.76873 0.31597 0.0
C1452 C 0.68022 0.74571 0.2951 0.0
C1453 C 0.66556 0.74285 0.27764 0.0
C1454 C 0.67892 0.82638 0.28538 0.0
C1455 C 0.67589 0.78536 0.29239 0.0
C1456 C 0.68697 0.8471 0.29176 0.0
C1457 C 0.69772 0.8495 0.31192 0.0
C1458 C 0.6819 0.80807 0.29921 0.0
C1459 C 0.69895 0.83104 0.32572 0.0
C1460 C 0.68524 0.76687 0.30264 0.0
C1461 C 0.65612 0.7618 0.26831 0.0
N1462 N 0.69148 0.81119 0.31903 0.0
N1463 N 0.66159 0.78215 0.27562 0.0
H1464 H 0.0313 0.88618 0.04887 0.0
H1465 H 0.93286 0.9703 0.03112 0.0
H1466 H 0.04081 0.95436 0.03314 0.0
H1467 H 0.92663 0.91704 0.07686 0.0
H1468 H 0.97086 0.95936 0.02395 0.0
H1469 H 0.99187 0.89319 0.05399 0.0
C1470 C 0.02516 0.90274 0.04706 0.0
C1471 C 0.03944 0.91982 0.04104 0.0
C1472 C 0.96099 0.94964 0.03507 0.0
C1473 C 0.99423 0.92764 0.0456 0.0
C1474 C 0.93911 0.9555 0.0387 0.0
C1475 C 0.92632 0.94415 0.05411 0.0
C1476 C 0.97022 0.9322 0.04685 0.0
C1477 C 0.93566 0.92577 0.06432 0.0
C1478 C 1.00265 0.90665 0.04972 0.0
C1479 C 0.03052 0.94084 0.03832 0.0
N1480 N 0.95712 0.92044 0.06065 0.0
N1481 N 1.00847 0.94409 0.04032 0.0
H1482 H 0.17523 0.69788 0.7351 0.0
H1483 H 0.19136 0.82793 0.75346 0.0
H1484 H 0.23374 0.73416 0.71855 0.0
H1485 H 0.13201 0.79368 0.77142 0.0
H1486 H 0.20653 0.79339 0.7398 0.0
H1487 H 0.15881 0.73219 0.74918 0.0
C1488 C 0.18471 0.7129 0.73472 0.0
C1489 C 0.20582 0.71313 0.7255 0.0
C1490 C 0.1901 0.79342 0.74659 0.0
C1491 C 0.18716 0.75238 0.74116 0.0
C1492 C 0.18136 0.81327 0.75421 0.0
C1493 C 0.16033 0.81387 0.76358 0.0
C1494 C 0.17781 0.7739 0.74835 0.0
C1495 C 0.14829 0.79411 0.76432 0.0
C1496 C 0.17529 0.73252 0.74254 0.0
C1497 C 0.2173 0.73317 0.72525 0.0
N1498 N 0.15721 0.775 0.75694 0.0
N1499 N 0.20785 0.75184 0.73281 0.0
H1500 H 0.99662 0.43747 0.4865 0.0
H1501 H 0.12412 0.44798 0.5123 0.0
H1502 H 0.0252 0.40454 0.54208 0.0
H1503 H 0.09816 0.44987 0.44671 0.0
H1504 H 0.08835 0.43377 0.52519 0.0
H1505 H 0.03389 0.44553 0.47308 0.0
C1506 C 1.01066 0.43188 0.49581 0.0
C1507 C 1.00771 0.42012 0.51529 0.0
C1508 C 0.09073 0.43691 0.5079 0.0
C1509 C 0.05036 0.4296 0.50034 0.0
C1510 C 0.11123 0.4447 0.50055 0.0
C1511 C 0.11415 0.45004 0.4784 0.0
C1512 C 0.07311 0.43491 0.49304 0.0
C1513 C 0.09661 0.446 0.46393 0.0
C1514 C 0.03193 0.4364 0.48815 0.0
C1515 C 0.02662 0.41339 0.52679 0.0
N1516 N 0.07684 0.4391 0.47151 0.0
N1517 N 0.04706 0.41839 0.51929 0.0
H1518 H 0.48457 0.52835 0.95209 0.0
H1519 H 0.5507 0.63274 0.99687 0.0
H1520 H 0.45414 0.5859 0.97975 0.0
H1521 H 0.58126 0.56932 0.99026 0.0
H1522 H 0.51646 0.61741 0.98306 0.0
H1523 H 0.52082 0.54439 0.9596 0.0
C1524 C 0.48547 0.5444 0.95964 0.0
C1525 C 0.46618 0.55574 0.96537 0.0
C1526 C 0.53069 0.60686 0.98434 0.0
C1527 C 0.50771 0.5743 0.97371 0.0
C1528 C 0.55038 0.61564 0.99205 0.0
C1529 C 0.56899 0.60231 0.99486 0.0
C1530 C 0.52935 0.58446 0.97927 0.0
C1531 C 0.56743 0.58027 0.98825 0.0
C1532 C 0.50619 0.55351 0.96393 0.0
C1533 C 0.46846 0.57646 0.97515 0.0
N1534 N 0.54789 0.57197 0.98097 0.0
N1535 N 0.48876 0.58505 0.97892 0.0
H1536 H 0.72607 0.87142 0.86574 0.0
H1537 H 0.76792 0.83408 0.74802 0.0
H1538 H 0.76339 0.81251 0.85488 0.0
H1539 H 0.76066 0.90264 0.76348 0.0
H1540 H 0.76077 0.82518 0.78658 0.0
H1541 H 0.73547 0.8836 0.82843 0.0
C1542 C 0.73719 0.86161 0.85593 0.0
C1543 C 0.74459 0.84127 0.8637 0.0
C1544 C 0.76047 0.84217 0.78147 0.0
C1545 C 0.75393 0.85421 0.82051 0.0
C1546 C 0.76413 0.84721 0.75937 0.0
C1547 C 0.76461 0.86911 0.75244 0.0
C1548 C 0.75693 0.85911 0.79674 0.0
C1549 C 0.76024 0.88551 0.76809 0.0
C1550 C 0.74213 0.86831 0.83447 0.0
C1551 C 0.75792 0.82862 0.84979 0.0
N1552 N 0.75653 0.88021 0.78946 0.0
N1553 N 0.76182 0.83506 0.82882 0.0
H1554 H 0.43359 0.44037 0.11226 0.0
H1555 H 0.39226 0.54284 0.04284 0.0
H1556 H 0.44478 0.50657 0.13423 0.0
H1557 H 0.4144 0.48217 1.01392 0.0
H1558 H 0.40159 0.52859 0.07914 0.0
H1559 H 0.41523 0.45446 0.07966 0.0
C1560 C 0.43142 0.45792 0.11058 0.0
C1561 C 0.44064 0.47236 0.12598 0.0
C1562 C 0.40419 0.51837 0.06485 0.0
C1563 C 0.42011 0.48857 0.08839 0.0
C1564 C 0.39882 0.52639 0.04411 0.0
C1565 C 0.40259 0.51366 0.02524 0.0
C1566 C 0.41295 0.49725 0.06685 0.0
C1567 C 0.41129 0.49257 0.02796 0.0
C1568 C 0.42122 0.46592 0.09183 0.0
C1569 C 0.43763 0.49493 0.1229 0.0
N1570 N 0.41609 0.485 0.04838 0.0
N1571 N 0.42781 0.5024 0.10425 0.0
H1572 H 0.82416 0.24547 0.32321 0.0
H1573 H 0.77222 0.14273 0.26023 0.0
H1574 H 0.81736 0.18234 0.35409 0.0
H1575 H 0.79064 0.20347 0.2291 0.0
H1576 H 0.78677 0.15659 0.29496 0.0
H1577 H 0.80862 0.23057 0.28971 0.0
C1578 C 0.81905 0.22844 0.32302 0.0
C1579 C 0.82209 0.21512 0.34152 0.0
C1580 C 0.78779 0.16681 0.28051 0.0
C1581 C 0.80452 0.19768 0.30269 0.0
C1582 C 0.77959 0.15889 0.26058 0.0
C1583 C 0.78021 0.17193 0.24156 0.0
C1584 C 0.79653 0.18806 0.2816 0.0
C1585 C 0.78989 0.19274 0.24318 0.0
C1586 C 0.81032 0.21989 0.30376 0.0
C1587 C 0.81511 0.19322 0.3403 0.0
N1588 N 0.79749 0.20017 0.26282 0.0
N1589 N 0.80677 0.18511 0.32111 0.0
H1590 H 0.06886 0.53757 0.59909 0.0
H1591 H 0.1613 0.54374 0.50714 0.0
H1592 H 0.12543 0.57893 0.60814 0.0
H1593 H 0.09283 0.53335 0.4928 0.0
H1594 H 0.15163 0.55215 0.54533 0.0
H1595 H 0.08147 0.5289 0.56204 0.0
C1596 C 0.08455 0.54398 0.59363 0.0
C1597 C 0.09645 0.55848 0.607 0.0
C1598 C 0.13871 0.54838 0.53374 0.0
C1599 C 0.1105 0.54944 0.56407 0.0
C1600 C 0.14416 0.54381 0.51191 0.0
C1601 C 0.12779 0.53824 0.49664 0.0
C1602 C 0.11679 0.54665 0.54059 0.0
C1603 C 0.10592 0.53804 0.50385 0.0
C1604 C 0.09144 0.53946 0.57228 0.0
C1605 C 0.11616 0.5671 0.59868 0.0
N1606 N 0.1011 0.54183 0.52535 0.0
N1607 N 0.12255 0.56253 0.5777 0.0
H1608 H 0.75373 0.22634 0.69822 0.0
H1609 H 0.75632 0.13643 0.79299 0.0
H1610 H 0.71602 0.16688 0.69303 0.0
H1611 H 0.76763 0.20517 0.80449 0.0
H1612 H 0.74527 0.14484 0.75525 0.0
H1613 H 0.76509 0.21565 0.73514 0.0
C1614 C 0.74874 0.21047 0.70446 0.0
C1615 C 0.73452 0.19711 0.69219 0.0
C1616 C 0.74978 0.15812 0.76613 0.0
C1617 C 0.74655 0.18526 0.73504 0.0
C1618 C 0.75581 0.15338 0.78775 0.0
C1619 C 0.7624 0.17019 0.80211 0.0
C1620 C 0.75101 0.17978 0.7585 0.0
C1621 C 0.76209 0.19179 0.79423 0.0
C1622 C 0.75477 0.20464 0.72577 0.0
C1623 C 0.72763 0.17726 0.70158 0.0
N1624 N 0.75683 0.19592 0.7729 0.0
N1625 N 0.73365 0.17194 0.72246 0.0
H1626 H 0.06141 0.50516 0.9349 0.0
H1627 H 0.15669 0.49966 0.02365 0.0
H1628 H 0.11942 0.46684 0.92237 0.0
H1629 H 0.08825 0.50633 0.04029 0.0
H1630 H 0.14632 0.49223 0.98546 0.0
H1631 H 0.07478 0.51291 0.97184 0.0
C1632 C 0.0775 0.49922 0.93962 0.0
C1633 C 0.0896 0.48581 0.92533 0.0
C1634 C 0.13359 0.49497 0.99754 0.0
C1635 C 0.10458 0.4938 0.96806 0.0
C1636 C 0.13944 0.499 1.01936 0.0
C1637 C 0.12327 0.50329 0.03527 0.0
C1638 C 0.11143 0.49594 0.99141 0.0
C1639 C 0.10122 0.50268 0.02871 0.0
C1640 C 0.08487 0.50322 0.96088 0.0
C1641 C 0.10993 0.4778 0.93261 0.0
N1642 N 0.09597 0.49945 1.00725 0.0
N1643 N 0.11677 0.48183 0.95356 0.0
H1644 H 0.78636 0.90608 0.27745 0.0
H1645 H 0.78266 0.81253 0.18688 0.0
H1646 H 0.78174 0.8374 0.29305 0.0
H1647 H 0.82194 0.8702 0.1761 0.0
H1648 H 0.77446 0.82536 0.22396 0.0
H1649 H 0.79427 0.89645 0.23911 0.0
C1650 C 0.78761 0.88895 0.27291 0.0
C1651 C 0.78382 0.87249 0.28859 0.0
C1652 C 0.78441 0.83552 0.21332 0.0
C1653 C 0.79158 0.86145 0.24452 0.0
C1654 C 0.78864 0.82849 0.19195 0.0
C1655 C 0.80246 0.84063 0.17809 0.0
C1656 C 0.79396 0.85498 0.22104 0.0
C1657 C 0.81061 0.86071 0.18594 0.0
C1658 C 0.79188 0.88351 0.25101 0.0
C1659 C 0.78506 0.85059 0.28167 0.0
N1660 N 0.80631 0.86725 0.20694 0.0
N1661 N 0.78847 0.84572 0.26012 0.0
H1662 H 0.45448 0.53823 0.55754 0.0
H1663 H 0.42376 0.57205 0.43457 0.0
H1664 H 0.38712 0.5434 0.53658 0.0
H1665 H 0.48521 0.54268 0.45326 0.0
H1666 H 0.40949 0.5647 0.47172 0.0
H1667 H 0.46632 0.54534 0.5198 0.0
C1668 C 0.4422 0.54155 0.54516 0.0
C1669 C 0.41978 0.54039 0.55031 0.0
C1670 C 0.42594 0.55945 0.46749 0.0
C1671 C 0.43317 0.54797 0.50686 0.0
C1672 C 0.43389 0.56325 0.44617 0.0
C1673 C 0.45551 0.5575 0.44069 0.0
C1674 C 0.43992 0.55033 0.48345 0.0
C1675 C 0.4683 0.54702 0.4567 0.0
C1676 C 0.44893 0.54521 0.52351 0.0
C1677 C 0.40458 0.54426 0.53337 0.0
N1678 N 0.46046 0.54404 0.47732 0.0
N1679 N 0.41152 0.54783 0.51244 0.0
H1680 H 0.74702 0.76365 0.83803 0.0
H1681 H 0.86243 0.71431 0.87451 0.0
H1682 H 0.7599 0.74869 0.90575 0.0
H1683 H 0.85457 0.75713 0.81912 0.0
H1684 H 0.82483 0.72343 0.8863 0.0
H1685 H 0.78559 0.75559 0.82943 0.0
C1686 C 0.75775 0.75787 0.85094 0.0
C1687 C 0.75013 0.75648 0.87257 0.0
C1688 C 0.83159 0.73131 0.87191 0.0
C1689 C 0.79448 0.74787 0.86301 0.0
C1690 C 0.85324 0.72652 0.8655 0.0
C1691 C 0.86193 0.73557 0.84622 0.0
C1692 C 0.81838 0.74468 0.85855 0.0
C1693 C 0.84875 0.75033 0.83445 0.0
C1694 C 0.77988 0.75373 0.84613 0.0
C1695 C 0.76504 0.74968 0.8888 0.0
N1696 N 0.82759 0.7541 0.84054 0.0
N1697 N 0.78645 0.74561 0.88371 0.0
H1698 H 0.53979 0.4758 0.09111 0.0
H1699 H 0.5632 0.60381 0.11283 0.0
H1700 H 0.52481 0.50702 0.15278 0.0
H1701 H 0.56509 0.57265 0.04947 0.0
H1702 H 0.54964 0.56905 0.1287 0.0
H1703 H 0.55152 0.5113 0.07664 0.0
C1704 C 0.53927 0.49002 0.10173 0.0
C1705 C 0.53129 0.48831 0.12321 0.0
C1706 C 0.55278 0.56999 0.11127 0.0
C1707 C 0.5444 0.5293 0.10662 0.0
C1708 C 0.56022 0.58989 0.10222 0.0
C1709 C 0.56522 0.5911 0.07983 0.0
C1710 C 0.55053 0.5513 0.09779 0.0
C1711 C 0.56151 0.57241 0.06685 0.0
C1712 C 0.54576 0.5104 0.0934 0.0
C1713 C 0.53082 0.5075 0.1361 0.0
N1714 N 0.55462 0.55336 0.076 0.0
N1715 N 0.53722 0.52715 0.12763 0.0
H1716 H 0.74272 0.34701 0.2896 0.0
H1717 H 0.81656 0.30145 0.38788 0.0
H1718 H 0.71737 0.32115 0.3503 0.0
H1719 H 0.8405 0.30234 0.32141 0.0
H1720 H 0.78226 0.3178 0.37558 0.0
H1721 H 0.78019 0.33833 0.302 0.0
C1722 C 0.74502 0.33963 0.30556 0.0
C1723 C 0.72683 0.33468 0.31888 0.0
C1724 C 0.7951 0.31476 0.36368 0.0
C1725 C 0.76959 0.32514 0.33325 0.0
C1726 C 0.81481 0.30561 0.37072 0.0
C1727 C 0.83143 0.30038 0.35564 0.0
C1728 C 0.79177 0.31878 0.34132 0.0
C1729 C 0.82819 0.3062 0.33361 0.0
C1730 C 0.76639 0.33468 0.31258 0.0
C1731 C 0.73081 0.3251 0.33938 0.0
N1732 N 0.80859 0.31485 0.32703 0.0
N1733 N 0.75168 0.32074 0.34592 0.0
H1734 H 1.01384 0.54723 0.58839 0.0
H1735 H 0.96811 0.43261 0.6266 0.0
H1736 H 1.00887 0.53478 0.65768 0.0
H1737 H 1.01388 0.43913 0.57326 0.0
H1738 H 0.9775 0.47013 0.63854 0.0
H1739 H 1.00612 0.50834 0.58134 0.0
C1740 C 1.01042 0.53648 0.60208 0.0
C1741 C 1.01174 0.54433 0.62364 0.0
C1742 C 0.98595 0.46304 0.62463 0.0
C1743 C 1.00324 0.49974 0.61571 0.0
C1744 C 0.98097 0.44147 0.61812 0.0
C1745 C 0.99076 0.43247 0.59932 0.0
C1746 C 1.00016 0.47583 0.61173 0.0
C1747 C 1.00643 0.4452 0.5882 0.0
C1748 C 1.00641 0.51423 0.59808 0.0
C1749 C 1.00779 0.52943 0.6408 0.0
N1750 N 1.01027 0.46632 0.59424 0.0
N1751 N 1.00362 0.50787 0.6365 0.0
H1752 H 0.851 0.32113 0.66814 0.0
H1753 H 0.73568 0.27742 0.71415 0.0
H1754 H 0.84315 0.28983 0.73079 0.0
H1755 H 0.74698 0.2871 0.64518 0.0
H1756 H 0.77424 0.28687 0.72121 0.0
H1757 H 0.81279 0.31132 0.6591 0.0
C1758 C 0.84158 0.31131 0.67954 0.0
C1759 C 0.85049 0.30563 0.69994 0.0
C1760 C 0.76819 0.28727 0.70454 0.0
C1761 C 0.80638 0.29575 0.69045 0.0
C1762 C 0.74604 0.28232 0.70058 0.0
C1763 C 0.73798 0.28179 0.67908 0.0
C1764 C 0.78238 0.29192 0.6869 0.0
C1765 C 0.75245 0.28755 0.66204 0.0
C1766 C 0.81962 0.30613 0.67461 0.0
C1767 C 0.83711 0.29395 0.71463 0.0
N1768 N 0.77389 0.29233 0.66628 0.0
N1769 N 0.81575 0.28965 0.70974 0.0
H1770 H 0.96403 0.61233 0.90963 0.0
H1771 H 1.00549 0.49453 0.94389 0.0
H1772 H 1.00657 0.60153 0.96483 0.0
H1773 H 1.00316 0.51064 0.87524 0.0
H1774 H 0.99795 0.53307 0.95271 0.0
H1775 H 0.97276 0.57509 0.8963 0.0
C1776 C 0.97605 0.60258 0.91832 0.0
C1777 C 0.98512 0.61029 0.93802 0.0
C1778 C 0.99876 0.52807 0.9357 0.0
C1779 C 0.99372 0.56727 0.9239 0.0
C1780 C 1.00266 0.506 0.93067 0.0
C1781 C 1.0047 0.49928 0.9088 0.0
C1782 C 0.99645 0.54352 0.91876 0.0
C1783 C 1.00152 0.51511 0.89232 0.0
C1784 C 0.98064 0.58118 0.91098 0.0
C1785 C 0.99969 0.59645 0.94927 0.0
N1786 N 0.99748 0.53647 0.89761 0.0
N1787 N 1.00316 0.57555 0.94233 0.0
H1788 H 0.68888 0.75079 0.2216 0.0
H1789 H 0.7823 0.75079 0.1305 0.0
H1790 H 0.68222 0.70976 0.16459 0.0
H1791 H 0.79556 0.75845 0.19938 0.0
H1792 H 0.74413 0.74088 0.1393 0.0
H1793 H 0.72574 0.76123 0.2095 0.0
C1794 C 0.6948 0.7448 0.20595 0.0
C1795 C 0.68218 0.72989 0.19376 0.0
C1796 C 0.7555 0.74442 0.15247 0.0
C1797 C 0.72488 0.74102 0.18026 0.0
C1798 C 0.77731 0.74988 0.14751 0.0
C1799 C 0.79229 0.75507 0.16427 0.0
C1800 C 0.74836 0.7449 0.17432 0.0
C1801 C 0.78478 0.7541 0.18598 0.0
C1802 C 0.71605 0.75036 0.19933 0.0
C1803 C 0.69109 0.72186 0.17409 0.0
N1804 N 0.7633 0.74947 0.19034 0.0
N1805 N 0.71195 0.72747 0.16795 0.0
H1806 H 0.5387 0.52853 0.39165 0.0
H1807 H 0.53597 0.44813 0.49392 0.0
H1808 H 0.53936 0.55079 0.45864 0.0
H1809 H 0.5675 0.42774 0.43414 0.0
H1810 H 0.53023 0.4845 0.47832 0.0
H1811 H 0.54496 0.49084 0.40441 0.0
C1812 C 0.54076 0.52558 0.40901 0.0
C1813 C 0.53883 0.54296 0.42409 0.0
C1814 C 0.53804 0.47201 0.4684 0.0
C1815 C 0.54487 0.49968 0.4388 0.0
C1816 C 0.54092 0.45109 0.47713 0.0
C1817 C 0.55181 0.4347 0.46515 0.0
C1818 C 0.54605 0.4768 0.44741 0.0
C1819 C 0.5585 0.43969 0.4437 0.0
C1820 C 0.54412 0.50403 0.41626 0.0
C1821 C 0.54117 0.53806 0.44641 0.0
N1822 N 0.55559 0.46036 0.4355 0.0
N1823 N 0.54369 0.51689 0.45308 0.0
H1824 H 0.8227 0.85385 0.76358 0.0
H1825 H 0.90872 0.75604 0.75481 0.0
H1826 H 0.87652 0.85783 0.71803 0.0
H1827 H 0.83991 0.74612 0.76784 0.0
H1828 H 0.90121 0.7948 0.74663 0.0
H1829 H 0.83388 0.8165 0.77301 0.0
C1830 C 0.83763 0.84729 0.75646 0.0
C1831 C 0.84911 0.85928 0.74051 0.0
C1832 C 0.88774 0.78405 0.75096 0.0
C1833 C 0.86142 0.81603 0.75046 0.0
C1834 C 0.89195 0.7619 0.7554 0.0
C1835 C 0.87483 0.74769 0.76154 0.0
C1836 C 0.86637 0.79226 0.75346 0.0
C1837 C 0.8535 0.75631 0.76263 0.0
C1838 C 0.84365 0.82575 0.76142 0.0
C1839 C 0.86767 0.84948 0.73096 0.0
N1840 N 0.84993 0.77807 0.75896 0.0
N1841 N 0.87322 0.82838 0.73599 0.0
H1842 H 0.36209 0.6939 0.30675 0.0
H1843 H 0.34832 0.82473 0.29325 0.0
H1844 H 0.31012 0.73202 0.33607 0.0
H1845 H 0.40398 0.78882 0.26816 0.0
H1846 H 0.33396 0.79053 0.30872 0.0
H1847 H 0.3772 0.72799 0.29096 0.0
C1848 C 0.35376 0.70931 0.30968 0.0
C1849 C 0.33492 0.71006 0.32291 0.0
C1850 C 0.3494 0.79016 0.29993 0.0
C1851 C 0.35209 0.74905 0.30514 0.0
C1852 C 0.35768 0.80977 0.29124 0.0
C1853 C 0.37742 0.8098 0.27939 0.0
C1854 C 0.36086 0.77033 0.2967 0.0
C1855 C 0.38868 0.78972 0.27715 0.0
C1856 C 0.36245 0.72879 0.30083 0.0
C1857 C 0.32486 0.73058 0.32624 0.0
N1858 N 0.38022 0.77087 0.28558 0.0
N1859 N 0.33354 0.74911 0.31751 0.0
H1860 H 0.49615 0.08179 0.52956 0.0
H1861 H 0.61046 0.12005 0.58068 0.0
H1862 H 0.50865 0.1499 0.54354 0.0
H1863 H 0.60345 0.06315 0.53953 0.0
H1864 H 0.57299 0.13138 0.57054 0.0
H1865 H 0.53448 0.07343 0.53884 0.0
C1866 C 0.50672 0.09485 0.53537 0.0
C1867 C 0.49908 0.11651 0.53613 0.0
C1868 C 0.57991 0.11674 0.56326 0.0
C1869 C 0.54317 0.10722 0.54614 0.0
C1870 C 0.60148 0.11057 0.56865 0.0
C1871 C 0.61037 0.09103 0.56035 0.0
C1872 C 0.56698 0.10288 0.55005 0.0
C1873 C 0.59747 0.07868 0.54577 0.0
C1874 C 0.52873 0.09017 0.54021 0.0
C1875 C 0.51381 0.13293 0.54301 0.0
N1876 N 0.57639 0.08458 0.54139 0.0
N1877 N 0.5351 0.12798 0.54776 0.0
H1878 H 0.17165 0.34963 0.84143 0.0
H1879 H 0.14753 0.27793 0.73479 0.0
H1880 H 0.19439 0.37011 0.77788 0.0
H1881 H 0.16101 0.25027 0.79834 0.0
H1882 H 0.15399 0.3147 0.74982 0.0
H1883 H 0.15551 0.31686 0.8249 0.0
C1884 C 0.17235 0.34771 0.82379 0.0
C1885 C 0.18419 0.36272 0.81097 0.0
C1886 C 0.15528 0.30058 0.76048 0.0
C1887 C 0.16628 0.32487 0.79203 0.0
C1888 C 0.15153 0.27958 0.75199 0.0
C1889 C 0.15376 0.26092 0.76534 0.0
C1890 C 0.16077 0.30304 0.78262 0.0
C1891 C 0.15918 0.26413 0.78744 0.0
C1892 C 0.16346 0.32882 0.81445 0.0
C1893 C 0.18504 0.35917 0.78827 0.0
N1894 N 0.1624 0.28476 0.7954 0.0
N1895 N 0.17644 0.34042 0.77951 0.0
H1896 H 0.43529 0.48096 0.53926 0.0
H1897 H 0.5241 0.3867 0.55528 0.0
H1898 H 0.42198 0.42669 0.58224 0.0
H1899 H 0.54099 0.45424 0.54353 0.0
H1900 H 0.48555 0.39754 0.56046 0.0
H1901 H 0.47239 0.4668 0.53322 0.0
C1902 C 0.4398 0.46537 0.54648 0.0
C1903 C 0.42526 0.45462 0.56074 0.0
C1904 C 0.49777 0.41001 0.55713 0.0
C1905 C 0.46818 0.43888 0.5548 0.0
C1906 C 0.51978 0.4039 0.55447 0.0
C1907 C 0.53587 0.41967 0.54949 0.0
C1908 C 0.49165 0.43195 0.55402 0.0
C1909 C 0.52927 0.44164 0.54794 0.0
C1910 C 0.46118 0.45763 0.5435 0.0
C1911 C 0.43239 0.43506 0.57054 0.0
N1912 N 0.50764 0.44708 0.54984 0.0
N1913 N 0.4534 0.42785 0.56751 0.0
H1914 H 0.66789 0.29232 0.25021 0.0
H1915 H 0.69077 0.16499 0.26426 0.0
H1916 H 0.64933 0.25798 0.30912 0.0
H1917 H 0.68572 0.19693 0.20157 0.0
H1918 H 0.67472 0.19787 0.2816 0.0
H1919 H 0.67473 0.25701 0.23241 0.0
C1920 C 0.66509 0.27737 0.25935 0.0
C1921 C 0.65803 0.27818 0.28119 0.0
C1922 C 0.67669 0.19743 0.26398 0.0
C1923 C 0.66613 0.23757 0.26101 0.0
C1924 C 0.6856 0.17857 0.2541 0.0
C1925 C 0.68961 0.1783 0.23149 0.0
C1926 C 0.67208 0.21604 0.2511 0.0
C1927 C 0.68303 0.19654 0.2191 0.0
C1928 C 0.66893 0.25717 0.24918 0.0
C1929 C 0.65469 0.25818 0.29222 0.0
N1930 N 0.67495 0.21471 0.22905 0.0
N1931 N 0.65902 0.23873 0.28213 0.0
H1932 H 0.51049 0.96592 1.01507 0.0
H1933 H 0.62281 0.92103 0.9673 0.0
H1934 H 0.51793 0.897 1.0014 0.0
H1935 H 0.61948 0.97507 1.01254 0.0
H1936 H 0.58449 0.91175 0.97627 0.0
H1937 H 0.54996 0.97096 1.00856 0.0
C1938 C 0.52028 0.95198 1.01003 0.0
C1939 C 0.51084 0.93107 1.00849 0.0
C1940 C 0.5924 0.92521 0.98474 0.0
C1941 C 0.55612 0.9366 1.0015 0.0
C1942 C 0.61442 0.93017 0.98002 0.0
C1943 C 0.62459 0.94841 0.98974 0.0
C1944 C 0.58032 0.93905 0.99871 0.0
C1945 C 0.61248 0.96049 1.00519 0.0
C1946 C 0.54288 0.95477 1.00673 0.0
C1947 C 0.52452 0.91344 1.00255 0.0
N1948 N 0.59092 0.95591 1.00884 0.0
N1949 N 0.54643 0.91659 0.99918 0.0
H1950 H 0.04477 0.09166 0.49658 0.0
H1951 H 0.92496 0.12538 0.4579 0.0
H1952 H 0.02667 0.15992 0.49422 0.0
H1953 H 0.9388 0.06659 0.49427 0.0
H1954 H 0.9621 0.13899 0.46677 0.0
H1955 H 1.00652 0.08177 0.48881 0.0
C1956 C 0.03291 0.10457 0.49372 0.0
C1957 C 0.03898 0.12664 0.49586 0.0
C1958 C 0.95672 0.12338 0.47328 0.0
C1959 C 0.99505 0.11546 0.48744 0.0
C1960 C 0.93539 0.11585 0.46863 0.0
C1961 C 0.9286 0.09509 0.47587 0.0
C1962 C 0.97142 0.10971 0.48465 0.0
C1963 C 0.94322 0.0829 0.4888 0.0
C1964 C 1.011 0.09893 0.4897 0.0
C1965 C 1.0227 0.14269 0.49257 0.0
N1966 N 0.96399 0.09017 0.49243 0.0
N1967 N 1.00149 0.13681 0.48851 0.0
H1968 H 0.16931 0.4653 0.37984 0.0
H1969 H 0.17126 0.35917 0.34087 0.0
H1970 H 0.10566 0.45049 0.40665 0.0
H1971 H 0.13777 0.3484 0.40203 0.0
H1972 H 0.15928 0.39764 0.34162 0.0
H1973 H 0.17075 0.42851 0.3638 0.0
C1974 C 0.15516 0.45463 0.38142 0.0
C1975 C 0.13711 0.46113 0.39415 0.0
C1976 C 0.15401 0.38669 0.35455 0.0
C1977 C 0.13905 0.41852 0.37677 0.0
C1978 C 0.16047 0.36463 0.35389 0.0
C1979 C 0.15522 0.35051 0.37127 0.0
C1980 C 0.14213 0.39462 0.37267 0.0
C1981 C 0.14189 0.35868 0.38818 0.0
C1982 C 0.15602 0.43354 0.37237 0.0
C1983 C 0.11963 0.44629 0.39653 0.0
N1984 N 0.13594 0.3802 0.38854 0.0
N1985 N 0.12131 0.42548 0.38849 0.0
H1986 H 0.95808 0.88367 0.65016 0.0
H1987 H 0.85253 0.84444 0.66243 0.0
H1988 H 0.93357 0.92226 0.59661 0.0
H1989 H 0.83671 0.90762 0.63544 0.0
H1990 H 0.88945 0.84723 0.64637 0.0
H1991 H 0.922 0.86626 0.65366 0.0
C1992 C 0.94539 0.88758 0.63838 0.0
C1993 C 0.94896 0.90394 0.62267 0.0
C1994 C 0.87775 0.86026 0.64352 0.0
C1995 C 0.90723 0.88483 0.62709 0.0
C1996 C 0.85651 0.85843 0.65227 0.0
C1997 C 0.84148 0.87571 0.65001 0.0
C1998 C 0.88394 0.87956 0.6325 0.0
C1999 C 0.84773 0.89382 0.63731 0.0
C2000 C 0.92468 0.87774 0.64044 0.0
C2001 C 0.93163 0.90926 0.60852 0.0
N2002 N 0.86849 0.89536 0.62921 0.0
N2003 N 0.91142 0.90014 0.61138 0.0
H2004 H 0.33322 0.69809 0.93855 0.0
H2005 H 0.41394 0.59984 0.91908 0.0
H2006 H 0.37555 0.70252 0.88196 0.0
H2007 H 0.34713 0.5933 0.94151 0.0
H2008 H 0.40551 0.63769 0.907 0.0
H2009 H 0.34496 0.66065 0.94406 0.0
C2010 C 0.34515 0.69123 0.92729 0.0
C2011 C 0.35312 0.70342 0.90952 0.0
C2012 C 0.39266 0.62766 0.91408 0.0
C2013 C 0.3666 0.66007 0.91578 0.0
C2014 C 0.39738 0.6061 0.92078 0.0
C2015 C 0.3812 0.59361 0.93146 0.0
C2016 C 0.37179 0.63649 0.91842 0.0
C2017 C 0.36012 0.60248 0.93359 0.0
C2018 C 0.35175 0.66974 0.9304 0.0
C2019 C 0.36893 0.69363 0.89581 0.0
N2020 N 0.35614 0.62341 0.92747 0.0
N2021 N 0.37514 0.67234 0.89914 0.0
H2022 H 0.69126 0.19752 0.15878 0.0
H2023 H 0.59407 0.14062 0.09175 0.0
H2024 H 0.69685 0.13339 0.12977 0.0
H2025 H 0.58465 0.16904 0.15559 0.0
H2026 H 0.63284 0.15185 0.09292 0.0
H2027 H 0.65348 0.2001 0.14475 0.0
C2028 C 0.68491 0.18446 0.14854 0.0
C2029 C 0.69724 0.16531 0.14518 0.0
C2030 C 0.62199 0.15646 0.10621 0.0
C2031 C 0.65425 0.16823 0.12907 0.0
C2032 C 0.59982 0.1503 0.10546 0.0
C2033 C 0.58617 0.1538 0.12366 0.0
C2034 C 0.63027 0.16687 0.12499 0.0
C2035 C 0.59458 0.16618 0.14115 0.0
C2036 C 0.66333 0.18587 0.14075 0.0
C2037 C 0.68797 0.14853 0.13246 0.0
N2038 N 0.61616 0.17203 0.14153 0.0
N2039 N 0.66699 0.15033 0.12493 0.0
H2040 H 0.20942 0.66383 0.15811 0.0
H2041 H 0.10704 0.5928 0.12846 0.0
H2042 H 0.14517 0.6934 0.15721 0.0
H2043 H 0.16681 0.56592 0.15454 0.0
H2044 H 0.11778 0.62908 0.14224 0.0
H2045 H 0.19255 0.62775 0.15877 0.0
C2046 C 0.19166 0.66271 0.15804 0.0
C2047 C 0.1787 0.68168 0.1573 0.0
C2048 C 0.12812 0.61509 0.14578 0.0
C2049 C 0.15905 0.64002 0.15793 0.0
C2050 C 0.12178 0.59427 0.13827 0.0
C2051 C 0.13595 0.57625 0.1406 0.0
C2052 C 0.14892 0.61786 0.15534 0.0
C2053 C 0.15527 0.57928 0.15268 0.0
C2054 C 0.182 0.64203 0.15864 0.0
C2055 C 0.15575 0.67916 0.15765 0.0
N2056 N 0.16142 0.59972 0.15912 0.0
N2057 N 0.14662 0.65866 0.15751 0.0
H2058 H 0.71514 0.90823 0.41009 0.0
H2059 H 0.59389 0.87788 0.38923 0.0
H2060 H 0.69804 0.84713 0.37926 0.0
H2061 H 0.61205 0.9191 0.44351 0.0
H2062 H 0.6315 0.86349 0.38806 0.0
H2063 H 0.67825 0.91008 0.42604 0.0
C2064 C 0.70396 0.89463 0.40762 0.0
C2065 C 0.70982 0.87725 0.39375 0.0
C2066 C 0.62712 0.87509 0.40076 0.0
C2067 C 0.66702 0.87994 0.41068 0.0
C2068 C 0.60557 0.88312 0.40155 0.0
C2069 C 0.59975 0.89926 0.41685 0.0
C2070 C 0.64317 0.88392 0.41482 0.0
C2071 C 0.61576 0.90623 0.43184 0.0
C2072 C 0.68276 0.89582 0.41647 0.0
C2073 C 0.69434 0.86054 0.39028 0.0
N2074 N 0.63683 0.89891 0.43016 0.0
N2075 N 0.67349 0.86257 0.39818 0.0
H2076 H 0.37344 0.46323 0.66084 0.0
H2077 H 0.42488 0.34227 0.66185 0.0
H2078 H 0.43895 0.45 0.6379 0.0
H2079 H 0.35741 0.3587 0.67525 0.0
H2080 H 0.43363 0.3819 0.66035 0.0
H2081 H 0.37102 0.42584 0.67477 0.0
C2082 C 0.38766 0.45265 0.65953 0.0
C2083 C 0.40653 0.45984 0.64854 0.0
C2084 C 0.41701 0.37675 0.66399 0.0
C2085 C 0.40351 0.41635 0.66333 0.0
C2086 C 0.41207 0.35419 0.66494 0.0
C2087 C 0.39038 0.34727 0.66855 0.0
C2088 C 0.40015 0.39232 0.66695 0.0
C2089 C 0.37432 0.36334 0.67224 0.0
C2090 C 0.3862 0.43114 0.66718 0.0
C2091 C 0.42428 0.44522 0.64672 0.0
N2092 N 0.37949 0.38495 0.67127 0.0
N2093 N 0.42221 0.42402 0.65364 0.0
H2094 H 0.96668 0.1585 0.89117 0.0
H2095 H 0.84276 0.13885 0.91712 0.0
H2096 H 0.94633 0.12369 0.94897 0.0
H2097 H 0.86431 0.1922 0.8764 0.0
H2098 H 0.88004 0.13584 0.9321 0.0
H2099 H 0.92981 0.17426 0.88818 0.0
C2100 C 0.95469 0.15497 0.9038 0.0
C2101 C 0.95972 0.14023 0.92066 0.0
C2102 C 0.8765 0.14873 0.92046 0.0
C2103 C 0.91698 0.1571 0.91663 0.0
C2104 C 0.85513 0.15059 0.91211 0.0
C2105 C 0.85033 0.16618 0.89595 0.0
C2106 C 0.89337 0.16206 0.91201 0.0
C2107 C 0.86721 0.18035 0.88927 0.0
C2108 C 0.93353 0.16377 0.90197 0.0
C2109 C 0.94328 0.13548 0.93608 0.0
N2110 N 0.88803 0.1777 0.89699 0.0
N2111 N 0.92254 0.14348 0.93344 0.0
H2112 H 0.38496 0.15559 0.45812 0.0
H2113 H 0.40793 0.13299 0.33473 0.0
H2114 H 0.42046 0.09827 0.43729 0.0
H2115 H 0.35233 0.17131 0.35534 0.0
H2116 H 0.41034 0.1173 0.37161 0.0
H2117 H 0.36995 0.15934 0.42105 0.0
C2118 C 0.38881 0.14324 0.44594 0.0
C2119 C 0.4035 0.12627 0.4509 0.0
C2120 C 0.39712 0.12856 0.36793 0.0
C2121 C 0.38747 0.13116 0.40805 0.0
C2122 C 0.39561 0.13733 0.34679 0.0
C2123 C 0.37955 0.15301 0.34184 0.0
C2124 C 0.38297 0.13618 0.38451 0.0
C2125 C 0.36457 0.1588 0.35834 0.0
C2126 C 0.38043 0.14549 0.4247 0.0
C2127 C 0.40871 0.11123 0.43427 0.0
N2128 N 0.36692 0.15076 0.37903 0.0
N2129 N 0.40109 0.11427 0.4135 0.0
H2130 H 0.15806 0.16077 0.56609 0.0
H2131 H 0.14693 0.13427 0.69407 0.0
H2132 H 0.12249 0.10468 0.58992 0.0
H2133 H 0.16134 0.19729 0.66567 0.0
H2134 H 0.14797 0.11794 0.65694 0.0
H2135 H 0.17124 0.16788 0.60321 0.0
C2136 C 0.15401 0.14924 0.57897 0.0
C2137 C 0.13947 0.13192 0.57487 0.0
C2138 C 0.15124 0.13527 0.65898 0.0
C2139 C 0.15335 0.14069 0.61774 0.0
C2140 C 0.15066 0.14454 0.6801 0.0
C2141 C 0.15373 0.16719 0.68281 0.0
C2142 C 0.15546 0.14872 0.64071 0.0
C2143 C 0.15853 0.17981 0.66424 0.0
C2144 C 0.16116 0.15354 0.60028 0.0
C2145 C 0.13407 0.11794 0.59235 0.0
N2146 N 0.1592 0.17046 0.64408 0.0
N2147 N 0.1406 0.12289 0.61315 0.0
H2148 H 0.12239 0.95187 0.95848 0.0
H2149 H 0.11435 0.91849 0.85111 0.0
H2150 H 0.15737 0.89073 0.96278 0.0
H2151 H 0.18021 0.89375 0.85742 0.0
H2152 H 0.11596 0.93161 0.88903 0.0
H2153 H 0.1308 0.95337 0.91918 0.0
C2154 C 0.13287 0.93938 0.95141 0.0
C2155 C 0.13944 0.92128 0.96397 0.0
C2156 C 0.1304 0.92408 0.88191 0.0
C2157 C 0.14845 0.92247 0.91892 0.0
C2158 C 0.12947 0.91662 0.86025 0.0
C2159 C 0.14734 0.90547 0.85099 0.0
C2160 C 0.14907 0.91965 0.8947 0.0
C2161 C 0.16629 0.90276 0.8638 0.0
C2162 C 0.13725 0.94 0.92888 0.0
C2163 C 0.15226 0.9051 0.95373 0.0
N2164 N 0.16645 0.90925 0.88519 0.0
N2165 N 0.15618 0.90596 0.93178 0.0
H2166 H 0.42662 0.96125 0.09523 0.0
H2167 H 0.42541 0.91928 0.19972 0.0
H2168 H 0.39076 0.90173 0.08265 0.0
H2169 H 0.36105 0.89395 0.18532 0.0
H2170 H 0.42667 0.93602 0.16328 0.0
H2171 H 0.41522 0.95948 0.13378 0.0
C2172 C 0.4154 0.94845 0.10033 0.0
C2173 C 0.40939 0.93175 0.08567 0.0
C2174 C 0.41187 0.92759 0.16834 0.0
C2175 C 0.39704 0.92909 0.12987 0.0
C2176 C 0.41116 0.91807 0.18918 0.0
C2177 C 0.39288 0.90572 0.1957 0.0
C2178 C 0.39447 0.92406 0.1536 0.0
C2179 C 0.37518 0.90386 0.1811 0.0
C2180 C 0.4093 0.94717 0.12244 0.0
C2181 C 0.3955 0.91507 0.09337 0.0
N2182 N 0.37665 0.91243 0.16053 0.0
N2183 N 0.38996 0.91404 0.11496 0.0
H2184 H 0.44777 0.39779 0.10462 0.0
H2185 H 0.35142 0.34024 0.17264 0.0
H2186 H 0.454 0.37657 0.17156 0.0
H2187 H 0.3404 0.39354 0.12787 0.0
H2188 H 0.3904 0.34022 0.16243 0.0
H2189 H 0.41014 0.38312 0.10393 0.0
C2190 C 0.4416 0.3891 0.11881 0.0
C2191 C 0.45407 0.38817 0.13812 0.0
C2192 C 0.37926 0.35128 0.15415 0.0
C2193 C 0.41114 0.37148 0.13745 0.0
C2194 C 0.35693 0.35104 0.15966 0.0
C2195 C 0.34257 0.36664 0.15075 0.0
C2196 C 0.3872 0.36704 0.13939 0.0
C2197 C 0.35084 0.38096 0.13477 0.0
C2198 C 0.42006 0.38099 0.11848 0.0
C2199 C 0.445 0.3774 0.1563 0.0
N2200 N 0.37265 0.38098 0.12974 0.0
N2201 N 0.42406 0.36958 0.15557 0.0
H2202 H 0.94042 0.93834 0.12732 0.0
H2203 H 0.87195 0.84694 0.19214 0.0
H2204 H 0.87826 0.9504 0.15869 0.0
H2205 H 0.91084 0.83317 0.13489 0.0
H2206 H 0.88458 0.88517 0.19106 0.0
H2207 H 0.93961 0.90051 0.14117 0.0
C2208 C 0.92716 0.93335 0.13805 0.0
C2209 C 0.90958 0.94762 0.14225 0.0
C2210 C 0.89102 0.87358 0.17925 0.0
C2211 C 0.90835 0.90434 0.15779 0.0
C2212 C 0.88412 0.85167 0.18008 0.0
C2213 C 0.89076 0.83675 0.16387 0.0
C2214 C 0.90482 0.88056 0.16217 0.0
C2215 C 0.90574 0.84403 0.14797 0.0
C2216 C 0.92655 0.91168 0.14567 0.0
C2217 C 0.89232 0.94003 0.15545 0.0
N2218 N 0.91214 0.86544 0.14741 0.0
N2219 N 0.89207 0.91889 0.16266 0.0
H2220 H 0.18301 0.70868 0.65534 0.0
H2221 H 0.09897 0.62975 0.59229 0.0
H2222 H 0.20276 0.65109 0.61966 0.0
H2223 H 0.08213 0.66761 0.6494 0.0
H2224 H 0.13558 0.64674 0.59225 0.0
H2225 H 0.14503 0.70283 0.64313 0.0
C2226 C 0.17949 0.69539 0.64408 0.0
C2227 C 0.19609 0.68062 0.63807 0.0
C2228 C 0.1236 0.65191 0.60431 0.0
C2229 C 0.15262 0.67345 0.62455 0.0
C2230 C 0.10259 0.64251 0.60412 0.0
C2231 C 0.08734 0.64769 0.62057 0.0
C2232 C 0.12934 0.6667 0.62102 0.0
C2233 C 0.09324 0.66356 0.63615 0.0
C2234 C 0.15779 0.69188 0.63737 0.0
C2235 C 0.19051 0.66312 0.62422 0.0
N2236 N 0.1138 0.67239 0.63608 0.0
N2237 N 0.16923 0.65992 0.61804 0.0
H2238 H 0.66681 0.95733 0.88132 0.0
H2239 H 0.63784 0.83784 0.91206 0.0
H2240 H 0.60993 0.9429 0.9206 0.0
H2241 H 0.67104 0.85216 0.85151 0.0
H2242 H 0.62478 0.87583 0.91357 0.0
H2243 H 0.66645 0.91955 0.86753 0.0
C2244 C 0.6536 0.94648 0.8862 0.0
C2245 C 0.63803 0.95342 0.90166 0.0
C2246 C 0.63429 0.87054 0.89954 0.0
C2247 C 0.63832 0.90971 0.88709 0.0
C2248 C 0.64156 0.84878 0.89859 0.0
C2249 C 0.65507 0.84172 0.88136 0.0
C2250 C 0.64133 0.88563 0.8836 0.0
C2251 C 0.66017 0.85681 0.86476 0.0
C2252 C 0.65353 0.92481 0.87854 0.0
C2253 C 0.62185 0.93838 0.90821 0.0
N2254 N 0.65374 0.87816 0.86654 0.0
N2255 N 0.62271 0.91712 0.90132 0.0
H2256 H 0.9308 0.2042 0.39605 0.0
H2257 H 0.9501 0.09257 0.40068 0.0
H2258 H 0.89238 0.19105 0.33841 0.0
H2259 H 0.88503 0.09111 0.37321 0.0
H2260 H 0.95452 0.13033 0.38737 0.0
H2261 H 0.94038 0.16522 0.39807 0.0
C2262 C 0.92529 0.19324 0.38321 0.0
C2263 C 0.91132 0.2009 0.36668 0.0
C2264 C 0.93949 0.12155 0.38378 0.0
C2265 C 0.92136 0.1561 0.36934 0.0
C2266 C 0.93714 0.09984 0.39097 0.0
C2267 C 0.91724 0.08865 0.38782 0.0
C2268 C 0.92182 0.13202 0.37328 0.0
C2269 C 0.9007 0.09911 0.37576 0.0
C2270 C 0.93066 0.17093 0.38439 0.0
C2271 C 0.90371 0.18585 0.35103 0.0
N2272 N 0.90329 0.12023 0.36907 0.0
N2273 N 0.90838 0.16411 0.35304 0.0
H2274 H 0.65502 0.18605 0.70648 0.0
H2275 H 0.65196 0.07865 0.67075 0.0
H2276 H 0.62957 0.19715 0.6417 0.0
H2277 H 0.59652 0.09712 0.63129 0.0
H2278 H 0.65266 0.11556 0.68653 0.0
H2279 H 0.64174 0.148 0.70466 0.0
C2280 C 0.64577 0.18075 0.69228 0.0
C2281 C 0.64315 0.19481 0.67431 0.0
C2282 C 0.63966 0.11135 0.67521 0.0
C2283 C 0.62873 0.15115 0.67169 0.0
C2284 C 0.63919 0.09016 0.66631 0.0
C2285 C 0.62375 0.08463 0.6502 0.0
C2286 C 0.62502 0.12736 0.66737 0.0
C2287 C 0.60825 0.10054 0.64418 0.0
C2288 C 0.6386 0.1589 0.69105 0.0
C2289 C 0.63169 0.18689 0.656 0.0
N2290 N 0.60963 0.12131 0.65232 0.0
N2291 N 0.62505 0.16559 0.65509 0.0
H2292 H 0.08833 0.41123 0.94283 0.0
H2293 H 0.1974 0.40381 0.91376 0.0
H2294 H 0.08169 0.38175 0.87909 0.0
H2295 H 0.18132 0.34226 0.88321 0.0
H2296 H 0.15934 0.4071 0.92634 0.0
H2297 H 0.1258 0.39645 0.94527 0.0
C2298 C 0.09437 0.40073 0.92983 0.0
C2299 C 0.08182 0.39745 0.91084 0.0
C2300 C 0.16428 0.39239 0.91771 0.0
C2301 C 0.1248 0.38114 0.91317 0.0
C2302 C 0.18606 0.39049 0.91062 0.0
C2303 C 0.19262 0.3725 0.89788 0.0
C2304 C 0.14873 0.37659 0.91128 0.0
C2305 C 0.17704 0.3561 0.89347 0.0
C2306 C 0.11588 0.39266 0.93105 0.0
C2307 C 0.09074 0.38439 0.89411 0.0
N2308 N 0.15567 0.35885 0.89957 0.0
N2309 N 0.11173 0.37685 0.89559 0.0
H2310 H 0.3649 0.70173 0.3857 0.0
H2311 H 0.45349 0.63068 0.45141 0.0
H2312 H 0.34735 0.65056 0.43092 0.0
H2313 H 0.46571 0.66177 0.38935 0.0
H2314 H 0.41678 0.64744 0.45224 0.0
H2315 H 0.40362 0.69679 0.39541 0.0
C2316 C 0.36917 0.69008 0.39839 0.0
C2317 C 0.35292 0.67684 0.40787 0.0
C2318 C 0.42778 0.65119 0.43882 0.0
C2319 C 0.39726 0.67059 0.41858 0.0
C2320 C 0.44885 0.64193 0.43851 0.0
C2321 C 0.46281 0.64527 0.42051 0.0
C2322 C 0.42071 0.66399 0.42105 0.0
C2323 C 0.45562 0.65919 0.40373 0.0
C2324 C 0.39128 0.68708 0.40372 0.0
C2325 C 0.35936 0.66141 0.42362 0.0
N2326 N 0.43506 0.66793 0.40434 0.0
N2327 N 0.38107 0.65857 0.42837 0.0
H2328 H 0.87699 0.65121 0.95493 0.0
H2329 H 0.90545 0.62711 0.83388 0.0
H2330 H 0.91543 0.59488 0.93684 0.0
H2331 H 0.84731 0.66323 0.8512 0.0
H2332 H 0.90636 0.61154 0.87084 0.0
H2333 H 0.86219 0.65266 0.91766 0.0
C2334 C 0.88142 0.63844 0.94339 0.0
C2335 C 0.89704 0.62258 0.94915 0.0
C2336 C 0.89291 0.62224 0.8664 0.0
C2337 C 0.88133 0.62497 0.90596 0.0
C2338 C 0.89227 0.63094 0.84519 0.0
C2339 C 0.87597 0.64605 0.83931 0.0
C2340 C 0.87762 0.62938 0.88216 0.0
C2341 C 0.85981 0.65118 0.8549 0.0
C2342 C 0.87321 0.63943 0.92199 0.0
C2343 C 0.90297 0.60701 0.93325 0.0
N2344 N 0.86132 0.64329 0.87573 0.0
N2345 N 0.89557 0.60892 0.91227 0.0
H2346 H 0.63941 0.58716 0.099 0.0
H2347 H 0.69843 0.66013 0.19085 0.0
H2348 H 0.67022 0.64931 0.086 0.0
H2349 H 0.64096 0.62092 0.20315 0.0
H2350 H 0.69932 0.64628 0.15306 0.0
H2351 H 0.6511 0.58992 0.13746 0.0
C2352 C 0.64954 0.60087 0.10403 0.0
C2353 C 0.65426 0.61783 0.08925 0.0
C2354 C 0.68703 0.64007 0.16428 0.0
C2355 C 0.66733 0.62128 0.13319 0.0
C2356 C 0.68674 0.64766 0.18595 0.0
C2357 C 0.66988 0.64126 0.20028 0.0
C2358 C 0.67046 0.6258 0.15697 0.0
C2359 C 0.6545 0.62587 0.19276 0.0
C2360 C 0.65594 0.60257 0.12601 0.0
C2361 C 0.66665 0.6357 0.0968 0.0
N2362 N 0.65505 0.61877 0.17159 0.0
N2363 N 0.67268 0.63702 0.11825 0.0
H2364 H 0.65563 0.33648 0.38806 0.0
H2365 H 0.62594 0.43797 0.45892 0.0
H2366 H 0.65415 0.40044 0.35816 0.0
H2367 H 0.65555 0.37984 0.48555 0.0
H2368 H 0.6393 0.42757 0.42244 0.0
H2369 H 0.6572 0.35359 0.42398 0.0
C2370 C 0.65561 0.35421 0.38908 0.0
C2371 C 0.65444 0.36705 0.37009 0.0
C2372 C 0.64373 0.41758 0.43639 0.0
C2373 C 0.65618 0.38694 0.41149 0.0
C2374 C 0.63646 0.42374 0.45732 0.0
C2375 C 0.63988 0.40984 0.47531 0.0
C2376 C 0.6541 0.3972 0.43355 0.0
C2377 C 0.65283 0.39114 0.47217 0.0
C2378 C 0.65676 0.36401 0.40964 0.0
C2379 C 0.65489 0.38997 0.37243 0.0
N2380 N 0.65898 0.38508 0.45163 0.0
N2381 N 0.65528 0.39923 0.39282 0.0
H2382 H 0.90174 0.41668 0.70378 0.0
H2383 H 0.88234 0.38954 0.58071 0.0
H2384 H 0.8477 0.37652 0.68252 0.0
H2385 H 0.91897 0.44648 0.60066 0.0
H2386 H 0.86561 0.38787 0.61716 0.0
H2387 H 0.90495 0.43152 0.66658 0.0
C2388 C 0.88988 0.41179 0.69149 0.0
C2389 C 0.87407 0.39579 0.69634 0.0
C2390 C 0.8767 0.40124 0.61342 0.0
C2391 C 0.87842 0.41167 0.65337 0.0
C2392 C 0.88602 0.40234 0.59247 0.0
C2393 C 0.90163 0.4185 0.58748 0.0
C2394 C 0.88367 0.41591 0.62981 0.0
C2395 C 0.90655 0.43412 0.60366 0.0
C2396 C 0.89185 0.42006 0.67016 0.0
C2397 C 0.85973 0.38926 0.67957 0.0
N2398 N 0.89802 0.43215 0.62422 0.0
N2399 N 0.86252 0.39687 0.65877 0.0
loop_
_geom_bond_atom_site_label_1
_geom_bond_atom_site_label_2
_geom_bond_distance
_geom_bond_site_symmetry_2
_ccdc_geom_bond_type
C0 O2 1.247 . S
C0 O4 1.258 . S
C1 O8 1.247 . S
C1 O9 1.258 . S
O2 C0 1.247 . S
O2 Zn3 2.028 . S
Zn3 O2 2.028 . S
Zn3 O7 2.035 . S
Zn3 O9 2.035 . S
Zn3 O10 2.028 . S
O4 C0 1.258 . S
O4 Zn5 2.035 . S
Zn5 O4 2.035 . S
Zn5 O6 2.028 . S
Zn5 O8 2.028 . S
Zn5 O11 2.035 . S
O6 Zn5 2.028 . S
O6 C12 1.247 . S
O7 Zn3 2.035 . S
O7 C12 1.258 . S
O8 C1 1.247 . S
O8 Zn5 2.028 . S
O9 C1 1.258 . S
O9 Zn3 2.035 . S
O10 Zn3 2.028 . S
O10 C13 1.247 . S
O11 Zn5 2.035 . S
O11 C13 1.258 . S
C12 O6 1.247 . S
C12 O7 1.258 . S
C13 O10 1.247 . S
C13 O11 1.258 . S
C14 O16 1.235 1_455 S
C14 O18 1.260 . S
C15 O22 1.247 . S
C15 O23 1.258 . S
O16 C14 1.235 1_655 S
O16 Zn17 2.028 . S
Zn17 O16 2.028 . S
Zn17 O21 2.035 . S
Zn17 O23 2.035 . S
Zn17 O24 2.028 . S
O18 C14 1.260 . S
O18 Zn19 2.035 1_455 S
Zn19 O18 2.035 1_655 S
Zn19 O20 2.028 1_655 S
Zn19 O22 2.028 . S
Zn19 O25 2.035 . S
O20 Zn19 2.028 1_455 S
O20 C26 1.247 . S
O21 Zn17 2.035 . S
O21 C26 1.258 1_655 S
O22 C15 1.247 . S
O22 Zn19 2.028 . S
O23 C15 1.258 . S
O23 Zn17 2.035 . S
O24 Zn17 2.028 . S
O24 C27 1.247 . S
O25 Zn19 2.035 . S
O25 C27 1.258 . S
C26 O20 1.247 . S
C26 O21 1.258 1_455 S
C27 O24 1.247 . S
C27 O25 1.258 . S
C28 O30 1.247 . S
C28 O32 1.258 . S
C29 O36 1.247 . S
C29 O37 1.258 . S
O30 C28 1.247 . S
O30 Zn31 2.028 . S
Zn31 O30 2.028 . S
Zn31 O35 2.035 . S
Zn31 O37 2.035 . S
Zn31 O38 2.028 . S
O32 C28 1.258 . S
O32 Zn33 2.035 . S
Zn33 O32 2.035 . S
Zn33 O34 2.028 . S
Zn33 O36 2.028 . S
Zn33 O39 2.035 . S
O34 Zn33 2.028 . S
O34 C40 1.247 . S
O35 Zn31 2.035 . S
O35 C40 1.258 . S
O36 C29 1.247 . S
O36 Zn33 2.028 . S
O37 C29 1.258 . S
O37 Zn31 2.035 . S
O38 Zn31 2.028 . S
O38 C41 1.247 . S
O39 Zn33 2.035 . S
O39 C41 1.258 . S
C40 O34 1.247 . S
C40 O35 1.258 . S
C41 O38 1.247 . S
C41 O39 1.258 . S
C42 O44 1.247 . S
C42 O46 1.258 . S
C43 O50 1.247 . S
C43 O51 1.258 . S
O44 C42 1.247 . S
O44 Zn45 2.028 . S
Zn45 O44 2.028 . S
Zn45 O49 2.035 . S
Zn45 O51 2.035 . S
Zn45 O52 2.028 . S
O46 C42 1.258 . S
O46 Zn47 2.035 . S
Zn47 O46 2.035 . S
Zn47 O48 2.028 . S
Zn47 O50 2.028 . S
Zn47 O53 2.035 . S
O48 Zn47 2.028 . S
O48 C54 1.247 . S
O49 Zn45 2.035 . S
O49 C54 1.258 . S
O50 C43 1.247 . S
O50 Zn47 2.028 . S
O51 C43 1.258 . S
O51 Zn45 2.035 . S
O52 Zn45 2.028 . S
O52 C55 1.247 . S
O53 Zn47 2.035 . S
O53 C55 1.258 . S
C54 O48 1.247 . S
C54 O49 1.258 . S
C55 O52 1.247 . S
C55 O53 1.258 . S
C56 O58 1.247 . S
C56 O60 1.258 . S
C57 O64 1.247 . S
C57 O65 1.258 . S
O58 C56 1.247 . S
O58 Zn59 2.028 . S
Zn59 O58 2.028 . S
Zn59 O63 2.035 . S
Zn59 O65 2.035 . S
Zn59 O66 2.028 . S
O60 C56 1.258 . S
O60 Zn61 2.035 . S
Zn61 O60 2.035 . S
Zn61 O62 2.028 . S
Zn61 O64 2.028 . S
Zn61 O67 2.035 . S
O62 Zn61 2.028 . S
O62 C68 1.247 . S
O63 Zn59 2.035 . S
O63 C68 1.258 . S
O64 C57 1.247 . S
O64 Zn61 2.028 . S
O65 C57 1.258 . S
O65 Zn59 2.035 . S
O66 Zn59 2.028 . S
O66 C69 1.247 . S
O67 Zn61 2.035 . S
O67 C69 1.258 . S
C68 O62 1.247 . S
C68 O63 1.258 . S
C69 O66 1.247 . S
C69 O67 1.258 . S
C70 O72 1.247 . S
C70 O74 1.258 . S
C71 O78 1.247 . S
C71 O79 1.258 . S
O72 C70 1.247 . S
O72 Zn73 2.028 . S
Zn73 O72 2.028 . S
Zn73 O77 2.035 . S
Zn73 O79 2.035 . S
Zn73 O80 2.028 . S
O74 C70 1.258 . S
O74 Zn75 2.035 . S
Zn75 O74 2.035 . S
Zn75 O76 2.028 . S
Zn75 O78 2.028 . S
Zn75 O81 2.035 . S
O76 Zn75 2.028 . S
O76 C82 1.247 . S
O77 Zn73 2.035 . S
O77 C82 1.258 . S
O78 C71 1.247 . S
O78 Zn75 2.028 . S
O79 C71 1.258 . S
O79 Zn73 2.035 . S
O80 Zn73 2.028 . S
O80 C83 1.247 . S
O81 Zn75 2.035 . S
O81 C83 1.258 . S
C82 O76 1.247 . S
C82 O77 1.258 . S
C83 O80 1.247 . S
C83 O81 1.258 . S
C84 O86 1.247 . S
C84 O88 1.258 . S
C85 O92 1.247 . S
C85 O93 1.258 . S
O86 C84 1.247 . S
O86 Zn87 2.028 . S
Zn87 O86 2.028 . S
Zn87 O91 2.035 . S
Zn87 O93 2.035 . S
Zn87 O94 2.028 . S
O88 C84 1.258 . S
O88 Zn89 2.035 . S
Zn89 O88 2.035 . S
Zn89 O90 2.028 . S
Zn89 O92 2.028 . S
Zn89 O95 2.035 . S
O90 Zn89 2.028 . S
O90 C96 1.247 . S
O91 Zn87 2.035 . S
O91 C96 1.258 . S
O92 C85 1.247 . S
O92 Zn89 2.028 . S
O93 C85 1.258 . S
O93 Zn87 2.035 . S
O94 Zn87 2.028 . S
O94 C97 1.247 . S
O95 Zn89 2.035 . S
O95 C97 1.258 . S
C96 O90 1.247 . S
C96 O91 1.258 . S
C97 O94 1.247 . S
C97 O95 1.258 . S
C98 O100 1.235 1_455 S
C98 O102 1.260 . S
C99 O106 1.247 . S
C99 O107 1.258 . S
O100 C98 1.235 1_655 S
O100 Zn101 2.028 . S
Zn101 O100 2.028 . S
Zn101 O105 2.035 . S
Zn101 O107 2.035 . S
Zn101 O108 2.028 . S
O102 C98 1.260 . S
O102 Zn103 2.035 1_455 S
Zn103 O102 2.035 1_655 S
Zn103 O104 2.028 1_655 S
Zn103 O106 2.028 . S
Zn103 O109 2.035 . S
O104 Zn103 2.028 1_455 S
O104 C110 1.247 . S
O105 Zn101 2.035 . S
O105 C110 1.258 1_655 S
O106 C99 1.247 . S
O106 Zn103 2.028 . S
O107 C99 1.258 . S
O107 Zn101 2.035 . S
O108 Zn101 2.028 . S
O108 C111 1.247 . S
O109 Zn103 2.035 . S
O109 C111 1.258 . S
C110 O104 1.247 . S
C110 O105 1.258 1_455 S
C111 O108 1.247 . S
C111 O109 1.258 . S
C112 O114 1.247 . S
C112 O116 1.258 . S
C113 O120 1.247 . S
C113 O121 1.258 . S
O114 C112 1.247 . S
O114 Zn115 2.028 . S
Zn115 O114 2.028 . S
Zn115 O119 2.035 . S
Zn115 O121 2.035 . S
Zn115 O122 2.028 . S
O116 C112 1.258 . S
O116 Zn117 2.035 . S
Zn117 O116 2.035 . S
Zn117 O118 2.028 . S
Zn117 O120 2.028 . S
Zn117 O123 2.035 . S
O118 Zn117 2.028 . S
O118 C124 1.247 . S
O119 Zn115 2.035 . S
O119 C124 1.258 . S
O120 C113 1.247 . S
O120 Zn117 2.028 . S
O121 C113 1.258 . S
O121 Zn115 2.035 . S
O122 Zn115 2.028 . S
O122 C125 1.247 . S
O123 Zn117 2.035 . S
O123 C125 1.258 . S
C124 O118 1.247 . S
C124 O119 1.258 . S
C125 O122 1.247 . S
C125 O123 1.258 . S
C126 O128 1.247 . S
C126 O130 1.258 . S
C127 O134 1.247 . S
C127 O135 1.258 . S
O128 C126 1.247 . S
O128 Zn129 2.028 . S
Zn129 O128 2.028 . S
Zn129 O133 2.035 . S
Zn129 O135 2.035 . S
Zn129 O136 2.028 . S
O130 C126 1.258 . S
O130 Zn131 2.035 . S
Zn131 O130 2.035 . S
Zn131 O132 2.028 . S
Zn131 O134 2.028 . S
Zn131 O137 2.035 . S
O132 Zn131 2.028 . S
O132 C138 1.247 . S
O133 Zn129 2.035 . S
O133 C138 1.258 . S
O134 C127 1.247 . S
O134 Zn131 2.028 . S
O135 C127 1.258 . S
O135 Zn129 2.035 . S
O136 Zn129 2.028 . S
O136 C139 1.247 . S
O137 Zn131 2.035 . S
O137 C139 1.258 . S
C138 O132 1.247 . S
C138 O133 1.258 . S
C139 O136 1.247 . S
C139 O137 1.258 . S
C140 O142 1.247 . S
C140 O144 1.258 . S
C141 O148 1.247 . S
C141 O149 1.258 . S
O142 C140 1.247 . S
O142 Zn143 2.028 . S
Zn143 O142 2.028 . S
Zn143 O147 2.035 . S
Zn143 O149 2.035 . S
Zn143 O150 2.028 . S
O144 C140 1.258 . S
O144 Zn145 2.035 . S
Zn145 O144 2.035 . S
Zn145 O146 2.028 . S
Zn145 O148 2.028 . S
Zn145 O151 2.035 . S
O146 Zn145 2.028 . S
O146 C152 1.247 . S
O147 Zn143 2.035 . S
O147 C152 1.258 . S
O148 C141 1.247 . S
O148 Zn145 2.028 . S
O149 C141 1.258 . S
O149 Zn143 2.035 . S
O150 Zn143 2.028 . S
O150 C153 1.247 . S
O151 Zn145 2.035 . S
O151 C153 1.258 . S
C152 O146 1.247 . S
C152 O147 1.258 . S
C153 O150 1.247 . S
C153 O151 1.258 . S
C154 O156 1.247 . S
C154 O158 1.258 . S
C155 O162 1.249 . S
C155 O163 1.245 1_556 S
O156 C154 1.247 . S
O156 Zn157 2.028 . S
Zn157 O156 2.028 . S
Zn157 O161 2.035 . S
Zn157 O163 2.035 . S
Zn157 O164 2.028 . S
O158 C154 1.258 . S
O158 Zn159 2.035 . S
Zn159 O158 2.035 . S
Zn159 O160 2.028 . S
Zn159 O162 2.028 1_554 S
Zn159 O165 2.035 1_554 S
O160 Zn159 2.028 . S
O160 C166 1.247 . S
O161 Zn157 2.035 . S
O161 C166 1.258 . S
O162 C155 1.249 . S
O162 Zn159 2.028 1_556 S
O163 C155 1.245 1_554 S
O163 Zn157 2.035 . S
O164 Zn157 2.028 . S
O164 C167 1.247 1_554 S
O165 Zn159 2.035 1_556 S
O165 C167 1.258 . S
C166 O160 1.247 . S
C166 O161 1.258 . S
C167 O164 1.247 1_556 S
C167 O165 1.258 . S
C168 O170 1.247 . S
C168 O172 1.258 . S
C169 O176 1.247 . S
C169 O177 1.258 . S
O170 C168 1.247 . S
O170 Zn171 2.028 . S
Zn171 O170 2.028 . S
Zn171 O175 2.035 . S
Zn171 O177 2.035 . S
Zn171 O178 2.028 . S
O172 C168 1.258 . S
O172 Zn173 2.035 . S
Zn173 O172 2.035 . S
Zn173 O174 2.028 . S
Zn173 O176 2.028 . S
Zn173 O179 2.035 . S
O174 Zn173 2.028 . S
O174 C180 1.247 . S
O175 Zn171 2.035 . S
O175 C180 1.258 . S
O176 C169 1.247 . S
O176 Zn173 2.028 . S
O177 C169 1.258 . S
O177 Zn171 2.035 . S
O178 Zn171 2.028 . S
O178 C181 1.247 . S
O179 Zn173 2.035 . S
O179 C181 1.258 . S
C180 O174 1.247 . S
C180 O175 1.258 . S
C181 O178 1.247 . S
C181 O179 1.258 . S
C182 O184 1.247 . S
C182 O186 1.258 . S
C183 O190 1.247 . S
C183 O191 1.258 . S
O184 C182 1.247 . S
O184 Zn185 2.028 . S
Zn185 O184 2.028 . S
Zn185 O189 2.035 . S
Zn185 O191 2.035 . S
Zn185 O192 2.028 . S
O186 C182 1.258 . S
O186 Zn187 2.035 . S
Zn187 O186 2.035 . S
Zn187 O188 2.028 . S
Zn187 O190 2.028 . S
Zn187 O193 2.035 . S
O188 Zn187 2.028 . S
O188 C194 1.247 . S
O189 Zn185 2.035 . S
O189 C194 1.258 . S
O190 C183 1.247 . S
O190 Zn187 2.028 . S
O191 C183 1.258 . S
O191 Zn185 2.035 . S
O192 Zn185 2.028 . S
O192 C195 1.247 . S
O193 Zn187 2.035 . S
O193 C195 1.258 . S
C194 O188 1.247 . S
C194 O189 1.258 . S
C195 O192 1.247 . S
C195 O193 1.258 . S
C196 O198 1.247 . S
C196 O200 1.258 . S
C197 O204 1.247 . S
C197 O205 1.258 . S
O198 C196 1.247 . S
O198 Zn199 2.028 . S
Zn199 O198 2.028 . S
Zn199 O203 2.035 . S
Zn199 O205 2.035 . S
Zn199 O206 2.028 . S
O200 C196 1.258 . S
O200 Zn201 2.035 . S
Zn201 O200 2.035 . S
Zn201 O202 2.028 . S
Zn201 O204 2.028 . S
Zn201 O207 2.035 . S
O202 Zn201 2.028 . S
O202 C208 1.247 . S
O203 Zn199 2.035 . S
O203 C208 1.258 . S
O204 C197 1.247 . S
O204 Zn201 2.028 . S
O205 C197 1.258 . S
O205 Zn199 2.035 . S
O206 Zn199 2.028 . S
O206 C209 1.247 . S
O207 Zn201 2.035 . S
O207 C209 1.258 . S
C208 O202 1.247 . S
C208 O203 1.258 . S
C209 O206 1.247 . S
C209 O207 1.258 . S
C210 O212 1.247 . S
C210 O214 1.258 . S
C211 O218 1.247 1_554 S
C211 O219 1.258 . S
O212 C210 1.247 . S
O212 Zn213 2.028 . S
Zn213 O212 2.028 . S
Zn213 O217 2.035 . S
Zn213 O219 2.035 1_556 S
Zn213 O220 2.028 1_556 S
O214 C210 1.258 . S
O214 Zn215 2.035 . S
Zn215 O214 2.035 . S
Zn215 O216 2.028 . S
Zn215 O218 2.028 . S
Zn215 O221 2.035 . S
O216 Zn215 2.028 . S
O216 C222 1.247 . S
O217 Zn213 2.035 . S
O217 C222 1.258 . S
O218 C211 1.247 1_556 S
O218 Zn215 2.028 . S
O219 C211 1.258 . S
O219 Zn213 2.035 1_554 S
O220 Zn213 2.028 1_554 S
O220 C223 1.249 . S
O221 Zn215 2.035 . S
O221 C223 1.245 1_556 S
C222 O216 1.247 . S
C222 O217 1.258 . S
C223 O220 1.249 . S
C223 O221 1.245 1_554 S
C224 O226 1.247 . S
C224 O228 1.258 . S
C225 O232 1.247 . S
C225 O233 1.258 . S
O226 C224 1.247 . S
O226 Zn227 2.028 . S
Zn227 O226 2.028 . S
Zn227 O231 2.035 . S
Zn227 O233 2.035 . S
Zn227 O234 2.028 . S
O228 C224 1.258 . S
O228 Zn229 2.035 . S
Zn229 O228 2.035 . S
Zn229 O230 2.028 . S
Zn229 O232 2.028 . S
Zn229 O235 2.035 . S
O230 Zn229 2.028 . S
O230 C236 1.247 . S
O231 Zn227 2.035 . S
O231 C236 1.258 . S
O232 C225 1.247 . S
O232 Zn229 2.028 . S
O233 C225 1.258 . S
O233 Zn227 2.035 . S
O234 Zn227 2.028 . S
O234 C237 1.247 . S
O235 Zn229 2.035 . S
O235 C237 1.258 . S
C236 O230 1.247 . S
C236 O231 1.258 . S
C237 O234 1.247 . S
C237 O235 1.258 . S
C238 O240 1.247 . S
C238 O242 1.258 . S
C239 O246 1.247 . S
C239 O247 1.258 . S
O240 C238 1.247 . S
O240 Zn241 2.028 . S
Zn241 O240 2.028 . S
Zn241 O245 2.035 . S
Zn241 O247 2.035 . S
Zn241 O248 2.028 . S
O242 C238 1.258 . S
O242 Zn243 2.035 . S
Zn243 O242 2.035 . S
Zn243 O244 2.028 . S
Zn243 O246 2.028 . S
Zn243 O249 2.035 . S
O244 Zn243 2.028 . S
O244 C250 1.247 . S
O245 Zn241 2.035 . S
O245 C250 1.258 . S
O246 C239 1.247 . S
O246 Zn243 2.028 . S
O247 C239 1.258 . S
O247 Zn241 2.035 . S
O248 Zn241 2.028 . S
O248 C251 1.247 . S
O249 Zn243 2.035 . S
O249 C251 1.258 . S
C250 O244 1.247 . S
C250 O245 1.258 . S
C251 O248 1.247 . S
C251 O249 1.258 . S
C252 O254 1.247 . S
C252 O256 1.258 . S
C253 O260 1.247 . S
C253 O261 1.258 . S
O254 C252 1.247 . S
O254 Zn255 2.028 . S
Zn255 O254 2.028 . S
Zn255 O259 2.035 . S
Zn255 O261 2.035 . S
Zn255 O262 2.028 . S
O256 C252 1.258 . S
O256 Zn257 2.035 . S
Zn257 O256 2.035 . S
Zn257 O258 2.028 . S
Zn257 O260 2.028 . S
Zn257 O263 2.035 . S
O258 Zn257 2.028 . S
O258 C264 1.247 . S
O259 Zn255 2.035 . S
O259 C264 1.258 . S
O260 C253 1.247 . S
O260 Zn257 2.028 . S
O261 C253 1.258 . S
O261 Zn255 2.035 . S
O262 Zn255 2.028 . S
O262 C265 1.247 . S
O263 Zn257 2.035 . S
O263 C265 1.258 . S
C264 O258 1.247 . S
C264 O259 1.258 . S
C265 O262 1.247 . S
C265 O263 1.258 . S
C266 O268 1.247 . S
C266 O270 1.258 . S
C267 O274 1.247 . S
C267 O275 1.258 . S
O268 C266 1.247 . S
O268 Zn269 2.028 . S
Zn269 O268 2.028 . S
Zn269 O273 2.035 . S
Zn269 O275 2.035 . S
Zn269 O276 2.028 . S
O270 C266 1.258 . S
O270 Zn271 2.035 . S
Zn271 O270 2.035 . S
Zn271 O272 2.028 . S
Zn271 O274 2.028 . S
Zn271 O277 2.035 . S
O272 Zn271 2.028 . S
O272 C278 1.247 . S
O273 Zn269 2.035 . S
O273 C278 1.258 . S
O274 C267 1.247 . S
O274 Zn271 2.028 . S
O275 C267 1.258 . S
O275 Zn269 2.035 . S
O276 Zn269 2.028 . S
O276 C279 1.247 . S
O277 Zn271 2.035 . S
O277 C279 1.258 . S
C278 O272 1.247 . S
C278 O273 1.258 . S
C279 O276 1.247 . S
C279 O277 1.258 . S
C280 O282 1.247 . S
C280 O284 1.258 1_545 S
C281 O288 1.247 . S
C281 O289 1.258 . S
O282 C280 1.247 . S
O282 Zn283 2.028 1_545 S
Zn283 O282 2.028 1_565 S
Zn283 O287 2.035 1_565 S
Zn283 O289 2.035 . S
Zn283 O290 2.028 . S
O284 C280 1.258 1_565 S
O284 Zn285 2.035 . S
Zn285 O284 2.035 . S
Zn285 O286 2.028 . S
Zn285 O288 2.028 . S
Zn285 O291 2.035 . S
O286 Zn285 2.028 . S
O286 C292 1.235 1_565 S
O287 Zn283 2.035 1_545 S
O287 C292 1.260 . S
O288 C281 1.247 . S
O288 Zn285 2.028 . S
O289 C281 1.258 . S
O289 Zn283 2.035 . S
O290 Zn283 2.028 . S
O290 C293 1.247 . S
O291 Zn285 2.035 . S
O291 C293 1.258 . S
C292 O286 1.235 1_545 S
C292 O287 1.260 . S
C293 O290 1.247 . S
C293 O291 1.258 . S
C294 O296 1.247 . S
C294 O298 1.258 . S
C295 O302 1.247 . S
C295 O303 1.258 . S
O296 C294 1.247 . S
O296 Zn297 2.028 . S
Zn297 O296 2.028 . S
Zn297 O301 2.035 . S
Zn297 O303 2.035 . S
Zn297 O304 2.028 . S
O298 C294 1.258 . S
O298 Zn299 2.035 . S
Zn299 O298 2.035 . S
Zn299 O300 2.028 . S
Zn299 O302 2.028 . S
Zn299 O305 2.035 . S
O300 Zn299 2.028 . S
O300 C306 1.247 . S
O301 Zn297 2.035 . S
O301 C306 1.258 . S
O302 C295 1.247 . S
O302 Zn299 2.028 . S
O303 C295 1.258 . S
O303 Zn297 2.035 . S
O304 Zn297 2.028 . S
O304 C307 1.247 . S
O305 Zn299 2.035 . S
O305 C307 1.258 . S
C306 O300 1.247 . S
C306 O301 1.258 . S
C307 O304 1.247 . S
C307 O305 1.258 . S
C308 O310 1.247 . S
C308 O312 1.258 . S
C309 O316 1.247 . S
C309 O317 1.258 . S
O310 C308 1.247 . S
O310 Zn311 2.028 . S
Zn311 O310 2.028 . S
Zn311 O315 2.035 . S
Zn311 O317 2.035 . S
Zn311 O318 2.028 . S
O312 C308 1.258 . S
O312 Zn313 2.035 . S
Zn313 O312 2.035 . S
Zn313 O314 2.028 . S
Zn313 O316 2.028 . S
Zn313 O319 2.035 . S
O314 Zn313 2.028 . S
O314 C320 1.247 . S
O315 Zn311 2.035 . S
O315 C320 1.258 . S
O316 C309 1.247 . S
O316 Zn313 2.028 . S
O317 C309 1.258 . S
O317 Zn311 2.035 . S
O318 Zn311 2.028 . S
O318 C321 1.247 . S
O319 Zn313 2.035 . S
O319 C321 1.258 . S
C320 O314 1.247 . S
C320 O315 1.258 . S
C321 O318 1.247 . S
C321 O319 1.258 . S
C322 O324 1.247 . S
C322 O326 1.258 . S
C323 O330 1.247 . S
C323 O331 1.258 . S
O324 C322 1.247 . S
O324 Zn325 2.028 . S
Zn325 O324 2.028 . S
Zn325 O329 2.035 . S
Zn325 O331 2.035 . S
Zn325 O332 2.028 . S
O326 C322 1.258 . S
O326 Zn327 2.035 . S
Zn327 O326 2.035 . S
Zn327 O328 2.028 . S
Zn327 O330 2.028 . S
Zn327 O333 2.035 . S
O328 Zn327 2.028 . S
O328 C334 1.247 . S
O329 Zn325 2.035 . S
O329 C334 1.258 . S
O330 C323 1.247 . S
O330 Zn327 2.028 . S
O331 C323 1.258 . S
O331 Zn325 2.035 . S
O332 Zn325 2.028 . S
O332 C335 1.247 . S
O333 Zn327 2.035 . S
O333 C335 1.258 . S
C334 O328 1.247 . S
C334 O329 1.258 . S
C335 O332 1.247 . S
C335 O333 1.258 . S
C336 O338 1.247 . S
C336 O340 1.258 . S
C337 O344 1.247 . S
C337 O345 1.258 . S
O338 C336 1.247 . S
O338 Zn339 2.028 . S
Zn339 O338 2.028 . S
Zn339 O343 2.035 . S
Zn339 O345 2.035 . S
Zn339 O346 2.028 . S
O340 C336 1.258 . S
O340 Zn341 2.035 . S
Zn341 O340 2.035 . S
Zn341 O342 2.028 . S
Zn341 O344 2.028 . S
Zn341 O347 2.035 . S
O342 Zn341 2.028 . S
O342 C348 1.247 . S
O343 Zn339 2.035 . S
O343 C348 1.258 . S
O344 C337 1.247 . S
O344 Zn341 2.028 . S
O345 C337 1.258 . S
O345 Zn339 2.035 . S
O346 Zn339 2.028 . S
O346 C349 1.247 . S
O347 Zn341 2.035 . S
O347 C349 1.258 . S
C348 O342 1.247 . S
C348 O343 1.258 . S
C349 O346 1.247 . S
C349 O347 1.258 . S
C350 O352 1.247 . S
C350 O354 1.258 . S
C351 O358 1.247 . S
C351 O359 1.258 . S
O352 C350 1.247 . S
O352 Zn353 2.028 . S
Zn353 O352 2.028 . S
Zn353 O357 2.035 . S
Zn353 O359 2.035 . S
Zn353 O360 2.028 . S
O354 C350 1.258 . S
O354 Zn355 2.035 . S
Zn355 O354 2.035 . S
Zn355 O356 2.028 . S
Zn355 O358 2.028 . S
Zn355 O361 2.035 . S
O356 Zn355 2.028 . S
O356 C362 1.247 . S
O357 Zn353 2.035 . S
O357 C362 1.258 . S
O358 C351 1.247 . S
O358 Zn355 2.028 . S
O359 C351 1.258 . S
O359 Zn353 2.035 . S
O360 Zn353 2.028 . S
O360 C363 1.247 . S
O361 Zn355 2.035 . S
O361 C363 1.258 . S
C362 O356 1.247 . S
C362 O357 1.258 . S
C363 O360 1.247 . S
C363 O361 1.258 . S
C364 O366 1.247 . S
C364 O368 1.258 . S
C365 O372 1.247 . S
C365 O373 1.258 . S
O366 C364 1.247 . S
O366 Zn367 2.028 . S
Zn367 O366 2.028 . S
Zn367 O371 2.035 . S
Zn367 O373 2.035 . S
Zn367 O374 2.028 . S
O368 C364 1.258 . S
O368 Zn369 2.035 . S
Zn369 O368 2.035 . S
Zn369 O370 2.028 . S
Zn369 O372 2.028 . S
Zn369 O375 2.035 . S
O370 Zn369 2.028 . S
O370 C376 1.247 . S
O371 Zn367 2.035 . S
O371 C376 1.258 . S
O372 C365 1.247 . S
O372 Zn369 2.028 . S
O373 C365 1.258 . S
O373 Zn367 2.035 . S
O374 Zn367 2.028 . S
O374 C377 1.247 . S
O375 Zn369 2.035 . S
O375 C377 1.258 . S
C376 O370 1.247 . S
C376 O371 1.258 . S
C377 O374 1.247 . S
C377 O375 1.258 . S
C378 O380 1.235 1_655 S
C378 O382 1.260 . S
C379 O386 1.247 . S
C379 O387 1.258 . S
O380 C378 1.235 1_455 S
O380 Zn381 2.028 . S
Zn381 O380 2.028 . S
Zn381 O385 2.035 . S
Zn381 O387 2.035 . S
Zn381 O388 2.028 . S
O382 C378 1.260 . S
O382 Zn383 2.035 1_655 S
Zn383 O382 2.035 1_455 S
Zn383 O384 2.028 1_455 S
Zn383 O386 2.028 . S
Zn383 O389 2.035 . S
O384 Zn383 2.028 1_655 S
O384 C390 1.247 . S
O385 Zn381 2.035 . S
O385 C390 1.258 1_455 S
O386 C379 1.247 . S
O386 Zn383 2.028 . S
O387 C379 1.258 . S
O387 Zn381 2.035 . S
O388 Zn381 2.028 . S
O388 C391 1.247 . S
O389 Zn383 2.035 . S
O389 C391 1.258 . S
C390 O384 1.247 . S
C390 O385 1.258 1_655 S
C391 O388 1.247 . S
C391 O389 1.258 . S
C392 O394 1.247 . S
C392 O396 1.258 . S
C393 O400 1.247 . S
C393 O401 1.258 . S
O394 C392 1.247 . S
O394 Zn395 2.028 . S
Zn395 O394 2.028 . S
Zn395 O399 2.035 . S
Zn395 O401 2.035 . S
Zn395 O402 2.028 . S
O396 C392 1.258 . S
O396 Zn397 2.035 . S
Zn397 O396 2.035 . S
Zn397 O398 2.028 . S
Zn397 O400 2.028 . S
Zn397 O403 2.035 . S
O398 Zn397 2.028 . S
O398 C404 1.247 . S
O399 Zn395 2.035 . S
O399 C404 1.258 . S
O400 C393 1.247 . S
O400 Zn397 2.028 . S
O401 C393 1.258 . S
O401 Zn395 2.035 . S
O402 Zn395 2.028 . S
O402 C405 1.247 . S
O403 Zn397 2.035 . S
O403 C405 1.258 . S
C404 O398 1.247 . S
C404 O399 1.258 . S
C405 O402 1.247 . S
C405 O403 1.258 . S
C406 O408 1.247 . S
C406 O410 1.258 1_655 S
C407 O414 1.247 . S
C407 O415 1.258 . S
O408 C406 1.247 . S
O408 Zn409 2.028 1_655 S
Zn409 O408 2.028 1_455 S
Zn409 O413 2.035 1_455 S
Zn409 O415 2.035 . S
Zn409 O416 2.028 . S
O410 C406 1.258 1_455 S
O410 Zn411 2.035 . S
Zn411 O410 2.035 . S
Zn411 O412 2.028 . S
Zn411 O414 2.028 . S
Zn411 O417 2.035 . S
O412 Zn411 2.028 . S
O412 C418 1.235 1_455 S
O413 Zn409 2.035 1_655 S
O413 C418 1.260 . S
O414 C407 1.247 . S
O414 Zn411 2.028 . S
O415 C407 1.258 . S
O415 Zn409 2.035 . S
O416 Zn409 2.028 . S
O416 C419 1.247 . S
O417 Zn411 2.035 . S
O417 C419 1.258 . S
C418 O412 1.235 1_655 S
C418 O413 1.260 . S
C419 O416 1.247 . S
C419 O417 1.258 . S
C420 O422 1.247 . S
C420 O424 1.258 . S
C421 O428 1.247 . S
C421 O429 1.258 . S
O422 C420 1.247 . S
O422 Zn423 2.028 . S
Zn423 O422 2.028 . S
Zn423 O427 2.035 . S
Zn423 O429 2.035 . S
Zn423 O430 2.028 . S
O424 C420 1.258 . S
O424 Zn425 2.035 . S
Zn425 O424 2.035 . S
Zn425 O426 2.028 . S
Zn425 O428 2.028 . S
Zn425 O431 2.035 . S
O426 Zn425 2.028 . S
O426 C432 1.247 . S
O427 Zn423 2.035 . S
O427 C432 1.258 . S
O428 C421 1.247 . S
O428 Zn425 2.028 . S
O429 C421 1.258 . S
O429 Zn423 2.035 . S
O430 Zn423 2.028 . S
O430 C433 1.247 . S
O431 Zn425 2.035 . S
O431 C433 1.258 . S
C432 O426 1.247 . S
C432 O427 1.258 . S
C433 O430 1.247 . S
C433 O431 1.258 . S
C434 O436 1.247 . S
C434 O438 1.258 . S
C435 O442 1.247 . S
C435 O443 1.258 . S
O436 C434 1.247 . S
O436 Zn437 2.028 . S
Zn437 O436 2.028 . S
Zn437 O441 2.035 . S
Zn437 O443 2.035 . S
Zn437 O444 2.028 . S
O438 C434 1.258 . S
O438 Zn439 2.035 . S
Zn439 O438 2.035 . S
Zn439 O440 2.028 . S
Zn439 O442 2.028 . S
Zn439 O445 2.035 . S
O440 Zn439 2.028 . S
O440 C446 1.247 . S
O441 Zn437 2.035 . S
O441 C446 1.258 . S
O442 C435 1.247 . S
O442 Zn439 2.028 . S
O443 C435 1.258 . S
O443 Zn437 2.035 . S
O444 Zn437 2.028 . S
O444 C447 1.247 . S
O445 Zn439 2.035 . S
O445 C447 1.258 . S
C446 O440 1.247 . S
C446 O441 1.258 . S
C447 O444 1.247 . S
C447 O445 1.258 . S
C448 O450 1.247 . S
C448 O452 1.258 . S
C449 O456 1.247 . S
C449 O457 1.258 . S
O450 C448 1.247 . S
O450 Zn451 2.028 . S
Zn451 O450 2.028 . S
Zn451 O455 2.035 . S
Zn451 O457 2.035 . S
Zn451 O458 2.028 . S
O452 C448 1.258 . S
O452 Zn453 2.035 . S
Zn453 O452 2.035 . S
Zn453 O454 2.028 . S
Zn453 O456 2.028 . S
Zn453 O459 2.035 . S
O454 Zn453 2.028 . S
O454 C460 1.247 . S
O455 Zn451 2.035 . S
O455 C460 1.258 . S
O456 C449 1.247 . S
O456 Zn453 2.028 . S
O457 C449 1.258 . S
O457 Zn451 2.035 . S
O458 Zn451 2.028 . S
O458 C461 1.247 . S
O459 Zn453 2.035 . S
O459 C461 1.258 . S
C460 O454 1.247 . S
C460 O455 1.258 . S
C461 O458 1.247 . S
C461 O459 1.258 . S
C462 O464 1.247 . S
C462 O466 1.258 1_556 S
C463 O470 1.247 . S
C463 O471 1.258 . S
O464 C462 1.247 . S
O464 Zn465 2.028 1_556 S
Zn465 O464 2.028 1_554 S
Zn465 O469 2.035 1_554 S
Zn465 O471 2.035 . S
Zn465 O472 2.028 . S
O466 C462 1.258 1_554 S
O466 Zn467 2.035 . S
Zn467 O466 2.035 . S
Zn467 O468 2.028 . S
Zn467 O470 2.028 . S
Zn467 O473 2.035 . S
O468 Zn467 2.028 . S
O468 C474 1.235 1_554 S
O469 Zn465 2.035 1_556 S
O469 C474 1.260 . S
O470 C463 1.247 . S
O470 Zn467 2.028 . S
O471 C463 1.258 . S
O471 Zn465 2.035 . S
O472 Zn465 2.028 . S
O472 C475 1.247 . S
O473 Zn467 2.035 . S
O473 C475 1.258 . S
C474 O468 1.235 1_556 S
C474 O469 1.260 . S
C475 O472 1.247 . S
C475 O473 1.258 . S
C476 O478 1.247 . S
C476 O480 1.258 . S
C477 O484 1.247 . S
C477 O485 1.258 . S
O478 C476 1.247 . S
O478 Zn479 2.028 . S
Zn479 O478 2.028 . S
Zn479 O483 2.035 . S
Zn479 O485 2.035 . S
Zn479 O486 2.028 . S
O480 C476 1.258 . S
O480 Zn481 2.035 . S
Zn481 O480 2.035 . S
Zn481 O482 2.028 . S
Zn481 O484 2.028 . S
Zn481 O487 2.035 . S
O482 Zn481 2.028 . S
O482 C488 1.247 . S
O483 Zn479 2.035 . S
O483 C488 1.258 . S
O484 C477 1.247 . S
O484 Zn481 2.028 . S
O485 C477 1.258 . S
O485 Zn479 2.035 . S
O486 Zn479 2.028 . S
O486 C489 1.247 . S
O487 Zn481 2.035 . S
O487 C489 1.258 . S
C488 O482 1.247 . S
C488 O483 1.258 . S
C489 O486 1.247 . S
C489 O487 1.258 . S
C490 O492 1.247 . S
C490 O494 1.258 . S
C491 O498 1.247 . S
C491 O499 1.258 . S
O492 C490 1.247 . S
O492 Zn493 2.028 . S
Zn493 O492 2.028 . S
Zn493 O497 2.035 . S
Zn493 O499 2.035 . S
Zn493 O500 2.028 . S
O494 C490 1.258 . S
O494 Zn495 2.035 . S
Zn495 O494 2.035 . S
Zn495 O496 2.028 . S
Zn495 O498 2.028 . S
Zn495 O501 2.035 . S
O496 Zn495 2.028 . S
O496 C502 1.247 . S
O497 Zn493 2.035 . S
O497 C502 1.258 . S
O498 C491 1.247 . S
O498 Zn495 2.028 . S
O499 C491 1.258 . S
O499 Zn493 2.035 . S
O500 Zn493 2.028 . S
O500 C503 1.247 . S
O501 Zn495 2.035 . S
O501 C503 1.258 . S
C502 O496 1.247 . S
C502 O497 1.258 . S
C503 O500 1.247 . S
C503 O501 1.258 . S
C504 O506 1.247 . S
C504 O508 1.258 . S
C505 O512 1.247 . S
C505 O513 1.258 . S
O506 C504 1.247 . S
O506 Zn507 2.028 . S
Zn507 O506 2.028 . S
Zn507 O511 2.035 . S
Zn507 O513 2.035 . S
Zn507 O514 2.028 . S
O508 C504 1.258 . S
O508 Zn509 2.035 . S
Zn509 O508 2.035 . S
Zn509 O510 2.028 . S
Zn509 O512 2.028 . S
Zn509 O515 2.035 . S
O510 Zn509 2.028 . S
O510 C516 1.247 . S
O511 Zn507 2.035 . S
O511 C516 1.258 . S
O512 C505 1.247 . S
O512 Zn509 2.028 . S
O513 C505 1.258 . S
O513 Zn507 2.035 . S
O514 Zn507 2.028 . S
O514 C517 1.247 . S
O515 Zn509 2.035 . S
O515 C517 1.258 . S
C516 O510 1.247 . S
C516 O511 1.258 . S
C517 O514 1.247 . S
C517 O515 1.258 . S
C518 O520 1.247 . S
C518 O522 1.258 . S
C519 O526 1.247 1_554 S
C519 O527 1.258 . S
O520 C518 1.247 . S
O520 Zn521 2.028 . S
Zn521 O520 2.028 . S
Zn521 O525 2.035 . S
Zn521 O527 2.035 1_556 S
Zn521 O528 2.028 1_556 S
O522 C518 1.258 . S
O522 Zn523 2.035 . S
Zn523 O522 2.035 . S
Zn523 O524 2.028 . S
Zn523 O526 2.028 . S
Zn523 O529 2.035 . S
O524 Zn523 2.028 . S
O524 C530 1.247 . S
O525 Zn521 2.035 . S
O525 C530 1.258 . S
O526 C519 1.247 1_556 S
O526 Zn523 2.028 . S
O527 C519 1.258 . S
O527 Zn521 2.035 1_554 S
O528 Zn521 2.028 1_554 S
O528 C531 1.249 . S
O529 Zn523 2.035 . S
O529 C531 1.245 1_556 S
C530 O524 1.247 . S
C530 O525 1.258 . S
C531 O528 1.249 . S
C531 O529 1.245 1_554 S
C532 O534 1.247 . S
C532 O536 1.258 . S
C533 O540 1.247 . S
C533 O541 1.258 . S
O534 C532 1.247 . S
O534 Zn535 2.028 . S
Zn535 O534 2.028 . S
Zn535 O539 2.035 . S
Zn535 O541 2.035 . S
Zn535 O542 2.028 . S
O536 C532 1.258 . S
O536 Zn537 2.035 . S
Zn537 O536 2.035 . S
Zn537 O538 2.028 . S
Zn537 O540 2.028 . S
Zn537 O543 2.035 . S
O538 Zn537 2.028 . S
O538 C544 1.247 . S
O539 Zn535 2.035 . S
O539 C544 1.258 . S
O540 C533 1.247 . S
O540 Zn537 2.028 . S
O541 C533 1.258 . S
O541 Zn535 2.035 . S
O542 Zn535 2.028 . S
O542 C545 1.247 . S
O543 Zn537 2.035 . S
O543 C545 1.258 . S
C544 O538 1.247 . S
C544 O539 1.258 . S
C545 O542 1.247 . S
C545 O543 1.258 . S
C546 O548 1.247 . S
C546 O550 1.258 . S
C547 O554 1.247 . S
C547 O555 1.258 . S
O548 C546 1.247 . S
O548 Zn549 2.028 . S
Zn549 O548 2.028 . S
Zn549 O553 2.035 . S
Zn549 O555 2.035 . S
Zn549 O556 2.028 . S
O550 C546 1.258 . S
O550 Zn551 2.035 . S
Zn551 O550 2.035 . S
Zn551 O552 2.028 . S
Zn551 O554 2.028 . S
Zn551 O557 2.035 . S
O552 Zn551 2.028 . S
O552 C558 1.247 . S
O553 Zn549 2.035 . S
O553 C558 1.258 . S
O554 C547 1.247 . S
O554 Zn551 2.028 . S
O555 C547 1.258 . S
O555 Zn549 2.035 . S
O556 Zn549 2.028 . S
O556 C559 1.247 . S
O557 Zn551 2.035 . S
O557 C559 1.258 . S
C558 O552 1.247 . S
C558 O553 1.258 . S
C559 O556 1.247 . S
C559 O557 1.258 . S
C560 O562 1.247 . S
C560 O564 1.258 . S
C561 O568 1.247 . S
C561 O569 1.258 . S
O562 C560 1.247 . S
O562 Zn563 2.028 . S
Zn563 O562 2.028 . S
Zn563 O567 2.035 . S
Zn563 O569 2.035 . S
Zn563 O570 2.028 . S
O564 C560 1.258 . S
O564 Zn565 2.035 . S
Zn565 O564 2.035 . S
Zn565 O566 2.028 . S
Zn565 O568 2.028 . S
Zn565 O571 2.035 . S
O566 Zn565 2.028 . S
O566 C572 1.247 . S
O567 Zn563 2.035 . S
O567 C572 1.258 . S
O568 C561 1.247 . S
O568 Zn565 2.028 . S
O569 C561 1.258 . S
O569 Zn563 2.035 . S
O570 Zn563 2.028 . S
O570 C573 1.247 . S
O571 Zn565 2.035 . S
O571 C573 1.258 . S
C572 O566 1.247 . S
C572 O567 1.258 . S
C573 O570 1.247 . S
C573 O571 1.258 . S
C574 O576 1.247 . S
C574 O578 1.258 . S
C575 O582 1.247 . S
C575 O583 1.258 . S
O576 C574 1.247 . S
O576 Zn577 2.028 . S
Zn577 O576 2.028 . S
Zn577 O581 2.035 . S
Zn577 O583 2.035 . S
Zn577 O584 2.028 . S
O578 C574 1.258 . S
O578 Zn579 2.035 . S
Zn579 O578 2.035 . S
Zn579 O580 2.028 . S
Zn579 O582 2.028 . S
Zn579 O585 2.035 . S
O580 Zn579 2.028 . S
O580 C586 1.247 . S
O581 Zn577 2.035 . S
O581 C586 1.258 . S
O582 C575 1.247 . S
O582 Zn579 2.028 . S
O583 C575 1.258 . S
O583 Zn577 2.035 . S
O584 Zn577 2.028 . S
O584 C587 1.247 . S
O585 Zn579 2.035 . S
O585 C587 1.258 . S
C586 O580 1.247 . S
C586 O581 1.258 . S
C587 O584 1.247 . S
C587 O585 1.258 . S
C588 O590 1.247 . S
C588 O592 1.258 1_565 S
C589 O596 1.247 . S
C589 O597 1.258 . S
O590 C588 1.247 . S
O590 Zn591 2.028 1_565 S
Zn591 O590 2.028 1_545 S
Zn591 O595 2.035 1_545 S
Zn591 O597 2.035 . S
Zn591 O598 2.028 . S
O592 C588 1.258 1_545 S
O592 Zn593 2.035 . S
Zn593 O592 2.035 . S
Zn593 O594 2.028 . S
Zn593 O596 2.028 . S
Zn593 O599 2.035 . S
O594 Zn593 2.028 . S
O594 C600 1.235 1_545 S
O595 Zn591 2.035 1_565 S
O595 C600 1.260 . S
O596 C589 1.247 . S
O596 Zn593 2.028 . S
O597 C589 1.258 . S
O597 Zn591 2.035 . S
O598 Zn591 2.028 . S
O598 C601 1.247 . S
O599 Zn593 2.035 . S
O599 C601 1.258 . S
C600 O594 1.235 1_565 S
C600 O595 1.260 . S
C601 O598 1.247 . S
C601 O599 1.258 . S
C602 O604 1.247 . S
C602 O606 1.258 . S
C603 O610 1.247 . S
C603 O611 1.258 . S
O604 C602 1.247 . S
O604 Zn605 2.028 . S
Zn605 O604 2.028 . S
Zn605 O609 2.035 . S
Zn605 O611 2.035 . S
Zn605 O612 2.028 . S
O606 C602 1.258 . S
O606 Zn607 2.035 . S
Zn607 O606 2.035 . S
Zn607 O608 2.028 . S
Zn607 O610 2.028 . S
Zn607 O613 2.035 . S
O608 Zn607 2.028 . S
O608 C614 1.247 . S
O609 Zn605 2.035 . S
O609 C614 1.258 . S
O610 C603 1.247 . S
O610 Zn607 2.028 . S
O611 C603 1.258 . S
O611 Zn605 2.035 . S
O612 Zn605 2.028 . S
O612 C615 1.247 . S
O613 Zn607 2.035 . S
O613 C615 1.258 . S
C614 O608 1.247 . S
C614 O609 1.258 . S
C615 O612 1.247 . S
C615 O613 1.258 . S
C616 O618 1.247 . S
C616 O620 1.258 . S
C617 O624 1.247 . S
C617 O625 1.258 . S
O618 C616 1.247 . S
O618 Zn619 2.028 . S
Zn619 O618 2.028 . S
Zn619 O623 2.035 . S
Zn619 O625 2.035 . S
Zn619 O626 2.028 . S
O620 C616 1.258 . S
O620 Zn621 2.035 . S
Zn621 O620 2.035 . S
Zn621 O622 2.028 . S
Zn621 O624 2.028 . S
Zn621 O627 2.035 . S
O622 Zn621 2.028 . S
O622 C628 1.247 . S
O623 Zn619 2.035 . S
O623 C628 1.258 . S
O624 C617 1.247 . S
O624 Zn621 2.028 . S
O625 C617 1.258 . S
O625 Zn619 2.035 . S
O626 Zn619 2.028 . S
O626 C629 1.247 . S
O627 Zn621 2.035 . S
O627 C629 1.258 . S
C628 O622 1.247 . S
C628 O623 1.258 . S
C629 O626 1.247 . S
C629 O627 1.258 . S
C630 O632 1.247 . S
C630 O634 1.258 . S
C631 O638 1.247 . S
C631 O639 1.258 . S
O632 C630 1.247 . S
O632 Zn633 2.028 . S
Zn633 O632 2.028 . S
Zn633 O637 2.035 . S
Zn633 O639 2.035 . S
Zn633 O640 2.028 . S
O634 C630 1.258 . S
O634 Zn635 2.035 . S
Zn635 O634 2.035 . S
Zn635 O636 2.028 . S
Zn635 O638 2.028 . S
Zn635 O641 2.035 . S
O636 Zn635 2.028 . S
O636 C642 1.247 . S
O637 Zn633 2.035 . S
O637 C642 1.258 . S
O638 C631 1.247 . S
O638 Zn635 2.028 . S
O639 C631 1.258 . S
O639 Zn633 2.035 . S
O640 Zn633 2.028 . S
O640 C643 1.247 . S
O641 Zn635 2.035 . S
O641 C643 1.258 . S
C642 O636 1.247 . S
C642 O637 1.258 . S
C643 O640 1.247 . S
C643 O641 1.258 . S
C644 O646 1.247 . S
C644 O648 1.258 1_545 S
C645 O652 1.247 . S
C645 O653 1.258 . S
O646 C644 1.247 . S
O646 Zn647 2.028 1_545 S
Zn647 O646 2.028 1_565 S
Zn647 O651 2.035 1_565 S
Zn647 O653 2.035 . S
Zn647 O654 2.028 . S
O648 C644 1.258 1_565 S
O648 Zn649 2.035 . S
Zn649 O648 2.035 . S
Zn649 O650 2.028 . S
Zn649 O652 2.028 . S
Zn649 O655 2.035 . S
O650 Zn649 2.028 . S
O650 C656 1.235 1_565 S
O651 Zn647 2.035 1_545 S
O651 C656 1.260 . S
O652 C645 1.247 . S
O652 Zn649 2.028 . S
O653 C645 1.258 . S
O653 Zn647 2.035 . S
O654 Zn647 2.028 . S
O654 C657 1.247 . S
O655 Zn649 2.035 . S
O655 C657 1.258 . S
C656 O650 1.235 1_545 S
C656 O651 1.260 . S
C657 O654 1.247 . S
C657 O655 1.258 . S
C658 O660 1.235 1_565 S
C658 O662 1.260 . S
C659 O666 1.247 . S
C659 O667 1.258 . S
O660 C658 1.235 1_545 S
O660 Zn661 2.028 . S
Zn661 O660 2.028 . S
Zn661 O665 2.035 . S
Zn661 O667 2.035 . S
Zn661 O668 2.028 . S
O662 C658 1.260 . S
O662 Zn663 2.035 1_565 S
Zn663 O662 2.035 1_545 S
Zn663 O664 2.028 1_545 S
Zn663 O666 2.028 . S
Zn663 O669 2.035 . S
O664 Zn663 2.028 1_565 S
O664 C670 1.247 . S
O665 Zn661 2.035 . S
O665 C670 1.258 1_545 S
O666 C659 1.247 . S
O666 Zn663 2.028 . S
O667 C659 1.258 . S
O667 Zn661 2.035 . S
O668 Zn661 2.028 . S
O668 C671 1.247 . S
O669 Zn663 2.035 . S
O669 C671 1.258 . S
C670 O664 1.247 . S
C670 O665 1.258 1_565 S
C671 O668 1.247 . S
C671 O669 1.258 . S
H672 C678 0.930 . S
H673 C682 0.930 . S
H674 C687 0.929 . S
H675 C685 0.929 . S
H676 C680 0.929 . S
H677 C686 0.929 . S
C678 H672 0.930 . S
C678 C679 1.367 . S
C678 C686 1.378 . S
C679 C678 1.367 . S
C679 C687 1.433 . S
C680 H676 0.929 . S
C680 C682 1.378 . S
C680 C684 1.350 . S
C681 C684 1.463 . S
C681 C686 1.350 . S
C681 N689 1.427 . S
C682 H673 0.930 . S
C682 C680 1.378 . S
C682 C683 1.367 . S
C683 C682 1.367 . S
C683 C685 1.433 . S
C684 C680 1.350 . S
C684 C681 1.463 . S
C684 N688 1.427 . S
C685 H675 0.929 . S
C685 C683 1.433 . S
C685 N688 1.384 . S
C686 H677 0.929 . S
C686 C678 1.378 . S
C686 C681 1.350 . S
C687 H674 0.929 . S
C687 C679 1.433 . S
C687 N689 1.384 . S
N688 C684 1.427 . S
N688 C685 1.384 . S
N689 C681 1.427 . S
N689 C687 1.384 . S
H690 C696 0.930 . S
H691 C700 0.930 . S
H692 C705 0.929 . S
H693 C703 0.929 . S
H694 C698 0.929 . S
H695 C704 0.929 . S
C696 H690 0.930 . S
C696 C697 1.367 . S
C696 C704 1.378 . S
C697 C696 1.367 . S
C697 C705 1.433 . S
C698 H694 0.929 . S
C698 C700 1.378 . S
C698 C702 1.350 . S
C699 C702 1.463 . S
C699 C704 1.350 . S
C699 N707 1.427 . S
C700 H691 0.930 . S
C700 C698 1.378 . S
C700 C701 1.367 . S
C701 C700 1.367 . S
C701 C703 1.433 . S
C702 C698 1.350 . S
C702 C699 1.463 . S
C702 N706 1.427 . S
C703 H693 0.929 . S
C703 C701 1.433 . S
C703 N706 1.384 . S
C704 H695 0.929 . S
C704 C696 1.378 . S
C704 C699 1.350 . S
C705 H692 0.929 . S
C705 C697 1.433 . S
C705 N707 1.384 . S
N706 C702 1.427 . S
N706 C703 1.384 . S
N707 C699 1.427 . S
N707 C705 1.384 . S
H708 C714 0.889 1_554 S
H709 C718 0.930 . S
H710 C723 0.929 . S
H711 C721 0.929 . S
H712 C716 0.929 . S
H713 C722 0.929 . S
C714 H708 0.889 1_556 S
C714 C715 1.367 . S
C714 C722 1.378 . S
C715 C714 1.367 . S
C715 C723 1.433 . S
C716 H712 0.929 . S
C716 C718 1.378 . S
C716 C720 1.350 . S
C717 C720 1.463 . S
C717 C722 1.350 . S
C717 N725 1.427 . S
C718 H709 0.930 . S
C718 C716 1.378 . S
C718 C719 1.367 . S
C719 C718 1.367 . S
C719 C721 1.433 . S
C720 C716 1.350 . S
C720 C717 1.463 . S
C720 N724 1.427 . S
C721 H711 0.929 . S
C721 C719 1.433 . S
C721 N724 1.384 . S
C722 H713 0.929 . S
C722 C714 1.378 . S
C722 C717 1.350 . S
C723 H710 0.929 . S
C723 C715 1.433 . S
C723 N725 1.384 . S
N724 C720 1.427 . S
N724 C721 1.384 . S
N725 C717 1.427 . S
N725 C723 1.384 . S
H726 C732 0.930 . S
H727 C736 0.930 . S
H728 C741 0.929 . S
H729 C739 0.929 . S
H730 C734 0.929 . S
H731 C740 0.929 . S
C732 H726 0.930 . S
C732 C733 1.367 . S
C732 C740 1.378 . S
C733 C732 1.367 . S
C733 C741 1.433 . S
C734 H730 0.929 . S
C734 C736 1.378 . S
C734 C738 1.350 . S
C735 C738 1.463 . S
C735 C740 1.350 . S
C735 N743 1.427 . S
C736 H727 0.930 . S
C736 C734 1.378 . S
C736 C737 1.367 . S
C737 C736 1.367 . S
C737 C739 1.433 . S
C738 C734 1.350 . S
C738 C735 1.463 . S
C738 N742 1.427 . S
C739 H729 0.929 . S
C739 C737 1.433 . S
C739 N742 1.384 . S
C740 H731 0.929 . S
C740 C732 1.378 . S
C740 C735 1.350 . S
C741 H728 0.929 . S
C741 C733 1.433 . S
C741 N743 1.384 . S
N742 C738 1.427 . S
N742 C739 1.384 . S
N743 C735 1.427 . S
N743 C741 1.384 . S
H744 C750 0.930 . S
H745 C754 0.930 . S
H746 C759 0.929 . S
H747 C757 0.929 . S
H748 C752 0.929 . S
H749 C758 0.929 . S
C750 H744 0.930 . S
C750 C751 1.367 . S
C750 C758 1.378 . S
C751 C750 1.367 . S
C751 C759 1.433 . S
C752 H748 0.929 . S
C752 C754 1.378 . S
C752 C756 1.350 . S
C753 C756 1.463 . S
C753 C758 1.350 . S
C753 N761 1.427 . S
C754 H745 0.930 . S
C754 C752 1.378 . S
C754 C755 1.367 . S
C755 C754 1.367 . S
C755 C757 1.433 . S
C756 C752 1.350 . S
C756 C753 1.463 . S
C756 N760 1.427 . S
C757 H747 0.929 . S
C757 C755 1.433 . S
C757 N760 1.384 . S
C758 H749 0.929 . S
C758 C750 1.378 . S
C758 C753 1.350 . S
C759 H746 0.929 . S
C759 C751 1.433 . S
C759 N761 1.384 . S
N760 C756 1.427 . S
N760 C757 1.384 . S
N761 C753 1.427 . S
N761 C759 1.384 . S
H762 C768 0.930 . S
H763 C772 0.930 . S
H764 C777 0.929 . S
H765 C775 0.929 . S
H766 C770 0.929 . S
H767 C776 0.929 . S
C768 H762 0.930 . S
C768 C769 1.367 . S
C768 C776 1.378 . S
C769 C768 1.367 . S
C769 C777 1.433 . S
C770 H766 0.929 . S
C770 C772 1.378 . S
C770 C774 1.350 . S
C771 C774 1.463 . S
C771 C776 1.350 . S
C771 N779 1.427 . S
C772 H763 0.930 . S
C772 C770 1.378 . S
C772 C773 1.367 . S
C773 C772 1.367 . S
C773 C775 1.433 . S
C774 C770 1.350 . S
C774 C771 1.463 . S
C774 N778 1.427 . S
C775 H765 0.929 . S
C775 C773 1.433 . S
C775 N778 1.384 . S
C776 H767 0.929 . S
C776 C768 1.378 . S
C776 C771 1.350 . S
C777 H764 0.929 . S
C777 C769 1.433 . S
C777 N779 1.384 . S
N778 C774 1.427 . S
N778 C775 1.384 . S
N779 C771 1.427 . S
N779 C777 1.384 . S
H780 C786 0.930 . S
H781 C790 0.930 . S
H782 C795 0.929 . S
H783 C793 0.929 . S
H784 C788 0.929 . S
H785 C794 0.929 . S
C786 H780 0.930 . S
C786 C787 1.367 . S
C786 C794 1.378 . S
C787 C786 1.367 . S
C787 C795 1.433 . S
C788 H784 0.929 . S
C788 C790 1.378 . S
C788 C792 1.350 . S
C789 C792 1.463 . S
C789 C794 1.350 . S
C789 N797 1.427 . S
C790 H781 0.930 . S
C790 C788 1.378 . S
C790 C791 1.367 . S
C791 C790 1.367 . S
C791 C793 1.433 . S
C792 C788 1.350 . S
C792 C789 1.463 . S
C792 N796 1.427 . S
C793 H783 0.929 . S
C793 C791 1.433 . S
C793 N796 1.384 . S
C794 H785 0.929 . S
C794 C786 1.378 . S
C794 C789 1.350 . S
C795 H782 0.929 . S
C795 C787 1.433 . S
C795 N797 1.384 . S
N796 C792 1.427 . S
N796 C793 1.384 . S
N797 C789 1.427 . S
N797 C795 1.384 . S
H798 C804 0.930 . S
H799 C808 0.930 . S
H800 C813 0.929 . S
H801 C811 0.929 . S
H802 C806 0.929 . S
H803 C812 0.929 . S
C804 H798 0.930 . S
C804 C805 1.367 . S
C804 C812 1.378 . S
C805 C804 1.367 . S
C805 C813 1.433 . S
C806 H802 0.929 . S
C806 C808 1.378 . S
C806 C810 1.350 . S
C807 C810 1.463 . S
C807 C812 1.350 . S
C807 N815 1.427 . S
C808 H799 0.930 . S
C808 C806 1.378 . S
C808 C809 1.367 . S
C809 C808 1.367 . S
C809 C811 1.433 . S
C810 C806 1.350 . S
C810 C807 1.463 . S
C810 N814 1.427 . S
C811 H801 0.929 . S
C811 C809 1.433 . S
C811 N814 1.384 . S
C812 H803 0.929 . S
C812 C804 1.378 . S
C812 C807 1.350 . S
C813 H800 0.929 . S
C813 C805 1.433 . S
C813 N815 1.384 . S
N814 C810 1.427 . S
N814 C811 1.384 . S
N815 C807 1.427 . S
N815 C813 1.384 . S
H816 C822 0.930 . S
H817 C826 0.930 . S
H818 C831 0.929 . S
H819 C829 0.929 . S
H820 C824 0.929 . S
H821 C830 0.929 . S
C822 H816 0.930 . S
C822 C823 1.367 . S
C822 C830 1.378 . S
C823 C822 1.367 . S
C823 C831 1.433 . S
C824 H820 0.929 . S
C824 C826 1.378 . S
C824 C828 1.350 . S
C825 C828 1.463 . S
C825 C830 1.350 . S
C825 N833 1.427 . S
C826 H817 0.930 . S
C826 C824 1.378 . S
C826 C827 1.367 . S
C827 C826 1.367 . S
C827 C829 1.433 . S
C828 C824 1.350 . S
C828 C825 1.463 . S
C828 N832 1.427 . S
C829 H819 0.929 . S
C829 C827 1.433 . S
C829 N832 1.384 . S
C830 H821 0.929 . S
C830 C822 1.378 . S
C830 C825 1.350 . S
C831 H818 0.929 . S
C831 C823 1.433 . S
C831 N833 1.384 . S
N832 C828 1.427 . S
N832 C829 1.384 . S
N833 C825 1.427 . S
N833 C831 1.384 . S
H834 C840 0.930 . S
H835 C844 0.930 . S
H836 C849 0.929 . S
H837 C847 0.929 . S
H838 C842 0.929 . S
H839 C848 0.929 . S
C840 H834 0.930 . S
C840 C841 1.367 . S
C840 C848 1.378 . S
C841 C840 1.367 . S
C841 C849 1.433 . S
C842 H838 0.929 . S
C842 C844 1.378 . S
C842 C846 1.350 . S
C843 C846 1.463 . S
C843 C848 1.350 . S
C843 N851 1.427 . S
C844 H835 0.930 . S
C844 C842 1.378 . S
C844 C845 1.367 . S
C845 C844 1.367 . S
C845 C847 1.433 . S
C846 C842 1.350 . S
C846 C843 1.463 . S
C846 N850 1.427 . S
C847 H837 0.929 . S
C847 C845 1.433 . S
C847 N850 1.384 . S
C848 H839 0.929 . S
C848 C840 1.378 . S
C848 C843 1.350 . S
C849 H836 0.929 . S
C849 C841 1.433 . S
C849 N851 1.384 . S
N850 C846 1.427 . S
N850 C847 1.384 . S
N851 C843 1.427 . S
N851 C849 1.384 . S
H852 C858 0.930 . S
H853 C862 0.930 . S
H854 C867 0.929 . S
H855 C865 0.929 . S
H856 C860 0.929 . S
H857 C866 0.929 . S
C858 H852 0.930 . S
C858 C859 1.367 . S
C858 C866 1.378 . S
C859 C858 1.367 . S
C859 C867 1.433 . S
C860 H856 0.929 . S
C860 C862 1.378 . S
C860 C864 1.350 . S
C861 C864 1.463 . S
C861 C866 1.350 . S
C861 N869 1.427 . S
C862 H853 0.930 . S
C862 C860 1.378 . S
C862 C863 1.367 . S
C863 C862 1.367 . S
C863 C865 1.433 . S
C864 C860 1.350 . S
C864 C861 1.463 . S
C864 N868 1.427 . S
C865 H855 0.929 . S
C865 C863 1.433 . S
C865 N868 1.384 . S
C866 H857 0.929 . S
C866 C858 1.378 . S
C866 C861 1.350 . S
C867 H854 0.929 . S
C867 C859 1.433 . S
C867 N869 1.384 . S
N868 C864 1.427 . S
N868 C865 1.384 . S
N869 C861 1.427 . S
N869 C867 1.384 . S
H870 C876 0.930 . S
H871 C880 0.930 . S
H872 C885 0.929 . S
H873 C883 0.929 . S
H874 C878 0.929 . S
H875 C884 0.929 . S
C876 H870 0.930 . S
C876 C877 1.367 . S
C876 C884 1.378 . S
C877 C876 1.367 . S
C877 C885 1.433 . S
C878 H874 0.929 . S
C878 C880 1.378 . S
C878 C882 1.350 . S
C879 C882 1.463 . S
C879 C884 1.350 . S
C879 N887 1.427 . S
C880 H871 0.930 . S
C880 C878 1.378 . S
C880 C881 1.367 . S
C881 C880 1.367 . S
C881 C883 1.433 . S
C882 C878 1.350 . S
C882 C879 1.463 . S
C882 N886 1.427 . S
C883 H873 0.929 . S
C883 C881 1.433 . S
C883 N886 1.384 . S
C884 H875 0.929 . S
C884 C876 1.378 . S
C884 C879 1.350 . S
C885 H872 0.929 . S
C885 C877 1.433 . S
C885 N887 1.384 . S
N886 C882 1.427 . S
N886 C883 1.384 . S
N887 C879 1.427 . S
N887 C885 1.384 . S
H888 C894 0.930 . S
H889 C898 0.930 . S
H890 C903 0.929 . S
H891 C901 0.929 . S
H892 C896 0.929 . S
H893 C902 0.929 . S
C894 H888 0.930 . S
C894 C895 1.367 . S
C894 C902 1.378 . S
C895 C894 1.367 . S
C895 C903 1.433 . S
C896 H892 0.929 . S
C896 C898 1.378 . S
C896 C900 1.350 . S
C897 C900 1.463 . S
C897 C902 1.350 . S
C897 N905 1.427 . S
C898 H889 0.930 . S
C898 C896 1.378 . S
C898 C899 1.367 . S
C899 C898 1.367 . S
C899 C901 1.433 . S
C900 C896 1.350 . S
C900 C897 1.463 . S
C900 N904 1.427 . S
C901 H891 0.929 . S
C901 C899 1.433 . S
C901 N904 1.384 . S
C902 H893 0.929 . S
C902 C894 1.378 . S
C902 C897 1.350 . S
C903 H890 0.929 . S
C903 C895 1.433 . S
C903 N905 1.384 . S
N904 C900 1.427 . S
N904 C901 1.384 . S
N905 C897 1.427 . S
N905 C903 1.384 . S
H906 C912 0.930 . S
H907 C916 0.930 . S
H908 C921 0.929 . S
H909 C919 0.929 . S
H910 C914 0.929 . S
H911 C920 0.929 . S
C912 H906 0.930 . S
C912 C913 1.367 . S
C912 C920 1.378 . S
C913 C912 1.367 . S
C913 C921 1.433 . S
C914 H910 0.929 . S
C914 C916 1.378 . S
C914 C918 1.350 . S
C915 C918 1.463 . S
C915 C920 1.350 . S
C915 N923 1.427 . S
C916 H907 0.930 . S
C916 C914 1.378 . S
C916 C917 1.367 . S
C917 C916 1.367 . S
C917 C919 1.433 . S
C918 C914 1.350 . S
C918 C915 1.463 . S
C918 N922 1.427 . S
C919 H909 0.929 . S
C919 C917 1.433 . S
C919 N922 1.384 . S
C920 H911 0.929 . S
C920 C912 1.378 . S
C920 C915 1.350 . S
C921 H908 0.929 . S
C921 C913 1.433 . S
C921 N923 1.384 . S
N922 C918 1.427 . S
N922 C919 1.384 . S
N923 C915 1.427 . S
N923 C921 1.384 . S
H924 C930 0.930 . S
H925 C934 0.930 . S
H926 C939 0.929 . S
H927 C937 0.929 . S
H928 C932 0.929 . S
H929 C938 0.929 . S
C930 H924 0.930 . S
C930 C931 1.367 . S
C930 C938 1.378 . S
C931 C930 1.367 . S
C931 C939 1.433 . S
C932 H928 0.929 . S
C932 C934 1.378 . S
C932 C936 1.350 . S
C933 C936 1.463 . S
C933 C938 1.350 . S
C933 N941 1.427 . S
C934 H925 0.930 . S
C934 C932 1.378 . S
C934 C935 1.367 . S
C935 C934 1.367 . S
C935 C937 1.433 . S
C936 C932 1.350 . S
C936 C933 1.463 . S
C936 N940 1.427 . S
C937 H927 0.929 . S
C937 C935 1.433 . S
C937 N940 1.384 . S
C938 H929 0.929 . S
C938 C930 1.378 . S
C938 C933 1.350 . S
C939 H926 0.929 . S
C939 C931 1.433 . S
C939 N941 1.384 . S
N940 C936 1.427 . S
N940 C937 1.384 . S
N941 C933 1.427 . S
N941 C939 1.384 . S
H942 C948 0.930 . S
H943 C952 0.930 . S
H944 C957 0.929 . S
H945 C955 0.929 . S
H946 C950 0.929 . S
H947 C956 0.929 . S
C948 H942 0.930 . S
C948 C949 1.367 . S
C948 C956 1.378 . S
C949 C948 1.367 . S
C949 C957 1.433 . S
C950 H946 0.929 . S
C950 C952 1.378 . S
C950 C954 1.350 . S
C951 C954 1.463 . S
C951 C956 1.350 . S
C951 N959 1.427 . S
C952 H943 0.930 . S
C952 C950 1.378 . S
C952 C953 1.367 . S
C953 C952 1.367 . S
C953 C955 1.433 . S
C954 C950 1.350 . S
C954 C951 1.463 . S
C954 N958 1.427 . S
C955 H945 0.929 . S
C955 C953 1.433 . S
C955 N958 1.384 . S
C956 H947 0.929 . S
C956 C948 1.378 . S
C956 C951 1.350 . S
C957 H944 0.929 . S
C957 C949 1.433 . S
C957 N959 1.384 . S
N958 C954 1.427 . S
N958 C955 1.384 . S
N959 C951 1.427 . S
N959 C957 1.384 . S
H960 C966 0.930 . S
H961 C970 0.930 . S
H962 C975 0.929 . S
H963 C973 0.929 . S
H964 C968 0.929 . S
H965 C974 0.929 . S
C966 H960 0.930 . S
C966 C967 1.367 . S
C966 C974 1.378 . S
C967 C966 1.367 . S
C967 C975 1.433 . S
C968 H964 0.929 . S
C968 C970 1.378 . S
C968 C972 1.350 . S
C969 C972 1.463 . S
C969 C974 1.350 . S
C969 N977 1.427 . S
C970 H961 0.930 . S
C970 C968 1.378 . S
C970 C971 1.367 . S
C971 C970 1.367 . S
C971 C973 1.433 . S
C972 C968 1.350 . S
C972 C969 1.463 . S
C972 N976 1.427 . S
C973 H963 0.929 . S
C973 C971 1.433 . S
C973 N976 1.384 . S
C974 H965 0.929 . S
C974 C966 1.378 . S
C974 C969 1.350 . S
C975 H962 0.929 . S
C975 C967 1.433 . S
C975 N977 1.384 . S
N976 C972 1.427 . S
N976 C973 1.384 . S
N977 C969 1.427 . S
N977 C975 1.384 . S
H978 C984 0.930 . S
H979 C988 0.930 . S
H980 C993 0.929 . S
H981 C991 0.929 . S
H982 C986 0.929 . S
H983 C992 0.929 . S
C984 H978 0.930 . S
C984 C985 1.367 . S
C984 C992 1.378 . S
C985 C984 1.367 . S
C985 C993 1.433 . S
C986 H982 0.929 . S
C986 C988 1.378 . S
C986 C990 1.350 . S
C987 C990 1.463 . S
C987 C992 1.350 . S
C987 N995 1.427 . S
C988 H979 0.930 . S
C988 C986 1.378 . S
C988 C989 1.367 . S
C989 C988 1.367 . S
C989 C991 1.433 . S
C990 C986 1.350 . S
C990 C987 1.463 . S
C990 N994 1.427 . S
C991 H981 0.929 . S
C991 C989 1.433 . S
C991 N994 1.384 . S
C992 H983 0.929 . S
C992 C984 1.378 . S
C992 C987 1.350 . S
C993 H980 0.929 . S
C993 C985 1.433 . S
C993 N995 1.384 . S
N994 C990 1.427 . S
N994 C991 1.384 . S
N995 C987 1.427 . S
N995 C993 1.384 . S
H996 C1002 0.930 . S
H997 C1006 0.930 . S
H998 C1011 0.929 . S
H999 C1009 0.929 . S
H1000 C1004 0.929 . S
H1001 C1010 0.929 . S
C1002 H996 0.930 . S
C1002 C1003 1.367 . S
C1002 C1010 1.378 . S
C1003 C1002 1.367 . S
C1003 C1011 1.433 . S
C1004 H1000 0.929 . S
C1004 C1006 1.378 . S
C1004 C1008 1.350 . S
C1005 C1008 1.463 . S
C1005 C1010 1.350 . S
C1005 N1013 1.427 . S
C1006 H997 0.930 . S
C1006 C1004 1.378 . S
C1006 C1007 1.367 . S
C1007 C1006 1.367 . S
C1007 C1009 1.433 . S
C1008 C1004 1.350 . S
C1008 C1005 1.463 . S
C1008 N1012 1.427 . S
C1009 H999 0.929 . S
C1009 C1007 1.433 . S
C1009 N1012 1.384 . S
C1010 H1001 0.929 . S
C1010 C1002 1.378 . S
C1010 C1005 1.350 . S
C1011 H998 0.929 . S
C1011 C1003 1.433 . S
C1011 N1013 1.384 . S
N1012 C1008 1.427 . S
N1012 C1009 1.384 . S
N1013 C1005 1.427 . S
N1013 C1011 1.384 . S
H1014 C1020 0.930 . S
H1015 C1024 0.930 . S
H1016 C1029 0.929 . S
H1017 C1027 0.929 . S
H1018 C1022 0.929 . S
H1019 C1028 0.929 . S
C1020 H1014 0.930 . S
C1020 C1021 1.367 . S
C1020 C1028 1.378 . S
C1021 C1020 1.367 . S
C1021 C1029 1.433 . S
C1022 H1018 0.929 . S
C1022 C1024 1.378 . S
C1022 C1026 1.350 . S
C1023 C1026 1.463 . S
C1023 C1028 1.350 . S
C1023 N1031 1.427 . S
C1024 H1015 0.930 . S
C1024 C1022 1.378 . S
C1024 C1025 1.367 . S
C1025 C1024 1.367 . S
C1025 C1027 1.433 . S
C1026 C1022 1.350 . S
C1026 C1023 1.463 . S
C1026 N1030 1.427 . S
C1027 H1017 0.929 . S
C1027 C1025 1.433 . S
C1027 N1030 1.384 . S
C1028 H1019 0.929 . S
C1028 C1020 1.378 . S
C1028 C1023 1.350 . S
C1029 H1016 0.929 . S
C1029 C1021 1.433 . S
C1029 N1031 1.384 . S
N1030 C1026 1.427 . S
N1030 C1027 1.384 . S
N1031 C1023 1.427 . S
N1031 C1029 1.384 . S
H1032 C1038 0.930 . S
H1033 C1042 0.930 . S
H1034 C1047 0.929 . S
H1035 C1045 0.929 . S
H1036 C1040 0.929 . S
H1037 C1046 0.929 . S
C1038 H1032 0.930 . S
C1038 C1039 1.367 . S
C1038 C1046 1.378 . S
C1039 C1038 1.367 . S
C1039 C1047 1.433 . S
C1040 H1036 0.929 . S
C1040 C1042 1.378 . S
C1040 C1044 1.350 . S
C1041 C1044 1.463 . S
C1041 C1046 1.350 . S
C1041 N1049 1.427 . S
C1042 H1033 0.930 . S
C1042 C1040 1.378 . S
C1042 C1043 1.367 . S
C1043 C1042 1.367 . S
C1043 C1045 1.433 . S
C1044 C1040 1.350 . S
C1044 C1041 1.463 . S
C1044 N1048 1.427 . S
C1045 H1035 0.929 . S
C1045 C1043 1.433 . S
C1045 N1048 1.384 . S
C1046 H1037 0.929 . S
C1046 C1038 1.378 . S
C1046 C1041 1.350 . S
C1047 H1034 0.929 . S
C1047 C1039 1.433 . S
C1047 N1049 1.384 . S
N1048 C1044 1.427 . S
N1048 C1045 1.384 . S
N1049 C1041 1.427 . S
N1049 C1047 1.384 . S
H1050 C1056 0.930 . S
H1051 C1060 0.930 . S
H1052 C1065 0.929 . S
H1053 C1063 0.929 . S
H1054 C1058 0.929 . S
H1055 C1064 0.929 . S
C1056 H1050 0.930 . S
C1056 C1057 1.367 . S
C1056 C1064 1.378 . S
C1057 C1056 1.367 . S
C1057 C1065 1.433 . S
C1058 H1054 0.929 . S
C1058 C1060 1.378 . S
C1058 C1062 1.350 . S
C1059 C1062 1.463 . S
C1059 C1064 1.350 . S
C1059 N1067 1.427 . S
C1060 H1051 0.930 . S
C1060 C1058 1.378 . S
C1060 C1061 1.367 . S
C1061 C1060 1.367 . S
C1061 C1063 1.433 . S
C1062 C1058 1.350 . S
C1062 C1059 1.463 . S
C1062 N1066 1.427 . S
C1063 H1053 0.929 . S
C1063 C1061 1.433 . S
C1063 N1066 1.384 . S
C1064 H1055 0.929 . S
C1064 C1056 1.378 . S
C1064 C1059 1.350 . S
C1065 H1052 0.929 . S
C1065 C1057 1.433 . S
C1065 N1067 1.384 . S
N1066 C1062 1.427 . S
N1066 C1063 1.384 . S
N1067 C1059 1.427 . S
N1067 C1065 1.384 . S
H1068 C1074 0.930 . S
H1069 C1078 0.930 . S
H1070 C1083 0.929 . S
H1071 C1081 0.929 . S
H1072 C1076 0.929 . S
H1073 C1082 0.929 . S
C1074 H1068 0.930 . S
C1074 C1075 1.367 . S
C1074 C1082 1.378 . S
C1075 C1074 1.367 . S
C1075 C1083 1.433 . S
C1076 H1072 0.929 . S
C1076 C1078 1.378 . S
C1076 C1080 1.350 . S
C1077 C1080 1.463 . S
C1077 C1082 1.350 . S
C1077 N1085 1.427 . S
C1078 H1069 0.930 . S
C1078 C1076 1.378 . S
C1078 C1079 1.367 . S
C1079 C1078 1.367 . S
C1079 C1081 1.433 . S
C1080 C1076 1.350 . S
C1080 C1077 1.463 . S
C1080 N1084 1.427 . S
C1081 H1071 0.929 . S
C1081 C1079 1.433 . S
C1081 N1084 1.384 . S
C1082 H1073 0.929 . S
C1082 C1074 1.378 . S
C1082 C1077 1.350 . S
C1083 H1070 0.929 . S
C1083 C1075 1.433 . S
C1083 N1085 1.384 . S
N1084 C1080 1.427 . S
N1084 C1081 1.384 . S
N1085 C1077 1.427 . S
N1085 C1083 1.384 . S
H1086 C1092 0.930 . S
H1087 C1096 0.938 . S
H1088 C1101 0.929 . S
H1089 C1099 0.929 . S
H1090 C1094 0.929 . S
H1091 C1100 0.929 . S
C1092 H1086 0.930 . S
C1092 C1093 1.367 . S
C1092 C1100 1.378 . S
C1093 C1092 1.367 . S
C1093 C1101 1.433 . S
C1094 H1090 0.929 . S
C1094 C1096 1.378 . S
C1094 C1098 1.350 . S
C1095 C1098 1.463 . S
C1095 C1100 1.350 . S
C1095 N1103 1.427 . S
C1096 H1087 0.938 . S
C1096 C1094 1.378 . S
C1096 C1097 1.367 . S
C1097 C1096 1.367 . S
C1097 C1099 1.433 . S
C1098 C1094 1.350 . S
C1098 C1095 1.463 . S
C1098 N1102 1.427 . S
C1099 H1089 0.929 . S
C1099 C1097 1.433 . S
C1099 N1102 1.384 . S
C1100 H1091 0.929 . S
C1100 C1092 1.378 . S
C1100 C1095 1.350 . S
C1101 H1088 0.929 . S
C1101 C1093 1.433 . S
C1101 N1103 1.384 . S
N1102 C1098 1.427 . S
N1102 C1099 1.384 . S
N1103 C1095 1.427 . S
N1103 C1101 1.384 . S
H1104 C1110 0.930 . S
H1105 C1114 0.930 . S
H1106 C1119 0.929 . S
H1107 C1117 0.929 . S
H1108 C1112 0.929 . S
H1109 C1118 0.929 . S
C1110 H1104 0.930 . S
C1110 C1111 1.367 . S
C1110 C1118 1.378 . S
C1111 C1110 1.367 . S
C1111 C1119 1.433 . S
C1112 H1108 0.929 . S
C1112 C1114 1.378 . S
C1112 C1116 1.350 . S
C1113 C1116 1.463 . S
C1113 C1118 1.350 . S
C1113 N1121 1.427 . S
C1114 H1105 0.930 . S
C1114 C1112 1.378 . S
C1114 C1115 1.367 . S
C1115 C1114 1.367 . S
C1115 C1117 1.433 . S
C1116 C1112 1.350 . S
C1116 C1113 1.463 . S
C1116 N1120 1.427 . S
C1117 H1107 0.929 . S
C1117 C1115 1.433 . S
C1117 N1120 1.384 . S
C1118 H1109 0.929 . S
C1118 C1110 1.378 . S
C1118 C1113 1.350 . S
C1119 H1106 0.929 . S
C1119 C1111 1.433 . S
C1119 N1121 1.384 . S
N1120 C1116 1.427 . S
N1120 C1117 1.384 . S
N1121 C1113 1.427 . S
N1121 C1119 1.384 . S
H1122 C1128 0.930 . S
H1123 C1132 0.930 . S
H1124 C1137 0.929 1_545 S
H1125 C1135 0.929 . S
H1126 C1130 0.929 . S
H1127 C1136 0.929 . S
C1128 H1122 0.930 . S
C1128 C1129 1.367 . S
C1128 C1136 1.378 . S
C1129 C1128 1.367 . S
C1129 C1137 1.433 . S
C1130 H1126 0.929 . S
C1130 C1132 1.378 . S
C1130 C1134 1.350 . S
C1131 C1134 1.463 . S
C1131 C1136 1.350 . S
C1131 N1139 1.427 . S
C1132 H1123 0.930 . S
C1132 C1130 1.378 . S
C1132 C1133 1.367 . S
C1133 C1132 1.367 . S
C1133 C1135 1.433 . S
C1134 C1130 1.350 . S
C1134 C1131 1.463 . S
C1134 N1138 1.427 . S
C1135 H1125 0.929 . S
C1135 C1133 1.433 . S
C1135 N1138 1.384 . S
C1136 H1127 0.929 . S
C1136 C1128 1.378 . S
C1136 C1131 1.350 . S
C1137 H1124 0.929 1_565 S
C1137 C1129 1.433 . S
C1137 N1139 1.384 . S
N1138 C1134 1.427 . S
N1138 C1135 1.384 . S
N1139 C1131 1.427 . S
N1139 C1137 1.384 . S
H1140 C1146 0.930 . S
H1141 C1150 0.930 . S
H1142 C1155 0.929 . S
H1143 C1153 0.929 . S
H1144 C1148 0.929 . S
H1145 C1154 0.929 . S
C1146 H1140 0.930 . S
C1146 C1147 1.367 . S
C1146 C1154 1.378 . S
C1147 C1146 1.367 . S
C1147 C1155 1.433 . S
C1148 H1144 0.929 . S
C1148 C1150 1.378 . S
C1148 C1152 1.350 . S
C1149 C1152 1.463 . S
C1149 C1154 1.350 . S
C1149 N1157 1.427 . S
C1150 H1141 0.930 . S
C1150 C1148 1.378 . S
C1150 C1151 1.367 . S
C1151 C1150 1.367 . S
C1151 C1153 1.433 . S
C1152 C1148 1.350 . S
C1152 C1149 1.463 . S
C1152 N1156 1.427 . S
C1153 H1143 0.929 . S
C1153 C1151 1.433 . S
C1153 N1156 1.384 . S
C1154 H1145 0.929 . S
C1154 C1146 1.378 . S
C1154 C1149 1.350 . S
C1155 H1142 0.929 . S
C1155 C1147 1.433 . S
C1155 N1157 1.384 . S
N1156 C1152 1.427 . S
N1156 C1153 1.384 . S
N1157 C1149 1.427 . S
N1157 C1155 1.384 . S
H1158 C1164 0.930 1_565 S
H1159 C1168 0.930 . S
H1160 C1173 0.929 . S
H1161 C1171 0.929 . S
H1162 C1166 0.929 . S
H1163 C1172 0.929 1_554 S
C1164 H1158 0.930 1_545 S
C1164 C1165 1.367 . S
C1164 C1172 1.378 . S
C1165 C1164 1.367 . S
C1165 C1173 1.433 . S
C1166 H1162 0.929 . S
C1166 C1168 1.378 . S
C1166 C1170 1.350 . S
C1167 C1170 1.458 . S
C1167 C1172 1.351 1_554 S
C1167 N1175 1.431 1_554 S
C1168 H1159 0.930 . S
C1168 C1166 1.378 . S
C1168 C1169 1.367 . S
C1169 C1168 1.367 . S
C1169 C1171 1.433 . S
C1170 C1166 1.350 . S
C1170 C1167 1.458 . S
C1170 N1174 1.427 . S
C1171 H1161 0.929 . S
C1171 C1169 1.433 . S
C1171 N1174 1.384 . S
C1172 H1163 0.929 1_556 S
C1172 C1164 1.378 . S
C1172 C1167 1.351 1_556 S
C1173 H1160 0.929 . S
C1173 C1165 1.433 . S
C1173 N1175 1.384 . S
N1174 C1170 1.427 . S
N1174 C1171 1.384 . S
N1175 C1167 1.431 1_556 S
N1175 C1173 1.384 . S
H1176 C1182 0.930 . S
H1177 C1186 0.930 . S
H1178 C1191 0.929 . S
H1179 C1189 0.929 . S
H1180 C1184 0.929 . S
H1181 C1190 0.929 . S
C1182 H1176 0.930 . S
C1182 C1183 1.367 . S
C1182 C1190 1.378 . S
C1183 C1182 1.367 . S
C1183 C1191 1.433 . S
C1184 H1180 0.929 . S
C1184 C1186 1.378 . S
C1184 C1188 1.350 . S
C1185 C1188 1.463 . S
C1185 C1190 1.350 . S
C1185 N1193 1.427 . S
C1186 H1177 0.930 . S
C1186 C1184 1.378 . S
C1186 C1187 1.367 . S
C1187 C1186 1.367 . S
C1187 C1189 1.433 . S
C1188 C1184 1.350 . S
C1188 C1185 1.463 . S
C1188 N1192 1.427 . S
C1189 H1179 0.929 . S
C1189 C1187 1.433 . S
C1189 N1192 1.384 . S
C1190 H1181 0.929 . S
C1190 C1182 1.378 . S
C1190 C1185 1.350 . S
C1191 H1178 0.929 . S
C1191 C1183 1.433 . S
C1191 N1193 1.384 . S
N1192 C1188 1.427 . S
N1192 C1189 1.384 . S
N1193 C1185 1.427 . S
N1193 C1191 1.384 . S
H1194 C1200 0.930 . S
H1195 C1204 0.930 . S
H1196 C1209 0.929 1_545 S
H1197 C1207 0.929 . S
H1198 C1202 0.929 . S
H1199 C1208 0.929 . S
C1200 H1194 0.930 . S
C1200 C1201 1.367 . S
C1200 C1208 1.378 . S
C1201 C1200 1.367 . S
C1201 C1209 1.433 . S
C1202 H1198 0.929 . S
C1202 C1204 1.378 . S
C1202 C1206 1.350 . S
C1203 C1206 1.463 . S
C1203 C1208 1.350 . S
C1203 N1211 1.427 . S
C1204 H1195 0.930 . S
C1204 C1202 1.378 . S
C1204 C1205 1.367 . S
C1205 C1204 1.367 . S
C1205 C1207 1.433 . S
C1206 C1202 1.350 . S
C1206 C1203 1.463 . S
C1206 N1210 1.427 . S
C1207 H1197 0.929 . S
C1207 C1205 1.433 . S
C1207 N1210 1.384 . S
C1208 H1199 0.929 . S
C1208 C1200 1.378 . S
C1208 C1203 1.350 . S
C1209 H1196 0.929 1_565 S
C1209 C1201 1.433 . S
C1209 N1211 1.384 . S
N1210 C1206 1.427 . S
N1210 C1207 1.384 . S
N1211 C1203 1.427 . S
N1211 C1209 1.384 . S
H1212 C1218 0.930 . S
H1213 C1222 0.930 . S
H1214 C1227 0.929 . S
H1215 C1225 0.929 . S
H1216 C1220 0.929 . S
H1217 C1226 0.929 . S
C1218 H1212 0.930 . S
C1218 C1219 1.367 . S
C1218 C1226 1.378 . S
C1219 C1218 1.367 . S
C1219 C1227 1.433 . S
C1220 H1216 0.929 . S
C1220 C1222 1.378 . S
C1220 C1224 1.350 . S
C1221 C1224 1.463 . S
C1221 C1226 1.350 . S
C1221 N1229 1.427 . S
C1222 H1213 0.930 . S
C1222 C1220 1.378 . S
C1222 C1223 1.367 . S
C1223 C1222 1.367 . S
C1223 C1225 1.433 . S
C1224 C1220 1.350 . S
C1224 C1221 1.463 . S
C1224 N1228 1.427 . S
C1225 H1215 0.929 . S
C1225 C1223 1.433 . S
C1225 N1228 1.384 . S
C1226 H1217 0.929 . S
C1226 C1218 1.378 . S
C1226 C1221 1.350 . S
C1227 H1214 0.929 . S
C1227 C1219 1.433 . S
C1227 N1229 1.384 . S
N1228 C1224 1.427 . S
N1228 C1225 1.384 . S
N1229 C1221 1.427 . S
N1229 C1227 1.384 . S
H1230 C1236 0.930 1_565 S
H1231 C1240 0.930 . S
H1232 C1245 0.929 . S
H1233 C1243 0.929 . S
H1234 C1238 0.929 . S
H1235 C1244 0.929 1_556 S
C1236 H1230 0.930 1_545 S
C1236 C1237 1.367 . S
C1236 C1244 1.378 . S
C1237 C1236 1.367 . S
C1237 C1245 1.433 . S
C1238 H1234 0.929 . S
C1238 C1240 1.378 . S
C1238 C1242 1.350 . S
C1239 C1242 1.466 1_554 S
C1239 C1244 1.349 . S
C1239 N1247 1.424 . S
C1240 H1231 0.930 . S
C1240 C1238 1.378 . S
C1240 C1241 1.367 . S
C1241 C1240 1.367 . S
C1241 C1243 1.433 . S
C1242 C1238 1.350 . S
C1242 C1239 1.466 1_556 S
C1242 N1246 1.427 . S
C1243 H1233 0.929 . S
C1243 C1241 1.433 . S
C1243 N1246 1.384 . S
C1244 H1235 0.929 1_554 S
C1244 C1236 1.378 . S
C1244 C1239 1.349 . S
C1245 H1232 0.929 . S
C1245 C1237 1.433 . S
C1245 N1247 1.384 . S
N1246 C1242 1.427 . S
N1246 C1243 1.384 . S
N1247 C1239 1.424 . S
N1247 C1245 1.384 . S
H1248 C1254 0.930 . S
H1249 C1258 0.930 . S
H1250 C1263 0.929 . S
H1251 C1261 0.929 . S
H1252 C1256 0.929 . S
H1253 C1262 0.929 . S
C1254 H1248 0.930 . S
C1254 C1255 1.367 . S
C1254 C1262 1.378 . S
C1255 C1254 1.367 . S
C1255 C1263 1.433 . S
C1256 H1252 0.929 . S
C1256 C1258 1.378 . S
C1256 C1260 1.350 . S
C1257 C1260 1.463 . S
C1257 C1262 1.350 . S
C1257 N1265 1.427 . S
C1258 H1249 0.930 . S
C1258 C1256 1.378 . S
C1258 C1259 1.367 . S
C1259 C1258 1.367 . S
C1259 C1261 1.433 . S
C1260 C1256 1.350 . S
C1260 C1257 1.463 . S
C1260 N1264 1.427 . S
C1261 H1251 0.929 . S
C1261 C1259 1.433 . S
C1261 N1264 1.384 . S
C1262 H1253 0.929 . S
C1262 C1254 1.378 . S
C1262 C1257 1.350 . S
C1263 H1250 0.929 . S
C1263 C1255 1.433 . S
C1263 N1265 1.384 . S
N1264 C1260 1.427 . S
N1264 C1261 1.384 . S
N1265 C1257 1.427 . S
N1265 C1263 1.384 . S
H1266 C1272 0.930 . S
H1267 C1276 0.930 . S
H1268 C1281 0.929 . S
H1269 C1279 0.929 . S
H1270 C1274 0.929 . S
H1271 C1280 0.929 . S
C1272 H1266 0.930 . S
C1272 C1273 1.367 . S
C1272 C1280 1.378 . S
C1273 C1272 1.367 . S
C1273 C1281 1.433 . S
C1274 H1270 0.929 . S
C1274 C1276 1.378 . S
C1274 C1278 1.350 . S
C1275 C1278 1.451 1_565 S
C1275 C1280 1.357 . S
C1275 N1283 1.431 . S
C1276 H1267 0.930 . S
C1276 C1274 1.378 . S
C1276 C1277 1.367 . S
C1277 C1276 1.367 . S
C1277 C1279 1.433 . S
C1278 C1274 1.350 . S
C1278 C1275 1.451 1_545 S
C1278 N1282 1.427 . S
C1279 H1269 0.929 . S
C1279 C1277 1.433 . S
C1279 N1282 1.384 . S
C1280 H1271 0.929 . S
C1280 C1272 1.378 . S
C1280 C1275 1.357 . S
C1281 H1268 0.929 . S
C1281 C1273 1.433 . S
C1281 N1283 1.384 . S
N1282 C1278 1.427 . S
N1282 C1279 1.384 . S
N1283 C1275 1.431 . S
N1283 C1281 1.384 . S
H1284 C1290 0.930 . S
H1285 C1294 0.930 . S
H1286 C1299 0.929 . S
H1287 C1297 0.929 . S
H1288 C1292 0.929 . S
H1289 C1298 0.929 . S
C1290 H1284 0.930 . S
C1290 C1291 1.367 . S
C1290 C1298 1.378 . S
C1291 C1290 1.367 . S
C1291 C1299 1.433 . S
C1292 H1288 0.929 . S
C1292 C1294 1.378 . S
C1292 C1296 1.350 . S
C1293 C1296 1.463 . S
C1293 C1298 1.350 . S
C1293 N1301 1.427 . S
C1294 H1285 0.930 . S
C1294 C1292 1.378 . S
C1294 C1295 1.367 . S
C1295 C1294 1.367 . S
C1295 C1297 1.433 . S
C1296 C1292 1.350 . S
C1296 C1293 1.463 . S
C1296 N1300 1.427 . S
C1297 H1287 0.929 . S
C1297 C1295 1.433 . S
C1297 N1300 1.384 . S
C1298 H1289 0.929 . S
C1298 C1290 1.378 . S
C1298 C1293 1.350 . S
C1299 H1286 0.929 . S
C1299 C1291 1.433 . S
C1299 N1301 1.384 . S
N1300 C1296 1.427 . S
N1300 C1297 1.384 . S
N1301 C1293 1.427 . S
N1301 C1299 1.384 . S
H1302 C1308 0.930 . S
H1303 C1312 0.930 . S
H1304 C1317 0.929 . S
H1305 C1315 0.929 . S
H1306 C1310 0.929 . S
H1307 C1316 0.929 1_565 S
C1308 H1302 0.930 . S
C1308 C1309 1.367 . S
C1308 C1316 1.378 . S
C1309 C1308 1.367 . S
C1309 C1317 1.433 . S
C1310 H1306 0.929 . S
C1310 C1312 1.378 . S
C1310 C1314 1.350 . S
C1311 C1314 1.458 . S
C1311 C1316 1.351 1_565 S
C1311 N1319 1.431 1_565 S
C1312 H1303 0.930 . S
C1312 C1310 1.378 . S
C1312 C1313 1.367 . S
C1313 C1312 1.367 . S
C1313 C1315 1.433 . S
C1314 C1310 1.350 . S
C1314 C1311 1.458 . S
C1314 N1318 1.427 . S
C1315 H1305 0.929 . S
C1315 C1313 1.433 . S
C1315 N1318 1.384 . S
C1316 H1307 0.929 1_545 S
C1316 C1308 1.378 . S
C1316 C1311 1.351 1_545 S
C1317 H1304 0.929 . S
C1317 C1309 1.433 . S
C1317 N1319 1.384 . S
N1318 C1314 1.427 . S
N1318 C1315 1.384 . S
N1319 C1311 1.431 1_545 S
N1319 C1317 1.384 . S
H1320 C1326 0.930 . S
H1321 C1330 0.930 . S
H1322 C1335 0.929 . S
H1323 C1333 0.929 . S
H1324 C1328 0.929 . S
H1325 C1334 0.929 . S
C1326 H1320 0.930 . S
C1326 C1327 1.367 . S
C1326 C1334 1.378 . S
C1327 C1326 1.367 . S
C1327 C1335 1.433 . S
C1328 H1324 0.929 . S
C1328 C1330 1.378 . S
C1328 C1332 1.350 . S
C1329 C1332 1.463 . S
C1329 C1334 1.350 . S
C1329 N1337 1.427 . S
C1330 H1321 0.930 . S
C1330 C1328 1.378 . S
C1330 C1331 1.367 . S
C1331 C1330 1.367 . S
C1331 C1333 1.433 . S
C1332 C1328 1.350 . S
C1332 C1329 1.463 . S
C1332 N1336 1.427 . S
C1333 H1323 0.929 . S
C1333 C1331 1.433 . S
C1333 N1336 1.384 . S
C1334 H1325 0.929 . S
C1334 C1326 1.378 . S
C1334 C1329 1.350 . S
C1335 H1322 0.929 . S
C1335 C1327 1.433 . S
C1335 N1337 1.384 . S
N1336 C1332 1.427 . S
N1336 C1333 1.384 . S
N1337 C1329 1.427 . S
N1337 C1335 1.384 . S
H1338 C1344 0.930 . S
H1339 C1348 0.930 . S
H1340 C1353 0.929 . S
H1341 C1351 0.929 . S
H1342 C1346 0.929 . S
H1343 C1352 0.929 . S
C1344 H1338 0.930 . S
C1344 C1345 1.367 . S
C1344 C1352 1.378 . S
C1345 C1344 1.367 . S
C1345 C1353 1.433 . S
C1346 H1342 0.929 . S
C1346 C1348 1.378 . S
C1346 C1350 1.350 . S
C1347 C1350 1.442 1_565 S
C1347 C1352 1.368 . S
C1347 N1355 1.429 . S
C1348 H1339 0.930 . S
C1348 C1346 1.378 . S
C1348 C1349 1.367 . S
C1349 C1348 1.367 . S
C1349 C1351 1.433 . S
C1350 C1346 1.350 . S
C1350 C1347 1.442 1_545 S
C1350 N1354 1.427 . S
C1351 H1341 0.929 . S
C1351 C1349 1.433 . S
C1351 N1354 1.384 . S
C1352 H1343 0.929 . S
C1352 C1344 1.378 . S
C1352 C1347 1.368 . S
C1353 H1340 0.929 . S
C1353 C1345 1.433 . S
C1353 N1355 1.384 . S
N1354 C1350 1.427 . S
N1354 C1351 1.384 . S
N1355 C1347 1.429 . S
N1355 C1353 1.384 . S
H1356 C1362 0.930 . S
H1357 C1366 0.930 . S
H1358 C1371 0.929 . S
H1359 C1369 0.929 . S
H1360 C1364 0.929 . S
H1361 C1370 0.929 . S
C1362 H1356 0.930 . S
C1362 C1363 1.367 . S
C1362 C1370 1.378 . S
C1363 C1362 1.367 . S
C1363 C1371 1.433 . S
C1364 H1360 0.929 . S
C1364 C1366 1.378 . S
C1364 C1368 1.350 . S
C1365 C1368 1.463 . S
C1365 C1370 1.350 . S
C1365 N1373 1.427 . S
C1366 H1357 0.930 . S
C1366 C1364 1.378 . S
C1366 C1367 1.367 . S
C1367 C1366 1.367 . S
C1367 C1369 1.433 . S
C1368 C1364 1.350 . S
C1368 C1365 1.463 . S
C1368 N1372 1.427 . S
C1369 H1359 0.929 . S
C1369 C1367 1.433 . S
C1369 N1372 1.384 . S
C1370 H1361 0.929 . S
C1370 C1362 1.378 . S
C1370 C1365 1.350 . S
C1371 H1358 0.929 . S
C1371 C1363 1.433 . S
C1371 N1373 1.384 . S
N1372 C1368 1.427 . S
N1372 C1369 1.384 . S
N1373 C1365 1.427 . S
N1373 C1371 1.384 . S
H1374 C1380 0.930 . S
H1375 C1384 0.930 . S
H1376 C1389 0.929 . S
H1377 C1387 0.929 . S
H1378 C1382 0.929 . S
H1379 C1388 0.929 . S
C1380 H1374 0.930 . S
C1380 C1381 1.367 . S
C1380 C1388 1.378 . S
C1381 C1380 1.367 . S
C1381 C1389 1.433 . S
C1382 H1378 0.929 . S
C1382 C1384 1.378 . S
C1382 C1386 1.366 . S
C1383 C1386 1.444 1_565 S
C1383 C1388 1.350 . S
C1383 N1391 1.427 . S
C1384 H1375 0.930 . S
C1384 C1382 1.378 . S
C1384 C1385 1.367 . S
C1385 C1384 1.367 . S
C1385 C1387 1.433 . S
C1386 C1382 1.366 . S
C1386 C1383 1.444 1_545 S
C1386 N1390 1.429 . S
C1387 H1377 0.929 . S
C1387 C1385 1.433 . S
C1387 N1390 1.384 . S
C1388 H1379 0.929 . S
C1388 C1380 1.378 . S
C1388 C1383 1.350 . S
C1389 H1376 0.929 . S
C1389 C1381 1.433 . S
C1389 N1391 1.384 . S
N1390 C1386 1.429 . S
N1390 C1387 1.384 . S
N1391 C1383 1.427 . S
N1391 C1389 1.384 . S
H1392 C1398 0.930 . S
H1393 C1402 0.930 . S
H1394 C1407 0.929 . S
H1395 C1405 0.929 . S
H1396 C1400 0.929 . S
H1397 C1406 0.929 . S
C1398 H1392 0.930 . S
C1398 C1399 1.367 . S
C1398 C1406 1.378 . S
C1399 C1398 1.367 . S
C1399 C1407 1.433 . S
C1400 H1396 0.929 . S
C1400 C1402 1.378 . S
C1400 C1404 1.350 . S
C1401 C1404 1.463 . S
C1401 C1406 1.350 . S
C1401 N1409 1.427 . S
C1402 H1393 0.930 . S
C1402 C1400 1.378 . S
C1402 C1403 1.367 . S
C1403 C1402 1.367 . S
C1403 C1405 1.433 . S
C1404 C1400 1.350 . S
C1404 C1401 1.463 . S
C1404 N1408 1.427 . S
C1405 H1395 0.929 . S
C1405 C1403 1.433 . S
C1405 N1408 1.384 . S
C1406 H1397 0.929 . S
C1406 C1398 1.378 . S
C1406 C1401 1.350 . S
C1407 H1394 0.929 . S
C1407 C1399 1.433 . S
C1407 N1409 1.384 . S
N1408 C1404 1.427 . S
N1408 C1405 1.384 . S
N1409 C1401 1.427 . S
N1409 C1407 1.384 . S
H1410 C1416 0.930 . S
H1411 C1420 0.930 . S
H1412 C1425 0.929 . S
H1413 C1423 0.929 . S
H1414 C1418 0.929 . S
H1415 C1424 0.929 . S
C1416 H1410 0.930 . S
C1416 C1417 1.367 . S
C1416 C1424 1.378 . S
C1417 C1416 1.367 . S
C1417 C1425 1.433 . S
C1418 H1414 0.929 . S
C1418 C1420 1.378 . S
C1418 C1422 1.350 . S
C1419 C1422 1.463 . S
C1419 C1424 1.350 . S
C1419 N1427 1.427 . S
C1420 H1411 0.930 . S
C1420 C1418 1.378 . S
C1420 C1421 1.367 . S
C1421 C1420 1.367 . S
C1421 C1423 1.433 . S
C1422 C1418 1.350 . S
C1422 C1419 1.463 . S
C1422 N1426 1.427 . S
C1423 H1413 0.929 . S
C1423 C1421 1.433 . S
C1423 N1426 1.384 . S
C1424 H1415 0.929 . S
C1424 C1416 1.378 . S
C1424 C1419 1.350 . S
C1425 H1412 0.929 . S
C1425 C1417 1.433 . S
C1425 N1427 1.384 . S
N1426 C1422 1.427 . S
N1426 C1423 1.384 . S
N1427 C1419 1.427 . S
N1427 C1425 1.384 . S
H1428 C1434 0.930 . S
H1429 C1438 0.930 . S
H1430 C1443 0.929 1_556 S
H1431 C1441 0.929 . S
H1432 C1436 0.929 . S
H1433 C1442 0.929 . S
C1434 H1428 0.930 . S
C1434 C1435 1.367 . S
C1434 C1442 1.378 . S
C1435 C1434 1.367 . S
C1435 C1443 1.433 . S
C1436 H1432 0.929 . S
C1436 C1438 1.378 . S
C1436 C1440 1.350 . S
C1437 C1440 1.441 1_655 S
C1437 C1442 1.369 . S
C1437 N1445 1.429 . S
C1438 H1429 0.930 . S
C1438 C1436 1.378 . S
C1438 C1439 1.367 . S
C1439 C1438 1.367 . S
C1439 C1441 1.433 . S
C1440 C1436 1.350 . S
C1440 C1437 1.441 1_455 S
C1440 N1444 1.427 . S
C1441 H1431 0.929 . S
C1441 C1439 1.433 . S
C1441 N1444 1.384 . S
C1442 H1433 0.929 . S
C1442 C1434 1.378 . S
C1442 C1437 1.369 . S
C1443 H1430 0.929 1_554 S
C1443 C1435 1.433 . S
C1443 N1445 1.384 . S
N1444 C1440 1.427 . S
N1444 C1441 1.384 . S
N1445 C1437 1.429 . S
N1445 C1443 1.384 . S
H1446 C1452 0.930 . S
H1447 C1456 0.930 . S
H1448 C1461 0.929 . S
H1449 C1459 0.929 . S
H1450 C1454 0.929 . S
H1451 C1460 0.929 . S
C1452 H1446 0.930 . S
C1452 C1453 1.367 . S
C1452 C1460 1.378 . S
C1453 C1452 1.367 . S
C1453 C1461 1.433 . S
C1454 H1450 0.929 . S
C1454 C1456 1.378 . S
C1454 C1458 1.350 . S
C1455 C1458 1.463 . S
C1455 C1460 1.350 . S
C1455 N1463 1.427 . S
C1456 H1447 0.930 . S
C1456 C1454 1.378 . S
C1456 C1457 1.367 . S
C1457 C1456 1.367 . S
C1457 C1459 1.433 . S
C1458 C1454 1.350 . S
C1458 C1455 1.463 . S
C1458 N1462 1.427 . S
C1459 H1449 0.929 . S
C1459 C1457 1.433 . S
C1459 N1462 1.384 . S
C1460 H1451 0.929 . S
C1460 C1452 1.378 . S
C1460 C1455 1.350 . S
C1461 H1448 0.929 . S
C1461 C1453 1.433 . S
C1461 N1463 1.384 . S
N1462 C1458 1.427 . S
N1462 C1459 1.384 . S
N1463 C1455 1.427 . S
N1463 C1461 1.384 . S
H1464 C1470 0.930 . S
H1465 C1474 0.930 . S
H1466 C1479 0.929 1_556 S
H1467 C1477 0.929 . S
H1468 C1472 0.929 . S
H1469 C1478 0.929 . S
C1470 H1464 0.930 . S
C1470 C1471 1.367 . S
C1470 C1478 1.378 . S
C1471 C1470 1.367 . S
C1471 C1479 1.433 . S
C1472 H1468 0.929 . S
C1472 C1474 1.378 . S
C1472 C1476 1.350 . S
C1473 C1476 1.453 1_455 S
C1473 C1478 1.356 . S
C1473 N1481 1.431 . S
C1474 H1465 0.930 . S
C1474 C1472 1.378 . S
C1474 C1475 1.367 . S
C1475 C1474 1.367 . S
C1475 C1477 1.433 . S
C1476 C1472 1.350 . S
C1476 C1473 1.453 1_655 S
C1476 N1480 1.427 . S
C1477 H1467 0.929 . S
C1477 C1475 1.433 . S
C1477 N1480 1.384 . S
C1478 H1469 0.929 . S
C1478 C1470 1.378 . S
C1478 C1473 1.356 . S
C1479 H1466 0.929 1_554 S
C1479 C1471 1.433 . S
C1479 N1481 1.384 . S
N1480 C1476 1.427 . S
N1480 C1477 1.384 . S
N1481 C1473 1.431 . S
N1481 C1479 1.384 . S
H1482 C1488 0.930 . S
H1483 C1492 0.930 . S
H1484 C1497 0.929 . S
H1485 C1495 0.929 . S
H1486 C1490 0.929 . S
H1487 C1496 0.929 . S
C1488 H1482 0.930 . S
C1488 C1489 1.367 . S
C1488 C1496 1.378 . S
C1489 C1488 1.367 . S
C1489 C1497 1.433 . S
C1490 H1486 0.929 . S
C1490 C1492 1.378 . S
C1490 C1494 1.350 . S
C1491 C1494 1.463 . S
C1491 C1496 1.350 . S
C1491 N1499 1.427 . S
C1492 H1483 0.930 . S
C1492 C1490 1.378 . S
C1492 C1493 1.367 . S
C1493 C1492 1.367 . S
C1493 C1495 1.433 . S
C1494 C1490 1.350 . S
C1494 C1491 1.463 . S
C1494 N1498 1.427 . S
C1495 H1485 0.929 . S
C1495 C1493 1.433 . S
C1495 N1498 1.384 . S
C1496 H1487 0.929 . S
C1496 C1488 1.378 . S
C1496 C1491 1.350 . S
C1497 H1484 0.929 . S
C1497 C1489 1.433 . S
C1497 N1499 1.384 . S
N1498 C1494 1.427 . S
N1498 C1495 1.384 . S
N1499 C1491 1.427 . S
N1499 C1497 1.384 . S
H1500 C1506 0.930 . S
H1501 C1510 0.930 . S
H1502 C1515 0.929 . S
H1503 C1513 0.929 . S
H1504 C1508 0.929 . S
H1505 C1514 0.929 . S
C1506 H1500 0.930 . S
C1506 C1507 1.367 . S
C1506 C1514 1.378 . S
C1507 C1506 1.367 . S
C1507 C1515 1.433 . S
C1508 H1504 0.929 . S
C1508 C1510 1.378 . S
C1508 C1512 1.350 . S
C1509 C1512 1.440 1_655 S
C1509 C1514 1.370 . S
C1509 N1517 1.429 . S
C1510 H1501 0.930 . S
C1510 C1508 1.378 . S
C1510 C1511 1.367 . S
C1511 C1510 1.367 . S
C1511 C1513 1.433 . S
C1512 C1508 1.350 . S
C1512 C1509 1.440 1_455 S
C1512 N1516 1.427 . S
C1513 H1503 0.929 . S
C1513 C1511 1.433 . S
C1513 N1516 1.384 . S
C1514 H1505 0.929 . S
C1514 C1506 1.378 . S
C1514 C1509 1.370 . S
C1515 H1502 0.929 . S
C1515 C1507 1.433 . S
C1515 N1517 1.384 . S
N1516 C1512 1.427 . S
N1516 C1513 1.384 . S
N1517 C1509 1.429 . S
N1517 C1515 1.384 . S
H1518 C1524 0.930 . S
H1519 C1528 0.930 . S
H1520 C1533 0.929 . S
H1521 C1531 0.929 . S
H1522 C1526 0.929 . S
H1523 C1532 0.929 . S
C1524 H1518 0.930 . S
C1524 C1525 1.367 . S
C1524 C1532 1.378 . S
C1525 C1524 1.367 . S
C1525 C1533 1.433 . S
C1526 H1522 0.929 . S
C1526 C1528 1.378 . S
C1526 C1530 1.350 . S
C1527 C1530 1.463 . S
C1527 C1532 1.350 . S
C1527 N1535 1.427 . S
C1528 H1519 0.930 . S
C1528 C1526 1.378 . S
C1528 C1529 1.367 . S
C1529 C1528 1.367 . S
C1529 C1531 1.433 . S
C1530 C1526 1.350 . S
C1530 C1527 1.463 . S
C1530 N1534 1.427 . S
C1531 H1521 0.929 . S
C1531 C1529 1.433 . S
C1531 N1534 1.384 . S
C1532 H1523 0.929 . S
C1532 C1524 1.378 . S
C1532 C1527 1.350 . S
C1533 H1520 0.929 . S
C1533 C1525 1.433 . S
C1533 N1535 1.384 . S
N1534 C1530 1.427 . S
N1534 C1531 1.384 . S
N1535 C1527 1.427 . S
N1535 C1533 1.384 . S
H1536 C1542 0.930 . S
H1537 C1546 0.930 . S
H1538 C1551 0.929 . S
H1539 C1549 0.929 . S
H1540 C1544 0.929 . S
H1541 C1550 0.929 . S
C1542 H1536 0.930 . S
C1542 C1543 1.367 . S
C1542 C1550 1.378 . S
C1543 C1542 1.367 . S
C1543 C1551 1.433 . S
C1544 H1540 0.929 . S
C1544 C1546 1.378 . S
C1544 C1548 1.350 . S
C1545 C1548 1.463 . S
C1545 C1550 1.350 . S
C1545 N1553 1.427 . S
C1546 H1537 0.930 . S
C1546 C1544 1.378 . S
C1546 C1547 1.367 . S
C1547 C1546 1.367 . S
C1547 C1549 1.433 . S
C1548 C1544 1.350 . S
C1548 C1545 1.463 . S
C1548 N1552 1.427 . S
C1549 H1539 0.929 . S
C1549 C1547 1.433 . S
C1549 N1552 1.384 . S
C1550 H1541 0.929 . S
C1550 C1542 1.378 . S
C1550 C1545 1.350 . S
C1551 H1538 0.929 . S
C1551 C1543 1.433 . S
C1551 N1553 1.384 . S
N1552 C1548 1.427 . S
N1552 C1549 1.384 . S
N1553 C1545 1.427 . S
N1553 C1551 1.384 . S
H1554 C1560 0.930 . S
H1555 C1564 0.930 . S
H1556 C1569 0.929 . S
H1557 C1567 0.929 . S
H1558 C1562 0.929 1_554 S
H1559 C1568 0.929 . S
C1560 H1554 0.930 . S
C1560 C1561 1.367 . S
C1560 C1568 1.378 . S
C1561 C1560 1.367 . S
C1561 C1569 1.433 . S
C1562 H1558 0.929 1_556 S
C1562 C1564 1.378 . S
C1562 C1566 1.351 . S
C1563 C1566 1.461 1_554 S
C1563 C1568 1.350 . S
C1563 N1571 1.427 . S
C1564 H1555 0.930 . S
C1564 C1562 1.378 . S
C1564 C1565 1.367 . S
C1565 C1564 1.367 . S
C1565 C1567 1.433 . S
C1566 C1562 1.351 . S
C1566 C1563 1.461 1_556 S
C1566 N1570 1.428 . S
C1567 H1557 0.929 . S
C1567 C1565 1.433 . S
C1567 N1570 1.384 . S
C1568 H1559 0.929 . S
C1568 C1560 1.378 . S
C1568 C1563 1.350 . S
C1569 H1556 0.929 . S
C1569 C1561 1.433 . S
C1569 N1571 1.384 . S
N1570 C1566 1.428 . S
N1570 C1567 1.384 . S
N1571 C1563 1.427 . S
N1571 C1569 1.384 . S
H1572 C1578 0.930 . S
H1573 C1582 0.930 . S
H1574 C1587 0.929 . S
H1575 C1585 0.929 . S
H1576 C1580 0.929 . S
H1577 C1586 0.929 . S
C1578 H1572 0.930 . S
C1578 C1579 1.367 . S
C1578 C1586 1.378 . S
C1579 C1578 1.367 . S
C1579 C1587 1.433 . S
C1580 H1576 0.929 . S
C1580 C1582 1.378 . S
C1580 C1584 1.350 . S
C1581 C1584 1.463 . S
C1581 C1586 1.350 . S
C1581 N1589 1.427 . S
C1582 H1573 0.930 . S
C1582 C1580 1.378 . S
C1582 C1583 1.367 . S
C1583 C1582 1.367 . S
C1583 C1585 1.433 . S
C1584 C1580 1.350 . S
C1584 C1581 1.463 . S
C1584 N1588 1.427 . S
C1585 H1575 0.929 . S
C1585 C1583 1.433 . S
C1585 N1588 1.384 . S
C1586 H1577 0.929 . S
C1586 C1578 1.378 . S
C1586 C1581 1.350 . S
C1587 H1574 0.929 . S
C1587 C1579 1.433 . S
C1587 N1589 1.384 . S
N1588 C1584 1.427 . S
N1588 C1585 1.384 . S
N1589 C1581 1.427 . S
N1589 C1587 1.384 . S
H1590 C1596 0.930 . S
H1591 C1600 0.930 . S
H1592 C1605 0.929 . S
H1593 C1603 0.929 . S
H1594 C1598 0.929 . S
H1595 C1604 0.929 . S
C1596 H1590 0.930 . S
C1596 C1597 1.367 . S
C1596 C1604 1.378 . S
C1597 C1596 1.367 . S
C1597 C1605 1.433 . S
C1598 H1594 0.929 . S
C1598 C1600 1.378 . S
C1598 C1602 1.350 . S
C1599 C1602 1.463 . S
C1599 C1604 1.350 . S
C1599 N1607 1.427 . S
C1600 H1591 0.930 . S
C1600 C1598 1.378 . S
C1600 C1601 1.367 . S
C1601 C1600 1.367 . S
C1601 C1603 1.433 . S
C1602 C1598 1.350 . S
C1602 C1599 1.463 . S
C1602 N1606 1.427 . S
C1603 H1593 0.929 . S
C1603 C1601 1.433 . S
C1603 N1606 1.384 . S
C1604 H1595 0.929 . S
C1604 C1596 1.378 . S
C1604 C1599 1.350 . S
C1605 H1592 0.929 . S
C1605 C1597 1.433 . S
C1605 N1607 1.384 . S
N1606 C1602 1.427 . S
N1606 C1603 1.384 . S
N1607 C1599 1.427 . S
N1607 C1605 1.384 . S
H1608 C1614 0.930 . S
H1609 C1618 0.930 . S
H1610 C1623 0.929 . S
H1611 C1621 0.929 . S
H1612 C1616 0.929 . S
H1613 C1622 0.929 . S
C1614 H1608 0.930 . S
C1614 C1615 1.367 . S
C1614 C1622 1.378 . S
C1615 C1614 1.367 . S
C1615 C1623 1.433 . S
C1616 H1612 0.929 . S
C1616 C1618 1.378 . S
C1616 C1620 1.350 . S
C1617 C1620 1.463 . S
C1617 C1622 1.350 . S
C1617 N1625 1.427 . S
C1618 H1609 0.930 . S
C1618 C1616 1.378 . S
C1618 C1619 1.367 . S
C1619 C1618 1.367 . S
C1619 C1621 1.433 . S
C1620 C1616 1.350 . S
C1620 C1617 1.463 . S
C1620 N1624 1.427 . S
C1621 H1611 0.929 . S
C1621 C1619 1.433 . S
C1621 N1624 1.384 . S
C1622 H1613 0.929 . S
C1622 C1614 1.378 . S
C1622 C1617 1.350 . S
C1623 H1610 0.929 . S
C1623 C1615 1.433 . S
C1623 N1625 1.384 . S
N1624 C1620 1.427 . S
N1624 C1621 1.384 . S
N1625 C1617 1.427 . S
N1625 C1623 1.384 . S
H1626 C1632 0.930 . S
H1627 C1636 0.930 . S
H1628 C1641 0.929 . S
H1629 C1639 0.929 . S
H1630 C1634 0.929 . S
H1631 C1640 0.929 . S
C1632 H1626 0.930 . S
C1632 C1633 1.367 . S
C1632 C1640 1.378 . S
C1633 C1632 1.367 . S
C1633 C1641 1.433 . S
C1634 H1630 0.929 . S
C1634 C1636 1.378 . S
C1634 C1638 1.356 . S
C1635 C1638 1.452 1_556 S
C1635 C1640 1.350 . S
C1635 N1643 1.427 . S
C1636 H1627 0.930 . S
C1636 C1634 1.378 . S
C1636 C1637 1.367 . S
C1637 C1636 1.367 . S
C1637 C1639 1.433 . S
C1638 C1634 1.356 . S
C1638 C1635 1.452 1_554 S
C1638 N1642 1.431 . S
C1639 H1629 0.929 . S
C1639 C1637 1.433 . S
C1639 N1642 1.384 . S
C1640 H1631 0.929 . S
C1640 C1632 1.378 . S
C1640 C1635 1.350 . S
C1641 H1628 0.929 . S
C1641 C1633 1.433 . S
C1641 N1643 1.384 . S
N1642 C1638 1.431 . S
N1642 C1639 1.384 . S
N1643 C1635 1.427 . S
N1643 C1641 1.384 . S
H1644 C1650 0.930 . S
H1645 C1654 0.930 . S
H1646 C1659 0.929 . S
H1647 C1657 0.929 . S
H1648 C1652 0.929 . S
H1649 C1658 0.929 . S
C1650 H1644 0.930 . S
C1650 C1651 1.367 . S
C1650 C1658 1.378 . S
C1651 C1650 1.367 . S
C1651 C1659 1.433 . S
C1652 H1648 0.929 . S
C1652 C1654 1.378 . S
C1652 C1656 1.350 . S
C1653 C1656 1.463 . S
C1653 C1658 1.350 . S
C1653 N1661 1.427 . S
C1654 H1645 0.930 . S
C1654 C1652 1.378 . S
C1654 C1655 1.367 . S
C1655 C1654 1.367 . S
C1655 C1657 1.433 . S
C1656 C1652 1.350 . S
C1656 C1653 1.463 . S
C1656 N1660 1.427 . S
C1657 H1647 0.929 . S
C1657 C1655 1.433 . S
C1657 N1660 1.384 . S
C1658 H1649 0.929 . S
C1658 C1650 1.378 . S
C1658 C1653 1.350 . S
C1659 H1646 0.929 . S
C1659 C1651 1.433 . S
C1659 N1661 1.384 . S
N1660 C1656 1.427 . S
N1660 C1657 1.384 . S
N1661 C1653 1.427 . S
N1661 C1659 1.384 . S
H1662 C1668 0.930 . S
H1663 C1672 0.930 . S
H1664 C1677 0.929 . S
H1665 C1675 0.929 . S
H1666 C1670 0.929 . S
H1667 C1676 0.929 . S
C1668 H1662 0.930 . S
C1668 C1669 1.367 . S
C1668 C1676 1.378 . S
C1669 C1668 1.367 . S
C1669 C1677 1.433 . S
C1670 H1666 0.929 . S
C1670 C1672 1.378 . S
C1670 C1674 1.350 . S
C1671 C1674 1.463 . S
C1671 C1676 1.350 . S
C1671 N1679 1.427 . S
C1672 H1663 0.930 . S
C1672 C1670 1.378 . S
C1672 C1673 1.367 . S
C1673 C1672 1.367 . S
C1673 C1675 1.433 . S
C1674 C1670 1.350 . S
C1674 C1671 1.463 . S
C1674 N1678 1.427 . S
C1675 H1665 0.929 . S
C1675 C1673 1.433 . S
C1675 N1678 1.384 . S
C1676 H1667 0.929 . S
C1676 C1668 1.378 . S
C1676 C1671 1.350 . S
C1677 H1664 0.929 . S
C1677 C1669 1.433 . S
C1677 N1679 1.384 . S
N1678 C1674 1.427 . S
N1678 C1675 1.384 . S
N1679 C1671 1.427 . S
N1679 C1677 1.384 . S
H1680 C1686 0.930 . S
H1681 C1690 0.930 . S
H1682 C1695 0.929 . S
H1683 C1693 0.929 . S
H1684 C1688 0.929 . S
H1685 C1694 0.929 . S
C1686 H1680 0.930 . S
C1686 C1687 1.367 . S
C1686 C1694 1.378 . S
C1687 C1686 1.367 . S
C1687 C1695 1.433 . S
C1688 H1684 0.929 . S
C1688 C1690 1.378 . S
C1688 C1692 1.350 . S
C1689 C1692 1.463 . S
C1689 C1694 1.350 . S
C1689 N1697 1.427 . S
C1690 H1681 0.930 . S
C1690 C1688 1.378 . S
C1690 C1691 1.367 . S
C1691 C1690 1.367 . S
C1691 C1693 1.433 . S
C1692 C1688 1.350 . S
C1692 C1689 1.463 . S
C1692 N1696 1.427 . S
C1693 H1683 0.929 . S
C1693 C1691 1.433 . S
C1693 N1696 1.384 . S
C1694 H1685 0.929 . S
C1694 C1686 1.378 . S
C1694 C1689 1.350 . S
C1695 H1682 0.929 . S
C1695 C1687 1.433 . S
C1695 N1697 1.384 . S
N1696 C1692 1.427 . S
N1696 C1693 1.384 . S
N1697 C1689 1.427 . S
N1697 C1695 1.384 . S
H1698 C1704 0.930 . S
H1699 C1708 0.930 . S
H1700 C1713 0.929 . S
H1701 C1711 0.929 . S
H1702 C1706 0.929 . S
H1703 C1712 0.929 . S
C1704 H1698 0.930 . S
C1704 C1705 1.367 . S
C1704 C1712 1.378 . S
C1705 C1704 1.367 . S
C1705 C1713 1.433 . S
C1706 H1702 0.929 . S
C1706 C1708 1.378 . S
C1706 C1710 1.350 . S
C1707 C1710 1.463 . S
C1707 C1712 1.350 . S
C1707 N1715 1.427 . S
C1708 H1699 0.930 . S
C1708 C1706 1.378 . S
C1708 C1709 1.367 . S
C1709 C1708 1.367 . S
C1709 C1711 1.433 . S
C1710 C1706 1.350 . S
C1710 C1707 1.463 . S
C1710 N1714 1.427 . S
C1711 H1701 0.929 . S
C1711 C1709 1.433 . S
C1711 N1714 1.384 . S
C1712 H1703 0.929 . S
C1712 C1704 1.378 . S
C1712 C1707 1.350 . S
C1713 H1700 0.929 . S
C1713 C1705 1.433 . S
C1713 N1715 1.384 . S
N1714 C1710 1.427 . S
N1714 C1711 1.384 . S
N1715 C1707 1.427 . S
N1715 C1713 1.384 . S
H1716 C1722 0.930 . S
H1717 C1726 0.930 . S
H1718 C1731 0.929 . S
H1719 C1729 0.929 . S
H1720 C1724 0.929 . S
H1721 C1730 0.929 . S
C1722 H1716 0.930 . S
C1722 C1723 1.367 . S
C1722 C1730 1.378 . S
C1723 C1722 1.367 . S
C1723 C1731 1.433 . S
C1724 H1720 0.929 . S
C1724 C1726 1.378 . S
C1724 C1728 1.350 . S
C1725 C1728 1.463 . S
C1725 C1730 1.350 . S
C1725 N1733 1.427 . S
C1726 H1717 0.930 . S
C1726 C1724 1.378 . S
C1726 C1727 1.367 . S
C1727 C1726 1.367 . S
C1727 C1729 1.433 . S
C1728 C1724 1.350 . S
C1728 C1725 1.463 . S
C1728 N1732 1.427 . S
C1729 H1719 0.929 . S
C1729 C1727 1.433 . S
C1729 N1732 1.384 . S
C1730 H1721 0.929 . S
C1730 C1722 1.378 . S
C1730 C1725 1.350 . S
C1731 H1718 0.929 . S
C1731 C1723 1.433 . S
C1731 N1733 1.384 . S
N1732 C1728 1.427 . S
N1732 C1729 1.384 . S
N1733 C1725 1.427 . S
N1733 C1731 1.384 . S
H1734 C1740 0.926 1_455 S
H1735 C1744 0.930 . S
H1736 C1749 0.929 . S
H1737 C1747 0.929 . S
H1738 C1742 0.929 . S
H1739 C1748 0.929 . S
C1740 H1734 0.926 1_655 S
C1740 C1741 1.367 . S
C1740 C1748 1.378 . S
C1741 C1740 1.367 . S
C1741 C1749 1.433 . S
C1742 H1738 0.929 . S
C1742 C1744 1.378 . S
C1742 C1746 1.350 . S
C1743 C1746 1.463 . S
C1743 C1748 1.350 . S
C1743 N1751 1.427 . S
C1744 H1735 0.930 . S
C1744 C1742 1.378 . S
C1744 C1745 1.367 . S
C1745 C1744 1.367 . S
C1745 C1747 1.433 . S
C1746 C1742 1.350 . S
C1746 C1743 1.463 . S
C1746 N1750 1.427 . S
C1747 H1737 0.929 . S
C1747 C1745 1.433 . S
C1747 N1750 1.384 . S
C1748 H1739 0.929 . S
C1748 C1740 1.378 . S
C1748 C1743 1.350 . S
C1749 H1736 0.929 . S
C1749 C1741 1.433 . S
C1749 N1751 1.384 . S
N1750 C1746 1.427 . S
N1750 C1747 1.384 . S
N1751 C1743 1.427 . S
N1751 C1749 1.384 . S
H1752 C1758 0.930 . S
H1753 C1762 0.930 . S
H1754 C1767 0.929 . S
H1755 C1765 0.929 . S
H1756 C1760 0.929 . S
H1757 C1766 0.929 . S
C1758 H1752 0.930 . S
C1758 C1759 1.367 . S
C1758 C1766 1.378 . S
C1759 C1758 1.367 . S
C1759 C1767 1.433 . S
C1760 H1756 0.929 . S
C1760 C1762 1.378 . S
C1760 C1764 1.350 . S
C1761 C1764 1.463 . S
C1761 C1766 1.350 . S
C1761 N1769 1.427 . S
C1762 H1753 0.930 . S
C1762 C1760 1.378 . S
C1762 C1763 1.367 . S
C1763 C1762 1.367 . S
C1763 C1765 1.433 . S
C1764 C1760 1.350 . S
C1764 C1761 1.463 . S
C1764 N1768 1.427 . S
C1765 H1755 0.929 . S
C1765 C1763 1.433 . S
C1765 N1768 1.384 . S
C1766 H1757 0.929 . S
C1766 C1758 1.378 . S
C1766 C1761 1.350 . S
C1767 H1754 0.929 . S
C1767 C1759 1.433 . S
C1767 N1769 1.384 . S
N1768 C1764 1.427 . S
N1768 C1765 1.384 . S
N1769 C1761 1.427 . S
N1769 C1767 1.384 . S
H1770 C1776 0.930 . S
H1771 C1780 0.930 . S
H1772 C1785 0.929 . S
H1773 C1783 0.929 . S
H1774 C1778 0.929 . S
H1775 C1784 0.929 . S
C1776 H1770 0.930 . S
C1776 C1777 1.367 . S
C1776 C1784 1.378 . S
C1777 C1776 1.367 . S
C1777 C1785 1.433 . S
C1778 H1774 0.929 . S
C1778 C1780 1.378 . S
C1778 C1782 1.350 . S
C1779 C1782 1.463 . S
C1779 C1784 1.350 . S
C1779 N1787 1.427 . S
C1780 H1771 0.930 . S
C1780 C1778 1.378 . S
C1780 C1781 1.367 . S
C1781 C1780 1.367 . S
C1781 C1783 1.433 . S
C1782 C1778 1.350 . S
C1782 C1779 1.463 . S
C1782 N1786 1.427 . S
C1783 H1773 0.929 . S
C1783 C1781 1.433 . S
C1783 N1786 1.384 . S
C1784 H1775 0.929 . S
C1784 C1776 1.378 . S
C1784 C1779 1.350 . S
C1785 H1772 0.929 . S
C1785 C1777 1.433 . S
C1785 N1787 1.384 . S
N1786 C1782 1.427 . S
N1786 C1783 1.384 . S
N1787 C1779 1.427 . S
N1787 C1785 1.384 . S
H1788 C1794 0.930 . S
H1789 C1798 0.930 . S
H1790 C1803 0.929 . S
H1791 C1801 0.929 . S
H1792 C1796 0.929 . S
H1793 C1802 0.929 . S
C1794 H1788 0.930 . S
C1794 C1795 1.367 . S
C1794 C1802 1.378 . S
C1795 C1794 1.367 . S
C1795 C1803 1.433 . S
C1796 H1792 0.929 . S
C1796 C1798 1.378 . S
C1796 C1800 1.350 . S
C1797 C1800 1.463 . S
C1797 C1802 1.350 . S
C1797 N1805 1.427 . S
C1798 H1789 0.930 . S
C1798 C1796 1.378 . S
C1798 C1799 1.367 . S
C1799 C1798 1.367 . S
C1799 C1801 1.433 . S
C1800 C1796 1.350 . S
C1800 C1797 1.463 . S
C1800 N1804 1.427 . S
C1801 H1791 0.929 . S
C1801 C1799 1.433 . S
C1801 N1804 1.384 . S
C1802 H1793 0.929 . S
C1802 C1794 1.378 . S
C1802 C1797 1.350 . S
C1803 H1790 0.929 . S
C1803 C1795 1.433 . S
C1803 N1805 1.384 . S
N1804 C1800 1.427 . S
N1804 C1801 1.384 . S
N1805 C1797 1.427 . S
N1805 C1803 1.384 . S
H1806 C1812 0.930 . S
H1807 C1816 0.930 . S
H1808 C1821 0.929 . S
H1809 C1819 0.929 . S
H1810 C1814 0.929 . S
H1811 C1820 0.929 . S
C1812 H1806 0.930 . S
C1812 C1813 1.367 . S
C1812 C1820 1.378 . S
C1813 C1812 1.367 . S
C1813 C1821 1.433 . S
C1814 H1810 0.929 . S
C1814 C1816 1.378 . S
C1814 C1818 1.350 . S
C1815 C1818 1.463 . S
C1815 C1820 1.350 . S
C1815 N1823 1.427 . S
C1816 H1807 0.930 . S
C1816 C1814 1.378 . S
C1816 C1817 1.367 . S
C1817 C1816 1.367 . S
C1817 C1819 1.433 . S
C1818 C1814 1.350 . S
C1818 C1815 1.463 . S
C1818 N1822 1.427 . S
C1819 H1809 0.929 . S
C1819 C1817 1.433 . S
C1819 N1822 1.384 . S
C1820 H1811 0.929 . S
C1820 C1812 1.378 . S
C1820 C1815 1.350 . S
C1821 H1808 0.929 . S
C1821 C1813 1.433 . S
C1821 N1823 1.384 . S
N1822 C1818 1.427 . S
N1822 C1819 1.384 . S
N1823 C1815 1.427 . S
N1823 C1821 1.384 . S
H1824 C1830 0.930 . S
H1825 C1834 0.930 . S
H1826 C1839 0.929 . S
H1827 C1837 0.929 . S
H1828 C1832 0.929 . S
H1829 C1838 0.929 . S
C1830 H1824 0.930 . S
C1830 C1831 1.367 . S
C1830 C1838 1.378 . S
C1831 C1830 1.367 . S
C1831 C1839 1.433 . S
C1832 H1828 0.929 . S
C1832 C1834 1.378 . S
C1832 C1836 1.350 . S
C1833 C1836 1.463 . S
C1833 C1838 1.350 . S
C1833 N1841 1.427 . S
C1834 H1825 0.930 . S
C1834 C1832 1.378 . S
C1834 C1835 1.367 . S
C1835 C1834 1.367 . S
C1835 C1837 1.433 . S
C1836 C1832 1.350 . S
C1836 C1833 1.463 . S
C1836 N1840 1.427 . S
C1837 H1827 0.929 . S
C1837 C1835 1.433 . S
C1837 N1840 1.384 . S
C1838 H1829 0.929 . S
C1838 C1830 1.378 . S
C1838 C1833 1.350 . S
C1839 H1826 0.929 . S
C1839 C1831 1.433 . S
C1839 N1841 1.384 . S
N1840 C1836 1.427 . S
N1840 C1837 1.384 . S
N1841 C1833 1.427 . S
N1841 C1839 1.384 . S
H1842 C1848 0.930 . S
H1843 C1852 0.930 . S
H1844 C1857 0.929 . S
H1845 C1855 0.929 . S
H1846 C1850 0.929 . S
H1847 C1856 0.929 . S
C1848 H1842 0.930 . S
C1848 C1849 1.367 . S
C1848 C1856 1.378 . S
C1849 C1848 1.367 . S
C1849 C1857 1.433 . S
C1850 H1846 0.929 . S
C1850 C1852 1.378 . S
C1850 C1854 1.350 . S
C1851 C1854 1.463 . S
C1851 C1856 1.350 . S
C1851 N1859 1.427 . S
C1852 H1843 0.930 . S
C1852 C1850 1.378 . S
C1852 C1853 1.367 . S
C1853 C1852 1.367 . S
C1853 C1855 1.433 . S
C1854 C1850 1.350 . S
C1854 C1851 1.463 . S
C1854 N1858 1.427 . S
C1855 H1845 0.929 . S
C1855 C1853 1.433 . S
C1855 N1858 1.384 . S
C1856 H1847 0.929 . S
C1856 C1848 1.378 . S
C1856 C1851 1.350 . S
C1857 H1844 0.929 . S
C1857 C1849 1.433 . S
C1857 N1859 1.384 . S
N1858 C1854 1.427 . S
N1858 C1855 1.384 . S
N1859 C1851 1.427 . S
N1859 C1857 1.384 . S
H1860 C1866 0.930 . S
H1861 C1870 0.930 . S
H1862 C1875 0.929 . S
H1863 C1873 0.929 . S
H1864 C1868 0.929 . S
H1865 C1874 0.929 . S
C1866 H1860 0.930 . S
C1866 C1867 1.367 . S
C1866 C1874 1.378 . S
C1867 C1866 1.367 . S
C1867 C1875 1.433 . S
C1868 H1864 0.929 . S
C1868 C1870 1.378 . S
C1868 C1872 1.350 . S
C1869 C1872 1.463 . S
C1869 C1874 1.350 . S
C1869 N1877 1.427 . S
C1870 H1861 0.930 . S
C1870 C1868 1.378 . S
C1870 C1871 1.367 . S
C1871 C1870 1.367 . S
C1871 C1873 1.433 . S
C1872 C1868 1.350 . S
C1872 C1869 1.463 . S
C1872 N1876 1.427 . S
C1873 H1863 0.929 . S
C1873 C1871 1.433 . S
C1873 N1876 1.384 . S
C1874 H1865 0.929 . S
C1874 C1866 1.378 . S
C1874 C1869 1.350 . S
C1875 H1862 0.929 . S
C1875 C1867 1.433 . S
C1875 N1877 1.384 . S
N1876 C1872 1.427 . S
N1876 C1873 1.384 . S
N1877 C1869 1.427 . S
N1877 C1875 1.384 . S
H1878 C1884 0.930 . S
H1879 C1888 0.930 . S
H1880 C1893 0.929 . S
H1881 C1891 0.929 . S
H1882 C1886 0.929 . S
H1883 C1892 0.929 . S
C1884 H1878 0.930 . S
C1884 C1885 1.367 . S
C1884 C1892 1.378 . S
C1885 C1884 1.367 . S
C1885 C1893 1.433 . S
C1886 H1882 0.929 . S
C1886 C1888 1.378 . S
C1886 C1890 1.350 . S
C1887 C1890 1.463 . S
C1887 C1892 1.350 . S
C1887 N1895 1.427 . S
C1888 H1879 0.930 . S
C1888 C1886 1.378 . S
C1888 C1889 1.367 . S
C1889 C1888 1.367 . S
C1889 C1891 1.433 . S
C1890 C1886 1.350 . S
C1890 C1887 1.463 . S
C1890 N1894 1.427 . S
C1891 H1881 0.929 . S
C1891 C1889 1.433 . S
C1891 N1894 1.384 . S
C1892 H1883 0.929 . S
C1892 C1884 1.378 . S
C1892 C1887 1.350 . S
C1893 H1880 0.929 . S
C1893 C1885 1.433 . S
C1893 N1895 1.384 . S
N1894 C1890 1.427 . S
N1894 C1891 1.384 . S
N1895 C1887 1.427 . S
N1895 C1893 1.384 . S
H1896 C1902 0.930 . S
H1897 C1906 0.930 . S
H1898 C1911 0.929 . S
H1899 C1909 0.929 . S
H1900 C1904 0.929 . S
H1901 C1910 0.929 . S
C1902 H1896 0.930 . S
C1902 C1903 1.367 . S
C1902 C1910 1.378 . S
C1903 C1902 1.367 . S
C1903 C1911 1.433 . S
C1904 H1900 0.929 . S
C1904 C1906 1.378 . S
C1904 C1908 1.350 . S
C1905 C1908 1.463 . S
C1905 C1910 1.350 . S
C1905 N1913 1.427 . S
C1906 H1897 0.930 . S
C1906 C1904 1.378 . S
C1906 C1907 1.367 . S
C1907 C1906 1.367 . S
C1907 C1909 1.433 . S
C1908 C1904 1.350 . S
C1908 C1905 1.463 . S
C1908 N1912 1.427 . S
C1909 H1899 0.929 . S
C1909 C1907 1.433 . S
C1909 N1912 1.384 . S
C1910 H1901 0.929 . S
C1910 C1902 1.378 . S
C1910 C1905 1.350 . S
C1911 H1898 0.929 . S
C1911 C1903 1.433 . S
C1911 N1913 1.384 . S
N1912 C1908 1.427 . S
N1912 C1909 1.384 . S
N1913 C1905 1.427 . S
N1913 C1911 1.384 . S
H1914 C1920 0.930 . S
H1915 C1924 0.930 . S
H1916 C1929 0.929 . S
H1917 C1927 0.929 . S
H1918 C1922 0.929 . S
H1919 C1928 0.929 . S
C1920 H1914 0.930 . S
C1920 C1921 1.367 . S
C1920 C1928 1.378 . S
C1921 C1920 1.367 . S
C1921 C1929 1.433 . S
C1922 H1918 0.929 . S
C1922 C1924 1.378 . S
C1922 C1926 1.350 . S
C1923 C1926 1.463 . S
C1923 C1928 1.350 . S
C1923 N1931 1.427 . S
C1924 H1915 0.930 . S
C1924 C1922 1.378 . S
C1924 C1925 1.367 . S
C1925 C1924 1.367 . S
C1925 C1927 1.433 . S
C1926 C1922 1.350 . S
C1926 C1923 1.463 . S
C1926 N1930 1.427 . S
C1927 H1917 0.929 . S
C1927 C1925 1.433 . S
C1927 N1930 1.384 . S
C1928 H1919 0.929 . S
C1928 C1920 1.378 . S
C1928 C1923 1.350 . S
C1929 H1916 0.929 . S
C1929 C1921 1.433 . S
C1929 N1931 1.384 . S
N1930 C1926 1.427 . S
N1930 C1927 1.384 . S
N1931 C1923 1.427 . S
N1931 C1929 1.384 . S
H1932 C1938 0.930 . S
H1933 C1942 0.930 . S
H1934 C1947 0.929 . S
H1935 C1945 0.929 . S
H1936 C1940 0.929 . S
H1937 C1946 0.929 . S
C1938 H1932 0.930 . S
C1938 C1939 1.367 . S
C1938 C1946 1.378 . S
C1939 C1938 1.367 . S
C1939 C1947 1.433 . S
C1940 H1936 0.929 . S
C1940 C1942 1.378 . S
C1940 C1944 1.350 . S
C1941 C1944 1.463 . S
C1941 C1946 1.350 . S
C1941 N1949 1.427 . S
C1942 H1933 0.930 . S
C1942 C1940 1.378 . S
C1942 C1943 1.367 . S
C1943 C1942 1.367 . S
C1943 C1945 1.433 . S
C1944 C1940 1.350 . S
C1944 C1941 1.463 . S
C1944 N1948 1.427 . S
C1945 H1935 0.929 . S
C1945 C1943 1.433 . S
C1945 N1948 1.384 . S
C1946 H1937 0.929 . S
C1946 C1938 1.378 . S
C1946 C1941 1.350 . S
C1947 H1934 0.929 . S
C1947 C1939 1.433 . S
C1947 N1949 1.384 . S
N1948 C1944 1.427 . S
N1948 C1945 1.384 . S
N1949 C1941 1.427 . S
N1949 C1947 1.384 . S
H1950 C1956 0.930 . S
H1951 C1960 0.930 . S
H1952 C1965 0.929 . S
H1953 C1963 0.929 . S
H1954 C1958 0.929 . S
H1955 C1964 0.929 . S
C1956 H1950 0.930 . S
C1956 C1957 1.367 . S
C1956 C1964 1.378 . S
C1957 C1956 1.367 . S
C1957 C1965 1.433 . S
C1958 H1954 0.929 . S
C1958 C1960 1.378 . S
C1958 C1962 1.350 . S
C1959 C1962 1.441 1_455 S
C1959 C1964 1.369 . S
C1959 N1967 1.428 . S
C1960 H1951 0.930 . S
C1960 C1958 1.378 . S
C1960 C1961 1.367 . S
C1961 C1960 1.367 . S
C1961 C1963 1.433 . S
C1962 C1958 1.350 . S
C1962 C1959 1.441 1_655 S
C1962 N1966 1.427 . S
C1963 H1953 0.929 . S
C1963 C1961 1.433 . S
C1963 N1966 1.384 . S
C1964 H1955 0.929 . S
C1964 C1956 1.378 . S
C1964 C1959 1.369 . S
C1965 H1952 0.929 . S
C1965 C1957 1.433 . S
C1965 N1967 1.384 . S
N1966 C1962 1.427 . S
N1966 C1963 1.384 . S
N1967 C1959 1.428 . S
N1967 C1965 1.384 . S
H1968 C1974 0.930 . S
H1969 C1978 0.930 . S
H1970 C1983 0.929 . S
H1971 C1981 0.929 . S
H1972 C1976 0.929 . S
H1973 C1982 0.929 . S
C1974 H1968 0.930 . S
C1974 C1975 1.367 . S
C1974 C1982 1.378 . S
C1975 C1974 1.367 . S
C1975 C1983 1.433 . S
C1976 H1972 0.929 . S
C1976 C1978 1.378 . S
C1976 C1980 1.350 . S
C1977 C1980 1.463 . S
C1977 C1982 1.350 . S
C1977 N1985 1.427 . S
C1978 H1969 0.930 . S
C1978 C1976 1.378 . S
C1978 C1979 1.367 . S
C1979 C1978 1.367 . S
C1979 C1981 1.433 . S
C1980 C1976 1.350 . S
C1980 C1977 1.463 . S
C1980 N1984 1.427 . S
C1981 H1971 0.929 . S
C1981 C1979 1.433 . S
C1981 N1984 1.384 . S
C1982 H1973 0.929 . S
C1982 C1974 1.378 . S
C1982 C1977 1.350 . S
C1983 H1970 0.929 . S
C1983 C1975 1.433 . S
C1983 N1985 1.384 . S
N1984 C1980 1.427 . S
N1984 C1981 1.384 . S
N1985 C1977 1.427 . S
N1985 C1983 1.384 . S
H1986 C1992 0.930 . S
H1987 C1996 0.930 . S
H1988 C2001 0.929 . S
H1989 C1999 0.929 . S
H1990 C1994 0.929 . S
H1991 C2000 0.929 . S
C1992 H1986 0.930 . S
C1992 C1993 1.367 . S
C1992 C2000 1.378 . S
C1993 C1992 1.367 . S
C1993 C2001 1.433 . S
C1994 H1990 0.929 . S
C1994 C1996 1.378 . S
C1994 C1998 1.350 . S
C1995 C1998 1.463 . S
C1995 C2000 1.350 . S
C1995 N2003 1.427 . S
C1996 H1987 0.930 . S
C1996 C1994 1.378 . S
C1996 C1997 1.367 . S
C1997 C1996 1.367 . S
C1997 C1999 1.433 . S
C1998 C1994 1.350 . S
C1998 C1995 1.463 . S
C1998 N2002 1.427 . S
C1999 H1989 0.929 . S
C1999 C1997 1.433 . S
C1999 N2002 1.384 . S
C2000 H1991 0.929 . S
C2000 C1992 1.378 . S
C2000 C1995 1.350 . S
C2001 H1988 0.929 . S
C2001 C1993 1.433 . S
C2001 N2003 1.384 . S
N2002 C1998 1.427 . S
N2002 C1999 1.384 . S
N2003 C1995 1.427 . S
N2003 C2001 1.384 . S
H2004 C2010 0.930 . S
H2005 C2014 0.930 . S
H2006 C2019 0.929 . S
H2007 C2017 0.929 . S
H2008 C2012 0.929 . S
H2009 C2018 0.929 . S
C2010 H2004 0.930 . S
C2010 C2011 1.367 . S
C2010 C2018 1.378 . S
C2011 C2010 1.367 . S
C2011 C2019 1.433 . S
C2012 H2008 0.929 . S
C2012 C2014 1.378 . S
C2012 C2016 1.350 . S
C2013 C2016 1.463 . S
C2013 C2018 1.350 . S
C2013 N2021 1.427 . S
C2014 H2005 0.930 . S
C2014 C2012 1.378 . S
C2014 C2015 1.367 . S
C2015 C2014 1.367 . S
C2015 C2017 1.433 . S
C2016 C2012 1.350 . S
C2016 C2013 1.463 . S
C2016 N2020 1.427 . S
C2017 H2007 0.929 . S
C2017 C2015 1.433 . S
C2017 N2020 1.384 . S
C2018 H2009 0.929 . S
C2018 C2010 1.378 . S
C2018 C2013 1.350 . S
C2019 H2006 0.929 . S
C2019 C2011 1.433 . S
C2019 N2021 1.384 . S
N2020 C2016 1.427 . S
N2020 C2017 1.384 . S
N2021 C2013 1.427 . S
N2021 C2019 1.384 . S
H2022 C2028 0.930 . S
H2023 C2032 0.930 . S
H2024 C2037 0.929 . S
H2025 C2035 0.929 . S
H2026 C2030 0.929 . S
H2027 C2036 0.929 . S
C2028 H2022 0.930 . S
C2028 C2029 1.367 . S
C2028 C2036 1.378 . S
C2029 C2028 1.367 . S
C2029 C2037 1.433 . S
C2030 H2026 0.929 . S
C2030 C2032 1.378 . S
C2030 C2034 1.350 . S
C2031 C2034 1.463 . S
C2031 C2036 1.350 . S
C2031 N2039 1.427 . S
C2032 H2023 0.930 . S
C2032 C2030 1.378 . S
C2032 C2033 1.367 . S
C2033 C2032 1.367 . S
C2033 C2035 1.433 . S
C2034 C2030 1.350 . S
C2034 C2031 1.463 . S
C2034 N2038 1.427 . S
C2035 H2025 0.929 . S
C2035 C2033 1.433 . S
C2035 N2038 1.384 . S
C2036 H2027 0.929 . S
C2036 C2028 1.378 . S
C2036 C2031 1.350 . S
C2037 H2024 0.929 . S
C2037 C2029 1.433 . S
C2037 N2039 1.384 . S
N2038 C2034 1.427 . S
N2038 C2035 1.384 . S
N2039 C2031 1.427 . S
N2039 C2037 1.384 . S
H2040 C2046 0.930 . S
H2041 C2050 0.930 . S
H2042 C2055 0.929 . S
H2043 C2053 0.929 . S
H2044 C2048 0.929 . S
H2045 C2054 0.929 . S
C2046 H2040 0.930 . S
C2046 C2047 1.367 . S
C2046 C2054 1.378 . S
C2047 C2046 1.367 . S
C2047 C2055 1.433 . S
C2048 H2044 0.929 . S
C2048 C2050 1.378 . S
C2048 C2052 1.350 . S
C2049 C2052 1.463 . S
C2049 C2054 1.350 . S
C2049 N2057 1.427 . S
C2050 H2041 0.930 . S
C2050 C2048 1.378 . S
C2050 C2051 1.367 . S
C2051 C2050 1.367 . S
C2051 C2053 1.433 . S
C2052 C2048 1.350 . S
C2052 C2049 1.463 . S
C2052 N2056 1.427 . S
C2053 H2043 0.929 . S
C2053 C2051 1.433 . S
C2053 N2056 1.384 . S
C2054 H2045 0.929 . S
C2054 C2046 1.378 . S
C2054 C2049 1.350 . S
C2055 H2042 0.929 . S
C2055 C2047 1.433 . S
C2055 N2057 1.384 . S
N2056 C2052 1.427 . S
N2056 C2053 1.384 . S
N2057 C2049 1.427 . S
N2057 C2055 1.384 . S
H2058 C2064 0.930 . S
H2059 C2068 0.930 . S
H2060 C2073 0.929 . S
H2061 C2071 0.929 . S
H2062 C2066 0.929 . S
H2063 C2072 0.929 . S
C2064 H2058 0.930 . S
C2064 C2065 1.367 . S
C2064 C2072 1.378 . S
C2065 C2064 1.367 . S
C2065 C2073 1.433 . S
C2066 H2062 0.929 . S
C2066 C2068 1.378 . S
C2066 C2070 1.350 . S
C2067 C2070 1.463 . S
C2067 C2072 1.350 . S
C2067 N2075 1.427 . S
C2068 H2059 0.930 . S
C2068 C2066 1.378 . S
C2068 C2069 1.367 . S
C2069 C2068 1.367 . S
C2069 C2071 1.433 . S
C2070 C2066 1.350 . S
C2070 C2067 1.463 . S
C2070 N2074 1.427 . S
C2071 H2061 0.929 . S
C2071 C2069 1.433 . S
C2071 N2074 1.384 . S
C2072 H2063 0.929 . S
C2072 C2064 1.378 . S
C2072 C2067 1.350 . S
C2073 H2060 0.929 . S
C2073 C2065 1.433 . S
C2073 N2075 1.384 . S
N2074 C2070 1.427 . S
N2074 C2071 1.384 . S
N2075 C2067 1.427 . S
N2075 C2073 1.384 . S
H2076 C2082 0.930 . S
H2077 C2086 0.930 . S
H2078 C2091 0.929 . S
H2079 C2089 0.929 . S
H2080 C2084 0.929 . S
H2081 C2090 0.929 . S
C2082 H2076 0.930 . S
C2082 C2083 1.367 . S
C2082 C2090 1.378 . S
C2083 C2082 1.367 . S
C2083 C2091 1.433 . S
C2084 H2080 0.929 . S
C2084 C2086 1.378 . S
C2084 C2088 1.350 . S
C2085 C2088 1.463 . S
C2085 C2090 1.350 . S
C2085 N2093 1.427 . S
C2086 H2077 0.930 . S
C2086 C2084 1.378 . S
C2086 C2087 1.367 . S
C2087 C2086 1.367 . S
C2087 C2089 1.433 . S
C2088 C2084 1.350 . S
C2088 C2085 1.463 . S
C2088 N2092 1.427 . S
C2089 H2079 0.929 . S
C2089 C2087 1.433 . S
C2089 N2092 1.384 . S
C2090 H2081 0.929 . S
C2090 C2082 1.378 . S
C2090 C2085 1.350 . S
C2091 H2078 0.929 . S
C2091 C2083 1.433 . S
C2091 N2093 1.384 . S
N2092 C2088 1.427 . S
N2092 C2089 1.384 . S
N2093 C2085 1.427 . S
N2093 C2091 1.384 . S
H2094 C2100 0.930 . S
H2095 C2104 0.930 . S
H2096 C2109 0.929 . S
H2097 C2107 0.929 . S
H2098 C2102 0.929 . S
H2099 C2108 0.929 . S
C2100 H2094 0.930 . S
C2100 C2101 1.367 . S
C2100 C2108 1.378 . S
C2101 C2100 1.367 . S
C2101 C2109 1.433 . S
C2102 H2098 0.929 . S
C2102 C2104 1.378 . S
C2102 C2106 1.350 . S
C2103 C2106 1.463 . S
C2103 C2108 1.350 . S
C2103 N2111 1.427 . S
C2104 H2095 0.930 . S
C2104 C2102 1.378 . S
C2104 C2105 1.367 . S
C2105 C2104 1.367 . S
C2105 C2107 1.433 . S
C2106 C2102 1.350 . S
C2106 C2103 1.463 . S
C2106 N2110 1.427 . S
C2107 H2097 0.929 . S
C2107 C2105 1.433 . S
C2107 N2110 1.384 . S
C2108 H2099 0.929 . S
C2108 C2100 1.378 . S
C2108 C2103 1.350 . S
C2109 H2096 0.929 . S
C2109 C2101 1.433 . S
C2109 N2111 1.384 . S
N2110 C2106 1.427 . S
N2110 C2107 1.384 . S
N2111 C2103 1.427 . S
N2111 C2109 1.384 . S
H2112 C2118 0.930 . S
H2113 C2122 0.930 . S
H2114 C2127 0.929 . S
H2115 C2125 0.929 . S
H2116 C2120 0.929 . S
H2117 C2126 0.929 . S
C2118 H2112 0.930 . S
C2118 C2119 1.367 . S
C2118 C2126 1.378 . S
C2119 C2118 1.367 . S
C2119 C2127 1.433 . S
C2120 H2116 0.929 . S
C2120 C2122 1.378 . S
C2120 C2124 1.350 . S
C2121 C2124 1.463 . S
C2121 C2126 1.350 . S
C2121 N2129 1.427 . S
C2122 H2113 0.930 . S
C2122 C2120 1.378 . S
C2122 C2123 1.367 . S
C2123 C2122 1.367 . S
C2123 C2125 1.433 . S
C2124 C2120 1.350 . S
C2124 C2121 1.463 . S
C2124 N2128 1.427 . S
C2125 H2115 0.929 . S
C2125 C2123 1.433 . S
C2125 N2128 1.384 . S
C2126 H2117 0.929 . S
C2126 C2118 1.378 . S
C2126 C2121 1.350 . S
C2127 H2114 0.929 . S
C2127 C2119 1.433 . S
C2127 N2129 1.384 . S
N2128 C2124 1.427 . S
N2128 C2125 1.384 . S
N2129 C2121 1.427 . S
N2129 C2127 1.384 . S
H2130 C2136 0.930 . S
H2131 C2140 0.930 . S
H2132 C2145 0.929 . S
H2133 C2143 0.929 . S
H2134 C2138 0.929 . S
H2135 C2144 0.929 . S
C2136 H2130 0.930 . S
C2136 C2137 1.367 . S
C2136 C2144 1.378 . S
C2137 C2136 1.367 . S
C2137 C2145 1.433 . S
C2138 H2134 0.929 . S
C2138 C2140 1.378 . S
C2138 C2142 1.350 . S
C2139 C2142 1.463 . S
C2139 C2144 1.350 . S
C2139 N2147 1.427 . S
C2140 H2131 0.930 . S
C2140 C2138 1.378 . S
C2140 C2141 1.367 . S
C2141 C2140 1.367 . S
C2141 C2143 1.433 . S
C2142 C2138 1.350 . S
C2142 C2139 1.463 . S
C2142 N2146 1.427 . S
C2143 H2133 0.929 . S
C2143 C2141 1.433 . S
C2143 N2146 1.384 . S
C2144 H2135 0.929 . S
C2144 C2136 1.378 . S
C2144 C2139 1.350 . S
C2145 H2132 0.929 . S
C2145 C2137 1.433 . S
C2145 N2147 1.384 . S
N2146 C2142 1.427 . S
N2146 C2143 1.384 . S
N2147 C2139 1.427 . S
N2147 C2145 1.384 . S
H2148 C2154 0.930 . S
H2149 C2158 0.930 . S
H2150 C2163 0.929 . S
H2151 C2161 0.929 . S
H2152 C2156 0.929 . S
H2153 C2162 0.929 . S
C2154 H2148 0.930 . S
C2154 C2155 1.367 . S
C2154 C2162 1.378 . S
C2155 C2154 1.367 . S
C2155 C2163 1.433 . S
C2156 H2152 0.929 . S
C2156 C2158 1.378 . S
C2156 C2160 1.350 . S
C2157 C2160 1.463 . S
C2157 C2162 1.350 . S
C2157 N2165 1.427 . S
C2158 H2149 0.930 . S
C2158 C2156 1.378 . S
C2158 C2159 1.367 . S
C2159 C2158 1.367 . S
C2159 C2161 1.433 . S
C2160 C2156 1.350 . S
C2160 C2157 1.463 . S
C2160 N2164 1.427 . S
C2161 H2151 0.929 . S
C2161 C2159 1.433 . S
C2161 N2164 1.384 . S
C2162 H2153 0.929 . S
C2162 C2154 1.378 . S
C2162 C2157 1.350 . S
C2163 H2150 0.929 . S
C2163 C2155 1.433 . S
C2163 N2165 1.384 . S
N2164 C2160 1.427 . S
N2164 C2161 1.384 . S
N2165 C2157 1.427 . S
N2165 C2163 1.384 . S
H2166 C2172 0.930 . S
H2167 C2176 0.930 . S
H2168 C2181 0.929 . S
H2169 C2179 0.929 . S
H2170 C2174 0.929 . S
H2171 C2180 0.929 . S
C2172 H2166 0.930 . S
C2172 C2173 1.367 . S
C2172 C2180 1.378 . S
C2173 C2172 1.367 . S
C2173 C2181 1.433 . S
C2174 H2170 0.929 . S
C2174 C2176 1.378 . S
C2174 C2178 1.350 . S
C2175 C2178 1.463 . S
C2175 C2180 1.350 . S
C2175 N2183 1.427 . S
C2176 H2167 0.930 . S
C2176 C2174 1.378 . S
C2176 C2177 1.367 . S
C2177 C2176 1.367 . S
C2177 C2179 1.433 . S
C2178 C2174 1.350 . S
C2178 C2175 1.463 . S
C2178 N2182 1.427 . S
C2179 H2169 0.929 . S
C2179 C2177 1.433 . S
C2179 N2182 1.384 . S
C2180 H2171 0.929 . S
C2180 C2172 1.378 . S
C2180 C2175 1.350 . S
C2181 H2168 0.929 . S
C2181 C2173 1.433 . S
C2181 N2183 1.384 . S
N2182 C2178 1.427 . S
N2182 C2179 1.384 . S
N2183 C2175 1.427 . S
N2183 C2181 1.384 . S
H2184 C2190 0.930 . S
H2185 C2194 0.930 . S
H2186 C2199 0.929 . S
H2187 C2197 0.929 . S
H2188 C2192 0.929 . S
H2189 C2198 0.929 . S
C2190 H2184 0.930 . S
C2190 C2191 1.367 . S
C2190 C2198 1.378 . S
C2191 C2190 1.367 . S
C2191 C2199 1.433 . S
C2192 H2188 0.929 . S
C2192 C2194 1.378 . S
C2192 C2196 1.350 . S
C2193 C2196 1.463 . S
C2193 C2198 1.350 . S
C2193 N2201 1.427 . S
C2194 H2185 0.930 . S
C2194 C2192 1.378 . S
C2194 C2195 1.367 . S
C2195 C2194 1.367 . S
C2195 C2197 1.433 . S
C2196 C2192 1.350 . S
C2196 C2193 1.463 . S
C2196 N2200 1.427 . S
C2197 H2187 0.929 . S
C2197 C2195 1.433 . S
C2197 N2200 1.384 . S
C2198 H2189 0.929 . S
C2198 C2190 1.378 . S
C2198 C2193 1.350 . S
C2199 H2186 0.929 . S
C2199 C2191 1.433 . S
C2199 N2201 1.384 . S
N2200 C2196 1.427 . S
N2200 C2197 1.384 . S
N2201 C2193 1.427 . S
N2201 C2199 1.384 . S
H2202 C2208 0.930 . S
H2203 C2212 0.930 . S
H2204 C2217 0.929 . S
H2205 C2215 0.929 . S
H2206 C2210 0.929 . S
H2207 C2216 0.929 . S
C2208 H2202 0.930 . S
C2208 C2209 1.367 . S
C2208 C2216 1.378 . S
C2209 C2208 1.367 . S
C2209 C2217 1.433 . S
C2210 H2206 0.929 . S
C2210 C2212 1.378 . S
C2210 C2214 1.350 . S
C2211 C2214 1.463 . S
C2211 C2216 1.350 . S
C2211 N2219 1.427 . S
C2212 H2203 0.930 . S
C2212 C2210 1.378 . S
C2212 C2213 1.367 . S
C2213 C2212 1.367 . S
C2213 C2215 1.433 . S
C2214 C2210 1.350 . S
C2214 C2211 1.463 . S
C2214 N2218 1.427 . S
C2215 H2205 0.929 . S
C2215 C2213 1.433 . S
C2215 N2218 1.384 . S
C2216 H2207 0.929 . S
C2216 C2208 1.378 . S
C2216 C2211 1.350 . S
C2217 H2204 0.929 . S
C2217 C2209 1.433 . S
C2217 N2219 1.384 . S
N2218 C2214 1.427 . S
N2218 C2215 1.384 . S
N2219 C2211 1.427 . S
N2219 C2217 1.384 . S
H2220 C2226 0.930 . S
H2221 C2230 0.930 . S
H2222 C2235 0.929 . S
H2223 C2233 0.929 . S
H2224 C2228 0.929 . S
H2225 C2234 0.929 . S
C2226 H2220 0.930 . S
C2226 C2227 1.367 . S
C2226 C2234 1.378 . S
C2227 C2226 1.367 . S
C2227 C2235 1.433 . S
C2228 H2224 0.929 . S
C2228 C2230 1.378 . S
C2228 C2232 1.350 . S
C2229 C2232 1.463 . S
C2229 C2234 1.350 . S
C2229 N2237 1.427 . S
C2230 H2221 0.930 . S
C2230 C2228 1.378 . S
C2230 C2231 1.367 . S
C2231 C2230 1.367 . S
C2231 C2233 1.433 . S
C2232 C2228 1.350 . S
C2232 C2229 1.463 . S
C2232 N2236 1.427 . S
C2233 H2223 0.929 . S
C2233 C2231 1.433 . S
C2233 N2236 1.384 . S
C2234 H2225 0.929 . S
C2234 C2226 1.378 . S
C2234 C2229 1.350 . S
C2235 H2222 0.929 . S
C2235 C2227 1.433 . S
C2235 N2237 1.384 . S
N2236 C2232 1.427 . S
N2236 C2233 1.384 . S
N2237 C2229 1.427 . S
N2237 C2235 1.384 . S
H2238 C2244 0.930 . S
H2239 C2248 0.930 . S
H2240 C2253 0.929 . S
H2241 C2251 0.929 . S
H2242 C2246 0.929 . S
H2243 C2252 0.929 . S
C2244 H2238 0.930 . S
C2244 C2245 1.367 . S
C2244 C2252 1.378 . S
C2245 C2244 1.367 . S
C2245 C2253 1.433 . S
C2246 H2242 0.929 . S
C2246 C2248 1.378 . S
C2246 C2250 1.350 . S
C2247 C2250 1.463 . S
C2247 C2252 1.350 . S
C2247 N2255 1.427 . S
C2248 H2239 0.930 . S
C2248 C2246 1.378 . S
C2248 C2249 1.367 . S
C2249 C2248 1.367 . S
C2249 C2251 1.433 . S
C2250 C2246 1.350 . S
C2250 C2247 1.463 . S
C2250 N2254 1.427 . S
C2251 H2241 0.929 . S
C2251 C2249 1.433 . S
C2251 N2254 1.384 . S
C2252 H2243 0.929 . S
C2252 C2244 1.378 . S
C2252 C2247 1.350 . S
C2253 H2240 0.929 . S
C2253 C2245 1.433 . S
C2253 N2255 1.384 . S
N2254 C2250 1.427 . S
N2254 C2251 1.384 . S
N2255 C2247 1.427 . S
N2255 C2253 1.384 . S
H2256 C2262 0.930 . S
H2257 C2266 0.930 . S
H2258 C2271 0.929 . S
H2259 C2269 0.929 . S
H2260 C2264 0.929 . S
H2261 C2270 0.929 . S
C2262 H2256 0.930 . S
C2262 C2263 1.367 . S
C2262 C2270 1.378 . S
C2263 C2262 1.367 . S
C2263 C2271 1.433 . S
C2264 H2260 0.929 . S
C2264 C2266 1.378 . S
C2264 C2268 1.350 . S
C2265 C2268 1.463 . S
C2265 C2270 1.350 . S
C2265 N2273 1.427 . S
C2266 H2257 0.930 . S
C2266 C2264 1.378 . S
C2266 C2267 1.367 . S
C2267 C2266 1.367 . S
C2267 C2269 1.433 . S
C2268 C2264 1.350 . S
C2268 C2265 1.463 . S
C2268 N2272 1.427 . S
C2269 H2259 0.929 . S
C2269 C2267 1.433 . S
C2269 N2272 1.384 . S
C2270 H2261 0.929 . S
C2270 C2262 1.378 . S
C2270 C2265 1.350 . S
C2271 H2258 0.929 . S
C2271 C2263 1.433 . S
C2271 N2273 1.384 . S
N2272 C2268 1.427 . S
N2272 C2269 1.384 . S
N2273 C2265 1.427 . S
N2273 C2271 1.384 . S
H2274 C2280 0.930 . S
H2275 C2284 0.930 . S
H2276 C2289 0.929 . S
H2277 C2287 0.929 . S
H2278 C2282 0.929 . S
H2279 C2288 0.929 . S
C2280 H2274 0.930 . S
C2280 C2281 1.367 . S
C2280 C2288 1.378 . S
C2281 C2280 1.367 . S
C2281 C2289 1.433 . S
C2282 H2278 0.929 . S
C2282 C2284 1.378 . S
C2282 C2286 1.350 . S
C2283 C2286 1.463 . S
C2283 C2288 1.350 . S
C2283 N2291 1.427 . S
C2284 H2275 0.930 . S
C2284 C2282 1.378 . S
C2284 C2285 1.367 . S
C2285 C2284 1.367 . S
C2285 C2287 1.433 . S
C2286 C2282 1.350 . S
C2286 C2283 1.463 . S
C2286 N2290 1.427 . S
C2287 H2277 0.929 . S
C2287 C2285 1.433 . S
C2287 N2290 1.384 . S
C2288 H2279 0.929 . S
C2288 C2280 1.378 . S
C2288 C2283 1.350 . S
C2289 H2276 0.929 . S
C2289 C2281 1.433 . S
C2289 N2291 1.384 . S
N2290 C2286 1.427 . S
N2290 C2287 1.384 . S
N2291 C2283 1.427 . S
N2291 C2289 1.384 . S
H2292 C2298 0.930 . S
H2293 C2302 0.930 . S
H2294 C2307 0.929 . S
H2295 C2305 0.929 . S
H2296 C2300 0.929 . S
H2297 C2306 0.929 . S
C2298 H2292 0.930 . S
C2298 C2299 1.367 . S
C2298 C2306 1.378 . S
C2299 C2298 1.367 . S
C2299 C2307 1.433 . S
C2300 H2296 0.929 . S
C2300 C2302 1.378 . S
C2300 C2304 1.350 . S
C2301 C2304 1.463 . S
C2301 C2306 1.350 . S
C2301 N2309 1.427 . S
C2302 H2293 0.930 . S
C2302 C2300 1.378 . S
C2302 C2303 1.367 . S
C2303 C2302 1.367 . S
C2303 C2305 1.433 . S
C2304 C2300 1.350 . S
C2304 C2301 1.463 . S
C2304 N2308 1.427 . S
C2305 H2295 0.929 . S
C2305 C2303 1.433 . S
C2305 N2308 1.384 . S
C2306 H2297 0.929 . S
C2306 C2298 1.378 . S
C2306 C2301 1.350 . S
C2307 H2294 0.929 . S
C2307 C2299 1.433 . S
C2307 N2309 1.384 . S
N2308 C2304 1.427 . S
N2308 C2305 1.384 . S
N2309 C2301 1.427 . S
N2309 C2307 1.384 . S
H2310 C2316 0.930 . S
H2311 C2320 0.930 . S
H2312 C2325 0.929 . S
H2313 C2323 0.929 . S
H2314 C2318 0.929 . S
H2315 C2324 0.929 . S
C2316 H2310 0.930 . S
C2316 C2317 1.367 . S
C2316 C2324 1.378 . S
C2317 C2316 1.367 . S
C2317 C2325 1.433 . S
C2318 H2314 0.929 . S
C2318 C2320 1.378 . S
C2318 C2322 1.350 . S
C2319 C2322 1.463 . S
C2319 C2324 1.350 . S
C2319 N2327 1.427 . S
C2320 H2311 0.930 . S
C2320 C2318 1.378 . S
C2320 C2321 1.367 . S
C2321 C2320 1.367 . S
C2321 C2323 1.433 . S
C2322 C2318 1.350 . S
C2322 C2319 1.463 . S
C2322 N2326 1.427 . S
C2323 H2313 0.929 . S
C2323 C2321 1.433 . S
C2323 N2326 1.384 . S
C2324 H2315 0.929 . S
C2324 C2316 1.378 . S
C2324 C2319 1.350 . S
C2325 H2312 0.929 . S
C2325 C2317 1.433 . S
C2325 N2327 1.384 . S
N2326 C2322 1.427 . S
N2326 C2323 1.384 . S
N2327 C2319 1.427 . S
N2327 C2325 1.384 . S
H2328 C2334 0.930 . S
H2329 C2338 0.930 . S
H2330 C2343 0.929 . S
H2331 C2341 0.929 . S
H2332 C2336 0.929 . S
H2333 C2342 0.929 . S
C2334 H2328 0.930 . S
C2334 C2335 1.367 . S
C2334 C2342 1.378 . S
C2335 C2334 1.367 . S
C2335 C2343 1.433 . S
C2336 H2332 0.929 . S
C2336 C2338 1.378 . S
C2336 C2340 1.350 . S
C2337 C2340 1.463 . S
C2337 C2342 1.350 . S
C2337 N2345 1.427 . S
C2338 H2329 0.930 . S
C2338 C2336 1.378 . S
C2338 C2339 1.367 . S
C2339 C2338 1.367 . S
C2339 C2341 1.433 . S
C2340 C2336 1.350 . S
C2340 C2337 1.463 . S
C2340 N2344 1.427 . S
C2341 H2331 0.929 . S
C2341 C2339 1.433 . S
C2341 N2344 1.384 . S
C2342 H2333 0.929 . S
C2342 C2334 1.378 . S
C2342 C2337 1.350 . S
C2343 H2330 0.929 . S
C2343 C2335 1.433 . S
C2343 N2345 1.384 . S
N2344 C2340 1.427 . S
N2344 C2341 1.384 . S
N2345 C2337 1.427 . S
N2345 C2343 1.384 . S
H2346 C2352 0.930 . S
H2347 C2356 0.930 . S
H2348 C2361 0.929 . S
H2349 C2359 0.929 . S
H2350 C2354 0.929 . S
H2351 C2360 0.929 . S
C2352 H2346 0.930 . S
C2352 C2353 1.367 . S
C2352 C2360 1.378 . S
C2353 C2352 1.367 . S
C2353 C2361 1.433 . S
C2354 H2350 0.929 . S
C2354 C2356 1.378 . S
C2354 C2358 1.350 . S
C2355 C2358 1.463 . S
C2355 C2360 1.350 . S
C2355 N2363 1.427 . S
C2356 H2347 0.930 . S
C2356 C2354 1.378 . S
C2356 C2357 1.367 . S
C2357 C2356 1.367 . S
C2357 C2359 1.433 . S
C2358 C2354 1.350 . S
C2358 C2355 1.463 . S
C2358 N2362 1.427 . S
C2359 H2349 0.929 . S
C2359 C2357 1.433 . S
C2359 N2362 1.384 . S
C2360 H2351 0.929 . S
C2360 C2352 1.378 . S
C2360 C2355 1.350 . S
C2361 H2348 0.929 . S
C2361 C2353 1.433 . S
C2361 N2363 1.384 . S
N2362 C2358 1.427 . S
N2362 C2359 1.384 . S
N2363 C2355 1.427 . S
N2363 C2361 1.384 . S
H2364 C2370 0.930 . S
H2365 C2374 0.930 . S
H2366 C2379 0.929 . S
H2367 C2377 0.929 . S
H2368 C2372 0.929 . S
H2369 C2378 0.929 . S
C2370 H2364 0.930 . S
C2370 C2371 1.367 . S
C2370 C2378 1.378 . S
C2371 C2370 1.367 . S
C2371 C2379 1.433 . S
C2372 H2368 0.929 . S
C2372 C2374 1.378 . S
C2372 C2376 1.350 . S
C2373 C2376 1.463 . S
C2373 C2378 1.350 . S
C2373 N2381 1.427 . S
C2374 H2365 0.930 . S
C2374 C2372 1.378 . S
C2374 C2375 1.367 . S
C2375 C2374 1.367 . S
C2375 C2377 1.433 . S
C2376 C2372 1.350 . S
C2376 C2373 1.463 . S
C2376 N2380 1.427 . S
C2377 H2367 0.929 . S
C2377 C2375 1.433 . S
C2377 N2380 1.384 . S
C2378 H2369 0.929 . S
C2378 C2370 1.378 . S
C2378 C2373 1.350 . S
C2379 H2366 0.929 . S
C2379 C2371 1.433 . S
C2379 N2381 1.384 . S
N2380 C2376 1.427 . S
N2380 C2377 1.384 . S
N2381 C2373 1.427 . S
N2381 C2379 1.384 . S
H2382 C2388 0.930 . S
H2383 C2392 0.930 . S
H2384 C2397 0.929 . S
H2385 C2395 0.929 . S
H2386 C2390 0.929 . S
H2387 C2396 0.929 . S
C2388 H2382 0.930 . S
C2388 C2389 1.367 . S
C2388 C2396 1.378 . S
C2389 C2388 1.367 . S
C2389 C2397 1.433 . S
C2390 H2386 0.929 . S
C2390 C2392 1.378 . S
C2390 C2394 1.350 . S
C2391 C2394 1.463 . S
C2391 C2396 1.350 . S
C2391 N2399 1.427 . S
C2392 H2383 0.930 . S
C2392 C2390 1.378 . S
C2392 C2393 1.367 . S
C2393 C2392 1.367 . S
C2393 C2395 1.433 . S
C2394 C2390 1.350 . S
C2394 C2391 1.463 . S
C2394 N2398 1.427 . S
C2395 H2385 0.929 . S
C2395 C2393 1.433 . S
C2395 N2398 1.384 . S
C2396 H2387 0.929 . S
C2396 C2388 1.378 . S
C2396 C2391 1.350 . S
C2397 H2384 0.929 . S
C2397 C2389 1.433 . S
C2397 N2399 1.384 . S
N2398 C2394 1.427 . S
N2398 C2395 1.384 . S
N2399 C2391 1.427 . S
N2399 C2397 1.384 . S
C679 C127 2.201 . S
C683 C1 2.205 . S
C697 C152 2.202 . S
C701 C14 2.219 . S
C715 C155 2.221 . S
C719 C40 2.202 . S
C733 C124 2.202 . S
C737 C54 2.206 . S
C751 C57 2.201 . S
C755 C223 2.221 . S
C769 C82 2.202 . S
C773 C168 2.204 . S
C787 C97 2.204 . S
C791 C194 2.205 . S
C805 C196 2.206 . S
C809 C98 2.217 . S
C823 C236 2.201 . S
C827 C264 2.205 . S
C841 C239 2.203 . S
C845 C656 2.220 . S
C859 C278 2.203 . S
C863 C658 2.216 . S
C877 C292 2.218 . S
C881 C631 2.202 . S
C895 C306 2.204 . S
C899 C616 2.205 . S
C913 C586 2.203 . S
C917 C308 2.206 . S
C931 C334 2.201 . S
C935 C603 2.205 . S
C949 C474 2.216 . S
C953 C349 2.203 . S
C967 C476 2.205 . S
C971 C350 2.205 . S
C985 C491 2.201 . S
C989 C376 2.205 . S
C1003 C448 2.201 . S
C1007 C378 2.220 . S
C1021 C559 2.203 . S
C1025 C405 2.205 . S
C1039 C504 2.204 . S
C1043 C418 2.216 . S
C1057 C421 2.206 . S
C1061 C531 2.218 . S
C1075 C435 2.204 . S
C1079 C532 2.202 . S
C1093 C561 2.201 . S
C1097 C600 2.220 . S
C1111 C224 1.159 . S
C1115 C0 1.176 . S
C1129 C670 1.161 . S
C1133 C15 1.177 . S
C1147 C41 1.179 . S
C1151 C294 1.159 . S
C1165 C644 1.150 . S
C1169 C55 1.173 . S
C1183 C56 1.180 . S
C1187 C574 1.161 . S
C1201 C588 1.164 . S
C1205 C83 1.178 . S
C1219 C96 1.174 . S
C1223 C615 1.148 . S
C1237 C280 1.151 . S
C1241 C99 1.174 . S
C1255 C125 1.174 . S
C1259 C13 1.154 . S
C1273 C26 1.157 . S
C1277 C126 1.179 . S
C1291 C153 1.176 . S
C1295 C28 1.161 . S
C1309 C42 1.154 . S
C1313 C154 1.174 . S
C1327 C169 1.178 . S
C1331 C69 1.162 . S
C1345 C70 1.165 . S
C1349 C195 1.180 . S
C1363 C197 1.180 . S
C1367 C85 1.164 . S
C1381 C222 1.180 . S
C1385 C110 1.162 . S
C1399 C237 1.174 . S
C1403 C112 1.155 . S
C1417 C238 1.174 . S
C1421 C516 1.150 . S
C1435 C519 1.164 . S
C1439 C265 1.180 . S
C1453 C544 1.165 . S
C1457 C279 1.180 . S
C1471 C211 1.161 . S
C1475 C293 1.177 . S
C1489 C307 1.175 . S
C1493 C140 1.152 . S
C1507 C503 1.164 . S
C1511 C309 1.180 . S
C1525 C335 1.175 . S
C1529 C462 1.158 . S
C1543 C348 1.181 . S
C1547 C573 1.163 . S
C1561 C351 1.176 . S
C1565 C322 1.153 . S
C1579 C377 1.172 . S
C1583 C643 1.149 . S
C1597 C379 1.178 . S
C1601 C320 1.163 . S
C1615 C404 1.181 . S
C1619 C251 1.164 . S
C1633 C419 1.177 . S
C1637 C252 1.162 . S
C1651 C266 1.165 . S
C1655 C420 1.180 . S
C1669 C628 1.165 . S
C1673 C434 1.181 . S
C1687 C337 1.161 . S
C1691 C449 1.180 . S
C1705 C362 1.161 . S
C1709 C475 1.179 . S
C1723 C477 1.173 . S
C1727 C364 1.154 . S
C1741 C390 1.155 . S
C1745 C490 1.178 . S
C1759 C505 1.180 . S
C1763 C393 1.163 . S
C1777 C530 1.181 . S
C1781 C406 1.163 . S
C1795 C533 1.173 . S
C1799 C433 1.152 . S
C1813 C447 1.156 . S
C1817 C558 1.175 . S
C1831 C560 1.175 . S
C1835 C460 1.156 . S
C1849 C587 1.173 . S
C1853 C180 1.150 . S
C1867 C182 1.154 . S
C1871 C601 1.176 . S
C1885 C602 1.176 . S
C1889 C208 1.152 . S
C1903 C617 1.174 . S
C1907 C547 1.156 . S
C1921 C488 1.163 . S
C1925 C630 1.179 . S
C1939 C167 1.159 . S
C1943 C657 1.179 . S
C1957 C139 1.163 . S
C1961 C659 1.181 . S
C1975 C321 1.559 . S
C1979 C12 1.564 . S
C1993 C27 1.555 . S
C1997 C572 1.561 . S
C2011 C29 1.556 . S
C2015 C323 1.560 . S
C2029 C642 1.552 . S
C2033 C43 1.550 . S
C2047 C68 1.553 . S
C2051 C253 1.550 . S
C2065 C267 1.566 . S
C2069 C71 1.564 . S
C2083 C629 1.550 . S
C2087 C84 1.553 . S
C2101 C111 1.555 . S
C2105 C250 1.561 . S
C2119 C183 1.556 . S
C2123 C113 1.552 . S
C2137 C138 1.567 . S
C2141 C209 1.563 . S
C2155 C210 1.565 . S
C2159 C141 1.560 . S
C2173 C166 1.561 . S
C2177 C181 1.555 . S
C2191 C363 1.554 . S
C2195 C225 1.551 . S
C2209 C281 1.550 . S
C2213 C432 1.554 . S
C2227 C295 1.557 . S
C2231 C391 1.561 . S
C2245 C645 1.557 . S
C2249 C336 1.563 . S
C2263 C365 1.559 . S
C2267 C671 1.563 . S
C2281 C392 1.562 . S
C2285 C589 1.557 . S
C2299 C407 1.555 . S
C2303 C614 1.553 . S
C2317 C575 1.554 . S
C2321 C446 1.560 . S
C2335 C518 1.565 . S
C2339 C461 1.565 . S
C2353 C463 1.558 . S
C2357 C545 1.562 . S
C2371 C489 1.550 . S
C2375 C546 1.553 . S
C2389 C517 1.566 . S
C2393 C502 1.565 . S
