# Generated by pormake.
# Topology tfs, (6)-cn, num edge types: 1
# Building blocks:
#     Node 0, Type 0, BuildingBlock: UKALOJ_clean_sbu_0, # of connection points: 6
#     Node 1, Type 0, BuildingBlock: UKALOJ_clean_sbu_0, # of connection points: 6
#     Node 2, Type 0, BuildingBlock: UKALOJ_clean_sbu_0, # of connection points: 6
#     Node 3, Type 0, BuildingBlock: UKALOJ_clean_sbu_0, # of connection points: 6
#     Node 4, Type 0, BuildingBlock: UKALOJ_clean_sbu_0, # of connection points: 6
#     Node 5, Type 0, BuildingBlock: UKALOJ_clean_sbu_0, # of connection points: 6
#     Edge 6, Type (0, 0), BuildingBlock: FUNLAD_clean_linker_0, # of connection points: 2
#     Edge 7, Type (0, 0), BuildingBlock: FUNLAD_clean_linker_0, # of connection points: 2
#     Edge 8, Type (0, 0), BuildingBlock: FUNLAD_clean_linker_0, # of connection points: 2
#     Edge 9, Type (0, 0), BuildingBlock: FUNLAD_clean_linker_0, # of connection points: 2
#     Edge 10, Type (0, 0), BuildingBlock: FUNLAD_clean_linker_0, # of connection points: 2
#     Edge 11, Type (0, 0), BuildingBlock: FUNLAD_clean_linker_0, # of connection points: 2
#     Edge 12, Type (0, 0), BuildingBlock: FUNLAD_clean_linker_0, # of connection points: 2
#     Edge 13, Type (0, 0), BuildingBlock: FUNLAD_clean_linker_0, # of connection points: 2
#     Edge 14, Type (0, 0), BuildingBlock: FUNLAD_clean_linker_0, # of connection points: 2
#     Edge 15, Type (0, 0), BuildingBlock: FUNLAD_clean_linker_0, # of connection points: 2
#     Edge 16, Type (0, 0), BuildingBlock: FUNLAD_clean_linker_0, # of connection points: 2
#     Edge 17, Type (0, 0), BuildingBlock: FUNLAD_clean_linker_0, # of connection points: 2
#     Edge 18, Type (0, 0), BuildingBlock: FUNLAD_clean_linker_0, # of connection points: 2
#     Edge 19, Type (0, 0), BuildingBlock: FUNLAD_clean_linker_0, # of connection points: 2
#     Edge 20, Type (0, 0), BuildingBlock: FUNLAD_clean_linker_0, # of connection points: 2
#     Edge 21, Type (0, 0), BuildingBlock: FUNLAD_clean_linker_0, # of connection points: 2
#     Edge 22, Type (0, 0), BuildingBlock: FUNLAD_clean_linker_0, # of connection points: 2
#     Edge 23, Type (0, 0), BuildingBlock: FUNLAD_clean_linker_0, # of connection points: 2
# Relax obj value: 0.221
# Max RMSD: 0.156
# Mean RMSD: 0.156
data_MOF--net-tfs--node1-UKALOJ_clean_sbu_0--edge1-FUNLAD_clean_linker_0
_symmetry_space_group_name_H-M    P1
_symmetry_Int_Tables_number       1
_symmetry_cell_setting            triclinic
loop_
_symmetry_equiv_pos_as_xyz
'x, y, z'
_cell_length_a     54.35032
_cell_length_b     54.3729
_cell_length_c     17.87319
_cell_angle_alpha  89.803051
_cell_angle_beta   90.281989
_cell_angle_gamma 119.9804
loop_
_atom_site_label
_atom_site_type_symbol
_atom_site_fract_x
_atom_site_fract_y
_atom_site_fract_z
_atom_type_partial_charge
Zn0 Zn 0.1749 0.44611 0.97699 0.0
O1 O 0.17358 0.44518 0.09509 0.0
C2 C 0.23716 0.46837 0.98286 0.0
Zn3 Zn 0.18494 0.41109 0.97208 0.0
C4 C 0.17738 0.4266 0.12823 0.0
O5 O 0.1821 0.40976 0.08983 0.0
C6 C 0.18243 0.4306 0.82075 0.0
O7 O 0.14041 0.38101 0.96415 0.0
O8 O 0.13134 0.41589 0.97358 0.0
N9 N 0.19329 0.37825 0.97589 0.0
C10 C 0.21561 0.37582 0.95317 0.0
C11 C 0.1868 0.33711 0.00773 0.0
N12 N 0.17539 0.35412 0.0095 0.0
N13 N 0.21215 0.35025 0.97303 0.0
C14 C 0.17508 0.5033 0.00473 0.0
C15 C 0.14472 0.49947 0.92288 0.0
N16 N 0.16478 0.47764 0.972 0.0
N17 N 0.14574 0.47528 0.92179 0.0
N18 N 0.1629 0.51752 0.9744 0.0
H19 H 0.2072 0.50103 0.07216 0.0
H20 H 0.18855 0.51587 0.11762 0.0
H21 H 0.21473 0.53658 0.04839 0.0
C22 C 0.19787 0.5148 0.06357 0.0
C23 C 0.23986 0.39783 0.9081 0.0
H24 H 0.23303 0.41045 0.8741 0.0
H25 H 0.24852 0.38776 0.8707 0.0
H26 H 0.25698 0.41246 0.94653 0.0
O27 O 0.18745 0.41286 0.85402 0.0
O28 O 0.17642 0.44652 0.85906 0.0
C29 C 0.12246 0.38951 0.9673 0.0
O30 O 0.2185 0.47588 0.97974 0.0
O31 O 0.2293 0.44205 0.98116 0.0
Zn32 Zn 0.73345 0.17445 0.96836 0.0
O33 O 0.73425 0.17334 0.08647 0.0
C34 C 0.77397 0.23609 0.97271 0.0
Zn35 Zn 0.77806 0.18306 0.96341 0.0
C36 C 0.75647 0.17668 0.11963 0.0
O37 O 0.77784 0.18083 0.0812 0.0
C38 C 0.75495 0.18073 0.8121 0.0
O39 O 0.76345 0.13862 0.95721 0.0
O40 O 0.71993 0.13088 0.96569 0.0
N41 N 0.81936 0.19158 0.96349 0.0
C42 C 0.84355 0.2138 0.93741 0.0
C43 C 0.85484 0.18594 -0.00789 0.0
N44 N 0.82644 0.17427 -0.00282 0.0
N45 N 0.86617 0.21087 0.9552 0.0
C46 C 0.67802 0.17696 -0.00366 0.0
C47 C 0.64736 0.14003 0.93812 0.0
N48 N 0.69177 0.16425 0.96784 0.0
N49 N 0.67264 0.14127 0.93194 0.0
N50 N 0.65015 0.16224 0.97807 0.0
H51 H 0.70956 0.20373 0.07732 0.0
H52 H 0.67589 0.20274 0.08472 0.0
H53 H 0.69991 0.22202 0.00971 0.0
C54 C 0.6916 0.20277 0.04526 0.0
C55 C 0.84472 0.23742 0.89117 0.0
H56 H 0.82477 0.23006 0.85914 0.0
H57 H 0.86285 0.24588 0.85173 0.0
H58 H 0.84752 0.25486 0.9286 0.0
O59 O 0.77747 0.18493 0.8453 0.0
O60 O 0.73328 0.17563 0.85048 0.0
C61 C 0.73688 0.12128 0.96043 0.0
O62 O 0.74754 0.21822 0.97069 0.0
O63 O 0.79167 0.22725 0.97105 0.0
Zn64 Zn 0.5632 0.73017 -0.00346 0.0
O65 O 0.56559 0.73061 0.1147 0.0
C66 C 0.53803 0.76805 0.00276 0.0
Zn67 Zn 0.59612 0.77605 -0.00873 0.0
C68 C 0.58302 0.75354 0.14768 0.0
O69 O 0.59854 0.77561 0.10909 0.0
C70 C 0.57632 0.75259 0.84011 0.0
O71 O 0.6277 0.7643 0.98326 0.0
O72 O 0.5956 0.71918 -0.0089 0.0
N73 N 0.62743 0.81776 -0.00875 0.0
C74 C 0.62882 0.84154 0.96368 0.0
C75 C 0.66851 0.85377 0.01668 0.0
N76 N 0.65213 0.82543 0.02402 0.0
N77 N 0.65438 0.86447 0.97927 0.0
C78 C 0.50653 0.67322 0.02332 0.0
C79 C 0.51367 0.64408 0.96081 0.0
N80 N 0.53307 0.68786 -0.00453 0.0
N81 N 0.53748 0.66965 0.95702 0.0
N82 N 0.49381 0.64572 0.0018 0.0
H83 H 0.51051 0.70318 0.10791 0.0
H84 H 0.47836 0.66896 0.11322 0.0
H85 H 0.48238 0.69387 0.04118 0.0
C86 C 0.49378 0.6855 0.07476 0.0
C87 C 0.60575 0.84193 0.91827 0.0
H88 H 0.59293 0.82159 0.8884 0.0
H89 H 0.61483 0.85955 0.87702 0.0
H90 H 0.59143 0.84504 0.95617 0.0
O91 O 0.59331 0.77566 0.87313 0.0
O92 O 0.56132 0.73037 0.87868 0.0
C93 C 0.62147 0.73847 0.98487 0.0
O94 O 0.53152 0.7421 0.00102 0.0
O95 O 0.56404 0.78727 0.0001 0.0
Zn96 Zn 0.83486 0.56227 0.95171 0.0
O97 O 0.83548 0.56325 0.06983 0.0
C98 C 0.77353 0.54208 0.95243 0.0
Zn99 Zn 0.82713 0.59886 0.94575 0.0
C100 C 0.83218 0.58216 0.10245 0.0
O101 O 0.82842 0.59962 0.06354 0.0
C102 C 0.82998 0.57896 0.79497 0.0
O103 O 0.87142 0.62844 0.94313 0.0
O104 O 0.87875 0.5923 0.95096 0.0
N105 N 0.81798 0.63119 0.94704 0.0
C106 C 0.79529 0.6323 0.9204 0.0
C107 C 0.81961 0.66954 0.98577 0.0
N108 N 0.83317 0.65446 -0.01279 0.0
N109 N 0.79563 0.65597 0.94469 0.0
C110 C 0.83121 0.50367 0.97753 0.0
C111 C 0.86431 0.50758 0.90631 0.0
N112 N 0.84428 0.53026 0.94945 0.0
N113 N 0.86502 0.53269 0.90582 0.0
N114 N 0.84344 0.4891 0.9514 0.0
H115 H 0.80381 0.50799 0.05683 0.0
H116 H 0.80493 0.47537 0.06455 0.0
H117 H 0.78611 0.48015 -0.0116 0.0
C118 C 0.80508 0.49122 0.02502 0.0
C119 C 0.77353 0.61097 0.86784 0.0
H120 H 0.7826 0.60056 0.83363 0.0
H121 H 0.76507 0.62133 0.83029 0.0
H122 H 0.7556 0.59435 0.90031 0.0
O123 O 0.82632 0.59762 0.82759 0.0
O124 O 0.83416 0.56181 0.83393 0.0
C125 C 0.88856 0.61895 0.94709 0.0
O126 O 0.79083 0.53282 0.95215 0.0
O127 O 0.78309 0.56869 0.95028 0.0
Zn128 Zn 0.27768 0.83401 0.05453 0.0
O129 O 0.27625 0.83356 0.17224 0.0
C130 C 0.23876 0.77112 0.05003 0.0
Zn131 Zn 0.23204 0.82219 0.04699 0.0
C132 C 0.25289 0.8268 0.20444 0.0
O133 O 0.23108 0.82098 0.16514 0.0
C134 C 0.25696 0.82955 0.89708 0.0
O135 O 0.24454 0.8658 0.04904 0.0
O136 O 0.28945 0.87767 0.05458 0.0
N137 N 0.19035 0.81222 0.04515 0.0
C138 C 0.1671 0.79125 0.01136 0.0
C139 C 0.15381 0.81606 0.0729 0.0
N140 N 0.18203 0.82763 0.08319 0.0
N141 N 0.14385 0.79309 0.02833 0.0
C142 C 0.33377 0.83239 0.08079 0.0
C143 C 0.36389 0.86934 0.02198 0.0
N144 N 0.31986 0.84542 0.05482 0.0
N145 N 0.3387 0.86848 0.01872 0.0
N146 N 0.36137 0.84681 0.06024 0.0
H147 H 0.30273 0.80503 0.1617 0.0
H148 H 0.33666 0.80644 0.16785 0.0
H149 H 0.31247 0.78741 0.09277 0.0
C150 C 0.32064 0.80639 0.12903 0.0
C151 C 0.16746 0.76995 0.959 0.0
H152 H 0.18854 0.77816 0.93297 0.0
H153 H 0.15119 0.76415 0.91444 0.0
H154 H 0.16251 0.75053 -0.00906 0.0
O155 O 0.23394 0.82388 0.92933 0.0
O156 O 0.27847 0.83439 0.93638 0.0
C157 C 0.27056 0.88493 0.05189 0.0
O158 O 0.26486 0.79005 0.05443 0.0
O159 O 0.22009 0.77862 0.04526 0.0
Zn160 Zn 0.44688 0.27709 0.00139 0.0
O161 O 0.44954 0.27948 0.11937 0.0
C162 C 0.47054 0.23827 0.00275 0.0
Zn163 Zn 0.41264 0.23172 0.00796 0.0
C164 C 0.43318 0.25782 0.15829 0.0
O165 O 0.41542 0.23501 0.12558 0.0
C166 C 0.42609 0.25096 0.85108 0.0
O167 O 0.38158 0.24514 0.00752 0.0
O168 O 0.4161 0.28956 0.00441 0.0
N169 N 0.3814 0.19001 0.01843 0.0
C170 C 0.38034 0.1659 -0.00468 0.0
C171 C 0.34384 0.15383 0.06284 0.0
N172 N 0.35862 0.18244 0.06005 0.0
N173 N 0.35714 0.14291 0.02314 0.0
C174 C 0.5056 0.33189 0.0148 0.0
C175 C 0.5004 0.36109 0.94608 0.0
N176 N 0.47837 0.31857 -0.00884 0.0
N177 N 0.47514 0.33682 0.94886 0.0
N178 N 0.51992 0.35845 0.98659 0.0
H179 H 0.50138 0.30328 0.10468 0.0
H180 H 0.53465 0.3364 0.1033 0.0
H181 H 0.52773 0.30923 0.03608 0.0
C182 C 0.51791 0.31947 0.0681 0.0
C183 C 0.40118 0.16485 0.94256 0.0
H184 H 0.41069 0.18361 0.90524 0.0
H185 H 0.39068 0.1453 0.90805 0.0
H186 H 0.41851 0.1647 0.9751 0.0
O187 O 0.41021 0.22913 0.89007 0.0
O188 O 0.44338 0.274 0.8837 0.0
C189 C 0.3897 0.27155 0.00632 0.0
O190 O 0.47732 0.26416 -0.00248 0.0
O191 O 0.44449 0.21952 0.00909 0.0
C192 C 0.33984 0.26307 -0.00535 0.0
C193 C 0.36898 0.2817 0.00688 0.0
C194 C 0.32071 0.27329 -0.00654 0.0
C195 C 0.33044 0.30236 0.00494 0.0
C196 C 0.35943 0.32074 0.01863 0.0
C197 C 0.3785 0.31063 0.01902 0.0
C198 C 0.31121 0.31445 0.00536 0.0
C199 C 0.2864 0.30326 0.9676 0.0
C200 C 0.26793 0.3163 0.96683 0.0
C201 C 0.23889 0.29912 0.95047 0.0
C202 C 0.22074 0.31044 0.95105 0.0
C203 C 0.23132 0.3393 0.96674 0.0
H204 H 0.30091 0.35968 -0.00819 0.0
C205 C 0.26041 0.35663 0.98186 0.0
C206 C 0.27858 0.34538 0.98118 0.0
H207 H 0.26907 0.37873 -0.00365 0.0
H208 H 0.33183 0.24064 0.9855 0.0
H209 H 0.2984 0.25831 0.9848 0.0
H210 H 0.36748 0.34315 0.0283 0.0
H211 H 0.40076 0.32557 0.02914 0.0
H212 H 0.31849 0.33392 0.03685 0.0
H213 H 0.27902 0.28366 0.93659 0.0
H214 H 0.23009 0.27674 0.93856 0.0
H215 H 0.19834 0.29661 0.93968 0.0
C216 C 0.0808 0.34003 0.95249 0.0
C217 C 0.0915 0.36917 0.96486 0.0
C218 C 0.05144 0.32107 0.95147 0.0
C219 C 0.03221 0.33096 0.96295 0.0
C220 C 0.04301 0.36003 0.97554 0.0
C221 C 0.07222 0.37892 0.97603 0.0
C222 C 1.0009 0.31179 0.96575 0.0
C223 C 0.9869 0.28625 0.93192 0.0
C224 C 0.95544 0.26747 0.93555 0.0
C225 C 0.9437 0.23824 0.92248 0.0
C226 C 0.91437 0.21979 0.92763 0.0
C227 C 0.89607 0.23022 0.94479 0.0
H228 H 0.94481 0.30032 0.95968 0.0
C229 C 0.9077 0.25946 0.95678 0.0
C230 C 0.93697 0.27793 0.9514 0.0
H231 H 0.8943 0.26805 0.97237 0.0
H232 H 0.0951 0.33183 0.94408 0.0
H233 H 0.04402 0.29873 0.94353 0.0
H234 H 0.02876 0.36823 0.98501 0.0
H235 H 0.07966 0.4012 0.98596 0.0
H236 H 0.98907 0.31958 -0.00328 0.0
H237 H 0.99877 0.27838 0.90141 0.0
H238 H 0.9573 0.22956 0.90961 0.0
H239 H 0.90592 0.1973 0.91858 0.0
C240 C 0.7432 0.07861 0.9502 0.0
C241 C 0.72539 0.0902 0.95999 0.0
C242 C 0.73199 0.04914 0.95193 0.0
C243 C 0.70272 0.03075 0.96361 0.0
C244 C 0.68507 0.04243 0.97339 0.0
C245 C 0.69619 0.07173 0.97114 0.0
C246 C 0.68983 0.99946 0.96986 0.0
C247 C 0.70065 0.98453 0.93781 0.0
C248 C 0.6876 0.95319 0.94571 0.0
C249 C 0.70467 0.94089 0.93452 0.0
C250 C 0.69356 0.91171 0.94417 0.0
C251 C 0.665 0.8941 0.96414 0.0
H252 H 0.64452 0.94366 0.97116 0.0
C253 C 0.64773 0.90623 0.97406 0.0
C254 C 0.65877 0.93538 0.96418 0.0
H255 H 0.62588 0.89335 -0.00852 0.0
H256 H 0.76581 0.09229 0.94192 0.0
H257 H 0.74643 0.04101 0.94615 0.0
H258 H 0.66251 0.02881 0.98294 0.0
H259 H 0.68183 0.07989 0.97912 0.0
H260 H 0.67039 0.98849 0.00202 0.0
H261 H 0.72018 0.99561 0.90596 0.0
H262 H 0.72686 0.95398 0.91972 0.0
H263 H 0.70733 0.90284 0.93651 0.0
C264 C 0.78081 0.69182 0.92931 0.0
C265 C 0.77373 0.66345 0.93996 0.0
C266 C 0.75964 0.69934 0.92869 0.0
C267 C 0.73096 0.67855 0.93965 0.0
C268 C 0.724 0.6502 0.94978 0.0
C269 C 0.74514 0.64278 0.9509 0.0
C270 C 0.70762 0.6853 0.94073 0.0
C271 C 0.71126 0.71077 0.96095 0.0
C272 C 0.68759 0.71704 0.96615 0.0
C273 C 0.6941 0.74547 0.9642 0.0
C274 C 0.67266 0.75242 0.97022 0.0
C275 C 0.64416 0.73104 0.97888 0.0
H276 H 0.65308 0.6735 0.98027 0.0
C277 C 0.6376 0.70258 0.9817 0.0
C278 C 0.65905 0.69563 0.97574 0.0
H279 H 0.61589 0.68561 -0.01098 0.0
H280 H 0.80275 0.70812 0.92124 0.0
H281 H 0.76583 0.72133 0.91885 0.0
H282 H 0.70214 0.63378 0.95876 0.0
H283 H 0.73912 0.62098 0.96263 0.0
H284 H 0.68654 0.6681 0.92689 0.0
H285 H 0.7324 0.72792 0.97468 0.0
H286 H 0.71587 0.76243 0.95764 0.0
H287 H 0.67849 0.77459 0.96806 0.0
C288 C 0.10253 0.74515 0.00873 0.0
C289 C 0.11457 0.77476 0.00781 0.0
C290 C 0.07383 0.72743 -0.00833 0.0
C291 C 0.05625 0.73895 0.97508 0.0
C292 C 0.06843 0.76862 0.97365 0.0
C293 C 0.09722 0.78633 -0.00966 0.0
C294 C 0.0253 0.7209 0.95904 0.0
C295 C 0.00985 0.69348 0.98012 0.0
C296 C 0.97885 0.67528 0.96632 0.0
C297 C 0.96726 0.64573 0.96721 0.0
C298 C 0.93808 0.62756 0.95907 0.0
C299 C 0.91965 0.63851 0.95058 0.0
H300 H 0.96845 0.70899 0.95754 0.0
C301 C 0.93119 0.66812 0.94878 0.0
C302 C 0.9605 0.68636 0.95665 0.0
H303 H 0.91753 0.67723 0.94279 0.0
H304 H 0.1151 0.73557 0.02431 0.0
H305 H 0.06576 0.70479 -0.0085 0.0
H306 H 0.05554 0.77816 0.96069 0.0
H307 H 0.10601 0.80913 -0.01034 0.0
H308 H 0.01495 0.73091 0.93029 0.0
H309 H 0.02009 0.68345 0.00914 0.0
H310 H 0.98083 0.63659 0.97488 0.0
H311 H 0.92996 0.60487 0.96079 0.0
C312 C 0.30737 0.93669 0.05391 0.0
C313 C 0.27867 0.91531 0.05091 0.0
C314 C 0.31499 0.96535 0.05172 0.0
C315 C 0.29401 0.97329 0.04587 0.0
C316 C 0.26534 0.95187 0.0442 0.0
C317 C 0.25774 0.92324 0.04641 0.0
C318 C 0.30096 0.00348 0.04349 0.0
C319 C 0.32648 0.02519 0.02289 0.0
C320 C 0.33357 0.05539 0.02204 0.0
C321 C 0.36215 0.07659 0.02965 0.0
C322 C 0.36991 0.10525 0.02969 0.0
C323 C 0.34932 0.11342 0.02031 0.0
H324 H 0.29071 0.04794 0.00479 0.0
C325 C 0.32072 0.0923 0.01245 0.0
C326 C 0.31287 0.06355 0.01281 0.0
H327 H 0.30448 0.09813 0.00551 0.0
H328 H 0.32402 0.93132 0.05813 0.0
H329 H 0.33728 0.98104 0.05588 0.0
H330 H 0.24871 0.9573 0.0405 0.0
H331 H 0.2354 0.90733 0.04432 0.0
H332 H 0.28416 0.00775 0.0589 0.0
H333 H 0.34336 0.02105 0.00754 0.0
H334 H 0.37852 0.07096 0.03713 0.0
H335 H 0.39195 0.12095 0.03902 0.0
C336 C 0.20371 0.72024 0.02177 0.0
C337 C 0.23014 0.74065 0.05108 0.0
C338 C 0.19563 0.69147 0.0222 0.0
C339 C 0.21385 0.68249 0.05214 0.0
C340 C 0.23991 0.70281 0.0832 0.0
C341 C 0.24808 0.7316 0.08221 0.0
C342 C 0.20618 0.65214 0.05243 0.0
C343 C 0.18983 0.6338 -0.00111 0.0
C344 C 0.18338 0.60387 -0.00479 0.0
C345 C 0.17755 0.59057 0.92515 0.0
C346 C 0.17113 0.56241 0.91887 0.0
C347 C 0.17013 0.54674 0.98259 0.0
H348 H 0.18536 0.59741 0.11465 0.0
C349 C 0.17528 0.55978 0.05312 0.0
C350 C 0.182 0.58815 0.05942 0.0
H351 H 0.17336 0.54794 0.10352 0.0
H352 H 0.18936 0.7265 -0.00227 0.0
H353 H 0.17499 0.67634 -0.00022 0.0
H354 H 0.25419 0.69644 0.10747 0.0
H355 H 0.26826 0.74669 0.10679 0.0
H356 H 0.21599 0.64537 0.09467 0.0
H357 H 0.18243 0.64144 0.9526 0.0
H358 H 0.1782 0.60207 0.87488 0.0
H359 H 0.16708 0.55287 0.86384 0.0
C360 C 0.48733 0.20328 0.02425 0.0
C361 C 0.49302 0.23048 0.00243 0.0
C362 C 0.50917 0.19668 0.02652 0.0
C363 C 0.53711 0.21722 0.0067 0.0
C364 C 0.54261 0.24428 0.98466 0.0
C365 C 0.52085 0.25078 0.98199 0.0
C366 C 0.56134 0.21184 0.00976 0.0
C367 C 0.55863 0.1859 0.00371 0.0
C368 C 0.58323 0.18096 0.00138 0.0
C369 C 0.57838 0.15338 0.01417 0.0
C370 C 0.60054 0.14744 0.00848 0.0
C371 C 0.62808 0.169 -0.0097 0.0
H372 H 0.61562 0.22382 0.9692 0.0
C373 C 0.63305 0.19656 0.97741 0.0
C374 C 0.61092 0.20252 0.98268 0.0
H375 H 0.6538 0.21327 0.96012 0.0
H376 H 0.46615 0.18727 0.04102 0.0
H377 H 0.50414 0.17579 0.0456 0.0
H378 H 0.56388 0.2605 0.96897 0.0
H379 H 0.52593 0.27179 0.96372 0.0
H380 H 0.58231 0.2304 0.01478 0.0
H381 H 0.53759 0.16736 -0.00097 0.0
H382 H 0.5573 0.13626 0.0278 0.0
H383 H 0.59617 0.12593 0.01759 0.0
C384 C 0.44235 0.6288 -0.00113 0.0
C385 C 0.46478 0.62337 0.00999 0.0
C386 C 0.41419 0.60661 -0.00059 0.0
C387 C 0.40779 0.57838 0.01114 0.0
C388 C 0.4303 0.57302 0.02212 0.0
C389 C 0.45849 0.59526 0.02147 0.0
C390 C 0.37819 0.55391 0.00707 0.0
C391 C 0.35501 0.55641 0.01834 0.0
C392 C 0.32515 0.53292 0.00881 0.0
C393 C 0.3038 0.54013 0.0017 0.0
C394 C 0.27542 0.51919 -0.00751 0.0
C395 C 0.26753 0.49032 -0.00941 0.0
H396 H 0.33284 0.49728 0.01447 0.0
C397 C 0.28877 0.48293 -0.00176 0.0
C398 C 0.3173 0.50397 0.00735 0.0
H399 H 0.28337 0.46089 -0.00197 0.0
H400 H 0.44658 0.65002 0.98625 0.0
H401 H 0.39773 0.61172 -0.0126 0.0
H402 H 0.4261 0.55151 0.03033 0.0
H403 H 0.47547 0.59052 0.02896 0.0
H404 H 0.37576 0.5334 -0.00668 0.0
H405 H 0.3578 0.57696 0.03351 0.0
H406 H 0.30908 0.56217 0.00289 0.0
H407 H 0.25965 0.52573 -0.01282 0.0
C408 C 0.83439 0.44587 0.0192 0.0
C409 C 0.83268 0.45911 0.95356 0.0
C410 C 0.82463 0.41666 0.0198 0.0
C411 C 0.81285 0.40034 0.95462 0.0
C412 C 0.81071 0.41372 0.88961 0.0
C413 C 0.82082 0.44289 0.88886 0.0
C414 C 0.80188 0.36928 0.95263 0.0
C415 C 0.81279 0.3563 -0.00572 0.0
C416 C 0.80242 0.32538 -0.01143 0.0
C417 C 0.82132 0.31534 0.0024 0.0
C418 C 0.81223 0.28638 -0.00347 0.0
C419 C 0.78389 0.26681 0.97784 0.0
H420 H 0.75858 0.31257 0.96176 0.0
C421 C 0.76485 0.27682 0.96533 0.0
C422 C 0.77398 0.30575 0.97066 0.0
H423 H 0.74286 0.26231 0.9511 0.0
H424 H 0.84349 0.45822 0.06953 0.0
H425 H 0.82595 0.40689 0.07139 0.0
H426 H 0.80153 0.40162 0.83891 0.0
H427 H 0.81931 0.4529 0.8379 0.0
H428 H 0.78555 0.35707 0.91137 0.0
H429 H 0.83107 0.36891 0.02998 0.0
H430 H 0.84327 0.32999 0.01699 0.0
H431 H 0.82734 0.27932 0.0074 0.0
C432 C 0.3766 0.811 0.05282 0.0
C433 C 0.38299 0.83899 0.06673 0.0
C434 C 0.39803 0.80394 0.05303 0.0
C435 C 0.42654 0.8249 0.06565 0.0
C436 C 0.4328 0.85277 0.08103 0.0
C437 C 0.4113 0.8598 0.0809 0.0
C438 C 0.45023 0.81857 0.06321 0.0
C439 C 0.44875 0.79648 0.02509 0.0
C440 C 0.47227 0.79 0.02105 0.0
C441 C 0.46558 0.7622 0.00326 0.0
C442 C 0.48689 0.7551 -0.0026 0.0
C443 C 0.51552 0.77574 0.00848 0.0
H444 H 0.5072 0.83266 0.04295 0.0
C445 C 0.52236 0.8037 0.0252 0.0
C446 C 0.50099 0.8108 0.03145 0.0
H447 H 0.54424 0.82015 0.0337 0.0
H448 H 0.35517 0.79468 0.03932 0.0
H449 H 0.39201 0.78203 0.04314 0.0
H450 H 0.4545 0.86932 0.09152 0.0
H451 H 0.41676 0.88156 0.09123 0.0
H452 H 0.46967 0.83309 0.0925 0.0
H453 H 0.42936 0.78208 -0.00455 0.0
H454 H 0.44371 0.74582 -0.00591 0.0
H455 H 0.4809 0.73346 0.98339 0.0
C456 C 0.73147 0.493 0.94452 0.0
C457 C 0.74258 0.5222 0.95625 0.0
C458 C 0.70222 0.47422 0.94846 0.0
C459 C 0.68345 0.48425 0.96499 0.0
C460 C 0.69459 0.51347 0.97588 0.0
C461 C 0.72382 0.53223 0.97201 0.0
C462 C 0.65218 0.46511 0.96894 0.0
C463 C 0.63996 0.43725 0.98526 0.0
C464 C 0.60875 0.41761 0.98666 0.0
C465 C 0.59859 0.38854 0.97605 0.0
C466 C 0.56951 0.36918 0.97619 0.0
C467 C 0.5499 0.37837 -0.01143 0.0
H468 H 0.59599 0.44899 0.00914 0.0
C469 C 0.55989 0.40739 -0.00078 0.0
C470 C 0.58908 0.42689 -0.00115 0.0
H471 H 0.54506 0.41489 0.00851 0.0
H472 H 0.74532 0.48465 0.93138 0.0
H473 H 0.69451 0.45203 0.93697 0.0
H474 H 0.68064 0.52181 -0.01178 0.0
H475 H 0.7317 0.55455 0.98225 0.0
H476 H 0.63901 0.47456 0.95842 0.0
H477 H 0.65324 0.42796 -0.00373 0.0
H478 H 0.6132 0.38081 0.96617 0.0
H479 H 0.56236 0.3471 0.96477 0.0
C480 C 0.18789 0.41414 0.69425 0.0
C481 C 0.18341 0.43288 0.7383 0.0
C482 C 0.18829 0.41619 0.61622 0.0
C483 C 0.18415 0.43704 0.58081 0.0
C484 C 0.18034 0.45612 0.625 0.0
C485 C 0.17979 0.45398 0.70283 0.0
C486 C 0.18425 0.44 0.49826 0.0
C487 C 0.17683 0.41818 0.45094 0.0
C488 C 0.17669 0.42098 0.36832 0.0
C489 C 0.17928 0.40112 0.32418 0.0
C490 C 0.17943 0.40294 0.24631 0.0
C491 C 0.17669 0.42456 0.21072 0.0
H492 H 0.17039 0.45749 0.36458 0.0
C493 C 0.17352 0.44414 0.25471 0.0
C494 C 0.17344 0.44235 0.33275 0.0
H495 H 0.17112 0.46089 0.22892 0.0
H496 H 0.19104 0.39785 0.71996 0.0
H497 H 0.19228 0.40171 0.5842 0.0
H498 H 0.17741 0.47255 0.5992 0.0
H499 H 0.17651 0.46892 0.73513 0.0
H500 H 0.19005 0.46085 0.47641 0.0
H501 H 0.17099 0.39735 0.47305 0.0
H502 H 0.18151 0.38428 0.35005 0.0
H503 H 0.18174 0.38739 0.21408 0.0
C504 C 0.77717 0.1862 0.68617 0.0
C505 C 0.75378 0.18165 0.72959 0.0
C506 C 0.77582 0.18671 0.60814 0.0
C507 C 0.75095 0.18255 0.57197 0.0
C508 C 0.72785 0.17861 0.6155 0.0
C509 C 0.72916 0.17801 0.69343 0.0
C510 C 0.74844 0.1828 0.48931 0.0
C511 C 0.76333 0.17582 0.44257 0.0
C512 C 0.76075 0.17585 0.35985 0.0
C513 C 0.78346 0.17875 0.31634 0.0
C514 C 0.78205 0.17899 0.23839 0.0
C515 C 0.75772 0.17604 0.20215 0.0
H516 H 0.71776 0.1691 0.35486 0.0
C517 C 0.73472 0.17261 0.24554 0.0
C518 C 0.73616 0.17241 0.32359 0.0
H519 H 0.71557 0.17003 0.21927 0.0
H520 H 0.79657 0.18941 0.7124 0.0
H521 H 0.79446 0.19082 0.57672 0.0
H522 H 0.70857 0.17566 0.58911 0.0
H523 H 0.71082 0.17465 0.72524 0.0
H524 H 0.7333 0.18841 0.46688 0.0
H525 H 0.77843 0.17018 0.46521 0.0
H526 H 0.80253 0.18115 0.34276 0.0
H527 H 0.8001 0.18153 0.2066 0.0
C528 C 0.5919 0.77515 0.71378 0.0
C529 C 0.57417 0.75132 0.7576 0.0
C530 C 0.59024 0.77358 0.63573 0.0
C531 C 0.57084 0.74805 0.59995 0.0
C532 C 0.55269 0.72451 0.64387 0.0
C533 C 0.55442 0.72603 0.7218 0.0
C534 C 0.56844 0.74525 0.51728 0.0
C535 C 0.59009 0.76111 0.47065 0.0
C536 C 0.58782 0.75825 0.38794 0.0
C537 C 0.60658 0.78152 0.34406 0.0
C538 C 0.6051 0.77993 0.26611 0.0
C539 C 0.58497 0.75485 0.23023 0.0
H540 H 0.55384 0.71414 0.3837 0.0
C541 C 0.56658 0.73129 0.27401 0.0
C542 C 0.56802 0.73291 0.35207 0.0
H543 H 0.55099 0.71158 0.24804 0.0
H544 H 0.60712 0.79503 0.73971 0.0
H545 H 0.60391 0.79251 0.60396 0.0
H546 H 0.53735 0.7047 0.6178 0.0
H547 H 0.5403 0.70732 0.75391 0.0
H548 H 0.5482 0.72905 0.49476 0.0
H549 H 0.61032 0.77727 0.49335 0.0
H550 H 0.62223 0.80118 0.37018 0.0
H551 H 0.61971 0.79844 0.23405 0.0
C552 C 0.82502 0.5959 0.66828 0.0
C553 C 0.82917 0.57688 0.71256 0.0
C554 C 0.82424 0.59375 0.59033 0.0
C555 C 0.82774 0.57255 0.55517 0.0
C556 C 0.83138 0.55329 0.59957 0.0
C557 C 0.83225 0.5555 0.67737 0.0
C558 C 0.82702 0.56935 0.47269 0.0
C559 C 0.83413 0.59104 0.42489 0.0
C560 C 0.83359 0.58796 0.34236 0.0
C561 C 0.83076 0.60772 0.29799 0.0
C562 C 0.83021 0.60575 0.22015 0.0
C563 C 0.83276 0.58407 0.18489 0.0
H564 H 0.83974 0.55135 0.33911 0.0
C565 C 0.83602 0.56448 0.22914 0.0
C566 C 0.83652 0.56643 0.30711 0.0
H567 H 0.8383 0.54769 0.20359 0.0
H568 H 0.82224 0.61239 0.69379 0.0
H569 H 0.82039 0.60839 0.55823 0.0
H570 H 0.83385 0.53662 0.57395 0.0
H571 H 0.83529 0.54036 0.70986 0.0
H572 H 0.82093 0.54841 0.45129 0.0
H573 H 0.84025 0.61198 0.44647 0.0
H574 H 0.82873 0.62465 0.32363 0.0
H575 H 0.82782 0.6213 0.18769 0.0
C576 C 0.27469 0.83104 0.33082 0.0
C577 C 0.25094 0.8254 0.28688 0.0
C578 C 0.27275 0.82954 0.40874 0.0
C579 C 0.24701 0.82255 0.44436 0.0
C580 C 0.22321 0.81651 0.40031 0.0
C581 C 0.22515 0.81803 0.32243 0.0
C582 C 0.24388 0.82061 0.52692 0.0
C583 C 0.26576 0.83482 0.57456 0.0
C584 C 0.26265 0.83299 0.65714 0.0
C585 C 0.2865 0.83926 0.70121 0.0
C586 C 0.28463 0.838 0.77911 0.0
C587 C 0.25885 0.83069 0.81465 0.0
H588 H 0.21825 0.82196 0.66103 0.0
C589 C 0.23502 0.82475 0.77068 0.0
C590 C 0.23689 0.82598 0.69273 0.0
H591 H 0.21492 0.8193 0.79642 0.0
H592 H 0.29477 0.83642 0.30506 0.0
H593 H 0.29134 0.83335 0.44042 0.0
H594 H 0.20307 0.81081 0.42626 0.0
H595 H 0.20639 0.81339 0.29018 0.0
H596 H 0.22259 0.80729 0.54856 0.0
H597 H 0.28704 0.84814 0.55288 0.0
H598 H 0.30665 0.84498 0.67528 0.0
H599 H 0.30344 0.84285 0.81139 0.0
C600 C 0.44154 0.27405 0.72566 0.0
C601 C 0.42448 0.24968 0.76853 0.0
C602 C 0.44008 0.27299 0.64766 0.0
C603 C 0.42163 0.24741 0.61075 0.0
C604 C 0.40432 0.22318 0.65367 0.0
C605 C 0.40579 0.22423 0.73174 0.0
C606 C 0.4192 0.24535 0.52797 0.0
C607 C 0.44019 0.26288 0.48149 0.0
C608 C 0.43779 0.26092 0.39865 0.0
C609 C 0.45566 0.28501 0.3559 0.0
C610 C 0.45416 0.2841 0.27783 0.0
C611 C 0.43483 0.25896 0.24084 0.0
H612 H 0.40532 0.21625 0.39192 0.0
C613 C 0.41723 0.23472 0.2835 0.0
C614 C 0.41875 0.23561 0.36149 0.0
H615 H 0.40235 0.2149 0.25668 0.0
H616 H 0.45595 0.29408 0.75231 0.0
H617 H 0.45305 0.29241 0.61694 0.0
H618 H 0.38973 0.20328 0.6267 0.0
H619 H 0.39228 0.2051 0.76316 0.0
H620 H 0.39942 0.22845 0.50521 0.0
H621 H 0.45997 0.27974 0.50444 0.0
H622 H 0.47072 0.30469 0.38301 0.0
H623 H 0.46816 0.30311 0.24655 0.0
loop_
_geom_bond_atom_site_label_1
_geom_bond_atom_site_label_2
_geom_bond_distance
_geom_bond_site_symmetry_2
_ccdc_geom_bond_type
Zn0 O1 2.055 . S
Zn0 O8 2.046 . S
Zn0 N16 2.036 1_554 S
Zn0 O28 2.053 1_554 S
Zn0 O30 2.066 . S
O1 Zn0 2.055 . S
O1 C4 1.259 . S
C2 O30 1.256 . S
C2 O31 1.244 . S
Zn3 O5 2.046 . S
Zn3 O7 2.055 . S
Zn3 N9 2.036 . S
Zn3 O27 2.066 1_554 S
Zn3 O31 2.053 . S
C4 O1 1.259 . S
C4 O5 1.254 . S
O5 Zn3 2.046 . S
O5 C4 1.254 . S
C6 O27 1.256 . S
C6 O28 1.244 . S
O7 Zn3 2.055 . S
O7 C29 1.259 . S
O8 Zn0 2.046 . S
O8 C29 1.255 . S
N9 Zn3 2.036 . S
N9 C10 1.298 1_554 S
N9 N12 1.398 . S
C10 N9 1.298 1_556 S
C10 N13 1.367 . S
C10 C23 1.481 . S
C11 N12 1.299 . S
C11 N13 1.379 1_554 S
N12 N9 1.398 . S
N12 C11 1.299 . S
N13 C10 1.367 . S
N13 C11 1.379 1_556 S
C14 N16 1.298 1_554 S
C14 N18 1.367 1_554 S
C14 C22 1.481 . S
C15 N17 1.299 . S
C15 N18 1.379 . S
N16 Zn0 2.036 1_556 S
N16 C14 1.298 1_556 S
N16 N17 1.398 . S
N17 C15 1.299 . S
N17 N16 1.398 . S
N18 C14 1.367 1_556 S
N18 C15 1.379 . S
H19 C22 0.980 . S
H20 C22 0.981 . S
H21 C22 0.981 . S
C22 C14 1.481 . S
C22 H19 0.980 . S
C22 H20 0.981 . S
C22 H21 0.981 . S
C23 C10 1.481 . S
C23 H24 0.980 . S
C23 H25 0.981 . S
C23 H26 0.981 . S
H24 C23 0.980 . S
H25 C23 0.981 . S
H26 C23 0.981 . S
O27 Zn3 2.066 1_556 S
O27 C6 1.256 . S
O28 Zn0 2.053 1_556 S
O28 C6 1.244 . S
C29 O7 1.259 . S
C29 O8 1.255 . S
O30 Zn0 2.066 . S
O30 C2 1.256 . S
O31 C2 1.244 . S
O31 Zn3 2.053 . S
Zn32 O33 2.055 . S
Zn32 O40 2.046 . S
Zn32 N48 2.036 1_554 S
Zn32 O60 2.053 1_554 S
Zn32 O62 2.066 . S
O33 Zn32 2.055 . S
O33 C36 1.259 . S
C34 O62 1.256 . S
C34 O63 1.244 . S
Zn35 O37 2.046 . S
Zn35 O39 2.055 . S
Zn35 N41 2.036 . S
Zn35 O59 2.066 1_554 S
Zn35 O63 2.053 . S
C36 O33 1.259 . S
C36 O37 1.254 . S
O37 Zn35 2.046 . S
O37 C36 1.254 . S
C38 O59 1.256 . S
C38 O60 1.244 . S
O39 Zn35 2.055 . S
O39 C61 1.259 . S
O40 Zn32 2.046 . S
O40 C61 1.255 . S
N41 Zn35 2.036 . S
N41 C42 1.298 1_554 S
N41 N44 1.398 . S
C42 N41 1.298 1_556 S
C42 N45 1.367 . S
C42 C55 1.481 . S
C43 N44 1.299 . S
C43 N45 1.379 1_554 S
N44 N41 1.398 . S
N44 C43 1.299 . S
N45 C42 1.367 . S
N45 C43 1.379 1_556 S
C46 N48 1.298 1_554 S
C46 N50 1.367 1_554 S
C46 C54 1.481 . S
C47 N49 1.299 . S
C47 N50 1.379 . S
N48 Zn32 2.036 1_556 S
N48 C46 1.298 1_556 S
N48 N49 1.398 . S
N49 C47 1.299 . S
N49 N48 1.398 . S
N50 C46 1.367 1_556 S
N50 C47 1.379 . S
H51 C54 0.980 . S
H52 C54 0.981 . S
H53 C54 0.981 . S
C54 C46 1.481 . S
C54 H51 0.980 . S
C54 H52 0.981 . S
C54 H53 0.981 . S
C55 C42 1.481 . S
C55 H56 0.980 . S
C55 H57 0.981 . S
C55 H58 0.981 . S
H56 C55 0.980 . S
H57 C55 0.981 . S
H58 C55 0.981 . S
O59 Zn35 2.066 1_556 S
O59 C38 1.256 . S
O60 Zn32 2.053 1_556 S
O60 C38 1.244 . S
C61 O39 1.259 . S
C61 O40 1.255 . S
O62 Zn32 2.066 . S
O62 C34 1.256 . S
O63 C34 1.244 . S
O63 Zn35 2.053 . S
Zn64 O65 2.055 . S
Zn64 O72 2.046 . S
Zn64 N80 2.036 1_554 S
Zn64 O92 2.053 1_554 S
Zn64 O94 2.066 . S
O65 Zn64 2.055 . S
O65 C68 1.259 . S
C66 O94 1.256 . S
C66 O95 1.244 . S
Zn67 O69 2.046 . S
Zn67 O71 2.055 . S
Zn67 N73 2.036 . S
Zn67 O91 2.066 1_554 S
Zn67 O95 2.053 . S
C68 O65 1.259 . S
C68 O69 1.254 . S
O69 Zn67 2.046 . S
O69 C68 1.254 . S
C70 O91 1.256 . S
C70 O92 1.244 . S
O71 Zn67 2.055 . S
O71 C93 1.259 . S
O72 Zn64 2.046 . S
O72 C93 1.255 . S
N73 Zn67 2.036 . S
N73 C74 1.298 1_554 S
N73 N76 1.398 . S
C74 N73 1.298 1_556 S
C74 N77 1.367 . S
C74 C87 1.481 . S
C75 N76 1.299 . S
C75 N77 1.379 1_554 S
N76 N73 1.398 . S
N76 C75 1.299 . S
N77 C74 1.367 . S
N77 C75 1.379 1_556 S
C78 N80 1.298 1_554 S
C78 N82 1.367 1_554 S
C78 C86 1.481 . S
C79 N81 1.299 . S
C79 N82 1.379 . S
N80 Zn64 2.036 1_556 S
N80 C78 1.298 1_556 S
N80 N81 1.398 . S
N81 C79 1.299 . S
N81 N80 1.398 . S
N82 C78 1.367 1_556 S
N82 C79 1.379 . S
H83 C86 0.980 . S
H84 C86 0.981 . S
H85 C86 0.981 . S
C86 C78 1.481 . S
C86 H83 0.980 . S
C86 H84 0.981 . S
C86 H85 0.981 . S
C87 C74 1.481 . S
C87 H88 0.980 . S
C87 H89 0.981 . S
C87 H90 0.981 . S
H88 C87 0.980 . S
H89 C87 0.981 . S
H90 C87 0.981 . S
O91 Zn67 2.066 1_556 S
O91 C70 1.256 . S
O92 Zn64 2.053 1_556 S
O92 C70 1.244 . S
C93 O71 1.259 . S
C93 O72 1.255 . S
O94 Zn64 2.066 . S
O94 C66 1.256 . S
O95 C66 1.244 . S
O95 Zn67 2.053 . S
Zn96 O97 2.055 . S
Zn96 O104 2.046 . S
Zn96 N112 2.036 1_554 S
Zn96 O124 2.053 1_554 S
Zn96 O126 2.066 . S
O97 Zn96 2.055 . S
O97 C100 1.259 . S
C98 O126 1.256 . S
C98 O127 1.244 . S
Zn99 O101 2.046 . S
Zn99 O103 2.055 . S
Zn99 N105 2.036 . S
Zn99 O123 2.066 1_554 S
Zn99 O127 2.053 . S
C100 O97 1.259 . S
C100 O101 1.254 . S
O101 Zn99 2.046 . S
O101 C100 1.254 . S
C102 O123 1.256 . S
C102 O124 1.244 . S
O103 Zn99 2.055 . S
O103 C125 1.259 . S
O104 Zn96 2.046 . S
O104 C125 1.255 . S
N105 Zn99 2.036 . S
N105 C106 1.298 1_554 S
N105 N108 1.398 . S
C106 N105 1.298 1_556 S
C106 N109 1.367 . S
C106 C119 1.481 . S
C107 N108 1.299 . S
C107 N109 1.379 1_554 S
N108 N105 1.398 . S
N108 C107 1.299 . S
N109 C106 1.367 . S
N109 C107 1.379 1_556 S
C110 N112 1.298 1_554 S
C110 N114 1.367 1_554 S
C110 C118 1.481 . S
C111 N113 1.299 . S
C111 N114 1.379 . S
N112 Zn96 2.036 1_556 S
N112 C110 1.298 1_556 S
N112 N113 1.398 . S
N113 C111 1.299 . S
N113 N112 1.398 . S
N114 C110 1.367 1_556 S
N114 C111 1.379 . S
H115 C118 0.980 . S
H116 C118 0.981 . S
H117 C118 0.981 . S
C118 C110 1.481 . S
C118 H115 0.980 . S
C118 H116 0.981 . S
C118 H117 0.981 . S
C119 C106 1.481 . S
C119 H120 0.980 . S
C119 H121 0.981 . S
C119 H122 0.981 . S
H120 C119 0.980 . S
H121 C119 0.981 . S
H122 C119 0.981 . S
O123 Zn99 2.066 1_556 S
O123 C102 1.256 . S
O124 Zn96 2.053 1_556 S
O124 C102 1.244 . S
C125 O103 1.259 . S
C125 O104 1.255 . S
O126 Zn96 2.066 . S
O126 C98 1.256 . S
O127 C98 1.244 . S
O127 Zn99 2.053 . S
Zn128 O129 2.055 . S
Zn128 O136 2.046 . S
Zn128 N144 2.036 1_554 S
Zn128 O156 2.053 1_554 S
Zn128 O158 2.066 . S
O129 Zn128 2.055 . S
O129 C132 1.259 . S
C130 O158 1.256 . S
C130 O159 1.244 . S
Zn131 O133 2.046 . S
Zn131 O135 2.055 . S
Zn131 N137 2.036 . S
Zn131 O155 2.066 1_554 S
Zn131 O159 2.053 . S
C132 O129 1.259 . S
C132 O133 1.254 . S
O133 Zn131 2.046 . S
O133 C132 1.254 . S
C134 O155 1.256 . S
C134 O156 1.244 . S
O135 Zn131 2.055 . S
O135 C157 1.259 . S
O136 Zn128 2.046 . S
O136 C157 1.255 . S
N137 Zn131 2.036 . S
N137 C138 1.298 1_554 S
N137 N140 1.398 . S
C138 N137 1.298 1_556 S
C138 N141 1.367 . S
C138 C151 1.481 . S
C139 N140 1.299 . S
C139 N141 1.379 1_554 S
N140 N137 1.398 . S
N140 C139 1.299 . S
N141 C138 1.367 . S
N141 C139 1.379 1_556 S
C142 N144 1.298 1_554 S
C142 N146 1.367 1_554 S
C142 C150 1.481 . S
C143 N145 1.299 . S
C143 N146 1.379 . S
N144 Zn128 2.036 1_556 S
N144 C142 1.298 1_556 S
N144 N145 1.398 . S
N145 C143 1.299 . S
N145 N144 1.398 . S
N146 C142 1.367 1_556 S
N146 C143 1.379 . S
H147 C150 0.980 . S
H148 C150 0.981 . S
H149 C150 0.981 . S
C150 C142 1.481 . S
C150 H147 0.980 . S
C150 H148 0.981 . S
C150 H149 0.981 . S
C151 C138 1.481 . S
C151 H152 0.980 . S
C151 H153 0.981 . S
C151 H154 0.981 . S
H152 C151 0.980 . S
H153 C151 0.981 . S
H154 C151 0.981 . S
O155 Zn131 2.066 1_556 S
O155 C134 1.256 . S
O156 Zn128 2.053 1_556 S
O156 C134 1.244 . S
C157 O135 1.259 . S
C157 O136 1.255 . S
O158 Zn128 2.066 . S
O158 C130 1.256 . S
O159 C130 1.244 . S
O159 Zn131 2.053 . S
Zn160 O161 2.055 . S
Zn160 O168 2.046 . S
Zn160 N176 2.036 1_554 S
Zn160 O188 2.053 1_554 S
Zn160 O190 2.066 . S
O161 Zn160 2.055 . S
O161 C164 1.259 . S
C162 O190 1.256 . S
C162 O191 1.244 . S
Zn163 O165 2.046 . S
Zn163 O167 2.055 . S
Zn163 N169 2.036 . S
Zn163 O187 2.066 1_554 S
Zn163 O191 2.053 . S
C164 O161 1.259 . S
C164 O165 1.254 . S
O165 Zn163 2.046 . S
O165 C164 1.254 . S
C166 O187 1.256 . S
C166 O188 1.244 . S
O167 Zn163 2.055 . S
O167 C189 1.259 . S
O168 Zn160 2.046 . S
O168 C189 1.255 . S
N169 Zn163 2.036 . S
N169 C170 1.298 1_554 S
N169 N172 1.398 . S
C170 N169 1.298 1_556 S
C170 N173 1.367 . S
C170 C183 1.481 . S
C171 N172 1.299 . S
C171 N173 1.379 1_554 S
N172 N169 1.398 . S
N172 C171 1.299 . S
N173 C170 1.367 . S
N173 C171 1.379 1_556 S
C174 N176 1.298 1_554 S
C174 N178 1.367 1_554 S
C174 C182 1.481 . S
C175 N177 1.299 . S
C175 N178 1.379 . S
N176 Zn160 2.036 1_556 S
N176 C174 1.298 1_556 S
N176 N177 1.398 . S
N177 C175 1.299 . S
N177 N176 1.398 . S
N178 C174 1.367 1_556 S
N178 C175 1.379 . S
H179 C182 0.980 . S
H180 C182 0.981 . S
H181 C182 0.981 . S
C182 C174 1.481 . S
C182 H179 0.980 . S
C182 H180 0.981 . S
C182 H181 0.981 . S
C183 C170 1.481 . S
C183 H184 0.980 . S
C183 H185 0.981 . S
C183 H186 0.981 . S
H184 C183 0.980 . S
H185 C183 0.981 . S
H186 C183 0.981 . S
O187 Zn163 2.066 1_556 S
O187 C166 1.256 . S
O188 Zn160 2.053 1_556 S
O188 C166 1.244 . S
C189 O167 1.259 . S
C189 O168 1.255 . S
O190 Zn160 2.066 . S
O190 C162 1.256 . S
O191 C162 1.244 . S
O191 Zn163 2.053 . S
C192 C193 1.386 1_554 S
C192 C194 1.383 . S
C192 H208 0.951 . S
C193 C192 1.386 1_556 S
C193 C197 1.383 . S
C194 C192 1.383 . S
C194 C195 1.402 1_554 S
C194 H209 0.951 . S
C195 C194 1.402 1_556 S
C195 C196 1.375 . S
C195 C198 1.481 . S
C196 C195 1.375 . S
C196 C197 1.367 . S
C196 H210 0.951 . S
C197 C193 1.383 . S
C197 C196 1.367 . S
C197 H211 0.950 . S
C198 C195 1.481 . S
C198 C199 1.297 . S
C198 H212 0.950 . S
C199 C198 1.297 . S
C199 C200 1.479 . S
C199 H213 0.950 1_556 S
C200 C199 1.479 . S
C200 C201 1.375 1_556 S
C200 C206 1.404 . S
C201 C200 1.375 1_554 S
C201 C202 1.369 . S
C201 H214 0.950 . S
C202 C201 1.369 . S
C202 C203 1.392 1_554 S
C202 H215 0.951 . S
C203 C202 1.392 1_556 S
C203 C205 1.384 . S
H204 C206 0.949 . S
C205 C203 1.384 . S
C205 C206 1.385 . S
C205 H207 0.950 . S
C206 C200 1.404 . S
C206 H204 0.949 . S
C206 C205 1.385 . S
H207 C205 0.950 . S
H208 C192 0.951 . S
H209 C194 0.951 . S
H210 C196 0.951 . S
H211 C197 0.950 . S
H212 C198 0.950 . S
H213 C199 0.950 1_554 S
H214 C201 0.950 . S
H215 C202 0.951 . S
C216 C217 1.386 1_554 S
C216 C218 1.383 . S
C216 H232 0.951 . S
C217 C216 1.386 1_556 S
C217 C221 1.383 . S
C218 C216 1.383 . S
C218 C219 1.402 1_554 S
C218 H233 0.951 . S
C219 C218 1.402 1_556 S
C219 C220 1.375 . S
C219 C222 1.481 . S
C220 C219 1.375 . S
C220 C221 1.367 . S
C220 H234 0.951 . S
C221 C217 1.383 . S
C221 C220 1.367 . S
C221 H235 0.950 . S
C222 C219 1.481 . S
C222 C223 1.297 1_556 S
C222 H236 0.950 . S
C223 C222 1.297 1_554 S
C223 C224 1.479 1_454 S
C223 H237 0.950 . S
C224 C223 1.479 1_656 S
C224 C225 1.375 1_556 S
C224 C230 1.404 . S
C225 C224 1.375 1_554 S
C225 C226 1.369 . S
C225 H238 0.950 . S
C226 C225 1.369 . S
C226 C227 1.392 1_554 S
C226 H239 0.951 . S
C227 C226 1.392 1_556 S
C227 C229 1.384 . S
H228 C230 0.949 . S
C229 C227 1.384 . S
C229 C230 1.385 . S
C229 H231 0.950 . S
C230 C224 1.404 . S
C230 H228 0.949 . S
C230 C229 1.385 . S
H231 C229 0.950 . S
H232 C216 0.951 . S
H233 C218 0.951 . S
H234 C220 0.951 . S
H235 C221 0.950 . S
H236 C222 0.950 . S
H237 C223 0.950 . S
H238 C225 0.950 . S
H239 C226 0.951 . S
C240 C241 1.386 . S
C240 C242 1.383 . S
C240 H256 0.951 . S
C241 C240 1.386 . S
C241 C245 1.383 1_556 S
C242 C240 1.383 . S
C242 C243 1.402 1_556 S
C242 H257 0.951 . S
C243 C242 1.402 1_554 S
C243 C244 1.375 . S
C243 C246 1.481 . S
C244 C243 1.375 . S
C244 C245 1.367 . S
C244 H258 0.951 . S
C245 C241 1.383 1_554 S
C245 C244 1.367 . S
C245 H259 0.950 . S
C246 C243 1.481 . S
C246 C247 1.297 . S
C246 H260 0.950 . S
C247 C246 1.297 . S
C247 C248 1.479 1_545 S
C247 H261 0.950 . S
C248 C247 1.479 1_565 S
C248 C249 1.375 1_554 S
C248 C254 1.404 . S
C249 C248 1.375 1_556 S
C249 C250 1.369 . S
C249 H262 0.950 . S
C250 C249 1.369 . S
C250 C251 1.392 . S
C250 H263 0.951 . S
C251 C250 1.392 . S
C251 C253 1.384 1_556 S
H252 C254 0.949 . S
C253 C251 1.384 1_554 S
C253 C254 1.385 . S
C253 H255 0.950 . S
C254 C248 1.404 . S
C254 H252 0.949 . S
C254 C253 1.385 . S
H255 C253 0.950 . S
H256 C240 0.951 . S
H257 C242 0.951 . S
H258 C244 0.951 . S
H259 C245 0.950 . S
H260 C246 0.950 . S
H261 C247 0.950 . S
H262 C249 0.950 . S
H263 C250 0.951 . S
C264 C265 1.386 1_554 S
C264 C266 1.383 . S
C264 H280 0.951 . S
C265 C264 1.386 1_556 S
C265 C269 1.383 . S
C266 C264 1.383 . S
C266 C267 1.402 1_554 S
C266 H281 0.951 . S
C267 C266 1.402 1_556 S
C267 C268 1.375 . S
C267 C270 1.481 . S
C268 C267 1.375 . S
C268 C269 1.367 . S
C268 H282 0.951 . S
C269 C265 1.383 . S
C269 C268 1.367 . S
C269 H283 0.950 . S
C270 C267 1.481 . S
C270 C271 1.297 . S
C270 H284 0.950 . S
C271 C270 1.297 . S
C271 C272 1.479 . S
C271 H285 0.950 1_556 S
C272 C271 1.479 . S
C272 C273 1.375 1_556 S
C272 C278 1.404 . S
C273 C272 1.375 1_554 S
C273 C274 1.369 . S
C273 H286 0.950 . S
C274 C273 1.369 . S
C274 C275 1.392 1_554 S
C274 H287 0.951 . S
C275 C274 1.392 1_556 S
C275 C277 1.384 . S
H276 C278 0.949 . S
C277 C275 1.384 . S
C277 C278 1.385 . S
C277 H279 0.950 . S
C278 C272 1.404 . S
C278 H276 0.949 . S
C278 C277 1.385 . S
H279 C277 0.950 . S
H280 C264 0.951 . S
H281 C266 0.951 . S
H282 C268 0.951 . S
H283 C269 0.950 . S
H284 C270 0.950 . S
H285 C271 0.950 1_554 S
H286 C273 0.950 . S
H287 C274 0.951 . S
C288 C289 1.386 . S
C288 C290 1.383 . S
C288 H304 0.951 . S
C289 C288 1.386 . S
C289 C293 1.383 . S
C290 C288 1.383 . S
C290 C291 1.402 . S
C290 H305 0.953 . S
C291 C290 1.402 . S
C291 C292 1.375 . S
C291 C294 1.481 1_455 S
C292 C291 1.375 . S
C292 C293 1.367 . S
C292 H306 0.951 . S
C293 C289 1.383 . S
C293 C292 1.367 . S
C293 H307 0.950 . S
C294 C291 1.481 1_655 S
C294 C295 1.297 1_556 S
C294 H308 0.950 . S
C295 C294 1.297 1_554 S
C295 C296 1.479 . S
C295 H309 0.950 . S
C296 C295 1.479 . S
C296 C297 1.375 . S
C296 C302 1.404 . S
C297 C296 1.375 . S
C297 C298 1.369 . S
C297 H310 0.950 . S
C298 C297 1.369 . S
C298 C299 1.391 1_554 S
C298 H311 0.951 . S
C299 C298 1.391 1_556 S
C299 C301 1.384 1_556 S
H300 C302 0.949 . S
C301 C299 1.384 1_554 S
C301 C302 1.385 . S
C301 H303 0.950 . S
C302 C296 1.404 . S
C302 H300 0.949 . S
C302 C301 1.385 . S
H303 C301 0.950 . S
H304 C288 0.951 . S
H305 C290 0.953 . S
H306 C292 0.951 . S
H307 C293 0.950 . S
H308 C294 0.950 . S
H309 C295 0.950 . S
H310 C297 0.950 . S
H311 C298 0.951 . S
C312 C313 1.386 . S
C312 C314 1.383 . S
C312 H328 0.951 . S
C313 C312 1.386 . S
C313 C317 1.383 1_556 S
C314 C312 1.383 . S
C314 C315 1.402 . S
C314 H329 0.951 . S
C315 C314 1.402 . S
C315 C316 1.375 1_556 S
C315 C318 1.481 . S
C316 C315 1.375 1_554 S
C316 C317 1.367 . S
C316 H330 0.951 . S
C317 C313 1.383 1_554 S
C317 C316 1.367 . S
C317 H331 0.950 . S
C318 C315 1.481 . S
C318 C319 1.297 . S
C318 H332 0.950 . S
C319 C318 1.297 . S
C319 C320 1.479 1_565 S
C319 H333 0.950 . S
C320 C319 1.479 1_545 S
C320 C321 1.375 . S
C320 C326 1.404 . S
C321 C320 1.375 . S
C321 C322 1.369 . S
C321 H334 0.950 . S
C322 C321 1.369 . S
C322 C323 1.392 . S
C322 H335 0.951 . S
C323 C322 1.392 . S
C323 C325 1.384 . S
H324 C326 0.949 . S
C325 C323 1.384 . S
C325 C326 1.385 . S
C325 H327 0.950 . S
C326 C320 1.404 . S
C326 H324 0.949 . S
C326 C325 1.385 . S
H327 C325 0.950 . S
H328 C312 0.951 . S
H329 C314 0.951 . S
H330 C316 0.951 . S
H331 C317 0.950 . S
H332 C318 0.950 . S
H333 C319 0.950 . S
H334 C321 0.950 . S
H335 C322 0.951 . S
C336 C337 1.386 1_556 S
C336 C338 1.383 . S
C336 H352 0.951 . S
C337 C336 1.386 1_554 S
C337 C341 1.383 . S
C338 C336 1.383 . S
C338 C339 1.402 1_556 S
C338 H353 0.951 . S
C339 C338 1.402 1_554 S
C339 C340 1.375 . S
C339 C342 1.481 . S
C340 C339 1.375 . S
C340 C341 1.367 . S
C340 H354 0.951 . S
C341 C337 1.383 . S
C341 C340 1.367 . S
C341 H355 0.950 . S
C342 C339 1.481 . S
C342 C343 1.297 1_554 S
C342 H356 0.950 . S
C343 C342 1.297 1_556 S
C343 C344 1.479 . S
C343 H357 0.950 . S
C344 C343 1.479 . S
C344 C345 1.375 . S
C344 C350 1.404 1_556 S
C345 C344 1.375 . S
C345 C346 1.369 . S
C345 H358 0.950 . S
C346 C345 1.369 . S
C346 C347 1.392 1_556 S
C346 H359 0.951 . S
C347 C346 1.392 1_554 S
C347 C349 1.384 . S
H348 C350 0.949 . S
C349 C347 1.384 . S
C349 C350 1.385 . S
C349 H351 0.950 . S
C350 C344 1.404 1_554 S
C350 H348 0.949 . S
C350 C349 1.385 . S
H351 C349 0.950 . S
H352 C336 0.951 . S
H353 C338 0.951 . S
H354 C340 0.951 . S
H355 C341 0.950 . S
H356 C342 0.950 . S
H357 C343 0.950 . S
H358 C345 0.950 . S
H359 C346 0.951 . S
C360 C361 1.386 1_556 S
C360 C362 1.383 . S
C360 H376 0.951 . S
C361 C360 1.386 1_554 S
C361 C365 1.383 . S
C362 C360 1.383 . S
C362 C363 1.402 1_556 S
C362 H377 0.951 . S
C363 C362 1.402 1_554 S
C363 C364 1.375 . S
C363 C366 1.481 1_554 S
C364 C363 1.375 . S
C364 C365 1.367 . S
C364 H378 0.951 . S
C365 C361 1.383 . S
C365 C364 1.367 . S
C365 H379 0.950 . S
C366 C363 1.481 1_556 S
C366 C367 1.297 . S
C366 H380 0.950 1_556 S
C367 C366 1.297 . S
C367 C368 1.479 . S
C367 H381 0.950 . S
C368 C367 1.479 . S
C368 C369 1.375 . S
C368 C374 1.404 . S
C369 C368 1.375 . S
C369 C370 1.369 . S
C369 H382 0.950 . S
C370 C369 1.369 . S
C370 C371 1.392 . S
C370 H383 0.951 . S
C371 C370 1.392 . S
C371 C373 1.384 1_556 S
H372 C374 0.949 . S
C373 C371 1.384 1_554 S
C373 C374 1.385 1_554 S
C373 H375 0.950 . S
C374 C368 1.404 . S
C374 H372 0.949 . S
C374 C373 1.385 1_556 S
H375 C373 0.950 . S
H376 C360 0.951 . S
H377 C362 0.951 . S
H378 C364 0.951 . S
H379 C365 0.950 . S
H380 C366 0.950 1_554 S
H381 C367 0.950 . S
H382 C369 0.950 . S
H383 C370 0.951 . S
C384 C385 1.383 1_554 S
C384 C386 1.383 . S
C384 H400 0.951 . S
C385 C384 1.383 1_556 S
C385 C389 1.386 . S
C386 C384 1.383 . S
C386 C387 1.402 1_554 S
C386 H401 0.951 . S
C387 C386 1.402 1_556 S
C387 C388 1.375 . S
C387 C390 1.481 . S
C388 C387 1.375 . S
C388 C389 1.367 . S
C388 H402 0.951 . S
C389 C385 1.386 . S
C389 C388 1.367 . S
C389 H403 0.950 . S
C390 C387 1.481 . S
C390 C391 1.297 . S
C390 H404 0.950 . S
C391 C390 1.297 . S
C391 C392 1.479 . S
C391 H405 0.950 1_556 S
C392 C391 1.479 . S
C392 C393 1.375 1_556 S
C392 C398 1.404 . S
C393 C392 1.375 1_554 S
C393 C394 1.369 . S
C393 H406 0.950 . S
C394 C393 1.369 . S
C394 C395 1.392 . S
C394 H407 0.951 . S
C395 C394 1.392 . S
C395 C397 1.384 1_554 S
H396 C398 0.949 . S
C397 C395 1.384 1_556 S
C397 C398 1.385 . S
C397 H399 0.950 . S
C398 C392 1.404 . S
C398 H396 0.949 . S
C398 C397 1.385 . S
H399 C397 0.950 . S
H400 C384 0.951 . S
H401 C386 0.951 . S
H402 C388 0.951 . S
H403 C389 0.950 . S
H404 C390 0.950 . S
H405 C391 0.950 1_554 S
H406 C393 0.950 . S
H407 C394 0.951 . S
C408 C409 1.386 . S
C408 C410 1.383 . S
C408 H424 0.951 . S
C409 C408 1.386 . S
C409 C413 1.383 1_554 S
C410 C408 1.383 . S
C410 C411 1.402 1_554 S
C410 H425 0.951 . S
C411 C410 1.402 1_556 S
C411 C412 1.375 . S
C411 C414 1.481 . S
C412 C411 1.375 . S
C412 C413 1.367 . S
C412 H426 0.951 . S
C413 C409 1.383 1_556 S
C413 C412 1.367 . S
C413 H427 0.950 . S
C414 C411 1.481 . S
C414 C415 1.297 1_556 S
C414 H428 0.950 . S
C415 C414 1.297 1_554 S
C415 C416 1.479 . S
C415 H429 0.950 . S
C416 C415 1.479 . S
C416 C417 1.375 . S
C416 C422 1.404 1_554 S
C417 C416 1.375 . S
C417 C418 1.369 . S
C417 H430 0.950 . S
C418 C417 1.369 . S
C418 C419 1.392 . S
C418 H431 0.951 . S
C419 C418 1.392 . S
C419 C421 1.384 1_554 S
H420 C422 0.949 . S
C421 C419 1.384 1_556 S
C421 C422 1.385 . S
C421 H423 0.950 . S
C422 C416 1.404 1_556 S
C422 H420 0.949 . S
C422 C421 1.385 . S
H423 C421 0.950 . S
H424 C408 0.951 . S
H425 C410 0.951 . S
H426 C412 0.951 . S
H427 C413 0.950 . S
H428 C414 0.950 . S
H429 C415 0.950 . S
H430 C417 0.950 . S
H431 C418 0.951 . S
C432 C433 1.386 1_556 S
C432 C434 1.383 . S
C432 H448 0.951 . S
C433 C432 1.386 1_554 S
C433 C437 1.383 . S
C434 C432 1.383 . S
C434 C435 1.402 1_556 S
C434 H449 0.951 . S
C435 C434 1.402 1_554 S
C435 C436 1.375 . S
C435 C438 1.481 . S
C436 C435 1.375 . S
C436 C437 1.367 . S
C436 H450 0.951 . S
C437 C433 1.383 . S
C437 C436 1.367 . S
C437 H451 0.950 . S
C438 C435 1.481 . S
C438 C439 1.297 1_554 S
C438 H452 0.950 . S
C439 C438 1.297 1_556 S
C439 C440 1.479 . S
C439 H453 0.950 . S
C440 C439 1.479 . S
C440 C441 1.375 . S
C440 C446 1.404 1_556 S
C441 C440 1.375 . S
C441 C442 1.369 . S
C441 H454 0.950 . S
C442 C441 1.369 . S
C442 C443 1.392 1_556 S
C442 H455 0.951 . S
C443 C442 1.392 1_554 S
C443 C445 1.384 . S
H444 C446 0.949 . S
C445 C443 1.384 . S
C445 C446 1.385 . S
C445 H447 0.950 . S
C446 C440 1.404 1_554 S
C446 H444 0.949 . S
C446 C445 1.385 . S
H447 C445 0.950 . S
H448 C432 0.951 . S
H449 C434 0.951 . S
H450 C436 0.951 . S
H451 C437 0.950 . S
H452 C438 0.950 . S
H453 C439 0.950 . S
H454 C441 0.950 . S
H455 C442 0.951 . S
C456 C457 1.386 . S
C456 C458 1.383 . S
C456 H472 0.951 . S
C457 C456 1.386 . S
C457 C461 1.383 1_554 S
C458 C456 1.383 . S
C458 C459 1.402 . S
C458 H473 0.951 . S
C459 C458 1.402 . S
C459 C460 1.375 1_554 S
C459 C462 1.481 . S
C460 C459 1.375 1_556 S
C460 C461 1.367 . S
C460 H474 0.951 . S
C461 C457 1.383 1_556 S
C461 C460 1.367 . S
C461 H475 0.950 . S
C462 C459 1.481 . S
C462 C463 1.297 . S
C462 H476 0.950 1_554 S
C463 C462 1.297 . S
C463 C464 1.479 . S
C463 H477 0.950 . S
C464 C463 1.479 . S
C464 C465 1.375 . S
C464 C470 1.404 . S
C465 C464 1.375 . S
C465 C466 1.369 . S
C465 H478 0.950 . S
C466 C465 1.369 . S
C466 C467 1.392 . S
C466 H479 0.951 . S
C467 C466 1.392 . S
C467 C469 1.384 1_554 S
H468 C470 0.949 1_556 S
C469 C467 1.384 1_556 S
C469 C470 1.385 1_556 S
C469 H471 0.950 . S
C470 C464 1.404 . S
C470 H468 0.949 1_554 S
C470 C469 1.385 1_554 S
H471 C469 0.950 . S
H472 C456 0.951 . S
H473 C458 0.951 . S
H474 C460 0.951 . S
H475 C461 0.950 . S
H476 C462 0.950 1_556 S
H477 C463 0.950 . S
H478 C465 0.950 . S
H479 C466 0.951 . S
C480 C481 1.386 . S
C480 C482 1.383 . S
C480 H496 0.951 . S
C481 C480 1.386 . S
C481 C485 1.383 . S
C482 C480 1.383 . S
C482 C483 1.402 . S
C482 H497 0.951 . S
C483 C482 1.402 . S
C483 C484 1.375 . S
C483 C486 1.481 . S
C484 C483 1.375 . S
C484 C485 1.367 . S
C484 H498 0.951 . S
C485 C481 1.383 . S
C485 C484 1.367 . S
C485 H499 0.950 . S
C486 C483 1.481 . S
C486 C487 1.297 . S
C486 H500 0.950 . S
C487 C486 1.297 . S
C487 C488 1.479 . S
C487 H501 0.950 . S
C488 C487 1.479 . S
C488 C489 1.375 . S
C488 C494 1.404 . S
C489 C488 1.375 . S
C489 C490 1.369 . S
C489 H502 0.950 . S
C490 C489 1.369 . S
C490 C491 1.392 . S
C490 H503 0.951 . S
C491 C490 1.392 . S
C491 C493 1.384 . S
H492 C494 0.949 . S
C493 C491 1.384 . S
C493 C494 1.385 . S
C493 H495 0.950 . S
C494 C488 1.404 . S
C494 H492 0.949 . S
C494 C493 1.385 . S
H495 C493 0.950 . S
H496 C480 0.951 . S
H497 C482 0.951 . S
H498 C484 0.951 . S
H499 C485 0.950 . S
H500 C486 0.950 . S
H501 C487 0.950 . S
H502 C489 0.950 . S
H503 C490 0.951 . S
C504 C505 1.386 . S
C504 C506 1.383 . S
C504 H520 0.951 . S
C505 C504 1.386 . S
C505 C509 1.383 . S
C506 C504 1.383 . S
C506 C507 1.402 . S
C506 H521 0.951 . S
C507 C506 1.402 . S
C507 C508 1.375 . S
C507 C510 1.481 . S
C508 C507 1.375 . S
C508 C509 1.367 . S
C508 H522 0.951 . S
C509 C505 1.383 . S
C509 C508 1.367 . S
C509 H523 0.950 . S
C510 C507 1.481 . S
C510 C511 1.297 . S
C510 H524 0.950 . S
C511 C510 1.297 . S
C511 C512 1.479 . S
C511 H525 0.950 . S
C512 C511 1.479 . S
C512 C513 1.375 . S
C512 C518 1.404 . S
C513 C512 1.375 . S
C513 C514 1.369 . S
C513 H526 0.950 . S
C514 C513 1.369 . S
C514 C515 1.392 . S
C514 H527 0.951 . S
C515 C514 1.392 . S
C515 C517 1.384 . S
H516 C518 0.949 . S
C517 C515 1.384 . S
C517 C518 1.385 . S
C517 H519 0.950 . S
C518 C512 1.404 . S
C518 H516 0.949 . S
C518 C517 1.385 . S
H519 C517 0.950 . S
H520 C504 0.951 . S
H521 C506 0.951 . S
H522 C508 0.951 . S
H523 C509 0.950 . S
H524 C510 0.950 . S
H525 C511 0.950 . S
H526 C513 0.950 . S
H527 C514 0.951 . S
C528 C529 1.386 . S
C528 C530 1.383 . S
C528 H544 0.951 . S
C529 C528 1.386 . S
C529 C533 1.383 . S
C530 C528 1.383 . S
C530 C531 1.402 . S
C530 H545 0.951 . S
C531 C530 1.402 . S
C531 C532 1.375 . S
C531 C534 1.481 . S
C532 C531 1.375 . S
C532 C533 1.367 . S
C532 H546 0.951 . S
C533 C529 1.383 . S
C533 C532 1.367 . S
C533 H547 0.950 . S
C534 C531 1.481 . S
C534 C535 1.297 . S
C534 H548 0.950 . S
C535 C534 1.297 . S
C535 C536 1.479 . S
C535 H549 0.950 . S
C536 C535 1.479 . S
C536 C537 1.375 . S
C536 C542 1.404 . S
C537 C536 1.375 . S
C537 C538 1.369 . S
C537 H550 0.950 . S
C538 C537 1.369 . S
C538 C539 1.392 . S
C538 H551 0.951 . S
C539 C538 1.392 . S
C539 C541 1.384 . S
H540 C542 0.949 . S
C541 C539 1.384 . S
C541 C542 1.385 . S
C541 H543 0.950 . S
C542 C536 1.404 . S
C542 H540 0.949 . S
C542 C541 1.385 . S
H543 C541 0.950 . S
H544 C528 0.951 . S
H545 C530 0.951 . S
H546 C532 0.951 . S
H547 C533 0.950 . S
H548 C534 0.950 . S
H549 C535 0.950 . S
H550 C537 0.950 . S
H551 C538 0.951 . S
C552 C553 1.386 . S
C552 C554 1.383 . S
C552 H568 0.951 . S
C553 C552 1.386 . S
C553 C557 1.383 . S
C554 C552 1.383 . S
C554 C555 1.402 . S
C554 H569 0.951 . S
C555 C554 1.402 . S
C555 C556 1.375 . S
C555 C558 1.481 . S
C556 C555 1.375 . S
C556 C557 1.367 . S
C556 H570 0.951 . S
C557 C553 1.383 . S
C557 C556 1.367 . S
C557 H571 0.950 . S
C558 C555 1.481 . S
C558 C559 1.297 . S
C558 H572 0.950 . S
C559 C558 1.297 . S
C559 C560 1.479 . S
C559 H573 0.950 . S
C560 C559 1.479 . S
C560 C561 1.375 . S
C560 C566 1.404 . S
C561 C560 1.375 . S
C561 C562 1.369 . S
C561 H574 0.950 . S
C562 C561 1.369 . S
C562 C563 1.392 . S
C562 H575 0.951 . S
C563 C562 1.392 . S
C563 C565 1.384 . S
H564 C566 0.949 . S
C565 C563 1.384 . S
C565 C566 1.385 . S
C565 H567 0.950 . S
C566 C560 1.404 . S
C566 H564 0.949 . S
C566 C565 1.385 . S
H567 C565 0.950 . S
H568 C552 0.951 . S
H569 C554 0.951 . S
H570 C556 0.951 . S
H571 C557 0.950 . S
H572 C558 0.950 . S
H573 C559 0.950 . S
H574 C561 0.950 . S
H575 C562 0.951 . S
C576 C577 1.386 . S
C576 C578 1.383 . S
C576 H592 0.951 . S
C577 C576 1.386 . S
C577 C581 1.383 . S
C578 C576 1.383 . S
C578 C579 1.402 . S
C578 H593 0.951 . S
C579 C578 1.402 . S
C579 C580 1.375 . S
C579 C582 1.481 . S
C580 C579 1.375 . S
C580 C581 1.367 . S
C580 H594 0.951 . S
C581 C577 1.383 . S
C581 C580 1.367 . S
C581 H595 0.950 . S
C582 C579 1.481 . S
C582 C583 1.297 . S
C582 H596 0.950 . S
C583 C582 1.297 . S
C583 C584 1.479 . S
C583 H597 0.950 . S
C584 C583 1.479 . S
C584 C585 1.375 . S
C584 C590 1.404 . S
C585 C584 1.375 . S
C585 C586 1.369 . S
C585 H598 0.950 . S
C586 C585 1.369 . S
C586 C587 1.392 . S
C586 H599 0.951 . S
C587 C586 1.392 . S
C587 C589 1.384 . S
H588 C590 0.949 . S
C589 C587 1.384 . S
C589 C590 1.385 . S
C589 H591 0.950 . S
C590 C584 1.404 . S
C590 H588 0.949 . S
C590 C589 1.385 . S
H591 C589 0.950 . S
H592 C576 0.951 . S
H593 C578 0.951 . S
H594 C580 0.951 . S
H595 C581 0.950 . S
H596 C582 0.950 . S
H597 C583 0.950 . S
H598 C585 0.950 . S
H599 C586 0.951 . S
C600 C601 1.386 . S
C600 C602 1.383 . S
C600 H616 0.951 . S
C601 C600 1.386 . S
C601 C605 1.383 . S
C602 C600 1.383 . S
C602 C603 1.402 . S
C602 H617 0.951 . S
C603 C602 1.402 . S
C603 C604 1.375 . S
C603 C606 1.481 . S
C604 C603 1.375 . S
C604 C605 1.367 . S
C604 H618 0.951 . S
C605 C601 1.383 . S
C605 C604 1.367 . S
C605 H619 0.950 . S
C606 C603 1.481 . S
C606 C607 1.297 . S
C606 H620 0.950 . S
C607 C606 1.297 . S
C607 C608 1.479 . S
C607 H621 0.950 . S
C608 C607 1.479 . S
C608 C609 1.375 . S
C608 C614 1.404 . S
C609 C608 1.375 . S
C609 C610 1.369 . S
C609 H622 0.950 . S
C610 C609 1.369 . S
C610 C611 1.392 . S
C610 H623 0.951 . S
C611 C610 1.392 . S
C611 C613 1.384 . S
H612 C614 0.949 . S
C613 C611 1.384 . S
C613 C614 1.385 . S
C613 H615 0.950 . S
C614 C608 1.404 . S
C614 H612 0.949 . S
C614 C613 1.385 . S
H615 C613 0.950 . S
H616 C600 0.951 . S
H617 C602 0.951 . S
H618 C604 0.951 . S
H619 C605 0.950 . S
H620 C606 0.950 . S
H621 C607 0.950 . S
H622 C609 0.950 . S
H623 C610 0.951 . S
C193 C189 1.389 1_556 S
C203 N13 1.225 . S
C217 C29 1.378 1_556 S
C227 N45 1.209 . S
C241 C61 1.371 1_556 S
C251 N77 1.259 . S
C265 N109 1.334 . S
C275 C93 1.409 1_556 S
C289 N141 1.309 . S
C299 C125 1.363 1_556 S
C313 C157 1.405 1_556 S
C323 N173 1.354 . S
C337 C130 1.529 . S
C347 N18 1.522 1_554 S
C361 C162 1.519 . S
C371 N50 1.496 . S
C385 N82 1.510 . S
C395 C2 1.501 . S
C409 N114 1.524 1_554 S
C419 C34 1.513 . S
C433 N146 1.518 1_554 S
C443 C66 1.521 . S
C457 C98 1.543 . S
C467 N178 1.535 1_554 S
C481 C6 1.504 . S
C491 C4 1.489 . S
C505 C38 1.519 . S
C515 C36 1.470 . S
C529 C70 1.508 . S
C539 C68 1.477 . S
C553 C102 1.502 . S
C563 C100 1.498 . S
C577 C132 1.507 . S
C587 C134 1.514 . S
C601 C166 1.515 . S
C611 C164 1.510 . S
