# Generated by pormake.
# Topology lcy-e, (6)-cn, num edge types: 1
# Building blocks:
#     Node 0, Type 0, BuildingBlock: BETGAK_clean_sbu_0, # of connection points: 6
#     Node 1, Type 0, BuildingBlock: BETGAK_clean_sbu_0, # of connection points: 6
#     Node 2, Type 0, BuildingBlock: BETGAK_clean_sbu_0, # of connection points: 6
#     Node 3, Type 0, BuildingBlock: BETGAK_clean_sbu_0, # of connection points: 6
#     Node 4, Type 0, BuildingBlock: BETGAK_clean_sbu_0, # of connection points: 6
#     Node 5, Type 0, BuildingBlock: BETGAK_clean_sbu_0, # of connection points: 6
#     Node 6, Type 0, BuildingBlock: BETGAK_clean_sbu_0, # of connection points: 6
#     Node 7, Type 0, BuildingBlock: BETGAK_clean_sbu_0, # of connection points: 6
#     Node 8, Type 0, BuildingBlock: BETGAK_clean_sbu_0, # of connection points: 6
#     Node 9, Type 0, BuildingBlock: BETGAK_clean_sbu_0, # of connection points: 6
#     Node 10, Type 0, BuildingBlock: BETGAK_clean_sbu_0, # of connection points: 6
#     Node 11, Type 0, BuildingBlock: BETGAK_clean_sbu_0, # of connection points: 6
#     Edge 12, Type (0, 0), BuildingBlock: UVAHIK_clean_linker_0, # of connection points: 2
#     Edge 13, Type (0, 0), BuildingBlock: UVAHIK_clean_linker_0, # of connection points: 2
#     Edge 14, Type (0, 0), BuildingBlock: UVAHIK_clean_linker_0, # of connection points: 2
#     Edge 15, Type (0, 0), BuildingBlock: UVAHIK_clean_linker_0, # of connection points: 2
#     Edge 16, Type (0, 0), BuildingBlock: UVAHIK_clean_linker_0, # of connection points: 2
#     Edge 17, Type (0, 0), BuildingBlock: UVAHIK_clean_linker_0, # of connection points: 2
#     Edge 18, Type (0, 0), BuildingBlock: UVAHIK_clean_linker_0, # of connection points: 2
#     Edge 19, Type (0, 0), BuildingBlock: UVAHIK_clean_linker_0, # of connection points: 2
#     Edge 20, Type (0, 0), BuildingBlock: UVAHIK_clean_linker_0, # of connection points: 2
#     Edge 21, Type (0, 0), BuildingBlock: UVAHIK_clean_linker_0, # of connection points: 2
#     Edge 22, Type (0, 0), BuildingBlock: UVAHIK_clean_linker_0, # of connection points: 2
#     Edge 23, Type (0, 0), BuildingBlock: UVAHIK_clean_linker_0, # of connection points: 2
#     Edge 24, Type (0, 0), BuildingBlock: UVAHIK_clean_linker_0, # of connection points: 2
#     Edge 25, Type (0, 0), BuildingBlock: UVAHIK_clean_linker_0, # of connection points: 2
#     Edge 26, Type (0, 0), BuildingBlock: UVAHIK_clean_linker_0, # of connection points: 2
#     Edge 27, Type (0, 0), BuildingBlock: UVAHIK_clean_linker_0, # of connection points: 2
#     Edge 28, Type (0, 0), BuildingBlock: UVAHIK_clean_linker_0, # of connection points: 2
#     Edge 29, Type (0, 0), BuildingBlock: UVAHIK_clean_linker_0, # of connection points: 2
#     Edge 30, Type (0, 0), BuildingBlock: UVAHIK_clean_linker_0, # of connection points: 2
#     Edge 31, Type (0, 0), BuildingBlock: UVAHIK_clean_linker_0, # of connection points: 2
#     Edge 32, Type (0, 0), BuildingBlock: UVAHIK_clean_linker_0, # of connection points: 2
#     Edge 33, Type (0, 0), BuildingBlock: UVAHIK_clean_linker_0, # of connection points: 2
#     Edge 34, Type (0, 0), BuildingBlock: UVAHIK_clean_linker_0, # of connection points: 2
#     Edge 35, Type (0, 0), BuildingBlock: UVAHIK_clean_linker_0, # of connection points: 2
#     Edge 36, Type (0, 0), BuildingBlock: UVAHIK_clean_linker_0, # of connection points: 2
#     Edge 37, Type (0, 0), BuildingBlock: UVAHIK_clean_linker_0, # of connection points: 2
#     Edge 38, Type (0, 0), BuildingBlock: UVAHIK_clean_linker_0, # of connection points: 2
#     Edge 39, Type (0, 0), BuildingBlock: UVAHIK_clean_linker_0, # of connection points: 2
#     Edge 40, Type (0, 0), BuildingBlock: UVAHIK_clean_linker_0, # of connection points: 2
#     Edge 41, Type (0, 0), BuildingBlock: UVAHIK_clean_linker_0, # of connection points: 2
#     Edge 42, Type (0, 0), BuildingBlock: UVAHIK_clean_linker_0, # of connection points: 2
#     Edge 43, Type (0, 0), BuildingBlock: UVAHIK_clean_linker_0, # of connection points: 2
#     Edge 44, Type (0, 0), BuildingBlock: UVAHIK_clean_linker_0, # of connection points: 2
#     Edge 45, Type (0, 0), BuildingBlock: UVAHIK_clean_linker_0, # of connection points: 2
#     Edge 46, Type (0, 0), BuildingBlock: UVAHIK_clean_linker_0, # of connection points: 2
#     Edge 47, Type (0, 0), BuildingBlock: UVAHIK_clean_linker_0, # of connection points: 2
# Relax obj value: 0.200
# Max RMSD: 0.304
# Mean RMSD: 0.281
data_MOF--net-lcy-e--node1-BETGAK_clean_sbu_0--edge1-UVAHIK_clean_linker_0
_symmetry_space_group_name_H-M    P1
_symmetry_Int_Tables_number       1
_symmetry_cell_setting            triclinic
loop_
_symmetry_equiv_pos_as_xyz
'x, y, z'
_cell_length_a     56.063552
_cell_length_b     51.567781
_cell_length_c     56.008131
_cell_angle_alpha  89.439475
_cell_angle_beta   90.914726
_cell_angle_gamma 88.52331
loop_
_atom_site_label
_atom_site_type_symbol
_atom_site_fract_x
_atom_site_fract_y
_atom_site_fract_z
_atom_type_partial_charge
La0 La 0.14431 0.25241 0.47116 0.0
La1 La 0.1611 0.20745 0.50145 0.0
C2 C 0.14123 0.29195 0.44436 0.0
C3 C 0.15148 0.29936 0.4212 0.0
C4 C 0.13613 0.30768 0.40248 0.0
C5 C 0.14519 0.31389 0.38009 0.0
C6 C 0.16985 0.31207 0.37599 0.0
C7 C 0.18526 0.30387 0.39481 0.0
C8 C 0.17616 0.29745 0.41718 0.0
C9 C 0.11577 0.21295 0.46997 0.0
C10 C 0.18732 0.21447 0.45378 0.0
C11 C 0.16413 0.16642 0.52636 0.0
C12 C 0.14914 0.14986 0.54148 0.0
C13 C 0.14805 0.15365 0.56626 0.0
C14 C 0.13623 0.13609 0.58083 0.0
C15 C 0.12536 0.11427 0.57097 0.0
C16 C 0.12581 0.11097 0.54609 0.0
C17 C 0.13762 0.1285 0.53154 0.0
C18 C 0.18632 0.2503 0.50523 0.0
C19 C 0.1209 0.24575 0.52081 0.0
O20 O 0.12618 0.27302 0.4436 0.0
O21 O 0.15585 0.28982 0.46281 0.0
O22 O 0.10893 0.23708 0.46882 0.0
O23 O 0.13842 0.21114 0.47021 0.0
O24 O 0.17525 0.23683 0.45119 0.0
O25 O 0.18301 0.19822 0.47135 0.0
O26 O 0.16962 0.18931 0.5344 0.0
O27 O 0.15922 0.16698 0.50343 0.0
O28 O 0.1956 0.22704 0.5071 0.0
O29 O 0.16423 0.24839 0.50312 0.0
O30 O 0.12908 0.22145 0.51987 0.0
O31 O 0.12734 0.26325 0.50474 0.0
H32 H 0.11705 0.30927 0.40515 0.0
H33 H 0.1329 0.32046 0.36605 0.0
H34 H 0.20432 0.30208 0.39214 0.0
H35 H 0.18843 0.29086 0.43123 0.0
H36 H 0.15686 0.1698 0.57453 0.0
H37 H 0.13596 0.13938 0.59989 0.0
H38 H 0.11793 0.09421 0.53791 0.0
H39 H 0.13836 0.12479 0.51256 0.0
La40 La 1.01061 0.85582 0.7294 0.0
La41 La 0.0505 0.86959 0.76392 0.0
C42 C 0.97451 0.85823 0.70183 0.0
C43 C 0.96848 0.86582 0.67674 0.0
C44 C 0.96893 0.84734 0.65846 0.0
C45 C 0.96133 0.85407 0.63523 0.0
C46 C 0.95293 0.87942 0.62971 0.0
C47 C 0.95296 0.89804 0.64791 0.0
C48 C 0.96056 0.89131 0.67113 0.0
C49 C 0.04884 0.82578 0.72677 0.0
C50 C 0.04577 0.90229 0.71687 0.0
C51 C 0.08769 0.86991 0.78998 0.0
C52 C 0.10556 0.85333 0.80315 0.0
C53 C 0.10861 0.8566 0.82785 0.0
C54 C 0.12795 0.8447 0.84013 0.0
C55 C 0.14484 0.82937 0.82793 0.0
C56 C 0.1412 0.82519 0.80336 0.0
C57 C 0.12178 0.83701 0.7911 0.0
C58 C 1.00987 0.8969 0.76792 0.0
C59 C 0.01551 0.82519 0.77747 0.0
O60 O 0.98768 0.83713 0.70538 0.0
O61 O 0.98059 0.87684 0.71627 0.0
O62 O 0.02736 0.81845 0.72207 0.0
O63 O 0.04872 0.84996 0.7304 0.0
O64 O 0.02687 0.88867 0.71099 0.0
O65 O 0.05857 0.89745 0.73644 0.0
O66 O 0.06605 0.87196 0.79838 0.0
O67 O 0.08775 0.86916 0.76662 0.0
O68 O 0.03069 0.90588 0.77319 0.0
O69 O 1.01265 0.87343 0.76311 0.0
O70 O 0.03805 0.8324 0.77765 0.0
O71 O 0.99986 0.83539 0.76174 0.0
H72 H 0.97474 0.82749 0.66216 0.0
H73 H 0.96182 0.8393 0.62162 0.0
H74 H 0.94628 0.91763 0.64445 0.0
H75 H 0.95966 0.90598 0.68482 0.0
H76 H 0.0966 0.86933 0.83753 0.0
H77 H 0.1303 0.84857 0.85898 0.0
H78 H 0.15367 0.81321 0.79349 0.0
H79 H 0.12002 0.8341 0.77203 0.0
La80 La 0.38541 0.77554 1.00992 0.0
La81 La 0.39644 0.74482 0.96491 0.0
C82 C 0.38446 0.80172 0.04765 0.0
C83 C 0.39878 0.82055 0.06079 0.0
C84 C 0.38782 0.83499 0.07878 0.0
C85 C 0.40037 0.8539 0.091 0.0
C86 C 0.42427 0.85879 0.08555 0.0
C87 C 0.43527 0.8442 0.06742 0.0
C88 C 0.42261 0.8252 0.05513 0.0
C89 C 0.35135 0.7761 0.97691 0.0
C90 C 0.42319 0.79754 0.97321 0.0
C91 C 0.39845 0.73089 0.92188 0.0
C92 C 0.39239 0.71088 0.9042 0.0
C93 C 0.4089 0.70478 0.88643 0.0
C94 C 0.40228 0.68984 0.86679 0.0
C95 C 0.37892 0.68073 0.86442 0.0
C96 C 0.36272 0.68587 0.88286 0.0
C97 C 0.36936 0.70081 0.90253 0.0
C98 C 0.42094 0.73057 1.0039 0.0
C99 C 0.36439 0.71986 1.00345 0.0
O100 O 0.37534 0.80988 0.02716 0.0
O101 O 0.39281 0.77772 0.04674 0.0
O102 O 0.3477 0.77606 0.99961 0.0
O103 O 0.37346 0.77703 0.97334 0.0
O104 O 0.41219 0.80043 0.99384 0.0
O105 O 0.41947 0.77752 0.95918 0.0
O106 O 0.41569 0.72604 0.93752 0.0
O107 O 0.38063 0.74417 0.93098 0.0
O108 O 0.4145 0.71452 0.98733 0.0
O109 O 0.41476 0.75321 0.99748 0.0
O110 O 0.36823 0.72212 0.98023 0.0
O111 O 0.37271 0.73681 0.01908 0.0
H112 H 0.36936 0.83186 0.0832 0.0
H113 H 0.39113 0.86506 0.10445 0.0
H114 H 0.45368 0.84731 0.06286 0.0
H115 H 0.43133 0.81429 0.04118 0.0
H116 H 0.42669 0.71247 0.88722 0.0
H117 H 0.41538 0.68585 0.85321 0.0
H118 H 0.34454 0.67933 0.88161 0.0
H119 H 0.35617 0.70537 0.91589 0.0
La120 La 0.53853 0.12385 0.23499 0.0
La121 La 0.49895 0.10707 0.2679 0.0
C122 C 0.57521 0.12495 0.20946 0.0
C123 C 0.58325 0.11574 0.18585 0.0
C124 C 0.59233 0.13368 0.16958 0.0
C125 C 0.60143 0.12551 0.14772 0.0
C126 C 0.60193 0.09907 0.14161 0.0
C127 C 0.5923 0.08115 0.15774 0.0
C128 C 0.58305 0.08938 0.1796 0.0
C129 C 0.49888 0.15157 0.23088 0.0
C130 C 0.50653 0.07479 0.22165 0.0
C131 C 0.46135 0.10462 0.29214 0.0
C132 C 0.44302 0.12026 0.30495 0.0
C133 C 0.4401 0.11615 0.32954 0.0
C134 C 0.42054 0.12717 0.34137 0.0
C135 C 0.4032 0.14247 0.32888 0.0
C136 C 0.40672 0.14756 0.30445 0.0
C137 C 0.42634 0.13654 0.29261 0.0
C138 C 0.541 0.08246 0.27367 0.0
C139 C 0.5311 0.15417 0.28231 0.0
O140 O 0.55868 0.14334 0.20938 0.0
O141 O 0.57184 0.10743 0.2261 0.0
O142 O 0.51996 0.16044 0.22736 0.0
O143 O 0.50026 0.12729 0.23442 0.0
O144 O 0.52481 0.08961 0.21653 0.0
O145 O 0.49298 0.07889 0.24035 0.0
O146 O 0.48291 0.1024 0.30149 0.0
O147 O 0.46164 0.1066 0.26881 0.0
O148 O 0.52071 0.07178 0.27775 0.0
O149 O 0.53688 0.10586 0.26883 0.0
O150 O 0.50932 0.1447 0.28227 0.0
O151 O 0.54737 0.14565 0.26707 0.0
H152 H 0.59264 0.15411 0.17391 0.0
H153 H 0.60818 0.13999 0.13562 0.0
H154 H 0.59252 0.06063 0.15381 0.0
H155 H 0.57612 0.07505 0.19175 0.0
H156 H 0.45252 0.10358 0.33951 0.0
H157 H 0.41876 0.12322 0.36027 0.0
H158 H 0.39373 0.15908 0.29416 0.0
H159 H 0.42788 0.14 0.2736 0.0
La160 La 0.6463 0.24545 0.55161 0.0
La161 La 0.6574 0.29176 0.52041 0.0
C162 C 0.64941 0.20416 0.57624 0.0
C163 C 0.65593 0.19611 0.60109 0.0
C164 C 0.63831 0.18646 0.61608 0.0
C165 C 0.64421 0.17721 0.63905 0.0
C166 C 0.66796 0.1771 0.64762 0.0
C167 C 0.68556 0.18724 0.63275 0.0
C168 C 0.67962 0.19662 0.60977 0.0
C169 C 0.61782 0.28587 0.55793 0.0
C170 C 0.68815 0.28363 0.56689 0.0
C171 C 0.65819 0.33366 0.49675 0.0
C172 C 0.64443 0.35437 0.48382 0.0
C173 C 0.62826 0.34928 0.4651 0.0
C174 C 0.61814 0.36981 0.45133 0.0
C175 C 0.62426 0.39564 0.45592 0.0
C176 C 0.6397 0.40056 0.47527 0.0
C177 C 0.64963 0.38018 0.48902 0.0
C178 C 0.68413 0.24926 0.51418 0.0
C179 C 0.61741 0.25376 0.50409 0.0
O180 O 0.62962 0.21794 0.57324 0.0
O181 O 0.66647 0.21247 0.56265 0.0
O182 O 0.61201 0.26201 0.5613 0.0
O183 O 0.63991 0.28678 0.55385 0.0
O184 O 0.67665 0.26196 0.57096 0.0
O185 O 0.68249 0.2994 0.5489 0.0
O186 O 0.6602 0.31064 0.48715 0.0
O187 O 0.65617 0.33251 0.51998 0.0
O188 O 0.69184 0.27253 0.51132 0.0
O189 O 0.6623 0.25082 0.51823 0.0
O190 O 0.62348 0.27839 0.50548 0.0
O191 O 0.62742 0.23592 0.51856 0.0
H192 H 0.61993 0.18575 0.60991 0.0
H193 H 0.63007 0.17004 0.65007 0.0
H194 H 0.70406 0.18726 0.63858 0.0
H195 H 0.6937 0.20383 0.59868 0.0
H196 H 0.62398 0.32952 0.46067 0.0
H197 H 0.60633 0.36541 0.43651 0.0
H198 H 0.64446 0.42022 0.47954 0.0
H199 H 0.66208 0.38459 0.50333 0.0
La200 La 0.99719 0.38087 0.74668 0.0
La201 La 0.02853 0.36032 0.78699 0.0
C202 C 0.97096 0.3857 0.7099 0.0
C203 C 0.94856 0.37419 0.70149 0.0
C204 C 0.92951 0.3906 0.69399 0.0
C205 C 0.90797 0.38026 0.68625 0.0
C206 C 0.90514 0.35327 0.68568 0.0
C207 C 0.92424 0.33682 0.69321 0.0
C208 C 0.94573 0.34717 0.70118 0.0
C209 C 0.99553 0.4088 0.78549 0.0
C210 C 0.98043 0.33289 0.77904 0.0
C211 C 0.05345 0.35447 0.82464 0.0
C212 C 0.06661 0.36954 0.84263 0.0
C213 C 0.09037 0.3624 0.84821 0.0
C214 C 0.10213 0.37339 0.86768 0.0
C215 C 0.0903 0.39162 0.88216 0.0
C216 C 0.0669 0.39979 0.87576 0.0
C217 C 0.05517 0.38888 0.85619 0.0
C218 C 0.03227 0.33538 0.74588 0.0
C219 C 0.04599 0.40675 0.75488 0.0
O220 O 0.96917 0.40081 0.72845 0.0
O221 O 0.98992 0.37034 0.71128 0.0
O222 O 0.9935 0.41812 0.76397 0.0
O223 O 0.99675 0.38426 0.78495 0.0
O224 O 0.97732 0.34708 0.75931 0.0
O225 O 0.99857 0.3362 0.79382 0.0
O226 O 0.06229 0.3529 0.80319 0.0
O227 O 0.03018 0.35723 0.82421 0.0
O228 O 0.03505 0.3242 0.76662 0.0
O229 O 0.02953 0.3592 0.74911 0.0
O230 O 0.04551 0.39655 0.77668 0.0
O231 O 0.03002 0.40052 0.73833 0.0
H232 H 0.9313 0.41147 0.69411 0.0
H233 H 0.89364 0.39339 0.6803 0.0
H234 H 0.92248 0.31595 0.69314 0.0
H235 H 0.96005 0.33403 0.70711 0.0
H236 H 0.09957 0.34757 0.83803 0.0
H237 H 0.12032 0.36706 0.87177 0.0
H238 H 0.05719 0.41367 0.88655 0.0
H239 H 0.03684 0.39483 0.85233 0.0
La240 La 0.89606 0.73956 0.04759 0.0
La241 La 0.88126 0.69408 0.0176 0.0
C242 C 0.89981 0.77879 0.0739 0.0
C243 C 0.88709 0.79078 0.09399 0.0
C244 C 0.87416 0.77579 0.11011 0.0
C245 C 0.86434 0.78712 0.13048 0.0
C246 C 0.86741 0.81361 0.13516 0.0
C247 C 0.87962 0.82868 0.11845 0.0
C248 C 0.88935 0.81736 0.09808 0.0
C249 C 0.92667 0.70021 0.0476 0.0
C250 C 0.85511 0.7018 0.06539 0.0
C251 C 0.87913 0.65212 0.99484 0.0
C252 C 0.89364 0.63304 0.98163 0.0
C253 C 0.91531 0.63931 0.97107 0.0
C254 C 0.92835 0.62043 0.95849 0.0
C255 C 0.92 0.59497 0.95648 0.0
C256 C 0.89836 0.58891 0.96733 0.0
C257 C 0.88537 0.60773 0.97974 0.0
C258 C 0.85218 0.7357 0.01499 0.0
C259 C 0.91852 0.73334 0.99733 0.0
O260 O 0.91036 0.7563 0.07837 0.0
O261 O 0.88895 0.77939 0.05304 0.0
O262 O 0.93246 0.72428 0.0482 0.0
O263 O 0.90423 0.69846 0.04819 0.0
O264 O 0.86499 0.72485 0.06687 0.0
O265 O 0.8612 0.68504 0.04885 0.0
O266 O 0.87528 0.67507 0.98508 0.0
O267 O 0.88339 0.6534 0.01781 0.0
O268 O 0.84549 0.71222 1.01109 0.0
O269 O 0.87446 0.73504 0.01685 0.0
O270 O 0.91181 0.70892 0.99845 0.0
O271 O 0.91172 0.75053 0.01354 0.0
H272 H 0.87232 0.75519 0.10738 0.0
H273 H 0.85522 0.77491 0.14305 0.0
H274 H 0.88197 0.84921 0.1213 0.0
H275 H 0.89921 0.82926 0.08583 0.0
H276 H 0.92209 0.6587 0.97253 0.0
H277 H 0.94504 0.6257 0.95051 0.0
H278 H 0.89117 0.56969 0.96585 0.0
H279 H 0.86868 0.60253 0.98779 0.0
La280 La 0.54699 0.61637 0.24656 0.0
La281 La 0.51056 0.63392 0.2831 0.0
C282 C 0.57157 0.60695 0.21036 0.0
C283 C 0.59572 0.6141 0.20274 0.0
C284 C 0.61115 0.59532 0.19301 0.0
C285 C 0.63361 0.60214 0.18473 0.0
C286 C 0.64108 0.62802 0.18579 0.0
C287 C 0.62568 0.64668 0.19601 0.0
C288 C 0.60337 0.63979 0.2045 0.0
C289 C 0.55676 0.60199 0.29148 0.0
C290 C 0.55655 0.66603 0.27642 0.0
C291 C 0.48399 0.6388 0.31873 0.0
C292 C 0.472 0.6233 0.3372 0.0
C293 C 0.44766 0.62799 0.34129 0.0
C294 C 0.43658 0.61655 0.36081 0.0
C295 C 0.44965 0.60022 0.37684 0.0
C296 C 0.4738 0.59458 0.37207 0.0
C297 C 0.48487 0.60601 0.35248 0.0
C298 C 0.50753 0.65758 0.24054 0.0
C299 C 0.50033 0.58349 0.25342 0.0
O300 O 0.57034 0.59081 0.22853 0.0
O301 O 0.5558 0.62612 0.21155 0.0
O302 O 0.57261 0.60802 0.27592 0.0
O303 O 0.53667 0.60327 0.28125 0.0
O304 O 0.55907 0.65513 0.25531 0.0
O305 O 0.54099 0.65754 0.29193 0.0
O306 O 0.47579 0.63773 0.29669 0.0
O307 O 0.50737 0.63925 0.31986 0.0
O308 O 0.50187 0.66863 0.26044 0.0
O309 O 0.51271 0.63439 0.24527 0.0
O310 O 0.49556 0.59712 0.27277 0.0
O311 O 0.5188 0.58845 0.23967 0.0
H312 H 0.60573 0.57537 0.19161 0.0
H313 H 0.64509 0.58709 0.17746 0.0
H314 H 0.63052 0.66684 0.1969 0.0
H315 H 0.59195 0.65474 0.21206 0.0
H316 H 0.43735 0.64126 0.32981 0.0
H317 H 0.41785 0.62095 0.36364 0.0
H318 H 0.48448 0.58227 0.38407 0.0
H319 H 0.5037 0.60204 0.34989 0.0
La320 La 0.23294 0.49149 0.14179 0.0
La321 La 0.26163 0.44407 0.12661 0.0
C322 C 0.20771 0.53262 0.14347 0.0
C323 C 0.1845 0.54169 0.13306 0.0
C324 C 0.16679 0.55154 0.14817 0.0
C325 C 0.14457 0.55995 0.13889 0.0
C326 C 0.13959 0.55882 0.11424 0.0
C327 C 0.15735 0.54888 0.0991 0.0
C328 C 0.17956 0.54035 0.10841 0.0
C329 C 0.23033 0.4511 0.17017 0.0
C330 C 0.21372 0.45539 0.09947 0.0
C331 C 0.2831 0.40055 0.12413 0.0
C332 C 0.29698 0.38105 0.13822 0.0
C333 C 0.29891 0.35579 0.12937 0.0
C334 C 0.31171 0.33649 0.1421 0.0
C335 C 0.32292 0.34202 0.16403 0.0
C336 C 0.32093 0.36746 0.17294 0.0
C337 C 0.30795 0.38683 0.16016 0.0
C338 C 0.2667 0.48658 0.10028 0.0
C339 C 0.28276 0.48151 0.1659 0.0
O340 O 0.20677 0.51382 0.15925 0.0
O341 O 0.22551 0.52926 0.12883 0.0
O342 O 0.23004 0.47489 0.17732 0.0
O343 O 0.23059 0.45041 0.14763 0.0
O344 O 0.21208 0.47764 0.11103 0.0
O345 O 0.23076 0.43794 0.10419 0.0
O346 O 0.29311 0.42266 0.11944 0.0
O347 O 0.2606 0.40355 0.12957 0.0
O348 O 0.26831 0.46326 0.09185 0.0
O349 O 0.26439 0.48488 0.12239 0.0
O350 O 0.2811 0.45721 0.15853 0.0
O351 O 0.26712 0.49985 0.1587 0.0
H352 H 0.17018 0.55278 0.16722 0.0
H353 H 0.13143 0.56781 0.15101 0.0
H354 H 0.15402 0.54753 0.08006 0.0
H355 H 0.1928 0.53269 0.09631 0.0
H356 H 0.29053 0.35098 0.11247 0.0
H357 H 0.31318 0.31729 0.1345 0.0
H358 H 0.32921 0.37232 0.18986 0.0
H359 H 0.30647 0.4062 0.16736 0.0
La360 La 0.73501 0.98361 0.88303 0.0
La361 La 0.76752 0.02743 0.89429 0.0
C362 C 0.70954 0.94405 0.88605 0.0
C363 C 0.68506 0.93773 0.89364 0.0
C364 C 0.6665 0.93579 0.87663 0.0
C365 C 0.64374 0.9284 0.88349 0.0
C366 C 0.63898 0.9225 0.90751 0.0
C367 C 0.65751 0.92471 0.92456 0.0
C368 C 0.68027 0.93217 0.91771 0.0
C369 C 0.72889 0.02371 0.85412 0.0
C370 C 0.72219 0.02329 0.92537 0.0
C371 C 0.79312 0.06708 0.89367 0.0
C372 C 0.80669 0.08415 0.87756 0.0
C373 C 0.8317 0.08184 0.87701 0.0
C374 C 0.84504 0.10035 0.86506 0.0
C375 C 0.83371 0.12177 0.85347 0.0
C376 C 0.80862 0.12346 0.85312 0.0
C377 C 0.79527 0.10494 0.86511 0.0
C378 C 0.77399 0.98437 0.92046 0.0
C379 C 0.78176 0.98802 0.85423 0.0
O380 O 0.71146 0.95796 0.86653 0.0
O381 O 0.72461 0.95107 0.90272 0.0
O382 O 0.7253 0.99985 0.84844 0.0
O383 O 0.73342 0.02501 0.87635 0.0
O384 O 0.7172 1.00181 0.91368 0.0
O385 O 0.74041 0.0377 0.91973 0.0
O386 O 0.80153 0.04349 0.89775 0.0
O387 O 0.76981 0.06789 0.89174 0.0
O388 O 0.7774 1.00746 0.9286 0.0
O389 O 0.7691 0.98644 0.89871 0.0
O390 O 0.78091 0.01281 0.86015 0.0
O391 O 0.7673 0.97132 0.86436 0.0
H392 H 0.66961 0.93972 0.85792 0.0
H393 H 0.62987 0.92727 0.86989 0.0
H394 H 0.65465 0.91997 0.94316 0.0
H395 H 0.69419 0.93314 0.93128 0.0
H396 H 0.84108 0.06623 0.88659 0.0
H397 H 0.86431 0.09822 0.86541 0.0
H398 H 0.79929 0.1398 0.84459 0.0
H399 H 0.77605 0.10759 0.86541 0.0
La400 La 0.77484 0.96098 0.39754 0.0
La401 La 0.81664 0.9934 0.38247 0.0
C402 C 0.73668 0.93614 0.39932 0.0
C403 C 0.72493 0.91456 0.38705 0.0
C404 C 0.71384 0.89568 0.40085 0.0
C405 C 0.70148 0.87568 0.38994 0.0
C406 C 0.69977 0.87416 0.36489 0.0
C407 C 0.71141 0.89281 0.35105 0.0
C408 C 0.72389 0.91281 0.36202 0.0
C409 C 0.81367 0.95425 0.4239 0.0
C410 C 0.80639 0.94425 0.35253 0.0
C411 C 0.85581 0.01654 0.37999 0.0
C412 C 0.87444 0.0302 0.39389 0.0
C413 C 0.87663 0.05716 0.39123 0.0
C414 C 0.89636 0.06976 0.40092 0.0
C415 C 0.91458 0.05569 0.41336 0.0
C416 C 0.912 0.02883 0.41668 0.0
C417 C 0.89221 0.01624 0.40708 0.0
C418 C 0.77569 1.00188 0.35882 0.0
C419 C 0.7843 0.01184 0.42559 0.0
O420 O 0.75582 0.93009 0.41204 0.0
O421 O 0.73886 0.95785 0.38731 0.0
O422 O 0.79215 0.95203 0.43158 0.0
O423 O 0.81307 0.95753 0.40148 0.0
O424 O 0.78643 0.94165 0.36461 0.0
O425 O 0.82208 0.96199 0.35786 0.0
O426 O 0.83493 0.0281 0.37645 0.0
O427 O 0.854 0.99155 0.3836 0.0
O428 O 0.79645 1.00408 0.34913 0.0
O429 O 0.77888 0.99716 0.38057 0.0
O430 O 0.80593 0.01135 0.41625 0.0
O431 O 0.76775 0.99546 0.41865 0.0
H432 H 0.71453 0.89655 0.42017 0.0
H433 H 0.69323 0.8614 0.40121 0.0
H434 H 0.71036 0.89237 0.33174 0.0
H435 H 0.7324 0.9271 0.35093 0.0
H436 H 0.86353 0.06842 0.38082 0.0
H437 H 0.89782 0.0904 0.39775 0.0
H438 H 0.92549 0.01742 0.42642 0.0
H439 H 0.89129 0.99541 0.40934 0.0
La440 La 0.31122 0.48838 0.63325 0.0
La441 La 0.28083 0.53447 0.61794 0.0
C442 C 0.33649 0.44727 0.63449 0.0
C443 C 0.36111 0.43986 0.62773 0.0
C444 C 0.37731 0.43097 0.6455 0.0
C445 C 0.40074 0.42399 0.63977 0.0
C446 C 0.4085 0.42543 0.61603 0.0
C447 C 0.39227 0.4345 0.59822 0.0
C448 C 0.36882 0.44167 0.604 0.0
C449 C 0.31503 0.5283 0.66139 0.0
C450 C 0.32828 0.52592 0.59083 0.0
C451 C 0.25711 0.57673 0.61497 0.0
C452 C 0.24408 0.59578 0.62965 0.0
C453 C 0.23084 0.58846 0.64957 0.0
C454 C 0.21835 0.60727 0.6627 0.0
C455 C 0.21895 0.63371 0.65615 0.0
C456 C 0.23247 0.64083 0.6363 0.0
C457 C 0.24487 0.62207 0.62324 0.0
C458 C 0.2753 0.49137 0.59282 0.0
C459 C 0.26318 0.49751 0.65892 0.0
O460 O 0.33458 0.46316 0.65245 0.0
O461 O 0.32121 0.45317 0.61721 0.0
O462 O 0.31681 0.50434 0.66833 0.0
O463 O 0.31315 0.52963 0.63882 0.0
O464 O 0.33165 0.50406 0.60323 0.0
O465 O 0.31021 0.54203 0.59479 0.0
O466 O 0.2478 0.55392 0.61202 0.0
O467 O 0.28024 0.57517 0.61839 0.0
O468 O 0.27318 0.51455 0.58369 0.0
O469 O 0.27846 0.49351 0.61482 0.0
O470 O 0.26442 0.52184 0.65129 0.0
O471 O 0.27791 0.47923 0.65073 0.0
H472 H 0.37185 0.42949 0.66393 0.0
H473 H 0.41281 0.41758 0.65404 0.0
H474 H 0.39752 0.4356 0.57972 0.0
H475 H 0.35676 0.44849 0.58987 0.0
H476 H 0.23007 0.56827 0.65487 0.0
H477 H 0.2083 0.60112 0.67801 0.0
H478 H 0.23304 0.66088 0.63046 0.0
H479 H 0.25495 0.62811 0.60789 0.0
C480 C 0.22289 0.27672 0.51364 0.0
C481 C 0.198 0.27499 0.51109 0.0
C482 C 0.23313 0.30029 0.52028 0.0
C483 C 0.24771 0.35891 0.52256 0.0
H484 H 0.21906 0.39071 0.57805 0.0
C485 C 0.26511 0.46477 0.55649 0.0
C486 C 0.26927 0.46657 0.58123 0.0
C487 C 0.25835 0.4411 0.54639 0.0
C488 C 0.22728 0.3821 0.56254 0.0
H489 H 0.16443 0.29671 0.51306 0.0
H490 H 0.18212 0.33722 0.52487 0.0
H491 H 0.20403 0.34985 0.56325 0.0
H492 H 0.27016 0.44485 0.61463 0.0
H493 H 0.25818 0.40416 0.59721 0.0
H494 H 0.27082 0.39162 0.52186 0.0
C495 C 0.19378 0.32056 0.52175 0.0
C496 C 0.21861 0.35874 0.55401 0.0
C497 C 0.18366 0.2973 0.51489 0.0
C498 C 0.26701 0.44423 0.59552 0.0
C499 C 0.26006 0.42086 0.58556 0.0
C500 C 0.25619 0.38265 0.53093 0.0
C501 C 0.21858 0.32232 0.52482 0.0
C502 C 0.22869 0.34683 0.53395 0.0
C503 C 0.25534 0.41903 0.56095 0.0
C504 C 0.24613 0.3944 0.55112 0.0
H505 H 0.23437 0.25986 0.51076 0.0
H506 H 0.25231 0.30108 0.52259 0.0
H507 H 0.25571 0.35024 0.50697 0.0
H508 H 0.26679 0.48165 0.54504 0.0
H509 H 0.25475 0.44027 0.52737 0.0
C510 C 0.8121 0.95331 0.8455 0.0
C511 C 0.80257 0.97827 0.84071 0.0
C512 C 0.83396 0.94535 0.83596 0.0
C513 C 0.88847 0.97176 0.80716 0.0
H514 H 0.90227 0.89857 0.79858 0.0
C515 C 0.98424 0.93219 0.78622 0.0
C516 C 0.98636 0.9088 0.77373 0.0
C517 C 0.96169 0.94171 0.79319 0.0
C518 C 0.8988 0.91919 0.80031 0.0
H519 H 0.80793 0.01414 0.82136 0.0
H520 H 0.84523 0.99972 0.80329 0.0
H521 H 0.86298 0.91254 0.8103 0.0
H522 H 0.96651 0.87721 0.75866 0.0
H523 H 0.92771 0.89474 0.76838 0.0
H524 H 0.924 0.97841 0.79554 0.0
C525 C 0.83646 0.98655 0.81525 0.0
C526 C 0.87614 0.92724 0.80768 0.0
C527 C 0.81485 0.99474 0.82532 0.0
C528 C 0.96556 0.89557 0.76781 0.0
C529 C 0.94315 0.90541 0.774 0.0
C530 C 0.91104 0.96374 0.79912 0.0
C531 C 0.84666 0.96189 0.82083 0.0
C532 C 0.87062 0.95361 0.81155 0.0
C533 C 0.94076 0.92828 0.78736 0.0
C534 C 0.91663 0.93727 0.79567 0.0
H535 H 0.80334 0.94033 0.85768 0.0
H536 H 0.84121 0.9265 0.84131 0.0
H537 H 0.88527 0.99222 0.81026 0.0
H538 H 1.0 0.94268 0.79126 0.0
H539 H 0.96085 0.95919 0.8037 0.0
C540 C 0.34507 0.67728 0.99603 0.0
C541 C 0.35153 0.69685 1.01207 0.0
C542 C 0.33403 0.65491 1.00412 0.0
C543 C 0.29956 0.62851 0.05393 0.0
H544 H 0.32307 0.56171 0.03176 0.0
C545 C 0.27668 0.5333 0.1014 0.0
C546 C 0.27353 0.51074 0.08798 0.0
C547 C 0.28428 0.55606 0.09062 0.0
C548 C 0.31597 0.58018 0.03783 0.0
H549 H 0.35104 0.70827 0.04923 0.0
H550 H 0.33162 0.66923 0.06333 0.0
H551 H 0.33998 0.60144 0.01613 0.0
H552 H 0.27558 0.49439 0.05261 0.0
H553 H 0.28865 0.53452 0.03346 0.0
H554 H 0.27553 0.60739 0.07558 0.0
C555 C 0.33506 0.67132 0.04444 0.0
C556 C 0.32574 0.60298 0.02892 0.0
C557 C 0.34628 0.69365 0.03637 0.0
C558 C 0.27788 0.51151 0.06337 0.0
C559 C 0.28548 0.53445 0.05248 0.0
C560 C 0.28968 0.60575 0.0627 0.0
C561 C 0.32899 0.65158 0.02843 0.0
C562 C 0.31786 0.6274 0.03711 0.0
C563 C 0.2889 0.557 0.06604 0.0
C564 C 0.298 0.58124 0.05506 0.0
H565 H 0.34879 0.67902 0.97718 0.0
H566 H 0.32934 0.64022 0.9913 0.0
H567 H 0.2928 0.64702 0.06028 0.0
H568 H 0.27377 0.5333 0.12046 0.0
H569 H 0.28717 0.57276 0.10178 0.0
C570 C 0.56933 0.04531 0.28534 0.0
C571 C 0.56517 0.0717 0.27978 0.0
C572 C 0.59237 0.0361 0.292 0.0
C573 C 0.64727 0.02226 0.29325 0.0
H574 H 0.67884 0.06295 0.34171 0.0
C575 C 0.74812 0.00919 0.32307 0.0
C576 C 0.75198 0.00838 0.34793 0.0
C577 C 0.72528 0.01535 0.31349 0.0
C578 C 0.67029 0.05136 0.32817 0.0
H579 H 0.582 0.10896 0.27648 0.0
H580 H 0.62165 0.09309 0.28827 0.0
H581 H 0.63896 0.07596 0.32745 0.0
H582 H 0.73502 0.01342 0.38217 0.0
H583 H 0.69568 0.02447 0.36558 0.0
H584 H 0.67895 0.99774 0.29401 0.0
C585 C 0.60728 0.07945 0.28753 0.0
C586 C 0.64748 0.05888 0.31992 0.0
C587 C 0.5845 0.08852 0.28067 0.0
C588 C 0.73266 0.01382 0.36293 0.0
C589 C 0.71009 0.02027 0.35343 0.0
C590 C 0.67038 0.01491 0.30129 0.0
C591 C 0.6115 0.05323 0.29354 0.0
C592 C 0.63564 0.04445 0.3024 0.0
C593 C 0.70609 0.02124 0.32863 0.0
C594 C 0.68207 0.02933 0.31898 0.0
H595 H 0.55478 0.0319 0.28475 0.0
H596 H 0.59508 0.01578 0.29662 0.0
H597 H 0.63865 0.01085 0.27964 0.0
H598 H 0.76268 1.00498 0.31111 0.0
H599 H 0.72274 0.01607 0.29428 0.0
C600 C 0.6846 0.20139 0.50946 0.0
C601 C 0.69696 0.2247 0.50873 0.0
C602 C 0.69579 0.17805 0.50321 0.0
C603 C 0.75415 0.14504 0.4941 0.0
H604 H 0.71633 0.10042 0.45398 0.0
C605 C 0.79229 0.055 0.44406 0.0
C606 C 0.77732 0.03372 0.4412 0.0
C607 C 0.78397 0.07763 0.45515 0.0
C608 C 0.72704 0.11239 0.4655 0.0
H609 H 0.73094 0.24187 0.50139 0.0
H610 H 0.75067 0.20079 0.49005 0.0
H611 H 0.69937 0.1415 0.46715 0.0
H612 H 0.74252 0.01885 0.44945 0.0
H613 H 0.72825 0.058 0.46915 0.0
H614 H 0.78195 0.11576 0.49216 0.0
C615 C 0.7323 0.20064 0.49573 0.0
C616 C 0.71732 0.13604 0.47301 0.0
C617 C 0.72101 0.22414 0.50208 0.0
C618 C 0.75445 0.03495 0.4511 0.0
C619 C 0.74619 0.0575 0.46224 0.0
C620 C 0.76393 0.12124 0.48656 0.0
C621 C 0.71964 0.1774 0.49587 0.0
C622 C 0.73064 0.15259 0.48754 0.0
C623 C 0.76054 0.07943 0.46367 0.0
C624 C 0.7504 0.10456 0.47229 0.0
H625 H 0.66605 0.20115 0.51454 0.0
H626 H 0.68564 0.16048 0.50397 0.0
H627 H 0.76481 0.15729 0.50541 0.0
H628 H 0.81003 0.05474 0.43667 0.0
H629 H 0.79548 0.09416 0.45589 0.0
C630 C 0.0695 0.43094 0.72452 0.0
C631 C 0.06673 0.42237 0.7482 0.0
C632 C 0.09073 0.44223 0.71748 0.0
C633 C 0.1544 0.44155 0.73358 0.0
H634 H 0.15692 0.49864 0.68822 0.0
C635 C 0.22745 0.50964 0.68307 0.0
C636 C 0.24303 0.49033 0.67422 0.0
C637 C 0.20662 0.50294 0.69476 0.0
C638 C 0.15654 0.48285 0.7011 0.0
H639 H 0.08369 0.42025 0.78333 0.0
H640 H 0.12057 0.44002 0.77101 0.0
H641 H 0.11845 0.48556 0.70352 0.0
H642 H 0.24951 0.44879 0.67184 0.0
H643 H 0.2132 0.43711 0.69235 0.0
H644 H 0.19246 0.43866 0.73097 0.0
C645 C 0.10646 0.43766 0.75784 0.0
C646 C 0.13449 0.47521 0.70967 0.0
C647 C 0.08522 0.42649 0.76491 0.0
C648 C 0.23792 0.46415 0.67843 0.0
C649 C 0.21711 0.45745 0.69023 0.0
C650 C 0.17644 0.44907 0.72488 0.0
C651 C 0.10967 0.44511 0.73393 0.0
C652 C 0.13315 0.45435 0.72588 0.0
C653 C 0.20096 0.47678 0.69803 0.0
C654 C 0.17775 0.46968 0.7084 0.0
H655 H 0.05565 0.42804 0.71118 0.0
H656 H 0.0927 0.44764 0.69889 0.0
H657 H 0.15396 0.42521 0.74585 0.0
H658 H 0.23101 0.52998 0.68047 0.0
H659 H 0.19477 0.51827 0.70096 0.0
C660 C 0.77794 0.93621 0.91945 0.0
C661 C 0.77965 0.95919 0.93257 0.0
C662 C 0.78393 0.91218 0.92984 0.0
C663 C 0.79378 0.87736 0.98751 0.0
H664 H 0.82818 0.82845 0.94772 0.0
C665 C 0.8384 0.78104 0.02319 0.0
C666 C 0.83846 0.75949 1.0081 0.0
C667 C 0.82909 0.80511 0.01522 0.0
C668 C 0.81826 0.84166 0.959 0.0
H669 H 0.78878 0.97494 0.96711 0.0
H670 H 0.79968 0.93263 0.98543 0.0
H671 H 0.81718 0.87123 0.93199 0.0
H672 H 0.82771 0.74561 0.97336 0.0
H673 H 0.81103 0.78755 0.95939 0.0
H674 H 0.7952 0.84764 0.01465 0.0
C675 C 0.79338 0.93331 0.96705 0.0
C676 C 0.81198 0.86631 0.94998 0.0
C677 C 0.78727 0.95754 0.95657 0.0
C678 C 0.82784 0.76198 0.98534 0.0
C679 C 0.81858 0.78608 0.97728 0.0
C680 C 0.80015 0.85262 0.9966 0.0
C681 C 0.79205 0.91033 0.95367 0.0
C682 C 0.79947 0.88446 0.964 0.0
C683 C 0.81967 0.80814 0.9919 0.0
C684 C 0.81234 0.83438 0.98238 0.0
H685 H 0.77214 0.9367 0.90092 0.0
H686 H 0.78216 0.89498 0.91908 0.0
H687 H 0.78399 0.89072 0.99875 0.0
H688 H 0.84589 0.77935 0.04105 0.0
H689 H 0.83022 0.82157 0.02701 0.0
C690 C 0.46535 0.55599 0.26187 0.0
C691 C 0.48252 0.56447 0.24571 0.0
C692 C 0.44556 0.54244 0.25383 0.0
C693 C 0.40797 0.53839 0.20038 0.0
H694 H 0.37672 0.48405 0.2355 0.0
C695 C 0.30983 0.51523 0.18207 0.0
C696 C 0.30453 0.48894 0.17925 0.0
C697 C 0.332 0.52237 0.19128 0.0
C698 C 0.3853 0.49913 0.22544 0.0
H699 H 0.49319 0.56387 0.20868 0.0
H700 H 0.45861 0.54008 0.19464 0.0
H701 H 0.41635 0.49779 0.24836 0.0
H702 H 0.31793 0.4495 0.18521 0.0
H703 H 0.35657 0.46203 0.20144 0.0
H704 H 0.37698 0.53994 0.17759 0.0
C705 C 0.46038 0.54418 0.21351 0.0
C706 C 0.40793 0.50706 0.23285 0.0
C707 C 0.48031 0.55758 0.22159 0.0
C708 C 0.32145 0.46994 0.18705 0.0
C709 C 0.34359 0.4771 0.19641 0.0
C710 C 0.38534 0.53062 0.1931 0.0
C711 C 0.44241 0.53721 0.22944 0.0
C712 C 0.41944 0.52693 0.22049 0.0
C713 C 0.34933 0.50339 0.19803 0.0
C714 C 0.37363 0.5111 0.20569 0.0
H715 H 0.46658 0.56088 0.28061 0.0
H716 H 0.43202 0.53747 0.26656 0.0
H717 H 0.41618 0.55398 0.19065 0.0
H718 H 0.29724 0.53039 0.17629 0.0
H719 H 0.33574 0.5428 0.19274 0.0
C720 C 0.52135 0.17954 0.31901 0.0
C721 C 0.53832 0.17088 0.30244 0.0
C722 C 0.52853 0.19144 0.34018 0.0
C723 C 0.58021 0.19224 0.38119 0.0
H724 H 0.54548 0.24865 0.41148 0.0
C725 C 0.60001 0.21901 0.47867 0.0
C726 C 0.60297 0.24551 0.48321 0.0
C727 C 0.59004 0.21099 0.45701 0.0
C728 C 0.5554 0.23293 0.40321 0.0
H729 H 0.57608 0.16939 0.29454 0.0
H730 H 0.58857 0.19037 0.33135 0.0
H731 H 0.53332 0.23466 0.37157 0.0
H732 H 0.59641 0.28442 0.46901 0.0
H733 H 0.57903 0.27037 0.43127 0.0
H734 H 0.6024 0.19056 0.4126 0.0
C735 C 0.56972 0.18756 0.32813 0.0
C736 C 0.54836 0.22483 0.38042 0.0
C737 C 0.56253 0.17574 0.30691 0.0
C738 C 0.59444 0.26384 0.46613 0.0
C739 C 0.58441 0.2558 0.44448 0.0
C740 C 0.58714 0.20022 0.40397 0.0
C741 C 0.55286 0.1949 0.34531 0.0
C742 C 0.56071 0.20439 0.36913 0.0
C743 C 0.58273 0.22926 0.43938 0.0
C744 C 0.57481 0.22061 0.41531 0.0
H745 H 0.50253 0.17618 0.31613 0.0
H746 H 0.51509 0.19675 0.35305 0.0
H747 H 0.58991 0.17619 0.37319 0.0
H748 H 0.60627 0.20435 0.49142 0.0
H749 H 0.58856 0.19041 0.45383 0.0
C750 C 0.10079 0.27984 0.54605 0.0
C751 C 0.10677 0.25364 0.5419 0.0
C752 C 0.08996 0.2873 0.56742 0.0
C753 C 0.08429 0.26541 0.63004 0.0
H754 H 0.03505 0.31938 0.63264 0.0
C755 C 0.04203 0.29721 0.71966 0.0
C756 C 0.03807 0.324 0.72243 0.0
C757 C 0.04832 0.28715 0.69733 0.0
C758 C 0.04895 0.30441 0.63229 0.0
H759 H 0.1051 0.21463 0.55669 0.0
H760 H 0.0862 0.22763 0.59363 0.0
H761 H 0.04969 0.30511 0.59402 0.0
H762 H 0.03779 0.36123 0.70407 0.0
H763 H 0.04886 0.34393 0.6656 0.0
H764 H 0.08397 0.26507 0.66827 0.0
C765 C 0.09018 0.24248 0.58058 0.0
C766 C 0.05732 0.29623 0.6101 0.0
C767 C 0.10089 0.23503 0.55925 0.0
C768 C 0.04038 0.34045 0.70249 0.0
C769 C 0.04665 0.33047 0.68031 0.0
C770 C 0.076 0.27367 0.65224 0.0
C771 C 0.08496 0.26874 0.58515 0.0
C772 C 0.07525 0.27678 0.60869 0.0
C773 C 0.05079 0.3037 0.67736 0.0
C774 C 0.05839 0.2935 0.65369 0.0
H775 H 0.10514 0.2947 0.53316 0.0
H776 H 0.08632 0.30773 0.57041 0.0
H777 H 0.09834 0.25061 0.62966 0.0
H778 H 0.04037 0.28409 0.73472 0.0
H779 H 0.05116 0.2664 0.6957 0.0
C780 C 0.98257 0.80551 0.80087 0.0
C781 C 1.00701 0.80996 0.79812 0.0
C782 C 0.97416 0.79513 0.82225 0.0
C783 C 0.9898 0.79133 0.88613 0.0
H784 H 0.94024 0.7404 0.88887 0.0
C785 C 0.93921 0.72316 0.95919 0.0
C786 C 0.93223 0.74159 0.97626 0.0
C787 C 0.94964 0.73086 0.9379 0.0
C788 C 0.9542 0.75453 0.88841 0.0
H789 H 0.04193 0.80562 0.81527 0.0
H790 H 0.02723 0.78747 0.85237 0.0
H791 H 0.95582 0.75348 0.85023 0.0
H792 H 0.93172 0.78256 0.98466 0.0
H793 H 0.95019 0.79603 0.94737 0.0
H794 H 0.98811 0.79242 0.92434 0.0
C795 C 0.01454 0.79238 0.83814 0.0
C796 C 0.96296 0.76216 0.86626 0.0
C797 C 0.02296 0.80258 0.81676 0.0
C798 C 0.93689 0.76786 0.97193 0.0
C799 C 0.94749 0.77558 0.95058 0.0
C800 C 0.98088 0.78386 0.90828 0.0
C801 C 0.99 0.78911 0.84135 0.0
C802 C 0.98091 0.78059 0.86487 0.0
C803 C 0.9535 0.75718 0.93313 0.0
C804 C 0.96303 0.76531 0.90967 0.0
H805 H 0.96977 0.81103 0.78692 0.0
H806 H 0.95513 0.79291 0.82419 0.0
H807 H 1.00342 0.80583 0.88563 0.0
H808 H 0.93613 0.70273 0.96195 0.0
H809 H 0.95449 0.71618 0.92503 0.0
C810 C 0.49974 0.64914 0.19736 0.0
C811 C 0.50056 0.66693 0.21621 0.0
C812 C 0.49168 0.65691 0.1746 0.0
C813 C 0.4836 0.71246 0.13382 0.0
H814 H 0.43611 0.67015 0.1031 0.0
C815 C 0.43862 0.74291 0.04339 0.0
C816 C 0.43144 0.72347 0.02762 0.0
C817 C 0.4473 0.73656 0.06636 0.0
C818 C 0.44967 0.682 0.11111 0.0
H819 H 0.4942 0.70706 0.22577 0.0
H820 H 0.48054 0.72093 0.18553 0.0
H821 H 0.45099 0.65856 0.14295 0.0
H822 H 0.42868 0.68204 0.02316 0.0
H823 H 0.44482 0.67071 0.06275 0.0
H824 H 0.48297 0.73547 0.1018 0.0
C825 C 0.48599 0.70085 0.18858 0.0
C826 C 0.45808 0.67541 0.13411 0.0
C827 C 0.49374 0.69294 0.21159 0.0
C828 C 0.4339 0.69745 0.035 0.0
C829 C 0.44292 0.69103 0.05787 0.0
C830 C 0.47546 0.71886 0.11062 0.0
C831 C 0.48452 0.68279 0.16993 0.0
C832 C 0.47517 0.6905 0.14573 0.0
C833 C 0.44951 0.7105 0.07406 0.0
C834 C 0.45836 0.70371 0.09885 0.0
H835 H 0.50484 0.62894 0.2003 0.0
H836 H 0.49105 0.64261 0.16058 0.0
H837 H 0.49695 0.72432 0.14221 0.0
H838 H 0.43733 0.76314 0.03806 0.0
H839 H 0.45184 0.75223 0.07818 0.0
C840 C 0.16824 0.31102 0.33113 0.0
C841 C 0.1794 0.31927 0.35229 0.0
C842 C 0.17645 0.31899 0.30884 0.0
C843 C 0.22757 0.35091 0.27923 0.0
H844 H 0.17929 0.37212 0.23215 0.0
C845 C 0.2391 0.43156 0.20992 0.0
C846 C 0.22982 0.42876 0.18671 0.0
C847 C 0.23605 0.41233 0.22717 0.0
C848 C 0.19303 0.36578 0.24488 0.0
H849 H 0.20805 0.34213 0.36664 0.0
H850 H 0.22203 0.35657 0.32793 0.0
H851 H 0.16752 0.34993 0.26853 0.0
H852 H 0.21094 0.40334 0.16286 0.0
H853 H 0.20483 0.36968 0.19354 0.0
H854 H 0.25283 0.36831 0.25606 0.0
C855 C 0.20731 0.34339 0.3284 0.0
C856 C 0.18631 0.35303 0.26579 0.0
C857 C 0.19924 0.33521 0.35066 0.0
C858 C 0.21828 0.40584 0.18067 0.0
C859 C 0.21473 0.38672 0.19819 0.0
C860 C 0.23422 0.3639 0.25844 0.0
C861 C 0.19589 0.33561 0.30716 0.0
C862 C 0.20341 0.34607 0.28357 0.0
C863 C 0.22324 0.39006 0.22173 0.0
C864 C 0.21694 0.37206 0.24135 0.0
H865 H 0.15311 0.2984 0.33183 0.0
H866 H 0.16745 0.31222 0.29292 0.0
H867 H 0.24132 0.34527 0.29219 0.0
H868 H 0.24817 0.44904 0.21495 0.0
H869 H 0.24262 0.41558 0.24517 0.0
C870 C 0.92822 0.86844 0.59353 0.0
C871 C 0.94281 0.88604 0.60553 0.0
C872 C 0.91727 0.87515 0.57167 0.0
C873 C 0.91803 0.92123 0.52037 0.0
H874 H 0.85158 0.90308 0.51429 0.0
C875 C 0.85235 0.96102 0.44549 0.0
C876 C 0.83435 0.94438 0.43801 0.0
C877 C 0.86852 0.95317 0.46375 0.0
C878 C 0.87024 0.90794 0.51541 0.0
H879 H 0.95803 0.92422 0.60332 0.0
H880 H 0.93856 0.93609 0.56522 0.0
H881 H 0.87395 0.89096 0.55025 0.0
H882 H 0.81984 0.90622 0.44232 0.0
H883 H 0.84847 0.89205 0.47322 0.0
H884 H 0.91405 0.93845 0.48539 0.0
C885 C 0.93573 0.91701 0.57275 0.0
C886 C 0.88308 0.901 0.53614 0.0
C887 C 0.94668 0.9103 0.59471 0.0
C888 C 0.83367 0.91932 0.4478 0.0
C889 C 0.84988 0.91137 0.46572 0.0
C890 C 0.90512 0.92815 0.49947 0.0
C891 C 0.92055 0.89967 0.56117 0.0
C892 C 0.90718 0.90738 0.53888 0.0
C893 C 0.86686 0.92855 0.4747 0.0
C894 C 0.88108 0.92139 0.49667 0.0
H895 H 0.9246 0.8497 0.60138 0.0
H896 H 0.90596 0.86117 0.56309 0.0
H897 H 0.9366 0.92636 0.52188 0.0
H898 H 0.85291 0.98062 0.4384 0.0
H899 H 0.88131 0.96693 0.47024 0.0
C900 C 0.32925 0.57217 0.67417 0.0
C901 C 0.31612 0.54983 0.67849 0.0
C902 C 0.33444 0.58911 0.69302 0.0
C903 C 0.34112 0.58585 0.75876 0.0
H904 H 0.34376 0.66081 0.75592 0.0
C905 C 0.35598 0.64573 0.84374 0.0
C906 C 0.37127 0.66687 0.8424 0.0
C907 C 0.3487 0.63294 0.82304 0.0
C908 C 0.34333 0.63985 0.75693 0.0
H909 H 0.29628 0.52886 0.70495 0.0
H910 H 0.30449 0.55854 0.73728 0.0
H911 H 0.33128 0.63687 0.72044 0.0
H912 H 0.39038 0.69144 0.81794 0.0
H913 H 0.37811 0.66875 0.78195 0.0
H914 H 0.35326 0.58855 0.79499 0.0
C915 C 0.31161 0.5627 0.71983 0.0
C916 C 0.33616 0.62615 0.73659 0.0
C917 C 0.30671 0.54581 0.70124 0.0
C918 C 0.37891 0.67498 0.81974 0.0
C919 C 0.3716 0.66219 0.79902 0.0
C920 C 0.34826 0.59945 0.77898 0.0
C921 C 0.32642 0.58392 0.71631 0.0
C922 C 0.33469 0.59898 0.73737 0.0
C923 C 0.35649 0.6409 0.8004 0.0
C924 C 0.34925 0.62664 0.77846 0.0
H925 H 0.3368 0.57557 0.65677 0.0
H926 H 0.34583 0.60535 0.68968 0.0
H927 H 0.34086 0.56488 0.75988 0.0
H928 H 0.34983 0.63884 0.86083 0.0
H929 H 0.33681 0.61683 0.82479 0.0
C930 C 0.60361 0.06996 0.10548 0.0
C931 C 0.61314 0.0903 0.11891 0.0
C932 C 0.61444 0.06175 0.08434 0.0
C933 C 0.67206 0.06446 0.05223 0.0
H934 H 0.6341 0.04529 0.99698 0.0
C935 C 0.71369 0.05282 0.95972 0.0
C936 C 0.70753 0.03107 0.94617 0.0
C937 C 0.70125 0.05925 0.98035 0.0
C938 C 0.64494 0.05034 1.01234 0.0
H939 H 0.6419 0.11765 0.1205 0.0
H940 H 0.66016 0.10406 0.08354 0.0
H941 H 0.61429 0.05785 0.03387 0.0
H942 H 0.68288 0.99942 0.94358 0.0
H943 H 0.66103 0.01084 0.97966 0.0
H944 H 0.70265 0.05734 0.03066 0.0
C945 C 0.64451 0.09409 0.08945 0.0
C946 C 0.6336 0.0575 0.03353 0.0
C947 C 0.63377 0.1022 0.11056 0.0
C948 C 0.68812 0.01632 0.95352 0.0
C949 C 0.67554 0.02289 0.97418 0.0
C950 C 0.68334 0.05748 0.03107 0.0
C951 C 0.63511 0.07367 0.07607 0.0
C952 C 0.64701 0.06493 0.05371 0.0
C953 C 0.68223 0.04421 0.98804 0.0
C954 C 0.66995 0.05059 1.01077 0.0
H955 H 0.58763 0.06047 0.11118 0.0
H956 H 0.60678 0.04583 0.07467 0.0
H957 H 0.68306 0.06938 0.06751 0.0
H958 H 0.72844 0.06474 0.95465 0.0
H959 H 0.70662 0.07606 0.99036 0.0
C960 C 0.66298 0.14321 0.67969 0.0
C961 C 0.67434 0.16557 0.67158 0.0
C962 C 0.66873 0.13222 0.70202 0.0
C963 C 0.71593 0.12769 0.7487 0.0
H964 H 0.66499 0.099 0.78591 0.0
C965 C 0.73259 0.06941 0.83804 0.0
C966 C 0.72124 0.04545 0.83807 0.0
C967 C 0.72671 0.08827 0.82041 0.0
C968 C 0.67944 0.10696 0.77578 0.0
H969 H 0.70086 0.19382 0.68093 0.0
H970 H 0.71108 0.17439 0.71993 0.0
H971 H 0.65534 0.12377 0.74962 0.0
H972 H 0.69443 0.0227 0.82023 0.0
H973 H 0.68394 0.05534 0.79017 0.0
H974 H 0.74004 0.11018 0.77474 0.0
C975 C 0.69772 0.16537 0.70883 0.0
C976 C 0.67391 0.12107 0.7549 0.0
C977 C 0.69187 0.17647 0.68644 0.0
C978 C 0.70345 0.04102 0.82076 0.0
C979 C 0.69733 0.05983 0.80355 0.0
C980 C 0.72147 0.11353 0.76969 0.0
C981 C 0.6861 0.14317 0.71696 0.0
C982 C 0.69209 0.13097 0.74068 0.0
C983 C 0.70905 0.08356 0.80289 0.0
C984 C 0.7033 0.10234 0.78307 0.0
H985 H 0.64985 0.13381 0.66859 0.0
H986 H 0.65981 0.11477 0.7074 0.0
H987 H 0.73038 0.13498 0.73816 0.0
H988 H 0.74659 0.07314 0.85094 0.0
H989 H 0.73607 0.10638 0.82036 0.0
C990 C 0.18195 0.47006 0.06966 0.0
C991 C 0.1967 0.45017 0.07966 0.0
C992 C 0.16765 0.46538 0.04947 0.0
C993 C 0.14147 0.41239 0.01423 0.0
H994 H 0.14384 0.46074 0.96089 0.0
C995 C 0.11471 0.38264 0.91938 0.0
C996 C 0.10163 0.40044 0.90482 0.0
C997 C 0.12442 0.39023 0.94124 0.0
C998 C 0.14268 0.44722 0.97573 0.0
H999 H 0.20731 0.40955 0.07672 0.0
H1000 H 0.18249 0.40148 0.04181 0.0
H1001 H 0.16317 0.4713 0.99887 0.0
H1002 H 0.08885 0.44041 0.90181 0.0
H1003 H 0.1056 0.45362 0.94028 0.0
H1004 H 0.12131 0.38815 0.99114 0.0
C1005 C 0.18185 0.42066 0.04953 0.0
C1006 C 0.15374 0.4533 0.9975 0.0
C1007 C 0.19623 0.42535 0.06951 0.0
C1008 C 0.09869 0.42616 0.91264 0.0
C1009 C 0.10845 0.43378 0.9346 0.0
C1010 C 0.13041 0.40636 0.99254 0.0
C1011 C 0.16762 0.44066 0.03907 0.0
C1012 C 0.15367 0.43569 0.01684 0.0
C1013 C 0.12124 0.41581 0.94926 0.0
C1014 C 0.13131 0.42343 0.97286 0.0
H1015 H 0.18191 0.4894 0.077 0.0
H1016 H 0.15672 0.48113 0.04193 0.0
H1017 H 0.1407 0.39863 0.02892 0.0
H1018 H 0.11705 0.36258 0.91416 0.0
H1019 H 0.13449 0.37597 0.95187 0.0
C1020 C 0.79417 0.91027 0.32289 0.0
C1021 C 0.81136 0.92722 0.33186 0.0
C1022 C 0.79888 0.89525 0.30265 0.0
C1023 C 0.84898 0.87032 0.26596 0.0
H1024 H 0.8014 0.86656 0.2152 0.0
C1025 C 0.87411 0.84198 0.17064 0.0
C1026 C 0.85927 0.82516 0.15801 0.0
C1027 C 0.86709 0.85228 0.19248 0.0
C1028 C 0.81477 0.86713 0.22934 0.0
H1029 H 0.84708 0.94134 0.32661 0.0
H1030 H 0.85511 0.91552 0.29162 0.0
H1031 H 0.7912 0.88783 0.25268 0.0
H1032 H 0.82518 0.80624 0.15838 0.0
H1033 H 0.8129 0.82426 0.19673 0.0
H1034 H 0.87268 0.85014 0.24258 0.0
C1035 C 0.8381 0.91351 0.30027 0.0
C1036 C 0.80892 0.87928 0.25084 0.0
C1037 C 0.8334 0.92851 0.32032 0.0
C1038 C 0.83709 0.81903 0.16773 0.0
C1039 C 0.82998 0.8295 0.18959 0.0
C1040 C 0.85482 0.85828 0.24453 0.0
C1041 C 0.82093 0.89673 0.29109 0.0
C1042 C 0.82613 0.88149 0.26922 0.0
C1043 C 0.84501 0.84608 0.20231 0.0
C1044 C 0.83796 0.85699 0.22577 0.0
H1045 H 0.77698 0.90882 0.3313 0.0
H1046 H 0.78532 0.88239 0.29613 0.0
H1047 H 0.86252 0.87115 0.27993 0.0
H1048 H 0.89144 0.84687 0.16386 0.0
H1049 H 0.87897 0.86527 0.20162 0.0
C1050 C 0.36107 0.51407 0.56218 0.0
C1051 C 0.34467 0.53249 0.57118 0.0
C1052 C 0.37492 0.52003 0.54228 0.0
C1053 C 0.39624 0.57572 0.50652 0.0
H1054 H 0.40065 0.52637 0.4549 0.0
C1055 C 0.42327 0.60706 0.41223 0.0
C1056 C 0.43855 0.59061 0.39921 0.0
C1057 C 0.41356 0.59874 0.43372 0.0
C1058 C 0.39988 0.54025 0.46927 0.0
H1059 H 0.33052 0.57185 0.56659 0.0
H1060 H 0.35444 0.58209 0.53225 0.0
H1061 H 0.38151 0.51405 0.49212 0.0
H1062 H 0.45522 0.55221 0.39861 0.0
H1063 H 0.43843 0.53776 0.43638 0.0
H1064 H 0.41428 0.60204 0.48372 0.0
C1065 C 0.35681 0.56311 0.54054 0.0
C1066 C 0.38893 0.53316 0.49063 0.0
C1067 C 0.34293 0.55714 0.56022 0.0
C1068 C 0.44367 0.56547 0.40823 0.0
C1069 C 0.43388 0.5571 0.42978 0.0
C1070 C 0.40715 0.58278 0.48524 0.0
C1071 C 0.37283 0.54461 0.53114 0.0
C1072 C 0.38658 0.551 0.50936 0.0
C1073 C 0.41886 0.57373 0.44291 0.0
C1074 C 0.40873 0.56534 0.46615 0.0
H1075 H 0.36284 0.49488 0.57014 0.0
H1076 H 0.38724 0.5054 0.5356 0.0
H1077 H 0.39518 0.58978 0.52074 0.0
H1078 H 0.41915 0.62666 0.40608 0.0
H1079 H 0.40177 0.61195 0.44312 0.0
C1080 C 0.2166 0.22621 0.42163 0.0
C1081 C 0.20757 0.20793 0.43776 0.0
C1082 C 0.23735 0.2205 0.40867 0.0
C1083 C 0.2913 0.17719 0.41172 0.0
H1084 H 0.2993 0.19614 0.34525 0.0
C1085 C 0.36967 0.13558 0.35753 0.0
C1086 C 0.38096 0.15173 0.34101 0.0
C1087 C 0.34869 0.14376 0.36873 0.0
C1088 C 0.29749 0.19098 0.36391 0.0
H1089 H 0.21284 0.16879 0.45188 0.0
H1090 H 0.24843 0.1589 0.42931 0.0
H1091 H 0.26213 0.20795 0.36529 0.0
H1092 H 0.37868 0.18939 0.32342 0.0
H1093 H 0.34202 0.20371 0.34304 0.0
H1094 H 0.32648 0.16028 0.41052 0.0
C1095 C 0.23991 0.17787 0.427 0.0
C1096 C 0.27614 0.19775 0.3754 0.0
C1097 C 0.2193 0.18353 0.43987 0.0
C1098 C 0.37045 0.17632 0.33589 0.0
C1099 C 0.34937 0.18453 0.34714 0.0
C1100 C 0.31257 0.17049 0.4003 0.0
C1101 C 0.24956 0.19641 0.4116 0.0
C1102 C 0.27263 0.19059 0.39938 0.0
C1103 C 0.33824 0.16839 0.3638 0.0
C1104 C 0.3159 0.17694 0.37614 0.0
H1105 H 0.2081 0.2452 0.41955 0.0
H1106 H 0.24427 0.23527 0.39698 0.0
H1107 H 0.28954 0.1719 0.43036 0.0
H1108 H 0.37679 0.11628 0.36153 0.0
H1109 H 0.34042 0.13051 0.38102 0.0
C1110 C 0.09401 0.08153 0.57987 0.0
C1111 C 0.11505 0.09405 0.5866 0.0
C1112 C 0.08546 0.06113 0.59371 0.0
C1113 C 0.10636 0.01154 0.63769 0.0
H1114 H 0.03906 1.00369 0.65009 0.0
C1115 C 0.07359 0.93776 0.70653 0.0
C1116 C 0.05309 0.92372 0.70095 0.0
C1117 C 0.08048 0.95825 0.69195 0.0
C1118 C 0.05789 1.00544 0.64653 0.0
H1119 H 0.14338 0.09508 0.61339 0.0
H1120 H 0.12823 0.05998 0.63771 0.0
H1121 H 0.052 0.04061 0.62632 0.0
H1122 H 0.02372 0.92039 0.67554 0.0
H1123 H 0.03594 0.95616 0.64991 0.0
H1124 H 0.11232 0.97649 0.65784 0.0
C1125 C 0.11848 0.0657 0.62157 0.0
C1126 C 0.0653 0.02661 0.63294 0.0
C1127 C 0.12699 0.08609 0.60779 0.0
C1128 C 0.03963 0.93074 0.68036 0.0
C1129 C 0.04654 0.95135 0.66575 0.0
C1130 C 0.09896 0.99042 0.65123 0.0
C1131 C 0.09781 0.05272 0.61453 0.0
C1132 C 0.08966 0.03003 0.62856 0.0
C1133 C 0.06709 0.96531 0.67137 0.0
C1134 C 0.07467 0.98722 0.65601 0.0
H1135 H 0.08425 0.08735 0.56377 0.0
H1136 H 0.06955 0.05147 0.58772 0.0
H1137 H 0.12521 0.01325 0.63421 0.0
H1138 H 0.08437 0.93304 0.72227 0.0
H1139 H 0.09618 0.96884 0.69703 0.0
C1140 C 0.16594 0.80933 0.86394 0.0
C1141 C 0.16688 0.8193 0.84052 0.0
C1142 C 0.18687 0.80168 0.87635 0.0
C1143 C 0.25153 0.81336 0.8784 0.0
H1144 H 0.25366 0.75318 0.92046 0.0
C1145 C 0.33619 0.78458 0.93486 0.0
C1146 C 0.33199 0.77735 0.95863 0.0
C1147 C 0.31715 0.78718 0.91834 0.0
C1148 C 0.25334 0.77016 0.90891 0.0
H1149 H 0.19071 0.82877 0.81176 0.0
H1150 H 0.22716 0.81517 0.83332 0.0
H1151 H 0.2182 0.76234 0.89573 0.0
H1152 H 0.30476 0.7668 0.98369 0.0
H1153 H 0.27173 0.77159 0.95523 0.0
H1154 H 0.28644 0.82153 0.89199 0.0
C1155 C 0.21022 0.81341 0.84213 0.0
C1156 C 0.23298 0.7754 0.89472 0.0
C1157 C 0.18927 0.82093 0.82967 0.0
C1158 C 0.30856 0.77236 0.96546 0.0
C1159 C 0.28961 0.7749 0.94905 0.0
C1160 C 0.27188 0.80816 0.89266 0.0
C1161 C 0.20931 0.80393 0.86572 0.0
C1162 C 0.23165 0.79729 0.87954 0.0
C1163 C 0.29356 0.78256 0.9253 0.0
C1164 C 0.27291 0.78672 0.9084 0.0
H1165 H 0.149 0.80762 0.87277 0.0
H1166 H 0.18549 0.79469 0.89456 0.0
H1167 H 0.25104 0.83054 0.86711 0.0
H1168 H 0.35406 0.78883 0.92917 0.0
H1169 H 0.32088 0.79293 0.90016 0.0
C1170 C 0.51186 0.04918 0.1838 0.0
C1171 C 0.50105 0.05243 0.20613 0.0
C1172 C 0.50658 0.02774 0.16957 0.0
C1173 C 0.48455 0.96119 0.17359 0.0
H1174 H 0.46528 0.97026 0.1072 0.0
C1175 C 0.43374 0.88274 0.12327 0.0
C1176 C 0.43729 0.87928 0.09869 0.0
C1177 C 0.44447 0.90299 0.13544 0.0
C1178 C 0.47105 0.96724 0.12558 0.0
H1179 H 0.47637 0.03546 0.23099 0.0
H1180 H 0.46749 0.99828 0.2064 0.0
H1181 H 0.47881 1.0075 0.12994 0.0
H1182 H 0.45554 0.89424 0.06781 0.0
H1183 H 0.47486 0.92924 0.08926 0.0
H1184 H 0.4769 0.92108 0.16946 0.0
C1185 C 0.48001 0.01223 0.19987 0.0
C1186 C 0.47875 0.98864 0.13861 0.0
C1187 C 0.485 0.03371 0.2139 0.0
C1188 C 0.4525 0.89621 0.08676 0.0
C1189 C 0.46335 0.91649 0.09901 0.0
C1190 C 0.4771 0.93981 0.16056 0.0
C1191 C 0.49073 0.00894 0.17758 0.0
C1192 C 0.48505 0.98593 0.16292 0.0
C1193 C 0.45929 0.9203 0.12349 0.0
C1194 C 0.46968 0.94262 0.13653 0.0
H1195 H 0.52432 0.0632 0.17728 0.0
H1196 H 0.51517 0.02566 0.15248 0.0
H1197 H 0.48972 0.9584 0.19218 0.0
H1198 H 0.42245 0.86988 0.13315 0.0
H1199 H 0.4406 0.90541 0.15418 0.0
C1200 C 0.86042 0.35279 0.68401 0.0
C1201 C 0.88251 0.34243 0.67665 0.0
C1202 C 0.83911 0.34371 0.67432 0.0
C1203 C 0.81583 0.31508 0.61986 0.0
H1204 H 0.75937 0.30235 0.65696 0.0
C1205 C 0.72289 0.31135 0.57642 0.0
C1206 C 0.70886 0.29006 0.5823 0.0
C1207 C 0.74367 0.31632 0.5894 0.0
C1208 C 0.77506 0.30568 0.64643 0.0
H1209 H 0.89963 0.31416 0.65375 0.0
H1210 H 0.86237 0.29841 0.63667 0.0
H1211 H 0.79697 0.31251 0.6774 0.0
H1212 H 0.70532 0.25781 0.60709 0.0
H1213 H 0.74168 0.26682 0.63005 0.0
H1214 H 0.79397 0.30874 0.58892 0.0
C1215 C 0.86157 0.31352 0.64996 0.0
C1216 C 0.79648 0.31164 0.65808 0.0
C1217 C 0.88286 0.32239 0.65984 0.0
C1218 C 0.71571 0.27436 0.60206 0.0
C1219 C 0.73648 0.27952 0.61524 0.0
C1220 C 0.79441 0.30945 0.60825 0.0
C1221 C 0.83949 0.32431 0.65688 0.0
C1222 C 0.81704 0.31654 0.64488 0.0
C1223 C 0.75087 0.30027 0.60871 0.0
C1224 C 0.77376 0.30494 0.62138 0.0
H1225 H 0.85963 0.36809 0.69711 0.0
H1226 H 0.82237 0.35251 0.67987 0.0
H1227 H 0.83131 0.319 0.6092 0.0
H1228 H 0.71819 0.32394 0.56138 0.0
H1229 H 0.75423 0.33268 0.58422 0.0
C1230 C 0.98937 0.41482 0.82969 0.0
C1231 C 0.99354 0.42521 0.80691 0.0
C1232 C 0.98551 0.43138 0.84911 0.0
C1233 C 0.99224 0.49991 0.86858 0.0
H1234 H 0.93698 0.48703 0.90722 0.0
C1235 C 0.9432 0.58091 0.92048 0.0
C1236 C 0.93323 0.57481 0.94264 0.0
C1237 C 0.95379 0.56149 0.90657 0.0
C1238 C 0.95272 0.49076 0.89689 0.0
H1239 H 0.99793 0.46082 0.78675 0.0
H1240 H 0.99116 0.4894 0.8202 0.0
H1241 H 0.95038 0.45449 0.87875 0.0
H1242 H 0.92774 0.54363 0.96809 0.0
H1243 H 0.9462 0.50982 0.94387 0.0
H1244 H 0.99421 0.53646 0.88624 0.0
C1245 C 0.99098 0.46866 0.82336 0.0
C1246 C 0.96043 0.47204 0.88058 0.0
C1247 C 0.99467 0.45223 0.80408 0.0
C1248 C 0.93484 0.54895 0.9509 0.0
C1249 C 0.94542 0.52953 0.93701 0.0
C1250 C 0.98453 0.51862 0.88485 0.0
C1251 C 0.98601 0.45855 0.84607 0.0
C1252 C 0.97995 0.47664 0.86581 0.0
C1253 C 0.95472 0.53547 0.9145 0.0
C1254 C 0.96435 0.51455 0.89886 0.0
H1255 H 0.98848 0.39404 0.83234 0.0
H1256 H 0.98192 0.42297 0.86644 0.0
H1257 H 1.00761 0.5039 0.85779 0.0
H1258 H 0.94204 0.60054 0.91343 0.0
H1259 H 0.96049 0.56674 0.8892 0.0
C1260 C 0.82339 0.67142 0.07763 0.0
C1261 C 0.83513 0.69491 0.08122 0.0
C1262 C 0.80313 0.66551 0.09052 0.0
C1263 C 0.77 0.67735 0.14481 0.0
H1264 H 0.71575 0.65635 0.10646 0.0
C1265 C 0.67781 0.65554 0.18592 0.0
C1266 C 0.66436 0.63576 0.17553 0.0
C1267 C 0.69891 0.66372 0.17546 0.0
C1268 C 0.73077 0.66176 0.11755 0.0
H1269 H 0.83505 0.73018 0.10202 0.0
H1270 H 0.79966 0.71941 0.12509 0.0
H1271 H 0.75222 0.66888 0.08702 0.0
H1272 H 0.66307 0.60895 0.14592 0.0
H1273 H 0.70018 0.6222 0.12849 0.0
H1274 H 0.74883 0.66941 0.17543 0.0
C1275 C 0.80628 0.70577 0.11201 0.0
C1276 C 0.75164 0.66914 0.10634 0.0
C1277 C 0.82652 0.71192 0.09881 0.0
C1278 C 0.67296 0.624 0.15469 0.0
C1279 C 0.69414 0.63197 0.14439 0.0
C1280 C 0.74914 0.66961 0.15611 0.0
C1281 C 0.79412 0.68274 0.10758 0.0
C1282 C 0.77157 0.67673 0.11982 0.0
C1283 C 0.70727 0.65221 0.1544 0.0
C1284 C 0.72932 0.6614 0.14261 0.0
H1285 H 0.82943 0.6577 0.06437 0.0
H1286 H 0.79433 0.64746 0.08696 0.0
H1287 H 0.78515 0.68299 0.15562 0.0
H1288 H 0.67205 0.66482 0.20218 0.0
H1289 H 0.70837 0.67945 0.18366 0.0
C1290 C 0.5918 0.4199 0.43242 0.0
C1291 C 0.61577 0.41744 0.44004 0.0
C1292 C 0.58403 0.44099 0.41803 0.0
C1293 C 0.60218 0.50712 0.39845 0.0
H1294 H 0.55527 0.49766 0.34793 0.0
C1295 C 0.58571 0.58031 0.32032 0.0
C1296 C 0.56208 0.58489 0.31238 0.0
C1297 C 0.59103 0.56148 0.33794 0.0
C1298 C 0.56817 0.50071 0.36216 0.0
H1299 H 0.65054 0.43464 0.43769 0.0
H1300 H 0.63726 0.47086 0.41235 0.0
H1301 H 0.56685 0.46119 0.37401 0.0
H1302 H 0.52535 0.57413 0.31735 0.0
H1303 H 0.53462 0.54127 0.34809 0.0
H1304 H 0.60395 0.54649 0.38606 0.0
C1305 C 0.62417 0.45712 0.41806 0.0
C1306 C 0.5748 0.47978 0.37718 0.0
C1307 C 0.63185 0.43624 0.43255 0.0
C1308 C 0.54375 0.57101 0.32309 0.0
C1309 C 0.54907 0.55204 0.34055 0.0
C1310 C 0.59571 0.52796 0.3833 0.0
C1311 C 0.60011 0.45999 0.41073 0.0
C1312 C 0.59209 0.4826 0.39541 0.0
C1313 C 0.57282 0.5467 0.34786 0.0
C1314 C 0.57876 0.52497 0.36486 0.0
H1315 H 0.57896 0.40581 0.438 0.0
H1316 H 0.56533 0.44262 0.41298 0.0
H1317 H 0.61514 0.51029 0.4126 0.0
H1318 H 0.60019 0.59069 0.31236 0.0
H1319 H 0.60951 0.55776 0.34307 0.0
C1320 C 0.32892 0.29577 0.17807 0.0
C1321 C 0.3371 0.32132 0.177 0.0
C1322 C 0.34315 0.27578 0.18829 0.0
C1323 C 0.39696 0.26268 0.22677 0.0
H1324 H 0.40197 0.19891 0.19082 0.0
C1325 C 0.47945 0.19521 0.23149 0.0
C1326 C 0.47705 0.16823 0.23029 0.0
C1327 C 0.45958 0.21188 0.22919 0.0
C1328 C 0.40044 0.21635 0.20137 0.0
H1329 H 0.36648 0.34594 0.18642 0.0
H1330 H 0.39134 0.31114 0.20416 0.0
H1331 H 0.37249 0.23232 0.1788 0.0
H1332 H 0.45187 0.13736 0.22645 0.0
H1333 H 0.41671 0.16676 0.22216 0.0
H1334 H 0.42549 0.24704 0.24881 0.0
C1335 C 0.37377 0.30656 0.19737 0.0
C1336 C 0.38355 0.23557 0.19446 0.0
C1337 C 0.35951 0.32656 0.18717 0.0
C1338 C 0.45418 0.15811 0.22743 0.0
C1339 C 0.43414 0.17492 0.22487 0.0
C1340 C 0.41385 0.2435 0.23363 0.0
C1341 C 0.36593 0.28083 0.19772 0.0
C1342 C 0.382 0.25926 0.20672 0.0
C1343 C 0.43671 0.20204 0.22548 0.0
C1344 C 0.41623 0.22039 0.22063 0.0
H1345 H 0.31155 0.29114 0.17079 0.0
H1346 H 0.33636 0.25631 0.18863 0.0
H1347 H 0.39592 0.28042 0.23693 0.0
H1348 H 0.49686 0.20358 0.23379 0.0
H1349 H 0.46231 0.23259 0.22942 0.0
C1350 C 0.96625 0.29812 0.80645 0.0
C1351 C 0.96325 0.31239 0.78504 0.0
C1352 C 0.95062 0.27855 0.81239 0.0
C1353 C 0.90699 0.2335 0.78714 0.0
H1354 H 0.88953 0.22614 0.85355 0.0
C1355 C 0.84132 0.15589 0.82194 0.0
C1356 C 0.84801 0.14323 0.8435 0.0
C1357 C 0.85419 0.17698 0.81348 0.0
C1358 C 0.89437 0.22777 0.83496 0.0
H1359 H 0.94127 0.31701 0.75297 0.0
H1360 H 0.9137 0.28272 0.76351 0.0
H1361 H 0.91334 0.26253 0.84122 0.0
H1362 H 0.87355 0.14301 0.87302 0.0
H1363 H 0.89605 0.17931 0.85817 0.0
H1364 H 0.88797 0.19849 0.78103 0.0
C1365 C 0.92838 0.28671 0.77561 0.0
C1366 C 0.90804 0.24867 0.82787 0.0
C1367 C 0.9441 0.30647 0.76964 0.0
C1368 C 0.86803 0.15201 0.85621 0.0
C1369 C 0.88077 0.1731 0.84785 0.0
C1370 C 0.8932 0.21253 0.79426 0.0
C1371 C 0.93141 0.2726 0.79716 0.0
C1372 C 0.91495 0.25157 0.80398 0.0
C1373 C 0.87389 0.18605 0.82652 0.0
C1374 C 0.88712 0.20915 0.81836 0.0
H1375 H 0.98082 0.30193 0.81876 0.0
H1376 H 0.95384 0.26779 0.82889 0.0
H1377 H 0.91211 0.23503 0.76863 0.0
H1378 H 0.82609 0.14953 0.81162 0.0
H1379 H 0.84837 0.18657 0.79703 0.0
C1380 C 0.11535 0.58443 0.08364 0.0
C1381 C 0.11624 0.56879 0.10435 0.0
C1382 C 0.09366 0.5953 0.07522 0.0
C1383 C 0.02794 0.59103 0.07819 0.0
H1384 H 0.02928 0.6643 0.06246 0.0
C1385 C 0.94265 0.65752 0.0639 0.0
C1386 C 0.94463 0.67886 0.04839 0.0
C1387 C 0.96251 0.64091 0.06848 0.0
C1388 C 0.02854 0.64372 0.06628 0.0
H1389 H 0.09483 0.55141 0.13183 0.0
H1390 H 0.05692 0.57053 0.11714 0.0
H1391 H 0.06588 0.64146 0.07455 0.0
H1392 H 0.96775 0.69832 0.02382 0.0
H1393 H 1.00173 0.66881 0.03064 0.0
H1394 H 0.99042 0.59343 0.06986 0.0
C1395 C 0.07303 0.57435 0.10745 0.0
C1396 C 0.04961 0.63063 0.07332 0.0
C1397 C 0.09478 0.56362 0.11599 0.0
C1398 C 0.96592 0.68211 0.03607 0.0
C1399 C 0.98547 0.66535 0.04022 0.0
C1400 C 1.00675 0.60414 0.07091 0.0
C1401 C 0.07229 0.5907 0.0872 0.0
C1402 C 0.04964 0.60414 0.07933 0.0
C1403 C 0.98447 0.64527 0.05734 0.0
C1404 C 1.0068 0.63068 0.06476 0.0
H1405 H 0.13153 0.58895 0.07433 0.0
H1406 H 0.09366 0.6076 0.05943 0.0
H1407 H 0.0274 0.57057 0.08263 0.0
H1408 H 0.9264 0.65479 0.07373 0.0
H1409 H 0.96103 0.62567 0.08176 0.0
C1410 C 0.66367 0.84622 0.36357 0.0
C1411 C 0.68532 0.8536 0.35347 0.0
C1412 C 0.6501 0.82681 0.35324 0.0
C1413 C 0.65389 0.77094 0.31215 0.0
H1414 H 0.58486 0.77747 0.31344 0.0
C1415 C 0.59083 0.69564 0.26905 0.0
C1416 C 0.57155 0.68822 0.28315 0.0
C1417 C 0.60502 0.71642 0.27585 0.0
C1418 C 0.60412 0.77527 0.31305 0.0
H1419 H 0.70955 0.84618 0.32437 0.0
H1420 H 0.68553 0.81266 0.30598 0.0
H1421 H 0.60893 0.8127 0.3282 0.0
H1422 H 0.55208 0.697 0.3154 0.0
H1423 H 0.57665 0.73305 0.32709 0.0
H1424 H 0.6489 0.73339 0.29695 0.0
C1425 C 0.67925 0.82171 0.32215 0.0
C1426 C 0.61795 0.79547 0.32158 0.0
C1427 C 0.6929 0.84115 0.33255 0.0
C1428 C 0.56674 0.70214 0.30407 0.0
C1429 C 0.58076 0.72296 0.31072 0.0
C1430 C 0.64 0.75075 0.30348 0.0
C1431 C 0.65765 0.81428 0.33237 0.0
C1432 C 0.64303 0.79343 0.32164 0.0
C1433 C 0.60007 0.73039 0.29673 0.0
C1434 C 0.61495 0.75251 0.30421 0.0
H1435 H 0.65703 0.85559 0.37944 0.0
H1436 H 0.63378 0.82141 0.36186 0.0
H1437 H 0.67313 0.76855 0.3121 0.0
H1438 H 0.59507 0.68531 0.25285 0.0
H1439 H 0.61969 0.72175 0.26461 0.0
C1440 C 0.60157 0.3316 0.55329 0.0
C1441 C 0.60242 0.30771 0.56555 0.0
C1442 C 0.58434 0.35067 0.55909 0.0
C1443 C 0.54211 0.36981 0.60647 0.0
H1444 H 0.49984 0.39357 0.55485 0.0
C1445 C 0.44398 0.39519 0.62162 0.0
C1446 C 0.43325 0.41687 0.60996 0.0
C1447 C 0.46719 0.38707 0.6163 0.0
C1448 C 0.51172 0.38755 0.56943 0.0
H1449 H 0.58674 0.28523 0.59388 0.0
H1450 H 0.55725 0.31833 0.60424 0.0
H1451 H 0.53744 0.37088 0.5457 0.0
H1452 H 0.43875 0.447 0.58342 0.0
H1453 H 0.47933 0.43235 0.57376 0.0
H1454 H 0.51604 0.38539 0.63022 0.0
C1455 C 0.56971 0.32259 0.59023 0.0
C1456 C 0.53327 0.37463 0.56418 0.0
C1457 C 0.58652 0.30354 0.5842 0.0
C1458 C 0.44634 0.43006 0.59258 0.0
C1459 C 0.46961 0.42177 0.58711 0.0
C1460 C 0.52065 0.38265 0.61169 0.0
C1461 C 0.56811 0.34619 0.57753 0.0
C1462 C 0.54822 0.36476 0.5827 0.0
C1463 C 0.48032 0.40027 0.59905 0.0
C1464 C 0.50479 0.39078 0.59326 0.0
H1465 H 0.61339 0.33504 0.53858 0.0
H1466 H 0.58343 0.36867 0.54896 0.0
H1467 H 0.55348 0.36279 0.62109 0.0
H1468 H 0.4343 0.38412 0.63464 0.0
H1469 H 0.47471 0.37004 0.6254 0.0
C1470 C 0.18166 0.64906 0.67675 0.0
C1471 C 0.20498 0.65384 0.6693 0.0
C1472 C 0.16785 0.66864 0.68736 0.0
C1473 C 0.1616 0.73987 0.6901 0.0
H1474 H 0.11705 0.72462 0.74023 0.0
C1475 C 0.09329 0.81712 0.72465 0.0
C1476 C 0.06991 0.80806 0.7257 0.0
C1477 C 0.1126 0.79957 0.72175 0.0
C1478 C 0.1294 0.72922 0.72622 0.0
H1479 H 0.23241 0.68273 0.66826 0.0
H1480 H 0.20827 0.7169 0.68666 0.0
H1481 H 0.14547 0.6911 0.72759 0.0
H1482 H 0.04845 0.77369 0.72548 0.0
H1483 H 0.08172 0.74341 0.72041 0.0
H1484 H 0.145 0.77777 0.68827 0.0
C1485 C 0.20054 0.6981 0.68394 0.0
C1486 C 0.14565 0.70998 0.71894 0.0
C1487 C 0.21437 0.6785 0.67338 0.0
C1488 C 0.06627 0.78127 0.72464 0.0
C1489 C 0.08541 0.76385 0.72194 0.0
C1490 C 0.1453 0.75914 0.69739 0.0
C1491 C 0.17699 0.69353 0.69078 0.0
C1492 C 0.16156 0.71484 0.70038 0.0
C1493 C 0.10879 0.77271 0.72015 0.0
C1494 C 0.12858 0.75381 0.71509 0.0
H1495 H 0.17372 0.63045 0.67361 0.0
H1496 H 0.14967 0.66452 0.69209 0.0
H1497 H 0.17348 0.74425 0.67562 0.0
H1498 H 0.09656 0.83771 0.72543 0.0
H1499 H 0.13044 0.80699 0.72058 0.0
C1500 C 0.45085 0.83408 0.98253 0.0
C1501 C 0.44208 0.81577 0.96635 0.0
C1502 C 0.47035 0.84926 0.97659 0.0
C1503 C 0.50653 0.87062 0.92499 0.0
H1504 H 0.55698 0.87725 0.97253 0.0
C1505 C 0.60239 0.89634 0.89983 0.0
C1506 C 0.61504 0.9133 0.9146 0.0
C1507 C 0.58017 0.88724 0.90656 0.0
C1508 C 0.54293 0.87591 0.95914 0.0
H1509 H 0.44652 0.79982 0.93092 0.0
H1510 H 0.48032 0.8259 0.92078 0.0
H1511 H 0.51971 0.85713 0.98351 0.0
H1512 H 0.61384 0.93425 0.94799 0.0
H1513 H 0.57512 0.91814 0.95982 0.0
H1514 H 0.52993 0.88885 0.90049 0.0
C1515 C 0.47212 0.82881 0.93796 0.0
C1516 C 0.52152 0.86441 0.96544 0.0
C1517 C 0.45275 0.81366 0.94387 0.0
C1518 C 0.60479 0.92094 0.93631 0.0
C1519 C 0.58257 0.91174 0.94309 0.0
C1520 C 0.52793 0.88203 0.91869 0.0
C1521 C 0.48141 0.84657 0.95432 0.0
C1522 C 0.5032 0.8612 0.94834 0.0
C1523 C 0.56999 0.89476 0.92829 0.0
C1524 C 0.54656 0.88442 0.93556 0.0
H1525 H 0.44308 0.83624 0.99999 0.0
H1526 H 0.47688 0.86296 0.98953 0.0
H1527 H 0.49265 0.86896 0.91147 0.0
H1528 H 0.60988 0.88958 0.88324 0.0
H1529 H 0.5712 0.87381 0.89494 0.0
C1530 C 0.95936 0.05711 0.41909 0.0
C1531 C 0.9366 0.06886 0.42178 0.0
C1532 C 0.9801 0.07025 0.42547 0.0
C1533 C 1.00102 0.13714 0.43488 0.0
H1534 H 0.05676 0.10349 0.46468 0.0
C1535 C 0.07466 0.19776 0.47451 0.0
C1536 C 0.09838 0.19181 0.46851 0.0
C1537 C 0.05658 0.18037 0.46999 0.0
C1538 C 0.04142 0.11307 0.45613 0.0
H1539 H 0.91798 0.10329 0.43442 0.0
H1540 H 0.95391 0.12603 0.44569 0.0
H1541 H 0.02164 0.07795 0.4548 0.0
H1542 H 0.12209 0.16211 0.45445 0.0
H1543 H 0.09004 0.13122 0.44631 0.0
H1544 H 0.02048 0.17218 0.43632 0.0
C1545 C 0.95584 0.10688 0.43809 0.0
C1546 C 0.02127 0.09846 0.45047 0.0
C1547 C 0.93516 0.0938 0.43166 0.0
C1548 C 0.10393 0.1672 0.4592 0.0
C1549 C 0.0856 0.1496 0.45454 0.0
C1550 C 0.02099 0.15164 0.44058 0.0
C1551 C 0.97864 0.0955 0.43472 0.0
C1552 C 1.00064 0.11043 0.4401 0.0
C1553 C 0.06158 0.15645 0.45917 0.0
C1554 C 0.04131 0.13996 0.45165 0.0
H1555 H 0.96121 0.03804 0.4113 0.0
H1556 H 0.99729 0.06092 0.42241 0.0
H1557 H 0.98585 0.14696 0.42627 0.0
H1558 H 0.06985 0.21639 0.48211 0.0
H1559 H 0.03844 0.18601 0.47443 0.0
loop_
_geom_bond_atom_site_label_1
_geom_bond_atom_site_label_2
_geom_bond_distance
_geom_bond_site_symmetry_2
_ccdc_geom_bond_type
La0 C2 2.928 . S
La0 O20 2.521 . S
La0 O21 2.628 . S
La0 O22 2.554 . S
La0 O23 2.757 . S
La0 O24 2.470 . S
La0 O29 2.482 . S
La0 O31 2.503 . S
La1 C11 2.928 . S
La1 O23 2.482 . S
La1 O25 2.503 . S
La1 O26 2.521 . S
La1 O27 2.628 . S
La1 O28 2.554 . S
La1 O29 2.757 . S
La1 O30 2.470 . S
C2 La0 2.928 . S
C2 C3 1.503 . S
C2 O20 1.261 . S
C2 O21 1.243 . S
C3 C2 1.503 . S
C3 C4 1.394 . S
C3 C8 1.373 . S
C4 C3 1.394 . S
C4 C5 1.380 . S
C4 H32 0.930 . S
C5 C4 1.380 . S
C5 C6 1.376 . S
C5 H33 0.930 . S
C6 C5 1.376 . S
C6 C7 1.370 . S
C7 C6 1.370 . S
C7 C8 1.396 . S
C7 H34 0.929 . S
C8 C3 1.373 . S
C8 C7 1.396 . S
C8 H35 0.929 . S
C9 O22 1.240 . S
C9 O23 1.289 . S
C10 O24 1.258 . S
C10 O25 1.256 . S
C11 La1 2.928 . S
C11 C12 1.503 . S
C11 O26 1.261 . S
C11 O27 1.243 . S
C12 C11 1.503 . S
C12 C13 1.394 . S
C12 C17 1.373 . S
C13 C12 1.394 . S
C13 C14 1.380 . S
C13 H36 0.930 . S
C14 C13 1.380 . S
C14 C15 1.376 . S
C14 H37 0.930 . S
C15 C14 1.376 . S
C15 C16 1.370 . S
C16 C15 1.370 . S
C16 C17 1.396 . S
C16 H38 0.929 . S
C17 C12 1.373 . S
C17 C16 1.396 . S
C17 H39 0.929 . S
C18 O28 1.240 . S
C18 O29 1.289 . S
C19 O30 1.258 . S
C19 O31 1.256 . S
O20 La0 2.521 . S
O20 C2 1.261 . S
O21 La0 2.628 . S
O21 C2 1.243 . S
O22 La0 2.554 . S
O22 C9 1.240 . S
O23 La0 2.757 . S
O23 La1 2.482 . S
O23 C9 1.289 . S
O24 La0 2.470 . S
O24 C10 1.258 . S
O25 La1 2.503 . S
O25 C10 1.256 . S
O26 La1 2.521 . S
O26 C11 1.261 . S
O27 La1 2.628 . S
O27 C11 1.243 . S
O28 La1 2.554 . S
O28 C18 1.240 . S
O29 La0 2.482 . S
O29 La1 2.757 . S
O29 C18 1.289 . S
O30 La1 2.470 . S
O30 C19 1.258 . S
O31 La0 2.503 . S
O31 C19 1.256 . S
H32 C4 0.930 . S
H33 C5 0.930 . S
H34 C7 0.929 . S
H35 C8 0.929 . S
H36 C13 0.930 . S
H37 C14 0.930 . S
H38 C16 0.929 . S
H39 C17 0.929 . S
La40 C42 2.928 . S
La40 O60 2.521 . S
La40 O61 2.628 . S
La40 O62 2.554 1_655 S
La40 O63 2.757 1_655 S
La40 O64 2.470 1_655 S
La40 O69 2.487 . S
La40 O71 2.503 . S
La41 C51 2.928 . S
La41 O63 2.482 . S
La41 O65 2.503 . S
La41 O66 2.521 . S
La41 O67 2.628 . S
La41 O68 2.554 . S
La41 O69 2.725 1_455 S
La41 O70 2.470 . S
C42 La40 2.928 . S
C42 C43 1.503 . S
C42 O60 1.261 . S
C42 O61 1.243 . S
C43 C42 1.503 . S
C43 C44 1.394 . S
C43 C48 1.373 . S
C44 C43 1.394 . S
C44 C45 1.380 . S
C44 H72 0.930 . S
C45 C44 1.380 . S
C45 C46 1.376 . S
C45 H73 0.930 . S
C46 C45 1.376 . S
C46 C47 1.370 . S
C47 C46 1.370 . S
C47 C48 1.396 . S
C47 H74 0.929 . S
C48 C43 1.373 . S
C48 C47 1.396 . S
C48 H75 0.929 . S
C49 O62 1.240 . S
C49 O63 1.289 . S
C50 O64 1.258 . S
C50 O65 1.256 . S
C51 La41 2.928 . S
C51 C52 1.503 . S
C51 O66 1.261 . S
C51 O67 1.243 . S
C52 C51 1.503 . S
C52 C53 1.394 . S
C52 C57 1.373 . S
C53 C52 1.394 . S
C53 C54 1.380 . S
C53 H76 0.930 . S
C54 C53 1.380 . S
C54 C55 1.376 . S
C54 H77 0.930 . S
C55 C54 1.376 . S
C55 C56 1.370 . S
C56 C55 1.370 . S
C56 C57 1.396 . S
C56 H78 0.929 . S
C57 C52 1.373 . S
C57 C56 1.396 . S
C57 H79 0.929 . S
C58 O68 1.240 1_655 S
C58 O69 1.296 . S
C59 O70 1.258 . S
C59 O71 1.256 1_455 S
O60 La40 2.521 . S
O60 C42 1.261 . S
O61 La40 2.628 . S
O61 C42 1.243 . S
O62 La40 2.554 1_455 S
O62 C49 1.240 . S
O63 La40 2.757 1_455 S
O63 La41 2.482 . S
O63 C49 1.289 . S
O64 La40 2.470 1_455 S
O64 C50 1.258 . S
O65 La41 2.503 . S
O65 C50 1.256 . S
O66 La41 2.521 . S
O66 C51 1.261 . S
O67 La41 2.628 . S
O67 C51 1.243 . S
O68 La41 2.554 . S
O68 C58 1.240 1_455 S
O69 La40 2.487 . S
O69 La41 2.725 1_655 S
O69 C58 1.296 . S
O70 La41 2.470 . S
O70 C59 1.258 . S
O71 La40 2.503 . S
O71 C59 1.256 1_655 S
H72 C44 0.930 . S
H73 C45 0.930 . S
H74 C47 0.929 . S
H75 C48 0.929 . S
H76 C53 0.930 . S
H77 C54 0.930 . S
H78 C56 0.929 . S
H79 C57 0.929 . S
La80 C82 2.928 . S
La80 O100 2.521 . S
La80 O101 2.628 . S
La80 O102 2.554 1_554 S
La80 O103 2.757 1_554 S
La80 O104 2.470 1_554 S
La80 O109 2.482 . S
La80 O111 2.503 . S
La81 C91 2.928 . S
La81 O103 2.482 . S
La81 O105 2.503 . S
La81 O106 2.521 . S
La81 O107 2.628 . S
La81 O108 2.554 . S
La81 O109 2.757 1_556 S
La81 O110 2.470 . S
C82 La80 2.928 . S
C82 C83 1.503 . S
C82 O100 1.261 . S
C82 O101 1.243 . S
C83 C82 1.503 . S
C83 C84 1.394 . S
C83 C88 1.373 . S
C84 C83 1.394 . S
C84 C85 1.380 . S
C84 H112 0.930 . S
C85 C84 1.380 . S
C85 C86 1.376 . S
C85 H113 0.930 . S
C86 C85 1.376 . S
C86 C87 1.370 . S
C87 C86 1.370 . S
C87 C88 1.396 . S
C87 H114 0.929 . S
C88 C83 1.373 . S
C88 C87 1.396 . S
C88 H115 0.929 . S
C89 O102 1.240 . S
C89 O103 1.289 . S
C90 O104 1.258 . S
C90 O105 1.256 . S
C91 La81 2.928 . S
C91 C92 1.503 . S
C91 O106 1.261 . S
C91 O107 1.243 . S
C92 C91 1.503 . S
C92 C93 1.394 . S
C92 C97 1.373 . S
C93 C92 1.394 . S
C93 C94 1.380 . S
C93 H116 0.930 . S
C94 C93 1.380 . S
C94 C95 1.376 . S
C94 H117 0.930 . S
C95 C94 1.376 . S
C95 C96 1.370 . S
C96 C95 1.370 . S
C96 C97 1.396 . S
C96 H118 0.929 . S
C97 C92 1.373 . S
C97 C96 1.396 . S
C97 H119 0.929 . S
C98 O108 1.240 1_554 S
C98 O109 1.289 . S
C99 O110 1.258 . S
C99 O111 1.256 1_556 S
O100 La80 2.521 . S
O100 C82 1.261 . S
O101 La80 2.628 . S
O101 C82 1.243 . S
O102 La80 2.554 1_556 S
O102 C89 1.240 . S
O103 La80 2.757 1_556 S
O103 La81 2.482 . S
O103 C89 1.289 . S
O104 La80 2.470 1_556 S
O104 C90 1.258 . S
O105 La81 2.503 . S
O105 C90 1.256 . S
O106 La81 2.521 . S
O106 C91 1.261 . S
O107 La81 2.628 . S
O107 C91 1.243 . S
O108 La81 2.554 . S
O108 C98 1.240 1_556 S
O109 La80 2.482 . S
O109 La81 2.757 1_554 S
O109 C98 1.289 . S
O110 La81 2.470 . S
O110 C99 1.258 . S
O111 La80 2.503 . S
O111 C99 1.256 1_554 S
H112 C84 0.930 . S
H113 C85 0.930 . S
H114 C87 0.929 . S
H115 C88 0.929 . S
H116 C93 0.930 . S
H117 C94 0.930 . S
H118 C96 0.929 . S
H119 C97 0.929 . S
La120 C122 2.928 . S
La120 O140 2.521 . S
La120 O141 2.628 . S
La120 O142 2.554 . S
La120 O143 2.757 . S
La120 O144 2.470 . S
La120 O149 2.482 . S
La120 O151 2.503 . S
La121 C131 2.928 . S
La121 O143 2.482 . S
La121 O145 2.503 . S
La121 O146 2.521 . S
La121 O147 2.628 . S
La121 O148 2.554 . S
La121 O149 2.757 . S
La121 O150 2.470 . S
C122 La120 2.928 . S
C122 C123 1.503 . S
C122 O140 1.261 . S
C122 O141 1.243 . S
C123 C122 1.503 . S
C123 C124 1.394 . S
C123 C128 1.373 . S
C124 C123 1.394 . S
C124 C125 1.380 . S
C124 H152 0.930 . S
C125 C124 1.380 . S
C125 C126 1.376 . S
C125 H153 0.930 . S
C126 C125 1.376 . S
C126 C127 1.370 . S
C127 C126 1.370 . S
C127 C128 1.396 . S
C127 H154 0.929 . S
C128 C123 1.373 . S
C128 C127 1.396 . S
C128 H155 0.929 . S
C129 O142 1.240 . S
C129 O143 1.289 . S
C130 O144 1.258 . S
C130 O145 1.256 . S
C131 La121 2.928 . S
C131 C132 1.503 . S
C131 O146 1.261 . S
C131 O147 1.243 . S
C132 C131 1.503 . S
C132 C133 1.394 . S
C132 C137 1.373 . S
C133 C132 1.394 . S
C133 C134 1.380 . S
C133 H156 0.930 . S
C134 C133 1.380 . S
C134 C135 1.376 . S
C134 H157 0.930 . S
C135 C134 1.376 . S
C135 C136 1.370 . S
C136 C135 1.370 . S
C136 C137 1.396 . S
C136 H158 0.929 . S
C137 C132 1.373 . S
C137 C136 1.396 . S
C137 H159 0.929 . S
C138 O148 1.240 . S
C138 O149 1.289 . S
C139 O150 1.258 . S
C139 O151 1.256 . S
O140 La120 2.521 . S
O140 C122 1.261 . S
O141 La120 2.628 . S
O141 C122 1.243 . S
O142 La120 2.554 . S
O142 C129 1.240 . S
O143 La120 2.757 . S
O143 La121 2.482 . S
O143 C129 1.289 . S
O144 La120 2.470 . S
O144 C130 1.258 . S
O145 La121 2.503 . S
O145 C130 1.256 . S
O146 La121 2.521 . S
O146 C131 1.261 . S
O147 La121 2.628 . S
O147 C131 1.243 . S
O148 La121 2.554 . S
O148 C138 1.240 . S
O149 La120 2.482 . S
O149 La121 2.757 . S
O149 C138 1.289 . S
O150 La121 2.470 . S
O150 C139 1.258 . S
O151 La120 2.503 . S
O151 C139 1.256 . S
H152 C124 0.930 . S
H153 C125 0.930 . S
H154 C127 0.929 . S
H155 C128 0.929 . S
H156 C133 0.930 . S
H157 C134 0.930 . S
H158 C136 0.929 . S
H159 C137 0.929 . S
La160 C162 2.928 . S
La160 O180 2.521 . S
La160 O181 2.628 . S
La160 O182 2.554 . S
La160 O183 2.757 . S
La160 O184 2.470 . S
La160 O189 2.482 . S
La160 O191 2.503 . S
La161 C171 2.928 . S
La161 O183 2.482 . S
La161 O185 2.503 . S
La161 O186 2.521 . S
La161 O187 2.628 . S
La161 O188 2.554 . S
La161 O189 2.757 . S
La161 O190 2.470 . S
C162 La160 2.928 . S
C162 C163 1.503 . S
C162 O180 1.261 . S
C162 O181 1.243 . S
C163 C162 1.503 . S
C163 C164 1.394 . S
C163 C168 1.373 . S
C164 C163 1.394 . S
C164 C165 1.380 . S
C164 H192 0.930 . S
C165 C164 1.380 . S
C165 C166 1.376 . S
C165 H193 0.930 . S
C166 C165 1.376 . S
C166 C167 1.370 . S
C167 C166 1.370 . S
C167 C168 1.396 . S
C167 H194 0.929 . S
C168 C163 1.373 . S
C168 C167 1.396 . S
C168 H195 0.929 . S
C169 O182 1.240 . S
C169 O183 1.289 . S
C170 O184 1.258 . S
C170 O185 1.256 . S
C171 La161 2.928 . S
C171 C172 1.503 . S
C171 O186 1.261 . S
C171 O187 1.243 . S
C172 C171 1.503 . S
C172 C173 1.394 . S
C172 C177 1.373 . S
C173 C172 1.394 . S
C173 C174 1.380 . S
C173 H196 0.930 . S
C174 C173 1.380 . S
C174 C175 1.376 . S
C174 H197 0.930 . S
C175 C174 1.376 . S
C175 C176 1.370 . S
C176 C175 1.370 . S
C176 C177 1.396 . S
C176 H198 0.929 . S
C177 C172 1.373 . S
C177 C176 1.396 . S
C177 H199 0.929 . S
C178 O188 1.240 . S
C178 O189 1.289 . S
C179 O190 1.258 . S
C179 O191 1.256 . S
O180 La160 2.521 . S
O180 C162 1.261 . S
O181 La160 2.628 . S
O181 C162 1.243 . S
O182 La160 2.554 . S
O182 C169 1.240 . S
O183 La160 2.757 . S
O183 La161 2.482 . S
O183 C169 1.289 . S
O184 La160 2.470 . S
O184 C170 1.258 . S
O185 La161 2.503 . S
O185 C170 1.256 . S
O186 La161 2.521 . S
O186 C171 1.261 . S
O187 La161 2.628 . S
O187 C171 1.243 . S
O188 La161 2.554 . S
O188 C178 1.240 . S
O189 La160 2.482 . S
O189 La161 2.757 . S
O189 C178 1.289 . S
O190 La161 2.470 . S
O190 C179 1.258 . S
O191 La160 2.503 . S
O191 C179 1.256 . S
H192 C164 0.930 . S
H193 C165 0.930 . S
H194 C167 0.929 . S
H195 C168 0.929 . S
H196 C173 0.930 . S
H197 C174 0.930 . S
H198 C176 0.929 . S
H199 C177 0.929 . S
La200 C202 2.928 . S
La200 O220 2.521 . S
La200 O221 2.628 . S
La200 O222 2.554 . S
La200 O223 2.757 . S
La200 O224 2.470 . S
La200 O229 2.482 . S
La200 O231 2.503 1_655 S
La201 C211 2.928 . S
La201 O223 2.482 1_455 S
La201 O225 2.503 1_455 S
La201 O226 2.521 . S
La201 O227 2.628 . S
La201 O228 2.554 . S
La201 O229 2.757 1_455 S
La201 O230 2.470 . S
C202 La200 2.928 . S
C202 C203 1.503 . S
C202 O220 1.261 . S
C202 O221 1.243 . S
C203 C202 1.503 . S
C203 C204 1.394 . S
C203 C208 1.373 . S
C204 C203 1.394 . S
C204 C205 1.380 . S
C204 H232 0.930 . S
C205 C204 1.380 . S
C205 C206 1.376 . S
C205 H233 0.930 . S
C206 C205 1.376 . S
C206 C207 1.370 . S
C207 C206 1.370 . S
C207 C208 1.396 . S
C207 H234 0.929 . S
C208 C203 1.373 . S
C208 C207 1.396 . S
C208 H235 0.929 . S
C209 O222 1.240 . S
C209 O223 1.289 . S
C210 O224 1.258 . S
C210 O225 1.256 . S
C211 La201 2.928 . S
C211 C212 1.503 . S
C211 O226 1.261 . S
C211 O227 1.243 . S
C212 C211 1.503 . S
C212 C213 1.394 . S
C212 C217 1.373 . S
C213 C212 1.394 . S
C213 C214 1.380 . S
C213 H236 0.930 . S
C214 C213 1.380 . S
C214 C215 1.376 . S
C214 H237 0.930 . S
C215 C214 1.376 . S
C215 C216 1.370 . S
C216 C215 1.370 . S
C216 C217 1.396 . S
C216 H238 0.929 . S
C217 C212 1.373 . S
C217 C216 1.396 . S
C217 H239 0.929 . S
C218 O228 1.240 . S
C218 O229 1.289 1_455 S
C219 O230 1.258 . S
C219 O231 1.256 . S
O220 La200 2.521 . S
O220 C202 1.261 . S
O221 La200 2.628 . S
O221 C202 1.243 . S
O222 La200 2.554 . S
O222 C209 1.240 . S
O223 La200 2.757 . S
O223 La201 2.482 1_655 S
O223 C209 1.289 . S
O224 La200 2.470 . S
O224 C210 1.258 . S
O225 La201 2.503 1_655 S
O225 C210 1.256 . S
O226 La201 2.521 . S
O226 C211 1.261 . S
O227 La201 2.628 . S
O227 C211 1.243 . S
O228 La201 2.554 . S
O228 C218 1.240 . S
O229 La200 2.482 . S
O229 La201 2.757 1_655 S
O229 C218 1.289 1_655 S
O230 La201 2.470 . S
O230 C219 1.258 . S
O231 La200 2.503 1_455 S
O231 C219 1.256 . S
H232 C204 0.930 . S
H233 C205 0.930 . S
H234 C207 0.929 . S
H235 C208 0.929 . S
H236 C213 0.930 . S
H237 C214 0.930 . S
H238 C216 0.929 . S
H239 C217 0.929 . S
La240 C242 2.928 . S
La240 O260 2.521 . S
La240 O261 2.628 . S
La240 O262 2.554 . S
La240 O263 2.757 . S
La240 O264 2.470 . S
La240 O269 2.482 . S
La240 O271 2.503 1_554 S
La241 C251 2.928 . S
La241 O263 2.482 1_556 S
La241 O265 2.503 1_556 S
La241 O266 2.521 . S
La241 O267 2.628 . S
La241 O268 2.554 . S
La241 O269 2.757 1_556 S
La241 O270 2.470 . S
C242 La240 2.928 . S
C242 C243 1.503 . S
C242 O260 1.261 . S
C242 O261 1.243 . S
C243 C242 1.503 . S
C243 C244 1.394 . S
C243 C248 1.373 . S
C244 C243 1.394 . S
C244 C245 1.380 . S
C244 H272 0.930 . S
C245 C244 1.380 . S
C245 C246 1.376 . S
C245 H273 0.930 . S
C246 C245 1.376 . S
C246 C247 1.370 . S
C247 C246 1.370 . S
C247 C248 1.396 . S
C247 H274 0.929 . S
C248 C243 1.373 . S
C248 C247 1.396 . S
C248 H275 0.929 . S
C249 O262 1.240 . S
C249 O263 1.289 . S
C250 O264 1.258 . S
C250 O265 1.256 . S
C251 La241 2.928 . S
C251 C252 1.503 . S
C251 O266 1.261 . S
C251 O267 1.243 . S
C252 C251 1.503 . S
C252 C253 1.394 . S
C252 C257 1.373 . S
C253 C252 1.394 . S
C253 C254 1.380 . S
C253 H276 0.930 . S
C254 C253 1.380 . S
C254 C255 1.376 . S
C254 H277 0.930 . S
C255 C254 1.376 . S
C255 C256 1.370 . S
C256 C255 1.370 . S
C256 C257 1.396 . S
C256 H278 0.929 . S
C257 C252 1.373 . S
C257 C256 1.396 . S
C257 H279 0.929 . S
C258 O268 1.240 . S
C258 O269 1.289 1_556 S
C259 O270 1.258 . S
C259 O271 1.256 . S
O260 La240 2.521 . S
O260 C242 1.261 . S
O261 La240 2.628 . S
O261 C242 1.243 . S
O262 La240 2.554 . S
O262 C249 1.240 . S
O263 La240 2.757 . S
O263 La241 2.482 1_554 S
O263 C249 1.289 . S
O264 La240 2.470 . S
O264 C250 1.258 . S
O265 La241 2.503 1_554 S
O265 C250 1.256 . S
O266 La241 2.521 . S
O266 C251 1.261 . S
O267 La241 2.628 . S
O267 C251 1.243 . S
O268 La241 2.554 . S
O268 C258 1.240 . S
O269 La240 2.482 . S
O269 La241 2.757 1_554 S
O269 C258 1.289 1_554 S
O270 La241 2.470 . S
O270 C259 1.258 . S
O271 La240 2.503 1_556 S
O271 C259 1.256 . S
H272 C244 0.930 . S
H273 C245 0.930 . S
H274 C247 0.929 . S
H275 C248 0.929 . S
H276 C253 0.930 . S
H277 C254 0.930 . S
H278 C256 0.929 . S
H279 C257 0.929 . S
La280 C282 2.928 . S
La280 O300 2.521 . S
La280 O301 2.628 . S
La280 O302 2.554 . S
La280 O303 2.757 . S
La280 O304 2.470 . S
La280 O309 2.482 . S
La280 O311 2.503 . S
La281 C291 2.928 . S
La281 O303 2.482 . S
La281 O305 2.503 . S
La281 O306 2.521 . S
La281 O307 2.628 . S
La281 O308 2.554 . S
La281 O309 2.757 . S
La281 O310 2.470 . S
C282 La280 2.928 . S
C282 C283 1.503 . S
C282 O300 1.261 . S
C282 O301 1.243 . S
C283 C282 1.503 . S
C283 C284 1.394 . S
C283 C288 1.373 . S
C284 C283 1.394 . S
C284 C285 1.380 . S
C284 H312 0.930 . S
C285 C284 1.380 . S
C285 C286 1.376 . S
C285 H313 0.930 . S
C286 C285 1.376 . S
C286 C287 1.370 . S
C287 C286 1.370 . S
C287 C288 1.396 . S
C287 H314 0.929 . S
C288 C283 1.373 . S
C288 C287 1.396 . S
C288 H315 0.929 . S
C289 O302 1.240 . S
C289 O303 1.289 . S
C290 O304 1.258 . S
C290 O305 1.256 . S
C291 La281 2.928 . S
C291 C292 1.503 . S
C291 O306 1.261 . S
C291 O307 1.243 . S
C292 C291 1.503 . S
C292 C293 1.394 . S
C292 C297 1.373 . S
C293 C292 1.394 . S
C293 C294 1.380 . S
C293 H316 0.930 . S
C294 C293 1.380 . S
C294 C295 1.376 . S
C294 H317 0.930 . S
C295 C294 1.376 . S
C295 C296 1.370 . S
C296 C295 1.370 . S
C296 C297 1.396 . S
C296 H318 0.929 . S
C297 C292 1.373 . S
C297 C296 1.396 . S
C297 H319 0.929 . S
C298 O308 1.240 . S
C298 O309 1.289 . S
C299 O310 1.258 . S
C299 O311 1.256 . S
O300 La280 2.521 . S
O300 C282 1.261 . S
O301 La280 2.628 . S
O301 C282 1.243 . S
O302 La280 2.554 . S
O302 C289 1.240 . S
O303 La280 2.757 . S
O303 La281 2.482 . S
O303 C289 1.289 . S
O304 La280 2.470 . S
O304 C290 1.258 . S
O305 La281 2.503 . S
O305 C290 1.256 . S
O306 La281 2.521 . S
O306 C291 1.261 . S
O307 La281 2.628 . S
O307 C291 1.243 . S
O308 La281 2.554 . S
O308 C298 1.240 . S
O309 La280 2.482 . S
O309 La281 2.757 . S
O309 C298 1.289 . S
O310 La281 2.470 . S
O310 C299 1.258 . S
O311 La280 2.503 . S
O311 C299 1.256 . S
H312 C284 0.930 . S
H313 C285 0.930 . S
H314 C287 0.929 . S
H315 C288 0.929 . S
H316 C293 0.930 . S
H317 C294 0.930 . S
H318 C296 0.929 . S
H319 C297 0.929 . S
La320 C322 2.928 . S
La320 O340 2.521 . S
La320 O341 2.628 . S
La320 O342 2.554 . S
La320 O343 2.757 . S
La320 O344 2.470 . S
La320 O349 2.482 . S
La320 O351 2.503 . S
La321 C331 2.928 . S
La321 O343 2.482 . S
La321 O345 2.503 . S
La321 O346 2.521 . S
La321 O347 2.628 . S
La321 O348 2.554 . S
La321 O349 2.757 . S
La321 O350 2.470 . S
C322 La320 2.928 . S
C322 C323 1.503 . S
C322 O340 1.261 . S
C322 O341 1.243 . S
C323 C322 1.503 . S
C323 C324 1.394 . S
C323 C328 1.373 . S
C324 C323 1.394 . S
C324 C325 1.380 . S
C324 H352 0.930 . S
C325 C324 1.380 . S
C325 C326 1.376 . S
C325 H353 0.930 . S
C326 C325 1.376 . S
C326 C327 1.370 . S
C327 C326 1.370 . S
C327 C328 1.396 . S
C327 H354 0.929 . S
C328 C323 1.373 . S
C328 C327 1.396 . S
C328 H355 0.929 . S
C329 O342 1.240 . S
C329 O343 1.289 . S
C330 O344 1.258 . S
C330 O345 1.256 . S
C331 La321 2.928 . S
C331 C332 1.503 . S
C331 O346 1.261 . S
C331 O347 1.243 . S
C332 C331 1.503 . S
C332 C333 1.394 . S
C332 C337 1.373 . S
C333 C332 1.394 . S
C333 C334 1.380 . S
C333 H356 0.930 . S
C334 C333 1.380 . S
C334 C335 1.376 . S
C334 H357 0.930 . S
C335 C334 1.376 . S
C335 C336 1.370 . S
C336 C335 1.370 . S
C336 C337 1.396 . S
C336 H358 0.929 . S
C337 C332 1.373 . S
C337 C336 1.396 . S
C337 H359 0.929 . S
C338 O348 1.240 . S
C338 O349 1.289 . S
C339 O350 1.258 . S
C339 O351 1.256 . S
O340 La320 2.521 . S
O340 C322 1.261 . S
O341 La320 2.628 . S
O341 C322 1.243 . S
O342 La320 2.554 . S
O342 C329 1.240 . S
O343 La320 2.757 . S
O343 La321 2.482 . S
O343 C329 1.289 . S
O344 La320 2.470 . S
O344 C330 1.258 . S
O345 La321 2.503 . S
O345 C330 1.256 . S
O346 La321 2.521 . S
O346 C331 1.261 . S
O347 La321 2.628 . S
O347 C331 1.243 . S
O348 La321 2.554 . S
O348 C338 1.240 . S
O349 La320 2.482 . S
O349 La321 2.757 . S
O349 C338 1.289 . S
O350 La321 2.470 . S
O350 C339 1.258 . S
O351 La320 2.503 . S
O351 C339 1.256 . S
H352 C324 0.930 . S
H353 C325 0.930 . S
H354 C327 0.929 . S
H355 C328 0.929 . S
H356 C333 0.930 . S
H357 C334 0.930 . S
H358 C336 0.929 . S
H359 C337 0.929 . S
La360 C362 2.928 . S
La360 O380 2.521 . S
La360 O381 2.628 . S
La360 O382 2.554 1_565 S
La360 O383 2.757 1_565 S
La360 O384 2.470 1_565 S
La360 O389 2.482 . S
La360 O391 2.503 . S
La361 C371 2.928 . S
La361 O383 2.482 . S
La361 O385 2.503 . S
La361 O386 2.521 . S
La361 O387 2.628 . S
La361 O388 2.554 1_545 S
La361 O389 2.757 1_545 S
La361 O390 2.470 1_545 S
C362 La360 2.928 . S
C362 C363 1.503 . S
C362 O380 1.261 . S
C362 O381 1.243 . S
C363 C362 1.503 . S
C363 C364 1.394 . S
C363 C368 1.373 . S
C364 C363 1.394 . S
C364 C365 1.380 . S
C364 H392 0.930 . S
C365 C364 1.380 . S
C365 C366 1.376 . S
C365 H393 0.930 . S
C366 C365 1.376 . S
C366 C367 1.370 . S
C367 C366 1.370 . S
C367 C368 1.396 . S
C367 H394 0.929 . S
C368 C363 1.373 . S
C368 C367 1.396 . S
C368 H395 0.929 . S
C369 O382 1.240 . S
C369 O383 1.289 . S
C370 O384 1.258 . S
C370 O385 1.256 . S
C371 La361 2.928 . S
C371 C372 1.503 . S
C371 O386 1.261 . S
C371 O387 1.243 . S
C372 C371 1.503 . S
C372 C373 1.394 . S
C372 C377 1.373 . S
C373 C372 1.394 . S
C373 C374 1.380 . S
C373 H396 0.930 . S
C374 C373 1.380 . S
C374 C375 1.376 . S
C374 H397 0.930 . S
C375 C374 1.376 . S
C375 C376 1.370 . S
C376 C375 1.370 . S
C376 C377 1.396 . S
C376 H398 0.929 . S
C377 C372 1.373 . S
C377 C376 1.396 . S
C377 H399 0.929 . S
C378 O388 1.240 . S
C378 O389 1.289 . S
C379 O390 1.258 . S
C379 O391 1.256 . S
O380 La360 2.521 . S
O380 C362 1.261 . S
O381 La360 2.628 . S
O381 C362 1.243 . S
O382 La360 2.554 1_545 S
O382 C369 1.240 . S
O383 La360 2.757 1_545 S
O383 La361 2.482 . S
O383 C369 1.289 . S
O384 La360 2.470 1_545 S
O384 C370 1.258 . S
O385 La361 2.503 . S
O385 C370 1.256 . S
O386 La361 2.521 . S
O386 C371 1.261 . S
O387 La361 2.628 . S
O387 C371 1.243 . S
O388 La361 2.554 1_565 S
O388 C378 1.240 . S
O389 La360 2.482 . S
O389 La361 2.757 1_565 S
O389 C378 1.289 . S
O390 La361 2.470 1_565 S
O390 C379 1.258 . S
O391 La360 2.503 . S
O391 C379 1.256 . S
H392 C364 0.930 . S
H393 C365 0.930 . S
H394 C367 0.929 . S
H395 C368 0.929 . S
H396 C373 0.930 . S
H397 C374 0.930 . S
H398 C376 0.929 . S
H399 C377 0.929 . S
La400 C402 2.928 . S
La400 O420 2.521 . S
La400 O421 2.628 . S
La400 O422 2.554 . S
La400 O423 2.757 . S
La400 O424 2.470 . S
La400 O429 2.482 . S
La400 O431 2.503 1_565 S
La401 C411 2.928 . S
La401 O423 2.482 1_545 S
La401 O425 2.503 1_545 S
La401 O426 2.521 . S
La401 O427 2.628 . S
La401 O428 2.554 . S
La401 O429 2.757 1_545 S
La401 O430 2.470 . S
C402 La400 2.928 . S
C402 C403 1.503 . S
C402 O420 1.261 . S
C402 O421 1.243 . S
C403 C402 1.503 . S
C403 C404 1.394 . S
C403 C408 1.373 . S
C404 C403 1.394 . S
C404 C405 1.380 . S
C404 H432 0.930 . S
C405 C404 1.380 . S
C405 C406 1.376 . S
C405 H433 0.930 . S
C406 C405 1.376 . S
C406 C407 1.370 . S
C407 C406 1.370 . S
C407 C408 1.396 . S
C407 H434 0.929 . S
C408 C403 1.373 . S
C408 C407 1.396 . S
C408 H435 0.929 . S
C409 O422 1.240 . S
C409 O423 1.289 . S
C410 O424 1.258 . S
C410 O425 1.256 . S
C411 La401 2.928 . S
C411 C412 1.503 . S
C411 O426 1.261 . S
C411 O427 1.243 . S
C412 C411 1.503 . S
C412 C413 1.394 . S
C412 C417 1.373 . S
C413 C412 1.394 . S
C413 C414 1.380 . S
C413 H436 0.930 . S
C414 C413 1.380 . S
C414 C415 1.376 . S
C414 H437 0.930 . S
C415 C414 1.376 . S
C415 C416 1.370 . S
C416 C415 1.370 . S
C416 C417 1.396 . S
C416 H438 0.929 . S
C417 C412 1.373 . S
C417 C416 1.396 . S
C417 H439 0.929 . S
C418 O428 1.240 . S
C418 O429 1.289 1_545 S
C419 O430 1.258 . S
C419 O431 1.256 . S
O420 La400 2.521 . S
O420 C402 1.261 . S
O421 La400 2.628 . S
O421 C402 1.243 . S
O422 La400 2.554 . S
O422 C409 1.240 . S
O423 La400 2.757 . S
O423 La401 2.482 1_565 S
O423 C409 1.289 . S
O424 La400 2.470 . S
O424 C410 1.258 . S
O425 La401 2.503 1_565 S
O425 C410 1.256 . S
O426 La401 2.521 . S
O426 C411 1.261 . S
O427 La401 2.628 . S
O427 C411 1.243 . S
O428 La401 2.554 . S
O428 C418 1.240 . S
O429 La400 2.482 . S
O429 La401 2.757 1_565 S
O429 C418 1.289 1_565 S
O430 La401 2.470 . S
O430 C419 1.258 . S
O431 La400 2.503 1_545 S
O431 C419 1.256 . S
H432 C404 0.930 . S
H433 C405 0.930 . S
H434 C407 0.929 . S
H435 C408 0.929 . S
H436 C413 0.930 . S
H437 C414 0.930 . S
H438 C416 0.929 . S
H439 C417 0.929 . S
La440 C442 2.928 . S
La440 O460 2.521 . S
La440 O461 2.628 . S
La440 O462 2.554 . S
La440 O463 2.757 . S
La440 O464 2.470 . S
La440 O469 2.482 . S
La440 O471 2.503 . S
La441 C451 2.928 . S
La441 O463 2.482 . S
La441 O465 2.503 . S
La441 O466 2.521 . S
La441 O467 2.628 . S
La441 O468 2.554 . S
La441 O469 2.757 . S
La441 O470 2.470 . S
C442 La440 2.928 . S
C442 C443 1.503 . S
C442 O460 1.261 . S
C442 O461 1.243 . S
C443 C442 1.503 . S
C443 C444 1.394 . S
C443 C448 1.373 . S
C444 C443 1.394 . S
C444 C445 1.380 . S
C444 H472 0.930 . S
C445 C444 1.380 . S
C445 C446 1.376 . S
C445 H473 0.930 . S
C446 C445 1.376 . S
C446 C447 1.370 . S
C447 C446 1.370 . S
C447 C448 1.396 . S
C447 H474 0.929 . S
C448 C443 1.373 . S
C448 C447 1.396 . S
C448 H475 0.929 . S
C449 O462 1.240 . S
C449 O463 1.289 . S
C450 O464 1.258 . S
C450 O465 1.256 . S
C451 La441 2.928 . S
C451 C452 1.503 . S
C451 O466 1.261 . S
C451 O467 1.243 . S
C452 C451 1.503 . S
C452 C453 1.394 . S
C452 C457 1.373 . S
C453 C452 1.394 . S
C453 C454 1.380 . S
C453 H476 0.930 . S
C454 C453 1.380 . S
C454 C455 1.376 . S
C454 H477 0.930 . S
C455 C454 1.376 . S
C455 C456 1.370 . S
C456 C455 1.370 . S
C456 C457 1.396 . S
C456 H478 0.929 . S
C457 C452 1.373 . S
C457 C456 1.396 . S
C457 H479 0.929 . S
C458 O468 1.240 . S
C458 O469 1.289 . S
C459 O470 1.258 . S
C459 O471 1.256 . S
O460 La440 2.521 . S
O460 C442 1.261 . S
O461 La440 2.628 . S
O461 C442 1.243 . S
O462 La440 2.554 . S
O462 C449 1.240 . S
O463 La440 2.757 . S
O463 La441 2.482 . S
O463 C449 1.289 . S
O464 La440 2.470 . S
O464 C450 1.258 . S
O465 La441 2.503 . S
O465 C450 1.256 . S
O466 La441 2.521 . S
O466 C451 1.261 . S
O467 La441 2.628 . S
O467 C451 1.243 . S
O468 La441 2.554 . S
O468 C458 1.240 . S
O469 La440 2.482 . S
O469 La441 2.757 . S
O469 C458 1.289 . S
O470 La441 2.470 . S
O470 C459 1.258 . S
O471 La440 2.503 . S
O471 C459 1.256 . S
H472 C444 0.930 . S
H473 C445 0.930 . S
H474 C447 0.929 . S
H475 C448 0.929 . S
H476 C453 0.930 . S
H477 C454 0.930 . S
H478 C456 0.929 . S
H479 C457 0.929 . S
C480 C481 1.349 . S
C480 C482 1.327 . S
C480 H505 0.950 . S
C481 C480 1.349 . S
C481 C497 1.349 . S
C482 C480 1.327 . S
C482 C501 1.429 . S
C482 H506 0.950 . S
C483 C500 1.574 . S
C483 C502 1.368 . S
C483 H507 0.949 . S
H484 C488 0.949 . S
C485 C486 1.349 . S
C485 C487 1.327 . S
C485 H508 0.950 . S
C486 C485 1.349 . S
C486 C498 1.349 . S
C487 C485 1.327 . S
C487 C503 1.429 . S
C487 H509 0.950 . S
C488 H484 0.949 . S
C488 C496 1.574 . S
C488 C504 1.368 . S
H489 C497 0.950 . S
H490 C495 0.950 . S
H491 C496 0.949 . S
H492 C498 0.950 . S
H493 C499 0.950 . S
H494 C500 0.949 . S
C495 H490 0.950 . S
C495 C497 1.327 . S
C495 C501 1.429 . S
C496 C488 1.574 . S
C496 H491 0.949 . S
C496 C502 1.368 . S
C497 C481 1.349 . S
C497 H489 0.950 . S
C497 C495 1.327 . S
C498 C486 1.349 . S
C498 H492 0.950 . S
C498 C499 1.327 . S
C499 H493 0.950 . S
C499 C498 1.327 . S
C499 C503 1.429 . S
C500 C483 1.574 . S
C500 H494 0.949 . S
C500 C504 1.368 . S
C501 C482 1.429 . S
C501 C495 1.429 . S
C501 C502 1.523 . S
C502 C483 1.368 . S
C502 C496 1.368 . S
C502 C501 1.523 . S
C503 C487 1.429 . S
C503 C499 1.429 . S
C503 C504 1.523 . S
C504 C488 1.368 . S
C504 C500 1.368 . S
C504 C503 1.523 . S
H505 C480 0.950 . S
H506 C482 0.950 . S
H507 C483 0.949 . S
H508 C485 0.950 . S
H509 C487 0.950 . S
C510 C511 1.349 . S
C510 C512 1.327 . S
C510 H535 0.950 . S
C511 C510 1.349 . S
C511 C527 1.349 . S
C512 C510 1.327 . S
C512 C531 1.429 . S
C512 H536 0.950 . S
C513 C530 1.574 . S
C513 C532 1.368 . S
C513 H537 0.949 . S
H514 C518 0.949 . S
C515 C516 1.349 . S
C515 C517 1.327 . S
C515 H538 0.950 . S
C516 C515 1.349 . S
C516 C528 1.349 . S
C517 C515 1.327 . S
C517 C533 1.429 . S
C517 H539 0.950 . S
C518 H514 0.949 . S
C518 C526 1.574 . S
C518 C534 1.368 . S
H519 C527 0.950 1_545 S
H520 C525 0.923 1_545 S
H521 C526 0.949 . S
H522 C528 0.950 . S
H523 C529 0.950 . S
H524 C530 0.949 . S
C525 H520 0.923 1_565 S
C525 C527 1.327 . S
C525 C531 1.429 . S
C526 C518 1.574 . S
C526 H521 0.949 . S
C526 C532 1.368 . S
C527 C511 1.349 . S
C527 H519 0.950 1_565 S
C527 C525 1.327 . S
C528 C516 1.349 . S
C528 H522 0.950 . S
C528 C529 1.327 . S
C529 H523 0.950 . S
C529 C528 1.327 . S
C529 C533 1.429 . S
C530 C513 1.574 . S
C530 H524 0.949 . S
C530 C534 1.368 . S
C531 C512 1.429 . S
C531 C525 1.429 . S
C531 C532 1.523 . S
C532 C513 1.368 . S
C532 C526 1.368 . S
C532 C531 1.523 . S
C533 C517 1.429 . S
C533 C529 1.429 . S
C533 C534 1.523 . S
C534 C518 1.368 . S
C534 C530 1.368 . S
C534 C533 1.523 . S
H535 C510 0.950 . S
H536 C512 0.950 . S
H537 C513 0.949 . S
H538 C515 0.950 . S
H539 C517 0.950 . S
C540 C541 1.349 . S
C540 C542 1.327 . S
C540 H565 0.950 . S
C541 C540 1.349 . S
C541 C557 1.349 1_556 S
C542 C540 1.327 . S
C542 C561 1.429 1_556 S
C542 H566 0.950 . S
C543 C560 1.574 . S
C543 C562 1.368 . S
C543 H567 0.949 . S
H544 C548 0.949 . S
C545 C546 1.349 . S
C545 C547 1.327 . S
C545 H568 0.950 . S
C546 C545 1.349 . S
C546 C558 1.349 . S
C547 C545 1.327 . S
C547 C563 1.429 . S
C547 H569 0.950 . S
C548 H544 0.949 . S
C548 C556 1.574 . S
C548 C564 1.368 . S
H549 C557 0.950 . S
H550 C555 0.950 . S
H551 C556 0.949 . S
H552 C558 0.950 . S
H553 C559 0.950 . S
H554 C560 0.949 . S
C555 H550 0.950 . S
C555 C557 1.327 . S
C555 C561 1.429 . S
C556 C548 1.574 . S
C556 H551 0.949 . S
C556 C562 1.368 . S
C557 C541 1.349 1_554 S
C557 H549 0.950 . S
C557 C555 1.327 . S
C558 C546 1.349 . S
C558 H552 0.950 . S
C558 C559 1.327 . S
C559 H553 0.950 . S
C559 C558 1.327 . S
C559 C563 1.429 . S
C560 C543 1.574 . S
C560 H554 0.949 . S
C560 C564 1.368 . S
C561 C542 1.429 1_554 S
C561 C555 1.429 . S
C561 C562 1.523 . S
C562 C543 1.368 . S
C562 C556 1.368 . S
C562 C561 1.523 . S
C563 C547 1.429 . S
C563 C559 1.429 . S
C563 C564 1.523 . S
C564 C548 1.368 . S
C564 C560 1.368 . S
C564 C563 1.523 . S
H565 C540 0.950 . S
H566 C542 0.950 . S
H567 C543 0.949 . S
H568 C545 0.950 . S
H569 C547 0.950 . S
C570 C571 1.349 . S
C570 C572 1.327 . S
C570 H595 0.950 . S
C571 C570 1.349 . S
C571 C587 1.349 . S
C572 C570 1.327 . S
C572 C591 1.429 . S
C572 H596 0.950 . S
C573 C590 1.574 . S
C573 C592 1.368 . S
C573 H597 0.949 . S
H574 C578 0.949 . S
C575 C576 1.349 . S
C575 C577 1.327 . S
C575 H598 0.950 . S
C576 C575 1.349 . S
C576 C588 1.349 . S
C577 C575 1.327 . S
C577 C593 1.429 . S
C577 H599 0.950 . S
C578 H574 0.949 . S
C578 C586 1.574 . S
C578 C594 1.368 . S
H579 C587 0.950 . S
H580 C585 0.950 . S
H581 C586 0.949 . S
H582 C588 0.950 . S
H583 C589 0.950 . S
H584 C590 0.949 . S
C585 H580 0.950 . S
C585 C587 1.327 . S
C585 C591 1.429 . S
C586 C578 1.574 . S
C586 H581 0.949 . S
C586 C592 1.368 . S
C587 C571 1.349 . S
C587 H579 0.950 . S
C587 C585 1.327 . S
C588 C576 1.349 . S
C588 H582 0.950 . S
C588 C589 1.327 . S
C589 H583 0.950 . S
C589 C588 1.327 . S
C589 C593 1.429 . S
C590 C573 1.574 . S
C590 H584 0.949 . S
C590 C594 1.368 . S
C591 C572 1.429 . S
C591 C585 1.429 . S
C591 C592 1.523 . S
C592 C573 1.368 . S
C592 C586 1.368 . S
C592 C591 1.523 . S
C593 C577 1.429 . S
C593 C589 1.429 . S
C593 C594 1.523 . S
C594 C578 1.368 . S
C594 C590 1.368 . S
C594 C593 1.523 . S
H595 C570 0.950 . S
H596 C572 0.950 . S
H597 C573 0.949 . S
H598 C575 0.950 . S
H599 C577 0.950 . S
C600 C601 1.349 . S
C600 C602 1.327 . S
C600 H625 0.950 . S
C601 C600 1.349 . S
C601 C617 1.349 . S
C602 C600 1.327 . S
C602 C621 1.429 . S
C602 H626 0.950 . S
C603 C620 1.574 . S
C603 C622 1.368 . S
C603 H627 0.949 . S
H604 C608 0.949 . S
C605 C606 1.349 . S
C605 C607 1.327 . S
C605 H628 0.950 . S
C606 C605 1.349 . S
C606 C618 1.349 . S
C607 C605 1.327 . S
C607 C623 1.429 . S
C607 H629 0.950 . S
C608 H604 0.949 . S
C608 C616 1.574 . S
C608 C624 1.368 . S
H609 C617 0.950 . S
H610 C615 0.950 . S
H611 C616 0.949 . S
H612 C618 0.950 . S
H613 C619 0.950 . S
H614 C620 0.949 . S
C615 H610 0.950 . S
C615 C617 1.327 . S
C615 C621 1.429 . S
C616 C608 1.574 . S
C616 H611 0.949 . S
C616 C622 1.368 . S
C617 C601 1.349 . S
C617 H609 0.950 . S
C617 C615 1.327 . S
C618 C606 1.349 . S
C618 H612 0.950 . S
C618 C619 1.327 . S
C619 H613 0.950 . S
C619 C618 1.327 . S
C619 C623 1.429 . S
C620 C603 1.574 . S
C620 H614 0.949 . S
C620 C624 1.368 . S
C621 C602 1.429 . S
C621 C615 1.429 . S
C621 C622 1.523 . S
C622 C603 1.368 . S
C622 C616 1.368 . S
C622 C621 1.523 . S
C623 C607 1.429 . S
C623 C619 1.429 . S
C623 C624 1.523 . S
C624 C608 1.368 . S
C624 C620 1.368 . S
C624 C623 1.523 . S
H625 C600 0.950 . S
H626 C602 0.950 . S
H627 C603 0.949 . S
H628 C605 0.950 . S
H629 C607 0.950 . S
C630 C631 1.349 . S
C630 C632 1.327 . S
C630 H655 0.950 . S
C631 C630 1.349 . S
C631 C647 1.349 . S
C632 C630 1.327 . S
C632 C651 1.429 . S
C632 H656 0.950 . S
C633 C650 1.574 . S
C633 C652 1.368 . S
C633 H657 0.949 . S
H634 C638 0.949 . S
C635 C636 1.349 . S
C635 C637 1.327 . S
C635 H658 0.950 . S
C636 C635 1.349 . S
C636 C648 1.349 . S
C637 C635 1.327 . S
C637 C653 1.429 . S
C637 H659 0.950 . S
C638 H634 0.949 . S
C638 C646 1.574 . S
C638 C654 1.368 . S
H639 C647 0.950 . S
H640 C645 0.950 . S
H641 C646 0.949 . S
H642 C648 0.950 . S
H643 C649 0.950 . S
H644 C650 0.949 . S
C645 H640 0.950 . S
C645 C647 1.327 . S
C645 C651 1.429 . S
C646 C638 1.574 . S
C646 H641 0.949 . S
C646 C652 1.368 . S
C647 C631 1.349 . S
C647 H639 0.950 . S
C647 C645 1.327 . S
C648 C636 1.349 . S
C648 H642 0.950 . S
C648 C649 1.327 . S
C649 H643 0.950 . S
C649 C648 1.327 . S
C649 C653 1.429 . S
C650 C633 1.574 . S
C650 H644 0.949 . S
C650 C654 1.368 . S
C651 C632 1.429 . S
C651 C645 1.429 . S
C651 C652 1.523 . S
C652 C633 1.368 . S
C652 C646 1.368 . S
C652 C651 1.523 . S
C653 C637 1.429 . S
C653 C649 1.429 . S
C653 C654 1.523 . S
C654 C638 1.368 . S
C654 C650 1.368 . S
C654 C653 1.523 . S
H655 C630 0.950 . S
H656 C632 0.950 . S
H657 C633 0.949 . S
H658 C635 0.950 . S
H659 C637 0.950 . S
C660 C661 1.349 . S
C660 C662 1.327 . S
C660 H685 0.950 . S
C661 C660 1.349 . S
C661 C677 1.349 . S
C662 C660 1.327 . S
C662 C681 1.429 . S
C662 H686 0.950 . S
C663 C680 1.574 . S
C663 C682 1.368 . S
C663 H687 0.949 . S
H664 C668 0.949 . S
C665 C666 1.349 . S
C665 C667 1.327 . S
C665 H688 0.950 1_556 S
C666 C665 1.349 . S
C666 C678 1.349 . S
C667 C665 1.327 . S
C667 C683 1.429 . S
C667 H689 0.950 . S
C668 H664 0.949 . S
C668 C676 1.574 . S
C668 C684 1.368 . S
H669 C677 0.950 . S
H670 C675 0.950 . S
H671 C676 0.949 . S
H672 C678 0.950 . S
H673 C679 0.950 . S
H674 C680 0.949 . S
C675 H670 0.950 . S
C675 C677 1.327 . S
C675 C681 1.429 . S
C676 C668 1.574 . S
C676 H671 0.949 . S
C676 C682 1.368 . S
C677 C661 1.349 . S
C677 H669 0.950 . S
C677 C675 1.327 . S
C678 C666 1.349 . S
C678 H672 0.950 . S
C678 C679 1.327 . S
C679 H673 0.950 . S
C679 C678 1.327 . S
C679 C683 1.429 . S
C680 C663 1.574 . S
C680 H674 0.949 . S
C680 C684 1.368 . S
C681 C662 1.429 . S
C681 C675 1.429 . S
C681 C682 1.523 . S
C682 C663 1.368 . S
C682 C676 1.368 . S
C682 C681 1.523 . S
C683 C667 1.429 . S
C683 C679 1.429 . S
C683 C684 1.523 . S
C684 C668 1.368 . S
C684 C680 1.368 . S
C684 C683 1.523 . S
H685 C660 0.950 . S
H686 C662 0.950 . S
H687 C663 0.949 . S
H688 C665 0.950 1_554 S
H689 C667 0.950 . S
C690 C691 1.349 . S
C690 C692 1.327 . S
C690 H715 0.950 . S
C691 C690 1.349 . S
C691 C707 1.349 . S
C692 C690 1.327 . S
C692 C711 1.429 . S
C692 H716 0.950 . S
C693 C710 1.574 . S
C693 C712 1.368 . S
C693 H717 0.949 . S
H694 C698 0.949 . S
C695 C696 1.349 . S
C695 C697 1.327 . S
C695 H718 0.950 . S
C696 C695 1.349 . S
C696 C708 1.349 . S
C697 C695 1.327 . S
C697 C713 1.429 . S
C697 H719 0.950 . S
C698 H694 0.949 . S
C698 C706 1.574 . S
C698 C714 1.368 . S
H699 C707 0.950 . S
H700 C705 0.950 . S
H701 C706 0.949 . S
H702 C708 0.950 . S
H703 C709 0.950 . S
H704 C710 0.949 . S
C705 H700 0.950 . S
C705 C707 1.327 . S
C705 C711 1.429 . S
C706 C698 1.574 . S
C706 H701 0.949 . S
C706 C712 1.368 . S
C707 C691 1.349 . S
C707 H699 0.950 . S
C707 C705 1.327 . S
C708 C696 1.349 . S
C708 H702 0.950 . S
C708 C709 1.327 . S
C709 H703 0.950 . S
C709 C708 1.327 . S
C709 C713 1.429 . S
C710 C693 1.574 . S
C710 H704 0.949 . S
C710 C714 1.368 . S
C711 C692 1.429 . S
C711 C705 1.429 . S
C711 C712 1.523 . S
C712 C693 1.368 . S
C712 C706 1.368 . S
C712 C711 1.523 . S
C713 C697 1.429 . S
C713 C709 1.429 . S
C713 C714 1.523 . S
C714 C698 1.368 . S
C714 C710 1.368 . S
C714 C713 1.523 . S
H715 C690 0.950 . S
H716 C692 0.950 . S
H717 C693 0.949 . S
H718 C695 0.950 . S
H719 C697 0.950 . S
C720 C721 1.349 . S
C720 C722 1.327 . S
C720 H745 0.950 . S
C721 C720 1.349 . S
C721 C737 1.349 . S
C722 C720 1.327 . S
C722 C741 1.429 . S
C722 H746 0.950 . S
C723 C740 1.574 . S
C723 C742 1.368 . S
C723 H747 0.949 . S
H724 C728 0.949 . S
C725 C726 1.349 . S
C725 C727 1.327 . S
C725 H748 0.950 . S
C726 C725 1.349 . S
C726 C738 1.349 . S
C727 C725 1.327 . S
C727 C743 1.429 . S
C727 H749 0.950 . S
C728 H724 0.949 . S
C728 C736 1.574 . S
C728 C744 1.368 . S
H729 C737 0.950 . S
H730 C735 0.950 . S
H731 C736 0.949 . S
H732 C738 0.950 . S
H733 C739 0.950 . S
H734 C740 0.949 . S
C735 H730 0.950 . S
C735 C737 1.327 . S
C735 C741 1.429 . S
C736 C728 1.574 . S
C736 H731 0.949 . S
C736 C742 1.368 . S
C737 C721 1.349 . S
C737 H729 0.950 . S
C737 C735 1.327 . S
C738 C726 1.349 . S
C738 H732 0.950 . S
C738 C739 1.327 . S
C739 H733 0.950 . S
C739 C738 1.327 . S
C739 C743 1.429 . S
C740 C723 1.574 . S
C740 H734 0.949 . S
C740 C744 1.368 . S
C741 C722 1.429 . S
C741 C735 1.429 . S
C741 C742 1.523 . S
C742 C723 1.368 . S
C742 C736 1.368 . S
C742 C741 1.523 . S
C743 C727 1.429 . S
C743 C739 1.429 . S
C743 C744 1.523 . S
C744 C728 1.368 . S
C744 C740 1.368 . S
C744 C743 1.523 . S
H745 C720 0.950 . S
H746 C722 0.950 . S
H747 C723 0.949 . S
H748 C725 0.950 . S
H749 C727 0.950 . S
C750 C751 1.349 . S
C750 C752 1.327 . S
C750 H775 0.950 . S
C751 C750 1.349 . S
C751 C767 1.349 . S
C752 C750 1.327 . S
C752 C771 1.429 . S
C752 H776 0.950 . S
C753 C770 1.574 . S
C753 C772 1.368 . S
C753 H777 0.949 . S
H754 C758 0.949 . S
C755 C756 1.349 . S
C755 C757 1.327 . S
C755 H778 0.950 . S
C756 C755 1.349 . S
C756 C768 1.349 . S
C757 C755 1.327 . S
C757 C773 1.429 . S
C757 H779 0.950 . S
C758 H754 0.949 . S
C758 C766 1.574 . S
C758 C774 1.368 . S
H759 C767 0.950 . S
H760 C765 0.950 . S
H761 C766 0.949 . S
H762 C768 0.950 . S
H763 C769 0.950 . S
H764 C770 0.949 . S
C765 H760 0.950 . S
C765 C767 1.327 . S
C765 C771 1.429 . S
C766 C758 1.574 . S
C766 H761 0.949 . S
C766 C772 1.368 . S
C767 C751 1.349 . S
C767 H759 0.950 . S
C767 C765 1.327 . S
C768 C756 1.349 . S
C768 H762 0.950 . S
C768 C769 1.327 . S
C769 H763 0.950 . S
C769 C768 1.327 . S
C769 C773 1.429 . S
C770 C753 1.574 . S
C770 H764 0.949 . S
C770 C774 1.368 . S
C771 C752 1.429 . S
C771 C765 1.429 . S
C771 C772 1.523 . S
C772 C753 1.368 . S
C772 C766 1.368 . S
C772 C771 1.523 . S
C773 C757 1.429 . S
C773 C769 1.429 . S
C773 C774 1.523 . S
C774 C758 1.368 . S
C774 C770 1.368 . S
C774 C773 1.523 . S
H775 C750 0.950 . S
H776 C752 0.950 . S
H777 C753 0.949 . S
H778 C755 0.950 . S
H779 C757 0.950 . S
C780 C781 1.349 1_655 S
C780 C782 1.327 . S
C780 H805 0.950 . S
C781 C780 1.349 1_455 S
C781 C797 1.349 . S
C782 C780 1.327 . S
C782 C801 1.429 . S
C782 H806 0.950 . S
C783 C800 1.574 . S
C783 C802 1.368 . S
C783 H807 0.949 1_655 S
H784 C788 0.949 . S
C785 C786 1.349 . S
C785 C787 1.327 . S
C785 H808 0.950 . S
C786 C785 1.349 . S
C786 C798 1.349 . S
C787 C785 1.327 . S
C787 C803 1.429 . S
C787 H809 0.950 . S
C788 H784 0.949 . S
C788 C796 1.574 . S
C788 C804 1.368 . S
H789 C797 0.950 . S
H790 C795 0.950 . S
H791 C796 0.949 . S
H792 C798 0.950 . S
H793 C799 0.950 . S
H794 C800 0.949 . S
C795 H790 0.950 . S
C795 C797 1.327 . S
C795 C801 1.429 1_455 S
C796 C788 1.574 . S
C796 H791 0.949 . S
C796 C802 1.368 . S
C797 C781 1.349 . S
C797 H789 0.950 . S
C797 C795 1.327 . S
C798 C786 1.349 . S
C798 H792 0.950 . S
C798 C799 1.327 . S
C799 H793 0.950 . S
C799 C798 1.327 . S
C799 C803 1.429 . S
C800 C783 1.574 . S
C800 H794 0.949 . S
C800 C804 1.368 . S
C801 C782 1.429 . S
C801 C795 1.429 1_655 S
C801 C802 1.523 . S
C802 C783 1.368 . S
C802 C796 1.368 . S
C802 C801 1.523 . S
C803 C787 1.429 . S
C803 C799 1.429 . S
C803 C804 1.523 . S
C804 C788 1.368 . S
C804 C800 1.368 . S
C804 C803 1.523 . S
H805 C780 0.950 . S
H806 C782 0.950 . S
H807 C783 0.949 1_455 S
H808 C785 0.950 . S
H809 C787 0.950 . S
C810 C811 1.349 . S
C810 C812 1.327 . S
C810 H835 0.950 . S
C811 C810 1.349 . S
C811 C827 1.349 . S
C812 C810 1.327 . S
C812 C831 1.429 . S
C812 H836 0.950 . S
C813 C830 1.574 . S
C813 C832 1.368 . S
C813 H837 0.949 . S
H814 C818 0.949 . S
C815 C816 1.349 . S
C815 C817 1.327 . S
C815 H838 0.950 . S
C816 C815 1.349 . S
C816 C828 1.349 . S
C817 C815 1.327 . S
C817 C833 1.429 . S
C817 H839 0.950 . S
C818 H814 0.949 . S
C818 C826 1.574 . S
C818 C834 1.368 . S
H819 C827 0.950 . S
H820 C825 0.950 . S
H821 C826 0.949 . S
H822 C828 0.950 . S
H823 C829 0.950 . S
H824 C830 0.949 . S
C825 H820 0.950 . S
C825 C827 1.327 . S
C825 C831 1.429 . S
C826 C818 1.574 . S
C826 H821 0.949 . S
C826 C832 1.368 . S
C827 C811 1.349 . S
C827 H819 0.950 . S
C827 C825 1.327 . S
C828 C816 1.349 . S
C828 H822 0.950 . S
C828 C829 1.327 . S
C829 H823 0.950 . S
C829 C828 1.327 . S
C829 C833 1.429 . S
C830 C813 1.574 . S
C830 H824 0.949 . S
C830 C834 1.368 . S
C831 C812 1.429 . S
C831 C825 1.429 . S
C831 C832 1.523 . S
C832 C813 1.368 . S
C832 C826 1.368 . S
C832 C831 1.523 . S
C833 C817 1.429 . S
C833 C829 1.429 . S
C833 C834 1.523 . S
C834 C818 1.368 . S
C834 C830 1.368 . S
C834 C833 1.523 . S
H835 C810 0.950 . S
H836 C812 0.950 . S
H837 C813 0.949 . S
H838 C815 0.950 . S
H839 C817 0.950 . S
C840 C841 1.349 . S
C840 C842 1.327 . S
C840 H865 0.950 . S
C841 C840 1.349 . S
C841 C857 1.349 . S
C842 C840 1.327 . S
C842 C861 1.429 . S
C842 H866 0.950 . S
C843 C860 1.574 . S
C843 C862 1.368 . S
C843 H867 0.949 . S
H844 C848 0.949 . S
C845 C846 1.349 . S
C845 C847 1.327 . S
C845 H868 0.950 . S
C846 C845 1.349 . S
C846 C858 1.349 . S
C847 C845 1.327 . S
C847 C863 1.429 . S
C847 H869 0.950 . S
C848 H844 0.949 . S
C848 C856 1.574 . S
C848 C864 1.368 . S
H849 C857 0.950 . S
H850 C855 0.950 . S
H851 C856 0.949 . S
H852 C858 0.950 . S
H853 C859 0.950 . S
H854 C860 0.949 . S
C855 H850 0.950 . S
C855 C857 1.327 . S
C855 C861 1.429 . S
C856 C848 1.574 . S
C856 H851 0.949 . S
C856 C862 1.368 . S
C857 C841 1.349 . S
C857 H849 0.950 . S
C857 C855 1.327 . S
C858 C846 1.349 . S
C858 H852 0.950 . S
C858 C859 1.327 . S
C859 H853 0.950 . S
C859 C858 1.327 . S
C859 C863 1.429 . S
C860 C843 1.574 . S
C860 H854 0.949 . S
C860 C864 1.368 . S
C861 C842 1.429 . S
C861 C855 1.429 . S
C861 C862 1.523 . S
C862 C843 1.368 . S
C862 C856 1.368 . S
C862 C861 1.523 . S
C863 C847 1.429 . S
C863 C859 1.429 . S
C863 C864 1.523 . S
C864 C848 1.368 . S
C864 C860 1.368 . S
C864 C863 1.523 . S
H865 C840 0.950 . S
H866 C842 0.950 . S
H867 C843 0.949 . S
H868 C845 0.950 . S
H869 C847 0.950 . S
C870 C871 1.349 . S
C870 C872 1.327 . S
C870 H895 0.950 . S
C871 C870 1.349 . S
C871 C887 1.349 . S
C872 C870 1.327 . S
C872 C891 1.429 . S
C872 H896 0.950 . S
C873 C890 1.574 . S
C873 C892 1.368 . S
C873 H897 0.949 . S
H874 C878 0.949 . S
C875 C876 1.349 . S
C875 C877 1.327 . S
C875 H898 0.950 . S
C876 C875 1.349 . S
C876 C888 1.349 . S
C877 C875 1.327 . S
C877 C893 1.429 . S
C877 H899 0.950 . S
C878 H874 0.949 . S
C878 C886 1.574 . S
C878 C894 1.368 . S
H879 C887 0.950 . S
H880 C885 0.950 . S
H881 C886 0.949 . S
H882 C888 0.950 . S
H883 C889 0.950 . S
H884 C890 0.949 . S
C885 H880 0.950 . S
C885 C887 1.327 . S
C885 C891 1.429 . S
C886 C878 1.574 . S
C886 H881 0.949 . S
C886 C892 1.368 . S
C887 C871 1.349 . S
C887 H879 0.950 . S
C887 C885 1.327 . S
C888 C876 1.349 . S
C888 H882 0.950 . S
C888 C889 1.327 . S
C889 H883 0.950 . S
C889 C888 1.327 . S
C889 C893 1.429 . S
C890 C873 1.574 . S
C890 H884 0.949 . S
C890 C894 1.368 . S
C891 C872 1.429 . S
C891 C885 1.429 . S
C891 C892 1.523 . S
C892 C873 1.368 . S
C892 C886 1.368 . S
C892 C891 1.523 . S
C893 C877 1.429 . S
C893 C889 1.429 . S
C893 C894 1.523 . S
C894 C878 1.368 . S
C894 C890 1.368 . S
C894 C893 1.523 . S
H895 C870 0.950 . S
H896 C872 0.950 . S
H897 C873 0.949 . S
H898 C875 0.950 . S
H899 C877 0.950 . S
C900 C901 1.349 . S
C900 C902 1.327 . S
C900 H925 0.950 . S
C901 C900 1.349 . S
C901 C917 1.349 . S
C902 C900 1.327 . S
C902 C921 1.429 . S
C902 H926 0.950 . S
C903 C920 1.574 . S
C903 C922 1.368 . S
C903 H927 0.949 . S
H904 C908 0.949 . S
C905 C906 1.349 . S
C905 C907 1.327 . S
C905 H928 0.950 . S
C906 C905 1.349 . S
C906 C918 1.349 . S
C907 C905 1.327 . S
C907 C923 1.429 . S
C907 H929 0.950 . S
C908 H904 0.949 . S
C908 C916 1.574 . S
C908 C924 1.368 . S
H909 C917 0.950 . S
H910 C915 0.950 . S
H911 C916 0.949 . S
H912 C918 0.950 . S
H913 C919 0.950 . S
H914 C920 0.949 . S
C915 H910 0.950 . S
C915 C917 1.327 . S
C915 C921 1.429 . S
C916 C908 1.574 . S
C916 H911 0.949 . S
C916 C922 1.368 . S
C917 C901 1.349 . S
C917 H909 0.950 . S
C917 C915 1.327 . S
C918 C906 1.349 . S
C918 H912 0.950 . S
C918 C919 1.327 . S
C919 H913 0.950 . S
C919 C918 1.327 . S
C919 C923 1.429 . S
C920 C903 1.574 . S
C920 H914 0.949 . S
C920 C924 1.368 . S
C921 C902 1.429 . S
C921 C915 1.429 . S
C921 C922 1.523 . S
C922 C903 1.368 . S
C922 C916 1.368 . S
C922 C921 1.523 . S
C923 C907 1.429 . S
C923 C919 1.429 . S
C923 C924 1.523 . S
C924 C908 1.368 . S
C924 C920 1.368 . S
C924 C923 1.523 . S
H925 C900 0.950 . S
H926 C902 0.950 . S
H927 C903 0.949 . S
H928 C905 0.950 . S
H929 C907 0.950 . S
C930 C931 1.349 . S
C930 C932 1.327 . S
C930 H955 0.950 . S
C931 C930 1.349 . S
C931 C947 1.349 . S
C932 C930 1.327 . S
C932 C951 1.429 . S
C932 H956 0.950 . S
C933 C950 1.574 1_554 S
C933 C952 1.368 . S
C933 H957 0.949 . S
H934 C938 0.949 . S
C935 C936 1.349 . S
C935 C937 1.327 . S
C935 H958 0.950 . S
C936 C935 1.349 . S
C936 C948 1.349 . S
C937 C935 1.327 . S
C937 C953 1.429 . S
C937 H959 0.950 . S
C938 H934 0.949 . S
C938 C946 1.574 1_556 S
C938 C954 1.368 . S
H939 C947 0.950 . S
H940 C945 0.950 . S
H941 C946 0.949 . S
H942 C948 0.950 1_565 S
H943 C949 0.950 . S
H944 C950 0.949 . S
C945 H940 0.950 . S
C945 C947 1.327 . S
C945 C951 1.429 . S
C946 C938 1.574 1_554 S
C946 H941 0.949 . S
C946 C952 1.368 . S
C947 C931 1.349 . S
C947 H939 0.950 . S
C947 C945 1.327 . S
C948 C936 1.349 . S
C948 H942 0.950 1_545 S
C948 C949 1.327 . S
C949 H943 0.950 . S
C949 C948 1.327 . S
C949 C953 1.429 . S
C950 C933 1.574 1_556 S
C950 H944 0.949 . S
C950 C954 1.368 . S
C951 C932 1.429 . S
C951 C945 1.429 . S
C951 C952 1.523 . S
C952 C933 1.368 . S
C952 C946 1.368 . S
C952 C951 1.523 . S
C953 C937 1.429 . S
C953 C949 1.429 . S
C953 C954 1.523 . S
C954 C938 1.368 . S
C954 C950 1.368 . S
C954 C953 1.523 . S
H955 C930 0.950 . S
H956 C932 0.950 . S
H957 C933 0.949 . S
H958 C935 0.950 . S
H959 C937 0.950 . S
C960 C961 1.349 . S
C960 C962 1.327 . S
C960 H985 0.950 . S
C961 C960 1.349 . S
C961 C977 1.349 . S
C962 C960 1.327 . S
C962 C981 1.429 . S
C962 H986 0.950 . S
C963 C980 1.574 . S
C963 C982 1.368 . S
C963 H987 0.949 . S
H964 C968 0.949 . S
C965 C966 1.349 . S
C965 C967 1.327 . S
C965 H988 0.950 . S
C966 C965 1.349 . S
C966 C978 1.349 . S
C967 C965 1.327 . S
C967 C983 1.429 . S
C967 H989 0.950 . S
C968 H964 0.949 . S
C968 C976 1.574 . S
C968 C984 1.368 . S
H969 C977 0.950 . S
H970 C975 0.950 . S
H971 C976 0.949 . S
H972 C978 0.950 . S
H973 C979 0.950 . S
H974 C980 0.949 . S
C975 H970 0.950 . S
C975 C977 1.327 . S
C975 C981 1.429 . S
C976 C968 1.574 . S
C976 H971 0.949 . S
C976 C982 1.368 . S
C977 C961 1.349 . S
C977 H969 0.950 . S
C977 C975 1.327 . S
C978 C966 1.349 . S
C978 H972 0.950 . S
C978 C979 1.327 . S
C979 H973 0.950 . S
C979 C978 1.327 . S
C979 C983 1.429 . S
C980 C963 1.574 . S
C980 H974 0.949 . S
C980 C984 1.368 . S
C981 C962 1.429 . S
C981 C975 1.429 . S
C981 C982 1.523 . S
C982 C963 1.368 . S
C982 C976 1.368 . S
C982 C981 1.523 . S
C983 C967 1.429 . S
C983 C979 1.429 . S
C983 C984 1.523 . S
C984 C968 1.368 . S
C984 C980 1.368 . S
C984 C983 1.523 . S
H985 C960 0.950 . S
H986 C962 0.950 . S
H987 C963 0.949 . S
H988 C965 0.950 . S
H989 C967 0.950 . S
C990 C991 1.349 . S
C990 C992 1.327 . S
C990 H1015 0.950 . S
C991 C990 1.349 . S
C991 C1007 1.349 . S
C992 C990 1.327 . S
C992 C1011 1.429 . S
C992 H1016 0.919 1_554 S
C993 C1010 1.574 . S
C993 C1012 1.368 . S
C993 H1017 0.949 . S
H994 C998 0.949 . S
C995 C996 1.349 . S
C995 C997 1.327 . S
C995 H1018 0.950 . S
C996 C995 1.349 . S
C996 C1008 1.349 . S
C997 C995 1.327 . S
C997 C1013 1.429 . S
C997 H1019 0.950 . S
C998 H994 0.949 . S
C998 C1006 1.574 . S
C998 C1014 1.368 . S
H999 C1007 0.950 . S
H1000 C1005 0.950 . S
H1001 C1006 0.949 . S
H1002 C1008 0.950 . S
H1003 C1009 0.950 . S
H1004 C1010 0.949 . S
C1005 H1000 0.950 . S
C1005 C1007 1.327 . S
C1005 C1011 1.429 . S
C1006 C998 1.574 . S
C1006 H1001 0.949 . S
C1006 C1012 1.368 . S
C1007 C991 1.349 . S
C1007 H999 0.950 . S
C1007 C1005 1.327 . S
C1008 C996 1.349 . S
C1008 H1002 0.950 . S
C1008 C1009 1.327 . S
C1009 H1003 0.950 . S
C1009 C1008 1.327 . S
C1009 C1013 1.429 . S
C1010 C993 1.574 . S
C1010 H1004 0.949 . S
C1010 C1014 1.368 . S
C1011 C992 1.429 . S
C1011 C1005 1.429 . S
C1011 C1012 1.523 1_554 S
C1012 C993 1.368 . S
C1012 C1006 1.368 . S
C1012 C1011 1.523 1_556 S
C1013 C997 1.429 . S
C1013 C1009 1.429 . S
C1013 C1014 1.523 . S
C1014 C998 1.368 . S
C1014 C1010 1.368 . S
C1014 C1013 1.523 . S
H1015 C990 0.950 . S
H1016 C992 0.919 1_556 S
H1017 C993 0.949 . S
H1018 C995 0.950 . S
H1019 C997 0.950 . S
C1020 C1021 1.349 . S
C1020 C1022 1.327 . S
C1020 H1045 0.950 . S
C1021 C1020 1.349 . S
C1021 C1037 1.349 . S
C1022 C1020 1.327 . S
C1022 C1041 1.429 . S
C1022 H1046 0.950 . S
C1023 C1040 1.574 . S
C1023 C1042 1.368 . S
C1023 H1047 0.949 . S
H1024 C1028 0.949 . S
C1025 C1026 1.349 . S
C1025 C1027 1.327 . S
C1025 H1048 0.950 . S
C1026 C1025 1.349 . S
C1026 C1038 1.349 . S
C1027 C1025 1.327 . S
C1027 C1043 1.429 . S
C1027 H1049 0.950 . S
C1028 H1024 0.949 . S
C1028 C1036 1.574 . S
C1028 C1044 1.368 . S
H1029 C1037 0.950 . S
H1030 C1035 0.950 . S
H1031 C1036 0.949 . S
H1032 C1038 0.950 . S
H1033 C1039 0.950 . S
H1034 C1040 0.949 . S
C1035 H1030 0.950 . S
C1035 C1037 1.327 . S
C1035 C1041 1.429 . S
C1036 C1028 1.574 . S
C1036 H1031 0.949 . S
C1036 C1042 1.368 . S
C1037 C1021 1.349 . S
C1037 H1029 0.950 . S
C1037 C1035 1.327 . S
C1038 C1026 1.349 . S
C1038 H1032 0.950 . S
C1038 C1039 1.327 . S
C1039 H1033 0.950 . S
C1039 C1038 1.327 . S
C1039 C1043 1.429 . S
C1040 C1023 1.574 . S
C1040 H1034 0.949 . S
C1040 C1044 1.368 . S
C1041 C1022 1.429 . S
C1041 C1035 1.429 . S
C1041 C1042 1.523 . S
C1042 C1023 1.368 . S
C1042 C1036 1.368 . S
C1042 C1041 1.523 . S
C1043 C1027 1.429 . S
C1043 C1039 1.429 . S
C1043 C1044 1.523 . S
C1044 C1028 1.368 . S
C1044 C1040 1.368 . S
C1044 C1043 1.523 . S
H1045 C1020 0.950 . S
H1046 C1022 0.950 . S
H1047 C1023 0.949 . S
H1048 C1025 0.950 . S
H1049 C1027 0.950 . S
C1050 C1051 1.349 . S
C1050 C1052 1.327 . S
C1050 H1075 0.950 . S
C1051 C1050 1.349 . S
C1051 C1067 1.349 . S
C1052 C1050 1.327 . S
C1052 C1071 1.429 . S
C1052 H1076 0.950 . S
C1053 C1070 1.574 . S
C1053 C1072 1.368 . S
C1053 H1077 0.949 . S
H1054 C1058 0.949 . S
C1055 C1056 1.349 . S
C1055 C1057 1.327 . S
C1055 H1078 0.950 . S
C1056 C1055 1.349 . S
C1056 C1068 1.349 . S
C1057 C1055 1.327 . S
C1057 C1073 1.429 . S
C1057 H1079 0.950 . S
C1058 H1054 0.949 . S
C1058 C1066 1.574 . S
C1058 C1074 1.368 . S
H1059 C1067 0.950 . S
H1060 C1065 0.950 . S
H1061 C1066 0.949 . S
H1062 C1068 0.950 . S
H1063 C1069 0.950 . S
H1064 C1070 0.949 . S
C1065 H1060 0.950 . S
C1065 C1067 1.327 . S
C1065 C1071 1.429 . S
C1066 C1058 1.574 . S
C1066 H1061 0.949 . S
C1066 C1072 1.368 . S
C1067 C1051 1.349 . S
C1067 H1059 0.950 . S
C1067 C1065 1.327 . S
C1068 C1056 1.349 . S
C1068 H1062 0.950 . S
C1068 C1069 1.327 . S
C1069 H1063 0.950 . S
C1069 C1068 1.327 . S
C1069 C1073 1.429 . S
C1070 C1053 1.574 . S
C1070 H1064 0.949 . S
C1070 C1074 1.368 . S
C1071 C1052 1.429 . S
C1071 C1065 1.429 . S
C1071 C1072 1.523 . S
C1072 C1053 1.368 . S
C1072 C1066 1.368 . S
C1072 C1071 1.523 . S
C1073 C1057 1.429 . S
C1073 C1069 1.429 . S
C1073 C1074 1.523 . S
C1074 C1058 1.368 . S
C1074 C1070 1.368 . S
C1074 C1073 1.523 . S
H1075 C1050 0.950 . S
H1076 C1052 0.950 . S
H1077 C1053 0.949 . S
H1078 C1055 0.950 . S
H1079 C1057 0.950 . S
C1080 C1081 1.349 . S
C1080 C1082 1.327 . S
C1080 H1105 0.950 . S
C1081 C1080 1.349 . S
C1081 C1097 1.349 . S
C1082 C1080 1.327 . S
C1082 C1101 1.429 . S
C1082 H1106 0.950 . S
C1083 C1100 1.574 . S
C1083 C1102 1.368 . S
C1083 H1107 0.949 . S
H1084 C1088 0.949 . S
C1085 C1086 1.349 . S
C1085 C1087 1.327 . S
C1085 H1108 0.950 . S
C1086 C1085 1.349 . S
C1086 C1098 1.349 . S
C1087 C1085 1.327 . S
C1087 C1103 1.429 . S
C1087 H1109 0.950 . S
C1088 H1084 0.949 . S
C1088 C1096 1.574 . S
C1088 C1104 1.368 . S
H1089 C1097 0.950 . S
H1090 C1095 0.950 . S
H1091 C1096 0.949 . S
H1092 C1098 0.950 . S
H1093 C1099 0.950 . S
H1094 C1100 0.949 . S
C1095 H1090 0.950 . S
C1095 C1097 1.327 . S
C1095 C1101 1.429 . S
C1096 C1088 1.574 . S
C1096 H1091 0.949 . S
C1096 C1102 1.368 . S
C1097 C1081 1.349 . S
C1097 H1089 0.950 . S
C1097 C1095 1.327 . S
C1098 C1086 1.349 . S
C1098 H1092 0.950 . S
C1098 C1099 1.327 . S
C1099 H1093 0.950 . S
C1099 C1098 1.327 . S
C1099 C1103 1.429 . S
C1100 C1083 1.574 . S
C1100 H1094 0.949 . S
C1100 C1104 1.368 . S
C1101 C1082 1.429 . S
C1101 C1095 1.429 . S
C1101 C1102 1.523 . S
C1102 C1083 1.368 . S
C1102 C1096 1.368 . S
C1102 C1101 1.523 . S
C1103 C1087 1.429 . S
C1103 C1099 1.429 . S
C1103 C1104 1.523 . S
C1104 C1088 1.368 . S
C1104 C1100 1.368 . S
C1104 C1103 1.523 . S
H1105 C1080 0.950 . S
H1106 C1082 0.950 . S
H1107 C1083 0.949 . S
H1108 C1085 0.950 . S
H1109 C1087 0.950 . S
C1110 C1111 1.349 . S
C1110 C1112 1.327 . S
C1110 H1135 0.950 . S
C1111 C1110 1.349 . S
C1111 C1127 1.349 . S
C1112 C1110 1.327 . S
C1112 C1131 1.429 . S
C1112 H1136 0.950 . S
C1113 C1130 1.574 . S
C1113 C1132 1.368 . S
C1113 H1137 0.949 . S
H1114 C1118 0.949 . S
C1115 C1116 1.349 . S
C1115 C1117 1.327 . S
C1115 H1138 0.950 . S
C1116 C1115 1.349 . S
C1116 C1128 1.349 . S
C1117 C1115 1.327 . S
C1117 C1133 1.429 . S
C1117 H1139 0.950 . S
C1118 H1114 0.949 . S
C1118 C1126 1.574 . S
C1118 C1134 1.368 . S
H1119 C1127 0.950 . S
H1120 C1125 0.950 . S
H1121 C1126 0.949 . S
H1122 C1128 0.950 . S
H1123 C1129 0.950 . S
H1124 C1130 0.949 1_565 S
C1125 H1120 0.950 . S
C1125 C1127 1.327 . S
C1125 C1131 1.429 . S
C1126 C1118 1.574 . S
C1126 H1121 0.949 . S
C1126 C1132 1.368 . S
C1127 C1111 1.349 . S
C1127 H1119 0.950 . S
C1127 C1125 1.327 . S
C1128 C1116 1.349 . S
C1128 H1122 0.950 . S
C1128 C1129 1.327 . S
C1129 H1123 0.950 . S
C1129 C1128 1.327 . S
C1129 C1133 1.429 . S
C1130 C1113 1.574 . S
C1130 H1124 0.949 1_545 S
C1130 C1134 1.368 . S
C1131 C1112 1.429 . S
C1131 C1125 1.429 . S
C1131 C1132 1.523 . S
C1132 C1113 1.368 . S
C1132 C1126 1.368 . S
C1132 C1131 1.523 . S
C1133 C1117 1.429 . S
C1133 C1129 1.429 . S
C1133 C1134 1.523 1_565 S
C1134 C1118 1.368 . S
C1134 C1130 1.368 . S
C1134 C1133 1.523 1_545 S
H1135 C1110 0.950 . S
H1136 C1112 0.950 . S
H1137 C1113 0.949 . S
H1138 C1115 0.950 . S
H1139 C1117 0.950 . S
C1140 C1141 1.349 . S
C1140 C1142 1.327 . S
C1140 H1165 0.950 . S
C1141 C1140 1.349 . S
C1141 C1157 1.349 . S
C1142 C1140 1.327 . S
C1142 C1161 1.429 . S
C1142 H1166 0.950 . S
C1143 C1160 1.574 . S
C1143 C1162 1.368 . S
C1143 H1167 0.949 . S
H1144 C1148 0.949 . S
C1145 C1146 1.349 . S
C1145 C1147 1.327 . S
C1145 H1168 0.950 . S
C1146 C1145 1.349 . S
C1146 C1158 1.349 . S
C1147 C1145 1.327 . S
C1147 C1163 1.429 . S
C1147 H1169 0.950 . S
C1148 H1144 0.949 . S
C1148 C1156 1.574 . S
C1148 C1164 1.368 . S
H1149 C1157 0.950 . S
H1150 C1155 0.950 . S
H1151 C1156 0.949 . S
H1152 C1158 0.950 . S
H1153 C1159 0.950 . S
H1154 C1160 0.949 . S
C1155 H1150 0.950 . S
C1155 C1157 1.327 . S
C1155 C1161 1.429 . S
C1156 C1148 1.574 . S
C1156 H1151 0.949 . S
C1156 C1162 1.368 . S
C1157 C1141 1.349 . S
C1157 H1149 0.950 . S
C1157 C1155 1.327 . S
C1158 C1146 1.349 . S
C1158 H1152 0.950 . S
C1158 C1159 1.327 . S
C1159 H1153 0.950 . S
C1159 C1158 1.327 . S
C1159 C1163 1.429 . S
C1160 C1143 1.574 . S
C1160 H1154 0.949 . S
C1160 C1164 1.368 . S
C1161 C1142 1.429 . S
C1161 C1155 1.429 . S
C1161 C1162 1.523 . S
C1162 C1143 1.368 . S
C1162 C1156 1.368 . S
C1162 C1161 1.523 . S
C1163 C1147 1.429 . S
C1163 C1159 1.429 . S
C1163 C1164 1.523 . S
C1164 C1148 1.368 . S
C1164 C1160 1.368 . S
C1164 C1163 1.523 . S
H1165 C1140 0.950 . S
H1166 C1142 0.950 . S
H1167 C1143 0.949 . S
H1168 C1145 0.950 . S
H1169 C1147 0.950 . S
C1170 C1171 1.349 . S
C1170 C1172 1.327 . S
C1170 H1195 0.950 . S
C1171 C1170 1.349 . S
C1171 C1187 1.349 . S
C1172 C1170 1.327 . S
C1172 C1191 1.429 . S
C1172 H1196 0.950 . S
C1173 C1190 1.574 . S
C1173 C1192 1.368 1_565 S
C1173 H1197 0.949 1_565 S
H1174 C1178 0.949 . S
C1175 C1176 1.349 . S
C1175 C1177 1.327 . S
C1175 H1198 0.950 . S
C1176 C1175 1.349 . S
C1176 C1188 1.349 . S
C1177 C1175 1.327 . S
C1177 C1193 1.429 . S
C1177 H1199 0.950 . S
C1178 H1174 0.949 . S
C1178 C1186 1.541 1_565 S
C1178 C1194 1.368 . S
H1179 C1187 0.950 . S
H1180 C1185 0.950 . S
H1181 C1186 0.970 . S
H1182 C1188 0.950 . S
H1183 C1189 0.950 . S
H1184 C1190 0.949 . S
C1185 H1180 0.950 . S
C1185 C1187 1.327 . S
C1185 C1191 1.429 . S
C1186 C1178 1.541 1_545 S
C1186 H1181 0.970 . S
C1186 C1192 1.379 . S
C1187 C1171 1.349 . S
C1187 H1179 0.950 . S
C1187 C1185 1.327 . S
C1188 C1176 1.349 . S
C1188 H1182 0.950 . S
C1188 C1189 1.327 . S
C1189 H1183 0.950 . S
C1189 C1188 1.327 . S
C1189 C1193 1.429 . S
C1190 C1173 1.574 . S
C1190 H1184 0.949 . S
C1190 C1194 1.368 . S
C1191 C1172 1.429 . S
C1191 C1185 1.429 . S
C1191 C1192 1.523 . S
C1192 C1173 1.368 1_545 S
C1192 C1186 1.379 . S
C1192 C1191 1.523 . S
C1193 C1177 1.429 . S
C1193 C1189 1.429 . S
C1193 C1194 1.523 . S
C1194 C1178 1.368 . S
C1194 C1190 1.368 . S
C1194 C1193 1.523 . S
H1195 C1170 0.950 . S
H1196 C1172 0.950 . S
H1197 C1173 0.949 1_545 S
H1198 C1175 0.950 . S
H1199 C1177 0.950 . S
C1200 C1201 1.349 . S
C1200 C1202 1.327 . S
C1200 H1225 0.950 . S
C1201 C1200 1.349 . S
C1201 C1217 1.349 . S
C1202 C1200 1.327 . S
C1202 C1221 1.429 . S
C1202 H1226 0.950 . S
C1203 C1220 1.574 . S
C1203 C1222 1.368 . S
C1203 H1227 0.949 . S
H1204 C1208 0.949 . S
C1205 C1206 1.349 . S
C1205 C1207 1.327 . S
C1205 H1228 0.950 . S
C1206 C1205 1.349 . S
C1206 C1218 1.349 . S
C1207 C1205 1.327 . S
C1207 C1223 1.429 . S
C1207 H1229 0.950 . S
C1208 H1204 0.949 . S
C1208 C1216 1.574 . S
C1208 C1224 1.368 . S
H1209 C1217 0.950 . S
H1210 C1215 0.950 . S
H1211 C1216 0.949 . S
H1212 C1218 0.950 . S
H1213 C1219 0.950 . S
H1214 C1220 0.949 . S
C1215 H1210 0.950 . S
C1215 C1217 1.327 . S
C1215 C1221 1.429 . S
C1216 C1208 1.574 . S
C1216 H1211 0.949 . S
C1216 C1222 1.368 . S
C1217 C1201 1.349 . S
C1217 H1209 0.950 . S
C1217 C1215 1.327 . S
C1218 C1206 1.349 . S
C1218 H1212 0.950 . S
C1218 C1219 1.327 . S
C1219 H1213 0.950 . S
C1219 C1218 1.327 . S
C1219 C1223 1.429 . S
C1220 C1203 1.574 . S
C1220 H1214 0.949 . S
C1220 C1224 1.368 . S
C1221 C1202 1.429 . S
C1221 C1215 1.429 . S
C1221 C1222 1.523 . S
C1222 C1203 1.368 . S
C1222 C1216 1.368 . S
C1222 C1221 1.523 . S
C1223 C1207 1.429 . S
C1223 C1219 1.429 . S
C1223 C1224 1.523 . S
C1224 C1208 1.368 . S
C1224 C1220 1.368 . S
C1224 C1223 1.523 . S
H1225 C1200 0.950 . S
H1226 C1202 0.950 . S
H1227 C1203 0.949 . S
H1228 C1205 0.950 . S
H1229 C1207 0.950 . S
C1230 C1231 1.349 . S
C1230 C1232 1.327 . S
C1230 H1255 0.950 . S
C1231 C1230 1.349 . S
C1231 C1247 1.349 . S
C1232 C1230 1.327 . S
C1232 C1251 1.429 . S
C1232 H1256 0.950 . S
C1233 C1250 1.574 . S
C1233 C1252 1.368 . S
C1233 H1257 0.949 . S
H1234 C1238 0.949 . S
C1235 C1236 1.349 . S
C1235 C1237 1.327 . S
C1235 H1258 0.950 . S
C1236 C1235 1.349 . S
C1236 C1248 1.349 . S
C1237 C1235 1.327 . S
C1237 C1253 1.429 . S
C1237 H1259 0.950 . S
C1238 H1234 0.949 . S
C1238 C1246 1.574 . S
C1238 C1254 1.368 . S
H1239 C1247 0.950 . S
H1240 C1245 0.950 . S
H1241 C1246 0.949 . S
H1242 C1248 0.950 . S
H1243 C1249 0.950 . S
H1244 C1250 0.949 . S
C1245 H1240 0.950 . S
C1245 C1247 1.327 . S
C1245 C1251 1.429 . S
C1246 C1238 1.574 . S
C1246 H1241 0.949 . S
C1246 C1252 1.368 . S
C1247 C1231 1.349 . S
C1247 H1239 0.950 . S
C1247 C1245 1.327 . S
C1248 C1236 1.349 . S
C1248 H1242 0.950 . S
C1248 C1249 1.327 . S
C1249 H1243 0.950 . S
C1249 C1248 1.327 . S
C1249 C1253 1.429 . S
C1250 C1233 1.574 . S
C1250 H1244 0.949 . S
C1250 C1254 1.368 . S
C1251 C1232 1.429 . S
C1251 C1245 1.429 . S
C1251 C1252 1.523 . S
C1252 C1233 1.368 . S
C1252 C1246 1.368 . S
C1252 C1251 1.523 . S
C1253 C1237 1.429 . S
C1253 C1249 1.429 . S
C1253 C1254 1.523 . S
C1254 C1238 1.368 . S
C1254 C1250 1.368 . S
C1254 C1253 1.523 . S
H1255 C1230 0.950 . S
H1256 C1232 0.950 . S
H1257 C1233 0.949 . S
H1258 C1235 0.950 . S
H1259 C1237 0.950 . S
C1260 C1261 1.349 . S
C1260 C1262 1.327 . S
C1260 H1285 0.950 . S
C1261 C1260 1.349 . S
C1261 C1277 1.349 . S
C1262 C1260 1.327 . S
C1262 C1281 1.429 . S
C1262 H1286 0.950 . S
C1263 C1280 1.574 . S
C1263 C1282 1.368 . S
C1263 H1287 0.949 . S
H1264 C1268 0.949 . S
C1265 C1266 1.349 . S
C1265 C1267 1.327 . S
C1265 H1288 0.950 . S
C1266 C1265 1.349 . S
C1266 C1278 1.349 . S
C1267 C1265 1.327 . S
C1267 C1283 1.429 . S
C1267 H1289 0.950 . S
C1268 H1264 0.949 . S
C1268 C1276 1.574 . S
C1268 C1284 1.368 . S
H1269 C1277 0.950 . S
H1270 C1275 0.950 . S
H1271 C1276 0.949 . S
H1272 C1278 0.950 . S
H1273 C1279 0.950 . S
H1274 C1280 0.949 . S
C1275 H1270 0.950 . S
C1275 C1277 1.327 . S
C1275 C1281 1.429 . S
C1276 C1268 1.574 . S
C1276 H1271 0.949 . S
C1276 C1282 1.368 . S
C1277 C1261 1.349 . S
C1277 H1269 0.950 . S
C1277 C1275 1.327 . S
C1278 C1266 1.349 . S
C1278 H1272 0.950 . S
C1278 C1279 1.327 . S
C1279 H1273 0.950 . S
C1279 C1278 1.327 . S
C1279 C1283 1.429 . S
C1280 C1263 1.574 . S
C1280 H1274 0.949 . S
C1280 C1284 1.368 . S
C1281 C1262 1.429 . S
C1281 C1275 1.429 . S
C1281 C1282 1.523 . S
C1282 C1263 1.368 . S
C1282 C1276 1.368 . S
C1282 C1281 1.523 . S
C1283 C1267 1.429 . S
C1283 C1279 1.429 . S
C1283 C1284 1.523 . S
C1284 C1268 1.368 . S
C1284 C1280 1.368 . S
C1284 C1283 1.523 . S
H1285 C1260 0.950 . S
H1286 C1262 0.950 . S
H1287 C1263 0.949 . S
H1288 C1265 0.950 . S
H1289 C1267 0.950 . S
C1290 C1291 1.349 . S
C1290 C1292 1.327 . S
C1290 H1315 0.950 . S
C1291 C1290 1.349 . S
C1291 C1307 1.349 . S
C1292 C1290 1.327 . S
C1292 C1311 1.429 . S
C1292 H1316 0.950 . S
C1293 C1310 1.574 . S
C1293 C1312 1.368 . S
C1293 H1317 0.949 . S
H1294 C1298 0.949 . S
C1295 C1296 1.349 . S
C1295 C1297 1.327 . S
C1295 H1318 0.950 . S
C1296 C1295 1.349 . S
C1296 C1308 1.349 . S
C1297 C1295 1.327 . S
C1297 C1313 1.429 . S
C1297 H1319 0.950 . S
C1298 H1294 0.949 . S
C1298 C1306 1.574 . S
C1298 C1314 1.368 . S
H1299 C1307 0.950 . S
H1300 C1305 0.950 . S
H1301 C1306 0.949 . S
H1302 C1308 0.950 . S
H1303 C1309 0.950 . S
H1304 C1310 0.949 . S
C1305 H1300 0.950 . S
C1305 C1307 1.327 . S
C1305 C1311 1.429 . S
C1306 C1298 1.574 . S
C1306 H1301 0.949 . S
C1306 C1312 1.368 . S
C1307 C1291 1.349 . S
C1307 H1299 0.950 . S
C1307 C1305 1.327 . S
C1308 C1296 1.349 . S
C1308 H1302 0.950 . S
C1308 C1309 1.327 . S
C1309 H1303 0.950 . S
C1309 C1308 1.327 . S
C1309 C1313 1.429 . S
C1310 C1293 1.574 . S
C1310 H1304 0.949 . S
C1310 C1314 1.368 . S
C1311 C1292 1.429 . S
C1311 C1305 1.429 . S
C1311 C1312 1.523 . S
C1312 C1293 1.368 . S
C1312 C1306 1.368 . S
C1312 C1311 1.523 . S
C1313 C1297 1.429 . S
C1313 C1309 1.429 . S
C1313 C1314 1.523 . S
C1314 C1298 1.368 . S
C1314 C1310 1.368 . S
C1314 C1313 1.523 . S
H1315 C1290 0.950 . S
H1316 C1292 0.950 . S
H1317 C1293 0.949 . S
H1318 C1295 0.950 . S
H1319 C1297 0.950 . S
C1320 C1321 1.349 . S
C1320 C1322 1.327 . S
C1320 H1345 0.950 . S
C1321 C1320 1.349 . S
C1321 C1337 1.349 . S
C1322 C1320 1.327 . S
C1322 C1341 1.429 . S
C1322 H1346 0.950 . S
C1323 C1340 1.574 . S
C1323 C1342 1.368 . S
C1323 H1347 0.949 . S
H1324 C1328 0.949 . S
C1325 C1326 1.349 . S
C1325 C1327 1.327 . S
C1325 H1348 0.950 . S
C1326 C1325 1.349 . S
C1326 C1338 1.349 . S
C1327 C1325 1.327 . S
C1327 C1343 1.429 . S
C1327 H1349 0.950 . S
C1328 H1324 0.949 . S
C1328 C1336 1.574 . S
C1328 C1344 1.368 . S
H1329 C1337 0.950 . S
H1330 C1335 0.950 . S
H1331 C1336 0.949 . S
H1332 C1338 0.950 . S
H1333 C1339 0.950 . S
H1334 C1340 0.949 . S
C1335 H1330 0.950 . S
C1335 C1337 1.327 . S
C1335 C1341 1.429 . S
C1336 C1328 1.574 . S
C1336 H1331 0.949 . S
C1336 C1342 1.368 . S
C1337 C1321 1.349 . S
C1337 H1329 0.950 . S
C1337 C1335 1.327 . S
C1338 C1326 1.349 . S
C1338 H1332 0.950 . S
C1338 C1339 1.327 . S
C1339 H1333 0.950 . S
C1339 C1338 1.327 . S
C1339 C1343 1.429 . S
C1340 C1323 1.574 . S
C1340 H1334 0.949 . S
C1340 C1344 1.368 . S
C1341 C1322 1.429 . S
C1341 C1335 1.429 . S
C1341 C1342 1.523 . S
C1342 C1323 1.368 . S
C1342 C1336 1.368 . S
C1342 C1341 1.523 . S
C1343 C1327 1.429 . S
C1343 C1339 1.429 . S
C1343 C1344 1.523 . S
C1344 C1328 1.368 . S
C1344 C1340 1.368 . S
C1344 C1343 1.523 . S
H1345 C1320 0.950 . S
H1346 C1322 0.950 . S
H1347 C1323 0.949 . S
H1348 C1325 0.950 . S
H1349 C1327 0.950 . S
C1350 C1351 1.349 . S
C1350 C1352 1.327 . S
C1350 H1375 0.950 . S
C1351 C1350 1.349 . S
C1351 C1367 1.349 . S
C1352 C1350 1.327 . S
C1352 C1371 1.429 . S
C1352 H1376 0.950 . S
C1353 C1370 1.574 . S
C1353 C1372 1.368 . S
C1353 H1377 0.949 . S
H1354 C1358 0.949 . S
C1355 C1356 1.349 . S
C1355 C1357 1.327 . S
C1355 H1378 0.950 . S
C1356 C1355 1.349 . S
C1356 C1368 1.349 . S
C1357 C1355 1.327 . S
C1357 C1373 1.429 . S
C1357 H1379 0.950 . S
C1358 H1354 0.949 . S
C1358 C1366 1.574 . S
C1358 C1374 1.368 . S
H1359 C1367 0.950 . S
H1360 C1365 0.950 . S
H1361 C1366 0.949 . S
H1362 C1368 0.950 . S
H1363 C1369 0.950 . S
H1364 C1370 0.949 . S
C1365 H1360 0.950 . S
C1365 C1367 1.327 . S
C1365 C1371 1.429 . S
C1366 C1358 1.574 . S
C1366 H1361 0.949 . S
C1366 C1372 1.368 . S
C1367 C1351 1.349 . S
C1367 H1359 0.950 . S
C1367 C1365 1.327 . S
C1368 C1356 1.349 . S
C1368 H1362 0.950 . S
C1368 C1369 1.327 . S
C1369 H1363 0.950 . S
C1369 C1368 1.327 . S
C1369 C1373 1.429 . S
C1370 C1353 1.574 . S
C1370 H1364 0.949 . S
C1370 C1374 1.368 . S
C1371 C1352 1.429 . S
C1371 C1365 1.429 . S
C1371 C1372 1.523 . S
C1372 C1353 1.368 . S
C1372 C1366 1.368 . S
C1372 C1371 1.523 . S
C1373 C1357 1.429 . S
C1373 C1369 1.429 . S
C1373 C1374 1.523 . S
C1374 C1358 1.368 . S
C1374 C1370 1.368 . S
C1374 C1373 1.523 . S
H1375 C1350 0.950 . S
H1376 C1352 0.950 . S
H1377 C1353 0.949 . S
H1378 C1355 0.950 . S
H1379 C1357 0.950 . S
C1380 C1381 1.349 . S
C1380 C1382 1.327 . S
C1380 H1405 0.950 . S
C1381 C1380 1.349 . S
C1381 C1397 1.349 . S
C1382 C1380 1.327 . S
C1382 C1401 1.429 . S
C1382 H1406 0.950 . S
C1383 C1400 1.544 1_455 S
C1383 C1402 1.368 . S
C1383 H1407 0.949 . S
H1384 C1388 0.949 . S
C1385 C1386 1.349 . S
C1385 C1387 1.327 . S
C1385 H1408 0.950 . S
C1386 C1385 1.349 . S
C1386 C1398 1.349 . S
C1387 C1385 1.327 . S
C1387 C1403 1.429 . S
C1387 H1409 0.950 . S
C1388 H1384 0.949 . S
C1388 C1396 1.574 . S
C1388 C1404 1.368 1_455 S
H1389 C1397 0.950 . S
H1390 C1395 0.950 . S
H1391 C1396 0.949 . S
H1392 C1398 0.950 . S
H1393 C1399 0.950 . S
H1394 C1400 0.976 . S
C1395 H1390 0.950 . S
C1395 C1397 1.327 . S
C1395 C1401 1.429 . S
C1396 C1388 1.574 . S
C1396 H1391 0.949 . S
C1396 C1402 1.368 . S
C1397 C1381 1.349 . S
C1397 H1389 0.950 . S
C1397 C1395 1.327 . S
C1398 C1386 1.349 . S
C1398 H1392 0.950 . S
C1398 C1399 1.327 . S
C1399 H1393 0.950 . S
C1399 C1398 1.327 . S
C1399 C1403 1.429 . S
C1400 C1383 1.544 1_655 S
C1400 H1394 0.976 . S
C1400 C1404 1.369 . S
C1401 C1382 1.429 . S
C1401 C1395 1.429 . S
C1401 C1402 1.523 . S
C1402 C1383 1.368 . S
C1402 C1396 1.368 . S
C1402 C1401 1.523 . S
C1403 C1387 1.429 . S
C1403 C1399 1.429 . S
C1403 C1404 1.523 . S
C1404 C1388 1.368 1_655 S
C1404 C1400 1.369 . S
C1404 C1403 1.523 . S
H1405 C1380 0.950 . S
H1406 C1382 0.950 . S
H1407 C1383 0.949 . S
H1408 C1385 0.950 . S
H1409 C1387 0.950 . S
C1410 C1411 1.349 . S
C1410 C1412 1.327 . S
C1410 H1435 0.950 . S
C1411 C1410 1.349 . S
C1411 C1427 1.349 . S
C1412 C1410 1.327 . S
C1412 C1431 1.429 . S
C1412 H1436 0.950 . S
C1413 C1430 1.574 . S
C1413 C1432 1.368 . S
C1413 H1437 0.949 . S
H1414 C1418 0.949 . S
C1415 C1416 1.349 . S
C1415 C1417 1.327 . S
C1415 H1438 0.950 . S
C1416 C1415 1.349 . S
C1416 C1428 1.349 . S
C1417 C1415 1.327 . S
C1417 C1433 1.429 . S
C1417 H1439 0.950 . S
C1418 H1414 0.949 . S
C1418 C1426 1.574 . S
C1418 C1434 1.368 . S
H1419 C1427 0.950 . S
H1420 C1425 0.950 . S
H1421 C1426 0.949 . S
H1422 C1428 0.950 . S
H1423 C1429 0.950 . S
H1424 C1430 0.949 . S
C1425 H1420 0.950 . S
C1425 C1427 1.327 . S
C1425 C1431 1.429 . S
C1426 C1418 1.574 . S
C1426 H1421 0.949 . S
C1426 C1432 1.368 . S
C1427 C1411 1.349 . S
C1427 H1419 0.950 . S
C1427 C1425 1.327 . S
C1428 C1416 1.349 . S
C1428 H1422 0.950 . S
C1428 C1429 1.327 . S
C1429 H1423 0.950 . S
C1429 C1428 1.327 . S
C1429 C1433 1.429 . S
C1430 C1413 1.574 . S
C1430 H1424 0.949 . S
C1430 C1434 1.368 . S
C1431 C1412 1.429 . S
C1431 C1425 1.429 . S
C1431 C1432 1.523 . S
C1432 C1413 1.368 . S
C1432 C1426 1.368 . S
C1432 C1431 1.523 . S
C1433 C1417 1.429 . S
C1433 C1429 1.429 . S
C1433 C1434 1.523 . S
C1434 C1418 1.368 . S
C1434 C1430 1.368 . S
C1434 C1433 1.523 . S
H1435 C1410 0.950 . S
H1436 C1412 0.950 . S
H1437 C1413 0.949 . S
H1438 C1415 0.950 . S
H1439 C1417 0.950 . S
C1440 C1441 1.349 . S
C1440 C1442 1.327 . S
C1440 H1465 0.950 . S
C1441 C1440 1.349 . S
C1441 C1457 1.349 . S
C1442 C1440 1.327 . S
C1442 C1461 1.429 . S
C1442 H1466 0.950 . S
C1443 C1460 1.574 . S
C1443 C1462 1.368 . S
C1443 H1467 0.949 . S
H1444 C1448 0.949 . S
C1445 C1446 1.349 . S
C1445 C1447 1.327 . S
C1445 H1468 0.950 . S
C1446 C1445 1.349 . S
C1446 C1458 1.349 . S
C1447 C1445 1.327 . S
C1447 C1463 1.429 . S
C1447 H1469 0.950 . S
C1448 H1444 0.949 . S
C1448 C1456 1.574 . S
C1448 C1464 1.368 . S
H1449 C1457 0.950 . S
H1450 C1455 0.950 . S
H1451 C1456 0.949 . S
H1452 C1458 0.950 . S
H1453 C1459 0.950 . S
H1454 C1460 0.949 . S
C1455 H1450 0.950 . S
C1455 C1457 1.327 . S
C1455 C1461 1.429 . S
C1456 C1448 1.574 . S
C1456 H1451 0.949 . S
C1456 C1462 1.368 . S
C1457 C1441 1.349 . S
C1457 H1449 0.950 . S
C1457 C1455 1.327 . S
C1458 C1446 1.349 . S
C1458 H1452 0.950 . S
C1458 C1459 1.327 . S
C1459 H1453 0.950 . S
C1459 C1458 1.327 . S
C1459 C1463 1.429 . S
C1460 C1443 1.574 . S
C1460 H1454 0.949 . S
C1460 C1464 1.368 . S
C1461 C1442 1.429 . S
C1461 C1455 1.429 . S
C1461 C1462 1.523 . S
C1462 C1443 1.368 . S
C1462 C1456 1.368 . S
C1462 C1461 1.523 . S
C1463 C1447 1.429 . S
C1463 C1459 1.429 . S
C1463 C1464 1.523 . S
C1464 C1448 1.368 . S
C1464 C1460 1.368 . S
C1464 C1463 1.523 . S
H1465 C1440 0.950 . S
H1466 C1442 0.950 . S
H1467 C1443 0.949 . S
H1468 C1445 0.950 . S
H1469 C1447 0.950 . S
C1470 C1471 1.349 . S
C1470 C1472 1.327 . S
C1470 H1495 0.950 . S
C1471 C1470 1.349 . S
C1471 C1487 1.349 . S
C1472 C1470 1.327 . S
C1472 C1491 1.429 . S
C1472 H1496 0.950 . S
C1473 C1490 1.574 . S
C1473 C1492 1.368 . S
C1473 H1497 0.949 . S
H1474 C1478 0.949 . S
C1475 C1476 1.349 . S
C1475 C1477 1.327 . S
C1475 H1498 0.950 . S
C1476 C1475 1.349 . S
C1476 C1488 1.349 . S
C1477 C1475 1.327 . S
C1477 C1493 1.429 . S
C1477 H1499 0.950 . S
C1478 H1474 0.949 . S
C1478 C1486 1.574 . S
C1478 C1494 1.368 . S
H1479 C1487 0.950 . S
H1480 C1485 0.950 . S
H1481 C1486 0.949 . S
H1482 C1488 0.950 . S
H1483 C1489 0.950 . S
H1484 C1490 0.949 . S
C1485 H1480 0.950 . S
C1485 C1487 1.327 . S
C1485 C1491 1.429 . S
C1486 C1478 1.574 . S
C1486 H1481 0.949 . S
C1486 C1492 1.368 . S
C1487 C1471 1.349 . S
C1487 H1479 0.950 . S
C1487 C1485 1.327 . S
C1488 C1476 1.349 . S
C1488 H1482 0.950 . S
C1488 C1489 1.327 . S
C1489 H1483 0.950 . S
C1489 C1488 1.327 . S
C1489 C1493 1.429 . S
C1490 C1473 1.574 . S
C1490 H1484 0.949 . S
C1490 C1494 1.368 . S
C1491 C1472 1.429 . S
C1491 C1485 1.429 . S
C1491 C1492 1.523 . S
C1492 C1473 1.368 . S
C1492 C1486 1.368 . S
C1492 C1491 1.523 . S
C1493 C1477 1.429 . S
C1493 C1489 1.429 . S
C1493 C1494 1.523 . S
C1494 C1478 1.368 . S
C1494 C1490 1.368 . S
C1494 C1493 1.523 . S
H1495 C1470 0.950 . S
H1496 C1472 0.950 . S
H1497 C1473 0.949 . S
H1498 C1475 0.950 . S
H1499 C1477 0.950 . S
C1500 C1501 1.349 . S
C1500 C1502 1.327 . S
C1500 H1525 0.950 . S
C1501 C1500 1.349 . S
C1501 C1517 1.349 . S
C1502 C1500 1.327 . S
C1502 C1521 1.429 . S
C1502 H1526 0.950 . S
C1503 C1520 1.574 . S
C1503 C1522 1.368 . S
C1503 H1527 0.949 . S
H1504 C1508 0.949 . S
C1505 C1506 1.349 . S
C1505 C1507 1.327 . S
C1505 H1528 0.950 . S
C1506 C1505 1.349 . S
C1506 C1518 1.349 . S
C1507 C1505 1.327 . S
C1507 C1523 1.429 . S
C1507 H1529 0.950 . S
C1508 H1504 0.949 . S
C1508 C1516 1.574 . S
C1508 C1524 1.368 . S
H1509 C1517 0.950 . S
H1510 C1515 0.950 . S
H1511 C1516 0.949 . S
H1512 C1518 0.950 . S
H1513 C1519 0.950 . S
H1514 C1520 0.949 . S
C1515 H1510 0.950 . S
C1515 C1517 1.327 . S
C1515 C1521 1.429 . S
C1516 C1508 1.574 . S
C1516 H1511 0.949 . S
C1516 C1522 1.368 . S
C1517 C1501 1.349 . S
C1517 H1509 0.950 . S
C1517 C1515 1.327 . S
C1518 C1506 1.349 . S
C1518 H1512 0.950 . S
C1518 C1519 1.327 . S
C1519 H1513 0.950 . S
C1519 C1518 1.327 . S
C1519 C1523 1.429 . S
C1520 C1503 1.574 . S
C1520 H1514 0.949 . S
C1520 C1524 1.368 . S
C1521 C1502 1.429 . S
C1521 C1515 1.429 . S
C1521 C1522 1.523 . S
C1522 C1503 1.368 . S
C1522 C1516 1.368 . S
C1522 C1521 1.523 . S
C1523 C1507 1.429 . S
C1523 C1519 1.429 . S
C1523 C1524 1.523 . S
C1524 C1508 1.368 . S
C1524 C1520 1.368 . S
C1524 C1523 1.523 . S
H1525 C1500 0.950 . S
H1526 C1502 0.950 . S
H1527 C1503 0.949 . S
H1528 C1505 0.950 . S
H1529 C1507 0.950 . S
C1530 C1531 1.349 . S
C1530 C1532 1.327 . S
C1530 H1555 0.950 . S
C1531 C1530 1.349 . S
C1531 C1547 1.349 . S
C1532 C1530 1.327 . S
C1532 C1551 1.429 . S
C1532 H1556 0.950 . S
C1533 C1550 1.574 . S
C1533 C1552 1.368 . S
C1533 H1557 0.949 . S
H1534 C1538 0.970 . S
C1535 C1536 1.349 . S
C1535 C1537 1.327 . S
C1535 H1558 0.950 . S
C1536 C1535 1.349 . S
C1536 C1548 1.349 . S
C1537 C1535 1.327 . S
C1537 C1553 1.429 . S
C1537 H1559 0.950 . S
C1538 H1534 0.970 . S
C1538 C1546 1.550 1_455 S
C1538 C1554 1.368 1_455 S
H1539 C1547 0.950 . S
H1540 C1545 0.950 . S
H1541 C1546 0.949 . S
H1542 C1548 0.950 . S
H1543 C1549 0.950 . S
H1544 C1550 0.949 . S
C1545 H1540 0.950 . S
C1545 C1547 1.327 . S
C1545 C1551 1.429 . S
C1546 C1538 1.550 1_655 S
C1546 H1541 0.949 . S
C1546 C1552 1.368 . S
C1547 C1531 1.349 . S
C1547 H1539 0.950 . S
C1547 C1545 1.327 . S
C1548 C1536 1.349 . S
C1548 H1542 0.950 . S
C1548 C1549 1.327 . S
C1549 H1543 0.950 . S
C1549 C1548 1.327 . S
C1549 C1553 1.429 . S
C1550 C1533 1.574 . S
C1550 H1544 0.949 . S
C1550 C1554 1.367 . S
C1551 C1532 1.429 . S
C1551 C1545 1.429 . S
C1551 C1552 1.523 . S
C1552 C1533 1.368 . S
C1552 C1546 1.368 . S
C1552 C1551 1.523 . S
C1553 C1537 1.429 . S
C1553 C1549 1.429 . S
C1553 C1554 1.525 1_455 S
C1554 C1538 1.368 1_655 S
C1554 C1550 1.367 . S
C1554 C1553 1.525 1_655 S
H1555 C1530 0.950 . S
H1556 C1532 0.950 . S
H1557 C1533 0.949 . S
H1558 C1535 0.950 . S
H1559 C1537 0.950 . S
C481 C18 0.852 . S
C486 C458 0.852 . S
C511 C379 1.567 . S
C516 C58 1.651 . S
C541 C99 1.118 . S
C546 C338 1.170 . S
C571 C138 1.940 . S
C576 C418 1.934 . S
C601 C178 1.609 . S
C606 C419 1.549 . S
C631 C219 1.364 . S
C636 C459 1.383 . S
C661 C378 1.707 . S
C666 C258 1.707 . S
C691 C299 1.628 . S
C696 C339 1.684 . S
C721 C139 1.687 . S
C726 C179 1.725 . S
C751 C19 1.416 . S
C756 C218 1.492 . S
C781 C59 1.556 . S
C786 C259 1.560 . S
C811 C298 1.799 . S
C816 C98 1.805 . S
C841 C6 1.517 . S
C846 C329 1.417 . S
C871 C46 1.829 . S
C876 C409 1.742 . S
C901 C449 1.779 . S
C906 C95 1.811 . S
C931 C126 1.492 . S
C936 C370 1.463 . S
C961 C166 1.135 . S
C966 C369 1.094 . S
C991 C330 1.764 . S
C996 C215 1.705 . S
C1021 C410 1.286 . S
C1026 C246 1.297 . S
C1051 C450 2.694 . S
C1056 C295 2.619 . S
C1081 C10 2.753 . S
C1086 C135 2.673 . S
C1111 C15 1.890 . S
C1116 C50 1.934 . S
C1141 C55 2.179 . S
C1146 C89 2.146 . S
C1171 C130 1.676 . S
C1176 C86 1.712 . S
C1201 C206 1.421 . S
C1206 C170 1.402 . S
C1231 C209 1.090 . S
C1236 C255 1.123 . S
C1261 C250 1.424 . S
C1266 C286 1.446 . S
C1291 C175 0.601 . S
C1296 C289 0.621 . S
C1321 C335 0.511 . S
C1326 C129 0.559 . S
C1351 C210 1.484 . S
C1356 C375 1.455 . S
C1381 C326 1.289 . S
C1386 C249 1.232 . S
C1411 C406 1.855 . S
C1416 C290 1.832 . S
C1441 C169 1.150 . S
C1446 C446 1.211 . S
C1471 C455 1.535 . S
C1476 C49 1.490 . S
C1501 C90 1.470 . S
C1506 C366 1.495 . S
C1531 C415 1.610 . S
C1536 C9 1.578 . S
