# Generated by pormake.
# Topology ukv, (4)-cn, num edge types: 1
# Building blocks:
#     Node 0, Type 0, BuildingBlock: QUQFOY_clean_sbu_1, # of connection points: 4
#     Node 1, Type 0, BuildingBlock: QUQFOY_clean_sbu_1, # of connection points: 4
#     Node 2, Type 0, BuildingBlock: QUQFOY_clean_sbu_1, # of connection points: 4
#     Node 3, Type 0, BuildingBlock: QUQFOY_clean_sbu_1, # of connection points: 4
#     Node 4, Type 0, BuildingBlock: QUQFOY_clean_sbu_1, # of connection points: 4
#     Node 5, Type 0, BuildingBlock: QUQFOY_clean_sbu_1, # of connection points: 4
#     Node 6, Type 0, BuildingBlock: QUQFOY_clean_sbu_1, # of connection points: 4
#     Node 7, Type 0, BuildingBlock: QUQFOY_clean_sbu_1, # of connection points: 4
#     Node 8, Type 0, BuildingBlock: QUQFOY_clean_sbu_1, # of connection points: 4
#     Node 9, Type 0, BuildingBlock: QUQFOY_clean_sbu_1, # of connection points: 4
#     Node 10, Type 0, BuildingBlock: QUQFOY_clean_sbu_1, # of connection points: 4
#     Node 11, Type 0, BuildingBlock: QUQFOY_clean_sbu_1, # of connection points: 4
#     Node 12, Type 0, BuildingBlock: QUQFOY_clean_sbu_1, # of connection points: 4
#     Node 13, Type 0, BuildingBlock: QUQFOY_clean_sbu_1, # of connection points: 4
#     Node 14, Type 0, BuildingBlock: QUQFOY_clean_sbu_1, # of connection points: 4
#     Node 15, Type 0, BuildingBlock: QUQFOY_clean_sbu_1, # of connection points: 4
#     Node 16, Type 0, BuildingBlock: QUQFOY_clean_sbu_1, # of connection points: 4
#     Node 17, Type 0, BuildingBlock: QUQFOY_clean_sbu_1, # of connection points: 4
#     Node 18, Type 0, BuildingBlock: QUQFOY_clean_sbu_1, # of connection points: 4
#     Node 19, Type 0, BuildingBlock: QUQFOY_clean_sbu_1, # of connection points: 4
#     Node 20, Type 0, BuildingBlock: QUQFOY_clean_sbu_1, # of connection points: 4
#     Node 21, Type 0, BuildingBlock: QUQFOY_clean_sbu_1, # of connection points: 4
#     Node 22, Type 0, BuildingBlock: QUQFOY_clean_sbu_1, # of connection points: 4
#     Node 23, Type 0, BuildingBlock: QUQFOY_clean_sbu_1, # of connection points: 4
#     Node 24, Type 0, BuildingBlock: QUQFOY_clean_sbu_1, # of connection points: 4
#     Node 25, Type 0, BuildingBlock: QUQFOY_clean_sbu_1, # of connection points: 4
#     Node 26, Type 0, BuildingBlock: QUQFOY_clean_sbu_1, # of connection points: 4
#     Node 27, Type 0, BuildingBlock: QUQFOY_clean_sbu_1, # of connection points: 4
#     Node 28, Type 0, BuildingBlock: QUQFOY_clean_sbu_1, # of connection points: 4
#     Node 29, Type 0, BuildingBlock: QUQFOY_clean_sbu_1, # of connection points: 4
#     Node 30, Type 0, BuildingBlock: QUQFOY_clean_sbu_1, # of connection points: 4
#     Node 31, Type 0, BuildingBlock: QUQFOY_clean_sbu_1, # of connection points: 4
#     Node 32, Type 0, BuildingBlock: QUQFOY_clean_sbu_1, # of connection points: 4
#     Node 33, Type 0, BuildingBlock: QUQFOY_clean_sbu_1, # of connection points: 4
#     Node 34, Type 0, BuildingBlock: QUQFOY_clean_sbu_1, # of connection points: 4
#     Node 35, Type 0, BuildingBlock: QUQFOY_clean_sbu_1, # of connection points: 4
#     Edge 36, Type (0, 0), BuildingBlock: OJICUG_clean_linker_0, # of connection points: 2
#     Edge 37, Type (0, 0), BuildingBlock: OJICUG_clean_linker_0, # of connection points: 2
#     Edge 38, Type (0, 0), BuildingBlock: OJICUG_clean_linker_0, # of connection points: 2
#     Edge 39, Type (0, 0), BuildingBlock: OJICUG_clean_linker_0, # of connection points: 2
#     Edge 40, Type (0, 0), BuildingBlock: OJICUG_clean_linker_0, # of connection points: 2
#     Edge 41, Type (0, 0), BuildingBlock: OJICUG_clean_linker_0, # of connection points: 2
#     Edge 42, Type (0, 0), BuildingBlock: OJICUG_clean_linker_0, # of connection points: 2
#     Edge 43, Type (0, 0), BuildingBlock: OJICUG_clean_linker_0, # of connection points: 2
#     Edge 44, Type (0, 0), BuildingBlock: OJICUG_clean_linker_0, # of connection points: 2
#     Edge 45, Type (0, 0), BuildingBlock: OJICUG_clean_linker_0, # of connection points: 2
#     Edge 46, Type (0, 0), BuildingBlock: OJICUG_clean_linker_0, # of connection points: 2
#     Edge 47, Type (0, 0), BuildingBlock: OJICUG_clean_linker_0, # of connection points: 2
#     Edge 48, Type (0, 0), BuildingBlock: OJICUG_clean_linker_0, # of connection points: 2
#     Edge 49, Type (0, 0), BuildingBlock: OJICUG_clean_linker_0, # of connection points: 2
#     Edge 50, Type (0, 0), BuildingBlock: OJICUG_clean_linker_0, # of connection points: 2
#     Edge 51, Type (0, 0), BuildingBlock: OJICUG_clean_linker_0, # of connection points: 2
#     Edge 52, Type (0, 0), BuildingBlock: OJICUG_clean_linker_0, # of connection points: 2
#     Edge 53, Type (0, 0), BuildingBlock: OJICUG_clean_linker_0, # of connection points: 2
#     Edge 54, Type (0, 0), BuildingBlock: OJICUG_clean_linker_0, # of connection points: 2
#     Edge 55, Type (0, 0), BuildingBlock: OJICUG_clean_linker_0, # of connection points: 2
#     Edge 56, Type (0, 0), BuildingBlock: OJICUG_clean_linker_0, # of connection points: 2
#     Edge 57, Type (0, 0), BuildingBlock: OJICUG_clean_linker_0, # of connection points: 2
#     Edge 58, Type (0, 0), BuildingBlock: OJICUG_clean_linker_0, # of connection points: 2
#     Edge 59, Type (0, 0), BuildingBlock: OJICUG_clean_linker_0, # of connection points: 2
#     Edge 60, Type (0, 0), BuildingBlock: OJICUG_clean_linker_0, # of connection points: 2
#     Edge 61, Type (0, 0), BuildingBlock: OJICUG_clean_linker_0, # of connection points: 2
#     Edge 62, Type (0, 0), BuildingBlock: OJICUG_clean_linker_0, # of connection points: 2
#     Edge 63, Type (0, 0), BuildingBlock: OJICUG_clean_linker_0, # of connection points: 2
#     Edge 64, Type (0, 0), BuildingBlock: OJICUG_clean_linker_0, # of connection points: 2
#     Edge 65, Type (0, 0), BuildingBlock: OJICUG_clean_linker_0, # of connection points: 2
#     Edge 66, Type (0, 0), BuildingBlock: OJICUG_clean_linker_0, # of connection points: 2
#     Edge 67, Type (0, 0), BuildingBlock: OJICUG_clean_linker_0, # of connection points: 2
#     Edge 68, Type (0, 0), BuildingBlock: OJICUG_clean_linker_0, # of connection points: 2
#     Edge 69, Type (0, 0), BuildingBlock: OJICUG_clean_linker_0, # of connection points: 2
#     Edge 70, Type (0, 0), BuildingBlock: OJICUG_clean_linker_0, # of connection points: 2
#     Edge 71, Type (0, 0), BuildingBlock: OJICUG_clean_linker_0, # of connection points: 2
#     Edge 72, Type (0, 0), BuildingBlock: OJICUG_clean_linker_0, # of connection points: 2
#     Edge 73, Type (0, 0), BuildingBlock: OJICUG_clean_linker_0, # of connection points: 2
#     Edge 74, Type (0, 0), BuildingBlock: OJICUG_clean_linker_0, # of connection points: 2
#     Edge 75, Type (0, 0), BuildingBlock: OJICUG_clean_linker_0, # of connection points: 2
#     Edge 76, Type (0, 0), BuildingBlock: OJICUG_clean_linker_0, # of connection points: 2
#     Edge 77, Type (0, 0), BuildingBlock: OJICUG_clean_linker_0, # of connection points: 2
#     Edge 78, Type (0, 0), BuildingBlock: OJICUG_clean_linker_0, # of connection points: 2
#     Edge 79, Type (0, 0), BuildingBlock: OJICUG_clean_linker_0, # of connection points: 2
#     Edge 80, Type (0, 0), BuildingBlock: OJICUG_clean_linker_0, # of connection points: 2
#     Edge 81, Type (0, 0), BuildingBlock: OJICUG_clean_linker_0, # of connection points: 2
#     Edge 82, Type (0, 0), BuildingBlock: OJICUG_clean_linker_0, # of connection points: 2
#     Edge 83, Type (0, 0), BuildingBlock: OJICUG_clean_linker_0, # of connection points: 2
#     Edge 84, Type (0, 0), BuildingBlock: OJICUG_clean_linker_0, # of connection points: 2
#     Edge 85, Type (0, 0), BuildingBlock: OJICUG_clean_linker_0, # of connection points: 2
#     Edge 86, Type (0, 0), BuildingBlock: OJICUG_clean_linker_0, # of connection points: 2
#     Edge 87, Type (0, 0), BuildingBlock: OJICUG_clean_linker_0, # of connection points: 2
#     Edge 88, Type (0, 0), BuildingBlock: OJICUG_clean_linker_0, # of connection points: 2
#     Edge 89, Type (0, 0), BuildingBlock: OJICUG_clean_linker_0, # of connection points: 2
#     Edge 90, Type (0, 0), BuildingBlock: OJICUG_clean_linker_0, # of connection points: 2
#     Edge 91, Type (0, 0), BuildingBlock: OJICUG_clean_linker_0, # of connection points: 2
#     Edge 92, Type (0, 0), BuildingBlock: OJICUG_clean_linker_0, # of connection points: 2
#     Edge 93, Type (0, 0), BuildingBlock: OJICUG_clean_linker_0, # of connection points: 2
#     Edge 94, Type (0, 0), BuildingBlock: OJICUG_clean_linker_0, # of connection points: 2
#     Edge 95, Type (0, 0), BuildingBlock: OJICUG_clean_linker_0, # of connection points: 2
#     Edge 96, Type (0, 0), BuildingBlock: OJICUG_clean_linker_0, # of connection points: 2
#     Edge 97, Type (0, 0), BuildingBlock: OJICUG_clean_linker_0, # of connection points: 2
#     Edge 98, Type (0, 0), BuildingBlock: OJICUG_clean_linker_0, # of connection points: 2
#     Edge 99, Type (0, 0), BuildingBlock: OJICUG_clean_linker_0, # of connection points: 2
#     Edge 100, Type (0, 0), BuildingBlock: OJICUG_clean_linker_0, # of connection points: 2
#     Edge 101, Type (0, 0), BuildingBlock: OJICUG_clean_linker_0, # of connection points: 2
#     Edge 102, Type (0, 0), BuildingBlock: OJICUG_clean_linker_0, # of connection points: 2
#     Edge 103, Type (0, 0), BuildingBlock: OJICUG_clean_linker_0, # of connection points: 2
#     Edge 104, Type (0, 0), BuildingBlock: OJICUG_clean_linker_0, # of connection points: 2
#     Edge 105, Type (0, 0), BuildingBlock: OJICUG_clean_linker_0, # of connection points: 2
#     Edge 106, Type (0, 0), BuildingBlock: OJICUG_clean_linker_0, # of connection points: 2
#     Edge 107, Type (0, 0), BuildingBlock: OJICUG_clean_linker_0, # of connection points: 2
# Relax obj value: 0.138
# Max RMSD: 0.497
# Mean RMSD: 0.342
data_MOF--net-ukv--node1-QUQFOY_clean_sbu_1--edge1-OJICUG_clean_linker_0
_symmetry_space_group_name_H-M    P1
_symmetry_Int_Tables_number       1
_symmetry_cell_setting            triclinic
loop_
_symmetry_equiv_pos_as_xyz
'x, y, z'
_cell_length_a     58.909573
_cell_length_b     58.936059
_cell_length_c     16.173113
_cell_angle_alpha  90.018352
_cell_angle_beta   90.135113
_cell_angle_gamma 122.29007
loop_
_atom_site_label
_atom_site_type_symbol
_atom_site_fract_x
_atom_site_fract_y
_atom_site_fract_z
_atom_type_partial_charge
O0 O 0.33512 0.0941 0.09073 0.0
Cd1 Cd 0.32345 0.11448 0.16089 0.0
Cd2 Cd 0.37628 0.13723 0.18807 0.0
O3 O 0.37313 0.10239 0.14465 0.0
O4 O 0.28329 0.08731 0.15708 0.0
O5 O 0.3073 0.09593 0.27078 0.0
C6 C 0.28487 0.08065 0.23205 0.0
C7 C 0.3838 0.16204 0.30723 0.0
C8 C 0.35383 0.08953 0.09321 0.0
C9 C 0.36154 0.16562 0.07209 0.0
O10 O 0.37822 0.15908 0.08979 0.0
O11 O 0.33814 0.15324 0.10584 0.0
O12 O 0.40395 0.16469 0.26624 0.0
O13 O 0.35987 0.1427 0.28705 0.0
O14 O 0.94953 0.25993 0.19817 0.0
Cd15 Cd 0.95061 0.22954 0.14275 0.0
Cd16 Cd 0.89895 0.23821 0.21443 0.0
O17 O 0.92699 0.27838 0.186 0.0
O18 O 0.98819 0.24075 0.10843 0.0
O19 O 0.96928 0.21827 0.22325 0.0
C20 C 0.99074 0.23202 0.17894 0.0
C21 C 0.8811 0.21423 0.33691 0.0
C22 C 0.946 0.27636 0.15867 0.0
C23 C 0.89348 0.20348 0.05827 0.0
O24 O 0.88618 0.215 0.10873 0.0
O25 O 0.91605 0.2048 0.06526 0.0
O26 O 0.86901 0.22397 0.29747 0.0
O27 O 0.90451 0.22046 0.31097 0.0
O28 O 0.78545 0.70766 0.99489 0.0
Cd29 Cd 0.80417 0.71001 0.09655 0.0
Cd30 Cd 0.7652 0.65973 0.12157 0.0
O31 O 0.74677 0.67757 0.05234 0.0
O32 O 0.81556 0.74629 0.15037 0.0
O33 O 0.77822 0.70801 0.18169 0.0
C34 C 0.79242 0.73383 0.18732 0.0
C35 C 0.78174 0.65979 0.25825 0.0
C36 C 0.76013 0.69532 0.99628 0.0
C37 C 0.8089 0.66408 0.02984 0.0
O38 O 0.78354 0.64925 0.03774 0.0
O39 O 0.82202 0.68722 0.06586 0.0
O40 O 0.75762 0.64091 0.23779 0.0
O41 O 0.7947 0.67834 0.20542 0.0
O42 O 0.1342 0.36752 0.30528 0.0
Cd43 Cd 0.13535 0.33663 0.35638 0.0
Cd44 Cd 0.1832 0.40329 0.28065 0.0
O45 O 0.15348 0.40977 0.32261 0.0
O46 O 0.09914 0.30453 0.38987 0.0
O47 O 0.11888 0.30653 0.27187 0.0
C48 C 0.09756 0.29451 0.3174 0.0
C49 C 0.19947 0.40397 0.15008 0.0
C50 C 0.13482 0.38647 0.34449 0.0
C51 C 0.19507 0.3729 0.42116 0.0
O52 O 0.19999 0.39214 0.37281 0.0
O53 O 0.17214 0.35038 0.42271 0.0
O54 O 0.21081 0.42553 0.19495 0.0
O55 O 0.17738 0.3832 0.17646 0.0
O56 O 0.7168 0.77697 0.53336 0.0
Cd57 Cd 0.71543 0.79397 0.43274 0.0
Cd58 Cd 0.6654 0.75327 0.41497 0.0
O59 O 0.6858 0.73725 0.48336 0.0
O60 O 0.75089 0.80706 0.37143 0.0
O61 O 0.71339 0.76806 0.34711 0.0
C62 C 0.73894 0.7836 0.33618 0.0
C63 C 0.66344 0.76876 0.27804 0.0
C64 C 0.70476 0.7517 0.53546 0.0
C65 C 0.66806 0.79585 0.50678 0.0
O66 O 0.65391 0.77041 0.50056 0.0
O67 O 0.69061 0.80936 0.46784 0.0
O68 O 0.64588 0.74425 0.29893 0.0
O69 O 0.6819 0.78276 0.33044 0.0
O70 O 0.24928 0.95095 0.49505 0.0
Cd71 Cd 0.21524 0.93449 0.42869 0.0
Cd72 Cd 0.23665 0.90475 0.38762 0.0
O73 O 0.27329 0.93713 0.43467 0.0
O74 O 0.21029 0.96604 0.436 0.0
O75 O 0.22196 0.95482 0.32105 0.0
C76 C 0.21936 0.97225 0.36133 0.0
C77 C 0.22006 0.88609 0.25556 0.0
C78 C 0.27144 0.95262 0.48586 0.0
C79 C 0.19065 0.87977 0.50686 0.0
O80 O 0.21175 0.88124 0.48145 0.0
O81 O 0.18505 0.89707 0.48289 0.0
O82 O 0.23366 0.87886 0.29878 0.0
O83 O 0.21838 0.9057 0.28358 0.0
O84 O 0.70308 0.91633 0.02112 0.0
Cd85 Cd 0.7167 0.89865 0.94721 0.0
Cd86 Cd 0.6638 0.87225 0.90918 0.0
O87 O 0.6655 0.90635 0.95876 0.0
O88 O 0.75629 0.9283 0.94757 0.0
O89 O 0.7298 0.91912 0.83959 0.0
C90 C 0.75258 0.9352 0.87529 0.0
C91 C 0.65792 0.85376 0.77655 0.0
C92 C 0.68418 0.92035 1.01124 0.0
C93 C 0.68113 0.8431 0.0169 0.0
O94 O 0.66249 0.84695 0.99854 0.0
O95 O 0.70521 0.85965 0.99181 0.0
O96 O 0.6373 0.84801 0.82113 0.0
O97 O 0.68139 0.87201 0.80369 0.0
O98 O 0.07023 0.79277 0.99835 0.0
Cd99 Cd 0.09131 0.81666 0.90682 0.0
Cd100 Cd 0.10834 0.78235 0.88866 0.0
O101 O 0.07168 0.75784 0.95659 0.0
O102 O 0.06818 0.83084 0.86511 0.0
O103 O 0.07005 0.79874 0.8013 0.0
C104 C 0.05898 0.81254 0.8079 0.0
C105 C 0.12725 0.7999 0.75577 0.0
C106 C 0.0625 0.76834 1.00532 0.0
C107 C 0.14434 0.82758 0.98963 0.0
O108 O 0.13601 0.80312 0.97657 0.0
O109 O 0.1327 0.83848 0.95403 0.0
O110 O 0.12555 0.77825 0.78181 0.0
O111 O 0.11654 0.80948 0.80102 0.0
O112 O 0.29426 0.3497 0.89384 0.0
Cd113 Cd 0.26319 0.34062 0.82093 0.0
Cd114 Cd 0.29806 0.39457 0.7855 0.0
O115 O 0.32654 0.38671 0.83469 0.0
O116 O 0.2438 0.30015 0.81097 0.0
O117 O 0.26793 0.32829 0.71086 0.0
C118 C 0.25499 0.30413 0.73918 0.0
C119 C 0.27781 0.39368 0.65906 0.0
C120 C 0.31895 0.36751 0.88639 0.0
C121 C 0.25387 0.38192 0.89666 0.0
O122 O 0.27818 0.39929 0.87933 0.0
O123 O 0.24218 0.35806 0.86638 0.0
O124 O 0.29918 0.41585 0.68272 0.0
O125 O 0.27064 0.37254 0.70171 0.0
O126 O 0.9239 0.68914 0.59185 0.0
Cd127 Cd 0.91993 0.72062 0.57305 0.0
Cd128 Cd 0.87739 0.65122 0.62729 0.0
O129 O 0.90591 0.6482 0.55678 0.0
O130 O 0.95587 0.75494 0.55182 0.0
O131 O 0.93601 0.74506 0.67363 0.0
C132 C 0.95745 0.75998 0.63023 0.0
C133 C 0.86266 0.64619 0.76322 0.0
C134 C 0.92275 0.67263 0.5392 0.0
C135 C 0.85952 0.68266 0.51366 0.0
O136 O 0.85721 0.66248 0.55079 0.0
O137 O 0.88125 0.70633 0.51656 0.0
O138 O 0.85146 0.626 0.71254 0.0
O139 O 0.88432 0.66801 0.73937 0.0
O140 O 0.37448 0.28693 0.67547 0.0
Cd141 Cd 0.34608 0.25697 0.60208 0.0
Cd142 Cd 0.40697 0.27136 0.69882 0.0
O143 O 0.41729 0.31058 0.67161 0.0
O144 O 0.3198 0.26427 0.55073 0.0
O145 O 0.31047 0.23871 0.66131 0.0
C146 C 0.30394 0.25159 0.61179 0.0
C147 C 0.39993 0.24996 0.82694 0.0
C148 C 0.39535 0.30762 0.64738 0.0
C149 C 0.38147 0.23629 0.53473 0.0
O150 O 0.39856 0.24719 0.59369 0.0
O151 O 0.3603 0.23737 0.53 0.0
O152 O 0.42296 0.26082 0.79046 0.0
O153 O 0.38188 0.25313 0.79363 0.0
O154 O 0.77285 0.06257 0.61221 0.0
Cd155 Cd 0.80734 0.07952 0.67654 0.0
Cd156 Cd 0.78522 0.10905 0.71171 0.0
O157 O 0.74869 0.07723 0.66596 0.0
O158 O 0.8143 0.04937 0.66724 0.0
O159 O 0.80304 0.05988 0.78425 0.0
C160 C 0.80676 0.04332 0.74325 0.0
C161 C 0.80778 0.13289 0.83107 0.0
C162 C 0.75116 0.06216 0.61449 0.0
C163 C 0.82779 0.13088 0.58468 0.0
O164 O 0.80664 0.12882 0.61137 0.0
O165 O 0.83581 0.11605 0.61442 0.0
O166 O 0.79266 0.13892 0.79082 0.0
O167 O 0.80678 0.11116 0.81012 0.0
O168 O 0.9645 0.39328 0.36636 0.0
Cd169 Cd 0.92319 0.36701 0.37613 0.0
Cd170 Cd 0.92865 0.41465 0.44417 0.0
O171 O 0.96907 0.42985 0.42221 0.0
O172 O 0.91653 0.32974 0.3679 0.0
O173 O 0.905 0.34349 0.47751 0.0
C174 C 0.90639 0.32472 0.44122 0.0
C175 C 0.91377 0.43212 0.54817 0.0
C176 C 0.97913 0.41808 0.38531 0.0
C177 C 0.90057 0.39309 0.27691 0.0
O178 O 0.9084 0.40961 0.33657 0.0
O179 O 0.90331 0.37306 0.27978 0.0
O180 O 0.92842 0.44653 0.48747 0.0
O181 O 0.90899 0.40811 0.55383 0.0
O182 O 0.60473 0.58784 0.36809 0.0
Cd183 Cd 0.58379 0.56129 0.45553 0.0
Cd184 Cd 0.56655 0.59451 0.47909 0.0
O185 O 0.60622 0.62163 0.43222 0.0
O186 O 0.6084 0.54805 0.48632 0.0
O187 O 0.60449 0.57697 0.56221 0.0
C188 C 0.61719 0.56513 0.54698 0.0
C189 C 0.5464 0.57677 0.60992 0.0
C190 C 0.61574 0.61283 0.37858 0.0
C191 C 0.53126 0.54809 0.37624 0.0
O192 O 0.5404 0.57299 0.38504 0.0
O193 O 0.54258 0.53744 0.41433 0.0
O194 O 0.54782 0.59813 0.58258 0.0
O195 O 0.558 0.5676 0.56713 0.0
O196 O 0.48753 0.10063 0.34126 0.0
Cd197 Cd 0.50041 0.14102 0.35933 0.0
Cd198 Cd 0.55256 0.13036 0.41043 0.0
O199 O 0.52159 0.09427 0.36069 0.0
O200 O 0.46831 0.14441 0.36148 0.0
O201 O 0.4958 0.15499 0.46842 0.0
C202 C 0.47435 0.15255 0.43722 0.0
C203 C 0.58054 0.13494 0.51902 0.0
C204 C 0.49742 0.08584 0.33847 0.0
C205 C 0.55043 0.16564 0.29604 0.0
O206 O 0.55231 0.16283 0.37281 0.0
O207 O 0.52973 0.16548 0.2737 0.0
O208 O 0.58771 0.13498 0.44342 0.0
O209 O 0.55712 0.13124 0.53202 0.0
O210 O 0.76691 0.69977 0.63946 0.0
Cd211 Cd 0.76655 0.66852 0.69507 0.0
Cd212 Cd 0.81488 0.73647 0.61094 0.0
O213 O 0.78475 0.74216 0.65165 0.0
O214 O 0.73073 0.63991 0.7425 0.0
O215 O 0.7454 0.63535 0.62209 0.0
C216 C 0.72575 0.62676 0.67399 0.0
C217 C 0.83338 0.74181 0.48118 0.0
C218 C 0.76653 0.71881 0.67473 0.0
C219 C 0.82677 0.70464 0.75139 0.0
O220 O 0.83065 0.72337 0.70219 0.0
O221 O 0.804 0.68206 0.75669 0.0
O222 O 0.84449 0.76129 0.53419 0.0
O223 O 0.81042 0.72067 0.49938 0.0
O224 O 0.36227 0.13573 0.81804 0.0
Cd225 Cd 0.36797 0.16287 0.73285 0.0
Cd226 Cd 0.31645 0.12715 0.69885 0.0
O227 O 0.32975 0.1022 0.74605 0.0
O228 O 0.40753 0.18222 0.70005 0.0
O229 O 0.37471 0.14897 0.62816 0.0
C230 C 0.40016 0.16518 0.6398 0.0
C231 C 0.31348 0.14011 0.56179 0.0
C232 C 0.34809 0.11086 0.80177 0.0
C233 C 0.32585 0.173 0.79838 0.0
O234 O 0.30969 0.14781 0.78881 0.0
O235 O 0.34932 0.18461 0.76557 0.0
O236 O 0.29332 0.11849 0.59291 0.0
O237 O 0.33471 0.15293 0.60643 0.0
O238 O 0.91789 0.23141 0.8142 0.0
Cd239 Cd 0.89641 0.20626 0.72207 0.0
Cd240 Cd 0.94389 0.20475 0.72032 0.0
O241 O 0.95908 0.24112 0.78927 0.0
O242 O 0.87201 0.21961 0.68444 0.0
O243 O 0.90743 0.22706 0.61531 0.0
C244 C 0.88863 0.23172 0.62413 0.0
C245 C 0.94146 0.1921 0.57909 0.0
C246 C 0.94285 0.24539 0.82911 0.0
C247 C 0.89501 0.15843 0.80087 0.0
O248 O 0.92049 0.17265 0.79582 0.0
O249 O 0.88059 0.16561 0.76268 0.0
O250 O 0.96034 0.19405 0.62558 0.0
O251 O 0.92635 0.19917 0.61136 0.0
O252 O 0.38176 0.27869 0.31701 0.0
Cd253 Cd 0.37838 0.26061 0.21143 0.0
Cd254 Cd 0.33103 0.25227 0.2015 0.0
O255 O 0.35311 0.28934 0.27262 0.0
O256 O 0.41461 0.28473 0.15366 0.0
O257 O 0.37895 0.28742 0.13271 0.0
C258 C 0.40443 0.29791 0.12391 0.0
C259 C 0.32147 0.23494 0.06289 0.0
C260 C 0.37179 0.29303 0.32301 0.0
C261 C 0.33149 0.20946 0.28491 0.0
O262 O 0.31951 0.22205 0.28286 0.0
O263 O 0.35325 0.21837 0.24293 0.0
O264 O 0.30548 0.24048 0.09972 0.0
O265 O 0.34306 0.24101 0.10137 0.0
O266 O 0.79496 0.10474 0.31759 0.0
Cd267 Cd 0.82217 0.13069 0.23454 0.0
Cd268 Cd 0.82852 0.08679 0.22018 0.0
O269 O 0.78941 0.06659 0.27312 0.0
O270 O 0.80793 0.15475 0.20613 0.0
O271 O 0.80424 0.12337 0.12312 0.0
C272 C 0.79783 0.14061 0.13962 0.0
C273 C 0.8432 0.09214 0.08122 0.0
C274 C 0.78152 0.07927 0.31682 0.0
C275 C 0.87222 0.13575 0.30913 0.0
O276 O 0.85935 0.11026 0.30262 0.0
O277 O 0.86312 0.14895 0.27418 0.0
O278 O 0.84155 0.07295 0.12491 0.0
O279 O 0.83482 0.10606 0.11474 0.0
O280 O 0.93087 0.69242 0.14288 0.0
Cd281 Cd 0.89149 0.66922 0.16933 0.0
Cd282 Cd 0.93295 0.73632 0.11182 0.0
O283 O 0.96179 0.73202 0.17642 0.0
O284 O 0.87821 0.62967 0.18534 0.0
O285 O 0.87445 0.64676 0.06877 0.0
C286 C 0.8725 0.62665 0.10729 0.0
C287 C 0.91413 0.73245 0.98058 0.0
C288 C 0.94863 0.7073 0.19524 0.0
C289 C 0.8862 0.71707 0.2338 0.0
O290 O 0.90757 0.73528 0.19888 0.0
O291 O 0.87646 0.69173 0.22392 0.0
O292 O 0.9314 0.75591 1.01078 0.0
O293 O 0.91067 0.71169 0.01974 0.0
O294 O 0.63426 0.0687 0.90369 0.0
Cd295 Cd 0.66136 0.10991 0.90713 0.0
Cd296 Cd 0.61395 0.10629 0.97827 0.0
O297 O 0.59865 0.06568 0.96142 0.0
O298 O 0.69786 0.11502 0.89411 0.0
O299 O 0.6866 0.1285 1.00501 0.0
C300 C 0.70426 0.1258 0.96667 0.0
C301 C 0.59534 0.12095 0.07912 0.0
C302 C 0.60978 0.05472 0.92615 0.0
C303 C 0.63534 0.13295 0.80875 0.0
O304 O 0.61926 0.12591 0.86921 0.0
O305 O 0.65488 0.12942 0.8107 0.0
O306 O 0.58158 0.10628 0.01734 0.0
O307 O 0.61947 0.12617 0.08721 0.0
O308 O 0.92845 0.53734 0.79253 0.0
Cd309 Cd 0.88835 0.5229 0.82153 0.0
Cd310 Cd 0.90244 0.47403 0.87502 0.0
O311 O 0.93667 0.50468 0.81558 0.0
O312 O 0.8807 0.55219 0.82832 0.0
O313 O 0.87876 0.52833 0.93684 0.0
C314 C 0.87673 0.54754 0.9068 0.0
C315 C 0.90008 0.44772 0.985 0.0
C316 C 0.94372 0.52802 0.78838 0.0
C317 C 0.86423 0.47207 0.76519 0.0
O318 O 0.86819 0.47133 0.84168 0.0
O319 O 0.86257 0.49167 0.74237 0.0
O320 O 0.89936 0.43981 0.90982 0.0
O321 O 0.90378 0.47121 0.99664 0.0
O322 O 0.43933 0.42821 0.85427 0.0
Cd323 Cd 0.46946 0.44586 0.93549 0.0
Cd324 Cd 0.44115 0.46689 0.98031 0.0
O325 O 0.4095 0.42902 0.93448 0.0
O326 O 0.47911 0.41761 0.95018 0.0
O327 O 0.45526 0.42469 0.0399 0.0
C328 C 0.46348 0.40951 1.01417 0.0
C329 C 0.45634 0.48555 0.11407 0.0
C330 C 0.4151 0.41877 0.87405 0.0
C331 C 0.48748 0.50001 0.8694 0.0
O332 O 0.46366 0.49326 0.8871 0.0
O333 O 0.49686 0.4862 0.89735 0.0
O334 O 0.43816 0.48778 0.07679 0.0
O335 O 0.46397 0.47122 0.07849 0.0
O336 O 0.70692 0.76017 0.89025 0.0
Cd337 Cd 0.67769 0.76065 0.82411 0.0
Cd338 Cd 0.74306 0.80861 0.92001 0.0
O339 O 0.7495 0.77844 0.88494 0.0
O340 O 0.65083 0.72552 0.76963 0.0
O341 O 0.64229 0.73901 0.88616 0.0
C342 C 0.63549 0.7199 0.83316 0.0
C343 C 0.74527 0.82593 0.05054 0.0
C344 C 0.72656 0.7599 0.85951 0.0
C345 C 0.71547 0.82072 0.76761 0.0
O346 O 0.73305 0.82531 0.82276 0.0
O347 O 0.69326 0.79774 0.75955 0.0
O348 O 0.76608 0.83718 1.00279 0.0
O349 O 0.72422 0.80369 0.02645 0.0
O350 O 0.25335 0.9331 0.78654 0.0
Cd351 Cd 0.22603 0.90715 0.86678 0.0
Cd352 Cd 0.21913 0.95076 0.88005 0.0
O353 O 0.25904 0.97121 0.83225 0.0
O354 O 0.23909 0.88227 0.89673 0.0
O355 O 0.24381 0.91447 0.97851 0.0
C356 C 0.2492 0.89639 0.96341 0.0
C357 C 0.19688 0.93641 1.00892 0.0
C358 C 0.26675 0.95853 0.7876 0.0
C359 C 0.1786 0.90504 0.78188 0.0
O360 O 0.19206 0.93047 0.78795 0.0
O361 O 0.1859 0.89103 0.82174 0.0
O362 O 0.20046 0.95812 0.97619 0.0
O363 O 0.20843 0.92579 0.97358 0.0
O364 O 0.15457 0.37397 0.68384 0.0
Cd365 Cd 0.17185 0.36942 0.7809 0.0
Cd366 Cd 0.12912 0.31884 0.78587 0.0
O367 O 0.11422 0.34008 0.71877 0.0
O368 O 0.19281 0.40557 0.8403 0.0
O369 O 0.15263 0.37247 0.87989 0.0
C370 C 0.17222 0.39702 0.88846 0.0
C371 C 0.1391 0.31287 0.92519 0.0
C372 C 0.1294 0.36086 0.67398 0.0
C373 C 0.17387 0.32299 0.70015 0.0
O374 O 0.14835 0.30915 0.70264 0.0
O375 O 0.18713 0.34482 0.74289 0.0
O376 O 0.11569 0.29583 0.89433 0.0
O377 O 0.15514 0.33272 0.87963 0.0
O378 O 0.40793 0.9648 0.22184 0.0
Cd379 Cd 0.38101 0.92364 0.21598 0.0
Cd380 Cd 0.42795 0.92752 0.145 0.0
O381 O 0.44337 0.9681 0.16199 0.0
O382 O 0.34411 0.91788 0.2244 0.0
O383 O 0.35737 0.90591 0.11457 0.0
C384 C 0.33898 0.90797 0.15062 0.0
C385 C 0.44632 0.91285 0.04353 0.0
C386 C 0.43234 0.9789 0.19878 0.0
C387 C 0.40702 0.9007 0.31438 0.0
O388 O 0.42318 0.90806 0.25404 0.0
O389 O 0.3872 0.9038 0.31224 0.0
O390 O 0.46021 0.9276 0.10498 0.0
O391 O 0.42214 0.90756 0.03603 0.0
O392 O 0.09722 0.47084 0.21508 0.0
Cd393 Cd 0.13783 0.4851 0.19175 0.0
Cd394 Cd 0.12406 0.53437 0.13345 0.0
O395 O 0.08938 0.50374 0.19143 0.0
O396 O 0.14465 0.45513 0.18573 0.0
O397 O 0.15145 0.48204 0.08032 0.0
C398 C 0.15194 0.46187 0.10971 0.0
C399 C 0.12689 0.56087 0.02236 0.0
C400 C 0.082 0.48028 0.2183 0.0
C401 C 0.16111 0.53573 0.24805 0.0
O402 O 0.15782 0.53653 0.17102 0.0
O403 O 0.16256 0.51613 0.27249 0.0
O404 O 0.1274 0.56873 0.09747 0.0
O405 O 0.12344 0.53746 1.01126 0.0
O406 O 0.59506 0.59193 0.1058 0.0
Cd407 Cd 0.566 0.57359 0.02165 0.0
Cd408 Cd 0.59449 0.55265 0.98596 0.0
O409 O 0.62584 0.59077 0.03205 0.0
O410 O 0.55575 0.60126 1.00512 0.0
O411 O 0.58026 0.59486 0.91628 0.0
C412 C 0.57121 0.60944 0.94076 0.0
C413 C 0.57892 0.53362 0.85296 0.0
C414 C 0.61952 0.60133 0.0897 0.0
C415 C 0.54751 0.51966 0.09277 0.0
O416 O 0.57161 0.52659 0.07892 0.0
O417 O 0.53838 0.53327 0.06116 0.0
O418 O 0.59705 0.5313 0.89017 0.0
O419 O 0.57157 0.54827 0.88797 0.0
O420 O 0.06133 0.61547 0.64551 0.0
Cd421 Cd 0.1024 0.64142 0.63145 0.0
Cd422 Cd 0.09649 0.59411 0.56307 0.0
O423 O 0.05619 0.57951 0.58312 0.0
O424 O 0.11083 0.67951 0.63333 0.0
O425 O 0.11699 0.66156 0.52273 0.0
C426 C 0.11774 0.68184 0.55659 0.0
C427 C 0.11117 0.57643 0.45956 0.0
C428 C 0.04644 0.59101 0.6232 0.0
C429 C 0.12496 0.61496 0.72981 0.0
O430 O 0.11609 0.59805 0.67114 0.0
O431 O 0.12335 0.63569 0.72601 0.0
O432 O 0.09601 0.56198 0.51936 0.0
O433 O 0.11656 0.60068 0.45434 0.0
O434 O 0.4317 0.43312 0.60787 0.0
Cd435 Cd 0.45121 0.46031 0.52025 0.0
Cd436 Cd 0.46705 0.42692 0.48605 0.0
O437 O 0.42725 0.39996 0.53144 0.0
O438 O 0.42628 0.47362 0.49407 0.0
O439 O 0.4288 0.44375 0.41835 0.0
C440 C 0.41612 0.45547 0.4364 0.0
C441 C 0.48662 0.44441 0.35443 0.0
C442 C 0.41914 0.40833 0.59075 0.0
C443 C 0.50363 0.47236 0.59112 0.0
O444 O 0.49384 0.44738 0.58064 0.0
O445 O 0.49269 0.48366 0.55497 0.0
O446 O 0.48461 0.42269 0.38096 0.0
O447 O 0.4759 0.45426 0.39875 0.0
O448 O 0.55455 0.93217 0.78916 0.0
Cd449 Cd 0.54138 0.89166 0.7707 0.0
Cd450 Cd 0.49 0.90337 0.7133 0.0
O451 O 0.52116 0.93921 0.76413 0.0
O452 O 0.57253 0.88668 0.77133 0.0
O453 O 0.54664 0.87836 0.6616 0.0
C454 C 0.56716 0.87932 0.69476 0.0
C455 C 0.46221 0.89911 0.60422 0.0
C456 C 0.54499 0.94729 0.7893 0.0
C457 C 0.49069 0.86734 0.82823 0.0
O458 O 0.48962 0.87062 0.75135 0.0
O459 O 0.51086 0.86679 0.8523 0.0
O460 O 0.45504 0.89918 0.67976 0.0
O461 O 0.48556 0.90259 0.59151 0.0
O462 O 0.28463 0.36609 0.15537 0.0
Cd463 Cd 0.26709 0.37425 0.24639 0.0
Cd464 Cd 0.24991 0.32537 0.28657 0.0
O465 O 0.28874 0.33847 0.23685 0.0
O466 O 0.29541 0.41316 0.27644 0.0
O467 O 0.28937 0.37782 0.34501 0.0
C468 C 0.30432 0.4032 0.32957 0.0
C469 C 0.23166 0.3184 0.42122 0.0
C470 C 0.29681 0.35445 0.17479 0.0
C471 C 0.21248 0.33208 0.18692 0.0
O472 O 0.22181 0.31719 0.19742 0.0
O473 O 0.22511 0.35587 0.21801 0.0
O474 O 0.23261 0.29949 0.38391 0.0
O475 O 0.24254 0.34131 0.38501 0.0
O476 O 0.67709 0.90643 0.30966 0.0
Cd477 Cd 0.67549 0.87977 0.38857 0.0
Cd478 Cd 0.72905 0.9212 0.40906 0.0
O479 O 0.71236 0.9431 0.36202 0.0
O480 O 0.63626 0.85572 0.42237 0.0
O481 O 0.66729 0.88846 0.50054 0.0
C482 C 0.64234 0.87035 0.48839 0.0
C483 C 0.73361 0.90252 0.5326 0.0
C484 C 0.69183 0.93178 0.31367 0.0
C485 C 0.72082 0.87759 0.30516 0.0
O486 O 0.73509 0.90291 0.31384 0.0
O487 O 0.6982 0.86355 0.34304 0.0
O488 O 0.75356 0.92561 0.5087 0.0
O489 O 0.71156 0.89281 0.49271 0.0
O490 O 0.07924 0.79124 0.36791 0.0
Cd491 Cd 0.11487 0.80004 0.31922 0.0
Cd492 Cd 0.08471 0.83652 0.39017 0.0
O493 O 0.04991 0.80134 0.34666 0.0
O494 O 0.11943 0.76849 0.29952 0.0
O495 O 0.134 0.79372 0.41148 0.0
C496 C 0.12925 0.77235 0.37342 0.0
C497 C 0.09902 0.85232 0.525 0.0
C498 C 0.05785 0.78557 0.33073 0.0
C499 C 0.13102 0.85734 0.25305 0.0
O500 O 0.11368 0.85812 0.29847 0.0
O501 O 0.13461 0.83757 0.25463 0.0
O502 O 0.08763 0.86176 0.48052 0.0
O503 O 0.09973 0.83235 0.4957 0.0
C504 C 0.23298 1.00543 0.24349 0.0
C505 C 0.23139 1.00026 0.3289 0.0
H506 H 0.25007 0.03477 0.14651 0.0
C507 C 0.24519 0.02244 0.38286 0.0
H508 H 0.22289 0.98899 0.19996 0.0
C509 C 0.26152 0.04877 0.35208 0.0
C510 C 0.26382 0.05382 0.26647 0.0
H511 H 0.24485 0.01929 0.44895 0.0
H512 H 0.27311 0.06508 0.39524 0.0
C513 C 0.24857 0.03183 0.21285 0.0
C514 C 0.02224 0.24345 0.3 0.0
C515 C 1.01814 0.24207 0.2138 0.0
H516 H 0.05042 0.26101 0.40049 0.0
C517 C 0.04096 0.25476 0.16252 0.0
H518 H 1.00524 0.23417 0.34162 0.0
C519 C 0.06698 0.26984 0.19641 0.0
C520 C 0.07094 0.27312 0.28261 0.0
H521 H 0.03866 0.25426 0.09596 0.0
H522 H 0.08385 0.28049 0.15473 0.0
C523 C 0.04824 0.25896 0.33391 0.0
C524 C 0.78166 0.78778 0.2794 0.0
C525 C 0.75367 0.77267 0.29318 0.0
H526 H 0.81621 0.78767 0.23481 0.0
C527 C 0.73936 0.74526 0.27231 0.0
H528 H 0.79341 0.80889 0.29534 0.0
C529 C 0.75235 0.73313 0.24053 0.0
C530 C 0.78022 0.74791 0.22662 0.0
H531 H 0.71789 0.73271 0.28214 0.0
H532 H 0.74019 0.71193 0.2258 0.0
C533 C 0.79477 0.77558 0.24549 0.0
C534 C 0.77421 0.96757 0.75568 0.0
C535 C 0.77136 0.96278 0.84138 0.0
H536 H 0.78853 0.9966 0.65787 0.0
C537 C 0.78331 0.98518 0.89478 0.0
H538 H 0.76528 0.95101 0.7125 0.0
C539 C 0.79608 1.01151 0.86334 0.0
C540 C 0.79802 0.01621 0.77754 0.0
H541 H 0.78119 0.98233 0.96112 0.0
H542 H 0.80356 0.02813 0.90629 0.0
C543 C 0.78773 0.99388 0.72427 0.0
C544 C 1.01103 0.80076 0.79544 0.0
C545 C 0.03445 0.80481 0.75755 0.0
H546 H 0.96828 0.78317 0.78599 0.0
C547 C 0.03265 0.79686 0.67452 0.0
H548 H 1.01153 0.80613 0.85977 0.0
C549 C 1.00806 0.78444 0.63145 0.0
C550 C 0.98419 0.77864 0.67087 0.0
H551 H 0.05012 0.7993 0.64362 0.0
H552 H 1.00747 0.77773 0.56866 0.0
C553 C 0.98616 0.78748 0.75314 0.0
C554 C 0.27123 0.2508 0.71338 0.0
C555 C 0.28284 0.25712 0.6341 0.0
H556 H 0.25247 0.26046 0.80877 0.0
C557 C 0.27884 0.27412 0.58353 0.0
H558 H 0.27388 0.23777 0.754 0.0
C559 C 0.26675 0.28724 0.61514 0.0
C560 C 0.25811 0.28346 0.69775 0.0
H561 H 0.28726 0.27928 0.52189 0.0
H562 H 0.26629 0.30208 0.57695 0.0
C563 C 0.25887 0.2638 0.74483 0.0
C564 C 0.90377 0.26082 0.49787 0.0
C565 C 0.88879 0.25267 0.57156 0.0
H566 H 0.9203 0.28905 0.39857 0.0
C567 C 0.87782 0.26747 0.59927 0.0
H568 H 0.91311 0.25044 0.47535 0.0
C569 C 0.88289 0.29057 0.55632 0.0
C570 C 0.89851 0.29898 0.4837 0.0
H571 H 0.86658 0.26209 0.65645 0.0
H572 H 0.87509 0.30216 0.58096 0.0
C573 C 0.90815 0.28327 0.45396 0.0
C574 C 0.66487 0.57588 0.54539 0.0
C575 C 0.64359 0.57484 0.58865 0.0
H576 H 0.70751 0.59308 0.53779 0.0
C577 C 0.64933 0.58787 0.66579 0.0
H578 H 0.66132 0.56645 0.48526 0.0
C579 C 0.67575 0.60283 0.69649 0.0
C580 C 0.69741 0.60571 0.65026 0.0
H581 H 0.63353 0.58766 0.70067 0.0
H582 H 0.67936 0.61363 0.75414 0.0
C583 C 0.69146 0.59131 0.57541 0.0
C584 C 0.44772 0.17976 0.5994 0.0
C585 C 0.41979 0.16323 0.58665 0.0
H586 H 0.48701 0.18911 0.56314 0.0
C587 C 0.4104 0.14339 0.52463 0.0
H588 H 0.45571 0.19495 0.64738 0.0
C589 C 0.42823 0.14078 0.47476 0.0
C590 C 0.45603 0.157 0.48793 0.0
H591 H 0.3891 0.12947 0.51487 0.0
H592 H 0.42013 0.12533 0.42755 0.0
C593 C 0.46565 0.17641 0.55127 0.0
C594 C 0.445 0.33694 0.0499 0.0
C595 C 0.42133 0.32654 0.09667 0.0
H596 H 0.47698 0.37137 0.98573 0.0
C597 C 0.41347 0.34425 0.12116 0.0
H598 H 0.45176 0.3239 0.03067 0.0
C599 C 0.42825 0.37131 0.09851 0.0
C600 C 0.45121 0.38171 0.04855 0.0
H601 H 0.39569 0.33718 0.15863 0.0
H602 H 0.42093 0.38386 0.11791 0.0
C603 C 0.45954 0.36418 0.0248 0.0
C604 C 0.76264 0.15241 0.12029 0.0
C605 C 0.77671 0.141 0.08942 0.0
H606 H 0.72854 0.15635 0.10666 0.0
C607 C 0.76777 0.12645 1.01486 0.0
H608 H 0.76867 0.16342 0.17808 0.0
C609 C 0.74516 0.1228 0.97337 0.0
C610 C 0.73022 0.13293 1.00627 0.0
H611 H 0.77753 0.11678 0.99 0.0
H612 H 0.73866 0.11086 0.91732 0.0
C613 C 0.73951 0.1482 0.0796 0.0
C614 C 0.86351 0.60122 0.97421 0.0
C615 C 0.86828 0.60291 0.05993 0.0
H616 H 0.86248 0.58273 0.85909 0.0
C617 C 0.873 0.58408 0.09631 0.0
H618 H 0.85964 0.61513 0.94399 0.0
C619 C 0.87447 0.56517 0.0473 0.0
C620 C 0.87149 0.5648 0.96075 0.0
H621 H 0.8769 0.58481 0.16204 0.0
H622 H 0.87923 0.55171 0.07681 0.0
C623 C 0.86524 0.58259 0.92529 0.0
C624 C 0.59836 0.6843 0.92387 0.0
C625 C 0.61394 0.69134 0.85139 0.0
H626 H 0.57205 0.65286 1.00798 0.0
C627 C 0.6118 0.67044 0.80273 0.0
H628 H 0.59955 0.69976 0.96327 0.0
C629 C 0.59636 0.64362 0.82894 0.0
C630 C 0.58209 0.63669 0.90393 0.0
H631 H 0.62351 0.6749 0.74677 0.0
H632 H 0.59684 0.62849 0.79236 0.0
C633 C 0.58249 0.6573 0.94948 0.0
C634 C 0.29716 0.90943 0.14053 0.0
C635 C 0.31367 0.90119 0.10707 0.0
H636 H 0.26411 0.91443 0.12175 0.0
C637 C 0.30666 0.88831 0.0294 0.0
H638 H 0.3018 0.91937 0.20009 0.0
C639 C 0.28444 0.88488 0.98494 0.0
C640 C 0.26899 0.89465 0.01649 0.0
H641 H 0.31883 0.88162 1.00179 0.0
H642 H 0.2803 0.87593 0.92391 0.0
C643 C 0.27536 0.90646 0.0956 0.0
C644 C 0.1821 0.44225 0.93616 0.0
C645 C 0.17001 0.41457 0.94996 0.0
H646 H 0.18536 0.47884 0.97458 0.0
C647 C 0.15323 0.40308 0.01923 0.0
H648 H 0.19488 0.45164 0.8829 0.0
C649 C 0.14842 0.41873 0.07289 0.0
C650 C 0.15938 0.4461 0.05691 0.0
H651 H 0.14347 0.3818 0.03152 0.0
H652 H 0.13519 0.40909 0.1251 0.0
C653 C 0.17649 0.45777 0.98833 0.0
C654 C 0.12315 0.70581 0.42123 0.0
C655 C 0.12455 0.70635 0.50824 0.0
H656 H 0.12355 0.72609 0.31021 0.0
C657 C 0.13052 0.73003 0.54908 0.0
H658 H 0.11855 0.68793 0.38761 0.0
C659 C 0.13391 0.7521 0.50461 0.0
C660 C 0.13096 0.75102 0.41796 0.0
H661 H 0.13189 0.73129 0.61591 0.0
H662 H 0.13755 0.76954 0.53881 0.0
C663 C 0.12608 0.72775 0.37673 0.0
C664 C 0.37376 0.41737 0.37584 0.0
C665 C 0.38828 0.44418 0.40328 0.0
H666 H 0.33634 0.38378 0.33435 0.0
C667 C 0.37478 0.45803 0.40628 0.0
H668 H 0.38311 0.40578 0.37354 0.0
C669 C 0.34752 0.44528 0.38157 0.0
C670 C 0.33301 0.41812 0.35703 0.0
H671 H 0.38522 0.47861 0.42787 0.0
H672 H 0.33767 0.45639 0.38356 0.0
C673 C 0.34664 0.40453 0.35434 0.0
C674 C 0.5771 0.86109 0.56766 0.0
C675 C 0.58504 0.87379 0.64545 0.0
H676 H 0.58871 0.84923 0.45782 0.0
C677 C 0.61107 0.88271 0.67402 0.0
H678 H 0.55716 0.85387 0.54392 0.0
C679 C 0.6292 0.88047 0.6243 0.0
C680 C 0.62163 0.86857 0.54542 0.0
H681 H 0.61793 0.89259 0.73349 0.0
H682 H 0.64948 0.88891 0.64686 0.0
C683 C 0.59512 0.85825 0.51854 0.0
C684 C 0.37776 0.2302 0.96435 0.0
C685 C 0.39265 0.23061 0.89585 0.0
H686 H 0.35608 0.20885 0.07464 0.0
C687 C 0.39776 0.21007 0.88788 0.0
H688 H 0.37442 0.24638 0.97326 0.0
C689 C 0.38687 0.18875 0.94404 0.0
C690 C 0.37067 0.18743 1.01014 0.0
H691 H 0.40928 0.20988 0.83613 0.0
H692 H 0.39105 0.17311 0.93547 0.0
C693 C 0.36699 0.2088 0.0213 0.0
C694 C 0.83418 0.14173 0.96203 0.0
C695 C 0.82825 0.15173 0.89233 0.0
H696 H 0.86014 0.15087 0.06787 0.0
C697 C 0.84422 0.17954 0.87726 0.0
H698 H 0.82151 0.12068 0.97687 0.0
C699 C 0.86619 0.19649 0.92922 0.0
C700 C 0.87302 0.18587 0.99588 0.0
H701 H 0.84014 0.18808 0.82433 0.0
H702 H 0.87769 0.21787 0.91771 0.0
C703 C 0.85621 0.15862 1.01312 0.0
C704 C 0.86325 0.66295 0.90677 0.0
C705 C 0.8487 0.6462 0.83995 0.0
H706 H 0.86167 0.68103 0.02092 0.0
C707 C 0.82053 0.63252 0.84205 0.0
H708 H 0.88491 0.67309 0.90794 0.0
C709 C 0.80749 0.63721 0.90623 0.0
C710 C 0.82231 0.65566 0.96999 0.0
H711 H 0.80861 0.61952 0.7914 0.0
H712 H 0.78586 0.62747 0.90321 0.0
C713 C 0.85013 0.66758 0.97095 0.0
C714 C 0.23303 0.38549 0.62306 0.0
C715 C 0.25871 0.39258 0.59653 0.0
H716 H 0.19245 0.37222 0.58885 0.0
C717 C 0.26383 0.39457 0.5114 0.0
H718 H 0.229 0.38481 0.68852 0.0
C719 C 0.24312 0.38824 0.45419 0.0
C720 C 0.21671 0.37857 0.48117 0.0
H721 H 0.28352 0.40027 0.48949 0.0
H722 H 0.24753 0.39015 0.38868 0.0
C723 C 0.21213 0.37808 0.56628 0.0
C724 C 0.67055 0.83678 0.5622 0.0
C725 C 0.66016 0.80933 0.56822 0.0
H726 H 0.67975 0.87282 0.62614 0.0
C727 C 0.64499 0.79572 0.63896 0.0
H728 H 0.68091 0.84695 0.50655 0.0
C729 C 0.64236 0.80993 0.70443 0.0
C730 C 0.6554 0.83805 0.70129 0.0
H731 H 0.63648 0.77438 0.64594 0.0
H732 H 0.63181 0.79918 0.75985 0.0
C733 C 0.66921 0.8512 0.62915 0.0
C734 C 0.14935 0.83573 0.54821 0.0
C735 C 0.17421 0.85858 0.56908 0.0
H736 H 0.11459 0.79855 0.59024 0.0
C737 C 0.18511 0.85943 0.64727 0.0
H738 H 0.14153 0.83412 0.48663 0.0
C739 C 0.17053 0.83891 0.70529 0.0
C740 C 0.14481 0.81671 0.68634 0.0
H741 H 0.20473 0.87638 0.66433 0.0
H742 H 0.17885 0.84103 0.7667 0.0
C743 C 0.1345 0.81512 0.60649 0.0
C744 C 0.6732 0.79797 0.06138 0.0
C745 C 0.67479 0.82213 0.07996 0.0
H746 H 0.66819 0.76135 0.10996 0.0
C747 C 0.66731 0.82531 0.1593 0.0
H748 H 0.67717 0.79425 0.99911 0.0
C749 C 0.66083 0.80611 0.22077 0.0
C750 C 0.66155 0.78303 0.20502 0.0
H751 H 0.66734 0.84323 0.17472 0.0
H752 H 0.65688 0.81018 0.2827 0.0
C753 C 0.66714 0.77873 0.12393 0.0
C754 C 0.16807 0.82843 0.12131 0.0
C755 C 0.16622 0.8421 0.05247 0.0
H756 H 0.1869 0.83157 0.23872 0.0
C757 C 0.18506 0.8695 0.04591 0.0
H758 H 0.15412 0.80701 0.12807 0.0
C759 C 0.20328 0.88378 0.11069 0.0
C760 C 0.20411 0.87056 0.18152 0.0
H761 H 0.18477 0.87956 0.99094 0.0
H762 H 0.21645 0.90533 0.10683 0.0
C763 C 0.18695 0.84248 0.18476 0.0
C764 C 0.21198 0.37375 0.96328 0.0
C765 C 0.23981 0.38959 0.95553 0.0
H766 H 0.17718 0.36771 0.0254 0.0
C767 C 0.25424 0.41246 1.00644 0.0
H768 H 0.2007 0.35642 0.92421 0.0
C769 C 0.24101 0.41829 0.0668 0.0
C770 C 0.21308 0.40155 0.07662 0.0
H771 H 0.27589 0.42527 1.00207 0.0
H772 H 0.25279 0.43512 0.10809 0.0
C773 C 0.19874 0.37994 0.02202 0.0
C774 C 0.7937 0.66627 0.41107 0.0
C775 C 0.797 0.65922 0.33081 0.0
H776 H 0.81092 0.67874 0.53367 0.0
C777 C 0.81994 0.65834 0.31452 0.0
H778 H 0.77629 0.6672 0.42563 0.0
C779 C 0.84008 0.66633 0.37425 0.0
C780 C 0.83816 0.67587 0.45157 0.0
H781 H 0.82303 0.65288 0.25347 0.0
H782 H 0.85755 0.66548 0.3596 0.0
C783 C 0.8139 0.67383 0.47175 0.0
C784 C 0.38097 0.17642 0.45031 0.0
C785 C 0.38733 0.18278 0.36699 0.0
H786 H 0.3773 0.19044 0.56964 0.0
C787 C 0.39338 0.20805 0.33882 0.0
H788 H 0.37474 0.15667 0.4721 0.0
C789 C 0.39161 0.22585 0.39268 0.0
C790 C 0.38489 0.21903 0.47609 0.0
H791 H 0.39795 0.21335 0.27421 0.0
H792 H 0.39527 0.24469 0.36918 0.0
C793 C 0.38115 0.19498 0.50487 0.0
C794 C 0.82695 0.15465 0.45797 0.0
C795 C 0.842 0.15108 0.51866 0.0
H796 H 0.82737 0.17763 0.35439 0.0
C797 C 0.86957 0.16956 0.52264 0.0
H798 H 0.80535 0.14105 0.45468 0.0
C799 C 0.88211 0.19092 0.46607 0.0
C800 C 0.86736 0.19402 0.40375 0.0
H801 H 0.88094 0.16769 0.57138 0.0
H802 H 0.90338 0.20533 0.4713 0.0
C803 C 0.83946 0.17583 0.40123 0.0
C804 C 0.89921 0.39465 0.12151 0.0
C805 C 0.89355 0.40128 0.19912 0.0
H806 H 0.90592 0.40437 0.99211 0.0
C807 C 0.88697 0.42095 0.20303 0.0
H808 H 0.90461 0.37979 0.11649 0.0
C809 C 0.88846 0.43541 0.1329 0.0
C810 C 0.89612 0.4303 0.05655 0.0
H811 H 0.88232 0.42645 0.26166 0.0
H812 H 0.88437 0.4512 0.1392 0.0
C813 C 0.90034 0.40899 0.05056 0.0
C814 C 0.51155 0.5441 0.2352 0.0
C815 C 0.50959 0.53279 0.31354 0.0
H816 H 0.4957 0.53807 0.11177 0.0
C817 C 0.48725 0.50706 0.32946 0.0
H818 H 0.52829 0.5641 0.22109 0.0
C819 C 0.46885 0.49177 0.26587 0.0
C820 C 0.4718 0.50259 0.18625 0.0
H821 H 0.48446 0.49886 0.39092 0.0
H822 H 0.45277 0.47132 0.27807 0.0
C823 C 0.49283 0.52922 0.17256 0.0
C824 C 0.55928 0.12957 0.11623 0.0
C825 C 0.58404 0.13247 0.13521 0.0
H826 H 0.52947 0.13806 0.15065 0.0
C827 C 0.59811 0.1473 0.20581 0.0
H828 H 0.54795 0.11844 0.06202 0.0
C829 C 0.58744 0.15862 0.25674 0.0
C830 C 0.56262 0.15556 0.23792 0.0
H831 H 0.61729 0.15008 0.22195 0.0
H832 H 0.59858 0.16971 0.31125 0.0
C833 C 0.54877 0.14108 0.16662 0.0
C834 C 0.87289 0.71327 0.78114 0.0
C835 C 0.84928 0.71131 0.80918 0.0
H836 H 0.91205 0.72105 0.81387 0.0
C837 C 0.84905 0.71998 0.8899 0.0
H838 H 0.8741 0.7079 0.71796 0.0
C839 C 0.87123 0.7289 0.94285 0.0
C840 C 0.89405 0.72891 0.91708 0.0
H841 H 0.83167 0.71988 0.91208 0.0
H842 H 0.86997 0.73448 1.00574 0.0
C843 C 0.89487 0.72147 0.83508 0.0
C844 C 0.3254 0.21411 0.84423 0.0
C845 C 0.31865 0.18764 0.85807 0.0
H846 H 0.33138 0.25039 0.89861 0.0
C847 C 0.30654 0.17554 0.93386 0.0
H848 H 0.3331 0.22334 0.78469 0.0
C849 C 0.30436 0.19048 0.99754 0.0
C850 C 0.31412 0.2179 0.98724 0.0
H851 H 0.30071 0.15507 0.9465 0.0
H852 H 0.29737 0.1812 0.05762 0.0
C853 C 0.32356 0.22929 0.90857 0.0
C854 C 0.89751 0.14085 0.93937 0.0
C855 C 0.88332 0.13668 0.86481 0.0
H856 H 0.89589 0.12928 0.06597 0.0
C857 C 0.8579 0.11301 0.85682 0.0
H858 H 0.91735 0.15864 0.94782 0.0
C859 C 0.84554 0.09589 0.92557 0.0
C860 C 0.85864 0.10201 1.00271 0.0
H861 H 0.84723 0.10863 0.7988 0.0
H862 H 0.82484 0.07947 0.92111 0.0
C863 C 0.88533 0.1238 1.00729 0.0
C864 C 0.32423 0.1654 0.3398 0.0
C865 C 0.32272 0.18824 0.34964 0.0
H866 H 0.32154 0.13121 0.39976 0.0
C867 C 0.31359 0.1919 0.42596 0.0
H868 H 0.33033 0.16166 0.28097 0.0
C869 C 0.30858 0.17477 0.49276 0.0
C870 C 0.31174 0.15293 0.48491 0.0
H871 H 0.31191 0.20912 0.43596 0.0
H872 H 0.30363 0.1795 0.5522 0.0
C873 C 0.31872 0.1478 0.40701 0.0
C874 C 0.93521 0.18971 0.42406 0.0
C875 C 0.9325 0.17672 0.49991 0.0
H876 H 0.91851 0.18675 0.30252 0.0
C877 C 0.91345 0.14902 0.50466 0.0
H878 H 0.94955 0.2111 0.41846 0.0
C879 C 0.89529 0.13542 0.43962 0.0
C880 C 0.8956 0.14916 0.3679 0.0
H881 H 0.91057 0.13845 0.56233 0.0
H882 H 0.87947 0.11463 0.4489 0.0
C883 C 0.91697 0.17598 0.35844 0.0
C884 C 0.83569 0.72896 0.3352 0.0
C885 C 0.84864 0.74106 0.41004 0.0
H886 H 0.83931 0.71442 0.21658 0.0
C887 C 0.87526 0.74804 0.42193 0.0
H888 H 0.81529 0.72365 0.32436 0.0
C889 C 0.88762 0.74051 0.36375 0.0
C890 C 0.87372 0.72639 0.29222 0.0
H891 H 0.88575 0.75737 0.47914 0.0
H892 H 0.90758 0.74468 0.37632 0.0
C893 C 0.84867 0.72261 0.27547 0.0
C894 C 0.63338 0.13445 0.65336 0.0
C895 C 0.62725 0.14034 0.73141 0.0
H896 H 0.62321 0.12799 0.52406 0.0
C897 C 0.60828 0.14785 0.73615 0.0
H898 H 0.64772 0.12839 0.64767 0.0
C899 C 0.59391 0.14697 0.66639 0.0
C900 C 0.5984 0.13899 0.58962 0.0
H901 H 0.60322 0.15274 0.79512 0.0
H902 H 0.57856 0.15165 0.67333 0.0
C903 C 0.61911 0.1339 0.5828 0.0
C904 C 0.88637 0.42747 0.67404 0.0
C905 C 0.9014 0.44238 0.60502 0.0
H906 H 0.8626 0.42513 0.77809 0.0
C907 C 0.90336 0.46679 0.58769 0.0
H908 H 0.8843 0.40854 0.68894 0.0
C909 C 0.89057 0.47602 0.63779 0.0
C910 C 0.87574 0.46124 0.70723 0.0
H911 H 0.91464 0.47876 0.53481 0.0
H912 H 0.89285 0.49506 0.62309 0.0
C913 C 0.87381 0.43689 0.72479 0.0
C914 C 0.53756 0.56614 0.76221 0.0
C915 C 0.52894 0.56026 0.67962 0.0
H916 H 0.5305 0.55181 0.88843 0.0
C917 C 0.5057 0.53525 0.66163 0.0
H918 H 0.55541 0.5852 0.77721 0.0
C919 C 0.49234 0.51595 0.7237 0.0
C920 C 0.50198 0.5211 0.80541 0.0
H921 H 0.4986 0.53016 0.59843 0.0
H922 H 0.4749 0.49659 0.70727 0.0
C923 C 0.52388 0.54685 0.82492 0.0
C924 C 0.7331 0.8611 0.56838 0.0
C925 C 0.7357 0.88513 0.59498 0.0
H926 H 0.72375 0.82163 0.60169 0.0
C927 C 0.73351 0.88849 0.67968 0.0
H928 H 0.73455 0.85786 0.50317 0.0
C929 C 0.72767 0.86786 0.73627 0.0
C930 C 0.72249 0.8429 0.70839 0.0
H931 H 0.73448 0.90629 0.70072 0.0
H932 H 0.72591 0.87091 0.80139 0.0
C933 C 0.72635 0.84015 0.62431 0.0
C934 C 0.13378 0.86615 0.73355 0.0
C935 C 0.15563 0.89242 0.7226 0.0
H936 H 0.0987 0.83227 0.67824 0.0
C937 C 0.15591 0.90664 0.6522 0.0
H938 H 0.13246 0.8557 0.78965 0.0
C939 C 0.13593 0.89408 0.59132 0.0
C940 C 0.11545 0.86691 0.59871 0.0
H941 H 0.1723 0.92714 0.64207 0.0
H942 H 0.13763 0.9051 0.53563 0.0
C943 C 0.11419 0.85323 0.67132 0.0
C944 C 0.17414 0.30354 0.5617 0.0
C945 C 0.18758 0.31619 0.63598 0.0
H946 H 0.17766 0.29398 0.4359 0.0
C947 C 0.21489 0.32539 0.64242 0.0
H948 H 0.15303 0.29618 0.55402 0.0
C949 C 0.22922 0.32499 0.57338 0.0
C950 C 0.2161 0.31376 0.49817 0.0
H951 H 0.22523 0.3343 0.69976 0.0
H952 H 0.25078 0.33465 0.57696 0.0
C953 C 0.18824 0.30228 0.49373 0.0
C954 C 0.42349 0.89993 0.54034 0.0
C955 C 0.4444 0.89512 0.53343 0.0
H956 H 0.39459 0.90506 0.47567 0.0
C957 C 0.44902 0.88733 0.45651 0.0
H958 H 0.41927 0.90568 0.59917 0.0
C959 C 0.43454 0.88631 0.38681 0.0
C960 C 0.41531 0.89348 0.3917 0.0
H961 H 0.46453 0.88287 0.44942 0.0
H962 H 0.4397 0.88156 0.32777 0.0
C963 C 0.40911 0.89923 0.46984 0.0
C964 C 0.13897 0.58078 0.33516 0.0
C965 C 0.12351 0.56595 0.40367 0.0
H966 H 0.16318 0.58286 0.23277 0.0
C967 C 0.12116 0.54141 0.42175 0.0
H968 H 0.14133 0.59981 0.31976 0.0
C969 C 0.13404 0.532 0.37304 0.0
C970 C 0.14935 0.54672 0.30421 0.0
H971 H 0.10953 0.52949 0.47428 0.0
H972 H 0.1315 0.51289 0.38838 0.0
C973 C 0.15161 0.57117 0.28569 0.0
C974 C 0.5273 0.48577 0.30234 0.0
C975 C 0.50422 0.46065 0.28448 0.0
H976 H 0.55848 0.52411 0.25606 0.0
C977 C 0.4965 0.45399 0.20132 0.0
H978 H 0.5339 0.49125 0.3658 0.0
C979 C 0.51086 0.47285 0.13795 0.0
C980 C 0.53241 0.49886 0.15722 0.0
H981 H 0.4789 0.43468 0.18597 0.0
H982 H 0.50495 0.46738 0.0741 0.0
C983 C 0.54123 0.50461 0.23965 0.0
C984 C 0.13833 0.58673 0.80295 0.0
C985 C 0.13222 0.60675 0.80734 0.0
H986 H 0.14102 0.55649 0.86651 0.0
C987 C 0.12735 0.61381 0.88545 0.0
H988 H 0.14233 0.58085 0.74394 0.0
C989 C 0.12661 0.59966 0.95652 0.0
C990 C 0.13048 0.57811 0.95034 0.0
H991 H 0.12228 0.62891 0.89091 0.0
H992 H 0.12165 0.60467 1.01541 0.0
C993 C 0.13729 0.5725 0.87323 0.0
C994 C 0.56473 0.52904 0.70376 0.0
C995 C 0.56372 0.51707 0.77987 0.0
H996 H 0.54767 0.52312 0.5812 0.0
C997 C 0.54448 0.48959 0.79006 0.0
H998 H 0.57919 0.55022 0.6948 0.0
C999 C 0.52563 0.47485 0.72744 0.0
C1000 C 0.52576 0.48721 0.65275 0.0
H1001 H 0.54291 0.47989 0.84854 0.0
H1002 H 0.51014 0.4541 0.73915 0.0
C1003 C 0.54637 0.51398 0.6401 0.0
C1004 C 0.49245 0.89215 0.95687 0.0
C1005 C 0.47864 0.87776 0.88544 0.0
H1006 H 0.49338 0.91489 0.06125 0.0
C1007 C 0.45401 0.87504 0.86593 0.0
H1008 H 0.51162 0.89493 0.97331 0.0
C1009 C 0.44346 0.88654 0.91658 0.0
C1010 C 0.45748 0.90123 0.98743 0.0
H1011 H 0.44293 0.86404 0.81126 0.0
H1012 H 0.4244 0.88399 0.90011 0.0
C1013 C 0.48209 0.90386 1.00687 0.0
C1014 C 0.17017 0.3028 0.99318 0.0
C1015 C 0.15023 0.30878 1.00243 0.0
H1016 H 0.20531 0.30579 0.04319 0.0
C1017 C 0.14849 0.31928 0.07887 0.0
H1018 H 0.17239 0.29519 0.93473 0.0
C1019 C 0.16818 0.32631 0.14091 0.0
C1020 C 0.18957 0.32257 0.12779 0.0
H1021 H 0.13368 0.32462 0.08739 0.0
H1022 H 0.16732 0.33554 0.19761 0.0
C1023 C 0.1894 0.30939 0.05502 0.0
C1024 C 0.73049 0.8264 0.19563 0.0
C1025 C 0.74366 0.84023 0.12311 0.0
H1026 H 0.71502 0.82877 0.31393 0.0
C1027 C 0.75178 0.86726 0.11521 0.0
H1028 H 0.72418 0.80559 0.20321 0.0
C1029 C 0.74489 0.87954 0.17556 0.0
C1030 C 0.73025 0.86519 0.24591 0.0
H1031 H 0.76178 0.87835 0.05961 0.0
H1032 H 0.75004 0.89992 0.16531 0.0
C1033 C 0.72454 0.83914 0.25752 0.0
C1034 C 0.15242 0.89743 0.05272 0.0
C1035 C 0.17687 0.92086 0.07511 0.0
H1036 H 0.11932 0.8587 0.09082 0.0
C1037 C 0.18443 0.92454 0.15881 0.0
H1038 H 0.14615 0.89382 0.9885 0.0
C1039 C 0.16891 0.90439 0.21763 0.0
C1040 C 0.14619 0.87975 0.19308 0.0
H1041 H 0.20335 0.94203 0.17713 0.0
H1042 H 0.17537 0.90745 0.28156 0.0
C1043 C 0.13733 0.87706 0.1109 0.0
C1044 C 0.37786 0.10358 0.89113 0.0
C1045 C 0.35225 0.093 0.85535 0.0
H1046 H 0.39941 0.10778 1.00224 0.0
C1047 C 0.33037 0.06997 0.89059 0.0
H1048 H 0.39539 0.1207 0.86341 0.0
C1049 C 0.33313 0.06185 0.96966 0.0
C1050 C 0.35701 0.07831 1.01535 0.0
H1051 H 0.31052 0.06085 0.86354 0.0
H1052 H 0.31499 0.04709 1.00156 0.0
C1053 C 0.38032 0.09574 0.9706 0.0
C1054 C 0.97278 0.27758 0.03585 0.0
C1055 C 0.95118 0.27869 0.068 0.0
H1056 H 0.98724 0.26526 0.93367 0.0
C1057 C 0.93209 0.27711 1.01254 0.0
H1058 H 0.98898 0.28112 0.07628 0.0
C1059 C 0.93217 0.27016 0.93008 0.0
C1060 C 0.9507 0.26365 0.90179 0.0
H1061 H 0.91563 0.27876 0.03406 0.0
H1062 H 0.91581 0.26705 0.89076 0.0
C1063 C 0.97222 0.26932 0.95376 0.0
C1064 C 0.73428 0.68982 0.78607 0.0
C1065 C 0.7556 0.71502 0.75965 0.0
H1066 H 0.71825 0.66233 0.88864 0.0
C1067 C 0.76907 0.7354 0.81874 0.0
H1068 H 0.72171 0.67477 0.74082 0.0
C1069 C 0.76415 0.72947 0.90255 0.0
C1070 C 0.74835 0.70255 0.92856 0.0
H1071 H 0.785 0.75541 0.80101 0.0
H1072 H 0.77689 0.74513 0.94647 0.0
C1073 C 0.7313 0.68312 0.87052 0.0
C1074 C 0.10289 0.34921 0.54235 0.0
C1075 C 0.12 0.36859 0.60045 0.0
H1076 H 0.09256 0.3409 0.41345 0.0
C1077 C 0.13577 0.39559 0.57483 0.0
H1078 H 0.09017 0.32834 0.56003 0.0
C1079 C 0.13865 0.40218 0.49097 0.0
C1080 C 0.12507 0.38195 0.43138 0.0
H1081 H 0.1488 0.41115 0.61858 0.0
H1082 H 0.15352 0.42257 0.47295 0.0
C1083 C 0.10502 0.35615 0.45829 0.0
C1084 C 0.69339 0.72341 0.66202 0.0
C1085 C 0.71269 0.74122 0.60529 0.0
H1086 H 0.68424 0.71394 0.79125 0.0
C1087 C 0.73931 0.75825 0.63326 0.0
H1088 H 0.6729 0.70943 0.64233 0.0
C1089 C 0.74461 0.76326 0.71744 0.0
C1090 C 0.72401 0.74899 0.775 0.0
H1091 H 0.75495 0.77154 0.59036 0.0
H1092 H 0.76417 0.77984 0.73655 0.0
C1093 C 0.69951 0.7268 0.74703 0.0
C1094 C 0.29053 0.98983 0.58542 0.0
C1095 C 0.29162 0.96839 0.55075 0.0
H1096 H 0.28048 1.00328 0.6946 0.0
C1097 C 0.29924 0.95456 0.60261 0.0
H1098 H 0.28582 1.0017 0.54623 0.0
C1099 C 0.29746 0.95643 0.68845 0.0
C1100 C 0.28728 0.97146 0.72162 0.0
H1101 H 0.30121 0.93858 0.57812 0.0
H1102 H 0.29877 0.9421 0.72686 0.0
C1103 C 0.2874 0.9908 0.67105 0.0
C1104 C 0.70771 0.95839 0.10819 0.0
C1105 C 0.683 0.93809 0.07365 0.0
H1106 H 0.7304 0.97342 0.22031 0.0
C1107 C 0.65983 0.92798 0.1217 0.0
H1108 H 0.72587 0.96733 0.07152 0.0
C1109 C 0.6624 0.93268 0.20723 0.0
C1110 C 0.68814 0.94599 0.24445 0.0
H1111 H 0.64041 0.91285 0.0968 0.0
H1112 H 0.64466 0.9209 0.24499 0.0
C1113 C 0.71037 0.96215 0.19402 0.0
C1114 C 0.03227 0.77154 0.19602 0.0
C1115 C 0.04972 0.77 0.25172 0.0
H1116 H 1.02031 0.76876 0.0697 0.0
C1117 C 0.06192 0.75615 0.22635 0.0
H1118 H 0.02145 0.78091 0.21406 0.0
C1119 C 0.06177 0.74963 0.1427 0.0
C1120 C 0.04855 0.75614 0.08405 0.0
H1121 H 0.07339 0.75241 0.26989 0.0
H1122 H 0.07498 0.74313 0.12294 0.0
C1123 C 0.03117 0.76398 0.11326 0.0
C1124 C 0.31826 0.33917 0.07569 0.0
C1125 C 0.31955 0.36004 0.12126 0.0
H1126 H 0.32212 0.32675 0.95527 0.0
C1127 C 0.33603 0.3865 0.09157 0.0
H1128 H 0.30626 0.31866 0.09745 0.0
C1129 C 0.3446 0.39101 1.00917 0.0
C1130 C 0.33578 0.36891 0.95662 0.0
H1131 H 0.33819 0.40319 0.12692 0.0
H1132 H 0.35233 0.4108 0.9835 0.0
C1133 C 0.32768 0.344 0.99391 0.0
C1134 C 0.95687 0.71693 0.34961 0.0
C1135 C 0.94519 0.69849 0.28396 0.0
H1136 H 0.96076 0.72262 0.48106 0.0
C1137 C 0.92885 0.67106 0.30404 0.0
H1138 H 0.97041 0.73813 0.33732 0.0
C1139 C 0.92191 0.66249 0.38634 0.0
C1140 C 0.93207 0.68109 0.45179 0.0
H1141 H 0.92114 0.65615 0.25567 0.0
H1142 H 0.90824 0.64129 0.39841 0.0
C1143 C 0.95078 0.70818 0.43224 0.0
C1144 C 0.41406 0.32383 0.50564 0.0
C1145 C 0.39392 0.31739 0.5639 0.0
H1146 H 0.42283 0.32311 0.37817 0.0
C1147 C 0.36986 0.31458 0.53626 0.0
H1148 H 0.43334 0.32734 0.52452 0.0
C1149 C 0.3633 0.31105 0.45155 0.0
C1150 C 0.38149 0.31165 0.39455 0.0
H1151 H 0.35488 0.31181 0.58073 0.0
H1152 H 0.343 0.30436 0.43265 0.0
C1153 C 0.408 0.32151 0.42135 0.0
C1154 C 0.73856 0.03424 0.48984 0.0
C1155 C 0.73635 0.05357 0.53495 0.0
H1156 H 0.75742 0.02834 0.38534 0.0
C1157 C 0.73698 0.07417 0.48967 0.0
H1158 H 0.73682 0.01725 0.52198 0.0
C1159 C 0.74874 0.08058 0.41114 0.0
C1160 C 0.75874 0.06567 0.37612 0.0
H1161 H 0.73404 0.08873 0.5206 0.0
H1162 H 0.75311 0.09919 0.38303 0.0
C1163 C 0.75097 0.04087 0.41186 0.0
C1164 C 1.0194 0.42166 0.31756 0.0
C1165 C 1.00684 0.43427 0.351 0.0
H1166 H 0.05275 0.42611 0.24942 0.0
C1167 C 1.01944 0.4622 0.34101 0.0
H1168 H 1.01022 0.40018 0.32347 0.0
C1169 C 0.04348 0.47696 0.29667 0.0
C1170 C 0.05581 0.46429 0.26207 0.0
H1171 H 1.01026 0.4726 0.36497 0.0
H1172 H 0.05249 0.4984 0.28994 0.0
C1173 C 0.04369 0.43651 0.27437 0.0
C1174 C 0.63189 0.64048 0.17542 0.0
C1175 C 0.63887 0.62227 0.1474 0.0
H1176 H 0.61863 0.65237 0.28072 0.0
C1177 C 0.65259 0.61534 0.2023 0.0
H1178 H 0.62216 0.64706 0.13344 0.0
C1179 C 0.65198 0.61987 0.28717 0.0
C1180 C 0.63626 0.62976 0.31635 0.0
H1181 H 0.65896 0.60201 0.18263 0.0
H1182 H 0.65817 0.60991 0.32958 0.0
C1183 C 0.62995 0.64373 0.26047 0.0
C1184 C 0.4772 0.0202 0.23129 0.0
C1185 C 0.44908 1.00729 0.22666 0.0
H1186 H 0.51437 0.05469 0.27173 0.0
C1187 C 0.43705 0.02061 0.25846 0.0
H1188 H 0.48715 1.01045 0.2083 0.0
C1189 C 0.4527 0.04603 0.29488 0.0
C1190 C 0.48073 0.05858 0.30172 0.0
H1191 H 0.41546 1.01122 0.2564 0.0
H1192 H 0.44275 0.05567 0.31886 0.0
C1193 C 0.4928 0.04543 0.26886 0.0
C1194 C 0.56501 1.01338 0.89305 0.0
C1195 C 0.59308 0.0262 0.89927 0.0
H1196 H 0.52797 0.97885 0.85198 0.0
C1197 C 0.60515 1.01262 0.87002 0.0
H1198 H 0.55502 0.02332 0.91406 0.0
C1199 C 0.58959 0.98704 0.83446 0.0
C1200 C 0.56161 0.9746 0.82587 0.0
H1201 H 0.62672 0.02193 0.87336 0.0
H1202 H 0.59956 0.97721 0.81237 0.0
C1203 C 0.5495 0.98801 0.85626 0.0
C1204 C 1.00629 0.58716 0.69204 0.0
C1205 C 1.01873 0.5747 0.65672 0.0
H1206 H 0.973 0.5823 0.76137 0.0
C1207 C 1.00598 0.54667 0.66392 0.0
H1208 H 1.01562 0.60871 0.68815 0.0
C1209 C 0.9819 0.53163 0.70773 0.0
C1210 C 0.96974 0.54416 0.74436 0.0
H1211 H 1.01509 0.5364 0.63834 0.0
H1212 H 0.97277 0.51012 0.71261 0.0
C1213 C 0.98196 0.57204 0.73464 0.0
C1214 C 0.38229 0.40119 0.67788 0.0
C1215 C 0.39745 0.39069 0.64875 0.0
H1216 H 0.37696 0.42028 0.78209 0.0
C1217 C 0.40277 0.37586 0.70429 0.0
H1218 H 0.37681 0.41176 0.63554 0.0
C1219 C 0.40084 0.37904 0.78943 0.0
C1220 C 0.39499 0.39806 0.8176 0.0
H1221 H 0.41357 0.3667 0.68388 0.0
H1222 H 0.40998 0.37177 0.83126 0.0
C1223 C 0.38211 0.40599 0.76267 0.0
loop_
_geom_bond_atom_site_label_1
_geom_bond_atom_site_label_2
_geom_bond_distance
_geom_bond_site_symmetry_2
_ccdc_geom_bond_type
O0 Cd1 2.236 . S
O0 C8 1.318 . S
Cd1 O0 2.236 . S
Cd1 O4 2.297 . S
Cd1 O5 2.439 . S
Cd1 O11 2.240 . S
Cd2 O3 2.240 . S
Cd2 O10 2.223 . S
Cd2 O12 2.297 . S
Cd2 O13 2.439 . S
O3 Cd2 2.240 . S
O3 C8 1.279 . S
O4 Cd1 2.297 . S
O4 C6 1.247 . S
O5 Cd1 2.439 . S
O5 C6 1.208 . S
C6 O4 1.247 . S
C6 O5 1.208 . S
C7 O12 1.247 . S
C7 O13 1.208 . S
C8 O0 1.318 . S
C8 O3 1.279 . S
C9 O10 1.315 . S
C9 O11 1.279 . S
O10 Cd2 2.223 . S
O10 C9 1.315 . S
O11 Cd1 2.240 . S
O11 C9 1.279 . S
O12 Cd2 2.297 . S
O12 C7 1.247 . S
O13 Cd2 2.439 . S
O13 C7 1.208 . S
O14 Cd15 2.223 . S
O14 C22 1.315 . S
Cd15 O14 2.223 . S
Cd15 O18 2.297 . S
Cd15 O19 2.439 . S
Cd15 O25 2.240 . S
Cd16 O17 2.240 . S
Cd16 O24 2.223 . S
Cd16 O26 2.297 . S
Cd16 O27 2.439 . S
O17 Cd16 2.240 . S
O17 C22 1.279 . S
O18 Cd15 2.297 . S
O18 C20 1.247 . S
O19 Cd15 2.439 . S
O19 C20 1.208 . S
C20 O18 1.247 . S
C20 O19 1.208 . S
C21 O26 1.247 . S
C21 O27 1.208 . S
C22 O14 1.315 . S
C22 O17 1.279 . S
C23 O24 1.315 . S
C23 O25 1.279 . S
O24 Cd16 2.223 . S
O24 C23 1.315 . S
O25 Cd15 2.240 . S
O25 C23 1.279 . S
O26 Cd16 2.297 . S
O26 C21 1.247 . S
O27 Cd16 2.439 . S
O27 C21 1.208 . S
O28 Cd29 2.223 . S
O28 C36 1.315 . S
Cd29 O28 2.223 . S
Cd29 O32 2.297 . S
Cd29 O33 2.439 . S
Cd29 O39 2.240 . S
Cd30 O31 2.240 . S
Cd30 O38 2.223 . S
Cd30 O40 2.297 . S
Cd30 O41 2.439 . S
O31 Cd30 2.240 . S
O31 C36 1.279 . S
O32 Cd29 2.297 . S
O32 C34 1.247 . S
O33 Cd29 2.439 . S
O33 C34 1.208 . S
C34 O32 1.247 . S
C34 O33 1.208 . S
C35 O40 1.247 . S
C35 O41 1.208 . S
C36 O28 1.315 . S
C36 O31 1.279 . S
C37 O38 1.315 . S
C37 O39 1.279 . S
O38 Cd30 2.223 . S
O38 C37 1.315 . S
O39 Cd29 2.240 . S
O39 C37 1.279 . S
O40 Cd30 2.297 . S
O40 C35 1.247 . S
O41 Cd30 2.439 . S
O41 C35 1.208 . S
O42 Cd43 2.223 . S
O42 C50 1.315 . S
Cd43 O42 2.223 . S
Cd43 O46 2.297 . S
Cd43 O47 2.439 . S
Cd43 O53 2.240 . S
Cd44 O45 2.240 . S
Cd44 O52 2.223 . S
Cd44 O54 2.297 . S
Cd44 O55 2.439 . S
O45 Cd44 2.240 . S
O45 C50 1.279 . S
O46 Cd43 2.297 . S
O46 C48 1.247 . S
O47 Cd43 2.439 . S
O47 C48 1.208 . S
C48 O46 1.247 . S
C48 O47 1.208 . S
C49 O54 1.247 . S
C49 O55 1.208 . S
C50 O42 1.315 . S
C50 O45 1.279 . S
C51 O52 1.315 . S
C51 O53 1.279 . S
O52 Cd44 2.223 . S
O52 C51 1.315 . S
O53 Cd43 2.240 . S
O53 C51 1.279 . S
O54 Cd44 2.297 . S
O54 C49 1.247 . S
O55 Cd44 2.439 . S
O55 C49 1.208 . S
O56 Cd57 2.223 . S
O56 C64 1.315 . S
Cd57 O56 2.223 . S
Cd57 O60 2.297 . S
Cd57 O61 2.439 . S
Cd57 O67 2.240 . S
Cd58 O59 2.240 . S
Cd58 O66 2.223 . S
Cd58 O68 2.297 . S
Cd58 O69 2.439 . S
O59 Cd58 2.240 . S
O59 C64 1.279 . S
O60 Cd57 2.297 . S
O60 C62 1.247 . S
O61 Cd57 2.439 . S
O61 C62 1.208 . S
C62 O60 1.247 . S
C62 O61 1.208 . S
C63 O68 1.247 . S
C63 O69 1.208 . S
C64 O56 1.315 . S
C64 O59 1.279 . S
C65 O66 1.315 . S
C65 O67 1.279 . S
O66 Cd58 2.223 . S
O66 C65 1.315 . S
O67 Cd57 2.240 . S
O67 C65 1.279 . S
O68 Cd58 2.297 . S
O68 C63 1.247 . S
O69 Cd58 2.439 . S
O69 C63 1.208 . S
O70 Cd71 2.223 . S
O70 C78 1.315 . S
Cd71 O70 2.223 . S
Cd71 O74 2.297 . S
Cd71 O75 2.439 . S
Cd71 O81 2.240 . S
Cd72 O73 2.240 . S
Cd72 O80 2.223 . S
Cd72 O82 2.297 . S
Cd72 O83 2.439 . S
O73 Cd72 2.240 . S
O73 C78 1.279 . S
O74 Cd71 2.297 . S
O74 C76 1.247 . S
O75 Cd71 2.439 . S
O75 C76 1.208 . S
C76 O74 1.247 . S
C76 O75 1.208 . S
C77 O82 1.247 . S
C77 O83 1.208 . S
C78 O70 1.315 . S
C78 O73 1.279 . S
C79 O80 1.315 . S
C79 O81 1.279 . S
O80 Cd72 2.223 . S
O80 C79 1.315 . S
O81 Cd71 2.240 . S
O81 C79 1.279 . S
O82 Cd72 2.297 . S
O82 C77 1.247 . S
O83 Cd72 2.439 . S
O83 C77 1.208 . S
O84 Cd85 2.236 . S
O84 C92 1.318 . S
Cd85 O84 2.236 . S
Cd85 O88 2.297 . S
Cd85 O89 2.439 . S
Cd85 O95 2.240 . S
Cd86 O87 2.240 . S
Cd86 O94 2.223 . S
Cd86 O96 2.297 . S
Cd86 O97 2.439 . S
O87 Cd86 2.240 . S
O87 C92 1.279 . S
O88 Cd85 2.297 . S
O88 C90 1.247 . S
O89 Cd85 2.439 . S
O89 C90 1.208 . S
C90 O88 1.247 . S
C90 O89 1.208 . S
C91 O96 1.247 . S
C91 O97 1.208 . S
C92 O84 1.318 . S
C92 O87 1.279 . S
C93 O94 1.315 . S
C93 O95 1.279 . S
O94 Cd86 2.223 . S
O94 C93 1.315 . S
O95 Cd85 2.240 . S
O95 C93 1.279 . S
O96 Cd86 2.297 . S
O96 C91 1.247 . S
O97 Cd86 2.439 . S
O97 C91 1.208 . S
O98 Cd99 2.223 . S
O98 C106 1.315 . S
Cd99 O98 2.223 . S
Cd99 O102 2.297 . S
Cd99 O103 2.439 . S
Cd99 O109 2.240 . S
Cd100 O101 2.240 . S
Cd100 O108 2.223 . S
Cd100 O110 2.297 . S
Cd100 O111 2.439 . S
O101 Cd100 2.240 . S
O101 C106 1.279 . S
O102 Cd99 2.297 . S
O102 C104 1.247 . S
O103 Cd99 2.439 . S
O103 C104 1.208 . S
C104 O102 1.247 . S
C104 O103 1.208 . S
C105 O110 1.247 . S
C105 O111 1.208 . S
C106 O98 1.315 . S
C106 O101 1.279 . S
C107 O108 1.315 . S
C107 O109 1.279 . S
O108 Cd100 2.223 . S
O108 C107 1.315 . S
O109 Cd99 2.240 . S
O109 C107 1.279 . S
O110 Cd100 2.297 . S
O110 C105 1.247 . S
O111 Cd100 2.439 . S
O111 C105 1.208 . S
O112 Cd113 2.223 . S
O112 C120 1.315 . S
Cd113 O112 2.223 . S
Cd113 O116 2.297 . S
Cd113 O117 2.439 . S
Cd113 O123 2.240 . S
Cd114 O115 2.240 . S
Cd114 O122 2.223 . S
Cd114 O124 2.297 . S
Cd114 O125 2.439 . S
O115 Cd114 2.240 . S
O115 C120 1.279 . S
O116 Cd113 2.297 . S
O116 C118 1.247 . S
O117 Cd113 2.439 . S
O117 C118 1.208 . S
C118 O116 1.247 . S
C118 O117 1.208 . S
C119 O124 1.247 . S
C119 O125 1.208 . S
C120 O112 1.315 . S
C120 O115 1.279 . S
C121 O122 1.315 . S
C121 O123 1.279 . S
O122 Cd114 2.223 . S
O122 C121 1.315 . S
O123 Cd113 2.240 . S
O123 C121 1.279 . S
O124 Cd114 2.297 . S
O124 C119 1.247 . S
O125 Cd114 2.439 . S
O125 C119 1.208 . S
O126 Cd127 2.223 . S
O126 C134 1.315 . S
Cd127 O126 2.223 . S
Cd127 O130 2.297 . S
Cd127 O131 2.439 . S
Cd127 O137 2.240 . S
Cd128 O129 2.240 . S
Cd128 O136 2.223 . S
Cd128 O138 2.297 . S
Cd128 O139 2.439 . S
O129 Cd128 2.240 . S
O129 C134 1.279 . S
O130 Cd127 2.297 . S
O130 C132 1.247 . S
O131 Cd127 2.439 . S
O131 C132 1.208 . S
C132 O130 1.247 . S
C132 O131 1.208 . S
C133 O138 1.247 . S
C133 O139 1.208 . S
C134 O126 1.315 . S
C134 O129 1.279 . S
C135 O136 1.315 . S
C135 O137 1.279 . S
O136 Cd128 2.223 . S
O136 C135 1.315 . S
O137 Cd127 2.240 . S
O137 C135 1.279 . S
O138 Cd128 2.297 . S
O138 C133 1.247 . S
O139 Cd128 2.439 . S
O139 C133 1.208 . S
O140 Cd141 2.223 . S
O140 C148 1.315 . S
Cd141 O140 2.223 . S
Cd141 O144 2.297 . S
Cd141 O145 2.439 . S
Cd141 O151 2.240 . S
Cd142 O143 2.240 . S
Cd142 O150 2.223 . S
Cd142 O152 2.297 . S
Cd142 O153 2.439 . S
O143 Cd142 2.240 . S
O143 C148 1.279 . S
O144 Cd141 2.297 . S
O144 C146 1.247 . S
O145 Cd141 2.439 . S
O145 C146 1.208 . S
C146 O144 1.247 . S
C146 O145 1.208 . S
C147 O152 1.247 . S
C147 O153 1.208 . S
C148 O140 1.315 . S
C148 O143 1.279 . S
C149 O150 1.315 . S
C149 O151 1.279 . S
O150 Cd142 2.223 . S
O150 C149 1.315 . S
O151 Cd141 2.240 . S
O151 C149 1.279 . S
O152 Cd142 2.297 . S
O152 C147 1.247 . S
O153 Cd142 2.439 . S
O153 C147 1.208 . S
O154 Cd155 2.223 . S
O154 C162 1.315 . S
Cd155 O154 2.223 . S
Cd155 O158 2.297 . S
Cd155 O159 2.439 . S
Cd155 O165 2.240 . S
Cd156 O157 2.240 . S
Cd156 O164 2.223 . S
Cd156 O166 2.297 . S
Cd156 O167 2.439 . S
O157 Cd156 2.240 . S
O157 C162 1.279 . S
O158 Cd155 2.297 . S
O158 C160 1.247 . S
O159 Cd155 2.439 . S
O159 C160 1.208 . S
C160 O158 1.247 . S
C160 O159 1.208 . S
C161 O166 1.247 . S
C161 O167 1.208 . S
C162 O154 1.315 . S
C162 O157 1.279 . S
C163 O164 1.315 . S
C163 O165 1.279 . S
O164 Cd156 2.223 . S
O164 C163 1.315 . S
O165 Cd155 2.240 . S
O165 C163 1.279 . S
O166 Cd156 2.297 . S
O166 C161 1.247 . S
O167 Cd156 2.439 . S
O167 C161 1.208 . S
O168 Cd169 2.223 . S
O168 C176 1.315 . S
Cd169 O168 2.223 . S
Cd169 O172 2.297 . S
Cd169 O173 2.439 . S
Cd169 O179 2.240 . S
Cd170 O171 2.240 . S
Cd170 O178 2.223 . S
Cd170 O180 2.297 . S
Cd170 O181 2.439 . S
O171 Cd170 2.240 . S
O171 C176 1.279 . S
O172 Cd169 2.297 . S
O172 C174 1.247 . S
O173 Cd169 2.439 . S
O173 C174 1.208 . S
C174 O172 1.247 . S
C174 O173 1.208 . S
C175 O180 1.247 . S
C175 O181 1.208 . S
C176 O168 1.315 . S
C176 O171 1.279 . S
C177 O178 1.315 . S
C177 O179 1.279 . S
O178 Cd170 2.223 . S
O178 C177 1.315 . S
O179 Cd169 2.240 . S
O179 C177 1.279 . S
O180 Cd170 2.297 . S
O180 C175 1.247 . S
O181 Cd170 2.439 . S
O181 C175 1.208 . S
O182 Cd183 2.223 . S
O182 C190 1.315 . S
Cd183 O182 2.223 . S
Cd183 O186 2.297 . S
Cd183 O187 2.439 . S
Cd183 O193 2.240 . S
Cd184 O185 2.240 . S
Cd184 O192 2.223 . S
Cd184 O194 2.297 . S
Cd184 O195 2.439 . S
O185 Cd184 2.240 . S
O185 C190 1.279 . S
O186 Cd183 2.297 . S
O186 C188 1.247 . S
O187 Cd183 2.439 . S
O187 C188 1.208 . S
C188 O186 1.247 . S
C188 O187 1.208 . S
C189 O194 1.247 . S
C189 O195 1.208 . S
C190 O182 1.315 . S
C190 O185 1.279 . S
C191 O192 1.315 . S
C191 O193 1.279 . S
O192 Cd184 2.223 . S
O192 C191 1.315 . S
O193 Cd183 2.240 . S
O193 C191 1.279 . S
O194 Cd184 2.297 . S
O194 C189 1.247 . S
O195 Cd184 2.439 . S
O195 C189 1.208 . S
O196 Cd197 2.223 . S
O196 C204 1.315 . S
Cd197 O196 2.223 . S
Cd197 O200 2.297 . S
Cd197 O201 2.439 . S
Cd197 O207 2.240 . S
Cd198 O199 2.240 . S
Cd198 O206 2.223 . S
Cd198 O208 2.297 . S
Cd198 O209 2.439 . S
O199 Cd198 2.240 . S
O199 C204 1.279 . S
O200 Cd197 2.297 . S
O200 C202 1.247 . S
O201 Cd197 2.439 . S
O201 C202 1.208 . S
C202 O200 1.247 . S
C202 O201 1.208 . S
C203 O208 1.247 . S
C203 O209 1.208 . S
C204 O196 1.315 . S
C204 O199 1.279 . S
C205 O206 1.315 . S
C205 O207 1.279 . S
O206 Cd198 2.223 . S
O206 C205 1.315 . S
O207 Cd197 2.240 . S
O207 C205 1.279 . S
O208 Cd198 2.297 . S
O208 C203 1.247 . S
O209 Cd198 2.439 . S
O209 C203 1.208 . S
O210 Cd211 2.223 . S
O210 C218 1.315 . S
Cd211 O210 2.223 . S
Cd211 O214 2.297 . S
Cd211 O215 2.439 . S
Cd211 O221 2.240 . S
Cd212 O213 2.240 . S
Cd212 O220 2.223 . S
Cd212 O222 2.297 . S
Cd212 O223 2.439 . S
O213 Cd212 2.240 . S
O213 C218 1.279 . S
O214 Cd211 2.297 . S
O214 C216 1.247 . S
O215 Cd211 2.439 . S
O215 C216 1.208 . S
C216 O214 1.247 . S
C216 O215 1.208 . S
C217 O222 1.247 . S
C217 O223 1.208 . S
C218 O210 1.315 . S
C218 O213 1.279 . S
C219 O220 1.315 . S
C219 O221 1.279 . S
O220 Cd212 2.223 . S
O220 C219 1.315 . S
O221 Cd211 2.240 . S
O221 C219 1.279 . S
O222 Cd212 2.297 . S
O222 C217 1.247 . S
O223 Cd212 2.439 . S
O223 C217 1.208 . S
O224 Cd225 2.223 . S
O224 C232 1.315 . S
Cd225 O224 2.223 . S
Cd225 O228 2.297 . S
Cd225 O229 2.439 . S
Cd225 O235 2.240 . S
Cd226 O227 2.240 . S
Cd226 O234 2.223 . S
Cd226 O236 2.297 . S
Cd226 O237 2.439 . S
O227 Cd226 2.240 . S
O227 C232 1.279 . S
O228 Cd225 2.297 . S
O228 C230 1.247 . S
O229 Cd225 2.439 . S
O229 C230 1.208 . S
C230 O228 1.247 . S
C230 O229 1.208 . S
C231 O236 1.247 . S
C231 O237 1.208 . S
C232 O224 1.315 . S
C232 O227 1.279 . S
C233 O234 1.315 . S
C233 O235 1.279 . S
O234 Cd226 2.223 . S
O234 C233 1.315 . S
O235 Cd225 2.240 . S
O235 C233 1.279 . S
O236 Cd226 2.297 . S
O236 C231 1.247 . S
O237 Cd226 2.439 . S
O237 C231 1.208 . S
O238 Cd239 2.223 . S
O238 C246 1.315 . S
Cd239 O238 2.223 . S
Cd239 O242 2.297 . S
Cd239 O243 2.439 . S
Cd239 O249 2.240 . S
Cd240 O241 2.240 . S
Cd240 O248 2.223 . S
Cd240 O250 2.297 . S
Cd240 O251 2.439 . S
O241 Cd240 2.240 . S
O241 C246 1.279 . S
O242 Cd239 2.297 . S
O242 C244 1.247 . S
O243 Cd239 2.439 . S
O243 C244 1.208 . S
C244 O242 1.247 . S
C244 O243 1.208 . S
C245 O250 1.247 . S
C245 O251 1.208 . S
C246 O238 1.315 . S
C246 O241 1.279 . S
C247 O248 1.315 . S
C247 O249 1.279 . S
O248 Cd240 2.223 . S
O248 C247 1.315 . S
O249 Cd239 2.240 . S
O249 C247 1.279 . S
O250 Cd240 2.297 . S
O250 C245 1.247 . S
O251 Cd240 2.439 . S
O251 C245 1.208 . S
O252 Cd253 2.223 . S
O252 C260 1.315 . S
Cd253 O252 2.223 . S
Cd253 O256 2.297 . S
Cd253 O257 2.439 . S
Cd253 O263 2.240 . S
Cd254 O255 2.240 . S
Cd254 O262 2.223 . S
Cd254 O264 2.297 . S
Cd254 O265 2.439 . S
O255 Cd254 2.240 . S
O255 C260 1.279 . S
O256 Cd253 2.297 . S
O256 C258 1.247 . S
O257 Cd253 2.439 . S
O257 C258 1.208 . S
C258 O256 1.247 . S
C258 O257 1.208 . S
C259 O264 1.247 . S
C259 O265 1.208 . S
C260 O252 1.315 . S
C260 O255 1.279 . S
C261 O262 1.315 . S
C261 O263 1.279 . S
O262 Cd254 2.223 . S
O262 C261 1.315 . S
O263 Cd253 2.240 . S
O263 C261 1.279 . S
O264 Cd254 2.297 . S
O264 C259 1.247 . S
O265 Cd254 2.439 . S
O265 C259 1.208 . S
O266 Cd267 2.223 . S
O266 C274 1.315 . S
Cd267 O266 2.223 . S
Cd267 O270 2.297 . S
Cd267 O271 2.439 . S
Cd267 O277 2.240 . S
Cd268 O269 2.240 . S
Cd268 O276 2.223 . S
Cd268 O278 2.297 . S
Cd268 O279 2.439 . S
O269 Cd268 2.240 . S
O269 C274 1.279 . S
O270 Cd267 2.297 . S
O270 C272 1.247 . S
O271 Cd267 2.439 . S
O271 C272 1.208 . S
C272 O270 1.247 . S
C272 O271 1.208 . S
C273 O278 1.247 1_556 S
C273 O279 1.208 1_556 S
C274 O266 1.315 . S
C274 O269 1.279 . S
C275 O276 1.315 . S
C275 O277 1.279 . S
O276 Cd268 2.223 . S
O276 C275 1.315 . S
O277 Cd267 2.240 . S
O277 C275 1.279 . S
O278 Cd268 2.297 . S
O278 C273 1.247 1_554 S
O279 Cd268 2.439 . S
O279 C273 1.208 1_554 S
O280 Cd281 2.223 . S
O280 C288 1.315 . S
Cd281 O280 2.223 . S
Cd281 O284 2.297 . S
Cd281 O285 2.439 . S
Cd281 O291 2.240 . S
Cd282 O283 2.240 . S
Cd282 O290 2.223 . S
Cd282 O292 2.297 . S
Cd282 O293 2.439 . S
O283 Cd282 2.240 . S
O283 C288 1.279 . S
O284 Cd281 2.297 . S
O284 C286 1.247 . S
O285 Cd281 2.439 . S
O285 C286 1.208 . S
C286 O284 1.247 . S
C286 O285 1.208 . S
C287 O292 1.247 . S
C287 O293 1.208 . S
C288 O280 1.315 . S
C288 O283 1.279 . S
C289 O290 1.315 . S
C289 O291 1.279 . S
O290 Cd282 2.223 . S
O290 C289 1.315 . S
O291 Cd281 2.240 . S
O291 C289 1.279 . S
O292 Cd282 2.297 . S
O292 C287 1.247 . S
O293 Cd282 2.439 . S
O293 C287 1.208 . S
O294 Cd295 2.223 . S
O294 C302 1.315 . S
Cd295 O294 2.223 . S
Cd295 O298 2.297 . S
Cd295 O299 2.439 1_556 S
Cd295 O305 2.240 . S
Cd296 O297 2.240 . S
Cd296 O304 2.223 . S
Cd296 O306 2.297 1_556 S
Cd296 O307 2.439 1_556 S
O297 Cd296 2.240 . S
O297 C302 1.279 . S
O298 Cd295 2.297 . S
O298 C300 1.247 . S
O299 Cd295 2.439 1_554 S
O299 C300 1.208 1_554 S
C300 O298 1.247 . S
C300 O299 1.208 1_556 S
C301 O306 1.247 . S
C301 O307 1.208 . S
C302 O294 1.315 . S
C302 O297 1.279 . S
C303 O304 1.315 . S
C303 O305 1.279 . S
O304 Cd296 2.223 . S
O304 C303 1.315 . S
O305 Cd295 2.240 . S
O305 C303 1.279 . S
O306 Cd296 2.297 1_554 S
O306 C301 1.247 . S
O307 Cd296 2.439 1_554 S
O307 C301 1.208 . S
O308 Cd309 2.223 . S
O308 C316 1.315 . S
Cd309 O308 2.223 . S
Cd309 O312 2.297 . S
Cd309 O313 2.439 . S
Cd309 O319 2.240 . S
Cd310 O311 2.240 . S
Cd310 O318 2.223 . S
Cd310 O320 2.297 1_556 S
Cd310 O321 2.439 1_556 S
O311 Cd310 2.240 . S
O311 C316 1.279 . S
O312 Cd309 2.297 . S
O312 C314 1.247 . S
O313 Cd309 2.439 . S
O313 C314 1.208 . S
C314 O312 1.247 . S
C314 O313 1.208 . S
C315 O320 1.247 . S
C315 O321 1.208 . S
C316 O308 1.315 . S
C316 O311 1.279 . S
C317 O318 1.315 . S
C317 O319 1.279 . S
O318 Cd310 2.223 . S
O318 C317 1.315 . S
O319 Cd309 2.240 . S
O319 C317 1.279 . S
O320 Cd310 2.297 1_554 S
O320 C315 1.247 . S
O321 Cd310 2.439 1_554 S
O321 C315 1.208 . S
O322 Cd323 2.223 . S
O322 C330 1.315 . S
Cd323 O322 2.223 . S
Cd323 O326 2.297 . S
Cd323 O327 2.439 1_556 S
Cd323 O333 2.240 . S
Cd324 O325 2.240 . S
Cd324 O332 2.223 . S
Cd324 O334 2.297 1_556 S
Cd324 O335 2.439 1_556 S
O325 Cd324 2.240 . S
O325 C330 1.279 . S
O326 Cd323 2.297 . S
O326 C328 1.247 1_556 S
O327 Cd323 2.439 1_554 S
O327 C328 1.208 . S
C328 O326 1.247 1_554 S
C328 O327 1.208 . S
C329 O334 1.247 . S
C329 O335 1.208 . S
C330 O322 1.315 . S
C330 O325 1.279 . S
C331 O332 1.315 . S
C331 O333 1.279 . S
O332 Cd324 2.223 . S
O332 C331 1.315 . S
O333 Cd323 2.240 . S
O333 C331 1.279 . S
O334 Cd324 2.297 1_554 S
O334 C329 1.247 . S
O335 Cd324 2.439 1_554 S
O335 C329 1.208 . S
O336 Cd337 2.223 . S
O336 C344 1.315 . S
Cd337 O336 2.223 . S
Cd337 O340 2.297 . S
Cd337 O341 2.439 . S
Cd337 O347 2.240 . S
Cd338 O339 2.240 . S
Cd338 O346 2.223 . S
Cd338 O348 2.297 . S
Cd338 O349 2.439 . S
O339 Cd338 2.240 . S
O339 C344 1.279 . S
O340 Cd337 2.297 . S
O340 C342 1.247 . S
O341 Cd337 2.439 . S
O341 C342 1.208 . S
C342 O340 1.247 . S
C342 O341 1.208 . S
C343 O348 1.247 . S
C343 O349 1.208 . S
C344 O336 1.315 . S
C344 O339 1.279 . S
C345 O346 1.315 . S
C345 O347 1.279 . S
O346 Cd338 2.223 . S
O346 C345 1.315 . S
O347 Cd337 2.240 . S
O347 C345 1.279 . S
O348 Cd338 2.297 . S
O348 C343 1.247 . S
O349 Cd338 2.439 . S
O349 C343 1.208 . S
O350 Cd351 2.223 . S
O350 C358 1.315 . S
Cd351 O350 2.223 . S
Cd351 O354 2.297 . S
Cd351 O355 2.439 . S
Cd351 O361 2.240 . S
Cd352 O353 2.240 . S
Cd352 O360 2.223 . S
Cd352 O362 2.297 . S
Cd352 O363 2.439 . S
O353 Cd352 2.240 . S
O353 C358 1.279 . S
O354 Cd351 2.297 . S
O354 C356 1.247 . S
O355 Cd351 2.439 . S
O355 C356 1.208 . S
C356 O354 1.247 . S
C356 O355 1.208 . S
C357 O362 1.247 1_554 S
C357 O363 1.208 1_554 S
C358 O350 1.315 . S
C358 O353 1.279 . S
C359 O360 1.315 . S
C359 O361 1.279 . S
O360 Cd352 2.223 . S
O360 C359 1.315 . S
O361 Cd351 2.240 . S
O361 C359 1.279 . S
O362 Cd352 2.297 . S
O362 C357 1.247 1_556 S
O363 Cd352 2.439 . S
O363 C357 1.208 1_556 S
O364 Cd365 2.223 . S
O364 C372 1.315 . S
Cd365 O364 2.223 . S
Cd365 O368 2.297 . S
Cd365 O369 2.439 . S
Cd365 O375 2.240 . S
Cd366 O367 2.240 . S
Cd366 O374 2.223 . S
Cd366 O376 2.297 . S
Cd366 O377 2.439 . S
O367 Cd366 2.240 . S
O367 C372 1.279 . S
O368 Cd365 2.297 . S
O368 C370 1.247 . S
O369 Cd365 2.439 . S
O369 C370 1.208 . S
C370 O368 1.247 . S
C370 O369 1.208 . S
C371 O376 1.247 . S
C371 O377 1.208 . S
C372 O364 1.315 . S
C372 O367 1.279 . S
C373 O374 1.315 . S
C373 O375 1.279 . S
O374 Cd366 2.223 . S
O374 C373 1.315 . S
O375 Cd365 2.240 . S
O375 C373 1.279 . S
O376 Cd366 2.297 . S
O376 C371 1.247 . S
O377 Cd366 2.439 . S
O377 C371 1.208 . S
O378 Cd379 2.223 . S
O378 C386 1.315 . S
Cd379 O378 2.223 . S
Cd379 O382 2.297 . S
Cd379 O383 2.439 1_554 S
Cd379 O389 2.240 . S
Cd380 O381 2.240 . S
Cd380 O388 2.223 . S
Cd380 O390 2.297 1_554 S
Cd380 O391 2.439 1_554 S
O381 Cd380 2.240 . S
O381 C386 1.279 . S
O382 Cd379 2.297 . S
O382 C384 1.247 . S
O383 Cd379 2.439 1_556 S
O383 C384 1.208 1_556 S
C384 O382 1.247 . S
C384 O383 1.208 1_554 S
C385 O390 1.247 . S
C385 O391 1.208 . S
C386 O378 1.315 . S
C386 O381 1.279 . S
C387 O388 1.315 . S
C387 O389 1.279 . S
O388 Cd380 2.223 . S
O388 C387 1.315 . S
O389 Cd379 2.240 . S
O389 C387 1.279 . S
O390 Cd380 2.297 1_556 S
O390 C385 1.247 . S
O391 Cd380 2.439 1_556 S
O391 C385 1.208 . S
O392 Cd393 2.223 . S
O392 C400 1.315 . S
Cd393 O392 2.223 . S
Cd393 O396 2.297 . S
Cd393 O397 2.439 . S
Cd393 O403 2.240 . S
Cd394 O395 2.240 . S
Cd394 O402 2.223 . S
Cd394 O404 2.297 1_554 S
Cd394 O405 2.439 1_554 S
O395 Cd394 2.240 . S
O395 C400 1.279 . S
O396 Cd393 2.297 . S
O396 C398 1.247 . S
O397 Cd393 2.439 . S
O397 C398 1.208 . S
C398 O396 1.247 . S
C398 O397 1.208 . S
C399 O404 1.247 . S
C399 O405 1.208 . S
C400 O392 1.315 . S
C400 O395 1.279 . S
C401 O402 1.315 . S
C401 O403 1.279 . S
O402 Cd394 2.223 . S
O402 C401 1.315 . S
O403 Cd393 2.240 . S
O403 C401 1.279 . S
O404 Cd394 2.297 1_556 S
O404 C399 1.247 . S
O405 Cd394 2.439 1_556 S
O405 C399 1.208 . S
O406 Cd407 2.223 . S
O406 C414 1.315 . S
Cd407 O406 2.223 . S
Cd407 O410 2.297 . S
Cd407 O411 2.439 1_554 S
Cd407 O417 2.240 . S
Cd408 O409 2.240 . S
Cd408 O416 2.223 . S
Cd408 O418 2.297 1_554 S
Cd408 O419 2.439 1_554 S
O409 Cd408 2.240 . S
O409 C414 1.279 . S
O410 Cd407 2.297 . S
O410 C412 1.247 1_554 S
O411 Cd407 2.439 1_556 S
O411 C412 1.208 . S
C412 O410 1.247 1_556 S
C412 O411 1.208 . S
C413 O418 1.247 . S
C413 O419 1.208 . S
C414 O406 1.315 . S
C414 O409 1.279 . S
C415 O416 1.315 . S
C415 O417 1.279 . S
O416 Cd408 2.223 . S
O416 C415 1.315 . S
O417 Cd407 2.240 . S
O417 C415 1.279 . S
O418 Cd408 2.297 1_556 S
O418 C413 1.247 . S
O419 Cd408 2.439 1_556 S
O419 C413 1.208 . S
O420 Cd421 2.223 . S
O420 C428 1.315 . S
Cd421 O420 2.223 . S
Cd421 O424 2.297 . S
Cd421 O425 2.439 . S
Cd421 O431 2.240 . S
Cd422 O423 2.240 . S
Cd422 O430 2.223 . S
Cd422 O432 2.297 . S
Cd422 O433 2.439 . S
O423 Cd422 2.240 . S
O423 C428 1.279 . S
O424 Cd421 2.297 . S
O424 C426 1.247 . S
O425 Cd421 2.439 . S
O425 C426 1.208 . S
C426 O424 1.247 . S
C426 O425 1.208 . S
C427 O432 1.247 . S
C427 O433 1.208 . S
C428 O420 1.315 . S
C428 O423 1.279 . S
C429 O430 1.315 . S
C429 O431 1.279 . S
O430 Cd422 2.223 . S
O430 C429 1.315 . S
O431 Cd421 2.240 . S
O431 C429 1.279 . S
O432 Cd422 2.297 . S
O432 C427 1.247 . S
O433 Cd422 2.439 . S
O433 C427 1.208 . S
O434 Cd435 2.223 . S
O434 C442 1.315 . S
Cd435 O434 2.223 . S
Cd435 O438 2.297 . S
Cd435 O439 2.439 . S
Cd435 O445 2.240 . S
Cd436 O437 2.240 . S
Cd436 O444 2.223 . S
Cd436 O446 2.297 . S
Cd436 O447 2.439 . S
O437 Cd436 2.240 . S
O437 C442 1.279 . S
O438 Cd435 2.297 . S
O438 C440 1.247 . S
O439 Cd435 2.439 . S
O439 C440 1.208 . S
C440 O438 1.247 . S
C440 O439 1.208 . S
C441 O446 1.247 . S
C441 O447 1.208 . S
C442 O434 1.315 . S
C442 O437 1.279 . S
C443 O444 1.315 . S
C443 O445 1.279 . S
O444 Cd436 2.223 . S
O444 C443 1.315 . S
O445 Cd435 2.240 . S
O445 C443 1.279 . S
O446 Cd436 2.297 . S
O446 C441 1.247 . S
O447 Cd436 2.439 . S
O447 C441 1.208 . S
O448 Cd449 2.223 . S
O448 C456 1.315 . S
Cd449 O448 2.223 . S
Cd449 O452 2.297 . S
Cd449 O453 2.439 . S
Cd449 O459 2.240 . S
Cd450 O451 2.240 . S
Cd450 O458 2.223 . S
Cd450 O460 2.297 . S
Cd450 O461 2.439 . S
O451 Cd450 2.240 . S
O451 C456 1.279 . S
O452 Cd449 2.297 . S
O452 C454 1.247 . S
O453 Cd449 2.439 . S
O453 C454 1.208 . S
C454 O452 1.247 . S
C454 O453 1.208 . S
C455 O460 1.247 . S
C455 O461 1.208 . S
C456 O448 1.315 . S
C456 O451 1.279 . S
C457 O458 1.315 . S
C457 O459 1.279 . S
O458 Cd450 2.223 . S
O458 C457 1.315 . S
O459 Cd449 2.240 . S
O459 C457 1.279 . S
O460 Cd450 2.297 . S
O460 C455 1.247 . S
O461 Cd450 2.439 . S
O461 C455 1.208 . S
O462 Cd463 2.223 . S
O462 C470 1.315 . S
Cd463 O462 2.223 . S
Cd463 O466 2.297 . S
Cd463 O467 2.439 . S
Cd463 O473 2.240 . S
Cd464 O465 2.240 . S
Cd464 O472 2.223 . S
Cd464 O474 2.297 . S
Cd464 O475 2.439 . S
O465 Cd464 2.240 . S
O465 C470 1.279 . S
O466 Cd463 2.297 . S
O466 C468 1.247 . S
O467 Cd463 2.439 . S
O467 C468 1.208 . S
C468 O466 1.247 . S
C468 O467 1.208 . S
C469 O474 1.247 . S
C469 O475 1.208 . S
C470 O462 1.315 . S
C470 O465 1.279 . S
C471 O472 1.315 . S
C471 O473 1.279 . S
O472 Cd464 2.223 . S
O472 C471 1.315 . S
O473 Cd463 2.240 . S
O473 C471 1.279 . S
O474 Cd464 2.297 . S
O474 C469 1.247 . S
O475 Cd464 2.439 . S
O475 C469 1.208 . S
O476 Cd477 2.223 . S
O476 C484 1.315 . S
Cd477 O476 2.223 . S
Cd477 O480 2.297 . S
Cd477 O481 2.439 . S
Cd477 O487 2.240 . S
Cd478 O479 2.240 . S
Cd478 O486 2.223 . S
Cd478 O488 2.297 . S
Cd478 O489 2.439 . S
O479 Cd478 2.240 . S
O479 C484 1.279 . S
O480 Cd477 2.297 . S
O480 C482 1.247 . S
O481 Cd477 2.439 . S
O481 C482 1.208 . S
C482 O480 1.247 . S
C482 O481 1.208 . S
C483 O488 1.247 . S
C483 O489 1.208 . S
C484 O476 1.315 . S
C484 O479 1.279 . S
C485 O486 1.315 . S
C485 O487 1.279 . S
O486 Cd478 2.223 . S
O486 C485 1.315 . S
O487 Cd477 2.240 . S
O487 C485 1.279 . S
O488 Cd478 2.297 . S
O488 C483 1.247 . S
O489 Cd478 2.439 . S
O489 C483 1.208 . S
O490 Cd491 2.223 . S
O490 C498 1.315 . S
Cd491 O490 2.223 . S
Cd491 O494 2.297 . S
Cd491 O495 2.439 . S
Cd491 O501 2.240 . S
Cd492 O493 2.240 . S
Cd492 O500 2.223 . S
Cd492 O502 2.297 . S
Cd492 O503 2.439 . S
O493 Cd492 2.240 . S
O493 C498 1.279 . S
O494 Cd491 2.297 . S
O494 C496 1.247 . S
O495 Cd491 2.439 . S
O495 C496 1.208 . S
C496 O494 1.247 . S
C496 O495 1.208 . S
C497 O502 1.247 . S
C497 O503 1.208 . S
C498 O490 1.315 . S
C498 O493 1.279 . S
C499 O500 1.315 . S
C499 O501 1.279 . S
O500 Cd492 2.223 . S
O500 C499 1.315 . S
O501 Cd491 2.240 . S
O501 C499 1.279 . S
O502 Cd492 2.297 . S
O502 C497 1.247 . S
O503 Cd492 2.439 . S
O503 C497 1.208 . S
C504 C505 1.387 1_545 S
C504 H508 0.950 1_545 S
C504 C513 1.390 . S
C505 C504 1.387 1_565 S
C505 C507 1.387 1_565 S
H506 C513 0.950 . S
C507 C505 1.387 1_545 S
C507 C509 1.390 . S
C507 H511 0.950 1_545 S
H508 C504 0.950 1_565 S
C509 C507 1.390 . S
C509 C510 1.387 . S
C509 H512 0.950 . S
C510 C509 1.387 . S
C510 C513 1.387 . S
H511 C507 0.950 1_565 S
H512 C509 0.950 . S
C513 C504 1.390 . S
C513 H506 0.950 . S
C513 C510 1.387 . S
C514 C515 1.387 1_455 S
C514 H518 0.950 1_455 S
C514 C523 1.390 . S
C515 C514 1.387 1_655 S
C515 C517 1.387 1_655 S
H516 C523 0.950 . S
C517 C515 1.387 1_455 S
C517 C519 1.390 . S
C517 H521 0.942 1_455 S
H518 C514 0.950 1_655 S
C519 C517 1.390 . S
C519 C520 1.387 . S
C519 H522 0.950 . S
C520 C519 1.387 . S
C520 C523 1.387 . S
H521 C517 0.942 1_655 S
H522 C519 0.950 . S
C523 C514 1.390 . S
C523 H516 0.950 . S
C523 C520 1.387 . S
C524 C525 1.387 . S
C524 H528 0.950 . S
C524 C533 1.390 . S
C525 C524 1.387 . S
C525 C527 1.387 . S
H526 C533 0.950 . S
C527 C525 1.387 . S
C527 C529 1.390 . S
C527 H531 0.950 . S
H528 C524 0.950 . S
C529 C527 1.390 . S
C529 C530 1.387 . S
C529 H532 0.950 . S
C530 C529 1.387 . S
C530 C533 1.387 . S
H531 C527 0.950 . S
H532 C529 0.950 . S
C533 C524 1.390 . S
C533 H526 0.950 . S
C533 C530 1.387 . S
C534 C535 1.387 . S
C534 H538 0.950 . S
C534 C543 1.390 . S
C535 C534 1.387 . S
C535 C537 1.387 . S
H536 C543 0.945 1_545 S
C537 C535 1.387 . S
C537 C539 1.390 . S
C537 H541 0.950 . S
H538 C534 0.950 . S
C539 C537 1.390 . S
C539 C540 1.387 1_565 S
C539 H542 0.950 1_565 S
C540 C539 1.387 1_545 S
C540 C543 1.387 1_545 S
H541 C537 0.950 . S
H542 C539 0.950 1_545 S
C543 C534 1.390 . S
C543 H536 0.945 1_565 S
C543 C540 1.387 1_565 S
C544 C545 1.387 1_655 S
C544 H548 0.950 1_655 S
C544 C553 1.390 . S
C545 C544 1.387 1_455 S
C545 C547 1.387 1_455 S
H546 C553 0.950 . S
C547 C545 1.387 1_655 S
C547 C549 1.390 . S
C547 H551 0.950 1_655 S
H548 C544 0.950 1_455 S
C549 C547 1.390 . S
C549 C550 1.387 . S
C549 H552 0.950 . S
C550 C549 1.387 . S
C550 C553 1.387 . S
H551 C547 0.950 1_455 S
H552 C549 0.950 . S
C553 C544 1.390 . S
C553 H546 0.950 . S
C553 C550 1.387 . S
C554 C555 1.387 . S
C554 H558 0.950 . S
C554 C563 1.390 . S
C555 C554 1.387 . S
C555 C557 1.387 . S
H556 C563 0.950 . S
C557 C555 1.387 . S
C557 C559 1.390 . S
C557 H561 0.950 . S
H558 C554 0.950 . S
C559 C557 1.390 . S
C559 C560 1.387 . S
C559 H562 0.950 . S
C560 C559 1.387 . S
C560 C563 1.387 . S
H561 C557 0.950 . S
H562 C559 0.950 . S
C563 C554 1.390 . S
C563 H556 0.950 . S
C563 C560 1.387 . S
C564 C565 1.387 . S
C564 H568 0.950 . S
C564 C573 1.390 . S
C565 C564 1.387 . S
C565 C567 1.387 . S
H566 C573 0.950 . S
C567 C565 1.387 . S
C567 C569 1.390 . S
C567 H571 0.950 . S
H568 C564 0.950 . S
C569 C567 1.390 . S
C569 C570 1.387 . S
C569 H572 0.950 . S
C570 C569 1.387 . S
C570 C573 1.387 . S
H571 C567 0.950 . S
H572 C569 0.950 . S
C573 C564 1.390 . S
C573 H566 0.950 . S
C573 C570 1.387 . S
C574 C575 1.387 . S
C574 H578 0.950 . S
C574 C583 1.390 . S
C575 C574 1.387 . S
C575 C577 1.387 . S
H576 C583 0.950 . S
C577 C575 1.387 . S
C577 C579 1.390 . S
C577 H581 0.950 . S
H578 C574 0.950 . S
C579 C577 1.390 . S
C579 C580 1.387 . S
C579 H582 0.950 . S
C580 C579 1.387 . S
C580 C583 1.387 . S
H581 C577 0.950 . S
H582 C579 0.950 . S
C583 C574 1.390 . S
C583 H576 0.950 . S
C583 C580 1.387 . S
C584 C585 1.387 . S
C584 H588 0.950 . S
C584 C593 1.390 . S
C585 C584 1.387 . S
C585 C587 1.387 . S
H586 C593 0.950 . S
C587 C585 1.387 . S
C587 C589 1.390 . S
C587 H591 0.950 . S
H588 C584 0.950 . S
C589 C587 1.390 . S
C589 C590 1.387 . S
C589 H592 0.950 . S
C590 C589 1.387 . S
C590 C593 1.387 . S
H591 C587 0.950 . S
H592 C589 0.950 . S
C593 C584 1.390 . S
C593 H586 0.950 . S
C593 C590 1.387 . S
C594 C595 1.387 . S
C594 H598 0.950 . S
C594 C603 1.390 . S
C595 C594 1.387 . S
C595 C597 1.387 . S
H596 C603 0.950 . S
C597 C595 1.387 . S
C597 C599 1.391 . S
C597 H601 0.950 1_554 S
H598 C594 0.950 . S
C599 C597 1.391 . S
C599 C600 1.395 . S
C599 H602 0.942 1_554 S
C600 C599 1.395 . S
C600 C603 1.387 . S
H601 C597 0.950 1_556 S
H602 C599 0.942 1_556 S
C603 C594 1.390 . S
C603 H596 0.950 . S
C603 C600 1.387 . S
C604 C605 1.387 . S
C604 H608 0.950 . S
C604 C613 1.390 . S
C605 C604 1.387 . S
C605 C607 1.387 . S
H606 C613 0.950 . S
C607 C605 1.387 . S
C607 C609 1.390 1_554 S
C607 H611 0.950 1_554 S
H608 C604 0.950 . S
C609 C607 1.390 1_556 S
C609 C610 1.387 1_556 S
C609 H612 0.950 . S
C610 C609 1.387 1_554 S
C610 C613 1.387 . S
H611 C607 0.950 1_556 S
H612 C609 0.950 . S
C613 C604 1.390 . S
C613 H606 0.950 . S
C613 C610 1.387 . S
C614 C615 1.387 1_556 S
C614 H618 0.950 . S
C614 C623 1.390 . S
C615 C614 1.387 1_554 S
C615 C617 1.387 . S
H616 C623 0.950 . S
C617 C615 1.387 . S
C617 C619 1.390 . S
C617 H621 0.950 . S
H618 C614 0.950 . S
C619 C617 1.390 . S
C619 C620 1.387 . S
C619 H622 0.950 . S
C620 C619 1.387 . S
C620 C623 1.387 1_554 S
H621 C617 0.950 . S
H622 C619 0.950 . S
C623 C614 1.390 . S
C623 H616 0.950 . S
C623 C620 1.387 1_556 S
C624 C625 1.387 . S
C624 H628 0.950 1_556 S
C624 C633 1.390 . S
C625 C624 1.387 . S
C625 C627 1.387 . S
H626 C633 0.950 1_554 S
C627 C625 1.387 . S
C627 C629 1.390 . S
C627 H631 0.950 . S
H628 C624 0.950 1_554 S
C629 C627 1.390 . S
C629 C630 1.387 . S
C629 H632 0.950 . S
C630 C629 1.387 . S
C630 C633 1.387 . S
H631 C627 0.950 . S
H632 C629 0.950 . S
C633 C624 1.390 . S
C633 H626 0.950 1_556 S
C633 C630 1.387 . S
C634 C635 1.387 1_554 S
C634 H638 0.950 . S
C634 C643 1.390 . S
C635 C634 1.387 1_556 S
C635 C637 1.387 . S
H636 C643 0.950 . S
C637 C635 1.387 . S
C637 C639 1.390 . S
C637 H641 0.950 . S
H638 C634 0.950 . S
C639 C637 1.390 . S
C639 C640 1.387 . S
C639 H642 0.950 . S
C640 C639 1.387 . S
C640 C643 1.387 1_556 S
H641 C637 0.950 . S
H642 C639 0.950 . S
C643 C634 1.390 . S
C643 H636 0.950 . S
C643 C640 1.387 1_554 S
C644 C645 1.387 . S
C644 H648 0.950 . S
C644 C653 1.390 . S
C645 C644 1.387 . S
C645 C647 1.387 1_556 S
H646 C653 0.950 . S
C647 C645 1.387 1_554 S
C647 C649 1.390 . S
C647 H651 0.950 . S
H648 C644 0.950 . S
C649 C647 1.390 . S
C649 C650 1.387 1_554 S
C649 H652 0.950 . S
C650 C649 1.387 1_556 S
C650 C653 1.387 . S
H651 C647 0.950 . S
H652 C649 0.950 . S
C653 C644 1.390 . S
C653 H646 0.950 . S
C653 C650 1.387 . S
C654 C655 1.387 . S
C654 H658 0.950 . S
C654 C663 1.390 . S
C655 C654 1.387 . S
C655 C657 1.387 . S
H656 C663 0.950 . S
C657 C655 1.387 . S
C657 C659 1.390 . S
C657 H661 0.950 . S
H658 C654 0.950 . S
C659 C657 1.390 . S
C659 C660 1.387 . S
C659 H662 0.950 . S
C660 C659 1.387 . S
C660 C663 1.387 . S
H661 C657 0.950 . S
H662 C659 0.950 . S
C663 C654 1.390 . S
C663 H656 0.950 . S
C663 C660 1.387 . S
C664 C665 1.387 . S
C664 H668 0.950 . S
C664 C673 1.390 . S
C665 C664 1.387 . S
C665 C667 1.387 . S
H666 C673 0.950 . S
C667 C665 1.387 . S
C667 C669 1.390 . S
C667 H671 0.950 . S
H668 C664 0.950 . S
C669 C667 1.390 . S
C669 C670 1.387 . S
C669 H672 0.950 . S
C670 C669 1.387 . S
C670 C673 1.387 . S
H671 C667 0.950 . S
H672 C669 0.950 . S
C673 C664 1.390 . S
C673 H666 0.950 . S
C673 C670 1.387 . S
C674 C675 1.387 . S
C674 H678 0.950 . S
C674 C683 1.390 . S
C675 C674 1.387 . S
C675 C677 1.387 . S
H676 C683 0.950 . S
C677 C675 1.387 . S
C677 C679 1.390 . S
C677 H681 0.950 . S
H678 C674 0.950 . S
C679 C677 1.390 . S
C679 C680 1.387 . S
C679 H682 0.950 . S
C680 C679 1.387 . S
C680 C683 1.387 . S
H681 C677 0.950 . S
H682 C679 0.950 . S
C683 C674 1.390 . S
C683 H676 0.950 . S
C683 C680 1.387 . S
C684 C685 1.387 . S
C684 H688 0.950 . S
C684 C693 1.390 . S
C685 C684 1.387 . S
C685 C687 1.387 . S
H686 C693 0.950 . S
C687 C685 1.387 . S
C687 C689 1.390 . S
C687 H691 0.950 . S
H688 C684 0.950 . S
C689 C687 1.390 . S
C689 C690 1.387 . S
C689 H692 0.950 1_556 S
C690 C689 1.387 . S
C690 C693 1.387 . S
H691 C687 0.950 . S
H692 C689 0.950 1_554 S
C693 C684 1.390 . S
C693 H686 0.950 . S
C693 C690 1.387 . S
C694 C695 1.387 . S
C694 H698 0.950 . S
C694 C703 1.390 1_556 S
C695 C694 1.387 . S
C695 C697 1.387 . S
H696 C703 0.950 . S
C697 C695 1.387 . S
C697 C699 1.390 . S
C697 H701 0.950 . S
H698 C694 0.950 . S
C699 C697 1.390 . S
C699 C700 1.387 1_556 S
C699 H702 0.950 . S
C700 C699 1.387 1_554 S
C700 C703 1.387 . S
H701 C697 0.950 . S
H702 C699 0.950 . S
C703 C694 1.390 1_554 S
C703 H696 0.950 . S
C703 C700 1.387 . S
C704 C705 1.387 . S
C704 H708 0.950 . S
C704 C713 1.390 1_556 S
C705 C704 1.387 . S
C705 C707 1.387 . S
H706 C713 0.950 . S
C707 C705 1.387 . S
C707 C709 1.390 . S
C707 H711 0.950 . S
H708 C704 0.950 . S
C709 C707 1.390 . S
C709 C710 1.387 . S
C709 H712 0.950 . S
C710 C709 1.387 . S
C710 C713 1.387 1_556 S
H711 C707 0.950 . S
H712 C709 0.950 . S
C713 C704 1.390 1_554 S
C713 H706 0.950 . S
C713 C710 1.387 1_554 S
C714 C715 1.387 . S
C714 H718 0.950 . S
C714 C723 1.390 . S
C715 C714 1.387 . S
C715 C717 1.387 . S
H716 C723 0.950 . S
C717 C715 1.387 . S
C717 C719 1.390 . S
C717 H721 0.950 . S
H718 C714 0.950 . S
C719 C717 1.390 . S
C719 C720 1.387 . S
C719 H722 0.950 . S
C720 C719 1.387 . S
C720 C723 1.387 . S
H721 C717 0.950 . S
H722 C719 0.950 . S
C723 C714 1.390 . S
C723 H716 0.950 . S
C723 C720 1.387 . S
C724 C725 1.387 . S
C724 H728 0.950 . S
C724 C733 1.390 . S
C725 C724 1.387 . S
C725 C727 1.387 . S
H726 C733 0.950 . S
C727 C725 1.387 . S
C727 C729 1.390 . S
C727 H731 0.950 . S
H728 C724 0.950 . S
C729 C727 1.390 . S
C729 C730 1.387 . S
C729 H732 0.950 . S
C730 C729 1.387 . S
C730 C733 1.387 . S
H731 C727 0.950 . S
H732 C729 0.950 . S
C733 C724 1.390 . S
C733 H726 0.950 . S
C733 C730 1.387 . S
C734 C735 1.387 . S
C734 H738 0.950 . S
C734 C743 1.390 . S
C735 C734 1.387 . S
C735 C737 1.387 . S
H736 C743 0.950 . S
C737 C735 1.387 . S
C737 C739 1.390 . S
C737 H741 0.950 . S
H738 C734 0.950 . S
C739 C737 1.390 . S
C739 C740 1.387 . S
C739 H742 0.950 . S
C740 C739 1.387 . S
C740 C743 1.387 . S
H741 C737 0.950 . S
H742 C739 0.950 . S
C743 C734 1.390 . S
C743 H736 0.950 . S
C743 C740 1.387 . S
C744 C745 1.387 . S
C744 H748 0.950 . S
C744 C753 1.390 . S
C745 C744 1.387 . S
C745 C747 1.387 . S
H746 C753 0.950 . S
C747 C745 1.387 . S
C747 C749 1.390 . S
C747 H751 0.950 . S
H748 C744 0.950 . S
C749 C747 1.390 . S
C749 C750 1.387 . S
C749 H752 0.950 . S
C750 C749 1.387 . S
C750 C753 1.387 . S
H751 C747 0.950 . S
H752 C749 0.950 . S
C753 C744 1.390 . S
C753 H746 0.950 . S
C753 C750 1.387 . S
C754 C755 1.387 1_554 S
C754 H758 0.950 . S
C754 C763 1.390 . S
C755 C754 1.387 1_556 S
C755 C757 1.387 . S
H756 C763 0.950 . S
C757 C755 1.387 . S
C757 C759 1.390 1_556 S
C757 H761 0.950 . S
H758 C754 0.950 . S
C759 C757 1.390 1_554 S
C759 C760 1.387 . S
C759 H762 0.950 . S
C760 C759 1.387 . S
C760 C763 1.387 . S
H761 C757 0.950 . S
H762 C759 0.950 . S
C763 C754 1.390 . S
C763 H756 0.950 . S
C763 C760 1.387 . S
C764 C765 1.387 . S
C764 H768 0.950 . S
C764 C773 1.390 . S
C765 C764 1.387 . S
C765 C767 1.387 1_554 S
H766 C773 0.950 . S
C767 C765 1.387 1_556 S
C767 C769 1.390 1_556 S
C767 H771 0.950 . S
H768 C764 0.950 . S
C769 C767 1.390 1_554 S
C769 C770 1.387 . S
C769 H772 0.950 . S
C770 C769 1.387 . S
C770 C773 1.387 . S
H771 C767 0.950 . S
H772 C769 0.950 . S
C773 C764 1.390 . S
C773 H766 0.950 . S
C773 C770 1.387 . S
C774 C775 1.387 . S
C774 H778 0.950 . S
C774 C783 1.390 . S
C775 C774 1.387 . S
C775 C777 1.387 . S
H776 C783 0.950 . S
C777 C775 1.387 . S
C777 C779 1.390 . S
C777 H781 0.950 . S
H778 C774 0.950 . S
C779 C777 1.390 . S
C779 C780 1.387 . S
C779 H782 0.950 . S
C780 C779 1.387 . S
C780 C783 1.387 . S
H781 C777 0.950 . S
H782 C779 0.950 . S
C783 C774 1.390 . S
C783 H776 0.950 . S
C783 C780 1.387 . S
C784 C785 1.387 . S
C784 H788 0.950 . S
C784 C793 1.390 . S
C785 C784 1.387 . S
C785 C787 1.387 . S
H786 C793 0.950 . S
C787 C785 1.387 . S
C787 C789 1.390 . S
C787 H791 0.950 . S
H788 C784 0.950 . S
C789 C787 1.390 . S
C789 C790 1.387 . S
C789 H792 0.950 . S
C790 C789 1.387 . S
C790 C793 1.387 . S
H791 C787 0.950 . S
H792 C789 0.950 . S
C793 C784 1.390 . S
C793 H786 0.950 . S
C793 C790 1.387 . S
C794 C795 1.387 . S
C794 H798 0.950 . S
C794 C803 1.390 . S
C795 C794 1.387 . S
C795 C797 1.387 . S
H796 C803 0.950 . S
C797 C795 1.387 . S
C797 C799 1.390 . S
C797 H801 0.950 . S
H798 C794 0.950 . S
C799 C797 1.390 . S
C799 C800 1.387 . S
C799 H802 0.950 . S
C800 C799 1.387 . S
C800 C803 1.387 . S
H801 C797 0.950 . S
H802 C799 0.950 . S
C803 C794 1.390 . S
C803 H796 0.950 . S
C803 C800 1.387 . S
C804 C805 1.387 . S
C804 H808 0.950 . S
C804 C813 1.390 . S
C805 C804 1.387 . S
C805 C807 1.387 . S
H806 C813 0.950 . S
C807 C805 1.387 . S
C807 C809 1.390 . S
C807 H811 0.950 . S
H808 C804 0.950 . S
C809 C807 1.390 . S
C809 C810 1.387 . S
C809 H812 0.950 . S
C810 C809 1.387 . S
C810 C813 1.387 . S
H811 C807 0.950 . S
H812 C809 0.950 . S
C813 C804 1.390 . S
C813 H806 0.950 . S
C813 C810 1.387 . S
C814 C815 1.387 . S
C814 H818 0.950 . S
C814 C823 1.390 . S
C815 C814 1.387 . S
C815 C817 1.387 . S
H816 C823 0.950 . S
C817 C815 1.387 . S
C817 C819 1.390 . S
C817 H821 0.950 . S
H818 C814 0.950 . S
C819 C817 1.390 . S
C819 C820 1.387 . S
C819 H822 0.950 . S
C820 C819 1.387 . S
C820 C823 1.387 . S
H821 C817 0.950 . S
H822 C819 0.950 . S
C823 C814 1.390 . S
C823 H816 0.950 . S
C823 C820 1.387 . S
C824 C825 1.387 . S
C824 H828 0.950 . S
C824 C833 1.390 . S
C825 C824 1.387 . S
C825 C827 1.387 . S
H826 C833 0.950 . S
C827 C825 1.387 . S
C827 C829 1.390 . S
C827 H831 0.950 . S
H828 C824 0.950 . S
C829 C827 1.390 . S
C829 C830 1.387 . S
C829 H832 0.950 . S
C830 C829 1.387 . S
C830 C833 1.387 . S
H831 C827 0.950 . S
H832 C829 0.950 . S
C833 C824 1.390 . S
C833 H826 0.950 . S
C833 C830 1.387 . S
C834 C835 1.387 . S
C834 H838 0.950 . S
C834 C843 1.390 . S
C835 C834 1.387 . S
C835 C837 1.387 . S
H836 C843 0.950 . S
C837 C835 1.387 . S
C837 C839 1.390 . S
C837 H841 0.950 . S
H838 C834 0.950 . S
C839 C837 1.390 . S
C839 C840 1.387 . S
C839 H842 0.950 . S
C840 C839 1.387 . S
C840 C843 1.387 . S
H841 C837 0.950 . S
H842 C839 0.950 . S
C843 C834 1.390 . S
C843 H836 0.950 . S
C843 C840 1.387 . S
C844 C845 1.387 . S
C844 H848 0.950 . S
C844 C853 1.390 . S
C845 C844 1.387 . S
C845 C847 1.387 . S
H846 C853 0.950 . S
C847 C845 1.387 . S
C847 C849 1.390 . S
C847 H851 0.950 . S
H848 C844 0.950 . S
C849 C847 1.390 . S
C849 C850 1.387 . S
C849 H852 0.950 . S
C850 C849 1.387 . S
C850 C853 1.387 . S
H851 C847 0.950 . S
H852 C849 0.950 . S
C853 C844 1.390 . S
C853 H846 0.950 . S
C853 C850 1.387 . S
C854 C855 1.387 . S
C854 H858 0.950 . S
C854 C863 1.390 . S
C855 C854 1.387 . S
C855 C857 1.387 . S
H856 C863 0.950 . S
C857 C855 1.387 . S
C857 C859 1.390 . S
C857 H861 0.950 . S
H858 C854 0.950 . S
C859 C857 1.390 . S
C859 C860 1.387 . S
C859 H862 0.950 . S
C860 C859 1.387 . S
C860 C863 1.387 . S
H861 C857 0.950 . S
H862 C859 0.950 . S
C863 C854 1.390 . S
C863 H856 0.950 . S
C863 C860 1.387 . S
C864 C865 1.387 . S
C864 H868 0.950 . S
C864 C873 1.390 . S
C865 C864 1.387 . S
C865 C867 1.387 . S
H866 C873 0.950 . S
C867 C865 1.387 . S
C867 C869 1.390 . S
C867 H871 0.950 . S
H868 C864 0.950 . S
C869 C867 1.390 . S
C869 C870 1.387 . S
C869 H872 0.950 . S
C870 C869 1.387 . S
C870 C873 1.387 . S
H871 C867 0.950 . S
H872 C869 0.950 . S
C873 C864 1.390 . S
C873 H866 0.950 . S
C873 C870 1.387 . S
C874 C875 1.387 . S
C874 H878 0.950 . S
C874 C883 1.390 . S
C875 C874 1.387 . S
C875 C877 1.387 . S
H876 C883 0.950 . S
C877 C875 1.387 . S
C877 C879 1.390 . S
C877 H881 0.950 . S
H878 C874 0.950 . S
C879 C877 1.390 . S
C879 C880 1.387 . S
C879 H882 0.950 . S
C880 C879 1.387 . S
C880 C883 1.387 . S
H881 C877 0.950 . S
H882 C879 0.950 . S
C883 C874 1.390 . S
C883 H876 0.950 . S
C883 C880 1.387 . S
C884 C885 1.387 . S
C884 H888 0.950 . S
C884 C893 1.390 . S
C885 C884 1.387 . S
C885 C887 1.387 . S
H886 C893 0.950 . S
C887 C885 1.387 . S
C887 C889 1.390 . S
C887 H891 0.950 . S
H888 C884 0.950 . S
C889 C887 1.390 . S
C889 C890 1.387 . S
C889 H892 0.950 . S
C890 C889 1.387 . S
C890 C893 1.387 . S
H891 C887 0.950 . S
H892 C889 0.950 . S
C893 C884 1.390 . S
C893 H886 0.950 . S
C893 C890 1.387 . S
C894 C895 1.387 . S
C894 H898 0.950 . S
C894 C903 1.390 . S
C895 C894 1.387 . S
C895 C897 1.387 . S
H896 C903 0.950 . S
C897 C895 1.387 . S
C897 C899 1.390 . S
C897 H901 0.950 . S
H898 C894 0.950 . S
C899 C897 1.390 . S
C899 C900 1.387 . S
C899 H902 0.950 . S
C900 C899 1.387 . S
C900 C903 1.387 . S
H901 C897 0.950 . S
H902 C899 0.950 . S
C903 C894 1.390 . S
C903 H896 0.950 . S
C903 C900 1.387 . S
C904 C905 1.387 . S
C904 H908 0.950 . S
C904 C913 1.390 . S
C905 C904 1.387 . S
C905 C907 1.387 . S
H906 C913 0.950 . S
C907 C905 1.387 . S
C907 C909 1.390 . S
C907 H911 0.950 . S
H908 C904 0.950 . S
C909 C907 1.390 . S
C909 C910 1.387 . S
C909 H912 0.950 . S
C910 C909 1.387 . S
C910 C913 1.387 . S
H911 C907 0.950 . S
H912 C909 0.950 . S
C913 C904 1.390 . S
C913 H906 0.950 . S
C913 C910 1.387 . S
C914 C915 1.387 . S
C914 H918 0.950 . S
C914 C923 1.390 . S
C915 C914 1.387 . S
C915 C917 1.387 . S
H916 C923 0.950 . S
C917 C915 1.387 . S
C917 C919 1.390 . S
C917 H921 0.950 . S
H918 C914 0.950 . S
C919 C917 1.390 . S
C919 C920 1.387 . S
C919 H922 0.950 . S
C920 C919 1.387 . S
C920 C923 1.387 . S
H921 C917 0.950 . S
H922 C919 0.950 . S
C923 C914 1.390 . S
C923 H916 0.950 . S
C923 C920 1.387 . S
C924 C925 1.387 . S
C924 H928 0.950 . S
C924 C933 1.390 . S
C925 C924 1.387 . S
C925 C927 1.387 . S
H926 C933 0.950 . S
C927 C925 1.387 . S
C927 C929 1.390 . S
C927 H931 0.950 . S
H928 C924 0.950 . S
C929 C927 1.390 . S
C929 C930 1.387 . S
C929 H932 0.950 . S
C930 C929 1.387 . S
C930 C933 1.387 . S
H931 C927 0.950 . S
H932 C929 0.950 . S
C933 C924 1.390 . S
C933 H926 0.950 . S
C933 C930 1.387 . S
C934 C935 1.387 . S
C934 H938 0.950 . S
C934 C943 1.390 . S
C935 C934 1.387 . S
C935 C937 1.387 . S
H936 C943 0.950 . S
C937 C935 1.387 . S
C937 C939 1.390 . S
C937 H941 0.950 . S
H938 C934 0.950 . S
C939 C937 1.390 . S
C939 C940 1.387 . S
C939 H942 0.950 . S
C940 C939 1.387 . S
C940 C943 1.387 . S
H941 C937 0.950 . S
H942 C939 0.950 . S
C943 C934 1.390 . S
C943 H936 0.950 . S
C943 C940 1.387 . S
C944 C945 1.387 . S
C944 H948 0.950 . S
C944 C953 1.390 . S
C945 C944 1.387 . S
C945 C947 1.387 . S
H946 C953 0.950 . S
C947 C945 1.387 . S
C947 C949 1.390 . S
C947 H951 0.950 . S
H948 C944 0.950 . S
C949 C947 1.390 . S
C949 C950 1.387 . S
C949 H952 0.950 . S
C950 C949 1.387 . S
C950 C953 1.387 . S
H951 C947 0.950 . S
H952 C949 0.950 . S
C953 C944 1.390 . S
C953 H946 0.950 . S
C953 C950 1.387 . S
C954 C955 1.387 . S
C954 H958 0.950 . S
C954 C963 1.390 . S
C955 C954 1.387 . S
C955 C957 1.387 . S
H956 C963 0.950 . S
C957 C955 1.387 . S
C957 C959 1.390 . S
C957 H961 0.950 . S
H958 C954 0.950 . S
C959 C957 1.390 . S
C959 C960 1.387 . S
C959 H962 0.950 . S
C960 C959 1.387 . S
C960 C963 1.387 . S
H961 C957 0.950 . S
H962 C959 0.950 . S
C963 C954 1.390 . S
C963 H956 0.950 . S
C963 C960 1.387 . S
C964 C965 1.387 . S
C964 H968 0.950 . S
C964 C973 1.390 . S
C965 C964 1.387 . S
C965 C967 1.387 . S
H966 C973 0.950 . S
C967 C965 1.387 . S
C967 C969 1.390 . S
C967 H971 0.950 . S
H968 C964 0.950 . S
C969 C967 1.390 . S
C969 C970 1.387 . S
C969 H972 0.950 . S
C970 C969 1.387 . S
C970 C973 1.387 . S
H971 C967 0.950 . S
H972 C969 0.950 . S
C973 C964 1.390 . S
C973 H966 0.950 . S
C973 C970 1.387 . S
C974 C975 1.387 . S
C974 H978 0.950 . S
C974 C983 1.390 . S
C975 C974 1.387 . S
C975 C977 1.387 . S
H976 C983 0.950 . S
C977 C975 1.387 . S
C977 C979 1.390 . S
C977 H981 0.950 . S
H978 C974 0.950 . S
C979 C977 1.390 . S
C979 C980 1.387 . S
C979 H982 0.950 . S
C980 C979 1.387 . S
C980 C983 1.387 . S
H981 C977 0.950 . S
H982 C979 0.950 . S
C983 C974 1.390 . S
C983 H976 0.950 . S
C983 C980 1.387 . S
C984 C985 1.387 . S
C984 H988 0.950 . S
C984 C993 1.390 . S
C985 C984 1.387 . S
C985 C987 1.387 . S
H986 C993 0.950 . S
C987 C985 1.387 . S
C987 C989 1.390 . S
C987 H991 0.950 . S
H988 C984 0.950 . S
C989 C987 1.390 . S
C989 C990 1.387 . S
C989 H992 0.950 . S
C990 C989 1.387 . S
C990 C993 1.387 . S
H991 C987 0.950 . S
H992 C989 0.950 . S
C993 C984 1.390 . S
C993 H986 0.950 . S
C993 C990 1.387 . S
C994 C995 1.387 . S
C994 H998 0.950 . S
C994 C1003 1.390 . S
C995 C994 1.387 . S
C995 C997 1.387 . S
H996 C1003 0.950 . S
C997 C995 1.387 . S
C997 C999 1.390 . S
C997 H1001 0.950 . S
H998 C994 0.950 . S
C999 C997 1.390 . S
C999 C1000 1.387 . S
C999 H1002 0.950 . S
C1000 C999 1.387 . S
C1000 C1003 1.387 . S
H1001 C997 0.950 . S
H1002 C999 0.950 . S
C1003 C994 1.390 . S
C1003 H996 0.950 . S
C1003 C1000 1.387 . S
C1004 C1005 1.387 . S
C1004 H1008 0.950 . S
C1004 C1013 1.390 . S
C1005 C1004 1.387 . S
C1005 C1007 1.387 . S
H1006 C1013 0.950 . S
C1007 C1005 1.387 . S
C1007 C1009 1.390 . S
C1007 H1011 0.950 . S
H1008 C1004 0.950 . S
C1009 C1007 1.390 . S
C1009 C1010 1.387 . S
C1009 H1012 0.950 . S
C1010 C1009 1.387 . S
C1010 C1013 1.387 . S
H1011 C1007 0.950 . S
H1012 C1009 0.950 . S
C1013 C1004 1.390 . S
C1013 H1006 0.950 . S
C1013 C1010 1.387 . S
C1014 C1015 1.387 . S
C1014 H1018 0.950 . S
C1014 C1023 1.390 . S
C1015 C1014 1.387 . S
C1015 C1017 1.387 . S
H1016 C1023 0.950 . S
C1017 C1015 1.387 . S
C1017 C1019 1.390 . S
C1017 H1021 0.950 . S
H1018 C1014 0.950 . S
C1019 C1017 1.390 . S
C1019 C1020 1.387 . S
C1019 H1022 0.950 . S
C1020 C1019 1.387 . S
C1020 C1023 1.387 . S
H1021 C1017 0.950 . S
H1022 C1019 0.950 . S
C1023 C1014 1.390 . S
C1023 H1016 0.950 . S
C1023 C1020 1.387 . S
C1024 C1025 1.387 . S
C1024 H1028 0.950 . S
C1024 C1033 1.390 . S
C1025 C1024 1.387 . S
C1025 C1027 1.387 . S
H1026 C1033 0.950 . S
C1027 C1025 1.387 . S
C1027 C1029 1.390 . S
C1027 H1031 0.950 . S
H1028 C1024 0.950 . S
C1029 C1027 1.390 . S
C1029 C1030 1.387 . S
C1029 H1032 0.950 . S
C1030 C1029 1.387 . S
C1030 C1033 1.387 . S
H1031 C1027 0.950 . S
H1032 C1029 0.950 . S
C1033 C1024 1.390 . S
C1033 H1026 0.950 . S
C1033 C1030 1.387 . S
C1034 C1035 1.387 . S
C1034 H1038 0.950 . S
C1034 C1043 1.390 . S
C1035 C1034 1.387 . S
C1035 C1037 1.387 . S
H1036 C1043 0.950 . S
C1037 C1035 1.387 . S
C1037 C1039 1.390 . S
C1037 H1041 0.950 . S
H1038 C1034 0.950 . S
C1039 C1037 1.390 . S
C1039 C1040 1.387 . S
C1039 H1042 0.950 . S
C1040 C1039 1.387 . S
C1040 C1043 1.387 . S
H1041 C1037 0.950 . S
H1042 C1039 0.950 . S
C1043 C1034 1.390 . S
C1043 H1036 0.950 . S
C1043 C1040 1.387 . S
C1044 C1045 1.387 . S
C1044 H1048 0.950 . S
C1044 C1053 1.390 . S
C1045 C1044 1.387 . S
C1045 C1047 1.387 . S
H1046 C1053 0.950 . S
C1047 C1045 1.387 . S
C1047 C1049 1.390 . S
C1047 H1051 0.950 . S
H1048 C1044 0.950 . S
C1049 C1047 1.390 . S
C1049 C1050 1.387 . S
C1049 H1052 0.950 1_556 S
C1050 C1049 1.387 . S
C1050 C1053 1.387 . S
H1051 C1047 0.950 . S
H1052 C1049 0.950 1_554 S
C1053 C1044 1.390 . S
C1053 H1046 0.950 . S
C1053 C1050 1.387 . S
C1054 C1055 1.387 . S
C1054 H1058 0.950 . S
C1054 C1063 1.390 . S
C1055 C1054 1.387 . S
C1055 C1057 1.387 . S
H1056 C1063 0.950 . S
C1057 C1055 1.387 . S
C1057 C1059 1.390 . S
C1057 H1061 0.950 . S
H1058 C1054 0.950 . S
C1059 C1057 1.390 . S
C1059 C1060 1.387 . S
C1059 H1062 0.950 . S
C1060 C1059 1.387 . S
C1060 C1063 1.387 . S
H1061 C1057 0.950 . S
H1062 C1059 0.950 . S
C1063 C1054 1.390 . S
C1063 H1056 0.950 . S
C1063 C1060 1.387 . S
C1064 C1065 1.387 . S
C1064 H1068 0.950 . S
C1064 C1073 1.390 . S
C1065 C1064 1.387 . S
C1065 C1067 1.387 . S
H1066 C1073 0.950 . S
C1067 C1065 1.387 . S
C1067 C1069 1.390 . S
C1067 H1071 0.950 . S
H1068 C1064 0.950 . S
C1069 C1067 1.390 . S
C1069 C1070 1.387 . S
C1069 H1072 0.950 . S
C1070 C1069 1.387 . S
C1070 C1073 1.387 . S
H1071 C1067 0.950 . S
H1072 C1069 0.950 . S
C1073 C1064 1.390 . S
C1073 H1066 0.950 . S
C1073 C1070 1.387 . S
C1074 C1075 1.387 . S
C1074 H1078 0.950 . S
C1074 C1083 1.390 . S
C1075 C1074 1.387 . S
C1075 C1077 1.387 . S
H1076 C1083 0.950 . S
C1077 C1075 1.387 . S
C1077 C1079 1.390 . S
C1077 H1081 0.950 . S
H1078 C1074 0.950 . S
C1079 C1077 1.390 . S
C1079 C1080 1.387 . S
C1079 H1082 0.950 . S
C1080 C1079 1.387 . S
C1080 C1083 1.387 . S
H1081 C1077 0.950 . S
H1082 C1079 0.950 . S
C1083 C1074 1.390 . S
C1083 H1076 0.950 . S
C1083 C1080 1.387 . S
C1084 C1085 1.387 . S
C1084 H1088 0.950 . S
C1084 C1093 1.390 . S
C1085 C1084 1.387 . S
C1085 C1087 1.387 . S
H1086 C1093 0.950 . S
C1087 C1085 1.387 . S
C1087 C1089 1.390 . S
C1087 H1091 0.950 . S
H1088 C1084 0.950 . S
C1089 C1087 1.390 . S
C1089 C1090 1.387 . S
C1089 H1092 0.950 . S
C1090 C1089 1.387 . S
C1090 C1093 1.387 . S
H1091 C1087 0.950 . S
H1092 C1089 0.950 . S
C1093 C1084 1.390 . S
C1093 H1086 0.950 . S
C1093 C1090 1.387 . S
C1094 C1095 1.387 . S
C1094 H1098 0.950 . S
C1094 C1103 1.390 . S
C1095 C1094 1.387 . S
C1095 C1097 1.387 . S
H1096 C1103 0.950 . S
C1097 C1095 1.387 . S
C1097 C1099 1.390 . S
C1097 H1101 0.950 . S
H1098 C1094 0.950 . S
C1099 C1097 1.390 . S
C1099 C1100 1.387 . S
C1099 H1102 0.950 . S
C1100 C1099 1.387 . S
C1100 C1103 1.387 . S
H1101 C1097 0.950 . S
H1102 C1099 0.950 . S
C1103 C1094 1.390 . S
C1103 H1096 0.950 . S
C1103 C1100 1.387 . S
C1104 C1105 1.387 . S
C1104 H1108 0.950 1_554 S
C1104 C1113 1.390 . S
C1105 C1104 1.387 . S
C1105 C1107 1.387 . S
H1106 C1113 0.950 . S
C1107 C1105 1.387 . S
C1107 C1109 1.390 . S
C1107 H1111 0.950 . S
H1108 C1104 0.950 1_556 S
C1109 C1107 1.390 . S
C1109 C1110 1.387 . S
C1109 H1112 0.950 . S
C1110 C1109 1.387 . S
C1110 C1113 1.387 . S
H1111 C1107 0.950 . S
H1112 C1109 0.950 . S
C1113 C1104 1.390 . S
C1113 H1106 0.950 . S
C1113 C1110 1.387 . S
C1114 C1115 1.387 . S
C1114 H1118 0.950 . S
C1114 C1123 1.390 . S
C1115 C1114 1.387 . S
C1115 C1117 1.387 . S
H1116 C1123 0.950 . S
C1117 C1115 1.387 . S
C1117 C1119 1.390 . S
C1117 H1121 0.950 . S
H1118 C1114 0.950 . S
C1119 C1117 1.390 . S
C1119 C1120 1.387 . S
C1119 H1122 0.950 . S
C1120 C1119 1.387 . S
C1120 C1123 1.387 . S
H1121 C1117 0.950 . S
H1122 C1119 0.950 . S
C1123 C1114 1.390 . S
C1123 H1116 0.950 . S
C1123 C1120 1.387 . S
C1124 C1125 1.387 . S
C1124 H1128 0.950 . S
C1124 C1133 1.390 . S
C1125 C1124 1.387 . S
C1125 C1127 1.387 . S
H1126 C1133 0.950 . S
C1127 C1125 1.387 . S
C1127 C1129 1.390 . S
C1127 H1131 0.950 . S
H1128 C1124 0.950 . S
C1129 C1127 1.390 . S
C1129 C1130 1.387 . S
C1129 H1132 0.950 . S
C1130 C1129 1.387 . S
C1130 C1133 1.387 . S
H1131 C1127 0.950 . S
H1132 C1129 0.950 . S
C1133 C1124 1.390 . S
C1133 H1126 0.950 . S
C1133 C1130 1.387 . S
C1134 C1135 1.387 . S
C1134 H1138 0.950 . S
C1134 C1143 1.390 . S
C1135 C1134 1.387 . S
C1135 C1137 1.387 . S
H1136 C1143 0.950 . S
C1137 C1135 1.387 . S
C1137 C1139 1.390 . S
C1137 H1141 0.950 . S
H1138 C1134 0.950 . S
C1139 C1137 1.390 . S
C1139 C1140 1.387 . S
C1139 H1142 0.950 . S
C1140 C1139 1.387 . S
C1140 C1143 1.387 . S
H1141 C1137 0.950 . S
H1142 C1139 0.950 . S
C1143 C1134 1.390 . S
C1143 H1136 0.950 . S
C1143 C1140 1.387 . S
C1144 C1145 1.387 . S
C1144 H1148 0.950 . S
C1144 C1153 1.390 . S
C1145 C1144 1.387 . S
C1145 C1147 1.387 . S
H1146 C1153 0.950 . S
C1147 C1145 1.387 . S
C1147 C1149 1.390 . S
C1147 H1151 0.950 . S
H1148 C1144 0.950 . S
C1149 C1147 1.390 . S
C1149 C1150 1.387 . S
C1149 H1152 0.950 . S
C1150 C1149 1.387 . S
C1150 C1153 1.387 . S
H1151 C1147 0.950 . S
H1152 C1149 0.950 . S
C1153 C1144 1.390 . S
C1153 H1146 0.950 . S
C1153 C1150 1.387 . S
C1154 C1155 1.387 . S
C1154 H1158 0.950 . S
C1154 C1163 1.390 . S
C1155 C1154 1.387 . S
C1155 C1157 1.387 . S
H1156 C1163 0.950 . S
C1157 C1155 1.387 . S
C1157 C1159 1.390 . S
C1157 H1161 0.950 . S
H1158 C1154 0.950 . S
C1159 C1157 1.390 . S
C1159 C1160 1.387 . S
C1159 H1162 0.950 . S
C1160 C1159 1.387 . S
C1160 C1163 1.387 . S
H1161 C1157 0.950 . S
H1162 C1159 0.950 . S
C1163 C1154 1.390 . S
C1163 H1156 0.950 . S
C1163 C1160 1.387 . S
C1164 C1165 1.387 1_455 S
C1164 H1168 0.950 . S
C1164 C1173 1.390 . S
C1165 C1164 1.387 1_655 S
C1165 C1167 1.387 . S
H1166 C1173 0.950 . S
C1167 C1165 1.387 . S
C1167 C1169 1.390 1_655 S
C1167 H1171 0.950 . S
H1168 C1164 0.950 . S
C1169 C1167 1.390 1_455 S
C1169 C1170 1.387 . S
C1169 H1172 0.950 . S
C1170 C1169 1.387 . S
C1170 C1173 1.387 . S
H1171 C1167 0.950 . S
H1172 C1169 0.950 . S
C1173 C1164 1.390 . S
C1173 H1166 0.950 . S
C1173 C1170 1.387 . S
C1174 C1175 1.387 . S
C1174 H1178 0.950 . S
C1174 C1183 1.390 . S
C1175 C1174 1.387 . S
C1175 C1177 1.387 . S
H1176 C1183 0.950 . S
C1177 C1175 1.387 . S
C1177 C1179 1.390 . S
C1177 H1181 0.950 . S
H1178 C1174 0.950 . S
C1179 C1177 1.390 . S
C1179 C1180 1.387 . S
C1179 H1182 0.950 . S
C1180 C1179 1.387 . S
C1180 C1183 1.387 . S
H1181 C1177 0.950 . S
H1182 C1179 0.950 . S
C1183 C1174 1.390 . S
C1183 H1176 0.950 . S
C1183 C1180 1.387 . S
C1184 C1185 1.387 1_545 S
C1184 H1188 0.950 1_545 S
C1184 C1193 1.390 . S
C1185 C1184 1.387 1_565 S
C1185 C1187 1.387 1_565 S
H1186 C1193 0.950 . S
C1187 C1185 1.387 1_545 S
C1187 C1189 1.390 . S
C1187 H1191 0.950 . S
H1188 C1184 0.950 1_565 S
C1189 C1187 1.390 . S
C1189 C1190 1.387 . S
C1189 H1192 0.950 . S
C1190 C1189 1.387 . S
C1190 C1193 1.387 . S
H1191 C1187 0.950 . S
H1192 C1189 0.950 . S
C1193 C1184 1.390 . S
C1193 H1186 0.950 . S
C1193 C1190 1.387 . S
C1194 C1195 1.387 1_565 S
C1194 H1198 0.950 . S
C1194 C1203 1.390 . S
C1195 C1194 1.387 1_545 S
C1195 C1197 1.408 . S
H1196 C1203 0.950 . S
C1197 C1195 1.408 . S
C1197 C1199 1.359 1_545 S
C1197 H1201 0.963 . S
H1198 C1194 0.950 . S
C1199 C1197 1.359 1_565 S
C1199 C1200 1.387 . S
C1199 H1202 0.950 . S
C1200 C1199 1.387 . S
C1200 C1203 1.387 . S
H1201 C1197 0.963 . S
H1202 C1199 0.950 . S
C1203 C1194 1.390 . S
C1203 H1196 0.950 . S
C1203 C1200 1.387 . S
C1204 C1205 1.387 . S
C1204 H1208 0.950 . S
C1204 C1213 1.390 1_455 S
C1205 C1204 1.387 . S
C1205 C1207 1.387 1_455 S
H1206 C1213 0.950 . S
C1207 C1205 1.387 1_655 S
C1207 C1209 1.390 . S
C1207 H1211 0.950 . S
H1208 C1204 0.950 . S
C1209 C1207 1.390 . S
C1209 C1210 1.387 . S
C1209 H1212 0.950 . S
C1210 C1209 1.387 . S
C1210 C1213 1.387 . S
H1211 C1207 0.950 . S
H1212 C1209 0.950 . S
C1213 C1204 1.390 1_655 S
C1213 H1206 0.950 . S
C1213 C1210 1.387 . S
C1214 C1215 1.387 . S
C1214 H1218 0.950 . S
C1214 C1223 1.390 . S
C1215 C1214 1.387 . S
C1215 C1217 1.387 . S
H1216 C1223 0.950 . S
C1217 C1215 1.387 . S
C1217 C1219 1.390 . S
C1217 H1221 0.950 . S
H1218 C1214 0.950 . S
C1219 C1217 1.390 . S
C1219 C1220 1.387 . S
C1219 H1222 0.950 . S
C1220 C1219 1.387 . S
C1220 C1223 1.387 . S
H1221 C1217 0.950 . S
H1222 C1219 0.950 . S
C1223 C1214 1.390 . S
C1223 H1216 0.950 . S
C1223 C1220 1.387 . S
C505 C76 1.578 . S
C510 C6 1.560 . S
C515 C20 1.578 . S
C520 C48 1.560 . S
C525 C62 1.434 . S
C530 C34 1.433 . S
C535 C90 1.560 . S
C540 C160 1.578 . S
C545 C104 1.579 . S
C550 C132 1.561 . S
C555 C146 1.432 . S
C560 C118 1.433 . S
C565 C244 1.437 . S
C570 C174 1.497 . S
C575 C188 1.554 . S
C580 C216 1.544 . S
C585 C230 1.538 . S
C590 C202 1.585 . S
C595 C258 1.544 . S
C600 C328 1.554 . S
C605 C272 1.435 . S
C610 C300 1.496 1_554 S
C615 C286 1.537 . S
C620 C314 1.584 1_554 S
C625 C342 1.544 . S
C630 C412 1.554 . S
C635 C384 1.496 1_556 S
C640 C356 1.435 . S
C645 C370 1.537 . S
C650 C398 1.584 1_556 S
C655 C426 1.496 . S
C660 C496 1.435 . S
C665 C440 1.555 . S
C670 C468 1.543 . S
C675 C454 1.584 . S
C680 C482 1.537 . S
C685 C147 2.152 . S
C690 C9 2.080 1_556 S
C695 C161 2.050 . S
C700 C23 1.905 . S
C705 C133 2.039 . S
C710 C37 1.944 1_556 S
C715 C119 2.151 . S
C720 C51 2.079 . S
C725 C65 1.943 . S
C730 C91 2.040 . S
C735 C79 1.903 . S
C740 C105 2.049 . S
C745 C93 2.080 1_554 S
C750 C63 2.150 . S
C755 C107 1.905 . S
C760 C77 2.050 . S
C765 C121 1.944 1_554 S
C770 C49 2.039 . S
C775 C35 2.150 . S
C780 C135 2.079 . S
C785 C7 2.037 . S
C790 C149 1.940 . S
C795 C163 1.903 . S
C800 C21 2.049 . S
C805 C177 1.445 . S
C810 C315 1.407 . S
C815 C191 2.158 . S
C820 C329 2.240 . S
C825 C301 1.427 . S
C830 C205 1.327 . S
C835 C219 1.894 . S
C840 C287 1.976 1_556 S
C845 C233 2.202 . S
C850 C259 2.176 1_556 S
C855 C247 2.027 . S
C860 C273 1.998 . S
C865 C261 1.892 . S
C870 C231 1.975 . S
C875 C245 1.997 . S
C880 C275 2.026 . S
C885 C217 2.174 . S
C890 C289 2.200 . S
C895 C303 1.447 . S
C900 C203 1.406 . S
C905 C175 1.429 . S
C910 C317 1.325 . S
C915 C189 2.240 . S
C920 C331 2.159 . S
C925 C483 1.975 . S
C930 C345 1.892 . S
C935 C359 2.028 . S
C940 C497 1.999 . S
C945 C373 2.200 . S
C950 C469 2.174 . S
C955 C455 1.407 . S
C960 C387 1.446 . S
C965 C427 1.429 . S
C970 C401 1.331 . S
C975 C441 2.240 . S
C980 C415 2.159 . S
C985 C429 1.447 . S
C990 C399 1.407 . S
C995 C413 2.239 . S
C1000 C443 2.157 . S
C1005 C457 1.329 . S
C1010 C385 1.428 . S
C1015 C371 1.976 1_554 S
C1020 C471 1.894 . S
C1025 C343 2.173 1_554 S
C1030 C485 2.200 . S
C1035 C357 2.000 . S
C1040 C499 2.029 . S
C1045 C232 1.805 . S
C1050 C8 1.802 1_556 S
C1055 C22 1.924 1_556 S
C1060 C246 1.835 . S
C1065 C218 2.157 . S
C1070 C36 2.199 1_556 S
C1075 C372 1.807 . S
C1080 C50 1.806 . S
C1085 C64 2.196 . S
C1090 C344 2.154 . S
C1095 C78 1.925 . S
C1100 C358 1.836 . S
C1105 C92 1.802 1_554 S
C1110 C484 1.805 . S
C1115 C498 1.835 . S
C1120 C106 1.923 1_554 S
C1125 C470 2.157 . S
C1130 C120 2.199 1_554 S
C1135 C288 1.807 . S
C1140 C134 1.806 . S
C1145 C148 2.196 . S
C1150 C260 2.153 . S
C1155 C162 1.924 . S
C1160 C274 1.838 . S
C1165 C176 1.284 . S
C1170 C400 1.289 . S
C1175 C414 2.210 . S
C1180 C190 2.208 . S
C1185 C386 1.282 . S
C1190 C204 1.288 . S
C1195 C302 1.283 . S
C1200 C456 1.290 . S
C1205 C428 1.283 . S
C1210 C316 1.288 . S
C1215 C442 2.208 . S
C1220 C330 2.210 . S
