# Generated by pormake.
# Topology uob, (4)-cn, num edge types: 1
# Building blocks:
#     Node 0, Type 0, BuildingBlock: CEKHIL_clean_sbu_0, # of connection points: 4
#     Node 1, Type 0, BuildingBlock: CEKHIL_clean_sbu_0, # of connection points: 4
#     Node 2, Type 0, BuildingBlock: CEKHIL_clean_sbu_0, # of connection points: 4
#     Node 3, Type 0, BuildingBlock: CEKHIL_clean_sbu_0, # of connection points: 4
#     Node 4, Type 0, BuildingBlock: CEKHIL_clean_sbu_0, # of connection points: 4
#     Node 5, Type 0, BuildingBlock: CEKHIL_clean_sbu_0, # of connection points: 4
#     Node 6, Type 0, BuildingBlock: CEKHIL_clean_sbu_0, # of connection points: 4
#     Node 7, Type 0, BuildingBlock: CEKHIL_clean_sbu_0, # of connection points: 4
#     Node 8, Type 0, BuildingBlock: CEKHIL_clean_sbu_0, # of connection points: 4
#     Node 9, Type 0, BuildingBlock: CEKHIL_clean_sbu_0, # of connection points: 4
#     Node 10, Type 0, BuildingBlock: CEKHIL_clean_sbu_0, # of connection points: 4
#     Node 11, Type 0, BuildingBlock: CEKHIL_clean_sbu_0, # of connection points: 4
#     Node 12, Type 0, BuildingBlock: CEKHIL_clean_sbu_0, # of connection points: 4
#     Node 13, Type 0, BuildingBlock: CEKHIL_clean_sbu_0, # of connection points: 4
#     Node 14, Type 0, BuildingBlock: CEKHIL_clean_sbu_0, # of connection points: 4
#     Node 15, Type 0, BuildingBlock: CEKHIL_clean_sbu_0, # of connection points: 4
#     Edge 16, Type (0, 0), BuildingBlock: AJUNOK_clean_linker_0, # of connection points: 2
#     Edge 17, Type (0, 0), BuildingBlock: AJUNOK_clean_linker_0, # of connection points: 2
#     Edge 18, Type (0, 0), BuildingBlock: AJUNOK_clean_linker_0, # of connection points: 2
#     Edge 19, Type (0, 0), BuildingBlock: AJUNOK_clean_linker_0, # of connection points: 2
#     Edge 20, Type (0, 0), BuildingBlock: AJUNOK_clean_linker_0, # of connection points: 2
#     Edge 21, Type (0, 0), BuildingBlock: AJUNOK_clean_linker_0, # of connection points: 2
#     Edge 22, Type (0, 0), BuildingBlock: AJUNOK_clean_linker_0, # of connection points: 2
#     Edge 23, Type (0, 0), BuildingBlock: AJUNOK_clean_linker_0, # of connection points: 2
#     Edge 24, Type (0, 0), BuildingBlock: AJUNOK_clean_linker_0, # of connection points: 2
#     Edge 25, Type (0, 0), BuildingBlock: AJUNOK_clean_linker_0, # of connection points: 2
#     Edge 26, Type (0, 0), BuildingBlock: AJUNOK_clean_linker_0, # of connection points: 2
#     Edge 27, Type (0, 0), BuildingBlock: AJUNOK_clean_linker_0, # of connection points: 2
#     Edge 28, Type (0, 0), BuildingBlock: AJUNOK_clean_linker_0, # of connection points: 2
#     Edge 29, Type (0, 0), BuildingBlock: AJUNOK_clean_linker_0, # of connection points: 2
#     Edge 30, Type (0, 0), BuildingBlock: AJUNOK_clean_linker_0, # of connection points: 2
#     Edge 31, Type (0, 0), BuildingBlock: AJUNOK_clean_linker_0, # of connection points: 2
#     Edge 32, Type (0, 0), BuildingBlock: AJUNOK_clean_linker_0, # of connection points: 2
#     Edge 33, Type (0, 0), BuildingBlock: AJUNOK_clean_linker_0, # of connection points: 2
#     Edge 34, Type (0, 0), BuildingBlock: AJUNOK_clean_linker_0, # of connection points: 2
#     Edge 35, Type (0, 0), BuildingBlock: AJUNOK_clean_linker_0, # of connection points: 2
#     Edge 36, Type (0, 0), BuildingBlock: AJUNOK_clean_linker_0, # of connection points: 2
#     Edge 37, Type (0, 0), BuildingBlock: AJUNOK_clean_linker_0, # of connection points: 2
#     Edge 38, Type (0, 0), BuildingBlock: AJUNOK_clean_linker_0, # of connection points: 2
#     Edge 39, Type (0, 0), BuildingBlock: AJUNOK_clean_linker_0, # of connection points: 2
#     Edge 40, Type (0, 0), BuildingBlock: AJUNOK_clean_linker_0, # of connection points: 2
#     Edge 41, Type (0, 0), BuildingBlock: AJUNOK_clean_linker_0, # of connection points: 2
#     Edge 42, Type (0, 0), BuildingBlock: AJUNOK_clean_linker_0, # of connection points: 2
#     Edge 43, Type (0, 0), BuildingBlock: AJUNOK_clean_linker_0, # of connection points: 2
#     Edge 44, Type (0, 0), BuildingBlock: AJUNOK_clean_linker_0, # of connection points: 2
#     Edge 45, Type (0, 0), BuildingBlock: AJUNOK_clean_linker_0, # of connection points: 2
#     Edge 46, Type (0, 0), BuildingBlock: AJUNOK_clean_linker_0, # of connection points: 2
#     Edge 47, Type (0, 0), BuildingBlock: AJUNOK_clean_linker_0, # of connection points: 2
# Relax obj value: 0.168
# Max RMSD: 0.198
# Mean RMSD: 0.198
data_MOF--net-uob--node1-CEKHIL_clean_sbu_0--edge1-AJUNOK_clean_linker_0
_symmetry_space_group_name_H-M    P1
_symmetry_Int_Tables_number       1
_symmetry_cell_setting            triclinic
loop_
_symmetry_equiv_pos_as_xyz
'x, y, z'
_cell_length_a     39.032145
_cell_length_b     39.140018
_cell_length_c     19.419427
_cell_angle_alpha  90.016611
_cell_angle_beta   89.964238
_cell_angle_gamma 90.009408
loop_
_atom_site_label
_atom_site_type_symbol
_atom_site_fract_x
_atom_site_fract_y
_atom_site_fract_z
_atom_type_partial_charge
Co0 Co 0.14921 0.07492 0.27147 0.0
O1 O 0.19668 0.08857 0.27716 0.0
O2 O 0.17748 0.03871 0.31253 0.0
C3 C 0.13719 0.09435 0.1643 0.0
O4 O 0.10112 0.05287 0.27303 0.0
Co5 Co 0.09539 0.13334 0.26482 0.0
O6 O 0.06236 0.09492 0.25734 0.0
C7 C 0.13596 0.12358 0.38809 0.0
C8 C 0.20301 0.06018 0.30919 0.0
C9 C 0.06982 0.06345 0.26547 0.0
O10 O 0.14242 0.09349 0.36595 0.0
O11 O 0.12002 0.14576 0.35196 0.0
O12 O 0.15265 0.06508 0.17238 0.0
O13 O 0.13424 0.1122 0.2197 0.0
Co14 Co 0.95782 0.64614 0.52773 0.0
O15 O 0.94187 0.69253 0.53905 0.0
O16 O 0.99337 0.67507 0.56933 0.0
C17 C 0.93705 0.63624 0.42063 0.0
O18 O 0.9823 0.59927 0.52374 0.0
Co19 Co 0.90223 0.58944 0.51704 0.0
O20 O 0.9422 0.5587 0.50595 0.0
C21 C 0.90998 0.62904 0.6422 0.0
C22 C 0.97057 0.69944 0.56966 0.0
C23 C 0.97339 0.56769 0.51373 0.0
O24 O 0.94035 0.63627 0.62196 0.0
O25 O 0.8885 0.6133 0.60405 0.0
O26 O 0.966 0.65246 0.42841 0.0
O27 O 0.92048 0.63082 0.47681 0.0
Co28 Co 0.37482 0.45727 0.7696 0.0
O29 O 0.32769 0.44321 0.78039 0.0
O30 O 0.34804 0.492 0.81935 0.0
C31 C 0.38235 0.44118 0.65914 0.0
O32 O 0.42316 0.47909 0.76751 0.0
Co33 Co 0.42826 0.39878 0.74357 0.0
O34 O 0.46114 0.43748 0.74111 0.0
C35 C 0.39305 0.40443 0.87506 0.0
C36 C 0.32246 0.47057 0.81654 0.0
C37 C 0.45416 0.46852 0.7555 0.0
O38 O 0.38502 0.43515 0.85929 0.0
O39 O 0.40734 0.38377 0.8329 0.0
O40 O 0.36761 0.47034 0.67262 0.0
O41 O 0.38762 0.42194 0.71158 0.0
Co42 Co 0.57015 0.8796 0.0293 0.0
O43 O 0.58581 0.83303 0.03866 0.0
O44 O 0.53467 0.85066 0.07108 0.0
C45 C 0.58987 0.89051 0.92201 0.0
O46 O 0.54613 0.92662 0.02726 0.0
Co47 Co 0.62628 0.93569 0.02042 0.0
O48 O 0.58661 0.9672 0.01272 0.0
C49 C 0.61849 0.89518 0.14403 0.0
C50 C 0.55729 0.82613 0.07005 0.0
C51 C 0.55534 0.95825 0.01929 0.0
O52 O 0.58807 0.88858 0.12345 0.0
O53 O 0.64016 0.91106 0.10651 0.0
O54 O 0.56107 0.8741 0.93033 0.0
O55 O 0.60721 0.8952 0.9776 0.0
Co56 Co 0.14811 0.45534 0.03991 0.0
O57 O 0.19497 0.44012 0.02996 0.0
O58 O 0.17673 0.49065 -0.00346 0.0
C59 C 0.13855 0.43612 0.14778 0.0
O60 O 0.10081 0.47899 0.04237 0.0
Co61 Co 0.09178 0.39896 0.05459 0.0
O62 O 0.06052 0.43884 0.06247 0.0
C63 C 0.1304 0.40654 0.92692 0.0
C64 C 0.20168 0.46849 -0.00184 0.0
C65 C 0.06923 0.4699 0.0527 0.0
O66 O 0.13843 0.43666 0.94677 0.0
O67 O 0.11423 0.38541 0.96534 0.0
O68 O 0.1545 0.46502 0.13846 0.0
O69 O 0.13306 0.41864 0.09283 0.0
Co70 Co 0.57039 0.6505 0.28846 0.0
O71 O 0.5855 0.69732 0.27998 0.0
O72 O 0.53559 0.67885 0.24278 0.0
C73 C 0.58783 0.64118 0.39737 0.0
O74 O 0.54696 0.60311 0.28902 0.0
Co75 Co 0.62676 0.5944 0.30796 0.0
O76 O 0.58676 0.56318 0.31401 0.0
C77 C 0.62091 0.63156 0.1784 0.0
C78 C 0.55757 0.70391 0.2464 0.0
C79 C 0.55587 0.5717 0.30098 0.0
O80 O 0.5909 0.64102 0.19684 0.0
O81 O 0.64128 0.61506 0.21785 0.0
O82 O 0.55884 0.65676 0.38618 0.0
O83 O 0.60632 0.63578 0.34368 0.0
Co84 Co 0.37758 0.07119 0.53086 0.0
O85 O 0.33061 0.08597 0.52192 0.0
O86 O 0.34915 0.03556 0.48794 0.0
C87 C 0.38792 0.09081 0.63867 0.0
O88 O 0.42544 0.04834 0.53222 0.0
Co89 Co 0.43216 0.1289 0.54162 0.0
O90 O 0.46455 0.09007 0.54893 0.0
C91 C 0.39223 0.12039 0.41729 0.0
C92 C 0.3242 0.05775 0.48939 0.0
C93 C 0.45681 0.05869 0.54037 0.0
O94 O 0.38622 0.08981 0.43713 0.0
O95 O 0.40728 0.14227 0.45557 0.0
O96 O 0.37232 0.06164 0.62998 0.0
O97 O 0.3922 0.10821 0.5832 0.0
Co98 Co 0.95705 0.87457 0.78945 0.0
O99 O 0.94281 0.82742 0.78208 0.0
O100 O 0.99184 0.84684 0.74217 0.0
C101 C 0.94062 0.88395 0.89927 0.0
O102 O 0.97958 0.92247 0.78848 0.0
Co103 Co 0.89918 0.92911 0.81143 0.0
O104 O 0.93854 0.96121 0.81379 0.0
C105 C 0.90494 0.89268 0.68116 0.0
C106 C 0.97043 0.82135 0.74699 0.0
C107 C 0.96953 0.95363 0.7994 0.0
O108 O 0.93517 0.88339 0.69869 0.0
O109 O 0.88456 0.90874 0.72134 0.0
O110 O 0.9698 0.86891 0.8869 0.0
O111 O 0.92149 0.88863 0.84634 0.0
Co112 Co 0.64903 0.57878 0.77259 0.0
O113 O 0.69583 0.59384 0.78386 0.0
O114 O 0.67714 0.54324 0.81641 0.0
C115 C 0.63986 0.59833 0.66454 0.0
O116 O 0.60141 0.55553 0.7691 0.0
Co117 Co 0.59333 0.6354 0.75711 0.0
O118 O 0.56187 0.596 0.74599 0.0
C119 C 0.62968 0.62691 0.88648 0.0
C120 C 0.70205 0.56548 0.81601 0.0
C121 C 0.57006 0.5649 0.75685 0.0
O122 O 0.639 0.5973 0.86575 0.0
O123 O 0.61418 0.64827 0.84772 0.0
O124 O 0.65548 0.56922 0.67383 0.0
O125 O 0.63476 0.61568 0.71978 0.0
Co126 Co 0.44445 0.15072 0.01905 0.0
O127 O 0.43035 0.19784 0.02454 0.0
O128 O 0.47845 0.17866 0.0687 0.0
C129 C 0.4301 0.14081 0.9083 0.0
O130 O 0.46646 0.10264 0.02181 0.0
Co131 Co 0.38631 0.09684 -0.00523 0.0
O132 O 0.42572 0.06484 0.99035 0.0
C133 C 0.39139 0.13179 0.12656 0.0
C134 C 0.45702 0.20405 0.06223 0.0
C135 C 0.45651 0.07179 0.00732 0.0
O136 O 0.42116 0.14231 0.10866 0.0
O137 O 0.37142 0.11523 0.08643 0.0
O138 O 0.45904 0.15588 0.92261 0.0
O139 O 0.40984 0.13669 0.95983 0.0
Co140 Co 0.87844 0.94731 0.27435 0.0
O141 O 0.83198 0.93101 0.28386 0.0
O142 O 0.84901 0.98203 0.31738 0.0
C143 C 0.88927 0.92792 0.16665 0.0
O144 O 0.92525 0.97201 0.27252 0.0
Co145 Co 0.93597 0.89247 0.26149 0.0
O146 O 0.96625 0.93281 0.25092 0.0
C147 C 0.89808 0.89986 0.38936 0.0
C148 C 0.82481 0.95905 0.31644 0.0
C149 C 0.95695 0.96365 0.26127 0.0
O150 O 0.88811 0.92915 0.36805 0.0
O151 O 0.91465 0.87896 0.35129 0.0
O152 O 0.87268 0.95656 0.1753 0.0
O153 O 0.89436 0.91079 0.22213 0.0
Co154 Co 0.07922 0.37358 0.52444 0.0
O155 O 0.08821 0.32489 0.53345 0.0
O156 O 0.04161 0.35042 0.5718 0.0
C157 C 0.09729 0.38121 0.41438 0.0
O158 O 0.06056 0.42299 0.52348 0.0
Co159 Co 0.13948 0.42456 0.50237 0.0
O160 O 0.10276 0.45935 0.49378 0.0
C161 C 0.13097 0.39134 0.63526 0.0
C162 C 0.05975 0.32257 0.56785 0.0
C163 C 0.07157 0.45343 0.50912 0.0
O164 O 0.10122 0.38122 0.61601 0.0
O165 O 0.15213 0.4062 0.59498 0.0
O166 O 0.06679 0.36887 0.42639 0.0
O167 O 0.11636 0.38423 0.46798 0.0
Co168 Co 0.65005 0.94613 0.54105 0.0
O169 O 0.6971 0.93127 0.53522 0.0
O170 O 0.67848 0.97961 0.49155 0.0
C171 C 0.63995 0.93194 0.65184 0.0
O172 O 0.60244 0.96921 0.53821 0.0
Co173 Co 0.59402 0.89033 0.56578 0.0
O174 O 0.56276 0.93034 0.56987 0.0
C175 C 0.62986 0.8936 0.43436 0.0
C176 C 0.7037 0.95796 0.49795 0.0
C177 C 0.57109 0.96068 0.55256 0.0
O178 O 0.64116 0.92308 0.45164 0.0
O179 O 0.61246 0.87446 0.47472 0.0
O180 O 0.65553 0.96054 0.63738 0.0
O181 O 0.63524 0.91186 0.60028 0.0
Co182 Co 0.07587 0.14894 0.78357 0.0
O183 O 0.08575 0.19755 0.77491 0.0
O184 O 0.03981 0.17246 0.7324 0.0
C185 C 0.09081 0.14141 0.89499 0.0
O186 O 0.05631 0.09992 0.78316 0.0
Co187 Co 0.1344 0.09656 0.81222 0.0
O188 O 0.09667 0.0625 0.81713 0.0
C189 C 0.1306 0.13071 0.67924 0.0
C190 C 0.05802 0.20016 0.73829 0.0
C191 C 0.06599 0.06925 0.79909 0.0
O192 O 0.1003 0.14083 0.6948 0.0
O193 O 0.15023 0.11512 0.72148 0.0
O194 O 0.06094 0.15437 0.87989 0.0
O195 O 0.1113 0.13759 0.84367 0.0
Co196 Co 0.87588 0.58006 0.04119 0.0
O197 O 0.82845 0.59368 0.03294 0.0
O198 O 0.84886 0.54533 -0.00779 0.0
C199 C 0.88484 0.59537 0.15171 0.0
O200 O 0.92413 0.5582 0.04095 0.0
Co201 Co 0.92981 0.6381 0.06548 0.0
O202 O 0.96227 0.59912 0.07008 0.0
C203 C 0.89587 0.63195 0.93277 0.0
C204 C 0.82299 0.56631 -0.00313 0.0
C205 C 0.95512 0.56828 0.0543 0.0
O206 O 0.88511 0.60243 0.95116 0.0
O207 O 0.9121 0.65219 0.97286 0.0
O208 O 0.86989 0.56637 0.13783 0.0
O209 O 0.88931 0.61522 0.09971 0.0
Co210 Co 0.44492 0.3787 0.28412 0.0
O211 O 0.42977 0.33194 0.27773 0.0
O212 O 0.48019 0.34947 0.24152 0.0
C213 C 0.4258 0.39028 0.39153 0.0
O214 O 0.46796 0.42637 0.2836 0.0
Co215 Co 0.38689 0.43327 0.29365 0.0
O216 O 0.42614 0.46513 0.3029 0.0
C217 C 0.39699 0.39543 0.16699 0.0
C218 C 0.45763 0.32486 0.24439 0.0
C219 C 0.45756 0.45757 0.29301 0.0
O220 O 0.42638 0.3867 0.1901 0.0
O221 O 0.37496 0.41154 0.20334 0.0
O222 O 0.45489 0.3744 0.38301 0.0
O223 O 0.40805 0.39395 0.33629 0.0
C224 C 0.2825 0.08594 0.41051 0.0
C225 C 0.29351 0.05576 0.44312 0.0
C226 C 0.25448 0.08631 0.36529 0.0
C227 C 0.23523 0.05664 0.35112 0.0
H228 H 0.29595 0.10976 0.41938 0.0
H229 H 0.2473 0.1106 0.34282 0.0
S230 S 0.25332 0.9705 0.42262 0.0
N231 N 0.28355 0.99489 0.45642 0.0
N232 N 0.22966 0.99577 0.37372 0.0
C233 C 0.24596 0.02605 0.38309 0.0
C234 C 0.27535 0.02554 0.42823 0.0
C235 C 0.94384 0.76888 0.69585 0.0
C236 C 0.97341 0.78905 0.7054 0.0
C237 C 0.94358 0.74059 0.65141 0.0
C238 C 0.97306 0.73024 0.61521 0.0
H239 H 0.92007 0.77554 0.72131 0.0
H240 H 0.91987 0.72645 0.64588 0.0
S241 S 0.05793 0.77262 0.62383 0.0
N242 N 0.03349 0.79595 0.67513 0.0
N243 N 0.03328 0.74162 0.59398 0.0
C244 C 1.00326 0.74924 0.62574 0.0
C245 C 1.00334 0.77887 0.67 0.0
C246 C 0.27898 0.44187 0.89095 0.0
C247 C 0.29187 0.47251 0.86316 0.0
C248 C 0.25105 0.44146 0.93648 0.0
C249 C 0.23367 0.4716 0.95545 0.0
H250 H 0.2909 0.41769 0.8781 0.0
H251 H 0.24239 0.41687 0.95527 0.0
S252 S 0.25695 0.55899 0.89751 0.0
N253 N 0.28561 0.53421 0.85956 0.0
N254 N 0.23178 0.53336 0.94251 0.0
C255 C 0.24617 0.50261 0.92809 0.0
C256 C 0.27554 0.5031 0.88286 0.0
C257 C 0.58489 0.78361 0.14795 0.0
C258 C 0.55492 0.79509 0.11497 0.0
C259 C 0.58472 0.7553 0.19227 0.0
C260 C 0.55472 0.73622 0.2049 0.0
H261 H 0.60893 0.79691 0.14012 0.0
H262 H 0.60885 0.74775 0.2152 0.0
S263 S 0.46889 0.75578 0.13247 0.0
N264 N 0.49385 0.78591 0.10012 0.0
N265 N 0.49375 0.73149 0.18098 0.0
C266 C 0.52433 0.74747 0.17264 0.0
C267 C 0.52436 0.77714 0.12854 0.0
C268 C 0.74263 0.59262 0.89875 0.0
C269 C 0.73257 0.56311 0.86257 0.0
C270 C 0.7707 0.59255 0.94389 0.0
C271 C 0.79096 0.56317 0.95421 0.0
H272 H 0.72841 0.6162 0.89263 0.0
H273 H 0.77714 0.61633 0.96933 0.0
S274 S 0.77538 0.4787 0.87275 0.0
N275 N 0.74438 0.50309 0.84199 0.0
N276 N 0.79834 0.50324 0.92446 0.0
C277 C 0.78112 0.53323 0.91873 0.0
C278 C 0.75168 0.5331 0.87375 0.0
C279 C 0.48918 0.27627 0.18218 0.0
C280 C 0.45869 0.29392 0.19847 0.0
C281 C 0.48899 0.24738 0.13774 0.0
C282 C 0.45859 0.23604 0.10538 0.0
H283 H 0.51316 0.28435 0.20496 0.0
H284 H 0.5128 0.23393 0.12855 0.0
S285 S 0.37229 0.27505 0.12734 0.0
N286 N 0.39746 0.29801 0.17727 0.0
N287 N 0.39744 0.2462 0.09176 0.0
C288 C 0.42831 0.25444 0.11969 0.0
C289 C 0.42826 0.28258 0.16673 0.0
C290 C 0.77379 0.98941 0.37236 0.0
C291 C 0.79451 0.96019 0.36392 0.0
C292 C 0.74485 0.9891 0.41673 0.0
C293 C 0.73622 0.95995 0.4562 0.0
H294 H 0.7794 1.01231 0.34315 0.0
H295 H 0.72895 1.01172 0.41958 0.0
S296 S 0.78452 0.87792 0.45709 0.0
N297 N 0.80521 0.90199 0.40121 0.0
N298 N 0.75267 0.90172 0.48561 0.0
C299 C 0.75784 0.93118 0.44994 0.0
C300 C 0.7864 0.93122 0.40368 0.0
C301 C 0.0559 0.25857 0.58141 0.0
C302 C 0.05207 0.29144 0.6099 0.0
C303 C 0.05454 0.22899 0.62293 0.0
C304 C 0.05156 0.23112 0.69513 0.0
H305 H 0.06064 0.25572 0.52674 0.0
H306 H 0.05753 0.20432 0.59858 0.0
S307 S 0.03771 0.31062 0.79492 0.0
N308 N 0.04093 0.32383 0.71433 0.0
N309 N 0.04237 0.26867 0.79269 0.0
C310 C 0.04662 0.26366 0.72401 0.0
C311 C 0.04593 0.29365 0.68134 0.0
C312 C 0.04655 1.00353 0.25479 0.0
C313 C 0.04066 0.0385 0.26586 0.0
C314 C 0.01938 0.97997 0.25278 0.0
C315 C 0.98485 0.99007 0.26224 0.0
H316 H 0.07237 0.99421 0.24674 0.0
H317 H 0.02576 0.95341 0.24378 0.0
S318 S 0.95539 0.07867 0.29599 0.0
N319 N 0.99737 0.08207 0.28845 0.0
N320 N 0.94667 0.0378 0.28473 0.0
C321 C 0.97859 0.02497 0.27406 0.0
C322 C 1.00629 0.04907 0.27587 0.0
C323 C 0.98851 0.50509 0.51219 0.0
C324 C 0.99954 0.53954 0.51275 0.0
C325 C 1.01175 0.47768 0.51154 0.0
C326 C 0.04733 0.48318 0.51086 0.0
H327 H 0.96146 0.49893 0.51254 0.0
H328 H 1.0016 0.45192 0.51094 0.0
S329 S 0.09015 0.56826 0.51342 0.0
N330 N 0.04887 0.57737 0.51364 0.0
N331 N 0.0926 0.52616 0.51217 0.0
C332 C 0.05888 0.5175 0.51169 0.0
C333 C 0.03507 0.54549 0.51276 0.0
C334 C 0.47915 0.52793 0.74706 0.0
C335 C 0.48384 0.49281 0.75835 0.0
C336 C 0.50713 0.55062 0.74613 0.0
C337 C 0.54124 0.53942 0.75708 0.0
H338 H 0.45373 0.53797 0.73762 0.0
H339 H 0.50173 0.57734 0.73663 0.0
S340 S 0.5673 0.45006 0.79351 0.0
N341 N 0.52535 0.448 0.78379 0.0
N342 N 0.57751 0.49058 0.78214 0.0
C343 C 0.54619 0.5044 0.76964 0.0
C344 C 0.5177 0.48121 0.77027 0.0
C345 C 0.53956 0.02062 0.02749 0.0
C346 C 0.52922 0.9863 0.01784 0.0
C347 C 0.51615 0.04791 0.02443 0.0
C348 C 0.48118 0.04234 0.01109 0.0
H349 H 0.56616 0.02664 0.03772 0.0
H350 H 0.52569 0.07361 0.03223 0.0
S351 S 0.4406 0.95722 0.98183 0.0
N352 N 0.48143 0.94841 -0.00549 0.0
N353 N 0.43738 0.99912 0.98846 0.0
C354 C 0.47042 1.008 0.0016 0.0
C355 C 0.49434 0.98023 0.00514 0.0
C356 C 1.00638 0.48506 0.05895 0.0
C357 C 0.04087 0.49585 0.05209 0.0
C358 C 0.9789 0.50831 0.05835 0.0
C359 C 0.98445 0.5436 0.05145 0.0
H360 H 1.00031 0.45823 0.06497 0.0
H361 H 0.95312 0.49852 0.06452 0.0
S362 S 0.06937 0.58555 0.0282 0.0
N363 N 0.07856 0.54458 0.03568 0.0
N364 N 0.0273 0.5882 0.03461 0.0
C365 C 0.01874 0.55482 0.04357 0.0
C366 C 0.04674 0.53107 0.04388 0.0
C367 C 0.51739 0.48151 0.30573 0.0
C368 C 0.48243 0.48679 0.29246 0.0
C369 C 0.54056 0.50904 0.30875 0.0
C370 C 0.53001 0.54329 0.29812 0.0
H371 H 0.52694 0.45594 0.31506 0.0
H372 H 0.56711 0.5032 0.31969 0.0
S373 S 0.44137 0.57097 0.25729 0.0
N374 N 0.43854 0.52911 0.26557 0.0
N375 N 0.48197 0.5804 0.27132 0.0
C376 C 0.49517 0.54886 0.28363 0.0
C377 C 0.47151 0.52084 0.28076 0.0
C378 C 0.48075 0.99927 0.55717 0.0
C379 C 0.48597 0.03375 0.54017 0.0
C380 C 0.50835 0.9762 0.56116 0.0
C381 C 0.54256 0.98636 0.54781 0.0
H382 H 0.45522 0.99009 0.56887 0.0
H383 H 0.50259 0.95004 0.57519 0.0
S384 S 0.56992 0.07351 0.4962 0.0
N385 N 0.52807 0.07666 0.50642 0.0
N386 N 0.5795 0.03341 0.51396 0.0
C387 C 0.54802 0.02066 0.5293 0.0
C388 C 0.51994 0.04423 0.52547 0.0
C389 C 0.05202 1.00631 0.81056 0.0
C390 C 0.041 0.04005 0.79622 0.0
C391 C 0.02924 0.97836 0.80963 0.0
C392 C 0.99427 0.98282 0.79498 0.0
H393 H 0.07856 1.00128 0.82321 0.0
H394 H 0.03898 0.95321 0.82219 0.0
S395 S 0.95234 0.06512 0.74872 0.0
N396 N 0.99264 0.07557 0.76326 0.0
N397 N 0.95007 0.02351 0.76156 0.0
C398 C 0.98302 0.01624 0.77889 0.0
C399 C 1.00623 0.04464 0.7795 0.0
C400 C 0.12484 0.15922 0.56621 0.0
C401 C 0.14098 0.13426 0.60683 0.0
C402 C 0.12559 0.15741 0.49454 0.0
C403 C 0.1429 0.13066 0.46129 0.0
H404 H 0.10977 0.17909 0.59008 0.0
H405 H 0.11051 0.17565 0.46557 0.0
S406 S 0.19831 0.06537 0.54441 0.0
N407 N 0.18094 0.08656 0.60912 0.0
N408 N 0.18337 0.08356 0.47391 0.0
C409 C 0.16326 0.10847 0.50128 0.0
C410 C 0.16218 0.11021 0.57441 0.0
C411 C 0.92478 0.6548 0.75542 0.0
C412 C 0.90126 0.63645 0.71451 0.0
C413 C 0.92101 0.65648 0.82676 0.0
C414 C 0.8936 0.6399 0.85923 0.0
H415 H 0.94744 0.66625 0.73291 0.0
H416 H 0.94117 0.66833 0.85676 0.0
S417 S 0.82018 0.59679 0.77471 0.0
N418 N 0.84603 0.60737 0.71087 0.0
N419 N 0.83898 0.61081 0.84537 0.0
C420 C 0.86773 0.62524 0.81853 0.0
C421 C 0.87153 0.62344 0.74588 0.0
C422 C 0.36576 0.41042 0.05968 0.0
C423 C 0.39076 0.39062 0.09286 0.0
C424 C 0.3649 0.41251 0.98807 0.0
C425 C 0.38874 0.3946 0.94739 0.0
H426 H 0.34834 0.42637 0.08892 0.0
H427 H 0.34674 0.42992 0.96464 0.0
S428 S 0.45418 0.33321 0.00878 0.0
N429 N 0.43632 0.34847 0.07937 0.0
N430 N 0.4341 0.35206 0.94445 0.0
C431 C 0.41118 0.37166 0.97944 0.0
C432 C 0.41238 0.36981 0.05243 0.0
C433 C 0.60539 0.86848 0.32835 0.0
C434 C 0.63289 0.88457 0.36141 0.0
C435 C 0.60239 0.86979 0.25685 0.0
C436 C 0.62673 0.88733 0.21639 0.0
H437 H 0.58457 0.85748 0.35788 0.0
H438 H 0.57959 0.85888 0.23384 0.0
S439 S 0.7086 0.92445 0.27849 0.0
N440 N 0.68867 0.91157 0.34883 0.0
N441 N 0.68298 0.91441 0.21396 0.0
C442 C 0.65662 0.89947 0.24846 0.0
C443 C 0.65968 0.898 0.32129 0.0
C444 C 0.11941 0.36739 0.7512 0.0
C445 C 0.13859 0.38963 0.70937 0.0
C446 C 0.11858 0.3714 0.82259 0.0
C447 C 0.13717 0.39772 0.8544 0.0
H448 H 0.10344 0.34793 0.72823 0.0
H449 H 0.10166 0.35514 0.85227 0.0
S450 S 0.1988 0.45666 0.76943 0.0
N451 N 0.18175 0.43451 0.70577 0.0
N452 N 0.18081 0.44177 0.84021 0.0
C453 C 0.15977 0.41737 0.81388 0.0
C454 C 0.16048 0.41331 0.74116 0.0
C455 C 0.65146 0.6129 0.07283 0.0
C456 C 0.63001 0.63651 0.10577 0.0
C457 C 0.65335 0.61184 0.00117 0.0
C458 C 0.63379 0.63433 0.96031 0.0
H459 H 0.66487 0.59349 0.10207 0.0
H460 H 0.66864 0.59184 0.97783 0.0
S461 S 0.58101 0.70675 0.02329 0.0
N462 N 0.59444 0.68725 0.09359 0.0
N463 N 0.59768 0.6851 0.95849 0.0
C464 C 0.61557 0.66069 -0.00704 0.0
C465 C 0.6137 0.66176 0.06596 0.0
C466 C 0.36651 0.10505 0.30431 0.0
C467 C 0.38478 0.12875 0.34489 0.0
C468 C 0.36551 0.10807 0.23276 0.0
C469 C 0.38276 0.13487 0.19978 0.0
H470 H 0.3547 0.08276 0.32736 0.0
H471 H 0.35373 0.08775 0.20317 0.0
S472 S 0.42588 0.20853 0.28308 0.0
N473 N 0.41434 0.18357 0.3475 0.0
N474 N 0.41234 0.18917 0.21268 0.0
C475 C 0.39727 0.16097 0.24004 0.0
C476 C 0.39829 0.15796 0.31288 0.0
C477 C 0.87599 0.91365 0.57593 0.0
C478 C 0.89573 0.88853 0.60851 0.0
C479 C 0.87484 0.91552 0.5043 0.0
C480 C 0.89333 0.89226 0.46306 0.0
H481 H 0.86359 0.9336 0.60556 0.0
H482 H 0.86101 0.93667 0.48147 0.0
S483 S 0.94105 0.81622 0.52499 0.0
N484 N 0.92832 0.83595 0.59563 0.0
N485 N 0.92624 0.83934 0.46047 0.0
C486 C 0.90966 0.86456 0.49528 0.0
C487 C 0.91087 0.86275 0.5683 0.0
C488 C 0.12476 0.10259 0.9711 0.0
C489 C 0.10044 0.12901 0.96452 0.0
C490 C 0.1358 0.09113 0.03577 0.0
C491 C 0.12367 0.10618 0.09674 0.0
H492 H 0.13551 0.0905 0.92596 0.0
H493 H 0.1546 0.0708 0.03783 0.0
S494 S 0.05957 0.17632 0.10779 0.0
N495 N 0.06398 0.16943 0.02439 0.0
N496 N 0.08553 0.14899 0.14607 0.0
C497 C 0.0992 0.13262 0.09093 0.0
C498 C 0.08736 0.14371 0.02486 0.0
C499 C 0.93829 0.63742 0.29169 0.0
C500 C 0.92392 0.62453 0.35272 0.0
C501 C 0.92544 0.62784 0.22703 0.0
C502 C 0.89824 0.60436 0.2207 0.0
H503 H 0.95923 0.65555 0.29376 0.0
H504 H 0.93711 0.63891 0.18171 0.0
S505 S 0.85168 0.56265 0.36401 0.0
N506 N 0.88048 0.58704 0.40213 0.0
N507 N 0.85751 0.56826 0.28062 0.0
C508 C 0.88402 0.59078 0.281 0.0
C509 C 0.89654 0.60108 0.34696 0.0
C510 C 0.42276 0.40942 0.58302 0.0
C511 C 0.39384 0.43066 0.58984 0.0
C512 C 0.43316 0.39697 0.51867 0.0
C513 C 0.4146 0.40464 0.45869 0.0
H514 H 0.43759 0.40224 0.62774 0.0
H515 H 0.45561 0.38076 0.51622 0.0
S516 S 0.33622 0.45862 0.44952 0.0
N517 N 0.34686 0.45903 0.53176 0.0
N518 N 0.36527 0.43468 0.41093 0.0
C519 C 0.38549 0.42589 0.46496 0.0
C520 C 0.37543 0.43919 0.53047 0.0
C521 C 0.60177 0.89742 0.72846 0.0
C522 C 0.62674 0.92319 0.72122 0.0
C523 C 0.58943 0.88766 0.79339 0.0
C524 C 0.60209 0.90274 0.85386 0.0
H525 H 0.59158 0.88451 0.68366 0.0
H526 H 0.57038 0.86757 0.79618 0.0
S527 S 0.6671 0.97209 0.86299 0.0
N528 N 0.66291 0.96437 0.77988 0.0
N529 N 0.64063 0.94548 0.90193 0.0
C530 C 0.6269 0.92877 0.84729 0.0
C531 C 0.63896 0.93916 0.781 0.0
C532 C 0.08685 0.39231 0.2884 0.0
C533 C 0.10835 0.39496 0.3463 0.0
C534 C 0.09672 0.40583 0.22428 0.0
C535 C 0.12798 0.42336 0.21618 0.0
H536 H 0.0623 0.37955 0.29243 0.0
H537 H 0.07958 0.4028 0.18089 0.0
S538 S 0.19459 0.43577 0.34932 0.0
N539 N 0.16375 0.41468 0.38902 0.0
N540 N 0.18084 0.44167 0.26989 0.0
C541 C 0.14965 0.4263 0.27321 0.0
C542 C 0.14022 0.41166 0.33787 0.0
C543 C 0.63225 0.59015 0.53738 0.0
C544 C 0.62613 0.60967 0.59691 0.0
C545 C 0.61944 0.60038 0.4731 0.0
C546 C 0.59935 0.63005 0.46619 0.0
H547 H 0.6473 0.56694 0.54021 0.0
H548 H 0.62522 0.58479 0.42856 0.0
S549 S 0.57675 0.69097 0.6047 0.0
N550 N 0.59969 0.66125 0.64346 0.0
N551 N 0.57444 0.67919 0.52325 0.0
C552 C 0.59273 0.64964 0.52499 0.0
C553 C 0.60646 0.6398 0.59017 0.0
C554 C 0.38811 0.08796 0.76752 0.0
C555 C 0.40021 0.10322 0.70671 0.0
C556 C 0.39807 0.10021 0.83241 0.0
C557 C 0.42119 0.12766 0.83912 0.0
H558 H 0.37022 0.06683 0.76512 0.0
H559 H 0.38751 0.08795 0.8776 0.0
S560 S 0.46106 0.1763 0.6966 0.0
N561 N 0.43674 0.14762 0.65802 0.0
N562 N 0.45627 0.16948 0.77988 0.0
C563 C 0.43412 0.14267 0.77905 0.0
C564 C 0.4234 0.13077 0.7129 0.0
C565 C 0.89557 0.93486 0.03893 0.0
C566 C 0.9034 0.91662 0.09921 0.0
C567 C 0.90815 0.92433 0.97462 0.0
C568 C 0.92969 0.89564 0.96825 0.0
H569 H 0.87921 0.95719 0.04114 0.0
H570 H 0.90091 0.93889 0.92957 0.0
S571 S 0.95777 0.83859 0.10927 0.0
N572 N 0.93359 0.86756 0.14743 0.0
N573 N 0.95824 0.84906 0.02698 0.0
C574 C 0.93824 0.87749 0.02789 0.0
C575 C 0.9248 0.88762 0.09322 0.0
loop_
_geom_bond_atom_site_label_1
_geom_bond_atom_site_label_2
_geom_bond_distance
_geom_bond_site_symmetry_2
_ccdc_geom_bond_type
Co0 O1 2.216 . S
Co0 O2 2.091 . S
Co0 O4 2.004 . S
Co0 O10 2.021 . S
Co0 O12 2.137 . S
Co0 O13 2.244 . S
O1 Co0 2.216 . S
O1 C8 1.247 . S
O2 Co0 2.091 . S
O2 C8 1.261 . S
C3 O12 1.247 . S
C3 O13 1.272 . S
O4 Co0 2.004 . S
O4 C9 1.259 . S
Co5 O6 2.061 . S
Co5 O11 2.052 . S
Co5 O13 2.135 . S
O6 Co5 2.061 . S
O6 C9 1.235 . S
C7 O10 1.238 . S
C7 O11 1.241 . S
C8 O1 1.247 . S
C8 O2 1.261 . S
C9 O4 1.259 . S
C9 O6 1.235 . S
O10 Co0 2.021 . S
O10 C7 1.238 . S
O11 Co5 2.052 . S
O11 C7 1.241 . S
O12 Co0 2.137 . S
O12 C3 1.247 . S
O13 Co0 2.244 . S
O13 C3 1.272 . S
O13 Co5 2.135 . S
Co14 O15 2.216 . S
Co14 O16 2.091 . S
Co14 O18 2.004 . S
Co14 O24 2.021 . S
Co14 O26 2.137 . S
Co14 O27 2.244 . S
O15 Co14 2.216 . S
O15 C22 1.247 . S
O16 Co14 2.091 . S
O16 C22 1.261 . S
C17 O26 1.247 . S
C17 O27 1.272 . S
O18 Co14 2.004 . S
O18 C23 1.259 . S
Co19 O20 2.061 . S
Co19 O25 2.052 . S
Co19 O27 2.135 . S
O20 Co19 2.061 . S
O20 C23 1.235 . S
C21 O24 1.238 . S
C21 O25 1.241 . S
C22 O15 1.247 . S
C22 O16 1.261 . S
C23 O18 1.259 . S
C23 O20 1.235 . S
O24 Co14 2.021 . S
O24 C21 1.238 . S
O25 Co19 2.052 . S
O25 C21 1.241 . S
O26 Co14 2.137 . S
O26 C17 1.247 . S
O27 Co14 2.244 . S
O27 C17 1.272 . S
O27 Co19 2.135 . S
Co28 O29 2.216 . S
Co28 O30 2.091 . S
Co28 O32 2.004 . S
Co28 O38 2.021 . S
Co28 O40 2.137 . S
Co28 O41 2.244 . S
O29 Co28 2.216 . S
O29 C36 1.247 . S
O30 Co28 2.091 . S
O30 C36 1.261 . S
C31 O40 1.247 . S
C31 O41 1.272 . S
O32 Co28 2.004 . S
O32 C37 1.259 . S
Co33 O34 2.061 . S
Co33 O39 2.052 . S
Co33 O41 2.135 . S
O34 Co33 2.061 . S
O34 C37 1.235 . S
C35 O38 1.238 . S
C35 O39 1.241 . S
C36 O29 1.247 . S
C36 O30 1.261 . S
C37 O32 1.259 . S
C37 O34 1.235 . S
O38 Co28 2.021 . S
O38 C35 1.238 . S
O39 Co33 2.052 . S
O39 C35 1.241 . S
O40 Co28 2.137 . S
O40 C31 1.247 . S
O41 Co28 2.244 . S
O41 C31 1.272 . S
O41 Co33 2.135 . S
Co42 O43 2.216 . S
Co42 O44 2.091 . S
Co42 O46 2.004 . S
Co42 O52 2.021 . S
Co42 O54 2.137 1_554 S
Co42 O55 2.244 1_554 S
O43 Co42 2.216 . S
O43 C50 1.247 . S
O44 Co42 2.091 . S
O44 C50 1.261 . S
C45 O54 1.247 . S
C45 O55 1.272 . S
O46 Co42 2.004 . S
O46 C51 1.259 . S
Co47 O48 2.061 . S
Co47 O53 2.052 . S
Co47 O55 2.135 1_554 S
O48 Co47 2.061 . S
O48 C51 1.235 . S
C49 O52 1.238 . S
C49 O53 1.241 . S
C50 O43 1.247 . S
C50 O44 1.261 . S
C51 O46 1.259 . S
C51 O48 1.235 . S
O52 Co42 2.021 . S
O52 C49 1.238 . S
O53 Co47 2.052 . S
O53 C49 1.241 . S
O54 Co42 2.137 1_556 S
O54 C45 1.247 . S
O55 Co42 2.244 1_556 S
O55 C45 1.272 . S
O55 Co47 2.135 1_556 S
Co56 O57 2.216 . S
Co56 O58 2.091 1_554 S
Co56 O60 2.004 . S
Co56 O66 2.021 1_554 S
Co56 O68 2.137 . S
Co56 O69 2.244 . S
O57 Co56 2.216 . S
O57 C64 1.247 1_554 S
O58 Co56 2.091 1_556 S
O58 C64 1.261 . S
C59 O68 1.247 . S
C59 O69 1.272 . S
O60 Co56 2.004 . S
O60 C65 1.259 . S
Co61 O62 2.061 . S
Co61 O67 2.052 1_554 S
Co61 O69 2.135 . S
O62 Co61 2.061 . S
O62 C65 1.235 . S
C63 O66 1.238 . S
C63 O67 1.241 . S
C64 O57 1.247 1_556 S
C64 O58 1.261 . S
C65 O60 1.259 . S
C65 O62 1.235 . S
O66 Co56 2.021 1_556 S
O66 C63 1.238 . S
O67 Co61 2.052 1_556 S
O67 C63 1.241 . S
O68 Co56 2.137 . S
O68 C59 1.247 . S
O69 Co56 2.244 . S
O69 C59 1.272 . S
O69 Co61 2.135 . S
Co70 O71 2.216 . S
Co70 O72 2.091 . S
Co70 O74 2.004 . S
Co70 O80 2.021 . S
Co70 O82 2.137 . S
Co70 O83 2.244 . S
O71 Co70 2.216 . S
O71 C78 1.247 . S
O72 Co70 2.091 . S
O72 C78 1.261 . S
C73 O82 1.247 . S
C73 O83 1.272 . S
O74 Co70 2.004 . S
O74 C79 1.259 . S
Co75 O76 2.061 . S
Co75 O81 2.052 . S
Co75 O83 2.135 . S
O76 Co75 2.061 . S
O76 C79 1.235 . S
C77 O80 1.238 . S
C77 O81 1.241 . S
C78 O71 1.247 . S
C78 O72 1.261 . S
C79 O74 1.259 . S
C79 O76 1.235 . S
O80 Co70 2.021 . S
O80 C77 1.238 . S
O81 Co75 2.052 . S
O81 C77 1.241 . S
O82 Co70 2.137 . S
O82 C73 1.247 . S
O83 Co70 2.244 . S
O83 C73 1.272 . S
O83 Co75 2.135 . S
Co84 O85 2.216 . S
Co84 O86 2.091 . S
Co84 O88 2.004 . S
Co84 O94 2.021 . S
Co84 O96 2.137 . S
Co84 O97 2.244 . S
O85 Co84 2.216 . S
O85 C92 1.247 . S
O86 Co84 2.091 . S
O86 C92 1.261 . S
C87 O96 1.247 . S
C87 O97 1.272 . S
O88 Co84 2.004 . S
O88 C93 1.259 . S
Co89 O90 2.061 . S
Co89 O95 2.052 . S
Co89 O97 2.135 . S
O90 Co89 2.061 . S
O90 C93 1.235 . S
C91 O94 1.238 . S
C91 O95 1.241 . S
C92 O85 1.247 . S
C92 O86 1.261 . S
C93 O88 1.259 . S
C93 O90 1.235 . S
O94 Co84 2.021 . S
O94 C91 1.238 . S
O95 Co89 2.052 . S
O95 C91 1.241 . S
O96 Co84 2.137 . S
O96 C87 1.247 . S
O97 Co84 2.244 . S
O97 C87 1.272 . S
O97 Co89 2.135 . S
Co98 O99 2.216 . S
Co98 O100 2.091 . S
Co98 O102 2.004 . S
Co98 O108 2.021 . S
Co98 O110 2.137 . S
Co98 O111 2.244 . S
O99 Co98 2.216 . S
O99 C106 1.247 . S
O100 Co98 2.091 . S
O100 C106 1.261 . S
C101 O110 1.247 . S
C101 O111 1.272 . S
O102 Co98 2.004 . S
O102 C107 1.259 . S
Co103 O104 2.061 . S
Co103 O109 2.052 . S
Co103 O111 2.135 . S
O104 Co103 2.061 . S
O104 C107 1.235 . S
C105 O108 1.238 . S
C105 O109 1.241 . S
C106 O99 1.247 . S
C106 O100 1.261 . S
C107 O102 1.259 . S
C107 O104 1.235 . S
O108 Co98 2.021 . S
O108 C105 1.238 . S
O109 Co103 2.052 . S
O109 C105 1.241 . S
O110 Co98 2.137 . S
O110 C101 1.247 . S
O111 Co98 2.244 . S
O111 C101 1.272 . S
O111 Co103 2.135 . S
Co112 O113 2.216 . S
Co112 O114 2.091 . S
Co112 O116 2.004 . S
Co112 O122 2.021 . S
Co112 O124 2.137 . S
Co112 O125 2.244 . S
O113 Co112 2.216 . S
O113 C120 1.247 . S
O114 Co112 2.091 . S
O114 C120 1.261 . S
C115 O124 1.247 . S
C115 O125 1.272 . S
O116 Co112 2.004 . S
O116 C121 1.259 . S
Co117 O118 2.061 . S
Co117 O123 2.052 . S
Co117 O125 2.135 . S
O118 Co117 2.061 . S
O118 C121 1.235 . S
C119 O122 1.238 . S
C119 O123 1.241 . S
C120 O113 1.247 . S
C120 O114 1.261 . S
C121 O116 1.259 . S
C121 O118 1.235 . S
O122 Co112 2.021 . S
O122 C119 1.238 . S
O123 Co117 2.052 . S
O123 C119 1.241 . S
O124 Co112 2.137 . S
O124 C115 1.247 . S
O125 Co112 2.244 . S
O125 C115 1.272 . S
O125 Co117 2.135 . S
Co126 O127 2.216 . S
Co126 O128 2.091 . S
Co126 O130 2.004 . S
Co126 O136 2.021 . S
Co126 O138 2.137 1_554 S
Co126 O139 2.244 1_554 S
O127 Co126 2.216 . S
O127 C134 1.247 . S
O128 Co126 2.091 . S
O128 C134 1.261 . S
C129 O138 1.247 . S
C129 O139 1.272 . S
O130 Co126 2.004 . S
O130 C135 1.259 . S
Co131 O132 2.061 . S
Co131 O137 2.052 . S
Co131 O139 2.135 1_554 S
O132 Co131 2.061 . S
O132 C135 1.235 . S
C133 O136 1.238 . S
C133 O137 1.241 . S
C134 O127 1.247 . S
C134 O128 1.261 . S
C135 O130 1.259 . S
C135 O132 1.235 . S
O136 Co126 2.021 . S
O136 C133 1.238 . S
O137 Co131 2.052 . S
O137 C133 1.241 . S
O138 Co126 2.137 1_556 S
O138 C129 1.247 . S
O139 Co126 2.244 1_556 S
O139 C129 1.272 . S
O139 Co131 2.135 1_556 S
Co140 O141 2.216 . S
Co140 O142 2.091 . S
Co140 O144 2.004 . S
Co140 O150 2.021 . S
Co140 O152 2.137 . S
Co140 O153 2.244 . S
O141 Co140 2.216 . S
O141 C148 1.247 . S
O142 Co140 2.091 . S
O142 C148 1.261 . S
C143 O152 1.247 . S
C143 O153 1.272 . S
O144 Co140 2.004 . S
O144 C149 1.259 . S
Co145 O146 2.061 . S
Co145 O151 2.052 . S
Co145 O153 2.135 . S
O146 Co145 2.061 . S
O146 C149 1.235 . S
C147 O150 1.238 . S
C147 O151 1.241 . S
C148 O141 1.247 . S
C148 O142 1.261 . S
C149 O144 1.259 . S
C149 O146 1.235 . S
O150 Co140 2.021 . S
O150 C147 1.238 . S
O151 Co145 2.052 . S
O151 C147 1.241 . S
O152 Co140 2.137 . S
O152 C143 1.247 . S
O153 Co140 2.244 . S
O153 C143 1.272 . S
O153 Co145 2.135 . S
Co154 O155 2.216 . S
Co154 O156 2.091 . S
Co154 O158 2.004 . S
Co154 O164 2.021 . S
Co154 O166 2.137 . S
Co154 O167 2.244 . S
O155 Co154 2.216 . S
O155 C162 1.247 . S
O156 Co154 2.091 . S
O156 C162 1.261 . S
C157 O166 1.247 . S
C157 O167 1.272 . S
O158 Co154 2.004 . S
O158 C163 1.259 . S
Co159 O160 2.061 . S
Co159 O165 2.052 . S
Co159 O167 2.135 . S
O160 Co159 2.061 . S
O160 C163 1.235 . S
C161 O164 1.238 . S
C161 O165 1.241 . S
C162 O155 1.247 . S
C162 O156 1.261 . S
C163 O158 1.259 . S
C163 O160 1.235 . S
O164 Co154 2.021 . S
O164 C161 1.238 . S
O165 Co159 2.052 . S
O165 C161 1.241 . S
O166 Co154 2.137 . S
O166 C157 1.247 . S
O167 Co154 2.244 . S
O167 C157 1.272 . S
O167 Co159 2.135 . S
Co168 O169 2.216 . S
Co168 O170 2.091 . S
Co168 O172 2.004 . S
Co168 O178 2.021 . S
Co168 O180 2.137 . S
Co168 O181 2.244 . S
O169 Co168 2.216 . S
O169 C176 1.247 . S
O170 Co168 2.091 . S
O170 C176 1.261 . S
C171 O180 1.247 . S
C171 O181 1.272 . S
O172 Co168 2.004 . S
O172 C177 1.259 . S
Co173 O174 2.061 . S
Co173 O179 2.052 . S
Co173 O181 2.135 . S
O174 Co173 2.061 . S
O174 C177 1.235 . S
C175 O178 1.238 . S
C175 O179 1.241 . S
C176 O169 1.247 . S
C176 O170 1.261 . S
C177 O172 1.259 . S
C177 O174 1.235 . S
O178 Co168 2.021 . S
O178 C175 1.238 . S
O179 Co173 2.052 . S
O179 C175 1.241 . S
O180 Co168 2.137 . S
O180 C171 1.247 . S
O181 Co168 2.244 . S
O181 C171 1.272 . S
O181 Co173 2.135 . S
Co182 O183 2.216 . S
Co182 O184 2.091 . S
Co182 O186 2.004 . S
Co182 O192 2.021 . S
Co182 O194 2.137 . S
Co182 O195 2.244 . S
O183 Co182 2.216 . S
O183 C190 1.247 . S
O184 Co182 2.091 . S
O184 C190 1.261 . S
C185 O194 1.247 . S
C185 O195 1.272 . S
O186 Co182 2.004 . S
O186 C191 1.259 . S
Co187 O188 2.061 . S
Co187 O193 2.052 . S
Co187 O195 2.135 . S
O188 Co187 2.061 . S
O188 C191 1.235 . S
C189 O192 1.238 . S
C189 O193 1.241 . S
C190 O183 1.247 . S
C190 O184 1.261 . S
C191 O186 1.259 . S
C191 O188 1.235 . S
O192 Co182 2.021 . S
O192 C189 1.238 . S
O193 Co187 2.052 . S
O193 C189 1.241 . S
O194 Co182 2.137 . S
O194 C185 1.247 . S
O195 Co182 2.244 . S
O195 C185 1.272 . S
O195 Co187 2.135 . S
Co196 O197 2.216 . S
Co196 O198 2.091 1_554 S
Co196 O200 2.004 . S
Co196 O206 2.021 1_554 S
Co196 O208 2.137 . S
Co196 O209 2.244 . S
O197 Co196 2.216 . S
O197 C204 1.247 1_554 S
O198 Co196 2.091 1_556 S
O198 C204 1.261 . S
C199 O208 1.247 . S
C199 O209 1.272 . S
O200 Co196 2.004 . S
O200 C205 1.259 . S
Co201 O202 2.061 . S
Co201 O207 2.052 1_554 S
Co201 O209 2.135 . S
O202 Co201 2.061 . S
O202 C205 1.235 . S
C203 O206 1.238 . S
C203 O207 1.241 . S
C204 O197 1.247 1_556 S
C204 O198 1.261 . S
C205 O200 1.259 . S
C205 O202 1.235 . S
O206 Co196 2.021 1_556 S
O206 C203 1.238 . S
O207 Co201 2.052 1_556 S
O207 C203 1.241 . S
O208 Co196 2.137 . S
O208 C199 1.247 . S
O209 Co196 2.244 . S
O209 C199 1.272 . S
O209 Co201 2.135 . S
Co210 O211 2.216 . S
Co210 O212 2.091 . S
Co210 O214 2.004 . S
Co210 O220 2.021 . S
Co210 O222 2.137 . S
Co210 O223 2.244 . S
O211 Co210 2.216 . S
O211 C218 1.247 . S
O212 Co210 2.091 . S
O212 C218 1.261 . S
C213 O222 1.247 . S
C213 O223 1.272 . S
O214 Co210 2.004 . S
O214 C219 1.259 . S
Co215 O216 2.061 . S
Co215 O221 2.052 . S
Co215 O223 2.135 . S
O216 Co215 2.061 . S
O216 C219 1.235 . S
C217 O220 1.238 . S
C217 O221 1.241 . S
C218 O211 1.247 . S
C218 O212 1.261 . S
C219 O214 1.259 . S
C219 O216 1.235 . S
O220 Co210 2.021 . S
O220 C217 1.238 . S
O221 Co215 2.052 . S
O221 C217 1.241 . S
O222 Co210 2.137 . S
O222 C213 1.247 . S
O223 Co210 2.244 . S
O223 C213 1.272 . S
O223 Co215 2.135 . S
C224 C225 1.369 . S
C224 C226 1.419 . S
C224 H228 0.930 . S
C225 C224 1.369 . S
C225 C234 1.429 . S
C226 C224 1.419 . S
C226 C227 1.363 . S
C226 H229 0.929 . S
C227 C226 1.363 . S
C227 C233 1.428 . S
H228 C224 0.930 . S
H229 C226 0.929 . S
S230 N231 1.613 . S
S230 N232 1.610 . S
N231 S230 1.613 . S
N231 C234 1.350 . S
N232 S230 1.610 . S
N232 C233 1.351 . S
C233 C227 1.428 . S
C233 N232 1.351 . S
C233 C234 1.434 . S
C234 C225 1.429 . S
C234 N231 1.350 . S
C234 C233 1.434 . S
C235 C236 1.369 . S
C235 C237 1.419 . S
C235 H239 0.930 . S
C236 C235 1.369 . S
C236 C245 1.429 . S
C237 C235 1.419 . S
C237 C238 1.363 . S
C237 H240 0.929 . S
C238 C237 1.363 . S
C238 C244 1.428 . S
H239 C235 0.930 . S
H240 C237 0.929 . S
S241 N242 1.613 . S
S241 N243 1.610 . S
N242 S241 1.613 . S
N242 C245 1.350 . S
N243 S241 1.610 . S
N243 C244 1.351 . S
C244 C238 1.428 . S
C244 N243 1.351 . S
C244 C245 1.434 . S
C245 C236 1.429 . S
C245 N242 1.350 . S
C245 C244 1.434 . S
C246 C247 1.369 . S
C246 C248 1.419 . S
C246 H250 0.930 . S
C247 C246 1.369 . S
C247 C256 1.429 . S
C248 C246 1.419 . S
C248 C249 1.363 . S
C248 H251 0.929 . S
C249 C248 1.363 . S
C249 C255 1.428 . S
H250 C246 0.930 . S
H251 C248 0.929 . S
S252 N253 1.613 . S
S252 N254 1.610 . S
N253 S252 1.613 . S
N253 C256 1.350 . S
N254 S252 1.610 . S
N254 C255 1.351 . S
C255 C249 1.428 . S
C255 N254 1.351 . S
C255 C256 1.434 . S
C256 C247 1.429 . S
C256 N253 1.350 . S
C256 C255 1.434 . S
C257 C258 1.369 . S
C257 C259 1.419 . S
C257 H261 0.930 . S
C258 C257 1.369 . S
C258 C267 1.429 . S
C259 C257 1.419 . S
C259 C260 1.363 . S
C259 H262 0.929 . S
C260 C259 1.363 . S
C260 C266 1.428 . S
H261 C257 0.930 . S
H262 C259 0.929 . S
S263 N264 1.613 . S
S263 N265 1.610 . S
N264 S263 1.613 . S
N264 C267 1.350 . S
N265 S263 1.610 . S
N265 C266 1.351 . S
C266 C260 1.428 . S
C266 N265 1.351 . S
C266 C267 1.434 . S
C267 C258 1.429 . S
C267 N264 1.350 . S
C267 C266 1.434 . S
C268 C269 1.369 . S
C268 C270 1.419 . S
C268 H272 0.930 . S
C269 C268 1.369 . S
C269 C278 1.429 . S
C270 C268 1.419 . S
C270 C271 1.363 . S
C270 H273 0.929 . S
C271 C270 1.363 . S
C271 C277 1.428 . S
H272 C268 0.930 . S
H273 C270 0.929 . S
S274 N275 1.613 . S
S274 N276 1.610 . S
N275 S274 1.613 . S
N275 C278 1.350 . S
N276 S274 1.610 . S
N276 C277 1.351 . S
C277 C271 1.428 . S
C277 N276 1.351 . S
C277 C278 1.434 . S
C278 C269 1.429 . S
C278 N275 1.350 . S
C278 C277 1.434 . S
C279 C280 1.369 . S
C279 C281 1.419 . S
C279 H283 0.930 . S
C280 C279 1.369 . S
C280 C289 1.429 . S
C281 C279 1.419 . S
C281 C282 1.363 . S
C281 H284 0.929 . S
C282 C281 1.363 . S
C282 C288 1.428 . S
H283 C279 0.930 . S
H284 C281 0.929 . S
S285 N286 1.613 . S
S285 N287 1.610 . S
N286 S285 1.613 . S
N286 C289 1.350 . S
N287 S285 1.610 . S
N287 C288 1.351 . S
C288 C282 1.428 . S
C288 N287 1.351 . S
C288 C289 1.434 . S
C289 C280 1.429 . S
C289 N286 1.350 . S
C289 C288 1.434 . S
C290 C291 1.369 . S
C290 C292 1.419 . S
C290 H294 0.930 . S
C291 C290 1.369 . S
C291 C300 1.429 . S
C292 C290 1.419 . S
C292 C293 1.363 . S
C292 H295 0.929 . S
C293 C292 1.363 . S
C293 C299 1.428 . S
H294 C290 0.930 . S
H295 C292 0.929 . S
S296 N297 1.613 . S
S296 N298 1.610 . S
N297 S296 1.613 . S
N297 C300 1.350 . S
N298 S296 1.610 . S
N298 C299 1.351 . S
C299 C293 1.428 . S
C299 N298 1.351 . S
C299 C300 1.434 . S
C300 C291 1.429 . S
C300 N297 1.350 . S
C300 C299 1.434 . S
C301 C302 1.369 . S
C301 C303 1.419 . S
C301 H305 0.930 . S
C302 C301 1.369 . S
C302 C311 1.429 . S
C303 C301 1.419 . S
C303 C304 1.363 . S
C303 H306 0.929 . S
C304 C303 1.363 . S
C304 C310 1.428 . S
H305 C301 0.930 . S
H306 C303 0.929 . S
S307 N308 1.613 . S
S307 N309 1.610 . S
N308 S307 1.613 . S
N308 C311 1.350 . S
N309 S307 1.610 . S
N309 C310 1.351 . S
C310 C304 1.428 . S
C310 N309 1.351 . S
C310 C311 1.434 . S
C311 C302 1.429 . S
C311 N308 1.350 . S
C311 C310 1.434 . S
C312 C313 1.369 1_565 S
C312 C314 1.419 1_455 S
C312 H316 0.930 . S
C313 C312 1.369 1_545 S
C313 C322 1.429 . S
C314 C312 1.419 1_655 S
C314 C315 1.363 . S
C314 H317 0.929 . S
C315 C314 1.363 . S
C315 C321 1.428 1_565 S
H316 C312 0.930 . S
H317 C314 0.929 . S
S318 N319 1.613 1_655 S
S318 N320 1.610 . S
N319 S318 1.613 1_455 S
N319 C322 1.350 . S
N320 S318 1.610 . S
N320 C321 1.351 . S
C321 C315 1.428 1_545 S
C321 N320 1.351 . S
C321 C322 1.434 1_655 S
C322 C313 1.429 . S
C322 N319 1.350 . S
C322 C321 1.434 1_455 S
C323 C324 1.369 . S
C323 C325 1.419 . S
C323 H327 0.930 . S
C324 C323 1.369 . S
C324 C333 1.429 1_655 S
C325 C323 1.419 . S
C325 C326 1.363 1_655 S
C325 H328 0.929 . S
C326 C325 1.363 1_455 S
C326 C332 1.428 . S
H327 C323 0.930 . S
H328 C325 0.929 . S
S329 N330 1.613 . S
S329 N331 1.610 . S
N330 S329 1.613 . S
N330 C333 1.350 . S
N331 S329 1.610 . S
N331 C332 1.351 . S
C332 C326 1.428 . S
C332 N331 1.351 . S
C332 C333 1.434 . S
C333 C324 1.429 1_455 S
C333 N330 1.350 . S
C333 C332 1.434 . S
C334 C335 1.369 . S
C334 C336 1.419 . S
C334 H338 0.930 . S
C335 C334 1.369 . S
C335 C344 1.429 . S
C336 C334 1.419 . S
C336 C337 1.363 . S
C336 H339 0.929 . S
C337 C336 1.363 . S
C337 C343 1.428 . S
H338 C334 0.930 . S
H339 C336 0.929 . S
S340 N341 1.613 . S
S340 N342 1.610 . S
N341 S340 1.613 . S
N341 C344 1.350 . S
N342 S340 1.610 . S
N342 C343 1.351 . S
C343 C337 1.428 . S
C343 N342 1.351 . S
C343 C344 1.434 . S
C344 C335 1.429 . S
C344 N341 1.350 . S
C344 C343 1.434 . S
C345 C346 1.369 . S
C345 C347 1.419 1_565 S
C345 H349 0.930 . S
C346 C345 1.369 . S
C346 C355 1.429 1_554 S
C347 C345 1.419 1_545 S
C347 C348 1.363 . S
C347 H350 0.929 . S
C348 C347 1.363 . S
C348 C354 1.428 1_554 S
H349 C345 0.930 . S
H350 C347 0.929 . S
S351 N352 1.613 1_545 S
S351 N353 1.610 . S
N352 S351 1.613 1_565 S
N352 C355 1.350 . S
N353 S351 1.610 . S
N353 C354 1.351 . S
C354 C348 1.428 1_556 S
C354 N353 1.351 . S
C354 C355 1.434 1_545 S
C355 C346 1.429 1_556 S
C355 N352 1.350 . S
C355 C354 1.434 1_565 S
C356 C357 1.369 . S
C356 C358 1.419 1_455 S
C356 H360 0.930 . S
C357 C356 1.369 . S
C357 C366 1.429 1_554 S
C358 C356 1.419 1_655 S
C358 C359 1.363 . S
C358 H361 0.929 . S
C359 C358 1.363 . S
C359 C365 1.428 1_554 S
H360 C356 0.930 . S
H361 C358 0.929 . S
S362 N363 1.613 . S
S362 N364 1.610 1_455 S
N363 S362 1.613 . S
N363 C366 1.350 . S
N364 S362 1.610 1_655 S
N364 C365 1.351 . S
C365 C359 1.428 1_556 S
C365 N364 1.351 . S
C365 C366 1.434 1_655 S
C366 C357 1.429 1_556 S
C366 N363 1.350 . S
C366 C365 1.434 1_455 S
C367 C368 1.369 . S
C367 C369 1.419 . S
C367 H371 0.930 . S
C368 C367 1.369 . S
C368 C377 1.429 . S
C369 C367 1.419 . S
C369 C370 1.363 . S
C369 H372 0.929 . S
C370 C369 1.363 . S
C370 C376 1.428 . S
H371 C367 0.930 . S
H372 C369 0.929 . S
S373 N374 1.613 . S
S373 N375 1.610 . S
N374 S373 1.613 . S
N374 C377 1.350 . S
N375 S373 1.610 . S
N375 C376 1.351 . S
C376 C370 1.428 . S
C376 N375 1.351 . S
C376 C377 1.434 . S
C377 C368 1.429 . S
C377 N374 1.350 . S
C377 C376 1.434 . S
C378 C379 1.369 1_565 S
C378 C380 1.419 . S
C378 H382 0.930 . S
C379 C378 1.369 1_545 S
C379 C388 1.429 . S
C380 C378 1.419 . S
C380 C381 1.363 . S
C380 H383 0.929 . S
C381 C380 1.363 . S
C381 C387 1.428 1_565 S
H382 C378 0.930 . S
H383 C380 0.929 . S
S384 N385 1.613 . S
S384 N386 1.610 . S
N385 S384 1.613 . S
N385 C388 1.350 . S
N386 S384 1.610 . S
N386 C387 1.351 . S
C387 C381 1.428 1_545 S
C387 N386 1.351 . S
C387 C388 1.434 . S
C388 C379 1.429 . S
C388 N385 1.350 . S
C388 C387 1.434 . S
C389 C390 1.369 . S
C389 C391 1.419 1_545 S
C389 H393 0.930 . S
C390 C389 1.369 . S
C390 C399 1.429 1_455 S
C391 C389 1.419 1_565 S
C391 C392 1.363 1_455 S
C391 H394 0.929 . S
C392 C391 1.363 1_655 S
C392 C398 1.428 . S
H393 C389 0.930 . S
H394 C391 0.929 . S
S395 N396 1.613 . S
S395 N397 1.610 1_545 S
N396 S395 1.613 . S
N396 C399 1.350 . S
N397 S395 1.610 1_565 S
N397 C398 1.351 . S
C398 C392 1.428 . S
C398 N397 1.351 . S
C398 C399 1.434 1_565 S
C399 C390 1.429 1_655 S
C399 N396 1.350 . S
C399 C398 1.434 1_545 S
C400 C401 1.369 . S
C400 C402 1.419 . S
C400 H404 0.930 . S
C401 C400 1.369 . S
C401 C410 1.429 . S
C402 C400 1.419 . S
C402 C403 1.363 . S
C402 H405 0.929 . S
C403 C402 1.363 . S
C403 C409 1.428 . S
H404 C400 0.930 . S
H405 C402 0.929 . S
S406 N407 1.613 . S
S406 N408 1.610 . S
N407 S406 1.613 . S
N407 C410 1.350 . S
N408 S406 1.610 . S
N408 C409 1.351 . S
C409 C403 1.428 . S
C409 N408 1.351 . S
C409 C410 1.434 . S
C410 C401 1.429 . S
C410 N407 1.350 . S
C410 C409 1.434 . S
C411 C412 1.369 . S
C411 C413 1.419 . S
C411 H415 0.930 . S
C412 C411 1.369 . S
C412 C421 1.429 . S
C413 C411 1.419 . S
C413 C414 1.363 . S
C413 H416 0.929 . S
C414 C413 1.363 . S
C414 C420 1.428 . S
H415 C411 0.930 . S
H416 C413 0.929 . S
S417 N418 1.613 . S
S417 N419 1.610 . S
N418 S417 1.613 . S
N418 C421 1.350 . S
N419 S417 1.610 . S
N419 C420 1.351 . S
C420 C414 1.428 . S
C420 N419 1.351 . S
C420 C421 1.434 . S
C421 C412 1.429 . S
C421 N418 1.350 . S
C421 C420 1.434 . S
C422 C423 1.369 . S
C422 C424 1.419 1_554 S
C422 H426 0.930 . S
C423 C422 1.369 . S
C423 C432 1.429 . S
C424 C422 1.419 1_556 S
C424 C425 1.363 . S
C424 H427 0.929 . S
C425 C424 1.363 . S
C425 C431 1.428 1_556 S
H426 C422 0.930 . S
H427 C424 0.929 . S
S428 N429 1.613 . S
S428 N430 1.610 . S
N429 S428 1.613 . S
N429 C432 1.350 . S
N430 S428 1.610 . S
N430 C431 1.351 . S
C431 C425 1.428 1_554 S
C431 N430 1.351 . S
C431 C432 1.434 . S
C432 C423 1.429 . S
C432 N429 1.350 . S
C432 C431 1.434 . S
C433 C434 1.369 . S
C433 C435 1.419 . S
C433 H437 0.930 . S
C434 C433 1.369 . S
C434 C443 1.429 . S
C435 C433 1.419 . S
C435 C436 1.363 . S
C435 H438 0.929 . S
C436 C435 1.363 . S
C436 C442 1.428 . S
H437 C433 0.930 . S
H438 C435 0.929 . S
S439 N440 1.613 . S
S439 N441 1.610 . S
N440 S439 1.613 . S
N440 C443 1.350 . S
N441 S439 1.610 . S
N441 C442 1.351 . S
C442 C436 1.428 . S
C442 N441 1.351 . S
C442 C443 1.434 . S
C443 C434 1.429 . S
C443 N440 1.350 . S
C443 C442 1.434 . S
C444 C445 1.369 . S
C444 C446 1.419 . S
C444 H448 0.930 . S
C445 C444 1.369 . S
C445 C454 1.429 . S
C446 C444 1.419 . S
C446 C447 1.363 . S
C446 H449 0.929 . S
C447 C446 1.363 . S
C447 C453 1.428 . S
H448 C444 0.930 . S
H449 C446 0.929 . S
S450 N451 1.613 . S
S450 N452 1.610 . S
N451 S450 1.613 . S
N451 C454 1.350 . S
N452 S450 1.610 . S
N452 C453 1.351 . S
C453 C447 1.428 . S
C453 N452 1.351 . S
C453 C454 1.434 . S
C454 C445 1.429 . S
C454 N451 1.350 . S
C454 C453 1.434 . S
C455 C456 1.369 . S
C455 C457 1.406 1_554 S
C455 H459 0.930 . S
C456 C455 1.369 . S
C456 C465 1.429 . S
C457 C455 1.406 1_556 S
C457 C458 1.369 . S
C457 H460 0.936 . S
C458 C457 1.369 . S
C458 C464 1.428 1_556 S
H459 C455 0.930 . S
H460 C457 0.936 . S
S461 N462 1.613 . S
S461 N463 1.610 1_554 S
N462 S461 1.613 . S
N462 C465 1.350 . S
N463 S461 1.610 1_556 S
N463 C464 1.351 1_556 S
C464 C458 1.428 1_554 S
C464 N463 1.351 1_554 S
C464 C465 1.434 . S
C465 C456 1.429 . S
C465 N462 1.350 . S
C465 C464 1.434 . S
C466 C467 1.369 . S
C466 C468 1.419 . S
C466 H470 0.930 . S
C467 C466 1.369 . S
C467 C476 1.429 . S
C468 C466 1.419 . S
C468 C469 1.363 . S
C468 H471 0.929 . S
C469 C468 1.363 . S
C469 C475 1.428 . S
H470 C466 0.930 . S
H471 C468 0.929 . S
S472 N473 1.613 . S
S472 N474 1.610 . S
N473 S472 1.613 . S
N473 C476 1.350 . S
N474 S472 1.610 . S
N474 C475 1.351 . S
C475 C469 1.428 . S
C475 N474 1.351 . S
C475 C476 1.434 . S
C476 C467 1.429 . S
C476 N473 1.350 . S
C476 C475 1.434 . S
C477 C478 1.369 . S
C477 C479 1.419 . S
C477 H481 0.930 . S
C478 C477 1.369 . S
C478 C487 1.429 . S
C479 C477 1.419 . S
C479 C480 1.363 . S
C479 H482 0.929 . S
C480 C479 1.363 . S
C480 C486 1.428 . S
H481 C477 0.930 . S
H482 C479 0.929 . S
S483 N484 1.613 . S
S483 N485 1.610 . S
N484 S483 1.613 . S
N484 C487 1.350 . S
N485 S483 1.610 . S
N485 C486 1.351 . S
C486 C480 1.428 . S
C486 N485 1.351 . S
C486 C487 1.434 . S
C487 C478 1.429 . S
C487 N484 1.350 . S
C487 C486 1.434 . S
C488 C489 1.369 . S
C488 C490 1.419 1_556 S
C488 H492 0.930 . S
C489 C488 1.369 . S
C489 C498 1.429 1_556 S
C490 C488 1.419 1_554 S
C490 C491 1.363 . S
C490 H493 0.929 . S
C491 C490 1.363 . S
C491 C497 1.428 . S
H492 C488 0.930 . S
H493 C490 0.929 . S
S494 N495 1.613 1_554 S
S494 N496 1.610 . S
N495 S494 1.613 1_556 S
N495 C498 1.350 1_556 S
N496 S494 1.610 . S
N496 C497 1.351 . S
C497 C491 1.428 . S
C497 N496 1.351 . S
C497 C498 1.434 . S
C498 C489 1.429 1_554 S
C498 N495 1.350 1_554 S
C498 C497 1.434 . S
C499 C500 1.369 . S
C499 C501 1.419 . S
C499 H503 0.930 . S
C500 C499 1.369 . S
C500 C509 1.429 . S
C501 C499 1.419 . S
C501 C502 1.363 . S
C501 H504 0.929 . S
C502 C501 1.363 . S
C502 C508 1.428 . S
H503 C499 0.930 . S
H504 C501 0.929 . S
S505 N506 1.613 . S
S505 N507 1.610 . S
N506 S505 1.613 . S
N506 C509 1.350 . S
N507 S505 1.610 . S
N507 C508 1.351 . S
C508 C502 1.428 . S
C508 N507 1.351 . S
C508 C509 1.434 . S
C509 C500 1.429 . S
C509 N506 1.350 . S
C509 C508 1.434 . S
C510 C511 1.369 . S
C510 C512 1.419 . S
C510 H514 0.930 . S
C511 C510 1.369 . S
C511 C520 1.429 . S
C512 C510 1.419 . S
C512 C513 1.363 . S
C512 H515 0.929 . S
C513 C512 1.363 . S
C513 C519 1.428 . S
H514 C510 0.930 . S
H515 C512 0.929 . S
S516 N517 1.613 . S
S516 N518 1.610 . S
N517 S516 1.613 . S
N517 C520 1.350 . S
N518 S516 1.610 . S
N518 C519 1.351 . S
C519 C513 1.428 . S
C519 N518 1.351 . S
C519 C520 1.434 . S
C520 C511 1.429 . S
C520 N517 1.350 . S
C520 C519 1.434 . S
C521 C522 1.369 . S
C521 C523 1.419 . S
C521 H525 0.930 . S
C522 C521 1.369 . S
C522 C531 1.429 . S
C523 C521 1.419 . S
C523 C524 1.363 . S
C523 H526 0.929 . S
C524 C523 1.363 . S
C524 C530 1.428 . S
H525 C521 0.930 . S
H526 C523 0.929 . S
S527 N528 1.613 . S
S527 N529 1.610 . S
N528 S527 1.613 . S
N528 C531 1.350 . S
N529 S527 1.610 . S
N529 C530 1.351 . S
C530 C524 1.428 . S
C530 N529 1.351 . S
C530 C531 1.434 . S
C531 C522 1.429 . S
C531 N528 1.350 . S
C531 C530 1.434 . S
C532 C533 1.369 . S
C532 C534 1.419 . S
C532 H536 0.930 . S
C533 C532 1.369 . S
C533 C542 1.429 . S
C534 C532 1.419 . S
C534 C535 1.363 . S
C534 H537 0.929 . S
C535 C534 1.363 . S
C535 C541 1.428 . S
H536 C532 0.930 . S
H537 C534 0.929 . S
S538 N539 1.613 . S
S538 N540 1.610 . S
N539 S538 1.613 . S
N539 C542 1.350 . S
N540 S538 1.610 . S
N540 C541 1.351 . S
C541 C535 1.428 . S
C541 N540 1.351 . S
C541 C542 1.434 . S
C542 C533 1.429 . S
C542 N539 1.350 . S
C542 C541 1.434 . S
C543 C544 1.369 . S
C543 C545 1.419 . S
C543 H547 0.930 . S
C544 C543 1.369 . S
C544 C553 1.429 . S
C545 C543 1.419 . S
C545 C546 1.363 . S
C545 H548 0.929 . S
C546 C545 1.363 . S
C546 C552 1.428 . S
H547 C543 0.930 . S
H548 C545 0.929 . S
S549 N550 1.613 . S
S549 N551 1.610 . S
N550 S549 1.613 . S
N550 C553 1.350 . S
N551 S549 1.610 . S
N551 C552 1.351 . S
C552 C546 1.428 . S
C552 N551 1.351 . S
C552 C553 1.434 . S
C553 C544 1.429 . S
C553 N550 1.350 . S
C553 C552 1.434 . S
C554 C555 1.369 . S
C554 C556 1.419 . S
C554 H558 0.930 . S
C555 C554 1.369 . S
C555 C564 1.429 . S
C556 C554 1.419 . S
C556 C557 1.363 . S
C556 H559 0.929 . S
C557 C556 1.363 . S
C557 C563 1.428 . S
H558 C554 0.930 . S
H559 C556 0.929 . S
S560 N561 1.613 . S
S560 N562 1.610 . S
N561 S560 1.613 . S
N561 C564 1.350 . S
N562 S560 1.610 . S
N562 C563 1.351 . S
C563 C557 1.428 . S
C563 N562 1.351 . S
C563 C564 1.434 . S
C564 C555 1.429 . S
C564 N561 1.350 . S
C564 C563 1.434 . S
C565 C566 1.369 . S
C565 C567 1.411 1_554 S
C565 H569 0.930 . S
C566 C565 1.369 . S
C566 C575 1.429 . S
C567 C565 1.411 1_556 S
C567 C568 1.367 . S
C567 H570 0.933 . S
C568 C567 1.367 . S
C568 C574 1.428 1_556 S
H569 C565 0.930 . S
H570 C567 0.933 . S
S571 N572 1.613 . S
S571 N573 1.610 1_554 S
N572 S571 1.613 . S
N572 C575 1.350 . S
N573 S571 1.610 1_556 S
N573 C574 1.351 1_556 S
C574 C568 1.428 1_554 S
C574 N573 1.351 1_554 S
C574 C575 1.434 . S
C575 C566 1.429 . S
C575 N572 1.350 . S
C575 C574 1.434 . S
C225 C92 1.582 . S
C227 C8 1.576 . S
C236 C106 1.575 . S
C238 C22 1.582 . S
C247 C36 1.577 . S
C249 C64 1.580 . S
C258 C50 1.575 . S
C260 C78 1.582 . S
C269 C120 1.576 . S
C271 C204 1.581 . S
C280 C218 1.580 . S
C282 C134 1.578 . S
C291 C148 1.576 . S
C293 C176 1.581 . S
C302 C162 1.576 . S
C304 C190 1.581 . S
C313 C9 1.433 . S
C315 C149 1.441 . S
C324 C23 1.443 . S
C326 C163 1.434 . S
C335 C37 1.434 . S
C337 C121 1.440 . S
C346 C51 1.435 . S
C348 C135 1.439 . S
C357 C65 1.443 . S
C359 C205 1.434 . S
C368 C219 1.436 . S
C370 C79 1.440 . S
C379 C93 1.433 . S
C381 C177 1.441 . S
C390 C191 1.443 . S
C392 C107 1.434 . S
C401 C189 0.842 . S
C403 C7 0.831 . S
C412 C21 0.840 . S
C414 C203 0.837 . S
C423 C217 0.826 . S
C425 C35 0.837 . S
C434 C175 0.826 . S
C436 C49 0.837 . S
C445 C161 0.837 . S
C447 C63 0.828 . S
C456 C77 0.831 . S
C458 C119 0.830 . S
C467 C91 0.839 . S
C469 C133 0.838 . S
C478 C105 0.839 . S
C480 C147 0.838 . S
C489 C185 1.512 . S
C491 C3 1.516 . S
C500 C17 1.516 . S
C502 C199 1.511 . S
C511 C31 1.516 . S
C513 C213 1.514 . S
C522 C171 1.510 . S
C524 C45 1.514 . S
C533 C157 1.516 . S
C535 C59 1.511 . S
C544 C115 1.517 . S
C546 C73 1.513 . S
C555 C87 1.517 . S
C557 C129 1.512 . S
C566 C143 1.517 . S
C568 C101 1.512 . S
