# Generated by pormake.
# Topology wld, (5)-cn, num edge types: 1
# Building blocks:
#     Node 0, Type 0, BuildingBlock: XOMCOT_clean_sbu_1, # of connection points: 5
#     Node 1, Type 0, BuildingBlock: XOMCOT_clean_sbu_1, # of connection points: 5
#     Node 2, Type 0, BuildingBlock: XOMCOT_clean_sbu_1, # of connection points: 5
#     Node 3, Type 0, BuildingBlock: XOMCOT_clean_sbu_1, # of connection points: 5
#     Node 4, Type 0, BuildingBlock: XOMCOT_clean_sbu_1, # of connection points: 5
#     Node 5, Type 0, BuildingBlock: XOMCOT_clean_sbu_1, # of connection points: 5
#     Node 6, Type 0, BuildingBlock: XOMCOT_clean_sbu_1, # of connection points: 5
#     Node 7, Type 0, BuildingBlock: XOMCOT_clean_sbu_1, # of connection points: 5
#     Node 8, Type 0, BuildingBlock: XOMCOT_clean_sbu_1, # of connection points: 5
#     Node 9, Type 0, BuildingBlock: XOMCOT_clean_sbu_1, # of connection points: 5
#     Node 10, Type 0, BuildingBlock: XOMCOT_clean_sbu_1, # of connection points: 5
#     Node 11, Type 0, BuildingBlock: XOMCOT_clean_sbu_1, # of connection points: 5
#     Edge 12, Type (0, 0), BuildingBlock: MIFKUJ_clean_linker_0, # of connection points: 2
#     Edge 13, Type (0, 0), BuildingBlock: MIFKUJ_clean_linker_0, # of connection points: 2
#     Edge 14, Type (0, 0), BuildingBlock: MIFKUJ_clean_linker_0, # of connection points: 2
#     Edge 15, Type (0, 0), BuildingBlock: MIFKUJ_clean_linker_0, # of connection points: 2
#     Edge 16, Type (0, 0), BuildingBlock: MIFKUJ_clean_linker_0, # of connection points: 2
#     Edge 17, Type (0, 0), BuildingBlock: MIFKUJ_clean_linker_0, # of connection points: 2
#     Edge 18, Type (0, 0), BuildingBlock: MIFKUJ_clean_linker_0, # of connection points: 2
#     Edge 19, Type (0, 0), BuildingBlock: MIFKUJ_clean_linker_0, # of connection points: 2
#     Edge 20, Type (0, 0), BuildingBlock: MIFKUJ_clean_linker_0, # of connection points: 2
#     Edge 21, Type (0, 0), BuildingBlock: MIFKUJ_clean_linker_0, # of connection points: 2
#     Edge 22, Type (0, 0), BuildingBlock: MIFKUJ_clean_linker_0, # of connection points: 2
#     Edge 23, Type (0, 0), BuildingBlock: MIFKUJ_clean_linker_0, # of connection points: 2
#     Edge 24, Type (0, 0), BuildingBlock: MIFKUJ_clean_linker_0, # of connection points: 2
#     Edge 25, Type (0, 0), BuildingBlock: MIFKUJ_clean_linker_0, # of connection points: 2
#     Edge 26, Type (0, 0), BuildingBlock: MIFKUJ_clean_linker_0, # of connection points: 2
#     Edge 27, Type (0, 0), BuildingBlock: MIFKUJ_clean_linker_0, # of connection points: 2
#     Edge 28, Type (0, 0), BuildingBlock: MIFKUJ_clean_linker_0, # of connection points: 2
#     Edge 29, Type (0, 0), BuildingBlock: MIFKUJ_clean_linker_0, # of connection points: 2
#     Edge 30, Type (0, 0), BuildingBlock: MIFKUJ_clean_linker_0, # of connection points: 2
#     Edge 31, Type (0, 0), BuildingBlock: MIFKUJ_clean_linker_0, # of connection points: 2
#     Edge 32, Type (0, 0), BuildingBlock: MIFKUJ_clean_linker_0, # of connection points: 2
#     Edge 33, Type (0, 0), BuildingBlock: MIFKUJ_clean_linker_0, # of connection points: 2
#     Edge 34, Type (0, 0), BuildingBlock: MIFKUJ_clean_linker_0, # of connection points: 2
#     Edge 35, Type (0, 0), BuildingBlock: MIFKUJ_clean_linker_0, # of connection points: 2
#     Edge 36, Type (0, 0), BuildingBlock: MIFKUJ_clean_linker_0, # of connection points: 2
#     Edge 37, Type (0, 0), BuildingBlock: MIFKUJ_clean_linker_0, # of connection points: 2
#     Edge 38, Type (0, 0), BuildingBlock: MIFKUJ_clean_linker_0, # of connection points: 2
#     Edge 39, Type (0, 0), BuildingBlock: MIFKUJ_clean_linker_0, # of connection points: 2
#     Edge 40, Type (0, 0), BuildingBlock: MIFKUJ_clean_linker_0, # of connection points: 2
#     Edge 41, Type (0, 0), BuildingBlock: MIFKUJ_clean_linker_0, # of connection points: 2
# Relax obj value: 0.226
# Max RMSD: 0.209
# Mean RMSD: 0.209
data_MOF--net-wld--node1-XOMCOT_clean_sbu_1--edge1-MIFKUJ_clean_linker_0
_symmetry_space_group_name_H-M    P1
_symmetry_Int_Tables_number       1
_symmetry_cell_setting            triclinic
loop_
_symmetry_equiv_pos_as_xyz
'x, y, z'
_cell_length_a     46.846886
_cell_length_b     46.837393
_cell_length_c     65.405764
_cell_angle_alpha  89.995054
_cell_angle_beta   89.986152
_cell_angle_gamma 120.01399
loop_
_atom_site_label
_atom_site_type_symbol
_atom_site_fract_x
_atom_site_fract_y
_atom_site_fract_z
_atom_type_partial_charge
C0 C 0.38746 0.17545 0.11377 0.0
C1 C 0.40704 0.16121 0.11402 0.0
N2 N 0.43171 0.17717 0.1004 0.0
N3 N 0.39984 0.20037 0.10016 0.0
C4 C 0.42659 0.2007 0.09221 0.0
H5 H 0.36539 0.16789 0.12271 0.0
Co6 Co 0.38252 0.22688 0.09279 0.0
C7 C 0.43818 0.28123 0.07108 0.0
O8 O 0.41952 0.27774 0.0552 0.0
N9 N 0.36525 0.25391 0.08538 0.0
C10 C 0.35869 0.29761 0.08277 0.0
C11 C 0.37717 0.28549 0.09136 0.0
C12 C 0.33941 0.24741 0.07317 0.0
N13 N 0.33496 0.27366 0.0713 0.0
O14 O 0.37629 0.2097 0.06575 0.0
H15 H 0.39852 0.29924 0.10099 0.0
H16 H 0.32419 0.22398 0.06571 0.0
O17 O 0.42608 0.26209 0.0864 0.0
C18 C 0.34941 0.18224 0.06511 0.0
O19 O 0.33111 0.17218 0.08169 0.0
N20 N 0.38623 0.24131 0.11966 0.0
C21 C 0.38089 0.26551 0.15739 0.0
C22 C 0.41189 0.27723 0.14819 0.0
C23 C 0.41411 0.26445 0.12932 0.0
C24 C 0.35641 0.2278 0.12908 0.0
C25 C 0.35317 0.23939 0.14801 0.0
H26 H 0.43796 0.27439 0.12215 0.0
H27 H 0.33476 0.20895 0.12132 0.0
H28 H 0.44203 0.21799 0.08061 0.0
H29 H 0.40296 0.14034 0.12325 0.0
H30 H 0.3632 0.32255 0.08425 0.0
H31 H 0.434 0.29718 0.15493 0.0
H32 H 0.32893 0.2287 0.15487 0.0
C33 C 0.81459 0.21899 0.12902 0.0
C34 C 0.82324 0.25166 0.12883 0.0
N35 N 0.80649 0.2562 0.11367 0.0
N36 N 0.79243 0.20301 0.11409 0.0
C37 C 0.78786 0.22629 0.10497 0.0
H38 H 0.82465 0.20776 0.13895 0.0
Co39 Co 0.77834 0.15978 0.10706 0.0
C40 C 0.70888 0.13059 0.09438 0.0
O41 O 0.70324 0.10319 0.10343 0.0
N42 N 0.76574 0.11584 0.09965 0.0
C43 C 0.75598 0.06413 0.09909 0.0
C44 C 0.76656 0.09188 0.11078 0.0
C45 C 0.75582 0.10211 0.08085 0.0
N46 N 0.74914 0.07052 0.08029 0.0
O47 O 0.80148 0.17458 0.08185 0.0
H48 H 0.77501 0.09389 0.12625 0.0
H49 H 0.75295 0.11487 0.06791 0.0
O50 O 0.73817 0.1555 0.09419 0.0
C51 C 0.83209 0.1843 0.08313 0.0
O52 O 0.84407 0.18217 0.10087 0.0
N53 N 0.75737 0.14672 0.13287 0.0
C54 C 0.72748 0.12224 0.17056 0.0
C55 C 0.71472 0.13628 0.15706 0.0
C56 C 0.73074 0.14946 0.13856 0.0
C57 C 0.77299 0.13832 0.14718 0.0
C58 C 0.75799 0.12496 0.16592 0.0
H59 H 0.72142 0.16157 0.12886 0.0
H60 H 0.79672 0.14083 0.1437 0.0
H61 H 0.77254 0.22178 0.09161 0.0
H62 H 0.84087 0.2707 0.13887 0.0
H63 H 0.75431 0.04121 0.10389 0.0
H64 H 0.69241 0.13678 0.16067 0.0
H65 H 0.76955 0.11567 0.17622 0.0
C66 C 0.78788 0.61515 0.1297 0.0
C67 C 0.75436 0.59317 0.13075 0.0
N68 N 0.74626 0.57145 0.11528 0.0
N69 N 0.80053 0.60711 0.11364 0.0
C70 C 0.77453 0.58079 0.10507 0.0
H71 H 0.80215 0.63529 0.14011 0.0
Co72 Co 0.84364 0.62598 0.10443 0.0
C73 C 0.83887 0.57168 0.07895 0.0
O74 O 0.8519 0.59106 0.06303 0.0
N75 N 0.88704 0.64444 0.09506 0.0
C76 C 0.93662 0.65125 0.08866 0.0
C77 C 0.90696 0.6317 0.09809 0.0
C78 C 0.9053 0.67193 0.08384 0.0
N79 N 0.93562 0.67659 0.07965 0.0
O80 O 0.8298 0.63372 0.07866 0.0
H81 H 0.90008 0.60906 0.10622 0.0
H82 H 0.89649 0.68808 0.07871 0.0
O83 O 0.83505 0.58323 0.09569 0.0
C84 C 0.82837 0.66014 0.07835 0.0
O85 O 0.8375 0.67888 0.09475 0.0
N86 N 0.85727 0.62027 0.13013 0.0
C87 C 0.89121 0.62214 0.16548 0.0
C88 C 0.87049 0.59202 0.15566 0.0
C89 C 0.85336 0.59154 0.13804 0.0
C90 C 0.87499 0.64921 0.14034 0.0
C91 C 0.89206 0.65072 0.15809 0.0
H92 H 0.83838 0.56833 0.13034 0.0
H93 H 0.87716 0.67157 0.13402 0.0
H94 H 0.77624 0.56868 0.09143 0.0
H95 H 0.73754 0.59264 0.14229 0.0
H96 H 0.95683 0.64633 0.08782 0.0
H97 H 0.86871 0.56927 0.16087 0.0
H98 H 0.90663 0.67432 0.16557 0.0
C99 C 0.21113 0.38365 0.38218 0.0
C100 C 0.1944 0.40089 0.38152 0.0
N101 N 0.21136 0.42852 0.39272 0.0
N102 N 0.23836 0.40039 0.39377 0.0
C103 C 0.23772 0.42751 0.40004 0.0
H104 H 0.20361 0.36012 0.37502 0.0
Co105 Co 0.26782 0.38676 0.40125 0.0
C106 C 0.31795 0.44444 0.42361 0.0
O107 O 0.31576 0.42592 0.4393 0.0
N108 N 0.29735 0.37283 0.40865 0.0
C109 C 0.34288 0.3699 0.41255 0.0
C110 C 0.32996 0.38814 0.40462 0.0
C111 C 0.29094 0.34513 0.41875 0.0
N112 N 0.3183 0.34277 0.42147 0.0
O113 O 0.25081 0.37988 0.42831 0.0
H114 H 0.34365 0.41136 0.39664 0.0
H115 H 0.26658 0.3269 0.42384 0.0
O116 O 0.30018 0.43153 0.40783 0.0
C117 C 0.22405 0.35283 0.43095 0.0
O118 O 0.21226 0.33181 0.41568 0.0
N119 N 0.28265 0.39172 0.37442 0.0
C120 C 0.30326 0.38888 0.3351 0.0
C121 C 0.31732 0.41895 0.34559 0.0
C122 C 0.30623 0.42 0.36527 0.0
C123 C 0.26817 0.36254 0.36418 0.0
C124 C 0.27795 0.36058 0.3444 0.0
H125 H 0.3174 0.44333 0.37318 0.0
H126 H 0.2495 0.3405 0.37173 0.0
H127 H 0.2555 0.44562 0.41044 0.0
H128 H 0.17158 0.39367 0.37349 0.0
H129 H 0.36859 0.37663 0.41215 0.0
H130 H 0.33686 0.44124 0.33873 0.0
H131 H 0.26679 0.33689 0.33674 0.0
C132 C 0.62896 0.8183 0.38435 0.0
C133 C 0.61229 0.78453 0.38179 0.0
N134 N 0.58124 0.77272 0.38851 0.0
N135 N 0.60854 0.82739 0.39297 0.0
C136 C 0.57961 0.79902 0.39518 0.0
H137 H 0.65465 0.83502 0.3809 0.0
Co138 Co 0.62029 0.86914 0.40258 0.0
C139 C 0.56146 0.85483 0.42665 0.0
O140 O 0.5794 0.86826 0.44307 0.0
N141 N 0.63226 0.9112 0.41211 0.0
C142 C 0.63229 0.95783 0.41825 0.0
C143 C 0.61485 0.92686 0.40994 0.0
C144 C 0.66038 0.9333 0.42152 0.0
N145 N 0.66104 0.96196 0.42553 0.0
O146 O 0.62845 0.85676 0.42871 0.0
H147 H 0.59097 0.91649 0.40267 0.0
H148 H 0.68027 0.9287 0.42498 0.0
O149 O 0.57517 0.85409 0.41 0.0
C150 C 0.65666 0.85938 0.43081 0.0
O151 O 0.67816 0.87262 0.41588 0.0
N152 N 0.61412 0.88125 0.37666 0.0
C153 C 0.61384 0.90804 0.33881 0.0
C154 C 0.58409 0.8868 0.34876 0.0
C155 C 0.58472 0.87325 0.36767 0.0
C156 C 0.64312 0.90085 0.36689 0.0
C157 C 0.64358 0.91455 0.34793 0.0
H158 H 0.56162 0.85696 0.37511 0.0
H159 H 0.66608 0.9066 0.37424 0.0
H160 H 0.55808 0.7971 0.40258 0.0
H161 H 0.62227 0.76975 0.37585 0.0
H162 H 0.62411 0.97569 0.41906 0.0
H163 H 0.56063 0.8809 0.34204 0.0
H164 H 0.66709 0.93105 0.34085 0.0
C165 C 0.18876 0.7897 0.38432 0.0
C166 C 0.22265 0.80484 0.38522 0.0
N167 N 0.23075 0.7886 0.39896 0.0
N168 N 0.17562 0.76402 0.39738 0.0
C169 C 0.20178 0.76417 0.40618 0.0
H170 H 0.17458 0.79696 0.3748 0.0
Co171 Co 0.13125 0.73588 0.40297 0.0
C172 C 0.13247 0.68259 0.42585 0.0
O173 O 0.11328 0.68372 0.44009 0.0
N174 N 0.08648 0.70741 0.40864 0.0
C175 C 0.03663 0.66282 0.41023 0.0
C176 C 0.06776 0.67597 0.40215 0.0
C177 C 0.06607 0.71282 0.42053 0.0
N178 N 0.03565 0.686 0.42189 0.0
O179 O 0.13876 0.75214 0.43023 0.0
H180 H 0.07642 0.66295 0.39268 0.0
H181 H 0.07341 0.73585 0.42826 0.0
O182 O 0.14095 0.70195 0.41055 0.0
C183 C 0.13937 0.77951 0.43188 0.0
O184 O 0.13305 0.79186 0.41559 0.0
N185 N 0.12398 0.72198 0.37584 0.0
C186 C 0.10221 0.70058 0.3363 0.0
C187 C 0.11919 0.68791 0.34721 0.0
C188 C 0.13047 0.69941 0.36698 0.0
C189 C 0.10898 0.73566 0.36508 0.0
C190 C 0.09799 0.72542 0.34521 0.0
H191 H 0.14318 0.68917 0.37529 0.0
H192 H 0.1044 0.75373 0.37236 0.0
H193 H 0.19965 0.74706 0.418 0.0
H194 H 0.23992 0.82582 0.37621 0.0
H195 H 0.01674 0.63769 0.40838 0.0
H196 H 0.12309 0.66889 0.34067 0.0
H197 H 0.08482 0.73564 0.33729 0.0
C198 C 0.60723 0.83297 0.88542 0.0
C199 C 0.58285 0.84114 0.88523 0.0
N200 N 0.55405 0.81383 0.8896 0.0
N201 N 0.59393 0.80078 0.89016 0.0
C202 C 0.56132 0.78962 0.89226 0.0
H203 H 0.63325 0.84977 0.88309 0.0
Co204 Co 0.61886 0.78094 0.89572 0.0
C205 C 0.57131 0.71638 0.91697 0.0
O206 O 0.59095 0.70396 0.91625 0.0
N207 N 0.64571 0.76254 0.90118 0.0
C208 C 0.68379 0.74777 0.89729 0.0
C209 C 0.6641 0.7573 0.88737 0.0
C210 C 0.6553 0.75664 0.91947 0.0
N211 N 0.67814 0.74729 0.91747 0.0
O212 O 0.6319 0.80443 0.92095 0.0
H213 H 0.66425 0.76114 0.8711 0.0
H214 H 0.64625 0.75985 0.93402 0.0
O215 O 0.58051 0.7448 0.90933 0.0
C216 C 0.65919 0.83147 0.92054 0.0
O217 O 0.67695 0.83955 0.90374 0.0
N218 N 0.60724 0.75993 0.87019 0.0
C219 C 0.60655 0.73504 0.83141 0.0
C220 C 0.58702 0.71402 0.84715 0.0
C221 C 0.58771 0.72696 0.8665 0.0
C222 C 0.6242 0.781 0.85462 0.0
C223 C 0.6243 0.76908 0.8351 0.0
H224 H 0.57393 0.70998 0.87849 0.0
H225 H 0.63965 0.80703 0.85776 0.0
H226 H 0.5434 0.76474 0.89665 0.0
H227 H 0.58614 0.86544 0.88265 0.0
H228 H 0.70115 0.74193 0.89023 0.0
H229 H 0.57302 0.68757 0.84495 0.0
H230 H 0.63935 0.78621 0.82327 0.0
C231 C 0.16734 0.78198 0.8709 0.0
C232 C 0.15236 0.74807 0.87212 0.0
N233 N 0.16158 0.74033 0.88983 0.0
N234 N 0.18624 0.79531 0.88762 0.0
C235 C 0.18187 0.76933 0.89891 0.0
H236 H 0.16528 0.79595 0.85839 0.0
Co237 Co 0.21477 0.83903 0.8944 0.0
C238 C 0.26285 0.83196 0.91951 0.0
O239 O 0.25941 0.84865 0.93452 0.0
N240 N 0.244 0.883 0.90134 0.0
C241 C 0.29008 0.93121 0.90487 0.0
C242 C 0.27653 0.9 0.89697 0.0
C243 C 0.23834 0.90452 0.91184 0.0
N244 N 0.26605 0.93405 0.91428 0.0
O245 O 0.19548 0.83074 0.92094 0.0
H246 H 0.28989 0.89008 0.88903 0.0
H247 H 0.21445 0.89859 0.91775 0.0
O248 O 0.24655 0.82694 0.90305 0.0
C249 C 0.1688 0.83169 0.9208 0.0
O250 O 0.15953 0.83911 0.90359 0.0
N251 N 0.23164 0.84766 0.86798 0.0
C252 C 0.26006 0.87575 0.83063 0.0
C253 C 0.26986 0.8559 0.84115 0.0
C254 C 0.25502 0.84169 0.85985 0.0
C255 C 0.22002 0.86452 0.85722 0.0
C256 C 0.23369 0.87859 0.83845 0.0
H257 H 0.26366 0.82757 0.86817 0.0
H258 H 0.20104 0.8684 0.86382 0.0
H259 H 0.1945 0.77171 0.91321 0.0
H260 H 0.13639 0.73055 0.86076 0.0
H261 H 0.31592 0.94986 0.90448 0.0
H262 H 0.28992 0.85282 0.83559 0.0
H263 H 0.22448 0.89265 0.83052 0.0
C264 C 0.21388 0.42386 0.87375 0.0
C265 C 0.2445 0.45167 0.8745 0.0
N266 N 0.24575 0.46944 0.89104 0.0
N267 N 0.19572 0.42414 0.88962 0.0
C268 C 0.21585 0.45202 0.90003 0.0
H269 H 0.20547 0.40441 0.86248 0.0
Co270 Co 0.153 0.39103 0.89503 0.0
C271 C 0.11913 0.4253 0.91169 0.0
O272 O 0.09177 0.40399 0.9024 0.0
N273 N 0.10984 0.35621 0.90073 0.0
C274 C 0.06037 0.31088 0.89936 0.0
C275 C 0.08853 0.33117 0.88861 0.0
C276 C 0.09438 0.3495 0.91909 0.0
N277 N 0.06398 0.32255 0.91852 0.0
O278 O 0.16774 0.38071 0.91946 0.0
H279 H 0.09287 0.32684 0.87307 0.0
H280 H 0.10501 0.3647 0.93251 0.0
O281 O 0.14481 0.42243 0.9101 0.0
C282 C 0.17386 0.35725 0.91786 0.0
O283 O 0.16958 0.34267 0.90005 0.0
N284 N 0.13968 0.40088 0.87004 0.0
C285 C 0.11621 0.40805 0.83245 0.0
C286 C 0.12517 0.43216 0.8476 0.0
C287 C 0.13798 0.42867 0.86608 0.0
C288 C 0.13524 0.37968 0.85451 0.0
C289 C 0.12277 0.38231 0.8357 0.0
H290 H 0.14652 0.44846 0.87702 0.0
H291 H 0.1406 0.36 0.85697 0.0
H292 H 0.20878 0.45933 0.91394 0.0
H293 H 0.26458 0.45779 0.86397 0.0
H294 H 0.03913 0.28884 0.89358 0.0
H295 H 0.12222 0.45342 0.84519 0.0
H296 H 0.11718 0.36368 0.82414 0.0
C297 C 0.79643 0.61183 0.6213 0.0
C298 C 0.81441 0.5962 0.62451 0.0
N299 N 0.79886 0.56685 0.61493 0.0
N300 N 0.77005 0.59243 0.60957 0.0
C301 C 0.77224 0.56524 0.60598 0.0
H302 H 0.80295 0.63634 0.62635 0.0
Co303 Co 0.7413 0.60364 0.59737 0.0
C304 C 0.69471 0.54171 0.57718 0.0
O305 O 0.69912 0.55736 0.55976 0.0
N306 N 0.71256 0.61513 0.58511 0.0
C307 C 0.66777 0.61744 0.57697 0.0
C308 C 0.67949 0.59981 0.58721 0.0
C309 C 0.72043 0.64216 0.57379 0.0
N310 N 0.69358 0.64419 0.56857 0.0
O311 O 0.76163 0.60603 0.57168 0.0
H312 H 0.66485 0.57753 0.59595 0.0
H313 H 0.7455 0.66054 0.57006 0.0
O314 O 0.70983 0.5575 0.5932 0.0
C315 C 0.78883 0.63271 0.56919 0.0
O316 O 0.79859 0.6555 0.58343 0.0
N317 N 0.72318 0.60343 0.62269 0.0
C318 C 0.69368 0.61054 0.65761 0.0
C319 C 0.68934 0.57958 0.65235 0.0
C320 C 0.70438 0.57648 0.63463 0.0
C321 C 0.72938 0.63393 0.62842 0.0
C322 C 0.71451 0.638 0.64569 0.0
H323 H 0.70039 0.55247 0.63035 0.0
H324 H 0.745 0.65506 0.61898 0.0
H325 H 0.7559 0.54546 0.5959 0.0
H326 H 0.83742 0.60589 0.63279 0.0
H327 H 0.64218 0.61094 0.57582 0.0
H328 H 0.6737 0.55796 0.66144 0.0
H329 H 0.71895 0.66238 0.64959 0.0
C330 C 0.3789 0.16964 0.60896 0.0
C331 C 0.39529 0.20293 0.61332 0.0
N332 N 0.42748 0.215 0.60929 0.0
N333 N 0.40066 0.16111 0.60187 0.0
C334 C 0.43005 0.18931 0.60241 0.0
H335 H 0.35263 0.15299 0.61016 0.0
Co336 Co 0.3906 0.12039 0.59096 0.0
C337 C 0.45236 0.14045 0.5684 0.0
O338 O 0.43666 0.12981 0.55094 0.0
N339 N 0.38011 0.07948 0.58018 0.0
C340 C 0.38035 0.03358 0.57192 0.0
C341 C 0.39833 0.06445 0.58037 0.0
C342 C 0.35118 0.05724 0.57166 0.0
N343 N 0.35069 0.02911 0.56644 0.0
O344 O 0.38431 0.13467 0.56501 0.0
H345 H 0.42302 0.07501 0.58643 0.0
H346 H 0.33051 0.06124 0.56981 0.0
O347 O 0.43638 0.13725 0.5848 0.0
C348 C 0.35642 0.13204 0.56141 0.0
O349 O 0.33295 0.11795 0.57517 0.0
N350 N 0.39509 0.10623 0.61669 0.0
C351 C 0.39125 0.07797 0.65465 0.0
C352 C 0.42044 0.09125 0.64324 0.0
C353 C 0.42203 0.1057 0.62427 0.0
C354 C 0.36676 0.09385 0.62772 0.0
C355 C 0.36436 0.0798 0.64685 0.0
H356 H 0.44459 0.11543 0.61561 0.0
H357 H 0.34567 0.09428 0.62135 0.0
H358 H 0.45284 0.19179 0.59678 0.0
H359 H 0.38439 0.21727 0.61856 0.0
H360 H 0.38858 0.01591 0.56982 0.0
H361 H 0.44165 0.09021 0.64886 0.0
H362 H 0.34125 0.06936 0.65514 0.0
C363 C 0.82615 0.20674 0.61111 0.0
C364 C 0.79229 0.19193 0.61256 0.0
N365 N 0.78253 0.20946 0.60115 0.0
N366 N 0.83742 0.2333 0.5988 0.0
C367 C 0.81027 0.23409 0.59286 0.0
H368 H 0.84158 0.19869 0.61848 0.0
Co369 Co 0.88059 0.2617 0.59096 0.0
C370 C 0.87473 0.31416 0.5697 0.0
O371 O 0.89108 0.313 0.5537 0.0
N372 N 0.92418 0.29045 0.58318 0.0
C373 C 0.97336 0.33543 0.58013 0.0
C374 C 0.94208 0.32285 0.58777 0.0
C375 C 0.94527 0.28382 0.573 0.0
N376 N 0.97544 0.31085 0.57084 0.0
O377 O 0.86943 0.24473 0.56391 0.0
H378 H 0.93297 0.33652 0.5962 0.0
H379 H 0.93879 0.2595 0.56764 0.0
O380 O 0.86948 0.29513 0.58487 0.0
C381 C 0.86984 0.218 0.56138 0.0
O382 O 0.87979 0.20678 0.57659 0.0
N383 N 0.89142 0.27655 0.61772 0.0
C384 C 0.91936 0.30259 0.65551 0.0
C385 C 0.89682 0.31033 0.64659 0.0
C386 C 0.88281 0.29678 0.62766 0.0
C387 C 0.91117 0.26674 0.62684 0.0
C388 C 0.92546 0.27948 0.64575 0.0
H389 H 0.86608 0.30355 0.62078 0.0
H390 H 0.917 0.25004 0.61888 0.0
H391 H 0.81059 0.25195 0.58223 0.0
H392 H 0.7762 0.17029 0.62148 0.0
H393 H 0.99285 0.36088 0.58113 0.0
H394 H 0.89119 0.3278 0.65369 0.0
H395 H 0.94186 0.27197 0.65239 0.0
H396 H 0.70185 0.16745 0.06404 0.0
H397 H 0.65361 0.17402 0.05798 0.0
H398 H 0.6054 0.11262 0.11052 0.0
H399 H 0.65193 0.1042 0.11549 0.0
H400 H 0.56246 0.09638 0.08381 0.0
H401 H 0.64925 0.20692 0.10745 0.0
H402 H 0.70215 0.25908 0.10415 0.0
H403 H 0.67387 0.27473 0.04459 0.0
H404 H 0.62083 0.22278 0.04759 0.0
H405 H 0.45472 0.14548 0.12419 0.0
H406 H 0.50022 0.13598 0.11661 0.0
H407 H 0.51529 0.18536 0.05864 0.0
H408 H 0.46931 0.19443 0.06586 0.0
H409 H 0.57296 0.20689 0.07927 0.0
H410 H 0.48268 0.10384 0.05902 0.0
H411 H 0.42838 0.05344 0.06214 0.0
H412 H 0.46235 0.0234 0.1144 0.0
H413 H 0.51674 0.07387 0.11178 0.0
C414 C 0.6807 0.15521 0.07409 0.0
C415 C 0.68042 0.13504 0.09006 0.0
C416 C 0.65326 0.15919 0.07077 0.0
C417 C 0.62575 0.14415 0.08394 0.0
C418 C 0.62592 0.12425 0.09995 0.0
C419 C 0.65266 0.11946 0.10282 0.0
C420 C 0.59655 0.14868 0.08158 0.0
C421 C 0.56492 0.12065 0.083 0.0
C422 C 0.59924 0.18006 0.07944 0.0
C423 C 0.63134 0.21087 0.07764 0.0
C424 C 0.65448 0.22141 0.09361 0.0
C425 C 0.68445 0.25094 0.09179 0.0
C426 C 0.69144 0.27008 0.0741 0.0
C427 C 0.66847 0.25983 0.05824 0.0
C428 C 0.63845 0.23041 0.06 0.0
C429 C 0.46726 0.15391 0.10968 0.0
C430 C 0.45816 0.17078 0.09569 0.0
C431 C 0.49338 0.1485 0.10538 0.0
C432 C 0.51098 0.15972 0.08697 0.0
C433 C 0.50205 0.17652 0.07294 0.0
C434 C 0.4758 0.18183 0.07718 0.0
C435 C 0.53943 0.15485 0.08288 0.0
C436 C 0.57065 0.18267 0.07996 0.0
C437 C 0.53639 0.1233 0.08368 0.0
C438 C 0.50375 0.09278 0.08526 0.0
C439 C 0.47851 0.08661 0.07126 0.0
C440 C 0.44772 0.058 0.07293 0.0
C441 C 0.4419 0.03526 0.08848 0.0
C442 C 0.46689 0.04105 0.10236 0.0
C443 C 0.49773 0.06963 0.10078 0.0
H444 H 0.41804 0.01313 0.08974 0.0
H445 H 0.71451 0.29294 0.07268 0.0
H446 H 0.75833 0.26649 0.09934 0.0
H447 H 0.76341 0.3199 0.09078 0.0
H448 H 0.86722 0.36871 0.10461 0.0
H449 H 0.86193 0.31576 0.11402 0.0
H450 H 0.84151 0.40111 0.12093 0.0
H451 H 0.83701 0.35541 0.05474 0.0
H452 H 0.81377 0.31332 0.02759 0.0
H453 H 0.72627 0.32108 0.02627 0.0
H454 H 0.74867 0.36272 0.05371 0.0
H455 H 0.8607 0.54236 0.05163 0.0
H456 H 0.85393 0.48702 0.05427 0.0
H457 H 0.79304 0.46773 0.10774 0.0
H458 H 0.79979 0.52272 0.10532 0.0
H459 H 0.80127 0.42231 0.05567 0.0
H460 H 0.81817 0.43244 0.1435 0.0
H461 H 0.84415 0.4757 0.16985 0.0
H462 H 0.91373 0.54159 0.12565 0.0
H463 H 0.8886 0.49854 0.09916 0.0
C464 C 0.78219 0.28865 0.10038 0.0
C465 C 0.80967 0.2871 0.10743 0.0
C466 C 0.78511 0.31904 0.09537 0.0
C467 C 0.81574 0.34822 0.09672 0.0
C468 C 0.84331 0.34656 0.10348 0.0
C469 C 0.84027 0.31633 0.10886 0.0
C470 C 0.81891 0.38066 0.09183 0.0
C471 C 0.83275 0.40568 0.10663 0.0
C472 C 0.80784 0.38685 0.07307 0.0
C473 C 0.79443 0.362 0.05642 0.0
C474 C 0.8127 0.34796 0.04877 0.0
C475 C 0.79967 0.32417 0.03333 0.0
C476 C 0.76851 0.31444 0.02526 0.0
C477 C 0.75037 0.32858 0.03256 0.0
C478 C 0.76323 0.35229 0.04806 0.0
C479 C 0.84544 0.52609 0.06373 0.0
C480 C 0.8313 0.53707 0.07849 0.0
C481 C 0.84156 0.49451 0.06519 0.0
C482 C 0.82349 0.47359 0.08142 0.0
C483 C 0.80757 0.48375 0.09533 0.0
C484 C 0.81154 0.51521 0.09394 0.0
C485 C 0.82332 0.44226 0.0849 0.0
C486 C 0.81005 0.41758 0.0699 0.0
C487 C 0.83541 0.43648 0.10334 0.0
C488 C 0.85129 0.46231 0.1193 0.0
C489 C 0.83914 0.45609 0.13944 0.0
C490 C 0.85371 0.48058 0.15439 0.0
C491 C 0.88055 0.51138 0.14942 0.0
C492 C 0.89291 0.51773 0.12948 0.0
C493 C 0.87851 0.49329 0.11449 0.0
H494 H 0.89182 0.53028 0.16103 0.0
H495 H 0.75846 0.29602 0.01331 0.0
H496 H 0.68562 0.56391 0.12171 0.0
H497 H 0.63236 0.51543 0.11305 0.0
H498 H 0.68287 0.46588 0.09065 0.0
H499 H 0.73568 0.51399 0.09907 0.0
H500 H 0.63658 0.45739 0.06475 0.0
H501 H 0.64448 0.4485 0.13775 0.0
H502 H 0.65035 0.46674 0.17364 0.0
H503 H 0.56273 0.47384 0.16839 0.0
H504 H 0.55664 0.45613 0.13235 0.0
H505 H 0.4859 0.29014 0.09827 0.0
H506 H 0.53829 0.34036 0.10447 0.0
H507 H 0.51841 0.3885 0.05477 0.0
H508 H 0.4658 0.33807 0.04838 0.0
H509 H 0.54819 0.39908 0.11617 0.0
H510 H 0.59291 0.44682 0.03432 0.0
H511 H 0.58894 0.42492 -0.00053 0.0
H512 H 0.57497 0.33395 0.02434 0.0
H513 H 0.57927 0.35545 0.0593 0.0
C514 C 0.68521 0.54256 0.11506 0.0
C515 C 0.71479 0.54284 0.11093 0.0
C516 C 0.65485 0.51492 0.11009 0.0
C517 C 0.65363 0.48699 0.1012 0.0
C518 C 0.68318 0.48724 0.09727 0.0
C519 C 0.71338 0.5148 0.10208 0.0
C520 C 0.62178 0.45725 0.09599 0.0
C521 C 0.61718 0.44476 0.07598 0.0
C522 C 0.59657 0.44053 0.11066 0.0
C523 C 0.60035 0.45139 0.13228 0.0
C524 C 0.62665 0.45426 0.14419 0.0
C525 C 0.62998 0.46446 0.16457 0.0
C526 C 0.607 0.47156 0.17327 0.0
C527 C 0.58057 0.46842 0.16161 0.0
C528 C 0.57717 0.45831 0.14121 0.0
C529 C 0.49275 0.31131 0.08854 0.0
C530 C 0.47161 0.31022 0.07292 0.0
C531 C 0.52267 0.34003 0.09215 0.0
C532 C 0.53219 0.36822 0.08017 0.0
C533 C 0.51165 0.36694 0.06412 0.0
C534 C 0.48164 0.33809 0.06045 0.0
C535 C 0.56316 0.39912 0.08501 0.0
C536 C 0.56748 0.41192 0.1049 0.0
C537 C 0.58839 0.41572 0.07037 0.0
C538 C 0.58602 0.40262 0.04941 0.0
C539 C 0.58906 0.42217 0.03233 0.0
C540 C 0.58675 0.40983 0.01257 0.0
C541 C 0.58158 0.37802 0.00969 0.0
C542 C 0.57883 0.35853 0.02658 0.0
C543 C 0.58115 0.37076 0.04638 0.0
H544 H 0.57979 0.36851 0.99438 0.0
H545 H 0.6096 0.47941 0.18905 0.0
H546 H 0.15018 0.41997 0.39709 0.0
H547 H 0.13603 0.46217 0.40568 0.0
H548 H 0.23933 0.53622 0.40506 0.0
H549 H 0.25345 0.49364 0.39771 0.0
H550 H 0.21393 0.54936 0.43461 0.0
H551 H 0.18213 0.52416 0.3646 0.0
H552 H 0.154 0.48929 0.33468 0.0
H553 H 0.05995 0.45832 0.36255 0.0
H554 H 0.08756 0.49269 0.39276 0.0
H555 H 0.18684 0.68556 0.40885 0.0
H556 H 0.20004 0.64119 0.40668 0.0
H557 H 0.1118 0.57689 0.44047 0.0
H558 H 0.09892 0.62154 0.44331 0.0
H559 H 0.12766 0.55838 0.39597 0.0
H560 H 0.16552 0.58998 0.466 0.0
H561 H 0.19827 0.63031 0.49272 0.0
H562 H 0.28733 0.65599 0.45988 0.0
H563 H 0.25503 0.61611 0.4328 0.0
C564 C 0.16978 0.44529 0.39872 0.0
C565 C 0.20288 0.45355 0.39677 0.0
C566 C 0.16171 0.46946 0.40354 0.0
C567 C 0.18655 0.50262 0.4057 0.0
C568 C 0.21966 0.51087 0.40359 0.0
C569 C 0.22774 0.48656 0.39932 0.0
C570 C 0.17819 0.52873 0.41022 0.0
C571 C 0.19524 0.55137 0.42599 0.0
C572 C 0.15362 0.53146 0.39916 0.0
C573 C 0.13693 0.51071 0.38104 0.0
C574 C 0.15546 0.50971 0.36441 0.0
C575 C 0.13961 0.49007 0.34739 0.0
C576 C 0.10522 0.47152 0.34674 0.0
C577 C 0.0866 0.47265 0.36309 0.0
C578 C 0.10233 0.49222 0.38016 0.0
C579 C 0.17053 0.66212 0.4161 0.0
C580 C 0.14188 0.65692 0.42627 0.0
C581 C 0.17812 0.6369 0.41486 0.0
C582 C 0.15688 0.60596 0.42345 0.0
C583 C 0.1285 0.60076 0.43386 0.0
C584 C 0.12128 0.62625 0.43553 0.0
C585 C 0.16332 0.57851 0.42022 0.0
C586 C 0.14606 0.55589 0.40462 0.0
C587 C 0.18834 0.57645 0.43097 0.0
C588 C 0.2078 0.60034 0.44726 0.0
C589 C 0.19204 0.60449 0.46436 0.0
C590 C 0.21054 0.6272 0.4796 0.0
C591 C 0.24484 0.64576 0.47797 0.0
C592 C 0.26075 0.64162 0.46111 0.0
C593 C 0.24235 0.61894 0.44582 0.0
H594 H 0.25909 0.66324 0.48983 0.0
H595 H 0.09299 0.45634 0.33354 0.0
H596 H 0.58755 0.72264 0.40361 0.0
H597 H 0.54279 0.66664 0.41093 0.0
H598 H 0.47274 0.69086 0.38493 0.0
H599 H 0.51741 0.74733 0.37886 0.0
H600 H 0.44778 0.65959 0.41712 0.0
H601 H 0.49953 0.63894 0.36063 0.0
H602 H 0.54483 0.64042 0.34057 0.0
H603 H 0.56181 0.58731 0.38803 0.0
H604 H 0.51686 0.58587 0.4085 0.0
H605 H 0.31856 0.49279 0.40026 0.0
H606 H 0.36376 0.54955 0.39623 0.0
H607 H 0.4213 0.53166 0.44045 0.0
H608 H 0.37587 0.47489 0.44487 0.0
H609 H 0.45244 0.55868 0.40052 0.0
H610 H 0.39463 0.57782 0.45529 0.0
H611 H 0.34559 0.57441 0.47165 0.0
H612 H 0.33579 0.62876 0.42193 0.0
H613 H 0.38453 0.63209 0.40511 0.0
C614 C 0.56261 0.71565 0.39923 0.0
C615 C 0.55574 0.73895 0.39057 0.0
C616 C 0.53703 0.68369 0.40335 0.0
C617 C 0.50427 0.67421 0.39826 0.0
C618 C 0.49768 0.69746 0.38911 0.0
C619 C 0.52313 0.7296 0.3855 0.0
C620 C 0.4767 0.6406 0.40317 0.0
C621 C 0.44875 0.63758 0.41321 0.0
C622 C 0.47793 0.6117 0.39843 0.0
C623 C 0.50506 0.61262 0.3862 0.0
C624 C 0.5131 0.62781 0.36686 0.0
C625 C 0.53868 0.6286 0.3554 0.0
C626 C 0.55625 0.61406 0.36305 0.0
C627 C 0.54822 0.59862 0.38215 0.0
C628 C 0.52268 0.59778 0.39368 0.0
C629 C 0.34067 0.50109 0.40934 0.0
C630 C 0.34376 0.47949 0.42288 0.0
C631 C 0.36639 0.53347 0.40704 0.0
C632 C 0.39575 0.54464 0.41805 0.0
C633 C 0.39874 0.52337 0.43186 0.0
C634 C 0.37275 0.49109 0.43444 0.0
C635 C 0.4239 0.57802 0.41426 0.0
C636 C 0.4518 0.58087 0.40443 0.0
C637 C 0.42221 0.60666 0.41864 0.0
C638 C 0.39309 0.60495 0.42885 0.0
C639 C 0.38187 0.58881 0.44776 0.0
C640 C 0.35415 0.58694 0.45713 0.0
C641 C 0.33753 0.60129 0.44781 0.0
C642 C 0.34867 0.61763 0.42912 0.0
C643 C 0.37637 0.61955 0.41968 0.0
H644 H 0.31607 0.59981 0.45508 0.0
H645 H 0.57604 0.61468 0.35415 0.0
H646 H 0.51572 0.81591 0.39836 0.0
H647 H 0.45843 0.80269 0.396 0.0
H648 H 0.46947 0.85629 0.45184 0.0
H649 H 0.52681 0.86907 0.45456 0.0
H650 H 0.41023 0.80142 0.4503 0.0
H651 H 0.47654 0.8921 0.40533 0.0
H652 H 0.51717 0.91936 0.37771 0.0
H653 H 0.45251 0.84509 0.33529 0.0
H654 H 0.41173 0.81704 0.36276 0.0
H655 H 0.28749 0.84755 0.39795 0.0
H656 H 0.34302 0.85813 0.40572 0.0
H657 H 0.30361 0.75504 0.41947 0.0
H658 H 0.24814 0.74447 0.41201 0.0
H659 H 0.3779 0.83663 0.38706 0.0
H660 H 0.34131 0.74058 0.44839 0.0
H661 H 0.30728 0.71839 0.47949 0.0
H662 H 0.31984 0.81385 0.49263 0.0
H663 H 0.35253 0.83608 0.46108 0.0
C664 C 0.50592 0.82468 0.41025 0.0
C665 C 0.52591 0.84391 0.42653 0.0
C666 C 0.47317 0.81713 0.40885 0.0
C667 C 0.4599 0.8291 0.4235 0.0
C668 C 0.47929 0.84695 0.44031 0.0
C669 C 0.51205 0.85426 0.44183 0.0
C670 C 0.42637 0.82433 0.42079 0.0
C671 C 0.40317 0.80908 0.43645 0.0
C672 C 0.41726 0.8348 0.40286 0.0
C673 C 0.44118 0.85234 0.38614 0.0
C674 C 0.47103 0.88153 0.39012 0.0
C675 C 0.4941 0.8971 0.3745 0.0
C676 C 0.48746 0.88393 0.35476 0.0
C677 C 0.45764 0.85525 0.35059 0.0
C678 C 0.43452 0.83951 0.36618 0.0
C679 C 0.29066 0.82717 0.40268 0.0
C680 C 0.26336 0.79517 0.40434 0.0
C681 C 0.3224 0.83326 0.40723 0.0
C682 C 0.32756 0.80748 0.41344 0.0
C683 C 0.30029 0.77554 0.41526 0.0
C684 C 0.26852 0.76949 0.41088 0.0
C685 C 0.36161 0.81359 0.41659 0.0
C686 C 0.38493 0.82897 0.40091 0.0
C687 C 0.37108 0.80379 0.43461 0.0
C688 C 0.34886 0.78979 0.45235 0.0
C689 C 0.33624 0.7566 0.45777 0.0
C690 C 0.31705 0.74399 0.47539 0.0
C691 C 0.31098 0.76457 0.4879 0.0
C692 C 0.32396 0.79775 0.48273 0.0
C693 C 0.34248 0.81029 0.46487 0.0
H694 H 0.29645 0.75488 0.50167 0.0
H695 H 0.5054 0.89596 0.3427 0.0
H696 H 0.26589 0.78418 0.89743 0.0
H697 H 0.31268 0.77465 0.89486 0.0
H698 H 0.36538 0.85025 0.93995 0.0
H699 H 0.31855 0.8596 0.94287 0.0
H700 H 0.3962 0.85803 0.89944 0.0
H701 H 0.34215 0.77873 0.95321 0.0
H702 H 0.29673 0.72937 0.96934 0.0
H703 H 0.30203 0.6685 0.92222 0.0
H704 H 0.34672 0.7176 0.90528 0.0
H705 H 0.54475 0.85926 0.90888 0.0
H706 H 0.49233 0.85668 0.91573 0.0
H707 H 0.44058 0.76188 0.88584 0.0
H708 H 0.49335 0.76391 0.87982 0.0
H709 H 0.4067 0.76074 0.91727 0.0
H710 H 0.45499 0.83526 0.86179 0.0
H711 H 0.49807 0.88249 0.84256 0.0
H712 H 0.50053 0.94895 0.88866 0.0
H713 H 0.45775 0.90207 0.90832 0.0
C714 C 0.28722 0.79831 0.90709 0.0
C715 C 0.28874 0.82281 0.92026 0.0
C716 C 0.31378 0.79271 0.90567 0.0
C717 C 0.34233 0.81173 0.91723 0.0
C718 C 0.3434 0.83525 0.93098 0.0
C719 C 0.31665 0.8405 0.93267 0.0
C720 C 0.37244 0.80991 0.91327 0.0
C721 C 0.39873 0.83696 0.90359 0.0
C722 C 0.37483 0.78164 0.91778 0.0
C723 C 0.34754 0.75205 0.92777 0.0
C724 C 0.33329 0.75493 0.94604 0.0
C725 C 0.3077 0.72694 0.95536 0.0
C726 C 0.29643 0.69583 0.94675 0.0
C727 C 0.31079 0.69262 0.92883 0.0
C728 C 0.33616 0.72056 0.91931 0.0
C729 C 0.52219 0.83799 0.90367 0.0
C730 C 0.52302 0.81204 0.89351 0.0
C731 C 0.49222 0.83651 0.90756 0.0
C732 C 0.46248 0.80949 0.90082 0.0
C733 C 0.46318 0.78309 0.89108 0.0
C734 C 0.49324 0.78427 0.88757 0.0
C735 C 0.4309 0.80926 0.90379 0.0
C736 C 0.40421 0.7818 0.91308 0.0
C737 C 0.42763 0.83678 0.8984 0.0
C738 C 0.45335 0.8651 0.88661 0.0
C739 C 0.46488 0.85993 0.8679 0.0
C740 C 0.48922 0.88664 0.85691 0.0
C741 C 0.50208 0.91869 0.86441 0.0
C742 C 0.49056 0.9241 0.88288 0.0
C743 C 0.46624 0.89747 0.89394 0.0
H744 H 0.52093 0.93934 0.85588 0.0
H745 H 0.27662 0.67418 0.95398 0.0
H746 H 0.17207 0.4765 0.93097 0.0
H747 H 0.18101 0.532 0.93681 0.0
H748 H 0.08378 0.50122 0.91326 0.0
H749 H 0.07431 0.44588 0.90814 0.0
H750 H 0.18629 0.57322 0.90984 0.0
H751 H 0.05244 0.54623 0.92903 0.0
H752 H 0.00545 0.507 0.95012 0.0
H753 H 0.07068 0.49047 0.98795 0.0
H754 H 0.11818 0.53006 0.96735 0.0
H755 H 0.15362 0.68931 0.86641 0.0
H756 H 0.14833 0.63737 0.87839 0.0
H757 H 0.15009 0.66745 0.94092 0.0
H758 H 0.15523 0.71946 0.92897 0.0
H759 H 0.10357 0.60187 0.93454 0.0
H760 H 0.21633 0.67402 0.92395 0.0
H761 H 0.26657 0.71532 0.9063 0.0
H762 H 0.25064 0.64539 0.85896 0.0
H763 H 0.19964 0.60391 0.87597 0.0
C764 C 0.15231 0.48139 0.92753 0.0
C765 C 0.12259 0.45682 0.91892 0.0
C766 C 0.15749 0.51316 0.93082 0.0
C767 C 0.13306 0.52089 0.92556 0.0
C768 C 0.10281 0.49588 0.9179 0.0
C769 C 0.09748 0.46413 0.91484 0.0
C770 C 0.14012 0.55557 0.92575 0.0
C771 C 0.16834 0.57951 0.91546 0.0
C772 C 0.11735 0.56426 0.93371 0.0
C773 C 0.08892 0.54107 0.94654 0.0
C774 C 0.05684 0.53448 0.94195 0.0
C775 C 0.03009 0.51211 0.95381 0.0
C776 C 0.03507 0.49621 0.97034 0.0
C777 C 0.06685 0.50275 0.97511 0.0
C778 C 0.09369 0.52515 0.96334 0.0
C779 C 0.1523 0.6846 0.88268 0.0
C780 C 0.15497 0.70844 0.89676 0.0
C781 C 0.14959 0.6551 0.88952 0.0
C782 C 0.14927 0.64883 0.91054 0.0
C783 C 0.15047 0.67193 0.92464 0.0
C784 C 0.15355 0.70162 0.9178 0.0
C785 C 0.14852 0.61843 0.91759 0.0
C786 C 0.12166 0.59554 0.92927 0.0
C787 C 0.17312 0.61105 0.91156 0.0
C788 C 0.20388 0.63588 0.90118 0.0
C789 C 0.22326 0.66752 0.90964 0.0
C790 C 0.2519 0.691 0.89974 0.0
C791 C 0.26184 0.683 0.88152 0.0
C792 C 0.24297 0.65155 0.87309 0.0
C793 C 0.21412 0.62805 0.88285 0.0
H794 H 0.28418 0.70114 0.87397 0.0
H795 H 0.01431 0.47883 0.97946 0.0
H796 H 0.52594 0.73415 0.92824 0.0
H797 H 0.46628 0.69789 0.93197 0.0
H798 H 0.47752 0.61342 0.91989 0.0
H799 H 0.53679 0.64926 0.91669 0.0
H800 H 0.42336 0.66244 0.9057 0.0
H801 H 0.4196 0.54454 0.93962 0.0
H802 H 0.44934 0.53126 0.96557 0.0
H803 H 0.48058 0.62404 0.99524 0.0
H804 H 0.45063 0.63771 0.96966 0.0
H805 H 0.29505 0.51538 0.8677 0.0
H806 H 0.34528 0.56369 0.87944 0.0
H807 H 0.31056 0.54175 0.94172 0.0
H808 H 0.26049 0.49247 0.93004 0.0
H809 H 0.37064 0.55354 0.94018 0.0
H810 H 0.31787 0.60959 0.91693 0.0
H811 H 0.28626 0.62583 0.89439 0.0
H812 H 0.36416 0.66243 0.85 0.0
H813 H 0.3958 0.64541 0.8719 0.0
C814 C 0.51564 0.70779 0.92665 0.0
C815 C 0.53606 0.69459 0.92204 0.0
C816 C 0.48155 0.68708 0.92881 0.0
C817 C 0.46724 0.65279 0.92641 0.0
C818 C 0.48784 0.63963 0.92236 0.0
C819 C 0.52186 0.66023 0.92044 0.0
C820 C 0.43076 0.63082 0.9263 0.0
C821 C 0.41176 0.63875 0.91339 0.0
C822 C 0.41517 0.60048 0.93703 0.0
C823 C 0.43295 0.59221 0.95263 0.0
C824 C 0.43261 0.56203 0.95175 0.0
C825 C 0.44956 0.55446 0.96639 0.0
C826 C 0.46688 0.57682 0.98202 0.0
C827 C 0.46723 0.60678 0.98309 0.0
C828 C 0.4503 0.61447 0.96851 0.0
C829 C 0.298 0.52079 0.88389 0.0
C830 C 0.27384 0.49978 0.89793 0.0
C831 C 0.32659 0.54877 0.89058 0.0
C832 C 0.33166 0.55664 0.91147 0.0
C833 C 0.30717 0.53627 0.92551 0.0
C834 C 0.27845 0.50819 0.9188 0.0
C835 C 0.36387 0.5843 0.91852 0.0
C836 C 0.38205 0.57747 0.9328 0.0
C837 C 0.37836 0.61605 0.90954 0.0
C838 C 0.35922 0.62602 0.89609 0.0
C839 C 0.32816 0.62076 0.90227 0.0
C840 C 0.31022 0.63014 0.8896 0.0
C841 C 0.32324 0.64524 0.87081 0.0
C842 C 0.35413 0.65079 0.86458 0.0
C843 C 0.37206 0.64122 0.87711 0.0
H844 H 0.30942 0.65265 0.86107 0.0
H845 H 0.48001 0.57091 0.99333 0.0
H846 H 0.86058 0.57956 0.60651 0.0
H847 H 0.8772 0.53857 0.59838 0.0
H848 H 0.77797 0.46018 0.60997 0.0
H849 H 0.76113 0.50103 0.61737 0.0
H850 H 0.84117 0.45943 0.62864 0.0
H851 H 0.78518 0.46784 0.56748 0.0
H852 H 0.77749 0.49815 0.53921 0.0
H853 H 0.87671 0.53271 0.51904 0.0
H854 H 0.88527 0.50328 0.54757 0.0
H855 H 0.82571 0.31253 0.59267 0.0
H856 H 0.8158 0.35795 0.59981 0.0
H857 H 0.89617 0.42124 0.55981 0.0
H858 H 0.90525 0.37521 0.55191 0.0
H859 H 0.84922 0.43488 0.55572 0.0
H860 H 0.90498 0.42288 0.61281 0.0
H861 H 0.91595 0.39429 0.64073 0.0
H862 H 0.82382 0.37022 0.66894 0.0
H863 H 0.81197 0.39813 0.64099 0.0
C864 C 0.84257 0.55356 0.60758 0.0
C865 C 0.80964 0.54326 0.61252 0.0
C866 C 0.85198 0.53028 0.60286 0.0
C867 C 0.8287 0.49651 0.6035 0.0
C868 C 0.79619 0.4862 0.60936 0.0
C869 C 0.78661 0.50941 0.61355 0.0
C870 C 0.83775 0.47173 0.59742 0.0
C871 C 0.84278 0.45382 0.61273 0.0
C872 C 0.84091 0.46544 0.57666 0.0
C873 C 0.83603 0.48381 0.55986 0.0
C874 C 0.80555 0.48238 0.55725 0.0
C875 C 0.80098 0.49926 0.54112 0.0
C876 C 0.82658 0.5173 0.52732 0.0
C877 C 0.85687 0.51864 0.5297 0.0
C878 C 0.86163 0.50197 0.54589 0.0
C879 C 0.84098 0.33602 0.58518 0.0
C880 C 0.86637 0.34046 0.57183 0.0
C881 C 0.83549 0.36205 0.58941 0.0
C882 C 0.85588 0.39332 0.58084 0.0
C883 C 0.8803 0.39742 0.56674 0.0
C884 C 0.88542 0.37111 0.56219 0.0
C885 C 0.85195 0.42171 0.58696 0.0
C886 C 0.84801 0.44051 0.57168 0.0
C887 C 0.85041 0.42923 0.60781 0.0
C888 C 0.85749 0.41245 0.62471 0.0
C889 C 0.88693 0.4113 0.62489 0.0
C890 C 0.89333 0.39522 0.64073 0.0
C891 C 0.8706 0.38047 0.6566 0.0
C892 C 0.84141 0.38169 0.65664 0.0
C893 C 0.83485 0.39765 0.64081 0.0
H894 H 0.87563 0.36815 0.6689 0.0
H895 H 0.82295 0.53025 0.5148 0.0
H896 H 0.63939 0.50707 0.55404 0.0
H897 H 0.59476 0.45025 0.55962 0.0
H898 H 0.64905 0.44007 0.60956 0.0
H899 H 0.69332 0.49721 0.60454 0.0
H900 H 0.61243 0.38263 0.57577 0.0
H901 H 0.60145 0.45247 0.62741 0.0
H902 H 0.59942 0.50226 0.63722 0.0
H903 H 0.5167 0.47385 0.59732 0.0
H904 H 0.51872 0.42419 0.58696 0.0
H905 H 0.48985 0.23808 0.6218 0.0
H906 H 0.5362 0.2941 0.6173 0.0
H907 H 0.47053 0.32342 0.59049 0.0
H908 H 0.42386 0.2678 0.59636 0.0
H909 H 0.51394 0.37185 0.61148 0.0
H910 H 0.52018 0.30086 0.56128 0.0
H911 H 0.52109 0.2514 0.54928 0.0
H912 H 0.61073 0.28137 0.5825 0.0
H913 H 0.61004 0.33076 0.59501 0.0
C914 C 0.64202 0.49255 0.566 0.0
C915 C 0.66967 0.5065 0.57892 0.0
C916 C 0.61657 0.46019 0.56916 0.0
C917 C 0.61878 0.44117 0.58497 0.0
C918 C 0.64708 0.45445 0.59724 0.0
C919 C 0.67218 0.48705 0.59441 0.0
C920 C 0.59035 0.40846 0.58979 0.0
C921 C 0.59099 0.38008 0.58377 0.0
C922 C 0.56219 0.40547 0.59968 0.0
C923 C 0.56048 0.43487 0.60624 0.0
C924 C 0.58304 0.45701 0.62059 0.0
C925 C 0.58186 0.48518 0.62627 0.0
C926 C 0.558 0.49126 0.61786 0.0
C927 C 0.5352 0.46913 0.6038 0.0
C928 C 0.53635 0.44098 0.59802 0.0
C929 C 0.48539 0.25676 0.61528 0.0
C930 C 0.45352 0.24876 0.6092 0.0
C931 C 0.51184 0.28862 0.61253 0.0
C932 C 0.5071 0.31276 0.60292 0.0
C933 C 0.47491 0.3052 0.59778 0.0
C934 C 0.44827 0.27349 0.6011 0.0
C935 C 0.53578 0.34545 0.59766 0.0
C936 C 0.53524 0.37404 0.60349 0.0
C937 C 0.56381 0.34854 0.58726 0.0
C938 C 0.5649 0.3194 0.57923 0.0
C939 C 0.54002 0.29685 0.5661 0.0
C940 C 0.54048 0.26881 0.55922 0.0
C941 C 0.56591 0.26322 0.56517 0.0
C942 C 0.59102 0.28573 0.57793 0.0
C943 C 0.59063 0.31378 0.58491 0.0
H944 H 0.56621 0.24148 0.55985 0.0
H945 H 0.55712 0.51308 0.62227 0.0
H946 H 0.72603 0.15048 0.5999 0.0
H947 H 0.6705 0.14093 0.59308 0.0
H948 H 0.70913 0.24602 0.58987 0.0
H949 H 0.76457 0.25548 0.59608 0.0
H950 H 0.63051 0.15466 0.61164 0.0
H951 H 0.66669 0.26542 0.55779 0.0
H952 H 0.7107 0.29973 0.53325 0.0
H953 H 0.72761 0.21916 0.52155 0.0
H954 H 0.68324 0.18429 0.54577 0.0
H955 H 0.49304 0.17367 0.60024 0.0
H956 H 0.5508 0.18964 0.60424 0.0
H957 H 0.5508 0.15206 0.54403 0.0
H958 H 0.49293 0.13679 0.5396 0.0
H959 H 0.60926 0.20795 0.55253 0.0
H960 H 0.53706 0.10397 0.58487 0.0
H961 H 0.49131 0.06767 0.60778 0.0
H962 H 0.54436 0.12791 0.65919 0.0
H963 H 0.5902 0.16494 0.63651 0.0
C964 C 0.72255 0.17147 0.59783 0.0
C965 C 0.74961 0.20368 0.59825 0.0
C966 C 0.69086 0.16604 0.59392 0.0
C967 C 0.68567 0.19274 0.5905 0.0
C968 C 0.71257 0.22497 0.59176 0.0
C969 C 0.74425 0.23037 0.59537 0.0
C970 C 0.65214 0.18688 0.58571 0.0
C971 C 0.62595 0.16628 0.59868 0.0
C972 C 0.64594 0.20182 0.56871 0.0
C973 C 0.67202 0.2224 0.55376 0.0
C974 C 0.67972 0.25501 0.54991 0.0
C975 C 0.70471 0.27456 0.53606 0.0
C976 C 0.72203 0.26167 0.52591 0.0
C977 C 0.71427 0.22916 0.52948 0.0
C978 C 0.68926 0.20952 0.54327 0.0
C979 C 0.50537 0.16922 0.58768 0.0
C980 C 0.48826 0.15349 0.56969 0.0
C981 C 0.5384 0.17833 0.59003 0.0
C982 C 0.55481 0.17134 0.57462 0.0
C983 C 0.53846 0.15749 0.55615 0.0
C984 C 0.5054 0.14867 0.55367 0.0
C985 C 0.58799 0.17598 0.57851 0.0
C986 C 0.61399 0.19636 0.56544 0.0
C987 C 0.59391 0.16033 0.59518 0.0
C988 C 0.56697 0.13735 0.60897 0.0
C989 C 0.53893 0.10953 0.60105 0.0
C990 C 0.51296 0.08885 0.61399 0.0
C991 C 0.5149 0.09551 0.63492 0.0
C992 C 0.54289 0.12279 0.64297 0.0
C993 C 0.56888 0.14363 0.63008 0.0
H994 H 0.49474 0.07951 0.64491 0.0
H995 H 0.74141 0.27686 0.51523 0.0
H996 H 0.38256 0.192 0.02868 0.0
H997 H 0.36662 0.15293 5e-05 0.0
H998 H 0.27769 0.08506 0.0321 0.0
H999 H 0.29316 0.12353 0.06046 0.0
H1000 H 0.31387 0.05677 0.01922 0.0
H1001 H 0.27287 0.1252 0.99211 0.0
H1002 H 0.27757 0.17774 0.98112 0.0
H1003 H 0.34991 0.19021 0.93629 0.0
H1004 H 0.34601 0.13795 0.94724 0.0
H1005 H 0.22959 0.93273 0.94691 0.0
H1006 H 0.24159 0.97856 0.96983 0.0
H1007 H 0.3251 0.04364 0.93255 0.0
H1008 H 0.31256 0.99817 0.90916 0.0
H1009 H 0.29409 0.07519 0.94716 0.0
H1010 H 0.33563 0.00784 0.97348 0.0
H1011 H 0.33339 0.95648 0.98463 0.0
H1012 H 0.26388 0.9438 0.03153 0.0
H1013 H 0.26489 0.99457 0.02026 0.0
C1014 C 0.35945 0.16892 0.02946 0.0
C1015 C 0.33925 0.16076 0.04688 0.0
C1016 C 0.35036 0.14669 0.01312 0.0
C1017 C 0.32101 0.11612 0.01404 0.0
C1018 C 0.30049 0.10846 0.03115 0.0
C1019 C 0.30941 0.13056 0.04735 0.0
C1020 C 0.3123 0.09097 0.99789 0.0
C1021 C 0.30913 0.06063 0.00351 0.0
C1022 C 0.30717 0.09651 0.97732 0.0
C1023 C 0.30942 0.12784 0.97066 0.0
C1024 C 0.29 0.13929 0.98004 0.0
C1025 C 0.29248 0.16899 0.97379 0.0
C1026 C 0.3141 0.18735 0.95806 0.0
C1027 C 0.33321 0.17599 0.9485 0.0
C1028 C 0.33087 0.14632 0.95471 0.0
C1029 C 0.25001 0.95692 0.94329 0.0
C1030 C 0.27042 0.96168 0.92636 0.0
C1031 C 0.257 0.98306 0.95649 0.0
C1032 C 0.28462 0.01433 0.95308 0.0
C1033 C 0.30381 0.01965 0.93553 0.0
C1034 C 0.2968 0.99356 0.9223 0.0
C1035 C 0.29497 0.04071 0.96862 0.0
C1036 C 0.29872 0.07131 0.96288 0.0
C1037 C 0.30094 0.03557 0.98913 0.0
C1038 C 0.30004 0.00483 0.99585 0.0
C1039 C 0.31953 0.99389 0.986 0.0
C1040 C 0.31847 0.96487 0.99234 0.0
C1041 C 0.29832 0.94677 0.00869 0.0
C1042 C 0.27925 0.9577 0.01876 0.0
C1043 C 0.28003 0.98658 0.01239 0.0
H1044 H 0.29761 0.92436 0.01362 0.0
H1045 H 0.31597 0.21034 0.95324 0.0
H1046 H 0.81559 0.18603 0.04306 0.0
H1047 H 0.85336 0.21097 0.01406 0.0
H1048 H 0.93647 0.24134 0.05438 0.0
H1049 H 0.89914 0.21657 0.0833 0.0
H1050 H 0.94413 0.29095 0.02743 0.0
H1051 H 0.91228 0.17523 0.02573 0.0
H1052 H 0.87161 0.11578 0.0245 0.0
H1053 H 0.83482 0.129 0.96726 0.0
H1054 H 0.87498 0.18866 0.96831 0.0
H1055 H 0.07535 0.32665 0.95939 0.0
H1056 H 0.03398 0.30437 0.9866 0.0
H1057 H 0.95647 0.26677 0.94145 0.0
H1058 H 0.99763 0.28885 0.91426 0.0
H1059 H 0.94309 0.22172 0.96969 0.0
H1060 H 0.97488 0.33548 0.96947 0.0
H1061 H 0.01295 0.39556 0.97018 0.0
H1062 H 0.04692 0.3875 0.0297 0.0
H1063 H 0.00936 0.32727 0.02924 0.0
C1064 C 0.84191 0.19805 0.04572 0.0
C1065 C 0.85438 0.19918 0.06544 0.0
C1066 C 0.86342 0.21225 0.02916 0.0
C1067 C 0.89769 0.22788 0.03211 0.0
C1068 C 0.91012 0.22945 0.05181 0.0
C1069 C 0.88871 0.21509 0.06829 0.0
C1070 C 0.9208 0.24204 0.01467 0.0
C1071 C 0.94416 0.27583 0.01487 0.0
C1072 C 0.9201 0.2224 0.99804 0.0
C1073 C 0.8964 0.18645 0.99721 0.0
C1074 C 0.89537 0.16549 0.01295 0.0
C1075 C 0.87243 0.13176 0.01228 0.0
C1076 C 0.85057 0.11863 0.99584 0.0
C1077 C 0.85172 0.13921 0.98 0.0
C1078 C 0.87459 0.17298 0.98062 0.0
C1079 C 0.04951 0.31388 0.95528 0.0
C1080 C 0.0398 0.30951 0.93466 0.0
C1081 C 0.02587 0.30114 0.97084 0.0
C1082 C 0.99208 0.28417 0.96607 0.0
C1083 C 0.98236 0.27968 0.9455 0.0
C1084 C 0.00595 0.29223 0.92996 0.0
C1085 C 0.96686 0.2707 0.98252 0.0
C1086 C 0.94306 0.237 0.98214 0.0
C1087 C 0.96689 0.29054 -0.00114 0.0
C1088 C 0.98951 0.32679 -0.00076 0.0
C1089 C 0.99066 0.34647 0.98265 0.0
C1090 C 0.01211 0.38056 0.98301 0.0
C1091 C 0.0324 0.39533 -5e-05 0.0
C1092 C 0.03121 0.37602 0.01658 0.0
C1093 C 0.00982 0.34191 0.01628 0.0
H1094 H 0.04898 0.42173 0.0002 0.0
H1095 H 0.83279 0.09252 0.99537 0.0
H1096 H 0.79206 0.62119 0.04629 0.0
H1097 H 0.76789 0.63657 0.01814 0.0
H1098 H 0.81291 0.73587 0.04166 0.0
H1099 H 0.83611 0.7204 0.07003 0.0
H1100 H 0.75318 0.7173 0.03243 0.0
H1101 H 0.84197 0.71577 0.99846 0.0
H1102 H 0.87702 0.69317 0.98748 0.0
H1103 H 0.79527 0.61531 0.95526 0.0
H1104 H 0.75952 0.63712 0.96638 0.0
H1105 H 0.74161 0.76195 0.91843 0.0
H1106 H 0.76872 0.74792 0.94534 0.0
H1107 H 0.67724 0.69905 0.97904 0.0
H1108 H 0.65049 0.71425 0.95241 0.0
H1109 H 0.76232 0.69438 0.95942 0.0
H1110 H 0.6907 0.70335 0.0295 0.0
H1111 H 0.66373 0.73464 0.04023 0.0
H1112 H 0.7258 0.81336 -0.00057 0.0
H1113 H 0.75344 0.78276 0.98868 0.0
C1114 C 0.79699 0.64635 0.04531 0.0
C1115 C 0.81587 0.66957 0.06037 0.0
C1116 C 0.78323 0.65514 0.02921 0.0
C1117 C 0.78866 0.68745 0.02772 0.0
C1118 C 0.80814 0.71075 0.04254 0.0
C1119 C 0.82149 0.70189 0.05873 0.0
C1120 C 0.77335 0.69692 0.01112 0.0
C1121 C 0.75519 0.71225 0.01646 0.0
C1122 C 0.77658 0.6911 0.99024 0.0
C1123 C 0.79797 0.6779 0.98344 0.0
C1124 C 0.83138 0.69367 0.98917 0.0
C1125 C 0.8514 0.68102 0.9829 0.0
C1126 C 0.83838 0.65278 0.9707 0.0
C1127 C 0.80531 0.63716 0.96473 0.0
C1128 C 0.78516 0.64966 0.97102 0.0
C1129 C 0.72737 0.74825 0.93162 0.0
C1130 C 0.69404 0.73931 0.93345 0.0
C1131 C 0.74282 0.74016 0.94696 0.0
C1132 C 0.72517 0.72267 0.96436 0.0
C1133 C 0.69163 0.71319 0.96601 0.0
C1134 C 0.67633 0.72184 0.95083 0.0
C1135 C 0.74195 0.71455 0.98075 0.0
C1136 C 0.76028 0.69937 0.97538 0.0
C1137 C 0.74009 0.72179 0.00156 0.0
C1138 C 0.72388 0.74058 0.00813 0.0
C1139 C 0.69867 0.72739 0.02288 0.0
C1140 C 0.68326 0.745 0.02896 0.0
C1141 C 0.69297 0.77592 0.02046 0.0
C1142 C 0.71821 0.78936 0.00594 0.0
C1143 C 0.73374 0.77188 -0.00016 0.0
H1144 H 0.68098 0.78949 0.02517 0.0
H1145 H 0.85392 0.64305 0.96583 0.0
H1146 H 0.97601 0.26984 0.54159 0.0
H1147 H 0.02378 0.27626 0.52268 0.0
H1148 H 0.087 0.36445 0.55682 0.0
H1149 H 0.03963 0.35783 0.57623 0.0
H1150 H 0.09534 0.37279 0.51479 0.0
H1151 H 0.09161 0.29773 0.56596 0.0
H1152 H 0.06539 0.24718 0.58689 0.0
H1153 H 0.04289 0.18797 0.53272 0.0
H1154 H 0.06857 0.23816 0.51142 0.0
H1155 H 0.23746 0.39359 0.46403 0.0
H1156 H 0.20065 0.38574 0.49274 0.0
H1157 H 0.12885 0.29084 0.46856 0.0
H1158 H 0.16561 0.29812 0.44021 0.0
H1159 H 0.12949 0.28844 0.50916 0.0
H1160 H 0.12394 0.35927 0.45807 0.0
H1161 H 0.14661 0.40746 0.43525 0.0
H1162 H 0.18236 0.47228 0.48709 0.0
H1163 H 0.16017 0.42426 0.51029 0.0
C1164 C 1.00008 0.29026 0.54541 0.0
C1165 C 0.00379 0.31342 0.56041 0.0
C1166 C 0.02738 0.29392 0.53453 0.0
C1167 C 0.0589 0.32078 0.53842 0.0
C1168 C 0.06284 0.34361 0.55357 0.0
C1169 C 0.03563 0.33986 0.56455 0.0
C1170 C 0.0874 0.32604 0.52584 0.0
C1171 C 0.10332 0.3547 0.51389 0.0
C1172 C 0.0971 0.30198 0.5243 0.0
C1173 C 0.08181 0.27173 0.53708 0.0
C1174 C 0.08085 0.27393 0.55849 0.0
C1175 C 0.06613 0.24533 0.57043 0.0
C1176 C 0.05243 0.21438 0.56114 0.0
C1177 C 0.0535 0.21196 0.53989 0.0
C1178 C 0.06818 0.24048 0.52788 0.0
C1179 C 0.21408 0.37081 0.46504 0.0
C1180 C 0.20426 0.34665 0.44972 0.0
C1181 C 0.19304 0.3664 0.48141 0.0
C1182 C 0.16178 0.33794 0.48259 0.0
C1183 C 0.15281 0.31301 0.46795 0.0
C1184 C 0.17383 0.31732 0.45167 0.0
C1185 C 0.13723 0.33506 0.49798 0.0
C1186 C 0.12195 0.30682 0.51038 0.0
C1187 C 0.12768 0.35925 0.49972 0.0
C1188 C 0.14079 0.3882 0.48588 0.0
C1189 C 0.13685 0.3838 0.4646 0.0
C1190 C 0.1496 0.41111 0.45159 0.0
C1191 C 0.16608 0.44299 0.45968 0.0
C1192 C 0.16968 0.44758 0.48083 0.0
C1193 C 0.15701 0.42032 0.49393 0.0
H1194 H 0.17596 0.46411 0.44957 0.0
H1195 H 0.04103 0.19227 0.57041 0.0
H1196 H 0.61622 0.82519 0.46294 0.0
H1197 H 0.62615 0.79367 0.48907 0.0
H1198 H 0.72276 0.82638 0.46389 0.0
H1199 H 0.71315 0.85785 0.43783 0.0
H1200 H 0.6863 0.75935 0.46777 0.0
H1201 H 0.71599 0.85466 0.50912 0.0
H1202 H 0.70817 0.8979 0.52515 0.0
H1203 H 0.62319 0.82408 0.55725 0.0
H1204 H 0.63021 0.78033 0.54117 0.0
H1205 H 0.73912 0.68564 0.54118 0.0
H1206 H 0.73628 0.72736 0.52035 0.0
H1207 H 0.64254 0.7017 0.54753 0.0
H1208 H 0.64589 0.66103 0.5691 0.0
H1209 H 0.67924 0.7669 0.54308 0.0
H1210 H 0.647 0.67181 0.50061 0.0
H1211 H 0.65331 0.62776 0.48438 0.0
H1212 H 0.74112 0.70035 0.45398 0.0
H1213 H 0.73557 0.74486 0.47026 0.0
C1214 C 0.63978 0.82611 0.46319 0.0
C1215 C 0.66381 0.84385 0.44824 0.0
C1216 C 0.64544 0.80815 0.47814 0.0
C1217 C 0.67519 0.8077 0.47837 0.0
C1218 C 0.69962 0.82634 0.46393 0.0
C1219 C 0.69407 0.84438 0.44907 0.0
C1220 C 0.67997 0.78587 0.49262 0.0
C1221 C 0.6853 0.76135 0.48425 0.0
C1222 C 0.67772 0.78795 0.51407 0.0
C1223 C 0.67344 0.8142 0.52377 0.0
C1224 C 0.69545 0.84762 0.51945 0.0
C1225 C 0.6912 0.87223 0.52858 0.0
C1226 C 0.66514 0.86374 0.54217 0.0
C1227 C 0.64333 0.83061 0.5467 0.0
C1228 C 0.64746 0.8059 0.5376 0.0
C1229 C 0.71813 0.68916 0.54299 0.0
C1230 C 0.69257 0.66965 0.55671 0.0
C1231 C 0.71641 0.71286 0.53092 0.0
C1232 C 0.68894 0.71727 0.53215 0.0
C1233 C 0.6639 0.6986 0.54626 0.0
C1234 C 0.66568 0.67504 0.55841 0.0
C1235 C 0.68566 0.74044 0.51821 0.0
C1236 C 0.68046 0.76508 0.5266 0.0
C1237 C 0.68778 0.73837 0.49673 0.0
C1238 C 0.69106 0.71166 0.48682 0.0
C1239 C 0.66779 0.67838 0.49058 0.0
C1240 C 0.6712 0.65333 0.48135 0.0
C1241 C 0.69765 0.66125 0.4682 0.0
C1242 C 0.72068 0.69425 0.4642 0.0
C1243 C 0.7174 0.7194 0.47341 0.0
H1244 H 0.70026 0.64182 0.46107 0.0
H1245 H 0.6619 0.88283 0.54922 0.0
H1246 H 0.30543 0.02733 0.54001 0.0
H1247 H 0.26205 0.97887 0.52259 0.0
H1248 H 0.29238 0.91722 0.5538 0.0
H1249 H 0.33613 0.96579 0.57104 0.0
H1250 H 0.28377 0.9022 0.51482 0.0
H1251 H 0.21969 0.91632 0.56641 0.0
H1252 H 0.19948 0.94656 0.58714 0.0
H1253 H 0.16098 0.96752 0.5332 0.0
H1254 H 0.18135 0.93781 0.51209 0.0
H1255 H 0.15358 0.76162 0.46874 0.0
H1256 H 0.17948 0.79744 0.49835 0.0
H1257 H 0.17685 0.87731 0.46729 0.0
H1258 H 0.15004 0.84157 0.43804 0.0
H1259 H 0.16738 0.87638 0.51086 0.0
H1260 H 0.2542 0.88304 0.46157 0.0
H1261 H 0.26903 0.85028 0.43889 0.0
H1262 H 0.25697 0.78563 0.48884 0.0
H1263 H 0.24355 0.81894 0.51193 0.0
C1264 C 0.30255 0.0034 0.54337 0.0
C1265 C 0.32419 1.00036 0.55688 0.0
C1266 C 0.2777 0.97568 0.53344 0.0
C1267 C 0.27364 0.94428 0.53709 0.0
C1268 C 0.29503 0.94117 0.55074 0.0
C1269 C 0.32007 0.96894 0.56053 0.0
C1270 C 0.24817 0.91506 0.52585 0.0
C1271 C 0.25821 0.89619 0.51444 0.0
C1272 C 0.21479 0.9073 0.52499 0.0
C1273 C 0.20224 0.92499 0.53765 0.0
C1274 C 0.20709 0.92755 0.55894 0.0
C1275 C 0.19558 0.94458 0.57077 0.0
C1276 C 0.179 0.95899 0.56149 0.0
C1277 C 0.17383 0.95634 0.54037 0.0
C1278 C 0.18531 0.93937 0.52847 0.0
C1279 C 0.15788 0.7866 0.46841 0.0
C1280 C 0.15034 0.79897 0.45092 0.0
C1281 C 0.17266 0.80701 0.48531 0.0
C1282 C 0.18059 0.84015 0.4848 0.0
C1283 C 0.17091 0.8518 0.46798 0.0
C1284 C 0.15582 0.83136 0.4512 0.0
C1285 C 0.20321 0.864 0.50009 0.0
C1286 C 0.19279 0.88204 0.51191 0.0
C1287 C 0.23614 0.87097 0.50152 0.0
C1288 C 0.24833 0.8536 0.48845 0.0
C1289 C 0.25553 0.86228 0.46776 0.0
C1290 C 0.26368 0.84363 0.45485 0.0
C1291 C 0.2643 0.81606 0.46245 0.0
C1292 C 0.25707 0.8073 0.48303 0.0
C1293 C 0.24959 0.82627 0.49609 0.0
H1294 H 0.27023 0.8014 0.45241 0.0
H1295 H 0.17013 0.97218 0.57067 0.0
H1296 H 0.70565 0.00557 0.08219 0.0
H1297 H 0.68941 0.9655 0.05448 0.0
H1298 H 0.75045 0.04364 0.01251 0.0
H1299 H 0.76614 0.08407 0.04035 0.0
H1300 H 0.69418 0.99973 0.99442 0.0
H1301 H 0.77726 0.99406 0.03361 0.0
H1302 H 0.80394 0.98888 0.06477 0.0
H1303 H 0.72101 0.89252 0.07579 0.0
H1304 H 0.6936 0.89732 0.04484 0.0
H1305 H 0.70724 0.89607 0.92024 0.0
H1306 H 0.72126 0.93674 0.94738 0.0
H1307 H 0.64803 0.86188 0.98656 0.0
H1308 H 0.63345 0.82085 0.95929 0.0
H1309 H 0.71098 0.90428 0.00554 0.0
H1310 H 0.6286 0.911 0.96535 0.0
H1311 H 0.60421 0.91663 0.93327 0.0
H1312 H 0.68899 0.01213 0.92321 0.0
H1313 H 0.71417 0.0068 0.95506 0.0
C1314 C 0.71546 0.01418 0.06702 0.0
C1315 C 0.73743 0.04779 0.06342 0.0
C1316 C 0.70625 0.99129 0.05121 0.0
C1317 C 0.71934 0.00143 0.03152 0.0
C1318 C 0.74019 0.03523 0.02763 0.0
C1319 C 0.7491 0.05829 0.04347 0.0
C1320 C 0.71189 0.97647 0.01529 0.0
C1321 C 0.69828 0.97913 0.99676 0.0
C1322 C 0.71675 0.94924 0.01843 0.0
C1323 C 0.73324 0.94619 0.03701 0.0
C1324 C 0.7646 0.97187 0.04276 0.0
C1325 C 0.77987 0.96898 0.06038 0.0
C1326 C 0.76414 0.94042 0.07228 0.0
C1327 C 0.73314 0.91465 0.06657 0.0
C1328 C 0.71774 0.91743 0.04898 0.0
C1329 C 0.69423 0.88811 0.93467 0.0
C1330 C 0.66914 0.85524 0.93761 0.0
C1331 C 0.7022 0.91145 0.95011 0.0
C1332 C 0.68545 0.90234 0.96885 0.0
C1333 C 0.66113 0.86935 0.97214 0.0
C1334 C 0.65282 0.846 0.95656 0.0
C1335 C 0.69314 0.92751 0.98485 0.0
C1336 C 0.70688 0.9249 0.00328 0.0
C1337 C 0.6887 0.9549 0.98152 0.0
C1338 C 0.67342 0.95835 0.96249 0.0
C1339 C 0.64218 0.93308 0.95621 0.0
C1340 C 0.62818 0.93624 0.93808 0.0
C1341 C 0.64507 0.96469 0.92619 0.0
C1342 C 0.67595 0.99009 0.93243 0.0
C1343 C 0.69009 0.98702 0.95053 0.0
H1344 H 0.6342 0.96709 0.91216 0.0
H1345 H 0.77601 0.93824 0.08591 0.0
H1346 H 0.92705 0.71073 0.0489 0.0
H1347 H 0.96839 0.74648 0.02398 0.0
H1348 H 0.04183 0.73258 0.05498 0.0
H1349 H 0.00114 0.69828 0.0805 0.0
H1350 H 0.0689 0.79383 0.04049 0.0
H1351 H 0.99705 0.68374 0.01429 0.0
H1352 H 0.94313 0.63598 0.00521 0.0
H1353 H 0.92524 0.69616 0.96355 0.0
H1354 H 0.97885 0.74444 0.97265 0.0
H1355 H 0.17756 0.81109 0.9584 0.0
H1356 H 0.13919 0.79281 0.98738 0.0
H1357 H 0.07356 0.8145 0.95321 0.0
H1358 H 0.11143 0.83255 0.92431 0.0
H1359 H 0.04166 0.75339 0.96908 0.0
H1360 H 0.11609 0.86231 0.99262 0.0
H1361 H 0.17006 0.91002 0.00157 0.0
H1362 H 0.18358 0.85262 0.0477 0.0
H1363 H 0.1299 0.80435 0.03879 0.0
C1364 C 0.95215 0.71593 0.05075 0.0
C1365 C 0.96059 0.70106 0.06651 0.0
C1366 C 0.97572 0.73618 0.03638 0.0
C1367 C 0.00801 0.74155 0.03735 0.0
C1368 C 0.01701 0.72856 0.05382 0.0
C1369 C 0.99357 0.70859 0.06827 0.0
C1370 C 0.03168 0.75816 0.02041 0.0
C1371 C 0.06305 0.78491 0.02489 0.0
C1372 C 0.02382 0.74688 -1e-05 0.0
C1373 C 0.99178 0.71776 0.99432 0.0
C1374 C 0.98152 0.68683 0.0033 0.0
C1375 C 0.95102 0.65967 0.99815 0.0
C1376 C 0.93072 0.66307 0.98387 0.0
C1377 C 0.94095 0.6936 0.97465 0.0
C1378 C 0.97138 0.72086 0.9798 0.0
C1379 C 0.15513 0.81229 0.95718 0.0
C1380 C 0.14744 0.82308 0.93904 0.0
C1381 C 0.1333 0.80197 0.97375 0.0
C1382 C 0.10357 0.8024 0.97243 0.0
C1383 C 0.09631 0.81391 0.95452 0.0
C1384 C 0.11805 0.82424 0.93802 0.0
C1385 C 0.07899 0.78893 0.98916 0.0
C1386 C 0.04745 0.76263 0.98463 0.0
C1387 C 0.08677 0.80063 0.00948 0.0
C1388 C 0.11908 0.8296 0.0149 0.0
C1389 C 0.13069 0.85975 0.00455 0.0
C1390 C 0.16121 0.88691 0.00963 0.0
C1391 C 0.18024 0.88432 0.02517 0.0
C1392 C 0.16881 0.85457 0.03566 0.0
C1393 C 0.13832 0.8273 0.0306 0.0
H1394 H 0.20379 0.9054 0.02913 0.0
H1395 H 0.90711 0.64202 0.97992 0.0
H1396 H 0.18698 0.30679 0.91915 0.0
H1397 H 0.20837 0.28989 0.94782 0.0
H1398 H 0.20896 0.36596 0.98531 0.0
H1399 H 0.18779 0.38336 0.95651 0.0
H1400 H 0.2663 0.36583 0.98796 0.0
H1401 H 0.15203 0.28576 0.99331 0.0
H1402 H 0.09749 0.24274 0.98109 0.0
H1403 H 0.13755 0.18083 0.96534 0.0
H1404 H 0.19248 0.22369 0.97718 0.0
H1405 H 0.3091 0.31316 0.07764 0.0
H1406 H 0.27573 0.32421 0.05375 0.0
H1407 H 0.27511 0.25296 0.0117 0.0
H1408 H 0.30868 0.24188 0.03555 0.0
H1409 H 0.21493 0.25067 0.01329 0.0
H1410 H 0.32959 0.3324 0.00521 0.0
H1411 H 0.38441 0.37547 0.01702 0.0
H1412 H 0.34327 0.43435 0.03755 0.0
H1413 H 0.28807 0.39136 0.02613 0.0
C1414 C 0.19147 0.31986 0.93351 0.0
C1415 C 0.18574 0.34647 0.93555 0.0
C1416 C 0.2035 0.31001 0.94993 0.0
C1417 C 0.20988 0.32641 0.96877 0.0
C1418 C 0.20406 0.3529 0.97091 0.0
C1419 C 0.19196 0.36278 0.95446 0.0
C1420 C 0.22424 0.31688 0.98582 0.0
C1421 C 0.25472 0.3408 0.99378 0.0
C1422 C 0.20951 0.28401 0.99304 0.0
C1423 C 0.17646 0.25808 0.98599 0.0
C1424 C 0.14928 0.26308 0.98709 0.0
C1425 C 0.11828 0.2387 0.98026 0.0
C1426 C 0.11407 0.2091 0.97241 0.0
C1427 C 0.14085 0.20378 0.97142 0.0
C1428 C 0.17192 0.2281 0.97821 0.0
C1429 C 0.30174 0.29973 0.06336 0.0
C1430 C 0.31193 0.277 0.05836 0.0
C1431 C 0.28259 0.30598 0.04976 0.0
C1432 C 0.27344 0.2898 0.03083 0.0
C1433 C 0.28198 0.26574 0.02624 0.0
C1434 C 0.30111 0.2594 0.03989 0.0
C1435 C 0.25696 0.29961 0.0153 0.0
C1436 C 0.22622 0.27576 0.0076 0.0
C1437 C 0.27144 0.33255 0.00826 0.0
C1438 C 0.30465 0.35851 0.01502 0.0
C1439 C 0.33219 0.35441 0.01239 0.0
C1440 C 0.36333 0.37883 0.01899 0.0
C1441 C 0.3673 0.40759 0.02808 0.0
C1442 C 0.34014 0.41203 0.03054 0.0
C1443 C 0.30892 0.38766 0.024 0.0
H1444 H 0.39144 0.42647 0.03318 0.0
H1445 H 0.09005 0.19025 0.96713 0.0
H1446 H 0.97046 0.64463 0.41544 0.0
H1447 H 0.92519 0.63398 0.43862 0.0
H1448 H 0.9944 0.70685 0.48052 0.0
H1449 H 0.0398 0.71702 0.45768 0.0
H1450 H 0.95258 0.64968 0.49975 0.0
H1451 H 0.94419 0.72283 0.4516 0.0
H1452 H 0.93874 0.74184 0.41743 0.0
H1453 H 0.84591 0.65297 0.40893 0.0
H1454 H 0.85103 0.63322 0.44296 0.0
H1455 H 0.85246 0.68122 0.56441 0.0
H1456 H 0.89047 0.68731 0.53711 0.0
H1457 H 0.81357 0.60116 0.50705 0.0
H1458 H 0.77507 0.59444 0.5347 0.0
H1459 H 0.85533 0.65958 0.48068 0.0
H1460 H 0.86177 0.58868 0.52996 0.0
H1461 H 0.86685 0.56974 0.56413 0.0
H1462 H 0.96345 0.65444 0.57064 0.0
H1463 H 0.95868 0.67413 0.53652 0.0
C1464 C 0.97602 0.6584 0.42958 0.0
C1465 C 0.00875 0.68164 0.43472 0.0
C1466 C 0.9501 0.65247 0.44273 0.0
C1467 C 0.95642 0.66972 0.46125 0.0
C1468 C 0.98899 0.69328 0.46628 0.0
C1469 C 0.01489 0.69929 0.45312 0.0
C1470 C 0.92933 0.66237 0.4758 0.0
C1471 C 0.93151 0.65221 0.49564 0.0
C1472 C 0.90129 0.66456 0.47019 0.0
C1473 C 0.89818 0.67638 0.44973 0.0
C1474 C 0.92276 0.7072 0.44236 0.0
C1475 C 0.9197 0.71814 0.42304 0.0
C1476 C 0.89205 0.69858 0.41099 0.0
C1477 C 0.86735 0.66807 0.41826 0.0
C1478 C 0.8703 0.657 0.43758 0.0
C1479 C 0.84341 0.66364 0.55195 0.0
C1480 C 0.81075 0.63725 0.55175 0.0
C1481 C 0.86522 0.66719 0.53638 0.0
C1482 C 0.8548 0.64462 0.52018 0.0
C1483 C 0.82195 0.61883 0.51946 0.0
C1484 C 0.80009 0.61497 0.53527 0.0
C1485 C 0.87904 0.64757 0.50464 0.0
C1486 C 0.87631 0.65684 0.48468 0.0
C1487 C 0.90663 0.64458 0.51011 0.0
C1488 C 0.90971 0.63299 0.53071 0.0
C1489 C 0.88397 0.60341 0.53874 0.0
C1490 C 0.88682 0.59251 0.55811 0.0
C1491 C 0.91544 0.61089 0.5696 0.0
C1492 C 0.94127 0.64022 0.56172 0.0
C1493 C 0.93851 0.65124 0.54234 0.0
H1494 H 0.91764 0.60239 0.58459 0.0
H1495 H 0.88972 0.7071 0.39603 0.0
H1496 H 0.39995 0.16446 0.53029 0.0
H1497 H 0.39348 0.19563 0.50242 0.0
H1498 H 0.29593 0.16757 0.52417 0.0
H1499 H 0.30184 0.13578 0.55166 0.0
H1500 H 0.29651 0.16729 0.48375 0.0
H1501 H 0.36243 0.24241 0.53683 0.0
H1502 H 0.40893 0.26826 0.56096 0.0
H1503 H 0.47741 0.3006 0.51091 0.0
H1504 H 0.43117 0.27467 0.48643 0.0
H1505 H 0.27632 0.30052 0.45014 0.0
H1506 H 0.2829 0.25993 0.46976 0.0
H1507 H 0.37374 0.28751 0.43803 0.0
H1508 H 0.36701 0.32757 0.41787 0.0
H1509 H 0.37913 0.28664 0.48048 0.0
H1510 H 0.30885 0.21585 0.42727 0.0
H1511 H 0.25988 0.19134 0.40495 0.0
H1512 H 0.19694 0.15218 0.45746 0.0
H1513 H 0.24552 0.17687 0.48013 0.0
C1514 C 0.37695 0.16456 0.52896 0.0
C1515 C 0.35153 0.14793 0.5433 0.0
C1516 C 0.37334 0.18248 0.51308 0.0
C1517 C 0.34443 0.18437 0.51143 0.0
C1518 C 0.31847 0.1665 0.52516 0.0
C1519 C 0.32196 0.14843 0.54093 0.0
C1520 C 0.3418 0.20645 0.49625 0.0
C1521 C 0.31448 0.19341 0.48309 0.0
C1522 C 0.3655 0.24046 0.49521 0.0
C1523 C 0.39338 0.25629 0.50983 0.0
C1524 C 0.38741 0.25484 0.53098 0.0
C1525 C 0.41372 0.26953 0.54472 0.0
C1526 C 0.44614 0.28594 0.5375 0.0
C1527 C 0.45229 0.28781 0.51649 0.0
C1528 C 0.42604 0.27317 0.50266 0.0
C1529 C 0.2974 0.29764 0.44699 0.0
C1530 C 0.32118 0.31755 0.4324 0.0
C1531 C 0.30116 0.27444 0.45829 0.0
C1532 C 0.32875 0.27068 0.45527 0.0
C1533 C 0.35233 0.29014 0.44061 0.0
C1534 C 0.34848 0.31317 0.42918 0.0
C1535 C 0.3337 0.24752 0.46812 0.0
C1536 C 0.36144 0.26042 0.4809 0.0
C1537 C 0.3101 0.21353 0.46903 0.0
C1538 C 0.28084 0.19844 0.45541 0.0
C1539 C 0.28456 0.20223 0.43408 0.0
C1540 C 0.25687 0.18826 0.42136 0.0
C1541 C 0.22531 0.17027 0.42978 0.0
C1542 C 0.22139 0.16614 0.45095 0.0
C1543 C 0.249 0.18008 0.46374 0.0
H1544 H 0.20391 0.15948 0.41991 0.0
H1545 H 0.46646 0.29731 0.54818 0.0
H1546 H 0.83502 0.22628 0.53051 0.0
H1547 H 0.80482 0.18735 0.50292 0.0
H1548 H 0.84163 0.12421 0.52339 0.0
H1549 H 0.87213 0.16305 0.5507 0.0
H1550 H 0.83831 0.12398 0.48237 0.0
H1551 H 0.7686 0.11125 0.53915 0.0
H1552 H 0.74166 0.1282 0.56498 0.0
H1553 H 0.69453 0.15282 0.5174 0.0
H1554 H 0.72194 0.13691 0.49127 0.0
H1555 H 0.70813 0.96507 0.4513 0.0
H1556 H 0.74922 0.01341 0.46998 0.0
H1557 H 0.71276 0.07248 0.44227 0.0
H1558 H 0.67223 0.02466 0.42311 0.0
H1559 H 0.71713 0.07753 0.48461 0.0
H1560 H 0.78525 0.08396 0.42778 0.0
H1561 H 0.81059 0.06248 0.40378 0.0
H1562 H 0.85865 0.04406 0.45374 0.0
H1563 H 0.83321 0.065 0.47809 0.0
C1564 C 0.8372 0.20444 0.52886 0.0
C1565 C 0.85561 0.19752 0.54292 0.0
C1566 C 0.81985 0.18217 0.51315 0.0
C1567 C 0.82059 0.15264 0.51132 0.0
C1568 C 0.84065 0.14678 0.52454 0.0
C1569 C 0.85793 0.16896 0.54023 0.0
C1570 C 0.79834 0.12648 0.49692 0.0
C1571 C 0.81181 0.11374 0.48289 0.0
C1572 C 0.76377 0.1132 0.49756 0.0
C1573 C 0.74768 0.12332 0.51324 0.0
C1574 C 0.75285 0.12071 0.53419 0.0
C1575 C 0.73748 0.13011 0.54889 0.0
C1576 C 0.71651 0.14168 0.54283 0.0
C1577 C 0.71092 0.144 0.52207 0.0
C1578 C 0.72641 0.13486 0.5073 0.0
C1579 C 0.70917 0.98841 0.44884 0.0
C1580 C 0.68658 0.99077 0.43575 0.0
C1581 C 0.73268 0.01603 0.45957 0.0
C1582 C 0.73404 0.0465 0.45744 0.0
C1583 C 0.71201 0.04913 0.44416 0.0
C1584 C 0.68868 0.02164 0.43332 0.0
C1585 C 0.75708 0.07515 0.47 0.0
C1586 C 0.74368 0.08816 0.48383 0.0
C1587 C 0.79158 0.08819 0.46941 0.0
C1588 C 0.8071 0.0758 0.45478 0.0
C1589 C 0.80101 0.07509 0.43367 0.0
C1590 C 0.81543 0.06306 0.42 0.0
C1591 C 0.83616 0.05185 0.42723 0.0
C1592 C 0.84257 0.05273 0.44816 0.0
C1593 C 0.82819 0.06472 0.4619 0.0
H1594 H 0.8473 0.04254 0.41662 0.0
H1595 H 0.70442 0.14862 0.55423 0.0
H1596 H 0.26916 0.36567 0.29968 0.0
H1597 H 0.28806 0.35132 0.26851 0.0
H1598 H 0.38468 0.38905 0.29511 0.0
H1599 H 0.36607 0.40469 0.32601 0.0
H1600 H 0.38986 0.39945 0.25473 0.0
H1601 H 0.32773 0.30791 0.29897 0.0
H1602 H 0.28052 0.27045 0.32055 0.0
H1603 H 0.21666 0.24105 0.26824 0.0
H1604 H 0.26341 0.27879 0.24639 0.0
H1605 H 0.42218 0.29124 0.19071 0.0
H1606 H 0.41459 0.31827 0.22069 0.0
H1607 H 0.32284 0.30303 0.19571 0.0
H1608 H 0.33069 0.27743 0.16552 0.0
H1609 H 0.31975 0.2811 0.23701 0.0
H1610 H 0.38485 0.37583 0.19329 0.0
H1611 H 0.43401 0.41244 0.17285 0.0
H1612 H 0.49521 0.43353 0.22597 0.0
H1613 H 0.44642 0.39663 0.24668 0.0
C1614 C 0.29463 0.37161 0.2986 0.0
C1615 C 0.31617 0.386 0.31515 0.0
C1616 C 0.30538 0.3633 0.28089 0.0
C1617 C 0.33752 0.3683 0.27975 0.0
C1618 C 0.35975 0.38481 0.29573 0.0
C1619 C 0.34914 0.39372 0.31333 0.0
C1620 C 0.3467 0.35346 0.26281 0.0
C1621 C 0.37477 0.3735 0.251 0.0
C1622 C 0.32715 0.31952 0.25804 0.0
C1623 C 0.29904 0.29638 0.27107 0.0
C1624 C 0.30359 0.2936 0.29208 0.0
C1625 C 0.27691 0.27232 0.30437 0.0
C1626 C 0.2456 0.25343 0.29578 0.0
C1627 C 0.24092 0.25572 0.27487 0.0
C1628 C 0.26751 0.27704 0.26253 0.0
C1629 C 0.40058 0.29397 0.1915 0.0
C1630 C 0.37683 0.28172 0.1758 0.0
C1631 C 0.39628 0.30933 0.20863 0.0
C1632 C 0.36813 0.31249 0.21033 0.0
C1633 C 0.34459 0.30055 0.19469 0.0
C1634 C 0.34902 0.28562 0.17754 0.0
C1635 C 0.36226 0.32725 0.22863 0.0
C1636 C 0.33489 0.30703 0.24082 0.0
C1637 C 0.38279 0.36077 0.23389 0.0
C1638 C 0.41204 0.38316 0.22147 0.0
C1639 C 0.40882 0.38803 0.20057 0.0
C1640 C 0.43662 0.40889 0.18894 0.0
C1641 C 0.46774 0.42521 0.19808 0.0
C1642 C 0.4711 0.42082 0.2189 0.0
C1643 C 0.44339 0.39995 0.23059 0.0
H1644 H 0.48923 0.44134 0.18905 0.0
H1645 H 0.22497 0.23697 0.30531 0.0
H1646 H 0.66143 0.07894 0.17255 0.0
H1647 H 0.6305 0.04262 0.20091 0.0
H1648 H 0.71916 0.08468 0.23729 0.0
H1649 H 0.75009 0.12175 0.20919 0.0
H1650 H 0.64005 0.99572 0.21658 0.0
H1651 H 0.70018 0.08052 0.28732 0.0
H1652 H 0.72167 0.1386 0.29707 0.0
H1653 H 0.65979 0.14737 0.25206 0.0
H1654 H 0.63757 0.08922 0.24223 0.0
H1655 H 0.65011 0.91549 0.30458 0.0
H1656 H 0.65704 0.94996 0.27488 0.0
H1657 H 0.58606 0.9735 0.2999 0.0
H1658 H 0.57938 0.93932 0.32992 0.0
H1659 H 0.6426 0.02827 0.28903 0.0
H1660 H 0.56655 0.92715 0.25761 0.0
H1661 H 0.54248 0.8688 0.24772 0.0
H1662 H 0.62987 0.89205 0.21369 0.0
H1663 H 0.6547 0.95048 0.22362 0.0
C1664 C 0.67418 0.08109 0.18678 0.0
C1665 C 0.70824 0.1032 0.18862 0.0
C1666 C 0.6565 0.06012 0.2029 0.0
C1667 C 0.67248 0.06103 0.22121 0.0
C1668 C 0.70624 0.08384 0.22337 0.0
C1669 C 0.72396 0.10479 0.20724 0.0
C1670 C 0.65468 0.03634 0.23743 0.0
C1671 C 0.64031 0.0028 0.2324 0.0
C1672 C 0.65439 0.0456 0.25798 0.0
C1673 C 0.66737 0.08053 0.26395 0.0
C1674 C 0.69102 0.09478 0.27958 0.0
C1675 C 0.70336 0.12773 0.2851 0.0
C1676 C 0.69216 0.14669 0.27516 0.0
C1677 C 0.66853 0.1327 0.2597 0.0
C1678 C 0.65609 0.09975 0.25413 0.0
C1679 C 0.63569 0.9277 0.30363 0.0
C1680 C 0.61436 0.92491 0.31957 0.0
C1681 C 0.63947 0.94717 0.28659 0.0
C1682 C 0.62194 0.96415 0.28516 0.0
C1683 C 0.59973 0.96051 0.30072 0.0
C1684 C 0.59578 0.94083 0.31775 0.0
C1685 C 0.62919 0.98781 0.26825 0.0
C1686 C 0.64172 0.02116 0.27316 0.0
C1687 C 0.6274 0.97835 0.24756 0.0
C1688 C 0.61255 0.94322 0.24145 0.0
C1689 C 0.58074 0.9198 0.24813 0.0
C1690 C 0.56694 0.8867 0.2425 0.0
C1691 C 0.58465 0.87672 0.2301 0.0
C1692 C 0.61618 0.89983 0.22328 0.0
C1693 C 0.6301 0.93295 0.22888 0.0
H1694 H 0.57393 0.85108 0.22576 0.0
H1695 H 0.70176 0.1722 0.27945 0.0
H1696 H 0.87924 0.57728 0.19633 0.0
H1697 H 0.91669 0.58162 0.22375 0.0
H1698 H 0.9903 0.67678 0.20083 0.0
H1699 H 0.95416 0.67168 0.17276 0.0
H1700 H 0.01922 0.64488 0.21203 0.0
H1701 H 0.93802 0.66655 0.24239 0.0
H1702 H 0.88196 0.65421 0.2517 0.0
H1703 H 0.86666 0.56868 0.28503 0.0
H1704 H 0.92254 0.58031 0.27569 0.0
H1705 H 0.10723 0.73314 0.30077 0.0
H1706 H 0.07343 0.71043 0.27 0.0
H1707 H 0.026 0.6134 0.297 0.0
H1708 H 0.06013 0.63598 0.32773 0.0
H1709 H 0.98273 0.63632 0.28408 0.0
H1710 H 0.0708 0.62365 0.25755 0.0
H1711 H 0.1285 0.64117 0.24896 0.0
H1712 H 0.13276 0.71599 0.20904 0.0
H1713 H 0.07521 0.69927 0.21763 0.0
C1714 C 0.90354 0.59895 0.19697 0.0
C1715 C 0.91339 0.62437 0.18246 0.0
C1716 C 0.92484 0.60152 0.21278 0.0
C1717 C 0.95617 0.62977 0.21456 0.0
C1718 C 0.96625 0.65478 0.19986 0.0
C1719 C 0.94523 0.65205 0.18396 0.0
C1720 C 0.97836 0.63412 0.23195 0.0
C1721 C 0.01125 0.64312 0.22778 0.0
C1722 C 0.96785 0.63111 0.25254 0.0
C1723 C 0.93425 0.62404 0.25812 0.0
C1724 C 0.92259 0.64496 0.25156 0.0
C1725 C 0.89087 0.63812 0.25687 0.0
C1726 C 0.87071 0.61061 0.26889 0.0
C1727 C 0.88227 0.58993 0.27568 0.0
C1728 C 0.91395 0.59663 0.27039 0.0
C1729 C 0.09013 0.70685 0.29989 0.0
C1730 C 0.08623 0.68625 0.31652 0.0
C1731 C 0.07094 0.69391 0.28234 0.0
C1732 C 0.0473 0.66025 0.28127 0.0
C1733 C 0.04423 0.6394 0.29755 0.0
C1734 C 0.06382 0.65226 0.31499 0.0
C1735 C 0.02363 0.64784 0.26409 0.0
C1736 C 0.99049 0.6374 0.26832 0.0
C1737 C 0.03409 0.65022 0.2436 0.0
C1738 C 0.06871 0.66032 0.23835 0.0
C1739 C 0.08411 0.64402 0.24707 0.0
C1740 C 0.11678 0.65378 0.24217 0.0
C1741 C 0.1343 0.67971 0.22849 0.0
C1742 C 0.11916 0.69591 0.21964 0.0
C1743 C 0.08649 0.68627 0.2245 0.0
H1744 H 0.15959 0.68722 0.22472 0.0
H1745 H 0.84617 0.60537 0.273 0.0
H1746 H 0.65328 0.63625 0.65688 0.0
H1747 H 0.63146 0.65172 0.68616 0.0
H1748 H 0.67453 0.6114 0.72713 0.0
H1749 H 0.69557 0.59493 0.69765 0.0
H1750 H 0.61674 0.60209 0.74216 0.0
H1751 H 0.71621 0.69218 0.7151 0.0
H1752 H 0.75235 0.72956 0.68811 0.0
H1753 H 0.68344 0.76293 0.67703 0.0
H1754 H 0.64661 0.72533 0.70376 0.0
H1755 H 0.66454 0.75328 0.8121 0.0
H1756 H 0.67395 0.72796 0.78227 0.0
H1757 H 0.56938 0.66002 0.77744 0.0
H1758 H 0.55984 0.68512 0.80768 0.0
H1759 H 0.65687 0.72224 0.74432 0.0
H1760 H 0.55734 0.58628 0.75865 0.0
H1761 H 0.52692 0.54971 0.78754 0.0
H1762 H 0.60654 0.6104 0.82812 0.0
H1763 H 0.6376 0.64704 0.79944 0.0
C1764 C 0.65748 0.63014 0.67214 0.0
C1765 C 0.67635 0.61481 0.67514 0.0
C1766 C 0.64508 0.639 0.68883 0.0
C1767 C 0.65201 0.63337 0.70882 0.0
C1768 C 0.66901 0.61606 0.71182 0.0
C1769 C 0.68104 0.60672 0.69504 0.0
C1770 C 0.64437 0.64841 0.72639 0.0
C1771 C 0.62534 0.62831 0.74262 0.0
C1772 C 0.65624 0.68277 0.72718 0.0
C1773 C 0.67852 0.70572 0.71129 0.0
C1774 C 0.70867 0.70734 0.70682 0.0
C1775 C 0.72928 0.72857 0.69157 0.0
C1776 C 0.72016 0.74855 0.68083 0.0
C1777 C 0.69044 0.7474 0.68535 0.0
C1778 C 0.6697 0.72615 0.70055 0.0
C1779 C 0.64345 0.7333 0.80451 0.0
C1780 C 0.61142 0.72127 0.81217 0.0
C1781 C 0.64889 0.71874 0.7875 0.0
C1782 C 0.62244 0.69187 0.77773 0.0
C1783 C 0.59024 0.68035 0.78496 0.0
C1784 C 0.5848 0.69476 0.80216 0.0
C1785 C 0.62898 0.67594 0.76013 0.0
C1786 C 0.6479 0.69594 0.74383 0.0
C1787 C 0.61784 0.6417 0.75963 0.0
C1788 C 0.59959 0.61959 0.77694 0.0
C1789 C 0.56838 0.59174 0.77373 0.0
C1790 C 0.55103 0.57101 0.79007 0.0
C1791 C 0.56474 0.57779 0.80967 0.0
C1792 C 0.59589 0.60524 0.81295 0.0
C1793 C 0.61336 0.62602 0.79667 0.0
H1794 H 0.55125 0.56173 0.8223 0.0
H1795 H 0.73615 0.76497 0.66903 0.0
H1796 H 0.28671 0.85799 0.7988 0.0
H1797 H 0.31571 0.89126 0.76864 0.0
H1798 H 0.3036 0.97091 0.79147 0.0
H1799 H 0.27596 0.93875 0.82173 0.0
H1800 H 0.28093 0.95016 0.75056 0.0
H1801 H 0.37516 0.97931 0.79458 0.0
H1802 H 0.41137 0.96679 0.81544 0.0
H1803 H 0.43152 0.92438 0.76308 0.0
H1804 H 0.395 0.93623 0.74196 0.0
H1805 H 0.36971 0.08789 0.69106 0.0
H1806 H 0.35432 0.05253 0.72129 0.0
H1807 H 0.38778 0.99209 0.69183 0.0
H1808 H 0.40408 0.0281 0.66167 0.0
H1809 H 0.39918 0.99639 0.73329 0.0
H1810 H 0.30882 0.96976 0.68857 0.0
H1811 H 0.27259 0.98129 0.66701 0.0
H1812 H 0.24348 0.01548 0.71959 0.0
H1813 H 0.28 0.00469 0.74143 0.0
C1814 C 0.29061 0.88274 0.79749 0.0
C1815 C 0.27844 0.89546 0.81249 0.0
C1816 C 0.3071 0.90163 0.78027 0.0
C1817 C 0.31153 0.93337 0.77787 0.0
C1818 C 0.3001 0.94632 0.793 0.0
C1819 C 0.28402 0.92773 0.81019 0.0
C1820 C 0.32658 0.95297 0.75924 0.0
C1821 C 0.30681 0.96041 0.74682 0.0
C1822 C 0.36004 0.9653 0.75408 0.0
C1823 C 0.38201 0.95825 0.76676 0.0
C1824 C 0.38703 0.967 0.78756 0.0
C1825 C 0.40768 0.9601 0.79942 0.0
C1826 C 0.42364 0.94469 0.79061 0.0
C1827 C 0.41907 0.93625 0.7699 0.0
C1828 C 0.39842 0.94306 0.75798 0.0
C1829 C 0.3744 0.06746 0.69124 0.0
C1830 C 0.38766 0.06038 0.67404 0.0
C1831 C 0.36559 0.04728 0.70846 0.0
C1832 C 0.36919 0.01926 0.70856 0.0
C1833 C 0.38467 0.0135 0.69199 0.0
C1834 C 0.39394 0.03403 0.67481 0.0
C1835 C 0.35372 0.9945 0.72504 0.0
C1836 C 0.37323 0.98588 0.73691 0.0
C1837 C 0.3198 0.98064 0.72963 0.0
C1838 C 0.29733 0.98662 0.71661 0.0
C1839 C 0.29484 0.97991 0.69552 0.0
C1840 C 0.27425 0.98631 0.68325 0.0
C1841 C 0.25579 0.99916 0.69192 0.0
C1842 C 0.25781 0.00554 0.7129 0.0
C1843 C 0.27843 0.99927 0.72523 0.0
H1844 H 0.23987 0.00411 0.68239 0.0
H1845 H 0.43963 0.93938 0.79981 0.0
H1846 H 0.06401 0.4183 0.8303 0.0
H1847 H 0.0295 0.41105 0.80044 0.0
H1848 H 0.09326 0.3909 0.76307 0.0
H1849 H 0.12797 0.39826 0.79285 0.0
H1850 H 0.07004 0.43007 0.74337 0.0
H1851 H 0.02909 0.32882 0.78317 0.0
H1852 H 0.00906 0.29636 0.81494 0.0
H1853 H 0.92991 0.31748 0.81814 0.0
H1854 H 0.94981 0.35052 0.78652 0.0
H1855 H 0.98431 0.32525 0.66316 0.0
H1856 H 0.01548 0.35261 0.69372 0.0
H1857 H 0.9292 0.34864 0.72022 0.0
H1858 H 0.89716 0.31969 0.68978 0.0
H1859 H 0.95915 0.33004 0.74721 0.0
H1860 H 0.99336 0.42202 0.70369 0.0
H1861 H 0.01284 0.4544 0.67188 0.0
H1862 H 0.1034 0.45254 0.67557 0.0
H1863 H 0.08427 0.41969 0.70723 0.0
C1864 C 0.07112 0.41314 0.8156 0.0
C1865 C 0.09849 0.40858 0.81387 0.0
C1866 C 0.05133 0.40889 0.79862 0.0
C1867 C 0.05876 0.4002 0.77966 0.0
C1868 C 0.0872 0.39763 0.77761 0.0
C1869 C 0.10682 0.40158 0.79462 0.0
C1870 C 0.03531 0.39044 0.76245 0.0
C1871 C 0.04578 0.40823 0.74412 0.0
C1872 C 0.0033 0.36259 0.76378 0.0
C1873 C 0.99116 0.34246 0.78265 0.0
C1874 C 0.00757 0.32676 0.79074 0.0
C1875 C 0.99623 0.30823 0.80871 0.0
C1876 C 0.96829 0.30495 0.81859 0.0
C1877 C 0.95159 0.32011 0.81049 0.0
C1878 C 0.96288 0.33873 0.79255 0.0
C1879 C 0.97176 0.32983 0.67554 0.0
C1880 C 0.93812 0.31993 0.67412 0.0
C1881 C 0.9898 0.34601 0.69289 0.0
C1882 C 0.97483 0.3532 0.7091 0.0
C1883 C 0.94128 0.34355 0.70778 0.0
C1884 C 0.92307 0.32715 0.69037 0.0
C1885 C 0.99416 0.3691 0.72779 0.0
C1886 C 0.983 0.35242 0.74646 0.0
C1887 C 0.02543 0.39815 0.72678 0.0
C1888 C 0.03728 0.41824 0.70783 0.0
C1889 C 0.01735 0.42834 0.69766 0.0
C1890 C 0.02834 0.44681 0.67966 0.0
C1891 C 0.05933 0.4555 0.6717 0.0
C1892 C 0.07941 0.4458 0.68176 0.0
C1893 C 0.06852 0.4273 0.69976 0.0
H1894 H 0.06779 0.46978 0.65775 0.0
H1895 H 0.95954 0.29059 0.8325 0.0
loop_
_geom_bond_atom_site_label_1
_geom_bond_atom_site_label_2
_geom_bond_distance
_geom_bond_site_symmetry_2
_ccdc_geom_bond_type
C0 C1 1.351 . S
C0 N3 1.368 . S
C0 H5 0.931 . S
C1 C0 1.351 . S
C1 N2 1.373 . S
C1 H29 0.930 . S
N2 C1 1.373 . S
N2 C4 1.340 . S
N3 C0 1.368 . S
N3 C4 1.321 . S
N3 Co6 2.135 . S
C4 N2 1.340 . S
C4 N3 1.321 . S
C4 H28 0.930 . S
H5 C0 0.931 . S
Co6 N3 2.135 . S
Co6 N9 2.121 . S
Co6 O14 2.055 . S
Co6 O17 2.039 . S
Co6 N20 2.140 . S
C7 O8 1.227 . S
C7 O17 1.265 . S
O8 C7 1.227 . S
N9 Co6 2.121 . S
N9 C11 1.375 . S
N9 C12 1.313 . S
C10 C11 1.338 . S
C10 N13 1.377 . S
C10 H30 0.930 . S
C11 N9 1.375 . S
C11 C10 1.338 . S
C11 H15 0.931 . S
C12 N9 1.313 . S
C12 N13 1.344 . S
C12 H16 0.930 . S
N13 C10 1.377 . S
N13 C12 1.344 . S
O14 Co6 2.055 . S
O14 C18 1.253 . S
H15 C11 0.931 . S
H16 C12 0.930 . S
O17 Co6 2.039 . S
O17 C7 1.265 . S
C18 O14 1.253 . S
C18 O19 1.227 . S
O19 C18 1.227 . S
N20 Co6 2.140 . S
N20 C23 1.346 . S
N20 C24 1.345 . S
C21 C22 1.387 . S
C21 C25 1.391 . S
C22 C21 1.387 . S
C22 C23 1.369 . S
C22 H31 0.929 . S
C23 N20 1.346 . S
C23 C22 1.369 . S
C23 H26 0.928 . S
C24 N20 1.345 . S
C24 C25 1.371 . S
C24 H27 0.931 . S
C25 C21 1.391 . S
C25 C24 1.371 . S
C25 H32 0.930 . S
H26 C23 0.928 . S
H27 C24 0.931 . S
H28 C4 0.930 . S
H29 C1 0.930 . S
H30 C10 0.930 . S
H31 C22 0.929 . S
H32 C25 0.930 . S
C33 C34 1.351 . S
C33 N36 1.368 . S
C33 H38 0.931 . S
C34 C33 1.351 . S
C34 N35 1.373 . S
C34 H62 0.930 . S
N35 C34 1.373 . S
N35 C37 1.340 . S
N36 C33 1.368 . S
N36 C37 1.321 . S
N36 Co39 2.135 . S
C37 N35 1.340 . S
C37 N36 1.321 . S
C37 H61 0.930 . S
H38 C33 0.931 . S
Co39 N36 2.135 . S
Co39 N42 2.121 . S
Co39 O47 2.055 . S
Co39 O50 2.039 . S
Co39 N53 2.140 . S
C40 O41 1.227 . S
C40 O50 1.265 . S
O41 C40 1.227 . S
N42 Co39 2.121 . S
N42 C44 1.375 . S
N42 C45 1.313 . S
C43 C44 1.338 . S
C43 N46 1.377 . S
C43 H63 0.930 . S
C44 N42 1.375 . S
C44 C43 1.338 . S
C44 H48 0.931 . S
C45 N42 1.313 . S
C45 N46 1.344 . S
C45 H49 0.930 . S
N46 C43 1.377 . S
N46 C45 1.344 . S
O47 Co39 2.055 . S
O47 C51 1.253 . S
H48 C44 0.931 . S
H49 C45 0.930 . S
O50 Co39 2.039 . S
O50 C40 1.265 . S
C51 O47 1.253 . S
C51 O52 1.227 . S
O52 C51 1.227 . S
N53 Co39 2.140 . S
N53 C56 1.346 . S
N53 C57 1.345 . S
C54 C55 1.387 . S
C54 C58 1.391 . S
C55 C54 1.387 . S
C55 C56 1.369 . S
C55 H64 0.929 . S
C56 N53 1.346 . S
C56 C55 1.369 . S
C56 H59 0.928 . S
C57 N53 1.345 . S
C57 C58 1.371 . S
C57 H60 0.931 . S
C58 C54 1.391 . S
C58 C57 1.371 . S
C58 H65 0.930 . S
H59 C56 0.928 . S
H60 C57 0.931 . S
H61 C37 0.930 . S
H62 C34 0.930 . S
H63 C43 0.930 . S
H64 C55 0.929 . S
H65 C58 0.930 . S
C66 C67 1.351 . S
C66 N69 1.368 . S
C66 H71 0.931 . S
C67 C66 1.351 . S
C67 N68 1.373 . S
C67 H95 0.930 . S
N68 C67 1.373 . S
N68 C70 1.340 . S
N69 C66 1.368 . S
N69 C70 1.321 . S
N69 Co72 2.135 . S
C70 N68 1.340 . S
C70 N69 1.321 . S
C70 H94 0.930 . S
H71 C66 0.931 . S
Co72 N69 2.135 . S
Co72 N75 2.121 . S
Co72 O80 2.055 . S
Co72 O83 2.039 . S
Co72 N86 2.140 . S
C73 O74 1.227 . S
C73 O83 1.265 . S
O74 C73 1.227 . S
N75 Co72 2.121 . S
N75 C77 1.375 . S
N75 C78 1.313 . S
C76 C77 1.338 . S
C76 N79 1.377 . S
C76 H96 0.930 . S
C77 N75 1.375 . S
C77 C76 1.338 . S
C77 H81 0.931 . S
C78 N75 1.313 . S
C78 N79 1.344 . S
C78 H82 0.930 . S
N79 C76 1.377 . S
N79 C78 1.344 . S
O80 Co72 2.055 . S
O80 C84 1.253 . S
H81 C77 0.931 . S
H82 C78 0.930 . S
O83 Co72 2.039 . S
O83 C73 1.265 . S
C84 O80 1.253 . S
C84 O85 1.227 . S
O85 C84 1.227 . S
N86 Co72 2.140 . S
N86 C89 1.346 . S
N86 C90 1.345 . S
C87 C88 1.387 . S
C87 C91 1.391 . S
C88 C87 1.387 . S
C88 C89 1.369 . S
C88 H97 0.929 . S
C89 N86 1.346 . S
C89 C88 1.369 . S
C89 H92 0.928 . S
C90 N86 1.345 . S
C90 C91 1.371 . S
C90 H93 0.931 . S
C91 C87 1.391 . S
C91 C90 1.371 . S
C91 H98 0.930 . S
H92 C89 0.928 . S
H93 C90 0.931 . S
H94 C70 0.930 . S
H95 C67 0.930 . S
H96 C76 0.930 . S
H97 C88 0.929 . S
H98 C91 0.930 . S
C99 C100 1.351 . S
C99 N102 1.368 . S
C99 H104 0.931 . S
C100 C99 1.351 . S
C100 N101 1.373 . S
C100 H128 0.930 . S
N101 C100 1.373 . S
N101 C103 1.340 . S
N102 C99 1.368 . S
N102 C103 1.321 . S
N102 Co105 2.135 . S
C103 N101 1.340 . S
C103 N102 1.321 . S
C103 H127 0.930 . S
H104 C99 0.931 . S
Co105 N102 2.135 . S
Co105 N108 2.121 . S
Co105 O113 2.055 . S
Co105 O116 2.039 . S
Co105 N119 2.140 . S
C106 O107 1.227 . S
C106 O116 1.265 . S
O107 C106 1.227 . S
N108 Co105 2.121 . S
N108 C110 1.375 . S
N108 C111 1.313 . S
C109 C110 1.338 . S
C109 N112 1.377 . S
C109 H129 0.930 . S
C110 N108 1.375 . S
C110 C109 1.338 . S
C110 H114 0.931 . S
C111 N108 1.313 . S
C111 N112 1.344 . S
C111 H115 0.930 . S
N112 C109 1.377 . S
N112 C111 1.344 . S
O113 Co105 2.055 . S
O113 C117 1.253 . S
H114 C110 0.931 . S
H115 C111 0.930 . S
O116 Co105 2.039 . S
O116 C106 1.265 . S
C117 O113 1.253 . S
C117 O118 1.227 . S
O118 C117 1.227 . S
N119 Co105 2.140 . S
N119 C122 1.346 . S
N119 C123 1.345 . S
C120 C121 1.387 . S
C120 C124 1.391 . S
C121 C120 1.387 . S
C121 C122 1.369 . S
C121 H130 0.929 . S
C122 N119 1.346 . S
C122 C121 1.369 . S
C122 H125 0.928 . S
C123 N119 1.345 . S
C123 C124 1.371 . S
C123 H126 0.931 . S
C124 C120 1.391 . S
C124 C123 1.371 . S
C124 H131 0.930 . S
H125 C122 0.928 . S
H126 C123 0.931 . S
H127 C103 0.930 . S
H128 C100 0.930 . S
H129 C109 0.930 . S
H130 C121 0.929 . S
H131 C124 0.930 . S
C132 C133 1.351 . S
C132 N135 1.368 . S
C132 H137 0.931 . S
C133 C132 1.351 . S
C133 N134 1.373 . S
C133 H161 0.930 . S
N134 C133 1.373 . S
N134 C136 1.340 . S
N135 C132 1.368 . S
N135 C136 1.321 . S
N135 Co138 2.135 . S
C136 N134 1.340 . S
C136 N135 1.321 . S
C136 H160 0.930 . S
H137 C132 0.931 . S
Co138 N135 2.135 . S
Co138 N141 2.121 . S
Co138 O146 2.055 . S
Co138 O149 2.039 . S
Co138 N152 2.140 . S
C139 O140 1.227 . S
C139 O149 1.265 . S
O140 C139 1.227 . S
N141 Co138 2.121 . S
N141 C143 1.375 . S
N141 C144 1.313 . S
C142 C143 1.338 . S
C142 N145 1.377 . S
C142 H162 0.930 . S
C143 N141 1.375 . S
C143 C142 1.338 . S
C143 H147 0.931 . S
C144 N141 1.313 . S
C144 N145 1.344 . S
C144 H148 0.930 . S
N145 C142 1.377 . S
N145 C144 1.344 . S
O146 Co138 2.055 . S
O146 C150 1.253 . S
H147 C143 0.931 . S
H148 C144 0.930 . S
O149 Co138 2.039 . S
O149 C139 1.265 . S
C150 O146 1.253 . S
C150 O151 1.227 . S
O151 C150 1.227 . S
N152 Co138 2.140 . S
N152 C155 1.346 . S
N152 C156 1.345 . S
C153 C154 1.387 . S
C153 C157 1.391 . S
C154 C153 1.387 . S
C154 C155 1.369 . S
C154 H163 0.929 . S
C155 N152 1.346 . S
C155 C154 1.369 . S
C155 H158 0.928 . S
C156 N152 1.345 . S
C156 C157 1.371 . S
C156 H159 0.931 . S
C157 C153 1.391 . S
C157 C156 1.371 . S
C157 H164 0.930 . S
H158 C155 0.928 . S
H159 C156 0.931 . S
H160 C136 0.930 . S
H161 C133 0.930 . S
H162 C142 0.930 . S
H163 C154 0.929 . S
H164 C157 0.930 . S
C165 C166 1.351 . S
C165 N168 1.368 . S
C165 H170 0.931 . S
C166 C165 1.351 . S
C166 N167 1.373 . S
C166 H194 0.930 . S
N167 C166 1.373 . S
N167 C169 1.340 . S
N168 C165 1.368 . S
N168 C169 1.321 . S
N168 Co171 2.135 . S
C169 N167 1.340 . S
C169 N168 1.321 . S
C169 H193 0.930 . S
H170 C165 0.931 . S
Co171 N168 2.135 . S
Co171 N174 2.121 . S
Co171 O179 2.055 . S
Co171 O182 2.039 . S
Co171 N185 2.140 . S
C172 O173 1.227 . S
C172 O182 1.265 . S
O173 C172 1.227 . S
N174 Co171 2.121 . S
N174 C176 1.375 . S
N174 C177 1.313 . S
C175 C176 1.338 . S
C175 N178 1.377 . S
C175 H195 0.930 . S
C176 N174 1.375 . S
C176 C175 1.338 . S
C176 H180 0.931 . S
C177 N174 1.313 . S
C177 N178 1.344 . S
C177 H181 0.930 . S
N178 C175 1.377 . S
N178 C177 1.344 . S
O179 Co171 2.055 . S
O179 C183 1.253 . S
H180 C176 0.931 . S
H181 C177 0.930 . S
O182 Co171 2.039 . S
O182 C172 1.265 . S
C183 O179 1.253 . S
C183 O184 1.227 . S
O184 C183 1.227 . S
N185 Co171 2.140 . S
N185 C188 1.346 . S
N185 C189 1.345 . S
C186 C187 1.387 . S
C186 C190 1.391 . S
C187 C186 1.387 . S
C187 C188 1.369 . S
C187 H196 0.929 . S
C188 N185 1.346 . S
C188 C187 1.369 . S
C188 H191 0.928 . S
C189 N185 1.345 . S
C189 C190 1.371 . S
C189 H192 0.931 . S
C190 C186 1.391 . S
C190 C189 1.371 . S
C190 H197 0.930 . S
H191 C188 0.928 . S
H192 C189 0.931 . S
H193 C169 0.930 . S
H194 C166 0.930 . S
H195 C175 0.930 . S
H196 C187 0.929 . S
H197 C190 0.930 . S
C198 C199 1.351 . S
C198 N201 1.368 . S
C198 H203 0.931 . S
C199 C198 1.351 . S
C199 N200 1.373 . S
C199 H227 0.930 . S
N200 C199 1.373 . S
N200 C202 1.340 . S
N201 C198 1.368 . S
N201 C202 1.321 . S
N201 Co204 2.135 . S
C202 N200 1.340 . S
C202 N201 1.321 . S
C202 H226 0.930 . S
H203 C198 0.931 . S
Co204 N201 2.135 . S
Co204 N207 2.121 . S
Co204 O212 2.055 . S
Co204 O215 2.039 . S
Co204 N218 2.140 . S
C205 O206 1.227 . S
C205 O215 1.265 . S
O206 C205 1.227 . S
N207 Co204 2.121 . S
N207 C209 1.375 . S
N207 C210 1.313 . S
C208 C209 1.338 . S
C208 N211 1.377 . S
C208 H228 0.930 . S
C209 N207 1.375 . S
C209 C208 1.338 . S
C209 H213 0.931 . S
C210 N207 1.313 . S
C210 N211 1.344 . S
C210 H214 0.930 . S
N211 C208 1.377 . S
N211 C210 1.344 . S
O212 Co204 2.055 . S
O212 C216 1.253 . S
H213 C209 0.931 . S
H214 C210 0.930 . S
O215 Co204 2.039 . S
O215 C205 1.265 . S
C216 O212 1.253 . S
C216 O217 1.227 . S
O217 C216 1.227 . S
N218 Co204 2.140 . S
N218 C221 1.346 . S
N218 C222 1.345 . S
C219 C220 1.387 . S
C219 C223 1.391 . S
C220 C219 1.387 . S
C220 C221 1.369 . S
C220 H229 0.929 . S
C221 N218 1.346 . S
C221 C220 1.369 . S
C221 H224 0.928 . S
C222 N218 1.345 . S
C222 C223 1.371 . S
C222 H225 0.931 . S
C223 C219 1.391 . S
C223 C222 1.371 . S
C223 H230 0.930 . S
H224 C221 0.928 . S
H225 C222 0.931 . S
H226 C202 0.930 . S
H227 C199 0.930 . S
H228 C208 0.930 . S
H229 C220 0.929 . S
H230 C223 0.930 . S
C231 C232 1.351 . S
C231 N234 1.368 . S
C231 H236 0.931 . S
C232 C231 1.351 . S
C232 N233 1.373 . S
C232 H260 0.930 . S
N233 C232 1.373 . S
N233 C235 1.340 . S
N234 C231 1.368 . S
N234 C235 1.321 . S
N234 Co237 2.135 . S
C235 N233 1.340 . S
C235 N234 1.321 . S
C235 H259 0.930 . S
H236 C231 0.931 . S
Co237 N234 2.135 . S
Co237 N240 2.121 . S
Co237 O245 2.055 . S
Co237 O248 2.039 . S
Co237 N251 2.140 . S
C238 O239 1.227 . S
C238 O248 1.265 . S
O239 C238 1.227 . S
N240 Co237 2.121 . S
N240 C242 1.375 . S
N240 C243 1.313 . S
C241 C242 1.338 . S
C241 N244 1.377 . S
C241 H261 0.930 . S
C242 N240 1.375 . S
C242 C241 1.338 . S
C242 H246 0.931 . S
C243 N240 1.313 . S
C243 N244 1.344 . S
C243 H247 0.930 . S
N244 C241 1.377 . S
N244 C243 1.344 . S
O245 Co237 2.055 . S
O245 C249 1.253 . S
H246 C242 0.931 . S
H247 C243 0.930 . S
O248 Co237 2.039 . S
O248 C238 1.265 . S
C249 O245 1.253 . S
C249 O250 1.227 . S
O250 C249 1.227 . S
N251 Co237 2.140 . S
N251 C254 1.346 . S
N251 C255 1.345 . S
C252 C253 1.387 . S
C252 C256 1.391 . S
C253 C252 1.387 . S
C253 C254 1.369 . S
C253 H262 0.929 . S
C254 N251 1.346 . S
C254 C253 1.369 . S
C254 H257 0.928 . S
C255 N251 1.345 . S
C255 C256 1.371 . S
C255 H258 0.931 . S
C256 C252 1.391 . S
C256 C255 1.371 . S
C256 H263 0.930 . S
H257 C254 0.928 . S
H258 C255 0.931 . S
H259 C235 0.930 . S
H260 C232 0.930 . S
H261 C241 0.930 . S
H262 C253 0.929 . S
H263 C256 0.930 . S
C264 C265 1.351 . S
C264 N267 1.368 . S
C264 H269 0.931 . S
C265 C264 1.351 . S
C265 N266 1.373 . S
C265 H293 0.930 . S
N266 C265 1.373 . S
N266 C268 1.340 . S
N267 C264 1.368 . S
N267 C268 1.321 . S
N267 Co270 2.135 . S
C268 N266 1.340 . S
C268 N267 1.321 . S
C268 H292 0.930 . S
H269 C264 0.931 . S
Co270 N267 2.135 . S
Co270 N273 2.121 . S
Co270 O278 2.055 . S
Co270 O281 2.039 . S
Co270 N284 2.140 . S
C271 O272 1.227 . S
C271 O281 1.265 . S
O272 C271 1.227 . S
N273 Co270 2.121 . S
N273 C275 1.375 . S
N273 C276 1.313 . S
C274 C275 1.338 . S
C274 N277 1.377 . S
C274 H294 0.930 . S
C275 N273 1.375 . S
C275 C274 1.338 . S
C275 H279 0.931 . S
C276 N273 1.313 . S
C276 N277 1.344 . S
C276 H280 0.930 . S
N277 C274 1.377 . S
N277 C276 1.344 . S
O278 Co270 2.055 . S
O278 C282 1.253 . S
H279 C275 0.931 . S
H280 C276 0.930 . S
O281 Co270 2.039 . S
O281 C271 1.265 . S
C282 O278 1.253 . S
C282 O283 1.227 . S
O283 C282 1.227 . S
N284 Co270 2.140 . S
N284 C287 1.346 . S
N284 C288 1.345 . S
C285 C286 1.387 . S
C285 C289 1.391 . S
C286 C285 1.387 . S
C286 C287 1.369 . S
C286 H295 0.929 . S
C287 N284 1.346 . S
C287 C286 1.369 . S
C287 H290 0.928 . S
C288 N284 1.345 . S
C288 C289 1.371 . S
C288 H291 0.931 . S
C289 C285 1.391 . S
C289 C288 1.371 . S
C289 H296 0.930 . S
H290 C287 0.928 . S
H291 C288 0.931 . S
H292 C268 0.930 . S
H293 C265 0.930 . S
H294 C274 0.930 . S
H295 C286 0.929 . S
H296 C289 0.930 . S
C297 C298 1.351 . S
C297 N300 1.368 . S
C297 H302 0.931 . S
C298 C297 1.351 . S
C298 N299 1.373 . S
C298 H326 0.930 . S
N299 C298 1.373 . S
N299 C301 1.340 . S
N300 C297 1.368 . S
N300 C301 1.321 . S
N300 Co303 2.135 . S
C301 N299 1.340 . S
C301 N300 1.321 . S
C301 H325 0.930 . S
H302 C297 0.931 . S
Co303 N300 2.135 . S
Co303 N306 2.121 . S
Co303 O311 2.055 . S
Co303 O314 2.039 . S
Co303 N317 2.140 . S
C304 O305 1.227 . S
C304 O314 1.265 . S
O305 C304 1.227 . S
N306 Co303 2.121 . S
N306 C308 1.375 . S
N306 C309 1.313 . S
C307 C308 1.338 . S
C307 N310 1.377 . S
C307 H327 0.930 . S
C308 N306 1.375 . S
C308 C307 1.338 . S
C308 H312 0.931 . S
C309 N306 1.313 . S
C309 N310 1.344 . S
C309 H313 0.930 . S
N310 C307 1.377 . S
N310 C309 1.344 . S
O311 Co303 2.055 . S
O311 C315 1.253 . S
H312 C308 0.931 . S
H313 C309 0.930 . S
O314 Co303 2.039 . S
O314 C304 1.265 . S
C315 O311 1.253 . S
C315 O316 1.227 . S
O316 C315 1.227 . S
N317 Co303 2.140 . S
N317 C320 1.346 . S
N317 C321 1.345 . S
C318 C319 1.387 . S
C318 C322 1.391 . S
C319 C318 1.387 . S
C319 C320 1.369 . S
C319 H328 0.929 . S
C320 N317 1.346 . S
C320 C319 1.369 . S
C320 H323 0.928 . S
C321 N317 1.345 . S
C321 C322 1.371 . S
C321 H324 0.931 . S
C322 C318 1.391 . S
C322 C321 1.371 . S
C322 H329 0.930 . S
H323 C320 0.928 . S
H324 C321 0.931 . S
H325 C301 0.930 . S
H326 C298 0.930 . S
H327 C307 0.930 . S
H328 C319 0.929 . S
H329 C322 0.930 . S
C330 C331 1.351 . S
C330 N333 1.368 . S
C330 H335 0.931 . S
C331 C330 1.351 . S
C331 N332 1.373 . S
C331 H359 0.930 . S
N332 C331 1.373 . S
N332 C334 1.340 . S
N333 C330 1.368 . S
N333 C334 1.321 . S
N333 Co336 2.135 . S
C334 N332 1.340 . S
C334 N333 1.321 . S
C334 H358 0.930 . S
H335 C330 0.931 . S
Co336 N333 2.135 . S
Co336 N339 2.121 . S
Co336 O344 2.055 . S
Co336 O347 2.039 . S
Co336 N350 2.140 . S
C337 O338 1.227 . S
C337 O347 1.265 . S
O338 C337 1.227 . S
N339 Co336 2.121 . S
N339 C341 1.375 . S
N339 C342 1.313 . S
C340 C341 1.338 . S
C340 N343 1.377 . S
C340 H360 0.930 . S
C341 N339 1.375 . S
C341 C340 1.338 . S
C341 H345 0.931 . S
C342 N339 1.313 . S
C342 N343 1.344 . S
C342 H346 0.930 . S
N343 C340 1.377 . S
N343 C342 1.344 . S
O344 Co336 2.055 . S
O344 C348 1.253 . S
H345 C341 0.931 . S
H346 C342 0.930 . S
O347 Co336 2.039 . S
O347 C337 1.265 . S
C348 O344 1.253 . S
C348 O349 1.227 . S
O349 C348 1.227 . S
N350 Co336 2.140 . S
N350 C353 1.346 . S
N350 C354 1.345 . S
C351 C352 1.387 . S
C351 C355 1.391 . S
C352 C351 1.387 . S
C352 C353 1.369 . S
C352 H361 0.929 . S
C353 N350 1.346 . S
C353 C352 1.369 . S
C353 H356 0.928 . S
C354 N350 1.345 . S
C354 C355 1.371 . S
C354 H357 0.931 . S
C355 C351 1.391 . S
C355 C354 1.371 . S
C355 H362 0.930 . S
H356 C353 0.928 . S
H357 C354 0.931 . S
H358 C334 0.930 . S
H359 C331 0.930 . S
H360 C340 0.930 . S
H361 C352 0.929 . S
H362 C355 0.930 . S
C363 C364 1.351 . S
C363 N366 1.368 . S
C363 H368 0.931 . S
C364 C363 1.351 . S
C364 N365 1.373 . S
C364 H392 0.930 . S
N365 C364 1.373 . S
N365 C367 1.340 . S
N366 C363 1.368 . S
N366 C367 1.321 . S
N366 Co369 2.135 . S
C367 N365 1.340 . S
C367 N366 1.321 . S
C367 H391 0.930 . S
H368 C363 0.931 . S
Co369 N366 2.135 . S
Co369 N372 2.121 . S
Co369 O377 2.055 . S
Co369 O380 2.039 . S
Co369 N383 2.140 . S
C370 O371 1.227 . S
C370 O380 1.265 . S
O371 C370 1.227 . S
N372 Co369 2.121 . S
N372 C374 1.375 . S
N372 C375 1.313 . S
C373 C374 1.338 . S
C373 N376 1.377 . S
C373 H393 0.930 . S
C374 N372 1.375 . S
C374 C373 1.338 . S
C374 H378 0.931 . S
C375 N372 1.313 . S
C375 N376 1.344 . S
C375 H379 0.930 . S
N376 C373 1.377 . S
N376 C375 1.344 . S
O377 Co369 2.055 . S
O377 C381 1.253 . S
H378 C374 0.931 . S
H379 C375 0.930 . S
O380 Co369 2.039 . S
O380 C370 1.265 . S
C381 O377 1.253 . S
C381 O382 1.227 . S
O382 C381 1.227 . S
N383 Co369 2.140 . S
N383 C386 1.346 . S
N383 C387 1.345 . S
C384 C385 1.387 . S
C384 C388 1.391 . S
C385 C384 1.387 . S
C385 C386 1.369 . S
C385 H394 0.929 . S
C386 N383 1.346 . S
C386 C385 1.369 . S
C386 H389 0.928 . S
C387 N383 1.345 . S
C387 C388 1.371 . S
C387 H390 0.931 . S
C388 C384 1.391 . S
C388 C387 1.371 . S
C388 H395 0.930 . S
H389 C386 0.928 . S
H390 C387 0.931 . S
H391 C367 0.930 . S
H392 C364 0.930 . S
H393 C373 0.930 . S
H394 C385 0.929 . S
H395 C388 0.930 . S
H396 C414 0.951 . S
H397 C416 0.951 . S
H398 C418 0.950 . S
H399 C419 0.950 . S
H400 C421 0.950 . S
H401 C424 0.950 . S
H402 C425 0.950 . S
H403 C427 0.950 . S
H404 C428 0.950 . S
H405 C429 0.951 . S
H406 C431 0.951 . S
H407 C433 0.950 . S
H408 C434 0.950 . S
H409 C436 0.950 . S
H410 C439 0.950 . S
H411 C440 0.950 . S
H412 C442 0.950 . S
H413 C443 0.950 . S
C414 H396 0.951 . S
C414 C415 1.366 . S
C414 C416 1.388 . S
C415 C414 1.366 . S
C415 C419 1.385 . S
C416 H397 0.951 . S
C416 C414 1.388 . S
C416 C417 1.366 . S
C417 C416 1.366 . S
C417 C418 1.414 . S
C417 C420 1.499 . S
C418 H398 0.950 . S
C418 C417 1.414 . S
C418 C419 1.374 . S
C419 H399 0.950 . S
C419 C415 1.385 . S
C419 C418 1.374 . S
C420 C417 1.499 . S
C420 C421 1.373 . S
C420 C422 1.389 . S
C421 H400 0.950 . S
C421 C420 1.373 . S
C421 C437 1.377 . S
C422 C420 1.389 . S
C422 C423 1.524 . S
C422 C436 1.377 . S
C423 C422 1.524 . S
C423 C424 1.397 . S
C423 C428 1.363 . S
C424 H401 0.950 . S
C424 C423 1.397 . S
C424 C425 1.334 . S
C425 H402 0.950 . S
C425 C424 1.334 . S
C425 C426 1.287 . S
C426 C425 1.287 . S
C426 C427 1.524 . S
C426 H445 0.913 . S
C427 H403 0.950 . S
C427 C426 1.524 . S
C427 C428 1.415 . S
C428 H404 0.950 . S
C428 C423 1.363 . S
C428 C427 1.415 . S
C429 H405 0.951 . S
C429 C430 1.366 . S
C429 C431 1.388 . S
C430 C429 1.366 . S
C430 C434 1.385 . S
C431 H406 0.951 . S
C431 C429 1.388 . S
C431 C432 1.366 . S
C432 C431 1.366 . S
C432 C433 1.414 . S
C432 C435 1.499 . S
C433 H407 0.950 . S
C433 C432 1.414 . S
C433 C434 1.374 . S
C434 H408 0.950 . S
C434 C430 1.385 . S
C434 C433 1.374 . S
C435 C432 1.499 . S
C435 C436 1.373 . S
C435 C437 1.389 . S
C436 H409 0.950 . S
C436 C422 1.377 . S
C436 C435 1.373 . S
C437 C421 1.377 . S
C437 C435 1.389 . S
C437 C438 1.524 . S
C438 C437 1.524 . S
C438 C439 1.397 . S
C438 C443 1.363 . S
C439 H410 0.950 . S
C439 C438 1.397 . S
C439 C440 1.334 . S
C440 H411 0.950 . S
C440 C439 1.334 . S
C440 C441 1.287 . S
C441 C440 1.287 . S
C441 C442 1.524 . S
C441 H444 0.999 . S
C442 H412 0.950 . S
C442 C441 1.524 . S
C442 C443 1.415 . S
C443 H413 0.950 . S
C443 C438 1.363 . S
C443 C442 1.415 . S
H444 C441 0.999 . S
H445 C426 0.913 . S
H446 C464 0.951 . S
H447 C466 0.951 . S
H448 C468 0.950 . S
H449 C469 0.950 . S
H450 C471 0.950 . S
H451 C474 0.950 . S
H452 C475 0.950 . S
H453 C477 0.950 . S
H454 C478 0.950 . S
H455 C479 0.951 . S
H456 C481 0.951 . S
H457 C483 0.950 . S
H458 C484 0.950 . S
H459 C486 0.950 . S
H460 C489 0.950 . S
H461 C490 0.950 . S
H462 C492 0.950 . S
H463 C493 0.950 . S
C464 H446 0.951 . S
C464 C465 1.366 . S
C464 C466 1.388 . S
C465 C464 1.366 . S
C465 C469 1.385 . S
C466 H447 0.951 . S
C466 C464 1.388 . S
C466 C467 1.366 . S
C467 C466 1.366 . S
C467 C468 1.414 . S
C467 C470 1.499 . S
C468 H448 0.950 . S
C468 C467 1.414 . S
C468 C469 1.374 . S
C469 H449 0.950 . S
C469 C465 1.385 . S
C469 C468 1.374 . S
C470 C467 1.499 . S
C470 C471 1.373 . S
C470 C472 1.389 . S
C471 H450 0.950 . S
C471 C470 1.373 . S
C471 C487 1.377 . S
C472 C470 1.389 . S
C472 C473 1.524 . S
C472 C486 1.377 . S
C473 C472 1.524 . S
C473 C474 1.397 . S
C473 C478 1.363 . S
C474 H451 0.950 . S
C474 C473 1.397 . S
C474 C475 1.334 . S
C475 H452 0.950 . S
C475 C474 1.334 . S
C475 C476 1.287 . S
C476 C475 1.287 . S
C476 C477 1.524 . S
C476 H495 0.913 . S
C477 H453 0.950 . S
C477 C476 1.524 . S
C477 C478 1.415 . S
C478 H454 0.950 . S
C478 C473 1.363 . S
C478 C477 1.415 . S
C479 H455 0.951 . S
C479 C480 1.366 . S
C479 C481 1.388 . S
C480 C479 1.366 . S
C480 C484 1.385 . S
C481 H456 0.951 . S
C481 C479 1.388 . S
C481 C482 1.366 . S
C482 C481 1.366 . S
C482 C483 1.414 . S
C482 C485 1.499 . S
C483 H457 0.950 . S
C483 C482 1.414 . S
C483 C484 1.374 . S
C484 H458 0.950 . S
C484 C480 1.385 . S
C484 C483 1.374 . S
C485 C482 1.499 . S
C485 C486 1.373 . S
C485 C487 1.389 . S
C486 H459 0.950 . S
C486 C472 1.377 . S
C486 C485 1.373 . S
C487 C471 1.377 . S
C487 C485 1.389 . S
C487 C488 1.524 . S
C488 C487 1.524 . S
C488 C489 1.397 . S
C488 C493 1.363 . S
C489 H460 0.950 . S
C489 C488 1.397 . S
C489 C490 1.334 . S
C490 H461 0.950 . S
C490 C489 1.334 . S
C490 C491 1.287 . S
C491 C490 1.287 . S
C491 C492 1.524 . S
C491 H494 0.999 . S
C492 H462 0.950 . S
C492 C491 1.524 . S
C492 C493 1.415 . S
C493 H463 0.950 . S
C493 C488 1.363 . S
C493 C492 1.415 . S
H494 C491 0.999 . S
H495 C476 0.913 . S
H496 C514 0.951 . S
H497 C516 0.951 . S
H498 C518 0.950 . S
H499 C519 0.950 . S
H500 C521 0.950 . S
H501 C524 0.950 . S
H502 C525 0.950 . S
H503 C527 0.950 . S
H504 C528 0.950 . S
H505 C529 0.951 . S
H506 C531 0.951 . S
H507 C533 0.950 . S
H508 C534 0.950 . S
H509 C536 0.950 . S
H510 C539 0.950 . S
H511 C540 0.950 . S
H512 C542 0.950 . S
H513 C543 0.950 . S
C514 H496 0.951 . S
C514 C515 1.366 . S
C514 C516 1.388 . S
C515 C514 1.366 . S
C515 C519 1.385 . S
C516 H497 0.951 . S
C516 C514 1.388 . S
C516 C517 1.366 . S
C517 C516 1.366 . S
C517 C518 1.414 . S
C517 C520 1.499 . S
C518 H498 0.950 . S
C518 C517 1.414 . S
C518 C519 1.374 . S
C519 H499 0.950 . S
C519 C515 1.385 . S
C519 C518 1.374 . S
C520 C517 1.499 . S
C520 C521 1.373 . S
C520 C522 1.389 . S
C521 H500 0.950 . S
C521 C520 1.373 . S
C521 C537 1.377 . S
C522 C520 1.389 . S
C522 C523 1.524 . S
C522 C536 1.377 . S
C523 C522 1.524 . S
C523 C524 1.397 . S
C523 C528 1.363 . S
C524 H501 0.950 . S
C524 C523 1.397 . S
C524 C525 1.334 . S
C525 H502 0.950 . S
C525 C524 1.334 . S
C525 C526 1.287 . S
C526 C525 1.287 . S
C526 C527 1.524 . S
C526 H545 0.913 . S
C527 H503 0.950 . S
C527 C526 1.524 . S
C527 C528 1.415 . S
C528 H504 0.950 . S
C528 C523 1.363 . S
C528 C527 1.415 . S
C529 H505 0.951 . S
C529 C530 1.366 . S
C529 C531 1.388 . S
C530 C529 1.366 . S
C530 C534 1.385 . S
C531 H506 0.951 . S
C531 C529 1.388 . S
C531 C532 1.366 . S
C532 C531 1.366 . S
C532 C533 1.414 . S
C532 C535 1.499 . S
C533 H507 0.950 . S
C533 C532 1.414 . S
C533 C534 1.374 . S
C534 H508 0.950 . S
C534 C530 1.385 . S
C534 C533 1.374 . S
C535 C532 1.499 . S
C535 C536 1.373 . S
C535 C537 1.389 . S
C536 H509 0.950 . S
C536 C522 1.377 . S
C536 C535 1.373 . S
C537 C521 1.377 . S
C537 C535 1.389 . S
C537 C538 1.524 . S
C538 C537 1.524 . S
C538 C539 1.397 . S
C538 C543 1.363 . S
C539 H510 0.950 . S
C539 C538 1.397 . S
C539 C540 1.334 . S
C540 H511 0.950 . S
C540 C539 1.334 . S
C540 C541 1.287 . S
C541 C540 1.287 . S
C541 C542 1.524 . S
C541 H544 0.999 . S
C542 H512 0.950 . S
C542 C541 1.524 . S
C542 C543 1.415 . S
C543 H513 0.950 . S
C543 C538 1.363 . S
C543 C542 1.415 . S
H544 C541 0.999 . S
H545 C526 0.913 . S
H546 C564 0.951 . S
H547 C566 0.951 . S
H548 C568 0.950 . S
H549 C569 0.950 . S
H550 C571 0.950 . S
H551 C574 0.950 . S
H552 C575 0.950 . S
H553 C577 0.950 . S
H554 C578 0.950 . S
H555 C579 0.951 . S
H556 C581 0.951 . S
H557 C583 0.950 . S
H558 C584 0.950 . S
H559 C586 0.950 . S
H560 C589 0.950 . S
H561 C590 0.950 . S
H562 C592 0.950 . S
H563 C593 0.950 . S
C564 H546 0.951 . S
C564 C565 1.366 . S
C564 C566 1.388 . S
C565 C564 1.366 . S
C565 C569 1.385 . S
C566 H547 0.951 . S
C566 C564 1.388 . S
C566 C567 1.366 . S
C567 C566 1.366 . S
C567 C568 1.414 . S
C567 C570 1.499 . S
C568 H548 0.950 . S
C568 C567 1.414 . S
C568 C569 1.374 . S
C569 H549 0.950 . S
C569 C565 1.385 . S
C569 C568 1.374 . S
C570 C567 1.499 . S
C570 C571 1.373 . S
C570 C572 1.389 . S
C571 H550 0.950 . S
C571 C570 1.373 . S
C571 C587 1.377 . S
C572 C570 1.389 . S
C572 C573 1.524 . S
C572 C586 1.377 . S
C573 C572 1.524 . S
C573 C574 1.397 . S
C573 C578 1.363 . S
C574 H551 0.950 . S
C574 C573 1.397 . S
C574 C575 1.334 . S
C575 H552 0.950 . S
C575 C574 1.334 . S
C575 C576 1.287 . S
C576 C575 1.287 . S
C576 C577 1.524 . S
C576 H595 0.913 . S
C577 H553 0.950 . S
C577 C576 1.524 . S
C577 C578 1.415 . S
C578 H554 0.950 . S
C578 C573 1.363 . S
C578 C577 1.415 . S
C579 H555 0.951 . S
C579 C580 1.366 . S
C579 C581 1.388 . S
C580 C579 1.366 . S
C580 C584 1.385 . S
C581 H556 0.951 . S
C581 C579 1.388 . S
C581 C582 1.366 . S
C582 C581 1.366 . S
C582 C583 1.414 . S
C582 C585 1.499 . S
C583 H557 0.950 . S
C583 C582 1.414 . S
C583 C584 1.374 . S
C584 H558 0.950 . S
C584 C580 1.385 . S
C584 C583 1.374 . S
C585 C582 1.499 . S
C585 C586 1.373 . S
C585 C587 1.389 . S
C586 H559 0.950 . S
C586 C572 1.377 . S
C586 C585 1.373 . S
C587 C571 1.377 . S
C587 C585 1.389 . S
C587 C588 1.524 . S
C588 C587 1.524 . S
C588 C589 1.397 . S
C588 C593 1.363 . S
C589 H560 0.950 . S
C589 C588 1.397 . S
C589 C590 1.334 . S
C590 H561 0.950 . S
C590 C589 1.334 . S
C590 C591 1.287 . S
C591 C590 1.287 . S
C591 C592 1.524 . S
C591 H594 0.999 . S
C592 H562 0.950 . S
C592 C591 1.524 . S
C592 C593 1.415 . S
C593 H563 0.950 . S
C593 C588 1.363 . S
C593 C592 1.415 . S
H594 C591 0.999 . S
H595 C576 0.913 . S
H596 C614 0.951 . S
H597 C616 0.951 . S
H598 C618 0.950 . S
H599 C619 0.950 . S
H600 C621 0.950 . S
H601 C624 0.950 . S
H602 C625 0.950 . S
H603 C627 0.950 . S
H604 C628 0.950 . S
H605 C629 0.951 . S
H606 C631 0.951 . S
H607 C633 0.950 . S
H608 C634 0.950 . S
H609 C636 0.950 . S
H610 C639 0.950 . S
H611 C640 0.950 . S
H612 C642 0.950 . S
H613 C643 0.950 . S
C614 H596 0.951 . S
C614 C615 1.366 . S
C614 C616 1.388 . S
C615 C614 1.366 . S
C615 C619 1.385 . S
C616 H597 0.951 . S
C616 C614 1.388 . S
C616 C617 1.366 . S
C617 C616 1.366 . S
C617 C618 1.414 . S
C617 C620 1.499 . S
C618 H598 0.950 . S
C618 C617 1.414 . S
C618 C619 1.374 . S
C619 H599 0.950 . S
C619 C615 1.385 . S
C619 C618 1.374 . S
C620 C617 1.499 . S
C620 C621 1.373 . S
C620 C622 1.389 . S
C621 H600 0.950 . S
C621 C620 1.373 . S
C621 C637 1.377 . S
C622 C620 1.389 . S
C622 C623 1.524 . S
C622 C636 1.377 . S
C623 C622 1.524 . S
C623 C624 1.397 . S
C623 C628 1.363 . S
C624 H601 0.950 . S
C624 C623 1.397 . S
C624 C625 1.334 . S
C625 H602 0.950 . S
C625 C624 1.334 . S
C625 C626 1.287 . S
C626 C625 1.287 . S
C626 C627 1.524 . S
C626 H645 0.913 . S
C627 H603 0.950 . S
C627 C626 1.524 . S
C627 C628 1.415 . S
C628 H604 0.950 . S
C628 C623 1.363 . S
C628 C627 1.415 . S
C629 H605 0.951 . S
C629 C630 1.366 . S
C629 C631 1.388 . S
C630 C629 1.366 . S
C630 C634 1.385 . S
C631 H606 0.951 . S
C631 C629 1.388 . S
C631 C632 1.366 . S
C632 C631 1.366 . S
C632 C633 1.414 . S
C632 C635 1.499 . S
C633 H607 0.950 . S
C633 C632 1.414 . S
C633 C634 1.374 . S
C634 H608 0.950 . S
C634 C630 1.385 . S
C634 C633 1.374 . S
C635 C632 1.499 . S
C635 C636 1.373 . S
C635 C637 1.389 . S
C636 H609 0.950 . S
C636 C622 1.377 . S
C636 C635 1.373 . S
C637 C621 1.377 . S
C637 C635 1.389 . S
C637 C638 1.524 . S
C638 C637 1.524 . S
C638 C639 1.397 . S
C638 C643 1.363 . S
C639 H610 0.950 . S
C639 C638 1.397 . S
C639 C640 1.334 . S
C640 H611 0.950 . S
C640 C639 1.334 . S
C640 C641 1.287 . S
C641 C640 1.287 . S
C641 C642 1.524 . S
C641 H644 0.999 . S
C642 H612 0.950 . S
C642 C641 1.524 . S
C642 C643 1.415 . S
C643 H613 0.950 . S
C643 C638 1.363 . S
C643 C642 1.415 . S
H644 C641 0.999 . S
H645 C626 0.913 . S
H646 C664 0.951 . S
H647 C666 0.951 . S
H648 C668 0.950 . S
H649 C669 0.950 . S
H650 C671 0.950 . S
H651 C674 0.950 . S
H652 C675 0.950 . S
H653 C677 0.950 . S
H654 C678 0.950 . S
H655 C679 0.951 . S
H656 C681 0.951 . S
H657 C683 0.950 . S
H658 C684 0.950 . S
H659 C686 0.950 . S
H660 C689 0.950 . S
H661 C690 0.950 . S
H662 C692 0.950 . S
H663 C693 0.950 . S
C664 H646 0.951 . S
C664 C665 1.366 . S
C664 C666 1.388 . S
C665 C664 1.366 . S
C665 C669 1.385 . S
C666 H647 0.951 . S
C666 C664 1.388 . S
C666 C667 1.366 . S
C667 C666 1.366 . S
C667 C668 1.414 . S
C667 C670 1.499 . S
C668 H648 0.950 . S
C668 C667 1.414 . S
C668 C669 1.374 . S
C669 H649 0.950 . S
C669 C665 1.385 . S
C669 C668 1.374 . S
C670 C667 1.499 . S
C670 C671 1.373 . S
C670 C672 1.389 . S
C671 H650 0.950 . S
C671 C670 1.373 . S
C671 C687 1.377 . S
C672 C670 1.389 . S
C672 C673 1.524 . S
C672 C686 1.377 . S
C673 C672 1.524 . S
C673 C674 1.397 . S
C673 C678 1.363 . S
C674 H651 0.950 . S
C674 C673 1.397 . S
C674 C675 1.334 . S
C675 H652 0.950 . S
C675 C674 1.334 . S
C675 C676 1.287 . S
C676 C675 1.287 . S
C676 C677 1.524 . S
C676 H695 0.913 . S
C677 H653 0.950 . S
C677 C676 1.524 . S
C677 C678 1.415 . S
C678 H654 0.950 . S
C678 C673 1.363 . S
C678 C677 1.415 . S
C679 H655 0.951 . S
C679 C680 1.366 . S
C679 C681 1.388 . S
C680 C679 1.366 . S
C680 C684 1.385 . S
C681 H656 0.951 . S
C681 C679 1.388 . S
C681 C682 1.366 . S
C682 C681 1.366 . S
C682 C683 1.414 . S
C682 C685 1.499 . S
C683 H657 0.950 . S
C683 C682 1.414 . S
C683 C684 1.374 . S
C684 H658 0.950 . S
C684 C680 1.385 . S
C684 C683 1.374 . S
C685 C682 1.499 . S
C685 C686 1.373 . S
C685 C687 1.389 . S
C686 H659 0.950 . S
C686 C672 1.377 . S
C686 C685 1.373 . S
C687 C671 1.377 . S
C687 C685 1.389 . S
C687 C688 1.524 . S
C688 C687 1.524 . S
C688 C689 1.397 . S
C688 C693 1.363 . S
C689 H660 0.950 . S
C689 C688 1.397 . S
C689 C690 1.334 . S
C690 H661 0.950 . S
C690 C689 1.334 . S
C690 C691 1.287 . S
C691 C690 1.287 . S
C691 C692 1.524 . S
C691 H694 0.999 . S
C692 H662 0.950 . S
C692 C691 1.524 . S
C692 C693 1.415 . S
C693 H663 0.950 . S
C693 C688 1.363 . S
C693 C692 1.415 . S
H694 C691 0.999 . S
H695 C676 0.913 . S
H696 C714 0.951 . S
H697 C716 0.951 . S
H698 C718 0.950 . S
H699 C719 0.950 . S
H700 C721 0.950 . S
H701 C724 0.950 . S
H702 C725 0.950 . S
H703 C727 0.950 . S
H704 C728 0.950 . S
H705 C729 0.951 . S
H706 C731 0.951 . S
H707 C733 0.950 . S
H708 C734 0.950 . S
H709 C736 0.950 . S
H710 C739 0.950 . S
H711 C740 0.950 . S
H712 C742 0.950 . S
H713 C743 0.950 . S
C714 H696 0.951 . S
C714 C715 1.366 . S
C714 C716 1.388 . S
C715 C714 1.366 . S
C715 C719 1.385 . S
C716 H697 0.951 . S
C716 C714 1.388 . S
C716 C717 1.366 . S
C717 C716 1.366 . S
C717 C718 1.414 . S
C717 C720 1.499 . S
C718 H698 0.950 . S
C718 C717 1.414 . S
C718 C719 1.374 . S
C719 H699 0.950 . S
C719 C715 1.385 . S
C719 C718 1.374 . S
C720 C717 1.499 . S
C720 C721 1.373 . S
C720 C722 1.389 . S
C721 H700 0.950 . S
C721 C720 1.373 . S
C721 C737 1.377 . S
C722 C720 1.389 . S
C722 C723 1.524 . S
C722 C736 1.377 . S
C723 C722 1.524 . S
C723 C724 1.397 . S
C723 C728 1.363 . S
C724 H701 0.950 . S
C724 C723 1.397 . S
C724 C725 1.334 . S
C725 H702 0.950 . S
C725 C724 1.334 . S
C725 C726 1.287 . S
C726 C725 1.287 . S
C726 C727 1.524 . S
C726 H745 0.913 . S
C727 H703 0.950 . S
C727 C726 1.524 . S
C727 C728 1.415 . S
C728 H704 0.950 . S
C728 C723 1.363 . S
C728 C727 1.415 . S
C729 H705 0.951 . S
C729 C730 1.366 . S
C729 C731 1.388 . S
C730 C729 1.366 . S
C730 C734 1.385 . S
C731 H706 0.951 . S
C731 C729 1.388 . S
C731 C732 1.366 . S
C732 C731 1.366 . S
C732 C733 1.414 . S
C732 C735 1.499 . S
C733 H707 0.950 . S
C733 C732 1.414 . S
C733 C734 1.374 . S
C734 H708 0.950 . S
C734 C730 1.385 . S
C734 C733 1.374 . S
C735 C732 1.499 . S
C735 C736 1.373 . S
C735 C737 1.389 . S
C736 H709 0.950 . S
C736 C722 1.377 . S
C736 C735 1.373 . S
C737 C721 1.377 . S
C737 C735 1.389 . S
C737 C738 1.524 . S
C738 C737 1.524 . S
C738 C739 1.397 . S
C738 C743 1.363 . S
C739 H710 0.950 . S
C739 C738 1.397 . S
C739 C740 1.334 . S
C740 H711 0.950 . S
C740 C739 1.334 . S
C740 C741 1.287 . S
C741 C740 1.287 . S
C741 C742 1.524 . S
C741 H744 0.999 . S
C742 H712 0.950 . S
C742 C741 1.524 . S
C742 C743 1.415 . S
C743 H713 0.950 . S
C743 C738 1.363 . S
C743 C742 1.415 . S
H744 C741 0.999 . S
H745 C726 0.913 . S
H746 C764 0.951 . S
H747 C766 0.951 . S
H748 C768 0.950 . S
H749 C769 0.950 . S
H750 C771 0.950 . S
H751 C774 0.950 . S
H752 C775 0.950 . S
H753 C777 0.950 . S
H754 C778 0.950 . S
H755 C779 0.951 . S
H756 C781 0.951 . S
H757 C783 0.950 . S
H758 C784 0.950 . S
H759 C786 0.950 . S
H760 C789 0.950 . S
H761 C790 0.950 . S
H762 C792 0.950 . S
H763 C793 0.950 . S
C764 H746 0.951 . S
C764 C765 1.366 . S
C764 C766 1.388 . S
C765 C764 1.366 . S
C765 C769 1.385 . S
C766 H747 0.951 . S
C766 C764 1.388 . S
C766 C767 1.366 . S
C767 C766 1.366 . S
C767 C768 1.414 . S
C767 C770 1.499 . S
C768 H748 0.950 . S
C768 C767 1.414 . S
C768 C769 1.374 . S
C769 H749 0.950 . S
C769 C765 1.385 . S
C769 C768 1.374 . S
C770 C767 1.499 . S
C770 C771 1.373 . S
C770 C772 1.389 . S
C771 H750 0.950 . S
C771 C770 1.373 . S
C771 C787 1.377 . S
C772 C770 1.389 . S
C772 C773 1.524 . S
C772 C786 1.377 . S
C773 C772 1.524 . S
C773 C774 1.397 . S
C773 C778 1.363 . S
C774 H751 0.950 . S
C774 C773 1.397 . S
C774 C775 1.334 . S
C775 H752 0.950 . S
C775 C774 1.334 . S
C775 C776 1.287 . S
C776 C775 1.287 . S
C776 C777 1.524 . S
C776 H795 0.913 . S
C777 H753 0.950 . S
C777 C776 1.524 . S
C777 C778 1.415 . S
C778 H754 0.950 . S
C778 C773 1.363 . S
C778 C777 1.415 . S
C779 H755 0.951 . S
C779 C780 1.366 . S
C779 C781 1.388 . S
C780 C779 1.366 . S
C780 C784 1.385 . S
C781 H756 0.951 . S
C781 C779 1.388 . S
C781 C782 1.366 . S
C782 C781 1.366 . S
C782 C783 1.414 . S
C782 C785 1.499 . S
C783 H757 0.950 . S
C783 C782 1.414 . S
C783 C784 1.374 . S
C784 H758 0.950 . S
C784 C780 1.385 . S
C784 C783 1.374 . S
C785 C782 1.499 . S
C785 C786 1.373 . S
C785 C787 1.389 . S
C786 H759 0.950 . S
C786 C772 1.377 . S
C786 C785 1.373 . S
C787 C771 1.377 . S
C787 C785 1.389 . S
C787 C788 1.524 . S
C788 C787 1.524 . S
C788 C789 1.397 . S
C788 C793 1.363 . S
C789 H760 0.950 . S
C789 C788 1.397 . S
C789 C790 1.334 . S
C790 H761 0.950 . S
C790 C789 1.334 . S
C790 C791 1.287 . S
C791 C790 1.287 . S
C791 C792 1.524 . S
C791 H794 0.999 . S
C792 H762 0.950 . S
C792 C791 1.524 . S
C792 C793 1.415 . S
C793 H763 0.950 . S
C793 C788 1.363 . S
C793 C792 1.415 . S
H794 C791 0.999 . S
H795 C776 0.913 . S
H796 C814 0.951 . S
H797 C816 0.951 . S
H798 C818 0.950 . S
H799 C819 0.950 . S
H800 C821 0.950 . S
H801 C824 0.950 . S
H802 C825 0.950 . S
H803 C827 0.950 . S
H804 C828 0.950 . S
H805 C829 0.951 . S
H806 C831 0.951 . S
H807 C833 0.950 . S
H808 C834 0.950 . S
H809 C836 0.950 . S
H810 C839 0.950 . S
H811 C840 0.950 . S
H812 C842 0.950 . S
H813 C843 0.950 . S
C814 H796 0.951 . S
C814 C815 1.366 . S
C814 C816 1.388 . S
C815 C814 1.366 . S
C815 C819 1.385 . S
C816 H797 0.951 . S
C816 C814 1.388 . S
C816 C817 1.366 . S
C817 C816 1.366 . S
C817 C818 1.414 . S
C817 C820 1.499 . S
C818 H798 0.950 . S
C818 C817 1.414 . S
C818 C819 1.374 . S
C819 H799 0.950 . S
C819 C815 1.385 . S
C819 C818 1.374 . S
C820 C817 1.499 . S
C820 C821 1.373 . S
C820 C822 1.389 . S
C821 H800 0.950 . S
C821 C820 1.373 . S
C821 C837 1.377 . S
C822 C820 1.389 . S
C822 C823 1.524 . S
C822 C836 1.377 . S
C823 C822 1.524 . S
C823 C824 1.397 . S
C823 C828 1.363 . S
C824 H801 0.950 . S
C824 C823 1.397 . S
C824 C825 1.334 . S
C825 H802 0.950 . S
C825 C824 1.334 . S
C825 C826 1.287 . S
C826 C825 1.287 . S
C826 C827 1.524 . S
C826 H845 0.913 . S
C827 H803 0.950 . S
C827 C826 1.524 . S
C827 C828 1.415 . S
C828 H804 0.950 . S
C828 C823 1.363 . S
C828 C827 1.415 . S
C829 H805 0.951 . S
C829 C830 1.366 . S
C829 C831 1.388 . S
C830 C829 1.366 . S
C830 C834 1.385 . S
C831 H806 0.951 . S
C831 C829 1.388 . S
C831 C832 1.366 . S
C832 C831 1.366 . S
C832 C833 1.414 . S
C832 C835 1.499 . S
C833 H807 0.950 . S
C833 C832 1.414 . S
C833 C834 1.374 . S
C834 H808 0.950 . S
C834 C830 1.385 . S
C834 C833 1.374 . S
C835 C832 1.499 . S
C835 C836 1.373 . S
C835 C837 1.389 . S
C836 H809 0.950 . S
C836 C822 1.377 . S
C836 C835 1.373 . S
C837 C821 1.377 . S
C837 C835 1.389 . S
C837 C838 1.524 . S
C838 C837 1.524 . S
C838 C839 1.397 . S
C838 C843 1.363 . S
C839 H810 0.950 . S
C839 C838 1.397 . S
C839 C840 1.334 . S
C840 H811 0.950 . S
C840 C839 1.334 . S
C840 C841 1.287 . S
C841 C840 1.287 . S
C841 C842 1.524 . S
C841 H844 0.999 . S
C842 H812 0.950 . S
C842 C841 1.524 . S
C842 C843 1.415 . S
C843 H813 0.950 . S
C843 C838 1.363 . S
C843 C842 1.415 . S
H844 C841 0.999 . S
H845 C826 0.913 . S
H846 C864 0.951 . S
H847 C866 0.951 . S
H848 C868 0.950 . S
H849 C869 0.950 . S
H850 C871 0.950 . S
H851 C874 0.950 . S
H852 C875 0.950 . S
H853 C877 0.950 . S
H854 C878 0.950 . S
H855 C879 0.951 . S
H856 C881 0.951 . S
H857 C883 0.950 . S
H858 C884 0.950 . S
H859 C886 0.950 . S
H860 C889 0.950 . S
H861 C890 0.950 . S
H862 C892 0.950 . S
H863 C893 0.950 . S
C864 H846 0.951 . S
C864 C865 1.366 . S
C864 C866 1.388 . S
C865 C864 1.366 . S
C865 C869 1.385 . S
C866 H847 0.951 . S
C866 C864 1.388 . S
C866 C867 1.366 . S
C867 C866 1.366 . S
C867 C868 1.414 . S
C867 C870 1.499 . S
C868 H848 0.950 . S
C868 C867 1.414 . S
C868 C869 1.374 . S
C869 H849 0.950 . S
C869 C865 1.385 . S
C869 C868 1.374 . S
C870 C867 1.499 . S
C870 C871 1.373 . S
C870 C872 1.389 . S
C871 H850 0.950 . S
C871 C870 1.373 . S
C871 C887 1.377 . S
C872 C870 1.389 . S
C872 C873 1.524 . S
C872 C886 1.377 . S
C873 C872 1.524 . S
C873 C874 1.397 . S
C873 C878 1.363 . S
C874 H851 0.950 . S
C874 C873 1.397 . S
C874 C875 1.334 . S
C875 H852 0.950 . S
C875 C874 1.334 . S
C875 C876 1.287 . S
C876 C875 1.287 . S
C876 C877 1.524 . S
C876 H895 0.913 . S
C877 H853 0.950 . S
C877 C876 1.524 . S
C877 C878 1.415 . S
C878 H854 0.950 . S
C878 C873 1.363 . S
C878 C877 1.415 . S
C879 H855 0.951 . S
C879 C880 1.366 . S
C879 C881 1.388 . S
C880 C879 1.366 . S
C880 C884 1.385 . S
C881 H856 0.951 . S
C881 C879 1.388 . S
C881 C882 1.366 . S
C882 C881 1.366 . S
C882 C883 1.414 . S
C882 C885 1.499 . S
C883 H857 0.950 . S
C883 C882 1.414 . S
C883 C884 1.374 . S
C884 H858 0.950 . S
C884 C880 1.385 . S
C884 C883 1.374 . S
C885 C882 1.499 . S
C885 C886 1.373 . S
C885 C887 1.389 . S
C886 H859 0.950 . S
C886 C872 1.377 . S
C886 C885 1.373 . S
C887 C871 1.377 . S
C887 C885 1.389 . S
C887 C888 1.524 . S
C888 C887 1.524 . S
C888 C889 1.397 . S
C888 C893 1.363 . S
C889 H860 0.950 . S
C889 C888 1.397 . S
C889 C890 1.334 . S
C890 H861 0.950 . S
C890 C889 1.334 . S
C890 C891 1.287 . S
C891 C890 1.287 . S
C891 C892 1.524 . S
C891 H894 0.999 . S
C892 H862 0.950 . S
C892 C891 1.524 . S
C892 C893 1.415 . S
C893 H863 0.950 . S
C893 C888 1.363 . S
C893 C892 1.415 . S
H894 C891 0.999 . S
H895 C876 0.913 . S
H896 C914 0.951 . S
H897 C916 0.951 . S
H898 C918 0.950 . S
H899 C919 0.950 . S
H900 C921 0.950 . S
H901 C924 0.950 . S
H902 C925 0.950 . S
H903 C927 0.950 . S
H904 C928 0.950 . S
H905 C929 0.951 . S
H906 C931 0.951 . S
H907 C933 0.950 . S
H908 C934 0.950 . S
H909 C936 0.950 . S
H910 C939 0.950 . S
H911 C940 0.950 . S
H912 C942 0.950 . S
H913 C943 0.950 . S
C914 H896 0.951 . S
C914 C915 1.366 . S
C914 C916 1.388 . S
C915 C914 1.366 . S
C915 C919 1.385 . S
C916 H897 0.951 . S
C916 C914 1.388 . S
C916 C917 1.366 . S
C917 C916 1.366 . S
C917 C918 1.414 . S
C917 C920 1.499 . S
C918 H898 0.950 . S
C918 C917 1.414 . S
C918 C919 1.374 . S
C919 H899 0.950 . S
C919 C915 1.385 . S
C919 C918 1.374 . S
C920 C917 1.499 . S
C920 C921 1.373 . S
C920 C922 1.389 . S
C921 H900 0.950 . S
C921 C920 1.373 . S
C921 C937 1.377 . S
C922 C920 1.389 . S
C922 C923 1.524 . S
C922 C936 1.377 . S
C923 C922 1.524 . S
C923 C924 1.397 . S
C923 C928 1.363 . S
C924 H901 0.950 . S
C924 C923 1.397 . S
C924 C925 1.334 . S
C925 H902 0.950 . S
C925 C924 1.334 . S
C925 C926 1.287 . S
C926 C925 1.287 . S
C926 C927 1.524 . S
C926 H945 0.913 . S
C927 H903 0.950 . S
C927 C926 1.524 . S
C927 C928 1.415 . S
C928 H904 0.950 . S
C928 C923 1.363 . S
C928 C927 1.415 . S
C929 H905 0.951 . S
C929 C930 1.366 . S
C929 C931 1.388 . S
C930 C929 1.366 . S
C930 C934 1.385 . S
C931 H906 0.951 . S
C931 C929 1.388 . S
C931 C932 1.366 . S
C932 C931 1.366 . S
C932 C933 1.414 . S
C932 C935 1.499 . S
C933 H907 0.950 . S
C933 C932 1.414 . S
C933 C934 1.374 . S
C934 H908 0.950 . S
C934 C930 1.385 . S
C934 C933 1.374 . S
C935 C932 1.499 . S
C935 C936 1.373 . S
C935 C937 1.389 . S
C936 H909 0.950 . S
C936 C922 1.377 . S
C936 C935 1.373 . S
C937 C921 1.377 . S
C937 C935 1.389 . S
C937 C938 1.524 . S
C938 C937 1.524 . S
C938 C939 1.397 . S
C938 C943 1.363 . S
C939 H910 0.950 . S
C939 C938 1.397 . S
C939 C940 1.334 . S
C940 H911 0.950 . S
C940 C939 1.334 . S
C940 C941 1.287 . S
C941 C940 1.287 . S
C941 C942 1.524 . S
C941 H944 0.999 . S
C942 H912 0.950 . S
C942 C941 1.524 . S
C942 C943 1.415 . S
C943 H913 0.950 . S
C943 C938 1.363 . S
C943 C942 1.415 . S
H944 C941 0.999 . S
H945 C926 0.913 . S
H946 C964 0.951 . S
H947 C966 0.951 . S
H948 C968 0.950 . S
H949 C969 0.950 . S
H950 C971 0.950 . S
H951 C974 0.950 . S
H952 C975 0.950 . S
H953 C977 0.950 . S
H954 C978 0.950 . S
H955 C979 0.951 . S
H956 C981 0.951 . S
H957 C983 0.950 . S
H958 C984 0.950 . S
H959 C986 0.950 . S
H960 C989 0.950 . S
H961 C990 0.950 . S
H962 C992 0.950 . S
H963 C993 0.950 . S
C964 H946 0.951 . S
C964 C965 1.366 . S
C964 C966 1.388 . S
C965 C964 1.366 . S
C965 C969 1.385 . S
C966 H947 0.951 . S
C966 C964 1.388 . S
C966 C967 1.366 . S
C967 C966 1.366 . S
C967 C968 1.414 . S
C967 C970 1.499 . S
C968 H948 0.950 . S
C968 C967 1.414 . S
C968 C969 1.374 . S
C969 H949 0.950 . S
C969 C965 1.385 . S
C969 C968 1.374 . S
C970 C967 1.499 . S
C970 C971 1.373 . S
C970 C972 1.389 . S
C971 H950 0.950 . S
C971 C970 1.373 . S
C971 C987 1.377 . S
C972 C970 1.389 . S
C972 C973 1.524 . S
C972 C986 1.377 . S
C973 C972 1.524 . S
C973 C974 1.397 . S
C973 C978 1.363 . S
C974 H951 0.950 . S
C974 C973 1.397 . S
C974 C975 1.334 . S
C975 H952 0.950 . S
C975 C974 1.334 . S
C975 C976 1.287 . S
C976 C975 1.287 . S
C976 C977 1.524 . S
C976 H995 0.913 . S
C977 H953 0.950 . S
C977 C976 1.524 . S
C977 C978 1.415 . S
C978 H954 0.950 . S
C978 C973 1.363 . S
C978 C977 1.415 . S
C979 H955 0.951 . S
C979 C980 1.366 . S
C979 C981 1.388 . S
C980 C979 1.366 . S
C980 C984 1.385 . S
C981 H956 0.951 . S
C981 C979 1.388 . S
C981 C982 1.366 . S
C982 C981 1.366 . S
C982 C983 1.414 . S
C982 C985 1.499 . S
C983 H957 0.950 . S
C983 C982 1.414 . S
C983 C984 1.374 . S
C984 H958 0.950 . S
C984 C980 1.385 . S
C984 C983 1.374 . S
C985 C982 1.499 . S
C985 C986 1.373 . S
C985 C987 1.389 . S
C986 H959 0.950 . S
C986 C972 1.377 . S
C986 C985 1.373 . S
C987 C971 1.377 . S
C987 C985 1.389 . S
C987 C988 1.524 . S
C988 C987 1.524 . S
C988 C989 1.397 . S
C988 C993 1.363 . S
C989 H960 0.950 . S
C989 C988 1.397 . S
C989 C990 1.334 . S
C990 H961 0.950 . S
C990 C989 1.334 . S
C990 C991 1.287 . S
C991 C990 1.287 . S
C991 C992 1.524 . S
C991 H994 0.999 . S
C992 H962 0.950 . S
C992 C991 1.524 . S
C992 C993 1.415 . S
C993 H963 0.950 . S
C993 C988 1.363 . S
C993 C992 1.415 . S
H994 C991 0.999 . S
H995 C976 0.913 . S
H996 C1014 0.951 . S
H997 C1016 0.951 . S
H998 C1018 0.950 . S
H999 C1019 0.950 . S
H1000 C1021 0.950 . S
H1001 C1024 0.955 . S
H1002 C1025 0.950 . S
H1003 C1027 0.950 . S
H1004 C1028 0.950 . S
H1005 C1029 0.951 . S
H1006 C1031 0.951 . S
H1007 C1033 0.950 1_545 S
H1008 C1034 0.950 . S
H1009 C1036 0.950 . S
H1010 C1039 0.950 . S
H1011 C1040 0.950 . S
H1012 C1042 0.950 . S
H1013 C1043 0.950 1_545 S
C1014 H996 0.951 . S
C1014 C1015 1.366 . S
C1014 C1016 1.388 . S
C1015 C1014 1.366 . S
C1015 C1019 1.385 . S
C1016 H997 0.951 . S
C1016 C1014 1.388 . S
C1016 C1017 1.366 . S
C1017 C1016 1.366 . S
C1017 C1018 1.414 . S
C1017 C1020 1.499 . S
C1018 H998 0.950 . S
C1018 C1017 1.414 . S
C1018 C1019 1.374 . S
C1019 H999 0.950 . S
C1019 C1015 1.385 . S
C1019 C1018 1.374 . S
C1020 C1017 1.499 . S
C1020 C1021 1.373 . S
C1020 C1022 1.389 . S
C1021 H1000 0.950 . S
C1021 C1020 1.373 . S
C1021 C1037 1.377 . S
C1022 C1020 1.389 . S
C1022 C1023 1.524 1_554 S
C1022 C1036 1.377 1_554 S
C1023 C1022 1.524 1_556 S
C1023 C1024 1.397 . S
C1023 C1028 1.363 . S
C1024 H1001 0.955 . S
C1024 C1023 1.397 . S
C1024 C1025 1.334 . S
C1025 H1002 0.950 . S
C1025 C1024 1.334 . S
C1025 C1026 1.287 . S
C1026 C1025 1.287 . S
C1026 C1027 1.524 . S
C1026 H1045 0.913 . S
C1027 H1003 0.950 . S
C1027 C1026 1.524 . S
C1027 C1028 1.415 . S
C1028 H1004 0.950 . S
C1028 C1023 1.363 . S
C1028 C1027 1.415 . S
C1029 H1005 0.951 . S
C1029 C1030 1.366 . S
C1029 C1031 1.388 . S
C1030 C1029 1.366 . S
C1030 C1034 1.385 . S
C1031 H1006 0.951 . S
C1031 C1029 1.388 . S
C1031 C1032 1.366 1_565 S
C1032 C1031 1.366 1_545 S
C1032 C1033 1.414 1_545 S
C1032 C1035 1.499 . S
C1033 H1007 0.950 1_565 S
C1033 C1032 1.414 1_565 S
C1033 C1034 1.374 . S
C1034 H1008 0.950 . S
C1034 C1030 1.385 . S
C1034 C1033 1.374 . S
C1035 C1032 1.499 . S
C1035 C1036 1.373 . S
C1035 C1037 1.389 1_556 S
C1036 H1009 0.950 . S
C1036 C1022 1.377 1_556 S
C1036 C1035 1.373 . S
C1037 C1021 1.377 . S
C1037 C1035 1.389 1_554 S
C1037 C1038 1.524 1_545 S
C1038 C1037 1.524 1_565 S
C1038 C1039 1.397 . S
C1038 C1043 1.363 . S
C1039 H1010 0.950 . S
C1039 C1038 1.397 . S
C1039 C1040 1.334 . S
C1040 H1011 0.950 . S
C1040 C1039 1.334 . S
C1040 C1041 1.287 . S
C1041 C1040 1.287 . S
C1041 C1042 1.524 . S
C1041 H1044 0.999 . S
C1042 H1012 0.950 . S
C1042 C1041 1.524 . S
C1042 C1043 1.415 . S
C1043 H1013 0.950 1_565 S
C1043 C1038 1.363 . S
C1043 C1042 1.415 . S
H1044 C1041 0.999 . S
H1045 C1026 0.913 . S
H1046 C1064 0.951 . S
H1047 C1066 0.951 . S
H1048 C1068 0.950 . S
H1049 C1069 0.950 . S
H1050 C1071 0.950 . S
H1051 C1074 0.950 . S
H1052 C1075 0.950 . S
H1053 C1077 0.950 . S
H1054 C1078 0.950 . S
H1055 C1079 0.951 . S
H1056 C1081 0.951 . S
H1057 C1083 0.950 . S
H1058 C1084 0.950 . S
H1059 C1086 0.950 . S
H1060 C1089 0.950 . S
H1061 C1090 0.950 . S
H1062 C1092 0.950 . S
H1063 C1093 0.950 . S
C1064 H1046 0.951 . S
C1064 C1065 1.366 . S
C1064 C1066 1.388 . S
C1065 C1064 1.366 . S
C1065 C1069 1.385 . S
C1066 H1047 0.951 . S
C1066 C1064 1.388 . S
C1066 C1067 1.366 . S
C1067 C1066 1.366 . S
C1067 C1068 1.414 . S
C1067 C1070 1.499 . S
C1068 H1048 0.950 . S
C1068 C1067 1.414 . S
C1068 C1069 1.374 . S
C1069 H1049 0.950 . S
C1069 C1065 1.385 . S
C1069 C1068 1.374 . S
C1070 C1067 1.499 . S
C1070 C1071 1.373 . S
C1070 C1072 1.389 . S
C1071 H1050 0.950 . S
C1071 C1070 1.373 . S
C1071 C1087 1.377 . S
C1072 C1070 1.389 . S
C1072 C1073 1.524 1_554 S
C1072 C1086 1.377 1_554 S
C1073 C1072 1.524 1_556 S
C1073 C1074 1.390 1_556 S
C1073 C1078 1.370 . S
C1074 H1051 0.950 . S
C1074 C1073 1.390 1_554 S
C1074 C1075 1.334 . S
C1075 H1052 0.950 . S
C1075 C1074 1.334 . S
C1075 C1076 1.287 1_554 S
C1076 C1075 1.287 1_556 S
C1076 C1077 1.524 . S
C1076 H1095 0.913 . S
C1077 H1053 0.950 . S
C1077 C1076 1.524 . S
C1077 C1078 1.415 . S
C1078 H1054 0.950 . S
C1078 C1073 1.370 . S
C1078 C1077 1.415 . S
C1079 H1055 0.951 . S
C1079 C1080 1.366 . S
C1079 C1081 1.388 . S
C1080 C1079 1.366 . S
C1080 C1084 1.385 . S
C1081 H1056 0.951 . S
C1081 C1079 1.388 . S
C1081 C1082 1.366 1_455 S
C1082 C1081 1.366 1_655 S
C1082 C1083 1.414 . S
C1082 C1085 1.499 . S
C1083 H1057 0.950 . S
C1083 C1082 1.414 . S
C1083 C1084 1.374 1_655 S
C1084 H1058 0.950 . S
C1084 C1080 1.385 . S
C1084 C1083 1.374 1_455 S
C1085 C1082 1.499 . S
C1085 C1086 1.373 . S
C1085 C1087 1.389 1_556 S
C1086 H1059 0.950 . S
C1086 C1072 1.377 1_556 S
C1086 C1085 1.373 . S
C1087 C1071 1.377 . S
C1087 C1085 1.389 1_554 S
C1087 C1088 1.524 . S
C1088 C1087 1.524 . S
C1088 C1089 1.397 1_554 S
C1088 C1093 1.363 1_655 S
C1089 H1060 0.950 . S
C1089 C1088 1.397 1_556 S
C1089 C1090 1.334 1_655 S
C1090 H1061 0.950 . S
C1090 C1089 1.334 1_455 S
C1090 C1091 1.287 1_556 S
C1091 C1090 1.287 1_554 S
C1091 C1092 1.524 . S
C1091 H1094 0.999 . S
C1092 H1062 0.950 . S
C1092 C1091 1.524 . S
C1092 C1093 1.415 . S
C1093 H1063 0.950 . S
C1093 C1088 1.363 1_455 S
C1093 C1092 1.415 . S
H1094 C1091 0.999 . S
H1095 C1076 0.913 . S
H1096 C1114 0.951 . S
H1097 C1116 0.951 . S
H1098 C1118 0.950 . S
H1099 C1119 0.950 . S
H1100 C1121 0.950 . S
H1101 C1124 0.948 1_554 S
H1102 C1125 0.950 . S
H1103 C1127 0.950 . S
H1104 C1128 0.953 . S
H1105 C1129 0.951 . S
H1106 C1131 0.951 . S
H1107 C1133 0.950 . S
H1108 C1134 0.950 . S
H1109 C1136 0.950 . S
H1110 C1139 0.950 . S
H1111 C1140 0.950 . S
H1112 C1142 0.950 . S
H1113 C1143 0.950 . S
C1114 H1096 0.951 . S
C1114 C1115 1.366 . S
C1114 C1116 1.388 . S
C1115 C1114 1.366 . S
C1115 C1119 1.385 . S
C1116 H1097 0.951 . S
C1116 C1114 1.388 . S
C1116 C1117 1.366 . S
C1117 C1116 1.366 . S
C1117 C1118 1.414 . S
C1117 C1120 1.499 . S
C1118 H1098 0.950 . S
C1118 C1117 1.414 . S
C1118 C1119 1.374 . S
C1119 H1099 0.950 . S
C1119 C1115 1.385 . S
C1119 C1118 1.374 . S
C1120 C1117 1.499 . S
C1120 C1121 1.373 . S
C1120 C1122 1.389 . S
C1121 H1100 0.950 . S
C1121 C1120 1.373 . S
C1121 C1137 1.377 . S
C1122 C1120 1.389 . S
C1122 C1123 1.524 . S
C1122 C1136 1.377 1_554 S
C1123 C1122 1.524 . S
C1123 C1124 1.394 1_554 S
C1123 C1128 1.363 1_554 S
C1124 H1101 0.948 1_556 S
C1124 C1123 1.394 1_556 S
C1124 C1125 1.340 . S
C1125 H1102 0.950 . S
C1125 C1124 1.340 . S
C1125 C1126 1.287 . S
C1126 C1125 1.287 . S
C1126 C1127 1.524 . S
C1126 H1145 0.913 . S
C1127 H1103 0.950 . S
C1127 C1126 1.524 . S
C1127 C1128 1.415 . S
C1128 H1104 0.953 . S
C1128 C1123 1.363 1_556 S
C1128 C1127 1.415 . S
C1129 H1105 0.951 . S
C1129 C1130 1.366 . S
C1129 C1131 1.388 . S
C1130 C1129 1.366 . S
C1130 C1134 1.385 . S
C1131 H1106 0.951 . S
C1131 C1129 1.388 . S
C1131 C1132 1.366 . S
C1132 C1131 1.366 . S
C1132 C1133 1.414 . S
C1132 C1135 1.499 . S
C1133 H1107 0.950 . S
C1133 C1132 1.414 . S
C1133 C1134 1.374 . S
C1134 H1108 0.950 . S
C1134 C1130 1.385 . S
C1134 C1133 1.374 . S
C1135 C1132 1.499 . S
C1135 C1136 1.373 . S
C1135 C1137 1.389 1_556 S
C1136 H1109 0.950 . S
C1136 C1122 1.377 1_556 S
C1136 C1135 1.373 . S
C1137 C1121 1.377 . S
C1137 C1135 1.389 1_554 S
C1137 C1138 1.524 . S
C1138 C1137 1.524 . S
C1138 C1139 1.397 . S
C1138 C1143 1.363 . S
C1139 H1110 0.950 . S
C1139 C1138 1.397 . S
C1139 C1140 1.334 . S
C1140 H1111 0.950 . S
C1140 C1139 1.334 . S
C1140 C1141 1.287 . S
C1141 C1140 1.287 . S
C1141 C1142 1.524 . S
C1141 H1144 0.999 . S
C1142 H1112 0.950 . S
C1142 C1141 1.524 . S
C1142 C1143 1.415 . S
C1143 H1113 0.950 . S
C1143 C1138 1.363 . S
C1143 C1142 1.415 . S
H1144 C1141 0.999 . S
H1145 C1126 0.913 . S
H1146 C1164 0.951 . S
H1147 C1166 0.951 . S
H1148 C1168 0.950 1_455 S
H1149 C1169 0.950 . S
H1150 C1171 0.950 . S
H1151 C1174 0.950 . S
H1152 C1175 0.950 . S
H1153 C1177 0.950 . S
H1154 C1178 0.950 . S
H1155 C1179 0.951 . S
H1156 C1181 0.951 . S
H1157 C1183 0.950 . S
H1158 C1184 0.950 . S
H1159 C1186 0.950 . S
H1160 C1189 0.950 . S
H1161 C1190 0.950 . S
H1162 C1192 0.950 . S
H1163 C1193 0.950 . S
C1164 H1146 0.951 . S
C1164 C1165 1.366 . S
C1164 C1166 1.388 . S
C1165 C1164 1.366 . S
C1165 C1169 1.385 . S
C1166 H1147 0.951 . S
C1166 C1164 1.388 . S
C1166 C1167 1.366 1_655 S
C1167 C1166 1.366 1_455 S
C1167 C1168 1.414 1_455 S
C1167 C1170 1.499 . S
C1168 H1148 0.950 1_655 S
C1168 C1167 1.414 1_655 S
C1168 C1169 1.374 . S
C1169 H1149 0.950 . S
C1169 C1165 1.385 . S
C1169 C1168 1.374 . S
C1170 C1167 1.499 . S
C1170 C1171 1.373 . S
C1170 C1172 1.389 . S
C1171 H1150 0.950 . S
C1171 C1170 1.373 . S
C1171 C1187 1.377 . S
C1172 C1170 1.389 . S
C1172 C1173 1.524 . S
C1172 C1186 1.377 . S
C1173 C1172 1.524 . S
C1173 C1174 1.397 . S
C1173 C1178 1.363 . S
C1174 H1151 0.950 . S
C1174 C1173 1.397 . S
C1174 C1175 1.334 . S
C1175 H1152 0.950 . S
C1175 C1174 1.334 . S
C1175 C1176 1.287 . S
C1176 C1175 1.287 . S
C1176 C1177 1.524 . S
C1176 H1195 0.913 . S
C1177 H1153 0.950 . S
C1177 C1176 1.524 . S
C1177 C1178 1.415 . S
C1178 H1154 0.950 . S
C1178 C1173 1.363 . S
C1178 C1177 1.415 . S
C1179 H1155 0.951 . S
C1179 C1180 1.366 . S
C1179 C1181 1.388 . S
C1180 C1179 1.366 . S
C1180 C1184 1.385 . S
C1181 H1156 0.951 . S
C1181 C1179 1.388 . S
C1181 C1182 1.366 . S
C1182 C1181 1.366 . S
C1182 C1183 1.414 . S
C1182 C1185 1.499 . S
C1183 H1157 0.950 . S
C1183 C1182 1.414 . S
C1183 C1184 1.374 . S
C1184 H1158 0.950 . S
C1184 C1180 1.385 . S
C1184 C1183 1.374 . S
C1185 C1182 1.499 . S
C1185 C1186 1.373 . S
C1185 C1187 1.389 . S
C1186 H1159 0.950 . S
C1186 C1172 1.377 . S
C1186 C1185 1.373 . S
C1187 C1171 1.377 . S
C1187 C1185 1.389 . S
C1187 C1188 1.524 . S
C1188 C1187 1.524 . S
C1188 C1189 1.397 . S
C1188 C1193 1.363 . S
C1189 H1160 0.950 . S
C1189 C1188 1.397 . S
C1189 C1190 1.334 . S
C1190 H1161 0.950 . S
C1190 C1189 1.334 . S
C1190 C1191 1.287 . S
C1191 C1190 1.287 . S
C1191 C1192 1.524 . S
C1191 H1194 0.999 . S
C1192 H1162 0.950 . S
C1192 C1191 1.524 . S
C1192 C1193 1.415 . S
C1193 H1163 0.950 . S
C1193 C1188 1.363 . S
C1193 C1192 1.415 . S
H1194 C1191 0.999 . S
H1195 C1176 0.913 . S
H1196 C1214 0.951 . S
H1197 C1216 0.951 . S
H1198 C1218 0.950 . S
H1199 C1219 0.950 . S
H1200 C1221 0.950 . S
H1201 C1224 0.950 . S
H1202 C1225 0.950 . S
H1203 C1227 0.950 . S
H1204 C1228 0.950 . S
H1205 C1229 0.951 . S
H1206 C1231 0.951 . S
H1207 C1233 0.950 . S
H1208 C1234 0.950 . S
H1209 C1236 0.950 . S
H1210 C1239 0.950 . S
H1211 C1240 0.950 . S
H1212 C1242 0.950 . S
H1213 C1243 0.950 . S
C1214 H1196 0.951 . S
C1214 C1215 1.366 . S
C1214 C1216 1.388 . S
C1215 C1214 1.366 . S
C1215 C1219 1.385 . S
C1216 H1197 0.951 . S
C1216 C1214 1.388 . S
C1216 C1217 1.366 . S
C1217 C1216 1.366 . S
C1217 C1218 1.414 . S
C1217 C1220 1.499 . S
C1218 H1198 0.950 . S
C1218 C1217 1.414 . S
C1218 C1219 1.374 . S
C1219 H1199 0.950 . S
C1219 C1215 1.385 . S
C1219 C1218 1.374 . S
C1220 C1217 1.499 . S
C1220 C1221 1.373 . S
C1220 C1222 1.389 . S
C1221 H1200 0.950 . S
C1221 C1220 1.373 . S
C1221 C1237 1.377 . S
C1222 C1220 1.389 . S
C1222 C1223 1.524 . S
C1222 C1236 1.377 . S
C1223 C1222 1.524 . S
C1223 C1224 1.397 . S
C1223 C1228 1.363 . S
C1224 H1201 0.950 . S
C1224 C1223 1.397 . S
C1224 C1225 1.334 . S
C1225 H1202 0.950 . S
C1225 C1224 1.334 . S
C1225 C1226 1.287 . S
C1226 C1225 1.287 . S
C1226 C1227 1.524 . S
C1226 H1245 0.913 . S
C1227 H1203 0.950 . S
C1227 C1226 1.524 . S
C1227 C1228 1.415 . S
C1228 H1204 0.950 . S
C1228 C1223 1.363 . S
C1228 C1227 1.415 . S
C1229 H1205 0.951 . S
C1229 C1230 1.366 . S
C1229 C1231 1.388 . S
C1230 C1229 1.366 . S
C1230 C1234 1.385 . S
C1231 H1206 0.951 . S
C1231 C1229 1.388 . S
C1231 C1232 1.366 . S
C1232 C1231 1.366 . S
C1232 C1233 1.414 . S
C1232 C1235 1.499 . S
C1233 H1207 0.950 . S
C1233 C1232 1.414 . S
C1233 C1234 1.374 . S
C1234 H1208 0.950 . S
C1234 C1230 1.385 . S
C1234 C1233 1.374 . S
C1235 C1232 1.499 . S
C1235 C1236 1.373 . S
C1235 C1237 1.389 . S
C1236 H1209 0.950 . S
C1236 C1222 1.377 . S
C1236 C1235 1.373 . S
C1237 C1221 1.377 . S
C1237 C1235 1.389 . S
C1237 C1238 1.524 . S
C1238 C1237 1.524 . S
C1238 C1239 1.397 . S
C1238 C1243 1.363 . S
C1239 H1210 0.950 . S
C1239 C1238 1.397 . S
C1239 C1240 1.334 . S
C1240 H1211 0.950 . S
C1240 C1239 1.334 . S
C1240 C1241 1.287 . S
C1241 C1240 1.287 . S
C1241 C1242 1.524 . S
C1241 H1244 0.999 . S
C1242 H1212 0.950 . S
C1242 C1241 1.524 . S
C1242 C1243 1.415 . S
C1243 H1213 0.950 . S
C1243 C1238 1.363 . S
C1243 C1242 1.415 . S
H1244 C1241 0.999 . S
H1245 C1226 0.913 . S
H1246 C1264 0.951 . S
H1247 C1266 0.951 . S
H1248 C1268 0.950 . S
H1249 C1269 0.950 . S
H1250 C1271 0.950 . S
H1251 C1274 0.950 . S
H1252 C1275 0.950 . S
H1253 C1277 0.950 . S
H1254 C1278 0.950 . S
H1255 C1279 0.951 . S
H1256 C1281 0.951 . S
H1257 C1283 0.950 . S
H1258 C1284 0.950 . S
H1259 C1286 0.950 . S
H1260 C1289 0.950 . S
H1261 C1290 0.950 . S
H1262 C1292 0.950 . S
H1263 C1293 0.950 . S
C1264 H1246 0.951 . S
C1264 C1265 1.366 . S
C1264 C1266 1.388 . S
C1265 C1264 1.366 . S
C1265 C1269 1.385 . S
C1266 H1247 0.951 . S
C1266 C1264 1.388 . S
C1266 C1267 1.366 1_545 S
C1267 C1266 1.366 1_565 S
C1267 C1268 1.414 . S
C1267 C1270 1.499 . S
C1268 H1248 0.950 . S
C1268 C1267 1.414 . S
C1268 C1269 1.374 1_565 S
C1269 H1249 0.950 . S
C1269 C1265 1.385 . S
C1269 C1268 1.374 1_545 S
C1270 C1267 1.499 . S
C1270 C1271 1.373 . S
C1270 C1272 1.389 . S
C1271 H1250 0.950 . S
C1271 C1270 1.373 . S
C1271 C1287 1.377 . S
C1272 C1270 1.389 . S
C1272 C1273 1.524 . S
C1272 C1286 1.377 . S
C1273 C1272 1.524 . S
C1273 C1274 1.397 . S
C1273 C1278 1.363 . S
C1274 H1251 0.950 . S
C1274 C1273 1.397 . S
C1274 C1275 1.334 . S
C1275 H1252 0.950 . S
C1275 C1274 1.334 . S
C1275 C1276 1.287 . S
C1276 C1275 1.287 . S
C1276 C1277 1.524 . S
C1276 H1295 0.913 . S
C1277 H1253 0.950 . S
C1277 C1276 1.524 . S
C1277 C1278 1.415 . S
C1278 H1254 0.950 . S
C1278 C1273 1.363 . S
C1278 C1277 1.415 . S
C1279 H1255 0.951 . S
C1279 C1280 1.366 . S
C1279 C1281 1.388 . S
C1280 C1279 1.366 . S
C1280 C1284 1.385 . S
C1281 H1256 0.951 . S
C1281 C1279 1.388 . S
C1281 C1282 1.366 . S
C1282 C1281 1.366 . S
C1282 C1283 1.414 . S
C1282 C1285 1.499 . S
C1283 H1257 0.950 . S
C1283 C1282 1.414 . S
C1283 C1284 1.374 . S
C1284 H1258 0.950 . S
C1284 C1280 1.385 . S
C1284 C1283 1.374 . S
C1285 C1282 1.499 . S
C1285 C1286 1.373 . S
C1285 C1287 1.389 . S
C1286 H1259 0.950 . S
C1286 C1272 1.377 . S
C1286 C1285 1.373 . S
C1287 C1271 1.377 . S
C1287 C1285 1.389 . S
C1287 C1288 1.524 . S
C1288 C1287 1.524 . S
C1288 C1289 1.397 . S
C1288 C1293 1.363 . S
C1289 H1260 0.950 . S
C1289 C1288 1.397 . S
C1289 C1290 1.334 . S
C1290 H1261 0.950 . S
C1290 C1289 1.334 . S
C1290 C1291 1.287 . S
C1291 C1290 1.287 . S
C1291 C1292 1.524 . S
C1291 H1294 0.999 . S
C1292 H1262 0.950 . S
C1292 C1291 1.524 . S
C1292 C1293 1.415 . S
C1293 H1263 0.950 . S
C1293 C1288 1.363 . S
C1293 C1292 1.415 . S
H1294 C1291 0.999 . S
H1295 C1276 0.913 . S
H1296 C1314 0.951 . S
H1297 C1316 0.951 1_565 S
H1298 C1318 0.950 . S
H1299 C1319 0.950 . S
H1300 C1321 0.964 . S
H1301 C1324 0.950 . S
H1302 C1325 0.950 . S
H1303 C1327 0.950 . S
H1304 C1328 0.950 . S
H1305 C1329 0.951 . S
H1306 C1331 0.951 . S
H1307 C1333 0.950 . S
H1308 C1334 0.950 . S
H1309 C1336 0.950 . S
H1310 C1339 0.950 . S
H1311 C1340 0.950 . S
H1312 C1342 0.950 1_545 S
H1313 C1343 0.950 . S
C1314 H1296 0.951 . S
C1314 C1315 1.366 . S
C1314 C1316 1.388 . S
C1315 C1314 1.366 . S
C1315 C1319 1.385 . S
C1316 H1297 0.951 1_545 S
C1316 C1314 1.388 . S
C1316 C1317 1.366 1_545 S
C1317 C1316 1.366 1_565 S
C1317 C1318 1.414 1_565 S
C1317 C1320 1.499 . S
C1318 H1298 0.950 . S
C1318 C1317 1.414 1_545 S
C1318 C1319 1.374 . S
C1319 H1299 0.950 . S
C1319 C1315 1.385 . S
C1319 C1318 1.374 . S
C1320 C1317 1.499 . S
C1320 C1321 1.373 1_554 S
C1320 C1322 1.389 . S
C1321 H1300 0.964 . S
C1321 C1320 1.373 1_556 S
C1321 C1337 1.377 . S
C1322 C1320 1.389 . S
C1322 C1323 1.524 . S
C1322 C1336 1.377 1_554 S
C1323 C1322 1.524 . S
C1323 C1324 1.397 . S
C1323 C1328 1.363 . S
C1324 H1301 0.950 . S
C1324 C1323 1.397 . S
C1324 C1325 1.334 . S
C1325 H1302 0.950 . S
C1325 C1324 1.334 . S
C1325 C1326 1.287 . S
C1326 C1325 1.287 . S
C1326 C1327 1.524 . S
C1326 H1345 0.913 . S
C1327 H1303 0.950 . S
C1327 C1326 1.524 . S
C1327 C1328 1.415 . S
C1328 H1304 0.950 . S
C1328 C1323 1.363 . S
C1328 C1327 1.415 . S
C1329 H1305 0.951 . S
C1329 C1330 1.366 . S
C1329 C1331 1.388 . S
C1330 C1329 1.366 . S
C1330 C1334 1.385 . S
C1331 H1306 0.951 . S
C1331 C1329 1.388 . S
C1331 C1332 1.366 . S
C1332 C1331 1.366 . S
C1332 C1333 1.414 . S
C1332 C1335 1.499 . S
C1333 H1307 0.950 . S
C1333 C1332 1.414 . S
C1333 C1334 1.374 . S
C1334 H1308 0.950 . S
C1334 C1330 1.385 . S
C1334 C1333 1.374 . S
C1335 C1332 1.499 . S
C1335 C1336 1.373 . S
C1335 C1337 1.389 . S
C1336 H1309 0.950 . S
C1336 C1322 1.377 1_556 S
C1336 C1335 1.373 . S
C1337 C1321 1.377 . S
C1337 C1335 1.389 . S
C1337 C1338 1.524 . S
C1338 C1337 1.524 . S
C1338 C1339 1.397 . S
C1338 C1343 1.363 . S
C1339 H1310 0.950 . S
C1339 C1338 1.397 . S
C1339 C1340 1.334 . S
C1340 H1311 0.950 . S
C1340 C1339 1.334 . S
C1340 C1341 1.287 . S
C1341 C1340 1.287 . S
C1341 C1342 1.524 . S
C1341 H1344 0.999 1_565 S
C1342 H1312 0.950 1_565 S
C1342 C1341 1.524 . S
C1342 C1343 1.415 . S
C1343 H1313 0.950 . S
C1343 C1338 1.363 . S
C1343 C1342 1.415 . S
H1344 C1341 0.999 1_545 S
H1345 C1326 0.913 . S
H1346 C1364 0.951 . S
H1347 C1366 0.951 . S
H1348 C1368 0.950 . S
H1349 C1369 0.950 . S
H1350 C1371 0.950 . S
H1351 C1374 0.950 . S
H1352 C1375 0.950 . S
H1353 C1377 0.949 1_655 S
H1354 C1378 0.950 . S
H1355 C1379 0.951 . S
H1356 C1381 0.951 . S
H1357 C1383 0.950 . S
H1358 C1384 0.950 . S
H1359 C1386 0.950 . S
H1360 C1389 0.950 . S
H1361 C1390 0.950 . S
H1362 C1392 0.962 . S
H1363 C1393 0.950 . S
C1364 H1346 0.951 . S
C1364 C1365 1.366 . S
C1364 C1366 1.388 . S
C1365 C1364 1.366 . S
C1365 C1369 1.385 . S
C1366 H1347 0.951 . S
C1366 C1364 1.388 . S
C1366 C1367 1.366 1_655 S
C1367 C1366 1.366 1_455 S
C1367 C1368 1.414 . S
C1367 C1370 1.499 . S
C1368 H1348 0.950 . S
C1368 C1367 1.414 . S
C1368 C1369 1.374 1_455 S
C1369 H1349 0.950 . S
C1369 C1365 1.385 . S
C1369 C1368 1.374 1_655 S
C1370 C1367 1.499 . S
C1370 C1371 1.373 . S
C1370 C1372 1.387 . S
C1371 H1350 0.950 . S
C1371 C1370 1.373 . S
C1371 C1387 1.377 1_554 S
C1372 C1370 1.387 . S
C1372 C1373 1.524 . S
C1372 C1386 1.380 1_554 S
C1373 C1372 1.524 . S
C1373 C1374 1.397 . S
C1373 C1378 1.363 1_554 S
C1374 H1351 0.950 . S
C1374 C1373 1.397 . S
C1374 C1375 1.334 . S
C1375 H1352 0.950 . S
C1375 C1374 1.334 . S
C1375 C1376 1.287 . S
C1376 C1375 1.287 . S
C1376 C1377 1.524 1_554 S
C1376 H1395 0.913 . S
C1377 H1353 0.949 1_455 S
C1377 C1376 1.524 1_556 S
C1377 C1378 1.415 . S
C1378 H1354 0.950 . S
C1378 C1373 1.363 1_556 S
C1378 C1377 1.415 . S
C1379 H1355 0.951 . S
C1379 C1380 1.366 . S
C1379 C1381 1.388 . S
C1380 C1379 1.366 . S
C1380 C1384 1.385 . S
C1381 H1356 0.951 . S
C1381 C1379 1.388 . S
C1381 C1382 1.366 . S
C1382 C1381 1.366 . S
C1382 C1383 1.414 . S
C1382 C1385 1.499 . S
C1383 H1357 0.950 . S
C1383 C1382 1.414 . S
C1383 C1384 1.374 . S
C1384 H1358 0.950 . S
C1384 C1380 1.385 . S
C1384 C1383 1.374 . S
C1385 C1382 1.499 . S
C1385 C1386 1.373 . S
C1385 C1387 1.389 . S
C1386 H1359 0.950 . S
C1386 C1372 1.380 1_556 S
C1386 C1385 1.373 . S
C1387 C1371 1.377 1_556 S
C1387 C1385 1.389 . S
C1387 C1388 1.524 . S
C1388 C1387 1.524 . S
C1388 C1389 1.397 . S
C1388 C1393 1.363 1_556 S
C1389 H1360 0.950 . S
C1389 C1388 1.397 . S
C1389 C1390 1.334 . S
C1390 H1361 0.950 . S
C1390 C1389 1.334 . S
C1390 C1391 1.287 . S
C1391 C1390 1.287 . S
C1391 C1392 1.506 1_556 S
C1391 H1394 0.999 . S
C1392 H1362 0.962 . S
C1392 C1391 1.506 1_554 S
C1392 C1393 1.418 . S
C1393 H1363 0.950 . S
C1393 C1388 1.363 1_554 S
C1393 C1392 1.418 . S
H1394 C1391 0.999 . S
H1395 C1376 0.913 . S
H1396 C1414 0.951 . S
H1397 C1416 0.951 . S
H1398 C1418 0.950 . S
H1399 C1419 0.950 . S
H1400 C1421 0.950 . S
H1401 C1424 0.950 . S
H1402 C1425 0.950 . S
H1403 C1427 0.950 . S
H1404 C1428 0.950 . S
H1405 C1429 0.951 . S
H1406 C1431 0.951 . S
H1407 C1433 0.950 . S
H1408 C1434 0.950 . S
H1409 C1436 0.944 1_554 S
H1410 C1439 0.950 . S
H1411 C1440 0.950 . S
H1412 C1442 0.950 . S
H1413 C1443 0.950 . S
C1414 H1396 0.951 . S
C1414 C1415 1.366 . S
C1414 C1416 1.388 . S
C1415 C1414 1.366 . S
C1415 C1419 1.385 . S
C1416 H1397 0.951 . S
C1416 C1414 1.388 . S
C1416 C1417 1.366 . S
C1417 C1416 1.366 . S
C1417 C1418 1.414 . S
C1417 C1420 1.499 . S
C1418 H1398 0.950 . S
C1418 C1417 1.414 . S
C1418 C1419 1.374 . S
C1419 H1399 0.950 . S
C1419 C1415 1.385 . S
C1419 C1418 1.374 . S
C1420 C1417 1.499 . S
C1420 C1421 1.373 . S
C1420 C1422 1.389 . S
C1421 H1400 0.950 . S
C1421 C1420 1.373 . S
C1421 C1437 1.377 1_556 S
C1422 C1420 1.389 . S
C1422 C1423 1.524 . S
C1422 C1436 1.417 . S
C1423 C1422 1.524 . S
C1423 C1424 1.397 . S
C1423 C1428 1.363 . S
C1424 H1401 0.950 . S
C1424 C1423 1.397 . S
C1424 C1425 1.334 . S
C1425 H1402 0.950 . S
C1425 C1424 1.334 . S
C1425 C1426 1.287 . S
C1426 C1425 1.287 . S
C1426 C1427 1.524 . S
C1426 H1445 0.913 . S
C1427 H1403 0.950 . S
C1427 C1426 1.524 . S
C1427 C1428 1.415 . S
C1428 H1404 0.950 . S
C1428 C1423 1.363 . S
C1428 C1427 1.415 . S
C1429 H1405 0.951 . S
C1429 C1430 1.366 . S
C1429 C1431 1.388 . S
C1430 C1429 1.366 . S
C1430 C1434 1.385 . S
C1431 H1406 0.951 . S
C1431 C1429 1.388 . S
C1431 C1432 1.366 . S
C1432 C1431 1.366 . S
C1432 C1433 1.414 . S
C1432 C1435 1.499 . S
C1433 H1407 0.950 . S
C1433 C1432 1.414 . S
C1433 C1434 1.374 . S
C1434 H1408 0.950 . S
C1434 C1430 1.385 . S
C1434 C1433 1.374 . S
C1435 C1432 1.499 . S
C1435 C1436 1.341 1_554 S
C1435 C1437 1.389 . S
C1436 H1409 0.944 1_556 S
C1436 C1422 1.417 . S
C1436 C1435 1.341 1_556 S
C1437 C1421 1.377 1_554 S
C1437 C1435 1.389 . S
C1437 C1438 1.524 . S
C1438 C1437 1.524 . S
C1438 C1439 1.397 . S
C1438 C1443 1.363 . S
C1439 H1410 0.950 . S
C1439 C1438 1.397 . S
C1439 C1440 1.334 . S
C1440 H1411 0.950 . S
C1440 C1439 1.334 . S
C1440 C1441 1.287 . S
C1441 C1440 1.287 . S
C1441 C1442 1.524 . S
C1441 H1444 0.999 . S
C1442 H1412 0.950 . S
C1442 C1441 1.524 . S
C1442 C1443 1.415 . S
C1443 H1413 0.950 . S
C1443 C1438 1.363 . S
C1443 C1442 1.415 . S
H1444 C1441 0.999 . S
H1445 C1426 0.913 . S
H1446 C1464 0.951 . S
H1447 C1466 0.951 . S
H1448 C1468 0.950 . S
H1449 C1469 0.950 . S
H1450 C1471 0.950 . S
H1451 C1474 0.950 . S
H1452 C1475 0.950 . S
H1453 C1477 0.950 . S
H1454 C1478 0.950 . S
H1455 C1479 0.951 . S
H1456 C1481 0.951 . S
H1457 C1483 0.950 . S
H1458 C1484 0.950 . S
H1459 C1486 0.950 . S
H1460 C1489 0.950 . S
H1461 C1490 0.950 . S
H1462 C1492 0.950 1_455 S
H1463 C1493 0.950 1_455 S
C1464 H1446 0.951 . S
C1464 C1465 1.366 . S
C1464 C1466 1.388 1_455 S
C1465 C1464 1.366 . S
C1465 C1469 1.385 . S
C1466 H1447 0.951 . S
C1466 C1464 1.388 1_655 S
C1466 C1467 1.366 . S
C1467 C1466 1.366 . S
C1467 C1468 1.414 1_655 S
C1467 C1470 1.499 . S
C1468 H1448 0.950 . S
C1468 C1467 1.414 1_455 S
C1468 C1469 1.374 . S
C1469 H1449 0.950 . S
C1469 C1465 1.385 . S
C1469 C1468 1.374 . S
C1470 C1467 1.499 . S
C1470 C1471 1.373 . S
C1470 C1472 1.389 . S
C1471 H1450 0.950 . S
C1471 C1470 1.373 . S
C1471 C1487 1.377 . S
C1472 C1470 1.389 . S
C1472 C1473 1.524 . S
C1472 C1486 1.377 . S
C1473 C1472 1.524 . S
C1473 C1474 1.397 . S
C1473 C1478 1.363 . S
C1474 H1451 0.950 . S
C1474 C1473 1.397 . S
C1474 C1475 1.334 . S
C1475 H1452 0.950 . S
C1475 C1474 1.334 . S
C1475 C1476 1.287 . S
C1476 C1475 1.287 . S
C1476 C1477 1.524 . S
C1476 H1495 0.913 . S
C1477 H1453 0.950 . S
C1477 C1476 1.524 . S
C1477 C1478 1.415 . S
C1478 H1454 0.950 . S
C1478 C1473 1.363 . S
C1478 C1477 1.415 . S
C1479 H1455 0.951 . S
C1479 C1480 1.366 . S
C1479 C1481 1.388 . S
C1480 C1479 1.366 . S
C1480 C1484 1.385 . S
C1481 H1456 0.951 . S
C1481 C1479 1.388 . S
C1481 C1482 1.366 . S
C1482 C1481 1.366 . S
C1482 C1483 1.414 . S
C1482 C1485 1.499 . S
C1483 H1457 0.950 . S
C1483 C1482 1.414 . S
C1483 C1484 1.374 . S
C1484 H1458 0.950 . S
C1484 C1480 1.385 . S
C1484 C1483 1.374 . S
C1485 C1482 1.499 . S
C1485 C1486 1.373 . S
C1485 C1487 1.389 . S
C1486 H1459 0.950 . S
C1486 C1472 1.377 . S
C1486 C1485 1.373 . S
C1487 C1471 1.377 . S
C1487 C1485 1.389 . S
C1487 C1488 1.524 . S
C1488 C1487 1.524 . S
C1488 C1489 1.397 . S
C1488 C1493 1.363 . S
C1489 H1460 0.950 . S
C1489 C1488 1.397 . S
C1489 C1490 1.334 . S
C1490 H1461 0.950 . S
C1490 C1489 1.334 . S
C1490 C1491 1.287 . S
C1491 C1490 1.287 . S
C1491 C1492 1.524 . S
C1491 H1494 0.999 . S
C1492 H1462 0.950 1_655 S
C1492 C1491 1.524 . S
C1492 C1493 1.415 . S
C1493 H1463 0.950 1_655 S
C1493 C1488 1.363 . S
C1493 C1492 1.415 . S
H1494 C1491 0.999 . S
H1495 C1476 0.913 . S
H1496 C1514 0.951 . S
H1497 C1516 0.951 . S
H1498 C1518 0.950 . S
H1499 C1519 0.950 . S
H1500 C1521 0.950 . S
H1501 C1524 0.950 . S
H1502 C1525 0.950 . S
H1503 C1527 0.950 . S
H1504 C1528 0.950 . S
H1505 C1529 0.951 . S
H1506 C1531 0.951 . S
H1507 C1533 0.950 . S
H1508 C1534 0.950 . S
H1509 C1536 0.950 . S
H1510 C1539 0.950 . S
H1511 C1540 0.950 . S
H1512 C1542 0.950 . S
H1513 C1543 0.950 . S
C1514 H1496 0.951 . S
C1514 C1515 1.366 . S
C1514 C1516 1.388 . S
C1515 C1514 1.366 . S
C1515 C1519 1.385 . S
C1516 H1497 0.951 . S
C1516 C1514 1.388 . S
C1516 C1517 1.366 . S
C1517 C1516 1.366 . S
C1517 C1518 1.414 . S
C1517 C1520 1.499 . S
C1518 H1498 0.950 . S
C1518 C1517 1.414 . S
C1518 C1519 1.374 . S
C1519 H1499 0.950 . S
C1519 C1515 1.385 . S
C1519 C1518 1.374 . S
C1520 C1517 1.499 . S
C1520 C1521 1.373 . S
C1520 C1522 1.389 . S
C1521 H1500 0.950 . S
C1521 C1520 1.373 . S
C1521 C1537 1.377 . S
C1522 C1520 1.389 . S
C1522 C1523 1.524 . S
C1522 C1536 1.377 . S
C1523 C1522 1.524 . S
C1523 C1524 1.397 . S
C1523 C1528 1.363 . S
C1524 H1501 0.950 . S
C1524 C1523 1.397 . S
C1524 C1525 1.334 . S
C1525 H1502 0.950 . S
C1525 C1524 1.334 . S
C1525 C1526 1.287 . S
C1526 C1525 1.287 . S
C1526 C1527 1.524 . S
C1526 H1545 0.913 . S
C1527 H1503 0.950 . S
C1527 C1526 1.524 . S
C1527 C1528 1.415 . S
C1528 H1504 0.950 . S
C1528 C1523 1.363 . S
C1528 C1527 1.415 . S
C1529 H1505 0.951 . S
C1529 C1530 1.366 . S
C1529 C1531 1.388 . S
C1530 C1529 1.366 . S
C1530 C1534 1.385 . S
C1531 H1506 0.951 . S
C1531 C1529 1.388 . S
C1531 C1532 1.366 . S
C1532 C1531 1.366 . S
C1532 C1533 1.414 . S
C1532 C1535 1.499 . S
C1533 H1507 0.950 . S
C1533 C1532 1.414 . S
C1533 C1534 1.374 . S
C1534 H1508 0.950 . S
C1534 C1530 1.385 . S
C1534 C1533 1.374 . S
C1535 C1532 1.499 . S
C1535 C1536 1.373 . S
C1535 C1537 1.389 . S
C1536 H1509 0.950 . S
C1536 C1522 1.377 . S
C1536 C1535 1.373 . S
C1537 C1521 1.377 . S
C1537 C1535 1.389 . S
C1537 C1538 1.524 . S
C1538 C1537 1.524 . S
C1538 C1539 1.397 . S
C1538 C1543 1.363 . S
C1539 H1510 0.950 . S
C1539 C1538 1.397 . S
C1539 C1540 1.334 . S
C1540 H1511 0.950 . S
C1540 C1539 1.334 . S
C1540 C1541 1.287 . S
C1541 C1540 1.287 . S
C1541 C1542 1.524 . S
C1541 H1544 0.999 . S
C1542 H1512 0.950 . S
C1542 C1541 1.524 . S
C1542 C1543 1.415 . S
C1543 H1513 0.950 . S
C1543 C1538 1.363 . S
C1543 C1542 1.415 . S
H1544 C1541 0.999 . S
H1545 C1526 0.913 . S
H1546 C1564 0.951 . S
H1547 C1566 0.951 . S
H1548 C1568 0.950 . S
H1549 C1569 0.950 . S
H1550 C1571 0.950 . S
H1551 C1574 0.950 . S
H1552 C1575 0.950 . S
H1553 C1577 0.950 . S
H1554 C1578 0.950 . S
H1555 C1579 0.951 . S
H1556 C1581 0.951 . S
H1557 C1583 0.950 . S
H1558 C1584 0.950 . S
H1559 C1586 0.950 . S
H1560 C1589 0.950 . S
H1561 C1590 0.950 . S
H1562 C1592 0.950 . S
H1563 C1593 0.950 . S
C1564 H1546 0.951 . S
C1564 C1565 1.366 . S
C1564 C1566 1.388 . S
C1565 C1564 1.366 . S
C1565 C1569 1.385 . S
C1566 H1547 0.951 . S
C1566 C1564 1.388 . S
C1566 C1567 1.366 . S
C1567 C1566 1.366 . S
C1567 C1568 1.414 . S
C1567 C1570 1.499 . S
C1568 H1548 0.950 . S
C1568 C1567 1.414 . S
C1568 C1569 1.374 . S
C1569 H1549 0.950 . S
C1569 C1565 1.385 . S
C1569 C1568 1.374 . S
C1570 C1567 1.499 . S
C1570 C1571 1.373 . S
C1570 C1572 1.389 . S
C1571 H1550 0.950 . S
C1571 C1570 1.373 . S
C1571 C1587 1.377 . S
C1572 C1570 1.389 . S
C1572 C1573 1.524 . S
C1572 C1586 1.377 . S
C1573 C1572 1.524 . S
C1573 C1574 1.397 . S
C1573 C1578 1.363 . S
C1574 H1551 0.950 . S
C1574 C1573 1.397 . S
C1574 C1575 1.334 . S
C1575 H1552 0.950 . S
C1575 C1574 1.334 . S
C1575 C1576 1.287 . S
C1576 C1575 1.287 . S
C1576 C1577 1.524 . S
C1576 H1595 0.913 . S
C1577 H1553 0.950 . S
C1577 C1576 1.524 . S
C1577 C1578 1.415 . S
C1578 H1554 0.950 . S
C1578 C1573 1.363 . S
C1578 C1577 1.415 . S
C1579 H1555 0.951 . S
C1579 C1580 1.366 . S
C1579 C1581 1.388 . S
C1580 C1579 1.366 . S
C1580 C1584 1.385 . S
C1581 H1556 0.951 . S
C1581 C1579 1.388 . S
C1581 C1582 1.366 1_565 S
C1582 C1581 1.366 1_545 S
C1582 C1583 1.414 . S
C1582 C1585 1.499 . S
C1583 H1557 0.950 . S
C1583 C1582 1.414 . S
C1583 C1584 1.374 1_545 S
C1584 H1558 0.950 . S
C1584 C1580 1.385 . S
C1584 C1583 1.374 1_565 S
C1585 C1582 1.499 . S
C1585 C1586 1.373 . S
C1585 C1587 1.389 . S
C1586 H1559 0.950 . S
C1586 C1572 1.377 . S
C1586 C1585 1.373 . S
C1587 C1571 1.377 . S
C1587 C1585 1.389 . S
C1587 C1588 1.524 1_545 S
C1588 C1587 1.524 1_565 S
C1588 C1589 1.397 . S
C1588 C1593 1.363 . S
C1589 H1560 0.950 . S
C1589 C1588 1.397 . S
C1589 C1590 1.334 . S
C1590 H1561 0.950 . S
C1590 C1589 1.334 . S
C1590 C1591 1.287 . S
C1591 C1590 1.287 . S
C1591 C1592 1.524 . S
C1591 H1594 0.999 . S
C1592 H1562 0.950 . S
C1592 C1591 1.524 . S
C1592 C1593 1.415 . S
C1593 H1563 0.950 . S
C1593 C1588 1.363 . S
C1593 C1592 1.415 . S
H1594 C1591 0.999 . S
H1595 C1576 0.913 . S
H1596 C1614 0.951 . S
H1597 C1616 0.951 . S
H1598 C1618 0.950 . S
H1599 C1619 0.950 . S
H1600 C1621 0.950 . S
H1601 C1624 0.950 . S
H1602 C1625 0.950 . S
H1603 C1627 0.950 . S
H1604 C1628 0.950 . S
H1605 C1629 0.951 . S
H1606 C1631 0.951 . S
H1607 C1633 0.950 . S
H1608 C1634 0.950 . S
H1609 C1636 0.950 . S
H1610 C1639 0.950 . S
H1611 C1640 0.950 . S
H1612 C1642 0.950 . S
H1613 C1643 0.950 . S
C1614 H1596 0.951 . S
C1614 C1615 1.366 . S
C1614 C1616 1.388 . S
C1615 C1614 1.366 . S
C1615 C1619 1.385 . S
C1616 H1597 0.951 . S
C1616 C1614 1.388 . S
C1616 C1617 1.366 . S
C1617 C1616 1.366 . S
C1617 C1618 1.414 . S
C1617 C1620 1.499 . S
C1618 H1598 0.950 . S
C1618 C1617 1.414 . S
C1618 C1619 1.374 . S
C1619 H1599 0.950 . S
C1619 C1615 1.385 . S
C1619 C1618 1.374 . S
C1620 C1617 1.499 . S
C1620 C1621 1.373 . S
C1620 C1622 1.389 . S
C1621 H1600 0.950 . S
C1621 C1620 1.373 . S
C1621 C1637 1.377 . S
C1622 C1620 1.389 . S
C1622 C1623 1.524 . S
C1622 C1636 1.377 . S
C1623 C1622 1.524 . S
C1623 C1624 1.397 . S
C1623 C1628 1.363 . S
C1624 H1601 0.950 . S
C1624 C1623 1.397 . S
C1624 C1625 1.334 . S
C1625 H1602 0.950 . S
C1625 C1624 1.334 . S
C1625 C1626 1.287 . S
C1626 C1625 1.287 . S
C1626 C1627 1.524 . S
C1626 H1645 0.913 . S
C1627 H1603 0.950 . S
C1627 C1626 1.524 . S
C1627 C1628 1.415 . S
C1628 H1604 0.950 . S
C1628 C1623 1.363 . S
C1628 C1627 1.415 . S
C1629 H1605 0.951 . S
C1629 C1630 1.366 . S
C1629 C1631 1.388 . S
C1630 C1629 1.366 . S
C1630 C1634 1.385 . S
C1631 H1606 0.951 . S
C1631 C1629 1.388 . S
C1631 C1632 1.366 . S
C1632 C1631 1.366 . S
C1632 C1633 1.414 . S
C1632 C1635 1.499 . S
C1633 H1607 0.950 . S
C1633 C1632 1.414 . S
C1633 C1634 1.374 . S
C1634 H1608 0.950 . S
C1634 C1630 1.385 . S
C1634 C1633 1.374 . S
C1635 C1632 1.499 . S
C1635 C1636 1.373 . S
C1635 C1637 1.389 . S
C1636 H1609 0.950 . S
C1636 C1622 1.377 . S
C1636 C1635 1.373 . S
C1637 C1621 1.377 . S
C1637 C1635 1.389 . S
C1637 C1638 1.524 . S
C1638 C1637 1.524 . S
C1638 C1639 1.397 . S
C1638 C1643 1.363 . S
C1639 H1610 0.950 . S
C1639 C1638 1.397 . S
C1639 C1640 1.334 . S
C1640 H1611 0.950 . S
C1640 C1639 1.334 . S
C1640 C1641 1.287 . S
C1641 C1640 1.287 . S
C1641 C1642 1.524 . S
C1641 H1644 0.999 . S
C1642 H1612 0.950 . S
C1642 C1641 1.524 . S
C1642 C1643 1.415 . S
C1643 H1613 0.950 . S
C1643 C1638 1.363 . S
C1643 C1642 1.415 . S
H1644 C1641 0.999 . S
H1645 C1626 0.913 . S
H1646 C1664 0.951 . S
H1647 C1666 0.951 . S
H1648 C1668 0.950 . S
H1649 C1669 0.950 . S
H1650 C1671 0.950 . S
H1651 C1674 0.950 . S
H1652 C1675 0.950 . S
H1653 C1677 0.950 . S
H1654 C1678 0.950 . S
H1655 C1679 0.951 . S
H1656 C1681 0.951 . S
H1657 C1683 0.950 . S
H1658 C1684 0.950 . S
H1659 C1686 0.950 . S
H1660 C1689 0.950 . S
H1661 C1690 0.950 . S
H1662 C1692 0.950 . S
H1663 C1693 0.950 . S
C1664 H1646 0.951 . S
C1664 C1665 1.366 . S
C1664 C1666 1.388 . S
C1665 C1664 1.366 . S
C1665 C1669 1.385 . S
C1666 H1647 0.951 . S
C1666 C1664 1.388 . S
C1666 C1667 1.366 . S
C1667 C1666 1.366 . S
C1667 C1668 1.414 . S
C1667 C1670 1.499 . S
C1668 H1648 0.950 . S
C1668 C1667 1.414 . S
C1668 C1669 1.374 . S
C1669 H1649 0.950 . S
C1669 C1665 1.385 . S
C1669 C1668 1.374 . S
C1670 C1667 1.499 . S
C1670 C1671 1.373 1_545 S
C1670 C1672 1.389 . S
C1671 H1650 0.950 . S
C1671 C1670 1.373 1_565 S
C1671 C1687 1.377 . S
C1672 C1670 1.389 . S
C1672 C1673 1.524 . S
C1672 C1686 1.377 . S
C1673 C1672 1.524 . S
C1673 C1674 1.397 . S
C1673 C1678 1.363 . S
C1674 H1651 0.950 . S
C1674 C1673 1.397 . S
C1674 C1675 1.334 . S
C1675 H1652 0.950 . S
C1675 C1674 1.334 . S
C1675 C1676 1.287 . S
C1676 C1675 1.287 . S
C1676 C1677 1.524 . S
C1676 H1695 0.913 . S
C1677 H1653 0.950 . S
C1677 C1676 1.524 . S
C1677 C1678 1.415 . S
C1678 H1654 0.950 . S
C1678 C1673 1.363 . S
C1678 C1677 1.415 . S
C1679 H1655 0.951 . S
C1679 C1680 1.366 . S
C1679 C1681 1.388 . S
C1680 C1679 1.366 . S
C1680 C1684 1.385 . S
C1681 H1656 0.951 . S
C1681 C1679 1.388 . S
C1681 C1682 1.366 . S
C1682 C1681 1.366 . S
C1682 C1683 1.414 . S
C1682 C1685 1.499 . S
C1683 H1657 0.950 . S
C1683 C1682 1.414 . S
C1683 C1684 1.374 . S
C1684 H1658 0.950 . S
C1684 C1680 1.385 . S
C1684 C1683 1.374 . S
C1685 C1682 1.499 . S
C1685 C1686 1.373 1_565 S
C1685 C1687 1.389 . S
C1686 H1659 0.950 . S
C1686 C1672 1.377 . S
C1686 C1685 1.373 1_545 S
C1687 C1671 1.377 . S
C1687 C1685 1.389 . S
C1687 C1688 1.524 . S
C1688 C1687 1.524 . S
C1688 C1689 1.397 . S
C1688 C1693 1.363 . S
C1689 H1660 0.950 . S
C1689 C1688 1.397 . S
C1689 C1690 1.334 . S
C1690 H1661 0.950 . S
C1690 C1689 1.334 . S
C1690 C1691 1.287 . S
C1691 C1690 1.287 . S
C1691 C1692 1.524 . S
C1691 H1694 0.999 . S
C1692 H1662 0.950 . S
C1692 C1691 1.524 . S
C1692 C1693 1.415 . S
C1693 H1663 0.950 . S
C1693 C1688 1.363 . S
C1693 C1692 1.415 . S
H1694 C1691 0.999 . S
H1695 C1676 0.913 . S
H1696 C1714 0.951 . S
H1697 C1716 0.951 . S
H1698 C1718 0.950 . S
H1699 C1719 0.950 . S
H1700 C1721 0.950 . S
H1701 C1724 0.950 . S
H1702 C1725 0.950 . S
H1703 C1727 0.950 . S
H1704 C1728 0.950 . S
H1705 C1729 0.951 . S
H1706 C1731 0.951 . S
H1707 C1733 0.950 . S
H1708 C1734 0.950 . S
H1709 C1736 0.950 . S
H1710 C1739 0.950 . S
H1711 C1740 0.950 . S
H1712 C1742 0.950 . S
H1713 C1743 0.950 . S
C1714 H1696 0.951 . S
C1714 C1715 1.366 . S
C1714 C1716 1.388 . S
C1715 C1714 1.366 . S
C1715 C1719 1.385 . S
C1716 H1697 0.951 . S
C1716 C1714 1.388 . S
C1716 C1717 1.366 . S
C1717 C1716 1.366 . S
C1717 C1718 1.414 . S
C1717 C1720 1.499 . S
C1718 H1698 0.950 . S
C1718 C1717 1.414 . S
C1718 C1719 1.374 . S
C1719 H1699 0.950 . S
C1719 C1715 1.385 . S
C1719 C1718 1.374 . S
C1720 C1717 1.499 . S
C1720 C1721 1.373 1_655 S
C1720 C1722 1.389 . S
C1721 H1700 0.950 . S
C1721 C1720 1.373 1_455 S
C1721 C1737 1.377 . S
C1722 C1720 1.389 . S
C1722 C1723 1.524 . S
C1722 C1736 1.377 . S
C1723 C1722 1.524 . S
C1723 C1724 1.397 . S
C1723 C1728 1.363 . S
C1724 H1701 0.950 . S
C1724 C1723 1.397 . S
C1724 C1725 1.334 . S
C1725 H1702 0.950 . S
C1725 C1724 1.334 . S
C1725 C1726 1.287 . S
C1726 C1725 1.287 . S
C1726 C1727 1.524 . S
C1726 H1745 0.913 . S
C1727 H1703 0.950 . S
C1727 C1726 1.524 . S
C1727 C1728 1.415 . S
C1728 H1704 0.950 . S
C1728 C1723 1.363 . S
C1728 C1727 1.415 . S
C1729 H1705 0.951 . S
C1729 C1730 1.366 . S
C1729 C1731 1.388 . S
C1730 C1729 1.366 . S
C1730 C1734 1.385 . S
C1731 H1706 0.951 . S
C1731 C1729 1.388 . S
C1731 C1732 1.366 . S
C1732 C1731 1.366 . S
C1732 C1733 1.414 . S
C1732 C1735 1.499 . S
C1733 H1707 0.950 . S
C1733 C1732 1.414 . S
C1733 C1734 1.374 . S
C1734 H1708 0.950 . S
C1734 C1730 1.385 . S
C1734 C1733 1.374 . S
C1735 C1732 1.499 . S
C1735 C1736 1.373 1_455 S
C1735 C1737 1.389 . S
C1736 H1709 0.950 . S
C1736 C1722 1.377 . S
C1736 C1735 1.373 1_655 S
C1737 C1721 1.377 . S
C1737 C1735 1.389 . S
C1737 C1738 1.524 . S
C1738 C1737 1.524 . S
C1738 C1739 1.397 . S
C1738 C1743 1.363 . S
C1739 H1710 0.950 . S
C1739 C1738 1.397 . S
C1739 C1740 1.334 . S
C1740 H1711 0.950 . S
C1740 C1739 1.334 . S
C1740 C1741 1.287 . S
C1741 C1740 1.287 . S
C1741 C1742 1.524 . S
C1741 H1744 0.999 . S
C1742 H1712 0.950 . S
C1742 C1741 1.524 . S
C1742 C1743 1.415 . S
C1743 H1713 0.950 . S
C1743 C1738 1.363 . S
C1743 C1742 1.415 . S
H1744 C1741 0.999 . S
H1745 C1726 0.913 . S
H1746 C1764 0.951 . S
H1747 C1766 0.951 . S
H1748 C1768 0.950 . S
H1749 C1769 0.950 . S
H1750 C1771 0.950 . S
H1751 C1774 0.950 . S
H1752 C1775 0.950 . S
H1753 C1777 0.950 . S
H1754 C1778 0.950 . S
H1755 C1779 0.951 . S
H1756 C1781 0.951 . S
H1757 C1783 0.950 . S
H1758 C1784 0.950 . S
H1759 C1786 0.950 . S
H1760 C1789 0.950 . S
H1761 C1790 0.950 . S
H1762 C1792 0.950 . S
H1763 C1793 0.950 . S
C1764 H1746 0.951 . S
C1764 C1765 1.366 . S
C1764 C1766 1.388 . S
C1765 C1764 1.366 . S
C1765 C1769 1.385 . S
C1766 H1747 0.951 . S
C1766 C1764 1.388 . S
C1766 C1767 1.366 . S
C1767 C1766 1.366 . S
C1767 C1768 1.414 . S
C1767 C1770 1.499 . S
C1768 H1748 0.950 . S
C1768 C1767 1.414 . S
C1768 C1769 1.374 . S
C1769 H1749 0.950 . S
C1769 C1765 1.385 . S
C1769 C1768 1.374 . S
C1770 C1767 1.499 . S
C1770 C1771 1.373 . S
C1770 C1772 1.389 . S
C1771 H1750 0.950 . S
C1771 C1770 1.373 . S
C1771 C1787 1.377 . S
C1772 C1770 1.389 . S
C1772 C1773 1.524 . S
C1772 C1786 1.377 . S
C1773 C1772 1.524 . S
C1773 C1774 1.397 . S
C1773 C1778 1.363 . S
C1774 H1751 0.950 . S
C1774 C1773 1.397 . S
C1774 C1775 1.334 . S
C1775 H1752 0.950 . S
C1775 C1774 1.334 . S
C1775 C1776 1.287 . S
C1776 C1775 1.287 . S
C1776 C1777 1.524 . S
C1776 H1795 0.913 . S
C1777 H1753 0.950 . S
C1777 C1776 1.524 . S
C1777 C1778 1.415 . S
C1778 H1754 0.950 . S
C1778 C1773 1.363 . S
C1778 C1777 1.415 . S
C1779 H1755 0.951 . S
C1779 C1780 1.366 . S
C1779 C1781 1.388 . S
C1780 C1779 1.366 . S
C1780 C1784 1.385 . S
C1781 H1756 0.951 . S
C1781 C1779 1.388 . S
C1781 C1782 1.366 . S
C1782 C1781 1.366 . S
C1782 C1783 1.414 . S
C1782 C1785 1.499 . S
C1783 H1757 0.950 . S
C1783 C1782 1.414 . S
C1783 C1784 1.374 . S
C1784 H1758 0.950 . S
C1784 C1780 1.385 . S
C1784 C1783 1.374 . S
C1785 C1782 1.499 . S
C1785 C1786 1.373 . S
C1785 C1787 1.389 . S
C1786 H1759 0.950 . S
C1786 C1772 1.377 . S
C1786 C1785 1.373 . S
C1787 C1771 1.377 . S
C1787 C1785 1.389 . S
C1787 C1788 1.524 . S
C1788 C1787 1.524 . S
C1788 C1789 1.397 . S
C1788 C1793 1.363 . S
C1789 H1760 0.950 . S
C1789 C1788 1.397 . S
C1789 C1790 1.334 . S
C1790 H1761 0.950 . S
C1790 C1789 1.334 . S
C1790 C1791 1.287 . S
C1791 C1790 1.287 . S
C1791 C1792 1.524 . S
C1791 H1794 0.999 . S
C1792 H1762 0.950 . S
C1792 C1791 1.524 . S
C1792 C1793 1.415 . S
C1793 H1763 0.950 . S
C1793 C1788 1.363 . S
C1793 C1792 1.415 . S
H1794 C1791 0.999 . S
H1795 C1776 0.913 . S
H1796 C1814 0.951 . S
H1797 C1816 0.951 . S
H1798 C1818 0.950 . S
H1799 C1819 0.950 . S
H1800 C1821 0.950 . S
H1801 C1824 0.950 . S
H1802 C1825 0.950 . S
H1803 C1827 0.950 . S
H1804 C1828 0.950 . S
H1805 C1829 0.951 . S
H1806 C1831 0.951 . S
H1807 C1833 0.950 . S
H1808 C1834 0.950 . S
H1809 C1836 0.950 . S
H1810 C1839 0.950 . S
H1811 C1840 0.950 . S
H1812 C1842 0.950 . S
H1813 C1843 0.950 . S
C1814 H1796 0.951 . S
C1814 C1815 1.366 . S
C1814 C1816 1.388 . S
C1815 C1814 1.366 . S
C1815 C1819 1.385 . S
C1816 H1797 0.951 . S
C1816 C1814 1.388 . S
C1816 C1817 1.366 . S
C1817 C1816 1.366 . S
C1817 C1818 1.414 . S
C1817 C1820 1.499 . S
C1818 H1798 0.950 . S
C1818 C1817 1.414 . S
C1818 C1819 1.374 . S
C1819 H1799 0.950 . S
C1819 C1815 1.385 . S
C1819 C1818 1.374 . S
C1820 C1817 1.499 . S
C1820 C1821 1.373 . S
C1820 C1822 1.389 . S
C1821 H1800 0.950 . S
C1821 C1820 1.373 . S
C1821 C1837 1.377 1_565 S
C1822 C1820 1.389 . S
C1822 C1823 1.524 . S
C1822 C1836 1.377 1_565 S
C1823 C1822 1.524 . S
C1823 C1824 1.397 . S
C1823 C1828 1.363 . S
C1824 H1801 0.950 . S
C1824 C1823 1.397 . S
C1824 C1825 1.334 . S
C1825 H1802 0.950 . S
C1825 C1824 1.334 . S
C1825 C1826 1.287 . S
C1826 C1825 1.287 . S
C1826 C1827 1.524 . S
C1826 H1845 0.913 . S
C1827 H1803 0.950 . S
C1827 C1826 1.524 . S
C1827 C1828 1.415 . S
C1828 H1804 0.950 . S
C1828 C1823 1.363 . S
C1828 C1827 1.415 . S
C1829 H1805 0.951 . S
C1829 C1830 1.366 . S
C1829 C1831 1.388 . S
C1830 C1829 1.366 . S
C1830 C1834 1.385 . S
C1831 H1806 0.951 . S
C1831 C1829 1.388 . S
C1831 C1832 1.366 . S
C1832 C1831 1.366 . S
C1832 C1833 1.414 . S
C1832 C1835 1.499 . S
C1833 H1807 0.950 . S
C1833 C1832 1.414 . S
C1833 C1834 1.374 . S
C1834 H1808 0.950 . S
C1834 C1830 1.385 . S
C1834 C1833 1.374 . S
C1835 C1832 1.499 . S
C1835 C1836 1.373 . S
C1835 C1837 1.389 . S
C1836 H1809 0.950 . S
C1836 C1822 1.377 1_545 S
C1836 C1835 1.373 . S
C1837 C1821 1.377 1_545 S
C1837 C1835 1.389 . S
C1837 C1838 1.524 . S
C1838 C1837 1.524 . S
C1838 C1839 1.397 . S
C1838 C1843 1.363 . S
C1839 H1810 0.950 . S
C1839 C1838 1.397 . S
C1839 C1840 1.334 . S
C1840 H1811 0.950 . S
C1840 C1839 1.334 . S
C1840 C1841 1.287 . S
C1841 C1840 1.287 . S
C1841 C1842 1.524 . S
C1841 H1844 0.999 . S
C1842 H1812 0.950 . S
C1842 C1841 1.524 . S
C1842 C1843 1.415 . S
C1843 H1813 0.950 . S
C1843 C1838 1.363 . S
C1843 C1842 1.415 . S
H1844 C1841 0.999 . S
H1845 C1826 0.913 . S
H1846 C1864 0.951 . S
H1847 C1866 0.951 . S
H1848 C1868 0.950 . S
H1849 C1869 0.950 . S
H1850 C1871 0.950 . S
H1851 C1874 0.950 . S
H1852 C1875 0.950 1_455 S
H1853 C1877 0.950 . S
H1854 C1878 0.950 . S
H1855 C1879 0.951 . S
H1856 C1881 0.951 . S
H1857 C1883 0.950 . S
H1858 C1884 0.950 . S
H1859 C1886 0.950 . S
H1860 C1889 0.950 . S
H1861 C1890 0.950 1_655 S
H1862 C1892 0.950 . S
H1863 C1893 0.950 . S
C1864 H1846 0.951 . S
C1864 C1865 1.366 . S
C1864 C1866 1.388 . S
C1865 C1864 1.366 . S
C1865 C1869 1.385 . S
C1866 H1847 0.951 . S
C1866 C1864 1.388 . S
C1866 C1867 1.366 . S
C1867 C1866 1.366 . S
C1867 C1868 1.414 . S
C1867 C1870 1.499 . S
C1868 H1848 0.950 . S
C1868 C1867 1.414 . S
C1868 C1869 1.374 . S
C1869 H1849 0.950 . S
C1869 C1865 1.385 . S
C1869 C1868 1.374 . S
C1870 C1867 1.499 . S
C1870 C1871 1.373 . S
C1870 C1872 1.389 1_455 S
C1871 H1850 0.950 . S
C1871 C1870 1.373 . S
C1871 C1887 1.377 . S
C1872 C1870 1.389 1_655 S
C1872 C1873 1.524 . S
C1872 C1886 1.377 . S
C1873 C1872 1.524 . S
C1873 C1874 1.397 1_655 S
C1873 C1878 1.363 . S
C1874 H1851 0.950 . S
C1874 C1873 1.397 1_455 S
C1874 C1875 1.334 1_455 S
C1875 H1852 0.950 1_655 S
C1875 C1874 1.334 1_655 S
C1875 C1876 1.287 . S
C1876 C1875 1.287 . S
C1876 C1877 1.524 . S
C1876 H1895 0.913 . S
C1877 H1853 0.950 . S
C1877 C1876 1.524 . S
C1877 C1878 1.415 . S
C1878 H1854 0.950 . S
C1878 C1873 1.363 . S
C1878 C1877 1.415 . S
C1879 H1855 0.951 . S
C1879 C1880 1.366 . S
C1879 C1881 1.388 . S
C1880 C1879 1.366 . S
C1880 C1884 1.385 . S
C1881 H1856 0.951 . S
C1881 C1879 1.388 . S
C1881 C1882 1.366 . S
C1882 C1881 1.366 . S
C1882 C1883 1.414 . S
C1882 C1885 1.499 . S
C1883 H1857 0.950 . S
C1883 C1882 1.414 . S
C1883 C1884 1.374 . S
C1884 H1858 0.950 . S
C1884 C1880 1.385 . S
C1884 C1883 1.374 . S
C1885 C1882 1.499 . S
C1885 C1886 1.373 . S
C1885 C1887 1.389 1_655 S
C1886 H1859 0.950 . S
C1886 C1872 1.377 . S
C1886 C1885 1.373 . S
C1887 C1871 1.377 . S
C1887 C1885 1.389 1_455 S
C1887 C1888 1.524 . S
C1888 C1887 1.524 . S
C1888 C1889 1.397 1_455 S
C1888 C1893 1.363 . S
C1889 H1860 0.950 . S
C1889 C1888 1.397 1_655 S
C1889 C1890 1.334 1_655 S
C1890 H1861 0.950 1_455 S
C1890 C1889 1.334 1_455 S
C1890 C1891 1.287 . S
C1891 C1890 1.287 . S
C1891 C1892 1.524 . S
C1891 H1894 0.999 . S
C1892 H1862 0.950 . S
C1892 C1891 1.524 . S
C1892 C1893 1.415 . S
C1893 H1863 0.950 . S
C1893 C1888 1.363 . S
C1893 C1892 1.415 . S
H1894 C1891 0.999 . S
H1895 C1876 0.913 . S
C415 C40 1.435 . S
C430 N2 1.358 . S
C465 N35 1.358 . S
C480 C73 1.436 . S
C515 N68 1.357 . S
C530 C7 1.435 . S
C565 N101 1.357 . S
C580 C172 1.435 . S
C615 N134 1.357 . S
C630 C106 1.435 . S
C665 C139 1.436 . S
C680 N167 1.358 . S
C715 C238 1.435 . S
C730 N200 1.357 . S
C765 C271 1.435 . S
C780 N233 1.357 . S
C815 C205 1.435 . S
C830 N266 1.357 . S
C865 N299 1.359 . S
C880 C370 1.436 . S
C915 C304 1.436 . S
C930 N332 1.358 . S
C965 N365 1.358 . S
C980 C337 1.436 . S
C1015 C18 1.280 . S
C1030 N244 1.254 . S
C1065 C51 1.279 . S
C1080 N277 1.254 . S
C1115 C84 1.280 . S
C1130 N211 1.254 . S
C1165 N376 1.253 . S
C1180 C117 1.279 . S
C1215 C150 1.279 . S
C1230 N310 1.254 . S
C1265 N343 1.253 . S
C1280 C183 1.279 . S
C1315 N46 1.254 . S
C1330 C216 1.279 . S
C1365 N79 1.254 . S
C1380 C249 1.279 . S
C1415 C282 1.279 . S
C1430 N13 1.254 . S
C1465 N178 1.253 . S
C1480 C315 1.279 . S
C1515 C348 1.280 . S
C1530 N112 1.253 . S
C1565 C381 1.280 . S
C1580 N145 1.253 . S
C1615 C120 1.249 . S
C1630 C21 1.250 . S
C1665 C54 1.249 . S
C1680 C153 1.249 . S
C1715 C87 1.249 . S
C1730 C186 1.250 . S
C1765 C318 1.250 . S
C1780 C219 1.250 . S
C1815 C252 1.250 . S
C1830 C351 1.249 . S
C1865 C285 1.250 . S
C1880 C384 1.250 . S
