# Generated by pormake.
# Topology uos, (4)-cn, num edge types: 1
# Building blocks:
#     Node 0, Type 0, BuildingBlock: CEKHIL_clean_sbu_0, # of connection points: 4
#     Node 1, Type 0, BuildingBlock: CEKHIL_clean_sbu_0, # of connection points: 4
#     Node 2, Type 0, BuildingBlock: CEKHIL_clean_sbu_0, # of connection points: 4
#     Node 3, Type 0, BuildingBlock: CEKHIL_clean_sbu_0, # of connection points: 4
#     Node 4, Type 0, BuildingBlock: CEKHIL_clean_sbu_0, # of connection points: 4
#     Node 5, Type 0, BuildingBlock: CEKHIL_clean_sbu_0, # of connection points: 4
#     Node 6, Type 0, BuildingBlock: CEKHIL_clean_sbu_0, # of connection points: 4
#     Node 7, Type 0, BuildingBlock: CEKHIL_clean_sbu_0, # of connection points: 4
#     Node 8, Type 0, BuildingBlock: CEKHIL_clean_sbu_0, # of connection points: 4
#     Node 9, Type 0, BuildingBlock: CEKHIL_clean_sbu_0, # of connection points: 4
#     Node 10, Type 0, BuildingBlock: CEKHIL_clean_sbu_0, # of connection points: 4
#     Node 11, Type 0, BuildingBlock: CEKHIL_clean_sbu_0, # of connection points: 4
#     Node 12, Type 0, BuildingBlock: CEKHIL_clean_sbu_0, # of connection points: 4
#     Node 13, Type 0, BuildingBlock: CEKHIL_clean_sbu_0, # of connection points: 4
#     Node 14, Type 0, BuildingBlock: CEKHIL_clean_sbu_0, # of connection points: 4
#     Node 15, Type 0, BuildingBlock: CEKHIL_clean_sbu_0, # of connection points: 4
#     Node 16, Type 0, BuildingBlock: CEKHIL_clean_sbu_0, # of connection points: 4
#     Node 17, Type 0, BuildingBlock: CEKHIL_clean_sbu_0, # of connection points: 4
#     Node 18, Type 0, BuildingBlock: CEKHIL_clean_sbu_0, # of connection points: 4
#     Node 19, Type 0, BuildingBlock: CEKHIL_clean_sbu_0, # of connection points: 4
#     Node 20, Type 0, BuildingBlock: CEKHIL_clean_sbu_0, # of connection points: 4
#     Node 21, Type 0, BuildingBlock: CEKHIL_clean_sbu_0, # of connection points: 4
#     Node 22, Type 0, BuildingBlock: CEKHIL_clean_sbu_0, # of connection points: 4
#     Node 23, Type 0, BuildingBlock: CEKHIL_clean_sbu_0, # of connection points: 4
#     Node 24, Type 0, BuildingBlock: CEKHIL_clean_sbu_0, # of connection points: 4
#     Node 25, Type 0, BuildingBlock: CEKHIL_clean_sbu_0, # of connection points: 4
#     Node 26, Type 0, BuildingBlock: CEKHIL_clean_sbu_0, # of connection points: 4
#     Node 27, Type 0, BuildingBlock: CEKHIL_clean_sbu_0, # of connection points: 4
#     Node 28, Type 0, BuildingBlock: CEKHIL_clean_sbu_0, # of connection points: 4
#     Node 29, Type 0, BuildingBlock: CEKHIL_clean_sbu_0, # of connection points: 4
#     Node 30, Type 0, BuildingBlock: CEKHIL_clean_sbu_0, # of connection points: 4
#     Node 31, Type 0, BuildingBlock: CEKHIL_clean_sbu_0, # of connection points: 4
#     Edge 32, Type (0, 0), BuildingBlock: MIFKUJ_clean_linker_0, # of connection points: 2
#     Edge 33, Type (0, 0), BuildingBlock: MIFKUJ_clean_linker_0, # of connection points: 2
#     Edge 34, Type (0, 0), BuildingBlock: MIFKUJ_clean_linker_0, # of connection points: 2
#     Edge 35, Type (0, 0), BuildingBlock: MIFKUJ_clean_linker_0, # of connection points: 2
#     Edge 36, Type (0, 0), BuildingBlock: MIFKUJ_clean_linker_0, # of connection points: 2
#     Edge 37, Type (0, 0), BuildingBlock: MIFKUJ_clean_linker_0, # of connection points: 2
#     Edge 38, Type (0, 0), BuildingBlock: MIFKUJ_clean_linker_0, # of connection points: 2
#     Edge 39, Type (0, 0), BuildingBlock: MIFKUJ_clean_linker_0, # of connection points: 2
#     Edge 40, Type (0, 0), BuildingBlock: MIFKUJ_clean_linker_0, # of connection points: 2
#     Edge 41, Type (0, 0), BuildingBlock: MIFKUJ_clean_linker_0, # of connection points: 2
#     Edge 42, Type (0, 0), BuildingBlock: MIFKUJ_clean_linker_0, # of connection points: 2
#     Edge 43, Type (0, 0), BuildingBlock: MIFKUJ_clean_linker_0, # of connection points: 2
#     Edge 44, Type (0, 0), BuildingBlock: MIFKUJ_clean_linker_0, # of connection points: 2
#     Edge 45, Type (0, 0), BuildingBlock: MIFKUJ_clean_linker_0, # of connection points: 2
#     Edge 46, Type (0, 0), BuildingBlock: MIFKUJ_clean_linker_0, # of connection points: 2
#     Edge 47, Type (0, 0), BuildingBlock: MIFKUJ_clean_linker_0, # of connection points: 2
#     Edge 48, Type (0, 0), BuildingBlock: MIFKUJ_clean_linker_0, # of connection points: 2
#     Edge 49, Type (0, 0), BuildingBlock: MIFKUJ_clean_linker_0, # of connection points: 2
#     Edge 50, Type (0, 0), BuildingBlock: MIFKUJ_clean_linker_0, # of connection points: 2
#     Edge 51, Type (0, 0), BuildingBlock: MIFKUJ_clean_linker_0, # of connection points: 2
#     Edge 52, Type (0, 0), BuildingBlock: MIFKUJ_clean_linker_0, # of connection points: 2
#     Edge 53, Type (0, 0), BuildingBlock: MIFKUJ_clean_linker_0, # of connection points: 2
#     Edge 54, Type (0, 0), BuildingBlock: MIFKUJ_clean_linker_0, # of connection points: 2
#     Edge 55, Type (0, 0), BuildingBlock: MIFKUJ_clean_linker_0, # of connection points: 2
#     Edge 56, Type (0, 0), BuildingBlock: MIFKUJ_clean_linker_0, # of connection points: 2
#     Edge 57, Type (0, 0), BuildingBlock: MIFKUJ_clean_linker_0, # of connection points: 2
#     Edge 58, Type (0, 0), BuildingBlock: MIFKUJ_clean_linker_0, # of connection points: 2
#     Edge 59, Type (0, 0), BuildingBlock: MIFKUJ_clean_linker_0, # of connection points: 2
#     Edge 60, Type (0, 0), BuildingBlock: MIFKUJ_clean_linker_0, # of connection points: 2
#     Edge 61, Type (0, 0), BuildingBlock: MIFKUJ_clean_linker_0, # of connection points: 2
#     Edge 62, Type (0, 0), BuildingBlock: MIFKUJ_clean_linker_0, # of connection points: 2
#     Edge 63, Type (0, 0), BuildingBlock: MIFKUJ_clean_linker_0, # of connection points: 2
#     Edge 64, Type (0, 0), BuildingBlock: MIFKUJ_clean_linker_0, # of connection points: 2
#     Edge 65, Type (0, 0), BuildingBlock: MIFKUJ_clean_linker_0, # of connection points: 2
#     Edge 66, Type (0, 0), BuildingBlock: MIFKUJ_clean_linker_0, # of connection points: 2
#     Edge 67, Type (0, 0), BuildingBlock: MIFKUJ_clean_linker_0, # of connection points: 2
#     Edge 68, Type (0, 0), BuildingBlock: MIFKUJ_clean_linker_0, # of connection points: 2
#     Edge 69, Type (0, 0), BuildingBlock: MIFKUJ_clean_linker_0, # of connection points: 2
#     Edge 70, Type (0, 0), BuildingBlock: MIFKUJ_clean_linker_0, # of connection points: 2
#     Edge 71, Type (0, 0), BuildingBlock: MIFKUJ_clean_linker_0, # of connection points: 2
#     Edge 72, Type (0, 0), BuildingBlock: MIFKUJ_clean_linker_0, # of connection points: 2
#     Edge 73, Type (0, 0), BuildingBlock: MIFKUJ_clean_linker_0, # of connection points: 2
#     Edge 74, Type (0, 0), BuildingBlock: MIFKUJ_clean_linker_0, # of connection points: 2
#     Edge 75, Type (0, 0), BuildingBlock: MIFKUJ_clean_linker_0, # of connection points: 2
#     Edge 76, Type (0, 0), BuildingBlock: MIFKUJ_clean_linker_0, # of connection points: 2
#     Edge 77, Type (0, 0), BuildingBlock: MIFKUJ_clean_linker_0, # of connection points: 2
#     Edge 78, Type (0, 0), BuildingBlock: MIFKUJ_clean_linker_0, # of connection points: 2
#     Edge 79, Type (0, 0), BuildingBlock: MIFKUJ_clean_linker_0, # of connection points: 2
#     Edge 80, Type (0, 0), BuildingBlock: MIFKUJ_clean_linker_0, # of connection points: 2
#     Edge 81, Type (0, 0), BuildingBlock: MIFKUJ_clean_linker_0, # of connection points: 2
#     Edge 82, Type (0, 0), BuildingBlock: MIFKUJ_clean_linker_0, # of connection points: 2
#     Edge 83, Type (0, 0), BuildingBlock: MIFKUJ_clean_linker_0, # of connection points: 2
#     Edge 84, Type (0, 0), BuildingBlock: MIFKUJ_clean_linker_0, # of connection points: 2
#     Edge 85, Type (0, 0), BuildingBlock: MIFKUJ_clean_linker_0, # of connection points: 2
#     Edge 86, Type (0, 0), BuildingBlock: MIFKUJ_clean_linker_0, # of connection points: 2
#     Edge 87, Type (0, 0), BuildingBlock: MIFKUJ_clean_linker_0, # of connection points: 2
#     Edge 88, Type (0, 0), BuildingBlock: MIFKUJ_clean_linker_0, # of connection points: 2
#     Edge 89, Type (0, 0), BuildingBlock: MIFKUJ_clean_linker_0, # of connection points: 2
#     Edge 90, Type (0, 0), BuildingBlock: MIFKUJ_clean_linker_0, # of connection points: 2
#     Edge 91, Type (0, 0), BuildingBlock: MIFKUJ_clean_linker_0, # of connection points: 2
#     Edge 92, Type (0, 0), BuildingBlock: MIFKUJ_clean_linker_0, # of connection points: 2
#     Edge 93, Type (0, 0), BuildingBlock: MIFKUJ_clean_linker_0, # of connection points: 2
#     Edge 94, Type (0, 0), BuildingBlock: MIFKUJ_clean_linker_0, # of connection points: 2
#     Edge 95, Type (0, 0), BuildingBlock: MIFKUJ_clean_linker_0, # of connection points: 2
# Relax obj value: 0.050
# Max RMSD: 0.069
# Mean RMSD: 0.069
data_MOF--net-uos--node1-CEKHIL_clean_sbu_0--edge1-MIFKUJ_clean_linker_0
_symmetry_space_group_name_H-M    P1
_symmetry_Int_Tables_number       1
_symmetry_cell_setting            triclinic
loop_
_symmetry_equiv_pos_as_xyz
'x, y, z'
_cell_length_a     110.50599
_cell_length_b     110.4508
_cell_length_c     29.724671
_cell_angle_alpha  89.990635
_cell_angle_beta   89.985417
_cell_angle_gamma 90.005702
loop_
_atom_site_label
_atom_site_type_symbol
_atom_site_fract_x
_atom_site_fract_y
_atom_site_fract_z
_atom_type_partial_charge
Co0 Co 0.16844 0.16749 0.1179 0.0
O1 O 0.15464 0.165 0.07895 0.0
O2 O 0.17051 0.15293 0.08131 0.0
C3 C 0.17056 0.18762 0.10341 0.0
O4 O 0.1846 0.16752 0.15226 0.0
Co5 Co 0.16644 0.18519 0.19951 0.0
O6 O 0.18393 0.18175 0.20666 0.0
C7 C 0.15462 0.16131 0.20358 0.0
C8 C 0.16005 0.15545 0.06346 0.0
C9 C 0.18954 0.17358 0.18465 0.0
O10 O 0.16033 0.15782 0.16794 0.0
O11 O 0.1548 0.17223 0.21798 0.0
O12 O 0.17505 0.17965 0.07587 0.0
O13 O 0.16418 0.18318 0.13568 0.0
Co14 Co 0.08645 0.91839 0.36956 0.0
O15 O 0.08886 0.90431 0.33177 0.0
O16 O 0.10091 0.92021 0.33253 0.0
C17 C 0.06631 0.92063 0.35542 0.0
O18 O 0.08667 0.93475 0.40249 0.0
Co19 Co 0.06898 0.91704 0.45202 0.0
O20 O 0.07315 0.93437 0.45942 0.0
C21 C 0.09275 0.90507 0.45621 0.0
C22 C 0.09839 0.90963 0.31568 0.0
C23 C 0.08114 0.9398 0.4359 0.0
O24 O 0.09618 0.91056 0.42001 0.0
O25 O 0.08187 0.90538 0.47092 0.0
O26 O 0.07429 0.92477 0.32718 0.0
O27 O 0.07071 0.91442 0.38823 0.0
Co28 Co 0.33591 0.83763 0.61797 0.0
O29 O 0.34965 0.84071 0.57934 0.0
O30 O 0.33323 0.85203 0.58112 0.0
C31 C 0.3347 0.81744 0.60351 0.0
O32 O 0.31972 0.83692 0.65213 0.0
Co33 Co 0.33849 0.82008 0.69972 0.0
O34 O 0.32071 0.82211 0.70413 0.0
C35 C 0.34929 0.84447 0.70381 0.0
C36 C 0.34384 0.84998 0.56358 0.0
C37 C 0.31483 0.83027 0.68301 0.0
O38 O 0.34355 0.84767 0.6679 0.0
O39 O 0.34943 0.83359 0.71869 0.0
O40 O 0.32991 0.8252 0.57589 0.0
O41 O 0.34083 0.82214 0.63595 0.0
Co42 Co 0.41799 0.08616 0.86666 0.0
O43 O 0.41493 0.10017 0.82932 0.0
O44 O 0.40324 0.08402 0.83117 0.0
C45 C 0.43804 0.08475 0.84963 0.0
O46 O 0.41863 0.06973 0.89928 0.0
Co47 Co 0.43639 0.08759 0.94608 0.0
O48 O 0.43489 0.06971 0.94493 0.0
C49 C 0.41212 0.09863 0.95559 0.0
C50 C 0.40544 0.09464 0.81399 0.0
C51 C 0.4261 0.06426 0.92591 0.0
O52 O 0.40853 0.09368 0.9185 0.0
O53 O 0.42308 0.09814 0.96947 0.0
O54 O 0.42998 0.08016 0.82272 0.0
O55 O 0.43371 0.09071 0.88317 0.0
Co56 Co 0.16904 0.83797 0.89243 0.0
O57 O 0.15493 0.84011 0.93023 0.0
O58 O 0.17092 0.85206 0.9315 0.0
C59 C 0.17082 0.81767 0.90365 0.0
O60 O 0.1855 0.83829 0.86031 0.0
Co61 Co 0.16789 0.82145 0.8074 0.0
O62 O 0.18541 0.82509 0.80234 0.0
C63 C 0.15589 0.84523 0.80676 0.0
C64 C 0.16029 0.84944 0.94774 0.0
C65 C 0.19074 0.83281 0.82726 0.0
O66 O 0.16142 0.8483 0.84329 0.0
O67 O 0.1562 0.83452 0.79042 0.0
O68 O 0.17515 0.82524 0.93302 0.0
O69 O 0.16483 0.82256 0.87123 0.0
Co70 Co 0.41654 0.9194 0.14235 0.0
O71 O 0.41333 0.90538 0.17939 0.0
O72 O 0.40184 0.92169 0.178 0.0
C73 C 0.43659 0.92046 0.15939 0.0
O74 O 0.41738 0.93583 0.10985 0.0
Co75 Co 0.43492 0.91786 0.06287 0.0
O76 O 0.43393 0.93579 0.06556 0.0
C77 C 0.4106 0.90691 0.05387 0.0
C78 C 0.40392 0.91101 0.19492 0.0
C79 C 0.4251 0.94127 0.08418 0.0
O80 O 0.40701 0.91205 0.09053 0.0
O81 O 0.42158 0.90721 0.04004 0.0
O82 O 0.42861 0.92519 0.1863 0.0
O83 O 0.43217 0.91463 0.12569 0.0
Co84 Co 0.33544 0.16641 0.39004 0.0
O85 O 0.34945 0.16375 0.42782 0.0
O86 O 0.33305 0.15241 0.42925 0.0
C87 C 0.33422 0.18676 0.40142 0.0
O88 O 0.31903 0.1667 0.35734 0.0
Co89 Co 0.33765 0.1829 0.3051 0.0
O90 O 0.32008 0.17969 0.29885 0.0
C91 C 0.34855 0.15865 0.30472 0.0
C92 C 0.34378 0.15463 0.44541 0.0
C93 C 0.31424 0.17224 0.32341 0.0
O94 O 0.34274 0.15583 0.34094 0.0
O95 O 0.34884 0.16937 0.28847 0.0
O96 O 0.32971 0.17929 0.43077 0.0
O97 O 0.34016 0.18172 0.36917 0.0
Co98 Co 0.08748 0.08539 0.64165 0.0
O99 O 0.08993 0.09948 0.67933 0.0
O100 O 0.10194 0.08355 0.67869 0.0
C101 C 0.06733 0.08331 0.65602 0.0
O102 O 0.08763 0.06899 0.60883 0.0
Co103 Co 0.07003 0.08667 0.55925 0.0
O104 O 0.07392 0.06926 0.55268 0.0
C105 C 0.09378 0.09868 0.55497 0.0
C106 C 0.09944 0.09414 0.69549 0.0
C107 C 0.08198 0.06385 0.5759 0.0
O108 O 0.09721 0.09318 0.59114 0.0
O109 O 0.08291 0.09834 0.54018 0.0
O110 O 0.07529 0.07911 0.68418 0.0
O111 O 0.07177 0.08943 0.62299 0.0
Co112 Co 0.83572 0.83777 0.89188 0.0
O113 O 0.84983 0.84082 0.92871 0.0
O114 O 0.83343 0.85216 0.92916 0.0
C115 C 0.83476 0.81756 0.90675 0.0
O116 O 0.81918 0.8371 0.86006 0.0
Co117 Co 0.83713 0.82003 0.81026 0.0
O118 O 0.81923 0.82116 0.81276 0.0
C119 C 0.84805 0.84441 0.80372 0.0
C120 C 0.84415 0.85005 0.9455 0.0
C121 C 0.81373 0.82973 0.833 0.0
O122 O 0.84287 0.84774 0.84068 0.0
O123 O 0.84782 0.83352 0.78894 0.0
O124 O 0.83018 0.82532 0.93491 0.0
O125 O 0.84045 0.82228 0.87327 0.0
Co126 Co 0.91767 0.0872 0.64084 0.0
O127 O 0.91441 0.10127 0.67762 0.0
O128 O 0.90301 0.0849 0.6767 0.0
C129 C 0.93775 0.08607 0.65734 0.0
O130 O 0.91857 0.07067 0.60874 0.0
Co131 Co 0.93583 0.08899 0.56056 0.0
O132 O 0.93441 0.0711 0.56104 0.0
C133 C 0.91156 0.09989 0.55279 0.0
C134 C 0.90505 0.09561 0.69339 0.0
C135 C 0.92592 0.06542 0.58104 0.0
O136 O 0.90803 0.09445 0.58897 0.0
O137 O 0.92254 0.09984 0.53906 0.0
O138 O 0.92979 0.08157 0.68489 0.0
O139 O 0.93328 0.09188 0.6237 0.0
Co140 Co 0.66817 0.16808 0.38431 0.0
O141 O 0.65376 0.16491 0.41963 0.0
O142 O 0.67012 0.15353 0.42094 0.0
C143 C 0.66919 0.18825 0.40049 0.0
O144 O 0.685 0.16868 0.35449 0.0
Co145 Co 0.66778 0.18638 0.30392 0.0
O146 O 0.68539 0.18331 0.30155 0.0
C147 C 0.658 0.16158 0.29165 0.0
C148 C 0.6593 0.1556 0.43648 0.0
C149 C 0.69055 0.17497 0.32415 0.0
O150 O 0.66144 0.15834 0.3315 0.0
O151 O 0.65888 0.17244 0.27699 0.0
O152 O 0.67345 0.18032 0.42865 0.0
O153 O 0.66374 0.18374 0.3661 0.0
Co154 Co 0.58631 0.91923 0.14297 0.0
O155 O 0.58955 0.90533 0.18066 0.0
O156 O 0.60102 0.92163 0.17854 0.0
C157 C 0.56625 0.92044 0.16001 0.0
O158 O 0.58543 0.93555 0.10957 0.0
Co159 Co 0.5679 0.91717 0.06368 0.0
O160 O 0.56922 0.93507 0.06365 0.0
C161 C 0.59237 0.90654 0.05463 0.0
C162 C 0.59897 0.911 0.19589 0.0
C163 C 0.57791 0.94075 0.08239 0.0
O164 O 0.59587 0.9117 0.09142 0.0
O165 O 0.58139 0.90676 0.0408 0.0
O166 O 0.57425 0.9252 0.18671 0.0
O167 O 0.57065 0.91442 0.12675 0.0
Co168 Co 0.83572 0.16795 0.11659 0.0
O169 O 0.84944 0.1653 0.07742 0.0
O170 O 0.83352 0.15331 0.08049 0.0
C171 C 0.83361 0.18794 0.10106 0.0
O172 O 0.81962 0.16809 0.1514 0.0
Co173 Co 0.83795 0.18578 0.19732 0.0
O174 O 0.82055 0.18219 0.20621 0.0
C175 C 0.84953 0.16182 0.20242 0.0
C176 C 0.84398 0.15574 0.06235 0.0
C177 C 0.81484 0.17407 0.1843 0.0
O178 O 0.84388 0.15837 0.16662 0.0
O179 O 0.84938 0.17273 0.21683 0.0
O180 O 0.82899 0.17988 0.07429 0.0
O181 O 0.84014 0.18376 0.13337 0.0
Co182 Co 0.58783 0.08552 0.8609 0.0
O183 O 0.59112 0.10015 0.82699 0.0
O184 O 0.60233 0.08368 0.82379 0.0
C185 C 0.56773 0.08506 0.84453 0.0
O186 O 0.58702 0.06847 0.88904 0.0
Co187 Co 0.56965 0.08498 0.94092 0.0
O188 O 0.56993 0.0673 0.92995 0.0
C189 C 0.59472 0.09396 0.95541 0.0
C190 C 0.60031 0.09462 0.80929 0.0
C191 C 0.57903 0.06234 0.91118 0.0
O192 O 0.59765 0.09174 0.9141 0.0
O193 O 0.58406 0.09233 0.97122 0.0
O194 O 0.57557 0.08072 0.81623 0.0
O195 O 0.57227 0.09012 0.87974 0.0
Co196 Co 0.66866 0.83899 0.61925 0.0
O197 O 0.65461 0.84183 0.58177 0.0
O198 O 0.67106 0.8531 0.58057 0.0
C199 C 0.66962 0.81866 0.60694 0.0
O200 O 0.68515 0.83852 0.65138 0.0
Co201 Co 0.66703 0.82207 0.70315 0.0
O202 O 0.68496 0.82302 0.70067 0.0
C203 C 0.6563 0.84653 0.70638 0.0
C204 C 0.66033 0.85095 0.56434 0.0
C205 C 0.69052 0.83136 0.67938 0.0
O206 O 0.66152 0.84943 0.66904 0.0
O207 O 0.65642 0.83581 0.72278 0.0
O208 O 0.67421 0.82616 0.57787 0.0
O209 O 0.66387 0.82368 0.63968 0.0
Co210 Co 0.91669 0.91973 0.36744 0.0
O211 O 0.91381 0.90538 0.33166 0.0
O212 O 0.90212 0.92155 0.33093 0.0
C213 C 0.9368 0.9211 0.35158 0.0
O214 O 0.91709 0.93646 0.398 0.0
Co215 Co 0.93467 0.9194 0.44837 0.0
O216 O 0.93365 0.93725 0.44215 0.0
C217 C 0.91054 0.908 0.45732 0.0
C218 C 0.90439 0.91079 0.31513 0.0
C219 C 0.92473 0.94234 0.42263 0.0
O220 O 0.90706 0.91263 0.41955 0.0
O221 O 0.9214 0.90879 0.47206 0.0
O222 O 0.92884 0.9253 0.32339 0.0
O223 O 0.93235 0.91549 0.3858 0.0
Co224 Co 0.66829 0.66775 0.62003 0.0
O225 O 0.65462 0.66496 0.58068 0.0
O226 O 0.67109 0.65373 0.5813 0.0
C227 C 0.66945 0.68811 0.60856 0.0
O228 O 0.6844 0.66818 0.65472 0.0
Co229 Co 0.66519 0.68432 0.70435 0.0
O230 O 0.68274 0.68134 0.71246 0.0
C231 C 0.65463 0.6599 0.70414 0.0
C232 C 0.66048 0.65585 0.56395 0.0
C233 C 0.68885 0.67385 0.68897 0.0
O234 O 0.66067 0.65714 0.66839 0.0
O235 O 0.65411 0.67062 0.72026 0.0
O236 O 0.6743 0.68065 0.57993 0.0
O237 O 0.66326 0.68304 0.64006 0.0
Co238 Co 0.5867 0.41868 0.86725 0.0
O239 O 0.59026 0.40461 0.83098 0.0
O240 O 0.602 0.42068 0.83475 0.0
C241 C 0.56707 0.42005 0.84514 0.0
O242 O 0.58558 0.43519 0.89944 0.0
Co243 Co 0.56684 0.41762 0.94159 0.0
O244 O 0.56831 0.43547 0.93966 0.0
C245 C 0.59116 0.40726 0.95951 0.0
C246 C 0.59994 0.41008 0.81717 0.0
C247 C 0.57758 0.4408 0.92347 0.0
O248 O 0.59523 0.4112 0.92139 0.0
O249 O 0.58006 0.40821 0.97129 0.0
O250 O 0.57559 0.42472 0.82051 0.0
O251 O 0.57071 0.41413 0.87986 0.0
Co252 Co 0.8365 0.3373 0.11669 0.0
O253 O 0.8506 0.3414 0.08082 0.0
O254 O 0.83376 0.35214 0.08251 0.0
C255 C 0.83587 0.31747 0.09679 0.0
O256 O 0.81995 0.33585 0.14817 0.0
Co257 Co 0.83799 0.31806 0.1935 0.0
O258 O 0.82031 0.32051 0.19815 0.0
C259 C 0.84647 0.34318 0.21011 0.0
C260 C 0.84458 0.35065 0.06611 0.0
C261 C 0.81478 0.32903 0.17785 0.0
O262 O 0.84326 0.34662 0.17029 0.0
O263 O 0.84575 0.33221 0.22381 0.0
O264 O 0.8311 0.32564 0.07094 0.0
O265 O 0.8416 0.3215 0.1314 0.0
Co266 Co 0.91764 0.58567 0.36643 0.0
O267 O 0.91476 0.59988 0.32972 0.0
O268 O 0.90294 0.58383 0.33028 0.0
C269 C 0.93773 0.58416 0.34971 0.0
O270 O 0.91799 0.56907 0.39817 0.0
Co271 Co 0.93611 0.58653 0.44621 0.0
O272 O 0.93268 0.56902 0.45089 0.0
C273 C 0.91125 0.59608 0.45892 0.0
C274 C 0.90529 0.59448 0.31362 0.0
C275 C 0.92424 0.56375 0.42921 0.0
O276 O 0.90807 0.59289 0.41874 0.0
O277 O 0.92204 0.59503 0.47401 0.0
O278 O 0.92966 0.57978 0.32239 0.0
O279 O 0.93342 0.58999 0.38358 0.0
Co280 Co 0.66957 0.33881 0.39158 0.0
O281 O 0.65545 0.34171 0.42868 0.0
O282 O 0.67197 0.35287 0.43041 0.0
C283 C 0.67045 0.31848 0.40416 0.0
O284 O 0.68616 0.33836 0.35983 0.0
Co285 Co 0.6681 0.32178 0.30775 0.0
O286 O 0.68573 0.32453 0.30398 0.0
C287 C 0.65912 0.34695 0.30108 0.0
C288 C 0.66119 0.35078 0.44632 0.0
C289 C 0.69128 0.3324 0.32759 0.0
O290 O 0.66257 0.34934 0.34165 0.0
O291 O 0.65997 0.33649 0.28292 0.0
O292 O 0.67502 0.32602 0.43312 0.0
O293 O 0.66476 0.32344 0.37113 0.0
Co294 Co 0.91813 0.4182 0.64034 0.0
O295 O 0.91491 0.40391 0.67625 0.0
O296 O 0.90374 0.42042 0.67772 0.0
C297 C 0.93833 0.41907 0.65557 0.0
O298 O 0.91882 0.4349 0.60928 0.0
Co299 Co 0.93609 0.417 0.55898 0.0
O300 O 0.93321 0.43463 0.55539 0.0
C301 C 0.91098 0.40799 0.54833 0.0
C302 C 0.90571 0.40958 0.69329 0.0
C303 C 0.92505 0.44009 0.57787 0.0
O304 O 0.9081 0.41142 0.58852 0.0
O305 O 0.92173 0.4087 0.53246 0.0
O306 O 0.93053 0.4235 0.68386 0.0
O307 O 0.93367 0.41349 0.62173 0.0
Co308 Co 0.83568 0.66713 0.88959 0.0
O309 O 0.85018 0.66385 0.92425 0.0
O310 O 0.83367 0.65272 0.92706 0.0
C311 C 0.83497 0.68734 0.90508 0.0
O312 O 0.81877 0.66789 0.86032 0.0
Co313 Co 0.83621 0.68515 0.80835 0.0
O314 O 0.81855 0.6824 0.8069 0.0
C315 C 0.8453 0.66009 0.79656 0.0
C316 C 0.84459 0.65466 0.94179 0.0
C317 C 0.81328 0.67421 0.82987 0.0
O318 O 0.84211 0.65713 0.83699 0.0
O319 O 0.84443 0.67086 0.78096 0.0
O320 O 0.83071 0.67953 0.93369 0.0
O321 O 0.84029 0.68269 0.87063 0.0
Co322 Co 0.58794 0.58563 0.14411 0.0
O323 O 0.59113 0.59986 0.18012 0.0
O324 O 0.60285 0.58373 0.17886 0.0
C325 C 0.56801 0.5842 0.16261 0.0
O326 O 0.58716 0.56899 0.11267 0.0
Co327 Co 0.56914 0.58652 0.06575 0.0
O328 O 0.57028 0.56865 0.07012 0.0
C329 C 0.59328 0.59772 0.05406 0.0
C330 C 0.60067 0.59443 0.19546 0.0
C331 C 0.57929 0.56334 0.08822 0.0
O332 O 0.5971 0.5929 0.09106 0.0
O333 O 0.58226 0.5971 0.04094 0.0
O334 O 0.57622 0.5799 0.18949 0.0
O335 O 0.57213 0.58996 0.12822 0.0
Co336 Co 0.33648 0.33764 0.39006 0.0
O337 O 0.35093 0.34063 0.42538 0.0
O338 O 0.33442 0.35175 0.42898 0.0
C339 C 0.33576 0.31731 0.40307 0.0
O340 O 0.3196 0.33714 0.36053 0.0
Co341 Co 0.33705 0.32041 0.30657 0.0
O342 O 0.31937 0.32299 0.30585 0.0
C343 C 0.34578 0.34566 0.29766 0.0
C344 C 0.34531 0.34969 0.44373 0.0
C345 C 0.3141 0.33102 0.32955 0.0
O346 O 0.34292 0.34812 0.33883 0.0
O347 O 0.34472 0.33514 0.28009 0.0
O348 O 0.33149 0.32487 0.43258 0.0
O349 O 0.34111 0.32225 0.36922 0.0
Co350 Co 0.41912 0.58642 0.13864 0.0
O351 O 0.41665 0.60083 0.17473 0.0
O352 O 0.40421 0.58524 0.17366 0.0
C353 C 0.43905 0.584 0.15647 0.0
O354 O 0.41888 0.56972 0.10776 0.0
Co355 Co 0.43784 0.58617 0.05963 0.0
O356 O 0.43353 0.56886 0.05492 0.0
C357 C 0.41385 0.5976 0.04642 0.0
C358 C 0.40689 0.59581 0.19025 0.0
C359 C 0.42489 0.56404 0.07697 0.0
O360 O 0.41015 0.59396 0.08546 0.0
O361 O 0.42476 0.59629 0.03281 0.0
O362 O 0.43067 0.5802 0.18376 0.0
O363 O 0.43515 0.58991 0.12207 0.0
Co364 Co 0.1697 0.66711 0.88987 0.0
O365 O 0.15601 0.66452 0.92924 0.0
O366 O 0.17225 0.65295 0.92818 0.0
C367 C 0.17124 0.68741 0.90206 0.0
O368 O 0.18577 0.66732 0.85495 0.0
Co369 Co 0.16682 0.68399 0.80623 0.0
O370 O 0.18429 0.68063 0.79759 0.0
C371 C 0.15584 0.65975 0.80569 0.0
C372 C 0.1617 0.65526 0.94571 0.0
C373 C 0.19028 0.67297 0.82073 0.0
O374 O 0.16185 0.65678 0.84128 0.0
O375 O 0.1555 0.67053 0.79 0.0
O376 O 0.17599 0.6798 0.93033 0.0
O377 O 0.16493 0.68253 0.87047 0.0
Co378 Co 0.08888 0.42055 0.64536 0.0
O379 O 0.09193 0.40611 0.68051 0.0
O380 O 0.10302 0.42266 0.6841 0.0
C381 C 0.06861 0.42114 0.65874 0.0
O382 O 0.08819 0.43739 0.61557 0.0
Co383 Co 0.07165 0.41983 0.56212 0.0
O384 O 0.07216 0.43768 0.56874 0.0
C385 C 0.09637 0.40977 0.55518 0.0
C386 C 0.10099 0.41173 0.69873 0.0
C387 C 0.08068 0.44304 0.58964 0.0
O388 O 0.09924 0.41402 0.5942 0.0
O389 O 0.0857 0.4103 0.53854 0.0
O390 O 0.07616 0.4255 0.6881 0.0
O391 O 0.07355 0.41583 0.62483 0.0
Co392 Co 0.33654 0.66718 0.61549 0.0
O393 O 0.35095 0.66444 0.57976 0.0
O394 O 0.33462 0.65303 0.57671 0.0
C395 C 0.33539 0.68747 0.60227 0.0
O396 O 0.31973 0.66743 0.64565 0.0
Co397 Co 0.33708 0.68449 0.69877 0.0
O398 O 0.31945 0.68158 0.70033 0.0
C399 C 0.34624 0.65939 0.70754 0.0
C400 C 0.34546 0.65527 0.56166 0.0
C401 C 0.31424 0.67347 0.67683 0.0
O402 O 0.34332 0.65687 0.66649 0.0
O403 O 0.34504 0.6699 0.72512 0.0
O404 O 0.33117 0.6798 0.57307 0.0
O405 O 0.34095 0.68268 0.63592 0.0
Co406 Co 0.08722 0.58719 0.3664 0.0
O407 O 0.09052 0.60111 0.32892 0.0
O408 O 0.10211 0.58489 0.33178 0.0
C409 C 0.06726 0.58588 0.34826 0.0
O410 O 0.08634 0.57084 0.39955 0.0
Co411 Co 0.06845 0.58891 0.44465 0.0
O412 O 0.06991 0.57103 0.4444 0.0
C413 C 0.09274 0.59985 0.45515 0.0
C414 C 0.10004 0.5955 0.31424 0.0
C415 C 0.07876 0.56549 0.42608 0.0
O416 O 0.09648 0.59476 0.41855 0.0
O417 O 0.08171 0.59949 0.4683 0.0
O418 O 0.07539 0.58116 0.32195 0.0
O419 O 0.07149 0.59187 0.38187 0.0
Co420 Co 0.16886 0.33728 0.12171 0.0
O421 O 0.15516 0.33956 0.08198 0.0
O422 O 0.17081 0.3519 0.0854 0.0
C423 C 0.17133 0.31717 0.10718 0.0
O424 O 0.18493 0.33757 0.15674 0.0
Co425 Co 0.16714 0.31946 0.20309 0.0
O426 O 0.18445 0.32346 0.21162 0.0
C427 C 0.15507 0.34329 0.20793 0.0
C428 C 0.16047 0.34922 0.06693 0.0
C429 C 0.18989 0.33173 0.18961 0.0
O430 O 0.16039 0.34679 0.17142 0.0
O431 O 0.1557 0.33243 0.22275 0.0
O432 O 0.1758 0.32523 0.07993 0.0
O433 O 0.16482 0.3215 0.1393 0.0
Co434 Co 0.41848 0.41888 0.86698 0.0
O435 O 0.41589 0.40468 0.8299 0.0
O436 O 0.40354 0.42032 0.83209 0.0
C437 C 0.43839 0.4214 0.84919 0.0
O438 O 0.41843 0.43535 0.89953 0.0
Co439 Co 0.43725 0.41809 0.94583 0.0
O440 O 0.43336 0.4355 0.95135 0.0
C441 C 0.41306 0.40708 0.95824 0.0
C442 C 0.40614 0.4098 0.81486 0.0
C443 C 0.42471 0.44067 0.93049 0.0
O444 O 0.40947 0.41109 0.91958 0.0
O445 O 0.42399 0.40805 0.97202 0.0
O446 O 0.43001 0.42535 0.82227 0.0
O447 O 0.4345 0.41519 0.88287 0.0
H448 H 0.29443 0.16877 0.37822 0.0
H449 H 0.27319 0.16708 0.35479 0.0
H450 H 0.2843 0.16802 0.21553 0.0
H451 H 0.30528 0.17042 0.23893 0.0
H452 H 0.26667 0.1818 0.22167 0.0
H453 H 0.27292 0.14135 0.27478 0.0
H454 H 0.27869 0.12538 0.32862 0.0
H455 H 0.25156 0.13784 0.42109 0.0
H456 H 0.24572 0.15399 0.36802 0.0
H457 H 0.20847 0.16531 0.13259 0.0
H458 H 0.22974 0.16291 0.15565 0.0
H459 H 0.22038 0.17348 0.29083 0.0
H460 H 0.19931 0.17613 0.26802 0.0
H461 H 0.23678 0.15296 0.28488 0.0
H462 H 0.23165 0.19402 0.2295 0.0
H463 H 0.22585 0.20917 0.17245 0.0
H464 H 0.25131 0.19385 0.07938 0.0
H465 H 0.25716 0.17851 0.13572 0.0
C466 C 0.2923 0.16848 0.34268 0.0
C467 C 0.3015 0.16978 0.31044 0.0
C468 C 0.28015 0.16745 0.32918 0.0
C469 C 0.27701 0.16732 0.28316 0.0
C470 C 0.28634 0.16819 0.25117 0.0
C471 C 0.29838 0.16952 0.2646 0.0
C472 C 0.26409 0.16693 0.2679 0.0
C473 C 0.26026 0.1753 0.23509 0.0
C474 C 0.25549 0.15866 0.28562 0.0
C475 C 0.25897 0.14895 0.31759 0.0
C476 C 0.26824 0.14074 0.30673 0.0
C477 C 0.27151 0.13164 0.33709 0.0
C478 C 0.26552 0.13061 0.3783 0.0
C479 C 0.25621 0.13866 0.38918 0.0
C480 C 0.2529 0.14778 0.35896 0.0
C481 C 0.21094 0.16699 0.16729 0.0
C482 C 0.20222 0.17099 0.19836 0.0
C483 C 0.22308 0.16564 0.18042 0.0
C484 C 0.22664 0.16804 0.22499 0.0
C485 C 0.21785 0.17155 0.25636 0.0
C486 C 0.20581 0.17312 0.24312 0.0
C487 C 0.2396 0.16767 0.23866 0.0
C488 C 0.24334 0.15928 0.27129 0.0
C489 C 0.24819 0.17576 0.22032 0.0
C490 C 0.24474 0.18504 0.18662 0.0
C491 C 0.23594 0.19382 0.19674 0.0
C492 C 0.23265 0.20245 0.16457 0.0
C493 C 0.23818 0.20244 0.12228 0.0
C494 C 0.24703 0.19383 0.11212 0.0
C495 C 0.25034 0.18517 0.14416 0.0
H496 H 0.23562 0.20913 0.09742 0.0
H497 H 0.26806 0.12356 0.40175 0.0
H498 H 0.08579 0.95958 0.3823 0.0
H499 H 0.08866 0.9806 0.40703 0.0
H500 H 0.08703 0.96895 0.5456 0.0
H501 H 0.08343 0.94822 0.52088 0.0
H502 H 0.07402 0.98709 0.54011 0.0
H503 H 0.11422 0.97956 0.48778 0.0
H504 H 0.1301 0.97335 0.43425 0.0
H505 H 0.11895 1.00126 0.34262 0.0
H506 H 0.1029 0.00754 0.39536 0.0
H507 H 0.09013 0.04514 0.62939 0.0
H508 H 0.0931 0.02388 0.60708 0.0
H509 H 0.08373 0.03291 0.47037 0.0
H510 H 0.08053 0.05395 0.4924 0.0
H511 H 0.10382 0.01625 0.47825 0.0
H512 H 0.06281 0.02226 0.53085 0.0
H513 H 0.04779 0.0288 0.58665 0.0
H514 H 0.06178 0.0031 0.6818 0.0
H515 H 0.07719 0.99662 0.62661 0.0
C516 C 0.08619 0.96155 0.41797 0.0
C517 C 0.08432 0.9523 0.44965 0.0
C518 C 0.0879 0.97356 0.43221 0.0
C519 C 0.08817 0.97647 0.47841 0.0
C520 C 0.08677 0.96707 0.50984 0.0
C521 C 0.08475 0.95519 0.49567 0.0
C522 C 0.08906 0.98931 0.4944 0.0
C523 C 0.08076 0.99332 0.52709 0.0
C524 C 0.09763 0.99768 0.47715 0.0
C525 C 0.10728 0.99394 0.44536 0.0
C526 C 0.1151 0.98431 0.45607 0.0
C527 C 0.12414 0.98079 0.42589 0.0
C528 C 0.12551 0.98688 0.38501 0.0
C529 C 0.11787 0.99654 0.37428 0.0
C530 C 0.1088 1.00009 0.40432 0.0
C531 C 0.08886 0.0426 0.59452 0.0
C532 C 0.08497 0.05121 0.5628 0.0
C533 C 0.09056 0.03047 0.58179 0.0
C534 C 0.08863 0.0268 0.537 0.0
C535 C 0.08533 0.03551 0.505 0.0
C536 C 0.08341 0.04753 0.5178 0.0
C537 C 0.08892 0.01379 0.52391 0.0
C538 C 0.09732 0.00984 0.49162 0.0
C539 C 0.08059 0.00538 0.54194 0.0
C540 C 0.07123 0.00908 0.57486 0.0
C541 C 0.06275 0.01808 0.56381 0.0
C542 C 0.05415 0.02176 0.59534 0.0
C543 C 0.0538 0.01638 0.63787 0.0
C544 C 0.06207 0.00728 0.64889 0.0
C545 C 0.07076 0.00361 0.6175 0.0
H546 H 0.04711 0.01925 0.66226 0.0
H547 H 0.13252 0.98414 0.36169 0.0
H548 H 0.19899 0.84409 0.75252 0.0
H549 H 0.22003 0.84637 0.72808 0.0
H550 H 0.23209 0.82899 0.85026 0.0
H551 H 0.21099 0.8274 0.87574 0.0
H552 H 0.24761 0.84524 0.83017 0.0
H553 H 0.22879 0.81376 0.74366 0.0
H554 H 0.21341 0.80475 0.69373 0.0
H555 H 0.22232 0.83046 0.59052 0.0
H556 H 0.23766 0.83972 0.64008 0.0
H557 H 0.30306 0.82063 0.75543 0.0
H558 H 0.2822 0.82364 0.7788 0.0
H559 H 0.27622 0.84723 0.66543 0.0
H560 H 0.29733 0.84429 0.64148 0.0
H561 H 0.2578 0.82974 0.67813 0.0
H562 H 0.27887 0.85935 0.76699 0.0
H563 H 0.29464 0.86661 0.81914 0.0
H564 H 0.28191 0.84207 0.9207 0.0
H565 H 0.2662 0.83452 0.86895 0.0
C566 C 0.20619 0.84101 0.77448 0.0
C567 C 0.20344 0.83564 0.81605 0.0
C568 C 0.21821 0.84217 0.76031 0.0
C569 C 0.22773 0.83755 0.78663 0.0
C570 C 0.22497 0.8326 0.82911 0.0
C571 C 0.21293 0.8317 0.84378 0.0
C572 C 0.24046 0.83746 0.76929 0.0
C573 C 0.24981 0.84175 0.79706 0.0
C574 C 0.24343 0.83311 0.72569 0.0
C575 C 0.23428 0.82751 0.69574 0.0
C576 C 0.22742 0.81754 0.71041 0.0
C577 C 0.21872 0.81238 0.68217 0.0
C578 C 0.21687 0.81705 0.63902 0.0
C579 C 0.22375 0.82687 0.62397 0.0
C580 C 0.23245 0.83207 0.65211 0.0
C581 C 0.29738 0.82649 0.73522 0.0
C582 C 0.30196 0.83223 0.69642 0.0
C583 C 0.28542 0.82824 0.74892 0.0
C584 C 0.27766 0.83577 0.72426 0.0
C585 C 0.28208 0.84142 0.68515 0.0
C586 C 0.29415 0.83975 0.67153 0.0
C587 C 0.26488 0.8374 0.73919 0.0
C588 C 0.25554 0.83337 0.711 0.0
C589 C 0.26196 0.84174 0.78272 0.0
C590 C 0.2714 0.84631 0.81394 0.0
C591 C 0.27949 0.85543 0.80031 0.0
C592 C 0.28842 0.85961 0.82983 0.0
C593 C 0.28928 0.85479 0.87318 0.0
C594 C 0.28123 0.84579 0.88711 0.0
C595 C 0.27231 0.84157 0.85771 0.0
H596 H 0.29616 0.85805 0.89606 0.0
H597 H 0.21013 0.81305 0.61721 0.0
H598 H 0.44305 0.04866 0.95826 0.0
H599 H 0.44043 0.02773 0.98184 0.0
H600 H 0.40283 0.0291 0.94359 0.0
H601 H 0.40539 0.0503 0.9195 0.0
H602 H 0.40719 0.01861 0.03098 0.0
H603 H 0.42079 0.01361 0.87922 0.0
H604 H 0.434 0.01737 0.81383 0.0
H605 H 0.4646 0.00399 0.88765 0.0
H606 H 0.45161 1.00031 0.95374 0.0
H607 H 0.40396 0.9541 0.07286 0.0
H608 H 0.40187 0.97477 0.04349 0.0
H609 H 0.44076 0.97848 0.04189 0.0
H610 H 0.44283 0.95776 0.06905 0.0
H611 H 0.43287 0.98605 0.96707 0.0
H612 H 0.42051 0.99326 0.12075 0.0
H613 H 0.40808 0.99023 0.18877 0.0
H614 H 0.37612 0.99992 0.11492 0.0
H615 H 0.38835 0.00287 0.0463 0.0
C616 C 0.4342 0.04455 0.95454 0.0
C617 C 0.42442 0.05121 0.9369 0.0
C618 C 0.43274 0.03253 0.96801 0.0
C619 C 0.42145 0.0268 0.96439 0.0
C620 C 0.41163 0.03335 0.94669 0.0
C621 C 0.41313 0.04542 0.93263 0.0
C622 C 0.42014 0.01401 0.97966 0.0
C623 C 0.41261 0.01141 0.0165 0.0
C624 C 0.4274 0.00468 0.96142 0.0
C625 C 0.43523 0.00675 0.92154 0.0
C626 C 0.43035 0.01154 0.88162 0.0
C627 C 0.4378 0.01365 0.84441 0.0
C628 C 0.45014 0.01094 0.84661 0.0
C629 C 0.45504 0.00608 0.886 0.0
C630 C 0.44764 0.00397 0.92332 0.0
C631 C 0.41204 0.95943 0.06689 0.0
C632 C 0.42356 0.9543 0.07315 0.0
C633 C 0.41084 0.97127 0.05011 0.0
C634 C 0.42116 0.9783 0.04036 0.0
C635 C 0.43264 0.97328 0.04854 0.0
C636 C 0.43383 0.96143 0.06435 0.0
C637 C 0.42022 0.99063 0.01965 0.0
C638 C 0.42732 0.99316 0.98149 0.0
C639 C 0.41267 0.9999 0.03709 0.0
C640 C 0.40532 0.99814 0.0783 0.0
C641 C 0.41082 0.99465 0.11894 0.0
C642 C 0.40381 0.99296 0.15761 0.0
C643 C 0.39131 0.99484 0.15613 0.0
C644 C 0.3858 0.99844 0.116 0.0
C645 C 0.39276 1.00013 0.07722 0.0
H646 H 0.3859 0.99353 0.1861 0.0
H647 H 0.45589 0.01258 0.81777 0.0
H648 H 0.80016 0.85071 0.8346 0.0
H649 H 0.77939 0.8534 0.80682 0.0
H650 H 0.77711 0.81508 0.77975 0.0
H651 H 0.79781 0.81246 0.80593 0.0
H652 H 0.76924 0.82643 0.71056 0.0
H653 H 0.7619 0.82994 0.86997 0.0
H654 H 0.76446 0.83851 0.94598 0.0
H655 H 0.75297 0.87332 0.89791 0.0
H656 H 0.75049 0.86498 0.82144 0.0
H657 H 0.70656 0.81385 0.70304 0.0
H658 H 0.72764 0.81623 0.72608 0.0
H659 H 0.72523 0.85471 0.70367 0.0
H660 H 0.70402 0.85235 0.67944 0.0
H661 H 0.73566 0.84655 0.79221 0.0
H662 H 0.74094 0.84152 0.63333 0.0
H663 H 0.73765 0.83183 0.55963 0.0
H664 H 0.75253 0.79857 0.60994 0.0
H665 H 0.75574 0.80801 0.68419 0.0
C666 C 0.79514 0.84285 0.82333 0.0
C667 C 0.80068 0.83138 0.82228 0.0
C668 C 0.78325 0.84439 0.80741 0.0
C669 C 0.7766 0.83444 0.79097 0.0
C670 C 0.78202 0.82294 0.79166 0.0
C671 C 0.79388 0.82144 0.80688 0.0
C672 C 0.76421 0.83587 0.77127 0.0
C673 C 0.76192 0.83078 0.72873 0.0
C674 C 0.75464 0.84185 0.79402 0.0
C675 C 0.75616 0.84687 0.83989 0.0
C676 C 0.76002 0.83945 0.87553 0.0
C677 C 0.76144 0.84426 0.91871 0.0
C678 C 0.75892 0.85646 0.92674 0.0
C679 C 0.75494 0.86388 0.89162 0.0
C680 C 0.75353 0.85911 0.84836 0.0
C681 C 0.71052 0.82283 0.70257 0.0
C682 C 0.70362 0.83292 0.6893 0.0
C683 C 0.72258 0.82416 0.71579 0.0
C684 C 0.72801 0.83564 0.71674 0.0
C685 C 0.7212 0.84577 0.70326 0.0
C686 C 0.70914 0.8444 0.68909 0.0
C687 C 0.74075 0.83684 0.73239 0.0
C688 C 0.74309 0.84239 0.77398 0.0
C689 C 0.75035 0.83115 0.70914 0.0
C690 C 0.7485 0.82545 0.66445 0.0
C691 C 0.74342 0.83211 0.6288 0.0
C692 C 0.74158 0.82667 0.5869 0.0
C693 C 0.74485 0.81459 0.58013 0.0
C694 C 0.74999 0.80793 0.61524 0.0
C695 C 0.75184 0.81332 0.65723 0.0
H696 H 0.74343 0.81039 0.54766 0.0
H697 H 0.76001 0.86017 0.96019 0.0
H698 H 0.94161 0.96008 0.41831 0.0
H699 H 0.93987 0.98089 0.44528 0.0
H700 H 0.90243 0.97457 0.47946 0.0
H701 H 0.904 0.95388 0.44948 0.0
H702 H 0.9045 0.99689 0.45448 0.0
H703 H 0.92667 0.97266 0.55925 0.0
H704 H 0.94262 0.95846 0.58345 0.0
H705 H 0.96995 0.98385 0.54289 0.0
H706 H 0.95417 0.99813 0.5178 0.0
H707 H 0.90643 0.05019 0.59712 0.0
H708 H 0.90421 0.02897 0.57314 0.0
H709 H 0.93996 0.02999 0.51513 0.0
H710 H 0.9423 0.05087 0.53907 0.0
H711 H 0.93668 0.00949 0.56096 0.0
H712 H 0.91395 0.03286 0.4507 0.0
H713 H 0.89773 0.04684 0.42724 0.0
H714 H 0.871 0.02281 0.48231 0.0
H715 H 0.88709 0.00876 0.50659 0.0
C716 C 0.93293 0.96323 0.43064 0.0
C717 C 0.92294 0.95539 0.43187 0.0
C718 C 0.93197 0.9751 0.44661 0.0
C719 C 0.92113 0.97925 0.4661 0.0
C720 C 0.91093 0.97161 0.46508 0.0
C721 C 0.91181 0.95979 0.44782 0.0
C722 C 0.9207 0.99131 0.48912 0.0
C723 C 0.91144 0.99955 0.4783 0.0
C724 C 0.92972 0.9949 0.5204 0.0
C725 C 0.93923 0.98644 0.5364 0.0
C726 C 0.93608 0.9752 0.55536 0.0
C727 C 0.94509 0.96713 0.5692 0.0
C728 C 0.95729 0.97025 0.56465 0.0
C729 C 0.9605 0.98146 0.54642 0.0
C730 C 0.95152 0.98954 0.5324 0.0
C731 C 0.91384 0.04584 0.57961 0.0
C732 C 0.92451 0.05231 0.56991 0.0
C733 C 0.91253 0.03373 0.56563 0.0
C734 C 0.92188 0.02788 0.54185 0.0
C735 C 0.93261 0.03426 0.53331 0.0
C736 C 0.9339 0.04627 0.54698 0.0
C737 C 0.92072 0.01516 0.52523 0.0
C738 C 0.92967 0.00677 0.5375 0.0
C739 C 0.91137 0.01142 0.49575 0.0
C740 C 0.90172 0.01983 0.4809 0.0
C741 C 0.90462 0.03061 0.45809 0.0
C742 C 0.89545 0.03853 0.4446 0.0
C743 C 0.88334 0.03574 0.4534 0.0
C744 C 0.88038 0.02498 0.47559 0.0
C745 C 0.88952 0.01703 0.4892 0.0
H746 H 0.87626 0.04189 0.44293 0.0
H747 H 0.96425 0.96398 0.57526 0.0
H748 H 0.70088 0.17627 0.24163 0.0
H749 H 0.72208 0.17327 0.22129 0.0
H750 H 0.73059 0.16496 0.35938 0.0
H751 H 0.70912 0.16765 0.37998 0.0
H752 H 0.74527 0.18425 0.31286 0.0
H753 H 0.7323 0.14295 0.29525 0.0
H754 H 0.71896 0.12675 0.26699 0.0
H755 H 0.72731 0.1368 0.13093 0.0
H756 H 0.74056 0.15318 0.15838 0.0
H757 H 0.8065 0.17339 0.2699 0.0
H758 H 0.78572 0.17089 0.29573 0.0
H759 H 0.7738 0.16691 0.15826 0.0
H760 H 0.79488 0.16875 0.13241 0.0
H761 H 0.76068 0.15291 0.20783 0.0
H762 H 0.77157 0.19457 0.21967 0.0
H763 H 0.78387 0.21218 0.24218 0.0
H764 H 0.77826 0.20346 0.38141 0.0
H765 H 0.76605 0.18569 0.35971 0.0
C766 C 0.70723 0.17369 0.26772 0.0
C767 C 0.70334 0.17225 0.31251 0.0
C768 C 0.71934 0.17194 0.25594 0.0
C769 C 0.72791 0.16888 0.28874 0.0
C770 C 0.72409 0.16729 0.33352 0.0
C771 C 0.71185 0.16878 0.34523 0.0
C772 C 0.74091 0.16808 0.27609 0.0
C773 C 0.74874 0.17724 0.29073 0.0
C774 C 0.74525 0.15926 0.24551 0.0
C775 C 0.73735 0.14936 0.2289 0.0
C776 C 0.73121 0.14178 0.25931 0.0
C777 C 0.72368 0.13255 0.24343 0.0
C778 C 0.72227 0.13076 0.1972 0.0
C779 C 0.7284 0.13819 0.16674 0.0
C780 C 0.73594 0.14744 0.18244 0.0
C781 C 0.79947 0.17186 0.24515 0.0
C782 C 0.8023 0.17139 0.19907 0.0
C783 C 0.78755 0.17051 0.25996 0.0
C784 C 0.77805 0.16909 0.229 0.0
C785 C 0.78092 0.16809 0.18293 0.0
C786 C 0.79296 0.16915 0.16811 0.0
C787 C 0.76518 0.16908 0.24482 0.0
C788 C 0.75733 0.15984 0.23046 0.0
C789 C 0.7607 0.17802 0.27485 0.0
C790 C 0.768 0.18873 0.28805 0.0
C791 C 0.77303 0.19636 0.25508 0.0
C792 C 0.77997 0.20638 0.2677 0.0
C793 C 0.78187 0.20892 0.3132 0.0
C794 C 0.7768 0.20147 0.34618 0.0
C795 C 0.76986 0.19142 0.33375 0.0
H796 H 0.78725 0.21668 0.3229 0.0
H797 H 0.71643 0.12361 0.18497 0.0
H798 H 0.56174 0.04493 0.91372 0.0
H799 H 0.56367 0.02429 0.94209 0.0
H800 H 0.60202 0.02966 0.96066 0.0
H801 H 0.60016 0.05028 0.9301 0.0
H802 H 0.59788 0.00674 0.93738 0.0
H803 H 0.58164 0.03321 0.0494 0.0
H804 H 0.56776 0.04869 0.07961 0.0
H805 H 0.53751 0.02508 0.05675 0.0
H806 H 0.55119 0.00951 0.02587 0.0
H807 H 0.59837 0.95512 0.08819 0.0
H808 H 0.60076 0.97601 0.06057 0.0
H809 H 0.56327 0.97642 0.0204 0.0
H810 H 0.56082 0.95582 0.04778 0.0
H811 H 0.56944 0.99725 0.06173 0.0
H812 H 0.58591 0.97148 0.94437 0.0
H813 H 0.59996 0.95613 0.91436 0.0
H814 H 0.63023 0.97857 0.94981 0.0
H815 H 0.61634 0.99399 0.9806 0.0
C816 C 0.57063 0.04162 0.9229 0.0
C817 C 0.58079 0.04924 0.91992 0.0
C818 C 0.57172 0.02984 0.93953 0.0
C819 C 0.58293 0.0255 0.95505 0.0
C820 C 0.59325 0.03281 0.94937 0.0
C821 C 0.5922 0.04458 0.93174 0.0
C822 C 0.5836 0.01367 0.97947 0.0
C823 C 0.5918 0.00474 0.96505 0.0
C824 C 0.57567 0.01097 0.01568 0.0
C825 C 0.56744 0.02022 0.03509 0.0
C826 C 0.57202 0.03133 0.05067 0.0
C827 C 0.56419 0.04013 0.0679 0.0
C828 C 0.55176 0.03788 0.07003 0.0
C829 C 0.54714 0.02681 0.05507 0.0
C830 C 0.55493 0.01799 0.03777 0.0
C831 C 0.59062 0.95974 0.07395 0.0
C832 C 0.57942 0.95374 0.07005 0.0
C833 C 0.59201 0.97164 0.05786 0.0
C834 C 0.58221 0.97777 0.03792 0.0
C835 C 0.57097 0.97192 0.0355 0.0
C836 C 0.56961 0.96008 0.05112 0.0
C837 C 0.58346 0.99021 0.01881 0.0
C838 C 0.57563 0.99929 0.03441 0.0
C839 C 0.59177 0.99304 0.98402 0.0
C840 C 0.6001 0.98382 0.96526 0.0
C841 C 0.59556 0.9731 0.94609 0.0
C842 C 0.6035 0.96439 0.92888 0.0
C843 C 0.61598 0.96636 0.93031 0.0
C844 C 0.62056 0.97705 0.94881 0.0
C845 C 0.61266 0.98578 0.96613 0.0
H846 H 0.62211 0.95961 0.91697 0.0
H847 H 0.54571 0.0447 0.08333 0.0
H848 H 0.69739 0.67373 0.77443 0.0
H849 H 0.7182 0.67147 0.79995 0.0
H850 H 0.72998 0.66698 0.66253 0.0
H851 H 0.70887 0.66865 0.63692 0.0
H852 H 0.74299 0.65297 0.71298 0.0
H853 H 0.73267 0.69472 0.7218 0.0
H854 H 0.72057 0.71263 0.74262 0.0
H855 H 0.72588 0.70467 0.88265 0.0
H856 H 0.73789 0.68661 0.86264 0.0
H857 H 0.80314 0.67522 0.7471 0.0
H858 H 0.78193 0.67261 0.7264 0.0
H859 H 0.77295 0.66525 0.86485 0.0
H860 H 0.79444 0.66757 0.88584 0.0
H861 H 0.75868 0.68451 0.8166 0.0
H862 H 0.77105 0.64288 0.80139 0.0
H863 H 0.7842 0.62641 0.7741 0.0
H864 H 0.77629 0.63621 0.63744 0.0
H865 H 0.76323 0.65286 0.66392 0.0
C866 C 0.7044 0.67219 0.74957 0.0
C867 C 0.7015 0.67152 0.70355 0.0
C868 C 0.71634 0.67096 0.76423 0.0
C869 C 0.7258 0.66942 0.7332 0.0
C870 C 0.72289 0.66826 0.68724 0.0
C871 C 0.71083 0.66923 0.67255 0.0
C872 C 0.73867 0.66935 0.74896 0.0
C873 C 0.74641 0.65994 0.73529 0.0
C874 C 0.74324 0.67837 0.7785 0.0
C875 C 0.73607 0.68925 0.79071 0.0
C876 C 0.73119 0.69674 0.75703 0.0
C877 C 0.72436 0.70692 0.76869 0.0
C878 C 0.72243 0.70976 0.81393 0.0
C879 C 0.72737 0.70244 0.84762 0.0
C880 C 0.73419 0.69224 0.83614 0.0
C881 C 0.79669 0.67294 0.77321 0.0
C882 C 0.80046 0.67165 0.8182 0.0
C883 C 0.78457 0.6714 0.76123 0.0
C884 C 0.77586 0.66872 0.794 0.0
C885 C 0.77955 0.66729 0.839 0.0
C886 C 0.79181 0.66857 0.85094 0.0
C887 C 0.76287 0.6681 0.78095 0.0
C888 C 0.75516 0.67746 0.79479 0.0
C889 C 0.75845 0.65925 0.75067 0.0
C890 C 0.76624 0.64919 0.73467 0.0
C891 C 0.77219 0.64159 0.76552 0.0
C892 C 0.77962 0.63221 0.7502 0.0
C893 C 0.7811 0.63028 0.70407 0.0
C894 C 0.77514 0.63772 0.67317 0.0
C895 C 0.76771 0.64712 0.68832 0.0
H896 H 0.78685 0.62301 0.69227 0.0
H897 H 0.71714 0.71765 0.8229 0.0
H898 H 0.56055 0.4562 0.95677 0.0
H899 H 0.5631 0.4769 0.9826 0.0
H900 H 0.60072 0.47594 0.94425 0.0
H901 H 0.59827 0.45489 0.9185 0.0
H902 H 0.59701 0.48614 0.03002 0.0
H903 H 0.5813 0.49193 0.88088 0.0
H904 H 0.56715 0.4879 0.8185 0.0
H905 H 0.53738 0.49977 0.90021 0.0
H906 H 0.55134 0.50378 0.96323 0.0
H907 H 0.60035 0.55058 0.07361 0.0
H908 H 0.60215 0.52992 0.04371 0.0
H909 H 0.5633 0.52601 0.04948 0.0
H910 H 0.56151 0.54669 0.07729 0.0
H911 H 0.57014 0.51866 0.97296 0.0
H912 H 0.58453 0.51105 0.12345 0.0
H913 H 0.59771 0.51387 0.18955 0.0
H914 H 0.62883 0.50462 0.11012 0.0
H915 H 0.61583 0.50189 0.04338 0.0
C916 C 0.56939 0.46034 0.95351 0.0
C917 C 0.57921 0.45381 0.93543 0.0
C918 C 0.57082 0.47225 0.96826 0.0
C919 C 0.58208 0.47806 0.96516 0.0
C920 C 0.59194 0.47165 0.94696 0.0
C921 C 0.5905 0.45965 0.93192 0.0
C922 C 0.58335 0.49079 0.9814 0.0
C923 C 0.59132 0.49334 0.01699 0.0
C924 C 0.57573 0.50013 0.96517 0.0
C925 C 0.56737 0.49811 0.92683 0.0
C926 C 0.57173 0.49366 0.88557 0.0
C927 C 0.56374 0.49138 0.8501 0.0
C928 C 0.55137 0.49357 0.85541 0.0
C929 C 0.54697 0.4981 0.89613 0.0
C930 C 0.55492 0.50041 0.93169 0.0
C931 C 0.59224 0.5452 0.06927 0.0
C932 C 0.58079 0.55027 0.07774 0.0
C933 C 0.59326 0.53337 0.05212 0.0
C934 C 0.58286 0.5263 0.04415 0.0
C935 C 0.57148 0.53124 0.0547 0.0
C936 C 0.57046 0.54307 0.07092 0.0
C937 C 0.58356 0.51403 0.02275 0.0
C938 C 0.57597 0.51156 0.98588 0.0
C939 C 0.59141 0.50475 0.03827 0.0
C940 C 0.59923 0.50641 0.07832 0.0
C941 C 0.59419 0.50971 0.12 0.0
C942 C 0.60163 0.51128 0.15759 0.0
C943 C 0.61411 0.50946 0.154 0.0
C944 C 0.61917 0.50605 0.11283 0.0
C945 C 0.61177 0.50448 0.07512 0.0
H946 H 0.61985 0.51068 0.18315 0.0
H947 H 0.5452 0.49176 0.82796 0.0
H948 H 0.69956 0.33579 0.24326 0.0
H949 H 0.72046 0.33768 0.21802 0.0
H950 H 0.73267 0.33614 0.35581 0.0
H951 H 0.71148 0.33486 0.38139 0.0
H952 H 0.74687 0.35082 0.31075 0.0
H953 H 0.73285 0.31067 0.28503 0.0
H954 H 0.71913 0.29468 0.25766 0.0
H955 H 0.72473 0.30648 0.12157 0.0
H956 H 0.73837 0.32266 0.14822 0.0
H957 H 0.80491 0.32508 0.26015 0.0
H958 H 0.78405 0.32829 0.28437 0.0
H959 H 0.77483 0.34133 0.15209 0.0
H960 H 0.79596 0.33843 0.12766 0.0
H961 H 0.75939 0.3215 0.19305 0.0
H962 H 0.77518 0.36128 0.22427 0.0
H963 H 0.78978 0.37572 0.25678 0.0
H964 H 0.78188 0.3624 0.38929 0.0
H965 H 0.76737 0.34774 0.3575 0.0
C966 C 0.70669 0.33602 0.26826 0.0
C967 C 0.70392 0.33506 0.31426 0.0
C968 C 0.71866 0.33702 0.25377 0.0
C969 C 0.72824 0.33667 0.28479 0.0
C970 C 0.72547 0.33633 0.33109 0.0
C971 C 0.71338 0.33561 0.34575 0.0
C972 C 0.74103 0.33611 0.26839 0.0
C973 C 0.7496 0.34432 0.28535 0.0
C974 C 0.74469 0.3277 0.23488 0.0
C975 C 0.73654 0.31795 0.21867 0.0
C976 C 0.73109 0.30991 0.24929 0.0
C977 C 0.72334 0.30081 0.23391 0.0
C978 C 0.72104 0.29959 0.18791 0.0
C979 C 0.72651 0.30745 0.1572 0.0
C980 C 0.73426 0.31658 0.17242 0.0
C981 C 0.79848 0.32868 0.23611 0.0
C982 C 0.80209 0.33144 0.19182 0.0
C983 C 0.78657 0.33057 0.25016 0.0
C984 C 0.7779 0.33508 0.22014 0.0
C985 C 0.78141 0.33788 0.17583 0.0
C986 C 0.79347 0.33624 0.16194 0.0
C987 C 0.7651 0.33628 0.23499 0.0
C988 C 0.75657 0.32808 0.21805 0.0
C989 C 0.76159 0.34448 0.26921 0.0
C990 C 0.77027 0.35333 0.28844 0.0
C991 C 0.77664 0.36135 0.2603 0.0
C992 C 0.78488 0.36959 0.27861 0.0
C993 C 0.78678 0.36996 0.32506 0.0
C994 C 0.78041 0.3621 0.35331 0.0
C995 C 0.77216 0.35383 0.33517 0.0
H996 H 0.79316 0.37634 0.33917 0.0
H997 H 0.71503 0.29254 0.17606 0.0
H998 H 0.91918 0.4599 0.63048 0.0
H999 H 0.91681 0.48097 0.60503 0.0
H1000 H 0.92182 0.46943 0.46749 0.0
H1001 H 0.92479 0.44872 0.49296 0.0
H1002 H 0.9346 0.48779 0.47775 0.0
H1003 H 0.89334 0.47927 0.51566 0.0
H1004 H 0.87634 0.47281 0.56378 0.0
H1005 H 0.88445 0.50128 0.6574 0.0
H1006 H 0.9016 0.50782 0.61011 0.0
H1007 H 0.91776 0.54433 0.37602 0.0
H1008 H 0.9154 0.52311 0.40031 0.0
H1009 H 0.92172 0.53376 0.53783 0.0
H1010 H 0.92436 0.55474 0.51383 0.0
H1011 H 0.90231 0.51615 0.52578 0.0
H1012 H 0.94435 0.52348 0.48649 0.0
H1013 H 0.96068 0.52992 0.43521 0.0
H1014 H 0.94971 0.50303 0.33919 0.0
H1015 H 0.93319 0.49656 0.38969 0.0
C1016 C 0.91965 0.46191 0.59486 0.0
C1017 C 0.92227 0.45269 0.56379 0.0
C1018 C 0.91824 0.47395 0.5802 0.0
C1019 C 0.91908 0.4769 0.53409 0.0
C1020 C 0.92125 0.46753 0.50319 0.0
C1021 C 0.92292 0.45565 0.51783 0.0
C1022 C 0.91838 0.48971 0.51764 0.0
C1023 C 0.92737 0.49385 0.4878 0.0
C1024 C 0.90913 0.49786 0.53103 0.0
C1025 C 0.89883 0.49395 0.55957 0.0
C1026 C 0.89156 0.48409 0.54669 0.0
C1027 C 0.88188 0.48043 0.57378 0.0
C1028 C 0.87934 0.48661 0.61369 0.0
C1029 C 0.88644 0.49649 0.62652 0.0
C1030 C 0.89613 0.50018 0.59956 0.0
C1031 C 0.91846 0.54213 0.41144 0.0
C1032 C 0.92134 0.55116 0.44296 0.0
C1033 C 0.91714 0.53003 0.42529 0.0
C1034 C 0.91841 0.52685 0.47094 0.0
C1035 C 0.92066 0.53598 0.50255 0.0
C1036 C 0.92225 0.54796 0.48868 0.0
C1037 C 0.91838 0.51397 0.48574 0.0
C1038 C 0.90937 0.50992 0.51547 0.0
C1039 C 0.92748 0.50582 0.47178 0.0
C1040 C 0.93746 0.50964 0.4416 0.0
C1041 C 0.94536 0.51902 0.45426 0.0
C1042 C 0.95466 0.52266 0.42538 0.0
C1043 C 0.95621 0.51691 0.3839 0.0
C1044 C 0.94848 0.50749 0.37129 0.0
C1045 C 0.93916 0.50383 0.40003 0.0
H1046 H 0.96342 0.51974 0.36159 0.0
H1047 H 0.87184 0.48376 0.63461 0.0
H1048 H 0.29549 0.33835 0.38547 0.0
H1049 H 0.27404 0.3411 0.36478 0.0
H1050 H 0.28258 0.33269 0.22676 0.0
H1051 H 0.30374 0.32971 0.24713 0.0
H1052 H 0.26645 0.35296 0.23749 0.0
H1053 H 0.27136 0.3111 0.28455 0.0
H1054 H 0.27711 0.29502 0.33792 0.0
H1055 H 0.25243 0.30944 0.43584 0.0
H1056 H 0.24658 0.32567 0.38298 0.0
H1057 H 0.20991 0.3366 0.13755 0.0
H1058 H 0.23087 0.33889 0.16357 0.0
H1059 H 0.21871 0.33635 0.30134 0.0
H1060 H 0.19802 0.33334 0.27524 0.0
H1061 H 0.23675 0.32313 0.29536 0.0
H1062 H 0.22994 0.36387 0.24701 0.0
H1063 H 0.22409 0.38022 0.19483 0.0
H1064 H 0.25201 0.36926 0.10295 0.0
H1065 H 0.25792 0.35275 0.15432 0.0
C1066 C 0.29277 0.33721 0.35072 0.0
C1067 C 0.30128 0.3337 0.31806 0.0
C1068 C 0.28054 0.33876 0.33893 0.0
C1069 C 0.27671 0.33708 0.29417 0.0
C1070 C 0.28531 0.33407 0.2614 0.0
C1071 C 0.2974 0.33228 0.27324 0.0
C1072 C 0.2637 0.33772 0.28136 0.0
C1073 C 0.25992 0.34645 0.25002 0.0
C1074 C 0.25515 0.32937 0.29829 0.0
C1075 C 0.25865 0.31966 0.33007 0.0
C1076 C 0.26724 0.3109 0.31762 0.0
C1077 C 0.2705 0.30175 0.34774 0.0
C1078 C 0.26518 0.30124 0.39036 0.0
C1079 C 0.25656 0.30986 0.40286 0.0
C1080 C 0.25326 0.31903 0.37281 0.0
C1081 C 0.21174 0.33671 0.17334 0.0
C1082 C 0.20235 0.33476 0.20435 0.0
C1083 C 0.22373 0.33807 0.18833 0.0
C1084 C 0.22649 0.33791 0.23468 0.0
C1085 C 0.21696 0.33643 0.26549 0.0
C1086 C 0.20509 0.33476 0.25053 0.0
C1087 C 0.23928 0.33848 0.25132 0.0
C1088 C 0.24311 0.32987 0.28323 0.0
C1089 C 0.24781 0.34707 0.23528 0.0
C1090 C 0.2443 0.35701 0.20436 0.0
C1091 C 0.23478 0.3649 0.21554 0.0
C1092 C 0.23146 0.3742 0.18613 0.0
C1093 C 0.23765 0.37576 0.14555 0.0
C1094 C 0.24721 0.36804 0.13436 0.0
C1095 C 0.25056 0.35871 0.16364 0.0
H1096 H 0.23507 0.38297 0.12283 0.0
H1097 H 0.2677 0.29414 0.41363 0.0
H1098 H 0.42331 0.5549 0.9928 0.0
H1099 H 0.4201 0.53385 0.97029 0.0
H1100 H 0.41641 0.52357 0.10952 0.0
H1101 H 0.41925 0.54486 0.13231 0.0
H1102 H 0.43506 0.51066 0.05255 0.0
H1103 H 0.39283 0.52114 0.05563 0.0
H1104 H 0.37499 0.53353 0.03668 0.0
H1105 H 0.38078 0.52667 0.89613 0.0
H1106 H 0.39878 0.51439 0.9142 0.0
H1107 H 0.42535 0.44931 0.01542 0.0
H1108 H 0.42259 0.47004 0.04102 0.0
H1109 H 0.41494 0.48129 0.90495 0.0
H1110 H 0.41722 0.46018 0.87927 0.0
H1111 H 0.40136 0.49394 0.96133 0.0
H1112 H 0.44343 0.48511 0.9531 0.0
H1113 H 0.46226 0.47368 0.9663 0.0
H1114 H 0.4583 0.47869 0.1088 0.0
H1115 H 0.43934 0.49001 0.09648 0.0
C1116 C 0.42161 0.54819 0.01863 0.0
C1117 C 0.42154 0.5515 0.06434 0.0
C1118 C 0.41974 0.53617 0.00567 0.0
C1119 C 0.41801 0.52715 0.03817 0.0
C1120 C 0.41769 0.53043 0.08391 0.0
C1121 C 0.41926 0.54256 0.09689 0.0
C1122 C 0.41755 0.51424 0.02407 0.0
C1123 C 0.42758 0.50691 0.03346 0.0
C1124 C 0.40806 0.50957 0.99723 0.0
C1125 C 0.39723 0.51694 0.98627 0.0
C1126 C 0.39038 0.52237 0.02065 0.0
C1127 C 0.38022 0.52935 0.01007 0.0
C1128 C 0.37677 0.53091 0.96522 0.0
C1129 C 0.38347 0.52547 0.93086 0.0
C1130 C 0.39365 0.51849 0.94126 0.0
C1131 C 0.42298 0.45616 0.9909 0.0
C1132 C 0.42167 0.45314 0.94519 0.0
C1133 C 0.42145 0.46806 0.00559 0.0
C1134 C 0.41892 0.47736 0.97484 0.0
C1135 C 0.417 0.4743 0.92935 0.0
C1136 C 0.4183 0.46226 0.91466 0.0
C1137 C 0.41884 0.49023 0.99036 0.0
C1138 C 0.4088 0.49761 0.98085 0.0
C1139 C 0.42848 0.49509 0.01628 0.0
C1140 C 0.4399 0.48831 0.02388 0.0
C1141 C 0.44652 0.4837 0.98727 0.0
C1142 C 0.45723 0.47725 0.99459 0.0
C1143 C 0.46146 0.47543 0.03837 0.0
C1144 C 0.455 0.48009 0.07491 0.0
C1145 C 0.44428 0.48653 0.06778 0.0
H1146 H 0.46975 0.47044 0.04397 0.0
H1147 H 0.3689 0.53632 0.9571 0.0
H1148 H 0.30422 0.67393 0.75989 0.0
H1149 H 0.28307 0.67103 0.78079 0.0
H1150 H 0.27398 0.66423 0.64206 0.0
H1151 H 0.29542 0.66686 0.62082 0.0
H1152 H 0.25964 0.68291 0.68967 0.0
H1153 H 0.27233 0.64155 0.70656 0.0
H1154 H 0.2856 0.62521 0.73408 0.0
H1155 H 0.27769 0.63515 0.8706 0.0
H1156 H 0.2645 0.65167 0.8439 0.0
H1157 H 0.19848 0.67229 0.73491 0.0
H1158 H 0.21919 0.66979 0.70851 0.0
H1159 H 0.23143 0.66595 0.84564 0.0
H1160 H 0.21041 0.66784 0.87216 0.0
H1161 H 0.24428 0.65172 0.79546 0.0
H1162 H 0.23374 0.69347 0.78403 0.0
H1163 H 0.22156 0.71122 0.76203 0.0
H1164 H 0.22666 0.70245 0.62257 0.0
H1165 H 0.23875 0.68455 0.64377 0.0
C1166 C 0.29776 0.6717 0.73376 0.0
C1167 C 0.30148 0.67068 0.68861 0.0
C1168 C 0.28567 0.66999 0.74586 0.0
C1169 C 0.27695 0.66739 0.71307 0.0
C1170 C 0.2806 0.6662 0.66791 0.0
C1171 C 0.29282 0.66766 0.65583 0.0
C1172 C 0.26397 0.66669 0.72623 0.0
C1173 C 0.25619 0.67594 0.71196 0.0
C1174 C 0.25965 0.65792 0.75703 0.0
C1175 C 0.2675 0.64792 0.77319 0.0
C1176 C 0.27349 0.64032 0.74245 0.0
C1177 C 0.28099 0.63101 0.7579 0.0
C1178 C 0.28251 0.62916 0.80406 0.0
C1179 C 0.27651 0.63659 0.83485 0.0
C1180 C 0.26901 0.64592 0.81957 0.0
C1181 C 0.20557 0.67083 0.75951 0.0
C1182 C 0.20283 0.67041 0.8057 0.0
C1183 C 0.21745 0.66946 0.74435 0.0
C1184 C 0.22701 0.66806 0.77502 0.0
C1185 C 0.22426 0.66713 0.8212 0.0
C1186 C 0.21225 0.66822 0.8364 0.0
C1187 C 0.23983 0.66794 0.75869 0.0
C1188 C 0.24763 0.65862 0.77268 0.0
C1189 C 0.24429 0.67683 0.72841 0.0
C1190 C 0.23704 0.6876 0.71551 0.0
C1191 C 0.23219 0.69528 0.74868 0.0
C1192 C 0.22532 0.70537 0.73635 0.0
C1193 C 0.22331 0.70794 0.69093 0.0
C1194 C 0.22821 0.70044 0.65774 0.0
C1195 C 0.23508 0.69032 0.66989 0.0
H1196 H 0.21799 0.71576 0.68146 0.0
H1197 H 0.28832 0.62195 0.81595 0.0
H1198 H 0.10174 0.45593 0.57754 0.0
H1199 H 0.10359 0.47666 0.54825 0.0
H1200 H 0.06471 0.48038 0.55169 0.0
H1201 H 0.06288 0.45963 0.57878 0.0
H1202 H 0.07188 0.48758 0.47537 0.0
H1203 H 0.08562 0.49552 0.62671 0.0
H1204 H 0.09864 0.49288 0.69339 0.0
H1205 H 0.12991 0.5023 0.61505 0.0
H1206 H 0.11709 0.50485 0.54776 0.0
H1207 H 0.0618 0.5501 0.45994 0.0
H1208 H 0.06444 0.52935 0.48559 0.0
H1209 H 0.10198 0.53042 0.44634 0.0
H1210 H 0.09942 0.55145 0.42044 0.0
H1211 H 0.09815 0.52044 0.53344 0.0
H1212 H 0.08311 0.51464 0.38386 0.0
H1213 H 0.06925 0.51818 0.32021 0.0
H1214 H 0.03938 0.50525 0.39913 0.0
H1215 H 0.05303 0.5018 0.46353 0.0
C1216 C 0.09364 0.4613 0.57292 0.0
C1217 C 0.08217 0.45617 0.58044 0.0
C1218 C 0.09468 0.47316 0.5561 0.0
C1219 C 0.08428 0.48019 0.54754 0.0
C1220 C 0.07288 0.47519 0.55738 0.0
C1221 C 0.07184 0.46333 0.57322 0.0
C1222 C 0.085 0.49242 0.52593 0.0
C1223 C 0.07756 0.49476 0.48854 0.0
C1224 C 0.09271 0.50178 0.54171 0.0
C1225 C 0.10042 0.50023 0.5821 0.0
C1226 C 0.09529 0.49693 0.62363 0.0
C1227 C 0.10263 0.49547 0.66154 0.0
C1228 C 0.1151 0.49738 0.65842 0.0
C1229 C 0.12026 0.50079 0.6174 0.0
C1230 C 0.11296 0.50226 0.57937 0.0
C1231 C 0.07064 0.54597 0.45646 0.0
C1232 C 0.08041 0.55249 0.43806 0.0
C1233 C 0.07212 0.53405 0.47111 0.0
C1234 C 0.08339 0.52828 0.46778 0.0
C1235 C 0.09319 0.53469 0.44924 0.0
C1236 C 0.09169 0.54667 0.43413 0.0
C1237 C 0.08474 0.51558 0.48416 0.0
C1238 C 0.09259 0.51317 0.52024 0.0
C1239 C 0.07729 0.50616 0.46761 0.0
C1240 C 0.06909 0.50802 0.42863 0.0
C1241 C 0.07358 0.51261 0.38774 0.0
C1242 C 0.06576 0.5146 0.35151 0.0
C1243 C 0.05344 0.51196 0.35564 0.0
C1244 C 0.04893 0.50728 0.39597 0.0
C1245 C 0.0567 0.5053 0.43234 0.0
H1246 H 0.0474 0.51353 0.32759 0.0
H1247 H 0.12077 0.49625 0.68782 0.0
H1248 H 0.16753 0.13349 0.0287 0.0
H1249 H 0.15813 0.12181 0.96768 0.0
H1250 H 0.13091 0.14952 0.95265 0.0
H1251 H 0.13998 0.16092 0.01416 0.0
H1252 H 0.12036 0.12896 0.94768 0.0
H1253 H 0.15623 0.14538 0.87781 0.0
H1254 H 0.17815 0.14891 0.8694 0.0
H1255 H 0.18422 0.11062 0.85853 0.0
H1256 H 0.16234 0.10685 0.86742 0.0
H1257 H 0.09624 0.1164 0.73366 0.0
H1258 H 0.10734 0.1255 0.79602 0.0
H1259 H 0.13014 0.0939 0.80412 0.0
H1260 H 0.1191 0.08477 0.74088 0.0
H1261 H 0.14339 0.11442 0.81506 0.0
H1262 H 0.10709 0.09834 0.87982 0.0
H1263 H 0.08508 0.09514 0.8866 0.0
H1264 H 0.07978 0.13329 0.9062 0.0
H1265 H 0.10175 0.13674 0.89893 0.0
C1266 C 0.15954 0.13707 0.01237 0.0
C1267 C 0.15453 0.14816 0.02646 0.0
C1268 C 0.15419 0.13042 0.9772 0.0
C1269 C 0.14383 0.1348 0.95481 0.0
C1270 C 0.13885 0.14585 0.96914 0.0
C1271 C 0.14409 0.15241 0.00443 0.0
C1272 C 0.13798 0.12794 0.91694 0.0
C1273 C 0.12542 0.12592 0.91854 0.0
C1274 C 0.14453 0.12357 0.87918 0.0
C1275 C 0.15767 0.12583 0.87378 0.0
C1276 C 0.16225 0.13771 0.87396 0.0
C1277 C 0.17467 0.13975 0.86905 0.0
C1278 C 0.18258 0.13 0.86358 0.0
C1279 C 0.17809 0.11817 0.86286 0.0
C1280 C 0.16568 0.11608 0.8678 0.0
C1281 C 0.10364 0.11137 0.7485 0.0
C1282 C 0.10671 0.09979 0.73228 0.0
C1283 C 0.10997 0.11658 0.78443 0.0
C1284 C 0.11949 0.11034 0.80556 0.0
C1285 C 0.12281 0.09891 0.78866 0.0
C1286 C 0.11647 0.09367 0.75251 0.0
C1287 C 0.12577 0.11574 0.84553 0.0
C1288 C 0.13838 0.11743 0.84437 0.0
C1289 C 0.11927 0.11987 0.88368 0.0
C1290 C 0.10606 0.11781 0.88848 0.0
C1291 C 0.10123 0.10606 0.88529 0.0
C1292 C 0.08876 0.1042 0.88926 0.0
C1293 C 0.08103 0.11401 0.89673 0.0
C1294 C 0.08577 0.1257 0.90038 0.0
C1295 C 0.09823 0.12761 0.89639 0.0
H1296 H 0.07138 0.11255 0.89978 0.0
H1297 H 0.19219 0.1316 0.85978 0.0
H1298 H 0.1669 0.87165 0.9823 0.0
H1299 H 0.15711 0.88295 0.04334 0.0
H1300 H 0.13121 0.85404 0.05969 0.0
H1301 H 0.14062 0.84304 0.99778 0.0
H1302 H 0.11971 0.87386 0.06552 0.0
H1303 H 0.15674 0.85976 0.13397 0.0
H1304 H 0.17886 0.85746 0.14108 0.0
H1305 H 0.18289 0.89607 0.14905 0.0
H1306 H 0.1608 0.8986 0.14146 0.0
H1307 H 0.09572 0.88705 0.27955 0.0
H1308 H 0.10692 0.8779 0.2175 0.0
H1309 H 0.12866 0.91016 0.20551 0.0
H1310 H 0.11758 0.91932 0.26857 0.0
H1311 H 0.14254 0.89036 0.19536 0.0
H1312 H 0.10513 0.9041 0.13141 0.0
H1313 H 0.08294 0.90604 0.12597 0.0
H1314 H 0.07963 0.86753 0.11067 0.0
H1315 H 0.10179 0.86533 0.1166 0.0
C1316 C 0.15912 0.86772 0.99894 0.0
C1317 C 0.15456 0.85643 0.98505 0.0
C1318 C 0.15355 0.87416 0.03416 0.0
C1319 C 0.14345 0.86934 0.05698 0.0
C1320 C 0.13893 0.85805 0.0429 0.0
C1321 C 0.14437 0.85172 0.0074 0.0
C1322 C 0.1374 0.87598 0.09495 0.0
C1323 C 0.12474 0.87731 0.09409 0.0
C1324 C 0.14387 0.88089 0.13196 0.0
C1325 C 0.15714 0.87937 0.13667 0.0
C1326 C 0.16235 0.86776 0.13693 0.0
C1327 C 0.17488 0.86642 0.1411 0.0
C1328 C 0.18228 0.87662 0.14538 0.0
C1329 C 0.17715 0.88818 0.14565 0.0
C1330 C 0.16463 0.88958 0.14145 0.0
C1331 C 0.10291 0.89222 0.2639 0.0
C1332 C 0.10568 0.90397 0.279 0.0
C1333 C 0.10929 0.88698 0.22813 0.0
C1334 C 0.11853 0.89339 0.20597 0.0
C1335 C 0.12155 0.90502 0.22175 0.0
C1336 C 0.11519 0.91026 0.25781 0.0
C1337 C 0.12488 0.88796 0.1662 0.0
C1338 C 0.13756 0.88691 0.16666 0.0
C1339 C 0.11843 0.88323 0.12887 0.0
C1340 C 0.10511 0.88455 0.12479 0.0
C1341 C 0.09966 0.89604 0.12714 0.0
C1342 C 0.08709 0.89718 0.12395 0.0
C1343 C 0.07988 0.88691 0.11807 0.0
C1344 C 0.08522 0.87548 0.11525 0.0
C1345 C 0.09779 0.87428 0.11847 0.0
H1346 H 0.07015 0.88782 0.11563 0.0
H1347 H 0.19198 0.87555 0.1486 0.0
H1348 H 0.38222 0.91907 0.2304 0.0
H1349 H 0.37032 0.90975 0.29108 0.0
H1350 H 0.39708 0.88151 0.3035 0.0
H1351 H 0.40867 0.89048 0.24238 0.0
H1352 H 0.37626 0.87162 0.30849 0.0
H1353 H 0.394 0.90673 0.37969 0.0
H1354 H 0.39816 0.92852 0.38916 0.0
H1355 H 0.36012 0.93558 0.40244 0.0
H1356 H 0.35572 0.91384 0.39251 0.0
H1357 H 0.36579 0.84721 0.52294 0.0
H1358 H 0.37421 0.85855 0.45992 0.0
H1359 H 0.34229 0.88096 0.45591 0.0
H1360 H 0.33377 0.86962 0.51979 0.0
H1361 H 0.36313 0.89442 0.4437 0.0
H1362 H 0.34591 0.85861 0.37922 0.0
H1363 H 0.34231 0.83667 0.37193 0.0
H1364 H 0.38015 0.83083 0.3474 0.0
H1365 H 0.38402 0.85272 0.35517 0.0
C1366 C 0.38553 0.91085 0.24604 0.0
C1367 C 0.39641 0.90553 0.23137 0.0
C1368 C 0.37875 0.90556 0.28102 0.0
C1369 C 0.38281 0.89494 0.30259 0.0
C1370 C 0.39366 0.88964 0.28763 0.0
C1371 C 0.40033 0.89483 0.25255 0.0
C1372 C 0.37588 0.88914 0.34037 0.0
C1373 C 0.37352 0.87664 0.33816 0.0
C1374 C 0.37189 0.89563 0.37883 0.0
C1375 C 0.37452 0.90869 0.38483 0.0
C1376 C 0.38652 0.91294 0.38429 0.0
C1377 C 0.38892 0.92528 0.3898 0.0
C1378 C 0.37941 0.93344 0.39625 0.0
C1379 C 0.36747 0.92926 0.39735 0.0
C1380 C 0.36502 0.91693 0.39181 0.0
C1381 C 0.36053 0.85458 0.5089 0.0
C1382 C 0.34904 0.85744 0.52641 0.0
C1383 C 0.36536 0.86104 0.4726 0.0
C1384 C 0.35884 0.87052 0.45247 0.0
C1385 C 0.3475 0.87366 0.47064 0.0
C1386 C 0.34262 0.86715 0.50713 0.0
C1387 C 0.36387 0.8769 0.41212 0.0
C1388 C 0.36582 0.88947 0.4138 0.0
C1389 C 0.36758 0.87047 0.37323 0.0
C1390 C 0.36526 0.85731 0.36809 0.0
C1391 C 0.35348 0.85264 0.37255 0.0
C1392 C 0.35139 0.84021 0.3683 0.0
C1393 C 0.361 0.83236 0.35929 0.0
C1394 C 0.37272 0.83692 0.3544 0.0
C1395 C 0.37486 0.84934 0.35867 0.0
H1396 H 0.35936 0.82273 0.35603 0.0
H1397 H 0.38129 0.94298 0.40052 0.0
H1398 H 0.3831 0.0874 0.78188 0.0
H1399 H 0.37118 0.09677 0.72146 0.0
H1400 H 0.39928 0.12339 0.70197 0.0
H1401 H 0.41089 0.11441 0.76308 0.0
H1402 H 0.3792 0.13438 0.69728 0.0
H1403 H 0.39384 0.09745 0.62931 0.0
H1404 H 0.39656 0.07535 0.62285 0.0
H1405 H 0.35803 0.07052 0.61708 0.0
H1406 H 0.35509 0.09259 0.62402 0.0
H1407 H 0.36631 0.15723 0.48173 0.0
H1408 H 0.37528 0.14628 0.54466 0.0
H1409 H 0.34283 0.1249 0.5579 0.0
H1410 H 0.3338 0.13579 0.49401 0.0
H1411 H 0.36291 0.11089 0.56868 0.0
H1412 H 0.34872 0.14836 0.63067 0.0
H1413 H 0.3465 0.17055 0.63505 0.0
H1414 H 0.38494 0.17439 0.65056 0.0
H1415 H 0.38741 0.15223 0.64567 0.0
C1416 C 0.38671 0.09527 0.76472 0.0
C1417 C 0.39796 0.10014 0.77749 0.0
C1418 C 0.37991 0.10059 0.72986 0.0
C1419 C 0.38433 0.11076 0.70633 0.0
C1420 C 0.39556 0.11561 0.71934 0.0
C1421 C 0.40224 0.11042 0.75443 0.0
C1422 C 0.37736 0.11656 0.66859 0.0
C1423 C 0.37578 0.1292 0.66901 0.0
C1424 C 0.37248 0.1099 0.63197 0.0
C1425 C 0.37424 0.09665 0.62769 0.0
C1426 C 0.38595 0.09166 0.62698 0.0
C1427 C 0.38753 0.07914 0.62318 0.0
C1428 C 0.37747 0.07153 0.6197 0.0
C1429 C 0.36581 0.07643 0.61987 0.0
C1430 C 0.36418 0.08894 0.6237 0.0
C1431 C 0.36105 0.15018 0.49783 0.0
C1432 C 0.34928 0.14747 0.48282 0.0
C1433 C 0.3662 0.14394 0.5341 0.0
C1434 C 0.3597 0.13487 0.55682 0.0
C1435 C 0.34804 0.13189 0.5412 0.0
C1436 C 0.34287 0.13814 0.50468 0.0
C1437 C 0.36509 0.12868 0.59704 0.0
C1438 C 0.3663 0.11601 0.59714 0.0
C1439 C 0.36973 0.13531 0.63405 0.0
C1440 C 0.36825 0.14864 0.63748 0.0
C1441 C 0.3567 0.15394 0.63475 0.0
C1442 C 0.3554 0.16651 0.63735 0.0
C1443 C 0.36557 0.17387 0.64299 0.0
C1444 C 0.37707 0.16868 0.64616 0.0
C1445 C 0.37842 0.15611 0.64354 0.0
H1446 H 0.36454 0.1836 0.64497 0.0
H1447 H 0.37872 0.06185 0.61676 0.0
H1448 H 0.83497 0.87031 0.98797 0.0
H1449 H 0.84383 0.88143 0.05161 0.0
H1450 H 0.87438 0.85716 0.05137 0.0
H1451 H 0.86563 0.84608 0.98827 0.0
H1452 H 0.86594 0.86045 0.13573 0.0
H1453 H 0.8765 0.88603 0.00977 0.0
H1454 H 0.87216 0.89856 0.94301 0.0
H1455 H 0.84994 0.92209 0.02305 0.0
H1456 H 0.85402 0.90959 0.09019 0.0
H1457 H 0.90924 0.88985 0.26992 0.0
H1458 H 0.89783 0.88055 0.20892 0.0
H1459 H 0.87134 0.90915 0.2166 0.0
H1460 H 0.88303 0.91877 0.27718 0.0
H1461 H 0.87562 0.90428 0.13156 0.0
H1462 H 0.86584 0.87978 0.25842 0.0
H1463 H 0.86982 0.86738 0.32581 0.0
H1464 H 0.88965 0.84185 0.24563 0.0
H1465 H 0.88594 0.85419 0.17785 0.0
C1466 C 0.84361 0.8674 1.00132 0.0
C1467 C 0.84957 0.8573 0.98282 0.0
C1468 C 0.84868 0.87378 0.03771 0.0
C1469 C 0.85983 0.87018 0.05642 0.0
C1470 C 0.86578 0.86012 0.03781 0.0
C1471 C 0.86076 0.85381 1.00146 0.0
C1472 C 0.86531 0.87668 0.09573 0.0
C1473 C 0.86815 0.87002 0.13461 0.0
C1474 C 0.86786 0.88926 0.09516 0.0
C1475 C 0.86545 0.8968 0.05488 0.0
C1476 C 0.87061 0.89382 0.01305 0.0
C1477 C 0.86821 0.90092 0.97516 0.0
C1478 C 0.86075 0.91109 0.97876 0.0
C1479 C 0.8557 0.9142 0.02029 0.0
C1480 C 0.85806 0.90711 0.05828 0.0
C1481 C 0.90095 0.89417 0.25891 0.0
C1482 C 0.89702 0.90504 0.27884 0.0
C1483 C 0.89437 0.88879 0.22397 0.0
C1484 C 0.88353 0.89397 0.20838 0.0
C1485 C 0.87962 0.9049 0.22797 0.0
C1486 C 0.88629 0.91038 0.26279 0.0
C1487 C 0.87647 0.888 0.17134 0.0
C1488 C 0.87332 0.89474 0.13293 0.0
C1489 C 0.87353 0.87549 0.17245 0.0
C1490 C 0.87568 0.86797 0.21308 0.0
C1491 C 0.87111 0.87156 0.25519 0.0
C1492 C 0.87331 0.86454 0.29346 0.0
C1493 C 0.88 0.85385 0.29002 0.0
C1494 C 0.88448 0.85014 0.24826 0.0
C1495 C 0.88231 0.85714 0.20989 0.0
H1496 H 0.8817 0.84843 0.31969 0.0
H1497 H 0.85891 0.91658 0.94938 0.0
H1498 H 0.8657 0.15927 0.02085 0.0
H1499 H 0.87443 0.14811 0.95799 0.0
H1500 H 0.84342 0.12444 0.95583 0.0
H1501 H 0.8346 0.13559 0.01959 0.0
H1502 H 0.86468 0.11177 0.94333 0.0
H1503 H 0.84608 0.14679 0.87817 0.0
H1504 H 0.84169 0.16858 0.87029 0.0
H1505 H 0.87925 0.17569 0.8444 0.0
H1506 H 0.8839 0.15396 0.85276 0.0
H1507 H 0.88366 0.0872 0.73016 0.0
H1508 H 0.87175 0.09638 0.79103 0.0
H1509 H 0.89781 0.12535 0.80089 0.0
H1510 H 0.90942 0.11647 0.73956 0.0
H1511 H 0.87669 0.13468 0.80689 0.0
H1512 H 0.89578 0.10038 0.87821 0.0
H1513 H 0.90074 0.07877 0.88827 0.0
H1514 H 0.86301 0.07043 0.90395 0.0
H1515 H 0.85783 0.09199 0.89344 0.0
C1516 C 0.86071 0.15167 0.00725 0.0
C1517 C 0.84938 0.14839 0.02527 0.0
C1518 C 0.86572 0.1453 0.97103 0.0
C1519 C 0.85953 0.13552 0.95144 0.0
C1520 C 0.84837 0.13198 0.97011 0.0
C1521 C 0.84332 0.13838 0.00654 0.0
C1522 C 0.86472 0.12923 0.91115 0.0
C1523 C 0.86712 0.11674 0.91317 0.0
C1524 C 0.86813 0.13569 0.87192 0.0
C1525 C 0.86534 0.14875 0.86641 0.0
C1526 C 0.85342 0.15301 0.87108 0.0
C1527 C 0.85088 0.16535 0.86649 0.0
C1528 C 0.86019 0.17352 0.85694 0.0
C1529 C 0.87205 0.16935 0.85183 0.0
C1530 C 0.87464 0.15702 0.85643 0.0
C1531 C 0.88681 0.09554 0.74525 0.0
C1532 C 0.89751 0.10108 0.72983 0.0
C1533 C 0.88003 0.10076 0.78035 0.0
C1534 C 0.8839 0.11154 0.80131 0.0
C1535 C 0.89454 0.11708 0.78553 0.0
C1536 C 0.90122 0.11195 0.75033 0.0
C1537 C 0.87696 0.11723 0.83931 0.0
C1538 C 0.87419 0.12964 0.83683 0.0
C1539 C 0.87331 0.1107 0.87817 0.0
C1540 C 0.87641 0.09776 0.88452 0.0
C1541 C 0.88854 0.09392 0.88346 0.0
C1542 C 0.89139 0.08169 0.8893 0.0
C1543 C 0.88219 0.07323 0.8966 0.0
C1544 C 0.87013 0.07699 0.8982 0.0
C1545 C 0.86723 0.08921 0.89234 0.0
H1546 H 0.88442 0.06377 0.90112 0.0
H1547 H 0.85821 0.18307 0.85342 0.0
H1548 H 0.59562 0.11589 0.76583 0.0
H1549 H 0.60644 0.12489 0.70247 0.0
H1550 H 0.63215 0.09556 0.705 0.0
H1551 H 0.62123 0.08637 0.76861 0.0
H1552 H 0.6431 0.11873 0.69297 0.0
H1553 H 0.61131 0.09519 0.62681 0.0
H1554 H 0.5903 0.08821 0.61666 0.0
H1555 H 0.57935 0.12429 0.5815 0.0
H1556 H 0.60028 0.13152 0.5921 0.0
H1557 H 0.66857 0.13555 0.47981 0.0
H1558 H 0.65948 0.12411 0.542 0.0
H1559 H 0.62842 0.14774 0.53924 0.0
H1560 H 0.63731 0.15897 0.47672 0.0
H1561 H 0.62086 0.12575 0.55038 0.0
H1562 H 0.65167 0.14982 0.62076 0.0
H1563 H 0.67232 0.15758 0.63327 0.0
H1564 H 0.68477 0.1216 0.66248 0.0
H1565 H 0.6642 0.1136 0.64956 0.0
C1566 C 0.60362 0.11134 0.75322 0.0
C1567 C 0.60752 0.10036 0.77242 0.0
C1568 C 0.60979 0.1165 0.71674 0.0
C1569 C 0.62007 0.11087 0.69847 0.0
C1570 C 0.62423 0.10008 0.71835 0.0
C1571 C 0.61797 0.09482 0.7547 0.0
C1572 C 0.62623 0.1162 0.65812 0.0
C1573 C 0.63831 0.12007 0.66152 0.0
C1574 C 0.61994 0.11824 0.61727 0.0
C1575 C 0.60735 0.11391 0.61063 0.0
C1576 C 0.60441 0.10165 0.61726 0.0
C1577 C 0.59251 0.09765 0.61137 0.0
C1578 C 0.58349 0.10581 0.59854 0.0
C1579 C 0.58635 0.11798 0.59148 0.0
C1580 C 0.59823 0.12204 0.59738 0.0
C1581 C 0.65978 0.13826 0.49231 0.0
C1582 C 0.6537 0.14821 0.47313 0.0
C1583 C 0.6546 0.13175 0.52819 0.0
C1584 C 0.64327 0.1351 0.54609 0.0
C1585 C 0.63714 0.14491 0.52635 0.0
C1586 C 0.64227 0.15137 0.49048 0.0
C1587 C 0.63773 0.12848 0.58521 0.0
C1588 C 0.62573 0.12435 0.58163 0.0
C1589 C 0.64407 0.12631 0.62599 0.0
C1590 C 0.65643 0.13109 0.63367 0.0
C1591 C 0.65883 0.14355 0.62948 0.0
C1592 C 0.67051 0.14799 0.63671 0.0
C1593 C 0.67986 0.14008 0.64852 0.0
C1594 C 0.67753 0.12771 0.65324 0.0
C1595 C 0.66586 0.12322 0.64598 0.0
H1596 H 0.68889 0.14355 0.65412 0.0
H1597 H 0.57428 0.10269 0.594 0.0
H1598 H 0.66888 0.87189 0.52461 0.0
H1599 H 0.6599 0.88311 0.46141 0.0
H1600 H 0.63065 0.85734 0.45564 0.0
H1601 H 0.63948 0.84618 0.51849 0.0
H1602 H 0.63983 0.86191 0.37224 0.0
H1603 H 0.62644 0.88526 0.50017 0.0
H1604 H 0.62921 0.89732 0.56923 0.0
H1605 H 0.65046 0.92322 0.49594 0.0
H1606 H 0.64796 0.91122 0.42652 0.0
H1607 H 0.59527 0.88961 0.23951 0.0
H1608 H 0.60705 0.88064 0.30011 0.0
H1609 H 0.63178 0.91082 0.29607 0.0
H1610 H 0.61974 0.92007 0.2355 0.0
H1611 H 0.62717 0.90493 0.38142 0.0
H1612 H 0.63957 0.88261 0.25248 0.0
H1613 H 0.6371 0.87069 0.18297 0.0
H1614 H 0.61852 0.84293 0.25694 0.0
H1615 H 0.62074 0.85477 0.32682 0.0
C1616 C 0.66051 0.86865 0.50998 0.0
C1617 C 0.65491 0.85813 0.5268 0.0
C1618 C 0.65536 0.8751 0.47388 0.0
C1619 C 0.64454 0.87112 0.45364 0.0
C1620 C 0.63899 0.86061 0.47044 0.0
C1621 C 0.64405 0.85425 0.50663 0.0
C1622 C 0.63901 0.87769 0.41458 0.0
C1623 C 0.63697 0.87129 0.37444 0.0
C1624 C 0.63563 0.89006 0.41662 0.0
C1625 C 0.63714 0.89727 0.45829 0.0
C1626 C 0.6318 0.89347 0.49887 0.0
C1627 C 0.6333 0.9003 0.53806 0.0
C1628 C 0.64004 0.911 0.53701 0.0
C1629 C 0.64527 0.91491 0.49673 0.0
C1630 C 0.6438 0.9081 0.45745 0.0
C1631 C 0.60324 0.89437 0.25121 0.0
C1632 C 0.60658 0.90556 0.23222 0.0
C1633 C 0.61003 0.88916 0.28594 0.0
C1634 C 0.62049 0.89489 0.30247 0.0
C1635 C 0.6238 0.90615 0.28394 0.0
C1636 C 0.61694 0.91142 0.24912 0.0
C1637 C 0.62776 0.88907 0.33929 0.0
C1638 C 0.63014 0.89559 0.37898 0.0
C1639 C 0.63155 0.87682 0.33677 0.0
C1640 C 0.63024 0.86963 0.29485 0.0
C1641 C 0.63489 0.874 0.25388 0.0
C1642 C 0.63354 0.86725 0.21442 0.0
C1643 C 0.62764 0.85607 0.21552 0.0
C1644 C 0.62309 0.8516 0.25613 0.0
C1645 C 0.6244 0.85832 0.29569 0.0
H1646 H 0.6266 0.85086 0.18493 0.0
H1647 H 0.64119 0.91628 0.56738 0.0
H1648 H 0.67086 0.63691 0.51704 0.0
H1649 H 0.66199 0.62526 0.45479 0.0
H1650 H 0.62941 0.64662 0.46381 0.0
H1651 H 0.63813 0.65812 0.5259 0.0
H1652 H 0.62361 0.62365 0.45418 0.0
H1653 H 0.65078 0.65105 0.37987 0.0
H1654 H 0.67039 0.66078 0.36367 0.0
H1655 H 0.68548 0.62635 0.32681 0.0
H1656 H 0.66599 0.61639 0.3434 0.0
H1657 H 0.59552 0.61474 0.24387 0.0
H1658 H 0.60687 0.62359 0.30611 0.0
H1659 H 0.6341 0.5959 0.29254 0.0
H1660 H 0.62263 0.58682 0.23002 0.0
H1661 H 0.64371 0.62001 0.30553 0.0
H1662 H 0.61543 0.59306 0.37514 0.0
H1663 H 0.59536 0.58408 0.38934 0.0
H1664 H 0.58197 0.61856 0.43366 0.0
H1665 H 0.60192 0.62781 0.41907 0.0
C1666 C 0.6618 0.6391 0.50579 0.0
C1667 C 0.65523 0.64848 0.52658 0.0
C1668 C 0.65675 0.63247 0.46998 0.0
C1669 C 0.64502 0.63508 0.45408 0.0
C1670 C 0.63844 0.64436 0.47525 0.0
C1671 C 0.64348 0.65098 0.51082 0.0
C1672 C 0.63948 0.62822 0.41568 0.0
C1673 C 0.62801 0.62296 0.42164 0.0
C1674 C 0.64525 0.627 0.37324 0.0
C1675 C 0.65698 0.63295 0.36342 0.0
C1676 C 0.65832 0.64554 0.36871 0.0
C1677 C 0.6694 0.6511 0.35938 0.0
C1678 C 0.67919 0.64418 0.34437 0.0
C1679 C 0.6779 0.63169 0.33854 0.0
C1680 C 0.66683 0.62609 0.34789 0.0
C1681 C 0.60395 0.61052 0.25381 0.0
C1682 C 0.60812 0.60002 0.23185 0.0
C1683 C 0.61043 0.6156 0.28963 0.0
C1684 C 0.62132 0.61039 0.30441 0.0
C1685 C 0.62572 0.60009 0.28184 0.0
C1686 C 0.61914 0.59489 0.24616 0.0
C1687 C 0.62781 0.61564 0.34406 0.0
C1688 C 0.63942 0.6206 0.33828 0.0
C1689 C 0.62214 0.61668 0.38664 0.0
C1690 C 0.61014 0.61115 0.39564 0.0
C1691 C 0.60818 0.59876 0.38756 0.0
C1692 C 0.59683 0.59361 0.39574 0.0
C1693 C 0.58739 0.60075 0.4123 0.0
C1694 C 0.58929 0.61305 0.4208 0.0
C1695 C 0.60062 0.61824 0.41262 0.0
H1696 H 0.57861 0.59675 0.41862 0.0
H1697 H 0.68776 0.64851 0.33713 0.0
H1698 H 0.62231 0.41755 0.78549 0.0
H1699 H 0.63435 0.40834 0.72494 0.0
H1700 H 0.60662 0.38133 0.70574 0.0
H1701 H 0.59492 0.39013 0.76683 0.0
H1702 H 0.62679 0.37063 0.70033 0.0
H1703 H 0.61152 0.4075 0.63357 0.0
H1704 H 0.60856 0.42958 0.62764 0.0
H1705 H 0.64702 0.43479 0.62026 0.0
H1706 H 0.6502 0.41274 0.62668 0.0
H1707 H 0.63872 0.34821 0.48339 0.0
H1708 H 0.62997 0.35909 0.54697 0.0
H1709 H 0.66246 0.38045 0.55895 0.0
H1710 H 0.67128 0.36962 0.49452 0.0
H1711 H 0.64228 0.39443 0.57111 0.0
H1712 H 0.65704 0.35696 0.63129 0.0
H1713 H 0.65943 0.33478 0.635 0.0
H1714 H 0.6211 0.33066 0.65313 0.0
H1715 H 0.61846 0.35281 0.64892 0.0
C1716 C 0.61883 0.40962 0.76844 0.0
C1717 C 0.60764 0.40459 0.78122 0.0
C1718 C 0.62569 0.40439 0.73349 0.0
C1719 C 0.62139 0.39417 0.70993 0.0
C1720 C 0.61025 0.38916 0.7231 0.0
C1721 C 0.60351 0.39424 0.75821 0.0
C1722 C 0.62835 0.3885 0.67186 0.0
C1723 C 0.63005 0.37587 0.67196 0.0
C1724 C 0.633 0.39526 0.63506 0.0
C1725 C 0.6311 0.40849 0.63112 0.0
C1726 C 0.61934 0.41337 0.63101 0.0
C1727 C 0.61763 0.42587 0.62751 0.0
C1728 C 0.6276 0.43359 0.62372 0.0
C1729 C 0.63931 0.42881 0.62329 0.0
C1730 C 0.64107 0.41631 0.62683 0.0
C1731 C 0.64403 0.35525 0.49932 0.0
C1732 C 0.65576 0.35797 0.48383 0.0
C1733 C 0.63901 0.36145 0.53596 0.0
C1734 C 0.64559 0.37049 0.55852 0.0
C1735 C 0.65719 0.37349 0.54238 0.0
C1736 C 0.66224 0.36727 0.50553 0.0
C1737 C 0.64037 0.37658 0.59925 0.0
C1738 C 0.63907 0.38924 0.59969 0.0
C1739 C 0.63597 0.36986 0.63645 0.0
C1740 C 0.63755 0.35654 0.63947 0.0
C1741 C 0.64912 0.35132 0.6358 0.0
C1742 C 0.65051 0.33875 0.63802 0.0
C1743 C 0.64042 0.33131 0.64421 0.0
C1744 C 0.62891 0.33643 0.64831 0.0
C1745 C 0.62746 0.34899 0.64607 0.0
H1746 H 0.64152 0.32159 0.6459 0.0
H1747 H 0.62626 0.44326 0.62101 0.0
H1748 H 0.90639 0.38621 0.72331 0.0
H1749 H 0.89513 0.3771 0.78526 0.0
H1750 H 0.87736 0.41123 0.81015 0.0
H1751 H 0.88839 0.4203 0.74693 0.0
H1752 H 0.89519 0.38024 0.86926 0.0
H1753 H 0.84992 0.40693 0.86036 0.0
H1754 H 0.83675 0.41638 0.80324 0.0
H1755 H 0.8511 0.39262 0.70212 0.0
H1756 H 0.86423 0.38294 0.7587 0.0
H1757 H 0.86445 0.36528 0.06976 0.0
H1758 H 0.87374 0.3767 0.00803 0.0
H1759 H 0.84599 0.36376 0.91776 0.0
H1760 H 0.83618 0.35326 0.98062 0.0
H1761 H 0.85087 0.38414 0.89042 0.0
H1762 H 0.87735 0.35129 0.9289 0.0
H1763 H 0.89009 0.33872 0.97853 0.0
H1764 H 0.91265 0.36943 0.00708 0.0
H1765 H 0.89996 0.38221 0.95799 0.0
C1766 C 0.90001 0.39178 0.74165 0.0
C1767 C 0.89829 0.40401 0.72989 0.0
C1768 C 0.89358 0.38655 0.7774 0.0
C1769 C 0.88528 0.39338 0.80273 0.0
C1770 C 0.88352 0.40562 0.79094 0.0
C1771 C 0.88987 0.41084 0.75476 0.0
C1772 C 0.87877 0.38771 0.84191 0.0
C1773 C 0.88549 0.38113 0.87377 0.0
C1774 C 0.86606 0.38857 0.8479 0.0
C1775 C 0.85817 0.39432 0.81369 0.0
C1776 C 0.85024 0.40371 0.82595 0.0
C1777 C 0.84278 0.40911 0.79367 0.0
C1778 C 0.84312 0.40514 0.74905 0.0
C1779 C 0.85089 0.39573 0.73665 0.0
C1780 C 0.85835 0.3903 0.7688 0.0
C1781 C 0.86025 0.36509 0.03683 0.0
C1782 C 0.84958 0.35845 0.02995 0.0
C1783 C 0.86565 0.37148 1.00124 0.0
C1784 C 0.86087 0.37088 0.95729 0.0
C1785 C 0.84998 0.36445 0.95093 0.0
C1786 C 0.84435 0.35841 0.98691 0.0
C1787 C 0.86729 0.37663 0.91789 0.0
C1788 C 0.86057 0.38327 0.88603 0.0
C1789 C 0.87996 0.3754 0.91084 0.0
C1790 C 0.88764 0.36773 0.94013 0.0
C1791 C 0.885 0.35537 0.94595 0.0
C1792 C 0.89221 0.34821 0.97397 0.0
C1793 C 0.90216 0.35328 0.99604 0.0
C1794 C 0.90493 0.36552 0.99002 0.0
C1795 C 0.89774 0.37272 0.96208 0.0
H1796 H 0.90773 0.34773 0.01773 0.0
H1797 H 0.83734 0.40933 0.72412 0.0
H1798 H 0.88234 0.58855 0.28382 0.0
H1799 H 0.87085 0.59805 0.22259 0.0
H1800 H 0.9008 0.62215 0.19677 0.0
H1801 H 0.91194 0.61314 0.25906 0.0
H1802 H 0.88204 0.63462 0.18968 0.0
H1803 H 0.89239 0.59537 0.12883 0.0
H1804 H 0.89289 0.57304 0.12725 0.0
H1805 H 0.85405 0.57197 0.12715 0.0
H1806 H 0.85332 0.5943 0.12923 0.0
H1807 H 0.86785 0.6559 0.97263 0.0
H1808 H 0.87702 0.64495 0.03529 0.0
H1809 H 0.84346 0.62597 0.05786 0.0
H1810 H 0.83428 0.63677 0.99415 0.0
H1811 H 0.86224 0.61079 0.069 0.0
H1812 H 0.85232 0.65038 0.1248 0.0
H1813 H 0.85226 0.67271 0.12432 0.0
H1814 H 0.89106 0.67305 0.13225 0.0
H1815 H 0.89136 0.65071 0.13219 0.0
C1816 C 0.88644 0.59589 0.2651 0.0
C1817 C 0.89807 0.60007 0.27652 0.0
C1818 C 0.87989 0.60129 0.2297 0.0
C1819 C 0.88495 0.61078 0.20403 0.0
C1820 C 0.89657 0.61491 0.21571 0.0
C1821 C 0.90299 0.60971 0.25149 0.0
C1822 C 0.87823 0.61662 0.16556 0.0
C1823 C 0.87787 0.62934 0.16311 0.0
C1824 C 0.87238 0.60989 0.13111 0.0
C1825 C 0.87281 0.59649 0.12967 0.0
C1826 C 0.88396 0.59037 0.12876 0.0
C1827 C 0.88428 0.57771 0.12773 0.0
C1828 C 0.87351 0.57109 0.12724 0.0
C1829 C 0.86239 0.57711 0.12762 0.0
C1830 C 0.86202 0.58976 0.12869 0.0
C1831 C 0.8624 0.64935 0.99068 0.0
C1832 C 0.85028 0.6473 0.97835 0.0
C1833 C 0.86766 0.64312 0.02683 0.0
C1834 C 0.86091 0.63476 0.05226 0.0
C1835 C 0.84889 0.63239 0.03913 0.0
C1836 C 0.84363 0.6386 1.00265 0.0
C1837 C 0.86637 0.62872 0.09279 0.0
C1838 C 0.86643 0.61601 0.0957 0.0
C1839 C 0.87204 0.63544 0.12756 0.0
C1840 C 0.87186 0.64887 0.12816 0.0
C1841 C 0.86084 0.65522 0.1262 0.0
C1842 C 0.86077 0.66788 0.12604 0.0
C1843 C 0.87165 0.67429 0.12816 0.0
C1844 C 0.88263 0.66806 0.13058 0.0
C1845 C 0.88276 0.65541 0.1307 0.0
H1846 H 0.87157 0.68409 0.12801 0.0
H1847 H 0.87378 0.5613 0.12645 0.0
H1848 H 0.36744 0.34616 0.48275 0.0
H1849 H 0.37644 0.35699 0.54602 0.0
H1850 H 0.34514 0.38018 0.55339 0.0
H1851 H 0.33604 0.36935 0.48955 0.0
H1852 H 0.36625 0.39312 0.56456 0.0
H1853 H 0.34869 0.3574 0.62856 0.0
H1854 H 0.34479 0.3355 0.63549 0.0
H1855 H 0.38261 0.32908 0.65842 0.0
H1856 H 0.38676 0.35094 0.651 0.0
H1857 H 0.38441 0.41737 0.77848 0.0
H1858 H 0.37289 0.40791 0.71722 0.0
H1859 H 0.4 0.37996 0.70648 0.0
H1860 H 0.41126 0.38912 0.76824 0.0
H1861 H 0.37922 0.36986 0.69889 0.0
H1862 H 0.39721 0.40501 0.63007 0.0
H1863 H 0.40159 0.42678 0.62129 0.0
H1864 H 0.36366 0.43418 0.60602 0.0
H1865 H 0.35904 0.41246 0.61527 0.0
C1866 C 0.36245 0.35359 0.49759 0.0
C1867 C 0.35096 0.35682 0.48099 0.0
C1868 C 0.36761 0.35977 0.53405 0.0
C1869 C 0.36144 0.36934 0.55517 0.0
C1870 C 0.35009 0.37282 0.53793 0.0
C1871 C 0.34488 0.36659 0.50142 0.0
C1872 C 0.36681 0.37551 0.59547 0.0
C1873 C 0.36891 0.38806 0.59424 0.0
C1874 C 0.37052 0.36895 0.63406 0.0
C1875 C 0.36805 0.3558 0.63885 0.0
C1876 C 0.35619 0.35131 0.63476 0.0
C1877 C 0.35393 0.33891 0.63883 0.0
C1878 C 0.36345 0.3309 0.64729 0.0
C1879 C 0.37525 0.33529 0.65183 0.0
C1880 C 0.37755 0.34769 0.64774 0.0
C1881 C 0.38788 0.40918 0.76315 0.0
C1882 C 0.39879 0.40404 0.77843 0.0
C1883 C 0.38132 0.4038 0.7278 0.0
C1884 C 0.3856 0.39324 0.70637 0.0
C1885 C 0.39642 0.38806 0.72212 0.0
C1886 C 0.4029 0.39335 0.75758 0.0
C1887 C 0.37891 0.38748 0.66783 0.0
C1888 C 0.37652 0.37498 0.6694 0.0
C1889 C 0.37501 0.39409 0.62946 0.0
C1890 C 0.37777 0.40713 0.62388 0.0
C1891 C 0.3898 0.41129 0.62519 0.0
C1892 C 0.39232 0.42362 0.62006 0.0
C1893 C 0.38291 0.43186 0.61324 0.0
C1894 C 0.37094 0.42779 0.6114 0.0
C1895 C 0.36837 0.41547 0.61655 0.0
H1896 H 0.38488 0.4414 0.60927 0.0
H1897 H 0.36168 0.3213 0.65043 0.0
H1898 H 0.33558 0.63692 0.51043 0.0
H1899 H 0.34487 0.62631 0.44658 0.0
H1900 H 0.37759 0.64702 0.46487 0.0
H1901 H 0.36831 0.65774 0.52783 0.0
H1902 H 0.37203 0.64652 0.37906 0.0
H1903 H 0.37468 0.61616 0.49592 0.0
H1904 H 0.36649 0.60259 0.55441 0.0
H1905 H 0.34384 0.58529 0.45623 0.0
H1906 H 0.35179 0.59886 0.39726 0.0
H1907 H 0.41355 0.61475 0.24367 0.0
H1908 H 0.40234 0.62402 0.30529 0.0
H1909 H 0.37248 0.59971 0.2812 0.0
H1910 H 0.38401 0.58997 0.22046 0.0
H1911 H 0.37496 0.60185 0.36687 0.0
H1912 H 0.37256 0.63129 0.24938 0.0
H1913 H 0.38026 0.64487 0.19002 0.0
H1914 H 0.40151 0.66407 0.28763 0.0
H1915 H 0.39406 0.65051 0.3475 0.0
C1916 C 0.34479 0.63915 0.50104 0.0
C1917 C 0.35118 0.6482 0.52445 0.0
C1918 C 0.35013 0.63304 0.46452 0.0
C1919 C 0.36203 0.63575 0.45077 0.0
C1920 C 0.36842 0.64472 0.47446 0.0
C1921 C 0.36309 0.65084 0.51073 0.0
C1922 C 0.3678 0.62957 0.41117 0.0
C1923 C 0.37278 0.63675 0.37674 0.0
C1924 C 0.36846 0.6168 0.40691 0.0
C1925 C 0.36374 0.6086 0.4423 0.0
C1926 C 0.36789 0.60952 0.48688 0.0
C1927 C 0.3633 0.60182 0.5201 0.0
C1928 C 0.35463 0.5931 0.50907 0.0
C1929 C 0.35055 0.59205 0.46475 0.0
C1930 C 0.3551 0.59974 0.43141 0.0
C1931 C 0.40457 0.6114 0.25121 0.0
C1932 C 0.39966 0.60166 0.22671 0.0
C1933 C 0.3981 0.61678 0.2865 0.0
C1934 C 0.38636 0.61282 0.29768 0.0
C1935 C 0.38146 0.60302 0.27339 0.0
C1936 C 0.38804 0.59748 0.23845 0.0
C1937 C 0.37939 0.61881 0.33507 0.0
C1938 C 0.37416 0.61162 0.369 0.0
C1939 C 0.3784 0.63159 0.33875 0.0
C1940 C 0.38282 0.63982 0.30286 0.0
C1941 C 0.37893 0.63837 0.25814 0.0
C1942 C 0.38324 0.64607 0.22441 0.0
C1943 C 0.39139 0.65531 0.23503 0.0
C1944 C 0.39521 0.6569 0.27944 0.0
C1945 C 0.39093 0.64922 0.3133 0.0
H1946 H 0.39472 0.66126 0.20886 0.0
H1947 H 0.35109 0.58715 0.53483 0.0
H1948 H 0.13954 0.65817 0.98465 0.0
H1949 H 0.13082 0.64715 0.04786 0.0
H1950 H 0.16286 0.62501 0.05632 0.0
H1951 H 0.17165 0.63599 0.99211 0.0
H1952 H 0.14238 0.61142 0.06829 0.0
H1953 H 0.15824 0.64804 0.13124 0.0
H1954 H 0.16129 0.6701 0.13691 0.0
H1955 H 0.12314 0.67523 0.15661 0.0
H1956 H 0.11983 0.6532 0.15045 0.0
H1957 H 0.12214 0.5877 0.2815 0.0
H1958 H 0.13428 0.5969 0.22127 0.0
H1959 H 0.10705 0.62449 0.20384 0.0
H1960 H 0.09521 0.61565 0.26459 0.0
H1961 H 0.12762 0.6348 0.19972 0.0
H1962 H 0.11133 0.59877 0.13002 0.0
H1963 H 0.1078 0.57681 0.12231 0.0
H1964 H 0.1461 0.57066 0.11405 0.0
H1965 H 0.14986 0.59258 0.12224 0.0
C1966 C 0.14477 0.65095 0.99974 0.0
C1967 C 0.15636 0.64804 0.98331 0.0
C1968 C 0.13976 0.64466 0.03617 0.0
C1969 C 0.14623 0.63535 0.05763 0.0
C1970 C 0.15769 0.63218 0.0406 0.0
C1971 C 0.16272 0.63849 1.00392 0.0
C1972 C 0.14098 0.62913 0.09802 0.0
C1973 C 0.13933 0.61651 0.09737 0.0
C1974 C 0.1368 0.63573 0.13587 0.0
C1975 C 0.13878 0.64897 0.14007 0.0
C1976 C 0.15049 0.65388 0.13651 0.0
C1977 C 0.15227 0.66638 0.13984 0.0
C1978 C 0.14241 0.67406 0.14703 0.0
C1979 C 0.13076 0.66926 0.15102 0.0
C1980 C 0.12893 0.65677 0.14767 0.0
C1981 C 0.11877 0.59574 0.26485 0.0
C1982 C 0.10769 0.60092 0.27803 0.0
C1983 C 0.1257 0.60098 0.23012 0.0
C1984 C 0.12158 0.61138 0.20724 0.0
C1985 C 0.11053 0.61653 0.22072 0.0
C1986 C 0.10372 0.61141 0.25559 0.0
C1987 C 0.12867 0.61709 0.16963 0.0
C1988 C 0.13072 0.62966 0.17086 0.0
C1989 C 0.13313 0.61044 0.13226 0.0
C1990 C 0.13088 0.59728 0.12726 0.0
C1991 C 0.119 0.59272 0.12689 0.0
C1992 C 0.11696 0.58028 0.12238 0.0
C1993 C 0.12672 0.57234 0.11784 0.0
C1994 C 0.13855 0.57682 0.11766 0.0
C1995 C 0.14064 0.58924 0.12221 0.0
H1996 H 0.12512 0.56272 0.11435 0.0
H1997 H 0.14381 0.68374 0.14958 0.0
H1998 H 0.11971 0.42147 0.7486 0.0
H1999 H 0.13055 0.41207 0.81172 0.0
H2000 H 0.10935 0.37959 0.79528 0.0
H2001 H 0.09844 0.38894 0.73299 0.0
H2002 H 0.11032 0.3855 0.88135 0.0
H2003 H 0.13973 0.38181 0.7617 0.0
H2004 H 0.15309 0.38951 0.70169 0.0
H2005 H 0.17173 0.41183 0.79754 0.0
H2006 H 0.15837 0.40437 0.85804 0.0
H2007 H 0.14162 0.3429 0.01261 0.0
H2008 H 0.13254 0.35442 0.95141 0.0
H2009 H 0.15749 0.38373 0.97588 0.0
H2010 H 0.16698 0.37192 0.03645 0.0
H2011 H 0.15494 0.38128 0.88926 0.0
H2012 H 0.12649 0.3845 0.00959 0.0
H2013 H 0.11316 0.37719 0.07036 0.0
H2014 H 0.09258 0.35657 0.97478 0.0
H2015 H 0.10588 0.36363 0.9135 0.0
C2016 C 0.11742 0.4123 0.75825 0.0
C2017 C 0.10819 0.40598 0.73555 0.0
C2018 C 0.12366 0.4069 0.79435 0.0
C2019 C 0.12086 0.39504 0.8084 0.0
C2020 C 0.1117 0.38874 0.78543 0.0
C2021 C 0.10548 0.39411 0.74954 0.0
C2022 C 0.12714 0.3892 0.84757 0.0
C2023 C 0.12007 0.38447 0.88275 0.0
C2024 C 0.13991 0.38819 0.85058 0.0
C2025 C 0.14797 0.39263 0.81428 0.0
C2026 C 0.14662 0.38843 0.7699 0.0
C2027 C 0.1542 0.39274 0.73582 0.0
C2028 C 0.16323 0.40118 0.74577 0.0
C2029 C 0.16472 0.40531 0.78986 0.0
C2030 C 0.15715 0.40104 0.82406 0.0
C2031 C 0.14519 0.35182 0.00516 0.0
C2032 C 0.15499 0.35651 0.02984 0.0
C2033 C 0.13992 0.35846 0.97013 0.0
C2034 C 0.14408 0.37014 0.9593 0.0
C2035 C 0.15401 0.3748 0.98349 0.0
C2036 C 0.15942 0.36805 0.01829 0.0
C2037 C 0.13809 0.37735 0.92264 0.0
C2038 C 0.14519 0.38236 0.88804 0.0
C2039 C 0.12533 0.37872 0.92026 0.0
C2040 C 0.11724 0.37453 0.957 0.0
C2041 C 0.11916 0.37835 1.00157 0.0
C2042 C 0.11161 0.37426 0.0361 0.0
C2043 C 0.10205 0.3664 0.02645 0.0
C2044 C 0.09999 0.36265 0.98221 0.0
C2045 C 0.10753 0.36671 0.94755 0.0
H2046 H 0.09621 0.36323 0.05324 0.0
H2047 H 0.16909 0.40451 0.71933 0.0
H2048 H 0.18494 0.305 0.04381 0.0
H2049 H 0.18801 0.283 0.03789 0.0
H2050 H 0.16563 0.27763 0.15515 0.0
H2051 H 0.16272 0.29939 0.16157 0.0
H2052 H 0.18507 0.26374 0.16016 0.0
H2053 H 0.15517 0.2732 0.04513 0.0
H2054 H 0.14792 0.28347 0.97652 0.0
H2055 H 0.17708 0.26782 0.90074 0.0
H2056 H 0.18458 0.25757 0.96909 0.0
H2057 H 0.16152 0.20531 0.15719 0.0
H2058 H 0.16477 0.22706 0.1522 0.0
H2059 H 0.18782 0.22188 0.03668 0.0
H2060 H 0.18443 0.19988 0.04114 0.0
H2061 H 0.17236 0.2409 0.02447 0.0
H2062 H 0.20016 0.22868 0.13776 0.0
H2063 H 0.20683 0.218 0.20625 0.0
H2064 H 0.18185 0.23874 0.28557 0.0
H2065 H 0.17483 0.24938 0.21747 0.0
C2066 C 0.18072 0.2991 0.06835 0.0
C2067 C 0.17357 0.30396 0.10311 0.0
C2068 C 0.18244 0.28653 0.06486 0.0
C2069 C 0.17698 0.2786 0.09592 0.0
C2070 C 0.16998 0.28351 0.13085 0.0
C2071 C 0.16829 0.29599 0.13438 0.0
C2072 C 0.17829 0.26518 0.09247 0.0
C2073 C 0.18226 0.25875 0.13051 0.0
C2074 C 0.17504 0.25863 0.05329 0.0
C2075 C 0.17051 0.26475 0.01228 0.0
C2076 C 0.16008 0.27203 0.0139 0.0
C2077 C 0.15592 0.27783 0.97506 0.0
C2078 C 0.16206 0.27633 0.93433 0.0
C2079 C 0.17235 0.269 0.93233 0.0
C2080 C 0.17656 0.26319 0.97109 0.0
C2081 C 0.16733 0.20875 0.13073 0.0
C2082 C 0.17278 0.20084 0.0997 0.0
C2083 C 0.16921 0.22122 0.12803 0.0
C2084 C 0.1767 0.22614 0.09453 0.0
C2085 C 0.18205 0.2183 0.06298 0.0
C2086 C 0.18014 0.20574 0.06563 0.0
C2087 C 0.1787 0.23949 0.09278 0.0
C2088 C 0.1754 0.24588 0.05382 0.0
C2089 C 0.18258 0.24604 0.13114 0.0
C2090 C 0.18693 0.2398 0.17239 0.0
C2091 C 0.19603 0.23092 0.16975 0.0
C2092 C 0.19988 0.22488 0.20851 0.0
C2093 C 0.19477 0.22769 0.25021 0.0
C2094 C 0.18581 0.23657 0.25324 0.0
C2095 C 0.1819 0.24262 0.21457 0.0
H2096 H 0.19776 0.22299 0.28017 0.0
H2097 H 0.15883 0.28082 0.90429 0.0
H2098 H 0.95411 0.91726 0.41498 0.0
H2099 H 0.97592 0.91988 0.40809 0.0
H2100 H 0.97155 0.93156 0.27065 0.0
H2101 H 0.94947 0.92912 0.27757 0.0
H2102 H 0.99025 0.91372 0.28425 0.0
H2103 H 0.97839 0.95208 0.34126 0.0
H2104 H 0.96733 0.96601 0.39133 0.0
H2105 H 0.98664 0.95201 0.50533 0.0
H2106 H 0.99766 0.93781 0.45605 0.0
H2107 H 0.05375 0.92871 0.28155 0.0
H2108 H 0.03172 0.93119 0.27423 0.0
H2109 H 0.02715 0.92024 0.41243 0.0
H2110 H 0.049 0.91756 0.4197 0.0
H2111 H 0.01285 0.94037 0.38919 0.0
H2112 H 0.0222 0.90032 0.33434 0.0
H2113 H 0.03256 0.88546 0.28587 0.0
H2114 H 0.01759 0.90246 0.16848 0.0
H2115 H 0.00728 0.91755 0.21631 0.0
C2116 C 0.95772 0.92046 0.38329 0.0
C2117 C 0.95003 0.92303 0.34685 0.0
C2118 C 0.97022 0.92197 0.37945 0.0
C2119 C 0.97537 0.92599 0.33897 0.0
C2120 C 0.96776 0.92848 0.30224 0.0
C2121 C 0.95516 0.92713 0.30628 0.0
C2122 C 0.98874 0.92737 0.33564 0.0
C2123 C 0.99519 0.91977 0.30636 0.0
C2124 C 0.99519 0.93509 0.36514 0.0
C2125 C 0.9888 0.94381 0.39493 0.0
C2126 C 0.98023 0.95191 0.37704 0.0
C2127 C 0.97397 0.95986 0.40528 0.0
C2128 C 0.97627 0.95988 0.45148 0.0
C2129 C 0.98487 0.95198 0.46952 0.0
C2130 C 0.99113 0.94398 0.44143 0.0
C2131 C 0.04804 0.92692 0.31041 0.0
C2132 C 0.05312 0.9229 0.35115 0.0
C2133 C 0.03546 0.92832 0.30618 0.0
C2134 C 0.02777 0.92587 0.34278 0.0
C2135 C 0.03288 0.92222 0.38379 0.0
C2136 C 0.04539 0.92064 0.38782 0.0
C2137 C 0.01436 0.92659 0.33824 0.0
C2138 C 0.00791 0.93454 0.36629 0.0
C2139 C 0.00791 0.91919 0.30764 0.0
C2140 C 0.01412 0.91016 0.27884 0.0
C2141 C 0.02123 0.90097 0.29817 0.0
C2142 C 0.02706 0.89249 0.27083 0.0
C2143 C 0.02577 0.89305 0.22411 0.0
C2144 C 0.01861 0.90207 0.20466 0.0
C2145 C 0.01277 0.91058 0.23187 0.0
H2146 H 0.03029 0.88647 0.203 0.0
H2147 H 0.9714 0.96603 0.47326 0.0
H2148 H 0.32297 0.80463 0.5371 0.0
H2149 H 0.32063 0.78252 0.53173 0.0
H2150 H 0.34058 0.77826 0.65538 0.0
H2151 H 0.34288 0.80014 0.66104 0.0
H2152 H 0.33766 0.76422 0.52634 0.0
H2153 H 0.32892 0.75544 0.71632 0.0
H2154 H 0.31932 0.76574 0.7807 0.0
H2155 H 0.29639 0.78564 0.69051 0.0
H2156 H 0.3057 0.77531 0.62564 0.0
H2157 H 0.34266 0.70466 0.66199 0.0
H2158 H 0.3403 0.72655 0.65673 0.0
H2159 H 0.32169 0.72246 0.53011 0.0
H2160 H 0.32414 0.70039 0.53501 0.0
H2161 H 0.32081 0.74078 0.65424 0.0
H2162 H 0.32834 0.74778 0.46463 0.0
H2163 H 0.33857 0.73788 0.40063 0.0
H2164 H 0.36439 0.72193 0.49083 0.0
H2165 H 0.35441 0.73186 0.55523 0.0
C2166 C 0.3268 0.79895 0.56318 0.0
C2167 C 0.33305 0.80415 0.59962 0.0
C2168 C 0.3255 0.78633 0.55999 0.0
C2169 C 0.3303 0.77872 0.59344 0.0
C2170 C 0.33662 0.78393 0.62955 0.0
C2171 C 0.33795 0.79647 0.63266 0.0
C2172 C 0.32891 0.76532 0.59096 0.0
C2173 C 0.33373 0.7591 0.55386 0.0
C2174 C 0.32396 0.7586 0.62714 0.0
C2175 C 0.31809 0.76465 0.66607 0.0
C2176 C 0.32177 0.76195 0.71022 0.0
C2177 C 0.31639 0.76781 0.74681 0.0
C2178 C 0.30727 0.77636 0.73969 0.0
C2179 C 0.30348 0.77904 0.69598 0.0
C2180 C 0.30882 0.77319 0.65928 0.0
C2181 C 0.33804 0.70838 0.63299 0.0
C2182 C 0.33361 0.70076 0.59884 0.0
C2183 C 0.33666 0.72093 0.63011 0.0
C2184 C 0.33088 0.72621 0.59293 0.0
C2185 C 0.3263 0.71863 0.55891 0.0
C2186 C 0.32767 0.70601 0.56181 0.0
C2187 C 0.32984 0.73965 0.59016 0.0
C2188 C 0.32455 0.74589 0.62635 0.0
C2189 C 0.33438 0.74637 0.55319 0.0
C2190 C 0.34052 0.74043 0.51475 0.0
C2191 C 0.33621 0.74218 0.47076 0.0
C2192 C 0.34197 0.73656 0.43442 0.0
C2193 C 0.35209 0.72924 0.44168 0.0
C2194 C 0.35652 0.72756 0.48527 0.0
C2195 C 0.3508 0.73316 0.5217 0.0
H2196 H 0.35653 0.7249 0.41352 0.0
H2197 H 0.30314 0.7809 0.76806 0.0
H2198 H 0.45587 0.09597 0.89656 0.0
H2199 H 0.47769 0.09427 0.88658 0.0
H2200 H 0.47234 0.06835 0.78001 0.0
H2201 H 0.45024 0.07011 0.78957 0.0
H2202 H 0.49156 0.06228 0.84549 0.0
H2203 H 0.47954 0.09442 0.74735 0.0
H2204 H 0.46882 0.11316 0.72635 0.0
H2205 H 0.48837 0.13282 0.82754 0.0
H2206 H 0.49908 0.11415 0.84964 0.0
H2207 H 0.55507 0.07024 0.78662 0.0
H2208 H 0.53293 0.06851 0.7795 0.0
H2209 H 0.52843 0.09572 0.88213 0.0
H2210 H 0.55034 0.09735 0.88986 0.0
H2211 H 0.51403 0.09973 0.80608 0.0
H2212 H 0.52437 0.06775 0.90932 0.0
H2213 H 0.5352 0.04928 0.93282 0.0
H2214 H 0.51889 0.02948 0.8243 0.0
H2215 H 0.50814 0.04792 0.79961 0.0
C2216 C 0.45928 0.08986 0.87103 0.0
C2217 C 0.4513 0.08322 0.84365 0.0
C2218 C 0.47178 0.08891 0.86538 0.0
C2219 C 0.47665 0.08125 0.83239 0.0
C2220 C 0.46876 0.07433 0.80567 0.0
C2221 C 0.45616 0.07538 0.81101 0.0
C2222 C 0.48999 0.08096 0.82546 0.0
C2223 C 0.49647 0.07038 0.83584 0.0
C2224 C 0.49642 0.09158 0.81369 0.0
C2225 C 0.49006 0.10286 0.80035 0.0
C2226 C 0.48149 0.10272 0.76536 0.0
C2227 C 0.47542 0.11333 0.75322 0.0
C2228 C 0.4779 0.12417 0.77565 0.0
C2229 C 0.48646 0.12442 0.81021 0.0
C2230 C 0.49254 0.11383 0.82252 0.0
C2231 C 0.54934 0.07585 0.80755 0.0
C2232 C 0.55445 0.08393 0.8388 0.0
C2233 C 0.53671 0.07483 0.80355 0.0
C2234 C 0.52903 0.08199 0.83031 0.0
C2235 C 0.53416 0.09014 0.86105 0.0
C2236 C 0.54671 0.09102 0.86553 0.0
C2237 C 0.51562 0.08113 0.82684 0.0
C2238 C 0.50912 0.09154 0.81473 0.0
C2239 C 0.50922 0.07037 0.83719 0.0
C2240 C 0.51558 0.05925 0.85222 0.0
C2241 C 0.52319 0.05949 0.89017 0.0
C2242 C 0.5293 0.04902 0.90377 0.0
C2243 C 0.52777 0.03823 0.87997 0.0
C2244 C 0.52009 0.03787 0.84262 0.0
C2245 C 0.51399 0.04832 0.82881 0.0
H2246 H 0.5325 0.03013 0.89054 0.0
H2247 H 0.47319 0.13238 0.7662 0.0
H2248 H 0.18359 0.80447 0.96642 0.0
H2249 H 0.1851 0.7823 0.97183 0.0
H2250 H 0.1629 0.77871 0.85328 0.0
H2251 H 0.16135 0.80067 0.84776 0.0
H2252 H 0.15513 0.76407 0.92026 0.0
H2253 H 0.19307 0.77395 0.84881 0.0
H2254 H 0.21282 0.7842 0.84262 0.0
H2255 H 0.22459 0.76727 0.9651 0.0
H2256 H 0.20482 0.75705 0.97237 0.0
H2257 H 0.16197 0.70451 0.84596 0.0
H2258 H 0.16334 0.72646 0.85248 0.0
H2259 H 0.18507 0.72269 0.97213 0.0
H2260 H 0.1838 0.70052 0.96556 0.0
H2261 H 0.1936 0.74094 0.91532 0.0
H2262 H 0.15609 0.72984 0.98352 0.0
H2263 H 0.13634 0.71956 0.98904 0.0
H2264 H 0.12371 0.73889 0.87285 0.0
H2265 H 0.14345 0.74917 0.86623 0.0
C2266 C 0.1791 0.79893 0.94143 0.0
C2267 C 0.17233 0.80434 0.90672 0.0
C2268 C 0.17999 0.78627 0.94448 0.0
C2269 C 0.17412 0.77882 0.91291 0.0
C2270 C 0.16747 0.78424 0.87813 0.0
C2271 C 0.16662 0.79683 0.87495 0.0
C2272 C 0.17454 0.76536 0.91622 0.0
C2273 C 0.16355 0.75902 0.91886 0.0
C2274 C 0.18553 0.75875 0.91582 0.0
C2275 C 0.19741 0.76486 0.91143 0.0
C2276 C 0.19983 0.7725 0.87465 0.0
C2277 C 0.21104 0.77828 0.8709 0.0
C2278 C 0.21994 0.77642 0.90353 0.0
C2279 C 0.21767 0.76873 0.93991 0.0
C2280 C 0.20647 0.76294 0.94385 0.0
C2281 C 0.1671 0.70831 0.87361 0.0
C2282 C 0.17271 0.70075 0.90544 0.0
C2283 C 0.16784 0.72089 0.87736 0.0
C2284 C 0.17416 0.72626 0.91317 0.0
C2285 C 0.18011 0.71875 0.94431 0.0
C2286 C 0.17935 0.7061 0.9406 0.0
C2287 C 0.17416 0.73968 0.91821 0.0
C2288 C 0.1852 0.746 0.91726 0.0
C2289 C 0.16321 0.74632 0.92019 0.0
C2290 C 0.15129 0.74021 0.9242 0.0
C2291 C 0.14913 0.73184 0.95895 0.0
C2292 C 0.13793 0.72602 0.96231 0.0
C2293 C 0.12878 0.72855 0.93126 0.0
C2294 C 0.13081 0.73693 0.89686 0.0
C2295 C 0.14199 0.74277 0.89332 0.0
H2296 H 0.12012 0.72403 0.93392 0.0
H2297 H 0.22861 0.7809 0.90056 0.0
H2298 H 0.44901 0.93566 0.21671 0.0
H2299 H 0.47112 0.93735 0.22525 0.0
H2300 H 0.47604 0.90964 0.12473 0.0
H2301 H 0.45417 0.90802 0.1157 0.0
H2302 H 0.48998 0.90581 0.20122 0.0
H2303 H 0.48033 0.9379 0.09715 0.0
H2304 H 0.46982 0.9565 0.07316 0.0
H2305 H 0.4859 0.97607 0.18271 0.0
H2306 H 0.49634 0.9575 0.20788 0.0
H2307 H 0.5485 0.9089 0.11371 0.0
H2308 H 0.52666 0.91064 0.12313 0.0
H2309 H 0.53185 0.93709 0.228 0.0
H2310 H 0.55395 0.93531 0.21899 0.0
H2311 H 0.51293 0.94301 0.1626 0.0
H2312 H 0.52434 0.91097 0.26162 0.0
H2313 H 0.53479 0.89218 0.28387 0.0
H2314 H 0.51534 0.87242 0.18266 0.0
H2315 H 0.5049 0.89113 0.15931 0.0
C2316 C 0.45484 0.92995 0.19649 0.0
C2317 C 0.44985 0.92171 0.16553 0.0
C2318 C 0.46745 0.93094 0.20132 0.0
C2319 C 0.47524 0.92361 0.17561 0.0
C2320 C 0.47022 0.91535 0.14502 0.0
C2321 C 0.4577 0.91447 0.13979 0.0
C2322 C 0.48863 0.9244 0.18008 0.0
C2323 C 0.49499 0.91394 0.19272 0.0
C2324 C 0.49517 0.9351 0.17007 0.0
C2325 C 0.48898 0.94628 0.15478 0.0
C2326 C 0.48153 0.94614 0.11641 0.0
C2327 C 0.4756 0.95668 0.10253 0.0
C2328 C 0.47716 0.96745 0.12648 0.0
C2329 C 0.48468 0.96771 0.16427 0.0
C2330 C 0.4906 0.95718 0.17836 0.0
C2331 C 0.54505 0.91512 0.13878 0.0
C2332 C 0.55298 0.92192 0.16579 0.0
C2333 C 0.53254 0.91609 0.14413 0.0
C2334 C 0.52761 0.92393 0.17646 0.0
C2335 C 0.53546 0.93098 0.20287 0.0
C2336 C 0.54807 0.92991 0.19783 0.0
C2337 C 0.51426 0.92434 0.18283 0.0
C2338 C 0.50791 0.93497 0.17206 0.0
C2339 C 0.50769 0.91379 0.19447 0.0
C2340 C 0.5139 0.90248 0.20851 0.0
C2341 C 0.52236 0.90264 0.24386 0.0
C2342 C 0.52827 0.89199 0.25672 0.0
C2343 C 0.52574 0.88112 0.23465 0.0
C2344 C 0.51729 0.88085 0.19972 0.0
C2345 C 0.51136 0.89148 0.18669 0.0
H2346 H 0.53033 0.87289 0.24465 0.0
H2347 H 0.47256 0.9756 0.11569 0.0
H2348 H 0.33949 0.20343 0.33685 0.0
H2349 H 0.33856 0.22542 0.34233 0.0
H2350 H 0.3254 0.22252 0.47855 0.0
H2351 H 0.32595 0.20033 0.47266 0.0
H2352 H 0.31403 0.24056 0.43582 0.0
H2353 H 0.35545 0.2292 0.45602 0.0
H2354 H 0.37456 0.2188 0.43743 0.0
H2355 H 0.37655 0.23819 0.31243 0.0
H2356 H 0.35736 0.24859 0.32999 0.0
H2357 H 0.32725 0.30386 0.47444 0.0
H2358 H 0.32606 0.2817 0.47996 0.0
H2359 H 0.33977 0.27857 0.34451 0.0
H2360 H 0.34129 0.30052 0.33941 0.0
H2361 H 0.35117 0.26342 0.39616 0.0
H2362 H 0.30906 0.27407 0.37494 0.0
H2363 H 0.29003 0.28446 0.39439 0.0
H2364 H 0.28945 0.26655 0.52256 0.0
H2365 H 0.30862 0.2562 0.5042 0.0
C2366 C 0.33632 0.20744 0.36794 0.0
C2367 C 0.3329 0.20011 0.40447 0.0
C2368 C 0.33585 0.22005 0.37112 0.0
C2369 C 0.33218 0.22569 0.41123 0.0
C2370 C 0.32834 0.2184 0.44733 0.0
C2371 C 0.32868 0.20572 0.44397 0.0
C2372 C 0.33268 0.23916 0.41542 0.0
C2373 C 0.32221 0.24556 0.42781 0.0
C2374 C 0.3433 0.24575 0.40463 0.0
C2375 C 0.35492 0.23961 0.39421 0.0
C2376 C 0.35993 0.23119 0.42446 0.0
C2377 C 0.37077 0.22531 0.41411 0.0
C2378 C 0.37675 0.22782 0.37374 0.0
C2379 C 0.37191 0.23625 0.34368 0.0
C2380 C 0.36105 0.24215 0.35384 0.0
C2381 C 0.32994 0.29842 0.44582 0.0
C2382 C 0.33437 0.30396 0.40651 0.0
C2383 C 0.32922 0.28575 0.44892 0.0
C2384 C 0.33275 0.2784 0.41252 0.0
C2385 C 0.33702 0.28398 0.37316 0.0
C2386 C 0.33785 0.29658 0.37023 0.0
C2387 C 0.33242 0.26489 0.41522 0.0
C2388 C 0.343 0.25845 0.40439 0.0
C2389 C 0.32191 0.25832 0.42755 0.0
C2390 C 0.31034 0.26446 0.43839 0.0
C2391 C 0.30493 0.27241 0.40741 0.0
C2392 C 0.2941 0.27829 0.41821 0.0
C2393 C 0.28854 0.27619 0.45971 0.0
C2394 C 0.29378 0.26818 0.49046 0.0
C2395 C 0.30462 0.26231 0.47987 0.0
H2396 H 0.28017 0.28074 0.46803 0.0
H2397 H 0.38514 0.22325 0.36579 0.0
H2398 H 0.9504 0.07871 0.73221 0.0
H2399 H 0.97249 0.07655 0.73969 0.0
H2400 H 0.97692 0.08707 0.60098 0.0
H2401 H 0.95508 0.0895 0.5936 0.0
H2402 H 0.99026 0.06605 0.62618 0.0
H2403 H 0.98269 0.10703 0.67606 0.0
H2404 H 0.97324 0.12262 0.7239 0.0
H2405 H 0.98883 0.10625 0.8414 0.0
H2406 H 0.99823 0.09043 0.79424 0.0
H2407 H 0.05001 0.08606 0.59177 0.0
H2408 H 0.02812 0.08408 0.59994 0.0
H2409 H 0.03259 0.07472 0.73976 0.0
H2410 H 0.05469 0.07647 0.73153 0.0
H2411 H 0.01474 0.09296 0.72408 0.0
H2412 H 0.02287 0.05269 0.67719 0.0
H2413 H 0.03155 0.03607 0.6326 0.0
H2414 H 0.01498 0.05033 0.51307 0.0
H2415 H 0.00604 0.067 0.55734 0.0
C2416 C 0.95611 0.08053 0.70335 0.0
C2417 C 0.95099 0.08427 0.66232 0.0
C2418 C 0.96871 0.07933 0.7077 0.0
C2419 C 0.97635 0.08167 0.67088 0.0
C2420 C 0.97121 0.08519 0.62979 0.0
C2421 C 0.9587 0.0866 0.62567 0.0
C2422 C 0.98972 0.08052 0.67457 0.0
C2423 C 0.99561 0.07198 0.64743 0.0
C2424 C 0.99668 0.08799 0.70336 0.0
C2425 C 0.99102 0.09745 0.73171 0.0
C2426 C 0.98399 0.10667 0.71215 0.0
C2427 C 0.97867 0.11557 0.73912 0.0
C2428 C 0.9804 0.1154 0.78568 0.0
C2429 C 0.98748 0.10635 0.80534 0.0
C2430 C 0.9928 0.09742 0.77851 0.0
C2431 C 0.04638 0.08347 0.6242 0.0
C2432 C 0.0541 0.0814 0.661 0.0
C2433 C 0.03384 0.08231 0.6288 0.0
C2434 C 0.0287 0.07922 0.67042 0.0
C2435 C 0.03637 0.07711 0.70732 0.0
C2436 C 0.04898 0.07806 0.70252 0.0
C2437 C 0.01529 0.07863 0.67499 0.0
C2438 C 0.00938 0.08689 0.70343 0.0
C2439 C 0.00827 0.07085 0.64768 0.0
C2440 C 0.0139 0.06114 0.62047 0.0
C2441 C 0.02118 0.05235 0.64131 0.0
C2442 C 0.02611 0.04289 0.6161 0.0
C2443 C 0.0239 0.04218 0.56987 0.0
C2444 C 0.0167 0.05091 0.54885 0.0
C2445 C 0.01166 0.06033 0.57403 0.0
H2446 H 0.02771 0.03483 0.55038 0.0
H2447 H 0.97628 0.1223 0.80651 0.0
H2448 H 0.84164 0.70468 0.8451 0.0
H2449 H 0.84043 0.72657 0.85322 0.0
H2450 H 0.82435 0.72232 0.9845 0.0
H2451 H 0.82534 0.70017 0.97615 0.0
H2452 H 0.81343 0.74065 0.93622 0.0
H2453 H 0.8539 0.72974 0.97598 0.0
H2454 H 0.87361 0.71959 0.96655 0.0
H2455 H 0.87975 0.73929 0.84411 0.0
H2456 H 0.86 0.74944 0.85247 0.0
H2457 H 0.82445 0.80454 0.97608 0.0
H2458 H 0.82344 0.78239 0.98358 0.0
H2459 H 0.84105 0.77848 0.85486 0.0
H2460 H 0.84228 0.80038 0.84767 0.0
H2461 H 0.85128 0.76409 0.9143 0.0
H2462 H 0.81019 0.77354 0.8706 0.0
H2463 H 0.79038 0.7836 0.87866 0.0
H2464 H 0.78542 0.76678 0.00762 0.0
H2465 H 0.80529 0.75675 1.00058 0.0
C2466 C 0.83779 0.70834 0.8757 0.0
C2467 C 0.83366 0.70065 0.91014 0.0
C2468 C 0.83714 0.7209 0.88036 0.0
C2469 C 0.8325 0.72613 0.91981 0.0
C2470 C 0.82803 0.7185 0.95384 0.0
C2471 C 0.82862 0.70585 0.94909 0.0
C2472 C 0.83267 0.73956 0.92527 0.0
C2473 C 0.82174 0.74578 0.93227 0.0
C2474 C 0.84347 0.74629 0.91963 0.0
C2475 C 0.85543 0.7403 0.91474 0.0
C2476 C 0.85942 0.73186 0.94691 0.0
C2477 C 0.8706 0.72611 0.94177 0.0
C2478 C 0.87792 0.72878 0.90472 0.0
C2479 C 0.87407 0.73723 0.87279 0.0
C2480 C 0.86289 0.743 0.87775 0.0
C2481 C 0.82804 0.79893 0.94935 0.0
C2482 C 0.83347 0.80424 0.91133 0.0
C2483 C 0.82742 0.78627 0.95359 0.0
C2484 C 0.83214 0.77872 0.9197 0.0
C2485 C 0.8374 0.78406 0.88159 0.0
C2486 C 0.83806 0.79663 0.87745 0.0
C2487 C 0.83199 0.76525 0.92379 0.0
C2488 C 0.84297 0.75899 0.91878 0.0
C2489 C 0.82124 0.75853 0.93116 0.0
C2490 C 0.80928 0.76451 0.9353 0.0
C2491 C 0.80491 0.77207 0.90084 0.0
C2492 C 0.79367 0.77775 0.90519 0.0
C2493 C 0.78666 0.77586 0.94369 0.0
C2494 C 0.79087 0.76825 0.97786 0.0
C2495 C 0.80212 0.76256 0.9737 0.0
H2496 H 0.77796 0.78026 0.947 0.0
H2497 H 0.88657 0.72431 0.90079 0.0
H2498 H 0.67943 0.20092 0.47091 0.0
H2499 H 0.6807 0.22307 0.47936 0.0
H2500 H 0.66378 0.22757 0.34973 0.0
H2501 H 0.66231 0.20572 0.34149 0.0
H2502 H 0.69148 0.2414 0.42926 0.0
H2503 H 0.64418 0.25043 0.35183 0.0
H2504 H 0.6243 0.24039 0.34631 0.0
H2505 H 0.63152 0.22074 0.46804 0.0
H2506 H 0.65137 0.23078 0.47465 0.0
H2507 H 0.66237 0.30152 0.34504 0.0
H2508 H 0.66348 0.27955 0.35142 0.0
H2509 H 0.68206 0.28304 0.47838 0.0
H2510 H 0.68112 0.3052 0.47179 0.0
H2511 H 0.6536 0.26508 0.4122 0.0
H2512 H 0.7004 0.2575 0.49213 0.0
H2513 H 0.72039 0.2674 0.49614 0.0
H2514 H 0.7142 0.28416 0.36782 0.0
H2515 H 0.69425 0.27423 0.3628 0.0
C2516 C 0.67602 0.20666 0.44424 0.0
C2517 C 0.67068 0.20154 0.40571 0.0
C2518 C 0.67678 0.2193 0.44904 0.0
C2519 C 0.67216 0.22701 0.4155 0.0
C2520 C 0.6672 0.22186 0.37648 0.0
C2521 C 0.66641 0.20931 0.37176 0.0
C2522 C 0.67214 0.24043 0.42102 0.0
C2523 C 0.68317 0.24658 0.42641 0.0
C2524 C 0.66134 0.24723 0.41672 0.0
C2525 C 0.6493 0.2413 0.41353 0.0
C2526 C 0.6415 0.24402 0.37756 0.0
C2527 C 0.63024 0.23831 0.37421 0.0
C2528 C 0.62666 0.22991 0.40674 0.0
C2529 C 0.63432 0.22722 0.44278 0.0
C2530 C 0.64558 0.23291 0.44632 0.0
C2531 C 0.66677 0.29765 0.37425 0.0
C2532 C 0.67165 0.30513 0.40793 0.0
C2533 C 0.66736 0.28505 0.37792 0.0
C2534 C 0.67287 0.27958 0.41531 0.0
C2535 C 0.67788 0.28702 0.44894 0.0
C2536 C 0.6773 0.29968 0.44522 0.0
C2537 C 0.67297 0.26611 0.41908 0.0
C2538 C 0.66191 0.25992 0.4156 0.0
C2539 C 0.68375 0.25933 0.42506 0.0
C2540 C 0.69577 0.26524 0.42741 0.0
C2541 C 0.70332 0.26327 0.46474 0.0
C2542 C 0.71464 0.26889 0.46719 0.0
C2543 C 0.71854 0.27644 0.43235 0.0
C2544 C 0.71114 0.27835 0.39489 0.0
C2545 C 0.69982 0.27274 0.39226 0.0
H2546 H 0.7273 0.28079 0.43433 0.0
H2547 H 0.61795 0.22549 0.40405 0.0
H2548 H 0.81538 0.3044 0.11133 0.0
H2549 H 0.81317 0.28223 0.10764 0.0
H2550 H 0.85023 0.27908 0.0636 0.0
H2551 H 0.85252 0.30118 0.06851 0.0
H2552 H 0.8332 0.26405 0.01472 0.0
H2553 H 0.84533 0.27388 0.16608 0.0
H2554 H 0.84363 0.28447 0.23879 0.0
H2555 H 0.80852 0.2688 0.25984 0.0
H2556 H 0.80992 0.25828 0.18677 0.0
H2557 H 0.84992 0.20355 0.06619 0.0
H2558 H 0.84818 0.22564 0.05987 0.0
H2559 H 0.8123 0.22397 0.11686 0.0
H2560 H 0.81403 0.20178 0.1226 0.0
H2561 H 0.82659 0.24152 0.15708 0.0
H2562 H 0.81503 0.23028 0.00895 0.0
H2563 H 0.8165 0.2198 0.93598 0.0
H2564 H 0.85 0.23802 0.90822 0.0
H2565 H 0.84884 0.24849 0.9814 0.0
C2566 C 0.82297 0.29894 0.10028 0.0
C2567 C 0.83408 0.3044 0.08981 0.0
C2568 C 0.82172 0.28631 0.09834 0.0
C2569 C 0.83154 0.27901 0.08535 0.0
C2570 C 0.84253 0.28454 0.07348 0.0
C2571 C 0.84384 0.29713 0.07629 0.0
C2572 C 0.83059 0.26557 0.08622 0.0
C2573 C 0.83185 0.25911 0.04584 0.0
C2574 C 0.82851 0.25914 0.1267 0.0
C2575 C 0.82766 0.26543 0.17068 0.0
C2576 C 0.83719 0.2728 0.18597 0.0
C2577 C 0.83629 0.27877 0.2273 0.0
C2578 C 0.82595 0.27735 0.25385 0.0
C2579 C 0.81651 0.26992 0.23918 0.0
C2580 C 0.81735 0.26395 0.19781 0.0
C2581 C 0.84161 0.20792 0.0767 0.0
C2582 C 0.83205 0.20106 0.09431 0.0
C2583 C 0.84061 0.22051 0.07309 0.0
C2584 C 0.83007 0.22648 0.08756 0.0
C2585 C 0.82049 0.21957 0.10531 0.0
C2586 C 0.82144 0.20693 0.10835 0.0
C2587 C 0.82933 0.23994 0.08557 0.0
C2588 C 0.8278 0.24643 0.1258 0.0
C2589 C 0.83112 0.24639 0.0449 0.0
C2590 C 0.8319 0.24009 1.0009 0.0
C2591 C 0.82277 0.23197 0.9875 0.0
C2592 C 0.82354 0.22605 0.94604 0.0
C2593 C 0.83335 0.22822 0.91752 0.0
C2594 C 0.84241 0.23634 0.93037 0.0
C2595 C 0.8417 0.24228 0.97183 0.0
H2596 H 0.83393 0.22363 0.88543 0.0
H2597 H 0.82528 0.28197 0.28585 0.0
H2598 H 0.68112 0.70159 0.54384 0.0
H2599 H 0.68236 0.72376 0.53879 0.0
H2600 H 0.66213 0.7269 0.66239 0.0
H2601 H 0.66072 0.70491 0.66719 0.0
H2602 H 0.65326 0.74181 0.60152 0.0
H2603 H 0.69304 0.73217 0.65701 0.0
H2604 H 0.71293 0.72204 0.65579 0.0
H2605 H 0.72109 0.73877 0.52893 0.0
H2606 H 0.70117 0.74887 0.52913 0.0
H2607 H 0.66184 0.80192 0.6675 0.0
H2608 H 0.66311 0.77994 0.66265 0.0
H2609 H 0.68158 0.7829 0.53531 0.0
H2610 H 0.6805 0.80511 0.54033 0.0
H2611 H 0.69155 0.76504 0.58918 0.0
H2612 H 0.65192 0.77576 0.53734 0.0
H2613 H 0.63211 0.78599 0.54084 0.0
H2614 H 0.62368 0.76709 0.66315 0.0
H2615 H 0.64352 0.75687 0.66073 0.0
C2616 C 0.67701 0.70703 0.57002 0.0
C2617 C 0.67081 0.70148 0.60587 0.0
C2618 C 0.67775 0.7197 0.5672 0.0
C2619 C 0.67238 0.72705 0.60033 0.0
C2620 C 0.66632 0.72147 0.63631 0.0
C2621 C 0.66555 0.70886 0.63908 0.0
C2622 C 0.67267 0.74055 0.59728 0.0
C2623 C 0.66166 0.74686 0.59924 0.0
C2624 C 0.68358 0.7472 0.59295 0.0
C2625 C 0.69556 0.74116 0.59283 0.0
C2626 C 0.69904 0.7336 0.62867 0.0
C2627 C 0.71032 0.72789 0.6282 0.0
C2628 C 0.71825 0.72973 0.59223 0.0
C2629 C 0.71493 0.73733 0.55672 0.0
C2630 C 0.70365 0.74306 0.55701 0.0
C2631 C 0.66623 0.79794 0.63846 0.0
C2632 C 0.67099 0.80529 0.6041 0.0
C2633 C 0.66691 0.78534 0.63568 0.0
C2634 C 0.67225 0.77972 0.59825 0.0
C2635 C 0.67736 0.78701 0.56443 0.0
C2636 C 0.67671 0.7997 0.56726 0.0
C2637 C 0.67215 0.76624 0.59445 0.0
C2638 C 0.68316 0.75995 0.59107 0.0
C2639 C 0.66124 0.75956 0.59768 0.0
C2640 C 0.64924 0.76561 0.599 0.0
C2641 C 0.64587 0.77384 0.56513 0.0
C2642 C 0.63464 0.77963 0.56691 0.0
C2643 C 0.62665 0.77721 0.60224 0.0
C2644 C 0.62988 0.76897 0.63582 0.0
C2645 C 0.64111 0.76316 0.63422 0.0
H2646 H 0.61796 0.78171 0.60357 0.0
H2647 H 0.72699 0.7253 0.59193 0.0
H2648 H 0.55574 0.43872 0.80056 0.0
H2649 H 0.53376 0.44167 0.79127 0.0
H2650 H 0.52717 0.40782 0.85922 0.0
H2651 H 0.54892 0.40504 0.86981 0.0
H2652 H 0.51312 0.41241 0.77435 0.0
H2653 H 0.52457 0.43004 0.9203 0.0
H2654 H 0.53693 0.44425 0.96488 0.0
H2655 H 0.5228 0.47413 0.88879 0.0
H2656 H 0.51049 0.46004 0.84329 0.0
H2657 H 0.45629 0.4191 0.9115 0.0
H2658 H 0.47798 0.4221 0.90139 0.0
H2659 H 0.47203 0.43242 0.76329 0.0
H2660 H 0.4501 0.42964 0.77349 0.0
H2661 H 0.49251 0.4423 0.87275 0.0
H2662 H 0.49579 0.41773 0.70518 0.0
H2663 H 0.48429 0.40325 0.65857 0.0
H2664 H 0.46935 0.38708 0.77767 0.0
H2665 H 0.48088 0.40136 0.82491 0.0
C2666 C 0.54958 0.43188 0.81307 0.0
C2667 C 0.55401 0.42167 0.83598 0.0
C2668 C 0.53706 0.43357 0.80777 0.0
C2669 C 0.52886 0.42492 0.82441 0.0
C2670 C 0.53334 0.41455 0.84591 0.0
C2671 C 0.54576 0.41302 0.85213 0.0
C2672 C 0.51558 0.42682 0.8222 0.0
C2673 C 0.50861 0.41908 0.79525 0.0
C2674 C 0.50972 0.4355 0.84955 0.0
C2675 C 0.5167 0.44399 0.87815 0.0
C2676 C 0.52414 0.43963 0.91297 0.0
C2677 C 0.53113 0.44766 0.9384 0.0
C2678 C 0.53067 0.46008 0.9296 0.0
C2679 C 0.52316 0.4645 0.89554 0.0
C2680 C 0.51616 0.4565 0.86995 0.0
C2681 C 0.45953 0.42216 0.87908 0.0
C2682 C 0.45146 0.42408 0.84322 0.0
C2683 C 0.47196 0.42394 0.87346 0.0
C2684 C 0.47665 0.42748 0.83164 0.0
C2685 C 0.46861 0.4297 0.7959 0.0
C2686 C 0.45609 0.4281 0.80175 0.0
C2687 C 0.49 0.4278 0.82508 0.0
C2688 C 0.497 0.43589 0.85071 0.0
C2689 C 0.49591 0.41947 0.79631 0.0
C2690 C 0.48907 0.4107 0.76846 0.0
C2691 C 0.49007 0.41106 0.72136 0.0
C2692 C 0.48355 0.40289 0.69485 0.0
C2693 C 0.47606 0.39428 0.71514 0.0
C2694 C 0.47511 0.39378 0.76199 0.0
C2695 C 0.48163 0.40192 0.78864 0.0
H2696 H 0.471 0.38797 0.69456 0.0
H2697 H 0.53613 0.46628 0.9492 0.0
H2698 H 0.95559 0.59464 0.3988 0.0
H2699 H 0.9774 0.59302 0.38851 0.0
H2700 H 0.97199 0.56856 0.27732 0.0
H2701 H 0.9499 0.57022 0.28725 0.0
H2702 H 0.99133 0.56166 0.34112 0.0
H2703 H 0.97917 0.59506 0.24939 0.0
H2704 H 0.96833 0.61401 0.23202 0.0
H2705 H 0.98775 0.63234 0.33696 0.0
H2706 H 0.99857 0.61345 0.35543 0.0
H2707 H 0.0552 0.57082 0.28925 0.0
H2708 H 0.03313 0.56868 0.28037 0.0
H2709 H 0.02756 0.59542 0.38404 0.0
H2710 H 0.04936 0.59751 0.39322 0.0
H2711 H 0.01359 0.59975 0.30954 0.0
H2712 H 0.0239 0.56633 0.4069 0.0
H2713 H 0.0347 0.54756 0.42709 0.0
H2714 H 0.01889 0.52939 0.31378 0.0
H2715 H 0.00815 0.54813 0.29243 0.0
C2716 C 0.95898 0.58886 0.3722 0.0
C2717 C 0.95099 0.58261 0.34365 0.0
C2718 C 0.97148 0.58795 0.36637 0.0
C2719 C 0.97634 0.58074 0.33197 0.0
C2720 C 0.96843 0.57418 0.30407 0.0
C2721 C 0.95583 0.57518 0.30965 0.0
C2722 C 0.98967 0.58059 0.32483 0.0
C2723 C 0.99621 0.56991 0.33315 0.0
C2724 C 0.99604 0.59139 0.31516 0.0
C2725 C 0.98962 0.60281 0.30398 0.0
C2726 C 0.98106 0.60311 0.26899 0.0
C2727 C 0.97493 0.61384 0.2589 0.0
C2728 C 0.97734 0.62436 0.28341 0.0
C2729 C 0.98589 0.62418 0.318 0.0
C2730 C 0.99204 0.61346 0.32826 0.0
C2731 C 0.04924 0.57622 0.31008 0.0
C2732 C 0.05403 0.58433 0.34191 0.0
C2733 C 0.03665 0.57497 0.30508 0.0
C2734 C 0.02869 0.5819 0.33157 0.0
C2735 C 0.03351 0.59002 0.36311 0.0
C2736 C 0.046 0.59117 0.36841 0.0
C2737 C 0.0153 0.5809 0.32688 0.0
C2738 C 0.00874 0.59141 0.31646 0.0
C2739 C 0.00896 0.56996 0.33479 0.0
C2740 C 0.01535 0.55867 0.34771 0.0
C2741 C 0.02282 0.55837 0.38602 0.0
C2742 C 0.02891 0.54773 0.39773 0.0
C2743 C 0.02751 0.5373 0.37166 0.0
C2744 C 0.01999 0.53748 0.33387 0.0
C2745 C 0.01389 0.54811 0.32195 0.0
H2746 H 0.03221 0.52908 0.38084 0.0
H2747 H 0.97258 0.63267 0.27556 0.0
H2748 H 0.9512 0.42825 0.72725 0.0
H2749 H 0.97331 0.42952 0.73492 0.0
H2750 H 0.97747 0.41459 0.60169 0.0
H2751 H 0.9556 0.41299 0.59447 0.0
H2752 H 0.99215 0.40361 0.65646 0.0
H2753 H 0.98191 0.44554 0.62785 0.0
H2754 H 0.97151 0.46487 0.64307 0.0
H2755 H 0.98814 0.46662 0.77345 0.0
H2756 H 0.99853 0.44721 0.7592 0.0
H2757 H 0.0518 0.41554 0.59528 0.0
H2758 H 0.02985 0.41631 0.60161 0.0
H2759 H 0.033 0.42981 0.73726 0.0
H2760 H 0.05518 0.42935 0.73063 0.0
H2761 H 0.01478 0.44117 0.69251 0.0
H2762 H 0.02632 0.39998 0.71795 0.0
H2763 H 0.03685 0.38078 0.70177 0.0
H2764 H 0.01764 0.37762 0.57678 0.0
H2765 H 0.00711 0.39689 0.59192 0.0
C2766 C 0.95686 0.42531 0.69958 0.0
C2767 C 0.95163 0.42051 0.66028 0.0
C2768 C 0.9695 0.42608 0.70391 0.0
C2769 C 0.97712 0.42221 0.66877 0.0
C2770 C 0.97184 0.41758 0.62939 0.0
C2771 C 0.95929 0.41672 0.62524 0.0
C2772 C 0.99059 0.42255 0.67283 0.0
C2773 C 0.99707 0.41187 0.66396 0.0
C2774 C 0.99708 0.43319 0.68419 0.0
C2775 C 0.99088 0.44486 0.69266 0.0
C2776 C 0.98327 0.45 0.6599 0.0
C2777 C 0.97739 0.46098 0.66833 0.0
C2778 C 0.97913 0.46695 0.70926 0.0
C2779 C 0.98679 0.46197 0.7418 0.0
C2780 C 0.99267 0.45099 0.73355 0.0
C2781 C 0.04787 0.41874 0.62646 0.0
C2782 C 0.05526 0.42229 0.66261 0.0
C2783 C 0.03528 0.41913 0.6301 0.0
C2784 C 0.02972 0.42287 0.67025 0.0
C2785 C 0.03706 0.42681 0.70603 0.0
C2786 C 0.04973 0.42652 0.70225 0.0
C2787 C 0.01628 0.42233 0.67466 0.0
C2788 C 0.00983 0.43291 0.68537 0.0
C2789 C 0.00977 0.4116 0.66492 0.0
C2790 C 0.01598 0.39992 0.65597 0.0
C2791 C 0.02439 0.39523 0.6869 0.0
C2792 C 0.03035 0.38433 0.67792 0.0
C2793 C 0.02793 0.378 0.63824 0.0
C2794 C 0.01951 0.38254 0.6075 0.0
C2795 C 0.01353 0.39344 0.61629 0.0
H2796 H 0.03256 0.36957 0.63134 0.0
H2797 H 0.97457 0.47545 0.71572 0.0
H2798 H 0.45082 0.57619 0.23278 0.0
H2799 H 0.47276 0.57345 0.24295 0.0
H2800 H 0.47864 0.58346 0.10445 0.0
H2801 H 0.45696 0.58637 0.09435 0.0
H2802 H 0.4924 0.56352 0.12993 0.0
H2803 H 0.48292 0.6038 0.18297 0.0
H2804 H 0.47243 0.61877 0.2306 0.0
H2805 H 0.48694 0.60191 0.34909 0.0
H2806 H 0.49738 0.58672 0.30209 0.0
H2807 H 0.55017 0.58821 0.10146 0.0
H2808 H 0.52848 0.58514 0.11025 0.0
H2809 H 0.53401 0.57278 0.24626 0.0
H2810 H 0.556 0.57564 0.23737 0.0
H2811 H 0.51467 0.59068 0.23402 0.0
H2812 H 0.5272 0.55244 0.17735 0.0
H2813 H 0.53845 0.53874 0.127 0.0
H2814 H 0.51856 0.55225 0.01356 0.0
H2815 H 0.50736 0.56624 0.06309 0.0
C2816 C 0.4568 0.57771 0.20448 0.0
C2817 C 0.45214 0.58153 0.1628 0.0
C2818 C 0.46932 0.57617 0.21034 0.0
C2819 C 0.47736 0.57827 0.17445 0.0
C2820 C 0.47264 0.58173 0.13257 0.0
C2821 C 0.46022 0.58344 0.12691 0.0
C2822 C 0.49071 0.57743 0.18032 0.0
C2823 C 0.49726 0.56944 0.15276 0.0
C2824 C 0.49708 0.58495 0.21081 0.0
C2825 C 0.49077 0.59403 0.23908 0.0
C2826 C 0.48376 0.60321 0.2192 0.0
C2827 C 0.47785 0.61175 0.24607 0.0
C2828 C 0.47898 0.61126 0.29286 0.0
C2829 C 0.48605 0.60225 0.31285 0.0
C2830 C 0.49196 0.59368 0.28612 0.0
C2831 C 0.54684 0.58477 0.13324 0.0
C2832 C 0.55484 0.58211 0.16866 0.0
C2833 C 0.53441 0.58302 0.13818 0.0
C2834 C 0.52963 0.57867 0.17879 0.0
C2835 C 0.53753 0.57612 0.21459 0.0
C2836 C 0.55007 0.57771 0.20942 0.0
C2837 C 0.51633 0.57695 0.18302 0.0
C2838 C 0.5098 0.5845 0.21218 0.0
C2839 C 0.50998 0.56905 0.15388 0.0
C2840 C 0.51648 0.56045 0.12397 0.0
C2841 C 0.52528 0.55255 0.14163 0.0
C2842 C 0.53164 0.54473 0.11323 0.0
C2843 C 0.52924 0.54464 0.06711 0.0
C2844 C 0.52042 0.55234 0.04931 0.0
C2845 C 0.51405 0.56021 0.07755 0.0
H2846 H 0.53419 0.53859 0.04517 0.0
H2847 H 0.47441 0.61789 0.31361 0.0
H2848 H 0.16146 0.13808 0.22489 0.0
H2849 H 0.15326 0.12564 0.28639 0.0
H2850 H 0.12543 0.15234 0.30937 0.0
H2851 H 0.13376 0.16483 0.24931 0.0
H2852 H 0.13636 0.14759 0.38487 0.0
H2853 H 0.11988 0.12343 0.26369 0.0
H2854 H 0.1209 0.11096 0.19497 0.0
H2855 H 0.14414 0.08562 0.26232 0.0
H2856 H 0.14338 0.09803 0.33131 0.0
H2857 H 0.09017 0.11949 0.50893 0.0
H2858 H 0.10326 0.12858 0.45208 0.0
H2859 H 0.1303 0.10125 0.47712 0.0
H2860 H 0.11718 0.09216 0.53515 0.0
H2861 H 0.12358 0.10456 0.38289 0.0
H2862 H 0.13747 0.12785 0.50754 0.0
H2863 H 0.1355 0.1403 0.57597 0.0
H2864 H 0.11631 0.16744 0.50108 0.0
H2865 H 0.11801 0.15507 0.43231 0.0
C2866 C 0.15339 0.14109 0.24232 0.0
C2867 C 0.14826 0.15243 0.23242 0.0
C2868 C 0.14874 0.134 0.2776 0.0
C2869 C 0.13877 0.13809 0.30293 0.0
C2870 C 0.13321 0.14905 0.29086 0.0
C2871 C 0.13793 0.15615 0.25626 0.0
C2872 C 0.13451 0.13157 0.34397 0.0
C2873 C 0.1335 0.13819 0.3842 0.0
C2874 C 0.13122 0.11918 0.3439 0.0
C2875 C 0.1317 0.11173 0.30246 0.0
C2876 C 0.12529 0.11525 0.26372 0.0
C2877 C 0.12581 0.10818 0.22475 0.0
C2878 C 0.13261 0.09752 0.22423 0.0
C2879 C 0.13889 0.09389 0.26274 0.0
C2880 C 0.13842 0.10093 0.30178 0.0
C2881 C 0.09901 0.11555 0.50303 0.0
C2882 C 0.10269 0.10516 0.52662 0.0
C2883 C 0.10647 0.12074 0.47047 0.0
C2884 C 0.11774 0.11558 0.46029 0.0
C2885 C 0.12163 0.10536 0.4845 0.0
C2886 C 0.1142 0.10026 0.51789 0.0
C2887 C 0.12504 0.12074 0.4229 0.0
C2888 C 0.12665 0.11389 0.38354 0.0
C2889 C 0.12881 0.13296 0.42354 0.0
C2890 C 0.12781 0.14048 0.46479 0.0
C2891 C 0.13275 0.13643 0.50572 0.0
C2892 C 0.13169 0.14348 0.54457 0.0
C2893 C 0.12577 0.15464 0.54289 0.0
C2894 C 0.1209 0.15879 0.50233 0.0
C2895 C 0.12192 0.15176 0.46338 0.0
H2896 H 0.12496 0.16009 0.573 0.0
H2897 H 0.133 0.09206 0.19404 0.0
H2898 H 0.08912 0.88491 0.50613 0.0
H2899 H 0.10182 0.87718 0.56665 0.0
H2900 H 0.12903 0.90391 0.53552 0.0
H2901 H 0.11634 0.91156 0.47362 0.0
H2902 H 0.13926 0.88233 0.56303 0.0
H2903 H 0.10974 0.90957 0.6191 0.0
H2904 H 0.08944 0.91851 0.62826 0.0
H2905 H 0.0765 0.8853 0.686 0.0
H2906 H 0.09667 0.8761 0.67652 0.0
H2907 H 0.16359 0.86791 0.7827 0.0
H2908 H 0.15454 0.88099 0.72452 0.0
H2909 H 0.12484 0.85593 0.71094 0.0
H2910 H 0.13394 0.84281 0.76785 0.0
H2911 H 0.11788 0.88089 0.70989 0.0
H2912 H 0.14727 0.85332 0.64201 0.0
H2913 H 0.16781 0.84489 0.63332 0.0
H2914 H 0.18146 0.88018 0.60002 0.0
H2915 H 0.161 0.88884 0.60919 0.0
C2916 C 0.09793 0.88898 0.51145 0.0
C2917 C 0.10169 0.8989 0.48537 0.0
C2918 C 0.10515 0.8846 0.54629 0.0
C2919 C 0.11622 0.89019 0.55655 0.0
C2920 C 0.12046 0.89953 0.52849 0.0
C2921 C 0.11324 0.90385 0.49301 0.0
C2922 C 0.12279 0.88666 0.59829 0.0
C2923 C 0.13468 0.88226 0.59531 0.0
C2924 C 0.11685 0.8866 0.64061 0.0
C2925 C 0.10471 0.89212 0.64685 0.0
C2926 C 0.10255 0.90415 0.6335 0.0
C2927 C 0.09106 0.90926 0.63877 0.0
C2928 C 0.08168 0.90247 0.65765 0.0
C2929 C 0.08377 0.89055 0.67138 0.0
C2930 C 0.09524 0.88539 0.66612 0.0
C2931 C 0.15497 0.86541 0.76808 0.0
C2932 C 0.14942 0.8544 0.77979 0.0
C2933 C 0.14987 0.87281 0.73466 0.0
C2934 C 0.13906 0.86936 0.7132 0.0
C2935 C 0.13317 0.85876 0.72705 0.0
C2936 C 0.13836 0.85128 0.75959 0.0
C2937 C 0.13416 0.87621 0.67425 0.0
C2938 C 0.12255 0.88123 0.6778 0.0
C2939 C 0.14041 0.87697 0.63275 0.0
C2940 C 0.15266 0.87175 0.62686 0.0
C2941 C 0.15467 0.85929 0.63323 0.0
C2942 C 0.16629 0.85447 0.62814 0.0
C2943 C 0.17594 0.862 0.61628 0.0
C2944 C 0.17398 0.87436 0.60932 0.0
C2945 C 0.16238 0.87923 0.61445 0.0
H2946 H 0.18493 0.85826 0.61236 0.0
H2947 H 0.0728 0.90645 0.6617 0.0
H2948 H 0.41382 0.88578 0.00967 0.0
H2949 H 0.40158 0.87762 0.94857 0.0
H2950 H 0.37576 0.90654 0.96616 0.0
H2951 H 0.38789 0.91452 0.02907 0.0
H2952 H 0.36434 0.88599 0.94146 0.0
H2953 H 0.39742 0.90866 0.88476 0.0
H2954 H 0.41863 0.91534 0.87792 0.0
H2955 H 0.42903 0.87973 0.83478 0.0
H2956 H 0.40791 0.87278 0.84202 0.0
H2957 H 0.34251 0.86797 0.72136 0.0
H2958 H 0.35142 0.88156 0.77816 0.0
H2959 H 0.37898 0.85495 0.80609 0.0
H2960 H 0.3701 0.84141 0.75034 0.0
H2961 H 0.38791 0.87874 0.80183 0.0
H2962 H 0.35446 0.85613 0.87023 0.0
H2963 H 0.33295 0.85029 0.87513 0.0
H2964 H 0.32292 0.88756 0.89238 0.0
H2965 H 0.34437 0.89364 0.88697 0.0
C2966 C 0.40538 0.89025 1.00122 0.0
C2967 C 0.40183 0.90081 0.0239 0.0
C2968 C 0.39844 0.88564 0.96601 0.0
C2969 C 0.38794 0.89168 0.95169 0.0
C2970 C 0.38389 0.90179 0.97627 0.0
C2971 C 0.39078 0.90631 0.01231 0.0
C2972 C 0.38178 0.88772 0.90958 0.0
C2973 C 0.36945 0.88464 0.91069 0.0
C2974 C 0.38836 0.88603 0.86908 0.0
C2975 C 0.40108 0.89019 0.86417 0.0
C2976 C 0.40424 0.90223 0.87405 0.0
C2977 C 0.41625 0.90607 0.87009 0.0
C2978 C 0.42518 0.89796 0.85598 0.0
C2979 C 0.42211 0.886 0.8457 0.0
C2980 C 0.41011 0.88211 0.84967 0.0
C2981 C 0.35063 0.86517 0.73898 0.0
C2982 C 0.35561 0.85363 0.73153 0.0
C2983 C 0.35564 0.87289 0.77161 0.0
C2984 C 0.3658 0.86921 0.79664 0.0
C2985 C 0.37114 0.85798 0.78727 0.0
C2986 C 0.36605 0.85024 0.75541 0.0
C2987 C 0.37067 0.87658 0.83437 0.0
C2988 C 0.38277 0.88033 0.83236 0.0
C2989 C 0.36382 0.87904 0.87362 0.0
C2990 C 0.35099 0.87535 0.87767 0.0
C2991 C 0.34766 0.86309 0.87476 0.0
C2992 C 0.33548 0.85973 0.87768 0.0
C2993 C 0.32657 0.86855 0.8839 0.0
C2994 C 0.32983 0.88074 0.88746 0.0
C2995 C 0.34199 0.88414 0.88449 0.0
H2996 H 0.31716 0.86594 0.88606 0.0
H2997 H 0.43447 0.90094 0.85294 0.0
H2998 H 0.41682 0.11644 0.0158 0.0
H2999 H 0.40377 0.12391 0.07553 0.0
H3000 H 0.3745 0.10175 0.02639 0.0
H3001 H 0.38763 0.09422 0.96547 0.0
H3002 H 0.36664 0.12444 0.05742 0.0
H3003 H 0.38977 0.09166 0.11347 0.0
H3004 H 0.408 0.0793 0.12651 0.0
H3005 H 0.42424 0.10854 0.20007 0.0
H3006 H 0.40618 0.12116 0.18685 0.0
H3007 H 0.33884 0.13759 0.27272 0.0
H3008 H 0.34759 0.12449 0.21399 0.0
H3009 H 0.38035 0.14569 0.21634 0.0
H3010 H 0.37153 0.15894 0.27364 0.0
H3011 H 0.3837 0.1194 0.21083 0.0
H3012 H 0.36133 0.15279 0.14234 0.0
H3013 H 0.34285 0.1648 0.12933 0.0
H3014 H 0.32456 0.13313 0.08039 0.0
H3015 H 0.3429 0.12089 0.09381 0.0
C3016 C 0.40756 0.11324 0.01716 0.0
C3017 C 0.40332 0.10461 0.98615 0.0
C3018 C 0.40011 0.1175 0.05153 0.0
C3019 C 0.38826 0.11315 0.05622 0.0
C3020 C 0.38367 0.10513 0.02365 0.0
C3021 C 0.39116 0.10088 0.98878 0.0
C3022 C 0.38109 0.11669 0.09657 0.0
C3023 C 0.37022 0.12308 0.09102 0.0
C3024 C 0.38575 0.11495 0.14056 0.0
C3025 C 0.39663 0.10738 0.14893 0.0
C3026 C 0.39726 0.09549 0.13217 0.0
C3027 C 0.40756 0.08843 0.13962 0.0
C3028 C 0.41728 0.09314 0.16406 0.0
C3029 C 0.4167 0.10491 0.18115 0.0
C3030 C 0.40642 0.11201 0.17373 0.0
C3031 C 0.34803 0.1392 0.26153 0.0
C3032 C 0.35459 0.14918 0.27787 0.0
C3033 C 0.35297 0.1318 0.22779 0.0
C3034 C 0.36459 0.13417 0.2107 0.0
C3035 C 0.37139 0.14368 0.22912 0.0
C3036 C 0.36637 0.15122 0.26191 0.0
C3037 C 0.36949 0.12743 0.17148 0.0
C3038 C 0.37997 0.12047 0.1773 0.0
C3039 C 0.3644 0.12854 0.12795 0.0
C3040 C 0.35342 0.1359 0.11966 0.0
C3041 C 0.35333 0.14837 0.12924 0.0
C3042 C 0.34289 0.15522 0.12171 0.0
C3043 C 0.33252 0.14973 0.1042 0.0
C3044 C 0.33259 0.13737 0.09406 0.0
C3045 C 0.343 0.13047 0.10162 0.0
H3046 H 0.32445 0.15505 0.09837 0.0
H3047 H 0.42525 0.08766 0.16979 0.0
H3048 H 0.91504 0.88885 0.51159 0.0
H3049 H 0.90164 0.87965 0.56712 0.0
H3050 H 0.87293 0.90384 0.52758 0.0
H3051 H 0.88638 0.91305 0.47078 0.0
H3052 H 0.87811 0.90204 0.62616 0.0
H3053 H 0.86853 0.87712 0.49976 0.0
H3054 H 0.87308 0.8646 0.4332 0.0
H3055 H 0.89271 0.83951 0.51596 0.0
H3056 H 0.88845 0.85198 0.58294 0.0
H3057 H 0.84019 0.86703 0.77885 0.0
H3058 H 0.84843 0.87953 0.71759 0.0
H3059 H 0.87789 0.85423 0.70156 0.0
H3060 H 0.86943 0.84161 0.76101 0.0
H3061 H 0.86847 0.85819 0.62408 0.0
H3062 H 0.88079 0.88407 0.74749 0.0
H3063 H 0.87743 0.8967 0.8148 0.0
H3064 H 0.85374 0.91988 0.73934 0.0
H3065 H 0.85684 0.90729 0.67171 0.0
C3066 C 0.90583 0.89213 0.51423 0.0
C3067 C 0.90175 0.90166 0.48674 0.0
C3068 C 0.89819 0.88687 0.54604 0.0
C3069 C 0.88631 0.89108 0.55158 0.0
C3070 C 0.88209 0.90048 0.52384 0.0
C3071 C 0.88972 0.90565 0.49119 0.0
C3072 C 0.87861 0.88562 0.5872 0.0
C3073 C 0.87573 0.89251 0.62544 0.0
C3074 C 0.87574 0.87315 0.58651 0.0
C3075 C 0.87822 0.86554 0.54637 0.0
C3076 C 0.87389 0.86898 0.50374 0.0
C3077 C 0.87641 0.86188 0.46593 0.0
C3078 C 0.88319 0.85127 0.47034 0.0
C3079 C 0.88745 0.84773 0.5126 0.0
C3080 C 0.88497 0.8548 0.55051 0.0
C3081 C 0.84859 0.86436 0.76291 0.0
C3082 C 0.85419 0.85338 0.77464 0.0
C3083 C 0.85328 0.87147 0.72779 0.0
C3084 C 0.86379 0.86782 0.70457 0.0
C3085 C 0.86971 0.85721 0.71837 0.0
C3086 C 0.86493 0.85003 0.75266 0.0
C3087 C 0.86834 0.87447 0.66418 0.0
C3088 C 0.87063 0.86777 0.62483 0.0
C3089 C 0.87075 0.88707 0.66415 0.0
C3090 C 0.86893 0.89466 0.70472 0.0
C3091 C 0.87479 0.89181 0.74536 0.0
C3092 C 0.87295 0.89896 0.78354 0.0
C3093 C 0.86535 0.90906 0.78139 0.0
C3094 C 0.8596 0.91204 0.74099 0.0
C3095 C 0.8614 0.9049 0.70273 0.0
H3096 H 0.86393 0.91459 0.81098 0.0
H3097 H 0.88513 0.84579 0.44103 0.0
H3098 H 0.86994 0.16548 0.25099 0.0
H3099 H 0.87892 0.15211 0.30714 0.0
H3100 H 0.85227 0.12477 0.27698 0.0
H3101 H 0.84327 0.13818 0.21972 0.0
H3102 H 0.85501 0.13063 0.3722 0.0
H3103 H 0.87915 0.11844 0.24725 0.0
H3104 H 0.89185 0.12137 0.17991 0.0
H3105 H 0.91818 0.14043 0.25903 0.0
H3106 H 0.90556 0.13778 0.32675 0.0
H3107 H 0.88868 0.09248 0.52895 0.0
H3108 H 0.87636 0.10066 0.46704 0.0
H3109 H 0.90249 0.12925 0.44777 0.0
H3110 H 0.91486 0.12091 0.50808 0.0
H3111 H 0.89829 0.11879 0.37123 0.0
H3112 H 0.87318 0.13372 0.49282 0.0
H3113 H 0.86044 0.13178 0.56057 0.0
H3114 H 0.83607 0.10844 0.48892 0.0
H3115 H 0.84876 0.11012 0.42087 0.0
C3116 C 0.86611 0.15654 0.25567 0.0
C3117 C 0.85594 0.15285 0.23082 0.0
C3118 C 0.87124 0.14891 0.28783 0.0
C3119 C 0.86625 0.13746 0.29632 0.0
C3120 C 0.85624 0.13359 0.27093 0.0
C3121 C 0.8512 0.14118 0.23797 0.0
C3122 C 0.87139 0.12991 0.33305 0.0
C3123 C 0.8644 0.12777 0.37173 0.0
C3124 C 0.88368 0.1264 0.33267 0.0
C3125 C 0.89136 0.12796 0.29206 0.0
C3126 C 0.8876 0.12333 0.25024 0.0
C3127 C 0.8948 0.12493 0.21201 0.0
C3128 C 0.9058 0.1311 0.21518 0.0
C3129 C 0.90965 0.13566 0.25663 0.0
C3130 C 0.90249 0.13409 0.29497 0.0
C3131 C 0.89158 0.10068 0.51216 0.0
C3132 C 0.90273 0.10606 0.5232 0.0
C3133 C 0.88457 0.10534 0.47668 0.0
C3134 C 0.88853 0.11554 0.45234 0.0
C3135 C 0.89929 0.12129 0.46548 0.0
C3136 C 0.90633 0.11657 0.50022 0.0
C3137 C 0.88207 0.11993 0.41137 0.0
C3138 C 0.88884 0.12144 0.37168 0.0
C3139 C 0.86961 0.12294 0.41108 0.0
C3140 C 0.862 0.12192 0.45196 0.0
C3141 C 0.86516 0.12809 0.49164 0.0
C3142 C 0.85794 0.12705 0.53007 0.0
C3143 C 0.84747 0.11995 0.5291 0.0
C3144 C 0.84419 0.11391 0.48965 0.0
C3145 C 0.85139 0.1149 0.45114 0.0
H3146 H 0.84189 0.11917 0.55888 0.0
H3147 H 0.91136 0.13233 0.18554 0.0
H3148 H 0.64661 0.13956 0.30763 0.0
H3149 H 0.63751 0.12606 0.25085 0.0
H3150 H 0.65008 0.14976 0.14536 0.0
H3151 H 0.65886 0.16316 0.20094 0.0
H3152 H 0.62728 0.14505 0.13288 0.0
H3153 H 0.66292 0.12172 0.16557 0.0
H3154 H 0.67727 0.1106 0.2138 0.0
H3155 H 0.64911 0.08589 0.2523 0.0
H3156 H 0.63454 0.09697 0.20473 0.0
H3157 H 0.61353 0.1098 0.93998 0.0
H3158 H 0.62638 0.11949 0.9973 0.0
H3159 H 0.60925 0.09809 0.10061 0.0
H3160 H 0.59639 0.08857 0.04403 0.0
H3161 H 0.63434 0.10097 0.11486 0.0
H3162 H 0.59877 0.12495 0.0838 0.0
H3163 H 0.58456 0.13608 0.03501 0.0
H3164 H 0.61323 0.15976 0.99295 0.0
H3165 H 0.62766 0.14864 0.04104 0.0
C3166 C 0.64749 0.14178 0.2723 0.0
C3167 C 0.65329 0.15254 0.25897 0.0
C3168 C 0.64232 0.13407 0.23985 0.0
C3169 C 0.64304 0.13693 0.19368 0.0
C3170 C 0.64924 0.14741 0.18063 0.0
C3171 C 0.65427 0.15509 0.21267 0.0
C3172 C 0.6369 0.12952 0.15849 0.0
C3173 C 0.62898 0.13544 0.12871 0.0
C3174 C 0.63888 0.11693 0.15337 0.0
C3175 C 0.64761 0.11026 0.182 0.0
C3176 C 0.65976 0.11398 0.18464 0.0
C3177 C 0.66794 0.10767 0.21179 0.0
C3178 C 0.6641 0.09757 0.23621 0.0
C3179 C 0.65207 0.09373 0.23343 0.0
C3180 C 0.64385 0.10002 0.20636 0.0
C3181 C 0.61271 0.10702 0.97478 0.0
C3182 C 0.60388 0.09854 0.9876 0.0
C3183 C 0.62001 0.11256 0.0075 0.0
C3184 C 0.61869 0.10957 0.05332 0.0
C3185 C 0.61043 0.10054 0.06559 0.0
C3186 C 0.60304 0.09517 0.03318 0.0
C3187 C 0.62498 0.11659 0.08902 0.0
C3188 C 0.63278 0.1106 0.11902 0.0
C3189 C 0.62297 0.12915 0.09435 0.0
C3190 C 0.61431 0.13588 0.06558 0.0
C3191 C 0.60206 0.13246 0.06384 0.0
C3192 C 0.59397 0.13878 0.03638 0.0
C3193 C 0.598 0.1486 0.01079 0.0
C3194 C 0.61013 0.15214 0.01272 0.0
C3195 C 0.61827 0.14583 0.04008 0.0
H3196 H 0.59172 0.15348 0.98956 0.0
H3197 H 0.67044 0.09269 0.25721 0.0
H3198 H 0.66557 0.86805 0.73617 0.0
H3199 H 0.65679 0.88121 0.7947 0.0
H3200 H 0.6248 0.85886 0.79759 0.0
H3201 H 0.63368 0.84555 0.74058 0.0
H3202 H 0.62068 0.88523 0.80005 0.0
H3203 H 0.64436 0.85295 0.87058 0.0
H3204 H 0.66329 0.84167 0.88371 0.0
H3205 H 0.68069 0.8743 0.92824 0.0
H3206 H 0.66189 0.8858 0.91469 0.0
H3207 H 0.58805 0.88828 0.9959 0.0
H3208 H 0.60118 0.8809 0.93625 0.0
H3209 H 0.6299 0.90416 0.98289 0.0
H3210 H 0.61668 0.9116 0.04373 0.0
H3211 H 0.63839 0.88163 0.953 0.0
H3212 H 0.61422 0.91338 0.89556 0.0
H3213 H 0.59563 0.9252 0.88244 0.0
H3214 H 0.57991 0.89517 0.81179 0.0
H3215 H 0.59834 0.88309 0.8251 0.0
C3216 C 0.65654 0.86617 0.74856 0.0
C3217 C 0.65023 0.85587 0.73375 0.0
C3218 C 0.65158 0.87362 0.78214 0.0
C3219 C 0.64017 0.87096 0.80057 0.0
C3220 C 0.6336 0.86108 0.78377 0.0
C3221 C 0.63865 0.85351 0.75116 0.0
C3222 C 0.63525 0.87785 0.83938 0.0
C3223 C 0.62455 0.88447 0.83347 0.0
C3224 C 0.64053 0.87718 0.88272 0.0
C3225 C 0.65178 0.87026 0.89103 0.0
C3226 C 0.65226 0.85774 0.88273 0.0
C3227 C 0.66295 0.8513 0.89034 0.0
C3228 C 0.6732 0.85727 0.90664 0.0
C3229 C 0.67276 0.86969 0.9155 0.0
C3230 C 0.66209 0.87617 0.90787 0.0
C3231 C 0.59721 0.89174 0.99401 0.0
C3232 C 0.60127 0.90065 0.02429 0.0
C3233 C 0.6047 0.88754 0.9597 0.0
C3234 C 0.61641 0.89221 0.9543 0.0
C3235 C 0.62084 0.90051 0.98618 0.0
C3236 C 0.61331 0.90471 0.02101 0.0
C3237 C 0.62358 0.88869 0.91393 0.0
C3238 C 0.63466 0.88267 0.91947 0.0
C3239 C 0.61875 0.89006 0.87002 0.0
C3240 C 0.60765 0.8973 0.86156 0.0
C3241 C 0.60677 0.90926 0.87748 0.0
C3242 C 0.59626 0.91602 0.86998 0.0
C3243 C 0.58659 0.91093 0.84635 0.0
C3244 C 0.58741 0.89909 0.83009 0.0
C3245 C 0.5979 0.89229 0.83755 0.0
H3246 H 0.57846 0.91618 0.84058 0.0
H3247 H 0.68147 0.85227 0.91254 0.0
H3248 H 0.58827 0.61622 0.99727 0.0
H3249 H 0.60078 0.62406 0.93659 0.0
H3250 H 0.63005 0.6007 0.97745 0.0
H3251 H 0.61748 0.59287 0.03951 0.0
H3252 H 0.63836 0.62299 0.94836 0.0
H3253 H 0.6129 0.59221 0.89065 0.0
H3254 H 0.59393 0.58092 0.87865 0.0
H3255 H 0.57826 0.6119 0.81371 0.0
H3256 H 0.59707 0.62345 0.82596 0.0
H3257 H 0.66394 0.63811 0.731 0.0
H3258 H 0.65543 0.62458 0.78888 0.0
H3259 H 0.62352 0.64697 0.79612 0.0
H3260 H 0.6321 0.6606 0.73963 0.0
H3261 H 0.61909 0.62099 0.79763 0.0
H3262 H 0.64409 0.65221 0.86794 0.0
H3263 H 0.66336 0.66303 0.87954 0.0
H3264 H 0.68051 0.62979 0.91891 0.0
H3265 H 0.66136 0.61874 0.90684 0.0
C3266 C 0.59743 0.61284 0.99386 0.0
C3267 C 0.60183 0.60381 0.02291 0.0
C3268 C 0.60456 0.6173 0.95894 0.0
C3269 C 0.61624 0.61273 0.95158 0.0
C3270 C 0.62101 0.60427 0.98221 0.0
C3271 C 0.61386 0.59984 0.01774 0.0
C3272 C 0.62302 0.61654 0.91061 0.0
C3273 C 0.63428 0.62229 0.91527 0.0
C3274 C 0.61773 0.61564 0.86726 0.0
C3275 C 0.6064 0.60872 0.85946 0.0
C3276 C 0.60539 0.59664 0.87407 0.0
C3277 C 0.59466 0.5902 0.86719 0.0
C3278 C 0.58489 0.5957 0.84548 0.0
C3279 C 0.58584 0.60765 0.83052 0.0
C3280 C 0.59654 0.61415 0.83737 0.0
C3281 C 0.65497 0.63991 0.74414 0.0
C3282 C 0.64862 0.65033 0.73076 0.0
C3283 C 0.65018 0.63226 0.77739 0.0
C3284 C 0.63888 0.63483 0.79695 0.0
C3285 C 0.63224 0.64481 0.78145 0.0
C3286 C 0.63713 0.65258 0.74913 0.0
C3287 C 0.63419 0.62775 0.83571 0.0
C3288 C 0.6233 0.6214 0.83057 0.0
C3289 C 0.63989 0.62797 0.87836 0.0
C3290 C 0.65135 0.63463 0.8859 0.0
C3291 C 0.652 0.64719 0.87865 0.0
C3292 C 0.66289 0.65337 0.88539 0.0
C3293 C 0.67316 0.64709 0.8998 0.0
C3294 C 0.67255 0.63463 0.90764 0.0
C3295 C 0.66168 0.62841 0.90086 0.0
H3296 H 0.68159 0.65189 0.90501 0.0
H3297 H 0.57659 0.59069 0.84019 0.0
H3298 H 0.66814 0.35427 0.2214 0.0
H3299 H 0.65803 0.36677 0.1647 0.0
H3300 H 0.62847 0.37297 0.2566 0.0
H3301 H 0.63878 0.36063 0.31402 0.0
H3302 H 0.62201 0.36251 0.17164 0.0
H3303 H 0.64495 0.39609 0.2289 0.0
H3304 H 0.66351 0.40682 0.25193 0.0
H3305 H 0.67772 0.40347 0.11805 0.0
H3306 H 0.65931 0.39257 0.09435 0.0
H3307 H 0.58587 0.40102 0.04587 0.0
H3308 H 0.59896 0.39233 0.10241 0.0
H3309 H 0.62865 0.39215 0.00825 0.0
H3310 H 0.61547 0.40126 0.95055 0.0
H3311 H 0.63604 0.39939 0.0918 0.0
H3312 H 0.61417 0.36597 0.03312 0.0
H3313 H 0.59637 0.35441 0.00756 0.0
H3314 H 0.58122 0.35606 0.14045 0.0
H3315 H 0.59885 0.3678 0.16669 0.0
C3316 C 0.65967 0.35865 0.22996 0.0
C3317 C 0.65426 0.35662 0.27208 0.0
C3318 C 0.65391 0.36577 0.19756 0.0
C3319 C 0.64251 0.37081 0.2064 0.0
C3320 C 0.6373 0.3692 0.24921 0.0
C3321 C 0.64321 0.36225 0.28206 0.0
C3322 C 0.63552 0.37651 0.16933 0.0
C3323 C 0.62495 0.3707 0.15471 0.0
C3324 C 0.63972 0.38684 0.1458 0.0
C3325 C 0.6508 0.3934 0.15997 0.0
C3326 C 0.65208 0.39754 0.20446 0.0
C3327 C 0.66256 0.40368 0.21762 0.0
C3328 C 0.6718 0.4058 0.18651 0.0
C3329 C 0.67056 0.40181 0.14213 0.0
C3330 C 0.6601 0.39566 0.12881 0.0
C3331 C 0.59515 0.39913 0.03663 0.0
C3332 C 0.59953 0.40176 0.99313 0.0
C3333 C 0.60266 0.39411 0.06926 0.0
C3334 C 0.61474 0.39136 0.05949 0.0
C3335 C 0.61932 0.39414 0.01648 0.0
C3336 C 0.61176 0.39929 0.98353 0.0
C3337 C 0.62237 0.38551 0.09468 0.0
C3338 C 0.63308 0.39122 0.10875 0.0
C3339 C 0.61844 0.37493 0.11735 0.0
C3340 C 0.6078 0.36786 0.10178 0.0
C3341 C 0.607 0.36396 0.05682 0.0
C3342 C 0.59695 0.35736 0.04223 0.0
C3343 C 0.58766 0.35453 0.07234 0.0
C3344 C 0.58842 0.35827 0.11715 0.0
C3345 C 0.59845 0.36488 0.13192 0.0
H3346 H 0.57988 0.34942 0.06098 0.0
H3347 H 0.67991 0.41055 0.19676 0.0
H3348 H 0.89 0.39528 0.56719 0.0
H3349 H 0.87609 0.38611 0.51202 0.0
H3350 H 0.89705 0.40146 0.40368 0.0
H3351 H 0.91081 0.4105 0.45789 0.0
H3352 H 0.87273 0.40274 0.38612 0.0
H3353 H 0.90218 0.37301 0.43607 0.0
H3354 H 0.9127 0.36065 0.49308 0.0
H3355 H 0.87888 0.34477 0.53289 0.0
H3356 H 0.86814 0.35716 0.47645 0.0
H3357 H 0.86053 0.36364 0.19788 0.0
H3358 H 0.86905 0.3766 0.25736 0.0
H3359 H 0.84977 0.3559 0.35761 0.0
H3360 H 0.84171 0.34283 0.29906 0.0
H3361 H 0.87167 0.35788 0.38299 0.0
H3362 H 0.8422 0.38599 0.3281 0.0
H3363 H 0.83155 0.39831 0.27141 0.0
H3364 H 0.8645 0.41728 0.24155 0.0
H3365 H 0.8754 0.40495 0.29767 0.0
C3366 C 0.8915 0.39681 0.53163 0.0
C3367 C 0.9016 0.40345 0.51689 0.0
C3368 C 0.88358 0.39157 0.50016 0.0
C3369 C 0.8856 0.39303 0.45365 0.0
C3370 C 0.89529 0.4002 0.43925 0.0
C3371 C 0.90322 0.40528 0.4704 0.0
C3372 C 0.87835 0.38638 0.41949 0.0
C3373 C 0.87248 0.39293 0.38532 0.0
C3374 C 0.8779 0.37359 0.41873 0.0
C3375 C 0.88435 0.36611 0.45247 0.0
C3376 C 0.89699 0.36695 0.45724 0.0
C3377 C 0.90299 0.35993 0.48939 0.0
C3378 C 0.89646 0.35196 0.51669 0.0
C3379 C 0.88392 0.35097 0.51179 0.0
C3380 C 0.87787 0.35798 0.47973 0.0
C3381 C 0.85802 0.362 0.23259 0.0
C3382 C 0.85059 0.35214 0.24388 0.0
C3383 C 0.86285 0.36942 0.2666 0.0
C3384 C 0.86007 0.36724 0.31221 0.0
C3385 C 0.85218 0.35772 0.32293 0.0
C3386 C 0.84756 0.35025 0.28931 0.0
C3387 C 0.86593 0.3742 0.3493 0.0
C3388 C 0.87167 0.3677 0.38394 0.0
C3389 C 0.86617 0.38702 0.35052 0.0
C3390 C 0.85964 0.39447 0.3168 0.0
C3391 C 0.8472 0.39272 0.3092 0.0
C3392 C 0.84111 0.39972 0.27721 0.0
C3393 C 0.84735 0.40855 0.25281 0.0
C3394 C 0.85969 0.41042 0.26044 0.0
C3395 C 0.86582 0.40344 0.29237 0.0
H3396 H 0.84262 0.41396 0.22806 0.0
H3397 H 0.90112 0.34653 0.54156 0.0
H3398 H 0.85836 0.63924 0.81411 0.0
H3399 H 0.86766 0.62568 0.75805 0.0
H3400 H 0.85163 0.64665 0.65113 0.0
H3401 H 0.84241 0.66004 0.70625 0.0
H3402 H 0.85099 0.62262 0.63147 0.0
H3403 H 0.88017 0.65222 0.68352 0.0
H3404 H 0.89232 0.66278 0.74101 0.0
H3405 H 0.90879 0.62911 0.77931 0.0
H3406 H 0.8966 0.61833 0.72239 0.0
H3407 H 0.89107 0.61049 0.44469 0.0
H3408 H 0.87784 0.61923 0.50304 0.0
H3409 H 0.89765 0.59977 0.60516 0.0
H3410 H 0.91092 0.59144 0.54787 0.0
H3411 H 0.89585 0.62194 0.62958 0.0
H3412 H 0.86791 0.59238 0.57301 0.0
H3413 H 0.85579 0.58186 0.51537 0.0
H3414 H 0.83703 0.61493 0.48544 0.0
H3415 H 0.84916 0.62569 0.54252 0.0
C3416 C 0.85669 0.6408 0.77868 0.0
C3417 C 0.84982 0.65081 0.76462 0.0
C3418 C 0.86202 0.63309 0.74668 0.0
C3419 C 0.86044 0.63523 0.70029 0.0
C3420 C 0.853 0.6448 0.68657 0.0
C3421 C 0.84781 0.65252 0.71825 0.0
C3422 C 0.86723 0.62827 0.66562 0.0
C3423 C 0.86081 0.62247 0.63093 0.0
C3424 C 0.88002 0.62798 0.66506 0.0
C3425 C 0.88738 0.63446 0.69912 0.0
C3426 C 0.88631 0.64706 0.70445 0.0
C3427 C 0.89322 0.65308 0.73688 0.0
C3428 C 0.90129 0.64661 0.7639 0.0
C3429 C 0.90251 0.6341 0.75843 0.0
C3430 C 0.89561 0.62803 0.72609 0.0
C3431 C 0.89245 0.608 0.47955 0.0
C3432 C 0.90212 0.60043 0.49175 0.0
C3433 C 0.88489 0.61296 0.51291 0.0
C3434 C 0.88676 0.6102 0.55873 0.0
C3435 C 0.89608 0.60218 0.57031 0.0
C3436 C 0.90367 0.59742 0.53739 0.0
C3437 C 0.87965 0.61614 0.59529 0.0
C3438 C 0.88603 0.62187 0.63023 0.0
C3439 C 0.86684 0.61631 0.59602 0.0
C3440 C 0.85953 0.60987 0.56173 0.0
C3441 C 0.86127 0.59743 0.55389 0.0
C3442 C 0.85439 0.59142 0.52137 0.0
C3443 C 0.84567 0.59773 0.49667 0.0
C3444 C 0.8438 0.61006 0.50455 0.0
C3445 C 0.85066 0.61612 0.53701 0.0
H3446 H 0.84035 0.59306 0.47151 0.0
H3447 H 0.90663 0.65129 0.78898 0.0
H3448 H 0.36457 0.3617 0.30885 0.0
H3449 H 0.37365 0.3744 0.24988 0.0
H3450 H 0.3453 0.36379 0.15809 0.0
H3451 H 0.33661 0.3508 0.21612 0.0
H3452 H 0.36536 0.36073 0.11843 0.0
H3453 H 0.34853 0.39365 0.2011 0.0
H3454 H 0.3442 0.40627 0.26758 0.0
H3455 H 0.38213 0.41349 0.28379 0.0
H3456 H 0.38671 0.40077 0.21775 0.0
H3457 H 0.38931 0.39981 0.94402 0.0
H3458 H 0.37523 0.39143 1.00028 0.0
H3459 H 0.40288 0.3943 0.10202 0.0
H3460 H 0.41682 0.40249 0.04707 0.0
H3461 H 0.3809 0.40266 0.13238 0.0
H3462 H 0.39726 0.36763 0.05406 0.0
H3463 H 0.40124 0.35512 0.98695 0.0
H3464 H 0.36307 0.35241 0.96177 0.0
H3465 H 0.35888 0.36505 0.02847 0.0
C3466 C 0.36015 0.36237 0.27642 0.0
C3467 C 0.34991 0.35531 0.26692 0.0
C3468 C 0.36532 0.36962 0.24266 0.0
C3469 C 0.36018 0.37009 0.19926 0.0
C3470 C 0.34953 0.36354 0.19095 0.0
C3471 C 0.34452 0.35618 0.22425 0.0
C3472 C 0.36637 0.37646 0.16137 0.0
C3473 C 0.36851 0.37 0.12133 0.0
C3474 C 0.37068 0.3885 0.16494 0.0
C3475 C 0.36797 0.39617 0.20467 0.0
C3476 C 0.35596 0.39785 0.21904 0.0
C3477 C 0.35346 0.40504 0.25661 0.0
C3478 C 0.36288 0.41066 0.27995 0.0
C3479 C 0.37483 0.40912 0.2657 0.0
C3480 C 0.37739 0.40193 0.22816 0.0
C3481 C 0.39237 0.39863 0.97835 0.0
C3482 C 0.40426 0.40176 0.99069 0.0
C3483 C 0.38432 0.39386 0.01047 0.0
C3484 C 0.38801 0.39226 0.05544 0.0
C3485 C 0.39979 0.39551 0.0677 0.0
C3486 C 0.40781 0.40011 0.03586 0.0
C3487 C 0.37991 0.38687 0.09007 0.0
C3488 C 0.37749 0.39348 0.12947 0.0
C3489 C 0.37524 0.37501 0.08585 0.0
C3490 C 0.37777 0.3674 0.04587 0.0
C3491 C 0.38973 0.36445 0.03398 0.0
C3492 C 0.39202 0.35732 0.99607 0.0
C3493 C 0.38242 0.353 0.97002 0.0
C3494 C 0.3705 0.35578 0.98192 0.0
C3495 C 0.36816 0.36292 0.01977 0.0
H3496 H 0.38421 0.34748 0.9407 0.0
H3497 H 0.36093 0.41622 0.30904 0.0
H3498 H 0.41734 0.60006 0.95655 0.0
H3499 H 0.40413 0.60899 0.90095 0.0
H3500 H 0.37747 0.61629 1.00335 0.0
H3501 H 0.39078 0.60698 0.06034 0.0
H3502 H 0.367 0.60824 0.92424 0.0
H3503 H 0.3949 0.63905 0.96536 0.0
H3504 H 0.41479 0.64811 0.98199 0.0
H3505 H 0.4264 0.64114 0.84659 0.0
H3506 H 0.40663 0.63187 0.8293 0.0
H3507 H 0.3386 0.65469 0.79181 0.0
H3508 H 0.34835 0.64192 0.84825 0.0
H3509 H 0.37457 0.63039 0.74963 0.0
H3510 H 0.36459 0.64311 0.69242 0.0
H3511 H 0.38449 0.64075 0.82896 0.0
H3512 H 0.35552 0.61021 0.78907 0.0
H3513 H 0.3351 0.60213 0.77459 0.0
H3514 H 0.32474 0.61007 0.91065 0.0
H3515 H 0.34506 0.61837 0.92579 0.0
C3516 C 0.40871 0.60359 0.9678 0.0
C3517 C 0.40525 0.60297 0.01339 0.0
C3518 C 0.40113 0.6087 0.93565 0.0
C3519 C 0.38991 0.61356 0.94797 0.0
C3520 C 0.38615 0.61267 0.99313 0.0
C3521 C 0.39377 0.6074 0.02567 0.0
C3522 C 0.38245 0.61974 0.91313 0.0
C3523 C 0.37074 0.61549 0.90389 0.0
C3524 C 0.38739 0.62907 0.88597 0.0
C3525 C 0.3993 0.63467 0.89615 0.0
C3526 C 0.40172 0.63936 0.93922 0.0
C3527 C 0.41297 0.64455 0.94875 0.0
C3528 C 0.42186 0.64518 0.9154 0.0
C3529 C 0.4195 0.64064 0.8724 0.0
C3530 C 0.40827 0.63543 0.8627 0.0
C3531 C 0.34626 0.64918 0.78186 0.0
C3532 C 0.35086 0.64985 0.73782 0.0
C3533 C 0.3518 0.64187 0.81413 0.0
C3534 C 0.36218 0.6352 0.8032 0.0
C3535 C 0.36653 0.63545 0.75868 0.0
C3536 C 0.36081 0.64263 0.72599 0.0
C3537 C 0.36914 0.62911 0.83952 0.0
C3538 C 0.38076 0.63348 0.84923 0.0
C3539 C 0.36401 0.62006 0.8674 0.0
C3540 C 0.35179 0.61502 0.85844 0.0
C3541 C 0.34886 0.61034 0.81581 0.0
C3542 C 0.33731 0.60569 0.8075 0.0
C3543 C 0.32862 0.60562 0.84164 0.0
C3544 C 0.33148 0.61015 0.88422 0.0
C3545 C 0.34302 0.61481 0.8927 0.0
H3546 H 0.31968 0.60202 0.83514 0.0
H3547 H 0.43056 0.6492 0.92284 0.0
H3548 H 0.13351 0.66112 0.76893 0.0
H3549 H 0.12471 0.64768 0.71237 0.0
H3550 H 0.15589 0.62434 0.72127 0.0
H3551 H 0.16464 0.6377 0.77922 0.0
H3552 H 0.14914 0.63296 0.62994 0.0
H3553 H 0.13229 0.6124 0.75607 0.0
H3554 H 0.12184 0.61058 0.82905 0.0
H3555 H 0.0899 0.62658 0.77226 0.0
H3556 H 0.10021 0.62867 0.69908 0.0
H3557 H 0.11695 0.59485 0.46838 0.0
H3558 H 0.12978 0.60251 0.5298 0.0
H3559 H 0.10074 0.62584 0.57326 0.0
H3560 H 0.08797 0.61818 0.51303 0.0
H3561 H 0.10901 0.61314 0.642 0.0
H3562 H 0.1265 0.63667 0.52098 0.0
H3563 H 0.13675 0.63961 0.44809 0.0
H3564 H 0.16717 0.61895 0.49486 0.0
H3565 H 0.15701 0.61575 0.56788 0.0
C3566 C 0.13834 0.65295 0.75972 0.0
C3567 C 0.14968 0.65037 0.77869 0.0
C3568 C 0.13333 0.64531 0.7273 0.0
C3569 C 0.13967 0.63504 0.71253 0.0
C3570 C 0.15087 0.63222 0.73228 0.0
C3571 C 0.15578 0.63976 0.76564 0.0
C3572 C 0.1347 0.62782 0.67468 0.0
C3573 C 0.1405 0.62835 0.63268 0.0
C3574 C 0.12334 0.62203 0.67819 0.0
C3575 C 0.11706 0.62076 0.72212 0.0
C3576 C 0.12307 0.61562 0.75922 0.0
C3577 C 0.11716 0.61452 0.80062 0.0
C3578 C 0.10522 0.61848 0.80531 0.0
C3579 C 0.09915 0.62352 0.76858 0.0
C3580 C 0.10502 0.62465 0.72711 0.0
C3581 C 0.11344 0.60181 0.4905 0.0
C3582 C 0.10142 0.60584 0.48605 0.0
C3583 C 0.12075 0.60614 0.5257 0.0
C3584 C 0.11618 0.61467 0.55655 0.0
C3585 C 0.10442 0.61914 0.55041 0.0
C3586 C 0.09714 0.61479 0.51573 0.0
C3587 C 0.12322 0.61863 0.59669 0.0
C3588 C 0.11777 0.6175 0.63924 0.0
C3589 C 0.13485 0.62395 0.59351 0.0
C3590 C 0.14093 0.62583 0.54963 0.0
C3591 C 0.13532 0.63265 0.51556 0.0
C3592 C 0.14113 0.63439 0.47426 0.0
C3593 C 0.15258 0.62943 0.46678 0.0
C3594 C 0.15828 0.62276 0.50065 0.0
C3595 C 0.15251 0.62098 0.542 0.0
H3596 H 0.15707 0.63079 0.4348 0.0
H3597 H 0.10067 0.61762 0.83739 0.0
H3598 H 0.13913 0.33812 0.27482 0.0
H3599 H 0.13018 0.3518 0.32904 0.0
H3600 H 0.14678 0.38223 0.26224 0.0
H3601 H 0.1562 0.36836 0.20757 0.0
H3602 H 0.14968 0.38362 0.35315 0.0
H3603 H 0.11625 0.37795 0.25526 0.0
H3604 H 0.10179 0.36664 0.20809 0.0
H3605 H 0.08917 0.34727 0.32422 0.0
H3606 H 0.10367 0.35832 0.37203 0.0
H3607 H 0.11298 0.42102 0.50225 0.0
H3608 H 0.12419 0.4118 0.43959 0.0
H3609 H 0.11092 0.37659 0.47888 0.0
H3610 H 0.09953 0.38587 0.54054 0.0
H3611 H 0.1062 0.38088 0.39317 0.0
H3612 H 0.14145 0.38547 0.48906 0.0
H3613 H 0.15595 0.39704 0.53516 0.0
H3614 H 0.16486 0.41918 0.42109 0.0
H3615 H 0.15028 0.40783 0.37445 0.0
C3616 C 0.14085 0.34773 0.27108 0.0
C3617 C 0.14844 0.35211 0.23667 0.0
C3618 C 0.13564 0.35558 0.30219 0.0
C3619 C 0.13768 0.36808 0.29961 0.0
C3620 C 0.14505 0.37261 0.26483 0.0
C3621 C 0.15034 0.36468 0.2334 0.0
C3622 C 0.13238 0.37613 0.3347 0.0
C3623 C 0.14012 0.38323 0.36135 0.0
C3624 C 0.11993 0.37556 0.34579 0.0
C3625 C 0.1111 0.36894 0.31722 0.0
C3626 C 0.11044 0.37123 0.27072 0.0
C3627 C 0.10223 0.36487 0.24386 0.0
C3628 C 0.09457 0.35623 0.26314 0.0
C3629 C 0.0951 0.35396 0.30934 0.0
C3630 C 0.1033 0.36029 0.33635 0.0
C3631 C 0.11287 0.41126 0.49833 0.0
C3632 C 0.10562 0.40408 0.52655 0.0
C3633 C 0.11921 0.406 0.46242 0.0
C3634 C 0.11842 0.39348 0.45438 0.0
C3635 C 0.11167 0.38627 0.48424 0.0
C3636 C 0.10527 0.39153 0.51977 0.0
C3637 C 0.12357 0.38794 0.41284 0.0
C3638 C 0.11574 0.38138 0.38475 0.0
C3639 C 0.1359 0.38911 0.40038 0.0
C3640 C 0.14468 0.39589 0.42841 0.0
C3641 C 0.14643 0.39287 0.47391 0.0
C3642 C 0.15468 0.39938 0.50012 0.0
C3643 C 0.1613 0.40887 0.4811 0.0
C3644 C 0.15971 0.41184 0.4358 0.0
C3645 C 0.15146 0.40537 0.40946 0.0
H3646 H 0.16768 0.41389 0.50145 0.0
H3647 H 0.08823 0.35131 0.24228 0.0
loop_
_geom_bond_atom_site_label_1
_geom_bond_atom_site_label_2
_geom_bond_distance
_geom_bond_site_symmetry_2
_ccdc_geom_bond_type
Co0 O1 2.216 . S
Co0 O2 2.091 . S
Co0 O4 2.004 . S
Co0 O10 2.021 . S
Co0 O12 2.137 . S
Co0 O13 2.244 . S
O1 Co0 2.216 . S
O1 C8 1.247 . S
O2 Co0 2.091 . S
O2 C8 1.261 . S
C3 O12 1.247 . S
C3 O13 1.272 . S
O4 Co0 2.004 . S
O4 C9 1.259 . S
Co5 O6 2.061 . S
Co5 O11 2.052 . S
Co5 O13 2.135 . S
O6 Co5 2.061 . S
O6 C9 1.235 . S
C7 O10 1.238 . S
C7 O11 1.241 . S
C8 O1 1.247 . S
C8 O2 1.261 . S
C9 O4 1.259 . S
C9 O6 1.235 . S
O10 Co0 2.021 . S
O10 C7 1.238 . S
O11 Co5 2.052 . S
O11 C7 1.241 . S
O12 Co0 2.137 . S
O12 C3 1.247 . S
O13 Co0 2.244 . S
O13 C3 1.272 . S
O13 Co5 2.135 . S
Co14 O15 2.216 . S
Co14 O16 2.091 . S
Co14 O18 2.004 . S
Co14 O24 2.021 . S
Co14 O26 2.137 . S
Co14 O27 2.244 . S
O15 Co14 2.216 . S
O15 C22 1.247 . S
O16 Co14 2.091 . S
O16 C22 1.261 . S
C17 O26 1.247 . S
C17 O27 1.272 . S
O18 Co14 2.004 . S
O18 C23 1.259 . S
Co19 O20 2.061 . S
Co19 O25 2.052 . S
Co19 O27 2.135 . S
O20 Co19 2.061 . S
O20 C23 1.235 . S
C21 O24 1.238 . S
C21 O25 1.241 . S
C22 O15 1.247 . S
C22 O16 1.261 . S
C23 O18 1.259 . S
C23 O20 1.235 . S
O24 Co14 2.021 . S
O24 C21 1.238 . S
O25 Co19 2.052 . S
O25 C21 1.241 . S
O26 Co14 2.137 . S
O26 C17 1.247 . S
O27 Co14 2.244 . S
O27 C17 1.272 . S
O27 Co19 2.135 . S
Co28 O29 2.216 . S
Co28 O30 2.091 . S
Co28 O32 2.004 . S
Co28 O38 2.021 . S
Co28 O40 2.137 . S
Co28 O41 2.244 . S
O29 Co28 2.216 . S
O29 C36 1.247 . S
O30 Co28 2.091 . S
O30 C36 1.261 . S
C31 O40 1.247 . S
C31 O41 1.272 . S
O32 Co28 2.004 . S
O32 C37 1.259 . S
Co33 O34 2.061 . S
Co33 O39 2.052 . S
Co33 O41 2.135 . S
O34 Co33 2.061 . S
O34 C37 1.235 . S
C35 O38 1.238 . S
C35 O39 1.241 . S
C36 O29 1.247 . S
C36 O30 1.261 . S
C37 O32 1.259 . S
C37 O34 1.235 . S
O38 Co28 2.021 . S
O38 C35 1.238 . S
O39 Co33 2.052 . S
O39 C35 1.241 . S
O40 Co28 2.137 . S
O40 C31 1.247 . S
O41 Co28 2.244 . S
O41 C31 1.272 . S
O41 Co33 2.135 . S
Co42 O43 2.216 . S
Co42 O44 2.091 . S
Co42 O46 2.004 . S
Co42 O52 2.021 . S
Co42 O54 2.137 . S
Co42 O55 2.244 . S
O43 Co42 2.216 . S
O43 C50 1.247 . S
O44 Co42 2.091 . S
O44 C50 1.261 . S
C45 O54 1.247 . S
C45 O55 1.272 . S
O46 Co42 2.004 . S
O46 C51 1.259 . S
Co47 O48 2.061 . S
Co47 O53 2.052 . S
Co47 O55 2.135 . S
O48 Co47 2.061 . S
O48 C51 1.235 . S
C49 O52 1.238 . S
C49 O53 1.241 . S
C50 O43 1.247 . S
C50 O44 1.261 . S
C51 O46 1.259 . S
C51 O48 1.235 . S
O52 Co42 2.021 . S
O52 C49 1.238 . S
O53 Co47 2.052 . S
O53 C49 1.241 . S
O54 Co42 2.137 . S
O54 C45 1.247 . S
O55 Co42 2.244 . S
O55 C45 1.272 . S
O55 Co47 2.135 . S
Co56 O57 2.216 . S
Co56 O58 2.091 . S
Co56 O60 2.004 . S
Co56 O66 2.021 . S
Co56 O68 2.137 . S
Co56 O69 2.244 . S
O57 Co56 2.216 . S
O57 C64 1.247 . S
O58 Co56 2.091 . S
O58 C64 1.261 . S
C59 O68 1.247 . S
C59 O69 1.272 . S
O60 Co56 2.004 . S
O60 C65 1.259 . S
Co61 O62 2.061 . S
Co61 O67 2.052 . S
Co61 O69 2.135 . S
O62 Co61 2.061 . S
O62 C65 1.235 . S
C63 O66 1.238 . S
C63 O67 1.241 . S
C64 O57 1.247 . S
C64 O58 1.261 . S
C65 O60 1.259 . S
C65 O62 1.235 . S
O66 Co56 2.021 . S
O66 C63 1.238 . S
O67 Co61 2.052 . S
O67 C63 1.241 . S
O68 Co56 2.137 . S
O68 C59 1.247 . S
O69 Co56 2.244 . S
O69 C59 1.272 . S
O69 Co61 2.135 . S
Co70 O71 2.216 . S
Co70 O72 2.091 . S
Co70 O74 2.004 . S
Co70 O80 2.021 . S
Co70 O82 2.137 . S
Co70 O83 2.244 . S
O71 Co70 2.216 . S
O71 C78 1.247 . S
O72 Co70 2.091 . S
O72 C78 1.261 . S
C73 O82 1.247 . S
C73 O83 1.272 . S
O74 Co70 2.004 . S
O74 C79 1.259 . S
Co75 O76 2.061 . S
Co75 O81 2.052 . S
Co75 O83 2.135 . S
O76 Co75 2.061 . S
O76 C79 1.235 . S
C77 O80 1.238 . S
C77 O81 1.241 . S
C78 O71 1.247 . S
C78 O72 1.261 . S
C79 O74 1.259 . S
C79 O76 1.235 . S
O80 Co70 2.021 . S
O80 C77 1.238 . S
O81 Co75 2.052 . S
O81 C77 1.241 . S
O82 Co70 2.137 . S
O82 C73 1.247 . S
O83 Co70 2.244 . S
O83 C73 1.272 . S
O83 Co75 2.135 . S
Co84 O85 2.216 . S
Co84 O86 2.091 . S
Co84 O88 2.004 . S
Co84 O94 2.021 . S
Co84 O96 2.137 . S
Co84 O97 2.244 . S
O85 Co84 2.216 . S
O85 C92 1.247 . S
O86 Co84 2.091 . S
O86 C92 1.261 . S
C87 O96 1.247 . S
C87 O97 1.272 . S
O88 Co84 2.004 . S
O88 C93 1.259 . S
Co89 O90 2.061 . S
Co89 O95 2.052 . S
Co89 O97 2.135 . S
O90 Co89 2.061 . S
O90 C93 1.235 . S
C91 O94 1.238 . S
C91 O95 1.241 . S
C92 O85 1.247 . S
C92 O86 1.261 . S
C93 O88 1.259 . S
C93 O90 1.235 . S
O94 Co84 2.021 . S
O94 C91 1.238 . S
O95 Co89 2.052 . S
O95 C91 1.241 . S
O96 Co84 2.137 . S
O96 C87 1.247 . S
O97 Co84 2.244 . S
O97 C87 1.272 . S
O97 Co89 2.135 . S
Co98 O99 2.216 . S
Co98 O100 2.091 . S
Co98 O102 2.004 . S
Co98 O108 2.021 . S
Co98 O110 2.137 . S
Co98 O111 2.244 . S
O99 Co98 2.216 . S
O99 C106 1.247 . S
O100 Co98 2.091 . S
O100 C106 1.261 . S
C101 O110 1.247 . S
C101 O111 1.272 . S
O102 Co98 2.004 . S
O102 C107 1.259 . S
Co103 O104 2.061 . S
Co103 O109 2.052 . S
Co103 O111 2.135 . S
O104 Co103 2.061 . S
O104 C107 1.235 . S
C105 O108 1.238 . S
C105 O109 1.241 . S
C106 O99 1.247 . S
C106 O100 1.261 . S
C107 O102 1.259 . S
C107 O104 1.235 . S
O108 Co98 2.021 . S
O108 C105 1.238 . S
O109 Co103 2.052 . S
O109 C105 1.241 . S
O110 Co98 2.137 . S
O110 C101 1.247 . S
O111 Co98 2.244 . S
O111 C101 1.272 . S
O111 Co103 2.135 . S
Co112 O113 2.216 . S
Co112 O114 2.091 . S
Co112 O116 2.004 . S
Co112 O122 2.021 . S
Co112 O124 2.137 . S
Co112 O125 2.244 . S
O113 Co112 2.216 . S
O113 C120 1.247 . S
O114 Co112 2.091 . S
O114 C120 1.261 . S
C115 O124 1.247 . S
C115 O125 1.272 . S
O116 Co112 2.004 . S
O116 C121 1.259 . S
Co117 O118 2.061 . S
Co117 O123 2.052 . S
Co117 O125 2.135 . S
O118 Co117 2.061 . S
O118 C121 1.235 . S
C119 O122 1.238 . S
C119 O123 1.241 . S
C120 O113 1.247 . S
C120 O114 1.261 . S
C121 O116 1.259 . S
C121 O118 1.235 . S
O122 Co112 2.021 . S
O122 C119 1.238 . S
O123 Co117 2.052 . S
O123 C119 1.241 . S
O124 Co112 2.137 . S
O124 C115 1.247 . S
O125 Co112 2.244 . S
O125 C115 1.272 . S
O125 Co117 2.135 . S
Co126 O127 2.216 . S
Co126 O128 2.091 . S
Co126 O130 2.004 . S
Co126 O136 2.021 . S
Co126 O138 2.137 . S
Co126 O139 2.244 . S
O127 Co126 2.216 . S
O127 C134 1.247 . S
O128 Co126 2.091 . S
O128 C134 1.261 . S
C129 O138 1.247 . S
C129 O139 1.272 . S
O130 Co126 2.004 . S
O130 C135 1.259 . S
Co131 O132 2.061 . S
Co131 O137 2.052 . S
Co131 O139 2.135 . S
O132 Co131 2.061 . S
O132 C135 1.235 . S
C133 O136 1.238 . S
C133 O137 1.241 . S
C134 O127 1.247 . S
C134 O128 1.261 . S
C135 O130 1.259 . S
C135 O132 1.235 . S
O136 Co126 2.021 . S
O136 C133 1.238 . S
O137 Co131 2.052 . S
O137 C133 1.241 . S
O138 Co126 2.137 . S
O138 C129 1.247 . S
O139 Co126 2.244 . S
O139 C129 1.272 . S
O139 Co131 2.135 . S
Co140 O141 2.216 . S
Co140 O142 2.091 . S
Co140 O144 2.004 . S
Co140 O150 2.021 . S
Co140 O152 2.137 . S
Co140 O153 2.244 . S
O141 Co140 2.216 . S
O141 C148 1.247 . S
O142 Co140 2.091 . S
O142 C148 1.261 . S
C143 O152 1.247 . S
C143 O153 1.272 . S
O144 Co140 2.004 . S
O144 C149 1.259 . S
Co145 O146 2.061 . S
Co145 O151 2.052 . S
Co145 O153 2.135 . S
O146 Co145 2.061 . S
O146 C149 1.235 . S
C147 O150 1.238 . S
C147 O151 1.241 . S
C148 O141 1.247 . S
C148 O142 1.261 . S
C149 O144 1.259 . S
C149 O146 1.235 . S
O150 Co140 2.021 . S
O150 C147 1.238 . S
O151 Co145 2.052 . S
O151 C147 1.241 . S
O152 Co140 2.137 . S
O152 C143 1.247 . S
O153 Co140 2.244 . S
O153 C143 1.272 . S
O153 Co145 2.135 . S
Co154 O155 2.216 . S
Co154 O156 2.091 . S
Co154 O158 2.004 . S
Co154 O164 2.021 . S
Co154 O166 2.137 . S
Co154 O167 2.244 . S
O155 Co154 2.216 . S
O155 C162 1.247 . S
O156 Co154 2.091 . S
O156 C162 1.261 . S
C157 O166 1.247 . S
C157 O167 1.272 . S
O158 Co154 2.004 . S
O158 C163 1.259 . S
Co159 O160 2.061 . S
Co159 O165 2.052 . S
Co159 O167 2.135 . S
O160 Co159 2.061 . S
O160 C163 1.235 . S
C161 O164 1.238 . S
C161 O165 1.241 . S
C162 O155 1.247 . S
C162 O156 1.261 . S
C163 O158 1.259 . S
C163 O160 1.235 . S
O164 Co154 2.021 . S
O164 C161 1.238 . S
O165 Co159 2.052 . S
O165 C161 1.241 . S
O166 Co154 2.137 . S
O166 C157 1.247 . S
O167 Co154 2.244 . S
O167 C157 1.272 . S
O167 Co159 2.135 . S
Co168 O169 2.216 . S
Co168 O170 2.091 . S
Co168 O172 2.004 . S
Co168 O178 2.021 . S
Co168 O180 2.137 . S
Co168 O181 2.244 . S
O169 Co168 2.216 . S
O169 C176 1.247 . S
O170 Co168 2.091 . S
O170 C176 1.261 . S
C171 O180 1.247 . S
C171 O181 1.272 . S
O172 Co168 2.004 . S
O172 C177 1.259 . S
Co173 O174 2.061 . S
Co173 O179 2.052 . S
Co173 O181 2.135 . S
O174 Co173 2.061 . S
O174 C177 1.235 . S
C175 O178 1.238 . S
C175 O179 1.241 . S
C176 O169 1.247 . S
C176 O170 1.261 . S
C177 O172 1.259 . S
C177 O174 1.235 . S
O178 Co168 2.021 . S
O178 C175 1.238 . S
O179 Co173 2.052 . S
O179 C175 1.241 . S
O180 Co168 2.137 . S
O180 C171 1.247 . S
O181 Co168 2.244 . S
O181 C171 1.272 . S
O181 Co173 2.135 . S
Co182 O183 2.216 . S
Co182 O184 2.091 . S
Co182 O186 2.004 . S
Co182 O192 2.021 . S
Co182 O194 2.137 . S
Co182 O195 2.244 . S
O183 Co182 2.216 . S
O183 C190 1.247 . S
O184 Co182 2.091 . S
O184 C190 1.261 . S
C185 O194 1.247 . S
C185 O195 1.272 . S
O186 Co182 2.004 . S
O186 C191 1.259 . S
Co187 O188 2.061 . S
Co187 O193 2.052 . S
Co187 O195 2.135 . S
O188 Co187 2.061 . S
O188 C191 1.235 . S
C189 O192 1.238 . S
C189 O193 1.241 . S
C190 O183 1.247 . S
C190 O184 1.261 . S
C191 O186 1.259 . S
C191 O188 1.235 . S
O192 Co182 2.021 . S
O192 C189 1.238 . S
O193 Co187 2.052 . S
O193 C189 1.241 . S
O194 Co182 2.137 . S
O194 C185 1.247 . S
O195 Co182 2.244 . S
O195 C185 1.272 . S
O195 Co187 2.135 . S
Co196 O197 2.216 . S
Co196 O198 2.091 . S
Co196 O200 2.004 . S
Co196 O206 2.021 . S
Co196 O208 2.137 . S
Co196 O209 2.244 . S
O197 Co196 2.216 . S
O197 C204 1.247 . S
O198 Co196 2.091 . S
O198 C204 1.261 . S
C199 O208 1.247 . S
C199 O209 1.272 . S
O200 Co196 2.004 . S
O200 C205 1.259 . S
Co201 O202 2.061 . S
Co201 O207 2.052 . S
Co201 O209 2.135 . S
O202 Co201 2.061 . S
O202 C205 1.235 . S
C203 O206 1.238 . S
C203 O207 1.241 . S
C204 O197 1.247 . S
C204 O198 1.261 . S
C205 O200 1.259 . S
C205 O202 1.235 . S
O206 Co196 2.021 . S
O206 C203 1.238 . S
O207 Co201 2.052 . S
O207 C203 1.241 . S
O208 Co196 2.137 . S
O208 C199 1.247 . S
O209 Co196 2.244 . S
O209 C199 1.272 . S
O209 Co201 2.135 . S
Co210 O211 2.216 . S
Co210 O212 2.091 . S
Co210 O214 2.004 . S
Co210 O220 2.021 . S
Co210 O222 2.137 . S
Co210 O223 2.244 . S
O211 Co210 2.216 . S
O211 C218 1.247 . S
O212 Co210 2.091 . S
O212 C218 1.261 . S
C213 O222 1.247 . S
C213 O223 1.272 . S
O214 Co210 2.004 . S
O214 C219 1.259 . S
Co215 O216 2.061 . S
Co215 O221 2.052 . S
Co215 O223 2.135 . S
O216 Co215 2.061 . S
O216 C219 1.235 . S
C217 O220 1.238 . S
C217 O221 1.241 . S
C218 O211 1.247 . S
C218 O212 1.261 . S
C219 O214 1.259 . S
C219 O216 1.235 . S
O220 Co210 2.021 . S
O220 C217 1.238 . S
O221 Co215 2.052 . S
O221 C217 1.241 . S
O222 Co210 2.137 . S
O222 C213 1.247 . S
O223 Co210 2.244 . S
O223 C213 1.272 . S
O223 Co215 2.135 . S
Co224 O225 2.216 . S
Co224 O226 2.091 . S
Co224 O228 2.004 . S
Co224 O234 2.021 . S
Co224 O236 2.137 . S
Co224 O237 2.244 . S
O225 Co224 2.216 . S
O225 C232 1.247 . S
O226 Co224 2.091 . S
O226 C232 1.261 . S
C227 O236 1.247 . S
C227 O237 1.272 . S
O228 Co224 2.004 . S
O228 C233 1.259 . S
Co229 O230 2.061 . S
Co229 O235 2.052 . S
Co229 O237 2.135 . S
O230 Co229 2.061 . S
O230 C233 1.235 . S
C231 O234 1.238 . S
C231 O235 1.241 . S
C232 O225 1.247 . S
C232 O226 1.261 . S
C233 O228 1.259 . S
C233 O230 1.235 . S
O234 Co224 2.021 . S
O234 C231 1.238 . S
O235 Co229 2.052 . S
O235 C231 1.241 . S
O236 Co224 2.137 . S
O236 C227 1.247 . S
O237 Co224 2.244 . S
O237 C227 1.272 . S
O237 Co229 2.135 . S
Co238 O239 2.216 . S
Co238 O240 2.091 . S
Co238 O242 2.004 . S
Co238 O248 2.021 . S
Co238 O250 2.137 . S
Co238 O251 2.244 . S
O239 Co238 2.216 . S
O239 C246 1.247 . S
O240 Co238 2.091 . S
O240 C246 1.261 . S
C241 O250 1.247 . S
C241 O251 1.272 . S
O242 Co238 2.004 . S
O242 C247 1.259 . S
Co243 O244 2.061 . S
Co243 O249 2.052 . S
Co243 O251 2.135 . S
O244 Co243 2.061 . S
O244 C247 1.235 . S
C245 O248 1.238 . S
C245 O249 1.241 . S
C246 O239 1.247 . S
C246 O240 1.261 . S
C247 O242 1.259 . S
C247 O244 1.235 . S
O248 Co238 2.021 . S
O248 C245 1.238 . S
O249 Co243 2.052 . S
O249 C245 1.241 . S
O250 Co238 2.137 . S
O250 C241 1.247 . S
O251 Co238 2.244 . S
O251 C241 1.272 . S
O251 Co243 2.135 . S
Co252 O253 2.216 . S
Co252 O254 2.091 . S
Co252 O256 2.004 . S
Co252 O262 2.021 . S
Co252 O264 2.137 . S
Co252 O265 2.244 . S
O253 Co252 2.216 . S
O253 C260 1.247 . S
O254 Co252 2.091 . S
O254 C260 1.261 . S
C255 O264 1.247 . S
C255 O265 1.272 . S
O256 Co252 2.004 . S
O256 C261 1.259 . S
Co257 O258 2.061 . S
Co257 O263 2.052 . S
Co257 O265 2.135 . S
O258 Co257 2.061 . S
O258 C261 1.235 . S
C259 O262 1.238 . S
C259 O263 1.241 . S
C260 O253 1.247 . S
C260 O254 1.261 . S
C261 O256 1.259 . S
C261 O258 1.235 . S
O262 Co252 2.021 . S
O262 C259 1.238 . S
O263 Co257 2.052 . S
O263 C259 1.241 . S
O264 Co252 2.137 . S
O264 C255 1.247 . S
O265 Co252 2.244 . S
O265 C255 1.272 . S
O265 Co257 2.135 . S
Co266 O267 2.216 . S
Co266 O268 2.091 . S
Co266 O270 2.004 . S
Co266 O276 2.021 . S
Co266 O278 2.137 . S
Co266 O279 2.244 . S
O267 Co266 2.216 . S
O267 C274 1.247 . S
O268 Co266 2.091 . S
O268 C274 1.261 . S
C269 O278 1.247 . S
C269 O279 1.272 . S
O270 Co266 2.004 . S
O270 C275 1.259 . S
Co271 O272 2.061 . S
Co271 O277 2.052 . S
Co271 O279 2.135 . S
O272 Co271 2.061 . S
O272 C275 1.235 . S
C273 O276 1.238 . S
C273 O277 1.241 . S
C274 O267 1.247 . S
C274 O268 1.261 . S
C275 O270 1.259 . S
C275 O272 1.235 . S
O276 Co266 2.021 . S
O276 C273 1.238 . S
O277 Co271 2.052 . S
O277 C273 1.241 . S
O278 Co266 2.137 . S
O278 C269 1.247 . S
O279 Co266 2.244 . S
O279 C269 1.272 . S
O279 Co271 2.135 . S
Co280 O281 2.216 . S
Co280 O282 2.091 . S
Co280 O284 2.004 . S
Co280 O290 2.021 . S
Co280 O292 2.137 . S
Co280 O293 2.244 . S
O281 Co280 2.216 . S
O281 C288 1.247 . S
O282 Co280 2.091 . S
O282 C288 1.261 . S
C283 O292 1.247 . S
C283 O293 1.272 . S
O284 Co280 2.004 . S
O284 C289 1.259 . S
Co285 O286 2.061 . S
Co285 O291 2.052 . S
Co285 O293 2.135 . S
O286 Co285 2.061 . S
O286 C289 1.235 . S
C287 O290 1.238 . S
C287 O291 1.241 . S
C288 O281 1.247 . S
C288 O282 1.261 . S
C289 O284 1.259 . S
C289 O286 1.235 . S
O290 Co280 2.021 . S
O290 C287 1.238 . S
O291 Co285 2.052 . S
O291 C287 1.241 . S
O292 Co280 2.137 . S
O292 C283 1.247 . S
O293 Co280 2.244 . S
O293 C283 1.272 . S
O293 Co285 2.135 . S
Co294 O295 2.216 . S
Co294 O296 2.091 . S
Co294 O298 2.004 . S
Co294 O304 2.021 . S
Co294 O306 2.137 . S
Co294 O307 2.244 . S
O295 Co294 2.216 . S
O295 C302 1.247 . S
O296 Co294 2.091 . S
O296 C302 1.261 . S
C297 O306 1.247 . S
C297 O307 1.272 . S
O298 Co294 2.004 . S
O298 C303 1.259 . S
Co299 O300 2.061 . S
Co299 O305 2.052 . S
Co299 O307 2.135 . S
O300 Co299 2.061 . S
O300 C303 1.235 . S
C301 O304 1.238 . S
C301 O305 1.241 . S
C302 O295 1.247 . S
C302 O296 1.261 . S
C303 O298 1.259 . S
C303 O300 1.235 . S
O304 Co294 2.021 . S
O304 C301 1.238 . S
O305 Co299 2.052 . S
O305 C301 1.241 . S
O306 Co294 2.137 . S
O306 C297 1.247 . S
O307 Co294 2.244 . S
O307 C297 1.272 . S
O307 Co299 2.135 . S
Co308 O309 2.216 . S
Co308 O310 2.091 . S
Co308 O312 2.004 . S
Co308 O318 2.021 . S
Co308 O320 2.137 . S
Co308 O321 2.244 . S
O309 Co308 2.216 . S
O309 C316 1.247 . S
O310 Co308 2.091 . S
O310 C316 1.261 . S
C311 O320 1.247 . S
C311 O321 1.272 . S
O312 Co308 2.004 . S
O312 C317 1.259 . S
Co313 O314 2.061 . S
Co313 O319 2.052 . S
Co313 O321 2.135 . S
O314 Co313 2.061 . S
O314 C317 1.235 . S
C315 O318 1.238 . S
C315 O319 1.241 . S
C316 O309 1.247 . S
C316 O310 1.261 . S
C317 O312 1.259 . S
C317 O314 1.235 . S
O318 Co308 2.021 . S
O318 C315 1.238 . S
O319 Co313 2.052 . S
O319 C315 1.241 . S
O320 Co308 2.137 . S
O320 C311 1.247 . S
O321 Co308 2.244 . S
O321 C311 1.272 . S
O321 Co313 2.135 . S
Co322 O323 2.216 . S
Co322 O324 2.091 . S
Co322 O326 2.004 . S
Co322 O332 2.021 . S
Co322 O334 2.137 . S
Co322 O335 2.244 . S
O323 Co322 2.216 . S
O323 C330 1.247 . S
O324 Co322 2.091 . S
O324 C330 1.261 . S
C325 O334 1.247 . S
C325 O335 1.272 . S
O326 Co322 2.004 . S
O326 C331 1.259 . S
Co327 O328 2.061 . S
Co327 O333 2.052 . S
Co327 O335 2.135 . S
O328 Co327 2.061 . S
O328 C331 1.235 . S
C329 O332 1.238 . S
C329 O333 1.241 . S
C330 O323 1.247 . S
C330 O324 1.261 . S
C331 O326 1.259 . S
C331 O328 1.235 . S
O332 Co322 2.021 . S
O332 C329 1.238 . S
O333 Co327 2.052 . S
O333 C329 1.241 . S
O334 Co322 2.137 . S
O334 C325 1.247 . S
O335 Co322 2.244 . S
O335 C325 1.272 . S
O335 Co327 2.135 . S
Co336 O337 2.216 . S
Co336 O338 2.091 . S
Co336 O340 2.004 . S
Co336 O346 2.021 . S
Co336 O348 2.137 . S
Co336 O349 2.244 . S
O337 Co336 2.216 . S
O337 C344 1.247 . S
O338 Co336 2.091 . S
O338 C344 1.261 . S
C339 O348 1.247 . S
C339 O349 1.272 . S
O340 Co336 2.004 . S
O340 C345 1.259 . S
Co341 O342 2.061 . S
Co341 O347 2.052 . S
Co341 O349 2.135 . S
O342 Co341 2.061 . S
O342 C345 1.235 . S
C343 O346 1.238 . S
C343 O347 1.241 . S
C344 O337 1.247 . S
C344 O338 1.261 . S
C345 O340 1.259 . S
C345 O342 1.235 . S
O346 Co336 2.021 . S
O346 C343 1.238 . S
O347 Co341 2.052 . S
O347 C343 1.241 . S
O348 Co336 2.137 . S
O348 C339 1.247 . S
O349 Co336 2.244 . S
O349 C339 1.272 . S
O349 Co341 2.135 . S
Co350 O351 2.216 . S
Co350 O352 2.091 . S
Co350 O354 2.004 . S
Co350 O360 2.021 . S
Co350 O362 2.137 . S
Co350 O363 2.244 . S
O351 Co350 2.216 . S
O351 C358 1.247 . S
O352 Co350 2.091 . S
O352 C358 1.261 . S
C353 O362 1.247 . S
C353 O363 1.272 . S
O354 Co350 2.004 . S
O354 C359 1.259 . S
Co355 O356 2.061 . S
Co355 O361 2.052 . S
Co355 O363 2.135 . S
O356 Co355 2.061 . S
O356 C359 1.235 . S
C357 O360 1.238 . S
C357 O361 1.241 . S
C358 O351 1.247 . S
C358 O352 1.261 . S
C359 O354 1.259 . S
C359 O356 1.235 . S
O360 Co350 2.021 . S
O360 C357 1.238 . S
O361 Co355 2.052 . S
O361 C357 1.241 . S
O362 Co350 2.137 . S
O362 C353 1.247 . S
O363 Co350 2.244 . S
O363 C353 1.272 . S
O363 Co355 2.135 . S
Co364 O365 2.216 . S
Co364 O366 2.091 . S
Co364 O368 2.004 . S
Co364 O374 2.021 . S
Co364 O376 2.137 . S
Co364 O377 2.244 . S
O365 Co364 2.216 . S
O365 C372 1.247 . S
O366 Co364 2.091 . S
O366 C372 1.261 . S
C367 O376 1.247 . S
C367 O377 1.272 . S
O368 Co364 2.004 . S
O368 C373 1.259 . S
Co369 O370 2.061 . S
Co369 O375 2.052 . S
Co369 O377 2.135 . S
O370 Co369 2.061 . S
O370 C373 1.235 . S
C371 O374 1.238 . S
C371 O375 1.241 . S
C372 O365 1.247 . S
C372 O366 1.261 . S
C373 O368 1.259 . S
C373 O370 1.235 . S
O374 Co364 2.021 . S
O374 C371 1.238 . S
O375 Co369 2.052 . S
O375 C371 1.241 . S
O376 Co364 2.137 . S
O376 C367 1.247 . S
O377 Co364 2.244 . S
O377 C367 1.272 . S
O377 Co369 2.135 . S
Co378 O379 2.216 . S
Co378 O380 2.091 . S
Co378 O382 2.004 . S
Co378 O388 2.021 . S
Co378 O390 2.137 . S
Co378 O391 2.244 . S
O379 Co378 2.216 . S
O379 C386 1.247 . S
O380 Co378 2.091 . S
O380 C386 1.261 . S
C381 O390 1.247 . S
C381 O391 1.272 . S
O382 Co378 2.004 . S
O382 C387 1.259 . S
Co383 O384 2.061 . S
Co383 O389 2.052 . S
Co383 O391 2.135 . S
O384 Co383 2.061 . S
O384 C387 1.235 . S
C385 O388 1.238 . S
C385 O389 1.241 . S
C386 O379 1.247 . S
C386 O380 1.261 . S
C387 O382 1.259 . S
C387 O384 1.235 . S
O388 Co378 2.021 . S
O388 C385 1.238 . S
O389 Co383 2.052 . S
O389 C385 1.241 . S
O390 Co378 2.137 . S
O390 C381 1.247 . S
O391 Co378 2.244 . S
O391 C381 1.272 . S
O391 Co383 2.135 . S
Co392 O393 2.216 . S
Co392 O394 2.091 . S
Co392 O396 2.004 . S
Co392 O402 2.021 . S
Co392 O404 2.137 . S
Co392 O405 2.244 . S
O393 Co392 2.216 . S
O393 C400 1.247 . S
O394 Co392 2.091 . S
O394 C400 1.261 . S
C395 O404 1.247 . S
C395 O405 1.272 . S
O396 Co392 2.004 . S
O396 C401 1.259 . S
Co397 O398 2.061 . S
Co397 O403 2.052 . S
Co397 O405 2.135 . S
O398 Co397 2.061 . S
O398 C401 1.235 . S
C399 O402 1.238 . S
C399 O403 1.241 . S
C400 O393 1.247 . S
C400 O394 1.261 . S
C401 O396 1.259 . S
C401 O398 1.235 . S
O402 Co392 2.021 . S
O402 C399 1.238 . S
O403 Co397 2.052 . S
O403 C399 1.241 . S
O404 Co392 2.137 . S
O404 C395 1.247 . S
O405 Co392 2.244 . S
O405 C395 1.272 . S
O405 Co397 2.135 . S
Co406 O407 2.216 . S
Co406 O408 2.091 . S
Co406 O410 2.004 . S
Co406 O416 2.021 . S
Co406 O418 2.137 . S
Co406 O419 2.244 . S
O407 Co406 2.216 . S
O407 C414 1.247 . S
O408 Co406 2.091 . S
O408 C414 1.261 . S
C409 O418 1.247 . S
C409 O419 1.272 . S
O410 Co406 2.004 . S
O410 C415 1.259 . S
Co411 O412 2.061 . S
Co411 O417 2.052 . S
Co411 O419 2.135 . S
O412 Co411 2.061 . S
O412 C415 1.235 . S
C413 O416 1.238 . S
C413 O417 1.241 . S
C414 O407 1.247 . S
C414 O408 1.261 . S
C415 O410 1.259 . S
C415 O412 1.235 . S
O416 Co406 2.021 . S
O416 C413 1.238 . S
O417 Co411 2.052 . S
O417 C413 1.241 . S
O418 Co406 2.137 . S
O418 C409 1.247 . S
O419 Co406 2.244 . S
O419 C409 1.272 . S
O419 Co411 2.135 . S
Co420 O421 2.216 . S
Co420 O422 2.091 . S
Co420 O424 2.004 . S
Co420 O430 2.021 . S
Co420 O432 2.137 . S
Co420 O433 2.244 . S
O421 Co420 2.216 . S
O421 C428 1.247 . S
O422 Co420 2.091 . S
O422 C428 1.261 . S
C423 O432 1.247 . S
C423 O433 1.272 . S
O424 Co420 2.004 . S
O424 C429 1.259 . S
Co425 O426 2.061 . S
Co425 O431 2.052 . S
Co425 O433 2.135 . S
O426 Co425 2.061 . S
O426 C429 1.235 . S
C427 O430 1.238 . S
C427 O431 1.241 . S
C428 O421 1.247 . S
C428 O422 1.261 . S
C429 O424 1.259 . S
C429 O426 1.235 . S
O430 Co420 2.021 . S
O430 C427 1.238 . S
O431 Co425 2.052 . S
O431 C427 1.241 . S
O432 Co420 2.137 . S
O432 C423 1.247 . S
O433 Co420 2.244 . S
O433 C423 1.272 . S
O433 Co425 2.135 . S
Co434 O435 2.216 . S
Co434 O436 2.091 . S
Co434 O438 2.004 . S
Co434 O444 2.021 . S
Co434 O446 2.137 . S
Co434 O447 2.244 . S
O435 Co434 2.216 . S
O435 C442 1.247 . S
O436 Co434 2.091 . S
O436 C442 1.261 . S
C437 O446 1.247 . S
C437 O447 1.272 . S
O438 Co434 2.004 . S
O438 C443 1.259 . S
Co439 O440 2.061 . S
Co439 O445 2.052 . S
Co439 O447 2.135 . S
O440 Co439 2.061 . S
O440 C443 1.235 . S
C441 O444 1.238 . S
C441 O445 1.241 . S
C442 O435 1.247 . S
C442 O436 1.261 . S
C443 O438 1.259 . S
C443 O440 1.235 . S
O444 Co434 2.021 . S
O444 C441 1.238 . S
O445 Co439 2.052 . S
O445 C441 1.241 . S
O446 Co434 2.137 . S
O446 C437 1.247 . S
O447 Co434 2.244 . S
O447 C437 1.272 . S
O447 Co439 2.135 . S
H448 C466 0.951 . S
H449 C468 0.951 . S
H450 C470 0.950 . S
H451 C471 0.950 . S
H452 C473 0.950 . S
H453 C476 0.950 . S
H454 C477 0.950 . S
H455 C479 0.950 . S
H456 C480 0.950 . S
H457 C481 0.951 . S
H458 C483 0.951 . S
H459 C485 0.950 . S
H460 C486 0.950 . S
H461 C488 0.950 . S
H462 C491 0.950 . S
H463 C492 0.950 . S
H464 C494 0.950 . S
H465 C495 0.950 . S
C466 H448 0.951 . S
C466 C467 1.366 . S
C466 C468 1.388 . S
C467 C466 1.366 . S
C467 C471 1.385 . S
C468 H449 0.951 . S
C468 C466 1.388 . S
C468 C469 1.366 . S
C469 C468 1.366 . S
C469 C470 1.414 . S
C469 C472 1.499 . S
C470 H450 0.950 . S
C470 C469 1.414 . S
C470 C471 1.374 . S
C471 H451 0.950 . S
C471 C467 1.385 . S
C471 C470 1.374 . S
C472 C469 1.499 . S
C472 C473 1.373 . S
C472 C474 1.389 . S
C473 H452 0.950 . S
C473 C472 1.373 . S
C473 C489 1.377 . S
C474 C472 1.389 . S
C474 C475 1.524 . S
C474 C488 1.377 . S
C475 C474 1.524 . S
C475 C476 1.397 . S
C475 C480 1.363 . S
C476 H453 0.950 . S
C476 C475 1.397 . S
C476 C477 1.334 . S
C477 H454 0.950 . S
C477 C476 1.334 . S
C477 C478 1.287 . S
C478 C477 1.287 . S
C478 C479 1.524 . S
C478 H497 0.913 . S
C479 H455 0.950 . S
C479 C478 1.524 . S
C479 C480 1.415 . S
C480 H456 0.950 . S
C480 C475 1.363 . S
C480 C479 1.415 . S
C481 H457 0.951 . S
C481 C482 1.366 . S
C481 C483 1.388 . S
C482 C481 1.366 . S
C482 C486 1.385 . S
C483 H458 0.951 . S
C483 C481 1.388 . S
C483 C484 1.366 . S
C484 C483 1.366 . S
C484 C485 1.414 . S
C484 C487 1.499 . S
C485 H459 0.950 . S
C485 C484 1.414 . S
C485 C486 1.374 . S
C486 H460 0.950 . S
C486 C482 1.385 . S
C486 C485 1.374 . S
C487 C484 1.499 . S
C487 C488 1.373 . S
C487 C489 1.389 . S
C488 H461 0.950 . S
C488 C474 1.377 . S
C488 C487 1.373 . S
C489 C473 1.377 . S
C489 C487 1.389 . S
C489 C490 1.524 . S
C490 C489 1.524 . S
C490 C491 1.397 . S
C490 C495 1.363 . S
C491 H462 0.950 . S
C491 C490 1.397 . S
C491 C492 1.334 . S
C492 H463 0.950 . S
C492 C491 1.334 . S
C492 C493 1.287 . S
C493 C492 1.287 . S
C493 C494 1.524 . S
C493 H496 0.999 . S
C494 H464 0.950 . S
C494 C493 1.524 . S
C494 C495 1.415 . S
C495 H465 0.950 . S
C495 C490 1.363 . S
C495 C494 1.415 . S
H496 C493 0.999 . S
H497 C478 0.913 . S
H498 C516 0.951 . S
H499 C518 0.951 . S
H500 C520 0.950 . S
H501 C521 0.950 . S
H502 C523 0.950 . S
H503 C526 0.950 . S
H504 C527 0.950 . S
H505 C529 0.950 1_545 S
H506 C530 1.011 . S
H507 C531 0.951 . S
H508 C533 0.951 . S
H509 C535 0.950 . S
H510 C536 0.950 . S
H511 C538 0.950 . S
H512 C541 0.950 . S
H513 C542 0.950 . S
H514 C544 0.950 1_565 S
H515 C545 1.011 . S
C516 H498 0.951 . S
C516 C517 1.366 . S
C516 C518 1.388 . S
C517 C516 1.366 . S
C517 C521 1.385 . S
C518 H499 0.951 . S
C518 C516 1.388 . S
C518 C519 1.366 . S
C519 C518 1.366 . S
C519 C520 1.414 . S
C519 C522 1.499 . S
C520 H500 0.950 . S
C520 C519 1.414 . S
C520 C521 1.374 . S
C521 H501 0.950 . S
C521 C517 1.385 . S
C521 C520 1.374 . S
C522 C519 1.499 . S
C522 C523 1.373 . S
C522 C524 1.389 . S
C523 H502 0.950 . S
C523 C522 1.373 . S
C523 C539 1.377 1_565 S
C524 C522 1.389 . S
C524 C525 1.524 . S
C524 C538 1.377 1_565 S
C525 C524 1.524 . S
C525 C526 1.397 . S
C525 C530 1.320 1_565 S
C526 H503 0.950 . S
C526 C525 1.397 . S
C526 C527 1.334 . S
C527 H504 0.950 . S
C527 C526 1.334 . S
C527 C528 1.287 . S
C528 C527 1.287 . S
C528 C529 1.524 . S
C528 H547 0.913 . S
C529 H505 0.950 1_565 S
C529 C528 1.524 . S
C529 C530 1.402 1_565 S
C530 H506 1.011 . S
C530 C525 1.320 1_545 S
C530 C529 1.402 1_545 S
C531 H507 0.951 . S
C531 C532 1.366 . S
C531 C533 1.388 . S
C532 C531 1.366 . S
C532 C536 1.385 . S
C533 H508 0.951 . S
C533 C531 1.388 . S
C533 C534 1.366 . S
C534 C533 1.366 . S
C534 C535 1.414 . S
C534 C537 1.499 . S
C535 H509 0.950 . S
C535 C534 1.414 . S
C535 C536 1.374 . S
C536 H510 0.950 . S
C536 C532 1.385 . S
C536 C535 1.374 . S
C537 C534 1.499 . S
C537 C538 1.373 . S
C537 C539 1.389 . S
C538 H511 0.950 . S
C538 C524 1.377 1_545 S
C538 C537 1.373 . S
C539 C523 1.377 1_545 S
C539 C537 1.389 . S
C539 C540 1.524 . S
C540 C539 1.524 . S
C540 C541 1.397 . S
C540 C545 1.320 1_545 S
C541 H512 0.950 . S
C541 C540 1.397 . S
C541 C542 1.334 . S
C542 H513 0.950 . S
C542 C541 1.334 . S
C542 C543 1.287 . S
C543 C542 1.287 . S
C543 C544 1.524 . S
C543 H546 0.999 . S
C544 H514 0.950 1_545 S
C544 C543 1.524 . S
C544 C545 1.402 1_545 S
C545 H515 1.011 . S
C545 C540 1.320 1_565 S
C545 C544 1.402 1_565 S
H546 C543 0.999 . S
H547 C528 0.913 . S
H548 C566 0.951 . S
H549 C568 0.951 . S
H550 C570 0.950 . S
H551 C571 0.950 . S
H552 C573 0.950 . S
H553 C576 0.950 . S
H554 C577 0.950 . S
H555 C579 0.950 . S
H556 C580 0.950 . S
H557 C581 0.951 . S
H558 C583 0.951 . S
H559 C585 0.950 . S
H560 C586 0.950 . S
H561 C588 0.950 . S
H562 C591 0.950 . S
H563 C592 0.950 . S
H564 C594 0.950 . S
H565 C595 0.950 . S
C566 H548 0.951 . S
C566 C567 1.366 . S
C566 C568 1.388 . S
C567 C566 1.366 . S
C567 C571 1.385 . S
C568 H549 0.951 . S
C568 C566 1.388 . S
C568 C569 1.366 . S
C569 C568 1.366 . S
C569 C570 1.414 . S
C569 C572 1.499 . S
C570 H550 0.950 . S
C570 C569 1.414 . S
C570 C571 1.374 . S
C571 H551 0.950 . S
C571 C567 1.385 . S
C571 C570 1.374 . S
C572 C569 1.499 . S
C572 C573 1.373 . S
C572 C574 1.389 . S
C573 H552 0.950 . S
C573 C572 1.373 . S
C573 C589 1.377 . S
C574 C572 1.389 . S
C574 C575 1.524 . S
C574 C588 1.377 . S
C575 C574 1.524 . S
C575 C576 1.397 . S
C575 C580 1.363 . S
C576 H553 0.950 . S
C576 C575 1.397 . S
C576 C577 1.334 . S
C577 H554 0.950 . S
C577 C576 1.334 . S
C577 C578 1.287 . S
C578 C577 1.287 . S
C578 C579 1.524 . S
C578 H597 0.913 . S
C579 H555 0.950 . S
C579 C578 1.524 . S
C579 C580 1.415 . S
C580 H556 0.950 . S
C580 C575 1.363 . S
C580 C579 1.415 . S
C581 H557 0.951 . S
C581 C582 1.366 . S
C581 C583 1.388 . S
C582 C581 1.366 . S
C582 C586 1.385 . S
C583 H558 0.951 . S
C583 C581 1.388 . S
C583 C584 1.366 . S
C584 C583 1.366 . S
C584 C585 1.414 . S
C584 C587 1.499 . S
C585 H559 0.950 . S
C585 C584 1.414 . S
C585 C586 1.374 . S
C586 H560 0.950 . S
C586 C582 1.385 . S
C586 C585 1.374 . S
C587 C584 1.499 . S
C587 C588 1.373 . S
C587 C589 1.389 . S
C588 H561 0.950 . S
C588 C574 1.377 . S
C588 C587 1.373 . S
C589 C573 1.377 . S
C589 C587 1.389 . S
C589 C590 1.524 . S
C590 C589 1.524 . S
C590 C591 1.397 . S
C590 C595 1.363 . S
C591 H562 0.950 . S
C591 C590 1.397 . S
C591 C592 1.334 . S
C592 H563 0.950 . S
C592 C591 1.334 . S
C592 C593 1.287 . S
C593 C592 1.287 . S
C593 C594 1.524 . S
C593 H596 0.999 . S
C594 H564 0.950 . S
C594 C593 1.524 . S
C594 C595 1.415 . S
C595 H565 0.950 . S
C595 C590 1.363 . S
C595 C594 1.415 . S
H596 C593 0.999 . S
H597 C578 0.913 . S
H598 C616 0.951 . S
H599 C618 0.951 . S
H600 C620 0.950 . S
H601 C621 0.950 . S
H602 C623 0.950 . S
H603 C626 0.950 . S
H604 C627 0.950 . S
H605 C629 0.950 . S
H606 C630 0.950 . S
H607 C631 0.951 . S
H608 C633 0.951 . S
H609 C635 0.950 . S
H610 C636 0.950 . S
H611 C638 0.950 . S
H612 C641 0.950 . S
H613 C642 0.950 . S
H614 C644 0.950 . S
H615 C645 0.950 . S
C616 H598 0.951 . S
C616 C617 1.366 . S
C616 C618 1.388 . S
C617 C616 1.366 . S
C617 C621 1.385 . S
C618 H599 0.951 . S
C618 C616 1.388 . S
C618 C619 1.366 . S
C619 C618 1.366 . S
C619 C620 1.414 . S
C619 C622 1.499 . S
C620 H600 0.950 . S
C620 C619 1.414 . S
C620 C621 1.374 . S
C621 H601 0.950 . S
C621 C617 1.385 . S
C621 C620 1.374 . S
C622 C619 1.499 . S
C622 C623 1.373 1_556 S
C622 C624 1.389 . S
C623 H602 0.950 . S
C623 C622 1.373 1_554 S
C623 C639 1.377 1_545 S
C624 C622 1.389 . S
C624 C625 1.524 . S
C624 C638 1.377 1_545 S
C625 C624 1.524 . S
C625 C626 1.397 . S
C625 C630 1.363 . S
C626 H603 0.950 . S
C626 C625 1.397 . S
C626 C627 1.334 . S
C627 H604 0.950 . S
C627 C626 1.334 . S
C627 C628 1.287 . S
C628 C627 1.287 . S
C628 C629 1.524 . S
C628 H647 0.913 . S
C629 H605 0.950 . S
C629 C628 1.524 . S
C629 C630 1.415 . S
C630 H606 0.950 . S
C630 C625 1.363 . S
C630 C629 1.415 . S
C631 H607 0.951 . S
C631 C632 1.366 . S
C631 C633 1.388 . S
C632 C631 1.366 . S
C632 C636 1.385 . S
C633 H608 0.951 . S
C633 C631 1.388 . S
C633 C634 1.366 . S
C634 C633 1.366 . S
C634 C635 1.414 . S
C634 C637 1.499 . S
C635 H609 0.950 . S
C635 C634 1.414 . S
C635 C636 1.374 . S
C636 H610 0.950 . S
C636 C632 1.385 . S
C636 C635 1.374 . S
C637 C634 1.499 . S
C637 C638 1.373 1_554 S
C637 C639 1.389 . S
C638 H611 0.950 . S
C638 C624 1.377 1_565 S
C638 C637 1.373 1_556 S
C639 C623 1.377 1_565 S
C639 C637 1.389 . S
C639 C640 1.524 . S
C640 C639 1.524 . S
C640 C641 1.397 . S
C640 C645 1.363 . S
C641 H612 0.950 . S
C641 C640 1.397 . S
C641 C642 1.334 . S
C642 H613 0.950 . S
C642 C641 1.334 . S
C642 C643 1.287 . S
C643 C642 1.287 . S
C643 C644 1.524 . S
C643 H646 0.999 . S
C644 H614 0.950 . S
C644 C643 1.524 . S
C644 C645 1.415 . S
C645 H615 0.950 . S
C645 C640 1.363 . S
C645 C644 1.415 . S
H646 C643 0.999 . S
H647 C628 0.913 . S
H648 C666 0.951 . S
H649 C668 0.951 . S
H650 C670 0.950 . S
H651 C671 0.950 . S
H652 C673 0.950 . S
H653 C676 0.950 . S
H654 C677 0.950 . S
H655 C679 0.950 . S
H656 C680 0.950 . S
H657 C681 0.951 . S
H658 C683 0.951 . S
H659 C685 0.950 . S
H660 C686 0.950 . S
H661 C688 0.950 . S
H662 C691 0.950 . S
H663 C692 0.950 . S
H664 C694 0.950 . S
H665 C695 0.950 . S
C666 H648 0.951 . S
C666 C667 1.366 . S
C666 C668 1.388 . S
C667 C666 1.366 . S
C667 C671 1.385 . S
C668 H649 0.951 . S
C668 C666 1.388 . S
C668 C669 1.366 . S
C669 C668 1.366 . S
C669 C670 1.414 . S
C669 C672 1.499 . S
C670 H650 0.950 . S
C670 C669 1.414 . S
C670 C671 1.374 . S
C671 H651 0.950 . S
C671 C667 1.385 . S
C671 C670 1.374 . S
C672 C669 1.499 . S
C672 C673 1.373 . S
C672 C674 1.389 . S
C673 H652 0.950 . S
C673 C672 1.373 . S
C673 C689 1.377 . S
C674 C672 1.389 . S
C674 C675 1.524 . S
C674 C688 1.377 . S
C675 C674 1.524 . S
C675 C676 1.397 . S
C675 C680 1.363 . S
C676 H653 0.950 . S
C676 C675 1.397 . S
C676 C677 1.334 . S
C677 H654 0.950 . S
C677 C676 1.334 . S
C677 C678 1.287 . S
C678 C677 1.287 . S
C678 C679 1.524 . S
C678 H697 0.913 . S
C679 H655 0.950 . S
C679 C678 1.524 . S
C679 C680 1.415 . S
C680 H656 0.950 . S
C680 C675 1.363 . S
C680 C679 1.415 . S
C681 H657 0.951 . S
C681 C682 1.366 . S
C681 C683 1.388 . S
C682 C681 1.366 . S
C682 C686 1.385 . S
C683 H658 0.951 . S
C683 C681 1.388 . S
C683 C684 1.366 . S
C684 C683 1.366 . S
C684 C685 1.414 . S
C684 C687 1.499 . S
C685 H659 0.950 . S
C685 C684 1.414 . S
C685 C686 1.374 . S
C686 H660 0.950 . S
C686 C682 1.385 . S
C686 C685 1.374 . S
C687 C684 1.499 . S
C687 C688 1.373 . S
C687 C689 1.389 . S
C688 H661 0.950 . S
C688 C674 1.377 . S
C688 C687 1.373 . S
C689 C673 1.377 . S
C689 C687 1.389 . S
C689 C690 1.524 . S
C690 C689 1.524 . S
C690 C691 1.397 . S
C690 C695 1.363 . S
C691 H662 0.950 . S
C691 C690 1.397 . S
C691 C692 1.334 . S
C692 H663 0.950 . S
C692 C691 1.334 . S
C692 C693 1.287 . S
C693 C692 1.287 . S
C693 C694 1.524 . S
C693 H696 0.999 . S
C694 H664 0.950 . S
C694 C693 1.524 . S
C694 C695 1.415 . S
C695 H665 0.950 . S
C695 C690 1.363 . S
C695 C694 1.415 . S
H696 C693 0.999 . S
H697 C678 0.913 . S
H698 C716 0.951 . S
H699 C718 0.951 . S
H700 C720 0.950 . S
H701 C721 0.950 . S
H702 C723 0.950 . S
H703 C726 0.950 . S
H704 C727 0.950 . S
H705 C729 0.950 . S
H706 C730 1.022 . S
H707 C731 0.951 . S
H708 C733 0.951 . S
H709 C735 0.950 . S
H710 C736 0.950 . S
H711 C738 0.950 . S
H712 C741 0.950 . S
H713 C742 0.950 . S
H714 C744 0.950 . S
H715 C745 1.022 . S
C716 H698 0.951 . S
C716 C717 1.366 . S
C716 C718 1.388 . S
C717 C716 1.366 . S
C717 C721 1.385 . S
C718 H699 0.951 . S
C718 C716 1.388 . S
C718 C719 1.366 . S
C719 C718 1.366 . S
C719 C720 1.414 . S
C719 C722 1.499 . S
C720 H700 0.950 . S
C720 C719 1.414 . S
C720 C721 1.374 . S
C721 H701 0.950 . S
C721 C717 1.385 . S
C721 C720 1.374 . S
C722 C719 1.499 . S
C722 C723 1.373 . S
C722 C724 1.389 . S
C723 H702 0.950 . S
C723 C722 1.373 . S
C723 C739 1.377 1_565 S
C724 C722 1.389 . S
C724 C725 1.524 . S
C724 C738 1.377 1_565 S
C725 C724 1.524 . S
C725 C726 1.397 . S
C725 C730 1.363 . S
C726 H703 0.950 . S
C726 C725 1.397 . S
C726 C727 1.334 . S
C727 H704 0.950 . S
C727 C726 1.334 . S
C727 C728 1.287 . S
C728 C727 1.287 . S
C728 C729 1.524 . S
C728 H747 0.913 . S
C729 H705 0.950 . S
C729 C728 1.524 . S
C729 C730 1.415 . S
C730 H706 1.022 . S
C730 C725 1.363 . S
C730 C729 1.415 . S
C731 H707 0.951 . S
C731 C732 1.366 . S
C731 C733 1.388 . S
C732 C731 1.366 . S
C732 C736 1.385 . S
C733 H708 0.951 . S
C733 C731 1.388 . S
C733 C734 1.366 . S
C734 C733 1.366 . S
C734 C735 1.414 . S
C734 C737 1.499 . S
C735 H709 0.950 . S
C735 C734 1.414 . S
C735 C736 1.374 . S
C736 H710 0.950 . S
C736 C732 1.385 . S
C736 C735 1.374 . S
C737 C734 1.499 . S
C737 C738 1.373 . S
C737 C739 1.389 . S
C738 H711 0.950 . S
C738 C724 1.377 1_545 S
C738 C737 1.373 . S
C739 C723 1.377 1_545 S
C739 C737 1.389 . S
C739 C740 1.524 . S
C740 C739 1.524 . S
C740 C741 1.397 . S
C740 C745 1.363 . S
C741 H712 0.950 . S
C741 C740 1.397 . S
C741 C742 1.334 . S
C742 H713 0.950 . S
C742 C741 1.334 . S
C742 C743 1.287 . S
C743 C742 1.287 . S
C743 C744 1.524 . S
C743 H746 0.999 . S
C744 H714 0.950 . S
C744 C743 1.524 . S
C744 C745 1.415 . S
C745 H715 1.022 . S
C745 C740 1.363 . S
C745 C744 1.415 . S
H746 C743 0.999 . S
H747 C728 0.913 . S
H748 C766 0.951 . S
H749 C768 0.951 . S
H750 C770 0.950 . S
H751 C771 0.950 . S
H752 C773 0.950 . S
H753 C776 0.950 . S
H754 C777 0.950 . S
H755 C779 0.950 . S
H756 C780 0.950 . S
H757 C781 0.951 . S
H758 C783 0.951 . S
H759 C785 0.950 . S
H760 C786 0.950 . S
H761 C788 0.950 . S
H762 C791 0.950 . S
H763 C792 0.950 . S
H764 C794 0.950 . S
H765 C795 0.950 . S
C766 H748 0.951 . S
C766 C767 1.366 . S
C766 C768 1.388 . S
C767 C766 1.366 . S
C767 C771 1.385 . S
C768 H749 0.951 . S
C768 C766 1.388 . S
C768 C769 1.366 . S
C769 C768 1.366 . S
C769 C770 1.414 . S
C769 C772 1.499 . S
C770 H750 0.950 . S
C770 C769 1.414 . S
C770 C771 1.374 . S
C771 H751 0.950 . S
C771 C767 1.385 . S
C771 C770 1.374 . S
C772 C769 1.499 . S
C772 C773 1.373 . S
C772 C774 1.389 . S
C773 H752 0.950 . S
C773 C772 1.373 . S
C773 C789 1.377 . S
C774 C772 1.389 . S
C774 C775 1.524 . S
C774 C788 1.377 . S
C775 C774 1.524 . S
C775 C776 1.397 . S
C775 C780 1.363 . S
C776 H753 0.950 . S
C776 C775 1.397 . S
C776 C777 1.334 . S
C777 H754 0.950 . S
C777 C776 1.334 . S
C777 C778 1.287 . S
C778 C777 1.287 . S
C778 C779 1.524 . S
C778 H797 0.913 . S
C779 H755 0.950 . S
C779 C778 1.524 . S
C779 C780 1.415 . S
C780 H756 0.950 . S
C780 C775 1.363 . S
C780 C779 1.415 . S
C781 H757 0.951 . S
C781 C782 1.366 . S
C781 C783 1.388 . S
C782 C781 1.366 . S
C782 C786 1.385 . S
C783 H758 0.951 . S
C783 C781 1.388 . S
C783 C784 1.366 . S
C784 C783 1.366 . S
C784 C785 1.414 . S
C784 C787 1.499 . S
C785 H759 0.950 . S
C785 C784 1.414 . S
C785 C786 1.374 . S
C786 H760 0.950 . S
C786 C782 1.385 . S
C786 C785 1.374 . S
C787 C784 1.499 . S
C787 C788 1.373 . S
C787 C789 1.389 . S
C788 H761 0.950 . S
C788 C774 1.377 . S
C788 C787 1.373 . S
C789 C773 1.377 . S
C789 C787 1.389 . S
C789 C790 1.524 . S
C790 C789 1.524 . S
C790 C791 1.397 . S
C790 C795 1.363 . S
C791 H762 0.950 . S
C791 C790 1.397 . S
C791 C792 1.334 . S
C792 H763 0.950 . S
C792 C791 1.334 . S
C792 C793 1.287 . S
C793 C792 1.287 . S
C793 C794 1.524 . S
C793 H796 0.999 . S
C794 H764 0.950 . S
C794 C793 1.524 . S
C794 C795 1.415 . S
C795 H765 0.950 . S
C795 C790 1.363 . S
C795 C794 1.415 . S
H796 C793 0.999 . S
H797 C778 0.913 . S
H798 C816 0.951 . S
H799 C818 0.951 . S
H800 C820 0.950 . S
H801 C821 0.950 . S
H802 C823 0.950 . S
H803 C826 0.950 . S
H804 C827 0.950 . S
H805 C829 0.950 . S
H806 C830 0.950 . S
H807 C831 0.951 . S
H808 C833 0.951 . S
H809 C835 0.950 . S
H810 C836 0.950 . S
H811 C838 0.950 . S
H812 C841 0.950 . S
H813 C842 0.950 . S
H814 C844 0.950 . S
H815 C845 0.950 . S
C816 H798 0.951 . S
C816 C817 1.366 . S
C816 C818 1.388 . S
C817 C816 1.366 . S
C817 C821 1.385 . S
C818 H799 0.951 . S
C818 C816 1.388 . S
C818 C819 1.366 . S
C819 C818 1.366 . S
C819 C820 1.414 . S
C819 C822 1.499 . S
C820 H800 0.950 . S
C820 C819 1.414 . S
C820 C821 1.374 . S
C821 H801 0.950 . S
C821 C817 1.385 . S
C821 C820 1.374 . S
C822 C819 1.499 . S
C822 C823 1.373 . S
C822 C824 1.389 1_556 S
C823 H802 0.950 . S
C823 C822 1.373 . S
C823 C839 1.377 1_545 S
C824 C822 1.389 1_554 S
C824 C825 1.524 . S
C824 C838 1.377 1_545 S
C825 C824 1.524 . S
C825 C826 1.397 . S
C825 C830 1.363 . S
C826 H803 0.950 . S
C826 C825 1.397 . S
C826 C827 1.334 . S
C827 H804 0.950 . S
C827 C826 1.334 . S
C827 C828 1.287 . S
C828 C827 1.287 . S
C828 C829 1.524 . S
C828 H847 0.913 . S
C829 H805 0.950 . S
C829 C828 1.524 . S
C829 C830 1.415 . S
C830 H806 0.950 . S
C830 C825 1.363 . S
C830 C829 1.415 . S
C831 H807 0.951 . S
C831 C832 1.366 . S
C831 C833 1.388 . S
C832 C831 1.366 . S
C832 C836 1.385 . S
C833 H808 0.951 . S
C833 C831 1.388 . S
C833 C834 1.366 . S
C834 C833 1.366 . S
C834 C835 1.414 . S
C834 C837 1.499 . S
C835 H809 0.950 . S
C835 C834 1.414 . S
C835 C836 1.374 . S
C836 H810 0.950 . S
C836 C832 1.385 . S
C836 C835 1.374 . S
C837 C834 1.499 . S
C837 C838 1.373 . S
C837 C839 1.389 1_554 S
C838 H811 0.950 . S
C838 C824 1.377 1_565 S
C838 C837 1.373 . S
C839 C823 1.377 1_565 S
C839 C837 1.389 1_556 S
C839 C840 1.524 . S
C840 C839 1.524 . S
C840 C841 1.397 . S
C840 C845 1.363 . S
C841 H812 0.950 . S
C841 C840 1.397 . S
C841 C842 1.334 . S
C842 H813 0.950 . S
C842 C841 1.334 . S
C842 C843 1.287 . S
C843 C842 1.287 . S
C843 C844 1.524 . S
C843 H846 0.999 . S
C844 H814 0.950 . S
C844 C843 1.524 . S
C844 C845 1.415 . S
C845 H815 0.950 . S
C845 C840 1.363 . S
C845 C844 1.415 . S
H846 C843 0.999 . S
H847 C828 0.913 . S
H848 C866 0.951 . S
H849 C868 0.951 . S
H850 C870 0.950 . S
H851 C871 0.950 . S
H852 C873 0.950 . S
H853 C876 0.950 . S
H854 C877 0.950 . S
H855 C879 0.950 . S
H856 C880 0.950 . S
H857 C881 0.951 . S
H858 C883 0.951 . S
H859 C885 0.950 . S
H860 C886 0.950 . S
H861 C888 0.950 . S
H862 C891 0.950 . S
H863 C892 0.950 . S
H864 C894 0.950 . S
H865 C895 0.950 . S
C866 H848 0.951 . S
C866 C867 1.366 . S
C866 C868 1.388 . S
C867 C866 1.366 . S
C867 C871 1.385 . S
C868 H849 0.951 . S
C868 C866 1.388 . S
C868 C869 1.366 . S
C869 C868 1.366 . S
C869 C870 1.414 . S
C869 C872 1.499 . S
C870 H850 0.950 . S
C870 C869 1.414 . S
C870 C871 1.374 . S
C871 H851 0.950 . S
C871 C867 1.385 . S
C871 C870 1.374 . S
C872 C869 1.499 . S
C872 C873 1.373 . S
C872 C874 1.389 . S
C873 H852 0.950 . S
C873 C872 1.373 . S
C873 C889 1.377 . S
C874 C872 1.389 . S
C874 C875 1.524 . S
C874 C888 1.377 . S
C875 C874 1.524 . S
C875 C876 1.397 . S
C875 C880 1.363 . S
C876 H853 0.950 . S
C876 C875 1.397 . S
C876 C877 1.334 . S
C877 H854 0.950 . S
C877 C876 1.334 . S
C877 C878 1.287 . S
C878 C877 1.287 . S
C878 C879 1.524 . S
C878 H897 0.913 . S
C879 H855 0.950 . S
C879 C878 1.524 . S
C879 C880 1.415 . S
C880 H856 0.950 . S
C880 C875 1.363 . S
C880 C879 1.415 . S
C881 H857 0.951 . S
C881 C882 1.366 . S
C881 C883 1.388 . S
C882 C881 1.366 . S
C882 C886 1.385 . S
C883 H858 0.951 . S
C883 C881 1.388 . S
C883 C884 1.366 . S
C884 C883 1.366 . S
C884 C885 1.414 . S
C884 C887 1.499 . S
C885 H859 0.950 . S
C885 C884 1.414 . S
C885 C886 1.374 . S
C886 H860 0.950 . S
C886 C882 1.385 . S
C886 C885 1.374 . S
C887 C884 1.499 . S
C887 C888 1.373 . S
C887 C889 1.389 . S
C888 H861 0.950 . S
C888 C874 1.377 . S
C888 C887 1.373 . S
C889 C873 1.377 . S
C889 C887 1.389 . S
C889 C890 1.524 . S
C890 C889 1.524 . S
C890 C891 1.397 . S
C890 C895 1.363 . S
C891 H862 0.950 . S
C891 C890 1.397 . S
C891 C892 1.334 . S
C892 H863 0.950 . S
C892 C891 1.334 . S
C892 C893 1.287 . S
C893 C892 1.287 . S
C893 C894 1.524 . S
C893 H896 0.999 . S
C894 H864 0.950 . S
C894 C893 1.524 . S
C894 C895 1.415 . S
C895 H865 0.950 . S
C895 C890 1.363 . S
C895 C894 1.415 . S
H896 C893 0.999 . S
H897 C878 0.913 . S
H898 C916 0.951 . S
H899 C918 0.951 . S
H900 C920 0.950 . S
H901 C921 0.950 . S
H902 C923 0.950 . S
H903 C926 0.950 . S
H904 C927 0.950 . S
H905 C929 0.950 . S
H906 C930 0.950 . S
H907 C931 0.951 . S
H908 C933 0.951 . S
H909 C935 0.950 . S
H910 C936 0.950 . S
H911 C938 0.950 . S
H912 C941 0.950 . S
H913 C942 0.950 . S
H914 C944 0.950 . S
H915 C945 0.950 . S
C916 H898 0.951 . S
C916 C917 1.366 . S
C916 C918 1.388 . S
C917 C916 1.366 . S
C917 C921 1.385 . S
C918 H899 0.951 . S
C918 C916 1.388 . S
C918 C919 1.366 . S
C919 C918 1.366 . S
C919 C920 1.414 . S
C919 C922 1.499 . S
C920 H900 0.950 . S
C920 C919 1.414 . S
C920 C921 1.374 . S
C921 H901 0.950 . S
C921 C917 1.385 . S
C921 C920 1.374 . S
C922 C919 1.499 . S
C922 C923 1.373 1_556 S
C922 C924 1.389 . S
C923 H902 0.950 . S
C923 C922 1.373 1_554 S
C923 C939 1.377 . S
C924 C922 1.389 . S
C924 C925 1.524 . S
C924 C938 1.377 . S
C925 C924 1.524 . S
C925 C926 1.397 . S
C925 C930 1.363 . S
C926 H903 0.950 . S
C926 C925 1.397 . S
C926 C927 1.334 . S
C927 H904 0.950 . S
C927 C926 1.334 . S
C927 C928 1.287 . S
C928 C927 1.287 . S
C928 C929 1.524 . S
C928 H947 0.913 . S
C929 H905 0.950 . S
C929 C928 1.524 . S
C929 C930 1.415 . S
C930 H906 0.950 . S
C930 C925 1.363 . S
C930 C929 1.415 . S
C931 H907 0.951 . S
C931 C932 1.366 . S
C931 C933 1.388 . S
C932 C931 1.366 . S
C932 C936 1.385 . S
C933 H908 0.951 . S
C933 C931 1.388 . S
C933 C934 1.366 . S
C934 C933 1.366 . S
C934 C935 1.414 . S
C934 C937 1.499 . S
C935 H909 0.950 . S
C935 C934 1.414 . S
C935 C936 1.374 . S
C936 H910 0.950 . S
C936 C932 1.385 . S
C936 C935 1.374 . S
C937 C934 1.499 . S
C937 C938 1.373 1_554 S
C937 C939 1.389 . S
C938 H911 0.950 . S
C938 C924 1.377 . S
C938 C937 1.373 1_556 S
C939 C923 1.377 . S
C939 C937 1.389 . S
C939 C940 1.524 . S
C940 C939 1.524 . S
C940 C941 1.397 . S
C940 C945 1.363 . S
C941 H912 0.950 . S
C941 C940 1.397 . S
C941 C942 1.334 . S
C942 H913 0.950 . S
C942 C941 1.334 . S
C942 C943 1.287 . S
C943 C942 1.287 . S
C943 C944 1.524 . S
C943 H946 0.999 . S
C944 H914 0.950 . S
C944 C943 1.524 . S
C944 C945 1.415 . S
C945 H915 0.950 . S
C945 C940 1.363 . S
C945 C944 1.415 . S
H946 C943 0.999 . S
H947 C928 0.913 . S
H948 C966 0.951 . S
H949 C968 0.951 . S
H950 C970 0.950 . S
H951 C971 0.950 . S
H952 C973 0.950 . S
H953 C976 0.950 . S
H954 C977 0.950 . S
H955 C979 0.950 . S
H956 C980 0.950 . S
H957 C981 0.951 . S
H958 C983 0.951 . S
H959 C985 0.950 . S
H960 C986 0.950 . S
H961 C988 0.950 . S
H962 C991 0.950 . S
H963 C992 0.950 . S
H964 C994 0.950 . S
H965 C995 0.950 . S
C966 H948 0.951 . S
C966 C967 1.366 . S
C966 C968 1.388 . S
C967 C966 1.366 . S
C967 C971 1.385 . S
C968 H949 0.951 . S
C968 C966 1.388 . S
C968 C969 1.366 . S
C969 C968 1.366 . S
C969 C970 1.414 . S
C969 C972 1.499 . S
C970 H950 0.950 . S
C970 C969 1.414 . S
C970 C971 1.374 . S
C971 H951 0.950 . S
C971 C967 1.385 . S
C971 C970 1.374 . S
C972 C969 1.499 . S
C972 C973 1.373 . S
C972 C974 1.389 . S
C973 H952 0.950 . S
C973 C972 1.373 . S
C973 C989 1.377 . S
C974 C972 1.389 . S
C974 C975 1.524 . S
C974 C988 1.377 . S
C975 C974 1.524 . S
C975 C976 1.397 . S
C975 C980 1.363 . S
C976 H953 0.950 . S
C976 C975 1.397 . S
C976 C977 1.334 . S
C977 H954 0.950 . S
C977 C976 1.334 . S
C977 C978 1.287 . S
C978 C977 1.287 . S
C978 C979 1.524 . S
C978 H997 0.913 . S
C979 H955 0.950 . S
C979 C978 1.524 . S
C979 C980 1.415 . S
C980 H956 0.950 . S
C980 C975 1.363 . S
C980 C979 1.415 . S
C981 H957 0.951 . S
C981 C982 1.366 . S
C981 C983 1.388 . S
C982 C981 1.366 . S
C982 C986 1.385 . S
C983 H958 0.951 . S
C983 C981 1.388 . S
C983 C984 1.366 . S
C984 C983 1.366 . S
C984 C985 1.414 . S
C984 C987 1.499 . S
C985 H959 0.950 . S
C985 C984 1.414 . S
C985 C986 1.374 . S
C986 H960 0.950 . S
C986 C982 1.385 . S
C986 C985 1.374 . S
C987 C984 1.499 . S
C987 C988 1.373 . S
C987 C989 1.389 . S
C988 H961 0.950 . S
C988 C974 1.377 . S
C988 C987 1.373 . S
C989 C973 1.377 . S
C989 C987 1.389 . S
C989 C990 1.524 . S
C990 C989 1.524 . S
C990 C991 1.397 . S
C990 C995 1.363 . S
C991 H962 0.950 . S
C991 C990 1.397 . S
C991 C992 1.334 . S
C992 H963 0.950 . S
C992 C991 1.334 . S
C992 C993 1.287 . S
C993 C992 1.287 . S
C993 C994 1.524 . S
C993 H996 0.999 . S
C994 H964 0.950 . S
C994 C993 1.524 . S
C994 C995 1.415 . S
C995 H965 0.950 . S
C995 C990 1.363 . S
C995 C994 1.415 . S
H996 C993 0.999 . S
H997 C978 0.913 . S
H998 C1016 0.951 . S
H999 C1018 0.951 . S
H1000 C1020 0.950 . S
H1001 C1021 0.950 . S
H1002 C1023 0.950 . S
H1003 C1026 0.950 . S
H1004 C1027 0.950 . S
H1005 C1029 0.950 . S
H1006 C1030 0.950 . S
H1007 C1031 0.951 . S
H1008 C1033 0.951 . S
H1009 C1035 0.950 . S
H1010 C1036 0.950 . S
H1011 C1038 0.950 . S
H1012 C1041 0.950 . S
H1013 C1042 0.950 . S
H1014 C1044 0.950 . S
H1015 C1045 0.950 . S
C1016 H998 0.951 . S
C1016 C1017 1.366 . S
C1016 C1018 1.388 . S
C1017 C1016 1.366 . S
C1017 C1021 1.385 . S
C1018 H999 0.951 . S
C1018 C1016 1.388 . S
C1018 C1019 1.366 . S
C1019 C1018 1.366 . S
C1019 C1020 1.414 . S
C1019 C1022 1.499 . S
C1020 H1000 0.950 . S
C1020 C1019 1.414 . S
C1020 C1021 1.374 . S
C1021 H1001 0.950 . S
C1021 C1017 1.385 . S
C1021 C1020 1.374 . S
C1022 C1019 1.499 . S
C1022 C1023 1.373 . S
C1022 C1024 1.389 . S
C1023 H1002 0.950 . S
C1023 C1022 1.373 . S
C1023 C1039 1.377 . S
C1024 C1022 1.389 . S
C1024 C1025 1.524 . S
C1024 C1038 1.377 . S
C1025 C1024 1.524 . S
C1025 C1026 1.397 . S
C1025 C1030 1.363 . S
C1026 H1003 0.950 . S
C1026 C1025 1.397 . S
C1026 C1027 1.334 . S
C1027 H1004 0.950 . S
C1027 C1026 1.334 . S
C1027 C1028 1.287 . S
C1028 C1027 1.287 . S
C1028 C1029 1.524 . S
C1028 H1047 0.913 . S
C1029 H1005 0.950 . S
C1029 C1028 1.524 . S
C1029 C1030 1.415 . S
C1030 H1006 0.950 . S
C1030 C1025 1.363 . S
C1030 C1029 1.415 . S
C1031 H1007 0.951 . S
C1031 C1032 1.366 . S
C1031 C1033 1.388 . S
C1032 C1031 1.366 . S
C1032 C1036 1.385 . S
C1033 H1008 0.951 . S
C1033 C1031 1.388 . S
C1033 C1034 1.366 . S
C1034 C1033 1.366 . S
C1034 C1035 1.414 . S
C1034 C1037 1.499 . S
C1035 H1009 0.950 . S
C1035 C1034 1.414 . S
C1035 C1036 1.374 . S
C1036 H1010 0.950 . S
C1036 C1032 1.385 . S
C1036 C1035 1.374 . S
C1037 C1034 1.499 . S
C1037 C1038 1.373 . S
C1037 C1039 1.389 . S
C1038 H1011 0.950 . S
C1038 C1024 1.377 . S
C1038 C1037 1.373 . S
C1039 C1023 1.377 . S
C1039 C1037 1.389 . S
C1039 C1040 1.524 . S
C1040 C1039 1.524 . S
C1040 C1041 1.397 . S
C1040 C1045 1.363 . S
C1041 H1012 0.950 . S
C1041 C1040 1.397 . S
C1041 C1042 1.334 . S
C1042 H1013 0.950 . S
C1042 C1041 1.334 . S
C1042 C1043 1.287 . S
C1043 C1042 1.287 . S
C1043 C1044 1.524 . S
C1043 H1046 0.999 . S
C1044 H1014 0.950 . S
C1044 C1043 1.524 . S
C1044 C1045 1.415 . S
C1045 H1015 0.950 . S
C1045 C1040 1.363 . S
C1045 C1044 1.415 . S
H1046 C1043 0.999 . S
H1047 C1028 0.913 . S
H1048 C1066 0.951 . S
H1049 C1068 0.951 . S
H1050 C1070 0.950 . S
H1051 C1071 0.950 . S
H1052 C1073 0.950 . S
H1053 C1076 0.950 . S
H1054 C1077 0.950 . S
H1055 C1079 0.950 . S
H1056 C1080 0.950 . S
H1057 C1081 0.951 . S
H1058 C1083 0.951 . S
H1059 C1085 0.950 . S
H1060 C1086 0.950 . S
H1061 C1088 0.950 . S
H1062 C1091 0.950 . S
H1063 C1092 0.950 . S
H1064 C1094 0.950 . S
H1065 C1095 0.950 . S
C1066 H1048 0.951 . S
C1066 C1067 1.366 . S
C1066 C1068 1.388 . S
C1067 C1066 1.366 . S
C1067 C1071 1.385 . S
C1068 H1049 0.951 . S
C1068 C1066 1.388 . S
C1068 C1069 1.366 . S
C1069 C1068 1.366 . S
C1069 C1070 1.414 . S
C1069 C1072 1.499 . S
C1070 H1050 0.950 . S
C1070 C1069 1.414 . S
C1070 C1071 1.374 . S
C1071 H1051 0.950 . S
C1071 C1067 1.385 . S
C1071 C1070 1.374 . S
C1072 C1069 1.499 . S
C1072 C1073 1.373 . S
C1072 C1074 1.389 . S
C1073 H1052 0.950 . S
C1073 C1072 1.373 . S
C1073 C1089 1.377 . S
C1074 C1072 1.389 . S
C1074 C1075 1.524 . S
C1074 C1088 1.377 . S
C1075 C1074 1.524 . S
C1075 C1076 1.397 . S
C1075 C1080 1.363 . S
C1076 H1053 0.950 . S
C1076 C1075 1.397 . S
C1076 C1077 1.334 . S
C1077 H1054 0.950 . S
C1077 C1076 1.334 . S
C1077 C1078 1.287 . S
C1078 C1077 1.287 . S
C1078 C1079 1.524 . S
C1078 H1097 0.913 . S
C1079 H1055 0.950 . S
C1079 C1078 1.524 . S
C1079 C1080 1.415 . S
C1080 H1056 0.950 . S
C1080 C1075 1.363 . S
C1080 C1079 1.415 . S
C1081 H1057 0.951 . S
C1081 C1082 1.366 . S
C1081 C1083 1.388 . S
C1082 C1081 1.366 . S
C1082 C1086 1.385 . S
C1083 H1058 0.951 . S
C1083 C1081 1.388 . S
C1083 C1084 1.366 . S
C1084 C1083 1.366 . S
C1084 C1085 1.414 . S
C1084 C1087 1.499 . S
C1085 H1059 0.950 . S
C1085 C1084 1.414 . S
C1085 C1086 1.374 . S
C1086 H1060 0.950 . S
C1086 C1082 1.385 . S
C1086 C1085 1.374 . S
C1087 C1084 1.499 . S
C1087 C1088 1.373 . S
C1087 C1089 1.389 . S
C1088 H1061 0.950 . S
C1088 C1074 1.377 . S
C1088 C1087 1.373 . S
C1089 C1073 1.377 . S
C1089 C1087 1.389 . S
C1089 C1090 1.524 . S
C1090 C1089 1.524 . S
C1090 C1091 1.397 . S
C1090 C1095 1.363 . S
C1091 H1062 0.950 . S
C1091 C1090 1.397 . S
C1091 C1092 1.334 . S
C1092 H1063 0.950 . S
C1092 C1091 1.334 . S
C1092 C1093 1.287 . S
C1093 C1092 1.287 . S
C1093 C1094 1.524 . S
C1093 H1096 0.999 . S
C1094 H1064 0.950 . S
C1094 C1093 1.524 . S
C1094 C1095 1.415 . S
C1095 H1065 0.950 . S
C1095 C1090 1.363 . S
C1095 C1094 1.415 . S
H1096 C1093 0.999 . S
H1097 C1078 0.913 . S
H1098 C1116 0.951 . S
H1099 C1118 0.951 1_556 S
H1100 C1120 0.950 . S
H1101 C1121 0.950 . S
H1102 C1123 0.950 . S
H1103 C1126 0.950 . S
H1104 C1127 0.950 . S
H1105 C1129 0.950 . S
H1106 C1130 0.950 . S
H1107 C1131 0.951 . S
H1108 C1133 0.951 1_554 S
H1109 C1135 0.950 . S
H1110 C1136 0.950 . S
H1111 C1138 0.950 . S
H1112 C1141 0.950 . S
H1113 C1142 0.950 . S
H1114 C1144 0.950 . S
H1115 C1145 0.950 . S
C1116 H1098 0.951 . S
C1116 C1117 1.366 . S
C1116 C1118 1.388 . S
C1117 C1116 1.366 . S
C1117 C1121 1.385 . S
C1118 H1099 0.951 1_554 S
C1118 C1116 1.388 . S
C1118 C1119 1.366 . S
C1119 C1118 1.366 . S
C1119 C1120 1.414 . S
C1119 C1122 1.499 . S
C1120 H1100 0.950 . S
C1120 C1119 1.414 . S
C1120 C1121 1.374 . S
C1121 H1101 0.950 . S
C1121 C1117 1.385 . S
C1121 C1120 1.374 . S
C1122 C1119 1.499 . S
C1122 C1123 1.373 . S
C1122 C1124 1.389 1_554 S
C1123 H1102 0.950 . S
C1123 C1122 1.373 . S
C1123 C1139 1.377 . S
C1124 C1122 1.389 1_556 S
C1124 C1125 1.524 . S
C1124 C1138 1.377 . S
C1125 C1124 1.524 . S
C1125 C1126 1.397 1_556 S
C1125 C1130 1.363 . S
C1126 H1103 0.950 . S
C1126 C1125 1.397 1_554 S
C1126 C1127 1.334 . S
C1127 H1104 0.950 . S
C1127 C1126 1.334 . S
C1127 C1128 1.287 1_554 S
C1128 C1127 1.287 1_556 S
C1128 C1129 1.524 . S
C1128 H1147 0.913 . S
C1129 H1105 0.950 . S
C1129 C1128 1.524 . S
C1129 C1130 1.415 . S
C1130 H1106 0.950 . S
C1130 C1125 1.363 . S
C1130 C1129 1.415 . S
C1131 H1107 0.951 . S
C1131 C1132 1.366 . S
C1131 C1133 1.388 . S
C1132 C1131 1.366 . S
C1132 C1136 1.385 . S
C1133 H1108 0.951 1_556 S
C1133 C1131 1.388 . S
C1133 C1134 1.366 . S
C1134 C1133 1.366 . S
C1134 C1135 1.414 . S
C1134 C1137 1.499 . S
C1135 H1109 0.950 . S
C1135 C1134 1.414 . S
C1135 C1136 1.374 . S
C1136 H1110 0.950 . S
C1136 C1132 1.385 . S
C1136 C1135 1.374 . S
C1137 C1134 1.499 . S
C1137 C1138 1.373 . S
C1137 C1139 1.389 1_556 S
C1138 H1111 0.950 . S
C1138 C1124 1.377 . S
C1138 C1137 1.373 . S
C1139 C1123 1.377 . S
C1139 C1137 1.389 1_554 S
C1139 C1140 1.524 . S
C1140 C1139 1.524 . S
C1140 C1141 1.397 1_554 S
C1140 C1145 1.363 . S
C1141 H1112 0.950 . S
C1141 C1140 1.397 1_556 S
C1141 C1142 1.334 . S
C1142 H1113 0.950 . S
C1142 C1141 1.334 . S
C1142 C1143 1.287 1_556 S
C1143 C1142 1.287 1_554 S
C1143 C1144 1.524 . S
C1143 H1146 0.999 . S
C1144 H1114 0.950 . S
C1144 C1143 1.524 . S
C1144 C1145 1.415 . S
C1145 H1115 0.950 . S
C1145 C1140 1.363 . S
C1145 C1144 1.415 . S
H1146 C1143 0.999 . S
H1147 C1128 0.913 . S
H1148 C1166 0.951 . S
H1149 C1168 0.951 . S
H1150 C1170 0.950 . S
H1151 C1171 0.950 . S
H1152 C1173 0.950 . S
H1153 C1176 0.950 . S
H1154 C1177 0.950 . S
H1155 C1179 0.950 . S
H1156 C1180 0.950 . S
H1157 C1181 0.951 . S
H1158 C1183 0.951 . S
H1159 C1185 0.950 . S
H1160 C1186 0.950 . S
H1161 C1188 0.950 . S
H1162 C1191 0.950 . S
H1163 C1192 0.950 . S
H1164 C1194 0.950 . S
H1165 C1195 0.950 . S
C1166 H1148 0.951 . S
C1166 C1167 1.366 . S
C1166 C1168 1.388 . S
C1167 C1166 1.366 . S
C1167 C1171 1.385 . S
C1168 H1149 0.951 . S
C1168 C1166 1.388 . S
C1168 C1169 1.366 . S
C1169 C1168 1.366 . S
C1169 C1170 1.414 . S
C1169 C1172 1.499 . S
C1170 H1150 0.950 . S
C1170 C1169 1.414 . S
C1170 C1171 1.374 . S
C1171 H1151 0.950 . S
C1171 C1167 1.385 . S
C1171 C1170 1.374 . S
C1172 C1169 1.499 . S
C1172 C1173 1.373 . S
C1172 C1174 1.389 . S
C1173 H1152 0.950 . S
C1173 C1172 1.373 . S
C1173 C1189 1.377 . S
C1174 C1172 1.389 . S
C1174 C1175 1.524 . S
C1174 C1188 1.377 . S
C1175 C1174 1.524 . S
C1175 C1176 1.397 . S
C1175 C1180 1.363 . S
C1176 H1153 0.950 . S
C1176 C1175 1.397 . S
C1176 C1177 1.334 . S
C1177 H1154 0.950 . S
C1177 C1176 1.334 . S
C1177 C1178 1.287 . S
C1178 C1177 1.287 . S
C1178 C1179 1.524 . S
C1178 H1197 0.913 . S
C1179 H1155 0.950 . S
C1179 C1178 1.524 . S
C1179 C1180 1.415 . S
C1180 H1156 0.950 . S
C1180 C1175 1.363 . S
C1180 C1179 1.415 . S
C1181 H1157 0.951 . S
C1181 C1182 1.366 . S
C1181 C1183 1.388 . S
C1182 C1181 1.366 . S
C1182 C1186 1.385 . S
C1183 H1158 0.951 . S
C1183 C1181 1.388 . S
C1183 C1184 1.366 . S
C1184 C1183 1.366 . S
C1184 C1185 1.414 . S
C1184 C1187 1.499 . S
C1185 H1159 0.950 . S
C1185 C1184 1.414 . S
C1185 C1186 1.374 . S
C1186 H1160 0.950 . S
C1186 C1182 1.385 . S
C1186 C1185 1.374 . S
C1187 C1184 1.499 . S
C1187 C1188 1.373 . S
C1187 C1189 1.389 . S
C1188 H1161 0.950 . S
C1188 C1174 1.377 . S
C1188 C1187 1.373 . S
C1189 C1173 1.377 . S
C1189 C1187 1.389 . S
C1189 C1190 1.524 . S
C1190 C1189 1.524 . S
C1190 C1191 1.397 . S
C1190 C1195 1.363 . S
C1191 H1162 0.950 . S
C1191 C1190 1.397 . S
C1191 C1192 1.334 . S
C1192 H1163 0.950 . S
C1192 C1191 1.334 . S
C1192 C1193 1.287 . S
C1193 C1192 1.287 . S
C1193 C1194 1.524 . S
C1193 H1196 0.999 . S
C1194 H1164 0.950 . S
C1194 C1193 1.524 . S
C1194 C1195 1.415 . S
C1195 H1165 0.950 . S
C1195 C1190 1.363 . S
C1195 C1194 1.415 . S
H1196 C1193 0.999 . S
H1197 C1178 0.913 . S
H1198 C1216 0.951 . S
H1199 C1218 0.951 . S
H1200 C1220 0.950 . S
H1201 C1221 0.950 . S
H1202 C1223 0.950 . S
H1203 C1226 0.950 . S
H1204 C1227 0.950 . S
H1205 C1229 0.950 . S
H1206 C1230 0.950 . S
H1207 C1231 0.951 . S
H1208 C1233 0.951 . S
H1209 C1235 0.950 . S
H1210 C1236 0.950 . S
H1211 C1238 0.950 . S
H1212 C1241 0.950 . S
H1213 C1242 0.950 . S
H1214 C1244 0.950 . S
H1215 C1245 0.950 . S
C1216 H1198 0.951 . S
C1216 C1217 1.366 . S
C1216 C1218 1.388 . S
C1217 C1216 1.366 . S
C1217 C1221 1.385 . S
C1218 H1199 0.951 . S
C1218 C1216 1.388 . S
C1218 C1219 1.366 . S
C1219 C1218 1.366 . S
C1219 C1220 1.414 . S
C1219 C1222 1.499 . S
C1220 H1200 0.950 . S
C1220 C1219 1.414 . S
C1220 C1221 1.374 . S
C1221 H1201 0.950 . S
C1221 C1217 1.385 . S
C1221 C1220 1.374 . S
C1222 C1219 1.499 . S
C1222 C1223 1.373 . S
C1222 C1224 1.389 . S
C1223 H1202 0.950 . S
C1223 C1222 1.373 . S
C1223 C1239 1.377 . S
C1224 C1222 1.389 . S
C1224 C1225 1.524 . S
C1224 C1238 1.377 . S
C1225 C1224 1.524 . S
C1225 C1226 1.397 . S
C1225 C1230 1.363 . S
C1226 H1203 0.950 . S
C1226 C1225 1.397 . S
C1226 C1227 1.334 . S
C1227 H1204 0.950 . S
C1227 C1226 1.334 . S
C1227 C1228 1.287 . S
C1228 C1227 1.287 . S
C1228 C1229 1.524 . S
C1228 H1247 0.913 . S
C1229 H1205 0.950 . S
C1229 C1228 1.524 . S
C1229 C1230 1.415 . S
C1230 H1206 0.950 . S
C1230 C1225 1.363 . S
C1230 C1229 1.415 . S
C1231 H1207 0.951 . S
C1231 C1232 1.366 . S
C1231 C1233 1.388 . S
C1232 C1231 1.366 . S
C1232 C1236 1.385 . S
C1233 H1208 0.951 . S
C1233 C1231 1.388 . S
C1233 C1234 1.366 . S
C1234 C1233 1.366 . S
C1234 C1235 1.414 . S
C1234 C1237 1.499 . S
C1235 H1209 0.950 . S
C1235 C1234 1.414 . S
C1235 C1236 1.374 . S
C1236 H1210 0.950 . S
C1236 C1232 1.385 . S
C1236 C1235 1.374 . S
C1237 C1234 1.499 . S
C1237 C1238 1.373 . S
C1237 C1239 1.389 . S
C1238 H1211 0.950 . S
C1238 C1224 1.377 . S
C1238 C1237 1.373 . S
C1239 C1223 1.377 . S
C1239 C1237 1.389 . S
C1239 C1240 1.524 . S
C1240 C1239 1.524 . S
C1240 C1241 1.397 . S
C1240 C1245 1.363 . S
C1241 H1212 0.950 . S
C1241 C1240 1.397 . S
C1241 C1242 1.334 . S
C1242 H1213 0.950 . S
C1242 C1241 1.334 . S
C1242 C1243 1.287 . S
C1243 C1242 1.287 . S
C1243 C1244 1.524 . S
C1243 H1246 0.999 . S
C1244 H1214 0.950 . S
C1244 C1243 1.524 . S
C1244 C1245 1.415 . S
C1245 H1215 0.950 . S
C1245 C1240 1.363 . S
C1245 C1244 1.415 . S
H1246 C1243 0.999 . S
H1247 C1228 0.913 . S
H1248 C1266 0.951 . S
H1249 C1268 0.951 . S
H1250 C1270 0.950 . S
H1251 C1271 0.950 . S
H1252 C1273 0.950 . S
H1253 C1276 0.950 . S
H1254 C1277 0.950 . S
H1255 C1279 0.950 . S
H1256 C1280 0.950 . S
H1257 C1281 0.951 . S
H1258 C1283 0.951 . S
H1259 C1285 0.950 . S
H1260 C1286 0.950 . S
H1261 C1288 0.950 . S
H1262 C1291 0.950 . S
H1263 C1292 0.950 . S
H1264 C1294 0.950 . S
H1265 C1295 0.950 . S
C1266 H1248 0.951 . S
C1266 C1267 1.366 . S
C1266 C1268 1.388 1_554 S
C1267 C1266 1.366 . S
C1267 C1271 1.385 1_554 S
C1268 H1249 0.951 . S
C1268 C1266 1.388 1_556 S
C1268 C1269 1.366 . S
C1269 C1268 1.366 . S
C1269 C1270 1.414 . S
C1269 C1272 1.499 . S
C1270 H1250 0.950 . S
C1270 C1269 1.414 . S
C1270 C1271 1.374 . S
C1271 H1251 0.950 . S
C1271 C1267 1.385 1_556 S
C1271 C1270 1.374 . S
C1272 C1269 1.499 . S
C1272 C1273 1.373 . S
C1272 C1274 1.389 . S
C1273 H1252 0.950 . S
C1273 C1272 1.373 . S
C1273 C1289 1.377 . S
C1274 C1272 1.389 . S
C1274 C1275 1.524 . S
C1274 C1288 1.377 . S
C1275 C1274 1.524 . S
C1275 C1276 1.397 . S
C1275 C1280 1.363 . S
C1276 H1253 0.950 . S
C1276 C1275 1.397 . S
C1276 C1277 1.334 . S
C1277 H1254 0.950 . S
C1277 C1276 1.334 . S
C1277 C1278 1.287 . S
C1278 C1277 1.287 . S
C1278 C1279 1.524 . S
C1278 H1297 0.913 . S
C1279 H1255 0.950 . S
C1279 C1278 1.524 . S
C1279 C1280 1.415 . S
C1280 H1256 0.950 . S
C1280 C1275 1.363 . S
C1280 C1279 1.415 . S
C1281 H1257 0.951 . S
C1281 C1282 1.366 . S
C1281 C1283 1.388 . S
C1282 C1281 1.366 . S
C1282 C1286 1.385 . S
C1283 H1258 0.951 . S
C1283 C1281 1.388 . S
C1283 C1284 1.366 . S
C1284 C1283 1.366 . S
C1284 C1285 1.414 . S
C1284 C1287 1.499 . S
C1285 H1259 0.950 . S
C1285 C1284 1.414 . S
C1285 C1286 1.374 . S
C1286 H1260 0.950 . S
C1286 C1282 1.385 . S
C1286 C1285 1.374 . S
C1287 C1284 1.499 . S
C1287 C1288 1.373 . S
C1287 C1289 1.389 . S
C1288 H1261 0.950 . S
C1288 C1274 1.377 . S
C1288 C1287 1.373 . S
C1289 C1273 1.377 . S
C1289 C1287 1.389 . S
C1289 C1290 1.524 . S
C1290 C1289 1.524 . S
C1290 C1291 1.397 . S
C1290 C1295 1.363 . S
C1291 H1262 0.950 . S
C1291 C1290 1.397 . S
C1291 C1292 1.334 . S
C1292 H1263 0.950 . S
C1292 C1291 1.334 . S
C1292 C1293 1.287 . S
C1293 C1292 1.287 . S
C1293 C1294 1.524 . S
C1293 H1296 0.999 . S
C1294 H1264 0.950 . S
C1294 C1293 1.524 . S
C1294 C1295 1.415 . S
C1295 H1265 0.950 . S
C1295 C1290 1.363 . S
C1295 C1294 1.415 . S
H1296 C1293 0.999 . S
H1297 C1278 0.913 . S
H1298 C1316 0.951 . S
H1299 C1318 0.951 . S
H1300 C1320 0.950 . S
H1301 C1321 0.950 . S
H1302 C1323 0.950 . S
H1303 C1326 0.950 . S
H1304 C1327 0.950 . S
H1305 C1329 0.950 . S
H1306 C1330 0.950 . S
H1307 C1331 0.951 . S
H1308 C1333 0.951 . S
H1309 C1335 0.950 . S
H1310 C1336 0.950 . S
H1311 C1338 0.950 . S
H1312 C1341 0.950 . S
H1313 C1342 0.950 . S
H1314 C1344 0.950 . S
H1315 C1345 0.950 . S
C1316 H1298 0.951 . S
C1316 C1317 1.366 . S
C1316 C1318 1.388 1_556 S
C1317 C1316 1.366 . S
C1317 C1321 1.385 1_556 S
C1318 H1299 0.951 . S
C1318 C1316 1.388 1_554 S
C1318 C1319 1.366 . S
C1319 C1318 1.366 . S
C1319 C1320 1.414 . S
C1319 C1322 1.499 . S
C1320 H1300 0.950 . S
C1320 C1319 1.414 . S
C1320 C1321 1.374 . S
C1321 H1301 0.950 . S
C1321 C1317 1.385 1_554 S
C1321 C1320 1.374 . S
C1322 C1319 1.499 . S
C1322 C1323 1.373 . S
C1322 C1324 1.389 . S
C1323 H1302 0.950 . S
C1323 C1322 1.373 . S
C1323 C1339 1.377 . S
C1324 C1322 1.389 . S
C1324 C1325 1.524 . S
C1324 C1338 1.377 . S
C1325 C1324 1.524 . S
C1325 C1326 1.397 . S
C1325 C1330 1.363 . S
C1326 H1303 0.950 . S
C1326 C1325 1.397 . S
C1326 C1327 1.334 . S
C1327 H1304 0.950 . S
C1327 C1326 1.334 . S
C1327 C1328 1.287 . S
C1328 C1327 1.287 . S
C1328 C1329 1.524 . S
C1328 H1347 0.913 . S
C1329 H1305 0.950 . S
C1329 C1328 1.524 . S
C1329 C1330 1.415 . S
C1330 H1306 0.950 . S
C1330 C1325 1.363 . S
C1330 C1329 1.415 . S
C1331 H1307 0.951 . S
C1331 C1332 1.366 . S
C1331 C1333 1.388 . S
C1332 C1331 1.366 . S
C1332 C1336 1.385 . S
C1333 H1308 0.951 . S
C1333 C1331 1.388 . S
C1333 C1334 1.366 . S
C1334 C1333 1.366 . S
C1334 C1335 1.414 . S
C1334 C1337 1.499 . S
C1335 H1309 0.950 . S
C1335 C1334 1.414 . S
C1335 C1336 1.374 . S
C1336 H1310 0.950 . S
C1336 C1332 1.385 . S
C1336 C1335 1.374 . S
C1337 C1334 1.499 . S
C1337 C1338 1.373 . S
C1337 C1339 1.389 . S
C1338 H1311 0.950 . S
C1338 C1324 1.377 . S
C1338 C1337 1.373 . S
C1339 C1323 1.377 . S
C1339 C1337 1.389 . S
C1339 C1340 1.524 . S
C1340 C1339 1.524 . S
C1340 C1341 1.397 . S
C1340 C1345 1.363 . S
C1341 H1312 0.950 . S
C1341 C1340 1.397 . S
C1341 C1342 1.334 . S
C1342 H1313 0.950 . S
C1342 C1341 1.334 . S
C1342 C1343 1.287 . S
C1343 C1342 1.287 . S
C1343 C1344 1.524 . S
C1343 H1346 0.999 . S
C1344 H1314 0.950 . S
C1344 C1343 1.524 . S
C1344 C1345 1.415 . S
C1345 H1315 0.950 . S
C1345 C1340 1.363 . S
C1345 C1344 1.415 . S
H1346 C1343 0.999 . S
H1347 C1328 0.913 . S
H1348 C1366 0.951 . S
H1349 C1368 0.951 . S
H1350 C1370 0.950 . S
H1351 C1371 0.950 . S
H1352 C1373 0.950 . S
H1353 C1376 0.950 . S
H1354 C1377 0.950 . S
H1355 C1379 0.950 . S
H1356 C1380 0.950 . S
H1357 C1381 0.951 . S
H1358 C1383 0.951 . S
H1359 C1385 0.950 . S
H1360 C1386 0.950 . S
H1361 C1388 0.950 . S
H1362 C1391 0.950 . S
H1363 C1392 0.950 . S
H1364 C1394 0.950 . S
H1365 C1395 0.950 . S
C1366 H1348 0.951 . S
C1366 C1367 1.366 . S
C1366 C1368 1.388 . S
C1367 C1366 1.366 . S
C1367 C1371 1.385 . S
C1368 H1349 0.951 . S
C1368 C1366 1.388 . S
C1368 C1369 1.366 . S
C1369 C1368 1.366 . S
C1369 C1370 1.414 . S
C1369 C1372 1.499 . S
C1370 H1350 0.950 . S
C1370 C1369 1.414 . S
C1370 C1371 1.374 . S
C1371 H1351 0.950 . S
C1371 C1367 1.385 . S
C1371 C1370 1.374 . S
C1372 C1369 1.499 . S
C1372 C1373 1.373 . S
C1372 C1374 1.389 . S
C1373 H1352 0.950 . S
C1373 C1372 1.373 . S
C1373 C1389 1.377 . S
C1374 C1372 1.389 . S
C1374 C1375 1.524 . S
C1374 C1388 1.377 . S
C1375 C1374 1.524 . S
C1375 C1376 1.397 . S
C1375 C1380 1.363 . S
C1376 H1353 0.950 . S
C1376 C1375 1.397 . S
C1376 C1377 1.334 . S
C1377 H1354 0.950 . S
C1377 C1376 1.334 . S
C1377 C1378 1.287 . S
C1378 C1377 1.287 . S
C1378 C1379 1.524 . S
C1378 H1397 0.913 . S
C1379 H1355 0.950 . S
C1379 C1378 1.524 . S
C1379 C1380 1.415 . S
C1380 H1356 0.950 . S
C1380 C1375 1.363 . S
C1380 C1379 1.415 . S
C1381 H1357 0.951 . S
C1381 C1382 1.366 . S
C1381 C1383 1.388 . S
C1382 C1381 1.366 . S
C1382 C1386 1.385 . S
C1383 H1358 0.951 . S
C1383 C1381 1.388 . S
C1383 C1384 1.366 . S
C1384 C1383 1.366 . S
C1384 C1385 1.414 . S
C1384 C1387 1.499 . S
C1385 H1359 0.950 . S
C1385 C1384 1.414 . S
C1385 C1386 1.374 . S
C1386 H1360 0.950 . S
C1386 C1382 1.385 . S
C1386 C1385 1.374 . S
C1387 C1384 1.499 . S
C1387 C1388 1.373 . S
C1387 C1389 1.389 . S
C1388 H1361 0.950 . S
C1388 C1374 1.377 . S
C1388 C1387 1.373 . S
C1389 C1373 1.377 . S
C1389 C1387 1.389 . S
C1389 C1390 1.524 . S
C1390 C1389 1.524 . S
C1390 C1391 1.397 . S
C1390 C1395 1.363 . S
C1391 H1362 0.950 . S
C1391 C1390 1.397 . S
C1391 C1392 1.334 . S
C1392 H1363 0.950 . S
C1392 C1391 1.334 . S
C1392 C1393 1.287 . S
C1393 C1392 1.287 . S
C1393 C1394 1.524 . S
C1393 H1396 0.999 . S
C1394 H1364 0.950 . S
C1394 C1393 1.524 . S
C1394 C1395 1.415 . S
C1395 H1365 0.950 . S
C1395 C1390 1.363 . S
C1395 C1394 1.415 . S
H1396 C1393 0.999 . S
H1397 C1378 0.913 . S
H1398 C1416 0.951 . S
H1399 C1418 0.951 . S
H1400 C1420 0.950 . S
H1401 C1421 0.950 . S
H1402 C1423 0.950 . S
H1403 C1426 0.950 . S
H1404 C1427 0.950 . S
H1405 C1429 0.950 . S
H1406 C1430 0.950 . S
H1407 C1431 0.951 . S
H1408 C1433 0.951 . S
H1409 C1435 0.950 . S
H1410 C1436 0.950 . S
H1411 C1438 0.950 . S
H1412 C1441 0.950 . S
H1413 C1442 0.950 . S
H1414 C1444 0.950 . S
H1415 C1445 0.950 . S
C1416 H1398 0.951 . S
C1416 C1417 1.366 . S
C1416 C1418 1.388 . S
C1417 C1416 1.366 . S
C1417 C1421 1.385 . S
C1418 H1399 0.951 . S
C1418 C1416 1.388 . S
C1418 C1419 1.366 . S
C1419 C1418 1.366 . S
C1419 C1420 1.414 . S
C1419 C1422 1.499 . S
C1420 H1400 0.950 . S
C1420 C1419 1.414 . S
C1420 C1421 1.374 . S
C1421 H1401 0.950 . S
C1421 C1417 1.385 . S
C1421 C1420 1.374 . S
C1422 C1419 1.499 . S
C1422 C1423 1.373 . S
C1422 C1424 1.389 . S
C1423 H1402 0.950 . S
C1423 C1422 1.373 . S
C1423 C1439 1.377 . S
C1424 C1422 1.389 . S
C1424 C1425 1.524 . S
C1424 C1438 1.377 . S
C1425 C1424 1.524 . S
C1425 C1426 1.397 . S
C1425 C1430 1.363 . S
C1426 H1403 0.950 . S
C1426 C1425 1.397 . S
C1426 C1427 1.334 . S
C1427 H1404 0.950 . S
C1427 C1426 1.334 . S
C1427 C1428 1.287 . S
C1428 C1427 1.287 . S
C1428 C1429 1.524 . S
C1428 H1447 0.913 . S
C1429 H1405 0.950 . S
C1429 C1428 1.524 . S
C1429 C1430 1.415 . S
C1430 H1406 0.950 . S
C1430 C1425 1.363 . S
C1430 C1429 1.415 . S
C1431 H1407 0.951 . S
C1431 C1432 1.366 . S
C1431 C1433 1.388 . S
C1432 C1431 1.366 . S
C1432 C1436 1.385 . S
C1433 H1408 0.951 . S
C1433 C1431 1.388 . S
C1433 C1434 1.366 . S
C1434 C1433 1.366 . S
C1434 C1435 1.414 . S
C1434 C1437 1.499 . S
C1435 H1409 0.950 . S
C1435 C1434 1.414 . S
C1435 C1436 1.374 . S
C1436 H1410 0.950 . S
C1436 C1432 1.385 . S
C1436 C1435 1.374 . S
C1437 C1434 1.499 . S
C1437 C1438 1.373 . S
C1437 C1439 1.389 . S
C1438 H1411 0.950 . S
C1438 C1424 1.377 . S
C1438 C1437 1.373 . S
C1439 C1423 1.377 . S
C1439 C1437 1.389 . S
C1439 C1440 1.524 . S
C1440 C1439 1.524 . S
C1440 C1441 1.397 . S
C1440 C1445 1.363 . S
C1441 H1412 0.950 . S
C1441 C1440 1.397 . S
C1441 C1442 1.334 . S
C1442 H1413 0.950 . S
C1442 C1441 1.334 . S
C1442 C1443 1.287 . S
C1443 C1442 1.287 . S
C1443 C1444 1.524 . S
C1443 H1446 0.999 . S
C1444 H1414 0.950 . S
C1444 C1443 1.524 . S
C1444 C1445 1.415 . S
C1445 H1415 0.950 . S
C1445 C1440 1.363 . S
C1445 C1444 1.415 . S
H1446 C1443 0.999 . S
H1447 C1428 0.913 . S
H1448 C1466 0.951 . S
H1449 C1468 0.951 . S
H1450 C1470 0.950 . S
H1451 C1471 0.950 . S
H1452 C1473 0.950 . S
H1453 C1476 0.950 . S
H1454 C1477 0.950 . S
H1455 C1479 0.950 . S
H1456 C1480 0.950 . S
H1457 C1481 0.951 . S
H1458 C1483 0.951 . S
H1459 C1485 0.950 . S
H1460 C1486 0.950 . S
H1461 C1488 0.950 . S
H1462 C1491 0.950 . S
H1463 C1492 0.950 . S
H1464 C1494 0.950 . S
H1465 C1495 0.950 . S
C1466 H1448 0.951 . S
C1466 C1467 1.366 1_554 S
C1466 C1468 1.388 . S
C1467 C1466 1.366 1_556 S
C1467 C1471 1.385 . S
C1468 H1449 0.951 . S
C1468 C1466 1.388 . S
C1468 C1469 1.366 . S
C1469 C1468 1.366 . S
C1469 C1470 1.414 . S
C1469 C1472 1.499 . S
C1470 H1450 0.950 . S
C1470 C1469 1.414 . S
C1470 C1471 1.374 1_554 S
C1471 H1451 0.950 . S
C1471 C1467 1.385 . S
C1471 C1470 1.374 1_556 S
C1472 C1469 1.499 . S
C1472 C1473 1.373 . S
C1472 C1474 1.389 . S
C1473 H1452 0.950 . S
C1473 C1472 1.373 . S
C1473 C1489 1.377 . S
C1474 C1472 1.389 . S
C1474 C1475 1.524 . S
C1474 C1488 1.377 . S
C1475 C1474 1.524 . S
C1475 C1476 1.397 . S
C1475 C1480 1.363 . S
C1476 H1453 0.950 . S
C1476 C1475 1.397 . S
C1476 C1477 1.334 1_554 S
C1477 H1454 0.950 . S
C1477 C1476 1.334 1_556 S
C1477 C1478 1.287 1_556 S
C1478 C1477 1.287 1_554 S
C1478 C1479 1.524 . S
C1478 H1497 0.913 1_554 S
C1479 H1455 0.950 . S
C1479 C1478 1.524 . S
C1479 C1480 1.415 . S
C1480 H1456 0.950 . S
C1480 C1475 1.363 . S
C1480 C1479 1.415 . S
C1481 H1457 0.951 . S
C1481 C1482 1.366 . S
C1481 C1483 1.388 . S
C1482 C1481 1.366 . S
C1482 C1486 1.385 . S
C1483 H1458 0.951 . S
C1483 C1481 1.388 . S
C1483 C1484 1.366 . S
C1484 C1483 1.366 . S
C1484 C1485 1.414 . S
C1484 C1487 1.499 . S
C1485 H1459 0.950 . S
C1485 C1484 1.414 . S
C1485 C1486 1.374 . S
C1486 H1460 0.950 . S
C1486 C1482 1.385 . S
C1486 C1485 1.374 . S
C1487 C1484 1.499 . S
C1487 C1488 1.373 . S
C1487 C1489 1.389 . S
C1488 H1461 0.950 . S
C1488 C1474 1.377 . S
C1488 C1487 1.373 . S
C1489 C1473 1.377 . S
C1489 C1487 1.389 . S
C1489 C1490 1.524 . S
C1490 C1489 1.524 . S
C1490 C1491 1.397 . S
C1490 C1495 1.363 . S
C1491 H1462 0.950 . S
C1491 C1490 1.397 . S
C1491 C1492 1.334 . S
C1492 H1463 0.950 . S
C1492 C1491 1.334 . S
C1492 C1493 1.287 . S
C1493 C1492 1.287 . S
C1493 C1494 1.524 . S
C1493 H1496 0.999 . S
C1494 H1464 0.950 . S
C1494 C1493 1.524 . S
C1494 C1495 1.415 . S
C1495 H1465 0.950 . S
C1495 C1490 1.363 . S
C1495 C1494 1.415 . S
H1496 C1493 0.999 . S
H1497 C1478 0.913 1_556 S
H1498 C1516 0.951 . S
H1499 C1518 0.951 . S
H1500 C1520 0.950 . S
H1501 C1521 0.950 . S
H1502 C1523 0.950 . S
H1503 C1526 0.950 . S
H1504 C1527 0.950 . S
H1505 C1529 0.950 . S
H1506 C1530 0.950 . S
H1507 C1531 0.951 . S
H1508 C1533 0.951 . S
H1509 C1535 0.950 . S
H1510 C1536 0.950 . S
H1511 C1538 0.950 . S
H1512 C1541 0.950 . S
H1513 C1542 0.950 . S
H1514 C1544 0.950 . S
H1515 C1545 0.950 . S
C1516 H1498 0.951 . S
C1516 C1517 1.366 . S
C1516 C1518 1.388 1_554 S
C1517 C1516 1.366 . S
C1517 C1521 1.385 1_554 S
C1518 H1499 0.951 . S
C1518 C1516 1.388 1_556 S
C1518 C1519 1.366 . S
C1519 C1518 1.366 . S
C1519 C1520 1.414 . S
C1519 C1522 1.499 . S
C1520 H1500 0.950 . S
C1520 C1519 1.414 . S
C1520 C1521 1.374 . S
C1521 H1501 0.950 . S
C1521 C1517 1.385 1_556 S
C1521 C1520 1.374 . S
C1522 C1519 1.499 . S
C1522 C1523 1.373 . S
C1522 C1524 1.389 . S
C1523 H1502 0.950 . S
C1523 C1522 1.373 . S
C1523 C1539 1.377 . S
C1524 C1522 1.389 . S
C1524 C1525 1.524 . S
C1524 C1538 1.377 . S
C1525 C1524 1.524 . S
C1525 C1526 1.397 . S
C1525 C1530 1.363 . S
C1526 H1503 0.950 . S
C1526 C1525 1.397 . S
C1526 C1527 1.334 . S
C1527 H1504 0.950 . S
C1527 C1526 1.334 . S
C1527 C1528 1.287 . S
C1528 C1527 1.287 . S
C1528 C1529 1.524 . S
C1528 H1547 0.913 . S
C1529 H1505 0.950 . S
C1529 C1528 1.524 . S
C1529 C1530 1.415 . S
C1530 H1506 0.950 . S
C1530 C1525 1.363 . S
C1530 C1529 1.415 . S
C1531 H1507 0.951 . S
C1531 C1532 1.366 . S
C1531 C1533 1.388 . S
C1532 C1531 1.366 . S
C1532 C1536 1.385 . S
C1533 H1508 0.951 . S
C1533 C1531 1.388 . S
C1533 C1534 1.366 . S
C1534 C1533 1.366 . S
C1534 C1535 1.414 . S
C1534 C1537 1.499 . S
C1535 H1509 0.950 . S
C1535 C1534 1.414 . S
C1535 C1536 1.374 . S
C1536 H1510 0.950 . S
C1536 C1532 1.385 . S
C1536 C1535 1.374 . S
C1537 C1534 1.499 . S
C1537 C1538 1.373 . S
C1537 C1539 1.389 . S
C1538 H1511 0.950 . S
C1538 C1524 1.377 . S
C1538 C1537 1.373 . S
C1539 C1523 1.377 . S
C1539 C1537 1.389 . S
C1539 C1540 1.524 . S
C1540 C1539 1.524 . S
C1540 C1541 1.397 . S
C1540 C1545 1.363 . S
C1541 H1512 0.950 . S
C1541 C1540 1.397 . S
C1541 C1542 1.334 . S
C1542 H1513 0.950 . S
C1542 C1541 1.334 . S
C1542 C1543 1.287 . S
C1543 C1542 1.287 . S
C1543 C1544 1.524 . S
C1543 H1546 0.999 . S
C1544 H1514 0.950 . S
C1544 C1543 1.524 . S
C1544 C1545 1.415 . S
C1545 H1515 0.950 . S
C1545 C1540 1.363 . S
C1545 C1544 1.415 . S
H1546 C1543 0.999 . S
H1547 C1528 0.913 . S
H1548 C1566 0.951 . S
H1549 C1568 0.951 . S
H1550 C1570 0.950 . S
H1551 C1571 0.950 . S
H1552 C1573 0.950 . S
H1553 C1576 0.950 . S
H1554 C1577 0.950 . S
H1555 C1579 0.950 . S
H1556 C1580 0.950 . S
H1557 C1581 0.951 . S
H1558 C1583 0.951 . S
H1559 C1585 0.950 . S
H1560 C1586 0.950 . S
H1561 C1588 0.950 . S
H1562 C1591 0.950 . S
H1563 C1592 0.950 . S
H1564 C1594 0.950 . S
H1565 C1595 0.950 . S
C1566 H1548 0.951 . S
C1566 C1567 1.366 . S
C1566 C1568 1.388 . S
C1567 C1566 1.366 . S
C1567 C1571 1.385 . S
C1568 H1549 0.951 . S
C1568 C1566 1.388 . S
C1568 C1569 1.366 . S
C1569 C1568 1.366 . S
C1569 C1570 1.414 . S
C1569 C1572 1.499 . S
C1570 H1550 0.950 . S
C1570 C1569 1.414 . S
C1570 C1571 1.374 . S
C1571 H1551 0.950 . S
C1571 C1567 1.385 . S
C1571 C1570 1.374 . S
C1572 C1569 1.499 . S
C1572 C1573 1.373 . S
C1572 C1574 1.389 . S
C1573 H1552 0.950 . S
C1573 C1572 1.373 . S
C1573 C1589 1.377 . S
C1574 C1572 1.389 . S
C1574 C1575 1.524 . S
C1574 C1588 1.377 . S
C1575 C1574 1.524 . S
C1575 C1576 1.397 . S
C1575 C1580 1.363 . S
C1576 H1553 0.950 . S
C1576 C1575 1.397 . S
C1576 C1577 1.334 . S
C1577 H1554 0.950 . S
C1577 C1576 1.334 . S
C1577 C1578 1.287 . S
C1578 C1577 1.287 . S
C1578 C1579 1.524 . S
C1578 H1597 0.913 . S
C1579 H1555 0.950 . S
C1579 C1578 1.524 . S
C1579 C1580 1.415 . S
C1580 H1556 0.950 . S
C1580 C1575 1.363 . S
C1580 C1579 1.415 . S
C1581 H1557 0.951 . S
C1581 C1582 1.366 . S
C1581 C1583 1.388 . S
C1582 C1581 1.366 . S
C1582 C1586 1.385 . S
C1583 H1558 0.951 . S
C1583 C1581 1.388 . S
C1583 C1584 1.366 . S
C1584 C1583 1.366 . S
C1584 C1585 1.414 . S
C1584 C1587 1.499 . S
C1585 H1559 0.950 . S
C1585 C1584 1.414 . S
C1585 C1586 1.374 . S
C1586 H1560 0.950 . S
C1586 C1582 1.385 . S
C1586 C1585 1.374 . S
C1587 C1584 1.499 . S
C1587 C1588 1.373 . S
C1587 C1589 1.389 . S
C1588 H1561 0.950 . S
C1588 C1574 1.377 . S
C1588 C1587 1.373 . S
C1589 C1573 1.377 . S
C1589 C1587 1.389 . S
C1589 C1590 1.524 . S
C1590 C1589 1.524 . S
C1590 C1591 1.397 . S
C1590 C1595 1.363 . S
C1591 H1562 0.950 . S
C1591 C1590 1.397 . S
C1591 C1592 1.334 . S
C1592 H1563 0.950 . S
C1592 C1591 1.334 . S
C1592 C1593 1.287 . S
C1593 C1592 1.287 . S
C1593 C1594 1.524 . S
C1593 H1596 0.999 . S
C1594 H1564 0.950 . S
C1594 C1593 1.524 . S
C1594 C1595 1.415 . S
C1595 H1565 0.950 . S
C1595 C1590 1.363 . S
C1595 C1594 1.415 . S
H1596 C1593 0.999 . S
H1597 C1578 0.913 . S
H1598 C1616 0.951 . S
H1599 C1618 0.951 . S
H1600 C1620 0.950 . S
H1601 C1621 0.950 . S
H1602 C1623 0.950 . S
H1603 C1626 0.950 . S
H1604 C1627 0.950 . S
H1605 C1629 0.950 . S
H1606 C1630 0.950 . S
H1607 C1631 0.951 . S
H1608 C1633 0.951 . S
H1609 C1635 0.950 . S
H1610 C1636 0.950 . S
H1611 C1638 0.950 . S
H1612 C1641 0.950 . S
H1613 C1642 0.950 . S
H1614 C1644 0.950 . S
H1615 C1645 0.950 . S
C1616 H1598 0.951 . S
C1616 C1617 1.366 . S
C1616 C1618 1.388 . S
C1617 C1616 1.366 . S
C1617 C1621 1.385 . S
C1618 H1599 0.951 . S
C1618 C1616 1.388 . S
C1618 C1619 1.366 . S
C1619 C1618 1.366 . S
C1619 C1620 1.414 . S
C1619 C1622 1.499 . S
C1620 H1600 0.950 . S
C1620 C1619 1.414 . S
C1620 C1621 1.374 . S
C1621 H1601 0.950 . S
C1621 C1617 1.385 . S
C1621 C1620 1.374 . S
C1622 C1619 1.499 . S
C1622 C1623 1.373 . S
C1622 C1624 1.389 . S
C1623 H1602 0.950 . S
C1623 C1622 1.373 . S
C1623 C1639 1.377 . S
C1624 C1622 1.389 . S
C1624 C1625 1.524 . S
C1624 C1638 1.377 . S
C1625 C1624 1.524 . S
C1625 C1626 1.397 . S
C1625 C1630 1.363 . S
C1626 H1603 0.950 . S
C1626 C1625 1.397 . S
C1626 C1627 1.334 . S
C1627 H1604 0.950 . S
C1627 C1626 1.334 . S
C1627 C1628 1.287 . S
C1628 C1627 1.287 . S
C1628 C1629 1.524 . S
C1628 H1647 0.913 . S
C1629 H1605 0.950 . S
C1629 C1628 1.524 . S
C1629 C1630 1.415 . S
C1630 H1606 0.950 . S
C1630 C1625 1.363 . S
C1630 C1629 1.415 . S
C1631 H1607 0.951 . S
C1631 C1632 1.366 . S
C1631 C1633 1.388 . S
C1632 C1631 1.366 . S
C1632 C1636 1.385 . S
C1633 H1608 0.951 . S
C1633 C1631 1.388 . S
C1633 C1634 1.366 . S
C1634 C1633 1.366 . S
C1634 C1635 1.414 . S
C1634 C1637 1.499 . S
C1635 H1609 0.950 . S
C1635 C1634 1.414 . S
C1635 C1636 1.374 . S
C1636 H1610 0.950 . S
C1636 C1632 1.385 . S
C1636 C1635 1.374 . S
C1637 C1634 1.499 . S
C1637 C1638 1.373 . S
C1637 C1639 1.389 . S
C1638 H1611 0.950 . S
C1638 C1624 1.377 . S
C1638 C1637 1.373 . S
C1639 C1623 1.377 . S
C1639 C1637 1.389 . S
C1639 C1640 1.524 . S
C1640 C1639 1.524 . S
C1640 C1641 1.397 . S
C1640 C1645 1.363 . S
C1641 H1612 0.950 . S
C1641 C1640 1.397 . S
C1641 C1642 1.334 . S
C1642 H1613 0.950 . S
C1642 C1641 1.334 . S
C1642 C1643 1.287 . S
C1643 C1642 1.287 . S
C1643 C1644 1.524 . S
C1643 H1646 0.999 . S
C1644 H1614 0.950 . S
C1644 C1643 1.524 . S
C1644 C1645 1.415 . S
C1645 H1615 0.950 . S
C1645 C1640 1.363 . S
C1645 C1644 1.415 . S
H1646 C1643 0.999 . S
H1647 C1628 0.913 . S
H1648 C1666 0.951 . S
H1649 C1668 0.951 . S
H1650 C1670 0.950 . S
H1651 C1671 0.950 . S
H1652 C1673 0.950 . S
H1653 C1676 0.950 . S
H1654 C1677 0.950 . S
H1655 C1679 0.950 . S
H1656 C1680 0.950 . S
H1657 C1681 0.951 . S
H1658 C1683 0.951 . S
H1659 C1685 0.950 . S
H1660 C1686 0.950 . S
H1661 C1688 0.950 . S
H1662 C1691 0.950 . S
H1663 C1692 0.950 . S
H1664 C1694 0.950 . S
H1665 C1695 0.950 . S
C1666 H1648 0.951 . S
C1666 C1667 1.366 . S
C1666 C1668 1.388 . S
C1667 C1666 1.366 . S
C1667 C1671 1.385 . S
C1668 H1649 0.951 . S
C1668 C1666 1.388 . S
C1668 C1669 1.366 . S
C1669 C1668 1.366 . S
C1669 C1670 1.414 . S
C1669 C1672 1.499 . S
C1670 H1650 0.950 . S
C1670 C1669 1.414 . S
C1670 C1671 1.374 . S
C1671 H1651 0.950 . S
C1671 C1667 1.385 . S
C1671 C1670 1.374 . S
C1672 C1669 1.499 . S
C1672 C1673 1.373 . S
C1672 C1674 1.389 . S
C1673 H1652 0.950 . S
C1673 C1672 1.373 . S
C1673 C1689 1.377 . S
C1674 C1672 1.389 . S
C1674 C1675 1.524 . S
C1674 C1688 1.377 . S
C1675 C1674 1.524 . S
C1675 C1676 1.397 . S
C1675 C1680 1.363 . S
C1676 H1653 0.950 . S
C1676 C1675 1.397 . S
C1676 C1677 1.334 . S
C1677 H1654 0.950 . S
C1677 C1676 1.334 . S
C1677 C1678 1.287 . S
C1678 C1677 1.287 . S
C1678 C1679 1.524 . S
C1678 H1697 0.913 . S
C1679 H1655 0.950 . S
C1679 C1678 1.524 . S
C1679 C1680 1.415 . S
C1680 H1656 0.950 . S
C1680 C1675 1.363 . S
C1680 C1679 1.415 . S
C1681 H1657 0.951 . S
C1681 C1682 1.366 . S
C1681 C1683 1.388 . S
C1682 C1681 1.366 . S
C1682 C1686 1.385 . S
C1683 H1658 0.951 . S
C1683 C1681 1.388 . S
C1683 C1684 1.366 . S
C1684 C1683 1.366 . S
C1684 C1685 1.414 . S
C1684 C1687 1.499 . S
C1685 H1659 0.950 . S
C1685 C1684 1.414 . S
C1685 C1686 1.374 . S
C1686 H1660 0.950 . S
C1686 C1682 1.385 . S
C1686 C1685 1.374 . S
C1687 C1684 1.499 . S
C1687 C1688 1.373 . S
C1687 C1689 1.389 . S
C1688 H1661 0.950 . S
C1688 C1674 1.377 . S
C1688 C1687 1.373 . S
C1689 C1673 1.377 . S
C1689 C1687 1.389 . S
C1689 C1690 1.524 . S
C1690 C1689 1.524 . S
C1690 C1691 1.397 . S
C1690 C1695 1.363 . S
C1691 H1662 0.950 . S
C1691 C1690 1.397 . S
C1691 C1692 1.334 . S
C1692 H1663 0.950 . S
C1692 C1691 1.334 . S
C1692 C1693 1.287 . S
C1693 C1692 1.287 . S
C1693 C1694 1.524 . S
C1693 H1696 0.999 . S
C1694 H1664 0.950 . S
C1694 C1693 1.524 . S
C1694 C1695 1.415 . S
C1695 H1665 0.950 . S
C1695 C1690 1.363 . S
C1695 C1694 1.415 . S
H1696 C1693 0.999 . S
H1697 C1678 0.913 . S
H1698 C1716 0.951 . S
H1699 C1718 0.951 . S
H1700 C1720 0.950 . S
H1701 C1721 0.950 . S
H1702 C1723 0.950 . S
H1703 C1726 0.950 . S
H1704 C1727 0.950 . S
H1705 C1729 0.950 . S
H1706 C1730 0.950 . S
H1707 C1731 0.951 . S
H1708 C1733 0.951 . S
H1709 C1735 0.950 . S
H1710 C1736 0.950 . S
H1711 C1738 0.950 . S
H1712 C1741 0.950 . S
H1713 C1742 0.950 . S
H1714 C1744 0.950 . S
H1715 C1745 0.950 . S
C1716 H1698 0.951 . S
C1716 C1717 1.366 . S
C1716 C1718 1.388 . S
C1717 C1716 1.366 . S
C1717 C1721 1.385 . S
C1718 H1699 0.951 . S
C1718 C1716 1.388 . S
C1718 C1719 1.366 . S
C1719 C1718 1.366 . S
C1719 C1720 1.414 . S
C1719 C1722 1.499 . S
C1720 H1700 0.950 . S
C1720 C1719 1.414 . S
C1720 C1721 1.374 . S
C1721 H1701 0.950 . S
C1721 C1717 1.385 . S
C1721 C1720 1.374 . S
C1722 C1719 1.499 . S
C1722 C1723 1.373 . S
C1722 C1724 1.389 . S
C1723 H1702 0.950 . S
C1723 C1722 1.373 . S
C1723 C1739 1.377 . S
C1724 C1722 1.389 . S
C1724 C1725 1.524 . S
C1724 C1738 1.377 . S
C1725 C1724 1.524 . S
C1725 C1726 1.397 . S
C1725 C1730 1.363 . S
C1726 H1703 0.950 . S
C1726 C1725 1.397 . S
C1726 C1727 1.334 . S
C1727 H1704 0.950 . S
C1727 C1726 1.334 . S
C1727 C1728 1.287 . S
C1728 C1727 1.287 . S
C1728 C1729 1.524 . S
C1728 H1747 0.913 . S
C1729 H1705 0.950 . S
C1729 C1728 1.524 . S
C1729 C1730 1.415 . S
C1730 H1706 0.950 . S
C1730 C1725 1.363 . S
C1730 C1729 1.415 . S
C1731 H1707 0.951 . S
C1731 C1732 1.366 . S
C1731 C1733 1.388 . S
C1732 C1731 1.366 . S
C1732 C1736 1.385 . S
C1733 H1708 0.951 . S
C1733 C1731 1.388 . S
C1733 C1734 1.366 . S
C1734 C1733 1.366 . S
C1734 C1735 1.414 . S
C1734 C1737 1.499 . S
C1735 H1709 0.950 . S
C1735 C1734 1.414 . S
C1735 C1736 1.374 . S
C1736 H1710 0.950 . S
C1736 C1732 1.385 . S
C1736 C1735 1.374 . S
C1737 C1734 1.499 . S
C1737 C1738 1.373 . S
C1737 C1739 1.389 . S
C1738 H1711 0.950 . S
C1738 C1724 1.377 . S
C1738 C1737 1.373 . S
C1739 C1723 1.377 . S
C1739 C1737 1.389 . S
C1739 C1740 1.524 . S
C1740 C1739 1.524 . S
C1740 C1741 1.397 . S
C1740 C1745 1.363 . S
C1741 H1712 0.950 . S
C1741 C1740 1.397 . S
C1741 C1742 1.334 . S
C1742 H1713 0.950 . S
C1742 C1741 1.334 . S
C1742 C1743 1.287 . S
C1743 C1742 1.287 . S
C1743 C1744 1.524 . S
C1743 H1746 0.999 . S
C1744 H1714 0.950 . S
C1744 C1743 1.524 . S
C1744 C1745 1.415 . S
C1745 H1715 0.950 . S
C1745 C1740 1.363 . S
C1745 C1744 1.415 . S
H1746 C1743 0.999 . S
H1747 C1728 0.913 . S
H1748 C1766 0.951 . S
H1749 C1768 0.951 . S
H1750 C1770 0.950 . S
H1751 C1771 0.950 . S
H1752 C1773 0.950 . S
H1753 C1776 0.950 . S
H1754 C1777 0.950 . S
H1755 C1779 0.950 . S
H1756 C1780 0.950 . S
H1757 C1781 0.951 . S
H1758 C1783 0.951 . S
H1759 C1785 0.950 . S
H1760 C1786 0.950 . S
H1761 C1788 0.950 . S
H1762 C1791 0.950 . S
H1763 C1792 0.950 . S
H1764 C1794 0.950 . S
H1765 C1795 0.950 . S
C1766 H1748 0.951 . S
C1766 C1767 1.366 . S
C1766 C1768 1.388 . S
C1767 C1766 1.366 . S
C1767 C1771 1.385 . S
C1768 H1749 0.951 . S
C1768 C1766 1.388 . S
C1768 C1769 1.366 . S
C1769 C1768 1.366 . S
C1769 C1770 1.414 . S
C1769 C1772 1.499 . S
C1770 H1750 0.950 . S
C1770 C1769 1.414 . S
C1770 C1771 1.374 . S
C1771 H1751 0.950 . S
C1771 C1767 1.385 . S
C1771 C1770 1.374 . S
C1772 C1769 1.499 . S
C1772 C1773 1.373 . S
C1772 C1774 1.389 . S
C1773 H1752 0.950 . S
C1773 C1772 1.373 . S
C1773 C1789 1.377 . S
C1774 C1772 1.389 . S
C1774 C1775 1.524 . S
C1774 C1788 1.377 . S
C1775 C1774 1.524 . S
C1775 C1776 1.397 . S
C1775 C1780 1.363 . S
C1776 H1753 0.950 . S
C1776 C1775 1.397 . S
C1776 C1777 1.334 . S
C1777 H1754 0.950 . S
C1777 C1776 1.334 . S
C1777 C1778 1.287 . S
C1778 C1777 1.287 . S
C1778 C1779 1.524 . S
C1778 H1797 0.913 . S
C1779 H1755 0.950 . S
C1779 C1778 1.524 . S
C1779 C1780 1.415 . S
C1780 H1756 0.950 . S
C1780 C1775 1.363 . S
C1780 C1779 1.415 . S
C1781 H1757 0.951 . S
C1781 C1782 1.366 . S
C1781 C1783 1.388 1_554 S
C1782 C1781 1.366 . S
C1782 C1786 1.385 1_554 S
C1783 H1758 0.951 . S
C1783 C1781 1.388 1_556 S
C1783 C1784 1.366 . S
C1784 C1783 1.366 . S
C1784 C1785 1.414 . S
C1784 C1787 1.499 . S
C1785 H1759 0.950 . S
C1785 C1784 1.414 . S
C1785 C1786 1.374 . S
C1786 H1760 0.950 . S
C1786 C1782 1.385 1_556 S
C1786 C1785 1.374 . S
C1787 C1784 1.499 . S
C1787 C1788 1.373 . S
C1787 C1789 1.389 . S
C1788 H1761 0.950 . S
C1788 C1774 1.377 . S
C1788 C1787 1.373 . S
C1789 C1773 1.377 . S
C1789 C1787 1.389 . S
C1789 C1790 1.524 . S
C1790 C1789 1.524 . S
C1790 C1791 1.397 . S
C1790 C1795 1.363 . S
C1791 H1762 0.950 . S
C1791 C1790 1.397 . S
C1791 C1792 1.334 . S
C1792 H1763 0.950 . S
C1792 C1791 1.334 . S
C1792 C1793 1.287 1_556 S
C1793 C1792 1.287 1_554 S
C1793 C1794 1.524 . S
C1793 H1796 0.999 . S
C1794 H1764 0.950 . S
C1794 C1793 1.524 . S
C1794 C1795 1.415 1_554 S
C1795 H1765 0.950 . S
C1795 C1790 1.363 . S
C1795 C1794 1.415 1_556 S
H1796 C1793 0.999 . S
H1797 C1778 0.913 . S
H1798 C1816 0.951 . S
H1799 C1818 0.951 . S
H1800 C1820 0.950 . S
H1801 C1821 0.950 . S
H1802 C1823 0.950 . S
H1803 C1826 0.950 . S
H1804 C1827 0.950 . S
H1805 C1829 0.950 . S
H1806 C1830 0.950 . S
H1807 C1831 0.951 . S
H1808 C1833 0.951 . S
H1809 C1835 0.950 . S
H1810 C1836 0.950 . S
H1811 C1838 0.950 . S
H1812 C1841 0.950 . S
H1813 C1842 0.950 . S
H1814 C1844 0.950 . S
H1815 C1845 0.950 . S
C1816 H1798 0.951 . S
C1816 C1817 1.366 . S
C1816 C1818 1.388 . S
C1817 C1816 1.366 . S
C1817 C1821 1.385 . S
C1818 H1799 0.951 . S
C1818 C1816 1.388 . S
C1818 C1819 1.366 . S
C1819 C1818 1.366 . S
C1819 C1820 1.414 . S
C1819 C1822 1.499 . S
C1820 H1800 0.950 . S
C1820 C1819 1.414 . S
C1820 C1821 1.374 . S
C1821 H1801 0.950 . S
C1821 C1817 1.385 . S
C1821 C1820 1.374 . S
C1822 C1819 1.499 . S
C1822 C1823 1.373 . S
C1822 C1824 1.389 . S
C1823 H1802 0.950 . S
C1823 C1822 1.373 . S
C1823 C1839 1.377 . S
C1824 C1822 1.389 . S
C1824 C1825 1.524 . S
C1824 C1838 1.377 . S
C1825 C1824 1.524 . S
C1825 C1826 1.397 . S
C1825 C1830 1.363 . S
C1826 H1803 0.950 . S
C1826 C1825 1.397 . S
C1826 C1827 1.334 . S
C1827 H1804 0.950 . S
C1827 C1826 1.334 . S
C1827 C1828 1.287 . S
C1828 C1827 1.287 . S
C1828 C1829 1.524 . S
C1828 H1847 0.913 . S
C1829 H1805 0.950 . S
C1829 C1828 1.524 . S
C1829 C1830 1.415 . S
C1830 H1806 0.950 . S
C1830 C1825 1.363 . S
C1830 C1829 1.415 . S
C1831 H1807 0.951 . S
C1831 C1832 1.366 . S
C1831 C1833 1.388 1_556 S
C1832 C1831 1.366 . S
C1832 C1836 1.385 1_556 S
C1833 H1808 0.951 . S
C1833 C1831 1.388 1_554 S
C1833 C1834 1.366 . S
C1834 C1833 1.366 . S
C1834 C1835 1.414 . S
C1834 C1837 1.499 . S
C1835 H1809 0.950 . S
C1835 C1834 1.414 . S
C1835 C1836 1.374 . S
C1836 H1810 0.950 . S
C1836 C1832 1.385 1_554 S
C1836 C1835 1.374 . S
C1837 C1834 1.499 . S
C1837 C1838 1.373 . S
C1837 C1839 1.389 . S
C1838 H1811 0.950 . S
C1838 C1824 1.377 . S
C1838 C1837 1.373 . S
C1839 C1823 1.377 . S
C1839 C1837 1.389 . S
C1839 C1840 1.524 . S
C1840 C1839 1.524 . S
C1840 C1841 1.397 . S
C1840 C1845 1.363 . S
C1841 H1812 0.950 . S
C1841 C1840 1.397 . S
C1841 C1842 1.334 . S
C1842 H1813 0.950 . S
C1842 C1841 1.334 . S
C1842 C1843 1.287 . S
C1843 C1842 1.287 . S
C1843 C1844 1.524 . S
C1843 H1846 0.999 . S
C1844 H1814 0.950 . S
C1844 C1843 1.524 . S
C1844 C1845 1.415 . S
C1845 H1815 0.950 . S
C1845 C1840 1.363 . S
C1845 C1844 1.415 . S
H1846 C1843 0.999 . S
H1847 C1828 0.913 . S
H1848 C1866 0.951 . S
H1849 C1868 0.951 . S
H1850 C1870 0.950 . S
H1851 C1871 0.950 . S
H1852 C1873 0.950 . S
H1853 C1876 0.950 . S
H1854 C1877 0.950 . S
H1855 C1879 0.950 . S
H1856 C1880 0.950 . S
H1857 C1881 0.951 . S
H1858 C1883 0.951 . S
H1859 C1885 0.950 . S
H1860 C1886 0.950 . S
H1861 C1888 0.950 . S
H1862 C1891 0.950 . S
H1863 C1892 0.950 . S
H1864 C1894 0.950 . S
H1865 C1895 0.950 . S
C1866 H1848 0.951 . S
C1866 C1867 1.366 . S
C1866 C1868 1.388 . S
C1867 C1866 1.366 . S
C1867 C1871 1.385 . S
C1868 H1849 0.951 . S
C1868 C1866 1.388 . S
C1868 C1869 1.366 . S
C1869 C1868 1.366 . S
C1869 C1870 1.414 . S
C1869 C1872 1.499 . S
C1870 H1850 0.950 . S
C1870 C1869 1.414 . S
C1870 C1871 1.374 . S
C1871 H1851 0.950 . S
C1871 C1867 1.385 . S
C1871 C1870 1.374 . S
C1872 C1869 1.499 . S
C1872 C1873 1.373 . S
C1872 C1874 1.389 . S
C1873 H1852 0.950 . S
C1873 C1872 1.373 . S
C1873 C1889 1.377 . S
C1874 C1872 1.389 . S
C1874 C1875 1.524 . S
C1874 C1888 1.377 . S
C1875 C1874 1.524 . S
C1875 C1876 1.397 . S
C1875 C1880 1.363 . S
C1876 H1853 0.950 . S
C1876 C1875 1.397 . S
C1876 C1877 1.334 . S
C1877 H1854 0.950 . S
C1877 C1876 1.334 . S
C1877 C1878 1.287 . S
C1878 C1877 1.287 . S
C1878 C1879 1.524 . S
C1878 H1897 0.913 . S
C1879 H1855 0.950 . S
C1879 C1878 1.524 . S
C1879 C1880 1.415 . S
C1880 H1856 0.950 . S
C1880 C1875 1.363 . S
C1880 C1879 1.415 . S
C1881 H1857 0.951 . S
C1881 C1882 1.366 . S
C1881 C1883 1.388 . S
C1882 C1881 1.366 . S
C1882 C1886 1.385 . S
C1883 H1858 0.951 . S
C1883 C1881 1.388 . S
C1883 C1884 1.366 . S
C1884 C1883 1.366 . S
C1884 C1885 1.414 . S
C1884 C1887 1.499 . S
C1885 H1859 0.950 . S
C1885 C1884 1.414 . S
C1885 C1886 1.374 . S
C1886 H1860 0.950 . S
C1886 C1882 1.385 . S
C1886 C1885 1.374 . S
C1887 C1884 1.499 . S
C1887 C1888 1.373 . S
C1887 C1889 1.389 . S
C1888 H1861 0.950 . S
C1888 C1874 1.377 . S
C1888 C1887 1.373 . S
C1889 C1873 1.377 . S
C1889 C1887 1.389 . S
C1889 C1890 1.524 . S
C1890 C1889 1.524 . S
C1890 C1891 1.397 . S
C1890 C1895 1.363 . S
C1891 H1862 0.950 . S
C1891 C1890 1.397 . S
C1891 C1892 1.334 . S
C1892 H1863 0.950 . S
C1892 C1891 1.334 . S
C1892 C1893 1.287 . S
C1893 C1892 1.287 . S
C1893 C1894 1.524 . S
C1893 H1896 0.999 . S
C1894 H1864 0.950 . S
C1894 C1893 1.524 . S
C1894 C1895 1.415 . S
C1895 H1865 0.950 . S
C1895 C1890 1.363 . S
C1895 C1894 1.415 . S
H1896 C1893 0.999 . S
H1897 C1878 0.913 . S
H1898 C1916 0.951 . S
H1899 C1918 0.951 . S
H1900 C1920 0.950 . S
H1901 C1921 0.950 . S
H1902 C1923 0.950 . S
H1903 C1926 0.950 . S
H1904 C1927 0.950 . S
H1905 C1929 0.950 . S
H1906 C1930 0.950 . S
H1907 C1931 0.951 . S
H1908 C1933 0.951 . S
H1909 C1935 0.950 . S
H1910 C1936 0.950 . S
H1911 C1938 0.950 . S
H1912 C1941 0.950 . S
H1913 C1942 0.950 . S
H1914 C1944 0.950 . S
H1915 C1945 0.950 . S
C1916 H1898 0.951 . S
C1916 C1917 1.366 . S
C1916 C1918 1.388 . S
C1917 C1916 1.366 . S
C1917 C1921 1.385 . S
C1918 H1899 0.951 . S
C1918 C1916 1.388 . S
C1918 C1919 1.366 . S
C1919 C1918 1.366 . S
C1919 C1920 1.414 . S
C1919 C1922 1.499 . S
C1920 H1900 0.950 . S
C1920 C1919 1.414 . S
C1920 C1921 1.374 . S
C1921 H1901 0.950 . S
C1921 C1917 1.385 . S
C1921 C1920 1.374 . S
C1922 C1919 1.499 . S
C1922 C1923 1.373 . S
C1922 C1924 1.389 . S
C1923 H1902 0.950 . S
C1923 C1922 1.373 . S
C1923 C1939 1.377 . S
C1924 C1922 1.389 . S
C1924 C1925 1.524 . S
C1924 C1938 1.377 . S
C1925 C1924 1.524 . S
C1925 C1926 1.397 . S
C1925 C1930 1.363 . S
C1926 H1903 0.950 . S
C1926 C1925 1.397 . S
C1926 C1927 1.334 . S
C1927 H1904 0.950 . S
C1927 C1926 1.334 . S
C1927 C1928 1.287 . S
C1928 C1927 1.287 . S
C1928 C1929 1.524 . S
C1928 H1947 0.913 . S
C1929 H1905 0.950 . S
C1929 C1928 1.524 . S
C1929 C1930 1.415 . S
C1930 H1906 0.950 . S
C1930 C1925 1.363 . S
C1930 C1929 1.415 . S
C1931 H1907 0.951 . S
C1931 C1932 1.366 . S
C1931 C1933 1.388 . S
C1932 C1931 1.366 . S
C1932 C1936 1.385 . S
C1933 H1908 0.951 . S
C1933 C1931 1.388 . S
C1933 C1934 1.366 . S
C1934 C1933 1.366 . S
C1934 C1935 1.414 . S
C1934 C1937 1.499 . S
C1935 H1909 0.950 . S
C1935 C1934 1.414 . S
C1935 C1936 1.374 . S
C1936 H1910 0.950 . S
C1936 C1932 1.385 . S
C1936 C1935 1.374 . S
C1937 C1934 1.499 . S
C1937 C1938 1.373 . S
C1937 C1939 1.389 . S
C1938 H1911 0.950 . S
C1938 C1924 1.377 . S
C1938 C1937 1.373 . S
C1939 C1923 1.377 . S
C1939 C1937 1.389 . S
C1939 C1940 1.524 . S
C1940 C1939 1.524 . S
C1940 C1941 1.397 . S
C1940 C1945 1.363 . S
C1941 H1912 0.950 . S
C1941 C1940 1.397 . S
C1941 C1942 1.334 . S
C1942 H1913 0.950 . S
C1942 C1941 1.334 . S
C1942 C1943 1.287 . S
C1943 C1942 1.287 . S
C1943 C1944 1.524 . S
C1943 H1946 0.999 . S
C1944 H1914 0.950 . S
C1944 C1943 1.524 . S
C1944 C1945 1.415 . S
C1945 H1915 0.950 . S
C1945 C1940 1.363 . S
C1945 C1944 1.415 . S
H1946 C1943 0.999 . S
H1947 C1928 0.913 . S
H1948 C1966 0.951 . S
H1949 C1968 0.951 . S
H1950 C1970 0.950 . S
H1951 C1971 0.950 . S
H1952 C1973 0.950 . S
H1953 C1976 0.950 . S
H1954 C1977 0.950 . S
H1955 C1979 0.950 . S
H1956 C1980 0.950 . S
H1957 C1981 0.951 . S
H1958 C1983 0.951 . S
H1959 C1985 0.950 . S
H1960 C1986 0.950 . S
H1961 C1988 0.950 . S
H1962 C1991 0.950 . S
H1963 C1992 0.950 . S
H1964 C1994 0.950 . S
H1965 C1995 0.950 . S
C1966 H1948 0.951 . S
C1966 C1967 1.366 . S
C1966 C1968 1.388 1_556 S
C1967 C1966 1.366 . S
C1967 C1971 1.385 1_556 S
C1968 H1949 0.951 . S
C1968 C1966 1.388 1_554 S
C1968 C1969 1.366 . S
C1969 C1968 1.366 . S
C1969 C1970 1.414 . S
C1969 C1972 1.499 . S
C1970 H1950 0.950 . S
C1970 C1969 1.414 . S
C1970 C1971 1.374 . S
C1971 H1951 0.950 . S
C1971 C1967 1.385 1_554 S
C1971 C1970 1.374 . S
C1972 C1969 1.499 . S
C1972 C1973 1.373 . S
C1972 C1974 1.389 . S
C1973 H1952 0.950 . S
C1973 C1972 1.373 . S
C1973 C1989 1.377 . S
C1974 C1972 1.389 . S
C1974 C1975 1.524 . S
C1974 C1988 1.377 . S
C1975 C1974 1.524 . S
C1975 C1976 1.397 . S
C1975 C1980 1.363 . S
C1976 H1953 0.950 . S
C1976 C1975 1.397 . S
C1976 C1977 1.334 . S
C1977 H1954 0.950 . S
C1977 C1976 1.334 . S
C1977 C1978 1.287 . S
C1978 C1977 1.287 . S
C1978 C1979 1.524 . S
C1978 H1997 0.913 . S
C1979 H1955 0.950 . S
C1979 C1978 1.524 . S
C1979 C1980 1.415 . S
C1980 H1956 0.950 . S
C1980 C1975 1.363 . S
C1980 C1979 1.415 . S
C1981 H1957 0.951 . S
C1981 C1982 1.366 . S
C1981 C1983 1.388 . S
C1982 C1981 1.366 . S
C1982 C1986 1.385 . S
C1983 H1958 0.951 . S
C1983 C1981 1.388 . S
C1983 C1984 1.366 . S
C1984 C1983 1.366 . S
C1984 C1985 1.414 . S
C1984 C1987 1.499 . S
C1985 H1959 0.950 . S
C1985 C1984 1.414 . S
C1985 C1986 1.374 . S
C1986 H1960 0.950 . S
C1986 C1982 1.385 . S
C1986 C1985 1.374 . S
C1987 C1984 1.499 . S
C1987 C1988 1.373 . S
C1987 C1989 1.389 . S
C1988 H1961 0.950 . S
C1988 C1974 1.377 . S
C1988 C1987 1.373 . S
C1989 C1973 1.377 . S
C1989 C1987 1.389 . S
C1989 C1990 1.524 . S
C1990 C1989 1.524 . S
C1990 C1991 1.397 . S
C1990 C1995 1.363 . S
C1991 H1962 0.950 . S
C1991 C1990 1.397 . S
C1991 C1992 1.334 . S
C1992 H1963 0.950 . S
C1992 C1991 1.334 . S
C1992 C1993 1.287 . S
C1993 C1992 1.287 . S
C1993 C1994 1.524 . S
C1993 H1996 0.999 . S
C1994 H1964 0.950 . S
C1994 C1993 1.524 . S
C1994 C1995 1.415 . S
C1995 H1965 0.950 . S
C1995 C1990 1.363 . S
C1995 C1994 1.415 . S
H1996 C1993 0.999 . S
H1997 C1978 0.913 . S
H1998 C2016 0.951 . S
H1999 C2018 0.951 . S
H2000 C2020 0.950 . S
H2001 C2021 0.950 . S
H2002 C2023 0.950 . S
H2003 C2026 0.950 . S
H2004 C2027 0.950 . S
H2005 C2029 0.950 . S
H2006 C2030 0.950 . S
H2007 C2031 0.951 . S
H2008 C2033 0.951 . S
H2009 C2035 0.950 . S
H2010 C2036 0.950 . S
H2011 C2038 0.950 . S
H2012 C2041 0.950 . S
H2013 C2042 0.950 1_554 S
H2014 C2044 0.950 . S
H2015 C2045 0.950 . S
C2016 H1998 0.951 . S
C2016 C2017 1.366 . S
C2016 C2018 1.388 . S
C2017 C2016 1.366 . S
C2017 C2021 1.385 . S
C2018 H1999 0.951 . S
C2018 C2016 1.388 . S
C2018 C2019 1.366 . S
C2019 C2018 1.366 . S
C2019 C2020 1.414 . S
C2019 C2022 1.499 . S
C2020 H2000 0.950 . S
C2020 C2019 1.414 . S
C2020 C2021 1.374 . S
C2021 H2001 0.950 . S
C2021 C2017 1.385 . S
C2021 C2020 1.374 . S
C2022 C2019 1.499 . S
C2022 C2023 1.373 . S
C2022 C2024 1.389 . S
C2023 H2002 0.950 . S
C2023 C2022 1.373 . S
C2023 C2039 1.377 . S
C2024 C2022 1.389 . S
C2024 C2025 1.524 . S
C2024 C2038 1.377 . S
C2025 C2024 1.524 . S
C2025 C2026 1.397 . S
C2025 C2030 1.363 . S
C2026 H2003 0.950 . S
C2026 C2025 1.397 . S
C2026 C2027 1.334 . S
C2027 H2004 0.950 . S
C2027 C2026 1.334 . S
C2027 C2028 1.287 . S
C2028 C2027 1.287 . S
C2028 C2029 1.524 . S
C2028 H2047 0.913 . S
C2029 H2005 0.950 . S
C2029 C2028 1.524 . S
C2029 C2030 1.415 . S
C2030 H2006 0.950 . S
C2030 C2025 1.363 . S
C2030 C2029 1.415 . S
C2031 H2007 0.951 . S
C2031 C2032 1.366 1_556 S
C2031 C2033 1.388 . S
C2032 C2031 1.366 1_554 S
C2032 C2036 1.385 . S
C2033 H2008 0.951 . S
C2033 C2031 1.388 . S
C2033 C2034 1.366 . S
C2034 C2033 1.366 . S
C2034 C2035 1.414 . S
C2034 C2037 1.499 . S
C2035 H2009 0.950 . S
C2035 C2034 1.414 . S
C2035 C2036 1.374 1_556 S
C2036 H2010 0.950 . S
C2036 C2032 1.385 . S
C2036 C2035 1.374 1_554 S
C2037 C2034 1.499 . S
C2037 C2038 1.373 . S
C2037 C2039 1.389 . S
C2038 H2011 0.950 . S
C2038 C2024 1.377 . S
C2038 C2037 1.373 . S
C2039 C2023 1.377 . S
C2039 C2037 1.389 . S
C2039 C2040 1.524 . S
C2040 C2039 1.524 . S
C2040 C2041 1.397 . S
C2040 C2045 1.363 . S
C2041 H2012 0.950 . S
C2041 C2040 1.397 . S
C2041 C2042 1.334 . S
C2042 H2013 0.950 1_556 S
C2042 C2041 1.334 . S
C2042 C2043 1.287 . S
C2043 C2042 1.287 . S
C2043 C2044 1.524 . S
C2043 H2046 0.999 . S
C2044 H2014 0.950 . S
C2044 C2043 1.524 . S
C2044 C2045 1.415 . S
C2045 H2015 0.950 . S
C2045 C2040 1.363 . S
C2045 C2044 1.415 . S
H2046 C2043 0.999 . S
H2047 C2028 0.913 . S
H2048 C2066 0.951 . S
H2049 C2068 0.951 . S
H2050 C2070 0.950 . S
H2051 C2071 0.950 . S
H2052 C2073 0.950 . S
H2053 C2076 0.950 . S
H2054 C2077 0.950 . S
H2055 C2079 0.950 . S
H2056 C2080 0.950 . S
H2057 C2081 0.951 . S
H2058 C2083 0.951 . S
H2059 C2085 0.950 . S
H2060 C2086 0.950 . S
H2061 C2088 0.950 . S
H2062 C2091 0.950 . S
H2063 C2092 0.950 . S
H2064 C2094 0.950 . S
H2065 C2095 0.950 . S
C2066 H2048 0.951 . S
C2066 C2067 1.366 . S
C2066 C2068 1.388 . S
C2067 C2066 1.366 . S
C2067 C2071 1.385 . S
C2068 H2049 0.951 . S
C2068 C2066 1.388 . S
C2068 C2069 1.366 . S
C2069 C2068 1.366 . S
C2069 C2070 1.414 . S
C2069 C2072 1.499 . S
C2070 H2050 0.950 . S
C2070 C2069 1.414 . S
C2070 C2071 1.374 . S
C2071 H2051 0.950 . S
C2071 C2067 1.385 . S
C2071 C2070 1.374 . S
C2072 C2069 1.499 . S
C2072 C2073 1.373 . S
C2072 C2074 1.389 . S
C2073 H2052 0.950 . S
C2073 C2072 1.373 . S
C2073 C2089 1.377 . S
C2074 C2072 1.389 . S
C2074 C2075 1.524 . S
C2074 C2088 1.377 . S
C2075 C2074 1.524 . S
C2075 C2076 1.397 . S
C2075 C2080 1.363 . S
C2076 H2053 0.950 . S
C2076 C2075 1.397 . S
C2076 C2077 1.334 1_554 S
C2077 H2054 0.950 . S
C2077 C2076 1.334 1_556 S
C2077 C2078 1.287 . S
C2078 C2077 1.287 . S
C2078 C2079 1.524 . S
C2078 H2097 0.913 . S
C2079 H2055 0.950 . S
C2079 C2078 1.524 . S
C2079 C2080 1.415 1_556 S
C2080 H2056 0.950 . S
C2080 C2075 1.363 . S
C2080 C2079 1.415 1_554 S
C2081 H2057 0.951 . S
C2081 C2082 1.366 . S
C2081 C2083 1.388 . S
C2082 C2081 1.366 . S
C2082 C2086 1.385 . S
C2083 H2058 0.951 . S
C2083 C2081 1.388 . S
C2083 C2084 1.366 . S
C2084 C2083 1.366 . S
C2084 C2085 1.414 . S
C2084 C2087 1.499 . S
C2085 H2059 0.950 . S
C2085 C2084 1.414 . S
C2085 C2086 1.374 . S
C2086 H2060 0.950 . S
C2086 C2082 1.385 . S
C2086 C2085 1.374 . S
C2087 C2084 1.499 . S
C2087 C2088 1.373 . S
C2087 C2089 1.389 . S
C2088 H2061 0.950 . S
C2088 C2074 1.377 . S
C2088 C2087 1.373 . S
C2089 C2073 1.377 . S
C2089 C2087 1.389 . S
C2089 C2090 1.524 . S
C2090 C2089 1.524 . S
C2090 C2091 1.397 . S
C2090 C2095 1.363 . S
C2091 H2062 0.950 . S
C2091 C2090 1.397 . S
C2091 C2092 1.334 . S
C2092 H2063 0.950 . S
C2092 C2091 1.334 . S
C2092 C2093 1.287 . S
C2093 C2092 1.287 . S
C2093 C2094 1.524 . S
C2093 H2096 0.999 . S
C2094 H2064 0.950 . S
C2094 C2093 1.524 . S
C2094 C2095 1.415 . S
C2095 H2065 0.950 . S
C2095 C2090 1.363 . S
C2095 C2094 1.415 . S
H2096 C2093 0.999 . S
H2097 C2078 0.913 . S
H2098 C2116 0.951 . S
H2099 C2118 0.951 . S
H2100 C2120 0.950 . S
H2101 C2121 0.950 . S
H2102 C2123 0.950 . S
H2103 C2126 0.950 . S
H2104 C2127 0.950 . S
H2105 C2129 0.950 . S
H2106 C2130 0.950 . S
H2107 C2131 0.951 . S
H2108 C2133 0.951 . S
H2109 C2135 0.950 . S
H2110 C2136 0.950 . S
H2111 C2138 0.950 . S
H2112 C2141 0.950 . S
H2113 C2142 0.950 . S
H2114 C2144 0.950 . S
H2115 C2145 0.950 . S
C2116 H2098 0.951 . S
C2116 C2117 1.366 . S
C2116 C2118 1.388 . S
C2117 C2116 1.366 . S
C2117 C2121 1.385 . S
C2118 H2099 0.951 . S
C2118 C2116 1.388 . S
C2118 C2119 1.366 . S
C2119 C2118 1.366 . S
C2119 C2120 1.414 . S
C2119 C2122 1.499 . S
C2120 H2100 0.950 . S
C2120 C2119 1.414 . S
C2120 C2121 1.374 . S
C2121 H2101 0.950 . S
C2121 C2117 1.385 . S
C2121 C2120 1.374 . S
C2122 C2119 1.499 . S
C2122 C2123 1.373 . S
C2122 C2124 1.389 . S
C2123 H2102 0.950 . S
C2123 C2122 1.373 . S
C2123 C2139 1.377 1_655 S
C2124 C2122 1.389 . S
C2124 C2125 1.524 . S
C2124 C2138 1.377 1_655 S
C2125 C2124 1.524 . S
C2125 C2126 1.397 . S
C2125 C2130 1.363 . S
C2126 H2103 0.950 . S
C2126 C2125 1.397 . S
C2126 C2127 1.334 . S
C2127 H2104 0.950 . S
C2127 C2126 1.334 . S
C2127 C2128 1.287 . S
C2128 C2127 1.287 . S
C2128 C2129 1.524 . S
C2128 H2147 0.913 . S
C2129 H2105 0.950 . S
C2129 C2128 1.524 . S
C2129 C2130 1.415 . S
C2130 H2106 0.950 . S
C2130 C2125 1.363 . S
C2130 C2129 1.415 . S
C2131 H2107 0.951 . S
C2131 C2132 1.366 . S
C2131 C2133 1.388 . S
C2132 C2131 1.366 . S
C2132 C2136 1.385 . S
C2133 H2108 0.951 . S
C2133 C2131 1.388 . S
C2133 C2134 1.366 . S
C2134 C2133 1.366 . S
C2134 C2135 1.414 . S
C2134 C2137 1.499 . S
C2135 H2109 0.950 . S
C2135 C2134 1.414 . S
C2135 C2136 1.374 . S
C2136 H2110 0.950 . S
C2136 C2132 1.385 . S
C2136 C2135 1.374 . S
C2137 C2134 1.499 . S
C2137 C2138 1.373 . S
C2137 C2139 1.389 . S
C2138 H2111 0.950 . S
C2138 C2124 1.377 1_455 S
C2138 C2137 1.373 . S
C2139 C2123 1.377 1_455 S
C2139 C2137 1.389 . S
C2139 C2140 1.524 . S
C2140 C2139 1.524 . S
C2140 C2141 1.397 . S
C2140 C2145 1.363 . S
C2141 H2112 0.950 . S
C2141 C2140 1.397 . S
C2141 C2142 1.334 . S
C2142 H2113 0.950 . S
C2142 C2141 1.334 . S
C2142 C2143 1.287 . S
C2143 C2142 1.287 . S
C2143 C2144 1.524 . S
C2143 H2146 0.999 . S
C2144 H2114 0.950 . S
C2144 C2143 1.524 . S
C2144 C2145 1.415 . S
C2145 H2115 0.950 . S
C2145 C2140 1.363 . S
C2145 C2144 1.415 . S
H2146 C2143 0.999 . S
H2147 C2128 0.913 . S
H2148 C2166 0.951 . S
H2149 C2168 0.951 . S
H2150 C2170 0.950 . S
H2151 C2171 0.950 . S
H2152 C2173 0.950 . S
H2153 C2176 0.950 . S
H2154 C2177 0.950 . S
H2155 C2179 0.950 . S
H2156 C2180 0.950 . S
H2157 C2181 0.951 . S
H2158 C2183 0.951 . S
H2159 C2185 0.950 . S
H2160 C2186 0.950 . S
H2161 C2188 0.950 . S
H2162 C2191 0.950 . S
H2163 C2192 0.950 . S
H2164 C2194 0.950 . S
H2165 C2195 0.950 . S
C2166 H2148 0.951 . S
C2166 C2167 1.366 . S
C2166 C2168 1.388 . S
C2167 C2166 1.366 . S
C2167 C2171 1.385 . S
C2168 H2149 0.951 . S
C2168 C2166 1.388 . S
C2168 C2169 1.366 . S
C2169 C2168 1.366 . S
C2169 C2170 1.414 . S
C2169 C2172 1.499 . S
C2170 H2150 0.950 . S
C2170 C2169 1.414 . S
C2170 C2171 1.374 . S
C2171 H2151 0.950 . S
C2171 C2167 1.385 . S
C2171 C2170 1.374 . S
C2172 C2169 1.499 . S
C2172 C2173 1.373 . S
C2172 C2174 1.389 . S
C2173 H2152 0.950 . S
C2173 C2172 1.373 . S
C2173 C2189 1.377 . S
C2174 C2172 1.389 . S
C2174 C2175 1.524 . S
C2174 C2188 1.377 . S
C2175 C2174 1.524 . S
C2175 C2176 1.397 . S
C2175 C2180 1.363 . S
C2176 H2153 0.950 . S
C2176 C2175 1.397 . S
C2176 C2177 1.334 . S
C2177 H2154 0.950 . S
C2177 C2176 1.334 . S
C2177 C2178 1.287 . S
C2178 C2177 1.287 . S
C2178 C2179 1.524 . S
C2178 H2197 0.913 . S
C2179 H2155 0.950 . S
C2179 C2178 1.524 . S
C2179 C2180 1.415 . S
C2180 H2156 0.950 . S
C2180 C2175 1.363 . S
C2180 C2179 1.415 . S
C2181 H2157 0.951 . S
C2181 C2182 1.366 . S
C2181 C2183 1.388 . S
C2182 C2181 1.366 . S
C2182 C2186 1.385 . S
C2183 H2158 0.951 . S
C2183 C2181 1.388 . S
C2183 C2184 1.366 . S
C2184 C2183 1.366 . S
C2184 C2185 1.414 . S
C2184 C2187 1.499 . S
C2185 H2159 0.950 . S
C2185 C2184 1.414 . S
C2185 C2186 1.374 . S
C2186 H2160 0.950 . S
C2186 C2182 1.385 . S
C2186 C2185 1.374 . S
C2187 C2184 1.499 . S
C2187 C2188 1.373 . S
C2187 C2189 1.389 . S
C2188 H2161 0.950 . S
C2188 C2174 1.377 . S
C2188 C2187 1.373 . S
C2189 C2173 1.377 . S
C2189 C2187 1.389 . S
C2189 C2190 1.524 . S
C2190 C2189 1.524 . S
C2190 C2191 1.397 . S
C2190 C2195 1.363 . S
C2191 H2162 0.950 . S
C2191 C2190 1.397 . S
C2191 C2192 1.334 . S
C2192 H2163 0.950 . S
C2192 C2191 1.334 . S
C2192 C2193 1.287 . S
C2193 C2192 1.287 . S
C2193 C2194 1.524 . S
C2193 H2196 0.999 . S
C2194 H2164 0.950 . S
C2194 C2193 1.524 . S
C2194 C2195 1.415 . S
C2195 H2165 0.950 . S
C2195 C2190 1.363 . S
C2195 C2194 1.415 . S
H2196 C2193 0.999 . S
H2197 C2178 0.913 . S
H2198 C2216 0.951 . S
H2199 C2218 0.951 . S
H2200 C2220 0.950 . S
H2201 C2221 0.950 . S
H2202 C2223 0.950 . S
H2203 C2226 0.950 . S
H2204 C2227 0.950 . S
H2205 C2229 0.950 . S
H2206 C2230 0.950 . S
H2207 C2231 0.951 . S
H2208 C2233 0.951 . S
H2209 C2235 0.950 . S
H2210 C2236 0.950 . S
H2211 C2238 0.950 . S
H2212 C2241 0.950 . S
H2213 C2242 0.950 1_554 S
H2214 C2244 0.950 . S
H2215 C2245 0.950 . S
C2216 H2198 0.951 . S
C2216 C2217 1.366 . S
C2216 C2218 1.388 . S
C2217 C2216 1.366 . S
C2217 C2221 1.385 . S
C2218 H2199 0.951 . S
C2218 C2216 1.388 . S
C2218 C2219 1.366 . S
C2219 C2218 1.366 . S
C2219 C2220 1.414 . S
C2219 C2222 1.499 . S
C2220 H2200 0.950 . S
C2220 C2219 1.414 . S
C2220 C2221 1.374 . S
C2221 H2201 0.950 . S
C2221 C2217 1.385 . S
C2221 C2220 1.374 . S
C2222 C2219 1.499 . S
C2222 C2223 1.373 . S
C2222 C2224 1.389 . S
C2223 H2202 0.950 . S
C2223 C2222 1.373 . S
C2223 C2239 1.377 . S
C2224 C2222 1.389 . S
C2224 C2225 1.524 . S
C2224 C2238 1.377 . S
C2225 C2224 1.524 . S
C2225 C2226 1.397 . S
C2225 C2230 1.363 . S
C2226 H2203 0.950 . S
C2226 C2225 1.397 . S
C2226 C2227 1.334 . S
C2227 H2204 0.950 . S
C2227 C2226 1.334 . S
C2227 C2228 1.287 . S
C2228 C2227 1.287 . S
C2228 C2229 1.524 . S
C2228 H2247 0.913 . S
C2229 H2205 0.950 . S
C2229 C2228 1.524 . S
C2229 C2230 1.415 . S
C2230 H2206 0.950 . S
C2230 C2225 1.363 . S
C2230 C2229 1.415 . S
C2231 H2207 0.951 . S
C2231 C2232 1.366 . S
C2231 C2233 1.388 . S
C2232 C2231 1.366 . S
C2232 C2236 1.385 . S
C2233 H2208 0.951 . S
C2233 C2231 1.388 . S
C2233 C2234 1.366 . S
C2234 C2233 1.366 . S
C2234 C2235 1.414 . S
C2234 C2237 1.499 . S
C2235 H2209 0.950 . S
C2235 C2234 1.414 . S
C2235 C2236 1.374 . S
C2236 H2210 0.950 . S
C2236 C2232 1.385 . S
C2236 C2235 1.374 . S
C2237 C2234 1.499 . S
C2237 C2238 1.373 . S
C2237 C2239 1.389 . S
C2238 H2211 0.950 . S
C2238 C2224 1.377 . S
C2238 C2237 1.373 . S
C2239 C2223 1.377 . S
C2239 C2237 1.389 . S
C2239 C2240 1.524 . S
C2240 C2239 1.524 . S
C2240 C2241 1.397 . S
C2240 C2245 1.363 . S
C2241 H2212 0.950 . S
C2241 C2240 1.397 . S
C2241 C2242 1.334 . S
C2242 H2213 0.950 1_556 S
C2242 C2241 1.334 . S
C2242 C2243 1.287 . S
C2243 C2242 1.287 . S
C2243 C2244 1.524 . S
C2243 H2246 0.999 1_556 S
C2244 H2214 0.950 . S
C2244 C2243 1.524 . S
C2244 C2245 1.415 . S
C2245 H2215 0.950 . S
C2245 C2240 1.363 . S
C2245 C2244 1.415 . S
H2246 C2243 0.999 1_554 S
H2247 C2228 0.913 . S
H2248 C2266 0.951 . S
H2249 C2268 0.951 . S
H2250 C2270 0.950 . S
H2251 C2271 0.950 . S
H2252 C2273 0.950 . S
H2253 C2276 0.950 . S
H2254 C2277 0.950 . S
H2255 C2279 0.950 . S
H2256 C2280 0.950 . S
H2257 C2281 0.951 . S
H2258 C2283 0.951 . S
H2259 C2285 0.950 . S
H2260 C2286 0.950 . S
H2261 C2288 0.950 . S
H2262 C2291 0.950 . S
H2263 C2292 0.950 . S
H2264 C2294 0.950 . S
H2265 C2295 0.950 . S
C2266 H2248 0.951 . S
C2266 C2267 1.366 . S
C2266 C2268 1.388 . S
C2267 C2266 1.366 . S
C2267 C2271 1.385 . S
C2268 H2249 0.951 . S
C2268 C2266 1.388 . S
C2268 C2269 1.366 . S
C2269 C2268 1.366 . S
C2269 C2270 1.414 . S
C2269 C2272 1.499 . S
C2270 H2250 0.950 . S
C2270 C2269 1.414 . S
C2270 C2271 1.374 . S
C2271 H2251 0.950 . S
C2271 C2267 1.385 . S
C2271 C2270 1.374 . S
C2272 C2269 1.499 . S
C2272 C2273 1.373 . S
C2272 C2274 1.389 . S
C2273 H2252 0.950 . S
C2273 C2272 1.373 . S
C2273 C2289 1.377 . S
C2274 C2272 1.389 . S
C2274 C2275 1.524 . S
C2274 C2288 1.377 . S
C2275 C2274 1.524 . S
C2275 C2276 1.397 . S
C2275 C2280 1.363 . S
C2276 H2253 0.950 . S
C2276 C2275 1.397 . S
C2276 C2277 1.334 . S
C2277 H2254 0.950 . S
C2277 C2276 1.334 . S
C2277 C2278 1.287 . S
C2278 C2277 1.287 . S
C2278 C2279 1.524 . S
C2278 H2297 0.913 . S
C2279 H2255 0.950 . S
C2279 C2278 1.524 . S
C2279 C2280 1.415 . S
C2280 H2256 0.950 . S
C2280 C2275 1.363 . S
C2280 C2279 1.415 . S
C2281 H2257 0.951 . S
C2281 C2282 1.366 . S
C2281 C2283 1.388 . S
C2282 C2281 1.366 . S
C2282 C2286 1.385 . S
C2283 H2258 0.951 . S
C2283 C2281 1.388 . S
C2283 C2284 1.366 . S
C2284 C2283 1.366 . S
C2284 C2285 1.414 . S
C2284 C2287 1.499 . S
C2285 H2259 0.950 . S
C2285 C2284 1.414 . S
C2285 C2286 1.374 . S
C2286 H2260 0.950 . S
C2286 C2282 1.385 . S
C2286 C2285 1.374 . S
C2287 C2284 1.499 . S
C2287 C2288 1.373 . S
C2287 C2289 1.389 . S
C2288 H2261 0.950 . S
C2288 C2274 1.377 . S
C2288 C2287 1.373 . S
C2289 C2273 1.377 . S
C2289 C2287 1.389 . S
C2289 C2290 1.524 . S
C2290 C2289 1.524 . S
C2290 C2291 1.397 . S
C2290 C2295 1.363 . S
C2291 H2262 0.950 . S
C2291 C2290 1.397 . S
C2291 C2292 1.334 . S
C2292 H2263 0.950 . S
C2292 C2291 1.334 . S
C2292 C2293 1.287 . S
C2293 C2292 1.287 . S
C2293 C2294 1.524 . S
C2293 H2296 0.999 . S
C2294 H2264 0.950 . S
C2294 C2293 1.524 . S
C2294 C2295 1.415 . S
C2295 H2265 0.950 . S
C2295 C2290 1.363 . S
C2295 C2294 1.415 . S
H2296 C2293 0.999 . S
H2297 C2278 0.913 . S
H2298 C2316 0.951 . S
H2299 C2318 0.951 . S
H2300 C2320 0.950 . S
H2301 C2321 0.950 . S
H2302 C2323 0.950 . S
H2303 C2326 0.950 . S
H2304 C2327 0.938 1_556 S
H2305 C2329 0.950 . S
H2306 C2330 0.950 . S
H2307 C2331 0.951 . S
H2308 C2333 0.951 . S
H2309 C2335 0.950 . S
H2310 C2336 0.950 . S
H2311 C2338 0.950 . S
H2312 C2341 0.950 . S
H2313 C2342 0.950 . S
H2314 C2344 0.950 . S
H2315 C2345 0.950 . S
C2316 H2298 0.951 . S
C2316 C2317 1.366 . S
C2316 C2318 1.388 . S
C2317 C2316 1.366 . S
C2317 C2321 1.385 . S
C2318 H2299 0.951 . S
C2318 C2316 1.388 . S
C2318 C2319 1.366 . S
C2319 C2318 1.366 . S
C2319 C2320 1.414 . S
C2319 C2322 1.499 . S
C2320 H2300 0.950 . S
C2320 C2319 1.414 . S
C2320 C2321 1.374 . S
C2321 H2301 0.950 . S
C2321 C2317 1.385 . S
C2321 C2320 1.374 . S
C2322 C2319 1.499 . S
C2322 C2323 1.373 . S
C2322 C2324 1.389 . S
C2323 H2302 0.950 . S
C2323 C2322 1.373 . S
C2323 C2339 1.377 . S
C2324 C2322 1.389 . S
C2324 C2325 1.524 . S
C2324 C2338 1.377 . S
C2325 C2324 1.524 . S
C2325 C2326 1.397 . S
C2325 C2330 1.363 . S
C2326 H2303 0.950 . S
C2326 C2325 1.397 . S
C2326 C2327 1.350 . S
C2327 H2304 0.938 1_554 S
C2327 C2326 1.350 . S
C2327 C2328 1.284 1_554 S
C2328 C2327 1.284 1_556 S
C2328 C2329 1.524 1_556 S
C2328 H2347 0.913 . S
C2329 H2305 0.950 . S
C2329 C2328 1.524 1_554 S
C2329 C2330 1.415 . S
C2330 H2306 0.950 . S
C2330 C2325 1.363 . S
C2330 C2329 1.415 . S
C2331 H2307 0.951 . S
C2331 C2332 1.366 . S
C2331 C2333 1.388 . S
C2332 C2331 1.366 . S
C2332 C2336 1.385 . S
C2333 H2308 0.951 . S
C2333 C2331 1.388 . S
C2333 C2334 1.366 . S
C2334 C2333 1.366 . S
C2334 C2335 1.414 . S
C2334 C2337 1.499 . S
C2335 H2309 0.950 . S
C2335 C2334 1.414 . S
C2335 C2336 1.374 . S
C2336 H2310 0.950 . S
C2336 C2332 1.385 . S
C2336 C2335 1.374 . S
C2337 C2334 1.499 . S
C2337 C2338 1.373 . S
C2337 C2339 1.389 . S
C2338 H2311 0.950 . S
C2338 C2324 1.377 . S
C2338 C2337 1.373 . S
C2339 C2323 1.377 . S
C2339 C2337 1.389 . S
C2339 C2340 1.524 . S
C2340 C2339 1.524 . S
C2340 C2341 1.397 . S
C2340 C2345 1.363 . S
C2341 H2312 0.950 . S
C2341 C2340 1.397 . S
C2341 C2342 1.334 . S
C2342 H2313 0.950 . S
C2342 C2341 1.334 . S
C2342 C2343 1.287 . S
C2343 C2342 1.287 . S
C2343 C2344 1.524 . S
C2343 H2346 0.999 . S
C2344 H2314 0.950 . S
C2344 C2343 1.524 . S
C2344 C2345 1.415 . S
C2345 H2315 0.950 . S
C2345 C2340 1.363 . S
C2345 C2344 1.415 . S
H2346 C2343 0.999 . S
H2347 C2328 0.913 . S
H2348 C2366 0.951 . S
H2349 C2368 0.951 . S
H2350 C2370 0.950 . S
H2351 C2371 0.950 . S
H2352 C2373 0.950 . S
H2353 C2376 0.950 . S
H2354 C2377 0.950 . S
H2355 C2379 0.950 . S
H2356 C2380 0.950 . S
H2357 C2381 0.951 . S
H2358 C2383 0.951 . S
H2359 C2385 0.950 . S
H2360 C2386 0.950 . S
H2361 C2388 0.950 . S
H2362 C2391 0.950 . S
H2363 C2392 0.950 . S
H2364 C2394 0.950 . S
H2365 C2395 0.950 . S
C2366 H2348 0.951 . S
C2366 C2367 1.366 . S
C2366 C2368 1.388 . S
C2367 C2366 1.366 . S
C2367 C2371 1.385 . S
C2368 H2349 0.951 . S
C2368 C2366 1.388 . S
C2368 C2369 1.366 . S
C2369 C2368 1.366 . S
C2369 C2370 1.414 . S
C2369 C2372 1.499 . S
C2370 H2350 0.950 . S
C2370 C2369 1.414 . S
C2370 C2371 1.374 . S
C2371 H2351 0.950 . S
C2371 C2367 1.385 . S
C2371 C2370 1.374 . S
C2372 C2369 1.499 . S
C2372 C2373 1.373 . S
C2372 C2374 1.389 . S
C2373 H2352 0.950 . S
C2373 C2372 1.373 . S
C2373 C2389 1.377 . S
C2374 C2372 1.389 . S
C2374 C2375 1.524 . S
C2374 C2388 1.377 . S
C2375 C2374 1.524 . S
C2375 C2376 1.397 . S
C2375 C2380 1.363 . S
C2376 H2353 0.950 . S
C2376 C2375 1.397 . S
C2376 C2377 1.334 . S
C2377 H2354 0.950 . S
C2377 C2376 1.334 . S
C2377 C2378 1.287 . S
C2378 C2377 1.287 . S
C2378 C2379 1.524 . S
C2378 H2397 0.913 . S
C2379 H2355 0.950 . S
C2379 C2378 1.524 . S
C2379 C2380 1.415 . S
C2380 H2356 0.950 . S
C2380 C2375 1.363 . S
C2380 C2379 1.415 . S
C2381 H2357 0.951 . S
C2381 C2382 1.366 . S
C2381 C2383 1.388 . S
C2382 C2381 1.366 . S
C2382 C2386 1.385 . S
C2383 H2358 0.951 . S
C2383 C2381 1.388 . S
C2383 C2384 1.366 . S
C2384 C2383 1.366 . S
C2384 C2385 1.414 . S
C2384 C2387 1.499 . S
C2385 H2359 0.950 . S
C2385 C2384 1.414 . S
C2385 C2386 1.374 . S
C2386 H2360 0.950 . S
C2386 C2382 1.385 . S
C2386 C2385 1.374 . S
C2387 C2384 1.499 . S
C2387 C2388 1.373 . S
C2387 C2389 1.389 . S
C2388 H2361 0.950 . S
C2388 C2374 1.377 . S
C2388 C2387 1.373 . S
C2389 C2373 1.377 . S
C2389 C2387 1.389 . S
C2389 C2390 1.524 . S
C2390 C2389 1.524 . S
C2390 C2391 1.397 . S
C2390 C2395 1.363 . S
C2391 H2362 0.950 . S
C2391 C2390 1.397 . S
C2391 C2392 1.334 . S
C2392 H2363 0.950 . S
C2392 C2391 1.334 . S
C2392 C2393 1.287 . S
C2393 C2392 1.287 . S
C2393 C2394 1.524 . S
C2393 H2396 0.999 . S
C2394 H2364 0.950 . S
C2394 C2393 1.524 . S
C2394 C2395 1.415 . S
C2395 H2365 0.950 . S
C2395 C2390 1.363 . S
C2395 C2394 1.415 . S
H2396 C2393 0.999 . S
H2397 C2378 0.913 . S
H2398 C2416 0.951 . S
H2399 C2418 0.951 . S
H2400 C2420 0.950 . S
H2401 C2421 0.950 . S
H2402 C2423 0.950 . S
H2403 C2426 0.950 . S
H2404 C2427 0.950 . S
H2405 C2429 0.950 . S
H2406 C2430 0.950 . S
H2407 C2431 0.951 . S
H2408 C2433 0.951 . S
H2409 C2435 0.950 . S
H2410 C2436 0.950 . S
H2411 C2438 0.950 . S
H2412 C2441 0.950 . S
H2413 C2442 0.950 . S
H2414 C2444 0.950 . S
H2415 C2445 0.950 . S
C2416 H2398 0.951 . S
C2416 C2417 1.366 . S
C2416 C2418 1.388 . S
C2417 C2416 1.366 . S
C2417 C2421 1.385 . S
C2418 H2399 0.951 . S
C2418 C2416 1.388 . S
C2418 C2419 1.366 . S
C2419 C2418 1.366 . S
C2419 C2420 1.414 . S
C2419 C2422 1.499 . S
C2420 H2400 0.950 . S
C2420 C2419 1.414 . S
C2420 C2421 1.374 . S
C2421 H2401 0.950 . S
C2421 C2417 1.385 . S
C2421 C2420 1.374 . S
C2422 C2419 1.499 . S
C2422 C2423 1.373 . S
C2422 C2424 1.389 . S
C2423 H2402 0.950 . S
C2423 C2422 1.373 . S
C2423 C2439 1.377 1_655 S
C2424 C2422 1.389 . S
C2424 C2425 1.524 . S
C2424 C2438 1.377 1_655 S
C2425 C2424 1.524 . S
C2425 C2426 1.397 . S
C2425 C2430 1.363 . S
C2426 H2403 0.950 . S
C2426 C2425 1.397 . S
C2426 C2427 1.334 . S
C2427 H2404 0.950 . S
C2427 C2426 1.334 . S
C2427 C2428 1.287 . S
C2428 C2427 1.287 . S
C2428 C2429 1.524 . S
C2428 H2447 0.913 . S
C2429 H2405 0.950 . S
C2429 C2428 1.524 . S
C2429 C2430 1.415 . S
C2430 H2406 0.950 . S
C2430 C2425 1.363 . S
C2430 C2429 1.415 . S
C2431 H2407 0.951 . S
C2431 C2432 1.366 . S
C2431 C2433 1.388 . S
C2432 C2431 1.366 . S
C2432 C2436 1.385 . S
C2433 H2408 0.951 . S
C2433 C2431 1.388 . S
C2433 C2434 1.366 . S
C2434 C2433 1.366 . S
C2434 C2435 1.414 . S
C2434 C2437 1.499 . S
C2435 H2409 0.950 . S
C2435 C2434 1.414 . S
C2435 C2436 1.374 . S
C2436 H2410 0.950 . S
C2436 C2432 1.385 . S
C2436 C2435 1.374 . S
C2437 C2434 1.499 . S
C2437 C2438 1.373 . S
C2437 C2439 1.389 . S
C2438 H2411 0.950 . S
C2438 C2424 1.377 1_455 S
C2438 C2437 1.373 . S
C2439 C2423 1.377 1_455 S
C2439 C2437 1.389 . S
C2439 C2440 1.524 . S
C2440 C2439 1.524 . S
C2440 C2441 1.397 . S
C2440 C2445 1.363 . S
C2441 H2412 0.950 . S
C2441 C2440 1.397 . S
C2441 C2442 1.334 . S
C2442 H2413 0.950 . S
C2442 C2441 1.334 . S
C2442 C2443 1.287 . S
C2443 C2442 1.287 . S
C2443 C2444 1.524 . S
C2443 H2446 0.999 . S
C2444 H2414 0.950 . S
C2444 C2443 1.524 . S
C2444 C2445 1.415 . S
C2445 H2415 0.950 . S
C2445 C2440 1.363 . S
C2445 C2444 1.415 . S
H2446 C2443 0.999 . S
H2447 C2428 0.913 . S
H2448 C2466 0.951 . S
H2449 C2468 0.951 . S
H2450 C2470 0.950 . S
H2451 C2471 0.950 . S
H2452 C2473 0.950 . S
H2453 C2476 0.950 . S
H2454 C2477 0.950 . S
H2455 C2479 0.950 . S
H2456 C2480 0.950 . S
H2457 C2481 0.951 . S
H2458 C2483 0.951 . S
H2459 C2485 0.950 . S
H2460 C2486 0.950 . S
H2461 C2488 0.950 . S
H2462 C2491 0.950 . S
H2463 C2492 0.950 . S
H2464 C2494 0.940 1_554 S
H2465 C2495 0.950 . S
C2466 H2448 0.951 . S
C2466 C2467 1.366 . S
C2466 C2468 1.388 . S
C2467 C2466 1.366 . S
C2467 C2471 1.385 . S
C2468 H2449 0.951 . S
C2468 C2466 1.388 . S
C2468 C2469 1.366 . S
C2469 C2468 1.366 . S
C2469 C2470 1.414 . S
C2469 C2472 1.499 . S
C2470 H2450 0.950 . S
C2470 C2469 1.414 . S
C2470 C2471 1.374 . S
C2471 H2451 0.950 . S
C2471 C2467 1.385 . S
C2471 C2470 1.374 . S
C2472 C2469 1.499 . S
C2472 C2473 1.373 . S
C2472 C2474 1.389 . S
C2473 H2452 0.950 . S
C2473 C2472 1.373 . S
C2473 C2489 1.377 . S
C2474 C2472 1.389 . S
C2474 C2475 1.524 . S
C2474 C2488 1.377 . S
C2475 C2474 1.524 . S
C2475 C2476 1.397 . S
C2475 C2480 1.363 . S
C2476 H2453 0.950 . S
C2476 C2475 1.397 . S
C2476 C2477 1.334 . S
C2477 H2454 0.950 . S
C2477 C2476 1.334 . S
C2477 C2478 1.287 . S
C2478 C2477 1.287 . S
C2478 C2479 1.524 . S
C2478 H2497 0.913 . S
C2479 H2455 0.950 . S
C2479 C2478 1.524 . S
C2479 C2480 1.415 . S
C2480 H2456 0.950 . S
C2480 C2475 1.363 . S
C2480 C2479 1.415 . S
C2481 H2457 0.951 . S
C2481 C2482 1.366 . S
C2481 C2483 1.388 . S
C2482 C2481 1.366 . S
C2482 C2486 1.385 . S
C2483 H2458 0.951 . S
C2483 C2481 1.388 . S
C2483 C2484 1.366 . S
C2484 C2483 1.366 . S
C2484 C2485 1.414 . S
C2484 C2487 1.499 . S
C2485 H2459 0.950 . S
C2485 C2484 1.414 . S
C2485 C2486 1.374 . S
C2486 H2460 0.950 . S
C2486 C2482 1.385 . S
C2486 C2485 1.374 . S
C2487 C2484 1.499 . S
C2487 C2488 1.373 . S
C2487 C2489 1.389 . S
C2488 H2461 0.950 . S
C2488 C2474 1.377 . S
C2488 C2487 1.373 . S
C2489 C2473 1.377 . S
C2489 C2487 1.389 . S
C2489 C2490 1.524 . S
C2490 C2489 1.524 . S
C2490 C2491 1.397 . S
C2490 C2495 1.363 . S
C2491 H2462 0.950 . S
C2491 C2490 1.397 . S
C2491 C2492 1.334 . S
C2492 H2463 0.950 . S
C2492 C2491 1.334 . S
C2492 C2493 1.287 . S
C2493 C2492 1.287 . S
C2493 C2494 1.530 . S
C2493 H2496 0.999 . S
C2494 H2464 0.940 1_556 S
C2494 C2493 1.530 . S
C2494 C2495 1.420 . S
C2495 H2465 0.950 . S
C2495 C2490 1.363 . S
C2495 C2494 1.420 . S
H2496 C2493 0.999 . S
H2497 C2478 0.913 . S
H2498 C2516 0.951 . S
H2499 C2518 0.951 . S
H2500 C2520 0.950 . S
H2501 C2521 0.950 . S
H2502 C2523 0.950 . S
H2503 C2526 0.950 . S
H2504 C2527 0.950 . S
H2505 C2529 0.950 . S
H2506 C2530 0.950 . S
H2507 C2531 0.951 . S
H2508 C2533 0.951 . S
H2509 C2535 0.950 . S
H2510 C2536 0.950 . S
H2511 C2538 0.950 . S
H2512 C2541 0.950 . S
H2513 C2542 0.950 . S
H2514 C2544 0.950 . S
H2515 C2545 0.950 . S
C2516 H2498 0.951 . S
C2516 C2517 1.366 . S
C2516 C2518 1.388 . S
C2517 C2516 1.366 . S
C2517 C2521 1.385 . S
C2518 H2499 0.951 . S
C2518 C2516 1.388 . S
C2518 C2519 1.366 . S
C2519 C2518 1.366 . S
C2519 C2520 1.414 . S
C2519 C2522 1.499 . S
C2520 H2500 0.950 . S
C2520 C2519 1.414 . S
C2520 C2521 1.374 . S
C2521 H2501 0.950 . S
C2521 C2517 1.385 . S
C2521 C2520 1.374 . S
C2522 C2519 1.499 . S
C2522 C2523 1.373 . S
C2522 C2524 1.389 . S
C2523 H2502 0.950 . S
C2523 C2522 1.373 . S
C2523 C2539 1.377 . S
C2524 C2522 1.389 . S
C2524 C2525 1.524 . S
C2524 C2538 1.377 . S
C2525 C2524 1.524 . S
C2525 C2526 1.397 . S
C2525 C2530 1.363 . S
C2526 H2503 0.950 . S
C2526 C2525 1.397 . S
C2526 C2527 1.334 . S
C2527 H2504 0.950 . S
C2527 C2526 1.334 . S
C2527 C2528 1.287 . S
C2528 C2527 1.287 . S
C2528 C2529 1.524 . S
C2528 H2547 0.913 . S
C2529 H2505 0.950 . S
C2529 C2528 1.524 . S
C2529 C2530 1.415 . S
C2530 H2506 0.950 . S
C2530 C2525 1.363 . S
C2530 C2529 1.415 . S
C2531 H2507 0.951 . S
C2531 C2532 1.366 . S
C2531 C2533 1.388 . S
C2532 C2531 1.366 . S
C2532 C2536 1.385 . S
C2533 H2508 0.951 . S
C2533 C2531 1.388 . S
C2533 C2534 1.366 . S
C2534 C2533 1.366 . S
C2534 C2535 1.414 . S
C2534 C2537 1.499 . S
C2535 H2509 0.950 . S
C2535 C2534 1.414 . S
C2535 C2536 1.374 . S
C2536 H2510 0.950 . S
C2536 C2532 1.385 . S
C2536 C2535 1.374 . S
C2537 C2534 1.499 . S
C2537 C2538 1.373 . S
C2537 C2539 1.389 . S
C2538 H2511 0.950 . S
C2538 C2524 1.377 . S
C2538 C2537 1.373 . S
C2539 C2523 1.377 . S
C2539 C2537 1.389 . S
C2539 C2540 1.524 . S
C2540 C2539 1.524 . S
C2540 C2541 1.397 . S
C2540 C2545 1.363 . S
C2541 H2512 0.950 . S
C2541 C2540 1.397 . S
C2541 C2542 1.334 . S
C2542 H2513 0.950 . S
C2542 C2541 1.334 . S
C2542 C2543 1.287 . S
C2543 C2542 1.287 . S
C2543 C2544 1.524 . S
C2543 H2546 0.999 . S
C2544 H2514 0.950 . S
C2544 C2543 1.524 . S
C2544 C2545 1.415 . S
C2545 H2515 0.950 . S
C2545 C2540 1.363 . S
C2545 C2544 1.415 . S
H2546 C2543 0.999 . S
H2547 C2528 0.913 . S
H2548 C2566 0.951 . S
H2549 C2568 0.951 . S
H2550 C2570 0.950 . S
H2551 C2571 0.950 . S
H2552 C2573 0.950 . S
H2553 C2576 0.950 . S
H2554 C2577 0.950 . S
H2555 C2579 0.950 . S
H2556 C2580 0.950 . S
H2557 C2581 0.951 . S
H2558 C2583 0.951 . S
H2559 C2585 0.950 . S
H2560 C2586 0.950 . S
H2561 C2588 0.950 . S
H2562 C2591 0.950 . S
H2563 C2592 0.950 . S
H2564 C2594 0.950 . S
H2565 C2595 0.950 . S
C2566 H2548 0.951 . S
C2566 C2567 1.366 . S
C2566 C2568 1.388 . S
C2567 C2566 1.366 . S
C2567 C2571 1.385 . S
C2568 H2549 0.951 . S
C2568 C2566 1.388 . S
C2568 C2569 1.366 . S
C2569 C2568 1.366 . S
C2569 C2570 1.414 . S
C2569 C2572 1.499 . S
C2570 H2550 0.950 . S
C2570 C2569 1.414 . S
C2570 C2571 1.374 . S
C2571 H2551 0.950 . S
C2571 C2567 1.385 . S
C2571 C2570 1.374 . S
C2572 C2569 1.499 . S
C2572 C2573 1.373 . S
C2572 C2574 1.389 . S
C2573 H2552 0.950 . S
C2573 C2572 1.373 . S
C2573 C2589 1.377 . S
C2574 C2572 1.389 . S
C2574 C2575 1.524 . S
C2574 C2588 1.377 . S
C2575 C2574 1.524 . S
C2575 C2576 1.397 . S
C2575 C2580 1.363 . S
C2576 H2553 0.950 . S
C2576 C2575 1.397 . S
C2576 C2577 1.334 . S
C2577 H2554 0.950 . S
C2577 C2576 1.334 . S
C2577 C2578 1.287 . S
C2578 C2577 1.287 . S
C2578 C2579 1.524 . S
C2578 H2597 0.913 . S
C2579 H2555 0.950 . S
C2579 C2578 1.524 . S
C2579 C2580 1.415 . S
C2580 H2556 0.950 . S
C2580 C2575 1.363 . S
C2580 C2579 1.415 . S
C2581 H2557 0.951 . S
C2581 C2582 1.366 . S
C2581 C2583 1.388 . S
C2582 C2581 1.366 . S
C2582 C2586 1.385 . S
C2583 H2558 0.951 . S
C2583 C2581 1.388 . S
C2583 C2584 1.366 . S
C2584 C2583 1.366 . S
C2584 C2585 1.414 . S
C2584 C2587 1.499 . S
C2585 H2559 0.950 . S
C2585 C2584 1.414 . S
C2585 C2586 1.374 . S
C2586 H2560 0.950 . S
C2586 C2582 1.385 . S
C2586 C2585 1.374 . S
C2587 C2584 1.499 . S
C2587 C2588 1.373 . S
C2587 C2589 1.389 . S
C2588 H2561 0.950 . S
C2588 C2574 1.377 . S
C2588 C2587 1.373 . S
C2589 C2573 1.377 . S
C2589 C2587 1.389 . S
C2589 C2590 1.524 . S
C2590 C2589 1.524 . S
C2590 C2591 1.397 . S
C2590 C2595 1.363 . S
C2591 H2562 0.950 . S
C2591 C2590 1.397 . S
C2591 C2592 1.334 1_554 S
C2592 H2563 0.950 . S
C2592 C2591 1.334 1_556 S
C2592 C2593 1.287 . S
C2593 C2592 1.287 . S
C2593 C2594 1.524 . S
C2593 H2596 0.999 . S
C2594 H2564 0.950 . S
C2594 C2593 1.524 . S
C2594 C2595 1.415 1_556 S
C2595 H2565 0.950 . S
C2595 C2590 1.363 . S
C2595 C2594 1.415 1_554 S
H2596 C2593 0.999 . S
H2597 C2578 0.913 . S
H2598 C2616 0.951 . S
H2599 C2618 0.951 . S
H2600 C2620 0.950 . S
H2601 C2621 0.950 . S
H2602 C2623 0.950 . S
H2603 C2626 0.950 . S
H2604 C2627 0.950 . S
H2605 C2629 0.950 . S
H2606 C2630 0.950 . S
H2607 C2631 0.951 . S
H2608 C2633 0.951 . S
H2609 C2635 0.950 . S
H2610 C2636 0.950 . S
H2611 C2638 0.950 . S
H2612 C2641 0.950 . S
H2613 C2642 0.950 . S
H2614 C2644 0.950 . S
H2615 C2645 0.950 . S
C2616 H2598 0.951 . S
C2616 C2617 1.366 . S
C2616 C2618 1.388 . S
C2617 C2616 1.366 . S
C2617 C2621 1.385 . S
C2618 H2599 0.951 . S
C2618 C2616 1.388 . S
C2618 C2619 1.366 . S
C2619 C2618 1.366 . S
C2619 C2620 1.414 . S
C2619 C2622 1.499 . S
C2620 H2600 0.950 . S
C2620 C2619 1.414 . S
C2620 C2621 1.374 . S
C2621 H2601 0.950 . S
C2621 C2617 1.385 . S
C2621 C2620 1.374 . S
C2622 C2619 1.499 . S
C2622 C2623 1.373 . S
C2622 C2624 1.389 . S
C2623 H2602 0.950 . S
C2623 C2622 1.373 . S
C2623 C2639 1.377 . S
C2624 C2622 1.389 . S
C2624 C2625 1.524 . S
C2624 C2638 1.377 . S
C2625 C2624 1.524 . S
C2625 C2626 1.397 . S
C2625 C2630 1.363 . S
C2626 H2603 0.950 . S
C2626 C2625 1.397 . S
C2626 C2627 1.334 . S
C2627 H2604 0.950 . S
C2627 C2626 1.334 . S
C2627 C2628 1.287 . S
C2628 C2627 1.287 . S
C2628 C2629 1.524 . S
C2628 H2647 0.913 . S
C2629 H2605 0.950 . S
C2629 C2628 1.524 . S
C2629 C2630 1.415 . S
C2630 H2606 0.950 . S
C2630 C2625 1.363 . S
C2630 C2629 1.415 . S
C2631 H2607 0.951 . S
C2631 C2632 1.366 . S
C2631 C2633 1.388 . S
C2632 C2631 1.366 . S
C2632 C2636 1.385 . S
C2633 H2608 0.951 . S
C2633 C2631 1.388 . S
C2633 C2634 1.366 . S
C2634 C2633 1.366 . S
C2634 C2635 1.414 . S
C2634 C2637 1.499 . S
C2635 H2609 0.950 . S
C2635 C2634 1.414 . S
C2635 C2636 1.374 . S
C2636 H2610 0.950 . S
C2636 C2632 1.385 . S
C2636 C2635 1.374 . S
C2637 C2634 1.499 . S
C2637 C2638 1.373 . S
C2637 C2639 1.389 . S
C2638 H2611 0.950 . S
C2638 C2624 1.377 . S
C2638 C2637 1.373 . S
C2639 C2623 1.377 . S
C2639 C2637 1.389 . S
C2639 C2640 1.524 . S
C2640 C2639 1.524 . S
C2640 C2641 1.397 . S
C2640 C2645 1.363 . S
C2641 H2612 0.950 . S
C2641 C2640 1.397 . S
C2641 C2642 1.334 . S
C2642 H2613 0.950 . S
C2642 C2641 1.334 . S
C2642 C2643 1.287 . S
C2643 C2642 1.287 . S
C2643 C2644 1.524 . S
C2643 H2646 0.999 . S
C2644 H2614 0.950 . S
C2644 C2643 1.524 . S
C2644 C2645 1.415 . S
C2645 H2615 0.950 . S
C2645 C2640 1.363 . S
C2645 C2644 1.415 . S
H2646 C2643 0.999 . S
H2647 C2628 0.913 . S
H2648 C2666 0.951 . S
H2649 C2668 0.951 . S
H2650 C2670 0.950 . S
H2651 C2671 0.950 . S
H2652 C2673 0.950 . S
H2653 C2676 0.950 . S
H2654 C2677 0.950 . S
H2655 C2679 0.950 . S
H2656 C2680 0.950 . S
H2657 C2681 0.951 . S
H2658 C2683 0.951 . S
H2659 C2685 0.950 . S
H2660 C2686 0.950 . S
H2661 C2688 0.950 . S
H2662 C2691 0.950 . S
H2663 C2692 0.950 . S
H2664 C2694 0.950 . S
H2665 C2695 0.950 . S
C2666 H2648 0.951 . S
C2666 C2667 1.366 . S
C2666 C2668 1.388 . S
C2667 C2666 1.366 . S
C2667 C2671 1.385 . S
C2668 H2649 0.951 . S
C2668 C2666 1.388 . S
C2668 C2669 1.366 . S
C2669 C2668 1.366 . S
C2669 C2670 1.414 . S
C2669 C2672 1.499 . S
C2670 H2650 0.950 . S
C2670 C2669 1.414 . S
C2670 C2671 1.374 . S
C2671 H2651 0.950 . S
C2671 C2667 1.385 . S
C2671 C2670 1.374 . S
C2672 C2669 1.499 . S
C2672 C2673 1.373 . S
C2672 C2674 1.389 . S
C2673 H2652 0.950 . S
C2673 C2672 1.373 . S
C2673 C2689 1.377 . S
C2674 C2672 1.389 . S
C2674 C2675 1.524 . S
C2674 C2688 1.377 . S
C2675 C2674 1.524 . S
C2675 C2676 1.397 . S
C2675 C2680 1.363 . S
C2676 H2653 0.950 . S
C2676 C2675 1.397 . S
C2676 C2677 1.334 1_556 S
C2677 H2654 0.950 . S
C2677 C2676 1.334 1_554 S
C2677 C2678 1.287 . S
C2678 C2677 1.287 . S
C2678 C2679 1.524 . S
C2678 H2697 0.913 . S
C2679 H2655 0.950 . S
C2679 C2678 1.524 . S
C2679 C2680 1.415 1_554 S
C2680 H2656 0.950 . S
C2680 C2675 1.363 . S
C2680 C2679 1.415 1_556 S
C2681 H2657 0.951 . S
C2681 C2682 1.366 . S
C2681 C2683 1.388 . S
C2682 C2681 1.366 . S
C2682 C2686 1.385 . S
C2683 H2658 0.951 . S
C2683 C2681 1.388 . S
C2683 C2684 1.366 . S
C2684 C2683 1.366 . S
C2684 C2685 1.414 . S
C2684 C2687 1.499 . S
C2685 H2659 0.950 . S
C2685 C2684 1.414 . S
C2685 C2686 1.374 . S
C2686 H2660 0.950 . S
C2686 C2682 1.385 . S
C2686 C2685 1.374 . S
C2687 C2684 1.499 . S
C2687 C2688 1.373 . S
C2687 C2689 1.389 . S
C2688 H2661 0.950 . S
C2688 C2674 1.377 . S
C2688 C2687 1.373 . S
C2689 C2673 1.377 . S
C2689 C2687 1.389 . S
C2689 C2690 1.524 . S
C2690 C2689 1.524 . S
C2690 C2691 1.397 . S
C2690 C2695 1.363 . S
C2691 H2662 0.950 . S
C2691 C2690 1.397 . S
C2691 C2692 1.334 . S
C2692 H2663 0.950 . S
C2692 C2691 1.334 . S
C2692 C2693 1.287 . S
C2693 C2692 1.287 . S
C2693 C2694 1.524 . S
C2693 H2696 0.999 . S
C2694 H2664 0.950 . S
C2694 C2693 1.524 . S
C2694 C2695 1.415 . S
C2695 H2665 0.950 . S
C2695 C2690 1.363 . S
C2695 C2694 1.415 . S
H2696 C2693 0.999 . S
H2697 C2678 0.913 . S
H2698 C2716 0.951 . S
H2699 C2718 0.951 . S
H2700 C2720 0.950 . S
H2701 C2721 0.950 . S
H2702 C2723 0.950 . S
H2703 C2726 0.950 . S
H2704 C2727 0.950 . S
H2705 C2729 0.950 . S
H2706 C2730 0.950 . S
H2707 C2731 0.951 . S
H2708 C2733 0.951 . S
H2709 C2735 0.950 . S
H2710 C2736 0.950 . S
H2711 C2738 0.950 . S
H2712 C2741 0.950 . S
H2713 C2742 0.950 . S
H2714 C2744 0.950 . S
H2715 C2745 0.950 . S
C2716 H2698 0.951 . S
C2716 C2717 1.366 . S
C2716 C2718 1.388 . S
C2717 C2716 1.366 . S
C2717 C2721 1.385 . S
C2718 H2699 0.951 . S
C2718 C2716 1.388 . S
C2718 C2719 1.366 . S
C2719 C2718 1.366 . S
C2719 C2720 1.414 . S
C2719 C2722 1.499 . S
C2720 H2700 0.950 . S
C2720 C2719 1.414 . S
C2720 C2721 1.374 . S
C2721 H2701 0.950 . S
C2721 C2717 1.385 . S
C2721 C2720 1.374 . S
C2722 C2719 1.499 . S
C2722 C2723 1.373 . S
C2722 C2724 1.389 . S
C2723 H2702 0.950 . S
C2723 C2722 1.373 . S
C2723 C2739 1.377 1_655 S
C2724 C2722 1.389 . S
C2724 C2725 1.524 . S
C2724 C2738 1.377 1_655 S
C2725 C2724 1.524 . S
C2725 C2726 1.397 . S
C2725 C2730 1.363 . S
C2726 H2703 0.950 . S
C2726 C2725 1.397 . S
C2726 C2727 1.334 . S
C2727 H2704 0.950 . S
C2727 C2726 1.334 . S
C2727 C2728 1.287 . S
C2728 C2727 1.287 . S
C2728 C2729 1.524 . S
C2728 H2747 0.913 . S
C2729 H2705 0.950 . S
C2729 C2728 1.524 . S
C2729 C2730 1.415 . S
C2730 H2706 0.950 . S
C2730 C2725 1.363 . S
C2730 C2729 1.415 . S
C2731 H2707 0.951 . S
C2731 C2732 1.366 . S
C2731 C2733 1.388 . S
C2732 C2731 1.366 . S
C2732 C2736 1.385 . S
C2733 H2708 0.951 . S
C2733 C2731 1.388 . S
C2733 C2734 1.366 . S
C2734 C2733 1.366 . S
C2734 C2735 1.414 . S
C2734 C2737 1.499 . S
C2735 H2709 0.950 . S
C2735 C2734 1.414 . S
C2735 C2736 1.374 . S
C2736 H2710 0.950 . S
C2736 C2732 1.385 . S
C2736 C2735 1.374 . S
C2737 C2734 1.499 . S
C2737 C2738 1.373 . S
C2737 C2739 1.389 . S
C2738 H2711 0.950 . S
C2738 C2724 1.377 1_455 S
C2738 C2737 1.373 . S
C2739 C2723 1.377 1_455 S
C2739 C2737 1.389 . S
C2739 C2740 1.524 . S
C2740 C2739 1.524 . S
C2740 C2741 1.397 . S
C2740 C2745 1.363 . S
C2741 H2712 0.950 . S
C2741 C2740 1.397 . S
C2741 C2742 1.334 . S
C2742 H2713 0.950 . S
C2742 C2741 1.334 . S
C2742 C2743 1.287 . S
C2743 C2742 1.287 . S
C2743 C2744 1.524 . S
C2743 H2746 0.999 . S
C2744 H2714 0.950 . S
C2744 C2743 1.524 . S
C2744 C2745 1.415 . S
C2745 H2715 0.950 . S
C2745 C2740 1.363 . S
C2745 C2744 1.415 . S
H2746 C2743 0.999 . S
H2747 C2728 0.913 . S
H2748 C2766 0.951 . S
H2749 C2768 0.951 . S
H2750 C2770 0.950 . S
H2751 C2771 0.950 . S
H2752 C2773 0.950 . S
H2753 C2776 0.950 . S
H2754 C2777 0.950 . S
H2755 C2779 0.950 . S
H2756 C2780 0.950 . S
H2757 C2781 0.951 . S
H2758 C2783 0.951 . S
H2759 C2785 0.950 . S
H2760 C2786 0.950 . S
H2761 C2788 0.950 . S
H2762 C2791 0.950 . S
H2763 C2792 0.950 . S
H2764 C2794 0.950 . S
H2765 C2795 0.950 . S
C2766 H2748 0.951 . S
C2766 C2767 1.366 . S
C2766 C2768 1.388 . S
C2767 C2766 1.366 . S
C2767 C2771 1.385 . S
C2768 H2749 0.951 . S
C2768 C2766 1.388 . S
C2768 C2769 1.366 . S
C2769 C2768 1.366 . S
C2769 C2770 1.414 . S
C2769 C2772 1.499 . S
C2770 H2750 0.950 . S
C2770 C2769 1.414 . S
C2770 C2771 1.374 . S
C2771 H2751 0.950 . S
C2771 C2767 1.385 . S
C2771 C2770 1.374 . S
C2772 C2769 1.499 . S
C2772 C2773 1.373 . S
C2772 C2774 1.389 . S
C2773 H2752 0.950 . S
C2773 C2772 1.373 . S
C2773 C2789 1.377 1_655 S
C2774 C2772 1.389 . S
C2774 C2775 1.524 . S
C2774 C2788 1.377 1_655 S
C2775 C2774 1.524 . S
C2775 C2776 1.397 . S
C2775 C2780 1.363 . S
C2776 H2753 0.950 . S
C2776 C2775 1.397 . S
C2776 C2777 1.334 . S
C2777 H2754 0.950 . S
C2777 C2776 1.334 . S
C2777 C2778 1.287 . S
C2778 C2777 1.287 . S
C2778 C2779 1.524 . S
C2778 H2797 0.913 . S
C2779 H2755 0.950 . S
C2779 C2778 1.524 . S
C2779 C2780 1.415 . S
C2780 H2756 0.950 . S
C2780 C2775 1.363 . S
C2780 C2779 1.415 . S
C2781 H2757 0.951 . S
C2781 C2782 1.366 . S
C2781 C2783 1.388 . S
C2782 C2781 1.366 . S
C2782 C2786 1.385 . S
C2783 H2758 0.951 . S
C2783 C2781 1.388 . S
C2783 C2784 1.366 . S
C2784 C2783 1.366 . S
C2784 C2785 1.414 . S
C2784 C2787 1.499 . S
C2785 H2759 0.950 . S
C2785 C2784 1.414 . S
C2785 C2786 1.374 . S
C2786 H2760 0.950 . S
C2786 C2782 1.385 . S
C2786 C2785 1.374 . S
C2787 C2784 1.499 . S
C2787 C2788 1.373 . S
C2787 C2789 1.389 . S
C2788 H2761 0.950 . S
C2788 C2774 1.377 1_455 S
C2788 C2787 1.373 . S
C2789 C2773 1.377 1_455 S
C2789 C2787 1.389 . S
C2789 C2790 1.524 . S
C2790 C2789 1.524 . S
C2790 C2791 1.397 . S
C2790 C2795 1.363 . S
C2791 H2762 0.950 . S
C2791 C2790 1.397 . S
C2791 C2792 1.334 . S
C2792 H2763 0.950 . S
C2792 C2791 1.334 . S
C2792 C2793 1.287 . S
C2793 C2792 1.287 . S
C2793 C2794 1.524 . S
C2793 H2796 0.999 . S
C2794 H2764 0.950 . S
C2794 C2793 1.524 . S
C2794 C2795 1.415 . S
C2795 H2765 0.950 . S
C2795 C2790 1.363 . S
C2795 C2794 1.415 . S
H2796 C2793 0.999 . S
H2797 C2778 0.913 . S
H2798 C2816 0.951 . S
H2799 C2818 0.951 . S
H2800 C2820 0.950 . S
H2801 C2821 0.950 . S
H2802 C2823 0.950 . S
H2803 C2826 0.950 . S
H2804 C2827 0.950 . S
H2805 C2829 0.950 . S
H2806 C2830 0.950 . S
H2807 C2831 0.951 . S
H2808 C2833 0.951 . S
H2809 C2835 0.950 . S
H2810 C2836 0.950 . S
H2811 C2838 0.950 . S
H2812 C2841 0.950 . S
H2813 C2842 0.950 . S
H2814 C2844 0.950 . S
H2815 C2845 0.950 . S
C2816 H2798 0.951 . S
C2816 C2817 1.366 . S
C2816 C2818 1.388 . S
C2817 C2816 1.366 . S
C2817 C2821 1.385 . S
C2818 H2799 0.951 . S
C2818 C2816 1.388 . S
C2818 C2819 1.366 . S
C2819 C2818 1.366 . S
C2819 C2820 1.414 . S
C2819 C2822 1.499 . S
C2820 H2800 0.950 . S
C2820 C2819 1.414 . S
C2820 C2821 1.374 . S
C2821 H2801 0.950 . S
C2821 C2817 1.385 . S
C2821 C2820 1.374 . S
C2822 C2819 1.499 . S
C2822 C2823 1.373 . S
C2822 C2824 1.389 . S
C2823 H2802 0.950 . S
C2823 C2822 1.373 . S
C2823 C2839 1.377 . S
C2824 C2822 1.389 . S
C2824 C2825 1.524 . S
C2824 C2838 1.377 . S
C2825 C2824 1.524 . S
C2825 C2826 1.397 . S
C2825 C2830 1.363 . S
C2826 H2803 0.950 . S
C2826 C2825 1.397 . S
C2826 C2827 1.334 . S
C2827 H2804 0.950 . S
C2827 C2826 1.334 . S
C2827 C2828 1.287 . S
C2828 C2827 1.287 . S
C2828 C2829 1.524 . S
C2828 H2847 0.913 . S
C2829 H2805 0.950 . S
C2829 C2828 1.524 . S
C2829 C2830 1.415 . S
C2830 H2806 0.950 . S
C2830 C2825 1.363 . S
C2830 C2829 1.415 . S
C2831 H2807 0.951 . S
C2831 C2832 1.366 . S
C2831 C2833 1.388 . S
C2832 C2831 1.366 . S
C2832 C2836 1.385 . S
C2833 H2808 0.951 . S
C2833 C2831 1.388 . S
C2833 C2834 1.366 . S
C2834 C2833 1.366 . S
C2834 C2835 1.414 . S
C2834 C2837 1.499 . S
C2835 H2809 0.950 . S
C2835 C2834 1.414 . S
C2835 C2836 1.374 . S
C2836 H2810 0.950 . S
C2836 C2832 1.385 . S
C2836 C2835 1.374 . S
C2837 C2834 1.499 . S
C2837 C2838 1.373 . S
C2837 C2839 1.389 . S
C2838 H2811 0.950 . S
C2838 C2824 1.377 . S
C2838 C2837 1.373 . S
C2839 C2823 1.377 . S
C2839 C2837 1.389 . S
C2839 C2840 1.524 . S
C2840 C2839 1.524 . S
C2840 C2841 1.397 . S
C2840 C2845 1.363 . S
C2841 H2812 0.950 . S
C2841 C2840 1.397 . S
C2841 C2842 1.334 . S
C2842 H2813 0.950 . S
C2842 C2841 1.334 . S
C2842 C2843 1.287 . S
C2843 C2842 1.287 . S
C2843 C2844 1.524 . S
C2843 H2846 0.999 . S
C2844 H2814 0.950 . S
C2844 C2843 1.524 . S
C2844 C2845 1.415 . S
C2845 H2815 0.950 . S
C2845 C2840 1.363 . S
C2845 C2844 1.415 . S
H2846 C2843 0.999 . S
H2847 C2828 0.913 . S
H2848 C2866 0.951 . S
H2849 C2868 0.951 . S
H2850 C2870 0.950 . S
H2851 C2871 0.950 . S
H2852 C2873 0.950 . S
H2853 C2876 0.950 . S
H2854 C2877 0.950 . S
H2855 C2879 0.950 . S
H2856 C2880 0.950 . S
H2857 C2881 0.951 . S
H2858 C2883 0.951 . S
H2859 C2885 0.950 . S
H2860 C2886 0.950 . S
H2861 C2888 0.950 . S
H2862 C2891 0.950 . S
H2863 C2892 0.950 . S
H2864 C2894 0.950 . S
H2865 C2895 0.950 . S
C2866 H2848 0.951 . S
C2866 C2867 1.366 . S
C2866 C2868 1.388 . S
C2867 C2866 1.366 . S
C2867 C2871 1.385 . S
C2868 H2849 0.951 . S
C2868 C2866 1.388 . S
C2868 C2869 1.366 . S
C2869 C2868 1.366 . S
C2869 C2870 1.414 . S
C2869 C2872 1.499 . S
C2870 H2850 0.950 . S
C2870 C2869 1.414 . S
C2870 C2871 1.374 . S
C2871 H2851 0.950 . S
C2871 C2867 1.385 . S
C2871 C2870 1.374 . S
C2872 C2869 1.499 . S
C2872 C2873 1.373 . S
C2872 C2874 1.389 . S
C2873 H2852 0.950 . S
C2873 C2872 1.373 . S
C2873 C2889 1.377 . S
C2874 C2872 1.389 . S
C2874 C2875 1.524 . S
C2874 C2888 1.377 . S
C2875 C2874 1.524 . S
C2875 C2876 1.397 . S
C2875 C2880 1.363 . S
C2876 H2853 0.950 . S
C2876 C2875 1.397 . S
C2876 C2877 1.334 . S
C2877 H2854 0.950 . S
C2877 C2876 1.334 . S
C2877 C2878 1.287 . S
C2878 C2877 1.287 . S
C2878 C2879 1.524 . S
C2878 H2897 0.913 . S
C2879 H2855 0.950 . S
C2879 C2878 1.524 . S
C2879 C2880 1.415 . S
C2880 H2856 0.950 . S
C2880 C2875 1.363 . S
C2880 C2879 1.415 . S
C2881 H2857 0.951 . S
C2881 C2882 1.366 . S
C2881 C2883 1.388 . S
C2882 C2881 1.366 . S
C2882 C2886 1.385 . S
C2883 H2858 0.951 . S
C2883 C2881 1.388 . S
C2883 C2884 1.366 . S
C2884 C2883 1.366 . S
C2884 C2885 1.414 . S
C2884 C2887 1.499 . S
C2885 H2859 0.950 . S
C2885 C2884 1.414 . S
C2885 C2886 1.374 . S
C2886 H2860 0.950 . S
C2886 C2882 1.385 . S
C2886 C2885 1.374 . S
C2887 C2884 1.499 . S
C2887 C2888 1.373 . S
C2887 C2889 1.389 . S
C2888 H2861 0.950 . S
C2888 C2874 1.377 . S
C2888 C2887 1.373 . S
C2889 C2873 1.377 . S
C2889 C2887 1.389 . S
C2889 C2890 1.524 . S
C2890 C2889 1.524 . S
C2890 C2891 1.397 . S
C2890 C2895 1.363 . S
C2891 H2862 0.950 . S
C2891 C2890 1.397 . S
C2891 C2892 1.334 . S
C2892 H2863 0.950 . S
C2892 C2891 1.334 . S
C2892 C2893 1.287 . S
C2893 C2892 1.287 . S
C2893 C2894 1.524 . S
C2893 H2896 0.999 . S
C2894 H2864 0.950 . S
C2894 C2893 1.524 . S
C2894 C2895 1.415 . S
C2895 H2865 0.950 . S
C2895 C2890 1.363 . S
C2895 C2894 1.415 . S
H2896 C2893 0.999 . S
H2897 C2878 0.913 . S
H2898 C2916 0.951 . S
H2899 C2918 0.951 . S
H2900 C2920 0.950 . S
H2901 C2921 0.950 . S
H2902 C2923 0.950 . S
H2903 C2926 0.950 . S
H2904 C2927 0.950 . S
H2905 C2929 0.950 . S
H2906 C2930 0.950 . S
H2907 C2931 0.951 . S
H2908 C2933 0.951 . S
H2909 C2935 0.950 . S
H2910 C2936 0.950 . S
H2911 C2938 0.950 . S
H2912 C2941 0.950 . S
H2913 C2942 0.950 . S
H2914 C2944 0.950 . S
H2915 C2945 0.950 . S
C2916 H2898 0.951 . S
C2916 C2917 1.366 . S
C2916 C2918 1.388 . S
C2917 C2916 1.366 . S
C2917 C2921 1.385 . S
C2918 H2899 0.951 . S
C2918 C2916 1.388 . S
C2918 C2919 1.366 . S
C2919 C2918 1.366 . S
C2919 C2920 1.414 . S
C2919 C2922 1.499 . S
C2920 H2900 0.950 . S
C2920 C2919 1.414 . S
C2920 C2921 1.374 . S
C2921 H2901 0.950 . S
C2921 C2917 1.385 . S
C2921 C2920 1.374 . S
C2922 C2919 1.499 . S
C2922 C2923 1.373 . S
C2922 C2924 1.389 . S
C2923 H2902 0.950 . S
C2923 C2922 1.373 . S
C2923 C2939 1.377 . S
C2924 C2922 1.389 . S
C2924 C2925 1.524 . S
C2924 C2938 1.377 . S
C2925 C2924 1.524 . S
C2925 C2926 1.397 . S
C2925 C2930 1.363 . S
C2926 H2903 0.950 . S
C2926 C2925 1.397 . S
C2926 C2927 1.334 . S
C2927 H2904 0.950 . S
C2927 C2926 1.334 . S
C2927 C2928 1.287 . S
C2928 C2927 1.287 . S
C2928 C2929 1.524 . S
C2928 H2947 0.913 . S
C2929 H2905 0.950 . S
C2929 C2928 1.524 . S
C2929 C2930 1.415 . S
C2930 H2906 0.950 . S
C2930 C2925 1.363 . S
C2930 C2929 1.415 . S
C2931 H2907 0.951 . S
C2931 C2932 1.366 . S
C2931 C2933 1.388 . S
C2932 C2931 1.366 . S
C2932 C2936 1.385 . S
C2933 H2908 0.951 . S
C2933 C2931 1.388 . S
C2933 C2934 1.366 . S
C2934 C2933 1.366 . S
C2934 C2935 1.414 . S
C2934 C2937 1.499 . S
C2935 H2909 0.950 . S
C2935 C2934 1.414 . S
C2935 C2936 1.374 . S
C2936 H2910 0.950 . S
C2936 C2932 1.385 . S
C2936 C2935 1.374 . S
C2937 C2934 1.499 . S
C2937 C2938 1.373 . S
C2937 C2939 1.389 . S
C2938 H2911 0.950 . S
C2938 C2924 1.377 . S
C2938 C2937 1.373 . S
C2939 C2923 1.377 . S
C2939 C2937 1.389 . S
C2939 C2940 1.524 . S
C2940 C2939 1.524 . S
C2940 C2941 1.397 . S
C2940 C2945 1.363 . S
C2941 H2912 0.950 . S
C2941 C2940 1.397 . S
C2941 C2942 1.334 . S
C2942 H2913 0.950 . S
C2942 C2941 1.334 . S
C2942 C2943 1.287 . S
C2943 C2942 1.287 . S
C2943 C2944 1.524 . S
C2943 H2946 0.999 . S
C2944 H2914 0.950 . S
C2944 C2943 1.524 . S
C2944 C2945 1.415 . S
C2945 H2915 0.950 . S
C2945 C2940 1.363 . S
C2945 C2944 1.415 . S
H2946 C2943 0.999 . S
H2947 C2928 0.913 . S
H2948 C2966 0.951 . S
H2949 C2968 0.951 . S
H2950 C2970 0.950 . S
H2951 C2971 0.956 . S
H2952 C2973 0.950 . S
H2953 C2976 0.950 . S
H2954 C2977 0.950 . S
H2955 C2979 0.950 . S
H2956 C2980 0.950 . S
H2957 C2981 0.951 . S
H2958 C2983 0.951 . S
H2959 C2985 0.950 . S
H2960 C2986 0.950 . S
H2961 C2988 0.950 . S
H2962 C2991 0.950 . S
H2963 C2992 0.950 . S
H2964 C2994 0.950 . S
H2965 C2995 0.950 . S
C2966 H2948 0.951 . S
C2966 C2967 1.366 . S
C2966 C2968 1.388 1_554 S
C2967 C2966 1.366 . S
C2967 C2971 1.394 . S
C2968 H2949 0.951 . S
C2968 C2966 1.388 1_556 S
C2968 C2969 1.366 . S
C2969 C2968 1.366 . S
C2969 C2970 1.414 . S
C2969 C2972 1.499 . S
C2970 H2950 0.950 . S
C2970 C2969 1.414 . S
C2970 C2971 1.359 1_556 S
C2971 H2951 0.956 . S
C2971 C2967 1.394 . S
C2971 C2970 1.359 1_554 S
C2972 C2969 1.499 . S
C2972 C2973 1.373 . S
C2972 C2974 1.389 . S
C2973 H2952 0.950 . S
C2973 C2972 1.373 . S
C2973 C2989 1.377 . S
C2974 C2972 1.389 . S
C2974 C2975 1.524 . S
C2974 C2988 1.377 . S
C2975 C2974 1.524 . S
C2975 C2976 1.397 . S
C2975 C2980 1.363 . S
C2976 H2953 0.950 . S
C2976 C2975 1.397 . S
C2976 C2977 1.334 . S
C2977 H2954 0.950 . S
C2977 C2976 1.334 . S
C2977 C2978 1.287 . S
C2978 C2977 1.287 . S
C2978 C2979 1.524 . S
C2978 H2997 0.913 . S
C2979 H2955 0.950 . S
C2979 C2978 1.524 . S
C2979 C2980 1.415 . S
C2980 H2956 0.950 . S
C2980 C2975 1.363 . S
C2980 C2979 1.415 . S
C2981 H2957 0.951 . S
C2981 C2982 1.366 . S
C2981 C2983 1.388 . S
C2982 C2981 1.366 . S
C2982 C2986 1.385 . S
C2983 H2958 0.951 . S
C2983 C2981 1.388 . S
C2983 C2984 1.366 . S
C2984 C2983 1.366 . S
C2984 C2985 1.414 . S
C2984 C2987 1.499 . S
C2985 H2959 0.950 . S
C2985 C2984 1.414 . S
C2985 C2986 1.374 . S
C2986 H2960 0.950 . S
C2986 C2982 1.385 . S
C2986 C2985 1.374 . S
C2987 C2984 1.499 . S
C2987 C2988 1.373 . S
C2987 C2989 1.389 . S
C2988 H2961 0.950 . S
C2988 C2974 1.377 . S
C2988 C2987 1.373 . S
C2989 C2973 1.377 . S
C2989 C2987 1.389 . S
C2989 C2990 1.524 . S
C2990 C2989 1.524 . S
C2990 C2991 1.397 . S
C2990 C2995 1.363 . S
C2991 H2962 0.950 . S
C2991 C2990 1.397 . S
C2991 C2992 1.334 . S
C2992 H2963 0.950 . S
C2992 C2991 1.334 . S
C2992 C2993 1.287 . S
C2993 C2992 1.287 . S
C2993 C2994 1.524 . S
C2993 H2996 0.999 . S
C2994 H2964 0.950 . S
C2994 C2993 1.524 . S
C2994 C2995 1.415 . S
C2995 H2965 0.950 . S
C2995 C2990 1.363 . S
C2995 C2994 1.415 . S
H2996 C2993 0.999 . S
H2997 C2978 0.913 . S
H2998 C3016 0.951 . S
H2999 C3018 0.951 . S
H3000 C3020 0.950 . S
H3001 C3021 0.950 . S
H3002 C3023 0.950 . S
H3003 C3026 0.950 . S
H3004 C3027 0.950 . S
H3005 C3029 0.950 . S
H3006 C3030 0.950 . S
H3007 C3031 0.951 . S
H3008 C3033 0.951 . S
H3009 C3035 0.950 . S
H3010 C3036 0.950 . S
H3011 C3038 0.950 . S
H3012 C3041 0.950 . S
H3013 C3042 0.950 . S
H3014 C3044 0.950 . S
H3015 C3045 0.950 . S
C3016 H2998 0.951 . S
C3016 C3017 1.366 1_554 S
C3016 C3018 1.388 . S
C3017 C3016 1.366 1_556 S
C3017 C3021 1.385 . S
C3018 H2999 0.951 . S
C3018 C3016 1.388 . S
C3018 C3019 1.366 . S
C3019 C3018 1.366 . S
C3019 C3020 1.414 . S
C3019 C3022 1.499 . S
C3020 H3000 0.950 . S
C3020 C3019 1.414 . S
C3020 C3021 1.374 1_554 S
C3021 H3001 0.950 . S
C3021 C3017 1.385 . S
C3021 C3020 1.374 1_556 S
C3022 C3019 1.499 . S
C3022 C3023 1.373 . S
C3022 C3024 1.389 . S
C3023 H3002 0.950 . S
C3023 C3022 1.373 . S
C3023 C3039 1.377 . S
C3024 C3022 1.389 . S
C3024 C3025 1.524 . S
C3024 C3038 1.377 . S
C3025 C3024 1.524 . S
C3025 C3026 1.397 . S
C3025 C3030 1.363 . S
C3026 H3003 0.950 . S
C3026 C3025 1.397 . S
C3026 C3027 1.334 . S
C3027 H3004 0.950 . S
C3027 C3026 1.334 . S
C3027 C3028 1.287 . S
C3028 C3027 1.287 . S
C3028 C3029 1.524 . S
C3028 H3047 0.913 . S
C3029 H3005 0.950 . S
C3029 C3028 1.524 . S
C3029 C3030 1.415 . S
C3030 H3006 0.950 . S
C3030 C3025 1.363 . S
C3030 C3029 1.415 . S
C3031 H3007 0.951 . S
C3031 C3032 1.366 . S
C3031 C3033 1.388 . S
C3032 C3031 1.366 . S
C3032 C3036 1.385 . S
C3033 H3008 0.951 . S
C3033 C3031 1.388 . S
C3033 C3034 1.366 . S
C3034 C3033 1.366 . S
C3034 C3035 1.414 . S
C3034 C3037 1.499 . S
C3035 H3009 0.950 . S
C3035 C3034 1.414 . S
C3035 C3036 1.374 . S
C3036 H3010 0.950 . S
C3036 C3032 1.385 . S
C3036 C3035 1.374 . S
C3037 C3034 1.499 . S
C3037 C3038 1.373 . S
C3037 C3039 1.389 . S
C3038 H3011 0.950 . S
C3038 C3024 1.377 . S
C3038 C3037 1.373 . S
C3039 C3023 1.377 . S
C3039 C3037 1.389 . S
C3039 C3040 1.524 . S
C3040 C3039 1.524 . S
C3040 C3041 1.397 . S
C3040 C3045 1.363 . S
C3041 H3012 0.950 . S
C3041 C3040 1.397 . S
C3041 C3042 1.334 . S
C3042 H3013 0.950 . S
C3042 C3041 1.334 . S
C3042 C3043 1.287 . S
C3043 C3042 1.287 . S
C3043 C3044 1.524 . S
C3043 H3046 0.999 . S
C3044 H3014 0.950 . S
C3044 C3043 1.524 . S
C3044 C3045 1.415 . S
C3045 H3015 0.950 . S
C3045 C3040 1.363 . S
C3045 C3044 1.415 . S
H3046 C3043 0.999 . S
H3047 C3028 0.913 . S
H3048 C3066 0.951 . S
H3049 C3068 0.951 . S
H3050 C3070 0.950 . S
H3051 C3071 0.950 . S
H3052 C3073 0.950 . S
H3053 C3076 0.950 . S
H3054 C3077 0.950 . S
H3055 C3079 0.950 . S
H3056 C3080 0.950 . S
H3057 C3081 0.951 . S
H3058 C3083 0.951 . S
H3059 C3085 0.950 . S
H3060 C3086 0.950 . S
H3061 C3088 0.950 . S
H3062 C3091 0.950 . S
H3063 C3092 0.950 . S
H3064 C3094 0.950 . S
H3065 C3095 0.950 . S
C3066 H3048 0.951 . S
C3066 C3067 1.366 . S
C3066 C3068 1.388 . S
C3067 C3066 1.366 . S
C3067 C3071 1.385 . S
C3068 H3049 0.951 . S
C3068 C3066 1.388 . S
C3068 C3069 1.366 . S
C3069 C3068 1.366 . S
C3069 C3070 1.414 . S
C3069 C3072 1.499 . S
C3070 H3050 0.950 . S
C3070 C3069 1.414 . S
C3070 C3071 1.374 . S
C3071 H3051 0.950 . S
C3071 C3067 1.385 . S
C3071 C3070 1.374 . S
C3072 C3069 1.499 . S
C3072 C3073 1.373 . S
C3072 C3074 1.389 . S
C3073 H3052 0.950 . S
C3073 C3072 1.373 . S
C3073 C3089 1.377 . S
C3074 C3072 1.389 . S
C3074 C3075 1.524 . S
C3074 C3088 1.377 . S
C3075 C3074 1.524 . S
C3075 C3076 1.397 . S
C3075 C3080 1.363 . S
C3076 H3053 0.950 . S
C3076 C3075 1.397 . S
C3076 C3077 1.334 . S
C3077 H3054 0.950 . S
C3077 C3076 1.334 . S
C3077 C3078 1.287 . S
C3078 C3077 1.287 . S
C3078 C3079 1.524 . S
C3078 H3097 0.913 . S
C3079 H3055 0.950 . S
C3079 C3078 1.524 . S
C3079 C3080 1.415 . S
C3080 H3056 0.950 . S
C3080 C3075 1.363 . S
C3080 C3079 1.415 . S
C3081 H3057 0.951 . S
C3081 C3082 1.366 . S
C3081 C3083 1.388 . S
C3082 C3081 1.366 . S
C3082 C3086 1.385 . S
C3083 H3058 0.951 . S
C3083 C3081 1.388 . S
C3083 C3084 1.366 . S
C3084 C3083 1.366 . S
C3084 C3085 1.414 . S
C3084 C3087 1.499 . S
C3085 H3059 0.950 . S
C3085 C3084 1.414 . S
C3085 C3086 1.374 . S
C3086 H3060 0.950 . S
C3086 C3082 1.385 . S
C3086 C3085 1.374 . S
C3087 C3084 1.499 . S
C3087 C3088 1.373 . S
C3087 C3089 1.389 . S
C3088 H3061 0.950 . S
C3088 C3074 1.377 . S
C3088 C3087 1.373 . S
C3089 C3073 1.377 . S
C3089 C3087 1.389 . S
C3089 C3090 1.524 . S
C3090 C3089 1.524 . S
C3090 C3091 1.397 . S
C3090 C3095 1.363 . S
C3091 H3062 0.950 . S
C3091 C3090 1.397 . S
C3091 C3092 1.334 . S
C3092 H3063 0.950 . S
C3092 C3091 1.334 . S
C3092 C3093 1.287 . S
C3093 C3092 1.287 . S
C3093 C3094 1.524 . S
C3093 H3096 0.999 . S
C3094 H3064 0.950 . S
C3094 C3093 1.524 . S
C3094 C3095 1.415 . S
C3095 H3065 0.950 . S
C3095 C3090 1.363 . S
C3095 C3094 1.415 . S
H3096 C3093 0.999 . S
H3097 C3078 0.913 . S
H3098 C3116 0.951 . S
H3099 C3118 0.951 . S
H3100 C3120 0.950 . S
H3101 C3121 0.950 . S
H3102 C3123 0.950 . S
H3103 C3126 0.950 . S
H3104 C3127 0.950 . S
H3105 C3129 0.950 . S
H3106 C3130 0.950 . S
H3107 C3131 0.951 . S
H3108 C3133 0.951 . S
H3109 C3135 0.950 . S
H3110 C3136 0.950 . S
H3111 C3138 0.950 . S
H3112 C3141 0.950 . S
H3113 C3142 0.950 . S
H3114 C3144 0.950 . S
H3115 C3145 0.950 . S
C3116 H3098 0.951 . S
C3116 C3117 1.366 . S
C3116 C3118 1.388 . S
C3117 C3116 1.366 . S
C3117 C3121 1.385 . S
C3118 H3099 0.951 . S
C3118 C3116 1.388 . S
C3118 C3119 1.366 . S
C3119 C3118 1.366 . S
C3119 C3120 1.414 . S
C3119 C3122 1.499 . S
C3120 H3100 0.950 . S
C3120 C3119 1.414 . S
C3120 C3121 1.374 . S
C3121 H3101 0.950 . S
C3121 C3117 1.385 . S
C3121 C3120 1.374 . S
C3122 C3119 1.499 . S
C3122 C3123 1.373 . S
C3122 C3124 1.389 . S
C3123 H3102 0.950 . S
C3123 C3122 1.373 . S
C3123 C3139 1.377 . S
C3124 C3122 1.389 . S
C3124 C3125 1.524 . S
C3124 C3138 1.377 . S
C3125 C3124 1.524 . S
C3125 C3126 1.397 . S
C3125 C3130 1.363 . S
C3126 H3103 0.950 . S
C3126 C3125 1.397 . S
C3126 C3127 1.334 . S
C3127 H3104 0.950 . S
C3127 C3126 1.334 . S
C3127 C3128 1.287 . S
C3128 C3127 1.287 . S
C3128 C3129 1.524 . S
C3128 H3147 0.913 . S
C3129 H3105 0.950 . S
C3129 C3128 1.524 . S
C3129 C3130 1.415 . S
C3130 H3106 0.950 . S
C3130 C3125 1.363 . S
C3130 C3129 1.415 . S
C3131 H3107 0.951 . S
C3131 C3132 1.366 . S
C3131 C3133 1.388 . S
C3132 C3131 1.366 . S
C3132 C3136 1.385 . S
C3133 H3108 0.951 . S
C3133 C3131 1.388 . S
C3133 C3134 1.366 . S
C3134 C3133 1.366 . S
C3134 C3135 1.414 . S
C3134 C3137 1.499 . S
C3135 H3109 0.950 . S
C3135 C3134 1.414 . S
C3135 C3136 1.374 . S
C3136 H3110 0.950 . S
C3136 C3132 1.385 . S
C3136 C3135 1.374 . S
C3137 C3134 1.499 . S
C3137 C3138 1.373 . S
C3137 C3139 1.389 . S
C3138 H3111 0.950 . S
C3138 C3124 1.377 . S
C3138 C3137 1.373 . S
C3139 C3123 1.377 . S
C3139 C3137 1.389 . S
C3139 C3140 1.524 . S
C3140 C3139 1.524 . S
C3140 C3141 1.397 . S
C3140 C3145 1.363 . S
C3141 H3112 0.950 . S
C3141 C3140 1.397 . S
C3141 C3142 1.334 . S
C3142 H3113 0.950 . S
C3142 C3141 1.334 . S
C3142 C3143 1.287 . S
C3143 C3142 1.287 . S
C3143 C3144 1.524 . S
C3143 H3146 0.999 . S
C3144 H3114 0.950 . S
C3144 C3143 1.524 . S
C3144 C3145 1.415 . S
C3145 H3115 0.950 . S
C3145 C3140 1.363 . S
C3145 C3144 1.415 . S
H3146 C3143 0.999 . S
H3147 C3128 0.913 . S
H3148 C3166 0.951 . S
H3149 C3168 0.951 . S
H3150 C3170 0.950 . S
H3151 C3171 0.950 . S
H3152 C3173 0.950 . S
H3153 C3176 0.950 . S
H3154 C3177 0.950 . S
H3155 C3179 0.950 . S
H3156 C3180 0.950 . S
H3157 C3181 0.951 . S
H3158 C3183 0.951 . S
H3159 C3185 0.950 . S
H3160 C3186 0.950 . S
H3161 C3188 0.950 . S
H3162 C3191 0.950 . S
H3163 C3192 0.950 . S
H3164 C3194 0.950 . S
H3165 C3195 0.950 . S
C3166 H3148 0.951 . S
C3166 C3167 1.366 . S
C3166 C3168 1.388 . S
C3167 C3166 1.366 . S
C3167 C3171 1.385 . S
C3168 H3149 0.951 . S
C3168 C3166 1.388 . S
C3168 C3169 1.366 . S
C3169 C3168 1.366 . S
C3169 C3170 1.414 . S
C3169 C3172 1.499 . S
C3170 H3150 0.950 . S
C3170 C3169 1.414 . S
C3170 C3171 1.374 . S
C3171 H3151 0.950 . S
C3171 C3167 1.385 . S
C3171 C3170 1.374 . S
C3172 C3169 1.499 . S
C3172 C3173 1.373 . S
C3172 C3174 1.389 . S
C3173 H3152 0.950 . S
C3173 C3172 1.373 . S
C3173 C3189 1.377 . S
C3174 C3172 1.389 . S
C3174 C3175 1.524 . S
C3174 C3188 1.377 . S
C3175 C3174 1.524 . S
C3175 C3176 1.397 . S
C3175 C3180 1.363 . S
C3176 H3153 0.950 . S
C3176 C3175 1.397 . S
C3176 C3177 1.334 . S
C3177 H3154 0.950 . S
C3177 C3176 1.334 . S
C3177 C3178 1.287 . S
C3178 C3177 1.287 . S
C3178 C3179 1.524 . S
C3178 H3197 0.913 . S
C3179 H3155 0.950 . S
C3179 C3178 1.524 . S
C3179 C3180 1.415 . S
C3180 H3156 0.950 . S
C3180 C3175 1.363 . S
C3180 C3179 1.415 . S
C3181 H3157 0.951 . S
C3181 C3182 1.366 . S
C3181 C3183 1.388 1_556 S
C3182 C3181 1.366 . S
C3182 C3186 1.385 1_556 S
C3183 H3158 0.951 . S
C3183 C3181 1.388 1_554 S
C3183 C3184 1.366 . S
C3184 C3183 1.366 . S
C3184 C3185 1.414 . S
C3184 C3187 1.499 . S
C3185 H3159 0.950 . S
C3185 C3184 1.414 . S
C3185 C3186 1.374 . S
C3186 H3160 0.950 . S
C3186 C3182 1.385 1_554 S
C3186 C3185 1.374 . S
C3187 C3184 1.499 . S
C3187 C3188 1.373 . S
C3187 C3189 1.389 . S
C3188 H3161 0.950 . S
C3188 C3174 1.377 . S
C3188 C3187 1.373 . S
C3189 C3173 1.377 . S
C3189 C3187 1.389 . S
C3189 C3190 1.524 . S
C3190 C3189 1.524 . S
C3190 C3191 1.397 . S
C3190 C3195 1.363 . S
C3191 H3162 0.950 . S
C3191 C3190 1.397 . S
C3191 C3192 1.334 . S
C3192 H3163 0.950 . S
C3192 C3191 1.334 . S
C3192 C3193 1.287 . S
C3193 C3192 1.287 . S
C3193 C3194 1.524 . S
C3193 H3196 0.999 . S
C3194 H3164 0.950 . S
C3194 C3193 1.524 . S
C3194 C3195 1.415 . S
C3195 H3165 0.950 . S
C3195 C3190 1.363 . S
C3195 C3194 1.415 . S
H3196 C3193 0.999 . S
H3197 C3178 0.913 . S
H3198 C3216 0.951 . S
H3199 C3218 0.951 . S
H3200 C3220 0.950 . S
H3201 C3221 0.950 . S
H3202 C3223 0.950 . S
H3203 C3226 0.950 . S
H3204 C3227 0.950 . S
H3205 C3229 0.950 . S
H3206 C3230 0.950 . S
H3207 C3231 0.951 . S
H3208 C3233 0.951 . S
H3209 C3235 0.950 . S
H3210 C3236 0.950 . S
H3211 C3238 0.950 . S
H3212 C3241 0.950 . S
H3213 C3242 0.950 . S
H3214 C3244 0.950 . S
H3215 C3245 0.950 . S
C3216 H3198 0.951 . S
C3216 C3217 1.366 . S
C3216 C3218 1.388 . S
C3217 C3216 1.366 . S
C3217 C3221 1.385 . S
C3218 H3199 0.951 . S
C3218 C3216 1.388 . S
C3218 C3219 1.366 . S
C3219 C3218 1.366 . S
C3219 C3220 1.414 . S
C3219 C3222 1.499 . S
C3220 H3200 0.950 . S
C3220 C3219 1.414 . S
C3220 C3221 1.374 . S
C3221 H3201 0.950 . S
C3221 C3217 1.385 . S
C3221 C3220 1.374 . S
C3222 C3219 1.499 . S
C3222 C3223 1.373 . S
C3222 C3224 1.389 . S
C3223 H3202 0.950 . S
C3223 C3222 1.373 . S
C3223 C3239 1.377 . S
C3224 C3222 1.389 . S
C3224 C3225 1.524 . S
C3224 C3238 1.377 . S
C3225 C3224 1.524 . S
C3225 C3226 1.397 . S
C3225 C3230 1.363 . S
C3226 H3203 0.950 . S
C3226 C3225 1.397 . S
C3226 C3227 1.334 . S
C3227 H3204 0.950 . S
C3227 C3226 1.334 . S
C3227 C3228 1.287 . S
C3228 C3227 1.287 . S
C3228 C3229 1.524 . S
C3228 H3247 0.913 . S
C3229 H3205 0.950 . S
C3229 C3228 1.524 . S
C3229 C3230 1.415 . S
C3230 H3206 0.950 . S
C3230 C3225 1.363 . S
C3230 C3229 1.415 . S
C3231 H3207 0.951 . S
C3231 C3232 1.366 1_556 S
C3231 C3233 1.388 . S
C3232 C3231 1.366 1_554 S
C3232 C3236 1.385 . S
C3233 H3208 0.951 . S
C3233 C3231 1.388 . S
C3233 C3234 1.366 . S
C3234 C3233 1.366 . S
C3234 C3235 1.414 . S
C3234 C3237 1.499 . S
C3235 H3209 0.950 . S
C3235 C3234 1.414 . S
C3235 C3236 1.374 1_556 S
C3236 H3210 0.950 . S
C3236 C3232 1.385 . S
C3236 C3235 1.374 1_554 S
C3237 C3234 1.499 . S
C3237 C3238 1.373 . S
C3237 C3239 1.389 . S
C3238 H3211 0.950 . S
C3238 C3224 1.377 . S
C3238 C3237 1.373 . S
C3239 C3223 1.377 . S
C3239 C3237 1.389 . S
C3239 C3240 1.524 . S
C3240 C3239 1.524 . S
C3240 C3241 1.397 . S
C3240 C3245 1.363 . S
C3241 H3212 0.950 . S
C3241 C3240 1.397 . S
C3241 C3242 1.334 . S
C3242 H3213 0.950 . S
C3242 C3241 1.334 . S
C3242 C3243 1.287 . S
C3243 C3242 1.287 . S
C3243 C3244 1.524 . S
C3243 H3246 0.999 . S
C3244 H3214 0.950 . S
C3244 C3243 1.524 . S
C3244 C3245 1.415 . S
C3245 H3215 0.950 . S
C3245 C3240 1.363 . S
C3245 C3244 1.415 . S
H3246 C3243 0.999 . S
H3247 C3228 0.913 . S
H3248 C3266 0.951 . S
H3249 C3268 0.951 . S
H3250 C3270 0.950 . S
H3251 C3271 0.950 . S
H3252 C3273 0.950 . S
H3253 C3276 0.950 . S
H3254 C3277 0.950 . S
H3255 C3279 0.950 . S
H3256 C3280 0.950 . S
H3257 C3281 0.951 . S
H3258 C3283 0.951 . S
H3259 C3285 0.950 . S
H3260 C3286 0.950 . S
H3261 C3288 0.950 . S
H3262 C3291 0.950 . S
H3263 C3292 0.950 . S
H3264 C3294 0.950 . S
H3265 C3295 0.950 . S
C3266 H3248 0.951 . S
C3266 C3267 1.366 1_556 S
C3266 C3268 1.388 . S
C3267 C3266 1.366 1_554 S
C3267 C3271 1.385 . S
C3268 H3249 0.951 . S
C3268 C3266 1.388 . S
C3268 C3269 1.366 . S
C3269 C3268 1.366 . S
C3269 C3270 1.414 . S
C3269 C3272 1.499 . S
C3270 H3250 0.950 . S
C3270 C3269 1.414 . S
C3270 C3271 1.374 1_556 S
C3271 H3251 0.950 . S
C3271 C3267 1.385 . S
C3271 C3270 1.374 1_554 S
C3272 C3269 1.499 . S
C3272 C3273 1.373 . S
C3272 C3274 1.389 . S
C3273 H3252 0.950 . S
C3273 C3272 1.373 . S
C3273 C3289 1.377 . S
C3274 C3272 1.389 . S
C3274 C3275 1.524 . S
C3274 C3288 1.377 . S
C3275 C3274 1.524 . S
C3275 C3276 1.397 . S
C3275 C3280 1.363 . S
C3276 H3253 0.950 . S
C3276 C3275 1.397 . S
C3276 C3277 1.334 . S
C3277 H3254 0.950 . S
C3277 C3276 1.334 . S
C3277 C3278 1.287 . S
C3278 C3277 1.287 . S
C3278 C3279 1.524 . S
C3278 H3297 0.913 . S
C3279 H3255 0.950 . S
C3279 C3278 1.524 . S
C3279 C3280 1.415 . S
C3280 H3256 0.950 . S
C3280 C3275 1.363 . S
C3280 C3279 1.415 . S
C3281 H3257 0.951 . S
C3281 C3282 1.366 . S
C3281 C3283 1.388 . S
C3282 C3281 1.366 . S
C3282 C3286 1.385 . S
C3283 H3258 0.951 . S
C3283 C3281 1.388 . S
C3283 C3284 1.366 . S
C3284 C3283 1.366 . S
C3284 C3285 1.414 . S
C3284 C3287 1.499 . S
C3285 H3259 0.950 . S
C3285 C3284 1.414 . S
C3285 C3286 1.374 . S
C3286 H3260 0.950 . S
C3286 C3282 1.385 . S
C3286 C3285 1.374 . S
C3287 C3284 1.499 . S
C3287 C3288 1.373 . S
C3287 C3289 1.389 . S
C3288 H3261 0.950 . S
C3288 C3274 1.377 . S
C3288 C3287 1.373 . S
C3289 C3273 1.377 . S
C3289 C3287 1.389 . S
C3289 C3290 1.524 . S
C3290 C3289 1.524 . S
C3290 C3291 1.397 . S
C3290 C3295 1.363 . S
C3291 H3262 0.950 . S
C3291 C3290 1.397 . S
C3291 C3292 1.334 . S
C3292 H3263 0.950 . S
C3292 C3291 1.334 . S
C3292 C3293 1.287 . S
C3293 C3292 1.287 . S
C3293 C3294 1.524 . S
C3293 H3296 0.999 . S
C3294 H3264 0.950 . S
C3294 C3293 1.524 . S
C3294 C3295 1.415 . S
C3295 H3265 0.950 . S
C3295 C3290 1.363 . S
C3295 C3294 1.415 . S
H3296 C3293 0.999 . S
H3297 C3278 0.913 . S
H3298 C3316 0.951 . S
H3299 C3318 0.951 . S
H3300 C3320 0.950 . S
H3301 C3321 0.950 . S
H3302 C3323 0.950 . S
H3303 C3326 0.950 . S
H3304 C3327 0.950 . S
H3305 C3329 0.950 . S
H3306 C3330 0.950 . S
H3307 C3331 0.951 . S
H3308 C3333 0.951 . S
H3309 C3335 0.950 . S
H3310 C3336 0.950 . S
H3311 C3338 0.950 . S
H3312 C3341 0.950 . S
H3313 C3342 0.950 1_556 S
H3314 C3344 0.950 . S
H3315 C3345 0.950 . S
C3316 H3298 0.951 . S
C3316 C3317 1.366 . S
C3316 C3318 1.388 . S
C3317 C3316 1.366 . S
C3317 C3321 1.385 . S
C3318 H3299 0.951 . S
C3318 C3316 1.388 . S
C3318 C3319 1.366 . S
C3319 C3318 1.366 . S
C3319 C3320 1.414 . S
C3319 C3322 1.499 . S
C3320 H3300 0.950 . S
C3320 C3319 1.414 . S
C3320 C3321 1.374 . S
C3321 H3301 0.950 . S
C3321 C3317 1.385 . S
C3321 C3320 1.374 . S
C3322 C3319 1.499 . S
C3322 C3323 1.373 . S
C3322 C3324 1.389 . S
C3323 H3302 0.950 . S
C3323 C3322 1.373 . S
C3323 C3339 1.377 . S
C3324 C3322 1.389 . S
C3324 C3325 1.524 . S
C3324 C3338 1.377 . S
C3325 C3324 1.524 . S
C3325 C3326 1.397 . S
C3325 C3330 1.363 . S
C3326 H3303 0.950 . S
C3326 C3325 1.397 . S
C3326 C3327 1.334 . S
C3327 H3304 0.950 . S
C3327 C3326 1.334 . S
C3327 C3328 1.287 . S
C3328 C3327 1.287 . S
C3328 C3329 1.524 . S
C3328 H3347 0.913 . S
C3329 H3305 0.950 . S
C3329 C3328 1.524 . S
C3329 C3330 1.415 . S
C3330 H3306 0.950 . S
C3330 C3325 1.363 . S
C3330 C3329 1.415 . S
C3331 H3307 0.951 . S
C3331 C3332 1.366 1_554 S
C3331 C3333 1.388 . S
C3332 C3331 1.366 1_556 S
C3332 C3336 1.385 . S
C3333 H3308 0.951 . S
C3333 C3331 1.388 . S
C3333 C3334 1.366 . S
C3334 C3333 1.366 . S
C3334 C3335 1.414 . S
C3334 C3337 1.499 . S
C3335 H3309 0.950 . S
C3335 C3334 1.414 . S
C3335 C3336 1.374 1_554 S
C3336 H3310 0.950 . S
C3336 C3332 1.385 . S
C3336 C3335 1.374 1_556 S
C3337 C3334 1.499 . S
C3337 C3338 1.373 . S
C3337 C3339 1.389 . S
C3338 H3311 0.950 . S
C3338 C3324 1.377 . S
C3338 C3337 1.373 . S
C3339 C3323 1.377 . S
C3339 C3337 1.389 . S
C3339 C3340 1.524 . S
C3340 C3339 1.524 . S
C3340 C3341 1.397 . S
C3340 C3345 1.363 . S
C3341 H3312 0.950 . S
C3341 C3340 1.397 . S
C3341 C3342 1.334 . S
C3342 H3313 0.950 1_554 S
C3342 C3341 1.334 . S
C3342 C3343 1.287 . S
C3343 C3342 1.287 . S
C3343 C3344 1.524 . S
C3343 H3346 0.999 . S
C3344 H3314 0.950 . S
C3344 C3343 1.524 . S
C3344 C3345 1.415 . S
C3345 H3315 0.950 . S
C3345 C3340 1.363 . S
C3345 C3344 1.415 . S
H3346 C3343 0.999 . S
H3347 C3328 0.913 . S
H3348 C3366 0.951 . S
H3349 C3368 0.951 . S
H3350 C3370 0.950 . S
H3351 C3371 0.950 . S
H3352 C3373 0.950 . S
H3353 C3376 0.950 . S
H3354 C3377 0.950 . S
H3355 C3379 0.950 . S
H3356 C3380 0.950 . S
H3357 C3381 0.951 . S
H3358 C3383 0.951 . S
H3359 C3385 0.950 . S
H3360 C3386 0.950 . S
H3361 C3388 0.950 . S
H3362 C3391 0.950 . S
H3363 C3392 0.950 . S
H3364 C3394 0.950 . S
H3365 C3395 0.950 . S
C3366 H3348 0.951 . S
C3366 C3367 1.366 . S
C3366 C3368 1.388 . S
C3367 C3366 1.366 . S
C3367 C3371 1.385 . S
C3368 H3349 0.951 . S
C3368 C3366 1.388 . S
C3368 C3369 1.366 . S
C3369 C3368 1.366 . S
C3369 C3370 1.414 . S
C3369 C3372 1.499 . S
C3370 H3350 0.950 . S
C3370 C3369 1.414 . S
C3370 C3371 1.374 . S
C3371 H3351 0.950 . S
C3371 C3367 1.385 . S
C3371 C3370 1.374 . S
C3372 C3369 1.499 . S
C3372 C3373 1.373 . S
C3372 C3374 1.389 . S
C3373 H3352 0.950 . S
C3373 C3372 1.373 . S
C3373 C3389 1.377 . S
C3374 C3372 1.389 . S
C3374 C3375 1.524 . S
C3374 C3388 1.377 . S
C3375 C3374 1.524 . S
C3375 C3376 1.397 . S
C3375 C3380 1.363 . S
C3376 H3353 0.950 . S
C3376 C3375 1.397 . S
C3376 C3377 1.334 . S
C3377 H3354 0.950 . S
C3377 C3376 1.334 . S
C3377 C3378 1.287 . S
C3378 C3377 1.287 . S
C3378 C3379 1.524 . S
C3378 H3397 0.913 . S
C3379 H3355 0.950 . S
C3379 C3378 1.524 . S
C3379 C3380 1.415 . S
C3380 H3356 0.950 . S
C3380 C3375 1.363 . S
C3380 C3379 1.415 . S
C3381 H3357 0.951 . S
C3381 C3382 1.366 . S
C3381 C3383 1.388 . S
C3382 C3381 1.366 . S
C3382 C3386 1.385 . S
C3383 H3358 0.951 . S
C3383 C3381 1.388 . S
C3383 C3384 1.366 . S
C3384 C3383 1.366 . S
C3384 C3385 1.414 . S
C3384 C3387 1.499 . S
C3385 H3359 0.950 . S
C3385 C3384 1.414 . S
C3385 C3386 1.374 . S
C3386 H3360 0.950 . S
C3386 C3382 1.385 . S
C3386 C3385 1.374 . S
C3387 C3384 1.499 . S
C3387 C3388 1.373 . S
C3387 C3389 1.389 . S
C3388 H3361 0.950 . S
C3388 C3374 1.377 . S
C3388 C3387 1.373 . S
C3389 C3373 1.377 . S
C3389 C3387 1.389 . S
C3389 C3390 1.524 . S
C3390 C3389 1.524 . S
C3390 C3391 1.397 . S
C3390 C3395 1.363 . S
C3391 H3362 0.950 . S
C3391 C3390 1.397 . S
C3391 C3392 1.334 . S
C3392 H3363 0.950 . S
C3392 C3391 1.334 . S
C3392 C3393 1.287 . S
C3393 C3392 1.287 . S
C3393 C3394 1.524 . S
C3393 H3396 0.999 . S
C3394 H3364 0.950 . S
C3394 C3393 1.524 . S
C3394 C3395 1.415 . S
C3395 H3365 0.950 . S
C3395 C3390 1.363 . S
C3395 C3394 1.415 . S
H3396 C3393 0.999 . S
H3397 C3378 0.913 . S
H3398 C3416 0.951 . S
H3399 C3418 0.951 . S
H3400 C3420 0.950 . S
H3401 C3421 0.950 . S
H3402 C3423 0.950 . S
H3403 C3426 0.950 . S
H3404 C3427 0.950 . S
H3405 C3429 0.950 . S
H3406 C3430 0.950 . S
H3407 C3431 0.951 . S
H3408 C3433 0.951 . S
H3409 C3435 0.950 . S
H3410 C3436 0.950 . S
H3411 C3438 0.950 . S
H3412 C3441 0.950 . S
H3413 C3442 0.950 . S
H3414 C3444 0.950 . S
H3415 C3445 0.950 . S
C3416 H3398 0.951 . S
C3416 C3417 1.366 . S
C3416 C3418 1.388 . S
C3417 C3416 1.366 . S
C3417 C3421 1.385 . S
C3418 H3399 0.951 . S
C3418 C3416 1.388 . S
C3418 C3419 1.366 . S
C3419 C3418 1.366 . S
C3419 C3420 1.414 . S
C3419 C3422 1.499 . S
C3420 H3400 0.950 . S
C3420 C3419 1.414 . S
C3420 C3421 1.374 . S
C3421 H3401 0.950 . S
C3421 C3417 1.385 . S
C3421 C3420 1.374 . S
C3422 C3419 1.499 . S
C3422 C3423 1.373 . S
C3422 C3424 1.389 . S
C3423 H3402 0.950 . S
C3423 C3422 1.373 . S
C3423 C3439 1.377 . S
C3424 C3422 1.389 . S
C3424 C3425 1.524 . S
C3424 C3438 1.377 . S
C3425 C3424 1.524 . S
C3425 C3426 1.397 . S
C3425 C3430 1.363 . S
C3426 H3403 0.950 . S
C3426 C3425 1.397 . S
C3426 C3427 1.334 . S
C3427 H3404 0.950 . S
C3427 C3426 1.334 . S
C3427 C3428 1.287 . S
C3428 C3427 1.287 . S
C3428 C3429 1.524 . S
C3428 H3447 0.913 . S
C3429 H3405 0.950 . S
C3429 C3428 1.524 . S
C3429 C3430 1.415 . S
C3430 H3406 0.950 . S
C3430 C3425 1.363 . S
C3430 C3429 1.415 . S
C3431 H3407 0.951 . S
C3431 C3432 1.366 . S
C3431 C3433 1.388 . S
C3432 C3431 1.366 . S
C3432 C3436 1.385 . S
C3433 H3408 0.951 . S
C3433 C3431 1.388 . S
C3433 C3434 1.366 . S
C3434 C3433 1.366 . S
C3434 C3435 1.414 . S
C3434 C3437 1.499 . S
C3435 H3409 0.950 . S
C3435 C3434 1.414 . S
C3435 C3436 1.374 . S
C3436 H3410 0.950 . S
C3436 C3432 1.385 . S
C3436 C3435 1.374 . S
C3437 C3434 1.499 . S
C3437 C3438 1.373 . S
C3437 C3439 1.389 . S
C3438 H3411 0.950 . S
C3438 C3424 1.377 . S
C3438 C3437 1.373 . S
C3439 C3423 1.377 . S
C3439 C3437 1.389 . S
C3439 C3440 1.524 . S
C3440 C3439 1.524 . S
C3440 C3441 1.397 . S
C3440 C3445 1.363 . S
C3441 H3412 0.950 . S
C3441 C3440 1.397 . S
C3441 C3442 1.334 . S
C3442 H3413 0.950 . S
C3442 C3441 1.334 . S
C3442 C3443 1.287 . S
C3443 C3442 1.287 . S
C3443 C3444 1.524 . S
C3443 H3446 0.999 . S
C3444 H3414 0.950 . S
C3444 C3443 1.524 . S
C3444 C3445 1.415 . S
C3445 H3415 0.950 . S
C3445 C3440 1.363 . S
C3445 C3444 1.415 . S
H3446 C3443 0.999 . S
H3447 C3428 0.913 . S
H3448 C3466 0.951 . S
H3449 C3468 0.951 . S
H3450 C3470 0.950 . S
H3451 C3471 0.950 . S
H3452 C3473 0.950 . S
H3453 C3476 0.950 . S
H3454 C3477 0.950 . S
H3455 C3479 0.950 . S
H3456 C3480 0.950 . S
H3457 C3481 0.951 . S
H3458 C3483 0.951 . S
H3459 C3485 0.950 . S
H3460 C3486 0.950 . S
H3461 C3488 0.950 . S
H3462 C3491 0.950 . S
H3463 C3492 0.950 1_556 S
H3464 C3494 0.950 . S
H3465 C3495 0.950 . S
C3466 H3448 0.951 . S
C3466 C3467 1.366 . S
C3466 C3468 1.388 . S
C3467 C3466 1.366 . S
C3467 C3471 1.385 . S
C3468 H3449 0.951 . S
C3468 C3466 1.388 . S
C3468 C3469 1.366 . S
C3469 C3468 1.366 . S
C3469 C3470 1.414 . S
C3469 C3472 1.499 . S
C3470 H3450 0.950 . S
C3470 C3469 1.414 . S
C3470 C3471 1.374 . S
C3471 H3451 0.950 . S
C3471 C3467 1.385 . S
C3471 C3470 1.374 . S
C3472 C3469 1.499 . S
C3472 C3473 1.373 . S
C3472 C3474 1.389 . S
C3473 H3452 0.950 . S
C3473 C3472 1.373 . S
C3473 C3489 1.377 . S
C3474 C3472 1.389 . S
C3474 C3475 1.524 . S
C3474 C3488 1.377 . S
C3475 C3474 1.524 . S
C3475 C3476 1.397 . S
C3475 C3480 1.363 . S
C3476 H3453 0.950 . S
C3476 C3475 1.397 . S
C3476 C3477 1.334 . S
C3477 H3454 0.950 . S
C3477 C3476 1.334 . S
C3477 C3478 1.287 . S
C3478 C3477 1.287 . S
C3478 C3479 1.524 . S
C3478 H3497 0.913 . S
C3479 H3455 0.950 . S
C3479 C3478 1.524 . S
C3479 C3480 1.415 . S
C3480 H3456 0.950 . S
C3480 C3475 1.363 . S
C3480 C3479 1.415 . S
C3481 H3457 0.951 . S
C3481 C3482 1.366 . S
C3481 C3483 1.388 1_556 S
C3482 C3481 1.366 . S
C3482 C3486 1.385 1_556 S
C3483 H3458 0.951 . S
C3483 C3481 1.388 1_554 S
C3483 C3484 1.366 . S
C3484 C3483 1.366 . S
C3484 C3485 1.414 . S
C3484 C3487 1.499 . S
C3485 H3459 0.950 . S
C3485 C3484 1.414 . S
C3485 C3486 1.374 . S
C3486 H3460 0.950 . S
C3486 C3482 1.385 1_554 S
C3486 C3485 1.374 . S
C3487 C3484 1.499 . S
C3487 C3488 1.373 . S
C3487 C3489 1.389 . S
C3488 H3461 0.950 . S
C3488 C3474 1.377 . S
C3488 C3487 1.373 . S
C3489 C3473 1.377 . S
C3489 C3487 1.389 . S
C3489 C3490 1.524 . S
C3490 C3489 1.524 . S
C3490 C3491 1.397 . S
C3490 C3495 1.363 . S
C3491 H3462 0.950 . S
C3491 C3490 1.397 . S
C3491 C3492 1.334 . S
C3492 H3463 0.950 1_554 S
C3492 C3491 1.334 . S
C3492 C3493 1.287 1_554 S
C3493 C3492 1.287 1_556 S
C3493 C3494 1.524 . S
C3493 H3496 0.999 . S
C3494 H3464 0.950 . S
C3494 C3493 1.524 . S
C3494 C3495 1.415 1_556 S
C3495 H3465 0.950 . S
C3495 C3490 1.363 . S
C3495 C3494 1.415 1_554 S
H3496 C3493 0.999 . S
H3497 C3478 0.913 . S
H3498 C3516 0.951 . S
H3499 C3518 0.951 . S
H3500 C3520 0.950 . S
H3501 C3521 0.950 . S
H3502 C3523 0.950 . S
H3503 C3526 0.950 . S
H3504 C3527 0.950 . S
H3505 C3529 0.950 . S
H3506 C3530 0.950 . S
H3507 C3531 0.951 . S
H3508 C3533 0.951 . S
H3509 C3535 0.950 . S
H3510 C3536 0.950 . S
H3511 C3538 0.950 . S
H3512 C3541 0.950 . S
H3513 C3542 0.950 . S
H3514 C3544 0.950 . S
H3515 C3545 0.950 . S
C3516 H3498 0.951 . S
C3516 C3517 1.366 1_556 S
C3516 C3518 1.388 . S
C3517 C3516 1.366 1_554 S
C3517 C3521 1.385 . S
C3518 H3499 0.951 . S
C3518 C3516 1.388 . S
C3518 C3519 1.366 . S
C3519 C3518 1.366 . S
C3519 C3520 1.414 . S
C3519 C3522 1.499 . S
C3520 H3500 0.950 . S
C3520 C3519 1.414 . S
C3520 C3521 1.374 1_556 S
C3521 H3501 0.950 . S
C3521 C3517 1.385 . S
C3521 C3520 1.374 1_554 S
C3522 C3519 1.499 . S
C3522 C3523 1.373 . S
C3522 C3524 1.389 . S
C3523 H3502 0.950 . S
C3523 C3522 1.373 . S
C3523 C3539 1.377 . S
C3524 C3522 1.389 . S
C3524 C3525 1.524 . S
C3524 C3538 1.377 . S
C3525 C3524 1.524 . S
C3525 C3526 1.397 . S
C3525 C3530 1.363 . S
C3526 H3503 0.950 . S
C3526 C3525 1.397 . S
C3526 C3527 1.334 . S
C3527 H3504 0.950 . S
C3527 C3526 1.334 . S
C3527 C3528 1.287 . S
C3528 C3527 1.287 . S
C3528 C3529 1.524 . S
C3528 H3547 0.913 . S
C3529 H3505 0.950 . S
C3529 C3528 1.524 . S
C3529 C3530 1.415 . S
C3530 H3506 0.950 . S
C3530 C3525 1.363 . S
C3530 C3529 1.415 . S
C3531 H3507 0.951 . S
C3531 C3532 1.366 . S
C3531 C3533 1.388 . S
C3532 C3531 1.366 . S
C3532 C3536 1.385 . S
C3533 H3508 0.951 . S
C3533 C3531 1.388 . S
C3533 C3534 1.366 . S
C3534 C3533 1.366 . S
C3534 C3535 1.414 . S
C3534 C3537 1.499 . S
C3535 H3509 0.950 . S
C3535 C3534 1.414 . S
C3535 C3536 1.374 . S
C3536 H3510 0.950 . S
C3536 C3532 1.385 . S
C3536 C3535 1.374 . S
C3537 C3534 1.499 . S
C3537 C3538 1.373 . S
C3537 C3539 1.389 . S
C3538 H3511 0.950 . S
C3538 C3524 1.377 . S
C3538 C3537 1.373 . S
C3539 C3523 1.377 . S
C3539 C3537 1.389 . S
C3539 C3540 1.524 . S
C3540 C3539 1.524 . S
C3540 C3541 1.397 . S
C3540 C3545 1.363 . S
C3541 H3512 0.950 . S
C3541 C3540 1.397 . S
C3541 C3542 1.334 . S
C3542 H3513 0.950 . S
C3542 C3541 1.334 . S
C3542 C3543 1.287 . S
C3543 C3542 1.287 . S
C3543 C3544 1.524 . S
C3543 H3546 0.999 . S
C3544 H3514 0.950 . S
C3544 C3543 1.524 . S
C3544 C3545 1.415 . S
C3545 H3515 0.950 . S
C3545 C3540 1.363 . S
C3545 C3544 1.415 . S
H3546 C3543 0.999 . S
H3547 C3528 0.913 . S
H3548 C3566 0.951 . S
H3549 C3568 0.951 . S
H3550 C3570 0.950 . S
H3551 C3571 0.950 . S
H3552 C3573 0.950 . S
H3553 C3576 0.950 . S
H3554 C3577 0.950 . S
H3555 C3579 0.950 . S
H3556 C3580 0.950 . S
H3557 C3581 0.951 . S
H3558 C3583 0.951 . S
H3559 C3585 0.950 . S
H3560 C3586 0.950 . S
H3561 C3588 0.950 . S
H3562 C3591 0.950 . S
H3563 C3592 0.950 . S
H3564 C3594 0.950 . S
H3565 C3595 0.950 . S
C3566 H3548 0.951 . S
C3566 C3567 1.366 . S
C3566 C3568 1.388 . S
C3567 C3566 1.366 . S
C3567 C3571 1.385 . S
C3568 H3549 0.951 . S
C3568 C3566 1.388 . S
C3568 C3569 1.366 . S
C3569 C3568 1.366 . S
C3569 C3570 1.414 . S
C3569 C3572 1.499 . S
C3570 H3550 0.950 . S
C3570 C3569 1.414 . S
C3570 C3571 1.374 . S
C3571 H3551 0.950 . S
C3571 C3567 1.385 . S
C3571 C3570 1.374 . S
C3572 C3569 1.499 . S
C3572 C3573 1.373 . S
C3572 C3574 1.389 . S
C3573 H3552 0.950 . S
C3573 C3572 1.373 . S
C3573 C3589 1.377 . S
C3574 C3572 1.389 . S
C3574 C3575 1.524 . S
C3574 C3588 1.377 . S
C3575 C3574 1.524 . S
C3575 C3576 1.397 . S
C3575 C3580 1.363 . S
C3576 H3553 0.950 . S
C3576 C3575 1.397 . S
C3576 C3577 1.334 . S
C3577 H3554 0.950 . S
C3577 C3576 1.334 . S
C3577 C3578 1.287 . S
C3578 C3577 1.287 . S
C3578 C3579 1.524 . S
C3578 H3597 0.913 . S
C3579 H3555 0.950 . S
C3579 C3578 1.524 . S
C3579 C3580 1.415 . S
C3580 H3556 0.950 . S
C3580 C3575 1.363 . S
C3580 C3579 1.415 . S
C3581 H3557 0.951 . S
C3581 C3582 1.366 . S
C3581 C3583 1.388 . S
C3582 C3581 1.366 . S
C3582 C3586 1.385 . S
C3583 H3558 0.951 . S
C3583 C3581 1.388 . S
C3583 C3584 1.366 . S
C3584 C3583 1.366 . S
C3584 C3585 1.414 . S
C3584 C3587 1.499 . S
C3585 H3559 0.950 . S
C3585 C3584 1.414 . S
C3585 C3586 1.374 . S
C3586 H3560 0.950 . S
C3586 C3582 1.385 . S
C3586 C3585 1.374 . S
C3587 C3584 1.499 . S
C3587 C3588 1.373 . S
C3587 C3589 1.389 . S
C3588 H3561 0.950 . S
C3588 C3574 1.377 . S
C3588 C3587 1.373 . S
C3589 C3573 1.377 . S
C3589 C3587 1.389 . S
C3589 C3590 1.524 . S
C3590 C3589 1.524 . S
C3590 C3591 1.397 . S
C3590 C3595 1.363 . S
C3591 H3562 0.950 . S
C3591 C3590 1.397 . S
C3591 C3592 1.334 . S
C3592 H3563 0.950 . S
C3592 C3591 1.334 . S
C3592 C3593 1.287 . S
C3593 C3592 1.287 . S
C3593 C3594 1.524 . S
C3593 H3596 0.999 . S
C3594 H3564 0.950 . S
C3594 C3593 1.524 . S
C3594 C3595 1.415 . S
C3595 H3565 0.950 . S
C3595 C3590 1.363 . S
C3595 C3594 1.415 . S
H3596 C3593 0.999 . S
H3597 C3578 0.913 . S
H3598 C3616 0.951 . S
H3599 C3618 0.951 . S
H3600 C3620 0.950 . S
H3601 C3621 0.950 . S
H3602 C3623 0.950 . S
H3603 C3626 0.950 . S
H3604 C3627 0.950 . S
H3605 C3629 0.950 . S
H3606 C3630 0.950 . S
H3607 C3631 0.951 . S
H3608 C3633 0.951 . S
H3609 C3635 0.950 . S
H3610 C3636 0.950 . S
H3611 C3638 0.950 . S
H3612 C3641 0.950 . S
H3613 C3642 0.950 . S
H3614 C3644 0.950 . S
H3615 C3645 0.950 . S
C3616 H3598 0.951 . S
C3616 C3617 1.366 . S
C3616 C3618 1.388 . S
C3617 C3616 1.366 . S
C3617 C3621 1.385 . S
C3618 H3599 0.951 . S
C3618 C3616 1.388 . S
C3618 C3619 1.366 . S
C3619 C3618 1.366 . S
C3619 C3620 1.414 . S
C3619 C3622 1.499 . S
C3620 H3600 0.950 . S
C3620 C3619 1.414 . S
C3620 C3621 1.374 . S
C3621 H3601 0.950 . S
C3621 C3617 1.385 . S
C3621 C3620 1.374 . S
C3622 C3619 1.499 . S
C3622 C3623 1.373 . S
C3622 C3624 1.389 . S
C3623 H3602 0.950 . S
C3623 C3622 1.373 . S
C3623 C3639 1.377 . S
C3624 C3622 1.389 . S
C3624 C3625 1.524 . S
C3624 C3638 1.377 . S
C3625 C3624 1.524 . S
C3625 C3626 1.397 . S
C3625 C3630 1.363 . S
C3626 H3603 0.950 . S
C3626 C3625 1.397 . S
C3626 C3627 1.334 . S
C3627 H3604 0.950 . S
C3627 C3626 1.334 . S
C3627 C3628 1.287 . S
C3628 C3627 1.287 . S
C3628 C3629 1.524 . S
C3628 H3647 0.913 . S
C3629 H3605 0.950 . S
C3629 C3628 1.524 . S
C3629 C3630 1.415 . S
C3630 H3606 0.950 . S
C3630 C3625 1.363 . S
C3630 C3629 1.415 . S
C3631 H3607 0.951 . S
C3631 C3632 1.366 . S
C3631 C3633 1.388 . S
C3632 C3631 1.366 . S
C3632 C3636 1.385 . S
C3633 H3608 0.951 . S
C3633 C3631 1.388 . S
C3633 C3634 1.366 . S
C3634 C3633 1.366 . S
C3634 C3635 1.414 . S
C3634 C3637 1.499 . S
C3635 H3609 0.950 . S
C3635 C3634 1.414 . S
C3635 C3636 1.374 . S
C3636 H3610 0.950 . S
C3636 C3632 1.385 . S
C3636 C3635 1.374 . S
C3637 C3634 1.499 . S
C3637 C3638 1.373 . S
C3637 C3639 1.389 . S
C3638 H3611 0.950 . S
C3638 C3624 1.377 . S
C3638 C3637 1.373 . S
C3639 C3623 1.377 . S
C3639 C3637 1.389 . S
C3639 C3640 1.524 . S
C3640 C3639 1.524 . S
C3640 C3641 1.397 . S
C3640 C3645 1.363 . S
C3641 H3612 0.950 . S
C3641 C3640 1.397 . S
C3641 C3642 1.334 . S
C3642 H3613 0.950 . S
C3642 C3641 1.334 . S
C3642 C3643 1.287 . S
C3643 C3642 1.287 . S
C3643 C3644 1.524 . S
C3643 H3646 0.999 . S
C3644 H3614 0.950 . S
C3644 C3643 1.524 . S
C3644 C3645 1.415 . S
C3645 H3615 0.950 . S
C3645 C3640 1.363 . S
C3645 C3644 1.415 . S
H3646 C3643 0.999 . S
H3647 C3628 0.913 . S
C467 C93 1.490 . S
C482 C9 1.491 . S
C517 C23 1.491 . S
C532 C107 1.491 . S
C567 C65 1.491 . S
C582 C37 1.491 . S
C617 C51 1.491 . S
C632 C79 1.490 . S
C667 C121 1.491 . S
C682 C205 1.491 . S
C717 C219 1.491 . S
C732 C135 1.491 . S
C767 C149 1.491 . S
C782 C177 1.491 . S
C817 C191 1.491 . S
C832 C163 1.491 . S
C867 C233 1.491 . S
C882 C317 1.491 . S
C917 C247 1.491 . S
C932 C331 1.490 . S
C967 C289 1.491 . S
C982 C261 1.491 . S
C1017 C303 1.491 . S
C1032 C275 1.491 . S
C1067 C345 1.491 . S
C1082 C429 1.490 . S
C1117 C359 1.491 . S
C1132 C443 1.491 . S
C1167 C401 1.491 . S
C1182 C373 1.491 . S
C1217 C387 1.490 . S
C1232 C415 1.491 . S
C1267 C8 1.492 . S
C1282 C106 1.492 . S
C1317 C64 1.492 . S
C1332 C22 1.492 . S
C1367 C78 1.492 . S
C1382 C36 1.492 . S
C1417 C50 1.492 . S
C1432 C92 1.492 . S
C1467 C120 1.492 . S
C1482 C218 1.492 . S
C1517 C176 1.492 . S
C1532 C134 1.492 . S
C1567 C190 1.492 . S
C1582 C148 1.492 . S
C1617 C204 1.492 . S
C1632 C162 1.492 . S
C1667 C232 1.492 . S
C1682 C330 1.492 . S
C1717 C246 1.492 . S
C1732 C288 1.492 . S
C1767 C302 1.492 . S
C1782 C260 1.492 . S
C1817 C274 1.492 . S
C1832 C316 1.492 . S
C1867 C344 1.492 . S
C1882 C442 1.492 . S
C1917 C400 1.492 . S
C1932 C358 1.492 . S
C1967 C372 1.492 . S
C1982 C414 1.492 . S
C2017 C386 1.492 . S
C2032 C428 1.492 . S
C2067 C423 1.469 . S
C2082 C3 1.469 . S
C2117 C213 1.469 . S
C2132 C17 1.469 . S
C2167 C31 1.469 . S
C2182 C395 1.469 . S
C2217 C45 1.469 . S
C2232 C185 1.469 . S
C2267 C59 1.469 . S
C2282 C367 1.469 . S
C2317 C73 1.469 . S
C2332 C157 1.469 . S
C2367 C87 1.469 . S
C2382 C339 1.469 . S
C2417 C129 1.469 . S
C2432 C101 1.469 . S
C2467 C311 1.469 . S
C2482 C115 1.469 . S
C2517 C143 1.469 . S
C2532 C283 1.469 . S
C2567 C255 1.469 . S
C2582 C171 1.469 . S
C2617 C227 1.469 . S
C2632 C199 1.469 . S
C2667 C241 1.469 . S
C2682 C437 1.469 . S
C2717 C269 1.469 . S
C2732 C409 1.469 . S
C2767 C297 1.469 . S
C2782 C381 1.469 . S
C2817 C353 1.469 . S
C2832 C325 1.469 . S
C2867 C7 1.396 . S
C2882 C105 1.396 . S
C2917 C21 1.397 . S
C2932 C63 1.397 . S
C2967 C77 1.397 . S
C2982 C35 1.397 . S
C3017 C49 1.397 . S
C3032 C91 1.397 . S
C3067 C217 1.396 . S
C3082 C119 1.396 . S
C3117 C175 1.396 . S
C3132 C133 1.396 . S
C3167 C147 1.397 . S
C3182 C189 1.397 . S
C3217 C203 1.397 . S
C3232 C161 1.397 . S
C3267 C329 1.397 . S
C3282 C231 1.397 . S
C3317 C287 1.396 . S
C3332 C245 1.397 . S
C3367 C301 1.397 . S
C3382 C259 1.396 . S
C3417 C315 1.397 . S
C3432 C273 1.396 . S
C3467 C343 1.396 . S
C3482 C441 1.396 . S
C3517 C357 1.397 . S
C3532 C399 1.396 . S
C3567 C371 1.396 . S
C3582 C413 1.396 . S
C3617 C427 1.396 . S
C3632 C385 1.396 . S
