# Generated by pormake.
# Topology fng, (5)-cn, num edge types: 1
# Building blocks:
#     Node 0, Type 0, BuildingBlock: XOMCOT_clean_sbu_0, # of connection points: 5
#     Node 1, Type 0, BuildingBlock: XOMCOT_clean_sbu_0, # of connection points: 5
#     Node 2, Type 0, BuildingBlock: XOMCOT_clean_sbu_0, # of connection points: 5
#     Node 3, Type 0, BuildingBlock: XOMCOT_clean_sbu_0, # of connection points: 5
#     Node 4, Type 0, BuildingBlock: XOMCOT_clean_sbu_0, # of connection points: 5
#     Node 5, Type 0, BuildingBlock: XOMCOT_clean_sbu_0, # of connection points: 5
#     Node 6, Type 0, BuildingBlock: XOMCOT_clean_sbu_0, # of connection points: 5
#     Node 7, Type 0, BuildingBlock: XOMCOT_clean_sbu_0, # of connection points: 5
#     Node 8, Type 0, BuildingBlock: XOMCOT_clean_sbu_0, # of connection points: 5
#     Node 9, Type 0, BuildingBlock: XOMCOT_clean_sbu_0, # of connection points: 5
#     Node 10, Type 0, BuildingBlock: XOMCOT_clean_sbu_0, # of connection points: 5
#     Node 11, Type 0, BuildingBlock: XOMCOT_clean_sbu_0, # of connection points: 5
#     Node 12, Type 0, BuildingBlock: XOMCOT_clean_sbu_0, # of connection points: 5
#     Node 13, Type 0, BuildingBlock: XOMCOT_clean_sbu_0, # of connection points: 5
#     Node 14, Type 0, BuildingBlock: XOMCOT_clean_sbu_0, # of connection points: 5
#     Node 15, Type 0, BuildingBlock: XOMCOT_clean_sbu_0, # of connection points: 5
#     Node 16, Type 0, BuildingBlock: XOMCOT_clean_sbu_0, # of connection points: 5
#     Node 17, Type 0, BuildingBlock: XOMCOT_clean_sbu_0, # of connection points: 5
#     Edge 18, Type (0, 0), BuildingBlock: UVAHIK_clean_linker_0, # of connection points: 2
#     Edge 19, Type (0, 0), BuildingBlock: UVAHIK_clean_linker_0, # of connection points: 2
#     Edge 20, Type (0, 0), BuildingBlock: UVAHIK_clean_linker_0, # of connection points: 2
#     Edge 21, Type (0, 0), BuildingBlock: UVAHIK_clean_linker_0, # of connection points: 2
#     Edge 22, Type (0, 0), BuildingBlock: UVAHIK_clean_linker_0, # of connection points: 2
#     Edge 23, Type (0, 0), BuildingBlock: UVAHIK_clean_linker_0, # of connection points: 2
#     Edge 24, Type (0, 0), BuildingBlock: UVAHIK_clean_linker_0, # of connection points: 2
#     Edge 25, Type (0, 0), BuildingBlock: UVAHIK_clean_linker_0, # of connection points: 2
#     Edge 26, Type (0, 0), BuildingBlock: UVAHIK_clean_linker_0, # of connection points: 2
#     Edge 27, Type (0, 0), BuildingBlock: UVAHIK_clean_linker_0, # of connection points: 2
#     Edge 28, Type (0, 0), BuildingBlock: UVAHIK_clean_linker_0, # of connection points: 2
#     Edge 29, Type (0, 0), BuildingBlock: UVAHIK_clean_linker_0, # of connection points: 2
#     Edge 30, Type (0, 0), BuildingBlock: UVAHIK_clean_linker_0, # of connection points: 2
#     Edge 31, Type (0, 0), BuildingBlock: UVAHIK_clean_linker_0, # of connection points: 2
#     Edge 32, Type (0, 0), BuildingBlock: UVAHIK_clean_linker_0, # of connection points: 2
#     Edge 33, Type (0, 0), BuildingBlock: UVAHIK_clean_linker_0, # of connection points: 2
#     Edge 34, Type (0, 0), BuildingBlock: UVAHIK_clean_linker_0, # of connection points: 2
#     Edge 35, Type (0, 0), BuildingBlock: UVAHIK_clean_linker_0, # of connection points: 2
#     Edge 36, Type (0, 0), BuildingBlock: UVAHIK_clean_linker_0, # of connection points: 2
#     Edge 37, Type (0, 0), BuildingBlock: UVAHIK_clean_linker_0, # of connection points: 2
#     Edge 38, Type (0, 0), BuildingBlock: UVAHIK_clean_linker_0, # of connection points: 2
#     Edge 39, Type (0, 0), BuildingBlock: UVAHIK_clean_linker_0, # of connection points: 2
#     Edge 40, Type (0, 0), BuildingBlock: UVAHIK_clean_linker_0, # of connection points: 2
#     Edge 41, Type (0, 0), BuildingBlock: UVAHIK_clean_linker_0, # of connection points: 2
#     Edge 42, Type (0, 0), BuildingBlock: UVAHIK_clean_linker_0, # of connection points: 2
#     Edge 43, Type (0, 0), BuildingBlock: UVAHIK_clean_linker_0, # of connection points: 2
#     Edge 44, Type (0, 0), BuildingBlock: UVAHIK_clean_linker_0, # of connection points: 2
#     Edge 45, Type (0, 0), BuildingBlock: UVAHIK_clean_linker_0, # of connection points: 2
#     Edge 46, Type (0, 0), BuildingBlock: UVAHIK_clean_linker_0, # of connection points: 2
#     Edge 47, Type (0, 0), BuildingBlock: UVAHIK_clean_linker_0, # of connection points: 2
#     Edge 48, Type (0, 0), BuildingBlock: UVAHIK_clean_linker_0, # of connection points: 2
#     Edge 49, Type (0, 0), BuildingBlock: UVAHIK_clean_linker_0, # of connection points: 2
#     Edge 50, Type (0, 0), BuildingBlock: UVAHIK_clean_linker_0, # of connection points: 2
#     Edge 51, Type (0, 0), BuildingBlock: UVAHIK_clean_linker_0, # of connection points: 2
#     Edge 52, Type (0, 0), BuildingBlock: UVAHIK_clean_linker_0, # of connection points: 2
#     Edge 53, Type (0, 0), BuildingBlock: UVAHIK_clean_linker_0, # of connection points: 2
#     Edge 54, Type (0, 0), BuildingBlock: UVAHIK_clean_linker_0, # of connection points: 2
#     Edge 55, Type (0, 0), BuildingBlock: UVAHIK_clean_linker_0, # of connection points: 2
#     Edge 56, Type (0, 0), BuildingBlock: UVAHIK_clean_linker_0, # of connection points: 2
#     Edge 57, Type (0, 0), BuildingBlock: UVAHIK_clean_linker_0, # of connection points: 2
#     Edge 58, Type (0, 0), BuildingBlock: UVAHIK_clean_linker_0, # of connection points: 2
#     Edge 59, Type (0, 0), BuildingBlock: UVAHIK_clean_linker_0, # of connection points: 2
#     Edge 60, Type (0, 0), BuildingBlock: UVAHIK_clean_linker_0, # of connection points: 2
#     Edge 61, Type (0, 0), BuildingBlock: UVAHIK_clean_linker_0, # of connection points: 2
#     Edge 62, Type (0, 0), BuildingBlock: UVAHIK_clean_linker_0, # of connection points: 2
# Relax obj value: 0.095
# Max RMSD: 0.124
# Mean RMSD: 0.124
data_MOF--net-fng--node1-XOMCOT_clean_sbu_0--edge1-UVAHIK_clean_linker_0
_symmetry_space_group_name_H-M    P1
_symmetry_Int_Tables_number       1
_symmetry_cell_setting            triclinic
loop_
_symmetry_equiv_pos_as_xyz
'x, y, z'
_cell_length_a     101.48296
_cell_length_b     101.56829
_cell_length_c     21.663295
_cell_angle_alpha  90.022207
_cell_angle_beta   89.984365
_cell_angle_gamma 119.87461
loop_
_atom_site_label
_atom_site_type_symbol
_atom_site_fract_x
_atom_site_fract_y
_atom_site_fract_z
_atom_type_partial_charge
Co0 Co 0.1459 0.24529 0.10132 0.0
C1 C 0.14958 0.25063 0.96693 0.0
C2 C 0.16511 0.27043 0.01758 0.0
C3 C 0.16839 0.27325 0.95565 0.0
N4 N 0.15304 0.25634 0.0245 0.0
N5 N 0.15865 0.26069 0.92422 0.0
H6 H 0.14122 0.23909 0.95617 0.0
H7 H 0.17166 0.27784 0.05504 0.0
C8 C 0.14858 0.27563 0.13177 0.0
O9 O 0.14149 0.27512 0.08026 0.0
N10 N 0.13933 0.23452 0.1779 0.0
C11 C 0.12795 0.22025 0.18788 0.0
C12 C 0.12687 0.21753 0.2506 0.0
C13 C 0.14509 0.24023 0.23365 0.0
N14 N 0.13761 0.23018 0.27901 0.0
C15 C 0.11718 0.22932 0.03988 0.0
C16 C 0.10142 0.23914 0.11267 0.0
C17 C 0.09363 0.22855 0.06572 0.0
C18 C 0.10177 0.22374 0.02906 0.0
C19 C 0.11696 0.24442 0.12224 0.0
N20 N 0.12483 0.23993 0.08455 0.0
H21 H 0.12266 0.22436 0.01417 0.0
H22 H 0.12238 0.25154 0.16177 0.0
H23 H 0.12079 0.21252 0.1523 0.0
H24 H 0.15459 0.25154 0.24079 0.0
O25 O 0.14564 0.22782 0.06436 0.0
O26 O 0.16557 0.24662 0.11073 0.0
O27 O 0.15075 0.26467 0.14627 0.0
C28 C 0.15974 0.23373 0.08134 0.0
H29 H 0.17774 0.28336 0.93566 0.0
H30 H 0.11856 0.20725 0.27355 0.0
H31 H 0.09543 0.24274 0.14353 0.0
H32 H 0.09619 0.21536 0.99301 0.0
Co33 Co 0.77702 0.90389 0.10268 0.0
C34 C 0.77046 0.89938 0.9683 0.0
C35 C 0.75195 0.89839 0.01946 0.0
C36 C 0.74845 0.89726 0.95756 0.0
N37 N 0.76565 0.89942 0.02626 0.0
N38 N 0.76013 0.89785 0.92562 0.0
H39 H 0.78166 0.90155 0.95663 0.0
H40 H 0.7452 0.89897 0.05686 0.0
C41 C 0.74671 0.87659 0.13412 0.0
O42 O 0.74715 0.87006 0.08237 0.0
N43 N 0.78809 0.90861 0.17893 0.0
C44 C 0.80232 0.91123 0.18813 0.0
C45 C 0.80532 0.91306 0.25059 0.0
C46 C 0.7827 0.90908 0.23505 0.0
N47 N 0.79295 0.9117 0.27981 0.0
C48 C 0.79298 0.89081 0.04273 0.0
C49 C 0.7824 0.86511 0.11479 0.0
C50 C 0.79228 0.86717 0.0657 0.0
C51 C 0.79773 0.88037 0.03017 0.0
C52 C 0.77779 0.87586 0.12539 0.0
N53 N 0.78245 0.88816 0.08742 0.0
H54 H 0.79829 0.90134 0.0175 0.0
H55 H 0.77082 0.87442 0.16525 0.0
H56 H 0.80982 0.91144 0.1522 0.0
H57 H 0.77129 0.90698 0.24312 0.0
O58 O 0.79426 0.92088 0.06377 0.0
O59 O 0.77553 0.92214 0.11049 0.0
O60 O 0.75779 0.88961 0.14892 0.0
C61 C 0.78829 0.92907 0.08023 0.0
H62 H 0.73828 0.89642 0.93766 0.0
H63 H 0.81572 0.91508 0.27277 0.0
H64 H 0.77829 0.85532 0.1448 0.0
H65 H 0.80603 0.88289 0.99402 0.0
Co66 Co 0.11804 0.87667 0.10159 0.0
C67 C 0.12264 0.87466 0.96726 0.0
C68 C 0.12328 0.85695 0.01826 0.0
C69 C 0.12442 0.85458 0.95635 0.0
N70 N 0.12246 0.86973 0.02516 0.0
N71 N 0.12404 0.86578 0.92451 0.0
H72 H 0.12066 0.88382 0.95569 0.0
H73 H 0.12255 0.84955 0.05559 0.0
C74 C 0.14514 0.87321 0.13312 0.0
O75 O 0.15173 0.88012 0.08139 0.0
N76 N 0.11337 0.88309 0.17784 0.0
C77 C 0.11087 0.89478 0.18709 0.0
C78 C 0.10908 0.89598 0.24956 0.0
C79 C 0.11287 0.87722 0.23396 0.0
N80 N 0.11034 0.88492 0.27875 0.0
C81 C 0.13134 0.90572 0.04225 0.0
C82 C 0.15712 0.92049 0.11417 0.0
C83 C 0.15508 0.92848 0.06572 0.0
C84 C 0.14183 0.9209 0.03024 0.0
C85 C 0.14629 0.90519 0.12444 0.0
N86 N 0.13393 0.89772 0.08656 0.0
H87 H 0.12082 0.90064 0.01696 0.0
H88 H 0.14771 0.89958 0.16403 0.0
H89 H 0.11073 0.9021 0.15118 0.0
H90 H 0.11488 0.86786 0.24201 0.0
O91 O 0.10118 0.8772 0.06252 0.0
O92 O 0.09963 0.85709 0.10905 0.0
O93 O 0.13217 0.87147 0.1479 0.0
C94 C 0.09284 0.86308 0.07869 0.0
H95 H 0.12512 0.84518 0.93639 0.0
H96 H 0.10716 0.90443 0.27176 0.0
H97 H 0.16695 0.926 0.14411 0.0
H98 H 0.13929 0.92678 0.99463 0.0
Co99 Co 0.25007 0.13998 0.88951 0.0
C100 C 0.25538 0.14404 0.02393 0.0
C101 C 0.27536 0.15913 0.97317 0.0
C102 C 0.27821 0.16251 0.03504 0.0
N103 N 0.26115 0.14724 0.96636 0.0
N104 N 0.26554 0.15304 0.06655 0.0
H105 H 0.24376 0.13594 0.03471 0.0
H106 H 0.28287 0.16551 0.93569 0.0
C107 C 0.28043 0.1427 0.85859 0.0
O108 O 0.27988 0.13552 0.90982 0.0
N109 N 0.23929 0.13331 0.81294 0.0
C110 C 0.22505 0.12185 0.80297 0.0
C111 C 0.22234 0.12071 0.74022 0.0
C112 C 0.24499 0.13904 0.75716 0.0
N113 N 0.23497 0.13148 0.71179 0.0
C114 C 0.23498 0.11144 0.95289 0.0
C115 C 0.24492 0.09594 0.87928 0.0
C116 C 0.23548 0.08838 0.9298 0.0
C117 C 0.23037 0.09633 0.96617 0.0
C118 C 0.24937 0.11121 0.86786 0.0
N119 N 0.245 0.11903 0.90637 0.0
H120 H 0.22983 0.11673 0.97866 0.0
H121 H 0.25599 0.11654 0.82703 0.0
H122 H 0.21734 0.11468 0.83858 0.0
H123 H 0.25629 0.14858 0.74996 0.0
O124 O 0.2325 0.13951 0.92662 0.0
O125 O 0.25118 0.15952 0.88012 0.0
O126 O 0.2695 0.14499 0.84448 0.0
C127 C 0.23832 0.1536 0.90978 0.0
H128 H 0.28844 0.17172 0.05492 0.0
H129 H 0.21208 0.11234 0.71726 0.0
H130 H 0.24878 0.09012 0.8487 0.0
H131 H 0.22238 0.09076 0.00347 0.0
Co132 Co 0.8815 0.11265 0.88798 0.0
C133 C 0.8796 0.11742 0.02229 0.0
C134 C 0.86177 0.11787 0.97129 0.0
C135 C 0.85945 0.11909 0.03317 0.0
N136 N 0.87458 0.11709 0.96441 0.0
N137 N 0.87072 0.11882 0.06502 0.0
H138 H 0.88887 0.11559 0.03386 0.0
H139 H 0.85434 0.11708 0.93396 0.0
C140 C 0.87849 0.14005 0.85742 0.0
O141 O 0.88525 0.14643 0.90963 0.0
N142 N 0.8879 0.10798 0.81168 0.0
C143 C 0.89947 0.10529 0.80243 0.0
C144 C 0.90068 0.10353 0.73994 0.0
C145 C 0.8821 0.10763 0.75553 0.0
N146 N 0.88974 0.10501 0.71074 0.0
C147 C 0.91043 0.12489 0.94706 0.0
C148 C 0.926 0.15094 0.87729 0.0
C149 C 0.93388 0.14785 0.92302 0.0
C150 C 0.92582 0.13462 0.95806 0.0
C151 C 0.91047 0.14076 0.86752 0.0
N152 N 0.90267 0.12817 0.90394 0.0
H153 H 0.90497 0.11434 0.97207 0.0
H154 H 0.90499 0.14276 0.82894 0.0
H155 H 0.90669 0.10496 0.83836 0.0
H156 H 0.87284 0.1098 0.74748 0.0
O157 O 0.88159 0.09554 0.92644 0.0
O158 O 0.86171 0.09445 0.87964 0.0
O159 O 0.87673 0.12712 0.84203 0.0
C160 C 0.86748 0.08742 0.90977 0.0
H161 H 0.85003 0.11977 0.05312 0.0
H162 H 0.90904 0.10148 0.71773 0.0
H163 H 0.93192 0.16078 0.84767 0.0
H164 H 0.93143 0.13162 0.99334 0.0
Co165 Co 0.90885 0.77168 0.88977 0.0
C166 C 0.90434 0.76484 0.02397 0.0
C167 C 0.9062 0.74775 0.9732 0.0
C168 C 0.9052 0.74426 0.03507 0.0
N169 N 0.90541 0.76054 0.9662 0.0
N170 N 0.90401 0.75504 0.06677 0.0
H171 H 0.90484 0.77537 0.03546 0.0
H172 H 0.90784 0.74163 0.9359 0.0
C173 C 0.88234 0.74052 0.86283 0.0
O174 O 0.87683 0.74016 0.91809 0.0
N175 N 0.91261 0.78258 0.81353 0.0
C176 C 0.91444 0.79651 0.80442 0.0
C177 C 0.91592 0.79946 0.7419 0.0
C178 C 0.9132 0.77732 0.7573 0.0
N179 N 0.91514 0.78735 0.71259 0.0
C180 C 0.89595 0.78767 0.95082 0.0
C181 C 0.86906 0.77549 0.88552 0.0
C182 C 0.87176 0.78621 0.93185 0.0
C183 C 0.8855 0.79238 0.9642 0.0
C184 C 0.87984 0.77097 0.8739 0.0
N185 N 0.89286 0.77657 0.90825 0.0
H186 H 0.90679 0.79338 0.97391 0.0
H187 H 0.87785 0.76341 0.83569 0.0
H188 H 0.91443 0.80387 0.84048 0.0
H189 H 0.91172 0.76615 0.74918 0.0
O190 O 0.92595 0.7892 0.92682 0.0
O191 O 0.92736 0.77074 0.87845 0.0
O192 O 0.89447 0.75229 0.84462 0.0
C193 C 0.93428 0.78353 0.90853 0.0
H194 H 0.90564 0.73473 0.05513 0.0
H195 H 0.91736 0.80964 0.71975 0.0
H196 H 0.85879 0.77071 0.85808 0.0
H197 H 0.88845 0.80123 -0.00174 0.0
Co198 Co 0.81179 0.57822 0.43354 0.0
C199 C 0.81411 0.58515 0.29947 0.0
C200 C 0.8329 0.60234 0.35029 0.0
C201 C 0.83541 0.60579 0.28837 0.0
N202 N 0.81939 0.5895 0.3573 0.0
N203 N 0.82353 0.59494 0.25663 0.0
H204 H 0.8042 0.57454 0.28797 0.0
H205 H 0.84063 0.60849 0.38759 0.0
C206 C 0.81636 0.60929 0.46186 0.0
O207 O 0.81099 0.6096 0.40705 0.0
N208 N 0.80474 0.56717 0.50957 0.0
C209 C 0.79264 0.55327 0.51869 0.0
C210 C 0.79123 0.55029 0.58121 0.0
C211 C 0.81065 0.57237 0.56579 0.0
N212 N 0.80259 0.56233 0.61051 0.0
C213 C 0.78287 0.5625 0.37284 0.0
C214 C 0.76824 0.57444 0.44056 0.0
C215 C 0.76016 0.56388 0.39382 0.0
C216 C 0.7677 0.55784 0.36019 0.0
C217 C 0.78355 0.57892 0.45136 0.0
N218 N 0.79092 0.57345 0.41585 0.0
H219 H 0.78793 0.55681 0.349 0.0
H220 H 0.78916 0.58633 0.48992 0.0
H221 H 0.7852 0.54598 0.48269 0.0
H222 H 0.82035 0.58351 0.57391 0.0
O223 O 0.81134 0.56082 0.39492 0.0
O224 O 0.83117 0.57899 0.44421 0.0
O225 O 0.81687 0.59754 0.47958 0.0
C226 C 0.82533 0.56637 0.41292 0.0
H227 H 0.84535 0.61532 0.26832 0.0
H228 H 0.78247 0.54013 0.60335 0.0
H229 H 0.76277 0.57909 0.46897 0.0
H230 H 0.76175 0.54911 0.32578 0.0
Co231 Co 0.4438 0.23684 0.43535 0.0
C232 C 0.43868 0.23592 0.30085 0.0
C233 C 0.41841 0.23023 0.35116 0.0
C234 C 0.41564 0.23095 0.28937 0.0
N235 N 0.43277 0.23292 0.35822 0.0
N236 N 0.42848 0.23465 0.25811 0.0
H237 H 0.45044 0.2399 0.29043 0.0
H238 H 0.41072 0.22878 0.38845 0.0
C239 C 0.41357 0.20935 0.46741 0.0
O240 O 0.4143 0.2025 0.4171 0.0
N241 N 0.45454 0.2411 0.51212 0.0
C242 C 0.4688 0.24391 0.52237 0.0
C243 C 0.47155 0.2458 0.58505 0.0
C244 C 0.44886 0.24143 0.56768 0.0
N245 N 0.45893 0.24412 0.61317 0.0
C246 C 0.45833 0.22263 0.37242 0.0
C247 C 0.44915 0.19818 0.45083 0.0
C248 C 0.45829 0.1995 0.39984 0.0
C249 C 0.46297 0.21205 0.36086 0.0
C250 C 0.44469 0.20906 0.46055 0.0
N251 N 0.44872 0.22078 0.41995 0.0
H252 H 0.46318 0.23271 0.34462 0.0
H253 H 0.43835 0.20824 0.50177 0.0
H254 H 0.4765 0.24428 0.487 0.0
H255 H 0.43757 0.23974 0.5746 0.0
O256 O 0.46147 0.25366 0.39789 0.0
O257 O 0.44283 0.25537 0.44338 0.0
O258 O 0.42432 0.22269 0.48056 0.0
C259 C 0.45573 0.2621 0.41393 0.0
H260 H 0.40531 0.22975 0.26946 0.0
H261 H 0.48184 0.24781 0.60819 0.0
H262 H 0.44557 0.18889 0.48323 0.0
H263 H 0.4707 0.21405 0.32292 0.0
Co264 Co 0.78481 0.21003 0.43414 0.0
C265 C 0.7894 0.20797 0.29996 0.0
C266 C 0.79041 0.19046 0.35092 0.0
C267 C 0.79147 0.18807 0.28892 0.0
N268 N 0.7894 0.20313 0.35788 0.0
N269 N 0.79087 0.19916 0.25712 0.0
H270 H 0.78718 0.21698 0.28843 0.0
H271 H 0.78982 0.18311 0.38823 0.0
C272 C 0.81206 0.2069 0.46646 0.0
O273 O 0.81864 0.21379 0.41471 0.0
N274 N 0.77998 0.2164 0.51017 0.0
C275 C 0.77746 0.22808 0.5194 0.0
C276 C 0.77555 0.22921 0.58184 0.0
C277 C 0.77938 0.21048 0.56627 0.0
N278 N 0.77677 0.21812 0.61105 0.0
C279 C 0.79796 0.23902 0.3743 0.0
C280 C 0.82365 0.25403 0.44658 0.0
C281 C 0.82162 0.26187 0.39751 0.0
C282 C 0.80842 0.25418 0.36187 0.0
C283 C 0.81288 0.23872 0.45708 0.0
N284 N 0.80058 0.23112 0.41898 0.0
H285 H 0.78744 0.23387 0.349 0.0
H286 H 0.81429 0.23319 0.49696 0.0
H287 H 0.77738 0.23544 0.48351 0.0
H288 H 0.78138 0.20111 0.57433 0.0
O289 O 0.76789 0.21027 0.39412 0.0
O290 O 0.76651 0.19039 0.44202 0.0
O291 O 0.79904 0.20506 0.481 0.0
C292 C 0.75966 0.19616 0.41068 0.0
H293 H 0.79224 0.17872 0.26886 0.0
H294 H 0.77357 0.23763 0.60401 0.0
H295 H 0.83343 0.25966 0.4767 0.0
H296 H 0.80592 0.25997 0.32574 0.0
Co297 Co 0.91663 0.47349 0.2248 0.0
C298 C 0.92358 0.47582 0.35884 0.0
C299 C 0.94076 0.49462 0.30805 0.0
C300 C 0.94422 0.49712 0.36998 0.0
N301 N 0.92793 0.48112 0.30103 0.0
N302 N 0.93338 0.48524 0.4017 0.0
H303 H 0.91298 0.4659 0.37033 0.0
H304 H 0.94691 0.50235 0.27077 0.0
C305 C 0.94774 0.47807 0.19645 0.0
O306 O 0.94811 0.47278 0.25137 0.0
N307 N 0.90557 0.46641 0.14878 0.0
C308 C 0.89167 0.45429 0.13965 0.0
C309 C 0.8887 0.45286 0.07712 0.0
C310 C 0.91077 0.47231 0.09256 0.0
N311 N 0.90074 0.46423 0.04781 0.0
C312 C 0.90085 0.44463 0.28564 0.0
C313 C 0.91296 0.43001 0.21901 0.0
C314 C 0.90236 0.42197 0.2657 0.0
C315 C 0.89622 0.4295 0.29871 0.0
C316 C 0.91739 0.44527 0.20771 0.0
N317 N 0.91185 0.45265 0.24275 0.0
H318 H 0.89513 0.4497 0.30917 0.0
H319 H 0.92484 0.45084 0.16921 0.0
H320 H 0.88438 0.44686 0.17565 0.0
H321 H 0.92191 0.48202 0.08444 0.0
O322 O 0.89922 0.47307 0.26334 0.0
O323 O 0.9174 0.49285 0.21394 0.0
O324 O 0.93596 0.47854 0.17876 0.0
C325 C 0.90478 0.48704 0.24524 0.0
H326 H 0.95376 0.50706 0.39005 0.0
H327 H 0.87854 0.4441 0.05497 0.0
H328 H 0.9177 0.42454 0.19105 0.0
H329 H 0.88745 0.42359 0.33302 0.0
Co330 Co 0.54832 0.4458 0.22216 0.0
C331 C 0.54588 0.45022 0.35652 0.0
C332 C 0.52713 0.44871 0.30539 0.0
C333 C 0.52458 0.44969 0.36721 0.0
N334 N 0.54064 0.44931 0.29862 0.0
N335 N 0.53642 0.45066 0.39915 0.0
H336 H 0.55581 0.44954 0.36822 0.0
H337 H 0.51946 0.44722 0.26795 0.0
C338 C 0.54375 0.4724 0.19504 0.0
O339 O 0.54904 0.47796 0.25007 0.0
N340 N 0.55543 0.44198 0.14585 0.0
C341 C 0.56753 0.44014 0.13656 0.0
C342 C 0.56896 0.43864 0.074 0.0
C343 C 0.54954 0.44138 0.0897 0.0
N344 N 0.55761 0.43942 0.04485 0.0
C345 C 0.57714 0.45879 0.28349 0.0
C346 C 0.59183 0.48547 0.21703 0.0
C347 C 0.59978 0.48293 0.26421 0.0
C348 C 0.59223 0.46929 0.2971 0.0
C349 C 0.57658 0.47467 0.20536 0.0
N350 N 0.56916 0.46178 0.24034 0.0
H351 H 0.57205 0.44801 0.30689 0.0
H352 H 0.57102 0.47654 0.16673 0.0
H353 H 0.57494 0.44017 0.17251 0.0
H354 H 0.53984 0.44287 0.08174 0.0
O355 O 0.54883 0.42874 0.25935 0.0
O356 O 0.52893 0.42731 0.21118 0.0
O357 O 0.54326 0.46017 0.17697 0.0
C358 C 0.53484 0.42041 0.24129 0.0
H359 H 0.51465 0.4494 0.38706 0.0
H360 H 0.57771 0.43721 0.05171 0.0
H361 H 0.59735 0.49566 0.18915 0.0
H362 H 0.5981 0.46647 0.33184 0.0
Co363 Co 0.57577 0.10496 0.22336 0.0
C364 C 0.57126 0.09802 0.35743 0.0
C365 C 0.57306 0.08092 0.30654 0.0
C366 C 0.57213 0.07745 0.36846 0.0
N367 N 0.57226 0.0937 0.29959 0.0
N368 N 0.57098 0.08825 0.40024 0.0
H369 H 0.57182 0.10857 0.36897 0.0
H370 H 0.57468 0.07479 0.2692 0.0
C371 C 0.54928 0.07385 0.19566 0.0
O372 O 0.54376 0.07343 0.25095 0.0
N373 N 0.5796 0.11598 0.14735 0.0
C374 C 0.5813 0.12987 0.13824 0.0
C375 C 0.58281 0.13283 0.0757 0.0
C376 C 0.58029 0.11078 0.09111 0.0
N377 N 0.58218 0.12079 0.04638 0.0
C378 C 0.56292 0.12092 0.28489 0.0
C379 C 0.53591 0.10871 0.2204 0.0
C380 C 0.53863 0.11934 0.26719 0.0
C381 C 0.55245 0.12555 0.29898 0.0
C382 C 0.54672 0.10426 0.20808 0.0
N383 N 0.55978 0.10984 0.24214 0.0
H384 H 0.57378 0.12664 0.30774 0.0
H385 H 0.54469 0.09673 0.1697 0.0
H386 H 0.58117 0.13717 0.17427 0.0
H387 H 0.57892 0.09965 0.08299 0.0
O388 O 0.59281 0.12233 0.26143 0.0
O389 O 0.59432 0.1041 0.2117 0.0
O390 O 0.56141 0.08565 0.17762 0.0
C391 C 0.60118 0.11672 0.24293 0.0
H392 H 0.57261 0.06794 0.38848 0.0
H393 H 0.58417 0.14298 0.05356 0.0
H394 H 0.52558 0.10394 0.19331 0.0
H395 H 0.55541 0.13434 0.33334 0.0
Co396 Co 0.47896 0.91161 0.76702 0.0
C397 C 0.48111 0.9186 0.63309 0.0
C398 C 0.50013 0.93559 0.6836 0.0
C399 C 0.50255 0.93908 0.62169 0.0
N400 N 0.48656 0.92285 0.69077 0.0
N401 N 0.49054 0.92835 0.59013 0.0
H402 H 0.47103 0.90812 0.62179 0.0
H403 H 0.50794 0.94167 0.72077 0.0
C404 C 0.4833 0.94267 0.79431 0.0
O405 O 0.47823 0.94304 0.73892 0.0
N406 N 0.47188 0.90058 0.84308 0.0
C407 C 0.45989 0.88661 0.85215 0.0
C408 C 0.45841 0.88367 0.91469 0.0
C409 C 0.47766 0.90587 0.89937 0.0
N410 N 0.46962 0.89582 0.94407 0.0
C411 C 0.45012 0.89496 0.70685 0.0
C412 C 0.43492 0.90681 0.77121 0.0
C413 C 0.42688 0.89529 0.72779 0.0
C414 C 0.43475 0.88945 0.69532 0.0
C415 C 0.4504 0.91199 0.78167 0.0
N416 N 0.458 0.90642 0.74821 0.0
H417 H 0.4555 0.88952 0.6835 0.0
H418 H 0.45592 0.91992 0.8188 0.0
H419 H 0.45258 0.87922 0.81609 0.0
H420 H 0.48726 0.91708 0.90756 0.0
O421 O 0.47893 0.89435 0.72912 0.0
O422 O 0.49849 0.91272 0.77875 0.0
O423 O 0.48365 0.93088 0.81263 0.0
C424 C 0.49289 0.90009 0.74766 0.0
H425 H 0.51252 0.94856 0.60152 0.0
H426 H 0.44972 0.87346 0.93681 0.0
H427 H 0.42915 0.91129 0.79886 0.0
H428 H 0.429 0.88044 0.66179 0.0
Co429 Co 0.11029 0.57062 0.7705 0.0
C430 C 0.10485 0.56905 0.63615 0.0
C431 C 0.08632 0.56809 0.68714 0.0
C432 C 0.08364 0.56873 0.62516 0.0
N433 N 0.09948 0.56794 0.69386 0.0
N434 N 0.09542 0.56948 0.59356 0.0
H435 H 0.11574 0.57031 0.62504 0.0
H436 H 0.07951 0.56843 0.72483 0.0
C437 C 0.07896 0.54396 0.79506 0.0
O438 O 0.07869 0.53866 0.73947 0.0
N439 N 0.12089 0.57363 0.84693 0.0
C440 C 0.13493 0.57575 0.85645 0.0
C441 C 0.13761 0.57687 0.91921 0.0
C442 C 0.11528 0.57361 0.903 0.0
N443 N 0.12516 0.57542 0.94811 0.0
C444 C 0.12609 0.5579 0.7068 0.0
C445 C 0.11357 0.53052 0.76854 0.0
C446 C 0.12421 0.53341 0.72156 0.0
C447 C 0.13059 0.54741 0.69123 0.0
C448 C 0.10928 0.54137 0.78244 0.0
N449 N 0.11501 0.55463 0.7497 0.0
H450 H 0.13202 0.56891 0.6854 0.0
H451 H 0.10174 0.53921 0.82096 0.0
H452 H 0.14255 0.57622 0.8205 0.0
H453 H 0.10417 0.57238 0.91048 0.0
O454 O 0.12806 0.58784 0.73561 0.0
O455 O 0.10957 0.58917 0.78407 0.0
O456 O 0.09069 0.55604 0.81394 0.0
C457 C 0.12245 0.59616 0.75458 0.0
H458 H 0.07426 0.56947 0.60514 0.0
H459 H 0.14774 0.57826 0.94177 0.0
H460 H 0.10868 0.52004 0.79458 0.0
H461 H 0.13944 0.55053 0.65698 0.0
Co462 Co 0.45137 0.5431 0.77003 0.0
C463 C 0.45579 0.54066 0.63567 0.0
C464 C 0.45429 0.52193 0.68678 0.0
C465 C 0.45527 0.51938 0.62494 0.0
N466 N 0.45488 0.53542 0.69356 0.0
N467 N 0.45623 0.53122 0.59302 0.0
H468 H 0.4551 0.55058 0.62399 0.0
H469 H 0.45282 0.51427 0.72422 0.0
C470 C 0.47809 0.53868 0.79677 0.0
O471 O 0.48359 0.54398 0.74169 0.0
N472 N 0.44756 0.55021 0.84633 0.0
C473 C 0.44569 0.5623 0.85561 0.0
C474 C 0.44421 0.56373 0.91817 0.0
C475 C 0.44699 0.54435 0.90249 0.0
N476 N 0.44502 0.55241 0.94733 0.0
C477 C 0.46414 0.57184 0.7085 0.0
C478 C 0.49102 0.58667 0.77378 0.0
C479 C 0.48833 0.59452 0.72668 0.0
C480 C 0.47458 0.58691 0.69446 0.0
C481 C 0.48027 0.57144 0.78596 0.0
N482 N 0.46727 0.56395 0.75151 0.0
H483 H 0.4533 0.56669 0.68545 0.0
H484 H 0.48226 0.56595 0.8245 0.0
H485 H 0.4457 0.56968 0.81965 0.0
H486 H 0.4485 0.53467 0.91047 0.0
O487 O 0.43424 0.5435 0.73298 0.0
O488 O 0.43292 0.52368 0.78123 0.0
O489 O 0.46585 0.53815 0.81509 0.0
C490 C 0.42596 0.52951 0.75105 0.0
H491 H 0.45499 0.50947 0.60508 0.0
H492 H 0.44276 0.57247 0.94045 0.0
H493 H 0.5013 0.59224 0.80118 0.0
H494 H 0.47164 0.5927 0.65983 0.0
Co495 Co 0.58347 0.80661 0.55906 0.0
C496 C 0.59008 0.80859 0.6932 0.0
C497 C 0.60858 0.8261 0.64233 0.0
C498 C 0.612 0.82847 0.70434 0.0
N499 N 0.59493 0.81344 0.6353 0.0
N500 N 0.60032 0.81739 0.73609 0.0
H501 H 0.57886 0.7996 0.70464 0.0
H502 H 0.61533 0.83346 0.60506 0.0
C503 C 0.61383 0.80974 0.52648 0.0
O504 O 0.61354 0.80282 0.57814 0.0
N505 N 0.57227 0.80031 0.48305 0.0
C506 C 0.55809 0.78868 0.47388 0.0
C507 C 0.55502 0.78758 0.41147 0.0
C508 C 0.57757 0.80623 0.42695 0.0
N509 N 0.56732 0.79864 0.38222 0.0
C510 C 0.56762 0.77754 0.61839 0.0
C511 C 0.57828 0.76259 0.5453 0.0
C512 C 0.56829 0.75463 0.59387 0.0
C513 C 0.56283 0.76231 0.63003 0.0
C514 C 0.58288 0.77794 0.53551 0.0
N515 N 0.57816 0.78549 0.5739 0.0
H516 H 0.56228 0.78269 0.644 0.0
H517 H 0.58985 0.78353 0.49579 0.0
H518 H 0.55066 0.78134 0.50979 0.0
H519 H 0.58893 0.81557 0.41885 0.0
O520 O 0.56633 0.8064 0.59925 0.0
O521 O 0.58482 0.82628 0.55143 0.0
O522 O 0.60264 0.81158 0.51207 0.0
C523 C 0.57221 0.82053 0.58277 0.0
H524 H 0.62208 0.83783 0.72444 0.0
H525 H 0.54463 0.7792 0.38935 0.0
H526 H 0.58243 0.757 0.51486 0.0
H527 H 0.55446 0.75645 0.66581 0.0
Co528 Co 0.21495 0.77943 0.55659 0.0
C529 C 0.21285 0.78394 0.69094 0.0
C530 C 0.19511 0.78453 0.63985 0.0
C531 C 0.19272 0.78565 0.70176 0.0
N532 N 0.20792 0.78375 0.63302 0.0
N533 N 0.20394 0.78531 0.73365 0.0
H534 H 0.22204 0.78201 0.70256 0.0
H535 H 0.18771 0.78381 0.60247 0.0
C536 C 0.21155 0.80657 0.52552 0.0
O537 O 0.21835 0.81306 0.57755 0.0
N538 N 0.22145 0.77486 0.48034 0.0
C539 C 0.23318 0.7724 0.47109 0.0
C540 C 0.2344 0.77063 0.40861 0.0
C541 C 0.21558 0.77435 0.42422 0.0
N542 N 0.22331 0.77186 0.37942 0.0
C543 C 0.2439 0.79249 0.61662 0.0
C544 C 0.25886 0.81857 0.54665 0.0
C545 C 0.26667 0.81638 0.59544 0.0
C546 C 0.25901 0.80297 0.62977 0.0
C547 C 0.24359 0.80774 0.53527 0.0
N548 N 0.23601 0.79524 0.57231 0.0
H549 H 0.23875 0.78188 0.64124 0.0
H550 H 0.23808 0.8093 0.49563 0.0
H551 H 0.24051 0.77226 0.50702 0.0
H552 H 0.20619 0.77632 0.41617 0.0
O553 O 0.21537 0.76248 0.59534 0.0
O554 O 0.19533 0.76107 0.5485 0.0
O555 O 0.20986 0.79365 0.51045 0.0
C556 C 0.20125 0.75421 0.57882 0.0
H557 H 0.18329 0.78633 0.72169 0.0
H558 H 0.24287 0.76874 0.38641 0.0
H559 H 0.26447 0.82853 0.51747 0.0
H560 H 0.26478 0.80033 0.66555 0.0
Co561 Co 0.24231 0.43866 0.55651 0.0
C562 C 0.23737 0.43208 0.69065 0.0
C563 C 0.23681 0.4137 0.64005 0.0
C564 C 0.23558 0.41024 0.70199 0.0
N565 N 0.23766 0.4273 0.63289 0.0
N566 N 0.23592 0.42183 0.73359 0.0
H567 H 0.23931 0.44321 0.70197 0.0
H568 H 0.23761 0.40702 0.6029 0.0
C569 C 0.21503 0.40833 0.52473 0.0
O570 O 0.20846 0.40868 0.57652 0.0
N571 N 0.24719 0.44975 0.4803 0.0
C572 C 0.24999 0.46403 0.47122 0.0
C573 C 0.25186 0.46705 0.40881 0.0
C574 C 0.24759 0.44434 0.42412 0.0
N575 N 0.25033 0.45464 0.37948 0.0
C576 C 0.22965 0.45521 0.61434 0.0
C577 C 0.20393 0.44473 0.5422 0.0
C578 C 0.20669 0.45559 0.58791 0.0
C579 C 0.21976 0.4608 0.62411 0.0
C580 C 0.21425 0.43947 0.53362 0.0
N581 N 0.22666 0.44425 0.57122 0.0
H582 H 0.2401 0.46031 0.64013 0.0
H583 H 0.21252 0.4321 0.49495 0.0
H584 H 0.2503 0.47156 0.50722 0.0
H585 H 0.24535 0.4329 0.41591 0.0
O586 O 0.2593 0.45583 0.59569 0.0
O587 O 0.26057 0.43709 0.54931 0.0
O588 O 0.22802 0.41947 0.51003 0.0
C589 C 0.2675 0.44985 0.57952 0.0
H590 H 0.23489 0.40017 0.72217 0.0
H591 H 0.25401 0.4775 0.38674 0.0
H592 H 0.19426 0.44082 0.51159 0.0
H593 H 0.22252 0.46937 0.65925 0.0
C594 C 0.137 0.22097 0.38501 0.0
C595 C 0.14019 0.23291 0.34412 0.0
C596 C 0.13983 0.22381 0.44811 0.0
C597 C 0.16201 0.25473 0.5587 0.0
H598 H 0.13211 0.22765 0.67702 0.0
C599 C 0.16243 0.26967 0.81647 0.0
C600 C 0.15857 0.25792 0.85919 0.0
C601 C 0.16122 0.26664 0.75318 0.0
C602 C 0.14065 0.23521 0.64454 0.0
H603 H 0.14833 0.25709 0.33742 0.0
H604 H 0.15319 0.262 0.44715 0.0
H605 H 0.12776 0.22201 0.56717 0.0
H606 H 0.15142 0.23404 0.86942 0.0
H607 H 0.14929 0.22876 0.75927 0.0
H608 H 0.17481 0.26802 0.63623 0.0
C609 C 0.14887 0.25052 0.43045 0.0
C610 C 0.13817 0.23197 0.58169 0.0
C611 C 0.14608 0.2477 0.36756 0.0
C612 C 0.15406 0.24324 0.83758 0.0
C613 C 0.15287 0.24021 0.77453 0.0
C614 C 0.16448 0.25798 0.6216 0.0
C615 C 0.14584 0.23863 0.47135 0.0
C616 C 0.14878 0.24174 0.53813 0.0
C617 C 0.15617 0.25181 0.73173 0.0
C618 C 0.1538 0.24828 0.66508 0.0
H619 H 0.13259 0.2095 0.36808 0.0
H620 H 0.13751 0.21444 0.47856 0.0
H621 H 0.17049 0.26235 0.52616 0.0
H622 H 0.16587 0.28107 0.83204 0.0
H623 H 0.16374 0.27579 0.72114 0.0
C624 C 0.79756 0.90637 0.38639 0.0
C625 C 0.79045 0.91155 0.34523 0.0
C626 C 0.79413 0.90504 0.4493 0.0
C627 C 0.77799 0.91799 0.57143 0.0
H628 H 0.77015 0.88083 0.65335 0.0
C629 C 0.75507 0.90398 0.82084 0.0
C630 C 0.76205 0.89819 0.8597 0.0
C631 C 0.75785 0.90522 0.75731 0.0
C632 C 0.77243 0.89133 0.63131 0.0
H633 H 0.77468 0.92004 0.33806 0.0
H634 H 0.76861 0.91763 0.44787 0.0
H635 H 0.77717 0.8845 0.54454 0.0
H636 H 0.77689 0.88854 0.86205 0.0
H637 H 0.782 0.89098 0.7518 0.0
H638 H 0.77339 0.92489 0.65835 0.0
C639 C 0.77683 0.91458 0.43149 0.0
C640 C 0.77648 0.89344 0.56903 0.0
C641 C 0.7802 0.91583 0.36857 0.0
C642 C 0.77152 0.89327 0.83349 0.0
C643 C 0.7743 0.8945 0.77015 0.0
C644 C 0.77399 0.91591 0.63382 0.0
C645 C 0.7836 0.90897 0.47235 0.0
C646 C 0.77936 0.90681 0.53853 0.0
C647 C 0.76763 0.90063 0.7314 0.0
C648 C 0.77123 0.90258 0.66451 0.0
H649 H 0.80541 0.90288 0.36976 0.0
H650 H 0.79966 0.90085 0.4799 0.0
H651 H 0.78027 0.92847 0.54922 0.0
H652 H 0.74778 0.90795 0.83964 0.0
H653 H 0.75239 0.90982 0.72852 0.0
C654 C 0.11783 0.85464 0.81968 0.0
C655 C 0.12374 0.8674 0.85859 0.0
C656 C 0.11662 0.85622 0.75616 0.0
C657 C 0.13074 0.88463 0.63022 0.0
H658 H 0.09344 0.85567 0.54817 0.0
C659 C 0.1158 0.89488 0.38529 0.0
C660 C 0.1105 0.88258 0.34417 0.0
C661 C 0.11713 0.89277 0.4482 0.0
C662 C 0.10397 0.86377 0.57037 0.0
H663 H 0.13362 0.89187 0.86104 0.0
H664 H 0.13123 0.89459 0.75079 0.0
H665 H 0.09699 0.85233 0.65729 0.0
H666 H 0.10183 0.85834 0.33705 0.0
H667 H 0.10423 0.85468 0.44684 0.0
H668 H 0.13764 0.89614 0.54343 0.0
C669 C 0.1276 0.88337 0.7691 0.0
C670 C 0.10603 0.86183 0.63276 0.0
C671 C 0.12881 0.88179 0.83244 0.0
C672 C 0.10612 0.86806 0.36753 0.0
C673 C 0.10737 0.86594 0.43044 0.0
C674 C 0.12865 0.88659 0.56794 0.0
C675 C 0.12135 0.87059 0.7303 0.0
C676 C 0.11941 0.87228 0.66343 0.0
C677 C 0.11309 0.87831 0.47128 0.0
C678 C 0.11522 0.87621 0.53745 0.0
H679 H 0.11374 0.84339 0.83841 0.0
H680 H 0.11193 0.84618 0.72733 0.0
H681 H 0.14128 0.89274 0.65225 0.0
H682 H 0.11938 0.90621 0.36865 0.0
H683 H 0.12141 0.90249 0.47878 0.0
C684 C 0.2258 0.13085 0.60568 0.0
C685 C 0.23773 0.13402 0.64667 0.0
C686 C 0.22867 0.1337 0.5426 0.0
C687 C 0.25975 0.15593 0.43244 0.0
H688 H 0.23249 0.12642 0.31334 0.0
C689 C 0.27458 0.15666 0.17423 0.0
C690 C 0.26284 0.15301 0.13163 0.0
C691 C 0.27158 0.15538 0.23756 0.0
C692 C 0.24011 0.13486 0.34605 0.0
H693 H 0.2619 0.14211 0.65359 0.0
H694 H 0.26689 0.14698 0.54389 0.0
H695 H 0.22684 0.12187 0.42311 0.0
H696 H 0.23901 0.14621 0.12176 0.0
H697 H 0.23376 0.14394 0.23196 0.0
H698 H 0.27311 0.1688 0.35519 0.0
C699 C 0.25539 0.14268 0.56048 0.0
C700 C 0.23686 0.13226 0.40886 0.0
C701 C 0.25253 0.13988 0.62335 0.0
C702 C 0.2482 0.14868 0.15346 0.0
C703 C 0.24519 0.14741 0.21654 0.0
C704 C 0.26301 0.15851 0.36958 0.0
C705 C 0.24352 0.13971 0.51947 0.0
C706 C 0.24668 0.14273 0.45272 0.0
C707 C 0.25678 0.15047 0.25918 0.0
C708 C 0.25324 0.14798 0.32582 0.0
H709 H 0.21432 0.12645 0.62253 0.0
H710 H 0.21931 0.13142 0.5121 0.0
H711 H 0.26741 0.16431 0.46518 0.0
H712 H 0.28594 0.15996 0.15853 0.0
H713 H 0.2807 0.15772 0.26946 0.0
C714 C 0.89975 0.11046 0.60429 0.0
C715 C 0.88743 0.10523 0.64533 0.0
C716 C 0.89768 0.11183 0.54137 0.0
C717 C 0.86871 0.09882 0.41909 0.0
H718 H 0.89779 0.13608 0.33736 0.0
C719 C 0.8596 0.11268 0.1699 0.0
C720 C 0.87236 0.11858 0.13095 0.0
C721 C 0.86119 0.11149 0.23341 0.0
C722 C 0.88965 0.12555 0.35935 0.0
H723 H 0.8632 0.09673 0.65235 0.0
H724 H 0.8596 0.09919 0.54253 0.0
H725 H 0.90116 0.13241 0.44618 0.0
H726 H 0.89685 0.12848 0.12846 0.0
H727 H 0.8996 0.12611 0.2387 0.0
H728 H 0.85728 0.09188 0.33214 0.0
C729 C 0.87085 0.10225 0.559 0.0
C730 C 0.89159 0.12345 0.42162 0.0
C731 C 0.87293 0.10096 0.62191 0.0
C732 C 0.88678 0.12367 0.15708 0.0
C733 C 0.88837 0.12247 0.22042 0.0
C734 C 0.86679 0.1009 0.3567 0.0
C735 C 0.88324 0.10789 0.51823 0.0
C736 C 0.88117 0.11004 0.45206 0.0
C737 C 0.87558 0.11622 0.25924 0.0
C738 C 0.87727 0.11427 0.32609 0.0
H739 H 0.91106 0.11395 0.62101 0.0
H740 H 0.9074 0.11605 0.51085 0.0
H741 H 0.86058 0.08831 0.44126 0.0
H742 H 0.84833 0.10858 0.1512 0.0
H743 H 0.85115 0.10681 0.26225 0.0
C744 C 0.91092 0.7511 0.17193 0.0
C745 C 0.90396 0.75685 0.13267 0.0
C746 C 0.91194 0.75402 0.23531 0.0
C747 C 0.9125 0.78163 0.34575 0.0
H748 H 0.90447 0.75066 0.46804 0.0
C749 C 0.90918 0.79136 0.60619 0.0
C750 C 0.91512 0.78494 0.64719 0.0
C751 C 0.90815 0.78807 0.54319 0.0
C752 C 0.90696 0.75949 0.43443 0.0
H753 H 0.89184 0.76941 0.12967 0.0
H754 H 0.89372 0.77458 0.24001 0.0
H755 H 0.90156 0.74408 0.35864 0.0
H756 H 0.92527 0.7706 0.65415 0.0
H757 H 0.92369 0.76503 0.54412 0.0
H758 H 0.91805 0.79708 0.4212 0.0
C759 C 0.89865 0.76808 0.22161 0.0
C760 C 0.90524 0.7557 0.37185 0.0
C761 C 0.89758 0.76512 0.15843 0.0
C762 C 0.9204 0.77551 0.62374 0.0
C763 C 0.91945 0.77229 0.56077 0.0
C764 C 0.9143 0.78544 0.40826 0.0
C765 C 0.90604 0.76276 0.26054 0.0
C766 C 0.90793 0.76672 0.32694 0.0
C767 C 0.91314 0.77838 0.51987 0.0
C768 C 0.9115 0.7744 0.45333 0.0
H769 H 0.91606 0.74481 0.1535 0.0
H770 H 0.91778 0.74985 0.26427 0.0
H771 H 0.9149 0.79041 0.31202 0.0
H772 H 0.90484 0.7985 0.62306 0.0
H773 H 0.90304 0.7928 0.51305 0.0
C774 C 0.80717 0.58466 0.16476 0.0
C775 C 0.82175 0.59303 0.19071 0.0
C776 C 0.80536 0.58162 0.10161 0.0
C777 C 0.82444 0.59397 0.95144 0.0
H778 H 0.79592 0.5526 0.90217 0.0
C779 C 0.81972 0.57415 0.69929 0.0
C780 C 0.80502 0.56473 0.67595 0.0
C781 C 0.82202 0.57736 0.76229 0.0
C782 C 0.8038 0.56424 0.91508 0.0
H783 H 0.84587 0.60517 0.17017 0.0
H784 H 0.84269 0.59999 0.05946 0.0
H785 H 0.79939 0.55929 0.01132 0.0
H786 H 0.78123 0.55118 0.70038 0.0
H787 H 0.78519 0.55687 0.81038 0.0
H788 H 0.82873 0.59898 0.85522 0.0
C789 C 0.83267 0.5958 0.08824 0.0
C790 C 0.80579 0.56807 0.97759 0.0
C791 C 0.83449 0.5988 0.15162 0.0
C792 C 0.7927 0.55831 0.71711 0.0
C793 C 0.79498 0.56159 0.78014 0.0
C794 C 0.82239 0.59016 0.88884 0.0
C795 C 0.81808 0.58697 0.06284 0.0
C796 C 0.8161 0.58297 -0.0036 0.0
C797 C 0.80966 0.57127 0.80336 0.0
C798 C 0.81202 0.57525 0.86994 0.0
H799 H 0.79712 0.58035 0.19337 0.0
H800 H 0.79397 0.57506 0.08311 0.0
H801 H 0.83234 0.60558 0.9646 0.0
H802 H 0.82946 0.57905 0.66878 0.0
H803 H 0.8335 0.58461 0.77881 0.0
C804 C 0.41963 0.22968 0.15011 0.0
C805 C 0.43126 0.23768 0.19322 0.0
C806 C 0.42271 0.23178 0.0869 0.0
C807 C 0.45435 0.24354 0.97874 0.0
H808 H 0.42671 0.24541 0.86024 0.0
C809 C 0.46823 0.25322 0.71866 0.0
C810 C 0.45625 0.24429 0.67821 0.0
C811 C 0.46545 0.25349 0.78169 0.0
C812 C 0.43448 0.24479 0.89279 0.0
H813 H 0.45496 0.25492 0.20413 0.0
H814 H 0.46033 0.25852 0.09408 0.0
H815 H 0.42104 0.24406 0.97032 0.0
H816 H 0.43207 0.22825 0.67221 0.0
H817 H 0.42726 0.22862 0.78184 0.0
H818 H 0.46766 0.24399 0.90141 0.0
C819 C 0.44894 0.25037 0.10903 0.0
C820 C 0.43124 0.24402 0.95571 0.0
C821 C 0.44586 0.24827 0.17203 0.0
C822 C 0.44149 0.23551 0.70202 0.0
C823 C 0.43872 0.23573 0.76485 0.0
C824 C 0.45758 0.24426 0.91586 0.0
C825 C 0.43747 0.24195 0.06586 0.0
C826 C 0.4411 0.24331 -0.00076 0.0
C827 C 0.45065 0.24476 0.80536 0.0
C828 C 0.44762 0.24477 0.87221 0.0
H829 H 0.40831 0.22141 0.16527 0.0
H830 H 0.41368 0.22506 0.05458 0.0
H831 H 0.46205 0.24277 0.01125 0.0
H832 H 0.47968 0.2602 0.70141 0.0
H833 H 0.47485 0.26067 0.81176 0.0
C834 C 0.77236 0.20112 0.69957 0.0
C835 C 0.77674 0.21566 0.67649 0.0
C836 C 0.77336 0.19888 0.76257 0.0
C837 C 0.77686 0.21648 0.91569 0.0
H838 H 0.79282 0.19041 0.96511 0.0
C839 C 0.79514 0.21506 0.16507 0.0
C840 C 0.79032 0.2007 0.19123 0.0
C841 C 0.79353 0.21655 0.10197 0.0
C842 C 0.78821 0.1976 0.952 0.0
H843 H 0.78546 0.23923 0.70156 0.0
H844 H 0.78729 0.23537 0.81153 0.0
H845 H 0.78937 0.19359 0.85574 0.0
H846 H 0.78039 0.1767 0.17122 0.0
H847 H 0.77766 0.17932 0.06054 0.0
H848 H 0.77586 0.22061 0.01192 0.0
C849 C 0.78286 0.22564 0.78103 0.0
C850 C 0.7862 0.1994 0.8894 0.0
C851 C 0.78181 0.22786 0.71799 0.0
C852 C 0.78433 0.18792 0.15243 0.0
C853 C 0.78274 0.18942 0.08909 0.0
C854 C 0.77893 0.21472 0.9782 0.0
C855 C 0.7788 0.21115 0.80394 0.0
C856 C 0.78055 0.20891 0.87053 0.0
C857 C 0.7871 0.20373 0.06344 0.0
C858 C 0.7847 0.20533 -0.00299 0.0
H859 H 0.76817 0.19146 0.66885 0.0
H860 H 0.76985 0.18753 0.77887 0.0
H861 H 0.77225 0.22368 0.90277 0.0
H862 H 0.80012 0.22516 0.19349 0.0
H863 H 0.79731 0.22777 0.08332 0.0
C864 C 0.89675 0.45432 0.94124 0.0
C865 C 0.90315 0.46665 0.98238 0.0
C866 C 0.90004 0.4566 0.87822 0.0
C867 C 0.92863 0.48399 0.76952 0.0
H868 H 0.89775 0.46098 0.64699 0.0
C869 C 0.93724 0.49615 0.5068 0.0
C870 C 0.93149 0.48344 0.46762 0.0
C871 C 0.93426 0.4943 0.57017 0.0
C872 C 0.90653 0.46739 0.68073 0.0
H873 H 0.91745 0.49107 0.98949 0.0
H874 H 0.92303 0.49509 0.87948 0.0
H875 H 0.89106 0.45749 0.75614 0.0
H876 H 0.91883 0.45882 0.46482 0.0
H877 H 0.91355 0.45563 0.57508 0.0
H878 H 0.94406 0.49397 0.69379 0.0
C879 C 0.91579 0.48362 0.89602 0.0
C880 C 0.9027 0.46538 0.74325 0.0
C881 C 0.91256 0.48133 0.95901 0.0
C882 C 0.92313 0.46885 0.49349 0.0
C883 C 0.92011 0.46702 0.55664 0.0
C884 C 0.93244 0.48606 0.70693 0.0
C885 C 0.90972 0.47126 0.85498 0.0
C886 C 0.91371 0.47362 0.7884 0.0
C887 C 0.92544 0.47972 0.5955 0.0
C888 C 0.92144 0.47771 0.66194 0.0
H889 H 0.88963 0.44286 0.95799 0.0
H890 H 0.89534 0.4468 0.848 0.0
H891 H 0.93745 0.49034 0.80316 0.0
H892 H 0.9436 0.50753 0.48831 0.0
H893 H 0.93844 0.50431 0.59902 0.0
C894 C 0.56754 0.44546 0.93839 0.0
C895 C 0.5552 0.43949 0.97948 0.0
C896 C 0.56528 0.44661 0.87549 0.0
C897 C 0.53625 0.43176 0.75341 0.0
H898 H 0.56325 0.46979 0.67141 0.0
C899 C 0.52545 0.44394 0.50415 0.0
C900 C 0.53819 0.4507 0.46511 0.0
C901 C 0.52724 0.44303 0.56768 0.0
C902 C 0.5557 0.45905 0.69347 0.0
H903 H 0.53076 0.42948 0.98664 0.0
H904 H 0.5268 0.43154 0.87684 0.0
H905 H 0.56713 0.46661 0.78022 0.0
H906 H 0.56282 0.46243 0.46255 0.0
H907 H 0.56594 0.46052 0.57278 0.0
H908 H 0.52493 0.42411 0.66657 0.0
C909 C 0.53822 0.43535 0.89326 0.0
C910 C 0.55794 0.45723 0.75573 0.0
C911 C 0.5405 0.43429 0.95615 0.0
C912 C 0.55276 0.45693 0.4912 0.0
C913 C 0.55456 0.456 0.55456 0.0
C914 C 0.53405 0.43355 0.69103 0.0
C915 C 0.55061 0.4417 0.85244 0.0
C916 C 0.54827 0.44355 0.78626 0.0
C917 C 0.54182 0.44888 0.59346 0.0
C918 C 0.54379 0.4472 0.66031 0.0
H919 H 0.579 0.44966 0.95509 0.0
H920 H 0.57502 0.4514 0.8449 0.0
H921 H 0.52871 0.42104 0.77567 0.0
H922 H 0.51407 0.43896 0.48552 0.0
H923 H 0.51721 0.43766 0.59657 0.0
C924 C 0.56469 0.09841 0.49205 0.0
C925 C 0.57103 0.09012 0.46617 0.0
C926 C 0.56584 0.10143 0.5552 0.0
C927 C 0.57262 0.08915 0.70547 0.0
H928 H 0.58515 0.13047 0.75471 0.0
C929 C 0.58757 0.109 0.95759 0.0
C930 C 0.58222 0.11839 0.98094 0.0
C931 C 0.58667 0.10578 0.8946 0.0
C932 C 0.58147 0.11885 0.74181 0.0
H933 H 0.58315 0.07809 0.48685 0.0
H934 H 0.58501 0.08323 0.59758 0.0
H935 H 0.58202 0.12379 0.64555 0.0
H936 H 0.57187 0.13187 0.95654 0.0
H937 H 0.57016 0.12617 0.84654 0.0
H938 H 0.57189 0.08414 0.8017 0.0
C939 C 0.57914 0.08737 0.56873 0.0
C940 C 0.5797 0.11502 0.6793 0.0
C941 C 0.57804 0.0844 0.50534 0.0
C942 C 0.57626 0.12476 0.93979 0.0
C943 C 0.57528 0.12148 0.87677 0.0
C944 C 0.57432 0.09295 0.76807 0.0
C945 C 0.57327 0.09614 0.59406 0.0
C946 C 0.57521 0.10013 0.6605 0.0
C947 C 0.58034 0.11183 0.85354 0.0
C948 C 0.57875 0.10785 0.78696 0.0
H949 H 0.55891 0.10268 0.46338 0.0
H950 H 0.56093 0.10794 0.57365 0.0
H951 H 0.569 0.07754 0.69232 0.0
H952 H 0.59245 0.10413 0.98808 0.0
H953 H 0.59096 0.09857 0.87808 0.0
C954 C 0.47402 0.91823 0.49857 0.0
C955 C 0.48865 0.92651 0.52423 0.0
C956 C 0.47211 0.91525 0.43539 0.0
C957 C 0.49104 0.9276 0.28494 0.0
H958 H 0.46255 0.88623 0.23564 0.0
C959 C 0.4866 0.90776 0.0331 0.0
C960 C 0.47195 0.89826 0.0095 0.0
C961 C 0.4888 0.911 0.09608 0.0
C962 C 0.47041 0.89787 0.24855 0.0
H963 H 0.51275 0.93853 0.50312 0.0
H964 H 0.50939 0.93346 0.39242 0.0
H965 H 0.466 0.89291 0.3448 0.0
H966 H 0.44814 0.88462 0.0334 0.0
H967 H 0.45192 0.89038 0.14341 0.0
H968 H 0.49533 0.93262 0.18875 0.0
C969 C 0.49941 0.9293 0.42145 0.0
C970 C 0.4724 0.90169 0.31107 0.0
C971 C 0.50133 0.93224 0.48483 0.0
C972 C 0.45957 0.89181 0.05038 0.0
C973 C 0.46175 0.89513 0.11339 0.0
C974 C 0.48899 0.9238 0.22235 0.0
C975 C 0.48478 0.92056 0.39632 0.0
C976 C 0.48271 0.91659 0.32988 0.0
C977 C 0.47638 0.90488 0.13687 0.0
C978 C 0.47865 0.90888 0.20344 0.0
H979 H 0.46401 0.91396 0.52741 0.0
H980 H 0.46069 0.90874 0.41709 0.0
H981 H 0.49894 0.93921 0.29813 0.0
H982 H 0.49638 0.91268 0.0028 0.0
H983 H 0.50025 0.9183 0.11281 0.0
C984 C 0.08624 0.56469 0.48604 0.0
C985 C 0.09824 0.57165 0.52843 0.0
C986 C 0.08922 0.56593 0.42269 0.0
C987 C 0.11995 0.57328 0.31385 0.0
H988 H 0.09455 0.57876 0.19486 0.0
C989 C 0.13465 0.58327 0.05441 0.0
C990 C 0.12252 0.57523 0.01335 0.0
C991 C 0.1319 0.58336 0.11755 0.0
C992 C 0.10167 0.57711 0.2276 0.0
H993 H 0.12261 0.58617 0.53812 0.0
H994 H 0.12781 0.58842 0.4279 0.0
H995 H 0.08909 0.57818 0.30486 0.0
H996 H 0.0981 0.56049 0.00651 0.0
H997 H 0.09333 0.56068 0.11629 0.0
H998 H 0.13248 0.57214 0.23666 0.0
C999 C 0.11616 0.58164 0.44339 0.0
C1000 C 0.09853 0.57677 0.29046 0.0
C1001 C 0.11318 0.58035 0.50647 0.0
C1002 C 0.10765 0.56709 0.03673 0.0
C1003 C 0.10491 0.56719 0.09964 0.0
C1004 C 0.12309 0.57364 0.25104 0.0
C1005 C 0.10425 0.57423 0.40088 0.0
C1006 C 0.10762 0.57481 0.33419 0.0
C1007 C 0.11698 0.57539 0.14063 0.0
C1008 C 0.11395 0.57549 0.20732 0.0
H1009 H 0.07464 0.55788 0.50198 0.0
H1010 H 0.07982 0.56001 0.39095 0.0
H1011 H 0.127 0.5715 0.34646 0.0
H1012 H 0.1462 0.58973 0.0376 0.0
H1013 H 0.14141 0.58988 0.14815 0.0
C1014 C 0.46252 0.54755 0.50102 0.0
C1015 C 0.45627 0.53299 0.52707 0.0
C1016 C 0.46159 0.54936 0.43767 0.0
C1017 C 0.4391 0.52889 0.30116 0.0
H1018 H 0.47221 0.56192 0.21203 0.0
C1019 C 0.43988 0.53532 0.03604 0.0
C1020 C 0.44509 0.55001 0.01271 0.0
C1021 C 0.44092 0.53305 0.09895 0.0
C1022 C 0.46281 0.55275 0.2365 0.0
H1023 H 0.4445 0.50889 0.50662 0.0
H1024 H 0.4432 0.51204 0.39557 0.0
H1025 H 0.47538 0.55804 0.32083 0.0
H1026 H 0.45527 0.57379 0.03707 0.0
H1027 H 0.457 0.56982 0.14728 0.0
H1028 H 0.42659 0.52357 0.2165 0.0
C1029 C 0.44858 0.52206 0.42448 0.0
C1030 C 0.46463 0.5505 0.29876 0.0
C1031 C 0.44949 0.52026 0.48801 0.0
C1032 C 0.45106 0.56235 0.05378 0.0
C1033 C 0.45221 0.56009 0.11669 0.0
C1034 C 0.43731 0.53109 0.23878 0.0
C1035 C 0.45445 0.53663 0.39875 0.0
C1036 C 0.45277 0.5386 0.3319 0.0
C1037 C 0.44729 0.54543 0.13977 0.0
C1038 C 0.44913 0.54309 0.20595 0.0
H1039 H 0.46803 0.5576 0.52969 0.0
H1040 H 0.46612 0.56073 0.41948 0.0
H1041 H 0.42965 0.51978 0.32561 0.0
H1042 H 0.43507 0.52558 0.00555 0.0
H1043 H 0.43711 0.52163 0.11538 0.0
C1044 C 0.57988 0.81563 0.2937 0.0
C1045 C 0.56972 0.8011 0.31677 0.0
C1046 C 0.58309 0.81787 0.23067 0.0
C1047 C 0.56896 0.80031 0.07756 0.0
H1048 H 0.61093 0.8262 0.02798 0.0
C1049 C 0.58864 0.80155 0.82819 0.0
C1050 C 0.59819 0.81588 0.80197 0.0
C1051 C 0.58551 0.80009 0.89127 0.0
C1052 C 0.59915 0.81906 0.04113 0.0
H1053 H 0.55484 0.77756 0.29167 0.0
H1054 H 0.56048 0.78141 0.18167 0.0
H1055 H 0.60432 0.82307 0.13737 0.0
H1056 H 0.61228 0.83989 0.82188 0.0
H1057 H 0.60689 0.83732 0.93252 0.0
H1058 H 0.56382 0.79618 0.98134 0.0
C1059 C 0.56581 0.79114 0.21219 0.0
C1060 C 0.59534 0.81729 0.10374 0.0
C1061 C 0.56256 0.78892 0.27525 0.0
C1062 C 0.60498 0.82868 0.84071 0.0
C1063 C 0.60187 0.82721 0.90402 0.0
C1064 C 0.57277 0.80204 0.01503 0.0
C1065 C 0.57623 0.80562 0.18928 0.0
C1066 C 0.58021 0.80784 0.12268 0.0
C1067 C 0.59191 0.81293 0.92973 0.0
C1068 C 0.58791 0.81137 -0.00383 0.0
H1069 H 0.58538 0.82529 0.32444 0.0
H1070 H 0.59094 0.82922 0.21437 0.0
H1071 H 0.55716 0.79316 0.09052 0.0
H1072 H 0.5835 0.79143 0.79983 0.0
H1073 H 0.57806 0.78889 0.90998 0.0
C1074 C 0.23326 0.77733 0.27285 0.0
C1075 C 0.22095 0.772 0.314 0.0
C1076 C 0.23113 0.77863 0.20994 0.0
C1077 C 0.20207 0.76536 0.08783 0.0
H1078 H 0.23095 0.80267 0.00585 0.0
C1079 C 0.1928 0.77909 0.8385 0.0
C1080 C 0.20557 0.78504 0.79957 0.0
C1081 C 0.1944 0.77791 0.90203 0.0
C1082 C 0.22287 0.79213 0.02792 0.0
H1083 H 0.19668 0.76325 0.32116 0.0
H1084 H 0.19298 0.76562 0.21137 0.0
H1085 H 0.2344 0.79908 0.11466 0.0
H1086 H 0.23007 0.79501 0.7971 0.0
H1087 H 0.23283 0.79266 0.90733 0.0
H1088 H 0.19061 0.75835 0.00095 0.0
C1089 C 0.20426 0.76879 0.22775 0.0
C1090 C 0.22486 0.79007 0.09018 0.0
C1091 C 0.20641 0.76757 0.29067 0.0
C1092 C 0.21999 0.79016 0.82571 0.0
C1093 C 0.22159 0.78898 0.88904 0.0
C1094 C 0.2001 0.7674 0.02544 0.0
C1095 C 0.21664 0.77454 0.18689 0.0
C1096 C 0.21452 0.77664 0.12071 0.0
C1097 C 0.2088 0.7827 0.92787 0.0
C1098 C 0.21052 0.78079 0.99474 0.0
H1099 H 0.24461 0.78094 0.28948 0.0
H1100 H 0.24085 0.78292 0.17934 0.0
H1101 H 0.194 0.75484 0.11006 0.0
H1102 H 0.18154 0.77497 0.81977 0.0
H1103 H 0.18436 0.77319 0.93087 0.0
C1104 C 0.24229 0.41705 0.83841 0.0
C1105 C 0.23633 0.42388 0.79946 0.0
C1106 C 0.24375 0.42008 0.90175 0.0
C1107 C 0.24753 0.4491 0.01254 0.0
H1108 H 0.23691 0.4175 0.13473 0.0
C1109 C 0.24516 0.45943 0.27296 0.0
C1110 C 0.2502 0.45219 0.31403 0.0
C1111 C 0.24395 0.45615 0.20994 0.0
C1112 C 0.24013 0.42649 0.10113 0.0
H1113 H 0.22647 0.43853 0.79692 0.0
H1114 H 0.2291 0.44386 0.90721 0.0
H1115 H 0.23335 0.41091 0.02533 0.0
H1116 H 0.25856 0.43633 0.32102 0.0
H1117 H 0.25663 0.43072 0.21092 0.0
H1118 H 0.25439 0.4647 0.08806 0.0
C1119 C 0.23292 0.43643 0.88861 0.0
C1120 C 0.23804 0.42269 0.03854 0.0
C1121 C 0.23142 0.43337 0.82547 0.0
C1122 C 0.2544 0.4419 0.29058 0.0
C1123 C 0.25326 0.43866 0.22757 0.0
C1124 C 0.24966 0.4529 0.07506 0.0
C1125 C 0.2393 0.42999 0.92726 0.0
C1126 C 0.24165 0.43396 0.99367 0.0
C1127 C 0.24784 0.44561 0.18663 0.0
C1128 C 0.24593 0.44163 0.12008 0.0
H1129 H 0.2463 0.4098 0.81977 0.0
H1130 H 0.24881 0.41504 0.93043 0.0
H1131 H 0.25065 0.45806 0.97888 0.0
H1132 H 0.24165 0.46725 0.28976 0.0
H1133 H 0.23955 0.46155 0.17975 0.0
C1134 C 0.21519 0.39382 0.43113 0.0
C1135 C 0.20747 0.39497 0.48299 0.0
C1136 C 0.20837 0.38102 0.39288 0.0
C1137 C 0.17133 0.34864 0.34634 0.0
H1138 H 0.19557 0.33078 0.2947 0.0
C1139 C 0.15149 0.30099 0.16077 0.0
C1140 C 0.15441 0.28908 0.17312 0.0
C1141 C 0.15743 0.31382 0.19905 0.0
C1142 C 0.18861 0.33558 0.30893 0.0
H1143 H 0.18634 0.3836 0.53443 0.0
H1144 H 0.17441 0.36129 0.46735 0.0
H1145 H 0.20686 0.3533 0.36027 0.0
H1146 H 0.16572 0.2813 0.23621 0.0
H1147 H 0.17606 0.30362 0.30244 0.0
H1148 H 0.15305 0.33083 0.29503 0.0
C1149 C 0.18575 0.37033 0.45633 0.0
C1150 C 0.19513 0.34858 0.34603 0.0
C1151 C 0.19263 0.3831 0.49497 0.0
C1152 C 0.16326 0.29025 0.22503 0.0
C1153 C 0.16928 0.30311 0.26292 0.0
C1154 C 0.16483 0.3357 0.30867 0.0
C1155 C 0.1936 0.36908 0.40515 0.0
C1156 C 0.18658 0.35527 0.36532 0.0
C1157 C 0.16653 0.3151 0.25024 0.0
C1158 C 0.17339 0.32897 0.28972 0.0
H1159 H 0.22661 0.40273 0.42031 0.0
H1160 H 0.21465 0.38052 0.35341 0.0
H1161 H 0.16446 0.35358 0.36003 0.0
H1162 H 0.14471 0.30046 0.12127 0.0
H1163 H 0.15518 0.3229 0.18776 0.0
C1164 C 0.73201 0.87669 0.22721 0.0
C1165 C 0.73327 0.869 0.17548 0.0
C1166 C 0.71914 0.86984 0.26507 0.0
C1167 C 0.68676 0.83277 0.31095 0.0
H1168 H 0.66873 0.85687 0.36248 0.0
C1169 C 0.63919 0.81278 0.49672 0.0
C1170 C 0.62721 0.81563 0.48476 0.0
C1171 C 0.65199 0.81877 0.45822 0.0
C1172 C 0.67357 0.84995 0.34826 0.0
H1173 H 0.72201 0.84792 0.12385 0.0
H1174 H 0.69957 0.83594 0.19027 0.0
H1175 H 0.6913 0.86823 0.29707 0.0
H1176 H 0.61928 0.8269 0.42221 0.0
H1177 H 0.64156 0.83734 0.3555 0.0
H1178 H 0.66896 0.81447 0.36212 0.0
C1179 C 0.70859 0.84728 0.20148 0.0
C1180 C 0.6866 0.85651 0.31125 0.0
C1181 C 0.72143 0.85418 0.16323 0.0
C1182 C 0.62829 0.82448 0.43302 0.0
C1183 C 0.64111 0.83056 0.39488 0.0
C1184 C 0.67379 0.82624 0.3485 0.0
C1185 C 0.70723 0.85508 0.25254 0.0
C1186 C 0.69336 0.84801 0.29206 0.0
C1187 C 0.65317 0.82786 0.40716 0.0
C1188 C 0.66701 0.83474 0.36746 0.0
H1189 H 0.74091 0.88811 0.23822 0.0
H1190 H 0.71856 0.8761 0.30447 0.0
H1191 H 0.69175 0.82595 0.29733 0.0
H1192 H 0.63875 0.80601 0.53611 0.0
H1193 H 0.66112 0.81657 0.46924 0.0
C1194 C 0.19684 0.80643 0.43209 0.0
C1195 C 0.20565 0.81411 0.48405 0.0
C1196 C 0.19078 0.81324 0.3941 0.0
C1197 C 0.19516 0.85024 0.34842 0.0
H1198 H 0.15319 0.82599 0.29617 0.0
C1199 C 0.16748 0.87016 0.16262 0.0
C1200 C 0.15265 0.86727 0.1746 0.0
C1201 C 0.17432 0.86417 0.20102 0.0
C1202 C 0.1649 0.83295 0.31059 0.0
H1203 H 0.2152 0.83515 0.53598 0.0
H1204 H 0.20468 0.84706 0.46935 0.0
H1205 H 0.16447 0.81468 0.36164 0.0
H1206 H 0.13346 0.8559 0.23699 0.0
H1207 H 0.14535 0.84544 0.30349 0.0
H1208 H 0.19554 0.86853 0.29738 0.0
C1209 C 0.20249 0.83576 0.45806 0.0
C1210 C 0.17141 0.82642 0.34763 0.0
C1211 C 0.20846 0.82889 0.49643 0.0
C1212 C 0.14488 0.85835 0.22619 0.0
C1213 C 0.15167 0.85227 0.2642 0.0
C1214 C 0.18868 0.85674 0.31082 0.0
C1215 C 0.19346 0.82796 0.40675 0.0
C1216 C 0.18662 0.83498 0.36711 0.0
C1217 C 0.16644 0.85504 0.25195 0.0
C1218 C 0.17345 0.84818 0.29162 0.0
H1219 H 0.19446 0.79506 0.42098 0.0
H1220 H 0.18404 0.80699 0.35453 0.0
H1221 H 0.20693 0.85712 0.36226 0.0
H1222 H 0.1738 0.87699 0.12336 0.0
H1223 H 0.18567 0.86643 0.19003 0.0
C1224 C 0.3884 0.18687 0.49733 0.0
C1225 C 0.40011 0.20181 0.50872 0.0
C1226 C 0.37558 0.17999 0.53565 0.0
C1227 C 0.35337 0.18932 0.64401 0.0
H1228 H 0.33599 0.14744 0.69681 0.0
C1229 C 0.29502 0.15734 0.76517 0.0
C1230 C 0.29389 0.14856 0.81729 0.0
C1231 C 0.30789 0.16337 0.72731 0.0
C1232 C 0.34075 0.15916 0.68268 0.0
H1233 H 0.40754 0.22112 0.57019 0.0
H1234 H 0.38523 0.20915 0.63659 0.0
H1235 H 0.3588 0.15889 0.6322 0.0
H1236 H 0.30539 0.13905 0.86954 0.0
H1237 H 0.32787 0.14957 0.8032 0.0
H1238 H 0.33541 0.18965 0.69457 0.0
C1239 C 0.38589 0.20279 0.59772 0.0
C1240 C 0.35374 0.16568 0.6452 0.0
C1241 C 0.39874 0.20963 0.55974 0.0
C1242 C 0.30587 0.14576 0.82988 0.0
C1243 C 0.31873 0.15173 0.79167 0.0
C1244 C 0.34033 0.18277 0.68096 0.0
C1245 C 0.3741 0.18792 0.586 0.0
C1246 C 0.36023 0.18086 0.62557 0.0
C1247 C 0.31995 0.16073 0.74026 0.0
C1248 C 0.33385 0.16762 0.70083 0.0
H1249 H 0.38908 0.1805 0.45854 0.0
H1250 H 0.36665 0.16856 0.52506 0.0
H1251 H 0.35798 0.20098 0.62925 0.0
H1252 H 0.28601 0.1597 0.75378 0.0
H1253 H 0.30836 0.17007 0.68761 0.0
C1254 C 0.87547 0.16245 0.82895 0.0
C1255 C 0.87265 0.14769 0.81618 0.0
C1256 C 0.86952 0.16938 0.79087 0.0
C1257 C 0.83841 0.16018 0.68079 0.0
H1258 H 0.86253 0.20232 0.63096 0.0
C1259 C 0.81185 0.19212 0.55975 0.0
C1260 C 0.8196 0.20103 0.50811 0.0
C1261 C 0.81865 0.18607 0.5978 0.0
C1262 C 0.85567 0.19053 0.6443 0.0
H1263 H 0.86143 0.12872 0.75268 0.0
H1264 H 0.85104 0.14076 0.68676 0.0
H1265 H 0.87393 0.19086 0.6955 0.0
H1266 H 0.84076 0.21077 0.45686 0.0
H1267 H 0.85266 0.20025 0.5236 0.0
H1268 H 0.82017 0.15979 0.62956 0.0
C1269 C 0.85779 0.14696 0.72641 0.0
C1270 C 0.86216 0.184 0.6817 0.0
C1271 C 0.86384 0.14009 0.76409 0.0
C1272 C 0.83445 0.20395 0.49616 0.0
C1273 C 0.8413 0.19799 0.5346 0.0
C1274 C 0.83189 0.16674 0.64396 0.0
C1275 C 0.86048 0.16165 0.73948 0.0
C1276 C 0.85362 0.16872 0.70019 0.0
C1277 C 0.83343 0.18885 0.58555 0.0
C1278 C 0.84043 0.18198 0.62513 0.0
H1279 H 0.88221 0.16865 0.86861 0.0
H1280 H 0.87171 0.18067 0.80247 0.0
H1281 H 0.83146 0.14844 0.69467 0.0
H1282 H 0.80042 0.18965 0.57053 0.0
H1283 H 0.81234 0.17925 0.6371 0.0
C1284 C 0.86505 0.71262 0.84547 0.0
C1285 C 0.87457 0.72718 0.82132 0.0
C1286 C 0.85833 0.69992 0.80657 0.0
C1287 C 0.86128 0.68741 0.64665 0.0
H1288 H 0.82226 0.65264 0.68828 0.0
C1289 C 0.82673 0.63717 0.47899 0.0
C1290 C 0.82204 0.62266 0.50327 0.0
C1291 C 0.8328 0.64992 0.51763 0.0
C1292 C 0.83319 0.66226 0.67626 0.0
H1293 H 0.88414 0.73992 0.73709 0.0
H1294 H 0.8719 0.718 0.66898 0.0
H1295 H 0.83315 0.67499 0.75477 0.0
H1296 H 0.81971 0.61011 0.58741 0.0
H1297 H 0.82992 0.63236 0.65509 0.0
H1298 H 0.86094 0.67472 0.56688 0.0
C1299 C 0.87001 0.71617 0.71817 0.0
C1300 C 0.83953 0.67508 0.71458 0.0
C1301 C 0.87697 0.72882 0.75723 0.0
C1302 C 0.82326 0.62114 0.56725 0.0
C1303 C 0.82904 0.63385 0.60604 0.0
C1304 C 0.85479 0.67471 0.60779 0.0
C1305 C 0.86071 0.70147 0.74223 0.0
C1306 C 0.85373 0.68785 0.70062 0.0
C1307 C 0.83402 0.64839 0.58154 0.0
C1308 C 0.84073 0.66197 0.62235 0.0
H1309 H 0.8631 0.71096 0.89474 0.0
H1310 H 0.85153 0.68885 0.82739 0.0
H1311 H 0.87236 0.69678 0.63468 0.0
H1312 H 0.82601 0.63873 0.4299 0.0
H1313 H 0.83648 0.66098 0.49758 0.0
C1314 C 0.9595 0.48491 0.09087 0.0
C1315 C 0.96107 0.48367 0.15481 0.0
C1316 C 0.97218 0.49063 0.05187 0.0
C1317 C 1.01314 0.51616 0.05 0.0
H1318 H 1.01312 0.49478 0.90172 0.0
C1319 C 0.06721 0.53818 0.90049 0.0
C1320 C 0.06558 0.53606 0.83627 0.0
C1321 C 0.05453 0.53119 0.93941 0.0
C1322 C 1.0133 0.50108 0.94231 0.0
H1323 H 0.9772 0.48752 0.22785 0.0
H1324 H 0.9994 0.49786 0.15981 0.0
H1325 H 0.99079 0.48391 0.96843 0.0
H1326 H 0.04935 0.52499 0.76247 0.0
H1327 H 0.02717 0.51333 0.8297 0.0
H1328 H 0.03529 0.53363 0.02335 0.0
C1329 C 0.98832 0.49426 0.13996 0.0
C1330 C 1.00048 0.49476 0.98073 0.0
C1331 C 0.9756 0.48826 0.1788 0.0
C1332 C 0.05099 0.52673 0.81184 0.0
C1333 C 0.03826 0.51996 0.85065 0.0
C1334 C 0.02584 0.52263 0.01107 0.0
C1335 C 0.98675 0.49552 0.0761 0.0
C1336 C 1.00031 0.5022 0.03512 0.0
C1337 C 0.03981 0.52212 0.91512 0.0
C1338 C 0.02617 0.51517 0.95668 0.0
H1339 H 0.94846 0.48143 0.07091 0.0
H1340 H 0.97065 0.49154 0.00288 0.0
H1341 H 1.01324 0.52224 0.09124 0.0
H1342 H 0.07832 0.54518 0.92082 0.0
H1343 H 0.05636 0.53289 0.98868 0.0
C1344 C 0.49566 0.52828 0.81294 0.0
C1345 C 0.48592 0.53305 0.83774 0.0
C1346 C 0.50243 0.52221 0.8512 0.0
C1347 C 0.51475 0.52188 0.00927 0.0
H1348 H 0.50979 0.48254 0.96785 0.0
C1349 C 0.53328 0.48987 0.17792 0.0
C1350 C 0.53817 0.4802 0.15366 0.0
C1351 C 0.52731 0.49665 0.13918 0.0
C1352 C 0.5116 0.49367 0.97975 0.0
H1353 H 0.47595 0.53553 0.9224 0.0
H1354 H 0.48815 0.52532 0.9894 0.0
H1355 H 0.49913 0.49405 0.90046 0.0
H1356 H 0.54109 0.47044 0.06939 0.0
H1357 H 0.53142 0.48277 0.00152 0.0
H1358 H 0.52763 0.52188 0.08731 0.0
C1359 C 0.49039 0.52614 0.94025 0.0
C1360 C 0.50537 0.50021 0.94113 0.0
C1361 C 0.48337 0.53192 0.90185 0.0
C1362 C 0.53728 0.47772 0.08961 0.0
C1363 C 0.53159 0.48473 0.0507 0.0
C1364 C 0.52125 0.5155 0.04734 0.0
C1365 C 0.49986 0.52107 0.91524 0.0
C1366 C 0.5068 0.51434 0.95566 0.0
C1367 C 0.52634 0.49418 0.07487 0.0
C1368 C 0.5197 0.50122 0.03344 0.0
H1369 H 0.4978 0.52893 0.76374 0.0
H1370 H 0.50975 0.51846 0.83076 0.0
H1371 H 0.51614 0.53286 0.02126 0.0
H1372 H 0.53369 0.49189 0.22717 0.0
H1373 H 0.52315 0.50356 0.1601 0.0
C1374 C 0.54401 0.06221 0.08991 0.0
C1375 C 0.54152 0.06055 0.15395 0.0
C1376 C 0.53704 0.04958 0.05072 0.0
C1377 C 0.50634 0.00857 0.04658 0.0
H1378 H 0.52785 1.00806 0.89949 0.0
C1379 C 0.4899 0.95453 0.89976 0.0
C1380 C 0.48889 0.95605 0.83565 0.0
C1381 C 0.49567 0.96726 0.93847 0.0
C1382 C 0.52167 1.00809 0.94021 0.0
H1383 H 0.52987 0.04431 0.22713 0.0
H1384 H 0.51827 0.02224 0.15958 0.0
H1385 H 0.53931 0.03011 0.96732 0.0
H1386 H 0.49317 0.97214 0.762 0.0
H1387 H 0.50359 0.99441 0.82956 0.0
H1388 H 0.48899 0.98619 0.0201 0.0
C1389 C 0.52516 0.03331 0.13888 0.0
C1390 C 0.52818 0.02079 0.9791 0.0
C1391 C 0.5319 0.04599 0.17791 0.0
C1392 C 0.49373 0.97057 0.81119 0.0
C1393 C 0.49978 0.98334 0.84976 0.0
C1394 C 0.49997 0.99576 0.00824 0.0
C1395 C 0.52762 0.03488 0.07459 0.0
C1396 C 0.52061 0.02128 0.03287 0.0
C1397 C 0.50083 0.98181 0.91379 0.0
C1398 C 0.50755 0.99541 0.95455 0.0
H1399 H 0.55126 0.07331 0.06991 0.0
H1400 H 0.539 0.05143 0.00157 0.0
H1401 H 0.49993 0.00853 0.08662 0.0
H1402 H 0.48624 0.94349 0.92008 0.0
H1403 H 0.49642 0.96576 0.98761 0.0
C1404 C 0.16104 0.21069 0.05077 0.0
C1405 C 0.1686 0.22614 0.06689 0.0
C1406 C 0.16925 0.20343 0.03593 0.0
C1407 C 0.20528 0.20983 0.97386 0.0
H1408 H 0.19475 0.17147 0.05171 0.0
C1409 C 0.23888 0.1784 0.92481 0.0
C1410 C 0.2308 0.16246 0.92557 0.0
C1411 C 0.23186 0.18667 0.94308 0.0
C1412 C 0.19771 0.18203 0.0286 0.0
H1413 H 0.1907 0.24616 0.07952 0.0
H1414 H 0.20511 0.23348 0.05199 0.0
H1415 H 0.18147 0.18489 0.08157 0.0
H1416 H 0.2089 0.14266 0.94415 0.0
H1417 H 0.19647 0.15692 0.97317 0.0
H1418 H 0.22111 0.20677 0.91909 0.0
C1419 C 0.19281 0.227 0.05151 0.0
C1420 C 0.19015 0.18978 0.04619 0.0
C1421 C 0.18457 0.23422 0.06756 0.0
C1422 C 0.21548 0.15495 0.9436 0.0
C1423 C 0.20839 0.16318 0.96085 0.0
C1424 C 0.2127 0.20196 0.95544 0.0
C1425 C 0.18521 0.21151 0.03577 0.0
C1426 C 0.19379 0.20371 0.01882 0.0
C1427 C 0.21651 0.17917 0.96169 0.0
C1428 C 0.20895 0.18787 0.98226 0.0
H1429 H 0.14874 0.20416 0.04986 0.0
H1430 H 0.1631 0.19151 0.02354 0.0
H1431 H 0.20822 0.2205 0.95163 0.0
H1432 H 0.25075 0.1845 0.91154 0.0
H1433 H 0.23859 0.19894 0.9438 0.0
C1434 C 0.7875 0.95321 0.06588 0.0
C1435 C 0.7957 0.94541 0.06472 0.0
C1436 C 0.79456 0.96861 0.04963 0.0
C1437 C 0.83161 1.00317 0.04404 0.0
H1438 H 0.81426 0.01719 0.91846 0.0
C1439 C 0.8661 0.06323 0.94268 0.0
C1440 C 0.85857 0.07109 0.92542 0.0
C1441 C 0.8579 0.04794 0.95958 0.0
C1442 C 0.81917 0.01357 0.95439 0.0
H1443 H 0.81772 0.94763 0.04639 0.0
H1444 H 0.83011 0.97455 0.01968 0.0
H1445 H 0.80074 0.99056 0.95014 0.0
H1446 H 0.8365 0.0691 0.91222 0.0
H1447 H 0.82208 0.04249 0.94395 0.0
H1448 H 0.8498 0.02606 0.05006 0.0
C1449 C 0.81821 0.96875 0.03262 0.0
C1450 C 0.81142 0.99828 0.9723 0.0
C1451 C 0.8111 0.95333 0.04768 0.0
C1452 C 0.84261 0.06329 0.925 0.0
C1453 C 0.83436 0.04801 0.94294 0.0
C1454 C 0.83922 0.01847 0.02698 0.0
C1455 C 0.81001 0.97654 0.03317 0.0
C1456 C 0.81768 0.9929 0.01666 0.0
C1457 C 0.8419 0.04012 0.96086 0.0
C1458 C 0.83326 0.02389 0.98113 0.0
H1459 H 0.7756 0.94738 0.07859 0.0
H1460 H 0.78801 0.97437 0.05067 0.0
H1461 H 0.83659 0.99937 0.07901 0.0
H1462 H 0.8784 0.06888 0.94283 0.0
H1463 H 0.86418 0.04225 0.97127 0.0
C1464 C 0.9587 0.78316 0.92085 0.0
C1465 C 0.95073 0.79118 0.92254 0.0
C1466 C 0.97414 0.79038 0.93662 0.0
C1467 C 1.00857 0.82756 0.9428 0.0
H1468 H 0.02261 0.81021 0.06828 0.0
C1469 C 0.06879 0.86194 0.04447 0.0
C1470 C 0.07653 0.85432 0.06218 0.0
C1471 C 0.0535 0.85382 0.02721 0.0
C1472 C 0.019 0.81513 0.03236 0.0
H1473 H 0.95271 0.81307 0.94099 0.0
H1474 H 0.97973 0.82575 0.96677 0.0
H1475 H 0.99601 0.79664 0.03624 0.0
H1476 H 0.07436 0.8322 0.0755 0.0
H1477 H 0.04781 0.81795 0.04309 0.0
H1478 H 0.03146 0.8458 0.93713 0.0
C1479 C 0.97402 0.81387 0.95384 0.0
C1480 C 1.00371 0.80734 0.01424 0.0
C1481 C 0.95854 0.80659 0.93931 0.0
C1482 C 0.06864 0.83838 0.06245 0.0
C1483 C 0.05338 0.83022 0.04413 0.0
C1484 C 0.02388 0.83521 0.96004 0.0
C1485 C 0.98196 0.80582 0.95307 0.0
C1486 C 0.99832 0.81358 0.96986 0.0
C1487 C 0.04558 0.83783 0.02601 0.0
C1488 C 0.02931 0.82924 0.00577 0.0
H1489 H 0.95295 0.77125 0.90838 0.0
H1490 H 0.98002 0.78393 0.9354 0.0
H1491 H 1.00475 0.83253 0.90787 0.0
H1492 H 0.07453 0.87423 0.04436 0.0
H1493 H 0.04788 0.86016 0.01528 0.0
C1494 C 0.85387 0.79514 0.89627 0.0
C1495 C 0.86086 0.79168 0.94472 0.0
C1496 C 0.84476 0.80162 0.90855 0.0
C1497 C 0.82362 0.80845 0.03319 0.0
H1498 H 0.83027 0.8425 0.93076 0.0
C1499 C 0.80234 0.85012 0.10026 0.0
C1500 C 0.79758 0.85616 0.0525 0.0
C1501 C 0.8087 0.84095 0.08674 0.0
C1502 C 0.82806 0.83286 0.95932 0.0
H1503 H 0.86317 0.7917 0.04423 0.0
H1504 H 0.84746 0.80311 0.06557 0.0
H1505 H 0.84351 0.82867 0.90714 0.0
H1506 H 0.79495 0.85658 0.95335 0.0
H1507 H 0.80577 0.84048 0.92984 0.0
H1508 H 0.80826 0.81275 0.08571 0.0
C1509 C 0.84895 0.80079 0.01807 0.0
C1510 C 0.83568 0.82492 0.94571 0.0
C1511 C 0.85809 0.79438 0.00579 0.0
C1512 C 0.79876 0.85233 0.99116 0.0
C1513 C 0.80502 0.84313 0.97768 0.0
C1514 C 0.81596 0.81638 0.04675 0.0
C1515 C 0.84236 0.80472 0.96959 0.0
C1516 C 0.83363 0.81266 0.98261 0.0
C1517 C 0.81035 0.83755 0.02515 0.0
C1518 C 0.81813 0.82874 0.01012 0.0
H1519 H 0.85584 0.79332 0.8487 0.0
H1520 H 0.83971 0.80434 0.87013 0.0
H1521 H 0.82164 0.79895 0.06218 0.0
H1522 H 0.80172 0.85297 0.14795 0.0
H1523 H 0.8128 0.83699 0.1245 0.0
C1524 C 0.2253 0.06122 0.89616 0.0
C1525 C 0.23021 0.07212 0.94353 0.0
C1526 C 0.21893 0.04575 0.91021 0.0
C1527 C 0.19941 0.01871 0.03781 0.0
H1528 H 0.20611 0.99095 0.93771 0.0
C1529 C 0.17264 0.95526 0.10218 0.0
C1530 C 0.16611 0.94481 0.05348 0.0
C1531 C 0.1819 0.97079 0.09007 0.0
C1532 C 0.20403 0.99853 0.96591 0.0
H1533 H 0.23309 0.07537 0.04258 0.0
H1534 H 0.22213 0.04852 0.06697 0.0
H1535 H 0.21962 0.01802 0.9134 0.0
H1536 H 0.16484 0.94248 0.9538 0.0
H1537 H 0.18071 0.96948 0.93277 0.0
H1538 H 0.18367 0.99926 0.08975 0.0
C1539 C 0.22283 0.05184 0.01904 0.0
C1540 C 0.21178 0.01406 0.95192 0.0
C1541 C 0.22916 0.06725 0.00502 0.0
C1542 C 0.16952 0.95022 0.99245 0.0
C1543 C 0.17877 0.96572 0.98036 0.0
C1544 C 0.19166 1.0032 0.05175 0.0
C1545 C 0.21736 0.04085 0.97195 0.0
C1546 C 0.20952 0.02435 0.98755 0.0
C1547 C 0.1849 0.97625 0.02897 0.0
C1548 C 0.1938 0.99288 0.01582 0.0
H1549 H 0.22581 0.06456 0.84836 0.0
H1550 H 0.21473 0.0376 0.87278 0.0
H1551 H 0.19715 0.02623 0.0656 0.0
H1552 H 0.17019 0.95152 0.14971 0.0
H1553 H 0.18659 0.97855 0.12866 0.0
C1554 C 0.95969 0.15111 0.94142 0.0
C1555 C 0.95052 0.15773 0.93301 0.0
C1556 C 0.975 0.16 0.95694 0.0
C1557 C 1.00777 0.19908 0.9593 0.0
H1558 H 0.02244 0.1819 0.08311 0.0
C1559 C 0.06992 0.23057 0.05461 0.0
C1560 C 0.07693 0.22163 0.0571 0.0
C1561 C 0.05428 0.22387 0.04272 0.0
C1562 C 0.01856 0.18684 0.04829 0.0
H1563 H 0.95044 0.17902 0.93161 0.0
H1564 H 0.9774 0.19468 0.95898 0.0
H1565 H 0.99577 0.16835 0.05375 0.0
H1566 H 0.07293 0.1986 0.05147 0.0
H1567 H 0.04587 0.187 0.03078 0.0
H1568 H 0.03075 0.21754 0.95372 0.0
C1569 C 0.97265 0.18255 0.95348 0.0
C1570 C 1.00326 0.17905 0.0313 0.0
C1571 C 0.95723 0.1736 0.93775 0.0
C1572 C 0.06792 0.20584 0.04912 0.0
C1573 C 0.05236 0.19917 0.03784 0.0
C1574 C 0.02316 0.20692 0.97646 0.0
C1575 C 0.98162 0.17578 0.9646 0.0
C1576 C 0.99772 0.18488 0.98561 0.0
C1577 C 0.04534 0.20807 0.03409 0.0
C1578 C 0.02878 0.20071 0.02023 0.0
H1579 H 0.95497 0.13897 0.93662 0.0
H1580 H 0.98166 0.15444 0.96333 0.0
H1581 H 1.00389 0.20387 0.92388 0.0
H1582 H 0.07659 0.24277 0.06041 0.0
H1583 H 0.04918 0.23103 0.04053 0.0
C1584 C 0.9016 0.50991 0.23289 0.0
C1585 C 0.89733 0.49594 0.26157 0.0
C1586 C 0.89451 0.51826 0.24904 0.0
C1587 C 0.87349 0.52394 0.3748 0.0
H1588 H 0.85796 0.53933 0.24707 0.0
C1589 C 0.84823 0.56321 0.42515 0.0
C1590 C 0.83423 0.55892 0.39654 0.0
C1591 C 0.85658 0.55613 0.40897 0.0
C1592 C 0.86225 0.53511 0.28322 0.0
H1593 H 0.88241 0.47985 0.33011 0.0
H1594 H 0.87023 0.49449 0.35877 0.0
H1595 H 0.87145 0.52587 0.21825 0.0
H1596 H 0.81811 0.54399 0.3281 0.0
H1597 H 0.83277 0.53183 0.29937 0.0
H1598 H 0.86425 0.53313 0.43977 0.0
C1599 C 0.87901 0.49898 0.32374 0.0
C1600 C 0.87007 0.52751 0.26673 0.0
C1601 C 0.88592 0.49055 0.30699 0.0
C1602 C 0.82883 0.54752 0.35116 0.0
C1603 C 0.83727 0.54062 0.33437 0.0
C1604 C 0.86587 0.53173 0.39129 0.0
C1605 C 0.8832 0.51291 0.2949 0.0
C1606 C 0.87561 0.52169 0.31234 0.0
C1607 C 0.85122 0.54481 0.36315 0.0
C1608 C 0.86001 0.53724 0.34569 0.0
H1609 H 0.91036 0.51436 0.19776 0.0
H1610 H 0.89802 0.52899 0.22624 0.0
H1611 H 0.87774 0.51968 0.41096 0.0
H1612 H 0.85269 0.57197 0.46025 0.0
H1613 H 0.86734 0.55965 0.43171 0.0
C1614 C 0.53372 0.39619 0.27276 0.0
C1615 C 0.52609 0.40399 0.2557 0.0
C1616 C 0.52557 0.38076 0.28776 0.0
C1617 C 0.48941 0.35123 0.34872 0.0
H1618 H 0.5002 0.32331 0.273 0.0
C1619 C 0.45541 0.28641 0.39759 0.0
C1620 C 0.46339 0.27842 0.39771 0.0
C1621 C 0.46259 0.30167 0.37925 0.0
C1622 C 0.49716 0.33094 0.29555 0.0
H1623 H 0.50394 0.40179 0.24148 0.0
H1624 H 0.48965 0.37479 0.26927 0.0
H1625 H 0.51362 0.34996 0.24314 0.0
H1626 H 0.48527 0.28023 0.38052 0.0
H1627 H 0.49796 0.30687 0.35142 0.0
H1628 H 0.47336 0.33245 0.40296 0.0
C1629 C 0.50195 0.38065 0.27038 0.0
C1630 C 0.50481 0.34621 0.27795 0.0
C1631 C 0.51012 0.39605 0.25417 0.0
C1632 C 0.47877 0.28605 0.38038 0.0
C1633 C 0.48601 0.30134 0.3631 0.0
C1634 C 0.48191 0.33598 0.36718 0.0
C1635 C 0.50961 0.37285 0.28716 0.0
C1636 C 0.50106 0.35653 0.30446 0.0
C1637 C 0.478 0.30936 0.36148 0.0
C1638 C 0.48573 0.3256 0.34108 0.0
H1639 H 0.54602 0.40201 0.27435 0.0
H1640 H 0.53176 0.37506 0.30093 0.0
H1641 H 0.48638 0.35898 0.37032 0.0
H1642 H 0.44351 0.28078 0.41028 0.0
H1643 H 0.45593 0.30731 0.37786 0.0
C1644 C 0.7338 0.17304 0.42131 0.0
C1645 C 0.74342 0.18712 0.39329 0.0
C1646 C 0.71843 0.16463 0.40476 0.0
C1647 C 0.6917 0.15907 0.2793 0.0
H1648 H 0.66089 0.14343 0.40732 0.0
C1649 C 0.6272 0.11983 0.22968 0.0
C1650 C 0.61753 0.12412 0.25881 0.0
C1651 C 0.64263 0.12688 0.24548 0.0
C1652 C 0.66937 0.14771 0.37108 0.0
H1653 H 0.74451 0.20331 0.32533 0.0
H1654 H 0.71778 0.18854 0.29592 0.0
H1655 H 0.6878 0.15687 0.43588 0.0
H1656 H 0.61642 0.13903 0.32776 0.0
H1657 H 0.64323 0.15112 0.35583 0.0
H1658 H 0.67327 0.14996 0.2145 0.0
C1659 C 0.7221 0.18402 0.33076 0.0
C1660 C 0.68476 0.1553 0.38742 0.0
C1661 C 0.73739 0.19252 0.34794 0.0
C1662 C 0.62357 0.1355 0.3043 0.0
C1663 C 0.63891 0.14236 0.32072 0.0
C1664 C 0.67631 0.15128 0.26295 0.0
C1665 C 0.71243 0.17002 0.35914 0.0
C1666 C 0.6961 0.16123 0.34173 0.0
C1667 C 0.64863 0.13816 0.29145 0.0
C1668 C 0.66498 0.14568 0.30867 0.0
H1669 H 0.73812 0.16858 0.4564 0.0
H1670 H 0.71126 0.15383 0.42719 0.0
H1671 H 0.70019 0.16341 0.24308 0.0
H1672 H 0.62286 0.1111 0.19448 0.0
H1673 H 0.64984 0.12336 0.22236 0.0
C1674 C 0.52499 0.12698 0.34323 0.0
C1675 C 0.52765 0.12461 0.28159 0.0
C1676 C 0.51589 0.13333 0.35724 0.0
C1677 C 0.48726 0.14219 0.29258 0.0
H1678 H 0.5024 0.17299 0.42053 0.0
C1679 C 0.46479 0.18409 0.32811 0.0
C1680 C 0.46375 0.18852 0.38865 0.0
C1681 C 0.4712 0.17491 0.31663 0.0
C1682 C 0.49784 0.16425 0.38536 0.0
H1683 H 0.52244 0.1267 0.18632 0.0
H1684 H 0.50656 0.13785 0.21072 0.0
H1685 H 0.51602 0.15955 0.39703 0.0
H1686 H 0.4683 0.18637 0.48479 0.0
H1687 H 0.47921 0.17011 0.46492 0.0
H1688 H 0.46917 0.14708 0.28048 0.0
C1689 C 0.51141 0.13465 0.24833 0.0
C1690 C 0.50568 0.15653 0.3718 0.0
C1691 C 0.52051 0.12824 0.23429 0.0
C1692 C 0.46882 0.1831 0.43765 0.0
C1693 C 0.47525 0.17393 0.42616 0.0
C1694 C 0.4794 0.14993 0.30617 0.0
C1695 C 0.50921 0.13753 0.30999 0.0
C1696 C 0.50053 0.14542 0.32511 0.0
C1697 C 0.47674 0.1699 0.3654 0.0
C1698 C 0.48463 0.16111 0.3526 0.0
H1699 H 0.53009 0.12406 0.38082 0.0
H1700 H 0.51418 0.13505 0.40526 0.0
H1701 H 0.48285 0.13358 0.25688 0.0
H1702 H 0.46084 0.1879 0.2893 0.0
H1703 H 0.47224 0.17216 0.26925 0.0
C1704 C 0.83869 0.28888 0.43234 0.0
C1705 C 0.83265 0.27813 0.38447 0.0
C1706 C 0.84787 0.30437 0.41897 0.0
C1707 C 0.85588 0.33183 0.29203 0.0
H1708 H 0.88991 0.35916 0.39463 0.0
C1709 C 0.89345 0.39524 0.22959 0.0
C1710 C 0.89697 0.40564 0.27824 0.0
C1711 C 0.88702 0.37968 0.24162 0.0
C1712 C 0.88038 0.35169 0.36571 0.0
H1713 H 0.83222 0.27513 0.28527 0.0
H1714 H 0.84832 0.302 0.26203 0.0
H1715 H 0.87613 0.33203 0.41787 0.0
H1716 H 0.89712 0.40787 0.37783 0.0
H1717 H 0.88578 0.3808 0.39874 0.0
H1718 H 0.86 0.35146 0.24024 0.0
C1719 C 0.84567 0.29858 0.30984 0.0
C1720 C 0.87246 0.33613 0.37911 0.0
C1721 C 0.83648 0.28315 0.32317 0.0
C1722 C 0.8944 0.40015 0.33924 0.0
C1723 C 0.88803 0.38463 0.35127 0.0
C1724 C 0.8638 0.34736 0.27859 0.0
C1725 C 0.85126 0.30945 0.35743 0.0
C1726 C 0.86005 0.32599 0.34257 0.0
C1727 C 0.88402 0.37416 0.3026 0.0
C1728 C 0.87611 0.35752 0.3154 0.0
H1729 H 0.83585 0.2854 0.48 0.0
H1730 H 0.85185 0.31241 0.45681 0.0
H1731 H 0.84621 0.32445 0.26354 0.0
H1732 H 0.89517 0.39905 0.18207 0.0
H1733 H 0.88424 0.37196 0.20305 0.0
C1734 C 0.73343 0.55465 0.431 0.0
C1735 C 0.74377 0.55841 0.38193 0.0
C1736 C 0.71783 0.54815 0.41949 0.0
C1737 C 0.68957 0.54193 0.29732 0.0
H1738 H 0.66266 0.50703 0.39669 0.0
C1739 C 0.62674 0.50053 0.23005 0.0
C1740 C 0.61603 0.49392 0.27783 0.0
C1741 C 0.64223 0.50968 0.24352 0.0
C1742 C 0.66994 0.5169 0.36904 0.0
H1743 H 0.74586 0.55892 0.28223 0.0
H1744 H 0.7187 0.54752 0.26221 0.0
H1745 H 0.68971 0.52087 0.41949 0.0
H1746 H 0.6131 0.49242 0.37716 0.0
H1747 H 0.63998 0.50853 0.40068 0.0
H1748 H 0.66977 0.53789 0.2466 0.0
C1749 C 0.72262 0.5496 0.3096 0.0
C1750 C 0.68549 0.52485 0.38218 0.0
C1751 C 0.73819 0.55601 0.3211 0.0
C1752 C 0.6211 0.49714 0.33929 0.0
C1753 C 0.63653 0.50634 0.35275 0.0
C1754 C 0.67397 0.53401 0.28429 0.0
C1755 C 0.71221 0.54535 0.35864 0.0
C1756 C 0.69554 0.53742 0.3463 0.0
C1757 C 0.64737 0.51251 0.30512 0.0
C1758 C 0.66394 0.52133 0.31981 0.0
H1759 H 0.73733 0.55623 0.47839 0.0
H1760 H 0.71015 0.54518 0.45833 0.0
H1761 H 0.69696 0.55167 0.26917 0.0
H1762 H 0.62322 0.49815 0.18223 0.0
H1763 H 0.65023 0.51409 0.20559 0.0
C1764 C 0.55358 0.82425 0.64535 0.0
C1765 C 0.56502 0.82961 0.60011 0.0
C1766 C 0.54681 0.8328 0.66238 0.0
C1767 C 0.5383 0.8616 0.60512 0.0
H1768 H 0.53192 0.867 0.77777 0.0
C1769 C 0.49675 0.88139 0.68665 0.0
C1770 C 0.50197 0.89278 0.73206 0.0
C1771 C 0.5053 0.87456 0.67063 0.0
C1772 C 0.53371 0.86567 0.7294 0.0
H1773 H 0.57832 0.84814 0.53709 0.0
H1774 H 0.56624 0.86297 0.56604 0.0
H1775 H 0.5454 0.85347 0.7498 0.0
H1776 H 0.52019 0.90587 0.79665 0.0
H1777 H 0.53503 0.89365 0.76945 0.0
H1778 H 0.52636 0.87354 0.58468 0.0
C1779 C 0.56259 0.85217 0.58849 0.0
C1780 C 0.54132 0.85783 0.71339 0.0
C1781 C 0.56953 0.84371 0.57209 0.0
C1782 C 0.51589 0.89713 0.76148 0.0
C1783 C 0.52434 0.8901 0.74608 0.0
C1784 C 0.5305 0.86924 0.62112 0.0
C1785 C 0.55118 0.84682 0.63396 0.0
C1786 C 0.54363 0.85565 0.65106 0.0
C1787 C 0.51917 0.8788 0.70021 0.0
C1788 C 0.52805 0.87129 0.68342 0.0
H1789 H 0.54989 0.81345 0.66795 0.0
H1790 H 0.53795 0.82831 0.69712 0.0
H1791 H 0.53983 0.86002 0.55673 0.0
H1792 H 0.4861 0.87782 0.66297 0.0
H1793 H 0.50094 0.86578 0.63559 0.0
C1794 C 0.20005 0.73006 0.61185 0.0
C1795 C 0.19244 0.73788 0.5947 0.0
C1796 C 0.19188 0.7147 0.62786 0.0
C1797 C 0.15587 0.68539 0.69094 0.0
H1798 H 0.16643 0.6573 0.61517 0.0
C1799 C 0.12209 0.62054 0.74121 0.0
C1800 C 0.13012 0.61259 0.74048 0.0
C1801 C 0.12921 0.63583 0.72326 0.0
C1802 C 0.16346 0.66498 0.63775 0.0
H1803 H 0.17031 0.73577 0.58147 0.0
H1804 H 0.15597 0.70888 0.61102 0.0
H1805 H 0.17972 0.68386 0.58418 0.0
H1806 H 0.15202 0.61452 0.72272 0.0
H1807 H 0.16461 0.6412 0.69438 0.0
H1808 H 0.14001 0.66673 0.74626 0.0
C1809 C 0.16828 0.71468 0.61144 0.0
C1810 C 0.17103 0.6802 0.6195 0.0
C1811 C 0.17647 0.73002 0.59423 0.0
C1812 C 0.14549 0.62032 0.7232 0.0
C1813 C 0.15267 0.63562 0.70632 0.0
C1814 C 0.14845 0.67019 0.71004 0.0
C1815 C 0.17592 0.70686 0.62816 0.0
C1816 C 0.16738 0.69059 0.64606 0.0
C1817 C 0.14459 0.64357 0.70502 0.0
C1818 C 0.1522 0.65976 0.68399 0.0
H1819 H 0.21235 0.73581 0.61264 0.0
H1820 H 0.19806 0.70899 0.64097 0.0
H1821 H 0.15292 0.6932 0.71254 0.0
H1822 H 0.11019 0.61484 0.75387 0.0
H1823 H 0.12251 0.64143 0.72224 0.0
C1824 C 0.29173 0.47274 0.6116 0.0
C1825 C 0.28386 0.45731 0.59509 0.0
C1826 C 0.30715 0.47993 0.62684 0.0
C1827 C 0.33672 0.47343 0.68896 0.0
H1828 H 0.36452 0.51169 0.61053 0.0
C1829 C 0.4017 0.50474 0.73729 0.0
C1830 C 0.40957 0.52068 0.736 0.0
C1831 C 0.38641 0.49649 0.71941 0.0
C1832 C 0.35692 0.50116 0.63382 0.0
H1833 H 0.28592 0.43726 0.58229 0.0
H1834 H 0.31293 0.44981 0.61057 0.0
H1835 H 0.33784 0.49832 0.58088 0.0
H1836 H 0.40748 0.5405 0.71706 0.0
H1837 H 0.38079 0.52627 0.68876 0.0
H1838 H 0.35559 0.47647 0.7437 0.0
C1839 C 0.30712 0.45632 0.61104 0.0
C1840 C 0.34163 0.49345 0.61634 0.0
C1841 C 0.29172 0.44918 0.59458 0.0
C1842 C 0.40176 0.52821 0.71797 0.0
C1843 C 0.38644 0.52 0.70114 0.0
C1844 C 0.35199 0.48128 0.70729 0.0
C1845 C 0.315 0.4718 0.627 0.0
C1846 C 0.33135 0.47955 0.64391 0.0
C1847 C 0.37856 0.50401 0.70068 0.0
C1848 C 0.36232 0.49533 0.68027 0.0
H1849 H 0.28599 0.47932 0.61236 0.0
H1850 H 0.31291 0.49184 0.63939 0.0
H1851 H 0.32899 0.46279 0.71132 0.0
H1852 H 0.40747 0.49862 0.75058 0.0
H1853 H 0.38086 0.48421 0.71901 0.0
C1854 C 0.13202 0.5203 0.64363 0.0
C1855 C 0.1294 0.52243 0.70563 0.0
C1856 C 0.13856 0.51145 0.62836 0.0
C1857 C 0.14786 0.48274 0.68744 0.0
H1858 H 0.18033 0.50084 0.56668 0.0
C1859 C 0.18072 0.45295 0.59851 0.0
C1860 C 0.19661 0.46222 0.59608 0.0
C1861 C 0.17144 0.45933 0.60956 0.0
C1862 C 0.17131 0.49562 0.60053 0.0
H1863 H 0.13106 0.51637 0.80008 0.0
H1864 H 0.14249 0.50085 0.77337 0.0
H1865 H 0.16583 0.51331 0.59175 0.0
H1866 H 0.21517 0.48546 0.60116 0.0
H1867 H 0.19908 0.49651 0.62039 0.0
H1868 H 0.15367 0.4652 0.69702 0.0
C1869 C 0.13938 0.50599 0.73653 0.0
C1870 C 0.16287 0.5027 0.61447 0.0
C1871 C 0.13282 0.51488 0.75186 0.0
C1872 C 0.20298 0.47798 0.60347 0.0
C1873 C 0.19374 0.48434 0.61394 0.0
C1874 C 0.15626 0.47559 0.67315 0.0
C1875 C 0.14266 0.50447 0.67464 0.0
C1876 C 0.15111 0.49642 0.65842 0.0
C1877 C 0.17786 0.4751 0.6175 0.0
C1878 C 0.16821 0.48205 0.63001 0.0
H1879 H 0.12924 0.52571 0.60677 0.0
H1880 H 0.14061 0.51025 0.58017 0.0
H1881 H 0.13881 0.47755 0.72118 0.0
H1882 H 0.1755 0.44077 0.59321 0.0
H1883 H 0.15924 0.45192 0.61155 0.0
C1884 C 0.50612 0.62152 0.75975 0.0
C1885 C 0.49927 0.61074 0.71239 0.0
C1886 C 0.51519 0.63699 0.74571 0.0
C1887 C 0.5215 0.66443 0.62055 0.0
H1888 H 0.55705 0.69164 0.71632 0.0
C1889 C 0.55853 0.72784 0.55634 0.0
C1890 C 0.56283 0.73823 0.60543 0.0
C1891 C 0.55213 0.71226 0.56789 0.0
C1892 C 0.5471 0.6842 0.68934 0.0
H1893 H 0.49727 0.60766 0.61314 0.0
H1894 H 0.51319 0.63449 0.58867 0.0
H1895 H 0.54347 0.66451 0.7397 0.0
H1896 H 0.56442 0.74044 0.70511 0.0
H1897 H 0.55315 0.71334 0.72521 0.0
H1898 H 0.52501 0.68409 0.57059 0.0
C1899 C 0.51126 0.63111 0.63672 0.0
C1900 C 0.53929 0.66864 0.70282 0.0
C1901 C 0.50217 0.61571 0.65074 0.0
C1902 C 0.56107 0.73273 0.66622 0.0
C1903 C 0.55474 0.71719 0.67775 0.0
C1904 C 0.52931 0.67996 0.60702 0.0
C1905 C 0.51766 0.64201 0.68397 0.0
C1906 C 0.52634 0.65855 0.66877 0.0
C1907 C 0.54997 0.70672 0.62879 0.0
C1908 C 0.54216 0.69007 0.64143 0.0
H1909 H 0.50399 0.61809 0.80771 0.0
H1910 H 0.5198 0.64505 0.78336 0.0
H1911 H 0.51142 0.65709 0.59407 0.0
H1912 H 0.55963 0.73166 0.50899 0.0
H1913 H 0.54876 0.70453 0.52905 0.0
C1914 C 0.28776 0.83063 0.67139 0.0
C1915 C 0.28288 0.82746 0.60965 0.0
C1916 C 0.30316 0.8396 0.6857 0.0
C1917 C 0.34108 0.86702 0.62237 0.0
H1918 H 0.3554 0.85079 0.75147 0.0
C1919 C 0.40365 0.89791 0.71154 0.0
C1920 C 0.41022 0.88864 0.71845 0.0
C1921 C 0.38804 0.89144 0.6998 0.0
C1922 C 0.35161 0.85548 0.71526 0.0
H1923 H 0.29042 0.83182 0.51443 0.0
H1924 H 0.31741 0.84757 0.53946 0.0
H1925 H 0.32845 0.83807 0.72652 0.0
H1926 H 0.40545 0.86532 0.72055 0.0
H1927 H 0.37839 0.85412 0.70013 0.0
H1928 H 0.36441 0.88427 0.61045 0.0
C1929 C 0.30924 0.84313 0.57681 0.0
C1930 C 0.33612 0.84827 0.70134 0.0
C1931 C 0.29377 0.83411 0.56244 0.0
C1932 C 0.40079 0.8728 0.71473 0.0
C1933 C 0.38524 0.86636 0.70358 0.0
C1934 C 0.35662 0.87431 0.63662 0.0
C1935 C 0.31414 0.84569 0.63868 0.0
C1936 C 0.33064 0.85386 0.65446 0.0
C1937 C 0.37866 0.87558 0.69565 0.0
C1938 C 0.36208 0.86851 0.68281 0.0
H1939 H 0.27965 0.82595 0.70889 0.0
H1940 H 0.30649 0.84161 0.7338 0.0
H1941 H 0.33723 0.87168 0.58629 0.0
H1942 H 0.41064 0.91015 0.71396 0.0
H1943 H 0.38329 0.89885 0.6944 0.0
loop_
_geom_bond_atom_site_label_1
_geom_bond_atom_site_label_2
_geom_bond_distance
_geom_bond_site_symmetry_2
_ccdc_geom_bond_type
Co0 N4 2.148 . S
Co0 N10 2.128 . S
Co0 N20 2.194 . S
Co0 O25 2.351 . S
Co0 O26 2.155 . S
Co0 O27 2.096 . S
C1 N4 1.301 1_556 S
C1 N5 1.328 . S
C1 H6 0.930 . S
C2 C3 1.333 . S
C2 N4 1.317 1_556 S
C2 H7 0.930 1_556 S
C3 C2 1.333 . S
C3 N5 1.350 . S
C3 H29 0.931 . S
N4 Co0 2.148 . S
N4 C1 1.301 1_554 S
N4 C2 1.317 1_554 S
N5 C1 1.328 . S
N5 C3 1.350 . S
H6 C1 0.930 . S
H7 C2 0.930 1_554 S
C8 O9 1.224 . S
C8 O27 1.247 . S
O9 C8 1.224 . S
N10 Co0 2.128 . S
N10 C11 1.355 . S
N10 C13 1.311 . S
C11 N10 1.355 . S
C11 C12 1.363 . S
C11 H23 0.929 . S
C12 C11 1.363 . S
C12 N14 1.375 . S
C12 H30 0.931 . S
C13 N10 1.311 . S
C13 N14 1.347 . S
C13 H24 0.929 . S
N14 C12 1.375 . S
N14 C13 1.347 . S
C15 C18 1.365 . S
C15 N20 1.328 . S
C15 H21 0.929 . S
C16 C17 1.362 . S
C16 C19 1.378 . S
C16 H31 0.929 . S
C17 C16 1.362 . S
C17 C18 1.366 . S
C18 C15 1.365 . S
C18 C17 1.366 . S
C18 H32 0.930 . S
C19 C16 1.378 . S
C19 N20 1.315 . S
C19 H22 0.930 . S
N20 Co0 2.194 . S
N20 C15 1.328 . S
N20 C19 1.315 . S
H21 C15 0.929 . S
H22 C19 0.930 . S
H23 C11 0.929 . S
H24 C13 0.929 . S
O25 Co0 2.351 . S
O25 C28 1.244 . S
O26 Co0 2.155 . S
O26 C28 1.240 . S
O27 Co0 2.096 . S
O27 C8 1.247 . S
C28 O25 1.244 . S
C28 O26 1.240 . S
H29 C3 0.931 . S
H30 C12 0.931 . S
H31 C16 0.929 . S
H32 C18 0.930 . S
Co33 N37 2.148 . S
Co33 N43 2.128 . S
Co33 N53 2.194 . S
Co33 O58 2.351 . S
Co33 O59 2.155 . S
Co33 O60 2.096 . S
C34 N37 1.301 1_556 S
C34 N38 1.328 . S
C34 H39 0.930 . S
C35 C36 1.333 . S
C35 N37 1.317 1_556 S
C35 H40 0.930 1_556 S
C36 C35 1.333 . S
C36 N38 1.350 . S
C36 H62 0.931 . S
N37 Co33 2.148 . S
N37 C34 1.301 1_554 S
N37 C35 1.317 1_554 S
N38 C34 1.328 . S
N38 C36 1.350 . S
H39 C34 0.930 . S
H40 C35 0.930 1_554 S
C41 O42 1.224 . S
C41 O60 1.247 . S
O42 C41 1.224 . S
N43 Co33 2.128 . S
N43 C44 1.355 . S
N43 C46 1.311 . S
C44 N43 1.355 . S
C44 C45 1.363 . S
C44 H56 0.929 . S
C45 C44 1.363 . S
C45 N47 1.375 . S
C45 H63 0.931 . S
C46 N43 1.311 . S
C46 N47 1.347 . S
C46 H57 0.929 . S
N47 C45 1.375 . S
N47 C46 1.347 . S
C48 C51 1.365 . S
C48 N53 1.328 . S
C48 H54 0.929 . S
C49 C50 1.362 . S
C49 C52 1.378 . S
C49 H64 0.929 . S
C50 C49 1.362 . S
C50 C51 1.366 . S
C51 C48 1.365 . S
C51 C50 1.366 . S
C51 H65 0.930 . S
C52 C49 1.378 . S
C52 N53 1.315 . S
C52 H55 0.930 . S
N53 Co33 2.194 . S
N53 C48 1.328 . S
N53 C52 1.315 . S
H54 C48 0.929 . S
H55 C52 0.930 . S
H56 C44 0.929 . S
H57 C46 0.929 . S
O58 Co33 2.351 . S
O58 C61 1.244 . S
O59 Co33 2.155 . S
O59 C61 1.240 . S
O60 Co33 2.096 . S
O60 C41 1.247 . S
C61 O58 1.244 . S
C61 O59 1.240 . S
H62 C36 0.931 . S
H63 C45 0.931 . S
H64 C49 0.929 . S
H65 C51 0.930 . S
Co66 N70 2.148 . S
Co66 N76 2.128 . S
Co66 N86 2.194 . S
Co66 O91 2.351 . S
Co66 O92 2.155 . S
Co66 O93 2.096 . S
C67 N70 1.301 1_556 S
C67 N71 1.328 . S
C67 H72 0.930 . S
C68 C69 1.333 . S
C68 N70 1.317 1_556 S
C68 H73 0.930 1_556 S
C69 C68 1.333 . S
C69 N71 1.350 . S
C69 H95 0.931 . S
N70 Co66 2.148 . S
N70 C67 1.301 1_554 S
N70 C68 1.317 1_554 S
N71 C67 1.328 . S
N71 C69 1.350 . S
H72 C67 0.930 . S
H73 C68 0.930 1_554 S
C74 O75 1.224 . S
C74 O93 1.247 . S
O75 C74 1.224 . S
N76 Co66 2.128 . S
N76 C77 1.355 . S
N76 C79 1.311 . S
C77 N76 1.355 . S
C77 C78 1.363 . S
C77 H89 0.929 . S
C78 C77 1.363 . S
C78 N80 1.375 . S
C78 H96 0.931 . S
C79 N76 1.311 . S
C79 N80 1.347 . S
C79 H90 0.929 . S
N80 C78 1.375 . S
N80 C79 1.347 . S
C81 C84 1.365 . S
C81 N86 1.328 . S
C81 H87 0.929 . S
C82 C83 1.362 . S
C82 C85 1.378 . S
C82 H97 0.929 . S
C83 C82 1.362 . S
C83 C84 1.366 . S
C84 C81 1.365 . S
C84 C83 1.366 . S
C84 H98 0.930 . S
C85 C82 1.378 . S
C85 N86 1.315 . S
C85 H88 0.930 . S
N86 Co66 2.194 . S
N86 C81 1.328 . S
N86 C85 1.315 . S
H87 C81 0.929 . S
H88 C85 0.930 . S
H89 C77 0.929 . S
H90 C79 0.929 . S
O91 Co66 2.351 . S
O91 C94 1.244 . S
O92 Co66 2.155 . S
O92 C94 1.240 . S
O93 Co66 2.096 . S
O93 C74 1.247 . S
C94 O91 1.244 . S
C94 O92 1.240 . S
H95 C69 0.931 . S
H96 C78 0.931 . S
H97 C82 0.929 . S
H98 C84 0.930 . S
Co99 N103 2.148 . S
Co99 N109 2.128 . S
Co99 N119 2.194 . S
Co99 O124 2.351 . S
Co99 O125 2.155 . S
Co99 O126 2.096 . S
C100 N103 1.301 1_554 S
C100 N104 1.328 . S
C100 H105 0.930 . S
C101 C102 1.333 . S
C101 N103 1.317 1_554 S
C101 H106 0.930 1_554 S
C102 C101 1.333 . S
C102 N104 1.350 . S
C102 H128 0.931 . S
N103 Co99 2.148 . S
N103 C100 1.301 1_556 S
N103 C101 1.317 1_556 S
N104 C100 1.328 . S
N104 C102 1.350 . S
H105 C100 0.930 . S
H106 C101 0.930 1_556 S
C107 O108 1.224 . S
C107 O126 1.247 . S
O108 C107 1.224 . S
N109 Co99 2.128 . S
N109 C110 1.355 . S
N109 C112 1.311 . S
C110 N109 1.355 . S
C110 C111 1.363 . S
C110 H122 0.929 . S
C111 C110 1.363 . S
C111 N113 1.375 . S
C111 H129 0.931 . S
C112 N109 1.311 . S
C112 N113 1.347 . S
C112 H123 0.929 . S
N113 C111 1.375 . S
N113 C112 1.347 . S
C114 C117 1.365 . S
C114 N119 1.328 . S
C114 H120 0.929 . S
C115 C116 1.362 . S
C115 C118 1.378 . S
C115 H130 0.929 . S
C116 C115 1.362 . S
C116 C117 1.366 . S
C117 C114 1.365 . S
C117 C116 1.366 . S
C117 H131 0.930 . S
C118 C115 1.378 . S
C118 N119 1.315 . S
C118 H121 0.930 . S
N119 Co99 2.194 . S
N119 C114 1.328 . S
N119 C118 1.315 . S
H120 C114 0.929 . S
H121 C118 0.930 . S
H122 C110 0.929 . S
H123 C112 0.929 . S
O124 Co99 2.351 . S
O124 C127 1.244 . S
O125 Co99 2.155 . S
O125 C127 1.240 . S
O126 Co99 2.096 . S
O126 C107 1.247 . S
C127 O124 1.244 . S
C127 O125 1.240 . S
H128 C102 0.931 . S
H129 C111 0.931 . S
H130 C115 0.929 . S
H131 C117 0.930 . S
Co132 N136 2.148 . S
Co132 N142 2.128 . S
Co132 N152 2.194 . S
Co132 O157 2.351 . S
Co132 O158 2.155 . S
Co132 O159 2.096 . S
C133 N136 1.301 1_554 S
C133 N137 1.328 . S
C133 H138 0.930 . S
C134 C135 1.333 . S
C134 N136 1.317 1_554 S
C134 H139 0.930 1_554 S
C135 C134 1.333 . S
C135 N137 1.350 . S
C135 H161 0.931 . S
N136 Co132 2.148 . S
N136 C133 1.301 1_556 S
N136 C134 1.317 1_556 S
N137 C133 1.328 . S
N137 C135 1.350 . S
H138 C133 0.930 . S
H139 C134 0.930 1_556 S
C140 O141 1.224 . S
C140 O159 1.247 . S
O141 C140 1.224 . S
N142 Co132 2.128 . S
N142 C143 1.355 . S
N142 C145 1.311 . S
C143 N142 1.355 . S
C143 C144 1.363 . S
C143 H155 0.929 . S
C144 C143 1.363 . S
C144 N146 1.375 . S
C144 H162 0.931 . S
C145 N142 1.311 . S
C145 N146 1.347 . S
C145 H156 0.929 . S
N146 C144 1.375 . S
N146 C145 1.347 . S
C147 C150 1.365 . S
C147 N152 1.328 . S
C147 H153 0.929 . S
C148 C149 1.362 . S
C148 C151 1.378 . S
C148 H163 0.929 . S
C149 C148 1.362 . S
C149 C150 1.366 . S
C150 C147 1.365 . S
C150 C149 1.366 . S
C150 H164 0.930 . S
C151 C148 1.378 . S
C151 N152 1.315 . S
C151 H154 0.930 . S
N152 Co132 2.194 . S
N152 C147 1.328 . S
N152 C151 1.315 . S
H153 C147 0.929 . S
H154 C151 0.930 . S
H155 C143 0.929 . S
H156 C145 0.929 . S
O157 Co132 2.351 . S
O157 C160 1.244 . S
O158 Co132 2.155 . S
O158 C160 1.240 . S
O159 Co132 2.096 . S
O159 C140 1.247 . S
C160 O157 1.244 . S
C160 O158 1.240 . S
H161 C135 0.931 . S
H162 C144 0.931 . S
H163 C148 0.929 . S
H164 C150 0.930 . S
Co165 N169 2.148 . S
Co165 N175 2.128 . S
Co165 N185 2.194 . S
Co165 O190 2.351 . S
Co165 O191 2.155 . S
Co165 O192 2.096 . S
C166 N169 1.301 1_554 S
C166 N170 1.328 . S
C166 H171 0.930 . S
C167 C168 1.333 . S
C167 N169 1.317 1_554 S
C167 H172 0.930 1_554 S
C168 C167 1.333 . S
C168 N170 1.350 . S
C168 H194 0.931 . S
N169 Co165 2.148 . S
N169 C166 1.301 1_556 S
N169 C167 1.317 1_556 S
N170 C166 1.328 . S
N170 C168 1.350 . S
H171 C166 0.930 . S
H172 C167 0.930 1_556 S
C173 O174 1.224 . S
C173 O192 1.247 . S
O174 C173 1.224 . S
N175 Co165 2.128 . S
N175 C176 1.355 . S
N175 C178 1.311 . S
C176 N175 1.355 . S
C176 C177 1.363 . S
C176 H188 0.929 . S
C177 C176 1.363 . S
C177 N179 1.375 . S
C177 H195 0.931 . S
C178 N175 1.311 . S
C178 N179 1.347 . S
C178 H189 0.929 . S
N179 C177 1.375 . S
N179 C178 1.347 . S
C180 C183 1.365 . S
C180 N185 1.328 . S
C180 H186 0.929 . S
C181 C182 1.362 . S
C181 C184 1.378 . S
C181 H196 0.929 . S
C182 C181 1.362 . S
C182 C183 1.366 . S
C183 C180 1.365 . S
C183 C182 1.366 . S
C183 H197 0.930 . S
C184 C181 1.378 . S
C184 N185 1.315 . S
C184 H187 0.930 . S
N185 Co165 2.194 . S
N185 C180 1.328 . S
N185 C184 1.315 . S
H186 C180 0.929 . S
H187 C184 0.930 . S
H188 C176 0.929 . S
H189 C178 0.929 . S
O190 Co165 2.351 . S
O190 C193 1.244 . S
O191 Co165 2.155 . S
O191 C193 1.240 . S
O192 Co165 2.096 . S
O192 C173 1.247 . S
C193 O190 1.244 . S
C193 O191 1.240 . S
H194 C168 0.931 . S
H195 C177 0.931 . S
H196 C181 0.929 . S
H197 C183 0.930 . S
Co198 N202 2.148 . S
Co198 N208 2.128 . S
Co198 N218 2.194 . S
Co198 O223 2.351 . S
Co198 O224 2.155 . S
Co198 O225 2.096 . S
C199 N202 1.301 . S
C199 N203 1.328 . S
C199 H204 0.930 . S
C200 C201 1.333 . S
C200 N202 1.317 . S
C200 H205 0.930 . S
C201 C200 1.333 . S
C201 N203 1.350 . S
C201 H227 0.931 . S
N202 Co198 2.148 . S
N202 C199 1.301 . S
N202 C200 1.317 . S
N203 C199 1.328 . S
N203 C201 1.350 . S
H204 C199 0.930 . S
H205 C200 0.930 . S
C206 O207 1.224 . S
C206 O225 1.247 . S
O207 C206 1.224 . S
N208 Co198 2.128 . S
N208 C209 1.355 . S
N208 C211 1.311 . S
C209 N208 1.355 . S
C209 C210 1.363 . S
C209 H221 0.929 . S
C210 C209 1.363 . S
C210 N212 1.375 . S
C210 H228 0.931 . S
C211 N208 1.311 . S
C211 N212 1.347 . S
C211 H222 0.929 . S
N212 C210 1.375 . S
N212 C211 1.347 . S
C213 C216 1.365 . S
C213 N218 1.328 . S
C213 H219 0.929 . S
C214 C215 1.362 . S
C214 C217 1.378 . S
C214 H229 0.929 . S
C215 C214 1.362 . S
C215 C216 1.366 . S
C216 C213 1.365 . S
C216 C215 1.366 . S
C216 H230 0.930 . S
C217 C214 1.378 . S
C217 N218 1.315 . S
C217 H220 0.930 . S
N218 Co198 2.194 . S
N218 C213 1.328 . S
N218 C217 1.315 . S
H219 C213 0.929 . S
H220 C217 0.930 . S
H221 C209 0.929 . S
H222 C211 0.929 . S
O223 Co198 2.351 . S
O223 C226 1.244 . S
O224 Co198 2.155 . S
O224 C226 1.240 . S
O225 Co198 2.096 . S
O225 C206 1.247 . S
C226 O223 1.244 . S
C226 O224 1.240 . S
H227 C201 0.931 . S
H228 C210 0.931 . S
H229 C214 0.929 . S
H230 C216 0.930 . S
Co231 N235 2.148 . S
Co231 N241 2.128 . S
Co231 N251 2.194 . S
Co231 O256 2.351 . S
Co231 O257 2.155 . S
Co231 O258 2.096 . S
C232 N235 1.301 . S
C232 N236 1.328 . S
C232 H237 0.930 . S
C233 C234 1.333 . S
C233 N235 1.317 . S
C233 H238 0.930 . S
C234 C233 1.333 . S
C234 N236 1.350 . S
C234 H260 0.931 . S
N235 Co231 2.148 . S
N235 C232 1.301 . S
N235 C233 1.317 . S
N236 C232 1.328 . S
N236 C234 1.350 . S
H237 C232 0.930 . S
H238 C233 0.930 . S
C239 O240 1.224 . S
C239 O258 1.247 . S
O240 C239 1.224 . S
N241 Co231 2.128 . S
N241 C242 1.355 . S
N241 C244 1.311 . S
C242 N241 1.355 . S
C242 C243 1.363 . S
C242 H254 0.929 . S
C243 C242 1.363 . S
C243 N245 1.375 . S
C243 H261 0.931 . S
C244 N241 1.311 . S
C244 N245 1.347 . S
C244 H255 0.929 . S
N245 C243 1.375 . S
N245 C244 1.347 . S
C246 C249 1.365 . S
C246 N251 1.328 . S
C246 H252 0.929 . S
C247 C248 1.362 . S
C247 C250 1.378 . S
C247 H262 0.929 . S
C248 C247 1.362 . S
C248 C249 1.366 . S
C249 C246 1.365 . S
C249 C248 1.366 . S
C249 H263 0.930 . S
C250 C247 1.378 . S
C250 N251 1.315 . S
C250 H253 0.930 . S
N251 Co231 2.194 . S
N251 C246 1.328 . S
N251 C250 1.315 . S
H252 C246 0.929 . S
H253 C250 0.930 . S
H254 C242 0.929 . S
H255 C244 0.929 . S
O256 Co231 2.351 . S
O256 C259 1.244 . S
O257 Co231 2.155 . S
O257 C259 1.240 . S
O258 Co231 2.096 . S
O258 C239 1.247 . S
C259 O256 1.244 . S
C259 O257 1.240 . S
H260 C234 0.931 . S
H261 C243 0.931 . S
H262 C247 0.929 . S
H263 C249 0.930 . S
Co264 N268 2.148 . S
Co264 N274 2.128 . S
Co264 N284 2.194 . S
Co264 O289 2.351 . S
Co264 O290 2.155 . S
Co264 O291 2.096 . S
C265 N268 1.301 . S
C265 N269 1.328 . S
C265 H270 0.930 . S
C266 C267 1.333 . S
C266 N268 1.317 . S
C266 H271 0.930 . S
C267 C266 1.333 . S
C267 N269 1.350 . S
C267 H293 0.931 . S
N268 Co264 2.148 . S
N268 C265 1.301 . S
N268 C266 1.317 . S
N269 C265 1.328 . S
N269 C267 1.350 . S
H270 C265 0.930 . S
H271 C266 0.930 . S
C272 O273 1.224 . S
C272 O291 1.247 . S
O273 C272 1.224 . S
N274 Co264 2.128 . S
N274 C275 1.355 . S
N274 C277 1.311 . S
C275 N274 1.355 . S
C275 C276 1.363 . S
C275 H287 0.929 . S
C276 C275 1.363 . S
C276 N278 1.375 . S
C276 H294 0.931 . S
C277 N274 1.311 . S
C277 N278 1.347 . S
C277 H288 0.929 . S
N278 C276 1.375 . S
N278 C277 1.347 . S
C279 C282 1.365 . S
C279 N284 1.328 . S
C279 H285 0.929 . S
C280 C281 1.362 . S
C280 C283 1.378 . S
C280 H295 0.929 . S
C281 C280 1.362 . S
C281 C282 1.366 . S
C282 C279 1.365 . S
C282 C281 1.366 . S
C282 H296 0.930 . S
C283 C280 1.378 . S
C283 N284 1.315 . S
C283 H286 0.930 . S
N284 Co264 2.194 . S
N284 C279 1.328 . S
N284 C283 1.315 . S
H285 C279 0.929 . S
H286 C283 0.930 . S
H287 C275 0.929 . S
H288 C277 0.929 . S
O289 Co264 2.351 . S
O289 C292 1.244 . S
O290 Co264 2.155 . S
O290 C292 1.240 . S
O291 Co264 2.096 . S
O291 C272 1.247 . S
C292 O289 1.244 . S
C292 O290 1.240 . S
H293 C267 0.931 . S
H294 C276 0.931 . S
H295 C280 0.929 . S
H296 C282 0.930 . S
Co297 N301 2.148 . S
Co297 N307 2.128 . S
Co297 N317 2.194 . S
Co297 O322 2.351 . S
Co297 O323 2.155 . S
Co297 O324 2.096 . S
C298 N301 1.301 . S
C298 N302 1.328 . S
C298 H303 0.930 . S
C299 C300 1.333 . S
C299 N301 1.317 . S
C299 H304 0.930 . S
C300 C299 1.333 . S
C300 N302 1.350 . S
C300 H326 0.931 . S
N301 Co297 2.148 . S
N301 C298 1.301 . S
N301 C299 1.317 . S
N302 C298 1.328 . S
N302 C300 1.350 . S
H303 C298 0.930 . S
H304 C299 0.930 . S
C305 O306 1.224 . S
C305 O324 1.247 . S
O306 C305 1.224 . S
N307 Co297 2.128 . S
N307 C308 1.355 . S
N307 C310 1.311 . S
C308 N307 1.355 . S
C308 C309 1.363 . S
C308 H320 0.929 . S
C309 C308 1.363 . S
C309 N311 1.375 . S
C309 H327 0.931 . S
C310 N307 1.311 . S
C310 N311 1.347 . S
C310 H321 0.929 . S
N311 C309 1.375 . S
N311 C310 1.347 . S
C312 C315 1.365 . S
C312 N317 1.328 . S
C312 H318 0.929 . S
C313 C314 1.362 . S
C313 C316 1.378 . S
C313 H328 0.929 . S
C314 C313 1.362 . S
C314 C315 1.366 . S
C315 C312 1.365 . S
C315 C314 1.366 . S
C315 H329 0.930 . S
C316 C313 1.378 . S
C316 N317 1.315 . S
C316 H319 0.930 . S
N317 Co297 2.194 . S
N317 C312 1.328 . S
N317 C316 1.315 . S
H318 C312 0.929 . S
H319 C316 0.930 . S
H320 C308 0.929 . S
H321 C310 0.929 . S
O322 Co297 2.351 . S
O322 C325 1.244 . S
O323 Co297 2.155 . S
O323 C325 1.240 . S
O324 Co297 2.096 . S
O324 C305 1.247 . S
C325 O322 1.244 . S
C325 O323 1.240 . S
H326 C300 0.931 . S
H327 C309 0.931 . S
H328 C313 0.929 . S
H329 C315 0.930 . S
Co330 N334 2.148 . S
Co330 N340 2.128 . S
Co330 N350 2.194 . S
Co330 O355 2.351 . S
Co330 O356 2.155 . S
Co330 O357 2.096 . S
C331 N334 1.301 . S
C331 N335 1.328 . S
C331 H336 0.930 . S
C332 C333 1.333 . S
C332 N334 1.317 . S
C332 H337 0.930 . S
C333 C332 1.333 . S
C333 N335 1.350 . S
C333 H359 0.931 . S
N334 Co330 2.148 . S
N334 C331 1.301 . S
N334 C332 1.317 . S
N335 C331 1.328 . S
N335 C333 1.350 . S
H336 C331 0.930 . S
H337 C332 0.930 . S
C338 O339 1.224 . S
C338 O357 1.247 . S
O339 C338 1.224 . S
N340 Co330 2.128 . S
N340 C341 1.355 . S
N340 C343 1.311 . S
C341 N340 1.355 . S
C341 C342 1.363 . S
C341 H353 0.929 . S
C342 C341 1.363 . S
C342 N344 1.375 . S
C342 H360 0.931 . S
C343 N340 1.311 . S
C343 N344 1.347 . S
C343 H354 0.929 . S
N344 C342 1.375 . S
N344 C343 1.347 . S
C345 C348 1.365 . S
C345 N350 1.328 . S
C345 H351 0.929 . S
C346 C347 1.362 . S
C346 C349 1.378 . S
C346 H361 0.929 . S
C347 C346 1.362 . S
C347 C348 1.366 . S
C348 C345 1.365 . S
C348 C347 1.366 . S
C348 H362 0.930 . S
C349 C346 1.378 . S
C349 N350 1.315 . S
C349 H352 0.930 . S
N350 Co330 2.194 . S
N350 C345 1.328 . S
N350 C349 1.315 . S
H351 C345 0.929 . S
H352 C349 0.930 . S
H353 C341 0.929 . S
H354 C343 0.929 . S
O355 Co330 2.351 . S
O355 C358 1.244 . S
O356 Co330 2.155 . S
O356 C358 1.240 . S
O357 Co330 2.096 . S
O357 C338 1.247 . S
C358 O355 1.244 . S
C358 O356 1.240 . S
H359 C333 0.931 . S
H360 C342 0.931 . S
H361 C346 0.929 . S
H362 C348 0.930 . S
Co363 N367 2.148 . S
Co363 N373 2.128 . S
Co363 N383 2.194 . S
Co363 O388 2.351 . S
Co363 O389 2.155 . S
Co363 O390 2.096 . S
C364 N367 1.301 . S
C364 N368 1.328 . S
C364 H369 0.930 . S
C365 C366 1.333 . S
C365 N367 1.317 . S
C365 H370 0.930 . S
C366 C365 1.333 . S
C366 N368 1.350 . S
C366 H392 0.931 . S
N367 Co363 2.148 . S
N367 C364 1.301 . S
N367 C365 1.317 . S
N368 C364 1.328 . S
N368 C366 1.350 . S
H369 C364 0.930 . S
H370 C365 0.930 . S
C371 O372 1.224 . S
C371 O390 1.247 . S
O372 C371 1.224 . S
N373 Co363 2.128 . S
N373 C374 1.355 . S
N373 C376 1.311 . S
C374 N373 1.355 . S
C374 C375 1.363 . S
C374 H386 0.929 . S
C375 C374 1.363 . S
C375 N377 1.375 . S
C375 H393 0.931 . S
C376 N373 1.311 . S
C376 N377 1.347 . S
C376 H387 0.929 . S
N377 C375 1.375 . S
N377 C376 1.347 . S
C378 C381 1.365 . S
C378 N383 1.328 . S
C378 H384 0.929 . S
C379 C380 1.362 . S
C379 C382 1.378 . S
C379 H394 0.929 . S
C380 C379 1.362 . S
C380 C381 1.366 . S
C381 C378 1.365 . S
C381 C380 1.366 . S
C381 H395 0.930 . S
C382 C379 1.378 . S
C382 N383 1.315 . S
C382 H385 0.930 . S
N383 Co363 2.194 . S
N383 C378 1.328 . S
N383 C382 1.315 . S
H384 C378 0.929 . S
H385 C382 0.930 . S
H386 C374 0.929 . S
H387 C376 0.929 . S
O388 Co363 2.351 . S
O388 C391 1.244 . S
O389 Co363 2.155 . S
O389 C391 1.240 . S
O390 Co363 2.096 . S
O390 C371 1.247 . S
C391 O388 1.244 . S
C391 O389 1.240 . S
H392 C366 0.931 . S
H393 C375 0.931 . S
H394 C379 0.929 . S
H395 C381 0.930 . S
Co396 N400 2.148 . S
Co396 N406 2.128 . S
Co396 N416 2.194 . S
Co396 O421 2.351 . S
Co396 O422 2.155 . S
Co396 O423 2.096 . S
C397 N400 1.301 . S
C397 N401 1.328 . S
C397 H402 0.930 . S
C398 C399 1.333 . S
C398 N400 1.317 . S
C398 H403 0.930 . S
C399 C398 1.333 . S
C399 N401 1.350 . S
C399 H425 0.931 . S
N400 Co396 2.148 . S
N400 C397 1.301 . S
N400 C398 1.317 . S
N401 C397 1.328 . S
N401 C399 1.350 . S
H402 C397 0.930 . S
H403 C398 0.930 . S
C404 O405 1.224 . S
C404 O423 1.247 . S
O405 C404 1.224 . S
N406 Co396 2.128 . S
N406 C407 1.355 . S
N406 C409 1.311 . S
C407 N406 1.355 . S
C407 C408 1.363 . S
C407 H419 0.929 . S
C408 C407 1.363 . S
C408 N410 1.375 . S
C408 H426 0.931 . S
C409 N406 1.311 . S
C409 N410 1.347 . S
C409 H420 0.929 . S
N410 C408 1.375 . S
N410 C409 1.347 . S
C411 C414 1.365 . S
C411 N416 1.328 . S
C411 H417 0.929 . S
C412 C413 1.362 . S
C412 C415 1.378 . S
C412 H427 0.929 . S
C413 C412 1.362 . S
C413 C414 1.366 . S
C414 C411 1.365 . S
C414 C413 1.366 . S
C414 H428 0.930 . S
C415 C412 1.378 . S
C415 N416 1.315 . S
C415 H418 0.930 . S
N416 Co396 2.194 . S
N416 C411 1.328 . S
N416 C415 1.315 . S
H417 C411 0.929 . S
H418 C415 0.930 . S
H419 C407 0.929 . S
H420 C409 0.929 . S
O421 Co396 2.351 . S
O421 C424 1.244 . S
O422 Co396 2.155 . S
O422 C424 1.240 . S
O423 Co396 2.096 . S
O423 C404 1.247 . S
C424 O421 1.244 . S
C424 O422 1.240 . S
H425 C399 0.931 . S
H426 C408 0.931 . S
H427 C412 0.929 . S
H428 C414 0.930 . S
Co429 N433 2.148 . S
Co429 N439 2.128 . S
Co429 N449 2.194 . S
Co429 O454 2.351 . S
Co429 O455 2.155 . S
Co429 O456 2.096 . S
C430 N433 1.301 . S
C430 N434 1.328 . S
C430 H435 0.930 . S
C431 C432 1.333 . S
C431 N433 1.317 . S
C431 H436 0.930 . S
C432 C431 1.333 . S
C432 N434 1.350 . S
C432 H458 0.931 . S
N433 Co429 2.148 . S
N433 C430 1.301 . S
N433 C431 1.317 . S
N434 C430 1.328 . S
N434 C432 1.350 . S
H435 C430 0.930 . S
H436 C431 0.930 . S
C437 O438 1.224 . S
C437 O456 1.247 . S
O438 C437 1.224 . S
N439 Co429 2.128 . S
N439 C440 1.355 . S
N439 C442 1.311 . S
C440 N439 1.355 . S
C440 C441 1.363 . S
C440 H452 0.929 . S
C441 C440 1.363 . S
C441 N443 1.375 . S
C441 H459 0.931 . S
C442 N439 1.311 . S
C442 N443 1.347 . S
C442 H453 0.929 . S
N443 C441 1.375 . S
N443 C442 1.347 . S
C444 C447 1.365 . S
C444 N449 1.328 . S
C444 H450 0.929 . S
C445 C446 1.362 . S
C445 C448 1.378 . S
C445 H460 0.929 . S
C446 C445 1.362 . S
C446 C447 1.366 . S
C447 C444 1.365 . S
C447 C446 1.366 . S
C447 H461 0.930 . S
C448 C445 1.378 . S
C448 N449 1.315 . S
C448 H451 0.930 . S
N449 Co429 2.194 . S
N449 C444 1.328 . S
N449 C448 1.315 . S
H450 C444 0.929 . S
H451 C448 0.930 . S
H452 C440 0.929 . S
H453 C442 0.929 . S
O454 Co429 2.351 . S
O454 C457 1.244 . S
O455 Co429 2.155 . S
O455 C457 1.240 . S
O456 Co429 2.096 . S
O456 C437 1.247 . S
C457 O454 1.244 . S
C457 O455 1.240 . S
H458 C432 0.931 . S
H459 C441 0.931 . S
H460 C445 0.929 . S
H461 C447 0.930 . S
Co462 N466 2.148 . S
Co462 N472 2.128 . S
Co462 N482 2.194 . S
Co462 O487 2.351 . S
Co462 O488 2.155 . S
Co462 O489 2.096 . S
C463 N466 1.301 . S
C463 N467 1.328 . S
C463 H468 0.930 . S
C464 C465 1.333 . S
C464 N466 1.317 . S
C464 H469 0.930 . S
C465 C464 1.333 . S
C465 N467 1.350 . S
C465 H491 0.931 . S
N466 Co462 2.148 . S
N466 C463 1.301 . S
N466 C464 1.317 . S
N467 C463 1.328 . S
N467 C465 1.350 . S
H468 C463 0.930 . S
H469 C464 0.930 . S
C470 O471 1.224 . S
C470 O489 1.247 . S
O471 C470 1.224 . S
N472 Co462 2.128 . S
N472 C473 1.355 . S
N472 C475 1.311 . S
C473 N472 1.355 . S
C473 C474 1.363 . S
C473 H485 0.929 . S
C474 C473 1.363 . S
C474 N476 1.375 . S
C474 H492 0.931 . S
C475 N472 1.311 . S
C475 N476 1.347 . S
C475 H486 0.929 . S
N476 C474 1.375 . S
N476 C475 1.347 . S
C477 C480 1.365 . S
C477 N482 1.328 . S
C477 H483 0.929 . S
C478 C479 1.362 . S
C478 C481 1.378 . S
C478 H493 0.929 . S
C479 C478 1.362 . S
C479 C480 1.366 . S
C480 C477 1.365 . S
C480 C479 1.366 . S
C480 H494 0.930 . S
C481 C478 1.378 . S
C481 N482 1.315 . S
C481 H484 0.930 . S
N482 Co462 2.194 . S
N482 C477 1.328 . S
N482 C481 1.315 . S
H483 C477 0.929 . S
H484 C481 0.930 . S
H485 C473 0.929 . S
H486 C475 0.929 . S
O487 Co462 2.351 . S
O487 C490 1.244 . S
O488 Co462 2.155 . S
O488 C490 1.240 . S
O489 Co462 2.096 . S
O489 C470 1.247 . S
C490 O487 1.244 . S
C490 O488 1.240 . S
H491 C465 0.931 . S
H492 C474 0.931 . S
H493 C478 0.929 . S
H494 C480 0.930 . S
Co495 N499 2.148 . S
Co495 N505 2.128 . S
Co495 N515 2.194 . S
Co495 O520 2.351 . S
Co495 O521 2.155 . S
Co495 O522 2.096 . S
C496 N499 1.301 . S
C496 N500 1.328 . S
C496 H501 0.930 . S
C497 C498 1.333 . S
C497 N499 1.317 . S
C497 H502 0.930 . S
C498 C497 1.333 . S
C498 N500 1.350 . S
C498 H524 0.931 . S
N499 Co495 2.148 . S
N499 C496 1.301 . S
N499 C497 1.317 . S
N500 C496 1.328 . S
N500 C498 1.350 . S
H501 C496 0.930 . S
H502 C497 0.930 . S
C503 O504 1.224 . S
C503 O522 1.247 . S
O504 C503 1.224 . S
N505 Co495 2.128 . S
N505 C506 1.355 . S
N505 C508 1.311 . S
C506 N505 1.355 . S
C506 C507 1.363 . S
C506 H518 0.929 . S
C507 C506 1.363 . S
C507 N509 1.375 . S
C507 H525 0.931 . S
C508 N505 1.311 . S
C508 N509 1.347 . S
C508 H519 0.929 . S
N509 C507 1.375 . S
N509 C508 1.347 . S
C510 C513 1.365 . S
C510 N515 1.328 . S
C510 H516 0.929 . S
C511 C512 1.362 . S
C511 C514 1.378 . S
C511 H526 0.929 . S
C512 C511 1.362 . S
C512 C513 1.366 . S
C513 C510 1.365 . S
C513 C512 1.366 . S
C513 H527 0.930 . S
C514 C511 1.378 . S
C514 N515 1.315 . S
C514 H517 0.930 . S
N515 Co495 2.194 . S
N515 C510 1.328 . S
N515 C514 1.315 . S
H516 C510 0.929 . S
H517 C514 0.930 . S
H518 C506 0.929 . S
H519 C508 0.929 . S
O520 Co495 2.351 . S
O520 C523 1.244 . S
O521 Co495 2.155 . S
O521 C523 1.240 . S
O522 Co495 2.096 . S
O522 C503 1.247 . S
C523 O520 1.244 . S
C523 O521 1.240 . S
H524 C498 0.931 . S
H525 C507 0.931 . S
H526 C511 0.929 . S
H527 C513 0.930 . S
Co528 N532 2.148 . S
Co528 N538 2.128 . S
Co528 N548 2.194 . S
Co528 O553 2.351 . S
Co528 O554 2.155 . S
Co528 O555 2.096 . S
C529 N532 1.301 . S
C529 N533 1.328 . S
C529 H534 0.930 . S
C530 C531 1.333 . S
C530 N532 1.317 . S
C530 H535 0.930 . S
C531 C530 1.333 . S
C531 N533 1.350 . S
C531 H557 0.931 . S
N532 Co528 2.148 . S
N532 C529 1.301 . S
N532 C530 1.317 . S
N533 C529 1.328 . S
N533 C531 1.350 . S
H534 C529 0.930 . S
H535 C530 0.930 . S
C536 O537 1.224 . S
C536 O555 1.247 . S
O537 C536 1.224 . S
N538 Co528 2.128 . S
N538 C539 1.355 . S
N538 C541 1.311 . S
C539 N538 1.355 . S
C539 C540 1.363 . S
C539 H551 0.929 . S
C540 C539 1.363 . S
C540 N542 1.375 . S
C540 H558 0.931 . S
C541 N538 1.311 . S
C541 N542 1.347 . S
C541 H552 0.929 . S
N542 C540 1.375 . S
N542 C541 1.347 . S
C543 C546 1.365 . S
C543 N548 1.328 . S
C543 H549 0.929 . S
C544 C545 1.362 . S
C544 C547 1.378 . S
C544 H559 0.929 . S
C545 C544 1.362 . S
C545 C546 1.366 . S
C546 C543 1.365 . S
C546 C545 1.366 . S
C546 H560 0.930 . S
C547 C544 1.378 . S
C547 N548 1.315 . S
C547 H550 0.930 . S
N548 Co528 2.194 . S
N548 C543 1.328 . S
N548 C547 1.315 . S
H549 C543 0.929 . S
H550 C547 0.930 . S
H551 C539 0.929 . S
H552 C541 0.929 . S
O553 Co528 2.351 . S
O553 C556 1.244 . S
O554 Co528 2.155 . S
O554 C556 1.240 . S
O555 Co528 2.096 . S
O555 C536 1.247 . S
C556 O553 1.244 . S
C556 O554 1.240 . S
H557 C531 0.931 . S
H558 C540 0.931 . S
H559 C544 0.929 . S
H560 C546 0.930 . S
Co561 N565 2.148 . S
Co561 N571 2.128 . S
Co561 N581 2.194 . S
Co561 O586 2.351 . S
Co561 O587 2.155 . S
Co561 O588 2.096 . S
C562 N565 1.301 . S
C562 N566 1.328 . S
C562 H567 0.930 . S
C563 C564 1.333 . S
C563 N565 1.317 . S
C563 H568 0.930 . S
C564 C563 1.333 . S
C564 N566 1.350 . S
C564 H590 0.931 . S
N565 Co561 2.148 . S
N565 C562 1.301 . S
N565 C563 1.317 . S
N566 C562 1.328 . S
N566 C564 1.350 . S
H567 C562 0.930 . S
H568 C563 0.930 . S
C569 O570 1.224 . S
C569 O588 1.247 . S
O570 C569 1.224 . S
N571 Co561 2.128 . S
N571 C572 1.355 . S
N571 C574 1.311 . S
C572 N571 1.355 . S
C572 C573 1.363 . S
C572 H584 0.929 . S
C573 C572 1.363 . S
C573 N575 1.375 . S
C573 H591 0.931 . S
C574 N571 1.311 . S
C574 N575 1.347 . S
C574 H585 0.929 . S
N575 C573 1.375 . S
N575 C574 1.347 . S
C576 C579 1.365 . S
C576 N581 1.328 . S
C576 H582 0.929 . S
C577 C578 1.362 . S
C577 C580 1.378 . S
C577 H592 0.929 . S
C578 C577 1.362 . S
C578 C579 1.366 . S
C579 C576 1.365 . S
C579 C578 1.366 . S
C579 H593 0.930 . S
C580 C577 1.378 . S
C580 N581 1.315 . S
C580 H583 0.930 . S
N581 Co561 2.194 . S
N581 C576 1.328 . S
N581 C580 1.315 . S
H582 C576 0.929 . S
H583 C580 0.930 . S
H584 C572 0.929 . S
H585 C574 0.929 . S
O586 Co561 2.351 . S
O586 C589 1.244 . S
O587 Co561 2.155 . S
O587 C589 1.240 . S
O588 Co561 2.096 . S
O588 C569 1.247 . S
C589 O586 1.244 . S
C589 O587 1.240 . S
H590 C564 0.931 . S
H591 C573 0.931 . S
H592 C577 0.929 . S
H593 C579 0.930 . S
C594 C595 1.349 . S
C594 C596 1.327 . S
C594 H619 0.950 . S
C595 C594 1.349 . S
C595 C611 1.349 . S
C596 C594 1.327 . S
C596 C615 1.429 . S
C596 H620 0.950 . S
C597 C614 1.574 . S
C597 C616 1.368 . S
C597 H621 0.949 . S
H598 C602 0.949 . S
C599 C600 1.349 . S
C599 C601 1.327 . S
C599 H622 0.950 . S
C600 C599 1.349 . S
C600 C612 1.349 . S
C601 C599 1.327 . S
C601 C617 1.429 . S
C601 H623 0.950 . S
C602 H598 0.949 . S
C602 C610 1.574 . S
C602 C618 1.368 . S
H603 C611 0.950 . S
H604 C609 0.950 . S
H605 C610 0.949 . S
H606 C612 0.950 . S
H607 C613 0.950 . S
H608 C614 0.949 . S
C609 H604 0.950 . S
C609 C611 1.327 . S
C609 C615 1.429 . S
C610 C602 1.574 . S
C610 H605 0.949 . S
C610 C616 1.368 . S
C611 C595 1.349 . S
C611 H603 0.950 . S
C611 C609 1.327 . S
C612 C600 1.349 . S
C612 H606 0.950 . S
C612 C613 1.327 . S
C613 H607 0.950 . S
C613 C612 1.327 . S
C613 C617 1.429 . S
C614 C597 1.574 . S
C614 H608 0.949 . S
C614 C618 1.368 . S
C615 C596 1.429 . S
C615 C609 1.429 . S
C615 C616 1.523 . S
C616 C597 1.368 . S
C616 C610 1.368 . S
C616 C615 1.523 . S
C617 C601 1.429 . S
C617 C613 1.429 . S
C617 C618 1.523 . S
C618 C602 1.368 . S
C618 C614 1.368 . S
C618 C617 1.523 . S
H619 C594 0.950 . S
H620 C596 0.950 . S
H621 C597 0.949 . S
H622 C599 0.950 . S
H623 C601 0.950 . S
C624 C625 1.349 . S
C624 C626 1.327 . S
C624 H649 0.950 . S
C625 C624 1.349 . S
C625 C641 1.349 . S
C626 C624 1.327 . S
C626 C645 1.429 . S
C626 H650 0.950 . S
C627 C644 1.574 . S
C627 C646 1.368 . S
C627 H651 0.949 . S
H628 C632 0.949 . S
C629 C630 1.349 . S
C629 C631 1.327 . S
C629 H652 0.950 . S
C630 C629 1.349 . S
C630 C642 1.349 . S
C631 C629 1.327 . S
C631 C647 1.429 . S
C631 H653 0.950 . S
C632 H628 0.949 . S
C632 C640 1.574 . S
C632 C648 1.368 . S
H633 C641 0.950 . S
H634 C639 0.950 . S
H635 C640 0.949 . S
H636 C642 0.950 . S
H637 C643 0.950 . S
H638 C644 0.949 . S
C639 H634 0.950 . S
C639 C641 1.327 . S
C639 C645 1.429 . S
C640 C632 1.574 . S
C640 H635 0.949 . S
C640 C646 1.368 . S
C641 C625 1.349 . S
C641 H633 0.950 . S
C641 C639 1.327 . S
C642 C630 1.349 . S
C642 H636 0.950 . S
C642 C643 1.327 . S
C643 H637 0.950 . S
C643 C642 1.327 . S
C643 C647 1.429 . S
C644 C627 1.574 . S
C644 H638 0.949 . S
C644 C648 1.368 . S
C645 C626 1.429 . S
C645 C639 1.429 . S
C645 C646 1.523 . S
C646 C627 1.368 . S
C646 C640 1.368 . S
C646 C645 1.523 . S
C647 C631 1.429 . S
C647 C643 1.429 . S
C647 C648 1.523 . S
C648 C632 1.368 . S
C648 C644 1.368 . S
C648 C647 1.523 . S
H649 C624 0.950 . S
H650 C626 0.950 . S
H651 C627 0.949 . S
H652 C629 0.950 . S
H653 C631 0.950 . S
C654 C655 1.349 . S
C654 C656 1.327 . S
C654 H679 0.950 . S
C655 C654 1.349 . S
C655 C671 1.349 . S
C656 C654 1.327 . S
C656 C675 1.429 . S
C656 H680 0.950 . S
C657 C674 1.574 . S
C657 C676 1.368 . S
C657 H681 0.949 . S
H658 C662 0.949 . S
C659 C660 1.349 . S
C659 C661 1.327 . S
C659 H682 0.950 . S
C660 C659 1.349 . S
C660 C672 1.349 . S
C661 C659 1.327 . S
C661 C677 1.429 . S
C661 H683 0.950 . S
C662 H658 0.949 . S
C662 C670 1.574 . S
C662 C678 1.368 . S
H663 C671 0.950 . S
H664 C669 0.950 . S
H665 C670 0.949 . S
H666 C672 0.950 . S
H667 C673 0.950 . S
H668 C674 0.949 . S
C669 H664 0.950 . S
C669 C671 1.327 . S
C669 C675 1.429 . S
C670 C662 1.574 . S
C670 H665 0.949 . S
C670 C676 1.368 . S
C671 C655 1.349 . S
C671 H663 0.950 . S
C671 C669 1.327 . S
C672 C660 1.349 . S
C672 H666 0.950 . S
C672 C673 1.327 . S
C673 H667 0.950 . S
C673 C672 1.327 . S
C673 C677 1.429 . S
C674 C657 1.574 . S
C674 H668 0.949 . S
C674 C678 1.368 . S
C675 C656 1.429 . S
C675 C669 1.429 . S
C675 C676 1.523 . S
C676 C657 1.368 . S
C676 C670 1.368 . S
C676 C675 1.523 . S
C677 C661 1.429 . S
C677 C673 1.429 . S
C677 C678 1.523 . S
C678 C662 1.368 . S
C678 C674 1.368 . S
C678 C677 1.523 . S
H679 C654 0.950 . S
H680 C656 0.950 . S
H681 C657 0.949 . S
H682 C659 0.950 . S
H683 C661 0.950 . S
C684 C685 1.349 . S
C684 C686 1.327 . S
C684 H709 0.950 . S
C685 C684 1.349 . S
C685 C701 1.349 . S
C686 C684 1.327 . S
C686 C705 1.429 . S
C686 H710 0.950 . S
C687 C704 1.574 . S
C687 C706 1.368 . S
C687 H711 0.949 . S
H688 C692 0.949 . S
C689 C690 1.349 . S
C689 C691 1.327 . S
C689 H712 0.950 . S
C690 C689 1.349 . S
C690 C702 1.349 . S
C691 C689 1.327 . S
C691 C707 1.429 . S
C691 H713 0.950 . S
C692 H688 0.949 . S
C692 C700 1.574 . S
C692 C708 1.368 . S
H693 C701 0.950 . S
H694 C699 0.950 . S
H695 C700 0.949 . S
H696 C702 0.950 . S
H697 C703 0.950 . S
H698 C704 0.949 . S
C699 H694 0.950 . S
C699 C701 1.327 . S
C699 C705 1.429 . S
C700 C692 1.574 . S
C700 H695 0.949 . S
C700 C706 1.368 . S
C701 C685 1.349 . S
C701 H693 0.950 . S
C701 C699 1.327 . S
C702 C690 1.349 . S
C702 H696 0.950 . S
C702 C703 1.327 . S
C703 H697 0.950 . S
C703 C702 1.327 . S
C703 C707 1.429 . S
C704 C687 1.574 . S
C704 H698 0.949 . S
C704 C708 1.368 . S
C705 C686 1.429 . S
C705 C699 1.429 . S
C705 C706 1.523 . S
C706 C687 1.368 . S
C706 C700 1.368 . S
C706 C705 1.523 . S
C707 C691 1.429 . S
C707 C703 1.429 . S
C707 C708 1.523 . S
C708 C692 1.368 . S
C708 C704 1.368 . S
C708 C707 1.523 . S
H709 C684 0.950 . S
H710 C686 0.950 . S
H711 C687 0.949 . S
H712 C689 0.950 . S
H713 C691 0.950 . S
C714 C715 1.349 . S
C714 C716 1.327 . S
C714 H739 0.950 . S
C715 C714 1.349 . S
C715 C731 1.349 . S
C716 C714 1.327 . S
C716 C735 1.429 . S
C716 H740 0.950 . S
C717 C734 1.574 . S
C717 C736 1.368 . S
C717 H741 0.949 . S
H718 C722 0.949 . S
C719 C720 1.349 . S
C719 C721 1.327 . S
C719 H742 0.950 . S
C720 C719 1.349 . S
C720 C732 1.349 . S
C721 C719 1.327 . S
C721 C737 1.429 . S
C721 H743 0.950 . S
C722 H718 0.949 . S
C722 C730 1.574 . S
C722 C738 1.368 . S
H723 C731 0.950 . S
H724 C729 0.950 . S
H725 C730 0.949 . S
H726 C732 0.950 . S
H727 C733 0.950 . S
H728 C734 0.949 . S
C729 H724 0.950 . S
C729 C731 1.327 . S
C729 C735 1.429 . S
C730 C722 1.574 . S
C730 H725 0.949 . S
C730 C736 1.368 . S
C731 C715 1.349 . S
C731 H723 0.950 . S
C731 C729 1.327 . S
C732 C720 1.349 . S
C732 H726 0.950 . S
C732 C733 1.327 . S
C733 H727 0.950 . S
C733 C732 1.327 . S
C733 C737 1.429 . S
C734 C717 1.574 . S
C734 H728 0.949 . S
C734 C738 1.368 . S
C735 C716 1.429 . S
C735 C729 1.429 . S
C735 C736 1.523 . S
C736 C717 1.368 . S
C736 C730 1.368 . S
C736 C735 1.523 . S
C737 C721 1.429 . S
C737 C733 1.429 . S
C737 C738 1.523 . S
C738 C722 1.368 . S
C738 C734 1.368 . S
C738 C737 1.523 . S
H739 C714 0.950 . S
H740 C716 0.950 . S
H741 C717 0.949 . S
H742 C719 0.950 . S
H743 C721 0.950 . S
C744 C745 1.349 . S
C744 C746 1.327 . S
C744 H769 0.950 . S
C745 C744 1.349 . S
C745 C761 1.349 . S
C746 C744 1.327 . S
C746 C765 1.429 . S
C746 H770 0.950 . S
C747 C764 1.574 . S
C747 C766 1.368 . S
C747 H771 0.949 . S
H748 C752 0.949 . S
C749 C750 1.349 . S
C749 C751 1.327 . S
C749 H772 0.950 . S
C750 C749 1.349 . S
C750 C762 1.349 . S
C751 C749 1.327 . S
C751 C767 1.429 . S
C751 H773 0.950 . S
C752 H748 0.949 . S
C752 C760 1.574 . S
C752 C768 1.368 . S
H753 C761 0.950 . S
H754 C759 0.950 . S
H755 C760 0.949 . S
H756 C762 0.950 . S
H757 C763 0.950 . S
H758 C764 0.949 . S
C759 H754 0.950 . S
C759 C761 1.327 . S
C759 C765 1.429 . S
C760 C752 1.574 . S
C760 H755 0.949 . S
C760 C766 1.368 . S
C761 C745 1.349 . S
C761 H753 0.950 . S
C761 C759 1.327 . S
C762 C750 1.349 . S
C762 H756 0.950 . S
C762 C763 1.327 . S
C763 H757 0.950 . S
C763 C762 1.327 . S
C763 C767 1.429 . S
C764 C747 1.574 . S
C764 H758 0.949 . S
C764 C768 1.368 . S
C765 C746 1.429 . S
C765 C759 1.429 . S
C765 C766 1.523 . S
C766 C747 1.368 . S
C766 C760 1.368 . S
C766 C765 1.523 . S
C767 C751 1.429 . S
C767 C763 1.429 . S
C767 C768 1.523 . S
C768 C752 1.368 . S
C768 C764 1.368 . S
C768 C767 1.523 . S
H769 C744 0.950 . S
H770 C746 0.950 . S
H771 C747 0.949 . S
H772 C749 0.950 . S
H773 C751 0.950 . S
C774 C775 1.349 . S
C774 C776 1.327 . S
C774 H799 0.950 . S
C775 C774 1.349 . S
C775 C791 1.349 . S
C776 C774 1.327 . S
C776 C795 1.429 . S
C776 H800 0.950 . S
C777 C794 1.574 . S
C777 C796 1.368 . S
C777 H801 0.949 . S
H778 C782 0.949 . S
C779 C780 1.349 . S
C779 C781 1.327 . S
C779 H802 0.950 . S
C780 C779 1.349 . S
C780 C792 1.349 . S
C781 C779 1.327 . S
C781 C797 1.429 . S
C781 H803 0.950 . S
C782 H778 0.949 . S
C782 C790 1.574 . S
C782 C798 1.368 . S
H783 C791 0.950 . S
H784 C789 0.950 . S
H785 C790 0.949 1_554 S
H786 C792 0.950 . S
H787 C793 0.950 . S
H788 C794 0.949 . S
C789 H784 0.950 . S
C789 C791 1.327 . S
C789 C795 1.429 . S
C790 C782 1.574 . S
C790 H785 0.949 1_556 S
C790 C796 1.368 . S
C791 C775 1.349 . S
C791 H783 0.950 . S
C791 C789 1.327 . S
C792 C780 1.349 . S
C792 H786 0.950 . S
C792 C793 1.327 . S
C793 H787 0.950 . S
C793 C792 1.327 . S
C793 C797 1.429 . S
C794 C777 1.574 . S
C794 H788 0.949 . S
C794 C798 1.368 . S
C795 C776 1.429 . S
C795 C789 1.429 . S
C795 C796 1.523 1_554 S
C796 C777 1.368 . S
C796 C790 1.368 . S
C796 C795 1.523 1_556 S
C797 C781 1.429 . S
C797 C793 1.429 . S
C797 C798 1.523 . S
C798 C782 1.368 . S
C798 C794 1.368 . S
C798 C797 1.523 . S
H799 C774 0.950 . S
H800 C776 0.950 . S
H801 C777 0.949 . S
H802 C779 0.950 . S
H803 C781 0.950 . S
C804 C805 1.349 . S
C804 C806 1.327 . S
C804 H829 0.950 . S
C805 C804 1.349 . S
C805 C821 1.349 . S
C806 C804 1.327 . S
C806 C825 1.429 . S
C806 H830 0.950 . S
C807 C824 1.574 . S
C807 C826 1.368 . S
C807 H831 0.949 1_556 S
H808 C812 0.949 . S
C809 C810 1.349 . S
C809 C811 1.327 . S
C809 H832 0.950 . S
C810 C809 1.349 . S
C810 C822 1.349 . S
C811 C809 1.327 . S
C811 C827 1.429 . S
C811 H833 0.950 . S
C812 H808 0.949 . S
C812 C820 1.574 . S
C812 C828 1.368 . S
H813 C821 0.950 . S
H814 C819 0.950 . S
H815 C820 0.949 . S
H816 C822 0.950 . S
H817 C823 0.950 . S
H818 C824 0.949 . S
C819 H814 0.950 . S
C819 C821 1.327 . S
C819 C825 1.429 . S
C820 C812 1.574 . S
C820 H815 0.949 . S
C820 C826 1.368 . S
C821 C805 1.349 . S
C821 H813 0.950 . S
C821 C819 1.327 . S
C822 C810 1.349 . S
C822 H816 0.950 . S
C822 C823 1.327 . S
C823 H817 0.950 . S
C823 C822 1.327 . S
C823 C827 1.429 . S
C824 C807 1.574 . S
C824 H818 0.949 . S
C824 C828 1.368 . S
C825 C806 1.429 . S
C825 C819 1.429 . S
C825 C826 1.523 1_554 S
C826 C807 1.368 . S
C826 C820 1.368 . S
C826 C825 1.523 1_556 S
C827 C811 1.429 . S
C827 C823 1.429 . S
C827 C828 1.523 . S
C828 C812 1.368 . S
C828 C824 1.368 . S
C828 C827 1.523 . S
H829 C804 0.950 . S
H830 C806 0.950 . S
H831 C807 0.949 1_554 S
H832 C809 0.950 . S
H833 C811 0.950 . S
C834 C835 1.349 . S
C834 C836 1.327 . S
C834 H859 0.950 . S
C835 C834 1.349 . S
C835 C851 1.349 . S
C836 C834 1.327 . S
C836 C855 1.429 . S
C836 H860 0.950 . S
C837 C854 1.574 . S
C837 C856 1.368 . S
C837 H861 0.949 . S
H838 C842 0.949 . S
C839 C840 1.349 . S
C839 C841 1.327 . S
C839 H862 0.950 . S
C840 C839 1.349 . S
C840 C852 1.349 . S
C841 C839 1.327 . S
C841 C857 1.429 . S
C841 H863 0.950 . S
C842 H838 0.949 . S
C842 C850 1.574 . S
C842 C858 1.368 . S
H843 C851 0.950 . S
H844 C849 0.950 . S
H845 C850 0.949 . S
H846 C852 0.950 . S
H847 C853 0.950 . S
H848 C854 0.949 1_554 S
C849 H844 0.950 . S
C849 C851 1.327 . S
C849 C855 1.429 . S
C850 C842 1.574 . S
C850 H845 0.949 . S
C850 C856 1.368 . S
C851 C835 1.349 . S
C851 H843 0.950 . S
C851 C849 1.327 . S
C852 C840 1.349 . S
C852 H846 0.950 . S
C852 C853 1.327 . S
C853 H847 0.950 . S
C853 C852 1.327 . S
C853 C857 1.429 . S
C854 C837 1.574 . S
C854 H848 0.949 1_556 S
C854 C858 1.368 . S
C855 C836 1.429 . S
C855 C849 1.429 . S
C855 C856 1.523 . S
C856 C837 1.368 . S
C856 C850 1.368 . S
C856 C855 1.523 . S
C857 C841 1.429 . S
C857 C853 1.429 . S
C857 C858 1.523 1_554 S
C858 C842 1.368 . S
C858 C854 1.368 . S
C858 C857 1.523 1_556 S
H859 C834 0.950 . S
H860 C836 0.950 . S
H861 C837 0.949 . S
H862 C839 0.950 . S
H863 C841 0.950 . S
C864 C865 1.349 . S
C864 C866 1.327 . S
C864 H889 0.950 . S
C865 C864 1.349 . S
C865 C881 1.349 . S
C866 C864 1.327 . S
C866 C885 1.429 . S
C866 H890 0.950 . S
C867 C884 1.574 . S
C867 C886 1.368 . S
C867 H891 0.949 . S
H868 C872 0.949 . S
C869 C870 1.349 . S
C869 C871 1.327 . S
C869 H892 0.950 . S
C870 C869 1.349 . S
C870 C882 1.349 . S
C871 C869 1.327 . S
C871 C887 1.429 . S
C871 H893 0.950 . S
C872 H868 0.949 . S
C872 C880 1.574 . S
C872 C888 1.368 . S
H873 C881 0.950 . S
H874 C879 0.950 . S
H875 C880 0.949 . S
H876 C882 0.950 . S
H877 C883 0.950 . S
H878 C884 0.949 . S
C879 H874 0.950 . S
C879 C881 1.327 . S
C879 C885 1.429 . S
C880 C872 1.574 . S
C880 H875 0.949 . S
C880 C886 1.368 . S
C881 C865 1.349 . S
C881 H873 0.950 . S
C881 C879 1.327 . S
C882 C870 1.349 . S
C882 H876 0.950 . S
C882 C883 1.327 . S
C883 H877 0.950 . S
C883 C882 1.327 . S
C883 C887 1.429 . S
C884 C867 1.574 . S
C884 H878 0.949 . S
C884 C888 1.368 . S
C885 C866 1.429 . S
C885 C879 1.429 . S
C885 C886 1.523 . S
C886 C867 1.368 . S
C886 C880 1.368 . S
C886 C885 1.523 . S
C887 C871 1.429 . S
C887 C883 1.429 . S
C887 C888 1.523 . S
C888 C872 1.368 . S
C888 C884 1.368 . S
C888 C887 1.523 . S
H889 C864 0.950 . S
H890 C866 0.950 . S
H891 C867 0.949 . S
H892 C869 0.950 . S
H893 C871 0.950 . S
C894 C895 1.349 . S
C894 C896 1.327 . S
C894 H919 0.950 . S
C895 C894 1.349 . S
C895 C911 1.349 . S
C896 C894 1.327 . S
C896 C915 1.429 . S
C896 H920 0.950 . S
C897 C914 1.574 . S
C897 C916 1.368 . S
C897 H921 0.949 . S
H898 C902 0.949 . S
C899 C900 1.349 . S
C899 C901 1.327 . S
C899 H922 0.950 . S
C900 C899 1.349 . S
C900 C912 1.349 . S
C901 C899 1.327 . S
C901 C917 1.429 . S
C901 H923 0.950 . S
C902 H898 0.949 . S
C902 C910 1.574 . S
C902 C918 1.368 . S
H903 C911 0.950 . S
H904 C909 0.950 . S
H905 C910 0.949 . S
H906 C912 0.950 . S
H907 C913 0.950 . S
H908 C914 0.949 . S
C909 H904 0.950 . S
C909 C911 1.327 . S
C909 C915 1.429 . S
C910 C902 1.574 . S
C910 H905 0.949 . S
C910 C916 1.368 . S
C911 C895 1.349 . S
C911 H903 0.950 . S
C911 C909 1.327 . S
C912 C900 1.349 . S
C912 H906 0.950 . S
C912 C913 1.327 . S
C913 H907 0.950 . S
C913 C912 1.327 . S
C913 C917 1.429 . S
C914 C897 1.574 . S
C914 H908 0.949 . S
C914 C918 1.368 . S
C915 C896 1.429 . S
C915 C909 1.429 . S
C915 C916 1.523 . S
C916 C897 1.368 . S
C916 C910 1.368 . S
C916 C915 1.523 . S
C917 C901 1.429 . S
C917 C913 1.429 . S
C917 C918 1.523 . S
C918 C902 1.368 . S
C918 C914 1.368 . S
C918 C917 1.523 . S
H919 C894 0.950 . S
H920 C896 0.950 . S
H921 C897 0.949 . S
H922 C899 0.950 . S
H923 C901 0.950 . S
C924 C925 1.349 . S
C924 C926 1.327 . S
C924 H949 0.950 . S
C925 C924 1.349 . S
C925 C941 1.349 . S
C926 C924 1.327 . S
C926 C945 1.429 . S
C926 H950 0.950 . S
C927 C944 1.574 . S
C927 C946 1.368 . S
C927 H951 0.949 . S
H928 C932 0.949 . S
C929 C930 1.349 . S
C929 C931 1.327 . S
C929 H952 0.950 . S
C930 C929 1.349 . S
C930 C942 1.349 . S
C931 C929 1.327 . S
C931 C947 1.429 . S
C931 H953 0.950 . S
C932 H928 0.949 . S
C932 C940 1.574 . S
C932 C948 1.368 . S
H933 C941 0.950 . S
H934 C939 0.950 . S
H935 C940 0.949 . S
H936 C942 0.950 . S
H937 C943 0.950 . S
H938 C944 0.949 . S
C939 H934 0.950 . S
C939 C941 1.327 . S
C939 C945 1.429 . S
C940 C932 1.574 . S
C940 H935 0.949 . S
C940 C946 1.368 . S
C941 C925 1.349 . S
C941 H933 0.950 . S
C941 C939 1.327 . S
C942 C930 1.349 . S
C942 H936 0.950 . S
C942 C943 1.327 . S
C943 H937 0.950 . S
C943 C942 1.327 . S
C943 C947 1.429 . S
C944 C927 1.574 . S
C944 H938 0.949 . S
C944 C948 1.368 . S
C945 C926 1.429 . S
C945 C939 1.429 . S
C945 C946 1.523 . S
C946 C927 1.368 . S
C946 C940 1.368 . S
C946 C945 1.523 . S
C947 C931 1.429 . S
C947 C943 1.429 . S
C947 C948 1.523 . S
C948 C932 1.368 . S
C948 C944 1.368 . S
C948 C947 1.523 . S
H949 C924 0.950 . S
H950 C926 0.950 . S
H951 C927 0.949 . S
H952 C929 0.950 . S
H953 C931 0.950 . S
C954 C955 1.349 . S
C954 C956 1.327 . S
C954 H979 0.950 . S
C955 C954 1.349 . S
C955 C971 1.349 . S
C956 C954 1.327 . S
C956 C975 1.429 . S
C956 H980 0.950 . S
C957 C974 1.574 . S
C957 C976 1.368 . S
C957 H981 0.949 . S
H958 C962 0.949 . S
C959 C960 1.349 . S
C959 C961 1.327 . S
C959 H982 0.950 . S
C960 C959 1.349 . S
C960 C972 1.349 . S
C961 C959 1.327 . S
C961 C977 1.429 . S
C961 H983 0.950 . S
C962 H958 0.949 . S
C962 C970 1.574 . S
C962 C978 1.368 . S
H963 C971 0.950 . S
H964 C969 0.950 . S
H965 C970 0.949 . S
H966 C972 0.950 . S
H967 C973 0.950 . S
H968 C974 0.949 . S
C969 H964 0.950 . S
C969 C971 1.327 . S
C969 C975 1.429 . S
C970 C962 1.574 . S
C970 H965 0.949 . S
C970 C976 1.368 . S
C971 C955 1.349 . S
C971 H963 0.950 . S
C971 C969 1.327 . S
C972 C960 1.349 . S
C972 H966 0.950 . S
C972 C973 1.327 . S
C973 H967 0.950 . S
C973 C972 1.327 . S
C973 C977 1.429 . S
C974 C957 1.574 . S
C974 H968 0.949 . S
C974 C978 1.368 . S
C975 C956 1.429 . S
C975 C969 1.429 . S
C975 C976 1.523 . S
C976 C957 1.368 . S
C976 C970 1.368 . S
C976 C975 1.523 . S
C977 C961 1.429 . S
C977 C973 1.429 . S
C977 C978 1.523 . S
C978 C962 1.368 . S
C978 C974 1.368 . S
C978 C977 1.523 . S
H979 C954 0.950 . S
H980 C956 0.950 . S
H981 C957 0.949 . S
H982 C959 0.950 . S
H983 C961 0.950 . S
C984 C985 1.349 . S
C984 C986 1.327 . S
C984 H1009 0.950 . S
C985 C984 1.349 . S
C985 C1001 1.349 . S
C986 C984 1.327 . S
C986 C1005 1.429 . S
C986 H1010 0.950 . S
C987 C1004 1.574 . S
C987 C1006 1.368 . S
C987 H1011 0.949 . S
H988 C992 0.949 . S
C989 C990 1.349 . S
C989 C991 1.327 . S
C989 H1012 0.950 . S
C990 C989 1.349 . S
C990 C1002 1.349 . S
C991 C989 1.327 . S
C991 C1007 1.429 . S
C991 H1013 0.950 . S
C992 H988 0.949 . S
C992 C1000 1.574 . S
C992 C1008 1.368 . S
H993 C1001 0.950 . S
H994 C999 0.950 . S
H995 C1000 0.949 . S
H996 C1002 0.950 . S
H997 C1003 0.950 . S
H998 C1004 0.949 . S
C999 H994 0.950 . S
C999 C1001 1.327 . S
C999 C1005 1.429 . S
C1000 C992 1.574 . S
C1000 H995 0.949 . S
C1000 C1006 1.368 . S
C1001 C985 1.349 . S
C1001 H993 0.950 . S
C1001 C999 1.327 . S
C1002 C990 1.349 . S
C1002 H996 0.950 . S
C1002 C1003 1.327 . S
C1003 H997 0.950 . S
C1003 C1002 1.327 . S
C1003 C1007 1.429 . S
C1004 C987 1.574 . S
C1004 H998 0.949 . S
C1004 C1008 1.368 . S
C1005 C986 1.429 . S
C1005 C999 1.429 . S
C1005 C1006 1.523 . S
C1006 C987 1.368 . S
C1006 C1000 1.368 . S
C1006 C1005 1.523 . S
C1007 C991 1.429 . S
C1007 C1003 1.429 . S
C1007 C1008 1.523 . S
C1008 C992 1.368 . S
C1008 C1004 1.368 . S
C1008 C1007 1.523 . S
H1009 C984 0.950 . S
H1010 C986 0.950 . S
H1011 C987 0.949 . S
H1012 C989 0.950 . S
H1013 C991 0.950 . S
C1014 C1015 1.349 . S
C1014 C1016 1.327 . S
C1014 H1039 0.950 . S
C1015 C1014 1.349 . S
C1015 C1031 1.349 . S
C1016 C1014 1.327 . S
C1016 C1035 1.429 . S
C1016 H1040 0.950 . S
C1017 C1034 1.574 . S
C1017 C1036 1.368 . S
C1017 H1041 0.949 . S
H1018 C1022 0.949 . S
C1019 C1020 1.349 . S
C1019 C1021 1.327 . S
C1019 H1042 0.950 . S
C1020 C1019 1.349 . S
C1020 C1032 1.349 . S
C1021 C1019 1.327 . S
C1021 C1037 1.429 . S
C1021 H1043 0.950 . S
C1022 H1018 0.949 . S
C1022 C1030 1.574 . S
C1022 C1038 1.368 . S
H1023 C1031 0.950 . S
H1024 C1029 0.950 . S
H1025 C1030 0.949 . S
H1026 C1032 0.950 . S
H1027 C1033 0.950 . S
H1028 C1034 0.949 . S
C1029 H1024 0.950 . S
C1029 C1031 1.327 . S
C1029 C1035 1.429 . S
C1030 C1022 1.574 . S
C1030 H1025 0.949 . S
C1030 C1036 1.368 . S
C1031 C1015 1.349 . S
C1031 H1023 0.950 . S
C1031 C1029 1.327 . S
C1032 C1020 1.349 . S
C1032 H1026 0.950 . S
C1032 C1033 1.327 . S
C1033 H1027 0.950 . S
C1033 C1032 1.327 . S
C1033 C1037 1.429 . S
C1034 C1017 1.574 . S
C1034 H1028 0.949 . S
C1034 C1038 1.368 . S
C1035 C1016 1.429 . S
C1035 C1029 1.429 . S
C1035 C1036 1.523 . S
C1036 C1017 1.368 . S
C1036 C1030 1.368 . S
C1036 C1035 1.523 . S
C1037 C1021 1.429 . S
C1037 C1033 1.429 . S
C1037 C1038 1.523 . S
C1038 C1022 1.368 . S
C1038 C1034 1.368 . S
C1038 C1037 1.523 . S
H1039 C1014 0.950 . S
H1040 C1016 0.950 . S
H1041 C1017 0.949 . S
H1042 C1019 0.950 . S
H1043 C1021 0.950 . S
C1044 C1045 1.349 . S
C1044 C1046 1.327 . S
C1044 H1069 0.950 . S
C1045 C1044 1.349 . S
C1045 C1061 1.349 . S
C1046 C1044 1.327 . S
C1046 C1065 1.429 . S
C1046 H1070 0.950 . S
C1047 C1064 1.574 . S
C1047 C1066 1.368 . S
C1047 H1071 0.949 . S
H1048 C1052 0.949 . S
C1049 C1050 1.349 . S
C1049 C1051 1.327 . S
C1049 H1072 0.950 . S
C1050 C1049 1.349 . S
C1050 C1062 1.349 . S
C1051 C1049 1.327 . S
C1051 C1067 1.429 . S
C1051 H1073 0.950 . S
C1052 H1048 0.949 . S
C1052 C1060 1.574 . S
C1052 C1068 1.368 . S
H1053 C1061 0.950 . S
H1054 C1059 0.950 . S
H1055 C1060 0.949 . S
H1056 C1062 0.950 . S
H1057 C1063 0.950 . S
H1058 C1064 0.949 1_556 S
C1059 H1054 0.950 . S
C1059 C1061 1.327 . S
C1059 C1065 1.429 . S
C1060 C1052 1.574 . S
C1060 H1055 0.949 . S
C1060 C1066 1.368 . S
C1061 C1045 1.349 . S
C1061 H1053 0.950 . S
C1061 C1059 1.327 . S
C1062 C1050 1.349 . S
C1062 H1056 0.950 . S
C1062 C1063 1.327 . S
C1063 H1057 0.950 . S
C1063 C1062 1.327 . S
C1063 C1067 1.429 . S
C1064 C1047 1.574 . S
C1064 H1058 0.949 1_554 S
C1064 C1068 1.368 . S
C1065 C1046 1.429 . S
C1065 C1059 1.429 . S
C1065 C1066 1.523 . S
C1066 C1047 1.368 . S
C1066 C1060 1.368 . S
C1066 C1065 1.523 . S
C1067 C1051 1.429 . S
C1067 C1063 1.429 . S
C1067 C1068 1.523 1_556 S
C1068 C1052 1.368 . S
C1068 C1064 1.368 . S
C1068 C1067 1.523 1_554 S
H1069 C1044 0.950 . S
H1070 C1046 0.950 . S
H1071 C1047 0.949 . S
H1072 C1049 0.950 . S
H1073 C1051 0.950 . S
C1074 C1075 1.349 . S
C1074 C1076 1.327 . S
C1074 H1099 0.950 . S
C1075 C1074 1.349 . S
C1075 C1091 1.349 . S
C1076 C1074 1.327 . S
C1076 C1095 1.429 . S
C1076 H1100 0.950 . S
C1077 C1094 1.574 . S
C1077 C1096 1.368 . S
C1077 H1101 0.949 . S
H1078 C1082 0.949 . S
C1079 C1080 1.349 . S
C1079 C1081 1.327 . S
C1079 H1102 0.950 . S
C1080 C1079 1.349 . S
C1080 C1092 1.349 . S
C1081 C1079 1.327 . S
C1081 C1097 1.429 . S
C1081 H1103 0.950 . S
C1082 H1078 0.949 . S
C1082 C1090 1.574 . S
C1082 C1098 1.368 . S
H1083 C1091 0.950 . S
H1084 C1089 0.950 . S
H1085 C1090 0.949 . S
H1086 C1092 0.950 . S
H1087 C1093 0.950 . S
H1088 C1094 0.949 . S
C1089 H1084 0.950 . S
C1089 C1091 1.327 . S
C1089 C1095 1.429 . S
C1090 C1082 1.574 . S
C1090 H1085 0.949 . S
C1090 C1096 1.368 . S
C1091 C1075 1.349 . S
C1091 H1083 0.950 . S
C1091 C1089 1.327 . S
C1092 C1080 1.349 . S
C1092 H1086 0.950 . S
C1092 C1093 1.327 . S
C1093 H1087 0.950 . S
C1093 C1092 1.327 . S
C1093 C1097 1.429 . S
C1094 C1077 1.574 . S
C1094 H1088 0.949 . S
C1094 C1098 1.368 . S
C1095 C1076 1.429 . S
C1095 C1089 1.429 . S
C1095 C1096 1.523 . S
C1096 C1077 1.368 . S
C1096 C1090 1.368 . S
C1096 C1095 1.523 . S
C1097 C1081 1.429 . S
C1097 C1093 1.429 . S
C1097 C1098 1.523 1_556 S
C1098 C1082 1.368 . S
C1098 C1094 1.368 . S
C1098 C1097 1.523 1_554 S
H1099 C1074 0.950 . S
H1100 C1076 0.950 . S
H1101 C1077 0.949 . S
H1102 C1079 0.950 . S
H1103 C1081 0.950 . S
C1104 C1105 1.349 . S
C1104 C1106 1.327 . S
C1104 H1129 0.950 . S
C1105 C1104 1.349 . S
C1105 C1121 1.349 . S
C1106 C1104 1.327 . S
C1106 C1125 1.429 . S
C1106 H1130 0.950 . S
C1107 C1124 1.574 . S
C1107 C1126 1.368 . S
C1107 H1131 0.949 1_554 S
H1108 C1112 0.949 . S
C1109 C1110 1.349 . S
C1109 C1111 1.327 . S
C1109 H1132 0.950 . S
C1110 C1109 1.349 . S
C1110 C1122 1.349 . S
C1111 C1109 1.327 . S
C1111 C1127 1.429 . S
C1111 H1133 0.950 . S
C1112 H1108 0.949 . S
C1112 C1120 1.574 . S
C1112 C1128 1.368 . S
H1113 C1121 0.950 . S
H1114 C1119 0.950 . S
H1115 C1120 0.949 . S
H1116 C1122 0.950 . S
H1117 C1123 0.950 . S
H1118 C1124 0.949 . S
C1119 H1114 0.950 . S
C1119 C1121 1.327 . S
C1119 C1125 1.429 . S
C1120 C1112 1.574 . S
C1120 H1115 0.949 . S
C1120 C1126 1.368 . S
C1121 C1105 1.349 . S
C1121 H1113 0.950 . S
C1121 C1119 1.327 . S
C1122 C1110 1.349 . S
C1122 H1116 0.950 . S
C1122 C1123 1.327 . S
C1123 H1117 0.950 . S
C1123 C1122 1.327 . S
C1123 C1127 1.429 . S
C1124 C1107 1.574 . S
C1124 H1118 0.949 . S
C1124 C1128 1.368 . S
C1125 C1106 1.429 . S
C1125 C1119 1.429 . S
C1125 C1126 1.523 1_556 S
C1126 C1107 1.368 . S
C1126 C1120 1.368 . S
C1126 C1125 1.523 1_554 S
C1127 C1111 1.429 . S
C1127 C1123 1.429 . S
C1127 C1128 1.523 . S
C1128 C1112 1.368 . S
C1128 C1124 1.368 . S
C1128 C1127 1.523 . S
H1129 C1104 0.950 . S
H1130 C1106 0.950 . S
H1131 C1107 0.949 1_556 S
H1132 C1109 0.950 . S
H1133 C1111 0.950 . S
C1134 C1135 1.349 . S
C1134 C1136 1.327 . S
C1134 H1159 0.950 . S
C1135 C1134 1.349 . S
C1135 C1151 1.349 . S
C1136 C1134 1.327 . S
C1136 C1155 1.429 . S
C1136 H1160 0.950 . S
C1137 C1154 1.574 . S
C1137 C1156 1.368 . S
C1137 H1161 0.949 . S
H1138 C1142 0.949 . S
C1139 C1140 1.349 . S
C1139 C1141 1.327 . S
C1139 H1162 0.950 . S
C1140 C1139 1.349 . S
C1140 C1152 1.349 . S
C1141 C1139 1.327 . S
C1141 C1157 1.429 . S
C1141 H1163 0.950 . S
C1142 H1138 0.949 . S
C1142 C1150 1.574 . S
C1142 C1158 1.368 . S
H1143 C1151 0.950 . S
H1144 C1149 0.950 . S
H1145 C1150 0.949 . S
H1146 C1152 0.950 . S
H1147 C1153 0.950 . S
H1148 C1154 0.949 . S
C1149 H1144 0.950 . S
C1149 C1151 1.327 . S
C1149 C1155 1.429 . S
C1150 C1142 1.574 . S
C1150 H1145 0.949 . S
C1150 C1156 1.368 . S
C1151 C1135 1.349 . S
C1151 H1143 0.950 . S
C1151 C1149 1.327 . S
C1152 C1140 1.349 . S
C1152 H1146 0.950 . S
C1152 C1153 1.327 . S
C1153 H1147 0.950 . S
C1153 C1152 1.327 . S
C1153 C1157 1.429 . S
C1154 C1137 1.574 . S
C1154 H1148 0.949 . S
C1154 C1158 1.368 . S
C1155 C1136 1.429 . S
C1155 C1149 1.429 . S
C1155 C1156 1.523 . S
C1156 C1137 1.368 . S
C1156 C1150 1.368 . S
C1156 C1155 1.523 . S
C1157 C1141 1.429 . S
C1157 C1153 1.429 . S
C1157 C1158 1.523 . S
C1158 C1142 1.368 . S
C1158 C1154 1.368 . S
C1158 C1157 1.523 . S
H1159 C1134 0.950 . S
H1160 C1136 0.950 . S
H1161 C1137 0.949 . S
H1162 C1139 0.950 . S
H1163 C1141 0.950 . S
C1164 C1165 1.349 . S
C1164 C1166 1.327 . S
C1164 H1189 0.950 . S
C1165 C1164 1.349 . S
C1165 C1181 1.349 . S
C1166 C1164 1.327 . S
C1166 C1185 1.429 . S
C1166 H1190 0.950 . S
C1167 C1184 1.574 . S
C1167 C1186 1.368 . S
C1167 H1191 0.949 . S
H1168 C1172 0.949 . S
C1169 C1170 1.349 . S
C1169 C1171 1.327 . S
C1169 H1192 0.950 . S
C1170 C1169 1.349 . S
C1170 C1182 1.349 . S
C1171 C1169 1.327 . S
C1171 C1187 1.429 . S
C1171 H1193 0.950 . S
C1172 H1168 0.949 . S
C1172 C1180 1.574 . S
C1172 C1188 1.368 . S
H1173 C1181 0.950 . S
H1174 C1179 0.950 . S
H1175 C1180 0.949 . S
H1176 C1182 0.950 . S
H1177 C1183 0.950 . S
H1178 C1184 0.949 . S
C1179 H1174 0.950 . S
C1179 C1181 1.327 . S
C1179 C1185 1.429 . S
C1180 C1172 1.574 . S
C1180 H1175 0.949 . S
C1180 C1186 1.368 . S
C1181 C1165 1.349 . S
C1181 H1173 0.950 . S
C1181 C1179 1.327 . S
C1182 C1170 1.349 . S
C1182 H1176 0.950 . S
C1182 C1183 1.327 . S
C1183 H1177 0.950 . S
C1183 C1182 1.327 . S
C1183 C1187 1.429 . S
C1184 C1167 1.574 . S
C1184 H1178 0.949 . S
C1184 C1188 1.368 . S
C1185 C1166 1.429 . S
C1185 C1179 1.429 . S
C1185 C1186 1.523 . S
C1186 C1167 1.368 . S
C1186 C1180 1.368 . S
C1186 C1185 1.523 . S
C1187 C1171 1.429 . S
C1187 C1183 1.429 . S
C1187 C1188 1.523 . S
C1188 C1172 1.368 . S
C1188 C1184 1.368 . S
C1188 C1187 1.523 . S
H1189 C1164 0.950 . S
H1190 C1166 0.950 . S
H1191 C1167 0.949 . S
H1192 C1169 0.950 . S
H1193 C1171 0.950 . S
C1194 C1195 1.349 . S
C1194 C1196 1.327 . S
C1194 H1219 0.950 . S
C1195 C1194 1.349 . S
C1195 C1211 1.349 . S
C1196 C1194 1.327 . S
C1196 C1215 1.429 . S
C1196 H1220 0.950 . S
C1197 C1214 1.574 . S
C1197 C1216 1.368 . S
C1197 H1221 0.949 . S
H1198 C1202 0.949 . S
C1199 C1200 1.349 . S
C1199 C1201 1.327 . S
C1199 H1222 0.950 . S
C1200 C1199 1.349 . S
C1200 C1212 1.349 . S
C1201 C1199 1.327 . S
C1201 C1217 1.429 . S
C1201 H1223 0.950 . S
C1202 H1198 0.949 . S
C1202 C1210 1.574 . S
C1202 C1218 1.368 . S
H1203 C1211 0.950 . S
H1204 C1209 0.950 . S
H1205 C1210 0.949 . S
H1206 C1212 0.950 . S
H1207 C1213 0.950 . S
H1208 C1214 0.949 . S
C1209 H1204 0.950 . S
C1209 C1211 1.327 . S
C1209 C1215 1.429 . S
C1210 C1202 1.574 . S
C1210 H1205 0.949 . S
C1210 C1216 1.368 . S
C1211 C1195 1.349 . S
C1211 H1203 0.950 . S
C1211 C1209 1.327 . S
C1212 C1200 1.349 . S
C1212 H1206 0.950 . S
C1212 C1213 1.327 . S
C1213 H1207 0.950 . S
C1213 C1212 1.327 . S
C1213 C1217 1.429 . S
C1214 C1197 1.574 . S
C1214 H1208 0.949 . S
C1214 C1218 1.368 . S
C1215 C1196 1.429 . S
C1215 C1209 1.429 . S
C1215 C1216 1.523 . S
C1216 C1197 1.368 . S
C1216 C1210 1.368 . S
C1216 C1215 1.523 . S
C1217 C1201 1.429 . S
C1217 C1213 1.429 . S
C1217 C1218 1.523 . S
C1218 C1202 1.368 . S
C1218 C1214 1.368 . S
C1218 C1217 1.523 . S
H1219 C1194 0.950 . S
H1220 C1196 0.950 . S
H1221 C1197 0.949 . S
H1222 C1199 0.950 . S
H1223 C1201 0.950 . S
C1224 C1225 1.349 . S
C1224 C1226 1.327 . S
C1224 H1249 0.950 . S
C1225 C1224 1.349 . S
C1225 C1241 1.349 . S
C1226 C1224 1.327 . S
C1226 C1245 1.429 . S
C1226 H1250 0.950 . S
C1227 C1244 1.574 . S
C1227 C1246 1.368 . S
C1227 H1251 0.949 . S
H1228 C1232 0.949 . S
C1229 C1230 1.349 . S
C1229 C1231 1.327 . S
C1229 H1252 0.950 . S
C1230 C1229 1.349 . S
C1230 C1242 1.349 . S
C1231 C1229 1.327 . S
C1231 C1247 1.429 . S
C1231 H1253 0.950 . S
C1232 H1228 0.949 . S
C1232 C1240 1.574 . S
C1232 C1248 1.368 . S
H1233 C1241 0.950 . S
H1234 C1239 0.950 . S
H1235 C1240 0.949 . S
H1236 C1242 0.950 . S
H1237 C1243 0.950 . S
H1238 C1244 0.949 . S
C1239 H1234 0.950 . S
C1239 C1241 1.327 . S
C1239 C1245 1.429 . S
C1240 C1232 1.574 . S
C1240 H1235 0.949 . S
C1240 C1246 1.368 . S
C1241 C1225 1.349 . S
C1241 H1233 0.950 . S
C1241 C1239 1.327 . S
C1242 C1230 1.349 . S
C1242 H1236 0.950 . S
C1242 C1243 1.327 . S
C1243 H1237 0.950 . S
C1243 C1242 1.327 . S
C1243 C1247 1.429 . S
C1244 C1227 1.574 . S
C1244 H1238 0.949 . S
C1244 C1248 1.368 . S
C1245 C1226 1.429 . S
C1245 C1239 1.429 . S
C1245 C1246 1.523 . S
C1246 C1227 1.368 . S
C1246 C1240 1.368 . S
C1246 C1245 1.523 . S
C1247 C1231 1.429 . S
C1247 C1243 1.429 . S
C1247 C1248 1.523 . S
C1248 C1232 1.368 . S
C1248 C1244 1.368 . S
C1248 C1247 1.523 . S
H1249 C1224 0.950 . S
H1250 C1226 0.950 . S
H1251 C1227 0.949 . S
H1252 C1229 0.950 . S
H1253 C1231 0.950 . S
C1254 C1255 1.349 . S
C1254 C1256 1.327 . S
C1254 H1279 0.950 . S
C1255 C1254 1.349 . S
C1255 C1271 1.349 . S
C1256 C1254 1.327 . S
C1256 C1275 1.429 . S
C1256 H1280 0.950 . S
C1257 C1274 1.574 . S
C1257 C1276 1.368 . S
C1257 H1281 0.949 . S
H1258 C1262 0.949 . S
C1259 C1260 1.349 . S
C1259 C1261 1.327 . S
C1259 H1282 0.950 . S
C1260 C1259 1.349 . S
C1260 C1272 1.349 . S
C1261 C1259 1.327 . S
C1261 C1277 1.429 . S
C1261 H1283 0.950 . S
C1262 H1258 0.949 . S
C1262 C1270 1.574 . S
C1262 C1278 1.368 . S
H1263 C1271 0.950 . S
H1264 C1269 0.950 . S
H1265 C1270 0.949 . S
H1266 C1272 0.950 . S
H1267 C1273 0.950 . S
H1268 C1274 0.949 . S
C1269 H1264 0.950 . S
C1269 C1271 1.327 . S
C1269 C1275 1.429 . S
C1270 C1262 1.574 . S
C1270 H1265 0.949 . S
C1270 C1276 1.368 . S
C1271 C1255 1.349 . S
C1271 H1263 0.950 . S
C1271 C1269 1.327 . S
C1272 C1260 1.349 . S
C1272 H1266 0.950 . S
C1272 C1273 1.327 . S
C1273 H1267 0.950 . S
C1273 C1272 1.327 . S
C1273 C1277 1.429 . S
C1274 C1257 1.574 . S
C1274 H1268 0.949 . S
C1274 C1278 1.368 . S
C1275 C1256 1.429 . S
C1275 C1269 1.429 . S
C1275 C1276 1.523 . S
C1276 C1257 1.368 . S
C1276 C1270 1.368 . S
C1276 C1275 1.523 . S
C1277 C1261 1.429 . S
C1277 C1273 1.429 . S
C1277 C1278 1.523 . S
C1278 C1262 1.368 . S
C1278 C1274 1.368 . S
C1278 C1277 1.523 . S
H1279 C1254 0.950 . S
H1280 C1256 0.950 . S
H1281 C1257 0.949 . S
H1282 C1259 0.950 . S
H1283 C1261 0.950 . S
C1284 C1285 1.349 . S
C1284 C1286 1.327 . S
C1284 H1309 0.950 . S
C1285 C1284 1.349 . S
C1285 C1301 1.349 . S
C1286 C1284 1.327 . S
C1286 C1305 1.429 . S
C1286 H1310 0.950 . S
C1287 C1304 1.574 . S
C1287 C1306 1.368 . S
C1287 H1311 0.949 . S
H1288 C1292 0.949 . S
C1289 C1290 1.349 . S
C1289 C1291 1.327 . S
C1289 H1312 0.950 . S
C1290 C1289 1.349 . S
C1290 C1302 1.349 . S
C1291 C1289 1.327 . S
C1291 C1307 1.429 . S
C1291 H1313 0.950 . S
C1292 H1288 0.949 . S
C1292 C1300 1.574 . S
C1292 C1308 1.368 . S
H1293 C1301 0.950 . S
H1294 C1299 0.950 . S
H1295 C1300 0.949 . S
H1296 C1302 0.950 . S
H1297 C1303 0.950 . S
H1298 C1304 0.949 . S
C1299 H1294 0.950 . S
C1299 C1301 1.327 . S
C1299 C1305 1.429 . S
C1300 C1292 1.574 . S
C1300 H1295 0.949 . S
C1300 C1306 1.368 . S
C1301 C1285 1.349 . S
C1301 H1293 0.950 . S
C1301 C1299 1.327 . S
C1302 C1290 1.349 . S
C1302 H1296 0.950 . S
C1302 C1303 1.327 . S
C1303 H1297 0.950 . S
C1303 C1302 1.327 . S
C1303 C1307 1.429 . S
C1304 C1287 1.574 . S
C1304 H1298 0.949 . S
C1304 C1308 1.368 . S
C1305 C1286 1.429 . S
C1305 C1299 1.429 . S
C1305 C1306 1.523 . S
C1306 C1287 1.368 . S
C1306 C1300 1.368 . S
C1306 C1305 1.523 . S
C1307 C1291 1.429 . S
C1307 C1303 1.429 . S
C1307 C1308 1.523 . S
C1308 C1292 1.368 . S
C1308 C1304 1.368 . S
C1308 C1307 1.523 . S
H1309 C1284 0.950 . S
H1310 C1286 0.950 . S
H1311 C1287 0.949 . S
H1312 C1289 0.950 . S
H1313 C1291 0.950 . S
C1314 C1315 1.349 . S
C1314 C1316 1.327 . S
C1314 H1339 0.950 . S
C1315 C1314 1.349 . S
C1315 C1331 1.349 . S
C1316 C1314 1.327 . S
C1316 C1335 1.429 . S
C1316 H1340 0.950 . S
C1317 C1334 1.577 1_655 S
C1317 C1336 1.366 . S
C1317 H1341 0.941 . S
H1318 C1322 0.941 . S
C1319 C1320 1.349 . S
C1319 C1321 1.327 . S
C1319 H1342 0.950 . S
C1320 C1319 1.349 . S
C1320 C1332 1.349 . S
C1321 C1319 1.327 . S
C1321 C1337 1.429 . S
C1321 H1343 0.950 . S
C1322 H1318 0.941 . S
C1322 C1330 1.577 1_455 S
C1322 C1338 1.366 . S
H1323 C1331 0.950 . S
H1324 C1329 0.950 . S
H1325 C1330 0.949 . S
H1326 C1332 0.950 . S
H1327 C1333 0.950 . S
H1328 C1334 0.949 . S
C1329 H1324 0.950 . S
C1329 C1331 1.327 . S
C1329 C1335 1.429 . S
C1330 C1322 1.577 1_655 S
C1330 H1325 0.949 . S
C1330 C1336 1.368 1_556 S
C1331 C1315 1.349 . S
C1331 H1323 0.950 . S
C1331 C1329 1.327 . S
C1332 C1320 1.349 . S
C1332 H1326 0.950 . S
C1332 C1333 1.327 . S
C1333 H1327 0.950 . S
C1333 C1332 1.327 . S
C1333 C1337 1.429 . S
C1334 C1317 1.577 1_455 S
C1334 H1328 0.949 . S
C1334 C1338 1.368 1_554 S
C1335 C1316 1.429 . S
C1335 C1329 1.429 . S
C1335 C1336 1.523 . S
C1336 C1317 1.366 . S
C1336 C1330 1.368 1_554 S
C1336 C1335 1.523 . S
C1337 C1321 1.429 . S
C1337 C1333 1.429 . S
C1337 C1338 1.523 . S
C1338 C1322 1.366 . S
C1338 C1334 1.368 1_556 S
C1338 C1337 1.523 . S
H1339 C1314 0.950 . S
H1340 C1316 0.950 . S
H1341 C1317 0.941 . S
H1342 C1319 0.950 . S
H1343 C1321 0.950 . S
C1344 C1345 1.349 . S
C1344 C1346 1.327 . S
C1344 H1369 0.950 . S
C1345 C1344 1.349 . S
C1345 C1361 1.349 . S
C1346 C1344 1.327 . S
C1346 C1365 1.429 . S
C1346 H1370 0.950 . S
C1347 C1364 1.574 . S
C1347 C1366 1.368 1_554 S
C1347 H1371 0.949 . S
H1348 C1352 0.949 . S
C1349 C1350 1.349 . S
C1349 C1351 1.327 . S
C1349 H1372 0.950 . S
C1350 C1349 1.349 . S
C1350 C1362 1.349 . S
C1351 C1349 1.327 . S
C1351 C1367 1.429 . S
C1351 H1373 0.950 . S
C1352 H1348 0.949 . S
C1352 C1360 1.574 . S
C1352 C1368 1.368 1_556 S
H1353 C1361 0.950 . S
H1354 C1359 0.950 . S
H1355 C1360 0.949 . S
H1356 C1362 0.950 . S
H1357 C1363 0.950 . S
H1358 C1364 0.949 . S
C1359 H1354 0.950 . S
C1359 C1361 1.327 . S
C1359 C1365 1.429 . S
C1360 C1352 1.574 . S
C1360 H1355 0.949 . S
C1360 C1366 1.368 . S
C1361 C1345 1.349 . S
C1361 H1353 0.950 . S
C1361 C1359 1.327 . S
C1362 C1350 1.349 . S
C1362 H1356 0.950 . S
C1362 C1363 1.327 . S
C1363 H1357 0.950 . S
C1363 C1362 1.327 . S
C1363 C1367 1.429 . S
C1364 C1347 1.574 . S
C1364 H1358 0.949 . S
C1364 C1368 1.368 . S
C1365 C1346 1.429 . S
C1365 C1359 1.429 . S
C1365 C1366 1.523 . S
C1366 C1347 1.368 1_556 S
C1366 C1360 1.368 . S
C1366 C1365 1.523 . S
C1367 C1351 1.429 . S
C1367 C1363 1.429 . S
C1367 C1368 1.523 . S
C1368 C1352 1.368 1_554 S
C1368 C1364 1.368 . S
C1368 C1367 1.523 . S
H1369 C1344 0.950 . S
H1370 C1346 0.950 . S
H1371 C1347 0.949 . S
H1372 C1349 0.950 . S
H1373 C1351 0.950 . S
C1374 C1375 1.349 . S
C1374 C1376 1.327 . S
C1374 H1399 0.950 . S
C1375 C1374 1.349 . S
C1375 C1391 1.349 . S
C1376 C1374 1.327 . S
C1376 C1395 1.429 . S
C1376 H1400 0.950 . S
C1377 C1394 1.525 1_545 S
C1377 C1396 1.392 . S
C1377 H1401 0.976 . S
H1378 C1382 0.976 . S
C1379 C1380 1.349 . S
C1379 C1381 1.327 . S
C1379 H1402 0.950 . S
C1380 C1379 1.349 . S
C1380 C1392 1.349 . S
C1381 C1379 1.327 . S
C1381 C1397 1.429 . S
C1381 H1403 0.950 . S
C1382 H1378 0.976 . S
C1382 C1390 1.525 1_565 S
C1382 C1398 1.392 . S
H1383 C1391 0.950 . S
H1384 C1389 0.950 . S
H1385 C1390 0.949 . S
H1386 C1392 0.950 . S
H1387 C1393 0.950 . S
H1388 C1394 0.949 . S
C1389 H1384 0.950 . S
C1389 C1391 1.327 . S
C1389 C1395 1.429 . S
C1390 C1382 1.525 1_545 S
C1390 H1385 0.949 . S
C1390 C1396 1.368 1_556 S
C1391 C1375 1.349 . S
C1391 H1383 0.950 . S
C1391 C1389 1.327 . S
C1392 C1380 1.349 . S
C1392 H1386 0.950 . S
C1392 C1393 1.327 . S
C1393 H1387 0.950 . S
C1393 C1392 1.327 . S
C1393 C1397 1.429 . S
C1394 C1377 1.525 1_565 S
C1394 H1388 0.949 . S
C1394 C1398 1.368 1_554 S
C1395 C1376 1.429 . S
C1395 C1389 1.429 . S
C1395 C1396 1.523 . S
C1396 C1377 1.392 . S
C1396 C1390 1.368 1_554 S
C1396 C1395 1.523 . S
C1397 C1381 1.429 . S
C1397 C1393 1.429 . S
C1397 C1398 1.523 . S
C1398 C1382 1.392 . S
C1398 C1394 1.368 1_556 S
C1398 C1397 1.523 . S
H1399 C1374 0.950 . S
H1400 C1376 0.950 . S
H1401 C1377 0.976 . S
H1402 C1379 0.950 . S
H1403 C1381 0.950 . S
C1404 C1405 1.349 . S
C1404 C1406 1.327 . S
C1404 H1429 0.950 . S
C1405 C1404 1.349 . S
C1405 C1421 1.349 . S
C1406 C1404 1.327 . S
C1406 C1425 1.429 . S
C1406 H1430 0.950 . S
C1407 C1424 1.574 . S
C1407 C1426 1.368 1_556 S
C1407 H1431 0.949 . S
H1408 C1412 0.949 . S
C1409 C1410 1.349 . S
C1409 C1411 1.327 . S
C1409 H1432 0.950 . S
C1410 C1409 1.349 . S
C1410 C1422 1.349 . S
C1411 C1409 1.327 . S
C1411 C1427 1.429 . S
C1411 H1433 0.950 . S
C1412 H1408 0.949 . S
C1412 C1420 1.574 . S
C1412 C1428 1.368 1_554 S
H1413 C1421 0.950 . S
H1414 C1419 0.950 1_556 S
H1415 C1420 0.949 . S
H1416 C1422 0.950 . S
H1417 C1423 0.950 1_554 S
H1418 C1424 0.949 . S
C1419 H1414 0.950 1_554 S
C1419 C1421 1.327 . S
C1419 C1425 1.429 . S
C1420 C1412 1.574 . S
C1420 H1415 0.949 . S
C1420 C1426 1.368 . S
C1421 C1405 1.349 . S
C1421 H1413 0.950 . S
C1421 C1419 1.327 . S
C1422 C1410 1.349 . S
C1422 H1416 0.950 . S
C1422 C1423 1.327 . S
C1423 H1417 0.950 1_556 S
C1423 C1422 1.327 . S
C1423 C1427 1.429 . S
C1424 C1407 1.574 . S
C1424 H1418 0.949 . S
C1424 C1428 1.368 . S
C1425 C1406 1.429 . S
C1425 C1419 1.429 . S
C1425 C1426 1.523 . S
C1426 C1407 1.368 1_554 S
C1426 C1420 1.368 . S
C1426 C1425 1.523 . S
C1427 C1411 1.429 . S
C1427 C1423 1.429 . S
C1427 C1428 1.523 . S
C1428 C1412 1.368 1_556 S
C1428 C1424 1.368 . S
C1428 C1427 1.523 . S
H1429 C1404 0.950 . S
H1430 C1406 0.950 . S
H1431 C1407 0.949 . S
H1432 C1409 0.950 . S
H1433 C1411 0.950 . S
C1434 C1435 1.349 . S
C1434 C1436 1.327 1_554 S
C1434 H1459 0.950 1_554 S
C1435 C1434 1.349 . S
C1435 C1451 1.349 . S
C1436 C1434 1.327 1_556 S
C1436 C1455 1.429 1_556 S
C1436 H1460 0.950 . S
C1437 C1454 1.574 1_565 S
C1437 C1456 1.368 . S
C1437 H1461 0.949 . S
H1438 C1442 0.949 . S
C1439 C1440 1.349 . S
C1439 C1441 1.327 1_556 S
C1439 H1462 0.950 1_556 S
C1440 C1439 1.349 . S
C1440 C1452 1.349 . S
C1441 C1439 1.327 1_554 S
C1441 C1457 1.429 1_554 S
C1441 H1463 0.950 . S
C1442 H1438 0.949 . S
C1442 C1450 1.574 1_545 S
C1442 C1458 1.368 . S
H1443 C1451 0.950 . S
H1444 C1449 0.950 . S
H1445 C1450 0.949 . S
H1446 C1452 0.950 . S
H1447 C1453 0.950 . S
H1448 C1454 0.949 . S
C1449 H1444 0.950 . S
C1449 C1451 1.327 . S
C1449 C1455 1.429 . S
C1450 C1442 1.574 1_565 S
C1450 H1445 0.949 . S
C1450 C1456 1.368 1_556 S
C1451 C1435 1.349 . S
C1451 H1443 0.950 . S
C1451 C1449 1.327 . S
C1452 C1440 1.349 . S
C1452 H1446 0.950 . S
C1452 C1453 1.327 . S
C1453 H1447 0.950 . S
C1453 C1452 1.327 . S
C1453 C1457 1.429 . S
C1454 C1437 1.574 1_545 S
C1454 H1448 0.949 . S
C1454 C1458 1.368 1_554 S
C1455 C1436 1.429 1_554 S
C1455 C1449 1.429 . S
C1455 C1456 1.523 . S
C1456 C1437 1.368 . S
C1456 C1450 1.368 1_554 S
C1456 C1455 1.523 . S
C1457 C1441 1.429 1_556 S
C1457 C1453 1.429 . S
C1457 C1458 1.523 . S
C1458 C1442 1.368 . S
C1458 C1454 1.368 1_556 S
C1458 C1457 1.523 . S
H1459 C1434 0.950 1_556 S
H1460 C1436 0.950 . S
H1461 C1437 0.949 . S
H1462 C1439 0.950 1_554 S
H1463 C1441 0.950 . S
C1464 C1465 1.349 . S
C1464 C1466 1.327 1_556 S
C1464 H1489 0.950 1_556 S
C1465 C1464 1.349 . S
C1465 C1481 1.349 . S
C1466 C1464 1.327 1_554 S
C1466 C1485 1.429 1_554 S
C1466 H1490 0.949 . S
C1467 C1484 1.574 1_655 S
C1467 C1486 1.368 . S
C1467 H1491 0.949 . S
H1468 C1472 0.949 . S
C1469 C1470 1.349 . S
C1469 C1471 1.327 1_554 S
C1469 H1492 0.950 1_554 S
C1470 C1469 1.349 . S
C1470 C1482 1.349 . S
C1471 C1469 1.327 1_556 S
C1471 C1487 1.429 1_556 S
C1471 H1493 0.949 . S
C1472 H1468 0.949 . S
C1472 C1480 1.574 1_455 S
C1472 C1488 1.368 . S
H1473 C1481 0.950 . S
H1474 C1479 0.950 . S
H1475 C1480 0.949 . S
H1476 C1482 0.950 . S
H1477 C1483 0.950 . S
H1478 C1484 0.949 . S
C1479 H1474 0.950 . S
C1479 C1481 1.327 . S
C1479 C1485 1.429 . S
C1480 C1472 1.574 1_655 S
C1480 H1475 0.949 . S
C1480 C1486 1.368 1_554 S
C1481 C1465 1.349 . S
C1481 H1473 0.950 . S
C1481 C1479 1.327 . S
C1482 C1470 1.349 . S
C1482 H1476 0.950 . S
C1482 C1483 1.327 . S
C1483 H1477 0.950 . S
C1483 C1482 1.327 . S
C1483 C1487 1.429 . S
C1484 C1467 1.574 1_455 S
C1484 H1478 0.949 . S
C1484 C1488 1.368 1_556 S
C1485 C1466 1.429 1_556 S
C1485 C1479 1.429 . S
C1485 C1486 1.523 . S
C1486 C1467 1.368 . S
C1486 C1480 1.368 1_556 S
C1486 C1485 1.523 . S
C1487 C1471 1.429 1_554 S
C1487 C1483 1.429 . S
C1487 C1488 1.523 . S
C1488 C1472 1.368 . S
C1488 C1484 1.368 1_554 S
C1488 C1487 1.523 . S
H1489 C1464 0.950 1_554 S
H1490 C1466 0.949 . S
H1491 C1467 0.949 . S
H1492 C1469 0.950 1_556 S
H1493 C1471 0.949 . S
C1494 C1495 1.349 . S
C1494 C1496 1.327 . S
C1494 H1519 0.950 . S
C1495 C1494 1.349 . S
C1495 C1511 1.349 . S
C1496 C1494 1.327 . S
C1496 C1515 1.429 . S
C1496 H1520 0.950 . S
C1497 C1514 1.574 . S
C1497 C1516 1.368 1_554 S
C1497 H1521 0.949 . S
H1498 C1502 0.949 . S
C1499 C1500 1.349 . S
C1499 C1501 1.327 . S
C1499 H1522 0.950 . S
C1500 C1499 1.349 . S
C1500 C1512 1.349 . S
C1501 C1499 1.327 . S
C1501 C1517 1.429 . S
C1501 H1523 0.950 . S
C1502 H1498 0.949 . S
C1502 C1510 1.574 . S
C1502 C1518 1.368 1_556 S
H1503 C1511 0.950 1_554 S
H1504 C1509 0.950 . S
H1505 C1510 0.949 . S
H1506 C1512 0.950 1_556 S
H1507 C1513 0.950 . S
H1508 C1514 0.949 . S
C1509 H1504 0.950 . S
C1509 C1511 1.327 1_554 S
C1509 C1515 1.429 1_554 S
C1510 C1502 1.574 . S
C1510 H1505 0.949 . S
C1510 C1516 1.368 . S
C1511 C1495 1.349 . S
C1511 H1503 0.950 1_556 S
C1511 C1509 1.327 1_556 S
C1512 C1500 1.349 . S
C1512 H1506 0.950 1_554 S
C1512 C1513 1.327 1_554 S
C1513 H1507 0.950 . S
C1513 C1512 1.327 1_556 S
C1513 C1517 1.429 1_556 S
C1514 C1497 1.574 . S
C1514 H1508 0.949 . S
C1514 C1518 1.368 . S
C1515 C1496 1.429 . S
C1515 C1509 1.429 1_556 S
C1515 C1516 1.523 . S
C1516 C1497 1.368 1_556 S
C1516 C1510 1.368 . S
C1516 C1515 1.523 . S
C1517 C1501 1.429 . S
C1517 C1513 1.429 1_554 S
C1517 C1518 1.523 . S
C1518 C1502 1.368 1_554 S
C1518 C1514 1.368 . S
C1518 C1517 1.523 . S
H1519 C1494 0.950 . S
H1520 C1496 0.950 . S
H1521 C1497 0.949 . S
H1522 C1499 0.950 . S
H1523 C1501 0.950 . S
C1524 C1525 1.349 . S
C1524 C1526 1.327 . S
C1524 H1549 0.950 . S
C1525 C1524 1.349 . S
C1525 C1541 1.349 . S
C1526 C1524 1.327 . S
C1526 C1545 1.429 . S
C1526 H1550 0.950 . S
C1527 C1544 1.574 1_545 S
C1527 C1546 1.368 1_554 S
C1527 H1551 0.949 . S
H1528 C1532 0.949 . S
C1529 C1530 1.349 . S
C1529 C1531 1.327 . S
C1529 H1552 0.950 . S
C1530 C1529 1.349 . S
C1530 C1542 1.349 . S
C1531 C1529 1.327 . S
C1531 C1547 1.429 . S
C1531 H1553 0.950 . S
C1532 H1528 0.949 . S
C1532 C1540 1.574 1_565 S
C1532 C1548 1.368 1_556 S
H1533 C1541 0.950 1_554 S
H1534 C1539 0.950 . S
H1535 C1540 0.949 . S
H1536 C1542 0.950 1_556 S
H1537 C1543 0.950 . S
H1538 C1544 0.949 . S
C1539 H1534 0.950 . S
C1539 C1541 1.327 1_554 S
C1539 C1545 1.429 1_554 S
C1540 C1532 1.574 1_545 S
C1540 H1535 0.949 . S
C1540 C1546 1.368 . S
C1541 C1525 1.349 . S
C1541 H1533 0.950 1_556 S
C1541 C1539 1.327 1_556 S
C1542 C1530 1.349 . S
C1542 H1536 0.950 1_554 S
C1542 C1543 1.327 1_554 S
C1543 H1537 0.950 . S
C1543 C1542 1.327 1_556 S
C1543 C1547 1.429 1_556 S
C1544 C1527 1.574 1_565 S
C1544 H1538 0.949 . S
C1544 C1548 1.368 . S
C1545 C1526 1.429 . S
C1545 C1539 1.429 1_556 S
C1545 C1546 1.523 . S
C1546 C1527 1.368 1_556 S
C1546 C1540 1.368 . S
C1546 C1545 1.523 . S
C1547 C1531 1.429 . S
C1547 C1543 1.429 1_554 S
C1547 C1548 1.523 . S
C1548 C1532 1.368 1_554 S
C1548 C1544 1.368 . S
C1548 C1547 1.523 . S
H1549 C1524 0.950 . S
H1550 C1526 0.950 . S
H1551 C1527 0.949 . S
H1552 C1529 0.950 . S
H1553 C1531 0.950 . S
C1554 C1555 1.349 . S
C1554 C1556 1.327 . S
C1554 H1579 0.950 . S
C1555 C1554 1.349 . S
C1555 C1571 1.349 . S
C1556 C1554 1.327 . S
C1556 C1575 1.429 . S
C1556 H1580 0.950 . S
C1557 C1574 1.573 1_656 S
C1557 C1576 1.368 . S
C1557 H1581 0.949 . S
H1558 C1562 0.949 . S
C1559 C1560 1.349 . S
C1559 C1561 1.327 . S
C1559 H1582 0.950 . S
C1560 C1559 1.349 . S
C1560 C1572 1.349 . S
C1561 C1559 1.327 . S
C1561 C1577 1.429 . S
C1561 H1583 0.950 . S
C1562 H1558 0.949 . S
C1562 C1570 1.573 1_454 S
C1562 C1578 1.368 . S
H1563 C1571 0.950 . S
H1564 C1569 0.950 . S
H1565 C1570 0.949 . S
H1566 C1572 0.950 . S
H1567 C1573 0.950 . S
H1568 C1574 0.949 . S
C1569 H1564 0.950 . S
C1569 C1571 1.327 . S
C1569 C1575 1.429 . S
C1570 C1562 1.573 1_656 S
C1570 H1565 0.949 . S
C1570 C1576 1.369 . S
C1571 C1555 1.349 . S
C1571 H1563 0.950 . S
C1571 C1569 1.327 . S
C1572 C1560 1.349 . S
C1572 H1566 0.950 . S
C1572 C1573 1.327 . S
C1573 H1567 0.950 . S
C1573 C1572 1.327 . S
C1573 C1577 1.429 . S
C1574 C1557 1.573 1_454 S
C1574 H1568 0.949 . S
C1574 C1578 1.369 . S
C1575 C1556 1.429 . S
C1575 C1569 1.429 . S
C1575 C1576 1.523 . S
C1576 C1557 1.368 . S
C1576 C1570 1.369 . S
C1576 C1575 1.523 . S
C1577 C1561 1.429 . S
C1577 C1573 1.429 . S
C1577 C1578 1.523 . S
C1578 C1562 1.368 . S
C1578 C1574 1.369 . S
C1578 C1577 1.523 . S
H1579 C1554 0.950 . S
H1580 C1556 0.950 . S
H1581 C1557 0.949 . S
H1582 C1559 0.950 . S
H1583 C1561 0.950 . S
C1584 C1585 1.349 . S
C1584 C1586 1.327 . S
C1584 H1609 0.950 . S
C1585 C1584 1.349 . S
C1585 C1601 1.349 . S
C1586 C1584 1.327 . S
C1586 C1605 1.429 . S
C1586 H1610 0.950 . S
C1587 C1604 1.574 . S
C1587 C1606 1.368 . S
C1587 H1611 0.949 . S
H1588 C1592 0.949 . S
C1589 C1590 1.349 . S
C1589 C1591 1.327 . S
C1589 H1612 0.950 . S
C1590 C1589 1.349 . S
C1590 C1602 1.349 . S
C1591 C1589 1.327 . S
C1591 C1607 1.429 . S
C1591 H1613 0.950 . S
C1592 H1588 0.949 . S
C1592 C1600 1.574 . S
C1592 C1608 1.368 . S
H1593 C1601 0.950 . S
H1594 C1599 0.950 . S
H1595 C1600 0.949 . S
H1596 C1602 0.950 . S
H1597 C1603 0.950 . S
H1598 C1604 0.949 . S
C1599 H1594 0.950 . S
C1599 C1601 1.327 . S
C1599 C1605 1.429 . S
C1600 C1592 1.574 . S
C1600 H1595 0.949 . S
C1600 C1606 1.368 . S
C1601 C1585 1.349 . S
C1601 H1593 0.950 . S
C1601 C1599 1.327 . S
C1602 C1590 1.349 . S
C1602 H1596 0.950 . S
C1602 C1603 1.327 . S
C1603 H1597 0.950 . S
C1603 C1602 1.327 . S
C1603 C1607 1.429 . S
C1604 C1587 1.574 . S
C1604 H1598 0.949 . S
C1604 C1608 1.368 . S
C1605 C1586 1.429 . S
C1605 C1599 1.429 . S
C1605 C1606 1.523 . S
C1606 C1587 1.368 . S
C1606 C1600 1.368 . S
C1606 C1605 1.523 . S
C1607 C1591 1.429 . S
C1607 C1603 1.429 . S
C1607 C1608 1.523 . S
C1608 C1592 1.368 . S
C1608 C1604 1.368 . S
C1608 C1607 1.523 . S
H1609 C1584 0.950 . S
H1610 C1586 0.950 . S
H1611 C1587 0.949 . S
H1612 C1589 0.950 . S
H1613 C1591 0.950 . S
C1614 C1615 1.349 . S
C1614 C1616 1.327 . S
C1614 H1639 0.950 . S
C1615 C1614 1.349 . S
C1615 C1631 1.349 . S
C1616 C1614 1.327 . S
C1616 C1635 1.429 . S
C1616 H1640 0.950 . S
C1617 C1634 1.574 . S
C1617 C1636 1.368 . S
C1617 H1641 0.949 . S
H1618 C1622 0.949 . S
C1619 C1620 1.349 . S
C1619 C1621 1.327 . S
C1619 H1642 0.950 . S
C1620 C1619 1.349 . S
C1620 C1632 1.349 . S
C1621 C1619 1.327 . S
C1621 C1637 1.429 . S
C1621 H1643 0.950 . S
C1622 H1618 0.949 . S
C1622 C1630 1.574 . S
C1622 C1638 1.368 . S
H1623 C1631 0.950 . S
H1624 C1629 0.950 . S
H1625 C1630 0.949 . S
H1626 C1632 0.950 . S
H1627 C1633 0.950 . S
H1628 C1634 0.949 . S
C1629 H1624 0.950 . S
C1629 C1631 1.327 . S
C1629 C1635 1.429 . S
C1630 C1622 1.574 . S
C1630 H1625 0.949 . S
C1630 C1636 1.368 . S
C1631 C1615 1.349 . S
C1631 H1623 0.950 . S
C1631 C1629 1.327 . S
C1632 C1620 1.349 . S
C1632 H1626 0.950 . S
C1632 C1633 1.327 . S
C1633 H1627 0.950 . S
C1633 C1632 1.327 . S
C1633 C1637 1.429 . S
C1634 C1617 1.574 . S
C1634 H1628 0.949 . S
C1634 C1638 1.368 . S
C1635 C1616 1.429 . S
C1635 C1629 1.429 . S
C1635 C1636 1.523 . S
C1636 C1617 1.368 . S
C1636 C1630 1.368 . S
C1636 C1635 1.523 . S
C1637 C1621 1.429 . S
C1637 C1633 1.429 . S
C1637 C1638 1.523 . S
C1638 C1622 1.368 . S
C1638 C1634 1.368 . S
C1638 C1637 1.523 . S
H1639 C1614 0.950 . S
H1640 C1616 0.950 . S
H1641 C1617 0.949 . S
H1642 C1619 0.950 . S
H1643 C1621 0.950 . S
C1644 C1645 1.349 . S
C1644 C1646 1.327 . S
C1644 H1669 0.950 . S
C1645 C1644 1.349 . S
C1645 C1661 1.349 . S
C1646 C1644 1.327 . S
C1646 C1665 1.429 . S
C1646 H1670 0.950 . S
C1647 C1664 1.574 . S
C1647 C1666 1.368 . S
C1647 H1671 0.949 . S
H1648 C1652 0.949 . S
C1649 C1650 1.349 . S
C1649 C1651 1.327 . S
C1649 H1672 0.950 . S
C1650 C1649 1.349 . S
C1650 C1662 1.349 . S
C1651 C1649 1.327 . S
C1651 C1667 1.429 . S
C1651 H1673 0.950 . S
C1652 H1648 0.949 . S
C1652 C1660 1.574 . S
C1652 C1668 1.368 . S
H1653 C1661 0.950 . S
H1654 C1659 0.950 . S
H1655 C1660 0.949 . S
H1656 C1662 0.950 . S
H1657 C1663 0.950 . S
H1658 C1664 0.949 . S
C1659 H1654 0.950 . S
C1659 C1661 1.327 . S
C1659 C1665 1.429 . S
C1660 C1652 1.574 . S
C1660 H1655 0.949 . S
C1660 C1666 1.368 . S
C1661 C1645 1.349 . S
C1661 H1653 0.950 . S
C1661 C1659 1.327 . S
C1662 C1650 1.349 . S
C1662 H1656 0.950 . S
C1662 C1663 1.327 . S
C1663 H1657 0.950 . S
C1663 C1662 1.327 . S
C1663 C1667 1.429 . S
C1664 C1647 1.574 . S
C1664 H1658 0.949 . S
C1664 C1668 1.368 . S
C1665 C1646 1.429 . S
C1665 C1659 1.429 . S
C1665 C1666 1.523 . S
C1666 C1647 1.368 . S
C1666 C1660 1.368 . S
C1666 C1665 1.523 . S
C1667 C1651 1.429 . S
C1667 C1663 1.429 . S
C1667 C1668 1.523 . S
C1668 C1652 1.368 . S
C1668 C1664 1.368 . S
C1668 C1667 1.523 . S
H1669 C1644 0.950 . S
H1670 C1646 0.950 . S
H1671 C1647 0.949 . S
H1672 C1649 0.950 . S
H1673 C1651 0.950 . S
C1674 C1675 1.349 . S
C1674 C1676 1.327 . S
C1674 H1699 0.950 . S
C1675 C1674 1.349 . S
C1675 C1691 1.349 . S
C1676 C1674 1.327 . S
C1676 C1695 1.429 . S
C1676 H1700 0.950 . S
C1677 C1694 1.574 . S
C1677 C1696 1.368 . S
C1677 H1701 0.949 . S
H1678 C1682 0.949 . S
C1679 C1680 1.349 . S
C1679 C1681 1.327 . S
C1679 H1702 0.950 . S
C1680 C1679 1.349 . S
C1680 C1692 1.349 . S
C1681 C1679 1.327 . S
C1681 C1697 1.429 . S
C1681 H1703 0.950 . S
C1682 H1678 0.949 . S
C1682 C1690 1.574 . S
C1682 C1698 1.368 . S
H1683 C1691 0.950 . S
H1684 C1689 0.950 . S
H1685 C1690 0.949 . S
H1686 C1692 0.950 . S
H1687 C1693 0.950 . S
H1688 C1694 0.949 . S
C1689 H1684 0.950 . S
C1689 C1691 1.327 . S
C1689 C1695 1.429 . S
C1690 C1682 1.574 . S
C1690 H1685 0.949 . S
C1690 C1696 1.368 . S
C1691 C1675 1.349 . S
C1691 H1683 0.950 . S
C1691 C1689 1.327 . S
C1692 C1680 1.349 . S
C1692 H1686 0.950 . S
C1692 C1693 1.327 . S
C1693 H1687 0.950 . S
C1693 C1692 1.327 . S
C1693 C1697 1.429 . S
C1694 C1677 1.574 . S
C1694 H1688 0.949 . S
C1694 C1698 1.368 . S
C1695 C1676 1.429 . S
C1695 C1689 1.429 . S
C1695 C1696 1.523 . S
C1696 C1677 1.368 . S
C1696 C1690 1.368 . S
C1696 C1695 1.523 . S
C1697 C1681 1.429 . S
C1697 C1693 1.429 . S
C1697 C1698 1.523 . S
C1698 C1682 1.368 . S
C1698 C1694 1.368 . S
C1698 C1697 1.523 . S
H1699 C1674 0.950 . S
H1700 C1676 0.950 . S
H1701 C1677 0.949 . S
H1702 C1679 0.950 . S
H1703 C1681 0.950 . S
C1704 C1705 1.349 . S
C1704 C1706 1.327 . S
C1704 H1729 0.950 . S
C1705 C1704 1.349 . S
C1705 C1721 1.349 . S
C1706 C1704 1.327 . S
C1706 C1725 1.429 . S
C1706 H1730 0.950 . S
C1707 C1724 1.574 . S
C1707 C1726 1.368 . S
C1707 H1731 0.949 . S
H1708 C1712 0.949 . S
C1709 C1710 1.349 . S
C1709 C1711 1.327 . S
C1709 H1732 0.950 . S
C1710 C1709 1.349 . S
C1710 C1722 1.349 . S
C1711 C1709 1.327 . S
C1711 C1727 1.429 . S
C1711 H1733 0.950 . S
C1712 H1708 0.949 . S
C1712 C1720 1.574 . S
C1712 C1728 1.368 . S
H1713 C1721 0.950 . S
H1714 C1719 0.950 . S
H1715 C1720 0.949 . S
H1716 C1722 0.950 . S
H1717 C1723 0.950 . S
H1718 C1724 0.949 . S
C1719 H1714 0.950 . S
C1719 C1721 1.327 . S
C1719 C1725 1.429 . S
C1720 C1712 1.574 . S
C1720 H1715 0.949 . S
C1720 C1726 1.368 . S
C1721 C1705 1.349 . S
C1721 H1713 0.950 . S
C1721 C1719 1.327 . S
C1722 C1710 1.349 . S
C1722 H1716 0.950 . S
C1722 C1723 1.327 . S
C1723 H1717 0.950 . S
C1723 C1722 1.327 . S
C1723 C1727 1.429 . S
C1724 C1707 1.574 . S
C1724 H1718 0.949 . S
C1724 C1728 1.368 . S
C1725 C1706 1.429 . S
C1725 C1719 1.429 . S
C1725 C1726 1.523 . S
C1726 C1707 1.368 . S
C1726 C1720 1.368 . S
C1726 C1725 1.523 . S
C1727 C1711 1.429 . S
C1727 C1723 1.429 . S
C1727 C1728 1.523 . S
C1728 C1712 1.368 . S
C1728 C1724 1.368 . S
C1728 C1727 1.523 . S
H1729 C1704 0.950 . S
H1730 C1706 0.950 . S
H1731 C1707 0.949 . S
H1732 C1709 0.950 . S
H1733 C1711 0.950 . S
C1734 C1735 1.349 . S
C1734 C1736 1.327 . S
C1734 H1759 0.950 . S
C1735 C1734 1.349 . S
C1735 C1751 1.349 . S
C1736 C1734 1.327 . S
C1736 C1755 1.429 . S
C1736 H1760 0.950 . S
C1737 C1754 1.574 . S
C1737 C1756 1.368 . S
C1737 H1761 0.949 . S
H1738 C1742 0.949 . S
C1739 C1740 1.349 . S
C1739 C1741 1.327 . S
C1739 H1762 0.950 . S
C1740 C1739 1.349 . S
C1740 C1752 1.349 . S
C1741 C1739 1.327 . S
C1741 C1757 1.429 . S
C1741 H1763 0.950 . S
C1742 H1738 0.949 . S
C1742 C1750 1.574 . S
C1742 C1758 1.368 . S
H1743 C1751 0.950 . S
H1744 C1749 0.950 . S
H1745 C1750 0.949 . S
H1746 C1752 0.950 . S
H1747 C1753 0.950 . S
H1748 C1754 0.949 . S
C1749 H1744 0.950 . S
C1749 C1751 1.327 . S
C1749 C1755 1.429 . S
C1750 C1742 1.574 . S
C1750 H1745 0.949 . S
C1750 C1756 1.368 . S
C1751 C1735 1.349 . S
C1751 H1743 0.950 . S
C1751 C1749 1.327 . S
C1752 C1740 1.349 . S
C1752 H1746 0.950 . S
C1752 C1753 1.327 . S
C1753 H1747 0.950 . S
C1753 C1752 1.327 . S
C1753 C1757 1.429 . S
C1754 C1737 1.574 . S
C1754 H1748 0.949 . S
C1754 C1758 1.368 . S
C1755 C1736 1.429 . S
C1755 C1749 1.429 . S
C1755 C1756 1.523 . S
C1756 C1737 1.368 . S
C1756 C1750 1.368 . S
C1756 C1755 1.523 . S
C1757 C1741 1.429 . S
C1757 C1753 1.429 . S
C1757 C1758 1.523 . S
C1758 C1742 1.368 . S
C1758 C1754 1.368 . S
C1758 C1757 1.523 . S
H1759 C1734 0.950 . S
H1760 C1736 0.950 . S
H1761 C1737 0.949 . S
H1762 C1739 0.950 . S
H1763 C1741 0.950 . S
C1764 C1765 1.349 . S
C1764 C1766 1.327 . S
C1764 H1789 0.950 . S
C1765 C1764 1.349 . S
C1765 C1781 1.349 . S
C1766 C1764 1.327 . S
C1766 C1785 1.429 . S
C1766 H1790 0.950 . S
C1767 C1784 1.574 . S
C1767 C1786 1.368 . S
C1767 H1791 0.949 . S
H1768 C1772 0.949 . S
C1769 C1770 1.349 . S
C1769 C1771 1.327 . S
C1769 H1792 0.950 . S
C1770 C1769 1.349 . S
C1770 C1782 1.349 . S
C1771 C1769 1.327 . S
C1771 C1787 1.429 . S
C1771 H1793 0.950 . S
C1772 H1768 0.949 . S
C1772 C1780 1.574 . S
C1772 C1788 1.368 . S
H1773 C1781 0.950 . S
H1774 C1779 0.950 . S
H1775 C1780 0.949 . S
H1776 C1782 0.950 . S
H1777 C1783 0.950 . S
H1778 C1784 0.949 . S
C1779 H1774 0.950 . S
C1779 C1781 1.327 . S
C1779 C1785 1.429 . S
C1780 C1772 1.574 . S
C1780 H1775 0.949 . S
C1780 C1786 1.368 . S
C1781 C1765 1.349 . S
C1781 H1773 0.950 . S
C1781 C1779 1.327 . S
C1782 C1770 1.349 . S
C1782 H1776 0.950 . S
C1782 C1783 1.327 . S
C1783 H1777 0.950 . S
C1783 C1782 1.327 . S
C1783 C1787 1.429 . S
C1784 C1767 1.574 . S
C1784 H1778 0.949 . S
C1784 C1788 1.368 . S
C1785 C1766 1.429 . S
C1785 C1779 1.429 . S
C1785 C1786 1.523 . S
C1786 C1767 1.368 . S
C1786 C1780 1.368 . S
C1786 C1785 1.523 . S
C1787 C1771 1.429 . S
C1787 C1783 1.429 . S
C1787 C1788 1.523 . S
C1788 C1772 1.368 . S
C1788 C1784 1.368 . S
C1788 C1787 1.523 . S
H1789 C1764 0.950 . S
H1790 C1766 0.950 . S
H1791 C1767 0.949 . S
H1792 C1769 0.950 . S
H1793 C1771 0.950 . S
C1794 C1795 1.349 . S
C1794 C1796 1.327 . S
C1794 H1819 0.950 . S
C1795 C1794 1.349 . S
C1795 C1811 1.349 . S
C1796 C1794 1.327 . S
C1796 C1815 1.429 . S
C1796 H1820 0.950 . S
C1797 C1814 1.574 . S
C1797 C1816 1.368 . S
C1797 H1821 0.949 . S
H1798 C1802 0.949 . S
C1799 C1800 1.349 . S
C1799 C1801 1.327 . S
C1799 H1822 0.950 . S
C1800 C1799 1.349 . S
C1800 C1812 1.349 . S
C1801 C1799 1.327 . S
C1801 C1817 1.429 . S
C1801 H1823 0.950 . S
C1802 H1798 0.949 . S
C1802 C1810 1.574 . S
C1802 C1818 1.368 . S
H1803 C1811 0.950 . S
H1804 C1809 0.950 . S
H1805 C1810 0.949 . S
H1806 C1812 0.950 . S
H1807 C1813 0.950 . S
H1808 C1814 0.949 . S
C1809 H1804 0.950 . S
C1809 C1811 1.327 . S
C1809 C1815 1.429 . S
C1810 C1802 1.574 . S
C1810 H1805 0.949 . S
C1810 C1816 1.368 . S
C1811 C1795 1.349 . S
C1811 H1803 0.950 . S
C1811 C1809 1.327 . S
C1812 C1800 1.349 . S
C1812 H1806 0.950 . S
C1812 C1813 1.327 . S
C1813 H1807 0.950 . S
C1813 C1812 1.327 . S
C1813 C1817 1.429 . S
C1814 C1797 1.574 . S
C1814 H1808 0.949 . S
C1814 C1818 1.368 . S
C1815 C1796 1.429 . S
C1815 C1809 1.429 . S
C1815 C1816 1.523 . S
C1816 C1797 1.368 . S
C1816 C1810 1.368 . S
C1816 C1815 1.523 . S
C1817 C1801 1.429 . S
C1817 C1813 1.429 . S
C1817 C1818 1.523 . S
C1818 C1802 1.368 . S
C1818 C1814 1.368 . S
C1818 C1817 1.523 . S
H1819 C1794 0.950 . S
H1820 C1796 0.950 . S
H1821 C1797 0.949 . S
H1822 C1799 0.950 . S
H1823 C1801 0.950 . S
C1824 C1825 1.349 . S
C1824 C1826 1.327 . S
C1824 H1849 0.950 . S
C1825 C1824 1.349 . S
C1825 C1841 1.349 . S
C1826 C1824 1.327 . S
C1826 C1845 1.429 . S
C1826 H1850 0.950 . S
C1827 C1844 1.574 . S
C1827 C1846 1.368 . S
C1827 H1851 0.949 . S
H1828 C1832 0.949 . S
C1829 C1830 1.349 . S
C1829 C1831 1.327 . S
C1829 H1852 0.950 . S
C1830 C1829 1.349 . S
C1830 C1842 1.349 . S
C1831 C1829 1.327 . S
C1831 C1847 1.429 . S
C1831 H1853 0.950 . S
C1832 H1828 0.949 . S
C1832 C1840 1.574 . S
C1832 C1848 1.368 . S
H1833 C1841 0.950 . S
H1834 C1839 0.950 . S
H1835 C1840 0.949 . S
H1836 C1842 0.950 . S
H1837 C1843 0.950 . S
H1838 C1844 0.949 . S
C1839 H1834 0.950 . S
C1839 C1841 1.327 . S
C1839 C1845 1.429 . S
C1840 C1832 1.574 . S
C1840 H1835 0.949 . S
C1840 C1846 1.368 . S
C1841 C1825 1.349 . S
C1841 H1833 0.950 . S
C1841 C1839 1.327 . S
C1842 C1830 1.349 . S
C1842 H1836 0.950 . S
C1842 C1843 1.327 . S
C1843 H1837 0.950 . S
C1843 C1842 1.327 . S
C1843 C1847 1.429 . S
C1844 C1827 1.574 . S
C1844 H1838 0.949 . S
C1844 C1848 1.368 . S
C1845 C1826 1.429 . S
C1845 C1839 1.429 . S
C1845 C1846 1.523 . S
C1846 C1827 1.368 . S
C1846 C1840 1.368 . S
C1846 C1845 1.523 . S
C1847 C1831 1.429 . S
C1847 C1843 1.429 . S
C1847 C1848 1.523 . S
C1848 C1832 1.368 . S
C1848 C1844 1.368 . S
C1848 C1847 1.523 . S
H1849 C1824 0.950 . S
H1850 C1826 0.950 . S
H1851 C1827 0.949 . S
H1852 C1829 0.950 . S
H1853 C1831 0.950 . S
C1854 C1855 1.349 . S
C1854 C1856 1.327 . S
C1854 H1879 0.950 . S
C1855 C1854 1.349 . S
C1855 C1871 1.349 . S
C1856 C1854 1.327 . S
C1856 C1875 1.429 . S
C1856 H1880 0.950 . S
C1857 C1874 1.574 . S
C1857 C1876 1.368 . S
C1857 H1881 0.949 . S
H1858 C1862 0.949 . S
C1859 C1860 1.349 . S
C1859 C1861 1.327 . S
C1859 H1882 0.950 . S
C1860 C1859 1.349 . S
C1860 C1872 1.349 . S
C1861 C1859 1.327 . S
C1861 C1877 1.429 . S
C1861 H1883 0.950 . S
C1862 H1858 0.949 . S
C1862 C1870 1.574 . S
C1862 C1878 1.368 . S
H1863 C1871 0.950 . S
H1864 C1869 0.950 . S
H1865 C1870 0.949 . S
H1866 C1872 0.950 . S
H1867 C1873 0.950 . S
H1868 C1874 0.949 . S
C1869 H1864 0.950 . S
C1869 C1871 1.327 . S
C1869 C1875 1.429 . S
C1870 C1862 1.574 . S
C1870 H1865 0.949 . S
C1870 C1876 1.368 . S
C1871 C1855 1.349 . S
C1871 H1863 0.950 . S
C1871 C1869 1.327 . S
C1872 C1860 1.349 . S
C1872 H1866 0.950 . S
C1872 C1873 1.327 . S
C1873 H1867 0.950 . S
C1873 C1872 1.327 . S
C1873 C1877 1.429 . S
C1874 C1857 1.574 . S
C1874 H1868 0.949 . S
C1874 C1878 1.368 . S
C1875 C1856 1.429 . S
C1875 C1869 1.429 . S
C1875 C1876 1.523 . S
C1876 C1857 1.368 . S
C1876 C1870 1.368 . S
C1876 C1875 1.523 . S
C1877 C1861 1.429 . S
C1877 C1873 1.429 . S
C1877 C1878 1.523 . S
C1878 C1862 1.368 . S
C1878 C1874 1.368 . S
C1878 C1877 1.523 . S
H1879 C1854 0.950 . S
H1880 C1856 0.950 . S
H1881 C1857 0.949 . S
H1882 C1859 0.950 . S
H1883 C1861 0.950 . S
C1884 C1885 1.349 . S
C1884 C1886 1.327 . S
C1884 H1909 0.950 . S
C1885 C1884 1.349 . S
C1885 C1901 1.349 . S
C1886 C1884 1.327 . S
C1886 C1905 1.429 . S
C1886 H1910 0.950 . S
C1887 C1904 1.574 . S
C1887 C1906 1.368 . S
C1887 H1911 0.949 . S
H1888 C1892 0.949 . S
C1889 C1890 1.349 . S
C1889 C1891 1.327 . S
C1889 H1912 0.950 . S
C1890 C1889 1.349 . S
C1890 C1902 1.349 . S
C1891 C1889 1.327 . S
C1891 C1907 1.429 . S
C1891 H1913 0.950 . S
C1892 H1888 0.949 . S
C1892 C1900 1.574 . S
C1892 C1908 1.368 . S
H1893 C1901 0.950 . S
H1894 C1899 0.950 . S
H1895 C1900 0.949 . S
H1896 C1902 0.950 . S
H1897 C1903 0.950 . S
H1898 C1904 0.949 . S
C1899 H1894 0.950 . S
C1899 C1901 1.327 . S
C1899 C1905 1.429 . S
C1900 C1892 1.574 . S
C1900 H1895 0.949 . S
C1900 C1906 1.368 . S
C1901 C1885 1.349 . S
C1901 H1893 0.950 . S
C1901 C1899 1.327 . S
C1902 C1890 1.349 . S
C1902 H1896 0.950 . S
C1902 C1903 1.327 . S
C1903 H1897 0.950 . S
C1903 C1902 1.327 . S
C1903 C1907 1.429 . S
C1904 C1887 1.574 . S
C1904 H1898 0.949 . S
C1904 C1908 1.368 . S
C1905 C1886 1.429 . S
C1905 C1899 1.429 . S
C1905 C1906 1.523 . S
C1906 C1887 1.368 . S
C1906 C1900 1.368 . S
C1906 C1905 1.523 . S
C1907 C1891 1.429 . S
C1907 C1903 1.429 . S
C1907 C1908 1.523 . S
C1908 C1892 1.368 . S
C1908 C1904 1.368 . S
C1908 C1907 1.523 . S
H1909 C1884 0.950 . S
H1910 C1886 0.950 . S
H1911 C1887 0.949 . S
H1912 C1889 0.950 . S
H1913 C1891 0.950 . S
C1914 C1915 1.349 . S
C1914 C1916 1.327 . S
C1914 H1939 0.950 . S
C1915 C1914 1.349 . S
C1915 C1931 1.349 . S
C1916 C1914 1.327 . S
C1916 C1935 1.429 . S
C1916 H1940 0.950 . S
C1917 C1934 1.574 . S
C1917 C1936 1.368 . S
C1917 H1941 0.949 . S
H1918 C1922 0.949 . S
C1919 C1920 1.349 . S
C1919 C1921 1.327 . S
C1919 H1942 0.950 . S
C1920 C1919 1.349 . S
C1920 C1932 1.349 . S
C1921 C1919 1.327 . S
C1921 C1937 1.429 . S
C1921 H1943 0.950 . S
C1922 H1918 0.949 . S
C1922 C1930 1.574 . S
C1922 C1938 1.368 . S
H1923 C1931 0.950 . S
H1924 C1929 0.950 . S
H1925 C1930 0.949 . S
H1926 C1932 0.950 . S
H1927 C1933 0.950 . S
H1928 C1934 0.949 . S
C1929 H1924 0.950 . S
C1929 C1931 1.327 . S
C1929 C1935 1.429 . S
C1930 C1922 1.574 . S
C1930 H1925 0.949 . S
C1930 C1936 1.368 . S
C1931 C1915 1.349 . S
C1931 H1923 0.950 . S
C1931 C1929 1.327 . S
C1932 C1920 1.349 . S
C1932 H1926 0.950 . S
C1932 C1933 1.327 . S
C1933 H1927 0.950 . S
C1933 C1932 1.327 . S
C1933 C1937 1.429 . S
C1934 C1917 1.574 . S
C1934 H1928 0.949 . S
C1934 C1938 1.368 . S
C1935 C1916 1.429 . S
C1935 C1929 1.429 . S
C1935 C1936 1.523 . S
C1936 C1917 1.368 . S
C1936 C1930 1.368 . S
C1936 C1935 1.523 . S
C1937 C1921 1.429 . S
C1937 C1933 1.429 . S
C1937 C1938 1.523 . S
C1938 C1922 1.368 . S
C1938 C1934 1.368 . S
C1938 C1937 1.523 . S
H1939 C1914 0.950 . S
H1940 C1916 0.950 . S
H1941 C1917 0.949 . S
H1942 C1919 0.950 . S
H1943 C1921 0.950 . S
C595 N14 0.976 . S
C600 N5 0.977 . S
C625 N47 0.976 . S
C630 N38 0.977 . S
C655 N71 0.977 . S
C660 N80 0.976 . S
C685 N113 0.976 . S
C690 N104 0.977 . S
C715 N146 0.976 . S
C720 N137 0.977 . S
C745 N170 0.977 . S
C750 N179 0.976 . S
C775 N203 0.977 . S
C780 N212 0.976 . S
C805 N236 0.977 . S
C810 N245 0.976 . S
C835 N278 0.976 . S
C840 N269 0.977 . S
C865 N311 0.976 1_556 S
C870 N302 0.977 . S
C895 N344 0.976 1_556 S
C900 N335 0.977 . S
C925 N368 0.977 . S
C930 N377 0.976 1_556 S
C955 N401 0.977 . S
C960 N410 0.976 1_554 S
C985 N434 0.977 . S
C990 N443 0.976 1_554 S
C1015 N467 0.977 . S
C1020 N476 0.976 1_554 S
C1045 N509 0.976 . S
C1050 N500 0.977 . S
C1075 N542 0.976 . S
C1080 N533 0.977 . S
C1105 N566 0.977 . S
C1110 N575 0.976 . S
C1135 C569 1.467 . S
C1140 C8 1.467 . S
C1165 C41 1.467 . S
C1170 C503 1.467 . S
C1195 C536 1.466 . S
C1200 C74 1.466 . S
C1225 C239 1.467 . S
C1230 C107 1.467 . S
C1255 C140 1.466 . S
C1260 C272 1.466 . S
C1285 C173 1.467 . S
C1290 C206 1.467 . S
C1315 C305 1.467 . S
C1320 C437 1.467 . S
C1345 C470 1.467 . S
C1350 C338 1.467 . S
C1375 C371 1.467 . S
C1380 C404 1.467 . S
C1405 C28 1.569 . S
C1410 C127 1.569 . S
C1435 C61 1.570 . S
C1440 C160 1.570 . S
C1465 C193 1.570 . S
C1470 C94 1.570 . S
C1495 C182 1.616 . S
C1500 C50 1.616 . S
C1525 C116 1.617 . S
C1530 C83 1.617 . S
C1555 C149 1.617 . S
C1560 C17 1.617 . S
C1585 C325 1.569 . S
C1590 C226 1.569 . S
C1615 C358 1.570 . S
C1620 C259 1.570 . S
C1645 C292 1.570 . S
C1650 C391 1.570 . S
C1675 C380 1.617 . S
C1680 C248 1.617 . S
C1705 C281 1.617 . S
C1710 C314 1.617 . S
C1735 C215 1.617 . S
C1740 C347 1.617 . S
C1765 C523 1.569 . S
C1770 C424 1.569 . S
C1795 C556 1.570 . S
C1800 C457 1.570 . S
C1825 C589 1.570 . S
C1830 C490 1.570 . S
C1855 C446 1.617 . S
C1860 C578 1.617 . S
C1885 C479 1.617 . S
C1890 C512 1.617 . S
C1915 C545 1.617 . S
C1920 C413 1.617 . S
