# Generated by pormake.
# Topology umb, (4)-cn, num edge types: 1
# Building blocks:
#     Node 0, Type 0, BuildingBlock: ICAMEG_clean_sbu_1, # of connection points: 4
#     Node 1, Type 0, BuildingBlock: ICAMEG_clean_sbu_1, # of connection points: 4
#     Node 2, Type 0, BuildingBlock: ICAMEG_clean_sbu_1, # of connection points: 4
#     Node 3, Type 0, BuildingBlock: ICAMEG_clean_sbu_1, # of connection points: 4
#     Node 4, Type 0, BuildingBlock: ICAMEG_clean_sbu_1, # of connection points: 4
#     Node 5, Type 0, BuildingBlock: ICAMEG_clean_sbu_1, # of connection points: 4
#     Node 6, Type 0, BuildingBlock: ICAMEG_clean_sbu_1, # of connection points: 4
#     Node 7, Type 0, BuildingBlock: ICAMEG_clean_sbu_1, # of connection points: 4
#     Node 8, Type 0, BuildingBlock: ICAMEG_clean_sbu_1, # of connection points: 4
#     Node 9, Type 0, BuildingBlock: ICAMEG_clean_sbu_1, # of connection points: 4
#     Node 10, Type 0, BuildingBlock: ICAMEG_clean_sbu_1, # of connection points: 4
#     Node 11, Type 0, BuildingBlock: ICAMEG_clean_sbu_1, # of connection points: 4
#     Edge 12, Type (0, 0), BuildingBlock: UVAHIK_clean_linker_0, # of connection points: 2
#     Edge 13, Type (0, 0), BuildingBlock: UVAHIK_clean_linker_0, # of connection points: 2
#     Edge 14, Type (0, 0), BuildingBlock: UVAHIK_clean_linker_0, # of connection points: 2
#     Edge 15, Type (0, 0), BuildingBlock: UVAHIK_clean_linker_0, # of connection points: 2
#     Edge 16, Type (0, 0), BuildingBlock: UVAHIK_clean_linker_0, # of connection points: 2
#     Edge 17, Type (0, 0), BuildingBlock: UVAHIK_clean_linker_0, # of connection points: 2
#     Edge 18, Type (0, 0), BuildingBlock: UVAHIK_clean_linker_0, # of connection points: 2
#     Edge 19, Type (0, 0), BuildingBlock: UVAHIK_clean_linker_0, # of connection points: 2
#     Edge 20, Type (0, 0), BuildingBlock: UVAHIK_clean_linker_0, # of connection points: 2
#     Edge 21, Type (0, 0), BuildingBlock: UVAHIK_clean_linker_0, # of connection points: 2
#     Edge 22, Type (0, 0), BuildingBlock: UVAHIK_clean_linker_0, # of connection points: 2
#     Edge 23, Type (0, 0), BuildingBlock: UVAHIK_clean_linker_0, # of connection points: 2
#     Edge 24, Type (0, 0), BuildingBlock: UVAHIK_clean_linker_0, # of connection points: 2
#     Edge 25, Type (0, 0), BuildingBlock: UVAHIK_clean_linker_0, # of connection points: 2
#     Edge 26, Type (0, 0), BuildingBlock: UVAHIK_clean_linker_0, # of connection points: 2
#     Edge 27, Type (0, 0), BuildingBlock: UVAHIK_clean_linker_0, # of connection points: 2
#     Edge 28, Type (0, 0), BuildingBlock: UVAHIK_clean_linker_0, # of connection points: 2
#     Edge 29, Type (0, 0), BuildingBlock: UVAHIK_clean_linker_0, # of connection points: 2
#     Edge 30, Type (0, 0), BuildingBlock: UVAHIK_clean_linker_0, # of connection points: 2
#     Edge 31, Type (0, 0), BuildingBlock: UVAHIK_clean_linker_0, # of connection points: 2
#     Edge 32, Type (0, 0), BuildingBlock: UVAHIK_clean_linker_0, # of connection points: 2
#     Edge 33, Type (0, 0), BuildingBlock: UVAHIK_clean_linker_0, # of connection points: 2
#     Edge 34, Type (0, 0), BuildingBlock: UVAHIK_clean_linker_0, # of connection points: 2
#     Edge 35, Type (0, 0), BuildingBlock: UVAHIK_clean_linker_0, # of connection points: 2
# Relax obj value: 0.163
# Max RMSD: 0.171
# Mean RMSD: 0.171
data_MOF--net-umb--node1-ICAMEG_clean_sbu_1--edge1-UVAHIK_clean_linker_0
_symmetry_space_group_name_H-M    P1
_symmetry_Int_Tables_number       1
_symmetry_cell_setting            triclinic
loop_
_symmetry_equiv_pos_as_xyz
'x, y, z'
_cell_length_a     64.427032
_cell_length_b     64.408562
_cell_length_c     51.89205
_cell_angle_alpha  90.01229
_cell_angle_beta   89.959147
_cell_angle_gamma 119.96177
loop_
_atom_site_label
_atom_site_type_symbol
_atom_site_fract_x
_atom_site_fract_y
_atom_site_fract_z
_atom_type_partial_charge
Co0 Co 0.51718 0.17778 0.34376 0.0
Co1 Co 0.57099 0.181 0.32837 0.0
O2 O 0.53652 0.16741 0.32451 0.0
C3 C 0.5143 0.18888 0.28934 0.0
O4 O 0.53724 0.19605 0.2888 0.0
C5 C 0.55056 0.13033 0.34247 0.0
O6 O 0.53419 0.13255 0.35524 0.0
O7 O 0.56834 0.18081 0.36656 0.0
O8 O 0.53221 0.17587 0.3771 0.0
H9 H 0.65239 0.23795 0.36438 0.0
H10 H 0.49355 0.13711 0.30721 0.0
O11 O 0.50251 0.18054 0.31027 0.0
H12 H 0.45863 0.10379 0.39228 0.0
H13 H 0.44123 0.17882 0.36344 0.0
H14 H 0.52576 0.21054 0.38776 0.0
H15 H 0.48883 0.1466 0.38756 0.0
H16 H 0.46643 0.16627 0.33989 0.0
O17 O 0.56665 0.14801 0.32983 0.0
H18 H 0.60882 0.22085 0.35889 0.0
H19 H 0.60663 0.1692 0.30639 0.0
H20 H 0.50117 0.22343 0.41196 0.0
H21 H 0.46326 0.09424 0.311 0.0
H22 H 0.45858 0.20753 0.39983 0.0
H23 H 0.44564 0.07732 0.3538 0.0
O24 O 0.54191 0.21223 0.34072 0.0
H25 H 0.54734 0.14535 0.2398 0.0
H26 H 0.60244 0.2173 0.28953 0.0
H27 H 0.60507 0.2182 0.24208 0.0
H28 H 0.57737 0.18203 0.21689 0.0
H29 H 0.54522 0.14532 0.28728 0.0
H30 H 0.65014 0.18561 0.31147 0.0
H31 H 0.67333 0.2203 0.34056 0.0
O32 O 0.57598 0.21407 0.32735 0.0
C33 C 0.55259 0.17828 0.38315 0.0
C34 C 0.6425 0.22289 0.35157 0.0
C35 C 0.64123 0.19349 0.32191 0.0
N36 N 0.60525 0.1942 0.33216 0.0
C37 C 0.61785 0.21319 0.34833 0.0
C38 C 0.61659 0.18425 0.31914 0.0
C39 C 0.65423 0.21296 0.33823 0.0
C40 C 0.48579 0.12991 0.32585 0.0
N41 N 0.49282 0.14434 0.34711 0.0
C42 C 0.46872 0.10561 0.3279 0.0
C43 C 0.45887 0.09612 0.35192 0.0
C44 C 0.46615 0.11096 0.37353 0.0
C45 C 0.48328 0.13517 0.37075 0.0
C46 C 0.45975 0.18584 0.36894 0.0
C47 C 0.5072 0.20344 0.38248 0.0
C48 C 0.47411 0.17884 0.35565 0.0
N49 N 0.49748 0.18755 0.36258 0.0
C50 C 0.49339 0.21085 0.3962 0.0
C51 C 0.4695 0.20194 0.38936 0.0
C52 C 0.56374 0.22389 0.33364 0.0
C53 C 0.55955 0.1612 0.25056 0.0
C54 C 0.59032 0.20151 0.2787 0.0
C55 C 0.59191 0.20211 0.25184 0.0
C56 C 0.57638 0.1818 0.23772 0.0
N57 N 0.57375 0.18125 0.29114 0.0
C58 C 0.55849 0.16125 0.27744 0.0
Co59 Co 0.32039 0.51032 0.69219 0.0
Co60 Co 0.38096 0.54072 0.67865 0.0
O61 O 0.34851 0.51401 0.67381 0.0
C62 C 0.30946 0.51041 0.6373 0.0
O63 O 0.33147 0.52836 0.6354 0.0
C64 C 0.38623 0.49838 0.68785 0.0
O65 O 0.36801 0.49046 0.70381 0.0
O66 O 0.37814 0.53623 0.71653 0.0
O67 O 0.33898 0.52112 0.72547 0.0
H68 H 0.44497 0.61589 0.72062 0.0
H69 H 0.31641 0.47007 0.66079 0.0
O70 O 0.3015 0.50024 0.65906 0.0
H71 H 0.2962 0.43879 0.7495 0.0
H72 H 0.23237 0.46844 0.71308 0.0
H73 H 0.31157 0.53856 0.7314 0.0
H74 H 0.30621 0.48025 0.73965 0.0
H75 H 0.26852 0.47366 0.69079 0.0
O76 O 0.39352 0.51811 0.67596 0.0
H77 H 0.40379 0.58256 0.71382 0.0
H78 H 0.42805 0.5546 0.65428 0.0
H79 H 0.27594 0.53395 0.75432 0.0
H80 H 0.30632 0.42843 0.66973 0.0
H81 H 0.23598 0.49868 0.74519 0.0
H82 H 0.29617 0.41257 0.71438 0.0
O83 O 0.32905 0.54388 0.68472 0.0
H84 H 0.37332 0.51353 0.58662 0.0
H85 H 0.39671 0.58287 0.64388 0.0
H86 H 0.39921 0.5887 0.59677 0.0
H87 H 0.38748 0.55387 0.5678 0.0
H88 H 0.37083 0.50845 0.63384 0.0
H89 H 0.46954 0.58752 0.66056 0.0
H90 H 0.47819 0.61852 0.69386 0.0
O91 O 0.36924 0.56401 0.68168 0.0
C92 C 0.36089 0.53006 0.73238 0.0
C93 C 0.44141 0.60257 0.70595 0.0
C94 C 0.4552 0.58663 0.67227 0.0
N95 N 0.41347 0.56686 0.68343 0.0
C96 C 0.41811 0.58371 0.70194 0.0
C97 C 0.43168 0.56802 0.66881 0.0
C98 C 0.46004 0.60401 0.69095 0.0
C99 C 0.31181 0.46321 0.68021 0.0
N100 N 0.31176 0.47749 0.69964 0.0
C101 C 0.3062 0.43965 0.68518 0.0
C102 C 0.30054 0.43078 0.71024 0.0
C103 C 0.30056 0.44548 0.72997 0.0
C104 C 0.3063 0.46895 0.72428 0.0
C105 C 0.24969 0.48385 0.71729 0.0
C106 C 0.29427 0.52307 0.7275 0.0
C107 C 0.27021 0.48691 0.7047 0.0
N108 N 0.29214 0.50625 0.71002 0.0
C109 C 0.27415 0.5206 0.74046 0.0
C110 C 0.25173 0.50082 0.7353 0.0
C111 C 0.34909 0.56319 0.68278 0.0
C112 C 0.37855 0.52886 0.59904 0.0
C113 C 0.3915 0.56761 0.6314 0.0
C114 C 0.39301 0.57103 0.60474 0.0
C115 C 0.38646 0.55149 0.5885 0.0
N116 N 0.3837 0.54535 0.6416 0.0
C117 C 0.3773 0.52611 0.6258 0.0
Co118 Co 0.80154 0.32267 0.02408 0.0
Co119 Co 0.8268 0.38252 1.00779 0.0
O120 O 0.82404 0.35107 1.0046 0.0
C121 C 0.79 0.30967 0.96954 0.0
O122 O 0.79233 0.33098 0.96695 0.0
C123 C 0.87581 0.39218 0.01826 0.0
O124 O 0.86656 0.37417 0.03455 0.0
O125 O 0.82834 0.38125 0.04596 0.0
O126 O 0.80886 0.34212 0.0567 0.0
H127 H 0.80773 0.44309 0.04509 0.0
H128 H 0.83886 0.32114 0.99207 0.0
O129 O 0.79324 0.30286 0.99154 0.0
H130 H 0.85448 0.3056 0.08099 0.0
H131 H 0.7619 0.23537 0.04792 0.0
H132 H 0.76474 0.31219 0.06417 0.0
H133 H 0.82058 0.31204 0.07152 0.0
H134 H 0.79035 0.27188 0.02424 0.0
O135 O 0.86234 0.39781 1.0058 0.0
H136 H 0.80378 0.40315 0.04043 0.0
H137 H 0.85737 0.42972 0.98228 0.0
H138 H 0.73616 0.2762 0.08846 0.0
H139 H 0.87285 0.31462 1.00063 0.0
H140 H 0.73463 0.23744 0.08038 0.0
H141 H 0.88086 0.30684 0.04538 0.0
O142 O 0.77461 0.32846 0.01703 0.0
H143 H 0.8491 0.37414 0.91712 0.0
H144 H 0.7983 0.39394 0.97105 0.0
H145 H 0.79524 0.39453 0.92371 0.0
H146 H 0.82077 0.3846 0.89641 0.0
H147 H 0.85141 0.37352 0.96454 0.0
H148 H 0.86204 0.46999 0.98644 0.0
H149 H 0.83703 0.47685 0.01796 0.0
O150 O 0.79139 0.368 1.00995 0.0
C151 C 0.81954 0.36441 0.06259 0.0
C152 C 0.81866 0.4403 0.03121 0.0
C153 C 0.84916 0.45541 0.99832 0.0
N154 N 0.83014 0.41405 1.01091 0.0
C155 C 0.81645 0.41771 0.02843 0.0
C156 C 0.84646 0.43258 0.99607 0.0
C157 C 0.83512 0.45924 0.016 0.0
C158 C 0.84212 0.31755 1.01155 0.0
N159 N 0.8277 0.31682 0.03125 0.0
C160 C 0.86144 0.31397 0.0163 0.0
C161 C 0.86595 0.30963 0.04142 0.0
C162 C 0.85116 0.30895 0.06141 0.0
C163 C 0.83203 0.31265 0.05594 0.0
C164 C 0.76246 0.25218 0.05168 0.0
C165 C 0.76431 0.29543 0.06073 0.0
C166 C 0.7785 0.27288 0.03831 0.0
N167 N 0.77937 0.29418 0.04305 0.0
C168 C 0.74803 0.2751 0.07445 0.0
C169 C 0.74716 0.25335 0.06989 0.0
C170 C 0.77321 0.34721 1.01299 0.0
C171 C 0.83793 0.37858 0.92881 0.0
C172 C 0.80943 0.38954 0.9593 0.0
C173 C 0.80766 0.38996 0.93251 0.0
C174 C 0.82201 0.3844 0.9172 0.0
N175 N 0.82509 0.38379 0.97054 0.0
C176 C 0.83925 0.37837 0.95566 0.0
Co177 Co 0.47666 0.81014 0.35079 0.0
Co178 Co 0.45209 0.84544 0.33614 0.0
O179 O 0.477 0.83688 0.33269 0.0
C180 C 0.48085 0.80184 0.29592 0.0
O181 O 0.46387 0.80715 0.2925 0.0
C182 C 0.49648 0.89078 0.34715 0.0
O183 O 0.50212 0.87899 0.36373 0.0
O184 O 0.45512 0.84631 0.37417 0.0
O185 O 0.46393 0.81736 0.38316 0.0
H186 H 0.3782 0.84078 0.37443 0.0
H187 H 0.52098 0.84597 0.32432 0.0
O188 O 0.48868 0.80204 0.31856 0.0
H189 H 0.54317 0.84939 0.41579 0.0
H190 H 0.51018 0.75689 0.37428 0.0
H191 H 0.44287 0.77194 0.38611 0.0
H192 H 0.50205 0.82113 0.40125 0.0
H193 H 0.51017 0.79094 0.35249 0.0
O194 O 0.4771 0.87997 0.33432 0.0
H195 H 0.40921 0.8293 0.36931 0.0
H196 H 0.44328 0.88194 0.311 0.0
H197 H 0.44222 0.73781 0.40844 0.0
H198 H 0.56237 0.87438 0.33797 0.0
H199 H 0.47607 0.73012 0.40258 0.0
H200 H 0.57367 0.87624 0.38402 0.0
O201 O 0.44339 0.78792 0.33957 0.0
H202 H 0.48324 0.86463 0.24536 0.0
H203 H 0.41097 0.8224 0.29955 0.0
H204 H 0.40692 0.82026 0.25222 0.0
H205 H 0.44324 0.84151 0.2248 0.0
H206 H 0.4865 0.86604 0.29275 0.0
H207 H 0.41275 0.89414 0.31561 0.0
H208 H 0.37986 0.87343 0.34744 0.0
O209 O 0.42639 0.81104 0.33831 0.0
C210 C 0.45756 0.83249 0.38992 0.0
C211 C 0.39237 0.84986 0.36039 0.0
C212 C 0.41178 0.87983 0.32741 0.0
N213 N 0.42783 0.8547 0.33963 0.0
C214 C 0.40992 0.84336 0.35734 0.0
C215 C 0.42902 0.87285 0.32489 0.0
C216 C 0.39333 0.8682 0.34527 0.0
C217 C 0.52584 0.84654 0.34434 0.0
N218 N 0.50919 0.83184 0.36194 0.0
C219 C 0.54927 0.86272 0.35198 0.0
C220 C 0.55558 0.86378 0.37783 0.0
C221 C 0.53848 0.84873 0.39567 0.0
C222 C 0.51521 0.8328 0.38733 0.0
C223 C 0.49537 0.76011 0.37706 0.0
C224 C 0.45775 0.76882 0.38365 0.0
C225 C 0.49525 0.77933 0.36475 0.0
N226 N 0.47667 0.78356 0.36828 0.0
C227 C 0.45724 0.74942 0.39626 0.0
C228 C 0.47622 0.74509 0.39293 0.0
C229 C 0.42522 0.79069 0.33789 0.0
C230 C 0.46728 0.85536 0.2571 0.0
C231 C 0.42686 0.8316 0.28775 0.0
C232 C 0.42446 0.83039 0.26096 0.0
C233 C 0.44483 0.84234 0.24558 0.0
N234 N 0.44895 0.84438 0.29891 0.0
C235 C 0.46901 0.8562 0.28395 0.0
Co236 Co 0.65573 0.47594 0.68589 0.0
Co237 Co 0.60483 0.42583 0.6634 0.0
O238 O 0.62726 0.46029 0.66394 0.0
C239 C 0.67326 0.48387 0.6322 0.0
O240 O 0.6552 0.46246 0.62746 0.0
C241 C 0.57583 0.44712 0.68012 0.0
O242 O 0.59413 0.46182 0.6944 0.0
O243 O 0.60528 0.424 0.70169 0.0
O244 O 0.63567 0.45866 0.71686 0.0
H245 H 0.57487 0.34008 0.68822 0.0
H246 H 0.64439 0.50543 0.65115 0.0
O247 O 0.67646 0.49281 0.65483 0.0
H248 H 0.64202 0.53337 0.73901 0.0
H249 H 0.73359 0.54589 0.71592 0.0
H250 H 0.67456 0.46049 0.72952 0.0
H251 H 0.65187 0.50138 0.73199 0.0
H252 H 0.69749 0.52549 0.68863 0.0
O253 O 0.57719 0.43174 0.66588 0.0
H254 H 0.60318 0.38363 0.68835 0.0
H255 H 0.558 0.3947 0.63747 0.0
H256 H 0.7103 0.4802 0.75737 0.0
H257 H 0.63466 0.53763 0.65725 0.0
H258 H 0.74011 0.52322 0.75063 0.0
H259 H 0.63337 0.55174 0.70146 0.0
O260 O 0.6633 0.44988 0.68071 0.0
H261 H 0.59858 0.46039 0.57892 0.0
H262 H 0.60996 0.39793 0.62044 0.0
H263 H 0.61028 0.40053 0.573 0.0
H264 H 0.60455 0.43194 0.55194 0.0
H265 H 0.59857 0.45726 0.62631 0.0
H266 H 0.52909 0.35129 0.63695 0.0
H267 H 0.53751 0.32365 0.66238 0.0
O268 O 0.63182 0.41924 0.66119 0.0
C269 C 0.61728 0.43788 0.72021 0.0
C270 C 0.57104 0.35193 0.67699 0.0
C271 C 0.54533 0.35822 0.64824 0.0
N272 N 0.58234 0.39166 0.66277 0.0
C273 C 0.58704 0.37659 0.67692 0.0
C274 C 0.56174 0.38279 0.64865 0.0
C275 C 0.55007 0.34273 0.66251 0.0
C276 C 0.64408 0.51165 0.67041 0.0
N277 N 0.64883 0.50167 0.69117 0.0
C278 C 0.63846 0.52981 0.67376 0.0
C279 C 0.63771 0.5377 0.69857 0.0
C280 C 0.64255 0.52739 0.71966 0.0
C281 C 0.64808 0.50926 0.71557 0.0
C282 C 0.7207 0.52716 0.71907 0.0
C283 C 0.68738 0.47925 0.72659 0.0
C284 C 0.70027 0.51551 0.70366 0.0
N285 N 0.68387 0.49188 0.70762 0.0
C286 C 0.70761 0.4903 0.74236 0.0
C287 C 0.72435 0.51442 0.73855 0.0
C288 C 0.65312 0.42937 0.66997 0.0
C289 C 0.60102 0.44659 0.58787 0.0
C290 C 0.60748 0.41166 0.61141 0.0
C291 C 0.60764 0.41302 0.58454 0.0
C292 C 0.60441 0.43064 0.57274 0.0
N293 N 0.60414 0.42736 0.6261 0.0
C294 C 0.60092 0.44466 0.61468 0.0
Co295 Co 0.17734 0.65924 0.0162 0.0
Co296 Co 0.17073 0.60454 0.99796 0.0
O297 O 0.16317 0.63022 0.99503 0.0
C298 C 0.19192 0.67492 0.96273 0.0
O299 O 0.19495 0.65632 0.96088 0.0
C300 C 0.11907 0.58105 1.0087 0.0
O301 O 0.12377 0.59993 0.02259 0.0
O302 O 0.16867 0.60489 0.03614 0.0
O303 O 0.17072 0.63944 0.04842 0.0
H304 H 0.21361 0.56399 0.0344 0.0
H305 H 0.13976 0.65107 0.97803 0.0
O306 O 0.18485 0.67945 0.98392 0.0
H307 H 0.1066 0.65492 0.06243 0.0
H308 H 0.19256 0.74131 0.04051 0.0
H309 H 0.20912 0.67641 0.062 0.0
H310 H 0.14711 0.66004 0.05921 0.0
H311 H 0.17508 0.70427 0.01456 0.0
O312 O 0.13584 0.58016 0.99666 0.0
H313 H 0.20431 0.59661 0.02986 0.0
H314 H 0.15216 0.55689 0.97276 0.0
H315 H 0.22681 0.71304 0.08859 0.0
H316 H 0.09925 0.64605 0.98033 0.0
H317 H 0.21856 0.74582 0.07789 0.0
H318 H 0.0824 0.6479 0.02277 0.0
O319 O 0.20978 0.66292 1.01433 0.0
H320 H 0.14216 0.60401 0.90779 0.0
H321 H 0.2061 0.60476 0.96067 0.0
H322 H 0.20936 0.60544 0.91327 0.0
H323 H 0.17723 0.60508 0.88651 0.0
H324 H 0.13974 0.60354 0.95527 0.0
H325 H 0.16076 0.52375 0.97683 0.0
H326 H 0.19174 0.52723 1.00777 0.0
O327 O 0.20562 0.62821 0.99969 0.0
C328 C 0.1685 0.61894 0.05339 0.0
C329 C 0.20013 0.5623 0.02078 0.0
C330 C 0.17045 0.5397 0.98849 0.0
N331 N 0.17788 0.57874 1.00089 0.0
C332 C 0.19485 0.58074 0.01806 0.0
C333 C 0.16563 0.5585 0.9863 0.0
C334 C 0.18784 0.54167 1.00585 0.0
C335 C 0.13263 0.65212 0.99654 0.0
N336 N 0.14582 0.656 0.01844 0.0
C337 C 0.10965 0.64917 0.99773 0.0
C338 C 0.10019 0.65018 0.02156 0.0
C339 C 0.11376 0.6541 0.04382 0.0
C340 C 0.13666 0.65695 0.04189 0.0
C341 C 0.19625 0.72714 0.04539 0.0
C342 C 0.20532 0.69053 0.05733 0.0
C343 C 0.18645 0.70616 0.03074 0.0
N344 N 0.19095 0.68815 0.03689 0.0
C345 C 0.21545 0.71126 0.07241 0.0
C346 C 0.21083 0.72965 0.06637 0.0
C347 C 0.21838 0.6498 1.00732 0.0
C348 C 0.15625 0.60411 0.91925 0.0
C349 C 0.19208 0.60463 0.94915 0.0
C350 C 0.19399 0.60497 0.92232 0.0
C351 C 0.17594 0.60475 0.90732 0.0
N352 N 0.17271 0.60403 0.9607 0.0
C353 C 0.15492 0.60374 0.94612 0.0
Co354 Co 0.8075 0.47585 0.35957 0.0
Co355 Co 0.80874 0.42504 0.37904 0.0
O356 O 0.81995 0.45931 0.38073 0.0
C357 C 0.79611 0.48091 0.41341 0.0
O358 O 0.79184 0.45893 0.41643 0.0
C359 C 0.85983 0.44798 0.36553 0.0
O360 O 0.85651 0.46306 0.35156 0.0
O361 O 0.80917 0.42582 0.34072 0.0
O362 O 0.81095 0.46003 0.3276 0.0
H363 H 0.75659 0.34088 0.34706 0.0
H364 H 0.84755 0.50384 0.3957 0.0
O365 O 0.80303 0.49127 0.39154 0.0
H366 H 0.87958 0.53563 0.30931 0.0
H367 H 0.79994 0.54701 0.33343 0.0
H368 H 0.77403 0.46233 0.31537 0.0
H369 H 0.83767 0.50333 0.31476 0.0
H370 H 0.81519 0.52543 0.35948 0.0
O371 O 0.84262 0.43182 0.37863 0.0
H372 H 0.77074 0.38417 0.34985 0.0
H373 H 0.82376 0.39303 0.40428 0.0
H374 H 0.75848 0.48325 0.28869 0.0
H375 H 0.88953 0.53629 0.39117 0.0
H376 H 0.77145 0.52591 0.29768 0.0
H377 H 0.9058 0.55235 0.34771 0.0
O378 O 0.77388 0.44954 0.36344 0.0
H379 H 0.84335 0.45454 0.46707 0.0
H380 H 0.77331 0.39387 0.41876 0.0
H381 H 0.77236 0.39341 0.46628 0.0
H382 H 0.80757 0.42392 0.49075 0.0
H383 H 0.84344 0.45446 0.41952 0.0
H384 H 0.81033 0.34988 0.40191 0.0
H385 H 0.77645 0.32348 0.37322 0.0
O386 O 0.77477 0.41751 0.37913 0.0
C387 C 0.81057 0.44029 0.32309 0.0
C388 C 0.77132 0.35218 0.3597 0.0
C389 C 0.8015 0.35724 0.39046 0.0
N390 N 0.7979 0.39105 0.37738 0.0
C391 C 0.77935 0.37669 0.36142 0.0
C392 C 0.80905 0.38167 0.39169 0.0
C393 C 0.78248 0.34244 0.37436 0.0
C394 C 0.85446 0.51091 0.37677 0.0
N395 N 0.84017 0.50183 0.35555 0.0
C396 C 0.87826 0.5292 0.3743 0.0
C397 C 0.88739 0.53818 0.34991 0.0
C398 C 0.87269 0.52881 0.32835 0.0
C399 C 0.84899 0.51049 0.33155 0.0
C400 C 0.7942 0.52844 0.32929 0.0
C401 C 0.77989 0.48094 0.31926 0.0
C402 C 0.80274 0.51613 0.344 0.0
N403 N 0.79566 0.49272 0.33878 0.0
C404 C 0.77096 0.49267 0.30415 0.0
C405 C 0.77822 0.51659 0.30922 0.0
C406 C 0.76356 0.4281 0.37178 0.0
C407 C 0.82792 0.44112 0.45662 0.0
C408 C 0.78867 0.40723 0.42927 0.0
C409 C 0.78806 0.40685 0.45618 0.0
C410 C 0.80783 0.42396 0.4699 0.0
N411 N 0.80844 0.42414 0.4164 0.0
C412 C 0.82791 0.44093 0.42971 0.0
Co413 Co 0.31938 0.80946 0.67994 0.0
Co414 Co 0.37978 0.84045 0.6939 0.0
O415 O 0.34715 0.83435 0.69833 0.0
C416 C 0.30777 0.79927 0.73487 0.0
O417 O 0.32978 0.80343 0.73728 0.0
C418 C 0.38478 0.88788 0.68428 0.0
O419 O 0.36686 0.8775 0.66799 0.0
O420 O 0.3773 0.84224 0.656 0.0
O421 O 0.33842 0.81682 0.64691 0.0
H422 H 0.44473 0.83012 0.65286 0.0
H423 H 0.31459 0.84602 0.70988 0.0
O424 O 0.30005 0.80109 0.7128 0.0
H425 H 0.29528 0.8553 0.62019 0.0
H426 H 0.23166 0.76234 0.65801 0.0
H427 H 0.31139 0.77182 0.64185 0.0
H428 H 0.30556 0.82432 0.63148 0.0
H429 H 0.26739 0.79386 0.68026 0.0
O430 O 0.39195 0.87554 0.69659 0.0
H431 H 0.40333 0.82184 0.65917 0.0
H432 H 0.42652 0.87401 0.71864 0.0
H433 H 0.27619 0.7402 0.619 0.0
H434 H 0.30422 0.87713 0.69949 0.0
H435 H 0.23597 0.73531 0.62704 0.0
H436 H 0.29452 0.88194 0.65435 0.0
O437 O 0.32828 0.78498 0.68858 0.0
H438 H 0.37108 0.85969 0.78575 0.0
H439 H 0.3956 0.8143 0.72898 0.0
H440 H 0.39776 0.81098 0.77613 0.0
H441 H 0.38546 0.8338 0.80485 0.0
H442 H 0.36893 0.86227 0.73849 0.0
H443 H 0.46821 0.88301 0.71285 0.0
H444 H 0.47751 0.8609 0.67983 0.0
O445 O 0.36849 0.8055 0.69088 0.0
C446 C 0.36028 0.83046 0.64014 0.0
C447 C 0.44089 0.83978 0.66741 0.0
C448 C 0.45407 0.86949 0.70105 0.0
N449 N 0.41247 0.84719 0.68949 0.0
C450 C 0.41747 0.8351 0.67114 0.0
C451 C 0.43044 0.86433 0.70423 0.0
C452 C 0.45928 0.85708 0.68252 0.0
C453 C 0.31019 0.84789 0.69024 0.0
N454 N 0.31055 0.83331 0.67134 0.0
C455 C 0.30442 0.86559 0.68445 0.0
C456 C 0.29901 0.8683 0.65911 0.0
C457 C 0.29945 0.85337 0.63993 0.0
C458 C 0.30533 0.83589 0.64643 0.0
C459 C 0.2491 0.76434 0.65428 0.0
C460 C 0.29397 0.76993 0.64527 0.0
C461 C 0.26938 0.78213 0.66684 0.0
N462 N 0.29147 0.78484 0.66211 0.0
C463 C 0.2741 0.75193 0.63235 0.0
C464 C 0.25153 0.74918 0.6369 0.0
C465 C 0.34846 0.78601 0.69034 0.0
C466 C 0.37656 0.84972 0.77343 0.0
C467 C 0.39013 0.82422 0.74135 0.0
C468 C 0.39146 0.82232 0.76803 0.0
C469 C 0.38458 0.83515 0.78414 0.0
N470 N 0.38221 0.83852 0.73099 0.0
C471 C 0.3755 0.85121 0.74666 0.0
Co472 Co 0.49475 0.30966 1.01105 0.0
Co473 Co 0.5242 0.3689 0.03065 0.0
O474 O 0.49665 0.33659 0.03034 0.0
C475 C 0.49147 0.2963 0.0656 0.0
O476 O 0.50884 0.31843 0.06874 0.0
C477 C 0.4857 0.37683 1.01087 0.0
O478 O 0.48091 0.36031 0.99338 0.0
O479 O 0.52708 0.36872 0.9925 0.0
O480 O 0.50758 0.33024 0.97926 0.0
H481 H 0.60663 0.43406 1.00544 0.0
H482 H 0.45224 0.3034 0.03985 0.0
O483 O 0.48275 0.28902 0.04311 0.0
H484 H 0.42704 0.28777 0.94885 0.0
H485 H 0.45566 0.22288 0.98532 0.0
H486 H 0.52557 0.30354 0.97284 0.0
H487 H 0.46795 0.29788 0.96151 0.0
H488 H 0.45885 0.25761 1.00897 0.0
O489 O 0.50215 0.38213 0.02744 0.0
H490 H 0.57208 0.39294 1.00575 0.0
H491 H 0.53411 0.41464 0.05563 0.0
H492 H 0.52303 0.26936 0.94864 0.0
H493 H 0.41109 0.29316 0.0281 0.0
H494 H 0.48787 0.22868 0.95484 0.0
H495 H 0.39828 0.2853 0.9823 0.0
O496 O 0.52793 0.31818 0.02051 0.0
H497 H 0.48017 0.35516 0.11453 0.0
H498 H 0.55878 0.38163 0.07408 0.0
H499 H 0.55553 0.38071 0.12148 0.0
H500 H 0.516 0.3674 0.142 0.0
H501 H 0.48419 0.35617 0.0672 0.0
H502 H 0.56818 0.45605 0.0557 0.0
H503 H 0.60481 0.46596 0.03055 0.0
O504 O 0.54681 0.35648 0.03369 0.0
C505 C 0.52032 0.35279 0.97488 0.0
C506 C 0.59081 0.42995 0.01656 0.0
C507 C 0.56922 0.4423 0.04475 0.0
N508 N 0.55121 0.40133 0.03093 0.0
C509 C 0.57122 0.40667 0.01689 0.0
C510 C 0.54997 0.41882 0.04461 0.0
C511 C 0.58977 0.44784 0.03063 0.0
C512 C 0.44672 0.29981 0.01992 0.0
N513 N 0.46239 0.30108 1.00141 0.0
C514 C 0.42343 0.29411 1.01336 0.0
C515 C 0.41627 0.28973 0.98766 0.0
C516 C 0.4324 0.29112 0.96888 0.0
C517 C 0.45554 0.2969 0.97614 0.0
C518 C 0.47104 0.24052 0.98242 0.0
C519 C 0.51014 0.28591 0.97549 0.0
C520 C 0.47296 0.26024 0.99578 0.0
N521 N 0.49227 0.28258 0.99211 0.0
C522 C 0.50883 0.26662 0.9618 0.0
C523 C 0.48911 0.24379 0.96531 0.0
C524 C 0.5464 0.33692 0.02874 0.0
C525 C 0.49751 0.36106 0.10582 0.0
C526 C 0.54152 0.37581 0.08287 0.0
C527 C 0.53979 0.37535 0.10972 0.0
C528 C 0.51761 0.3679 0.12122 0.0
N529 N 0.52171 0.36908 0.0679 0.0
C530 C 0.49991 0.36178 0.07903 0.0
Co531 Co 0.17977 0.51792 0.35479 0.0
Co532 Co 0.14733 0.54599 0.36846 0.0
O533 O 0.15452 0.5202 0.37315 0.0
C534 C 0.19038 0.51773 0.40974 0.0
O535 O 0.18576 0.53532 0.41175 0.0
C536 C 0.10082 0.50236 0.3592 0.0
O537 O 0.11179 0.4953 0.3431 0.0
O538 O 0.14586 0.54169 0.33054 0.0
O539 O 0.17145 0.52841 0.32162 0.0
H540 H 0.15471 0.61983 0.32684 0.0
H541 H 0.14433 0.4766 0.38564 0.0
O542 O 0.18893 0.50805 0.38785 0.0
H543 H 0.13529 0.44651 0.29659 0.0
H544 H 0.22919 0.47952 0.3336 0.0
H545 H 0.21645 0.54757 0.31588 0.0
H546 H 0.16534 0.48834 0.30699 0.0
H547 H 0.19715 0.4829 0.35589 0.0
O548 O 0.11249 0.52217 0.37114 0.0
H549 H 0.16451 0.58777 0.33339 0.0
H550 H 0.11265 0.55774 0.39309 0.0
H551 H 0.24856 0.5448 0.29298 0.0
H552 H 0.11418 0.43458 0.37615 0.0
H553 H 0.25509 0.51058 0.3018 0.0
H554 H 0.10949 0.41932 0.33133 0.0
O555 O 0.20353 0.55176 0.36264 0.0
H556 H 0.12854 0.51819 0.46039 0.0
H557 H 0.17227 0.58821 0.40341 0.0
H558 H 0.1753 0.59388 0.45055 0.0
H559 H 0.15331 0.5587 0.47937 0.0
H560 H 0.12625 0.51328 0.41316 0.0
H561 H 0.10213 0.58937 0.38705 0.0
H562 H 0.12331 0.62077 0.35381 0.0
O563 O 0.18201 0.57044 0.3654 0.0
C564 C 0.15771 0.53646 0.3147 0.0
C565 C 0.14545 0.60633 0.3415 0.0
C566 C 0.11592 0.58922 0.37527 0.0
N567 N 0.13944 0.57113 0.36386 0.0
C568 C 0.15101 0.5882 0.34537 0.0
C569 C 0.12194 0.57135 0.37858 0.0
C570 C 0.12781 0.60683 0.35661 0.0
C571 C 0.14253 0.47001 0.36614 0.0
N572 N 0.15665 0.48483 0.34692 0.0
C573 C 0.12536 0.44624 0.36086 0.0
C574 C 0.12272 0.43769 0.3357 0.0
C575 C 0.13718 0.45295 0.3162 0.0
C576 C 0.15413 0.47662 0.32219 0.0
C577 C 0.22648 0.49448 0.32953 0.0
C578 C 0.21907 0.53253 0.31966 0.0
C579 C 0.2084 0.4965 0.34212 0.0
N580 N 0.2048 0.51528 0.33697 0.0
C581 C 0.23733 0.53111 0.30671 0.0
C582 C 0.241 0.51191 0.31169 0.0
C583 C 0.20184 0.57058 0.36441 0.0
C584 C 0.13814 0.53366 0.44803 0.0
C585 C 0.16272 0.5728 0.41583 0.0
C586 C 0.16445 0.57613 0.4425 0.0
C587 C 0.15208 0.55639 0.45867 0.0
N588 N 0.14903 0.55044 0.40554 0.0
C589 C 0.13681 0.53101 0.42127 0.0
Co590 Co 0.65622 0.18012 0.68779 0.0
Co591 Co 0.60373 0.17907 0.70474 0.0
O592 O 0.62645 0.16751 0.70757 0.0
C593 C 0.67039 0.19068 0.74232 0.0
O594 O 0.65251 0.19477 0.74454 0.0
C595 C 0.5758 0.12819 0.68995 0.0
O596 O 0.5946 0.1315 0.67675 0.0
O597 O 0.60591 0.17972 0.66646 0.0
O598 O 0.63822 0.17705 0.65499 0.0
H599 H 0.57386 0.23262 0.67135 0.0
H600 H 0.64271 0.13966 0.72386 0.0
O601 O 0.67485 0.18423 0.72068 0.0
H602 H 0.64577 0.10847 0.63799 0.0
H603 H 0.73576 0.18771 0.66551 0.0
H604 H 0.6778 0.21387 0.64399 0.0
H605 H 0.65518 0.15036 0.64332 0.0
H606 H 0.69803 0.17235 0.68998 0.0
O607 O 0.57652 0.14533 0.70291 0.0
H608 H 0.60256 0.21804 0.67557 0.0
H609 H 0.55572 0.16386 0.72756 0.0
H610 H 0.71519 0.22953 0.6189 0.0
H611 H 0.63335 0.0977 0.71945 0.0
H612 H 0.74448 0.21645 0.62963 0.0
H613 H 0.6348 0.08186 0.67625 0.0
O614 O 0.66346 0.21376 0.69151 0.0
H615 H 0.59442 0.14211 0.79228 0.0
H616 H 0.60635 0.21357 0.74478 0.0
H617 H 0.6047 0.2133 0.79228 0.0
H618 H 0.5987 0.17738 0.81634 0.0
H619 H 0.59638 0.14323 0.74478 0.0
H620 H 0.52641 0.17772 0.72374 0.0
H621 H 0.53547 0.21241 0.69555 0.0
O622 O 0.63028 0.2129 0.7063 0.0
C623 C 0.61947 0.17825 0.64947 0.0
C624 C 0.56975 0.21755 0.68377 0.0
C625 C 0.54311 0.18671 0.71314 0.0
N626 N 0.58091 0.19026 0.70197 0.0
C627 C 0.58596 0.20926 0.6863 0.0
C628 C 0.55974 0.17891 0.71519 0.0
C629 C 0.5482 0.20618 0.69733 0.0
C630 C 0.64359 0.13293 0.70504 0.0
N631 N 0.64963 0.14745 0.6839 0.0
C632 C 0.63818 0.10915 0.70265 0.0
C633 C 0.63896 0.10026 0.6784 0.0
C634 C 0.64511 0.11518 0.65691 0.0
C635 C 0.65038 0.13886 0.66004 0.0
C636 C 0.72312 0.19351 0.66063 0.0
C637 C 0.69039 0.20798 0.64866 0.0
C638 C 0.70177 0.18492 0.67444 0.0
N639 N 0.68568 0.19209 0.66828 0.0
C640 C 0.71156 0.21696 0.63444 0.0
C641 C 0.728 0.20963 0.64049 0.0
C642 C 0.65224 0.22408 0.69958 0.0
C643 C 0.59698 0.15784 0.78201 0.0
C644 C 0.60377 0.19789 0.75512 0.0
C645 C 0.6028 0.19782 0.78201 0.0
C646 C 0.59942 0.17765 0.7955 0.0
N647 N 0.60139 0.1784 0.74203 0.0
C648 C 0.598 0.15853 0.75512 0.0
Co649 Co 0.47836 0.65986 0.02352 0.0
Co650 Co 0.43351 0.60539 0.04664 0.0
O651 O 0.46689 0.63099 0.04467 0.0
C652 C 0.4865 0.67626 0.07748 0.0
O653 O 0.46656 0.65637 0.08247 0.0
C654 C 0.45826 0.58094 0.02581 0.0
O655 O 0.47005 0.59932 1.01039 0.0
O656 O 0.42992 0.60585 1.00856 0.0
O657 O 0.46132 0.63947 0.99273 0.0
H658 H 0.34562 0.5653 0.0263 0.0
H659 H 0.51311 0.65328 0.05481 0.0
O660 O 0.49476 0.68082 0.05451 0.0
H661 H 0.53877 0.65671 0.96459 0.0
H662 H 0.54002 0.74221 0.99329 0.0
H663 H 0.45712 0.67573 0.98271 0.0
H664 H 0.50356 0.6607 0.97506 0.0
H665 H 0.52487 0.70553 0.01957 0.0
O666 O 0.44364 0.58088 0.04238 0.0
H667 H 0.3878 0.59772 0.02446 0.0
H668 H 0.40836 0.55767 0.07249 0.0
H669 H 0.47157 0.71198 0.95589 0.0
H670 H 0.54856 0.64941 0.04524 0.0
H671 H 0.5133 0.74556 0.96111 0.0
H672 H 0.56157 0.65108 0.99984 0.0
O673 O 0.4499 0.66295 0.03138 0.0
H674 H 0.47472 0.60383 0.12814 0.0
H675 H 0.40506 0.60589 0.09182 0.0
H676 H 0.40987 0.6062 0.139 0.0
H677 H 0.44491 0.60516 0.15744 0.0
H678 H 0.46932 0.60376 0.08106 0.0
H679 H 0.36644 0.52472 0.07466 0.0
H680 H 0.33472 0.52848 0.05154 0.0
O681 O 0.4225 0.6291 0.05066 0.0
C682 C 0.442 0.61935 0.98981 0.0
C683 C 0.35927 0.56349 0.03654 0.0
C684 C 0.37096 0.54071 0.06365 0.0
N685 N 0.40048 0.57969 0.04857 0.0
C686 C 0.38316 0.58182 0.03564 0.0
C687 C 0.39467 0.5594 0.06232 0.0
C688 C 0.35317 0.54283 0.05068 0.0
C689 C 0.5188 0.65421 0.03503 0.0
N690 N 0.50641 0.65736 0.01553 0.0
C691 C 0.53882 0.65192 0.02972 0.0
C692 C 0.54609 0.65283 1.00424 0.0
C693 C 0.5333 0.65598 0.98445 0.0
C694 C 0.51336 0.65818 0.99049 0.0
C695 C 0.52182 0.72769 0.9908 0.0
C696 C 0.47536 0.69019 0.98495 0.0
C697 C 0.51313 0.7069 1.00565 0.0
N698 N 0.49021 0.68845 1.00251 0.0
C699 C 0.48341 0.71071 0.96978 0.0
C700 C 0.50682 0.72955 0.97274 0.0
C701 C 0.42988 0.65034 0.04263 0.0
C702 C 0.45935 0.60423 0.12034 0.0
C703 C 0.42037 0.60548 0.0997 0.0
C704 C 0.42298 0.60561 0.12643 0.0
C705 C 0.44263 0.60501 0.13676 0.0
N706 N 0.43686 0.60472 0.08372 0.0
C707 C 0.45615 0.60408 0.09371 0.0
C708 C 0.58014 0.17852 0.41741 0.0
C709 C 0.55853 0.17767 0.41076 0.0
C710 C 0.58628 0.17827 0.44315 0.0
C711 C 0.561 0.16269 0.50906 0.0
H712 H 0.62738 0.20287 0.5294 0.0
C713 C 0.59099 0.17698 0.61566 0.0
C714 C 0.61252 0.17752 0.62198 0.0
C715 C 0.58429 0.17655 0.58998 0.0
C716 C 0.60882 0.19132 0.524 0.0
H717 H 0.52639 0.17578 0.42636 0.0
H718 H 0.53728 0.17561 0.4715 0.0
H719 H 0.61564 0.20346 0.4849 0.0
H720 H 0.64382 0.17794 0.60589 0.0
H721 H 0.63203 0.17712 0.56095 0.0
H722 H 0.55421 0.15068 0.54827 0.0
C723 C 0.54934 0.1762 0.4566 0.0
C724 C 0.60205 0.19166 0.49845 0.0
C725 C 0.54314 0.17641 0.43071 0.0
C726 C 0.62715 0.17755 0.60181 0.0
C727 C 0.62044 0.17722 0.57602 0.0
C728 C 0.56777 0.16239 0.53465 0.0
C729 C 0.57108 0.17725 0.46314 0.0
C730 C 0.57806 0.17729 0.49059 0.0
C731 C 0.59892 0.17672 0.5698 0.0
C732 C 0.59178 0.17669 0.54244 0.0
H733 H 0.59246 0.17934 0.40269 0.0
H734 H 0.60291 0.17862 0.44736 0.0
H735 H 0.54245 0.15112 0.50367 0.0
H736 H 0.57922 0.17697 0.63058 0.0
H737 H 0.56778 0.17652 0.58595 0.0
C738 C 0.39 0.54093 0.76883 0.0
C739 C 0.3672 0.53553 0.76002 0.0
C740 C 0.39732 0.54912 0.79395 0.0
C741 C 0.41478 0.58093 0.84096 0.0
H742 H 0.37077 0.5586 0.89871 0.0
C743 C 0.44238 0.62547 0.94175 0.0
C744 C 0.43344 0.61034 0.96335 0.0
C745 C 0.4339 0.61662 0.91697 0.0
C746 C 0.38341 0.56492 0.88288 0.0
H747 H 0.33394 0.53386 0.77113 0.0
H748 H 0.34688 0.54864 0.81477 0.0
H749 H 0.35669 0.54118 0.8563 0.0
H750 H 0.40887 0.57384 0.97562 0.0
H751 H 0.39475 0.55843 0.93273 0.0
H752 H 0.44173 0.604 0.86771 0.0
C753 C 0.35901 0.54618 0.8024 0.0
C754 C 0.37521 0.55512 0.8584 0.0
C755 C 0.35157 0.53771 0.77729 0.0
C756 C 0.41601 0.58614 0.95952 0.0
C757 C 0.40775 0.57728 0.93482 0.0
C758 C 0.42303 0.59058 0.86548 0.0
C759 C 0.38217 0.55242 0.81093 0.0
C760 C 0.3908 0.5629 0.83709 0.0
C761 C 0.41646 0.59237 0.91317 0.0
C762 C 0.4075 0.58265 0.88682 0.0
H763 H 0.40244 0.53926 0.75614 0.0
H764 H 0.41502 0.55307 0.79996 0.0
H765 H 0.42726 0.58776 0.825 0.0
H766 H 0.45573 0.64421 0.944 0.0
H767 H 0.44084 0.62889 0.90083 0.0
C768 C 0.82062 0.41741 0.29134 0.0
C769 C 0.81263 0.43377 0.29613 0.0
C770 C 0.82196 0.41036 0.26624 0.0
C771 C 0.81068 0.38708 0.2139 0.0
H772 H 0.82702 0.43079 0.15635 0.0
C773 C 0.80443 0.35519 0.10824 0.0
C774 C 0.82062 0.37137 0.09008 0.0
C775 C 0.80371 0.36269 0.13342 0.0
C776 C 0.82274 0.41837 0.17219 0.0
H777 H 0.79998 0.45573 0.27809 0.0
H778 H 0.8015 0.44278 0.23417 0.0
H779 H 0.82595 0.44463 0.19962 0.0
H780 H 0.84951 0.4079 0.08457 0.0
H781 H 0.849 0.42063 0.12854 0.0
H782 H 0.80854 0.36115 0.18671 0.0
C783 C 0.80727 0.43578 0.24985 0.0
C784 C 0.82171 0.42624 0.19708 0.0
C785 C 0.80627 0.44315 0.27506 0.0
C786 C 0.83666 0.39498 0.09799 0.0
C787 C 0.83618 0.40237 0.12322 0.0
C788 C 0.81202 0.37931 0.18909 0.0
C789 C 0.81499 0.41912 0.24509 0.0
C790 C 0.81572 0.41073 0.21835 0.0
C791 C 0.8194 0.38648 0.14122 0.0
C792 C 0.81808 0.39482 0.16781 0.0
H793 H 0.82603 0.41009 0.30706 0.0
H794 H 0.82867 0.39809 0.26349 0.0
H795 H 0.80554 0.37437 0.22959 0.0
H796 H 0.79169 0.33693 0.10279 0.0
H797 H 0.7903 0.34993 0.14649 0.0
C798 C 0.45319 0.85396 0.42783 0.0
C799 C 0.45042 0.83276 0.41697 0.0
C800 C 0.44357 0.85373 0.45206 0.0
C801 C 0.41495 0.81502 0.51029 0.0
H802 H 0.39259 0.86017 0.52144 0.0
C803 C 0.35587 0.81066 0.59733 0.0
C804 C 0.36697 0.83137 0.61272 0.0
C805 C 0.3649 0.81053 0.57279 0.0
C806 C 0.39874 0.84746 0.51853 0.0
H807 H 0.43562 0.79469 0.4231 0.0
H808 H 0.41792 0.79394 0.46479 0.0
H809 H 0.41118 0.86027 0.48052 0.0
H810 H 0.39541 0.86846 0.61406 0.0
H811 H 0.41045 0.86851 0.5707 0.0
H812 H 0.40144 0.80173 0.54819 0.0
C813 C 0.4282 0.81102 0.45516 0.0
C814 C 0.40969 0.84764 0.49517 0.0
C815 C 0.43834 0.81138 0.43115 0.0
C816 C 0.38647 0.85227 0.60259 0.0
C817 C 0.39508 0.85231 0.57783 0.0
C818 C 0.40348 0.81451 0.53342 0.0
C819 C 0.43032 0.83214 0.46584 0.0
C820 C 0.41825 0.83161 0.49075 0.0
C821 C 0.38475 0.83129 0.56297 0.0
C822 C 0.39548 0.83087 0.53782 0.0
H823 H 0.46254 0.87074 0.41738 0.0
H824 H 0.44637 0.87054 0.4598 0.0
H825 H 0.42157 0.80265 0.50802 0.0
H826 H 0.341 0.79423 0.60475 0.0
H827 H 0.3566 0.79414 0.56161 0.0
C828 C 0.54412 0.38582 0.94331 0.0
C829 C 0.52861 0.36126 0.94813 0.0
C830 C 0.55338 0.39396 0.91868 0.0
C831 C 0.56483 0.37326 0.85628 0.0
H832 H 0.57502 0.43458 0.83187 0.0
C833 C 0.59113 0.40524 0.75111 0.0
C834 C 0.60853 0.42939 0.74682 0.0
C835 C 0.58198 0.39708 0.77577 0.0
C836 C 0.57255 0.41756 0.83852 0.0
H837 H 0.51036 0.32609 0.93035 0.0
H838 H 0.52612 0.34039 0.88715 0.0
H839 H 0.55658 0.41965 0.87387 0.0
H840 H 0.63008 0.46382 0.76542 0.0
H841 H 0.61392 0.44951 0.80863 0.0
H842 H 0.58052 0.37109 0.82068 0.0
C843 C 0.53148 0.35331 0.90265 0.0
C844 C 0.56195 0.40894 0.86264 0.0
C845 C 0.52226 0.34511 0.92742 0.0
C846 C 0.61672 0.44513 0.76799 0.0
C847 C 0.60735 0.43696 0.79272 0.0
C848 C 0.57528 0.38181 0.83209 0.0
C849 C 0.54734 0.37785 0.898 0.0
C850 C 0.55798 0.38669 0.87191 0.0
C851 C 0.58981 0.41284 0.79686 0.0
C852 C 0.57929 0.40407 0.82292 0.0
H853 H 0.5496 0.39887 0.9587 0.0
H854 H 0.56581 0.4129 0.91605 0.0
H855 H 0.56252 0.35629 0.8629 0.0
H856 H 0.5844 0.39252 0.73534 0.0
H857 H 0.56833 0.37847 0.7782 0.0
C858 C 0.13973 0.54793 0.27839 0.0
C859 C 0.15672 0.54186 0.28703 0.0
C860 C 0.1403 0.55563 0.25308 0.0
C861 C 0.15427 0.5857 0.20451 0.0
H862 H 0.17236 0.55913 0.14757 0.0
C863 C 0.17218 0.62651 0.10134 0.0
C864 C 0.16544 0.6105 0.08049 0.0
C865 C 0.17077 0.6183 0.12668 0.0
C866 C 0.16702 0.56663 0.16317 0.0
H867 H 0.18735 0.53865 0.27543 0.0
H868 H 0.18863 0.55246 0.23146 0.0
H869 H 0.16962 0.54335 0.19072 0.0
H870 H 0.15081 0.57308 0.0701 0.0
H871 H 0.1477 0.55883 0.11392 0.0
H872 H 0.15089 0.60843 0.17675 0.0
C873 C 0.17459 0.55093 0.24415 0.0
C874 C 0.16579 0.55777 0.18807 0.0
C875 C 0.17389 0.54303 0.26945 0.0
C876 C 0.15652 0.58603 0.08563 0.0
C877 C 0.15489 0.57784 0.11085 0.0
C878 C 0.15534 0.59445 0.17955 0.0
C879 C 0.158 0.55766 0.23571 0.0
C880 C 0.15934 0.56713 0.2091 0.0
C881 C 0.16237 0.59386 0.13174 0.0
C882 C 0.16164 0.58497 0.1585 0.0
H883 H 0.12612 0.54712 0.29131 0.0
H884 H 0.12688 0.56008 0.24718 0.0
H885 H 0.14963 0.59367 0.22024 0.0
H886 H 0.17918 0.64547 0.09805 0.0
H887 H 0.17686 0.63123 0.14224 0.0
C888 C 0.72385 0.42234 0.35765 0.0
C889 C 0.73712 0.41443 0.372 0.0
C890 C 0.69905 0.40782 0.35513 0.0
C891 C 0.64627 0.35247 0.37963 0.0
H892 H 0.63051 0.33792 0.30733 0.0
C893 C 0.59729 0.26361 0.31977 0.0
C894 C 0.57591 0.25028 0.33362 0.0
C895 C 0.61067 0.28839 0.32252 0.0
C896 C 0.63441 0.34207 0.32759 0.0
H897 H 0.73458 0.38597 0.39654 0.0
H898 H 0.69152 0.36073 0.39211 0.0
H899 H 0.667 0.37447 0.31947 0.0
H900 H 0.5509 0.2526 0.3599 0.0
H901 H 0.57475 0.29609 0.36514 0.0
H902 H 0.61476 0.31904 0.38767 0.0
C903 C 0.70018 0.37814 0.38287 0.0
C904 C 0.6552 0.36307 0.33458 0.0
C905 C 0.72493 0.3925 0.38517 0.0
C906 C 0.56739 0.26241 0.34905 0.0
C907 C 0.58099 0.28726 0.35207 0.0
C908 C 0.62543 0.33152 0.37265 0.0
C909 C 0.6871 0.38532 0.3672 0.0
C910 C 0.66201 0.3677 0.3606 0.0
C911 C 0.60308 0.30037 0.33937 0.0
C912 C 0.62011 0.32547 0.34652 0.0
H913 H 0.7327 0.43922 0.34736 0.0
H914 H 0.68935 0.41376 0.34299 0.0
H915 H 0.65099 0.35584 0.39984 0.0
H916 H 0.6042 0.25481 0.30753 0.0
H917 H 0.62779 0.29796 0.31274 0.0
C918 C 0.3672 0.76183 0.67805 0.0
C919 C 0.34877 0.76338 0.69065 0.0
C920 C 0.367 0.74011 0.67705 0.0
C921 C 0.32694 0.6745 0.68745 0.0
H922 H 0.38739 0.67524 0.68477 0.0
C923 C 0.36751 0.60598 0.69535 0.0
C924 C 0.3491 0.58599 0.68281 0.0
C925 C 0.36718 0.62741 0.69649 0.0
C926 C 0.37029 0.67457 0.68593 0.0
H927 H 0.31601 0.74386 0.71265 0.0
H928 H 0.31636 0.70619 0.71243 0.0
H929 H 0.38737 0.71258 0.68865 0.0
H930 H 0.31619 0.57261 0.6611 0.0
H931 H 0.31629 0.61052 0.66156 0.0
H932 H 0.30989 0.63635 0.68661 0.0
C933 C 0.33048 0.72138 0.70231 0.0
C934 C 0.37028 0.69615 0.68763 0.0
C935 C 0.33035 0.743 0.70269 0.0
C936 C 0.33051 0.58783 0.67102 0.0
C937 C 0.33051 0.6095 0.67152 0.0
C938 C 0.32695 0.65285 0.68644 0.0
C939 C 0.3487 0.71959 0.68927 0.0
C940 C 0.34862 0.69646 0.6882 0.0
C941 C 0.34876 0.62956 0.68445 0.0
C942 C 0.34864 0.65259 0.68553 0.0
H943 H 0.38142 0.77724 0.66827 0.0
H944 H 0.38101 0.73942 0.66624 0.0
H945 H 0.30986 0.67393 0.6874 0.0
H946 H 0.38185 0.60486 0.70495 0.0
H947 H 0.3812 0.64214 0.70723 0.0
C948 C 0.56932 0.31495 0.02739 0.0
C949 C 0.56895 0.33639 0.03125 0.0
C950 C 0.59104 0.31507 0.02672 0.0
C951 C 0.65313 0.35446 1.00957 0.0
H952 H 0.66597 0.3096 0.04621 0.0
C953 C 0.74709 0.36564 1.01318 0.0
C954 C 0.74927 0.34499 1.01293 0.0
C955 C 0.72464 0.36372 0.01501 0.0
C956 C 0.66251 0.322 0.03552 0.0
H957 H 0.59108 0.37455 0.03874 0.0
H958 H 0.62889 0.37468 0.03727 0.0
H959 H 0.62737 0.30767 0.05176 0.0
H960 H 0.72947 0.30608 1.01361 0.0
H961 H 0.69016 0.30276 0.01605 0.0
H962 H 0.68787 0.36853 0.99285 0.0
C963 C 0.61235 0.35787 0.0346 0.0
C964 C 0.6405 0.32096 0.03884 0.0
C965 C 0.59068 0.35774 0.03554 0.0
C966 C 0.72842 0.32235 1.01389 0.0
C967 C 0.7059 0.32044 0.01549 0.0
C968 C 0.67498 0.35533 1.00601 0.0
C969 C 0.61273 0.33665 0.02966 0.0
C970 C 0.63578 0.33736 0.0261 0.0
C971 C 0.70379 0.34112 0.01634 0.0
C972 C 0.68004 0.33929 0.01915 0.0
H973 H 0.5529 0.29817 0.02414 0.0
H974 H 0.59093 0.29849 0.02285 0.0
H975 H 0.64969 0.367 0.99915 0.0
H976 H 0.76276 0.38337 1.0126 0.0
H977 H 0.7237 0.38003 0.01605 0.0
C978 C 0.38235 0.76896 0.35076 0.0
C979 C 0.40142 0.76909 0.33758 0.0
C980 C 0.36042 0.74783 0.35308 0.0
C981 C 0.33343 0.68167 0.3471 0.0
H982 H 0.27454 0.68347 0.35476 0.0
C983 C 0.22435 0.61322 0.35071 0.0
C984 C 0.22404 0.5939 0.3635 0.0
C985 C 0.24577 0.63476 0.34762 0.0
C986 C 0.2907 0.68248 0.35227 0.0
H987 H 0.4124 0.74773 0.31541 0.0
H988 H 0.37361 0.7111 0.31788 0.0
H989 H 0.31152 0.72016 0.34602 0.0
H990 H 0.24549 0.58203 0.38404 0.0
H991 H 0.28272 0.62016 0.38024 0.0
H992 H 0.31235 0.64377 0.35151 0.0
C993 C 0.37578 0.72696 0.32753 0.0
C994 C 0.31211 0.70372 0.34771 0.0
C995 C 0.39795 0.74799 0.32583 0.0
C996 C 0.24535 0.59669 0.37394 0.0
C997 C 0.2667 0.61848 0.37148 0.0
C998 C 0.31191 0.66035 0.35097 0.0
C999 C 0.35686 0.72646 0.34167 0.0
C1000 C 0.33383 0.70366 0.34529 0.0
C1001 C 0.26729 0.63769 0.35787 0.0
C1002 C 0.29026 0.66046 0.35382 0.0
H1003 H 0.3847 0.78494 0.36032 0.0
H1004 H 0.34659 0.74819 0.36458 0.0
H1005 H 0.34976 0.68083 0.34585 0.0
H1006 H 0.2082 0.6114 0.34215 0.0
H1007 H 0.24544 0.64882 0.33652 0.0
C1008 C 0.65731 0.39506 0.65405 0.0
C1009 C 0.66623 0.41603 0.66887 0.0
C1010 C 0.66765 0.38059 0.65576 0.0
C1011 C 0.69507 0.3626 0.70422 0.0
H1012 H 0.69435 0.32161 0.64908 0.0
C1013 C 0.68601 0.26392 0.68553 0.0
C1014 C 0.66507 0.25051 0.7002 0.0
C1015 C 0.69627 0.28875 0.68343 0.0
C1016 C 0.6953 0.33322 0.66469 0.0
H1017 H 0.69412 0.43919 0.69573 0.0
H1018 H 0.71193 0.41357 0.69898 0.0
H1019 H 0.69507 0.35888 0.63865 0.0
H1020 H 0.63958 0.25277 0.72572 0.0
H1021 H 0.65744 0.29594 0.7221 0.0
H1022 H 0.6937 0.33615 0.73024 0.0
C1023 C 0.69693 0.40841 0.68607 0.0
C1024 C 0.69552 0.35445 0.65871 0.0
C1025 C 0.6867 0.42304 0.68418 0.0
C1026 C 0.65556 0.26255 0.71408 0.0
C1027 C 0.66597 0.28734 0.71224 0.0
C1028 C 0.69475 0.34133 0.7102 0.0
C1029 C 0.68704 0.38671 0.67245 0.0
C1030 C 0.69409 0.36863 0.67841 0.0
C1031 C 0.68598 0.30059 0.6963 0.0
C1032 C 0.69355 0.32585 0.69047 0.0
H1033 H 0.64171 0.38926 0.64189 0.0
H1034 H 0.65943 0.36381 0.64526 0.0
H1035 H 0.69392 0.37315 0.71983 0.0
H1036 H 0.69381 0.25514 0.67466 0.0
H1037 H 0.71171 0.2986 0.67106 0.0
C1038 C 0.25817 0.67874 0.02634 0.0
C1039 C 0.24447 0.65972 1.00934 0.0
C1040 C 0.28226 0.68611 0.03069 0.0
C1041 C 0.32326 0.67897 0.05043 0.0
H1042 H 0.36689 0.68456 0.99583 0.0
C1043 C 0.3918 0.64762 0.05808 0.0
C1044 C 0.41371 0.66033 0.04491 0.0
C1045 C 0.37499 0.65522 0.05695 0.0
C1046 C 0.35517 0.68357 1.01134 0.0
H1047 H 0.24557 0.6345 0.98243 0.0
H1048 H 0.28767 0.64762 0.98975 0.0
H1049 H 0.32992 0.68435 0.98512 0.0
H1050 H 0.43587 0.69201 0.02181 0.0
H1051 H 0.40629 0.70499 0.01965 0.0
H1052 H 0.34786 0.67676 0.07651 0.0
C1053 C 0.27976 0.65674 0.99977 0.0
C1054 C 0.33398 0.68328 1.00517 0.0
C1055 C 0.25562 0.64911 0.99573 0.0
C1056 C 0.41908 0.68166 0.03201 0.0
C1057 C 0.40217 0.68913 0.03072 0.0
C1058 C 0.34437 0.67901 0.05658 0.0
C1059 C 0.29312 0.67489 0.01773 0.0
C1060 C 0.31749 0.68017 0.02457 0.0
C1061 C 0.37972 0.67557 0.04252 0.0
C1062 C 0.3601 0.68051 0.03699 0.0
H1063 H 0.25005 0.68724 0.03715 0.0
H1064 H 0.29226 0.70016 0.04461 0.0
H1065 H 0.31074 0.67642 0.06571 0.0
H1066 H 0.38716 0.63122 0.06836 0.0
H1067 H 0.35772 0.6443 0.06605 0.0
C1068 C 0.56848 0.105 0.33028 0.0
C1069 C 0.55075 0.10751 0.34338 0.0
C1070 C 0.5687 0.08343 0.33138 0.0
C1071 C 0.54506 0.02715 0.36872 0.0
H1072 H 0.55127 0.00016 0.30434 0.0
C1073 C 0.52805 0.93074 0.36386 0.0
C1074 C 0.5112 0.91706 0.34485 0.0
C1075 C 0.53931 0.95577 0.36334 0.0
C1076 C 0.54971 0.00756 0.32251 0.0
H1077 H 0.51942 0.08943 0.36799 0.0
H1078 H 0.51963 0.0518 0.36962 0.0
H1079 H 0.55777 0.04085 0.30506 0.0
H1080 H 0.49423 0.91878 0.30942 0.0
H1081 H 0.51367 0.96216 0.30861 0.0
H1082 H 0.53567 0.99341 0.3859 0.0
C1083 C 0.5336 0.0666 0.35884 0.0
C1084 C 0.5536 0.03091 0.32296 0.0
C1085 C 0.53335 0.0881 0.35771 0.0
C1086 C 0.50698 0.92883 0.32448 0.0
C1087 C 0.51831 0.95374 0.32388 0.0
C1088 C 0.54119 0.00382 0.36828 0.0
C1089 C 0.55124 0.064 0.34566 0.0
C1090 C 0.55056 0.04066 0.34592 0.0
C1091 C 0.53408 0.96747 0.34367 0.0
C1092 C 0.54272 0.99352 0.345 0.0
H1093 H 0.58221 0.11967 0.31915 0.0
H1094 H 0.58258 0.08199 0.32114 0.0
H1095 H 0.54299 0.03436 0.38679 0.0
H1096 H 0.53173 0.92214 0.37973 0.0
H1097 H 0.55156 0.96595 0.37872 0.0
C1098 C 0.41714 0.49258 0.66542 0.0
C1099 C 0.39991 0.48575 0.68505 0.0
C1100 C 0.43219 0.48289 0.66426 0.0
C1101 C 0.45977 0.45855 0.70653 0.0
H1102 H 0.48251 0.44667 0.64203 0.0
C1103 C 0.5515 0.46468 0.69681 0.0
C1104 C 0.55335 0.44797 0.681 0.0
C1105 C 0.53018 0.46533 0.69782 0.0
C1106 C 0.47615 0.44958 0.66025 0.0
H1107 H 0.38414 0.46249 0.71814 0.0
H1108 H 0.41066 0.4455 0.71614 0.0
H1109 H 0.44824 0.45301 0.64199 0.0
H1110 H 0.53422 0.41869 0.65403 0.0
H1111 H 0.49701 0.41986 0.65587 0.0
H1112 H 0.4879 0.45546 0.72475 0.0
C1113 C 0.41254 0.45853 0.70178 0.0
C1114 C 0.45664 0.45339 0.66019 0.0
C1115 C 0.3973 0.46816 0.70284 0.0
C1116 C 0.53342 0.43187 0.66631 0.0
C1117 C 0.51211 0.43255 0.66732 0.0
C1118 C 0.47931 0.45477 0.70658 0.0
C1119 C 0.43044 0.46617 0.68276 0.0
C1120 C 0.44862 0.45849 0.68325 0.0
C1121 C 0.51028 0.44931 0.68305 0.0
C1122 C 0.48805 0.45081 0.68337 0.0
H1123 H 0.41951 0.506 0.65131 0.0
H1124 H 0.44596 0.48936 0.64955 0.0
H1125 H 0.45413 0.46262 0.72458 0.0
H1126 H 0.56653 0.47735 0.70834 0.0
H1127 H 0.52946 0.47873 0.70981 0.0
C1128 C 0.91146 0.4243 0.99547 0.0
C1129 C 0.90201 0.40726 0.01538 0.0
C1130 C 0.936 0.44025 0.9939 0.0
C1131 C 0.98871 0.4702 0.03482 0.0
H1132 H 0.0224 0.49083 0.96957 0.0
C1133 C 0.07634 0.55998 0.02319 0.0
C1134 C 0.09464 0.56008 1.00837 0.0
C1135 C 0.05357 0.53967 0.02394 0.0
C1136 C 0.01333 0.4851 0.98797 0.0
H1137 H 0.91095 0.39291 0.04866 0.0
H1138 H 0.95408 0.42101 0.04593 0.0
H1139 H 0.98167 0.45674 0.97069 0.0
H1140 H 0.10333 0.53905 0.98244 0.0
H1141 H 0.06355 0.50362 0.98377 0.0
H1142 H 0.02029 0.4987 0.05206 0.0
C1143 C 0.94235 0.42203 0.03167 0.0
C1144 C 0.98997 0.4657 0.98858 0.0
C1145 C 0.91772 0.4059 0.03315 0.0
C1146 C 0.0896 0.53957 0.99402 0.0
C1147 C 0.06681 0.51928 0.99471 0.0
C1148 C 0.01204 0.48966 0.03418 0.0
C1149 C 0.95166 0.4396 1.01225 0.0
C1150 C 0.9773 0.4583 1.01196 0.0
C1151 C 0.04861 0.51907 1.00982 0.0
C1152 C 0.02444 0.49753 1.0107 0.0
H1153 H 0.89983 0.42573 0.98137 0.0
H1154 H 0.94259 0.45374 0.97888 0.0
H1155 H 0.97932 0.46504 0.05308 0.0
H1156 H 0.07962 0.57551 0.03442 0.0
H1157 H 0.03977 0.54015 0.03542 0.0
C1158 C 0.06358 0.4944 0.38206 0.0
C1159 C 0.07453 0.48867 0.36204 0.0
C1160 C 0.03875 0.48389 0.38316 0.0
C1161 C 0.98754 0.45996 0.34019 0.0
H1162 H 0.95199 0.44605 0.40427 0.0
C1163 C 0.90215 0.46622 0.35016 0.0
C1164 C 0.88323 0.44899 0.36516 0.0
C1165 C 0.92408 0.4668 0.34928 0.0
C1166 C 0.96153 0.44952 0.38616 0.0
H1167 H 0.06804 0.46641 0.32826 0.0
H1168 H 0.02438 0.44801 0.33014 0.0
H1169 H -0.00732 0.45256 0.4045 0.0
H1170 H 0.87244 0.41876 0.39097 0.0
H1171 H 0.91079 0.41983 0.38941 0.0
H1172 H 0.95656 0.45736 0.32191 0.0
C1173 C 0.03514 0.4608 0.34486 0.0
C1174 C 0.98488 0.45341 0.38633 0.0
C1175 C 0.06008 0.47124 0.34386 0.0
C1176 C 0.88671 0.43235 0.3793 0.0
C1177 C 0.90867 0.43296 0.37846 0.0
C1178 C 0.96421 0.45612 0.34003 0.0
C1179 C 0.02429 0.46745 0.36421 0.0
C1180 C -0.00166 0.4593 0.36345 0.0
C1181 C 0.92758 0.45018 0.36341 0.0
C1182 C 0.9512 0.45148 0.36311 0.0
H1183 H 0.07423 0.50765 0.39648 0.0
H1184 H 0.03098 0.48959 0.39814 0.0
H1185 H -0.00249 0.46465 0.32228 0.0
H1186 H 0.90007 0.47932 0.33906 0.0
H1187 H 0.93846 0.48057 0.33787 0.0
C1188 C 0.53306 0.10134 0.70282 0.0
C1189 C 0.55343 0.10478 0.68922 0.0
C1190 C 0.5118 0.07934 0.70189 0.0
C1191 C 0.48004 0.02344 0.66406 0.0
H1192 H 0.4467 -0.00401 0.72827 0.0
C1193 C 0.39675 0.92903 0.66805 0.0
C1194 C 0.39853 0.91421 0.68673 0.0
C1195 C 0.4123 0.95383 0.66872 0.0
C1196 C 0.45574 0.00349 0.71016 0.0
H1197 H 0.56744 0.08783 0.66395 0.0
H1198 H 0.5304 0.04933 0.6626 0.0
H1199 H 0.48137 0.03634 0.72801 0.0
H1200 H 0.41689 0.91379 0.72161 0.0
H1201 H 0.44387 0.95681 0.72274 0.0
H1202 H 0.45504 0.99017 0.64642 0.0
C1203 C 0.53078 0.06378 0.67367 0.0
C1204 C 0.47548 0.02665 0.70998 0.0
C1205 C 0.55207 0.08578 0.67462 0.0
C1206 C 0.41518 0.92472 0.70684 0.0
C1207 C 0.43053 0.94942 0.70761 0.0
C1208 C 0.46025 0.00029 0.66423 0.0
C1209 C 0.51044 0.06032 0.68732 0.0
C1210 C 0.48816 0.03666 0.68702 0.0
C1211 C 0.42967 0.96418 0.68823 0.0
C1212 C 0.44825 0.98988 0.6874 0.0
H1213 H 0.53348 0.11566 0.71417 0.0
H1214 H 0.49636 0.07727 0.71244 0.0
H1215 H 0.48925 0.03084 0.64601 0.0
H1216 H 0.38406 0.92142 0.65235 0.0
H1217 H 0.41112 0.96484 0.65367 0.0
C1218 C 0.45302 0.54232 0.04237 0.0
C1219 C 0.45981 0.55907 0.02232 0.0
C1220 C 0.45265 0.5207 0.03855 0.0
C1221 C 0.4748 0.49039 0.99475 0.0
H1222 H 0.42773 0.43402 0.03171 0.0
C1223 C 0.46941 0.39854 0.98578 0.0
C1224 C 0.47444 0.39179 1.00966 0.0
C1225 C 0.46317 0.41642 0.98457 0.0
C1226 C 0.44078 0.4496 0.0211 0.0
H1227 H 0.47146 0.56645 0.98251 0.0
H1228 H 0.47006 0.52836 0.9755 0.0
H1229 H 0.42639 0.47115 0.03453 0.0
H1230 H 0.47532 0.39693 0.05099 0.0
H1231 H 0.46354 0.42753 0.04892 0.0
H1232 H 0.48899 0.46854 0.98125 0.0
C1233 C 0.46564 0.5321 0.99443 0.0
C1234 C 0.44026 0.47095 0.02292 0.0
C1235 C 0.46644 0.55394 0.99842 0.0
C1236 C 0.47151 0.40188 0.03236 0.0
C1237 C 0.46472 0.41929 0.03119 0.0
C1238 C 0.47502 0.4689 0.99256 0.0
C1239 C 0.45859 0.51512 0.01442 0.0
C1240 C 0.45769 0.49182 1.01036 0.0
C1241 C 0.46127 0.42724 1.00726 0.0
C1242 C 0.45839 0.44853 1.00621 0.0
H1243 H 0.44796 0.5459 0.06106 0.0
H1244 H 0.44778 0.50842 0.05463 0.0
H1245 H 0.48868 0.50609 0.98504 0.0
H1246 H 0.47177 0.39111 0.96801 0.0
H1247 H 0.46059 0.42236 0.96592 0.0
C1248 C 0.48135 0.19201 0.26655 0.0
C1249 C 0.50304 0.19179 0.26573 0.0
C1250 C 0.47264 0.19759 0.24435 0.0
C1251 C 0.48093 0.20483 0.17286 0.0
H1252 H 0.46325 0.25373 0.18173 0.0
C1253 C 0.49036 0.28967 0.11302 0.0
C1254 C 0.48362 0.27996 0.08814 0.0
C1255 C 0.4858 0.27483 0.13437 0.0
C1256 C 0.46804 0.23999 0.17889 0.0
H1257 H 0.53188 0.19593 0.2407 0.0
H1258 H 0.51693 0.20569 0.20249 0.0
H1259 H 0.46837 0.23424 0.21949 0.0
H1260 H 0.46573 0.24691 0.0663 0.0
H1261 H 0.45767 0.22077 0.10382 0.0
H1262 H 0.48209 0.21165 0.13238 0.0
C1263 C 0.50645 0.20149 0.22002 0.0
C1264 C 0.4707 0.2286 0.20057 0.0
C1265 C 0.51518 0.1961 0.24209 0.0
C1266 C 0.47118 0.25492 0.08523 0.0
C1267 C 0.46671 0.23998 0.1067 0.0
C1268 C 0.47831 0.21625 0.15119 0.0
C1269 C 0.48532 0.20277 0.2209 0.0
C1270 C 0.47803 0.21148 0.19787 0.0
C1271 C 0.47439 0.24981 0.13148 0.0
C1272 C 0.47266 0.23459 0.15398 0.0
H1273 H 0.47158 0.18874 0.28449 0.0
H1274 H 0.4562 0.19826 0.24565 0.0
H1275 H 0.48617 0.19142 0.17005 0.0
H1276 H 0.49985 0.30889 0.11601 0.0
H1277 H 0.49229 0.28313 0.153 0.0
C1278 C 0.18902 0.51121 0.45713 0.0
C1279 C 0.19807 0.51008 0.43291 0.0
C1280 C 0.1977 0.50619 0.47953 0.0
C1281 C 0.23773 0.48323 0.50362 0.0
H1282 H 0.24133 0.52075 0.56368 0.0
C1283 C 0.30372 0.50762 0.58963 0.0
C1284 C 0.29371 0.50355 0.61447 0.0
C1285 C 0.28948 0.5038 0.56787 0.0
C1286 C 0.24016 0.50993 0.54715 0.0
H1287 H 0.22294 0.5024 0.4129 0.0
H1288 H 0.23927 0.49503 0.45199 0.0
H1289 H 0.22183 0.52353 0.52488 0.0
H1290 H 0.26089 0.49175 0.63605 0.0
H1291 H 0.23607 0.48591 0.59785 0.0
H1292 H 0.25779 0.47113 0.52586 0.0
C1293 C 0.2248 0.49888 0.45389 0.0
C1294 C 0.22882 0.51135 0.52483 0.0
C1295 C 0.21557 0.50324 0.43139 0.0
C1296 C 0.26902 0.49489 0.61712 0.0
C1297 C 0.25487 0.49164 0.59534 0.0
C1298 C 0.2496 0.48229 0.52581 0.0
C1299 C 0.21628 0.50067 0.47839 0.0
C1300 C 0.22747 0.49811 0.50261 0.0
C1301 C 0.26507 0.49636 0.57056 0.0
C1302 C 0.25096 0.49568 0.54773 0.0
H1303 H 0.17527 0.51614 0.45879 0.0
H1304 H 0.18997 0.50697 0.49777 0.0
H1305 H 0.23674 0.47236 0.48725 0.0
H1306 H 0.3227 0.51425 0.58704 0.0
H1307 H 0.29777 0.50772 0.54899 0.0
C1308 C 0.78776 0.30296 0.92201 0.0
C1309 C 0.78221 0.29339 0.94705 0.0
C1310 C 0.77841 0.28805 0.90049 0.0
C1311 C 0.72531 0.23579 0.87989 0.0
H1312 H 0.76186 0.23524 0.82078 0.0
C1313 C 0.67573 0.18519 0.78866 0.0
C1314 C 0.686 0.19545 0.76486 0.0
C1315 C 0.68921 0.19312 0.8113 0.0
C1316 C 0.75128 0.23535 0.83692 0.0
H1317 H 0.76297 0.26067 0.96925 0.0
H1318 H 0.74579 0.23461 0.93143 0.0
H1319 H 0.7827 0.25734 0.85955 0.0
H1320 H 0.71835 0.22164 0.74568 0.0
H1321 H 0.74169 0.23661 0.78519 0.0
H1322 H 0.694 0.21564 0.85721 0.0
C1323 C 0.75777 0.25363 0.92859 0.0
C1324 C 0.7633 0.24785 0.85923 0.0
C1325 C 0.76764 0.26849 0.95016 0.0
C1326 C 0.71022 0.21319 0.76385 0.0
C1327 C 0.72357 0.22171 0.78662 0.0
C1328 C 0.7133 0.22382 0.85746 0.0
C1329 C 0.76287 0.26334 0.90358 0.0
C1330 C 0.7504 0.2483 0.88084 0.0
C1331 C 0.71305 0.21227 0.81084 0.0
C1332 C 0.72605 0.22353 0.83546 0.0
H1333 H 0.79899 0.32209 0.91905 0.0
H1334 H 0.78245 0.296 0.88144 0.0
H1335 H 0.71496 0.23619 0.89616 0.0
H1336 H 0.657 0.1715 0.78984 0.0
H1337 H 0.68055 0.18468 0.82925 0.0
C1338 C 0.50581 0.71856 0.09343 0.0
C1339 C 0.49721 0.69415 0.09829 0.0
C1340 C 0.51079 0.73451 0.11398 0.0
C1341 C 0.52206 0.74395 0.1837 0.0
H1342 H 0.48046 0.77128 0.18153 0.0
C1343 C 0.4969 0.77734 0.27572 0.0
C1344 C 0.48983 0.79462 0.27341 0.0
C1345 C 0.50256 0.76851 0.25372 0.0
C1346 C 0.49275 0.76445 0.18242 0.0
H1347 H 0.48877 0.66755 0.1281 0.0
H1348 H 0.49835 0.69555 0.16388 0.0
H1349 H 0.48399 0.75095 0.14388 0.0
H1350 H 0.48472 0.81749 0.2467 0.0
H1351 H 0.49598 0.80339 0.20865 0.0
H1352 H 0.53106 0.75755 0.22214 0.0
C1353 C 0.50096 0.70233 0.14434 0.0
C1354 C 0.49466 0.75267 0.16072 0.0
C1355 C 0.49543 0.68632 0.12388 0.0
C1356 C 0.4898 0.80389 0.24896 0.0
C1357 C 0.49605 0.79558 0.22709 0.0
C1358 C 0.52057 0.75621 0.20529 0.0
C1359 C 0.50784 0.72638 0.13961 0.0
C1360 C 0.50893 0.74188 0.16131 0.0
C1361 C 0.50181 0.77721 0.22897 0.0
C1362 C 0.50545 0.7662 0.2052 0.0
H1363 H 0.50708 0.72496 0.07387 0.0
H1364 H 0.51608 0.75299 0.10987 0.0
H1365 H 0.53322 0.73578 0.1846 0.0
H1366 H 0.49694 0.76979 0.29437 0.0
H1367 H 0.50654 0.75418 0.25615 0.0
C1368 C 0.68288 0.49964 0.58757 0.0
C1369 C 0.69075 0.49606 0.61143 0.0
C1370 C 0.6978 0.50617 0.56595 0.0
C1371 C 0.7599 0.52165 0.5439 0.0
H1372 H 0.7257 0.49141 0.48095 0.0
C1373 C 0.79426 0.48703 0.46051 0.0
C1374 C 0.79081 0.49234 0.43515 0.0
C1375 C 0.78576 0.49431 0.48141 0.0
C1376 C 0.73553 0.50032 0.49825 0.0
H1377 H 0.72035 0.49685 0.63184 0.0
H1378 H 0.74606 0.5069 0.59401 0.0
H1379 H 0.70346 0.49112 0.51877 0.0
H1380 H 0.77647 0.51004 0.41171 0.0
H1381 H 0.76069 0.52206 0.44845 0.0
H1382 H 0.79183 0.52888 0.52339 0.0
C1383 C 0.72884 0.50581 0.59185 0.0
C1384 C 0.72279 0.50032 0.52007 0.0
C1385 C 0.71412 0.5 0.61366 0.0
C1386 C 0.77954 0.50593 0.43109 0.0
C1387 C 0.77044 0.51268 0.45204 0.0
C1388 C 0.77257 0.52111 0.52217 0.0
C1389 C 0.72063 0.50827 0.56743 0.0
C1390 C 0.73469 0.51067 0.54343 0.0
C1391 C 0.7731 0.50653 0.47736 0.0
C1392 C 0.76044 0.51017 0.49926 0.0
H1393 H 0.66481 0.49655 0.58545 0.0
H1394 H 0.69097 0.50868 0.54788 0.0
H1395 H 0.76991 0.5303 0.56116 0.0
H1396 H 0.80286 0.47652 0.46414 0.0
H1397 H 0.78785 0.48914 0.50068 0.0
C1398 C 0.21366 0.71497 0.94119 0.0
C1399 C 0.19718 0.69035 0.93993 0.0
C1400 C 0.22211 0.7285 0.9185 0.0
C1401 C 0.22665 0.71917 0.84785 0.0
H1402 H 0.25446 0.78817 0.84537 0.0
C1403 C 0.26713 0.77443 0.75477 0.0
C1404 C 0.29175 0.7907 0.75756 0.0
C1405 C 0.25278 0.76383 0.77653 0.0
C1406 C 0.24658 0.76887 0.84581 0.0
H1407 H 0.17525 0.66079 0.91453 0.0
H1408 H 0.18829 0.68449 0.87524 0.0
H1409 H 0.23332 0.76629 0.88418 0.0
H1410 H 0.32036 0.80975 0.78516 0.0
H1411 H 0.29506 0.79188 0.82314 0.0
H1412 H 0.23959 0.72191 0.80923 0.0
C1413 C 0.1959 0.69338 0.89335 0.0
C1414 C 0.23465 0.75628 0.86813 0.0
C1415 C 0.18808 0.67978 0.9159 0.0
C1416 C 0.30144 0.7972 0.78247 0.0
C1417 C 0.28699 0.78709 0.80418 0.0
C1418 C 0.23803 0.73168 0.82541 0.0
C1419 C 0.21379 0.71775 0.89412 0.0
C1420 C 0.22481 0.73123 0.86968 0.0
C1421 C 0.26268 0.76986 0.80141 0.0
C1422 C 0.24842 0.75666 0.8243 0.0
H1423 H 0.22114 0.72339 0.95955 0.0
H1424 H 0.23604 0.74707 0.92014 0.0
H1425 H 0.22007 0.70009 0.84821 0.0
H1426 H 0.25924 0.769 0.73579 0.0
H1427 H 0.23407 0.75055 0.77394 0.0
loop_
_geom_bond_atom_site_label_1
_geom_bond_atom_site_label_2
_geom_bond_distance
_geom_bond_site_symmetry_2
_ccdc_geom_bond_type
Co0 O2 2.143 . S
Co0 O8 2.074 . S
Co0 O11 2.093 . S
Co0 O24 2.097 . S
Co0 N41 2.151 . S
Co0 N49 2.214 . S
Co1 O2 2.160 . S
Co1 O7 2.058 . S
Co1 O17 2.057 . S
Co1 O32 2.037 . S
Co1 N36 2.145 . S
Co1 N57 2.257 . S
O2 Co0 2.143 . S
O2 Co1 2.160 . S
C3 O4 1.278 . S
C3 O11 1.224 . S
O4 C3 1.278 . S
C5 O6 1.245 . S
C5 O17 1.232 . S
O6 C5 1.245 . S
O7 Co1 2.058 . S
O7 C33 1.269 . S
O8 Co0 2.074 . S
O8 C33 1.257 . S
H9 C34 0.930 . S
H10 C40 0.930 . S
O11 Co0 2.093 . S
O11 C3 1.224 . S
H12 C44 0.929 . S
H13 C46 0.930 . S
H14 C47 0.930 . S
H15 C45 0.929 . S
H16 C48 0.928 . S
O17 Co1 2.057 . S
O17 C5 1.232 . S
H18 C37 0.929 . S
H19 C38 0.929 . S
H20 C50 0.931 . S
H21 C42 0.929 . S
H22 C51 0.930 . S
H23 C43 0.931 . S
O24 Co0 2.097 . S
O24 C52 1.214 . S
H25 C53 0.929 . S
H26 C54 0.929 . S
H27 C55 0.930 . S
H28 C56 0.929 . S
H29 C58 0.930 . S
H30 C35 0.930 . S
H31 C39 0.930 . S
O32 Co1 2.037 . S
O32 C52 1.234 . S
C33 O7 1.269 . S
C33 O8 1.257 . S
C34 H9 0.930 . S
C34 C37 1.388 . S
C34 C39 1.418 . S
C35 H30 0.930 . S
C35 C38 1.404 . S
C35 C39 1.353 . S
N36 Co1 2.145 . S
N36 C37 1.397 . S
N36 C38 1.334 . S
C37 H18 0.929 . S
C37 C34 1.388 . S
C37 N36 1.397 . S
C38 H19 0.929 . S
C38 C35 1.404 . S
C38 N36 1.334 . S
C39 H31 0.930 . S
C39 C34 1.418 . S
C39 C35 1.353 . S
C40 H10 0.930 . S
C40 N41 1.330 . S
C40 C42 1.446 . S
N41 Co0 2.151 . S
N41 C40 1.330 . S
N41 C45 1.418 . S
C42 H21 0.929 . S
C42 C40 1.446 . S
C42 C43 1.332 . S
C43 H23 0.931 . S
C43 C42 1.332 . S
C43 C44 1.267 . S
C44 H12 0.929 . S
C44 C43 1.267 . S
C44 C45 1.251 . S
C45 H15 0.929 . S
C45 N41 1.418 . S
C45 C44 1.251 . S
C46 H13 0.930 . S
C46 C48 1.406 . S
C46 C51 1.261 . S
C47 H14 0.930 . S
C47 N49 1.325 . S
C47 C50 1.357 . S
C48 H16 0.928 . S
C48 C46 1.406 . S
C48 N49 1.261 . S
N49 Co0 2.214 . S
N49 C47 1.325 . S
N49 C48 1.261 . S
C50 H20 0.931 . S
C50 C47 1.357 . S
C50 C51 1.312 . S
C51 H22 0.930 . S
C51 C46 1.261 . S
C51 C50 1.312 . S
C52 O24 1.214 . S
C52 O32 1.234 . S
C53 H25 0.929 . S
C53 C56 1.391 . S
C53 C58 1.391 . S
C54 H26 0.929 . S
C54 C55 1.390 . S
C54 N57 1.391 . S
C55 H27 0.930 . S
C55 C54 1.390 . S
C55 C56 1.392 . S
C56 H28 0.929 . S
C56 C53 1.391 . S
C56 C55 1.392 . S
N57 Co1 2.257 . S
N57 C54 1.391 . S
N57 C58 1.388 . S
C58 H29 0.930 . S
C58 C53 1.391 . S
C58 N57 1.388 . S
Co59 O61 2.143 . S
Co59 O67 2.074 . S
Co59 O70 2.093 . S
Co59 O83 2.097 . S
Co59 N100 2.151 . S
Co59 N108 2.214 . S
Co60 O61 2.160 . S
Co60 O66 2.058 . S
Co60 O76 2.057 . S
Co60 O91 2.037 . S
Co60 N95 2.145 . S
Co60 N116 2.257 . S
O61 Co59 2.143 . S
O61 Co60 2.160 . S
C62 O63 1.278 . S
C62 O70 1.224 . S
O63 C62 1.278 . S
C64 O65 1.245 . S
C64 O76 1.232 . S
O65 C64 1.245 . S
O66 Co60 2.058 . S
O66 C92 1.269 . S
O67 Co59 2.074 . S
O67 C92 1.257 . S
H68 C93 0.930 . S
H69 C99 0.930 . S
O70 Co59 2.093 . S
O70 C62 1.224 . S
H71 C103 0.929 . S
H72 C105 0.930 . S
H73 C106 0.930 . S
H74 C104 0.929 . S
H75 C107 0.928 . S
O76 Co60 2.057 . S
O76 C64 1.232 . S
H77 C96 0.929 . S
H78 C97 0.929 . S
H79 C109 0.931 . S
H80 C101 0.929 . S
H81 C110 0.930 . S
H82 C102 0.931 . S
O83 Co59 2.097 . S
O83 C111 1.214 . S
H84 C112 0.929 . S
H85 C113 0.929 . S
H86 C114 0.930 . S
H87 C115 0.929 . S
H88 C117 0.930 . S
H89 C94 0.930 . S
H90 C98 0.930 . S
O91 Co60 2.037 . S
O91 C111 1.234 . S
C92 O66 1.269 . S
C92 O67 1.257 . S
C93 H68 0.930 . S
C93 C96 1.388 . S
C93 C98 1.418 . S
C94 H89 0.930 . S
C94 C97 1.404 . S
C94 C98 1.353 . S
N95 Co60 2.145 . S
N95 C96 1.397 . S
N95 C97 1.334 . S
C96 H77 0.929 . S
C96 C93 1.388 . S
C96 N95 1.397 . S
C97 H78 0.929 . S
C97 C94 1.404 . S
C97 N95 1.334 . S
C98 H90 0.930 . S
C98 C93 1.418 . S
C98 C94 1.353 . S
C99 H69 0.930 . S
C99 N100 1.330 . S
C99 C101 1.446 . S
N100 Co59 2.151 . S
N100 C99 1.330 . S
N100 C104 1.418 . S
C101 H80 0.929 . S
C101 C99 1.446 . S
C101 C102 1.332 . S
C102 H82 0.931 . S
C102 C101 1.332 . S
C102 C103 1.267 . S
C103 H71 0.929 . S
C103 C102 1.267 . S
C103 C104 1.251 . S
C104 H74 0.929 . S
C104 N100 1.418 . S
C104 C103 1.251 . S
C105 H72 0.930 . S
C105 C107 1.406 . S
C105 C110 1.261 . S
C106 H73 0.930 . S
C106 N108 1.325 . S
C106 C109 1.357 . S
C107 H75 0.928 . S
C107 C105 1.406 . S
C107 N108 1.261 . S
N108 Co59 2.214 . S
N108 C106 1.325 . S
N108 C107 1.261 . S
C109 H79 0.931 . S
C109 C106 1.357 . S
C109 C110 1.312 . S
C110 H81 0.930 . S
C110 C105 1.261 . S
C110 C109 1.312 . S
C111 O83 1.214 . S
C111 O91 1.234 . S
C112 H84 0.929 . S
C112 C115 1.391 . S
C112 C117 1.391 . S
C113 H85 0.929 . S
C113 C114 1.390 . S
C113 N116 1.391 . S
C114 H86 0.930 . S
C114 C113 1.390 . S
C114 C115 1.392 . S
C115 H87 0.929 . S
C115 C112 1.391 . S
C115 C114 1.392 . S
N116 Co60 2.257 . S
N116 C113 1.391 . S
N116 C117 1.388 . S
C117 H88 0.930 . S
C117 C112 1.391 . S
C117 N116 1.388 . S
Co118 O120 2.143 . S
Co118 O126 2.074 1_556 S
Co118 O129 2.093 . S
Co118 O142 2.097 . S
Co118 N159 2.151 1_556 S
Co118 N167 2.214 1_556 S
Co119 O120 2.174 . S
Co119 O125 2.024 1_556 S
Co119 O135 2.066 . S
Co119 O150 2.035 1_556 S
Co119 N154 2.133 1_556 S
Co119 N175 2.292 . S
O120 Co118 2.143 . S
O120 Co119 2.174 . S
C121 O122 1.278 . S
C121 O129 1.224 . S
O122 C121 1.278 . S
C123 O124 1.245 . S
C123 O135 1.232 . S
O124 C123 1.245 . S
O125 Co119 2.024 1_554 S
O125 C151 1.269 . S
O126 Co118 2.074 1_554 S
O126 C151 1.257 . S
H127 C152 0.930 . S
H128 C158 0.930 . S
O129 Co118 2.093 . S
O129 C121 1.224 . S
H130 C162 0.929 . S
H131 C164 0.930 . S
H132 C165 0.930 . S
H133 C163 0.929 . S
H134 C166 0.906 1_556 S
O135 Co119 2.066 . S
O135 C123 1.232 . S
H136 C155 0.929 . S
H137 C156 0.929 1_556 S
H138 C168 0.931 . S
H139 C160 0.929 . S
H140 C169 0.930 . S
H141 C161 0.931 . S
O142 Co118 2.097 . S
O142 C170 1.214 . S
H143 C171 0.929 . S
H144 C172 0.929 . S
H145 C173 0.930 . S
H146 C174 0.929 . S
H147 C176 0.930 . S
H148 C153 0.930 . S
H149 C157 0.930 . S
O150 Co119 2.035 1_554 S
O150 C170 1.234 1_554 S
C151 O125 1.269 . S
C151 O126 1.257 . S
C152 H127 0.930 . S
C152 C155 1.388 . S
C152 C157 1.418 . S
C153 H148 0.930 . S
C153 C156 1.404 . S
C153 C157 1.353 . S
N154 Co119 2.133 1_554 S
N154 C155 1.397 . S
N154 C156 1.334 . S
C155 H136 0.929 . S
C155 C152 1.388 . S
C155 N154 1.397 . S
C156 H137 0.929 1_554 S
C156 C153 1.404 . S
C156 N154 1.334 . S
C157 H149 0.930 . S
C157 C152 1.418 . S
C157 C153 1.353 . S
C158 H128 0.930 . S
C158 N159 1.330 1_556 S
C158 C160 1.446 . S
N159 Co118 2.151 1_554 S
N159 C158 1.330 1_554 S
N159 C163 1.418 . S
C160 H139 0.929 . S
C160 C158 1.446 . S
C160 C161 1.332 1_556 S
C161 H141 0.931 . S
C161 C160 1.332 1_554 S
C161 C162 1.267 . S
C162 H130 0.929 . S
C162 C161 1.267 . S
C162 C163 1.251 . S
C163 H133 0.929 . S
C163 N159 1.418 . S
C163 C162 1.251 . S
C164 H131 0.930 . S
C164 C166 1.406 . S
C164 C169 1.261 . S
C165 H132 0.930 . S
C165 N167 1.325 . S
C165 C168 1.357 . S
C166 H134 0.906 1_554 S
C166 C164 1.406 . S
C166 N167 1.261 . S
N167 Co118 2.214 1_554 S
N167 C165 1.325 . S
N167 C166 1.261 . S
C168 H138 0.931 . S
C168 C165 1.357 . S
C168 C169 1.312 . S
C169 H140 0.930 . S
C169 C164 1.261 . S
C169 C168 1.312 . S
C170 O142 1.214 . S
C170 O150 1.234 1_556 S
C171 H143 0.929 . S
C171 C174 1.391 . S
C171 C176 1.391 . S
C172 H144 0.929 . S
C172 C173 1.390 . S
C172 N175 1.391 . S
C173 H145 0.930 . S
C173 C172 1.390 . S
C173 C174 1.392 . S
C174 H146 0.929 . S
C174 C171 1.391 . S
C174 C173 1.392 . S
N175 Co119 2.292 . S
N175 C172 1.391 . S
N175 C176 1.388 . S
C176 H147 0.930 . S
C176 C171 1.391 . S
C176 N175 1.388 . S
Co177 O179 2.143 . S
Co177 O185 2.074 . S
Co177 O188 2.093 . S
Co177 O201 2.097 . S
Co177 N218 2.151 . S
Co177 N226 2.214 . S
Co178 O179 2.160 . S
Co178 O184 2.058 . S
Co178 O194 2.057 . S
Co178 O209 2.037 . S
Co178 N213 2.145 . S
Co178 N234 2.257 . S
O179 Co177 2.143 . S
O179 Co178 2.160 . S
C180 O181 1.278 . S
C180 O188 1.224 . S
O181 C180 1.278 . S
C182 O183 1.245 . S
C182 O194 1.232 . S
O183 C182 1.245 . S
O184 Co178 2.058 . S
O184 C210 1.269 . S
O185 Co177 2.074 . S
O185 C210 1.257 . S
H186 C211 0.930 . S
H187 C217 0.930 . S
O188 Co177 2.093 . S
O188 C180 1.224 . S
H189 C221 0.929 . S
H190 C223 0.930 . S
H191 C224 0.930 . S
H192 C222 0.929 . S
H193 C225 0.928 . S
O194 Co178 2.057 . S
O194 C182 1.232 . S
H195 C214 0.929 . S
H196 C215 0.929 . S
H197 C227 0.931 . S
H198 C219 0.929 . S
H199 C228 0.930 . S
H200 C220 0.931 . S
O201 Co177 2.097 . S
O201 C229 1.214 . S
H202 C230 0.929 . S
H203 C231 0.929 . S
H204 C232 0.930 . S
H205 C233 0.929 . S
H206 C235 0.930 . S
H207 C212 0.930 . S
H208 C216 0.930 . S
O209 Co178 2.037 . S
O209 C229 1.234 . S
C210 O184 1.269 . S
C210 O185 1.257 . S
C211 H186 0.930 . S
C211 C214 1.388 . S
C211 C216 1.418 . S
C212 H207 0.930 . S
C212 C215 1.404 . S
C212 C216 1.353 . S
N213 Co178 2.145 . S
N213 C214 1.397 . S
N213 C215 1.334 . S
C214 H195 0.929 . S
C214 C211 1.388 . S
C214 N213 1.397 . S
C215 H196 0.929 . S
C215 C212 1.404 . S
C215 N213 1.334 . S
C216 H208 0.930 . S
C216 C211 1.418 . S
C216 C212 1.353 . S
C217 H187 0.930 . S
C217 N218 1.330 . S
C217 C219 1.446 . S
N218 Co177 2.151 . S
N218 C217 1.330 . S
N218 C222 1.418 . S
C219 H198 0.929 . S
C219 C217 1.446 . S
C219 C220 1.332 . S
C220 H200 0.931 . S
C220 C219 1.332 . S
C220 C221 1.267 . S
C221 H189 0.929 . S
C221 C220 1.267 . S
C221 C222 1.251 . S
C222 H192 0.929 . S
C222 N218 1.418 . S
C222 C221 1.251 . S
C223 H190 0.930 . S
C223 C225 1.406 . S
C223 C228 1.261 . S
C224 H191 0.930 . S
C224 N226 1.325 . S
C224 C227 1.357 . S
C225 H193 0.928 . S
C225 C223 1.406 . S
C225 N226 1.261 . S
N226 Co177 2.214 . S
N226 C224 1.325 . S
N226 C225 1.261 . S
C227 H197 0.931 . S
C227 C224 1.357 . S
C227 C228 1.312 . S
C228 H199 0.930 . S
C228 C223 1.261 . S
C228 C227 1.312 . S
C229 O201 1.214 . S
C229 O209 1.234 . S
C230 H202 0.929 . S
C230 C233 1.391 . S
C230 C235 1.391 . S
C231 H203 0.929 . S
C231 C232 1.390 . S
C231 N234 1.391 . S
C232 H204 0.930 . S
C232 C231 1.390 . S
C232 C233 1.392 . S
C233 H205 0.929 . S
C233 C230 1.391 . S
C233 C232 1.392 . S
N234 Co178 2.257 . S
N234 C231 1.391 . S
N234 C235 1.388 . S
C235 H206 0.930 . S
C235 C230 1.391 . S
C235 N234 1.388 . S
Co236 O238 2.143 . S
Co236 O244 2.074 . S
Co236 O247 2.093 . S
Co236 O260 2.097 . S
Co236 N277 2.151 . S
Co236 N285 2.214 . S
Co237 O238 2.160 . S
Co237 O243 2.058 . S
Co237 O253 2.057 . S
Co237 O268 2.037 . S
Co237 N272 2.145 . S
Co237 N293 2.257 . S
O238 Co236 2.143 . S
O238 Co237 2.160 . S
C239 O240 1.278 . S
C239 O247 1.224 . S
O240 C239 1.278 . S
C241 O242 1.245 . S
C241 O253 1.232 . S
O242 C241 1.245 . S
O243 Co237 2.058 . S
O243 C269 1.269 . S
O244 Co236 2.074 . S
O244 C269 1.257 . S
H245 C270 0.930 . S
H246 C276 0.930 . S
O247 Co236 2.093 . S
O247 C239 1.224 . S
H248 C280 0.929 . S
H249 C282 0.930 . S
H250 C283 0.930 . S
H251 C281 0.929 . S
H252 C284 0.928 . S
O253 Co237 2.057 . S
O253 C241 1.232 . S
H254 C273 0.929 . S
H255 C274 0.929 . S
H256 C286 0.931 . S
H257 C278 0.929 . S
H258 C287 0.930 . S
H259 C279 0.931 . S
O260 Co236 2.097 . S
O260 C288 1.214 . S
H261 C289 0.929 . S
H262 C290 0.929 . S
H263 C291 0.930 . S
H264 C292 0.929 . S
H265 C294 0.930 . S
H266 C271 0.930 . S
H267 C275 0.930 . S
O268 Co237 2.037 . S
O268 C288 1.234 . S
C269 O243 1.269 . S
C269 O244 1.257 . S
C270 H245 0.930 . S
C270 C273 1.388 . S
C270 C275 1.418 . S
C271 H266 0.930 . S
C271 C274 1.404 . S
C271 C275 1.353 . S
N272 Co237 2.145 . S
N272 C273 1.397 . S
N272 C274 1.334 . S
C273 H254 0.929 . S
C273 C270 1.388 . S
C273 N272 1.397 . S
C274 H255 0.929 . S
C274 C271 1.404 . S
C274 N272 1.334 . S
C275 H267 0.930 . S
C275 C270 1.418 . S
C275 C271 1.353 . S
C276 H246 0.930 . S
C276 N277 1.330 . S
C276 C278 1.446 . S
N277 Co236 2.151 . S
N277 C276 1.330 . S
N277 C281 1.418 . S
C278 H257 0.929 . S
C278 C276 1.446 . S
C278 C279 1.332 . S
C279 H259 0.931 . S
C279 C278 1.332 . S
C279 C280 1.267 . S
C280 H248 0.929 . S
C280 C279 1.267 . S
C280 C281 1.251 . S
C281 H251 0.929 . S
C281 N277 1.418 . S
C281 C280 1.251 . S
C282 H249 0.930 . S
C282 C284 1.406 . S
C282 C287 1.261 . S
C283 H250 0.930 . S
C283 N285 1.325 . S
C283 C286 1.357 . S
C284 H252 0.928 . S
C284 C282 1.406 . S
C284 N285 1.261 . S
N285 Co236 2.214 . S
N285 C283 1.325 . S
N285 C284 1.261 . S
C286 H256 0.931 . S
C286 C283 1.357 . S
C286 C287 1.312 . S
C287 H258 0.930 . S
C287 C282 1.261 . S
C287 C286 1.312 . S
C288 O260 1.214 . S
C288 O268 1.234 . S
C289 H261 0.929 . S
C289 C292 1.391 . S
C289 C294 1.391 . S
C290 H262 0.929 . S
C290 C291 1.390 . S
C290 N293 1.391 . S
C291 H263 0.930 . S
C291 C290 1.390 . S
C291 C292 1.392 . S
C292 H264 0.929 . S
C292 C289 1.391 . S
C292 C291 1.392 . S
N293 Co237 2.257 . S
N293 C290 1.391 . S
N293 C294 1.388 . S
C294 H265 0.930 . S
C294 C289 1.391 . S
C294 N293 1.388 . S
Co295 O297 2.143 . S
Co295 O303 2.074 1_556 S
Co295 O306 2.093 . S
Co295 O319 2.097 . S
Co295 N336 2.151 1_556 S
Co295 N344 2.214 1_556 S
Co296 O297 2.174 . S
Co296 O302 2.024 1_556 S
Co296 O312 2.066 . S
Co296 O327 2.035 1_556 S
Co296 N331 2.133 1_556 S
Co296 N352 2.292 . S
O297 Co295 2.143 . S
O297 Co296 2.174 . S
C298 O299 1.278 . S
C298 O306 1.224 . S
O299 C298 1.278 . S
C300 O301 1.245 . S
C300 O312 1.232 . S
O301 C300 1.245 . S
O302 Co296 2.024 1_554 S
O302 C328 1.269 . S
O303 Co295 2.074 1_554 S
O303 C328 1.257 . S
H304 C329 0.930 . S
H305 C335 0.930 . S
O306 Co295 2.093 . S
O306 C298 1.224 . S
H307 C339 0.929 . S
H308 C341 0.930 . S
H309 C342 0.930 . S
H310 C340 0.929 . S
H311 C343 0.906 1_556 S
O312 Co296 2.066 . S
O312 C300 1.232 . S
H313 C332 0.929 . S
H314 C333 0.929 1_556 S
H315 C345 0.931 . S
H316 C337 0.929 . S
H317 C346 0.930 . S
H318 C338 0.931 . S
O319 Co295 2.097 . S
O319 C347 1.214 . S
H320 C348 0.929 . S
H321 C349 0.929 . S
H322 C350 0.930 . S
H323 C351 0.929 . S
H324 C353 0.930 . S
H325 C330 0.930 . S
H326 C334 0.930 . S
O327 Co296 2.035 1_554 S
O327 C347 1.234 1_554 S
C328 O302 1.269 . S
C328 O303 1.257 . S
C329 H304 0.930 . S
C329 C332 1.388 . S
C329 C334 1.418 . S
C330 H325 0.930 . S
C330 C333 1.404 . S
C330 C334 1.353 . S
N331 Co296 2.133 1_554 S
N331 C332 1.397 . S
N331 C333 1.334 . S
C332 H313 0.929 . S
C332 C329 1.388 . S
C332 N331 1.397 . S
C333 H314 0.929 1_554 S
C333 C330 1.404 . S
C333 N331 1.334 . S
C334 H326 0.930 . S
C334 C329 1.418 . S
C334 C330 1.353 . S
C335 H305 0.930 . S
C335 N336 1.330 1_556 S
C335 C337 1.446 . S
N336 Co295 2.151 1_554 S
N336 C335 1.330 1_554 S
N336 C340 1.418 . S
C337 H316 0.929 . S
C337 C335 1.446 . S
C337 C338 1.332 1_556 S
C338 H318 0.931 . S
C338 C337 1.332 1_554 S
C338 C339 1.267 . S
C339 H307 0.929 . S
C339 C338 1.267 . S
C339 C340 1.251 . S
C340 H310 0.929 . S
C340 N336 1.418 . S
C340 C339 1.251 . S
C341 H308 0.930 . S
C341 C343 1.406 . S
C341 C346 1.261 . S
C342 H309 0.930 . S
C342 N344 1.325 . S
C342 C345 1.357 . S
C343 H311 0.906 1_554 S
C343 C341 1.406 . S
C343 N344 1.261 . S
N344 Co295 2.214 1_554 S
N344 C342 1.325 . S
N344 C343 1.261 . S
C345 H315 0.931 . S
C345 C342 1.357 . S
C345 C346 1.312 . S
C346 H317 0.930 . S
C346 C341 1.261 . S
C346 C345 1.312 . S
C347 O319 1.214 . S
C347 O327 1.234 1_556 S
C348 H320 0.929 . S
C348 C351 1.391 . S
C348 C353 1.391 . S
C349 H321 0.929 . S
C349 C350 1.390 . S
C349 N352 1.391 . S
C350 H322 0.930 . S
C350 C349 1.390 . S
C350 C351 1.392 . S
C351 H323 0.929 . S
C351 C348 1.391 . S
C351 C350 1.392 . S
N352 Co296 2.292 . S
N352 C349 1.391 . S
N352 C353 1.388 . S
C353 H324 0.930 . S
C353 C348 1.391 . S
C353 N352 1.388 . S
Co354 O356 2.143 . S
Co354 O362 2.074 . S
Co354 O365 2.093 . S
Co354 O378 2.097 . S
Co354 N395 2.151 . S
Co354 N403 2.214 . S
Co355 O356 2.160 . S
Co355 O361 2.058 . S
Co355 O371 2.057 . S
Co355 O386 2.037 . S
Co355 N390 2.145 . S
Co355 N411 2.257 . S
O356 Co354 2.143 . S
O356 Co355 2.160 . S
C357 O358 1.278 . S
C357 O365 1.224 . S
O358 C357 1.278 . S
C359 O360 1.245 . S
C359 O371 1.232 . S
O360 C359 1.245 . S
O361 Co355 2.058 . S
O361 C387 1.269 . S
O362 Co354 2.074 . S
O362 C387 1.257 . S
H363 C388 0.930 . S
H364 C394 0.930 . S
O365 Co354 2.093 . S
O365 C357 1.224 . S
H366 C398 0.929 . S
H367 C400 0.930 . S
H368 C401 0.930 . S
H369 C399 0.929 . S
H370 C402 0.928 . S
O371 Co355 2.057 . S
O371 C359 1.232 . S
H372 C391 0.929 . S
H373 C392 0.929 . S
H374 C404 0.931 . S
H375 C396 0.929 . S
H376 C405 0.930 . S
H377 C397 0.931 . S
O378 Co354 2.097 . S
O378 C406 1.214 . S
H379 C407 0.929 . S
H380 C408 0.929 . S
H381 C409 0.930 . S
H382 C410 0.929 . S
H383 C412 0.930 . S
H384 C389 0.930 . S
H385 C393 0.930 . S
O386 Co355 2.037 . S
O386 C406 1.234 . S
C387 O361 1.269 . S
C387 O362 1.257 . S
C388 H363 0.930 . S
C388 C391 1.388 . S
C388 C393 1.418 . S
C389 H384 0.930 . S
C389 C392 1.404 . S
C389 C393 1.353 . S
N390 Co355 2.145 . S
N390 C391 1.397 . S
N390 C392 1.334 . S
C391 H372 0.929 . S
C391 C388 1.388 . S
C391 N390 1.397 . S
C392 H373 0.929 . S
C392 C389 1.404 . S
C392 N390 1.334 . S
C393 H385 0.930 . S
C393 C388 1.418 . S
C393 C389 1.353 . S
C394 H364 0.930 . S
C394 N395 1.330 . S
C394 C396 1.446 . S
N395 Co354 2.151 . S
N395 C394 1.330 . S
N395 C399 1.418 . S
C396 H375 0.929 . S
C396 C394 1.446 . S
C396 C397 1.332 . S
C397 H377 0.931 . S
C397 C396 1.332 . S
C397 C398 1.267 . S
C398 H366 0.929 . S
C398 C397 1.267 . S
C398 C399 1.251 . S
C399 H369 0.929 . S
C399 N395 1.418 . S
C399 C398 1.251 . S
C400 H367 0.930 . S
C400 C402 1.406 . S
C400 C405 1.261 . S
C401 H368 0.930 . S
C401 N403 1.325 . S
C401 C404 1.357 . S
C402 H370 0.928 . S
C402 C400 1.406 . S
C402 N403 1.261 . S
N403 Co354 2.214 . S
N403 C401 1.325 . S
N403 C402 1.261 . S
C404 H374 0.931 . S
C404 C401 1.357 . S
C404 C405 1.312 . S
C405 H376 0.930 . S
C405 C400 1.261 . S
C405 C404 1.312 . S
C406 O378 1.214 . S
C406 O386 1.234 . S
C407 H379 0.929 . S
C407 C410 1.391 . S
C407 C412 1.391 . S
C408 H380 0.929 . S
C408 C409 1.390 . S
C408 N411 1.391 . S
C409 H381 0.930 . S
C409 C408 1.390 . S
C409 C410 1.392 . S
C410 H382 0.929 . S
C410 C407 1.391 . S
C410 C409 1.392 . S
N411 Co355 2.257 . S
N411 C408 1.391 . S
N411 C412 1.388 . S
C412 H383 0.930 . S
C412 C407 1.391 . S
C412 N411 1.388 . S
Co413 O415 2.143 . S
Co413 O421 2.074 . S
Co413 O424 2.093 . S
Co413 O437 2.097 . S
Co413 N454 2.151 . S
Co413 N462 2.214 . S
Co414 O415 2.160 . S
Co414 O420 2.058 . S
Co414 O430 2.057 . S
Co414 O445 2.037 . S
Co414 N449 2.145 . S
Co414 N470 2.257 . S
O415 Co413 2.143 . S
O415 Co414 2.160 . S
C416 O417 1.278 . S
C416 O424 1.224 . S
O417 C416 1.278 . S
C418 O419 1.245 . S
C418 O430 1.232 . S
O419 C418 1.245 . S
O420 Co414 2.058 . S
O420 C446 1.269 . S
O421 Co413 2.074 . S
O421 C446 1.257 . S
H422 C447 0.930 . S
H423 C453 0.930 . S
O424 Co413 2.093 . S
O424 C416 1.224 . S
H425 C457 0.929 . S
H426 C459 0.930 . S
H427 C460 0.930 . S
H428 C458 0.929 . S
H429 C461 0.928 . S
O430 Co414 2.057 . S
O430 C418 1.232 . S
H431 C450 0.929 . S
H432 C451 0.929 . S
H433 C463 0.931 . S
H434 C455 0.929 . S
H435 C464 0.930 . S
H436 C456 0.931 . S
O437 Co413 2.097 . S
O437 C465 1.214 . S
H438 C466 0.929 . S
H439 C467 0.929 . S
H440 C468 0.930 . S
H441 C469 0.929 . S
H442 C471 0.930 . S
H443 C448 0.930 . S
H444 C452 0.930 . S
O445 Co414 2.037 . S
O445 C465 1.234 . S
C446 O420 1.269 . S
C446 O421 1.257 . S
C447 H422 0.930 . S
C447 C450 1.388 . S
C447 C452 1.418 . S
C448 H443 0.930 . S
C448 C451 1.404 . S
C448 C452 1.353 . S
N449 Co414 2.145 . S
N449 C450 1.397 . S
N449 C451 1.334 . S
C450 H431 0.929 . S
C450 C447 1.388 . S
C450 N449 1.397 . S
C451 H432 0.929 . S
C451 C448 1.404 . S
C451 N449 1.334 . S
C452 H444 0.930 . S
C452 C447 1.418 . S
C452 C448 1.353 . S
C453 H423 0.930 . S
C453 N454 1.330 . S
C453 C455 1.446 . S
N454 Co413 2.151 . S
N454 C453 1.330 . S
N454 C458 1.418 . S
C455 H434 0.929 . S
C455 C453 1.446 . S
C455 C456 1.332 . S
C456 H436 0.931 . S
C456 C455 1.332 . S
C456 C457 1.267 . S
C457 H425 0.929 . S
C457 C456 1.267 . S
C457 C458 1.251 . S
C458 H428 0.929 . S
C458 N454 1.418 . S
C458 C457 1.251 . S
C459 H426 0.930 . S
C459 C461 1.406 . S
C459 C464 1.261 . S
C460 H427 0.930 . S
C460 N462 1.325 . S
C460 C463 1.357 . S
C461 H429 0.928 . S
C461 C459 1.406 . S
C461 N462 1.261 . S
N462 Co413 2.214 . S
N462 C460 1.325 . S
N462 C461 1.261 . S
C463 H433 0.931 . S
C463 C460 1.357 . S
C463 C464 1.312 . S
C464 H435 0.930 . S
C464 C459 1.261 . S
C464 C463 1.312 . S
C465 O437 1.214 . S
C465 O445 1.234 . S
C466 H438 0.929 . S
C466 C469 1.391 . S
C466 C471 1.391 . S
C467 H439 0.929 . S
C467 C468 1.390 . S
C467 N470 1.391 . S
C468 H440 0.930 . S
C468 C467 1.390 . S
C468 C469 1.392 . S
C469 H441 0.929 . S
C469 C466 1.391 . S
C469 C468 1.392 . S
N470 Co414 2.257 . S
N470 C467 1.391 . S
N470 C471 1.388 . S
C471 H442 0.930 . S
C471 C466 1.391 . S
C471 N470 1.388 . S
Co472 O474 2.143 . S
Co472 O480 2.074 1_554 S
Co472 O483 2.093 . S
Co472 O496 2.097 . S
Co472 N513 2.151 . S
Co472 N521 2.214 1_554 S
Co473 O474 2.160 . S
Co473 O479 2.058 1_554 S
Co473 O489 2.057 . S
Co473 O504 2.037 . S
Co473 N508 2.145 1_554 S
Co473 N529 2.257 . S
O474 Co472 2.143 . S
O474 Co473 2.160 . S
C475 O476 1.278 . S
C475 O483 1.224 . S
O476 C475 1.278 . S
C477 O478 1.245 . S
C477 O489 1.232 . S
O478 C477 1.245 . S
O479 Co473 2.058 1_556 S
O479 C505 1.269 . S
O480 Co472 2.074 1_556 S
O480 C505 1.257 . S
H481 C506 0.930 . S
H482 C512 0.930 . S
O483 Co472 2.093 . S
O483 C475 1.224 . S
H484 C516 0.929 . S
H485 C518 0.930 . S
H486 C519 0.930 . S
H487 C517 0.929 . S
H488 C520 0.903 1_554 S
O489 Co473 2.057 . S
O489 C477 1.232 . S
H490 C509 0.929 . S
H491 C510 0.929 . S
H492 C522 0.931 . S
H493 C514 0.929 . S
H494 C523 0.930 . S
H495 C515 0.931 . S
O496 Co472 2.097 . S
O496 C524 1.214 . S
H497 C525 0.929 . S
H498 C526 0.929 . S
H499 C527 0.930 . S
H500 C528 0.929 . S
H501 C530 0.930 . S
H502 C507 0.930 . S
H503 C511 0.930 . S
O504 Co473 2.037 . S
O504 C524 1.234 . S
C505 O479 1.269 . S
C505 O480 1.257 . S
C506 H481 0.930 . S
C506 C509 1.388 . S
C506 C511 1.418 . S
C507 H502 0.930 . S
C507 C510 1.404 1_556 S
C507 C511 1.353 . S
N508 Co473 2.145 1_556 S
N508 C509 1.397 . S
N508 C510 1.334 1_556 S
C509 H490 0.929 . S
C509 C506 1.388 . S
C509 N508 1.397 . S
C510 H491 0.929 . S
C510 C507 1.404 1_554 S
C510 N508 1.334 1_554 S
C511 H503 0.930 . S
C511 C506 1.418 . S
C511 C507 1.353 . S
C512 H482 0.930 . S
C512 N513 1.330 . S
C512 C514 1.446 . S
N513 Co472 2.151 . S
N513 C512 1.330 . S
N513 C517 1.418 1_554 S
C514 H493 0.929 . S
C514 C512 1.446 . S
C514 C515 1.332 1_554 S
C515 H495 0.931 . S
C515 C514 1.332 1_556 S
C515 C516 1.267 . S
C516 H484 0.929 . S
C516 C515 1.267 . S
C516 C517 1.251 . S
C517 H487 0.929 . S
C517 N513 1.418 1_556 S
C517 C516 1.251 . S
C518 H485 0.930 . S
C518 C520 1.424 . S
C518 C523 1.261 . S
C519 H486 0.930 . S
C519 N521 1.325 . S
C519 C522 1.357 . S
C520 H488 0.903 1_556 S
C520 C518 1.424 . S
C520 N521 1.269 . S
N521 Co472 2.214 1_556 S
N521 C519 1.325 . S
N521 C520 1.269 . S
C522 H492 0.931 . S
C522 C519 1.357 . S
C522 C523 1.312 . S
C523 H494 0.930 . S
C523 C518 1.261 . S
C523 C522 1.312 . S
C524 O496 1.214 . S
C524 O504 1.234 . S
C525 H497 0.929 . S
C525 C528 1.391 . S
C525 C530 1.391 . S
C526 H498 0.929 . S
C526 C527 1.390 . S
C526 N529 1.391 . S
C527 H499 0.930 . S
C527 C526 1.390 . S
C527 C528 1.392 . S
C528 H500 0.929 . S
C528 C525 1.391 . S
C528 C527 1.392 . S
N529 Co473 2.257 . S
N529 C526 1.391 . S
N529 C530 1.388 . S
C530 H501 0.930 . S
C530 C525 1.391 . S
C530 N529 1.388 . S
Co531 O533 2.143 . S
Co531 O539 2.074 . S
Co531 O542 2.093 . S
Co531 O555 2.097 . S
Co531 N572 2.151 . S
Co531 N580 2.214 . S
Co532 O533 2.160 . S
Co532 O538 2.058 . S
Co532 O548 2.057 . S
Co532 O563 2.037 . S
Co532 N567 2.145 . S
Co532 N588 2.257 . S
O533 Co531 2.143 . S
O533 Co532 2.160 . S
C534 O535 1.278 . S
C534 O542 1.224 . S
O535 C534 1.278 . S
C536 O537 1.245 . S
C536 O548 1.232 . S
O537 C536 1.245 . S
O538 Co532 2.058 . S
O538 C564 1.269 . S
O539 Co531 2.074 . S
O539 C564 1.257 . S
H540 C565 0.930 . S
H541 C571 0.930 . S
O542 Co531 2.093 . S
O542 C534 1.224 . S
H543 C575 0.929 . S
H544 C577 0.930 . S
H545 C578 0.930 . S
H546 C576 0.929 . S
H547 C579 0.928 . S
O548 Co532 2.057 . S
O548 C536 1.232 . S
H549 C568 0.929 . S
H550 C569 0.929 . S
H551 C581 0.931 . S
H552 C573 0.929 . S
H553 C582 0.930 . S
H554 C574 0.931 . S
O555 Co531 2.097 . S
O555 C583 1.214 . S
H556 C584 0.929 . S
H557 C585 0.929 . S
H558 C586 0.930 . S
H559 C587 0.929 . S
H560 C589 0.930 . S
H561 C566 0.930 . S
H562 C570 0.930 . S
O563 Co532 2.037 . S
O563 C583 1.234 . S
C564 O538 1.269 . S
C564 O539 1.257 . S
C565 H540 0.930 . S
C565 C568 1.388 . S
C565 C570 1.418 . S
C566 H561 0.930 . S
C566 C569 1.404 . S
C566 C570 1.353 . S
N567 Co532 2.145 . S
N567 C568 1.397 . S
N567 C569 1.334 . S
C568 H549 0.929 . S
C568 C565 1.388 . S
C568 N567 1.397 . S
C569 H550 0.929 . S
C569 C566 1.404 . S
C569 N567 1.334 . S
C570 H562 0.930 . S
C570 C565 1.418 . S
C570 C566 1.353 . S
C571 H541 0.930 . S
C571 N572 1.330 . S
C571 C573 1.446 . S
N572 Co531 2.151 . S
N572 C571 1.330 . S
N572 C576 1.418 . S
C573 H552 0.929 . S
C573 C571 1.446 . S
C573 C574 1.332 . S
C574 H554 0.931 . S
C574 C573 1.332 . S
C574 C575 1.267 . S
C575 H543 0.929 . S
C575 C574 1.267 . S
C575 C576 1.251 . S
C576 H546 0.929 . S
C576 N572 1.418 . S
C576 C575 1.251 . S
C577 H544 0.930 . S
C577 C579 1.406 . S
C577 C582 1.261 . S
C578 H545 0.930 . S
C578 N580 1.325 . S
C578 C581 1.357 . S
C579 H547 0.928 . S
C579 C577 1.406 . S
C579 N580 1.261 . S
N580 Co531 2.214 . S
N580 C578 1.325 . S
N580 C579 1.261 . S
C581 H551 0.931 . S
C581 C578 1.357 . S
C581 C582 1.312 . S
C582 H553 0.930 . S
C582 C577 1.261 . S
C582 C581 1.312 . S
C583 O555 1.214 . S
C583 O563 1.234 . S
C584 H556 0.929 . S
C584 C587 1.391 . S
C584 C589 1.391 . S
C585 H557 0.929 . S
C585 C586 1.390 . S
C585 N588 1.391 . S
C586 H558 0.930 . S
C586 C585 1.390 . S
C586 C587 1.392 . S
C587 H559 0.929 . S
C587 C584 1.391 . S
C587 C586 1.392 . S
N588 Co532 2.257 . S
N588 C585 1.391 . S
N588 C589 1.388 . S
C589 H560 0.930 . S
C589 C584 1.391 . S
C589 N588 1.388 . S
Co590 O592 2.143 . S
Co590 O598 2.074 . S
Co590 O601 2.093 . S
Co590 O614 2.097 . S
Co590 N631 2.151 . S
Co590 N639 2.214 . S
Co591 O592 2.160 . S
Co591 O597 2.058 . S
Co591 O607 2.057 . S
Co591 O622 2.037 . S
Co591 N626 2.145 . S
Co591 N647 2.257 . S
O592 Co590 2.143 . S
O592 Co591 2.160 . S
C593 O594 1.278 . S
C593 O601 1.224 . S
O594 C593 1.278 . S
C595 O596 1.245 . S
C595 O607 1.232 . S
O596 C595 1.245 . S
O597 Co591 2.058 . S
O597 C623 1.269 . S
O598 Co590 2.074 . S
O598 C623 1.257 . S
H599 C624 0.930 . S
H600 C630 0.930 . S
O601 Co590 2.093 . S
O601 C593 1.224 . S
H602 C634 0.929 . S
H603 C636 0.930 . S
H604 C637 0.930 . S
H605 C635 0.929 . S
H606 C638 0.928 . S
O607 Co591 2.057 . S
O607 C595 1.232 . S
H608 C627 0.929 . S
H609 C628 0.929 . S
H610 C640 0.931 . S
H611 C632 0.929 . S
H612 C641 0.930 . S
H613 C633 0.931 . S
O614 Co590 2.097 . S
O614 C642 1.214 . S
H615 C643 0.929 . S
H616 C644 0.929 . S
H617 C645 0.930 . S
H618 C646 0.929 . S
H619 C648 0.930 . S
H620 C625 0.930 . S
H621 C629 0.930 . S
O622 Co591 2.037 . S
O622 C642 1.234 . S
C623 O597 1.269 . S
C623 O598 1.257 . S
C624 H599 0.930 . S
C624 C627 1.388 . S
C624 C629 1.418 . S
C625 H620 0.930 . S
C625 C628 1.404 . S
C625 C629 1.353 . S
N626 Co591 2.145 . S
N626 C627 1.397 . S
N626 C628 1.334 . S
C627 H608 0.929 . S
C627 C624 1.388 . S
C627 N626 1.397 . S
C628 H609 0.929 . S
C628 C625 1.404 . S
C628 N626 1.334 . S
C629 H621 0.930 . S
C629 C624 1.418 . S
C629 C625 1.353 . S
C630 H600 0.930 . S
C630 N631 1.330 . S
C630 C632 1.446 . S
N631 Co590 2.151 . S
N631 C630 1.330 . S
N631 C635 1.418 . S
C632 H611 0.929 . S
C632 C630 1.446 . S
C632 C633 1.332 . S
C633 H613 0.931 . S
C633 C632 1.332 . S
C633 C634 1.267 . S
C634 H602 0.929 . S
C634 C633 1.267 . S
C634 C635 1.251 . S
C635 H605 0.929 . S
C635 N631 1.418 . S
C635 C634 1.251 . S
C636 H603 0.930 . S
C636 C638 1.406 . S
C636 C641 1.261 . S
C637 H604 0.930 . S
C637 N639 1.325 . S
C637 C640 1.357 . S
C638 H606 0.928 . S
C638 C636 1.406 . S
C638 N639 1.261 . S
N639 Co590 2.214 . S
N639 C637 1.325 . S
N639 C638 1.261 . S
C640 H610 0.931 . S
C640 C637 1.357 . S
C640 C641 1.312 . S
C641 H612 0.930 . S
C641 C636 1.261 . S
C641 C640 1.312 . S
C642 O614 1.214 . S
C642 O622 1.234 . S
C643 H615 0.929 . S
C643 C646 1.391 . S
C643 C648 1.391 . S
C644 H616 0.929 . S
C644 C645 1.390 . S
C644 N647 1.391 . S
C645 H617 0.930 . S
C645 C644 1.390 . S
C645 C646 1.392 . S
C646 H618 0.929 . S
C646 C643 1.391 . S
C646 C645 1.392 . S
N647 Co591 2.257 . S
N647 C644 1.391 . S
N647 C648 1.388 . S
C648 H619 0.930 . S
C648 C643 1.391 . S
C648 N647 1.388 . S
Co649 O651 2.143 . S
Co649 O657 2.074 1_554 S
Co649 O660 2.093 . S
Co649 O673 2.097 . S
Co649 N690 2.151 . S
Co649 N698 2.214 1_554 S
Co650 O651 2.160 . S
Co650 O656 2.058 1_554 S
Co650 O666 2.057 . S
Co650 O681 2.037 . S
Co650 N685 2.145 1_554 S
Co650 N706 2.257 . S
O651 Co649 2.143 . S
O651 Co650 2.160 . S
C652 O653 1.278 . S
C652 O660 1.224 . S
O653 C652 1.278 . S
C654 O655 1.245 . S
C654 O666 1.232 . S
O655 C654 1.245 . S
O656 Co650 2.058 1_556 S
O656 C682 1.269 . S
O657 Co649 2.074 1_556 S
O657 C682 1.257 . S
H658 C683 0.930 . S
H659 C689 0.930 . S
O660 Co649 2.093 . S
O660 C652 1.224 . S
H661 C693 0.929 . S
H662 C695 0.930 . S
H663 C696 0.930 . S
H664 C694 0.929 . S
H665 C697 0.903 1_554 S
O666 Co650 2.057 . S
O666 C654 1.232 . S
H667 C686 0.929 . S
H668 C687 0.929 . S
H669 C699 0.931 . S
H670 C691 0.929 . S
H671 C700 0.930 . S
H672 C692 0.931 . S
O673 Co649 2.097 . S
O673 C701 1.214 . S
H674 C702 0.929 . S
H675 C703 0.929 . S
H676 C704 0.930 . S
H677 C705 0.929 . S
H678 C707 0.930 . S
H679 C684 0.930 . S
H680 C688 0.930 . S
O681 Co650 2.037 . S
O681 C701 1.234 . S
C682 O656 1.269 . S
C682 O657 1.257 . S
C683 H658 0.930 . S
C683 C686 1.388 . S
C683 C688 1.418 . S
C684 H679 0.930 . S
C684 C687 1.404 1_556 S
C684 C688 1.353 . S
N685 Co650 2.145 1_556 S
N685 C686 1.397 . S
N685 C687 1.334 1_556 S
C686 H667 0.929 . S
C686 C683 1.388 . S
C686 N685 1.397 . S
C687 H668 0.929 . S
C687 C684 1.404 1_554 S
C687 N685 1.334 1_554 S
C688 H680 0.930 . S
C688 C683 1.418 . S
C688 C684 1.353 . S
C689 H659 0.930 . S
C689 N690 1.330 . S
C689 C691 1.446 . S
N690 Co649 2.151 . S
N690 C689 1.330 . S
N690 C694 1.418 1_554 S
C691 H670 0.929 . S
C691 C689 1.446 . S
C691 C692 1.332 1_554 S
C692 H672 0.931 . S
C692 C691 1.332 1_556 S
C692 C693 1.267 . S
C693 H661 0.929 . S
C693 C692 1.267 . S
C693 C694 1.251 . S
C694 H664 0.929 . S
C694 N690 1.418 1_556 S
C694 C693 1.251 . S
C695 H662 0.930 . S
C695 C697 1.424 . S
C695 C700 1.261 . S
C696 H663 0.930 . S
C696 N698 1.325 . S
C696 C699 1.357 . S
C697 H665 0.903 1_556 S
C697 C695 1.424 . S
C697 N698 1.269 . S
N698 Co649 2.214 1_556 S
N698 C696 1.325 . S
N698 C697 1.269 . S
C699 H669 0.931 . S
C699 C696 1.357 . S
C699 C700 1.312 . S
C700 H671 0.930 . S
C700 C695 1.261 . S
C700 C699 1.312 . S
C701 O673 1.214 . S
C701 O681 1.234 . S
C702 H674 0.929 . S
C702 C705 1.391 . S
C702 C707 1.391 . S
C703 H675 0.929 . S
C703 C704 1.390 . S
C703 N706 1.391 . S
C704 H676 0.930 . S
C704 C703 1.390 . S
C704 C705 1.392 . S
C705 H677 0.929 . S
C705 C702 1.391 . S
C705 C704 1.392 . S
N706 Co650 2.257 . S
N706 C703 1.391 . S
N706 C707 1.388 . S
C707 H678 0.930 . S
C707 C702 1.391 . S
C707 N706 1.388 . S
C708 C709 1.349 . S
C708 C710 1.327 . S
C708 H733 0.950 . S
C709 C708 1.349 . S
C709 C725 1.349 . S
C710 C708 1.327 . S
C710 C729 1.429 . S
C710 H734 0.950 . S
C711 C728 1.574 . S
C711 C730 1.368 . S
C711 H735 0.949 . S
H712 C716 0.949 . S
C713 C714 1.349 . S
C713 C715 1.327 . S
C713 H736 0.950 . S
C714 C713 1.349 . S
C714 C726 1.349 . S
C715 C713 1.327 . S
C715 C731 1.429 . S
C715 H737 0.950 . S
C716 H712 0.949 . S
C716 C724 1.574 . S
C716 C732 1.368 . S
H717 C725 0.950 . S
H718 C723 0.950 . S
H719 C724 0.949 . S
H720 C726 0.950 . S
H721 C727 0.950 . S
H722 C728 0.949 . S
C723 H718 0.950 . S
C723 C725 1.327 . S
C723 C729 1.429 . S
C724 C716 1.574 . S
C724 H719 0.949 . S
C724 C730 1.368 . S
C725 C709 1.349 . S
C725 H717 0.950 . S
C725 C723 1.327 . S
C726 C714 1.349 . S
C726 H720 0.950 . S
C726 C727 1.327 . S
C727 H721 0.950 . S
C727 C726 1.327 . S
C727 C731 1.429 . S
C728 C711 1.574 . S
C728 H722 0.949 . S
C728 C732 1.368 . S
C729 C710 1.429 . S
C729 C723 1.429 . S
C729 C730 1.523 . S
C730 C711 1.368 . S
C730 C724 1.368 . S
C730 C729 1.523 . S
C731 C715 1.429 . S
C731 C727 1.429 . S
C731 C732 1.523 . S
C732 C716 1.368 . S
C732 C728 1.368 . S
C732 C731 1.523 . S
H733 C708 0.950 . S
H734 C710 0.950 . S
H735 C711 0.949 . S
H736 C713 0.950 . S
H737 C715 0.950 . S
C738 C739 1.349 . S
C738 C740 1.327 . S
C738 H763 0.950 . S
C739 C738 1.349 . S
C739 C755 1.349 . S
C740 C738 1.327 . S
C740 C759 1.429 . S
C740 H764 0.950 . S
C741 C758 1.574 . S
C741 C760 1.368 . S
C741 H765 0.949 . S
H742 C746 0.949 . S
C743 C744 1.349 . S
C743 C745 1.327 . S
C743 H766 0.950 . S
C744 C743 1.349 . S
C744 C756 1.349 . S
C745 C743 1.327 . S
C745 C761 1.429 . S
C745 H767 0.950 . S
C746 H742 0.949 . S
C746 C754 1.574 . S
C746 C762 1.368 . S
H747 C755 0.950 . S
H748 C753 0.950 . S
H749 C754 0.949 . S
H750 C756 0.950 . S
H751 C757 0.950 . S
H752 C758 0.949 . S
C753 H748 0.950 . S
C753 C755 1.327 . S
C753 C759 1.429 . S
C754 C746 1.574 . S
C754 H749 0.949 . S
C754 C760 1.368 . S
C755 C739 1.349 . S
C755 H747 0.950 . S
C755 C753 1.327 . S
C756 C744 1.349 . S
C756 H750 0.950 . S
C756 C757 1.327 . S
C757 H751 0.950 . S
C757 C756 1.327 . S
C757 C761 1.429 . S
C758 C741 1.574 . S
C758 H752 0.949 . S
C758 C762 1.368 . S
C759 C740 1.429 . S
C759 C753 1.429 . S
C759 C760 1.523 . S
C760 C741 1.368 . S
C760 C754 1.368 . S
C760 C759 1.523 . S
C761 C745 1.429 . S
C761 C757 1.429 . S
C761 C762 1.523 . S
C762 C746 1.368 . S
C762 C758 1.368 . S
C762 C761 1.523 . S
H763 C738 0.950 . S
H764 C740 0.950 . S
H765 C741 0.949 . S
H766 C743 0.950 . S
H767 C745 0.950 . S
C768 C769 1.349 . S
C768 C770 1.327 . S
C768 H793 0.950 . S
C769 C768 1.349 . S
C769 C785 1.349 . S
C770 C768 1.327 . S
C770 C789 1.429 . S
C770 H794 0.950 . S
C771 C788 1.574 . S
C771 C790 1.368 . S
C771 H795 0.949 . S
H772 C776 0.949 . S
C773 C774 1.349 . S
C773 C775 1.327 . S
C773 H796 0.950 . S
C774 C773 1.349 . S
C774 C786 1.349 . S
C775 C773 1.327 . S
C775 C791 1.429 . S
C775 H797 0.950 . S
C776 H772 0.949 . S
C776 C784 1.574 . S
C776 C792 1.368 . S
H777 C785 0.950 . S
H778 C783 0.950 . S
H779 C784 0.949 . S
H780 C786 0.950 . S
H781 C787 0.950 . S
H782 C788 0.949 . S
C783 H778 0.950 . S
C783 C785 1.327 . S
C783 C789 1.429 . S
C784 C776 1.574 . S
C784 H779 0.949 . S
C784 C790 1.368 . S
C785 C769 1.349 . S
C785 H777 0.950 . S
C785 C783 1.327 . S
C786 C774 1.349 . S
C786 H780 0.950 . S
C786 C787 1.327 . S
C787 H781 0.950 . S
C787 C786 1.327 . S
C787 C791 1.429 . S
C788 C771 1.574 . S
C788 H782 0.949 . S
C788 C792 1.368 . S
C789 C770 1.429 . S
C789 C783 1.429 . S
C789 C790 1.523 . S
C790 C771 1.368 . S
C790 C784 1.368 . S
C790 C789 1.523 . S
C791 C775 1.429 . S
C791 C787 1.429 . S
C791 C792 1.523 . S
C792 C776 1.368 . S
C792 C788 1.368 . S
C792 C791 1.523 . S
H793 C768 0.950 . S
H794 C770 0.950 . S
H795 C771 0.949 . S
H796 C773 0.950 . S
H797 C775 0.950 . S
C798 C799 1.349 . S
C798 C800 1.327 . S
C798 H823 0.950 . S
C799 C798 1.349 . S
C799 C815 1.349 . S
C800 C798 1.327 . S
C800 C819 1.429 . S
C800 H824 0.950 . S
C801 C818 1.574 . S
C801 C820 1.368 . S
C801 H825 0.949 . S
H802 C806 0.949 . S
C803 C804 1.349 . S
C803 C805 1.327 . S
C803 H826 0.950 . S
C804 C803 1.349 . S
C804 C816 1.349 . S
C805 C803 1.327 . S
C805 C821 1.429 . S
C805 H827 0.950 . S
C806 H802 0.949 . S
C806 C814 1.574 . S
C806 C822 1.368 . S
H807 C815 0.950 . S
H808 C813 0.950 . S
H809 C814 0.949 . S
H810 C816 0.950 . S
H811 C817 0.950 . S
H812 C818 0.949 . S
C813 H808 0.950 . S
C813 C815 1.327 . S
C813 C819 1.429 . S
C814 C806 1.574 . S
C814 H809 0.949 . S
C814 C820 1.368 . S
C815 C799 1.349 . S
C815 H807 0.950 . S
C815 C813 1.327 . S
C816 C804 1.349 . S
C816 H810 0.950 . S
C816 C817 1.327 . S
C817 H811 0.950 . S
C817 C816 1.327 . S
C817 C821 1.429 . S
C818 C801 1.574 . S
C818 H812 0.949 . S
C818 C822 1.368 . S
C819 C800 1.429 . S
C819 C813 1.429 . S
C819 C820 1.523 . S
C820 C801 1.368 . S
C820 C814 1.368 . S
C820 C819 1.523 . S
C821 C805 1.429 . S
C821 C817 1.429 . S
C821 C822 1.523 . S
C822 C806 1.368 . S
C822 C818 1.368 . S
C822 C821 1.523 . S
H823 C798 0.950 . S
H824 C800 0.950 . S
H825 C801 0.949 . S
H826 C803 0.950 . S
H827 C805 0.950 . S
C828 C829 1.349 . S
C828 C830 1.327 . S
C828 H853 0.950 . S
C829 C828 1.349 . S
C829 C845 1.349 . S
C830 C828 1.327 . S
C830 C849 1.429 . S
C830 H854 0.950 . S
C831 C848 1.574 . S
C831 C850 1.368 . S
C831 H855 0.949 . S
H832 C836 0.949 . S
C833 C834 1.349 . S
C833 C835 1.327 . S
C833 H856 0.950 . S
C834 C833 1.349 . S
C834 C846 1.349 . S
C835 C833 1.327 . S
C835 C851 1.429 . S
C835 H857 0.950 . S
C836 H832 0.949 . S
C836 C844 1.574 . S
C836 C852 1.368 . S
H837 C845 0.950 . S
H838 C843 0.950 . S
H839 C844 0.949 . S
H840 C846 0.950 . S
H841 C847 0.950 . S
H842 C848 0.949 . S
C843 H838 0.950 . S
C843 C845 1.327 . S
C843 C849 1.429 . S
C844 C836 1.574 . S
C844 H839 0.949 . S
C844 C850 1.368 . S
C845 C829 1.349 . S
C845 H837 0.950 . S
C845 C843 1.327 . S
C846 C834 1.349 . S
C846 H840 0.950 . S
C846 C847 1.327 . S
C847 H841 0.950 . S
C847 C846 1.327 . S
C847 C851 1.429 . S
C848 C831 1.574 . S
C848 H842 0.949 . S
C848 C852 1.368 . S
C849 C830 1.429 . S
C849 C843 1.429 . S
C849 C850 1.523 . S
C850 C831 1.368 . S
C850 C844 1.368 . S
C850 C849 1.523 . S
C851 C835 1.429 . S
C851 C847 1.429 . S
C851 C852 1.523 . S
C852 C836 1.368 . S
C852 C848 1.368 . S
C852 C851 1.523 . S
H853 C828 0.950 . S
H854 C830 0.950 . S
H855 C831 0.949 . S
H856 C833 0.950 . S
H857 C835 0.950 . S
C858 C859 1.349 . S
C858 C860 1.327 . S
C858 H883 0.950 . S
C859 C858 1.349 . S
C859 C875 1.349 . S
C860 C858 1.327 . S
C860 C879 1.429 . S
C860 H884 0.950 . S
C861 C878 1.574 . S
C861 C880 1.368 . S
C861 H885 0.949 . S
H862 C866 0.949 . S
C863 C864 1.349 . S
C863 C865 1.327 . S
C863 H886 0.950 . S
C864 C863 1.349 . S
C864 C876 1.349 . S
C865 C863 1.327 . S
C865 C881 1.429 . S
C865 H887 0.950 . S
C866 H862 0.949 . S
C866 C874 1.574 . S
C866 C882 1.368 . S
H867 C875 0.950 . S
H868 C873 0.950 . S
H869 C874 0.949 . S
H870 C876 0.950 . S
H871 C877 0.950 . S
H872 C878 0.949 . S
C873 H868 0.950 . S
C873 C875 1.327 . S
C873 C879 1.429 . S
C874 C866 1.574 . S
C874 H869 0.949 . S
C874 C880 1.368 . S
C875 C859 1.349 . S
C875 H867 0.950 . S
C875 C873 1.327 . S
C876 C864 1.349 . S
C876 H870 0.950 . S
C876 C877 1.327 . S
C877 H871 0.950 . S
C877 C876 1.327 . S
C877 C881 1.429 . S
C878 C861 1.574 . S
C878 H872 0.949 . S
C878 C882 1.368 . S
C879 C860 1.429 . S
C879 C873 1.429 . S
C879 C880 1.523 . S
C880 C861 1.368 . S
C880 C874 1.368 . S
C880 C879 1.523 . S
C881 C865 1.429 . S
C881 C877 1.429 . S
C881 C882 1.523 . S
C882 C866 1.368 . S
C882 C878 1.368 . S
C882 C881 1.523 . S
H883 C858 0.950 . S
H884 C860 0.950 . S
H885 C861 0.949 . S
H886 C863 0.950 . S
H887 C865 0.950 . S
C888 C889 1.349 . S
C888 C890 1.327 . S
C888 H913 0.950 . S
C889 C888 1.349 . S
C889 C905 1.349 . S
C890 C888 1.327 . S
C890 C909 1.429 . S
C890 H914 0.950 . S
C891 C908 1.574 . S
C891 C910 1.368 . S
C891 H915 0.949 . S
H892 C896 0.949 . S
C893 C894 1.349 . S
C893 C895 1.327 . S
C893 H916 0.950 . S
C894 C893 1.349 . S
C894 C906 1.349 . S
C895 C893 1.327 . S
C895 C911 1.429 . S
C895 H917 0.950 . S
C896 H892 0.949 . S
C896 C904 1.574 . S
C896 C912 1.368 . S
H897 C905 0.950 . S
H898 C903 0.950 . S
H899 C904 0.949 . S
H900 C906 0.950 . S
H901 C907 0.950 . S
H902 C908 0.949 . S
C903 H898 0.950 . S
C903 C905 1.327 . S
C903 C909 1.429 . S
C904 C896 1.574 . S
C904 H899 0.949 . S
C904 C910 1.368 . S
C905 C889 1.349 . S
C905 H897 0.950 . S
C905 C903 1.327 . S
C906 C894 1.349 . S
C906 H900 0.950 . S
C906 C907 1.327 . S
C907 H901 0.950 . S
C907 C906 1.327 . S
C907 C911 1.429 . S
C908 C891 1.574 . S
C908 H902 0.949 . S
C908 C912 1.368 . S
C909 C890 1.429 . S
C909 C903 1.429 . S
C909 C910 1.523 . S
C910 C891 1.368 . S
C910 C904 1.368 . S
C910 C909 1.523 . S
C911 C895 1.429 . S
C911 C907 1.429 . S
C911 C912 1.523 . S
C912 C896 1.368 . S
C912 C908 1.368 . S
C912 C911 1.523 . S
H913 C888 0.950 . S
H914 C890 0.950 . S
H915 C891 0.949 . S
H916 C893 0.950 . S
H917 C895 0.950 . S
C918 C919 1.349 . S
C918 C920 1.327 . S
C918 H943 0.950 . S
C919 C918 1.349 . S
C919 C935 1.349 . S
C920 C918 1.327 . S
C920 C939 1.429 . S
C920 H944 0.950 . S
C921 C938 1.574 . S
C921 C940 1.368 . S
C921 H945 0.949 . S
H922 C926 0.949 . S
C923 C924 1.349 . S
C923 C925 1.327 . S
C923 H946 0.950 . S
C924 C923 1.349 . S
C924 C936 1.349 . S
C925 C923 1.327 . S
C925 C941 1.429 . S
C925 H947 0.950 . S
C926 H922 0.949 . S
C926 C934 1.574 . S
C926 C942 1.368 . S
H927 C935 0.950 . S
H928 C933 0.950 . S
H929 C934 0.949 . S
H930 C936 0.950 . S
H931 C937 0.950 . S
H932 C938 0.949 . S
C933 H928 0.950 . S
C933 C935 1.327 . S
C933 C939 1.429 . S
C934 C926 1.574 . S
C934 H929 0.949 . S
C934 C940 1.368 . S
C935 C919 1.349 . S
C935 H927 0.950 . S
C935 C933 1.327 . S
C936 C924 1.349 . S
C936 H930 0.950 . S
C936 C937 1.327 . S
C937 H931 0.950 . S
C937 C936 1.327 . S
C937 C941 1.429 . S
C938 C921 1.574 . S
C938 H932 0.949 . S
C938 C942 1.368 . S
C939 C920 1.429 . S
C939 C933 1.429 . S
C939 C940 1.523 . S
C940 C921 1.368 . S
C940 C934 1.368 . S
C940 C939 1.523 . S
C941 C925 1.429 . S
C941 C937 1.429 . S
C941 C942 1.523 . S
C942 C926 1.368 . S
C942 C938 1.368 . S
C942 C941 1.523 . S
H943 C918 0.950 . S
H944 C920 0.950 . S
H945 C921 0.949 . S
H946 C923 0.950 . S
H947 C925 0.950 . S
C948 C949 1.349 1_556 S
C948 C950 1.327 . S
C948 H973 0.950 . S
C949 C948 1.349 1_554 S
C949 C965 1.349 . S
C950 C948 1.327 . S
C950 C969 1.429 1_556 S
C950 H974 0.950 . S
C951 C968 1.574 . S
C951 C970 1.368 . S
C951 H975 0.949 . S
H952 C956 0.949 . S
C953 C954 1.349 1_554 S
C953 C955 1.327 . S
C953 H976 0.950 . S
C954 C953 1.349 1_556 S
C954 C966 1.349 . S
C955 C953 1.327 . S
C955 C971 1.429 . S
C955 H977 0.950 . S
C956 H952 0.949 . S
C956 C964 1.574 . S
C956 C972 1.368 1_556 S
H957 C965 0.950 . S
H958 C963 0.950 . S
H959 C964 0.949 . S
H960 C966 0.950 . S
H961 C967 0.950 . S
H962 C968 0.949 . S
C963 H958 0.950 . S
C963 C965 1.327 . S
C963 C969 1.429 . S
C964 C956 1.574 . S
C964 H959 0.949 . S
C964 C970 1.368 1_556 S
C965 C949 1.349 . S
C965 H957 0.950 . S
C965 C963 1.327 . S
C966 C954 1.349 . S
C966 H960 0.950 . S
C966 C967 1.327 . S
C967 H961 0.950 . S
C967 C966 1.327 . S
C967 C971 1.429 1_556 S
C968 C951 1.574 . S
C968 H962 0.949 . S
C968 C972 1.368 . S
C969 C950 1.429 1_554 S
C969 C963 1.429 . S
C969 C970 1.523 . S
C970 C951 1.368 . S
C970 C964 1.368 1_554 S
C970 C969 1.523 . S
C971 C955 1.429 . S
C971 C967 1.429 1_554 S
C971 C972 1.523 . S
C972 C956 1.368 1_554 S
C972 C968 1.368 . S
C972 C971 1.523 . S
H973 C948 0.950 . S
H974 C950 0.950 . S
H975 C951 0.949 . S
H976 C953 0.950 . S
H977 C955 0.950 . S
C978 C979 1.349 . S
C978 C980 1.327 . S
C978 H1003 0.950 . S
C979 C978 1.349 . S
C979 C995 1.349 . S
C980 C978 1.327 . S
C980 C999 1.429 . S
C980 H1004 0.950 . S
C981 C998 1.574 . S
C981 C1000 1.368 . S
C981 H1005 0.949 . S
H982 C986 0.949 . S
C983 C984 1.349 . S
C983 C985 1.327 . S
C983 H1006 0.950 . S
C984 C983 1.349 . S
C984 C996 1.349 . S
C985 C983 1.327 . S
C985 C1001 1.429 . S
C985 H1007 0.950 . S
C986 H982 0.949 . S
C986 C994 1.574 . S
C986 C1002 1.368 . S
H987 C995 0.950 . S
H988 C993 0.950 . S
H989 C994 0.949 . S
H990 C996 0.950 . S
H991 C997 0.950 . S
H992 C998 0.949 . S
C993 H988 0.950 . S
C993 C995 1.327 . S
C993 C999 1.429 . S
C994 C986 1.574 . S
C994 H989 0.949 . S
C994 C1000 1.368 . S
C995 C979 1.349 . S
C995 H987 0.950 . S
C995 C993 1.327 . S
C996 C984 1.349 . S
C996 H990 0.950 . S
C996 C997 1.327 . S
C997 H991 0.950 . S
C997 C996 1.327 . S
C997 C1001 1.429 . S
C998 C981 1.574 . S
C998 H992 0.949 . S
C998 C1002 1.368 . S
C999 C980 1.429 . S
C999 C993 1.429 . S
C999 C1000 1.523 . S
C1000 C981 1.368 . S
C1000 C994 1.368 . S
C1000 C999 1.523 . S
C1001 C985 1.429 . S
C1001 C997 1.429 . S
C1001 C1002 1.523 . S
C1002 C986 1.368 . S
C1002 C998 1.368 . S
C1002 C1001 1.523 . S
H1003 C978 0.950 . S
H1004 C980 0.950 . S
H1005 C981 0.949 . S
H1006 C983 0.950 . S
H1007 C985 0.950 . S
C1008 C1009 1.349 . S
C1008 C1010 1.327 . S
C1008 H1033 0.950 . S
C1009 C1008 1.349 . S
C1009 C1025 1.349 . S
C1010 C1008 1.327 . S
C1010 C1029 1.429 . S
C1010 H1034 0.950 . S
C1011 C1028 1.574 . S
C1011 C1030 1.368 . S
C1011 H1035 0.949 . S
H1012 C1016 0.949 . S
C1013 C1014 1.349 . S
C1013 C1015 1.327 . S
C1013 H1036 0.950 . S
C1014 C1013 1.349 . S
C1014 C1026 1.349 . S
C1015 C1013 1.327 . S
C1015 C1031 1.429 . S
C1015 H1037 0.950 . S
C1016 H1012 0.949 . S
C1016 C1024 1.574 . S
C1016 C1032 1.368 . S
H1017 C1025 0.950 . S
H1018 C1023 0.950 . S
H1019 C1024 0.949 . S
H1020 C1026 0.950 . S
H1021 C1027 0.950 . S
H1022 C1028 0.949 . S
C1023 H1018 0.950 . S
C1023 C1025 1.327 . S
C1023 C1029 1.429 . S
C1024 C1016 1.574 . S
C1024 H1019 0.949 . S
C1024 C1030 1.368 . S
C1025 C1009 1.349 . S
C1025 H1017 0.950 . S
C1025 C1023 1.327 . S
C1026 C1014 1.349 . S
C1026 H1020 0.950 . S
C1026 C1027 1.327 . S
C1027 H1021 0.950 . S
C1027 C1026 1.327 . S
C1027 C1031 1.429 . S
C1028 C1011 1.574 . S
C1028 H1022 0.949 . S
C1028 C1032 1.368 . S
C1029 C1010 1.429 . S
C1029 C1023 1.429 . S
C1029 C1030 1.523 . S
C1030 C1011 1.368 . S
C1030 C1024 1.368 . S
C1030 C1029 1.523 . S
C1031 C1015 1.429 . S
C1031 C1027 1.429 . S
C1031 C1032 1.523 . S
C1032 C1016 1.368 . S
C1032 C1028 1.368 . S
C1032 C1031 1.523 . S
H1033 C1008 0.950 . S
H1034 C1010 0.950 . S
H1035 C1011 0.949 . S
H1036 C1013 0.950 . S
H1037 C1015 0.950 . S
C1038 C1039 1.349 1_554 S
C1038 C1040 1.327 . S
C1038 H1063 0.950 . S
C1039 C1038 1.349 1_556 S
C1039 C1055 1.349 . S
C1040 C1038 1.327 . S
C1040 C1059 1.429 . S
C1040 H1064 0.950 . S
C1041 C1058 1.574 . S
C1041 C1060 1.368 1_556 S
C1041 H1065 0.949 . S
H1042 C1046 0.949 . S
C1043 C1044 1.349 1_556 S
C1043 C1045 1.327 . S
C1043 H1066 0.950 . S
C1044 C1043 1.349 1_554 S
C1044 C1056 1.349 . S
C1045 C1043 1.327 . S
C1045 C1061 1.429 1_556 S
C1045 H1067 0.950 . S
C1046 H1042 0.949 . S
C1046 C1054 1.574 . S
C1046 C1062 1.368 . S
H1047 C1055 0.950 . S
H1048 C1053 0.950 . S
H1049 C1054 0.949 . S
H1050 C1056 0.950 . S
H1051 C1057 0.950 . S
H1052 C1058 0.949 . S
C1053 H1048 0.950 . S
C1053 C1055 1.327 . S
C1053 C1059 1.429 1_556 S
C1054 C1046 1.574 . S
C1054 H1049 0.949 . S
C1054 C1060 1.368 . S
C1055 C1039 1.349 . S
C1055 H1047 0.950 . S
C1055 C1053 1.327 . S
C1056 C1044 1.349 . S
C1056 H1050 0.950 . S
C1056 C1057 1.327 . S
C1057 H1051 0.950 . S
C1057 C1056 1.327 . S
C1057 C1061 1.429 . S
C1058 C1041 1.574 . S
C1058 H1052 0.949 . S
C1058 C1062 1.368 1_556 S
C1059 C1040 1.429 . S
C1059 C1053 1.429 1_554 S
C1059 C1060 1.523 . S
C1060 C1041 1.368 1_554 S
C1060 C1054 1.368 . S
C1060 C1059 1.523 . S
C1061 C1045 1.429 1_554 S
C1061 C1057 1.429 . S
C1061 C1062 1.523 . S
C1062 C1046 1.368 . S
C1062 C1058 1.368 1_554 S
C1062 C1061 1.523 . S
H1063 C1038 0.950 . S
H1064 C1040 0.950 . S
H1065 C1041 0.949 . S
H1066 C1043 0.950 . S
H1067 C1045 0.950 . S
C1068 C1069 1.349 . S
C1068 C1070 1.327 . S
C1068 H1093 0.950 . S
C1069 C1068 1.349 . S
C1069 C1085 1.349 . S
C1070 C1068 1.327 . S
C1070 C1089 1.429 . S
C1070 H1094 0.950 . S
C1071 C1088 1.574 1_545 S
C1071 C1090 1.368 . S
C1071 H1095 0.949 . S
H1072 C1076 0.949 . S
C1073 C1074 1.349 . S
C1073 C1075 1.327 . S
C1073 H1096 0.950 . S
C1074 C1073 1.349 . S
C1074 C1086 1.349 . S
C1075 C1073 1.327 . S
C1075 C1091 1.429 . S
C1075 H1097 0.950 . S
C1076 H1072 0.949 . S
C1076 C1084 1.574 1_565 S
C1076 C1092 1.368 . S
H1077 C1085 0.950 . S
H1078 C1083 0.950 . S
H1079 C1084 0.949 . S
H1080 C1086 0.950 . S
H1081 C1087 0.950 . S
H1082 C1088 0.949 . S
C1083 H1078 0.950 . S
C1083 C1085 1.327 . S
C1083 C1089 1.429 . S
C1084 C1076 1.574 1_545 S
C1084 H1079 0.949 . S
C1084 C1090 1.368 . S
C1085 C1069 1.349 . S
C1085 H1077 0.950 . S
C1085 C1083 1.327 . S
C1086 C1074 1.349 . S
C1086 H1080 0.950 . S
C1086 C1087 1.327 . S
C1087 H1081 0.950 . S
C1087 C1086 1.327 . S
C1087 C1091 1.429 . S
C1088 C1071 1.574 1_565 S
C1088 H1082 0.949 . S
C1088 C1092 1.368 . S
C1089 C1070 1.429 . S
C1089 C1083 1.429 . S
C1089 C1090 1.523 . S
C1090 C1071 1.368 . S
C1090 C1084 1.368 . S
C1090 C1089 1.523 . S
C1091 C1075 1.429 . S
C1091 C1087 1.429 . S
C1091 C1092 1.523 . S
C1092 C1076 1.368 . S
C1092 C1088 1.368 . S
C1092 C1091 1.523 . S
H1093 C1068 0.950 . S
H1094 C1070 0.950 . S
H1095 C1071 0.949 . S
H1096 C1073 0.950 . S
H1097 C1075 0.950 . S
C1098 C1099 1.349 . S
C1098 C1100 1.327 . S
C1098 H1123 0.950 . S
C1099 C1098 1.349 . S
C1099 C1115 1.349 . S
C1100 C1098 1.327 . S
C1100 C1119 1.429 . S
C1100 H1124 0.950 . S
C1101 C1118 1.574 . S
C1101 C1120 1.368 . S
C1101 H1125 0.949 . S
H1102 C1106 0.949 . S
C1103 C1104 1.349 . S
C1103 C1105 1.327 . S
C1103 H1126 0.950 . S
C1104 C1103 1.349 . S
C1104 C1116 1.349 . S
C1105 C1103 1.327 . S
C1105 C1121 1.429 . S
C1105 H1127 0.950 . S
C1106 H1102 0.949 . S
C1106 C1114 1.574 . S
C1106 C1122 1.368 . S
H1107 C1115 0.950 . S
H1108 C1113 0.950 . S
H1109 C1114 0.949 . S
H1110 C1116 0.950 . S
H1111 C1117 0.950 . S
H1112 C1118 0.949 . S
C1113 H1108 0.950 . S
C1113 C1115 1.327 . S
C1113 C1119 1.429 . S
C1114 C1106 1.574 . S
C1114 H1109 0.949 . S
C1114 C1120 1.368 . S
C1115 C1099 1.349 . S
C1115 H1107 0.950 . S
C1115 C1113 1.327 . S
C1116 C1104 1.349 . S
C1116 H1110 0.950 . S
C1116 C1117 1.327 . S
C1117 H1111 0.950 . S
C1117 C1116 1.327 . S
C1117 C1121 1.429 . S
C1118 C1101 1.574 . S
C1118 H1112 0.949 . S
C1118 C1122 1.368 . S
C1119 C1100 1.429 . S
C1119 C1113 1.429 . S
C1119 C1120 1.523 . S
C1120 C1101 1.368 . S
C1120 C1114 1.368 . S
C1120 C1119 1.523 . S
C1121 C1105 1.429 . S
C1121 C1117 1.429 . S
C1121 C1122 1.523 . S
C1122 C1106 1.368 . S
C1122 C1118 1.368 . S
C1122 C1121 1.523 . S
H1123 C1098 0.950 . S
H1124 C1100 0.950 . S
H1125 C1101 0.949 . S
H1126 C1103 0.950 . S
H1127 C1105 0.950 . S
C1128 C1129 1.349 . S
C1128 C1130 1.327 . S
C1128 H1153 0.950 . S
C1129 C1128 1.349 . S
C1129 C1145 1.346 . S
C1130 C1128 1.327 . S
C1130 C1149 1.429 . S
C1130 H1154 0.950 . S
C1131 C1148 1.574 1_655 S
C1131 C1150 1.368 1_554 S
C1131 H1155 0.949 . S
H1132 C1136 0.949 . S
C1133 C1134 1.346 . S
C1133 C1135 1.327 1_556 S
C1133 H1156 0.952 1_556 S
C1134 C1133 1.346 . S
C1134 C1146 1.349 . S
C1135 C1133 1.327 1_554 S
C1135 C1151 1.416 1_554 S
C1135 H1157 0.962 . S
C1136 H1132 0.949 . S
C1136 C1144 1.574 1_455 S
C1136 C1152 1.368 . S
H1137 C1145 0.953 1_554 S
H1138 C1143 0.962 . S
H1139 C1144 0.949 . S
H1140 C1146 0.950 . S
H1141 C1147 0.950 . S
H1142 C1148 0.949 . S
C1143 H1138 0.962 . S
C1143 C1145 1.327 1_554 S
C1143 C1149 1.416 1_554 S
C1144 C1136 1.574 1_655 S
C1144 H1139 0.949 . S
C1144 C1150 1.368 . S
C1145 C1129 1.346 . S
C1145 H1137 0.953 1_556 S
C1145 C1143 1.327 1_556 S
C1146 C1134 1.349 . S
C1146 H1140 0.950 . S
C1146 C1147 1.327 . S
C1147 H1141 0.950 . S
C1147 C1146 1.327 . S
C1147 C1151 1.429 . S
C1148 C1131 1.574 1_455 S
C1148 H1142 0.949 . S
C1148 C1152 1.368 1_554 S
C1149 C1130 1.429 . S
C1149 C1143 1.416 1_556 S
C1149 C1150 1.523 . S
C1150 C1131 1.368 1_556 S
C1150 C1144 1.368 . S
C1150 C1149 1.523 . S
C1151 C1135 1.416 1_556 S
C1151 C1147 1.429 . S
C1151 C1152 1.523 . S
C1152 C1136 1.368 . S
C1152 C1148 1.368 1_556 S
C1152 C1151 1.523 . S
H1153 C1128 0.950 . S
H1154 C1130 0.950 . S
H1155 C1131 0.949 . S
H1156 C1133 0.952 1_554 S
H1157 C1135 0.962 . S
C1158 C1159 1.349 . S
C1158 C1160 1.327 . S
C1158 H1183 0.950 . S
C1159 C1158 1.349 . S
C1159 C1175 1.349 . S
C1160 C1158 1.327 . S
C1160 C1179 1.429 . S
C1160 H1184 0.950 . S
C1161 C1178 1.574 1_455 S
C1161 C1180 1.368 . S
C1161 H1185 0.949 . S
H1162 C1166 0.949 . S
C1163 C1164 1.349 . S
C1163 C1165 1.327 . S
C1163 H1186 0.950 . S
C1164 C1163 1.349 . S
C1164 C1176 1.349 . S
C1165 C1163 1.327 . S
C1165 C1181 1.429 . S
C1165 H1187 0.950 . S
C1166 H1162 0.949 . S
C1166 C1174 1.574 1_655 S
C1166 C1182 1.368 . S
H1167 C1175 0.950 . S
H1168 C1173 0.950 . S
H1169 C1174 0.949 . S
H1170 C1176 0.950 . S
H1171 C1177 0.950 . S
H1172 C1178 0.949 . S
C1173 H1168 0.950 . S
C1173 C1175 1.327 . S
C1173 C1179 1.429 . S
C1174 C1166 1.574 1_455 S
C1174 H1169 0.949 . S
C1174 C1180 1.368 . S
C1175 C1159 1.349 . S
C1175 H1167 0.950 . S
C1175 C1173 1.327 . S
C1176 C1164 1.349 . S
C1176 H1170 0.950 . S
C1176 C1177 1.327 . S
C1177 H1171 0.950 . S
C1177 C1176 1.327 . S
C1177 C1181 1.429 . S
C1178 C1161 1.574 1_655 S
C1178 H1172 0.949 . S
C1178 C1182 1.368 . S
C1179 C1160 1.429 . S
C1179 C1173 1.429 . S
C1179 C1180 1.523 . S
C1180 C1161 1.368 . S
C1180 C1174 1.368 . S
C1180 C1179 1.523 . S
C1181 C1165 1.429 . S
C1181 C1177 1.429 . S
C1181 C1182 1.523 . S
C1182 C1166 1.368 . S
C1182 C1178 1.368 . S
C1182 C1181 1.523 . S
H1183 C1158 0.950 . S
H1184 C1160 0.950 . S
H1185 C1161 0.949 . S
H1186 C1163 0.950 . S
H1187 C1165 0.950 . S
C1188 C1189 1.349 . S
C1188 C1190 1.327 . S
C1188 H1213 0.950 . S
C1189 C1188 1.349 . S
C1189 C1205 1.349 . S
C1190 C1188 1.327 . S
C1190 C1209 1.429 . S
C1190 H1214 0.950 . S
C1191 C1208 1.574 1_545 S
C1191 C1210 1.368 . S
C1191 H1215 0.949 . S
H1192 C1196 0.949 . S
C1193 C1194 1.349 . S
C1193 C1195 1.327 . S
C1193 H1216 0.950 . S
C1194 C1193 1.349 . S
C1194 C1206 1.349 . S
C1195 C1193 1.327 . S
C1195 C1211 1.429 . S
C1195 H1217 0.950 . S
C1196 H1192 0.949 . S
C1196 C1204 1.574 1_565 S
C1196 C1212 1.368 . S
H1197 C1205 0.950 . S
H1198 C1203 0.950 . S
H1199 C1204 0.949 . S
H1200 C1206 0.950 . S
H1201 C1207 0.950 . S
H1202 C1208 0.949 . S
C1203 H1198 0.950 . S
C1203 C1205 1.327 . S
C1203 C1209 1.429 . S
C1204 C1196 1.574 1_545 S
C1204 H1199 0.949 . S
C1204 C1210 1.368 . S
C1205 C1189 1.349 . S
C1205 H1197 0.950 . S
C1205 C1203 1.327 . S
C1206 C1194 1.349 . S
C1206 H1200 0.950 . S
C1206 C1207 1.327 . S
C1207 H1201 0.950 . S
C1207 C1206 1.327 . S
C1207 C1211 1.429 . S
C1208 C1191 1.574 1_565 S
C1208 H1202 0.949 . S
C1208 C1212 1.368 . S
C1209 C1190 1.429 . S
C1209 C1203 1.429 . S
C1209 C1210 1.523 . S
C1210 C1191 1.368 . S
C1210 C1204 1.368 . S
C1210 C1209 1.523 . S
C1211 C1195 1.429 . S
C1211 C1207 1.429 . S
C1211 C1212 1.523 . S
C1212 C1196 1.368 . S
C1212 C1208 1.368 . S
C1212 C1211 1.523 . S
H1213 C1188 0.950 . S
H1214 C1190 0.950 . S
H1215 C1191 0.949 . S
H1216 C1193 0.950 . S
H1217 C1195 0.950 . S
C1218 C1219 1.349 . S
C1218 C1220 1.327 . S
C1218 H1243 0.950 . S
C1219 C1218 1.349 . S
C1219 C1235 1.349 . S
C1220 C1218 1.327 . S
C1220 C1239 1.429 . S
C1220 H1244 0.950 . S
C1221 C1238 1.574 . S
C1221 C1240 1.368 . S
C1221 H1245 0.949 1_554 S
H1222 C1226 0.949 . S
C1223 C1224 1.349 . S
C1223 C1225 1.327 . S
C1223 H1246 0.950 1_554 S
C1224 C1223 1.349 . S
C1224 C1236 1.349 . S
C1225 C1223 1.327 . S
C1225 C1241 1.429 . S
C1225 H1247 0.950 1_554 S
C1226 H1222 0.949 . S
C1226 C1234 1.574 . S
C1226 C1242 1.368 . S
H1227 C1235 0.950 1_556 S
H1228 C1233 0.950 1_556 S
H1229 C1234 0.949 . S
H1230 C1236 0.950 . S
H1231 C1237 0.950 . S
H1232 C1238 0.949 1_556 S
C1233 H1228 0.950 1_554 S
C1233 C1235 1.327 . S
C1233 C1239 1.429 . S
C1234 C1226 1.574 . S
C1234 H1229 0.949 . S
C1234 C1240 1.368 . S
C1235 C1219 1.349 . S
C1235 H1227 0.950 1_554 S
C1235 C1233 1.327 . S
C1236 C1224 1.349 . S
C1236 H1230 0.950 . S
C1236 C1237 1.327 . S
C1237 H1231 0.950 . S
C1237 C1236 1.327 . S
C1237 C1241 1.429 . S
C1238 C1221 1.574 . S
C1238 H1232 0.949 1_554 S
C1238 C1242 1.368 . S
C1239 C1220 1.429 . S
C1239 C1233 1.429 . S
C1239 C1240 1.523 . S
C1240 C1221 1.368 . S
C1240 C1234 1.368 . S
C1240 C1239 1.523 . S
C1241 C1225 1.429 . S
C1241 C1237 1.429 . S
C1241 C1242 1.523 . S
C1242 C1226 1.368 . S
C1242 C1238 1.368 . S
C1242 C1241 1.523 . S
H1243 C1218 0.950 . S
H1244 C1220 0.950 . S
H1245 C1221 0.949 1_556 S
H1246 C1223 0.950 1_556 S
H1247 C1225 0.950 1_556 S
C1248 C1249 1.349 . S
C1248 C1250 1.327 . S
C1248 H1273 0.950 . S
C1249 C1248 1.349 . S
C1249 C1265 1.349 . S
C1250 C1248 1.327 . S
C1250 C1269 1.429 . S
C1250 H1274 0.950 . S
C1251 C1268 1.574 . S
C1251 C1270 1.368 . S
C1251 H1275 0.949 . S
H1252 C1256 0.949 . S
C1253 C1254 1.349 . S
C1253 C1255 1.327 . S
C1253 H1276 0.950 . S
C1254 C1253 1.349 . S
C1254 C1266 1.349 . S
C1255 C1253 1.327 . S
C1255 C1271 1.429 . S
C1255 H1277 0.950 . S
C1256 H1252 0.949 . S
C1256 C1264 1.574 . S
C1256 C1272 1.368 . S
H1257 C1265 0.950 . S
H1258 C1263 0.950 . S
H1259 C1264 0.949 . S
H1260 C1266 0.950 . S
H1261 C1267 0.950 . S
H1262 C1268 0.949 . S
C1263 H1258 0.950 . S
C1263 C1265 1.327 . S
C1263 C1269 1.429 . S
C1264 C1256 1.574 . S
C1264 H1259 0.949 . S
C1264 C1270 1.368 . S
C1265 C1249 1.349 . S
C1265 H1257 0.950 . S
C1265 C1263 1.327 . S
C1266 C1254 1.349 . S
C1266 H1260 0.950 . S
C1266 C1267 1.327 . S
C1267 H1261 0.950 . S
C1267 C1266 1.327 . S
C1267 C1271 1.429 . S
C1268 C1251 1.574 . S
C1268 H1262 0.949 . S
C1268 C1272 1.368 . S
C1269 C1250 1.429 . S
C1269 C1263 1.429 . S
C1269 C1270 1.523 . S
C1270 C1251 1.368 . S
C1270 C1264 1.368 . S
C1270 C1269 1.523 . S
C1271 C1255 1.429 . S
C1271 C1267 1.429 . S
C1271 C1272 1.523 . S
C1272 C1256 1.368 . S
C1272 C1268 1.368 . S
C1272 C1271 1.523 . S
H1273 C1248 0.950 . S
H1274 C1250 0.950 . S
H1275 C1251 0.949 . S
H1276 C1253 0.950 . S
H1277 C1255 0.950 . S
C1278 C1279 1.349 . S
C1278 C1280 1.327 . S
C1278 H1303 0.950 . S
C1279 C1278 1.349 . S
C1279 C1295 1.349 . S
C1280 C1278 1.327 . S
C1280 C1299 1.429 . S
C1280 H1304 0.950 . S
C1281 C1298 1.574 . S
C1281 C1300 1.368 . S
C1281 H1305 0.949 . S
H1282 C1286 0.949 . S
C1283 C1284 1.349 . S
C1283 C1285 1.327 . S
C1283 H1306 0.950 . S
C1284 C1283 1.349 . S
C1284 C1296 1.349 . S
C1285 C1283 1.327 . S
C1285 C1301 1.429 . S
C1285 H1307 0.950 . S
C1286 H1282 0.949 . S
C1286 C1294 1.574 . S
C1286 C1302 1.368 . S
H1287 C1295 0.950 . S
H1288 C1293 0.950 . S
H1289 C1294 0.949 . S
H1290 C1296 0.950 . S
H1291 C1297 0.950 . S
H1292 C1298 0.949 . S
C1293 H1288 0.950 . S
C1293 C1295 1.327 . S
C1293 C1299 1.429 . S
C1294 C1286 1.574 . S
C1294 H1289 0.949 . S
C1294 C1300 1.368 . S
C1295 C1279 1.349 . S
C1295 H1287 0.950 . S
C1295 C1293 1.327 . S
C1296 C1284 1.349 . S
C1296 H1290 0.950 . S
C1296 C1297 1.327 . S
C1297 H1291 0.950 . S
C1297 C1296 1.327 . S
C1297 C1301 1.429 . S
C1298 C1281 1.574 . S
C1298 H1292 0.949 . S
C1298 C1302 1.368 . S
C1299 C1280 1.429 . S
C1299 C1293 1.429 . S
C1299 C1300 1.523 . S
C1300 C1281 1.368 . S
C1300 C1294 1.368 . S
C1300 C1299 1.523 . S
C1301 C1285 1.429 . S
C1301 C1297 1.429 . S
C1301 C1302 1.523 . S
C1302 C1286 1.368 . S
C1302 C1298 1.368 . S
C1302 C1301 1.523 . S
H1303 C1278 0.950 . S
H1304 C1280 0.950 . S
H1305 C1281 0.949 . S
H1306 C1283 0.950 . S
H1307 C1285 0.950 . S
C1308 C1309 1.349 . S
C1308 C1310 1.327 . S
C1308 H1333 0.950 . S
C1309 C1308 1.349 . S
C1309 C1325 1.349 . S
C1310 C1308 1.327 . S
C1310 C1329 1.429 . S
C1310 H1334 0.950 . S
C1311 C1328 1.574 . S
C1311 C1330 1.368 . S
C1311 H1335 0.949 . S
H1312 C1316 0.949 . S
C1313 C1314 1.349 . S
C1313 C1315 1.327 . S
C1313 H1336 0.950 . S
C1314 C1313 1.349 . S
C1314 C1326 1.349 . S
C1315 C1313 1.327 . S
C1315 C1331 1.429 . S
C1315 H1337 0.950 . S
C1316 H1312 0.949 . S
C1316 C1324 1.574 . S
C1316 C1332 1.368 . S
H1317 C1325 0.950 . S
H1318 C1323 0.950 . S
H1319 C1324 0.949 . S
H1320 C1326 0.950 . S
H1321 C1327 0.950 . S
H1322 C1328 0.949 . S
C1323 H1318 0.950 . S
C1323 C1325 1.327 . S
C1323 C1329 1.429 . S
C1324 C1316 1.574 . S
C1324 H1319 0.949 . S
C1324 C1330 1.368 . S
C1325 C1309 1.349 . S
C1325 H1317 0.950 . S
C1325 C1323 1.327 . S
C1326 C1314 1.349 . S
C1326 H1320 0.950 . S
C1326 C1327 1.327 . S
C1327 H1321 0.950 . S
C1327 C1326 1.327 . S
C1327 C1331 1.429 . S
C1328 C1311 1.574 . S
C1328 H1322 0.949 . S
C1328 C1332 1.368 . S
C1329 C1310 1.429 . S
C1329 C1323 1.429 . S
C1329 C1330 1.523 . S
C1330 C1311 1.368 . S
C1330 C1324 1.368 . S
C1330 C1329 1.523 . S
C1331 C1315 1.429 . S
C1331 C1327 1.429 . S
C1331 C1332 1.523 . S
C1332 C1316 1.368 . S
C1332 C1328 1.368 . S
C1332 C1331 1.523 . S
H1333 C1308 0.950 . S
H1334 C1310 0.950 . S
H1335 C1311 0.949 . S
H1336 C1313 0.950 . S
H1337 C1315 0.950 . S
C1338 C1339 1.349 . S
C1338 C1340 1.327 . S
C1338 H1363 0.950 . S
C1339 C1338 1.349 . S
C1339 C1355 1.349 . S
C1340 C1338 1.327 . S
C1340 C1359 1.429 . S
C1340 H1364 0.950 . S
C1341 C1358 1.574 . S
C1341 C1360 1.368 . S
C1341 H1365 0.949 . S
H1342 C1346 0.949 . S
C1343 C1344 1.349 . S
C1343 C1345 1.327 . S
C1343 H1366 0.950 . S
C1344 C1343 1.349 . S
C1344 C1356 1.349 . S
C1345 C1343 1.327 . S
C1345 C1361 1.429 . S
C1345 H1367 0.950 . S
C1346 H1342 0.949 . S
C1346 C1354 1.574 . S
C1346 C1362 1.368 . S
H1347 C1355 0.950 . S
H1348 C1353 0.950 . S
H1349 C1354 0.949 . S
H1350 C1356 0.950 . S
H1351 C1357 0.950 . S
H1352 C1358 0.949 . S
C1353 H1348 0.950 . S
C1353 C1355 1.327 . S
C1353 C1359 1.429 . S
C1354 C1346 1.574 . S
C1354 H1349 0.949 . S
C1354 C1360 1.368 . S
C1355 C1339 1.349 . S
C1355 H1347 0.950 . S
C1355 C1353 1.327 . S
C1356 C1344 1.349 . S
C1356 H1350 0.950 . S
C1356 C1357 1.327 . S
C1357 H1351 0.950 . S
C1357 C1356 1.327 . S
C1357 C1361 1.429 . S
C1358 C1341 1.574 . S
C1358 H1352 0.949 . S
C1358 C1362 1.368 . S
C1359 C1340 1.429 . S
C1359 C1353 1.429 . S
C1359 C1360 1.523 . S
C1360 C1341 1.368 . S
C1360 C1354 1.368 . S
C1360 C1359 1.523 . S
C1361 C1345 1.429 . S
C1361 C1357 1.429 . S
C1361 C1362 1.523 . S
C1362 C1346 1.368 . S
C1362 C1358 1.368 . S
C1362 C1361 1.523 . S
H1363 C1338 0.950 . S
H1364 C1340 0.950 . S
H1365 C1341 0.949 . S
H1366 C1343 0.950 . S
H1367 C1345 0.950 . S
C1368 C1369 1.349 . S
C1368 C1370 1.327 . S
C1368 H1393 0.950 . S
C1369 C1368 1.349 . S
C1369 C1385 1.349 . S
C1370 C1368 1.327 . S
C1370 C1389 1.429 . S
C1370 H1394 0.950 . S
C1371 C1388 1.574 . S
C1371 C1390 1.368 . S
C1371 H1395 0.949 . S
H1372 C1376 0.949 . S
C1373 C1374 1.349 . S
C1373 C1375 1.327 . S
C1373 H1396 0.950 . S
C1374 C1373 1.349 . S
C1374 C1386 1.349 . S
C1375 C1373 1.327 . S
C1375 C1391 1.429 . S
C1375 H1397 0.950 . S
C1376 H1372 0.949 . S
C1376 C1384 1.574 . S
C1376 C1392 1.368 . S
H1377 C1385 0.950 . S
H1378 C1383 0.950 . S
H1379 C1384 0.949 . S
H1380 C1386 0.950 . S
H1381 C1387 0.950 . S
H1382 C1388 0.949 . S
C1383 H1378 0.950 . S
C1383 C1385 1.327 . S
C1383 C1389 1.429 . S
C1384 C1376 1.574 . S
C1384 H1379 0.949 . S
C1384 C1390 1.368 . S
C1385 C1369 1.349 . S
C1385 H1377 0.950 . S
C1385 C1383 1.327 . S
C1386 C1374 1.349 . S
C1386 H1380 0.950 . S
C1386 C1387 1.327 . S
C1387 H1381 0.950 . S
C1387 C1386 1.327 . S
C1387 C1391 1.429 . S
C1388 C1371 1.574 . S
C1388 H1382 0.949 . S
C1388 C1392 1.368 . S
C1389 C1370 1.429 . S
C1389 C1383 1.429 . S
C1389 C1390 1.523 . S
C1390 C1371 1.368 . S
C1390 C1384 1.368 . S
C1390 C1389 1.523 . S
C1391 C1375 1.429 . S
C1391 C1387 1.429 . S
C1391 C1392 1.523 . S
C1392 C1376 1.368 . S
C1392 C1388 1.368 . S
C1392 C1391 1.523 . S
H1393 C1368 0.950 . S
H1394 C1370 0.950 . S
H1395 C1371 0.949 . S
H1396 C1373 0.950 . S
H1397 C1375 0.950 . S
C1398 C1399 1.349 . S
C1398 C1400 1.327 . S
C1398 H1423 0.950 . S
C1399 C1398 1.349 . S
C1399 C1415 1.349 . S
C1400 C1398 1.327 . S
C1400 C1419 1.429 . S
C1400 H1424 0.950 . S
C1401 C1418 1.574 . S
C1401 C1420 1.368 . S
C1401 H1425 0.949 . S
H1402 C1406 0.949 . S
C1403 C1404 1.349 . S
C1403 C1405 1.327 . S
C1403 H1426 0.950 . S
C1404 C1403 1.349 . S
C1404 C1416 1.349 . S
C1405 C1403 1.327 . S
C1405 C1421 1.429 . S
C1405 H1427 0.950 . S
C1406 H1402 0.949 . S
C1406 C1414 1.574 . S
C1406 C1422 1.368 . S
H1407 C1415 0.950 . S
H1408 C1413 0.950 . S
H1409 C1414 0.949 . S
H1410 C1416 0.950 . S
H1411 C1417 0.950 . S
H1412 C1418 0.949 . S
C1413 H1408 0.950 . S
C1413 C1415 1.327 . S
C1413 C1419 1.429 . S
C1414 C1406 1.574 . S
C1414 H1409 0.949 . S
C1414 C1420 1.368 . S
C1415 C1399 1.349 . S
C1415 H1407 0.950 . S
C1415 C1413 1.327 . S
C1416 C1404 1.349 . S
C1416 H1410 0.950 . S
C1416 C1417 1.327 . S
C1417 H1411 0.950 . S
C1417 C1416 1.327 . S
C1417 C1421 1.429 . S
C1418 C1401 1.574 . S
C1418 H1412 0.949 . S
C1418 C1422 1.368 . S
C1419 C1400 1.429 . S
C1419 C1413 1.429 . S
C1419 C1420 1.523 . S
C1420 C1401 1.368 . S
C1420 C1414 1.368 . S
C1420 C1419 1.523 . S
C1421 C1405 1.429 . S
C1421 C1417 1.429 . S
C1421 C1422 1.523 . S
C1422 C1406 1.368 . S
C1422 C1418 1.368 . S
C1422 C1421 1.523 . S
H1423 C1398 0.950 . S
H1424 C1400 0.950 . S
H1425 C1401 0.949 . S
H1426 C1403 0.950 . S
H1427 C1405 0.950 . S
C709 C33 1.786 . S
C714 C623 1.786 . S
C739 C92 1.786 . S
C744 C682 1.786 . S
C769 C387 1.785 . S
C774 C151 1.785 . S
C799 C210 1.785 . S
C804 C446 1.785 . S
C829 C505 1.786 . S
C834 C269 1.786 . S
C859 C564 1.786 . S
C864 C328 1.786 . S
C889 C406 0.362 . S
C894 C52 0.362 . S
C919 C465 0.362 . S
C924 C111 0.362 . S
C949 C524 0.362 . S
C954 C170 0.362 . S
C979 C229 0.362 . S
C984 C583 0.362 . S
C1009 C288 0.362 . S
C1014 C642 0.362 . S
C1039 C347 0.362 . S
C1044 C701 0.362 . S
C1069 C5 1.510 . S
C1074 C182 1.510 . S
C1099 C64 1.511 . S
C1104 C241 1.511 . S
C1129 C123 1.511 . S
C1134 C300 1.511 . S
C1159 C536 1.510 . S
C1164 C359 1.510 . S
C1189 C595 1.511 . S
C1194 C418 1.511 . S
C1219 C654 1.510 . S
C1224 C477 1.510 . S
C1249 C3 1.287 . S
C1254 C475 1.287 . S
C1279 C534 1.287 . S
C1284 C62 1.287 . S
C1309 C121 1.287 . S
C1314 C593 1.287 . S
C1339 C652 1.288 . S
C1344 C180 1.288 . S
C1369 C239 1.288 . S
C1374 C357 1.288 . S
C1399 C298 1.287 . S
C1404 C416 1.287 . S
