# Generated by pormake.
# Topology wji, (4)-cn, num edge types: 1
# Building blocks:
#     Node 0, Type 0, BuildingBlock: KUFVIS_clean_sbu_0, # of connection points: 4
#     Node 1, Type 0, BuildingBlock: KUFVIS_clean_sbu_0, # of connection points: 4
#     Node 2, Type 0, BuildingBlock: KUFVIS_clean_sbu_0, # of connection points: 4
#     Node 3, Type 0, BuildingBlock: KUFVIS_clean_sbu_0, # of connection points: 4
#     Node 4, Type 0, BuildingBlock: KUFVIS_clean_sbu_0, # of connection points: 4
#     Node 5, Type 0, BuildingBlock: KUFVIS_clean_sbu_0, # of connection points: 4
#     Node 6, Type 0, BuildingBlock: KUFVIS_clean_sbu_0, # of connection points: 4
#     Node 7, Type 0, BuildingBlock: KUFVIS_clean_sbu_0, # of connection points: 4
#     Node 8, Type 0, BuildingBlock: KUFVIS_clean_sbu_0, # of connection points: 4
#     Node 9, Type 0, BuildingBlock: KUFVIS_clean_sbu_0, # of connection points: 4
#     Node 10, Type 0, BuildingBlock: KUFVIS_clean_sbu_0, # of connection points: 4
#     Node 11, Type 0, BuildingBlock: KUFVIS_clean_sbu_0, # of connection points: 4
#     Edge 12, Type (0, 0), BuildingBlock: ZUJKAS_clean_linker_0, # of connection points: 2
#     Edge 13, Type (0, 0), BuildingBlock: ZUJKAS_clean_linker_0, # of connection points: 2
#     Edge 14, Type (0, 0), BuildingBlock: ZUJKAS_clean_linker_0, # of connection points: 2
#     Edge 15, Type (0, 0), BuildingBlock: ZUJKAS_clean_linker_0, # of connection points: 2
#     Edge 16, Type (0, 0), BuildingBlock: ZUJKAS_clean_linker_0, # of connection points: 2
#     Edge 17, Type (0, 0), BuildingBlock: ZUJKAS_clean_linker_0, # of connection points: 2
#     Edge 18, Type (0, 0), BuildingBlock: ZUJKAS_clean_linker_0, # of connection points: 2
#     Edge 19, Type (0, 0), BuildingBlock: ZUJKAS_clean_linker_0, # of connection points: 2
#     Edge 20, Type (0, 0), BuildingBlock: ZUJKAS_clean_linker_0, # of connection points: 2
#     Edge 21, Type (0, 0), BuildingBlock: ZUJKAS_clean_linker_0, # of connection points: 2
#     Edge 22, Type (0, 0), BuildingBlock: ZUJKAS_clean_linker_0, # of connection points: 2
#     Edge 23, Type (0, 0), BuildingBlock: ZUJKAS_clean_linker_0, # of connection points: 2
#     Edge 24, Type (0, 0), BuildingBlock: ZUJKAS_clean_linker_0, # of connection points: 2
#     Edge 25, Type (0, 0), BuildingBlock: ZUJKAS_clean_linker_0, # of connection points: 2
#     Edge 26, Type (0, 0), BuildingBlock: ZUJKAS_clean_linker_0, # of connection points: 2
#     Edge 27, Type (0, 0), BuildingBlock: ZUJKAS_clean_linker_0, # of connection points: 2
#     Edge 28, Type (0, 0), BuildingBlock: ZUJKAS_clean_linker_0, # of connection points: 2
#     Edge 29, Type (0, 0), BuildingBlock: ZUJKAS_clean_linker_0, # of connection points: 2
#     Edge 30, Type (0, 0), BuildingBlock: ZUJKAS_clean_linker_0, # of connection points: 2
#     Edge 31, Type (0, 0), BuildingBlock: ZUJKAS_clean_linker_0, # of connection points: 2
#     Edge 32, Type (0, 0), BuildingBlock: ZUJKAS_clean_linker_0, # of connection points: 2
#     Edge 33, Type (0, 0), BuildingBlock: ZUJKAS_clean_linker_0, # of connection points: 2
#     Edge 34, Type (0, 0), BuildingBlock: ZUJKAS_clean_linker_0, # of connection points: 2
#     Edge 35, Type (0, 0), BuildingBlock: ZUJKAS_clean_linker_0, # of connection points: 2
# Relax obj value: 0.188
# Max RMSD: 0.112
# Mean RMSD: 0.112
data_MOF--net-wji--node1-KUFVIS_clean_sbu_0--edge1-ZUJKAS_clean_linker_0
_symmetry_space_group_name_H-M    P1
_symmetry_Int_Tables_number       1
_symmetry_cell_setting            triclinic
loop_
_symmetry_equiv_pos_as_xyz
'x, y, z'
_cell_length_a     73.440139
_cell_length_b     73.454432
_cell_length_c     29.841296
_cell_angle_alpha  90.025074
_cell_angle_beta   90.065758
_cell_angle_gamma 119.95782
loop_
_atom_site_label
_atom_site_type_symbol
_atom_site_fract_x
_atom_site_fract_y
_atom_site_fract_z
_atom_type_partial_charge
Mn0 Mn 0.4162 0.32604 0.44958 0.0
Mn1 Mn 0.41336 0.36987 0.46717 0.0
C2 C 0.38806 0.32429 0.48836 0.0
C3 C 0.42732 0.30307 0.47655 0.0
C4 C 0.40468 0.3478 0.37679 0.0
O5 O 0.44631 0.34978 0.43788 0.0
O6 O 0.44321 0.37765 0.45896 0.0
C7 C 0.43522 0.38447 0.55439 0.0
N8 N 0.41766 0.37798 0.52886 0.0
C9 C 0.39971 0.38422 0.58919 0.0
C10 C 0.41764 0.39108 0.61606 0.0
C11 C 0.43543 0.3911 0.59865 0.0
C12 C 0.40042 0.37781 0.54536 0.0
H13 H 0.44897 0.38468 0.54098 0.0
C14 C 0.45421 0.36939 0.44645 0.0
O15 O 0.42313 0.30342 0.43427 0.0
O16 O 0.4259 0.31654 0.50203 0.0
N17 N 0.38511 0.36398 0.47617 0.0
C18 C 0.36868 0.35571 0.44682 0.0
C19 C 0.34933 0.35354 0.45989 0.0
C20 C 0.34713 0.36008 0.50277 0.0
C21 C 0.36429 0.36863 0.5323 0.0
C22 C 0.38315 0.37029 0.51753 0.0
H23 H 0.37027 0.35073 0.41374 0.0
O24 O 0.38636 0.30756 0.46974 0.0
O25 O 0.40598 0.34133 0.48319 0.0
O26 O 0.40601 0.33179 0.38909 0.0
O27 O 0.40822 0.36292 0.40312 0.0
C28 C 0.36336 0.37543 0.57592 0.0
C29 C 0.38107 0.38331 0.60424 0.0
H30 H 0.41792 0.39627 0.65015 0.0
H31 H 0.44931 0.39632 0.61923 0.0
H32 H 0.33615 0.34689 0.43691 0.0
H33 H 0.33218 0.35837 0.51276 0.0
H34 H 0.34907 0.37458 0.58812 0.0
H35 H 0.38009 0.38853 0.63753 0.0
Mn36 Mn 0.09386 0.41739 0.61992 0.0
Mn37 Mn 0.04776 0.41459 0.64419 0.0
C38 C 0.0685 0.38929 0.66078 0.0
C39 C 0.12842 0.42855 0.64404 0.0
C40 C 0.05865 0.40549 0.55133 0.0
O41 O 0.09993 0.44745 0.60859 0.0
O42 O 0.06948 0.44432 0.63354 0.0
C43 C 0.05868 0.43693 0.73127 0.0
N44 N 0.04618 0.41945 0.70661 0.0
C45 C 0.02482 0.40181 0.77085 0.0
C46 C 0.03745 0.41964 0.79695 0.0
C47 C 0.05446 0.43726 0.77707 0.0
C48 C 0.02979 0.4024 0.7254 0.0
H49 H 0.07181 0.45047 0.71613 0.0
C50 C 0.08831 0.45528 0.61872 0.0
O51 O 0.12319 0.42429 0.60203 0.0
O52 O 0.11398 0.42723 0.67069 0.0
N53 N 0.0256 0.38655 0.6557 0.0
C54 C 0.01612 0.36999 0.62686 0.0
C55 C 0.99919 0.35091 0.64185 0.0
C56 C 0.99208 0.34911 0.68617 0.0
C57 C 1.00206 0.36638 0.71518 0.0
C58 C 0.01884 0.385 0.69837 0.0
H59 H 0.02144 0.3713 0.59269 0.0
O60 O 0.08306 0.38758 0.64002 0.0
O61 O 0.06921 0.40716 0.6563 0.0
O62 O 0.07647 0.4072 0.56099 0.0
O63 O 0.04764 0.40883 0.57977 0.0
C64 C 0.99625 0.36573 0.76034 0.0
C65 C 0.00781 0.3833 0.7883 0.0
H66 H 0.0344 0.41992 0.83235 0.0
H67 H 0.06433 0.45104 0.79705 0.0
H68 H 0.99162 0.33763 0.61928 0.0
H69 H 0.97907 0.33434 0.69769 0.0
H70 H 0.98316 0.35167 0.77414 0.0
H71 H 0.00362 0.3822 0.82328 0.0
Mn72 Mn 0.68282 0.09516 0.76864 0.0
Mn73 Mn 0.6363 0.05114 0.78585 0.0
C74 C 0.681 0.06836 0.81244 0.0
C75 C 0.70766 0.12892 0.79423 0.0
C76 C 0.66147 0.05867 0.70066 0.0
O77 O 0.66201 0.10452 0.75029 0.0
O78 O 0.63208 0.07383 0.76087 0.0
C79 C 0.62178 0.0683 0.85844 0.0
N80 N 0.62617 0.05341 0.84332 0.0
C81 C 0.61608 0.03515 0.91374 0.0
C82 C 0.6113 0.0502 0.92998 0.0
C83 C 0.6142 0.06686 0.90221 0.0
C84 C 0.62349 0.03734 0.86979 0.0
H85 H 0.62408 0.0812 0.83733 0.0
C86 C 0.64203 0.09316 0.7491 0.0
O87 O 0.70785 0.12338 0.75284 0.0
O88 O 0.69275 0.1153 0.81922 0.0
N89 N 0.63761 0.02779 0.8106 0.0
C90 C 0.64397 0.0152 0.79073 0.0
C91 C 0.64215 0.99778 0.81414 0.0
C92 C 0.63376 0.99346 0.85765 0.0
C93 C 0.62742 0.00669 0.87749 0.0
C94 C 0.62928 0.02361 0.85226 0.0
H95 H 0.65054 0.01852 0.75744 0.0
O96 O 0.69859 0.08187 0.79404 0.0
O97 O 0.665 0.0709 0.80459 0.0
O98 O 0.67636 0.07731 0.71024 0.0
O99 O 0.64613 0.04765 0.72702 0.0
C100 C 0.61969 0.004 0.92162 0.0
C101 C 0.61412 0.0183 0.93975 0.0
H102 H 0.60555 0.04919 0.96383 0.0
H103 H 0.61066 0.0786 0.91456 0.0
H104 H 0.64723 0.98773 0.79873 0.0
H105 H 0.63236 0.98001 0.87559 0.0
H106 H 0.61832 0.9912 0.94211 0.0
H107 H 0.60852 0.0164 0.97386 0.0
Mn108 Mn 0.58995 0.67622 0.95007 0.0
Mn109 Mn 0.58589 0.62886 0.96609 0.0
C110 C 0.61559 0.67369 0.99012 0.0
C111 C 0.58221 0.70175 0.97669 0.0
C112 C 0.60162 0.65318 0.87923 0.0
O113 O 0.55922 0.65606 0.93429 0.0
O114 O 0.55868 0.62551 0.94578 0.0
C115 C 0.55694 0.61576 0.04357 0.0
N116 N 0.57538 0.61934 0.02506 0.0
C117 C 0.58454 0.60718 0.09152 0.0
C118 C 0.56559 0.60324 0.11124 0.0
C119 C 0.55178 0.60765 0.08723 0.0
C120 C 0.5889 0.61542 0.04807 0.0
H121 H 0.54623 0.61902 0.02512 0.0
C122 C 0.54982 0.63604 0.93455 0.0
O123 O 0.58721 0.70155 0.93492 0.0
O124 O 0.58123 0.68699 1.00186 0.0
N125 N 0.61078 0.62915 0.98602 0.0
C126 C 0.62868 0.63443 0.96268 0.0
C127 C 0.64417 0.63103 0.98202 0.0
C128 C 0.64097 0.62201 0.02485 0.0
C129 C 0.6225 0.61683 0.04833 0.0
C130 C 0.60755 0.6204 0.0272 0.0
H131 H 0.63102 0.64102 0.92942 0.0
O132 O 0.61952 0.69136 0.97227 0.0
O133 O 0.5966 0.658 0.98461 0.0
O134 O 0.59974 0.66908 0.89031 0.0
O135 O 0.59706 0.63774 0.90544 0.0
C136 C 0.6183 0.60818 0.0918 0.0
C137 C 0.59932 0.60338 0.11336 0.0
H138 H 0.56153 0.59693 0.14487 0.0
H139 H 0.53716 0.60473 0.10227 0.0
H140 H 0.65844 0.63516 0.96379 0.0
H141 H 0.65284 0.61918 0.03946 0.0
H142 H 0.62959 0.60527 0.109 0.0
H143 H 0.59618 0.59673 0.14672 0.0
Mn144 Mn 0.91108 0.58286 0.10546 0.0
Mn145 Mn 0.95027 0.5714 0.10804 0.0
C146 C 0.94187 0.60445 0.14439 0.0
C147 C 0.87993 0.57871 0.1369 0.0
C148 C 0.94219 0.592 0.0283 0.0
O149 O 0.89624 0.55217 0.08473 0.0
O150 O 0.92352 0.54641 0.09085 0.0
C151 C 0.93524 0.54169 0.18429 0.0
N152 N 0.95066 0.55938 0.16444 0.0
C153 C 0.97564 0.56342 0.22127 0.0
C154 C 0.96004 0.54525 0.24244 0.0
C155 C 0.9397 0.53443 0.22404 0.0
C156 C 0.97011 0.57017 0.18241 0.0
H157 H 0.91972 0.53311 0.16968 0.0
C158 C 0.90428 0.54031 0.08211 0.0
O159 O 0.88507 0.58492 0.09573 0.0
O160 O 0.89257 0.57459 0.15918 0.0
N161 N 0.97742 0.5939 0.12419 0.0
C162 C 0.9904 0.61151 0.10041 0.0
C163 C 0.01136 0.62412 0.11419 0.0
C164 C 0.01886 0.6182 0.15154 0.0
C165 C 0.00516 0.60004 0.17559 0.0
C166 C 0.98438 0.5883 0.16069 0.0
H167 H 0.98489 0.61572 0.07076 0.0
O168 O 0.92946 0.61129 0.13179 0.0
O169 O 0.93571 0.58495 0.13478 0.0
O170 O 0.92664 0.59314 0.04453 0.0
O171 O 0.95151 0.58387 0.04931 0.0
C172 C 0.01136 0.59301 0.21349 0.0
C173 C 0.99652 0.57494 0.23681 0.0
H174 H 0.96351 0.53944 0.27274 0.0
H175 H 0.92759 0.52038 0.24011 0.0
H176 H 0.02182 0.63813 0.09554 0.0
H177 H 0.03513 0.62778 0.16161 0.0
H178 H 0.02743 0.6016 0.22546 0.0
H179 H 1.00138 0.56996 0.26646 0.0
Mn180 Mn 0.33039 0.91965 0.28913 0.0
Mn181 Mn 0.37561 0.96514 0.30512 0.0
C182 C 0.32998 0.94765 0.32435 0.0
C183 C 0.30625 0.88647 0.3183 0.0
C184 C 0.35369 0.9513 0.21463 0.0
O185 O 0.353 0.91139 0.27963 0.0
O186 O 0.38165 0.94178 0.3 0.0
C187 C 0.38821 0.95759 0.39434 0.0
N188 N 0.38328 0.96935 0.36701 0.0
C189 C 0.39053 0.99464 0.42552 0.0
C190 C 0.39594 0.98293 0.45414 0.0
C191 C 0.39465 0.96427 0.43856 0.0
C192 C 0.38433 0.98726 0.38174 0.0
H193 H 0.3873 0.94327 0.38244 0.0
C194 C 0.37262 0.92235 0.28875 0.0
O195 O 0.30685 0.8903 0.27558 0.0
O196 O 0.32001 0.90151 0.34302 0.0
N197 N 0.37173 0.9889 0.31117 0.0
C198 C 0.36528 0.99794 0.27975 0.0
C199 C 0.3654 0.01663 0.29009 0.0
C200 C 0.37223 0.02589 0.33247 0.0
C201 C 0.37854 0.01615 0.36447 0.0
C202 C 0.37826 0.99764 0.35211 0.0
H203 H 0.36026 0.99106 0.24691 0.0
O204 O 0.31301 0.93271 0.30627 0.0
O205 O 0.3465 0.94565 0.32103 0.0
O206 O 0.33711 0.93463 0.22754 0.0
O207 O 0.36901 0.96269 0.24074 0.0
C208 C 0.38498 0.02403 0.40819 0.0
C209 C 0.39084 0.01322 0.43875 0.0
H210 H 0.4011 0.98809 0.48811 0.0
H211 H 0.3987 0.95511 0.46053 0.0
H212 H 0.36039 0.02399 0.26534 0.0
H213 H 0.37244 0.0404 0.34017 0.0
H214 H 0.38527 0.03828 0.41882 0.0
H215 H 0.39541 0.01929 0.47239 0.0
Mn216 Mn 0.68484 0.59051 0.39527 0.0
Mn217 Mn 0.63952 0.58972 0.37268 0.0
C218 C 0.68532 0.61775 0.35453 0.0
C219 C 0.70957 0.58109 0.37228 0.0
C220 C 0.66029 0.59993 0.46477 0.0
O221 O 0.66222 0.55985 0.40768 0.0
O222 O 0.6339 0.56063 0.38068 0.0
C223 C 0.62941 0.56878 0.28401 0.0
N224 N 0.63294 0.58541 0.31024 0.0
C225 C 0.6266 0.60255 0.2484 0.0
C226 C 0.62283 0.58557 0.22074 0.0
C227 C 0.62429 0.56865 0.23861 0.0
C228 C 0.6317 0.60183 0.29334 0.0
H229 H 0.63065 0.55582 0.29758 0.0
C230 C 0.64285 0.55075 0.39593 0.0
O231 O 0.70851 0.58577 0.41388 0.0
O232 O 0.69596 0.58119 0.34494 0.0
N233 N 0.64293 0.61703 0.36375 0.0
C234 C 0.64821 0.63269 0.39429 0.0
C235 C 0.64731 0.65066 0.38201 0.0
C236 C 0.64096 0.65233 0.33856 0.0
C237 C 0.63599 0.63619 0.30742 0.0
C238 C 0.63681 0.61849 0.32182 0.0
H239 H 0.65277 0.63138 0.42798 0.0
O240 O 0.7022 0.62045 0.3744 0.0
O241 O 0.66889 0.5993 0.35932 0.0
O242 O 0.67735 0.60034 0.45383 0.0
O243 O 0.64504 0.59479 0.43752 0.0
C244 C 0.6304 0.63705 0.2626 0.0
C245 C 0.62598 0.62037 0.23297 0.0
H246 H 0.61901 0.58543 0.18566 0.0
H247 H 0.62151 0.55555 0.21739 0.0
H248 H 0.65134 0.66313 0.4061 0.0
H249 H 0.64017 0.66618 0.32933 0.0
H250 H 0.62978 0.65061 0.25036 0.0
H251 H 0.62232 0.62155 0.19835 0.0
Mn252 Mn 0.09719 0.68749 0.56189 0.0
Mn253 Mn 0.05478 0.64067 0.53864 0.0
C254 C 0.06953 0.68597 0.52045 0.0
C255 C 0.13078 0.71312 0.53709 0.0
C256 C 0.06337 0.66163 0.6306 0.0
O257 O 0.1071 0.66653 0.57586 0.0
O258 O 0.07946 0.63698 0.54838 0.0
C259 C 0.06786 0.63196 0.45111 0.0
N260 N 0.0538 0.6345 0.47615 0.0
C261 C 0.03017 0.6255 0.41351 0.0
C262 C 0.04433 0.62265 0.38709 0.0
C263 C 0.06334 0.62607 0.40589 0.0
C264 C 0.03573 0.6318 0.45808 0.0
H265 H 0.08236 0.63433 0.46562 0.0
C266 C 0.09804 0.64716 0.56469 0.0
O267 O 0.1254 0.71232 0.57893 0.0
O268 O 0.11704 0.69883 0.51103 0.0
N269 N 0.02964 0.64178 0.52798 0.0
C270 C 0.01764 0.64515 0.55796 0.0
C271 C 0.9982 0.64263 0.5443 0.0
C272 C 0.99112 0.6363 0.50023 0.0
C273 C 1.00352 0.6325 0.47022 0.0
C274 C 0.02283 0.63541 0.48565 0.0
H275 H 0.02277 0.64963 0.59211 0.0
O276 O 0.08311 0.70328 0.53984 0.0
O277 O 0.07281 0.67036 0.52607 0.0
O278 O 0.07962 0.67919 0.62022 0.0
O279 O 0.05424 0.64621 0.60322 0.0
C280 C 0.99746 0.62587 0.42567 0.0
C281 C 0.01072 0.62226 0.39743 0.0
H282 H 0.0408 0.61791 0.35232 0.0
H283 H 0.07439 0.62398 0.38568 0.0
H284 H 0.98864 0.64542 0.56778 0.0
H285 H 0.9761 0.63432 0.48985 0.0
H286 H 0.98264 0.6235 0.41277 0.0
H287 H 0.00584 0.61708 0.36332 0.0
Mn288 Mn 0.41715 0.09557 0.72726 0.0
Mn289 Mn 0.4161 0.04955 0.71251 0.0
C290 C 0.38882 0.06784 0.69133 0.0
C291 C 0.42672 0.12888 0.69788 0.0
C292 C 0.40772 0.06362 0.80217 0.0
O293 O 0.44782 0.10341 0.73753 0.0
O294 O 0.44556 0.0724 0.72038 0.0
C295 C 0.43767 0.05732 0.62503 0.0
N296 N 0.42046 0.04564 0.65101 0.0
C297 C 0.40295 0.02102 0.59108 0.0
C298 C 0.42057 0.03269 0.56378 0.0
C299 C 0.43795 0.05096 0.58077 0.0
C300 C 0.40362 0.02807 0.63495 0.0
H301 H 0.45108 0.07132 0.63808 0.0
C302 C 0.45609 0.09187 0.7313 0.0
O303 O 0.42327 0.12505 0.74054 0.0
O304 O 0.42533 0.11375 0.67334 0.0
N305 N 0.3884 0.02619 0.70437 0.0
C306 C 0.37246 0.01712 0.73469 0.0
C307 C 0.35389 0.99867 0.72305 0.0
C308 C 0.35196 0.98971 0.6805 0.0
C309 C 0.36846 0.9995 0.64962 0.0
C310 C 0.38668 0.01772 0.66331 0.0
H311 H 0.37395 0.02378 0.76765 0.0
O312 O 0.38686 0.08284 0.70928 0.0
O313 O 0.40719 0.06952 0.69548 0.0
O314 O 0.40854 0.08064 0.78909 0.0
O315 O 0.41105 0.05176 0.77629 0.0
C316 C 0.36751 0.99197 0.60576 0.0
C317 C 0.38467 0.0028 0.57644 0.0
H318 H 0.42096 0.0278 0.52976 0.0
H319 H 0.45156 0.06008 0.55984 0.0
H320 H 0.34117 0.99127 0.74693 0.0
H321 H 0.33767 0.97537 0.67182 0.0
H322 H 0.35357 0.97799 0.59407 0.0
H323 H 0.38354 0.99701 0.54266 0.0
Mn324 Mn 0.32298 0.41266 0.89273 0.0
Mn325 Mn 0.36746 0.41068 0.87762 0.0
C326 C 0.3222 0.38508 0.85353 0.0
C327 C 0.30003 0.42353 0.86411 0.0
C328 C 0.34429 0.401 0.96659 0.0
O329 O 0.34618 0.44276 0.90615 0.0
O330 O 0.3748 0.44027 0.88835 0.0
C331 C 0.38294 0.43393 0.79226 0.0
N332 N 0.37642 0.41605 0.81656 0.0
C333 C 0.38361 0.39922 0.75532 0.0
C334 C 0.3905 0.41749 0.72969 0.0
C335 C 0.39007 0.43488 0.74818 0.0
C336 C 0.37668 0.39919 0.79902 0.0
H337 H 0.38275 0.44735 0.80651 0.0
C338 C 0.36601 0.45082 0.90057 0.0
O339 O 0.29982 0.41909 0.9064 0.0
O340 O 0.31397 0.42245 0.83967 0.0
N341 N 0.36211 0.38274 0.86677 0.0
C342 C 0.35369 0.36588 0.8949 0.0
C343 C 0.35197 0.34686 0.88066 0.0
C344 C 0.3591 0.34542 0.83787 0.0
C345 C 0.3678 0.36301 0.80963 0.0
C346 C 0.36903 0.38152 0.82556 0.0
H347 H 0.34825 0.3669 0.92788 0.0
O348 O 0.30514 0.38293 0.87129 0.0
O349 O 0.33902 0.40308 0.85993 0.0
O350 O 0.32834 0.40236 0.95368 0.0
O351 O 0.35956 0.40452 0.94086 0.0
C352 C 0.37513 0.36283 0.76615 0.0
C353 C 0.38311 0.38094 0.73912 0.0
H354 H 0.39603 0.41832 0.69571 0.0
H355 H 0.39529 0.44901 0.72855 0.0
H356 H 0.3452 0.33335 0.90264 0.0
H357 H 0.35771 0.33071 0.82695 0.0
H358 H 0.3746 0.34882 0.75305 0.0
H359 H 0.38871 0.38052 0.70591 0.0
Mn360 Mn 0.91181 0.32284 0.06276 0.0
Mn361 Mn 0.95692 0.36928 0.05466 0.0
C362 C 0.94011 0.32528 0.02371 0.0
C363 C 0.87897 0.29889 0.03162 0.0
C364 C 0.94528 0.3419 0.13731 0.0
O365 O 0.90225 0.3436 0.07969 0.0
O366 O 0.93349 0.37346 0.07534 0.0
C367 C 0.94401 0.38712 0.98035 0.0
N368 N 0.95755 0.38129 0.99747 0.0
C369 C 0.97942 0.39386 0.93196 0.0
C370 C 0.96581 0.40013 0.91376 0.0
C371 C 0.94797 0.39666 0.93799 0.0
C372 C 0.97465 0.3844 0.97427 0.0
H373 H 0.93033 0.38458 0.99886 0.0
C374 C 0.91367 0.36352 0.08299 0.0
O375 O 0.88297 0.29789 0.07377 0.0
O376 O 0.89358 0.31411 0.00884 0.0
N377 N 0.98084 0.36781 0.03396 0.0
C378 C 0.99197 0.36012 0.05538 0.0
C379 C 0.00981 0.36156 0.0347 0.0
C380 C 0.01621 0.37117 0.99253 0.0
C381 C 0.00471 0.37926 0.97142 0.0
C382 C 0.98702 0.37732 0.99361 0.0
H383 H 0.98716 0.35282 0.08782 0.0
O384 O 0.92577 0.30737 0.03947 0.0
O385 O 0.93754 0.34126 0.0315 0.0
O386 O 0.92702 0.3276 0.12414 0.0
O387 O 0.95774 0.35777 0.11368 0.0
C388 C 0.01 0.38905 0.92909 0.0
C389 C 0.99743 0.39649 0.9096 0.0
H390 H 0.96882 0.4075 0.88108 0.0
H391 H 0.93733 0.40137 0.9241 0.0
H392 H 0.01862 0.3553 0.05125 0.0
H393 H 0.02997 0.37222 0.97666 0.0
H394 H 0.02363 0.39086 0.91117 0.0
H395 H 1.00167 0.40417 0.8773 0.0
Mn396 Mn 0.59033 0.90904 0.22049 0.0
Mn397 Mn 0.58853 0.95308 0.19771 0.0
C398 C 0.61478 0.93421 0.17299 0.0
C399 C 0.5806 0.87446 0.19982 0.0
C400 C 0.60727 0.94755 0.2835 0.0
O401 O 0.5606 0.90079 0.24024 0.0
O402 O 0.56203 0.93159 0.22626 0.0
C403 C 0.5554 0.93419 0.12818 0.0
N404 N 0.57502 0.94932 0.14097 0.0
C405 C 0.58191 0.9655 0.06827 0.0
C406 C 0.56173 0.95019 0.0544 0.0
C407 C 0.54843 0.93445 0.08449 0.0
C408 C 0.58796 0.96449 0.11226 0.0
H409 H 0.54515 0.92199 0.15108 0.0
C410 C 0.55248 0.91261 0.24041 0.0
O411 O 0.58716 0.88129 0.24023 0.0
O412 O 0.57895 0.88731 0.1729 0.0
N413 N 0.61283 0.97536 0.1694 0.0
C414 C 0.63224 0.98824 0.18709 0.0
C415 C 0.6474 0.00492 0.16134 0.0
C416 C 0.64246 0.00818 0.11769 0.0
C417 C 0.62248 0.99459 0.09999 0.0
C418 C 0.60787 0.97849 0.12755 0.0
H419 H 0.63616 0.98568 0.22043 0.0
O420 O 0.61888 0.92107 0.19321 0.0
O421 O 0.59654 0.93231 0.18128 0.0
O422 O 0.60288 0.92851 0.27641 0.0
O423 O 0.60301 0.95814 0.25569 0.0
C424 C 0.61662 0.9961 0.05577 0.0
C425 C 0.59638 0.98145 0.03988 0.0
H426 H 0.55634 0.95028 0.02063 0.0
H427 H 0.53287 0.92251 0.07398 0.0
H428 H 0.66287 0.01521 0.17506 0.0
H429 H 0.65416 0.02109 0.09795 0.0
H430 H 0.62771 0.00819 0.03351 0.0
H431 H 0.59208 0.98239 0.00564 0.0
H432 H 0.37985 0.4122 0.01344 0.0
H433 H 0.38386 0.39709 0.08259 0.0
H434 H 0.31655 0.35909 0.09437 0.0
H435 H 0.31231 0.37428 0.02393 0.0
H436 H 0.34012 0.37933 0.17785 0.0
H437 H 0.37208 0.33533 0.08858 0.0
H438 H 0.38453 0.3625 0.0726 0.0
H439 H 0.35708 0.34541 0.06065 0.0
C440 C 0.3658 0.40076 0.03077 0.0
C441 C 0.34573 0.3943 0.01283 0.0
C442 C 0.36816 0.39204 0.07026 0.0
C443 C 0.35056 0.37655 0.093 0.0
C444 C 0.33037 0.37085 0.07693 0.0
H445 H 0.37932 0.31554 0.31861 0.0
H446 H 0.36286 0.31875 0.24917 0.0
C447 C 0.32795 0.37965 0.03697 0.0
C448 C 0.35385 0.36654 0.13318 0.0
H449 H 0.38048 0.34178 0.1672 0.0
C450 C 0.34851 0.37071 0.17552 0.0
C451 C 0.36458 0.35502 0.1302 0.0
C452 C 0.36973 0.34909 0.08552 0.0
C453 C 0.35497 0.36501 0.21494 0.0
C454 C 0.3673 0.35514 0.21191 0.0
C455 C 0.37126 0.34956 0.1696 0.0
C456 C 0.37805 0.35269 0.25187 0.0
C457 C 0.34908 0.37023 0.2596 0.0
C458 C 0.39276 0.37066 0.27507 0.0
C459 C 0.40221 0.36889 0.31409 0.0
C460 C 0.39733 0.34907 0.33103 0.0
C461 C 0.3835 0.33102 0.30639 0.0
C462 C 0.37395 0.33284 0.26698 0.0
H463 H 0.33462 0.37142 0.25694 0.0
H464 H 0.34655 0.35822 0.2852 0.0
H465 H 0.36202 0.38565 0.2713 0.0
H466 H 0.39667 0.38616 0.26339 0.0
H467 H 0.41298 0.38316 0.33179 0.0
H468 H 0.02473 0.40653 0.51768 0.0
H469 H 0.00671 0.39287 0.44709 0.0
H470 H 0.05236 0.37508 0.40956 0.0
H471 H 0.07058 0.3885 0.48171 0.0
H472 H 0.02029 0.40437 0.36178 0.0
H473 H 0.9967 0.32052 0.38898 0.0
H474 H 0.00675 0.33968 0.43363 0.0
H475 H 0.02437 0.33903 0.39283 0.0
C476 C 0.03111 0.39974 0.4947 0.0
C477 C 0.04915 0.39855 0.50586 0.0
C478 C 0.0207 0.39192 0.45409 0.0
C479 C 0.0279 0.38261 0.42314 0.0
C480 C 0.04622 0.3818 0.4333 0.0
H481 H 0.97677 0.33415 0.1572 0.0
H482 H 0.99643 0.34234 0.22781 0.0
C483 C 0.05676 0.38968 0.47436 0.0
C484 C 0.01603 0.37417 0.38041 0.0
H485 H 0.98591 0.32886 0.32115 0.0
C486 C 0.01285 0.38786 0.35289 0.0
C487 C 0.00625 0.35261 0.36871 0.0
C488 C 0.00849 0.33701 0.39765 0.0
C489 C 1.00009 0.38063 0.31447 0.0
C490 C 0.98992 0.35902 0.30336 0.0
C491 C 0.99351 0.34537 0.33004 0.0
C492 C 0.97596 0.35063 0.26339 0.0
C493 C 0.99771 0.39625 0.28584 0.0
C494 C 0.95733 0.3516 0.2605 0.0
C495 C 0.94598 0.34676 0.22019 0.0
C496 C 0.95307 0.34082 0.18227 0.0
C497 C 0.97092 0.33856 0.18608 0.0
C498 C 0.98218 0.34327 0.22637 0.0
H499 H 0.01007 0.41269 0.29319 0.0
H500 H 0.9984 0.39308 0.24967 0.0
H501 H 0.98219 0.39483 0.29254 0.0
H502 H 0.95213 0.35705 0.28881 0.0
H503 H 0.93252 0.34901 0.21782 0.0
H504 H 0.63142 0.98968 0.29637 0.0
H505 H 0.64564 0.00871 0.36573 0.0
H506 H 0.61998 0.95011 0.43769 0.0
H507 H 0.60632 0.93068 0.36703 0.0
H508 H 0.62389 0.00944 0.43368 0.0
H509 H 0.67709 0.9816 0.49453 0.0
H510 H 0.66658 0.9765 0.43831 0.0
H511 H 0.65081 0.96064 0.4843 0.0
C512 C 0.62912 0.98068 0.32661 0.0
C513 C 0.61773 0.95855 0.32588 0.0
C514 C 0.63725 0.99168 0.36651 0.0
C515 C 0.63406 0.98098 0.40718 0.0
C516 C 0.62311 0.95882 0.4067 0.0
H517 H 0.64002 0.01693 0.68081 0.0
H518 H 0.63649 0.99989 0.60912 0.0
C519 C 0.61521 0.94769 0.3663 0.0
C520 C 0.64076 0.99327 0.44984 0.0
H521 H 0.66905 1.00143 0.54635 0.0
C522 C 0.63399 0.00783 0.45797 0.0
C523 C 0.65396 0.99128 0.48173 0.0
C524 C 0.66271 0.97682 0.47417 0.0
C525 C 0.63964 0.02004 0.49722 0.0
C526 C 0.65247 0.01774 0.52939 0.0
C527 C 0.65938 0.00332 0.52137 0.0
C528 C 0.65689 0.02855 0.57351 0.0
C529 C 0.63125 0.03482 0.50483 0.0
C530 C 0.66998 0.05045 0.57768 0.0
C531 C 0.67228 0.06043 0.61928 0.0
C532 C 0.66128 0.04864 0.65711 0.0
C533 C 0.64872 0.02665 0.65264 0.0
C534 C 0.64668 0.01676 0.61155 0.0
H535 H 0.61952 0.03298 0.47905 0.0
H536 H 0.62382 0.03209 0.5384 0.0
H537 H 0.64444 0.05128 0.50387 0.0
H538 H 0.67807 0.05984 0.54862 0.0
H539 H 0.68203 0.07735 0.62144 0.0
H540 H 0.62387 0.59096 0.50662 0.0
H541 H 0.61938 0.60575 0.57581 0.0
H542 H 0.68654 0.6404 0.59494 0.0
H543 H 0.69123 0.62529 0.52522 0.0
H544 H 0.66536 0.62294 0.67321 0.0
H545 H 0.62987 0.66503 0.59062 0.0
H546 H 0.61616 0.63771 0.57593 0.0
H547 H 0.64322 0.65404 0.55963 0.0
C548 C 0.63777 0.60165 0.52548 0.0
C549 C 0.65796 0.60705 0.51002 0.0
C550 C 0.63515 0.61027 0.56495 0.0
C551 C 0.65263 0.62475 0.58988 0.0
C552 C 0.67282 0.6295 0.57585 0.0
H553 H 0.62492 0.68514 0.81848 0.0
H554 H 0.64069 0.68202 0.74795 0.0
C555 C 0.67548 0.62075 0.53619 0.0
C556 C 0.64941 0.63432 0.631 0.0
H557 H 0.6226 0.6581 0.66987 0.0
C558 C 0.65635 0.63098 0.67236 0.0
C559 C 0.63808 0.6453 0.63006 0.0
C560 C 0.63162 0.65094 0.58659 0.0
C561 C 0.65095 0.63688 0.71284 0.0
C562 C 0.63792 0.64603 0.71205 0.0
C563 C 0.6323 0.65081 0.67061 0.0
C564 C 0.62813 0.64846 0.75364 0.0
C565 C 0.65884 0.63278 0.75623 0.0
C566 C 0.61522 0.6306 0.77918 0.0
C567 C 0.60625 0.63231 0.81891 0.0
C568 C 0.60975 0.65194 0.83429 0.0
C569 C 0.62194 0.66981 0.8077 0.0
C570 C 0.63103 0.66806 0.76757 0.0
H571 H 0.67381 0.63275 0.75116 0.0
H572 H 0.66135 0.64472 0.78201 0.0
H573 H 0.64707 0.61707 0.76912 0.0
H574 H 0.61215 0.61522 0.76847 0.0
H575 H 0.59667 0.61809 0.83788 0.0
H576 H 0.03196 0.62527 0.66593 0.0
H577 H 0.01184 0.62051 0.73364 0.0
H578 H 0.05046 0.68627 0.76511 0.0
H579 H 0.07095 0.69141 0.6962 0.0
H580 H 0.04163 0.6567 0.83946 0.0
H581 H 0.96924 0.64178 0.75059 0.0
H582 H 0.98039 0.62673 0.72866 0.0
H583 H 0.99487 0.65492 0.72454 0.0
C584 C 0.03638 0.63885 0.68704 0.0
C585 C 0.05308 0.65883 0.67511 0.0
C586 C 0.02468 0.63606 0.72575 0.0
C587 C 0.02928 0.65311 0.75383 0.0
C588 C 0.04648 0.67295 0.74348 0.0
H589 H 0.94233 0.62537 0.98473 0.0
H590 H 0.96343 0.64405 0.91832 0.0
C591 C 0.05825 0.67583 0.70426 0.0
C592 C 0.01608 0.64958 0.79422 0.0
H593 H 0.9647 0.62833 0.82604 0.0
C594 C 0.0249 0.65099 0.83666 0.0
C595 C 0.99427 0.64233 0.79068 0.0
C596 C 0.98414 0.64153 0.74618 0.0
C597 C 0.01223 0.64385 0.87517 0.0
C598 C 0.99017 0.63492 0.87104 0.0
C599 C 0.98156 0.635 0.82914 0.0
C600 C 0.97584 0.6231 0.9086 0.0
C601 C 0.02243 0.64509 0.91983 0.0
C602 C 0.97508 0.60468 0.92366 0.0
C603 C 0.96305 0.59401 0.96087 0.0
C604 C 0.95135 0.60142 0.9841 0.0
C605 C 0.95107 0.61921 0.96746 0.0
C606 C 0.96324 0.62997 0.92982 0.0
H607 H 0.03929 0.65745 0.91987 0.0
H608 H 0.01428 0.64838 0.94729 0.0
H609 H 0.02148 0.6298 0.92687 0.0
H610 H 0.98427 0.59881 0.90718 0.0
H611 H 0.96346 0.58023 0.97236 0.0
H612 H 0.38124 0.06881 0.86012 0.0
H613 H 0.36689 0.0499 0.93125 0.0
H614 H 0.40573 0.02146 0.91901 0.0
H615 H 0.41995 0.04003 0.84891 0.0
H616 H 0.36151 0.99235 0.93253 0.0
H617 H 0.39555 0.05758 0.05725 0.0
H618 H 0.38246 0.06028 0.00875 0.0
H619 H 0.40675 0.06036 1.0021 0.0
C620 C 0.38705 0.05893 0.87329 0.0
C621 C 0.40168 0.05589 0.8488 0.0
C622 C 0.37877 0.04804 0.91374 0.0
C623 C 0.38513 0.03413 0.93022 0.0
C624 C 0.40043 0.03192 0.90676 0.0
H625 H 0.38949 0.97668 0.16908 0.0
H626 H 0.39327 0.99544 0.09946 0.0
C627 C 0.40861 0.04266 0.86671 0.0
C628 C 0.37562 0.02103 0.97082 0.0
H629 H 0.37697 0.02314 0.08516 0.0
C630 C 0.36451 0.99905 0.96595 0.0
C631 C 0.37968 0.02983 0.0143 0.0
C632 C 0.39183 0.05329 0.02135 0.0
C633 C 0.3582 0.98564 0.0034 0.0
C634 C 0.36299 0.99445 0.04688 0.0
C635 C 0.37325 0.01642 0.05176 0.0
C636 C 0.3599 0.98143 0.08743 0.0
C637 C 0.34756 0.96221 0.99622 0.0
C638 C 0.33979 0.96675 0.10335 0.0
C639 C 0.33753 0.95575 0.14347 0.0
C640 C 0.35536 0.95943 0.1683 0.0
C641 C 0.37539 0.97351 0.15104 0.0
C642 C 0.37761 0.98437 0.11126 0.0
H643 H 0.34738 0.95804 0.96036 0.0
H644 H 0.35561 0.95546 0.0159 0.0
H645 H 0.33107 0.95479 0.00813 0.0
H646 H 0.32588 0.96432 0.0856 0.0
H647 H 0.32189 0.94522 0.15609 0.0
H648 H 0.64806 0.52306 0.45 0.0
H649 H 0.62285 0.48535 0.46036 0.0
H650 H 0.58211 0.48904 0.361 0.0
H651 H 0.60687 0.52598 0.35024 0.0
H652 H 0.583 0.46923 0.49069 0.0
H653 H 0.57885 0.43487 0.32483 0.0
H654 H 0.60054 0.46018 0.34103 0.0
H655 H 0.57676 0.45798 0.31811 0.0
C656 C 0.63394 0.51564 0.42972 0.0
C657 C 0.62945 0.52759 0.39951 0.0
C658 C 0.61956 0.49413 0.43565 0.0
C659 C 0.60074 0.48423 0.41081 0.0
C660 C 0.59673 0.49606 0.37965 0.0
H661 H 0.47613 0.41153 0.46291 0.0
H662 H 0.51371 0.43525 0.45877 0.0
C663 C 0.61087 0.51737 0.37397 0.0
C664 C 0.58378 0.46244 0.42068 0.0
H665 H 0.54539 0.41919 0.36685 0.0
C666 C 0.57515 0.45797 0.46391 0.0
C667 C 0.57369 0.44741 0.38619 0.0
C668 C 0.58314 0.4503 0.3401 0.0
C669 C 0.55556 0.44009 0.47226 0.0
C670 C 0.54415 0.4266 0.43625 0.0
C671 C 0.55387 0.42977 0.39428 0.0
C672 C 0.52128 0.41136 0.43984 0.0
C673 C 0.5468 0.43639 0.51916 0.0
C674 C 0.5128 0.39002 0.42892 0.0
C675 C 0.491 0.37622 0.43083 0.0
C676 C 0.47733 0.38363 0.44321 0.0
C677 C 0.48602 0.4051 0.45346 0.0
C678 C 0.50764 0.41875 0.45159 0.0
H679 H 0.55964 0.44248 0.54444 0.0
H680 H 0.53805 0.44495 0.52379 0.0
H681 H 0.53594 0.41943 0.52562 0.0
H682 H 0.52304 0.38405 0.41911 0.0
H683 H 0.48489 0.35982 0.42265 0.0
H684 H 0.07048 0.47784 0.64859 0.0
H685 H 0.08196 0.51466 0.63549 0.0
H686 H 0.13609 0.52211 0.56358 0.0
H687 H 0.12468 0.4848 0.57641 0.0
H688 H 0.13896 0.55652 0.63845 0.0
H689 H 0.0828 0.53521 0.49645 0.0
H690 H 0.0732 0.5189 0.54558 0.0
H691 H 0.09386 0.5191 0.51318 0.0
C692 C 0.08491 0.48718 0.63011 0.0
C693 C 0.09652 0.47819 0.61307 0.0
C694 C 0.09147 0.50831 0.62289 0.0
C695 C 0.10978 0.52101 0.5985 0.0
C696 C 0.12191 0.51247 0.5826 0.0
H697 H 0.11508 0.63487 0.49959 0.0
H698 H 0.12455 0.60736 0.50548 0.0
C699 C 0.11534 0.49118 0.58987 0.0
C700 C 0.11503 0.54274 0.58761 0.0
H701 H 0.09613 0.5692 0.52762 0.0
C702 C 0.12997 0.55949 0.61359 0.0
C703 C 0.10337 0.5465 0.55499 0.0
C704 C 0.08748 0.52905 0.52561 0.0
C705 C 0.13278 0.57982 0.60925 0.0
C706 C 0.12001 0.58327 0.57874 0.0
C707 C 0.10593 0.56666 0.5511 0.0
C708 C 0.11945 0.60324 0.57711 0.0
C709 C 0.14913 0.59728 0.63783 0.0
C710 C 0.1142 0.61069 0.61562 0.0
C711 C 0.10914 0.62667 0.6123 0.0
C712 C 0.10906 0.63525 0.5704 0.0
C713 C 0.11539 0.62867 0.53233 0.0
C714 C 0.12069 0.6129 0.53569 0.0
H715 H 0.16218 0.59433 0.64626 0.0
H716 H 0.15575 0.61273 0.62078 0.0
H717 H 0.14181 0.59805 0.66975 0.0
H718 H 0.11252 0.60316 0.64772 0.0
H719 H 0.10375 0.63117 0.64184 0.0
H720 H 0.48762 0.13302 0.72006 0.0
H721 H 0.52582 0.14633 0.72114 0.0
H722 H 0.51425 0.08438 0.75483 0.0
H723 H 0.47655 0.07106 0.75357 0.0
H724 H 0.54848 0.12286 0.80672 0.0
H725 H 0.5538 0.12475 0.62023 0.0
H726 H 0.54002 0.13587 0.64906 0.0
H727 H 0.52904 0.10794 0.64758 0.0
C728 C 0.4933 0.12238 0.72831 0.0
C729 C 0.47909 0.10097 0.73638 0.0
C730 C 0.51506 0.12996 0.72875 0.0
C731 C 0.52276 0.11627 0.73788 0.0
C732 C 0.5086 0.09517 0.7477 0.0
H733 H 0.60361 0.07368 0.70991 0.0
H734 H 0.57903 0.08671 0.70321 0.0
C735 C 0.48704 0.08758 0.74677 0.0
C736 C 0.54537 0.12301 0.73511 0.0
H737 H 0.58088 0.12373 0.66042 0.0
C738 C 0.556 0.12387 0.77483 0.0
C739 C 0.55494 0.12411 0.69338 0.0
C740 C 0.54399 0.12315 0.64992 0.0
C741 C 0.57524 0.12411 0.77388 0.0
C742 C 0.58402 0.12352 0.73207 0.0
C743 C 0.57417 0.12433 0.69237 0.0
C744 C 0.60058 0.11766 0.72923 0.0
C745 C 0.58509 0.12305 0.81751 0.0
C746 C 0.62117 0.13104 0.74453 0.0
C747 C 0.63541 0.12362 0.74813 0.0
C748 C 0.62909 0.10268 0.73693 0.0
C749 C 0.60888 0.08983 0.7191 0.0
C750 C 0.59484 0.09728 0.7151 0.0
H751 H 0.57558 0.12237 0.84705 0.0
H752 H 0.587 0.10898 0.81786 0.0
H753 H 0.60094 0.13712 0.82083 0.0
H754 H 0.62591 0.14687 0.75537 0.0
H755 H 0.65085 0.13383 0.76217 0.0
H756 H 0.53109 0.60055 0.88514 0.0
H757 H 0.49353 0.57624 0.87655 0.0
H758 H 0.47996 0.61846 0.95077 0.0
H759 H 0.51794 0.64323 0.95891 0.0
H760 H 0.46192 0.57643 0.98577 0.0
H761 H 0.44469 0.57514 0.8051 0.0
H762 H 0.4685 0.57457 0.81507 0.0
H763 H 0.46682 0.59723 0.83182 0.0
C764 C 0.52011 0.60494 0.89854 0.0
C765 C 0.52735 0.62374 0.92261 0.0
C766 C 0.49865 0.5911 0.89338 0.0
C767 C 0.48394 0.59564 0.91255 0.0
C768 C 0.49108 0.61481 0.93523 0.0
H769 H 0.35706 0.48283 0.89108 0.0
H770 H 0.38196 0.52084 0.89777 0.0
C771 C 0.5127 0.62894 0.93973 0.0
C772 C 0.46158 0.57886 0.91386 0.0
H773 H 0.42335 0.54244 0.84576 0.0
C774 C 0.45312 0.56938 0.9553 0.0
C775 C 0.45004 0.56973 0.87418 0.0
C776 C 0.45789 0.57983 0.82905 0.0
C777 C 0.43447 0.54991 0.95759 0.0
C778 C 0.42411 0.53975 0.91751 0.0
C779 C 0.43141 0.5502 0.87647 0.0
C780 C 0.40831 0.51708 0.91682 0.0
C781 C 0.4267 0.53964 0.00262 0.0
C782 C 0.41497 0.50254 0.92525 0.0
C783 C 0.40102 0.48107 0.92086 0.0
C784 C 0.38001 0.4736 0.90829 0.0
C785 C 0.37313 0.48815 0.90109 0.0
C786 C 0.3873 0.5098 0.90479 0.0
H787 H 0.4326 0.55141 0.03014 0.0
H788 H 0.40925 0.5307 0.00357 0.0
H789 H 0.43244 0.52845 0.00871 0.0
H790 H 0.43119 0.50787 0.93407 0.0
H791 H 0.40679 0.47029 0.92687 0.0
H792 H 0.8715 0.35125 0.08145 0.0
H793 H 0.85606 0.37413 0.08629 0.0
H794 H 0.9177 0.42762 0.10845 0.0
H795 H 0.9331 0.4051 0.1046 0.0
H796 H 0.88698 0.42794 0.16218 0.0
H797 H 0.86253 0.4138 0.98278 0.0
H798 H 0.85256 0.39143 0.01946 0.0
H799 H 0.88006 0.40575 0.00627 0.0
C800 C 0.8817 0.36783 0.08817 0.0
C801 C 0.90359 0.37634 0.09218 0.0
C802 C 0.87286 0.38089 0.09055 0.0
C803 C 0.88578 0.40264 0.09696 0.0
C804 C 0.90742 0.41091 0.10333 0.0
H805 H 0.91281 0.51804 0.02272 0.0
H806 H 0.89943 0.48033 0.02557 0.0
C807 C 0.91622 0.39796 0.10097 0.0
C808 C 0.87752 0.4174 0.09451 0.0
H809 H 0.86248 0.4421 0.0184 0.0
C810 C 0.88105 0.43073 0.13118 0.0
C811 C 0.86982 0.42098 0.05391 0.0
C812 C 0.86607 0.40736 0.01315 0.0
C813 C 0.87888 0.44861 0.12727 0.0
C814 C 0.87249 0.45297 0.08573 0.0
C815 C 0.86721 0.43863 0.05024 0.0
C816 C 0.87581 0.47423 0.07581 0.0
C817 C 0.88537 0.46367 0.16635 0.0
C818 C 0.86599 0.48317 0.10077 0.0
C819 C 0.87364 0.50491 0.09895 0.0
C820 C 0.89111 0.51777 0.07208 0.0
C821 C 0.89928 0.50841 0.04358 0.0
C822 C 0.89165 0.48684 0.04529 0.0
H823 H 0.8923 0.4591 0.19423 0.0
H824 H 0.89708 0.47982 0.1555 0.0
H825 H 0.87143 0.46404 0.17947 0.0
H826 H 0.85349 0.47365 0.12398 0.0
H827 H 0.86725 0.51182 0.12159 0.0
H828 H 0.36437 0.88481 0.24954 0.0
H829 H 0.3881 0.87018 0.24602 0.0
H830 H 0.43466 0.92315 0.32144 0.0
H831 H 0.41149 0.9377 0.3252 0.0
H832 H 0.42911 0.89037 0.20811 0.0
H833 H 0.43276 0.8733 0.38678 0.0
H834 H 0.41165 0.87634 0.36376 0.0
H835 H 0.43616 0.89906 0.37966 0.0
C836 C 0.37958 0.89317 0.26577 0.0
C837 C 0.386 0.91247 0.28753 0.0
C838 C 0.39308 0.88479 0.26376 0.0
C839 C 0.41297 0.89537 0.28427 0.0
C840 C 0.41921 0.91444 0.30634 0.0
H841 H 0.53619 0.93395 0.28218 0.0
H842 H 0.4992 0.92252 0.29454 0.0
C843 C 0.40594 0.92285 0.30801 0.0
C844 C 0.42835 0.88795 0.28003 0.0
H845 H 0.46452 0.88308 0.343 0.0
C846 C 0.4364 0.88795 0.23741 0.0
C847 C 0.43777 0.88469 0.31828 0.0
C848 C 0.42896 0.88312 0.36465 0.0
C849 C 0.45495 0.88701 0.23249 0.0
C850 C 0.46553 0.88595 0.27116 0.0
C851 C 0.45641 0.88399 0.31341 0.0
C852 C 0.48774 0.89111 0.26892 0.0
C853 C 0.46419 0.88907 0.18639 0.0
C854 C 0.49357 0.87694 0.25173 0.0
C855 C 0.51487 0.8834 0.24509 0.0
C856 C 0.53048 0.90416 0.25498 0.0
C857 C 0.52452 0.91789 0.27409 0.0
C858 C 0.50339 0.91138 0.28122 0.0
H859 H 0.45397 0.88969 0.15966 0.0
H860 H 0.4798 0.90358 0.18464 0.0
H861 H 0.46656 0.87553 0.17973 0.0
H862 H 0.48165 0.86121 0.24212 0.0
H863 H 0.51904 0.87257 0.22995 0.0
H864 H 0.33652 0.39742 0.77015 0.0
H865 H 0.33598 0.37588 0.70773 0.0
H866 H 0.30222 0.32013 0.78883 0.0
H867 H 0.30373 0.34217 0.85269 0.0
H868 H 0.3331 0.31942 0.74828 0.0
H869 H 0.29267 0.33954 0.61992 0.0
H870 H 0.31355 0.36362 0.64188 0.0
H871 H 0.29239 0.34597 0.67825 0.0
C872 C 0.32906 0.38056 0.77466 0.0
C873 C 0.32081 0.3714 0.81633 0.0
C874 C 0.3283 0.36819 0.73867 0.0
C875 C 0.31858 0.34629 0.74312 0.0
C876 C 0.30962 0.33698 0.78452 0.0
H877 H 0.3451 0.30536 0.48698 0.0
H878 H 0.32227 0.3029 0.54998 0.0
C879 C 0.31053 0.34949 0.82088 0.0
C880 C 0.32012 0.33385 0.70576 0.0
H881 H 0.32069 0.33307 0.59162 0.0
C882 C 0.32983 0.32189 0.71407 0.0
C883 C 0.31517 0.3363 0.66111 0.0
C884 C 0.30263 0.34686 0.64999 0.0
C885 C 0.33707 0.31464 0.67874 0.0
C886 C 0.33498 0.31995 0.63418 0.0
C887 C 0.3229 0.32953 0.62579 0.0
C888 C 0.3479 0.31897 0.59721 0.0
C889 C 0.34775 0.30219 0.6898 0.0
C890 C 0.36977 0.32884 0.6028 0.0
C891 C 0.38258 0.33012 0.5673 0.0
C892 C 0.37391 0.32227 0.52502 0.0
C893 C 0.35205 0.31185 0.5193 0.0
C894 C 0.33909 0.3104 0.55517 0.0
H895 H 0.34018 0.29189 0.71923 0.0
H896 H 0.34729 0.29231 0.66116 0.0
H897 H 0.36438 0.31316 0.69893 0.0
H898 H 0.37708 0.33623 0.63428 0.0
H899 H 0.3994 0.3377 0.57269 0.0
H900 H 0.94554 0.34255 0.94174 0.0
H901 H 0.96833 0.34298 0.88181 0.0
H902 H 0.98742 0.3072 0.96454 0.0
H903 H 0.96502 0.30752 0.02558 0.0
H904 H 0.02062 0.33934 0.9251 0.0
H905 H 0.96017 0.29721 0.79642 0.0
H906 H 0.95713 0.31814 0.81897 0.0
H907 H 0.95371 0.29694 0.85493 0.0
C908 C 0.95482 0.33502 0.94725 0.0
C909 C 0.95422 0.32566 0.98852 0.0
C910 C 0.96747 0.33486 0.91272 0.0
C911 C 0.97923 0.32472 0.91836 0.0
C912 C 0.97834 0.31498 0.95943 0.0
H913 H 0.04391 0.34633 0.66156 0.0
H914 H 0.02491 0.32429 0.72647 0.0
C915 C 0.96567 0.31521 0.99418 0.0
C916 C 0.9934 0.32573 0.88202 0.0
H917 H 0.99494 0.32291 0.76837 0.0
C918 C 0.01499 0.33534 0.8909 0.0
C919 C 0.98608 0.31959 0.83767 0.0
C920 C 0.96297 0.30715 0.82658 0.0
C921 C 0.02958 0.34125 0.85589 0.0
C922 C 0.02233 0.33814 0.81097 0.0
C923 C 1.00066 0.32601 0.80261 0.0
C924 C 0.03632 0.35033 0.77325 0.0
C925 C 0.05259 0.35139 0.86761 0.0
C926 C 0.04919 0.37217 0.77787 0.0
C927 C 0.06001 0.38452 0.74126 0.0
C928 C 0.05759 0.37548 0.69881 0.0
C929 C 0.04556 0.3536 0.69403 0.0
C930 C 0.03482 0.34108 0.73104 0.0
H931 H 0.05482 0.34357 0.89729 0.0
H932 H 0.06204 0.35062 0.83944 0.0
H933 H 0.0586 0.36807 0.87683 0.0
H934 H 0.05011 0.37995 0.80929 0.0
H935 H 0.06976 0.40134 0.74587 0.0
H936 H 0.60137 0.93487 0.08924 0.0
H937 H 0.62209 0.95638 0.02643 0.0
H938 H 0.67856 0.98008 0.10628 0.0
H939 H 0.65734 0.95929 0.1703 0.0
H940 H 0.67897 0.01097 0.06982 0.0
H941 H 0.65859 0.9536 0.93472 0.0
H942 H 0.63436 0.94993 0.95677 0.0
H943 H 0.65171 0.94541 0.99218 0.0
C944 C 0.6182 0.94479 0.0933 0.0
C945 C 0.62774 0.94631 0.13483 0.0
C946 C 0.63015 0.95667 0.05704 0.0
C947 C 0.65202 0.9697 0.06118 0.0
C948 C 0.66173 0.97019 0.10219 0.0
H949 H 0.69729 0.04218 0.81171 0.0
H950 H 0.69704 0.01997 0.87365 0.0
C951 C 0.64967 0.95842 0.1387 0.0
C952 C 0.66401 0.98458 0.02457 0.0
H953 H 0.6657 0.98872 0.91074 0.0
C954 C 0.6762 0.00602 0.03507 0.0
C955 C 0.66156 0.97827 0.9791 0.0
C956 C 0.65104 0.95549 0.96526 0.0
C957 C 0.68377 0.02137 1.00144 0.0
C958 C 0.67872 0.01509 0.95619 0.0
C959 C 0.66878 0.99363 0.94549 0.0
C960 C 0.68135 0.03018 0.92031 0.0
C961 C 0.69664 0.04414 0.01508 0.0
C962 C 0.6728 0.0434 0.92601 0.0
C963 C 0.67305 0.05602 0.89094 0.0
C964 C 0.68114 0.05512 0.84906 0.0
C965 C 0.69048 0.04263 0.84358 0.0
C966 C 0.69038 0.03005 0.87888 0.0
H967 H 0.70642 0.04587 0.04496 0.0
H968 H 0.70711 0.05402 0.98764 0.0
H969 H 0.68593 0.05008 0.02447 0.0
H970 H 0.6652 0.04341 0.95706 0.0
H971 H 0.66646 0.06616 0.89624 0.0
H972 H 0.65813 0.69211 0.98356 0.0
H973 H 0.68282 0.69525 0.0429 0.0
H974 H 0.63049 0.65926 0.1316 0.0
H975 H 0.60621 0.65759 0.07369 0.0
H976 H 0.66152 0.69341 0.17271 0.0
H977 H 0.69614 0.65145 0.08293 0.0
H978 H 0.70289 0.67702 0.06214 0.0
H979 H 0.67647 0.6558 0.05727 0.0
C980 C 0.65203 0.68472 0.0157 0.0
C981 C 0.63027 0.67368 0.0236 0.0
C982 C 0.6661 0.6865 0.04947 0.0
C983 C 0.65851 0.67717 0.09147 0.0
C984 C 0.63674 0.66649 0.09939 0.0
H985 H 0.67242 0.60601 0.27009 0.0
H986 H 0.67353 0.62772 0.20779 0.0
C987 C 0.62282 0.66511 0.06605 0.0
C988 C 0.67274 0.67822 0.12798 0.0
H989 H 0.70246 0.65675 0.1601 0.0
C990 C 0.67068 0.68557 0.17002 0.0
C991 C 0.68578 0.66923 0.12386 0.0
C992 C 0.69045 0.66283 0.07922 0.0
C993 C 0.67877 0.68153 0.20896 0.0
C994 C 0.68893 0.66948 0.20562 0.0
C995 C 0.69378 0.66508 0.16283 0.0
C996 C 0.69013 0.65722 0.24411 0.0
C997 C 0.67544 0.68942 0.25307 0.0
C998 C 0.69935 0.66637 0.28557 0.0
C999 C 0.69766 0.65362 0.32219 0.0
C1000 C 0.68702 0.63167 0.31745 0.0
C1001 C 0.6795 0.62279 0.27523 0.0
C1002 C 0.68062 0.63532 0.23929 0.0
H1003 H 0.66379 0.69482 0.25052 0.0
H1004 H 0.67009 0.67715 0.279 0.0
H1005 H 0.6906 0.70288 0.26442 0.0
H1006 H 0.70749 0.68325 0.28988 0.0
H1007 H 0.7044 0.66083 0.35417 0.0
H1008 H 0.08635 0.69358 0.43889 0.0
H1009 H 0.06926 0.69167 0.36775 0.0
H1010 H 0.01243 0.67784 0.43855 0.0
H1011 H 0.0309 0.68295 0.50999 0.0
H1012 H 0.04299 0.65842 0.34028 0.0
H1013 H 1.00314 0.70487 0.33687 0.0
H1014 H 0.02266 0.70931 0.37879 0.0
H1015 H 0.99549 0.68942 0.3869 0.0
C1016 C 0.0704 0.6908 0.43904 0.0
C1017 C 0.05943 0.68735 0.47933 0.0
C1018 C 0.0606 0.68972 0.39845 0.0
C1019 C 0.03929 0.68412 0.39724 0.0
C1020 C 0.0289 0.68244 0.43801 0.0
H1021 H 0.9502 0.59107 0.22227 0.0
H1022 H 0.97547 0.61257 0.28022 0.0
C1023 C 0.03921 0.68473 0.47894 0.0
C1024 C 0.02737 0.67609 0.35457 0.0
H1025 H 0.98664 0.67248 0.29199 0.0
C1026 C 0.03104 0.66202 0.32959 0.0
C1027 C 0.01176 0.68066 0.33962 0.0
C1028 C 0.00825 0.6971 0.3618 0.0
C1029 C 0.01888 0.65152 0.29228 0.0
C1030 C 1.00221 0.6547 0.27953 0.0
C1031 C 0.99917 0.66968 0.3025 0.0
C1032 C 0.98731 0.64181 0.2438 0.0
C1033 C 0.02377 0.63671 0.26736 0.0
C1034 C 0.9856 0.65112 0.20419 0.0
C1035 C 0.9714 0.63876 0.17076 0.0
C1036 C 0.95884 0.61693 0.17642 0.0
C1037 C 0.96046 0.60769 0.21621 0.0
C1038 C 0.97467 0.62 0.24952 0.0
H1039 H 0.04001 0.63995 0.27398 0.0
H1040 H 0.01268 0.62045 0.27839 0.0
H1041 H 0.02187 0.63795 0.23089 0.0
H1042 H 0.99518 0.66793 0.19924 0.0
H1043 H 0.97001 0.64626 0.14073 0.0
H1044 H 0.31009 0.97078 0.31906 0.0
H1045 H 0.30554 0.99072 0.38029 0.0
H1046 H 0.3409 0.97319 0.46849 0.0
H1047 H 0.344 0.95235 0.40892 0.0
H1048 H 0.3069 0.96955 0.50983 0.0
H1049 H 0.34848 0.04731 0.42435 0.0
H1050 H 0.32317 0.02787 0.40316 0.0
H1051 H 0.34517 0.02389 0.39768 0.0
C1052 C 0.31693 0.97142 0.3516 0.0
C1053 C 0.3283 0.96097 0.35895 0.0
C1054 C 0.31435 0.98277 0.38645 0.0
C1055 C 0.32315 0.98376 0.4289 0.0
C1056 C 0.33398 0.97276 0.43613 0.0
H1057 H 0.39904 0.06335 0.60744 0.0
H1058 H 0.37575 0.04307 0.5465 0.0
C1059 C 0.33617 0.96121 0.40181 0.0
C1060 C 0.32204 0.99645 0.46643 0.0
H1061 H 0.3465 0.04727 0.50235 0.0
C1062 C 0.31518 0.98657 0.50823 0.0
C1063 C 0.33178 0.01859 0.46402 0.0
C1064 C 0.33765 0.03017 0.42002 0.0
C1065 C 0.32079 0.99823 0.54814 0.0
C1066 C 0.33361 0.02034 0.5459 0.0
C1067 C 0.33743 0.03025 0.50393 0.0
C1068 C 0.347 0.03284 0.58414 0.0
C1069 C 0.3142 0.98663 0.59207 0.0
C1070 C 0.33873 0.03387 0.62596 0.0
C1071 C 0.35227 0.04486 0.66166 0.0
C1072 C 0.37415 0.05494 0.65578 0.0
C1073 C 0.38226 0.05474 0.61347 0.0
C1074 C 0.3689 0.04352 0.57834 0.0
H1075 H 0.30763 0.96944 0.58791 0.0
H1076 H 0.32763 0.99264 0.61542 0.0
H1077 H 0.30199 0.98925 0.60764 0.0
H1078 H 0.32191 0.02618 0.63102 0.0
H1079 H 0.34572 0.04549 0.69373 0.0
H1080 H 0.43652 0.30018 0.56363 0.0
H1081 H 0.43957 0.2721 0.59952 0.0
H1082 H 0.43086 0.24131 0.4718 0.0
H1083 H 0.42724 0.26937 0.43544 0.0
H1084 H 0.40568 0.21433 0.53564 0.0
H1085 H 0.48642 0.25899 0.60381 0.0
H1086 H 0.47053 0.27 0.62077 0.0
H1087 H 0.47662 0.26986 0.56237 0.0
C1088 C 0.43557 0.28764 0.54285 0.0
C1089 C 0.43169 0.2871 0.49651 0.0
C1090 C 0.43747 0.27161 0.56353 0.0
C1091 C 0.43582 0.2547 0.53841 0.0
C1092 C 0.43235 0.25427 0.4919 0.0
H1093 H 0.434 0.1393 0.60968 0.0
H1094 H 0.43683 0.17008 0.57218 0.0
C1095 C 0.43037 0.27035 0.4711 0.0
C1096 C 0.43617 0.23684 0.56143 0.0
H1097 H 0.46443 0.22469 0.63474 0.0
C1098 C 0.41864 0.2166 0.5569 0.0
C1099 C 0.45301 0.23974 0.58952 0.0
C1100 C 0.47279 0.26079 0.59409 0.0
C1101 C 0.4173 0.19935 0.58027 0.0
C1102 C 0.43398 0.20233 0.60878 0.0
C1103 C 0.45157 0.22249 0.61323 0.0
C1104 C 0.43367 0.18442 0.6327 0.0
C1105 C 0.39787 0.17808 0.57493 0.0
C1106 C 0.43157 0.18252 0.67956 0.0
C1107 C 0.42991 0.16479 0.70138 0.0
C1108 C 0.43049 0.14878 0.67662 0.0
C1109 C 0.43339 0.15123 0.6299 0.0
C1110 C 0.43495 0.16881 0.60825 0.0
H1111 H 0.3847 0.1792 0.55941 0.0
H1112 H 0.40153 0.1681 0.55308 0.0
H1113 H 0.39263 0.17011 0.60788 0.0
H1114 H 0.43066 0.19447 0.69908 0.0
H1115 H 0.42769 0.1634 0.73734 0.0
H1116 H 0.26621 0.42418 0.903 0.0
H1117 H 0.23866 0.42805 0.86438 0.0
H1118 H 0.27051 0.43603 0.73857 0.0
H1119 H 0.29795 0.4324 0.77644 0.0
H1120 H 0.24467 0.46406 0.79812 0.0
H1121 H 0.20786 0.38349 0.72581 0.0
H1122 H 0.2238 0.39081 0.77596 0.0
H1123 H 0.23601 0.39947 0.7222 0.0
C1124 C 0.26746 0.42702 0.86724 0.0
C1125 C 0.28427 0.4279 0.84288 0.0
C1126 C 0.25171 0.4292 0.84521 0.0
C1127 C 0.25246 0.4321 0.79853 0.0
C1128 C 0.26953 0.43362 0.77451 0.0
H1129 H 0.16083 0.42651 0.60172 0.0
H1130 H 0.19252 0.42951 0.63702 0.0
C1131 C 0.28525 0.43158 0.79637 0.0
C1132 C 0.23521 0.43296 0.77425 0.0
H1133 H 0.19425 0.40497 0.70237 0.0
C1134 C 0.23357 0.45113 0.77732 0.0
C1135 C 0.221 0.41622 0.74654 0.0
C1136 C 0.22205 0.39629 0.74239 0.0
C1137 C 0.21811 0.45305 0.75322 0.0
C1138 C 0.20354 0.43609 0.72617 0.0
C1139 C 0.20539 0.418 0.72285 0.0
C1140 C 0.18547 0.4362 0.70343 0.0
C1141 C 0.21785 0.47342 0.75633 0.0
C1142 C 0.171 0.43904 0.72874 0.0
C1143 C 0.1531 0.43751 0.70866 0.0
C1144 C 0.14896 0.4328 0.66274 0.0
C1145 C 0.16362 0.43033 0.63703 0.0
C1146 C 0.18168 0.43194 0.65726 0.0
H1147 H 0.23366 0.48677 0.76474 0.0
H1148 H 0.2125 0.47703 0.72446 0.0
H1149 H 0.20695 0.47217 0.78342 0.0
H1150 H 0.17315 0.44176 0.76451 0.0
H1151 H 0.14213 0.43938 0.72968 0.0
H1152 H 0.8694 0.29749 0.94323 0.0
H1153 H 0.83948 0.2699 0.90273 0.0
H1154 H 0.81459 0.23599 0.02604 0.0
H1155 H 0.84489 0.26365 0.06732 0.0
H1156 H 0.82727 0.22236 0.91052 0.0
H1157 H 0.76595 0.24286 0.95422 0.0
H1158 H 0.79356 0.26242 0.95318 0.0
H1159 H 0.78343 0.24347 0.99747 0.0
C1160 C 0.85752 0.2843 0.96206 0.0
C1161 C 0.85958 0.2828 0.00867 0.0
C1162 C 0.84043 0.26851 0.93869 0.0
C1163 C 0.82485 0.25095 0.96134 0.0
C1164 C 0.82647 0.24952 0.00801 0.0
H1165 H 0.70945 0.14215 0.87986 0.0
H1166 H 0.73807 0.17225 0.91715 0.0
C1167 C 0.84374 0.26532 0.03154 0.0
C1168 C 0.80743 0.23385 0.93545 0.0
H1169 H 0.75572 0.2134 0.90777 0.0
C1170 C 0.8116 0.22033 0.90984 0.0
C1171 C 0.78709 0.23137 0.93463 0.0
C1172 C 0.78206 0.24578 0.96113 0.0
C1173 C 0.7958 0.20402 0.8841 0.0
C1174 C 0.7754 0.20159 0.88284 0.0
C1175 C 0.77135 0.2153 0.90834 0.0
C1176 C 0.75763 0.18399 0.85815 0.0
C1177 C 0.80097 0.18914 0.85985 0.0
C1178 C 0.75871 0.18069 0.81193 0.0
C1179 C 0.74226 0.16317 0.79027 0.0
C1180 C 0.72436 0.14882 0.8144 0.0
C1181 C 0.72301 0.15277 0.86011 0.0
C1182 C 0.73941 0.17007 0.88164 0.0
H1183 H 0.81539 0.18983 0.87345 0.0
H1184 H 0.78781 0.17269 0.86222 0.0
H1185 H 0.80376 0.19354 0.82392 0.0
H1186 H 0.77237 0.1915 0.79271 0.0
H1187 H 0.74376 0.16063 0.75504 0.0
H1188 H 0.59423 0.8486 0.23495 0.0
H1189 H 0.59262 0.81777 0.19841 0.0
H1190 H 0.55792 0.82384 0.0884 0.0
H1191 H 0.55935 0.85431 0.12451 0.0
H1192 H 0.54228 0.78204 0.11612 0.0
H1193 H 0.62851 0.82342 0.08647 0.0
H1194 H 0.62057 0.82271 0.14372 0.0
H1195 H 0.61484 0.83708 0.10282 0.0
C1196 C 0.58594 0.84309 0.2034 0.0
C1197 C 0.57701 0.85396 0.18255 0.0
C1198 C 0.58521 0.82562 0.18232 0.0
C1199 C 0.57548 0.81873 0.14022 0.0
C1200 C 0.56563 0.82893 0.12066 0.0
H1201 H 0.59211 0.74032 0.94132 0.0
H1202 H 0.58956 0.76874 0.97924 0.0
C1203 C 0.56647 0.84637 0.14144 0.0
C1204 C 0.57598 0.80138 0.11544 0.0
H1205 H 0.60905 0.78797 0.06313 0.0
C1206 C 0.55688 0.7833 0.10467 0.0
C1207 C 0.59501 0.80323 0.09965 0.0
C1208 C 0.61592 0.8227 0.10832 0.0
C1209 C 0.55632 0.7669 0.07923 0.0
C1210 C 0.57538 0.76852 0.06438 0.0
C1211 C 0.59446 0.78673 0.07455 0.0
C1212 C 0.57588 0.75108 0.04002 0.0
C1213 C 0.5353 0.74806 0.06794 0.0
C1214 C 0.569 0.73176 0.06145 0.0
C1215 C 0.57047 0.71564 0.04002 0.0
C1216 C 0.57889 0.71841 0.99655 0.0
C1217 C 0.58541 0.73763 0.97461 0.0
C1218 C 0.58405 0.7539 0.99634 0.0
H1219 H 0.52232 0.75161 0.07123 0.0
H1220 H 0.53523 0.74251 0.03328 0.0
H1221 H 0.53212 0.73508 0.09135 0.0
H1222 H 0.56295 0.72931 0.09534 0.0
H1223 H 0.56535 0.70108 0.05802 0.0
H1224 H 0.75112 0.60187 0.39562 0.0
H1225 H 0.77992 0.60101 0.35593 0.0
H1226 H 0.73482 0.55124 0.27104 0.0
H1227 H 0.70628 0.55327 0.30842 0.0
H1228 H 0.79358 0.57607 0.34172 0.0
H1229 H 0.76929 0.58982 0.17599 0.0
H1230 H 0.75675 0.59092 0.22692 0.0
H1231 H 0.74881 0.56605 0.19995 0.0
C1232 C 0.74741 0.5906 0.3688 0.0
C1233 C 0.72652 0.57773 0.35486 0.0
C1234 C 0.76388 0.59016 0.34592 0.0
C1235 C 0.75972 0.57656 0.30919 0.0
C1236 C 0.73865 0.56256 0.29773 0.0
H1237 H 0.85588 0.5514 0.20202 0.0
H1238 H 0.82648 0.55041 0.24245 0.0
C1239 C 0.72228 0.56347 0.31962 0.0
C1240 C 0.77733 0.57722 0.28262 0.0
H1241 H 0.79476 0.57869 0.17568 0.0
C1242 C 0.79388 0.57681 0.30541 0.0
C1243 C 0.77821 0.57877 0.23515 0.0
C1244 C 0.76244 0.58167 0.20818 0.0
C1245 C 0.81093 0.57752 0.28234 0.0
C1246 C 0.81102 0.57752 0.23475 0.0
C1247 C 0.79466 0.5783 0.21201 0.0
C1248 C 0.82804 0.57711 0.2079 0.0
C1249 C 0.82895 0.57899 0.3096 0.0
C1250 C 0.83791 0.59141 0.17252 0.0
C1251 C 0.85417 0.59136 0.14796 0.0
C1252 C 0.86116 0.57727 0.15883 0.0
C1253 C 0.85097 0.56262 0.19329 0.0
C1254 C 0.83433 0.56225 0.21689 0.0
H1255 H 0.83003 0.5863 0.34284 0.0
H1256 H 0.82631 0.56295 0.31568 0.0
H1257 H 0.84421 0.58837 0.29213 0.0
H1258 H 0.83335 0.60295 0.16443 0.0
H1259 H 0.86181 0.60288 0.12168 0.0
H1260 H 0.1629 0.74807 0.57912 0.0
H1261 H 0.1943 0.77701 0.54337 0.0
H1262 H 0.17487 0.74524 0.41609 0.0
H1263 H 0.14392 0.71651 0.45099 0.0
H1264 H 0.22714 0.77347 0.48173 0.0
H1265 H 0.18139 0.80624 0.40103 0.0
H1266 H 0.17235 0.79007 0.45071 0.0
H1267 H 0.17064 0.77826 0.39708 0.0
C1268 C 0.16548 0.74719 0.54365 0.0
C1269 C 0.15082 0.73 0.51797 0.0
C1270 C 0.18337 0.76372 0.52328 0.0
C1271 C 0.18674 0.76334 0.47698 0.0
C1272 C 0.17246 0.74594 0.45173 0.0
H1273 H 0.27233 0.85247 0.27859 0.0
H1274 H 0.24402 0.82154 0.3164 0.0
C1275 C 0.15477 0.72949 0.47191 0.0
C1276 C 0.20478 0.78118 0.45415 0.0
H1277 H 0.21684 0.82074 0.37914 0.0
C1278 C 0.22498 0.78394 0.45958 0.0
C1279 C 0.20181 0.79456 0.42468 0.0
C1280 C 0.18042 0.79233 0.41803 0.0
C1281 C 0.24228 0.79959 0.43582 0.0
C1282 C 0.23937 0.81317 0.40663 0.0
C1283 C 0.21911 0.81033 0.40127 0.0
C1284 C 0.25723 0.83103 0.38295 0.0
C1285 C 0.26338 0.80102 0.44135 0.0
C1286 C 0.27408 0.84664 0.40759 0.0
C1287 C 0.29024 0.86415 0.38611 0.0
C1288 C 0.2899 0.86668 0.3394 0.0
C1289 C 0.27316 0.85094 0.31452 0.0
C1290 C 0.25694 0.83331 0.33615 0.0
H1291 H 0.26167 0.7858 0.45241 0.0
H1292 H 0.27247 0.8058 0.40963 0.0
H1293 H 0.27254 0.81292 0.4674 0.0
H1294 H 0.27447 0.84562 0.44375 0.0
H1295 H 0.30278 0.876 0.40649 0.0
loop_
_geom_bond_atom_site_label_1
_geom_bond_atom_site_label_2
_geom_bond_distance
_geom_bond_site_symmetry_2
_ccdc_geom_bond_type
Mn0 O5 2.095 . S
Mn0 O15 2.162 . S
Mn0 O16 2.297 . S
Mn0 O24 2.385 . S
Mn0 O25 2.209 . S
Mn0 O26 2.094 . S
Mn1 O6 2.121 . S
Mn1 N8 2.257 . S
Mn1 N17 2.282 . S
Mn1 O25 2.215 . S
Mn1 O27 2.117 . S
C2 O24 1.234 . S
C2 O25 1.283 . S
C3 O15 1.281 . S
C3 O16 1.236 . S
C4 O26 1.240 . S
C4 O27 1.264 . S
O5 Mn0 2.095 . S
O5 C14 1.250 . S
O6 Mn1 2.121 . S
O6 C14 1.258 . S
C7 N8 1.326 . S
C7 C11 1.460 . S
C7 H13 0.929 . S
N8 Mn1 2.257 . S
N8 C7 1.326 . S
N8 C12 1.362 . S
C9 C10 1.258 . S
C9 C12 1.431 . S
C9 C29 1.449 . S
C10 C9 1.258 . S
C10 C11 1.477 . S
C10 H30 0.931 . S
C11 C7 1.460 . S
C11 C10 1.477 . S
C11 H31 0.930 . S
C12 N8 1.362 . S
C12 C9 1.431 . S
C12 C22 1.476 . S
H13 C7 0.929 . S
C14 O5 1.250 . S
C14 O6 1.258 . S
O15 Mn0 2.162 . S
O15 C3 1.281 . S
O16 Mn0 2.297 . S
O16 C3 1.236 . S
N17 Mn1 2.282 . S
N17 C18 1.328 . S
N17 C22 1.318 . S
C18 N17 1.328 . S
C18 C19 1.457 . S
C18 H23 0.929 . S
C19 C18 1.457 . S
C19 C20 1.291 . S
C19 H32 0.931 . S
C20 C19 1.291 . S
C20 C21 1.373 . S
C20 H33 0.929 . S
C21 C20 1.373 . S
C21 C22 1.396 . S
C21 C28 1.403 . S
C22 C12 1.476 . S
C22 N17 1.318 . S
C22 C21 1.396 . S
H23 C18 0.929 . S
O24 Mn0 2.385 . S
O24 C2 1.234 . S
O25 Mn0 2.209 . S
O25 Mn1 2.215 . S
O25 C2 1.283 . S
O26 Mn0 2.094 . S
O26 C4 1.240 . S
O27 Mn1 2.117 . S
O27 C4 1.264 . S
C28 C21 1.403 . S
C28 C29 1.399 . S
C28 H34 0.929 . S
C29 C9 1.449 . S
C29 C28 1.399 . S
C29 H35 0.930 . S
H30 C10 0.931 . S
H31 C11 0.930 . S
H32 C19 0.931 . S
H33 C20 0.929 . S
H34 C28 0.929 . S
H35 C29 0.930 . S
Mn36 O41 2.095 . S
Mn36 O51 2.162 . S
Mn36 O52 2.297 . S
Mn36 O60 2.385 . S
Mn36 O61 2.209 . S
Mn36 O62 2.094 . S
Mn37 O42 2.121 . S
Mn37 N44 2.257 . S
Mn37 N53 2.282 . S
Mn37 O61 2.215 . S
Mn37 O63 2.117 . S
C38 O60 1.234 . S
C38 O61 1.283 . S
C39 O51 1.281 . S
C39 O52 1.236 . S
C40 O62 1.240 . S
C40 O63 1.264 . S
O41 Mn36 2.095 . S
O41 C50 1.250 . S
O42 Mn37 2.121 . S
O42 C50 1.258 . S
C43 N44 1.326 . S
C43 C47 1.460 . S
C43 H49 0.929 . S
N44 Mn37 2.257 . S
N44 C43 1.326 . S
N44 C48 1.362 . S
C45 C46 1.258 . S
C45 C48 1.431 . S
C45 C65 1.449 1_455 S
C46 C45 1.258 . S
C46 C47 1.477 . S
C46 H66 0.931 . S
C47 C43 1.460 . S
C47 C46 1.477 . S
C47 H67 0.930 . S
C48 N44 1.362 . S
C48 C45 1.431 . S
C48 C58 1.476 . S
H49 C43 0.929 . S
C50 O41 1.250 . S
C50 O42 1.258 . S
O51 Mn36 2.162 . S
O51 C39 1.281 . S
O52 Mn36 2.297 . S
O52 C39 1.236 . S
N53 Mn37 2.282 . S
N53 C54 1.328 . S
N53 C58 1.318 . S
C54 N53 1.328 . S
C54 C55 1.456 . S
C54 H59 0.929 . S
C55 C54 1.456 . S
C55 C56 1.292 1_455 S
C55 H68 0.930 1_455 S
C56 C55 1.292 1_655 S
C56 C57 1.373 . S
C56 H69 0.929 . S
C57 C56 1.373 . S
C57 C58 1.396 1_655 S
C57 C64 1.403 . S
C58 C48 1.476 . S
C58 N53 1.318 . S
C58 C57 1.396 1_455 S
H59 C54 0.929 . S
O60 Mn36 2.385 . S
O60 C38 1.234 . S
O61 Mn36 2.209 . S
O61 Mn37 2.215 . S
O61 C38 1.283 . S
O62 Mn36 2.094 . S
O62 C40 1.240 . S
O63 Mn37 2.117 . S
O63 C40 1.264 . S
C64 C57 1.403 . S
C64 C65 1.399 . S
C64 H70 0.929 . S
C65 C45 1.449 1_655 S
C65 C64 1.399 . S
C65 H71 0.930 . S
H66 C46 0.931 . S
H67 C47 0.930 . S
H68 C55 0.930 1_655 S
H69 C56 0.929 . S
H70 C64 0.929 . S
H71 C65 0.930 . S
Mn72 O77 2.095 . S
Mn72 O87 2.162 . S
Mn72 O88 2.297 . S
Mn72 O96 2.385 . S
Mn72 O97 2.209 . S
Mn72 O98 2.094 . S
Mn73 O78 2.121 . S
Mn73 N80 2.257 . S
Mn73 N89 2.282 . S
Mn73 O97 2.215 . S
Mn73 O99 2.117 . S
C74 O96 1.234 . S
C74 O97 1.283 . S
C75 O87 1.281 . S
C75 O88 1.236 . S
C76 O98 1.240 . S
C76 O99 1.264 . S
O77 Mn72 2.095 . S
O77 C86 1.250 . S
O78 Mn73 2.121 . S
O78 C86 1.258 . S
C79 N80 1.326 . S
C79 C83 1.460 . S
C79 H85 0.929 . S
N80 Mn73 2.257 . S
N80 C79 1.326 . S
N80 C84 1.362 . S
C81 C82 1.258 . S
C81 C84 1.431 . S
C81 C101 1.449 1_545 S
C82 C81 1.258 . S
C82 C83 1.477 . S
C82 H102 0.931 . S
C83 C79 1.460 . S
C83 C82 1.477 . S
C83 H103 0.930 . S
C84 N80 1.362 . S
C84 C81 1.431 . S
C84 C94 1.476 . S
H85 C79 0.929 . S
C86 O77 1.250 . S
C86 O78 1.258 . S
O87 Mn72 2.162 . S
O87 C75 1.281 . S
O88 Mn72 2.297 . S
O88 C75 1.236 . S
N89 Mn73 2.282 . S
N89 C90 1.328 . S
N89 C94 1.318 . S
C90 N89 1.328 . S
C90 C91 1.456 . S
C90 H95 0.929 . S
C91 C90 1.456 . S
C91 C92 1.291 1_545 S
C91 H104 0.931 1_545 S
C92 C91 1.291 1_565 S
C92 C93 1.373 . S
C92 H105 0.929 . S
C93 C92 1.373 . S
C93 C94 1.396 1_565 S
C93 C100 1.403 . S
C94 C84 1.476 . S
C94 N89 1.318 . S
C94 C93 1.396 1_545 S
H95 C90 0.929 . S
O96 Mn72 2.385 . S
O96 C74 1.234 . S
O97 Mn72 2.209 . S
O97 Mn73 2.215 . S
O97 C74 1.283 . S
O98 Mn72 2.094 . S
O98 C76 1.240 . S
O99 Mn73 2.117 . S
O99 C76 1.264 . S
C100 C93 1.403 . S
C100 C101 1.399 . S
C100 H106 0.929 . S
C101 C81 1.449 1_565 S
C101 C100 1.399 . S
C101 H107 0.930 . S
H102 C82 0.931 . S
H103 C83 0.930 . S
H104 C91 0.931 1_565 S
H105 C92 0.929 . S
H106 C100 0.929 . S
H107 C101 0.930 . S
Mn108 O113 2.095 . S
Mn108 O123 2.162 . S
Mn108 O124 2.297 . S
Mn108 O132 2.385 . S
Mn108 O133 2.209 . S
Mn108 O134 2.094 . S
Mn109 O114 2.121 . S
Mn109 N116 2.257 . S
Mn109 N125 2.282 . S
Mn109 O133 2.215 . S
Mn109 O135 2.117 . S
C110 O132 1.234 . S
C110 O133 1.283 . S
C111 O123 1.281 . S
C111 O124 1.236 . S
C112 O134 1.240 . S
C112 O135 1.264 . S
O113 Mn108 2.095 . S
O113 C122 1.250 . S
O114 Mn109 2.121 . S
O114 C122 1.258 . S
C115 N116 1.326 1_554 S
C115 C119 1.460 . S
C115 H121 0.929 1_554 S
N116 Mn109 2.257 . S
N116 C115 1.326 1_556 S
N116 C120 1.362 1_556 S
C117 C118 1.258 . S
C117 C120 1.431 . S
C117 C137 1.449 . S
C118 C117 1.258 . S
C118 C119 1.477 . S
C118 H138 0.931 . S
C119 C115 1.460 . S
C119 C118 1.477 . S
C119 H139 0.930 . S
C120 N116 1.362 1_554 S
C120 C117 1.431 . S
C120 C130 1.476 1_554 S
H121 C115 0.929 1_556 S
C122 O113 1.250 . S
C122 O114 1.258 . S
O123 Mn108 2.162 . S
O123 C111 1.281 . S
O124 Mn108 2.297 . S
O124 C111 1.236 . S
N125 Mn109 2.282 . S
N125 C126 1.328 . S
N125 C130 1.318 . S
C126 N125 1.328 . S
C126 C127 1.457 . S
C126 H131 0.929 . S
C127 C126 1.457 . S
C127 C128 1.291 . S
C127 H140 0.931 . S
C128 C127 1.291 . S
C128 C129 1.368 1_556 S
C128 H141 0.929 . S
C129 C128 1.368 1_554 S
C129 C130 1.392 1_554 S
C129 C136 1.410 . S
C130 C120 1.476 1_556 S
C130 N125 1.318 . S
C130 C129 1.392 1_556 S
H131 C126 0.929 . S
O132 Mn108 2.385 . S
O132 C110 1.234 . S
O133 Mn108 2.209 . S
O133 Mn109 2.215 . S
O133 C110 1.283 . S
O134 Mn108 2.094 . S
O134 C112 1.240 . S
O135 Mn109 2.117 . S
O135 C112 1.264 . S
C136 C129 1.410 . S
C136 C137 1.399 . S
C136 H142 0.929 . S
C137 C117 1.449 . S
C137 C136 1.399 . S
C137 H143 0.930 . S
H138 C118 0.931 . S
H139 C119 0.930 . S
H140 C127 0.931 . S
H141 C128 0.929 . S
H142 C136 0.929 . S
H143 C137 0.930 . S
Mn144 O149 2.095 . S
Mn144 O159 2.162 . S
Mn144 O160 2.297 . S
Mn144 O168 2.385 . S
Mn144 O169 2.209 . S
Mn144 O170 2.094 . S
Mn145 O150 2.121 . S
Mn145 N152 2.257 . S
Mn145 N161 2.282 . S
Mn145 O169 2.215 . S
Mn145 O171 2.117 . S
C146 O168 1.234 . S
C146 O169 1.283 . S
C147 O159 1.281 . S
C147 O160 1.236 . S
C148 O170 1.240 . S
C148 O171 1.264 . S
O149 Mn144 2.095 . S
O149 C158 1.250 . S
O150 Mn145 2.121 . S
O150 C158 1.258 . S
C151 N152 1.326 . S
C151 C155 1.460 . S
C151 H157 0.929 . S
N152 Mn145 2.257 . S
N152 C151 1.326 . S
N152 C156 1.362 . S
C153 C154 1.258 . S
C153 C156 1.431 . S
C153 C173 1.449 1_655 S
C154 C153 1.258 . S
C154 C155 1.477 . S
C154 H174 0.931 . S
C155 C151 1.460 . S
C155 C154 1.477 . S
C155 H175 0.930 . S
C156 N152 1.362 . S
C156 C153 1.431 . S
C156 C166 1.476 . S
H157 C151 0.929 . S
C158 O149 1.250 . S
C158 O150 1.258 . S
O159 Mn144 2.162 . S
O159 C147 1.281 . S
O160 Mn144 2.297 . S
O160 C147 1.236 . S
N161 Mn145 2.282 . S
N161 C162 1.328 . S
N161 C166 1.318 . S
C162 N161 1.328 . S
C162 C163 1.456 . S
C162 H167 0.929 . S
C163 C162 1.456 . S
C163 C164 1.292 1_655 S
C163 H176 0.930 1_655 S
C164 C163 1.292 1_455 S
C164 C165 1.373 . S
C164 H177 0.929 . S
C165 C164 1.373 . S
C165 C166 1.396 1_455 S
C165 C172 1.403 . S
C166 C156 1.476 . S
C166 N161 1.318 . S
C166 C165 1.396 1_655 S
H167 C162 0.929 . S
O168 Mn144 2.385 . S
O168 C146 1.234 . S
O169 Mn144 2.209 . S
O169 Mn145 2.215 . S
O169 C146 1.283 . S
O170 Mn144 2.094 . S
O170 C148 1.240 . S
O171 Mn145 2.117 . S
O171 C148 1.264 . S
C172 C165 1.403 . S
C172 C173 1.399 . S
C172 H178 0.929 . S
C173 C153 1.449 1_455 S
C173 C172 1.399 . S
C173 H179 0.930 . S
H174 C154 0.931 . S
H175 C155 0.930 . S
H176 C163 0.930 1_455 S
H177 C164 0.929 . S
H178 C172 0.929 . S
H179 C173 0.930 . S
Mn180 O185 2.095 . S
Mn180 O195 2.162 . S
Mn180 O196 2.297 . S
Mn180 O204 2.385 . S
Mn180 O205 2.209 . S
Mn180 O206 2.094 . S
Mn181 O186 2.121 . S
Mn181 N188 2.257 . S
Mn181 N197 2.282 . S
Mn181 O205 2.215 . S
Mn181 O207 2.117 . S
C182 O204 1.234 . S
C182 O205 1.283 . S
C183 O195 1.281 . S
C183 O196 1.236 . S
C184 O206 1.240 . S
C184 O207 1.264 . S
O185 Mn180 2.095 . S
O185 C194 1.250 . S
O186 Mn181 2.121 . S
O186 C194 1.258 . S
C187 N188 1.326 . S
C187 C191 1.460 . S
C187 H193 0.929 . S
N188 Mn181 2.257 . S
N188 C187 1.326 . S
N188 C192 1.362 . S
C189 C190 1.258 . S
C189 C192 1.431 . S
C189 C209 1.449 1_565 S
C190 C189 1.258 . S
C190 C191 1.477 . S
C190 H210 0.931 . S
C191 C187 1.460 . S
C191 C190 1.477 . S
C191 H211 0.930 . S
C192 N188 1.362 . S
C192 C189 1.431 . S
C192 C202 1.476 . S
H193 C187 0.929 . S
C194 O185 1.250 . S
C194 O186 1.258 . S
O195 Mn180 2.162 . S
O195 C183 1.281 . S
O196 Mn180 2.297 . S
O196 C183 1.236 . S
N197 Mn181 2.282 . S
N197 C198 1.328 . S
N197 C202 1.318 . S
C198 N197 1.328 . S
C198 C199 1.456 . S
C198 H203 0.929 . S
C199 C198 1.456 . S
C199 C200 1.291 1_565 S
C199 H212 0.931 1_565 S
C200 C199 1.291 1_545 S
C200 C201 1.373 . S
C200 H213 0.929 . S
C201 C200 1.373 . S
C201 C202 1.396 1_545 S
C201 C208 1.403 . S
C202 C192 1.476 . S
C202 N197 1.318 . S
C202 C201 1.396 1_565 S
H203 C198 0.929 . S
O204 Mn180 2.385 . S
O204 C182 1.234 . S
O205 Mn180 2.209 . S
O205 Mn181 2.215 . S
O205 C182 1.283 . S
O206 Mn180 2.094 . S
O206 C184 1.240 . S
O207 Mn181 2.117 . S
O207 C184 1.264 . S
C208 C201 1.403 . S
C208 C209 1.399 . S
C208 H214 0.929 . S
C209 C189 1.449 1_545 S
C209 C208 1.399 . S
C209 H215 0.930 . S
H210 C190 0.931 . S
H211 C191 0.930 . S
H212 C199 0.931 1_545 S
H213 C200 0.929 . S
H214 C208 0.929 . S
H215 C209 0.930 . S
Mn216 O221 2.095 . S
Mn216 O231 2.162 . S
Mn216 O232 2.297 . S
Mn216 O240 2.385 . S
Mn216 O241 2.209 . S
Mn216 O242 2.094 . S
Mn217 O222 2.121 . S
Mn217 N224 2.257 . S
Mn217 N233 2.282 . S
Mn217 O241 2.215 . S
Mn217 O243 2.117 . S
C218 O240 1.234 . S
C218 O241 1.283 . S
C219 O231 1.281 . S
C219 O232 1.236 . S
C220 O242 1.240 . S
C220 O243 1.264 . S
O221 Mn216 2.095 . S
O221 C230 1.250 . S
O222 Mn217 2.121 . S
O222 C230 1.258 . S
C223 N224 1.326 . S
C223 C227 1.460 . S
C223 H229 0.929 . S
N224 Mn217 2.257 . S
N224 C223 1.326 . S
N224 C228 1.362 . S
C225 C226 1.258 . S
C225 C228 1.431 . S
C225 C245 1.449 . S
C226 C225 1.258 . S
C226 C227 1.477 . S
C226 H246 0.931 . S
C227 C223 1.460 . S
C227 C226 1.477 . S
C227 H247 0.930 . S
C228 N224 1.362 . S
C228 C225 1.431 . S
C228 C238 1.476 . S
H229 C223 0.929 . S
C230 O221 1.250 . S
C230 O222 1.258 . S
O231 Mn216 2.162 . S
O231 C219 1.281 . S
O232 Mn216 2.297 . S
O232 C219 1.236 . S
N233 Mn217 2.282 . S
N233 C234 1.328 . S
N233 C238 1.318 . S
C234 N233 1.328 . S
C234 C235 1.457 . S
C234 H239 0.929 . S
C235 C234 1.457 . S
C235 C236 1.291 . S
C235 H248 0.931 . S
C236 C235 1.291 . S
C236 C237 1.373 . S
C236 H249 0.929 . S
C237 C236 1.373 . S
C237 C238 1.396 . S
C237 C244 1.403 . S
C238 C228 1.476 . S
C238 N233 1.318 . S
C238 C237 1.396 . S
H239 C234 0.929 . S
O240 Mn216 2.385 . S
O240 C218 1.234 . S
O241 Mn216 2.209 . S
O241 Mn217 2.215 . S
O241 C218 1.283 . S
O242 Mn216 2.094 . S
O242 C220 1.240 . S
O243 Mn217 2.117 . S
O243 C220 1.264 . S
C244 C237 1.403 . S
C244 C245 1.399 . S
C244 H250 0.929 . S
C245 C225 1.449 . S
C245 C244 1.399 . S
C245 H251 0.930 . S
H246 C226 0.931 . S
H247 C227 0.930 . S
H248 C235 0.931 . S
H249 C236 0.929 . S
H250 C244 0.929 . S
H251 C245 0.930 . S
Mn252 O257 2.095 . S
Mn252 O267 2.162 . S
Mn252 O268 2.297 . S
Mn252 O276 2.385 . S
Mn252 O277 2.209 . S
Mn252 O278 2.094 . S
Mn253 O258 2.121 . S
Mn253 N260 2.257 . S
Mn253 N269 2.282 . S
Mn253 O277 2.215 . S
Mn253 O279 2.117 . S
C254 O276 1.234 . S
C254 O277 1.283 . S
C255 O267 1.281 . S
C255 O268 1.236 . S
C256 O278 1.240 . S
C256 O279 1.264 . S
O257 Mn252 2.095 . S
O257 C266 1.250 . S
O258 Mn253 2.121 . S
O258 C266 1.258 . S
C259 N260 1.326 . S
C259 C263 1.460 . S
C259 H265 0.929 . S
N260 Mn253 2.257 . S
N260 C259 1.326 . S
N260 C264 1.362 . S
C261 C262 1.258 . S
C261 C264 1.431 . S
C261 C281 1.449 1_455 S
C262 C261 1.258 . S
C262 C263 1.477 . S
C262 H282 0.931 . S
C263 C259 1.460 . S
C263 C262 1.477 . S
C263 H283 0.930 . S
C264 N260 1.362 . S
C264 C261 1.431 . S
C264 C274 1.476 . S
H265 C259 0.929 . S
C266 O257 1.250 . S
C266 O258 1.258 . S
O267 Mn252 2.162 . S
O267 C255 1.281 . S
O268 Mn252 2.297 . S
O268 C255 1.236 . S
N269 Mn253 2.282 . S
N269 C270 1.328 . S
N269 C274 1.318 . S
C270 N269 1.328 . S
C270 C271 1.456 . S
C270 H275 0.929 . S
C271 C270 1.456 . S
C271 C272 1.291 1_455 S
C271 H284 0.931 1_455 S
C272 C271 1.291 1_655 S
C272 C273 1.373 . S
C272 H285 0.929 . S
C273 C272 1.373 . S
C273 C274 1.396 1_655 S
C273 C280 1.403 . S
C274 C264 1.476 . S
C274 N269 1.318 . S
C274 C273 1.396 1_455 S
H275 C270 0.929 . S
O276 Mn252 2.385 . S
O276 C254 1.234 . S
O277 Mn252 2.209 . S
O277 Mn253 2.215 . S
O277 C254 1.283 . S
O278 Mn252 2.094 . S
O278 C256 1.240 . S
O279 Mn253 2.117 . S
O279 C256 1.264 . S
C280 C273 1.403 . S
C280 C281 1.399 . S
C280 H286 0.929 . S
C281 C261 1.449 1_655 S
C281 C280 1.399 . S
C281 H287 0.930 . S
H282 C262 0.931 . S
H283 C263 0.930 . S
H284 C271 0.931 1_655 S
H285 C272 0.929 . S
H286 C280 0.929 . S
H287 C281 0.930 . S
Mn288 O293 2.095 . S
Mn288 O303 2.162 . S
Mn288 O304 2.297 . S
Mn288 O312 2.385 . S
Mn288 O313 2.209 . S
Mn288 O314 2.094 . S
Mn289 O294 2.121 . S
Mn289 N296 2.257 . S
Mn289 N305 2.282 . S
Mn289 O313 2.215 . S
Mn289 O315 2.117 . S
C290 O312 1.234 . S
C290 O313 1.283 . S
C291 O303 1.281 . S
C291 O304 1.236 . S
C292 O314 1.240 . S
C292 O315 1.264 . S
O293 Mn288 2.095 . S
O293 C302 1.250 . S
O294 Mn289 2.121 . S
O294 C302 1.258 . S
C295 N296 1.326 . S
C295 C299 1.460 . S
C295 H301 0.929 . S
N296 Mn289 2.257 . S
N296 C295 1.326 . S
N296 C300 1.362 . S
C297 C298 1.258 . S
C297 C300 1.431 . S
C297 C317 1.449 1_545 S
C298 C297 1.258 . S
C298 C299 1.477 . S
C298 H318 0.931 . S
C299 C295 1.460 . S
C299 C298 1.477 . S
C299 H319 0.930 . S
C300 N296 1.362 . S
C300 C297 1.431 . S
C300 C310 1.476 . S
H301 C295 0.929 . S
C302 O293 1.250 . S
C302 O294 1.258 . S
O303 Mn288 2.162 . S
O303 C291 1.281 . S
O304 Mn288 2.297 . S
O304 C291 1.236 . S
N305 Mn289 2.282 . S
N305 C306 1.328 . S
N305 C310 1.318 . S
C306 N305 1.328 . S
C306 C307 1.456 . S
C306 H311 0.929 . S
C307 C306 1.456 . S
C307 C308 1.292 1_545 S
C307 H320 0.930 1_545 S
C308 C307 1.292 1_565 S
C308 C309 1.373 . S
C308 H321 0.929 . S
C309 C308 1.373 . S
C309 C310 1.396 1_565 S
C309 C316 1.403 . S
C310 C300 1.476 . S
C310 N305 1.318 . S
C310 C309 1.396 1_545 S
H311 C306 0.929 . S
O312 Mn288 2.385 . S
O312 C290 1.234 . S
O313 Mn288 2.209 . S
O313 Mn289 2.215 . S
O313 C290 1.283 . S
O314 Mn288 2.094 . S
O314 C292 1.240 . S
O315 Mn289 2.117 . S
O315 C292 1.264 . S
C316 C309 1.403 . S
C316 C317 1.399 . S
C316 H322 0.929 . S
C317 C297 1.449 1_565 S
C317 C316 1.399 . S
C317 H323 0.930 . S
H318 C298 0.931 . S
H319 C299 0.930 . S
H320 C307 0.930 1_565 S
H321 C308 0.929 . S
H322 C316 0.929 . S
H323 C317 0.930 . S
Mn324 O329 2.095 . S
Mn324 O339 2.162 . S
Mn324 O340 2.297 . S
Mn324 O348 2.385 . S
Mn324 O349 2.209 . S
Mn324 O350 2.094 . S
Mn325 O330 2.121 . S
Mn325 N332 2.257 . S
Mn325 N341 2.282 . S
Mn325 O349 2.215 . S
Mn325 O351 2.117 . S
C326 O348 1.234 . S
C326 O349 1.283 . S
C327 O339 1.281 . S
C327 O340 1.236 . S
C328 O350 1.240 . S
C328 O351 1.264 . S
O329 Mn324 2.095 . S
O329 C338 1.250 . S
O330 Mn325 2.121 . S
O330 C338 1.258 . S
C331 N332 1.326 . S
C331 C335 1.460 . S
C331 H337 0.929 . S
N332 Mn325 2.257 . S
N332 C331 1.326 . S
N332 C336 1.362 . S
C333 C334 1.258 . S
C333 C336 1.431 . S
C333 C353 1.449 . S
C334 C333 1.258 . S
C334 C335 1.477 . S
C334 H354 0.931 . S
C335 C331 1.460 . S
C335 C334 1.477 . S
C335 H355 0.930 . S
C336 N332 1.362 . S
C336 C333 1.431 . S
C336 C346 1.476 . S
H337 C331 0.929 . S
C338 O329 1.250 . S
C338 O330 1.258 . S
O339 Mn324 2.162 . S
O339 C327 1.281 . S
O340 Mn324 2.297 . S
O340 C327 1.236 . S
N341 Mn325 2.282 . S
N341 C342 1.328 . S
N341 C346 1.318 . S
C342 N341 1.328 . S
C342 C343 1.457 . S
C342 H347 0.929 . S
C343 C342 1.457 . S
C343 C344 1.291 . S
C343 H356 0.931 . S
C344 C343 1.291 . S
C344 C345 1.373 . S
C344 H357 0.929 . S
C345 C344 1.373 . S
C345 C346 1.396 . S
C345 C352 1.403 . S
C346 C336 1.476 . S
C346 N341 1.318 . S
C346 C345 1.396 . S
H347 C342 0.929 . S
O348 Mn324 2.385 . S
O348 C326 1.234 . S
O349 Mn324 2.209 . S
O349 Mn325 2.215 . S
O349 C326 1.283 . S
O350 Mn324 2.094 . S
O350 C328 1.240 . S
O351 Mn325 2.117 . S
O351 C328 1.264 . S
C352 C345 1.403 . S
C352 C353 1.399 . S
C352 H358 0.929 . S
C353 C333 1.449 . S
C353 C352 1.399 . S
C353 H359 0.930 . S
H354 C334 0.931 . S
H355 C335 0.930 . S
H356 C343 0.931 . S
H357 C344 0.929 . S
H358 C352 0.929 . S
H359 C353 0.930 . S
Mn360 O365 2.095 . S
Mn360 O375 2.162 . S
Mn360 O376 2.297 . S
Mn360 O384 2.385 . S
Mn360 O385 2.209 . S
Mn360 O386 2.094 . S
Mn361 O366 2.121 . S
Mn361 N368 2.257 . S
Mn361 N377 2.282 . S
Mn361 O385 2.215 . S
Mn361 O387 2.117 . S
C362 O384 1.234 . S
C362 O385 1.283 . S
C363 O375 1.281 . S
C363 O376 1.236 . S
C364 O386 1.240 . S
C364 O387 1.264 . S
O365 Mn360 2.095 . S
O365 C374 1.250 . S
O366 Mn361 2.121 . S
O366 C374 1.258 . S
C367 N368 1.326 1_556 S
C367 C371 1.460 . S
C367 H373 0.929 1_556 S
N368 Mn361 2.257 . S
N368 C367 1.326 1_554 S
N368 C372 1.362 1_554 S
C369 C370 1.258 . S
C369 C372 1.431 . S
C369 C389 1.449 1_655 S
C370 C369 1.258 . S
C370 C371 1.477 . S
C370 H390 0.931 . S
C371 C367 1.460 . S
C371 C370 1.477 . S
C371 H391 0.930 . S
C372 N368 1.362 1_556 S
C372 C369 1.431 . S
C372 C382 1.476 1_556 S
H373 C367 0.929 1_554 S
C374 O365 1.250 . S
C374 O366 1.258 . S
O375 Mn360 2.162 . S
O375 C363 1.281 . S
O376 Mn360 2.297 . S
O376 C363 1.236 . S
N377 Mn361 2.282 . S
N377 C378 1.328 . S
N377 C382 1.318 . S
C378 N377 1.328 . S
C378 C379 1.456 . S
C378 H383 0.929 . S
C379 C378 1.456 . S
C379 C380 1.291 1_655 S
C379 H392 0.931 1_655 S
C380 C379 1.291 1_455 S
C380 C381 1.369 1_554 S
C380 H393 0.929 . S
C381 C380 1.369 1_556 S
C381 C382 1.393 1_456 S
C381 C388 1.410 . S
C382 C372 1.476 1_554 S
C382 N377 1.318 . S
C382 C381 1.393 1_654 S
H383 C378 0.929 . S
O384 Mn360 2.385 . S
O384 C362 1.234 . S
O385 Mn360 2.209 . S
O385 Mn361 2.215 . S
O385 C362 1.283 . S
O386 Mn360 2.094 . S
O386 C364 1.240 . S
O387 Mn361 2.117 . S
O387 C364 1.264 . S
C388 C381 1.410 . S
C388 C389 1.399 . S
C388 H394 0.929 . S
C389 C369 1.449 1_455 S
C389 C388 1.399 . S
C389 H395 0.930 . S
H390 C370 0.931 . S
H391 C371 0.930 . S
H392 C379 0.931 1_455 S
H393 C380 0.929 . S
H394 C388 0.929 . S
H395 C389 0.930 . S
Mn396 O401 2.095 . S
Mn396 O411 2.162 . S
Mn396 O412 2.297 . S
Mn396 O420 2.385 . S
Mn396 O421 2.209 . S
Mn396 O422 2.094 . S
Mn397 O402 2.121 . S
Mn397 N404 2.257 . S
Mn397 N413 2.282 . S
Mn397 O421 2.215 . S
Mn397 O423 2.117 . S
C398 O420 1.234 . S
C398 O421 1.283 . S
C399 O411 1.281 . S
C399 O412 1.236 . S
C400 O422 1.240 . S
C400 O423 1.264 . S
O401 Mn396 2.095 . S
O401 C410 1.250 . S
O402 Mn397 2.121 . S
O402 C410 1.258 . S
C403 N404 1.326 . S
C403 C407 1.460 . S
C403 H409 0.929 . S
N404 Mn397 2.257 . S
N404 C403 1.326 . S
N404 C408 1.362 . S
C405 C406 1.258 . S
C405 C408 1.431 . S
C405 C425 1.449 1_565 S
C406 C405 1.258 . S
C406 C407 1.477 . S
C406 H426 0.931 . S
C407 C403 1.460 . S
C407 C406 1.477 . S
C407 H427 0.930 . S
C408 N404 1.362 . S
C408 C405 1.431 . S
C408 C418 1.476 . S
H409 C403 0.929 . S
C410 O401 1.250 . S
C410 O402 1.258 . S
O411 Mn396 2.162 . S
O411 C399 1.281 . S
O412 Mn396 2.297 . S
O412 C399 1.236 . S
N413 Mn397 2.282 . S
N413 C414 1.328 . S
N413 C418 1.318 . S
C414 N413 1.328 . S
C414 C415 1.456 . S
C414 H419 0.929 . S
C415 C414 1.456 . S
C415 C416 1.292 1_565 S
C415 H428 0.930 1_565 S
C416 C415 1.292 1_545 S
C416 C417 1.373 . S
C416 H429 0.929 . S
C417 C416 1.373 . S
C417 C418 1.396 1_545 S
C417 C424 1.403 . S
C418 C408 1.476 . S
C418 N413 1.318 . S
C418 C417 1.396 1_565 S
H419 C414 0.929 . S
O420 Mn396 2.385 . S
O420 C398 1.234 . S
O421 Mn396 2.209 . S
O421 Mn397 2.215 . S
O421 C398 1.283 . S
O422 Mn396 2.094 . S
O422 C400 1.240 . S
O423 Mn397 2.117 . S
O423 C400 1.264 . S
C424 C417 1.403 . S
C424 C425 1.399 . S
C424 H430 0.929 . S
C425 C405 1.449 1_545 S
C425 C424 1.399 . S
C425 H431 0.930 . S
H426 C406 0.931 . S
H427 C407 0.930 . S
H428 C415 0.930 1_545 S
H429 C416 0.929 . S
H430 C424 0.929 . S
H431 C425 0.930 . S
H432 C440 0.929 1_556 S
H433 C442 0.930 . S
H434 C444 0.930 . S
H435 C447 0.929 . S
H436 C450 0.930 . S
H437 C452 0.960 . S
H438 C452 0.960 . S
H439 C452 0.960 . S
C440 H432 0.929 1_554 S
C440 C441 1.377 . S
C440 C442 1.384 . S
C441 C440 1.377 . S
C441 C447 1.390 . S
C442 H433 0.930 . S
C442 C440 1.384 . S
C442 C443 1.372 . S
C443 C442 1.372 . S
C443 C444 1.400 . S
C443 C448 1.490 . S
C444 H434 0.930 . S
C444 C443 1.400 . S
C444 C447 1.386 . S
H445 C461 0.930 . S
H446 C462 0.931 . S
C447 H435 0.929 . S
C447 C441 1.390 . S
C447 C444 1.386 . S
C448 C443 1.490 . S
C448 C450 1.395 . S
C448 C451 1.403 . S
H449 C455 0.930 . S
C450 H436 0.930 . S
C450 C448 1.395 . S
C450 C453 1.403 . S
C451 C448 1.403 . S
C451 C452 1.524 . S
C451 C455 1.400 . S
C452 H437 0.960 . S
C452 H438 0.960 . S
C452 H439 0.960 . S
C452 C451 1.524 . S
C453 C450 1.403 . S
C453 C454 1.392 . S
C453 C457 1.495 . S
C454 C453 1.392 . S
C454 C455 1.385 . S
C454 C456 1.478 . S
C455 H449 0.930 . S
C455 C451 1.400 . S
C455 C454 1.385 . S
C456 C454 1.478 . S
C456 C458 1.381 . S
C456 C462 1.383 . S
C457 C453 1.495 . S
C457 H463 0.959 . S
C457 H464 0.961 . S
C457 H465 0.960 . S
C458 C456 1.381 . S
C458 C459 1.394 . S
C458 H466 0.930 . S
C459 C458 1.394 . S
C459 C460 1.383 . S
C459 H467 0.929 . S
C460 C459 1.383 . S
C460 C461 1.377 . S
C461 H445 0.930 . S
C461 C460 1.377 . S
C461 C462 1.379 . S
C462 H446 0.931 . S
C462 C456 1.383 . S
C462 C461 1.379 . S
H463 C457 0.959 . S
H464 C457 0.961 . S
H465 C457 0.960 . S
H466 C458 0.930 . S
H467 C459 0.929 . S
H468 C476 0.929 . S
H469 C478 0.930 . S
H470 C480 0.930 . S
H471 C483 0.929 . S
H472 C486 0.930 . S
H473 C488 0.960 . S
H474 C488 0.960 . S
H475 C488 0.960 . S
C476 H468 0.929 . S
C476 C477 1.377 . S
C476 C478 1.384 . S
C477 C476 1.377 . S
C477 C483 1.390 . S
C478 H469 0.930 . S
C478 C476 1.384 . S
C478 C479 1.372 . S
C479 C478 1.372 . S
C479 C480 1.400 . S
C479 C484 1.490 . S
C480 H470 0.930 . S
C480 C479 1.400 . S
C480 C483 1.386 . S
H481 C497 0.930 . S
H482 C498 0.931 . S
C483 H471 0.929 . S
C483 C477 1.390 . S
C483 C480 1.386 . S
C484 C479 1.490 . S
C484 C486 1.395 . S
C484 C487 1.403 . S
H485 C491 0.930 . S
C486 H472 0.930 . S
C486 C484 1.395 . S
C486 C489 1.403 1_455 S
C487 C484 1.403 . S
C487 C488 1.524 . S
C487 C491 1.400 1_455 S
C488 H473 0.960 . S
C488 H474 0.960 . S
C488 H475 0.960 . S
C488 C487 1.524 . S
C489 C486 1.403 1_655 S
C489 C490 1.392 . S
C489 C493 1.495 . S
C490 C489 1.392 . S
C490 C491 1.385 . S
C490 C492 1.478 . S
C491 H485 0.930 . S
C491 C487 1.400 1_655 S
C491 C490 1.385 . S
C492 C490 1.478 . S
C492 C494 1.381 . S
C492 C498 1.383 . S
C493 C489 1.495 . S
C493 H499 0.959 . S
C493 H500 0.961 . S
C493 H501 0.960 . S
C494 C492 1.381 . S
C494 C495 1.394 . S
C494 H502 0.930 . S
C495 C494 1.394 . S
C495 C496 1.383 . S
C495 H503 0.929 . S
C496 C495 1.383 . S
C496 C497 1.377 . S
C497 H481 0.930 . S
C497 C496 1.377 . S
C497 C498 1.379 . S
C498 H482 0.931 . S
C498 C492 1.383 . S
C498 C497 1.379 . S
H499 C493 0.959 . S
H500 C493 0.961 . S
H501 C493 0.960 . S
H502 C494 0.930 . S
H503 C495 0.929 . S
H504 C512 0.929 . S
H505 C514 0.930 . S
H506 C516 0.930 . S
H507 C519 0.929 . S
H508 C522 0.945 . S
H509 C524 0.960 . S
H510 C524 0.960 . S
H511 C524 0.960 . S
C512 H504 0.929 . S
C512 C513 1.377 . S
C512 C514 1.384 . S
C513 C512 1.377 . S
C513 C519 1.390 . S
C514 H505 0.930 . S
C514 C512 1.384 . S
C514 C515 1.372 . S
C515 C514 1.372 . S
C515 C516 1.400 . S
C515 C520 1.490 . S
C516 H506 0.930 . S
C516 C515 1.400 . S
C516 C519 1.386 . S
H517 C533 0.930 . S
H518 C534 0.931 . S
C519 H507 0.929 . S
C519 C513 1.390 . S
C519 C516 1.386 . S
C520 C515 1.490 . S
C520 C522 1.337 1_565 S
C520 C523 1.403 . S
H521 C527 0.930 . S
C522 H508 0.945 . S
C522 C520 1.337 1_545 S
C522 C525 1.443 . S
C523 C520 1.403 . S
C523 C524 1.524 . S
C523 C527 1.400 1_565 S
C524 H509 0.960 . S
C524 H510 0.960 . S
C524 H511 0.960 . S
C524 C523 1.524 . S
C525 C522 1.443 . S
C525 C526 1.392 . S
C525 C529 1.495 . S
C526 C525 1.392 . S
C526 C527 1.385 . S
C526 C528 1.478 . S
C527 H521 0.930 . S
C527 C523 1.400 1_545 S
C527 C526 1.385 . S
C528 C526 1.478 . S
C528 C530 1.381 . S
C528 C534 1.383 . S
C529 C525 1.495 . S
C529 H535 0.959 . S
C529 H536 0.961 . S
C529 H537 0.960 . S
C530 C528 1.381 . S
C530 C531 1.394 . S
C530 H538 0.930 . S
C531 C530 1.394 . S
C531 C532 1.383 . S
C531 H539 0.929 . S
C532 C531 1.383 . S
C532 C533 1.377 . S
C533 H517 0.930 . S
C533 C532 1.377 . S
C533 C534 1.379 . S
C534 H518 0.931 . S
C534 C528 1.383 . S
C534 C533 1.379 . S
H535 C529 0.959 . S
H536 C529 0.961 . S
H537 C529 0.960 . S
H538 C530 0.930 . S
H539 C531 0.929 . S
H540 C548 0.929 . S
H541 C550 0.930 . S
H542 C552 0.930 . S
H543 C555 0.929 . S
H544 C558 0.930 . S
H545 C560 0.960 . S
H546 C560 0.960 . S
H547 C560 0.960 . S
C548 H540 0.929 . S
C548 C549 1.377 . S
C548 C550 1.384 . S
C549 C548 1.377 . S
C549 C555 1.390 . S
C550 H541 0.930 . S
C550 C548 1.384 . S
C550 C551 1.372 . S
C551 C550 1.372 . S
C551 C552 1.400 . S
C551 C556 1.490 . S
C552 H542 0.930 . S
C552 C551 1.400 . S
C552 C555 1.386 . S
H553 C569 0.930 . S
H554 C570 0.931 . S
C555 H543 0.929 . S
C555 C549 1.390 . S
C555 C552 1.386 . S
C556 C551 1.490 . S
C556 C558 1.395 . S
C556 C559 1.403 . S
H557 C563 0.930 . S
C558 H544 0.930 . S
C558 C556 1.395 . S
C558 C561 1.403 . S
C559 C556 1.403 . S
C559 C560 1.524 . S
C559 C563 1.400 . S
C560 H545 0.960 . S
C560 H546 0.960 . S
C560 H547 0.960 . S
C560 C559 1.524 . S
C561 C558 1.403 . S
C561 C562 1.392 . S
C561 C565 1.495 . S
C562 C561 1.392 . S
C562 C563 1.385 . S
C562 C564 1.478 . S
C563 H557 0.930 . S
C563 C559 1.400 . S
C563 C562 1.385 . S
C564 C562 1.478 . S
C564 C566 1.381 . S
C564 C570 1.383 . S
C565 C561 1.495 . S
C565 H571 0.959 . S
C565 H572 0.961 . S
C565 H573 0.960 . S
C566 C564 1.381 . S
C566 C567 1.394 . S
C566 H574 0.930 . S
C567 C566 1.394 . S
C567 C568 1.383 . S
C567 H575 0.929 . S
C568 C567 1.383 . S
C568 C569 1.377 . S
C569 H553 0.930 . S
C569 C568 1.377 . S
C569 C570 1.379 . S
C570 H554 0.931 . S
C570 C564 1.383 . S
C570 C569 1.379 . S
H571 C565 0.959 . S
H572 C565 0.961 . S
H573 C565 0.960 . S
H574 C566 0.930 . S
H575 C567 0.929 . S
H576 C584 0.929 . S
H577 C586 0.930 . S
H578 C588 0.930 . S
H579 C591 0.929 . S
H580 C594 0.930 . S
H581 C596 0.960 . S
H582 C596 0.960 . S
H583 C596 0.960 1_455 S
C584 H576 0.929 . S
C584 C585 1.377 . S
C584 C586 1.384 . S
C585 C584 1.377 . S
C585 C591 1.390 . S
C586 H577 0.930 . S
C586 C584 1.384 . S
C586 C587 1.372 . S
C587 C586 1.372 . S
C587 C588 1.400 . S
C587 C592 1.490 . S
C588 H578 0.930 . S
C588 C587 1.400 . S
C588 C591 1.386 . S
H589 C605 0.933 . S
H590 C606 0.931 . S
C591 H579 0.929 . S
C591 C585 1.390 . S
C591 C588 1.386 . S
C592 C587 1.490 . S
C592 C594 1.395 . S
C592 C595 1.357 1_455 S
H593 C599 0.930 . S
C594 H580 0.930 . S
C594 C592 1.395 . S
C594 C597 1.430 . S
C595 C592 1.357 1_655 S
C595 C596 1.548 . S
C595 C599 1.423 . S
C596 H581 0.960 . S
C596 H582 0.960 . S
C596 H583 0.960 1_655 S
C596 C595 1.548 . S
C597 C594 1.430 . S
C597 C598 1.344 1_455 S
C597 C601 1.520 . S
C598 C597 1.344 1_655 S
C598 C599 1.385 . S
C598 C600 1.478 . S
C599 H593 0.930 . S
C599 C595 1.423 . S
C599 C598 1.385 . S
C600 C598 1.478 . S
C600 C602 1.381 . S
C600 C606 1.383 . S
C601 C597 1.520 . S
C601 H607 0.959 . S
C601 H608 0.961 . S
C601 H609 0.960 1_455 S
C602 C600 1.381 . S
C602 C603 1.394 . S
C602 H610 0.930 . S
C603 C602 1.394 . S
C603 C604 1.383 . S
C603 H611 0.929 . S
C604 C603 1.383 . S
C604 C605 1.377 . S
C605 H589 0.933 . S
C605 C604 1.377 . S
C605 C606 1.379 . S
C606 H590 0.931 . S
C606 C600 1.383 . S
C606 C605 1.379 . S
H607 C601 0.959 . S
H608 C601 0.961 . S
H609 C601 0.960 1_655 S
H610 C602 0.930 . S
H611 C603 0.929 . S
H612 C620 0.929 . S
H613 C622 0.930 . S
H614 C624 0.930 . S
H615 C627 0.929 . S
H616 C630 0.930 . S
H617 C632 0.960 . S
H618 C632 0.960 . S
H619 C632 0.960 1_556 S
C620 H612 0.929 . S
C620 C621 1.377 . S
C620 C622 1.384 . S
C621 C620 1.377 . S
C621 C627 1.390 . S
C622 H613 0.930 . S
C622 C620 1.384 . S
C622 C623 1.372 . S
C623 C622 1.372 . S
C623 C624 1.400 . S
C623 C628 1.490 . S
C624 H614 0.930 . S
C624 C623 1.400 . S
C624 C627 1.386 . S
H625 C641 0.930 . S
H626 C642 0.931 . S
C627 H615 0.929 . S
C627 C621 1.390 . S
C627 C624 1.386 . S
C628 C623 1.490 . S
C628 C630 1.395 1_545 S
C628 C631 1.403 1_556 S
H629 C635 0.930 . S
C630 H616 0.930 . S
C630 C628 1.395 1_565 S
C630 C633 1.403 . S
C631 C628 1.403 1_554 S
C631 C632 1.524 . S
C631 C635 1.400 . S
C632 H617 0.960 . S
C632 H618 0.960 . S
C632 H619 0.960 1_554 S
C632 C631 1.524 . S
C633 C630 1.403 . S
C633 C634 1.392 1_556 S
C633 C637 1.495 . S
C634 C633 1.392 1_554 S
C634 C635 1.385 1_565 S
C634 C636 1.478 . S
C635 H629 0.930 . S
C635 C631 1.400 . S
C635 C634 1.385 1_545 S
C636 C634 1.478 . S
C636 C638 1.381 . S
C636 C642 1.383 . S
C637 C633 1.495 . S
C637 H643 0.959 . S
C637 H644 0.961 . S
C637 H645 0.959 1_556 S
C638 C636 1.381 . S
C638 C639 1.394 . S
C638 H646 0.930 . S
C639 C638 1.394 . S
C639 C640 1.383 . S
C639 H647 0.929 . S
C640 C639 1.383 . S
C640 C641 1.377 . S
C641 H625 0.930 . S
C641 C640 1.377 . S
C641 C642 1.379 . S
C642 H626 0.931 . S
C642 C636 1.383 . S
C642 C641 1.379 . S
H643 C637 0.959 . S
H644 C637 0.961 . S
H645 C637 0.959 1_554 S
H646 C638 0.930 . S
H647 C639 0.929 . S
H648 C656 0.929 . S
H649 C658 0.930 . S
H650 C660 0.930 . S
H651 C663 0.929 . S
H652 C666 0.930 . S
H653 C668 0.960 . S
H654 C668 0.960 . S
H655 C668 0.960 . S
C656 H648 0.929 . S
C656 C657 1.377 . S
C656 C658 1.384 . S
C657 C656 1.377 . S
C657 C663 1.390 . S
C658 H649 0.930 . S
C658 C656 1.384 . S
C658 C659 1.372 . S
C659 C658 1.372 . S
C659 C660 1.400 . S
C659 C664 1.490 . S
C660 H650 0.930 . S
C660 C659 1.400 . S
C660 C663 1.386 . S
H661 C677 0.930 . S
H662 C678 0.931 . S
C663 H651 0.929 . S
C663 C657 1.390 . S
C663 C660 1.386 . S
C664 C659 1.490 . S
C664 C666 1.395 . S
C664 C667 1.403 . S
H665 C671 0.930 . S
C666 H652 0.930 . S
C666 C664 1.395 . S
C666 C669 1.403 . S
C667 C664 1.403 . S
C667 C668 1.524 . S
C667 C671 1.400 . S
C668 H653 0.960 . S
C668 H654 0.960 . S
C668 H655 0.960 . S
C668 C667 1.524 . S
C669 C666 1.403 . S
C669 C670 1.392 . S
C669 C673 1.495 . S
C670 C669 1.392 . S
C670 C671 1.385 . S
C670 C672 1.478 . S
C671 H665 0.930 . S
C671 C667 1.400 . S
C671 C670 1.385 . S
C672 C670 1.478 . S
C672 C674 1.381 . S
C672 C678 1.383 . S
C673 C669 1.495 . S
C673 H679 0.959 . S
C673 H680 0.961 . S
C673 H681 0.960 . S
C674 C672 1.381 . S
C674 C675 1.394 . S
C674 H682 0.930 . S
C675 C674 1.394 . S
C675 C676 1.383 . S
C675 H683 0.929 . S
C676 C675 1.383 . S
C676 C677 1.377 . S
C677 H661 0.930 . S
C677 C676 1.377 . S
C677 C678 1.379 . S
C678 H662 0.931 . S
C678 C672 1.383 . S
C678 C677 1.379 . S
H679 C673 0.959 . S
H680 C673 0.961 . S
H681 C673 0.960 . S
H682 C674 0.930 . S
H683 C675 0.929 . S
H684 C692 0.929 . S
H685 C694 0.930 . S
H686 C696 0.930 . S
H687 C699 0.929 . S
H688 C702 0.930 . S
H689 C704 0.960 . S
H690 C704 0.960 . S
H691 C704 0.960 . S
C692 H684 0.929 . S
C692 C693 1.377 . S
C692 C694 1.384 . S
C693 C692 1.377 . S
C693 C699 1.390 . S
C694 H685 0.930 . S
C694 C692 1.384 . S
C694 C695 1.372 . S
C695 C694 1.372 . S
C695 C696 1.400 . S
C695 C700 1.490 . S
C696 H686 0.930 . S
C696 C695 1.400 . S
C696 C699 1.386 . S
H697 C713 0.930 . S
H698 C714 0.931 . S
C699 H687 0.929 . S
C699 C693 1.390 . S
C699 C696 1.386 . S
C700 C695 1.490 . S
C700 C702 1.395 . S
C700 C703 1.403 . S
H701 C707 0.930 . S
C702 H688 0.930 . S
C702 C700 1.395 . S
C702 C705 1.403 . S
C703 C700 1.403 . S
C703 C704 1.524 . S
C703 C707 1.400 . S
C704 H689 0.960 . S
C704 H690 0.960 . S
C704 H691 0.960 . S
C704 C703 1.524 . S
C705 C702 1.403 . S
C705 C706 1.392 . S
C705 C709 1.495 . S
C706 C705 1.392 . S
C706 C707 1.385 . S
C706 C708 1.478 . S
C707 H701 0.930 . S
C707 C703 1.400 . S
C707 C706 1.385 . S
C708 C706 1.478 . S
C708 C710 1.381 . S
C708 C714 1.383 . S
C709 C705 1.495 . S
C709 H715 0.959 . S
C709 H716 0.961 . S
C709 H717 0.960 . S
C710 C708 1.381 . S
C710 C711 1.394 . S
C710 H718 0.930 . S
C711 C710 1.394 . S
C711 C712 1.383 . S
C711 H719 0.929 . S
C712 C711 1.383 . S
C712 C713 1.377 . S
C713 H697 0.930 . S
C713 C712 1.377 . S
C713 C714 1.379 . S
C714 H698 0.931 . S
C714 C708 1.383 . S
C714 C713 1.379 . S
H715 C709 0.959 . S
H716 C709 0.961 . S
H717 C709 0.960 . S
H718 C710 0.930 . S
H719 C711 0.929 . S
H720 C728 0.929 . S
H721 C730 0.930 . S
H722 C732 0.930 . S
H723 C735 0.929 . S
H724 C738 0.930 . S
H725 C740 0.960 . S
H726 C740 0.960 . S
H727 C740 0.960 . S
C728 H720 0.929 . S
C728 C729 1.377 . S
C728 C730 1.384 . S
C729 C728 1.377 . S
C729 C735 1.390 . S
C730 H721 0.930 . S
C730 C728 1.384 . S
C730 C731 1.372 . S
C731 C730 1.372 . S
C731 C732 1.400 . S
C731 C736 1.490 . S
C732 H722 0.930 . S
C732 C731 1.400 . S
C732 C735 1.386 . S
H733 C749 0.930 . S
H734 C750 0.931 . S
C735 H723 0.929 . S
C735 C729 1.390 . S
C735 C732 1.386 . S
C736 C731 1.490 . S
C736 C738 1.395 . S
C736 C739 1.403 . S
H737 C743 0.930 . S
C738 H724 0.930 . S
C738 C736 1.395 . S
C738 C741 1.403 . S
C739 C736 1.403 . S
C739 C740 1.524 . S
C739 C743 1.400 . S
C740 H725 0.960 . S
C740 H726 0.960 . S
C740 H727 0.960 . S
C740 C739 1.524 . S
C741 C738 1.403 . S
C741 C742 1.392 . S
C741 C745 1.495 . S
C742 C741 1.392 . S
C742 C743 1.385 . S
C742 C744 1.478 . S
C743 H737 0.930 . S
C743 C739 1.400 . S
C743 C742 1.385 . S
C744 C742 1.478 . S
C744 C746 1.381 . S
C744 C750 1.383 . S
C745 C741 1.495 . S
C745 H751 0.959 . S
C745 H752 0.961 . S
C745 H753 0.960 . S
C746 C744 1.381 . S
C746 C747 1.394 . S
C746 H754 0.930 . S
C747 C746 1.394 . S
C747 C748 1.383 . S
C747 H755 0.929 . S
C748 C747 1.383 . S
C748 C749 1.377 . S
C749 H733 0.930 . S
C749 C748 1.377 . S
C749 C750 1.379 . S
C750 H734 0.931 . S
C750 C744 1.383 . S
C750 C749 1.379 . S
H751 C745 0.959 . S
H752 C745 0.961 . S
H753 C745 0.960 . S
H754 C746 0.930 . S
H755 C747 0.929 . S
H756 C764 0.929 . S
H757 C766 0.930 . S
H758 C768 0.930 . S
H759 C771 0.929 . S
H760 C774 0.930 . S
H761 C776 0.960 . S
H762 C776 0.960 . S
H763 C776 0.960 . S
C764 H756 0.929 . S
C764 C765 1.377 . S
C764 C766 1.384 . S
C765 C764 1.377 . S
C765 C771 1.390 . S
C766 H757 0.930 . S
C766 C764 1.384 . S
C766 C767 1.372 . S
C767 C766 1.372 . S
C767 C768 1.400 . S
C767 C772 1.490 . S
C768 H758 0.930 . S
C768 C767 1.400 . S
C768 C771 1.386 . S
H769 C785 0.930 . S
H770 C786 0.931 . S
C771 H759 0.929 . S
C771 C765 1.390 . S
C771 C768 1.386 . S
C772 C767 1.490 . S
C772 C774 1.395 . S
C772 C775 1.403 . S
H773 C779 0.930 . S
C774 H760 0.930 . S
C774 C772 1.395 . S
C774 C777 1.403 . S
C775 C772 1.403 . S
C775 C776 1.524 . S
C775 C779 1.400 . S
C776 H761 0.960 . S
C776 H762 0.960 . S
C776 H763 0.960 . S
C776 C775 1.524 . S
C777 C774 1.403 . S
C777 C778 1.392 . S
C777 C781 1.495 . S
C778 C777 1.392 . S
C778 C779 1.385 . S
C778 C780 1.478 . S
C779 H773 0.930 . S
C779 C775 1.400 . S
C779 C778 1.385 . S
C780 C778 1.478 . S
C780 C782 1.381 . S
C780 C786 1.383 . S
C781 C777 1.495 . S
C781 H787 0.959 . S
C781 H788 0.961 . S
C781 H789 0.960 . S
C782 C780 1.381 . S
C782 C783 1.394 . S
C782 H790 0.930 . S
C783 C782 1.394 . S
C783 C784 1.383 . S
C783 H791 0.929 . S
C784 C783 1.383 . S
C784 C785 1.377 . S
C785 H769 0.930 . S
C785 C784 1.377 . S
C785 C786 1.379 . S
C786 H770 0.931 . S
C786 C780 1.383 . S
C786 C785 1.379 . S
H787 C781 0.959 . S
H788 C781 0.961 . S
H789 C781 0.960 . S
H790 C782 0.930 . S
H791 C783 0.929 . S
H792 C800 0.929 . S
H793 C802 0.930 . S
H794 C804 0.930 . S
H795 C807 0.929 . S
H796 C810 0.930 . S
H797 C812 0.960 1_556 S
H798 C812 0.960 1_556 S
H799 C812 0.960 . S
C800 H792 0.929 . S
C800 C801 1.377 . S
C800 C802 1.384 . S
C801 C800 1.377 . S
C801 C807 1.390 . S
C802 H793 0.930 . S
C802 C800 1.384 . S
C802 C803 1.372 . S
C803 C802 1.372 . S
C803 C804 1.400 . S
C803 C808 1.490 . S
C804 H794 0.930 . S
C804 C803 1.400 . S
C804 C807 1.386 . S
H805 C821 0.930 . S
H806 C822 0.931 . S
C807 H795 0.929 . S
C807 C801 1.390 . S
C807 C804 1.386 . S
C808 C803 1.490 . S
C808 C810 1.395 . S
C808 C811 1.403 . S
H809 C815 0.930 . S
C810 H796 0.930 . S
C810 C808 1.395 . S
C810 C813 1.403 . S
C811 C808 1.403 . S
C811 C812 1.524 . S
C811 C815 1.400 . S
C812 H797 0.960 1_554 S
C812 H798 0.960 1_554 S
C812 H799 0.960 . S
C812 C811 1.524 . S
C813 C810 1.403 . S
C813 C814 1.392 . S
C813 C817 1.495 . S
C814 C813 1.392 . S
C814 C815 1.385 . S
C814 C816 1.478 . S
C815 H809 0.930 . S
C815 C811 1.400 . S
C815 C814 1.385 . S
C816 C814 1.478 . S
C816 C818 1.381 . S
C816 C822 1.383 . S
C817 C813 1.495 . S
C817 H823 0.959 . S
C817 H824 0.961 . S
C817 H825 0.960 . S
C818 C816 1.381 . S
C818 C819 1.394 . S
C818 H826 0.930 . S
C819 C818 1.394 . S
C819 C820 1.383 . S
C819 H827 0.929 . S
C820 C819 1.383 . S
C820 C821 1.377 . S
C821 H805 0.930 . S
C821 C820 1.377 . S
C821 C822 1.379 . S
C822 H806 0.931 . S
C822 C816 1.383 . S
C822 C821 1.379 . S
H823 C817 0.959 . S
H824 C817 0.961 . S
H825 C817 0.960 . S
H826 C818 0.930 . S
H827 C819 0.929 . S
H828 C836 0.929 . S
H829 C838 0.930 . S
H830 C840 0.930 . S
H831 C843 0.929 . S
H832 C846 0.930 . S
H833 C848 0.960 . S
H834 C848 0.960 . S
H835 C848 0.960 . S
C836 H828 0.929 . S
C836 C837 1.377 . S
C836 C838 1.384 . S
C837 C836 1.377 . S
C837 C843 1.390 . S
C838 H829 0.930 . S
C838 C836 1.384 . S
C838 C839 1.372 . S
C839 C838 1.372 . S
C839 C840 1.400 . S
C839 C844 1.490 . S
C840 H830 0.930 . S
C840 C839 1.400 . S
C840 C843 1.386 . S
H841 C857 0.930 . S
H842 C858 0.931 . S
C843 H831 0.929 . S
C843 C837 1.390 . S
C843 C840 1.386 . S
C844 C839 1.490 . S
C844 C846 1.395 . S
C844 C847 1.403 . S
H845 C851 0.930 . S
C846 H832 0.930 . S
C846 C844 1.395 . S
C846 C849 1.403 . S
C847 C844 1.403 . S
C847 C848 1.524 . S
C847 C851 1.400 . S
C848 H833 0.960 . S
C848 H834 0.960 . S
C848 H835 0.960 . S
C848 C847 1.524 . S
C849 C846 1.403 . S
C849 C850 1.392 . S
C849 C853 1.495 . S
C850 C849 1.392 . S
C850 C851 1.385 . S
C850 C852 1.478 . S
C851 H845 0.930 . S
C851 C847 1.400 . S
C851 C850 1.385 . S
C852 C850 1.478 . S
C852 C854 1.381 . S
C852 C858 1.383 . S
C853 C849 1.495 . S
C853 H859 0.959 . S
C853 H860 0.961 . S
C853 H861 0.960 . S
C854 C852 1.381 . S
C854 C855 1.394 . S
C854 H862 0.930 . S
C855 C854 1.394 . S
C855 C856 1.383 . S
C855 H863 0.929 . S
C856 C855 1.383 . S
C856 C857 1.377 . S
C857 H841 0.930 . S
C857 C856 1.377 . S
C857 C858 1.379 . S
C858 H842 0.931 . S
C858 C852 1.383 . S
C858 C857 1.379 . S
H859 C853 0.959 . S
H860 C853 0.961 . S
H861 C853 0.960 . S
H862 C854 0.930 . S
H863 C855 0.929 . S
H864 C872 0.929 . S
H865 C874 0.930 . S
H866 C876 0.930 . S
H867 C879 0.929 . S
H868 C882 0.930 . S
H869 C884 0.960 . S
H870 C884 0.960 . S
H871 C884 0.960 . S
C872 H864 0.929 . S
C872 C873 1.377 . S
C872 C874 1.384 . S
C873 C872 1.377 . S
C873 C879 1.390 . S
C874 H865 0.930 . S
C874 C872 1.384 . S
C874 C875 1.372 . S
C875 C874 1.372 . S
C875 C876 1.400 . S
C875 C880 1.490 . S
C876 H866 0.930 . S
C876 C875 1.400 . S
C876 C879 1.386 . S
H877 C893 0.930 . S
H878 C894 0.931 . S
C879 H867 0.929 . S
C879 C873 1.390 . S
C879 C876 1.386 . S
C880 C875 1.490 . S
C880 C882 1.395 . S
C880 C883 1.403 . S
H881 C887 0.930 . S
C882 H868 0.930 . S
C882 C880 1.395 . S
C882 C885 1.403 . S
C883 C880 1.403 . S
C883 C884 1.524 . S
C883 C887 1.400 . S
C884 H869 0.960 . S
C884 H870 0.960 . S
C884 H871 0.960 . S
C884 C883 1.524 . S
C885 C882 1.403 . S
C885 C886 1.392 . S
C885 C889 1.495 . S
C886 C885 1.392 . S
C886 C887 1.385 . S
C886 C888 1.478 . S
C887 H881 0.930 . S
C887 C883 1.400 . S
C887 C886 1.385 . S
C888 C886 1.478 . S
C888 C890 1.381 . S
C888 C894 1.383 . S
C889 C885 1.495 . S
C889 H895 0.959 . S
C889 H896 0.961 . S
C889 H897 0.960 . S
C890 C888 1.381 . S
C890 C891 1.394 . S
C890 H898 0.930 . S
C891 C890 1.394 . S
C891 C892 1.383 . S
C891 H899 0.929 . S
C892 C891 1.383 . S
C892 C893 1.377 . S
C893 H877 0.930 . S
C893 C892 1.377 . S
C893 C894 1.379 . S
C894 H878 0.931 . S
C894 C888 1.383 . S
C894 C893 1.379 . S
H895 C889 0.959 . S
H896 C889 0.961 . S
H897 C889 0.960 . S
H898 C890 0.930 . S
H899 C891 0.929 . S
H900 C908 0.929 . S
H901 C910 0.930 . S
H902 C912 0.930 . S
H903 C915 0.929 . S
H904 C918 0.930 . S
H905 C920 0.960 . S
H906 C920 0.960 . S
H907 C920 0.960 . S
C908 H900 0.929 . S
C908 C909 1.377 . S
C908 C910 1.384 . S
C909 C908 1.377 . S
C909 C915 1.390 . S
C910 H901 0.930 . S
C910 C908 1.384 . S
C910 C911 1.372 . S
C911 C910 1.372 . S
C911 C912 1.400 . S
C911 C916 1.490 . S
C912 H902 0.930 . S
C912 C911 1.400 . S
C912 C915 1.386 . S
H913 C929 0.930 . S
H914 C930 0.931 . S
C915 H903 0.929 . S
C915 C909 1.390 . S
C915 C912 1.386 . S
C916 C911 1.490 . S
C916 C918 1.395 1_655 S
C916 C919 1.403 . S
H917 C923 0.930 . S
C918 H904 0.930 . S
C918 C916 1.395 1_455 S
C918 C921 1.403 . S
C919 C916 1.403 . S
C919 C920 1.524 . S
C919 C923 1.400 . S
C920 H905 0.960 . S
C920 H906 0.960 . S
C920 H907 0.960 . S
C920 C919 1.524 . S
C921 C918 1.403 . S
C921 C922 1.392 . S
C921 C925 1.495 . S
C922 C921 1.392 . S
C922 C923 1.385 1_455 S
C922 C924 1.478 . S
C923 H917 0.930 . S
C923 C919 1.400 . S
C923 C922 1.385 1_655 S
C924 C922 1.478 . S
C924 C926 1.381 . S
C924 C930 1.383 . S
C925 C921 1.495 . S
C925 H931 0.959 . S
C925 H932 0.961 . S
C925 H933 0.960 . S
C926 C924 1.381 . S
C926 C927 1.394 . S
C926 H934 0.930 . S
C927 C926 1.394 . S
C927 C928 1.383 . S
C927 H935 0.929 . S
C928 C927 1.383 . S
C928 C929 1.377 . S
C929 H913 0.930 . S
C929 C928 1.377 . S
C929 C930 1.379 . S
C930 H914 0.931 . S
C930 C924 1.383 . S
C930 C929 1.379 . S
H931 C925 0.959 . S
H932 C925 0.961 . S
H933 C925 0.960 . S
H934 C926 0.930 . S
H935 C927 0.929 . S
H936 C944 0.929 . S
H937 C946 0.930 . S
H938 C948 0.930 . S
H939 C951 0.929 . S
H940 C954 0.930 . S
H941 C956 0.960 1_556 S
H942 C956 0.961 . S
H943 C956 0.960 . S
C944 H936 0.929 . S
C944 C945 1.377 . S
C944 C946 1.384 . S
C945 C944 1.377 . S
C945 C951 1.390 . S
C946 H937 0.930 . S
C946 C944 1.384 . S
C946 C947 1.372 . S
C947 C946 1.372 . S
C947 C948 1.400 . S
C947 C952 1.490 . S
C948 H938 0.930 . S
C948 C947 1.400 . S
C948 C951 1.386 . S
H949 C965 0.930 . S
H950 C966 0.931 . S
C951 H939 0.929 . S
C951 C945 1.390 . S
C951 C948 1.386 . S
C952 C947 1.490 . S
C952 C954 1.395 . S
C952 C955 1.403 . S
H953 C959 0.930 . S
C954 H940 0.930 . S
C954 C952 1.395 . S
C954 C957 1.403 1_564 S
C955 C952 1.403 . S
C955 C956 1.524 . S
C955 C959 1.400 1_564 S
C956 H941 0.960 1_554 S
C956 H942 0.961 . S
C956 H943 0.960 . S
C956 C955 1.524 . S
C957 C954 1.403 1_546 S
C957 C958 1.392 . S
C957 C961 1.495 . S
C958 C957 1.392 . S
C958 C959 1.385 . S
C958 C960 1.478 . S
C959 H953 0.930 . S
C959 C955 1.400 1_546 S
C959 C958 1.385 . S
C960 C958 1.478 . S
C960 C962 1.381 . S
C960 C966 1.383 . S
C961 C957 1.495 . S
C961 H967 0.959 1_556 S
C961 H968 0.961 . S
C961 H969 0.960 . S
C962 C960 1.381 . S
C962 C963 1.394 . S
C962 H970 0.930 . S
C963 C962 1.394 . S
C963 C964 1.383 . S
C963 H971 0.929 . S
C964 C963 1.383 . S
C964 C965 1.377 . S
C965 H949 0.930 . S
C965 C964 1.377 . S
C965 C966 1.379 . S
C966 H950 0.931 . S
C966 C960 1.383 . S
C966 C965 1.379 . S
H967 C961 0.959 1_554 S
H968 C961 0.961 . S
H969 C961 0.960 . S
H970 C962 0.930 . S
H971 C963 0.929 . S
H972 C980 0.929 . S
H973 C982 0.930 . S
H974 C984 0.930 . S
H975 C987 0.929 . S
H976 C990 0.930 . S
H977 C992 0.960 . S
H978 C992 0.960 . S
H979 C992 0.960 . S
C980 H972 0.929 . S
C980 C981 1.377 . S
C980 C982 1.384 . S
C981 C980 1.377 . S
C981 C987 1.390 . S
C982 H973 0.930 . S
C982 C980 1.384 . S
C982 C983 1.372 . S
C983 C982 1.372 . S
C983 C984 1.400 . S
C983 C988 1.490 . S
C984 H974 0.930 . S
C984 C983 1.400 . S
C984 C987 1.386 . S
H985 C1001 0.930 . S
H986 C1002 0.931 . S
C987 H975 0.929 . S
C987 C981 1.390 . S
C987 C984 1.386 . S
C988 C983 1.490 . S
C988 C990 1.395 . S
C988 C991 1.403 . S
H989 C995 0.930 . S
C990 H976 0.930 . S
C990 C988 1.395 . S
C990 C993 1.403 . S
C991 C988 1.403 . S
C991 C992 1.524 . S
C991 C995 1.400 . S
C992 H977 0.960 . S
C992 H978 0.960 . S
C992 H979 0.960 . S
C992 C991 1.524 . S
C993 C990 1.403 . S
C993 C994 1.392 . S
C993 C997 1.495 . S
C994 C993 1.392 . S
C994 C995 1.385 . S
C994 C996 1.478 . S
C995 H989 0.930 . S
C995 C991 1.400 . S
C995 C994 1.385 . S
C996 C994 1.478 . S
C996 C998 1.381 . S
C996 C1002 1.383 . S
C997 C993 1.495 . S
C997 H1003 0.959 . S
C997 H1004 0.961 . S
C997 H1005 0.960 . S
C998 C996 1.381 . S
C998 C999 1.394 . S
C998 H1006 0.930 . S
C999 C998 1.394 . S
C999 C1000 1.383 . S
C999 H1007 0.929 . S
C1000 C999 1.383 . S
C1000 C1001 1.377 . S
C1001 H985 0.930 . S
C1001 C1000 1.377 . S
C1001 C1002 1.379 . S
C1002 H986 0.931 . S
C1002 C996 1.383 . S
C1002 C1001 1.379 . S
H1003 C997 0.959 . S
H1004 C997 0.961 . S
H1005 C997 0.960 . S
H1006 C998 0.930 . S
H1007 C999 0.929 . S
H1008 C1016 0.929 . S
H1009 C1018 0.930 . S
H1010 C1020 0.930 . S
H1011 C1023 0.929 . S
H1012 C1026 0.930 . S
H1013 C1028 0.960 . S
H1014 C1028 0.960 . S
H1015 C1028 0.960 . S
C1016 H1008 0.929 . S
C1016 C1017 1.377 . S
C1016 C1018 1.384 . S
C1017 C1016 1.377 . S
C1017 C1023 1.390 . S
C1018 H1009 0.930 . S
C1018 C1016 1.384 . S
C1018 C1019 1.372 . S
C1019 C1018 1.372 . S
C1019 C1020 1.400 . S
C1019 C1024 1.490 . S
C1020 H1010 0.930 . S
C1020 C1019 1.400 . S
C1020 C1023 1.386 . S
H1021 C1037 0.930 . S
H1022 C1038 0.931 . S
C1023 H1011 0.929 . S
C1023 C1017 1.390 . S
C1023 C1020 1.386 . S
C1024 C1019 1.490 . S
C1024 C1026 1.395 . S
C1024 C1027 1.403 1_455 S
H1025 C1031 0.930 . S
C1026 H1012 0.930 . S
C1026 C1024 1.395 . S
C1026 C1029 1.403 . S
C1027 C1024 1.403 1_655 S
C1027 C1028 1.524 . S
C1027 C1031 1.400 . S
C1028 H1013 0.960 . S
C1028 H1014 0.960 . S
C1028 H1015 0.960 . S
C1028 C1027 1.524 . S
C1029 C1026 1.403 . S
C1029 C1030 1.392 1_455 S
C1029 C1033 1.495 . S
C1030 C1029 1.392 1_655 S
C1030 C1031 1.385 . S
C1030 C1032 1.478 . S
C1031 H1025 0.930 . S
C1031 C1027 1.400 . S
C1031 C1030 1.385 . S
C1032 C1030 1.478 . S
C1032 C1034 1.381 . S
C1032 C1038 1.383 . S
C1033 C1029 1.495 . S
C1033 H1039 0.959 . S
C1033 H1040 0.961 . S
C1033 H1041 0.960 . S
C1034 C1032 1.381 . S
C1034 C1035 1.394 . S
C1034 H1042 0.930 . S
C1035 C1034 1.394 . S
C1035 C1036 1.383 . S
C1035 H1043 0.929 . S
C1036 C1035 1.383 . S
C1036 C1037 1.377 . S
C1037 H1021 0.930 . S
C1037 C1036 1.377 . S
C1037 C1038 1.379 . S
C1038 H1022 0.931 . S
C1038 C1032 1.383 . S
C1038 C1037 1.379 . S
H1039 C1033 0.959 . S
H1040 C1033 0.961 . S
H1041 C1033 0.960 . S
H1042 C1034 0.930 . S
H1043 C1035 0.929 . S
H1044 C1052 0.929 . S
H1045 C1054 0.930 . S
H1046 C1056 0.930 . S
H1047 C1059 0.929 . S
H1048 C1062 0.930 . S
H1049 C1064 0.960 . S
H1050 C1064 0.960 . S
H1051 C1064 0.960 1_565 S
C1052 H1044 0.929 . S
C1052 C1053 1.377 . S
C1052 C1054 1.384 . S
C1053 C1052 1.377 . S
C1053 C1059 1.390 . S
C1054 H1045 0.930 . S
C1054 C1052 1.384 . S
C1054 C1055 1.372 . S
C1055 C1054 1.372 . S
C1055 C1056 1.400 . S
C1055 C1060 1.490 . S
C1056 H1046 0.930 . S
C1056 C1055 1.400 . S
C1056 C1059 1.386 . S
H1057 C1073 0.930 . S
H1058 C1074 0.931 . S
C1059 H1047 0.929 . S
C1059 C1053 1.390 . S
C1059 C1056 1.386 . S
C1060 C1055 1.490 . S
C1060 C1062 1.395 . S
C1060 C1063 1.403 1_565 S
H1061 C1067 0.930 . S
C1062 H1048 0.930 . S
C1062 C1060 1.395 . S
C1062 C1065 1.403 . S
C1063 C1060 1.403 1_545 S
C1063 C1064 1.524 . S
C1063 C1067 1.400 . S
C1064 H1049 0.960 . S
C1064 H1050 0.960 . S
C1064 H1051 0.960 1_545 S
C1064 C1063 1.524 . S
C1065 C1062 1.403 . S
C1065 C1066 1.392 1_565 S
C1065 C1069 1.495 . S
C1066 C1065 1.392 1_545 S
C1066 C1067 1.385 . S
C1066 C1068 1.478 . S
C1067 H1061 0.930 . S
C1067 C1063 1.400 . S
C1067 C1066 1.385 . S
C1068 C1066 1.478 . S
C1068 C1070 1.381 . S
C1068 C1074 1.383 . S
C1069 C1065 1.495 . S
C1069 H1075 0.959 . S
C1069 H1076 0.961 . S
C1069 H1077 0.960 1_565 S
C1070 C1068 1.381 . S
C1070 C1071 1.394 . S
C1070 H1078 0.930 . S
C1071 C1070 1.394 . S
C1071 C1072 1.383 . S
C1071 H1079 0.929 . S
C1072 C1071 1.383 . S
C1072 C1073 1.377 . S
C1073 H1057 0.930 . S
C1073 C1072 1.377 . S
C1073 C1074 1.379 . S
C1074 H1058 0.931 . S
C1074 C1068 1.383 . S
C1074 C1073 1.379 . S
H1075 C1069 0.959 . S
H1076 C1069 0.961 . S
H1077 C1069 0.960 1_545 S
H1078 C1070 0.930 . S
H1079 C1071 0.929 . S
H1080 C1088 0.929 . S
H1081 C1090 0.930 . S
H1082 C1092 0.930 . S
H1083 C1095 0.929 . S
H1084 C1098 0.930 . S
H1085 C1100 0.960 . S
H1086 C1100 0.960 . S
H1087 C1100 0.960 . S
C1088 H1080 0.929 . S
C1088 C1089 1.377 . S
C1088 C1090 1.384 . S
C1089 C1088 1.377 . S
C1089 C1095 1.390 . S
C1090 H1081 0.930 . S
C1090 C1088 1.384 . S
C1090 C1091 1.372 . S
C1091 C1090 1.372 . S
C1091 C1092 1.400 . S
C1091 C1096 1.490 . S
C1092 H1082 0.930 . S
C1092 C1091 1.400 . S
C1092 C1095 1.386 . S
H1093 C1109 0.930 . S
H1094 C1110 0.931 . S
C1095 H1083 0.929 . S
C1095 C1089 1.390 . S
C1095 C1092 1.386 . S
C1096 C1091 1.490 . S
C1096 C1098 1.395 . S
C1096 C1099 1.403 . S
H1097 C1103 0.930 . S
C1098 H1084 0.930 . S
C1098 C1096 1.395 . S
C1098 C1101 1.403 . S
C1099 C1096 1.403 . S
C1099 C1100 1.524 . S
C1099 C1103 1.400 . S
C1100 H1085 0.960 . S
C1100 H1086 0.960 . S
C1100 H1087 0.960 . S
C1100 C1099 1.524 . S
C1101 C1098 1.403 . S
C1101 C1102 1.392 . S
C1101 C1105 1.495 . S
C1102 C1101 1.392 . S
C1102 C1103 1.385 . S
C1102 C1104 1.478 . S
C1103 H1097 0.930 . S
C1103 C1099 1.400 . S
C1103 C1102 1.385 . S
C1104 C1102 1.478 . S
C1104 C1106 1.381 . S
C1104 C1110 1.383 . S
C1105 C1101 1.495 . S
C1105 H1111 0.959 . S
C1105 H1112 0.961 . S
C1105 H1113 0.960 . S
C1106 C1104 1.381 . S
C1106 C1107 1.394 . S
C1106 H1114 0.930 . S
C1107 C1106 1.394 . S
C1107 C1108 1.383 . S
C1107 H1115 0.929 . S
C1108 C1107 1.383 . S
C1108 C1109 1.377 . S
C1109 H1093 0.930 . S
C1109 C1108 1.377 . S
C1109 C1110 1.379 . S
C1110 H1094 0.931 . S
C1110 C1104 1.383 . S
C1110 C1109 1.379 . S
H1111 C1105 0.959 . S
H1112 C1105 0.961 . S
H1113 C1105 0.960 . S
H1114 C1106 0.930 . S
H1115 C1107 0.929 . S
H1116 C1124 0.929 . S
H1117 C1126 0.930 . S
H1118 C1128 0.930 . S
H1119 C1131 0.929 . S
H1120 C1134 0.930 . S
H1121 C1136 0.960 . S
H1122 C1136 0.960 . S
H1123 C1136 0.960 . S
C1124 H1116 0.929 . S
C1124 C1125 1.377 . S
C1124 C1126 1.384 . S
C1125 C1124 1.377 . S
C1125 C1131 1.390 . S
C1126 H1117 0.930 . S
C1126 C1124 1.384 . S
C1126 C1127 1.372 . S
C1127 C1126 1.372 . S
C1127 C1128 1.400 . S
C1127 C1132 1.490 . S
C1128 H1118 0.930 . S
C1128 C1127 1.400 . S
C1128 C1131 1.386 . S
H1129 C1145 0.930 . S
H1130 C1146 0.931 . S
C1131 H1119 0.929 . S
C1131 C1125 1.390 . S
C1131 C1128 1.386 . S
C1132 C1127 1.490 . S
C1132 C1134 1.395 . S
C1132 C1135 1.403 . S
H1133 C1139 0.930 . S
C1134 H1120 0.930 . S
C1134 C1132 1.395 . S
C1134 C1137 1.403 . S
C1135 C1132 1.403 . S
C1135 C1136 1.524 . S
C1135 C1139 1.400 . S
C1136 H1121 0.960 . S
C1136 H1122 0.960 . S
C1136 H1123 0.960 . S
C1136 C1135 1.524 . S
C1137 C1134 1.403 . S
C1137 C1138 1.392 . S
C1137 C1141 1.495 . S
C1138 C1137 1.392 . S
C1138 C1139 1.385 . S
C1138 C1140 1.478 . S
C1139 H1133 0.930 . S
C1139 C1135 1.400 . S
C1139 C1138 1.385 . S
C1140 C1138 1.478 . S
C1140 C1142 1.381 . S
C1140 C1146 1.383 . S
C1141 C1137 1.495 . S
C1141 H1147 0.959 . S
C1141 H1148 0.961 . S
C1141 H1149 0.960 . S
C1142 C1140 1.381 . S
C1142 C1143 1.394 . S
C1142 H1150 0.930 . S
C1143 C1142 1.394 . S
C1143 C1144 1.383 . S
C1143 H1151 0.929 . S
C1144 C1143 1.383 . S
C1144 C1145 1.377 . S
C1145 H1129 0.930 . S
C1145 C1144 1.377 . S
C1145 C1146 1.379 . S
C1146 H1130 0.931 . S
C1146 C1140 1.383 . S
C1146 C1145 1.379 . S
H1147 C1141 0.959 . S
H1148 C1141 0.961 . S
H1149 C1141 0.960 . S
H1150 C1142 0.930 . S
H1151 C1143 0.929 . S
H1152 C1160 0.929 . S
H1153 C1162 0.930 . S
H1154 C1164 0.930 . S
H1155 C1167 0.929 . S
H1156 C1170 0.930 . S
H1157 C1172 0.960 1_554 S
H1158 C1172 0.960 1_554 S
H1159 C1172 0.958 1_554 S
C1160 H1152 0.929 . S
C1160 C1161 1.377 1_556 S
C1160 C1162 1.384 . S
C1161 C1160 1.377 1_554 S
C1161 C1167 1.390 . S
C1162 H1153 0.930 . S
C1162 C1160 1.384 . S
C1162 C1163 1.372 . S
C1163 C1162 1.372 . S
C1163 C1164 1.400 1_556 S
C1163 C1168 1.490 . S
C1164 H1154 0.930 . S
C1164 C1163 1.400 1_554 S
C1164 C1167 1.386 . S
H1165 C1181 0.930 . S
H1166 C1182 0.931 . S
C1167 H1155 0.929 . S
C1167 C1161 1.390 . S
C1167 C1164 1.386 . S
C1168 C1163 1.490 . S
C1168 C1170 1.395 . S
C1168 C1171 1.403 . S
H1169 C1175 0.930 . S
C1170 H1156 0.930 . S
C1170 C1168 1.395 . S
C1170 C1173 1.403 . S
C1171 C1168 1.403 . S
C1171 C1172 1.526 . S
C1171 C1175 1.400 . S
C1172 H1157 0.960 1_556 S
C1172 H1158 0.960 1_556 S
C1172 H1159 0.958 1_556 S
C1172 C1171 1.526 . S
C1173 C1170 1.403 . S
C1173 C1174 1.392 . S
C1173 C1177 1.495 . S
C1174 C1173 1.392 . S
C1174 C1175 1.385 . S
C1174 C1176 1.478 . S
C1175 H1169 0.930 . S
C1175 C1171 1.400 . S
C1175 C1174 1.385 . S
C1176 C1174 1.478 . S
C1176 C1178 1.381 . S
C1176 C1182 1.383 . S
C1177 C1173 1.495 . S
C1177 H1183 0.959 . S
C1177 H1184 0.961 . S
C1177 H1185 0.960 . S
C1178 C1176 1.381 . S
C1178 C1179 1.394 . S
C1178 H1186 0.930 . S
C1179 C1178 1.394 . S
C1179 C1180 1.383 . S
C1179 H1187 0.929 . S
C1180 C1179 1.383 . S
C1180 C1181 1.377 . S
C1181 H1165 0.930 . S
C1181 C1180 1.377 . S
C1181 C1182 1.379 . S
C1182 H1166 0.931 . S
C1182 C1176 1.383 . S
C1182 C1181 1.379 . S
H1183 C1177 0.959 . S
H1184 C1177 0.961 . S
H1185 C1177 0.960 . S
H1186 C1178 0.930 . S
H1187 C1179 0.929 . S
H1188 C1196 0.929 . S
H1189 C1198 0.930 . S
H1190 C1200 0.930 . S
H1191 C1203 0.929 . S
H1192 C1206 0.930 . S
H1193 C1208 0.960 . S
H1194 C1208 0.960 . S
H1195 C1208 0.960 . S
C1196 H1188 0.929 . S
C1196 C1197 1.377 . S
C1196 C1198 1.384 . S
C1197 C1196 1.377 . S
C1197 C1203 1.390 . S
C1198 H1189 0.930 . S
C1198 C1196 1.384 . S
C1198 C1199 1.372 . S
C1199 C1198 1.372 . S
C1199 C1200 1.400 . S
C1199 C1204 1.490 . S
C1200 H1190 0.930 . S
C1200 C1199 1.400 . S
C1200 C1203 1.386 . S
H1201 C1217 0.930 . S
H1202 C1218 0.931 . S
C1203 H1191 0.929 . S
C1203 C1197 1.390 . S
C1203 C1200 1.386 . S
C1204 C1199 1.490 . S
C1204 C1206 1.395 . S
C1204 C1207 1.403 . S
H1205 C1211 0.930 . S
C1206 H1192 0.930 . S
C1206 C1204 1.395 . S
C1206 C1209 1.403 . S
C1207 C1204 1.403 . S
C1207 C1208 1.524 . S
C1207 C1211 1.400 . S
C1208 H1193 0.960 . S
C1208 H1194 0.960 . S
C1208 H1195 0.960 . S
C1208 C1207 1.524 . S
C1209 C1206 1.403 . S
C1209 C1210 1.392 . S
C1209 C1213 1.495 . S
C1210 C1209 1.392 . S
C1210 C1211 1.385 . S
C1210 C1212 1.478 . S
C1211 H1205 0.930 . S
C1211 C1207 1.400 . S
C1211 C1210 1.385 . S
C1212 C1210 1.478 . S
C1212 C1214 1.381 . S
C1212 C1218 1.383 1_554 S
C1213 C1209 1.495 . S
C1213 H1219 0.959 . S
C1213 H1220 0.961 . S
C1213 H1221 0.960 . S
C1214 C1212 1.381 . S
C1214 C1215 1.394 . S
C1214 H1222 0.930 . S
C1215 C1214 1.394 . S
C1215 C1216 1.383 1_554 S
C1215 H1223 0.929 . S
C1216 C1215 1.383 1_556 S
C1216 C1217 1.377 . S
C1217 H1201 0.930 . S
C1217 C1216 1.377 . S
C1217 C1218 1.379 . S
C1218 H1202 0.931 . S
C1218 C1212 1.383 1_556 S
C1218 C1217 1.379 . S
H1219 C1213 0.959 . S
H1220 C1213 0.961 . S
H1221 C1213 0.960 . S
H1222 C1214 0.930 . S
H1223 C1215 0.929 . S
H1224 C1232 0.929 . S
H1225 C1234 0.930 . S
H1226 C1236 0.930 . S
H1227 C1239 0.929 . S
H1228 C1242 0.930 . S
H1229 C1244 0.960 . S
H1230 C1244 0.960 . S
H1231 C1244 0.960 . S
C1232 H1224 0.929 . S
C1232 C1233 1.377 . S
C1232 C1234 1.384 . S
C1233 C1232 1.377 . S
C1233 C1239 1.390 . S
C1234 H1225 0.930 . S
C1234 C1232 1.384 . S
C1234 C1235 1.372 . S
C1235 C1234 1.372 . S
C1235 C1236 1.400 . S
C1235 C1240 1.490 . S
C1236 H1226 0.930 . S
C1236 C1235 1.400 . S
C1236 C1239 1.386 . S
H1237 C1253 0.930 . S
H1238 C1254 0.931 . S
C1239 H1227 0.929 . S
C1239 C1233 1.390 . S
C1239 C1236 1.386 . S
C1240 C1235 1.490 . S
C1240 C1242 1.395 . S
C1240 C1243 1.403 . S
H1241 C1247 0.930 . S
C1242 H1228 0.930 . S
C1242 C1240 1.395 . S
C1242 C1245 1.403 . S
C1243 C1240 1.403 . S
C1243 C1244 1.524 . S
C1243 C1247 1.400 . S
C1244 H1229 0.960 . S
C1244 H1230 0.960 . S
C1244 H1231 0.960 . S
C1244 C1243 1.524 . S
C1245 C1242 1.403 . S
C1245 C1246 1.392 . S
C1245 C1249 1.495 . S
C1246 C1245 1.392 . S
C1246 C1247 1.385 . S
C1246 C1248 1.478 . S
C1247 H1241 0.930 . S
C1247 C1243 1.400 . S
C1247 C1246 1.385 . S
C1248 C1246 1.478 . S
C1248 C1250 1.381 . S
C1248 C1254 1.383 . S
C1249 C1245 1.495 . S
C1249 H1255 0.959 . S
C1249 H1256 0.961 . S
C1249 H1257 0.960 . S
C1250 C1248 1.381 . S
C1250 C1251 1.394 . S
C1250 H1258 0.930 . S
C1251 C1250 1.394 . S
C1251 C1252 1.383 . S
C1251 H1259 0.929 . S
C1252 C1251 1.383 . S
C1252 C1253 1.377 . S
C1253 H1237 0.930 . S
C1253 C1252 1.377 . S
C1253 C1254 1.379 . S
C1254 H1238 0.931 . S
C1254 C1248 1.383 . S
C1254 C1253 1.379 . S
H1255 C1249 0.959 . S
H1256 C1249 0.961 . S
H1257 C1249 0.960 . S
H1258 C1250 0.930 . S
H1259 C1251 0.929 . S
H1260 C1268 0.929 . S
H1261 C1270 0.930 . S
H1262 C1272 0.930 . S
H1263 C1275 0.929 . S
H1264 C1278 0.930 . S
H1265 C1280 0.960 . S
H1266 C1280 0.960 . S
H1267 C1280 0.960 . S
C1268 H1260 0.929 . S
C1268 C1269 1.377 . S
C1268 C1270 1.384 . S
C1269 C1268 1.377 . S
C1269 C1275 1.390 . S
C1270 H1261 0.930 . S
C1270 C1268 1.384 . S
C1270 C1271 1.372 . S
C1271 C1270 1.372 . S
C1271 C1272 1.400 . S
C1271 C1276 1.490 . S
C1272 H1262 0.930 . S
C1272 C1271 1.400 . S
C1272 C1275 1.386 . S
H1273 C1289 0.930 . S
H1274 C1290 0.931 . S
C1275 H1263 0.929 . S
C1275 C1269 1.390 . S
C1275 C1272 1.386 . S
C1276 C1271 1.490 . S
C1276 C1278 1.395 . S
C1276 C1279 1.403 . S
H1277 C1283 0.930 . S
C1278 H1264 0.930 . S
C1278 C1276 1.395 . S
C1278 C1281 1.403 . S
C1279 C1276 1.403 . S
C1279 C1280 1.524 . S
C1279 C1283 1.400 . S
C1280 H1265 0.960 . S
C1280 H1266 0.960 . S
C1280 H1267 0.960 . S
C1280 C1279 1.524 . S
C1281 C1278 1.403 . S
C1281 C1282 1.392 . S
C1281 C1285 1.495 . S
C1282 C1281 1.392 . S
C1282 C1283 1.385 . S
C1282 C1284 1.478 . S
C1283 H1277 0.930 . S
C1283 C1279 1.400 . S
C1283 C1282 1.385 . S
C1284 C1282 1.478 . S
C1284 C1286 1.381 . S
C1284 C1290 1.383 . S
C1285 C1281 1.495 . S
C1285 H1291 0.959 . S
C1285 H1292 0.961 . S
C1285 H1293 0.960 . S
C1286 C1284 1.381 . S
C1286 C1287 1.394 . S
C1286 H1294 0.930 . S
C1287 C1286 1.394 . S
C1287 C1288 1.383 . S
C1287 H1295 0.929 . S
C1288 C1287 1.383 . S
C1288 C1289 1.377 . S
C1289 H1273 0.930 . S
C1289 C1288 1.377 . S
C1289 C1290 1.379 . S
C1290 H1274 0.931 . S
C1290 C1284 1.383 . S
C1290 C1289 1.379 . S
H1291 C1285 0.959 . S
H1292 C1285 0.961 . S
H1293 C1285 0.960 . S
H1294 C1286 0.930 . S
H1295 C1287 0.929 . S
C441 C328 1.461 1_554 S
C460 C4 1.442 . S
C477 C40 1.462 . S
C496 C364 1.448 . S
C513 C400 1.463 . S
C532 C76 1.453 . S
C549 C220 1.462 . S
C568 C112 1.463 . S
C585 C256 1.460 . S
C604 C148 1.440 1_556 S
C621 C292 1.468 . S
C640 C184 1.479 . S
C657 C230 1.351 . S
C676 C14 1.319 . S
C693 C50 1.337 . S
C712 C266 1.379 . S
C729 C302 1.350 . S
C748 C86 1.334 . S
C765 C122 1.340 . S
C784 C338 1.312 . S
C801 C374 1.346 . S
C820 C158 1.358 . S
C837 C194 1.350 . S
C856 C410 1.326 . S
C873 C326 1.284 . S
C892 C2 1.284 . S
C909 C362 1.284 1_556 S
C928 C38 1.284 . S
C945 C398 1.285 . S
C964 C74 1.280 . S
C981 C110 1.285 1_554 S
C1000 C218 1.282 . S
C1017 C254 1.285 . S
C1036 C146 1.279 . S
C1053 C182 1.284 . S
C1072 C290 1.283 . S
C1089 C3 1.096 . S
C1108 C291 1.088 . S
C1125 C327 1.098 . S
C1144 C39 1.085 . S
C1161 C363 1.098 . S
C1180 C75 1.106 . S
C1197 C399 1.101 . S
C1216 C111 1.100 . S
C1233 C219 1.097 . S
C1252 C147 1.086 . S
C1269 C255 1.100 . S
C1288 C183 1.096 . S
