# Generated by pormake.
# Topology fnd, (5)-cn, num edge types: 1
# Building blocks:
#     Node 0, Type 0, BuildingBlock: BEQFEK_clean_sbu_0, # of connection points: 5
#     Node 1, Type 0, BuildingBlock: BEQFEK_clean_sbu_0, # of connection points: 5
#     Node 2, Type 0, BuildingBlock: BEQFEK_clean_sbu_0, # of connection points: 5
#     Node 3, Type 0, BuildingBlock: BEQFEK_clean_sbu_0, # of connection points: 5
#     Node 4, Type 0, BuildingBlock: BEQFEK_clean_sbu_0, # of connection points: 5
#     Node 5, Type 0, BuildingBlock: BEQFEK_clean_sbu_0, # of connection points: 5
#     Node 6, Type 0, BuildingBlock: BEQFEK_clean_sbu_0, # of connection points: 5
#     Node 7, Type 0, BuildingBlock: BEQFEK_clean_sbu_0, # of connection points: 5
#     Node 8, Type 0, BuildingBlock: BEQFEK_clean_sbu_0, # of connection points: 5
#     Node 9, Type 0, BuildingBlock: BEQFEK_clean_sbu_0, # of connection points: 5
#     Node 10, Type 0, BuildingBlock: BEQFEK_clean_sbu_0, # of connection points: 5
#     Node 11, Type 0, BuildingBlock: BEQFEK_clean_sbu_0, # of connection points: 5
#     Node 12, Type 0, BuildingBlock: BEQFEK_clean_sbu_0, # of connection points: 5
#     Node 13, Type 0, BuildingBlock: BEQFEK_clean_sbu_0, # of connection points: 5
#     Node 14, Type 0, BuildingBlock: BEQFEK_clean_sbu_0, # of connection points: 5
#     Node 15, Type 0, BuildingBlock: BEQFEK_clean_sbu_0, # of connection points: 5
#     Node 16, Type 0, BuildingBlock: BEQFEK_clean_sbu_0, # of connection points: 5
#     Node 17, Type 0, BuildingBlock: BEQFEK_clean_sbu_0, # of connection points: 5
#     Edge 18, Type (0, 0), BuildingBlock: KIFKEQ_clean_linker_1, # of connection points: 2
#     Edge 19, Type (0, 0), BuildingBlock: KIFKEQ_clean_linker_1, # of connection points: 2
#     Edge 20, Type (0, 0), BuildingBlock: KIFKEQ_clean_linker_1, # of connection points: 2
#     Edge 21, Type (0, 0), BuildingBlock: KIFKEQ_clean_linker_1, # of connection points: 2
#     Edge 22, Type (0, 0), BuildingBlock: KIFKEQ_clean_linker_1, # of connection points: 2
#     Edge 23, Type (0, 0), BuildingBlock: KIFKEQ_clean_linker_1, # of connection points: 2
#     Edge 24, Type (0, 0), BuildingBlock: KIFKEQ_clean_linker_1, # of connection points: 2
#     Edge 25, Type (0, 0), BuildingBlock: KIFKEQ_clean_linker_1, # of connection points: 2
#     Edge 26, Type (0, 0), BuildingBlock: KIFKEQ_clean_linker_1, # of connection points: 2
#     Edge 27, Type (0, 0), BuildingBlock: KIFKEQ_clean_linker_1, # of connection points: 2
#     Edge 28, Type (0, 0), BuildingBlock: KIFKEQ_clean_linker_1, # of connection points: 2
#     Edge 29, Type (0, 0), BuildingBlock: KIFKEQ_clean_linker_1, # of connection points: 2
#     Edge 30, Type (0, 0), BuildingBlock: KIFKEQ_clean_linker_1, # of connection points: 2
#     Edge 31, Type (0, 0), BuildingBlock: KIFKEQ_clean_linker_1, # of connection points: 2
#     Edge 32, Type (0, 0), BuildingBlock: KIFKEQ_clean_linker_1, # of connection points: 2
#     Edge 33, Type (0, 0), BuildingBlock: KIFKEQ_clean_linker_1, # of connection points: 2
#     Edge 34, Type (0, 0), BuildingBlock: KIFKEQ_clean_linker_1, # of connection points: 2
#     Edge 35, Type (0, 0), BuildingBlock: KIFKEQ_clean_linker_1, # of connection points: 2
#     Edge 36, Type (0, 0), BuildingBlock: KIFKEQ_clean_linker_1, # of connection points: 2
#     Edge 37, Type (0, 0), BuildingBlock: KIFKEQ_clean_linker_1, # of connection points: 2
#     Edge 38, Type (0, 0), BuildingBlock: KIFKEQ_clean_linker_1, # of connection points: 2
#     Edge 39, Type (0, 0), BuildingBlock: KIFKEQ_clean_linker_1, # of connection points: 2
#     Edge 40, Type (0, 0), BuildingBlock: KIFKEQ_clean_linker_1, # of connection points: 2
#     Edge 41, Type (0, 0), BuildingBlock: KIFKEQ_clean_linker_1, # of connection points: 2
#     Edge 42, Type (0, 0), BuildingBlock: KIFKEQ_clean_linker_1, # of connection points: 2
#     Edge 43, Type (0, 0), BuildingBlock: KIFKEQ_clean_linker_1, # of connection points: 2
#     Edge 44, Type (0, 0), BuildingBlock: KIFKEQ_clean_linker_1, # of connection points: 2
#     Edge 45, Type (0, 0), BuildingBlock: KIFKEQ_clean_linker_1, # of connection points: 2
#     Edge 46, Type (0, 0), BuildingBlock: KIFKEQ_clean_linker_1, # of connection points: 2
#     Edge 47, Type (0, 0), BuildingBlock: KIFKEQ_clean_linker_1, # of connection points: 2
#     Edge 48, Type (0, 0), BuildingBlock: KIFKEQ_clean_linker_1, # of connection points: 2
#     Edge 49, Type (0, 0), BuildingBlock: KIFKEQ_clean_linker_1, # of connection points: 2
#     Edge 50, Type (0, 0), BuildingBlock: KIFKEQ_clean_linker_1, # of connection points: 2
#     Edge 51, Type (0, 0), BuildingBlock: KIFKEQ_clean_linker_1, # of connection points: 2
#     Edge 52, Type (0, 0), BuildingBlock: KIFKEQ_clean_linker_1, # of connection points: 2
#     Edge 53, Type (0, 0), BuildingBlock: KIFKEQ_clean_linker_1, # of connection points: 2
#     Edge 54, Type (0, 0), BuildingBlock: KIFKEQ_clean_linker_1, # of connection points: 2
#     Edge 55, Type (0, 0), BuildingBlock: KIFKEQ_clean_linker_1, # of connection points: 2
#     Edge 56, Type (0, 0), BuildingBlock: KIFKEQ_clean_linker_1, # of connection points: 2
#     Edge 57, Type (0, 0), BuildingBlock: KIFKEQ_clean_linker_1, # of connection points: 2
#     Edge 58, Type (0, 0), BuildingBlock: KIFKEQ_clean_linker_1, # of connection points: 2
#     Edge 59, Type (0, 0), BuildingBlock: KIFKEQ_clean_linker_1, # of connection points: 2
#     Edge 60, Type (0, 0), BuildingBlock: KIFKEQ_clean_linker_1, # of connection points: 2
#     Edge 61, Type (0, 0), BuildingBlock: KIFKEQ_clean_linker_1, # of connection points: 2
#     Edge 62, Type (0, 0), BuildingBlock: KIFKEQ_clean_linker_1, # of connection points: 2
# Relax obj value: 0.146
# Max RMSD: 0.197
# Mean RMSD: 0.197
data_MOF--net-fnd--node1-BEQFEK_clean_sbu_0--edge1-KIFKEQ_clean_linker_1
_symmetry_space_group_name_H-M    P1
_symmetry_Int_Tables_number       1
_symmetry_cell_setting            triclinic
loop_
_symmetry_equiv_pos_as_xyz
'x, y, z'
_cell_length_a     81.636648
_cell_length_b     81.652841
_cell_length_c     19.491118
_cell_angle_alpha  89.993534
_cell_angle_beta   90.005232
_cell_angle_gamma 119.99094
loop_
_atom_site_label
_atom_site_type_symbol
_atom_site_fract_x
_atom_site_fract_y
_atom_site_fract_z
_atom_type_partial_charge
Co0 Co 0.10805 0.21704 0.52927 0.0
Co1 Co 0.10183 0.20731 0.37254 0.0
C2 C 0.12292 0.19409 0.45936 0.0
O3 O 0.12021 0.2018 0.51156 0.0
O4 O 0.11678 0.19509 0.40018 0.0
C5 C 0.12698 0.22709 0.6607 0.0
O6 O 0.13973 0.22419 0.63084 0.0
C7 C 0.10916 0.2083 0.22299 0.0
C8 C 0.08297 0.20659 0.18329 0.0
C9 C 0.10039 0.20923 0.16326 0.0
N10 N 0.09753 0.20565 0.27605 0.0
N11 N 0.08174 0.20417 0.25163 0.0
C12 C 0.12896 0.212 0.23047 0.0
H13 H 0.13395 0.21599 0.2841 0.0
H14 H 0.13858 0.22334 0.19472 0.0
H15 H 0.12927 0.19894 0.21723 0.0
C16 C 0.12569 0.25613 0.47497 0.0
N17 N 0.11686 0.23724 0.46631 0.0
N18 N 0.11401 0.23327 0.40038 0.0
C19 C 0.12069 0.24961 0.3651 0.0
C20 C 0.12831 0.26456 0.41112 0.0
C21 C 0.13094 0.26572 0.54331 0.0
H22 H 0.11834 0.25946 0.57722 0.0
H23 H 0.14176 0.26316 0.56753 0.0
H24 H 0.13658 0.28117 0.53861 0.0
O25 O 0.08025 0.20101 0.5231 0.0
O26 O 0.0762 0.19325 0.41307 0.0
H27 H 0.10574 0.24244 0.26964 0.0
H28 H 0.12625 0.26581 0.27092 0.0
C29 C 0.12044 0.25103 0.28859 0.0
H30 H 0.12916 0.24551 0.26607 0.0
H31 H 0.07052 0.20256 0.2821 0.0
O32 O 0.11328 0.22584 0.62551 0.0
C33 C 0.06949 0.19221 0.47282 0.0
Co34 Co 0.7803 0.88999 0.51544 0.0
Co35 Co 0.79127 0.89534 0.35935 0.0
C36 C 0.80505 0.92847 0.45175 0.0
O37 O 0.797 0.91745 0.50224 0.0
O38 O 0.80374 0.92212 0.391 0.0
C39 C 0.77037 0.89899 0.64593 0.0
O40 O 0.7737 0.91467 0.61515 0.0
C41 C 0.79217 0.90328 0.2093 0.0
C42 C 0.79627 0.88026 0.16911 0.0
C43 C 0.79341 0.89489 0.14876 0.0
N44 N 0.79383 0.89367 0.26258 0.0
N45 N 0.79651 0.88012 0.23793 0.0
C46 C 0.79026 0.9205 0.21669 0.0
H47 H 0.7963 0.92763 0.26623 0.0
H48 H 0.77511 0.91639 0.21575 0.0
H49 H 0.7975 0.93047 0.17371 0.0
C50 C 0.74165 0.86998 0.45607 0.0
N51 N 0.76061 0.87998 0.44978 0.0
N52 N 0.76514 0.88201 0.38419 0.0
C53 C 0.74911 0.87323 0.3468 0.0
C54 C 0.7338 0.86551 0.391 0.0
C55 C 0.73141 0.8648 0.52316 0.0
H56 H 0.73467 0.87791 0.55123 0.0
H57 H 0.71589 0.85599 0.51591 0.0
H58 H 0.73658 0.85703 0.55492 0.0
O59 O 0.79541 0.87733 0.50854 0.0
O60 O 0.80445 0.8827 0.39982 0.0
H61 H 0.75775 0.866 0.2533 0.0
H62 H 0.73373 0.86141 0.25215 0.0
C63 C 0.7483 0.87129 0.27036 0.0
H64 H 0.75312 0.8853 0.24682 0.0
H65 H 0.79799 0.8704 0.26821 0.0
O66 O 0.77098 0.88612 0.61118 0.0
C67 C 0.80463 0.87596 0.45849 0.0
Co68 Co 0.10726 0.88931 0.52942 0.0
Co69 Co 0.10275 0.89492 0.37291 0.0
C70 C 0.06903 0.87467 0.46308 0.0
O71 O 0.07975 0.87747 0.51442 0.0
O72 O 0.07583 0.88044 0.40327 0.0
C73 C 0.0987 0.8703 0.65988 0.0
O74 O 0.08335 0.85737 0.62896 0.0
C75 C 0.09508 0.88799 0.22279 0.0
C76 C 0.11876 0.91473 0.18297 0.0
C77 C 0.10377 0.89749 0.16246 0.0
N78 N 0.10484 0.89906 0.27621 0.0
N79 N 0.11881 0.91507 0.25179 0.0
C80 C 0.07752 0.8691 0.22981 0.0
H81 H 0.07015 0.86833 0.27845 0.0
H82 H 0.0813 0.85782 0.23061 0.0
H83 H 0.06787 0.86647 0.18584 0.0
C84 C 0.12801 0.8711 0.47326 0.0
N85 N 0.118 0.88 0.46553 0.0
N86 N 0.11648 0.88267 0.39972 0.0
C87 C 0.12585 0.87583 0.36356 0.0
C88 C 0.13338 0.86824 0.40888 0.0
C89 C 0.13283 0.86609 0.5412 0.0
H90 H 0.13922 0.87875 0.57478 0.0
H91 H 0.11964 0.85521 0.5663 0.0
H92 H 0.14276 0.86061 0.5357 0.0
O93 O 0.11934 0.91716 0.52208 0.0
O94 O 0.11479 0.92066 0.41234 0.0
H95 H 0.13379 0.89093 0.26846 0.0
H96 H 0.13557 0.86975 0.26824 0.0
C97 C 0.1272 0.87614 0.28695 0.0
H98 H 0.11281 0.86806 0.26505 0.0
H99 H 0.1287 0.92609 0.28225 0.0
O100 O 0.11111 0.8842 0.6254 0.0
C101 C 0.12097 0.92767 0.47133 0.0
Co102 Co 0.21657 0.10806 0.46935 0.0
Co103 Co 0.20638 0.10236 0.62581 0.0
C104 C 0.19315 0.12287 0.53571 0.0
O105 O 0.20105 0.12006 0.48432 0.0
O106 O 0.19411 0.117 0.59542 0.0
C107 C 0.22713 0.12705 0.3388 0.0
O108 O 0.22481 0.14005 0.36963 0.0
C109 C 0.20573 0.10938 0.77587 0.0
C110 C 0.20226 0.08249 0.81587 0.0
C111 C 0.20475 0.09983 0.83627 0.0
N112 N 0.20426 0.09823 0.72253 0.0
N113 N 0.20197 0.08213 0.74705 0.0
C114 C 0.20732 0.12838 0.76875 0.0
H115 H 0.20084 0.12927 0.71998 0.0
H116 H 0.22244 0.13953 0.76818 0.0
H117 H 0.20034 0.13113 0.81258 0.0
C118 C 0.2555 0.12614 0.52579 0.0
N119 N 0.23658 0.11724 0.53338 0.0
N120 N 0.23236 0.11449 0.59914 0.0
C121 C 0.24854 0.12123 0.6354 0.0
C122 C 0.26368 0.12888 0.5902 0.0
C123 C 0.26537 0.13132 0.45794 0.0
H124 H 0.25918 0.11871 0.42408 0.0
H125 H 0.263 0.14219 0.43311 0.0
H126 H 0.28079 0.13686 0.46355 0.0
O127 O 0.20068 0.08021 0.47656 0.0
O128 O 0.1926 0.07665 0.58627 0.0
H129 H 0.2411 0.10602 0.73028 0.0
H130 H 0.26427 0.12691 0.73076 0.0
C131 C 0.24955 0.12081 0.712 0.0
H132 H 0.24349 0.1291 0.73408 0.0
H133 H 0.20067 0.07102 0.71665 0.0
O134 O 0.22556 0.11313 0.37338 0.0
C135 C 0.19176 0.06968 0.5272 0.0
Co136 Co 0.8894 0.10673 0.47919 0.0
Co137 Co 0.8949 0.10273 0.63606 0.0
C138 C 0.87571 0.06882 0.54768 0.0
O139 O 0.87882 0.07946 0.49587 0.0
O140 O 0.88051 0.07559 0.60807 0.0
C141 C 0.87054 0.09684 0.3482 0.0
O142 O 0.85861 0.08089 0.37851 0.0
C143 C 0.88764 0.09612 0.78561 0.0
C144 C 0.91323 0.12126 0.82528 0.0
C145 C 0.89614 0.106 0.8453 0.0
N146 N 0.89909 0.10544 0.73254 0.0
N147 N 0.91454 0.12016 0.75695 0.0
C148 C 0.86817 0.07945 0.7782 0.0
H149 H 0.86309 0.07823 0.7246 0.0
H150 H 0.85824 0.08065 0.814 0.0
H151 H 0.86853 0.06642 0.79145 0.0
C152 C 0.87026 0.12681 0.5333 0.0
N153 N 0.87949 0.11714 0.54209 0.0
N154 N 0.8821 0.11586 0.60811 0.0
C155 C 0.87481 0.12497 0.64335 0.0
C156 C 0.86709 0.13215 0.5972 0.0
C157 C 0.86532 0.1314 0.46481 0.0
H158 H 0.87817 0.13823 0.43216 0.0
H159 H 0.85492 0.11808 0.43913 0.0
H160 H 0.85929 0.14089 0.46958 0.0
O161 O 0.91719 0.11966 0.48643 0.0
O162 O 0.92073 0.11498 0.59602 0.0
H163 H 0.8894 0.1331 0.73947 0.0
H164 H 0.86813 0.13464 0.73754 0.0
C165 C 0.87471 0.12636 0.7199 0.0
H166 H 0.86653 0.11198 0.74181 0.0
H167 H 0.92555 0.13008 0.72647 0.0
O168 O 0.88384 0.10989 0.38297 0.0
C169 C 0.92773 0.12136 0.53712 0.0
Co170 Co 0.88981 0.78081 0.47223 0.0
Co171 Co 0.89344 0.791 0.6287 0.0
C172 C 0.92768 0.80413 0.54133 0.0
O173 O 0.9172 0.79623 0.4894 0.0
O174 O 0.92059 0.80326 0.60052 0.0
C175 C 0.89865 0.77077 0.34064 0.0
O176 O 0.91439 0.77385 0.37025 0.0
C177 C 0.8999 0.79022 0.77834 0.0
C178 C 0.87565 0.79232 0.81805 0.0
C179 C 0.89031 0.78949 0.83812 0.0
N180 N 0.89098 0.79294 0.72523 0.0
N181 N 0.87681 0.79466 0.74968 0.0
C182 C 0.91585 0.78629 0.77088 0.0
H183 H 0.9168 0.78227 0.71725 0.0
H184 H 0.91398 0.77489 0.80661 0.0
H185 H 0.9293 0.79925 0.78423 0.0
C186 C 0.86873 0.74187 0.52813 0.0
N187 N 0.87862 0.76079 0.53604 0.0
N188 N 0.87972 0.76495 0.6018 0.0
C189 C 0.87016 0.7487 0.63767 0.0
C190 C 0.86298 0.73362 0.59226 0.0
C191 C 0.86452 0.73208 0.4602 0.0
H192 H 0.87798 0.7349 0.43591 0.0
H193 H 0.855 0.71659 0.46553 0.0
H194 H 0.85787 0.73797 0.42599 0.0
O195 O 0.87791 0.79673 0.47791 0.0
O196 O 0.88167 0.80483 0.58762 0.0
H197 H 0.85912 0.73279 0.73221 0.0
H198 H 0.88253 0.75276 0.73704 0.0
C199 C 0.86837 0.74749 0.71417 0.0
H200 H 0.86252 0.75637 0.73241 0.0
H201 H 0.86726 0.79636 0.71921 0.0
O202 O 0.88614 0.77184 0.37611 0.0
C203 C 0.87592 0.80564 0.52775 0.0
Co204 Co 0.7744 0.55018 0.86119 0.0
Co205 Co 0.7685 0.54054 0.70435 0.0
C206 C 0.78918 0.52704 0.7919 0.0
O207 O 0.7864 0.53476 0.84392 0.0
O208 O 0.78324 0.52815 0.73246 0.0
C209 C 0.79336 0.56023 0.99238 0.0
O210 O 0.80611 0.55739 0.96217 0.0
C211 C 0.77587 0.54145 0.55474 0.0
C212 C 0.74989 0.54021 0.51509 0.0
C213 C 0.7672 0.54258 0.49504 0.0
N214 N 0.76429 0.53896 0.60781 0.0
N215 N 0.74862 0.53776 0.5834 0.0
C216 C 0.79555 0.54482 0.56219 0.0
H217 H 0.80054 0.54867 0.61587 0.0
H218 H 0.80529 0.55614 0.52665 0.0
H219 H 0.79563 0.53166 0.54859 0.0
C220 C 0.79235 0.58932 0.80703 0.0
N221 N 0.78346 0.57044 0.79831 0.0
N222 N 0.78079 0.56649 0.73232 0.0
C223 C 0.78769 0.58285 0.69705 0.0
C224 C 0.79523 0.59779 0.74313 0.0
C225 C 0.79741 0.59889 0.87543 0.0
H226 H 0.78474 0.59254 0.90903 0.0
H227 H 0.80826 0.59642 0.90001 0.0
H228 H 0.80295 0.61432 0.87074 0.0
O229 O 0.74658 0.53432 0.85436 0.0
O230 O 0.74279 0.5266 0.74429 0.0
H231 H 0.77308 0.576 0.60093 0.0
H232 H 0.79393 0.59912 0.60272 0.0
C233 C 0.78774 0.5843 0.62049 0.0
H234 H 0.79626 0.57847 0.59865 0.0
H235 H 0.73747 0.53633 0.61388 0.0
O236 O 0.7796 0.55893 0.95748 0.0
C237 C 0.73594 0.52557 0.80375 0.0
Co238 Co 0.44651 0.22377 0.86234 0.0
Co239 Co 0.4569 0.2282 0.70599 0.0
C240 C 0.46992 0.26197 0.79572 0.0
O241 O 0.46197 0.25128 0.8471 0.0
O242 O 0.46909 0.25512 0.73613 0.0
C243 C 0.43601 0.23224 0.99304 0.0
O244 O 0.43849 0.24765 0.96244 0.0
C245 C 0.45762 0.2358 0.55585 0.0
C246 C 0.46107 0.21234 0.5161 0.0
C247 C 0.45856 0.22717 0.49552 0.0
N248 N 0.4591 0.22615 0.6093 0.0
N249 N 0.46139 0.21233 0.58493 0.0
C250 C 0.45603 0.25322 0.56282 0.0
H251 H 0.46264 0.26067 0.61132 0.0
H252 H 0.44091 0.24925 0.5639 0.0
H253 H 0.4629 0.26286 0.51872 0.0
C254 C 0.40766 0.20278 0.80538 0.0
N255 N 0.42658 0.21285 0.79803 0.0
N256 N 0.43088 0.2143 0.73234 0.0
C257 C 0.41474 0.2048 0.69589 0.0
C258 C 0.39955 0.19727 0.74089 0.0
C259 C 0.39773 0.19808 0.87311 0.0
H260 H 0.4039 0.19167 0.90712 0.0
H261 H 0.40007 0.21132 0.89788 0.0
H262 H 0.38232 0.1882 0.86735 0.0
O263 O 0.4625 0.21192 0.85576 0.0
O264 O 0.47072 0.21635 0.74617 0.0
H265 H 0.42229 0.19697 0.60136 0.0
H266 H 0.39911 0.19468 0.60037 0.0
C267 C 0.41382 0.20332 0.6193 0.0
H268 H 0.41988 0.21764 0.59706 0.0
H269 H 0.46269 0.20253 0.61543 0.0
O270 O 0.43744 0.21984 0.95825 0.0
C271 C 0.47151 0.2103 0.80546 0.0
Co272 Co 0.7736 0.2229 0.86045 0.0
Co273 Co 0.76969 0.22804 0.70337 0.0
C274 C 0.73568 0.20875 0.79136 0.0
O275 O 0.74626 0.21201 0.84352 0.0
O276 O 0.74257 0.21356 0.73113 0.0
C277 C 0.76387 0.20399 0.99132 0.0
O278 O 0.74807 0.19181 0.96076 0.0
C279 C 0.76318 0.22053 0.55398 0.0
C280 C 0.78827 0.24615 0.51406 0.0
C281 C 0.77306 0.22899 0.49424 0.0
N282 N 0.77246 0.23207 0.60689 0.0
N283 N 0.78715 0.24753 0.58234 0.0
C284 C 0.74656 0.20104 0.56162 0.0
H285 H 0.74539 0.19602 0.61528 0.0
H286 H 0.7478 0.19111 0.52596 0.0
H287 H 0.73349 0.20133 0.54836 0.0
C288 C 0.79389 0.2038 0.80771 0.0
N289 N 0.78418 0.21297 0.79829 0.0
N290 N 0.78295 0.21546 0.73214 0.0
C291 C 0.79212 0.20815 0.69744 0.0
C292 C 0.7993 0.20054 0.74407 0.0
C293 C 0.79839 0.19892 0.87647 0.0
H294 H 0.80513 0.21179 0.90905 0.0
H295 H 0.78503 0.1885 0.90193 0.0
H296 H 0.80792 0.19294 0.87216 0.0
O297 O 0.78638 0.2507 0.85257 0.0
O298 O 0.78175 0.25389 0.74262 0.0
H299 H 0.80023 0.22255 0.60095 0.0
H300 H 0.80194 0.20138 0.60378 0.0
C301 C 0.79356 0.20791 0.62093 0.0
H302 H 0.7792 0.19961 0.59896 0.0
H303 H 0.79702 0.2586 0.6127 0.0
O304 O 0.77677 0.2175 0.9568 0.0
C305 C 0.78805 0.26107 0.80135 0.0
Co306 Co 0.88302 0.44148 0.79734 0.0
Co307 Co 0.87377 0.4359 0.95438 0.0
C308 C 0.86001 0.45636 0.86696 0.0
O309 O 0.86759 0.45346 0.81479 0.0
O310 O 0.86129 0.45056 0.92647 0.0
C311 C 0.8931 0.46049 0.66632 0.0
O312 O 0.89045 0.47333 0.69679 0.0
C313 C 0.87501 0.44351 0.10381 0.0
C314 C 0.87378 0.41757 0.14381 0.0
C315 C 0.87621 0.43492 0.16359 0.0
N316 N 0.87241 0.43185 0.05094 0.0
N317 N 0.87123 0.41621 0.07555 0.0
C318 C 0.87838 0.46319 0.09607 0.0
H319 H 0.8822 0.46811 0.04229 0.0
H320 H 0.88974 0.47297 0.13143 0.0
H321 H 0.86524 0.46329 0.10969 0.0
C322 C 0.9223 0.45965 0.8502 0.0
N323 N 0.90343 0.45072 0.85955 0.0
N324 N 0.89966 0.44816 0.92567 0.0
C325 C 0.91611 0.45515 0.9604 0.0
C326 C 0.93093 0.46266 0.91381 0.0
C327 C 0.9317 0.46467 0.7815 0.0
H328 H 0.92533 0.45196 0.74811 0.0
H329 H 0.92912 0.47544 0.75702 0.0
H330 H 0.94716 0.47028 0.78573 0.0
O331 O 0.86725 0.41365 0.80478 0.0
O332 O 0.85978 0.41013 0.91507 0.0
H333 H 0.90944 0.44066 0.05675 0.0
H334 H 0.93263 0.4614 0.05407 0.0
C335 C 0.91777 0.45528 0.0369 0.0
H336 H 0.91208 0.4639 0.05899 0.0
H337 H 0.86972 0.405 0.04524 0.0
O338 O 0.89162 0.44662 0.70095 0.0
C339 C 0.85863 0.40314 0.8558 0.0
Co340 Co 0.55561 0.44143 0.81064 0.0
Co341 Co 0.56174 0.43684 0.96685 0.0
C342 C 0.54086 0.40316 0.87678 0.0
O343 O 0.54355 0.4139 0.8256 0.0
O344 O 0.54694 0.40995 0.93639 0.0
C345 C 0.53671 0.43301 0.67977 0.0
O346 O 0.52381 0.41755 0.71023 0.0
C347 C 0.55501 0.42911 0.11707 0.0
C348 C 0.58185 0.4527 0.15665 0.0
C349 C 0.56457 0.4378 0.17735 0.0
N350 N 0.56607 0.43881 0.06354 0.0
N351 N 0.58215 0.45271 0.08782 0.0
C352 C 0.53607 0.41161 0.1102 0.0
H353 H 0.5353 0.40412 0.06185 0.0
H354 H 0.52485 0.41547 0.10884 0.0
H355 H 0.53335 0.40202 0.15447 0.0
C356 C 0.53782 0.46239 0.86875 0.0
N357 N 0.54669 0.45231 0.8755 0.0
N358 N 0.54959 0.45077 0.94108 0.0
C359 C 0.54296 0.46018 0.97803 0.0
C360 C 0.53526 0.46778 0.93352 0.0
C361 C 0.53252 0.46718 0.80133 0.0
H362 H 0.54505 0.47358 0.76708 0.0
H363 H 0.52156 0.45398 0.77654 0.0
H364 H 0.52704 0.47709 0.80755 0.0
O365 O 0.58345 0.45322 0.81696 0.0
O366 O 0.58736 0.44869 0.92633 0.0
H367 H 0.5583 0.4679 0.07264 0.0
H368 H 0.53724 0.46988 0.07418 0.0
C369 C 0.54347 0.46144 0.05468 0.0
H370 H 0.53533 0.44704 0.07639 0.0
H371 H 0.59318 0.46256 0.05725 0.0
O372 O 0.55046 0.44545 0.71475 0.0
C373 C 0.59414 0.45479 0.867 0.0
Co374 Co 0.55683 0.11547 0.80413 0.0
Co375 Co 0.56048 0.12423 0.96134 0.0
C376 C 0.59464 0.13899 0.87409 0.0
O377 O 0.58414 0.13178 0.82169 0.0
O378 O 0.58766 0.13686 0.93419 0.0
C379 C 0.56667 0.1064 0.67332 0.0
O380 O 0.58247 0.11002 0.70396 0.0
C381 C 0.56691 0.1231 0.11065 0.0
C382 C 0.54167 0.12333 0.15062 0.0
C383 C 0.55697 0.12154 0.17038 0.0
N384 N 0.55758 0.12531 0.05779 0.0
N385 N 0.54279 0.12589 0.08237 0.0
C386 C 0.58363 0.12039 0.10294 0.0
H387 H 0.58477 0.11647 0.04937 0.0
H388 H 0.58257 0.10935 0.13888 0.0
H389 H 0.59665 0.13385 0.11573 0.0
C390 C 0.53625 0.07602 0.85583 0.0
N391 N 0.54605 0.09487 0.86574 0.0
N392 N 0.54723 0.09847 0.93198 0.0
C393 C 0.53794 0.08193 0.96626 0.0
C394 C 0.53072 0.06723 0.91922 0.0
C395 C 0.53174 0.06679 0.78681 0.0
H396 H 0.52518 0.07312 0.75434 0.0
H397 H 0.54508 0.0696 0.76151 0.0
H398 H 0.52206 0.0513 0.79069 0.0
O399 O 0.54412 0.13055 0.81207 0.0
O400 O 0.5485 0.13815 0.92224 0.0
H401 H 0.52962 0.08787 0.06292 0.0
H402 H 0.52827 0.06515 0.05954 0.0
C403 C 0.53648 0.0801 0.04273 0.0
H404 H 0.55085 0.08632 0.06479 0.0
H405 H 0.53287 0.12702 0.05202 0.0
O406 O 0.55376 0.10703 0.70772 0.0
C407 C 0.54233 0.13915 0.86336 0.0
Co408 Co 0.44192 0.88473 0.19249 0.0
Co409 Co 0.43604 0.87392 0.0363 0.0
C410 C 0.45665 0.86106 0.12767 0.0
O411 O 0.45388 0.86916 0.17848 0.0
O412 O 0.45073 0.86177 0.06775 0.0
C413 C 0.46085 0.89541 0.32319 0.0
O414 O 0.47388 0.8931 0.29247 0.0
C415 C 0.44306 0.87301 0.8862 0.0
C416 C 0.416 0.86906 0.84603 0.0
C417 C 0.43345 0.87182 0.82569 0.0
N418 N 0.43185 0.87145 0.9395 0.0
N419 N 0.41564 0.86885 0.91485 0.0
C420 C 0.46219 0.87489 0.89349 0.0
H421 H 0.46321 0.86863 0.94261 0.0
H422 H 0.47321 0.89005 0.89345 0.0
H423 H 0.46501 0.86786 0.85003 0.0
C424 C 0.45998 0.92343 0.13394 0.0
N425 N 0.45105 0.90449 0.12736 0.0
N426 N 0.44816 0.90001 0.0618 0.0
C427 C 0.45482 0.91604 0.02471 0.0
C428 C 0.46259 0.93136 0.0691 0.0
C429 C 0.46532 0.93357 0.20126 0.0
H430 H 0.45275 0.9276 0.23533 0.0
H431 H 0.47615 0.93118 0.22637 0.0
H432 H 0.47097 0.94898 0.19482 0.0
O433 O 0.41408 0.86879 0.18556 0.0
O434 O 0.41035 0.86025 0.0763 0.0
H435 H 0.43933 0.90798 0.9304 0.0
H436 H 0.45989 0.93137 0.92867 0.0
C437 C 0.45414 0.91675 0.94809 0.0
H438 H 0.46264 0.91093 0.92608 0.0
H439 H 0.40447 0.86742 0.94515 0.0
O440 O 0.447 0.89392 0.28839 0.0
C441 C 0.40347 0.85965 0.13537 0.0
Co442 Co 0.11372 0.55744 0.18473 0.0
Co443 Co 0.12445 0.56206 0.02852 0.0
C444 C 0.13752 0.5957 0.11912 0.0
O445 O 0.12938 0.58493 0.17012 0.0
O446 O 0.13677 0.58896 0.05938 0.0
C447 C 0.10321 0.56588 0.31549 0.0
O448 O 0.10574 0.58131 0.28492 0.0
C449 C 0.12531 0.56985 0.87839 0.0
C450 C 0.12894 0.54652 0.83843 0.0
C451 C 0.12634 0.5613 0.81796 0.0
N452 N 0.12681 0.56018 0.93177 0.0
N453 N 0.12922 0.54644 0.90725 0.0
C454 C 0.12362 0.5872 0.88554 0.0
H455 H 0.13007 0.59456 0.93436 0.0
H456 H 0.10849 0.58318 0.88608 0.0
H457 H 0.13059 0.59694 0.84176 0.0
C458 C 0.07499 0.53676 0.12666 0.0
N459 N 0.09393 0.54676 0.11983 0.0
N460 N 0.09836 0.54825 0.05424 0.0
C461 C 0.08229 0.53884 0.01737 0.0
C462 C 0.067 0.53135 0.06195 0.0
C463 C 0.06492 0.53201 0.19413 0.0
H464 H 0.07094 0.52545 0.22816 0.0
H465 H 0.06732 0.54524 0.21914 0.0
H466 H 0.0495 0.52224 0.18795 0.0
O467 O 0.12956 0.54544 0.17813 0.0
O468 O 0.13803 0.54996 0.06879 0.0
H469 H 0.09011 0.53109 0.92324 0.0
H470 H 0.06685 0.52859 0.92152 0.0
C471 C 0.08151 0.53734 0.94078 0.0
H472 H 0.08749 0.55164 0.91847 0.0
H473 H 0.13055 0.53665 0.93765 0.0
O474 O 0.10455 0.55344 0.28061 0.0
C475 C 0.13862 0.54378 0.12807 0.0
Co476 Co 0.43954 0.55559 0.20357 0.0
Co477 Co 0.43666 0.56175 0.0464 0.0
C478 C 0.40201 0.54053 0.13209 0.0
O479 O 0.41222 0.54312 0.18482 0.0
O480 O 0.40939 0.54689 0.07337 0.0
C481 C 0.43063 0.53661 0.33487 0.0
O482 O 0.41505 0.52378 0.30485 0.0
C483 C 0.43042 0.55422 0.89708 0.0
C484 C 0.45505 0.58022 0.85703 0.0
C485 C 0.44016 0.56284 0.83728 0.0
N486 N 0.43946 0.5659 0.94993 0.0
N487 N 0.45387 0.58157 0.9253 0.0
C488 C 0.41421 0.5345 0.9049 0.0
H489 H 0.41326 0.52954 0.95854 0.0
H490 H 0.41576 0.52478 0.86914 0.0
H491 H 0.40089 0.53433 0.89195 0.0
C492 C 0.46139 0.53811 0.151 0.0
N493 N 0.45133 0.54691 0.1415 0.0
N494 N 0.45032 0.54962 0.07537 0.0
C495 C 0.46005 0.5429 0.04084 0.0
C496 C 0.46732 0.53539 0.08753 0.0
C497 C 0.46551 0.53284 0.2197 0.0
H498 H 0.4718 0.54545 0.25358 0.0
H499 H 0.45206 0.52205 0.24354 0.0
H500 H 0.47531 0.52715 0.21561 0.0
O501 O 0.45078 0.58339 0.19754 0.0
O502 O 0.44843 0.58741 0.08629 0.0
H503 H 0.46812 0.55771 0.94515 0.0
H504 H 0.47077 0.53708 0.94741 0.0
C505 C 0.46186 0.54303 0.9644 0.0
H506 H 0.44765 0.53439 0.94155 0.0
H507 H 0.46354 0.59279 0.95561 0.0
O508 O 0.44299 0.55042 0.29989 0.0
C509 C 0.45336 0.5941 0.14644 0.0
Co510 Co 0.54752 0.77302 0.13813 0.0
Co511 Co 0.54123 0.77018 0.29665 0.0
C512 C 0.5267 0.79 0.21087 0.0
O513 O 0.53358 0.78636 0.15833 0.0
O514 O 0.52826 0.7845 0.27057 0.0
C515 C 0.5604 0.7924 0.00823 0.0
O516 O 0.56678 0.80815 0.04341 0.0
C517 C 0.54215 0.77842 0.44552 0.0
C518 C 0.54897 0.75725 0.48648 0.0
C519 C 0.54654 0.77222 0.50529 0.0
N520 N 0.54234 0.76772 0.39334 0.0
N521 N 0.54604 0.75488 0.4185 0.0
C522 C 0.53981 0.79534 0.43686 0.0
H523 H 0.54607 0.80246 0.38742 0.0
H524 H 0.54646 0.80545 0.47991 0.0
H525 H 0.52449 0.79061 0.4357 0.0
C526 C 0.58787 0.79012 0.18231 0.0
N527 N 0.56918 0.78235 0.19473 0.0
N528 N 0.56645 0.78216 0.26136 0.0
C529 C 0.58335 0.7903 0.29325 0.0
C530 C 0.59747 0.79531 0.24454 0.0
C531 C 0.59621 0.79187 0.11256 0.0
H532 H 0.58615 0.78012 0.0792 0.0
H533 H 0.59902 0.80542 0.08917 0.0
H534 H 0.60976 0.79182 0.11571 0.0
O535 O 0.53085 0.74566 0.15099 0.0
O536 O 0.52656 0.74362 0.26357 0.0
H537 H 0.58314 0.782 0.39748 0.0
H538 H 0.60081 0.80615 0.37969 0.0
C539 C 0.58614 0.79485 0.36826 0.0
H540 H 0.57642 0.79977 0.38539 0.0
H541 H 0.54742 0.74504 0.38862 0.0
O542 O 0.55317 0.77665 0.03939 0.0
C543 C 0.52361 0.73589 0.20477 0.0
Co544 Co 0.22314 0.77501 0.13848 0.0
Co545 Co 0.22894 0.77036 0.29482 0.0
C546 C 0.20847 0.73672 0.20427 0.0
O547 O 0.21125 0.74751 0.15319 0.0
O548 O 0.21433 0.74344 0.26412 0.0
C549 C 0.20416 0.76656 0.00788 0.0
O550 O 0.19119 0.75121 0.03868 0.0
C551 C 0.22196 0.76261 0.44494 0.0
C552 C 0.24886 0.78602 0.4849 0.0
C553 C 0.23152 0.77118 0.50534 0.0
N554 N 0.2331 0.7723 0.39157 0.0
N555 N 0.24921 0.7861 0.41608 0.0
C556 C 0.20296 0.7452 0.43782 0.0
H557 H 0.20207 0.73786 0.38897 0.0
H558 H 0.1918 0.74915 0.43738 0.0
H559 H 0.20024 0.73546 0.48158 0.0
C560 C 0.20491 0.79562 0.19561 0.0
N561 N 0.21391 0.78569 0.20288 0.0
N562 N 0.21672 0.78419 0.26858 0.0
C563 C 0.20991 0.79352 0.3051 0.0
C564 C 0.20216 0.80097 0.26015 0.0
C565 C 0.19963 0.80029 0.12793 0.0
H566 H 0.18881 0.78703 0.10303 0.0
H567 H 0.19397 0.81006 0.13379 0.0
H568 H 0.21222 0.80682 0.09398 0.0
O569 O 0.25098 0.787 0.14554 0.0
O570 O 0.25466 0.78239 0.25504 0.0
H571 H 0.2252 0.80121 0.39984 0.0
H572 H 0.20438 0.80361 0.40063 0.0
C573 C 0.2104 0.79493 0.38171 0.0
H574 H 0.20207 0.78059 0.40376 0.0
H575 H 0.26031 0.79591 0.38568 0.0
O576 O 0.21803 0.77895 0.04253 0.0
C577 C 0.26157 0.78859 0.19595 0.0
Co578 Co 0.22226 0.44713 0.13716 0.0
Co579 Co 0.22661 0.45768 0.29344 0.0
C580 C 0.26042 0.47052 0.20366 0.0
O581 O 0.24978 0.46253 0.1522 0.0
O582 O 0.25351 0.46976 0.26308 0.0
C583 C 0.23063 0.43659 0.00634 0.0
O584 O 0.24605 0.43904 0.03683 0.0
C585 C 0.23433 0.45839 0.44348 0.0
C586 C 0.21119 0.4623 0.48359 0.0
C587 C 0.22587 0.45953 0.50394 0.0
N588 N 0.22471 0.46001 0.39017 0.0
N589 N 0.21109 0.46258 0.41476 0.0
C590 C 0.25157 0.4565 0.43626 0.0
H591 H 0.25897 0.46293 0.3875 0.0
H592 H 0.2474 0.44133 0.4356 0.0
H593 H 0.26133 0.46336 0.48007 0.0
C594 C 0.20125 0.40834 0.19477 0.0
N595 N 0.21128 0.42727 0.2018 0.0
N596 N 0.21265 0.43164 0.26741 0.0
C597 C 0.20311 0.41556 0.30408 0.0
C598 C 0.19567 0.40031 0.25936 0.0
C599 C 0.19669 0.39832 0.12724 0.0
H600 H 0.19023 0.40436 0.09284 0.0
H601 H 0.21 0.40074 0.10277 0.0
H602 H 0.1869 0.3829 0.13321 0.0
O603 O 0.21052 0.46323 0.14354 0.0
O604 O 0.2148 0.4715 0.25309 0.0
H605 H 0.19543 0.42346 0.3982 0.0
H606 H 0.19265 0.40009 0.39978 0.0
C607 C 0.20154 0.41473 0.38066 0.0
H608 H 0.21581 0.42055 0.40313 0.0
H609 H 0.20137 0.46404 0.38441 0.0
O610 O 0.21825 0.43801 0.04128 0.0
C611 C 0.20883 0.47227 0.19361 0.0
H612 H 0.19185 0.14074 0.41917 0.0
H613 H 0.17068 0.12823 0.62711 0.0
H614 H 0.17494 0.15776 0.40029 0.0
H615 H 0.15317 0.14478 0.60734 0.0
H616 H 0.14162 0.19315 0.57391 0.0
H617 H 0.15835 0.17595 0.59174 0.0
H618 H 0.14398 0.15352 0.38588 0.0
H619 H 0.12768 0.17135 0.3671 0.0
C620 C 0.18348 0.14151 0.46084 0.0
C621 C 0.18268 0.13314 0.52482 0.0
C622 C 0.17364 0.15117 0.44973 0.0
C623 C 0.16264 0.15263 0.50214 0.0
C624 C 0.16174 0.14417 0.56608 0.0
C625 C 0.17171 0.1346 0.57738 0.0
C626 C 0.14202 0.18459 0.53223 0.0
C627 C 0.13328 0.18365 0.46897 0.0
C628 C 0.15151 0.17458 0.54275 0.0
C629 C 0.15243 0.16323 0.4905 0.0
C630 C 0.14374 0.1623 0.42705 0.0
C631 C 0.13432 0.17246 0.41631 0.0
H632 H 0.85396 0.04024 0.63736 0.0
H633 H 0.87624 0.05094 0.43113 0.0
H634 H 0.83681 0.00635 0.61373 0.0
H635 H 0.86016 0.01722 0.40852 0.0
H636 H 0.81377 0.95748 0.36198 0.0
H637 H 0.83075 0.99125 0.38668 0.0
H638 H 0.83914 0.97948 0.59619 0.0
H639 H 0.82124 0.94581 0.5722 0.0
C640 C 0.85542 0.0353 0.58738 0.0
C641 C 0.86632 0.04821 0.53602 0.0
C642 C 0.84567 0.01586 0.57375 0.0
C643 C 0.84695 0.00891 0.50889 0.0
C644 C 0.85836 0.02194 0.45839 0.0
C645 C 0.86774 0.04132 0.47156 0.0
C646 C 0.81929 0.96217 0.4132 0.0
C647 C 0.81613 0.94902 0.46513 0.0
C648 C 0.82914 0.98156 0.42745 0.0
C649 C 0.8364 0.98824 0.49363 0.0
C650 C 0.83346 0.97497 0.5451 0.0
C651 C 0.8233 0.95562 0.53118 0.0
H652 H 0.94716 0.80496 0.42654 0.0
H653 H 0.95529 0.82704 0.63299 0.0
H654 H 0.98106 0.82208 0.40823 0.0
H655 H 0.9894 0.84479 0.61371 0.0
H656 H 0.04989 0.85708 0.57998 0.0
H657 H 0.01599 0.84033 0.59929 0.0
H658 H 0.00716 0.85316 0.39206 0.0
H659 H 0.0412 0.86943 0.37187 0.0
C660 C 0.95617 0.81357 0.46804 0.0
C661 C 0.94846 0.8146 0.53136 0.0
C662 C 0.97566 0.82353 0.45723 0.0
C663 C 0.98801 0.83493 0.50925 0.0
C664 C 0.98032 0.83597 0.57273 0.0
C665 C 0.96076 0.82586 0.58375 0.0
C666 C 0.04076 0.85634 0.53836 0.0
C667 C 0.0483 0.86457 0.4742 0.0
C668 C 0.02127 0.84684 0.54972 0.0
C669 C 0.0088 0.84541 0.49738 0.0
C670 C 0.01634 0.85374 0.43327 0.0
C671 C 0.03586 0.86315 0.42172 0.0
H672 H 0.80596 0.85717 0.57269 0.0
H673 H 0.82817 0.87256 0.36681 0.0
H674 H 0.82352 0.8406 0.58834 0.0
H675 H 0.84617 0.85643 0.38327 0.0
H676 H 0.85848 0.80783 0.41093 0.0
H677 H 0.84157 0.82505 0.39428 0.0
H678 H 0.85515 0.84622 0.60189 0.0
H679 H 0.87158 0.82859 0.61925 0.0
C680 C 0.81469 0.85715 0.53091 0.0
C681 C 0.81563 0.86619 0.46846 0.0
C682 C 0.82487 0.84773 0.54006 0.0
C683 C 0.8363 0.8472 0.48712 0.0
C684 C 0.83731 0.85633 0.42478 0.0
C685 C 0.82706 0.86568 0.4155 0.0
C686 C 0.85791 0.8162 0.45299 0.0
C687 C 0.86635 0.81677 0.5165 0.0
C688 C 0.84829 0.82617 0.4433 0.0
C689 C 0.84695 0.837 0.49679 0.0
C690 C 0.85563 0.83778 0.55996 0.0
C691 C 0.86517 0.82775 0.56976 0.0
H692 H 0.16871 0.04323 0.62084 0.0
H693 H 0.18956 0.04904 0.41322 0.0
H694 H 0.15092 0.00905 0.60727 0.0
H695 H 0.17217 0.01478 0.40039 0.0
H696 H 0.1244 0.95406 0.37735 0.0
H697 H 0.14067 0.98824 0.39081 0.0
H698 H 0.15609 0.98264 0.59799 0.0
H699 H 0.13935 0.94837 0.58527 0.0
C700 C 0.16954 0.03722 0.5723 0.0
C701 C 0.18058 0.0489 0.51809 0.0
C702 C 0.15942 0.01759 0.56471 0.0
C703 C 0.16016 0.00914 0.50286 0.0
C704 C 0.17108 0.02082 0.44844 0.0
C705 C 0.18113 0.04048 0.45591 0.0
C706 C 0.13119 0.96009 0.42593 0.0
C707 C 0.13056 0.94845 0.48026 0.0
C708 C 0.14064 0.97973 0.43346 0.0
C709 C 0.14975 0.98821 0.49538 0.0
C710 C 0.149 0.97656 0.54989 0.0
C711 C 0.13948 0.95691 0.54248 0.0
H712 H 0.94807 0.13991 0.42298 0.0
H713 H 0.95447 0.12497 0.63009 0.0
H714 H 0.98224 0.15658 0.4085 0.0
H715 H 0.98863 0.14117 0.61481 0.0
H716 H 0.04948 0.18991 0.5887 0.0
H717 H 0.01531 0.17251 0.60406 0.0
H718 H 0.00843 0.15125 0.39678 0.0
H719 H 0.04255 0.16908 0.38068 0.0
C720 C 0.95674 0.14004 0.46527 0.0
C721 C 0.9485 0.13112 0.52773 0.0
C722 C 0.97636 0.14951 0.45681 0.0
C723 C 0.98821 0.1502 0.51046 0.0
C724 C 0.97995 0.14115 0.57276 0.0
C725 C 0.96034 0.13176 0.58136 0.0
C726 C 0.04069 0.18147 0.54645 0.0
C727 C 0.04877 0.18095 0.48338 0.0
C728 C 0.02108 0.17141 0.55539 0.0
C729 C 0.0091 0.1605 0.5016 0.0
C730 C 0.01722 0.15975 0.43891 0.0
C731 C 0.03681 0.16989 0.42983 0.0
H732 H 0.85864 0.47451 0.75149 0.0
H733 H 0.83748 0.4614 0.9593 0.0
H734 H 0.8415 0.4913 0.73347 0.0
H735 H 0.8197 0.47773 0.94036 0.0
H736 H 0.80745 0.52581 0.9073 0.0
H737 H 0.82427 0.5087 0.92541 0.0
H738 H 0.8105 0.48666 0.71889 0.0
H739 H 0.79414 0.50441 0.69985 0.0
C740 C 0.85023 0.4751 0.79334 0.0
C741 C 0.84948 0.46661 0.85699 0.0
C742 C 0.84025 0.48462 0.78271 0.0
C743 C 0.82912 0.48582 0.83525 0.0
C744 C 0.82833 0.4773 0.89897 0.0
C745 C 0.83845 0.46786 0.90982 0.0
C746 C 0.808 0.51735 0.86556 0.0
C747 C 0.79945 0.51653 0.80197 0.0
C748 C 0.81754 0.50739 0.87624 0.0
C749 C 0.8187 0.49621 0.82381 0.0
C750 C 0.81011 0.49533 0.76018 0.0
C751 C 0.80065 0.50544 0.74928 0.0
H752 H 0.49269 0.2898 0.70475 0.0
H753 H 0.47094 0.28111 0.91185 0.0
H754 H 0.51041 0.32384 0.72505 0.0
H755 H 0.48805 0.31499 0.93122 0.0
H756 H 0.53566 0.37523 0.96747 0.0
H757 H 0.51918 0.3412 0.947 0.0
H758 H 0.50579 0.35025 0.74089 0.0
H759 H 0.52273 0.38412 0.76044 0.0
C760 C 0.49158 0.29514 0.75438 0.0
C761 C 0.4804 0.2827 0.80661 0.0
C762 C 0.50167 0.31466 0.76598 0.0
C763 C 0.5007 0.32219 0.82989 0.0
C764 C 0.48943 0.30971 0.88185 0.0
C765 C 0.47947 0.29024 0.87045 0.0
C766 C 0.52921 0.36994 0.91781 0.0
C767 C 0.53055 0.38243 0.86567 0.0
C768 C 0.51968 0.35042 0.90612 0.0
C769 C 0.51116 0.34295 0.84219 0.0
C770 C 0.51245 0.35548 0.79028 0.0
C771 C 0.52207 0.37495 0.80178 0.0
H772 H 0.71728 0.20786 0.90871 0.0
H773 H 0.70747 0.18806 0.69913 0.0
H774 H 0.68343 0.19192 0.92897 0.0
H775 H 0.67347 0.1711 0.72022 0.0
H776 H 0.61326 0.15684 0.75759 0.0
H777 H 0.64713 0.17437 0.73765 0.0
H778 H 0.65668 0.16254 0.94561 0.0
H779 H 0.62267 0.14589 0.96643 0.0
C780 C 0.70784 0.19993 0.86704 0.0
C781 C 0.71502 0.19921 0.80226 0.0
C782 C 0.68838 0.19063 0.87883 0.0
C783 C 0.67557 0.18006 0.82651 0.0
C784 C 0.68282 0.17936 0.76155 0.0
C785 C 0.70232 0.18899 0.74939 0.0
C786 C 0.62262 0.15807 0.79917 0.0
C787 C 0.61532 0.14999 0.86362 0.0
C788 C 0.64208 0.168 0.78755 0.0
C789 C 0.65479 0.16982 0.8397 0.0
C790 C 0.64743 0.16175 0.90441 0.0
C791 C 0.62791 0.15211 0.91642 0.0
H792 H 0.49504 0.20721 0.71322 0.0
H793 H 0.47338 0.19176 0.91975 0.0
H794 H 0.51286 0.19088 0.72786 0.0
H795 H 0.4908 0.17494 0.93361 0.0
H796 H 0.53841 0.16164 0.95833 0.0
H797 H 0.52218 0.17963 0.94478 0.0
H798 H 0.50752 0.1593 0.73654 0.0
H799 H 0.52421 0.14176 0.74933 0.0
C800 C 0.49404 0.2003 0.76174 0.0
C801 C 0.48275 0.20079 0.8153 0.0
C802 C 0.50417 0.19082 0.76996 0.0
C803 C 0.5032 0.18151 0.83178 0.0
C804 C 0.49207 0.18216 0.88562 0.0
C805 C 0.48199 0.19174 0.87754 0.0
C806 C 0.53178 0.16105 0.90953 0.0
C807 C 0.53264 0.15026 0.85487 0.0
C808 C 0.52237 0.17128 0.90193 0.0
C809 C 0.51351 0.1709 0.83961 0.0
C810 C 0.51443 0.16015 0.78491 0.0
C811 C 0.52392 0.14999 0.79239 0.0
H812 H 0.79131 0.28733 0.70696 0.0
H813 H 0.80679 0.28196 0.91441 0.0
H814 H 0.80749 0.32154 0.72 0.0
H815 H 0.82346 0.31621 0.92667 0.0
H816 H 0.83591 0.37667 0.95003 0.0
H817 H 0.81819 0.34248 0.93657 0.0
H818 H 0.83883 0.34825 0.72874 0.0
H819 H 0.85613 0.38251 0.74146 0.0
C820 C 0.79822 0.29344 0.75531 0.0
C821 C 0.79773 0.28188 0.80967 0.0
C822 C 0.80761 0.31308 0.76261 0.0
C823 C 0.81682 0.32165 0.82432 0.0
C824 C 0.81627 0.31008 0.87877 0.0
C825 C 0.8068 0.29042 0.87161 0.0
C826 C 0.83662 0.37067 0.90131 0.0
C827 C 0.84746 0.38236 0.84681 0.0
C828 C 0.82654 0.35103 0.89376 0.0
C829 C 0.82713 0.34259 0.83168 0.0
C830 C 0.83785 0.35429 0.77697 0.0
C831 C 0.84785 0.37394 0.78439 0.0
H832 H 0.61437 0.4732 0.75231 0.0
H833 H 0.6209 0.4579 0.95871 0.0
H834 H 0.64857 0.48985 0.73754 0.0
H835 H 0.65502 0.47407 0.94317 0.0
H836 H 0.71566 0.52303 0.91911 0.0
H837 H 0.68146 0.50555 0.93352 0.0
H838 H 0.67503 0.48486 0.72553 0.0
H839 H 0.70918 0.50277 0.7104 0.0
C840 C 0.62308 0.47323 0.79431 0.0
C841 C 0.61488 0.46425 0.85675 0.0
C842 C 0.6427 0.4827 0.78571 0.0
C843 C 0.65457 0.48333 0.83922 0.0
C844 C 0.64633 0.47413 0.9013 0.0
C845 C 0.62673 0.46475 0.91003 0.0
C846 C 0.70697 0.51471 0.87649 0.0
C847 C 0.71518 0.51435 0.81356 0.0
C848 C 0.68734 0.50459 0.88488 0.0
C849 C 0.67547 0.49379 0.83066 0.0
C850 C 0.68372 0.49326 0.76801 0.0
C851 C 0.70333 0.50344 0.7595 0.0
H852 H 0.47457 0.86024 0.24477 0.0
H853 H 0.46182 0.83807 0.03818 0.0
H854 H 0.49141 0.84324 0.2656 0.0
H855 H 0.47818 0.82048 0.05995 0.0
H856 H 0.52616 0.80854 0.09556 0.0
H857 H 0.50929 0.82554 0.07617 0.0
H858 H 0.48697 0.81228 0.28244 0.0
H859 H 0.50446 0.79567 0.30275 0.0
C860 C 0.47525 0.85164 0.2038 0.0
C861 C 0.46687 0.85058 0.13962 0.0
C862 C 0.48481 0.84176 0.21605 0.0
C863 C 0.48615 0.83044 0.16461 0.0
C864 C 0.47768 0.82929 0.10047 0.0
C865 C 0.46821 0.8393 0.08802 0.0
C866 C 0.51767 0.80923 0.13699 0.0
C867 C 0.51662 0.80068 0.20076 0.0
C868 C 0.50787 0.81889 0.12558 0.0
C869 C 0.49662 0.82017 0.17744 0.0
C870 C 0.49566 0.81174 0.24152 0.0
C871 C 0.50562 0.80215 0.25316 0.0
H872 H 0.19075 0.71789 0.08718 0.0
H873 H 0.20308 0.70863 0.2946 0.0
H874 H 0.17392 0.68407 0.06675 0.0
H875 H 0.18671 0.67463 0.27322 0.0
H876 H 0.13841 0.61463 0.23567 0.0
H877 H 0.15563 0.64845 0.25614 0.0
H878 H 0.17852 0.65768 0.05072 0.0
H879 H 0.16068 0.6237 0.02929 0.0
C880 C 0.18998 0.70865 0.12843 0.0
C881 C 0.19826 0.71601 0.19269 0.0
C882 C 0.18044 0.6892 0.11641 0.0
C883 C 0.179 0.67658 0.16814 0.0
C884 C 0.18732 0.68393 0.23244 0.0
C885 C 0.19679 0.70343 0.24466 0.0
C886 C 0.14708 0.62383 0.19467 0.0
C887 C 0.14811 0.61641 0.13068 0.0
C888 C 0.15711 0.64327 0.20671 0.0
C889 C 0.16855 0.65583 0.15528 0.0
C890 C 0.16964 0.64843 0.09125 0.0
C891 C 0.15948 0.62894 0.079 0.0
H892 H 0.38201 0.52147 0.24546 0.0
H893 H 0.37482 0.53597 0.03864 0.0
H894 H 0.34804 0.50477 0.26191 0.0
H895 H 0.34062 0.51965 0.05604 0.0
H896 H 0.27977 0.47182 0.08759 0.0
H897 H 0.31374 0.48864 0.06956 0.0
H898 H 0.32218 0.51027 0.27673 0.0
H899 H 0.2881 0.49287 0.29562 0.0
C900 C 0.37319 0.5212 0.20347 0.0
C901 C 0.38118 0.5301 0.14064 0.0
C902 C 0.35366 0.51171 0.21321 0.0
C903 C 0.34156 0.51097 0.16058 0.0
C904 C 0.34951 0.51978 0.09748 0.0
C905 C 0.36912 0.5292 0.08754 0.0
C906 C 0.28884 0.48013 0.12946 0.0
C907 C 0.28117 0.48093 0.19323 0.0
C908 C 0.30836 0.48992 0.11885 0.0
C909 C 0.32074 0.50085 0.17157 0.0
C910 C 0.31308 0.50175 0.23526 0.0
C911 C 0.29352 0.49185 0.24605 0.0
H912 H 0.14044 0.52551 0.24313 0.0
H913 H 0.16187 0.54011 0.03601 0.0
H914 H 0.15777 0.50865 0.25818 0.0
H915 H 0.17961 0.52372 0.05183 0.0
H916 H 0.19094 0.47451 0.07809 0.0
H917 H 0.17439 0.49214 0.06285 0.0
H918 H 0.18922 0.51362 0.26973 0.0
H919 H 0.20529 0.49558 0.28571 0.0
C920 C 0.14898 0.52528 0.20101 0.0
C921 C 0.14972 0.53414 0.13832 0.0
C922 C 0.15901 0.51569 0.20977 0.0
C923 C 0.17008 0.51481 0.15619 0.0
C924 C 0.17099 0.52386 0.09379 0.0
C925 C 0.1609 0.53337 0.0849 0.0
C926 C 0.19072 0.48303 0.12028 0.0
C927 C 0.19941 0.48357 0.18317 0.0
C928 C 0.18131 0.49323 0.11141 0.0
C929 C 0.18045 0.50429 0.16511 0.0
C930 C 0.18935 0.50501 0.22768 0.0
C931 C 0.19867 0.49475 0.23667 0.0
H932 H 0.50337 0.71564 0.09389 0.0
H933 H 0.51755 0.70935 0.30191 0.0
H934 H 0.48501 0.68146 0.0818 0.0
H935 H 0.50016 0.67509 0.28884 0.0
H936 H 0.45551 0.61338 0.26406 0.0
H937 H 0.47094 0.64754 0.27953 0.0
H938 H 0.48883 0.65551 0.06724 0.0
H939 H 0.47249 0.62151 0.05127 0.0
C940 C 0.50265 0.70689 0.1369 0.0
C941 C 0.51193 0.71513 0.19872 0.0
C942 C 0.49224 0.68726 0.12989 0.0
C943 C 0.49122 0.67536 0.18402 0.0
C944 C 0.50034 0.6837 0.24629 0.0
C945 C 0.51042 0.70336 0.25375 0.0
C946 C 0.46268 0.6225 0.22077 0.0
C947 C 0.46273 0.61478 0.15642 0.0
C948 C 0.47165 0.6421 0.22964 0.0
C949 C 0.48118 0.65444 0.17465 0.0
C950 C 0.48129 0.64659 0.11047 0.0
C951 C 0.47202 0.62703 0.10132 0.0
H952 H 0.37682 0.83632 0.04273 0.0
H953 H 0.38306 0.85764 0.2498 0.0
H954 H 0.34267 0.81843 0.0575 0.0
H955 H 0.34884 0.84014 0.26381 0.0
H956 H 0.28198 0.80675 0.08126 0.0
H957 H 0.31621 0.82353 0.06739 0.0
H958 H 0.3224 0.80858 0.27462 0.0
H959 H 0.28823 0.79226 0.28923 0.0
C960 C 0.37092 0.83724 0.09139 0.0
C961 C 0.38271 0.84844 0.1451 0.0
C962 C 0.35131 0.82706 0.09968 0.0
C963 C 0.34298 0.82789 0.16173 0.0
C964 C 0.35478 0.83897 0.21563 0.0
C965 C 0.37442 0.8491 0.20747 0.0
C966 C 0.29063 0.807 0.12382 0.0
C967 C 0.28234 0.79819 0.18639 0.0
C968 C 0.31027 0.81654 0.11574 0.0
C969 C 0.32207 0.81743 0.16992 0.0
C970 C 0.31376 0.80843 0.23221 0.0
C971 C 0.29414 0.79896 0.2404 0.0
H972 H 0.11233 0.2831 0.35085 0.0
H973 H 0.16497 0.29129 0.43272 0.0
H974 H 0.12825 0.31607 0.31233 0.0
H975 H 0.18102 0.32434 0.39437 0.0
H976 H 0.20586 0.37374 0.23918 0.0
H977 H 0.18917 0.34082 0.27894 0.0
H978 H 0.14467 0.34897 0.36171 0.0
H979 H 0.16143 0.38183 0.32177 0.0
C980 C 0.12729 0.29211 0.36117 0.0
C981 C 0.13752 0.28485 0.39451 0.0
C982 C 0.13638 0.31091 0.33928 0.0
C983 C 0.1559 0.32271 0.34989 0.0
C984 C 0.16602 0.31548 0.38473 0.0
C985 C 0.15686 0.29671 0.40721 0.0
C986 C 0.19241 0.36833 0.26527 0.0
C987 C 0.18483 0.38012 0.27765 0.0
C988 C 0.18298 0.34963 0.28856 0.0
C989 C 0.16571 0.34241 0.3239 0.0
C990 C 0.15791 0.35414 0.33442 0.0
C991 C 0.16745 0.37288 0.31173 0.0
H992 H 0.62657 0.82602 0.18148 0.0
H993 H 0.61446 0.78427 0.33857 0.0
H994 H 0.65999 0.84231 0.21382 0.0
H995 H 0.64742 0.801 0.374 0.0
H996 H 0.71109 0.82744 0.39091 0.0
H997 H 0.67867 0.80937 0.34766 0.0
H998 H 0.67937 0.86169 0.30407 0.0
H999 H 0.71207 0.87949 0.34443 0.0
C1000 C 0.63113 0.82025 0.22245 0.0
C1001 C 0.61798 0.80403 0.25801 0.0
C1002 C 0.6502 0.82971 0.24178 0.0
C1003 C 0.65643 0.82316 0.29732 0.0
C1004 C 0.64327 0.80643 0.33076 0.0
C1005 C 0.62432 0.79692 0.31094 0.0
C1006 C 0.70411 0.83493 0.37252 0.0
C1007 C 0.71374 0.85471 0.37154 0.0
C1008 C 0.68559 0.82466 0.34776 0.0
C1009 C 0.67633 0.83404 0.32214 0.0
C1010 C 0.68611 0.85396 0.32209 0.0
C1011 C 0.70469 0.86418 0.34607 0.0
H1012 H 0.21767 0.83523 0.32225 0.0
H1013 H 0.16536 0.79054 0.23938 0.0
H1014 H 0.2014 0.85199 0.36057 0.0
H1015 H 0.14894 0.80718 0.27782 0.0
H1016 H 0.1237 0.83173 0.43204 0.0
H1017 H 0.14073 0.81565 0.39414 0.0
H1018 H 0.18461 0.86807 0.3077 0.0
H1019 H 0.16748 0.884 0.34551 0.0
C1020 C 0.2027 0.82914 0.31186 0.0
C1021 C 0.19267 0.81171 0.27807 0.0
C1022 C 0.19342 0.83868 0.33362 0.0
C1023 C 0.1739 0.8308 0.32256 0.0
C1024 C 0.16395 0.81345 0.28772 0.0
C1025 C 0.17331 0.80403 0.26525 0.0
C1026 C 0.13708 0.83975 0.40551 0.0
C1027 C 0.14438 0.85899 0.39145 0.0
C1028 C 0.14671 0.83058 0.38335 0.0
C1029 C 0.16391 0.84061 0.3476 0.0
C1030 C 0.17143 0.86003 0.33538 0.0
C1031 C 0.16168 0.86912 0.35683 0.0
H1032 H 0.38121 0.16305 0.67836 0.0
H1033 H 0.37278 0.20714 0.7622 0.0
H1034 H 0.34823 0.146 0.6396 0.0
H1035 H 0.33976 0.19019 0.72341 0.0
H1036 H 0.29024 0.16556 0.5684 0.0
H1037 H 0.32328 0.18186 0.60701 0.0
H1038 H 0.31529 0.12942 0.69128 0.0
H1039 H 0.28228 0.11326 0.65273 0.0
C1040 C 0.37216 0.16894 0.6889 0.0
C1041 C 0.37933 0.1863 0.72302 0.0
C1042 C 0.35336 0.15923 0.6669 0.0
C1043 C 0.34151 0.16686 0.67808 0.0
C1044 C 0.34867 0.18412 0.71338 0.0
C1045 C 0.36743 0.19371 0.73606 0.0
C1046 C 0.2957 0.15758 0.59459 0.0
C1047 C 0.28392 0.13826 0.60783 0.0
C1048 C 0.31447 0.16688 0.61716 0.0
C1049 C 0.32177 0.15691 0.65256 0.0
C1050 C 0.31005 0.13742 0.66391 0.0
C1051 C 0.29124 0.1282 0.64202 0.0
H1052 H 0.83381 0.21617 0.68423 0.0
H1053 H 0.78904 0.1638 0.7664 0.0
H1054 H 0.85064 0.19998 0.64618 0.0
H1055 H 0.8058 0.14745 0.72838 0.0
H1056 H 0.83042 0.12218 0.57481 0.0
H1057 H 0.81424 0.13908 0.6132 0.0
H1058 H 0.86683 0.18346 0.69676 0.0
H1059 H 0.88286 0.1665 0.65829 0.0
C1060 C 0.82775 0.20121 0.69477 0.0
C1061 C 0.81025 0.19114 0.72813 0.0
C1062 C 0.83732 0.19196 0.67308 0.0
C1063 C 0.82944 0.17244 0.68386 0.0
C1064 C 0.81207 0.16246 0.71863 0.0
C1065 C 0.80259 0.17179 0.74096 0.0
C1066 C 0.83845 0.13566 0.60068 0.0
C1067 C 0.85778 0.14315 0.61374 0.0
C1068 C 0.82923 0.14521 0.62322 0.0
C1069 C 0.83927 0.1625 0.65844 0.0
C1070 C 0.85877 0.17021 0.66952 0.0
C1071 C 0.86792 0.16057 0.64761 0.0
H1072 H 0.83175 0.62463 0.76701 0.0
H1073 H 0.77949 0.61624 0.68055 0.0
H1074 H 0.84791 0.65767 0.72852 0.0
H1075 H 0.79551 0.64918 0.64179 0.0
H1076 H 0.82826 0.71486 0.6509 0.0
H1077 H 0.81142 0.68199 0.69055 0.0
H1078 H 0.85676 0.67428 0.61366 0.0
H1079 H 0.87353 0.70723 0.57423 0.0
C1080 C 0.82374 0.63 0.74046 0.0
C1081 C 0.80448 0.61809 0.72651 0.0
C1082 C 0.83296 0.64877 0.71787 0.0
C1083 C 0.82299 0.65593 0.68166 0.0
C1084 C 0.80353 0.64408 0.6698 0.0
C1085 C 0.79438 0.62529 0.69183 0.0
C1086 C 0.83444 0.70599 0.64199 0.0
C1087 C 0.85208 0.71337 0.6097 0.0
C1088 C 0.82486 0.68725 0.66455 0.0
C1089 C 0.83286 0.67563 0.65567 0.0
C1090 C 0.85039 0.68299 0.62202 0.0
C1091 C 0.85988 0.70171 0.59888 0.0
H1092 H 0.04022 0.54126 0.08223 0.0
H1093 H 0.04875 0.49713 -0.00069 0.0
H1094 H 0.00724 0.52428 0.04303 0.0
H1095 H 0.01582 0.48007 0.96004 0.0
H1096 H 0.95735 0.49933 0.89041 0.0
H1097 H 0.99053 0.51576 0.92752 0.0
H1098 H 0.98301 0.46346 0.01137 0.0
H1099 H 0.9499 0.44717 0.97422 0.0
C1100 C 0.0349 0.52782 0.05615 0.0
C1101 C 0.04682 0.5204 0.04356 0.0
C1102 C 0.01617 0.51822 0.0332 0.0
C1103 C 0.00904 0.50094 0.99805 0.0
C1104 C 0.02092 0.49332 0.9872 0.0
C1105 C 0.03969 0.50303 0.0095 0.0
C1106 C 0.96296 0.4914 0.91606 0.0
C1107 C 0.95128 0.47209 0.92968 0.0
C1108 C 0.9818 0.50078 0.93781 0.0
C1109 C 0.98927 0.4909 0.97277 0.0
C1110 C 0.97765 0.4714 0.98429 0.0
C1111 C 0.95878 0.4621 0.96319 0.0
H1112 H 0.45706 0.49859 0.10755 0.0
H1113 H 0.50215 0.55144 0.02993 0.0
H1114 H 0.47395 0.48247 0.06867 0.0
H1115 H 0.51913 0.53547 0.99098 0.0
H1116 H 0.55108 0.50167 0.99839 0.0
H1117 H 0.53512 0.51847 0.03939 0.0
H1118 H 0.48258 0.47487 0.95265 0.0
H1119 H 0.49867 0.45813 0.91184 0.0
C1120 C 0.47072 0.50673 0.083 0.0
C1121 C 0.47842 0.52615 0.07162 0.0
C1122 C 0.48028 0.49754 0.06018 0.0
C1123 C 0.49777 0.50771 0.02631 0.0
C1124 C 0.50572 0.52731 0.01717 0.0
C1125 C 0.49607 0.53643 0.03937 0.0
C1126 C 0.53616 0.49586 0.98768 0.0
C1127 C 0.52601 0.47871 0.9522 0.0
C1128 C 0.52705 0.50542 0.011 0.0
C1129 C 0.50758 0.49788 -0.0003 0.0
C1130 C 0.49753 0.48086 0.96291 0.0
C1131 C 0.50672 0.4714 0.939 0.0
H1132 H 0.49628 0.04851 0.97969 0.0
H1133 H 0.54057 0.04054 0.89484 0.0
H1134 H 0.47927 0.01543 0.01697 0.0
H1135 H 0.52364 0.00738 0.93213 0.0
H1136 H 0.49939 0.95794 0.08829 0.0
H1137 H 0.51555 0.99082 0.04806 0.0
H1138 H 0.46275 0.98257 0.96629 0.0
H1139 H 0.44673 0.94973 0.00656 0.0
C1140 C 0.50219 0.03952 0.96838 0.0
C1141 C 0.51962 0.04686 0.93458 0.0
C1142 C 0.4925 0.02066 0.98958 0.0
C1143 C 0.50022 0.0089 0.97789 0.0
C1144 C 0.5175 0.01621 0.94254 0.0
C1145 C 0.52708 0.03504 0.92067 0.0
C1146 C 0.49131 0.96331 0.06227 0.0
C1147 C 0.47192 0.95151 0.05034 0.0
C1148 C 0.50053 0.98199 0.03871 0.0
C1149 C 0.49041 0.98917 0.0036 0.0
C1150 C 0.47087 0.97742 0.99339 0.0
C1151 C 0.46172 0.9587 0.0163 0.0
H1152 H 0.15185 0.22676 0.75474 0.0
H1153 H 0.10121 0.23082 0.73772 0.0
H1154 H 0.14879 0.22548 0.87964 0.0
H1155 H 0.09778 0.22887 0.8612 0.0
H1156 H 0.09955 0.23604 0.08511 0.0
H1157 H 0.10971 0.24419 0.96659 0.0
H1158 H 0.12871 0.20334 0.96555 0.0
H1159 H 0.11922 0.19587 0.08587 0.0
C1160 C 0.1402 0.22759 0.7776 0.0
C1161 C 0.12672 0.2288 0.73623 0.0
C1162 C 0.13835 0.22669 0.84914 0.0
C1163 C 0.123 0.22698 0.88066 0.0
C1164 C 0.10997 0.22891 0.8391 0.0
C1165 C 0.11187 0.22991 0.76794 0.0
C1166 C 0.10612 0.22898 0.05963 0.0
C1167 C 0.10847 0.21521 0.09406 0.0
C1168 C 0.11187 0.23358 0.99166 0.0
C1169 C 0.11973 0.22419 0.95594 0.0
C1170 C 0.12286 0.21097 0.99156 0.0
C1171 C 0.11737 0.20661 0.0603 0.0
H1172 H 0.773 0.92557 0.73829 0.0
H1173 H 0.76694 0.86993 0.72541 0.0
H1174 H 0.778 0.92582 0.86221 0.0
H1175 H 0.77194 0.8703 0.84858 0.0
H1176 H 0.80974 0.8897 0.03668 0.0
H1177 H 0.80194 0.89059 0.91679 0.0
H1178 H 0.76225 0.90832 0.97631 0.0
H1179 H 0.7697 0.90699 0.09699 0.0
C1180 C 0.77237 0.91326 0.76194 0.0
C1181 C 0.76984 0.89784 0.72178 0.0
C1182 C 0.77523 0.91344 0.83284 0.0
C1183 C 0.77573 0.89825 0.86455 0.0
C1184 C 0.77201 0.88237 0.8251 0.0
C1185 C 0.76903 0.88212 0.75457 0.0
C1186 C 0.79949 0.894 0.02433 0.0
C1187 C 0.79053 0.89848 0.07651 0.0
C1188 C 0.79495 0.89438 0.9557 0.0
C1189 C 0.78131 0.89928 0.93744 0.0
C1190 C 0.77287 0.90457 0.98913 0.0
C1191 C 0.77733 0.90403 0.05823 0.0
H1192 H 0.12794 0.89574 0.73887 0.0
H1193 H 0.07213 0.84642 0.75245 0.0
H1194 H 0.12779 0.90036 0.86208 0.0
H1195 H 0.07208 0.85118 0.87644 0.0
H1196 H 0.09113 0.86163 0.11083 0.0
H1197 H 0.08952 0.85279 0.99008 0.0
H1198 H 0.10794 0.91036 0.93067 0.0
H1199 H 0.10917 0.91912 0.05064 0.0
C1200 C 0.11575 0.88571 0.76821 0.0
C1201 C 0.09993 0.87087 0.73564 0.0
C1202 C 0.11563 0.88844 0.83874 0.0
C1203 C 0.09976 0.87636 0.87839 0.0
C1204 C 0.08446 0.86073 0.84689 0.0
C1205 C 0.08452 0.85803 0.77597 0.0
C1206 C 0.0942 0.87225 0.07204 0.0
C1207 C 0.10004 0.89105 0.0903 0.0
C1208 C 0.09348 0.86721 0.00293 0.0
C1209 C 0.09888 0.88096 0.95128 0.0
C1210 C 0.10406 0.89955 0.96957 0.0
C1211 C 0.10464 0.90454 0.03821 0.0
H1212 H 0.22837 0.13561 0.88778 0.0
H1213 H 0.18827 0.07833 0.94816 0.0
H1214 H 0.23568 0.14445 0.0085 0.0
H1215 H 0.19587 0.08709 0.06811 0.0
H1216 H 0.23047 0.10131 0.25995 0.0
H1217 H 0.22564 0.09668 0.13677 0.0
H1218 H 0.22 0.14638 0.12209 0.0
H1219 H 0.22486 0.15114 0.24608 0.0
C1220 C 0.2207 0.12505 0.9266 0.0
C1221 C 0.20753 0.10631 0.9084 0.0
C1222 C 0.22507 0.13008 0.9957 0.0
C1223 C 0.21654 0.11638 0.04741 0.0
C1224 C 0.20292 0.09785 0.02918 0.0
C1225 C 0.19849 0.09288 0.96054 0.0
C1226 C 0.22849 0.11145 0.23055 0.0
C1227 C 0.22776 0.12643 0.26304 0.0
C1228 C 0.22562 0.10872 0.16003 0.0
C1229 C 0.22205 0.12095 0.1203 0.0
C1230 C 0.22264 0.13671 0.15171 0.0
C1231 C 0.22543 0.13941 0.22262 0.0
H1232 H 0.87889 0.07383 0.92332 0.0
H1233 H 0.89522 0.13288 0.92265 0.0
H1234 H 0.86948 0.0715 0.04386 0.0
H1235 H 0.88509 0.13052 0.04138 0.0
H1236 H 0.89491 0.12687 0.27004 0.0
H1237 H 0.89794 0.12828 0.14641 0.0
H1238 H 0.84889 0.07238 0.13032 0.0
H1239 H 0.84626 0.0707 0.25532 0.0
C1240 C 0.88001 0.08615 0.94864 0.0
C1241 C 0.88798 0.10357 0.91446 0.0
C1242 C 0.87456 0.08485 0.01749 0.0
C1243 C 0.87679 0.10092 0.05275 0.0
C1244 C 0.88365 0.118 0.01657 0.0
C1245 C 0.88938 0.11936 0.94849 0.0
C1246 C 0.88459 0.11495 0.2403 0.0
C1247 C 0.87044 0.09861 0.27268 0.0
C1248 C 0.88625 0.1158 0.16907 0.0
C1249 C 0.87368 0.10041 0.12813 0.0
C1250 C 0.85898 0.08436 0.16033 0.0
C1251 C 0.85738 0.08347 0.23193 0.0
H1252 H 0.92377 0.77107 0.2463 0.0
H1253 H 0.86924 0.76737 0.26379 0.0
H1254 H 0.92204 0.7726 0.12147 0.0
H1255 H 0.86783 0.76959 0.1404 0.0
H1256 H 0.86247 0.76286 0.91619 0.0
H1257 H 0.86434 0.75454 0.03459 0.0
H1258 H 0.92433 0.79485 0.03593 0.0
H1259 H 0.92245 0.80248 0.91568 0.0
C1260 C 0.91133 0.77038 0.22355 0.0
C1261 C 0.89668 0.76918 0.26506 0.0
C1262 C 0.91042 0.77143 0.15204 0.0
C1263 C 0.89485 0.77132 0.12066 0.0
C1264 C 0.87992 0.76941 0.16235 0.0
C1265 C 0.88078 0.76825 0.23348 0.0
C1266 C 0.87609 0.76976 0.94171 0.0
C1267 C 0.89229 0.78342 0.90736 0.0
C1268 C 0.87717 0.76507 0.00963 0.0
C1269 C 0.89442 0.77426 0.04542 0.0
C1270 C 0.91083 0.78737 0.00989 0.0
C1271 C 0.90979 0.79183 0.94119 0.0
H1272 H 0.7679 0.56431 0.06999 0.0
H1273 H 0.8182 0.5596 0.08586 0.0
H1274 H 0.76465 0.56243 0.19355 0.0
H1275 H 0.8153 0.55837 0.21082 0.0
H1276 H 0.78562 0.52884 0.41725 0.0
H1277 H 0.79507 0.53626 0.29685 0.0
H1278 H 0.77697 0.57781 0.29881 0.0
H1279 H 0.76686 0.56973 0.41741 0.0
C1280 C 0.77851 0.56326 0.09997 0.0
C1281 C 0.79322 0.56196 0.06793 0.0
C1282 C 0.77672 0.56231 0.17116 0.0
C1283 C 0.7897 0.56021 0.21241 0.0
C1284 C 0.80491 0.55971 0.18056 0.0
C1285 C 0.80666 0.56058 0.10899 0.0
C1286 C 0.78396 0.53972 0.39187 0.0
C1287 C 0.77532 0.54855 0.42589 0.0
C1288 C 0.78943 0.54406 0.32309 0.0
C1289 C 0.78652 0.55745 0.28772 0.0
C1290 C 0.77895 0.56706 0.32372 0.0
C1291 C 0.77322 0.56251 0.39173 0.0
H1292 H 0.435 0.23944 0.44409 0.0
H1293 H 0.4748 0.22188 0.38344 0.0
H1294 H 0.42765 0.24099 0.32345 0.0
H1295 H 0.46715 0.22304 0.26355 0.0
H1296 H 0.43254 0.20304 0.07153 0.0
H1297 H 0.43739 0.20311 0.19467 0.0
H1298 H 0.44335 0.25857 0.21006 0.0
H1299 H 0.43847 0.2586 0.08614 0.0
C1300 C 0.4426 0.23646 0.40523 0.0
C1301 C 0.4557 0.23079 0.42335 0.0
C1302 C 0.43821 0.23714 0.33617 0.0
C1303 C 0.44663 0.23187 0.28438 0.0
C1304 C 0.46017 0.22683 0.30253 0.0
C1305 C 0.46463 0.22628 0.37114 0.0
C1306 C 0.43459 0.21516 0.10108 0.0
C1307 C 0.4354 0.23093 0.06881 0.0
C1308 C 0.43748 0.21523 0.17158 0.0
C1309 C 0.44113 0.23102 0.21151 0.0
C1310 C 0.44063 0.24626 0.1803 0.0
C1311 C 0.43783 0.24625 0.10942 0.0
H1312 H 0.74083 0.21151 0.4166 0.0
H1313 H 0.80001 0.22826 0.41668 0.0
H1314 H 0.7385 0.20217 0.29599 0.0
H1315 H 0.79765 0.21822 0.29783 0.0
H1316 H 0.79377 0.22848 0.06966 0.0
H1317 H 0.7952 0.23127 0.19336 0.0
H1318 H 0.7396 0.18176 0.20895 0.0
H1319 H 0.7379 0.17936 0.08388 0.0
C1320 C 0.75318 0.21273 0.39114 0.0
C1321 C 0.77063 0.2208 0.42516 0.0
C1322 C 0.75188 0.20732 0.32225 0.0
C1323 C 0.76798 0.20971 0.2868 0.0
C1324 C 0.7851 0.21666 0.32284 0.0
C1325 C 0.78645 0.22234 0.39096 0.0
C1326 C 0.78192 0.21802 0.09929 0.0
C1327 C 0.76566 0.20379 0.06679 0.0
C1328 C 0.78278 0.21953 0.17055 0.0
C1329 C 0.76749 0.20675 0.21137 0.0
C1330 C 0.75151 0.192 0.17902 0.0
C1331 C 0.75061 0.19053 0.10738 0.0
H1332 H 0.89279 0.48557 0.57322 0.0
H1333 H 0.89716 0.43508 0.58845 0.0
H1334 H 0.89183 0.48291 0.44818 0.0
H1335 H 0.89556 0.43208 0.46482 0.0
H1336 H 0.86248 0.45342 0.241 0.0
H1337 H 0.86979 0.46281 0.36148 0.0
H1338 H 0.91129 0.44464 0.36015 0.0
H1339 H 0.90333 0.4346 0.24142 0.0
C1340 C 0.89375 0.47404 0.54994 0.0
C1341 C 0.89495 0.46047 0.59082 0.0
C1342 C 0.89305 0.47243 0.47833 0.0
C1343 C 0.89354 0.45725 0.44629 0.0
C1344 C 0.89545 0.44414 0.48738 0.0
C1345 C 0.89624 0.44578 0.55861 0.0
C1346 C 0.87334 0.45175 0.26652 0.0
C1347 C 0.88218 0.44309 0.23265 0.0
C1348 C 0.87761 0.45718 0.33534 0.0
C1349 C 0.89094 0.45421 0.37091 0.0
C1350 C 0.90059 0.44666 0.33505 0.0
C1351 C 0.8961 0.44098 0.26699 0.0
H1352 H 0.51291 0.40663 0.58654 0.0
H1353 H 0.56252 0.46219 0.60132 0.0
H1354 H 0.51792 0.4066 0.46274 0.0
H1355 H 0.56739 0.46208 0.47825 0.0
H1356 H 0.58616 0.44338 0.28958 0.0
H1357 H 0.57733 0.44233 0.40941 0.0
H1358 H 0.5198 0.42393 0.34927 0.0
H1359 H 0.52871 0.42537 0.22871 0.0
C1360 C 0.52464 0.41897 0.56332 0.0
C1361 C 0.53748 0.4343 0.60397 0.0
C1362 C 0.52749 0.41893 0.49248 0.0
C1363 C 0.54326 0.43416 0.46133 0.0
C1364 C 0.55535 0.44996 0.50128 0.0
C1365 C 0.55247 0.45006 0.57175 0.0
C1366 C 0.57156 0.4389 0.30182 0.0
C1367 C 0.55811 0.43423 0.24955 0.0
C1368 C 0.56655 0.43843 0.3704 0.0
C1369 C 0.54794 0.43328 0.38848 0.0
C1370 C 0.53423 0.42786 0.33664 0.0
C1371 C 0.5393 0.42847 0.26761 0.0
H1372 H 0.59275 0.10794 0.58081 0.0
H1373 H 0.53663 0.10062 0.59503 0.0
H1374 H 0.59096 0.10846 0.45571 0.0
H1375 H 0.53512 0.10179 0.47131 0.0
H1376 H 0.53025 0.09373 0.24818 0.0
H1377 H 0.53279 0.08621 0.3671 0.0
H1378 H 0.59175 0.12979 0.36843 0.0
H1379 H 0.58926 0.13664 0.24777 0.0
C1380 C 0.57997 0.10624 0.5573 0.0
C1381 C 0.56487 0.10435 0.59789 0.0
C1382 C 0.57901 0.10669 0.48566 0.0
C1383 C 0.56294 0.10525 0.45331 0.0
C1384 C 0.54761 0.10264 0.49413 0.0
C1385 C 0.54853 0.1021 0.5654 0.0
C1386 C 0.54381 0.1015 0.2738 0.0
C1387 C 0.55952 0.11587 0.23946 0.0
C1388 C 0.54526 0.09727 0.34196 0.0
C1389 C 0.56238 0.10763 0.37786 0.0
C1390 C 0.57839 0.12142 0.34226 0.0
C1391 C 0.57698 0.12543 0.27335 0.0
H1392 H 0.43459 0.89786 0.40221 0.0
H1393 H 0.48514 0.89348 0.41596 0.0
H1394 H 0.42988 0.89269 0.52525 0.0
H1395 H 0.48029 0.88827 0.53976 0.0
H1396 H 0.46917 0.89583 0.77426 0.0
H1397 H 0.47796 0.9034 0.65363 0.0
H1398 H 0.42077 0.86308 0.59371 0.0
H1399 H 0.41207 0.85524 0.71358 0.0
C1400 C 0.44487 0.89608 0.43155 0.0
C1401 C 0.4601 0.89582 0.39903 0.0
C1402 C 0.44208 0.893 0.502 0.0
C1403 C 0.4545 0.88968 0.54167 0.0
C1404 C 0.47047 0.89071 0.51024 0.0
C1405 C 0.47322 0.8937 0.4394 0.0
C1406 C 0.45864 0.88811 0.73539 0.0
C1407 C 0.43995 0.87473 0.75352 0.0
C1408 C 0.46364 0.89262 0.66632 0.0
C1409 C 0.44997 0.88403 0.61453 0.0
C1410 C 0.43151 0.8702 0.63268 0.0
C1411 C 0.42657 0.86562 0.70129 0.0
H1412 H 0.10013 0.53685 0.39414 0.0
H1413 H 0.10554 0.59219 0.40856 0.0
H1414 H 0.10515 0.53706 0.51722 0.0
H1415 H 0.11059 0.59231 0.53239 0.0
H1416 H 0.10264 0.57341 0.76661 0.0
H1417 H 0.09517 0.57482 0.64601 0.0
H1418 H 0.13485 0.55714 0.58592 0.0
H1419 H 0.14263 0.55612 0.70576 0.0
C1420 C 0.1021 0.54894 0.42364 0.0
C1421 C 0.10271 0.56462 0.3913 0.0
C1422 C 0.10509 0.5491 0.49411 0.0
C1423 C 0.10865 0.56487 0.53397 0.0
C1424 C 0.10795 0.58001 0.50272 0.0
C1425 C 0.10506 0.57991 0.43186 0.0
C1426 C 0.11025 0.57047 0.72771 0.0
C1427 C 0.12344 0.5649 0.74579 0.0
C1428 C 0.10579 0.57106 0.65866 0.0
C1429 C 0.11423 0.56582 0.60683 0.0
C1430 C 0.12786 0.5609 0.62492 0.0
C1431 C 0.13239 0.56044 0.69352 0.0
H1432 H 0.46758 0.56332 0.75875 0.0
H1433 H 0.40785 0.54419 0.76052 0.0
H1434 H 0.46533 0.55313 0.64016 0.0
H1435 H 0.40559 0.53466 0.64017 0.0
H1436 H 0.40546 0.51165 0.42876 0.0
H1437 H 0.40742 0.51451 0.55374 0.0
H1438 H 0.46191 0.56537 0.53535 0.0
H1439 H 0.46025 0.56216 0.41181 0.0
C1440 C 0.45393 0.55685 0.7335 0.0
C1441 C 0.43791 0.55468 0.76818 0.0
C1442 C 0.45263 0.55108 0.66551 0.0
C1443 C 0.43535 0.54338 0.63008 0.0
C1444 C 0.4191 0.54039 0.66598 0.0
C1445 C 0.42036 0.54591 0.73473 0.0
C1446 C 0.418 0.52323 0.45165 0.0
C1447 C 0.43265 0.53674 0.41031 0.0
C1448 C 0.41905 0.52495 0.52322 0.0
C1449 C 0.43477 0.54021 0.55475 0.0
C1450 C 0.4497 0.55326 0.51319 0.0
C1451 C 0.4487 0.55149 0.44202 0.0
H1452 H 0.53385 0.76486 0.92823 0.0
H1453 H 0.58382 0.82021 0.91861 0.0
H1454 H 0.53111 0.76449 0.80365 0.0
H1455 H 0.58134 0.81947 0.79255 0.0
H1456 H 0.57789 0.78341 0.58213 0.0
H1457 H 0.58214 0.79238 0.70349 0.0
H1458 H 0.52696 0.78737 0.70637 0.0
H1459 H 0.52295 0.77893 0.58396 0.0
C1460 C 0.54429 0.77693 0.89937 0.0
C1461 C 0.55915 0.79251 0.93285 0.0
C1462 C 0.54258 0.77678 0.82828 0.0
C1463 C 0.55591 0.79202 0.7891 0.0
C1464 C 0.57083 0.80765 0.82217 0.0
C1465 C 0.57227 0.80803 0.89386 0.0
C1466 C 0.56691 0.78473 0.60842 0.0
C1467 C 0.55009 0.78048 0.5744 0.0
C1468 C 0.56939 0.78995 0.67742 0.0
C1469 C 0.55488 0.79055 0.7137 0.0
C1470 C 0.53835 0.78708 0.67896 0.0
C1471 C 0.53607 0.78229 0.60934 0.0
H1472 H 0.19571 0.75896 0.55688 0.0
H1473 H 0.25304 0.77631 0.61731 0.0
H1474 H 0.18687 0.75749 0.67756 0.0
H1475 H 0.24429 0.77522 0.73724 0.0
H1476 H 0.22996 0.79559 0.92895 0.0
H1477 H 0.23465 0.79533 0.80582 0.0
H1478 H 0.18495 0.74 0.79125 0.0
H1479 H 0.18012 0.74016 0.91516 0.0
C1480 C 0.20629 0.7619 0.5957 0.0
C1481 C 0.22505 0.76751 0.57751 0.0
C1482 C 0.20126 0.76127 0.66479 0.0
C1483 C 0.21497 0.76651 0.71652 0.0
C1484 C 0.23351 0.77146 0.6983 0.0
C1485 C 0.23849 0.77196 0.62967 0.0
C1486 C 0.21983 0.78346 0.89958 0.0
C1487 C 0.20483 0.76777 0.93209 0.0
C1488 C 0.2226 0.78328 0.82909 0.0
C1489 C 0.21039 0.76748 0.78939 0.0
C1490 C 0.19461 0.75233 0.82082 0.0
C1491 C 0.19187 0.75245 0.8917 0.0
H1492 H 0.2376 0.43553 0.55518 0.0
H1493 H 0.2211 0.47611 0.61612 0.0
H1494 H 0.23907 0.4281 0.67579 0.0
H1495 H 0.22218 0.46838 0.736 0.0
H1496 H 0.20167 0.43374 0.92794 0.0
H1497 H 0.20184 0.43871 0.80485 0.0
H1498 H 0.25684 0.44357 0.78921 0.0
H1499 H 0.25677 0.43858 0.91309 0.0
C1500 C 0.23485 0.44327 0.5941 0.0
C1501 C 0.22948 0.45662 0.57606 0.0
C1502 C 0.23548 0.43884 0.66315 0.0
C1503 C 0.23047 0.44747 0.71502 0.0
C1504 C 0.22576 0.46124 0.69696 0.0
C1505 C 0.22526 0.46575 0.62835 0.0
C1506 C 0.2137 0.43557 0.89835 0.0
C1507 C 0.22933 0.43604 0.93056 0.0
C1508 C 0.21383 0.43854 0.82787 0.0
C1509 C 0.22953 0.44192 0.78788 0.0
C1510 C 0.24461 0.44107 0.81901 0.0
C1511 C 0.24454 0.43822 0.88988 0.0
loop_
_geom_bond_atom_site_label_1
_geom_bond_atom_site_label_2
_geom_bond_distance
_geom_bond_site_symmetry_2
_ccdc_geom_bond_type
Co0 O3 1.970 . S
Co0 N17 1.989 . S
Co0 O25 1.967 . S
Co0 O32 1.920 . S
Co1 O4 1.966 . S
Co1 N10 2.022 . S
Co1 N18 1.993 . S
Co1 O26 1.941 . S
C2 O3 1.258 . S
C2 O4 1.263 . S
O3 Co0 1.970 . S
O3 C2 1.258 . S
O4 Co1 1.966 . S
O4 C2 1.263 . S
C5 O6 1.235 . S
C5 O32 1.289 . S
O6 C5 1.235 . S
C7 C9 1.400 . S
C7 N10 1.351 . S
C7 C12 1.501 . S
C8 C9 1.387 . S
C8 N11 1.341 . S
C9 C7 1.400 . S
C9 C8 1.387 . S
N10 Co1 2.022 . S
N10 C7 1.351 . S
N10 N11 1.365 . S
N11 C8 1.341 . S
N11 N10 1.365 . S
N11 H31 0.862 . S
C12 C7 1.501 . S
C12 H13 0.961 . S
C12 H14 0.961 . S
C12 H15 0.960 . S
H13 C12 0.961 . S
H14 C12 0.961 . S
H15 C12 0.960 . S
C16 N17 1.342 . S
C16 C20 1.401 . S
C16 C21 1.499 . S
N17 Co0 1.989 . S
N17 C16 1.342 . S
N17 N18 1.388 . S
N18 Co1 1.993 . S
N18 N17 1.388 . S
N18 C19 1.346 . S
C19 N18 1.346 . S
C19 C20 1.396 . S
C19 C29 1.510 . S
C20 C16 1.401 . S
C20 C19 1.396 . S
C21 C16 1.499 . S
C21 H22 0.959 . S
C21 H23 0.960 . S
C21 H24 0.961 . S
H22 C21 0.959 . S
H23 C21 0.960 . S
H24 C21 0.961 . S
O25 Co0 1.967 . S
O25 C33 1.258 . S
O26 Co1 1.941 . S
O26 C33 1.266 . S
H27 C29 0.959 . S
H28 C29 0.961 . S
C29 C19 1.510 . S
C29 H27 0.959 . S
C29 H28 0.961 . S
C29 H30 0.960 . S
H30 C29 0.960 . S
H31 N11 0.862 . S
O32 Co0 1.920 . S
O32 C5 1.289 . S
C33 O25 1.258 . S
C33 O26 1.266 . S
Co34 O37 1.970 . S
Co34 N51 1.989 . S
Co34 O59 1.967 . S
Co34 O66 1.920 . S
Co35 O38 1.966 . S
Co35 N44 2.022 . S
Co35 N52 1.993 . S
Co35 O60 1.941 . S
C36 O37 1.258 . S
C36 O38 1.263 . S
O37 Co34 1.970 . S
O37 C36 1.258 . S
O38 Co35 1.966 . S
O38 C36 1.263 . S
C39 O40 1.235 . S
C39 O66 1.289 . S
O40 C39 1.235 . S
C41 C43 1.400 . S
C41 N44 1.351 . S
C41 C46 1.501 . S
C42 C43 1.387 . S
C42 N45 1.341 . S
C43 C41 1.400 . S
C43 C42 1.387 . S
N44 Co35 2.022 . S
N44 C41 1.351 . S
N44 N45 1.365 . S
N45 C42 1.341 . S
N45 N44 1.365 . S
N45 H65 0.862 . S
C46 C41 1.501 . S
C46 H47 0.961 . S
C46 H48 0.961 . S
C46 H49 0.960 . S
H47 C46 0.961 . S
H48 C46 0.961 . S
H49 C46 0.960 . S
C50 N51 1.342 . S
C50 C54 1.401 . S
C50 C55 1.499 . S
N51 Co34 1.989 . S
N51 C50 1.342 . S
N51 N52 1.388 . S
N52 Co35 1.993 . S
N52 N51 1.388 . S
N52 C53 1.346 . S
C53 N52 1.346 . S
C53 C54 1.396 . S
C53 C63 1.510 . S
C54 C50 1.401 . S
C54 C53 1.396 . S
C55 C50 1.499 . S
C55 H56 0.959 . S
C55 H57 0.960 . S
C55 H58 0.961 . S
H56 C55 0.959 . S
H57 C55 0.960 . S
H58 C55 0.961 . S
O59 Co34 1.967 . S
O59 C67 1.258 . S
O60 Co35 1.941 . S
O60 C67 1.266 . S
H61 C63 0.959 . S
H62 C63 0.961 . S
C63 C53 1.510 . S
C63 H61 0.959 . S
C63 H62 0.961 . S
C63 H64 0.960 . S
H64 C63 0.960 . S
H65 N45 0.862 . S
O66 Co34 1.920 . S
O66 C39 1.289 . S
C67 O59 1.258 . S
C67 O60 1.266 . S
Co68 O71 1.970 . S
Co68 N85 1.989 . S
Co68 O93 1.967 . S
Co68 O100 1.920 . S
Co69 O72 1.966 . S
Co69 N78 2.022 . S
Co69 N86 1.993 . S
Co69 O94 1.941 . S
C70 O71 1.258 . S
C70 O72 1.263 . S
O71 Co68 1.970 . S
O71 C70 1.258 . S
O72 Co69 1.966 . S
O72 C70 1.263 . S
C73 O74 1.235 . S
C73 O100 1.289 . S
O74 C73 1.235 . S
C75 C77 1.400 . S
C75 N78 1.351 . S
C75 C80 1.501 . S
C76 C77 1.387 . S
C76 N79 1.341 . S
C77 C75 1.400 . S
C77 C76 1.387 . S
N78 Co69 2.022 . S
N78 C75 1.351 . S
N78 N79 1.365 . S
N79 C76 1.341 . S
N79 N78 1.365 . S
N79 H99 0.862 . S
C80 C75 1.501 . S
C80 H81 0.961 . S
C80 H82 0.961 . S
C80 H83 0.960 . S
H81 C80 0.961 . S
H82 C80 0.961 . S
H83 C80 0.960 . S
C84 N85 1.342 . S
C84 C88 1.401 . S
C84 C89 1.499 . S
N85 Co68 1.989 . S
N85 C84 1.342 . S
N85 N86 1.388 . S
N86 Co69 1.993 . S
N86 N85 1.388 . S
N86 C87 1.346 . S
C87 N86 1.346 . S
C87 C88 1.396 . S
C87 C97 1.510 . S
C88 C84 1.401 . S
C88 C87 1.396 . S
C89 C84 1.499 . S
C89 H90 0.959 . S
C89 H91 0.960 . S
C89 H92 0.961 . S
H90 C89 0.959 . S
H91 C89 0.960 . S
H92 C89 0.961 . S
O93 Co68 1.967 . S
O93 C101 1.258 . S
O94 Co69 1.941 . S
O94 C101 1.266 . S
H95 C97 0.959 . S
H96 C97 0.961 . S
C97 C87 1.510 . S
C97 H95 0.959 . S
C97 H96 0.961 . S
C97 H98 0.960 . S
H98 C97 0.960 . S
H99 N79 0.862 . S
O100 Co68 1.920 . S
O100 C73 1.289 . S
C101 O93 1.258 . S
C101 O94 1.266 . S
Co102 O105 1.970 . S
Co102 N119 1.989 . S
Co102 O127 1.967 . S
Co102 O134 1.920 . S
Co103 O106 1.966 . S
Co103 N112 2.022 . S
Co103 N120 1.993 . S
Co103 O128 1.941 . S
C104 O105 1.258 . S
C104 O106 1.263 . S
O105 Co102 1.970 . S
O105 C104 1.258 . S
O106 Co103 1.966 . S
O106 C104 1.263 . S
C107 O108 1.235 . S
C107 O134 1.289 . S
O108 C107 1.235 . S
C109 C111 1.400 . S
C109 N112 1.351 . S
C109 C114 1.501 . S
C110 C111 1.387 . S
C110 N113 1.341 . S
C111 C109 1.400 . S
C111 C110 1.387 . S
N112 Co103 2.022 . S
N112 C109 1.351 . S
N112 N113 1.365 . S
N113 C110 1.341 . S
N113 N112 1.365 . S
N113 H133 0.862 . S
C114 C109 1.501 . S
C114 H115 0.961 . S
C114 H116 0.961 . S
C114 H117 0.960 . S
H115 C114 0.961 . S
H116 C114 0.961 . S
H117 C114 0.960 . S
C118 N119 1.342 . S
C118 C122 1.401 . S
C118 C123 1.499 . S
N119 Co102 1.989 . S
N119 C118 1.342 . S
N119 N120 1.388 . S
N120 Co103 1.993 . S
N120 N119 1.388 . S
N120 C121 1.346 . S
C121 N120 1.346 . S
C121 C122 1.396 . S
C121 C131 1.510 . S
C122 C118 1.401 . S
C122 C121 1.396 . S
C123 C118 1.499 . S
C123 H124 0.959 . S
C123 H125 0.960 . S
C123 H126 0.961 . S
H124 C123 0.959 . S
H125 C123 0.960 . S
H126 C123 0.961 . S
O127 Co102 1.967 . S
O127 C135 1.258 . S
O128 Co103 1.941 . S
O128 C135 1.266 . S
H129 C131 0.959 . S
H130 C131 0.961 . S
C131 C121 1.510 . S
C131 H129 0.959 . S
C131 H130 0.961 . S
C131 H132 0.960 . S
H132 C131 0.960 . S
H133 N113 0.862 . S
O134 Co102 1.920 . S
O134 C107 1.289 . S
C135 O127 1.258 . S
C135 O128 1.266 . S
Co136 O139 1.970 . S
Co136 N153 1.989 . S
Co136 O161 1.967 . S
Co136 O168 1.920 . S
Co137 O140 1.966 . S
Co137 N146 2.022 . S
Co137 N154 1.993 . S
Co137 O162 1.941 . S
C138 O139 1.258 . S
C138 O140 1.263 . S
O139 Co136 1.970 . S
O139 C138 1.258 . S
O140 Co137 1.966 . S
O140 C138 1.263 . S
C141 O142 1.235 . S
C141 O168 1.289 . S
O142 C141 1.235 . S
C143 C145 1.400 . S
C143 N146 1.351 . S
C143 C148 1.501 . S
C144 C145 1.387 . S
C144 N147 1.341 . S
C145 C143 1.400 . S
C145 C144 1.387 . S
N146 Co137 2.022 . S
N146 C143 1.351 . S
N146 N147 1.365 . S
N147 C144 1.341 . S
N147 N146 1.365 . S
N147 H167 0.862 . S
C148 C143 1.501 . S
C148 H149 0.961 . S
C148 H150 0.961 . S
C148 H151 0.960 . S
H149 C148 0.961 . S
H150 C148 0.961 . S
H151 C148 0.960 . S
C152 N153 1.342 . S
C152 C156 1.401 . S
C152 C157 1.499 . S
N153 Co136 1.989 . S
N153 C152 1.342 . S
N153 N154 1.388 . S
N154 Co137 1.993 . S
N154 N153 1.388 . S
N154 C155 1.346 . S
C155 N154 1.346 . S
C155 C156 1.396 . S
C155 C165 1.510 . S
C156 C152 1.401 . S
C156 C155 1.396 . S
C157 C152 1.499 . S
C157 H158 0.959 . S
C157 H159 0.960 . S
C157 H160 0.961 . S
H158 C157 0.959 . S
H159 C157 0.960 . S
H160 C157 0.961 . S
O161 Co136 1.967 . S
O161 C169 1.258 . S
O162 Co137 1.941 . S
O162 C169 1.266 . S
H163 C165 0.959 . S
H164 C165 0.961 . S
C165 C155 1.510 . S
C165 H163 0.959 . S
C165 H164 0.961 . S
C165 H166 0.960 . S
H166 C165 0.960 . S
H167 N147 0.862 . S
O168 Co136 1.920 . S
O168 C141 1.289 . S
C169 O161 1.258 . S
C169 O162 1.266 . S
Co170 O173 1.970 . S
Co170 N187 1.989 . S
Co170 O195 1.967 . S
Co170 O202 1.920 . S
Co171 O174 1.966 . S
Co171 N180 2.022 . S
Co171 N188 1.993 . S
Co171 O196 1.941 . S
C172 O173 1.258 . S
C172 O174 1.263 . S
O173 Co170 1.970 . S
O173 C172 1.258 . S
O174 Co171 1.966 . S
O174 C172 1.263 . S
C175 O176 1.235 . S
C175 O202 1.289 . S
O176 C175 1.235 . S
C177 C179 1.400 . S
C177 N180 1.351 . S
C177 C182 1.501 . S
C178 C179 1.387 . S
C178 N181 1.341 . S
C179 C177 1.400 . S
C179 C178 1.387 . S
N180 Co171 2.022 . S
N180 C177 1.351 . S
N180 N181 1.365 . S
N181 C178 1.341 . S
N181 N180 1.365 . S
N181 H201 0.862 . S
C182 C177 1.501 . S
C182 H183 0.961 . S
C182 H184 0.961 . S
C182 H185 0.960 . S
H183 C182 0.961 . S
H184 C182 0.961 . S
H185 C182 0.960 . S
C186 N187 1.342 . S
C186 C190 1.401 . S
C186 C191 1.499 . S
N187 Co170 1.989 . S
N187 C186 1.342 . S
N187 N188 1.388 . S
N188 Co171 1.993 . S
N188 N187 1.388 . S
N188 C189 1.346 . S
C189 N188 1.346 . S
C189 C190 1.396 . S
C189 C199 1.510 . S
C190 C186 1.401 . S
C190 C189 1.396 . S
C191 C186 1.499 . S
C191 H192 0.959 . S
C191 H193 0.960 . S
C191 H194 0.961 . S
H192 C191 0.959 . S
H193 C191 0.960 . S
H194 C191 0.961 . S
O195 Co170 1.967 . S
O195 C203 1.258 . S
O196 Co171 1.941 . S
O196 C203 1.266 . S
H197 C199 0.959 . S
H198 C199 0.961 . S
C199 C189 1.510 . S
C199 H197 0.959 . S
C199 H198 0.961 . S
C199 H200 0.960 . S
H200 C199 0.960 . S
H201 N181 0.862 . S
O202 Co170 1.920 . S
O202 C175 1.289 . S
C203 O195 1.258 . S
C203 O196 1.266 . S
Co204 O207 1.970 . S
Co204 N221 1.989 . S
Co204 O229 1.967 . S
Co204 O236 1.920 . S
Co205 O208 1.966 . S
Co205 N214 2.022 . S
Co205 N222 1.993 . S
Co205 O230 1.941 . S
C206 O207 1.258 . S
C206 O208 1.263 . S
O207 Co204 1.970 . S
O207 C206 1.258 . S
O208 Co205 1.966 . S
O208 C206 1.263 . S
C209 O210 1.235 . S
C209 O236 1.289 . S
O210 C209 1.235 . S
C211 C213 1.400 . S
C211 N214 1.351 . S
C211 C216 1.501 . S
C212 C213 1.387 . S
C212 N215 1.341 . S
C213 C211 1.400 . S
C213 C212 1.387 . S
N214 Co205 2.022 . S
N214 C211 1.351 . S
N214 N215 1.365 . S
N215 C212 1.341 . S
N215 N214 1.365 . S
N215 H235 0.862 . S
C216 C211 1.501 . S
C216 H217 0.961 . S
C216 H218 0.961 . S
C216 H219 0.960 . S
H217 C216 0.961 . S
H218 C216 0.961 . S
H219 C216 0.960 . S
C220 N221 1.342 . S
C220 C224 1.401 . S
C220 C225 1.499 . S
N221 Co204 1.989 . S
N221 C220 1.342 . S
N221 N222 1.388 . S
N222 Co205 1.993 . S
N222 N221 1.388 . S
N222 C223 1.346 . S
C223 N222 1.346 . S
C223 C224 1.396 . S
C223 C233 1.510 . S
C224 C220 1.401 . S
C224 C223 1.396 . S
C225 C220 1.499 . S
C225 H226 0.959 . S
C225 H227 0.960 . S
C225 H228 0.961 . S
H226 C225 0.959 . S
H227 C225 0.960 . S
H228 C225 0.961 . S
O229 Co204 1.967 . S
O229 C237 1.258 . S
O230 Co205 1.941 . S
O230 C237 1.266 . S
H231 C233 0.959 . S
H232 C233 0.961 . S
C233 C223 1.510 . S
C233 H231 0.959 . S
C233 H232 0.961 . S
C233 H234 0.960 . S
H234 C233 0.960 . S
H235 N215 0.862 . S
O236 Co204 1.920 . S
O236 C209 1.289 . S
C237 O229 1.258 . S
C237 O230 1.266 . S
Co238 O241 1.970 . S
Co238 N255 1.989 . S
Co238 O263 1.967 . S
Co238 O270 1.920 . S
Co239 O242 1.966 . S
Co239 N248 2.022 . S
Co239 N256 1.993 . S
Co239 O264 1.941 . S
C240 O241 1.258 . S
C240 O242 1.263 . S
O241 Co238 1.970 . S
O241 C240 1.258 . S
O242 Co239 1.966 . S
O242 C240 1.263 . S
C243 O244 1.235 . S
C243 O270 1.289 . S
O244 C243 1.235 . S
C245 C247 1.400 . S
C245 N248 1.351 . S
C245 C250 1.501 . S
C246 C247 1.387 . S
C246 N249 1.341 . S
C247 C245 1.400 . S
C247 C246 1.387 . S
N248 Co239 2.022 . S
N248 C245 1.351 . S
N248 N249 1.365 . S
N249 C246 1.341 . S
N249 N248 1.365 . S
N249 H269 0.862 . S
C250 C245 1.501 . S
C250 H251 0.961 . S
C250 H252 0.961 . S
C250 H253 0.960 . S
H251 C250 0.961 . S
H252 C250 0.961 . S
H253 C250 0.960 . S
C254 N255 1.342 . S
C254 C258 1.401 . S
C254 C259 1.499 . S
N255 Co238 1.989 . S
N255 C254 1.342 . S
N255 N256 1.388 . S
N256 Co239 1.993 . S
N256 N255 1.388 . S
N256 C257 1.346 . S
C257 N256 1.346 . S
C257 C258 1.396 . S
C257 C267 1.510 . S
C258 C254 1.401 . S
C258 C257 1.396 . S
C259 C254 1.499 . S
C259 H260 0.959 . S
C259 H261 0.960 . S
C259 H262 0.961 . S
H260 C259 0.959 . S
H261 C259 0.960 . S
H262 C259 0.961 . S
O263 Co238 1.967 . S
O263 C271 1.258 . S
O264 Co239 1.941 . S
O264 C271 1.266 . S
H265 C267 0.959 . S
H266 C267 0.961 . S
C267 C257 1.510 . S
C267 H265 0.959 . S
C267 H266 0.961 . S
C267 H268 0.960 . S
H268 C267 0.960 . S
H269 N249 0.862 . S
O270 Co238 1.920 . S
O270 C243 1.289 . S
C271 O263 1.258 . S
C271 O264 1.266 . S
Co272 O275 1.970 . S
Co272 N289 1.989 . S
Co272 O297 1.967 . S
Co272 O304 1.920 . S
Co273 O276 1.966 . S
Co273 N282 2.022 . S
Co273 N290 1.993 . S
Co273 O298 1.941 . S
C274 O275 1.258 . S
C274 O276 1.263 . S
O275 Co272 1.970 . S
O275 C274 1.258 . S
O276 Co273 1.966 . S
O276 C274 1.263 . S
C277 O278 1.235 . S
C277 O304 1.289 . S
O278 C277 1.235 . S
C279 C281 1.400 . S
C279 N282 1.351 . S
C279 C284 1.501 . S
C280 C281 1.387 . S
C280 N283 1.341 . S
C281 C279 1.400 . S
C281 C280 1.387 . S
N282 Co273 2.022 . S
N282 C279 1.351 . S
N282 N283 1.365 . S
N283 C280 1.341 . S
N283 N282 1.365 . S
N283 H303 0.862 . S
C284 C279 1.501 . S
C284 H285 0.961 . S
C284 H286 0.961 . S
C284 H287 0.960 . S
H285 C284 0.961 . S
H286 C284 0.961 . S
H287 C284 0.960 . S
C288 N289 1.342 . S
C288 C292 1.401 . S
C288 C293 1.499 . S
N289 Co272 1.989 . S
N289 C288 1.342 . S
N289 N290 1.388 . S
N290 Co273 1.993 . S
N290 N289 1.388 . S
N290 C291 1.346 . S
C291 N290 1.346 . S
C291 C292 1.396 . S
C291 C301 1.510 . S
C292 C288 1.401 . S
C292 C291 1.396 . S
C293 C288 1.499 . S
C293 H294 0.959 . S
C293 H295 0.960 . S
C293 H296 0.961 . S
H294 C293 0.959 . S
H295 C293 0.960 . S
H296 C293 0.961 . S
O297 Co272 1.967 . S
O297 C305 1.258 . S
O298 Co273 1.941 . S
O298 C305 1.266 . S
H299 C301 0.959 . S
H300 C301 0.961 . S
C301 C291 1.510 . S
C301 H299 0.959 . S
C301 H300 0.961 . S
C301 H302 0.960 . S
H302 C301 0.960 . S
H303 N283 0.862 . S
O304 Co272 1.920 . S
O304 C277 1.289 . S
C305 O297 1.258 . S
C305 O298 1.266 . S
Co306 O309 1.970 . S
Co306 N323 1.989 . S
Co306 O331 1.967 . S
Co306 O338 1.920 . S
Co307 O310 1.966 . S
Co307 N316 2.022 1_556 S
Co307 N324 1.993 . S
Co307 O332 1.941 . S
C308 O309 1.258 . S
C308 O310 1.263 . S
O309 Co306 1.970 . S
O309 C308 1.258 . S
O310 Co307 1.966 . S
O310 C308 1.263 . S
C311 O312 1.235 . S
C311 O338 1.289 . S
O312 C311 1.235 . S
C313 C315 1.400 . S
C313 N316 1.351 . S
C313 C318 1.501 . S
C314 C315 1.387 . S
C314 N317 1.341 . S
C315 C313 1.400 . S
C315 C314 1.387 . S
N316 Co307 2.022 1_554 S
N316 C313 1.351 . S
N316 N317 1.365 . S
N317 C314 1.341 . S
N317 N316 1.365 . S
N317 H337 0.862 . S
C318 C313 1.501 . S
C318 H319 0.961 . S
C318 H320 0.961 . S
C318 H321 0.960 . S
H319 C318 0.961 . S
H320 C318 0.961 . S
H321 C318 0.960 . S
C322 N323 1.342 . S
C322 C326 1.401 . S
C322 C327 1.499 . S
N323 Co306 1.989 . S
N323 C322 1.342 . S
N323 N324 1.388 . S
N324 Co307 1.993 . S
N324 N323 1.388 . S
N324 C325 1.346 . S
C325 N324 1.346 . S
C325 C326 1.396 . S
C325 C335 1.510 1_556 S
C326 C322 1.401 . S
C326 C325 1.396 . S
C327 C322 1.499 . S
C327 H328 0.959 . S
C327 H329 0.960 . S
C327 H330 0.961 . S
H328 C327 0.959 . S
H329 C327 0.960 . S
H330 C327 0.961 . S
O331 Co306 1.967 . S
O331 C339 1.258 . S
O332 Co307 1.941 . S
O332 C339 1.266 . S
H333 C335 0.959 . S
H334 C335 0.961 . S
C335 C325 1.510 1_554 S
C335 H333 0.959 . S
C335 H334 0.961 . S
C335 H336 0.960 . S
H336 C335 0.960 . S
H337 N317 0.862 . S
O338 Co306 1.920 . S
O338 C311 1.289 . S
C339 O331 1.258 . S
C339 O332 1.266 . S
Co340 O343 1.970 . S
Co340 N357 1.989 . S
Co340 O365 1.967 . S
Co340 O372 1.920 . S
Co341 O344 1.966 . S
Co341 N350 2.022 1_556 S
Co341 N358 1.993 . S
Co341 O366 1.941 . S
C342 O343 1.258 . S
C342 O344 1.263 . S
O343 Co340 1.970 . S
O343 C342 1.258 . S
O344 Co341 1.966 . S
O344 C342 1.263 . S
C345 O346 1.235 . S
C345 O372 1.289 . S
O346 C345 1.235 . S
C347 C349 1.400 . S
C347 N350 1.351 . S
C347 C352 1.501 . S
C348 C349 1.387 . S
C348 N351 1.341 . S
C349 C347 1.400 . S
C349 C348 1.387 . S
N350 Co341 2.022 1_554 S
N350 C347 1.351 . S
N350 N351 1.365 . S
N351 C348 1.341 . S
N351 N350 1.365 . S
N351 H371 0.862 . S
C352 C347 1.501 . S
C352 H353 0.961 . S
C352 H354 0.961 . S
C352 H355 0.960 . S
H353 C352 0.961 . S
H354 C352 0.961 . S
H355 C352 0.960 . S
C356 N357 1.342 . S
C356 C360 1.401 . S
C356 C361 1.499 . S
N357 Co340 1.989 . S
N357 C356 1.342 . S
N357 N358 1.388 . S
N358 Co341 1.993 . S
N358 N357 1.388 . S
N358 C359 1.346 . S
C359 N358 1.346 . S
C359 C360 1.396 . S
C359 C369 1.510 1_556 S
C360 C356 1.401 . S
C360 C359 1.396 . S
C361 C356 1.499 . S
C361 H362 0.959 . S
C361 H363 0.960 . S
C361 H364 0.961 . S
H362 C361 0.959 . S
H363 C361 0.960 . S
H364 C361 0.961 . S
O365 Co340 1.967 . S
O365 C373 1.258 . S
O366 Co341 1.941 . S
O366 C373 1.266 . S
H367 C369 0.959 . S
H368 C369 0.961 . S
C369 C359 1.510 1_554 S
C369 H367 0.959 . S
C369 H368 0.961 . S
C369 H370 0.960 . S
H370 C369 0.960 . S
H371 N351 0.862 . S
O372 Co340 1.920 . S
O372 C345 1.289 . S
C373 O365 1.258 . S
C373 O366 1.266 . S
Co374 O377 1.970 . S
Co374 N391 1.989 . S
Co374 O399 1.967 . S
Co374 O406 1.920 . S
Co375 O378 1.966 . S
Co375 N384 2.022 1_556 S
Co375 N392 1.993 . S
Co375 O400 1.941 . S
C376 O377 1.258 . S
C376 O378 1.263 . S
O377 Co374 1.970 . S
O377 C376 1.258 . S
O378 Co375 1.966 . S
O378 C376 1.263 . S
C379 O380 1.235 . S
C379 O406 1.289 . S
O380 C379 1.235 . S
C381 C383 1.400 . S
C381 N384 1.351 . S
C381 C386 1.501 . S
C382 C383 1.387 . S
C382 N385 1.341 . S
C383 C381 1.400 . S
C383 C382 1.387 . S
N384 Co375 2.022 1_554 S
N384 C381 1.351 . S
N384 N385 1.365 . S
N385 C382 1.341 . S
N385 N384 1.365 . S
N385 H405 0.862 . S
C386 C381 1.501 . S
C386 H387 0.961 . S
C386 H388 0.961 . S
C386 H389 0.960 . S
H387 C386 0.961 . S
H388 C386 0.961 . S
H389 C386 0.960 . S
C390 N391 1.342 . S
C390 C394 1.401 . S
C390 C395 1.499 . S
N391 Co374 1.989 . S
N391 C390 1.342 . S
N391 N392 1.388 . S
N392 Co375 1.993 . S
N392 N391 1.388 . S
N392 C393 1.346 . S
C393 N392 1.346 . S
C393 C394 1.396 . S
C393 C403 1.510 1_556 S
C394 C390 1.401 . S
C394 C393 1.396 . S
C395 C390 1.499 . S
C395 H396 0.959 . S
C395 H397 0.960 . S
C395 H398 0.961 . S
H396 C395 0.959 . S
H397 C395 0.960 . S
H398 C395 0.961 . S
O399 Co374 1.967 . S
O399 C407 1.258 . S
O400 Co375 1.941 . S
O400 C407 1.266 . S
H401 C403 0.959 . S
H402 C403 0.961 . S
C403 C393 1.510 1_554 S
C403 H401 0.959 . S
C403 H402 0.961 . S
C403 H404 0.960 . S
H404 C403 0.960 . S
H405 N385 0.862 . S
O406 Co374 1.920 . S
O406 C379 1.289 . S
C407 O399 1.258 . S
C407 O400 1.266 . S
Co408 O411 1.970 . S
Co408 N425 1.989 . S
Co408 O433 1.967 . S
Co408 O440 1.920 . S
Co409 O412 1.966 . S
Co409 N418 2.022 1_554 S
Co409 N426 1.993 . S
Co409 O434 1.941 . S
C410 O411 1.258 . S
C410 O412 1.263 . S
O411 Co408 1.970 . S
O411 C410 1.258 . S
O412 Co409 1.966 . S
O412 C410 1.263 . S
C413 O414 1.235 . S
C413 O440 1.289 . S
O414 C413 1.235 . S
C415 C417 1.400 . S
C415 N418 1.351 . S
C415 C420 1.501 . S
C416 C417 1.387 . S
C416 N419 1.341 . S
C417 C415 1.400 . S
C417 C416 1.387 . S
N418 Co409 2.022 1_556 S
N418 C415 1.351 . S
N418 N419 1.365 . S
N419 C416 1.341 . S
N419 N418 1.365 . S
N419 H439 0.862 . S
C420 C415 1.501 . S
C420 H421 0.961 . S
C420 H422 0.961 . S
C420 H423 0.960 . S
H421 C420 0.961 . S
H422 C420 0.961 . S
H423 C420 0.960 . S
C424 N425 1.342 . S
C424 C428 1.401 . S
C424 C429 1.499 . S
N425 Co408 1.989 . S
N425 C424 1.342 . S
N425 N426 1.388 . S
N426 Co409 1.993 . S
N426 N425 1.388 . S
N426 C427 1.346 . S
C427 N426 1.346 . S
C427 C428 1.396 . S
C427 C437 1.510 1_554 S
C428 C424 1.401 . S
C428 C427 1.396 . S
C429 C424 1.499 . S
C429 H430 0.959 . S
C429 H431 0.960 . S
C429 H432 0.961 . S
H430 C429 0.959 . S
H431 C429 0.960 . S
H432 C429 0.961 . S
O433 Co408 1.967 . S
O433 C441 1.258 . S
O434 Co409 1.941 . S
O434 C441 1.266 . S
H435 C437 0.959 . S
H436 C437 0.961 . S
C437 C427 1.510 1_556 S
C437 H435 0.959 . S
C437 H436 0.961 . S
C437 H438 0.960 . S
H438 C437 0.960 . S
H439 N419 0.862 . S
O440 Co408 1.920 . S
O440 C413 1.289 . S
C441 O433 1.258 . S
C441 O434 1.266 . S
Co442 O445 1.970 . S
Co442 N459 1.989 . S
Co442 O467 1.967 . S
Co442 O474 1.920 . S
Co443 O446 1.966 . S
Co443 N452 2.022 1_554 S
Co443 N460 1.993 . S
Co443 O468 1.941 . S
C444 O445 1.258 . S
C444 O446 1.263 . S
O445 Co442 1.970 . S
O445 C444 1.258 . S
O446 Co443 1.966 . S
O446 C444 1.263 . S
C447 O448 1.235 . S
C447 O474 1.289 . S
O448 C447 1.235 . S
C449 C451 1.400 . S
C449 N452 1.351 . S
C449 C454 1.501 . S
C450 C451 1.387 . S
C450 N453 1.341 . S
C451 C449 1.400 . S
C451 C450 1.387 . S
N452 Co443 2.022 1_556 S
N452 C449 1.351 . S
N452 N453 1.365 . S
N453 C450 1.341 . S
N453 N452 1.365 . S
N453 H473 0.862 . S
C454 C449 1.501 . S
C454 H455 0.961 . S
C454 H456 0.961 . S
C454 H457 0.960 . S
H455 C454 0.961 . S
H456 C454 0.961 . S
H457 C454 0.960 . S
C458 N459 1.342 . S
C458 C462 1.401 . S
C458 C463 1.499 . S
N459 Co442 1.989 . S
N459 C458 1.342 . S
N459 N460 1.388 . S
N460 Co443 1.993 . S
N460 N459 1.388 . S
N460 C461 1.346 . S
C461 N460 1.346 . S
C461 C462 1.396 . S
C461 C471 1.510 1_554 S
C462 C458 1.401 . S
C462 C461 1.396 . S
C463 C458 1.499 . S
C463 H464 0.959 . S
C463 H465 0.960 . S
C463 H466 0.961 . S
H464 C463 0.959 . S
H465 C463 0.960 . S
H466 C463 0.961 . S
O467 Co442 1.967 . S
O467 C475 1.258 . S
O468 Co443 1.941 . S
O468 C475 1.266 . S
H469 C471 0.959 . S
H470 C471 0.961 . S
C471 C461 1.510 1_556 S
C471 H469 0.959 . S
C471 H470 0.961 . S
C471 H472 0.960 . S
H472 C471 0.960 . S
H473 N453 0.862 . S
O474 Co442 1.920 . S
O474 C447 1.289 . S
C475 O467 1.258 . S
C475 O468 1.266 . S
Co476 O479 1.970 . S
Co476 N493 1.989 . S
Co476 O501 1.967 . S
Co476 O508 1.920 . S
Co477 O480 1.966 . S
Co477 N486 2.022 1_554 S
Co477 N494 1.993 . S
Co477 O502 1.941 . S
C478 O479 1.258 . S
C478 O480 1.263 . S
O479 Co476 1.970 . S
O479 C478 1.258 . S
O480 Co477 1.966 . S
O480 C478 1.263 . S
C481 O482 1.235 . S
C481 O508 1.289 . S
O482 C481 1.235 . S
C483 C485 1.400 . S
C483 N486 1.351 . S
C483 C488 1.501 . S
C484 C485 1.387 . S
C484 N487 1.341 . S
C485 C483 1.400 . S
C485 C484 1.387 . S
N486 Co477 2.022 1_556 S
N486 C483 1.351 . S
N486 N487 1.365 . S
N487 C484 1.341 . S
N487 N486 1.365 . S
N487 H507 0.862 . S
C488 C483 1.501 . S
C488 H489 0.961 . S
C488 H490 0.961 . S
C488 H491 0.960 . S
H489 C488 0.961 . S
H490 C488 0.961 . S
H491 C488 0.960 . S
C492 N493 1.342 . S
C492 C496 1.401 . S
C492 C497 1.499 . S
N493 Co476 1.989 . S
N493 C492 1.342 . S
N493 N494 1.388 . S
N494 Co477 1.993 . S
N494 N493 1.388 . S
N494 C495 1.346 . S
C495 N494 1.346 . S
C495 C496 1.396 . S
C495 C505 1.510 1_554 S
C496 C492 1.401 . S
C496 C495 1.396 . S
C497 C492 1.499 . S
C497 H498 0.959 . S
C497 H499 0.960 . S
C497 H500 0.961 . S
H498 C497 0.959 . S
H499 C497 0.960 . S
H500 C497 0.961 . S
O501 Co476 1.967 . S
O501 C509 1.258 . S
O502 Co477 1.941 . S
O502 C509 1.266 . S
H503 C505 0.959 . S
H504 C505 0.961 . S
C505 C495 1.510 1_556 S
C505 H503 0.959 . S
C505 H504 0.961 . S
C505 H506 0.960 . S
H506 C505 0.960 . S
H507 N487 0.862 . S
O508 Co476 1.920 . S
O508 C481 1.289 . S
C509 O501 1.258 . S
C509 O502 1.266 . S
Co510 O513 1.970 . S
Co510 N527 1.989 . S
Co510 O535 1.967 . S
Co510 O542 1.920 . S
Co511 O514 1.966 . S
Co511 N520 2.022 . S
Co511 N528 1.993 . S
Co511 O536 1.941 . S
C512 O513 1.258 . S
C512 O514 1.263 . S
O513 Co510 1.970 . S
O513 C512 1.258 . S
O514 Co511 1.966 . S
O514 C512 1.263 . S
C515 O516 1.235 . S
C515 O542 1.289 . S
O516 C515 1.235 . S
C517 C519 1.400 . S
C517 N520 1.351 . S
C517 C522 1.501 . S
C518 C519 1.387 . S
C518 N521 1.341 . S
C519 C517 1.400 . S
C519 C518 1.387 . S
N520 Co511 2.022 . S
N520 C517 1.351 . S
N520 N521 1.365 . S
N521 C518 1.341 . S
N521 N520 1.365 . S
N521 H541 0.862 . S
C522 C517 1.501 . S
C522 H523 0.961 . S
C522 H524 0.961 . S
C522 H525 0.960 . S
H523 C522 0.961 . S
H524 C522 0.961 . S
H525 C522 0.960 . S
C526 N527 1.342 . S
C526 C530 1.401 . S
C526 C531 1.499 . S
N527 Co510 1.989 . S
N527 C526 1.342 . S
N527 N528 1.388 . S
N528 Co511 1.993 . S
N528 N527 1.388 . S
N528 C529 1.346 . S
C529 N528 1.346 . S
C529 C530 1.396 . S
C529 C539 1.510 . S
C530 C526 1.401 . S
C530 C529 1.396 . S
C531 C526 1.499 . S
C531 H532 0.959 . S
C531 H533 0.960 . S
C531 H534 0.961 . S
H532 C531 0.959 . S
H533 C531 0.960 . S
H534 C531 0.961 . S
O535 Co510 1.967 . S
O535 C543 1.258 . S
O536 Co511 1.941 . S
O536 C543 1.266 . S
H537 C539 0.959 . S
H538 C539 0.961 . S
C539 C529 1.510 . S
C539 H537 0.959 . S
C539 H538 0.961 . S
C539 H540 0.960 . S
H540 C539 0.960 . S
H541 N521 0.862 . S
O542 Co510 1.920 . S
O542 C515 1.289 . S
C543 O535 1.258 . S
C543 O536 1.266 . S
Co544 O547 1.970 . S
Co544 N561 1.989 . S
Co544 O569 1.967 . S
Co544 O576 1.920 . S
Co545 O548 1.966 . S
Co545 N554 2.022 . S
Co545 N562 1.993 . S
Co545 O570 1.941 . S
C546 O547 1.258 . S
C546 O548 1.263 . S
O547 Co544 1.970 . S
O547 C546 1.258 . S
O548 Co545 1.966 . S
O548 C546 1.263 . S
C549 O550 1.235 . S
C549 O576 1.289 . S
O550 C549 1.235 . S
C551 C553 1.400 . S
C551 N554 1.351 . S
C551 C556 1.501 . S
C552 C553 1.387 . S
C552 N555 1.341 . S
C553 C551 1.400 . S
C553 C552 1.387 . S
N554 Co545 2.022 . S
N554 C551 1.351 . S
N554 N555 1.365 . S
N555 C552 1.341 . S
N555 N554 1.365 . S
N555 H575 0.862 . S
C556 C551 1.501 . S
C556 H557 0.961 . S
C556 H558 0.961 . S
C556 H559 0.960 . S
H557 C556 0.961 . S
H558 C556 0.961 . S
H559 C556 0.960 . S
C560 N561 1.342 . S
C560 C564 1.401 . S
C560 C565 1.499 . S
N561 Co544 1.989 . S
N561 C560 1.342 . S
N561 N562 1.388 . S
N562 Co545 1.993 . S
N562 N561 1.388 . S
N562 C563 1.346 . S
C563 N562 1.346 . S
C563 C564 1.396 . S
C563 C573 1.510 . S
C564 C560 1.401 . S
C564 C563 1.396 . S
C565 C560 1.499 . S
C565 H566 0.959 . S
C565 H567 0.960 . S
C565 H568 0.961 . S
H566 C565 0.959 . S
H567 C565 0.960 . S
H568 C565 0.961 . S
O569 Co544 1.967 . S
O569 C577 1.258 . S
O570 Co545 1.941 . S
O570 C577 1.266 . S
H571 C573 0.959 . S
H572 C573 0.961 . S
C573 C563 1.510 . S
C573 H571 0.959 . S
C573 H572 0.961 . S
C573 H574 0.960 . S
H574 C573 0.960 . S
H575 N555 0.862 . S
O576 Co544 1.920 . S
O576 C549 1.289 . S
C577 O569 1.258 . S
C577 O570 1.266 . S
Co578 O581 1.970 . S
Co578 N595 1.989 . S
Co578 O603 1.967 . S
Co578 O610 1.920 . S
Co579 O582 1.966 . S
Co579 N588 2.022 . S
Co579 N596 1.993 . S
Co579 O604 1.941 . S
C580 O581 1.258 . S
C580 O582 1.263 . S
O581 Co578 1.970 . S
O581 C580 1.258 . S
O582 Co579 1.966 . S
O582 C580 1.263 . S
C583 O584 1.235 . S
C583 O610 1.289 . S
O584 C583 1.235 . S
C585 C587 1.400 . S
C585 N588 1.351 . S
C585 C590 1.501 . S
C586 C587 1.387 . S
C586 N589 1.341 . S
C587 C585 1.400 . S
C587 C586 1.387 . S
N588 Co579 2.022 . S
N588 C585 1.351 . S
N588 N589 1.365 . S
N589 C586 1.341 . S
N589 N588 1.365 . S
N589 H609 0.862 . S
C590 C585 1.501 . S
C590 H591 0.961 . S
C590 H592 0.961 . S
C590 H593 0.960 . S
H591 C590 0.961 . S
H592 C590 0.961 . S
H593 C590 0.960 . S
C594 N595 1.342 . S
C594 C598 1.401 . S
C594 C599 1.499 . S
N595 Co578 1.989 . S
N595 C594 1.342 . S
N595 N596 1.388 . S
N596 Co579 1.993 . S
N596 N595 1.388 . S
N596 C597 1.346 . S
C597 N596 1.346 . S
C597 C598 1.396 . S
C597 C607 1.510 . S
C598 C594 1.401 . S
C598 C597 1.396 . S
C599 C594 1.499 . S
C599 H600 0.959 . S
C599 H601 0.960 . S
C599 H602 0.961 . S
H600 C599 0.959 . S
H601 C599 0.960 . S
H602 C599 0.961 . S
O603 Co578 1.967 . S
O603 C611 1.258 . S
O604 Co579 1.941 . S
O604 C611 1.266 . S
H605 C607 0.959 . S
H606 C607 0.961 . S
C607 C597 1.510 . S
C607 H605 0.959 . S
C607 H606 0.961 . S
C607 H608 0.960 . S
H608 C607 0.960 . S
H609 N589 0.862 . S
O610 Co578 1.920 . S
O610 C583 1.289 . S
C611 O603 1.258 . S
C611 O604 1.266 . S
H612 C620 0.950 . S
H613 C625 0.950 . S
H614 C622 0.950 . S
H615 C624 0.950 . S
H616 C626 0.950 . S
H617 C628 0.950 . S
H618 C630 0.950 . S
H619 C631 0.950 . S
C620 H612 0.950 . S
C620 C621 1.386 . S
C620 C622 1.391 . S
C621 C620 1.386 . S
C621 C625 1.393 . S
C622 H614 0.950 . S
C622 C620 1.391 . S
C622 C623 1.400 . S
C623 C622 1.400 . S
C623 C624 1.398 . S
C623 C629 1.491 . S
C624 H615 0.950 . S
C624 C623 1.398 . S
C624 C625 1.391 . S
C625 H613 0.950 . S
C625 C621 1.393 . S
C625 C624 1.391 . S
C626 H616 0.950 . S
C626 C627 1.386 . S
C626 C628 1.391 . S
C627 C626 1.386 . S
C627 C631 1.393 . S
C628 H617 0.950 . S
C628 C626 1.391 . S
C628 C629 1.400 . S
C629 C623 1.491 . S
C629 C628 1.400 . S
C629 C630 1.398 . S
C630 H618 0.950 . S
C630 C629 1.398 . S
C630 C631 1.391 . S
C631 H619 0.950 . S
C631 C627 1.393 . S
C631 C630 1.391 . S
H632 C640 0.950 . S
H633 C645 0.950 . S
H634 C642 0.950 . S
H635 C644 0.950 . S
H636 C646 0.950 . S
H637 C648 0.950 . S
H638 C650 0.950 . S
H639 C651 0.950 . S
C640 H632 0.950 . S
C640 C641 1.386 . S
C640 C642 1.391 . S
C641 C640 1.386 . S
C641 C645 1.393 . S
C642 H634 0.950 . S
C642 C640 1.391 . S
C642 C643 1.400 . S
C643 C642 1.400 . S
C643 C644 1.398 . S
C643 C649 1.491 1_545 S
C644 H635 0.950 . S
C644 C643 1.398 . S
C644 C645 1.391 . S
C645 H633 0.950 . S
C645 C641 1.393 . S
C645 C644 1.391 . S
C646 H636 0.950 . S
C646 C647 1.386 . S
C646 C648 1.391 . S
C647 C646 1.386 . S
C647 C651 1.393 . S
C648 H637 0.950 . S
C648 C646 1.391 . S
C648 C649 1.400 . S
C649 C643 1.491 1_565 S
C649 C648 1.400 . S
C649 C650 1.398 . S
C650 H638 0.950 . S
C650 C649 1.398 . S
C650 C651 1.391 . S
C651 H639 0.950 . S
C651 C647 1.393 . S
C651 C650 1.391 . S
H652 C660 0.950 . S
H653 C665 0.950 . S
H654 C662 0.950 . S
H655 C664 0.950 . S
H656 C666 0.950 . S
H657 C668 0.950 . S
H658 C670 0.950 . S
H659 C671 0.950 . S
C660 H652 0.950 . S
C660 C661 1.386 . S
C660 C662 1.391 . S
C661 C660 1.386 . S
C661 C665 1.393 . S
C662 H654 0.950 . S
C662 C660 1.391 . S
C662 C663 1.400 . S
C663 C662 1.400 . S
C663 C664 1.398 . S
C663 C669 1.491 1_655 S
C664 H655 0.950 . S
C664 C663 1.398 . S
C664 C665 1.391 . S
C665 H653 0.950 . S
C665 C661 1.393 . S
C665 C664 1.391 . S
C666 H656 0.950 . S
C666 C667 1.386 . S
C666 C668 1.391 . S
C667 C666 1.386 . S
C667 C671 1.393 . S
C668 H657 0.950 . S
C668 C666 1.391 . S
C668 C669 1.400 . S
C669 C663 1.491 1_455 S
C669 C668 1.400 . S
C669 C670 1.398 . S
C670 H658 0.950 . S
C670 C669 1.398 . S
C670 C671 1.391 . S
C671 H659 0.950 . S
C671 C667 1.393 . S
C671 C670 1.391 . S
H672 C680 0.950 . S
H673 C685 0.950 . S
H674 C682 0.950 . S
H675 C684 0.950 . S
H676 C686 0.950 . S
H677 C688 0.950 . S
H678 C690 0.950 . S
H679 C691 0.950 . S
C680 H672 0.950 . S
C680 C681 1.386 . S
C680 C682 1.391 . S
C681 C680 1.386 . S
C681 C685 1.393 . S
C682 H674 0.950 . S
C682 C680 1.391 . S
C682 C683 1.400 . S
C683 C682 1.400 . S
C683 C684 1.398 . S
C683 C689 1.491 . S
C684 H675 0.950 . S
C684 C683 1.398 . S
C684 C685 1.391 . S
C685 H673 0.950 . S
C685 C681 1.393 . S
C685 C684 1.391 . S
C686 H676 0.950 . S
C686 C687 1.386 . S
C686 C688 1.391 . S
C687 C686 1.386 . S
C687 C691 1.393 . S
C688 H677 0.950 . S
C688 C686 1.391 . S
C688 C689 1.400 . S
C689 C683 1.491 . S
C689 C688 1.400 . S
C689 C690 1.398 . S
C690 H678 0.950 . S
C690 C689 1.398 . S
C690 C691 1.391 . S
C691 H679 0.950 . S
C691 C687 1.393 . S
C691 C690 1.391 . S
H692 C700 0.950 . S
H693 C705 0.950 . S
H694 C702 0.950 . S
H695 C704 0.950 . S
H696 C706 0.950 . S
H697 C708 0.950 . S
H698 C710 0.950 . S
H699 C711 0.950 . S
C700 H692 0.950 . S
C700 C701 1.386 . S
C700 C702 1.391 . S
C701 C700 1.386 . S
C701 C705 1.393 . S
C702 H694 0.950 . S
C702 C700 1.391 . S
C702 C703 1.400 . S
C703 C702 1.400 . S
C703 C704 1.398 . S
C703 C709 1.491 1_545 S
C704 H695 0.950 . S
C704 C703 1.398 . S
C704 C705 1.391 . S
C705 H693 0.950 . S
C705 C701 1.393 . S
C705 C704 1.391 . S
C706 H696 0.950 . S
C706 C707 1.386 . S
C706 C708 1.391 . S
C707 C706 1.386 . S
C707 C711 1.393 . S
C708 H697 0.950 . S
C708 C706 1.391 . S
C708 C709 1.400 . S
C709 C703 1.491 1_565 S
C709 C708 1.400 . S
C709 C710 1.398 . S
C710 H698 0.950 . S
C710 C709 1.398 . S
C710 C711 1.391 . S
C711 H699 0.950 . S
C711 C707 1.393 . S
C711 C710 1.391 . S
H712 C720 0.950 . S
H713 C725 0.950 . S
H714 C722 0.950 . S
H715 C724 0.950 . S
H716 C726 0.950 . S
H717 C728 0.950 . S
H718 C730 0.950 . S
H719 C731 0.950 . S
C720 H712 0.950 . S
C720 C721 1.386 . S
C720 C722 1.391 . S
C721 C720 1.386 . S
C721 C725 1.393 . S
C722 H714 0.950 . S
C722 C720 1.391 . S
C722 C723 1.400 . S
C723 C722 1.400 . S
C723 C724 1.398 . S
C723 C729 1.491 1_655 S
C724 H715 0.950 . S
C724 C723 1.398 . S
C724 C725 1.391 . S
C725 H713 0.950 . S
C725 C721 1.393 . S
C725 C724 1.391 . S
C726 H716 0.950 . S
C726 C727 1.386 . S
C726 C728 1.391 . S
C727 C726 1.386 . S
C727 C731 1.393 . S
C728 H717 0.950 . S
C728 C726 1.391 . S
C728 C729 1.400 . S
C729 C723 1.491 1_455 S
C729 C728 1.400 . S
C729 C730 1.398 . S
C730 H718 0.950 . S
C730 C729 1.398 . S
C730 C731 1.391 . S
C731 H719 0.950 . S
C731 C727 1.393 . S
C731 C730 1.391 . S
H732 C740 0.950 . S
H733 C745 0.950 . S
H734 C742 0.950 . S
H735 C744 0.950 . S
H736 C746 0.950 . S
H737 C748 0.950 . S
H738 C750 0.950 . S
H739 C751 0.950 . S
C740 H732 0.950 . S
C740 C741 1.386 . S
C740 C742 1.391 . S
C741 C740 1.386 . S
C741 C745 1.393 . S
C742 H734 0.950 . S
C742 C740 1.391 . S
C742 C743 1.400 . S
C743 C742 1.400 . S
C743 C744 1.398 . S
C743 C749 1.491 . S
C744 H735 0.950 . S
C744 C743 1.398 . S
C744 C745 1.391 . S
C745 H733 0.950 . S
C745 C741 1.393 . S
C745 C744 1.391 . S
C746 H736 0.950 . S
C746 C747 1.386 . S
C746 C748 1.391 . S
C747 C746 1.386 . S
C747 C751 1.393 . S
C748 H737 0.950 . S
C748 C746 1.391 . S
C748 C749 1.400 . S
C749 C743 1.491 . S
C749 C748 1.400 . S
C749 C750 1.398 . S
C750 H738 0.950 . S
C750 C749 1.398 . S
C750 C751 1.391 . S
C751 H739 0.950 . S
C751 C747 1.393 . S
C751 C750 1.391 . S
H752 C760 0.950 . S
H753 C765 0.950 . S
H754 C762 0.950 . S
H755 C764 0.950 . S
H756 C766 0.950 . S
H757 C768 0.950 . S
H758 C770 0.950 . S
H759 C771 0.950 . S
C760 H752 0.950 . S
C760 C761 1.386 . S
C760 C762 1.391 . S
C761 C760 1.386 . S
C761 C765 1.393 . S
C762 H754 0.950 . S
C762 C760 1.391 . S
C762 C763 1.400 . S
C763 C762 1.400 . S
C763 C764 1.398 . S
C763 C769 1.491 . S
C764 H755 0.950 . S
C764 C763 1.398 . S
C764 C765 1.391 . S
C765 H753 0.950 . S
C765 C761 1.393 . S
C765 C764 1.391 . S
C766 H756 0.950 . S
C766 C767 1.386 . S
C766 C768 1.391 . S
C767 C766 1.386 . S
C767 C771 1.393 . S
C768 H757 0.950 . S
C768 C766 1.391 . S
C768 C769 1.400 . S
C769 C763 1.491 . S
C769 C768 1.400 . S
C769 C770 1.398 . S
C770 H758 0.950 . S
C770 C769 1.398 . S
C770 C771 1.391 . S
C771 H759 0.950 . S
C771 C767 1.393 . S
C771 C770 1.391 . S
H772 C780 0.950 . S
H773 C785 0.950 . S
H774 C782 0.950 . S
H775 C784 0.950 . S
H776 C786 0.950 . S
H777 C788 0.950 . S
H778 C790 0.950 . S
H779 C791 0.950 . S
C780 H772 0.950 . S
C780 C781 1.386 . S
C780 C782 1.391 . S
C781 C780 1.386 . S
C781 C785 1.393 . S
C782 H774 0.950 . S
C782 C780 1.391 . S
C782 C783 1.400 . S
C783 C782 1.400 . S
C783 C784 1.398 . S
C783 C789 1.491 . S
C784 H775 0.950 . S
C784 C783 1.398 . S
C784 C785 1.391 . S
C785 H773 0.950 . S
C785 C781 1.393 . S
C785 C784 1.391 . S
C786 H776 0.950 . S
C786 C787 1.386 . S
C786 C788 1.391 . S
C787 C786 1.386 . S
C787 C791 1.393 . S
C788 H777 0.950 . S
C788 C786 1.391 . S
C788 C789 1.400 . S
C789 C783 1.491 . S
C789 C788 1.400 . S
C789 C790 1.398 . S
C790 H778 0.950 . S
C790 C789 1.398 . S
C790 C791 1.391 . S
C791 H779 0.950 . S
C791 C787 1.393 . S
C791 C790 1.391 . S
H792 C800 0.950 . S
H793 C805 0.950 . S
H794 C802 0.950 . S
H795 C804 0.950 . S
H796 C806 0.950 . S
H797 C808 0.950 . S
H798 C810 0.950 . S
H799 C811 0.950 . S
C800 H792 0.950 . S
C800 C801 1.386 . S
C800 C802 1.391 . S
C801 C800 1.386 . S
C801 C805 1.393 . S
C802 H794 0.950 . S
C802 C800 1.391 . S
C802 C803 1.400 . S
C803 C802 1.400 . S
C803 C804 1.398 . S
C803 C809 1.491 . S
C804 H795 0.950 . S
C804 C803 1.398 . S
C804 C805 1.391 . S
C805 H793 0.950 . S
C805 C801 1.393 . S
C805 C804 1.391 . S
C806 H796 0.950 . S
C806 C807 1.386 . S
C806 C808 1.391 . S
C807 C806 1.386 . S
C807 C811 1.393 . S
C808 H797 0.950 . S
C808 C806 1.391 . S
C808 C809 1.400 . S
C809 C803 1.491 . S
C809 C808 1.400 . S
C809 C810 1.398 . S
C810 H798 0.950 . S
C810 C809 1.398 . S
C810 C811 1.391 . S
C811 H799 0.950 . S
C811 C807 1.393 . S
C811 C810 1.391 . S
H812 C820 0.950 . S
H813 C825 0.950 . S
H814 C822 0.950 . S
H815 C824 0.950 . S
H816 C826 0.950 . S
H817 C828 0.950 . S
H818 C830 0.950 . S
H819 C831 0.950 . S
C820 H812 0.950 . S
C820 C821 1.386 . S
C820 C822 1.391 . S
C821 C820 1.386 . S
C821 C825 1.393 . S
C822 H814 0.950 . S
C822 C820 1.391 . S
C822 C823 1.400 . S
C823 C822 1.400 . S
C823 C824 1.398 . S
C823 C829 1.491 . S
C824 H815 0.950 . S
C824 C823 1.398 . S
C824 C825 1.391 . S
C825 H813 0.950 . S
C825 C821 1.393 . S
C825 C824 1.391 . S
C826 H816 0.950 . S
C826 C827 1.386 . S
C826 C828 1.391 . S
C827 C826 1.386 . S
C827 C831 1.393 . S
C828 H817 0.950 . S
C828 C826 1.391 . S
C828 C829 1.400 . S
C829 C823 1.491 . S
C829 C828 1.400 . S
C829 C830 1.398 . S
C830 H818 0.950 . S
C830 C829 1.398 . S
C830 C831 1.391 . S
C831 H819 0.950 . S
C831 C827 1.393 . S
C831 C830 1.391 . S
H832 C840 0.950 . S
H833 C845 0.950 . S
H834 C842 0.950 . S
H835 C844 0.950 . S
H836 C846 0.950 . S
H837 C848 0.950 . S
H838 C850 0.950 . S
H839 C851 0.950 . S
C840 H832 0.950 . S
C840 C841 1.386 . S
C840 C842 1.391 . S
C841 C840 1.386 . S
C841 C845 1.393 . S
C842 H834 0.950 . S
C842 C840 1.391 . S
C842 C843 1.400 . S
C843 C842 1.400 . S
C843 C844 1.398 . S
C843 C849 1.491 . S
C844 H835 0.950 . S
C844 C843 1.398 . S
C844 C845 1.391 . S
C845 H833 0.950 . S
C845 C841 1.393 . S
C845 C844 1.391 . S
C846 H836 0.950 . S
C846 C847 1.386 . S
C846 C848 1.391 . S
C847 C846 1.386 . S
C847 C851 1.393 . S
C848 H837 0.950 . S
C848 C846 1.391 . S
C848 C849 1.400 . S
C849 C843 1.491 . S
C849 C848 1.400 . S
C849 C850 1.398 . S
C850 H838 0.950 . S
C850 C849 1.398 . S
C850 C851 1.391 . S
C851 H839 0.950 . S
C851 C847 1.393 . S
C851 C850 1.391 . S
H852 C860 0.950 . S
H853 C865 0.950 . S
H854 C862 0.950 . S
H855 C864 0.950 . S
H856 C866 0.950 . S
H857 C868 0.950 . S
H858 C870 0.950 . S
H859 C871 0.950 . S
C860 H852 0.950 . S
C860 C861 1.386 . S
C860 C862 1.391 . S
C861 C860 1.386 . S
C861 C865 1.393 . S
C862 H854 0.950 . S
C862 C860 1.391 . S
C862 C863 1.400 . S
C863 C862 1.400 . S
C863 C864 1.398 . S
C863 C869 1.491 . S
C864 H855 0.950 . S
C864 C863 1.398 . S
C864 C865 1.391 . S
C865 H853 0.950 . S
C865 C861 1.393 . S
C865 C864 1.391 . S
C866 H856 0.950 . S
C866 C867 1.386 . S
C866 C868 1.391 . S
C867 C866 1.386 . S
C867 C871 1.393 . S
C868 H857 0.950 . S
C868 C866 1.391 . S
C868 C869 1.400 . S
C869 C863 1.491 . S
C869 C868 1.400 . S
C869 C870 1.398 . S
C870 H858 0.950 . S
C870 C869 1.398 . S
C870 C871 1.391 . S
C871 H859 0.950 . S
C871 C867 1.393 . S
C871 C870 1.391 . S
H872 C880 0.950 . S
H873 C885 0.950 . S
H874 C882 0.950 . S
H875 C884 0.950 . S
H876 C886 0.950 . S
H877 C888 0.950 . S
H878 C890 0.950 . S
H879 C891 0.950 . S
C880 H872 0.950 . S
C880 C881 1.386 . S
C880 C882 1.391 . S
C881 C880 1.386 . S
C881 C885 1.393 . S
C882 H874 0.950 . S
C882 C880 1.391 . S
C882 C883 1.400 . S
C883 C882 1.400 . S
C883 C884 1.398 . S
C883 C889 1.491 . S
C884 H875 0.950 . S
C884 C883 1.398 . S
C884 C885 1.391 . S
C885 H873 0.950 . S
C885 C881 1.393 . S
C885 C884 1.391 . S
C886 H876 0.950 . S
C886 C887 1.386 . S
C886 C888 1.391 . S
C887 C886 1.386 . S
C887 C891 1.393 . S
C888 H877 0.950 . S
C888 C886 1.391 . S
C888 C889 1.400 . S
C889 C883 1.491 . S
C889 C888 1.400 . S
C889 C890 1.398 . S
C890 H878 0.950 . S
C890 C889 1.398 . S
C890 C891 1.391 . S
C891 H879 0.950 . S
C891 C887 1.393 . S
C891 C890 1.391 . S
H892 C900 0.950 . S
H893 C905 0.950 . S
H894 C902 0.950 . S
H895 C904 0.950 . S
H896 C906 0.950 . S
H897 C908 0.950 . S
H898 C910 0.950 . S
H899 C911 0.950 . S
C900 H892 0.950 . S
C900 C901 1.386 . S
C900 C902 1.391 . S
C901 C900 1.386 . S
C901 C905 1.393 . S
C902 H894 0.950 . S
C902 C900 1.391 . S
C902 C903 1.400 . S
C903 C902 1.400 . S
C903 C904 1.398 . S
C903 C909 1.491 . S
C904 H895 0.950 . S
C904 C903 1.398 . S
C904 C905 1.391 . S
C905 H893 0.950 . S
C905 C901 1.393 . S
C905 C904 1.391 . S
C906 H896 0.950 . S
C906 C907 1.386 . S
C906 C908 1.391 . S
C907 C906 1.386 . S
C907 C911 1.393 . S
C908 H897 0.950 . S
C908 C906 1.391 . S
C908 C909 1.400 . S
C909 C903 1.491 . S
C909 C908 1.400 . S
C909 C910 1.398 . S
C910 H898 0.950 . S
C910 C909 1.398 . S
C910 C911 1.391 . S
C911 H899 0.950 . S
C911 C907 1.393 . S
C911 C910 1.391 . S
H912 C920 0.950 . S
H913 C925 0.950 . S
H914 C922 0.950 . S
H915 C924 0.950 . S
H916 C926 0.950 . S
H917 C928 0.950 . S
H918 C930 0.950 . S
H919 C931 0.950 . S
C920 H912 0.950 . S
C920 C921 1.386 . S
C920 C922 1.391 . S
C921 C920 1.386 . S
C921 C925 1.393 . S
C922 H914 0.950 . S
C922 C920 1.391 . S
C922 C923 1.400 . S
C923 C922 1.400 . S
C923 C924 1.398 . S
C923 C929 1.491 . S
C924 H915 0.950 . S
C924 C923 1.398 . S
C924 C925 1.391 . S
C925 H913 0.950 . S
C925 C921 1.393 . S
C925 C924 1.391 . S
C926 H916 0.950 . S
C926 C927 1.386 . S
C926 C928 1.391 . S
C927 C926 1.386 . S
C927 C931 1.393 . S
C928 H917 0.950 . S
C928 C926 1.391 . S
C928 C929 1.400 . S
C929 C923 1.491 . S
C929 C928 1.400 . S
C929 C930 1.398 . S
C930 H918 0.950 . S
C930 C929 1.398 . S
C930 C931 1.391 . S
C931 H919 0.950 . S
C931 C927 1.393 . S
C931 C930 1.391 . S
H932 C940 0.950 . S
H933 C945 0.950 . S
H934 C942 0.950 . S
H935 C944 0.950 . S
H936 C946 0.950 . S
H937 C948 0.950 . S
H938 C950 0.950 . S
H939 C951 0.950 . S
C940 H932 0.950 . S
C940 C941 1.386 . S
C940 C942 1.391 . S
C941 C940 1.386 . S
C941 C945 1.393 . S
C942 H934 0.950 . S
C942 C940 1.391 . S
C942 C943 1.400 . S
C943 C942 1.400 . S
C943 C944 1.398 . S
C943 C949 1.491 . S
C944 H935 0.950 . S
C944 C943 1.398 . S
C944 C945 1.391 . S
C945 H933 0.950 . S
C945 C941 1.393 . S
C945 C944 1.391 . S
C946 H936 0.950 . S
C946 C947 1.386 . S
C946 C948 1.391 . S
C947 C946 1.386 . S
C947 C951 1.393 . S
C948 H937 0.950 . S
C948 C946 1.391 . S
C948 C949 1.400 . S
C949 C943 1.491 . S
C949 C948 1.400 . S
C949 C950 1.398 . S
C950 H938 0.950 . S
C950 C949 1.398 . S
C950 C951 1.391 . S
C951 H939 0.950 . S
C951 C947 1.393 . S
C951 C950 1.391 . S
H952 C960 0.950 . S
H953 C965 0.950 . S
H954 C962 0.950 . S
H955 C964 0.950 . S
H956 C966 0.950 . S
H957 C968 0.950 . S
H958 C970 0.950 . S
H959 C971 0.950 . S
C960 H952 0.950 . S
C960 C961 1.386 . S
C960 C962 1.391 . S
C961 C960 1.386 . S
C961 C965 1.393 . S
C962 H954 0.950 . S
C962 C960 1.391 . S
C962 C963 1.400 . S
C963 C962 1.400 . S
C963 C964 1.398 . S
C963 C969 1.491 . S
C964 H955 0.950 . S
C964 C963 1.398 . S
C964 C965 1.391 . S
C965 H953 0.950 . S
C965 C961 1.393 . S
C965 C964 1.391 . S
C966 H956 0.950 . S
C966 C967 1.386 . S
C966 C968 1.391 . S
C967 C966 1.386 . S
C967 C971 1.393 . S
C968 H957 0.950 . S
C968 C966 1.391 . S
C968 C969 1.400 . S
C969 C963 1.491 . S
C969 C968 1.400 . S
C969 C970 1.398 . S
C970 H958 0.950 . S
C970 C969 1.398 . S
C970 C971 1.391 . S
C971 H959 0.950 . S
C971 C967 1.393 . S
C971 C970 1.391 . S
H972 C980 0.950 . S
H973 C985 0.950 . S
H974 C982 0.950 . S
H975 C984 0.950 . S
H976 C986 0.950 . S
H977 C988 0.950 . S
H978 C990 0.950 . S
H979 C991 0.950 . S
C980 H972 0.950 . S
C980 C981 1.386 . S
C980 C982 1.391 . S
C981 C980 1.386 . S
C981 C985 1.393 . S
C982 H974 0.950 . S
C982 C980 1.391 . S
C982 C983 1.400 . S
C983 C982 1.400 . S
C983 C984 1.398 . S
C983 C989 1.491 . S
C984 H975 0.950 . S
C984 C983 1.398 . S
C984 C985 1.391 . S
C985 H973 0.950 . S
C985 C981 1.393 . S
C985 C984 1.391 . S
C986 H976 0.950 . S
C986 C987 1.386 . S
C986 C988 1.391 . S
C987 C986 1.386 . S
C987 C991 1.393 . S
C988 H977 0.950 . S
C988 C986 1.391 . S
C988 C989 1.400 . S
C989 C983 1.491 . S
C989 C988 1.400 . S
C989 C990 1.398 . S
C990 H978 0.950 . S
C990 C989 1.398 . S
C990 C991 1.391 . S
C991 H979 0.950 . S
C991 C987 1.393 . S
C991 C990 1.391 . S
H992 C1000 0.950 . S
H993 C1005 0.950 . S
H994 C1002 0.950 . S
H995 C1004 0.950 . S
H996 C1006 0.950 . S
H997 C1008 0.950 . S
H998 C1010 0.950 . S
H999 C1011 0.950 . S
C1000 H992 0.950 . S
C1000 C1001 1.386 . S
C1000 C1002 1.391 . S
C1001 C1000 1.386 . S
C1001 C1005 1.393 . S
C1002 H994 0.950 . S
C1002 C1000 1.391 . S
C1002 C1003 1.400 . S
C1003 C1002 1.400 . S
C1003 C1004 1.398 . S
C1003 C1009 1.491 . S
C1004 H995 0.950 . S
C1004 C1003 1.398 . S
C1004 C1005 1.391 . S
C1005 H993 0.950 . S
C1005 C1001 1.393 . S
C1005 C1004 1.391 . S
C1006 H996 0.950 . S
C1006 C1007 1.386 . S
C1006 C1008 1.391 . S
C1007 C1006 1.386 . S
C1007 C1011 1.393 . S
C1008 H997 0.950 . S
C1008 C1006 1.391 . S
C1008 C1009 1.400 . S
C1009 C1003 1.491 . S
C1009 C1008 1.400 . S
C1009 C1010 1.398 . S
C1010 H998 0.950 . S
C1010 C1009 1.398 . S
C1010 C1011 1.391 . S
C1011 H999 0.950 . S
C1011 C1007 1.393 . S
C1011 C1010 1.391 . S
H1012 C1020 0.950 . S
H1013 C1025 0.950 . S
H1014 C1022 0.950 . S
H1015 C1024 0.950 . S
H1016 C1026 0.950 . S
H1017 C1028 0.950 . S
H1018 C1030 0.950 . S
H1019 C1031 0.950 . S
C1020 H1012 0.950 . S
C1020 C1021 1.386 . S
C1020 C1022 1.391 . S
C1021 C1020 1.386 . S
C1021 C1025 1.393 . S
C1022 H1014 0.950 . S
C1022 C1020 1.391 . S
C1022 C1023 1.400 . S
C1023 C1022 1.400 . S
C1023 C1024 1.398 . S
C1023 C1029 1.491 . S
C1024 H1015 0.950 . S
C1024 C1023 1.398 . S
C1024 C1025 1.391 . S
C1025 H1013 0.950 . S
C1025 C1021 1.393 . S
C1025 C1024 1.391 . S
C1026 H1016 0.950 . S
C1026 C1027 1.386 . S
C1026 C1028 1.391 . S
C1027 C1026 1.386 . S
C1027 C1031 1.393 . S
C1028 H1017 0.950 . S
C1028 C1026 1.391 . S
C1028 C1029 1.400 . S
C1029 C1023 1.491 . S
C1029 C1028 1.400 . S
C1029 C1030 1.398 . S
C1030 H1018 0.950 . S
C1030 C1029 1.398 . S
C1030 C1031 1.391 . S
C1031 H1019 0.950 . S
C1031 C1027 1.393 . S
C1031 C1030 1.391 . S
H1032 C1040 0.950 . S
H1033 C1045 0.950 . S
H1034 C1042 0.950 . S
H1035 C1044 0.950 . S
H1036 C1046 0.950 . S
H1037 C1048 0.950 . S
H1038 C1050 0.950 . S
H1039 C1051 0.950 . S
C1040 H1032 0.950 . S
C1040 C1041 1.386 . S
C1040 C1042 1.391 . S
C1041 C1040 1.386 . S
C1041 C1045 1.393 . S
C1042 H1034 0.950 . S
C1042 C1040 1.391 . S
C1042 C1043 1.400 . S
C1043 C1042 1.400 . S
C1043 C1044 1.398 . S
C1043 C1049 1.491 . S
C1044 H1035 0.950 . S
C1044 C1043 1.398 . S
C1044 C1045 1.391 . S
C1045 H1033 0.950 . S
C1045 C1041 1.393 . S
C1045 C1044 1.391 . S
C1046 H1036 0.950 . S
C1046 C1047 1.386 . S
C1046 C1048 1.391 . S
C1047 C1046 1.386 . S
C1047 C1051 1.393 . S
C1048 H1037 0.950 . S
C1048 C1046 1.391 . S
C1048 C1049 1.400 . S
C1049 C1043 1.491 . S
C1049 C1048 1.400 . S
C1049 C1050 1.398 . S
C1050 H1038 0.950 . S
C1050 C1049 1.398 . S
C1050 C1051 1.391 . S
C1051 H1039 0.950 . S
C1051 C1047 1.393 . S
C1051 C1050 1.391 . S
H1052 C1060 0.950 . S
H1053 C1065 0.950 . S
H1054 C1062 0.950 . S
H1055 C1064 0.950 . S
H1056 C1066 0.950 . S
H1057 C1068 0.950 . S
H1058 C1070 0.950 . S
H1059 C1071 0.950 . S
C1060 H1052 0.950 . S
C1060 C1061 1.386 . S
C1060 C1062 1.391 . S
C1061 C1060 1.386 . S
C1061 C1065 1.393 . S
C1062 H1054 0.950 . S
C1062 C1060 1.391 . S
C1062 C1063 1.400 . S
C1063 C1062 1.400 . S
C1063 C1064 1.398 . S
C1063 C1069 1.491 . S
C1064 H1055 0.950 . S
C1064 C1063 1.398 . S
C1064 C1065 1.391 . S
C1065 H1053 0.950 . S
C1065 C1061 1.393 . S
C1065 C1064 1.391 . S
C1066 H1056 0.950 . S
C1066 C1067 1.386 . S
C1066 C1068 1.391 . S
C1067 C1066 1.386 . S
C1067 C1071 1.393 . S
C1068 H1057 0.950 . S
C1068 C1066 1.391 . S
C1068 C1069 1.400 . S
C1069 C1063 1.491 . S
C1069 C1068 1.400 . S
C1069 C1070 1.398 . S
C1070 H1058 0.950 . S
C1070 C1069 1.398 . S
C1070 C1071 1.391 . S
C1071 H1059 0.950 . S
C1071 C1067 1.393 . S
C1071 C1070 1.391 . S
H1072 C1080 0.950 . S
H1073 C1085 0.950 . S
H1074 C1082 0.950 . S
H1075 C1084 0.950 . S
H1076 C1086 0.950 . S
H1077 C1088 0.950 . S
H1078 C1090 0.950 . S
H1079 C1091 0.950 . S
C1080 H1072 0.950 . S
C1080 C1081 1.386 . S
C1080 C1082 1.391 . S
C1081 C1080 1.386 . S
C1081 C1085 1.393 . S
C1082 H1074 0.950 . S
C1082 C1080 1.391 . S
C1082 C1083 1.400 . S
C1083 C1082 1.400 . S
C1083 C1084 1.398 . S
C1083 C1089 1.491 . S
C1084 H1075 0.950 . S
C1084 C1083 1.398 . S
C1084 C1085 1.391 . S
C1085 H1073 0.950 . S
C1085 C1081 1.393 . S
C1085 C1084 1.391 . S
C1086 H1076 0.950 . S
C1086 C1087 1.386 . S
C1086 C1088 1.391 . S
C1087 C1086 1.386 . S
C1087 C1091 1.393 . S
C1088 H1077 0.950 . S
C1088 C1086 1.391 . S
C1088 C1089 1.400 . S
C1089 C1083 1.491 . S
C1089 C1088 1.400 . S
C1089 C1090 1.398 . S
C1090 H1078 0.950 . S
C1090 C1089 1.398 . S
C1090 C1091 1.391 . S
C1091 H1079 0.950 . S
C1091 C1087 1.393 . S
C1091 C1090 1.391 . S
H1092 C1100 0.950 . S
H1093 C1105 0.950 . S
H1094 C1102 0.950 . S
H1095 C1104 0.950 . S
H1096 C1106 0.950 . S
H1097 C1108 0.950 . S
H1098 C1110 0.950 . S
H1099 C1111 0.950 . S
C1100 H1092 0.950 . S
C1100 C1101 1.386 . S
C1100 C1102 1.391 . S
C1101 C1100 1.386 . S
C1101 C1105 1.393 1_554 S
C1102 H1094 0.950 . S
C1102 C1100 1.391 . S
C1102 C1103 1.400 . S
C1103 C1102 1.400 . S
C1103 C1104 1.398 1_554 S
C1103 C1109 1.491 1_454 S
C1104 H1095 0.950 . S
C1104 C1103 1.398 1_556 S
C1104 C1105 1.391 . S
C1105 H1093 0.950 . S
C1105 C1101 1.393 1_556 S
C1105 C1104 1.391 . S
C1106 H1096 0.950 . S
C1106 C1107 1.386 . S
C1106 C1108 1.391 . S
C1107 C1106 1.386 . S
C1107 C1111 1.393 1_556 S
C1108 H1097 0.950 . S
C1108 C1106 1.391 . S
C1108 C1109 1.400 . S
C1109 C1103 1.491 1_656 S
C1109 C1108 1.400 . S
C1109 C1110 1.398 1_556 S
C1110 H1098 0.950 . S
C1110 C1109 1.398 1_554 S
C1110 C1111 1.391 . S
C1111 H1099 0.950 . S
C1111 C1107 1.393 1_554 S
C1111 C1110 1.391 . S
H1112 C1120 0.949 1_556 S
H1113 C1125 0.950 . S
H1114 C1122 0.950 . S
H1115 C1124 0.950 . S
H1116 C1126 0.949 1_554 S
H1117 C1128 0.950 . S
H1118 C1130 0.950 . S
H1119 C1131 0.950 . S
C1120 H1112 0.949 1_554 S
C1120 C1121 1.386 . S
C1120 C1122 1.391 1_554 S
C1121 C1120 1.386 . S
C1121 C1125 1.393 . S
C1122 H1114 0.950 . S
C1122 C1120 1.391 1_556 S
C1122 C1123 1.400 1_556 S
C1123 C1122 1.400 1_554 S
C1123 C1124 1.398 . S
C1123 C1129 1.491 1_554 S
C1124 H1115 0.950 . S
C1124 C1123 1.398 . S
C1124 C1125 1.391 . S
C1125 H1113 0.950 . S
C1125 C1121 1.393 . S
C1125 C1124 1.391 . S
C1126 H1116 0.949 1_556 S
C1126 C1127 1.386 . S
C1126 C1128 1.391 1_556 S
C1127 C1126 1.386 . S
C1127 C1131 1.393 . S
C1128 H1117 0.950 . S
C1128 C1126 1.391 1_554 S
C1128 C1129 1.400 1_554 S
C1129 C1123 1.491 1_556 S
C1129 C1128 1.400 1_556 S
C1129 C1130 1.398 . S
C1130 H1118 0.950 . S
C1130 C1129 1.398 . S
C1130 C1131 1.391 . S
C1131 H1119 0.950 . S
C1131 C1127 1.393 . S
C1131 C1130 1.391 . S
H1132 C1140 0.952 . S
H1133 C1145 0.950 . S
H1134 C1142 0.950 . S
H1135 C1144 0.950 . S
H1136 C1146 0.952 . S
H1137 C1148 0.950 . S
H1138 C1150 0.950 . S
H1139 C1151 0.950 . S
C1140 H1132 0.952 . S
C1140 C1141 1.386 . S
C1140 C1142 1.391 1_556 S
C1141 C1140 1.386 . S
C1141 C1145 1.393 . S
C1142 H1134 0.950 . S
C1142 C1140 1.391 1_554 S
C1142 C1143 1.400 1_554 S
C1143 C1142 1.400 1_556 S
C1143 C1144 1.398 . S
C1143 C1149 1.491 1_546 S
C1144 H1135 0.950 . S
C1144 C1143 1.398 . S
C1144 C1145 1.391 . S
C1145 H1133 0.950 . S
C1145 C1141 1.393 . S
C1145 C1144 1.391 . S
C1146 H1136 0.952 . S
C1146 C1147 1.386 . S
C1146 C1148 1.391 1_554 S
C1147 C1146 1.386 . S
C1147 C1151 1.393 . S
C1148 H1137 0.950 . S
C1148 C1146 1.391 1_556 S
C1148 C1149 1.400 1_556 S
C1149 C1143 1.491 1_564 S
C1149 C1148 1.400 1_554 S
C1149 C1150 1.398 . S
C1150 H1138 0.950 . S
C1150 C1149 1.398 . S
C1150 C1151 1.391 . S
C1151 H1139 0.950 . S
C1151 C1147 1.393 . S
C1151 C1150 1.391 . S
H1152 C1160 0.950 . S
H1153 C1165 0.950 . S
H1154 C1162 0.950 . S
H1155 C1164 0.950 . S
H1156 C1166 0.950 . S
H1157 C1168 0.950 . S
H1158 C1170 0.950 . S
H1159 C1171 0.950 . S
C1160 H1152 0.950 . S
C1160 C1161 1.386 . S
C1160 C1162 1.391 . S
C1161 C1160 1.386 . S
C1161 C1165 1.393 . S
C1162 H1154 0.950 . S
C1162 C1160 1.391 . S
C1162 C1163 1.400 . S
C1163 C1162 1.400 . S
C1163 C1164 1.398 . S
C1163 C1169 1.491 . S
C1164 H1155 0.950 . S
C1164 C1163 1.398 . S
C1164 C1165 1.391 . S
C1165 H1153 0.950 . S
C1165 C1161 1.393 . S
C1165 C1164 1.391 . S
C1166 H1156 0.950 . S
C1166 C1167 1.386 . S
C1166 C1168 1.391 1_554 S
C1167 C1166 1.386 . S
C1167 C1171 1.393 . S
C1168 H1157 0.950 . S
C1168 C1166 1.391 1_556 S
C1168 C1169 1.400 . S
C1169 C1163 1.491 . S
C1169 C1168 1.400 . S
C1169 C1170 1.398 . S
C1170 H1158 0.950 . S
C1170 C1169 1.398 . S
C1170 C1171 1.391 1_556 S
C1171 H1159 0.950 . S
C1171 C1167 1.393 . S
C1171 C1170 1.391 1_554 S
H1172 C1180 0.950 . S
H1173 C1185 0.950 . S
H1174 C1182 0.950 . S
H1175 C1184 0.950 . S
H1176 C1186 0.950 . S
H1177 C1188 0.950 . S
H1178 C1190 0.950 . S
H1179 C1191 0.950 . S
C1180 H1172 0.950 . S
C1180 C1181 1.386 . S
C1180 C1182 1.391 . S
C1181 C1180 1.386 . S
C1181 C1185 1.393 . S
C1182 H1174 0.950 . S
C1182 C1180 1.391 . S
C1182 C1183 1.400 . S
C1183 C1182 1.400 . S
C1183 C1184 1.398 . S
C1183 C1189 1.491 . S
C1184 H1175 0.950 . S
C1184 C1183 1.398 . S
C1184 C1185 1.391 . S
C1185 H1173 0.950 . S
C1185 C1181 1.393 . S
C1185 C1184 1.391 . S
C1186 H1176 0.950 . S
C1186 C1187 1.386 . S
C1186 C1188 1.391 1_554 S
C1187 C1186 1.386 . S
C1187 C1191 1.393 . S
C1188 H1177 0.950 . S
C1188 C1186 1.391 1_556 S
C1188 C1189 1.400 . S
C1189 C1183 1.491 . S
C1189 C1188 1.400 . S
C1189 C1190 1.398 . S
C1190 H1178 0.950 . S
C1190 C1189 1.398 . S
C1190 C1191 1.391 1_556 S
C1191 H1179 0.950 . S
C1191 C1187 1.393 . S
C1191 C1190 1.391 1_554 S
H1192 C1200 0.950 . S
H1193 C1205 0.950 . S
H1194 C1202 0.950 . S
H1195 C1204 0.950 . S
H1196 C1206 0.950 . S
H1197 C1208 0.950 . S
H1198 C1210 0.950 . S
H1199 C1211 0.950 . S
C1200 H1192 0.950 . S
C1200 C1201 1.386 . S
C1200 C1202 1.391 . S
C1201 C1200 1.386 . S
C1201 C1205 1.393 . S
C1202 H1194 0.950 . S
C1202 C1200 1.391 . S
C1202 C1203 1.400 . S
C1203 C1202 1.400 . S
C1203 C1204 1.398 . S
C1203 C1209 1.491 . S
C1204 H1195 0.950 . S
C1204 C1203 1.398 . S
C1204 C1205 1.391 . S
C1205 H1193 0.950 . S
C1205 C1201 1.393 . S
C1205 C1204 1.391 . S
C1206 H1196 0.950 . S
C1206 C1207 1.386 . S
C1206 C1208 1.391 1_554 S
C1207 C1206 1.386 . S
C1207 C1211 1.393 . S
C1208 H1197 0.950 . S
C1208 C1206 1.391 1_556 S
C1208 C1209 1.400 . S
C1209 C1203 1.491 . S
C1209 C1208 1.400 . S
C1209 C1210 1.398 . S
C1210 H1198 0.950 . S
C1210 C1209 1.398 . S
C1210 C1211 1.391 1_556 S
C1211 H1199 0.950 . S
C1211 C1207 1.393 . S
C1211 C1210 1.391 1_554 S
H1212 C1220 0.950 . S
H1213 C1225 0.950 . S
H1214 C1222 0.950 . S
H1215 C1224 0.950 . S
H1216 C1226 0.950 . S
H1217 C1228 0.950 . S
H1218 C1230 0.950 . S
H1219 C1231 0.950 . S
C1220 H1212 0.950 . S
C1220 C1221 1.386 . S
C1220 C1222 1.391 1_556 S
C1221 C1220 1.386 . S
C1221 C1225 1.393 . S
C1222 H1214 0.950 . S
C1222 C1220 1.391 1_554 S
C1222 C1223 1.400 . S
C1223 C1222 1.400 . S
C1223 C1224 1.398 . S
C1223 C1229 1.491 . S
C1224 H1215 0.950 . S
C1224 C1223 1.398 . S
C1224 C1225 1.391 1_554 S
C1225 H1213 0.950 . S
C1225 C1221 1.393 . S
C1225 C1224 1.391 1_556 S
C1226 H1216 0.950 . S
C1226 C1227 1.386 . S
C1226 C1228 1.391 . S
C1227 C1226 1.386 . S
C1227 C1231 1.393 . S
C1228 H1217 0.950 . S
C1228 C1226 1.391 . S
C1228 C1229 1.400 . S
C1229 C1223 1.491 . S
C1229 C1228 1.400 . S
C1229 C1230 1.398 . S
C1230 H1218 0.950 . S
C1230 C1229 1.398 . S
C1230 C1231 1.391 . S
C1231 H1219 0.950 . S
C1231 C1227 1.393 . S
C1231 C1230 1.391 . S
H1232 C1240 0.950 . S
H1233 C1245 0.950 . S
H1234 C1242 0.950 . S
H1235 C1244 0.950 . S
H1236 C1246 0.950 . S
H1237 C1248 0.950 . S
H1238 C1250 0.950 . S
H1239 C1251 0.950 . S
C1240 H1232 0.950 . S
C1240 C1241 1.386 . S
C1240 C1242 1.391 1_556 S
C1241 C1240 1.386 . S
C1241 C1245 1.393 . S
C1242 H1234 0.950 . S
C1242 C1240 1.391 1_554 S
C1242 C1243 1.400 . S
C1243 C1242 1.400 . S
C1243 C1244 1.398 . S
C1243 C1249 1.491 . S
C1244 H1235 0.950 . S
C1244 C1243 1.398 . S
C1244 C1245 1.391 1_554 S
C1245 H1233 0.950 . S
C1245 C1241 1.393 . S
C1245 C1244 1.391 1_556 S
C1246 H1236 0.950 . S
C1246 C1247 1.386 . S
C1246 C1248 1.391 . S
C1247 C1246 1.386 . S
C1247 C1251 1.393 . S
C1248 H1237 0.950 . S
C1248 C1246 1.391 . S
C1248 C1249 1.400 . S
C1249 C1243 1.491 . S
C1249 C1248 1.400 . S
C1249 C1250 1.398 . S
C1250 H1238 0.950 . S
C1250 C1249 1.398 . S
C1250 C1251 1.391 . S
C1251 H1239 0.950 . S
C1251 C1247 1.393 . S
C1251 C1250 1.391 . S
H1252 C1260 0.950 . S
H1253 C1265 0.950 . S
H1254 C1262 0.950 . S
H1255 C1264 0.950 . S
H1256 C1266 0.950 . S
H1257 C1268 0.950 . S
H1258 C1270 0.950 . S
H1259 C1271 0.950 . S
C1260 H1252 0.950 . S
C1260 C1261 1.386 . S
C1260 C1262 1.391 . S
C1261 C1260 1.386 . S
C1261 C1265 1.393 . S
C1262 H1254 0.950 . S
C1262 C1260 1.391 . S
C1262 C1263 1.400 . S
C1263 C1262 1.400 . S
C1263 C1264 1.398 . S
C1263 C1269 1.491 . S
C1264 H1255 0.950 . S
C1264 C1263 1.398 . S
C1264 C1265 1.391 . S
C1265 H1253 0.950 . S
C1265 C1261 1.393 . S
C1265 C1264 1.391 . S
C1266 H1256 0.950 . S
C1266 C1267 1.386 . S
C1266 C1268 1.391 1_556 S
C1267 C1266 1.386 . S
C1267 C1271 1.393 . S
C1268 H1257 0.950 . S
C1268 C1266 1.391 1_554 S
C1268 C1269 1.400 . S
C1269 C1263 1.491 . S
C1269 C1268 1.400 . S
C1269 C1270 1.398 . S
C1270 H1258 0.950 . S
C1270 C1269 1.398 . S
C1270 C1271 1.391 1_554 S
C1271 H1259 0.950 . S
C1271 C1267 1.393 . S
C1271 C1270 1.391 1_556 S
H1272 C1280 0.950 . S
H1273 C1285 0.950 . S
H1274 C1282 0.950 . S
H1275 C1284 0.950 . S
H1276 C1286 0.950 . S
H1277 C1288 0.950 . S
H1278 C1290 0.950 . S
H1279 C1291 0.950 . S
C1280 H1272 0.950 . S
C1280 C1281 1.386 . S
C1280 C1282 1.391 . S
C1281 C1280 1.386 . S
C1281 C1285 1.393 . S
C1282 H1274 0.950 . S
C1282 C1280 1.391 . S
C1282 C1283 1.400 . S
C1283 C1282 1.400 . S
C1283 C1284 1.398 . S
C1283 C1289 1.491 . S
C1284 H1275 0.950 . S
C1284 C1283 1.398 . S
C1284 C1285 1.391 . S
C1285 H1273 0.950 . S
C1285 C1281 1.393 . S
C1285 C1284 1.391 . S
C1286 H1276 0.950 . S
C1286 C1287 1.386 . S
C1286 C1288 1.391 . S
C1287 C1286 1.386 . S
C1287 C1291 1.393 . S
C1288 H1277 0.950 . S
C1288 C1286 1.391 . S
C1288 C1289 1.400 . S
C1289 C1283 1.491 . S
C1289 C1288 1.400 . S
C1289 C1290 1.398 . S
C1290 H1278 0.950 . S
C1290 C1289 1.398 . S
C1290 C1291 1.391 . S
C1291 H1279 0.950 . S
C1291 C1287 1.393 . S
C1291 C1290 1.391 . S
H1292 C1300 0.950 . S
H1293 C1305 0.950 . S
H1294 C1302 0.950 . S
H1295 C1304 0.950 . S
H1296 C1306 0.950 . S
H1297 C1308 0.950 . S
H1298 C1310 0.950 . S
H1299 C1311 0.950 . S
C1300 H1292 0.950 . S
C1300 C1301 1.386 . S
C1300 C1302 1.391 . S
C1301 C1300 1.386 . S
C1301 C1305 1.393 . S
C1302 H1294 0.950 . S
C1302 C1300 1.391 . S
C1302 C1303 1.400 . S
C1303 C1302 1.400 . S
C1303 C1304 1.398 . S
C1303 C1309 1.491 . S
C1304 H1295 0.950 . S
C1304 C1303 1.398 . S
C1304 C1305 1.391 . S
C1305 H1293 0.950 . S
C1305 C1301 1.393 . S
C1305 C1304 1.391 . S
C1306 H1296 0.950 . S
C1306 C1307 1.386 . S
C1306 C1308 1.391 . S
C1307 C1306 1.386 . S
C1307 C1311 1.393 . S
C1308 H1297 0.950 . S
C1308 C1306 1.391 . S
C1308 C1309 1.400 . S
C1309 C1303 1.491 . S
C1309 C1308 1.400 . S
C1309 C1310 1.398 . S
C1310 H1298 0.950 . S
C1310 C1309 1.398 . S
C1310 C1311 1.391 . S
C1311 H1299 0.950 . S
C1311 C1307 1.393 . S
C1311 C1310 1.391 . S
H1312 C1320 0.950 . S
H1313 C1325 0.950 . S
H1314 C1322 0.950 . S
H1315 C1324 0.950 . S
H1316 C1326 0.950 . S
H1317 C1328 0.950 . S
H1318 C1330 0.950 . S
H1319 C1331 0.950 . S
C1320 H1312 0.950 . S
C1320 C1321 1.386 . S
C1320 C1322 1.391 . S
C1321 C1320 1.386 . S
C1321 C1325 1.393 . S
C1322 H1314 0.950 . S
C1322 C1320 1.391 . S
C1322 C1323 1.400 . S
C1323 C1322 1.400 . S
C1323 C1324 1.398 . S
C1323 C1329 1.491 . S
C1324 H1315 0.950 . S
C1324 C1323 1.398 . S
C1324 C1325 1.391 . S
C1325 H1313 0.950 . S
C1325 C1321 1.393 . S
C1325 C1324 1.391 . S
C1326 H1316 0.950 . S
C1326 C1327 1.386 . S
C1326 C1328 1.391 . S
C1327 C1326 1.386 . S
C1327 C1331 1.393 . S
C1328 H1317 0.950 . S
C1328 C1326 1.391 . S
C1328 C1329 1.400 . S
C1329 C1323 1.491 . S
C1329 C1328 1.400 . S
C1329 C1330 1.398 . S
C1330 H1318 0.950 . S
C1330 C1329 1.398 . S
C1330 C1331 1.391 . S
C1331 H1319 0.950 . S
C1331 C1327 1.393 . S
C1331 C1330 1.391 . S
H1332 C1340 0.950 . S
H1333 C1345 0.950 . S
H1334 C1342 0.950 . S
H1335 C1344 0.950 . S
H1336 C1346 0.950 . S
H1337 C1348 0.950 . S
H1338 C1350 0.950 . S
H1339 C1351 0.950 . S
C1340 H1332 0.950 . S
C1340 C1341 1.386 . S
C1340 C1342 1.391 . S
C1341 C1340 1.386 . S
C1341 C1345 1.393 . S
C1342 H1334 0.950 . S
C1342 C1340 1.391 . S
C1342 C1343 1.400 . S
C1343 C1342 1.400 . S
C1343 C1344 1.398 . S
C1343 C1349 1.491 . S
C1344 H1335 0.950 . S
C1344 C1343 1.398 . S
C1344 C1345 1.391 . S
C1345 H1333 0.950 . S
C1345 C1341 1.393 . S
C1345 C1344 1.391 . S
C1346 H1336 0.950 . S
C1346 C1347 1.386 . S
C1346 C1348 1.391 . S
C1347 C1346 1.386 . S
C1347 C1351 1.393 . S
C1348 H1337 0.950 . S
C1348 C1346 1.391 . S
C1348 C1349 1.400 . S
C1349 C1343 1.491 . S
C1349 C1348 1.400 . S
C1349 C1350 1.398 . S
C1350 H1338 0.950 . S
C1350 C1349 1.398 . S
C1350 C1351 1.391 . S
C1351 H1339 0.950 . S
C1351 C1347 1.393 . S
C1351 C1350 1.391 . S
H1352 C1360 0.950 . S
H1353 C1365 0.950 . S
H1354 C1362 0.950 . S
H1355 C1364 0.950 . S
H1356 C1366 0.950 . S
H1357 C1368 0.950 . S
H1358 C1370 0.950 . S
H1359 C1371 0.950 . S
C1360 H1352 0.950 . S
C1360 C1361 1.386 . S
C1360 C1362 1.391 . S
C1361 C1360 1.386 . S
C1361 C1365 1.393 . S
C1362 H1354 0.950 . S
C1362 C1360 1.391 . S
C1362 C1363 1.400 . S
C1363 C1362 1.400 . S
C1363 C1364 1.398 . S
C1363 C1369 1.491 . S
C1364 H1355 0.950 . S
C1364 C1363 1.398 . S
C1364 C1365 1.391 . S
C1365 H1353 0.950 . S
C1365 C1361 1.393 . S
C1365 C1364 1.391 . S
C1366 H1356 0.950 . S
C1366 C1367 1.386 . S
C1366 C1368 1.391 . S
C1367 C1366 1.386 . S
C1367 C1371 1.393 . S
C1368 H1357 0.950 . S
C1368 C1366 1.391 . S
C1368 C1369 1.400 . S
C1369 C1363 1.491 . S
C1369 C1368 1.400 . S
C1369 C1370 1.398 . S
C1370 H1358 0.950 . S
C1370 C1369 1.398 . S
C1370 C1371 1.391 . S
C1371 H1359 0.950 . S
C1371 C1367 1.393 . S
C1371 C1370 1.391 . S
H1372 C1380 0.950 . S
H1373 C1385 0.950 . S
H1374 C1382 0.950 . S
H1375 C1384 0.950 . S
H1376 C1386 0.950 . S
H1377 C1388 0.950 . S
H1378 C1390 0.950 . S
H1379 C1391 0.950 . S
C1380 H1372 0.950 . S
C1380 C1381 1.386 . S
C1380 C1382 1.391 . S
C1381 C1380 1.386 . S
C1381 C1385 1.393 . S
C1382 H1374 0.950 . S
C1382 C1380 1.391 . S
C1382 C1383 1.400 . S
C1383 C1382 1.400 . S
C1383 C1384 1.398 . S
C1383 C1389 1.491 . S
C1384 H1375 0.950 . S
C1384 C1383 1.398 . S
C1384 C1385 1.391 . S
C1385 H1373 0.950 . S
C1385 C1381 1.393 . S
C1385 C1384 1.391 . S
C1386 H1376 0.950 . S
C1386 C1387 1.386 . S
C1386 C1388 1.391 . S
C1387 C1386 1.386 . S
C1387 C1391 1.393 . S
C1388 H1377 0.950 . S
C1388 C1386 1.391 . S
C1388 C1389 1.400 . S
C1389 C1383 1.491 . S
C1389 C1388 1.400 . S
C1389 C1390 1.398 . S
C1390 H1378 0.950 . S
C1390 C1389 1.398 . S
C1390 C1391 1.391 . S
C1391 H1379 0.950 . S
C1391 C1387 1.393 . S
C1391 C1390 1.391 . S
H1392 C1400 0.950 . S
H1393 C1405 0.950 . S
H1394 C1402 0.950 . S
H1395 C1404 0.950 . S
H1396 C1406 0.950 . S
H1397 C1408 0.950 . S
H1398 C1410 0.950 . S
H1399 C1411 0.950 . S
C1400 H1392 0.950 . S
C1400 C1401 1.386 . S
C1400 C1402 1.391 . S
C1401 C1400 1.386 . S
C1401 C1405 1.393 . S
C1402 H1394 0.950 . S
C1402 C1400 1.391 . S
C1402 C1403 1.400 . S
C1403 C1402 1.400 . S
C1403 C1404 1.398 . S
C1403 C1409 1.491 . S
C1404 H1395 0.950 . S
C1404 C1403 1.398 . S
C1404 C1405 1.391 . S
C1405 H1393 0.950 . S
C1405 C1401 1.393 . S
C1405 C1404 1.391 . S
C1406 H1396 0.950 . S
C1406 C1407 1.386 . S
C1406 C1408 1.391 . S
C1407 C1406 1.386 . S
C1407 C1411 1.393 . S
C1408 H1397 0.950 . S
C1408 C1406 1.391 . S
C1408 C1409 1.400 . S
C1409 C1403 1.491 . S
C1409 C1408 1.400 . S
C1409 C1410 1.398 . S
C1410 H1398 0.950 . S
C1410 C1409 1.398 . S
C1410 C1411 1.391 . S
C1411 H1399 0.950 . S
C1411 C1407 1.393 . S
C1411 C1410 1.391 . S
H1412 C1420 0.950 . S
H1413 C1425 0.950 . S
H1414 C1422 0.950 . S
H1415 C1424 0.950 . S
H1416 C1426 0.950 . S
H1417 C1428 0.950 . S
H1418 C1430 0.950 . S
H1419 C1431 0.950 . S
C1420 H1412 0.950 . S
C1420 C1421 1.386 . S
C1420 C1422 1.391 . S
C1421 C1420 1.386 . S
C1421 C1425 1.393 . S
C1422 H1414 0.950 . S
C1422 C1420 1.391 . S
C1422 C1423 1.400 . S
C1423 C1422 1.400 . S
C1423 C1424 1.398 . S
C1423 C1429 1.491 . S
C1424 H1415 0.950 . S
C1424 C1423 1.398 . S
C1424 C1425 1.391 . S
C1425 H1413 0.950 . S
C1425 C1421 1.393 . S
C1425 C1424 1.391 . S
C1426 H1416 0.950 . S
C1426 C1427 1.386 . S
C1426 C1428 1.391 . S
C1427 C1426 1.386 . S
C1427 C1431 1.393 . S
C1428 H1417 0.950 . S
C1428 C1426 1.391 . S
C1428 C1429 1.400 . S
C1429 C1423 1.491 . S
C1429 C1428 1.400 . S
C1429 C1430 1.398 . S
C1430 H1418 0.950 . S
C1430 C1429 1.398 . S
C1430 C1431 1.391 . S
C1431 H1419 0.950 . S
C1431 C1427 1.393 . S
C1431 C1430 1.391 . S
H1432 C1440 0.950 . S
H1433 C1445 0.950 . S
H1434 C1442 0.950 . S
H1435 C1444 0.950 . S
H1436 C1446 0.950 . S
H1437 C1448 0.950 . S
H1438 C1450 0.950 . S
H1439 C1451 0.950 . S
C1440 H1432 0.950 . S
C1440 C1441 1.386 . S
C1440 C1442 1.391 . S
C1441 C1440 1.386 . S
C1441 C1445 1.393 . S
C1442 H1434 0.950 . S
C1442 C1440 1.391 . S
C1442 C1443 1.400 . S
C1443 C1442 1.400 . S
C1443 C1444 1.398 . S
C1443 C1449 1.491 . S
C1444 H1435 0.950 . S
C1444 C1443 1.398 . S
C1444 C1445 1.391 . S
C1445 H1433 0.950 . S
C1445 C1441 1.393 . S
C1445 C1444 1.391 . S
C1446 H1436 0.950 . S
C1446 C1447 1.386 . S
C1446 C1448 1.391 . S
C1447 C1446 1.386 . S
C1447 C1451 1.393 . S
C1448 H1437 0.950 . S
C1448 C1446 1.391 . S
C1448 C1449 1.400 . S
C1449 C1443 1.491 . S
C1449 C1448 1.400 . S
C1449 C1450 1.398 . S
C1450 H1438 0.950 . S
C1450 C1449 1.398 . S
C1450 C1451 1.391 . S
C1451 H1439 0.950 . S
C1451 C1447 1.393 . S
C1451 C1450 1.391 . S
H1452 C1460 0.950 . S
H1453 C1465 0.950 . S
H1454 C1462 0.950 . S
H1455 C1464 0.950 . S
H1456 C1466 0.950 . S
H1457 C1468 0.950 . S
H1458 C1470 0.950 . S
H1459 C1471 0.950 . S
C1460 H1452 0.950 . S
C1460 C1461 1.386 . S
C1460 C1462 1.391 . S
C1461 C1460 1.386 . S
C1461 C1465 1.393 . S
C1462 H1454 0.950 . S
C1462 C1460 1.391 . S
C1462 C1463 1.400 . S
C1463 C1462 1.400 . S
C1463 C1464 1.398 . S
C1463 C1469 1.491 . S
C1464 H1455 0.950 . S
C1464 C1463 1.398 . S
C1464 C1465 1.391 . S
C1465 H1453 0.950 . S
C1465 C1461 1.393 . S
C1465 C1464 1.391 . S
C1466 H1456 0.950 . S
C1466 C1467 1.386 . S
C1466 C1468 1.391 . S
C1467 C1466 1.386 . S
C1467 C1471 1.393 . S
C1468 H1457 0.950 . S
C1468 C1466 1.391 . S
C1468 C1469 1.400 . S
C1469 C1463 1.491 . S
C1469 C1468 1.400 . S
C1469 C1470 1.398 . S
C1470 H1458 0.950 . S
C1470 C1469 1.398 . S
C1470 C1471 1.391 . S
C1471 H1459 0.950 . S
C1471 C1467 1.393 . S
C1471 C1470 1.391 . S
H1472 C1480 0.950 . S
H1473 C1485 0.950 . S
H1474 C1482 0.950 . S
H1475 C1484 0.950 . S
H1476 C1486 0.950 . S
H1477 C1488 0.950 . S
H1478 C1490 0.950 . S
H1479 C1491 0.950 . S
C1480 H1472 0.950 . S
C1480 C1481 1.386 . S
C1480 C1482 1.391 . S
C1481 C1480 1.386 . S
C1481 C1485 1.393 . S
C1482 H1474 0.950 . S
C1482 C1480 1.391 . S
C1482 C1483 1.400 . S
C1483 C1482 1.400 . S
C1483 C1484 1.398 . S
C1483 C1489 1.491 . S
C1484 H1475 0.950 . S
C1484 C1483 1.398 . S
C1484 C1485 1.391 . S
C1485 H1473 0.950 . S
C1485 C1481 1.393 . S
C1485 C1484 1.391 . S
C1486 H1476 0.950 . S
C1486 C1487 1.386 . S
C1486 C1488 1.391 . S
C1487 C1486 1.386 . S
C1487 C1491 1.393 . S
C1488 H1477 0.950 . S
C1488 C1486 1.391 . S
C1488 C1489 1.400 . S
C1489 C1483 1.491 . S
C1489 C1488 1.400 . S
C1489 C1490 1.398 . S
C1490 H1478 0.950 . S
C1490 C1489 1.398 . S
C1490 C1491 1.391 . S
C1491 H1479 0.950 . S
C1491 C1487 1.393 . S
C1491 C1490 1.391 . S
H1492 C1500 0.950 . S
H1493 C1505 0.950 . S
H1494 C1502 0.950 . S
H1495 C1504 0.950 . S
H1496 C1506 0.950 . S
H1497 C1508 0.950 . S
H1498 C1510 0.950 . S
H1499 C1511 0.950 . S
C1500 H1492 0.950 . S
C1500 C1501 1.386 . S
C1500 C1502 1.391 . S
C1501 C1500 1.386 . S
C1501 C1505 1.393 . S
C1502 H1494 0.950 . S
C1502 C1500 1.391 . S
C1502 C1503 1.400 . S
C1503 C1502 1.400 . S
C1503 C1504 1.398 . S
C1503 C1509 1.491 . S
C1504 H1495 0.950 . S
C1504 C1503 1.398 . S
C1504 C1505 1.391 . S
C1505 H1493 0.950 . S
C1505 C1501 1.393 . S
C1505 C1504 1.391 . S
C1506 H1496 0.950 . S
C1506 C1507 1.386 . S
C1506 C1508 1.391 . S
C1507 C1506 1.386 . S
C1507 C1511 1.393 . S
C1508 H1497 0.950 . S
C1508 C1506 1.391 . S
C1508 C1509 1.400 . S
C1509 C1503 1.491 . S
C1509 C1508 1.400 . S
C1509 C1510 1.398 . S
C1510 H1498 0.950 . S
C1510 C1509 1.398 . S
C1510 C1511 1.391 . S
C1511 H1499 0.950 . S
C1511 C1507 1.393 . S
C1511 C1510 1.391 . S
C621 C104 1.688 . S
C627 C2 1.677 . S
C641 C138 1.673 . S
C647 C36 1.683 . S
C661 C172 1.687 . S
C667 C70 1.684 . S
C681 C67 1.167 . S
C687 C203 1.167 . S
C701 C135 1.163 . S
C707 C101 1.161 . S
C721 C169 1.167 . S
C727 C33 1.168 . S
C741 C308 1.687 . S
C747 C206 1.677 . S
C761 C240 1.672 . S
C767 C342 1.680 . S
C781 C274 1.687 . S
C787 C376 1.676 . S
C801 C271 1.162 . S
C807 C407 1.161 . S
C821 C305 1.164 . S
C827 C339 1.161 . S
C841 C373 1.166 . S
C847 C237 1.168 . S
C861 C410 1.681 . S
C867 C512 1.672 . S
C881 C546 1.688 . S
C887 C444 1.681 . S
C901 C478 1.688 . S
C907 C580 1.680 . S
C921 C475 1.166 . S
C927 C611 1.168 . S
C941 C543 1.163 . S
C947 C509 1.167 . S
C961 C441 1.162 . S
C967 C577 1.162 . S
C981 C20 1.800 . S
C987 C598 1.797 . S
C1001 C530 1.794 . S
C1007 C54 1.799 . S
C1021 C564 1.794 . S
C1027 C88 1.802 . S
C1041 C258 1.799 . S
C1047 C122 1.798 . S
C1061 C292 1.796 . S
C1067 C156 1.800 . S
C1081 C224 1.793 . S
C1087 C190 1.801 . S
C1101 C462 1.793 . S
C1107 C326 1.802 . S
C1121 C496 1.799 . S
C1127 C360 1.794 . S
C1141 C394 1.800 . S
C1147 C428 1.797 . S
C1161 C5 1.368 . S
C1167 C9 1.286 . S
C1181 C39 1.372 . S
C1187 C43 1.303 . S
C1201 C73 1.357 . S
C1207 C77 1.274 . S
C1221 C111 1.309 . S
C1227 C107 1.371 . S
C1241 C145 1.272 . S
C1247 C141 1.359 . S
C1261 C175 1.363 . S
C1267 C179 1.276 . S
C1281 C209 1.364 1_554 S
C1287 C213 1.301 . S
C1301 C247 1.309 . S
C1307 C243 1.372 1_554 S
C1321 C281 1.274 . S
C1327 C277 1.362 1_554 S
C1341 C311 1.369 . S
C1347 C315 1.309 . S
C1361 C345 1.370 . S
C1367 C349 1.291 . S
C1381 C379 1.361 . S
C1387 C383 1.274 . S
C1401 C413 1.359 . S
C1407 C417 1.272 . S
C1421 C447 1.358 . S
C1427 C451 1.285 . S
C1441 C485 1.309 . S
C1447 C481 1.369 . S
C1461 C515 1.360 1_556 S
C1467 C519 1.272 . S
C1481 C553 1.288 . S
C1487 C549 1.369 1_556 S
C1501 C587 1.309 . S
C1507 C583 1.370 1_556 S
