# Generated by pormake.
# Topology wkj, (6)-cn, num edge types: 1
# Building blocks:
#     Node 0, Type 0, BuildingBlock: BETGAK_clean_sbu_0, # of connection points: 6
#     Node 1, Type 0, BuildingBlock: BETGAK_clean_sbu_0, # of connection points: 6
#     Node 2, Type 0, BuildingBlock: BETGAK_clean_sbu_0, # of connection points: 6
#     Node 3, Type 0, BuildingBlock: BETGAK_clean_sbu_0, # of connection points: 6
#     Node 4, Type 0, BuildingBlock: BETGAK_clean_sbu_0, # of connection points: 6
#     Node 5, Type 0, BuildingBlock: BETGAK_clean_sbu_0, # of connection points: 6
#     Node 6, Type 0, BuildingBlock: BETGAK_clean_sbu_0, # of connection points: 6
#     Node 7, Type 0, BuildingBlock: BETGAK_clean_sbu_0, # of connection points: 6
#     Node 8, Type 0, BuildingBlock: BETGAK_clean_sbu_0, # of connection points: 6
#     Node 9, Type 0, BuildingBlock: BETGAK_clean_sbu_0, # of connection points: 6
#     Node 10, Type 0, BuildingBlock: BETGAK_clean_sbu_0, # of connection points: 6
#     Node 11, Type 0, BuildingBlock: BETGAK_clean_sbu_0, # of connection points: 6
#     Edge 12, Type (0, 0), BuildingBlock: KIFKEQ_clean_linker_1, # of connection points: 2
#     Edge 13, Type (0, 0), BuildingBlock: KIFKEQ_clean_linker_1, # of connection points: 2
#     Edge 14, Type (0, 0), BuildingBlock: KIFKEQ_clean_linker_1, # of connection points: 2
#     Edge 15, Type (0, 0), BuildingBlock: KIFKEQ_clean_linker_1, # of connection points: 2
#     Edge 16, Type (0, 0), BuildingBlock: KIFKEQ_clean_linker_1, # of connection points: 2
#     Edge 17, Type (0, 0), BuildingBlock: KIFKEQ_clean_linker_1, # of connection points: 2
#     Edge 18, Type (0, 0), BuildingBlock: KIFKEQ_clean_linker_1, # of connection points: 2
#     Edge 19, Type (0, 0), BuildingBlock: KIFKEQ_clean_linker_1, # of connection points: 2
#     Edge 20, Type (0, 0), BuildingBlock: KIFKEQ_clean_linker_1, # of connection points: 2
#     Edge 21, Type (0, 0), BuildingBlock: KIFKEQ_clean_linker_1, # of connection points: 2
#     Edge 22, Type (0, 0), BuildingBlock: KIFKEQ_clean_linker_1, # of connection points: 2
#     Edge 23, Type (0, 0), BuildingBlock: KIFKEQ_clean_linker_1, # of connection points: 2
#     Edge 24, Type (0, 0), BuildingBlock: KIFKEQ_clean_linker_1, # of connection points: 2
#     Edge 25, Type (0, 0), BuildingBlock: KIFKEQ_clean_linker_1, # of connection points: 2
#     Edge 26, Type (0, 0), BuildingBlock: KIFKEQ_clean_linker_1, # of connection points: 2
#     Edge 27, Type (0, 0), BuildingBlock: KIFKEQ_clean_linker_1, # of connection points: 2
#     Edge 28, Type (0, 0), BuildingBlock: KIFKEQ_clean_linker_1, # of connection points: 2
#     Edge 29, Type (0, 0), BuildingBlock: KIFKEQ_clean_linker_1, # of connection points: 2
#     Edge 30, Type (0, 0), BuildingBlock: KIFKEQ_clean_linker_1, # of connection points: 2
#     Edge 31, Type (0, 0), BuildingBlock: KIFKEQ_clean_linker_1, # of connection points: 2
#     Edge 32, Type (0, 0), BuildingBlock: KIFKEQ_clean_linker_1, # of connection points: 2
#     Edge 33, Type (0, 0), BuildingBlock: KIFKEQ_clean_linker_1, # of connection points: 2
#     Edge 34, Type (0, 0), BuildingBlock: KIFKEQ_clean_linker_1, # of connection points: 2
#     Edge 35, Type (0, 0), BuildingBlock: KIFKEQ_clean_linker_1, # of connection points: 2
#     Edge 36, Type (0, 0), BuildingBlock: KIFKEQ_clean_linker_1, # of connection points: 2
#     Edge 37, Type (0, 0), BuildingBlock: KIFKEQ_clean_linker_1, # of connection points: 2
#     Edge 38, Type (0, 0), BuildingBlock: KIFKEQ_clean_linker_1, # of connection points: 2
#     Edge 39, Type (0, 0), BuildingBlock: KIFKEQ_clean_linker_1, # of connection points: 2
#     Edge 40, Type (0, 0), BuildingBlock: KIFKEQ_clean_linker_1, # of connection points: 2
#     Edge 41, Type (0, 0), BuildingBlock: KIFKEQ_clean_linker_1, # of connection points: 2
#     Edge 42, Type (0, 0), BuildingBlock: KIFKEQ_clean_linker_1, # of connection points: 2
#     Edge 43, Type (0, 0), BuildingBlock: KIFKEQ_clean_linker_1, # of connection points: 2
#     Edge 44, Type (0, 0), BuildingBlock: KIFKEQ_clean_linker_1, # of connection points: 2
#     Edge 45, Type (0, 0), BuildingBlock: KIFKEQ_clean_linker_1, # of connection points: 2
#     Edge 46, Type (0, 0), BuildingBlock: KIFKEQ_clean_linker_1, # of connection points: 2
#     Edge 47, Type (0, 0), BuildingBlock: KIFKEQ_clean_linker_1, # of connection points: 2
# Relax obj value: 0.769
# Max RMSD: 0.176
# Mean RMSD: 0.176
data_MOF--net-wkj--node1-BETGAK_clean_sbu_0--edge1-KIFKEQ_clean_linker_1
_symmetry_space_group_name_H-M    P1
_symmetry_Int_Tables_number       1
_symmetry_cell_setting            triclinic
loop_
_symmetry_equiv_pos_as_xyz
'x, y, z'
_cell_length_a     49.285777
_cell_length_b     49.589589
_cell_length_c     30.646867
_cell_angle_alpha  89.674936
_cell_angle_beta   90.338903
_cell_angle_gamma 119.83908
loop_
_atom_site_label
_atom_site_type_symbol
_atom_site_fract_x
_atom_site_fract_y
_atom_site_fract_z
_atom_type_partial_charge
La0 La 0.47435 0.09227 0.36516 0.0
La1 La 0.53257 0.09893 0.355 0.0
C2 C 0.42049 0.08261 0.38572 0.0
C3 C 0.40389 0.08333 0.42458 0.0
C4 C 0.37327 0.07798 0.42055 0.0
C5 C 0.35591 0.07535 0.45779 0.0
C6 C 0.36905 0.07803 0.49947 0.0
C7 C 0.40047 0.08524 0.50301 0.0
C8 C 0.41772 0.08784 0.46585 0.0
C9 C 0.51089 0.14515 0.32182 0.0
C10 C 0.52234 0.10949 0.45404 0.0
C11 C 0.58885 0.12102 0.33178 0.0
C12 C 0.60838 0.14495 0.30003 0.0
C13 C 0.59428 0.15294 0.26646 0.0
C14 C 0.61193 0.17986 0.24205 0.0
C15 C 0.64393 0.19958 0.25116 0.0
C16 C 0.65828 0.19081 0.28366 0.0
C17 C 0.64054 0.1637 0.30807 0.0
C18 C 0.49364 0.04678 0.39716 0.0
C19 C 0.4836 0.06062 0.27567 0.0
O20 O 0.44323 0.10929 0.37265 0.0
O21 O 0.42838 0.06111 0.38494 0.0
O22 O 0.48376 0.12329 0.30931 0.0
O23 O 0.51849 0.13472 0.35525 0.0
O24 O 0.49479 0.10474 0.43662 0.0
O25 O 0.54221 0.10861 0.42601 0.0
O26 O 0.56589 0.09492 0.31677 0.0
O27 O 0.57974 0.13188 0.36356 0.0
O28 O 0.52355 0.06267 0.40321 0.0
O29 O 0.48733 0.05838 0.36504 0.0
O30 O 0.51353 0.076 0.28887 0.0
O31 O 0.46307 0.06277 0.30239 0.0
H32 H 0.36243 0.07472 0.3887 0.0
H33 H 0.33185 0.06993 0.45408 0.0
H34 H 0.41118 0.08682 0.53456 0.0
H35 H 0.44135 0.09202 0.46948 0.0
H36 H 0.56936 0.13906 0.2603 0.0
H37 H 0.60033 0.18547 0.21639 0.0
H38 H 0.68285 0.20545 0.29131 0.0
H39 H 0.65161 0.15814 0.33455 0.0
La40 La 0.38017 0.47353 0.71246 0.0
La41 La 0.42948 0.53182 0.69583 0.0
C42 C 0.33753 0.42022 0.73608 0.0
C43 C 0.32368 0.40052 0.77428 0.0
C44 C 0.29833 0.3705 0.76826 0.0
C45 C 0.28632 0.35001 0.80347 0.0
C46 C 0.29953 0.35942 0.84516 0.0
C47 C 0.32414 0.3901 0.85132 0.0
C48 C 0.3362 0.41054 0.81602 0.0
C49 C 0.3603 0.50616 0.6654 0.0
C50 C 0.41338 0.52446 0.79732 0.0
C51 C 0.4604 0.58656 0.66608 0.0
C52 C 0.45403 0.60339 0.63173 0.0
C53 C 0.47726 0.63313 0.61868 0.0
C54 C 0.47023 0.65011 0.58849 0.0
C55 C 0.43974 0.63767 0.57158 0.0
C56 C 0.41659 0.60784 0.58493 0.0
C57 C 0.42371 0.59082 0.61456 0.0
C58 C 0.44666 0.49651 0.74006 0.0
C59 C 0.41714 0.48005 0.61987 0.0
O60 O 0.33374 0.44431 0.7323 0.0
O61 O 0.36593 0.42689 0.7263 0.0
O62 O 0.35581 0.47891 0.65628 0.0
O63 O 0.37907 0.51598 0.69798 0.0
O64 O 0.39161 0.4956 0.78299 0.0
O65 O 0.43119 0.5441 0.76645 0.0
O66 O 0.46484 0.56384 0.65382 0.0
O67 O 0.44123 0.57843 0.69894 0.0
O68 O 0.45985 0.52642 0.74353 0.0
O69 O 0.42749 0.48817 0.7092 0.0
O70 O 0.43139 0.51027 0.63067 0.0
O71 O 0.39618 0.46044 0.64917 0.0
H72 H 0.28842 0.36259 0.73606 0.0
H73 H 0.26733 0.32658 0.79791 0.0
H74 H 0.33516 0.39782 0.88296 0.0
H75 H 0.35587 0.4337 0.82101 0.0
H76 H 0.50069 0.64328 0.63205 0.0
H77 H 0.48854 0.67294 0.57847 0.0
H78 H 0.3931 0.5973 0.57164 0.0
H79 H 0.40543 0.56793 0.62445 0.0
La80 La 0.91403 0.3708 1.05199 0.0
La81 La 0.90983 0.42224 1.03032 0.0
C82 C 0.92957 0.32977 1.06455 0.0
C83 C 0.9359 0.31541 1.10205 0.0
C84 C 0.94413 0.29247 1.09544 0.0
C85 C 0.95193 0.27984 1.13097 0.0
C86 C 0.9515 0.29001 0.17354 0.0
C87 C 0.94234 0.31246 0.1799 0.0
C88 C 0.9346 0.32505 0.14443 0.0
C89 C 0.8557 0.35246 1.02646 0.0
C90 C 0.90279 0.40756 0.13527 0.0
C91 C 0.8807 0.45105 1.01671 0.0
C92 C 0.85746 0.44549 0.98252 0.0
C93 C 0.86312 0.43996 0.93961 0.0
C94 C 0.83824 0.42375 0.91099 0.0
C95 C 0.80735 0.41272 0.92476 0.0
C96 C 0.80179 0.42101 0.96597 0.0
C97 C 0.82683 0.43738 0.99479 0.0
C98 C 0.96597 0.43533 1.0627 0.0
C99 C 0.94177 0.40671 0.95447 0.0
O100 O 0.9008 0.32378 1.06039 0.0
O101 O 0.94944 0.35919 1.0583 0.0
O102 O 0.86401 0.34449 1.06204 0.0
O103 O 0.88076 0.37346 1.00775 0.0
O104 O 0.9086 0.38458 1.12303 0.0
O105 O 0.90181 0.42501 1.10264 0.0
O106 O 0.90981 0.46174 1.00453 0.0
O107 O 0.8713 0.42758 1.04369 0.0
O108 O 0.96179 0.45253 1.03417 0.0
O109 O 0.93925 0.41527 1.07382 0.0
O110 O 0.92823 0.42313 0.96448 0.0
O111 O 0.93934 0.3854 0.98443 0.0
H112 H 0.94509 0.28477 1.06276 0.0
H113 H 0.95879 0.26255 1.12512 0.0
H114 H 0.94242 0.32132 0.21215 0.0
H115 H 0.92835 0.34283 0.14996 0.0
H116 H 0.88636 0.4457 0.92921 0.0
H117 H 0.84298 0.41802 0.87889 0.0
H118 H 0.7781 0.41286 0.97695 0.0
H119 H 0.82195 0.44117 1.02793 0.0
La120 La 0.53308 0.91041 0.3707 0.0
La121 La 0.47333 0.89891 0.35676 0.0
C122 C 0.58644 0.92306 0.39902 0.0
C123 C 0.59762 0.9177 0.44084 0.0
C124 C 0.62201 0.91085 0.4419 0.0
C125 C 0.6327 0.90575 0.48182 0.0
C126 C 0.61883 0.90715 0.52106 0.0
C127 C 0.59388 0.91329 0.51951 0.0
C128 C 0.58344 0.91855 0.47988 0.0
C129 C 0.49906 0.85586 0.32991 0.0
C130 C 0.48206 0.88572 0.45539 0.0
C131 C 0.41909 0.87153 0.32484 0.0
C132 C 0.39613 0.83826 0.32737 0.0
C133 C 0.37141 0.82522 0.29743 0.0
C134 C 0.35669 0.79344 0.28835 0.0
C135 C 0.36703 0.77452 0.30855 0.0
C136 C 0.38896 0.787 0.34267 0.0
C137 C 0.40344 0.81871 0.35199 0.0
C138 C 0.50736 0.95128 0.40006 0.0
C139 C 0.52403 0.94289 0.28144 0.0
O140 O 0.56806 0.89811 0.37711 0.0
O141 O 0.57588 0.94253 0.39941 0.0
O142 O 0.52575 0.87842 0.31712 0.0
O143 O 0.49055 0.8659 0.36252 0.0
O144 O 0.51167 0.89671 0.44068 0.0
O145 O 0.46088 0.88098 0.42501 0.0
O146 O 0.44416 0.87735 0.30309 0.0
O147 O 0.42602 0.8871 0.36132 0.0
O148 O 0.47739 0.93363 0.40371 0.0
O149 O 0.51634 0.94155 0.36859 0.0
O150 O 0.49414 0.92798 0.2947 0.0
O151 O 0.5445 0.9402 0.30804 0.0
H152 H 0.63302 0.90983 0.41193 0.0
H153 H 0.65206 0.90124 0.48208 0.0
H154 H 0.58323 0.91547 0.54911 0.0
H155 H 0.56474 0.92398 0.48001 0.0
H156 H 0.36564 0.83999 0.27794 0.0
H157 H 0.34005 0.78465 0.26163 0.0
H158 H 0.39733 0.77301 0.35879 0.0
H159 H 0.42265 0.82843 0.37512 0.0
La160 La 0.6334 0.53013 0.71459 0.0
La161 La 0.58497 0.47372 0.69897 0.0
C162 C 0.67607 0.58233 0.74252 0.0
C163 C 0.67972 0.61014 0.76449 0.0
C164 C 0.70127 0.62271 0.79878 0.0
C165 C 0.70475 0.64853 0.8214 0.0
C166 C 0.68686 0.66248 0.8099 0.0
C167 C 0.66604 0.65046 0.77434 0.0
C168 C 0.66237 0.62438 0.75192 0.0
C169 C 0.65433 0.49621 0.67304 0.0
C170 C 0.60147 0.47926 0.79907 0.0
C171 C 0.55649 0.42033 0.66577 0.0
C172 C 0.56713 0.39748 0.66529 0.0
C173 C 0.55626 0.3748 0.63274 0.0
C174 C 0.5743 0.36154 0.62045 0.0
C175 C 0.60373 0.37142 0.64001 0.0
C176 C 0.61222 0.39075 0.67678 0.0
C177 C 0.594 0.40371 0.68936 0.0
C178 C 0.56691 0.50843 0.74185 0.0
C179 C 0.59365 0.52548 0.62486 0.0
O180 O 0.66381 0.55681 0.76537 0.0
O181 O 0.66509 0.57733 0.70297 0.0
O182 O 0.66048 0.52384 0.66358 0.0
O183 O 0.63481 0.48721 0.70448 0.0
O184 O 0.62029 0.50899 0.78527 0.0
O185 O 0.5873 0.45891 0.76733 0.0
O186 O 0.57475 0.44552 0.64378 0.0
O187 O 0.54939 0.42682 0.70374 0.0
O188 O 0.55379 0.47852 0.74476 0.0
O189 O 0.58639 0.51754 0.71142 0.0
O190 O 0.57826 0.49551 0.63679 0.0
O191 O 0.61565 0.5446 0.6535 0.0
H192 H 0.71493 0.61207 0.80878 0.0
H193 H 0.72046 0.65662 0.84919 0.0
H194 H 0.65207 0.66077 0.76447 0.0
H195 H 0.64568 0.61513 0.7253 0.0
H196 H 0.53573 0.36988 0.61367 0.0
H197 H 0.56713 0.34685 0.59181 0.0
H198 H 0.6347 0.39871 0.69245 0.0
H199 H 0.60284 0.42129 0.71458 0.0
La200 La 0.0961 0.62589 1.05072 0.0
La201 La 0.09906 0.57408 1.03038 0.0
C202 C 0.0807 0.66718 1.06061 0.0
C203 C 0.06488 0.67674 1.09244 0.0
C204 C 0.0813 0.70647 1.11108 0.0
C205 C 0.06682 0.71601 0.14148 0.0
C206 C 0.03552 0.69611 0.1532 0.0
C207 C 0.01885 0.6667 1.1336 0.0
C208 C 0.03339 0.65704 1.10361 0.0
C209 C 0.15445 0.64379 1.0256 0.0
C210 C 0.10497 0.5877 0.13509 0.0
C211 C 0.12679 0.54386 1.01817 0.0
C212 C 0.14984 0.54862 0.98434 0.0
C213 C 0.14344 0.55192 0.94058 0.0
C214 C 0.16791 0.56785 0.9114 0.0
C215 C 0.19908 0.58078 0.92548 0.0
C216 C 0.20547 0.57444 0.96766 0.0
C217 C 0.18087 0.55828 0.997 0.0
C218 C 0.04284 0.56228 1.06019 0.0
C219 C 0.06834 0.59026 0.95313 0.0
O220 O 0.10776 0.67069 1.07211 0.0
O221 O 0.06361 0.64089 1.04047 0.0
O222 O 0.14622 0.65265 1.05992 0.0
O223 O 0.12926 0.62277 1.0072 0.0
O224 O 0.09869 0.61033 1.12223 0.0
O225 O 0.10696 0.57092 1.10273 0.0
O226 O 0.09781 0.53389 1.00564 0.0
O227 O 0.13676 0.56744 1.04482 0.0
O228 O 0.04687 0.54483 1.03237 0.0
O229 O 0.06952 0.5816 1.07259 0.0
O230 O 0.08151 0.57355 0.96386 0.0
O231 O 0.071 0.61166 0.98273 0.0
H232 H 0.10549 0.72218 1.1025 0.0
H233 H 0.08016 0.73875 0.15626 0.0
H234 H 0.99486 0.65066 0.14274 0.0
H235 H 0.02006 0.63401 1.08969 0.0
H236 H 0.11988 0.54482 0.92974 0.0
H237 H 0.16259 0.57217 0.87861 0.0
H238 H 0.2294 0.58413 0.97892 0.0
H239 H 0.18632 0.5561 1.03069 0.0
La240 La 0.90899 0.53145 0.55084 0.0
La241 La 0.90647 0.47627 0.57268 0.0
C242 C 0.92271 0.58723 0.5372 0.0
C243 C 0.92592 0.60589 0.49843 0.0
C244 C 0.93163 0.63639 0.5028 0.0
C245 C 0.9361 0.65471 0.46574 0.0
C246 C 0.93481 0.64262 0.4239 0.0
C247 C 0.92834 0.6117 0.41991 0.0
C248 C 0.92389 0.59351 0.45685 0.0
C249 C 0.85069 0.49006 0.574 0.0
C250 C 0.90025 0.48443 0.46752 0.0
C251 C 0.8782 0.41814 0.58329 0.0
C252 C 0.84867 0.3972 0.6061 0.0
C253 C 0.84847 0.37914 0.64156 0.0
C254 C 0.82156 0.36295 0.66701 0.0
C255 C 0.79446 0.36465 0.65735 0.0
C256 C 0.79395 0.38067 0.61982 0.0
C257 C 0.82074 0.39681 0.5945 0.0
C258 C 0.96245 0.5201 0.54252 0.0
C259 C 0.9381 0.52413 0.64829 0.0
O260 O 0.89453 0.56467 0.54519 0.0
O261 O 0.94331 0.57816 0.54126 0.0
O262 O 0.85893 0.50673 0.53889 0.0
O263 O 0.87585 0.49475 0.59348 0.0
O264 O 0.90451 0.51258 0.47984 0.0
O265 O 0.89986 0.46623 0.50007 0.0
O266 O 0.90214 0.43724 0.60729 0.0
O267 O 0.87508 0.4321 0.54909 0.0
O268 O 0.95858 0.49819 0.56981 0.0
O269 O 0.93564 0.51312 0.53079 0.0
O270 O 0.92613 0.49449 0.63786 0.0
O271 O 0.93411 0.54243 0.61885 0.0
H272 H 0.93312 0.64617 0.53485 0.0
H273 H 0.94096 0.67839 0.46981 0.0
H274 H 0.92793 0.60186 0.38829 0.0
H275 H 0.91957 0.57 0.45296 0.0
H276 H 0.86957 0.37889 0.65096 0.0
H277 H 0.82278 0.35113 0.69615 0.0
H278 H 0.7734 0.38231 0.61162 0.0
H279 H 0.81984 0.41024 0.5671 0.0
La280 La 0.38765 0.89664 0.883 0.0
La281 La 0.42577 0.87097 0.90463 0.0
C282 C 0.35371 0.91865 0.85817 0.0
C283 C 0.34707 0.93446 0.82306 0.0
C284 C 0.32582 0.94481 0.83115 0.0
C285 C 0.31831 0.95959 0.79839 0.0
C286 C 0.33193 0.96409 0.75701 0.0
C287 C 0.35339 0.95375 0.74906 0.0
C288 C 0.36098 0.93902 0.78199 0.0
C289 C 0.35604 0.84151 0.92588 0.0
C290 C 0.41601 0.87549 0.7994 0.0
C291 C 0.43991 0.83258 0.93678 0.0
C292 C 0.42726 0.81062 0.97332 0.0
C293 C 0.40768 0.81339 1.00366 0.0
C294 C 0.39327 0.79102 1.03618 0.0
C295 C 0.39775 0.76511 1.03872 0.0
C296 C 0.41746 0.76245 1.00812 0.0
C297 C 0.43204 0.78504 0.97557 0.0
C298 C 0.45859 0.9233 0.86339 0.0
C299 C 0.42105 0.9188 0.97773 0.0
O300 O 0.34714 0.8901 0.85088 0.0
O301 O 0.38015 0.93472 0.87898 0.0
O302 O 0.35563 0.86664 0.93465 0.0
O303 O 0.3756 0.84851 0.89513 0.0
O304 O 0.40068 0.8901 0.8131 0.0
O305 O 0.42624 0.86356 0.83081 0.0
O306 O 0.45452 0.86219 0.94653 0.0
O307 O 0.42015 0.82627 0.90472 0.0
O308 O 0.46577 0.90143 0.86507 0.0
O309 O 0.43672 0.91711 0.89008 0.0
O310 O 0.42909 0.89684 0.9695 0.0
O311 O 0.40549 0.9239 0.94583 0.0
H312 H 0.3149 0.94132 0.86285 0.0
H313 H 0.30163 0.96718 0.80526 0.0
H314 H 0.36461 0.95742 0.71758 0.0
H315 H 0.37756 0.93123 0.77548 0.0
H316 H 0.40331 0.83274 1.00196 0.0
H317 H 0.37894 0.79437 1.05976 0.0
H318 H 0.42133 0.74279 1.00902 0.0
H319 H 0.44665 0.7823 0.95177 0.0
La320 La 0.47897 0.3731 0.22518 0.0
La321 La 0.53846 0.42162 0.24198 0.0
C322 C 0.42496 0.3315 0.20151 0.0
C323 C 0.40471 0.31863 0.16346 0.0
C324 C 0.37424 0.29391 0.1695 0.0
C325 C 0.35338 0.28269 0.13447 0.0
C326 C 0.36288 0.29605 1.09291 0.0
C327 C 0.39394 0.32009 1.08672 0.0
C328 C 0.41475 0.33137 1.12185 0.0
C329 C 0.51209 0.35236 0.26992 0.0
C330 C 0.52995 0.40645 0.14012 0.0
C331 C 0.59333 0.45002 0.27256 0.0
C332 C 0.6076 0.44365 0.31048 0.0
C333 C 0.58878 0.42614 0.34542 0.0
C334 C 0.60054 0.41436 0.37701 0.0
C335 C 0.63124 0.41948 0.37403 0.0
C336 C 0.65055 0.43822 0.34006 0.0
C337 C 0.63871 0.4501 0.30834 0.0
C338 C 0.50346 0.43951 0.19881 0.0
C339 C 0.48637 0.4095 0.31822 0.0
O340 O 0.44911 0.32746 0.20373 0.0
O341 O 0.43198 0.35955 0.21287 0.0
O342 O 0.48471 0.34768 0.27987 0.0
O343 O 0.52147 0.37146 0.23789 0.0
O344 O 0.50064 0.38541 0.15437 0.0
O345 O 0.55023 0.42341 0.17107 0.0
O346 O 0.57242 0.45837 0.28005 0.0
O347 O 0.58387 0.42846 0.24284 0.0
O348 O 0.53354 0.45227 0.1946 0.0
O349 O 0.49494 0.42038 0.22955 0.0
O350 O 0.51677 0.42336 0.30729 0.0
O351 O 0.46638 0.38888 0.28894 0.0
H352 H 0.36631 0.28384 0.2016 0.0
H353 H 0.32965 0.26414 0.14004 0.0
H354 H 0.40174 0.33121 1.05518 0.0
H355 H 0.43825 0.35056 1.11686 0.0
H356 H 0.56456 0.42043 0.34739 0.0
H357 H 0.58531 0.40071 0.40345 0.0
H358 H 0.6743 0.44262 0.33703 0.0
H359 H 0.65337 0.46311 0.28106 0.0
La360 La 0.09906 0.46383 0.55264 0.0
La361 La 0.10184 0.51902 0.57288 0.0
C362 C 0.08475 0.40762 0.54232 0.0
C363 C 0.07869 0.38658 0.50576 0.0
C364 C 0.06949 0.35536 0.51385 0.0
C365 C 0.06134 0.33449 0.47922 0.0
C366 C 0.06236 0.3447 0.43607 0.0
C367 C 0.07262 0.37635 0.42822 0.0
C368 C 0.08071 0.39711 0.46281 0.0
C369 C 0.15769 0.50525 0.57418 0.0
C370 C 0.10717 0.51008 0.46805 0.0
C371 C 0.12963 0.57733 0.58138 0.0
C372 C 0.15839 0.59932 0.60517 0.0
C373 C 0.15673 0.61521 0.64184 0.0
C374 C 0.18318 0.63226 0.66801 0.0
C375 C 0.21166 0.63359 0.6579 0.0
C376 C 0.21394 0.61992 0.61924 0.0
C377 C 0.18763 0.60303 0.59307 0.0
C378 C 0.04554 0.47491 0.54344 0.0
C379 C 0.07122 0.47214 0.64995 0.0
O380 O 0.11332 0.43056 0.54603 0.0
O381 O 0.06441 0.41686 0.54761 0.0
O382 O 0.1488 0.48812 0.5397 0.0
O383 O 0.13293 0.50093 0.59419 0.0
O384 O 0.10259 0.48184 0.48103 0.0
O385 O 0.10802 0.52856 0.50014 0.0
O386 O 0.10514 0.55839 0.60456 0.0
O387 O 0.13402 0.56289 0.54917 0.0
O388 O 0.04966 0.4969 0.57038 0.0
O389 O 0.07224 0.48188 0.5316 0.0
O390 O 0.08331 0.50172 0.63882 0.0
O391 O 0.07479 0.45359 0.62095 0.0
H392 H 0.06792 0.34699 0.54699 0.0
H393 H 0.05363 0.31031 0.48621 0.0
H394 H 0.07303 0.38487 0.39547 0.0
H395 H 0.08766 0.42117 0.45613 0.0
H396 H 0.13464 0.61305 0.65157 0.0
H397 H 0.18067 0.64226 0.69799 0.0
H398 H 0.2356 0.62064 0.61075 0.0
H399 H 0.19003 0.59156 0.56459 0.0
La400 La 0.61617 0.09976 0.8835 0.0
La401 La 0.58353 0.13077 0.90482 0.0
C402 C 0.64591 0.07331 0.85919 0.0
C403 C 0.64902 0.05252 0.82839 0.0
C404 C 0.679 0.06095 0.81331 0.0
C405 C 0.68381 0.04036 0.78822 0.0
C406 C 0.65866 0.01088 0.77793 0.0
C407 C 0.62851 0.00254 0.79275 0.0
C408 C 0.6237 0.02321 0.81784 0.0
C409 C 0.65298 0.15587 0.92235 0.0
C410 C 0.58867 0.12117 0.79959 0.0
C411 C 0.57462 0.17307 0.93525 0.0
C412 C 0.59654 0.20438 0.95153 0.0
C413 C 0.5884 0.21595 0.98762 0.0
C414 C 0.61119 0.24233 1.00922 0.0
C415 C 0.64253 0.25728 0.99519 0.0
C416 C 0.64982 0.24756 0.95625 0.0
C417 C 0.62699 0.22121 0.93462 0.0
C418 C 0.5447 0.07774 0.87019 0.0
C419 C 0.58439 0.08068 0.97892 0.0
O420 O 0.65221 0.10082 0.84548 0.0
O421 O 0.62235 0.06104 0.88613 0.0
O422 O 0.6513 0.12987 0.93239 0.0
O423 O 0.63283 0.14962 0.89241 0.0
O424 O 0.60101 0.1039 0.81399 0.0
O425 O 0.58274 0.13686 0.83034 0.0
O426 O 0.57287 0.15015 0.95855 0.0
O427 O 0.57648 0.16866 0.89382 0.0
O428 O 0.53917 0.10056 0.87344 0.0
O429 O 0.5679 0.08321 0.89397 0.0
O430 O 0.57945 0.10484 0.97067 0.0
O431 O 0.59673 0.07274 0.94614 0.0
H432 H 0.69889 0.08329 0.82177 0.0
H433 H 0.70727 0.04736 0.77729 0.0
H434 H 0.60859 0.98018 0.78452 0.0
H435 H 0.60037 0.01609 0.82945 0.0
H436 H 0.56499 0.20334 1.00098 0.0
H437 H 0.60486 0.24898 1.03945 0.0
H438 H 0.67371 0.25877 0.94469 0.0
H439 H 0.63363 0.21283 0.90639 0.0
La440 La 0.53218 0.63086 0.22522 0.0
La441 La 0.47427 0.58202 0.24012 0.0
C442 C 0.58524 0.67308 0.19945 0.0
C443 C 0.60362 0.68467 0.15918 0.0
C444 C 0.61424 0.71549 0.14597 0.0
C445 C 0.63219 0.72728 1.10826 0.0
C446 C 0.6402 0.70852 1.08367 0.0
C447 C 0.62976 0.67776 1.09711 0.0
C448 C 0.61153 0.66587 0.13445 0.0
C449 C 0.49748 0.65046 0.26711 0.0
C450 C 0.48178 0.59845 0.13953 0.0
C451 C 0.42074 0.55388 0.27406 0.0
C452 C 0.39822 0.56482 0.27867 0.0
C453 C 0.37822 0.5548 0.31457 0.0
C454 C 0.36651 0.57326 0.33057 0.0
C455 C 0.37495 0.60227 0.31103 0.0
C456 C 0.39094 0.60961 0.27098 0.0
C457 C 0.4028 0.59117 0.25515 0.0
C458 C 0.50983 0.56449 0.19932 0.0
C459 C 0.52594 0.59277 0.31693 0.0
O460 O 0.56077 0.6765 0.20239 0.0
O461 O 0.57961 0.64603 0.21417 0.0
O462 O 0.52472 0.65534 0.27883 0.0
O463 O 0.48887 0.63169 0.23477 0.0
O464 O 0.51151 0.61769 0.15401 0.0
O465 O 0.46083 0.58404 0.17075 0.0
O466 O 0.44649 0.57056 0.29607 0.0
O467 O 0.42646 0.54842 0.23457 0.0
O468 O 0.47971 0.55084 0.19542 0.0
O469 O 0.51825 0.58389 0.22958 0.0
O470 O 0.4967 0.575 0.30175 0.0
O471 O 0.54489 0.61704 0.29123 0.0
H472 H 0.60855 0.73043 0.16482 0.0
H473 H 0.6399 0.75101 1.09839 0.0
H474 H 0.63511 0.66263 1.07814 0.0
H475 H 0.60361 0.64199 0.14376 0.0
H476 H 0.37457 0.53463 0.33321 0.0
H477 H 0.35427 0.56645 0.36139 0.0
H478 H 0.39718 0.63125 0.25435 0.0
H479 H 0.4183 0.59932 0.22725 0.0
H480 H 0.50457 0.17138 0.24615 0.0
H481 H 0.53359 0.19549 0.37968 0.0
H482 H 0.50918 0.22233 0.23401 0.0
H483 H 0.53788 0.24662 0.36787 0.0
H484 H 0.50156 0.3176 0.3443 0.0
H485 H 0.50569 0.27098 0.35678 0.0
H486 H 0.54158 0.27887 0.2266 0.0
H487 H 0.53777 0.32602 0.21449 0.0
C488 C 0.51258 0.18778 0.27289 0.0
C489 C 0.51908 0.17888 0.31383 0.0
C490 C 0.51523 0.21733 0.26588 0.0
C491 C 0.52384 0.23939 0.29977 0.0
C492 C 0.53091 0.23068 0.34067 0.0
C493 C 0.52883 0.20123 0.34745 0.0
C494 C 0.511 0.30988 0.31849 0.0
C495 C 0.51965 0.32635 0.27848 0.0
C496 C 0.51339 0.28283 0.32571 0.0
C497 C 0.52391 0.2703 0.29289 0.0
C498 C 0.53309 0.28711 0.25294 0.0
C499 C 0.53126 0.31464 0.24602 0.0
H500 H 0.32715 0.49322 0.58977 0.0
H501 H 0.33255 0.53368 0.71559 0.0
H502 H 0.28086 0.49664 0.57184 0.0
H503 H 0.28552 0.53736 0.69757 0.0
H504 H 0.17742 0.50423 0.66121 0.0
H505 H 0.2275 0.50849 0.68481 0.0
H506 H 0.26074 0.52903 0.55229 0.0
H507 H 0.21138 0.52442 0.52928 0.0
C508 C 0.31886 0.50353 0.61351 0.0
C509 C 0.33448 0.51361 0.65395 0.0
C510 C 0.29192 0.50555 0.60314 0.0
C511 C 0.27867 0.51749 0.63283 0.0
C512 C 0.29441 0.52788 0.67348 0.0
C513 C 0.32188 0.52617 0.68373 0.0
C514 C 0.19571 0.5104 0.63733 0.0
C515 C 0.18985 0.51403 0.59304 0.0
C516 C 0.22464 0.5127 0.65086 0.0
C517 C 0.24873 0.51849 0.6206 0.0
C518 C 0.24311 0.52367 0.57693 0.0
C519 C 0.21455 0.5214 0.56362 0.0
H520 H 0.80301 0.31193 1.06929 0.0
H521 H 0.83643 0.3373 0.93764 0.0
H522 H 0.75533 0.26771 1.04289 0.0
H523 H 0.7875 0.29225 0.91045 0.0
H524 H 0.68198 0.21346 0.87736 0.0
H525 H 0.72935 0.26233 0.89841 0.0
H526 H 0.73667 0.21778 1.01557 0.0
H527 H 0.68984 0.16992 0.99486 0.0
C528 C 0.80012 0.3084 1.03434 0.0
C529 C 0.82431 0.32879 1.00605 0.0
C530 C 0.7724 0.28245 1.01899 0.0
C531 C 0.76687 0.27517 0.97418 0.0
C532 C 0.79034 0.29646 0.94523 0.0
C533 C 0.81862 0.32265 0.96086 0.0
C534 C 0.69349 0.21423 0.9079 0.0
C535 C 0.68123 0.18732 0.9346 0.0
C536 C 0.72112 0.24239 0.91987 0.0
C537 C 0.73751 0.24495 0.95929 0.0
C538 C 0.72507 0.2178 0.98549 0.0
C539 C 0.69787 0.18987 0.97342 0.0
H540 H 0.5047 0.68138 0.34376 0.0
H541 H 0.47207 0.67819 0.21235 0.0
H542 H 0.49985 0.72717 0.35869 0.0
H543 H 0.46753 0.72464 0.22701 0.0
H544 H 0.50709 0.83212 0.25366 0.0
H545 H 0.50111 0.78103 0.23864 0.0
H546 H 0.46754 0.75172 0.36957 0.0
H547 H 0.47287 0.80294 0.38411 0.0
C548 C 0.49588 0.69006 0.31806 0.0
C549 C 0.48862 0.67538 0.2768 0.0
C550 C 0.4931 0.71667 0.32671 0.0
C551 C 0.48351 0.73055 0.29424 0.0
C552 C 0.47536 0.71534 0.25313 0.0
C553 C 0.47761 0.68823 0.2447 0.0
C554 C 0.49775 0.81463 0.27914 0.0
C555 C 0.49034 0.82221 0.32015 0.0
C556 C 0.49427 0.78497 0.27042 0.0
C557 C 0.48392 0.76144 0.30265 0.0
C558 C 0.47581 0.76878 0.34356 0.0
C559 C 0.47862 0.79835 0.35197 0.0
H560 H 0.68285 0.50394 0.5952 0.0
H561 H 0.68231 0.46842 0.72375 0.0
H562 H 0.72728 0.49821 0.57527 0.0
H563 H 0.7276 0.46241 0.70372 0.0
H564 H 0.83378 0.49311 0.66138 0.0
H565 H 0.78465 0.48957 0.68701 0.0
H566 H 0.74682 0.46571 0.55671 0.0
H567 H 0.79546 0.4699 0.5316 0.0
C568 C 0.69178 0.49415 0.61917 0.0
C569 C 0.67815 0.48629 0.66101 0.0
C570 C 0.71767 0.4908 0.60762 0.0
C571 C 0.73189 0.47971 0.63746 0.0
C572 C 0.71795 0.47124 0.67945 0.0
C573 C 0.69147 0.47427 0.69092 0.0
C574 C 0.81472 0.48643 0.63844 0.0
C575 C 0.81911 0.4818 0.59409 0.0
C576 C 0.7863 0.4845 0.65315 0.0
C577 C 0.76119 0.478 0.6241 0.0
C578 C 0.7653 0.47171 0.58044 0.0
C579 C 0.79343 0.47372 0.56591 0.0
H580 H 0.33008 0.78396 0.88184 0.0
H581 H 0.31857 0.82602 0.99749 0.0
H582 H 0.28294 0.73431 0.90143 0.0
H583 H 0.27237 0.77714 1.01719 0.0
H584 H 0.20802 0.68128 1.06896 0.0
H585 H 0.25632 0.72559 1.04365 0.0
H586 H 0.22259 0.70584 0.9111 0.0
H587 H 0.1732 0.66078 0.93711 0.0
C588 C 0.31786 0.78268 0.9117 0.0
C589 C 0.32877 0.80948 0.93811 0.0
C590 C 0.29045 0.75409 0.92283 0.0
C591 C 0.2732 0.75095 0.9613 0.0
C592 C 0.28464 0.77779 0.98766 0.0
C593 C 0.31145 0.80622 0.97623 0.0
C594 C 0.21077 0.68585 1.03418 0.0
C595 C 0.18607 0.66683 1.00548 0.0
C596 C 0.23874 0.71181 1.01954 0.0
C597 C 0.24389 0.72044 0.97511 0.0
C598 C 0.21996 0.70046 0.94563 0.0
C599 C 0.19146 0.67427 0.96055 0.0
H600 H 0.69098 0.24917 1.01805 0.0
H601 H 0.64985 0.30616 1.04617 0.0
H602 H 0.711 0.25612 1.0908 0.0
H603 H 0.67226 0.31548 1.1194 0.0
H604 H 0.62531 0.24103 0.22858 0.0
H605 H 0.64587 0.27827 0.17016 0.0
H606 H 0.72604 0.26482 0.16137 0.0
H607 H 0.70353 0.22516 0.21807 0.0
C608 C 0.68801 0.26502 1.03898 0.0
C609 C 0.66746 0.27576 1.02726 0.0
C610 C 0.6997 0.26919 1.08136 0.0
C611 C 0.69125 0.28448 1.11247 0.0
C612 C 0.67735 0.30169 1.0972 0.0
C613 C 0.66478 0.29672 1.05503 0.0
C614 C 0.64751 0.24625 0.21443 0.0
C615 C 0.66179 0.22882 0.22594 0.0
C616 C 0.65986 0.2683 0.1812 0.0
C617 C 0.68701 0.27359 0.15884 0.0
C618 C 0.70423 0.26021 0.17609 0.0
C619 C 0.69145 0.23758 0.20891 0.0
H620 H 0.41911 0.66466 0.31306 0.0
H621 H 0.33175 0.59748 0.37215 0.0
H622 H 0.43414 0.69453 0.37951 0.0
H623 H 0.34812 0.62575 0.4399 0.0
H624 H 0.38907 0.6463 0.56531 0.0
H625 H 0.36982 0.65847 0.49878 0.0
H626 H 0.45451 0.67625 0.43244 0.0
H627 H 0.47365 0.66519 0.49876 0.0
C628 C 0.40237 0.65671 0.33945 0.0
C629 C 0.3752 0.62718 0.33842 0.0
C630 C 0.41132 0.67384 0.37807 0.0
C631 C 0.39375 0.6612 0.41626 0.0
C632 C 0.36319 0.63575 0.4119 0.0
C633 C 0.3538 0.61914 0.37286 0.0
C634 C 0.40387 0.65385 0.53669 0.0
C635 C 0.4324 0.65386 0.53667 0.0
C636 C 0.39287 0.66082 0.49853 0.0
C637 C 0.40989 0.66719 0.45946 0.0
C638 C 0.44038 0.67136 0.46145 0.0
C639 C 0.45148 0.66479 0.49968 0.0
H640 H 0.79836 0.3572 0.89907 0.0
H641 H 0.75855 0.41707 0.88865 0.0
H642 H 0.77032 0.32935 0.83513 0.0
H643 H 0.72828 0.38792 0.82491 0.0
H644 H 0.77017 0.39961 0.68635 0.0
H645 H 0.749 0.39636 0.7575 0.0
H646 H 0.74046 0.30584 0.77649 0.0
H647 H 0.76416 0.3105 0.70518 0.0
C648 C 0.78238 0.36346 0.88378 0.0
C649 C 0.78167 0.39006 0.89708 0.0
C650 C 0.7658 0.34722 0.84702 0.0
C651 C 0.74832 0.35752 0.82261 0.0
C652 C 0.74296 0.38045 0.84126 0.0
C653 C 0.76003 0.39706 0.87797 0.0
C654 C 0.7627 0.37841 0.70493 0.0
C655 C 0.77016 0.35595 0.69115 0.0
C656 C 0.75021 0.37636 0.74624 0.0
C657 C 0.74489 0.35171 0.77453 0.0
C658 C 0.74621 0.32618 0.75683 0.0
C659 C 0.75959 0.32865 0.71583 0.0
H660 H 0.33933 0.74235 1.07314 0.0
H661 H 0.42294 0.73547 1.08625 0.0
H662 H 0.32328 0.72115 0.14505 0.0
H663 H 0.40536 0.71095 0.15714 0.0
H664 H 0.41174 0.76036 0.28686 0.0
H665 H 0.4109 0.73468 0.22077 0.0
H666 H 0.31086 0.6975 0.21003 0.0
H667 H 0.31251 0.72576 0.27565 0.0
C668 C 0.3539 0.73541 1.09107 0.0
C669 C 0.38335 0.74247 1.07513 0.0
C670 C 0.34436 0.72249 1.13248 0.0
C671 C 0.3639 0.71583 0.1588 0.0
C672 C 0.39052 0.71748 0.13921 0.0
C673 C 0.40049 0.73123 1.09808 0.0
C674 C 0.38923 0.74563 0.2716 0.0
C675 C 0.36248 0.7465 0.28505 0.0
C676 C 0.38865 0.73063 0.23301 0.0
C677 C 0.36116 0.716 0.20748 0.0
C678 C 0.33299 0.71061 0.2269 0.0
C679 C 0.33374 0.72641 0.26497 0.0
H680 H 0.68825 0.44536 0.41602 0.0
H681 H 0.59987 0.36027 0.40483 0.0
H682 H 0.70044 0.42536 0.48159 0.0
H683 H 0.61034 0.34122 0.47124 0.0
H684 H 0.66087 0.4196 0.61982 0.0
H685 H 0.68436 0.42511 0.54994 0.0
H686 H 0.6274 0.32597 0.52914 0.0
H687 H 0.60181 0.32114 0.59881 0.0
C688 C 0.67168 0.42213 0.42713 0.0
C689 C 0.6424 0.40498 0.4067 0.0
C690 C 0.67849 0.41067 0.46504 0.0
C691 C 0.65576 0.3823 0.48375 0.0
C692 C 0.62854 0.3634 0.45918 0.0
C693 C 0.62206 0.37459 0.42112 0.0
C694 C 0.65427 0.39864 0.6014 0.0
C695 C 0.62818 0.37023 0.61356 0.0
C696 C 0.6679 0.40178 0.56062 0.0
C697 C 0.6558 0.37635 0.53173 0.0
C698 C 0.63552 0.34655 0.54904 0.0
C699 C 0.62112 0.34358 0.58935 0.0
H700 H 0.20487 0.63511 0.8999 0.0
H701 H 0.24901 0.57924 0.88882 0.0
H702 H 0.23226 0.66464 0.83667 0.0
H703 H 0.27861 0.61012 0.82572 0.0
H704 H 0.23832 0.60037 0.68581 0.0
H705 H 0.25885 0.60269 0.75758 0.0
H706 H 0.26247 0.69063 0.77964 0.0
H707 H 0.2392 0.68664 0.70781 0.0
C708 C 0.22163 0.63011 0.88459 0.0
C709 C 0.22389 0.60419 0.89757 0.0
C710 C 0.23784 0.64733 0.84825 0.0
C711 C 0.25653 0.63875 0.8239 0.0
C712 C 0.26309 0.61633 0.84206 0.0
C713 C 0.2464 0.59873 0.87837 0.0
C714 C 0.24459 0.62085 0.70528 0.0
C715 C 0.23587 0.64262 0.69214 0.0
C716 C 0.25669 0.62237 0.74693 0.0
C717 C 0.2604 0.64585 0.77611 0.0
C718 C 0.25793 0.67108 0.75921 0.0
C719 C 0.24484 0.66903 0.71791 0.0
H720 H 0.46694 0.93117 1.04566 0.0
H721 H 0.39584 0.95428 1.01526 0.0
H722 H 0.4805 0.96325 1.11203 0.0
H723 H 0.40876 0.98557 1.08215 0.0
H724 H 0.42486 0.02796 0.22834 0.0
H725 H 0.41035 0.99598 0.16159 0.0
H726 H 0.50372 0.01186 0.1525 0.0
H727 H 0.51851 0.04389 0.21879 0.0
C728 C 0.45369 0.94268 1.05259 0.0
C729 C 0.42966 0.93873 1.02244 0.0
C730 C 0.46182 0.96184 1.09177 0.0
C731 C 0.4463 0.9784 1.1054 0.0
C732 C 0.42199 0.97403 1.07547 0.0
C733 C 0.41438 0.95551 1.03579 0.0
C734 C 0.44277 0.02496 0.21263 0.0
C735 C 0.47347 0.03981 0.23172 0.0
C736 C 0.43424 0.00608 0.17306 0.0
C737 C 0.45537 -0.00033 0.14911 0.0
C738 C 0.48588 0.01455 0.16841 0.0
C739 C 0.49457 0.03373 0.20743 0.0
H740 H 0.42614 0.38271 0.36169 0.0
H741 H 0.51978 0.45777 0.38046 0.0
H742 H 0.40983 0.39749 0.42936 0.0
H743 H 0.50353 0.47242 0.44715 0.0
H744 H 0.46518 0.51298 0.55674 0.0
H745 H 0.47942 0.49651 0.48981 0.0
H746 H 0.40464 0.40328 0.50953 0.0
H747 H 0.39017 0.41988 0.57719 0.0
C748 C 0.44372 0.4025 0.37965 0.0
C749 C 0.47502 0.41845 0.36275 0.0
C750 C 0.43408 0.41125 0.41982 0.0
C751 C 0.45461 0.43721 0.44678 0.0
C752 C 0.48576 0.45293 0.42951 0.0
C753 C 0.4955 0.44401 0.38993 0.0
C754 C 0.45137 0.48876 0.54765 0.0
C755 C 0.42593 0.46851 0.57534 0.0
C756 C 0.46008 0.47889 0.50798 0.0
C757 C 0.44427 0.44777 0.49122 0.0
C758 C 0.41845 0.42748 0.51869 0.0
C759 C 0.40988 0.43728 0.55887 0.0
H760 H 0.05509 0.50436 0.71006 0.0
H761 H 0.04313 0.41298 0.69557 0.0
H762 H 0.02625 0.48879 0.77834 0.0
H763 H 0.01384 0.39703 0.76488 0.0
H764 H 0.97272 0.37765 0.91097 0.0
H765 H 1.0021 0.39136 0.84172 0.0
H766 H 0.98434 0.46733 0.82433 0.0
H767 H 0.9554 0.45369 0.89253 0.0
C768 C 0.04646 0.48069 0.72101 0.0
C769 C 0.05255 0.46054 0.69491 0.0
C770 C 0.02915 0.47137 0.76135 0.0
C771 C 0.01635 0.44098 0.77989 0.0
C772 C 0.02265 0.42072 0.75397 0.0
C773 C 0.03984 0.43004 0.71306 0.0
C774 C 0.97485 0.39733 0.89262 0.0
C775 C 0.96063 0.41407 0.90966 0.0
C776 C 0.99209 0.40541 0.85175 0.0
C777 C 0.99693 0.43116 0.82475 0.0
C778 C 0.98262 0.4477 0.84218 0.0
C779 C 0.96527 0.43949 0.88248 0.0
H780 H 0.55773 0.00906 0.26737 0.0
H781 H 0.51392 0.9256 0.19131 0.0
H782 H 0.57152 0.04046 0.19991 0.0
H783 H 0.52858 0.95679 1.12382 0.0
H784 H 0.5731 0.09446 1.06691 0.0
H785 H 0.56113 0.064 0.1352 0.0
H786 H 0.56213 0.98964 1.06548 0.0
H787 H 0.57501 0.02038 0.99797 0.0
C788 C 0.5511 0.99688 0.23652 0.0
C789 C 0.53438 0.96358 0.23736 0.0
C790 C 0.55917 0.01543 0.19659 0.0
C791 C 0.5519 0.00253 0.15343 0.0
C792 C 0.53556 0.96916 0.15447 0.0
C793 C 0.5268 0.95066 0.1944 0.0
C794 C 0.57093 0.07167 1.06542 0.0
C795 C 0.57554 0.06112 1.02415 0.0
C796 C 0.56401 0.05366 1.10586 0.0
C797 C 0.56021 0.02301 1.10883 0.0
C798 C 0.56433 0.01242 1.06732 0.0
C799 C 0.57201 0.03068 1.02729 0.0
H800 H 0.62094 0.5855 0.58085 0.0
H801 H 0.54538 0.49246 0.56253 0.0
H802 H 0.60677 0.60141 0.51188 0.0
H803 H 0.53137 0.50816 0.49471 0.0
H804 H 0.49725 0.53811 0.36976 0.0
H805 H 0.51323 0.52393 0.43732 0.0
H806 H 0.59713 0.6129 0.44033 0.0
H807 H 0.5813 0.62681 0.37113 0.0
C808 C 0.60113 0.56799 0.56271 0.0
C809 C 0.58483 0.53699 0.58015 0.0
C810 C 0.59274 0.57736 0.52168 0.0
C811 C 0.56705 0.55673 0.49406 0.0
C812 C 0.55097 0.52593 0.51211 0.0
C813 C 0.55938 0.51653 0.55266 0.0
C814 C 0.51927 0.55513 0.38417 0.0
C815 C 0.53724 0.58418 0.36208 0.0
C816 C 0.5288 0.54671 0.42465 0.0
C817 C 0.55706 0.56656 0.44826 0.0
C818 C 0.5751 0.59584 0.42608 0.0
C819 C 0.56579 0.60413 0.38493 0.0
H820 H 0.0373 0.61931 0.90871 0.0
H821 H 0.05483 0.54342 0.89173 0.0
H822 H 0.00776 0.60551 0.83928 0.0
H823 H 0.02579 0.52972 0.82337 0.0
H824 H 0.95471 0.49228 0.70914 0.0
H825 H 0.98375 0.50808 0.77745 0.0
H826 H 0.99577 0.59968 0.76234 0.0
H827 H 0.96622 0.58348 0.69296 0.0
C828 C 0.0352 0.59967 0.89064 0.0
C829 C 0.04951 0.58298 0.90812 0.0
C830 C 0.01787 0.59153 0.84967 0.0
C831 C 0.01304 0.56579 0.82306 0.0
C832 C 0.02747 0.54932 0.84092 0.0
C833 C 0.0449 0.55758 0.88131 0.0
C834 C 0.96331 0.51597 0.71971 0.0
C835 C 0.95702 0.53599 0.69314 0.0
C836 C 0.98073 0.52542 0.76007 0.0
C837 C 0.99349 0.55585 0.77816 0.0
C838 C 0.98701 0.57599 0.75176 0.0
C839 C 0.96968 0.56653 0.71083 0.0
H840 H 0.45759 0.98273 0.39756 0.0
H841 H 0.47388 0.05951 0.47857 0.0
H842 H 0.46124 0.95629 0.46305 0.0
H843 H 0.49234 0.03928 0.5373 0.0
H844 H 0.52087 0.93834 0.48531 0.0
H845 H 0.50533 0.96154 0.54173 0.0
H846 H 0.54036 0.04374 0.46453 0.0
H847 H 0.54332 0.01565 0.40032 0.0
C848 C 0.46219 0.9944 0.42876 0.0
C849 C 0.47154 0.02605 0.43102 0.0
C850 C 0.46511 0.97961 0.46623 0.0
C851 C 0.48386 0.99865 0.50081 0.0
C852 C 0.4822 0.02554 0.50819 0.0
C853 C 0.47405 0.03832 0.47321 0.0
C854 C 0.52289 0.96027 0.47843 0.0
C855 C 0.52709 0.97236 0.43562 0.0
C856 C 0.51612 0.97467 0.51231 0.0
C857 C 0.51549 0.00187 0.50281 0.0
C858 C 0.53513 0.01999 0.46835 0.0
C859 C 0.53758 0.00424 0.43187 0.0
H860 H 0.42135 0.48087 0.82595 0.0
H861 H 0.47508 0.46086 0.73562 0.0
H862 H 0.46289 0.49792 0.87967 0.0
H863 H 0.50905 0.46458 0.79621 0.0
H864 H 0.53886 0.54449 0.73609 0.0
H865 H 0.50471 0.54162 0.79546 0.0
H866 H 0.54861 0.50676 0.88188 0.0
H867 H 0.58919 0.52041 0.82874 0.0
C868 C 0.4417 0.47978 0.8175 0.0
C869 C 0.44854 0.47614 0.77403 0.0
C870 C 0.46436 0.48721 0.84974 0.0
C871 C 0.49181 0.48746 0.83848 0.0
C872 C 0.48987 0.46861 0.80278 0.0
C873 C 0.47011 0.46594 0.76799 0.0
C874 C 0.54324 0.53904 0.76874 0.0
C875 C 0.56409 0.52799 0.77589 0.0
C876 C 0.52347 0.53701 0.8029 0.0
C877 C 0.52079 0.51808 0.83917 0.0
C878 C 0.54778 0.51766 0.85154 0.0
C879 C 0.57009 0.52356 0.81964 0.0
H880 H 0.96362 0.41381 0.14659 0.0
H881 H 0.02826 0.48364 1.05783 0.0
H882 H 0.97777 0.45314 0.20252 0.0
H883 H 0.05002 0.51921 1.11951 0.0
H884 H 0.04314 0.58605 0.14135 0.0
H885 H 0.02732 0.54811 0.20003 0.0
H886 H 0.95706 0.48009 1.1164 0.0
H887 H 0.9805 0.5142 1.05337 0.0
C888 C 0.98214 0.43711 0.13961 0.0
C889 C 0.99106 0.44744 1.09618 0.0
C890 C 0.99118 0.45931 0.17262 0.0
C891 C 0.01068 0.4905 0.16138 0.0
C892 C 0.03105 0.49594 1.12579 0.0
C893 C 0.01888 0.47561 1.09017 0.0
C894 C 0.02464 0.56262 0.13496 0.0
C895 C 0.01681 0.55122 1.09181 0.0
C896 C 0.01466 0.54125 0.16938 0.0
C897 C 0.99533 0.50982 0.15946 0.0
C898 C 0.97591 0.50351 1.12221 0.0
C899 C 0.98905 0.52299 1.08579 0.0
H900 H 0.98247 0.45884 0.55005 0.0
H901 H 0.0471 0.45392 0.46086 0.0
H902 H 0.95769 0.469 0.48767 0.0
H903 H 0.02977 0.47587 0.40344 0.0
H904 H 0.0256 0.53632 0.549 0.0
H905 H 0.04979 0.52561 0.48708 0.0
H906 H 0.97684 0.51791 0.40264 0.0
H907 H 0.96 0.54032 0.45935 0.0
C908 C 0.99127 0.45954 0.51753 0.0
C909 C 0.01976 0.46033 0.51116 0.0
C910 C 0.97738 0.46562 0.48147 0.0
C911 C 0.99664 0.47994 0.44467 0.0
C912 C 0.01712 0.46918 0.434 0.0
C913 C 0.02798 0.45795 0.46777 0.0
C914 C 0.01648 0.53533 0.51645 0.0
C915 C 0.98791 0.53445 0.50996 0.0
C916 C 0.03004 0.52893 0.48067 0.0
C917 C 0.01043 0.51432 0.44416 0.0
C918 C 0.98978 0.52489 0.43307 0.0
C919 C 0.97924 0.53641 0.46646 0.0
H920 H 0.43319 0.95921 0.8397 0.0
H921 H 0.49345 0.92559 0.79335 0.0
H922 H 0.44842 0.99456 0.77829 0.0
H923 H 0.50945 0.96217 0.73266 0.0
H924 H 0.56426 0.03787 0.84469 0.0
H925 H 0.54515 0.0028 0.78347 0.0
H926 H 0.48744 0.04154 0.74309 0.0
H927 H 0.50762 0.07756 0.80407 0.0
C928 C 0.44984 0.95958 0.81659 0.0
C929 C 0.46479 0.94226 0.82385 0.0
C930 C 0.45798 0.9791 0.78034 0.0
C931 C 0.48463 0.98487 0.75608 0.0
C932 C 0.49159 0.96067 0.75461 0.0
C933 C 0.48363 0.94081 0.79058 0.0
C934 C 0.54753 0.03886 0.82265 0.0
C935 C 0.5351 0.05815 0.83124 0.0
C936 C 0.5371 0.01943 0.78654 0.0
C937 C 0.51163 0.01682 0.76165 0.0
C938 C 0.50523 0.04139 0.76386 0.0
C939 C 0.51576 0.06108 0.79985 0.0
H940 H 0.54791 0.53913 0.20955 0.0
H941 H 0.52184 0.58447 1.11181 0.0
H942 H 0.54543 0.50325 0.15386 0.0
H943 H 0.50894 0.54253 1.06166 0.0
H944 H 0.48997 0.41929 1.11103 0.0
H945 H 0.50483 0.4626 1.06155 0.0
H946 H 0.46846 0.50149 0.15323 0.0
H947 H 0.46556 0.46498 0.20885 0.0
C948 C 0.54238 0.54221 0.17627 0.0
C949 C 0.53037 0.56187 0.16676 0.0
C950 C 0.54073 0.52152 0.14405 0.0
C951 C 0.52181 0.51736 1.10696 0.0
C952 C 0.52022 0.54314 1.09239 0.0
C953 C 0.52573 0.56623 1.12246 0.0
C954 C 0.48724 0.43817 1.12187 0.0
C955 C 0.48283 0.44233 0.16616 0.0
C956 C 0.49356 0.46186 1.09214 0.0
C957 C 0.4921 0.48759 1.10681 0.0
C958 C 0.47306 0.48323 0.14353 0.0
C959 C 0.47108 0.46213 0.17563 0.0
H960 H 0.32842 0.0172 0.76402 0.0
H961 H 0.31816 0.94699 0.67213 0.0
H962 H 0.32288 0.0472 0.70457 0.0
H963 H 0.31359 0.97711 0.61286 0.0
H964 H 0.31023 0.02825 0.50774 0.0
H965 H 0.28722 0.00088 0.57542 0.0
H966 H 0.36109 0.07632 0.64821 0.0
H967 H 0.38315 0.10441 0.58067 0.0
C968 C 0.32429 0.00788 0.73125 0.0
C969 C 0.32433 0.98011 0.72238 0.0
C970 C 0.32116 0.02505 0.69729 0.0
C971 C 0.31792 0.01465 0.65402 0.0
C972 C 0.31561 0.98568 0.64583 0.0
C973 C 0.31882 0.96863 0.67966 0.0
C974 C 0.32063 0.0398 0.53823 0.0
C975 C 0.34919 0.06797 0.53893 0.0
C976 C 0.30755 0.02393 0.57705 0.0
C977 C 0.32306 0.03587 0.6169 0.0
C978 C 0.34872 0.06627 0.61801 0.0
C979 C 0.36161 0.08228 0.57922 0.0
H980 H 0.3044 0.28876 1.09786 0.0
H981 H 0.36961 0.28546 1.00752 0.0
H982 H 0.27278 0.28948 1.03689 0.0
H983 H 0.33865 0.2871 0.9467 0.0
H984 H 0.29103 0.30084 0.84073 0.0
H985 H 0.29151 0.26955 0.90201 0.0
H986 H 0.29038 0.33602 0.99153 0.0
H987 H 0.28893 0.36666 0.93039 0.0
C988 C 0.31137 0.28703 1.06501 0.0
C989 C 0.33983 0.28782 1.05723 0.0
C990 C 0.29332 0.28758 1.03013 0.0
C991 C 0.30353 0.28897 0.98707 0.0
C992 C 0.33003 0.28597 0.97946 0.0
C993 C 0.34805 0.28545 1.01429 0.0
C994 C 0.28947 0.30801 0.87351 0.0
C995 C 0.29073 0.33656 0.88099 0.0
C996 C 0.2899 0.29015 0.90856 0.0
C997 C 0.29166 0.30065 0.9515 0.0
C998 C 0.28899 0.3272 0.95886 0.0
C999 C 0.28857 0.34503 0.92385 0.0
H1000 H 1.00314 0.28301 0.17585 0.0
H1001 H 0.92761 0.27498 0.25588 0.0
H1002 H 0.03057 0.28087 0.24095 0.0
H1003 H 0.95561 0.27464 0.32087 0.0
H1004 H 0.08616 0.35125 0.35401 0.0
H1005 H 0.05752 0.32303 0.28974 0.0
H1006 H 0.98118 0.25814 0.37114 0.0
H1007 H 0.00932 0.28764 0.43543 0.0
C1008 C 0.99191 0.2798 0.20722 0.0
C1009 C 0.96365 0.2801 0.21095 0.0
C1010 C 0.00778 0.27884 0.24458 0.0
C1011 C 0.9958 0.27853 0.28624 0.0
C1012 C 0.96571 0.27495 0.28947 0.0
C1013 C 0.94977 0.27562 0.25216 0.0
C1014 C 0.06355 0.33057 0.35823 0.0
C1015 C 0.04956 0.3223 0.39954 0.0
C1016 C 0.04721 0.31401 0.32136 0.0
C1017 C 0.01661 0.28869 0.32515 0.0
C1018 C 0.00439 0.278 0.36706 0.0
C1019 C 0.02065 0.29477 0.40397 0.0
H1020 H 0.63559 0.94826 0.78798 0.0
H1021 H 0.69246 0.02584 0.70329 0.0
H1022 H 0.63597 0.91252 0.73374 0.0
H1023 H 0.69227 0.99072 0.64906 0.0
H1024 H 0.68075 0.93587 0.54366 0.0
H1025 H 0.7009 0.95287 0.61699 0.0
H1026 H 0.60752 0.89669 0.66847 0.0
H1027 H 0.58808 0.87809 0.59586 0.0
C1028 C 0.64856 0.95765 0.75804 0.0
C1029 C 0.66342 0.9897 0.74933 0.0
C1030 C 0.64892 0.93725 0.72708 0.0
C1031 C 0.66369 0.94854 0.68659 0.0
C1032 C 0.68094 0.98093 0.67989 0.0
C1033 C 0.68083 0.00124 0.71093 0.0
C1034 C 0.66487 0.92581 0.57091 0.0
C1035 C 0.63257 0.90682 0.56401 0.0
C1036 C 0.67637 0.93584 0.61299 0.0
C1037 C 0.65557 0.92759 0.64833 0.0
C1038 C 0.62428 0.90416 0.64213 0.0
C1039 C 0.61295 0.89368 0.60025 0.0
H1040 H 0.6281 0.73706 1.01621 0.0
H1041 H 0.69097 0.70493 1.05806 0.0
H1042 H 0.64781 0.74291 0.94169 0.0
H1043 H 0.71032 0.71027 0.98394 0.0
H1044 H 0.73702 0.71075 0.85135 0.0
H1045 H 0.73425 0.73871 0.91497 0.0
H1046 H 0.63433 0.69641 0.89693 0.0
H1047 H 0.63687 0.66814 0.83465 0.0
C1048 C 0.64693 0.73236 1.00974 0.0
C1049 C 0.65758 0.71986 1.0424 0.0
C1050 C 0.65816 0.73565 0.96717 0.0
C1051 C 0.68024 0.72661 0.95687 0.0
C1052 C 0.69343 0.7176 0.99076 0.0
C1053 C 0.68209 0.71414 1.03315 0.0
C1054 C 0.71459 0.70806 0.86039 0.0
C1055 C 0.68703 0.68649 0.83875 0.0
C1056 C 0.71309 0.72425 0.89658 0.0
C1057 C 0.68404 0.71931 0.91135 0.0
C1058 C 0.65714 0.7009 0.88627 0.0
C1059 C 0.65859 0.68455 0.8504 0.0
H1060 H 0.06073 0.71825 0.23283 0.0
H1061 H 0.97774 0.69119 0.1554 0.0
H1062 H 0.03284 0.7174 0.29793 0.0
H1063 H 0.94968 0.69143 0.22069 0.0
H1064 H 0.90699 0.62751 0.34363 0.0
H1065 H 0.93027 0.65332 0.27552 0.0
H1066 H 0.00427 0.73003 0.34663 0.0
H1067 H 0.98192 0.70294 0.41494 0.0
C1068 C 0.03683 0.71344 0.22953 0.0
C1069 C 0.02114 0.70409 0.18938 0.0
C1070 C 0.02074 0.71311 0.26694 0.0
C1071 C 0.98868 0.70364 0.26485 0.0
C1072 C 0.97411 0.69798 0.22366 0.0
C1073 C 0.99013 0.6979 0.18628 0.0
C1074 C 0.92793 0.65016 0.34474 0.0
C1075 C 0.94325 0.66262 0.3845 0.0
C1076 C 0.94111 0.66531 0.30558 0.0
C1077 C 0.96974 0.69347 0.30543 0.0
C1078 C 0.9827 0.70794 0.34555 0.0
C1079 C 0.96969 0.69254 0.38479 0.0
H1080 H 0.5709 0.10564 0.49792 0.0
H1081 H 0.49385 0.11857 0.53211 0.0
H1082 H 0.58534 0.10824 0.57477 0.0
H1083 H 0.50865 0.12169 0.60994 0.0
H1084 H 0.55248 0.14439 0.75552 0.0
H1085 H 0.53645 0.14165 0.67859 0.0
H1086 H 0.5852 0.09267 0.64728 0.0
H1087 H 0.60074 0.09514 0.72401 0.0
C1088 C 0.55672 0.10929 0.52139 0.0
C1089 C 0.53082 0.11211 0.50552 0.0
C1090 C 0.56518 0.11062 0.56713 0.0
C1091 C 0.54891 0.11533 0.60215 0.0
C1092 C 0.52292 0.1183 0.58637 0.0
C1093 C 0.5141 0.11645 0.54033 0.0
C1094 C 0.56021 0.13308 0.73265 0.0
C1095 C 0.57892 0.12048 0.74894 0.0
C1096 C 0.55055 0.13126 0.68712 0.0
C1097 C 0.55898 0.117 0.65314 0.0
C1098 C 0.57772 0.10442 0.66968 0.0
C1099 C 0.58695 0.10584 0.71523 0.0
H1100 H 0.46346 0.57895 0.83511 0.0
H1101 H 0.38433 0.49461 0.88026 0.0
H1102 H 0.47892 0.59587 0.91043 0.0
H1103 H 0.3997 0.51154 0.95631 0.0
H1104 H 0.42528 0.55064 1.10149 0.0
H1105 H 0.40944 0.53362 1.02611 0.0
H1106 H 0.4988 0.60601 0.98121 0.0
H1107 H 0.51454 0.6229 1.05703 0.0
C1108 C 0.44875 0.56359 0.8607 0.0
C1109 C 0.42176 0.53484 0.84817 0.0
C1110 C 0.45807 0.57359 0.90564 0.0
C1111 C 0.44137 0.55602 0.94336 0.0
C1112 C 0.41423 0.52713 0.93084 0.0
C1113 C 0.405 0.51699 0.88565 0.0
C1114 C 0.44195 0.56352 1.07603 0.0
C1115 C 0.47175 0.58911 1.08871 0.0
C1116 C 0.43261 0.55325 1.03114 0.0
C1117 C 0.45197 0.56755 0.99368 0.0
C1118 C 0.48185 0.59333 1.00639 0.0
C1119 C 0.49129 0.60348 1.05147 0.0
H1120 H 0.89691 0.45751 0.16781 0.0
H1121 H 0.90778 0.38263 0.21868 0.0
H1122 H 0.8964 0.47528 0.24168 0.0
H1123 H 0.9075 0.40043 0.29328 0.0
H1124 H 0.89699 0.42983 0.43485 0.0
H1125 H 0.89761 0.41213 0.36097 0.0
H1126 H 0.90522 0.49657 0.30958 0.0
H1127 H 0.90435 0.51405 0.3842 0.0
C1128 C 0.8991 0.44435 0.19454 0.0
C1129 C 0.90203 0.41778 0.18457 0.0
C1130 C 0.89898 0.45499 0.23841 0.0
C1131 C 0.90179 0.44011 0.27692 0.0
C1132 C 0.90487 0.41346 0.26685 0.0
C1133 C 0.90507 0.40284 0.22272 0.0
C1134 C 0.89864 0.44496 0.40816 0.0
C1135 C 0.90023 0.47384 0.4182 0.0
C1136 C 0.89919 0.43455 0.36428 0.0
C1137 C 0.90141 0.45201 0.32583 0.0
C1138 C 0.90315 0.48113 0.33597 0.0
C1139 C 0.90266 0.4916 0.3801 0.0
H1140 H 0.51433 0.88564 0.5351 0.0
H1141 H 0.42777 0.87976 0.49636 0.0
H1142 H 0.49939 0.88291 0.6124 0.0
H1143 H 0.41304 0.87759 0.57307 0.0
H1144 H 0.39674 0.89384 0.72132 0.0
H1145 H 0.41171 0.89563 0.64449 0.0
H1146 H 0.47331 0.86131 0.68115 0.0
H1147 H 0.45781 0.85905 0.75786 0.0
C1148 C 0.49187 0.88352 0.54226 0.0
C1149 C 0.47261 0.88252 0.50639 0.0
C1150 C 0.48298 0.88194 0.588 0.0
C1151 C 0.4543 0.87992 0.60241 0.0
C1152 C 0.43534 0.87925 0.56635 0.0
C1153 C 0.44395 0.88027 0.52081 0.0
C1154 C 0.41328 0.88623 0.71367 0.0
C1155 C 0.42508 0.87576 0.74874 0.0
C1156 C 0.42219 0.88727 0.66815 0.0
C1157 C 0.44433 0.87859 0.65315 0.0
C1158 C 0.45644 0.86854 0.68847 0.0
C1159 C 0.44711 0.86698 0.73388 0.0
H1160 H 0.55387 0.42245 0.836 0.0
H1161 H 0.62643 0.51079 0.88193 0.0
H1162 H 0.5374 0.40555 0.91127 0.0
H1163 H 0.6101 0.49399 0.95763 0.0
H1164 H 0.58493 0.45616 1.10272 0.0
H1165 H 0.60128 0.47262 1.02748 0.0
H1166 H 0.51531 0.39544 0.98123 0.0
H1167 H 0.49895 0.37907 1.05719 0.0
C1168 C 0.56691 0.43869 0.86177 0.0
C1169 C 0.59239 0.46858 0.84962 0.0
C1170 C 0.55698 0.42873 0.90656 0.0
C1171 C 0.57159 0.44751 0.94432 0.0
C1172 C 0.59725 0.47747 0.93211 0.0
C1173 C 0.60704 0.48754 0.88715 0.0
C1174 C 0.5691 0.4421 1.07704 0.0
C1175 C 0.54009 0.41537 1.08936 0.0
C1176 C 0.57874 0.45204 1.03221 0.0
C1177 C 0.5605 0.43622 0.99448 0.0
C1178 C 0.53137 0.40929 1.00678 0.0
C1179 C 0.52158 0.39946 1.05187 0.0
H1180 H 0.11062 0.56473 0.43467 0.0
H1181 H 0.10262 0.4803 0.38514 0.0
H1182 H 0.10997 0.58253 0.36056 0.0
H1183 H 0.10172 0.49791 0.31023 0.0
H1184 H 0.1118 0.53826 0.16831 0.0
H1185 H 0.11218 0.52023 0.24242 0.0
H1186 H 0.09848 0.59342 0.29277 0.0
H1187 H 0.09837 0.6115 0.21795 0.0
C1188 C 0.1088 0.54957 0.40818 0.0
C1189 C 0.10704 0.52059 0.41858 0.0
C1190 C 0.10822 0.56003 0.36419 0.0
C1191 C 0.10584 0.54255 0.326 0.0
C1192 C 0.10394 0.51335 0.33646 0.0
C1193 C 0.10443 0.5028 0.38074 0.0
C1194 C 0.10897 0.55097 0.19482 0.0
C1195 C 0.10538 0.57718 0.18448 0.0
C1196 C 0.10901 0.54018 0.2388 0.0
C1197 C 0.10547 0.55456 0.27699 0.0
C1198 C 0.10172 0.58083 0.26655 0.0
C1199 C 0.10159 0.59159 0.22232 0.0
loop_
_geom_bond_atom_site_label_1
_geom_bond_atom_site_label_2
_geom_bond_distance
_geom_bond_site_symmetry_2
_ccdc_geom_bond_type
La0 C2 2.928 . S
La0 O20 2.521 . S
La0 O21 2.628 . S
La0 O22 2.554 . S
La0 O23 2.757 . S
La0 O24 2.470 . S
La0 O29 2.482 . S
La0 O31 2.503 . S
La1 C11 2.928 . S
La1 O23 2.482 . S
La1 O25 2.503 . S
La1 O26 2.521 . S
La1 O27 2.628 . S
La1 O28 2.554 . S
La1 O29 2.757 . S
La1 O30 2.470 . S
C2 La0 2.928 . S
C2 C3 1.503 . S
C2 O20 1.261 . S
C2 O21 1.243 . S
C3 C2 1.503 . S
C3 C4 1.394 . S
C3 C8 1.373 . S
C4 C3 1.394 . S
C4 C5 1.380 . S
C4 H32 0.930 . S
C5 C4 1.380 . S
C5 C6 1.376 . S
C5 H33 0.930 . S
C6 C5 1.376 . S
C6 C7 1.370 . S
C7 C6 1.370 . S
C7 C8 1.396 . S
C7 H34 0.929 . S
C8 C3 1.373 . S
C8 C7 1.396 . S
C8 H35 0.929 . S
C9 O22 1.240 . S
C9 O23 1.289 . S
C10 O24 1.258 . S
C10 O25 1.256 . S
C11 La1 2.928 . S
C11 C12 1.503 . S
C11 O26 1.261 . S
C11 O27 1.243 . S
C12 C11 1.503 . S
C12 C13 1.394 . S
C12 C17 1.373 . S
C13 C12 1.394 . S
C13 C14 1.380 . S
C13 H36 0.930 . S
C14 C13 1.380 . S
C14 C15 1.376 . S
C14 H37 0.930 . S
C15 C14 1.376 . S
C15 C16 1.370 . S
C16 C15 1.370 . S
C16 C17 1.396 . S
C16 H38 0.929 . S
C17 C12 1.373 . S
C17 C16 1.396 . S
C17 H39 0.929 . S
C18 O28 1.240 . S
C18 O29 1.289 . S
C19 O30 1.258 . S
C19 O31 1.256 . S
O20 La0 2.521 . S
O20 C2 1.261 . S
O21 La0 2.628 . S
O21 C2 1.243 . S
O22 La0 2.554 . S
O22 C9 1.240 . S
O23 La0 2.757 . S
O23 La1 2.482 . S
O23 C9 1.289 . S
O24 La0 2.470 . S
O24 C10 1.258 . S
O25 La1 2.503 . S
O25 C10 1.256 . S
O26 La1 2.521 . S
O26 C11 1.261 . S
O27 La1 2.628 . S
O27 C11 1.243 . S
O28 La1 2.554 . S
O28 C18 1.240 . S
O29 La0 2.482 . S
O29 La1 2.757 . S
O29 C18 1.289 . S
O30 La1 2.470 . S
O30 C19 1.258 . S
O31 La0 2.503 . S
O31 C19 1.256 . S
H32 C4 0.930 . S
H33 C5 0.930 . S
H34 C7 0.929 . S
H35 C8 0.929 . S
H36 C13 0.930 . S
H37 C14 0.930 . S
H38 C16 0.929 . S
H39 C17 0.929 . S
La40 C42 2.928 . S
La40 O60 2.521 . S
La40 O61 2.628 . S
La40 O62 2.554 . S
La40 O63 2.757 . S
La40 O64 2.470 . S
La40 O69 2.482 . S
La40 O71 2.503 . S
La41 C51 2.928 . S
La41 O63 2.482 . S
La41 O65 2.503 . S
La41 O66 2.521 . S
La41 O67 2.628 . S
La41 O68 2.554 . S
La41 O69 2.757 . S
La41 O70 2.470 . S
C42 La40 2.928 . S
C42 C43 1.503 . S
C42 O60 1.261 . S
C42 O61 1.243 . S
C43 C42 1.503 . S
C43 C44 1.394 . S
C43 C48 1.373 . S
C44 C43 1.394 . S
C44 C45 1.380 . S
C44 H72 0.930 . S
C45 C44 1.380 . S
C45 C46 1.376 . S
C45 H73 0.930 . S
C46 C45 1.376 . S
C46 C47 1.370 . S
C47 C46 1.370 . S
C47 C48 1.396 . S
C47 H74 0.929 . S
C48 C43 1.373 . S
C48 C47 1.396 . S
C48 H75 0.929 . S
C49 O62 1.240 . S
C49 O63 1.289 . S
C50 O64 1.258 . S
C50 O65 1.256 . S
C51 La41 2.928 . S
C51 C52 1.503 . S
C51 O66 1.261 . S
C51 O67 1.243 . S
C52 C51 1.503 . S
C52 C53 1.394 . S
C52 C57 1.373 . S
C53 C52 1.394 . S
C53 C54 1.380 . S
C53 H76 0.930 . S
C54 C53 1.380 . S
C54 C55 1.376 . S
C54 H77 0.930 . S
C55 C54 1.376 . S
C55 C56 1.370 . S
C56 C55 1.370 . S
C56 C57 1.396 . S
C56 H78 0.929 . S
C57 C52 1.373 . S
C57 C56 1.396 . S
C57 H79 0.929 . S
C58 O68 1.240 . S
C58 O69 1.289 . S
C59 O70 1.258 . S
C59 O71 1.256 . S
O60 La40 2.521 . S
O60 C42 1.261 . S
O61 La40 2.628 . S
O61 C42 1.243 . S
O62 La40 2.554 . S
O62 C49 1.240 . S
O63 La40 2.757 . S
O63 La41 2.482 . S
O63 C49 1.289 . S
O64 La40 2.470 . S
O64 C50 1.258 . S
O65 La41 2.503 . S
O65 C50 1.256 . S
O66 La41 2.521 . S
O66 C51 1.261 . S
O67 La41 2.628 . S
O67 C51 1.243 . S
O68 La41 2.554 . S
O68 C58 1.240 . S
O69 La40 2.482 . S
O69 La41 2.757 . S
O69 C58 1.289 . S
O70 La41 2.470 . S
O70 C59 1.258 . S
O71 La40 2.503 . S
O71 C59 1.256 . S
H72 C44 0.930 . S
H73 C45 0.930 . S
H74 C47 0.929 . S
H75 C48 0.929 . S
H76 C53 0.930 . S
H77 C54 0.930 . S
H78 C56 0.929 . S
H79 C57 0.929 . S
La80 C82 2.928 1_556 S
La80 O100 2.521 . S
La80 O101 2.628 . S
La80 O102 2.554 . S
La80 O103 2.757 . S
La80 O104 2.470 . S
La80 O109 2.482 . S
La80 O111 2.503 . S
La81 C91 2.928 . S
La81 O103 2.482 . S
La81 O105 2.503 . S
La81 O106 2.521 . S
La81 O107 2.628 . S
La81 O108 2.554 . S
La81 O109 2.757 . S
La81 O110 2.470 . S
C82 La80 2.928 1_554 S
C82 C83 1.503 . S
C82 O100 1.261 1_554 S
C82 O101 1.243 1_554 S
C83 C82 1.503 . S
C83 C84 1.394 . S
C83 C88 1.373 . S
C84 C83 1.394 . S
C84 C85 1.380 . S
C84 H112 0.930 . S
C85 C84 1.380 . S
C85 C86 1.376 . S
C85 H113 0.930 . S
C86 C85 1.376 . S
C86 C87 1.370 . S
C87 C86 1.370 . S
C87 C88 1.396 . S
C87 H114 0.929 . S
C88 C83 1.373 . S
C88 C87 1.396 . S
C88 H115 0.929 . S
C89 O102 1.240 . S
C89 O103 1.289 . S
C90 O104 1.258 . S
C90 O105 1.256 . S
C91 La81 2.928 . S
C91 C92 1.503 . S
C91 O106 1.261 . S
C91 O107 1.243 . S
C92 C91 1.503 . S
C92 C93 1.394 . S
C92 C97 1.373 . S
C93 C92 1.394 . S
C93 C94 1.380 . S
C93 H116 0.930 . S
C94 C93 1.380 . S
C94 C95 1.376 . S
C94 H117 0.930 . S
C95 C94 1.376 . S
C95 C96 1.370 . S
C96 C95 1.370 . S
C96 C97 1.396 . S
C96 H118 0.929 . S
C97 C92 1.373 . S
C97 C96 1.396 . S
C97 H119 0.929 . S
C98 O108 1.240 . S
C98 O109 1.289 . S
C99 O110 1.258 . S
C99 O111 1.256 . S
O100 La80 2.521 . S
O100 C82 1.261 1_556 S
O101 La80 2.628 . S
O101 C82 1.243 1_556 S
O102 La80 2.554 . S
O102 C89 1.240 . S
O103 La80 2.757 . S
O103 La81 2.482 . S
O103 C89 1.289 . S
O104 La80 2.470 . S
O104 C90 1.258 . S
O105 La81 2.503 . S
O105 C90 1.256 . S
O106 La81 2.521 . S
O106 C91 1.261 . S
O107 La81 2.628 . S
O107 C91 1.243 . S
O108 La81 2.554 . S
O108 C98 1.240 . S
O109 La80 2.482 . S
O109 La81 2.757 . S
O109 C98 1.289 . S
O110 La81 2.470 . S
O110 C99 1.258 . S
O111 La80 2.503 . S
O111 C99 1.256 . S
H112 C84 0.930 . S
H113 C85 0.930 . S
H114 C87 0.929 . S
H115 C88 0.929 . S
H116 C93 0.930 . S
H117 C94 0.930 . S
H118 C96 0.929 . S
H119 C97 0.929 . S
La120 C122 2.928 . S
La120 O140 2.521 . S
La120 O141 2.628 . S
La120 O142 2.554 . S
La120 O143 2.757 . S
La120 O144 2.470 . S
La120 O149 2.482 . S
La120 O151 2.503 . S
La121 C131 2.928 . S
La121 O143 2.482 . S
La121 O145 2.503 . S
La121 O146 2.521 . S
La121 O147 2.628 . S
La121 O148 2.554 . S
La121 O149 2.757 . S
La121 O150 2.470 . S
C122 La120 2.928 . S
C122 C123 1.503 . S
C122 O140 1.261 . S
C122 O141 1.243 . S
C123 C122 1.503 . S
C123 C124 1.394 . S
C123 C128 1.373 . S
C124 C123 1.394 . S
C124 C125 1.380 . S
C124 H152 0.930 . S
C125 C124 1.380 . S
C125 C126 1.376 . S
C125 H153 0.930 . S
C126 C125 1.376 . S
C126 C127 1.370 . S
C127 C126 1.370 . S
C127 C128 1.396 . S
C127 H154 0.929 . S
C128 C123 1.373 . S
C128 C127 1.396 . S
C128 H155 0.929 . S
C129 O142 1.240 . S
C129 O143 1.289 . S
C130 O144 1.258 . S
C130 O145 1.256 . S
C131 La121 2.928 . S
C131 C132 1.503 . S
C131 O146 1.261 . S
C131 O147 1.243 . S
C132 C131 1.503 . S
C132 C133 1.394 . S
C132 C137 1.373 . S
C133 C132 1.394 . S
C133 C134 1.380 . S
C133 H156 0.930 . S
C134 C133 1.380 . S
C134 C135 1.376 . S
C134 H157 0.930 . S
C135 C134 1.376 . S
C135 C136 1.370 . S
C136 C135 1.370 . S
C136 C137 1.396 . S
C136 H158 0.929 . S
C137 C132 1.373 . S
C137 C136 1.396 . S
C137 H159 0.929 . S
C138 O148 1.240 . S
C138 O149 1.289 . S
C139 O150 1.258 . S
C139 O151 1.256 . S
O140 La120 2.521 . S
O140 C122 1.261 . S
O141 La120 2.628 . S
O141 C122 1.243 . S
O142 La120 2.554 . S
O142 C129 1.240 . S
O143 La120 2.757 . S
O143 La121 2.482 . S
O143 C129 1.289 . S
O144 La120 2.470 . S
O144 C130 1.258 . S
O145 La121 2.503 . S
O145 C130 1.256 . S
O146 La121 2.521 . S
O146 C131 1.261 . S
O147 La121 2.628 . S
O147 C131 1.243 . S
O148 La121 2.554 . S
O148 C138 1.240 . S
O149 La120 2.482 . S
O149 La121 2.757 . S
O149 C138 1.289 . S
O150 La121 2.470 . S
O150 C139 1.258 . S
O151 La120 2.503 . S
O151 C139 1.256 . S
H152 C124 0.930 . S
H153 C125 0.930 . S
H154 C127 0.929 . S
H155 C128 0.929 . S
H156 C133 0.930 . S
H157 C134 0.930 . S
H158 C136 0.929 . S
H159 C137 0.929 . S
La160 C162 2.928 . S
La160 O180 2.521 . S
La160 O181 2.628 . S
La160 O182 2.554 . S
La160 O183 2.757 . S
La160 O184 2.470 . S
La160 O189 2.482 . S
La160 O191 2.503 . S
La161 C171 2.928 . S
La161 O183 2.482 . S
La161 O185 2.503 . S
La161 O186 2.521 . S
La161 O187 2.628 . S
La161 O188 2.554 . S
La161 O189 2.757 . S
La161 O190 2.470 . S
C162 La160 2.928 . S
C162 C163 1.503 . S
C162 O180 1.261 . S
C162 O181 1.243 . S
C163 C162 1.503 . S
C163 C164 1.394 . S
C163 C168 1.373 . S
C164 C163 1.394 . S
C164 C165 1.380 . S
C164 H192 0.930 . S
C165 C164 1.380 . S
C165 C166 1.376 . S
C165 H193 0.930 . S
C166 C165 1.376 . S
C166 C167 1.370 . S
C167 C166 1.370 . S
C167 C168 1.396 . S
C167 H194 0.929 . S
C168 C163 1.373 . S
C168 C167 1.396 . S
C168 H195 0.929 . S
C169 O182 1.240 . S
C169 O183 1.289 . S
C170 O184 1.258 . S
C170 O185 1.256 . S
C171 La161 2.928 . S
C171 C172 1.503 . S
C171 O186 1.261 . S
C171 O187 1.243 . S
C172 C171 1.503 . S
C172 C173 1.394 . S
C172 C177 1.373 . S
C173 C172 1.394 . S
C173 C174 1.380 . S
C173 H196 0.930 . S
C174 C173 1.380 . S
C174 C175 1.376 . S
C174 H197 0.930 . S
C175 C174 1.376 . S
C175 C176 1.370 . S
C176 C175 1.370 . S
C176 C177 1.396 . S
C176 H198 0.929 . S
C177 C172 1.373 . S
C177 C176 1.396 . S
C177 H199 0.929 . S
C178 O188 1.240 . S
C178 O189 1.289 . S
C179 O190 1.258 . S
C179 O191 1.256 . S
O180 La160 2.521 . S
O180 C162 1.261 . S
O181 La160 2.628 . S
O181 C162 1.243 . S
O182 La160 2.554 . S
O182 C169 1.240 . S
O183 La160 2.757 . S
O183 La161 2.482 . S
O183 C169 1.289 . S
O184 La160 2.470 . S
O184 C170 1.258 . S
O185 La161 2.503 . S
O185 C170 1.256 . S
O186 La161 2.521 . S
O186 C171 1.261 . S
O187 La161 2.628 . S
O187 C171 1.243 . S
O188 La161 2.554 . S
O188 C178 1.240 . S
O189 La160 2.482 . S
O189 La161 2.757 . S
O189 C178 1.289 . S
O190 La161 2.470 . S
O190 C179 1.258 . S
O191 La160 2.503 . S
O191 C179 1.256 . S
H192 C164 0.930 . S
H193 C165 0.930 . S
H194 C167 0.929 . S
H195 C168 0.929 . S
H196 C173 0.930 . S
H197 C174 0.930 . S
H198 C176 0.929 . S
H199 C177 0.929 . S
La200 C202 2.928 1_556 S
La200 O220 2.521 . S
La200 O221 2.628 . S
La200 O222 2.554 . S
La200 O223 2.757 . S
La200 O224 2.470 . S
La200 O229 2.482 . S
La200 O231 2.503 . S
La201 C211 2.928 . S
La201 O223 2.482 . S
La201 O225 2.503 . S
La201 O226 2.521 . S
La201 O227 2.628 . S
La201 O228 2.554 . S
La201 O229 2.757 . S
La201 O230 2.470 . S
C202 La200 2.928 1_554 S
C202 C203 1.503 . S
C202 O220 1.261 1_554 S
C202 O221 1.243 1_554 S
C203 C202 1.503 . S
C203 C204 1.394 . S
C203 C208 1.373 . S
C204 C203 1.394 . S
C204 C205 1.380 . S
C204 H232 0.930 . S
C205 C204 1.380 . S
C205 C206 1.376 . S
C205 H233 0.930 . S
C206 C205 1.376 . S
C206 C207 1.370 . S
C207 C206 1.370 . S
C207 C208 1.396 . S
C207 H234 0.929 . S
C208 C203 1.373 . S
C208 C207 1.396 . S
C208 H235 0.929 . S
C209 O222 1.240 . S
C209 O223 1.289 . S
C210 O224 1.258 . S
C210 O225 1.256 . S
C211 La201 2.928 . S
C211 C212 1.503 . S
C211 O226 1.261 . S
C211 O227 1.243 . S
C212 C211 1.503 . S
C212 C213 1.394 . S
C212 C217 1.373 . S
C213 C212 1.394 . S
C213 C214 1.380 . S
C213 H236 0.930 . S
C214 C213 1.380 . S
C214 C215 1.376 . S
C214 H237 0.930 . S
C215 C214 1.376 . S
C215 C216 1.370 . S
C216 C215 1.370 . S
C216 C217 1.396 . S
C216 H238 0.929 . S
C217 C212 1.373 . S
C217 C216 1.396 . S
C217 H239 0.929 . S
C218 O228 1.240 . S
C218 O229 1.289 . S
C219 O230 1.258 . S
C219 O231 1.256 . S
O220 La200 2.521 . S
O220 C202 1.261 1_556 S
O221 La200 2.628 . S
O221 C202 1.243 1_556 S
O222 La200 2.554 . S
O222 C209 1.240 . S
O223 La200 2.757 . S
O223 La201 2.482 . S
O223 C209 1.289 . S
O224 La200 2.470 . S
O224 C210 1.258 . S
O225 La201 2.503 . S
O225 C210 1.256 . S
O226 La201 2.521 . S
O226 C211 1.261 . S
O227 La201 2.628 . S
O227 C211 1.243 . S
O228 La201 2.554 . S
O228 C218 1.240 . S
O229 La200 2.482 . S
O229 La201 2.757 . S
O229 C218 1.289 . S
O230 La201 2.470 . S
O230 C219 1.258 . S
O231 La200 2.503 . S
O231 C219 1.256 . S
H232 C204 0.930 . S
H233 C205 0.930 . S
H234 C207 0.929 . S
H235 C208 0.929 . S
H236 C213 0.930 . S
H237 C214 0.930 . S
H238 C216 0.929 . S
H239 C217 0.929 . S
La240 C242 2.928 . S
La240 O260 2.521 . S
La240 O261 2.628 . S
La240 O262 2.554 . S
La240 O263 2.757 . S
La240 O264 2.470 . S
La240 O269 2.482 . S
La240 O271 2.503 . S
La241 C251 2.928 . S
La241 O263 2.482 . S
La241 O265 2.503 . S
La241 O266 2.521 . S
La241 O267 2.628 . S
La241 O268 2.554 . S
La241 O269 2.757 . S
La241 O270 2.470 . S
C242 La240 2.928 . S
C242 C243 1.503 . S
C242 O260 1.261 . S
C242 O261 1.243 . S
C243 C242 1.503 . S
C243 C244 1.394 . S
C243 C248 1.373 . S
C244 C243 1.394 . S
C244 C245 1.380 . S
C244 H272 0.930 . S
C245 C244 1.380 . S
C245 C246 1.376 . S
C245 H273 0.930 . S
C246 C245 1.376 . S
C246 C247 1.370 . S
C247 C246 1.370 . S
C247 C248 1.396 . S
C247 H274 0.929 . S
C248 C243 1.373 . S
C248 C247 1.396 . S
C248 H275 0.929 . S
C249 O262 1.240 . S
C249 O263 1.289 . S
C250 O264 1.258 . S
C250 O265 1.256 . S
C251 La241 2.928 . S
C251 C252 1.503 . S
C251 O266 1.261 . S
C251 O267 1.243 . S
C252 C251 1.503 . S
C252 C253 1.394 . S
C252 C257 1.373 . S
C253 C252 1.394 . S
C253 C254 1.380 . S
C253 H276 0.930 . S
C254 C253 1.380 . S
C254 C255 1.376 . S
C254 H277 0.930 . S
C255 C254 1.376 . S
C255 C256 1.370 . S
C256 C255 1.370 . S
C256 C257 1.396 . S
C256 H278 0.929 . S
C257 C252 1.373 . S
C257 C256 1.396 . S
C257 H279 0.929 . S
C258 O268 1.240 . S
C258 O269 1.289 . S
C259 O270 1.258 . S
C259 O271 1.256 . S
O260 La240 2.521 . S
O260 C242 1.261 . S
O261 La240 2.628 . S
O261 C242 1.243 . S
O262 La240 2.554 . S
O262 C249 1.240 . S
O263 La240 2.757 . S
O263 La241 2.482 . S
O263 C249 1.289 . S
O264 La240 2.470 . S
O264 C250 1.258 . S
O265 La241 2.503 . S
O265 C250 1.256 . S
O266 La241 2.521 . S
O266 C251 1.261 . S
O267 La241 2.628 . S
O267 C251 1.243 . S
O268 La241 2.554 . S
O268 C258 1.240 . S
O269 La240 2.482 . S
O269 La241 2.757 . S
O269 C258 1.289 . S
O270 La241 2.470 . S
O270 C259 1.258 . S
O271 La240 2.503 . S
O271 C259 1.256 . S
H272 C244 0.930 . S
H273 C245 0.930 . S
H274 C247 0.929 . S
H275 C248 0.929 . S
H276 C253 0.930 . S
H277 C254 0.930 . S
H278 C256 0.929 . S
H279 C257 0.929 . S
La280 C282 2.928 . S
La280 O300 2.521 . S
La280 O301 2.628 . S
La280 O302 2.554 . S
La280 O303 2.757 . S
La280 O304 2.470 . S
La280 O309 2.482 . S
La280 O311 2.503 . S
La281 C291 2.928 . S
La281 O303 2.482 . S
La281 O305 2.503 . S
La281 O306 2.521 . S
La281 O307 2.628 . S
La281 O308 2.554 . S
La281 O309 2.757 . S
La281 O310 2.470 . S
C282 La280 2.928 . S
C282 C283 1.503 . S
C282 O300 1.261 . S
C282 O301 1.243 . S
C283 C282 1.503 . S
C283 C284 1.394 . S
C283 C288 1.373 . S
C284 C283 1.394 . S
C284 C285 1.380 . S
C284 H312 0.930 . S
C285 C284 1.380 . S
C285 C286 1.376 . S
C285 H313 0.930 . S
C286 C285 1.376 . S
C286 C287 1.370 . S
C287 C286 1.370 . S
C287 C288 1.396 . S
C287 H314 0.929 . S
C288 C283 1.373 . S
C288 C287 1.396 . S
C288 H315 0.929 . S
C289 O302 1.240 . S
C289 O303 1.289 . S
C290 O304 1.258 . S
C290 O305 1.256 . S
C291 La281 2.928 . S
C291 C292 1.503 . S
C291 O306 1.261 . S
C291 O307 1.243 . S
C292 C291 1.503 . S
C292 C293 1.394 . S
C292 C297 1.373 . S
C293 C292 1.394 . S
C293 C294 1.380 . S
C293 H316 0.930 . S
C294 C293 1.380 . S
C294 C295 1.376 . S
C294 H317 0.930 . S
C295 C294 1.376 . S
C295 C296 1.370 . S
C296 C295 1.370 . S
C296 C297 1.396 . S
C296 H318 0.929 . S
C297 C292 1.373 . S
C297 C296 1.396 . S
C297 H319 0.929 . S
C298 O308 1.240 . S
C298 O309 1.289 . S
C299 O310 1.258 . S
C299 O311 1.256 . S
O300 La280 2.521 . S
O300 C282 1.261 . S
O301 La280 2.628 . S
O301 C282 1.243 . S
O302 La280 2.554 . S
O302 C289 1.240 . S
O303 La280 2.757 . S
O303 La281 2.482 . S
O303 C289 1.289 . S
O304 La280 2.470 . S
O304 C290 1.258 . S
O305 La281 2.503 . S
O305 C290 1.256 . S
O306 La281 2.521 . S
O306 C291 1.261 . S
O307 La281 2.628 . S
O307 C291 1.243 . S
O308 La281 2.554 . S
O308 C298 1.240 . S
O309 La280 2.482 . S
O309 La281 2.757 . S
O309 C298 1.289 . S
O310 La281 2.470 . S
O310 C299 1.258 . S
O311 La280 2.503 . S
O311 C299 1.256 . S
H312 C284 0.930 . S
H313 C285 0.930 . S
H314 C287 0.929 . S
H315 C288 0.929 . S
H316 C293 0.930 . S
H317 C294 0.930 . S
H318 C296 0.929 . S
H319 C297 0.929 . S
La320 C322 2.928 1_554 S
La320 O340 2.521 . S
La320 O341 2.628 . S
La320 O342 2.554 . S
La320 O343 2.757 . S
La320 O344 2.470 . S
La320 O349 2.482 . S
La320 O351 2.503 . S
La321 C331 2.928 . S
La321 O343 2.482 . S
La321 O345 2.503 . S
La321 O346 2.521 . S
La321 O347 2.628 . S
La321 O348 2.554 . S
La321 O349 2.757 . S
La321 O350 2.470 . S
C322 La320 2.928 1_556 S
C322 C323 1.503 . S
C322 O340 1.261 1_556 S
C322 O341 1.243 1_556 S
C323 C322 1.503 . S
C323 C324 1.394 . S
C323 C328 1.373 . S
C324 C323 1.394 . S
C324 C325 1.380 . S
C324 H352 0.930 . S
C325 C324 1.380 . S
C325 C326 1.376 . S
C325 H353 0.930 . S
C326 C325 1.376 . S
C326 C327 1.370 . S
C327 C326 1.370 . S
C327 C328 1.396 . S
C327 H354 0.929 . S
C328 C323 1.373 . S
C328 C327 1.396 . S
C328 H355 0.929 . S
C329 O342 1.240 . S
C329 O343 1.289 . S
C330 O344 1.258 . S
C330 O345 1.256 . S
C331 La321 2.928 . S
C331 C332 1.503 . S
C331 O346 1.261 . S
C331 O347 1.243 . S
C332 C331 1.503 . S
C332 C333 1.394 . S
C332 C337 1.373 . S
C333 C332 1.394 . S
C333 C334 1.380 . S
C333 H356 0.930 . S
C334 C333 1.380 . S
C334 C335 1.376 . S
C334 H357 0.930 . S
C335 C334 1.376 . S
C335 C336 1.370 . S
C336 C335 1.370 . S
C336 C337 1.396 . S
C336 H358 0.929 . S
C337 C332 1.373 . S
C337 C336 1.396 . S
C337 H359 0.929 . S
C338 O348 1.240 . S
C338 O349 1.289 . S
C339 O350 1.258 . S
C339 O351 1.256 . S
O340 La320 2.521 . S
O340 C322 1.261 1_554 S
O341 La320 2.628 . S
O341 C322 1.243 1_554 S
O342 La320 2.554 . S
O342 C329 1.240 . S
O343 La320 2.757 . S
O343 La321 2.482 . S
O343 C329 1.289 . S
O344 La320 2.470 . S
O344 C330 1.258 . S
O345 La321 2.503 . S
O345 C330 1.256 . S
O346 La321 2.521 . S
O346 C331 1.261 . S
O347 La321 2.628 . S
O347 C331 1.243 . S
O348 La321 2.554 . S
O348 C338 1.240 . S
O349 La320 2.482 . S
O349 La321 2.757 . S
O349 C338 1.289 . S
O350 La321 2.470 . S
O350 C339 1.258 . S
O351 La320 2.503 . S
O351 C339 1.256 . S
H352 C324 0.930 . S
H353 C325 0.930 . S
H354 C327 0.929 . S
H355 C328 0.929 . S
H356 C333 0.930 . S
H357 C334 0.930 . S
H358 C336 0.929 . S
H359 C337 0.929 . S
La360 C362 2.928 . S
La360 O380 2.521 . S
La360 O381 2.628 . S
La360 O382 2.554 . S
La360 O383 2.757 . S
La360 O384 2.470 . S
La360 O389 2.482 . S
La360 O391 2.503 . S
La361 C371 2.928 . S
La361 O383 2.482 . S
La361 O385 2.503 . S
La361 O386 2.521 . S
La361 O387 2.628 . S
La361 O388 2.554 . S
La361 O389 2.757 . S
La361 O390 2.470 . S
C362 La360 2.928 . S
C362 C363 1.503 . S
C362 O380 1.261 . S
C362 O381 1.243 . S
C363 C362 1.503 . S
C363 C364 1.394 . S
C363 C368 1.373 . S
C364 C363 1.394 . S
C364 C365 1.380 . S
C364 H392 0.930 . S
C365 C364 1.380 . S
C365 C366 1.376 . S
C365 H393 0.930 . S
C366 C365 1.376 . S
C366 C367 1.370 . S
C367 C366 1.370 . S
C367 C368 1.396 . S
C367 H394 0.929 . S
C368 C363 1.373 . S
C368 C367 1.396 . S
C368 H395 0.929 . S
C369 O382 1.240 . S
C369 O383 1.289 . S
C370 O384 1.258 . S
C370 O385 1.256 . S
C371 La361 2.928 . S
C371 C372 1.503 . S
C371 O386 1.261 . S
C371 O387 1.243 . S
C372 C371 1.503 . S
C372 C373 1.394 . S
C372 C377 1.373 . S
C373 C372 1.394 . S
C373 C374 1.380 . S
C373 H396 0.930 . S
C374 C373 1.380 . S
C374 C375 1.376 . S
C374 H397 0.930 . S
C375 C374 1.376 . S
C375 C376 1.370 . S
C376 C375 1.370 . S
C376 C377 1.396 . S
C376 H398 0.929 . S
C377 C372 1.373 . S
C377 C376 1.396 . S
C377 H399 0.929 . S
C378 O388 1.240 . S
C378 O389 1.289 . S
C379 O390 1.258 . S
C379 O391 1.256 . S
O380 La360 2.521 . S
O380 C362 1.261 . S
O381 La360 2.628 . S
O381 C362 1.243 . S
O382 La360 2.554 . S
O382 C369 1.240 . S
O383 La360 2.757 . S
O383 La361 2.482 . S
O383 C369 1.289 . S
O384 La360 2.470 . S
O384 C370 1.258 . S
O385 La361 2.503 . S
O385 C370 1.256 . S
O386 La361 2.521 . S
O386 C371 1.261 . S
O387 La361 2.628 . S
O387 C371 1.243 . S
O388 La361 2.554 . S
O388 C378 1.240 . S
O389 La360 2.482 . S
O389 La361 2.757 . S
O389 C378 1.289 . S
O390 La361 2.470 . S
O390 C379 1.258 . S
O391 La360 2.503 . S
O391 C379 1.256 . S
H392 C364 0.930 . S
H393 C365 0.930 . S
H394 C367 0.929 . S
H395 C368 0.929 . S
H396 C373 0.930 . S
H397 C374 0.930 . S
H398 C376 0.929 . S
H399 C377 0.929 . S
La400 C402 2.928 . S
La400 O420 2.521 . S
La400 O421 2.628 . S
La400 O422 2.554 . S
La400 O423 2.757 . S
La400 O424 2.470 . S
La400 O429 2.482 . S
La400 O431 2.503 . S
La401 C411 2.928 . S
La401 O423 2.482 . S
La401 O425 2.503 . S
La401 O426 2.521 . S
La401 O427 2.628 . S
La401 O428 2.554 . S
La401 O429 2.757 . S
La401 O430 2.470 . S
C402 La400 2.928 . S
C402 C403 1.503 . S
C402 O420 1.261 . S
C402 O421 1.243 . S
C403 C402 1.503 . S
C403 C404 1.394 . S
C403 C408 1.373 . S
C404 C403 1.394 . S
C404 C405 1.380 . S
C404 H432 0.930 . S
C405 C404 1.380 . S
C405 C406 1.376 . S
C405 H433 0.930 . S
C406 C405 1.376 . S
C406 C407 1.370 . S
C407 C406 1.370 . S
C407 C408 1.396 . S
C407 H434 0.929 . S
C408 C403 1.373 . S
C408 C407 1.396 . S
C408 H435 0.929 . S
C409 O422 1.240 . S
C409 O423 1.289 . S
C410 O424 1.258 . S
C410 O425 1.256 . S
C411 La401 2.928 . S
C411 C412 1.503 . S
C411 O426 1.261 . S
C411 O427 1.243 . S
C412 C411 1.503 . S
C412 C413 1.394 . S
C412 C417 1.373 . S
C413 C412 1.394 . S
C413 C414 1.380 . S
C413 H436 0.930 . S
C414 C413 1.380 . S
C414 C415 1.376 . S
C414 H437 0.930 . S
C415 C414 1.376 . S
C415 C416 1.370 . S
C416 C415 1.370 . S
C416 C417 1.396 . S
C416 H438 0.929 . S
C417 C412 1.373 . S
C417 C416 1.396 . S
C417 H439 0.929 . S
C418 O428 1.240 . S
C418 O429 1.289 . S
C419 O430 1.258 . S
C419 O431 1.256 . S
O420 La400 2.521 . S
O420 C402 1.261 . S
O421 La400 2.628 . S
O421 C402 1.243 . S
O422 La400 2.554 . S
O422 C409 1.240 . S
O423 La400 2.757 . S
O423 La401 2.482 . S
O423 C409 1.289 . S
O424 La400 2.470 . S
O424 C410 1.258 . S
O425 La401 2.503 . S
O425 C410 1.256 . S
O426 La401 2.521 . S
O426 C411 1.261 . S
O427 La401 2.628 . S
O427 C411 1.243 . S
O428 La401 2.554 . S
O428 C418 1.240 . S
O429 La400 2.482 . S
O429 La401 2.757 . S
O429 C418 1.289 . S
O430 La401 2.470 . S
O430 C419 1.258 . S
O431 La400 2.503 . S
O431 C419 1.256 . S
H432 C404 0.930 . S
H433 C405 0.930 . S
H434 C407 0.929 . S
H435 C408 0.929 . S
H436 C413 0.930 . S
H437 C414 0.930 . S
H438 C416 0.929 . S
H439 C417 0.929 . S
La440 C442 2.928 1_554 S
La440 O460 2.521 . S
La440 O461 2.628 . S
La440 O462 2.554 . S
La440 O463 2.757 . S
La440 O464 2.470 . S
La440 O469 2.482 . S
La440 O471 2.503 . S
La441 C451 2.928 . S
La441 O463 2.482 . S
La441 O465 2.503 . S
La441 O466 2.521 . S
La441 O467 2.628 . S
La441 O468 2.554 . S
La441 O469 2.757 . S
La441 O470 2.470 . S
C442 La440 2.928 1_556 S
C442 C443 1.503 . S
C442 O460 1.261 1_556 S
C442 O461 1.243 1_556 S
C443 C442 1.503 . S
C443 C444 1.394 . S
C443 C448 1.373 . S
C444 C443 1.394 . S
C444 C445 1.380 . S
C444 H472 0.930 . S
C445 C444 1.380 . S
C445 C446 1.376 . S
C445 H473 0.930 . S
C446 C445 1.376 . S
C446 C447 1.370 . S
C447 C446 1.370 . S
C447 C448 1.396 . S
C447 H474 0.929 . S
C448 C443 1.373 . S
C448 C447 1.396 . S
C448 H475 0.929 . S
C449 O462 1.240 . S
C449 O463 1.289 . S
C450 O464 1.258 . S
C450 O465 1.256 . S
C451 La441 2.928 . S
C451 C452 1.503 . S
C451 O466 1.261 . S
C451 O467 1.243 . S
C452 C451 1.503 . S
C452 C453 1.394 . S
C452 C457 1.373 . S
C453 C452 1.394 . S
C453 C454 1.380 . S
C453 H476 0.930 . S
C454 C453 1.380 . S
C454 C455 1.376 . S
C454 H477 0.930 . S
C455 C454 1.376 . S
C455 C456 1.370 . S
C456 C455 1.370 . S
C456 C457 1.396 . S
C456 H478 0.929 . S
C457 C452 1.373 . S
C457 C456 1.396 . S
C457 H479 0.929 . S
C458 O468 1.240 . S
C458 O469 1.289 . S
C459 O470 1.258 . S
C459 O471 1.256 . S
O460 La440 2.521 . S
O460 C442 1.261 1_554 S
O461 La440 2.628 . S
O461 C442 1.243 1_554 S
O462 La440 2.554 . S
O462 C449 1.240 . S
O463 La440 2.757 . S
O463 La441 2.482 . S
O463 C449 1.289 . S
O464 La440 2.470 . S
O464 C450 1.258 . S
O465 La441 2.503 . S
O465 C450 1.256 . S
O466 La441 2.521 . S
O466 C451 1.261 . S
O467 La441 2.628 . S
O467 C451 1.243 . S
O468 La441 2.554 . S
O468 C458 1.240 . S
O469 La440 2.482 . S
O469 La441 2.757 . S
O469 C458 1.289 . S
O470 La441 2.470 . S
O470 C459 1.258 . S
O471 La440 2.503 . S
O471 C459 1.256 . S
H472 C444 0.930 . S
H473 C445 0.930 . S
H474 C447 0.929 . S
H475 C448 0.929 . S
H476 C453 0.930 . S
H477 C454 0.930 . S
H478 C456 0.929 . S
H479 C457 0.929 . S
H480 C488 0.950 . S
H481 C493 0.950 . S
H482 C490 0.950 . S
H483 C492 0.950 . S
H484 C494 0.950 . S
H485 C496 0.950 . S
H486 C498 0.950 . S
H487 C499 0.950 . S
C488 H480 0.950 . S
C488 C489 1.386 . S
C488 C490 1.391 . S
C489 C488 1.386 . S
C489 C493 1.393 . S
C490 H482 0.950 . S
C490 C488 1.391 . S
C490 C491 1.400 . S
C491 C490 1.400 . S
C491 C492 1.398 . S
C491 C497 1.491 . S
C492 H483 0.950 . S
C492 C491 1.398 . S
C492 C493 1.391 . S
C493 H481 0.950 . S
C493 C489 1.393 . S
C493 C492 1.391 . S
C494 H484 0.950 . S
C494 C495 1.386 . S
C494 C496 1.391 . S
C495 C494 1.386 . S
C495 C499 1.393 . S
C496 H485 0.950 . S
C496 C494 1.391 . S
C496 C497 1.400 . S
C497 C491 1.491 . S
C497 C496 1.400 . S
C497 C498 1.398 . S
C498 H486 0.950 . S
C498 C497 1.398 . S
C498 C499 1.391 . S
C499 H487 0.950 . S
C499 C495 1.393 . S
C499 C498 1.391 . S
H500 C508 0.950 . S
H501 C513 0.950 . S
H502 C510 0.950 . S
H503 C512 0.950 . S
H504 C514 0.950 . S
H505 C516 0.950 . S
H506 C518 0.950 . S
H507 C519 0.950 . S
C508 H500 0.950 . S
C508 C509 1.386 . S
C508 C510 1.391 . S
C509 C508 1.386 . S
C509 C513 1.393 . S
C510 H502 0.950 . S
C510 C508 1.391 . S
C510 C511 1.400 . S
C511 C510 1.400 . S
C511 C512 1.398 . S
C511 C517 1.491 . S
C512 H503 0.950 . S
C512 C511 1.398 . S
C512 C513 1.391 . S
C513 H501 0.950 . S
C513 C509 1.393 . S
C513 C512 1.391 . S
C514 H504 0.950 . S
C514 C515 1.386 . S
C514 C516 1.391 . S
C515 C514 1.386 . S
C515 C519 1.393 . S
C516 H505 0.950 . S
C516 C514 1.391 . S
C516 C517 1.400 . S
C517 C511 1.491 . S
C517 C516 1.400 . S
C517 C518 1.398 . S
C518 H506 0.950 . S
C518 C517 1.398 . S
C518 C519 1.391 . S
C519 H507 0.950 . S
C519 C515 1.393 . S
C519 C518 1.391 . S
H520 C528 0.950 . S
H521 C533 0.950 . S
H522 C530 0.950 . S
H523 C532 0.950 . S
H524 C534 0.950 . S
H525 C536 0.950 . S
H526 C538 0.950 . S
H527 C539 0.950 . S
C528 H520 0.950 . S
C528 C529 1.386 . S
C528 C530 1.391 . S
C529 C528 1.386 . S
C529 C533 1.393 . S
C530 H522 0.950 . S
C530 C528 1.391 . S
C530 C531 1.400 . S
C531 C530 1.400 . S
C531 C532 1.398 . S
C531 C537 1.491 . S
C532 H523 0.950 . S
C532 C531 1.398 . S
C532 C533 1.391 . S
C533 H521 0.950 . S
C533 C529 1.393 . S
C533 C532 1.391 . S
C534 H524 0.950 . S
C534 C535 1.386 . S
C534 C536 1.391 . S
C535 C534 1.386 . S
C535 C539 1.393 . S
C536 H525 0.950 . S
C536 C534 1.391 . S
C536 C537 1.400 . S
C537 C531 1.491 . S
C537 C536 1.400 . S
C537 C538 1.398 . S
C538 H526 0.950 . S
C538 C537 1.398 . S
C538 C539 1.391 . S
C539 H527 0.950 . S
C539 C535 1.393 . S
C539 C538 1.391 . S
H540 C548 0.950 . S
H541 C553 0.950 . S
H542 C550 0.950 . S
H543 C552 0.950 . S
H544 C554 0.950 . S
H545 C556 0.950 . S
H546 C558 0.950 . S
H547 C559 0.950 . S
C548 H540 0.950 . S
C548 C549 1.386 . S
C548 C550 1.391 . S
C549 C548 1.386 . S
C549 C553 1.393 . S
C550 H542 0.950 . S
C550 C548 1.391 . S
C550 C551 1.400 . S
C551 C550 1.400 . S
C551 C552 1.398 . S
C551 C557 1.491 . S
C552 H543 0.950 . S
C552 C551 1.398 . S
C552 C553 1.391 . S
C553 H541 0.950 . S
C553 C549 1.393 . S
C553 C552 1.391 . S
C554 H544 0.950 . S
C554 C555 1.386 . S
C554 C556 1.391 . S
C555 C554 1.386 . S
C555 C559 1.393 . S
C556 H545 0.950 . S
C556 C554 1.391 . S
C556 C557 1.400 . S
C557 C551 1.491 . S
C557 C556 1.400 . S
C557 C558 1.398 . S
C558 H546 0.950 . S
C558 C557 1.398 . S
C558 C559 1.391 . S
C559 H547 0.950 . S
C559 C555 1.393 . S
C559 C558 1.391 . S
H560 C568 0.950 . S
H561 C573 0.950 . S
H562 C570 0.950 . S
H563 C572 0.950 . S
H564 C574 0.950 . S
H565 C576 0.950 . S
H566 C578 0.950 . S
H567 C579 0.950 . S
C568 H560 0.950 . S
C568 C569 1.386 . S
C568 C570 1.391 . S
C569 C568 1.386 . S
C569 C573 1.393 . S
C570 H562 0.950 . S
C570 C568 1.391 . S
C570 C571 1.400 . S
C571 C570 1.400 . S
C571 C572 1.398 . S
C571 C577 1.491 . S
C572 H563 0.950 . S
C572 C571 1.398 . S
C572 C573 1.391 . S
C573 H561 0.950 . S
C573 C569 1.393 . S
C573 C572 1.391 . S
C574 H564 0.950 . S
C574 C575 1.386 . S
C574 C576 1.391 . S
C575 C574 1.386 . S
C575 C579 1.393 . S
C576 H565 0.950 . S
C576 C574 1.391 . S
C576 C577 1.400 . S
C577 C571 1.491 . S
C577 C576 1.400 . S
C577 C578 1.398 . S
C578 H566 0.950 . S
C578 C577 1.398 . S
C578 C579 1.391 . S
C579 H567 0.950 . S
C579 C575 1.393 . S
C579 C578 1.391 . S
H580 C588 0.950 . S
H581 C593 0.950 . S
H582 C590 0.950 . S
H583 C592 0.950 . S
H584 C594 0.950 . S
H585 C596 0.950 . S
H586 C598 0.950 . S
H587 C599 0.950 . S
C588 H580 0.950 . S
C588 C589 1.386 . S
C588 C590 1.391 . S
C589 C588 1.386 . S
C589 C593 1.393 . S
C590 H582 0.950 . S
C590 C588 1.391 . S
C590 C591 1.400 . S
C591 C590 1.400 . S
C591 C592 1.398 . S
C591 C597 1.491 . S
C592 H583 0.950 . S
C592 C591 1.398 . S
C592 C593 1.391 . S
C593 H581 0.950 . S
C593 C589 1.393 . S
C593 C592 1.391 . S
C594 H584 0.950 . S
C594 C595 1.386 . S
C594 C596 1.391 . S
C595 C594 1.386 . S
C595 C599 1.393 . S
C596 H585 0.950 . S
C596 C594 1.391 . S
C596 C597 1.400 . S
C597 C591 1.491 . S
C597 C596 1.400 . S
C597 C598 1.398 . S
C598 H586 0.950 . S
C598 C597 1.398 . S
C598 C599 1.391 . S
C599 H587 0.950 . S
C599 C595 1.393 . S
C599 C598 1.391 . S
H600 C608 0.950 . S
H601 C613 0.950 . S
H602 C610 0.950 1_554 S
H603 C612 0.950 . S
H604 C614 0.950 . S
H605 C616 0.950 1_556 S
H606 C618 0.950 . S
H607 C619 0.950 . S
C608 H600 0.950 . S
C608 C609 1.386 . S
C608 C610 1.391 . S
C609 C608 1.386 . S
C609 C613 1.393 . S
C610 H602 0.950 1_556 S
C610 C608 1.391 . S
C610 C611 1.400 . S
C611 C610 1.400 . S
C611 C612 1.398 . S
C611 C617 1.491 1_556 S
C612 H603 0.950 . S
C612 C611 1.398 . S
C612 C613 1.391 . S
C613 H601 0.950 . S
C613 C609 1.393 . S
C613 C612 1.391 . S
C614 H604 0.950 . S
C614 C615 1.386 . S
C614 C616 1.391 . S
C615 C614 1.386 . S
C615 C619 1.393 . S
C616 H605 0.950 1_554 S
C616 C614 1.391 . S
C616 C617 1.400 . S
C617 C611 1.491 1_554 S
C617 C616 1.400 . S
C617 C618 1.398 . S
C618 H606 0.950 . S
C618 C617 1.398 . S
C618 C619 1.391 . S
C619 H607 0.950 . S
C619 C615 1.393 . S
C619 C618 1.391 . S
H620 C628 0.950 . S
H621 C633 0.950 . S
H622 C630 0.950 . S
H623 C632 0.950 . S
H624 C634 0.950 . S
H625 C636 0.950 . S
H626 C638 0.950 . S
H627 C639 0.950 . S
C628 H620 0.950 . S
C628 C629 1.386 . S
C628 C630 1.391 . S
C629 C628 1.386 . S
C629 C633 1.393 . S
C630 H622 0.950 . S
C630 C628 1.391 . S
C630 C631 1.400 . S
C631 C630 1.400 . S
C631 C632 1.398 . S
C631 C637 1.491 . S
C632 H623 0.950 . S
C632 C631 1.398 . S
C632 C633 1.391 . S
C633 H621 0.950 . S
C633 C629 1.393 . S
C633 C632 1.391 . S
C634 H624 0.950 . S
C634 C635 1.386 . S
C634 C636 1.391 . S
C635 C634 1.386 . S
C635 C639 1.393 . S
C636 H625 0.950 . S
C636 C634 1.391 . S
C636 C637 1.400 . S
C637 C631 1.491 . S
C637 C636 1.400 . S
C637 C638 1.398 . S
C638 H626 0.950 . S
C638 C637 1.398 . S
C638 C639 1.391 . S
C639 H627 0.950 . S
C639 C635 1.393 . S
C639 C638 1.391 . S
H640 C648 0.950 . S
H641 C653 0.950 . S
H642 C650 0.950 . S
H643 C652 0.950 . S
H644 C654 0.950 . S
H645 C656 0.950 . S
H646 C658 0.950 . S
H647 C659 0.950 . S
C648 H640 0.950 . S
C648 C649 1.386 . S
C648 C650 1.391 . S
C649 C648 1.386 . S
C649 C653 1.393 . S
C650 H642 0.950 . S
C650 C648 1.391 . S
C650 C651 1.400 . S
C651 C650 1.400 . S
C651 C652 1.398 . S
C651 C657 1.491 . S
C652 H643 0.950 . S
C652 C651 1.398 . S
C652 C653 1.391 . S
C653 H641 0.950 . S
C653 C649 1.393 . S
C653 C652 1.391 . S
C654 H644 0.950 . S
C654 C655 1.386 . S
C654 C656 1.391 . S
C655 C654 1.386 . S
C655 C659 1.393 . S
C656 H645 0.950 . S
C656 C654 1.391 . S
C656 C657 1.400 . S
C657 C651 1.491 . S
C657 C656 1.400 . S
C657 C658 1.398 . S
C658 H646 0.950 . S
C658 C657 1.398 . S
C658 C659 1.391 . S
C659 H647 0.950 . S
C659 C655 1.393 . S
C659 C658 1.391 . S
H660 C668 0.950 . S
H661 C673 0.950 . S
H662 C670 0.950 1_554 S
H663 C672 0.950 . S
H664 C674 0.950 . S
H665 C676 0.950 1_556 S
H666 C678 0.950 . S
H667 C679 0.950 . S
C668 H660 0.950 . S
C668 C669 1.386 . S
C668 C670 1.391 . S
C669 C668 1.386 . S
C669 C673 1.393 . S
C670 H662 0.950 1_556 S
C670 C668 1.391 . S
C670 C671 1.400 . S
C671 C670 1.400 . S
C671 C672 1.398 . S
C671 C677 1.491 1_556 S
C672 H663 0.950 . S
C672 C671 1.398 . S
C672 C673 1.391 . S
C673 H661 0.950 . S
C673 C669 1.393 . S
C673 C672 1.391 . S
C674 H664 0.950 . S
C674 C675 1.386 . S
C674 C676 1.391 . S
C675 C674 1.386 . S
C675 C679 1.393 . S
C676 H665 0.950 1_554 S
C676 C674 1.391 . S
C676 C677 1.400 . S
C677 C671 1.491 1_554 S
C677 C676 1.400 . S
C677 C678 1.398 . S
C678 H666 0.950 . S
C678 C677 1.398 . S
C678 C679 1.391 . S
C679 H667 0.950 . S
C679 C675 1.393 . S
C679 C678 1.391 . S
H680 C688 0.950 . S
H681 C693 0.950 . S
H682 C690 0.950 . S
H683 C692 0.950 . S
H684 C694 0.950 . S
H685 C696 0.950 . S
H686 C698 0.950 . S
H687 C699 0.950 . S
C688 H680 0.950 . S
C688 C689 1.386 . S
C688 C690 1.391 . S
C689 C688 1.386 . S
C689 C693 1.393 . S
C690 H682 0.950 . S
C690 C688 1.391 . S
C690 C691 1.400 . S
C691 C690 1.400 . S
C691 C692 1.398 . S
C691 C697 1.491 . S
C692 H683 0.950 . S
C692 C691 1.398 . S
C692 C693 1.391 . S
C693 H681 0.950 . S
C693 C689 1.393 . S
C693 C692 1.391 . S
C694 H684 0.950 . S
C694 C695 1.386 . S
C694 C696 1.391 . S
C695 C694 1.386 . S
C695 C699 1.393 . S
C696 H685 0.950 . S
C696 C694 1.391 . S
C696 C697 1.400 . S
C697 C691 1.491 . S
C697 C696 1.400 . S
C697 C698 1.398 . S
C698 H686 0.950 . S
C698 C697 1.398 . S
C698 C699 1.391 . S
C699 H687 0.950 . S
C699 C695 1.393 . S
C699 C698 1.391 . S
H700 C708 0.950 . S
H701 C713 0.950 . S
H702 C710 0.950 . S
H703 C712 0.950 . S
H704 C714 0.950 . S
H705 C716 0.950 . S
H706 C718 0.950 . S
H707 C719 0.950 . S
C708 H700 0.950 . S
C708 C709 1.386 . S
C708 C710 1.391 . S
C709 C708 1.386 . S
C709 C713 1.393 . S
C710 H702 0.950 . S
C710 C708 1.391 . S
C710 C711 1.400 . S
C711 C710 1.400 . S
C711 C712 1.398 . S
C711 C717 1.491 . S
C712 H703 0.950 . S
C712 C711 1.398 . S
C712 C713 1.391 . S
C713 H701 0.950 . S
C713 C709 1.393 . S
C713 C712 1.391 . S
C714 H704 0.950 . S
C714 C715 1.386 . S
C714 C716 1.391 . S
C715 C714 1.386 . S
C715 C719 1.393 . S
C716 H705 0.950 . S
C716 C714 1.391 . S
C716 C717 1.400 . S
C717 C711 1.491 . S
C717 C716 1.400 . S
C717 C718 1.398 . S
C718 H706 0.950 . S
C718 C717 1.398 . S
C718 C719 1.391 . S
C719 H707 0.950 . S
C719 C715 1.393 . S
C719 C718 1.391 . S
H720 C728 0.950 . S
H721 C733 0.950 . S
H722 C730 0.950 . S
H723 C732 0.950 . S
H724 C734 0.950 . S
H725 C736 0.950 . S
H726 C738 0.950 . S
H727 C739 0.950 . S
C728 H720 0.950 . S
C728 C729 1.386 . S
C728 C730 1.391 1_565 S
C729 C728 1.386 . S
C729 C733 1.393 . S
C730 H722 0.950 . S
C730 C728 1.391 1_545 S
C730 C731 1.400 1_545 S
C731 C730 1.400 1_565 S
C731 C732 1.398 . S
C731 C737 1.491 1_566 S
C732 H723 0.950 . S
C732 C731 1.398 . S
C732 C733 1.391 . S
C733 H721 0.950 . S
C733 C729 1.393 . S
C733 C732 1.391 . S
C734 H724 0.950 . S
C734 C735 1.386 . S
C734 C736 1.391 1_545 S
C735 C734 1.386 . S
C735 C739 1.393 . S
C736 H725 0.950 . S
C736 C734 1.391 1_565 S
C736 C737 1.400 1_565 S
C737 C731 1.491 1_544 S
C737 C736 1.400 1_545 S
C737 C738 1.398 . S
C738 H726 0.950 . S
C738 C737 1.398 . S
C738 C739 1.391 . S
C739 H727 0.950 . S
C739 C735 1.393 . S
C739 C738 1.391 . S
H740 C748 0.950 . S
H741 C753 0.950 . S
H742 C750 0.950 . S
H743 C752 0.950 . S
H744 C754 0.950 . S
H745 C756 0.950 . S
H746 C758 0.950 . S
H747 C759 0.950 . S
C748 H740 0.950 . S
C748 C749 1.386 . S
C748 C750 1.391 . S
C749 C748 1.386 . S
C749 C753 1.393 . S
C750 H742 0.950 . S
C750 C748 1.391 . S
C750 C751 1.400 . S
C751 C750 1.400 . S
C751 C752 1.398 . S
C751 C757 1.491 . S
C752 H743 0.950 . S
C752 C751 1.398 . S
C752 C753 1.391 . S
C753 H741 0.950 . S
C753 C749 1.393 . S
C753 C752 1.391 . S
C754 H744 0.950 . S
C754 C755 1.386 . S
C754 C756 1.391 . S
C755 C754 1.386 . S
C755 C759 1.393 . S
C756 H745 0.950 . S
C756 C754 1.391 . S
C756 C757 1.400 . S
C757 C751 1.491 . S
C757 C756 1.400 . S
C757 C758 1.398 . S
C758 H746 0.950 . S
C758 C757 1.398 . S
C758 C759 1.391 . S
C759 H747 0.950 . S
C759 C755 1.393 . S
C759 C758 1.391 . S
H760 C768 0.950 . S
H761 C773 0.950 1_655 S
H762 C770 0.950 . S
H763 C772 0.950 . S
H764 C774 0.950 . S
H765 C776 0.950 . S
H766 C778 0.950 . S
H767 C779 0.950 1_455 S
C768 H760 0.950 . S
C768 C769 1.386 . S
C768 C770 1.391 . S
C769 C768 1.386 . S
C769 C773 1.393 . S
C770 H762 0.950 . S
C770 C768 1.391 . S
C770 C771 1.400 . S
C771 C770 1.400 . S
C771 C772 1.398 1_455 S
C771 C777 1.491 1_455 S
C772 H763 0.950 . S
C772 C771 1.398 1_655 S
C772 C773 1.391 1_655 S
C773 H761 0.950 1_455 S
C773 C769 1.393 . S
C773 C772 1.391 1_455 S
C774 H764 0.950 . S
C774 C775 1.386 . S
C774 C776 1.391 . S
C775 C774 1.386 . S
C775 C779 1.393 . S
C776 H765 0.950 . S
C776 C774 1.391 . S
C776 C777 1.400 . S
C777 C771 1.491 1_655 S
C777 C776 1.400 . S
C777 C778 1.398 1_655 S
C778 H766 0.950 . S
C778 C777 1.398 1_455 S
C778 C779 1.391 1_455 S
C779 H767 0.950 1_655 S
C779 C775 1.393 . S
C779 C778 1.391 1_655 S
H780 C788 0.950 . S
H781 C793 0.950 . S
H782 C790 0.950 1_545 S
H783 C792 0.950 . S
H784 C794 0.950 . S
H785 C796 0.950 1_565 S
H786 C798 0.950 . S
H787 C799 0.950 . S
C788 H780 0.950 . S
C788 C789 1.386 . S
C788 C790 1.391 . S
C789 C788 1.386 . S
C789 C793 1.393 . S
C790 H782 0.950 1_565 S
C790 C788 1.391 . S
C790 C791 1.400 . S
C791 C790 1.400 . S
C791 C792 1.398 . S
C791 C797 1.491 1_564 S
C792 H783 0.950 . S
C792 C791 1.398 . S
C792 C793 1.391 . S
C793 H781 0.950 . S
C793 C789 1.393 . S
C793 C792 1.391 . S
C794 H784 0.950 . S
C794 C795 1.386 . S
C794 C796 1.391 . S
C795 C794 1.386 . S
C795 C799 1.393 . S
C796 H785 0.950 1_545 S
C796 C794 1.391 . S
C796 C797 1.400 . S
C797 C791 1.491 1_546 S
C797 C796 1.400 . S
C797 C798 1.398 . S
C798 H786 0.950 . S
C798 C797 1.398 . S
C798 C799 1.391 . S
C799 H787 0.950 . S
C799 C795 1.393 . S
C799 C798 1.391 . S
H800 C808 0.950 . S
H801 C813 0.950 . S
H802 C810 0.950 . S
H803 C812 0.950 . S
H804 C814 0.950 . S
H805 C816 0.950 . S
H806 C818 0.950 . S
H807 C819 0.950 . S
C808 H800 0.950 . S
C808 C809 1.386 . S
C808 C810 1.391 . S
C809 C808 1.386 . S
C809 C813 1.393 . S
C810 H802 0.950 . S
C810 C808 1.391 . S
C810 C811 1.400 . S
C811 C810 1.400 . S
C811 C812 1.398 . S
C811 C817 1.491 . S
C812 H803 0.950 . S
C812 C811 1.398 . S
C812 C813 1.391 . S
C813 H801 0.950 . S
C813 C809 1.393 . S
C813 C812 1.391 . S
C814 H804 0.950 . S
C814 C815 1.386 . S
C814 C816 1.391 . S
C815 C814 1.386 . S
C815 C819 1.393 . S
C816 H805 0.950 . S
C816 C814 1.391 . S
C816 C817 1.400 . S
C817 C811 1.491 . S
C817 C816 1.400 . S
C817 C818 1.398 . S
C818 H806 0.950 . S
C818 C817 1.398 . S
C818 C819 1.391 . S
C819 H807 0.950 . S
C819 C815 1.393 . S
C819 C818 1.391 . S
H820 C828 0.950 . S
H821 C833 0.950 . S
H822 C830 0.950 . S
H823 C832 0.950 1_655 S
H824 C834 0.950 . S
H825 C836 0.950 . S
H826 C838 0.950 1_455 S
H827 C839 0.950 . S
C828 H820 0.950 . S
C828 C829 1.386 . S
C828 C830 1.391 . S
C829 C828 1.386 . S
C829 C833 1.393 . S
C830 H822 0.950 . S
C830 C828 1.391 . S
C830 C831 1.400 . S
C831 C830 1.400 . S
C831 C832 1.398 . S
C831 C837 1.491 1_455 S
C832 H823 0.950 1_455 S
C832 C831 1.398 . S
C832 C833 1.391 . S
C833 H821 0.950 . S
C833 C829 1.393 . S
C833 C832 1.391 . S
C834 H824 0.950 . S
C834 C835 1.386 . S
C834 C836 1.391 . S
C835 C834 1.386 . S
C835 C839 1.393 . S
C836 H825 0.950 . S
C836 C834 1.391 . S
C836 C837 1.400 . S
C837 C831 1.491 1_655 S
C837 C836 1.400 . S
C837 C838 1.398 . S
C838 H826 0.950 1_655 S
C838 C837 1.398 . S
C838 C839 1.391 . S
C839 H827 0.950 . S
C839 C835 1.393 . S
C839 C838 1.391 . S
H840 C848 0.950 . S
H841 C853 0.950 . S
H842 C850 0.950 . S
H843 C852 0.950 . S
H844 C854 0.950 . S
H845 C856 0.950 . S
H846 C858 0.950 . S
H847 C859 0.950 . S
C848 H840 0.950 . S
C848 C849 1.386 . S
C848 C850 1.391 . S
C849 C848 1.386 . S
C849 C853 1.393 . S
C850 H842 0.950 . S
C850 C848 1.391 . S
C850 C851 1.400 . S
C851 C850 1.400 . S
C851 C852 1.398 . S
C851 C857 1.491 1_545 S
C852 H843 0.950 . S
C852 C851 1.398 . S
C852 C853 1.391 . S
C853 H841 0.950 . S
C853 C849 1.393 . S
C853 C852 1.391 . S
C854 H844 0.950 . S
C854 C855 1.386 . S
C854 C856 1.391 . S
C855 C854 1.386 . S
C855 C859 1.393 . S
C856 H845 0.950 . S
C856 C854 1.391 . S
C856 C857 1.400 . S
C857 C851 1.491 1_565 S
C857 C856 1.400 . S
C857 C858 1.398 . S
C858 H846 0.950 . S
C858 C857 1.398 . S
C858 C859 1.391 . S
C859 H847 0.950 . S
C859 C855 1.393 . S
C859 C858 1.391 . S
H860 C868 0.950 . S
H861 C873 0.950 . S
H862 C870 0.950 . S
H863 C872 0.950 . S
H864 C874 0.950 . S
H865 C876 0.950 . S
H866 C878 0.950 . S
H867 C879 0.950 . S
C868 H860 0.950 . S
C868 C869 1.386 . S
C868 C870 1.391 . S
C869 C868 1.386 . S
C869 C873 1.393 . S
C870 H862 0.950 . S
C870 C868 1.391 . S
C870 C871 1.400 . S
C871 C870 1.400 . S
C871 C872 1.398 . S
C871 C877 1.491 . S
C872 H863 0.950 . S
C872 C871 1.398 . S
C872 C873 1.391 . S
C873 H861 0.950 . S
C873 C869 1.393 . S
C873 C872 1.391 . S
C874 H864 0.950 . S
C874 C875 1.386 . S
C874 C876 1.391 . S
C875 C874 1.386 . S
C875 C879 1.393 . S
C876 H865 0.950 . S
C876 C874 1.391 . S
C876 C877 1.400 . S
C877 C871 1.491 . S
C877 C876 1.400 . S
C877 C878 1.398 . S
C878 H866 0.950 . S
C878 C877 1.398 . S
C878 C879 1.391 . S
C879 H867 0.950 . S
C879 C875 1.393 . S
C879 C878 1.391 . S
H880 C888 0.950 . S
H881 C893 0.950 . S
H882 C890 0.950 . S
H883 C892 0.950 1_455 S
H884 C894 0.950 . S
H885 C896 0.950 . S
H886 C898 0.950 1_655 S
H887 C899 0.950 . S
C888 H880 0.950 . S
C888 C889 1.386 . S
C888 C890 1.391 . S
C889 C888 1.386 . S
C889 C893 1.393 . S
C890 H882 0.950 . S
C890 C888 1.391 . S
C890 C891 1.400 . S
C891 C890 1.400 . S
C891 C892 1.398 . S
C891 C897 1.491 1_655 S
C892 H883 0.950 1_655 S
C892 C891 1.398 . S
C892 C893 1.391 . S
C893 H881 0.950 . S
C893 C889 1.393 . S
C893 C892 1.391 . S
C894 H884 0.950 . S
C894 C895 1.386 . S
C894 C896 1.391 . S
C895 C894 1.386 . S
C895 C899 1.393 . S
C896 H885 0.950 . S
C896 C894 1.391 . S
C896 C897 1.400 . S
C897 C891 1.491 1_455 S
C897 C896 1.400 . S
C897 C898 1.398 . S
C898 H886 0.950 1_455 S
C898 C897 1.398 . S
C898 C899 1.391 . S
C899 H887 0.950 . S
C899 C895 1.393 . S
C899 C898 1.391 . S
H900 C908 0.950 . S
H901 C913 0.950 . S
H902 C910 0.950 1_655 S
H903 C912 0.950 . S
H904 C914 0.950 . S
H905 C916 0.950 1_455 S
H906 C918 0.950 . S
H907 C919 0.950 . S
C908 H900 0.950 . S
C908 C909 1.386 . S
C908 C910 1.391 . S
C909 C908 1.386 . S
C909 C913 1.393 . S
C910 H902 0.950 1_455 S
C910 C908 1.391 . S
C910 C911 1.400 . S
C911 C910 1.400 . S
C911 C912 1.398 . S
C911 C917 1.491 1_455 S
C912 H903 0.950 . S
C912 C911 1.398 . S
C912 C913 1.391 . S
C913 H901 0.950 . S
C913 C909 1.393 . S
C913 C912 1.391 . S
C914 H904 0.950 . S
C914 C915 1.386 . S
C914 C916 1.391 . S
C915 C914 1.386 . S
C915 C919 1.393 . S
C916 H905 0.950 1_655 S
C916 C914 1.391 . S
C916 C917 1.400 . S
C917 C911 1.491 1_655 S
C917 C916 1.400 . S
C917 C918 1.398 . S
C918 H906 0.950 . S
C918 C917 1.398 . S
C918 C919 1.391 . S
C919 H907 0.950 . S
C919 C915 1.393 . S
C919 C918 1.391 . S
H920 C928 0.950 . S
H921 C933 0.950 . S
H922 C930 0.950 1_545 S
H923 C932 0.950 . S
H924 C934 0.950 . S
H925 C936 0.950 1_565 S
H926 C938 0.950 . S
H927 C939 0.950 . S
C928 H920 0.950 . S
C928 C929 1.386 . S
C928 C930 1.391 . S
C929 C928 1.386 . S
C929 C933 1.393 . S
C930 H922 0.950 1_565 S
C930 C928 1.391 . S
C930 C931 1.400 . S
C931 C930 1.400 . S
C931 C932 1.398 . S
C931 C937 1.491 1_565 S
C932 H923 0.950 . S
C932 C931 1.398 . S
C932 C933 1.391 . S
C933 H921 0.950 . S
C933 C929 1.393 . S
C933 C932 1.391 . S
C934 H924 0.950 . S
C934 C935 1.386 . S
C934 C936 1.391 . S
C935 C934 1.386 . S
C935 C939 1.393 . S
C936 H925 0.950 1_545 S
C936 C934 1.391 . S
C936 C937 1.400 . S
C937 C931 1.491 1_545 S
C937 C936 1.400 . S
C937 C938 1.398 . S
C938 H926 0.950 . S
C938 C937 1.398 . S
C938 C939 1.391 . S
C939 H927 0.950 . S
C939 C935 1.393 . S
C939 C938 1.391 . S
H940 C948 0.950 . S
H941 C953 0.950 . S
H942 C950 0.950 . S
H943 C952 0.950 . S
H944 C954 0.950 . S
H945 C956 0.950 . S
H946 C958 0.950 . S
H947 C959 0.950 . S
C948 H940 0.950 . S
C948 C949 1.386 . S
C948 C950 1.391 . S
C949 C948 1.386 . S
C949 C953 1.393 . S
C950 H942 0.950 . S
C950 C948 1.391 . S
C950 C951 1.400 . S
C951 C950 1.400 . S
C951 C952 1.398 . S
C951 C957 1.491 . S
C952 H943 0.950 . S
C952 C951 1.398 . S
C952 C953 1.391 . S
C953 H941 0.950 . S
C953 C949 1.393 . S
C953 C952 1.391 . S
C954 H944 0.950 . S
C954 C955 1.386 . S
C954 C956 1.391 . S
C955 C954 1.386 . S
C955 C959 1.393 . S
C956 H945 0.950 . S
C956 C954 1.391 . S
C956 C957 1.400 . S
C957 C951 1.491 . S
C957 C956 1.400 . S
C957 C958 1.398 . S
C958 H946 0.950 . S
C958 C957 1.398 . S
C958 C959 1.391 . S
C959 H947 0.950 . S
C959 C955 1.393 . S
C959 C958 1.391 . S
H960 C968 0.950 . S
H961 C973 0.950 . S
H962 C970 0.950 1_545 S
H963 C972 0.950 . S
H964 C974 0.950 . S
H965 C976 0.950 1_565 S
H966 C978 0.950 . S
H967 C979 0.950 . S
C968 H960 0.950 . S
C968 C969 1.386 . S
C968 C970 1.391 . S
C969 C968 1.386 . S
C969 C973 1.393 . S
C970 H962 0.950 1_565 S
C970 C968 1.391 . S
C970 C971 1.400 . S
C971 C970 1.400 . S
C971 C972 1.398 . S
C971 C977 1.491 1_565 S
C972 H963 0.950 . S
C972 C971 1.398 . S
C972 C973 1.391 . S
C973 H961 0.950 . S
C973 C969 1.393 . S
C973 C972 1.391 . S
C974 H964 0.950 . S
C974 C975 1.386 . S
C974 C976 1.391 . S
C975 C974 1.386 . S
C975 C979 1.393 . S
C976 H965 0.950 1_545 S
C976 C974 1.391 . S
C976 C977 1.400 . S
C977 C971 1.491 1_545 S
C977 C976 1.400 . S
C977 C978 1.398 . S
C978 H966 0.950 . S
C978 C977 1.398 . S
C978 C979 1.391 . S
C979 H967 0.950 . S
C979 C975 1.393 . S
C979 C978 1.391 . S
H980 C988 0.950 . S
H981 C993 0.950 . S
H982 C990 0.950 . S
H983 C992 0.950 . S
H984 C994 0.950 . S
H985 C996 0.950 . S
H986 C998 0.950 . S
H987 C999 0.950 . S
C988 H980 0.950 . S
C988 C989 1.386 . S
C988 C990 1.391 . S
C989 C988 1.386 . S
C989 C993 1.393 . S
C990 H982 0.950 . S
C990 C988 1.391 . S
C990 C991 1.400 . S
C991 C990 1.400 . S
C991 C992 1.398 . S
C991 C997 1.491 . S
C992 H983 0.950 . S
C992 C991 1.398 . S
C992 C993 1.391 . S
C993 H981 0.950 . S
C993 C989 1.393 . S
C993 C992 1.391 . S
C994 H984 0.950 . S
C994 C995 1.386 . S
C994 C996 1.391 . S
C995 C994 1.386 . S
C995 C999 1.393 . S
C996 H985 0.950 . S
C996 C994 1.391 . S
C996 C997 1.400 . S
C997 C991 1.491 . S
C997 C996 1.400 . S
C997 C998 1.398 . S
C998 H986 0.950 . S
C998 C997 1.398 . S
C998 C999 1.391 . S
C999 H987 0.950 . S
C999 C995 1.393 . S
C999 C998 1.391 . S
H1000 C1008 0.950 . S
H1001 C1013 0.950 . S
H1002 C1010 0.950 . S
H1003 C1012 0.950 . S
H1004 C1014 0.950 . S
H1005 C1016 0.950 . S
H1006 C1018 0.950 . S
H1007 C1019 0.950 . S
C1008 H1000 0.950 . S
C1008 C1009 1.386 . S
C1008 C1010 1.391 . S
C1009 C1008 1.386 . S
C1009 C1013 1.393 . S
C1010 H1002 0.950 . S
C1010 C1008 1.391 . S
C1010 C1011 1.400 . S
C1011 C1010 1.400 . S
C1011 C1012 1.398 . S
C1011 C1017 1.491 1_655 S
C1012 H1003 0.950 . S
C1012 C1011 1.398 . S
C1012 C1013 1.391 . S
C1013 H1001 0.950 . S
C1013 C1009 1.393 . S
C1013 C1012 1.391 . S
C1014 H1004 0.950 . S
C1014 C1015 1.386 . S
C1014 C1016 1.391 . S
C1015 C1014 1.386 . S
C1015 C1019 1.393 . S
C1016 H1005 0.950 . S
C1016 C1014 1.391 . S
C1016 C1017 1.400 . S
C1017 C1011 1.491 1_455 S
C1017 C1016 1.400 . S
C1017 C1018 1.398 . S
C1018 H1006 0.950 . S
C1018 C1017 1.398 . S
C1018 C1019 1.391 . S
C1019 H1007 0.950 . S
C1019 C1015 1.393 . S
C1019 C1018 1.391 . S
H1020 C1028 0.950 . S
H1021 C1033 0.950 . S
H1022 C1030 0.950 1_565 S
H1023 C1032 0.950 . S
H1024 C1034 0.950 . S
H1025 C1036 0.950 1_545 S
H1026 C1038 0.950 . S
H1027 C1039 0.950 . S
C1028 H1020 0.950 . S
C1028 C1029 1.386 . S
C1028 C1030 1.391 . S
C1029 C1028 1.386 . S
C1029 C1033 1.393 . S
C1030 H1022 0.950 1_545 S
C1030 C1028 1.391 . S
C1030 C1031 1.400 . S
C1031 C1030 1.400 . S
C1031 C1032 1.398 . S
C1031 C1037 1.491 1_545 S
C1032 H1023 0.950 . S
C1032 C1031 1.398 . S
C1032 C1033 1.391 . S
C1033 H1021 0.950 . S
C1033 C1029 1.393 . S
C1033 C1032 1.391 . S
C1034 H1024 0.950 . S
C1034 C1035 1.386 . S
C1034 C1036 1.391 . S
C1035 C1034 1.386 . S
C1035 C1039 1.393 . S
C1036 H1025 0.950 1_565 S
C1036 C1034 1.391 . S
C1036 C1037 1.400 . S
C1037 C1031 1.491 1_565 S
C1037 C1036 1.400 . S
C1037 C1038 1.398 . S
C1038 H1026 0.950 . S
C1038 C1037 1.398 . S
C1038 C1039 1.391 . S
C1039 H1027 0.950 . S
C1039 C1035 1.393 . S
C1039 C1038 1.391 . S
H1040 C1048 0.950 . S
H1041 C1053 0.950 . S
H1042 C1050 0.950 . S
H1043 C1052 0.950 . S
H1044 C1054 0.950 . S
H1045 C1056 0.950 . S
H1046 C1058 0.950 . S
H1047 C1059 0.950 . S
C1048 H1040 0.950 . S
C1048 C1049 1.386 . S
C1048 C1050 1.391 . S
C1049 C1048 1.386 . S
C1049 C1053 1.393 . S
C1050 H1042 0.950 . S
C1050 C1048 1.391 . S
C1050 C1051 1.400 . S
C1051 C1050 1.400 . S
C1051 C1052 1.398 . S
C1051 C1057 1.491 . S
C1052 H1043 0.950 . S
C1052 C1051 1.398 . S
C1052 C1053 1.391 . S
C1053 H1041 0.950 . S
C1053 C1049 1.393 . S
C1053 C1052 1.391 . S
C1054 H1044 0.950 . S
C1054 C1055 1.386 . S
C1054 C1056 1.391 . S
C1055 C1054 1.386 . S
C1055 C1059 1.393 . S
C1056 H1045 0.950 . S
C1056 C1054 1.391 . S
C1056 C1057 1.400 . S
C1057 C1051 1.491 . S
C1057 C1056 1.400 . S
C1057 C1058 1.398 . S
C1058 H1046 0.950 . S
C1058 C1057 1.398 . S
C1058 C1059 1.391 . S
C1059 H1047 0.950 . S
C1059 C1055 1.393 . S
C1059 C1058 1.391 . S
H1060 C1068 0.950 . S
H1061 C1073 0.950 . S
H1062 C1070 0.950 . S
H1063 C1072 0.950 1_655 S
H1064 C1074 0.950 . S
H1065 C1076 0.950 . S
H1066 C1078 0.950 1_455 S
H1067 C1079 0.950 . S
C1068 H1060 0.950 . S
C1068 C1069 1.386 . S
C1068 C1070 1.391 . S
C1069 C1068 1.386 . S
C1069 C1073 1.393 . S
C1070 H1062 0.950 . S
C1070 C1068 1.391 . S
C1070 C1071 1.400 . S
C1071 C1070 1.400 . S
C1071 C1072 1.398 . S
C1071 C1077 1.491 1_455 S
C1072 H1063 0.950 1_455 S
C1072 C1071 1.398 . S
C1072 C1073 1.391 . S
C1073 H1061 0.950 . S
C1073 C1069 1.393 . S
C1073 C1072 1.391 . S
C1074 H1064 0.950 . S
C1074 C1075 1.386 . S
C1074 C1076 1.391 . S
C1075 C1074 1.386 . S
C1075 C1079 1.393 . S
C1076 H1065 0.950 . S
C1076 C1074 1.391 . S
C1076 C1077 1.400 . S
C1077 C1071 1.491 1_655 S
C1077 C1076 1.400 . S
C1077 C1078 1.398 . S
C1078 H1066 0.950 1_655 S
C1078 C1077 1.398 . S
C1078 C1079 1.391 . S
C1079 H1067 0.950 . S
C1079 C1075 1.393 . S
C1079 C1078 1.391 . S
H1080 C1088 0.950 . S
H1081 C1093 0.950 . S
H1082 C1090 0.950 . S
H1083 C1092 0.950 . S
H1084 C1094 0.950 . S
H1085 C1096 0.950 . S
H1086 C1098 0.950 . S
H1087 C1099 0.950 . S
C1088 H1080 0.950 . S
C1088 C1089 1.386 . S
C1088 C1090 1.391 . S
C1089 C1088 1.386 . S
C1089 C1093 1.393 . S
C1090 H1082 0.950 . S
C1090 C1088 1.391 . S
C1090 C1091 1.400 . S
C1091 C1090 1.400 . S
C1091 C1092 1.398 . S
C1091 C1097 1.491 . S
C1092 H1083 0.950 . S
C1092 C1091 1.398 . S
C1092 C1093 1.391 . S
C1093 H1081 0.950 . S
C1093 C1089 1.393 . S
C1093 C1092 1.391 . S
C1094 H1084 0.950 . S
C1094 C1095 1.386 . S
C1094 C1096 1.391 . S
C1095 C1094 1.386 . S
C1095 C1099 1.393 . S
C1096 H1085 0.950 . S
C1096 C1094 1.391 . S
C1096 C1097 1.400 . S
C1097 C1091 1.491 . S
C1097 C1096 1.400 . S
C1097 C1098 1.398 . S
C1098 H1086 0.950 . S
C1098 C1097 1.398 . S
C1098 C1099 1.391 . S
C1099 H1087 0.950 . S
C1099 C1095 1.393 . S
C1099 C1098 1.391 . S
H1100 C1108 0.950 . S
H1101 C1113 0.950 . S
H1102 C1110 0.950 . S
H1103 C1112 0.950 . S
H1104 C1114 0.950 . S
H1105 C1116 0.950 . S
H1106 C1118 0.950 . S
H1107 C1119 0.950 . S
C1108 H1100 0.950 . S
C1108 C1109 1.386 . S
C1108 C1110 1.391 . S
C1109 C1108 1.386 . S
C1109 C1113 1.393 . S
C1110 H1102 0.950 . S
C1110 C1108 1.391 . S
C1110 C1111 1.400 . S
C1111 C1110 1.400 . S
C1111 C1112 1.398 . S
C1111 C1117 1.491 . S
C1112 H1103 0.950 . S
C1112 C1111 1.398 . S
C1112 C1113 1.391 . S
C1113 H1101 0.950 . S
C1113 C1109 1.393 . S
C1113 C1112 1.391 . S
C1114 H1104 0.950 . S
C1114 C1115 1.386 . S
C1114 C1116 1.391 . S
C1115 C1114 1.386 . S
C1115 C1119 1.393 . S
C1116 H1105 0.950 . S
C1116 C1114 1.391 . S
C1116 C1117 1.400 . S
C1117 C1111 1.491 . S
C1117 C1116 1.400 . S
C1117 C1118 1.398 . S
C1118 H1106 0.950 . S
C1118 C1117 1.398 . S
C1118 C1119 1.391 . S
C1119 H1107 0.950 . S
C1119 C1115 1.393 . S
C1119 C1118 1.391 . S
H1120 C1128 0.950 . S
H1121 C1133 0.950 . S
H1122 C1130 0.950 . S
H1123 C1132 0.950 . S
H1124 C1134 0.950 . S
H1125 C1136 0.950 . S
H1126 C1138 0.950 . S
H1127 C1139 0.950 . S
C1128 H1120 0.950 . S
C1128 C1129 1.386 . S
C1128 C1130 1.391 . S
C1129 C1128 1.386 . S
C1129 C1133 1.393 . S
C1130 H1122 0.950 . S
C1130 C1128 1.391 . S
C1130 C1131 1.400 . S
C1131 C1130 1.400 . S
C1131 C1132 1.398 . S
C1131 C1137 1.491 . S
C1132 H1123 0.950 . S
C1132 C1131 1.398 . S
C1132 C1133 1.391 . S
C1133 H1121 0.950 . S
C1133 C1129 1.393 . S
C1133 C1132 1.391 . S
C1134 H1124 0.950 . S
C1134 C1135 1.386 . S
C1134 C1136 1.391 . S
C1135 C1134 1.386 . S
C1135 C1139 1.393 . S
C1136 H1125 0.950 . S
C1136 C1134 1.391 . S
C1136 C1137 1.400 . S
C1137 C1131 1.491 . S
C1137 C1136 1.400 . S
C1137 C1138 1.398 . S
C1138 H1126 0.950 . S
C1138 C1137 1.398 . S
C1138 C1139 1.391 . S
C1139 H1127 0.950 . S
C1139 C1135 1.393 . S
C1139 C1138 1.391 . S
H1140 C1148 0.950 . S
H1141 C1153 0.950 . S
H1142 C1150 0.950 . S
H1143 C1152 0.950 . S
H1144 C1154 0.950 . S
H1145 C1156 0.950 . S
H1146 C1158 0.950 . S
H1147 C1159 0.950 . S
C1148 H1140 0.950 . S
C1148 C1149 1.386 . S
C1148 C1150 1.391 . S
C1149 C1148 1.386 . S
C1149 C1153 1.393 . S
C1150 H1142 0.950 . S
C1150 C1148 1.391 . S
C1150 C1151 1.400 . S
C1151 C1150 1.400 . S
C1151 C1152 1.398 . S
C1151 C1157 1.491 . S
C1152 H1143 0.950 . S
C1152 C1151 1.398 . S
C1152 C1153 1.391 . S
C1153 H1141 0.950 . S
C1153 C1149 1.393 . S
C1153 C1152 1.391 . S
C1154 H1144 0.950 . S
C1154 C1155 1.386 . S
C1154 C1156 1.391 . S
C1155 C1154 1.386 . S
C1155 C1159 1.393 . S
C1156 H1145 0.950 . S
C1156 C1154 1.391 . S
C1156 C1157 1.400 . S
C1157 C1151 1.491 . S
C1157 C1156 1.400 . S
C1157 C1158 1.398 . S
C1158 H1146 0.950 . S
C1158 C1157 1.398 . S
C1158 C1159 1.391 . S
C1159 H1147 0.950 . S
C1159 C1155 1.393 . S
C1159 C1158 1.391 . S
H1160 C1168 0.950 . S
H1161 C1173 0.950 . S
H1162 C1170 0.950 . S
H1163 C1172 0.950 . S
H1164 C1174 0.950 . S
H1165 C1176 0.950 . S
H1166 C1178 0.950 . S
H1167 C1179 0.950 . S
C1168 H1160 0.950 . S
C1168 C1169 1.386 . S
C1168 C1170 1.391 . S
C1169 C1168 1.386 . S
C1169 C1173 1.393 . S
C1170 H1162 0.950 . S
C1170 C1168 1.391 . S
C1170 C1171 1.400 . S
C1171 C1170 1.400 . S
C1171 C1172 1.398 . S
C1171 C1177 1.491 . S
C1172 H1163 0.950 . S
C1172 C1171 1.398 . S
C1172 C1173 1.391 . S
C1173 H1161 0.950 . S
C1173 C1169 1.393 . S
C1173 C1172 1.391 . S
C1174 H1164 0.950 . S
C1174 C1175 1.386 . S
C1174 C1176 1.391 . S
C1175 C1174 1.386 . S
C1175 C1179 1.393 . S
C1176 H1165 0.950 . S
C1176 C1174 1.391 . S
C1176 C1177 1.400 . S
C1177 C1171 1.491 . S
C1177 C1176 1.400 . S
C1177 C1178 1.398 . S
C1178 H1166 0.950 . S
C1178 C1177 1.398 . S
C1178 C1179 1.391 . S
C1179 H1167 0.950 . S
C1179 C1175 1.393 . S
C1179 C1178 1.391 . S
H1180 C1188 0.950 . S
H1181 C1193 0.950 . S
H1182 C1190 0.950 . S
H1183 C1192 0.950 . S
H1184 C1194 0.950 . S
H1185 C1196 0.950 . S
H1186 C1198 0.950 . S
H1187 C1199 0.950 . S
C1188 H1180 0.950 . S
C1188 C1189 1.386 . S
C1188 C1190 1.391 . S
C1189 C1188 1.386 . S
C1189 C1193 1.393 . S
C1190 H1182 0.950 . S
C1190 C1188 1.391 . S
C1190 C1191 1.400 . S
C1191 C1190 1.400 . S
C1191 C1192 1.398 . S
C1191 C1197 1.491 . S
C1192 H1183 0.950 . S
C1192 C1191 1.398 . S
C1192 C1193 1.391 . S
C1193 H1181 0.950 . S
C1193 C1189 1.393 . S
C1193 C1192 1.391 . S
C1194 H1184 0.950 . S
C1194 C1195 1.386 . S
C1194 C1196 1.391 . S
C1195 C1194 1.386 . S
C1195 C1199 1.393 . S
C1196 H1185 0.950 . S
C1196 C1194 1.391 . S
C1196 C1197 1.400 . S
C1197 C1191 1.491 . S
C1197 C1196 1.400 . S
C1197 C1198 1.398 . S
C1198 H1186 0.950 . S
C1198 C1197 1.398 . S
C1198 C1199 1.391 . S
C1199 H1187 0.950 . S
C1199 C1195 1.393 . S
C1199 C1198 1.391 . S
C489 C9 1.065 . S
C495 C329 1.084 . S
C509 C49 1.072 . S
C515 C369 1.085 . S
C529 C89 1.079 . S
C535 C409 1.059 . S
C549 C449 1.059 . S
C555 C129 1.079 . S
C569 C169 1.069 . S
C575 C249 1.085 . S
C589 C289 1.061 . S
C595 C209 1.058 . S
C609 C415 1.570 . S
C615 C15 1.558 . S
C629 C455 1.572 . S
C635 C55 1.560 . S
C649 C95 1.567 . S
C655 C255 1.555 . S
C669 C295 1.566 . S
C675 C135 1.554 . S
C689 C335 1.556 . S
C695 C175 1.551 . S
C709 C215 1.569 . S
C715 C375 1.557 . S
C729 C299 4.281 . S
C735 C19 4.275 . S
C749 C339 4.281 . S
C755 C59 4.283 . S
C769 C379 4.275 . S
C775 C99 4.281 . S
C789 C139 4.284 . S
C795 C419 4.281 . S
C809 C179 4.279 . S
C815 C459 4.284 . S
C829 C219 4.279 . S
C835 C259 4.284 . S
C849 C18 0.491 . S
C855 C138 0.489 . S
C869 C58 0.563 . S
C875 C178 0.575 . S
C889 C98 0.572 . S
C895 C218 0.533 . S
C909 C378 0.492 . S
C915 C258 0.536 . S
C929 C298 0.484 . S
C935 C418 0.516 . S
C949 C458 0.489 . S
C955 C338 0.491 . S
C969 C286 0.753 . S
C975 C6 0.776 . S
C989 C326 0.721 . S
C995 C46 0.751 . S
C1009 C86 0.727 . S
C1015 C366 0.712 . S
C1029 C406 0.745 . S
C1035 C126 0.773 . S
C1049 C446 0.777 . S
C1055 C166 0.762 . S
C1069 C206 0.749 . S
C1075 C246 0.719 . S
C1089 C10 4.799 . S
C1095 C410 4.799 . S
C1109 C50 4.800 . S
C1115 C450 4.799 1_556 S
C1129 C90 4.800 1_554 S
C1135 C250 4.799 . S
C1149 C130 4.799 . S
C1155 C290 4.799 . S
C1169 C170 4.799 . S
C1175 C330 4.799 1_556 S
C1189 C370 4.800 . S
C1195 C210 4.800 1_554 S
