# Generated by pormake.
# Topology ukp, (4)-cn, num edge types: 1
# Building blocks:
#     Node 0, Type 0, BuildingBlock: NAWXER_clean_sbu_0, # of connection points: 4
#     Node 1, Type 0, BuildingBlock: NAWXER_clean_sbu_0, # of connection points: 4
#     Node 2, Type 0, BuildingBlock: NAWXER_clean_sbu_0, # of connection points: 4
#     Node 3, Type 0, BuildingBlock: NAWXER_clean_sbu_0, # of connection points: 4
#     Node 4, Type 0, BuildingBlock: NAWXER_clean_sbu_0, # of connection points: 4
#     Node 5, Type 0, BuildingBlock: NAWXER_clean_sbu_0, # of connection points: 4
#     Node 6, Type 0, BuildingBlock: NAWXER_clean_sbu_0, # of connection points: 4
#     Node 7, Type 0, BuildingBlock: NAWXER_clean_sbu_0, # of connection points: 4
#     Node 8, Type 0, BuildingBlock: NAWXER_clean_sbu_0, # of connection points: 4
#     Node 9, Type 0, BuildingBlock: NAWXER_clean_sbu_0, # of connection points: 4
#     Node 10, Type 0, BuildingBlock: NAWXER_clean_sbu_0, # of connection points: 4
#     Node 11, Type 0, BuildingBlock: NAWXER_clean_sbu_0, # of connection points: 4
#     Node 12, Type 0, BuildingBlock: NAWXER_clean_sbu_0, # of connection points: 4
#     Node 13, Type 0, BuildingBlock: NAWXER_clean_sbu_0, # of connection points: 4
#     Node 14, Type 0, BuildingBlock: NAWXER_clean_sbu_0, # of connection points: 4
#     Node 15, Type 0, BuildingBlock: NAWXER_clean_sbu_0, # of connection points: 4
#     Node 16, Type 0, BuildingBlock: NAWXER_clean_sbu_0, # of connection points: 4
#     Node 17, Type 0, BuildingBlock: NAWXER_clean_sbu_0, # of connection points: 4
#     Node 18, Type 0, BuildingBlock: NAWXER_clean_sbu_0, # of connection points: 4
#     Node 19, Type 0, BuildingBlock: NAWXER_clean_sbu_0, # of connection points: 4
#     Node 20, Type 0, BuildingBlock: NAWXER_clean_sbu_0, # of connection points: 4
#     Node 21, Type 0, BuildingBlock: NAWXER_clean_sbu_0, # of connection points: 4
#     Node 22, Type 0, BuildingBlock: NAWXER_clean_sbu_0, # of connection points: 4
#     Node 23, Type 0, BuildingBlock: NAWXER_clean_sbu_0, # of connection points: 4
#     Node 24, Type 0, BuildingBlock: NAWXER_clean_sbu_0, # of connection points: 4
#     Node 25, Type 0, BuildingBlock: NAWXER_clean_sbu_0, # of connection points: 4
#     Node 26, Type 0, BuildingBlock: NAWXER_clean_sbu_0, # of connection points: 4
#     Node 27, Type 0, BuildingBlock: NAWXER_clean_sbu_0, # of connection points: 4
#     Node 28, Type 0, BuildingBlock: NAWXER_clean_sbu_0, # of connection points: 4
#     Node 29, Type 0, BuildingBlock: NAWXER_clean_sbu_0, # of connection points: 4
#     Node 30, Type 0, BuildingBlock: NAWXER_clean_sbu_0, # of connection points: 4
#     Node 31, Type 0, BuildingBlock: NAWXER_clean_sbu_0, # of connection points: 4
#     Node 32, Type 0, BuildingBlock: NAWXER_clean_sbu_0, # of connection points: 4
#     Node 33, Type 0, BuildingBlock: NAWXER_clean_sbu_0, # of connection points: 4
#     Node 34, Type 0, BuildingBlock: NAWXER_clean_sbu_0, # of connection points: 4
#     Node 35, Type 0, BuildingBlock: NAWXER_clean_sbu_0, # of connection points: 4
#     Node 36, Type 0, BuildingBlock: NAWXER_clean_sbu_0, # of connection points: 4
#     Node 37, Type 0, BuildingBlock: NAWXER_clean_sbu_0, # of connection points: 4
#     Node 38, Type 0, BuildingBlock: NAWXER_clean_sbu_0, # of connection points: 4
#     Node 39, Type 0, BuildingBlock: NAWXER_clean_sbu_0, # of connection points: 4
#     Node 40, Type 0, BuildingBlock: NAWXER_clean_sbu_0, # of connection points: 4
#     Node 41, Type 0, BuildingBlock: NAWXER_clean_sbu_0, # of connection points: 4
#     Node 42, Type 0, BuildingBlock: NAWXER_clean_sbu_0, # of connection points: 4
#     Node 43, Type 0, BuildingBlock: NAWXER_clean_sbu_0, # of connection points: 4
#     Node 44, Type 0, BuildingBlock: NAWXER_clean_sbu_0, # of connection points: 4
#     Node 45, Type 0, BuildingBlock: NAWXER_clean_sbu_0, # of connection points: 4
#     Node 46, Type 0, BuildingBlock: NAWXER_clean_sbu_0, # of connection points: 4
#     Node 47, Type 0, BuildingBlock: NAWXER_clean_sbu_0, # of connection points: 4
#     Edge 48, Type (0, 0), BuildingBlock: AJUNOK_clean_linker_0, # of connection points: 2
#     Edge 49, Type (0, 0), BuildingBlock: AJUNOK_clean_linker_0, # of connection points: 2
#     Edge 50, Type (0, 0), BuildingBlock: AJUNOK_clean_linker_0, # of connection points: 2
#     Edge 51, Type (0, 0), BuildingBlock: AJUNOK_clean_linker_0, # of connection points: 2
#     Edge 52, Type (0, 0), BuildingBlock: AJUNOK_clean_linker_0, # of connection points: 2
#     Edge 53, Type (0, 0), BuildingBlock: AJUNOK_clean_linker_0, # of connection points: 2
#     Edge 54, Type (0, 0), BuildingBlock: AJUNOK_clean_linker_0, # of connection points: 2
#     Edge 55, Type (0, 0), BuildingBlock: AJUNOK_clean_linker_0, # of connection points: 2
#     Edge 56, Type (0, 0), BuildingBlock: AJUNOK_clean_linker_0, # of connection points: 2
#     Edge 57, Type (0, 0), BuildingBlock: AJUNOK_clean_linker_0, # of connection points: 2
#     Edge 58, Type (0, 0), BuildingBlock: AJUNOK_clean_linker_0, # of connection points: 2
#     Edge 59, Type (0, 0), BuildingBlock: AJUNOK_clean_linker_0, # of connection points: 2
#     Edge 60, Type (0, 0), BuildingBlock: AJUNOK_clean_linker_0, # of connection points: 2
#     Edge 61, Type (0, 0), BuildingBlock: AJUNOK_clean_linker_0, # of connection points: 2
#     Edge 62, Type (0, 0), BuildingBlock: AJUNOK_clean_linker_0, # of connection points: 2
#     Edge 63, Type (0, 0), BuildingBlock: AJUNOK_clean_linker_0, # of connection points: 2
#     Edge 64, Type (0, 0), BuildingBlock: AJUNOK_clean_linker_0, # of connection points: 2
#     Edge 65, Type (0, 0), BuildingBlock: AJUNOK_clean_linker_0, # of connection points: 2
#     Edge 66, Type (0, 0), BuildingBlock: AJUNOK_clean_linker_0, # of connection points: 2
#     Edge 67, Type (0, 0), BuildingBlock: AJUNOK_clean_linker_0, # of connection points: 2
#     Edge 68, Type (0, 0), BuildingBlock: AJUNOK_clean_linker_0, # of connection points: 2
#     Edge 69, Type (0, 0), BuildingBlock: AJUNOK_clean_linker_0, # of connection points: 2
#     Edge 70, Type (0, 0), BuildingBlock: AJUNOK_clean_linker_0, # of connection points: 2
#     Edge 71, Type (0, 0), BuildingBlock: AJUNOK_clean_linker_0, # of connection points: 2
#     Edge 72, Type (0, 0), BuildingBlock: AJUNOK_clean_linker_0, # of connection points: 2
#     Edge 73, Type (0, 0), BuildingBlock: AJUNOK_clean_linker_0, # of connection points: 2
#     Edge 74, Type (0, 0), BuildingBlock: AJUNOK_clean_linker_0, # of connection points: 2
#     Edge 75, Type (0, 0), BuildingBlock: AJUNOK_clean_linker_0, # of connection points: 2
#     Edge 76, Type (0, 0), BuildingBlock: AJUNOK_clean_linker_0, # of connection points: 2
#     Edge 77, Type (0, 0), BuildingBlock: AJUNOK_clean_linker_0, # of connection points: 2
#     Edge 78, Type (0, 0), BuildingBlock: AJUNOK_clean_linker_0, # of connection points: 2
#     Edge 79, Type (0, 0), BuildingBlock: AJUNOK_clean_linker_0, # of connection points: 2
#     Edge 80, Type (0, 0), BuildingBlock: AJUNOK_clean_linker_0, # of connection points: 2
#     Edge 81, Type (0, 0), BuildingBlock: AJUNOK_clean_linker_0, # of connection points: 2
#     Edge 82, Type (0, 0), BuildingBlock: AJUNOK_clean_linker_0, # of connection points: 2
#     Edge 83, Type (0, 0), BuildingBlock: AJUNOK_clean_linker_0, # of connection points: 2
#     Edge 84, Type (0, 0), BuildingBlock: AJUNOK_clean_linker_0, # of connection points: 2
#     Edge 85, Type (0, 0), BuildingBlock: AJUNOK_clean_linker_0, # of connection points: 2
#     Edge 86, Type (0, 0), BuildingBlock: AJUNOK_clean_linker_0, # of connection points: 2
#     Edge 87, Type (0, 0), BuildingBlock: AJUNOK_clean_linker_0, # of connection points: 2
#     Edge 88, Type (0, 0), BuildingBlock: AJUNOK_clean_linker_0, # of connection points: 2
#     Edge 89, Type (0, 0), BuildingBlock: AJUNOK_clean_linker_0, # of connection points: 2
#     Edge 90, Type (0, 0), BuildingBlock: AJUNOK_clean_linker_0, # of connection points: 2
#     Edge 91, Type (0, 0), BuildingBlock: AJUNOK_clean_linker_0, # of connection points: 2
#     Edge 92, Type (0, 0), BuildingBlock: AJUNOK_clean_linker_0, # of connection points: 2
#     Edge 93, Type (0, 0), BuildingBlock: AJUNOK_clean_linker_0, # of connection points: 2
#     Edge 94, Type (0, 0), BuildingBlock: AJUNOK_clean_linker_0, # of connection points: 2
#     Edge 95, Type (0, 0), BuildingBlock: AJUNOK_clean_linker_0, # of connection points: 2
#     Edge 96, Type (0, 0), BuildingBlock: AJUNOK_clean_linker_0, # of connection points: 2
#     Edge 97, Type (0, 0), BuildingBlock: AJUNOK_clean_linker_0, # of connection points: 2
#     Edge 98, Type (0, 0), BuildingBlock: AJUNOK_clean_linker_0, # of connection points: 2
#     Edge 99, Type (0, 0), BuildingBlock: AJUNOK_clean_linker_0, # of connection points: 2
#     Edge 100, Type (0, 0), BuildingBlock: AJUNOK_clean_linker_0, # of connection points: 2
#     Edge 101, Type (0, 0), BuildingBlock: AJUNOK_clean_linker_0, # of connection points: 2
#     Edge 102, Type (0, 0), BuildingBlock: AJUNOK_clean_linker_0, # of connection points: 2
#     Edge 103, Type (0, 0), BuildingBlock: AJUNOK_clean_linker_0, # of connection points: 2
#     Edge 104, Type (0, 0), BuildingBlock: AJUNOK_clean_linker_0, # of connection points: 2
#     Edge 105, Type (0, 0), BuildingBlock: AJUNOK_clean_linker_0, # of connection points: 2
#     Edge 106, Type (0, 0), BuildingBlock: AJUNOK_clean_linker_0, # of connection points: 2
#     Edge 107, Type (0, 0), BuildingBlock: AJUNOK_clean_linker_0, # of connection points: 2
#     Edge 108, Type (0, 0), BuildingBlock: AJUNOK_clean_linker_0, # of connection points: 2
#     Edge 109, Type (0, 0), BuildingBlock: AJUNOK_clean_linker_0, # of connection points: 2
#     Edge 110, Type (0, 0), BuildingBlock: AJUNOK_clean_linker_0, # of connection points: 2
#     Edge 111, Type (0, 0), BuildingBlock: AJUNOK_clean_linker_0, # of connection points: 2
#     Edge 112, Type (0, 0), BuildingBlock: AJUNOK_clean_linker_0, # of connection points: 2
#     Edge 113, Type (0, 0), BuildingBlock: AJUNOK_clean_linker_0, # of connection points: 2
#     Edge 114, Type (0, 0), BuildingBlock: AJUNOK_clean_linker_0, # of connection points: 2
#     Edge 115, Type (0, 0), BuildingBlock: AJUNOK_clean_linker_0, # of connection points: 2
#     Edge 116, Type (0, 0), BuildingBlock: AJUNOK_clean_linker_0, # of connection points: 2
#     Edge 117, Type (0, 0), BuildingBlock: AJUNOK_clean_linker_0, # of connection points: 2
#     Edge 118, Type (0, 0), BuildingBlock: AJUNOK_clean_linker_0, # of connection points: 2
#     Edge 119, Type (0, 0), BuildingBlock: AJUNOK_clean_linker_0, # of connection points: 2
#     Edge 120, Type (0, 0), BuildingBlock: AJUNOK_clean_linker_0, # of connection points: 2
#     Edge 121, Type (0, 0), BuildingBlock: AJUNOK_clean_linker_0, # of connection points: 2
#     Edge 122, Type (0, 0), BuildingBlock: AJUNOK_clean_linker_0, # of connection points: 2
#     Edge 123, Type (0, 0), BuildingBlock: AJUNOK_clean_linker_0, # of connection points: 2
#     Edge 124, Type (0, 0), BuildingBlock: AJUNOK_clean_linker_0, # of connection points: 2
#     Edge 125, Type (0, 0), BuildingBlock: AJUNOK_clean_linker_0, # of connection points: 2
#     Edge 126, Type (0, 0), BuildingBlock: AJUNOK_clean_linker_0, # of connection points: 2
#     Edge 127, Type (0, 0), BuildingBlock: AJUNOK_clean_linker_0, # of connection points: 2
#     Edge 128, Type (0, 0), BuildingBlock: AJUNOK_clean_linker_0, # of connection points: 2
#     Edge 129, Type (0, 0), BuildingBlock: AJUNOK_clean_linker_0, # of connection points: 2
#     Edge 130, Type (0, 0), BuildingBlock: AJUNOK_clean_linker_0, # of connection points: 2
#     Edge 131, Type (0, 0), BuildingBlock: AJUNOK_clean_linker_0, # of connection points: 2
#     Edge 132, Type (0, 0), BuildingBlock: AJUNOK_clean_linker_0, # of connection points: 2
#     Edge 133, Type (0, 0), BuildingBlock: AJUNOK_clean_linker_0, # of connection points: 2
#     Edge 134, Type (0, 0), BuildingBlock: AJUNOK_clean_linker_0, # of connection points: 2
#     Edge 135, Type (0, 0), BuildingBlock: AJUNOK_clean_linker_0, # of connection points: 2
#     Edge 136, Type (0, 0), BuildingBlock: AJUNOK_clean_linker_0, # of connection points: 2
#     Edge 137, Type (0, 0), BuildingBlock: AJUNOK_clean_linker_0, # of connection points: 2
#     Edge 138, Type (0, 0), BuildingBlock: AJUNOK_clean_linker_0, # of connection points: 2
#     Edge 139, Type (0, 0), BuildingBlock: AJUNOK_clean_linker_0, # of connection points: 2
#     Edge 140, Type (0, 0), BuildingBlock: AJUNOK_clean_linker_0, # of connection points: 2
#     Edge 141, Type (0, 0), BuildingBlock: AJUNOK_clean_linker_0, # of connection points: 2
#     Edge 142, Type (0, 0), BuildingBlock: AJUNOK_clean_linker_0, # of connection points: 2
#     Edge 143, Type (0, 0), BuildingBlock: AJUNOK_clean_linker_0, # of connection points: 2
# Relax obj value: 0.179
# Max RMSD: 0.216
# Mean RMSD: 0.216
data_MOF--net-ukp--node1-NAWXER_clean_sbu_0--edge1-AJUNOK_clean_linker_0
_symmetry_space_group_name_H-M    P1
_symmetry_Int_Tables_number       1
_symmetry_cell_setting            triclinic
loop_
_symmetry_equiv_pos_as_xyz
'x, y, z'
_cell_length_a     46.531633
_cell_length_b     46.519813
_cell_length_c     46.530014
_cell_angle_alpha  90.009245
_cell_angle_beta   89.993354
_cell_angle_gamma 90.008559
loop_
_atom_site_label
_atom_site_type_symbol
_atom_site_fract_x
_atom_site_fract_y
_atom_site_fract_z
_atom_type_partial_charge
C0 C 0.19225 0.2962 0.3284 0.0
C1 C 0.15719 0.23233 0.40442 0.0
O2 O 0.20859 0.2956 0.35064 0.0
Zn3 Zn 0.21003 0.27435 0.3923 0.0
O4 O 0.16989 0.28042 0.32749 0.0
Zn5 Zn 0.17493 0.26445 0.36566 0.0
O6 O 0.17098 0.30375 0.39021 0.0
O7 O 0.2096 0.30724 0.41746 0.0
O8 O 0.1457 0.23858 0.38052 0.0
O9 O 0.18112 0.24409 0.41129 0.0
O10 O 0.24532 0.25365 0.38948 0.0
O11 O 0.21317 0.23887 0.35805 0.0
C12 C 0.18616 0.31787 0.4084 0.0
C13 C 0.23867 0.23747 0.36854 0.0
C14 C 0.02165 0.90513 0.65471 0.0
C15 C 0.95717 0.94158 0.58002 0.0
O16 O 0.01116 0.92961 0.66168 0.0
Zn17 Zn 0.98178 0.95957 0.64282 0.0
O18 O 0.01463 0.894 0.63084 0.0
Zn19 Zn 0.98948 0.92399 0.61643 0.0
O20 O 0.01621 0.96127 0.60746 0.0
O21 O 0.00358 0.99398 0.63922 0.0
O22 O 0.97237 0.91885 0.57883 0.0
O23 O 0.95902 0.95831 0.60189 0.0
O24 O 0.94985 0.96109 0.66875 0.0
O25 O 0.95062 0.92178 0.64234 0.0
C26 C 0.01882 0.98675 0.61781 0.0
C27 C 0.93787 0.93791 0.66077 0.0
C28 C 0.2704 0.76917 0.86655 0.0
C29 C 0.32169 0.68866 0.90813 0.0
O30 O 0.29592 0.76728 0.85622 0.0
Zn31 Zn 0.33373 0.74132 0.86447 0.0
O32 O 0.26349 0.75353 0.88782 0.0
Zn33 Zn 0.29843 0.73225 0.89103 0.0
O34 O 0.32802 0.76194 0.91011 0.0
O35 O 0.36319 0.76689 0.87895 0.0
O36 O 0.29804 0.69954 0.91635 0.0
O37 O 0.33714 0.70237 0.88983 0.0
O38 O 0.33886 0.72493 0.82655 0.0
O39 O 0.29978 0.71058 0.84958 0.0
C40 C 0.35218 0.77313 0.90308 0.0
C41 C 0.3162 0.70959 0.82742 0.0
C42 C 0.4887 0.01855 0.11825 0.0
C43 C 0.56872 0.07174 0.15821 0.0
O44 O 0.49018 0.0439 0.1076 0.0
Zn45 Zn 0.51471 0.08224 0.11543 0.0
O46 O 0.50458 0.01217 0.13949 0.0
Zn47 Zn 0.52565 0.04758 0.14225 0.0
O48 O 0.49712 0.07744 0.16247 0.0
O49 O 0.4873 0.11019 0.12976 0.0
O50 O 0.55876 0.04776 0.1667 0.0
O51 O 0.55408 0.08707 0.14047 0.0
O52 O 0.53073 0.08775 0.07733 0.0
O53 O 0.54709 0.04966 0.10075 0.0
C54 C 0.48385 0.10034 0.15492 0.0
C55 C 0.54739 0.06607 0.07858 0.0
C56 C 0.19133 0.70907 0.17954 0.0
C57 C 0.15616 0.7728 0.10365 0.0
O58 O 0.2073 0.70914 0.15702 0.0
Zn59 Zn 0.20864 0.73032 0.11528 0.0
O60 O 0.16945 0.72547 0.18075 0.0
Zn61 Zn 0.17451 0.74135 0.1426 0.0
O62 O 0.16897 0.70207 0.11759 0.0
O63 O 0.20783 0.69721 0.09085 0.0
O64 O 0.14657 0.76901 0.12886 0.0
O65 O 0.17881 0.75937 0.09562 0.0
O66 O 0.24429 0.75103 0.11739 0.0
O67 O 0.21328 0.76559 0.1499 0.0
C68 C 0.18387 0.68739 0.09952 0.0
C69 C 0.23848 0.76683 0.13884 0.0
C70 C 0.48774 0.98909 0.386 0.0
C71 C 0.5678 0.93705 0.34473 0.0
O72 O 0.4898 0.96388 0.39696 0.0
Zn73 Zn 0.51497 0.92579 0.38884 0.0
O74 O 0.50308 0.99536 0.36437 0.0
Zn75 Zn 0.52475 0.96041 0.36185 0.0
O76 O 0.49666 0.92975 0.34211 0.0
O77 O 0.48791 0.89717 0.37528 0.0
O78 O 0.55726 0.96097 0.33688 0.0
O79 O 0.554 0.92148 0.36297 0.0
O80 O 0.53157 0.92054 0.42657 0.0
O81 O 0.54669 0.95912 0.40322 0.0
C82 C 0.48399 0.90664 0.35005 0.0
C83 C 0.54745 0.9428 0.42547 0.0
C84 C 0.32105 0.31791 0.59832 0.0
C85 C 0.26827 0.23728 0.63775 0.0
O86 O 0.33641 0.30318 0.61594 0.0
Zn87 Zn 0.33184 0.26366 0.64068 0.0
O88 O 0.29705 0.30796 0.5899 0.0
Zn89 Zn 0.29704 0.27456 0.61403 0.0
O90 O 0.29883 0.29542 0.65585 0.0
O91 O 0.33723 0.27941 0.67889 0.0
O92 O 0.26174 0.25326 0.61662 0.0
O93 O 0.29364 0.23881 0.64834 0.0
O94 O 0.35991 0.23648 0.62613 0.0
O95 O 0.32701 0.24624 0.59357 0.0
C96 C 0.31515 0.29556 0.6781 0.0
C97 C 0.35001 0.23306 0.60099 0.0
C98 C 0.02321 0.09797 0.85211 0.0
C99 C 0.95903 0.06425 0.9285 0.0
O100 O 0.0113 0.07402 0.84558 0.0
Zn101 Zn 0.9811 0.0454 0.86506 0.0
O102 O 0.01719 0.10973 0.87596 0.0
Zn103 Zn 0.99119 0.0808 0.8913 0.0
O104 O 0.0166 0.04259 0.89936 0.0
O105 O 1.0017 0.01007 0.86838 0.0
O106 O 0.97517 0.08635 0.92944 0.0
O107 O 0.95968 0.04759 0.90652 0.0
O108 O 0.94815 0.04562 0.84003 0.0
O109 O 0.95188 0.08466 0.86666 0.0
C110 C 0.01794 0.01695 0.88918 0.0
C111 C 0.93763 0.06926 0.84875 0.0
C112 C 0.36783 0.23799 0.23786 0.0
C113 C 0.4098 0.18714 0.31807 0.0
O114 O 0.35725 0.21263 0.23996 0.0
Zn115 Zn 0.36601 0.17471 0.26521 0.0
O116 O 0.38936 0.24465 0.25319 0.0
Zn117 Zn 0.39245 0.20979 0.27478 0.0
O118 O 0.41267 0.1796 0.24666 0.0
O119 O 0.38018 0.14631 0.23811 0.0
O120 O 0.41737 0.21097 0.30712 0.0
O121 O 0.39188 0.17104 0.30446 0.0
O122 O 0.32825 0.16897 0.28182 0.0
O123 O 0.35132 0.20778 0.29696 0.0
C124 C 0.40517 0.15634 0.23402 0.0
C125 C 0.32938 0.19107 0.29792 0.0
C126 C 0.06528 0.07656 0.54617 0.0
C127 C 0.10048 0.15238 0.48254 0.0
O128 O 0.04872 0.09863 0.54544 0.0
Zn129 Zn 0.04701 0.14015 0.52371 0.0
O130 O 0.08745 0.07548 0.53018 0.0
Zn131 Zn 0.08205 0.11349 0.51413 0.0
O132 O 0.08575 0.13834 0.55345 0.0
O133 O 0.04692 0.16529 0.55668 0.0
O134 O 0.11135 0.12812 0.4885 0.0
O135 O 0.07643 0.15947 0.49393 0.0
O136 O 0.01177 0.13693 0.50282 0.0
O137 O 0.04395 0.10529 0.48863 0.0
C138 C 0.07036 0.15643 0.5675 0.0
C139 C 0.01843 0.11566 0.48708 0.0
C140 C 0.13789 0.76782 0.73861 0.0
C141 C 0.09784 0.82039 0.81919 0.0
O142 O 0.14814 0.79344 0.73984 0.0
Zn143 Zn 0.14036 0.83169 0.76548 0.0
O144 O 0.11729 0.76098 0.75513 0.0
Zn145 Zn 0.11432 0.79632 0.77576 0.0
O146 O 0.09465 0.82492 0.74556 0.0
O147 O 0.12505 0.8606 0.73957 0.0
O148 O 0.08952 0.79654 0.80885 0.0
O149 O 0.11578 0.8357 0.80487 0.0
O150 O 0.17859 0.83729 0.7811 0.0
O151 O 0.15609 0.79835 0.79659 0.0
C152 C 0.10118 0.84886 0.73361 0.0
C153 C 0.17813 0.81496 0.79692 0.0
C154 C 0.44192 0.92651 0.04891 0.0
C155 C 0.40811 0.85133 0.98347 0.0
O156 O 0.45856 0.90453 0.04789 0.0
Zn157 Zn 0.46063 0.86338 0.02594 0.0
O158 O 0.41948 0.92731 0.03326 0.0
Zn159 Zn 0.42509 0.8896 0.01643 0.0
O160 O 0.42116 0.86392 0.05493 0.0
O161 O 0.46039 0.83769 0.05837 0.0
O162 O 0.39627 0.87498 0.99007 0.0
O163 O 0.43206 0.84455 0.99522 0.0
O164 O 0.49596 0.86719 0.00542 0.0
O165 O 0.46325 0.89829 0.99115 0.0
C166 C 0.43645 0.84566 0.0688 0.0
C167 C 0.48894 0.88832 0.98964 0.0
C168 C 0.40609 0.84752 0.27249 0.0
C169 C 0.33039 0.81167 0.20922 0.0
O170 O 0.41408 0.82465 0.2594 0.0
Zn171 Zn 0.39428 0.79412 0.23119 0.0
O172 O 0.38071 0.85676 0.26907 0.0
Zn173 Zn 0.36694 0.82835 0.24191 0.0
O174 O 0.35958 0.79 0.26661 0.0
O175 O 0.39212 0.75883 0.2525 0.0
O176 O 0.32893 0.8334 0.2258 0.0
O177 O 0.35272 0.79546 0.20963 0.0
O178 O 0.41877 0.79433 0.19813 0.0
O179 O 0.39197 0.8333 0.20255 0.0
C180 C 0.37067 0.76483 0.26822 0.0
C181 C 0.40992 0.81811 0.18803 0.0
C182 C 0.48835 0.11795 0.51686 0.0
C183 C 0.43657 0.16028 0.43742 0.0
O184 O 0.46302 0.10728 0.51486 0.0
Zn185 Zn 0.42487 0.11602 0.49 0.0
O186 O 0.49478 0.13969 0.50172 0.0
Zn187 Zn 0.45971 0.14281 0.4804 0.0
O188 O 0.42955 0.16263 0.50884 0.0
O189 O 0.39656 0.12984 0.51741 0.0
O190 O 0.46041 0.168 0.44821 0.0
O191 O 0.42075 0.14209 0.45099 0.0
O192 O 0.41933 0.07833 0.47313 0.0
O193 O 0.45785 0.10181 0.45792 0.0
C194 C 0.40642 0.15489 0.52157 0.0
C195 C 0.44132 0.07974 0.4569 0.0
C196 C 0.10196 0.1538 0.77208 0.0
C197 C 0.17681 0.18978 0.70744 0.0
O198 O 0.09471 0.17786 0.76078 0.0
Zn199 Zn 0.11336 0.20735 0.73057 0.0
O200 O 0.12605 0.14282 0.76563 0.0
Zn201 Zn 0.14018 0.17217 0.73976 0.0
O202 O 0.14835 0.2101 0.76545 0.0
O203 O 0.1168 0.24256 0.75165 0.0
O204 O 0.17791 0.16722 0.7229 0.0
O205 O 0.1546 0.20611 0.70861 0.0
O206 O 0.08785 0.20705 0.69778 0.0
O207 O 0.11466 0.16822 0.70117 0.0
C208 C 0.13806 0.23564 0.7673 0.0
C209 C 0.09626 0.18329 0.68724 0.0
C210 C 0.07162 0.84689 0.93888 0.0
C211 C 0.01809 0.8867 0.01875 0.0
O212 O 0.08675 0.86498 0.9533 0.0
Zn213 Zn 0.08175 0.89011 0.9926 0.0
O214 O 0.04793 0.83798 0.94913 0.0
Zn215 Zn 0.04749 0.86271 0.98209 0.0
O216 O 0.04886 0.90419 0.96037 0.0
O217 O 0.08674 0.92816 0.97642 0.0
O218 O 0.01203 0.86519 1.00312 0.0
O219 O 0.04331 0.89767 0.01716 0.0
O220 O 0.10995 0.87648 0.02005 0.0
O221 O 0.07752 0.84323 0.01105 0.0
C222 C 0.06498 0.92659 0.9599 0.0
C223 C 0.10031 0.85134 0.02418 0.0
C224 C 0.23893 0.3675 0.23779 0.0
C225 C 0.31876 0.41134 0.18739 0.0
O226 O 0.24088 0.35787 0.212 0.0
Zn227 Zn 0.26681 0.36731 0.1743 0.0
O228 O 0.25446 0.38866 0.24529 0.0
Zn229 Zn 0.27543 0.39302 0.21031 0.0
O230 O 0.24485 0.412 0.18175 0.0
O231 O 0.24085 0.38227 0.14525 0.0
O232 O 0.30752 0.41908 0.21101 0.0
O233 O 0.30559 0.39299 0.17153 0.0
O234 O 0.28349 0.32966 0.16836 0.0
O235 O 0.29756 0.35187 0.20802 0.0
C236 C 0.23362 0.40553 0.15747 0.0
C237 C 0.29876 0.33011 0.19107 0.0
C238 C 0.79752 0.17714 0.81452 0.0
C239 C 0.73381 0.1008 0.84864 0.0
O240 O 0.79743 0.15487 0.7982 0.0
Zn241 Zn 0.77605 0.11328 0.79612 0.0
O242 O 0.7811 0.17805 0.8364 0.0
Zn243 Zn 0.76502 0.14005 0.83069 0.0
O244 O 0.80407 0.11453 0.8359 0.0
O245 O 0.80896 0.08867 0.79644 0.0
O246 O 0.73726 0.126 0.8584 0.0
O247 O 0.74721 0.09313 0.82585 0.0
O248 O 0.75535 0.11601 0.76051 0.0
O249 O 0.74092 0.1481 0.79205 0.0
C250 C 0.81863 0.09658 0.82072 0.0
C251 C 0.73967 0.13746 0.76668 0.0
C252 C 0.11685 0.48734 0.01974 0.0
C253 C 0.15587 0.56813 0.07256 0.0
O254 O 0.10607 0.48875 0.04512 0.0
Zn255 Zn 0.1133 0.51437 0.08341 0.0
O256 O 0.13788 0.5035 0.01337 0.0
Zn257 Zn 0.1402 0.52437 0.04863 0.0
O258 O 0.15944 0.49471 0.07804 0.0
O259 O 0.12797 0.48871 0.11275 0.0
O260 O 0.16488 0.55756 0.04905 0.0
O261 O 0.1377 0.55386 0.08764 0.0
O262 O 0.07502 0.53005 0.08822 0.0
O263 O 0.09842 0.54532 0.0497 0.0
C264 C 0.15234 0.48306 0.10196 0.0
C265 C 0.07604 0.54578 0.06584 0.0
C266 C 0.76757 0.86378 0.27097 0.0
C267 C 0.68688 0.90773 0.31932 0.0
O268 O 0.76489 0.85377 0.29656 0.0
Zn269 Zn 0.73825 0.86328 0.33373 0.0
O270 O 0.75263 0.88535 0.26354 0.0
Zn271 Zn 0.73076 0.8894 0.2979 0.0
O272 O 0.76011 0.90846 0.32779 0.0
O273 O 0.76343 0.87791 0.36363 0.0
O274 O 0.69891 0.91542 0.29609 0.0
O275 O 0.6995 0.88936 0.33562 0.0
O276 O 0.72105 0.82572 0.33911 0.0
O277 O 0.70792 0.8485 0.29942 0.0
C278 C 0.77052 0.90167 0.35236 0.0
C279 C 0.70601 0.82673 0.31627 0.0
C280 C 0.88837 0.01765 0.01913 0.0
C281 C 0.84762 0.93731 0.07143 0.0
O282 O 0.89894 0.01586 0.04456 0.0
Zn283 Zn 0.89108 0.99023 0.08258 0.0
O284 O 0.86714 1.00186 0.01246 0.0
Zn285 Zn 0.86402 0.98086 0.04766 0.0
O286 O 0.84541 0.011 0.07708 0.0
O287 O 0.87685 0.01609 0.11198 0.0
O288 O 0.83856 0.9481 0.04804 0.0
O289 O 0.86595 0.95128 0.08658 0.0
O290 O 0.92894 0.97358 0.08743 0.0
O291 O 0.90524 0.95876 0.0489 0.0
C292 C 0.8527 0.02241 0.10107 0.0
C293 C 0.92743 0.95761 0.06524 0.0
C294 C 0.26788 0.63972 0.73666 0.0
C295 C 0.18738 0.59645 0.68729 0.0
O296 O 0.2658 0.64947 0.71092 0.0
Zn297 Zn 0.23951 0.64016 0.67341 0.0
O298 O 0.25226 0.61866 0.74419 0.0
Zn299 Zn 0.23106 0.61451 0.70947 0.0
O300 O 0.26114 0.59522 0.68066 0.0
O301 O 0.2652 0.62487 0.64412 0.0
O302 O 0.19897 0.58874 0.71074 0.0
O303 O 0.20047 0.61458 0.67108 0.0
O304 O 0.22282 0.67799 0.66765 0.0
O305 O 0.20882 0.65554 0.70723 0.0
C306 C 0.27228 0.60153 0.65629 0.0
C307 C 0.2074 0.67723 0.69025 0.0
C308 C 0.15394 0.52246 0.40766 0.0
C309 C 0.0781 0.45721 0.43992 0.0
O310 O 0.16046 0.51043 0.43155 0.0
Zn311 Zn 0.14101 0.47977 0.45979 0.0
O312 O 0.13025 0.51628 0.39569 0.0
Zn313 Zn 0.11516 0.48983 0.42415 0.0
O314 O 0.10634 0.51484 0.46242 0.0
O315 O 0.13703 0.50003 0.49524 0.0
O316 O 0.07731 0.47348 0.41793 0.0
O317 O 0.09987 0.45786 0.45684 0.0
O318 O 0.1665 0.44726 0.45973 0.0
O319 O 0.14078 0.45111 0.42018 0.0
C320 C 0.11612 0.51606 0.48819 0.0
C321 C 0.15879 0.43703 0.43563 0.0
C322 C 0.3865 0.48915 0.98894 0.0
C323 C 0.34652 0.56885 0.93533 0.0
O324 O 0.39692 0.49021 0.96339 0.0
Zn325 Zn 0.3892 0.5152 0.92482 0.0
O326 O 0.36557 0.50541 0.9954 0.0
Zn327 Zn 0.36252 0.52555 0.95976 0.0
O328 O 0.34357 0.49473 0.93133 0.0
O329 O 0.37439 0.48883 0.89601 0.0
O330 O 0.33737 0.55848 0.95887 0.0
O331 O 0.36461 0.55445 0.92031 0.0
O332 O 0.42732 0.53127 0.91951 0.0
O333 O 0.404 0.5471 0.95787 0.0
C334 C 0.35051 0.48262 0.90759 0.0
C335 C 0.42613 0.54767 0.94141 0.0
C336 C 0.68794 0.8196 0.91141 0.0
C337 C 0.73919 0.74003 0.86856 0.0
O338 O 0.67202 0.80612 0.89325 0.0
Zn339 Zn 0.67583 0.76718 0.86701 0.0
O340 O 0.71174 0.80866 0.91906 0.0
Zn341 Zn 0.71079 0.7765 0.89371 0.0
O342 O 0.70888 0.79914 0.85276 0.0
O343 O 0.67018 0.78414 0.82943 0.0
O344 O 0.7458 0.75507 0.89031 0.0
O345 O 0.71382 0.74217 0.85803 0.0
O346 O 0.64744 0.73986 0.88068 0.0
O347 O 0.68058 0.74792 0.91343 0.0
C348 C 0.69225 0.80027 0.83077 0.0
C349 C 0.65735 0.73536 0.90564 0.0
C350 C 0.52217 0.40632 0.15405 0.0
C351 C 0.45699 0.44172 0.07938 0.0
O352 O 0.51147 0.43075 0.1609 0.0
Zn353 Zn 0.48179 0.46038 0.14189 0.0
O354 O 0.51514 0.39498 0.13029 0.0
Zn355 Zn 0.4896 0.42455 0.11576 0.0
O356 O 0.51592 0.46185 0.10617 0.0
O357 O 0.50343 0.49495 0.13759 0.0
O358 O 0.47225 0.41902 0.07827 0.0
O359 O 0.4589 0.4586 0.10112 0.0
O360 O 0.44976 0.46185 0.16786 0.0
O361 O 0.45098 0.42224 0.14193 0.0
C362 C 0.51845 0.48749 0.11607 0.0
C363 C 0.43804 0.43842 0.16019 0.0
C364 C 0.76897 0.2681 0.36717 0.0
C365 C 0.81964 0.18693 0.40804 0.0
O366 O 0.79466 0.26643 0.35725 0.0
Zn367 Zn 0.83239 0.24043 0.36565 0.0
O368 O 0.76168 0.25196 0.38793 0.0
Zn369 Zn 0.79664 0.23079 0.39154 0.0
O370 O 0.82557 0.26048 0.41134 0.0
O371 O 0.86154 0.26593 0.38119 0.0
O372 O 0.79608 0.19778 0.41653 0.0
O373 O 0.83541 0.201 0.3903 0.0
O374 O 0.83811 0.22449 0.32754 0.0
O375 O 0.79892 0.20945 0.35003 0.0
C376 C 0.84974 0.27204 0.40498 0.0
C377 C 0.81578 0.20868 0.32821 0.0
C378 C 0.98355 0.59958 0.65549 0.0
C379 C 0.04737 0.56367 0.58026 0.0
O380 O 0.99608 0.57642 0.66352 0.0
Zn381 Zn 0.0247 0.54606 0.64394 0.0
O382 O 0.98822 0.60937 0.63052 0.0
Zn383 Zn 0.01533 0.58081 0.61708 0.0
O384 O 0.99022 0.54271 0.60857 0.0
O385 O 0.00328 0.51098 0.64105 0.0
O386 O 0.03172 0.5861 0.57932 0.0
O387 O 0.04668 0.54733 0.6025 0.0
O388 O 0.05704 0.54534 0.66907 0.0
O389 O 0.05442 0.5848 0.64291 0.0
C390 C 0.9882 0.51739 0.61927 0.0
C391 C 0.06795 0.56907 0.6612 0.0
C392 C 0.69002 0.18754 0.5934 0.0
C393 C 0.74148 0.26763 0.63506 0.0
O394 O 0.67423 0.20118 0.61155 0.0
Zn395 Zn 0.67819 0.24024 0.63741 0.0
O396 O 0.71386 0.19832 0.58566 0.0
Zn397 Zn 0.71304 0.23071 0.6107 0.0
O398 O 0.71161 0.20872 0.65206 0.0
O399 O 0.67274 0.22357 0.67508 0.0
O400 O 0.74793 0.25233 0.61345 0.0
O401 O 0.7162 0.26552 0.64584 0.0
O402 O 0.64965 0.26734 0.6237 0.0
O403 O 0.68267 0.25904 0.59089 0.0
C404 C 0.69511 0.20783 0.67419 0.0
C405 C 0.65946 0.27162 0.59866 0.0
C406 C 0.98865 0.48874 0.8873 0.0
C407 C 0.06931 0.43604 0.84806 0.0
O408 O 0.98987 0.46323 0.89778 0.0
Zn409 Zn 0.01544 0.42497 0.89041 0.0
O410 O 0.00521 0.49541 0.86668 0.0
Zn411 Zn 0.02584 0.46006 0.86397 0.0
O412 O 0.99574 0.43122 0.84456 0.0
O413 O 0.98964 0.39587 0.87532 0.0
O414 O 0.05891 0.45962 0.83907 0.0
O415 O 0.05492 0.42085 0.86604 0.0
O416 O 0.031 0.41968 0.92869 0.0
O417 O 0.04689 0.45822 0.9057 0.0
C418 C 0.98379 0.40735 0.85131 0.0
C419 C 0.04723 0.4417 0.92779 0.0
C420 C 0.81472 0.79511 0.17875 0.0
C421 C 0.84997 0.73305 0.10171 0.0
O422 O 0.79826 0.79507 0.15659 0.0
Zn423 Zn 0.79665 0.77431 0.1146 0.0
O424 O 0.83711 0.77941 0.17918 0.0
Zn425 Zn 0.83179 0.76423 0.14087 0.0
O426 O 0.83572 0.80368 0.11631 0.0
O427 O 0.79664 0.80748 0.0899 0.0
O428 O 0.86097 0.7387 0.12598 0.0
O429 O 0.82594 0.74463 0.09484 0.0
O430 O 0.76147 0.75334 0.11723 0.0
O431 O 0.79375 0.7384 0.1484 0.0
C432 C 0.82045 0.81789 0.09824 0.0
C433 C 0.76823 0.737 0.13799 0.0
C434 C 0.45825 0.56257 0.4261 0.0
C435 C 0.52186 0.59694 0.34962 0.0
O436 O 0.45937 0.54557 0.40438 0.0
Zn437 Zn 0.48097 0.5435 0.36294 0.0
O438 O 0.47337 0.58538 0.42631 0.0
Zn439 Zn 0.48969 0.57955 0.38845 0.0
O440 O 0.45057 0.58194 0.36313 0.0
O441 O 0.44854 0.54216 0.33756 0.0
O442 O 0.51506 0.60896 0.37312 0.0
O443 O 0.51074 0.57255 0.34331 0.0
O444 O 0.50241 0.50887 0.36661 0.0
O445 O 0.5163 0.54211 0.39731 0.0
C446 C 0.4372 0.56576 0.34519 0.0
C447 C 0.51838 0.51641 0.38738 0.0
C448 C 0.9054 0.65784 0.7335 0.0
C449 C 0.83073 0.6938 0.79805 0.0
O450 O 0.9135 0.681 0.74598 0.0
Zn451 Zn 0.89411 0.71149 0.77458 0.0
O452 O 0.88039 0.64813 0.73815 0.0
Zn453 Zn 0.86713 0.67671 0.76536 0.0
O454 O 0.8584 0.71476 0.74034 0.0
O455 O 0.89101 0.74651 0.75306 0.0
O456 O 0.8296 0.67139 0.78238 0.0
O457 O 0.85294 0.71018 0.79699 0.0
O458 O 0.9195 0.71221 0.80675 0.0
O459 O 0.8934 0.67269 0.80407 0.0
C460 C 0.86911 0.74006 0.73816 0.0
C461 C 0.91176 0.68838 0.81756 0.0
C462 C 0.5175 0.61859 0.98651 0.0
C463 C 0.57097 0.6584 0.06658 0.0
O464 O 0.54278 0.60772 0.98797 0.0
Zn465 Zn 0.58124 0.61547 0.01254 0.0
O466 O 0.51141 0.63998 1.00227 0.0
Zn467 Zn 0.54673 0.64234 0.02352 0.0
O468 O 0.57694 0.66273 0.99543 0.0
O469 O 0.60932 0.62978 0.98521 0.0
O470 O 0.54682 0.66654 0.05677 0.0
O471 O 0.58621 0.64058 0.05193 0.0
O472 O 0.58664 0.57733 0.02848 0.0
O473 O 0.54843 0.60063 0.04459 0.0
C474 C 0.59981 0.65512 0.98213 0.0
C475 C 0.56465 0.5783 0.04475 0.0
C476 C 0.6017 0.35074 0.23356 0.0
C477 C 0.67787 0.31656 0.2979 0.0
O478 O 0.59545 0.32639 0.24478 0.0
Zn479 Zn 0.61488 0.29758 0.27474 0.0
O480 O 0.6251 0.36291 0.24048 0.0
Zn481 Zn 0.64049 0.33368 0.26619 0.0
O482 O 0.64977 0.29613 0.23989 0.0
O483 O 0.61897 0.26284 0.25343 0.0
O484 O 0.67835 0.3394 0.28281 0.0
O485 O 0.65608 0.29968 0.29659 0.0
O486 O 0.58935 0.29643 0.30705 0.0
O487 O 0.61505 0.33613 0.30526 0.0
C488 C 0.64004 0.27036 0.23782 0.0
C489 C 0.597 0.31998 0.3185 0.0
C490 C 0.94329 0.42536 0.54846 0.0
C491 C 0.90656 0.35014 0.48488 0.0
O492 O 0.95997 0.4034 0.54699 0.0
Zn493 Zn 0.96105 0.36206 0.52482 0.0
O494 O 0.92038 0.42603 0.53352 0.0
Zn495 Zn 0.92552 0.38837 0.5168 0.0
O496 O 0.92307 0.36269 0.55569 0.0
O497 O 0.96233 0.33628 0.55704 0.0
O498 O 0.89553 0.37407 0.49179 0.0
O499 O 0.931 0.34311 0.49543 0.0
O500 O 0.99549 0.36535 0.50288 0.0
O501 O 0.96276 0.39694 0.4899 0.0
C502 C 0.93899 0.34426 0.56868 0.0
C503 C 0.98821 0.38654 0.48734 0.0
C504 C 0.90533 0.3503 0.77197 0.0
C505 C 0.83129 0.31427 0.70677 0.0
O506 O 0.91246 0.32587 0.76142 0.0
Zn507 Zn 0.8938 0.29593 0.73182 0.0
O508 O 0.88145 0.36134 0.76492 0.0
Zn509 Zn 0.86736 0.33152 0.73954 0.0
O510 O 0.85796 0.29416 0.76586 0.0
O511 O 0.88971 0.26136 0.75349 0.0
O512 O 0.83 0.3369 0.72211 0.0
O513 O 0.8531 0.29746 0.7087 0.0
O514 O 0.91999 0.29459 0.69994 0.0
O515 O 0.89366 0.33396 0.70102 0.0
C516 C 0.86808 0.26861 0.76843 0.0
C517 C 0.91215 0.31794 0.6882 0.0
C518 C 0.93768 0.6603 0.93678 0.0
C519 C 0.98595 0.61638 0.01756 0.0
O520 O 0.92127 0.64223 0.94968 0.0
Zn521 Zn 0.92307 0.61637 0.98851 0.0
O522 O 0.96113 0.66779 0.94852 0.0
Zn523 Zn 0.95937 0.64189 0.98049 0.0
O524 O 0.9571 0.60099 0.95805 0.0
O525 O 0.91723 0.57872 0.97154 0.0
O526 O 0.99378 0.63746 1.00213 0.0
O527 O 0.9602 0.60676 0.01513 0.0
O528 O 0.89361 0.63163 0.01393 0.0
O529 O 0.93027 0.6612 0.01023 0.0
C530 C 0.93999 0.57942 0.95635 0.0
C531 C 0.90578 0.65494 0.02112 0.0
C532 C 0.60162 0.65354 0.27119 0.0
C533 C 0.67752 0.68998 0.20825 0.0
O534 O 0.59442 0.67756 0.25981 0.0
Zn535 Zn 0.61356 0.70725 0.23027 0.0
O536 O 0.62599 0.64287 0.26532 0.0
Zn537 Zn 0.64055 0.67251 0.23995 0.0
O538 O 0.64773 0.71059 0.2659 0.0
O539 O 0.61592 0.7424 0.25134 0.0
O540 O 0.67878 0.66778 0.2242 0.0
O541 O 0.65525 0.70626 0.20892 0.0
O542 O 0.58874 0.70709 0.19719 0.0
O543 O 0.6162 0.66861 0.20035 0.0
C544 C 0.6369 0.73594 0.2675 0.0
C545 C 0.59802 0.68385 0.18628 0.0
C546 C 0.57041 0.34669 0.438 0.0
C547 C 0.51999 0.38883 0.51858 0.0
O548 O 0.58648 0.36467 0.45157 0.0
Zn549 Zn 0.58309 0.39046 0.49088 0.0
O550 O 0.5466 0.33905 0.44894 0.0
Zn551 Zn 0.54793 0.36398 0.48144 0.0
O552 O 0.54989 0.40518 0.45935 0.0
O553 O 0.58874 0.42829 0.47437 0.0
O554 O 0.51319 0.36725 0.50336 0.0
O555 O 0.54537 0.3993 0.51631 0.0
O556 O 0.61166 0.37618 0.51771 0.0
O557 O 0.57839 0.34364 0.50917 0.0
C558 C 0.56654 0.42716 0.4584 0.0
C559 C 0.60173 0.35112 0.52167 0.0
C560 C 0.79792 0.832 0.69375 0.0
C561 C 0.73454 0.90757 0.65763 0.0
O562 O 0.79711 0.85419 0.71016 0.0
Zn563 Zn 0.77515 0.89563 0.71146 0.0
O564 O 0.78213 0.83103 0.67142 0.0
Zn565 Zn 0.76554 0.86875 0.67679 0.0
O566 O 0.80467 0.89458 0.67275 0.0
O567 O 0.8076 0.9206 0.71231 0.0
O568 O 0.73855 0.88237 0.64813 0.0
O569 O 0.74713 0.91549 0.68079 0.0
O570 O 0.75342 0.89309 0.74633 0.0
O571 O 0.74029 0.86044 0.71485 0.0
C572 C 0.81835 0.91278 0.68849 0.0
C573 C 0.73817 0.87139 0.74006 0.0
C574 C 0.23793 0.63811 0.27044 0.0
C575 C 0.3178 0.59361 0.31989 0.0
O576 O 0.24061 0.64823 0.29597 0.0
Zn577 Zn 0.26691 0.63882 0.33329 0.0
O578 O 0.25276 0.61641 0.26312 0.0
Zn579 Zn 0.2744 0.6122 0.2977 0.0
O580 O 0.24454 0.59398 0.32752 0.0
O581 O 0.24136 0.62487 0.36312 0.0
O582 O 0.30599 0.58564 0.29662 0.0
O583 O 0.30522 0.61236 0.33577 0.0
O584 O 0.2847 0.67609 0.33841 0.0
O585 O 0.29779 0.65273 0.29904 0.0
C586 C 0.23401 0.60113 0.35194 0.0
C587 C 0.29997 0.67459 0.31574 0.0
C588 C 0.61893 0.98806 0.51666 0.0
C589 C 0.66156 0.06856 0.56653 0.0
O590 O 0.60847 0.99051 0.54204 0.0
Zn591 Zn 0.61756 0.01611 0.57966 0.0
O592 O 0.64069 1.003 0.50982 0.0
Zn593 Zn 0.64394 0.02508 0.54441 0.0
O594 O 0.66415 0.99734 0.57507 0.0
O595 O 0.63157 0.98937 0.6084 0.0
O596 O 0.66898 0.05742 0.54276 0.0
O597 O 0.64356 0.05521 0.58275 0.0
O598 O 0.57995 0.03286 0.58531 0.0
O599 O 0.60262 0.04717 0.54602 0.0
C600 C 0.65658 0.98509 0.59852 0.0
C601 C 0.58064 0.04826 0.5627 0.0
C602 C 0.2082 0.32673 0.81527 0.0
C603 C 0.27253 0.4019 0.85159 0.0
O604 O 0.20952 0.34893 0.79893 0.0
Zn605 Zn 0.2316 0.39013 0.79773 0.0
O606 O 0.22348 0.32566 0.83795 0.0
Zn607 Zn 0.24049 0.36342 0.83307 0.0
O608 O 0.20202 0.38924 0.83664 0.0
O609 O 0.19906 0.41577 0.79756 0.0
O610 O 0.2662 0.37778 0.8626 0.0
O611 O 0.26138 0.40897 0.82742 0.0
O612 O 0.25302 0.38672 0.76283 0.0
O613 O 0.26646 0.35511 0.79536 0.0
C614 C 0.18838 0.4077 0.82136 0.0
C615 C 0.26855 0.3654 0.76985 0.0
C616 C 0.35259 0.52272 0.60087 0.0
C617 C 0.42846 0.45886 0.56544 0.0
O618 O 0.34547 0.51107 0.57695 0.0
Zn619 Zn 0.36459 0.48092 0.54778 0.0
O620 O 0.37682 0.51675 0.61181 0.0
Zn621 Zn 0.39135 0.49074 0.58271 0.0
O622 O 0.39921 0.51604 0.54438 0.0
O623 O 0.36748 0.50155 0.5124 0.0
O624 O 0.42939 0.4746 0.58783 0.0
O625 O 0.4062 0.45951 0.54914 0.0
O626 O 0.33956 0.44795 0.54819 0.0
O627 O 0.3665 0.4516 0.58693 0.0
C628 C 0.38872 0.51741 0.5189 0.0
C629 C 0.34829 0.43743 0.57182 0.0
C630 C 0.71015 0.17921 0.19052 0.0
C631 C 0.77368 0.10244 0.15639 0.0
O632 O 0.71056 0.15708 0.20699 0.0
Zn633 Zn 0.73149 0.11539 0.20889 0.0
O634 O 0.72592 0.17984 0.16815 0.0
Zn635 Zn 0.74167 0.14155 0.17351 0.0
O636 O 0.70239 0.11684 0.16952 0.0
O637 O 0.69852 0.09046 0.20861 0.0
O638 O 0.76764 0.12625 0.14457 0.0
O639 O 0.76173 0.09592 0.18032 0.0
O640 O 0.75214 0.11835 0.24416 0.0
O641 O 0.76732 0.14928 0.21171 0.0
C642 C 0.68815 0.0988 0.18479 0.0
C643 C 0.76861 0.13898 0.2373 0.0
C644 C 0.61884 0.01998 0.98836 0.0
C645 C 0.66071 0.93891 0.93836 0.0
O646 O 0.60809 0.01735 0.96312 0.0
Zn647 Zn 0.61668 0.99145 0.92557 0.0
O648 O 0.6405 0.00488 0.9951 0.0
Zn649 Zn 0.64339 0.98252 0.96063 0.0
O650 O 0.66333 0.01014 0.92973 0.0
O651 O 0.63054 0.01807 0.89659 0.0
O652 O 0.66838 0.95007 0.96206 0.0
O653 O 0.6426 0.95231 0.92231 0.0
O654 O 0.57897 0.97461 0.92042 0.0
O655 O 0.60211 0.96048 0.95949 0.0
C656 C 0.65562 0.02235 0.90631 0.0
C657 C 0.57997 0.95925 0.94305 0.0
C658 C 0.84943 0.98147 0.40843 0.0
C659 C 0.92573 0.04602 0.44175 0.0
O660 O 0.84268 0.99368 0.43217 0.0
Zn661 Zn 0.86199 0.0245 0.46045 0.0
O662 O 0.87331 0.98748 0.39674 0.0
Zn663 Zn 0.88825 0.01399 0.42531 0.0
O664 O 0.89626 0.98911 0.46396 0.0
O665 O 0.86512 0.00446 0.49611 0.0
O666 O 0.92633 0.02996 0.4196 0.0
O667 O 0.90363 0.04572 0.45829 0.0
O668 O 0.83685 0.05735 0.45971 0.0
O669 O 0.86328 0.053 0.42071 0.0
C670 C 0.88601 0.98819 0.48959 0.0
C671 C 0.84515 0.06738 0.43572 0.0
C672 C 0.09939 0.1909 0.44487 0.0
C673 C 0.1154 0.17239 0.46267 0.0
C674 C 0.11303 0.20988 0.42572 0.0
C675 C 0.1432 0.21163 0.42425 0.0
H676 H 0.07612 0.19047 0.44547 0.0
H677 H 0.09985 0.22362 0.41233 0.0
S678 S 0.19493 0.16814 0.46658 0.0
N679 N 0.16305 0.15695 0.47747 0.0
N680 N 0.18864 0.19318 0.44224 0.0
C681 C 0.15943 0.19344 0.44212 0.0
C682 C 0.14556 0.17366 0.4611 0.0
C683 C 0.07961 0.89281 0.71107 0.0
C684 C 0.08099 0.86266 0.71313 0.0
C685 C 0.06017 0.90633 0.69234 0.0
C686 C 0.04191 0.89022 0.67436 0.0
H687 H 0.09332 0.90609 0.72441 0.0
H688 H 0.05968 0.9296 0.6917 0.0
S689 S 0.03762 0.81064 0.67096 0.0
N690 N 0.06247 0.81709 0.69547 0.0
N691 N 0.02663 0.84246 0.65968 0.0
C692 C 0.04339 0.86006 0.67588 0.0
C693 C 0.0627 0.8463 0.69543 0.0
C694 C 0.36423 0.83002 0.96057 0.0
C695 C 0.39437 0.8316 0.9625 0.0
C696 C 0.35078 0.81087 0.94148 0.0
C697 C 0.36696 0.79316 0.92303 0.0
H698 H 0.35091 0.8433 0.9743 0.0
H699 H 0.32752 0.81017 0.94095 0.0
S700 S 0.44653 0.78964 0.91913 0.0
N701 N 0.44 0.8139 0.94421 0.0
N702 N 0.41476 0.77862 0.90776 0.0
C703 C 0.3971 0.79488 0.92442 0.0
C704 C 0.41079 0.81388 0.94431 0.0
C705 C 0.41675 0.13453 0.18631 0.0
C706 C 0.42538 0.14174 0.21437 0.0
C707 C 0.43603 0.1217 0.16692 0.0
C708 C 0.46423 0.11477 0.1753 0.0
H709 H 0.39512 0.13935 0.17915 0.0
H710 H 0.42869 0.11669 0.1454 0.0
S711 S 0.49704 0.12865 0.24655 0.0
N712 N 0.46398 0.14128 0.24948 0.0
N713 N 0.49973 0.11578 0.21355 0.0
C714 C 0.47294 0.12144 0.20343 0.0
C715 C 0.45362 0.13533 0.22284 0.0
C716 C 0.1358 0.78472 0.05531 0.0
C717 C 0.14174 0.79299 0.08378 0.0
C718 C 0.122 0.80361 0.03617 0.0
C719 C 0.11473 0.83172 0.04457 0.0
H720 H 0.14143 0.76336 0.04794 0.0
H721 H 0.11739 0.79633 0.01453 0.0
S722 S 0.12631 0.864 0.11647 0.0
N723 N 0.13916 0.83103 0.11945 0.0
N724 N 0.11458 0.86695 0.08308 0.0
C725 C 0.12098 0.84037 0.07281 0.0
C726 C 0.13413 0.82087 0.09254 0.0
C727 C 0.43658 0.88413 0.3387 0.0
C728 C 0.4646 0.89143 0.33005 0.0
C729 C 0.41751 0.87043 0.3197 0.0
C730 C 0.42621 0.86269 0.29181 0.0
H731 H 0.42919 0.88952 0.36012 0.0
H732 H 0.396 0.8654 0.32705 0.0
S733 S 0.49753 0.87644 0.2591 0.0
N734 N 0.50004 0.89017 0.29176 0.0
N735 N 0.46472 0.86307 0.25657 0.0
C736 C 0.45431 0.86945 0.28309 0.0
C737 C 0.47338 0.88422 0.30209 0.0
C738 C 0.37228 0.18561 0.58902 0.0
C739 C 0.3645 0.21356 0.58049 0.0
C740 C 0.38523 0.16643 0.56958 0.0
C741 C 0.39171 0.17494 0.54132 0.0
H742 H 0.36785 0.17836 0.6107 0.0
H743 H 0.39071 0.14501 0.57687 0.0
S744 S 0.37628 0.24594 0.50867 0.0
N745 N 0.36395 0.24867 0.54187 0.0
N746 N 0.38966 0.21315 0.50584 0.0
C747 C 0.38444 0.20294 0.53269 0.0
C748 C 0.37044 0.22212 0.55216 0.0
C749 C 0.06426 0.1553 0.81057 0.0
C750 C 0.08233 0.13909 0.7925 0.0
C751 C 0.0456 0.14188 0.83019 0.0
C752 C 0.04372 0.11173 0.8319 0.0
H753 H 0.06477 0.17857 0.8098 0.0
H754 H 0.03217 0.15522 0.84374 0.0
S755 S 0.08619 0.05949 0.78909 0.0
N756 N 0.09729 0.09124 0.77776 0.0
N757 N 0.06165 0.06606 0.81388 0.0
C758 C 0.06152 0.09528 0.8138 0.0
C759 C 0.08099 0.10894 0.79433 0.0
C760 C 0.21098 0.42732 0.11371 0.0
C761 C 0.21246 0.42511 0.14383 0.0
C762 C 0.19165 0.4463 0.10039 0.0
C763 C 0.1725 0.46318 0.11664 0.0
H764 H 0.22524 0.41468 0.10033 0.0
H765 H 0.19149 0.44751 0.07714 0.0
S766 S 0.1672 0.46476 0.1962 0.0
N767 N 0.19298 0.44129 0.18954 0.0
N768 N 0.15609 0.47622 0.1645 0.0
C769 C 0.17344 0.46081 0.14676 0.0
C770 C 0.19358 0.442 0.16035 0.0
C771 C 0.68603 0.08887 0.87014 0.0
C772 C 0.71423 0.08048 0.86323 0.0
C773 C 0.66689 0.06965 0.88344 0.0
C774 C 0.67567 0.04178 0.89117 0.0
H775 H 0.67858 0.11029 0.86481 0.0
H776 H 0.64527 0.07683 0.88826 0.0
S777 S 0.74741 0.00965 0.8783 0.0
N778 N 0.74989 0.0424 0.86479 0.0
N779 N 0.71442 0.00681 0.89115 0.0
C780 C 0.70392 0.03329 0.88473 0.0
C781 C 0.72308 0.05251 0.87037 0.0
C782 C 0.80907 0.93931 0.35109 0.0
C783 C 0.79069 0.92148 0.36722 0.0
C784 C 0.82835 0.95826 0.36457 0.0
C785 C 0.82944 0.9607 0.3947 0.0
H786 H 0.80879 0.9384 0.32782 0.0
H787 H 0.84214 0.97147 0.35125 0.0
S788 S 0.78563 0.91907 0.44677 0.0
N789 N 0.77498 0.90736 0.415 0.0
N790 N 0.8105 0.94356 0.44028 0.0
C791 C 0.81103 0.94315 0.41108 0.0
C792 C 0.79188 0.92338 0.39737 0.0
C793 C 0.81477 0.06063 0.09936 0.0
C794 C 0.83306 0.04288 0.11568 0.0
C795 C 0.79603 0.08025 0.11264 0.0
C796 C 0.79428 0.08227 0.14277 0.0
H797 H 0.81517 0.0596 0.0761 0.0
H798 H 0.78242 0.09354 0.09922 0.0
S799 S 0.83736 0.04044 0.19527 0.0
N800 N 0.84839 0.02882 0.16359 0.0
N801 N 0.81258 0.06494 0.18854 0.0
C802 C 0.81231 0.06451 0.15933 0.0
C803 C 0.83186 0.04504 0.1458 0.0
C804 C 0.29466 0.57936 0.61249 0.0
C805 C 0.29321 0.58169 0.64261 0.0
C806 C 0.31372 0.56005 0.59919 0.0
C807 C 0.33263 0.54292 0.61547 0.0
H808 H 0.28057 0.59216 0.59908 0.0
H809 H 0.31386 0.55877 0.57594 0.0
S810 S 0.33793 0.54151 0.69503 0.0
N811 N 0.3125 0.56534 0.68833 0.0
N812 N 0.34885 0.52979 0.66336 0.0
C813 C 0.33173 0.54541 0.64558 0.0
C814 C 0.31187 0.56456 0.65913 0.0
C815 C 0.19523 0.56381 0.35051 0.0
C816 C 0.21344 0.58174 0.36672 0.0
C817 C 0.17566 0.54513 0.36389 0.0
C818 C 0.17408 0.5431 0.39402 0.0
H819 H 0.19591 0.56439 0.32724 0.0
H820 H 0.16205 0.53177 0.35052 0.0
S821 S 0.2171 0.58526 0.44631 0.0
N822 N 0.22836 0.59649 0.41457 0.0
N823 N 0.19225 0.56079 0.43971 0.0
C824 C 0.19224 0.5608 0.4105 0.0
C825 C 0.2117 0.58029 0.39687 0.0
C826 C 0.32953 0.45934 0.8637 0.0
C827 C 0.33078 0.46162 0.89384 0.0
C828 C 0.31048 0.44014 0.85024 0.0
C829 C 0.29255 0.42189 0.8664 0.0
H830 H 0.34301 0.47288 0.85038 0.0
H831 H 0.31003 0.43937 0.82697 0.0
S832 S 0.2881 0.4189 0.94596 0.0
N833 N 0.31249 0.44387 0.93945 0.0
N834 N 0.27744 0.40719 0.9142 0.0
C835 C 0.29393 0.42362 0.89655 0.0
C836 C 0.31281 0.44365 0.91024 0.0
C837 C 0.62074 0.6683 0.93444 0.0
C838 C 0.61472 0.67572 0.96311 0.0
C839 C 0.63402 0.68799 0.91575 0.0
C840 C 0.64261 0.71533 0.92543 0.0
H841 H 0.61466 0.64736 0.92627 0.0
H842 H 0.63806 0.68159 0.89373 0.0
S843 S 0.63229 0.74476 0.99874 0.0
N844 N 0.61808 0.71224 1.00024 0.0
N845 N 0.64439 0.74866 0.96557 0.0
C846 C 0.63712 0.72277 0.95417 0.0
C847 C 0.62279 0.7031 0.9729 0.0
C848 C 0.57974 0.39457 0.21103 0.0
C849 C 0.58169 0.36444 0.21279 0.0
C850 C 0.56027 0.4079 0.19217 0.0
C851 C 0.54255 0.39164 0.17377 0.0
H852 H 0.59296 0.40798 0.22473 0.0
H853 H 0.55931 0.43117 0.19179 0.0
S854 S 0.54 0.31202 0.16941 0.0
N855 N 0.56438 0.31871 0.19432 0.0
N856 N 0.5285 0.34373 0.15836 0.0
C857 C 0.54466 0.3615 0.17498 0.0
C858 C 0.56401 0.34792 0.19463 0.0
C859 C 0.90753 0.3125 0.44636 0.0
C860 C 0.89156 0.33056 0.46465 0.0
C861 C 0.89387 0.294 0.42678 0.0
C862 C 0.86371 0.29227 0.42531 0.0
H863 H 0.93081 0.31294 0.44688 0.0
H864 H 0.90705 0.2806 0.41303 0.0
S865 S 0.81203 0.3347 0.46882 0.0
N866 N 0.84392 0.34561 0.47993 0.0
N867 N 0.81829 0.31027 0.44383 0.0
C868 C 0.84749 0.31002 0.44367 0.0
C869 C 0.8614 0.32931 0.46312 0.0
C870 C 0.95282 0.63519 0.72223 0.0
C871 C 0.92494 0.64288 0.71345 0.0
C872 C 0.97158 0.62071 0.70347 0.0
C873 C 0.96342 0.61447 0.67504 0.0
H874 H 0.95998 0.64 0.74385 0.0
H875 H 0.99278 0.6148 0.7111 0.0
S876 S 0.89302 0.63069 0.64152 0.0
N877 N 0.89002 0.64303 0.67469 0.0
N878 N 0.92576 0.61718 0.63901 0.0
C879 C 0.93578 0.62246 0.66593 0.0
C880 C 0.91639 0.63632 0.68527 0.0
C881 C 0.62244 0.33827 0.5695 0.0
C882 C 0.6167 0.33073 0.54081 0.0
C883 C 0.63575 0.31874 0.58832 0.0
C884 C 0.64462 0.29146 0.57876 0.0
H885 H 0.61614 0.35919 0.57757 0.0
H886 H 0.6396 0.32523 0.61035 0.0
S887 S 0.63496 0.26174 0.50547 0.0
N888 N 0.62053 0.29415 0.5038 0.0
N889 N 0.6469 0.25802 0.53871 0.0
C890 C 0.63938 0.28389 0.55 0.0
C891 C 0.62503 0.30339 0.53113 0.0
C892 C 0.94283 0.34943 0.81062 0.0
C893 C 0.92488 0.36536 0.79219 0.0
C894 C 0.96145 0.36315 0.83003 0.0
C895 C 0.96341 0.39332 0.83118 0.0
H896 H 0.94224 0.32615 0.81029 0.0
H897 H 0.97477 0.35002 0.84388 0.0
S898 S 0.92129 0.44489 0.78728 0.0
N899 N 0.91013 0.41296 0.7765 0.0
N900 N 0.94571 0.4387 0.81227 0.0
C901 C 0.94575 0.40949 0.81272 0.0
C902 C 0.92632 0.39553 0.79344 0.0
C903 C 0.84844 0.69599 0.0626 0.0
C904 C 0.86465 0.71323 0.08148 0.0
C905 C 0.86185 0.67683 0.04348 0.0
C906 C 0.89199 0.67477 0.04196 0.0
H907 H 0.82518 0.69702 0.06287 0.0
H908 H 0.84851 0.66388 0.02945 0.0
S909 S 0.9442 0.71552 0.08644 0.0
N910 N 0.91246 0.7269 0.09749 0.0
N911 N 0.93763 0.69161 0.06104 0.0
C912 C 0.90843 0.69208 0.06053 0.0
C913 C 0.89478 0.71109 0.08043 0.0
C914 C 0.5438 0.64103 0.32767 0.0
C915 C 0.54248 0.61087 0.32966 0.0
C916 C 0.56274 0.65462 0.30847 0.0
C917 C 0.58166 0.6386 0.29111 0.0
H918 H 0.52974 0.65424 0.34071 0.0
H919 H 0.56282 0.67789 0.3075 0.0
S920 S 0.58719 0.55906 0.28865 0.0
N921 N 0.56181 0.56539 0.31265 0.0
N922 N 0.59798 0.59092 0.2773 0.0
C923 C 0.58084 0.60844 0.29319 0.0
C924 C 0.5611 0.59459 0.31224 0.0
C925 C 0.68682 0.9192 0.63595 0.0
C926 C 0.71514 0.92755 0.64242 0.0
C927 C 0.66776 0.9382 0.62224 0.0
C928 C 0.67673 0.96577 0.61367 0.0
H929 H 0.67922 0.89803 0.64199 0.0
H930 H 0.64602 0.9311 0.61786 0.0
S931 S 0.74886 0.99759 0.62508 0.0
N932 N 0.75115 0.96521 0.6395 0.0
N933 N 0.71581 1.00036 0.61238 0.0
C934 C 0.70511 0.97416 0.6196 0.0
C935 C 0.7242 0.95519 0.63437 0.0
C936 C 0.22577 0.35878 0.28905 0.0
C937 C 0.22224 0.35154 0.25988 0.0
C938 C 0.21499 0.3412 0.3109 0.0
C939 C 0.19983 0.31583 0.30459 0.0
H940 H 0.23818 0.37749 0.29525 0.0
H941 H 0.21921 0.34722 0.333 0.0
S942 S 0.18153 0.28873 0.23196 0.0
N943 N 0.20021 0.31831 0.2259 0.0
N944 N 0.17959 0.28548 0.26726 0.0
C945 C 0.19436 0.30923 0.27565 0.0
C946 C 0.20566 0.32703 0.25324 0.0
C947 C 0.92732 0.95755 0.50596 0.0
C948 C 0.90117 0.97158 0.51231 0.0
C949 C 0.9448 0.94633 0.52787 0.0
C950 C 0.93688 0.94906 0.55684 0.0
H951 H 0.93506 0.95636 0.48404 0.0
H952 H 0.96532 0.9369 0.52218 0.0
S953 S 0.86865 0.97918 0.5849 0.0
N954 N 0.86669 0.98392 0.54979 0.0
N955 N 0.89984 0.96333 0.59071 0.0
C956 C 0.91004 0.96118 0.5634 0.0
C957 C 0.89208 0.97227 0.54119 0.0
C958 C 0.29266 0.66513 0.80975 0.0
C959 C 0.30824 0.69024 0.80353 0.0
C960 C 0.28144 0.64791 0.78785 0.0
C961 C 0.28492 0.65532 0.75871 0.0
H962 H 0.28843 0.65904 0.83184 0.0
H963 H 0.26876 0.62938 0.794 0.0
S964 S 0.32646 0.71765 0.731 0.0
N965 N 0.32872 0.72057 0.76631 0.0
N966 N 0.30723 0.68844 0.72483 0.0
C967 C 0.30185 0.6796 0.75213 0.0
C968 C 0.31362 0.697 0.77461 0.0
C969 C 0.57626 0.04897 0.00444 0.0
C970 C 0.60345 0.03699 0.01062 0.0
C971 C 0.55869 0.06011 0.02632 0.0
C972 C 0.56761 0.05936 0.05511 0.0
H973 H 0.5678 0.04845 0.98276 0.0
H974 H 0.53738 0.06776 0.02087 0.0
S975 S 0.63855 0.03543 0.08236 0.0
N976 N 0.63982 0.02905 0.04748 0.0
N977 N 0.60651 0.04938 0.08841 0.0
C978 C 0.59542 0.04947 0.06137 0.0
C979 C 0.61345 0.03848 0.03916 0.0
C980 C 0.21394 0.66408 0.19726 0.0
C981 C 0.19891 0.68955 0.20345 0.0
C982 C 0.2247 0.64659 0.21918 0.0
C983 C 0.22128 0.65404 0.24831 0.0
H984 H 0.2181 0.65791 0.17519 0.0
H985 H 0.23702 0.62781 0.21307 0.0
S986 S 0.18095 0.71718 0.27599 0.0
N987 N 0.17893 0.72023 0.24068 0.0
N988 N 0.19953 0.68756 0.28216 0.0
C989 C 0.20486 0.67867 0.25486 0.0
C990 C 0.19358 0.69637 0.23237 0.0
C991 C 0.6097 0.97679 0.46508 0.0
C992 C 0.60311 0.97184 0.49419 0.0
C993 C 0.59199 0.96644 0.44312 0.0
C994 C 0.56717 0.95033 0.44925 0.0
H995 H 0.62793 0.98998 0.4591 0.0
H996 H 0.59749 0.97173 0.42111 0.0
S997 S 0.54196 0.92839 0.52158 0.0
N998 N 0.57114 0.94762 0.52784 0.0
N999 N 0.53807 0.9278 0.4863 0.0
C1000 C 0.56124 0.94356 0.47807 0.0
C1001 C 0.57914 0.95442 0.50059 0.0
C1002 C 0.29245 0.34034 0.69631 0.0
C1003 C 0.3077 0.31492 0.7022 0.0
C1004 C 0.28167 0.35758 0.71844 0.0
C1005 C 0.28532 0.34994 0.74748 0.0
H1006 H 0.2881 0.34663 0.67431 0.0
H1007 H 0.26915 0.3763 0.71256 0.0
S1008 S 0.32634 0.28689 0.77438 0.0
N1009 N 0.32816 0.28413 0.73904 0.0
N1010 N 0.30759 0.31632 0.78091 0.0
C1011 C 0.30203 0.3254 0.75372 0.0
C1012 C 0.3133 0.30795 0.73102 0.0
C1013 C 0.93041 0.04731 1.00279 0.0
C1014 C 0.90349 0.03468 0.99669 0.0
C1015 C 0.94778 0.05861 0.98082 0.0
C1016 C 0.93892 0.05738 0.95202 0.0
H1017 H 0.93884 0.04721 0.02449 0.0
H1018 H 0.96891 0.06678 0.98622 0.0
S1019 S 0.86854 0.03163 0.92493 0.0
N1020 N 0.86736 0.02557 0.95987 0.0
N1021 N 0.90029 0.0462 0.91879 0.0
C1022 C 0.91134 0.04681 0.94583 0.0
C1023 C 0.89352 0.03565 0.96812 0.0
C1024 C 0.27711 0.19617 0.30952 0.0
C1025 C 0.30596 0.19801 0.31811 0.0
C1026 C 0.2551 0.20737 0.32689 0.0
C1027 C 0.26123 0.22051 0.35355 0.0
H1028 H 0.27166 0.18757 0.28857 0.0
H1029 H 0.23334 0.20698 0.31864 0.0
S1030 S 0.33323 0.22532 0.38782 0.0
N1031 N 0.33934 0.21028 0.35628 0.0
N1032 N 0.29821 0.23084 0.3892 0.0
C1033 C 0.2899 0.22018 0.36329 0.0
C1034 C 0.31222 0.20909 0.34547 0.0
C1035 C 0.04777 1.0025 0.57506 0.0
C1036 C 0.03596 0.0088 0.60229 0.0
C1037 C 0.05896 0.02432 0.55743 0.0
C1038 C 0.05837 0.05314 0.56633 0.0
H1039 H 0.04709 0.98081 0.56663 0.0
H1040 H 0.06654 0.01883 0.5361 0.0
S1041 S 0.03484 0.08064 0.6373 0.0
N1042 N 0.02839 0.04577 0.63867 0.0
N1043 N 0.04861 0.08657 0.60517 0.0
C1044 C 0.04859 0.0595 0.59415 0.0
C1045 C 0.03764 0.03737 0.61225 0.0
C1046 C 0.19661 0.79212 0.84147 0.0
C1047 C 0.20232 0.80764 0.81619 0.0
C1048 C 0.21885 0.78159 0.85869 0.0
C1049 C 0.24786 0.78574 0.85113 0.0
H1050 H 0.17466 0.7874 0.8477 0.0
H1051 H 0.21311 0.76887 0.87732 0.0
S1052 S 0.27428 0.82752 0.7884 0.0
N1053 N 0.23892 0.82885 0.7856 0.0
N1054 N 0.28103 0.80868 0.81772 0.0
C1055 C 0.2539 0.80266 0.82671 0.0
C1056 C 0.23108 0.81371 0.8093 0.0
C1057 C 0.4776 0.96676 0.10979 0.0
C1058 C 0.47212 0.99577 0.10323 0.0
C1059 C 0.46672 0.9446 0.09265 0.0
C1060 C 0.44959 0.95043 0.06843 0.0
H1061 H 0.4916 0.96103 0.12749 0.0
H1062 H 0.47248 0.92268 0.09802 0.0
S1063 S 0.42585 0.02239 0.04383 0.0
N1064 N 0.44619 0.029 0.07216 0.0
N1065 N 0.4255 0.98709 0.04012 0.0
C1066 C 0.44227 0.97914 0.06266 0.0
C1067 C 0.45362 1.00186 0.08 0.0
C1068 C 0.27805 0.80725 0.1977 0.0
C1069 C 0.30685 0.80466 0.18915 0.0
C1070 C 0.2558 0.79651 0.18038 0.0
C1071 C 0.26158 0.78311 0.15377 0.0
H1072 H 0.27278 0.81616 0.21856 0.0
H1073 H 0.23405 0.79756 0.18861 0.0
S1074 S 0.33341 0.77639 0.11952 0.0
N1075 N 0.33991 0.79138 0.151 0.0
N1076 N 0.29827 0.77168 0.11818 0.0
C1077 C 0.29024 0.78264 0.14405 0.0
C1078 C 0.31284 0.79325 0.16184 0.0
C1079 C 0.45758 0.00555 0.4276 0.0
C1080 C 0.47098 0.01175 0.40109 0.0
C1081 C 0.44635 0.02751 0.44501 0.0
C1082 C 0.44841 0.05641 0.43663 0.0
H1083 H 0.45694 0.98373 0.43568 0.0
H1084 H 0.43751 0.02197 0.46583 0.0
S1085 S 0.47666 0.08398 0.3674 0.0
N1086 N 0.48196 0.04892 0.36583 0.0
N1087 N 0.46131 0.08998 0.3988 0.0
C1088 C 0.45983 0.06278 0.40942 0.0
C1089 C 0.47095 0.0405 0.39155 0.0
C1090 C 0.19454 0.21516 0.66386 0.0
C1091 C 0.20058 0.19782 0.68788 0.0
C1092 C 0.21655 0.22615 0.64659 0.0
C1093 C 0.24561 0.22059 0.65283 0.0
H1094 H 0.17258 0.22095 0.65871 0.0
H1095 H 0.21067 0.2403 0.62906 0.0
S1096 S 0.27275 0.17388 0.71165 0.0
N1097 N 0.23749 0.17351 0.71567 0.0
N1098 N 0.2791 0.19443 0.68341 0.0
C1099 C 0.2519 0.20192 0.67587 0.0
C1100 C 0.22934 0.19046 0.69334 0.0
C1101 C 0.05901 0.97885 0.94857 0.0
C1102 C 0.0578 0.95001 0.93979 0.0
C1103 C 0.04767 1.00076 0.93119 0.0
C1104 C 0.035 0.99457 0.90432 0.0
H1105 H 0.06725 0.98432 0.96965 0.0
H1106 H 0.04756 0.02249 0.93957 0.0
S1107 S 0.03203 0.92272 0.86949 0.0
N1108 N 0.04665 0.91666 0.90123 0.0
N1109 N 0.02589 0.95766 0.86827 0.0
C1110 C 0.03597 0.96597 0.8944 0.0
C1111 C 0.04719 0.94373 0.91224 0.0
C1112 C 0.34283 0.31183 0.21494 0.0
C1113 C 0.31807 0.30605 0.19864 0.0
C1114 C 0.35987 0.28961 0.22582 0.0
C1115 C 0.35261 0.2606 0.22124 0.0
H1116 H 0.34875 0.33379 0.22002 0.0
H1117 H 0.37809 0.29537 0.23912 0.0
S1118 S 0.2913 0.23405 0.1775 0.0
N1119 N 0.28831 0.26941 0.17634 0.0
N1120 N 0.3201 0.22736 0.19713 0.0
C1121 C 0.32872 0.25451 0.2036 0.0
C1122 C 0.31152 0.2773 0.1922 0.0
C1123 C 0.84262 0.19523 0.79245 0.0
C1124 C 0.81697 0.20121 0.80723 0.0
C1125 C 0.86 0.21731 0.78179 0.0
C1126 C 0.85224 0.24639 0.78506 0.0
H1127 H 0.84901 0.1732 0.78837 0.0
H1128 H 0.87895 0.21134 0.76967 0.0
S1129 S 0.78843 0.27352 0.82467 0.0
N1130 N 0.78573 0.23818 0.82679 0.0
N1131 N 0.81816 0.27995 0.80638 0.0
C1132 C 0.8274 0.25273 0.80124 0.0
C1133 C 0.80983 0.23008 0.81243 0.0
C1134 C 0.03687 0.60817 0.03202 0.0
C1135 C 0.00772 0.60056 0.03475 0.0
C1136 C 0.05862 0.59077 0.04321 0.0
C1137 C 0.05221 0.56524 0.05801 0.0
H1138 H 0.04319 0.62703 0.0199 0.0
H1139 H 0.08076 0.59704 0.03955 0.0
S1140 S 0.97949 0.53721 0.07436 0.0
N1141 N 0.97356 0.56683 0.05572 0.0
N1142 N 0.01476 0.53434 0.07716 0.0
C1143 C 0.02324 0.55828 0.06276 0.0
C1144 C 1.00092 0.57589 0.05102 0.0
C1145 C 0.67762 0.75243 0.29888 0.0
C1146 C 0.65144 0.75856 0.28482 0.0
C1147 C 0.69458 0.77445 0.31071 0.0
C1148 C 0.68607 0.80331 0.30859 0.0
H1149 H 0.68582 0.73065 0.29958 0.0
H1150 H 0.7152 0.76899 0.32005 0.0
S1151 S 0.61749 0.83064 0.27867 0.0
N1152 N 0.61626 0.79561 0.27315 0.0
N1153 N 0.64845 0.83673 0.29487 0.0
C1154 C 0.65917 0.80958 0.29648 0.0
C1155 C 0.64173 0.78726 0.28477 0.0
C1156 C 1.00153 0.928 0.04923 0.0
C1157 C 0.99529 0.90171 0.03538 0.0
C1158 C 0.97959 0.94543 0.06043 0.0
C1159 C 0.95066 0.93732 0.05787 0.0
H1160 H 0.0234 0.93589 0.05031 0.0
H1161 H 0.9852 0.96605 0.06969 0.0
S1162 S 0.92293 0.86863 0.02842 0.0
N1163 N 0.95802 0.86687 0.02349 0.0
N1164 N 0.91698 0.89991 0.04405 0.0
C1165 C 0.94422 0.91031 0.04599 0.0
C1166 C 0.96649 0.89241 0.03491 0.0
C1167 C 0.19624 0.72957 0.69605 0.0
C1168 C 0.18743 0.70075 0.6975 0.0
C1169 C 0.17917 0.75154 0.70784 0.0
C1170 C 0.15263 0.7454 0.72122 0.0
H1171 H 0.21713 0.73498 0.68732 0.0
H1172 H 0.18758 0.77325 0.70772 0.0
S1173 S 0.11791 0.67354 0.72534 0.0
N1174 N 0.1492 0.66745 0.70978 0.0
N1175 N 0.11685 0.70849 0.73142 0.0
C1176 C 0.14268 0.7168 0.72055 0.0
C1177 C 0.16018 0.69453 0.70886 0.0
C1178 C 0.00399 0.42904 0.45803 0.0
C1179 C 0.01015 0.40174 0.46976 0.0
C1180 C 0.02583 0.44641 0.44646 0.0
C1181 C 0.05452 0.43713 0.44651 0.0
H1182 H 0.98244 0.43776 0.45915 0.0
H1183 H 0.02049 0.46786 0.43913 0.0
S1184 S 0.08151 0.3658 0.46949 0.0
N1185 N 0.04677 0.36489 0.47667 0.0
N1186 N 0.0876 0.39782 0.45549 0.0
C1187 C 0.06068 0.4092 0.45607 0.0
C1188 C 0.03853 0.3914 0.46752 0.0
C1189 C 0.47846 0.5594 0.94593 0.0
C1190 C 0.44961 0.56786 0.94827 0.0
C1191 C 0.50059 0.57684 0.95677 0.0
C1192 C 0.49463 0.6035 0.97003 0.0
H1193 H 0.48385 0.53851 0.93716 0.0
H1194 H 0.52237 0.56868 0.95596 0.0
S1195 S 0.42262 0.63751 0.97614 0.0
N1196 N 0.41635 0.60594 0.96123 0.0
N1197 N 0.45773 0.63901 0.98104 0.0
C1198 C 0.46593 0.61312 0.97023 0.0
C1199 C 0.44347 0.59521 0.95954 0.0
C1200 C 0.69711 0.81221 0.77855 0.0
C1201 C 0.69928 0.82057 0.80745 0.0
C1202 C 0.7082 0.82968 0.75657 0.0
C1203 C 0.72153 0.85623 0.76275 0.0
H1204 H 0.6883 0.79137 0.77302 0.0
H1205 H 0.70749 0.82162 0.73474 0.0
S1206 S 0.72743 0.88985 0.835 0.0
N1207 N 0.71221 0.85838 0.84101 0.0
N1208 N 0.73257 0.89149 0.79993 0.0
C1209 C 0.7216 0.86573 0.79151 0.0
C1210 C 0.71064 0.8478 0.81381 0.0
C1211 C 0.44475 0.44653 0.02721 0.0
C1212 C 0.43674 0.44917 0.05617 0.0
C1213 C 0.42745 0.45804 0.0053 0.0
C1214 C 0.40142 0.47229 0.01163 0.0
H1215 H 0.46523 0.437 0.02155 0.0
H1216 H 0.43527 0.45691 0.9834 0.0
S1217 S 0.36871 0.47981 0.08414 0.0
N1218 N 0.3997 0.4636 0.08997 0.0
N1219 N 0.36692 0.48475 0.04905 0.0
C1220 C 0.39221 0.47289 0.04047 0.0
C1221 C 0.40997 0.46149 0.06268 0.0
C1222 C 0.81005 0.19788 0.27582 0.0
C1223 C 0.80887 0.18878 0.30455 0.0
C1224 C 0.79861 0.18073 0.25375 0.0
C1225 C 0.78589 0.15382 0.2597 0.0
H1226 H 0.81825 0.21904 0.27058 0.0
H1227 H 0.79842 0.18935 0.23213 0.0
S1228 S 0.783 0.11827 0.33118 0.0
N1229 N 0.79767 0.14994 0.33752 0.0
N1230 N 0.77684 0.11738 0.29624 0.0
C1231 C 0.78696 0.14359 0.28817 0.0
C1232 C 0.79824 0.16119 0.31056 0.0
C1233 C 0.09175 0.54038 0.56187 0.0
C1234 C 0.06639 0.55573 0.5561 0.0
C1235 C 0.10868 0.52933 0.53963 0.0
C1236 C 0.10071 0.53276 0.51064 0.0
H1237 H 0.09826 0.53624 0.58385 0.0
H1238 H 0.12747 0.51686 0.5454 0.0
S1239 S 0.03722 0.57331 0.4841 0.0
N1240 N 0.03502 0.57564 0.51945 0.0
N1241 N 0.06658 0.55453 0.4774 0.0
C1242 C 0.07609 0.54937 0.50453 0.0
C1243 C 0.05899 0.56093 0.52731 0.0
C1244 C 0.72001 0.16417 0.69248 0.0
C1245 C 0.70266 0.18827 0.69813 0.0
C1246 C 0.73021 0.1467 0.71471 0.0
C1247 C 0.72383 0.15283 0.74363 0.0
H1248 H 0.72637 0.15906 0.67066 0.0
H1249 H 0.74438 0.12908 0.70915 0.0
S1250 S 0.67685 0.2119 0.76974 0.0
N1251 N 0.67753 0.21609 0.7345 0.0
N1252 N 0.697 0.18347 0.77652 0.0
C1253 C 0.70521 0.17602 0.74951 0.0
C1254 C 0.69455 0.19367 0.72671 0.0
C1255 C 0.05797 0.44677 0.98028 0.0
C1256 C 0.06703 0.44858 0.95157 0.0
C1257 C 0.07512 0.45772 1.0026 0.0
C1258 C 0.10204 0.47054 0.99694 0.0
H1259 H 0.03685 0.43838 0.98538 0.0
H1260 H 0.06651 0.45741 0.02423 0.0
S1261 S 0.13754 0.47504 0.92551 0.0
N1262 N 0.10588 0.46052 0.91885 0.0
N1263 N 0.13844 0.48043 0.96058 0.0
C1264 C 0.11224 0.47014 0.96843 0.0
C1265 C 0.09462 0.45937 0.94579 0.0
C1266 C 0.78349 0.85745 0.22014 0.0
C1267 C 0.78447 0.84802 0.24889 0.0
C1268 C 0.79436 0.84056 0.19779 0.0
C1269 C 0.80715 0.81377 0.20325 0.0
H1270 H 0.77303 0.87748 0.21454 0.0
H1271 H 0.79208 0.84824 0.17592 0.0
S1272 S 0.81767 0.78006 0.27461 0.0
N1273 N 0.80111 0.81067 0.28165 0.0
N1274 N 0.82204 0.77923 0.23939 0.0
C1275 C 0.81 0.80475 0.23189 0.0
C1276 C 0.79854 0.8218 0.25478 0.0
C1277 C 0.39717 0.52804 0.46703 0.0
C1278 C 0.40399 0.5336 0.49598 0.0
C1279 C 0.4144 0.53839 0.4447 0.0
C1280 C 0.43894 0.55513 0.45025 0.0
H1281 H 0.37917 0.51437 0.46147 0.0
H1282 H 0.40877 0.53261 0.42284 0.0
S1283 S 0.46454 0.57877 0.52189 0.0
N1284 N 0.43586 0.55904 0.52884 0.0
N1285 N 0.46798 0.57888 0.48656 0.0
C1286 C 0.44505 0.56251 0.47888 0.0
C1287 C 0.42765 0.55164 0.5018 0.0
C1288 C 0.79087 0.72907 0.85945 0.0
C1289 C 0.76181 0.72378 0.85297 0.0
C1290 C 0.81292 0.71841 0.84203 0.0
C1291 C 0.80691 0.70162 0.81762 0.0
H1292 H 0.79675 0.74275 0.87736 0.0
H1293 H 0.83489 0.72397 0.84741 0.0
S1294 S 0.73472 0.67869 0.79288 0.0
N1295 N 0.72832 0.6986 0.82157 0.0
N1296 N 0.77 0.67821 0.78904 0.0
C1297 C 0.77813 0.69458 0.81182 0.0
C1298 C 0.75553 0.70575 0.82943 0.0
C1299 C 0.53177 0.53871 0.1075 0.0
C1300 C 0.5351 0.50957 0.10006 0.0
C1301 C 0.54244 0.56062 0.08992 0.0
C1302 C 0.55728 0.55439 0.06436 0.0
H1303 H 0.5196 0.54487 0.12637 0.0
H1304 H 0.53833 0.58271 0.0961 0.0
S1305 S 0.57497 0.48182 0.03666 0.0
N1306 N 0.55659 0.47567 0.0664 0.0
N1307 N 0.57702 0.51713 0.03358 0.0
C1308 C 0.56256 0.52546 0.05754 0.0
C1309 C 0.55137 0.50299 0.07533 0.0
C1310 C 0.69568 0.29269 0.34215 0.0
C1311 C 0.70179 0.30877 0.31731 0.0
C1312 C 0.71765 0.28139 0.35922 0.0
C1313 C 0.74676 0.28529 0.35195 0.0
H1314 H 0.67362 0.28807 0.34807 0.0
H1315 H 0.7116 0.26827 0.37748 0.0
S1316 S 0.77418 0.32833 0.2905 0.0
N1317 N 0.73886 0.33024 0.28751 0.0
N1318 N 0.78047 0.30864 0.31936 0.0
C1319 C 0.75321 0.30279 0.32803 0.0
C1320 C 0.73066 0.31462 0.31077 0.0
C1321 C 0.97827 0.46554 0.60984 0.0
C1322 C 0.9723 0.49454 0.60363 0.0
C1323 C 0.96806 0.4434 0.59225 0.0
C1324 C 0.95105 0.44924 0.56797 0.0
H1325 H 0.99213 0.45982 0.62765 0.0
H1326 H 0.97407 0.42151 0.59745 0.0
S1327 S 0.92655 0.52114 0.54386 0.0
N1328 N 0.94639 0.52774 0.57255 0.0
N1329 N 0.92679 0.48588 0.53975 0.0
C1330 C 0.94339 0.47792 0.56242 0.0
C1331 C 0.95412 0.50062 0.58017 0.0
C1332 C 0.77926 0.30935 0.69421 0.0
C1333 C 0.80826 0.30695 0.68631 0.0
C1334 C 0.75749 0.2981 0.67659 0.0
C1335 C 0.76402 0.28436 0.65033 0.0
H1336 H 0.77346 0.31852 0.71482 0.0
H1337 H 0.73555 0.29902 0.6843 0.0
S1338 S 0.83673 0.27765 0.6179 0.0
N1339 N 0.84234 0.29331 0.64923 0.0
N1340 N 0.80166 0.27264 0.61581 0.0
C1341 C 0.79291 0.28402 0.64126 0.0
C1342 C 0.81498 0.29514 0.65936 0.0
C1343 C 0.94548 0.52711 0.94507 0.0
C1344 C 0.94731 0.55594 0.93639 0.0
C1345 C 0.95736 0.50511 0.92812 0.0
C1346 C 0.97121 0.51124 0.90182 0.0
H1347 H 0.9364 0.5217 0.96581 0.0
H1348 H 0.95693 0.48338 0.93644 0.0
S1349 S 0.97643 0.58317 0.86741 0.0
N1350 N 0.96043 0.58928 0.89847 0.0
N1351 N 0.98225 0.54818 0.86632 0.0
C1352 C 0.9709 0.53987 0.89194 0.0
C1353 C 0.95912 0.56217 0.90933 0.0
C1354 C 0.72982 0.69584 0.19711 0.0
C1355 C 0.70102 0.69727 0.18828 0.0
C1356 C 0.75183 0.70712 0.1798 0.0
C1357 C 0.74577 0.7199 0.15295 0.0
H1358 H 0.7352 0.68748 0.21816 0.0
H1359 H 0.77353 0.70708 0.18822 0.0
S1360 S 0.67402 0.72343 0.11803 0.0
N1361 N 0.66781 0.70877 0.14972 0.0
N1362 N 0.70899 0.72935 0.11687 0.0
C1363 C 0.71719 0.71913 0.14299 0.0
C1364 C 0.69485 0.70802 0.16076 0.0
C1365 C 0.54806 0.50102 0.42974 0.0
C1366 C 0.53599 0.49458 0.40266 0.0
C1367 C 0.55976 0.47933 0.44721 0.0
C1368 C 0.5595 0.45053 0.43824 0.0
H1369 H 0.54713 0.52268 0.43823 0.0
H1370 H 0.56742 0.4849 0.46848 0.0
S1371 S 0.53555 0.4228 0.36751 0.0
N1372 N 0.5285 0.45757 0.36631 0.0
N1373 N 0.5499 0.41703 0.39943 0.0
C1374 C 0.54954 0.44408 0.41052 0.0
C1375 C 0.53797 0.46606 0.39261 0.0
C1376 C 0.84208 0.81399 0.71792 0.0
C1377 C 0.81756 0.80812 0.70124 0.0
C1378 C 0.85973 0.79188 0.72804 0.0
C1379 C 0.85339 0.76286 0.72229 0.0
H1380 H 0.84739 0.8359 0.72378 0.0
H1381 H 0.8777 0.79763 0.74168 0.0
S1382 S 0.79313 0.73614 0.67723 0.0
N1383 N 0.78905 0.7714 0.6774 0.0
N1384 N 0.82201 0.72959 0.6968 0.0
C1385 C 0.82974 0.75673 0.70437 0.0
C1386 C 0.81189 0.77941 0.69374 0.0
C1387 C 0.31289 0.72661 0.3114 0.0
C1388 C 0.3204 0.69759 0.30808 0.0
C1389 C 0.33025 0.74845 0.29992 0.0
C1390 C 0.35588 0.74201 0.285 0.0
H1391 H 0.29272 0.7324 0.3215 0.0
H1392 H 0.3228 0.77044 0.30165 0.0
S1393 S 0.38733 0.66919 0.27543 0.0
N1394 N 0.35662 0.66351 0.29225 0.0
N1395 N 0.38953 0.70435 0.27106 0.0
C1396 C 0.36465 0.71306 0.28368 0.0
C1397 C 0.34681 0.6909 0.29507 0.0
C1398 C 0.54013 0.10935 0.52773 0.0
C1399 C 0.51114 0.10255 0.53305 0.0
C1400 C 0.56236 0.09213 0.5383 0.0
C1401 C 0.55662 0.06761 0.55502 0.0
H1402 H 0.54581 0.12736 0.51411 0.0
H1403 H 0.58427 0.09774 0.53273 0.0
S1404 S 0.48473 0.04203 0.57797 0.0
N1405 N 0.47801 0.07072 0.55817 0.0
N1406 N 0.52006 0.03857 0.5784 0.0
C1407 C 0.52792 0.06149 0.5621 0.0
C1408 C 0.50512 0.07889 0.55101 0.0
C1409 C 0.16436 0.30914 0.79022 0.0
C1410 C 0.18867 0.30296 0.80709 0.0
C1411 C 0.14704 0.28722 0.77912 0.0
C1412 C 0.1535 0.25808 0.78404 0.0
H1413 H 0.15901 0.33119 0.78492 0.0
H1414 H 0.12923 0.29328 0.76541 0.0
S1415 S 0.21335 0.23048 0.82915 0.0
N1416 N 0.21712 0.26577 0.83017 0.0
N1417 N 0.1848 0.22431 0.80898 0.0
C1418 C 0.17693 0.2516 0.80216 0.0
C1419 C 0.19444 0.27408 0.81378 0.0
C1420 C 0.4464 0.41459 0.54154 0.0
C1421 C 0.45241 0.43945 0.55766 0.0
C1422 C 0.46845 0.39728 0.53072 0.0
C1423 C 0.49753 0.40433 0.53517 0.0
H1424 H 0.42439 0.40876 0.53661 0.0
H1425 H 0.46253 0.37901 0.51756 0.0
S1426 S 0.52467 0.46574 0.57844 0.0
N1427 N 0.48936 0.46905 0.57966 0.0
N1428 N 0.53108 0.43675 0.55898 0.0
C1429 C 0.50385 0.42832 0.55262 0.0
C1430 C 0.48123 0.44581 0.56396 0.0
C1431 C 0.64797 0.21919 0.22393 0.0
C1432 C 0.65574 0.24828 0.22086 0.0
C1433 C 0.66524 0.19719 0.21296 0.0
C1434 C 0.6908 0.20326 0.19806 0.0
H1435 H 0.62909 0.21313 0.23612 0.0
H1436 H 0.65885 0.17513 0.2169 0.0
S1437 S 0.71932 0.27566 0.18102 0.0
N1438 N 0.68972 0.28198 0.19958 0.0
N1439 N 0.72195 0.24034 0.17856 0.0
C1440 C 0.69794 0.23216 0.19303 0.0
C1441 C 0.68047 0.25473 0.20453 0.0
C1442 C 0.54052 0.8977 0.97845 0.0
C1443 C 0.5114 0.90399 0.97322 0.0
C1444 C 0.56242 0.91524 0.96772 0.0
C1445 C 0.55624 0.9396 0.95093 0.0
H1446 H 0.54655 0.87984 0.99212 0.0
H1447 H 0.58444 0.90999 0.97323 0.0
S1448 S 0.48388 0.96383 0.92807 0.0
N1449 N 0.47768 0.93514 0.94804 0.0
N1450 N 0.51914 0.96789 0.92752 0.0
C1451 C 0.52742 0.94519 0.94391 0.0
C1452 C 0.50494 0.92746 0.95515 0.0
C1453 C 0.96667 0.10751 0.47562 0.0
C1454 C 0.99565 0.10029 0.47075 0.0
C1455 C 0.94435 0.0903 0.46518 0.0
C1456 C 0.94994 0.06535 0.44907 0.0
H1457 H 0.96105 0.12586 0.4888 0.0
H1458 H 0.92246 0.09627 0.47045 0.0
S1459 S 0.02174 0.0386 0.42724 0.0
N1460 N 0.02862 0.0676 0.44653 0.0
N1461 N 0.98639 0.03549 0.42657 0.0
C1462 C 0.97864 0.05882 0.44234 0.0
C1463 C 1.00154 0.07622 0.45327 0.0
C1464 C 0.18389 0.39039 0.44607 0.0
C1465 C 0.1672 0.40734 0.42729 0.0
C1466 C 0.18959 0.36136 0.44012 0.0
C1467 C 0.17851 0.34801 0.41537 0.0
H1468 H 0.19234 0.39945 0.46577 0.0
H1469 H 0.2026 0.34924 0.45514 0.0
S1470 S 0.13532 0.38315 0.35813 0.0
N1471 N 0.14092 0.40874 0.38203 0.0
N1472 N 0.15141 0.35435 0.37108 0.0
C1473 C 0.16219 0.36478 0.39617 0.0
C1474 C 0.15664 0.39437 0.40205 0.0
C1475 C 0.89211 0.91067 0.65387 0.0
C1476 C 0.90777 0.93152 0.66925 0.0
C1477 C 0.86298 0.90566 0.6595 0.0
C1478 C 0.84821 0.92111 0.68089 0.0
H1479 H 0.90228 0.89827 0.63701 0.0
H1480 H 0.85217 0.88906 0.64726 0.0
S1481 S 0.87907 0.9785 0.72708 0.0
N1482 N 0.90612 0.96811 0.70661 0.0
N1483 N 0.8514 0.95857 0.71731 0.0
C1484 C 0.86351 0.94219 0.69636 0.0
C1485 C 0.89323 0.94739 0.69053 0.0
C1486 C 0.31068 0.64235 0.93366 0.0
C1487 C 0.32943 0.65875 0.9164 0.0
C1488 C 0.31599 0.61317 0.93928 0.0
C1489 C 0.34004 0.5991 0.92756 0.0
H1490 H 0.29149 0.65197 0.94265 0.0
H1491 H 0.30103 0.60152 0.9528 0.0
S1492 S 0.39699 0.63263 0.88266 0.0
N1493 N 0.374 0.65888 0.88894 0.0
N1494 N 0.38365 0.60419 0.89909 0.0
C1495 C 0.3592 0.61532 0.91061 0.0
C1496 C 0.35402 0.64507 0.9052 0.0
C1497 C 0.64198 0.07257 0.19438 0.0
C1498 C 0.65825 0.09094 0.17663 0.0
C1499 C 0.61289 0.06698 0.1887 0.0
C1500 C 0.59875 0.07981 0.16526 0.0
H1501 H 0.65166 0.06256 0.21303 0.0
H1502 H 0.60139 0.05251 0.20286 0.0
S1503 S 0.6318 0.12847 0.11123 0.0
N1504 N 0.6581 0.12111 0.13383 0.0
N1505 N 0.60355 0.11091 0.12346 0.0
C1506 C 0.61478 0.09805 0.14718 0.0
C1507 C 0.64448 0.10346 0.15274 0.0
C1508 C 0.19074 0.6421 0.07104 0.0
C1509 C 0.17522 0.65756 0.09195 0.0
C1510 C 0.18481 0.61308 0.06537 0.0
C1511 C 0.16329 0.59817 0.08055 0.0
H1512 H 0.20779 0.65242 0.05902 0.0
H1513 H 0.19722 0.60229 0.04889 0.0
S1514 S 0.11621 0.62872 0.13744 0.0
N1515 N 0.13716 0.65566 0.12782 0.0
N1516 N 0.12612 0.60129 0.11728 0.0
C1517 C 0.14757 0.61337 0.10152 0.0
C1518 C 0.15344 0.64299 0.10712 0.0
C1519 C 0.64111 0.9015 0.34668 0.0
C1520 C 0.65688 0.91658 0.32572 0.0
C1521 C 0.61208 0.90755 0.3518 0.0
C1522 C 0.59754 0.92909 0.33633 0.0
H1523 H 0.65109 0.88455 0.35912 0.0
H1524 H 0.60117 0.89552 0.36848 0.0
S1525 S 0.6288 0.97462 0.27866 0.0
N1526 N 0.6556 0.95381 0.289 0.0
N1527 N 0.60107 0.96532 0.29874 0.0
C1528 C 0.61296 0.94426 0.31514 0.0
C1529 C 0.64258 0.938 0.30983 0.0
C1530 C 0.32044 0.39193 0.56355 0.0
C1531 C 0.34068 0.40743 0.57988 0.0
C1532 C 0.31473 0.36284 0.56916 0.0
C1533 C 0.32926 0.34792 0.59111 0.0
H1534 H 0.30895 0.40226 0.54614 0.0
H1535 H 0.29874 0.35199 0.55616 0.0
S1536 S 0.38409 0.37859 0.64045 0.0
N1537 N 0.37512 0.40555 0.61927 0.0
N1538 N 0.36453 0.35107 0.62963 0.0
C1539 C 0.34958 0.36314 0.60761 0.0
C1540 C 0.35519 0.39282 0.6021 0.0
C1541 C 0.89372 0.06433 0.8179 0.0
C1542 C 0.90753 0.07698 0.84162 0.0
C1543 C 0.86473 0.07003 0.81185 0.0
C1544 C 0.84824 0.08833 0.82949 0.0
H1545 H 0.90543 0.05003 0.80374 0.0
H1546 H 0.85534 0.06024 0.79293 0.0
S1547 S 0.87368 0.12503 0.89574 0.0
N1548 N 0.9021 0.10756 0.88375 0.0
N1549 N 0.84773 0.11796 0.87265 0.0
C1550 C 0.86162 0.10051 0.85377 0.0
C1551 C 0.89121 0.09498 0.85971 0.0
C1552 C 0.409 0.15244 0.39195 0.0
C1553 C 0.42916 0.16873 0.40756 0.0
C1554 C 0.40369 0.1579 0.36281 0.0
C1555 C 0.41818 0.17998 0.34804 0.0
H1556 H 0.39753 0.13491 0.40212 0.0
H1557 H 0.38773 0.14489 0.35194 0.0
S1558 S 0.47279 0.2292 0.37918 0.0
N1559 N 0.46353 0.2081 0.40613 0.0
N1560 N 0.45356 0.21839 0.35143 0.0
C1561 C 0.43836 0.19651 0.36342 0.0
C1562 C 0.44381 0.19091 0.39312 0.0
C1563 C 0.06492 0.18706 0.61167 0.0
C1564 C 0.07774 0.16345 0.59776 0.0
C1565 C 0.07025 0.19284 0.64082 0.0
C1566 C 0.08828 0.175 0.65738 0.0
H1567 H 0.05076 0.20131 0.59991 0.0
H1568 H 0.06039 0.21168 0.65031 0.0
S1569 S 0.12534 0.10899 0.63167 0.0
N1570 N 0.10833 0.12134 0.60315 0.0
N1571 N 0.11784 0.13177 0.65777 0.0
C1572 C 0.10062 0.15085 0.64385 0.0
C1573 C 0.09555 0.14524 0.61412 0.0
C1574 C 0.0671 0.81604 0.8949 0.0
C1575 C 0.07946 0.83991 0.90875 0.0
C1576 C 0.07245 0.81037 0.86576 0.0
C1577 C 0.0901 0.82854 0.84914 0.0
H1578 H 0.0532 0.80154 0.90667 0.0
H1579 H 0.06286 0.79137 0.85631 0.0
S1580 S 0.12596 0.89523 0.87474 0.0
N1581 N 0.10919 0.88262 0.9033 0.0
N1582 N 0.11895 0.87225 0.84866 0.0
C1583 C 0.1021 0.85288 0.86263 0.0
C1584 C 0.09692 0.85844 0.89237 0.0
C1585 C 0.44664 0.81986 0.11508 0.0
C1586 C 0.42822 0.83729 0.09853 0.0
C1587 C 0.44094 0.81421 0.14415 0.0
C1588 C 0.4168 0.82606 0.15796 0.0
H1589 H 0.46588 0.81075 0.10566 0.0
H1590 H 0.45566 0.80055 0.15593 0.0
S1591 S 0.36063 0.87151 0.12399 0.0
N1592 N 0.38388 0.86516 0.09799 0.0
N1593 N 0.37347 0.85484 0.1525 0.0
C1594 C 0.39796 0.84319 0.14161 0.0
C1595 C 0.40355 0.84866 0.11195 0.0
C1596 C 0.39374 0.40838 0.15567 0.0
C1597 C 0.40803 0.43159 0.16883 0.0
C1598 C 0.3647 0.40273 0.16111 0.0
C1599 C 0.34863 0.41988 0.18015 0.0
H1600 H 0.40492 0.39452 0.14066 0.0
H1601 H 0.35497 0.38435 0.15064 0.0
S1602 S 0.37539 0.48375 0.2197 0.0
N1603 N 0.40355 0.47229 0.20143 0.0
N1604 N 0.34897 0.4614 0.21187 0.0
C1605 C 0.36252 0.4432 0.19347 0.0
C1606 C 0.39217 0.4491 0.18779 0.0
C1607 C 0.81621 0.8936 0.06735 0.0
C1608 C 0.84059 0.90713 0.07902 0.0
C1609 C 0.81028 0.86454 0.07297 0.0
C1610 C 0.82872 0.84771 0.09016 0.0
H1611 H 0.80146 0.90559 0.05391 0.0
H1612 H 0.79088 0.85534 0.064 0.0
S1613 S 0.89693 0.87233 0.1237 0.0
N1614 N 0.88419 0.90105 0.10731 0.0
N1615 N 0.87334 0.8466 0.1175 0.0
C1616 C 0.85362 0.86084 0.1013 0.0
C1617 C 0.85945 0.89048 0.09588 0.0
C1618 C 0.14189 0.60342 0.6596 0.0
C1619 C 0.15731 0.58804 0.6806 0.0
C1620 C 0.11278 0.59787 0.65433 0.0
C1621 C 0.0978 0.57655 0.6697 0.0
H1622 H 0.15223 0.62025 0.64726 0.0
H1623 H 0.10214 0.61011 0.63764 0.0
S1624 S 0.12806 0.53033 0.72736 0.0
N1625 N 0.15525 0.55072 0.71719 0.0
N1626 N 0.10058 0.54016 0.7072 0.0
C1627 C 0.11288 0.56107 0.69091 0.0
C1628 C 0.14258 0.56681 0.69636 0.0
C1629 C 0.65436 0.89393 0.90961 0.0
C1630 C 0.66929 0.90899 0.93119 0.0
C1631 C 0.65985 0.86483 0.90415 0.0
C1632 C 0.68065 0.84951 0.91989 0.0
H1633 H 0.63789 0.90452 0.89703 0.0
H1634 H 0.64793 0.85444 0.88705 0.0
S1635 S 0.72607 0.87892 0.9786 0.0
N1636 N 0.70603 0.90633 0.96835 0.0
N1637 N 0.7164 0.8517 0.958 0.0
C1638 C 0.69588 0.8643 0.94148 0.0
C1639 C 0.69021 0.89397 0.94712 0.0
C1640 C 0.81388 0.14296 0.43877 0.0
C1641 C 0.82686 0.15669 0.41516 0.0
C1642 C 0.81914 0.11385 0.44475 0.0
C1643 C 0.83728 0.09716 0.42712 0.0
H1644 H 0.79968 0.15483 0.45289 0.0
H1645 H 0.80916 0.1045 0.46358 0.0
S1646 S 0.87467 0.12237 0.36114 0.0
N1647 N 0.8576 0.15099 0.37319 0.0
N1648 N 0.86708 0.09642 0.38407 0.0
C1649 C 0.84976 0.11049 0.40295 0.0
C1650 C 0.84472 0.14019 0.39711 0.0
C1651 C 0.66107 0.14281 0.6003 0.0
C1652 C 0.68242 0.15773 0.5849 0.0
C1653 C 0.65525 0.11377 0.59486 0.0
C1654 C 0.67037 0.0984 0.57364 0.0
H1655 H 0.64898 0.15345 0.61711 0.0
H1656 H 0.63838 0.10348 0.60718 0.0
S1657 S 0.72835 0.12743 0.52703 0.0
N1658 N 0.71876 0.15487 0.54736 0.0
N1659 N 0.70773 0.10035 0.53707 0.0
C1660 C 0.69175 0.11304 0.55798 0.0
C1661 C 0.69777 0.14265 0.5636 0.0
C1662 C 0.11322 0.43978 0.81694 0.0
C1663 C 0.09943 0.42818 0.84121 0.0
C1664 C 0.14223 0.43383 0.81112 0.0
C1665 C 0.15873 0.41637 0.82959 0.0
H1666 H 0.10146 0.4534 0.80216 0.0
H1667 H 0.15163 0.4427 0.79177 0.0
S1668 S 0.13336 0.38294 0.89761 0.0
N1669 N 0.1049 0.39968 0.88474 0.0
N1670 N 0.15929 0.38894 0.87419 0.0
C1671 C 0.14535 0.40535 0.85443 0.0
C1672 C 0.11576 0.41108 0.86011 0.0
C1673 C 0.36466 0.60293 0.34412 0.0
C1674 C 0.34776 0.58505 0.32652 0.0
C1675 C 0.39373 0.59705 0.34905 0.0
C1676 C 0.40721 0.57288 0.3368 0.0
H1677 H 0.35554 0.62202 0.35385 0.0
H1678 H 0.40557 0.61147 0.36297 0.0
S1679 S 0.37228 0.51891 0.2894 0.0
N1680 N 0.34649 0.5421 0.29683 0.0
N1681 N 0.40114 0.53074 0.30632 0.0
C1682 C 0.39055 0.55478 0.31909 0.0
C1683 C 0.36087 0.56092 0.31392 0.0
C1684 C 0.91019 0.65357 0.8912 0.0
C1685 C 0.93117 0.66887 0.90674 0.0
C1686 C 0.90498 0.65928 0.86213 0.0
C1687 C 0.92035 0.68072 0.84732 0.0
H1688 H 0.89783 0.63668 0.90139 0.0
H1689 H 0.8883 0.64709 0.85141 0.0
S1690 S 0.97799 0.72675 0.87792 0.0
N1691 N 0.96778 0.70618 0.90497 0.0
N1692 N 0.95785 0.7171 0.85035 0.0
C1693 C 0.94155 0.69611 0.86251 0.0
C1694 C 0.94697 0.69017 0.89217 0.0
C1695 C 0.56151 0.68389 0.11317 0.0
C1696 C 0.57949 0.66618 0.09641 0.0
C1697 C 0.56732 0.6891 0.14231 0.0
C1698 C 0.59115 0.67653 0.156 0.0
H1699 H 0.5425 0.6936 0.10388 0.0
H1700 H 0.55289 0.70296 0.15421 0.0
S1701 S 0.64611 0.62994 0.1215 0.0
N1702 N 0.62306 0.63718 0.09556 0.0
N1703 N 0.63372 0.64667 0.1502 0.0
C1704 C 0.60957 0.65911 0.13943 0.0
C1705 C 0.60385 0.65408 0.1097 0.0
C1706 C 0.60229 0.34969 0.36302 0.0
C1707 C 0.58853 0.32694 0.34853 0.0
C1708 C 0.59702 0.3552 0.39215 0.0
C1709 C 0.57759 0.33835 0.40806 0.0
H1710 H 0.61765 0.36323 0.35194 0.0
H1711 H 0.60794 0.37321 0.40208 0.0
S1712 S 0.53592 0.27614 0.38054 0.0
N1713 N 0.55458 0.28733 0.35253 0.0
N1714 N 0.54456 0.29785 0.40722 0.0
C1715 C 0.56356 0.31559 0.3939 0.0
C1716 C 0.56903 0.30987 0.3642 0.0
C1717 C 0.90505 0.34552 0.64276 0.0
C1718 C 0.92066 0.3247 0.65818 0.0
C1719 C 0.91052 0.35084 0.61368 0.0
C1720 C 0.93202 0.33575 0.59866 0.0
H1721 H 0.88804 0.35765 0.65305 0.0
H1722 H 0.89798 0.36733 0.60307 0.0
S1723 S 0.97906 0.2788 0.62894 0.0
N1724 N 0.95849 0.28864 0.65613 0.0
N1725 N 0.96899 0.29884 0.60145 0.0
C1726 C 0.94783 0.3148 0.61375 0.0
C1727 C 0.94213 0.30924 0.64346 0.0
loop_
_geom_bond_atom_site_label_1
_geom_bond_atom_site_label_2
_geom_bond_distance
_geom_bond_site_symmetry_2
_ccdc_geom_bond_type
C0 O2 1.247 . S
C0 O4 1.258 . S
C1 O8 1.247 . S
C1 O9 1.258 . S
O2 C0 1.247 . S
O2 Zn3 2.028 . S
Zn3 O2 2.028 . S
Zn3 O7 2.035 . S
Zn3 O9 2.035 . S
Zn3 O10 2.028 . S
O4 C0 1.258 . S
O4 Zn5 2.035 . S
Zn5 O4 2.035 . S
Zn5 O6 2.028 . S
Zn5 O8 2.028 . S
Zn5 O11 2.035 . S
O6 Zn5 2.028 . S
O6 C12 1.247 . S
O7 Zn3 2.035 . S
O7 C12 1.258 . S
O8 C1 1.247 . S
O8 Zn5 2.028 . S
O9 C1 1.258 . S
O9 Zn3 2.035 . S
O10 Zn3 2.028 . S
O10 C13 1.247 . S
O11 Zn5 2.035 . S
O11 C13 1.258 . S
C12 O6 1.247 . S
C12 O7 1.258 . S
C13 O10 1.247 . S
C13 O11 1.258 . S
C14 O16 1.247 1_455 S
C14 O18 1.258 . S
C15 O22 1.247 . S
C15 O23 1.258 . S
O16 C14 1.247 1_655 S
O16 Zn17 2.028 . S
Zn17 O16 2.028 . S
Zn17 O21 2.035 1_655 S
Zn17 O23 2.035 . S
Zn17 O24 2.028 . S
O18 C14 1.258 . S
O18 Zn19 2.035 1_455 S
Zn19 O18 2.035 1_655 S
Zn19 O20 2.028 1_655 S
Zn19 O22 2.028 . S
Zn19 O25 2.035 . S
O20 Zn19 2.028 1_455 S
O20 C26 1.247 . S
O21 Zn17 2.035 1_455 S
O21 C26 1.258 . S
O22 C15 1.247 . S
O22 Zn19 2.028 . S
O23 C15 1.258 . S
O23 Zn17 2.035 . S
O24 Zn17 2.028 . S
O24 C27 1.247 . S
O25 Zn19 2.035 . S
O25 C27 1.258 . S
C26 O20 1.247 . S
C26 O21 1.258 . S
C27 O24 1.247 . S
C27 O25 1.258 . S
C28 O30 1.247 . S
C28 O32 1.258 . S
C29 O36 1.247 . S
C29 O37 1.258 . S
O30 C28 1.247 . S
O30 Zn31 2.028 . S
Zn31 O30 2.028 . S
Zn31 O35 2.035 . S
Zn31 O37 2.035 . S
Zn31 O38 2.028 . S
O32 C28 1.258 . S
O32 Zn33 2.035 . S
Zn33 O32 2.035 . S
Zn33 O34 2.028 . S
Zn33 O36 2.028 . S
Zn33 O39 2.035 . S
O34 Zn33 2.028 . S
O34 C40 1.247 . S
O35 Zn31 2.035 . S
O35 C40 1.258 . S
O36 C29 1.247 . S
O36 Zn33 2.028 . S
O37 C29 1.258 . S
O37 Zn31 2.035 . S
O38 Zn31 2.028 . S
O38 C41 1.247 . S
O39 Zn33 2.035 . S
O39 C41 1.258 . S
C40 O34 1.247 . S
C40 O35 1.258 . S
C41 O38 1.247 . S
C41 O39 1.258 . S
C42 O44 1.247 . S
C42 O46 1.258 . S
C43 O50 1.247 . S
C43 O51 1.258 . S
O44 C42 1.247 . S
O44 Zn45 2.028 . S
Zn45 O44 2.028 . S
Zn45 O49 2.035 . S
Zn45 O51 2.035 . S
Zn45 O52 2.028 . S
O46 C42 1.258 . S
O46 Zn47 2.035 . S
Zn47 O46 2.035 . S
Zn47 O48 2.028 . S
Zn47 O50 2.028 . S
Zn47 O53 2.035 . S
O48 Zn47 2.028 . S
O48 C54 1.247 . S
O49 Zn45 2.035 . S
O49 C54 1.258 . S
O50 C43 1.247 . S
O50 Zn47 2.028 . S
O51 C43 1.258 . S
O51 Zn45 2.035 . S
O52 Zn45 2.028 . S
O52 C55 1.247 . S
O53 Zn47 2.035 . S
O53 C55 1.258 . S
C54 O48 1.247 . S
C54 O49 1.258 . S
C55 O52 1.247 . S
C55 O53 1.258 . S
C56 O58 1.247 . S
C56 O60 1.258 . S
C57 O64 1.247 . S
C57 O65 1.258 . S
O58 C56 1.247 . S
O58 Zn59 2.028 . S
Zn59 O58 2.028 . S
Zn59 O63 2.035 . S
Zn59 O65 2.035 . S
Zn59 O66 2.028 . S
O60 C56 1.258 . S
O60 Zn61 2.035 . S
Zn61 O60 2.035 . S
Zn61 O62 2.028 . S
Zn61 O64 2.028 . S
Zn61 O67 2.035 . S
O62 Zn61 2.028 . S
O62 C68 1.247 . S
O63 Zn59 2.035 . S
O63 C68 1.258 . S
O64 C57 1.247 . S
O64 Zn61 2.028 . S
O65 C57 1.258 . S
O65 Zn59 2.035 . S
O66 Zn59 2.028 . S
O66 C69 1.247 . S
O67 Zn61 2.035 . S
O67 C69 1.258 . S
C68 O62 1.247 . S
C68 O63 1.258 . S
C69 O66 1.247 . S
C69 O67 1.258 . S
C70 O72 1.247 . S
C70 O74 1.258 . S
C71 O78 1.247 . S
C71 O79 1.258 . S
O72 C70 1.247 . S
O72 Zn73 2.028 . S
Zn73 O72 2.028 . S
Zn73 O77 2.035 . S
Zn73 O79 2.035 . S
Zn73 O80 2.028 . S
O74 C70 1.258 . S
O74 Zn75 2.035 . S
Zn75 O74 2.035 . S
Zn75 O76 2.028 . S
Zn75 O78 2.028 . S
Zn75 O81 2.035 . S
O76 Zn75 2.028 . S
O76 C82 1.247 . S
O77 Zn73 2.035 . S
O77 C82 1.258 . S
O78 C71 1.247 . S
O78 Zn75 2.028 . S
O79 C71 1.258 . S
O79 Zn73 2.035 . S
O80 Zn73 2.028 . S
O80 C83 1.247 . S
O81 Zn75 2.035 . S
O81 C83 1.258 . S
C82 O76 1.247 . S
C82 O77 1.258 . S
C83 O80 1.247 . S
C83 O81 1.258 . S
C84 O86 1.247 . S
C84 O88 1.258 . S
C85 O92 1.247 . S
C85 O93 1.258 . S
O86 C84 1.247 . S
O86 Zn87 2.028 . S
Zn87 O86 2.028 . S
Zn87 O91 2.035 . S
Zn87 O93 2.035 . S
Zn87 O94 2.028 . S
O88 C84 1.258 . S
O88 Zn89 2.035 . S
Zn89 O88 2.035 . S
Zn89 O90 2.028 . S
Zn89 O92 2.028 . S
Zn89 O95 2.035 . S
O90 Zn89 2.028 . S
O90 C96 1.247 . S
O91 Zn87 2.035 . S
O91 C96 1.258 . S
O92 C85 1.247 . S
O92 Zn89 2.028 . S
O93 C85 1.258 . S
O93 Zn87 2.035 . S
O94 Zn87 2.028 . S
O94 C97 1.247 . S
O95 Zn89 2.035 . S
O95 C97 1.258 . S
C96 O90 1.247 . S
C96 O91 1.258 . S
C97 O94 1.247 . S
C97 O95 1.258 . S
C98 O100 1.247 1_455 S
C98 O102 1.258 . S
C99 O106 1.247 . S
C99 O107 1.258 . S
O100 C98 1.247 1_655 S
O100 Zn101 2.028 . S
Zn101 O100 2.028 . S
Zn101 O105 2.035 1_655 S
Zn101 O107 2.035 . S
Zn101 O108 2.028 . S
O102 C98 1.258 . S
O102 Zn103 2.035 1_455 S
Zn103 O102 2.035 1_655 S
Zn103 O104 2.028 1_655 S
Zn103 O106 2.028 . S
Zn103 O109 2.035 . S
O104 Zn103 2.028 1_455 S
O104 C110 1.247 . S
O105 Zn101 2.035 1_455 S
O105 C110 1.258 . S
O106 C99 1.247 . S
O106 Zn103 2.028 . S
O107 C99 1.258 . S
O107 Zn101 2.035 . S
O108 Zn101 2.028 . S
O108 C111 1.247 . S
O109 Zn103 2.035 . S
O109 C111 1.258 . S
C110 O104 1.247 . S
C110 O105 1.258 . S
C111 O108 1.247 . S
C111 O109 1.258 . S
C112 O114 1.247 . S
C112 O116 1.258 . S
C113 O120 1.247 . S
C113 O121 1.258 . S
O114 C112 1.247 . S
O114 Zn115 2.028 . S
Zn115 O114 2.028 . S
Zn115 O119 2.035 . S
Zn115 O121 2.035 . S
Zn115 O122 2.028 . S
O116 C112 1.258 . S
O116 Zn117 2.035 . S
Zn117 O116 2.035 . S
Zn117 O118 2.028 . S
Zn117 O120 2.028 . S
Zn117 O123 2.035 . S
O118 Zn117 2.028 . S
O118 C124 1.247 . S
O119 Zn115 2.035 . S
O119 C124 1.258 . S
O120 C113 1.247 . S
O120 Zn117 2.028 . S
O121 C113 1.258 . S
O121 Zn115 2.035 . S
O122 Zn115 2.028 . S
O122 C125 1.247 . S
O123 Zn117 2.035 . S
O123 C125 1.258 . S
C124 O118 1.247 . S
C124 O119 1.258 . S
C125 O122 1.247 . S
C125 O123 1.258 . S
C126 O128 1.247 . S
C126 O130 1.258 . S
C127 O134 1.247 . S
C127 O135 1.258 . S
O128 C126 1.247 . S
O128 Zn129 2.028 . S
Zn129 O128 2.028 . S
Zn129 O133 2.035 . S
Zn129 O135 2.035 . S
Zn129 O136 2.028 . S
O130 C126 1.258 . S
O130 Zn131 2.035 . S
Zn131 O130 2.035 . S
Zn131 O132 2.028 . S
Zn131 O134 2.028 . S
Zn131 O137 2.035 . S
O132 Zn131 2.028 . S
O132 C138 1.247 . S
O133 Zn129 2.035 . S
O133 C138 1.258 . S
O134 C127 1.247 . S
O134 Zn131 2.028 . S
O135 C127 1.258 . S
O135 Zn129 2.035 . S
O136 Zn129 2.028 . S
O136 C139 1.247 . S
O137 Zn131 2.035 . S
O137 C139 1.258 . S
C138 O132 1.247 . S
C138 O133 1.258 . S
C139 O136 1.247 . S
C139 O137 1.258 . S
C140 O142 1.247 . S
C140 O144 1.258 . S
C141 O148 1.247 . S
C141 O149 1.258 . S
O142 C140 1.247 . S
O142 Zn143 2.028 . S
Zn143 O142 2.028 . S
Zn143 O147 2.035 . S
Zn143 O149 2.035 . S
Zn143 O150 2.028 . S
O144 C140 1.258 . S
O144 Zn145 2.035 . S
Zn145 O144 2.035 . S
Zn145 O146 2.028 . S
Zn145 O148 2.028 . S
Zn145 O151 2.035 . S
O146 Zn145 2.028 . S
O146 C152 1.247 . S
O147 Zn143 2.035 . S
O147 C152 1.258 . S
O148 C141 1.247 . S
O148 Zn145 2.028 . S
O149 C141 1.258 . S
O149 Zn143 2.035 . S
O150 Zn143 2.028 . S
O150 C153 1.247 . S
O151 Zn145 2.035 . S
O151 C153 1.258 . S
C152 O146 1.247 . S
C152 O147 1.258 . S
C153 O150 1.247 . S
C153 O151 1.258 . S
C154 O156 1.247 . S
C154 O158 1.258 . S
C155 O162 1.247 . S
C155 O163 1.258 1_556 S
O156 C154 1.247 . S
O156 Zn157 2.028 . S
Zn157 O156 2.028 . S
Zn157 O161 2.035 . S
Zn157 O163 2.035 . S
Zn157 O164 2.028 1_554 S
O158 C154 1.258 . S
O158 Zn159 2.035 . S
Zn159 O158 2.035 . S
Zn159 O160 2.028 . S
Zn159 O162 2.028 1_554 S
Zn159 O165 2.035 1_554 S
O160 Zn159 2.028 . S
O160 C166 1.247 . S
O161 Zn157 2.035 . S
O161 C166 1.258 . S
O162 C155 1.247 . S
O162 Zn159 2.028 1_556 S
O163 C155 1.258 1_554 S
O163 Zn157 2.035 . S
O164 Zn157 2.028 1_556 S
O164 C167 1.247 . S
O165 Zn159 2.035 1_556 S
O165 C167 1.258 . S
C166 O160 1.247 . S
C166 O161 1.258 . S
C167 O164 1.247 . S
C167 O165 1.258 . S
C168 O170 1.247 . S
C168 O172 1.258 . S
C169 O176 1.247 . S
C169 O177 1.258 . S
O170 C168 1.247 . S
O170 Zn171 2.028 . S
Zn171 O170 2.028 . S
Zn171 O175 2.035 . S
Zn171 O177 2.035 . S
Zn171 O178 2.028 . S
O172 C168 1.258 . S
O172 Zn173 2.035 . S
Zn173 O172 2.035 . S
Zn173 O174 2.028 . S
Zn173 O176 2.028 . S
Zn173 O179 2.035 . S
O174 Zn173 2.028 . S
O174 C180 1.247 . S
O175 Zn171 2.035 . S
O175 C180 1.258 . S
O176 C169 1.247 . S
O176 Zn173 2.028 . S
O177 C169 1.258 . S
O177 Zn171 2.035 . S
O178 Zn171 2.028 . S
O178 C181 1.247 . S
O179 Zn173 2.035 . S
O179 C181 1.258 . S
C180 O174 1.247 . S
C180 O175 1.258 . S
C181 O178 1.247 . S
C181 O179 1.258 . S
C182 O184 1.247 . S
C182 O186 1.258 . S
C183 O190 1.247 . S
C183 O191 1.258 . S
O184 C182 1.247 . S
O184 Zn185 2.028 . S
Zn185 O184 2.028 . S
Zn185 O189 2.035 . S
Zn185 O191 2.035 . S
Zn185 O192 2.028 . S
O186 C182 1.258 . S
O186 Zn187 2.035 . S
Zn187 O186 2.035 . S
Zn187 O188 2.028 . S
Zn187 O190 2.028 . S
Zn187 O193 2.035 . S
O188 Zn187 2.028 . S
O188 C194 1.247 . S
O189 Zn185 2.035 . S
O189 C194 1.258 . S
O190 C183 1.247 . S
O190 Zn187 2.028 . S
O191 C183 1.258 . S
O191 Zn185 2.035 . S
O192 Zn185 2.028 . S
O192 C195 1.247 . S
O193 Zn187 2.035 . S
O193 C195 1.258 . S
C194 O188 1.247 . S
C194 O189 1.258 . S
C195 O192 1.247 . S
C195 O193 1.258 . S
C196 O198 1.247 . S
C196 O200 1.258 . S
C197 O204 1.247 . S
C197 O205 1.258 . S
O198 C196 1.247 . S
O198 Zn199 2.028 . S
Zn199 O198 2.028 . S
Zn199 O203 2.035 . S
Zn199 O205 2.035 . S
Zn199 O206 2.028 . S
O200 C196 1.258 . S
O200 Zn201 2.035 . S
Zn201 O200 2.035 . S
Zn201 O202 2.028 . S
Zn201 O204 2.028 . S
Zn201 O207 2.035 . S
O202 Zn201 2.028 . S
O202 C208 1.247 . S
O203 Zn199 2.035 . S
O203 C208 1.258 . S
O204 C197 1.247 . S
O204 Zn201 2.028 . S
O205 C197 1.258 . S
O205 Zn199 2.035 . S
O206 Zn199 2.028 . S
O206 C209 1.247 . S
O207 Zn201 2.035 . S
O207 C209 1.258 . S
C208 O202 1.247 . S
C208 O203 1.258 . S
C209 O206 1.247 . S
C209 O207 1.258 . S
C210 O212 1.247 . S
C210 O214 1.258 . S
C211 O218 1.247 . S
C211 O219 1.258 . S
O212 C210 1.247 . S
O212 Zn213 2.028 . S
Zn213 O212 2.028 . S
Zn213 O217 2.035 . S
Zn213 O219 2.035 1_556 S
Zn213 O220 2.028 1_556 S
O214 C210 1.258 . S
O214 Zn215 2.035 . S
Zn215 O214 2.035 . S
Zn215 O216 2.028 . S
Zn215 O218 2.028 1_556 S
Zn215 O221 2.035 . S
O216 Zn215 2.028 . S
O216 C222 1.247 . S
O217 Zn213 2.035 . S
O217 C222 1.258 . S
O218 C211 1.247 . S
O218 Zn215 2.028 1_554 S
O219 C211 1.258 . S
O219 Zn213 2.035 1_554 S
O220 Zn213 2.028 1_554 S
O220 C223 1.247 . S
O221 Zn215 2.035 . S
O221 C223 1.258 1_556 S
C222 O216 1.247 . S
C222 O217 1.258 . S
C223 O220 1.247 . S
C223 O221 1.258 1_554 S
C224 O226 1.247 . S
C224 O228 1.258 . S
C225 O232 1.247 . S
C225 O233 1.258 . S
O226 C224 1.247 . S
O226 Zn227 2.028 . S
Zn227 O226 2.028 . S
Zn227 O231 2.035 . S
Zn227 O233 2.035 . S
Zn227 O234 2.028 . S
O228 C224 1.258 . S
O228 Zn229 2.035 . S
Zn229 O228 2.035 . S
Zn229 O230 2.028 . S
Zn229 O232 2.028 . S
Zn229 O235 2.035 . S
O230 Zn229 2.028 . S
O230 C236 1.247 . S
O231 Zn227 2.035 . S
O231 C236 1.258 . S
O232 C225 1.247 . S
O232 Zn229 2.028 . S
O233 C225 1.258 . S
O233 Zn227 2.035 . S
O234 Zn227 2.028 . S
O234 C237 1.247 . S
O235 Zn229 2.035 . S
O235 C237 1.258 . S
C236 O230 1.247 . S
C236 O231 1.258 . S
C237 O234 1.247 . S
C237 O235 1.258 . S
C238 O240 1.247 . S
C238 O242 1.258 . S
C239 O246 1.247 . S
C239 O247 1.258 . S
O240 C238 1.247 . S
O240 Zn241 2.028 . S
Zn241 O240 2.028 . S
Zn241 O245 2.035 . S
Zn241 O247 2.035 . S
Zn241 O248 2.028 . S
O242 C238 1.258 . S
O242 Zn243 2.035 . S
Zn243 O242 2.035 . S
Zn243 O244 2.028 . S
Zn243 O246 2.028 . S
Zn243 O249 2.035 . S
O244 Zn243 2.028 . S
O244 C250 1.247 . S
O245 Zn241 2.035 . S
O245 C250 1.258 . S
O246 C239 1.247 . S
O246 Zn243 2.028 . S
O247 C239 1.258 . S
O247 Zn241 2.035 . S
O248 Zn241 2.028 . S
O248 C251 1.247 . S
O249 Zn243 2.035 . S
O249 C251 1.258 . S
C250 O244 1.247 . S
C250 O245 1.258 . S
C251 O248 1.247 . S
C251 O249 1.258 . S
C252 O254 1.247 . S
C252 O256 1.258 . S
C253 O260 1.247 . S
C253 O261 1.258 . S
O254 C252 1.247 . S
O254 Zn255 2.028 . S
Zn255 O254 2.028 . S
Zn255 O259 2.035 . S
Zn255 O261 2.035 . S
Zn255 O262 2.028 . S
O256 C252 1.258 . S
O256 Zn257 2.035 . S
Zn257 O256 2.035 . S
Zn257 O258 2.028 . S
Zn257 O260 2.028 . S
Zn257 O263 2.035 . S
O258 Zn257 2.028 . S
O258 C264 1.247 . S
O259 Zn255 2.035 . S
O259 C264 1.258 . S
O260 C253 1.247 . S
O260 Zn257 2.028 . S
O261 C253 1.258 . S
O261 Zn255 2.035 . S
O262 Zn255 2.028 . S
O262 C265 1.247 . S
O263 Zn257 2.035 . S
O263 C265 1.258 . S
C264 O258 1.247 . S
C264 O259 1.258 . S
C265 O262 1.247 . S
C265 O263 1.258 . S
C266 O268 1.247 . S
C266 O270 1.258 . S
C267 O274 1.247 . S
C267 O275 1.258 . S
O268 C266 1.247 . S
O268 Zn269 2.028 . S
Zn269 O268 2.028 . S
Zn269 O273 2.035 . S
Zn269 O275 2.035 . S
Zn269 O276 2.028 . S
O270 C266 1.258 . S
O270 Zn271 2.035 . S
Zn271 O270 2.035 . S
Zn271 O272 2.028 . S
Zn271 O274 2.028 . S
Zn271 O277 2.035 . S
O272 Zn271 2.028 . S
O272 C278 1.247 . S
O273 Zn269 2.035 . S
O273 C278 1.258 . S
O274 C267 1.247 . S
O274 Zn271 2.028 . S
O275 C267 1.258 . S
O275 Zn269 2.035 . S
O276 Zn269 2.028 . S
O276 C279 1.247 . S
O277 Zn271 2.035 . S
O277 C279 1.258 . S
C278 O272 1.247 . S
C278 O273 1.258 . S
C279 O276 1.247 . S
C279 O277 1.258 . S
C280 O282 1.247 . S
C280 O284 1.258 . S
C281 O288 1.247 . S
C281 O289 1.258 . S
O282 C280 1.247 . S
O282 Zn283 2.028 1_545 S
Zn283 O282 2.028 1_565 S
Zn283 O287 2.035 1_565 S
Zn283 O289 2.035 . S
Zn283 O290 2.028 . S
O284 C280 1.258 . S
O284 Zn285 2.035 1_545 S
Zn285 O284 2.035 1_565 S
Zn285 O286 2.028 . S
Zn285 O288 2.028 . S
Zn285 O291 2.035 . S
O286 Zn285 2.028 . S
O286 C292 1.247 1_565 S
O287 Zn283 2.035 1_545 S
O287 C292 1.258 . S
O288 C281 1.247 . S
O288 Zn285 2.028 . S
O289 C281 1.258 . S
O289 Zn283 2.035 . S
O290 Zn283 2.028 . S
O290 C293 1.247 . S
O291 Zn285 2.035 . S
O291 C293 1.258 . S
C292 O286 1.247 1_545 S
C292 O287 1.258 . S
C293 O290 1.247 . S
C293 O291 1.258 . S
C294 O296 1.247 . S
C294 O298 1.258 . S
C295 O302 1.247 . S
C295 O303 1.258 . S
O296 C294 1.247 . S
O296 Zn297 2.028 . S
Zn297 O296 2.028 . S
Zn297 O301 2.035 . S
Zn297 O303 2.035 . S
Zn297 O304 2.028 . S
O298 C294 1.258 . S
O298 Zn299 2.035 . S
Zn299 O298 2.035 . S
Zn299 O300 2.028 . S
Zn299 O302 2.028 . S
Zn299 O305 2.035 . S
O300 Zn299 2.028 . S
O300 C306 1.247 . S
O301 Zn297 2.035 . S
O301 C306 1.258 . S
O302 C295 1.247 . S
O302 Zn299 2.028 . S
O303 C295 1.258 . S
O303 Zn297 2.035 . S
O304 Zn297 2.028 . S
O304 C307 1.247 . S
O305 Zn299 2.035 . S
O305 C307 1.258 . S
C306 O300 1.247 . S
C306 O301 1.258 . S
C307 O304 1.247 . S
C307 O305 1.258 . S
C308 O310 1.247 . S
C308 O312 1.258 . S
C309 O316 1.247 . S
C309 O317 1.258 . S
O310 C308 1.247 . S
O310 Zn311 2.028 . S
Zn311 O310 2.028 . S
Zn311 O315 2.035 . S
Zn311 O317 2.035 . S
Zn311 O318 2.028 . S
O312 C308 1.258 . S
O312 Zn313 2.035 . S
Zn313 O312 2.035 . S
Zn313 O314 2.028 . S
Zn313 O316 2.028 . S
Zn313 O319 2.035 . S
O314 Zn313 2.028 . S
O314 C320 1.247 . S
O315 Zn311 2.035 . S
O315 C320 1.258 . S
O316 C309 1.247 . S
O316 Zn313 2.028 . S
O317 C309 1.258 . S
O317 Zn311 2.035 . S
O318 Zn311 2.028 . S
O318 C321 1.247 . S
O319 Zn313 2.035 . S
O319 C321 1.258 . S
C320 O314 1.247 . S
C320 O315 1.258 . S
C321 O318 1.247 . S
C321 O319 1.258 . S
C322 O324 1.247 . S
C322 O326 1.258 . S
C323 O330 1.247 . S
C323 O331 1.258 . S
O324 C322 1.247 . S
O324 Zn325 2.028 . S
Zn325 O324 2.028 . S
Zn325 O329 2.035 . S
Zn325 O331 2.035 . S
Zn325 O332 2.028 . S
O326 C322 1.258 . S
O326 Zn327 2.035 . S
Zn327 O326 2.035 . S
Zn327 O328 2.028 . S
Zn327 O330 2.028 . S
Zn327 O333 2.035 . S
O328 Zn327 2.028 . S
O328 C334 1.247 . S
O329 Zn325 2.035 . S
O329 C334 1.258 . S
O330 C323 1.247 . S
O330 Zn327 2.028 . S
O331 C323 1.258 . S
O331 Zn325 2.035 . S
O332 Zn325 2.028 . S
O332 C335 1.247 . S
O333 Zn327 2.035 . S
O333 C335 1.258 . S
C334 O328 1.247 . S
C334 O329 1.258 . S
C335 O332 1.247 . S
C335 O333 1.258 . S
C336 O338 1.247 . S
C336 O340 1.258 . S
C337 O344 1.247 . S
C337 O345 1.258 . S
O338 C336 1.247 . S
O338 Zn339 2.028 . S
Zn339 O338 2.028 . S
Zn339 O343 2.035 . S
Zn339 O345 2.035 . S
Zn339 O346 2.028 . S
O340 C336 1.258 . S
O340 Zn341 2.035 . S
Zn341 O340 2.035 . S
Zn341 O342 2.028 . S
Zn341 O344 2.028 . S
Zn341 O347 2.035 . S
O342 Zn341 2.028 . S
O342 C348 1.247 . S
O343 Zn339 2.035 . S
O343 C348 1.258 . S
O344 C337 1.247 . S
O344 Zn341 2.028 . S
O345 C337 1.258 . S
O345 Zn339 2.035 . S
O346 Zn339 2.028 . S
O346 C349 1.247 . S
O347 Zn341 2.035 . S
O347 C349 1.258 . S
C348 O342 1.247 . S
C348 O343 1.258 . S
C349 O346 1.247 . S
C349 O347 1.258 . S
C350 O352 1.247 . S
C350 O354 1.258 . S
C351 O358 1.247 . S
C351 O359 1.258 . S
O352 C350 1.247 . S
O352 Zn353 2.028 . S
Zn353 O352 2.028 . S
Zn353 O357 2.035 . S
Zn353 O359 2.035 . S
Zn353 O360 2.028 . S
O354 C350 1.258 . S
O354 Zn355 2.035 . S
Zn355 O354 2.035 . S
Zn355 O356 2.028 . S
Zn355 O358 2.028 . S
Zn355 O361 2.035 . S
O356 Zn355 2.028 . S
O356 C362 1.247 . S
O357 Zn353 2.035 . S
O357 C362 1.258 . S
O358 C351 1.247 . S
O358 Zn355 2.028 . S
O359 C351 1.258 . S
O359 Zn353 2.035 . S
O360 Zn353 2.028 . S
O360 C363 1.247 . S
O361 Zn355 2.035 . S
O361 C363 1.258 . S
C362 O356 1.247 . S
C362 O357 1.258 . S
C363 O360 1.247 . S
C363 O361 1.258 . S
C364 O366 1.247 . S
C364 O368 1.258 . S
C365 O372 1.247 . S
C365 O373 1.258 . S
O366 C364 1.247 . S
O366 Zn367 2.028 . S
Zn367 O366 2.028 . S
Zn367 O371 2.035 . S
Zn367 O373 2.035 . S
Zn367 O374 2.028 . S
O368 C364 1.258 . S
O368 Zn369 2.035 . S
Zn369 O368 2.035 . S
Zn369 O370 2.028 . S
Zn369 O372 2.028 . S
Zn369 O375 2.035 . S
O370 Zn369 2.028 . S
O370 C376 1.247 . S
O371 Zn367 2.035 . S
O371 C376 1.258 . S
O372 C365 1.247 . S
O372 Zn369 2.028 . S
O373 C365 1.258 . S
O373 Zn367 2.035 . S
O374 Zn367 2.028 . S
O374 C377 1.247 . S
O375 Zn369 2.035 . S
O375 C377 1.258 . S
C376 O370 1.247 . S
C376 O371 1.258 . S
C377 O374 1.247 . S
C377 O375 1.258 . S
C378 O380 1.247 1_655 S
C378 O382 1.258 . S
C379 O386 1.247 . S
C379 O387 1.258 . S
O380 C378 1.247 1_455 S
O380 Zn381 2.028 . S
Zn381 O380 2.028 . S
Zn381 O385 2.035 1_455 S
Zn381 O387 2.035 . S
Zn381 O388 2.028 . S
O382 C378 1.258 . S
O382 Zn383 2.035 1_655 S
Zn383 O382 2.035 1_455 S
Zn383 O384 2.028 1_455 S
Zn383 O386 2.028 . S
Zn383 O389 2.035 . S
O384 Zn383 2.028 1_655 S
O384 C390 1.247 . S
O385 Zn381 2.035 1_655 S
O385 C390 1.258 . S
O386 C379 1.247 . S
O386 Zn383 2.028 . S
O387 C379 1.258 . S
O387 Zn381 2.035 . S
O388 Zn381 2.028 . S
O388 C391 1.247 . S
O389 Zn383 2.035 . S
O389 C391 1.258 . S
C390 O384 1.247 . S
C390 O385 1.258 . S
C391 O388 1.247 . S
C391 O389 1.258 . S
C392 O394 1.247 . S
C392 O396 1.258 . S
C393 O400 1.247 . S
C393 O401 1.258 . S
O394 C392 1.247 . S
O394 Zn395 2.028 . S
Zn395 O394 2.028 . S
Zn395 O399 2.035 . S
Zn395 O401 2.035 . S
Zn395 O402 2.028 . S
O396 C392 1.258 . S
O396 Zn397 2.035 . S
Zn397 O396 2.035 . S
Zn397 O398 2.028 . S
Zn397 O400 2.028 . S
Zn397 O403 2.035 . S
O398 Zn397 2.028 . S
O398 C404 1.247 . S
O399 Zn395 2.035 . S
O399 C404 1.258 . S
O400 C393 1.247 . S
O400 Zn397 2.028 . S
O401 C393 1.258 . S
O401 Zn395 2.035 . S
O402 Zn395 2.028 . S
O402 C405 1.247 . S
O403 Zn397 2.035 . S
O403 C405 1.258 . S
C404 O398 1.247 . S
C404 O399 1.258 . S
C405 O402 1.247 . S
C405 O403 1.258 . S
C406 O408 1.247 . S
C406 O410 1.258 . S
C407 O414 1.247 . S
C407 O415 1.258 . S
O408 C406 1.247 . S
O408 Zn409 2.028 1_655 S
Zn409 O408 2.028 1_455 S
Zn409 O413 2.035 1_455 S
Zn409 O415 2.035 . S
Zn409 O416 2.028 . S
O410 C406 1.258 . S
O410 Zn411 2.035 1_655 S
Zn411 O410 2.035 1_455 S
Zn411 O412 2.028 . S
Zn411 O414 2.028 . S
Zn411 O417 2.035 . S
O412 Zn411 2.028 . S
O412 C418 1.247 1_455 S
O413 Zn409 2.035 1_655 S
O413 C418 1.258 . S
O414 C407 1.247 . S
O414 Zn411 2.028 . S
O415 C407 1.258 . S
O415 Zn409 2.035 . S
O416 Zn409 2.028 . S
O416 C419 1.247 . S
O417 Zn411 2.035 . S
O417 C419 1.258 . S
C418 O412 1.247 1_655 S
C418 O413 1.258 . S
C419 O416 1.247 . S
C419 O417 1.258 . S
C420 O422 1.247 . S
C420 O424 1.258 . S
C421 O428 1.247 . S
C421 O429 1.258 . S
O422 C420 1.247 . S
O422 Zn423 2.028 . S
Zn423 O422 2.028 . S
Zn423 O427 2.035 . S
Zn423 O429 2.035 . S
Zn423 O430 2.028 . S
O424 C420 1.258 . S
O424 Zn425 2.035 . S
Zn425 O424 2.035 . S
Zn425 O426 2.028 . S
Zn425 O428 2.028 . S
Zn425 O431 2.035 . S
O426 Zn425 2.028 . S
O426 C432 1.247 . S
O427 Zn423 2.035 . S
O427 C432 1.258 . S
O428 C421 1.247 . S
O428 Zn425 2.028 . S
O429 C421 1.258 . S
O429 Zn423 2.035 . S
O430 Zn423 2.028 . S
O430 C433 1.247 . S
O431 Zn425 2.035 . S
O431 C433 1.258 . S
C432 O426 1.247 . S
C432 O427 1.258 . S
C433 O430 1.247 . S
C433 O431 1.258 . S
C434 O436 1.247 . S
C434 O438 1.258 . S
C435 O442 1.247 . S
C435 O443 1.258 . S
O436 C434 1.247 . S
O436 Zn437 2.028 . S
Zn437 O436 2.028 . S
Zn437 O441 2.035 . S
Zn437 O443 2.035 . S
Zn437 O444 2.028 . S
O438 C434 1.258 . S
O438 Zn439 2.035 . S
Zn439 O438 2.035 . S
Zn439 O440 2.028 . S
Zn439 O442 2.028 . S
Zn439 O445 2.035 . S
O440 Zn439 2.028 . S
O440 C446 1.247 . S
O441 Zn437 2.035 . S
O441 C446 1.258 . S
O442 C435 1.247 . S
O442 Zn439 2.028 . S
O443 C435 1.258 . S
O443 Zn437 2.035 . S
O444 Zn437 2.028 . S
O444 C447 1.247 . S
O445 Zn439 2.035 . S
O445 C447 1.258 . S
C446 O440 1.247 . S
C446 O441 1.258 . S
C447 O444 1.247 . S
C447 O445 1.258 . S
C448 O450 1.247 . S
C448 O452 1.258 . S
C449 O456 1.247 . S
C449 O457 1.258 . S
O450 C448 1.247 . S
O450 Zn451 2.028 . S
Zn451 O450 2.028 . S
Zn451 O455 2.035 . S
Zn451 O457 2.035 . S
Zn451 O458 2.028 . S
O452 C448 1.258 . S
O452 Zn453 2.035 . S
Zn453 O452 2.035 . S
Zn453 O454 2.028 . S
Zn453 O456 2.028 . S
Zn453 O459 2.035 . S
O454 Zn453 2.028 . S
O454 C460 1.247 . S
O455 Zn451 2.035 . S
O455 C460 1.258 . S
O456 C449 1.247 . S
O456 Zn453 2.028 . S
O457 C449 1.258 . S
O457 Zn451 2.035 . S
O458 Zn451 2.028 . S
O458 C461 1.247 . S
O459 Zn453 2.035 . S
O459 C461 1.258 . S
C460 O454 1.247 . S
C460 O455 1.258 . S
C461 O458 1.247 . S
C461 O459 1.258 . S
C462 O464 1.247 . S
C462 O466 1.258 . S
C463 O470 1.247 . S
C463 O471 1.258 . S
O464 C462 1.247 . S
O464 Zn465 2.028 1_556 S
Zn465 O464 2.028 1_554 S
Zn465 O469 2.035 1_554 S
Zn465 O471 2.035 . S
Zn465 O472 2.028 . S
O466 C462 1.258 . S
O466 Zn467 2.035 1_556 S
Zn467 O466 2.035 1_554 S
Zn467 O468 2.028 . S
Zn467 O470 2.028 . S
Zn467 O473 2.035 . S
O468 Zn467 2.028 . S
O468 C474 1.247 1_554 S
O469 Zn465 2.035 1_556 S
O469 C474 1.258 . S
O470 C463 1.247 . S
O470 Zn467 2.028 . S
O471 C463 1.258 . S
O471 Zn465 2.035 . S
O472 Zn465 2.028 . S
O472 C475 1.247 . S
O473 Zn467 2.035 . S
O473 C475 1.258 . S
C474 O468 1.247 1_556 S
C474 O469 1.258 . S
C475 O472 1.247 . S
C475 O473 1.258 . S
C476 O478 1.247 . S
C476 O480 1.258 . S
C477 O484 1.247 . S
C477 O485 1.258 . S
O478 C476 1.247 . S
O478 Zn479 2.028 . S
Zn479 O478 2.028 . S
Zn479 O483 2.035 . S
Zn479 O485 2.035 . S
Zn479 O486 2.028 . S
O480 C476 1.258 . S
O480 Zn481 2.035 . S
Zn481 O480 2.035 . S
Zn481 O482 2.028 . S
Zn481 O484 2.028 . S
Zn481 O487 2.035 . S
O482 Zn481 2.028 . S
O482 C488 1.247 . S
O483 Zn479 2.035 . S
O483 C488 1.258 . S
O484 C477 1.247 . S
O484 Zn481 2.028 . S
O485 C477 1.258 . S
O485 Zn479 2.035 . S
O486 Zn479 2.028 . S
O486 C489 1.247 . S
O487 Zn481 2.035 . S
O487 C489 1.258 . S
C488 O482 1.247 . S
C488 O483 1.258 . S
C489 O486 1.247 . S
C489 O487 1.258 . S
C490 O492 1.247 . S
C490 O494 1.258 . S
C491 O498 1.247 . S
C491 O499 1.258 . S
O492 C490 1.247 . S
O492 Zn493 2.028 . S
Zn493 O492 2.028 . S
Zn493 O497 2.035 . S
Zn493 O499 2.035 . S
Zn493 O500 2.028 . S
O494 C490 1.258 . S
O494 Zn495 2.035 . S
Zn495 O494 2.035 . S
Zn495 O496 2.028 . S
Zn495 O498 2.028 . S
Zn495 O501 2.035 . S
O496 Zn495 2.028 . S
O496 C502 1.247 . S
O497 Zn493 2.035 . S
O497 C502 1.258 . S
O498 C491 1.247 . S
O498 Zn495 2.028 . S
O499 C491 1.258 . S
O499 Zn493 2.035 . S
O500 Zn493 2.028 . S
O500 C503 1.247 . S
O501 Zn495 2.035 . S
O501 C503 1.258 . S
C502 O496 1.247 . S
C502 O497 1.258 . S
C503 O500 1.247 . S
C503 O501 1.258 . S
C504 O506 1.247 . S
C504 O508 1.258 . S
C505 O512 1.247 . S
C505 O513 1.258 . S
O506 C504 1.247 . S
O506 Zn507 2.028 . S
Zn507 O506 2.028 . S
Zn507 O511 2.035 . S
Zn507 O513 2.035 . S
Zn507 O514 2.028 . S
O508 C504 1.258 . S
O508 Zn509 2.035 . S
Zn509 O508 2.035 . S
Zn509 O510 2.028 . S
Zn509 O512 2.028 . S
Zn509 O515 2.035 . S
O510 Zn509 2.028 . S
O510 C516 1.247 . S
O511 Zn507 2.035 . S
O511 C516 1.258 . S
O512 C505 1.247 . S
O512 Zn509 2.028 . S
O513 C505 1.258 . S
O513 Zn507 2.035 . S
O514 Zn507 2.028 . S
O514 C517 1.247 . S
O515 Zn509 2.035 . S
O515 C517 1.258 . S
C516 O510 1.247 . S
C516 O511 1.258 . S
C517 O514 1.247 . S
C517 O515 1.258 . S
C518 O520 1.247 . S
C518 O522 1.258 . S
C519 O526 1.247 . S
C519 O527 1.258 . S
O520 C518 1.247 . S
O520 Zn521 2.028 . S
Zn521 O520 2.028 . S
Zn521 O525 2.035 . S
Zn521 O527 2.035 1_556 S
Zn521 O528 2.028 1_556 S
O522 C518 1.258 . S
O522 Zn523 2.035 . S
Zn523 O522 2.035 . S
Zn523 O524 2.028 . S
Zn523 O526 2.028 1_556 S
Zn523 O529 2.035 . S
O524 Zn523 2.028 . S
O524 C530 1.247 . S
O525 Zn521 2.035 . S
O525 C530 1.258 . S
O526 C519 1.247 . S
O526 Zn523 2.028 1_554 S
O527 C519 1.258 . S
O527 Zn521 2.035 1_554 S
O528 Zn521 2.028 1_554 S
O528 C531 1.247 . S
O529 Zn523 2.035 . S
O529 C531 1.258 1_556 S
C530 O524 1.247 . S
C530 O525 1.258 . S
C531 O528 1.247 . S
C531 O529 1.258 1_554 S
C532 O534 1.247 . S
C532 O536 1.258 . S
C533 O540 1.247 . S
C533 O541 1.258 . S
O534 C532 1.247 . S
O534 Zn535 2.028 . S
Zn535 O534 2.028 . S
Zn535 O539 2.035 . S
Zn535 O541 2.035 . S
Zn535 O542 2.028 . S
O536 C532 1.258 . S
O536 Zn537 2.035 . S
Zn537 O536 2.035 . S
Zn537 O538 2.028 . S
Zn537 O540 2.028 . S
Zn537 O543 2.035 . S
O538 Zn537 2.028 . S
O538 C544 1.247 . S
O539 Zn535 2.035 . S
O539 C544 1.258 . S
O540 C533 1.247 . S
O540 Zn537 2.028 . S
O541 C533 1.258 . S
O541 Zn535 2.035 . S
O542 Zn535 2.028 . S
O542 C545 1.247 . S
O543 Zn537 2.035 . S
O543 C545 1.258 . S
C544 O538 1.247 . S
C544 O539 1.258 . S
C545 O542 1.247 . S
C545 O543 1.258 . S
C546 O548 1.247 . S
C546 O550 1.258 . S
C547 O554 1.247 . S
C547 O555 1.258 . S
O548 C546 1.247 . S
O548 Zn549 2.028 . S
Zn549 O548 2.028 . S
Zn549 O553 2.035 . S
Zn549 O555 2.035 . S
Zn549 O556 2.028 . S
O550 C546 1.258 . S
O550 Zn551 2.035 . S
Zn551 O550 2.035 . S
Zn551 O552 2.028 . S
Zn551 O554 2.028 . S
Zn551 O557 2.035 . S
O552 Zn551 2.028 . S
O552 C558 1.247 . S
O553 Zn549 2.035 . S
O553 C558 1.258 . S
O554 C547 1.247 . S
O554 Zn551 2.028 . S
O555 C547 1.258 . S
O555 Zn549 2.035 . S
O556 Zn549 2.028 . S
O556 C559 1.247 . S
O557 Zn551 2.035 . S
O557 C559 1.258 . S
C558 O552 1.247 . S
C558 O553 1.258 . S
C559 O556 1.247 . S
C559 O557 1.258 . S
C560 O562 1.247 . S
C560 O564 1.258 . S
C561 O568 1.247 . S
C561 O569 1.258 . S
O562 C560 1.247 . S
O562 Zn563 2.028 . S
Zn563 O562 2.028 . S
Zn563 O567 2.035 . S
Zn563 O569 2.035 . S
Zn563 O570 2.028 . S
O564 C560 1.258 . S
O564 Zn565 2.035 . S
Zn565 O564 2.035 . S
Zn565 O566 2.028 . S
Zn565 O568 2.028 . S
Zn565 O571 2.035 . S
O566 Zn565 2.028 . S
O566 C572 1.247 . S
O567 Zn563 2.035 . S
O567 C572 1.258 . S
O568 C561 1.247 . S
O568 Zn565 2.028 . S
O569 C561 1.258 . S
O569 Zn563 2.035 . S
O570 Zn563 2.028 . S
O570 C573 1.247 . S
O571 Zn565 2.035 . S
O571 C573 1.258 . S
C572 O566 1.247 . S
C572 O567 1.258 . S
C573 O570 1.247 . S
C573 O571 1.258 . S
C574 O576 1.247 . S
C574 O578 1.258 . S
C575 O582 1.247 . S
C575 O583 1.258 . S
O576 C574 1.247 . S
O576 Zn577 2.028 . S
Zn577 O576 2.028 . S
Zn577 O581 2.035 . S
Zn577 O583 2.035 . S
Zn577 O584 2.028 . S
O578 C574 1.258 . S
O578 Zn579 2.035 . S
Zn579 O578 2.035 . S
Zn579 O580 2.028 . S
Zn579 O582 2.028 . S
Zn579 O585 2.035 . S
O580 Zn579 2.028 . S
O580 C586 1.247 . S
O581 Zn577 2.035 . S
O581 C586 1.258 . S
O582 C575 1.247 . S
O582 Zn579 2.028 . S
O583 C575 1.258 . S
O583 Zn577 2.035 . S
O584 Zn577 2.028 . S
O584 C587 1.247 . S
O585 Zn579 2.035 . S
O585 C587 1.258 . S
C586 O580 1.247 . S
C586 O581 1.258 . S
C587 O584 1.247 . S
C587 O585 1.258 . S
C588 O590 1.247 . S
C588 O592 1.258 . S
C589 O596 1.247 . S
C589 O597 1.258 . S
O590 C588 1.247 . S
O590 Zn591 2.028 1_565 S
Zn591 O590 2.028 1_545 S
Zn591 O595 2.035 1_545 S
Zn591 O597 2.035 . S
Zn591 O598 2.028 . S
O592 C588 1.258 . S
O592 Zn593 2.035 1_565 S
Zn593 O592 2.035 1_545 S
Zn593 O594 2.028 . S
Zn593 O596 2.028 . S
Zn593 O599 2.035 . S
O594 Zn593 2.028 . S
O594 C600 1.247 1_545 S
O595 Zn591 2.035 1_565 S
O595 C600 1.258 . S
O596 C589 1.247 . S
O596 Zn593 2.028 . S
O597 C589 1.258 . S
O597 Zn591 2.035 . S
O598 Zn591 2.028 . S
O598 C601 1.247 . S
O599 Zn593 2.035 . S
O599 C601 1.258 . S
C600 O594 1.247 1_565 S
C600 O595 1.258 . S
C601 O598 1.247 . S
C601 O599 1.258 . S
C602 O604 1.247 . S
C602 O606 1.258 . S
C603 O610 1.247 . S
C603 O611 1.258 . S
O604 C602 1.247 . S
O604 Zn605 2.028 . S
Zn605 O604 2.028 . S
Zn605 O609 2.035 . S
Zn605 O611 2.035 . S
Zn605 O612 2.028 . S
O606 C602 1.258 . S
O606 Zn607 2.035 . S
Zn607 O606 2.035 . S
Zn607 O608 2.028 . S
Zn607 O610 2.028 . S
Zn607 O613 2.035 . S
O608 Zn607 2.028 . S
O608 C614 1.247 . S
O609 Zn605 2.035 . S
O609 C614 1.258 . S
O610 C603 1.247 . S
O610 Zn607 2.028 . S
O611 C603 1.258 . S
O611 Zn605 2.035 . S
O612 Zn605 2.028 . S
O612 C615 1.247 . S
O613 Zn607 2.035 . S
O613 C615 1.258 . S
C614 O608 1.247 . S
C614 O609 1.258 . S
C615 O612 1.247 . S
C615 O613 1.258 . S
C616 O618 1.247 . S
C616 O620 1.258 . S
C617 O624 1.247 . S
C617 O625 1.258 . S
O618 C616 1.247 . S
O618 Zn619 2.028 . S
Zn619 O618 2.028 . S
Zn619 O623 2.035 . S
Zn619 O625 2.035 . S
Zn619 O626 2.028 . S
O620 C616 1.258 . S
O620 Zn621 2.035 . S
Zn621 O620 2.035 . S
Zn621 O622 2.028 . S
Zn621 O624 2.028 . S
Zn621 O627 2.035 . S
O622 Zn621 2.028 . S
O622 C628 1.247 . S
O623 Zn619 2.035 . S
O623 C628 1.258 . S
O624 C617 1.247 . S
O624 Zn621 2.028 . S
O625 C617 1.258 . S
O625 Zn619 2.035 . S
O626 Zn619 2.028 . S
O626 C629 1.247 . S
O627 Zn621 2.035 . S
O627 C629 1.258 . S
C628 O622 1.247 . S
C628 O623 1.258 . S
C629 O626 1.247 . S
C629 O627 1.258 . S
C630 O632 1.247 . S
C630 O634 1.258 . S
C631 O638 1.247 . S
C631 O639 1.258 . S
O632 C630 1.247 . S
O632 Zn633 2.028 . S
Zn633 O632 2.028 . S
Zn633 O637 2.035 . S
Zn633 O639 2.035 . S
Zn633 O640 2.028 . S
O634 C630 1.258 . S
O634 Zn635 2.035 . S
Zn635 O634 2.035 . S
Zn635 O636 2.028 . S
Zn635 O638 2.028 . S
Zn635 O641 2.035 . S
O636 Zn635 2.028 . S
O636 C642 1.247 . S
O637 Zn633 2.035 . S
O637 C642 1.258 . S
O638 C631 1.247 . S
O638 Zn635 2.028 . S
O639 C631 1.258 . S
O639 Zn633 2.035 . S
O640 Zn633 2.028 . S
O640 C643 1.247 . S
O641 Zn635 2.035 . S
O641 C643 1.258 . S
C642 O636 1.247 . S
C642 O637 1.258 . S
C643 O640 1.247 . S
C643 O641 1.258 . S
C644 O646 1.247 . S
C644 O648 1.258 . S
C645 O652 1.247 . S
C645 O653 1.258 . S
O646 C644 1.247 . S
O646 Zn647 2.028 1_545 S
Zn647 O646 2.028 1_565 S
Zn647 O651 2.035 1_565 S
Zn647 O653 2.035 . S
Zn647 O654 2.028 . S
O648 C644 1.258 . S
O648 Zn649 2.035 1_545 S
Zn649 O648 2.035 1_565 S
Zn649 O650 2.028 . S
Zn649 O652 2.028 . S
Zn649 O655 2.035 . S
O650 Zn649 2.028 . S
O650 C656 1.247 1_565 S
O651 Zn647 2.035 1_545 S
O651 C656 1.258 . S
O652 C645 1.247 . S
O652 Zn649 2.028 . S
O653 C645 1.258 . S
O653 Zn647 2.035 . S
O654 Zn647 2.028 . S
O654 C657 1.247 . S
O655 Zn649 2.035 . S
O655 C657 1.258 . S
C656 O650 1.247 1_545 S
C656 O651 1.258 . S
C657 O654 1.247 . S
C657 O655 1.258 . S
C658 O660 1.247 1_565 S
C658 O662 1.258 . S
C659 O666 1.247 . S
C659 O667 1.258 . S
O660 C658 1.247 1_545 S
O660 Zn661 2.028 . S
Zn661 O660 2.028 . S
Zn661 O665 2.035 1_545 S
Zn661 O667 2.035 . S
Zn661 O668 2.028 . S
O662 C658 1.258 . S
O662 Zn663 2.035 1_565 S
Zn663 O662 2.035 1_545 S
Zn663 O664 2.028 1_545 S
Zn663 O666 2.028 . S
Zn663 O669 2.035 . S
O664 Zn663 2.028 1_565 S
O664 C670 1.247 . S
O665 Zn661 2.035 1_565 S
O665 C670 1.258 . S
O666 C659 1.247 . S
O666 Zn663 2.028 . S
O667 C659 1.258 . S
O667 Zn661 2.035 . S
O668 Zn661 2.028 . S
O668 C671 1.247 . S
O669 Zn663 2.035 . S
O669 C671 1.258 . S
C670 O664 1.247 . S
C670 O665 1.258 . S
C671 O668 1.247 . S
C671 O669 1.258 . S
C672 C673 1.369 . S
C672 C674 1.419 . S
C672 H676 0.930 . S
C673 C672 1.369 . S
C673 C682 1.429 . S
C674 C672 1.419 . S
C674 C675 1.363 . S
C674 H677 0.929 . S
C675 C674 1.363 . S
C675 C681 1.428 . S
H676 C672 0.930 . S
H677 C674 0.929 . S
S678 N679 1.613 . S
S678 N680 1.610 . S
N679 S678 1.613 . S
N679 C682 1.350 . S
N680 S678 1.610 . S
N680 C681 1.351 . S
C681 C675 1.428 . S
C681 N680 1.351 . S
C681 C682 1.434 . S
C682 C673 1.429 . S
C682 N679 1.350 . S
C682 C681 1.434 . S
C683 C684 1.369 . S
C683 C685 1.419 . S
C683 H687 0.930 . S
C684 C683 1.369 . S
C684 C693 1.429 . S
C685 C683 1.419 . S
C685 C686 1.363 . S
C685 H688 0.929 . S
C686 C685 1.363 . S
C686 C692 1.428 . S
H687 C683 0.930 . S
H688 C685 0.929 . S
S689 N690 1.613 . S
S689 N691 1.610 . S
N690 S689 1.613 . S
N690 C693 1.350 . S
N691 S689 1.610 . S
N691 C692 1.351 . S
C692 C686 1.428 . S
C692 N691 1.351 . S
C692 C693 1.434 . S
C693 C684 1.429 . S
C693 N690 1.350 . S
C693 C692 1.434 . S
C694 C695 1.369 . S
C694 C696 1.419 . S
C694 H698 0.930 . S
C695 C694 1.369 . S
C695 C704 1.429 . S
C696 C694 1.419 . S
C696 C697 1.363 . S
C696 H699 0.929 . S
C697 C696 1.363 . S
C697 C703 1.428 . S
H698 C694 0.930 . S
H699 C696 0.929 . S
S700 N701 1.613 . S
S700 N702 1.610 . S
N701 S700 1.613 . S
N701 C704 1.350 . S
N702 S700 1.610 . S
N702 C703 1.351 . S
C703 C697 1.428 . S
C703 N702 1.351 . S
C703 C704 1.434 . S
C704 C695 1.429 . S
C704 N701 1.350 . S
C704 C703 1.434 . S
C705 C706 1.369 . S
C705 C707 1.419 . S
C705 H709 0.930 . S
C706 C705 1.369 . S
C706 C715 1.429 . S
C707 C705 1.419 . S
C707 C708 1.363 . S
C707 H710 0.929 . S
C708 C707 1.363 . S
C708 C714 1.428 . S
H709 C705 0.930 . S
H710 C707 0.929 . S
S711 N712 1.613 . S
S711 N713 1.610 . S
N712 S711 1.613 . S
N712 C715 1.350 . S
N713 S711 1.610 . S
N713 C714 1.351 . S
C714 C708 1.428 . S
C714 N713 1.351 . S
C714 C715 1.434 . S
C715 C706 1.429 . S
C715 N712 1.350 . S
C715 C714 1.434 . S
C716 C717 1.369 . S
C716 C718 1.419 . S
C716 H720 0.930 . S
C717 C716 1.369 . S
C717 C726 1.429 . S
C718 C716 1.419 . S
C718 C719 1.363 . S
C718 H721 0.929 . S
C719 C718 1.363 . S
C719 C725 1.428 . S
H720 C716 0.930 . S
H721 C718 0.929 . S
S722 N723 1.613 . S
S722 N724 1.610 . S
N723 S722 1.613 . S
N723 C726 1.350 . S
N724 S722 1.610 . S
N724 C725 1.351 . S
C725 C719 1.428 . S
C725 N724 1.351 . S
C725 C726 1.434 . S
C726 C717 1.429 . S
C726 N723 1.350 . S
C726 C725 1.434 . S
C727 C728 1.369 . S
C727 C729 1.419 . S
C727 H731 0.930 . S
C728 C727 1.369 . S
C728 C737 1.429 . S
C729 C727 1.419 . S
C729 C730 1.363 . S
C729 H732 0.929 . S
C730 C729 1.363 . S
C730 C736 1.428 . S
H731 C727 0.930 . S
H732 C729 0.929 . S
S733 N734 1.613 . S
S733 N735 1.610 . S
N734 S733 1.613 . S
N734 C737 1.350 . S
N735 S733 1.610 . S
N735 C736 1.351 . S
C736 C730 1.428 . S
C736 N735 1.351 . S
C736 C737 1.434 . S
C737 C728 1.429 . S
C737 N734 1.350 . S
C737 C736 1.434 . S
C738 C739 1.369 . S
C738 C740 1.419 . S
C738 H742 0.930 . S
C739 C738 1.369 . S
C739 C748 1.429 . S
C740 C738 1.419 . S
C740 C741 1.363 . S
C740 H743 0.929 . S
C741 C740 1.363 . S
C741 C747 1.428 . S
H742 C738 0.930 . S
H743 C740 0.929 . S
S744 N745 1.613 . S
S744 N746 1.610 . S
N745 S744 1.613 . S
N745 C748 1.350 . S
N746 S744 1.610 . S
N746 C747 1.351 . S
C747 C741 1.428 . S
C747 N746 1.351 . S
C747 C748 1.434 . S
C748 C739 1.429 . S
C748 N745 1.350 . S
C748 C747 1.434 . S
C749 C750 1.369 . S
C749 C751 1.419 . S
C749 H753 0.930 . S
C750 C749 1.369 . S
C750 C759 1.429 . S
C751 C749 1.419 . S
C751 C752 1.363 . S
C751 H754 0.929 . S
C752 C751 1.363 . S
C752 C758 1.428 . S
H753 C749 0.930 . S
H754 C751 0.929 . S
S755 N756 1.613 . S
S755 N757 1.610 . S
N756 S755 1.613 . S
N756 C759 1.350 . S
N757 S755 1.610 . S
N757 C758 1.351 . S
C758 C752 1.428 . S
C758 N757 1.351 . S
C758 C759 1.434 . S
C759 C750 1.429 . S
C759 N756 1.350 . S
C759 C758 1.434 . S
C760 C761 1.369 . S
C760 C762 1.419 . S
C760 H764 0.930 . S
C761 C760 1.369 . S
C761 C770 1.429 . S
C762 C760 1.419 . S
C762 C763 1.363 . S
C762 H765 0.929 . S
C763 C762 1.363 . S
C763 C769 1.428 . S
H764 C760 0.930 . S
H765 C762 0.929 . S
S766 N767 1.613 . S
S766 N768 1.610 . S
N767 S766 1.613 . S
N767 C770 1.350 . S
N768 S766 1.610 . S
N768 C769 1.351 . S
C769 C763 1.428 . S
C769 N768 1.351 . S
C769 C770 1.434 . S
C770 C761 1.429 . S
C770 N767 1.350 . S
C770 C769 1.434 . S
C771 C772 1.369 . S
C771 C773 1.419 . S
C771 H775 0.930 . S
C772 C771 1.369 . S
C772 C781 1.429 . S
C773 C771 1.419 . S
C773 C774 1.363 . S
C773 H776 0.929 . S
C774 C773 1.363 . S
C774 C780 1.428 . S
H775 C771 0.930 . S
H776 C773 0.929 . S
S777 N778 1.613 . S
S777 N779 1.609 1_545 S
N778 S777 1.613 . S
N778 C781 1.350 . S
N779 S777 1.609 1_565 S
N779 C780 1.327 1_565 S
C780 C774 1.428 . S
C780 N779 1.327 1_545 S
C780 C781 1.434 . S
C781 C772 1.429 . S
C781 N778 1.350 . S
C781 C780 1.434 . S
C782 C783 1.369 . S
C782 C784 1.419 . S
C782 H786 0.930 . S
C783 C782 1.369 . S
C783 C792 1.429 . S
C784 C782 1.419 . S
C784 C785 1.363 . S
C784 H787 0.929 . S
C785 C784 1.363 . S
C785 C791 1.428 . S
H786 C782 0.930 . S
H787 C784 0.929 . S
S788 N789 1.613 . S
S788 N790 1.610 . S
N789 S788 1.613 . S
N789 C792 1.350 . S
N790 S788 1.610 . S
N790 C791 1.351 . S
C791 C785 1.428 . S
C791 N790 1.351 . S
C791 C792 1.434 . S
C792 C783 1.429 . S
C792 N789 1.350 . S
C792 C791 1.434 . S
C793 C794 1.369 . S
C793 C795 1.419 . S
C793 H797 0.930 . S
C794 C793 1.369 . S
C794 C803 1.429 . S
C795 C793 1.419 . S
C795 C796 1.363 . S
C795 H798 0.929 . S
C796 C795 1.363 . S
C796 C802 1.428 . S
H797 C793 0.930 . S
H798 C795 0.929 . S
S799 N800 1.613 . S
S799 N801 1.610 . S
N800 S799 1.613 . S
N800 C803 1.350 . S
N801 S799 1.610 . S
N801 C802 1.351 . S
C802 C796 1.428 . S
C802 N801 1.351 . S
C802 C803 1.434 . S
C803 C794 1.429 . S
C803 N800 1.350 . S
C803 C802 1.434 . S
C804 C805 1.369 . S
C804 C806 1.419 . S
C804 H808 0.930 . S
C805 C804 1.369 . S
C805 C814 1.429 . S
C806 C804 1.419 . S
C806 C807 1.363 . S
C806 H809 0.929 . S
C807 C806 1.363 . S
C807 C813 1.428 . S
H808 C804 0.930 . S
H809 C806 0.929 . S
S810 N811 1.613 . S
S810 N812 1.610 . S
N811 S810 1.613 . S
N811 C814 1.350 . S
N812 S810 1.610 . S
N812 C813 1.351 . S
C813 C807 1.428 . S
C813 N812 1.351 . S
C813 C814 1.434 . S
C814 C805 1.429 . S
C814 N811 1.350 . S
C814 C813 1.434 . S
C815 C816 1.369 . S
C815 C817 1.419 . S
C815 H819 0.930 . S
C816 C815 1.369 . S
C816 C825 1.429 . S
C817 C815 1.419 . S
C817 C818 1.363 . S
C817 H820 0.929 . S
C818 C817 1.363 . S
C818 C824 1.428 . S
H819 C815 0.930 . S
H820 C817 0.929 . S
S821 N822 1.613 . S
S821 N823 1.610 . S
N822 S821 1.613 . S
N822 C825 1.350 . S
N823 S821 1.610 . S
N823 C824 1.351 . S
C824 C818 1.428 . S
C824 N823 1.351 . S
C824 C825 1.434 . S
C825 C816 1.429 . S
C825 N822 1.350 . S
C825 C824 1.434 . S
C826 C827 1.369 . S
C826 C828 1.419 . S
C826 H830 0.930 . S
C827 C826 1.369 . S
C827 C836 1.429 . S
C828 C826 1.419 . S
C828 C829 1.363 . S
C828 H831 0.929 . S
C829 C828 1.363 . S
C829 C835 1.428 . S
H830 C826 0.930 . S
H831 C828 0.929 . S
S832 N833 1.613 . S
S832 N834 1.610 . S
N833 S832 1.613 . S
N833 C836 1.350 . S
N834 S832 1.610 . S
N834 C835 1.351 . S
C835 C829 1.428 . S
C835 N834 1.351 . S
C835 C836 1.434 . S
C836 C827 1.429 . S
C836 N833 1.350 . S
C836 C835 1.434 . S
C837 C838 1.369 . S
C837 C839 1.419 . S
C837 H841 0.930 . S
C838 C837 1.369 . S
C838 C847 1.429 . S
C839 C837 1.419 . S
C839 C840 1.363 . S
C839 H842 0.929 . S
C840 C839 1.363 . S
C840 C846 1.428 . S
H841 C837 0.930 . S
H842 C839 0.929 . S
S843 N844 1.613 . S
S843 N845 1.610 . S
N844 S843 1.613 . S
N844 C847 1.350 . S
N845 S843 1.610 . S
N845 C846 1.351 . S
C846 C840 1.428 . S
C846 N845 1.351 . S
C846 C847 1.434 . S
C847 C838 1.429 . S
C847 N844 1.350 . S
C847 C846 1.434 . S
C848 C849 1.369 . S
C848 C850 1.419 . S
C848 H852 0.930 . S
C849 C848 1.369 . S
C849 C858 1.429 . S
C850 C848 1.419 . S
C850 C851 1.363 . S
C850 H853 0.929 . S
C851 C850 1.363 . S
C851 C857 1.428 . S
H852 C848 0.930 . S
H853 C850 0.929 . S
S854 N855 1.613 . S
S854 N856 1.610 . S
N855 S854 1.613 . S
N855 C858 1.350 . S
N856 S854 1.610 . S
N856 C857 1.351 . S
C857 C851 1.428 . S
C857 N856 1.351 . S
C857 C858 1.434 . S
C858 C849 1.429 . S
C858 N855 1.350 . S
C858 C857 1.434 . S
C859 C860 1.369 . S
C859 C861 1.419 . S
C859 H863 0.930 . S
C860 C859 1.369 . S
C860 C869 1.429 . S
C861 C859 1.419 . S
C861 C862 1.363 . S
C861 H864 0.929 . S
C862 C861 1.363 . S
C862 C868 1.428 . S
H863 C859 0.930 . S
H864 C861 0.929 . S
S865 N866 1.613 . S
S865 N867 1.610 . S
N866 S865 1.613 . S
N866 C869 1.350 . S
N867 S865 1.610 . S
N867 C868 1.351 . S
C868 C862 1.428 . S
C868 N867 1.351 . S
C868 C869 1.434 . S
C869 C860 1.429 . S
C869 N866 1.350 . S
C869 C868 1.434 . S
C870 C871 1.369 . S
C870 C872 1.419 . S
C870 H874 0.930 . S
C871 C870 1.369 . S
C871 C880 1.429 . S
C872 C870 1.419 . S
C872 C873 1.363 . S
C872 H875 0.929 . S
C873 C872 1.363 . S
C873 C879 1.428 . S
H874 C870 0.930 . S
H875 C872 0.929 . S
S876 N877 1.613 . S
S876 N878 1.610 . S
N877 S876 1.613 . S
N877 C880 1.350 . S
N878 S876 1.610 . S
N878 C879 1.351 . S
C879 C873 1.428 . S
C879 N878 1.351 . S
C879 C880 1.434 . S
C880 C871 1.429 . S
C880 N877 1.350 . S
C880 C879 1.434 . S
C881 C882 1.369 . S
C881 C883 1.419 . S
C881 H885 0.930 . S
C882 C881 1.369 . S
C882 C891 1.429 . S
C883 C881 1.419 . S
C883 C884 1.363 . S
C883 H886 0.929 . S
C884 C883 1.363 . S
C884 C890 1.428 . S
H885 C881 0.930 . S
H886 C883 0.929 . S
S887 N888 1.613 . S
S887 N889 1.610 . S
N888 S887 1.613 . S
N888 C891 1.350 . S
N889 S887 1.610 . S
N889 C890 1.351 . S
C890 C884 1.428 . S
C890 N889 1.351 . S
C890 C891 1.434 . S
C891 C882 1.429 . S
C891 N888 1.350 . S
C891 C890 1.434 . S
C892 C893 1.369 . S
C892 C894 1.419 . S
C892 H896 0.930 . S
C893 C892 1.369 . S
C893 C902 1.429 . S
C894 C892 1.419 . S
C894 C895 1.363 . S
C894 H897 0.929 . S
C895 C894 1.363 . S
C895 C901 1.428 . S
H896 C892 0.930 . S
H897 C894 0.929 . S
S898 N899 1.613 . S
S898 N900 1.610 . S
N899 S898 1.613 . S
N899 C902 1.350 . S
N900 S898 1.610 . S
N900 C901 1.351 . S
C901 C895 1.428 . S
C901 N900 1.351 . S
C901 C902 1.434 . S
C902 C893 1.429 . S
C902 N899 1.350 . S
C902 C901 1.434 . S
C903 C904 1.369 . S
C903 C905 1.419 . S
C903 H907 0.930 . S
C904 C903 1.369 . S
C904 C913 1.429 . S
C905 C903 1.419 . S
C905 C906 1.363 . S
C905 H908 0.929 . S
C906 C905 1.363 . S
C906 C912 1.428 . S
H907 C903 0.930 . S
H908 C905 0.929 . S
S909 N910 1.613 . S
S909 N911 1.610 . S
N910 S909 1.613 . S
N910 C913 1.350 . S
N911 S909 1.610 . S
N911 C912 1.351 . S
C912 C906 1.428 . S
C912 N911 1.351 . S
C912 C913 1.434 . S
C913 C904 1.429 . S
C913 N910 1.350 . S
C913 C912 1.434 . S
C914 C915 1.369 . S
C914 C916 1.419 . S
C914 H918 0.930 . S
C915 C914 1.369 . S
C915 C924 1.429 . S
C916 C914 1.419 . S
C916 C917 1.363 . S
C916 H919 0.929 . S
C917 C916 1.363 . S
C917 C923 1.428 . S
H918 C914 0.930 . S
H919 C916 0.929 . S
S920 N921 1.613 . S
S920 N922 1.610 . S
N921 S920 1.613 . S
N921 C924 1.350 . S
N922 S920 1.610 . S
N922 C923 1.351 . S
C923 C917 1.428 . S
C923 N922 1.351 . S
C923 C924 1.434 . S
C924 C915 1.429 . S
C924 N921 1.350 . S
C924 C923 1.434 . S
C925 C926 1.369 . S
C925 C927 1.419 . S
C925 H929 0.930 . S
C926 C925 1.369 . S
C926 C935 1.429 . S
C927 C925 1.419 . S
C927 C928 1.363 . S
C927 H930 0.929 . S
C928 C927 1.363 . S
C928 C934 1.428 . S
H929 C925 0.930 . S
H930 C927 0.929 . S
S931 N932 1.593 1_545 S
S931 N933 1.611 . S
N932 S931 1.593 1_565 S
N932 C935 1.350 . S
N933 S931 1.611 . S
N933 C934 1.351 1_545 S
C934 C928 1.428 . S
C934 N933 1.351 1_565 S
C934 C935 1.434 . S
C935 C926 1.429 . S
C935 N932 1.350 . S
C935 C934 1.434 . S
C936 C937 1.369 . S
C936 C938 1.419 . S
C936 H940 0.930 . S
C937 C936 1.369 . S
C937 C946 1.429 . S
C938 C936 1.419 . S
C938 C939 1.363 . S
C938 H941 0.929 . S
C939 C938 1.363 . S
C939 C945 1.428 . S
H940 C936 0.930 . S
H941 C938 0.929 . S
S942 N943 1.613 . S
S942 N944 1.610 . S
N943 S942 1.613 . S
N943 C946 1.350 . S
N944 S942 1.610 . S
N944 C945 1.351 . S
C945 C939 1.428 . S
C945 N944 1.351 . S
C945 C946 1.434 . S
C946 C937 1.429 . S
C946 N943 1.350 . S
C946 C945 1.434 . S
C947 C948 1.369 . S
C947 C949 1.419 . S
C947 H951 0.930 . S
C948 C947 1.369 . S
C948 C957 1.429 . S
C949 C947 1.419 . S
C949 C950 1.363 . S
C949 H952 0.929 . S
C950 C949 1.363 . S
C950 C956 1.428 . S
H951 C947 0.930 . S
H952 C949 0.929 . S
S953 N954 1.614 . S
S953 N955 1.613 . S
N954 S953 1.614 . S
N954 C957 1.350 . S
N955 S953 1.613 . S
N955 C956 1.351 . S
C956 C950 1.428 . S
C956 N955 1.351 . S
C956 C957 1.434 . S
C957 C948 1.429 . S
C957 N954 1.350 . S
C957 C956 1.434 . S
C958 C959 1.369 . S
C958 C960 1.419 . S
C958 H962 0.930 . S
C959 C958 1.369 . S
C959 C968 1.429 . S
C960 C958 1.419 . S
C960 C961 1.363 . S
C960 H963 0.929 . S
C961 C960 1.363 . S
C961 C967 1.428 . S
H962 C958 0.930 . S
H963 C960 0.929 . S
S964 N965 1.613 . S
S964 N966 1.610 . S
N965 S964 1.613 . S
N965 C968 1.350 . S
N966 S964 1.610 . S
N966 C967 1.351 . S
C967 C961 1.428 . S
C967 N966 1.351 . S
C967 C968 1.434 . S
C968 C959 1.429 . S
C968 N965 1.350 . S
C968 C967 1.434 . S
C969 C970 1.369 . S
C969 C971 1.419 1_556 S
C969 H973 0.930 . S
C970 C969 1.369 . S
C970 C979 1.416 1_556 S
C971 C969 1.419 1_554 S
C971 C972 1.363 . S
C971 H974 0.929 . S
C972 C971 1.363 . S
C972 C978 1.428 . S
H973 C969 0.930 . S
H974 C971 0.929 . S
S975 N976 1.613 1_554 S
S975 N977 1.610 . S
N976 S975 1.613 1_556 S
N976 C979 1.347 1_556 S
N977 S975 1.610 . S
N977 C978 1.351 . S
C978 C972 1.428 . S
C978 N977 1.351 . S
C978 C979 1.452 . S
C979 C970 1.416 1_554 S
C979 N976 1.347 1_554 S
C979 C978 1.452 . S
C980 C981 1.369 . S
C980 C982 1.419 . S
C980 H984 0.930 . S
C981 C980 1.369 . S
C981 C990 1.429 . S
C982 C980 1.419 . S
C982 C983 1.363 . S
C982 H985 0.929 . S
C983 C982 1.363 . S
C983 C989 1.428 . S
H984 C980 0.930 . S
H985 C982 0.929 . S
S986 N987 1.613 . S
S986 N988 1.610 . S
N987 S986 1.613 . S
N987 C990 1.350 . S
N988 S986 1.610 . S
N988 C989 1.351 . S
C989 C983 1.428 . S
C989 N988 1.351 . S
C989 C990 1.434 . S
C990 C981 1.429 . S
C990 N987 1.350 . S
C990 C989 1.434 . S
C991 C992 1.369 . S
C991 C993 1.419 . S
C991 H995 0.930 . S
C992 C991 1.369 . S
C992 C1001 1.429 . S
C993 C991 1.419 . S
C993 C994 1.363 . S
C993 H996 0.929 . S
C994 C993 1.363 . S
C994 C1000 1.428 . S
H995 C991 0.930 . S
H996 C993 0.929 . S
S997 N998 1.613 . S
S997 N999 1.610 . S
N998 S997 1.613 . S
N998 C1001 1.350 . S
N999 S997 1.610 . S
N999 C1000 1.351 . S
C1000 C994 1.428 . S
C1000 N999 1.351 . S
C1000 C1001 1.434 . S
C1001 C992 1.429 . S
C1001 N998 1.350 . S
C1001 C1000 1.434 . S
C1002 C1003 1.369 . S
C1002 C1004 1.419 . S
C1002 H1006 0.930 . S
C1003 C1002 1.369 . S
C1003 C1012 1.429 . S
C1004 C1002 1.419 . S
C1004 C1005 1.363 . S
C1004 H1007 0.929 . S
C1005 C1004 1.363 . S
C1005 C1011 1.428 . S
H1006 C1002 0.930 . S
H1007 C1004 0.929 . S
S1008 N1009 1.613 . S
S1008 N1010 1.610 . S
N1009 S1008 1.613 . S
N1009 C1012 1.350 . S
N1010 S1008 1.610 . S
N1010 C1011 1.351 . S
C1011 C1005 1.428 . S
C1011 N1010 1.351 . S
C1011 C1012 1.434 . S
C1012 C1003 1.429 . S
C1012 N1009 1.350 . S
C1012 C1011 1.434 . S
C1013 C1014 1.369 . S
C1013 C1015 1.419 1_554 S
C1013 H1017 0.930 . S
C1014 C1013 1.369 . S
C1014 C1023 1.429 . S
C1015 C1013 1.419 1_556 S
C1015 C1016 1.363 . S
C1015 H1018 0.929 . S
C1016 C1015 1.363 . S
C1016 C1022 1.428 . S
H1017 C1013 0.930 . S
H1018 C1015 0.929 . S
S1019 N1020 1.613 1_556 S
S1019 N1021 1.610 . S
N1020 S1019 1.613 1_554 S
N1020 C1023 1.350 1_565 S
N1021 S1019 1.610 . S
N1021 C1022 1.351 1_565 S
C1022 C1016 1.428 . S
C1022 N1021 1.351 1_545 S
C1022 C1023 1.434 1_556 S
C1023 C1014 1.429 . S
C1023 N1020 1.350 1_545 S
C1023 C1022 1.434 1_554 S
C1024 C1025 1.369 . S
C1024 C1026 1.419 . S
C1024 H1028 0.930 . S
C1025 C1024 1.369 . S
C1025 C1034 1.429 . S
C1026 C1024 1.419 . S
C1026 C1027 1.363 . S
C1026 H1029 0.929 . S
C1027 C1026 1.363 . S
C1027 C1033 1.428 . S
H1028 C1024 0.930 . S
H1029 C1026 0.929 . S
S1030 N1031 1.613 . S
S1030 N1032 1.610 . S
N1031 S1030 1.613 . S
N1031 C1034 1.350 . S
N1032 S1030 1.610 . S
N1032 C1033 1.351 . S
C1033 C1027 1.428 . S
C1033 N1032 1.351 . S
C1033 C1034 1.434 . S
C1034 C1025 1.429 . S
C1034 N1031 1.350 . S
C1034 C1033 1.434 . S
C1035 C1036 1.369 . S
C1035 C1037 1.419 1_565 S
C1035 H1039 0.930 . S
C1036 C1035 1.369 . S
C1036 C1045 1.429 . S
C1037 C1035 1.419 1_545 S
C1037 C1038 1.363 . S
C1037 H1040 0.929 . S
C1038 C1037 1.363 . S
C1038 C1044 1.428 . S
H1039 C1035 0.930 . S
H1040 C1037 0.929 . S
S1041 N1042 1.613 1_545 S
S1041 N1043 1.610 . S
N1042 S1041 1.613 1_565 S
N1042 C1045 1.350 . S
N1043 S1041 1.610 . S
N1043 C1044 1.351 . S
C1044 C1038 1.428 . S
C1044 N1043 1.351 . S
C1044 C1045 1.434 1_545 S
C1045 C1036 1.429 . S
C1045 N1042 1.350 . S
C1045 C1044 1.434 1_565 S
C1046 C1047 1.369 . S
C1046 C1048 1.419 . S
C1046 H1050 0.930 . S
C1047 C1046 1.369 . S
C1047 C1056 1.429 . S
C1048 C1046 1.419 . S
C1048 C1049 1.363 . S
C1048 H1051 0.929 . S
C1049 C1048 1.363 . S
C1049 C1055 1.428 . S
H1050 C1046 0.930 . S
H1051 C1048 0.929 . S
S1052 N1053 1.613 . S
S1052 N1054 1.610 . S
N1053 S1052 1.613 . S
N1053 C1056 1.350 . S
N1054 S1052 1.610 . S
N1054 C1055 1.351 . S
C1055 C1049 1.428 . S
C1055 N1054 1.351 . S
C1055 C1056 1.434 . S
C1056 C1047 1.429 . S
C1056 N1053 1.350 . S
C1056 C1055 1.434 . S
C1057 C1058 1.369 . S
C1057 C1059 1.419 1_545 S
C1057 H1061 0.930 . S
C1058 C1057 1.369 . S
C1058 C1067 1.429 . S
C1059 C1057 1.419 1_565 S
C1059 C1060 1.363 . S
C1059 H1062 0.929 . S
C1060 C1059 1.363 . S
C1060 C1066 1.428 . S
H1061 C1057 0.930 . S
H1062 C1059 0.929 . S
S1063 N1064 1.636 . S
S1063 N1065 1.583 1_545 S
N1064 S1063 1.636 . S
N1064 C1067 1.350 . S
N1065 S1063 1.583 1_565 S
N1065 C1066 1.351 . S
C1066 C1060 1.428 . S
C1066 N1065 1.351 . S
C1066 C1067 1.434 1_565 S
C1067 C1058 1.429 . S
C1067 N1064 1.350 . S
C1067 C1066 1.434 1_545 S
C1068 C1069 1.369 . S
C1068 C1070 1.419 . S
C1068 H1072 0.930 . S
C1069 C1068 1.369 . S
C1069 C1078 1.429 . S
C1070 C1068 1.419 . S
C1070 C1071 1.363 . S
C1070 H1073 0.929 . S
C1071 C1070 1.363 . S
C1071 C1077 1.428 . S
H1072 C1068 0.930 . S
H1073 C1070 0.929 . S
S1074 N1075 1.613 . S
S1074 N1076 1.610 . S
N1075 S1074 1.613 . S
N1075 C1078 1.350 . S
N1076 S1074 1.610 . S
N1076 C1077 1.351 . S
C1077 C1071 1.428 . S
C1077 N1076 1.351 . S
C1077 C1078 1.434 . S
C1078 C1069 1.429 . S
C1078 N1075 1.350 . S
C1078 C1077 1.434 . S
C1079 C1080 1.369 . S
C1079 C1081 1.419 1_565 S
C1079 H1083 0.930 . S
C1080 C1079 1.369 . S
C1080 C1089 1.429 1_565 S
C1081 C1079 1.419 1_545 S
C1081 C1082 1.363 . S
C1081 H1084 0.929 . S
C1082 C1081 1.363 . S
C1082 C1088 1.428 . S
H1083 C1079 0.930 . S
H1084 C1081 0.929 . S
S1085 N1086 1.605 1_545 S
S1085 N1087 1.610 . S
N1086 S1085 1.605 1_565 S
N1086 C1089 1.349 1_565 S
N1087 S1085 1.610 . S
N1087 C1088 1.351 . S
C1088 C1082 1.428 . S
C1088 N1087 1.351 . S
C1088 C1089 1.434 . S
C1089 C1080 1.429 1_545 S
C1089 N1086 1.349 1_545 S
C1089 C1088 1.434 . S
C1090 C1091 1.369 . S
C1090 C1092 1.419 . S
C1090 H1094 0.930 . S
C1091 C1090 1.369 . S
C1091 C1100 1.429 . S
C1092 C1090 1.419 . S
C1092 C1093 1.363 . S
C1092 H1095 0.929 . S
C1093 C1092 1.363 . S
C1093 C1099 1.428 . S
H1094 C1090 0.930 . S
H1095 C1092 0.929 . S
S1096 N1097 1.613 . S
S1096 N1098 1.610 . S
N1097 S1096 1.613 . S
N1097 C1100 1.350 . S
N1098 S1096 1.610 . S
N1098 C1099 1.351 . S
C1099 C1093 1.428 . S
C1099 N1098 1.351 . S
C1099 C1100 1.434 . S
C1100 C1091 1.429 . S
C1100 N1097 1.350 . S
C1100 C1099 1.434 . S
C1101 C1102 1.369 . S
C1101 C1103 1.419 1_565 S
C1101 H1105 0.930 . S
C1102 C1101 1.369 . S
C1102 C1111 1.429 . S
C1103 C1101 1.419 1_545 S
C1103 C1104 1.363 . S
C1103 H1106 0.929 . S
C1104 C1103 1.363 . S
C1104 C1110 1.428 . S
H1105 C1101 0.930 . S
H1106 C1103 0.929 . S
S1107 N1108 1.613 . S
S1107 N1109 1.610 1_565 S
N1108 S1107 1.613 . S
N1108 C1111 1.350 . S
N1109 S1107 1.610 1_545 S
N1109 C1110 1.351 . S
C1110 C1104 1.428 . S
C1110 N1109 1.351 . S
C1110 C1111 1.434 1_545 S
C1111 C1102 1.429 . S
C1111 N1108 1.350 . S
C1111 C1110 1.434 1_565 S
C1112 C1113 1.369 . S
C1112 C1114 1.419 . S
C1112 H1116 0.930 . S
C1113 C1112 1.369 . S
C1113 C1122 1.429 . S
C1114 C1112 1.419 . S
C1114 C1115 1.363 . S
C1114 H1117 0.929 . S
C1115 C1114 1.363 . S
C1115 C1121 1.428 . S
H1116 C1112 0.930 . S
H1117 C1114 0.929 . S
S1118 N1119 1.613 . S
S1118 N1120 1.610 . S
N1119 S1118 1.613 . S
N1119 C1122 1.350 . S
N1120 S1118 1.610 . S
N1120 C1121 1.351 . S
C1121 C1115 1.428 . S
C1121 N1120 1.351 . S
C1121 C1122 1.434 . S
C1122 C1113 1.429 . S
C1122 N1119 1.350 . S
C1122 C1121 1.434 . S
C1123 C1124 1.369 . S
C1123 C1125 1.419 . S
C1123 H1127 0.930 . S
C1124 C1123 1.369 . S
C1124 C1133 1.429 . S
C1125 C1123 1.419 . S
C1125 C1126 1.363 . S
C1125 H1128 0.929 . S
C1126 C1125 1.363 . S
C1126 C1132 1.428 . S
H1127 C1123 0.930 . S
H1128 C1125 0.929 . S
S1129 N1130 1.613 . S
S1129 N1131 1.610 . S
N1130 S1129 1.613 . S
N1130 C1133 1.350 . S
N1131 S1129 1.610 . S
N1131 C1132 1.351 . S
C1132 C1126 1.428 . S
C1132 N1131 1.351 . S
C1132 C1133 1.434 . S
C1133 C1124 1.429 . S
C1133 N1130 1.350 . S
C1133 C1132 1.434 . S
C1134 C1135 1.392 . S
C1134 C1136 1.387 1_655 S
C1134 H1138 0.940 1_554 S
C1135 C1134 1.392 . S
C1135 C1144 1.429 . S
C1136 C1134 1.387 1_455 S
C1136 C1137 1.363 . S
C1136 H1139 0.929 . S
C1137 C1136 1.363 . S
C1137 C1143 1.428 . S
H1138 C1134 0.940 1_556 S
H1139 C1136 0.929 . S
S1140 N1141 1.613 . S
S1140 N1142 1.610 1_655 S
N1141 S1140 1.613 . S
N1141 C1144 1.350 . S
N1142 S1140 1.610 1_455 S
N1142 C1143 1.351 . S
C1143 C1137 1.428 . S
C1143 N1142 1.351 . S
C1143 C1144 1.434 1_455 S
C1144 C1135 1.429 . S
C1144 N1141 1.350 . S
C1144 C1143 1.434 1_655 S
C1145 C1146 1.369 . S
C1145 C1147 1.419 . S
C1145 H1149 0.930 . S
C1146 C1145 1.369 . S
C1146 C1155 1.429 . S
C1147 C1145 1.419 . S
C1147 C1148 1.363 . S
C1147 H1150 0.929 . S
C1148 C1147 1.363 . S
C1148 C1154 1.428 . S
H1149 C1145 0.930 . S
H1150 C1147 0.929 . S
S1151 N1152 1.613 . S
S1151 N1153 1.610 . S
N1152 S1151 1.613 . S
N1152 C1155 1.350 . S
N1153 S1151 1.610 . S
N1153 C1154 1.351 . S
C1154 C1148 1.428 . S
C1154 N1153 1.351 . S
C1154 C1155 1.434 . S
C1155 C1146 1.429 . S
C1155 N1152 1.350 . S
C1155 C1154 1.434 . S
C1156 C1157 1.369 . S
C1156 C1158 1.419 1_455 S
C1156 H1160 0.930 . S
C1157 C1156 1.369 . S
C1157 C1166 1.429 1_455 S
C1158 C1156 1.419 1_655 S
C1158 C1159 1.363 . S
C1158 H1161 0.929 . S
C1159 C1158 1.363 . S
C1159 C1165 1.428 . S
H1160 C1156 0.930 . S
H1161 C1158 0.929 . S
S1162 N1163 1.613 1_655 S
S1162 N1164 1.610 . S
N1163 S1162 1.613 1_455 S
N1163 C1166 1.350 1_456 S
N1164 S1162 1.610 . S
N1164 C1165 1.351 1_556 S
C1165 C1159 1.428 . S
C1165 N1164 1.351 1_554 S
C1165 C1166 1.434 . S
C1166 C1157 1.429 1_655 S
C1166 N1163 1.350 1_654 S
C1166 C1165 1.434 . S
C1167 C1168 1.369 . S
C1167 C1169 1.419 . S
C1167 H1171 0.930 . S
C1168 C1167 1.369 . S
C1168 C1177 1.429 . S
C1169 C1167 1.419 . S
C1169 C1170 1.363 . S
C1169 H1172 0.929 . S
C1170 C1169 1.363 . S
C1170 C1176 1.428 . S
H1171 C1167 0.930 . S
H1172 C1169 0.929 . S
S1173 N1174 1.613 . S
S1173 N1175 1.610 . S
N1174 S1173 1.613 . S
N1174 C1177 1.350 . S
N1175 S1173 1.610 . S
N1175 C1176 1.351 . S
C1176 C1170 1.428 . S
C1176 N1175 1.351 . S
C1176 C1177 1.434 . S
C1177 C1168 1.429 . S
C1177 N1174 1.350 . S
C1177 C1176 1.434 . S
C1178 C1179 1.369 . S
C1178 C1180 1.419 1_655 S
C1178 H1182 0.930 . S
C1179 C1178 1.369 . S
C1179 C1188 1.429 1_655 S
C1180 C1178 1.419 1_455 S
C1180 C1181 1.363 . S
C1180 H1183 0.929 . S
C1181 C1180 1.363 . S
C1181 C1187 1.428 . S
H1182 C1178 0.930 . S
H1183 C1180 0.929 . S
S1184 N1185 1.592 1_455 S
S1184 N1186 1.610 . S
N1185 S1184 1.592 1_655 S
N1185 C1188 1.348 1_655 S
N1186 S1184 1.610 . S
N1186 C1187 1.351 . S
C1187 C1181 1.428 . S
C1187 N1186 1.351 . S
C1187 C1188 1.434 . S
C1188 C1179 1.429 1_455 S
C1188 N1185 1.348 1_455 S
C1188 C1187 1.434 . S
C1189 C1190 1.369 . S
C1189 C1191 1.419 . S
C1189 H1193 0.930 . S
C1190 C1189 1.369 . S
C1190 C1199 1.429 . S
C1191 C1189 1.419 . S
C1191 C1192 1.363 . S
C1191 H1194 0.929 . S
C1192 C1191 1.363 . S
C1192 C1198 1.428 . S
H1193 C1189 0.930 . S
H1194 C1191 0.929 . S
S1195 N1196 1.613 . S
S1195 N1197 1.610 . S
N1196 S1195 1.613 . S
N1196 C1199 1.350 1_554 S
N1197 S1195 1.610 . S
N1197 C1198 1.351 1_554 S
C1198 C1192 1.428 . S
C1198 N1197 1.351 1_556 S
C1198 C1199 1.434 . S
C1199 C1190 1.429 . S
C1199 N1196 1.350 1_556 S
C1199 C1198 1.434 . S
C1200 C1201 1.369 . S
C1200 C1202 1.419 . S
C1200 H1204 0.930 . S
C1201 C1200 1.369 . S
C1201 C1210 1.429 . S
C1202 C1200 1.419 . S
C1202 C1203 1.363 . S
C1202 H1205 0.929 . S
C1203 C1202 1.363 . S
C1203 C1209 1.428 . S
H1204 C1200 0.930 . S
H1205 C1202 0.929 . S
S1206 N1207 1.613 . S
S1206 N1208 1.610 . S
N1207 S1206 1.613 . S
N1207 C1210 1.350 . S
N1208 S1206 1.610 . S
N1208 C1209 1.351 . S
C1209 C1203 1.428 . S
C1209 N1208 1.351 . S
C1209 C1210 1.434 . S
C1210 C1201 1.429 . S
C1210 N1207 1.350 . S
C1210 C1209 1.434 . S
C1211 C1212 1.369 . S
C1211 C1213 1.419 1_554 S
C1211 H1215 0.930 . S
C1212 C1211 1.369 . S
C1212 C1221 1.429 . S
C1213 C1211 1.419 1_556 S
C1213 C1214 1.363 . S
C1213 H1216 0.929 . S
C1214 C1213 1.363 . S
C1214 C1220 1.428 . S
H1215 C1211 0.930 . S
H1216 C1213 0.929 . S
S1217 N1218 1.613 . S
S1217 N1219 1.610 1_554 S
N1218 S1217 1.613 . S
N1218 C1221 1.350 . S
N1219 S1217 1.610 1_556 S
N1219 C1220 1.351 . S
C1220 C1214 1.428 . S
C1220 N1219 1.351 . S
C1220 C1221 1.434 1_556 S
C1221 C1212 1.429 . S
C1221 N1218 1.350 . S
C1221 C1220 1.434 1_554 S
C1222 C1223 1.369 . S
C1222 C1224 1.419 . S
C1222 H1226 0.930 . S
C1223 C1222 1.369 . S
C1223 C1232 1.429 . S
C1224 C1222 1.419 . S
C1224 C1225 1.363 . S
C1224 H1227 0.929 . S
C1225 C1224 1.363 . S
C1225 C1231 1.428 . S
H1226 C1222 0.930 . S
H1227 C1224 0.929 . S
S1228 N1229 1.613 . S
S1228 N1230 1.610 . S
N1229 S1228 1.613 . S
N1229 C1232 1.350 . S
N1230 S1228 1.610 . S
N1230 C1231 1.351 . S
C1231 C1225 1.428 . S
C1231 N1230 1.351 . S
C1231 C1232 1.434 . S
C1232 C1223 1.429 . S
C1232 N1229 1.350 . S
C1232 C1231 1.434 . S
C1233 C1234 1.369 . S
C1233 C1235 1.419 . S
C1233 H1237 0.930 . S
C1234 C1233 1.369 . S
C1234 C1243 1.429 . S
C1235 C1233 1.419 . S
C1235 C1236 1.363 . S
C1235 H1238 0.929 . S
C1236 C1235 1.363 . S
C1236 C1242 1.428 . S
H1237 C1233 0.930 . S
H1238 C1235 0.929 . S
S1239 N1240 1.613 . S
S1239 N1241 1.610 . S
N1240 S1239 1.613 . S
N1240 C1243 1.350 . S
N1241 S1239 1.610 . S
N1241 C1242 1.351 . S
C1242 C1236 1.428 . S
C1242 N1241 1.351 . S
C1242 C1243 1.434 . S
C1243 C1234 1.429 . S
C1243 N1240 1.350 . S
C1243 C1242 1.434 . S
C1244 C1245 1.369 . S
C1244 C1246 1.419 . S
C1244 H1248 0.930 . S
C1245 C1244 1.369 . S
C1245 C1254 1.429 . S
C1246 C1244 1.419 . S
C1246 C1247 1.363 . S
C1246 H1249 0.929 . S
C1247 C1246 1.363 . S
C1247 C1253 1.428 . S
H1248 C1244 0.930 . S
H1249 C1246 0.929 . S
S1250 N1251 1.613 . S
S1250 N1252 1.610 . S
N1251 S1250 1.613 . S
N1251 C1254 1.350 . S
N1252 S1250 1.610 . S
N1252 C1253 1.351 . S
C1253 C1247 1.428 . S
C1253 N1252 1.351 . S
C1253 C1254 1.434 . S
C1254 C1245 1.429 . S
C1254 N1251 1.350 . S
C1254 C1253 1.434 . S
C1255 C1256 1.369 . S
C1255 C1257 1.419 1_556 S
C1255 H1259 0.930 . S
C1256 C1255 1.369 . S
C1256 C1265 1.429 . S
C1257 C1255 1.419 1_554 S
C1257 C1258 1.363 . S
C1257 H1260 0.929 . S
C1258 C1257 1.363 . S
C1258 C1264 1.428 . S
H1259 C1255 0.930 . S
H1260 C1257 0.929 . S
S1261 N1262 1.613 . S
S1261 N1263 1.610 1_556 S
N1262 S1261 1.613 . S
N1262 C1265 1.350 . S
N1263 S1261 1.610 1_554 S
N1263 C1264 1.351 . S
C1264 C1258 1.428 . S
C1264 N1263 1.351 . S
C1264 C1265 1.434 1_554 S
C1265 C1256 1.429 . S
C1265 N1262 1.350 . S
C1265 C1264 1.434 1_556 S
C1266 C1267 1.369 . S
C1266 C1268 1.419 . S
C1266 H1270 0.930 . S
C1267 C1266 1.369 . S
C1267 C1276 1.429 . S
C1268 C1266 1.419 . S
C1268 C1269 1.363 . S
C1268 H1271 0.929 . S
C1269 C1268 1.363 . S
C1269 C1275 1.428 . S
H1270 C1266 0.930 . S
H1271 C1268 0.929 . S
S1272 N1273 1.613 . S
S1272 N1274 1.610 . S
N1273 S1272 1.613 . S
N1273 C1276 1.350 . S
N1274 S1272 1.610 . S
N1274 C1275 1.351 . S
C1275 C1269 1.428 . S
C1275 N1274 1.351 . S
C1275 C1276 1.434 . S
C1276 C1267 1.429 . S
C1276 N1273 1.350 . S
C1276 C1275 1.434 . S
C1277 C1278 1.369 . S
C1277 C1279 1.419 . S
C1277 H1281 0.930 . S
C1278 C1277 1.369 . S
C1278 C1287 1.429 . S
C1279 C1277 1.419 . S
C1279 C1280 1.363 . S
C1279 H1282 0.929 . S
C1280 C1279 1.363 . S
C1280 C1286 1.428 . S
H1281 C1277 0.930 . S
H1282 C1279 0.929 . S
S1283 N1284 1.613 . S
S1283 N1285 1.610 . S
N1284 S1283 1.613 . S
N1284 C1287 1.350 . S
N1285 S1283 1.610 . S
N1285 C1286 1.351 . S
C1286 C1280 1.428 . S
C1286 N1285 1.351 . S
C1286 C1287 1.434 . S
C1287 C1278 1.429 . S
C1287 N1284 1.350 . S
C1287 C1286 1.434 . S
C1288 C1289 1.369 . S
C1288 C1290 1.419 . S
C1288 H1292 0.930 . S
C1289 C1288 1.369 . S
C1289 C1298 1.429 . S
C1290 C1288 1.419 . S
C1290 C1291 1.363 . S
C1290 H1293 0.929 . S
C1291 C1290 1.363 . S
C1291 C1297 1.428 . S
H1292 C1288 0.930 . S
H1293 C1290 0.929 . S
S1294 N1295 1.613 . S
S1294 N1296 1.610 . S
N1295 S1294 1.613 . S
N1295 C1298 1.350 . S
N1296 S1294 1.610 . S
N1296 C1297 1.351 . S
C1297 C1291 1.428 . S
C1297 N1296 1.351 . S
C1297 C1298 1.434 . S
C1298 C1289 1.429 . S
C1298 N1295 1.350 . S
C1298 C1297 1.434 . S
C1299 C1300 1.369 . S
C1299 C1301 1.419 . S
C1299 H1303 0.930 . S
C1300 C1299 1.369 . S
C1300 C1309 1.429 . S
C1301 C1299 1.419 . S
C1301 C1302 1.363 . S
C1301 H1304 0.929 . S
C1302 C1301 1.363 . S
C1302 C1308 1.428 . S
H1303 C1299 0.930 . S
H1304 C1301 0.929 . S
S1305 N1306 1.613 . S
S1305 N1307 1.610 . S
N1306 S1305 1.613 . S
N1306 C1309 1.350 . S
N1307 S1305 1.610 . S
N1307 C1308 1.351 . S
C1308 C1302 1.428 . S
C1308 N1307 1.351 . S
C1308 C1309 1.434 . S
C1309 C1300 1.429 . S
C1309 N1306 1.350 . S
C1309 C1308 1.434 . S
C1310 C1311 1.369 . S
C1310 C1312 1.419 . S
C1310 H1314 0.930 . S
C1311 C1310 1.369 . S
C1311 C1320 1.429 . S
C1312 C1310 1.419 . S
C1312 C1313 1.363 . S
C1312 H1315 0.929 . S
C1313 C1312 1.363 . S
C1313 C1319 1.428 . S
H1314 C1310 0.930 . S
H1315 C1312 0.929 . S
S1316 N1317 1.613 . S
S1316 N1318 1.610 . S
N1317 S1316 1.613 . S
N1317 C1320 1.350 . S
N1318 S1316 1.610 . S
N1318 C1319 1.351 . S
C1319 C1313 1.428 . S
C1319 N1318 1.351 . S
C1319 C1320 1.434 . S
C1320 C1311 1.429 . S
C1320 N1317 1.350 . S
C1320 C1319 1.434 . S
C1321 C1322 1.369 . S
C1321 C1323 1.419 . S
C1321 H1325 0.930 . S
C1322 C1321 1.369 . S
C1322 C1331 1.429 . S
C1323 C1321 1.419 . S
C1323 C1324 1.363 . S
C1323 H1326 0.929 . S
C1324 C1323 1.363 . S
C1324 C1330 1.428 . S
H1325 C1321 0.930 . S
H1326 C1323 0.929 . S
S1327 N1328 1.613 . S
S1327 N1329 1.610 1_455 S
N1328 S1327 1.613 . S
N1328 C1331 1.350 1_455 S
N1329 S1327 1.610 1_655 S
N1329 C1330 1.351 . S
C1330 C1324 1.428 . S
C1330 N1329 1.351 . S
C1330 C1331 1.434 . S
C1331 C1322 1.429 . S
C1331 N1328 1.350 1_655 S
C1331 C1330 1.434 . S
C1332 C1333 1.369 . S
C1332 C1334 1.419 . S
C1332 H1336 0.930 . S
C1333 C1332 1.369 . S
C1333 C1342 1.429 . S
C1334 C1332 1.419 . S
C1334 C1335 1.363 . S
C1334 H1337 0.929 . S
C1335 C1334 1.363 . S
C1335 C1341 1.428 . S
H1336 C1332 0.930 . S
H1337 C1334 0.929 . S
S1338 N1339 1.613 . S
S1338 N1340 1.610 . S
N1339 S1338 1.613 . S
N1339 C1342 1.350 . S
N1340 S1338 1.610 . S
N1340 C1341 1.351 . S
C1341 C1335 1.428 . S
C1341 N1340 1.351 . S
C1341 C1342 1.434 . S
C1342 C1333 1.429 . S
C1342 N1339 1.350 . S
C1342 C1341 1.434 . S
C1343 C1344 1.369 . S
C1343 C1345 1.419 . S
C1343 H1347 0.930 . S
C1344 C1343 1.369 . S
C1344 C1353 1.429 . S
C1345 C1343 1.419 . S
C1345 C1346 1.363 . S
C1345 H1348 0.929 . S
C1346 C1345 1.363 . S
C1346 C1352 1.428 . S
H1347 C1343 0.930 . S
H1348 C1345 0.929 . S
S1349 N1350 1.613 . S
S1349 N1351 1.610 . S
N1350 S1349 1.613 . S
N1350 C1353 1.350 . S
N1351 S1349 1.610 . S
N1351 C1352 1.351 . S
C1352 C1346 1.428 . S
C1352 N1351 1.351 . S
C1352 C1353 1.434 . S
C1353 C1344 1.429 . S
C1353 N1350 1.350 . S
C1353 C1352 1.434 . S
C1354 C1355 1.369 . S
C1354 C1356 1.419 . S
C1354 H1358 0.930 . S
C1355 C1354 1.369 . S
C1355 C1364 1.429 . S
C1356 C1354 1.419 . S
C1356 C1357 1.363 . S
C1356 H1359 0.929 . S
C1357 C1356 1.363 . S
C1357 C1363 1.428 . S
H1358 C1354 0.930 . S
H1359 C1356 0.929 . S
S1360 N1361 1.613 . S
S1360 N1362 1.610 . S
N1361 S1360 1.613 . S
N1361 C1364 1.350 . S
N1362 S1360 1.610 . S
N1362 C1363 1.351 . S
C1363 C1357 1.428 . S
C1363 N1362 1.351 . S
C1363 C1364 1.434 . S
C1364 C1355 1.429 . S
C1364 N1361 1.350 . S
C1364 C1363 1.434 . S
C1365 C1366 1.369 . S
C1365 C1367 1.419 . S
C1365 H1369 0.930 . S
C1366 C1365 1.369 . S
C1366 C1375 1.429 . S
C1367 C1365 1.419 . S
C1367 C1368 1.363 . S
C1367 H1370 0.929 . S
C1368 C1367 1.363 . S
C1368 C1374 1.428 . S
H1369 C1365 0.930 . S
H1370 C1367 0.929 . S
S1371 N1372 1.613 . S
S1371 N1373 1.610 . S
N1372 S1371 1.613 . S
N1372 C1375 1.350 . S
N1373 S1371 1.610 . S
N1373 C1374 1.351 . S
C1374 C1368 1.428 . S
C1374 N1373 1.351 . S
C1374 C1375 1.434 . S
C1375 C1366 1.429 . S
C1375 N1372 1.350 . S
C1375 C1374 1.434 . S
C1376 C1377 1.369 . S
C1376 C1378 1.419 . S
C1376 H1380 0.930 . S
C1377 C1376 1.369 . S
C1377 C1386 1.429 . S
C1378 C1376 1.419 . S
C1378 C1379 1.363 . S
C1378 H1381 0.929 . S
C1379 C1378 1.363 . S
C1379 C1385 1.428 . S
H1380 C1376 0.930 . S
H1381 C1378 0.929 . S
S1382 N1383 1.613 . S
S1382 N1384 1.610 . S
N1383 S1382 1.613 . S
N1383 C1386 1.350 . S
N1384 S1382 1.610 . S
N1384 C1385 1.351 . S
C1385 C1379 1.428 . S
C1385 N1384 1.351 . S
C1385 C1386 1.434 . S
C1386 C1377 1.429 . S
C1386 N1383 1.350 . S
C1386 C1385 1.434 . S
C1387 C1388 1.369 . S
C1387 C1389 1.419 . S
C1387 H1391 0.930 . S
C1388 C1387 1.369 . S
C1388 C1397 1.429 . S
C1389 C1387 1.419 . S
C1389 C1390 1.363 . S
C1389 H1392 0.929 . S
C1390 C1389 1.363 . S
C1390 C1396 1.428 . S
H1391 C1387 0.930 . S
H1392 C1389 0.929 . S
S1393 N1394 1.613 . S
S1393 N1395 1.610 . S
N1394 S1393 1.613 . S
N1394 C1397 1.350 . S
N1395 S1393 1.610 . S
N1395 C1396 1.351 . S
C1396 C1390 1.428 . S
C1396 N1395 1.351 . S
C1396 C1397 1.434 . S
C1397 C1388 1.429 . S
C1397 N1394 1.350 . S
C1397 C1396 1.434 . S
C1398 C1399 1.369 . S
C1398 C1400 1.419 . S
C1398 H1402 0.930 . S
C1399 C1398 1.369 . S
C1399 C1408 1.429 . S
C1400 C1398 1.419 . S
C1400 C1401 1.363 . S
C1400 H1403 0.929 . S
C1401 C1400 1.363 . S
C1401 C1407 1.428 . S
H1402 C1398 0.930 . S
H1403 C1400 0.929 . S
S1404 N1405 1.613 1_565 S
S1404 N1406 1.610 1_565 S
N1405 S1404 1.613 1_545 S
N1405 C1408 1.350 . S
N1406 S1404 1.610 1_545 S
N1406 C1407 1.351 . S
C1407 C1401 1.428 . S
C1407 N1406 1.351 . S
C1407 C1408 1.434 . S
C1408 C1399 1.429 . S
C1408 N1405 1.350 . S
C1408 C1407 1.434 . S
C1409 C1410 1.369 . S
C1409 C1411 1.419 . S
C1409 H1413 0.930 . S
C1410 C1409 1.369 . S
C1410 C1419 1.429 . S
C1411 C1409 1.419 . S
C1411 C1412 1.363 . S
C1411 H1414 0.929 . S
C1412 C1411 1.363 . S
C1412 C1418 1.428 . S
H1413 C1409 0.930 . S
H1414 C1411 0.929 . S
S1415 N1416 1.613 . S
S1415 N1417 1.610 . S
N1416 S1415 1.613 . S
N1416 C1419 1.350 . S
N1417 S1415 1.610 . S
N1417 C1418 1.351 . S
C1418 C1412 1.428 . S
C1418 N1417 1.351 . S
C1418 C1419 1.434 . S
C1419 C1410 1.429 . S
C1419 N1416 1.350 . S
C1419 C1418 1.434 . S
C1420 C1421 1.369 . S
C1420 C1422 1.419 . S
C1420 H1424 0.930 . S
C1421 C1420 1.369 . S
C1421 C1430 1.429 . S
C1422 C1420 1.419 . S
C1422 C1423 1.363 . S
C1422 H1425 0.929 . S
C1423 C1422 1.363 . S
C1423 C1429 1.428 . S
H1424 C1420 0.930 . S
H1425 C1422 0.929 . S
S1426 N1427 1.613 . S
S1426 N1428 1.610 . S
N1427 S1426 1.613 . S
N1427 C1430 1.350 . S
N1428 S1426 1.610 . S
N1428 C1429 1.351 . S
C1429 C1423 1.428 . S
C1429 N1428 1.351 . S
C1429 C1430 1.434 . S
C1430 C1421 1.429 . S
C1430 N1427 1.350 . S
C1430 C1429 1.434 . S
C1431 C1432 1.369 . S
C1431 C1433 1.419 . S
C1431 H1435 0.930 . S
C1432 C1431 1.369 . S
C1432 C1441 1.429 . S
C1433 C1431 1.419 . S
C1433 C1434 1.363 . S
C1433 H1436 0.929 . S
C1434 C1433 1.363 . S
C1434 C1440 1.428 . S
H1435 C1431 0.930 . S
H1436 C1433 0.929 . S
S1437 N1438 1.613 . S
S1437 N1439 1.610 . S
N1438 S1437 1.613 . S
N1438 C1441 1.350 . S
N1439 S1437 1.610 . S
N1439 C1440 1.351 . S
C1440 C1434 1.428 . S
C1440 N1439 1.351 . S
C1440 C1441 1.434 . S
C1441 C1432 1.429 . S
C1441 N1438 1.350 . S
C1441 C1440 1.434 . S
C1442 C1443 1.369 . S
C1442 C1444 1.419 . S
C1442 H1446 0.930 1_556 S
C1443 C1442 1.369 . S
C1443 C1452 1.429 . S
C1444 C1442 1.419 . S
C1444 C1445 1.363 . S
C1444 H1447 0.929 . S
C1445 C1444 1.363 . S
C1445 C1451 1.428 . S
H1446 C1442 0.930 1_554 S
H1447 C1444 0.929 . S
S1448 N1449 1.613 . S
S1448 N1450 1.610 . S
N1449 S1448 1.613 . S
N1449 C1452 1.350 . S
N1450 S1448 1.610 . S
N1450 C1451 1.351 . S
C1451 C1445 1.428 . S
C1451 N1450 1.351 . S
C1451 C1452 1.434 . S
C1452 C1443 1.429 . S
C1452 N1449 1.350 . S
C1452 C1451 1.434 . S
C1453 C1454 1.339 1_655 S
C1453 C1455 1.458 . S
C1453 H1457 0.922 1_655 S
C1454 C1453 1.339 1_455 S
C1454 C1463 1.429 . S
C1455 C1453 1.458 . S
C1455 C1456 1.363 . S
C1455 H1458 0.929 . S
C1456 C1455 1.363 . S
C1456 C1462 1.428 . S
H1457 C1453 0.922 1_455 S
H1458 C1455 0.929 . S
S1459 N1460 1.613 . S
S1459 N1461 1.610 1_455 S
N1460 S1459 1.613 . S
N1460 C1463 1.350 . S
N1461 S1459 1.610 1_655 S
N1461 C1462 1.351 . S
C1462 C1456 1.428 . S
C1462 N1461 1.351 . S
C1462 C1463 1.434 1_655 S
C1463 C1454 1.429 . S
C1463 N1460 1.350 . S
C1463 C1462 1.434 1_455 S
C1464 C1465 1.369 . S
C1464 C1466 1.419 . S
C1464 H1468 0.930 . S
C1465 C1464 1.369 . S
C1465 C1474 1.429 . S
C1466 C1464 1.419 . S
C1466 C1467 1.363 . S
C1466 H1469 0.929 . S
C1467 C1466 1.363 . S
C1467 C1473 1.428 . S
H1468 C1464 0.930 . S
H1469 C1466 0.929 . S
S1470 N1471 1.613 . S
S1470 N1472 1.610 . S
N1471 S1470 1.613 . S
N1471 C1474 1.350 . S
N1472 S1470 1.610 . S
N1472 C1473 1.351 . S
C1473 C1467 1.428 . S
C1473 N1472 1.351 . S
C1473 C1474 1.434 . S
C1474 C1465 1.429 . S
C1474 N1471 1.350 . S
C1474 C1473 1.434 . S
C1475 C1476 1.369 . S
C1475 C1477 1.419 . S
C1475 H1479 0.930 . S
C1476 C1475 1.369 . S
C1476 C1485 1.429 . S
C1477 C1475 1.419 . S
C1477 C1478 1.363 . S
C1477 H1480 0.929 . S
C1478 C1477 1.363 . S
C1478 C1484 1.428 . S
H1479 C1475 0.930 . S
H1480 C1477 0.929 . S
S1481 N1482 1.613 . S
S1481 N1483 1.610 . S
N1482 S1481 1.613 . S
N1482 C1485 1.350 . S
N1483 S1481 1.610 . S
N1483 C1484 1.351 . S
C1484 C1478 1.428 . S
C1484 N1483 1.351 . S
C1484 C1485 1.434 . S
C1485 C1476 1.429 . S
C1485 N1482 1.350 . S
C1485 C1484 1.434 . S
C1486 C1487 1.369 . S
C1486 C1488 1.419 . S
C1486 H1490 0.930 . S
C1487 C1486 1.369 . S
C1487 C1496 1.429 . S
C1488 C1486 1.419 . S
C1488 C1489 1.363 . S
C1488 H1491 0.929 . S
C1489 C1488 1.363 . S
C1489 C1495 1.428 . S
H1490 C1486 0.930 . S
H1491 C1488 0.929 . S
S1492 N1493 1.613 . S
S1492 N1494 1.610 . S
N1493 S1492 1.613 . S
N1493 C1496 1.350 . S
N1494 S1492 1.610 . S
N1494 C1495 1.351 . S
C1495 C1489 1.428 . S
C1495 N1494 1.351 . S
C1495 C1496 1.434 . S
C1496 C1487 1.429 . S
C1496 N1493 1.350 . S
C1496 C1495 1.434 . S
C1497 C1498 1.369 . S
C1497 C1499 1.419 . S
C1497 H1501 0.930 . S
C1498 C1497 1.369 . S
C1498 C1507 1.429 . S
C1499 C1497 1.419 . S
C1499 C1500 1.363 . S
C1499 H1502 0.929 . S
C1500 C1499 1.363 . S
C1500 C1506 1.428 . S
H1501 C1497 0.930 . S
H1502 C1499 0.929 . S
S1503 N1504 1.613 . S
S1503 N1505 1.610 . S
N1504 S1503 1.613 . S
N1504 C1507 1.350 . S
N1505 S1503 1.610 . S
N1505 C1506 1.351 . S
C1506 C1500 1.428 . S
C1506 N1505 1.351 . S
C1506 C1507 1.434 . S
C1507 C1498 1.429 . S
C1507 N1504 1.350 . S
C1507 C1506 1.434 . S
C1508 C1509 1.369 . S
C1508 C1510 1.419 . S
C1508 H1512 0.930 . S
C1509 C1508 1.369 . S
C1509 C1518 1.429 . S
C1510 C1508 1.419 . S
C1510 C1511 1.363 . S
C1510 H1513 0.929 . S
C1511 C1510 1.363 . S
C1511 C1517 1.428 . S
H1512 C1508 0.930 . S
H1513 C1510 0.929 . S
S1514 N1515 1.613 . S
S1514 N1516 1.610 . S
N1515 S1514 1.613 . S
N1515 C1518 1.350 . S
N1516 S1514 1.610 . S
N1516 C1517 1.351 . S
C1517 C1511 1.428 . S
C1517 N1516 1.351 . S
C1517 C1518 1.434 . S
C1518 C1509 1.429 . S
C1518 N1515 1.350 . S
C1518 C1517 1.434 . S
C1519 C1520 1.369 . S
C1519 C1521 1.419 . S
C1519 H1523 0.930 . S
C1520 C1519 1.369 . S
C1520 C1529 1.429 . S
C1521 C1519 1.419 . S
C1521 C1522 1.363 . S
C1521 H1524 0.929 . S
C1522 C1521 1.363 . S
C1522 C1528 1.428 . S
H1523 C1519 0.930 . S
H1524 C1521 0.929 . S
S1525 N1526 1.613 . S
S1525 N1527 1.610 . S
N1526 S1525 1.613 . S
N1526 C1529 1.350 . S
N1527 S1525 1.610 . S
N1527 C1528 1.351 . S
C1528 C1522 1.428 . S
C1528 N1527 1.351 . S
C1528 C1529 1.434 . S
C1529 C1520 1.429 . S
C1529 N1526 1.350 . S
C1529 C1528 1.434 . S
C1530 C1531 1.369 . S
C1530 C1532 1.419 . S
C1530 H1534 0.930 . S
C1531 C1530 1.369 . S
C1531 C1540 1.429 . S
C1532 C1530 1.419 . S
C1532 C1533 1.363 . S
C1532 H1535 0.929 . S
C1533 C1532 1.363 . S
C1533 C1539 1.428 . S
H1534 C1530 0.930 . S
H1535 C1532 0.929 . S
S1536 N1537 1.613 . S
S1536 N1538 1.610 . S
N1537 S1536 1.613 . S
N1537 C1540 1.350 . S
N1538 S1536 1.610 . S
N1538 C1539 1.351 . S
C1539 C1533 1.428 . S
C1539 N1538 1.351 . S
C1539 C1540 1.434 . S
C1540 C1531 1.429 . S
C1540 N1537 1.350 . S
C1540 C1539 1.434 . S
C1541 C1542 1.369 . S
C1541 C1543 1.419 . S
C1541 H1545 0.930 . S
C1542 C1541 1.369 . S
C1542 C1551 1.429 . S
C1543 C1541 1.419 . S
C1543 C1544 1.363 . S
C1543 H1546 0.929 . S
C1544 C1543 1.363 . S
C1544 C1550 1.428 . S
H1545 C1541 0.930 . S
H1546 C1543 0.929 . S
S1547 N1548 1.613 . S
S1547 N1549 1.610 . S
N1548 S1547 1.613 . S
N1548 C1551 1.350 . S
N1549 S1547 1.610 . S
N1549 C1550 1.351 . S
C1550 C1544 1.428 . S
C1550 N1549 1.351 . S
C1550 C1551 1.434 . S
C1551 C1542 1.429 . S
C1551 N1548 1.350 . S
C1551 C1550 1.434 . S
C1552 C1553 1.369 . S
C1552 C1554 1.419 . S
C1552 H1556 0.930 . S
C1553 C1552 1.369 . S
C1553 C1562 1.429 . S
C1554 C1552 1.419 . S
C1554 C1555 1.363 . S
C1554 H1557 0.929 . S
C1555 C1554 1.363 . S
C1555 C1561 1.428 . S
H1556 C1552 0.930 . S
H1557 C1554 0.929 . S
S1558 N1559 1.613 . S
S1558 N1560 1.610 . S
N1559 S1558 1.613 . S
N1559 C1562 1.350 . S
N1560 S1558 1.610 . S
N1560 C1561 1.351 . S
C1561 C1555 1.428 . S
C1561 N1560 1.351 . S
C1561 C1562 1.434 . S
C1562 C1553 1.429 . S
C1562 N1559 1.350 . S
C1562 C1561 1.434 . S
C1563 C1564 1.369 . S
C1563 C1565 1.419 . S
C1563 H1567 0.930 . S
C1564 C1563 1.369 . S
C1564 C1573 1.429 . S
C1565 C1563 1.419 . S
C1565 C1566 1.363 . S
C1565 H1568 0.929 . S
C1566 C1565 1.363 . S
C1566 C1572 1.428 . S
H1567 C1563 0.930 . S
H1568 C1565 0.929 . S
S1569 N1570 1.613 . S
S1569 N1571 1.610 . S
N1570 S1569 1.613 . S
N1570 C1573 1.350 . S
N1571 S1569 1.610 . S
N1571 C1572 1.351 . S
C1572 C1566 1.428 . S
C1572 N1571 1.351 . S
C1572 C1573 1.434 . S
C1573 C1564 1.429 . S
C1573 N1570 1.350 . S
C1573 C1572 1.434 . S
C1574 C1575 1.369 . S
C1574 C1576 1.419 . S
C1574 H1578 0.930 . S
C1575 C1574 1.369 . S
C1575 C1584 1.429 . S
C1576 C1574 1.419 . S
C1576 C1577 1.363 . S
C1576 H1579 0.929 . S
C1577 C1576 1.363 . S
C1577 C1583 1.428 . S
H1578 C1574 0.930 . S
H1579 C1576 0.929 . S
S1580 N1581 1.613 . S
S1580 N1582 1.610 . S
N1581 S1580 1.613 . S
N1581 C1584 1.350 . S
N1582 S1580 1.610 . S
N1582 C1583 1.351 . S
C1583 C1577 1.428 . S
C1583 N1582 1.351 . S
C1583 C1584 1.434 . S
C1584 C1575 1.429 . S
C1584 N1581 1.350 . S
C1584 C1583 1.434 . S
C1585 C1586 1.369 . S
C1585 C1587 1.419 . S
C1585 H1589 0.930 . S
C1586 C1585 1.369 . S
C1586 C1595 1.429 . S
C1587 C1585 1.419 . S
C1587 C1588 1.363 . S
C1587 H1590 0.929 . S
C1588 C1587 1.363 . S
C1588 C1594 1.428 . S
H1589 C1585 0.930 . S
H1590 C1587 0.929 . S
S1591 N1592 1.613 . S
S1591 N1593 1.610 . S
N1592 S1591 1.613 . S
N1592 C1595 1.350 . S
N1593 S1591 1.610 . S
N1593 C1594 1.351 . S
C1594 C1588 1.428 . S
C1594 N1593 1.351 . S
C1594 C1595 1.434 . S
C1595 C1586 1.429 . S
C1595 N1592 1.350 . S
C1595 C1594 1.434 . S
C1596 C1597 1.369 . S
C1596 C1598 1.419 . S
C1596 H1600 0.930 . S
C1597 C1596 1.369 . S
C1597 C1606 1.429 . S
C1598 C1596 1.419 . S
C1598 C1599 1.363 . S
C1598 H1601 0.929 . S
C1599 C1598 1.363 . S
C1599 C1605 1.428 . S
H1600 C1596 0.930 . S
H1601 C1598 0.929 . S
S1602 N1603 1.613 . S
S1602 N1604 1.610 . S
N1603 S1602 1.613 . S
N1603 C1606 1.350 . S
N1604 S1602 1.610 . S
N1604 C1605 1.351 . S
C1605 C1599 1.428 . S
C1605 N1604 1.351 . S
C1605 C1606 1.434 . S
C1606 C1597 1.429 . S
C1606 N1603 1.350 . S
C1606 C1605 1.434 . S
C1607 C1608 1.369 . S
C1607 C1609 1.419 . S
C1607 H1611 0.930 . S
C1608 C1607 1.369 . S
C1608 C1617 1.429 . S
C1609 C1607 1.419 . S
C1609 C1610 1.363 . S
C1609 H1612 0.929 . S
C1610 C1609 1.363 . S
C1610 C1616 1.428 . S
H1611 C1607 0.930 . S
H1612 C1609 0.929 . S
S1613 N1614 1.613 . S
S1613 N1615 1.610 . S
N1614 S1613 1.613 . S
N1614 C1617 1.350 . S
N1615 S1613 1.610 . S
N1615 C1616 1.351 . S
C1616 C1610 1.428 . S
C1616 N1615 1.351 . S
C1616 C1617 1.434 . S
C1617 C1608 1.429 . S
C1617 N1614 1.350 . S
C1617 C1616 1.434 . S
C1618 C1619 1.369 . S
C1618 C1620 1.419 . S
C1618 H1622 0.930 . S
C1619 C1618 1.369 . S
C1619 C1628 1.429 . S
C1620 C1618 1.419 . S
C1620 C1621 1.363 . S
C1620 H1623 0.929 . S
C1621 C1620 1.363 . S
C1621 C1627 1.428 . S
H1622 C1618 0.930 . S
H1623 C1620 0.929 . S
S1624 N1625 1.613 . S
S1624 N1626 1.610 . S
N1625 S1624 1.613 . S
N1625 C1628 1.350 . S
N1626 S1624 1.610 . S
N1626 C1627 1.351 . S
C1627 C1621 1.428 . S
C1627 N1626 1.351 . S
C1627 C1628 1.434 . S
C1628 C1619 1.429 . S
C1628 N1625 1.350 . S
C1628 C1627 1.434 . S
C1629 C1630 1.369 . S
C1629 C1631 1.419 . S
C1629 H1633 0.930 . S
C1630 C1629 1.369 . S
C1630 C1639 1.429 . S
C1631 C1629 1.419 . S
C1631 C1632 1.363 . S
C1631 H1634 0.929 . S
C1632 C1631 1.363 . S
C1632 C1638 1.428 . S
H1633 C1629 0.930 . S
H1634 C1631 0.929 . S
S1635 N1636 1.613 . S
S1635 N1637 1.610 . S
N1636 S1635 1.613 . S
N1636 C1639 1.350 . S
N1637 S1635 1.610 . S
N1637 C1638 1.351 . S
C1638 C1632 1.428 . S
C1638 N1637 1.351 . S
C1638 C1639 1.434 . S
C1639 C1630 1.429 . S
C1639 N1636 1.350 . S
C1639 C1638 1.434 . S
C1640 C1641 1.369 . S
C1640 C1642 1.419 . S
C1640 H1644 0.930 . S
C1641 C1640 1.369 . S
C1641 C1650 1.429 . S
C1642 C1640 1.419 . S
C1642 C1643 1.363 . S
C1642 H1645 0.929 . S
C1643 C1642 1.363 . S
C1643 C1649 1.428 . S
H1644 C1640 0.930 . S
H1645 C1642 0.929 . S
S1646 N1647 1.613 . S
S1646 N1648 1.610 . S
N1647 S1646 1.613 . S
N1647 C1650 1.350 . S
N1648 S1646 1.610 . S
N1648 C1649 1.351 . S
C1649 C1643 1.428 . S
C1649 N1648 1.351 . S
C1649 C1650 1.434 . S
C1650 C1641 1.429 . S
C1650 N1647 1.350 . S
C1650 C1649 1.434 . S
C1651 C1652 1.369 . S
C1651 C1653 1.419 . S
C1651 H1655 0.930 . S
C1652 C1651 1.369 . S
C1652 C1661 1.429 . S
C1653 C1651 1.419 . S
C1653 C1654 1.363 . S
C1653 H1656 0.929 . S
C1654 C1653 1.363 . S
C1654 C1660 1.428 . S
H1655 C1651 0.930 . S
H1656 C1653 0.929 . S
S1657 N1658 1.613 . S
S1657 N1659 1.610 . S
N1658 S1657 1.613 . S
N1658 C1661 1.350 . S
N1659 S1657 1.610 . S
N1659 C1660 1.351 . S
C1660 C1654 1.428 . S
C1660 N1659 1.351 . S
C1660 C1661 1.434 . S
C1661 C1652 1.429 . S
C1661 N1658 1.350 . S
C1661 C1660 1.434 . S
C1662 C1663 1.369 . S
C1662 C1664 1.419 . S
C1662 H1666 0.930 . S
C1663 C1662 1.369 . S
C1663 C1672 1.429 . S
C1664 C1662 1.419 . S
C1664 C1665 1.363 . S
C1664 H1667 0.929 . S
C1665 C1664 1.363 . S
C1665 C1671 1.428 . S
H1666 C1662 0.930 . S
H1667 C1664 0.929 . S
S1668 N1669 1.613 . S
S1668 N1670 1.610 . S
N1669 S1668 1.613 . S
N1669 C1672 1.350 . S
N1670 S1668 1.610 . S
N1670 C1671 1.351 . S
C1671 C1665 1.428 . S
C1671 N1670 1.351 . S
C1671 C1672 1.434 . S
C1672 C1663 1.429 . S
C1672 N1669 1.350 . S
C1672 C1671 1.434 . S
C1673 C1674 1.369 . S
C1673 C1675 1.419 . S
C1673 H1677 0.930 . S
C1674 C1673 1.369 . S
C1674 C1683 1.429 . S
C1675 C1673 1.419 . S
C1675 C1676 1.363 . S
C1675 H1678 0.929 . S
C1676 C1675 1.363 . S
C1676 C1682 1.428 . S
H1677 C1673 0.930 . S
H1678 C1675 0.929 . S
S1679 N1680 1.613 . S
S1679 N1681 1.610 . S
N1680 S1679 1.613 . S
N1680 C1683 1.350 . S
N1681 S1679 1.610 . S
N1681 C1682 1.351 . S
C1682 C1676 1.428 . S
C1682 N1681 1.351 . S
C1682 C1683 1.434 . S
C1683 C1674 1.429 . S
C1683 N1680 1.350 . S
C1683 C1682 1.434 . S
C1684 C1685 1.369 . S
C1684 C1686 1.419 . S
C1684 H1688 0.930 . S
C1685 C1684 1.369 . S
C1685 C1694 1.429 . S
C1686 C1684 1.419 . S
C1686 C1687 1.363 . S
C1686 H1689 0.929 . S
C1687 C1686 1.363 . S
C1687 C1693 1.428 . S
H1688 C1684 0.930 . S
H1689 C1686 0.929 . S
S1690 N1691 1.613 . S
S1690 N1692 1.610 . S
N1691 S1690 1.613 . S
N1691 C1694 1.350 . S
N1692 S1690 1.610 . S
N1692 C1693 1.351 . S
C1693 C1687 1.428 . S
C1693 N1692 1.351 . S
C1693 C1694 1.434 . S
C1694 C1685 1.429 . S
C1694 N1691 1.350 . S
C1694 C1693 1.434 . S
C1695 C1696 1.369 . S
C1695 C1697 1.419 . S
C1695 H1699 0.930 . S
C1696 C1695 1.369 . S
C1696 C1705 1.429 . S
C1697 C1695 1.419 . S
C1697 C1698 1.363 . S
C1697 H1700 0.929 . S
C1698 C1697 1.363 . S
C1698 C1704 1.428 . S
H1699 C1695 0.930 . S
H1700 C1697 0.929 . S
S1701 N1702 1.613 . S
S1701 N1703 1.610 . S
N1702 S1701 1.613 . S
N1702 C1705 1.350 . S
N1703 S1701 1.610 . S
N1703 C1704 1.351 . S
C1704 C1698 1.428 . S
C1704 N1703 1.351 . S
C1704 C1705 1.434 . S
C1705 C1696 1.429 . S
C1705 N1702 1.350 . S
C1705 C1704 1.434 . S
C1706 C1707 1.369 . S
C1706 C1708 1.419 . S
C1706 H1710 0.930 . S
C1707 C1706 1.369 . S
C1707 C1716 1.429 . S
C1708 C1706 1.419 . S
C1708 C1709 1.363 . S
C1708 H1711 0.929 . S
C1709 C1708 1.363 . S
C1709 C1715 1.428 . S
H1710 C1706 0.930 . S
H1711 C1708 0.929 . S
S1712 N1713 1.613 . S
S1712 N1714 1.610 . S
N1713 S1712 1.613 . S
N1713 C1716 1.350 . S
N1714 S1712 1.610 . S
N1714 C1715 1.351 . S
C1715 C1709 1.428 . S
C1715 N1714 1.351 . S
C1715 C1716 1.434 . S
C1716 C1707 1.429 . S
C1716 N1713 1.350 . S
C1716 C1715 1.434 . S
C1717 C1718 1.369 . S
C1717 C1719 1.419 . S
C1717 H1721 0.930 . S
C1718 C1717 1.369 . S
C1718 C1727 1.429 . S
C1719 C1717 1.419 . S
C1719 C1720 1.363 . S
C1719 H1722 0.929 . S
C1720 C1719 1.363 . S
C1720 C1726 1.428 . S
H1721 C1717 0.930 . S
H1722 C1719 0.929 . S
S1723 N1724 1.613 . S
S1723 N1725 1.610 . S
N1724 S1723 1.613 . S
N1724 C1727 1.350 . S
N1725 S1723 1.610 . S
N1725 C1726 1.351 . S
C1726 C1720 1.428 . S
C1726 N1725 1.351 . S
C1726 C1727 1.434 . S
C1727 C1718 1.429 . S
C1727 N1724 1.350 . S
C1727 C1726 1.434 . S
C673 C127 2.026 . S
C675 C1 2.025 . S
C684 C152 2.024 . S
C686 C14 2.025 . S
C695 C155 2.024 . S
C697 C40 2.025 . S
C706 C124 2.026 . S
C708 C54 2.027 . S
C717 C57 2.025 . S
C719 C223 2.024 . S
C728 C82 2.027 . S
C730 C168 2.027 . S
C739 C97 2.027 . S
C741 C194 2.027 . S
C750 C196 2.025 . S
C752 C98 2.025 . S
C761 C236 2.024 . S
C763 C264 2.025 . S
C772 C239 2.026 . S
C774 C656 2.027 . S
C783 C278 2.026 . S
C785 C658 2.025 . S
C794 C292 2.025 . S
C796 C631 2.024 . S
C805 C306 2.026 . S
C807 C616 2.027 . S
C816 C586 2.027 . S
C818 C308 2.027 . S
C827 C334 2.024 . S
C829 C603 2.025 . S
C838 C474 2.027 . S
C840 C349 2.027 . S
C849 C476 2.026 . S
C851 C350 2.027 . S
C860 C491 2.027 . S
C862 C376 2.027 . S
C871 C448 2.025 . S
C873 C378 2.025 . S
C882 C559 2.027 . S
C884 C405 2.027 . S
C893 C504 2.027 . S
C895 C418 2.027 . S
C904 C421 2.025 . S
C906 C531 2.024 . S
C915 C435 2.024 . S
C917 C532 2.025 . S
C926 C561 2.026 . S
C928 C600 2.027 . S
C937 C224 1.306 . S
C939 C0 1.335 . S
C948 C670 1.297 . S
C950 C15 1.338 . S
C959 C41 1.332 . S
C961 C294 1.307 . S
C970 C644 1.298 . S
C972 C55 1.338 . S
C981 C56 1.334 . S
C983 C574 1.306 . S
C992 C588 1.308 . S
C994 C83 1.333 . S
C1003 C96 1.335 . S
C1005 C615 1.302 . S
C1014 C280 1.300 . S
C1016 C99 1.336 . S
C1025 C125 1.336 . S
C1027 C13 1.301 . S
C1036 C26 1.301 . S
C1038 C126 1.338 . S
C1047 C153 1.336 . S
C1049 C28 1.301 . S
C1058 C42 1.305 . S
C1060 C154 1.337 . S
C1069 C169 1.338 . S
C1071 C69 1.297 . S
C1080 C70 1.297 . S
C1082 C195 1.338 . S
C1091 C197 1.332 . S
C1093 C85 1.304 . S
C1102 C222 1.336 . S
C1104 C110 1.305 . S
C1113 C237 1.333 . S
C1115 C112 1.306 . S
C1124 C238 1.335 . S
C1126 C516 1.306 . S
C1135 C519 1.304 . S
C1137 C265 1.334 . S
C1146 C544 1.297 . S
C1148 C279 1.338 . S
C1157 C211 1.295 . S
C1159 C293 1.338 . S
C1168 C307 1.338 . S
C1170 C140 1.300 . S
C1179 C503 1.295 . S
C1181 C309 1.338 . S
C1190 C335 1.338 . S
C1192 C462 1.298 . S
C1201 C348 1.340 . S
C1203 C573 1.297 . S
C1212 C351 1.338 . S
C1214 C322 1.299 . S
C1223 C377 1.336 . S
C1225 C643 1.301 . S
C1234 C379 1.337 . S
C1236 C320 1.300 . S
C1245 C404 1.335 . S
C1247 C251 1.304 . S
C1256 C419 1.336 . S
C1258 C252 1.304 . S
C1267 C266 1.300 . S
C1269 C420 1.337 . S
C1278 C628 1.304 . S
C1280 C434 1.337 . S
C1289 C337 1.304 . S
C1291 C449 1.334 . S
C1300 C362 1.306 . S
C1302 C475 1.334 . S
C1311 C477 1.336 . S
C1313 C364 1.301 . S
C1322 C390 1.302 . S
C1324 C490 1.336 . S
C1333 C505 1.338 . S
C1335 C393 1.298 . S
C1344 C530 1.340 . S
C1346 C406 1.300 . S
C1355 C533 1.337 . S
C1357 C433 1.300 . S
C1366 C447 1.295 . S
C1368 C558 1.340 . S
C1377 C560 1.338 . S
C1379 C460 1.300 . S
C1388 C587 1.333 . S
C1390 C180 1.306 . S
C1399 C182 1.306 . S
C1401 C601 1.333 . S
C1410 C602 1.334 . S
C1412 C208 1.307 . S
C1421 C617 1.333 . S
C1423 C547 1.304 . S
C1432 C488 1.307 . S
C1434 C630 1.335 . S
C1443 C167 1.301 . S
C1445 C657 1.335 . S
C1454 C139 1.305 . S
C1456 C659 1.334 . S
C1465 C321 1.643 . S
C1467 C12 1.635 . S
C1476 C27 1.632 . S
C1478 C572 1.642 . S
C1487 C29 1.637 . S
C1489 C323 1.639 . S
C1498 C642 1.641 . S
C1500 C43 1.637 . S
C1509 C68 1.638 . S
C1511 C253 1.639 . S
C1520 C267 1.634 . S
C1522 C71 1.638 . S
C1531 C629 1.641 . S
C1533 C84 1.637 . S
C1542 C111 1.641 . S
C1544 C250 1.638 . S
C1553 C183 1.642 . S
C1555 C113 1.633 . S
C1564 C138 1.638 . S
C1566 C209 1.639 . S
C1575 C210 1.635 . S
C1577 C141 1.641 . S
C1586 C166 1.634 . S
C1588 C181 1.642 . S
C1597 C363 1.635 . S
C1599 C225 1.638 . S
C1608 C281 1.632 . S
C1610 C432 1.644 . S
C1619 C295 1.636 . S
C1621 C391 1.637 . S
C1630 C645 1.639 . S
C1632 C336 1.636 . S
C1641 C365 1.633 . S
C1643 C671 1.641 . S
C1652 C392 1.645 . S
C1654 C589 1.633 . S
C1663 C407 1.642 . S
C1665 C614 1.636 . S
C1674 C575 1.640 . S
C1676 C446 1.636 . S
C1685 C518 1.640 . S
C1687 C461 1.635 . S
C1696 C463 1.633 . S
C1698 C545 1.641 . S
C1707 C489 1.634 . S
C1709 C546 1.640 . S
C1718 C517 1.632 . S
C1720 C502 1.642 . S
