# Generated by pormake.
# Topology umu, (4)-cn, num edge types: 1
# Building blocks:
#     Node 0, Type 0, BuildingBlock: UXUYUI_clean_sbu_0, # of connection points: 4
#     Node 1, Type 0, BuildingBlock: UXUYUI_clean_sbu_0, # of connection points: 4
#     Node 2, Type 0, BuildingBlock: UXUYUI_clean_sbu_0, # of connection points: 4
#     Node 3, Type 0, BuildingBlock: UXUYUI_clean_sbu_0, # of connection points: 4
#     Node 4, Type 0, BuildingBlock: UXUYUI_clean_sbu_0, # of connection points: 4
#     Node 5, Type 0, BuildingBlock: UXUYUI_clean_sbu_0, # of connection points: 4
#     Node 6, Type 0, BuildingBlock: UXUYUI_clean_sbu_0, # of connection points: 4
#     Node 7, Type 0, BuildingBlock: UXUYUI_clean_sbu_0, # of connection points: 4
#     Node 8, Type 0, BuildingBlock: UXUYUI_clean_sbu_0, # of connection points: 4
#     Node 9, Type 0, BuildingBlock: UXUYUI_clean_sbu_0, # of connection points: 4
#     Node 10, Type 0, BuildingBlock: UXUYUI_clean_sbu_0, # of connection points: 4
#     Node 11, Type 0, BuildingBlock: UXUYUI_clean_sbu_0, # of connection points: 4
#     Node 12, Type 0, BuildingBlock: UXUYUI_clean_sbu_0, # of connection points: 4
#     Node 13, Type 0, BuildingBlock: UXUYUI_clean_sbu_0, # of connection points: 4
#     Node 14, Type 0, BuildingBlock: UXUYUI_clean_sbu_0, # of connection points: 4
#     Node 15, Type 0, BuildingBlock: UXUYUI_clean_sbu_0, # of connection points: 4
#     Node 16, Type 0, BuildingBlock: UXUYUI_clean_sbu_0, # of connection points: 4
#     Node 17, Type 0, BuildingBlock: UXUYUI_clean_sbu_0, # of connection points: 4
#     Node 18, Type 0, BuildingBlock: UXUYUI_clean_sbu_0, # of connection points: 4
#     Node 19, Type 0, BuildingBlock: UXUYUI_clean_sbu_0, # of connection points: 4
#     Node 20, Type 0, BuildingBlock: UXUYUI_clean_sbu_0, # of connection points: 4
#     Node 21, Type 0, BuildingBlock: UXUYUI_clean_sbu_0, # of connection points: 4
#     Node 22, Type 0, BuildingBlock: UXUYUI_clean_sbu_0, # of connection points: 4
#     Node 23, Type 0, BuildingBlock: UXUYUI_clean_sbu_0, # of connection points: 4
#     Node 24, Type 0, BuildingBlock: UXUYUI_clean_sbu_0, # of connection points: 4
#     Node 25, Type 0, BuildingBlock: UXUYUI_clean_sbu_0, # of connection points: 4
#     Node 26, Type 0, BuildingBlock: UXUYUI_clean_sbu_0, # of connection points: 4
#     Node 27, Type 0, BuildingBlock: UXUYUI_clean_sbu_0, # of connection points: 4
#     Node 28, Type 0, BuildingBlock: UXUYUI_clean_sbu_0, # of connection points: 4
#     Node 29, Type 0, BuildingBlock: UXUYUI_clean_sbu_0, # of connection points: 4
#     Node 30, Type 0, BuildingBlock: UXUYUI_clean_sbu_0, # of connection points: 4
#     Node 31, Type 0, BuildingBlock: UXUYUI_clean_sbu_0, # of connection points: 4
#     Edge 32, Type (0, 0), BuildingBlock: OJICUG_clean_linker_0, # of connection points: 2
#     Edge 33, Type (0, 0), BuildingBlock: OJICUG_clean_linker_0, # of connection points: 2
#     Edge 34, Type (0, 0), BuildingBlock: OJICUG_clean_linker_0, # of connection points: 2
#     Edge 35, Type (0, 0), BuildingBlock: OJICUG_clean_linker_0, # of connection points: 2
#     Edge 36, Type (0, 0), BuildingBlock: OJICUG_clean_linker_0, # of connection points: 2
#     Edge 37, Type (0, 0), BuildingBlock: OJICUG_clean_linker_0, # of connection points: 2
#     Edge 38, Type (0, 0), BuildingBlock: OJICUG_clean_linker_0, # of connection points: 2
#     Edge 39, Type (0, 0), BuildingBlock: OJICUG_clean_linker_0, # of connection points: 2
#     Edge 40, Type (0, 0), BuildingBlock: OJICUG_clean_linker_0, # of connection points: 2
#     Edge 41, Type (0, 0), BuildingBlock: OJICUG_clean_linker_0, # of connection points: 2
#     Edge 42, Type (0, 0), BuildingBlock: OJICUG_clean_linker_0, # of connection points: 2
#     Edge 43, Type (0, 0), BuildingBlock: OJICUG_clean_linker_0, # of connection points: 2
#     Edge 44, Type (0, 0), BuildingBlock: OJICUG_clean_linker_0, # of connection points: 2
#     Edge 45, Type (0, 0), BuildingBlock: OJICUG_clean_linker_0, # of connection points: 2
#     Edge 46, Type (0, 0), BuildingBlock: OJICUG_clean_linker_0, # of connection points: 2
#     Edge 47, Type (0, 0), BuildingBlock: OJICUG_clean_linker_0, # of connection points: 2
#     Edge 48, Type (0, 0), BuildingBlock: OJICUG_clean_linker_0, # of connection points: 2
#     Edge 49, Type (0, 0), BuildingBlock: OJICUG_clean_linker_0, # of connection points: 2
#     Edge 50, Type (0, 0), BuildingBlock: OJICUG_clean_linker_0, # of connection points: 2
#     Edge 51, Type (0, 0), BuildingBlock: OJICUG_clean_linker_0, # of connection points: 2
#     Edge 52, Type (0, 0), BuildingBlock: OJICUG_clean_linker_0, # of connection points: 2
#     Edge 53, Type (0, 0), BuildingBlock: OJICUG_clean_linker_0, # of connection points: 2
#     Edge 54, Type (0, 0), BuildingBlock: OJICUG_clean_linker_0, # of connection points: 2
#     Edge 55, Type (0, 0), BuildingBlock: OJICUG_clean_linker_0, # of connection points: 2
#     Edge 56, Type (0, 0), BuildingBlock: OJICUG_clean_linker_0, # of connection points: 2
#     Edge 57, Type (0, 0), BuildingBlock: OJICUG_clean_linker_0, # of connection points: 2
#     Edge 58, Type (0, 0), BuildingBlock: OJICUG_clean_linker_0, # of connection points: 2
#     Edge 59, Type (0, 0), BuildingBlock: OJICUG_clean_linker_0, # of connection points: 2
#     Edge 60, Type (0, 0), BuildingBlock: OJICUG_clean_linker_0, # of connection points: 2
#     Edge 61, Type (0, 0), BuildingBlock: OJICUG_clean_linker_0, # of connection points: 2
#     Edge 62, Type (0, 0), BuildingBlock: OJICUG_clean_linker_0, # of connection points: 2
#     Edge 63, Type (0, 0), BuildingBlock: OJICUG_clean_linker_0, # of connection points: 2
#     Edge 64, Type (0, 0), BuildingBlock: OJICUG_clean_linker_0, # of connection points: 2
#     Edge 65, Type (0, 0), BuildingBlock: OJICUG_clean_linker_0, # of connection points: 2
#     Edge 66, Type (0, 0), BuildingBlock: OJICUG_clean_linker_0, # of connection points: 2
#     Edge 67, Type (0, 0), BuildingBlock: OJICUG_clean_linker_0, # of connection points: 2
#     Edge 68, Type (0, 0), BuildingBlock: OJICUG_clean_linker_0, # of connection points: 2
#     Edge 69, Type (0, 0), BuildingBlock: OJICUG_clean_linker_0, # of connection points: 2
#     Edge 70, Type (0, 0), BuildingBlock: OJICUG_clean_linker_0, # of connection points: 2
#     Edge 71, Type (0, 0), BuildingBlock: OJICUG_clean_linker_0, # of connection points: 2
#     Edge 72, Type (0, 0), BuildingBlock: OJICUG_clean_linker_0, # of connection points: 2
#     Edge 73, Type (0, 0), BuildingBlock: OJICUG_clean_linker_0, # of connection points: 2
#     Edge 74, Type (0, 0), BuildingBlock: OJICUG_clean_linker_0, # of connection points: 2
#     Edge 75, Type (0, 0), BuildingBlock: OJICUG_clean_linker_0, # of connection points: 2
#     Edge 76, Type (0, 0), BuildingBlock: OJICUG_clean_linker_0, # of connection points: 2
#     Edge 77, Type (0, 0), BuildingBlock: OJICUG_clean_linker_0, # of connection points: 2
#     Edge 78, Type (0, 0), BuildingBlock: OJICUG_clean_linker_0, # of connection points: 2
#     Edge 79, Type (0, 0), BuildingBlock: OJICUG_clean_linker_0, # of connection points: 2
#     Edge 80, Type (0, 0), BuildingBlock: OJICUG_clean_linker_0, # of connection points: 2
#     Edge 81, Type (0, 0), BuildingBlock: OJICUG_clean_linker_0, # of connection points: 2
#     Edge 82, Type (0, 0), BuildingBlock: OJICUG_clean_linker_0, # of connection points: 2
#     Edge 83, Type (0, 0), BuildingBlock: OJICUG_clean_linker_0, # of connection points: 2
#     Edge 84, Type (0, 0), BuildingBlock: OJICUG_clean_linker_0, # of connection points: 2
#     Edge 85, Type (0, 0), BuildingBlock: OJICUG_clean_linker_0, # of connection points: 2
#     Edge 86, Type (0, 0), BuildingBlock: OJICUG_clean_linker_0, # of connection points: 2
#     Edge 87, Type (0, 0), BuildingBlock: OJICUG_clean_linker_0, # of connection points: 2
#     Edge 88, Type (0, 0), BuildingBlock: OJICUG_clean_linker_0, # of connection points: 2
#     Edge 89, Type (0, 0), BuildingBlock: OJICUG_clean_linker_0, # of connection points: 2
#     Edge 90, Type (0, 0), BuildingBlock: OJICUG_clean_linker_0, # of connection points: 2
#     Edge 91, Type (0, 0), BuildingBlock: OJICUG_clean_linker_0, # of connection points: 2
#     Edge 92, Type (0, 0), BuildingBlock: OJICUG_clean_linker_0, # of connection points: 2
#     Edge 93, Type (0, 0), BuildingBlock: OJICUG_clean_linker_0, # of connection points: 2
#     Edge 94, Type (0, 0), BuildingBlock: OJICUG_clean_linker_0, # of connection points: 2
#     Edge 95, Type (0, 0), BuildingBlock: OJICUG_clean_linker_0, # of connection points: 2
# Relax obj value: 0.234
# Max RMSD: 0.144
# Mean RMSD: 0.144
data_MOF--net-umu--node1-UXUYUI_clean_sbu_0--edge1-OJICUG_clean_linker_0
_symmetry_space_group_name_H-M    P1
_symmetry_Int_Tables_number       1
_symmetry_cell_setting            triclinic
loop_
_symmetry_equiv_pos_as_xyz
'x, y, z'
_cell_length_a     103.56917
_cell_length_b     103.56467
_cell_length_c     28.736264
_cell_angle_alpha  90.001935
_cell_angle_beta   90.002153
_cell_angle_gamma 89.998802
loop_
_atom_site_label
_atom_site_type_symbol
_atom_site_fract_x
_atom_site_fract_y
_atom_site_fract_z
_atom_type_partial_charge
Li0 Li 0.20368 0.16254 0.07955 0.0
Li1 Li 0.18646 0.15575 0.02611 0.0
Li2 Li 0.20443 0.16686 0.99451 0.0
Li3 Li 0.18907 0.17823 0.04501 0.0
C4 C 0.21573 0.1444 0.01151 0.0
N5 N 0.23827 0.13389 0.9767 0.0
C6 C 0.21537 0.13291 0.98605 0.0
C7 C 0.22758 0.15049 0.01956 0.0
C8 C 0.22687 0.12776 0.96868 0.0
C9 C 0.23886 0.14504 0.00159 0.0
C10 C 0.18042 0.15524 0.12096 0.0
C11 C 0.16675 0.14912 0.18522 0.0
N12 N 0.17223 0.13719 0.18533 0.0
C13 C 0.18592 0.14291 0.1217 0.0
C14 C 0.17076 0.15838 0.15296 0.0
C15 C 0.18165 0.13392 0.15452 0.0
C16 C 0.21388 0.16851 0.1671 0.0
N17 N 0.21395 0.15929 0.1335 0.0
C18 C 0.2306 0.14771 0.17338 0.0
C19 C 0.22183 0.14882 0.13659 0.0
C20 C 0.23117 0.15739 0.20769 0.0
C21 C 0.22238 0.16773 0.20472 0.0
H22 H 0.20742 0.17668 0.16397 0.0
H23 H 0.2216 0.1415 0.10979 0.0
C24 C 0.17843 0.13643 0.96707 0.0
N25 N 0.17469 0.14252 0.00669 0.0
C26 C 0.17023 0.12768 0.94505 0.0
C27 C 0.15438 0.1315 0.00521 0.0
C28 C 0.16296 0.14019 0.02628 0.0
C29 C 0.15796 0.12518 0.96378 0.0
H30 H 0.1876 0.13882 0.95138 0.0
H31 H 0.16009 0.14538 0.05724 0.0
C32 C 0.2117 0.19125 0.04387 0.0
N33 N 0.21721 0.21732 0.0391 0.0
C34 C 0.20856 0.1983 0.00395 0.0
C35 C 0.21773 0.19744 0.08123 0.0
C36 C 0.21139 0.21148 0.00227 0.0
C37 C 0.22043 0.21063 0.07815 0.0
C38 C 0.17481 0.16893 0.96023 0.0
C39 C 0.17468 0.16503 0.91368 0.0
C40 C 0.16316 0.17049 0.98414 0.0
C41 C 0.16286 0.1626 0.89193 0.0
C42 C 0.15155 0.16798 0.96114 0.0
N43 N 0.15164 0.1641 0.91592 0.0
C44 C 0.21247 0.15928 0.90634 0.0
C45 C 0.22569 0.17554 0.93964 0.0
C46 C 0.2203 0.15878 0.86694 0.0
N47 N 0.21526 0.16759 0.94151 0.0
C48 C 0.23369 0.17549 0.90058 0.0
C49 C 0.23103 0.167 0.86373 0.0
H50 H 0.20426 0.15289 0.90933 0.0
H51 H 0.22792 0.18177 0.9687 0.0
C52 C 0.18512 0.20131 0.09513 0.0
N53 N 0.18189 0.19498 0.05537 0.0
C54 C 0.183 0.2146 0.09902 0.0
C55 C 0.17319 0.21432 0.02275 0.0
C56 C 0.17576 0.20112 0.01991 0.0
C57 C 0.17731 0.22139 0.06186 0.0
H58 H 0.19022 0.19623 0.12239 0.0
H59 H 0.17355 0.19597 0.98822 0.0
O60 O 0.20454 0.14984 0.02761 0.0
O61 O 0.18434 0.16426 0.08913 0.0
O62 O 0.20852 0.17846 0.04691 0.0
O63 O 0.18629 0.17093 0.98268 0.0
H64 H 0.20633 0.12799 0.97981 0.0
H65 H 0.22802 0.15943 0.03899 0.0
H66 H 0.22673 0.11889 0.94882 0.0
H67 H 0.24807 0.1497 0.0073 0.0
H68 H 0.15927 0.15142 0.21017 0.0
H69 H 0.19339 0.14024 0.09731 0.0
H70 H 0.1664 0.16788 0.15279 0.0
H71 H 0.18582 0.12435 0.15548 0.0
H72 H 0.23718 0.13958 0.17385 0.0
H73 H 0.22217 0.17525 0.23085 0.0
H74 H 0.17331 0.12329 0.9127 0.0
H75 H 0.14503 0.12983 0.02093 0.0
H76 H 0.20379 0.19367 0.97488 0.0
H77 H 0.22023 0.19213 0.11238 0.0
H78 H 0.2089 0.21708 0.97178 0.0
H79 H 0.22505 0.21556 0.10687 0.0
H80 H 0.1836 0.16381 0.89463 0.0
H81 H 0.16311 0.17341 0.02032 0.0
H82 H 0.16261 0.1595 0.85599 0.0
H83 H 0.14246 0.16904 0.97932 0.0
H84 H 0.21794 0.15212 0.83915 0.0
H85 H 0.24202 0.18181 0.89962 0.0
H86 H 0.18652 0.21956 0.12962 0.0
H87 H 0.1685 0.21901 0.99363 0.0
Li88 Li 0.09388 0.93752 0.27576 0.0
Li89 Li 0.09037 0.95521 0.3319 0.0
Li90 Li 0.07198 0.94418 0.2987 0.0
Li91 Li 0.08584 0.95825 0.25132 0.0
C92 C 0.09364 0.9302 0.3693 0.0
N93 N 0.1101 0.9177 0.4301 0.0
C94 C 0.10619 0.93482 0.37619 0.0
C95 C 0.08947 0.91924 0.39336 0.0
C96 C 0.11436 0.92836 0.40712 0.0
C97 C 0.09794 0.91305 0.42389 0.0
C98 C 0.11099 0.96146 0.25243 0.0
C99 C 0.11819 0.98198 0.22231 0.0
N100 N 0.12689 0.97576 0.19488 0.0
C101 C 0.1201 0.95528 0.22426 0.0
C102 C 0.11011 0.97493 0.25181 0.0
C103 C 0.12802 0.96268 0.19531 0.0
C104 C 0.10499 0.9238 0.20367 0.0
N105 N 0.10439 0.92378 0.25095 0.0
C106 C 0.11904 0.90591 0.25408 0.0
C107 C 0.11112 0.91497 0.27634 0.0
C108 C 0.11997 0.90582 0.20516 0.0
C109 C 0.11262 0.91485 0.18005 0.0
H110 H 0.09964 0.93095 0.18416 0.0
H111 H 0.11054 0.91502 0.3138 0.0
C112 C 0.08976 0.96068 0.42836 0.0
N113 N 0.09555 0.96408 0.38772 0.0
C114 C 0.09084 0.96861 0.46749 0.0
C115 C 0.10441 0.98302 0.42308 0.0
C116 C 0.10316 0.97474 0.3849 0.0
C117 C 0.09785 0.98023 0.46472 0.0
H118 H 0.08368 0.9522 0.4296 0.0
H119 H 0.10762 0.97728 0.35223 0.0
C120 C 0.07351 0.92996 0.21842 0.0
N121 N 0.06269 0.90751 0.18413 0.0
C122 C 0.06825 0.92971 0.17367 0.0
C123 C 0.07328 0.91879 0.24576 0.0
C124 C 0.06282 0.91826 0.15695 0.0
C125 C 0.06777 0.90754 0.2278 0.0
C126 C 0.07102 0.97165 0.33689 0.0
C127 C 0.0628 0.96778 0.37287 0.0
C128 C 0.07579 0.98428 0.33619 0.0
C129 C 0.05951 0.97662 0.40767 0.0
C130 C 0.0723 0.99281 0.37169 0.0
N131 N 0.06431 0.98884 0.4064 0.0
C132 C 0.04992 0.9287 0.32736 0.0
C133 C 0.04611 0.94878 0.29006 0.0
C134 C 0.0366 0.92676 0.33288 0.0
N135 N 0.05434 0.93965 0.30656 0.0
C136 C 0.03285 0.94736 0.29557 0.0
C137 C 0.02795 0.93631 0.31758 0.0
H138 H 0.0567 0.92158 0.34006 0.0
H139 H 0.04992 0.95733 0.27334 0.0
C140 C 0.09159 0.96533 0.15983 0.0
N141 N 0.08546 0.96936 0.19903 0.0
C142 C 0.09153 0.97301 0.11999 0.0
C143 C 0.07856 0.9887 0.16132 0.0
C144 C 0.07893 0.98072 0.20046 0.0
C145 C 0.08494 0.98486 0.12042 0.0
H146 H 0.09652 0.95612 0.15959 0.0
H147 H 0.07393 0.98355 0.23183 0.0
O148 O 0.08534 0.9364 0.33979 0.0
O149 O 0.10305 0.95435 0.28058 0.0
O150 O 0.07885 0.94112 0.23513 0.0
O151 O 0.07466 0.96302 0.30323 0.0
H152 H 0.10965 0.94323 0.35782 0.0
H153 H 0.07978 0.91557 0.38846 0.0
H154 H 0.12409 0.93182 0.41276 0.0
H155 H 0.09485 0.90455 0.4427 0.0
H156 H 0.11748 0.9924 0.22106 0.0
H157 H 0.12109 0.94489 0.22485 0.0
H158 H 0.10303 0.97988 0.27294 0.0
H159 H 0.13507 0.95801 0.17321 0.0
H160 H 0.12461 0.89928 0.27515 0.0
H161 H 0.11275 0.91506 0.14239 0.0
H162 H 0.08583 0.96589 0.49907 0.0
H163 H 0.10985 0.99187 0.41899 0.0
H164 H 0.06837 0.93828 0.15209 0.0
H165 H 0.07733 0.91879 0.28044 0.0
H166 H 0.05871 0.91793 0.12236 0.0
H167 H 0.06752 0.89884 0.24856 0.0
H168 H 0.05918 0.958 0.37449 0.0
H169 H 0.08231 0.9874 0.30903 0.0
H170 H 0.05323 0.97373 0.43588 0.0
H171 H 0.07601 0.00258 0.37179 0.0
H172 H 0.03311 0.91812 0.34997 0.0
H173 H 0.02646 0.95484 0.28281 0.0
H174 H 0.09639 0.96961 0.08895 0.0
H175 H 0.07342 0.99779 0.16316 0.0
Li176 Li 0.31348 0.84406 0.52894 0.0
Li177 Li 0.29665 0.83901 0.58308 0.0
Li178 Li 0.31096 0.82163 0.54658 0.0
Li179 Li 0.29476 0.83429 0.49823 0.0
C180 C 0.32426 0.84319 0.61345 0.0
N181 N 0.34209 0.85882 0.65729 0.0
C182 C 0.321 0.85585 0.62538 0.0
C183 C 0.33651 0.83841 0.62416 0.0
C184 C 0.33017 0.86362 0.64741 0.0
C185 C 0.34541 0.84648 0.64627 0.0
C186 C 0.28381 0.85697 0.52992 0.0
C187 C 0.26061 0.85531 0.5351 0.0
N188 N 0.25965 0.86833 0.52989 0.0
C189 C 0.28258 0.87033 0.52451 0.0
C190 C 0.27272 0.84939 0.53518 0.0
C191 C 0.27029 0.87589 0.52463 0.0
C192 C 0.32079 0.86656 0.48307 0.0
N193 N 0.32583 0.85697 0.50983 0.0
C194 C 0.34726 0.86452 0.49444 0.0
C195 C 0.3388 0.85594 0.51647 0.0
C196 C 0.34231 0.87432 0.46566 0.0
C197 C 0.32886 0.8754 0.46081 0.0
H198 H 0.31049 0.86699 0.47725 0.0
H199 H 0.34266 0.84806 0.53675 0.0
C200 C 0.28504 0.83207 0.66688 0.0
N201 N 0.28679 0.84234 0.63816 0.0
C202 C 0.27658 0.83292 0.70461 0.0
C203 C 0.27222 0.85508 0.68372 0.0
C204 C 0.28091 0.85385 0.64671 0.0
C205 C 0.26972 0.84443 0.71279 0.0
H206 H 0.28992 0.82307 0.65952 0.0
H207 H 0.28261 0.86198 0.624 0.0
C208 C 0.32257 0.83234 0.45442 0.0
N209 N 0.34258 0.83916 0.3957 0.0
C210 C 0.32004 0.83911 0.41336 0.0
C211 C 0.33528 0.82896 0.46546 0.0
C212 C 0.33029 0.84251 0.38422 0.0
C213 C 0.34526 0.83249 0.43531 0.0
C214 C 0.28403 0.812 0.55001 0.0
C215 C 0.28763 0.8015 0.5223 0.0
C216 C 0.27264 0.81139 0.57601 0.0
C217 C 0.27982 0.79051 0.52138 0.0
C218 C 0.26507 0.80023 0.57405 0.0
N219 N 0.26879 0.79011 0.54707 0.0
C220 C 0.31299 0.79802 0.59451 0.0
C221 C 0.32405 0.79849 0.52238 0.0
C222 C 0.31501 0.78471 0.59831 0.0
N223 N 0.31725 0.80454 0.55643 0.0
C224 C 0.32651 0.78527 0.5252 0.0
C225 C 0.32157 0.77806 0.56271 0.0
H226 H 0.30732 0.80302 0.6205 0.0
H227 H 0.32698 0.80376 0.49175 0.0
C228 C 0.28338 0.84469 0.41919 0.0
N229 N 0.28318 0.83402 0.44673 0.0
C230 C 0.27543 0.84546 0.38013 0.0
C231 C 0.267 0.82434 0.3989 0.0
C232 C 0.27512 0.82398 0.43759 0.0
C233 C 0.26715 0.83515 0.36939 0.0
H234 H 0.28982 0.85259 0.42748 0.0
H235 H 0.27493 0.81568 0.4601 0.0
O236 O 0.31544 0.83548 0.59162 0.0
O237 O 0.29583 0.85146 0.52966 0.0
O238 O 0.31268 0.82914 0.48384 0.0
O239 O 0.29171 0.82273 0.55239 0.0
H240 H 0.31152 0.85966 0.61734 0.0
H241 H 0.33914 0.8286 0.61517 0.0
H242 H 0.32783 0.87347 0.65663 0.0
H243 H 0.35497 0.84295 0.6546 0.0
H244 H 0.25197 0.84956 0.5392 0.0
H245 H 0.29105 0.87634 0.52041 0.0
H246 H 0.27341 0.83906 0.53932 0.0
H247 H 0.26921 0.88621 0.52056 0.0
H248 H 0.35757 0.86338 0.49926 0.0
H249 H 0.32464 0.88268 0.43846 0.0
H250 H 0.27532 0.82454 0.72668 0.0
H251 H 0.26718 0.86415 0.68829 0.0
H252 H 0.31029 0.84179 0.40418 0.0
H253 H 0.33746 0.82396 0.49757 0.0
H254 H 0.32848 0.84783 0.35249 0.0
H255 H 0.35514 0.83003 0.44365 0.0
H256 H 0.29627 0.8019 0.50122 0.0
H257 H 0.26965 0.81945 0.59738 0.0
H258 H 0.28249 0.78232 0.50011 0.0
H259 H 0.25623 0.79963 0.59402 0.0
H260 H 0.31081 0.77962 0.62753 0.0
H261 H 0.33181 0.78068 0.49728 0.0
H262 H 0.27594 0.85394 0.35813 0.0
H263 H 0.26059 0.81627 0.39238 0.0
Li264 Li 0.40635 0.0628 0.77574 0.0
Li265 Li 0.41135 0.04563 0.82852 0.0
Li266 Li 0.42871 0.06063 0.79467 0.0
Li267 Li 0.41662 0.04461 0.74352 0.0
C268 C 0.40666 0.07318 0.86049 0.0
N269 N 0.39068 0.09093 0.90308 0.0
C270 C 0.39395 0.06985 0.87144 0.0
C271 C 0.41131 0.08546 0.87158 0.0
C272 C 0.386 0.07899 0.89283 0.0
C273 C 0.40306 0.09432 0.89304 0.0
C274 C 0.39393 0.0329 0.77223 0.0
C275 C 0.39604 0.0097 0.77271 0.0
N276 N 0.38302 0.00857 0.76813 0.0
C277 C 0.38058 0.0315 0.76742 0.0
C278 C 0.40174 0.0219 0.77482 0.0
C279 C 0.37524 0.01912 0.76547 0.0
C280 C 0.38366 0.07007 0.7308 0.0
N281 N 0.39333 0.07511 0.75713 0.0
C282 C 0.3856 0.09653 0.74252 0.0
C283 C 0.39435 0.08809 0.76376 0.0
C284 C 0.37569 0.09157 0.71423 0.0
C285 C 0.37469 0.07812 0.70912 0.0
H286 H 0.38324 0.05978 0.72484 0.0
H287 H 0.40231 0.09196 0.78362 0.0
C288 C 0.41795 0.03527 0.9146 0.0
N289 N 0.4082 0.03535 0.88295 0.0
C290 C 0.4176 0.02685 0.95257 0.0
C291 C 0.39695 0.01902 0.92573 0.0
C292 C 0.3976 0.02775 0.88868 0.0
C293 C 0.40716 0.01826 0.95795 0.0
H294 H 0.42623 0.04147 0.90944 0.0
H295 H 0.3898 0.02814 0.86387 0.0
C296 C 0.41841 0.0729 0.70361 0.0
N297 N 0.41172 0.09354 0.6477 0.0
C298 C 0.41105 0.07091 0.6635 0.0
C299 C 0.42246 0.08537 0.71511 0.0
C300 C 0.40771 0.08148 0.63579 0.0
C301 C 0.41898 0.09568 0.68637 0.0
C302 C 0.43824 0.03324 0.80016 0.0
C303 C 0.44971 0.03643 0.77723 0.0
C304 C 0.43755 0.02182 0.82599 0.0
C305 C 0.46035 0.02819 0.78085 0.0
C306 C 0.44839 0.01382 0.82867 0.0
N307 N 0.45947 0.01716 0.8063 0.0
C308 C 0.45128 0.06366 0.84741 0.0
C309 C 0.45255 0.07233 0.77119 0.0
C310 C 0.46456 0.06527 0.85352 0.0
N311 N 0.44564 0.06689 0.80633 0.0
C312 C 0.46583 0.07422 0.77595 0.0
C313 C 0.47207 0.07027 0.81697 0.0
H314 H 0.44558 0.05908 0.87431 0.0
H315 H 0.44793 0.07437 0.73828 0.0
C316 C 0.40715 0.03324 0.66291 0.0
N317 N 0.41773 0.03359 0.69085 0.0
C318 C 0.40696 0.02533 0.62366 0.0
C319 C 0.42859 0.01829 0.64255 0.0
C320 C 0.42836 0.02635 0.68145 0.0
C321 C 0.41778 0.0177 0.61309 0.0
H322 H 0.39884 0.03912 0.67124 0.0
H323 H 0.43664 0.02675 0.70407 0.0
O324 O 0.41455 0.0644 0.83932 0.0
O325 O 0.39923 0.04501 0.77376 0.0
O326 O 0.42154 0.06271 0.73173 0.0
O327 O 0.42782 0.04136 0.79818 0.0
H328 H 0.39025 0.06035 0.86313 0.0
H329 H 0.42116 0.08813 0.86338 0.0
H330 H 0.3761 0.07659 0.90127 0.0
H331 H 0.40649 0.10389 0.90164 0.0
H332 H 0.40197 0.00112 0.77471 0.0
H333 H 0.37438 0.0399 0.76535 0.0
H334 H 0.41207 0.02273 0.77837 0.0
H335 H 0.36492 0.01791 0.76183 0.0
H336 H 0.38669 0.10683 0.74762 0.0
H337 H 0.36737 0.07386 0.68704 0.0
H338 H 0.42554 0.02699 0.97704 0.0
H339 H 0.3887 0.01263 0.92796 0.0
H340 H 0.40782 0.06133 0.65413 0.0
H341 H 0.42802 0.08711 0.74638 0.0
H342 H 0.40192 0.0801 0.60485 0.0
H343 H 0.42196 0.1054 0.69504 0.0
H344 H 0.45035 0.04508 0.75632 0.0
H345 H 0.42874 0.01912 0.84369 0.0
H346 H 0.46928 0.03056 0.76331 0.0
H347 H 0.44799 0.00496 0.84857 0.0
H348 H 0.469 0.06214 0.88574 0.0
H349 H 0.47129 0.07789 0.74664 0.0
H350 H 0.39849 0.0253 0.60159 0.0
H351 H 0.43707 0.01244 0.63603 0.0
Li352 Li 0.20844 0.83672 0.07365 0.0
Li353 Li 0.19434 0.82229 0.02865 0.0
Li354 Li 0.20561 0.8401 0.99258 0.0
Li355 Li 0.1878 0.84454 0.04707 0.0
C356 C 0.22186 0.82056 0.99142 0.0
N357 N 0.23909 0.81278 0.92347 0.0
C358 C 0.21819 0.81138 0.95829 0.0
C359 C 0.23434 0.82571 0.99015 0.0
C360 C 0.22703 0.80758 0.92422 0.0
C361 C 0.24289 0.82168 0.95546 0.0
C362 C 0.17993 0.82541 0.10844 0.0
C363 C 0.15766 0.81911 0.09909 0.0
N364 N 0.15718 0.81586 0.14492 0.0
C365 C 0.17922 0.822 0.1554 0.0
C366 C 0.16908 0.82395 0.07997 0.0
C367 C 0.16762 0.81719 0.17321 0.0
C368 C 0.21546 0.8431 0.16497 0.0
N369 N 0.21952 0.83688 0.12598 0.0
C370 C 0.23898 0.83035 0.16359 0.0
C371 C 0.23097 0.83052 0.1246 0.0
C372 C 0.23508 0.83671 0.20445 0.0
C373 C 0.22316 0.84319 0.20479 0.0
H374 H 0.20619 0.84791 0.16513 0.0
H375 H 0.23383 0.82547 0.09338 0.0
C376 C 0.18329 0.79909 0.98867 0.0
N377 N 0.18958 0.80463 0.02509 0.0
C378 C 0.18177 0.78564 0.987 0.0
C379 C 0.19276 0.78412 0.06103 0.0
C380 C 0.19409 0.79749 0.06119 0.0
C381 C 0.18683 0.77797 0.02307 0.0
H382 H 0.17991 0.80503 0.96021 0.0
H383 H 0.19909 0.80221 0.08955 0.0
C384 C 0.21172 0.86177 0.06885 0.0
N385 N 0.22583 0.87825 0.12491 0.0
C386 C 0.20545 0.87119 0.09538 0.0
C387 C 0.22519 0.86089 0.07026 0.0
C388 C 0.21275 0.87939 0.12362 0.0
C389 C 0.23214 0.86925 0.09901 0.0
C390 C 0.18079 0.84295 0.95328 0.0
C391 C 0.18535 0.85545 0.945 0.0
C392 C 0.17009 0.83839 0.92866 0.0
C393 C 0.17909 0.86319 0.91218 0.0
C394 C 0.16408 0.84643 0.89621 0.0
N395 N 0.16867 0.85856 0.8887 0.0
C396 C 0.21162 0.83816 0.89662 0.0
C397 C 0.22503 0.85257 0.9385 0.0
C398 C 0.21964 0.83907 0.85765 0.0
N399 N 0.21464 0.84458 0.9364 0.0
C400 C 0.23341 0.85364 0.90057 0.0
C401 C 0.23098 0.84654 0.85976 0.0
H402 H 0.20333 0.8318 0.89594 0.0
H403 H 0.22726 0.85754 0.9705 0.0
C404 C 0.17393 0.85676 0.11635 0.0
N405 N 0.17391 0.85528 0.0693 0.0
C406 C 0.16466 0.86443 0.13821 0.0
C407 C 0.15546 0.86911 0.06288 0.0
C408 C 0.16483 0.86117 0.04242 0.0
C409 C 0.15533 0.87081 0.11142 0.0
H410 H 0.18133 0.85213 0.13697 0.0
H411 H 0.16483 0.85982 0.00521 0.0
O412 O 0.2132 0.82469 0.0242 0.0
O413 O 0.19122 0.83018 0.0907 0.0
O414 O 0.2047 0.85355 0.04138 0.0
O415 O 0.18681 0.83506 0.98473 0.0
H416 H 0.20856 0.80737 0.95839 0.0
H417 H 0.23732 0.83294 0.0151 0.0
H418 H 0.22428 0.80055 0.89819 0.0
H419 H 0.25252 0.82569 0.95381 0.0
H420 H 0.14919 0.81794 0.0775 0.0
H421 H 0.18754 0.82309 0.17785 0.0
H422 H 0.16943 0.82654 0.04355 0.0
H423 H 0.16693 0.81452 0.20952 0.0
H424 H 0.24814 0.82534 0.16171 0.0
H425 H 0.2197 0.84804 0.23575 0.0
H426 H 0.17719 0.78128 0.95699 0.0
H427 H 0.19658 0.77863 0.08999 0.0
H428 H 0.19508 0.87221 0.09401 0.0
H429 H 0.23021 0.8536 0.05031 0.0
H430 H 0.20801 0.88669 0.14446 0.0
H431 H 0.24255 0.86855 0.10089 0.0
H432 H 0.19359 0.8592 0.96369 0.0
H433 H 0.16647 0.82872 0.93462 0.0
H434 H 0.1825 0.87288 0.90545 0.0
H435 H 0.15578 0.84303 0.87695 0.0
H436 H 0.21716 0.83365 0.82671 0.0
H437 H 0.24204 0.85943 0.90428 0.0
H438 H 0.16502 0.86562 0.17564 0.0
H439 H 0.14835 0.87382 0.04103 0.0
Li440 Li 0.42834 0.94076 0.27992 0.0
Li441 Li 0.41677 0.95632 0.32461 0.0
Li442 Li 0.40572 0.93747 0.29657 0.0
Li443 Li 0.41277 0.95433 0.24018 0.0
C444 C 0.42185 0.92638 0.3601 0.0
N445 N 0.42473 0.90205 0.39813 0.0
C446 C 0.4222 0.9248 0.40836 0.0
C447 C 0.42289 0.91558 0.33113 0.0
C448 C 0.42369 0.91243 0.42692 0.0
C449 C 0.42436 0.90336 0.35105 0.0
C450 C 0.44116 0.96325 0.27456 0.0
C451 C 0.46069 0.97018 0.23633 0.0
N452 N 0.4672 0.96894 0.27719 0.0
C453 C 0.44802 0.96214 0.31626 0.0
C454 C 0.4475 0.96736 0.2343 0.0
C455 C 0.4612 0.96502 0.31684 0.0
C456 C 0.4515 0.93502 0.23172 0.0
N457 N 0.44543 0.93377 0.27343 0.0
C458 C 0.46516 0.92733 0.30974 0.0
C459 C 0.45195 0.92981 0.31191 0.0
C460 C 0.47194 0.92945 0.26802 0.0
C461 C 0.46483 0.93301 0.22826 0.0
H462 H 0.44616 0.93849 0.20187 0.0
H463 H 0.44713 0.92927 0.34511 0.0
C464 C 0.41179 0.9638 0.41587 0.0
N465 N 0.41756 0.96771 0.37587 0.0
C466 C 0.41175 0.97184 0.45478 0.0
C467 C 0.42362 0.98776 0.41047 0.0
C468 C 0.42344 0.9794 0.3724 0.0
C469 C 0.4177 0.98401 0.45235 0.0
H470 H 0.40717 0.95445 0.41737 0.0
H471 H 0.42782 0.9823 0.33987 0.0
C472 C 0.40642 0.93029 0.20265 0.0
N473 N 0.3892 0.9207 0.13785 0.0
C474 C 0.3941 0.93569 0.1985 0.0
C475 C 0.40998 0.92002 0.17383 0.0
C476 C 0.38554 0.93071 0.16552 0.0
C477 C 0.40113 0.91531 0.1413 0.0
C478 C 0.39371 0.96601 0.31086 0.0
C479 C 0.38308 0.9643 0.34018 0.0
C480 C 0.39839 0.97846 0.30249 0.0
C481 C 0.37742 0.97507 0.36116 0.0
C482 C 0.39246 0.98898 0.32414 0.0
N483 N 0.3822 0.98708 0.35283 0.0
C484 C 0.38839 0.92859 0.36075 0.0
C485 C 0.38964 0.91424 0.29669 0.0
C486 C 0.37984 0.92041 0.38374 0.0
N487 N 0.39302 0.92548 0.31796 0.0
C488 C 0.38114 0.90566 0.31873 0.0
C489 C 0.37612 0.90874 0.36289 0.0
H490 H 0.39167 0.93733 0.37764 0.0
H491 H 0.39374 0.91178 0.26325 0.0
C492 C 0.41801 0.96233 0.14845 0.0
N493 N 0.40953 0.96374 0.18413 0.0
C494 C 0.41716 0.97027 0.1092 0.0
C495 C 0.39863 0.98071 0.14357 0.0
C496 C 0.39971 0.97243 0.18176 0.0
C497 C 0.40759 0.97992 0.10685 0.0
H498 H 0.42567 0.95527 0.1511 0.0
H499 H 0.39294 0.97323 0.21017 0.0
O500 O 0.42003 0.9384 0.34153 0.0
O501 O 0.42836 0.96001 0.27291 0.0
O502 O 0.41503 0.9349 0.23473 0.0
O503 O 0.39961 0.95556 0.29085 0.0
H504 H 0.4213 0.93306 0.43123 0.0
H505 H 0.42253 0.91659 0.2937 0.0
H506 H 0.42399 0.91106 0.46423 0.0
H507 H 0.42518 0.89492 0.32908 0.0
H508 H 0.46575 0.9733 0.20538 0.0
H509 H 0.44327 0.95883 0.34763 0.0
H510 H 0.44233 0.96825 0.20174 0.0
H511 H 0.46666 0.96408 0.34874 0.0
H512 H 0.47007 0.9243 0.34114 0.0
H513 H 0.46956 0.93495 0.19543 0.0
H514 H 0.40721 0.9685 0.48654 0.0
H515 H 0.42815 0.99713 0.40691 0.0
H516 H 0.39112 0.94363 0.2204 0.0
H517 H 0.41948 0.91573 0.17668 0.0
H518 H 0.37597 0.93479 0.16193 0.0
H519 H 0.40376 0.90735 0.1188 0.0
H520 H 0.37919 0.95478 0.34652 0.0
H521 H 0.40667 0.97995 0.28013 0.0
H522 H 0.36921 0.97388 0.38404 0.0
H523 H 0.39607 0.99865 0.31829 0.0
H524 H 0.37646 0.92302 0.41814 0.0
H525 H 0.37853 0.89674 0.3015 0.0
H526 H 0.42409 0.96896 0.0814 0.0
H527 H 0.39113 0.98799 0.14391 0.0
Li528 Li 0.29212 0.16484 0.57527 0.0
Li529 Li 0.30784 0.17693 0.53084 0.0
Li530 Li 0.29469 0.16122 0.49024 0.0
Li531 Li 0.31123 0.15443 0.54751 0.0
C532 C 0.28559 0.18951 0.5214 0.0
N533 N 0.28054 0.2157 0.5172 0.0
C534 C 0.28555 0.19693 0.56205 0.0
C535 C 0.28296 0.19539 0.47867 0.0
C536 C 0.283 0.21016 0.55919 0.0
C537 C 0.28045 0.20865 0.47727 0.0
C538 C 0.32135 0.16897 0.61534 0.0
C539 C 0.34453 0.17119 0.61519 0.0
N540 N 0.34477 0.16815 0.66123 0.0
C541 C 0.32182 0.16588 0.66263 0.0
C542 C 0.33278 0.17166 0.59136 0.0
C543 C 0.33376 0.16551 0.68522 0.0
C544 C 0.2835 0.15799 0.66395 0.0
N545 N 0.28051 0.16527 0.62613 0.0
C546 C 0.26124 0.17284 0.66255 0.0
C547 C 0.26957 0.17249 0.62443 0.0
C548 C 0.26415 0.16551 0.70229 0.0
C549 C 0.27538 0.15792 0.70261 0.0
H550 H 0.29221 0.15222 0.66392 0.0
H551 H 0.26728 0.17794 0.59342 0.0
C552 C 0.31557 0.20008 0.48458 0.0
N553 N 0.31476 0.19398 0.52641 0.0
C554 C 0.31742 0.21346 0.48274 0.0
C555 C 0.3183 0.2138 0.5668 0.0
C556 C 0.31648 0.20048 0.56703 0.0
C557 C 0.31831 0.22052 0.52438 0.0
H558 H 0.31388 0.1947 0.45288 0.0
H559 H 0.31548 0.19548 0.59983 0.0
C560 C 0.2828 0.14178 0.55877 0.0
N561 N 0.2615 0.1298 0.59738 0.0
C562 C 0.2843 0.13052 0.58503 0.0
C563 C 0.27044 0.14686 0.5517 0.0
C564 C 0.27341 0.12463 0.60435 0.0
C565 C 0.2598 0.14069 0.57165 0.0
C566 C 0.31898 0.15526 0.45417 0.0
C567 C 0.31394 0.14278 0.45018 0.0
C568 C 0.32914 0.15908 0.42529 0.0
C569 C 0.31918 0.13433 0.41733 0.0
C570 C 0.33411 0.15034 0.39288 0.0
N571 N 0.32907 0.13825 0.38961 0.0
C572 C 0.28758 0.16611 0.39721 0.0
C573 C 0.27657 0.14843 0.43114 0.0
C574 C 0.27972 0.16545 0.35772 0.0
N575 N 0.28562 0.15792 0.43344 0.0
C576 C 0.26841 0.1475 0.39256 0.0
C577 C 0.26967 0.15631 0.35557 0.0
H578 H 0.29496 0.17347 0.39971 0.0
H579 H 0.27536 0.14185 0.45989 0.0
C580 C 0.31988 0.13619 0.60973 0.0
N581 N 0.32338 0.14185 0.569 0.0
C582 C 0.32825 0.12776 0.63253 0.0
C583 C 0.34386 0.13115 0.57125 0.0
C584 C 0.33512 0.13954 0.54947 0.0
C585 C 0.34046 0.12516 0.6135 0.0
H586 H 0.31071 0.13862 0.62541 0.0
H587 H 0.33785 0.14443 0.51772 0.0
O588 O 0.28846 0.17662 0.52335 0.0
O589 O 0.30981 0.1689 0.59219 0.0
O590 O 0.29337 0.1479 0.54051 0.0
O591 O 0.3141 0.16377 0.48606 0.0
H592 H 0.28774 0.19258 0.59536 0.0
H593 H 0.28293 0.18982 0.44689 0.0
H594 H 0.28307 0.21604 0.59031 0.0
H595 H 0.27847 0.21333 0.4444 0.0
H596 H 0.35346 0.1732 0.59705 0.0
H597 H 0.31306 0.1637 0.68162 0.0
H598 H 0.3326 0.17391 0.55458 0.0
H599 H 0.33428 0.16309 0.72179 0.0
H600 H 0.25256 0.17865 0.66082 0.0
H601 H 0.27795 0.15218 0.73272 0.0
H602 H 0.31727 0.21832 0.44937 0.0
H603 H 0.31903 0.2189 0.59962 0.0
H604 H 0.29375 0.12633 0.59028 0.0
H605 H 0.26911 0.1556 0.53161 0.0
H606 H 0.27444 0.11593 0.62487 0.0
H607 H 0.25021 0.14458 0.5668 0.0
H608 H 0.30609 0.1396 0.47207 0.0
H609 H 0.33314 0.16871 0.42797 0.0
H610 H 0.31538 0.12465 0.41388 0.0
H611 H 0.34198 0.15318 0.37034 0.0
H612 H 0.28134 0.17223 0.32964 0.0
H613 H 0.26083 0.14031 0.39284 0.0
H614 H 0.32532 0.12365 0.66552 0.0
H615 H 0.35317 0.12941 0.5553 0.0
Li616 Li 0.07114 0.05998 0.77521 0.0
Li617 Li 0.08333 0.0439 0.82518 0.0
Li618 Li 0.09335 0.06256 0.79567 0.0
Li619 Li 0.08886 0.04572 0.74097 0.0
C620 C 0.08049 0.07221 0.86657 0.0
N621 N 0.08594 0.09332 0.92199 0.0
C622 C 0.08731 0.07062 0.90814 0.0
C623 C 0.07635 0.08452 0.85335 0.0
C624 C 0.09002 0.08142 0.93559 0.0
C625 C 0.0792 0.09507 0.88187 0.0
C626 C 0.06141 0.03326 0.77124 0.0
C627 C 0.04924 0.01476 0.74533 0.0
N628 N 0.03918 0.01851 0.7726 0.0
C629 C 0.05098 0.03688 0.79928 0.0
C630 C 0.06056 0.02208 0.74418 0.0
C631 C 0.03982 0.02932 0.79937 0.0
C632 C 0.04901 0.06394 0.72029 0.0
N633 N 0.05424 0.06632 0.76282 0.0
C634 C 0.0339 0.07373 0.79168 0.0
C635 C 0.04705 0.07132 0.79806 0.0
C636 C 0.02807 0.07084 0.74875 0.0
C637 C 0.03588 0.06617 0.71242 0.0
H638 H 0.05492 0.05974 0.6932 0.0
H639 H 0.05133 0.07271 0.83199 0.0
C640 C 0.09292 0.03332 0.90642 0.0
N641 N 0.08267 0.0325 0.87703 0.0
C642 C 0.09354 0.02553 0.94593 0.0
C643 C 0.07309 0.01606 0.92404 0.0
C644 C 0.07289 0.02401 0.88482 0.0
C645 C 0.0835 0.01681 0.95527 0.0
H646 H 0.10062 0.04007 0.89911 0.0
H647 H 0.06496 0.02331 0.86074 0.0
C648 C 0.0932 0.07345 0.71143 0.0
N649 N 0.10901 0.09161 0.67025 0.0
C650 C 0.106 0.07038 0.70094 0.0
C651 C 0.08836 0.08568 0.70062 0.0
C652 C 0.11386 0.07972 0.68025 0.0
C653 C 0.09653 0.09475 0.67987 0.0
C654 C 0.10626 0.03289 0.79626 0.0
C655 C 0.11956 0.03163 0.8032 0.0
C656 C 0.0987 0.02183 0.79012 0.0
C657 C 0.12508 0.01932 0.80371 0.0
C658 C 0.10458 0.0097 0.79087 0.0
N659 N 0.11754 0.0087 0.79758 0.0
C660 C 0.11544 0.06987 0.84405 0.0
C661 C 0.1051 0.08791 0.8098 0.0
C662 C 0.12418 0.07791 0.86695 0.0
N663 N 0.10606 0.07493 0.81643 0.0
C664 C 0.11364 0.09633 0.83221 0.0
C665 C 0.12327 0.09136 0.86171 0.0
H666 H 0.11579 0.05957 0.84993 0.0
H667 H 0.09736 0.0918 0.78888 0.0
C668 C 0.0826 0.03416 0.65664 0.0
N669 N 0.09267 0.03586 0.68628 0.0
C670 C 0.08367 0.02571 0.61899 0.0
C671 C 0.10569 0.02132 0.64166 0.0
C672 C 0.10422 0.02997 0.67871 0.0
C673 C 0.09522 0.01884 0.61174 0.0
H674 H 0.07356 0.03906 0.66323 0.0
H675 H 0.11219 0.03162 0.70222 0.0
O676 O 0.07799 0.06179 0.83869 0.0
O677 O 0.07231 0.04071 0.7697 0.0
O678 O 0.08539 0.06448 0.73193 0.0
O679 O 0.10079 0.04493 0.79589 0.0
H680 H 0.09059 0.06117 0.91891 0.0
H681 H 0.07122 0.08596 0.82095 0.0
H682 H 0.09538 0.08035 0.96766 0.0
H683 H 0.07614 0.10467 0.8719 0.0
H684 H 0.04844 0.00609 0.72453 0.0
H685 H 0.0516 0.04532 0.82133 0.0
H686 H 0.06857 0.01906 0.72265 0.0
H687 H 0.03168 0.03202 0.82089 0.0
H688 H 0.02824 0.07709 0.82093 0.0
H689 H 0.0318 0.06389 0.67869 0.0
H690 H 0.1017 0.02648 0.96928 0.0
H691 H 0.06526 0.00931 0.92958 0.0
H692 H 0.10985 0.06092 0.70906 0.0
H693 H 0.07845 0.08816 0.70849 0.0
H694 H 0.12382 0.07752 0.67216 0.0
H695 H 0.09296 0.10428 0.67149 0.0
H696 H 0.12556 0.04008 0.80799 0.0
H697 H 0.08841 0.02254 0.78477 0.0
H698 H 0.13537 0.01821 0.80896 0.0
H699 H 0.09885 0.00107 0.78611 0.0
H700 H 0.13128 0.07363 0.88992 0.0
H701 H 0.11262 0.10664 0.82694 0.0
H702 H 0.07543 0.02443 0.59625 0.0
H703 H 0.11478 0.01627 0.63767 0.0
Li704 Li 0.81334 0.8429 0.04616 0.0
Li705 Li 0.7942 0.83271 0.07646 0.0
Li706 Li 0.80998 0.82087 0.02686 0.0
Li707 Li 0.79565 0.83702 0.99107 0.0
C708 C 0.82117 0.83121 0.12278 0.0
N709 N 0.83927 0.83875 0.18807 0.0
C710 C 0.81721 0.83642 0.16532 0.0
C711 C 0.83435 0.82965 0.11378 0.0
C712 C 0.82651 0.84021 0.1978 0.0
C713 C 0.84335 0.83357 0.14712 0.0
C714 C 0.78371 0.85605 0.04347 0.0
C715 C 0.76047 0.85586 0.03823 0.0
N716 N 0.76038 0.86896 0.04146 0.0
C717 C 0.78339 0.8695 0.04683 0.0
C718 C 0.77217 0.84916 0.03922 0.0
C719 C 0.77149 0.87586 0.04572 0.0
C720 C 0.83768 0.85659 0.04889 0.0
N721 N 0.82544 0.85575 0.0657 0.0
C722 C 0.8301 0.87135 0.1247 0.0
C723 C 0.82146 0.86313 0.10211 0.0
C724 C 0.84293 0.87213 0.10927 0.0
C725 C 0.84663 0.86484 0.07017 0.0
H726 H 0.84064 0.85052 0.02021 0.0
H727 H 0.81168 0.86219 0.1149 0.0
C728 C 0.7777 0.82125 0.14535 0.0
N729 N 0.78304 0.8324 0.12945 0.0
C730 C 0.76998 0.82129 0.18515 0.0
C731 C 0.77358 0.84426 0.19219 0.0
C732 C 0.7812 0.84377 0.1522 0.0
C733 C 0.76785 0.83291 0.20918 0.0
H734 H 0.77951 0.81228 0.12772 0.0
H735 H 0.78588 0.85244 0.13983 0.0
C736 C 0.82228 0.82834 0.95247 0.0
N737 N 0.83712 0.81378 0.89222 0.0
C738 C 0.81743 0.82486 0.90886 0.0
C739 C 0.83474 0.82456 0.96519 0.0
C740 C 0.82507 0.81746 0.87894 0.0
C741 C 0.84208 0.81715 0.93433 0.0
C742 C 0.78283 0.81065 0.02937 0.0
C743 C 0.78719 0.79972 0.05325 0.0
C744 C 0.77027 0.81084 0.01153 0.0
C745 C 0.77894 0.78916 0.05868 0.0
C746 C 0.76231 0.8001 0.01776 0.0
N747 N 0.76678 0.78956 0.04096 0.0
C748 C 0.82451 0.7985 0.04937 0.0
C749 C 0.81267 0.79718 0.97894 0.0
C750 C 0.82759 0.78539 0.04671 0.0
N751 N 0.81695 0.80403 0.01626 0.0
C752 C 0.81556 0.78406 0.9748 0.0
C753 C 0.82279 0.77791 0.00975 0.0
H754 H 0.82754 0.80406 0.07922 0.0
H755 H 0.80638 0.80175 0.95379 0.0
C756 C 0.78168 0.85255 0.92376 0.0
N757 N 0.78523 0.84047 0.93746 0.0
C758 C 0.77279 0.85417 0.88741 0.0
C759 C 0.77169 0.83097 0.87947 0.0
C760 C 0.78064 0.8298 0.91545 0.0
C761 C 0.76747 0.84325 0.86552 0.0
H762 H 0.78546 0.86089 0.94181 0.0
H763 H 0.78375 0.82033 0.92663 0.0
O764 O 0.81221 0.8278 0.08996 0.0
O765 O 0.79531 0.84973 0.04424 0.0
O766 O 0.81486 0.83538 0.98257 0.0
O767 O 0.79087 0.82099 0.02253 0.0
H768 H 0.80708 0.83764 0.17307 0.0
H769 H 0.8376 0.82564 0.08111 0.0
H770 H 0.82357 0.84436 0.23069 0.0
H771 H 0.85357 0.83254 0.14037 0.0
H772 H 0.75147 0.85064 0.03491 0.0
H773 H 0.79225 0.87497 0.05019 0.0
H774 H 0.77224 0.83876 0.03683 0.0
H775 H 0.77109 0.88627 0.04824 0.0
H776 H 0.82681 0.87692 0.15432 0.0
H777 H 0.85646 0.86513 0.05735 0.0
H778 H 0.76569 0.81233 0.19681 0.0
H779 H 0.77241 0.85338 0.21011 0.0
H780 H 0.80785 0.82778 0.89829 0.0
H781 H 0.83867 0.82721 0.9987 0.0
H782 H 0.8214 0.81464 0.84519 0.0
H783 H 0.8517 0.81408 0.94388 0.0
H784 H 0.79673 0.79948 0.06842 0.0
H785 H 0.76667 0.8192 0.99304 0.0
H786 H 0.7822 0.78067 0.07721 0.0
H787 H 0.75257 0.80013 0.0041 0.0
H788 H 0.83327 0.78105 0.07422 0.0
H789 H 0.8115 0.77862 0.94612 0.0
H790 H 0.76977 0.86381 0.87764 0.0
H791 H 0.76802 0.82231 0.86294 0.0
Li792 Li 0.9073 0.06172 0.79686 0.0
Li793 Li 0.91844 0.04231 0.82153 0.0
Li794 Li 0.92923 0.05803 0.77186 0.0
Li795 Li 0.91322 0.04411 0.73653 0.0
C796 C 0.92343 0.07018 0.86711 0.0
N797 N 0.92368 0.0905 0.92949 0.0
C798 C 0.92222 0.06785 0.91483 0.0
C799 C 0.92504 0.08283 0.85129 0.0
C800 C 0.92229 0.07825 0.94578 0.0
C801 C 0.92508 0.09298 0.88329 0.0
C802 C 0.89445 0.03352 0.81017 0.0
C803 C 0.89147 0.01062 0.82096 0.0
N804 N 0.88165 0.01307 0.85109 0.0
C805 C 0.88428 0.03582 0.84105 0.0
C806 C 0.89805 0.02083 0.79982 0.0
C807 C 0.87794 0.02534 0.86143 0.0
C808 C 0.88903 0.08296 0.79486 0.0
N809 N 0.89465 0.07349 0.8206 0.0
C810 C 0.88342 0.08053 0.8888 0.0
C811 C 0.89179 0.072 0.86644 0.0
C812 C 0.87761 0.09061 0.8636 0.0
C813 C 0.88042 0.09165 0.81572 0.0
H814 H 0.89127 0.08382 0.75823 0.0
H815 H 0.8962 0.06424 0.88593 0.0
C816 C 0.92684 0.02005 0.87268 0.0
N817 N 0.91915 0.03069 0.87266 0.0
C818 C 0.92689 0.01174 0.911 0.0
C819 C 0.91077 0.02526 0.94755 0.0
C820 C 0.91119 0.03339 0.90896 0.0
C821 C 0.91874 0.01432 0.94893 0.0
H822 H 0.93285 0.01794 0.84291 0.0
H823 H 0.90507 0.04184 0.9077 0.0
C824 C 0.919 0.07301 0.70339 0.0
N825 N 0.92846 0.09218 0.64573 0.0
C826 C 0.92381 0.06991 0.65935 0.0
C827 C 0.91867 0.08592 0.71751 0.0
C828 C 0.92865 0.07972 0.63087 0.0
C829 C 0.92358 0.09546 0.68804 0.0
C830 C 0.94221 0.03558 0.7695 0.0
C831 C 0.94909 0.03825 0.81024 0.0
C832 C 0.94862 0.03024 0.73126 0.0
C833 C 0.96232 0.03567 0.81184 0.0
C834 C 0.96186 0.0278 0.73426 0.0
N835 N 0.96838 0.03056 0.77411 0.0
C836 C 0.95293 0.07043 0.79467 0.0
C837 C 0.95159 0.06276 0.71719 0.0
C838 C 0.96604 0.07317 0.78906 0.0
N839 N 0.94602 0.06516 0.75918 0.0
C840 C 0.96468 0.06533 0.71007 0.0
C841 C 0.97217 0.07032 0.74668 0.0
H842 H 0.94854 0.0717 0.82839 0.0
H843 H 0.94609 0.05804 0.69015 0.0
C844 C 0.89691 0.02828 0.67938 0.0
N845 N 0.90855 0.03432 0.68261 0.0
C846 C 0.89429 0.02004 0.6419 0.0
C847 C 0.91546 0.02477 0.61103 0.0
C848 C 0.91773 0.03276 0.6493 0.0
C849 C 0.90368 0.01815 0.60723 0.0
H850 H 0.88977 0.02963 0.70638 0.0
H851 H 0.92696 0.03752 0.65298 0.0
O852 O 0.9231 0.06011 0.83616 0.0
O853 O 0.90103 0.04363 0.79085 0.0
O854 O 0.9142 0.06351 0.73172 0.0
O855 O 0.92935 0.03857 0.76669 0.0
H856 H 0.92122 0.05812 0.92792 0.0
H857 H 0.92643 0.08476 0.81477 0.0
H858 H 0.92126 0.07659 0.98275 0.0
H859 H 0.92627 0.10282 0.87141 0.0
H860 H 0.89421 0.00076 0.81353 0.0
H861 H 0.88138 0.04558 0.84939 0.0
H862 H 0.90597 0.01891 0.77623 0.0
H863 H 0.87009 0.02697 0.88557 0.0
H864 H 0.88177 0.07934 0.92574 0.0
H865 H 0.87599 0.09904 0.79445 0.0
H866 H 0.93304 0.00329 0.91069 0.0
H867 H 0.90441 0.0276 0.97625 0.0
H868 H 0.92389 0.06004 0.64733 0.0
H869 H 0.91452 0.0886 0.7506 0.0
H870 H 0.93253 0.07742 0.59692 0.0
H871 H 0.92344 0.10547 0.69872 0.0
H872 H 0.94431 0.04247 0.84006 0.0
H873 H 0.94346 0.02808 0.69951 0.0
H874 H 0.96779 0.0378 0.843 0.0
H875 H 0.96696 0.02374 0.70484 0.0
H876 H 0.97146 0.07672 0.81862 0.0
H877 H 0.96899 0.06299 0.6768 0.0
H878 H 0.88505 0.01517 0.64012 0.0
H879 H 0.92303 0.02347 0.58545 0.0
Li880 Li 0.6877 0.15638 0.54297 0.0
Li881 Li 0.70758 0.16569 0.57154 0.0
Li882 Li 0.69184 0.17847 0.5248 0.0
Li883 Li 0.70518 0.16184 0.48615 0.0
C884 C 0.68134 0.1678 0.6216 0.0
N885 N 0.66394 0.1603 0.68935 0.0
C886 C 0.68557 0.1609 0.66054 0.0
C887 C 0.66828 0.171 0.61738 0.0
C888 C 0.67662 0.15717 0.69434 0.0
C889 C 0.65963 0.1671 0.65194 0.0
C890 C 0.71644 0.14158 0.53556 0.0
C891 C 0.73959 0.13989 0.52892 0.0
N892 N 0.73855 0.1268 0.52811 0.0
C893 C 0.71559 0.12812 0.53478 0.0
C894 C 0.72852 0.14753 0.5327 0.0
C895 C 0.72689 0.12081 0.53096 0.0
C896 C 0.66235 0.14511 0.55282 0.0
N897 N 0.67512 0.14407 0.56327 0.0
C898 C 0.67073 0.12739 0.61859 0.0
C899 C 0.67944 0.13524 0.59463 0.0
C900 C 0.65742 0.1286 0.61016 0.0
C901 C 0.65329 0.13739 0.57594 0.0
H902 H 0.65915 0.15233 0.52829 0.0
H903 H 0.68963 0.13474 0.60269 0.0
C904 C 0.72288 0.17759 0.64113 0.0
N905 N 0.7191 0.16604 0.62333 0.0
C906 C 0.73081 0.1781 0.68033 0.0
C907 C 0.73048 0.15479 0.68331 0.0
C908 C 0.72261 0.15474 0.6439 0.0
C909 C 0.7347 0.16659 0.70204 0.0
H910 H 0.71954 0.18644 0.62555 0.0
H911 H 0.71903 0.14568 0.63044 0.0
C912 C 0.67837 0.17174 0.45167 0.0
N913 N 0.66315 0.18685 0.39448 0.0
C914 C 0.68236 0.1745 0.40629 0.0
C915 C 0.66658 0.17654 0.4678 0.0
C916 C 0.67454 0.18218 0.37795 0.0
C917 C 0.65904 0.1842 0.43841 0.0
C918 C 0.72016 0.18675 0.52229 0.0
C919 C 0.71741 0.19852 0.54401 0.0
C920 C 0.73248 0.18466 0.50378 0.0
C921 C 0.72702 0.20794 0.54715 0.0
C922 C 0.74183 0.19431 0.50762 0.0
N923 N 0.73894 0.20566 0.52904 0.0
C924 C 0.67999 0.20159 0.55402 0.0
C925 C 0.68872 0.20239 0.47779 0.0
C926 C 0.67761 0.21485 0.55313 0.0
N927 N 0.68566 0.19571 0.51704 0.0
C928 C 0.68638 0.21567 0.47522 0.0
C929 C 0.68112 0.2221 0.51383 0.0
H930 H 0.678 0.19615 0.58526 0.0
H931 H 0.6936 0.19755 0.44948 0.0
C932 C 0.71893 0.1466 0.41696 0.0
N933 N 0.71503 0.15854 0.43099 0.0
C934 C 0.72768 0.14531 0.37999 0.0
C935 C 0.72779 0.16853 0.37182 0.0
C936 C 0.719 0.16936 0.40844 0.0
C937 C 0.73247 0.15642 0.35778 0.0
H938 H 0.7156 0.13812 0.43529 0.0
H939 H 0.71565 0.17872 0.42002 0.0
O940 O 0.6899 0.17118 0.5874 0.0
O941 O 0.70545 0.14885 0.5387 0.0
O942 O 0.68597 0.16437 0.48012 0.0
O943 O 0.71078 0.1775 0.51799 0.0
H944 H 0.69561 0.15829 0.66435 0.0
H945 H 0.66481 0.17628 0.5874 0.0
H946 H 0.67974 0.15173 0.72445 0.0
H947 H 0.64948 0.16941 0.6489 0.0
H948 H 0.749 0.14438 0.52669 0.0
H949 H 0.7063 0.12338 0.53692 0.0
H950 H 0.72934 0.15791 0.53373 0.0
H951 H 0.72638 0.11038 0.53022 0.0
H952 H 0.67438 0.12061 0.64408 0.0
H953 H 0.64312 0.13871 0.56855 0.0
H954 H 0.73385 0.18742 0.69342 0.0
H955 H 0.73297 0.14568 0.69954 0.0
H956 H 0.6914 0.17077 0.39312 0.0
H957 H 0.66336 0.17452 0.50284 0.0
H958 H 0.67753 0.18444 0.34281 0.0
H959 H 0.64995 0.18807 0.45057 0.0
H960 H 0.70803 0.20031 0.55909 0.0
H961 H 0.73482 0.17569 0.48643 0.0
H962 H 0.72502 0.21705 0.5641 0.0
H963 H 0.75139 0.1928 0.49346 0.0
H964 H 0.67353 0.21947 0.58358 0.0
H965 H 0.68939 0.22097 0.4446 0.0
H966 H 0.73105 0.1358 0.37015 0.0
H967 H 0.73104 0.17732 0.35506 0.0
Li968 Li 0.58265 0.95868 0.32779 0.0
Li969 Li 0.59381 0.93937 0.30056 0.0
Li970 Li 0.58635 0.95734 0.24417 0.0
Li971 Li 0.57111 0.94314 0.28239 0.0
C972 C 0.60579 0.96798 0.31476 0.0
N973 N 0.61741 0.98871 0.3583 0.0
C974 C 0.61447 0.96592 0.35126 0.0
C975 C 0.60309 0.98056 0.30014 0.0
C976 C 0.62022 0.97654 0.3729 0.0
C977 C 0.60905 0.99092 0.32266 0.0
C978 C 0.57595 0.93108 0.37349 0.0
C979 C 0.57511 0.90846 0.39336 0.0
N980 N 0.56932 0.91152 0.43438 0.0
C981 C 0.57004 0.934 0.41594 0.0
C982 C 0.57854 0.91821 0.36213 0.0
C983 C 0.56674 0.92397 0.4462 0.0
C984 C 0.57755 0.98191 0.3788 0.0
N985 N 0.58246 0.96975 0.38032 0.0
C986 C 0.58866 0.97245 0.4597 0.0
C987 C 0.58793 0.96493 0.4196 0.0
C988 C 0.5836 0.98501 0.45936 0.0
C989 C 0.57792 0.98973 0.41837 0.0
H990 H 0.57348 0.98559 0.3468 0.0
H991 H 0.59186 0.95525 0.41954 0.0
C992 C 0.61288 0.91873 0.29462 0.0
N993 N 0.60678 0.92764 0.32152 0.0
C994 C 0.62175 0.91015 0.31472 0.0
C995 C 0.61776 0.92007 0.38943 0.0
C996 C 0.60916 0.92851 0.36791 0.0
C997 C 0.62424 0.91068 0.36297 0.0
H998 H 0.61078 0.91822 0.25779 0.0
H999 H 0.60409 0.93563 0.3885 0.0
C1000 C 0.55905 0.96706 0.29512 0.0
N1001 N 0.53621 0.97655 0.33136 0.0
C1002 C 0.55355 0.96138 0.33456 0.0
C1003 C 0.55296 0.97763 0.27434 0.0
C1004 C 0.54199 0.96629 0.35226 0.0
C1005 C 0.54142 0.98228 0.29314 0.0
C1006 C 0.57831 0.93031 0.20785 0.0
C1007 C 0.57335 0.93547 0.16662 0.0
C1008 C 0.57608 0.91734 0.21865 0.0
C1009 C 0.56604 0.9276 0.1372 0.0
C1010 C 0.56871 0.9098 0.18834 0.0
N1011 N 0.56387 0.91504 0.14861 0.0
C1012 C 0.60156 0.96952 0.17203 0.0
C1013 C 0.57902 0.97333 0.17159 0.0
C1014 C 0.60323 0.97791 0.13418 0.0
N1015 N 0.58958 0.96747 0.18992 0.0
C1016 C 0.58025 0.9819 0.13445 0.0
C1017 C 0.59248 0.98436 0.11502 0.0
H1018 H 0.60982 0.96478 0.18748 0.0
H1019 H 0.56961 0.97148 0.18637 0.0
C1020 C 0.54847 0.9279 0.30448 0.0
N1021 N 0.55414 0.93592 0.27303 0.0
C1022 C 0.53531 0.92511 0.3014 0.0
C1023 C 0.53415 0.93815 0.23185 0.0
C1024 C 0.5473 0.94085 0.23668 0.0
C1025 C 0.52795 0.93052 0.26537 0.0
H1026 H 0.55389 0.92418 0.33343 0.0
H1027 H 0.55191 0.9475 0.21286 0.0
O1028 O 0.59969 0.95776 0.29421 0.0
O1029 O 0.57938 0.94081 0.34375 0.0
O1030 O 0.57034 0.96236 0.27679 0.0
O1031 O 0.5853 0.93793 0.23744 0.0
H1032 H 0.61663 0.95624 0.36303 0.0
H1033 H 0.59631 0.98231 0.27218 0.0
H1034 H 0.62689 0.97511 0.4014 0.0
H1035 H 0.60699 0.00072 0.31194 0.0
H1036 H 0.57706 0.89847 0.38498 0.0
H1037 H 0.568 0.94391 0.42538 0.0
H1038 H 0.58317 0.91577 0.32963 0.0
H1039 H 0.56213 0.92609 0.47911 0.0
H1040 H 0.59305 0.96845 0.49074 0.0
H1041 H 0.57407 0.99944 0.4167 0.0
H1042 H 0.62661 0.90321 0.29264 0.0
H1043 H 0.61905 0.92075 0.42673 0.0
H1044 H 0.55808 0.95324 0.35132 0.0
H1045 H 0.55712 0.98226 0.24411 0.0
H1046 H 0.53761 0.96193 0.38262 0.0
H1047 H 0.53661 0.99046 0.27737 0.0
H1048 H 0.57503 0.94547 0.15763 0.0
H1049 H 0.57998 0.91315 0.25007 0.0
H1050 H 0.56206 0.9315 0.10534 0.0
H1051 H 0.56685 0.89976 0.19638 0.0
H1052 H 0.61283 0.9793 0.12021 0.0
H1053 H 0.57167 0.98676 0.12196 0.0
H1054 H 0.53083 0.91918 0.32792 0.0
H1055 H 0.52873 0.94264 0.20397 0.0
Li1056 Li 0.80997 0.17942 0.04104 0.0
Li1057 Li 0.79643 0.16321 0.07787 0.0
Li1058 Li 0.81455 0.15712 0.01915 0.0
Li1059 Li 0.79477 0.16794 0.99468 0.0
C1060 C 0.82414 0.17149 0.11179 0.0
N1061 N 0.84083 0.18514 0.16844 0.0
C1062 C 0.81981 0.17653 0.15412 0.0
C1063 C 0.83702 0.1732 0.09866 0.0
C1064 C 0.82838 0.18346 0.18217 0.0
C1065 C 0.84529 0.18018 0.12767 0.0
C1066 C 0.78499 0.19038 0.03347 0.0
C1067 C 0.76806 0.20621 0.04153 0.0
N1068 N 0.77306 0.2129 0.005 0.0
C1069 C 0.78993 0.19739 0.99595 0.0
C1070 C 0.77395 0.1948 0.05644 0.0
C1071 C 0.78378 0.20876 0.98212 0.0
C1072 C 0.82467 0.20316 0.02625 0.0
N1073 N 0.81643 0.19652 0.05432 0.0
C1074 C 0.81303 0.21534 0.10106 0.0
C1075 C 0.81083 0.20231 0.09169 0.0
C1076 C 0.8209 0.22266 0.07115 0.0
C1077 C 0.82701 0.21628 0.03396 0.0
H1078 H 0.82901 0.19855 0.99661 0.0
H1079 H 0.8042 0.19689 0.11324 0.0
C1080 C 0.78282 0.14751 0.14571 0.0
N1081 N 0.78663 0.15953 0.13248 0.0
C1082 C 0.77462 0.14594 0.18419 0.0
C1083 C 0.77459 0.1691 0.19445 0.0
C1084 C 0.78274 0.1702 0.15608 0.0
C1085 C 0.77035 0.15686 0.20905 0.0
H1086 H 0.78593 0.13918 0.12593 0.0
H1087 H 0.78581 0.17965 0.14445 0.0
C1088 C 0.82183 0.17738 0.95038 0.0
N1089 N 0.84063 0.1879 0.8936 0.0
C1090 C 0.81835 0.18523 0.91283 0.0
C1091 C 0.83487 0.17478 0.9587 0.0
C1092 C 0.828 0.1905 0.88466 0.0
C1093 C 0.84423 0.18021 0.92967 0.0
C1094 C 0.78675 0.14418 0.00214 0.0
C1095 C 0.78958 0.13727 0.96164 0.0
C1096 C 0.77401 0.14492 0.01792 0.0
C1097 C 0.77956 0.13128 0.93729 0.0
C1098 C 0.76426 0.13878 0.99262 0.0
N1099 N 0.76721 0.13216 0.95314 0.0
C1100 C 0.83418 0.13714 0.02448 0.0
C1101 C 0.82704 0.1436 0.94964 0.0
C1102 C 0.84271 0.1282 0.00453 0.0
N1103 N 0.82659 0.14462 0.99679 0.0
C1104 C 0.83554 0.135 0.92834 0.0
C1105 C 0.84351 0.12715 0.95579 0.0
H1106 H 0.8336 0.13812 0.06191 0.0
H1107 H 0.82078 0.14954 0.92847 0.0
C1108 C 0.77056 0.17122 0.94861 0.0
N1109 N 0.78333 0.16858 0.94331 0.0
C1110 C 0.76234 0.171 0.9101 0.0
C1111 C 0.78061 0.16545 0.86164 0.0
C1112 C 0.78844 0.16573 0.90104 0.0
C1113 C 0.76735 0.16804 0.86586 0.0
H1114 H 0.76673 0.17326 0.98285 0.0
H1115 H 0.79861 0.16352 0.89807 0.0
O1116 O 0.81583 0.16488 0.08349 0.0
O1117 O 0.79087 0.17924 0.04782 0.0
O1118 O 0.81248 0.17203 0.978 0.0
O1119 O 0.79635 0.15049 0.02558 0.0
H1120 H 0.80991 0.1752 0.16503 0.0
H1121 H 0.8406 0.16915 0.06653 0.0
H1122 H 0.82512 0.1875 0.21483 0.0
H1123 H 0.85526 0.18164 0.1178 0.0
H1124 H 0.75951 0.20975 0.059 0.0
H1125 H 0.79846 0.19413 0.97787 0.0
H1126 H 0.76995 0.18945 0.08543 0.0
H1127 H 0.78754 0.21429 0.9532 0.0
H1128 H 0.80829 0.21971 0.13073 0.0
H1129 H 0.83303 0.22148 0.00952 0.0
H1130 H 0.77166 0.13631 0.19428 0.0
H1131 H 0.77138 0.17782 0.21168 0.0
H1132 H 0.80831 0.18724 0.90545 0.0
H1133 H 0.83776 0.16861 0.98713 0.0
H1134 H 0.82544 0.19663 0.8556 0.0
H1135 H 0.85436 0.17829 0.93581 0.0
H1136 H 0.79939 0.13665 0.94888 0.0
H1137 H 0.77166 0.15035 0.04897 0.0
H1138 H 0.78159 0.12597 0.90571 0.0
H1139 H 0.75435 0.13934 0.00424 0.0
H1140 H 0.84874 0.12231 0.02685 0.0
H1141 H 0.83573 0.13436 0.89072 0.0
H1142 H 0.75214 0.17286 0.91507 0.0
H1143 H 0.78493 0.1633 0.82822 0.0
Li1144 Li 0.59071 0.04756 0.8342 0.0
Li1145 Li 0.57199 0.05835 0.79389 0.0
Li1146 Li 0.58767 0.04464 0.75229 0.0
Li1147 Li 0.59483 0.06508 0.77756 0.0
C1148 C 0.57125 0.02997 0.82892 0.0
N1149 N 0.56289 0.0104 0.88696 0.0
C1150 C 0.56151 0.03232 0.86153 0.0
C1151 C 0.57661 0.01762 0.82543 0.0
C1152 C 0.55744 0.0223 0.89063 0.0
C1153 C 0.5723 0.00788 0.85522 0.0
C1154 C 0.5908 0.07651 0.85656 0.0
C1155 C 0.59339 0.09961 0.86087 0.0
N1156 N 0.60382 0.09796 0.88904 0.0
C1157 C 0.60154 0.07503 0.8855 0.0
C1158 C 0.58667 0.08888 0.84409 0.0
C1159 C 0.60799 0.086 0.90161 0.0
C1160 C 0.60494 0.03087 0.89591 0.0
N1161 N 0.5947 0.03903 0.8917 0.0
C1162 C 0.58611 0.03179 0.96435 0.0
C1163 C 0.58572 0.04005 0.926 0.0
C1164 C 0.59608 0.02268 0.96808 0.0
C1165 C 0.60586 0.02259 0.93431 0.0
H1166 H 0.61207 0.03035 0.86859 0.0
H1167 H 0.57778 0.04675 0.92207 0.0
C1168 C 0.54588 0.05319 0.78463 0.0
N1169 N 0.55415 0.06256 0.799 0.0
C1170 C 0.53259 0.05485 0.78929 0.0
C1171 C 0.53647 0.07598 0.82213 0.0
C1172 C 0.54977 0.07385 0.8173 0.0
C1173 C 0.52772 0.06631 0.80858 0.0
H1174 H 0.54964 0.04431 0.77023 0.0
H1175 H 0.55656 0.08111 0.8287 0.0
C1176 C 0.613 0.0407 0.76457 0.0
N1177 N 0.63074 0.02469 0.72163 0.0
C1178 C 0.6227 0.04592 0.73642 0.0
C1179 C 0.61239 0.02734 0.77106 0.0
C1180 C 0.63156 0.03767 0.71499 0.0
C1181 C 0.62142 0.01941 0.74898 0.0
C1182 C 0.5786 0.06039 0.68744 0.0
C1183 C 0.58835 0.06344 0.65563 0.0
C1184 C 0.56688 0.0554 0.67138 0.0
C1185 C 0.58622 0.06137 0.6082 0.0
C1186 C 0.56515 0.05343 0.6237 0.0
N1187 N 0.57478 0.05642 0.59336 0.0
C1188 C 0.57822 0.02415 0.69784 0.0
C1189 C 0.59735 0.03358 0.66795 0.0
C1190 C 0.57734 0.016 0.65927 0.0
N1191 N 0.58813 0.0327 0.70149 0.0
C1192 C 0.59695 0.02551 0.62917 0.0
C1193 C 0.58679 0.01666 0.62436 0.0
H1194 H 0.5708 0.02389 0.72429 0.0
H1195 H 0.60477 0.04085 0.67032 0.0
C1196 C 0.61804 0.07983 0.77199 0.0
N1197 N 0.60536 0.07944 0.75987 0.0
C1198 C 0.62632 0.08882 0.75126 0.0
C1199 C 0.60815 0.09741 0.7086 0.0
C1200 C 0.60024 0.08826 0.73008 0.0
C1201 C 0.62147 0.09752 0.71791 0.0
H1202 H 0.62186 0.0727 0.7958 0.0
H1203 H 0.5901 0.08777 0.72125 0.0
O1204 O 0.57557 0.03973 0.80074 0.0
O1205 O 0.58464 0.06588 0.83924 0.0
O1206 O 0.60424 0.04863 0.78593 0.0
O1207 O 0.5806 0.06208 0.73411 0.0
H1208 H 0.55733 0.04183 0.86509 0.0
H1209 H 0.584 0.01557 0.79993 0.0
H1210 H 0.55 0.02402 0.91633 0.0
H1211 H 0.57642 0.9983 0.85306 0.0
H1212 H 0.59035 0.10925 0.85133 0.0
H1213 H 0.60492 0.0655 0.89508 0.0
H1214 H 0.57849 0.09017 0.82112 0.0
H1215 H 0.61633 0.08501 0.92395 0.0
H1216 H 0.57847 0.03221 0.99004 0.0
H1217 H 0.61372 0.0157 0.93622 0.0
H1218 H 0.52617 0.04723 0.77778 0.0
H1219 H 0.53309 0.08494 0.8373 0.0
H1220 H 0.62328 0.05621 0.73054 0.0
H1221 H 0.60498 0.02313 0.79267 0.0
H1222 H 0.63906 0.04158 0.69292 0.0
H1223 H 0.621 0.00905 0.75356 0.0
H1224 H 0.59755 0.06714 0.66746 0.0
H1225 H 0.55926 0.05294 0.69551 0.0
H1226 H 0.59371 0.0636 0.58323 0.0
H1227 H 0.55616 0.04949 0.61081 0.0
H1228 H 0.56935 0.00929 0.65669 0.0
H1229 H 0.60426 0.02649 0.60245 0.0
H1230 H 0.63652 0.08848 0.75945 0.0
H1231 H 0.60392 0.1041 0.68396 0.0
Li1232 Li 0.70458 0.83822 0.58255 0.0
Li1233 Li 0.69131 0.82217 0.54353 0.0
Li1234 Li 0.70707 0.83367 0.4995 0.0
Li1235 Li 0.68712 0.84452 0.52176 0.0
C1236 C 0.71595 0.81082 0.53948 0.0
N1237 N 0.72723 0.78775 0.51336 0.0
C1238 C 0.7117 0.80437 0.49962 0.0
C1239 C 0.72596 0.80557 0.56599 0.0
C1240 C 0.71751 0.79271 0.48702 0.0
C1241 C 0.73154 0.79389 0.55222 0.0
C1242 C 0.67695 0.82987 0.61426 0.0
C1243 C 0.6567 0.81898 0.62765 0.0
N1244 N 0.66066 0.8159 0.67139 0.0
C1245 C 0.68075 0.82672 0.65953 0.0
C1246 C 0.66478 0.8261 0.59834 0.0
C1247 C 0.6724 0.81961 0.68782 0.0
C1248 C 0.71821 0.85362 0.65114 0.0
N1249 N 0.71396 0.84172 0.63825 0.0
C1250 C 0.72514 0.83192 0.70183 0.0
C1251 C 0.7172 0.831 0.66284 0.0
C1252 C 0.72986 0.84403 0.71601 0.0
C1253 C 0.72622 0.85501 0.69022 0.0
H1254 H 0.71563 0.86198 0.63056 0.0
H1255 H 0.71378 0.82165 0.65148 0.0
C1256 C 0.67795 0.79819 0.52257 0.0
N1257 N 0.68467 0.80505 0.55482 0.0
C1258 C 0.67554 0.78505 0.52932 0.0
C1259 C 0.68629 0.7864 0.60366 0.0
C1260 C 0.68868 0.79946 0.59511 0.0
C1261 C 0.67997 0.77887 0.56989 0.0
H1262 H 0.67499 0.80262 0.49047 0.0
H1263 H 0.69425 0.80502 0.61984 0.0
C1264 C 0.71518 0.85731 0.5088 0.0
N1265 N 0.73533 0.86924 0.46285 0.0
C1266 C 0.71276 0.86486 0.46944 0.0
C1267 C 0.72782 0.85589 0.52501 0.0
C1268 C 0.72309 0.87079 0.44662 0.0
C1269 C 0.73788 0.862 0.50125 0.0
C1270 C 0.68058 0.82487 0.45025 0.0
C1271 C 0.68457 0.81768 0.41166 0.0
C1272 C 0.66743 0.82727 0.45701 0.0
C1273 C 0.67532 0.81286 0.38085 0.0
C1274 C 0.65848 0.8223 0.42537 0.0
N1275 N 0.66257 0.81524 0.38829 0.0
C1276 C 0.73143 0.82942 0.45502 0.0
C1277 C 0.71429 0.8369 0.40738 0.0
C1278 C 0.73984 0.82944 0.41702 0.0
N1279 N 0.71893 0.83308 0.44938 0.0
C1280 C 0.72233 0.83707 0.36855 0.0
C1281 C 0.73531 0.83332 0.37306 0.0
H1282 H 0.73489 0.82662 0.48906 0.0
H1283 H 0.70433 0.83989 0.40418 0.0
C1284 C 0.66717 0.86417 0.52489 0.0
N1285 N 0.67532 0.85706 0.49807 0.0
C1286 C 0.65875 0.87307 0.5041 0.0
C1287 C 0.6672 0.86699 0.42883 0.0
C1288 C 0.67555 0.85841 0.451 0.0
C1289 C 0.65865 0.87446 0.45538 0.0
H1290 H 0.66719 0.86292 0.56227 0.0
H1291 H 0.68224 0.85273 0.43056 0.0
O1292 O 0.71032 0.82219 0.55283 0.0
O1293 O 0.68511 0.83664 0.58581 0.0
O1294 O 0.70527 0.85106 0.53068 0.0
O1295 O 0.68954 0.82973 0.48059 0.0
H1296 H 0.70397 0.80827 0.47876 0.0
H1297 H 0.72941 0.81046 0.59687 0.0
H1298 H 0.71429 0.7876 0.45631 0.0
H1299 H 0.7393 0.78971 0.57243 0.0
H1300 H 0.64729 0.81591 0.61562 0.0
H1301 H 0.69006 0.8297 0.67268 0.0
H1302 H 0.66161 0.82856 0.56368 0.0
H1303 H 0.67525 0.81704 0.72282 0.0
H1304 H 0.72786 0.82315 0.71979 0.0
H1305 H 0.72955 0.86454 0.69995 0.0
H1306 H 0.67083 0.77971 0.50175 0.0
H1307 H 0.68973 0.78219 0.63585 0.0
H1308 H 0.70303 0.86601 0.45638 0.0
H1309 H 0.72985 0.84998 0.55517 0.0
H1310 H 0.72138 0.87659 0.41594 0.0
H1311 H 0.74773 0.86091 0.51319 0.0
H1312 H 0.69471 0.8158 0.40557 0.0
H1313 H 0.66416 0.83299 0.48613 0.0
H1314 H 0.67827 0.80723 0.35098 0.0
H1315 H 0.64827 0.82408 0.43024 0.0
H1316 H 0.74982 0.82665 0.42214 0.0
H1317 H 0.71838 0.83997 0.33526 0.0
H1318 H 0.65226 0.87866 0.52574 0.0
H1319 H 0.66755 0.86789 0.3913 0.0
Li1320 Li 0.90942 0.95506 0.32902 0.0
Li1321 Li 0.92781 0.94383 0.30048 0.0
Li1322 Li 0.91529 0.95706 0.24761 0.0
Li1323 Li 0.90666 0.93576 0.27476 0.0
C1324 C 0.92775 0.97227 0.33289 0.0
N1325 N 0.93198 0.99147 0.39793 0.0
C1326 C 0.93422 0.96947 0.37437 0.0
C1327 C 0.9235 0.98486 0.32438 0.0
C1328 C 0.93625 0.9793 0.40683 0.0
C1329 C 0.92572 0.99443 0.35772 0.0
C1330 C 0.91968 0.92648 0.36323 0.0
C1331 C 0.92391 0.90375 0.37349 0.0
N1332 N 0.93153 0.90653 0.41074 0.0
C1333 C 0.92753 0.92911 0.40167 0.0
C1334 C 0.91783 0.9137 0.34903 0.0
C1335 C 0.93345 0.91889 0.42519 0.0
C1336 C 0.89688 0.97602 0.37471 0.0
N1337 N 0.90287 0.9645 0.38188 0.0
C1338 C 0.90441 0.96886 0.46351 0.0
C1339 C 0.90619 0.96062 0.42547 0.0
C1340 C 0.89919 0.98123 0.45648 0.0
C1341 C 0.89502 0.98461 0.41161 0.0
H1342 H 0.89434 0.97895 0.33991 0.0
H1343 H 0.91094 0.95144 0.43038 0.0
C1344 C 0.95372 0.94991 0.30476 0.0
N1345 N 0.94577 0.93966 0.31177 0.0
C1346 C 0.96701 0.94866 0.30986 0.0
C1347 C 0.964 0.92609 0.3278 0.0
C1348 C 0.95066 0.9278 0.32229 0.0
C1349 C 0.97236 0.93667 0.32201 0.0
H1350 H 0.94977 0.95911 0.29424 0.0
H1351 H 0.9443 0.9196 0.32558 0.0
C1352 C 0.88968 0.95936 0.24419 0.0
N1353 N 0.87367 0.97198 0.18203 0.0
C1354 C 0.88116 0.95233 0.2162 0.0
C1355 C 0.89001 0.97282 0.24061 0.0
C1356 C 0.87315 0.95888 0.18501 0.0
C1357 C 0.88187 0.97902 0.20893 0.0
C1358 C 0.93291 0.93451 0.21783 0.0
C1359 C 0.94173 0.94262 0.19542 0.0
C1360 C 0.93573 0.92139 0.22293 0.0
C1361 C 0.95328 0.93745 0.17858 0.0
C1362 C 0.94738 0.91659 0.20555 0.0
N1363 N 0.95584 0.92465 0.18397 0.0
C1364 C 0.92395 0.97809 0.19249 0.0
C1365 C 0.90955 0.9636 0.15517 0.0
C1366 C 0.92475 0.9856 0.15224 0.0
N1367 N 0.91627 0.96746 0.19336 0.0
C1368 C 0.90991 0.97092 0.11449 0.0
C1369 C 0.91756 0.9821 0.1128 0.0
H1370 H 0.92952 0.98069 0.22288 0.0
H1371 H 0.90387 0.95485 0.15643 0.0
C1372 C 0.88463 0.91899 0.27318 0.0
N1373 N 0.89609 0.92193 0.25269 0.0
C1374 C 0.87613 0.91028 0.25184 0.0
C1375 C 0.89165 0.90742 0.18995 0.0
C1376 C 0.89974 0.91626 0.21211 0.0
C1377 C 0.8795 0.90452 0.2091 0.0
H1378 H 0.88183 0.92385 0.30494 0.0
H1379 H 0.90875 0.91896 0.19594 0.0
O1380 O 0.92532 0.96266 0.30135 0.0
O1381 O 0.91362 0.93631 0.34016 0.0
O1382 O 0.89768 0.95308 0.27462 0.0
O1383 O 0.92175 0.93948 0.23587 0.0
H1384 H 0.9375 0.95976 0.38169 0.0
H1385 H 0.9183 0.98718 0.29281 0.0
H1386 H 0.94117 0.97724 0.43921 0.0
H1387 H 0.92238 0.00419 0.35177 0.0
H1388 H 0.92258 0.89382 0.36284 0.0
H1389 H 0.92919 0.93893 0.4129 0.0
H1390 H 0.91178 0.91148 0.31943 0.0
H1391 H 0.9396 0.92078 0.45483 0.0
H1392 H 0.90782 0.96588 0.49748 0.0
H1393 H 0.89081 0.99399 0.40478 0.0
H1394 H 0.97307 0.95699 0.3033 0.0
H1395 H 0.96772 0.91663 0.33662 0.0
H1396 H 0.88077 0.94192 0.21829 0.0
H1397 H 0.89677 0.97841 0.26099 0.0
H1398 H 0.86654 0.95355 0.1631 0.0
H1399 H 0.88214 0.98942 0.20549 0.0
H1400 H 0.93974 0.95282 0.19157 0.0
H1401 H 0.92909 0.91503 0.24083 0.0
H1402 H 0.96022 0.94362 0.16138 0.0
H1403 H 0.94972 0.90647 0.20951 0.0
H1404 H 0.93078 0.99415 0.15215 0.0
H1405 H 0.9044 0.96781 0.08448 0.0
H1406 H 0.86682 0.90853 0.26774 0.0
H1407 H 0.89482 0.90308 0.15764 0.0
Li1408 Li 0.70563 0.66418 0.58057 0.0
Li1409 Li 0.68811 0.65798 0.52471 0.0
Li1410 Li 0.70687 0.6691 0.49659 0.0
Li1411 Li 0.69199 0.68021 0.54453 0.0
C1412 C 0.71554 0.64534 0.50311 0.0
N1413 N 0.73452 0.63324 0.45144 0.0
C1414 C 0.71228 0.63551 0.47193 0.0
C1415 C 0.72847 0.64891 0.50841 0.0
C1416 C 0.72201 0.62954 0.44604 0.0
C1417 C 0.73792 0.64271 0.48186 0.0
C1418 C 0.68185 0.65761 0.61954 0.0
C1419 C 0.66693 0.65162 0.68025 0.0
N1420 N 0.67259 0.63979 0.68285 0.0
C1421 C 0.68753 0.64539 0.62282 0.0
C1422 C 0.67148 0.66076 0.6485 0.0
C1423 C 0.6827 0.63652 0.65506 0.0
C1424 C 0.71313 0.66772 0.67374 0.0
N1425 N 0.71537 0.66036 0.63545 0.0
C1426 C 0.73332 0.65017 0.67287 0.0
C1427 C 0.72499 0.65142 0.63485 0.0
C1428 C 0.73164 0.65806 0.7123 0.0
C1429 C 0.72112 0.66667 0.71278 0.0
H1430 H 0.70536 0.67469 0.67339 0.0
H1431 H 0.72647 0.64554 0.60434 0.0
C1432 C 0.67735 0.64292 0.45692 0.0
N1433 N 0.67568 0.64574 0.5027 0.0
C1434 C 0.66872 0.63485 0.43373 0.0
C1435 C 0.65659 0.63272 0.50513 0.0
C1436 C 0.66551 0.64089 0.52706 0.0
C1437 C 0.6581 0.62967 0.45767 0.0
H1438 H 0.68537 0.64712 0.43817 0.0
H1439 H 0.66415 0.64352 0.5631 0.0
C1440 C 0.71412 0.6929 0.552 0.0
N1441 N 0.71891 0.7191 0.55786 0.0
C1442 C 0.71375 0.70057 0.51198 0.0
C1443 C 0.71707 0.69853 0.59492 0.0
C1444 C 0.71617 0.7138 0.5157 0.0
C1445 C 0.71942 0.7118 0.59718 0.0
C1446 C 0.67662 0.67554 0.46681 0.0
C1447 C 0.67433 0.67757 0.41946 0.0
C1448 C 0.66632 0.67592 0.49823 0.0
C1449 C 0.66175 0.68001 0.40429 0.0
C1450 C 0.65388 0.67838 0.48168 0.0
N1451 N 0.65187 0.68036 0.43545 0.0
C1452 C 0.71338 0.66522 0.40363 0.0
C1453 C 0.72984 0.67547 0.44758 0.0
C1454 C 0.7212 0.66516 0.36416 0.0
N1455 N 0.71784 0.67025 0.4442 0.0
C1456 C 0.73802 0.67557 0.40898 0.0
C1457 C 0.73375 0.67029 0.36661 0.0
H1458 H 0.70378 0.66114 0.40218 0.0
H1459 H 0.73315 0.67929 0.48052 0.0
C1460 C 0.68503 0.70189 0.59906 0.0
N1461 N 0.68499 0.69708 0.55502 0.0
C1462 C 0.68252 0.71499 0.60683 0.0
C1463 C 0.67905 0.71768 0.52421 0.0
C1464 C 0.68191 0.70464 0.51791 0.0
C1465 C 0.67969 0.72306 0.56893 0.0
H1466 H 0.68777 0.69572 0.62779 0.0
H1467 H 0.68242 0.70078 0.48307 0.0
O1468 O 0.70611 0.65153 0.52796 0.0
O1469 O 0.68632 0.66653 0.58834 0.0
O1470 O 0.71134 0.68002 0.54931 0.0
O1471 O 0.68888 0.67289 0.48181 0.0
H1472 H 0.70236 0.63248 0.46785 0.0
H1473 H 0.73116 0.6566 0.532 0.0
H1474 H 0.71962 0.62195 0.42166 0.0
H1475 H 0.74795 0.64548 0.48525 0.0
H1476 H 0.6589 0.65392 0.70283 0.0
H1477 H 0.69555 0.64272 0.60085 0.0
H1478 H 0.66699 0.67018 0.64636 0.0
H1479 H 0.687 0.62703 0.65796 0.0
H1480 H 0.74129 0.64344 0.67045 0.0
H1481 H 0.71917 0.67272 0.74267 0.0
H1482 H 0.67041 0.63266 0.39739 0.0
H1483 H 0.64846 0.62908 0.52482 0.0
H1484 H 0.71137 0.69638 0.47856 0.0
H1485 H 0.71738 0.69273 0.62622 0.0
H1486 H 0.71578 0.71987 0.4851 0.0
H1487 H 0.72161 0.7163 0.63021 0.0
H1488 H 0.6822 0.67723 0.39468 0.0
H1489 H 0.66786 0.67431 0.53496 0.0
H1490 H 0.65983 0.6816 0.36773 0.0
H1491 H 0.64582 0.6787 0.50559 0.0
H1492 H 0.71745 0.66116 0.33208 0.0
H1493 H 0.74767 0.67947 0.41259 0.0
H1494 H 0.68318 0.71885 0.64178 0.0
H1495 H 0.67716 0.72367 0.49407 0.0
Li1496 Li 0.59532 0.43899 0.77539 0.0
Li1497 Li 0.58979 0.45625 0.83306 0.0
Li1498 Li 0.57287 0.44456 0.79091 0.0
Li1499 Li 0.58668 0.45897 0.75035 0.0
C1500 C 0.59304 0.43117 0.86885 0.0
N1501 N 0.60826 0.41901 0.93455 0.0
C1502 C 0.60536 0.43592 0.879 0.0
C1503 C 0.58847 0.42024 0.89211 0.0
C1504 C 0.6129 0.42965 0.91236 0.0
C1505 C 0.59631 0.41422 0.92518 0.0
C1506 C 0.61052 0.46551 0.76294 0.0
C1507 C 0.61658 0.48786 0.75397 0.0
N1508 N 0.62435 0.48456 0.71772 0.0
C1509 C 0.61861 0.46233 0.72577 0.0
C1510 C 0.60951 0.47837 0.7773 0.0
C1511 C 0.62551 0.4721 0.70329 0.0
C1512 C 0.60904 0.42686 0.70656 0.0
N1513 N 0.6071 0.42602 0.75324 0.0
C1514 C 0.62159 0.40804 0.75764 0.0
C1515 C 0.6131 0.41677 0.77899 0.0
C1516 C 0.62377 0.4087 0.70925 0.0
C1517 C 0.61721 0.41824 0.68379 0.0
H1518 H 0.60417 0.43429 0.68679 0.0
H1519 H 0.61141 0.41616 0.81597 0.0
C1520 C 0.58257 0.46718 0.91735 0.0
N1521 N 0.59304 0.46526 0.88974 0.0
C1522 C 0.58334 0.4754 0.95576 0.0
C1523 C 0.60584 0.47911 0.93786 0.0
C1524 C 0.60463 0.4708 0.89967 0.0
C1525 C 0.59501 0.48176 0.96583 0.0
H1526 H 0.57347 0.46268 0.90844 0.0
H1527 H 0.61279 0.46918 0.87693 0.0
C1528 C 0.57738 0.43004 0.71259 0.0
N1529 N 0.56975 0.40643 0.67721 0.0
C1530 C 0.5747 0.42871 0.66517 0.0
C1531 C 0.5762 0.41935 0.74203 0.0
C1532 C 0.57085 0.4167 0.64796 0.0
C1533 C 0.57233 0.40751 0.72345 0.0
C1534 C 0.56385 0.46995 0.78789 0.0
C1535 C 0.55855 0.46825 0.74358 0.0
C1536 C 0.55799 0.47845 0.81917 0.0
C1537 C 0.5474 0.47504 0.73139 0.0
C1538 C 0.54686 0.48509 0.80564 0.0
N1539 N 0.54184 0.48325 0.76241 0.0
C1540 C 0.54946 0.4379 0.83748 0.0
C1541 C 0.54826 0.43868 0.75515 0.0
C1542 C 0.53604 0.43632 0.84051 0.0
N1543 N 0.55522 0.43927 0.79522 0.0
C1544 C 0.53491 0.43723 0.75657 0.0
C1545 C 0.52859 0.43636 0.79964 0.0
H1546 H 0.55519 0.43862 0.86883 0.0
H1547 H 0.55297 0.44004 0.72199 0.0
C1548 C 0.59055 0.46578 0.658 0.0
N1549 N 0.58749 0.47081 0.70022 0.0
C1550 C 0.59098 0.4737 0.61887 0.0
C1551 C 0.58524 0.49187 0.66757 0.0
C1552 C 0.58492 0.48358 0.70584 0.0
C1553 C 0.58824 0.48692 0.62332 0.0
H1554 H 0.59256 0.45557 0.65477 0.0
H1555 H 0.58259 0.4873 0.73999 0.0
O1556 O 0.58538 0.43715 0.8366 0.0
O1557 O 0.60341 0.45614 0.78458 0.0
O1558 O 0.58123 0.44178 0.72961 0.0
O1559 O 0.57478 0.46343 0.80072 0.0
H1560 H 0.60913 0.44429 0.86116 0.0
H1561 H 0.57895 0.41645 0.88462 0.0
H1562 H 0.62245 0.43321 0.92051 0.0
H1563 H 0.5929 0.40574 0.94341 0.0
H1564 H 0.61582 0.49786 0.76448 0.0
H1565 H 0.61951 0.45244 0.71422 0.0
H1566 H 0.60313 0.48103 0.80553 0.0
H1567 H 0.63176 0.46979 0.67432 0.0
H1568 H 0.6265 0.40098 0.77904 0.0
H1569 H 0.61825 0.41904 0.64642 0.0
H1570 H 0.57481 0.47694 0.97681 0.0
H1571 H 0.615 0.48385 0.9441 0.0
H1572 H 0.57557 0.43689 0.64193 0.0
H1573 H 0.57824 0.42013 0.77876 0.0
H1574 H 0.56873 0.41554 0.61133 0.0
H1575 H 0.57137 0.39916 0.74582 0.0
H1576 H 0.56299 0.46175 0.71883 0.0
H1577 H 0.56201 0.47992 0.85353 0.0
H1578 H 0.54318 0.47379 0.69726 0.0
H1579 H 0.54223 0.4917 0.8295 0.0
H1580 H 0.53149 0.43577 0.87439 0.0
H1581 H 0.52951 0.43722 0.72428 0.0
H1582 H 0.59318 0.46946 0.58535 0.0
H1583 H 0.58322 0.50204 0.67258 0.0
Li1584 Li 0.81421 0.34407 0.03081 0.0
Li1585 Li 0.79733 0.33897 0.085 0.0
Li1586 Li 0.81221 0.3217 0.05116 0.0
Li1587 Li 0.7959 0.33349 0.00043 0.0
C1588 C 0.8241 0.34454 0.11747 0.0
N1589 N 0.84007 0.36162 0.16355 0.0
C1590 C 0.81977 0.35699 0.1278 0.0
C1591 C 0.8365 0.34072 0.13081 0.0
C1592 C 0.82801 0.3655 0.15104 0.0
C1593 C 0.84444 0.34952 0.15404 0.0
C1594 C 0.78425 0.35628 0.02924 0.0
C1595 C 0.76105 0.35422 0.03208 0.0
N1596 N 0.75991 0.36722 0.02669 0.0
C1597 C 0.78284 0.36961 0.0236 0.0
C1598 C 0.77326 0.34851 0.03341 0.0
C1599 C 0.77046 0.37496 0.02245 0.0
C1600 C 0.82121 0.36615 0.98184 0.0
N1601 N 0.82629 0.3571 0.01079 0.0
C1602 C 0.84758 0.36529 0.99716 0.0
C1603 C 0.83921 0.35661 0.01922 0.0
C1604 C 0.84261 0.37454 0.96606 0.0
C1605 C 0.82919 0.37498 0.95911 0.0
H1606 H 0.81096 0.36613 0.97468 0.0
H1607 H 0.84312 0.34913 0.04129 0.0
C1608 C 0.787 0.33224 0.17084 0.0
N1609 N 0.78729 0.34217 0.13994 0.0
C1610 C 0.7787 0.33261 0.2091 0.0
C1611 C 0.77144 0.35366 0.18423 0.0
C1612 C 0.78002 0.35295 0.1467 0.0
C1613 C 0.77047 0.34327 0.21562 0.0
H1614 H 0.79295 0.32381 0.16482 0.0
H1615 H 0.78055 0.36086 0.12231 0.0
C1616 C 0.82395 0.33183 0.95869 0.0
N1617 N 0.84417 0.33874 0.90112 0.0
C1618 C 0.82156 0.33861 0.91753 0.0
C1619 C 0.83661 0.32847 0.9704 0.0
C1620 C 0.83192 0.34206 0.88897 0.0
C1621 C 0.8467 0.33206 0.94083 0.0
C1622 C 0.78501 0.31186 0.05736 0.0
C1623 C 0.78841 0.30047 0.03426 0.0
C1624 C 0.77357 0.31233 0.08308 0.0
C1625 C 0.78034 0.28971 0.03757 0.0
C1626 C 0.76574 0.30136 0.08544 0.0
N1627 N 0.76927 0.29037 0.06289 0.0
C1628 C 0.81508 0.29928 0.10443 0.0
C1629 C 0.82477 0.29805 0.02979 0.0
C1630 C 0.81692 0.28605 0.11126 0.0
N1631 N 0.81872 0.3049 0.06375 0.0
C1632 C 0.82694 0.28482 0.0354 0.0
C1633 C 0.82262 0.2786 0.07594 0.0
H1634 H 0.81003 0.30493 0.13035 0.0
H1635 H 0.82714 0.30264 0.99713 0.0
C1636 C 0.78392 0.34285 0.92081 0.0
N1637 N 0.78461 0.33223 0.94847 0.0
C1638 C 0.77583 0.34296 0.88206 0.0
C1639 C 0.76934 0.32115 0.90067 0.0
C1640 C 0.77755 0.32147 0.93915 0.0
C1641 C 0.76839 0.33201 0.87159 0.0
H1642 H 0.7897 0.35125 0.92894 0.0
H1643 H 0.77824 0.31315 0.96145 0.0
O1644 O 0.81623 0.33613 0.09435 0.0
O1645 O 0.79635 0.35097 0.03006 0.0
O1646 O 0.81397 0.32865 0.98766 0.0
O1647 O 0.79297 0.32241 0.05571 0.0
H1648 H 0.81018 0.36007 0.11762 0.0
H1649 H 0.83996 0.3311 0.12301 0.0
H1650 H 0.82482 0.37519 0.15909 0.0
H1651 H 0.85408 0.34673 0.16443 0.0
H1652 H 0.75248 0.34832 0.0353 0.0
H1653 H 0.79124 0.37576 0.02024 0.0
H1654 H 0.77411 0.33819 0.03757 0.0
H1655 H 0.76923 0.38526 0.01819 0.0
H1656 H 0.85785 0.36463 0.00386 0.0
H1657 H 0.82491 0.38176 0.9349 0.0
H1658 H 0.77862 0.32451 0.23289 0.0
H1659 H 0.76531 0.36208 0.18749 0.0
H1660 H 0.81182 0.3413 0.90798 0.0
H1661 H 0.83865 0.32338 0.00246 0.0
H1662 H 0.83022 0.34739 0.85719 0.0
H1663 H 0.85656 0.32961 0.94964 0.0
H1664 H 0.7971 0.3 0.01348 0.0
H1665 H 0.77073 0.32107 0.10098 0.0
H1666 H 0.78287 0.28084 0.01989 0.0
H1667 H 0.75686 0.30159 0.10525 0.0
H1668 H 0.81348 0.28161 0.14304 0.0
H1669 H 0.83117 0.27938 0.00704 0.0
H1670 H 0.77553 0.35148 0.86021 0.0
H1671 H 0.76367 0.31255 0.89413 0.0
Li1672 Li 0.90539 0.56175 0.27562 0.0
Li1673 Li 0.91227 0.54487 0.33111 0.0
Li1674 Li 0.92788 0.55917 0.29455 0.0
Li1675 Li 0.91657 0.54354 0.24586 0.0
C1676 C 0.9051 0.56852 0.37 0.0
N1677 N 0.88723 0.57734 0.43396 0.0
C1678 C 0.89281 0.56296 0.37213 0.0
C1679 C 0.9083 0.57855 0.40042 0.0
C1680 C 0.88392 0.56756 0.40472 0.0
C1681 C 0.89913 0.58288 0.43249 0.0
C1682 C 0.89396 0.53281 0.26046 0.0
C1683 C 0.89434 0.50987 0.2458 0.0
N1684 N 0.8833 0.511 0.22048 0.0
C1685 C 0.88256 0.53372 0.23463 0.0
C1686 C 0.89984 0.52077 0.26642 0.0
C1687 C 0.87734 0.52259 0.2146 0.0
C1688 C 0.88653 0.56995 0.2147 0.0
N1689 N 0.89232 0.57355 0.25509 0.0
C1690 C 0.88128 0.59385 0.25343 0.0
C1691 C 0.88985 0.58523 0.27487 0.0
C1692 C 0.87524 0.59039 0.21133 0.0
C1693 C 0.87791 0.5782 0.19227 0.0
H1694 H 0.88907 0.56084 0.1988 0.0
H1695 H 0.89482 0.58803 0.30638 0.0
C1696 C 0.91681 0.53726 0.42372 0.0
N1697 N 0.90901 0.53512 0.38652 0.0
C1698 C 0.91607 0.52931 0.46295 0.0
C1699 C 0.89898 0.51733 0.42549 0.0
C1700 C 0.89992 0.52565 0.38732 0.0
C1701 C 0.90732 0.5189 0.46378 0.0
H1702 H 0.92389 0.54494 0.42233 0.0
H1703 H 0.89364 0.52426 0.3578 0.0
C1704 C 0.919 0.57309 0.20974 0.0
N1705 N 0.91521 0.59641 0.16512 0.0
C1706 C 0.9154 0.57335 0.16289 0.0
C1707 C 0.92077 0.58468 0.23383 0.0
C1708 C 0.9135 0.58524 0.14097 0.0
C1709 C 0.91879 0.59637 0.21066 0.0
C1710 C 0.94102 0.53698 0.30057 0.0
C1711 C 0.9488 0.53877 0.26134 0.0
C1712 C 0.94655 0.53272 0.34218 0.0
C1713 C 0.96205 0.53642 0.26459 0.0
C1714 C 0.95984 0.53043 0.34396 0.0
N1715 N 0.96725 0.53234 0.30549 0.0
C1716 C 0.95081 0.56517 0.34442 0.0
C1717 C 0.95086 0.57123 0.26492 0.0
C1718 C 0.96407 0.56761 0.34773 0.0
N1719 N 0.94462 0.56662 0.30303 0.0
C1720 C 0.96402 0.57399 0.26687 0.0
C1721 C 0.97095 0.57168 0.30813 0.0
H1722 H 0.94566 0.56125 0.37395 0.0
H1723 H 0.94582 0.57203 0.23213 0.0
C1724 C 0.90988 0.53521 0.15671 0.0
N1725 N 0.91767 0.53249 0.19345 0.0
C1726 C 0.90992 0.52727 0.11755 0.0
C1727 C 0.92603 0.51388 0.15482 0.0
C1728 C 0.9256 0.52204 0.19343 0.0
C1729 C 0.91809 0.51646 0.11628 0.0
H1730 H 0.90353 0.54349 0.15815 0.0
H1731 H 0.93145 0.51992 0.22362 0.0
O1732 O 0.91403 0.56429 0.33838 0.0
O1733 O 0.89942 0.54365 0.27934 0.0
O1734 O 0.92047 0.56156 0.23234 0.0
O1735 O 0.9281 0.53968 0.29852 0.0
H1736 H 0.89011 0.5552 0.34902 0.0
H1737 H 0.91777 0.58296 0.39916 0.0
H1738 H 0.87437 0.56334 0.40674 0.0
H1739 H 0.90147 0.59064 0.45621 0.0
H1740 H 0.89886 0.50052 0.2498 0.0
H1741 H 0.87774 0.5429 0.23023 0.0
H1742 H 0.90869 0.51989 0.28624 0.0
H1743 H 0.86855 0.52316 0.19439 0.0
H1744 H 0.87947 0.60315 0.26941 0.0
H1745 H 0.87375 0.57522 0.15941 0.0
H1746 H 0.92246 0.5312 0.49195 0.0
H1747 H 0.89212 0.50946 0.424 0.0
H1748 H 0.914 0.56447 0.14374 0.0
H1749 H 0.92346 0.58464 0.27023 0.0
H1750 H 0.91064 0.58559 0.10479 0.0
H1751 H 0.92003 0.60542 0.22895 0.0
H1752 H 0.94468 0.54219 0.22899 0.0
H1753 H 0.94067 0.53128 0.37284 0.0
H1754 H 0.96821 0.5379 0.23466 0.0
H1755 H 0.96427 0.5272 0.376 0.0
H1756 H 0.96898 0.56554 0.38015 0.0
H1757 H 0.96882 0.57737 0.23569 0.0
H1758 H 0.9037 0.52961 0.08845 0.0
H1759 H 0.9323 0.50551 0.15544 0.0
Li1760 Li 0.70752 0.33313 0.58179 0.0
Li1761 Li 0.69259 0.32163 0.53533 0.0
Li1762 Li 0.70635 0.33737 0.4975 0.0
Li1763 Li 0.68882 0.34416 0.55281 0.0
C1764 C 0.71489 0.30891 0.52937 0.0
N1765 N 0.72011 0.28276 0.5269 0.0
C1766 C 0.71438 0.3016 0.57021 0.0
C1767 C 0.71817 0.30296 0.48735 0.0
C1768 C 0.71702 0.28838 0.56821 0.0
C1769 C 0.72076 0.28972 0.48682 0.0
C1770 C 0.67722 0.327 0.61212 0.0
C1771 C 0.65446 0.32429 0.59704 0.0
N1772 N 0.65241 0.32234 0.64325 0.0
C1773 C 0.67487 0.32498 0.65946 0.0
C1774 C 0.66693 0.32668 0.5806 0.0
C1775 C 0.66226 0.32263 0.67451 0.0
C1776 C 0.71428 0.33729 0.67461 0.0
N1777 N 0.71859 0.33218 0.63396 0.0
C1778 C 0.73874 0.32654 0.66869 0.0
C1779 C 0.73052 0.32682 0.63025 0.0
C1780 C 0.73461 0.33185 0.71116 0.0
C1781 C 0.72219 0.33725 0.71388 0.0
H1782 H 0.70473 0.34149 0.67631 0.0
H1783 H 0.73371 0.32295 0.59724 0.0
C1784 C 0.68596 0.29885 0.48494 0.0
N1785 N 0.68571 0.30454 0.52758 0.0
C1786 C 0.68382 0.28555 0.4806 0.0
C1787 C 0.68021 0.28449 0.56353 0.0
C1788 C 0.6827 0.29767 0.5664 0.0
C1789 C 0.68127 0.2781 0.52054 0.0
H1790 H 0.68868 0.30447 0.45475 0.0
H1791 H 0.68301 0.3022 0.60018 0.0
C1792 C 0.71579 0.35688 0.57506 0.0
N1793 N 0.73379 0.36941 0.62985 0.0
C1794 C 0.71184 0.36628 0.60691 0.0
C1795 C 0.72892 0.35395 0.57076 0.0
C1796 C 0.72109 0.37249 0.63436 0.0
C1797 C 0.73786 0.36036 0.59887 0.0
C1798 C 0.68254 0.3437 0.45787 0.0
C1799 C 0.68875 0.35556 0.45132 0.0
C1800 C 0.67171 0.34064 0.4311 0.0
C1801 C 0.68399 0.36416 0.41803 0.0
C1802 C 0.66722 0.34951 0.39822 0.0
N1803 N 0.67341 0.36099 0.39241 0.0
C1804 C 0.71413 0.33311 0.40476 0.0
C1805 C 0.72572 0.3498 0.44252 0.0
C1806 C 0.72213 0.33405 0.36571 0.0
N1807 N 0.71622 0.34074 0.44246 0.0
C1808 C 0.73405 0.35097 0.40447 0.0
C1809 C 0.73251 0.34285 0.36558 0.0
H1810 H 0.70645 0.32604 0.40554 0.0
H1811 H 0.72708 0.35589 0.47261 0.0
C1812 C 0.67679 0.35846 0.62065 0.0
N1813 N 0.67649 0.35678 0.57371 0.0
C1814 C 0.66806 0.36671 0.64255 0.0
C1815 C 0.65901 0.37182 0.56731 0.0
C1816 C 0.6678 0.36324 0.54681 0.0
C1817 C 0.65902 0.37352 0.61586 0.0
H1818 H 0.68381 0.35327 0.64128 0.0
H1819 H 0.66755 0.36168 0.50969 0.0
O1820 O 0.7119 0.32177 0.53035 0.0
O1821 O 0.68952 0.32954 0.59724 0.0
O1822 O 0.70685 0.35046 0.54872 0.0
O1823 O 0.68701 0.33502 0.48994 0.0
H1824 H 0.71173 0.30603 0.60295 0.0
H1825 H 0.71858 0.30848 0.45544 0.0
H1826 H 0.71653 0.28257 0.59945 0.0
H1827 H 0.72323 0.28497 0.45451 0.0
H1828 H 0.64642 0.32402 0.57305 0.0
H1829 H 0.68273 0.32528 0.6843 0.0
H1830 H 0.66851 0.32826 0.54388 0.0
H1831 H 0.66031 0.32106 0.71105 0.0
H1832 H 0.74831 0.32245 0.66496 0.0
H1833 H 0.71858 0.3413 0.74609 0.0
H1834 H 0.68489 0.28108 0.44677 0.0
H1835 H 0.67802 0.27927 0.5952 0.0
H1836 H 0.70176 0.36878 0.61041 0.0
H1837 H 0.73213 0.34655 0.54681 0.0
H1838 H 0.71816 0.37976 0.65927 0.0
H1839 H 0.74802 0.35807 0.59627 0.0
H1840 H 0.69712 0.35816 0.47169 0.0
H1841 H 0.6668 0.3315 0.43574 0.0
H1842 H 0.68869 0.37336 0.41262 0.0
H1843 H 0.65884 0.34727 0.3773 0.0
H1844 H 0.7203 0.3278 0.33626 0.0
H1845 H 0.74191 0.35784 0.40642 0.0
H1846 H 0.66848 0.36786 0.67999 0.0
H1847 H 0.65212 0.37688 0.5456 0.0
Li1848 Li 0.91803 0.45541 0.8269 0.0
Li1849 Li 0.92911 0.43927 0.77664 0.0
Li1850 Li 0.9129 0.45373 0.74326 0.0
Li1851 Li 0.90672 0.43714 0.79667 0.0
C1852 C 0.94172 0.46279 0.77953 0.0
N1853 N 0.96698 0.47059 0.79211 0.0
C1854 C 0.94862 0.45878 0.81879 0.0
C1855 C 0.94766 0.47077 0.7467 0.0
C1856 C 0.96138 0.46282 0.82449 0.0
C1857 C 0.96044 0.47462 0.75372 0.0
C1858 C 0.91962 0.42623 0.86498 0.0
C1859 C 0.91814 0.40303 0.86992 0.0
N1860 N 0.91397 0.40409 0.91464 0.0
C1861 C 0.91543 0.4271 0.9111 0.0
C1862 C 0.92106 0.41411 0.84425 0.0
C1863 C 0.91258 0.41579 0.93557 0.0
C1864 C 0.91051 0.46452 0.9133 0.0
N1865 N 0.91906 0.46682 0.87843 0.0
C1866 C 0.92735 0.48525 0.91847 0.0
C1867 C 0.92726 0.47706 0.8799 0.0
C1868 C 0.91874 0.48298 0.95534 0.0
C1869 C 0.91019 0.4725 0.95234 0.0
H1870 H 0.90383 0.45653 0.91045 0.0
H1871 H 0.93358 0.47905 0.85094 0.0
C1872 C 0.95238 0.43627 0.72751 0.0
N1873 N 0.94585 0.43216 0.76577 0.0
C1874 C 0.96564 0.43403 0.72347 0.0
C1875 C 0.96498 0.42248 0.79647 0.0
C1876 C 0.9518 0.42518 0.79957 0.0
C1877 C 0.97222 0.42735 0.75894 0.0
H1878 H 0.94746 0.44208 0.70171 0.0
H1879 H 0.94652 0.42232 0.83028 0.0
C1880 C 0.89553 0.46735 0.79919 0.0
N1881 N 0.88488 0.49178 0.80406 0.0
C1882 C 0.88245 0.46889 0.80965 0.0
C1883 C 0.90322 0.47825 0.79139 0.0
C1884 C 0.87724 0.48132 0.81188 0.0
C1885 C 0.89764 0.49051 0.79397 0.0
C1886 C 0.90543 0.43064 0.703 0.0
C1887 C 0.89303 0.43598 0.70456 0.0
C1888 C 0.90831 0.42121 0.66979 0.0
C1889 C 0.88373 0.43179 0.67277 0.0
C1890 C 0.89873 0.41728 0.63861 0.0
N1891 N 0.88674 0.42261 0.64073 0.0
C1892 C 0.91964 0.46462 0.65823 0.0
C1893 C 0.8985 0.47051 0.6812 0.0
C1894 C 0.91903 0.47296 0.62012 0.0
N1895 N 0.90959 0.46376 0.68843 0.0
C1896 C 0.89755 0.47916 0.64394 0.0
C1897 C 0.90803 0.48071 0.61317 0.0
H1898 H 0.92829 0.45902 0.66449 0.0
H1899 H 0.89051 0.46953 0.70512 0.0
C1900 C 0.8865 0.42993 0.85388 0.0
N1901 N 0.89348 0.42552 0.81714 0.0
C1902 C 0.87779 0.42184 0.87672 0.0
C1903 C 0.88328 0.40485 0.8226 0.0
C1904 C 0.89191 0.41331 0.80071 0.0
C1905 C 0.87619 0.40904 0.86162 0.0
H1906 H 0.8881 0.43962 0.86667 0.0
H1907 H 0.89772 0.40997 0.77181 0.0
O1908 O 0.92938 0.45851 0.77229 0.0
O1909 O 0.92209 0.43719 0.83991 0.0
O1910 O 0.90073 0.45522 0.79745 0.0
O1911 O 0.91475 0.43448 0.73377 0.0
H1912 H 0.94418 0.45253 0.8444 0.0
H1913 H 0.94247 0.47391 0.71604 0.0
H1914 H 0.96686 0.45974 0.85458 0.0
H1915 H 0.96517 0.48079 0.72858 0.0
H1916 H 0.9191 0.39359 0.85418 0.0
H1917 H 0.91434 0.43638 0.92781 0.0
H1918 H 0.92418 0.41328 0.80842 0.0
H1919 H 0.90926 0.41632 0.97121 0.0
H1920 H 0.93388 0.49341 0.91905 0.0
H1921 H 0.90341 0.47043 0.98003 0.0
H1922 H 0.97076 0.43818 0.69423 0.0
H1923 H 0.96951 0.41708 0.82426 0.0
H1924 H 0.87639 0.46056 0.81596 0.0
H1925 H 0.91336 0.47729 0.78325 0.0
H1926 H 0.86712 0.48265 0.81987 0.0
H1927 H 0.90347 0.49901 0.78792 0.0
H1928 H 0.89057 0.44325 0.72998 0.0
H1929 H 0.91785 0.41697 0.66818 0.0
H1930 H 0.8741 0.43585 0.67359 0.0
H1931 H 0.90083 0.40999 0.61274 0.0
H1932 H 0.92722 0.47343 0.59676 0.0
H1933 H 0.88887 0.48489 0.64044 0.0
H1934 H 0.87274 0.42546 0.907 0.0
H1935 H 0.88227 0.3951 0.80945 0.0
Li1936 Li 0.8117 0.67876 0.02806 0.0
Li1937 Li 0.7951 0.66676 0.07721 0.0
Li1938 Li 0.81345 0.65626 0.04639 0.0
Li1939 Li 0.79667 0.66174 0.99236 0.0
C1940 C 0.82263 0.66762 0.12149 0.0
N1941 N 0.84174 0.65972 0.1823 0.0
C1942 C 0.81946 0.6604 0.16095 0.0
C1943 C 0.83552 0.6709 0.11312 0.0
C1944 C 0.82926 0.65646 0.19119 0.0
C1945 C 0.84504 0.66681 0.14429 0.0
C1946 C 0.78413 0.6885 0.02109 0.0
C1947 C 0.76423 0.69814 0.99463 0.0
N1948 N 0.76757 0.70939 0.01591 0.0
C1949 C 0.78735 0.70015 0.04274 0.0
C1950 C 0.77247 0.68748 0.99682 0.0
C1951 C 0.77886 0.7106 0.03972 0.0
C1952 C 0.81523 0.70199 0.97853 0.0
N1953 N 0.81852 0.69559 0.0181 0.0
C1954 C 0.82748 0.71482 0.05071 0.0
C1955 C 0.82471 0.70165 0.05357 0.0
C1956 C 0.82354 0.72191 0.01144 0.0
C1957 C 0.81766 0.71522 0.97444 0.0
H1958 H 0.81001 0.69697 0.95138 0.0
H1959 H 0.82687 0.69646 0.08522 0.0
C1960 C 0.78211 0.65726 0.15521 0.0
N1961 N 0.78372 0.66807 0.12902 0.0
C1962 C 0.774 0.65743 0.19393 0.0
C1963 C 0.76936 0.67988 0.17819 0.0
C1964 C 0.77761 0.67928 0.13985 0.0
C1965 C 0.76747 0.66885 0.20583 0.0
H1966 H 0.78722 0.6485 0.14614 0.0
H1967 H 0.77912 0.68777 0.11898 0.0
C1968 C 0.82397 0.65648 0.96142 0.0
N1969 N 0.84095 0.63994 0.91747 0.0
C1970 C 0.82011 0.64394 0.95007 0.0
C1971 C 0.8364 0.66067 0.95008 0.0
C1972 C 0.82886 0.63571 0.92797 0.0
C1973 C 0.84486 0.65214 0.92793 0.0
C1974 C 0.78346 0.64409 0.04657 0.0
C1975 C 0.78208 0.6307 0.05018 0.0
C1976 C 0.77246 0.65187 0.0435 0.0
C1977 C 0.76971 0.62532 0.05045 0.0
C1978 C 0.76027 0.64613 0.04392 0.0
N1979 N 0.75915 0.63308 0.04733 0.0
C1980 C 0.82034 0.63349 0.09184 0.0
C1981 C 0.8385 0.64398 0.05897 0.0
C1982 C 0.8283 0.62452 0.114 0.0
N1983 N 0.82551 0.64308 0.06542 0.0
C1984 C 0.84684 0.63522 0.08067 0.0
C1985 C 0.84177 0.62543 0.10923 0.0
H1986 H 0.81004 0.63317 0.09755 0.0
H1987 H 0.84246 0.65188 0.03902 0.0
C1988 C 0.78608 0.6689 0.90715 0.0
N1989 N 0.78667 0.65879 0.93719 0.0
C1990 C 0.77774 0.66856 0.86898 0.0
C1991 C 0.77107 0.64717 0.89216 0.0
C1992 C 0.77968 0.64787 0.9296 0.0
C1993 C 0.76979 0.65773 0.86166 0.0
H1994 H 0.79182 0.67744 0.9138 0.0
H1995 H 0.78045 0.63981 0.95326 0.0
O1996 O 0.8132 0.67131 0.09093 0.0
O1997 O 0.79247 0.67824 0.02267 0.0
O1998 O 0.81559 0.66462 0.98338 0.0
O1999 O 0.79555 0.64943 0.04634 0.0
H2000 H 0.80955 0.65775 0.16791 0.0
H2001 H 0.83819 0.67628 0.08232 0.0
H2002 H 0.82695 0.65079 0.22168 0.0
H2003 H 0.85506 0.66918 0.13803 0.0
H2004 H 0.75519 0.69748 0.97596 0.0
H2005 H 0.79622 0.70108 0.06229 0.0
H2006 H 0.76978 0.67856 0.97984 0.0
H2007 H 0.78123 0.71966 0.0564 0.0
H2008 H 0.8322 0.71948 0.07982 0.0
H2009 H 0.81426 0.72027 0.94381 0.0
H2010 H 0.773 0.64876 0.21467 0.0
H2011 H 0.76443 0.68886 0.18578 0.0
H2012 H 0.8105 0.64059 0.95862 0.0
H2013 H 0.8395 0.67037 0.95862 0.0
H2014 H 0.82604 0.62595 0.91919 0.0
H2015 H 0.85454 0.65522 0.91912 0.0
H2016 H 0.79048 0.62452 0.05255 0.0
H2017 H 0.77331 0.66223 0.04103 0.0
H2018 H 0.7685 0.61497 0.05313 0.0
H2019 H 0.75169 0.65205 0.04156 0.0
H2020 H 0.82396 0.61728 0.13621 0.0
H2021 H 0.85716 0.63624 0.07578 0.0
H2022 H 0.77743 0.67681 0.84586 0.0
H2023 H 0.76516 0.63862 0.88828 0.0
Li2024 Li 0.57284 0.56003 0.2759 0.0
Li2025 Li 0.58681 0.5448 0.3264 0.0
Li2026 Li 0.59551 0.56441 0.29262 0.0
Li2027 Li 0.59036 0.5469 0.24286 0.0
C2028 C 0.58352 0.57224 0.36948 0.0
N2029 N 0.58968 0.5916 0.43175 0.0
C2030 C 0.59153 0.56962 0.40747 0.0
C2031 C 0.5785 0.58465 0.36348 0.0
C2032 C 0.59458 0.57956 0.43846 0.0
C2033 C 0.58175 0.59432 0.39529 0.0
C2034 C 0.57146 0.5297 0.25251 0.0
C2035 C 0.57308 0.50661 0.24345 0.0
N2036 N 0.5662 0.50742 0.20323 0.0
C2037 C 0.56431 0.5303 0.21132 0.0
C2038 C 0.57584 0.51777 0.26889 0.0
C2039 C 0.5618 0.51892 0.1868 0.0
C2040 C 0.54996 0.56538 0.22549 0.0
N2041 N 0.55551 0.56565 0.26833 0.0
C2042 C 0.53535 0.57106 0.3037 0.0
C2043 C 0.54858 0.56861 0.30702 0.0
C2044 C 0.5292 0.57028 0.2602 0.0
C2045 C 0.53672 0.56764 0.22061 0.0
H2046 H 0.55573 0.56297 0.19535 0.0
H2047 H 0.55323 0.56857 0.34072 0.0
C2048 C 0.59844 0.5317 0.39999 0.0
N2049 N 0.58695 0.53404 0.37885 0.0
C2050 C 0.59894 0.52411 0.44 0.0
C2051 C 0.57575 0.52149 0.43551 0.0
C2052 C 0.5757 0.52914 0.39556 0.0
C2053 C 0.58748 0.51891 0.45831 0.0
H2054 H 0.60718 0.5359 0.38605 0.0
H2055 H 0.56672 0.53123 0.37786 0.0
C2056 C 0.58754 0.57745 0.21258 0.0
N2057 N 0.58978 0.60184 0.17447 0.0
C2058 C 0.59729 0.58009 0.1803 0.0
C2059 C 0.5788 0.58715 0.22487 0.0
C2060 C 0.5983 0.59251 0.16164 0.0
C2061 C 0.58012 0.59944 0.20535 0.0
C2062 C 0.61518 0.54504 0.27451 0.0
C2063 C 0.62012 0.55391 0.24256 0.0
C2064 C 0.62245 0.53418 0.28662 0.0
C2065 C 0.63228 0.55177 0.22306 0.0
C2066 C 0.63457 0.53236 0.26632 0.0
N2067 N 0.6392 0.54112 0.23522 0.0
C2068 C 0.61722 0.573 0.34059 0.0
C2069 C 0.60618 0.59036 0.30474 0.0
C2070 C 0.62549 0.58154 0.36339 0.0
N2071 N 0.60772 0.57747 0.31216 0.0
C2072 C 0.61425 0.59928 0.32698 0.0
C2073 C 0.62394 0.5949 0.35744 0.0
H2074 H 0.61804 0.56277 0.34734 0.0
H2075 H 0.59833 0.59381 0.28352 0.0
C2076 C 0.59051 0.54057 0.14683 0.0
N2077 N 0.5945 0.53662 0.18958 0.0
C2078 C 0.59151 0.53228 0.1086 0.0
C2079 C 0.60114 0.51622 0.15878 0.0
C2080 C 0.59994 0.52481 0.196 0.0
C2081 C 0.59663 0.5198 0.11449 0.0
H2082 H 0.58607 0.54996 0.14284 0.0
H2083 H 0.60275 0.52179 0.23056 0.0
O2084 O 0.5808 0.56274 0.33791 0.0
O2085 O 0.57438 0.54077 0.27624 0.0
O2086 O 0.58632 0.56529 0.23067 0.0
O2087 O 0.60322 0.54686 0.29362 0.0
H2088 H 0.59553 0.56007 0.41253 0.0
H2089 H 0.57226 0.58682 0.33434 0.0
H2090 H 0.60088 0.57771 0.46773 0.0
H2091 H 0.57801 0.60399 0.3909 0.0
H2092 H 0.57647 0.49732 0.25554 0.0
H2093 H 0.56093 0.53946 0.19804 0.0
H2094 H 0.58145 0.51716 0.30057 0.0
H2095 H 0.55638 0.51924 0.15463 0.0
H2096 H 0.52989 0.57289 0.33516 0.0
H2097 H 0.53236 0.56706 0.18641 0.0
H2098 H 0.60815 0.52252 0.45686 0.0
H2099 H 0.56672 0.51754 0.44817 0.0
H2100 H 0.60395 0.57262 0.16951 0.0
H2101 H 0.57116 0.58529 0.24951 0.0
H2102 H 0.60583 0.59471 0.13679 0.0
H2103 H 0.57348 0.60706 0.21482 0.0
H2104 H 0.61463 0.56238 0.23306 0.0
H2105 H 0.61872 0.52719 0.31119 0.0
H2106 H 0.63623 0.55856 0.19826 0.0
H2107 H 0.64029 0.52398 0.27525 0.0
H2108 H 0.6329 0.57768 0.38604 0.0
H2109 H 0.61257 0.6095 0.32183 0.0
H2110 H 0.58806 0.53551 0.075 0.0
H2111 H 0.60496 0.50665 0.16518 0.0
Li2112 Li 0.29399 0.33684 0.57431 0.0
Li2113 Li 0.31514 0.34324 0.5466 0.0
Li2114 Li 0.29718 0.33882 0.49095 0.0
Li2115 Li 0.30783 0.32094 0.53202 0.0
C2116 C 0.29045 0.36247 0.55202 0.0
N2117 N 0.27396 0.38193 0.58053 0.0
C2118 C 0.29526 0.37316 0.57625 0.0
C2119 C 0.27727 0.36175 0.5421 0.0
C2120 C 0.28677 0.38287 0.59041 0.0
C2121 C 0.26908 0.37166 0.55685 0.0
C2122 C 0.3137 0.3329 0.63804 0.0
C2123 C 0.32065 0.32721 0.71549 0.0
N2124 N 0.31919 0.33972 0.72893 0.0
C2125 C 0.3123 0.3457 0.65264 0.0
C2126 C 0.31794 0.32357 0.66969 0.0
C2127 C 0.31511 0.34896 0.69869 0.0
C2128 C 0.27582 0.32642 0.63454 0.0
N2129 N 0.28206 0.33763 0.62475 0.0
C2130 C 0.2725 0.34787 0.69083 0.0
C2131 C 0.28057 0.34827 0.65202 0.0
C2132 C 0.26602 0.33637 0.702 0.0
C2133 C 0.26768 0.32557 0.67311 0.0
H2134 H 0.27736 0.31804 0.61279 0.0
H2135 H 0.28591 0.35696 0.64474 0.0
C2136 C 0.3304 0.36627 0.55279 0.0
N2137 N 0.32986 0.35351 0.5639 0.0
C2138 C 0.33947 0.37433 0.57431 0.0
C2139 C 0.34764 0.35586 0.61639 0.0
C2140 C 0.3386 0.34814 0.5935 0.0
C2141 C 0.3479 0.36918 0.60783 0.0
H2142 H 0.32336 0.37031 0.52912 0.0
H2143 H 0.33808 0.33797 0.60164 0.0
C2144 C 0.27848 0.31964 0.50508 0.0
N2145 N 0.25666 0.31023 0.46129 0.0
C2146 C 0.27934 0.30892 0.47568 0.0
C2147 C 0.26647 0.32536 0.51312 0.0
C2148 C 0.26822 0.30437 0.45359 0.0
C2149 C 0.25557 0.32052 0.49042 0.0
C2150 C 0.32833 0.32985 0.47746 0.0
C2151 C 0.33393 0.33275 0.43447 0.0
C2152 C 0.33564 0.32357 0.51153 0.0
C2153 C 0.34678 0.32935 0.4263 0.0
C2154 C 0.34847 0.32034 0.50204 0.0
N2155 N 0.35373 0.32327 0.45998 0.0
C2156 C 0.28203 0.35353 0.42468 0.0
C2157 C 0.28757 0.33213 0.40359 0.0
C2158 C 0.2736 0.35446 0.38669 0.0
N2159 N 0.28842 0.3423 0.43334 0.0
C2160 C 0.2791 0.33254 0.36583 0.0
C2161 C 0.27171 0.34368 0.35782 0.0
H2162 H 0.28308 0.36162 0.44812 0.0
H2163 H 0.29301 0.32344 0.41055 0.0
C2164 C 0.31111 0.29625 0.56869 0.0
N2165 N 0.31204 0.3031 0.52858 0.0
C2166 C 0.313 0.28293 0.56855 0.0
C2167 C 0.31677 0.28389 0.48562 0.0
C2168 C 0.31496 0.29728 0.4875 0.0
C2169 C 0.3156 0.27649 0.52647 0.0
H2170 H 0.30859 0.30113 0.60066 0.0
H2171 H 0.31547 0.30297 0.45599 0.0
O2172 O 0.29861 0.3528 0.53817 0.0
O2173 O 0.31105 0.32952 0.59295 0.0
O2174 O 0.28932 0.32433 0.52652 0.0
O2175 O 0.31575 0.33314 0.48582 0.0
H2176 H 0.30541 0.37389 0.58454 0.0
H2177 H 0.2734 0.35365 0.52305 0.0
H2178 H 0.29036 0.39115 0.60937 0.0
H2179 H 0.25885 0.37119 0.54943 0.0
H2180 H 0.32393 0.32008 0.74034 0.0
H2181 H 0.30916 0.35306 0.62855 0.0
H2182 H 0.3192 0.31364 0.659 0.0
H2183 H 0.31408 0.35883 0.71035 0.0
H2184 H 0.27167 0.35635 0.71268 0.0
H2185 H 0.26279 0.31655 0.68031 0.0
H2186 H 0.33943 0.38458 0.56678 0.0
H2187 H 0.3541 0.35152 0.64155 0.0
H2188 H 0.28853 0.30427 0.46944 0.0
H2189 H 0.26553 0.33338 0.53694 0.0
H2190 H 0.26878 0.29618 0.43031 0.0
H2191 H 0.24623 0.32492 0.49612 0.0
H2192 H 0.32838 0.33759 0.40771 0.0
H2193 H 0.33148 0.3212 0.54494 0.0
H2194 H 0.35124 0.33154 0.39319 0.0
H2195 H 0.35423 0.31549 0.52811 0.0
H2196 H 0.26813 0.36325 0.38137 0.0
H2197 H 0.27809 0.32412 0.3438 0.0
H2198 H 0.31224 0.27772 0.6011 0.0
H2199 H 0.3186 0.27937 0.45229 0.0
Li2200 Li 0.407 0.56224 0.30391 0.0
Li2201 Li 0.41792 0.5432 0.33023 0.0
Li2202 Li 0.42983 0.55823 0.2844 0.0
Li2203 Li 0.4139 0.54415 0.24722 0.0
C2204 C 0.42457 0.57299 0.3654 0.0
N2205 N 0.4295 0.597 0.40337 0.0
C2206 C 0.42603 0.57437 0.41349 0.0
C2207 C 0.42566 0.5838 0.33666 0.0
C2208 C 0.42851 0.5866 0.43203 0.0
C2209 C 0.42814 0.59586 0.35647 0.0
C2210 C 0.39456 0.53417 0.31971 0.0
C2211 C 0.39034 0.51141 0.32859 0.0
N2212 N 0.38271 0.51402 0.36595 0.0
C2213 C 0.3866 0.53665 0.35796 0.0
C2214 C 0.3964 0.52147 0.30469 0.0
C2215 C 0.38072 0.52632 0.38096 0.0
C2216 C 0.38741 0.58247 0.29744 0.0
N2217 N 0.39426 0.57426 0.32489 0.0
C2218 C 0.38395 0.5825 0.39318 0.0
C2219 C 0.39259 0.57408 0.37178 0.0
C2220 C 0.37666 0.59114 0.36612 0.0
C2221 C 0.37847 0.59101 0.31745 0.0
H2222 H 0.38884 0.58237 0.26016 0.0
H2223 H 0.3981 0.56739 0.39278 0.0
C2224 C 0.42189 0.51961 0.38015 0.0
N2225 N 0.41806 0.53214 0.38271 0.0
C2226 C 0.42127 0.51173 0.41953 0.0
C2227 C 0.4127 0.52981 0.46299 0.0
C2228 C 0.41356 0.53733 0.42296 0.0
C2229 C 0.41655 0.51683 0.46155 0.0
H2230 H 0.42525 0.5157 0.34741 0.0
H2231 H 0.41044 0.54729 0.42364 0.0
C2232 C 0.41902 0.57108 0.20447 0.0
N2233 N 0.42573 0.5864 0.12948 0.0
C2234 C 0.4244 0.56554 0.16459 0.0
C2235 C 0.41675 0.58439 0.20569 0.0
C2236 C 0.42783 0.57346 0.12721 0.0
C2237 C 0.42029 0.59198 0.16757 0.0
C2238 C 0.44144 0.53443 0.29702 0.0
C2239 C 0.44626 0.53913 0.33925 0.0
C2240 C 0.44839 0.52501 0.27281 0.0
C2241 C 0.45798 0.53442 0.35623 0.0
C2242 C 0.46008 0.52053 0.29097 0.0
N2243 N 0.4646 0.5253 0.33194 0.0
C2244 C 0.45405 0.5695 0.31101 0.0
C2245 C 0.45251 0.56302 0.23224 0.0
C2246 C 0.46721 0.57206 0.3058 0.0
N2247 N 0.44697 0.56499 0.27455 0.0
C2248 C 0.46562 0.56557 0.22535 0.0
C2249 C 0.47325 0.56987 0.26273 0.0
H2250 H 0.44975 0.57035 0.34505 0.0
H2251 H 0.44695 0.55879 0.20443 0.0
C2252 C 0.39841 0.53158 0.17623 0.0
N2253 N 0.41045 0.53404 0.19291 0.0
C2254 C 0.39674 0.52319 0.13835 0.0
C2255 C 0.41984 0.52007 0.13604 0.0
C2256 C 0.42105 0.52857 0.17335 0.0
C2257 C 0.40756 0.5172 0.11783 0.0
H2258 H 0.39011 0.53598 0.19269 0.0
H2259 H 0.4305 0.53073 0.1872 0.0
O2260 O 0.42191 0.56111 0.34688 0.0
O2261 O 0.40074 0.5441 0.29765 0.0
O2262 O 0.41538 0.56345 0.24113 0.0
O2263 O 0.43003 0.53899 0.27928 0.0
H2264 H 0.42525 0.56609 0.43628 0.0
H2265 H 0.42474 0.58285 0.29948 0.0
H2266 H 0.42964 0.58781 0.46919 0.0
H2267 H 0.42903 0.60431 0.33455 0.0
H2268 H 0.39175 0.50152 0.31758 0.0
H2269 H 0.38509 0.54643 0.37004 0.0
H2270 H 0.40261 0.5194 0.27532 0.0
H2271 H 0.37462 0.52808 0.41084 0.0
H2272 H 0.38316 0.58233 0.43073 0.0
H2273 H 0.37297 0.59734 0.29497 0.0
H2274 H 0.42419 0.50172 0.41692 0.0
H2275 H 0.40911 0.53413 0.49479 0.0
H2276 H 0.42603 0.55526 0.16264 0.0
H2277 H 0.4122 0.58883 0.23556 0.0
H2278 H 0.43212 0.5693 0.09635 0.0
H2279 H 0.41865 0.60229 0.16819 0.0
H2280 H 0.44106 0.54634 0.35885 0.0
H2281 H 0.44481 0.52114 0.24033 0.0
H2282 H 0.46182 0.53801 0.38876 0.0
H2283 H 0.46555 0.51326 0.27251 0.0
H2284 H 0.4727 0.57501 0.33604 0.0
H2285 H 0.4698 0.56377 0.19144 0.0
H2286 H 0.38709 0.52143 0.12537 0.0
H2287 H 0.42848 0.51556 0.12243 0.0
Li2288 Li 0.20621 0.66156 0.06803 0.0
Li2289 Li 0.18529 0.6546 0.04077 0.0
Li2290 Li 0.2032 0.65937 0.9852 0.0
Li2291 Li 0.19237 0.67727 0.02564 0.0
C2292 C 0.21033 0.6363 0.04983 0.0
N2293 N 0.22716 0.61803 0.08506 0.0
C2294 C 0.20562 0.62588 0.07575 0.0
C2295 C 0.22358 0.63737 0.04169 0.0
C2296 C 0.21429 0.61675 0.09328 0.0
C2297 C 0.23194 0.62806 0.05984 0.0
C2298 C 0.18725 0.66668 0.13255 0.0
C2299 C 0.18383 0.67521 0.20966 0.0
N2300 N 0.1839 0.66299 0.22701 0.0
C2301 C 0.18727 0.65421 0.15115 0.0
C2302 C 0.1855 0.67727 0.16199 0.0
C2303 C 0.18556 0.65254 0.19897 0.0
C2304 C 0.22509 0.67204 0.12581 0.0
N2305 N 0.21805 0.66112 0.11893 0.0
C2306 C 0.2269 0.65161 0.18765 0.0
C2307 C 0.21876 0.65102 0.14907 0.0
C2308 C 0.23421 0.66279 0.19573 0.0
C2309 C 0.23327 0.67309 0.16418 0.0
H2310 H 0.22414 0.68005 0.10191 0.0
H2311 H 0.21277 0.64264 0.14414 0.0
C2312 C 0.17071 0.63129 0.04791 0.0
N2313 N 0.1708 0.6441 0.05817 0.0
C2314 C 0.16176 0.62306 0.06923 0.0
C2315 C 0.15264 0.64151 0.10876 0.0
C2316 C 0.16174 0.64936 0.08675 0.0
C2317 C 0.15281 0.62811 0.10132 0.0
H2318 H 0.17802 0.62734 0.02513 0.0
H2319 H 0.16202 0.65956 0.0946 0.0
C2320 C 0.22095 0.67912 0.99533 0.0
N2321 N 0.24117 0.68941 0.94477 0.0
C2322 C 0.21884 0.68956 0.96547 0.0
C2323 C 0.23339 0.67408 1.00016 0.0
C2324 C 0.22918 0.69458 0.94002 0.0
C2325 C 0.24347 0.67936 0.97411 0.0
C2326 C 0.1719 0.66782 0.97128 0.0
C2327 C 0.16638 0.6647 0.92836 0.0
C2328 C 0.16444 0.674 0.00517 0.0
C2329 C 0.15346 0.6678 0.92006 0.0
C2330 C 0.15155 0.67694 0.99554 0.0
N2331 N 0.14637 0.6738 0.95354 0.0
C2332 C 0.21889 0.64477 0.92087 0.0
C2333 C 0.21179 0.6653 0.89529 0.0
C2334 C 0.22682 0.64352 0.88166 0.0
N2335 N 0.21187 0.65572 0.92759 0.0
C2336 C 0.2197 0.66455 0.85605 0.0
C2337 C 0.2276 0.65365 0.84911 0.0
H2338 H 0.21859 0.63713 0.94639 0.0
H2339 H 0.20597 0.67381 0.90108 0.0
C2340 C 0.19327 0.70212 0.05919 0.0
N2341 N 0.18843 0.69519 0.02311 0.0
C2342 C 0.19233 0.71553 0.05949 0.0
C2343 C 0.18127 0.71453 0.98549 0.0
C2344 C 0.18243 0.70105 0.98664 0.0
C2345 C 0.18648 0.72195 0.02192 0.0
H2346 H 0.19825 0.6972 0.08713 0.0
H2347 H 0.17895 0.69534 0.95776 0.0
O2348 O 0.202 0.64536 0.03247 0.0
O2349 O 0.18899 0.66853 0.0858 0.0
O2350 O 0.21092 0.674 0.02024 0.0
O2351 O 0.18453 0.66478 0.97984 0.0
H2352 H 0.19542 0.62491 0.08284 0.0
H2353 H 0.22738 0.64532 0.0216 0.0
H2354 H 0.21079 0.60868 0.11358 0.0
H2355 H 0.24222 0.62881 0.05388 0.0
H2356 H 0.18247 0.68332 0.23286 0.0
H2357 H 0.1887 0.6459 0.12893 0.0
H2358 H 0.18539 0.68699 0.14819 0.0
H2359 H 0.1856 0.64294 0.2138 0.0
H2360 H 0.22718 0.64355 0.21167 0.0
H2361 H 0.23879 0.68187 0.16916 0.0
H2362 H 0.16231 0.61279 0.06252 0.0
H2363 H 0.14577 0.64587 0.13245 0.0
H2364 H 0.20929 0.69364 0.96146 0.0
H2365 H 0.23527 0.66622 0.02398 0.0
H2366 H 0.22765 0.70258 0.91644 0.0
H2367 H 0.25314 0.67551 0.97733 0.0
H2368 H 0.17204 0.65992 0.90177 0.0
H2369 H 0.16855 0.67656 0.03849 0.0
H2370 H 0.14905 0.66544 0.887 0.0
H2371 H 0.14568 0.68172 0.02145 0.0
H2372 H 0.23242 0.63478 0.87738 0.0
H2373 H 0.21997 0.6727 0.83254 0.0
H2374 H 0.19635 0.72084 0.08855 0.0
H2375 H 0.17683 0.71909 0.95562 0.0
Li2376 Li 0.08282 0.45692 0.82737 0.0
Li2377 Li 0.09378 0.43711 0.80372 0.0
Li2378 Li 0.08723 0.45488 0.7441 0.0
Li2379 Li 0.07133 0.44136 0.78258 0.0
C2380 C 0.10637 0.46529 0.81785 0.0
N2381 N 0.11818 0.48546 0.86411 0.0
C2382 C 0.11365 0.46291 0.85787 0.0
C2383 C 0.10514 0.47791 0.80117 0.0
C2384 C 0.11953 0.47325 0.88083 0.0
C2385 C 0.11119 0.48798 0.82508 0.0
C2386 C 0.07369 0.43034 0.87468 0.0
C2387 C 0.07135 0.40835 0.9011 0.0
N2388 N 0.0633 0.41244 0.93544 0.0
C2389 C 0.06548 0.43434 0.91054 0.0
C2390 C 0.07672 0.41724 0.87012 0.0
C2391 C 0.06029 0.42514 0.94076 0.0
C2392 C 0.07939 0.48125 0.87287 0.0
N2393 N 0.08222 0.46852 0.87829 0.0
C2394 C 0.0854 0.47136 0.95987 0.0
C2395 C 0.08523 0.4635 0.92056 0.0
C2396 C 0.08254 0.48457 0.95556 0.0
C2397 C 0.07949 0.4895 0.9113 0.0
H2398 H 0.07726 0.48502 0.83863 0.0
H2399 H 0.08762 0.45337 0.92363 0.0
C2400 C 0.11331 0.41697 0.80009 0.0
N2401 N 0.1064 0.4253 0.82681 0.0
C2402 C 0.12216 0.40849 0.82088 0.0
C2403 C 0.11643 0.41728 0.89597 0.0
C2404 C 0.10788 0.42565 0.87378 0.0
C2405 C 0.12379 0.40852 0.86963 0.0
H2406 H 0.11196 0.4169 0.76275 0.0
H2407 H 0.10223 0.43236 0.8942 0.0
C2408 C 0.06044 0.46677 0.789 0.0
N2409 N 0.03861 0.4798 0.81815 0.0
C2410 C 0.05302 0.46192 0.82567 0.0
C2411 C 0.05677 0.47825 0.76718 0.0
C2412 C 0.04201 0.46864 0.83987 0.0
C2413 C 0.0457 0.4847 0.78244 0.0
C2414 C 0.07878 0.42661 0.71483 0.0
C2415 C 0.07246 0.43039 0.67409 0.0
C2416 C 0.07778 0.41386 0.73025 0.0
C2417 C 0.06504 0.42136 0.64979 0.0
C2418 C 0.07028 0.40512 0.70498 0.0
N2419 N 0.0641 0.40902 0.66564 0.0
C2420 C 0.10252 0.46851 0.67533 0.0
C2421 C 0.07982 0.46807 0.66519 0.0
C2422 C 0.10388 0.4767 0.63674 0.0
N2423 N 0.09059 0.46446 0.68878 0.0
C2424 C 0.08072 0.47621 0.6267 0.0
C2425 C 0.09285 0.48074 0.612 0.0
H2426 H 0.11092 0.46563 0.69512 0.0
H2427 H 0.07045 0.46485 0.67708 0.0
C2428 C 0.04885 0.42497 0.79758 0.0
N2429 N 0.05427 0.43444 0.77123 0.0
C2430 C 0.03575 0.42202 0.79295 0.0
C2431 C 0.03422 0.43787 0.73157 0.0
C2432 C 0.04732 0.44061 0.73775 0.0
C2433 C 0.0282 0.42875 0.76043 0.0
H2434 H 0.05447 0.41997 0.82333 0.0
H2435 H 0.05182 0.4481 0.71713 0.0
O2436 O 0.10018 0.45538 0.79576 0.0
O2437 O 0.07902 0.43926 0.84521 0.0
O2438 O 0.07129 0.46039 0.77456 0.0
O2439 O 0.08578 0.4354 0.7398 0.0
H2440 H 0.11466 0.45321 0.87131 0.0
H2441 H 0.09942 0.47993 0.77052 0.0
H2442 H 0.12513 0.47157 0.91201 0.0
H2443 H 0.11026 0.49781 0.81275 0.0
H2444 H 0.07358 0.39818 0.89781 0.0
H2445 H 0.06318 0.44445 0.91516 0.0
H2446 H 0.08309 0.41395 0.84282 0.0
H2447 H 0.05389 0.4281 0.96854 0.0
H2448 H 0.08765 0.46711 0.99332 0.0
H2449 H 0.07743 0.49965 0.90627 0.0
H2450 H 0.12771 0.40207 0.79891 0.0
H2451 H 0.11707 0.41756 0.93355 0.0
H2452 H 0.0557 0.45304 0.84278 0.0
H2453 H 0.06245 0.48217 0.73887 0.0
H2454 H 0.03617 0.46497 0.86814 0.0
H2455 H 0.04276 0.49361 0.7659 0.0
H2456 H 0.07316 0.44022 0.66166 0.0
H2457 H 0.08273 0.41075 0.76142 0.0
H2458 H 0.06001 0.42417 0.61839 0.0
H2459 H 0.06936 0.39523 0.71663 0.0
H2460 H 0.11343 0.47987 0.62656 0.0
H2461 H 0.07191 0.47923 0.60957 0.0
H2462 H 0.03149 0.4148 0.81545 0.0
H2463 H 0.02873 0.44333 0.70627 0.0
Li2464 Li 0.3075 0.67895 0.53865 0.0
Li2465 Li 0.29351 0.66329 0.57542 0.0
Li2466 Li 0.31184 0.65645 0.51905 0.0
Li2467 Li 0.29239 0.66739 0.49187 0.0
C2468 C 0.32052 0.67181 0.61175 0.0
N2469 N 0.3358 0.68681 0.66906 0.0
C2470 C 0.31531 0.67733 0.65195 0.0
C2471 C 0.33353 0.67378 0.60096 0.0
C2472 C 0.32319 0.68492 0.68042 0.0
C2473 C 0.34108 0.68143 0.6303 0.0
C2474 C 0.28307 0.69041 0.52579 0.0
C2475 C 0.26656 0.70685 0.52674 0.0
N2476 N 0.27244 0.71284 0.49037 0.0
C2477 C 0.28891 0.69672 0.48826 0.0
C2478 C 0.27178 0.6955 0.54511 0.0
C2479 C 0.28341 0.70805 0.47093 0.0
C2480 C 0.32368 0.7015 0.52296 0.0
N2481 N 0.31443 0.69598 0.55005 0.0
C2482 C 0.31107 0.71598 0.59009 0.0
C2483 C 0.30835 0.70289 0.58389 0.0
C2484 C 0.32003 0.72208 0.56077 0.0
C2485 C 0.3266 0.7146 0.52764 0.0
H2486 H 0.32847 0.69597 0.49643 0.0
H2487 H 0.30092 0.69835 0.60468 0.0
C2488 C 0.28105 0.64758 0.64555 0.0
N2489 N 0.28319 0.65969 0.62893 0.0
C2490 C 0.27226 0.64561 0.68202 0.0
C2491 C 0.26814 0.66858 0.68326 0.0
C2492 C 0.27712 0.67012 0.64754 0.0
C2493 C 0.2655 0.6562 0.70058 0.0
H2494 H 0.28592 0.63943 0.62979 0.0
H2495 H 0.27911 0.67965 0.63398 0.0
C2496 C 0.31991 0.67539 0.44823 0.0
N2497 N 0.33932 0.68369 0.3894 0.0
C2498 C 0.31688 0.68234 0.40797 0.0
C2499 C 0.33282 0.67258 0.45834 0.0
C2500 C 0.32684 0.68649 0.37877 0.0
C2501 C 0.34249 0.67687 0.42821 0.0
C2502 C 0.28359 0.64398 0.50259 0.0
C2503 C 0.28603 0.63594 0.46455 0.0
C2504 C 0.27089 0.64594 0.51748 0.0
C2505 C 0.27568 0.63006 0.44168 0.0
C2506 C 0.26081 0.63987 0.49372 0.0
N2507 N 0.26339 0.63214 0.45659 0.0
C2508 C 0.33235 0.63726 0.52507 0.0
C2509 C 0.32343 0.64183 0.45092 0.0
C2510 C 0.34105 0.62848 0.50506 0.0
N2511 N 0.32381 0.64373 0.49772 0.0
C2512 C 0.33202 0.63335 0.42951 0.0
C2513 C 0.34102 0.62657 0.45655 0.0
H2514 H 0.33249 0.63899 0.56219 0.0
H2515 H 0.31651 0.64708 0.43005 0.0
C2516 C 0.26892 0.67157 0.44167 0.0
N2517 N 0.28143 0.66765 0.43913 0.0
C2518 C 0.26108 0.67113 0.40219 0.0
C2519 C 0.2791 0.66246 0.35867 0.0
C2520 C 0.28661 0.66318 0.39881 0.0
C2521 C 0.26616 0.66645 0.3601 0.0
H2522 H 0.26499 0.67483 0.47446 0.0
H2523 H 0.29655 0.66001 0.39808 0.0
O2524 O 0.31287 0.66462 0.5829 0.0
O2525 O 0.28827 0.67928 0.54345 0.0
O2526 O 0.31025 0.67108 0.47675 0.0
O2527 O 0.29353 0.6502 0.52441 0.0
H2528 H 0.30526 0.67589 0.6608 0.0
H2529 H 0.33773 0.66947 0.57025 0.0
H2530 H 0.31927 0.68934 0.71147 0.0
H2531 H 0.35115 0.6831 0.62226 0.0
H2532 H 0.25782 0.71088 0.54138 0.0
H2533 H 0.29761 0.69296 0.47276 0.0
H2534 H 0.26703 0.69069 0.57383 0.0
H2535 H 0.28787 0.71304 0.44202 0.0
H2536 H 0.30569 0.72143 0.61575 0.0
H2537 H 0.33367 0.71893 0.50463 0.0
H2538 H 0.27044 0.63591 0.69449 0.0
H2539 H 0.26326 0.67699 0.69712 0.0
H2540 H 0.30695 0.6845 0.39932 0.0
H2541 H 0.33535 0.66717 0.48915 0.0
H2542 H 0.32463 0.6919 0.34758 0.0
H2543 H 0.35251 0.67479 0.43568 0.0
H2544 H 0.2958 0.63436 0.45253 0.0
H2545 H 0.26884 0.65223 0.54663 0.0
H2546 H 0.27741 0.62388 0.41199 0.0
H2547 H 0.25092 0.64136 0.50464 0.0
H2548 H 0.34789 0.62346 0.52707 0.0
H2549 H 0.33156 0.63203 0.39215 0.0
H2550 H 0.25109 0.67412 0.40477 0.0
H2551 H 0.28339 0.65888 0.32681 0.0
Li2552 Li 0.08694 0.54632 0.33609 0.0
Li2553 Li 0.07049 0.55984 0.29735 0.0
Li2554 Li 0.08315 0.54402 0.25065 0.0
Li2555 Li 0.09264 0.56375 0.27935 0.0
C2556 C 0.06182 0.5317 0.29892 0.0
N2557 N 0.04255 0.51335 0.29053 0.0
C2558 C 0.05021 0.53475 0.2766 0.0
C2559 C 0.06357 0.5193 0.31716 0.0
C2560 C 0.04061 0.52535 0.27265 0.0
C2561 C 0.05374 0.51016 0.31249 0.0
C2562 C 0.07729 0.57317 0.37061 0.0
C2563 C 0.0651 0.59265 0.38418 0.0
N2564 N 0.06218 0.58841 0.42772 0.0
C2565 C 0.07426 0.56905 0.4156 0.0
C2566 C 0.07277 0.58511 0.35484 0.0
C2567 C 0.06657 0.57688 0.44391 0.0
C2568 C 0.1022 0.53268 0.40531 0.0
N2569 N 0.09022 0.5364 0.3911 0.0
C2570 C 0.08037 0.52333 0.44972 0.0
C2571 C 0.07944 0.53217 0.41329 0.0
C2572 C 0.09254 0.51885 0.46393 0.0
C2573 C 0.10359 0.52389 0.44207 0.0
H2574 H 0.11065 0.53621 0.38726 0.0
H2575 H 0.07004 0.53537 0.40161 0.0
C2576 C 0.04747 0.57238 0.26938 0.0
N2577 N 0.05331 0.56621 0.30543 0.0
C2578 C 0.03427 0.57503 0.27094 0.0
C2579 C 0.03339 0.56539 0.34748 0.0
C2580 C 0.04662 0.56285 0.34432 0.0
C2581 C 0.02699 0.57124 0.30989 0.0
H2582 H 0.05291 0.57461 0.23834 0.0
H2583 H 0.05141 0.55758 0.37184 0.0
C2584 C 0.10705 0.53483 0.28696 0.0
N2585 N 0.1215 0.51251 0.29451 0.0
C2586 C 0.12052 0.53548 0.28791 0.0
C2587 C 0.10093 0.52283 0.28972 0.0
C2588 C 0.12766 0.52409 0.29177 0.0
C2589 C 0.1084 0.51166 0.29355 0.0
C2590 C 0.08133 0.57039 0.20094 0.0
C2591 C 0.08822 0.5662 0.16193 0.0
C2592 C 0.07824 0.58347 0.2056 0.0
C2593 C 0.09206 0.57521 0.1285 0.0
C2594 C 0.08225 0.59217 0.17139 0.0
N2595 N 0.08904 0.5879 0.13391 0.0
C2596 C 0.07153 0.52841 0.18085 0.0
C2597 C 0.09436 0.52942 0.17818 0.0
C2598 C 0.07129 0.52054 0.14149 0.0
N2599 N 0.08295 0.53254 0.19874 0.0
C2600 C 0.09458 0.52161 0.13864 0.0
C2601 C 0.08293 0.51705 0.11976 0.0
H2602 H 0.06257 0.53143 0.19646 0.0
H2603 H 0.10329 0.53325 0.19177 0.0
C2604 C 0.10438 0.5889 0.26829 0.0
N2605 N 0.10522 0.57606 0.25893 0.0
C2606 C 0.11233 0.59768 0.24476 0.0
C2607 C 0.12218 0.57979 0.20411 0.0
C2608 C 0.11408 0.57139 0.22837 0.0
C2609 C 0.12117 0.59317 0.21131 0.0
H2610 H 0.09711 0.59239 0.29217 0.0
H2611 H 0.11442 0.56115 0.22111 0.0
O2612 O 0.07125 0.54087 0.30405 0.0
O2613 O 0.08464 0.56556 0.34217 0.0
O2614 O 0.09994 0.54593 0.28375 0.0
O2615 O 0.07783 0.56176 0.23479 0.0
H2616 H 0.0487 0.5442 0.26162 0.0
H2617 H 0.07241 0.51673 0.33491 0.0
H2618 H 0.03162 0.52758 0.25523 0.0
H2619 H 0.05499 0.50054 0.32643 0.0
H2620 H 0.06144 0.60186 0.37229 0.0
H2621 H 0.07776 0.55988 0.42848 0.0
H2622 H 0.07502 0.58844 0.32012 0.0
H2623 H 0.0641 0.57378 0.47873 0.0
H2624 H 0.07162 0.51989 0.46621 0.0
H2625 H 0.11315 0.52068 0.45204 0.0
H2626 H 0.0297 0.57959 0.24128 0.0
H2627 H 0.02811 0.56213 0.37781 0.0
H2628 H 0.1254 0.54471 0.28585 0.0
H2629 H 0.09054 0.52217 0.28861 0.0
H2630 H 0.1381 0.52445 0.29264 0.0
H2631 H 0.10378 0.50231 0.29571 0.0
H2632 H 0.09073 0.55615 0.15776 0.0
H2633 H 0.07299 0.5869 0.23567 0.0
H2634 H 0.0975 0.57212 0.09834 0.0
H2635 H 0.08003 0.60234 0.17478 0.0
H2636 H 0.06208 0.51722 0.12827 0.0
H2637 H 0.10376 0.51944 0.12241 0.0
H2638 H 0.11115 0.60792 0.25119 0.0
H2639 H 0.12899 0.57585 0.17929 0.0
Li2640 Li 0.19229 0.32052 0.04301 0.0
Li2641 Li 0.20614 0.33599 0.0818 0.0
Li2642 Li 0.1881 0.34315 0.02462 0.0
Li2643 Li 0.20766 0.3323 0.99806 0.0
C2644 C 0.17868 0.32739 0.11503 0.0
N2645 N 0.16262 0.31226 0.16901 0.0
C2646 C 0.18337 0.32162 0.15561 0.0
C2647 C 0.16579 0.32562 0.1022 0.0
C2648 C 0.17511 0.31397 0.18237 0.0
C2649 C 0.15784 0.31789 0.12987 0.0
C2650 C 0.21689 0.30913 0.03178 0.0
C2651 C 0.23354 0.29285 0.03403 0.0
N2652 N 0.228 0.28688 0.9969 0.0
C2653 C 0.2114 0.30285 0.99354 0.0
C2654 C 0.22807 0.30411 0.05215 0.0
C2655 C 0.21714 0.29161 0.97648 0.0
C2656 C 0.17626 0.29805 0.02434 0.0
N2657 N 0.18527 0.30345 0.05279 0.0
C2658 C 0.18816 0.28331 0.09241 0.0
C2659 C 0.19101 0.29641 0.08703 0.0
C2660 C 0.17946 0.27736 0.06177 0.0
C2661 C 0.17325 0.28495 0.02809 0.0
H2662 H 0.17173 0.30369 0.9975 0.0
H2663 H 0.19826 0.30085 0.1089 0.0
C2664 C 0.21898 0.35109 0.1529 0.0
N2665 N 0.21614 0.33911 0.13643 0.0
C2666 C 0.2274 0.35255 0.19077 0.0
C2667 C 0.22975 0.32936 0.19364 0.0
C2668 C 0.22123 0.32836 0.15627 0.0
C2669 C 0.23303 0.34158 0.21152 0.0
H2670 H 0.21489 0.35951 0.13616 0.0
H2671 H 0.21884 0.31896 0.14237 0.0
C2672 C 0.18052 0.32443 0.95167 0.0
N2673 N 0.16173 0.31615 0.89023 0.0
C2674 C 0.18396 0.31748 0.91183 0.0
C2675 C 0.16752 0.32725 0.96001 0.0
C2676 C 0.17431 0.31334 0.8813 0.0
C2677 C 0.15817 0.32297 0.92859 0.0
C2678 C 0.21645 0.35561 0.01057 0.0
C2679 C 0.21417 0.36375 0.97268 0.0
C2680 C 0.22908 0.3536 0.02607 0.0
C2681 C 0.22462 0.36968 0.95058 0.0
C2682 C 0.23927 0.35972 0.00307 0.0
N2683 N 0.23685 0.36755 0.96609 0.0
C2684 C 0.16753 0.36229 0.03045 0.0
C2685 C 0.17683 0.35803 0.95666 0.0
C2686 C 0.15888 0.37109 0.0103 0.0
N2687 N 0.17623 0.35595 0.00332 0.0
C2688 C 0.1683 0.36653 0.93511 0.0
C2689 C 0.15913 0.37317 0.96189 0.0
H2690 H 0.16721 0.36041 0.06746 0.0
H2691 H 0.18387 0.35288 0.93597 0.0
C2692 C 0.23136 0.32838 0.94891 0.0
N2693 N 0.21884 0.33221 0.94594 0.0
C2694 C 0.2393 0.32887 0.90966 0.0
C2695 C 0.2213 0.33733 0.8655 0.0
C2696 C 0.21373 0.33663 0.90545 0.0
C2697 C 0.23427 0.33343 0.8673 0.0
H2698 H 0.23523 0.32514 0.98183 0.0
H2699 H 0.20377 0.33974 0.90439 0.0
O2700 O 0.18672 0.33465 0.08781 0.0
O2701 O 0.21146 0.32018 0.04918 0.0
O2702 O 0.18988 0.32872 0.98154 0.0
O2703 O 0.20641 0.34935 0.03164 0.0
H2704 H 0.19332 0.32293 0.16606 0.0
H2705 H 0.16198 0.33012 0.07119 0.0
H2706 H 0.17863 0.30936 0.21368 0.0
H2707 H 0.14785 0.31637 0.12023 0.0
H2708 H 0.24219 0.28887 0.04945 0.0
H2709 H 0.20278 0.30657 0.97732 0.0
H2710 H 0.23253 0.3089 0.08153 0.0
H2711 H 0.21296 0.28664 0.947 0.0
H2712 H 0.19325 0.27775 0.11854 0.0
H2713 H 0.16641 0.28071 0.00402 0.0
H2714 H 0.22948 0.36217 0.2035 0.0
H2715 H 0.23398 0.3206 0.20746 0.0
H2716 H 0.19397 0.3153 0.90452 0.0
H2717 H 0.16466 0.33266 0.99046 0.0
H2718 H 0.17684 0.30793 0.85042 0.0
H2719 H 0.14808 0.32506 0.9347 0.0
H2720 H 0.20445 0.36538 0.96019 0.0
H2721 H 0.23101 0.34723 0.05509 0.0
H2722 H 0.22302 0.37595 0.92102 0.0
H2723 H 0.2491 0.35819 0.01448 0.0
H2724 H 0.15191 0.37601 0.03209 0.0
H2725 H 0.16892 0.36798 0.89784 0.0
H2726 H 0.24931 0.32595 0.91263 0.0
H2727 H 0.21702 0.34079 0.83345 0.0
Li2728 Li 0.4279 0.44359 0.79617 0.0
Li2729 Li 0.40973 0.45372 0.83707 0.0
Li2730 Li 0.4057 0.43587 0.78066 0.0
Li2731 Li 0.41178 0.45722 0.7542 0.0
C2732 C 0.4193 0.42269 0.84938 0.0
N2733 N 0.42634 0.39736 0.86555 0.0
C2734 C 0.41645 0.41686 0.892 0.0
C2735 C 0.42575 0.41565 0.815 0.0
C2736 C 0.42009 0.40404 0.89951 0.0
C2737 C 0.42922 0.40285 0.82384 0.0
C2738 C 0.42856 0.47254 0.82629 0.0
C2739 C 0.42725 0.49517 0.84565 0.0
N2740 N 0.43733 0.49372 0.87554 0.0
C2741 C 0.43905 0.47134 0.85657 0.0
C2742 C 0.42274 0.4846 0.8202 0.0
C2743 C 0.44329 0.48213 0.88139 0.0
C2744 C 0.45265 0.44199 0.75973 0.0
N2745 N 0.44584 0.43985 0.79931 0.0
C2746 C 0.46523 0.43494 0.84099 0.0
C2747 C 0.45177 0.43623 0.83947 0.0
C2748 C 0.47258 0.43738 0.80074 0.0
C2749 C 0.46604 0.44066 0.7595 0.0
H2750 H 0.44769 0.44507 0.72859 0.0
H2751 H 0.44611 0.43479 0.87066 0.0
C2752 C 0.39504 0.46916 0.90238 0.0
N2753 N 0.40602 0.46223 0.89498 0.0
C2754 C 0.39414 0.4775 0.94064 0.0
C2755 C 0.4155 0.47081 0.96421 0.0
C2756 C 0.41589 0.46245 0.92615 0.0
C2757 C 0.40468 0.47874 0.97101 0.0
H2758 H 0.3872 0.46865 0.87771 0.0
H2759 H 0.4244 0.45666 0.91993 0.0
C2760 C 0.41652 0.43794 0.68946 0.0
N2761 N 0.41065 0.43294 0.59736 0.0
C2762 C 0.40379 0.43886 0.67374 0.0
C2763 C 0.42627 0.43441 0.65833 0.0
C2764 C 0.40101 0.43631 0.62708 0.0
C2765 C 0.42311 0.43195 0.61189 0.0
C2766 C 0.38612 0.46008 0.774 0.0
C2767 C 0.37572 0.45491 0.74914 0.0
C2768 C 0.38654 0.47334 0.78277 0.0
C2769 C 0.36597 0.46313 0.73322 0.0
C2770 C 0.37661 0.48124 0.76625 0.0
N2771 N 0.36662 0.47601 0.742 0.0
C2772 C 0.38308 0.42002 0.77397 0.0
C2773 C 0.40135 0.41252 0.73237 0.0
C2774 C 0.37525 0.41079 0.75225 0.0
N2775 N 0.39579 0.42099 0.76254 0.0
C2776 C 0.39386 0.40334 0.70927 0.0
C2777 C 0.38057 0.40263 0.71821 0.0
H2778 H 0.37888 0.42685 0.79811 0.0
H2779 H 0.41148 0.41336 0.72404 0.0
C2780 C 0.42211 0.47582 0.69581 0.0
N2781 N 0.41099 0.46924 0.70407 0.0
C2782 C 0.42313 0.48396 0.65732 0.0
C2783 C 0.40117 0.47852 0.63664 0.0
C2784 C 0.4006 0.47044 0.6754 0.0
C2785 C 0.4126 0.4853 0.62697 0.0
H2786 H 0.43031 0.47451 0.71863 0.0
H2787 H 0.39201 0.46482 0.68147 0.0
O2788 O 0.41576 0.43524 0.84164 0.0
O2789 O 0.42413 0.46201 0.80231 0.0
O2790 O 0.41944 0.44038 0.73511 0.0
O2791 O 0.3958 0.45219 0.78969 0.0
H2792 H 0.41147 0.4222 0.91898 0.0
H2793 H 0.42809 0.42 0.78187 0.0
H2794 H 0.41794 0.3994 0.93233 0.0
H2795 H 0.4342 0.39729 0.79753 0.0
H2796 H 0.42277 0.50454 0.84151 0.0
H2797 H 0.44375 0.46211 0.86143 0.0
H2798 H 0.41488 0.48582 0.79588 0.0
H2799 H 0.45129 0.48129 0.90537 0.0
H2800 H 0.46982 0.43254 0.87371 0.0
H2801 H 0.47122 0.44239 0.72736 0.0
H2802 H 0.3856 0.48342 0.94497 0.0
H2803 H 0.42375 0.47136 0.98733 0.0
H2804 H 0.39611 0.44147 0.69739 0.0
H2805 H 0.43617 0.43352 0.66988 0.0
H2806 H 0.39119 0.437 0.61453 0.0
H2807 H 0.43057 0.42922 0.58743 0.0
H2808 H 0.37522 0.44469 0.74175 0.0
H2809 H 0.39444 0.47749 0.80213 0.0
H2810 H 0.35791 0.45926 0.71376 0.0
H2811 H 0.37685 0.49153 0.77273 0.0
H2812 H 0.36502 0.41049 0.7601 0.0
H2813 H 0.39833 0.39708 0.68372 0.0
H2814 H 0.43209 0.48909 0.65123 0.0
H2815 H 0.39291 0.47911 0.61364 0.0
C2816 C 0.14523 0.09691 0.8931 0.0
C2817 C 0.13211 0.10007 0.88793 0.0
H2818 H 0.16357 0.10217 0.92162 0.0
C2819 C 0.12747 0.11144 0.90891 0.0
H2820 H 0.14916 0.08828 0.87718 0.0
C2821 C 0.13578 0.11947 0.93425 0.0
C2822 C 0.14893 0.11634 0.93905 0.0
H2823 H 0.11738 0.11407 0.90617 0.0
H2824 H 0.13195 0.12825 0.94934 0.0
C2825 C 0.15353 0.10493 0.9183 0.0
C2826 C 0.13525 0.90044 0.13955 0.0
C2827 C 0.12875 0.89664 0.18042 0.0
H2828 H 0.14862 0.89527 0.08573 0.0
C2829 C 0.13084 0.88408 0.19751 0.0
H2830 H 0.13415 0.9101 0.12572 0.0
C2831 C 0.13932 0.87565 0.17482 0.0
C2832 C 0.14582 0.87951 0.13418 0.0
H2833 H 0.12586 0.88068 0.22829 0.0
H2834 H 0.14077 0.86606 0.18897 0.0
C2835 C 0.14359 0.89195 0.11657 0.0
C2836 C 0.35642 0.90463 0.41159 0.0
C2837 C 0.36729 0.8998 0.38799 0.0
H2838 H 0.34011 0.90043 0.45482 0.0
C2839 C 0.3699 0.88649 0.39014 0.0
H2840 H 0.3541 0.91483 0.41035 0.0
C2841 C 0.36189 0.87823 0.4158 0.0
C2842 C 0.35104 0.8831 0.43947 0.0
H2843 H 0.37826 0.88249 0.3727 0.0
H2844 H 0.3641 0.86801 0.41665 0.0
C2845 C 0.34837 0.89638 0.43686 0.0
C2846 C 0.37123 0.11156 0.66692 0.0
C2847 C 0.36668 0.1003 0.68884 0.0
H2848 H 0.36657 0.12823 0.62596 0.0
C2849 C 0.3535 0.09721 0.68515 0.0
H2850 H 0.38136 0.11413 0.66853 0.0
C2851 C 0.34508 0.10519 0.66031 0.0
C2852 C 0.3496 0.11647 0.63845 0.0
H2853 H 0.34965 0.08866 0.70182 0.0
H2854 H 0.335 0.10246 0.65801 0.0
C2855 C 0.36279 0.11954 0.64194 0.0
C2856 C 0.86085 0.88846 0.11047 0.0
C2857 C 0.85242 0.88026 0.13471 0.0
H2858 H 0.87565 0.90278 0.11466 0.0
C2859 C 0.85304 0.87993 0.18359 0.0
H2860 H 0.8605 0.88902 0.07285 0.0
C2861 C 0.86187 0.88766 0.20771 0.0
C2862 C 0.87025 0.896 0.18356 0.0
H2863 H 0.84678 0.87355 0.2032 0.0
H2864 H 0.86221 0.88699 0.24529 0.0
C2865 C 0.86959 0.8963 0.13457 0.0
C2866 C 0.86087 0.09606 0.92453 0.0
C2867 C 0.86884 0.1 0.88736 0.0
H2868 H 0.84676 0.10156 0.97549 0.0
C2869 C 0.86851 0.11305 0.87368 0.0
H2870 H 0.86062 0.08608 0.93564 0.0
C2871 C 0.86037 0.12184 0.89612 0.0
C2872 C 0.85248 0.11787 0.93324 0.0
H2873 H 0.87467 0.11655 0.84599 0.0
H2874 H 0.86033 0.13181 0.88472 0.0
C2875 C 0.85288 0.10492 0.94742 0.0
C2876 C 0.63712 0.11535 0.61676 0.0
C2877 C 0.64797 0.12099 0.63798 0.0
H2878 H 0.62043 0.10342 0.62499 0.0
C2879 C 0.64978 0.11924 0.68612 0.0
H2880 H 0.63551 0.11639 0.57971 0.0
C2881 C 0.64109 0.11185 0.71222 0.0
C2882 C 0.63035 0.10603 0.69088 0.0
H2883 H 0.65789 0.12368 0.70377 0.0
H2884 H 0.64276 0.11075 0.74921 0.0
C2885 C 0.62845 0.10794 0.64284 0.0
C2886 C 0.64074 0.90527 0.4247 0.0
C2887 C 0.63329 0.90142 0.38604 0.0
H2888 H 0.65445 0.89977 0.47705 0.0
C2889 C 0.6343 0.88856 0.37061 0.0
H2890 H 0.64049 0.91513 0.43713 0.0
C2891 C 0.64251 0.87983 0.39315 0.0
C2892 C 0.64978 0.88368 0.43203 0.0
H2893 H 0.62857 0.88512 0.34163 0.0
H2894 H 0.64302 0.86998 0.38057 0.0
C2895 C 0.64879 0.89648 0.44763 0.0
C2896 C 0.64513 0.62376 0.38668 0.0
C2897 C 0.64877 0.62113 0.43293 0.0
H2898 H 0.63461 0.61757 0.32654 0.0
C2899 C 0.64376 0.61005 0.45465 0.0
H2900 H 0.64863 0.63232 0.36907 0.0
C2901 C 0.63559 0.60166 0.43038 0.0
C2902 C 0.63222 0.60413 0.38374 0.0
H2903 H 0.6464 0.60768 0.4901 0.0
H2904 H 0.63191 0.59322 0.44822 0.0
C2905 C 0.63697 0.61538 0.3624 0.0
C2906 C 0.63421 0.38676 0.70056 0.0
C2907 C 0.6328 0.3996 0.68523 0.0
H2908 H 0.64355 0.36849 0.69056 0.0
C2909 C 0.64003 0.40366 0.64629 0.0
H2910 H 0.62867 0.38316 0.72974 0.0
C2911 C 0.6483 0.39512 0.62318 0.0
C2912 C 0.64977 0.38239 0.63892 0.0
H2913 H 0.6395 0.41351 0.6339 0.0
H2914 H 0.65381 0.39857 0.59365 0.0
C2915 C 0.64266 0.3783 0.67789 0.0
C2916 C 0.85569 0.40451 0.90576 0.0
C2917 C 0.86749 0.40009 0.88753 0.0
H2918 H 0.83877 0.40009 0.94538 0.0
C2919 C 0.87109 0.38718 0.89562 0.0
H2920 H 0.85254 0.41435 0.8999 0.0
C2921 C 0.8631 0.37893 0.92139 0.0
C2922 C 0.85131 0.38339 0.93972 0.0
H2923 H 0.88018 0.38348 0.88264 0.0
H2924 H 0.8661 0.36901 0.92642 0.0
C2925 C 0.84772 0.39628 0.93153 0.0
C2926 C 0.84728 0.60331 0.13938 0.0
C2927 C 0.85041 0.61647 0.13525 0.0
H2928 H 0.8525 0.58486 0.16711 0.0
C2929 C 0.86165 0.62106 0.1572 0.0
H2930 H 0.83874 0.59944 0.12273 0.0
C2931 C 0.8696 0.61267 0.18253 0.0
C2932 C 0.86651 0.59948 0.18635 0.0
H2933 H 0.86425 0.63117 0.15528 0.0
H2934 H 0.87828 0.61647 0.19843 0.0
C2935 C 0.85523 0.59493 0.16456 0.0
C2936 C 0.35598 0.37712 0.68481 0.0
C2937 C 0.35636 0.3777 0.63592 0.0
H2938 H 0.36323 0.38472 0.74927 0.0
C2939 C 0.36472 0.38652 0.61436 0.0
H2940 H 0.34951 0.37047 0.70225 0.0
C2941 C 0.3727 0.39449 0.64121 0.0
C2942 C 0.37225 0.39398 0.69011 0.0
H2943 H 0.36519 0.38715 0.57676 0.0
H2944 H 0.3791 0.4012 0.62377 0.0
C2945 C 0.36375 0.38529 0.71167 0.0
C2946 C 0.35216 0.60508 0.45152 0.0
C2947 C 0.35026 0.61757 0.43386 0.0
H2948 H 0.36147 0.58682 0.44321 0.0
C2949 C 0.35697 0.6213 0.3935 0.0
H2950 H 0.34696 0.60187 0.48212 0.0
C2951 C 0.36547 0.61276 0.37145 0.0
C2952 C 0.36737 0.6002 0.38892 0.0
H2953 H 0.35578 0.63091 0.37931 0.0
H2954 H 0.37071 0.6161 0.34116 0.0
C2955 C 0.36052 0.59647 0.42914 0.0
C2956 C 0.13462 0.61331 0.20326 0.0
C2957 C 0.12902 0.60231 0.18295 0.0
H2958 H 0.14662 0.62991 0.19377 0.0
C2959 C 0.13101 0.60006 0.13516 0.0
H2960 H 0.13341 0.61527 0.24002 0.0
C2961 C 0.13857 0.60848 0.10853 0.0
C2962 C 0.14429 0.6194 0.12896 0.0
H2963 H 0.12662 0.59182 0.11814 0.0
H2964 H 0.13984 0.60648 0.07183 0.0
C2965 C 0.14217 0.62173 0.17664 0.0
C2966 C 0.13489 0.38688 0.87594 0.0
C2967 C 0.13293 0.39945 0.89317 0.0
H2968 H 0.14459 0.36875 0.8843 0.0
C2969 C 0.13963 0.4032 0.93373 0.0
H2970 H 0.12976 0.38351 0.84546 0.0
C2971 C 0.14792 0.39461 0.95654 0.0
C2972 C 0.14991 0.38213 0.93897 0.0
H2973 H 0.13862 0.41286 0.94768 0.0
H2974 H 0.15301 0.39784 0.98736 0.0
C2975 C 0.14332 0.37837 0.8984 0.0
C2976 C 0.24326 0.17811 0.80026 0.0
C2977 C 0.23948 0.16661 0.8223 0.0
H2978 H 0.254 0.18674 0.74467 0.0
C2979 C 0.24381 0.15474 0.80453 0.0
H2980 H 0.23998 0.18738 0.81314 0.0
C2981 C 0.25185 0.15438 0.76557 0.0
C2982 C 0.25558 0.16587 0.74339 0.0
H2983 H 0.2411 0.14575 0.82113 0.0
H2984 H 0.25506 0.14511 0.7525 0.0
C2985 C 0.25117 0.17774 0.76096 0.0
C2986 C 0.09575 0.99488 0.05122 0.0
C2987 C 0.08458 0.99309 0.07822 0.0
H2988 H 0.10414 0.00369 0.99102 0.0
C2989 C 0.07305 0.99912 0.06443 0.0
H2990 H 0.10481 0.99044 0.06119 0.0
C2991 C 0.07268 0.00677 0.02442 0.0
C2992 C 0.08386 0.00858 0.99747 0.0
H2993 H 0.06425 0.99782 0.08426 0.0
H2994 H 0.06368 0.01138 0.01489 0.0
C2995 C 0.0954 0.00256 0.01131 0.0
C2996 C 0.24963 0.82491 0.25966 0.0
C2997 C 0.24329 0.83635 0.24673 0.0
H2998 H 0.26222 0.81559 0.30813 0.0
C2999 C 0.24479 0.84741 0.2746 0.0
H3000 H 0.24855 0.81618 0.23925 0.0
C3001 C 0.2525 0.84702 0.31447 0.0
C3002 C 0.25886 0.83557 0.32733 0.0
H3003 H 0.24012 0.8564 0.26535 0.0
H3004 H 0.25339 0.85566 0.33545 0.0
C3005 C 0.25734 0.82452 0.29948 0.0
C3006 C 0.40666 0.00203 0.56001 0.0
C3007 C 0.41775 0.00913 0.57174 0.0
H3008 H 0.39788 0.98868 0.51287 0.0
C3009 C 0.42882 0.00797 0.54372 0.0
H3010 H 0.39802 0.00261 0.58116 0.0
C3011 C 0.42879 0.99986 0.50491 0.0
C3012 C 0.4177 0.99273 0.49328 0.0
H3013 H 0.43748 0.01342 0.55154 0.0
H3014 H 0.43752 0.99905 0.48434 0.0
C3015 C 0.40663 0.99393 0.5212 0.0
C3016 C 0.75108 0.84337 0.25964 0.0
C3017 C 0.75976 0.83316 0.2518 0.0
H3018 H 0.73674 0.85152 0.30435 0.0
C3019 C 0.76057 0.82317 0.28479 0.0
H3020 H 0.75015 0.85116 0.23475 0.0
C3021 C 0.75276 0.82329 0.32443 0.0
C3022 C 0.74397 0.83341 0.33194 0.0
H3023 H 0.76728 0.81525 0.2801 0.0
H3024 H 0.75344 0.81533 0.34874 0.0
C3025 C 0.74329 0.8435 0.29927 0.0
C3026 C 0.90668 0.00149 0.00842 0.0
C3027 C 0.9185 0.0057 0.98994 0.0
H3028 H 0.89714 0.99065 0.06179 0.0
C3029 C 0.93006 0.00192 0.01161 0.0
H3030 H 0.89764 0.00422 0.99214 0.0
C3031 C 0.92977 0.99426 0.05164 0.0
C3032 C 0.91793 0.99009 0.07019 0.0
H3033 H 0.93929 0.00512 0.99816 0.0
H3034 H 0.93879 0.99153 0.06795 0.0
C3035 C 0.9064 0.99369 0.048 0.0
C3036 C 0.74893 0.1767 0.81826 0.0
C3037 C 0.75883 0.16756 0.82432 0.0
H3038 H 0.73346 0.18345 0.77542 0.0
C3039 C 0.76062 0.15802 0.79009 0.0
H3040 H 0.74736 0.18424 0.84374 0.0
C3041 C 0.75281 0.15771 0.75051 0.0
C3042 C 0.74297 0.16689 0.7443 0.0
H3043 H 0.76804 0.15073 0.79396 0.0
H3044 H 0.75461 0.15036 0.7245 0.0
C3045 C 0.74108 0.17635 0.77875 0.0
C3046 C 0.57423 0.00743 0.5578 0.0
C3047 C 0.58591 0.00843 0.58243 0.0
H3048 H 0.56439 0.99926 0.49914 0.0
C3049 C 0.59681 0.00174 0.56626 0.0
H3050 H 0.56572 0.0126 0.56933 0.0
C3051 C 0.59604 0.99411 0.52633 0.0
C3052 C 0.58439 0.99315 0.50154 0.0
H3053 H 0.60591 0.00234 0.58474 0.0
H3054 H 0.6046 0.98906 0.51452 0.0
C3055 C 0.5735 0.99991 0.51751 0.0
C3056 C 0.7426 0.6591 0.29609 0.0
C3057 C 0.74236 0.66997 0.32535 0.0
H3058 H 0.75053 0.65029 0.23517 0.0
C3059 C 0.75044 0.68049 0.31498 0.0
H3060 H 0.73663 0.65076 0.30342 0.0
C3061 C 0.75857 0.68014 0.27623 0.0
C3062 C 0.7588 0.66927 0.24693 0.0
H3063 H 0.7504 0.68907 0.33655 0.0
H3064 H 0.76479 0.68834 0.26956 0.0
C3065 C 0.7507 0.65876 0.25729 0.0
C3066 C 0.57827 0.51233 0.53548 0.0
C3067 C 0.58779 0.51088 0.50099 0.0
H3068 H 0.57092 0.50586 0.60105 0.0
C3069 C 0.5976 0.50169 0.50753 0.0
H3070 H 0.57067 0.51943 0.5317 0.0
C3071 C 0.59784 0.49403 0.54748 0.0
C3072 C 0.58826 0.4954 0.58177 0.0
H3073 H 0.60501 0.50026 0.48142 0.0
H3074 H 0.60555 0.48706 0.55157 0.0
C3075 C 0.57851 0.50467 0.57547 0.0
C3076 C 0.75074 0.32095 0.76309 0.0
C3077 C 0.74324 0.33186 0.75232 0.0
H3078 H 0.76462 0.31247 0.80902 0.0
C3079 C 0.74406 0.3428 0.78109 0.0
H3080 H 0.75023 0.31233 0.74181 0.0
C3081 C 0.7522 0.34284 0.81979 0.0
C3082 C 0.7597 0.33193 0.8306 0.0
H3083 H 0.73851 0.3514 0.77341 0.0
H3084 H 0.75254 0.35138 0.84152 0.0
C3085 C 0.75887 0.32098 0.80187 0.0
C3086 C 0.90666 0.50399 0.05402 0.0
C3087 C 0.91827 0.50788 0.07509 0.0
H3088 H 0.89772 0.4931 0.99952 0.0
C3089 C 0.93004 0.50353 0.05649 0.0
H3090 H 0.89744 0.50711 0.06788 0.0
C3091 C 0.9302 0.49551 0.01744 0.0
C3092 C 0.91858 0.49158 0.9965 0.0
H3093 H 0.93913 0.50646 0.07183 0.0
H3094 H 0.9394 0.49225 0.00396 0.0
C3095 C 0.90681 0.49589 0.01521 0.0
C3096 C 0.25847 0.32472 0.77348 0.0
C3097 C 0.25784 0.33559 0.74423 0.0
H3098 H 0.2515 0.31552 0.83529 0.0
C3099 C 0.24948 0.34576 0.75594 0.0
H3100 H 0.26494 0.3168 0.76566 0.0
C3101 C 0.24187 0.34507 0.79595 0.0
C3102 C 0.24249 0.33421 0.82518 0.0
H3103 H 0.24873 0.35422 0.73392 0.0
H3104 H 0.23558 0.35311 0.80423 0.0
C3105 C 0.25089 0.32406 0.81362 0.0
C3106 C 0.42565 0.50038 0.51642 0.0
C3107 C 0.41551 0.50866 0.50367 0.0
H3108 H 0.43266 0.48649 0.56546 0.0
C3109 C 0.40441 0.50921 0.53171 0.0
H3110 H 0.43436 0.49983 0.49563 0.0
C3111 C 0.40346 0.50163 0.57174 0.0
C3112 C 0.41363 0.49342 0.58469 0.0
H3113 H 0.39639 0.51541 0.52245 0.0
H3114 H 0.39482 0.50231 0.59283 0.0
C3115 C 0.42474 0.49286 0.55663 0.0
C3116 C 0.24996 0.67587 0.305 0.0
C3117 C 0.25798 0.66555 0.31799 0.0
H3118 H 0.23616 0.68309 0.25594 0.0
C3119 C 0.2582 0.65435 0.29039 0.0
H3120 H 0.24967 0.68464 0.3255 0.0
C3121 C 0.25049 0.65347 0.25065 0.0
C3122 C 0.24251 0.6638 0.23753 0.0
H3123 H 0.26422 0.64621 0.29984 0.0
H3124 H 0.25086 0.64473 0.22997 0.0
C3125 C 0.24234 0.67503 0.265 0.0
C3126 C 0.09238 0.49928 0.07111 0.0
C3127 C 0.08291 0.50885 0.07735 0.0
H3128 H 0.09983 0.48432 0.02753 0.0
C3129 C 0.07344 0.51052 0.04279 0.0
H3130 H 0.09974 0.49766 0.09721 0.0
C3131 C 0.07337 0.50272 0.00314 0.0
C3132 C 0.08278 0.49309 0.99709 0.0
H3133 H 0.06612 0.51793 0.04617 0.0
H3134 H 0.06581 0.50411 0.97758 0.0
C3135 C 0.09233 0.49152 0.0314 0.0
C3136 C 0.17875 0.24272 0.02031 0.0
C3137 C 0.17679 0.23581 0.06193 0.0
H3138 H 0.18104 0.26116 0.98783 0.0
C3139 C 0.17512 0.24282 0.10352 0.0
H3140 H 0.18046 0.23776 0.98774 0.0
C3141 C 0.17575 0.25633 0.10358 0.0
C3142 C 0.17784 0.26313 0.06196 0.0
H3143 H 0.17341 0.23789 0.13616 0.0
H3144 H 0.17465 0.26148 0.13616 0.0
C3145 C 0.17917 0.25619 0.0203 0.0
C3146 C 0.00718 0.94542 0.34613 0.0
C3147 C 0.01385 0.9352 0.325 0.0
H3148 H 0.98889 0.95366 0.36323 0.0
C3149 C 0.00685 0.92466 0.30741 0.0
H3150 H 0.01239 0.95357 0.36052 0.0
C3151 C 0.9933 0.92478 0.30823 0.0
C3152 C 0.9866 0.93541 0.32698 0.0
H3153 H 0.01181 0.91669 0.29082 0.0
H3154 H 0.98811 0.91689 0.29208 0.0
C3155 C 0.99373 0.94549 0.34741 0.0
C3156 C 0.32321 0.75658 0.60428 0.0
C3157 C 0.32225 0.76366 0.56254 0.0
H3158 H 0.32332 0.73787 0.63651 0.0
C3159 C 0.32119 0.75681 0.52037 0.0
H3160 H 0.32422 0.76147 0.63737 0.0
C3161 C 0.32093 0.74334 0.51993 0.0
C3162 C 0.32154 0.73632 0.56165 0.0
H3163 H 0.32008 0.76183 0.48757 0.0
H3164 H 0.31972 0.73842 0.48694 0.0
C3165 C 0.32277 0.74306 0.60385 0.0
C3166 C 0.49386 0.08029 0.80223 0.0
C3167 C 0.4864 0.06997 0.8193 0.0
H3168 H 0.51285 0.08727 0.78586 0.0
C3169 C 0.49272 0.05882 0.83535 0.0
H3170 H 0.48926 0.08902 0.78977 0.0
C3171 C 0.50614 0.05781 0.83292 0.0
C3172 C 0.51358 0.06795 0.81465 0.0
H3173 H 0.48725 0.05064 0.84811 0.0
H3174 H 0.5107 0.04898 0.84474 0.0
C3175 C 0.50735 0.07932 0.80024 0.0
C3176 C 0.19766 0.7566 0.03401 0.0
C3177 C 0.18667 0.76363 0.02054 0.0
H3178 H 0.20627 0.73809 0.04421 0.0
C3179 C 0.17568 0.75683 0.00544 0.0
H3180 H 0.20642 0.76152 0.0446 0.0
C3181 C 0.1756 0.74328 0.00521 0.0
C3182 C 0.1865 0.7363 0.02008 0.0
H3183 H 0.16705 0.76197 0.99492 0.0
H3184 H 0.16691 0.73828 0.99451 0.0
C3185 C 0.19758 0.74315 0.0338 0.0
C3186 C 0.49344 0.93288 0.30679 0.0
C3187 C 0.48636 0.92902 0.2673 0.0
H3188 H 0.51202 0.93621 0.337 0.0
C3189 C 0.49322 0.92532 0.22708 0.0
H3190 H 0.48863 0.93623 0.33797 0.0
C3191 C 0.50675 0.92567 0.2263 0.0
C3192 C 0.51369 0.92947 0.26599 0.0
H3193 H 0.48817 0.92216 0.19614 0.0
H3194 H 0.5118 0.92293 0.1948 0.0
C3195 C 0.5069 0.93297 0.30626 0.0
C3196 C 0.32576 0.24217 0.49473 0.0
C3197 C 0.31784 0.23483 0.52426 0.0
H3198 H 0.33157 0.26111 0.47303 0.0
C3199 C 0.30909 0.24122 0.55363 0.0
H3200 H 0.33258 0.23747 0.47171 0.0
C3201 C 0.30836 0.25466 0.55396 0.0
C3202 C 0.31645 0.26211 0.52525 0.0
H3203 H 0.30263 0.2358 0.57592 0.0
H3204 H 0.30127 0.25918 0.57636 0.0
C3205 C 0.32513 0.2557 0.49541 0.0
C3206 C 0.99354 0.06141 0.72088 0.0
C3207 C 0.98646 0.07132 0.74254 0.0
H3208 H 0.01214 0.05345 0.70617 0.0
C3209 C 0.99322 0.08161 0.76325 0.0
H3210 H 0.98867 0.05321 0.70539 0.0
C3211 C 0.00673 0.08173 0.76377 0.0
C3212 C 0.01379 0.07158 0.74356 0.0
H3213 H 0.98806 0.08947 0.77973 0.0
H3214 H 0.01165 0.08968 0.78065 0.0
C3215 C 0.00703 0.06154 0.72135 0.0
C3216 C 0.82692 0.74313 0.96975 0.0
C3217 C 0.82444 0.73628 0.0111 0.0
H3218 H 0.82852 0.76168 0.93688 0.0
C3219 C 0.82205 0.74331 0.05211 0.0
H3220 H 0.82894 0.73806 0.93762 0.0
C3221 C 0.82194 0.75678 0.05172 0.0
C3222 C 0.82412 0.76362 0.01027 0.0
H3223 H 0.81976 0.73842 0.08439 0.0
H3224 H 0.81962 0.76182 0.08367 0.0
C3225 C 0.82672 0.75666 0.96931 0.0
C3226 C 0.68586 0.24293 0.55372 0.0
C3227 C 0.68064 0.2364 0.51532 0.0
H3228 H 0.69059 0.26099 0.58471 0.0
C3229 C 0.67553 0.24363 0.47825 0.0
H3230 H 0.69016 0.23761 0.58228 0.0
C3231 C 0.67553 0.25717 0.47995 0.0
C3232 C 0.68079 0.26372 0.51851 0.0
H3233 H 0.67146 0.23881 0.44818 0.0
H3234 H 0.67134 0.26248 0.45121 0.0
C3235 C 0.68604 0.25638 0.55515 0.0
C3236 C 0.83367 0.25715 0.06554 0.0
C3237 C 0.82275 0.26429 0.07899 0.0
H3238 H 0.84184 0.23843 0.05406 0.0
C3239 C 0.81152 0.25765 0.09225 0.0
H3240 H 0.84248 0.26202 0.05539 0.0
C3241 C 0.81106 0.24418 0.09075 0.0
C3242 C 0.82187 0.23697 0.07642 0.0
H3243 H 0.80287 0.26289 0.10189 0.0
H3244 H 0.80201 0.23949 0.09909 0.0
C3245 C 0.83326 0.24363 0.06456 0.0
C3246 C 0.68885 0.744 0.59641 0.0
C3247 C 0.67877 0.73723 0.57478 0.0
H3248 H 0.69735 0.76233 0.61079 0.0
C3249 C 0.66854 0.74418 0.55485 0.0
H3250 H 0.69696 0.73886 0.61137 0.0
C3251 C 0.66857 0.75769 0.55532 0.0
C3252 C 0.679 0.76455 0.57486 0.0
H3253 H 0.66062 0.73915 0.53814 0.0
H3254 H 0.66054 0.76273 0.53948 0.0
C3255 C 0.68902 0.75749 0.59617 0.0
C3256 C 0.5073 0.4278 0.82879 0.0
C3257 C 0.51429 0.43661 0.80145 0.0
H3258 H 0.48863 0.42086 0.84921 0.0
C3259 C 0.50752 0.44582 0.77521 0.0
H3260 H 0.51231 0.42059 0.84932 0.0
C3261 C 0.49407 0.44612 0.77559 0.0
C3262 C 0.48697 0.43711 0.80182 0.0
H3263 H 0.51266 0.45293 0.75464 0.0
H3264 H 0.48924 0.45354 0.75555 0.0
C3265 C 0.49376 0.428 0.82879 0.0
C3266 C 0.9922 0.57649 0.348 0.0
C3267 C 0.98534 0.57237 0.30838 0.0
H3268 H 0.01076 0.57948 0.37953 0.0
C3269 C 0.99237 0.56825 0.26919 0.0
H3270 H 0.98712 0.57982 0.37868 0.0
C3271 C 0.00584 0.56823 0.26953 0.0
C3272 C 0.01268 0.57218 0.30922 0.0
H3273 H 0.98749 0.56464 0.23851 0.0
H3274 H 0.01089 0.56468 0.2391 0.0
C3275 C 0.00573 0.57634 0.34848 0.0
C3276 C 0.9935 0.42745 0.80116 0.0
C3277 C 0.98662 0.42653 0.75901 0.0
H3278 H 0.01193 0.4288 0.83445 0.0
C3279 C 0.99367 0.42564 0.71719 0.0
H3280 H 0.98852 0.42851 0.83404 0.0
C3281 C 0.00719 0.42607 0.71751 0.0
C3282 C 0.01396 0.42719 0.75967 0.0
H3283 H 0.98876 0.42473 0.6841 0.0
H3284 H 0.01236 0.42561 0.68477 0.0
C3285 C 0.00698 0.42769 0.80148 0.0
C3286 C 0.49451 0.5804 0.28283 0.0
C3287 C 0.48756 0.57092 0.25822 0.0
H3288 H 0.5131 0.58774 0.30239 0.0
C3289 C 0.49449 0.56183 0.2317 0.0
H3290 H 0.48951 0.58769 0.303 0.0
C3291 C 0.50798 0.56198 0.23094 0.0
C3292 C 0.5149 0.57114 0.25697 0.0
H3293 H 0.48955 0.55422 0.21303 0.0
H3294 H 0.513 0.55454 0.21159 0.0
C3295 C 0.50802 0.58047 0.28239 0.0
C3296 C 0.24686 0.16847 0.26144 0.0
C3297 C 0.24113 0.15699 0.24528 0.0
H3298 H 0.26003 0.1773 0.30889 0.0
C3299 C 0.24515 0.1452 0.26491 0.0
H3300 H 0.24424 0.17772 0.2467 0.0
C3301 C 0.25457 0.14493 0.2999 0.0
C3302 C 0.26015 0.15644 0.3165 0.0
H3303 H 0.24092 0.13616 0.25374 0.0
H3304 H 0.25747 0.13566 0.31385 0.0
C3305 C 0.25616 0.1682 0.29667 0.0
C3306 C 0.08602 0.99171 0.52892 0.0
C3307 C 0.09748 0.9898 0.50354 0.0
H3308 H 0.07641 0.00203 0.58308 0.0
C3309 C 0.10828 0.99749 0.51431 0.0
H3310 H 0.07742 0.98617 0.52117 0.0
C3311 C 0.10759 0.0069 0.54926 0.0
C3312 C 0.09609 0.00884 0.57443 0.0
H3313 H 0.11729 0.99624 0.49578 0.0
H3314 H 0.11603 0.01278 0.55602 0.0
C3315 C 0.08537 0.00103 0.56398 0.0
C3316 C 0.24279 0.83478 0.79599 0.0
C3317 C 0.24061 0.84624 0.82107 0.0
H3318 H 0.25326 0.8253 0.74196 0.0
C3319 C 0.24809 0.85718 0.81002 0.0
H3320 H 0.23744 0.82607 0.8039 0.0
C3321 C 0.25755 0.85661 0.77525 0.0
C3322 C 0.25972 0.84512 0.75024 0.0
H3323 H 0.24664 0.86622 0.82816 0.0
H3324 H 0.26326 0.86515 0.76847 0.0
C3325 C 0.25211 0.83426 0.76091 0.0
C3326 C 0.41881 0.00279 0.01115 0.0
C3327 C 0.40716 0.00837 0.99591 0.0
H3328 H 0.42816 0.98989 0.0582 0.0
C3329 C 0.39558 0.00424 0.01683 0.0
H3330 H 0.42794 0.00543 0.99544 0.0
C3331 C 0.39567 0.99486 0.05193 0.0
C3332 C 0.40735 0.98945 0.06771 0.0
H3333 H 0.3864 0.00835 0.00658 0.0
H3334 H 0.38652 0.99185 0.06656 0.0
C3335 C 0.41892 0.99358 0.04673 0.0
C3336 C 0.74635 0.83652 0.8309 0.0
C3337 C 0.75733 0.84446 0.82915 0.0
H3338 H 0.72891 0.83048 0.79774 0.0
C3339 C 0.75872 0.85308 0.7917 0.0
H3340 H 0.74487 0.82997 0.85983 0.0
C3341 C 0.74961 0.85327 0.75559 0.0
C3342 C 0.73887 0.84493 0.75644 0.0
H3343 H 0.76711 0.85929 0.78941 0.0
H3344 H 0.75126 0.8596 0.72618 0.0
C3345 C 0.73721 0.83679 0.7952 0.0
C3346 C 0.90504 0.01239 0.52252 0.0
C3347 C 0.90148 0.009 0.5681 0.0
H3348 H 0.90705 0.00631 0.4517 0.0
C3349 C 0.89648 0.99658 0.57635 0.0
H3350 H 0.90885 0.02191 0.51502 0.0
C3351 C 0.89547 0.98761 0.54003 0.0
C3352 C 0.89926 0.99094 0.4946 0.0
H3353 H 0.89376 0.99365 0.61118 0.0
H3354 H 0.89184 0.97803 0.54754 0.0
C3355 C 0.90389 0.00349 0.48618 0.0
C3356 C 0.75089 0.14693 0.24835 0.0
C3357 C 0.76126 0.15573 0.24914 0.0
H3358 H 0.73361 0.14024 0.28205 0.0
C3359 C 0.76247 0.16406 0.28757 0.0
H3360 H 0.74959 0.14043 0.21919 0.0
C3361 C 0.75326 0.16404 0.32304 0.0
C3362 C 0.74264 0.15562 0.32139 0.0
H3363 H 0.77049 0.17073 0.29007 0.0
H3364 H 0.75442 0.17072 0.35178 0.0
C3365 C 0.7417 0.14684 0.28424 0.0
C3366 C 0.60493 0.00164 0.07155 0.0
C3367 C 0.59388 0.99376 0.07579 0.0
H3368 H 0.61434 0.01693 0.03388 0.0
C3369 C 0.58388 0.99529 0.04299 0.0
H3370 H 0.61278 0.00091 0.09628 0.0
C3371 C 0.58466 0.00471 0.00833 0.0
C3372 C 0.59557 0.01265 0.00475 0.0
H3373 H 0.57538 0.98921 0.04392 0.0
H3374 H 0.57674 0.00572 0.98395 0.0
C3375 C 0.60581 0.0109 0.03608 0.0
C3376 C 0.75352 0.66914 0.81106 0.0
C3377 C 0.75995 0.65768 0.82356 0.0
H3378 H 0.73993 0.67833 0.76614 0.0
C3379 C 0.75675 0.64624 0.79975 0.0
H3380 H 0.75547 0.67811 0.82904 0.0
C3381 C 0.74745 0.64628 0.76438 0.0
C3382 C 0.74115 0.65779 0.75147 0.0
H3383 H 0.76155 0.63723 0.80797 0.0
H3384 H 0.74517 0.63725 0.7473 0.0
C3385 C 0.74435 0.66921 0.77538 0.0
C3386 C 0.58576 0.50944 0.04591 0.0
C3387 C 0.59652 0.5103 0.07556 0.0
H3388 H 0.57691 0.49994 0.98811 0.0
C3389 C 0.60688 0.50171 0.06867 0.0
H3390 H 0.57753 0.51576 0.05058 0.0
C3391 C 0.60645 0.49247 0.03307 0.0
C3392 C 0.59562 0.49156 0.00374 0.0
H3393 H 0.61535 0.50216 0.0907 0.0
H3394 H 0.61453 0.48593 0.02899 0.0
C3395 C 0.58532 0.50022 0.01049 0.0
C3396 C 0.74541 0.33166 0.30311 0.0
C3397 C 0.74197 0.34312 0.32628 0.0
H3398 H 0.75668 0.32273 0.2499 0.0
C3399 C 0.74797 0.35471 0.31245 0.0
H3400 H 0.74121 0.32249 0.31307 0.0
C3401 C 0.75722 0.35479 0.27689 0.0
C3402 C 0.76067 0.34329 0.25385 0.0
H3403 H 0.7455 0.36378 0.32894 0.0
H3404 H 0.76178 0.36386 0.26793 0.0
C3405 C 0.75453 0.33176 0.26728 0.0
C3406 C 0.89611 0.49376 0.55229 0.0
C3407 C 0.9077 0.49058 0.57515 0.0
H3408 H 0.88675 0.50536 0.50078 0.0
C3409 C 0.91906 0.49706 0.56173 0.0
H3410 H 0.88717 0.48895 0.56115 0.0
C3411 C 0.91889 0.50622 0.52603 0.0
C3412 C 0.90732 0.5094 0.50306 0.0
H3413 H 0.92815 0.49515 0.57897 0.0
H3414 H 0.92795 0.51063 0.51603 0.0
C3415 C 0.8959 0.50309 0.517 0.0
C3416 C 0.25135 0.35302 0.2529 0.0
C3417 C 0.24249 0.3427 0.25067 0.0
H3418 H 0.26754 0.36146 0.28861 0.0
C3419 C 0.24309 0.3331 0.2853 0.0
H3420 H 0.25133 0.36053 0.2267 0.0
C3421 C 0.25255 0.33351 0.3199 0.0
C3422 C 0.26154 0.34364 0.32144 0.0
H3423 H 0.23625 0.3252 0.28579 0.0
H3424 H 0.2528 0.32589 0.34576 0.0
C3425 C 0.26071 0.35353 0.28815 0.0
C3426 C 0.41533 0.49752 0.00955 0.0
C3427 C 0.40491 0.48888 0.00748 0.0
H3428 H 0.42404 0.51352 0.04414 0.0
C3429 C 0.39492 0.49002 0.04026 0.0
H3430 H 0.42302 0.49703 0.98405 0.0
C3431 C 0.39562 0.49933 0.07565 0.0
C3432 C 0.40622 0.50783 0.07847 0.0
H3433 H 0.38677 0.48347 0.03931 0.0
H3434 H 0.38802 0.49959 0.1015 0.0
C3435 C 0.41592 0.50694 0.04423 0.0
C3436 C 0.23404 0.65931 0.76689 0.0
C3437 C 0.23695 0.65321 0.80944 0.0
H3438 H 0.24079 0.66502 0.69947 0.0
C3439 C 0.24916 0.64734 0.81448 0.0
H3440 H 0.22468 0.66365 0.76099 0.0
C3441 C 0.25829 0.64788 0.77854 0.0
C3442 C 0.25551 0.65449 0.7371 0.0
H3443 H 0.25188 0.64271 0.84679 0.0
H3444 H 0.26771 0.64358 0.78386 0.0
C3445 C 0.24324 0.66004 0.73141 0.0
C3446 C 0.10227 0.50969 0.53733 0.0
C3447 C 0.09349 0.50865 0.50021 0.0
H3448 H 0.10886 0.50182 0.60215 0.0
C3449 C 0.08524 0.4979 0.49845 0.0
H3450 H 0.10873 0.51789 0.53963 0.0
C3451 C 0.08541 0.48864 0.53375 0.0
C3452 C 0.09375 0.48992 0.5721 0.0
H3453 H 0.07857 0.49667 0.46974 0.0
H3454 H 0.07887 0.48051 0.53115 0.0
C3455 C 0.10237 0.50045 0.57303 0.0
loop_
_geom_bond_atom_site_label_1
_geom_bond_atom_site_label_2
_geom_bond_distance
_geom_bond_site_symmetry_2
_ccdc_geom_bond_type
Li0 N17 1.990 . S
Li0 O60 1.956 . S
Li0 O61 1.970 . S
Li0 O62 1.961 . S
Li1 N25 1.990 . S
Li1 O60 1.970 . S
Li1 O61 1.956 . S
Li1 O63 1.961 1_554 S
Li2 N47 1.990 . S
Li2 O60 1.961 1_556 S
Li2 O62 1.956 1_556 S
Li2 O63 1.970 . S
Li3 N53 1.990 . S
Li3 O61 1.961 . S
Li3 O62 1.970 . S
Li3 O63 1.956 1_554 S
C4 C6 1.348 . S
C4 C7 1.356 . S
C4 O60 1.325 . S
N5 C8 1.314 . S
N5 C9 1.279 . S
C6 C4 1.348 . S
C6 C8 1.353 . S
C6 H64 0.929 . S
C7 C4 1.356 . S
C7 C9 1.358 . S
C7 H65 0.930 . S
C8 N5 1.314 . S
C8 C6 1.353 . S
C8 H66 0.930 . S
C9 N5 1.279 . S
C9 C7 1.358 . S
C9 H67 0.930 . S
C10 C13 1.348 . S
C10 C14 1.356 . S
C10 O61 1.325 . S
C11 N12 1.279 . S
C11 C14 1.358 . S
C11 H68 0.930 . S
N12 C11 1.279 . S
N12 C15 1.314 . S
C13 C10 1.348 . S
C13 C15 1.353 . S
C13 H69 0.929 . S
C14 C10 1.356 . S
C14 C11 1.358 . S
C14 H70 0.930 . S
C15 N12 1.314 . S
C15 C13 1.353 . S
C15 H71 0.930 . S
C16 N17 1.314 . S
C16 C21 1.353 . S
C16 H22 0.930 . S
N17 Li0 1.990 . S
N17 C16 1.314 . S
N17 C19 1.279 . S
C18 C19 1.358 . S
C18 C20 1.356 . S
C18 H72 0.930 . S
C19 N17 1.279 . S
C19 C18 1.358 . S
C19 H23 0.930 . S
C20 C18 1.356 . S
C20 C21 1.348 . S
C21 C16 1.353 . S
C21 C20 1.348 . S
C21 H73 0.929 . S
H22 C16 0.930 . S
H23 C19 0.930 . S
C24 N25 1.314 1_556 S
C24 C26 1.353 . S
C24 H30 0.930 . S
N25 Li1 1.990 . S
N25 C24 1.314 1_554 S
N25 C28 1.279 . S
C26 C24 1.353 . S
C26 C29 1.348 . S
C26 H74 0.929 . S
C27 C28 1.358 . S
C27 C29 1.356 1_554 S
C27 H75 0.930 . S
C28 N25 1.279 . S
C28 C27 1.358 . S
C28 H31 0.930 . S
C29 C26 1.348 . S
C29 C27 1.356 1_556 S
H30 C24 0.930 . S
H31 C28 0.930 . S
C32 C34 1.348 . S
C32 C35 1.356 . S
C32 O62 1.325 . S
N33 C36 1.314 . S
N33 C37 1.279 . S
C34 C32 1.348 . S
C34 C36 1.353 . S
C34 H76 0.929 . S
C35 C32 1.356 . S
C35 C37 1.358 . S
C35 H77 0.930 . S
C36 N33 1.314 . S
C36 C34 1.353 . S
C36 H78 0.930 . S
C37 N33 1.279 . S
C37 C35 1.358 . S
C37 H79 0.930 . S
C38 C39 1.348 . S
C38 C40 1.356 . S
C38 O63 1.325 . S
C39 C38 1.348 . S
C39 C41 1.353 . S
C39 H80 0.929 . S
C40 C38 1.356 . S
C40 C42 1.358 . S
C40 H81 0.930 . S
C41 C39 1.353 . S
C41 N43 1.314 . S
C41 H82 0.930 . S
C42 C40 1.358 . S
C42 N43 1.279 . S
C42 H83 0.930 . S
N43 C41 1.314 . S
N43 C42 1.279 . S
C44 C46 1.353 . S
C44 N47 1.314 . S
C44 H50 0.930 . S
C45 N47 1.279 . S
C45 C48 1.358 . S
C45 H51 0.930 . S
C46 C44 1.353 . S
C46 C49 1.348 . S
C46 H84 0.929 . S
N47 Li2 1.990 . S
N47 C44 1.314 . S
N47 C45 1.279 . S
C48 C45 1.358 . S
C48 C49 1.356 . S
C48 H85 0.930 . S
C49 C46 1.348 . S
C49 C48 1.356 . S
H50 C44 0.930 . S
H51 C45 0.930 . S
C52 N53 1.314 . S
C52 C54 1.353 . S
C52 H58 0.930 . S
N53 Li3 1.990 . S
N53 C52 1.314 . S
N53 C56 1.279 1_554 S
C54 C52 1.353 . S
C54 C57 1.348 . S
C54 H86 0.929 . S
C55 C56 1.358 . S
C55 C57 1.356 1_556 S
C55 H87 0.930 . S
C56 N53 1.279 1_556 S
C56 C55 1.358 . S
C56 H59 0.930 . S
C57 C54 1.348 . S
C57 C55 1.356 1_554 S
H58 C52 0.930 . S
H59 C56 0.930 . S
O60 Li0 1.956 . S
O60 Li1 1.970 . S
O60 Li2 1.961 1_554 S
O60 C4 1.325 . S
O61 Li0 1.970 . S
O61 Li1 1.956 . S
O61 Li3 1.961 . S
O61 C10 1.325 . S
O62 Li0 1.961 . S
O62 Li2 1.956 1_554 S
O62 Li3 1.970 . S
O62 C32 1.325 . S
O63 Li1 1.961 1_556 S
O63 Li2 1.970 . S
O63 Li3 1.956 1_556 S
O63 C38 1.325 . S
H64 C6 0.929 . S
H65 C7 0.930 . S
H66 C8 0.930 . S
H67 C9 0.930 . S
H68 C11 0.930 . S
H69 C13 0.929 . S
H70 C14 0.930 . S
H71 C15 0.930 . S
H72 C18 0.930 . S
H73 C21 0.929 . S
H74 C26 0.929 . S
H75 C27 0.930 . S
H76 C34 0.929 . S
H77 C35 0.930 . S
H78 C36 0.930 . S
H79 C37 0.930 . S
H80 C39 0.929 . S
H81 C40 0.930 . S
H82 C41 0.930 . S
H83 C42 0.930 . S
H84 C46 0.929 . S
H85 C48 0.930 . S
H86 C54 0.929 . S
H87 C55 0.930 . S
Li88 N105 1.990 . S
Li88 O148 1.956 . S
Li88 O149 1.970 . S
Li88 O150 1.961 . S
Li89 N113 1.990 . S
Li89 O148 1.970 . S
Li89 O149 1.956 . S
Li89 O151 1.961 . S
Li90 N135 1.990 . S
Li90 O148 1.961 . S
Li90 O150 1.956 . S
Li90 O151 1.970 . S
Li91 N141 1.990 . S
Li91 O149 1.961 . S
Li91 O150 1.970 . S
Li91 O151 1.956 . S
C92 C94 1.348 . S
C92 C95 1.356 . S
C92 O148 1.325 . S
N93 C96 1.314 . S
N93 C97 1.279 . S
C94 C92 1.348 . S
C94 C96 1.353 . S
C94 H152 0.929 . S
C95 C92 1.356 . S
C95 C97 1.358 . S
C95 H153 0.930 . S
C96 N93 1.314 . S
C96 C94 1.353 . S
C96 H154 0.930 . S
C97 N93 1.279 . S
C97 C95 1.358 . S
C97 H155 0.930 . S
C98 C101 1.348 . S
C98 C102 1.356 . S
C98 O149 1.325 . S
C99 N100 1.279 . S
C99 C102 1.358 . S
C99 H156 0.930 . S
N100 C99 1.279 . S
N100 C103 1.314 . S
C101 C98 1.348 . S
C101 C103 1.353 . S
C101 H157 0.929 . S
C102 C98 1.356 . S
C102 C99 1.358 . S
C102 H158 0.930 . S
C103 N100 1.314 . S
C103 C101 1.353 . S
C103 H159 0.930 . S
C104 N105 1.314 . S
C104 C109 1.353 . S
C104 H110 0.930 . S
N105 Li88 1.990 . S
N105 C104 1.314 . S
N105 C107 1.279 . S
C106 C107 1.358 . S
C106 C108 1.356 . S
C106 H160 0.930 . S
C107 N105 1.279 . S
C107 C106 1.358 . S
C107 H111 0.930 . S
C108 C106 1.356 . S
C108 C109 1.348 . S
C109 C104 1.353 . S
C109 C108 1.348 . S
C109 H161 0.929 . S
H110 C104 0.930 . S
H111 C107 0.930 . S
C112 N113 1.314 . S
C112 C114 1.353 . S
C112 H118 0.930 . S
N113 Li89 1.990 . S
N113 C112 1.314 . S
N113 C116 1.279 . S
C114 C112 1.353 . S
C114 C117 1.348 . S
C114 H162 0.929 . S
C115 C116 1.358 . S
C115 C117 1.356 . S
C115 H163 0.930 . S
C116 N113 1.279 . S
C116 C115 1.358 . S
C116 H119 0.930 . S
C117 C114 1.348 . S
C117 C115 1.356 . S
H118 C112 0.930 . S
H119 C116 0.930 . S
C120 C122 1.348 . S
C120 C123 1.356 . S
C120 O150 1.325 . S
N121 C124 1.314 . S
N121 C125 1.279 . S
C122 C120 1.348 . S
C122 C124 1.353 . S
C122 H164 0.929 . S
C123 C120 1.356 . S
C123 C125 1.358 . S
C123 H165 0.930 . S
C124 N121 1.314 . S
C124 C122 1.353 . S
C124 H166 0.930 . S
C125 N121 1.279 . S
C125 C123 1.358 . S
C125 H167 0.930 . S
C126 C127 1.348 . S
C126 C128 1.356 . S
C126 O151 1.325 . S
C127 C126 1.348 . S
C127 C129 1.353 . S
C127 H168 0.929 . S
C128 C126 1.356 . S
C128 C130 1.358 . S
C128 H169 0.930 . S
C129 C127 1.353 . S
C129 N131 1.314 . S
C129 H170 0.930 . S
C130 C128 1.358 . S
C130 N131 1.279 . S
C130 H171 0.930 1_565 S
N131 C129 1.314 . S
N131 C130 1.279 . S
C132 C134 1.353 . S
C132 N135 1.314 . S
C132 H138 0.930 . S
C133 N135 1.279 . S
C133 C136 1.358 . S
C133 H139 0.930 . S
C134 C132 1.353 . S
C134 C137 1.348 . S
C134 H172 0.929 . S
N135 Li90 1.990 . S
N135 C132 1.314 . S
N135 C133 1.279 . S
C136 C133 1.358 . S
C136 C137 1.356 . S
C136 H173 0.930 . S
C137 C134 1.348 . S
C137 C136 1.356 . S
H138 C132 0.930 . S
H139 C133 0.930 . S
C140 N141 1.314 . S
C140 C142 1.353 . S
C140 H146 0.930 . S
N141 Li91 1.990 . S
N141 C140 1.314 . S
N141 C144 1.279 . S
C142 C140 1.353 . S
C142 C145 1.348 . S
C142 H174 0.929 . S
C143 C144 1.358 . S
C143 C145 1.356 . S
C143 H175 0.930 . S
C144 N141 1.279 . S
C144 C143 1.358 . S
C144 H147 0.930 . S
C145 C142 1.348 . S
C145 C143 1.356 . S
H146 C140 0.930 . S
H147 C144 0.930 . S
O148 Li88 1.956 . S
O148 Li89 1.970 . S
O148 Li90 1.961 . S
O148 C92 1.325 . S
O149 Li88 1.970 . S
O149 Li89 1.956 . S
O149 Li91 1.961 . S
O149 C98 1.325 . S
O150 Li88 1.961 . S
O150 Li90 1.956 . S
O150 Li91 1.970 . S
O150 C120 1.325 . S
O151 Li89 1.961 . S
O151 Li90 1.970 . S
O151 Li91 1.956 . S
O151 C126 1.325 . S
H152 C94 0.929 . S
H153 C95 0.930 . S
H154 C96 0.930 . S
H155 C97 0.930 . S
H156 C99 0.930 . S
H157 C101 0.929 . S
H158 C102 0.930 . S
H159 C103 0.930 . S
H160 C106 0.930 . S
H161 C109 0.929 . S
H162 C114 0.929 . S
H163 C115 0.930 . S
H164 C122 0.929 . S
H165 C123 0.930 . S
H166 C124 0.930 . S
H167 C125 0.930 . S
H168 C127 0.929 . S
H169 C128 0.930 . S
H170 C129 0.930 . S
H171 C130 0.930 1_545 S
H172 C134 0.929 . S
H173 C136 0.930 . S
H174 C142 0.929 . S
H175 C143 0.930 . S
Li176 N193 1.990 . S
Li176 O236 1.956 . S
Li176 O237 1.970 . S
Li176 O238 1.961 . S
Li177 N201 1.990 . S
Li177 O236 1.970 . S
Li177 O237 1.956 . S
Li177 O239 1.961 . S
Li178 N223 1.990 . S
Li178 O236 1.961 . S
Li178 O238 1.956 . S
Li178 O239 1.970 . S
Li179 N229 1.990 . S
Li179 O237 1.961 . S
Li179 O238 1.970 . S
Li179 O239 1.956 . S
C180 C182 1.348 . S
C180 C183 1.356 . S
C180 O236 1.325 . S
N181 C184 1.314 . S
N181 C185 1.279 . S
C182 C180 1.348 . S
C182 C184 1.353 . S
C182 H240 0.929 . S
C183 C180 1.356 . S
C183 C185 1.358 . S
C183 H241 0.930 . S
C184 N181 1.314 . S
C184 C182 1.353 . S
C184 H242 0.930 . S
C185 N181 1.279 . S
C185 C183 1.358 . S
C185 H243 0.930 . S
C186 C189 1.348 . S
C186 C190 1.356 . S
C186 O237 1.325 . S
C187 N188 1.279 . S
C187 C190 1.358 . S
C187 H244 0.930 . S
N188 C187 1.279 . S
N188 C191 1.314 . S
C189 C186 1.348 . S
C189 C191 1.353 . S
C189 H245 0.929 . S
C190 C186 1.356 . S
C190 C187 1.358 . S
C190 H246 0.930 . S
C191 N188 1.314 . S
C191 C189 1.353 . S
C191 H247 0.930 . S
C192 N193 1.314 . S
C192 C197 1.353 . S
C192 H198 0.930 . S
N193 Li176 1.990 . S
N193 C192 1.314 . S
N193 C195 1.279 . S
C194 C195 1.358 . S
C194 C196 1.356 . S
C194 H248 0.930 . S
C195 N193 1.279 . S
C195 C194 1.358 . S
C195 H199 0.930 . S
C196 C194 1.356 . S
C196 C197 1.348 . S
C197 C192 1.353 . S
C197 C196 1.348 . S
C197 H249 0.929 . S
H198 C192 0.930 . S
H199 C195 0.930 . S
C200 N201 1.314 . S
C200 C202 1.353 . S
C200 H206 0.930 . S
N201 Li177 1.990 . S
N201 C200 1.314 . S
N201 C204 1.279 . S
C202 C200 1.353 . S
C202 C205 1.348 . S
C202 H250 0.929 . S
C203 C204 1.358 . S
C203 C205 1.356 . S
C203 H251 0.930 . S
C204 N201 1.279 . S
C204 C203 1.358 . S
C204 H207 0.930 . S
C205 C202 1.348 . S
C205 C203 1.356 . S
H206 C200 0.930 . S
H207 C204 0.930 . S
C208 C210 1.348 . S
C208 C211 1.356 . S
C208 O238 1.325 . S
N209 C212 1.314 . S
N209 C213 1.279 . S
C210 C208 1.348 . S
C210 C212 1.353 . S
C210 H252 0.929 . S
C211 C208 1.356 . S
C211 C213 1.358 . S
C211 H253 0.930 . S
C212 N209 1.314 . S
C212 C210 1.353 . S
C212 H254 0.930 . S
C213 N209 1.279 . S
C213 C211 1.358 . S
C213 H255 0.930 . S
C214 C215 1.348 . S
C214 C216 1.356 . S
C214 O239 1.325 . S
C215 C214 1.348 . S
C215 C217 1.353 . S
C215 H256 0.929 . S
C216 C214 1.356 . S
C216 C218 1.358 . S
C216 H257 0.930 . S
C217 C215 1.353 . S
C217 N219 1.314 . S
C217 H258 0.930 . S
C218 C216 1.358 . S
C218 N219 1.279 . S
C218 H259 0.930 . S
N219 C217 1.314 . S
N219 C218 1.279 . S
C220 C222 1.353 . S
C220 N223 1.314 . S
C220 H226 0.930 . S
C221 N223 1.279 . S
C221 C224 1.358 . S
C221 H227 0.930 . S
C222 C220 1.353 . S
C222 C225 1.348 . S
C222 H260 0.929 . S
N223 Li178 1.990 . S
N223 C220 1.314 . S
N223 C221 1.279 . S
C224 C221 1.358 . S
C224 C225 1.356 . S
C224 H261 0.930 . S
C225 C222 1.348 . S
C225 C224 1.356 . S
H226 C220 0.930 . S
H227 C221 0.930 . S
C228 N229 1.314 . S
C228 C230 1.353 . S
C228 H234 0.930 . S
N229 Li179 1.990 . S
N229 C228 1.314 . S
N229 C232 1.279 . S
C230 C228 1.353 . S
C230 C233 1.348 . S
C230 H262 0.929 . S
C231 C232 1.358 . S
C231 C233 1.356 . S
C231 H263 0.930 . S
C232 N229 1.279 . S
C232 C231 1.358 . S
C232 H235 0.930 . S
C233 C230 1.348 . S
C233 C231 1.356 . S
H234 C228 0.930 . S
H235 C232 0.930 . S
O236 Li176 1.956 . S
O236 Li177 1.970 . S
O236 Li178 1.961 . S
O236 C180 1.325 . S
O237 Li176 1.970 . S
O237 Li177 1.956 . S
O237 Li179 1.961 . S
O237 C186 1.325 . S
O238 Li176 1.961 . S
O238 Li178 1.956 . S
O238 Li179 1.970 . S
O238 C208 1.325 . S
O239 Li177 1.961 . S
O239 Li178 1.970 . S
O239 Li179 1.956 . S
O239 C214 1.325 . S
H240 C182 0.929 . S
H241 C183 0.930 . S
H242 C184 0.930 . S
H243 C185 0.930 . S
H244 C187 0.930 . S
H245 C189 0.929 . S
H246 C190 0.930 . S
H247 C191 0.930 . S
H248 C194 0.930 . S
H249 C197 0.929 . S
H250 C202 0.929 . S
H251 C203 0.930 . S
H252 C210 0.929 . S
H253 C211 0.930 . S
H254 C212 0.930 . S
H255 C213 0.930 . S
H256 C215 0.929 . S
H257 C216 0.930 . S
H258 C217 0.930 . S
H259 C218 0.930 . S
H260 C222 0.929 . S
H261 C224 0.930 . S
H262 C230 0.929 . S
H263 C231 0.930 . S
Li264 N281 1.990 . S
Li264 O324 1.956 . S
Li264 O325 1.970 . S
Li264 O326 1.961 . S
Li265 N289 1.990 . S
Li265 O324 1.970 . S
Li265 O325 1.956 . S
Li265 O327 1.961 . S
Li266 N311 1.990 . S
Li266 O324 1.961 . S
Li266 O326 1.956 . S
Li266 O327 1.970 . S
Li267 N317 1.990 . S
Li267 O325 1.961 . S
Li267 O326 1.970 . S
Li267 O327 1.956 . S
C268 C270 1.348 . S
C268 C271 1.356 . S
C268 O324 1.325 . S
N269 C272 1.314 . S
N269 C273 1.279 . S
C270 C268 1.348 . S
C270 C272 1.353 . S
C270 H328 0.929 . S
C271 C268 1.356 . S
C271 C273 1.358 . S
C271 H329 0.930 . S
C272 N269 1.314 . S
C272 C270 1.353 . S
C272 H330 0.930 . S
C273 N269 1.279 . S
C273 C271 1.358 . S
C273 H331 0.930 . S
C274 C277 1.348 . S
C274 C278 1.356 . S
C274 O325 1.325 . S
C275 N276 1.279 . S
C275 C278 1.358 . S
C275 H332 0.930 . S
N276 C275 1.279 . S
N276 C279 1.314 . S
C277 C274 1.348 . S
C277 C279 1.353 . S
C277 H333 0.929 . S
C278 C274 1.356 . S
C278 C275 1.358 . S
C278 H334 0.930 . S
C279 N276 1.314 . S
C279 C277 1.353 . S
C279 H335 0.930 . S
C280 N281 1.314 . S
C280 C285 1.353 . S
C280 H286 0.930 . S
N281 Li264 1.990 . S
N281 C280 1.314 . S
N281 C283 1.279 . S
C282 C283 1.358 . S
C282 C284 1.356 . S
C282 H336 0.930 . S
C283 N281 1.279 . S
C283 C282 1.358 . S
C283 H287 0.930 . S
C284 C282 1.356 . S
C284 C285 1.348 . S
C285 C280 1.353 . S
C285 C284 1.348 . S
C285 H337 0.929 . S
H286 C280 0.930 . S
H287 C283 0.930 . S
C288 N289 1.314 . S
C288 C290 1.353 . S
C288 H294 0.930 . S
N289 Li265 1.990 . S
N289 C288 1.314 . S
N289 C292 1.279 . S
C290 C288 1.353 . S
C290 C293 1.348 . S
C290 H338 0.929 . S
C291 C292 1.358 . S
C291 C293 1.356 . S
C291 H339 0.930 . S
C292 N289 1.279 . S
C292 C291 1.358 . S
C292 H295 0.930 . S
C293 C290 1.348 . S
C293 C291 1.356 . S
H294 C288 0.930 . S
H295 C292 0.930 . S
C296 C298 1.348 . S
C296 C299 1.356 . S
C296 O326 1.325 . S
N297 C300 1.314 . S
N297 C301 1.279 . S
C298 C296 1.348 . S
C298 C300 1.353 . S
C298 H340 0.929 . S
C299 C296 1.356 . S
C299 C301 1.358 . S
C299 H341 0.930 . S
C300 N297 1.314 . S
C300 C298 1.353 . S
C300 H342 0.930 . S
C301 N297 1.279 . S
C301 C299 1.358 . S
C301 H343 0.930 . S
C302 C303 1.348 . S
C302 C304 1.356 . S
C302 O327 1.325 . S
C303 C302 1.348 . S
C303 C305 1.353 . S
C303 H344 0.929 . S
C304 C302 1.356 . S
C304 C306 1.358 . S
C304 H345 0.930 . S
C305 C303 1.353 . S
C305 N307 1.314 . S
C305 H346 0.930 . S
C306 C304 1.358 . S
C306 N307 1.279 . S
C306 H347 0.930 1_545 S
N307 C305 1.314 . S
N307 C306 1.279 . S
C308 C310 1.353 . S
C308 N311 1.314 . S
C308 H314 0.930 . S
C309 N311 1.279 . S
C309 C312 1.358 . S
C309 H315 0.930 . S
C310 C308 1.353 . S
C310 C313 1.348 . S
C310 H348 0.929 . S
N311 Li266 1.990 . S
N311 C308 1.314 . S
N311 C309 1.279 . S
C312 C309 1.358 . S
C312 C313 1.356 . S
C312 H349 0.930 . S
C313 C310 1.348 . S
C313 C312 1.356 . S
H314 C308 0.930 . S
H315 C309 0.930 . S
C316 N317 1.314 . S
C316 C318 1.353 . S
C316 H322 0.930 . S
N317 Li267 1.990 . S
N317 C316 1.314 . S
N317 C320 1.279 . S
C318 C316 1.353 . S
C318 C321 1.348 . S
C318 H350 0.929 . S
C319 C320 1.358 . S
C319 C321 1.356 . S
C319 H351 0.930 . S
C320 N317 1.279 . S
C320 C319 1.358 . S
C320 H323 0.930 . S
C321 C318 1.348 . S
C321 C319 1.356 . S
H322 C316 0.930 . S
H323 C320 0.930 . S
O324 Li264 1.956 . S
O324 Li265 1.970 . S
O324 Li266 1.961 . S
O324 C268 1.325 . S
O325 Li264 1.970 . S
O325 Li265 1.956 . S
O325 Li267 1.961 . S
O325 C274 1.325 . S
O326 Li264 1.961 . S
O326 Li266 1.956 . S
O326 Li267 1.970 . S
O326 C296 1.325 . S
O327 Li265 1.961 . S
O327 Li266 1.970 . S
O327 Li267 1.956 . S
O327 C302 1.325 . S
H328 C270 0.929 . S
H329 C271 0.930 . S
H330 C272 0.930 . S
H331 C273 0.930 . S
H332 C275 0.930 . S
H333 C277 0.929 . S
H334 C278 0.930 . S
H335 C279 0.930 . S
H336 C282 0.930 . S
H337 C285 0.929 . S
H338 C290 0.929 . S
H339 C291 0.930 . S
H340 C298 0.929 . S
H341 C299 0.930 . S
H342 C300 0.930 . S
H343 C301 0.930 . S
H344 C303 0.929 . S
H345 C304 0.930 . S
H346 C305 0.930 . S
H347 C306 0.930 1_565 S
H348 C310 0.929 . S
H349 C312 0.930 . S
H350 C318 0.929 . S
H351 C319 0.930 . S
Li352 N369 1.990 . S
Li352 O412 1.956 . S
Li352 O413 1.970 . S
Li352 O414 1.961 . S
Li353 N377 1.990 . S
Li353 O412 1.970 . S
Li353 O413 1.956 . S
Li353 O415 1.961 . S
Li354 N399 1.990 1_554 S
Li354 O412 1.961 . S
Li354 O414 1.956 . S
Li354 O415 1.970 . S
Li355 N405 1.990 . S
Li355 O413 1.961 . S
Li355 O414 1.970 . S
Li355 O415 1.956 . S
C356 C358 1.348 . S
C356 C359 1.356 . S
C356 O412 1.325 . S
N357 C360 1.314 . S
N357 C361 1.279 . S
C358 C356 1.348 . S
C358 C360 1.353 . S
C358 H416 0.929 . S
C359 C356 1.356 . S
C359 C361 1.358 . S
C359 H417 0.930 . S
C360 N357 1.314 . S
C360 C358 1.353 . S
C360 H418 0.930 . S
C361 N357 1.279 . S
C361 C359 1.358 . S
C361 H419 0.930 . S
C362 C365 1.348 . S
C362 C366 1.356 . S
C362 O413 1.325 . S
C363 N364 1.279 . S
C363 C366 1.358 . S
C363 H420 0.930 . S
N364 C363 1.279 . S
N364 C367 1.314 . S
C365 C362 1.348 . S
C365 C367 1.353 . S
C365 H421 0.929 . S
C366 C362 1.356 . S
C366 C363 1.358 . S
C366 H422 0.930 . S
C367 N364 1.314 . S
C367 C365 1.353 . S
C367 H423 0.930 . S
C368 N369 1.314 . S
C368 C373 1.353 . S
C368 H374 0.930 . S
N369 Li352 1.990 . S
N369 C368 1.314 . S
N369 C371 1.279 . S
C370 C371 1.358 . S
C370 C372 1.356 . S
C370 H424 0.930 . S
C371 N369 1.279 . S
C371 C370 1.358 . S
C371 H375 0.930 . S
C372 C370 1.356 . S
C372 C373 1.348 . S
C373 C368 1.353 . S
C373 C372 1.348 . S
C373 H425 0.929 . S
H374 C368 0.930 . S
H375 C371 0.930 . S
C376 N377 1.314 . S
C376 C378 1.353 . S
C376 H382 0.930 1_554 S
N377 Li353 1.990 . S
N377 C376 1.314 . S
N377 C380 1.279 . S
C378 C376 1.353 . S
C378 C381 1.348 . S
C378 H426 0.929 1_554 S
C379 C380 1.358 . S
C379 C381 1.356 . S
C379 H427 0.930 . S
C380 N377 1.279 . S
C380 C379 1.358 . S
C380 H383 0.930 . S
C381 C378 1.348 . S
C381 C379 1.356 . S
H382 C376 0.930 1_556 S
H383 C380 0.930 . S
C384 C386 1.348 . S
C384 C387 1.356 . S
C384 O414 1.325 . S
N385 C388 1.314 . S
N385 C389 1.279 . S
C386 C384 1.348 . S
C386 C388 1.353 . S
C386 H428 0.929 . S
C387 C384 1.356 . S
C387 C389 1.358 . S
C387 H429 0.930 . S
C388 N385 1.314 . S
C388 C386 1.353 . S
C388 H430 0.930 . S
C389 N385 1.279 . S
C389 C387 1.358 . S
C389 H431 0.930 . S
C390 C391 1.348 . S
C390 C392 1.356 . S
C390 O415 1.325 1_556 S
C391 C390 1.348 . S
C391 C393 1.353 . S
C391 H432 0.929 . S
C392 C390 1.356 . S
C392 C394 1.358 . S
C392 H433 0.930 1_556 S
C393 C391 1.353 . S
C393 N395 1.314 . S
C393 H434 0.930 . S
C394 C392 1.358 . S
C394 N395 1.279 . S
C394 H435 0.930 . S
N395 C393 1.314 . S
N395 C394 1.279 . S
C396 C398 1.353 . S
C396 N399 1.314 . S
C396 H402 0.930 . S
C397 N399 1.279 . S
C397 C400 1.358 . S
C397 H403 0.930 . S
C398 C396 1.353 . S
C398 C401 1.348 . S
C398 H436 0.929 . S
N399 Li354 1.990 1_556 S
N399 C396 1.314 . S
N399 C397 1.279 . S
C400 C397 1.358 . S
C400 C401 1.356 . S
C400 H437 0.930 . S
C401 C398 1.348 . S
C401 C400 1.356 . S
H402 C396 0.930 . S
H403 C397 0.930 . S
C404 N405 1.314 . S
C404 C406 1.353 . S
C404 H410 0.930 . S
N405 Li355 1.990 . S
N405 C404 1.314 . S
N405 C408 1.279 . S
C406 C404 1.353 . S
C406 C409 1.348 . S
C406 H438 0.929 . S
C407 C408 1.358 . S
C407 C409 1.356 . S
C407 H439 0.930 . S
C408 N405 1.279 . S
C408 C407 1.358 . S
C408 H411 0.930 . S
C409 C406 1.348 . S
C409 C407 1.356 . S
H410 C404 0.930 . S
H411 C408 0.930 . S
O412 Li352 1.956 . S
O412 Li353 1.970 . S
O412 Li354 1.961 . S
O412 C356 1.325 . S
O413 Li352 1.970 . S
O413 Li353 1.956 . S
O413 Li355 1.961 . S
O413 C362 1.325 . S
O414 Li352 1.961 . S
O414 Li354 1.956 . S
O414 Li355 1.970 . S
O414 C384 1.325 . S
O415 Li353 1.961 . S
O415 Li354 1.970 . S
O415 Li355 1.956 . S
O415 C390 1.325 1_554 S
H416 C358 0.929 . S
H417 C359 0.930 . S
H418 C360 0.930 . S
H419 C361 0.930 . S
H420 C363 0.930 . S
H421 C365 0.929 . S
H422 C366 0.930 . S
H423 C367 0.930 . S
H424 C370 0.930 . S
H425 C373 0.929 . S
H426 C378 0.929 1_556 S
H427 C379 0.930 . S
H428 C386 0.929 . S
H429 C387 0.930 . S
H430 C388 0.930 . S
H431 C389 0.930 . S
H432 C391 0.929 . S
H433 C392 0.930 1_554 S
H434 C393 0.930 . S
H435 C394 0.930 . S
H436 C398 0.929 . S
H437 C400 0.930 . S
H438 C406 0.929 . S
H439 C407 0.930 . S
Li440 N457 1.990 . S
Li440 O500 1.956 . S
Li440 O501 1.970 . S
Li440 O502 1.961 . S
Li441 N465 1.990 . S
Li441 O500 1.970 . S
Li441 O501 1.956 . S
Li441 O503 1.961 . S
Li442 N487 1.990 . S
Li442 O500 1.961 . S
Li442 O502 1.956 . S
Li442 O503 1.970 . S
Li443 N493 1.990 . S
Li443 O501 1.961 . S
Li443 O502 1.970 . S
Li443 O503 1.956 . S
C444 C446 1.348 . S
C444 C447 1.356 . S
C444 O500 1.325 . S
N445 C448 1.314 . S
N445 C449 1.279 . S
C446 C444 1.348 . S
C446 C448 1.353 . S
C446 H504 0.929 . S
C447 C444 1.356 . S
C447 C449 1.358 . S
C447 H505 0.930 . S
C448 N445 1.314 . S
C448 C446 1.353 . S
C448 H506 0.930 . S
C449 N445 1.279 . S
C449 C447 1.358 . S
C449 H507 0.930 . S
C450 C453 1.348 . S
C450 C454 1.356 . S
C450 O501 1.325 . S
C451 N452 1.279 . S
C451 C454 1.358 . S
C451 H508 0.930 1_565 S
N452 C451 1.279 . S
N452 C455 1.314 . S
C453 C450 1.348 . S
C453 C455 1.353 . S
C453 H509 0.929 . S
C454 C450 1.356 . S
C454 C451 1.358 . S
C454 H510 0.930 . S
C455 N452 1.314 . S
C455 C453 1.353 . S
C455 H511 0.930 . S
C456 N457 1.314 . S
C456 C461 1.353 . S
C456 H462 0.930 . S
N457 Li440 1.990 . S
N457 C456 1.314 . S
N457 C459 1.279 . S
C458 C459 1.358 . S
C458 C460 1.356 . S
C458 H512 0.930 . S
C459 N457 1.279 . S
C459 C458 1.358 . S
C459 H463 0.930 . S
C460 C458 1.356 . S
C460 C461 1.348 . S
C461 C456 1.353 . S
C461 C460 1.348 . S
C461 H513 0.929 . S
H462 C456 0.930 . S
H463 C459 0.930 . S
C464 N465 1.314 . S
C464 C466 1.353 . S
C464 H470 0.930 . S
N465 Li441 1.990 . S
N465 C464 1.314 . S
N465 C468 1.279 . S
C466 C464 1.353 . S
C466 C469 1.348 . S
C466 H514 0.929 . S
C467 C468 1.358 . S
C467 C469 1.356 . S
C467 H515 0.930 . S
C468 N465 1.279 . S
C468 C467 1.358 . S
C468 H471 0.930 . S
C469 C466 1.348 . S
C469 C467 1.356 . S
H470 C464 0.930 . S
H471 C468 0.930 . S
C472 C474 1.348 . S
C472 C475 1.356 . S
C472 O502 1.325 . S
N473 C476 1.314 . S
N473 C477 1.279 . S
C474 C472 1.348 . S
C474 C476 1.353 . S
C474 H516 0.929 . S
C475 C472 1.356 . S
C475 C477 1.358 . S
C475 H517 0.930 . S
C476 N473 1.314 . S
C476 C474 1.353 . S
C476 H518 0.930 . S
C477 N473 1.279 . S
C477 C475 1.358 . S
C477 H519 0.930 . S
C478 C479 1.348 . S
C478 C480 1.356 . S
C478 O503 1.325 . S
C479 C478 1.348 . S
C479 C481 1.353 . S
C479 H520 0.929 . S
C480 C478 1.356 . S
C480 C482 1.358 . S
C480 H521 0.930 . S
C481 C479 1.353 . S
C481 N483 1.314 . S
C481 H522 0.930 . S
C482 C480 1.358 . S
C482 N483 1.279 . S
C482 H523 0.930 . S
N483 C481 1.314 . S
N483 C482 1.279 . S
C484 C486 1.353 . S
C484 N487 1.314 . S
C484 H490 0.930 . S
C485 N487 1.279 . S
C485 C488 1.358 . S
C485 H491 0.930 . S
C486 C484 1.353 . S
C486 C489 1.348 . S
C486 H524 0.929 . S
N487 Li442 1.990 . S
N487 C484 1.314 . S
N487 C485 1.279 . S
C488 C485 1.358 . S
C488 C489 1.356 . S
C488 H525 0.930 . S
C489 C486 1.348 . S
C489 C488 1.356 . S
H490 C484 0.930 . S
H491 C485 0.930 . S
C492 N493 1.314 . S
C492 C494 1.353 . S
C492 H498 0.930 . S
N493 Li443 1.990 . S
N493 C492 1.314 . S
N493 C496 1.279 . S
C494 C492 1.353 . S
C494 C497 1.348 . S
C494 H526 0.929 . S
C495 C496 1.358 . S
C495 C497 1.356 . S
C495 H527 0.930 . S
C496 N493 1.279 . S
C496 C495 1.358 . S
C496 H499 0.930 . S
C497 C494 1.348 . S
C497 C495 1.356 . S
H498 C492 0.930 . S
H499 C496 0.930 . S
O500 Li440 1.956 . S
O500 Li441 1.970 . S
O500 Li442 1.961 . S
O500 C444 1.325 . S
O501 Li440 1.970 . S
O501 Li441 1.956 . S
O501 Li443 1.961 . S
O501 C450 1.325 . S
O502 Li440 1.961 . S
O502 Li442 1.956 . S
O502 Li443 1.970 . S
O502 C472 1.325 . S
O503 Li441 1.961 . S
O503 Li442 1.970 . S
O503 Li443 1.956 . S
O503 C478 1.325 . S
H504 C446 0.929 . S
H505 C447 0.930 . S
H506 C448 0.930 . S
H507 C449 0.930 . S
H508 C451 0.930 1_545 S
H509 C453 0.929 . S
H510 C454 0.930 . S
H511 C455 0.930 . S
H512 C458 0.930 . S
H513 C461 0.929 . S
H514 C466 0.929 . S
H515 C467 0.930 . S
H516 C474 0.929 . S
H517 C475 0.930 . S
H518 C476 0.930 . S
H519 C477 0.930 . S
H520 C479 0.929 . S
H521 C480 0.930 . S
H522 C481 0.930 . S
H523 C482 0.930 . S
H524 C486 0.929 . S
H525 C488 0.930 . S
H526 C494 0.929 . S
H527 C495 0.930 . S
Li528 N545 1.990 . S
Li528 O588 1.956 . S
Li528 O589 1.970 . S
Li528 O590 1.961 . S
Li529 N553 1.990 . S
Li529 O588 1.970 . S
Li529 O589 1.956 . S
Li529 O591 1.961 . S
Li530 N575 1.990 . S
Li530 O588 1.961 . S
Li530 O590 1.956 . S
Li530 O591 1.970 . S
Li531 N581 1.990 . S
Li531 O589 1.961 . S
Li531 O590 1.970 . S
Li531 O591 1.956 . S
C532 C534 1.348 . S
C532 C535 1.356 . S
C532 O588 1.325 . S
N533 C536 1.314 . S
N533 C537 1.279 . S
C534 C532 1.348 . S
C534 C536 1.353 . S
C534 H592 0.929 . S
C535 C532 1.356 . S
C535 C537 1.358 . S
C535 H593 0.930 . S
C536 N533 1.314 . S
C536 C534 1.353 . S
C536 H594 0.930 . S
C537 N533 1.279 . S
C537 C535 1.358 . S
C537 H595 0.930 . S
C538 C541 1.348 . S
C538 C542 1.356 . S
C538 O589 1.325 . S
C539 N540 1.279 . S
C539 C542 1.358 . S
C539 H596 0.930 . S
N540 C539 1.279 . S
N540 C543 1.314 . S
C541 C538 1.348 . S
C541 C543 1.353 . S
C541 H597 0.929 . S
C542 C538 1.356 . S
C542 C539 1.358 . S
C542 H598 0.930 . S
C543 N540 1.314 . S
C543 C541 1.353 . S
C543 H599 0.930 . S
C544 N545 1.314 . S
C544 C549 1.353 . S
C544 H550 0.930 . S
N545 Li528 1.990 . S
N545 C544 1.314 . S
N545 C547 1.279 . S
C546 C547 1.358 . S
C546 C548 1.356 . S
C546 H600 0.930 . S
C547 N545 1.279 . S
C547 C546 1.358 . S
C547 H551 0.930 . S
C548 C546 1.356 . S
C548 C549 1.348 . S
C549 C544 1.353 . S
C549 C548 1.348 . S
C549 H601 0.929 . S
H550 C544 0.930 . S
H551 C547 0.930 . S
C552 N553 1.314 . S
C552 C554 1.353 . S
C552 H558 0.930 . S
N553 Li529 1.990 . S
N553 C552 1.314 . S
N553 C556 1.279 . S
C554 C552 1.353 . S
C554 C557 1.348 . S
C554 H602 0.929 . S
C555 C556 1.358 . S
C555 C557 1.356 . S
C555 H603 0.930 . S
C556 N553 1.279 . S
C556 C555 1.358 . S
C556 H559 0.930 . S
C557 C554 1.348 . S
C557 C555 1.356 . S
H558 C552 0.930 . S
H559 C556 0.930 . S
C560 C562 1.348 . S
C560 C563 1.356 . S
C560 O590 1.325 . S
N561 C564 1.314 . S
N561 C565 1.279 . S
C562 C560 1.348 . S
C562 C564 1.353 . S
C562 H604 0.929 . S
C563 C560 1.356 . S
C563 C565 1.358 . S
C563 H605 0.930 . S
C564 N561 1.314 . S
C564 C562 1.353 . S
C564 H606 0.930 . S
C565 N561 1.279 . S
C565 C563 1.358 . S
C565 H607 0.930 . S
C566 C567 1.348 . S
C566 C568 1.356 . S
C566 O591 1.325 . S
C567 C566 1.348 . S
C567 C569 1.353 . S
C567 H608 0.929 . S
C568 C566 1.356 . S
C568 C570 1.358 . S
C568 H609 0.930 . S
C569 C567 1.353 . S
C569 N571 1.314 . S
C569 H610 0.930 . S
C570 C568 1.358 . S
C570 N571 1.279 . S
C570 H611 0.930 . S
N571 C569 1.314 . S
N571 C570 1.279 . S
C572 C574 1.353 . S
C572 N575 1.314 . S
C572 H578 0.930 . S
C573 N575 1.279 . S
C573 C576 1.358 . S
C573 H579 0.930 . S
C574 C572 1.353 . S
C574 C577 1.348 . S
C574 H612 0.929 . S
N575 Li530 1.990 . S
N575 C572 1.314 . S
N575 C573 1.279 . S
C576 C573 1.358 . S
C576 C577 1.356 . S
C576 H613 0.930 . S
C577 C574 1.348 . S
C577 C576 1.356 . S
H578 C572 0.930 . S
H579 C573 0.930 . S
C580 N581 1.314 . S
C580 C582 1.353 . S
C580 H586 0.930 . S
N581 Li531 1.990 . S
N581 C580 1.314 . S
N581 C584 1.279 . S
C582 C580 1.353 . S
C582 C585 1.348 . S
C582 H614 0.929 . S
C583 C584 1.358 . S
C583 C585 1.356 . S
C583 H615 0.930 . S
C584 N581 1.279 . S
C584 C583 1.358 . S
C584 H587 0.930 . S
C585 C582 1.348 . S
C585 C583 1.356 . S
H586 C580 0.930 . S
H587 C584 0.930 . S
O588 Li528 1.956 . S
O588 Li529 1.970 . S
O588 Li530 1.961 . S
O588 C532 1.325 . S
O589 Li528 1.970 . S
O589 Li529 1.956 . S
O589 Li531 1.961 . S
O589 C538 1.325 . S
O590 Li528 1.961 . S
O590 Li530 1.956 . S
O590 Li531 1.970 . S
O590 C560 1.325 . S
O591 Li529 1.961 . S
O591 Li530 1.970 . S
O591 Li531 1.956 . S
O591 C566 1.325 . S
H592 C534 0.929 . S
H593 C535 0.930 . S
H594 C536 0.930 . S
H595 C537 0.930 . S
H596 C539 0.930 . S
H597 C541 0.929 . S
H598 C542 0.930 . S
H599 C543 0.930 . S
H600 C546 0.930 . S
H601 C549 0.929 . S
H602 C554 0.929 . S
H603 C555 0.930 . S
H604 C562 0.929 . S
H605 C563 0.930 . S
H606 C564 0.930 . S
H607 C565 0.930 . S
H608 C567 0.929 . S
H609 C568 0.930 . S
H610 C569 0.930 . S
H611 C570 0.930 . S
H612 C574 0.929 . S
H613 C576 0.930 . S
H614 C582 0.929 . S
H615 C583 0.930 . S
Li616 N633 1.990 . S
Li616 O676 1.956 . S
Li616 O677 1.970 . S
Li616 O678 1.961 . S
Li617 N641 1.990 . S
Li617 O676 1.970 . S
Li617 O677 1.956 . S
Li617 O679 1.961 . S
Li618 N663 1.990 . S
Li618 O676 1.961 . S
Li618 O678 1.956 . S
Li618 O679 1.970 . S
Li619 N669 1.990 . S
Li619 O677 1.961 . S
Li619 O678 1.970 . S
Li619 O679 1.956 . S
C620 C622 1.348 . S
C620 C623 1.356 . S
C620 O676 1.325 . S
N621 C624 1.314 . S
N621 C625 1.279 . S
C622 C620 1.348 . S
C622 C624 1.353 . S
C622 H680 0.929 . S
C623 C620 1.356 . S
C623 C625 1.358 . S
C623 H681 0.930 . S
C624 N621 1.314 . S
C624 C622 1.353 . S
C624 H682 0.930 1_556 S
C625 N621 1.279 . S
C625 C623 1.358 . S
C625 H683 0.930 . S
C626 C629 1.348 . S
C626 C630 1.356 . S
C626 O677 1.325 . S
C627 N628 1.279 . S
C627 C630 1.358 . S
C627 H684 0.930 1_545 S
N628 C627 1.279 . S
N628 C631 1.314 . S
C629 C626 1.348 . S
C629 C631 1.353 . S
C629 H685 0.929 . S
C630 C626 1.356 . S
C630 C627 1.358 . S
C630 H686 0.930 . S
C631 N628 1.314 . S
C631 C629 1.353 . S
C631 H687 0.930 . S
C632 N633 1.314 . S
C632 C637 1.353 . S
C632 H638 0.930 . S
N633 Li616 1.990 . S
N633 C632 1.314 . S
N633 C635 1.279 . S
C634 C635 1.358 . S
C634 C636 1.356 . S
C634 H688 0.930 . S
C635 N633 1.279 . S
C635 C634 1.358 . S
C635 H639 0.930 . S
C636 C634 1.356 . S
C636 C637 1.348 . S
C637 C632 1.353 . S
C637 C636 1.348 . S
C637 H689 0.929 . S
H638 C632 0.930 . S
H639 C635 0.930 . S
C640 N641 1.314 . S
C640 C642 1.353 . S
C640 H646 0.930 . S
N641 Li617 1.990 . S
N641 C640 1.314 . S
N641 C644 1.279 . S
C642 C640 1.353 . S
C642 C645 1.348 . S
C642 H690 0.929 . S
C643 C644 1.358 . S
C643 C645 1.356 . S
C643 H691 0.930 . S
C644 N641 1.279 . S
C644 C643 1.358 . S
C644 H647 0.930 . S
C645 C642 1.348 . S
C645 C643 1.356 . S
H646 C640 0.930 . S
H647 C644 0.930 . S
C648 C650 1.348 . S
C648 C651 1.356 . S
C648 O678 1.325 . S
N649 C652 1.314 . S
N649 C653 1.279 . S
C650 C648 1.348 . S
C650 C652 1.353 . S
C650 H692 0.929 . S
C651 C648 1.356 . S
C651 C653 1.358 . S
C651 H693 0.930 . S
C652 N649 1.314 . S
C652 C650 1.353 . S
C652 H694 0.930 . S
C653 N649 1.279 . S
C653 C651 1.358 . S
C653 H695 0.930 . S
C654 C655 1.348 . S
C654 C656 1.356 . S
C654 O679 1.325 . S
C655 C654 1.348 . S
C655 C657 1.353 . S
C655 H696 0.929 . S
C656 C654 1.356 . S
C656 C658 1.358 . S
C656 H697 0.930 . S
C657 C655 1.353 . S
C657 N659 1.314 . S
C657 H698 0.930 . S
C658 C656 1.358 . S
C658 N659 1.279 . S
C658 H699 0.930 . S
N659 C657 1.314 . S
N659 C658 1.279 . S
C660 C662 1.353 . S
C660 N663 1.314 . S
C660 H666 0.930 . S
C661 N663 1.279 . S
C661 C664 1.358 . S
C661 H667 0.930 . S
C662 C660 1.353 . S
C662 C665 1.348 . S
C662 H700 0.929 . S
N663 Li618 1.990 . S
N663 C660 1.314 . S
N663 C661 1.279 . S
C664 C661 1.358 . S
C664 C665 1.356 . S
C664 H701 0.930 . S
C665 C662 1.348 . S
C665 C664 1.356 . S
H666 C660 0.930 . S
H667 C661 0.930 . S
C668 N669 1.314 . S
C668 C670 1.353 . S
C668 H674 0.930 . S
N669 Li619 1.990 . S
N669 C668 1.314 . S
N669 C672 1.279 . S
C670 C668 1.353 . S
C670 C673 1.348 . S
C670 H702 0.929 . S
C671 C672 1.358 . S
C671 C673 1.356 . S
C671 H703 0.930 . S
C672 N669 1.279 . S
C672 C671 1.358 . S
C672 H675 0.930 . S
C673 C670 1.348 . S
C673 C671 1.356 . S
H674 C668 0.930 . S
H675 C672 0.930 . S
O676 Li616 1.956 . S
O676 Li617 1.970 . S
O676 Li618 1.961 . S
O676 C620 1.325 . S
O677 Li616 1.970 . S
O677 Li617 1.956 . S
O677 Li619 1.961 . S
O677 C626 1.325 . S
O678 Li616 1.961 . S
O678 Li618 1.956 . S
O678 Li619 1.970 . S
O678 C648 1.325 . S
O679 Li617 1.961 . S
O679 Li618 1.970 . S
O679 Li619 1.956 . S
O679 C654 1.325 . S
H680 C622 0.929 . S
H681 C623 0.930 . S
H682 C624 0.930 1_554 S
H683 C625 0.930 . S
H684 C627 0.930 1_565 S
H685 C629 0.929 . S
H686 C630 0.930 . S
H687 C631 0.930 . S
H688 C634 0.930 . S
H689 C637 0.929 . S
H690 C642 0.929 . S
H691 C643 0.930 . S
H692 C650 0.929 . S
H693 C651 0.930 . S
H694 C652 0.930 . S
H695 C653 0.930 . S
H696 C655 0.929 . S
H697 C656 0.930 . S
H698 C657 0.930 . S
H699 C658 0.930 . S
H700 C662 0.929 . S
H701 C664 0.930 . S
H702 C670 0.929 . S
H703 C671 0.930 . S
Li704 N721 1.990 . S
Li704 O764 1.956 . S
Li704 O765 1.970 . S
Li704 O766 1.961 . S
Li705 N729 1.990 . S
Li705 O764 1.970 . S
Li705 O765 1.956 . S
Li705 O767 1.961 . S
Li706 N751 1.990 . S
Li706 O764 1.961 . S
Li706 O766 1.956 . S
Li706 O767 1.970 . S
Li707 N757 1.990 1_554 S
Li707 O765 1.961 . S
Li707 O766 1.970 . S
Li707 O767 1.956 . S
C708 C710 1.348 . S
C708 C711 1.356 . S
C708 O764 1.325 . S
N709 C712 1.314 . S
N709 C713 1.279 . S
C710 C708 1.348 . S
C710 C712 1.353 . S
C710 H768 0.929 . S
C711 C708 1.356 . S
C711 C713 1.358 . S
C711 H769 0.930 . S
C712 N709 1.314 . S
C712 C710 1.353 . S
C712 H770 0.930 . S
C713 N709 1.279 . S
C713 C711 1.358 . S
C713 H771 0.930 . S
C714 C717 1.348 . S
C714 C718 1.356 . S
C714 O765 1.325 . S
C715 N716 1.279 . S
C715 C718 1.358 . S
C715 H772 0.930 . S
N716 C715 1.279 . S
N716 C719 1.314 . S
C717 C714 1.348 . S
C717 C719 1.353 . S
C717 H773 0.929 . S
C718 C714 1.356 . S
C718 C715 1.358 . S
C718 H774 0.930 . S
C719 N716 1.314 . S
C719 C717 1.353 . S
C719 H775 0.930 . S
C720 N721 1.314 . S
C720 C725 1.353 . S
C720 H726 0.930 . S
N721 Li704 1.990 . S
N721 C720 1.314 . S
N721 C723 1.279 . S
C722 C723 1.358 . S
C722 C724 1.356 . S
C722 H776 0.930 . S
C723 N721 1.279 . S
C723 C722 1.358 . S
C723 H727 0.930 . S
C724 C722 1.356 . S
C724 C725 1.348 . S
C725 C720 1.353 . S
C725 C724 1.348 . S
C725 H777 0.929 . S
H726 C720 0.930 . S
H727 C723 0.930 . S
C728 N729 1.314 . S
C728 C730 1.353 . S
C728 H734 0.930 . S
N729 Li705 1.990 . S
N729 C728 1.314 . S
N729 C732 1.279 . S
C730 C728 1.353 . S
C730 C733 1.348 . S
C730 H778 0.929 . S
C731 C732 1.358 . S
C731 C733 1.356 . S
C731 H779 0.930 . S
C732 N729 1.279 . S
C732 C731 1.358 . S
C732 H735 0.930 . S
C733 C730 1.348 . S
C733 C731 1.356 . S
H734 C728 0.930 . S
H735 C732 0.930 . S
C736 C738 1.348 . S
C736 C739 1.356 . S
C736 O766 1.325 1_556 S
N737 C740 1.314 . S
N737 C741 1.279 . S
C738 C736 1.348 . S
C738 C740 1.353 . S
C738 H780 0.929 . S
C739 C736 1.356 . S
C739 C741 1.358 . S
C739 H781 0.930 1_556 S
C740 N737 1.314 . S
C740 C738 1.353 . S
C740 H782 0.930 . S
C741 N737 1.279 . S
C741 C739 1.358 . S
C741 H783 0.930 . S
C742 C743 1.348 . S
C742 C744 1.356 . S
C742 O767 1.325 . S
C743 C742 1.348 . S
C743 C745 1.353 . S
C743 H784 0.929 . S
C744 C742 1.356 . S
C744 C746 1.358 . S
C744 H785 0.930 . S
C745 C743 1.353 . S
C745 N747 1.314 . S
C745 H786 0.930 . S
C746 C744 1.358 . S
C746 N747 1.279 . S
C746 H787 0.930 . S
N747 C745 1.314 . S
N747 C746 1.279 . S
C748 C750 1.353 . S
C748 N751 1.314 . S
C748 H754 0.930 . S
C749 N751 1.279 . S
C749 C752 1.358 . S
C749 H755 0.930 1_554 S
C750 C748 1.353 . S
C750 C753 1.348 . S
C750 H788 0.929 . S
N751 Li706 1.990 . S
N751 C748 1.314 . S
N751 C749 1.279 . S
C752 C749 1.358 . S
C752 C753 1.356 . S
C752 H789 0.930 1_554 S
C753 C750 1.348 . S
C753 C752 1.356 . S
H754 C748 0.930 . S
H755 C749 0.930 1_556 S
C756 N757 1.314 . S
C756 C758 1.353 . S
C756 H762 0.930 . S
N757 Li707 1.990 1_556 S
N757 C756 1.314 . S
N757 C760 1.279 . S
C758 C756 1.353 . S
C758 C761 1.348 . S
C758 H790 0.929 . S
C759 C760 1.358 . S
C759 C761 1.356 . S
C759 H791 0.930 . S
C760 N757 1.279 . S
C760 C759 1.358 . S
C760 H763 0.930 . S
C761 C758 1.348 . S
C761 C759 1.356 . S
H762 C756 0.930 . S
H763 C760 0.930 . S
O764 Li704 1.956 . S
O764 Li705 1.970 . S
O764 Li706 1.961 . S
O764 C708 1.325 . S
O765 Li704 1.970 . S
O765 Li705 1.956 . S
O765 Li707 1.961 . S
O765 C714 1.325 . S
O766 Li704 1.961 . S
O766 Li706 1.956 . S
O766 Li707 1.970 . S
O766 C736 1.325 1_554 S
O767 Li705 1.961 . S
O767 Li706 1.970 . S
O767 Li707 1.956 . S
O767 C742 1.325 . S
H768 C710 0.929 . S
H769 C711 0.930 . S
H770 C712 0.930 . S
H771 C713 0.930 . S
H772 C715 0.930 . S
H773 C717 0.929 . S
H774 C718 0.930 . S
H775 C719 0.930 . S
H776 C722 0.930 . S
H777 C725 0.929 . S
H778 C730 0.929 . S
H779 C731 0.930 . S
H780 C738 0.929 . S
H781 C739 0.930 1_554 S
H782 C740 0.930 . S
H783 C741 0.930 . S
H784 C743 0.929 . S
H785 C744 0.930 . S
H786 C745 0.930 . S
H787 C746 0.930 . S
H788 C750 0.929 . S
H789 C752 0.930 1_556 S
H790 C758 0.929 . S
H791 C759 0.930 . S
Li792 N809 1.990 . S
Li792 O852 1.956 . S
Li792 O853 1.970 . S
Li792 O854 1.961 . S
Li793 N817 1.990 . S
Li793 O852 1.970 . S
Li793 O853 1.956 . S
Li793 O855 1.961 . S
Li794 N839 1.990 . S
Li794 O852 1.961 . S
Li794 O854 1.956 . S
Li794 O855 1.970 . S
Li795 N845 1.990 . S
Li795 O853 1.961 . S
Li795 O854 1.970 . S
Li795 O855 1.956 . S
C796 C798 1.348 . S
C796 C799 1.356 . S
C796 O852 1.325 . S
N797 C800 1.314 . S
N797 C801 1.279 . S
C798 C796 1.348 . S
C798 C800 1.353 . S
C798 H856 0.929 . S
C799 C796 1.356 . S
C799 C801 1.358 . S
C799 H857 0.930 . S
C800 N797 1.314 . S
C800 C798 1.353 . S
C800 H858 0.930 1_556 S
C801 N797 1.279 . S
C801 C799 1.358 . S
C801 H859 0.930 . S
C802 C805 1.348 . S
C802 C806 1.356 . S
C802 O853 1.325 . S
C803 N804 1.279 . S
C803 C806 1.358 . S
C803 H860 0.930 . S
N804 C803 1.279 . S
N804 C807 1.314 . S
C805 C802 1.348 . S
C805 C807 1.353 . S
C805 H861 0.929 . S
C806 C802 1.356 . S
C806 C803 1.358 . S
C806 H862 0.930 . S
C807 N804 1.314 . S
C807 C805 1.353 . S
C807 H863 0.930 . S
C808 N809 1.314 . S
C808 C813 1.353 . S
C808 H814 0.930 . S
N809 Li792 1.990 . S
N809 C808 1.314 . S
N809 C811 1.279 . S
C810 C811 1.358 . S
C810 C812 1.356 . S
C810 H864 0.930 . S
C811 N809 1.279 . S
C811 C810 1.358 . S
C811 H815 0.930 . S
C812 C810 1.356 . S
C812 C813 1.348 . S
C813 C808 1.353 . S
C813 C812 1.348 . S
C813 H865 0.929 . S
H814 C808 0.930 . S
H815 C811 0.930 . S
C816 N817 1.314 . S
C816 C818 1.353 . S
C816 H822 0.930 . S
N817 Li793 1.990 . S
N817 C816 1.314 . S
N817 C820 1.279 . S
C818 C816 1.353 . S
C818 C821 1.348 . S
C818 H866 0.929 . S
C819 C820 1.358 . S
C819 C821 1.356 . S
C819 H867 0.930 . S
C820 N817 1.279 . S
C820 C819 1.358 . S
C820 H823 0.930 . S
C821 C818 1.348 . S
C821 C819 1.356 . S
H822 C816 0.930 . S
H823 C820 0.930 . S
C824 C826 1.348 . S
C824 C827 1.356 . S
C824 O854 1.325 . S
N825 C828 1.314 . S
N825 C829 1.279 . S
C826 C824 1.348 . S
C826 C828 1.353 . S
C826 H868 0.929 . S
C827 C824 1.356 . S
C827 C829 1.358 . S
C827 H869 0.930 . S
C828 N825 1.314 . S
C828 C826 1.353 . S
C828 H870 0.930 . S
C829 N825 1.279 . S
C829 C827 1.358 . S
C829 H871 0.930 . S
C830 C831 1.348 . S
C830 C832 1.356 . S
C830 O855 1.325 . S
C831 C830 1.348 . S
C831 C833 1.353 . S
C831 H872 0.929 . S
C832 C830 1.356 . S
C832 C834 1.358 . S
C832 H873 0.930 . S
C833 C831 1.353 . S
C833 N835 1.314 . S
C833 H874 0.930 . S
C834 C832 1.358 . S
C834 N835 1.279 . S
C834 H875 0.930 1_545 S
N835 C833 1.314 . S
N835 C834 1.279 . S
C836 C838 1.353 . S
C836 N839 1.314 . S
C836 H842 0.930 . S
C837 N839 1.279 . S
C837 C840 1.358 . S
C837 H843 0.930 . S
C838 C836 1.353 . S
C838 C841 1.348 . S
C838 H876 0.929 . S
N839 Li794 1.990 . S
N839 C836 1.314 . S
N839 C837 1.279 . S
C840 C837 1.358 . S
C840 C841 1.356 . S
C840 H877 0.930 . S
C841 C838 1.348 . S
C841 C840 1.356 . S
H842 C836 0.930 . S
H843 C837 0.930 . S
C844 N845 1.314 . S
C844 C846 1.353 . S
C844 H850 0.930 . S
N845 Li795 1.990 . S
N845 C844 1.314 . S
N845 C848 1.279 . S
C846 C844 1.353 . S
C846 C849 1.348 . S
C846 H878 0.929 . S
C847 C848 1.358 . S
C847 C849 1.356 . S
C847 H879 0.930 . S
C848 N845 1.279 . S
C848 C847 1.358 . S
C848 H851 0.930 . S
C849 C846 1.348 . S
C849 C847 1.356 . S
H850 C844 0.930 . S
H851 C848 0.930 . S
O852 Li792 1.956 . S
O852 Li793 1.970 . S
O852 Li794 1.961 . S
O852 C796 1.325 . S
O853 Li792 1.970 . S
O853 Li793 1.956 . S
O853 Li795 1.961 . S
O853 C802 1.325 . S
O854 Li792 1.961 . S
O854 Li794 1.956 . S
O854 Li795 1.970 . S
O854 C824 1.325 . S
O855 Li793 1.961 . S
O855 Li794 1.970 . S
O855 Li795 1.956 . S
O855 C830 1.325 . S
H856 C798 0.929 . S
H857 C799 0.930 . S
H858 C800 0.930 1_554 S
H859 C801 0.930 . S
H860 C803 0.930 . S
H861 C805 0.929 . S
H862 C806 0.930 . S
H863 C807 0.930 . S
H864 C810 0.930 . S
H865 C813 0.929 . S
H866 C818 0.929 . S
H867 C819 0.930 . S
H868 C826 0.929 . S
H869 C827 0.930 . S
H870 C828 0.930 . S
H871 C829 0.930 . S
H872 C831 0.929 . S
H873 C832 0.930 . S
H874 C833 0.930 . S
H875 C834 0.930 1_565 S
H876 C838 0.929 . S
H877 C840 0.930 . S
H878 C846 0.929 . S
H879 C847 0.930 . S
Li880 N897 1.990 . S
Li880 O940 1.956 . S
Li880 O941 1.970 . S
Li880 O942 1.961 . S
Li881 N905 1.990 . S
Li881 O940 1.970 . S
Li881 O941 1.956 . S
Li881 O943 1.961 . S
Li882 N927 1.990 . S
Li882 O940 1.961 . S
Li882 O942 1.956 . S
Li882 O943 1.970 . S
Li883 N933 1.990 . S
Li883 O941 1.961 . S
Li883 O942 1.970 . S
Li883 O943 1.956 . S
C884 C886 1.348 . S
C884 C887 1.356 . S
C884 O940 1.325 . S
N885 C888 1.314 . S
N885 C889 1.279 . S
C886 C884 1.348 . S
C886 C888 1.353 . S
C886 H944 0.929 . S
C887 C884 1.356 . S
C887 C889 1.358 . S
C887 H945 0.930 . S
C888 N885 1.314 . S
C888 C886 1.353 . S
C888 H946 0.930 . S
C889 N885 1.279 . S
C889 C887 1.358 . S
C889 H947 0.930 . S
C890 C893 1.348 . S
C890 C894 1.356 . S
C890 O941 1.325 . S
C891 N892 1.279 . S
C891 C894 1.358 . S
C891 H948 0.930 . S
N892 C891 1.279 . S
N892 C895 1.314 . S
C893 C890 1.348 . S
C893 C895 1.353 . S
C893 H949 0.929 . S
C894 C890 1.356 . S
C894 C891 1.358 . S
C894 H950 0.930 . S
C895 N892 1.314 . S
C895 C893 1.353 . S
C895 H951 0.930 . S
C896 N897 1.314 . S
C896 C901 1.353 . S
C896 H902 0.930 . S
N897 Li880 1.990 . S
N897 C896 1.314 . S
N897 C899 1.279 . S
C898 C899 1.358 . S
C898 C900 1.356 . S
C898 H952 0.930 . S
C899 N897 1.279 . S
C899 C898 1.358 . S
C899 H903 0.930 . S
C900 C898 1.356 . S
C900 C901 1.348 . S
C901 C896 1.353 . S
C901 C900 1.348 . S
C901 H953 0.929 . S
H902 C896 0.930 . S
H903 C899 0.930 . S
C904 N905 1.314 . S
C904 C906 1.353 . S
C904 H910 0.930 . S
N905 Li881 1.990 . S
N905 C904 1.314 . S
N905 C908 1.279 . S
C906 C904 1.353 . S
C906 C909 1.348 . S
C906 H954 0.929 . S
C907 C908 1.358 . S
C907 C909 1.356 . S
C907 H955 0.930 . S
C908 N905 1.279 . S
C908 C907 1.358 . S
C908 H911 0.930 . S
C909 C906 1.348 . S
C909 C907 1.356 . S
H910 C904 0.930 . S
H911 C908 0.930 . S
C912 C914 1.348 . S
C912 C915 1.356 . S
C912 O942 1.325 . S
N913 C916 1.314 . S
N913 C917 1.279 . S
C914 C912 1.348 . S
C914 C916 1.353 . S
C914 H956 0.929 . S
C915 C912 1.356 . S
C915 C917 1.358 . S
C915 H957 0.930 . S
C916 N913 1.314 . S
C916 C914 1.353 . S
C916 H958 0.930 . S
C917 N913 1.279 . S
C917 C915 1.358 . S
C917 H959 0.930 . S
C918 C919 1.348 . S
C918 C920 1.356 . S
C918 O943 1.325 . S
C919 C918 1.348 . S
C919 C921 1.353 . S
C919 H960 0.929 . S
C920 C918 1.356 . S
C920 C922 1.358 . S
C920 H961 0.930 . S
C921 C919 1.353 . S
C921 N923 1.314 . S
C921 H962 0.930 . S
C922 C920 1.358 . S
C922 N923 1.279 . S
C922 H963 0.930 . S
N923 C921 1.314 . S
N923 C922 1.279 . S
C924 C926 1.353 . S
C924 N927 1.314 . S
C924 H930 0.930 . S
C925 N927 1.279 . S
C925 C928 1.358 . S
C925 H931 0.930 . S
C926 C924 1.353 . S
C926 C929 1.348 . S
C926 H964 0.929 . S
N927 Li882 1.990 . S
N927 C924 1.314 . S
N927 C925 1.279 . S
C928 C925 1.358 . S
C928 C929 1.356 . S
C928 H965 0.930 . S
C929 C926 1.348 . S
C929 C928 1.356 . S
H930 C924 0.930 . S
H931 C925 0.930 . S
C932 N933 1.314 . S
C932 C934 1.353 . S
C932 H938 0.930 . S
N933 Li883 1.990 . S
N933 C932 1.314 . S
N933 C936 1.279 . S
C934 C932 1.353 . S
C934 C937 1.348 . S
C934 H966 0.929 . S
C935 C936 1.358 . S
C935 C937 1.356 . S
C935 H967 0.930 . S
C936 N933 1.279 . S
C936 C935 1.358 . S
C936 H939 0.930 . S
C937 C934 1.348 . S
C937 C935 1.356 . S
H938 C932 0.930 . S
H939 C936 0.930 . S
O940 Li880 1.956 . S
O940 Li881 1.970 . S
O940 Li882 1.961 . S
O940 C884 1.325 . S
O941 Li880 1.970 . S
O941 Li881 1.956 . S
O941 Li883 1.961 . S
O941 C890 1.325 . S
O942 Li880 1.961 . S
O942 Li882 1.956 . S
O942 Li883 1.970 . S
O942 C912 1.325 . S
O943 Li881 1.961 . S
O943 Li882 1.970 . S
O943 Li883 1.956 . S
O943 C918 1.325 . S
H944 C886 0.929 . S
H945 C887 0.930 . S
H946 C888 0.930 . S
H947 C889 0.930 . S
H948 C891 0.930 . S
H949 C893 0.929 . S
H950 C894 0.930 . S
H951 C895 0.930 . S
H952 C898 0.930 . S
H953 C901 0.929 . S
H954 C906 0.929 . S
H955 C907 0.930 . S
H956 C914 0.929 . S
H957 C915 0.930 . S
H958 C916 0.930 . S
H959 C917 0.930 . S
H960 C919 0.929 . S
H961 C920 0.930 . S
H962 C921 0.930 . S
H963 C922 0.930 . S
H964 C926 0.929 . S
H965 C928 0.930 . S
H966 C934 0.929 . S
H967 C935 0.930 . S
Li968 N985 1.990 . S
Li968 O1028 1.956 . S
Li968 O1029 1.970 . S
Li968 O1030 1.961 . S
Li969 N993 1.990 . S
Li969 O1028 1.970 . S
Li969 O1029 1.956 . S
Li969 O1031 1.961 . S
Li970 N1015 1.990 . S
Li970 O1028 1.961 . S
Li970 O1030 1.956 . S
Li970 O1031 1.970 . S
Li971 N1021 1.990 . S
Li971 O1029 1.961 . S
Li971 O1030 1.970 . S
Li971 O1031 1.956 . S
C972 C974 1.348 . S
C972 C975 1.356 . S
C972 O1028 1.325 . S
N973 C976 1.314 . S
N973 C977 1.279 . S
C974 C972 1.348 . S
C974 C976 1.353 . S
C974 H1032 0.929 . S
C975 C972 1.356 . S
C975 C977 1.358 . S
C975 H1033 0.930 . S
C976 N973 1.314 . S
C976 C974 1.353 . S
C976 H1034 0.930 . S
C977 N973 1.279 . S
C977 C975 1.358 . S
C977 H1035 0.930 . S
C978 C981 1.348 . S
C978 C982 1.356 . S
C978 O1029 1.325 . S
C979 N980 1.279 . S
C979 C982 1.358 . S
C979 H1036 0.930 . S
N980 C979 1.279 . S
N980 C983 1.314 . S
C981 C978 1.348 . S
C981 C983 1.353 . S
C981 H1037 0.929 . S
C982 C978 1.356 . S
C982 C979 1.358 . S
C982 H1038 0.930 . S
C983 N980 1.314 . S
C983 C981 1.353 . S
C983 H1039 0.930 . S
C984 N985 1.314 . S
C984 C989 1.353 . S
C984 H990 0.930 . S
N985 Li968 1.990 . S
N985 C984 1.314 . S
N985 C987 1.279 . S
C986 C987 1.358 . S
C986 C988 1.356 . S
C986 H1040 0.930 . S
C987 N985 1.279 . S
C987 C986 1.358 . S
C987 H991 0.930 . S
C988 C986 1.356 . S
C988 C989 1.348 . S
C989 C984 1.353 . S
C989 C988 1.348 . S
C989 H1041 0.929 . S
H990 C984 0.930 . S
H991 C987 0.930 . S
C992 N993 1.314 . S
C992 C994 1.353 . S
C992 H998 0.930 . S
N993 Li969 1.990 . S
N993 C992 1.314 . S
N993 C996 1.279 . S
C994 C992 1.353 . S
C994 C997 1.348 . S
C994 H1042 0.929 . S
C995 C996 1.358 . S
C995 C997 1.356 . S
C995 H1043 0.930 . S
C996 N993 1.279 . S
C996 C995 1.358 . S
C996 H999 0.930 . S
C997 C994 1.348 . S
C997 C995 1.356 . S
H998 C992 0.930 . S
H999 C996 0.930 . S
C1000 C1002 1.348 . S
C1000 C1003 1.356 . S
C1000 O1030 1.325 . S
N1001 C1004 1.314 . S
N1001 C1005 1.279 . S
C1002 C1000 1.348 . S
C1002 C1004 1.353 . S
C1002 H1044 0.929 . S
C1003 C1000 1.356 . S
C1003 C1005 1.358 . S
C1003 H1045 0.930 . S
C1004 N1001 1.314 . S
C1004 C1002 1.353 . S
C1004 H1046 0.930 . S
C1005 N1001 1.279 . S
C1005 C1003 1.358 . S
C1005 H1047 0.930 1_565 S
C1006 C1007 1.348 . S
C1006 C1008 1.356 . S
C1006 O1031 1.325 . S
C1007 C1006 1.348 . S
C1007 C1009 1.353 . S
C1007 H1048 0.929 . S
C1008 C1006 1.356 . S
C1008 C1010 1.358 . S
C1008 H1049 0.930 . S
C1009 C1007 1.353 . S
C1009 N1011 1.314 . S
C1009 H1050 0.930 . S
C1010 C1008 1.358 . S
C1010 N1011 1.279 . S
C1010 H1051 0.930 . S
N1011 C1009 1.314 . S
N1011 C1010 1.279 . S
C1012 C1014 1.353 . S
C1012 N1015 1.314 . S
C1012 H1018 0.930 . S
C1013 N1015 1.279 . S
C1013 C1016 1.358 . S
C1013 H1019 0.930 . S
C1014 C1012 1.353 . S
C1014 C1017 1.348 . S
C1014 H1052 0.929 . S
N1015 Li970 1.990 . S
N1015 C1012 1.314 . S
N1015 C1013 1.279 . S
C1016 C1013 1.358 . S
C1016 C1017 1.356 . S
C1016 H1053 0.930 . S
C1017 C1014 1.348 . S
C1017 C1016 1.356 . S
H1018 C1012 0.930 . S
H1019 C1013 0.930 . S
C1020 N1021 1.314 . S
C1020 C1022 1.353 . S
C1020 H1026 0.930 . S
N1021 Li971 1.990 . S
N1021 C1020 1.314 . S
N1021 C1024 1.279 . S
C1022 C1020 1.353 . S
C1022 C1025 1.348 . S
C1022 H1054 0.929 . S
C1023 C1024 1.358 . S
C1023 C1025 1.356 . S
C1023 H1055 0.930 . S
C1024 N1021 1.279 . S
C1024 C1023 1.358 . S
C1024 H1027 0.930 . S
C1025 C1022 1.348 . S
C1025 C1023 1.356 . S
H1026 C1020 0.930 . S
H1027 C1024 0.930 . S
O1028 Li968 1.956 . S
O1028 Li969 1.970 . S
O1028 Li970 1.961 . S
O1028 C972 1.325 . S
O1029 Li968 1.970 . S
O1029 Li969 1.956 . S
O1029 Li971 1.961 . S
O1029 C978 1.325 . S
O1030 Li968 1.961 . S
O1030 Li970 1.956 . S
O1030 Li971 1.970 . S
O1030 C1000 1.325 . S
O1031 Li969 1.961 . S
O1031 Li970 1.970 . S
O1031 Li971 1.956 . S
O1031 C1006 1.325 . S
H1032 C974 0.929 . S
H1033 C975 0.930 . S
H1034 C976 0.930 . S
H1035 C977 0.930 . S
H1036 C979 0.930 . S
H1037 C981 0.929 . S
H1038 C982 0.930 . S
H1039 C983 0.930 . S
H1040 C986 0.930 . S
H1041 C989 0.929 . S
H1042 C994 0.929 . S
H1043 C995 0.930 . S
H1044 C1002 0.929 . S
H1045 C1003 0.930 . S
H1046 C1004 0.930 . S
H1047 C1005 0.930 1_545 S
H1048 C1007 0.929 . S
H1049 C1008 0.930 . S
H1050 C1009 0.930 . S
H1051 C1010 0.930 . S
H1052 C1014 0.929 . S
H1053 C1016 0.930 . S
H1054 C1022 0.929 . S
H1055 C1023 0.930 . S
Li1056 N1073 1.990 . S
Li1056 O1116 1.956 . S
Li1056 O1117 1.970 . S
Li1056 O1118 1.961 1_554 S
Li1057 N1081 1.990 . S
Li1057 O1116 1.970 . S
Li1057 O1117 1.956 . S
Li1057 O1119 1.961 . S
Li1058 N1103 1.990 1_554 S
Li1058 O1116 1.961 . S
Li1058 O1118 1.956 1_554 S
Li1058 O1119 1.970 . S
Li1059 N1109 1.990 . S
Li1059 O1117 1.961 1_556 S
Li1059 O1118 1.970 . S
Li1059 O1119 1.956 1_556 S
C1060 C1062 1.348 . S
C1060 C1063 1.356 . S
C1060 O1116 1.325 . S
N1061 C1064 1.314 . S
N1061 C1065 1.279 . S
C1062 C1060 1.348 . S
C1062 C1064 1.353 . S
C1062 H1120 0.929 . S
C1063 C1060 1.356 . S
C1063 C1065 1.358 . S
C1063 H1121 0.930 . S
C1064 N1061 1.314 . S
C1064 C1062 1.353 . S
C1064 H1122 0.930 . S
C1065 N1061 1.279 . S
C1065 C1063 1.358 . S
C1065 H1123 0.930 . S
C1066 C1069 1.348 . S
C1066 C1070 1.356 . S
C1066 O1117 1.325 . S
C1067 N1068 1.279 . S
C1067 C1070 1.358 . S
C1067 H1124 0.930 . S
N1068 C1067 1.279 . S
N1068 C1071 1.314 . S
C1069 C1066 1.348 . S
C1069 C1071 1.353 . S
C1069 H1125 0.929 . S
C1070 C1066 1.356 . S
C1070 C1067 1.358 . S
C1070 H1126 0.930 . S
C1071 N1068 1.314 . S
C1071 C1069 1.353 . S
C1071 H1127 0.930 . S
C1072 N1073 1.314 1_556 S
C1072 C1077 1.353 . S
C1072 H1078 0.930 . S
N1073 Li1056 1.990 . S
N1073 C1072 1.314 1_554 S
N1073 C1075 1.279 . S
C1074 C1075 1.358 . S
C1074 C1076 1.356 . S
C1074 H1128 0.930 . S
C1075 N1073 1.279 . S
C1075 C1074 1.358 . S
C1075 H1079 0.930 . S
C1076 C1074 1.356 . S
C1076 C1077 1.348 1_554 S
C1077 C1072 1.353 . S
C1077 C1076 1.348 1_556 S
C1077 H1129 0.929 . S
H1078 C1072 0.930 . S
H1079 C1075 0.930 . S
C1080 N1081 1.314 . S
C1080 C1082 1.353 . S
C1080 H1086 0.930 . S
N1081 Li1057 1.990 . S
N1081 C1080 1.314 . S
N1081 C1084 1.279 . S
C1082 C1080 1.353 . S
C1082 C1085 1.348 . S
C1082 H1130 0.929 . S
C1083 C1084 1.358 . S
C1083 C1085 1.356 . S
C1083 H1131 0.930 . S
C1084 N1081 1.279 . S
C1084 C1083 1.358 . S
C1084 H1087 0.930 . S
C1085 C1082 1.348 . S
C1085 C1083 1.356 . S
H1086 C1080 0.930 . S
H1087 C1084 0.930 . S
C1088 C1090 1.348 . S
C1088 C1091 1.356 . S
C1088 O1118 1.325 . S
N1089 C1092 1.314 . S
N1089 C1093 1.279 . S
C1090 C1088 1.348 . S
C1090 C1092 1.353 . S
C1090 H1132 0.929 . S
C1091 C1088 1.356 . S
C1091 C1093 1.358 . S
C1091 H1133 0.930 . S
C1092 N1089 1.314 . S
C1092 C1090 1.353 . S
C1092 H1134 0.930 . S
C1093 N1089 1.279 . S
C1093 C1091 1.358 . S
C1093 H1135 0.930 . S
C1094 C1095 1.348 1_554 S
C1094 C1096 1.356 . S
C1094 O1119 1.325 . S
C1095 C1094 1.348 1_556 S
C1095 C1097 1.353 . S
C1095 H1136 0.929 . S
C1096 C1094 1.356 . S
C1096 C1098 1.358 . S
C1096 H1137 0.930 . S
C1097 C1095 1.353 . S
C1097 N1099 1.314 1_556 S
C1097 H1138 0.930 . S
C1098 C1096 1.358 . S
C1098 N1099 1.279 . S
C1098 H1139 0.930 . S
N1099 C1097 1.314 1_554 S
N1099 C1098 1.279 . S
C1100 C1102 1.353 . S
C1100 N1103 1.314 1_554 S
C1100 H1106 0.930 . S
C1101 N1103 1.279 . S
C1101 C1104 1.358 . S
C1101 H1107 0.930 . S
C1102 C1100 1.353 . S
C1102 C1105 1.348 1_554 S
C1102 H1140 0.929 . S
N1103 Li1058 1.990 1_556 S
N1103 C1100 1.314 1_556 S
N1103 C1101 1.279 . S
C1104 C1101 1.358 . S
C1104 C1105 1.356 . S
C1104 H1141 0.930 . S
C1105 C1102 1.348 1_556 S
C1105 C1104 1.356 . S
H1106 C1100 0.930 . S
H1107 C1101 0.930 . S
C1108 N1109 1.314 . S
C1108 C1110 1.353 . S
C1108 H1114 0.930 . S
N1109 Li1059 1.990 . S
N1109 C1108 1.314 . S
N1109 C1112 1.279 . S
C1110 C1108 1.353 . S
C1110 C1113 1.348 . S
C1110 H1142 0.929 . S
C1111 C1112 1.358 . S
C1111 C1113 1.356 . S
C1111 H1143 0.930 . S
C1112 N1109 1.279 . S
C1112 C1111 1.358 . S
C1112 H1115 0.930 . S
C1113 C1110 1.348 . S
C1113 C1111 1.356 . S
H1114 C1108 0.930 . S
H1115 C1112 0.930 . S
O1116 Li1056 1.956 . S
O1116 Li1057 1.970 . S
O1116 Li1058 1.961 . S
O1116 C1060 1.325 . S
O1117 Li1056 1.970 . S
O1117 Li1057 1.956 . S
O1117 Li1059 1.961 1_554 S
O1117 C1066 1.325 . S
O1118 Li1056 1.961 1_556 S
O1118 Li1058 1.956 1_556 S
O1118 Li1059 1.970 . S
O1118 C1088 1.325 . S
O1119 Li1057 1.961 . S
O1119 Li1058 1.970 . S
O1119 Li1059 1.956 1_554 S
O1119 C1094 1.325 . S
H1120 C1062 0.929 . S
H1121 C1063 0.930 . S
H1122 C1064 0.930 . S
H1123 C1065 0.930 . S
H1124 C1067 0.930 . S
H1125 C1069 0.929 . S
H1126 C1070 0.930 . S
H1127 C1071 0.930 . S
H1128 C1074 0.930 . S
H1129 C1077 0.929 . S
H1130 C1082 0.929 . S
H1131 C1083 0.930 . S
H1132 C1090 0.929 . S
H1133 C1091 0.930 . S
H1134 C1092 0.930 . S
H1135 C1093 0.930 . S
H1136 C1095 0.929 . S
H1137 C1096 0.930 . S
H1138 C1097 0.930 . S
H1139 C1098 0.930 . S
H1140 C1102 0.929 . S
H1141 C1104 0.930 . S
H1142 C1110 0.929 . S
H1143 C1111 0.930 . S
Li1144 N1161 1.990 . S
Li1144 O1204 1.956 . S
Li1144 O1205 1.970 . S
Li1144 O1206 1.961 . S
Li1145 N1169 1.990 . S
Li1145 O1204 1.970 . S
Li1145 O1205 1.956 . S
Li1145 O1207 1.961 . S
Li1146 N1191 1.990 . S
Li1146 O1204 1.961 . S
Li1146 O1206 1.956 . S
Li1146 O1207 1.970 . S
Li1147 N1197 1.990 . S
Li1147 O1205 1.961 . S
Li1147 O1206 1.970 . S
Li1147 O1207 1.956 . S
C1148 C1150 1.348 . S
C1148 C1151 1.356 . S
C1148 O1204 1.325 . S
N1149 C1152 1.314 . S
N1149 C1153 1.279 . S
C1150 C1148 1.348 . S
C1150 C1152 1.353 . S
C1150 H1208 0.929 . S
C1151 C1148 1.356 . S
C1151 C1153 1.358 . S
C1151 H1209 0.930 . S
C1152 N1149 1.314 . S
C1152 C1150 1.353 . S
C1152 H1210 0.930 . S
C1153 N1149 1.279 . S
C1153 C1151 1.358 . S
C1153 H1211 0.930 1_545 S
C1154 C1157 1.348 . S
C1154 C1158 1.356 . S
C1154 O1205 1.325 . S
C1155 N1156 1.279 . S
C1155 C1158 1.358 . S
C1155 H1212 0.930 . S
N1156 C1155 1.279 . S
N1156 C1159 1.314 . S
C1157 C1154 1.348 . S
C1157 C1159 1.353 . S
C1157 H1213 0.929 . S
C1158 C1154 1.356 . S
C1158 C1155 1.358 . S
C1158 H1214 0.930 . S
C1159 N1156 1.314 . S
C1159 C1157 1.353 . S
C1159 H1215 0.930 . S
C1160 N1161 1.314 . S
C1160 C1165 1.353 . S
C1160 H1166 0.930 . S
N1161 Li1144 1.990 . S
N1161 C1160 1.314 . S
N1161 C1163 1.279 . S
C1162 C1163 1.358 . S
C1162 C1164 1.356 . S
C1162 H1216 0.930 . S
C1163 N1161 1.279 . S
C1163 C1162 1.358 . S
C1163 H1167 0.930 . S
C1164 C1162 1.356 . S
C1164 C1165 1.348 . S
C1165 C1160 1.353 . S
C1165 C1164 1.348 . S
C1165 H1217 0.929 . S
H1166 C1160 0.930 . S
H1167 C1163 0.930 . S
C1168 N1169 1.314 . S
C1168 C1170 1.353 . S
C1168 H1174 0.930 . S
N1169 Li1145 1.990 . S
N1169 C1168 1.314 . S
N1169 C1172 1.279 . S
C1170 C1168 1.353 . S
C1170 C1173 1.348 . S
C1170 H1218 0.929 . S
C1171 C1172 1.358 . S
C1171 C1173 1.356 . S
C1171 H1219 0.930 . S
C1172 N1169 1.279 . S
C1172 C1171 1.358 . S
C1172 H1175 0.930 . S
C1173 C1170 1.348 . S
C1173 C1171 1.356 . S
H1174 C1168 0.930 . S
H1175 C1172 0.930 . S
C1176 C1178 1.348 . S
C1176 C1179 1.356 . S
C1176 O1206 1.325 . S
N1177 C1180 1.314 . S
N1177 C1181 1.279 . S
C1178 C1176 1.348 . S
C1178 C1180 1.353 . S
C1178 H1220 0.929 . S
C1179 C1176 1.356 . S
C1179 C1181 1.358 . S
C1179 H1221 0.930 . S
C1180 N1177 1.314 . S
C1180 C1178 1.353 . S
C1180 H1222 0.930 . S
C1181 N1177 1.279 . S
C1181 C1179 1.358 . S
C1181 H1223 0.930 . S
C1182 C1183 1.348 . S
C1182 C1184 1.356 . S
C1182 O1207 1.325 . S
C1183 C1182 1.348 . S
C1183 C1185 1.353 . S
C1183 H1224 0.929 . S
C1184 C1182 1.356 . S
C1184 C1186 1.358 . S
C1184 H1225 0.930 . S
C1185 C1183 1.353 . S
C1185 N1187 1.314 . S
C1185 H1226 0.930 . S
C1186 C1184 1.358 . S
C1186 N1187 1.279 . S
C1186 H1227 0.930 . S
N1187 C1185 1.314 . S
N1187 C1186 1.279 . S
C1188 C1190 1.353 . S
C1188 N1191 1.314 . S
C1188 H1194 0.930 . S
C1189 N1191 1.279 . S
C1189 C1192 1.358 . S
C1189 H1195 0.930 . S
C1190 C1188 1.353 . S
C1190 C1193 1.348 . S
C1190 H1228 0.929 . S
N1191 Li1146 1.990 . S
N1191 C1188 1.314 . S
N1191 C1189 1.279 . S
C1192 C1189 1.358 . S
C1192 C1193 1.356 . S
C1192 H1229 0.930 . S
C1193 C1190 1.348 . S
C1193 C1192 1.356 . S
H1194 C1188 0.930 . S
H1195 C1189 0.930 . S
C1196 N1197 1.314 . S
C1196 C1198 1.353 . S
C1196 H1202 0.930 . S
N1197 Li1147 1.990 . S
N1197 C1196 1.314 . S
N1197 C1200 1.279 . S
C1198 C1196 1.353 . S
C1198 C1201 1.348 . S
C1198 H1230 0.929 . S
C1199 C1200 1.358 . S
C1199 C1201 1.356 . S
C1199 H1231 0.930 . S
C1200 N1197 1.279 . S
C1200 C1199 1.358 . S
C1200 H1203 0.930 . S
C1201 C1198 1.348 . S
C1201 C1199 1.356 . S
H1202 C1196 0.930 . S
H1203 C1200 0.930 . S
O1204 Li1144 1.956 . S
O1204 Li1145 1.970 . S
O1204 Li1146 1.961 . S
O1204 C1148 1.325 . S
O1205 Li1144 1.970 . S
O1205 Li1145 1.956 . S
O1205 Li1147 1.961 . S
O1205 C1154 1.325 . S
O1206 Li1144 1.961 . S
O1206 Li1146 1.956 . S
O1206 Li1147 1.970 . S
O1206 C1176 1.325 . S
O1207 Li1145 1.961 . S
O1207 Li1146 1.970 . S
O1207 Li1147 1.956 . S
O1207 C1182 1.325 . S
H1208 C1150 0.929 . S
H1209 C1151 0.930 . S
H1210 C1152 0.930 . S
H1211 C1153 0.930 1_565 S
H1212 C1155 0.930 . S
H1213 C1157 0.929 . S
H1214 C1158 0.930 . S
H1215 C1159 0.930 . S
H1216 C1162 0.930 . S
H1217 C1165 0.929 . S
H1218 C1170 0.929 . S
H1219 C1171 0.930 . S
H1220 C1178 0.929 . S
H1221 C1179 0.930 . S
H1222 C1180 0.930 . S
H1223 C1181 0.930 . S
H1224 C1183 0.929 . S
H1225 C1184 0.930 . S
H1226 C1185 0.930 . S
H1227 C1186 0.930 . S
H1228 C1190 0.929 . S
H1229 C1192 0.930 . S
H1230 C1198 0.929 . S
H1231 C1199 0.930 . S
Li1232 N1249 1.990 . S
Li1232 O1292 1.956 . S
Li1232 O1293 1.970 . S
Li1232 O1294 1.961 . S
Li1233 N1257 1.990 . S
Li1233 O1292 1.970 . S
Li1233 O1293 1.956 . S
Li1233 O1295 1.961 . S
Li1234 N1279 1.990 . S
Li1234 O1292 1.961 . S
Li1234 O1294 1.956 . S
Li1234 O1295 1.970 . S
Li1235 N1285 1.990 . S
Li1235 O1293 1.961 . S
Li1235 O1294 1.970 . S
Li1235 O1295 1.956 . S
C1236 C1238 1.348 . S
C1236 C1239 1.356 . S
C1236 O1292 1.325 . S
N1237 C1240 1.314 . S
N1237 C1241 1.279 . S
C1238 C1236 1.348 . S
C1238 C1240 1.353 . S
C1238 H1296 0.929 . S
C1239 C1236 1.356 . S
C1239 C1241 1.358 . S
C1239 H1297 0.930 . S
C1240 N1237 1.314 . S
C1240 C1238 1.353 . S
C1240 H1298 0.930 . S
C1241 N1237 1.279 . S
C1241 C1239 1.358 . S
C1241 H1299 0.930 . S
C1242 C1245 1.348 . S
C1242 C1246 1.356 . S
C1242 O1293 1.325 . S
C1243 N1244 1.279 . S
C1243 C1246 1.358 . S
C1243 H1300 0.930 . S
N1244 C1243 1.279 . S
N1244 C1247 1.314 . S
C1245 C1242 1.348 . S
C1245 C1247 1.353 . S
C1245 H1301 0.929 . S
C1246 C1242 1.356 . S
C1246 C1243 1.358 . S
C1246 H1302 0.930 . S
C1247 N1244 1.314 . S
C1247 C1245 1.353 . S
C1247 H1303 0.930 . S
C1248 N1249 1.314 . S
C1248 C1253 1.353 . S
C1248 H1254 0.930 . S
N1249 Li1232 1.990 . S
N1249 C1248 1.314 . S
N1249 C1251 1.279 . S
C1250 C1251 1.358 . S
C1250 C1252 1.356 . S
C1250 H1304 0.930 . S
C1251 N1249 1.279 . S
C1251 C1250 1.358 . S
C1251 H1255 0.930 . S
C1252 C1250 1.356 . S
C1252 C1253 1.348 . S
C1253 C1248 1.353 . S
C1253 C1252 1.348 . S
C1253 H1305 0.929 . S
H1254 C1248 0.930 . S
H1255 C1251 0.930 . S
C1256 N1257 1.314 . S
C1256 C1258 1.353 . S
C1256 H1262 0.930 . S
N1257 Li1233 1.990 . S
N1257 C1256 1.314 . S
N1257 C1260 1.279 . S
C1258 C1256 1.353 . S
C1258 C1261 1.348 . S
C1258 H1306 0.929 . S
C1259 C1260 1.358 . S
C1259 C1261 1.356 . S
C1259 H1307 0.930 . S
C1260 N1257 1.279 . S
C1260 C1259 1.358 . S
C1260 H1263 0.930 . S
C1261 C1258 1.348 . S
C1261 C1259 1.356 . S
H1262 C1256 0.930 . S
H1263 C1260 0.930 . S
C1264 C1266 1.348 . S
C1264 C1267 1.356 . S
C1264 O1294 1.325 . S
N1265 C1268 1.314 . S
N1265 C1269 1.279 . S
C1266 C1264 1.348 . S
C1266 C1268 1.353 . S
C1266 H1308 0.929 . S
C1267 C1264 1.356 . S
C1267 C1269 1.358 . S
C1267 H1309 0.930 . S
C1268 N1265 1.314 . S
C1268 C1266 1.353 . S
C1268 H1310 0.930 . S
C1269 N1265 1.279 . S
C1269 C1267 1.358 . S
C1269 H1311 0.930 . S
C1270 C1271 1.348 . S
C1270 C1272 1.356 . S
C1270 O1295 1.325 . S
C1271 C1270 1.348 . S
C1271 C1273 1.353 . S
C1271 H1312 0.929 . S
C1272 C1270 1.356 . S
C1272 C1274 1.358 . S
C1272 H1313 0.930 . S
C1273 C1271 1.353 . S
C1273 N1275 1.314 . S
C1273 H1314 0.930 . S
C1274 C1272 1.358 . S
C1274 N1275 1.279 . S
C1274 H1315 0.930 . S
N1275 C1273 1.314 . S
N1275 C1274 1.279 . S
C1276 C1278 1.353 . S
C1276 N1279 1.314 . S
C1276 H1282 0.930 . S
C1277 N1279 1.279 . S
C1277 C1280 1.358 . S
C1277 H1283 0.930 . S
C1278 C1276 1.353 . S
C1278 C1281 1.348 . S
C1278 H1316 0.929 . S
N1279 Li1234 1.990 . S
N1279 C1276 1.314 . S
N1279 C1277 1.279 . S
C1280 C1277 1.358 . S
C1280 C1281 1.356 . S
C1280 H1317 0.930 . S
C1281 C1278 1.348 . S
C1281 C1280 1.356 . S
H1282 C1276 0.930 . S
H1283 C1277 0.930 . S
C1284 N1285 1.314 . S
C1284 C1286 1.353 . S
C1284 H1290 0.930 . S
N1285 Li1235 1.990 . S
N1285 C1284 1.314 . S
N1285 C1288 1.279 . S
C1286 C1284 1.353 . S
C1286 C1289 1.348 . S
C1286 H1318 0.929 . S
C1287 C1288 1.358 . S
C1287 C1289 1.356 . S
C1287 H1319 0.930 . S
C1288 N1285 1.279 . S
C1288 C1287 1.358 . S
C1288 H1291 0.930 . S
C1289 C1286 1.348 . S
C1289 C1287 1.356 . S
H1290 C1284 0.930 . S
H1291 C1288 0.930 . S
O1292 Li1232 1.956 . S
O1292 Li1233 1.970 . S
O1292 Li1234 1.961 . S
O1292 C1236 1.325 . S
O1293 Li1232 1.970 . S
O1293 Li1233 1.956 . S
O1293 Li1235 1.961 . S
O1293 C1242 1.325 . S
O1294 Li1232 1.961 . S
O1294 Li1234 1.956 . S
O1294 Li1235 1.970 . S
O1294 C1264 1.325 . S
O1295 Li1233 1.961 . S
O1295 Li1234 1.970 . S
O1295 Li1235 1.956 . S
O1295 C1270 1.325 . S
H1296 C1238 0.929 . S
H1297 C1239 0.930 . S
H1298 C1240 0.930 . S
H1299 C1241 0.930 . S
H1300 C1243 0.930 . S
H1301 C1245 0.929 . S
H1302 C1246 0.930 . S
H1303 C1247 0.930 . S
H1304 C1250 0.930 . S
H1305 C1253 0.929 . S
H1306 C1258 0.929 . S
H1307 C1259 0.930 . S
H1308 C1266 0.929 . S
H1309 C1267 0.930 . S
H1310 C1268 0.930 . S
H1311 C1269 0.930 . S
H1312 C1271 0.929 . S
H1313 C1272 0.930 . S
H1314 C1273 0.930 . S
H1315 C1274 0.930 . S
H1316 C1278 0.929 . S
H1317 C1280 0.930 . S
H1318 C1286 0.929 . S
H1319 C1287 0.930 . S
Li1320 N1337 1.990 . S
Li1320 O1380 1.956 . S
Li1320 O1381 1.970 . S
Li1320 O1382 1.961 . S
Li1321 N1345 1.990 . S
Li1321 O1380 1.970 . S
Li1321 O1381 1.956 . S
Li1321 O1383 1.961 . S
Li1322 N1367 1.990 . S
Li1322 O1380 1.961 . S
Li1322 O1382 1.956 . S
Li1322 O1383 1.970 . S
Li1323 N1373 1.990 . S
Li1323 O1381 1.961 . S
Li1323 O1382 1.970 . S
Li1323 O1383 1.956 . S
C1324 C1326 1.348 . S
C1324 C1327 1.356 . S
C1324 O1380 1.325 . S
N1325 C1328 1.314 . S
N1325 C1329 1.279 . S
C1326 C1324 1.348 . S
C1326 C1328 1.353 . S
C1326 H1384 0.929 . S
C1327 C1324 1.356 . S
C1327 C1329 1.358 . S
C1327 H1385 0.930 . S
C1328 N1325 1.314 . S
C1328 C1326 1.353 . S
C1328 H1386 0.930 . S
C1329 N1325 1.279 . S
C1329 C1327 1.358 . S
C1329 H1387 0.930 1_565 S
C1330 C1333 1.348 . S
C1330 C1334 1.356 . S
C1330 O1381 1.325 . S
C1331 N1332 1.279 . S
C1331 C1334 1.358 . S
C1331 H1388 0.930 . S
N1332 C1331 1.279 . S
N1332 C1335 1.314 . S
C1333 C1330 1.348 . S
C1333 C1335 1.353 . S
C1333 H1389 0.929 . S
C1334 C1330 1.356 . S
C1334 C1331 1.358 . S
C1334 H1390 0.930 . S
C1335 N1332 1.314 . S
C1335 C1333 1.353 . S
C1335 H1391 0.930 . S
C1336 N1337 1.314 . S
C1336 C1341 1.353 . S
C1336 H1342 0.930 . S
N1337 Li1320 1.990 . S
N1337 C1336 1.314 . S
N1337 C1339 1.279 . S
C1338 C1339 1.358 . S
C1338 C1340 1.356 . S
C1338 H1392 0.930 . S
C1339 N1337 1.279 . S
C1339 C1338 1.358 . S
C1339 H1343 0.930 . S
C1340 C1338 1.356 . S
C1340 C1341 1.348 . S
C1341 C1336 1.353 . S
C1341 C1340 1.348 . S
C1341 H1393 0.929 . S
H1342 C1336 0.930 . S
H1343 C1339 0.930 . S
C1344 N1345 1.314 . S
C1344 C1346 1.353 . S
C1344 H1350 0.930 . S
N1345 Li1321 1.990 . S
N1345 C1344 1.314 . S
N1345 C1348 1.279 . S
C1346 C1344 1.353 . S
C1346 C1349 1.348 . S
C1346 H1394 0.929 . S
C1347 C1348 1.358 . S
C1347 C1349 1.356 . S
C1347 H1395 0.930 . S
C1348 N1345 1.279 . S
C1348 C1347 1.358 . S
C1348 H1351 0.930 . S
C1349 C1346 1.348 . S
C1349 C1347 1.356 . S
H1350 C1344 0.930 . S
H1351 C1348 0.930 . S
C1352 C1354 1.348 . S
C1352 C1355 1.356 . S
C1352 O1382 1.325 . S
N1353 C1356 1.314 . S
N1353 C1357 1.279 . S
C1354 C1352 1.348 . S
C1354 C1356 1.353 . S
C1354 H1396 0.929 . S
C1355 C1352 1.356 . S
C1355 C1357 1.358 . S
C1355 H1397 0.930 . S
C1356 N1353 1.314 . S
C1356 C1354 1.353 . S
C1356 H1398 0.930 . S
C1357 N1353 1.279 . S
C1357 C1355 1.358 . S
C1357 H1399 0.930 . S
C1358 C1359 1.348 . S
C1358 C1360 1.356 . S
C1358 O1383 1.325 . S
C1359 C1358 1.348 . S
C1359 C1361 1.353 . S
C1359 H1400 0.929 . S
C1360 C1358 1.356 . S
C1360 C1362 1.358 . S
C1360 H1401 0.930 . S
C1361 C1359 1.353 . S
C1361 N1363 1.314 . S
C1361 H1402 0.930 . S
C1362 C1360 1.358 . S
C1362 N1363 1.279 . S
C1362 H1403 0.930 . S
N1363 C1361 1.314 . S
N1363 C1362 1.279 . S
C1364 C1366 1.353 . S
C1364 N1367 1.314 . S
C1364 H1370 0.930 . S
C1365 N1367 1.279 . S
C1365 C1368 1.358 . S
C1365 H1371 0.930 . S
C1366 C1364 1.353 . S
C1366 C1369 1.348 . S
C1366 H1404 0.929 . S
N1367 Li1322 1.990 . S
N1367 C1364 1.314 . S
N1367 C1365 1.279 . S
C1368 C1365 1.358 . S
C1368 C1369 1.356 . S
C1368 H1405 0.930 . S
C1369 C1366 1.348 . S
C1369 C1368 1.356 . S
H1370 C1364 0.930 . S
H1371 C1365 0.930 . S
C1372 N1373 1.314 . S
C1372 C1374 1.353 . S
C1372 H1378 0.930 . S
N1373 Li1323 1.990 . S
N1373 C1372 1.314 . S
N1373 C1376 1.279 . S
C1374 C1372 1.353 . S
C1374 C1377 1.348 . S
C1374 H1406 0.929 . S
C1375 C1376 1.358 . S
C1375 C1377 1.356 . S
C1375 H1407 0.930 . S
C1376 N1373 1.279 . S
C1376 C1375 1.358 . S
C1376 H1379 0.930 . S
C1377 C1374 1.348 . S
C1377 C1375 1.356 . S
H1378 C1372 0.930 . S
H1379 C1376 0.930 . S
O1380 Li1320 1.956 . S
O1380 Li1321 1.970 . S
O1380 Li1322 1.961 . S
O1380 C1324 1.325 . S
O1381 Li1320 1.970 . S
O1381 Li1321 1.956 . S
O1381 Li1323 1.961 . S
O1381 C1330 1.325 . S
O1382 Li1320 1.961 . S
O1382 Li1322 1.956 . S
O1382 Li1323 1.970 . S
O1382 C1352 1.325 . S
O1383 Li1321 1.961 . S
O1383 Li1322 1.970 . S
O1383 Li1323 1.956 . S
O1383 C1358 1.325 . S
H1384 C1326 0.929 . S
H1385 C1327 0.930 . S
H1386 C1328 0.930 . S
H1387 C1329 0.930 1_545 S
H1388 C1331 0.930 . S
H1389 C1333 0.929 . S
H1390 C1334 0.930 . S
H1391 C1335 0.930 . S
H1392 C1338 0.930 . S
H1393 C1341 0.929 . S
H1394 C1346 0.929 . S
H1395 C1347 0.930 . S
H1396 C1354 0.929 . S
H1397 C1355 0.930 . S
H1398 C1356 0.930 . S
H1399 C1357 0.930 . S
H1400 C1359 0.929 . S
H1401 C1360 0.930 . S
H1402 C1361 0.930 . S
H1403 C1362 0.930 . S
H1404 C1366 0.929 . S
H1405 C1368 0.930 . S
H1406 C1374 0.929 . S
H1407 C1375 0.930 . S
Li1408 N1425 1.990 . S
Li1408 O1468 1.956 . S
Li1408 O1469 1.970 . S
Li1408 O1470 1.961 . S
Li1409 N1433 1.990 . S
Li1409 O1468 1.970 . S
Li1409 O1469 1.956 . S
Li1409 O1471 1.961 . S
Li1410 N1455 1.990 . S
Li1410 O1468 1.961 . S
Li1410 O1470 1.956 . S
Li1410 O1471 1.970 . S
Li1411 N1461 1.990 . S
Li1411 O1469 1.961 . S
Li1411 O1470 1.970 . S
Li1411 O1471 1.956 . S
C1412 C1414 1.348 . S
C1412 C1415 1.356 . S
C1412 O1468 1.325 . S
N1413 C1416 1.314 . S
N1413 C1417 1.279 . S
C1414 C1412 1.348 . S
C1414 C1416 1.353 . S
C1414 H1472 0.929 . S
C1415 C1412 1.356 . S
C1415 C1417 1.358 . S
C1415 H1473 0.930 . S
C1416 N1413 1.314 . S
C1416 C1414 1.353 . S
C1416 H1474 0.930 . S
C1417 N1413 1.279 . S
C1417 C1415 1.358 . S
C1417 H1475 0.930 . S
C1418 C1421 1.348 . S
C1418 C1422 1.356 . S
C1418 O1469 1.325 . S
C1419 N1420 1.279 . S
C1419 C1422 1.358 . S
C1419 H1476 0.930 . S
N1420 C1419 1.279 . S
N1420 C1423 1.314 . S
C1421 C1418 1.348 . S
C1421 C1423 1.353 . S
C1421 H1477 0.929 . S
C1422 C1418 1.356 . S
C1422 C1419 1.358 . S
C1422 H1478 0.930 . S
C1423 N1420 1.314 . S
C1423 C1421 1.353 . S
C1423 H1479 0.930 . S
C1424 N1425 1.314 . S
C1424 C1429 1.353 . S
C1424 H1430 0.930 . S
N1425 Li1408 1.990 . S
N1425 C1424 1.314 . S
N1425 C1427 1.279 . S
C1426 C1427 1.358 . S
C1426 C1428 1.356 . S
C1426 H1480 0.930 . S
C1427 N1425 1.279 . S
C1427 C1426 1.358 . S
C1427 H1431 0.930 . S
C1428 C1426 1.356 . S
C1428 C1429 1.348 . S
C1429 C1424 1.353 . S
C1429 C1428 1.348 . S
C1429 H1481 0.929 . S
H1430 C1424 0.930 . S
H1431 C1427 0.930 . S
C1432 N1433 1.314 . S
C1432 C1434 1.353 . S
C1432 H1438 0.930 . S
N1433 Li1409 1.990 . S
N1433 C1432 1.314 . S
N1433 C1436 1.279 . S
C1434 C1432 1.353 . S
C1434 C1437 1.348 . S
C1434 H1482 0.929 . S
C1435 C1436 1.358 . S
C1435 C1437 1.356 . S
C1435 H1483 0.930 . S
C1436 N1433 1.279 . S
C1436 C1435 1.358 . S
C1436 H1439 0.930 . S
C1437 C1434 1.348 . S
C1437 C1435 1.356 . S
H1438 C1432 0.930 . S
H1439 C1436 0.930 . S
C1440 C1442 1.348 . S
C1440 C1443 1.356 . S
C1440 O1470 1.325 . S
N1441 C1444 1.314 . S
N1441 C1445 1.279 . S
C1442 C1440 1.348 . S
C1442 C1444 1.353 . S
C1442 H1484 0.929 . S
C1443 C1440 1.356 . S
C1443 C1445 1.358 . S
C1443 H1485 0.930 . S
C1444 N1441 1.314 . S
C1444 C1442 1.353 . S
C1444 H1486 0.930 . S
C1445 N1441 1.279 . S
C1445 C1443 1.358 . S
C1445 H1487 0.930 . S
C1446 C1447 1.348 . S
C1446 C1448 1.356 . S
C1446 O1471 1.325 . S
C1447 C1446 1.348 . S
C1447 C1449 1.353 . S
C1447 H1488 0.929 . S
C1448 C1446 1.356 . S
C1448 C1450 1.358 . S
C1448 H1489 0.930 . S
C1449 C1447 1.353 . S
C1449 N1451 1.314 . S
C1449 H1490 0.930 . S
C1450 C1448 1.358 . S
C1450 N1451 1.279 . S
C1450 H1491 0.930 . S
N1451 C1449 1.314 . S
N1451 C1450 1.279 . S
C1452 C1454 1.353 . S
C1452 N1455 1.314 . S
C1452 H1458 0.930 . S
C1453 N1455 1.279 . S
C1453 C1456 1.358 . S
C1453 H1459 0.930 . S
C1454 C1452 1.353 . S
C1454 C1457 1.348 . S
C1454 H1492 0.929 . S
N1455 Li1410 1.990 . S
N1455 C1452 1.314 . S
N1455 C1453 1.279 . S
C1456 C1453 1.358 . S
C1456 C1457 1.356 . S
C1456 H1493 0.930 . S
C1457 C1454 1.348 . S
C1457 C1456 1.356 . S
H1458 C1452 0.930 . S
H1459 C1453 0.930 . S
C1460 N1461 1.314 . S
C1460 C1462 1.353 . S
C1460 H1466 0.930 . S
N1461 Li1411 1.990 . S
N1461 C1460 1.314 . S
N1461 C1464 1.279 . S
C1462 C1460 1.353 . S
C1462 C1465 1.348 . S
C1462 H1494 0.929 . S
C1463 C1464 1.358 . S
C1463 C1465 1.356 . S
C1463 H1495 0.930 . S
C1464 N1461 1.279 . S
C1464 C1463 1.358 . S
C1464 H1467 0.930 . S
C1465 C1462 1.348 . S
C1465 C1463 1.356 . S
H1466 C1460 0.930 . S
H1467 C1464 0.930 . S
O1468 Li1408 1.956 . S
O1468 Li1409 1.970 . S
O1468 Li1410 1.961 . S
O1468 C1412 1.325 . S
O1469 Li1408 1.970 . S
O1469 Li1409 1.956 . S
O1469 Li1411 1.961 . S
O1469 C1418 1.325 . S
O1470 Li1408 1.961 . S
O1470 Li1410 1.956 . S
O1470 Li1411 1.970 . S
O1470 C1440 1.325 . S
O1471 Li1409 1.961 . S
O1471 Li1410 1.970 . S
O1471 Li1411 1.956 . S
O1471 C1446 1.325 . S
H1472 C1414 0.929 . S
H1473 C1415 0.930 . S
H1474 C1416 0.930 . S
H1475 C1417 0.930 . S
H1476 C1419 0.930 . S
H1477 C1421 0.929 . S
H1478 C1422 0.930 . S
H1479 C1423 0.930 . S
H1480 C1426 0.930 . S
H1481 C1429 0.929 . S
H1482 C1434 0.929 . S
H1483 C1435 0.930 . S
H1484 C1442 0.929 . S
H1485 C1443 0.930 . S
H1486 C1444 0.930 . S
H1487 C1445 0.930 . S
H1488 C1447 0.929 . S
H1489 C1448 0.930 . S
H1490 C1449 0.930 . S
H1491 C1450 0.930 . S
H1492 C1454 0.929 . S
H1493 C1456 0.930 . S
H1494 C1462 0.929 . S
H1495 C1463 0.930 . S
Li1496 N1513 1.990 . S
Li1496 O1556 1.956 . S
Li1496 O1557 1.970 . S
Li1496 O1558 1.961 . S
Li1497 N1521 1.990 . S
Li1497 O1556 1.970 . S
Li1497 O1557 1.956 . S
Li1497 O1559 1.961 . S
Li1498 N1543 1.990 . S
Li1498 O1556 1.961 . S
Li1498 O1558 1.956 . S
Li1498 O1559 1.970 . S
Li1499 N1549 1.990 . S
Li1499 O1557 1.961 . S
Li1499 O1558 1.970 . S
Li1499 O1559 1.956 . S
C1500 C1502 1.348 . S
C1500 C1503 1.356 . S
C1500 O1556 1.325 . S
N1501 C1504 1.314 . S
N1501 C1505 1.279 . S
C1502 C1500 1.348 . S
C1502 C1504 1.353 . S
C1502 H1560 0.929 . S
C1503 C1500 1.356 . S
C1503 C1505 1.358 . S
C1503 H1561 0.930 . S
C1504 N1501 1.314 . S
C1504 C1502 1.353 . S
C1504 H1562 0.930 . S
C1505 N1501 1.279 . S
C1505 C1503 1.358 . S
C1505 H1563 0.930 . S
C1506 C1509 1.348 . S
C1506 C1510 1.356 . S
C1506 O1557 1.325 . S
C1507 N1508 1.279 . S
C1507 C1510 1.358 . S
C1507 H1564 0.930 . S
N1508 C1507 1.279 . S
N1508 C1511 1.314 . S
C1509 C1506 1.348 . S
C1509 C1511 1.353 . S
C1509 H1565 0.929 . S
C1510 C1506 1.356 . S
C1510 C1507 1.358 . S
C1510 H1566 0.930 . S
C1511 N1508 1.314 . S
C1511 C1509 1.353 . S
C1511 H1567 0.930 . S
C1512 N1513 1.314 . S
C1512 C1517 1.353 . S
C1512 H1518 0.930 . S
N1513 Li1496 1.990 . S
N1513 C1512 1.314 . S
N1513 C1515 1.279 . S
C1514 C1515 1.358 . S
C1514 C1516 1.356 . S
C1514 H1568 0.930 . S
C1515 N1513 1.279 . S
C1515 C1514 1.358 . S
C1515 H1519 0.930 . S
C1516 C1514 1.356 . S
C1516 C1517 1.348 . S
C1517 C1512 1.353 . S
C1517 C1516 1.348 . S
C1517 H1569 0.929 . S
H1518 C1512 0.930 . S
H1519 C1515 0.930 . S
C1520 N1521 1.314 . S
C1520 C1522 1.353 . S
C1520 H1526 0.930 . S
N1521 Li1497 1.990 . S
N1521 C1520 1.314 . S
N1521 C1524 1.279 . S
C1522 C1520 1.353 . S
C1522 C1525 1.348 . S
C1522 H1570 0.929 . S
C1523 C1524 1.358 . S
C1523 C1525 1.356 . S
C1523 H1571 0.930 . S
C1524 N1521 1.279 . S
C1524 C1523 1.358 . S
C1524 H1527 0.930 . S
C1525 C1522 1.348 . S
C1525 C1523 1.356 . S
H1526 C1520 0.930 . S
H1527 C1524 0.930 . S
C1528 C1530 1.348 . S
C1528 C1531 1.356 . S
C1528 O1558 1.325 . S
N1529 C1532 1.314 . S
N1529 C1533 1.279 . S
C1530 C1528 1.348 . S
C1530 C1532 1.353 . S
C1530 H1572 0.929 . S
C1531 C1528 1.356 . S
C1531 C1533 1.358 . S
C1531 H1573 0.930 . S
C1532 N1529 1.314 . S
C1532 C1530 1.353 . S
C1532 H1574 0.930 . S
C1533 N1529 1.279 . S
C1533 C1531 1.358 . S
C1533 H1575 0.930 . S
C1534 C1535 1.348 . S
C1534 C1536 1.356 . S
C1534 O1559 1.325 . S
C1535 C1534 1.348 . S
C1535 C1537 1.353 . S
C1535 H1576 0.929 . S
C1536 C1534 1.356 . S
C1536 C1538 1.358 . S
C1536 H1577 0.930 . S
C1537 C1535 1.353 . S
C1537 N1539 1.314 . S
C1537 H1578 0.930 . S
C1538 C1536 1.358 . S
C1538 N1539 1.279 . S
C1538 H1579 0.930 . S
N1539 C1537 1.314 . S
N1539 C1538 1.279 . S
C1540 C1542 1.353 . S
C1540 N1543 1.314 . S
C1540 H1546 0.930 . S
C1541 N1543 1.279 . S
C1541 C1544 1.358 . S
C1541 H1547 0.930 . S
C1542 C1540 1.353 . S
C1542 C1545 1.348 . S
C1542 H1580 0.929 . S
N1543 Li1498 1.990 . S
N1543 C1540 1.314 . S
N1543 C1541 1.279 . S
C1544 C1541 1.358 . S
C1544 C1545 1.356 . S
C1544 H1581 0.930 . S
C1545 C1542 1.348 . S
C1545 C1544 1.356 . S
H1546 C1540 0.930 . S
H1547 C1541 0.930 . S
C1548 N1549 1.314 . S
C1548 C1550 1.353 . S
C1548 H1554 0.930 . S
N1549 Li1499 1.990 . S
N1549 C1548 1.314 . S
N1549 C1552 1.279 . S
C1550 C1548 1.353 . S
C1550 C1553 1.348 . S
C1550 H1582 0.929 . S
C1551 C1552 1.358 . S
C1551 C1553 1.356 . S
C1551 H1583 0.930 . S
C1552 N1549 1.279 . S
C1552 C1551 1.358 . S
C1552 H1555 0.930 . S
C1553 C1550 1.348 . S
C1553 C1551 1.356 . S
H1554 C1548 0.930 . S
H1555 C1552 0.930 . S
O1556 Li1496 1.956 . S
O1556 Li1497 1.970 . S
O1556 Li1498 1.961 . S
O1556 C1500 1.325 . S
O1557 Li1496 1.970 . S
O1557 Li1497 1.956 . S
O1557 Li1499 1.961 . S
O1557 C1506 1.325 . S
O1558 Li1496 1.961 . S
O1558 Li1498 1.956 . S
O1558 Li1499 1.970 . S
O1558 C1528 1.325 . S
O1559 Li1497 1.961 . S
O1559 Li1498 1.970 . S
O1559 Li1499 1.956 . S
O1559 C1534 1.325 . S
H1560 C1502 0.929 . S
H1561 C1503 0.930 . S
H1562 C1504 0.930 . S
H1563 C1505 0.930 . S
H1564 C1507 0.930 . S
H1565 C1509 0.929 . S
H1566 C1510 0.930 . S
H1567 C1511 0.930 . S
H1568 C1514 0.930 . S
H1569 C1517 0.929 . S
H1570 C1522 0.929 . S
H1571 C1523 0.930 . S
H1572 C1530 0.929 . S
H1573 C1531 0.930 . S
H1574 C1532 0.930 . S
H1575 C1533 0.930 . S
H1576 C1535 0.929 . S
H1577 C1536 0.930 . S
H1578 C1537 0.930 . S
H1579 C1538 0.930 . S
H1580 C1542 0.929 . S
H1581 C1544 0.930 . S
H1582 C1550 0.929 . S
H1583 C1551 0.930 . S
Li1584 N1601 1.990 . S
Li1584 O1644 1.956 . S
Li1584 O1645 1.970 . S
Li1584 O1646 1.961 1_554 S
Li1585 N1609 1.990 . S
Li1585 O1644 1.970 . S
Li1585 O1645 1.956 . S
Li1585 O1647 1.961 . S
Li1586 N1631 1.990 . S
Li1586 O1644 1.961 . S
Li1586 O1646 1.956 1_554 S
Li1586 O1647 1.970 . S
Li1587 N1637 1.990 . S
Li1587 O1645 1.961 1_556 S
Li1587 O1646 1.970 . S
Li1587 O1647 1.956 1_556 S
C1588 C1590 1.348 . S
C1588 C1591 1.356 . S
C1588 O1644 1.325 . S
N1589 C1592 1.314 . S
N1589 C1593 1.279 . S
C1590 C1588 1.348 . S
C1590 C1592 1.353 . S
C1590 H1648 0.929 . S
C1591 C1588 1.356 . S
C1591 C1593 1.358 . S
C1591 H1649 0.930 . S
C1592 N1589 1.314 . S
C1592 C1590 1.353 . S
C1592 H1650 0.930 . S
C1593 N1589 1.279 . S
C1593 C1591 1.358 . S
C1593 H1651 0.930 . S
C1594 C1597 1.348 . S
C1594 C1598 1.356 . S
C1594 O1645 1.325 . S
C1595 N1596 1.279 . S
C1595 C1598 1.358 . S
C1595 H1652 0.930 . S
N1596 C1595 1.279 . S
N1596 C1599 1.314 . S
C1597 C1594 1.348 . S
C1597 C1599 1.353 . S
C1597 H1653 0.929 . S
C1598 C1594 1.356 . S
C1598 C1595 1.358 . S
C1598 H1654 0.930 . S
C1599 N1596 1.314 . S
C1599 C1597 1.353 . S
C1599 H1655 0.930 . S
C1600 N1601 1.314 1_556 S
C1600 C1605 1.353 . S
C1600 H1606 0.930 . S
N1601 Li1584 1.990 . S
N1601 C1600 1.314 1_554 S
N1601 C1603 1.279 . S
C1602 C1603 1.358 . S
C1602 C1604 1.356 1_554 S
C1602 H1656 0.930 . S
C1603 N1601 1.279 . S
C1603 C1602 1.358 . S
C1603 H1607 0.930 . S
C1604 C1602 1.356 1_556 S
C1604 C1605 1.348 . S
C1605 C1600 1.353 . S
C1605 C1604 1.348 . S
C1605 H1657 0.929 . S
H1606 C1600 0.930 . S
H1607 C1603 0.930 . S
C1608 N1609 1.314 . S
C1608 C1610 1.353 . S
C1608 H1614 0.930 . S
N1609 Li1585 1.990 . S
N1609 C1608 1.314 . S
N1609 C1612 1.279 . S
C1610 C1608 1.353 . S
C1610 C1613 1.348 . S
C1610 H1658 0.929 . S
C1611 C1612 1.358 . S
C1611 C1613 1.356 . S
C1611 H1659 0.930 . S
C1612 N1609 1.279 . S
C1612 C1611 1.358 . S
C1612 H1615 0.930 . S
C1613 C1610 1.348 . S
C1613 C1611 1.356 . S
H1614 C1608 0.930 . S
H1615 C1612 0.930 . S
C1616 C1618 1.348 . S
C1616 C1619 1.356 . S
C1616 O1646 1.325 . S
N1617 C1620 1.314 . S
N1617 C1621 1.279 . S
C1618 C1616 1.348 . S
C1618 C1620 1.353 . S
C1618 H1660 0.929 . S
C1619 C1616 1.356 . S
C1619 C1621 1.358 . S
C1619 H1661 0.930 . S
C1620 N1617 1.314 . S
C1620 C1618 1.353 . S
C1620 H1662 0.930 . S
C1621 N1617 1.279 . S
C1621 C1619 1.358 . S
C1621 H1663 0.930 . S
C1622 C1623 1.348 . S
C1622 C1624 1.356 . S
C1622 O1647 1.325 . S
C1623 C1622 1.348 . S
C1623 C1625 1.353 . S
C1623 H1664 0.929 . S
C1624 C1622 1.356 . S
C1624 C1626 1.358 . S
C1624 H1665 0.930 . S
C1625 C1623 1.353 . S
C1625 N1627 1.314 . S
C1625 H1666 0.930 . S
C1626 C1624 1.358 . S
C1626 N1627 1.279 . S
C1626 H1667 0.930 . S
N1627 C1625 1.314 . S
N1627 C1626 1.279 . S
C1628 C1630 1.353 . S
C1628 N1631 1.314 . S
C1628 H1634 0.930 . S
C1629 N1631 1.279 1_556 S
C1629 C1632 1.358 . S
C1629 H1635 0.930 . S
C1630 C1628 1.353 . S
C1630 C1633 1.348 . S
C1630 H1668 0.929 . S
N1631 Li1586 1.990 . S
N1631 C1628 1.314 . S
N1631 C1629 1.279 1_554 S
C1632 C1629 1.358 . S
C1632 C1633 1.356 1_556 S
C1632 H1669 0.930 . S
C1633 C1630 1.348 . S
C1633 C1632 1.356 1_554 S
H1634 C1628 0.930 . S
H1635 C1629 0.930 . S
C1636 N1637 1.314 . S
C1636 C1638 1.353 . S
C1636 H1642 0.930 . S
N1637 Li1587 1.990 . S
N1637 C1636 1.314 . S
N1637 C1640 1.279 . S
C1638 C1636 1.353 . S
C1638 C1641 1.348 . S
C1638 H1670 0.929 . S
C1639 C1640 1.358 . S
C1639 C1641 1.356 . S
C1639 H1671 0.930 . S
C1640 N1637 1.279 . S
C1640 C1639 1.358 . S
C1640 H1643 0.930 . S
C1641 C1638 1.348 . S
C1641 C1639 1.356 . S
H1642 C1636 0.930 . S
H1643 C1640 0.930 . S
O1644 Li1584 1.956 . S
O1644 Li1585 1.970 . S
O1644 Li1586 1.961 . S
O1644 C1588 1.325 . S
O1645 Li1584 1.970 . S
O1645 Li1585 1.956 . S
O1645 Li1587 1.961 1_554 S
O1645 C1594 1.325 . S
O1646 Li1584 1.961 1_556 S
O1646 Li1586 1.956 1_556 S
O1646 Li1587 1.970 . S
O1646 C1616 1.325 . S
O1647 Li1585 1.961 . S
O1647 Li1586 1.970 . S
O1647 Li1587 1.956 1_554 S
O1647 C1622 1.325 . S
H1648 C1590 0.929 . S
H1649 C1591 0.930 . S
H1650 C1592 0.930 . S
H1651 C1593 0.930 . S
H1652 C1595 0.930 . S
H1653 C1597 0.929 . S
H1654 C1598 0.930 . S
H1655 C1599 0.930 . S
H1656 C1602 0.930 . S
H1657 C1605 0.929 . S
H1658 C1610 0.929 . S
H1659 C1611 0.930 . S
H1660 C1618 0.929 . S
H1661 C1619 0.930 . S
H1662 C1620 0.930 . S
H1663 C1621 0.930 . S
H1664 C1623 0.929 . S
H1665 C1624 0.930 . S
H1666 C1625 0.930 . S
H1667 C1626 0.930 . S
H1668 C1630 0.929 . S
H1669 C1632 0.930 . S
H1670 C1638 0.929 . S
H1671 C1639 0.930 . S
Li1672 N1689 1.990 . S
Li1672 O1732 1.956 . S
Li1672 O1733 1.970 . S
Li1672 O1734 1.961 . S
Li1673 N1697 1.990 . S
Li1673 O1732 1.970 . S
Li1673 O1733 1.956 . S
Li1673 O1735 1.961 . S
Li1674 N1719 1.990 . S
Li1674 O1732 1.961 . S
Li1674 O1734 1.956 . S
Li1674 O1735 1.970 . S
Li1675 N1725 1.990 . S
Li1675 O1733 1.961 . S
Li1675 O1734 1.970 . S
Li1675 O1735 1.956 . S
C1676 C1678 1.348 . S
C1676 C1679 1.356 . S
C1676 O1732 1.325 . S
N1677 C1680 1.314 . S
N1677 C1681 1.279 . S
C1678 C1676 1.348 . S
C1678 C1680 1.353 . S
C1678 H1736 0.929 . S
C1679 C1676 1.356 . S
C1679 C1681 1.358 . S
C1679 H1737 0.930 . S
C1680 N1677 1.314 . S
C1680 C1678 1.353 . S
C1680 H1738 0.930 . S
C1681 N1677 1.279 . S
C1681 C1679 1.358 . S
C1681 H1739 0.930 . S
C1682 C1685 1.348 . S
C1682 C1686 1.356 . S
C1682 O1733 1.325 . S
C1683 N1684 1.279 . S
C1683 C1686 1.358 . S
C1683 H1740 0.930 . S
N1684 C1683 1.279 . S
N1684 C1687 1.314 . S
C1685 C1682 1.348 . S
C1685 C1687 1.353 . S
C1685 H1741 0.929 . S
C1686 C1682 1.356 . S
C1686 C1683 1.358 . S
C1686 H1742 0.930 . S
C1687 N1684 1.314 . S
C1687 C1685 1.353 . S
C1687 H1743 0.930 . S
C1688 N1689 1.314 . S
C1688 C1693 1.353 . S
C1688 H1694 0.930 . S
N1689 Li1672 1.990 . S
N1689 C1688 1.314 . S
N1689 C1691 1.279 . S
C1690 C1691 1.358 . S
C1690 C1692 1.356 . S
C1690 H1744 0.930 . S
C1691 N1689 1.279 . S
C1691 C1690 1.358 . S
C1691 H1695 0.930 . S
C1692 C1690 1.356 . S
C1692 C1693 1.348 . S
C1693 C1688 1.353 . S
C1693 C1692 1.348 . S
C1693 H1745 0.929 . S
H1694 C1688 0.930 . S
H1695 C1691 0.930 . S
C1696 N1697 1.314 . S
C1696 C1698 1.353 . S
C1696 H1702 0.930 . S
N1697 Li1673 1.990 . S
N1697 C1696 1.314 . S
N1697 C1700 1.279 . S
C1698 C1696 1.353 . S
C1698 C1701 1.348 . S
C1698 H1746 0.929 . S
C1699 C1700 1.358 . S
C1699 C1701 1.356 . S
C1699 H1747 0.930 . S
C1700 N1697 1.279 . S
C1700 C1699 1.358 . S
C1700 H1703 0.930 . S
C1701 C1698 1.348 . S
C1701 C1699 1.356 . S
H1702 C1696 0.930 . S
H1703 C1700 0.930 . S
C1704 C1706 1.348 . S
C1704 C1707 1.356 . S
C1704 O1734 1.325 . S
N1705 C1708 1.314 . S
N1705 C1709 1.279 . S
C1706 C1704 1.348 . S
C1706 C1708 1.353 . S
C1706 H1748 0.929 . S
C1707 C1704 1.356 . S
C1707 C1709 1.358 . S
C1707 H1749 0.930 . S
C1708 N1705 1.314 . S
C1708 C1706 1.353 . S
C1708 H1750 0.930 . S
C1709 N1705 1.279 . S
C1709 C1707 1.358 . S
C1709 H1751 0.930 . S
C1710 C1711 1.348 . S
C1710 C1712 1.356 . S
C1710 O1735 1.325 . S
C1711 C1710 1.348 . S
C1711 C1713 1.353 . S
C1711 H1752 0.929 . S
C1712 C1710 1.356 . S
C1712 C1714 1.358 . S
C1712 H1753 0.930 . S
C1713 C1711 1.353 . S
C1713 N1715 1.314 . S
C1713 H1754 0.930 . S
C1714 C1712 1.358 . S
C1714 N1715 1.279 . S
C1714 H1755 0.930 . S
N1715 C1713 1.314 . S
N1715 C1714 1.279 . S
C1716 C1718 1.353 . S
C1716 N1719 1.314 . S
C1716 H1722 0.930 . S
C1717 N1719 1.279 . S
C1717 C1720 1.358 . S
C1717 H1723 0.930 . S
C1718 C1716 1.353 . S
C1718 C1721 1.348 . S
C1718 H1756 0.929 . S
N1719 Li1674 1.990 . S
N1719 C1716 1.314 . S
N1719 C1717 1.279 . S
C1720 C1717 1.358 . S
C1720 C1721 1.356 . S
C1720 H1757 0.930 . S
C1721 C1718 1.348 . S
C1721 C1720 1.356 . S
H1722 C1716 0.930 . S
H1723 C1717 0.930 . S
C1724 N1725 1.314 . S
C1724 C1726 1.353 . S
C1724 H1730 0.930 . S
N1725 Li1675 1.990 . S
N1725 C1724 1.314 . S
N1725 C1728 1.279 . S
C1726 C1724 1.353 . S
C1726 C1729 1.348 . S
C1726 H1758 0.929 . S
C1727 C1728 1.358 . S
C1727 C1729 1.356 . S
C1727 H1759 0.930 . S
C1728 N1725 1.279 . S
C1728 C1727 1.358 . S
C1728 H1731 0.930 . S
C1729 C1726 1.348 . S
C1729 C1727 1.356 . S
H1730 C1724 0.930 . S
H1731 C1728 0.930 . S
O1732 Li1672 1.956 . S
O1732 Li1673 1.970 . S
O1732 Li1674 1.961 . S
O1732 C1676 1.325 . S
O1733 Li1672 1.970 . S
O1733 Li1673 1.956 . S
O1733 Li1675 1.961 . S
O1733 C1682 1.325 . S
O1734 Li1672 1.961 . S
O1734 Li1674 1.956 . S
O1734 Li1675 1.970 . S
O1734 C1704 1.325 . S
O1735 Li1673 1.961 . S
O1735 Li1674 1.970 . S
O1735 Li1675 1.956 . S
O1735 C1710 1.325 . S
H1736 C1678 0.929 . S
H1737 C1679 0.930 . S
H1738 C1680 0.930 . S
H1739 C1681 0.930 . S
H1740 C1683 0.930 . S
H1741 C1685 0.929 . S
H1742 C1686 0.930 . S
H1743 C1687 0.930 . S
H1744 C1690 0.930 . S
H1745 C1693 0.929 . S
H1746 C1698 0.929 . S
H1747 C1699 0.930 . S
H1748 C1706 0.929 . S
H1749 C1707 0.930 . S
H1750 C1708 0.930 . S
H1751 C1709 0.930 . S
H1752 C1711 0.929 . S
H1753 C1712 0.930 . S
H1754 C1713 0.930 . S
H1755 C1714 0.930 . S
H1756 C1718 0.929 . S
H1757 C1720 0.930 . S
H1758 C1726 0.929 . S
H1759 C1727 0.930 . S
Li1760 N1777 1.990 . S
Li1760 O1820 1.956 . S
Li1760 O1821 1.970 . S
Li1760 O1822 1.961 . S
Li1761 N1785 1.990 . S
Li1761 O1820 1.970 . S
Li1761 O1821 1.956 . S
Li1761 O1823 1.961 . S
Li1762 N1807 1.990 . S
Li1762 O1820 1.961 . S
Li1762 O1822 1.956 . S
Li1762 O1823 1.970 . S
Li1763 N1813 1.990 . S
Li1763 O1821 1.961 . S
Li1763 O1822 1.970 . S
Li1763 O1823 1.956 . S
C1764 C1766 1.348 . S
C1764 C1767 1.356 . S
C1764 O1820 1.325 . S
N1765 C1768 1.314 . S
N1765 C1769 1.279 . S
C1766 C1764 1.348 . S
C1766 C1768 1.353 . S
C1766 H1824 0.929 . S
C1767 C1764 1.356 . S
C1767 C1769 1.358 . S
C1767 H1825 0.930 . S
C1768 N1765 1.314 . S
C1768 C1766 1.353 . S
C1768 H1826 0.930 . S
C1769 N1765 1.279 . S
C1769 C1767 1.358 . S
C1769 H1827 0.930 . S
C1770 C1773 1.348 . S
C1770 C1774 1.356 . S
C1770 O1821 1.325 . S
C1771 N1772 1.279 . S
C1771 C1774 1.358 . S
C1771 H1828 0.930 . S
N1772 C1771 1.279 . S
N1772 C1775 1.314 . S
C1773 C1770 1.348 . S
C1773 C1775 1.353 . S
C1773 H1829 0.929 . S
C1774 C1770 1.356 . S
C1774 C1771 1.358 . S
C1774 H1830 0.930 . S
C1775 N1772 1.314 . S
C1775 C1773 1.353 . S
C1775 H1831 0.930 . S
C1776 N1777 1.314 . S
C1776 C1781 1.353 . S
C1776 H1782 0.930 . S
N1777 Li1760 1.990 . S
N1777 C1776 1.314 . S
N1777 C1779 1.279 . S
C1778 C1779 1.358 . S
C1778 C1780 1.356 . S
C1778 H1832 0.930 . S
C1779 N1777 1.279 . S
C1779 C1778 1.358 . S
C1779 H1783 0.930 . S
C1780 C1778 1.356 . S
C1780 C1781 1.348 . S
C1781 C1776 1.353 . S
C1781 C1780 1.348 . S
C1781 H1833 0.929 . S
H1782 C1776 0.930 . S
H1783 C1779 0.930 . S
C1784 N1785 1.314 . S
C1784 C1786 1.353 . S
C1784 H1790 0.930 . S
N1785 Li1761 1.990 . S
N1785 C1784 1.314 . S
N1785 C1788 1.279 . S
C1786 C1784 1.353 . S
C1786 C1789 1.348 . S
C1786 H1834 0.929 . S
C1787 C1788 1.358 . S
C1787 C1789 1.356 . S
C1787 H1835 0.930 . S
C1788 N1785 1.279 . S
C1788 C1787 1.358 . S
C1788 H1791 0.930 . S
C1789 C1786 1.348 . S
C1789 C1787 1.356 . S
H1790 C1784 0.930 . S
H1791 C1788 0.930 . S
C1792 C1794 1.348 . S
C1792 C1795 1.356 . S
C1792 O1822 1.325 . S
N1793 C1796 1.314 . S
N1793 C1797 1.279 . S
C1794 C1792 1.348 . S
C1794 C1796 1.353 . S
C1794 H1836 0.929 . S
C1795 C1792 1.356 . S
C1795 C1797 1.358 . S
C1795 H1837 0.930 . S
C1796 N1793 1.314 . S
C1796 C1794 1.353 . S
C1796 H1838 0.930 . S
C1797 N1793 1.279 . S
C1797 C1795 1.358 . S
C1797 H1839 0.930 . S
C1798 C1799 1.348 . S
C1798 C1800 1.356 . S
C1798 O1823 1.325 . S
C1799 C1798 1.348 . S
C1799 C1801 1.353 . S
C1799 H1840 0.929 . S
C1800 C1798 1.356 . S
C1800 C1802 1.358 . S
C1800 H1841 0.930 . S
C1801 C1799 1.353 . S
C1801 N1803 1.314 . S
C1801 H1842 0.930 . S
C1802 C1800 1.358 . S
C1802 N1803 1.279 . S
C1802 H1843 0.930 . S
N1803 C1801 1.314 . S
N1803 C1802 1.279 . S
C1804 C1806 1.353 . S
C1804 N1807 1.314 . S
C1804 H1810 0.930 . S
C1805 N1807 1.279 . S
C1805 C1808 1.358 . S
C1805 H1811 0.930 . S
C1806 C1804 1.353 . S
C1806 C1809 1.348 . S
C1806 H1844 0.929 . S
N1807 Li1762 1.990 . S
N1807 C1804 1.314 . S
N1807 C1805 1.279 . S
C1808 C1805 1.358 . S
C1808 C1809 1.356 . S
C1808 H1845 0.930 . S
C1809 C1806 1.348 . S
C1809 C1808 1.356 . S
H1810 C1804 0.930 . S
H1811 C1805 0.930 . S
C1812 N1813 1.314 . S
C1812 C1814 1.353 . S
C1812 H1818 0.930 . S
N1813 Li1763 1.990 . S
N1813 C1812 1.314 . S
N1813 C1816 1.279 . S
C1814 C1812 1.353 . S
C1814 C1817 1.348 . S
C1814 H1846 0.929 . S
C1815 C1816 1.358 . S
C1815 C1817 1.356 . S
C1815 H1847 0.930 . S
C1816 N1813 1.279 . S
C1816 C1815 1.358 . S
C1816 H1819 0.930 . S
C1817 C1814 1.348 . S
C1817 C1815 1.356 . S
H1818 C1812 0.930 . S
H1819 C1816 0.930 . S
O1820 Li1760 1.956 . S
O1820 Li1761 1.970 . S
O1820 Li1762 1.961 . S
O1820 C1764 1.325 . S
O1821 Li1760 1.970 . S
O1821 Li1761 1.956 . S
O1821 Li1763 1.961 . S
O1821 C1770 1.325 . S
O1822 Li1760 1.961 . S
O1822 Li1762 1.956 . S
O1822 Li1763 1.970 . S
O1822 C1792 1.325 . S
O1823 Li1761 1.961 . S
O1823 Li1762 1.970 . S
O1823 Li1763 1.956 . S
O1823 C1798 1.325 . S
H1824 C1766 0.929 . S
H1825 C1767 0.930 . S
H1826 C1768 0.930 . S
H1827 C1769 0.930 . S
H1828 C1771 0.930 . S
H1829 C1773 0.929 . S
H1830 C1774 0.930 . S
H1831 C1775 0.930 . S
H1832 C1778 0.930 . S
H1833 C1781 0.929 . S
H1834 C1786 0.929 . S
H1835 C1787 0.930 . S
H1836 C1794 0.929 . S
H1837 C1795 0.930 . S
H1838 C1796 0.930 . S
H1839 C1797 0.930 . S
H1840 C1799 0.929 . S
H1841 C1800 0.930 . S
H1842 C1801 0.930 . S
H1843 C1802 0.930 . S
H1844 C1806 0.929 . S
H1845 C1808 0.930 . S
H1846 C1814 0.929 . S
H1847 C1815 0.930 . S
Li1848 N1865 1.990 . S
Li1848 O1908 1.956 . S
Li1848 O1909 1.970 . S
Li1848 O1910 1.961 . S
Li1849 N1873 1.990 . S
Li1849 O1908 1.970 . S
Li1849 O1909 1.956 . S
Li1849 O1911 1.961 . S
Li1850 N1895 1.990 . S
Li1850 O1908 1.961 . S
Li1850 O1910 1.956 . S
Li1850 O1911 1.970 . S
Li1851 N1901 1.990 . S
Li1851 O1909 1.961 . S
Li1851 O1910 1.970 . S
Li1851 O1911 1.956 . S
C1852 C1854 1.348 . S
C1852 C1855 1.356 . S
C1852 O1908 1.325 . S
N1853 C1856 1.314 . S
N1853 C1857 1.279 . S
C1854 C1852 1.348 . S
C1854 C1856 1.353 . S
C1854 H1912 0.929 . S
C1855 C1852 1.356 . S
C1855 C1857 1.358 . S
C1855 H1913 0.930 . S
C1856 N1853 1.314 . S
C1856 C1854 1.353 . S
C1856 H1914 0.930 . S
C1857 N1853 1.279 . S
C1857 C1855 1.358 . S
C1857 H1915 0.930 . S
C1858 C1861 1.348 . S
C1858 C1862 1.356 . S
C1858 O1909 1.325 . S
C1859 N1860 1.279 . S
C1859 C1862 1.358 . S
C1859 H1916 0.930 . S
N1860 C1859 1.279 . S
N1860 C1863 1.314 . S
C1861 C1858 1.348 . S
C1861 C1863 1.353 . S
C1861 H1917 0.929 . S
C1862 C1858 1.356 . S
C1862 C1859 1.358 . S
C1862 H1918 0.930 . S
C1863 N1860 1.314 . S
C1863 C1861 1.353 . S
C1863 H1919 0.930 1_556 S
C1864 N1865 1.314 . S
C1864 C1869 1.353 . S
C1864 H1870 0.930 . S
N1865 Li1848 1.990 . S
N1865 C1864 1.314 . S
N1865 C1867 1.279 . S
C1866 C1867 1.358 . S
C1866 C1868 1.356 . S
C1866 H1920 0.930 . S
C1867 N1865 1.279 . S
C1867 C1866 1.358 . S
C1867 H1871 0.930 . S
C1868 C1866 1.356 . S
C1868 C1869 1.348 . S
C1869 C1864 1.353 . S
C1869 C1868 1.348 . S
C1869 H1921 0.929 . S
H1870 C1864 0.930 . S
H1871 C1867 0.930 . S
C1872 N1873 1.314 . S
C1872 C1874 1.353 . S
C1872 H1878 0.930 . S
N1873 Li1849 1.990 . S
N1873 C1872 1.314 . S
N1873 C1876 1.279 . S
C1874 C1872 1.353 . S
C1874 C1877 1.348 . S
C1874 H1922 0.929 . S
C1875 C1876 1.358 . S
C1875 C1877 1.356 . S
C1875 H1923 0.930 . S
C1876 N1873 1.279 . S
C1876 C1875 1.358 . S
C1876 H1879 0.930 . S
C1877 C1874 1.348 . S
C1877 C1875 1.356 . S
H1878 C1872 0.930 . S
H1879 C1876 0.930 . S
C1880 C1882 1.348 . S
C1880 C1883 1.356 . S
C1880 O1910 1.325 . S
N1881 C1884 1.314 . S
N1881 C1885 1.279 . S
C1882 C1880 1.348 . S
C1882 C1884 1.353 . S
C1882 H1924 0.929 . S
C1883 C1880 1.356 . S
C1883 C1885 1.358 . S
C1883 H1925 0.930 . S
C1884 N1881 1.314 . S
C1884 C1882 1.353 . S
C1884 H1926 0.930 . S
C1885 N1881 1.279 . S
C1885 C1883 1.358 . S
C1885 H1927 0.930 . S
C1886 C1887 1.348 . S
C1886 C1888 1.356 . S
C1886 O1911 1.325 . S
C1887 C1886 1.348 . S
C1887 C1889 1.353 . S
C1887 H1928 0.929 . S
C1888 C1886 1.356 . S
C1888 C1890 1.358 . S
C1888 H1929 0.930 . S
C1889 C1887 1.353 . S
C1889 N1891 1.314 . S
C1889 H1930 0.930 . S
C1890 C1888 1.358 . S
C1890 N1891 1.279 . S
C1890 H1931 0.930 . S
N1891 C1889 1.314 . S
N1891 C1890 1.279 . S
C1892 C1894 1.353 . S
C1892 N1895 1.314 . S
C1892 H1898 0.930 . S
C1893 N1895 1.279 . S
C1893 C1896 1.358 . S
C1893 H1899 0.930 . S
C1894 C1892 1.353 . S
C1894 C1897 1.348 . S
C1894 H1932 0.929 . S
N1895 Li1850 1.990 . S
N1895 C1892 1.314 . S
N1895 C1893 1.279 . S
C1896 C1893 1.358 . S
C1896 C1897 1.356 . S
C1896 H1933 0.930 . S
C1897 C1894 1.348 . S
C1897 C1896 1.356 . S
H1898 C1892 0.930 . S
H1899 C1893 0.930 . S
C1900 N1901 1.314 . S
C1900 C1902 1.353 . S
C1900 H1906 0.930 . S
N1901 Li1851 1.990 . S
N1901 C1900 1.314 . S
N1901 C1904 1.279 . S
C1902 C1900 1.353 . S
C1902 C1905 1.348 . S
C1902 H1934 0.929 . S
C1903 C1904 1.358 . S
C1903 C1905 1.356 . S
C1903 H1935 0.930 . S
C1904 N1901 1.279 . S
C1904 C1903 1.358 . S
C1904 H1907 0.930 . S
C1905 C1902 1.348 . S
C1905 C1903 1.356 . S
H1906 C1900 0.930 . S
H1907 C1904 0.930 . S
O1908 Li1848 1.956 . S
O1908 Li1849 1.970 . S
O1908 Li1850 1.961 . S
O1908 C1852 1.325 . S
O1909 Li1848 1.970 . S
O1909 Li1849 1.956 . S
O1909 Li1851 1.961 . S
O1909 C1858 1.325 . S
O1910 Li1848 1.961 . S
O1910 Li1850 1.956 . S
O1910 Li1851 1.970 . S
O1910 C1880 1.325 . S
O1911 Li1849 1.961 . S
O1911 Li1850 1.970 . S
O1911 Li1851 1.956 . S
O1911 C1886 1.325 . S
H1912 C1854 0.929 . S
H1913 C1855 0.930 . S
H1914 C1856 0.930 . S
H1915 C1857 0.930 . S
H1916 C1859 0.930 . S
H1917 C1861 0.929 . S
H1918 C1862 0.930 . S
H1919 C1863 0.930 1_554 S
H1920 C1866 0.930 . S
H1921 C1869 0.929 . S
H1922 C1874 0.929 . S
H1923 C1875 0.930 . S
H1924 C1882 0.929 . S
H1925 C1883 0.930 . S
H1926 C1884 0.930 . S
H1927 C1885 0.930 . S
H1928 C1887 0.929 . S
H1929 C1888 0.930 . S
H1930 C1889 0.930 . S
H1931 C1890 0.930 . S
H1932 C1894 0.929 . S
H1933 C1896 0.930 . S
H1934 C1902 0.929 . S
H1935 C1903 0.930 . S
Li1936 N1953 1.990 . S
Li1936 O1996 1.956 . S
Li1936 O1997 1.970 . S
Li1936 O1998 1.961 . S
Li1937 N1961 1.990 . S
Li1937 O1996 1.970 . S
Li1937 O1997 1.956 . S
Li1937 O1999 1.961 . S
Li1938 N1983 1.990 . S
Li1938 O1996 1.961 . S
Li1938 O1998 1.956 . S
Li1938 O1999 1.970 . S
Li1939 N1989 1.990 1_554 S
Li1939 O1997 1.961 . S
Li1939 O1998 1.970 . S
Li1939 O1999 1.956 . S
C1940 C1942 1.348 . S
C1940 C1943 1.356 . S
C1940 O1996 1.325 . S
N1941 C1944 1.314 . S
N1941 C1945 1.279 . S
C1942 C1940 1.348 . S
C1942 C1944 1.353 . S
C1942 H2000 0.929 . S
C1943 C1940 1.356 . S
C1943 C1945 1.358 . S
C1943 H2001 0.930 . S
C1944 N1941 1.314 . S
C1944 C1942 1.353 . S
C1944 H2002 0.930 . S
C1945 N1941 1.279 . S
C1945 C1943 1.358 . S
C1945 H2003 0.930 . S
C1946 C1949 1.348 . S
C1946 C1950 1.356 . S
C1946 O1997 1.325 . S
C1947 N1948 1.279 . S
C1947 C1950 1.358 . S
C1947 H2004 0.930 . S
N1948 C1947 1.279 . S
N1948 C1951 1.314 . S
C1949 C1946 1.348 . S
C1949 C1951 1.353 . S
C1949 H2005 0.929 . S
C1950 C1946 1.356 . S
C1950 C1947 1.358 . S
C1950 H2006 0.930 . S
C1951 N1948 1.314 . S
C1951 C1949 1.353 . S
C1951 H2007 0.930 . S
C1952 N1953 1.314 . S
C1952 C1957 1.353 . S
C1952 H1958 0.930 1_554 S
N1953 Li1936 1.990 . S
N1953 C1952 1.314 . S
N1953 C1955 1.279 . S
C1954 C1955 1.358 . S
C1954 C1956 1.356 . S
C1954 H2008 0.930 . S
C1955 N1953 1.279 . S
C1955 C1954 1.358 . S
C1955 H1959 0.930 . S
C1956 C1954 1.356 . S
C1956 C1957 1.348 . S
C1957 C1952 1.353 . S
C1957 C1956 1.348 . S
C1957 H2009 0.929 1_554 S
H1958 C1952 0.930 1_556 S
H1959 C1955 0.930 . S
C1960 N1961 1.314 . S
C1960 C1962 1.353 . S
C1960 H1966 0.930 . S
N1961 Li1937 1.990 . S
N1961 C1960 1.314 . S
N1961 C1964 1.279 . S
C1962 C1960 1.353 . S
C1962 C1965 1.348 . S
C1962 H2010 0.929 . S
C1963 C1964 1.358 . S
C1963 C1965 1.356 . S
C1963 H2011 0.930 . S
C1964 N1961 1.279 . S
C1964 C1963 1.358 . S
C1964 H1967 0.930 . S
C1965 C1962 1.348 . S
C1965 C1963 1.356 . S
H1966 C1960 0.930 . S
H1967 C1964 0.930 . S
C1968 C1970 1.348 . S
C1968 C1971 1.356 . S
C1968 O1998 1.325 1_556 S
N1969 C1972 1.314 . S
N1969 C1973 1.279 . S
C1970 C1968 1.348 . S
C1970 C1972 1.353 . S
C1970 H2012 0.929 . S
C1971 C1968 1.356 . S
C1971 C1973 1.358 . S
C1971 H2013 0.930 1_556 S
C1972 N1969 1.314 . S
C1972 C1970 1.353 . S
C1972 H2014 0.930 . S
C1973 N1969 1.279 . S
C1973 C1971 1.358 . S
C1973 H2015 0.930 . S
C1974 C1975 1.348 . S
C1974 C1976 1.356 . S
C1974 O1999 1.325 . S
C1975 C1974 1.348 . S
C1975 C1977 1.353 . S
C1975 H2016 0.929 . S
C1976 C1974 1.356 . S
C1976 C1978 1.358 . S
C1976 H2017 0.930 . S
C1977 C1975 1.353 . S
C1977 N1979 1.314 . S
C1977 H2018 0.930 . S
C1978 C1976 1.358 . S
C1978 N1979 1.279 . S
C1978 H2019 0.930 . S
N1979 C1977 1.314 . S
N1979 C1978 1.279 . S
C1980 C1982 1.353 . S
C1980 N1983 1.314 . S
C1980 H1986 0.930 . S
C1981 N1983 1.279 . S
C1981 C1984 1.358 . S
C1981 H1987 0.930 . S
C1982 C1980 1.353 . S
C1982 C1985 1.348 . S
C1982 H2020 0.929 . S
N1983 Li1938 1.990 . S
N1983 C1980 1.314 . S
N1983 C1981 1.279 . S
C1984 C1981 1.358 . S
C1984 C1985 1.356 . S
C1984 H2021 0.930 . S
C1985 C1982 1.348 . S
C1985 C1984 1.356 . S
H1986 C1980 0.930 . S
H1987 C1981 0.930 . S
C1988 N1989 1.314 . S
C1988 C1990 1.353 . S
C1988 H1994 0.930 . S
N1989 Li1939 1.990 1_556 S
N1989 C1988 1.314 . S
N1989 C1992 1.279 . S
C1990 C1988 1.353 . S
C1990 C1993 1.348 . S
C1990 H2022 0.929 . S
C1991 C1992 1.358 . S
C1991 C1993 1.356 . S
C1991 H2023 0.930 . S
C1992 N1989 1.279 . S
C1992 C1991 1.358 . S
C1992 H1995 0.930 . S
C1993 C1990 1.348 . S
C1993 C1991 1.356 . S
H1994 C1988 0.930 . S
H1995 C1992 0.930 . S
O1996 Li1936 1.956 . S
O1996 Li1937 1.970 . S
O1996 Li1938 1.961 . S
O1996 C1940 1.325 . S
O1997 Li1936 1.970 . S
O1997 Li1937 1.956 . S
O1997 Li1939 1.961 . S
O1997 C1946 1.325 . S
O1998 Li1936 1.961 . S
O1998 Li1938 1.956 . S
O1998 Li1939 1.970 . S
O1998 C1968 1.325 1_554 S
O1999 Li1937 1.961 . S
O1999 Li1938 1.970 . S
O1999 Li1939 1.956 . S
O1999 C1974 1.325 . S
H2000 C1942 0.929 . S
H2001 C1943 0.930 . S
H2002 C1944 0.930 . S
H2003 C1945 0.930 . S
H2004 C1947 0.930 . S
H2005 C1949 0.929 . S
H2006 C1950 0.930 . S
H2007 C1951 0.930 . S
H2008 C1954 0.930 . S
H2009 C1957 0.929 1_556 S
H2010 C1962 0.929 . S
H2011 C1963 0.930 . S
H2012 C1970 0.929 . S
H2013 C1971 0.930 1_554 S
H2014 C1972 0.930 . S
H2015 C1973 0.930 . S
H2016 C1975 0.929 . S
H2017 C1976 0.930 . S
H2018 C1977 0.930 . S
H2019 C1978 0.930 . S
H2020 C1982 0.929 . S
H2021 C1984 0.930 . S
H2022 C1990 0.929 . S
H2023 C1991 0.930 . S
Li2024 N2041 1.990 . S
Li2024 O2084 1.956 . S
Li2024 O2085 1.970 . S
Li2024 O2086 1.961 . S
Li2025 N2049 1.990 . S
Li2025 O2084 1.970 . S
Li2025 O2085 1.956 . S
Li2025 O2087 1.961 . S
Li2026 N2071 1.990 . S
Li2026 O2084 1.961 . S
Li2026 O2086 1.956 . S
Li2026 O2087 1.970 . S
Li2027 N2077 1.990 . S
Li2027 O2085 1.961 . S
Li2027 O2086 1.970 . S
Li2027 O2087 1.956 . S
C2028 C2030 1.348 . S
C2028 C2031 1.356 . S
C2028 O2084 1.325 . S
N2029 C2032 1.314 . S
N2029 C2033 1.279 . S
C2030 C2028 1.348 . S
C2030 C2032 1.353 . S
C2030 H2088 0.929 . S
C2031 C2028 1.356 . S
C2031 C2033 1.358 . S
C2031 H2089 0.930 . S
C2032 N2029 1.314 . S
C2032 C2030 1.353 . S
C2032 H2090 0.930 . S
C2033 N2029 1.279 . S
C2033 C2031 1.358 . S
C2033 H2091 0.930 . S
C2034 C2037 1.348 . S
C2034 C2038 1.356 . S
C2034 O2085 1.325 . S
C2035 N2036 1.279 . S
C2035 C2038 1.358 . S
C2035 H2092 0.930 . S
N2036 C2035 1.279 . S
N2036 C2039 1.314 . S
C2037 C2034 1.348 . S
C2037 C2039 1.353 . S
C2037 H2093 0.929 . S
C2038 C2034 1.356 . S
C2038 C2035 1.358 . S
C2038 H2094 0.930 . S
C2039 N2036 1.314 . S
C2039 C2037 1.353 . S
C2039 H2095 0.930 . S
C2040 N2041 1.314 . S
C2040 C2045 1.353 . S
C2040 H2046 0.930 . S
N2041 Li2024 1.990 . S
N2041 C2040 1.314 . S
N2041 C2043 1.279 . S
C2042 C2043 1.358 . S
C2042 C2044 1.356 . S
C2042 H2096 0.930 . S
C2043 N2041 1.279 . S
C2043 C2042 1.358 . S
C2043 H2047 0.930 . S
C2044 C2042 1.356 . S
C2044 C2045 1.348 . S
C2045 C2040 1.353 . S
C2045 C2044 1.348 . S
C2045 H2097 0.929 . S
H2046 C2040 0.930 . S
H2047 C2043 0.930 . S
C2048 N2049 1.314 . S
C2048 C2050 1.353 . S
C2048 H2054 0.930 . S
N2049 Li2025 1.990 . S
N2049 C2048 1.314 . S
N2049 C2052 1.279 . S
C2050 C2048 1.353 . S
C2050 C2053 1.348 . S
C2050 H2098 0.929 . S
C2051 C2052 1.358 . S
C2051 C2053 1.356 . S
C2051 H2099 0.930 . S
C2052 N2049 1.279 . S
C2052 C2051 1.358 . S
C2052 H2055 0.930 . S
C2053 C2050 1.348 . S
C2053 C2051 1.356 . S
H2054 C2048 0.930 . S
H2055 C2052 0.930 . S
C2056 C2058 1.348 . S
C2056 C2059 1.356 . S
C2056 O2086 1.325 . S
N2057 C2060 1.314 . S
N2057 C2061 1.279 . S
C2058 C2056 1.348 . S
C2058 C2060 1.353 . S
C2058 H2100 0.929 . S
C2059 C2056 1.356 . S
C2059 C2061 1.358 . S
C2059 H2101 0.930 . S
C2060 N2057 1.314 . S
C2060 C2058 1.353 . S
C2060 H2102 0.930 . S
C2061 N2057 1.279 . S
C2061 C2059 1.358 . S
C2061 H2103 0.930 . S
C2062 C2063 1.348 . S
C2062 C2064 1.356 . S
C2062 O2087 1.325 . S
C2063 C2062 1.348 . S
C2063 C2065 1.353 . S
C2063 H2104 0.929 . S
C2064 C2062 1.356 . S
C2064 C2066 1.358 . S
C2064 H2105 0.930 . S
C2065 C2063 1.353 . S
C2065 N2067 1.314 . S
C2065 H2106 0.930 . S
C2066 C2064 1.358 . S
C2066 N2067 1.279 . S
C2066 H2107 0.930 . S
N2067 C2065 1.314 . S
N2067 C2066 1.279 . S
C2068 C2070 1.353 . S
C2068 N2071 1.314 . S
C2068 H2074 0.930 . S
C2069 N2071 1.279 . S
C2069 C2072 1.358 . S
C2069 H2075 0.930 . S
C2070 C2068 1.353 . S
C2070 C2073 1.348 . S
C2070 H2108 0.929 . S
N2071 Li2026 1.990 . S
N2071 C2068 1.314 . S
N2071 C2069 1.279 . S
C2072 C2069 1.358 . S
C2072 C2073 1.356 . S
C2072 H2109 0.930 . S
C2073 C2070 1.348 . S
C2073 C2072 1.356 . S
H2074 C2068 0.930 . S
H2075 C2069 0.930 . S
C2076 N2077 1.314 . S
C2076 C2078 1.353 . S
C2076 H2082 0.930 . S
N2077 Li2027 1.990 . S
N2077 C2076 1.314 . S
N2077 C2080 1.279 . S
C2078 C2076 1.353 . S
C2078 C2081 1.348 . S
C2078 H2110 0.929 . S
C2079 C2080 1.358 . S
C2079 C2081 1.356 . S
C2079 H2111 0.930 . S
C2080 N2077 1.279 . S
C2080 C2079 1.358 . S
C2080 H2083 0.930 . S
C2081 C2078 1.348 . S
C2081 C2079 1.356 . S
H2082 C2076 0.930 . S
H2083 C2080 0.930 . S
O2084 Li2024 1.956 . S
O2084 Li2025 1.970 . S
O2084 Li2026 1.961 . S
O2084 C2028 1.325 . S
O2085 Li2024 1.970 . S
O2085 Li2025 1.956 . S
O2085 Li2027 1.961 . S
O2085 C2034 1.325 . S
O2086 Li2024 1.961 . S
O2086 Li2026 1.956 . S
O2086 Li2027 1.970 . S
O2086 C2056 1.325 . S
O2087 Li2025 1.961 . S
O2087 Li2026 1.970 . S
O2087 Li2027 1.956 . S
O2087 C2062 1.325 . S
H2088 C2030 0.929 . S
H2089 C2031 0.930 . S
H2090 C2032 0.930 . S
H2091 C2033 0.930 . S
H2092 C2035 0.930 . S
H2093 C2037 0.929 . S
H2094 C2038 0.930 . S
H2095 C2039 0.930 . S
H2096 C2042 0.930 . S
H2097 C2045 0.929 . S
H2098 C2050 0.929 . S
H2099 C2051 0.930 . S
H2100 C2058 0.929 . S
H2101 C2059 0.930 . S
H2102 C2060 0.930 . S
H2103 C2061 0.930 . S
H2104 C2063 0.929 . S
H2105 C2064 0.930 . S
H2106 C2065 0.930 . S
H2107 C2066 0.930 . S
H2108 C2070 0.929 . S
H2109 C2072 0.930 . S
H2110 C2078 0.929 . S
H2111 C2079 0.930 . S
Li2112 N2129 1.990 . S
Li2112 O2172 1.956 . S
Li2112 O2173 1.970 . S
Li2112 O2174 1.961 . S
Li2113 N2137 1.990 . S
Li2113 O2172 1.970 . S
Li2113 O2173 1.956 . S
Li2113 O2175 1.961 . S
Li2114 N2159 1.990 . S
Li2114 O2172 1.961 . S
Li2114 O2174 1.956 . S
Li2114 O2175 1.970 . S
Li2115 N2165 1.990 . S
Li2115 O2173 1.961 . S
Li2115 O2174 1.970 . S
Li2115 O2175 1.956 . S
C2116 C2118 1.348 . S
C2116 C2119 1.356 . S
C2116 O2172 1.325 . S
N2117 C2120 1.314 . S
N2117 C2121 1.279 . S
C2118 C2116 1.348 . S
C2118 C2120 1.353 . S
C2118 H2176 0.929 . S
C2119 C2116 1.356 . S
C2119 C2121 1.358 . S
C2119 H2177 0.930 . S
C2120 N2117 1.314 . S
C2120 C2118 1.353 . S
C2120 H2178 0.930 . S
C2121 N2117 1.279 . S
C2121 C2119 1.358 . S
C2121 H2179 0.930 . S
C2122 C2125 1.348 . S
C2122 C2126 1.356 . S
C2122 O2173 1.325 . S
C2123 N2124 1.279 . S
C2123 C2126 1.358 . S
C2123 H2180 0.930 . S
N2124 C2123 1.279 . S
N2124 C2127 1.314 . S
C2125 C2122 1.348 . S
C2125 C2127 1.353 . S
C2125 H2181 0.929 . S
C2126 C2122 1.356 . S
C2126 C2123 1.358 . S
C2126 H2182 0.930 . S
C2127 N2124 1.314 . S
C2127 C2125 1.353 . S
C2127 H2183 0.930 . S
C2128 N2129 1.314 . S
C2128 C2133 1.353 . S
C2128 H2134 0.930 . S
N2129 Li2112 1.990 . S
N2129 C2128 1.314 . S
N2129 C2131 1.279 . S
C2130 C2131 1.358 . S
C2130 C2132 1.356 . S
C2130 H2184 0.930 . S
C2131 N2129 1.279 . S
C2131 C2130 1.358 . S
C2131 H2135 0.930 . S
C2132 C2130 1.356 . S
C2132 C2133 1.348 . S
C2133 C2128 1.353 . S
C2133 C2132 1.348 . S
C2133 H2185 0.929 . S
H2134 C2128 0.930 . S
H2135 C2131 0.930 . S
C2136 N2137 1.314 . S
C2136 C2138 1.353 . S
C2136 H2142 0.930 . S
N2137 Li2113 1.990 . S
N2137 C2136 1.314 . S
N2137 C2140 1.279 . S
C2138 C2136 1.353 . S
C2138 C2141 1.348 . S
C2138 H2186 0.929 . S
C2139 C2140 1.358 . S
C2139 C2141 1.356 . S
C2139 H2187 0.930 . S
C2140 N2137 1.279 . S
C2140 C2139 1.358 . S
C2140 H2143 0.930 . S
C2141 C2138 1.348 . S
C2141 C2139 1.356 . S
H2142 C2136 0.930 . S
H2143 C2140 0.930 . S
C2144 C2146 1.348 . S
C2144 C2147 1.356 . S
C2144 O2174 1.325 . S
N2145 C2148 1.314 . S
N2145 C2149 1.279 . S
C2146 C2144 1.348 . S
C2146 C2148 1.353 . S
C2146 H2188 0.929 . S
C2147 C2144 1.356 . S
C2147 C2149 1.358 . S
C2147 H2189 0.930 . S
C2148 N2145 1.314 . S
C2148 C2146 1.353 . S
C2148 H2190 0.930 . S
C2149 N2145 1.279 . S
C2149 C2147 1.358 . S
C2149 H2191 0.930 . S
C2150 C2151 1.348 . S
C2150 C2152 1.356 . S
C2150 O2175 1.325 . S
C2151 C2150 1.348 . S
C2151 C2153 1.353 . S
C2151 H2192 0.929 . S
C2152 C2150 1.356 . S
C2152 C2154 1.358 . S
C2152 H2193 0.930 . S
C2153 C2151 1.353 . S
C2153 N2155 1.314 . S
C2153 H2194 0.930 . S
C2154 C2152 1.358 . S
C2154 N2155 1.279 . S
C2154 H2195 0.930 . S
N2155 C2153 1.314 . S
N2155 C2154 1.279 . S
C2156 C2158 1.353 . S
C2156 N2159 1.314 . S
C2156 H2162 0.930 . S
C2157 N2159 1.279 . S
C2157 C2160 1.358 . S
C2157 H2163 0.930 . S
C2158 C2156 1.353 . S
C2158 C2161 1.348 . S
C2158 H2196 0.929 . S
N2159 Li2114 1.990 . S
N2159 C2156 1.314 . S
N2159 C2157 1.279 . S
C2160 C2157 1.358 . S
C2160 C2161 1.356 . S
C2160 H2197 0.930 . S
C2161 C2158 1.348 . S
C2161 C2160 1.356 . S
H2162 C2156 0.930 . S
H2163 C2157 0.930 . S
C2164 N2165 1.314 . S
C2164 C2166 1.353 . S
C2164 H2170 0.930 . S
N2165 Li2115 1.990 . S
N2165 C2164 1.314 . S
N2165 C2168 1.279 . S
C2166 C2164 1.353 . S
C2166 C2169 1.348 . S
C2166 H2198 0.929 . S
C2167 C2168 1.358 . S
C2167 C2169 1.356 . S
C2167 H2199 0.930 . S
C2168 N2165 1.279 . S
C2168 C2167 1.358 . S
C2168 H2171 0.930 . S
C2169 C2166 1.348 . S
C2169 C2167 1.356 . S
H2170 C2164 0.930 . S
H2171 C2168 0.930 . S
O2172 Li2112 1.956 . S
O2172 Li2113 1.970 . S
O2172 Li2114 1.961 . S
O2172 C2116 1.325 . S
O2173 Li2112 1.970 . S
O2173 Li2113 1.956 . S
O2173 Li2115 1.961 . S
O2173 C2122 1.325 . S
O2174 Li2112 1.961 . S
O2174 Li2114 1.956 . S
O2174 Li2115 1.970 . S
O2174 C2144 1.325 . S
O2175 Li2113 1.961 . S
O2175 Li2114 1.970 . S
O2175 Li2115 1.956 . S
O2175 C2150 1.325 . S
H2176 C2118 0.929 . S
H2177 C2119 0.930 . S
H2178 C2120 0.930 . S
H2179 C2121 0.930 . S
H2180 C2123 0.930 . S
H2181 C2125 0.929 . S
H2182 C2126 0.930 . S
H2183 C2127 0.930 . S
H2184 C2130 0.930 . S
H2185 C2133 0.929 . S
H2186 C2138 0.929 . S
H2187 C2139 0.930 . S
H2188 C2146 0.929 . S
H2189 C2147 0.930 . S
H2190 C2148 0.930 . S
H2191 C2149 0.930 . S
H2192 C2151 0.929 . S
H2193 C2152 0.930 . S
H2194 C2153 0.930 . S
H2195 C2154 0.930 . S
H2196 C2158 0.929 . S
H2197 C2160 0.930 . S
H2198 C2166 0.929 . S
H2199 C2167 0.930 . S
Li2200 N2217 1.990 . S
Li2200 O2260 1.956 . S
Li2200 O2261 1.970 . S
Li2200 O2262 1.961 . S
Li2201 N2225 1.990 . S
Li2201 O2260 1.970 . S
Li2201 O2261 1.956 . S
Li2201 O2263 1.961 . S
Li2202 N2247 1.990 . S
Li2202 O2260 1.961 . S
Li2202 O2262 1.956 . S
Li2202 O2263 1.970 . S
Li2203 N2253 1.990 . S
Li2203 O2261 1.961 . S
Li2203 O2262 1.970 . S
Li2203 O2263 1.956 . S
C2204 C2206 1.348 . S
C2204 C2207 1.356 . S
C2204 O2260 1.325 . S
N2205 C2208 1.314 . S
N2205 C2209 1.279 . S
C2206 C2204 1.348 . S
C2206 C2208 1.353 . S
C2206 H2264 0.929 . S
C2207 C2204 1.356 . S
C2207 C2209 1.358 . S
C2207 H2265 0.930 . S
C2208 N2205 1.314 . S
C2208 C2206 1.353 . S
C2208 H2266 0.930 . S
C2209 N2205 1.279 . S
C2209 C2207 1.358 . S
C2209 H2267 0.930 . S
C2210 C2213 1.348 . S
C2210 C2214 1.356 . S
C2210 O2261 1.325 . S
C2211 N2212 1.279 . S
C2211 C2214 1.358 . S
C2211 H2268 0.930 . S
N2212 C2211 1.279 . S
N2212 C2215 1.314 . S
C2213 C2210 1.348 . S
C2213 C2215 1.353 . S
C2213 H2269 0.929 . S
C2214 C2210 1.356 . S
C2214 C2211 1.358 . S
C2214 H2270 0.930 . S
C2215 N2212 1.314 . S
C2215 C2213 1.353 . S
C2215 H2271 0.930 . S
C2216 N2217 1.314 . S
C2216 C2221 1.353 . S
C2216 H2222 0.930 . S
N2217 Li2200 1.990 . S
N2217 C2216 1.314 . S
N2217 C2219 1.279 . S
C2218 C2219 1.358 . S
C2218 C2220 1.356 . S
C2218 H2272 0.930 . S
C2219 N2217 1.279 . S
C2219 C2218 1.358 . S
C2219 H2223 0.930 . S
C2220 C2218 1.356 . S
C2220 C2221 1.348 . S
C2221 C2216 1.353 . S
C2221 C2220 1.348 . S
C2221 H2273 0.929 . S
H2222 C2216 0.930 . S
H2223 C2219 0.930 . S
C2224 N2225 1.314 . S
C2224 C2226 1.353 . S
C2224 H2230 0.930 . S
N2225 Li2201 1.990 . S
N2225 C2224 1.314 . S
N2225 C2228 1.279 . S
C2226 C2224 1.353 . S
C2226 C2229 1.348 . S
C2226 H2274 0.929 . S
C2227 C2228 1.358 . S
C2227 C2229 1.356 . S
C2227 H2275 0.930 . S
C2228 N2225 1.279 . S
C2228 C2227 1.358 . S
C2228 H2231 0.930 . S
C2229 C2226 1.348 . S
C2229 C2227 1.356 . S
H2230 C2224 0.930 . S
H2231 C2228 0.930 . S
C2232 C2234 1.348 . S
C2232 C2235 1.356 . S
C2232 O2262 1.325 . S
N2233 C2236 1.314 . S
N2233 C2237 1.279 . S
C2234 C2232 1.348 . S
C2234 C2236 1.353 . S
C2234 H2276 0.929 . S
C2235 C2232 1.356 . S
C2235 C2237 1.358 . S
C2235 H2277 0.930 . S
C2236 N2233 1.314 . S
C2236 C2234 1.353 . S
C2236 H2278 0.930 . S
C2237 N2233 1.279 . S
C2237 C2235 1.358 . S
C2237 H2279 0.930 . S
C2238 C2239 1.348 . S
C2238 C2240 1.356 . S
C2238 O2263 1.325 . S
C2239 C2238 1.348 . S
C2239 C2241 1.353 . S
C2239 H2280 0.929 . S
C2240 C2238 1.356 . S
C2240 C2242 1.358 . S
C2240 H2281 0.930 . S
C2241 C2239 1.353 . S
C2241 N2243 1.314 . S
C2241 H2282 0.930 . S
C2242 C2240 1.358 . S
C2242 N2243 1.279 . S
C2242 H2283 0.930 . S
N2243 C2241 1.314 . S
N2243 C2242 1.279 . S
C2244 C2246 1.353 . S
C2244 N2247 1.314 . S
C2244 H2250 0.930 . S
C2245 N2247 1.279 . S
C2245 C2248 1.358 . S
C2245 H2251 0.930 . S
C2246 C2244 1.353 . S
C2246 C2249 1.348 . S
C2246 H2284 0.929 . S
N2247 Li2202 1.990 . S
N2247 C2244 1.314 . S
N2247 C2245 1.279 . S
C2248 C2245 1.358 . S
C2248 C2249 1.356 . S
C2248 H2285 0.930 . S
C2249 C2246 1.348 . S
C2249 C2248 1.356 . S
H2250 C2244 0.930 . S
H2251 C2245 0.930 . S
C2252 N2253 1.314 . S
C2252 C2254 1.353 . S
C2252 H2258 0.930 . S
N2253 Li2203 1.990 . S
N2253 C2252 1.314 . S
N2253 C2256 1.279 . S
C2254 C2252 1.353 . S
C2254 C2257 1.348 . S
C2254 H2286 0.929 . S
C2255 C2256 1.358 . S
C2255 C2257 1.356 . S
C2255 H2287 0.930 . S
C2256 N2253 1.279 . S
C2256 C2255 1.358 . S
C2256 H2259 0.930 . S
C2257 C2254 1.348 . S
C2257 C2255 1.356 . S
H2258 C2252 0.930 . S
H2259 C2256 0.930 . S
O2260 Li2200 1.956 . S
O2260 Li2201 1.970 . S
O2260 Li2202 1.961 . S
O2260 C2204 1.325 . S
O2261 Li2200 1.970 . S
O2261 Li2201 1.956 . S
O2261 Li2203 1.961 . S
O2261 C2210 1.325 . S
O2262 Li2200 1.961 . S
O2262 Li2202 1.956 . S
O2262 Li2203 1.970 . S
O2262 C2232 1.325 . S
O2263 Li2201 1.961 . S
O2263 Li2202 1.970 . S
O2263 Li2203 1.956 . S
O2263 C2238 1.325 . S
H2264 C2206 0.929 . S
H2265 C2207 0.930 . S
H2266 C2208 0.930 . S
H2267 C2209 0.930 . S
H2268 C2211 0.930 . S
H2269 C2213 0.929 . S
H2270 C2214 0.930 . S
H2271 C2215 0.930 . S
H2272 C2218 0.930 . S
H2273 C2221 0.929 . S
H2274 C2226 0.929 . S
H2275 C2227 0.930 . S
H2276 C2234 0.929 . S
H2277 C2235 0.930 . S
H2278 C2236 0.930 . S
H2279 C2237 0.930 . S
H2280 C2239 0.929 . S
H2281 C2240 0.930 . S
H2282 C2241 0.930 . S
H2283 C2242 0.930 . S
H2284 C2246 0.929 . S
H2285 C2248 0.930 . S
H2286 C2254 0.929 . S
H2287 C2255 0.930 . S
Li2288 N2305 1.990 . S
Li2288 O2348 1.956 . S
Li2288 O2349 1.970 . S
Li2288 O2350 1.961 . S
Li2289 N2313 1.990 . S
Li2289 O2348 1.970 . S
Li2289 O2349 1.956 . S
Li2289 O2351 1.961 . S
Li2290 N2335 1.990 1_554 S
Li2290 O2348 1.961 . S
Li2290 O2350 1.956 . S
Li2290 O2351 1.970 . S
Li2291 N2341 1.990 . S
Li2291 O2349 1.961 . S
Li2291 O2350 1.970 . S
Li2291 O2351 1.956 . S
C2292 C2294 1.348 . S
C2292 C2295 1.356 . S
C2292 O2348 1.325 . S
N2293 C2296 1.314 . S
N2293 C2297 1.279 . S
C2294 C2292 1.348 . S
C2294 C2296 1.353 . S
C2294 H2352 0.929 . S
C2295 C2292 1.356 . S
C2295 C2297 1.358 . S
C2295 H2353 0.930 . S
C2296 N2293 1.314 . S
C2296 C2294 1.353 . S
C2296 H2354 0.930 . S
C2297 N2293 1.279 . S
C2297 C2295 1.358 . S
C2297 H2355 0.930 . S
C2298 C2301 1.348 . S
C2298 C2302 1.356 . S
C2298 O2349 1.325 . S
C2299 N2300 1.279 . S
C2299 C2302 1.358 . S
C2299 H2356 0.930 . S
N2300 C2299 1.279 . S
N2300 C2303 1.314 . S
C2301 C2298 1.348 . S
C2301 C2303 1.353 . S
C2301 H2357 0.929 . S
C2302 C2298 1.356 . S
C2302 C2299 1.358 . S
C2302 H2358 0.930 . S
C2303 N2300 1.314 . S
C2303 C2301 1.353 . S
C2303 H2359 0.930 . S
C2304 N2305 1.314 . S
C2304 C2309 1.353 . S
C2304 H2310 0.930 . S
N2305 Li2288 1.990 . S
N2305 C2304 1.314 . S
N2305 C2307 1.279 . S
C2306 C2307 1.358 . S
C2306 C2308 1.356 . S
C2306 H2360 0.930 . S
C2307 N2305 1.279 . S
C2307 C2306 1.358 . S
C2307 H2311 0.930 . S
C2308 C2306 1.356 . S
C2308 C2309 1.348 . S
C2309 C2304 1.353 . S
C2309 C2308 1.348 . S
C2309 H2361 0.929 . S
H2310 C2304 0.930 . S
H2311 C2307 0.930 . S
C2312 N2313 1.314 . S
C2312 C2314 1.353 . S
C2312 H2318 0.930 . S
N2313 Li2289 1.990 . S
N2313 C2312 1.314 . S
N2313 C2316 1.279 . S
C2314 C2312 1.353 . S
C2314 C2317 1.348 . S
C2314 H2362 0.929 . S
C2315 C2316 1.358 . S
C2315 C2317 1.356 . S
C2315 H2363 0.930 . S
C2316 N2313 1.279 . S
C2316 C2315 1.358 . S
C2316 H2319 0.930 . S
C2317 C2314 1.348 . S
C2317 C2315 1.356 . S
H2318 C2312 0.930 . S
H2319 C2316 0.930 . S
C2320 C2322 1.348 . S
C2320 C2323 1.356 . S
C2320 O2350 1.325 . S
N2321 C2324 1.314 . S
N2321 C2325 1.279 . S
C2322 C2320 1.348 . S
C2322 C2324 1.353 . S
C2322 H2364 0.929 . S
C2323 C2320 1.356 . S
C2323 C2325 1.358 . S
C2323 H2365 0.930 . S
C2324 N2321 1.314 . S
C2324 C2322 1.353 . S
C2324 H2366 0.930 . S
C2325 N2321 1.279 . S
C2325 C2323 1.358 . S
C2325 H2367 0.930 . S
C2326 C2327 1.348 . S
C2326 C2328 1.356 . S
C2326 O2351 1.325 1_556 S
C2327 C2326 1.348 . S
C2327 C2329 1.353 . S
C2327 H2368 0.929 . S
C2328 C2326 1.356 . S
C2328 C2330 1.358 . S
C2328 H2369 0.930 1_556 S
C2329 C2327 1.353 . S
C2329 N2331 1.314 . S
C2329 H2370 0.930 . S
C2330 C2328 1.358 . S
C2330 N2331 1.279 . S
C2330 H2371 0.930 . S
N2331 C2329 1.314 . S
N2331 C2330 1.279 . S
C2332 C2334 1.353 . S
C2332 N2335 1.314 . S
C2332 H2338 0.930 . S
C2333 N2335 1.279 . S
C2333 C2336 1.358 . S
C2333 H2339 0.930 . S
C2334 C2332 1.353 . S
C2334 C2337 1.348 . S
C2334 H2372 0.929 . S
N2335 Li2290 1.990 1_556 S
N2335 C2332 1.314 . S
N2335 C2333 1.279 . S
C2336 C2333 1.358 . S
C2336 C2337 1.356 . S
C2336 H2373 0.930 . S
C2337 C2334 1.348 . S
C2337 C2336 1.356 . S
H2338 C2332 0.930 . S
H2339 C2333 0.930 . S
C2340 N2341 1.314 . S
C2340 C2342 1.353 . S
C2340 H2346 0.930 . S
N2341 Li2291 1.990 . S
N2341 C2340 1.314 . S
N2341 C2344 1.279 . S
C2342 C2340 1.353 . S
C2342 C2345 1.348 . S
C2342 H2374 0.929 . S
C2343 C2344 1.358 . S
C2343 C2345 1.356 . S
C2343 H2375 0.930 1_554 S
C2344 N2341 1.279 . S
C2344 C2343 1.358 . S
C2344 H2347 0.930 1_554 S
C2345 C2342 1.348 . S
C2345 C2343 1.356 . S
H2346 C2340 0.930 . S
H2347 C2344 0.930 1_556 S
O2348 Li2288 1.956 . S
O2348 Li2289 1.970 . S
O2348 Li2290 1.961 . S
O2348 C2292 1.325 . S
O2349 Li2288 1.970 . S
O2349 Li2289 1.956 . S
O2349 Li2291 1.961 . S
O2349 C2298 1.325 . S
O2350 Li2288 1.961 . S
O2350 Li2290 1.956 . S
O2350 Li2291 1.970 . S
O2350 C2320 1.325 . S
O2351 Li2289 1.961 . S
O2351 Li2290 1.970 . S
O2351 Li2291 1.956 . S
O2351 C2326 1.325 1_554 S
H2352 C2294 0.929 . S
H2353 C2295 0.930 . S
H2354 C2296 0.930 . S
H2355 C2297 0.930 . S
H2356 C2299 0.930 . S
H2357 C2301 0.929 . S
H2358 C2302 0.930 . S
H2359 C2303 0.930 . S
H2360 C2306 0.930 . S
H2361 C2309 0.929 . S
H2362 C2314 0.929 . S
H2363 C2315 0.930 . S
H2364 C2322 0.929 . S
H2365 C2323 0.930 . S
H2366 C2324 0.930 . S
H2367 C2325 0.930 . S
H2368 C2327 0.929 . S
H2369 C2328 0.930 1_554 S
H2370 C2329 0.930 . S
H2371 C2330 0.930 . S
H2372 C2334 0.929 . S
H2373 C2336 0.930 . S
H2374 C2342 0.929 . S
H2375 C2343 0.930 1_556 S
Li2376 N2393 1.990 . S
Li2376 O2436 1.956 . S
Li2376 O2437 1.970 . S
Li2376 O2438 1.961 . S
Li2377 N2401 1.990 . S
Li2377 O2436 1.970 . S
Li2377 O2437 1.956 . S
Li2377 O2439 1.961 . S
Li2378 N2423 1.990 . S
Li2378 O2436 1.961 . S
Li2378 O2438 1.956 . S
Li2378 O2439 1.970 . S
Li2379 N2429 1.990 . S
Li2379 O2437 1.961 . S
Li2379 O2438 1.970 . S
Li2379 O2439 1.956 . S
C2380 C2382 1.348 . S
C2380 C2383 1.356 . S
C2380 O2436 1.325 . S
N2381 C2384 1.314 . S
N2381 C2385 1.279 . S
C2382 C2380 1.348 . S
C2382 C2384 1.353 . S
C2382 H2440 0.929 . S
C2383 C2380 1.356 . S
C2383 C2385 1.358 . S
C2383 H2441 0.930 . S
C2384 N2381 1.314 . S
C2384 C2382 1.353 . S
C2384 H2442 0.930 . S
C2385 N2381 1.279 . S
C2385 C2383 1.358 . S
C2385 H2443 0.930 . S
C2386 C2389 1.348 . S
C2386 C2390 1.356 . S
C2386 O2437 1.325 . S
C2387 N2388 1.279 . S
C2387 C2390 1.358 . S
C2387 H2444 0.930 . S
N2388 C2387 1.279 . S
N2388 C2391 1.314 . S
C2389 C2386 1.348 . S
C2389 C2391 1.353 . S
C2389 H2445 0.929 . S
C2390 C2386 1.356 . S
C2390 C2387 1.358 . S
C2390 H2446 0.930 . S
C2391 N2388 1.314 . S
C2391 C2389 1.353 . S
C2391 H2447 0.930 1_556 S
C2392 N2393 1.314 . S
C2392 C2397 1.353 . S
C2392 H2398 0.930 . S
N2393 Li2376 1.990 . S
N2393 C2392 1.314 . S
N2393 C2395 1.279 . S
C2394 C2395 1.358 . S
C2394 C2396 1.356 . S
C2394 H2448 0.930 . S
C2395 N2393 1.279 . S
C2395 C2394 1.358 . S
C2395 H2399 0.930 . S
C2396 C2394 1.356 . S
C2396 C2397 1.348 . S
C2397 C2392 1.353 . S
C2397 C2396 1.348 . S
C2397 H2449 0.929 . S
H2398 C2392 0.930 . S
H2399 C2395 0.930 . S
C2400 N2401 1.314 . S
C2400 C2402 1.353 . S
C2400 H2406 0.930 . S
N2401 Li2377 1.990 . S
N2401 C2400 1.314 . S
N2401 C2404 1.279 . S
C2402 C2400 1.353 . S
C2402 C2405 1.348 . S
C2402 H2450 0.929 . S
C2403 C2404 1.358 . S
C2403 C2405 1.356 . S
C2403 H2451 0.930 . S
C2404 N2401 1.279 . S
C2404 C2403 1.358 . S
C2404 H2407 0.930 . S
C2405 C2402 1.348 . S
C2405 C2403 1.356 . S
H2406 C2400 0.930 . S
H2407 C2404 0.930 . S
C2408 C2410 1.348 . S
C2408 C2411 1.356 . S
C2408 O2438 1.325 . S
N2409 C2412 1.314 . S
N2409 C2413 1.279 . S
C2410 C2408 1.348 . S
C2410 C2412 1.353 . S
C2410 H2452 0.929 . S
C2411 C2408 1.356 . S
C2411 C2413 1.358 . S
C2411 H2453 0.930 . S
C2412 N2409 1.314 . S
C2412 C2410 1.353 . S
C2412 H2454 0.930 . S
C2413 N2409 1.279 . S
C2413 C2411 1.358 . S
C2413 H2455 0.930 . S
C2414 C2415 1.348 . S
C2414 C2416 1.356 . S
C2414 O2439 1.325 . S
C2415 C2414 1.348 . S
C2415 C2417 1.353 . S
C2415 H2456 0.929 . S
C2416 C2414 1.356 . S
C2416 C2418 1.358 . S
C2416 H2457 0.930 . S
C2417 C2415 1.353 . S
C2417 N2419 1.314 . S
C2417 H2458 0.930 . S
C2418 C2416 1.358 . S
C2418 N2419 1.279 . S
C2418 H2459 0.930 . S
N2419 C2417 1.314 . S
N2419 C2418 1.279 . S
C2420 C2422 1.353 . S
C2420 N2423 1.314 . S
C2420 H2426 0.930 . S
C2421 N2423 1.279 . S
C2421 C2424 1.358 . S
C2421 H2427 0.930 . S
C2422 C2420 1.353 . S
C2422 C2425 1.348 . S
C2422 H2460 0.929 . S
N2423 Li2378 1.990 . S
N2423 C2420 1.314 . S
N2423 C2421 1.279 . S
C2424 C2421 1.358 . S
C2424 C2425 1.356 . S
C2424 H2461 0.930 . S
C2425 C2422 1.348 . S
C2425 C2424 1.356 . S
H2426 C2420 0.930 . S
H2427 C2421 0.930 . S
C2428 N2429 1.314 . S
C2428 C2430 1.353 . S
C2428 H2434 0.930 . S
N2429 Li2379 1.990 . S
N2429 C2428 1.314 . S
N2429 C2432 1.279 . S
C2430 C2428 1.353 . S
C2430 C2433 1.348 . S
C2430 H2462 0.929 . S
C2431 C2432 1.358 . S
C2431 C2433 1.356 . S
C2431 H2463 0.930 . S
C2432 N2429 1.279 . S
C2432 C2431 1.358 . S
C2432 H2435 0.930 . S
C2433 C2430 1.348 . S
C2433 C2431 1.356 . S
H2434 C2428 0.930 . S
H2435 C2432 0.930 . S
O2436 Li2376 1.956 . S
O2436 Li2377 1.970 . S
O2436 Li2378 1.961 . S
O2436 C2380 1.325 . S
O2437 Li2376 1.970 . S
O2437 Li2377 1.956 . S
O2437 Li2379 1.961 . S
O2437 C2386 1.325 . S
O2438 Li2376 1.961 . S
O2438 Li2378 1.956 . S
O2438 Li2379 1.970 . S
O2438 C2408 1.325 . S
O2439 Li2377 1.961 . S
O2439 Li2378 1.970 . S
O2439 Li2379 1.956 . S
O2439 C2414 1.325 . S
H2440 C2382 0.929 . S
H2441 C2383 0.930 . S
H2442 C2384 0.930 . S
H2443 C2385 0.930 . S
H2444 C2387 0.930 . S
H2445 C2389 0.929 . S
H2446 C2390 0.930 . S
H2447 C2391 0.930 1_554 S
H2448 C2394 0.930 . S
H2449 C2397 0.929 . S
H2450 C2402 0.929 . S
H2451 C2403 0.930 . S
H2452 C2410 0.929 . S
H2453 C2411 0.930 . S
H2454 C2412 0.930 . S
H2455 C2413 0.930 . S
H2456 C2415 0.929 . S
H2457 C2416 0.930 . S
H2458 C2417 0.930 . S
H2459 C2418 0.930 . S
H2460 C2422 0.929 . S
H2461 C2424 0.930 . S
H2462 C2430 0.929 . S
H2463 C2431 0.930 . S
Li2464 N2481 1.990 . S
Li2464 O2524 1.956 . S
Li2464 O2525 1.970 . S
Li2464 O2526 1.961 . S
Li2465 N2489 1.990 . S
Li2465 O2524 1.970 . S
Li2465 O2525 1.956 . S
Li2465 O2527 1.961 . S
Li2466 N2511 1.990 . S
Li2466 O2524 1.961 . S
Li2466 O2526 1.956 . S
Li2466 O2527 1.970 . S
Li2467 N2517 1.990 . S
Li2467 O2525 1.961 . S
Li2467 O2526 1.970 . S
Li2467 O2527 1.956 . S
C2468 C2470 1.348 . S
C2468 C2471 1.356 . S
C2468 O2524 1.325 . S
N2469 C2472 1.314 . S
N2469 C2473 1.279 . S
C2470 C2468 1.348 . S
C2470 C2472 1.353 . S
C2470 H2528 0.929 . S
C2471 C2468 1.356 . S
C2471 C2473 1.358 . S
C2471 H2529 0.930 . S
C2472 N2469 1.314 . S
C2472 C2470 1.353 . S
C2472 H2530 0.930 . S
C2473 N2469 1.279 . S
C2473 C2471 1.358 . S
C2473 H2531 0.930 . S
C2474 C2477 1.348 . S
C2474 C2478 1.356 . S
C2474 O2525 1.325 . S
C2475 N2476 1.279 . S
C2475 C2478 1.358 . S
C2475 H2532 0.930 . S
N2476 C2475 1.279 . S
N2476 C2479 1.314 . S
C2477 C2474 1.348 . S
C2477 C2479 1.353 . S
C2477 H2533 0.929 . S
C2478 C2474 1.356 . S
C2478 C2475 1.358 . S
C2478 H2534 0.930 . S
C2479 N2476 1.314 . S
C2479 C2477 1.353 . S
C2479 H2535 0.930 . S
C2480 N2481 1.314 . S
C2480 C2485 1.353 . S
C2480 H2486 0.930 . S
N2481 Li2464 1.990 . S
N2481 C2480 1.314 . S
N2481 C2483 1.279 . S
C2482 C2483 1.358 . S
C2482 C2484 1.356 . S
C2482 H2536 0.930 . S
C2483 N2481 1.279 . S
C2483 C2482 1.358 . S
C2483 H2487 0.930 . S
C2484 C2482 1.356 . S
C2484 C2485 1.348 . S
C2485 C2480 1.353 . S
C2485 C2484 1.348 . S
C2485 H2537 0.929 . S
H2486 C2480 0.930 . S
H2487 C2483 0.930 . S
C2488 N2489 1.314 . S
C2488 C2490 1.353 . S
C2488 H2494 0.930 . S
N2489 Li2465 1.990 . S
N2489 C2488 1.314 . S
N2489 C2492 1.279 . S
C2490 C2488 1.353 . S
C2490 C2493 1.348 . S
C2490 H2538 0.929 . S
C2491 C2492 1.358 . S
C2491 C2493 1.356 . S
C2491 H2539 0.930 . S
C2492 N2489 1.279 . S
C2492 C2491 1.358 . S
C2492 H2495 0.930 . S
C2493 C2490 1.348 . S
C2493 C2491 1.356 . S
H2494 C2488 0.930 . S
H2495 C2492 0.930 . S
C2496 C2498 1.348 . S
C2496 C2499 1.356 . S
C2496 O2526 1.325 . S
N2497 C2500 1.314 . S
N2497 C2501 1.279 . S
C2498 C2496 1.348 . S
C2498 C2500 1.353 . S
C2498 H2540 0.929 . S
C2499 C2496 1.356 . S
C2499 C2501 1.358 . S
C2499 H2541 0.930 . S
C2500 N2497 1.314 . S
C2500 C2498 1.353 . S
C2500 H2542 0.930 . S
C2501 N2497 1.279 . S
C2501 C2499 1.358 . S
C2501 H2543 0.930 . S
C2502 C2503 1.348 . S
C2502 C2504 1.356 . S
C2502 O2527 1.325 . S
C2503 C2502 1.348 . S
C2503 C2505 1.353 . S
C2503 H2544 0.929 . S
C2504 C2502 1.356 . S
C2504 C2506 1.358 . S
C2504 H2545 0.930 . S
C2505 C2503 1.353 . S
C2505 N2507 1.314 . S
C2505 H2546 0.930 . S
C2506 C2504 1.358 . S
C2506 N2507 1.279 . S
C2506 H2547 0.930 . S
N2507 C2505 1.314 . S
N2507 C2506 1.279 . S
C2508 C2510 1.353 . S
C2508 N2511 1.314 . S
C2508 H2514 0.930 . S
C2509 N2511 1.279 . S
C2509 C2512 1.358 . S
C2509 H2515 0.930 . S
C2510 C2508 1.353 . S
C2510 C2513 1.348 . S
C2510 H2548 0.929 . S
N2511 Li2466 1.990 . S
N2511 C2508 1.314 . S
N2511 C2509 1.279 . S
C2512 C2509 1.358 . S
C2512 C2513 1.356 . S
C2512 H2549 0.930 . S
C2513 C2510 1.348 . S
C2513 C2512 1.356 . S
H2514 C2508 0.930 . S
H2515 C2509 0.930 . S
C2516 N2517 1.314 . S
C2516 C2518 1.353 . S
C2516 H2522 0.930 . S
N2517 Li2467 1.990 . S
N2517 C2516 1.314 . S
N2517 C2520 1.279 . S
C2518 C2516 1.353 . S
C2518 C2521 1.348 . S
C2518 H2550 0.929 . S
C2519 C2520 1.358 . S
C2519 C2521 1.356 . S
C2519 H2551 0.930 . S
C2520 N2517 1.279 . S
C2520 C2519 1.358 . S
C2520 H2523 0.930 . S
C2521 C2518 1.348 . S
C2521 C2519 1.356 . S
H2522 C2516 0.930 . S
H2523 C2520 0.930 . S
O2524 Li2464 1.956 . S
O2524 Li2465 1.970 . S
O2524 Li2466 1.961 . S
O2524 C2468 1.325 . S
O2525 Li2464 1.970 . S
O2525 Li2465 1.956 . S
O2525 Li2467 1.961 . S
O2525 C2474 1.325 . S
O2526 Li2464 1.961 . S
O2526 Li2466 1.956 . S
O2526 Li2467 1.970 . S
O2526 C2496 1.325 . S
O2527 Li2465 1.961 . S
O2527 Li2466 1.970 . S
O2527 Li2467 1.956 . S
O2527 C2502 1.325 . S
H2528 C2470 0.929 . S
H2529 C2471 0.930 . S
H2530 C2472 0.930 . S
H2531 C2473 0.930 . S
H2532 C2475 0.930 . S
H2533 C2477 0.929 . S
H2534 C2478 0.930 . S
H2535 C2479 0.930 . S
H2536 C2482 0.930 . S
H2537 C2485 0.929 . S
H2538 C2490 0.929 . S
H2539 C2491 0.930 . S
H2540 C2498 0.929 . S
H2541 C2499 0.930 . S
H2542 C2500 0.930 . S
H2543 C2501 0.930 . S
H2544 C2503 0.929 . S
H2545 C2504 0.930 . S
H2546 C2505 0.930 . S
H2547 C2506 0.930 . S
H2548 C2510 0.929 . S
H2549 C2512 0.930 . S
H2550 C2518 0.929 . S
H2551 C2519 0.930 . S
Li2552 N2569 1.990 . S
Li2552 O2612 1.956 . S
Li2552 O2613 1.970 . S
Li2552 O2614 1.961 . S
Li2553 N2577 1.990 . S
Li2553 O2612 1.970 . S
Li2553 O2613 1.956 . S
Li2553 O2615 1.961 . S
Li2554 N2599 1.990 . S
Li2554 O2612 1.961 . S
Li2554 O2614 1.956 . S
Li2554 O2615 1.970 . S
Li2555 N2605 1.990 . S
Li2555 O2613 1.961 . S
Li2555 O2614 1.970 . S
Li2555 O2615 1.956 . S
C2556 C2558 1.348 . S
C2556 C2559 1.356 . S
C2556 O2612 1.325 . S
N2557 C2560 1.314 . S
N2557 C2561 1.279 . S
C2558 C2556 1.348 . S
C2558 C2560 1.353 . S
C2558 H2616 0.929 . S
C2559 C2556 1.356 . S
C2559 C2561 1.358 . S
C2559 H2617 0.930 . S
C2560 N2557 1.314 . S
C2560 C2558 1.353 . S
C2560 H2618 0.930 . S
C2561 N2557 1.279 . S
C2561 C2559 1.358 . S
C2561 H2619 0.930 . S
C2562 C2565 1.348 . S
C2562 C2566 1.356 . S
C2562 O2613 1.325 . S
C2563 N2564 1.279 . S
C2563 C2566 1.358 . S
C2563 H2620 0.930 . S
N2564 C2563 1.279 . S
N2564 C2567 1.314 . S
C2565 C2562 1.348 . S
C2565 C2567 1.353 . S
C2565 H2621 0.929 . S
C2566 C2562 1.356 . S
C2566 C2563 1.358 . S
C2566 H2622 0.930 . S
C2567 N2564 1.314 . S
C2567 C2565 1.353 . S
C2567 H2623 0.930 . S
C2568 N2569 1.314 . S
C2568 C2573 1.353 . S
C2568 H2574 0.930 . S
N2569 Li2552 1.990 . S
N2569 C2568 1.314 . S
N2569 C2571 1.279 . S
C2570 C2571 1.358 . S
C2570 C2572 1.356 . S
C2570 H2624 0.930 . S
C2571 N2569 1.279 . S
C2571 C2570 1.358 . S
C2571 H2575 0.930 . S
C2572 C2570 1.356 . S
C2572 C2573 1.348 . S
C2573 C2568 1.353 . S
C2573 C2572 1.348 . S
C2573 H2625 0.929 . S
H2574 C2568 0.930 . S
H2575 C2571 0.930 . S
C2576 N2577 1.314 . S
C2576 C2578 1.353 . S
C2576 H2582 0.930 . S
N2577 Li2553 1.990 . S
N2577 C2576 1.314 . S
N2577 C2580 1.279 . S
C2578 C2576 1.353 . S
C2578 C2581 1.348 . S
C2578 H2626 0.929 . S
C2579 C2580 1.358 . S
C2579 C2581 1.356 . S
C2579 H2627 0.930 . S
C2580 N2577 1.279 . S
C2580 C2579 1.358 . S
C2580 H2583 0.930 . S
C2581 C2578 1.348 . S
C2581 C2579 1.356 . S
H2582 C2576 0.930 . S
H2583 C2580 0.930 . S
C2584 C2586 1.348 . S
C2584 C2587 1.356 . S
C2584 O2614 1.325 . S
N2585 C2588 1.314 . S
N2585 C2589 1.279 . S
C2586 C2584 1.348 . S
C2586 C2588 1.353 . S
C2586 H2628 0.929 . S
C2587 C2584 1.356 . S
C2587 C2589 1.358 . S
C2587 H2629 0.930 . S
C2588 N2585 1.314 . S
C2588 C2586 1.353 . S
C2588 H2630 0.930 . S
C2589 N2585 1.279 . S
C2589 C2587 1.358 . S
C2589 H2631 0.930 . S
C2590 C2591 1.348 . S
C2590 C2592 1.356 . S
C2590 O2615 1.325 . S
C2591 C2590 1.348 . S
C2591 C2593 1.353 . S
C2591 H2632 0.929 . S
C2592 C2590 1.356 . S
C2592 C2594 1.358 . S
C2592 H2633 0.930 . S
C2593 C2591 1.353 . S
C2593 N2595 1.314 . S
C2593 H2634 0.930 . S
C2594 C2592 1.358 . S
C2594 N2595 1.279 . S
C2594 H2635 0.930 . S
N2595 C2593 1.314 . S
N2595 C2594 1.279 . S
C2596 C2598 1.353 . S
C2596 N2599 1.314 . S
C2596 H2602 0.930 . S
C2597 N2599 1.279 . S
C2597 C2600 1.358 . S
C2597 H2603 0.930 . S
C2598 C2596 1.353 . S
C2598 C2601 1.348 . S
C2598 H2636 0.929 . S
N2599 Li2554 1.990 . S
N2599 C2596 1.314 . S
N2599 C2597 1.279 . S
C2600 C2597 1.358 . S
C2600 C2601 1.356 . S
C2600 H2637 0.930 . S
C2601 C2598 1.348 . S
C2601 C2600 1.356 . S
H2602 C2596 0.930 . S
H2603 C2597 0.930 . S
C2604 N2605 1.314 . S
C2604 C2606 1.353 . S
C2604 H2610 0.930 . S
N2605 Li2555 1.990 . S
N2605 C2604 1.314 . S
N2605 C2608 1.279 . S
C2606 C2604 1.353 . S
C2606 C2609 1.348 . S
C2606 H2638 0.929 . S
C2607 C2608 1.358 . S
C2607 C2609 1.356 . S
C2607 H2639 0.930 . S
C2608 N2605 1.279 . S
C2608 C2607 1.358 . S
C2608 H2611 0.930 . S
C2609 C2606 1.348 . S
C2609 C2607 1.356 . S
H2610 C2604 0.930 . S
H2611 C2608 0.930 . S
O2612 Li2552 1.956 . S
O2612 Li2553 1.970 . S
O2612 Li2554 1.961 . S
O2612 C2556 1.325 . S
O2613 Li2552 1.970 . S
O2613 Li2553 1.956 . S
O2613 Li2555 1.961 . S
O2613 C2562 1.325 . S
O2614 Li2552 1.961 . S
O2614 Li2554 1.956 . S
O2614 Li2555 1.970 . S
O2614 C2584 1.325 . S
O2615 Li2553 1.961 . S
O2615 Li2554 1.970 . S
O2615 Li2555 1.956 . S
O2615 C2590 1.325 . S
H2616 C2558 0.929 . S
H2617 C2559 0.930 . S
H2618 C2560 0.930 . S
H2619 C2561 0.930 . S
H2620 C2563 0.930 . S
H2621 C2565 0.929 . S
H2622 C2566 0.930 . S
H2623 C2567 0.930 . S
H2624 C2570 0.930 . S
H2625 C2573 0.929 . S
H2626 C2578 0.929 . S
H2627 C2579 0.930 . S
H2628 C2586 0.929 . S
H2629 C2587 0.930 . S
H2630 C2588 0.930 . S
H2631 C2589 0.930 . S
H2632 C2591 0.929 . S
H2633 C2592 0.930 . S
H2634 C2593 0.930 . S
H2635 C2594 0.930 . S
H2636 C2598 0.929 . S
H2637 C2600 0.930 . S
H2638 C2606 0.929 . S
H2639 C2607 0.930 . S
Li2640 N2657 1.990 . S
Li2640 O2700 1.956 . S
Li2640 O2701 1.970 . S
Li2640 O2702 1.961 1_554 S
Li2641 N2665 1.990 . S
Li2641 O2700 1.970 . S
Li2641 O2701 1.956 . S
Li2641 O2703 1.961 . S
Li2642 N2687 1.990 1_554 S
Li2642 O2700 1.961 . S
Li2642 O2702 1.956 1_554 S
Li2642 O2703 1.970 . S
Li2643 N2693 1.990 . S
Li2643 O2701 1.961 1_556 S
Li2643 O2702 1.970 . S
Li2643 O2703 1.956 1_556 S
C2644 C2646 1.348 . S
C2644 C2647 1.356 . S
C2644 O2700 1.325 . S
N2645 C2648 1.314 . S
N2645 C2649 1.279 . S
C2646 C2644 1.348 . S
C2646 C2648 1.353 . S
C2646 H2704 0.929 . S
C2647 C2644 1.356 . S
C2647 C2649 1.358 . S
C2647 H2705 0.930 . S
C2648 N2645 1.314 . S
C2648 C2646 1.353 . S
C2648 H2706 0.930 . S
C2649 N2645 1.279 . S
C2649 C2647 1.358 . S
C2649 H2707 0.930 . S
C2650 C2653 1.348 . S
C2650 C2654 1.356 . S
C2650 O2701 1.325 . S
C2651 N2652 1.279 . S
C2651 C2654 1.358 . S
C2651 H2708 0.930 . S
N2652 C2651 1.279 . S
N2652 C2655 1.314 . S
C2653 C2650 1.348 . S
C2653 C2655 1.353 . S
C2653 H2709 0.929 . S
C2654 C2650 1.356 . S
C2654 C2651 1.358 . S
C2654 H2710 0.930 . S
C2655 N2652 1.314 . S
C2655 C2653 1.353 . S
C2655 H2711 0.930 . S
C2656 N2657 1.314 1_556 S
C2656 C2661 1.353 . S
C2656 H2662 0.930 . S
N2657 Li2640 1.990 . S
N2657 C2656 1.314 1_554 S
N2657 C2659 1.279 . S
C2658 C2659 1.358 . S
C2658 C2660 1.356 . S
C2658 H2712 0.930 . S
C2659 N2657 1.279 . S
C2659 C2658 1.358 . S
C2659 H2663 0.930 . S
C2660 C2658 1.356 . S
C2660 C2661 1.348 1_554 S
C2661 C2656 1.353 . S
C2661 C2660 1.348 1_556 S
C2661 H2713 0.929 . S
H2662 C2656 0.930 . S
H2663 C2659 0.930 . S
C2664 N2665 1.314 . S
C2664 C2666 1.353 . S
C2664 H2670 0.930 . S
N2665 Li2641 1.990 . S
N2665 C2664 1.314 . S
N2665 C2668 1.279 . S
C2666 C2664 1.353 . S
C2666 C2669 1.348 . S
C2666 H2714 0.929 . S
C2667 C2668 1.358 . S
C2667 C2669 1.356 . S
C2667 H2715 0.930 . S
C2668 N2665 1.279 . S
C2668 C2667 1.358 . S
C2668 H2671 0.930 . S
C2669 C2666 1.348 . S
C2669 C2667 1.356 . S
H2670 C2664 0.930 . S
H2671 C2668 0.930 . S
C2672 C2674 1.348 . S
C2672 C2675 1.356 . S
C2672 O2702 1.325 . S
N2673 C2676 1.314 . S
N2673 C2677 1.279 . S
C2674 C2672 1.348 . S
C2674 C2676 1.353 . S
C2674 H2716 0.929 . S
C2675 C2672 1.356 . S
C2675 C2677 1.358 . S
C2675 H2717 0.930 . S
C2676 N2673 1.314 . S
C2676 C2674 1.353 . S
C2676 H2718 0.930 . S
C2677 N2673 1.279 . S
C2677 C2675 1.358 . S
C2677 H2719 0.930 . S
C2678 C2679 1.348 1_554 S
C2678 C2680 1.356 . S
C2678 O2703 1.325 . S
C2679 C2678 1.348 1_556 S
C2679 C2681 1.353 . S
C2679 H2720 0.929 . S
C2680 C2678 1.356 . S
C2680 C2682 1.358 . S
C2680 H2721 0.930 . S
C2681 C2679 1.353 . S
C2681 N2683 1.314 1_556 S
C2681 H2722 0.930 . S
C2682 C2680 1.358 . S
C2682 N2683 1.279 . S
C2682 H2723 0.930 . S
N2683 C2681 1.314 1_554 S
N2683 C2682 1.279 . S
C2684 C2686 1.353 . S
C2684 N2687 1.314 1_554 S
C2684 H2690 0.930 . S
C2685 N2687 1.279 . S
C2685 C2688 1.358 . S
C2685 H2691 0.930 . S
C2686 C2684 1.353 . S
C2686 C2689 1.348 1_554 S
C2686 H2724 0.929 . S
N2687 Li2642 1.990 1_556 S
N2687 C2684 1.314 1_556 S
N2687 C2685 1.279 . S
C2688 C2685 1.358 . S
C2688 C2689 1.356 . S
C2688 H2725 0.930 . S
C2689 C2686 1.348 1_556 S
C2689 C2688 1.356 . S
H2690 C2684 0.930 . S
H2691 C2685 0.930 . S
C2692 N2693 1.314 . S
C2692 C2694 1.353 . S
C2692 H2698 0.930 . S
N2693 Li2643 1.990 . S
N2693 C2692 1.314 . S
N2693 C2696 1.279 . S
C2694 C2692 1.353 . S
C2694 C2697 1.348 . S
C2694 H2726 0.929 . S
C2695 C2696 1.358 . S
C2695 C2697 1.356 . S
C2695 H2727 0.930 . S
C2696 N2693 1.279 . S
C2696 C2695 1.358 . S
C2696 H2699 0.930 . S
C2697 C2694 1.348 . S
C2697 C2695 1.356 . S
H2698 C2692 0.930 . S
H2699 C2696 0.930 . S
O2700 Li2640 1.956 . S
O2700 Li2641 1.970 . S
O2700 Li2642 1.961 . S
O2700 C2644 1.325 . S
O2701 Li2640 1.970 . S
O2701 Li2641 1.956 . S
O2701 Li2643 1.961 1_554 S
O2701 C2650 1.325 . S
O2702 Li2640 1.961 1_556 S
O2702 Li2642 1.956 1_556 S
O2702 Li2643 1.970 . S
O2702 C2672 1.325 . S
O2703 Li2641 1.961 . S
O2703 Li2642 1.970 . S
O2703 Li2643 1.956 1_554 S
O2703 C2678 1.325 . S
H2704 C2646 0.929 . S
H2705 C2647 0.930 . S
H2706 C2648 0.930 . S
H2707 C2649 0.930 . S
H2708 C2651 0.930 . S
H2709 C2653 0.929 . S
H2710 C2654 0.930 . S
H2711 C2655 0.930 . S
H2712 C2658 0.930 . S
H2713 C2661 0.929 . S
H2714 C2666 0.929 . S
H2715 C2667 0.930 . S
H2716 C2674 0.929 . S
H2717 C2675 0.930 . S
H2718 C2676 0.930 . S
H2719 C2677 0.930 . S
H2720 C2679 0.929 . S
H2721 C2680 0.930 . S
H2722 C2681 0.930 . S
H2723 C2682 0.930 . S
H2724 C2686 0.929 . S
H2725 C2688 0.930 . S
H2726 C2694 0.929 . S
H2727 C2695 0.930 . S
Li2728 N2745 1.990 . S
Li2728 O2788 1.956 . S
Li2728 O2789 1.970 . S
Li2728 O2790 1.961 . S
Li2729 N2753 1.990 . S
Li2729 O2788 1.970 . S
Li2729 O2789 1.956 . S
Li2729 O2791 1.961 . S
Li2730 N2775 1.990 . S
Li2730 O2788 1.961 . S
Li2730 O2790 1.956 . S
Li2730 O2791 1.970 . S
Li2731 N2781 1.990 . S
Li2731 O2789 1.961 . S
Li2731 O2790 1.970 . S
Li2731 O2791 1.956 . S
C2732 C2734 1.348 . S
C2732 C2735 1.356 . S
C2732 O2788 1.325 . S
N2733 C2736 1.314 . S
N2733 C2737 1.279 . S
C2734 C2732 1.348 . S
C2734 C2736 1.353 . S
C2734 H2792 0.929 . S
C2735 C2732 1.356 . S
C2735 C2737 1.358 . S
C2735 H2793 0.930 . S
C2736 N2733 1.314 . S
C2736 C2734 1.353 . S
C2736 H2794 0.930 . S
C2737 N2733 1.279 . S
C2737 C2735 1.358 . S
C2737 H2795 0.930 . S
C2738 C2741 1.348 . S
C2738 C2742 1.356 . S
C2738 O2789 1.325 . S
C2739 N2740 1.279 . S
C2739 C2742 1.358 . S
C2739 H2796 0.930 . S
N2740 C2739 1.279 . S
N2740 C2743 1.314 . S
C2741 C2738 1.348 . S
C2741 C2743 1.353 . S
C2741 H2797 0.929 . S
C2742 C2738 1.356 . S
C2742 C2739 1.358 . S
C2742 H2798 0.930 . S
C2743 N2740 1.314 . S
C2743 C2741 1.353 . S
C2743 H2799 0.930 . S
C2744 N2745 1.314 . S
C2744 C2749 1.353 . S
C2744 H2750 0.930 . S
N2745 Li2728 1.990 . S
N2745 C2744 1.314 . S
N2745 C2747 1.279 . S
C2746 C2747 1.358 . S
C2746 C2748 1.356 . S
C2746 H2800 0.930 . S
C2747 N2745 1.279 . S
C2747 C2746 1.358 . S
C2747 H2751 0.930 . S
C2748 C2746 1.356 . S
C2748 C2749 1.348 . S
C2749 C2744 1.353 . S
C2749 C2748 1.348 . S
C2749 H2801 0.929 . S
H2750 C2744 0.930 . S
H2751 C2747 0.930 . S
C2752 N2753 1.314 . S
C2752 C2754 1.353 . S
C2752 H2758 0.930 . S
N2753 Li2729 1.990 . S
N2753 C2752 1.314 . S
N2753 C2756 1.279 . S
C2754 C2752 1.353 . S
C2754 C2757 1.348 . S
C2754 H2802 0.929 . S
C2755 C2756 1.358 . S
C2755 C2757 1.356 . S
C2755 H2803 0.930 . S
C2756 N2753 1.279 . S
C2756 C2755 1.358 . S
C2756 H2759 0.930 . S
C2757 C2754 1.348 . S
C2757 C2755 1.356 . S
H2758 C2752 0.930 . S
H2759 C2756 0.930 . S
C2760 C2762 1.348 . S
C2760 C2763 1.356 . S
C2760 O2790 1.325 . S
N2761 C2764 1.314 . S
N2761 C2765 1.279 . S
C2762 C2760 1.348 . S
C2762 C2764 1.353 . S
C2762 H2804 0.929 . S
C2763 C2760 1.356 . S
C2763 C2765 1.358 . S
C2763 H2805 0.930 . S
C2764 N2761 1.314 . S
C2764 C2762 1.353 . S
C2764 H2806 0.930 . S
C2765 N2761 1.279 . S
C2765 C2763 1.358 . S
C2765 H2807 0.930 . S
C2766 C2767 1.348 . S
C2766 C2768 1.356 . S
C2766 O2791 1.325 . S
C2767 C2766 1.348 . S
C2767 C2769 1.353 . S
C2767 H2808 0.929 . S
C2768 C2766 1.356 . S
C2768 C2770 1.358 . S
C2768 H2809 0.930 . S
C2769 C2767 1.353 . S
C2769 N2771 1.314 . S
C2769 H2810 0.930 . S
C2770 C2768 1.358 . S
C2770 N2771 1.279 . S
C2770 H2811 0.930 . S
N2771 C2769 1.314 . S
N2771 C2770 1.279 . S
C2772 C2774 1.353 . S
C2772 N2775 1.314 . S
C2772 H2778 0.930 . S
C2773 N2775 1.279 . S
C2773 C2776 1.358 . S
C2773 H2779 0.930 . S
C2774 C2772 1.353 . S
C2774 C2777 1.348 . S
C2774 H2812 0.929 . S
N2775 Li2730 1.990 . S
N2775 C2772 1.314 . S
N2775 C2773 1.279 . S
C2776 C2773 1.358 . S
C2776 C2777 1.356 . S
C2776 H2813 0.930 . S
C2777 C2774 1.348 . S
C2777 C2776 1.356 . S
H2778 C2772 0.930 . S
H2779 C2773 0.930 . S
C2780 N2781 1.314 . S
C2780 C2782 1.353 . S
C2780 H2786 0.930 . S
N2781 Li2731 1.990 . S
N2781 C2780 1.314 . S
N2781 C2784 1.279 . S
C2782 C2780 1.353 . S
C2782 C2785 1.348 . S
C2782 H2814 0.929 . S
C2783 C2784 1.358 . S
C2783 C2785 1.356 . S
C2783 H2815 0.930 . S
C2784 N2781 1.279 . S
C2784 C2783 1.358 . S
C2784 H2787 0.930 . S
C2785 C2782 1.348 . S
C2785 C2783 1.356 . S
H2786 C2780 0.930 . S
H2787 C2784 0.930 . S
O2788 Li2728 1.956 . S
O2788 Li2729 1.970 . S
O2788 Li2730 1.961 . S
O2788 C2732 1.325 . S
O2789 Li2728 1.970 . S
O2789 Li2729 1.956 . S
O2789 Li2731 1.961 . S
O2789 C2738 1.325 . S
O2790 Li2728 1.961 . S
O2790 Li2730 1.956 . S
O2790 Li2731 1.970 . S
O2790 C2760 1.325 . S
O2791 Li2729 1.961 . S
O2791 Li2730 1.970 . S
O2791 Li2731 1.956 . S
O2791 C2766 1.325 . S
H2792 C2734 0.929 . S
H2793 C2735 0.930 . S
H2794 C2736 0.930 . S
H2795 C2737 0.930 . S
H2796 C2739 0.930 . S
H2797 C2741 0.929 . S
H2798 C2742 0.930 . S
H2799 C2743 0.930 . S
H2800 C2746 0.930 . S
H2801 C2749 0.929 . S
H2802 C2754 0.929 . S
H2803 C2755 0.930 . S
H2804 C2762 0.929 . S
H2805 C2763 0.930 . S
H2806 C2764 0.930 . S
H2807 C2765 0.930 . S
H2808 C2767 0.929 . S
H2809 C2768 0.930 . S
H2810 C2769 0.930 . S
H2811 C2770 0.930 . S
H2812 C2774 0.929 . S
H2813 C2776 0.930 . S
H2814 C2782 0.929 . S
H2815 C2783 0.930 . S
C2816 C2817 1.387 . S
C2816 H2820 0.950 . S
C2816 C2825 1.390 . S
C2817 C2816 1.387 . S
C2817 C2819 1.387 . S
H2818 C2825 0.950 . S
C2819 C2817 1.387 . S
C2819 C2821 1.390 . S
C2819 H2823 0.950 . S
H2820 C2816 0.950 . S
C2821 C2819 1.390 . S
C2821 C2822 1.387 . S
C2821 H2824 0.950 . S
C2822 C2821 1.387 . S
C2822 C2825 1.387 . S
H2823 C2819 0.950 . S
H2824 C2821 0.950 . S
C2825 C2816 1.390 . S
C2825 H2818 0.950 . S
C2825 C2822 1.387 . S
C2826 C2827 1.387 . S
C2826 H2830 0.950 . S
C2826 C2835 1.390 . S
C2827 C2826 1.387 . S
C2827 C2829 1.387 . S
H2828 C2835 0.950 . S
C2829 C2827 1.387 . S
C2829 C2831 1.390 . S
C2829 H2833 0.950 . S
H2830 C2826 0.950 . S
C2831 C2829 1.390 . S
C2831 C2832 1.387 . S
C2831 H2834 0.950 . S
C2832 C2831 1.387 . S
C2832 C2835 1.387 . S
H2833 C2829 0.950 . S
H2834 C2831 0.950 . S
C2835 C2826 1.390 . S
C2835 H2828 0.950 . S
C2835 C2832 1.387 . S
C2836 C2837 1.387 . S
C2836 H2840 0.950 . S
C2836 C2845 1.390 . S
C2837 C2836 1.387 . S
C2837 C2839 1.387 . S
H2838 C2845 0.950 . S
C2839 C2837 1.387 . S
C2839 C2841 1.390 . S
C2839 H2843 0.950 . S
H2840 C2836 0.950 . S
C2841 C2839 1.390 . S
C2841 C2842 1.387 . S
C2841 H2844 0.950 . S
C2842 C2841 1.387 . S
C2842 C2845 1.387 . S
H2843 C2839 0.950 . S
H2844 C2841 0.950 . S
C2845 C2836 1.390 . S
C2845 H2838 0.950 . S
C2845 C2842 1.387 . S
C2846 C2847 1.387 . S
C2846 H2850 0.950 . S
C2846 C2855 1.390 . S
C2847 C2846 1.387 . S
C2847 C2849 1.387 . S
H2848 C2855 0.950 . S
C2849 C2847 1.387 . S
C2849 C2851 1.390 . S
C2849 H2853 0.950 . S
H2850 C2846 0.950 . S
C2851 C2849 1.390 . S
C2851 C2852 1.387 . S
C2851 H2854 0.950 . S
C2852 C2851 1.387 . S
C2852 C2855 1.387 . S
H2853 C2849 0.950 . S
H2854 C2851 0.950 . S
C2855 C2846 1.390 . S
C2855 H2848 0.950 . S
C2855 C2852 1.387 . S
C2856 C2857 1.387 . S
C2856 H2860 0.950 . S
C2856 C2865 1.390 . S
C2857 C2856 1.387 . S
C2857 C2859 1.387 . S
H2858 C2865 0.950 . S
C2859 C2857 1.387 . S
C2859 C2861 1.390 . S
C2859 H2863 0.950 . S
H2860 C2856 0.950 . S
C2861 C2859 1.390 . S
C2861 C2862 1.387 . S
C2861 H2864 0.950 . S
C2862 C2861 1.387 . S
C2862 C2865 1.387 . S
H2863 C2859 0.950 . S
H2864 C2861 0.950 . S
C2865 C2856 1.390 . S
C2865 H2858 0.950 . S
C2865 C2862 1.387 . S
C2866 C2867 1.387 . S
C2866 H2870 0.950 . S
C2866 C2875 1.390 . S
C2867 C2866 1.387 . S
C2867 C2869 1.387 . S
H2868 C2875 0.950 . S
C2869 C2867 1.387 . S
C2869 C2871 1.390 . S
C2869 H2873 0.950 . S
H2870 C2866 0.950 . S
C2871 C2869 1.390 . S
C2871 C2872 1.387 . S
C2871 H2874 0.950 . S
C2872 C2871 1.387 . S
C2872 C2875 1.387 . S
H2873 C2869 0.950 . S
H2874 C2871 0.950 . S
C2875 C2866 1.390 . S
C2875 H2868 0.950 . S
C2875 C2872 1.387 . S
C2876 C2877 1.387 . S
C2876 H2880 0.950 . S
C2876 C2885 1.390 . S
C2877 C2876 1.387 . S
C2877 C2879 1.387 . S
H2878 C2885 0.950 . S
C2879 C2877 1.387 . S
C2879 C2881 1.390 . S
C2879 H2883 0.950 . S
H2880 C2876 0.950 . S
C2881 C2879 1.390 . S
C2881 C2882 1.387 . S
C2881 H2884 0.950 . S
C2882 C2881 1.387 . S
C2882 C2885 1.387 . S
H2883 C2879 0.950 . S
H2884 C2881 0.950 . S
C2885 C2876 1.390 . S
C2885 H2878 0.950 . S
C2885 C2882 1.387 . S
C2886 C2887 1.387 . S
C2886 H2890 0.950 . S
C2886 C2895 1.390 . S
C2887 C2886 1.387 . S
C2887 C2889 1.387 . S
H2888 C2895 0.950 . S
C2889 C2887 1.387 . S
C2889 C2891 1.390 . S
C2889 H2893 0.950 . S
H2890 C2886 0.950 . S
C2891 C2889 1.390 . S
C2891 C2892 1.387 . S
C2891 H2894 0.950 . S
C2892 C2891 1.387 . S
C2892 C2895 1.387 . S
H2893 C2889 0.950 . S
H2894 C2891 0.950 . S
C2895 C2886 1.390 . S
C2895 H2888 0.950 . S
C2895 C2892 1.387 . S
C2896 C2897 1.387 . S
C2896 H2900 0.950 . S
C2896 C2905 1.390 . S
C2897 C2896 1.387 . S
C2897 C2899 1.387 . S
H2898 C2905 0.950 . S
C2899 C2897 1.387 . S
C2899 C2901 1.390 . S
C2899 H2903 0.950 . S
H2900 C2896 0.950 . S
C2901 C2899 1.390 . S
C2901 C2902 1.387 . S
C2901 H2904 0.950 . S
C2902 C2901 1.387 . S
C2902 C2905 1.387 . S
H2903 C2899 0.950 . S
H2904 C2901 0.950 . S
C2905 C2896 1.390 . S
C2905 H2898 0.950 . S
C2905 C2902 1.387 . S
C2906 C2907 1.387 . S
C2906 H2910 0.950 . S
C2906 C2915 1.390 . S
C2907 C2906 1.387 . S
C2907 C2909 1.387 . S
H2908 C2915 0.950 . S
C2909 C2907 1.387 . S
C2909 C2911 1.390 . S
C2909 H2913 0.950 . S
H2910 C2906 0.950 . S
C2911 C2909 1.390 . S
C2911 C2912 1.387 . S
C2911 H2914 0.950 . S
C2912 C2911 1.387 . S
C2912 C2915 1.387 . S
H2913 C2909 0.950 . S
H2914 C2911 0.950 . S
C2915 C2906 1.390 . S
C2915 H2908 0.950 . S
C2915 C2912 1.387 . S
C2916 C2917 1.387 . S
C2916 H2920 0.950 . S
C2916 C2925 1.390 . S
C2917 C2916 1.387 . S
C2917 C2919 1.387 . S
H2918 C2925 0.950 . S
C2919 C2917 1.387 . S
C2919 C2921 1.390 . S
C2919 H2923 0.950 . S
H2920 C2916 0.950 . S
C2921 C2919 1.390 . S
C2921 C2922 1.387 . S
C2921 H2924 0.950 . S
C2922 C2921 1.387 . S
C2922 C2925 1.387 . S
H2923 C2919 0.950 . S
H2924 C2921 0.950 . S
C2925 C2916 1.390 . S
C2925 H2918 0.950 . S
C2925 C2922 1.387 . S
C2926 C2927 1.387 . S
C2926 H2930 0.950 . S
C2926 C2935 1.390 . S
C2927 C2926 1.387 . S
C2927 C2929 1.387 . S
H2928 C2935 0.950 . S
C2929 C2927 1.387 . S
C2929 C2931 1.390 . S
C2929 H2933 0.950 . S
H2930 C2926 0.950 . S
C2931 C2929 1.390 . S
C2931 C2932 1.387 . S
C2931 H2934 0.950 . S
C2932 C2931 1.387 . S
C2932 C2935 1.387 . S
H2933 C2929 0.950 . S
H2934 C2931 0.950 . S
C2935 C2926 1.390 . S
C2935 H2928 0.950 . S
C2935 C2932 1.387 . S
C2936 C2937 1.387 . S
C2936 H2940 0.950 . S
C2936 C2945 1.390 . S
C2937 C2936 1.387 . S
C2937 C2939 1.387 . S
H2938 C2945 0.950 . S
C2939 C2937 1.387 . S
C2939 C2941 1.390 . S
C2939 H2943 0.950 . S
H2940 C2936 0.950 . S
C2941 C2939 1.390 . S
C2941 C2942 1.387 . S
C2941 H2944 0.950 . S
C2942 C2941 1.387 . S
C2942 C2945 1.387 . S
H2943 C2939 0.950 . S
H2944 C2941 0.950 . S
C2945 C2936 1.390 . S
C2945 H2938 0.950 . S
C2945 C2942 1.387 . S
C2946 C2947 1.387 . S
C2946 H2950 0.950 . S
C2946 C2955 1.390 . S
C2947 C2946 1.387 . S
C2947 C2949 1.387 . S
H2948 C2955 0.950 . S
C2949 C2947 1.387 . S
C2949 C2951 1.390 . S
C2949 H2953 0.950 . S
H2950 C2946 0.950 . S
C2951 C2949 1.390 . S
C2951 C2952 1.387 . S
C2951 H2954 0.950 . S
C2952 C2951 1.387 . S
C2952 C2955 1.387 . S
H2953 C2949 0.950 . S
H2954 C2951 0.950 . S
C2955 C2946 1.390 . S
C2955 H2948 0.950 . S
C2955 C2952 1.387 . S
C2956 C2957 1.387 . S
C2956 H2960 0.950 . S
C2956 C2965 1.390 . S
C2957 C2956 1.387 . S
C2957 C2959 1.387 . S
H2958 C2965 0.950 . S
C2959 C2957 1.387 . S
C2959 C2961 1.390 . S
C2959 H2963 0.950 . S
H2960 C2956 0.950 . S
C2961 C2959 1.390 . S
C2961 C2962 1.387 . S
C2961 H2964 0.950 . S
C2962 C2961 1.387 . S
C2962 C2965 1.387 . S
H2963 C2959 0.950 . S
H2964 C2961 0.950 . S
C2965 C2956 1.390 . S
C2965 H2958 0.950 . S
C2965 C2962 1.387 . S
C2966 C2967 1.387 . S
C2966 H2970 0.950 . S
C2966 C2975 1.390 . S
C2967 C2966 1.387 . S
C2967 C2969 1.387 . S
H2968 C2975 0.950 . S
C2969 C2967 1.387 . S
C2969 C2971 1.390 . S
C2969 H2973 0.950 . S
H2970 C2966 0.950 . S
C2971 C2969 1.390 . S
C2971 C2972 1.387 . S
C2971 H2974 0.950 . S
C2972 C2971 1.387 . S
C2972 C2975 1.387 . S
H2973 C2969 0.950 . S
H2974 C2971 0.950 . S
C2975 C2966 1.390 . S
C2975 H2968 0.950 . S
C2975 C2972 1.387 . S
C2976 C2977 1.387 . S
C2976 H2980 0.950 . S
C2976 C2985 1.390 . S
C2977 C2976 1.387 . S
C2977 C2979 1.387 . S
H2978 C2985 0.950 . S
C2979 C2977 1.387 . S
C2979 C2981 1.390 . S
C2979 H2983 0.950 . S
H2980 C2976 0.950 . S
C2981 C2979 1.390 . S
C2981 C2982 1.387 . S
C2981 H2984 0.950 . S
C2982 C2981 1.387 . S
C2982 C2985 1.387 . S
H2983 C2979 0.950 . S
H2984 C2981 0.950 . S
C2985 C2976 1.390 . S
C2985 H2978 0.950 . S
C2985 C2982 1.387 . S
C2986 C2987 1.387 . S
C2986 H2990 0.950 . S
C2986 C2995 1.390 1_565 S
C2987 C2986 1.387 . S
C2987 C2989 1.387 . S
H2988 C2995 0.950 . S
C2989 C2987 1.387 . S
C2989 C2991 1.390 1_565 S
C2989 H2993 0.950 . S
H2990 C2986 0.950 . S
C2991 C2989 1.390 1_545 S
C2991 C2992 1.387 1_554 S
C2991 H2994 0.950 . S
C2992 C2991 1.387 1_556 S
C2992 C2995 1.387 1_556 S
H2993 C2989 0.950 . S
H2994 C2991 0.950 . S
C2995 C2986 1.390 1_545 S
C2995 H2988 0.950 . S
C2995 C2992 1.387 1_554 S
C2996 C2997 1.387 . S
C2996 H3000 0.950 . S
C2996 C3005 1.390 . S
C2997 C2996 1.387 . S
C2997 C2999 1.387 . S
H2998 C3005 0.950 . S
C2999 C2997 1.387 . S
C2999 C3001 1.390 . S
C2999 H3003 0.950 . S
H3000 C2996 0.950 . S
C3001 C2999 1.390 . S
C3001 C3002 1.387 . S
C3001 H3004 0.950 . S
C3002 C3001 1.387 . S
C3002 C3005 1.387 . S
H3003 C2999 0.950 . S
H3004 C3001 0.950 . S
C3005 C2996 1.390 . S
C3005 H2998 0.950 . S
C3005 C3002 1.387 . S
C3006 C3007 1.387 . S
C3006 H3010 0.950 . S
C3006 C3015 1.390 1_545 S
C3007 C3006 1.387 . S
C3007 C3009 1.387 . S
H3008 C3015 0.950 . S
C3009 C3007 1.387 . S
C3009 C3011 1.390 1_545 S
C3009 H3013 0.950 . S
H3010 C3006 0.950 . S
C3011 C3009 1.390 1_565 S
C3011 C3012 1.387 . S
C3011 H3014 0.950 . S
C3012 C3011 1.387 . S
C3012 C3015 1.387 . S
H3013 C3009 0.950 . S
H3014 C3011 0.950 . S
C3015 C3006 1.390 1_565 S
C3015 H3008 0.950 . S
C3015 C3012 1.387 . S
C3016 C3017 1.387 . S
C3016 H3020 0.950 . S
C3016 C3025 1.390 . S
C3017 C3016 1.387 . S
C3017 C3019 1.387 . S
H3018 C3025 0.950 . S
C3019 C3017 1.387 . S
C3019 C3021 1.390 . S
C3019 H3023 0.950 . S
H3020 C3016 0.950 . S
C3021 C3019 1.390 . S
C3021 C3022 1.387 . S
C3021 H3024 0.950 . S
C3022 C3021 1.387 . S
C3022 C3025 1.387 . S
H3023 C3019 0.950 . S
H3024 C3021 0.950 . S
C3025 C3016 1.390 . S
C3025 H3018 0.950 . S
C3025 C3022 1.387 . S
C3026 C3027 1.387 1_554 S
C3026 H3030 0.950 . S
C3026 C3035 1.390 1_545 S
C3027 C3026 1.387 1_556 S
C3027 C3029 1.387 1_556 S
H3028 C3035 0.950 . S
C3029 C3027 1.387 1_554 S
C3029 C3031 1.390 1_545 S
C3029 H3033 0.950 . S
H3030 C3026 0.950 . S
C3031 C3029 1.390 1_565 S
C3031 C3032 1.387 . S
C3031 H3034 0.950 . S
C3032 C3031 1.387 . S
C3032 C3035 1.387 . S
H3033 C3029 0.950 . S
H3034 C3031 0.950 . S
C3035 C3026 1.390 1_565 S
C3035 H3028 0.950 . S
C3035 C3032 1.387 . S
C3036 C3037 1.387 . S
C3036 H3040 0.950 . S
C3036 C3045 1.390 . S
C3037 C3036 1.387 . S
C3037 C3039 1.387 . S
H3038 C3045 0.950 . S
C3039 C3037 1.387 . S
C3039 C3041 1.390 . S
C3039 H3043 0.950 . S
H3040 C3036 0.950 . S
C3041 C3039 1.390 . S
C3041 C3042 1.387 . S
C3041 H3044 0.950 . S
C3042 C3041 1.387 . S
C3042 C3045 1.387 . S
H3043 C3039 0.950 . S
H3044 C3041 0.950 . S
C3045 C3036 1.390 . S
C3045 H3038 0.950 . S
C3045 C3042 1.387 . S
C3046 C3047 1.387 . S
C3046 H3050 0.950 . S
C3046 C3055 1.390 1_545 S
C3047 C3046 1.387 . S
C3047 C3049 1.387 . S
H3048 C3055 0.950 . S
C3049 C3047 1.387 . S
C3049 C3051 1.390 1_545 S
C3049 H3053 0.950 . S
H3050 C3046 0.950 . S
C3051 C3049 1.390 1_565 S
C3051 C3052 1.387 . S
C3051 H3054 0.950 . S
C3052 C3051 1.387 . S
C3052 C3055 1.387 . S
H3053 C3049 0.950 . S
H3054 C3051 0.950 . S
C3055 C3046 1.390 1_565 S
C3055 H3048 0.950 . S
C3055 C3052 1.387 . S
C3056 C3057 1.387 . S
C3056 H3060 0.950 . S
C3056 C3065 1.390 . S
C3057 C3056 1.387 . S
C3057 C3059 1.387 . S
H3058 C3065 0.950 . S
C3059 C3057 1.387 . S
C3059 C3061 1.390 . S
C3059 H3063 0.950 . S
H3060 C3056 0.950 . S
C3061 C3059 1.390 . S
C3061 C3062 1.387 . S
C3061 H3064 0.950 . S
C3062 C3061 1.387 . S
C3062 C3065 1.387 . S
H3063 C3059 0.950 . S
H3064 C3061 0.950 . S
C3065 C3056 1.390 . S
C3065 H3058 0.950 . S
C3065 C3062 1.387 . S
C3066 C3067 1.387 . S
C3066 H3070 0.950 . S
C3066 C3075 1.390 . S
C3067 C3066 1.387 . S
C3067 C3069 1.387 . S
H3068 C3075 0.950 . S
C3069 C3067 1.387 . S
C3069 C3071 1.390 . S
C3069 H3073 0.950 . S
H3070 C3066 0.950 . S
C3071 C3069 1.390 . S
C3071 C3072 1.387 . S
C3071 H3074 0.950 . S
C3072 C3071 1.387 . S
C3072 C3075 1.387 . S
H3073 C3069 0.950 . S
H3074 C3071 0.950 . S
C3075 C3066 1.390 . S
C3075 H3068 0.950 . S
C3075 C3072 1.387 . S
C3076 C3077 1.387 . S
C3076 H3080 0.950 . S
C3076 C3085 1.390 . S
C3077 C3076 1.387 . S
C3077 C3079 1.387 . S
H3078 C3085 0.950 . S
C3079 C3077 1.387 . S
C3079 C3081 1.390 . S
C3079 H3083 0.950 . S
H3080 C3076 0.950 . S
C3081 C3079 1.390 . S
C3081 C3082 1.387 . S
C3081 H3084 0.950 . S
C3082 C3081 1.387 . S
C3082 C3085 1.387 . S
H3083 C3079 0.950 . S
H3084 C3081 0.950 . S
C3085 C3076 1.390 . S
C3085 H3078 0.950 . S
C3085 C3082 1.387 . S
C3086 C3087 1.387 . S
C3086 H3090 0.950 . S
C3086 C3095 1.390 . S
C3087 C3086 1.387 . S
C3087 C3089 1.387 . S
H3088 C3095 0.950 . S
C3089 C3087 1.387 . S
C3089 C3091 1.390 . S
C3089 H3093 0.950 . S
H3090 C3086 0.950 . S
C3091 C3089 1.390 . S
C3091 C3092 1.387 1_554 S
C3091 H3094 0.950 . S
C3092 C3091 1.387 1_556 S
C3092 C3095 1.387 1_556 S
H3093 C3089 0.950 . S
H3094 C3091 0.950 . S
C3095 C3086 1.390 . S
C3095 H3088 0.950 . S
C3095 C3092 1.387 1_554 S
C3096 C3097 1.387 . S
C3096 H3100 0.950 . S
C3096 C3105 1.390 . S
C3097 C3096 1.387 . S
C3097 C3099 1.387 . S
H3098 C3105 0.950 . S
C3099 C3097 1.387 . S
C3099 C3101 1.390 . S
C3099 H3103 0.950 . S
H3100 C3096 0.950 . S
C3101 C3099 1.390 . S
C3101 C3102 1.387 . S
C3101 H3104 0.950 . S
C3102 C3101 1.387 . S
C3102 C3105 1.387 . S
H3103 C3099 0.950 . S
H3104 C3101 0.950 . S
C3105 C3096 1.390 . S
C3105 H3098 0.950 . S
C3105 C3102 1.387 . S
C3106 C3107 1.387 . S
C3106 H3110 0.950 . S
C3106 C3115 1.390 . S
C3107 C3106 1.387 . S
C3107 C3109 1.387 . S
H3108 C3115 0.950 . S
C3109 C3107 1.387 . S
C3109 C3111 1.390 . S
C3109 H3113 0.950 . S
H3110 C3106 0.950 . S
C3111 C3109 1.390 . S
C3111 C3112 1.387 . S
C3111 H3114 0.950 . S
C3112 C3111 1.387 . S
C3112 C3115 1.387 . S
H3113 C3109 0.950 . S
H3114 C3111 0.950 . S
C3115 C3106 1.390 . S
C3115 H3108 0.950 . S
C3115 C3112 1.387 . S
C3116 C3117 1.387 . S
C3116 H3120 0.950 . S
C3116 C3125 1.390 . S
C3117 C3116 1.387 . S
C3117 C3119 1.387 . S
H3118 C3125 0.950 . S
C3119 C3117 1.387 . S
C3119 C3121 1.390 . S
C3119 H3123 0.950 . S
H3120 C3116 0.950 . S
C3121 C3119 1.390 . S
C3121 C3122 1.387 . S
C3121 H3124 0.950 . S
C3122 C3121 1.387 . S
C3122 C3125 1.387 . S
H3123 C3119 0.950 . S
H3124 C3121 0.950 . S
C3125 C3116 1.390 . S
C3125 H3118 0.950 . S
C3125 C3122 1.387 . S
C3126 C3127 1.387 . S
C3126 H3130 0.950 . S
C3126 C3135 1.390 . S
C3127 C3126 1.387 . S
C3127 C3129 1.387 . S
H3128 C3135 0.950 . S
C3129 C3127 1.387 . S
C3129 C3131 1.390 . S
C3129 H3133 0.950 . S
H3130 C3126 0.950 . S
C3131 C3129 1.390 . S
C3131 C3132 1.387 1_554 S
C3131 H3134 0.950 . S
C3132 C3131 1.387 1_556 S
C3132 C3135 1.387 1_556 S
H3133 C3129 0.950 . S
H3134 C3131 0.950 . S
C3135 C3126 1.390 . S
C3135 H3128 0.950 . S
C3135 C3132 1.387 1_554 S
C3136 C3137 1.387 . S
C3136 H3140 0.950 . S
C3136 C3145 1.390 . S
C3137 C3136 1.387 . S
C3137 C3139 1.387 . S
H3138 C3145 0.950 . S
C3139 C3137 1.387 . S
C3139 C3141 1.390 . S
C3139 H3143 0.950 . S
H3140 C3136 0.950 . S
C3141 C3139 1.390 . S
C3141 C3142 1.387 . S
C3141 H3144 0.950 . S
C3142 C3141 1.387 . S
C3142 C3145 1.387 . S
H3143 C3139 0.950 . S
H3144 C3141 0.950 . S
C3145 C3136 1.390 . S
C3145 H3138 0.950 . S
C3145 C3142 1.387 . S
C3146 C3147 1.387 . S
C3146 H3150 0.950 . S
C3146 C3155 1.390 1_455 S
C3147 C3146 1.387 . S
C3147 C3149 1.387 . S
H3148 C3155 0.950 . S
C3149 C3147 1.387 . S
C3149 C3151 1.390 1_455 S
C3149 H3153 0.950 . S
H3150 C3146 0.950 . S
C3151 C3149 1.390 1_655 S
C3151 C3152 1.387 . S
C3151 H3154 0.950 . S
C3152 C3151 1.387 . S
C3152 C3155 1.387 . S
H3153 C3149 0.950 . S
H3154 C3151 0.950 . S
C3155 C3146 1.390 1_655 S
C3155 H3148 0.950 . S
C3155 C3152 1.387 . S
C3156 C3157 1.387 . S
C3156 H3160 0.950 . S
C3156 C3165 1.390 . S
C3157 C3156 1.387 . S
C3157 C3159 1.387 . S
H3158 C3165 0.950 . S
C3159 C3157 1.387 . S
C3159 C3161 1.390 . S
C3159 H3163 0.950 . S
H3160 C3156 0.950 . S
C3161 C3159 1.390 . S
C3161 C3162 1.387 . S
C3161 H3164 0.950 . S
C3162 C3161 1.387 . S
C3162 C3165 1.387 . S
H3163 C3159 0.950 . S
H3164 C3161 0.950 . S
C3165 C3156 1.390 . S
C3165 H3158 0.950 . S
C3165 C3162 1.387 . S
C3166 C3167 1.387 . S
C3166 H3170 0.950 . S
C3166 C3175 1.390 . S
C3167 C3166 1.387 . S
C3167 C3169 1.387 . S
H3168 C3175 0.950 . S
C3169 C3167 1.387 . S
C3169 C3171 1.390 . S
C3169 H3173 0.950 . S
H3170 C3166 0.950 . S
C3171 C3169 1.390 . S
C3171 C3172 1.387 . S
C3171 H3174 0.950 . S
C3172 C3171 1.387 . S
C3172 C3175 1.387 . S
H3173 C3169 0.950 . S
H3174 C3171 0.950 . S
C3175 C3166 1.390 . S
C3175 H3168 0.950 . S
C3175 C3172 1.387 . S
C3176 C3177 1.387 . S
C3176 H3180 0.950 . S
C3176 C3185 1.390 . S
C3177 C3176 1.387 . S
C3177 C3179 1.387 . S
H3178 C3185 0.950 . S
C3179 C3177 1.387 . S
C3179 C3181 1.390 . S
C3179 H3183 0.950 1_554 S
H3180 C3176 0.950 . S
C3181 C3179 1.390 . S
C3181 C3182 1.387 . S
C3181 H3184 0.950 1_554 S
C3182 C3181 1.387 . S
C3182 C3185 1.387 . S
H3183 C3179 0.950 1_556 S
H3184 C3181 0.950 1_556 S
C3185 C3176 1.390 . S
C3185 H3178 0.950 . S
C3185 C3182 1.387 . S
C3186 C3187 1.387 . S
C3186 H3190 0.950 . S
C3186 C3195 1.390 . S
C3187 C3186 1.387 . S
C3187 C3189 1.387 . S
H3188 C3195 0.950 . S
C3189 C3187 1.387 . S
C3189 C3191 1.390 . S
C3189 H3193 0.950 . S
H3190 C3186 0.950 . S
C3191 C3189 1.390 . S
C3191 C3192 1.387 . S
C3191 H3194 0.950 . S
C3192 C3191 1.387 . S
C3192 C3195 1.387 . S
H3193 C3189 0.950 . S
H3194 C3191 0.950 . S
C3195 C3186 1.390 . S
C3195 H3188 0.950 . S
C3195 C3192 1.387 . S
C3196 C3197 1.387 . S
C3196 H3200 0.950 . S
C3196 C3205 1.390 . S
C3197 C3196 1.387 . S
C3197 C3199 1.387 . S
H3198 C3205 0.950 . S
C3199 C3197 1.387 . S
C3199 C3201 1.390 . S
C3199 H3203 0.950 . S
H3200 C3196 0.950 . S
C3201 C3199 1.390 . S
C3201 C3202 1.387 . S
C3201 H3204 0.950 . S
C3202 C3201 1.387 . S
C3202 C3205 1.387 . S
H3203 C3199 0.950 . S
H3204 C3201 0.950 . S
C3205 C3196 1.390 . S
C3205 H3198 0.950 . S
C3205 C3202 1.387 . S
C3206 C3207 1.387 . S
C3206 H3210 0.950 . S
C3206 C3215 1.390 1_655 S
C3207 C3206 1.387 . S
C3207 C3209 1.387 . S
H3208 C3215 0.950 . S
C3209 C3207 1.387 . S
C3209 C3211 1.390 1_655 S
C3209 H3213 0.950 . S
H3210 C3206 0.950 . S
C3211 C3209 1.390 1_455 S
C3211 C3212 1.387 . S
C3211 H3214 0.950 . S
C3212 C3211 1.387 . S
C3212 C3215 1.387 . S
H3213 C3209 0.950 . S
H3214 C3211 0.950 . S
C3215 C3206 1.390 1_455 S
C3215 H3208 0.950 . S
C3215 C3212 1.387 . S
C3216 C3217 1.387 . S
C3216 H3220 0.950 . S
C3216 C3225 1.390 . S
C3217 C3216 1.387 . S
C3217 C3219 1.387 . S
H3218 C3225 0.950 . S
C3219 C3217 1.387 . S
C3219 C3221 1.390 . S
C3219 H3223 0.950 . S
H3220 C3216 0.950 . S
C3221 C3219 1.390 . S
C3221 C3222 1.387 . S
C3221 H3224 0.950 . S
C3222 C3221 1.387 . S
C3222 C3225 1.387 . S
H3223 C3219 0.950 . S
H3224 C3221 0.950 . S
C3225 C3216 1.390 . S
C3225 H3218 0.950 . S
C3225 C3222 1.387 . S
C3226 C3227 1.387 . S
C3226 H3230 0.950 . S
C3226 C3235 1.390 . S
C3227 C3226 1.387 . S
C3227 C3229 1.387 . S
H3228 C3235 0.950 . S
C3229 C3227 1.387 . S
C3229 C3231 1.390 . S
C3229 H3233 0.950 . S
H3230 C3226 0.950 . S
C3231 C3229 1.390 . S
C3231 C3232 1.387 . S
C3231 H3234 0.950 . S
C3232 C3231 1.387 . S
C3232 C3235 1.387 . S
H3233 C3229 0.950 . S
H3234 C3231 0.950 . S
C3235 C3226 1.390 . S
C3235 H3228 0.950 . S
C3235 C3232 1.387 . S
C3236 C3237 1.387 1_556 S
C3236 H3240 0.950 . S
C3236 C3245 1.390 . S
C3237 C3236 1.387 1_554 S
C3237 C3239 1.387 . S
H3238 C3245 0.950 . S
C3239 C3237 1.387 . S
C3239 C3241 1.390 . S
C3239 H3243 0.950 . S
H3240 C3236 0.950 . S
C3241 C3239 1.390 . S
C3241 C3242 1.387 . S
C3241 H3244 0.950 . S
C3242 C3241 1.387 . S
C3242 C3245 1.387 1_554 S
H3243 C3239 0.950 . S
H3244 C3241 0.950 . S
C3245 C3236 1.390 . S
C3245 H3238 0.950 . S
C3245 C3242 1.387 1_556 S
C3246 C3247 1.387 . S
C3246 H3250 0.950 . S
C3246 C3255 1.390 . S
C3247 C3246 1.387 . S
C3247 C3249 1.387 . S
H3248 C3255 0.950 . S
C3249 C3247 1.387 . S
C3249 C3251 1.390 . S
C3249 H3253 0.950 . S
H3250 C3246 0.950 . S
C3251 C3249 1.390 . S
C3251 C3252 1.387 . S
C3251 H3254 0.950 . S
C3252 C3251 1.387 . S
C3252 C3255 1.387 . S
H3253 C3249 0.950 . S
H3254 C3251 0.950 . S
C3255 C3246 1.390 . S
C3255 H3248 0.950 . S
C3255 C3252 1.387 . S
C3256 C3257 1.387 . S
C3256 H3260 0.950 . S
C3256 C3265 1.390 . S
C3257 C3256 1.387 . S
C3257 C3259 1.387 . S
H3258 C3265 0.950 . S
C3259 C3257 1.387 . S
C3259 C3261 1.390 . S
C3259 H3263 0.950 . S
H3260 C3256 0.950 . S
C3261 C3259 1.390 . S
C3261 C3262 1.387 . S
C3261 H3264 0.950 . S
C3262 C3261 1.387 . S
C3262 C3265 1.387 . S
H3263 C3259 0.950 . S
H3264 C3261 0.950 . S
C3265 C3256 1.390 . S
C3265 H3258 0.950 . S
C3265 C3262 1.387 . S
C3266 C3267 1.387 . S
C3266 H3270 0.950 . S
C3266 C3275 1.390 1_655 S
C3267 C3266 1.387 . S
C3267 C3269 1.387 . S
H3268 C3275 0.950 . S
C3269 C3267 1.387 . S
C3269 C3271 1.390 1_655 S
C3269 H3273 0.950 . S
H3270 C3266 0.950 . S
C3271 C3269 1.390 1_455 S
C3271 C3272 1.387 . S
C3271 H3274 0.950 . S
C3272 C3271 1.387 . S
C3272 C3275 1.387 . S
H3273 C3269 0.950 . S
H3274 C3271 0.950 . S
C3275 C3266 1.390 1_455 S
C3275 H3268 0.950 . S
C3275 C3272 1.387 . S
C3276 C3277 1.387 . S
C3276 H3280 0.950 . S
C3276 C3285 1.390 1_655 S
C3277 C3276 1.387 . S
C3277 C3279 1.387 . S
H3278 C3285 0.950 . S
C3279 C3277 1.387 . S
C3279 C3281 1.390 1_655 S
C3279 H3283 0.950 . S
H3280 C3276 0.950 . S
C3281 C3279 1.390 1_455 S
C3281 C3282 1.387 . S
C3281 H3284 0.950 . S
C3282 C3281 1.387 . S
C3282 C3285 1.387 . S
H3283 C3279 0.950 . S
H3284 C3281 0.950 . S
C3285 C3276 1.390 1_455 S
C3285 H3278 0.950 . S
C3285 C3282 1.387 . S
C3286 C3287 1.387 . S
C3286 H3290 0.950 . S
C3286 C3295 1.390 . S
C3287 C3286 1.387 . S
C3287 C3289 1.387 . S
H3288 C3295 0.950 . S
C3289 C3287 1.387 . S
C3289 C3291 1.390 . S
C3289 H3293 0.950 . S
H3290 C3286 0.950 . S
C3291 C3289 1.390 . S
C3291 C3292 1.387 . S
C3291 H3294 0.950 . S
C3292 C3291 1.387 . S
C3292 C3295 1.387 . S
H3293 C3289 0.950 . S
H3294 C3291 0.950 . S
C3295 C3286 1.390 . S
C3295 H3288 0.950 . S
C3295 C3292 1.387 . S
C3296 C3297 1.387 . S
C3296 H3300 0.950 . S
C3296 C3305 1.390 . S
C3297 C3296 1.387 . S
C3297 C3299 1.387 . S
H3298 C3305 0.950 . S
C3299 C3297 1.387 . S
C3299 C3301 1.390 . S
C3299 H3303 0.950 . S
H3300 C3296 0.950 . S
C3301 C3299 1.390 . S
C3301 C3302 1.387 . S
C3301 H3304 0.950 . S
C3302 C3301 1.387 . S
C3302 C3305 1.387 . S
H3303 C3299 0.950 . S
H3304 C3301 0.950 . S
C3305 C3296 1.390 . S
C3305 H3298 0.950 . S
C3305 C3302 1.387 . S
C3306 C3307 1.387 . S
C3306 H3310 0.950 . S
C3306 C3315 1.390 1_565 S
C3307 C3306 1.387 . S
C3307 C3309 1.387 . S
H3308 C3315 0.950 . S
C3309 C3307 1.387 . S
C3309 C3311 1.390 1_565 S
C3309 H3313 0.950 . S
H3310 C3306 0.950 . S
C3311 C3309 1.390 1_545 S
C3311 C3312 1.387 . S
C3311 H3314 0.950 . S
C3312 C3311 1.387 . S
C3312 C3315 1.387 . S
H3313 C3309 0.950 . S
H3314 C3311 0.950 . S
C3315 C3306 1.390 1_545 S
C3315 H3308 0.950 . S
C3315 C3312 1.387 . S
C3316 C3317 1.387 . S
C3316 H3320 0.950 . S
C3316 C3325 1.390 . S
C3317 C3316 1.387 . S
C3317 C3319 1.387 . S
H3318 C3325 0.950 . S
C3319 C3317 1.387 . S
C3319 C3321 1.390 . S
C3319 H3323 0.950 . S
H3320 C3316 0.950 . S
C3321 C3319 1.390 . S
C3321 C3322 1.387 . S
C3321 H3324 0.950 . S
C3322 C3321 1.387 . S
C3322 C3325 1.387 . S
H3323 C3319 0.950 . S
H3324 C3321 0.950 . S
C3325 C3316 1.390 . S
C3325 H3318 0.950 . S
C3325 C3322 1.387 . S
C3326 C3327 1.387 . S
C3326 H3330 0.950 . S
C3326 C3335 1.390 1_545 S
C3327 C3326 1.387 . S
C3327 C3329 1.387 . S
H3328 C3335 0.950 . S
C3329 C3327 1.387 . S
C3329 C3331 1.390 1_545 S
C3329 H3333 0.950 . S
H3330 C3326 0.950 . S
C3331 C3329 1.390 1_565 S
C3331 C3332 1.387 . S
C3331 H3334 0.950 . S
C3332 C3331 1.387 . S
C3332 C3335 1.387 . S
H3333 C3329 0.950 . S
H3334 C3331 0.950 . S
C3335 C3326 1.390 1_565 S
C3335 H3328 0.950 . S
C3335 C3332 1.387 . S
C3336 C3337 1.387 . S
C3336 H3340 0.950 . S
C3336 C3345 1.390 . S
C3337 C3336 1.387 . S
C3337 C3339 1.387 . S
H3338 C3345 0.950 . S
C3339 C3337 1.387 . S
C3339 C3341 1.390 . S
C3339 H3343 0.950 . S
H3340 C3336 0.950 . S
C3341 C3339 1.390 . S
C3341 C3342 1.387 . S
C3341 H3344 0.950 . S
C3342 C3341 1.387 . S
C3342 C3345 1.387 . S
H3343 C3339 0.950 . S
H3344 C3341 0.950 . S
C3345 C3336 1.390 . S
C3345 H3338 0.950 . S
C3345 C3342 1.387 . S
C3346 C3347 1.387 . S
C3346 H3350 0.950 . S
C3346 C3355 1.390 1_545 S
C3347 C3346 1.387 . S
C3347 C3349 1.387 . S
H3348 C3355 0.950 . S
C3349 C3347 1.387 . S
C3349 C3351 1.390 1_545 S
C3349 H3353 0.950 . S
H3350 C3346 0.950 . S
C3351 C3349 1.390 1_565 S
C3351 C3352 1.387 . S
C3351 H3354 0.950 . S
C3352 C3351 1.387 . S
C3352 C3355 1.387 . S
H3353 C3349 0.950 . S
H3354 C3351 0.950 . S
C3355 C3346 1.390 1_565 S
C3355 H3348 0.950 . S
C3355 C3352 1.387 . S
C3356 C3357 1.387 . S
C3356 H3360 0.950 . S
C3356 C3365 1.390 . S
C3357 C3356 1.387 . S
C3357 C3359 1.387 . S
H3358 C3365 0.950 . S
C3359 C3357 1.387 . S
C3359 C3361 1.390 . S
C3359 H3363 0.950 . S
H3360 C3356 0.950 . S
C3361 C3359 1.390 . S
C3361 C3362 1.387 . S
C3361 H3364 0.950 . S
C3362 C3361 1.387 . S
C3362 C3365 1.387 . S
H3363 C3359 0.950 . S
H3364 C3361 0.950 . S
C3365 C3356 1.390 . S
C3365 H3358 0.950 . S
C3365 C3362 1.387 . S
C3366 C3367 1.387 . S
C3366 H3370 0.950 . S
C3366 C3375 1.390 1_565 S
C3367 C3366 1.387 . S
C3367 C3369 1.387 . S
H3368 C3375 0.950 . S
C3369 C3367 1.387 . S
C3369 C3371 1.390 1_565 S
C3369 H3373 0.950 . S
H3370 C3366 0.950 . S
C3371 C3369 1.390 1_545 S
C3371 C3372 1.387 . S
C3371 H3374 0.950 . S
C3372 C3371 1.387 . S
C3372 C3375 1.387 . S
H3373 C3369 0.950 . S
H3374 C3371 0.950 . S
C3375 C3366 1.390 1_545 S
C3375 H3368 0.950 . S
C3375 C3372 1.387 . S
C3376 C3377 1.387 . S
C3376 H3380 0.950 . S
C3376 C3385 1.390 . S
C3377 C3376 1.387 . S
C3377 C3379 1.387 . S
H3378 C3385 0.950 . S
C3379 C3377 1.387 . S
C3379 C3381 1.390 . S
C3379 H3383 0.950 . S
H3380 C3376 0.950 . S
C3381 C3379 1.390 . S
C3381 C3382 1.387 . S
C3381 H3384 0.950 . S
C3382 C3381 1.387 . S
C3382 C3385 1.387 . S
H3383 C3379 0.950 . S
H3384 C3381 0.950 . S
C3385 C3376 1.390 . S
C3385 H3378 0.950 . S
C3385 C3382 1.387 . S
C3386 C3387 1.387 . S
C3386 H3390 0.950 . S
C3386 C3395 1.390 . S
C3387 C3386 1.387 . S
C3387 C3389 1.387 . S
H3388 C3395 0.950 . S
C3389 C3387 1.387 . S
C3389 C3391 1.390 . S
C3389 H3393 0.950 . S
H3390 C3386 0.950 . S
C3391 C3389 1.390 . S
C3391 C3392 1.387 . S
C3391 H3394 0.950 . S
C3392 C3391 1.387 . S
C3392 C3395 1.387 . S
H3393 C3389 0.950 . S
H3394 C3391 0.950 . S
C3395 C3386 1.390 . S
C3395 H3388 0.950 . S
C3395 C3392 1.387 . S
C3396 C3397 1.387 . S
C3396 H3400 0.950 . S
C3396 C3405 1.390 . S
C3397 C3396 1.387 . S
C3397 C3399 1.387 . S
H3398 C3405 0.950 . S
C3399 C3397 1.387 . S
C3399 C3401 1.390 . S
C3399 H3403 0.950 . S
H3400 C3396 0.950 . S
C3401 C3399 1.390 . S
C3401 C3402 1.387 . S
C3401 H3404 0.950 . S
C3402 C3401 1.387 . S
C3402 C3405 1.387 . S
H3403 C3399 0.950 . S
H3404 C3401 0.950 . S
C3405 C3396 1.390 . S
C3405 H3398 0.950 . S
C3405 C3402 1.387 . S
C3406 C3407 1.387 . S
C3406 H3410 0.950 . S
C3406 C3415 1.390 . S
C3407 C3406 1.387 . S
C3407 C3409 1.387 . S
H3408 C3415 0.950 . S
C3409 C3407 1.387 . S
C3409 C3411 1.390 . S
C3409 H3413 0.950 . S
H3410 C3406 0.950 . S
C3411 C3409 1.390 . S
C3411 C3412 1.387 . S
C3411 H3414 0.950 . S
C3412 C3411 1.387 . S
C3412 C3415 1.387 . S
H3413 C3409 0.950 . S
H3414 C3411 0.950 . S
C3415 C3406 1.390 . S
C3415 H3408 0.950 . S
C3415 C3412 1.387 . S
C3416 C3417 1.387 . S
C3416 H3420 0.950 . S
C3416 C3425 1.390 . S
C3417 C3416 1.387 . S
C3417 C3419 1.387 . S
H3418 C3425 0.950 . S
C3419 C3417 1.387 . S
C3419 C3421 1.390 . S
C3419 H3423 0.950 . S
H3420 C3416 0.950 . S
C3421 C3419 1.390 . S
C3421 C3422 1.387 . S
C3421 H3424 0.950 . S
C3422 C3421 1.387 . S
C3422 C3425 1.387 . S
H3423 C3419 0.950 . S
H3424 C3421 0.950 . S
C3425 C3416 1.390 . S
C3425 H3418 0.950 . S
C3425 C3422 1.387 . S
C3426 C3427 1.387 . S
C3426 H3430 0.950 . S
C3426 C3435 1.390 . S
C3427 C3426 1.387 . S
C3427 C3429 1.387 . S
H3428 C3435 0.950 . S
C3429 C3427 1.387 . S
C3429 C3431 1.390 . S
C3429 H3433 0.950 . S
H3430 C3426 0.950 . S
C3431 C3429 1.390 . S
C3431 C3432 1.387 . S
C3431 H3434 0.950 . S
C3432 C3431 1.387 . S
C3432 C3435 1.387 . S
H3433 C3429 0.950 . S
H3434 C3431 0.950 . S
C3435 C3426 1.390 . S
C3435 H3428 0.950 . S
C3435 C3432 1.387 . S
C3436 C3437 1.387 . S
C3436 H3440 0.950 . S
C3436 C3445 1.390 . S
C3437 C3436 1.387 . S
C3437 C3439 1.387 . S
H3438 C3445 0.950 . S
C3439 C3437 1.387 . S
C3439 C3441 1.390 . S
C3439 H3443 0.950 . S
H3440 C3436 0.950 . S
C3441 C3439 1.390 . S
C3441 C3442 1.387 . S
C3441 H3444 0.950 . S
C3442 C3441 1.387 . S
C3442 C3445 1.387 . S
H3443 C3439 0.950 . S
H3444 C3441 0.950 . S
C3445 C3436 1.390 . S
C3445 H3438 0.950 . S
C3445 C3442 1.387 . S
C3446 C3447 1.387 . S
C3446 H3450 0.950 . S
C3446 C3455 1.390 . S
C3447 C3446 1.387 . S
C3447 C3449 1.387 . S
H3448 C3455 0.950 . S
C3449 C3447 1.387 . S
C3449 C3451 1.390 . S
C3449 H3453 0.950 . S
H3450 C3446 0.950 . S
C3451 C3449 1.390 . S
C3451 C3452 1.387 . S
C3451 H3454 0.950 . S
C3452 C3451 1.387 . S
C3452 C3455 1.387 . S
H3453 C3449 0.950 . S
H3454 C3451 0.950 . S
C3455 C3446 1.390 . S
C3455 H3448 0.950 . S
C3455 C3452 1.387 . S
C2817 C665 1.558 . S
C2822 C29 1.559 . S
C2827 C108 1.558 . S
C2832 C409 1.557 . S
C2837 C489 1.557 . S
C2842 C196 1.557 . S
C2847 C284 1.561 . S
C2852 C585 1.560 . S
C2857 C724 1.559 . S
C2862 C1377 1.558 . S
C2867 C812 1.560 . S
C2872 C1105 1.561 . S
C2877 C900 1.558 . S
C2882 C1201 1.557 . S
C2887 C997 1.559 . S
C2892 C1289 1.559 . S
C2897 C1437 1.559 . S
C2902 C2073 1.559 . S
C2907 C1516 1.559 . S
C2912 C1817 1.560 . S
C2917 C1905 1.558 . S
C2922 C1604 1.558 . S
C2927 C1985 1.556 . S
C2932 C1692 1.557 . S
C2937 C2141 1.556 . S
C2942 C2777 1.557 . S
C2947 C2513 1.559 . S
C2952 C2220 1.559 . S
C2957 C2609 1.558 . S
C2962 C2317 1.557 . S
C2967 C2405 1.556 . S
C2972 C2689 1.556 . S
C2977 C49 0.774 . S
C2982 C548 0.774 . S
C2987 C145 0.775 . S
C2992 C645 0.775 . S
C2997 C372 0.774 . S
C3002 C233 0.774 . S
C3007 C321 0.775 . S
C3012 C469 0.775 . S
C3017 C733 0.773 . S
C3022 C1281 0.773 . S
C3027 C821 0.773 . S
C3032 C1369 0.773 . S
C3037 C1113 0.774 . S
C3042 C909 0.774 . S
C3047 C1193 0.774 . S
C3052 C988 0.774 . S
C3057 C1457 0.775 . S
C3062 C1965 0.775 . S
C3067 C2053 0.774 . S
C3072 C1553 0.774 . S
C3077 C1780 0.774 . S
C3082 C1641 0.774 . S
C3087 C1729 0.775 . S
C3092 C1868 0.775 . S
C3097 C2132 0.774 . S
C3102 C2697 0.774 . S
C3107 C2229 0.774 . S
C3112 C2785 0.774 . S
C3117 C2521 0.774 . S
C3122 C2308 0.774 . S
C3127 C2601 0.773 . S
C3132 C2396 0.773 . S
C3137 C57 1.433 . S
C3142 C2660 1.433 . S
C3147 C137 1.432 . S
C3152 C1349 1.432 . S
C3157 C225 1.432 . S
C3162 C2484 1.431 . S
C3167 C313 1.431 . S
C3172 C1173 1.433 . S
C3177 C381 1.431 . S
C3182 C2345 1.433 . S
C3187 C460 1.432 . S
C3192 C1025 1.432 . S
C3197 C557 1.432 . S
C3202 C2169 1.432 . S
C3207 C841 1.433 . S
C3212 C636 1.433 . S
C3217 C1956 1.432 . S
C3222 C753 1.433 . S
C3227 C929 1.432 . S
C3232 C1789 1.432 . S
C3237 C1633 1.432 . S
C3242 C1076 1.434 . S
C3247 C1465 1.432 . S
C3252 C1261 1.432 . S
C3257 C1545 1.431 . S
C3262 C2748 1.433 . S
C3267 C1721 1.431 . S
C3272 C2581 1.432 . S
C3277 C1877 1.433 . S
C3282 C2433 1.433 . S
C3287 C2249 1.433 . S
C3292 C2044 1.431 . S
C3297 C20 1.940 . S
C3302 C577 1.940 . S
C3307 C117 1.940 . S
C3312 C673 1.940 . S
C3317 C401 1.939 . S
C3322 C205 1.939 . S
C3327 C293 1.940 1_554 S
C3332 C497 1.940 . S
C3337 C761 1.942 . S
C3342 C1252 1.942 . S
C3347 C849 1.943 . S
C3352 C1340 1.943 . S
C3357 C1085 1.940 . S
C3362 C937 1.940 . S
C3367 C1017 1.940 . S
C3372 C1164 1.940 1_554 S
C3377 C1993 1.939 . S
C3382 C1428 1.939 . S
C3387 C2081 1.940 . S
C3392 C1525 1.940 1_554 S
C3397 C1809 1.940 . S
C3402 C1613 1.940 . S
C3407 C1897 1.942 . S
C3412 C1701 1.942 . S
C3417 C2669 1.940 . S
C3422 C2161 1.940 . S
C3427 C2757 1.942 1_554 S
C3432 C2257 1.942 . S
C3437 C2337 1.942 . S
C3442 C2493 1.942 . S
C3447 C2572 1.940 . S
C3452 C2425 1.940 . S
