# Generated by pormake.
# Topology gsi, (4)-cn, num edge types: 1
# Building blocks:
#     Node 0, Type 0, BuildingBlock: QUQFOY_clean_sbu_1, # of connection points: 4
#     Node 1, Type 0, BuildingBlock: QUQFOY_clean_sbu_1, # of connection points: 4
#     Node 2, Type 0, BuildingBlock: QUQFOY_clean_sbu_1, # of connection points: 4
#     Node 3, Type 0, BuildingBlock: QUQFOY_clean_sbu_1, # of connection points: 4
#     Node 4, Type 0, BuildingBlock: QUQFOY_clean_sbu_1, # of connection points: 4
#     Node 5, Type 0, BuildingBlock: QUQFOY_clean_sbu_1, # of connection points: 4
#     Node 6, Type 0, BuildingBlock: QUQFOY_clean_sbu_1, # of connection points: 4
#     Node 7, Type 0, BuildingBlock: QUQFOY_clean_sbu_1, # of connection points: 4
#     Node 8, Type 0, BuildingBlock: QUQFOY_clean_sbu_1, # of connection points: 4
#     Node 9, Type 0, BuildingBlock: QUQFOY_clean_sbu_1, # of connection points: 4
#     Node 10, Type 0, BuildingBlock: QUQFOY_clean_sbu_1, # of connection points: 4
#     Node 11, Type 0, BuildingBlock: QUQFOY_clean_sbu_1, # of connection points: 4
#     Node 12, Type 0, BuildingBlock: QUQFOY_clean_sbu_1, # of connection points: 4
#     Node 13, Type 0, BuildingBlock: QUQFOY_clean_sbu_1, # of connection points: 4
#     Node 14, Type 0, BuildingBlock: QUQFOY_clean_sbu_1, # of connection points: 4
#     Node 15, Type 0, BuildingBlock: QUQFOY_clean_sbu_1, # of connection points: 4
#     Edge 16, Type (0, 0), BuildingBlock: AJUNOK_clean_linker_0, # of connection points: 2
#     Edge 17, Type (0, 0), BuildingBlock: AJUNOK_clean_linker_0, # of connection points: 2
#     Edge 18, Type (0, 0), BuildingBlock: AJUNOK_clean_linker_0, # of connection points: 2
#     Edge 19, Type (0, 0), BuildingBlock: AJUNOK_clean_linker_0, # of connection points: 2
#     Edge 20, Type (0, 0), BuildingBlock: AJUNOK_clean_linker_0, # of connection points: 2
#     Edge 21, Type (0, 0), BuildingBlock: AJUNOK_clean_linker_0, # of connection points: 2
#     Edge 22, Type (0, 0), BuildingBlock: AJUNOK_clean_linker_0, # of connection points: 2
#     Edge 23, Type (0, 0), BuildingBlock: AJUNOK_clean_linker_0, # of connection points: 2
#     Edge 24, Type (0, 0), BuildingBlock: AJUNOK_clean_linker_0, # of connection points: 2
#     Edge 25, Type (0, 0), BuildingBlock: AJUNOK_clean_linker_0, # of connection points: 2
#     Edge 26, Type (0, 0), BuildingBlock: AJUNOK_clean_linker_0, # of connection points: 2
#     Edge 27, Type (0, 0), BuildingBlock: AJUNOK_clean_linker_0, # of connection points: 2
#     Edge 28, Type (0, 0), BuildingBlock: AJUNOK_clean_linker_0, # of connection points: 2
#     Edge 29, Type (0, 0), BuildingBlock: AJUNOK_clean_linker_0, # of connection points: 2
#     Edge 30, Type (0, 0), BuildingBlock: AJUNOK_clean_linker_0, # of connection points: 2
#     Edge 31, Type (0, 0), BuildingBlock: AJUNOK_clean_linker_0, # of connection points: 2
#     Edge 32, Type (0, 0), BuildingBlock: AJUNOK_clean_linker_0, # of connection points: 2
#     Edge 33, Type (0, 0), BuildingBlock: AJUNOK_clean_linker_0, # of connection points: 2
#     Edge 34, Type (0, 0), BuildingBlock: AJUNOK_clean_linker_0, # of connection points: 2
#     Edge 35, Type (0, 0), BuildingBlock: AJUNOK_clean_linker_0, # of connection points: 2
#     Edge 36, Type (0, 0), BuildingBlock: AJUNOK_clean_linker_0, # of connection points: 2
#     Edge 37, Type (0, 0), BuildingBlock: AJUNOK_clean_linker_0, # of connection points: 2
#     Edge 38, Type (0, 0), BuildingBlock: AJUNOK_clean_linker_0, # of connection points: 2
#     Edge 39, Type (0, 0), BuildingBlock: AJUNOK_clean_linker_0, # of connection points: 2
#     Edge 40, Type (0, 0), BuildingBlock: AJUNOK_clean_linker_0, # of connection points: 2
#     Edge 41, Type (0, 0), BuildingBlock: AJUNOK_clean_linker_0, # of connection points: 2
#     Edge 42, Type (0, 0), BuildingBlock: AJUNOK_clean_linker_0, # of connection points: 2
#     Edge 43, Type (0, 0), BuildingBlock: AJUNOK_clean_linker_0, # of connection points: 2
#     Edge 44, Type (0, 0), BuildingBlock: AJUNOK_clean_linker_0, # of connection points: 2
#     Edge 45, Type (0, 0), BuildingBlock: AJUNOK_clean_linker_0, # of connection points: 2
#     Edge 46, Type (0, 0), BuildingBlock: AJUNOK_clean_linker_0, # of connection points: 2
#     Edge 47, Type (0, 0), BuildingBlock: AJUNOK_clean_linker_0, # of connection points: 2
# Relax obj value: 0.159
# Max RMSD: 0.227
# Mean RMSD: 0.174
data_MOF--net-gsi--node1-QUQFOY_clean_sbu_1--edge1-AJUNOK_clean_linker_0
_symmetry_space_group_name_H-M    P1
_symmetry_Int_Tables_number       1
_symmetry_cell_setting            triclinic
loop_
_symmetry_equiv_pos_as_xyz
'x, y, z'
_cell_length_a     30.078729
_cell_length_b     33.58184
_cell_length_c     35.649912
_cell_angle_alpha  89.871741
_cell_angle_beta   89.972533
_cell_angle_gamma 99.457624
loop_
_atom_site_label
_atom_site_type_symbol
_atom_site_fract_x
_atom_site_fract_y
_atom_site_fract_z
_atom_type_partial_charge
O0 O 0.05126 0.21534 0.13433 0.0
Cd1 Cd 0.10738 0.1883 0.14255 0.0
Cd2 Cd 0.05294 0.15594 0.19923 0.0
O3 O 0.00218 0.17765 0.17089 0.0
O4 O 0.14594 0.21332 0.10077 0.0
O5 O 0.12466 0.14763 0.10514 0.0
C6 C 0.14647 0.17805 0.0871 0.0
C7 C 0.05116 0.09073 0.22172 0.0
C8 C 0.01144 0.20606 0.14705 0.0
C9 C 0.13358 0.21445 0.2204 0.0
O10 O 0.09425 0.19818 0.2301 0.0
O11 O 0.14747 0.20959 0.18733 0.0
O12 O 0.02787 0.11513 0.23741 0.0
O13 O 0.07259 0.10231 0.19109 0.0
O14 O 0.83932 0.30179 0.13988 0.0
Cd15 Cd 0.78865 0.33563 0.14837 0.0
Cd16 Cd 0.84889 0.37175 0.19325 0.0
O17 O 0.8943 0.34778 0.16054 0.0
O18 O 0.74266 0.31305 0.11093 0.0
O19 O 0.77603 0.37661 0.10969 0.0
C20 C 0.74768 0.3479 0.09493 0.0
C21 C 0.84406 0.43856 0.20352 0.0
C22 C 0.88117 0.31422 0.14436 0.0
C23 C 0.77335 0.32236 0.22955 0.0
O24 O 0.81549 0.33375 0.23291 0.0
O25 O 0.75425 0.32633 0.19831 0.0
O26 O 0.87606 0.42254 0.2185 0.0
O27 O 0.81699 0.41741 0.18017 0.0
O28 O 0.0456 0.82225 0.39063 0.0
Cd29 Cd 0.11369 0.84338 0.38948 0.0
Cd30 Cd 0.08871 0.87847 0.31933 0.0
O31 O 0.0305 0.84044 0.33301 0.0
O32 O 0.13127 0.81541 0.43503 0.0
O33 O 0.14702 0.88129 0.42875 0.0
C34 C 0.14944 0.84958 0.44861 0.0
C35 C 0.07954 0.94052 0.29248 0.0
C36 C 0.01875 0.82113 0.36306 0.0
C37 C 0.15493 0.82181 0.31539 0.0
O38 O 0.13778 0.84896 0.29847 0.0
O39 O 0.14823 0.81554 0.35023 0.0
O40 O 0.07105 0.90737 0.27388 0.0
O41 O 0.09416 0.93873 0.32639 0.0
O42 O 0.82754 0.699 0.38024 0.0
Cd43 Cd 0.7608 0.67338 0.37712 0.0
Cd44 Cd 0.79587 0.64321 0.30525 0.0
O45 O 0.85222 0.67853 0.32638 0.0
O46 O 0.74005 0.70325 0.42 0.0
O47 O 0.73014 0.63707 0.41904 0.0
C48 C 0.72523 0.66969 0.43641 0.0
C49 C 0.8079 0.58498 0.27354 0.0
C50 C 0.85877 0.69902 0.35634 0.0
C51 C 0.72443 0.69556 0.30051 0.0
O52 O 0.74951 0.67488 0.28303 0.0
O53 O 0.7244 0.69685 0.33612 0.0
O54 O 0.82249 0.62035 0.26035 0.0
O55 O 0.78574 0.58226 0.3047 0.0
O56 O 0.34023 0.80488 0.63846 0.0
Cd57 Cd 0.28555 0.83443 0.64507 0.0
Cd58 Cd 0.34111 0.86761 0.69942 0.0
O59 O 0.39114 0.84556 0.6708 0.0
O60 O 0.24543 0.80918 0.6044 0.0
O61 O 0.26974 0.8746 0.60641 0.0
C62 C 0.24617 0.84424 0.58965 0.0
C63 C 0.34234 0.93307 0.72038 0.0
C64 C 0.38063 0.81509 0.64958 0.0
C65 C 0.26056 0.81175 0.72355 0.0
O66 O 0.30107 0.82575 0.73176 0.0
O67 O 0.24555 0.8172 0.691 0.0
O68 O 0.36653 0.90947 0.73625 0.0
O69 O 0.32037 0.92057 0.6903 0.0
O70 O 0.79197 0.94062 0.85262 0.0
Cd71 Cd 0.77096 0.88528 0.87805 0.0
Cd72 Cd 0.84591 0.86872 0.8407 0.0
O73 O 0.85653 0.92957 0.82826 0.0
O74 O 0.72059 0.89387 0.9116 0.0
O75 O 0.78405 0.87699 0.93286 0.0
C76 C 0.74428 0.88503 0.93953 0.0
C77 C 0.90135 0.82935 0.85318 0.0
C78 C 0.82786 0.95281 0.83417 0.0
C79 C 0.75675 0.82418 0.81629 0.0
O80 O 0.79796 0.83526 0.80859 0.0
O81 O 0.73965 0.83849 0.8448 0.0
O82 O 0.89935 0.84768 0.82161 0.0
O83 O 0.87487 0.83718 0.87973 0.0
O84 O 0.10993 0.58065 0.85166 0.0
Cd85 Cd 0.13314 0.63395 0.87945 0.0
Cd86 Cd 0.05805 0.65581 0.84565 0.0
O87 O 0.04779 0.5968 0.82687 0.0
O88 O 0.17422 0.62109 0.91988 0.0
O89 O 0.11199 0.64642 0.93079 0.0
C90 C 0.14779 0.63442 0.94358 0.0
C91 C 0.00083 0.69437 0.8549 0.0
C92 C 0.07494 0.57184 0.83137 0.0
C93 C 0.15061 0.69995 0.82366 0.0
O94 O 0.10844 0.69263 0.81875 0.0
O95 O 0.1689 0.68033 0.8481 0.0
O96 O 0.00754 0.67862 0.82298 0.0
O97 O 0.02317 0.68419 0.88328 0.0
O98 O 0.87505 0.18667 0.68709 0.0
Cd99 Cd 0.82056 0.16008 0.71825 0.0
Cd100 Cd 0.77367 0.1869 0.6549 0.0
O101 O 0.83811 0.21481 0.64334 0.0
O102 O 0.84676 0.13559 0.76256 0.0
O103 O 0.80358 0.09946 0.72056 0.0
C104 C 0.82675 0.10093 0.75115 0.0
C105 C 0.73083 0.16475 0.60187 0.0
C106 C 0.87477 0.20955 0.65866 0.0
C107 C 0.75333 0.21688 0.73102 0.0
O108 O 0.74212 0.213 0.69675 0.0
O109 O 0.78383 0.19887 0.74429 0.0
O110 O 0.73995 0.20231 0.61059 0.0
O111 O 0.74529 0.13904 0.62379 0.0
O112 O 0.0396 0.34473 0.67513 0.0
Cd113 Cd 0.09365 0.37446 0.70462 0.0
Cd114 Cd 0.14079 0.34476 0.64142 0.0
O115 O 0.07663 0.31428 0.63309 0.0
O116 O 0.06527 0.39578 0.74962 0.0
O117 O 0.10552 0.43542 0.70828 0.0
C118 C 0.08224 0.43161 0.73887 0.0
C119 C 0.18194 0.36527 0.58676 0.0
C120 C 0.04008 0.31948 0.64869 0.0
C121 C 0.16305 0.31928 0.71861 0.0
O122 O 0.17415 0.32179 0.68422 0.0
O123 O 0.13231 0.3375 0.73105 0.0
O124 O 0.17385 0.32809 0.5971 0.0
O125 O 0.16716 0.39146 0.60782 0.0
O126 O 0.63571 0.09806 0.35381 0.0
Cd127 Cd 0.65158 0.14822 0.38724 0.0
Cd128 Cd 0.57514 0.16636 0.35151 0.0
O129 O 0.56795 0.10642 0.33459 0.0
O130 O 0.692 0.13292 0.42694 0.0
O131 O 0.62691 0.15305 0.43905 0.0
C132 C 0.66314 0.1413 0.45121 0.0
C133 C 0.51433 0.20197 0.35624 0.0
C134 C 0.59984 0.08575 0.33554 0.0
C135 C 0.66777 0.21633 0.33531 0.0
O136 O 0.62667 0.20516 0.32696 0.0
O137 O 0.68577 0.19869 0.36132 0.0
O138 O 0.52501 0.18661 0.32517 0.0
O139 O 0.53519 0.19339 0.38608 0.0
O140 O 0.55284 0.72025 0.63654 0.0
Cd141 Cd 0.60874 0.69207 0.64061 0.0
Cd142 Cd 0.55856 0.6583 0.69868 0.0
O143 O 0.50601 0.67964 0.67267 0.0
O144 O 0.64388 0.71598 0.59666 0.0
O145 O 0.62122 0.65051 0.60224 0.0
C146 C 0.6421 0.6804 0.58293 0.0
C147 C 0.55685 0.59334 0.72183 0.0
C148 C 0.5136 0.7092 0.64992 0.0
C149 C 0.6412 0.71581 0.71704 0.0
O150 O 0.60212 0.70027 0.7281 0.0
O151 O 0.65282 0.71146 0.68328 0.0
O152 O 0.53494 0.61842 0.73807 0.0
O153 O 0.57675 0.6041 0.69037 0.0
O154 O 0.55811 0.3264 0.89072 0.0
Cd155 Cd 0.62547 0.35018 0.89129 0.0
Cd156 Cd 0.59946 0.38304 0.82014 0.0
O157 O 0.54227 0.34315 0.83287 0.0
O158 O 0.64165 0.32198 0.93709 0.0
O159 O 0.65497 0.38811 0.93214 0.0
C160 C 0.65736 0.35624 0.95177 0.0
C161 C 0.58812 0.44434 0.79322 0.0
C162 C 0.53122 0.32397 0.8631 0.0
C163 C 0.67106 0.33119 0.81849 0.0
O164 O 0.65155 0.35636 0.80088 0.0
O165 O 0.66403 0.32487 0.85327 0.0
O166 O 0.58172 0.41126 0.77439 0.0
O167 O 0.60186 0.44289 0.82743 0.0
O168 O 0.34182 0.20092 0.88675 0.0
Cd169 Cd 0.27408 0.17875 0.88461 0.0
Cd170 Cd 0.30314 0.14564 0.81489 0.0
O171 O 0.36109 0.18296 0.83022 0.0
O172 O 0.25572 0.2068 0.92968 0.0
O173 O 0.24147 0.14081 0.92444 0.0
C174 C 0.23861 0.17259 0.94392 0.0
C175 C 0.31243 0.08355 0.78878 0.0
C176 C 0.37065 0.20215 0.8606 0.0
C177 C 0.23539 0.20117 0.80977 0.0
O178 O 0.25501 0.17557 0.793 0.0
O179 O 0.23947 0.20615 0.84496 0.0
O180 O 0.32199 0.11667 0.77011 0.0
O181 O 0.29665 0.08542 0.82231 0.0
O182 O 0.29894 0.44383 0.34642 0.0
Cd183 Cd 0.27439 0.39029 0.37366 0.0
Cd184 Cd 0.34527 0.36641 0.33415 0.0
O185 O 0.35678 0.42593 0.31617 0.0
O186 O 0.23263 0.40567 0.41249 0.0
O187 O 0.29209 0.37748 0.42624 0.0
C188 C 0.25702 0.39179 0.43746 0.0
C189 C 0.40185 0.32768 0.34626 0.0
C190 C 0.33198 0.4521 0.32389 0.0
C191 C 0.25063 0.3256 0.31637 0.0
O192 O 0.29233 0.33107 0.30873 0.0
O193 O 0.23583 0.34552 0.34249 0.0
O194 O 0.39548 0.34149 0.31332 0.0
O195 O 0.37869 0.33909 0.37357 0.0
O196 O 0.3598 0.69723 0.18762 0.0
Cd197 Cd 0.30784 0.65838 0.21193 0.0
Cd198 Cd 0.26183 0.68538 0.14724 0.0
O199 O 0.32493 0.71788 0.13817 0.0
O200 O 0.33608 0.63443 0.25568 0.0
O201 O 0.30271 0.59754 0.20941 0.0
C202 C 0.32362 0.59937 0.24113 0.0
C203 C 0.22012 0.6643 0.0931 0.0
C204 C 0.35982 0.71894 0.15836 0.0
C205 C 0.23357 0.70712 0.2251 0.0
O206 O 0.22737 0.70783 0.18988 0.0
O207 O 0.26249 0.68774 0.239 0.0
O208 O 0.22755 0.70143 0.10338 0.0
O209 O 0.23642 0.63845 0.1136 0.0
O210 O 0.52835 0.85802 0.18613 0.0
Cd211 Cd 0.58869 0.8814 0.21029 0.0
Cd212 Cd 0.6206 0.84801 0.14191 0.0
O213 O 0.55234 0.83091 0.13528 0.0
O214 O 0.56794 0.90878 0.25539 0.0
O215 O 0.61386 0.94089 0.21287 0.0
C216 C 0.59174 0.94185 0.24381 0.0
C217 C 0.66094 0.86303 0.08607 0.0
C218 C 0.52035 0.83716 0.15652 0.0
C219 C 0.64496 0.81466 0.21648 0.0
O220 O 0.64907 0.81499 0.18099 0.0
O221 O 0.62325 0.83907 0.23284 0.0
O222 O 0.64083 0.82716 0.09366 0.0
O223 O 0.65895 0.89103 0.11042 0.0
C224 C 0.20786 0.25503 0.23697 0.0
C225 C 0.16276 0.24092 0.24678 0.0
C226 C 0.23577 0.28199 0.25991 0.0
C227 C 0.21981 0.29629 0.29361 0.0
H228 H 0.22184 0.24551 0.21112 0.0
H229 H 0.27009 0.29212 0.25067 0.0
S230 S 0.10481 0.2675 0.33308 0.0
N231 N 0.10359 0.24232 0.29327 0.0
N232 N 0.15632 0.2933 0.3364 0.0
C233 C 0.17498 0.28202 0.3042 0.0
C234 C 0.14645 0.25423 0.28085 0.0
C235 C 0.7678 0.27823 0.28633 0.0
C236 C 0.74695 0.3009 0.26045 0.0
C237 C 0.74215 0.25227 0.31194 0.0
C238 C 0.69486 0.24831 0.31255 0.0
H239 H 0.80392 0.27887 0.28551 0.0
H240 H 0.75936 0.23383 0.33008 0.0
S241 S 0.62514 0.30713 0.25526 0.0
N242 N 0.67716 0.3219 0.24026 0.0
N243 N 0.62889 0.27363 0.28856 0.0
C244 C 0.67405 0.27327 0.28872 0.0
C245 C 0.70012 0.29943 0.2626 0.0
C246 C 0.18893 0.763 0.23264 0.0
C247 C 0.21175 0.73414 0.24935 0.0
C248 C 0.1723 0.79209 0.25411 0.0
C249 C 0.17739 0.79345 0.29333 0.0
H250 H 0.1844 0.76374 0.20251 0.0
H251 H 0.15463 0.81325 0.23972 0.0
S252 S 0.23436 0.72467 0.35117 0.0
N253 N 0.23851 0.7087 0.30776 0.0
N254 N 0.20703 0.76333 0.34818 0.0
C255 C 0.20002 0.76472 0.31056 0.0
C256 C 0.21714 0.73508 0.28861 0.0
C257 C 0.70907 0.72983 0.24079 0.0
C258 C 0.69983 0.72301 0.27918 0.0
C259 C 0.69138 0.7596 0.22095 0.0
C260 C 0.66363 0.78384 0.23861 0.0
H261 H 0.73126 0.71287 0.226 0.0
H262 H 0.7001 0.76388 0.19156 0.0
S263 S 0.62577 0.77581 0.33799 0.0
N264 N 0.65864 0.7413 0.33364 0.0
N265 N 0.62541 0.79729 0.29635 0.0
C266 C 0.65291 0.77655 0.27674 0.0
C267 C 0.67089 0.7461 0.29697 0.0
C268 C 0.25168 0.76549 0.77891 0.0
C269 C 0.23186 0.78641 0.7509 0.0
C270 C 0.22522 0.73811 0.80284 0.0
C271 C 0.17797 0.73091 0.79981 0.0
H272 H 0.288 0.76924 0.78161 0.0
H273 H 0.24205 0.72193 0.82332 0.0
S274 S 0.10958 0.78185 0.73362 0.0
N275 N 0.16233 0.80059 0.72325 0.0
N276 N 0.11234 0.74969 0.76825 0.0
C277 C 0.1577 0.75312 0.77288 0.0
C278 C 0.1847 0.7807 0.74841 0.0
C279 C 0.65501 0.75601 0.77594 0.0
C280 C 0.67209 0.74113 0.74297 0.0
C281 C 0.68269 0.78245 0.79966 0.0
C282 C 0.72862 0.79489 0.79149 0.0
H283 H 0.61967 0.74798 0.78313 0.0
H284 H 0.66769 0.79356 0.82434 0.0
S285 S 0.79075 0.7619 0.71002 0.0
N286 N 0.73835 0.73892 0.70438 0.0
N287 N 0.79055 0.78839 0.74891 0.0
C288 C 0.74648 0.77921 0.75914 0.0
C289 C 0.71819 0.75242 0.73491 0.0
C290 C 0.69202 0.3025 0.75785 0.0
C291 C 0.69645 0.30451 0.79711 0.0
C292 C 0.70993 0.27369 0.73705 0.0
C293 C 0.73348 0.24581 0.75449 0.0
H294 H 0.67337 0.32257 0.74295 0.0
H295 H 0.70524 0.27347 0.70692 0.0
S296 S 0.75682 0.23958 0.85643 0.0
N297 N 0.72774 0.27702 0.85262 0.0
N298 N 0.76175 0.22292 0.81335 0.0
C299 C 0.73931 0.24807 0.79365 0.0
C300 C 0.72078 0.27739 0.81496 0.0
C301 C 0.206 0.26235 0.72682 0.0
C302 C 0.18202 0.29055 0.74311 0.0
C303 C 0.22121 0.23251 0.74838 0.0
C304 C 0.21352 0.22971 0.7873 0.0
H305 H 0.21276 0.26287 0.69696 0.0
H306 H 0.24007 0.21204 0.73436 0.0
S307 S 0.15184 0.29584 0.84383 0.0
N308 N 0.15072 0.31347 0.80065 0.0
N309 N 0.17959 0.25742 0.8413 0.0
C310 C 0.18929 0.25751 0.80405 0.0
C311 C 0.17357 0.28791 0.78197 0.0
C312 C 0.07417 0.98377 0.23593 0.0
C313 C 0.07204 0.97903 0.2752 0.0
C314 C 0.067 0.01983 0.21873 0.0
C315 C 0.05621 0.05207 0.24007 0.0
H316 H 0.08214 0.95964 0.21833 0.0
H317 H 0.06979 0.02239 0.18849 0.0
S318 S 0.04558 0.05461 0.34384 0.0
N319 N 0.05823 1.00957 0.3349 0.0
N320 N 0.04363 0.07687 0.30267 0.0
C321 C 0.05329 0.04748 0.27934 0.0
C322 C 0.06155 1.01111 0.29688 0.0
C323 C 0.7912 0.48115 0.2293 0.0
C324 C 0.83492 0.47778 0.21712 0.0
C325 C 0.78264 0.51591 0.24787 0.0
C326 C 0.81725 0.54881 0.25372 0.0
H327 H 0.76383 0.45607 0.22593 0.0
H328 H 0.74877 0.51707 0.25767 0.0
S329 S 0.93698 0.55558 0.22569 0.0
N330 N 0.91297 0.51019 0.21186 0.0
N331 N 0.89645 0.57648 0.24492 0.0
C332 C 0.86073 0.54635 0.24048 0.0
C333 C 0.86971 0.51051 0.22267 0.0
C334 C 0.21977 0.2071 1.00197 0.0
C335 C 0.21636 0.17117 0.98119 0.0
C336 C 0.19773 0.20842 0.03626 0.0
C337 C 0.1711 0.17387 0.0516 0.0
H338 H 0.23938 0.2349 0.99157 0.0
H339 H 0.2014 0.23716 0.05064 0.0
S340 S 0.15214 0.07158 1.00926 0.0
N341 N 0.18521 0.09961 0.97895 0.0
N342 N 0.14348 0.10209 0.04384 0.0
C343 C 0.16806 0.13733 0.03169 0.0
C344 C 0.19073 0.13598 0.99643 0.0
C345 C 0.69141 0.32071 0.04649 0.0
C346 C 0.72258 0.35338 0.05996 0.0
C347 C 0.66971 0.32275 1.01212 0.0
C348 C 0.67795 0.3576 0.98959 0.0
H349 H 0.68421 0.29274 0.0622 0.0
H350 H 0.64674 0.2963 1.00292 0.0
S351 S 0.75424 0.45273 1.01284 0.0
N352 N 0.75901 0.42266 0.04884 0.0
N353 N 0.71778 0.42648 0.98393 0.0
C354 C 0.70762 0.39123 1.00322 0.0
C355 C 0.73006 0.3891 0.03844 0.0
C356 C 0.19279 0.81396 0.54027 0.0
C357 C 0.22068 0.84831 0.55455 0.0
C358 C 0.16948 0.81529 0.50659 0.0
C359 C 0.17282 0.85104 0.48539 0.0
H360 H 0.18906 0.78537 0.55504 0.0
H361 H 0.14894 0.78765 0.49698 0.0
S362 S 0.24014 0.95008 0.5107 0.0
N363 N 0.24946 0.91972 0.54532 0.0
N364 N 0.20539 0.92221 0.48159 0.0
C365 C 0.19978 0.88602 0.49957 0.0
C366 C 0.22374 0.88466 0.53419 0.0
C367 C 0.68447 0.70989 0.52689 0.0
C368 C 0.66322 0.67525 0.54599 0.0
C369 C 0.70427 0.70732 0.4918 0.0
C370 C 0.70396 0.66995 0.47396 0.0
H371 H 0.68582 0.73964 0.53897 0.0
H372 H 0.71999 0.7352 0.47862 0.0
S373 S 0.65319 0.56975 0.51192 0.0
N374 N 0.64325 0.60203 0.54456 0.0
N375 N 0.68086 0.59717 0.47818 0.0
C376 C 0.68317 0.63482 0.49269 0.0
C377 C 0.66272 0.63747 0.52874 0.0
C378 C 0.90006 0.24469 0.14285 0.0
C379 C 0.91363 0.28646 0.13727 0.0
C380 C 0.93166 0.21832 0.14401 0.0
C381 C -0.02216 0.2326 0.13873 0.0
H382 H 0.86512 0.23255 0.14878 0.0
H383 H 0.92 0.18679 0.1505 0.0
S384 S 0.02974 0.33868 0.11807 0.0
N385 N -0.02448 0.34037 0.12309 0.0
N386 N 0.03496 0.29091 0.12407 0.0
C387 C -0.00865 0.27389 0.13025 0.0
C388 C -0.04076 0.30082 0.12988 0.0
C389 C 0.92352 0.74352 0.32722 0.0
C390 C 0.9007 0.7285 0.36002 0.0
C391 C -0.03957 0.77458 0.32868 0.0
C392 C -0.0233 0.79149 0.36306 0.0
H393 H 0.91221 0.73191 0.29991 0.0
H394 H -0.02309 0.78474 0.30253 0.0
S395 S 0.92953 0.76258 0.45724 0.0
N396 N 0.89684 0.73286 0.42804 0.0
N397 N -0.03243 0.79078 0.43086 0.0
C398 C -0.04536 0.77656 0.39623 0.0
C399 C 0.91631 0.74522 0.39469 0.0
C400 C 0.49191 0.77708 0.64116 0.0
C401 C 0.47886 0.7349 0.64362 0.0
C402 C 0.45984 0.80301 0.64145 0.0
C403 C 0.41356 0.78763 0.6431 0.0
H404 H 0.52728 0.79035 0.64115 0.0
H405 H 0.4714 0.83531 0.64147 0.0
S406 S 0.36187 0.67927 0.6462 0.0
N407 N 0.41668 0.67884 0.6455 0.0
N408 N 0.35614 0.72732 0.64473 0.0
C409 C 0.4 0.74539 0.64323 0.0
C410 C 0.43273 0.71907 0.64388 0.0
C411 C 0.84025 0.02967 0.75556 0.0
C412 C 0.82951 0.06423 0.77318 0.0
C413 C 0.84244 0.99437 0.77616 0.0
C414 C 0.83253 0.99214 0.81478 0.0
H415 H 0.84702 0.02995 0.7257 0.0
H416 H 0.85 0.96809 0.76144 0.0
S417 S 0.80253 0.07444 0.87382 0.0
N418 N 0.81012 0.09457 0.83149 0.0
N419 N 0.81187 0.0275 0.8698 0.0
C420 C 0.82192 0.02656 0.83268 0.0
C421 C 0.82107 0.06284 0.81197 0.0
C422 C 0.07827 0.49842 0.82396 0.0
C423 C 0.07033 0.53499 0.80821 0.0
C424 C 0.08046 0.46465 0.80132 0.0
C425 C 0.07661 0.46684 0.76205 0.0
H426 H 0.08353 0.49612 0.8539 0.0
H427 H 0.087 0.4371 0.81452 0.0
S428 S 0.05518 0.55551 0.70712 0.0
N429 N 0.0572 0.57105 0.75111 0.0
N430 N 0.06341 0.50808 0.70848 0.0
C431 C 0.06823 0.50306 0.746 0.0
C432 C 0.06452 0.53702 0.76913 0.0
C433 C 0.65916 0.85719 0.01692 0.0
C434 C 0.68295 0.87142 0.04939 0.0
C435 C 0.67927 0.86263 0.9815 0.0
C436 C 0.72439 0.88125 0.97742 0.0
H437 H 0.62462 0.84182 0.01891 0.0
H438 H 0.65963 0.85125 0.95718 0.0
S439 S 0.80133 0.92351 0.05382 0.0
N440 N 0.75357 0.90557 0.07546 0.0
N441 N 0.79232 0.91415 1.00871 0.0
C442 C 0.74873 0.89544 1.00967 0.0
C443 C 0.72771 0.89101 0.04576 0.0
C444 C 0.19184 0.61563 0.99851 0.0
C445 C 0.16039 0.6383 0.98375 0.0
C446 C 0.20904 0.62245 0.03494 0.0
C447 C 0.19612 0.65278 0.05758 0.0
H448 H 0.20423 0.59315 0.98144 0.0
H449 H 0.23435 0.60532 0.04464 0.0
S450 S 0.1118 0.71797 0.03372 0.0
N451 N 0.11437 0.69004 0.99597 0.0
N452 N 0.1475 0.70347 0.064 0.0
C453 C 0.16324 0.67438 0.04387 0.0
C454 C 0.14511 0.66695 1.00708 0.0
C455 C 0.66018 0.17068 0.51506 0.0
C456 C 0.67382 0.14133 0.49164 0.0
C457 C 0.67708 0.17663 0.55159 0.0
C458 C 0.7073 0.15277 0.56629 0.0
H459 H 0.63855 0.1909 0.50436 0.0
H460 H 0.66766 0.20108 0.56798 0.0
S461 S 0.74868 0.06833 0.51795 0.0
N462 N 0.71616 0.08579 0.48669 0.0
N463 N 0.7469 0.09625 0.55584 0.0
C464 C 0.71852 0.12133 0.54416 0.0
C465 C 0.70208 0.11583 0.50665 0.0
C466 C 0.23445 0.35135 0.53604 0.0
C467 C 0.20562 0.37642 0.55089 0.0
C468 C 0.25313 0.35799 0.50008 0.0
C469 C 0.24285 0.38943 0.47729 0.0
H470 H 0.24187 0.32574 0.552 0.0
H471 H 0.27395 0.33711 0.48943 0.0
S472 S 0.17205 0.46558 0.50399 0.0
N473 N 0.17032 0.43572 0.54101 0.0
N474 N 0.20449 0.44766 0.47303 0.0
C475 C 0.21554 0.41573 0.49233 0.0
C476 C 0.19721 0.40941 0.52925 0.0
C477 C -0.03554 0.74636 0.82299 0.0
C478 C -0.02632 0.72748 0.85672 0.0
C479 C 0.94271 0.77999 0.8227 0.0
C480 C 0.92834 0.79618 0.85608 0.0
H481 H -0.02515 0.73561 0.79627 0.0
H482 H 0.9364 0.79286 0.79571 0.0
S483 S 0.94388 0.75815 0.95223 0.0
N484 N -0.03281 0.72778 0.92473 0.0
N485 N 0.9247 0.79065 0.92411 0.0
C486 C 0.93696 0.77761 0.89019 0.0
C487 C -0.03999 0.74343 0.89053 0.0
C488 C -0.04266 0.30396 0.63868 0.0
C489 C -0.00109 0.29046 0.64174 0.0
C490 C 0.91688 0.27668 0.64079 0.0
C491 C 0.91693 0.23535 0.64738 0.0
H492 H -0.0439 0.33594 0.63641 0.0
H493 H 0.88545 0.28847 0.64014 0.0
S494 S 0.01705 0.18472 0.6547 0.0
N495 N 0.03797 0.23292 0.64853 0.0
N496 N -0.0383 0.18184 0.65416 0.0
C497 C -0.04174 0.22126 0.64854 0.0
C498 C -0.00059 0.24884 0.64527 0.0
C499 C 0.47112 0.24704 0.32106 0.0
C500 C 0.4835 0.23239 0.35589 0.0
C501 C 0.44591 0.27837 0.31865 0.0
C502 C 0.43125 0.29644 0.35095 0.0
H503 H 0.48164 0.23476 0.29506 0.0
H504 H 0.43749 0.28811 0.29094 0.0
S505 S 0.45371 0.26906 0.44929 0.0
N506 N 0.47901 0.2384 0.42373 0.0
N507 N 0.43049 0.29699 0.41919 0.0
C508 C 0.44282 0.28194 0.38614 0.0
C509 C 0.46916 0.25006 0.38861 0.0
C510 C 0.57357 0.52272 0.71916 0.0
C511 C 0.56222 0.55485 0.74037 0.0
C512 C 0.58149 0.487 0.73651 0.0
C513 C 0.57946 0.48242 0.7758 0.0
H514 H 0.57638 0.52517 0.68892 0.0
H515 H 0.59003 0.46303 0.719 0.0
S516 S 0.55123 0.55757 0.84413 0.0
N517 N 0.54895 0.57958 0.80288 0.0
N518 N 0.56481 0.51284 0.83535 0.0
C519 C 0.56819 0.51429 0.79734 0.0
C520 C 0.55926 0.55035 0.77966 0.0
C521 C 0.31853 0.03991 0.73286 0.0
C522 C 0.32017 0.04495 0.77207 0.0
C523 C 0.32607 1.00376 0.7162 0.0
C524 C 0.33682 0.9718 0.73809 0.0
H525 H 0.31068 0.06385 0.71488 0.0
H526 H 0.32366 1.0009 0.68598 0.0
S527 S 0.34609 0.97013 0.84197 0.0
N528 N 0.33333 0.01501 0.83231 0.0
N529 N 0.3487 0.94757 0.80112 0.0
C530 C 0.3392 0.97671 0.77732 0.0
C531 C 0.33051 1.01313 0.79429 0.0
C532 C 0.43421 0.24654 0.82949 0.0
C533 C 0.41305 0.23126 0.86292 0.0
C534 C 0.47135 0.27747 0.83001 0.0
C535 C 0.48941 0.29401 0.864 0.0
H536 H 0.42137 0.23528 0.80247 0.0
H537 H 0.48647 0.28794 0.80343 0.0
S538 S 0.44717 0.26416 0.95949 0.0
N539 N 0.41297 0.23479 0.93109 0.0
N540 N 0.48377 0.29261 0.93209 0.0
C541 C 0.46905 0.27875 0.89775 0.0
C542 C 0.43065 0.24749 0.8972 0.0
C543 C 0.32764 0.56159 0.30106 0.0
C544 C 0.33068 0.56254 0.26165 0.0
C545 C 0.33002 0.52611 0.32128 0.0
C546 C 0.33714 0.49067 0.30295 0.0
H547 H 0.32138 0.58799 0.31632 0.0
H548 H 0.32529 0.52614 0.35141 0.0
S549 S 0.35062 0.47817 0.2004 0.0
N550 N 0.34285 0.52547 0.20517 0.0
N551 N 0.34913 0.45917 0.24326 0.0
C552 C 0.34243 0.49176 0.26372 0.0
C553 C 0.33868 0.52758 0.24303 0.0
C554 C 0.55805 0.02093 0.3094 0.0
C555 C 0.59779 0.04932 0.31197 0.0
C556 C 0.55639 0.98613 0.28727 0.0
C557 C 0.59393 0.9793 0.266 0.0
H558 H 0.52838 0.02525 0.32512 0.0
H559 H 0.52537 0.96456 0.28656 0.0
S560 S 0.70522 0.04564 0.26178 0.0
N561 N 0.67527 0.06879 0.2909 0.0
N562 N 0.67155 1.00424 0.24841 0.0
C563 C 0.63345 1.00799 0.26767 0.0
C564 C 0.63553 0.04277 0.29091 0.0
C565 C 0.46899 0.78079 0.12518 0.0
C566 C 0.47496 0.81298 0.15115 0.0
C567 C 0.43053 0.75085 0.12628 0.0
C568 C 0.39708 0.75236 0.15329 0.0
H569 H 0.49534 0.77722 0.10536 0.0
H570 H 0.42798 0.72552 0.10719 0.0
S571 S 0.392 0.83289 0.22313 0.0
N572 N 0.44048 0.84678 0.20126 0.0
N573 N 0.36883 0.79008 0.20337 0.0
C574 C 0.40072 0.78564 0.17734 0.0
C575 C 0.43947 0.81622 0.17616 0.0
loop_
_geom_bond_atom_site_label_1
_geom_bond_atom_site_label_2
_geom_bond_distance
_geom_bond_site_symmetry_2
_ccdc_geom_bond_type
O0 Cd1 2.223 . S
O0 C8 1.315 . S
Cd1 O0 2.223 . S
Cd1 O4 2.297 . S
Cd1 O5 2.439 . S
Cd1 O11 2.240 . S
Cd2 O3 2.240 . S
Cd2 O10 2.223 . S
Cd2 O12 2.297 . S
Cd2 O13 2.439 . S
O3 Cd2 2.240 . S
O3 C8 1.279 . S
O4 Cd1 2.297 . S
O4 C6 1.247 . S
O5 Cd1 2.439 . S
O5 C6 1.208 . S
C6 O4 1.247 . S
C6 O5 1.208 . S
C7 O12 1.247 . S
C7 O13 1.208 . S
C8 O0 1.315 . S
C8 O3 1.279 . S
C9 O10 1.315 . S
C9 O11 1.279 . S
O10 Cd2 2.223 . S
O10 C9 1.315 . S
O11 Cd1 2.240 . S
O11 C9 1.279 . S
O12 Cd2 2.297 . S
O12 C7 1.247 . S
O13 Cd2 2.439 . S
O13 C7 1.208 . S
O14 Cd15 2.223 . S
O14 C22 1.315 . S
Cd15 O14 2.223 . S
Cd15 O18 2.297 . S
Cd15 O19 2.439 . S
Cd15 O25 2.240 . S
Cd16 O17 2.240 . S
Cd16 O24 2.223 . S
Cd16 O26 2.297 . S
Cd16 O27 2.439 . S
O17 Cd16 2.240 . S
O17 C22 1.279 . S
O18 Cd15 2.297 . S
O18 C20 1.247 . S
O19 Cd15 2.439 . S
O19 C20 1.208 . S
C20 O18 1.247 . S
C20 O19 1.208 . S
C21 O26 1.247 . S
C21 O27 1.208 . S
C22 O14 1.315 . S
C22 O17 1.279 . S
C23 O24 1.315 . S
C23 O25 1.279 . S
O24 Cd16 2.223 . S
O24 C23 1.315 . S
O25 Cd15 2.240 . S
O25 C23 1.279 . S
O26 Cd16 2.297 . S
O26 C21 1.247 . S
O27 Cd16 2.439 . S
O27 C21 1.208 . S
O28 Cd29 2.223 . S
O28 C36 1.315 . S
Cd29 O28 2.223 . S
Cd29 O32 2.297 . S
Cd29 O33 2.439 . S
Cd29 O39 2.240 . S
Cd30 O31 2.240 . S
Cd30 O38 2.223 . S
Cd30 O40 2.297 . S
Cd30 O41 2.439 . S
O31 Cd30 2.240 . S
O31 C36 1.279 . S
O32 Cd29 2.297 . S
O32 C34 1.247 . S
O33 Cd29 2.439 . S
O33 C34 1.208 . S
C34 O32 1.247 . S
C34 O33 1.208 . S
C35 O40 1.247 . S
C35 O41 1.208 . S
C36 O28 1.315 . S
C36 O31 1.279 . S
C37 O38 1.315 . S
C37 O39 1.279 . S
O38 Cd30 2.223 . S
O38 C37 1.315 . S
O39 Cd29 2.240 . S
O39 C37 1.279 . S
O40 Cd30 2.297 . S
O40 C35 1.247 . S
O41 Cd30 2.439 . S
O41 C35 1.208 . S
O42 Cd43 2.223 . S
O42 C50 1.315 . S
Cd43 O42 2.223 . S
Cd43 O46 2.297 . S
Cd43 O47 2.439 . S
Cd43 O53 2.240 . S
Cd44 O45 2.240 . S
Cd44 O52 2.223 . S
Cd44 O54 2.297 . S
Cd44 O55 2.439 . S
O45 Cd44 2.240 . S
O45 C50 1.279 . S
O46 Cd43 2.297 . S
O46 C48 1.247 . S
O47 Cd43 2.439 . S
O47 C48 1.208 . S
C48 O46 1.247 . S
C48 O47 1.208 . S
C49 O54 1.247 . S
C49 O55 1.208 . S
C50 O42 1.315 . S
C50 O45 1.279 . S
C51 O52 1.315 . S
C51 O53 1.279 . S
O52 Cd44 2.223 . S
O52 C51 1.315 . S
O53 Cd43 2.240 . S
O53 C51 1.279 . S
O54 Cd44 2.297 . S
O54 C49 1.247 . S
O55 Cd44 2.439 . S
O55 C49 1.208 . S
O56 Cd57 2.223 . S
O56 C64 1.315 . S
Cd57 O56 2.223 . S
Cd57 O60 2.297 . S
Cd57 O61 2.439 . S
Cd57 O67 2.240 . S
Cd58 O59 2.240 . S
Cd58 O66 2.223 . S
Cd58 O68 2.297 . S
Cd58 O69 2.439 . S
O59 Cd58 2.240 . S
O59 C64 1.279 . S
O60 Cd57 2.297 . S
O60 C62 1.247 . S
O61 Cd57 2.439 . S
O61 C62 1.208 . S
C62 O60 1.247 . S
C62 O61 1.208 . S
C63 O68 1.247 . S
C63 O69 1.208 . S
C64 O56 1.315 . S
C64 O59 1.279 . S
C65 O66 1.315 . S
C65 O67 1.279 . S
O66 Cd58 2.223 . S
O66 C65 1.315 . S
O67 Cd57 2.240 . S
O67 C65 1.279 . S
O68 Cd58 2.297 . S
O68 C63 1.247 . S
O69 Cd58 2.439 . S
O69 C63 1.208 . S
O70 Cd71 2.223 . S
O70 C78 1.315 . S
Cd71 O70 2.223 . S
Cd71 O74 2.297 . S
Cd71 O75 2.439 . S
Cd71 O81 2.240 . S
Cd72 O73 2.240 . S
Cd72 O80 2.223 . S
Cd72 O82 2.297 . S
Cd72 O83 2.439 . S
O73 Cd72 2.240 . S
O73 C78 1.279 . S
O74 Cd71 2.297 . S
O74 C76 1.247 . S
O75 Cd71 2.439 . S
O75 C76 1.208 . S
C76 O74 1.247 . S
C76 O75 1.208 . S
C77 O82 1.247 . S
C77 O83 1.208 . S
C78 O70 1.315 . S
C78 O73 1.279 . S
C79 O80 1.315 . S
C79 O81 1.279 . S
O80 Cd72 2.223 . S
O80 C79 1.315 . S
O81 Cd71 2.240 . S
O81 C79 1.279 . S
O82 Cd72 2.297 . S
O82 C77 1.247 . S
O83 Cd72 2.439 . S
O83 C77 1.208 . S
O84 Cd85 2.223 . S
O84 C92 1.315 . S
Cd85 O84 2.223 . S
Cd85 O88 2.297 . S
Cd85 O89 2.439 . S
Cd85 O95 2.240 . S
Cd86 O87 2.240 . S
Cd86 O94 2.223 . S
Cd86 O96 2.297 . S
Cd86 O97 2.439 . S
O87 Cd86 2.240 . S
O87 C92 1.279 . S
O88 Cd85 2.297 . S
O88 C90 1.247 . S
O89 Cd85 2.439 . S
O89 C90 1.208 . S
C90 O88 1.247 . S
C90 O89 1.208 . S
C91 O96 1.247 . S
C91 O97 1.208 . S
C92 O84 1.315 . S
C92 O87 1.279 . S
C93 O94 1.315 . S
C93 O95 1.279 . S
O94 Cd86 2.223 . S
O94 C93 1.315 . S
O95 Cd85 2.240 . S
O95 C93 1.279 . S
O96 Cd86 2.297 . S
O96 C91 1.247 . S
O97 Cd86 2.439 . S
O97 C91 1.208 . S
O98 Cd99 2.223 . S
O98 C106 1.315 . S
Cd99 O98 2.223 . S
Cd99 O102 2.297 . S
Cd99 O103 2.439 . S
Cd99 O109 2.240 . S
Cd100 O101 2.240 . S
Cd100 O108 2.223 . S
Cd100 O110 2.297 . S
Cd100 O111 2.439 . S
O101 Cd100 2.240 . S
O101 C106 1.279 . S
O102 Cd99 2.297 . S
O102 C104 1.247 . S
O103 Cd99 2.439 . S
O103 C104 1.208 . S
C104 O102 1.247 . S
C104 O103 1.208 . S
C105 O110 1.247 . S
C105 O111 1.208 . S
C106 O98 1.315 . S
C106 O101 1.279 . S
C107 O108 1.315 . S
C107 O109 1.279 . S
O108 Cd100 2.223 . S
O108 C107 1.315 . S
O109 Cd99 2.240 . S
O109 C107 1.279 . S
O110 Cd100 2.297 . S
O110 C105 1.247 . S
O111 Cd100 2.439 . S
O111 C105 1.208 . S
O112 Cd113 2.223 . S
O112 C120 1.315 . S
Cd113 O112 2.223 . S
Cd113 O116 2.297 . S
Cd113 O117 2.439 . S
Cd113 O123 2.240 . S
Cd114 O115 2.240 . S
Cd114 O122 2.223 . S
Cd114 O124 2.297 . S
Cd114 O125 2.439 . S
O115 Cd114 2.240 . S
O115 C120 1.279 . S
O116 Cd113 2.297 . S
O116 C118 1.247 . S
O117 Cd113 2.439 . S
O117 C118 1.208 . S
C118 O116 1.247 . S
C118 O117 1.208 . S
C119 O124 1.247 . S
C119 O125 1.208 . S
C120 O112 1.315 . S
C120 O115 1.279 . S
C121 O122 1.315 . S
C121 O123 1.279 . S
O122 Cd114 2.223 . S
O122 C121 1.315 . S
O123 Cd113 2.240 . S
O123 C121 1.279 . S
O124 Cd114 2.297 . S
O124 C119 1.247 . S
O125 Cd114 2.439 . S
O125 C119 1.208 . S
O126 Cd127 2.223 . S
O126 C134 1.315 . S
Cd127 O126 2.223 . S
Cd127 O130 2.297 . S
Cd127 O131 2.439 . S
Cd127 O137 2.240 . S
Cd128 O129 2.240 . S
Cd128 O136 2.223 . S
Cd128 O138 2.297 . S
Cd128 O139 2.439 . S
O129 Cd128 2.240 . S
O129 C134 1.279 . S
O130 Cd127 2.297 . S
O130 C132 1.247 . S
O131 Cd127 2.439 . S
O131 C132 1.208 . S
C132 O130 1.247 . S
C132 O131 1.208 . S
C133 O138 1.247 . S
C133 O139 1.208 . S
C134 O126 1.315 . S
C134 O129 1.279 . S
C135 O136 1.315 . S
C135 O137 1.279 . S
O136 Cd128 2.223 . S
O136 C135 1.315 . S
O137 Cd127 2.240 . S
O137 C135 1.279 . S
O138 Cd128 2.297 . S
O138 C133 1.247 . S
O139 Cd128 2.439 . S
O139 C133 1.208 . S
O140 Cd141 2.223 . S
O140 C148 1.315 . S
Cd141 O140 2.223 . S
Cd141 O144 2.297 . S
Cd141 O145 2.439 . S
Cd141 O151 2.240 . S
Cd142 O143 2.240 . S
Cd142 O150 2.223 . S
Cd142 O152 2.297 . S
Cd142 O153 2.439 . S
O143 Cd142 2.240 . S
O143 C148 1.279 . S
O144 Cd141 2.297 . S
O144 C146 1.247 . S
O145 Cd141 2.439 . S
O145 C146 1.208 . S
C146 O144 1.247 . S
C146 O145 1.208 . S
C147 O152 1.247 . S
C147 O153 1.208 . S
C148 O140 1.315 . S
C148 O143 1.279 . S
C149 O150 1.315 . S
C149 O151 1.279 . S
O150 Cd142 2.223 . S
O150 C149 1.315 . S
O151 Cd141 2.240 . S
O151 C149 1.279 . S
O152 Cd142 2.297 . S
O152 C147 1.247 . S
O153 Cd142 2.439 . S
O153 C147 1.208 . S
O154 Cd155 2.223 . S
O154 C162 1.315 . S
Cd155 O154 2.223 . S
Cd155 O158 2.297 . S
Cd155 O159 2.439 . S
Cd155 O165 2.240 . S
Cd156 O157 2.240 . S
Cd156 O164 2.223 . S
Cd156 O166 2.297 . S
Cd156 O167 2.439 . S
O157 Cd156 2.240 . S
O157 C162 1.279 . S
O158 Cd155 2.297 . S
O158 C160 1.247 . S
O159 Cd155 2.439 . S
O159 C160 1.208 . S
C160 O158 1.247 . S
C160 O159 1.208 . S
C161 O166 1.247 . S
C161 O167 1.208 . S
C162 O154 1.315 . S
C162 O157 1.279 . S
C163 O164 1.315 . S
C163 O165 1.279 . S
O164 Cd156 2.223 . S
O164 C163 1.315 . S
O165 Cd155 2.240 . S
O165 C163 1.279 . S
O166 Cd156 2.297 . S
O166 C161 1.247 . S
O167 Cd156 2.439 . S
O167 C161 1.208 . S
O168 Cd169 2.223 . S
O168 C176 1.315 . S
Cd169 O168 2.223 . S
Cd169 O172 2.297 . S
Cd169 O173 2.439 . S
Cd169 O179 2.240 . S
Cd170 O171 2.240 . S
Cd170 O178 2.223 . S
Cd170 O180 2.297 . S
Cd170 O181 2.439 . S
O171 Cd170 2.240 . S
O171 C176 1.279 . S
O172 Cd169 2.297 . S
O172 C174 1.247 . S
O173 Cd169 2.439 . S
O173 C174 1.208 . S
C174 O172 1.247 . S
C174 O173 1.208 . S
C175 O180 1.247 . S
C175 O181 1.208 . S
C176 O168 1.315 . S
C176 O171 1.279 . S
C177 O178 1.315 . S
C177 O179 1.279 . S
O178 Cd170 2.223 . S
O178 C177 1.315 . S
O179 Cd169 2.240 . S
O179 C177 1.279 . S
O180 Cd170 2.297 . S
O180 C175 1.247 . S
O181 Cd170 2.439 . S
O181 C175 1.208 . S
O182 Cd183 2.223 . S
O182 C190 1.315 . S
Cd183 O182 2.223 . S
Cd183 O186 2.297 . S
Cd183 O187 2.439 . S
Cd183 O193 2.240 . S
Cd184 O185 2.240 . S
Cd184 O192 2.223 . S
Cd184 O194 2.297 . S
Cd184 O195 2.439 . S
O185 Cd184 2.240 . S
O185 C190 1.279 . S
O186 Cd183 2.297 . S
O186 C188 1.247 . S
O187 Cd183 2.439 . S
O187 C188 1.208 . S
C188 O186 1.247 . S
C188 O187 1.208 . S
C189 O194 1.247 . S
C189 O195 1.208 . S
C190 O182 1.315 . S
C190 O185 1.279 . S
C191 O192 1.315 . S
C191 O193 1.279 . S
O192 Cd184 2.223 . S
O192 C191 1.315 . S
O193 Cd183 2.240 . S
O193 C191 1.279 . S
O194 Cd184 2.297 . S
O194 C189 1.247 . S
O195 Cd184 2.439 . S
O195 C189 1.208 . S
O196 Cd197 2.223 . S
O196 C204 1.315 . S
Cd197 O196 2.223 . S
Cd197 O200 2.297 . S
Cd197 O201 2.439 . S
Cd197 O207 2.240 . S
Cd198 O199 2.240 . S
Cd198 O206 2.223 . S
Cd198 O208 2.297 . S
Cd198 O209 2.439 . S
O199 Cd198 2.240 . S
O199 C204 1.279 . S
O200 Cd197 2.297 . S
O200 C202 1.247 . S
O201 Cd197 2.439 . S
O201 C202 1.208 . S
C202 O200 1.247 . S
C202 O201 1.208 . S
C203 O208 1.247 . S
C203 O209 1.208 . S
C204 O196 1.315 . S
C204 O199 1.279 . S
C205 O206 1.315 . S
C205 O207 1.279 . S
O206 Cd198 2.223 . S
O206 C205 1.315 . S
O207 Cd197 2.240 . S
O207 C205 1.279 . S
O208 Cd198 2.297 . S
O208 C203 1.247 . S
O209 Cd198 2.439 . S
O209 C203 1.208 . S
O210 Cd211 2.223 . S
O210 C218 1.315 . S
Cd211 O210 2.223 . S
Cd211 O214 2.297 . S
Cd211 O215 2.439 . S
Cd211 O221 2.240 . S
Cd212 O213 2.240 . S
Cd212 O220 2.223 . S
Cd212 O222 2.297 . S
Cd212 O223 2.439 . S
O213 Cd212 2.240 . S
O213 C218 1.279 . S
O214 Cd211 2.297 . S
O214 C216 1.247 . S
O215 Cd211 2.439 . S
O215 C216 1.208 . S
C216 O214 1.247 . S
C216 O215 1.208 . S
C217 O222 1.247 . S
C217 O223 1.208 . S
C218 O210 1.315 . S
C218 O213 1.279 . S
C219 O220 1.315 . S
C219 O221 1.279 . S
O220 Cd212 2.223 . S
O220 C219 1.315 . S
O221 Cd211 2.240 . S
O221 C219 1.279 . S
O222 Cd212 2.297 . S
O222 C217 1.247 . S
O223 Cd212 2.439 . S
O223 C217 1.208 . S
C224 C225 1.369 . S
C224 C226 1.419 . S
C224 H228 0.930 . S
C225 C224 1.369 . S
C225 C234 1.429 . S
C226 C224 1.419 . S
C226 C227 1.363 . S
C226 H229 0.929 . S
C227 C226 1.363 . S
C227 C233 1.428 . S
H228 C224 0.930 . S
H229 C226 0.929 . S
S230 N231 1.613 . S
S230 N232 1.610 . S
N231 S230 1.613 . S
N231 C234 1.350 . S
N232 S230 1.610 . S
N232 C233 1.351 . S
C233 C227 1.428 . S
C233 N232 1.351 . S
C233 C234 1.434 . S
C234 C225 1.429 . S
C234 N231 1.350 . S
C234 C233 1.434 . S
C235 C236 1.369 . S
C235 C237 1.419 . S
C235 H239 0.930 . S
C236 C235 1.369 . S
C236 C245 1.429 . S
C237 C235 1.419 . S
C237 C238 1.363 . S
C237 H240 0.929 . S
C238 C237 1.363 . S
C238 C244 1.428 . S
H239 C235 0.930 . S
H240 C237 0.929 . S
S241 N242 1.613 . S
S241 N243 1.610 . S
N242 S241 1.613 . S
N242 C245 1.350 . S
N243 S241 1.610 . S
N243 C244 1.351 . S
C244 C238 1.428 . S
C244 N243 1.351 . S
C244 C245 1.434 . S
C245 C236 1.429 . S
C245 N242 1.350 . S
C245 C244 1.434 . S
C246 C247 1.369 . S
C246 C248 1.419 . S
C246 H250 0.930 . S
C247 C246 1.369 . S
C247 C256 1.429 . S
C248 C246 1.419 . S
C248 C249 1.363 . S
C248 H251 0.929 . S
C249 C248 1.363 . S
C249 C255 1.428 . S
H250 C246 0.930 . S
H251 C248 0.929 . S
S252 N253 1.613 . S
S252 N254 1.610 . S
N253 S252 1.613 . S
N253 C256 1.350 . S
N254 S252 1.610 . S
N254 C255 1.351 . S
C255 C249 1.428 . S
C255 N254 1.351 . S
C255 C256 1.434 . S
C256 C247 1.429 . S
C256 N253 1.350 . S
C256 C255 1.434 . S
C257 C258 1.369 . S
C257 C259 1.419 . S
C257 H261 0.930 . S
C258 C257 1.369 . S
C258 C267 1.429 . S
C259 C257 1.419 . S
C259 C260 1.363 . S
C259 H262 0.929 . S
C260 C259 1.363 . S
C260 C266 1.428 . S
H261 C257 0.930 . S
H262 C259 0.929 . S
S263 N264 1.613 . S
S263 N265 1.610 . S
N264 S263 1.613 . S
N264 C267 1.350 . S
N265 S263 1.610 . S
N265 C266 1.351 . S
C266 C260 1.428 . S
C266 N265 1.351 . S
C266 C267 1.434 . S
C267 C258 1.429 . S
C267 N264 1.350 . S
C267 C266 1.434 . S
C268 C269 1.369 . S
C268 C270 1.419 . S
C268 H272 0.930 . S
C269 C268 1.369 . S
C269 C278 1.429 . S
C270 C268 1.419 . S
C270 C271 1.363 . S
C270 H273 0.929 . S
C271 C270 1.363 . S
C271 C277 1.428 . S
H272 C268 0.930 . S
H273 C270 0.929 . S
S274 N275 1.613 . S
S274 N276 1.610 . S
N275 S274 1.613 . S
N275 C278 1.350 . S
N276 S274 1.610 . S
N276 C277 1.351 . S
C277 C271 1.428 . S
C277 N276 1.351 . S
C277 C278 1.434 . S
C278 C269 1.429 . S
C278 N275 1.350 . S
C278 C277 1.434 . S
C279 C280 1.369 . S
C279 C281 1.419 . S
C279 H283 0.930 . S
C280 C279 1.369 . S
C280 C289 1.429 . S
C281 C279 1.419 . S
C281 C282 1.363 . S
C281 H284 0.929 . S
C282 C281 1.363 . S
C282 C288 1.428 . S
H283 C279 0.930 . S
H284 C281 0.929 . S
S285 N286 1.613 . S
S285 N287 1.610 . S
N286 S285 1.613 . S
N286 C289 1.350 . S
N287 S285 1.610 . S
N287 C288 1.351 . S
C288 C282 1.428 . S
C288 N287 1.351 . S
C288 C289 1.434 . S
C289 C280 1.429 . S
C289 N286 1.350 . S
C289 C288 1.434 . S
C290 C291 1.369 . S
C290 C292 1.419 . S
C290 H294 0.930 . S
C291 C290 1.369 . S
C291 C300 1.429 . S
C292 C290 1.419 . S
C292 C293 1.363 . S
C292 H295 0.929 . S
C293 C292 1.363 . S
C293 C299 1.428 . S
H294 C290 0.930 . S
H295 C292 0.929 . S
S296 N297 1.613 . S
S296 N298 1.610 . S
N297 S296 1.613 . S
N297 C300 1.350 . S
N298 S296 1.610 . S
N298 C299 1.351 . S
C299 C293 1.428 . S
C299 N298 1.351 . S
C299 C300 1.434 . S
C300 C291 1.429 . S
C300 N297 1.350 . S
C300 C299 1.434 . S
C301 C302 1.369 . S
C301 C303 1.419 . S
C301 H305 0.930 . S
C302 C301 1.369 . S
C302 C311 1.429 . S
C303 C301 1.419 . S
C303 C304 1.363 . S
C303 H306 0.929 . S
C304 C303 1.363 . S
C304 C310 1.428 . S
H305 C301 0.930 . S
H306 C303 0.929 . S
S307 N308 1.613 . S
S307 N309 1.610 . S
N308 S307 1.613 . S
N308 C311 1.350 . S
N309 S307 1.610 . S
N309 C310 1.351 . S
C310 C304 1.428 . S
C310 N309 1.351 . S
C310 C311 1.434 . S
C311 C302 1.429 . S
C311 N308 1.350 . S
C311 C310 1.434 . S
C312 C313 1.369 . S
C312 C314 1.419 1_565 S
C312 H316 0.930 . S
C313 C312 1.369 . S
C313 C322 1.429 1_565 S
C314 C312 1.419 1_545 S
C314 C315 1.363 . S
C314 H317 0.929 . S
C315 C314 1.363 . S
C315 C321 1.428 . S
H316 C312 0.930 . S
H317 C314 0.929 . S
S318 N319 1.613 1_545 S
S318 N320 1.610 . S
N319 S318 1.613 1_565 S
N319 C322 1.350 1_565 S
N320 S318 1.610 . S
N320 C321 1.351 . S
C321 C315 1.428 . S
C321 N320 1.351 . S
C321 C322 1.434 . S
C322 C313 1.429 1_545 S
C322 N319 1.350 1_545 S
C322 C321 1.434 . S
C323 C324 1.369 . S
C323 C325 1.419 . S
C323 H327 0.930 . S
C324 C323 1.369 . S
C324 C333 1.429 . S
C325 C323 1.419 . S
C325 C326 1.363 . S
C325 H328 0.929 . S
C326 C325 1.363 . S
C326 C332 1.428 . S
H327 C323 0.930 . S
H328 C325 0.929 . S
S329 N330 1.613 . S
S329 N331 1.610 . S
N330 S329 1.613 . S
N330 C333 1.350 . S
N331 S329 1.610 . S
N331 C332 1.351 . S
C332 C326 1.428 . S
C332 N331 1.351 . S
C332 C333 1.434 . S
C333 C324 1.429 . S
C333 N330 1.350 . S
C333 C332 1.434 . S
C334 C335 1.369 . S
C334 C336 1.419 . S
C334 H338 0.930 . S
C335 C334 1.369 . S
C335 C344 1.429 . S
C336 C334 1.419 . S
C336 C337 1.363 1_556 S
C336 H339 0.929 . S
C337 C336 1.363 1_554 S
C337 C343 1.428 . S
H338 C334 0.930 . S
H339 C336 0.929 . S
S340 N341 1.629 . S
S340 N342 1.610 . S
N341 S340 1.629 . S
N341 C344 1.346 1_554 S
N342 S340 1.610 . S
N342 C343 1.351 . S
C343 C337 1.428 . S
C343 N342 1.351 . S
C343 C344 1.434 1_554 S
C344 C335 1.429 . S
C344 N341 1.346 1_556 S
C344 C343 1.434 1_556 S
C345 C346 1.369 . S
C345 C347 1.419 1_554 S
C345 H349 0.930 . S
C346 C345 1.369 . S
C346 C355 1.429 1_554 S
C347 C345 1.419 1_556 S
C347 C348 1.363 . S
C347 H350 0.929 . S
C348 C347 1.363 . S
C348 C354 1.428 . S
H349 C345 0.930 . S
H350 C347 0.929 . S
S351 N352 1.611 1_556 S
S351 N353 1.610 . S
N352 S351 1.611 1_554 S
N352 C355 1.349 1_554 S
N353 S351 1.610 . S
N353 C354 1.351 . S
C354 C348 1.428 . S
C354 N353 1.351 . S
C354 C355 1.434 . S
C355 C346 1.429 1_556 S
C355 N352 1.349 1_556 S
C355 C354 1.434 . S
C356 C357 1.369 . S
C356 C358 1.419 . S
C356 H360 0.930 . S
C357 C356 1.369 . S
C357 C366 1.429 . S
C358 C356 1.419 . S
C358 C359 1.363 . S
C358 H361 0.929 . S
C359 C358 1.363 . S
C359 C365 1.428 . S
H360 C356 0.930 . S
H361 C358 0.929 . S
S362 N363 1.613 . S
S362 N364 1.610 . S
N363 S362 1.613 . S
N363 C366 1.350 . S
N364 S362 1.610 . S
N364 C365 1.351 . S
C365 C359 1.428 . S
C365 N364 1.351 . S
C365 C366 1.434 . S
C366 C357 1.429 . S
C366 N363 1.350 . S
C366 C365 1.434 . S
C367 C368 1.369 . S
C367 C369 1.419 . S
C367 H371 0.930 . S
C368 C367 1.369 . S
C368 C377 1.429 . S
C369 C367 1.419 . S
C369 C370 1.363 . S
C369 H372 0.929 . S
C370 C369 1.363 . S
C370 C376 1.428 . S
H371 C367 0.930 . S
H372 C369 0.929 . S
S373 N374 1.613 . S
S373 N375 1.610 . S
N374 S373 1.613 . S
N374 C377 1.350 . S
N375 S373 1.610 . S
N375 C376 1.351 . S
C376 C370 1.428 . S
C376 N375 1.351 . S
C376 C377 1.434 . S
C377 C368 1.429 . S
C377 N374 1.350 . S
C377 C376 1.434 . S
C378 C379 1.369 . S
C378 C380 1.419 . S
C378 H382 0.930 . S
C379 C378 1.369 . S
C379 C388 1.429 1_655 S
C380 C378 1.419 . S
C380 C381 1.363 1_655 S
C380 H383 0.929 . S
C381 C380 1.363 1_455 S
C381 C387 1.428 . S
H382 C378 0.930 . S
H383 C380 0.929 . S
S384 N385 1.613 . S
S384 N386 1.610 . S
N385 S384 1.613 . S
N385 C388 1.350 . S
N386 S384 1.610 . S
N386 C387 1.351 . S
C387 C381 1.428 . S
C387 N386 1.351 . S
C387 C388 1.434 . S
C388 C379 1.429 1_455 S
C388 N385 1.350 . S
C388 C387 1.434 . S
C389 C390 1.369 . S
C389 C391 1.419 1_655 S
C389 H393 0.930 . S
C390 C389 1.369 . S
C390 C399 1.429 . S
C391 C389 1.419 1_455 S
C391 C392 1.363 . S
C391 H394 0.929 . S
C392 C391 1.363 . S
C392 C398 1.428 . S
H393 C389 0.930 . S
H394 C391 0.929 . S
S395 N396 1.613 1_455 S
S395 N397 1.610 . S
N396 S395 1.613 1_655 S
N396 C399 1.350 . S
N397 S395 1.610 . S
N397 C398 1.351 . S
C398 C392 1.428 . S
C398 N397 1.351 . S
C398 C399 1.434 1_455 S
C399 C390 1.429 . S
C399 N396 1.350 . S
C399 C398 1.434 1_655 S
C400 C401 1.369 . S
C400 C402 1.419 . S
C400 H404 0.930 . S
C401 C400 1.369 . S
C401 C410 1.429 . S
C402 C400 1.419 . S
C402 C403 1.363 . S
C402 H405 0.929 . S
C403 C402 1.363 . S
C403 C409 1.428 . S
H404 C400 0.930 . S
H405 C402 0.929 . S
S406 N407 1.613 . S
S406 N408 1.610 . S
N407 S406 1.613 . S
N407 C410 1.350 . S
N408 S406 1.610 . S
N408 C409 1.351 . S
C409 C403 1.428 . S
C409 N408 1.351 . S
C409 C410 1.434 . S
C410 C401 1.429 . S
C410 N407 1.350 . S
C410 C409 1.434 . S
C411 C412 1.369 1_565 S
C411 C413 1.419 . S
C411 H415 0.930 1_565 S
C412 C411 1.369 1_545 S
C412 C421 1.429 . S
C413 C411 1.419 . S
C413 C414 1.363 . S
C413 H416 0.929 . S
C414 C413 1.363 . S
C414 C420 1.428 . S
H415 C411 0.930 1_545 S
H416 C413 0.929 . S
S417 N418 1.613 . S
S417 N419 1.610 1_545 S
N418 S417 1.613 . S
N418 C421 1.350 . S
N419 S417 1.610 1_565 S
N419 C420 1.351 . S
C420 C414 1.428 . S
C420 N419 1.351 . S
C420 C421 1.434 1_565 S
C421 C412 1.429 . S
C421 N418 1.350 . S
C421 C420 1.434 1_545 S
C422 C423 1.369 . S
C422 C424 1.419 . S
C422 H426 0.930 . S
C423 C422 1.369 . S
C423 C432 1.429 . S
C424 C422 1.419 . S
C424 C425 1.363 . S
C424 H427 0.929 . S
C425 C424 1.363 . S
C425 C431 1.428 . S
H426 C422 0.930 . S
H427 C424 0.929 . S
S428 N429 1.613 . S
S428 N430 1.610 . S
N429 S428 1.613 . S
N429 C432 1.350 . S
N430 S428 1.610 . S
N430 C431 1.351 . S
C431 C425 1.428 . S
C431 N430 1.351 . S
C431 C432 1.434 . S
C432 C423 1.429 . S
C432 N429 1.350 . S
C432 C431 1.434 . S
C433 C434 1.369 . S
C433 C435 1.419 1_554 S
C433 H437 0.930 . S
C434 C433 1.369 . S
C434 C443 1.429 . S
C435 C433 1.419 1_556 S
C435 C436 1.363 . S
C435 H438 0.929 . S
C436 C435 1.363 . S
C436 C442 1.428 1_556 S
H437 C433 0.930 . S
H438 C435 0.929 . S
S439 N440 1.613 . S
S439 N441 1.619 . S
N440 S439 1.613 . S
N440 C443 1.350 . S
N441 S439 1.619 . S
N441 C442 1.353 . S
C442 C436 1.428 1_554 S
C442 N441 1.353 . S
C442 C443 1.434 . S
C443 C434 1.429 . S
C443 N440 1.350 . S
C443 C442 1.434 . S
C444 C445 1.369 . S
C444 C446 1.419 1_556 S
C444 H448 0.930 . S
C445 C444 1.369 . S
C445 C454 1.429 1_556 S
C446 C444 1.419 1_554 S
C446 C447 1.363 . S
C446 H449 0.929 . S
C447 C446 1.363 . S
C447 C453 1.428 . S
H448 C444 0.930 . S
H449 C446 0.929 . S
S450 N451 1.613 1_554 S
S450 N452 1.610 . S
N451 S450 1.613 1_556 S
N451 C454 1.350 1_556 S
N452 S450 1.610 . S
N452 C453 1.351 . S
C453 C447 1.428 . S
C453 N452 1.351 . S
C453 C454 1.434 . S
C454 C445 1.429 1_554 S
C454 N451 1.350 1_554 S
C454 C453 1.434 . S
C455 C456 1.369 . S
C455 C457 1.419 . S
C455 H459 0.930 . S
C456 C455 1.369 . S
C456 C465 1.429 . S
C457 C455 1.419 . S
C457 C458 1.363 . S
C457 H460 0.929 . S
C458 C457 1.363 . S
C458 C464 1.428 . S
H459 C455 0.930 . S
H460 C457 0.929 . S
S461 N462 1.613 . S
S461 N463 1.610 . S
N462 S461 1.613 . S
N462 C465 1.350 . S
N463 S461 1.610 . S
N463 C464 1.351 . S
C464 C458 1.428 . S
C464 N463 1.351 . S
C464 C465 1.434 . S
C465 C456 1.429 . S
C465 N462 1.350 . S
C465 C464 1.434 . S
C466 C467 1.369 . S
C466 C468 1.419 . S
C466 H470 0.930 . S
C467 C466 1.369 . S
C467 C476 1.429 . S
C468 C466 1.419 . S
C468 C469 1.363 . S
C468 H471 0.929 . S
C469 C468 1.363 . S
C469 C475 1.428 . S
H470 C466 0.930 . S
H471 C468 0.929 . S
S472 N473 1.613 . S
S472 N474 1.610 . S
N473 S472 1.613 . S
N473 C476 1.350 . S
N474 S472 1.610 . S
N474 C475 1.351 . S
C475 C469 1.428 . S
C475 N474 1.351 . S
C475 C476 1.434 . S
C476 C467 1.429 . S
C476 N473 1.350 . S
C476 C475 1.434 . S
C477 C478 1.369 1_655 S
C477 C479 1.419 . S
C477 H481 0.930 . S
C478 C477 1.369 1_455 S
C478 C487 1.429 . S
C479 C477 1.419 . S
C479 C480 1.363 . S
C479 H482 0.929 . S
C480 C479 1.363 . S
C480 C486 1.428 1_655 S
H481 C477 0.930 . S
H482 C479 0.929 . S
S483 N484 1.613 . S
S483 N485 1.610 . S
N484 S483 1.613 . S
N484 C487 1.350 . S
N485 S483 1.610 . S
N485 C486 1.351 . S
C486 C480 1.428 1_455 S
C486 N485 1.351 . S
C486 C487 1.434 . S
C487 C478 1.429 . S
C487 N484 1.350 . S
C487 C486 1.434 . S
C488 C489 1.367 . S
C488 C490 1.420 1_455 S
C488 H492 0.931 1_455 S
C489 C488 1.367 . S
C489 C498 1.429 . S
C490 C488 1.420 1_655 S
C490 C491 1.363 . S
C490 H493 0.929 . S
C491 C490 1.363 . S
C491 C497 1.428 1_655 S
H492 C488 0.931 1_655 S
H493 C490 0.929 . S
S494 N495 1.613 . S
S494 N496 1.610 . S
N495 S494 1.613 . S
N495 C498 1.350 . S
N496 S494 1.610 . S
N496 C497 1.351 . S
C497 C491 1.428 1_455 S
C497 N496 1.351 . S
C497 C498 1.434 . S
C498 C489 1.429 . S
C498 N495 1.350 . S
C498 C497 1.434 . S
C499 C500 1.369 . S
C499 C501 1.419 . S
C499 H503 0.930 . S
C500 C499 1.369 . S
C500 C509 1.429 . S
C501 C499 1.419 . S
C501 C502 1.363 . S
C501 H504 0.929 . S
C502 C501 1.363 . S
C502 C508 1.428 . S
H503 C499 0.930 . S
H504 C501 0.929 . S
S505 N506 1.613 . S
S505 N507 1.610 . S
N506 S505 1.613 . S
N506 C509 1.350 . S
N507 S505 1.610 . S
N507 C508 1.351 . S
C508 C502 1.428 . S
C508 N507 1.351 . S
C508 C509 1.434 . S
C509 C500 1.429 . S
C509 N506 1.350 . S
C509 C508 1.434 . S
C510 C511 1.369 . S
C510 C512 1.419 . S
C510 H514 0.930 . S
C511 C510 1.369 . S
C511 C520 1.429 . S
C512 C510 1.419 . S
C512 C513 1.363 . S
C512 H515 0.929 . S
C513 C512 1.363 . S
C513 C519 1.428 . S
H514 C510 0.930 . S
H515 C512 0.929 . S
S516 N517 1.613 . S
S516 N518 1.610 . S
N517 S516 1.613 . S
N517 C520 1.350 . S
N518 S516 1.610 . S
N518 C519 1.351 . S
C519 C513 1.428 . S
C519 N518 1.351 . S
C519 C520 1.434 . S
C520 C511 1.429 . S
C520 N517 1.350 . S
C520 C519 1.434 . S
C521 C522 1.369 . S
C521 C523 1.419 1_545 S
C521 H525 0.930 . S
C522 C521 1.369 . S
C522 C531 1.429 1_545 S
C523 C521 1.419 1_565 S
C523 C524 1.363 . S
C523 H526 0.929 . S
C524 C523 1.363 . S
C524 C530 1.428 . S
H525 C521 0.930 . S
H526 C523 0.929 . S
S527 N528 1.613 . S
S527 N529 1.610 . S
N528 S527 1.613 . S
N528 C531 1.350 . S
N529 S527 1.610 . S
N529 C530 1.351 . S
C530 C524 1.428 . S
C530 N529 1.351 . S
C530 C531 1.434 . S
C531 C522 1.429 1_565 S
C531 N528 1.350 . S
C531 C530 1.434 . S
C532 C533 1.369 . S
C532 C534 1.419 . S
C532 H536 0.930 . S
C533 C532 1.369 . S
C533 C542 1.429 . S
C534 C532 1.419 . S
C534 C535 1.363 . S
C534 H537 0.929 . S
C535 C534 1.363 . S
C535 C541 1.428 . S
H536 C532 0.930 . S
H537 C534 0.929 . S
S538 N539 1.613 . S
S538 N540 1.610 . S
N539 S538 1.613 . S
N539 C542 1.350 . S
N540 S538 1.610 . S
N540 C541 1.351 . S
C541 C535 1.428 . S
C541 N540 1.351 . S
C541 C542 1.434 . S
C542 C533 1.429 . S
C542 N539 1.350 . S
C542 C541 1.434 . S
C543 C544 1.369 . S
C543 C545 1.419 . S
C543 H547 0.930 . S
C544 C543 1.369 . S
C544 C553 1.429 . S
C545 C543 1.419 . S
C545 C546 1.363 . S
C545 H548 0.929 . S
C546 C545 1.363 . S
C546 C552 1.428 . S
H547 C543 0.930 . S
H548 C545 0.929 . S
S549 N550 1.613 . S
S549 N551 1.610 . S
N550 S549 1.613 . S
N550 C553 1.350 . S
N551 S549 1.610 . S
N551 C552 1.351 . S
C552 C546 1.428 . S
C552 N551 1.351 . S
C552 C553 1.434 . S
C553 C544 1.429 . S
C553 N550 1.350 . S
C553 C552 1.434 . S
C554 C555 1.369 . S
C554 C556 1.419 1_545 S
C554 H558 0.930 1_545 S
C555 C554 1.369 . S
C555 C564 1.429 . S
C556 C554 1.419 1_565 S
C556 C557 1.363 . S
C556 H559 0.929 . S
C557 C556 1.363 . S
C557 C563 1.428 1_565 S
H558 C554 0.930 1_565 S
H559 C556 0.929 . S
S560 N561 1.613 . S
S560 N562 1.610 . S
N561 S560 1.613 . S
N561 C564 1.350 . S
N562 S560 1.610 . S
N562 C563 1.351 . S
C563 C557 1.428 1_545 S
C563 N562 1.351 . S
C563 C564 1.434 . S
C564 C555 1.429 . S
C564 N561 1.350 . S
C564 C563 1.434 . S
C565 C566 1.369 . S
C565 C567 1.419 . S
C565 H569 0.930 . S
C566 C565 1.369 . S
C566 C575 1.429 . S
C567 C565 1.419 . S
C567 C568 1.363 . S
C567 H570 0.929 . S
C568 C567 1.363 . S
C568 C574 1.428 . S
H569 C565 0.930 . S
H570 C567 0.929 . S
S571 N572 1.613 . S
S571 N573 1.610 . S
N572 S571 1.613 . S
N572 C575 1.350 . S
N573 S571 1.610 . S
N573 C574 1.351 . S
C574 C568 1.428 . S
C574 N573 1.351 . S
C574 C575 1.434 . S
C575 C566 1.429 . S
C575 N572 1.350 . S
C575 C574 1.434 . S
C225 C9 1.570 . S
C227 C191 1.549 . S
C236 C23 1.571 . S
C238 C135 1.547 . S
C247 C205 1.351 . S
C249 C37 1.358 . S
C258 C51 1.359 . S
C260 C219 1.349 . S
C269 C65 1.571 . S
C271 C93 1.547 . S
C280 C149 1.573 . S
C282 C79 1.550 . S
C291 C163 1.358 . S
C293 C107 1.350 . S
C302 C121 1.349 . S
C304 C177 1.358 . S
C313 C35 1.401 . S
C315 C7 1.481 . S
C324 C21 1.480 . S
C326 C49 1.402 . S
C335 C174 1.433 . S
C337 C6 1.534 . S
C346 C20 1.538 . S
C348 C160 1.428 . S
C357 C62 1.540 . S
C359 C34 1.425 . S
C368 C146 1.535 . S
C370 C48 1.431 . S
C379 C22 2.144 . S
C381 C8 2.144 . S
C390 C50 1.551 . S
C392 C36 1.552 . S
C401 C148 2.144 . S
C403 C64 2.143 . S
C412 C104 1.618 . S
C414 C78 1.737 . S
C423 C92 1.738 . S
C425 C118 1.626 . S
C434 C217 1.663 . S
C436 C76 1.729 . S
C445 C90 1.726 . S
C447 C203 1.661 . S
C456 C132 1.727 . S
C458 C105 1.657 . S
C467 C119 1.659 . S
C469 C188 1.728 . S
C478 C91 1.143 . S
C480 C77 1.143 . S
C489 C120 1.818 . S
C491 C106 1.818 . S
C500 C133 1.143 . S
C502 C189 1.142 . S
C511 C147 1.480 . S
C513 C161 1.404 . S
C522 C175 1.411 . S
C524 C63 1.482 . S
C533 C176 1.552 . S
C535 C162 1.552 . S
C544 C202 1.628 . S
C546 C190 1.735 . S
C555 C134 1.735 . S
C557 C216 1.627 . S
C566 C218 1.817 . S
C568 C204 1.817 . S
