# Generated by pormake.
# Topology ukk, (4)-cn, num edge types: 1
# Building blocks:
#     Node 0, Type 0, BuildingBlock: QUQFOY_clean_sbu_1, # of connection points: 4
#     Node 1, Type 0, BuildingBlock: QUQFOY_clean_sbu_1, # of connection points: 4
#     Node 2, Type 0, BuildingBlock: QUQFOY_clean_sbu_1, # of connection points: 4
#     Node 3, Type 0, BuildingBlock: QUQFOY_clean_sbu_1, # of connection points: 4
#     Node 4, Type 0, BuildingBlock: QUQFOY_clean_sbu_1, # of connection points: 4
#     Node 5, Type 0, BuildingBlock: QUQFOY_clean_sbu_1, # of connection points: 4
#     Node 6, Type 0, BuildingBlock: QUQFOY_clean_sbu_1, # of connection points: 4
#     Node 7, Type 0, BuildingBlock: QUQFOY_clean_sbu_1, # of connection points: 4
#     Node 8, Type 0, BuildingBlock: QUQFOY_clean_sbu_1, # of connection points: 4
#     Node 9, Type 0, BuildingBlock: QUQFOY_clean_sbu_1, # of connection points: 4
#     Node 10, Type 0, BuildingBlock: QUQFOY_clean_sbu_1, # of connection points: 4
#     Node 11, Type 0, BuildingBlock: QUQFOY_clean_sbu_1, # of connection points: 4
#     Node 12, Type 0, BuildingBlock: QUQFOY_clean_sbu_1, # of connection points: 4
#     Node 13, Type 0, BuildingBlock: QUQFOY_clean_sbu_1, # of connection points: 4
#     Node 14, Type 0, BuildingBlock: QUQFOY_clean_sbu_1, # of connection points: 4
#     Node 15, Type 0, BuildingBlock: QUQFOY_clean_sbu_1, # of connection points: 4
#     Edge 16, Type (0, 0), BuildingBlock: UVAHIK_clean_linker_0, # of connection points: 2
#     Edge 17, Type (0, 0), BuildingBlock: UVAHIK_clean_linker_0, # of connection points: 2
#     Edge 18, Type (0, 0), BuildingBlock: UVAHIK_clean_linker_0, # of connection points: 2
#     Edge 19, Type (0, 0), BuildingBlock: UVAHIK_clean_linker_0, # of connection points: 2
#     Edge 20, Type (0, 0), BuildingBlock: UVAHIK_clean_linker_0, # of connection points: 2
#     Edge 21, Type (0, 0), BuildingBlock: UVAHIK_clean_linker_0, # of connection points: 2
#     Edge 22, Type (0, 0), BuildingBlock: UVAHIK_clean_linker_0, # of connection points: 2
#     Edge 23, Type (0, 0), BuildingBlock: UVAHIK_clean_linker_0, # of connection points: 2
#     Edge 24, Type (0, 0), BuildingBlock: UVAHIK_clean_linker_0, # of connection points: 2
#     Edge 25, Type (0, 0), BuildingBlock: UVAHIK_clean_linker_0, # of connection points: 2
#     Edge 26, Type (0, 0), BuildingBlock: UVAHIK_clean_linker_0, # of connection points: 2
#     Edge 27, Type (0, 0), BuildingBlock: UVAHIK_clean_linker_0, # of connection points: 2
#     Edge 28, Type (0, 0), BuildingBlock: UVAHIK_clean_linker_0, # of connection points: 2
#     Edge 29, Type (0, 0), BuildingBlock: UVAHIK_clean_linker_0, # of connection points: 2
#     Edge 30, Type (0, 0), BuildingBlock: UVAHIK_clean_linker_0, # of connection points: 2
#     Edge 31, Type (0, 0), BuildingBlock: UVAHIK_clean_linker_0, # of connection points: 2
#     Edge 32, Type (0, 0), BuildingBlock: UVAHIK_clean_linker_0, # of connection points: 2
#     Edge 33, Type (0, 0), BuildingBlock: UVAHIK_clean_linker_0, # of connection points: 2
#     Edge 34, Type (0, 0), BuildingBlock: UVAHIK_clean_linker_0, # of connection points: 2
#     Edge 35, Type (0, 0), BuildingBlock: UVAHIK_clean_linker_0, # of connection points: 2
#     Edge 36, Type (0, 0), BuildingBlock: UVAHIK_clean_linker_0, # of connection points: 2
#     Edge 37, Type (0, 0), BuildingBlock: UVAHIK_clean_linker_0, # of connection points: 2
#     Edge 38, Type (0, 0), BuildingBlock: UVAHIK_clean_linker_0, # of connection points: 2
#     Edge 39, Type (0, 0), BuildingBlock: UVAHIK_clean_linker_0, # of connection points: 2
#     Edge 40, Type (0, 0), BuildingBlock: UVAHIK_clean_linker_0, # of connection points: 2
#     Edge 41, Type (0, 0), BuildingBlock: UVAHIK_clean_linker_0, # of connection points: 2
#     Edge 42, Type (0, 0), BuildingBlock: UVAHIK_clean_linker_0, # of connection points: 2
#     Edge 43, Type (0, 0), BuildingBlock: UVAHIK_clean_linker_0, # of connection points: 2
#     Edge 44, Type (0, 0), BuildingBlock: UVAHIK_clean_linker_0, # of connection points: 2
#     Edge 45, Type (0, 0), BuildingBlock: UVAHIK_clean_linker_0, # of connection points: 2
#     Edge 46, Type (0, 0), BuildingBlock: UVAHIK_clean_linker_0, # of connection points: 2
#     Edge 47, Type (0, 0), BuildingBlock: UVAHIK_clean_linker_0, # of connection points: 2
# Relax obj value: 0.045
# Max RMSD: 0.183
# Mean RMSD: 0.183
data_MOF--net-ukk--node1-QUQFOY_clean_sbu_1--edge1-UVAHIK_clean_linker_0
_symmetry_space_group_name_H-M    P1
_symmetry_Int_Tables_number       1
_symmetry_cell_setting            triclinic
loop_
_symmetry_equiv_pos_as_xyz
'x, y, z'
_cell_length_a     66.193703
_cell_length_b     66.177411
_cell_length_c     30.639273
_cell_angle_alpha  90.004487
_cell_angle_beta   89.926653
_cell_angle_gamma 89.974787
loop_
_atom_site_label
_atom_site_type_symbol
_atom_site_fract_x
_atom_site_fract_y
_atom_site_fract_z
_atom_type_partial_charge
O0 O 0.33713 0.14717 0.1058 0.0
Cd1 Cd 0.35278 0.12104 0.09259 0.0
Cd2 Cd 0.34507 0.11557 0.17651 0.0
O3 O 0.32421 0.13872 0.16957 0.0
O4 O 0.34998 0.1182 0.028 0.0
O5 O 0.33548 0.09737 0.07496 0.0
C6 C 0.3376 0.10349 0.03515 0.0
C7 C 0.33905 0.08397 0.2076 0.0
C8 C 0.32531 0.15091 0.13751 0.0
C9 C 0.38815 0.1244 0.15049 0.0
O10 O 0.37479 0.12432 0.18032 0.0
O11 O 0.38312 0.12099 0.11102 0.0
O12 O 0.34008 0.10004 0.2314 0.0
O13 O 0.33992 0.08613 0.16569 0.0
O14 O 0.14523 0.67666 0.91187 0.0
Cd15 Cd 0.1186 0.66155 0.92314 0.0
Cd16 Cd 0.115 0.66819 0.83749 0.0
O17 O 0.13891 0.68806 0.84552 0.0
O18 O 0.11292 0.66566 0.98682 0.0
O19 O 0.09504 0.67996 0.93423 0.0
C20 C 0.09911 0.67838 0.97534 0.0
C21 C 0.08401 0.67504 0.80449 0.0
C22 C 0.1501 0.68751 0.87927 0.0
C23 C 0.122 0.62526 0.86684 0.0
O24 O 0.12262 0.63817 0.83616 0.0
O25 O 0.11829 0.63096 0.90581 0.0
O26 O 0.10026 0.67315 0.78148 0.0
O27 O 0.08571 0.67457 0.84649 0.0
O28 O 0.67569 0.86189 0.10677 0.0
Cd29 Cd 0.65965 0.88791 0.0947 0.0
Cd30 Cd 0.66692 0.89228 0.17984 0.0
O31 O 0.68741 0.86884 0.1725 0.0
O32 O 0.66272 0.89171 0.03025 0.0
O33 O 0.67676 0.91197 0.07892 0.0
C34 C 0.67487 0.90646 0.03866 0.0
C35 C 0.67283 0.92406 0.20995 0.0
C36 C 0.6869 0.85746 0.13902 0.0
C37 C 0.62392 0.8843 0.15259 0.0
O38 O 0.63711 0.884 0.18269 0.0
O39 O 0.62922 0.8878 0.11327 0.0
O40 O 0.6718 0.90817 0.23434 0.0
O41 O 0.67219 0.92156 0.16812 0.0
O42 O 0.86198 0.33271 0.91349 0.0
Cd43 Cd 0.88826 0.34826 0.92557 0.0
Cd44 Cd 0.89276 0.34081 0.841 0.0
O45 O 0.86966 0.31997 0.84907 0.0
O46 O 0.89214 0.34517 0.99 0.0
O47 O 0.91218 0.33091 0.94109 0.0
C48 C 0.9068 0.3329 0.98143 0.0
C49 C 0.92464 0.33521 0.8109 0.0
C50 C 0.85783 0.32104 0.88181 0.0
C51 C 0.88444 0.38382 0.86776 0.0
O52 O 0.88397 0.37055 0.83778 0.0
O53 O 0.88834 0.37863 0.90695 0.0
O54 O 0.90874 0.33582 0.78653 0.0
O55 O 0.92213 0.33612 0.85271 0.0
O56 O 0.33216 0.36248 0.16188 0.0
Cd57 Cd 0.34809 0.38852 0.17423 0.0
Cd58 Cd 0.34114 0.39279 0.08891 0.0
O59 O 0.32061 0.3694 0.096 0.0
O60 O 0.34493 0.39209 0.23873 0.0
O61 O 0.33084 0.41248 0.19037 0.0
C62 C 0.3327 0.40682 0.23054 0.0
C63 C 0.33548 0.42455 0.05847 0.0
C64 C 0.32103 0.35804 0.1295 0.0
C65 C 0.38403 0.38484 0.11685 0.0
O66 O 0.37095 0.38445 0.08654 0.0
O67 O 0.37859 0.38843 0.15605 0.0
O68 O 0.33648 0.40861 0.03423 0.0
O69 O 0.33595 0.42213 0.10034 0.0
O70 O 0.36224 0.6718 0.85163 0.0
Cd71 Cd 0.3892 0.65748 0.83928 0.0
Cd72 Cd 0.39424 0.6652 0.92372 0.0
O73 O 0.37031 0.68507 0.91535 0.0
O74 O 0.39526 0.6623 0.776 0.0
O75 O 0.41225 0.67659 0.83 0.0
C76 C 0.40861 0.67528 0.78867 0.0
C77 C 0.42507 0.67225 0.95745 0.0
C78 C 0.35814 0.68351 0.88334 0.0
C79 C 0.38745 0.62183 0.89691 0.0
O80 O 0.38682 0.63513 0.9268 0.0
O81 O 0.39067 0.62708 0.85747 0.0
O82 O 0.40867 0.67056 0.97999 0.0
O83 O 0.42362 0.67152 0.91544 0.0
O84 O 0.67263 0.64643 0.1653 0.0
Cd85 Cd 0.65717 0.62024 0.17897 0.0
Cd86 Cd 0.6647 0.6146 0.095 0.0
O87 O 0.68533 0.63796 0.10134 0.0
O88 O 0.66009 0.61761 0.24357 0.0
O89 O 0.67464 0.59671 0.19679 0.0
C90 C 0.67253 0.60293 0.23654 0.0
C91 C 0.67111 0.58297 0.06438 0.0
C92 C 0.68427 0.6502 0.13332 0.0
C93 C 0.62161 0.62324 0.12149 0.0
O94 O 0.63487 0.62308 0.09146 0.0
O95 O 0.62678 0.62001 0.16094 0.0
O96 O 0.66976 0.59893 0.04032 0.0
O97 O 0.67027 0.58527 0.10625 0.0
O98 O 0.64628 0.3316 0.86409 0.0
Cd99 Cd 0.62056 0.34805 0.8516 0.0
Cd100 Cd 0.61619 0.34108 0.93676 0.0
O101 O 0.63931 0.32017 0.93006 0.0
O102 O 0.61815 0.34567 0.78681 0.0
O103 O 0.5966 0.33141 0.83251 0.0
C104 C 0.60313 0.33358 0.79302 0.0
C105 C 0.58398 0.33565 0.96509 0.0
C106 C 0.65062 0.32042 0.89645 0.0
C107 C 0.62497 0.38384 0.90908 0.0
O108 O 0.62505 0.37075 0.93944 0.0
O109 O 0.62125 0.37848 0.86992 0.0
O110 O 0.59958 0.33644 0.99035 0.0
O111 O 0.58699 0.3363 0.9234 0.0
O112 O 0.83208 0.64711 0.61488 0.0
Cd113 Cd 0.84887 0.62204 0.59834 0.0
Cd114 Cd 0.84407 0.61551 0.68409 0.0
O115 O 0.82365 0.63917 0.68251 0.0
O116 O 0.84512 0.62053 0.5338 0.0
O117 O 0.83253 0.59786 0.57927 0.0
C118 C 0.8337 0.605 0.54007 0.0
C119 C 0.83832 0.5837 0.71447 0.0
C120 C 0.82236 0.65087 0.64971 0.0
C121 C 0.88607 0.62541 0.65209 0.0
O122 O 0.87385 0.6239 0.68394 0.0
O123 O 0.87971 0.62323 0.6131 0.0
O124 O 0.84059 0.59947 0.73877 0.0
O125 O 0.8379 0.58629 0.67264 0.0
O126 O 0.64801 0.17262 0.41717 0.0
Cd127 Cd 0.62146 0.15759 0.42991 0.0
Cd128 Cd 0.61627 0.16572 0.34605 0.0
O129 O 0.63989 0.18596 0.35366 0.0
O130 O 0.61823 0.16054 0.49441 0.0
O131 O 0.59811 0.17552 0.44675 0.0
C132 C 0.60388 0.17328 0.48676 0.0
C133 C 0.58504 0.17267 0.3143 0.0
C134 C 0.65201 0.18448 0.38571 0.0
C135 C 0.62372 0.12228 0.3714 0.0
O136 O 0.6241 0.13574 0.34181 0.0
O137 O 0.62053 0.12731 0.41098 0.0
O138 O 0.6012 0.17127 0.29088 0.0
O139 O 0.58693 0.17166 0.35624 0.0
O140 O 0.17622 0.36223 0.61578 0.0
Cd141 Cd 0.15998 0.38766 0.59937 0.0
Cd142 Cd 0.16534 0.39451 0.68519 0.0
O143 O 0.18507 0.37026 0.68311 0.0
O144 O 0.16415 0.3901 0.53494 0.0
O145 O 0.17688 0.41175 0.58251 0.0
C146 C 0.17577 0.40535 0.54271 0.0
C147 C 0.17169 0.42606 0.71631 0.0
C148 C 0.18596 0.3584 0.6505 0.0
C149 C 0.1229 0.38585 0.65418 0.0
O150 O 0.13531 0.38715 0.68562 0.0
O151 O 0.12914 0.38742 0.61492 0.0
O152 O 0.16923 0.4102 0.74026 0.0
O153 O 0.17214 0.42366 0.67444 0.0
O154 O 0.36215 0.83583 0.41591 0.0
Cd155 Cd 0.38894 0.85052 0.42771 0.0
Cd156 Cd 0.39374 0.84267 0.34341 0.0
O157 O 0.37024 0.82233 0.35237 0.0
O158 O 0.39454 0.84682 0.49154 0.0
O159 O 0.41204 0.83165 0.43932 0.0
C160 C 0.40808 0.83372 0.48039 0.0
C161 C 0.42532 0.83638 0.31235 0.0
C162 C 0.35812 0.82392 0.38453 0.0
C163 C 0.38627 0.88591 0.36928 0.0
O164 O 0.38553 0.87252 0.33961 0.0
O165 O 0.39002 0.88082 0.40859 0.0
O166 O 0.40929 0.83727 0.28844 0.0
O167 O 0.42308 0.83739 0.35419 0.0
O168 O 0.83106 0.86214 0.65557 0.0
Cd169 Cd 0.84748 0.88753 0.67139 0.0
Cd170 Cd 0.84203 0.89396 0.58569 0.0
O171 O 0.82197 0.87002 0.5883 0.0
O172 O 0.84348 0.89019 0.73585 0.0
O173 O 0.83074 0.91176 0.68814 0.0
C174 C 0.83192 0.90547 0.728 0.0
C175 C 0.83604 0.92599 0.5568 0.0
C176 C 0.82113 0.85828 0.62112 0.0
C177 C 0.88443 0.8851 0.61623 0.0
O178 O 0.87196 0.88615 0.58484 0.0
O179 O 0.87827 0.88712 0.65546 0.0
O180 O 0.83802 0.91044 0.5317 0.0
O181 O 0.83582 0.923 0.5985 0.0
O182 O 0.86365 0.1783 0.36309 0.0
Cd183 Cd 0.88956 0.1621 0.35086 0.0
Cd184 Cd 0.89372 0.16906 0.43621 0.0
O185 O 0.87045 0.18971 0.42916 0.0
O186 O 0.89313 0.16503 0.28632 0.0
O187 O 0.9137 0.179 0.33442 0.0
C188 C 0.90801 0.17708 0.2943 0.0
C189 C 0.92563 0.17469 0.4657 0.0
C190 C 0.85918 0.18941 0.39554 0.0
C191 C 0.8855 0.12622 0.40828 0.0
O192 O 0.88521 0.1393 0.43864 0.0
O193 O 0.88918 0.13163 0.36911 0.0
O194 O 0.90983 0.17381 0.49042 0.0
O195 O 0.92298 0.17407 0.42392 0.0
O196 O 0.17691 0.14627 0.65801 0.0
Cd197 Cd 0.16086 0.12064 0.67378 0.0
Cd198 Cd 0.16661 0.11429 0.58818 0.0
O199 O 0.18628 0.13855 0.59081 0.0
O200 O 0.16444 0.11875 0.73833 0.0
O201 O 0.17792 0.09686 0.69219 0.0
C202 C 0.1764 0.10364 0.73163 0.0
C203 C 0.17325 0.08273 0.55744 0.0
C204 C 0.18686 0.1503 0.62363 0.0
C205 C 0.12402 0.1226 0.61865 0.0
O206 O 0.13656 0.12162 0.58732 0.0
O207 O 0.13011 0.12072 0.65791 0.0
O208 O 0.17086 0.09854 0.53332 0.0
O209 O 0.17343 0.08518 0.59931 0.0
O210 O 0.14583 0.83207 0.36012 0.0
Cd211 Cd 0.11955 0.84779 0.34892 0.0
Cd212 Cd 0.11572 0.8409 0.43434 0.0
O213 O 0.13906 0.82035 0.42604 0.0
O214 O 0.11442 0.84476 0.28475 0.0
O215 O 0.09586 0.82985 0.33551 0.0
C216 C 0.10032 0.83209 0.29473 0.0
C217 C 0.08385 0.8352 0.46435 0.0
C218 C 0.15037 0.82089 0.3924 0.0
C219 C 0.12375 0.88369 0.40635 0.0
O220 O 0.1243 0.87063 0.43672 0.0
O221 O 0.1197 0.87825 0.36738 0.0
O222 O 0.0997 0.83601 0.48885 0.0
O223 O 0.08643 0.83596 0.42255 0.0
C224 C 0.37881 0.92232 0.38893 0.0
C225 C 0.38162 0.90717 0.35725 0.0
C226 C 0.37271 0.94184 0.37658 0.0
C227 C 0.34701 0.96849 0.28593 0.0
H228 H 0.3717 0.01689 0.33294 0.0
C229 C 0.34012 0.04617 0.20194 0.0
C230 C 0.33912 0.06362 0.22796 0.0
C231 C 0.34308 0.02718 0.22097 0.0
C232 C 0.36439 1.00354 0.31998 0.0
H233 H 0.38098 0.90103 0.28759 0.0
H234 H 0.37063 0.93473 0.26644 0.0
H235 H 0.38179 0.9838 0.36089 0.0
H236 H 0.33959 0.07467 0.29463 0.0
H237 H 0.34448 0.04152 0.3278 0.0
H238 H 0.32979 0.98808 0.24469 0.0
C239 C 0.37268 0.93152 0.30082 0.0
C240 C 0.37021 0.98458 0.336 0.0
C241 C 0.37877 0.91218 0.31305 0.0
C242 C 0.34032 0.06154 0.27358 0.0
C243 C 0.34331 0.04255 0.29262 0.0
C244 C 0.34118 0.9874 0.27001 0.0
C245 C 0.36923 0.94652 0.33237 0.0
C246 C 0.36188 0.96681 0.31852 0.0
C247 C 0.34512 0.02517 0.2665 0.0
C248 C 0.35004 0.00516 0.28623 0.0
H249 H 0.38084 0.91898 0.42325 0.0
H250 H 0.37019 0.95308 0.40168 0.0
H251 H 0.33996 0.95512 0.27241 0.0
H252 H 0.33935 0.04722 0.1667 0.0
H253 H 0.34459 0.01417 0.19977 0.0
C254 C 0.0462 0.67531 0.80891 0.0
C255 C 0.06385 0.67542 0.78338 0.0
C256 C 0.02728 0.67262 0.78955 0.0
C257 C 1.00372 0.65049 0.69127 0.0
H258 H 0.95546 0.67533 0.73892 0.0
C259 C 0.92157 0.63456 0.62817 0.0
C260 C 0.90738 0.63102 0.66155 0.0
C261 C 0.94113 0.64136 0.63834 0.0
C262 C 0.9688 0.66824 0.72527 0.0
H263 H 0.07531 0.67373 0.71711 0.0
H264 H 0.04223 0.66938 0.68326 0.0
H265 H 0.98852 0.68603 0.76496 0.0
H266 H 0.90298 0.63128 0.73189 0.0
H267 H 0.93666 0.64301 0.74916 0.0
H268 H 0.98379 0.63253 0.65191 0.0
C269 C 0.04307 0.67101 0.71838 0.0
C270 C 0.98776 0.67434 0.74027 0.0
C271 C 0.06203 0.67369 0.73778 0.0
C272 C 0.91336 0.63396 0.70516 0.0
C273 C 0.93269 0.64085 0.71518 0.0
C274 C 0.98469 0.64445 0.67605 0.0
C275 C 0.02548 0.67003 0.74411 0.0
C276 C 0.00546 0.66521 0.7243 0.0
C277 C 0.94673 0.64492 0.68199 0.0
C278 C 0.96701 0.6529 0.69375 0.0
H279 H 0.04704 0.67651 0.84412 0.0
H280 H 0.01413 0.67172 0.81053 0.0
H281 H 0.017 0.64298 0.67847 0.0
H282 H 0.91747 0.63245 0.59427 0.0
H283 H 0.95168 0.64433 0.61207 0.0
C284 C 0.6702 0.96168 0.20251 0.0
C285 C 0.67212 0.94459 0.22941 0.0
C286 C 0.66594 0.98062 0.22053 0.0
C287 C 0.66521 0.0106 0.3227 0.0
H288 H 0.62278 0.04004 0.26306 0.0
C289 C 0.63081 0.08569 0.39003 0.0
C290 C 0.62782 0.10098 0.35878 0.0
C291 C 0.63588 0.06598 0.37693 0.0
C292 C 0.63477 0.03214 0.27997 0.0
H293 H 0.67221 0.93427 0.29664 0.0
H294 H 0.66488 0.9674 0.32803 0.0
H295 H 0.63393 0.0076 0.23462 0.0
H296 H 0.62758 0.10733 0.2892 0.0
H297 H 0.63648 0.07344 0.26679 0.0
H298 H 0.66613 0.03538 0.36785 0.0
C299 C 0.66665 0.96612 0.293 0.0
C300 C 0.64121 0.01353 0.26356 0.0
C301 C 0.67084 0.94712 0.27495 0.0
C302 C 0.62971 0.09601 0.31431 0.0
C303 C 0.6347 0.07645 0.30133 0.0
C304 C 0.65881 0.02934 0.33908 0.0
C305 C 0.66355 0.98297 0.26589 0.0
C306 C 0.65668 1.00264 0.28433 0.0
C307 C 0.63793 0.06116 0.33234 0.0
C308 C 0.6437 0.04047 0.31752 0.0
H309 H 0.67115 0.96031 0.16734 0.0
H310 H 0.66405 0.99339 0.19879 0.0
H311 H 0.67717 1.00258 0.33945 0.0
H312 H 0.62953 0.08901 0.42453 0.0
H313 H 0.63812 0.0545 0.40166 0.0
C314 C 0.08716 0.37649 0.63245 0.0
C315 C 0.10135 0.38175 0.66468 0.0
C316 C 0.06726 0.37135 0.64416 0.0
C317 C 0.03076 0.37592 0.73641 0.0
H318 H 1.0046 0.32929 0.68482 0.0
C319 C 0.96207 0.33947 0.81806 0.0
C320 C 0.94515 0.3361 0.79138 0.0
C321 C 0.98087 0.34396 0.79962 0.0
C322 C 0.01169 0.34242 0.69928 0.0
H323 H 0.1055 0.386 0.73443 0.0
H324 H 0.07143 0.37693 0.75446 0.0
H325 H 0.03739 0.34061 0.65665 0.0
H326 H 0.93504 0.33359 0.72426 0.0
H327 H 0.96802 0.3412 0.6921 0.0
H328 H 0.00541 0.37753 0.77959 0.0
C329 C 0.07537 0.377 0.72014 0.0
C330 C 0.0304 0.34899 0.68301 0.0
C331 C 0.09507 0.38208 0.70856 0.0
C332 C 0.94776 0.33612 0.74577 0.0
C333 C 0.96665 0.34046 0.7273 0.0
C334 C 0.01225 0.36929 0.75282 0.0
C335 C 0.06117 0.3715 0.68827 0.0
C336 C 0.04034 0.36562 0.70195 0.0
C337 C 0.98325 0.34507 0.75406 0.0
C338 C 1.00264 0.35227 0.735 0.0
H339 H 0.0915 0.37602 0.59837 0.0
H340 H 0.05666 0.36731 0.61874 0.0
H341 H 0.03769 0.38909 0.75111 0.0
H342 H 0.96064 0.33953 0.85328 0.0
H343 H 0.99347 0.34709 0.8211 0.0
C344 C 0.33891 0.46212 0.06553 0.0
C345 C 0.33649 0.44503 0.03882 0.0
C346 C 0.34356 0.48092 0.04727 0.0
C347 C 0.34452 0.51082 0.94515 0.0
H348 H 0.38833 0.53885 1.00322 0.0
C349 C 0.3799 0.58539 0.87761 0.0
C350 C 0.38348 0.60045 0.90909 0.0
C351 C 0.37466 0.56569 0.89047 0.0
C352 C 0.37596 0.53135 0.98674 0.0
H353 H 0.33584 0.4346 0.97169 0.0
H354 H 0.3438 0.4675 0.93985 0.0
H355 H 0.37646 0.50673 0.03191 0.0
H356 H 0.38471 0.60637 0.97879 0.0
H357 H 0.37552 0.57254 1.00079 0.0
H358 H 0.34389 0.53571 0.90028 0.0
C359 C 0.34216 0.46632 0.97494 0.0
C360 C 0.36912 0.51292 1.0033 0.0
C361 C 0.33761 0.44745 0.99323 0.0
C362 C 0.3821 0.59523 0.9535 0.0
C363 C 0.37694 0.57569 0.96624 0.0
C364 C 0.35131 0.5294 0.92865 0.0
C365 C 0.3458 0.48312 1.00185 0.0
C366 C 0.35314 0.50256 0.98313 0.0
C367 C 0.37304 0.56065 0.93503 0.0
C368 C 0.36693 0.54004 0.94969 0.0
H369 H 0.3381 0.46083 0.10073 0.0
H370 H 0.34588 0.49367 0.06885 0.0
H371 H 0.33218 0.50319 0.92886 0.0
H372 H 0.38077 0.58891 0.84314 0.0
H373 H 0.37191 0.55441 0.86557 0.0
C374 C 0.44662 0.67077 0.02476 0.0
C375 C 0.4451 0.67259 0.97913 0.0
C376 C 0.46543 0.66792 0.04468 0.0
C377 C 0.52086 0.67108 0.02491 0.0
H378 H 0.52393 0.62889 0.11259 0.0
C379 C 0.59551 0.63193 0.0657 0.0
C380 C 0.60045 0.62847 0.10974 0.0
C381 C 0.57628 0.63851 0.05388 0.0
C382 C 0.52329 0.6409 0.08863 0.0
H383 H 0.46229 0.67373 0.91889 0.0
H384 H 0.49498 0.6687 0.95344 0.0
H385 H 0.49103 0.63939 0.08449 0.0
H386 H 0.58865 0.62869 0.17579 0.0
H387 H 0.55472 0.64011 0.15486 0.0
H388 H 0.55312 0.67222 0.02818 0.0
C389 C 0.48169 0.66962 0.97401 0.0
C390 C 0.50443 0.64697 0.07254 0.0
C391 C 0.4629 0.67245 0.95411 0.0
C392 C 0.58536 0.6312 0.1416 0.0
C393 C 0.56595 0.63773 0.12962 0.0
C394 C 0.53966 0.66497 0.04084 0.0
C395 C 0.48317 0.66688 0.01946 0.0
C396 C 0.50301 0.66187 0.03984 0.0
C397 C 0.56133 0.64179 0.08564 0.0
C398 C 0.54115 0.64952 0.07221 0.0
H399 H 0.4332 0.67082 0.04503 0.0
H400 H 0.46604 0.6662 0.07981 0.0
H401 H 0.52033 0.68288 1.00045 0.0
H402 H 0.60662 0.62986 0.04011 0.0
H403 H 0.5731 0.64104 0.01963 0.0
C404 C 0.63365 0.41031 0.96408 0.0
C405 C 0.63021 0.40507 0.9202 0.0
C406 C 0.63993 0.42972 0.97541 0.0
C407 C 0.64143 0.48253 0.93862 0.0
H408 H 0.68241 0.48713 0.02853 0.0
C409 C 0.67012 0.56028 0.9988 0.0
C410 C 0.67143 0.56256 0.04437 0.0
C411 C 0.6675 0.54115 0.98014 0.0
C412 C 0.67088 0.48614 1.00357 0.0
H413 H 0.63025 0.41646 0.85385 0.0
H414 H 0.64122 0.45066 0.87386 0.0
H415 H 0.67263 0.45387 1.00183 0.0
H416 H 0.6718 0.54638 0.1059 0.0
H417 H 0.66721 0.5131 0.07347 0.0
H418 H 0.6394 0.51482 0.94104 0.0
C419 C 0.63901 0.43957 0.8994 0.0
C420 C 0.66527 0.46706 0.98823 0.0
C421 C 0.63275 0.41999 0.88794 0.0
C422 C 0.67093 0.54518 0.07069 0.0
C423 C 0.66835 0.52606 0.05203 0.0
C424 C 0.64704 0.50166 0.95403 0.0
C425 C 0.64296 0.44453 0.94328 0.0
C426 C 0.65019 0.46499 0.95622 0.0
C427 C 0.66619 0.52384 1.00657 0.0
C428 C 0.66157 0.50367 0.98729 0.0
H429 H 0.63172 0.39934 0.98997 0.0
H430 H 0.64235 0.43313 1.00958 0.0
H431 H 0.62968 0.48146 0.91417 0.0
H432 H 0.67047 0.57334 0.97753 0.0
H433 H 0.66622 0.53996 0.945 0.0
C434 C 0.42038 0.37761 0.13738 0.0
C435 C 0.40543 0.3805 0.10538 0.0
C436 C 0.44023 0.37249 0.12527 0.0
C437 C 0.47505 0.37362 0.02994 0.0
H438 H 0.50414 0.3313 0.09076 0.0
C439 C 0.54648 0.33855 0.95574 0.0
C440 C 0.56324 0.3365 0.98348 0.0
C441 C 0.52734 0.34279 0.97283 0.0
C442 C 0.49626 0.34325 0.07365 0.0
H443 H 0.39982 0.38047 0.03551 0.0
H444 H 0.43391 0.37152 0.01483 0.0
H445 H 0.47103 0.34221 0.11768 0.0
H446 H 0.57277 0.33619 0.05122 0.0
H447 H 0.53933 0.34351 0.08099 0.0
H448 H 0.50004 0.3746 0.98573 0.0
C449 C 0.43054 0.37339 0.0492 0.0
C450 C 0.47734 0.34957 0.08919 0.0
C451 C 0.41086 0.37842 0.06119 0.0
C452 C 0.56019 0.33767 0.02889 0.0
C453 C 0.541 0.34185 0.04601 0.0
C454 C 0.49385 0.36728 0.01438 0.0
C455 C 0.44552 0.37033 0.08094 0.0
C456 C 0.46637 0.36465 0.06711 0.0
C457 C 0.52447 0.34504 0.01809 0.0
C458 C 0.50458 0.35183 0.03564 0.0
H459 H 0.41671 0.37904 0.17169 0.0
H460 H 0.45145 0.37036 0.15055 0.0
H461 H 0.46727 0.38559 0.01266 0.0
H462 H 0.54825 0.33768 0.92064 0.0
H463 H 0.51483 0.34475 0.95046 0.0
C464 C 0.87741 0.42019 0.88825 0.0
C465 C 0.87945 0.40507 0.85627 0.0
C466 C 0.87138 0.43982 0.87655 0.0
C467 C 0.84492 0.4674 0.78807 0.0
H468 H 0.87152 0.51489 0.83449 0.0
C469 C 0.83845 0.54592 0.70718 0.0
C470 C 0.83834 0.56317 0.73393 0.0
C471 C 0.84129 0.5267 0.72522 0.0
C472 C 0.86369 0.50181 0.82171 0.0
H473 H 0.87731 0.39901 0.78671 0.0
H474 H 0.86709 0.4329 0.76666 0.0
H475 H 0.88118 0.48144 0.8609 0.0
H476 H 0.84023 0.57361 0.80094 0.0
H477 H 0.84488 0.54009 0.83239 0.0
H478 H 0.82761 0.48765 0.74852 0.0
C479 C 0.86972 0.42961 0.80082 0.0
C480 C 0.86926 0.48263 0.83686 0.0
C481 C 0.87576 0.41015 0.81239 0.0
C482 C 0.8403 0.56066 0.77933 0.0
C483 C 0.84314 0.54144 0.79737 0.0
C484 C 0.83934 0.48654 0.773 0.0
C485 C 0.86719 0.44464 0.8327 0.0
C486 C 0.86019 0.46517 0.81962 0.0
C487 C 0.84408 0.52425 0.77047 0.0
C488 C 0.84887 0.50398 0.78908 0.0
H489 H 0.8801 0.4168 0.92232 0.0
H490 H 0.86954 0.45107 0.90192 0.0
H491 H 0.83733 0.45428 0.77475 0.0
H492 H 0.83709 0.54731 0.67208 0.0
H493 H 0.84212 0.51384 0.70342 0.0
C494 C 0.56298 0.17191 0.24779 0.0
C495 C 0.56482 0.17304 0.29346 0.0
C496 C 0.54407 0.16912 0.22829 0.0
C497 C 0.4888 0.1714 0.24967 0.0
H498 H 0.48573 0.13044 0.15931 0.0
C499 C 0.41413 0.13278 0.20672 0.0
C500 C 0.40926 0.12964 0.16254 0.0
C501 C 0.43334 0.13928 0.21891 0.0
C502 C 0.48635 0.14212 0.18403 0.0
H503 H 0.54807 0.17302 0.35432 0.0
H504 H 0.51517 0.16813 0.32047 0.0
H505 H 0.51864 0.14075 0.18758 0.0
H506 H 0.42113 0.13039 0.09657 0.0
H507 H 0.45499 0.14173 0.1181 0.0
H508 H 0.45652 0.17246 0.24684 0.0
C509 C 0.52831 0.16953 0.29957 0.0
C510 C 0.50522 0.14807 0.20023 0.0
C511 C 0.54721 0.17228 0.31906 0.0
C512 C 0.42437 0.13264 0.13087 0.0
C513 C 0.44375 0.13913 0.14319 0.0
C514 C 0.46998 0.16544 0.23357 0.0
C515 C 0.52654 0.16746 0.254 0.0
C516 C 0.50665 0.16253 0.23384 0.0
C517 C 0.44831 0.14284 0.18736 0.0
C518 C 0.46849 0.15043 0.20119 0.0
H519 H 0.57624 0.17247 0.22706 0.0
H520 H 0.54323 0.16794 0.19309 0.0
H521 H 0.48934 0.18286 0.27489 0.0
H522 H 0.40299 0.13047 0.23217 0.0
H523 H 0.43646 0.14152 0.25327 0.0
C524 C 0.12956 0.58918 0.88903 0.0
C525 C 0.12691 0.60387 0.85633 0.0
C526 C 0.13596 0.56956 0.8781 0.0
C527 C 0.16304 0.54209 0.79056 0.0
H528 H 0.13769 0.49402 0.83758 0.0
C529 C 0.17142 0.46384 0.70968 0.0
C530 C 0.17164 0.44652 0.73617 0.0
C531 C 0.16827 0.48297 0.72796 0.0
C532 C 0.1452 0.50727 0.82466 0.0
H533 H 0.12818 0.6091 0.78634 0.0
H534 H 0.13911 0.57526 0.7677 0.0
H535 H 0.12711 0.52729 0.86361 0.0
H536 H 0.16969 0.43584 0.803 0.0
H537 H 0.16456 0.46922 0.83491 0.0
H538 H 0.18098 0.52223 0.75132 0.0
C539 C 0.13666 0.57889 0.80178 0.0
C540 C 0.13908 0.52634 0.83958 0.0
C541 C 0.13023 0.59831 0.81256 0.0
C542 C 0.16956 0.44887 0.78159 0.0
C543 C 0.16642 0.468 0.79989 0.0
C544 C 0.16919 0.52307 0.77578 0.0
C545 C 0.13994 0.56435 0.83435 0.0
C546 C 0.14764 0.54398 0.822 0.0
C547 C 0.16531 0.48526 0.77322 0.0
C548 C 0.16009 0.50541 0.79199 0.0
H549 H 0.12716 0.59294 0.92304 0.0
H550 H 0.13833 0.55866 0.90395 0.0
H551 H 0.17024 0.55538 0.77699 0.0
H552 H 0.17286 0.46259 0.67457 0.0
H553 H 0.16731 0.49586 0.7063 0.0
C554 C 0.46297 0.83841 0.31893 0.0
C555 C 0.44575 0.83684 0.29236 0.0
C556 C 0.48188 0.84248 0.30062 0.0
C557 C 0.51166 0.84332 0.19827 0.0
H558 H 0.54135 0.88539 0.25852 0.0
C559 C 0.58745 0.87726 0.13274 0.0
C560 C 0.60257 0.87998 0.16444 0.0
C561 C 0.56763 0.87223 0.14522 0.0
C562 C 0.53337 0.8735 0.24143 0.0
H563 H 0.43516 0.83714 0.22537 0.0
H564 H 0.46828 0.84415 0.19341 0.0
H565 H 0.50877 0.87452 0.28662 0.0
H566 H 0.60853 0.87966 0.23418 0.0
H567 H 0.5745 0.87086 0.25549 0.0
H568 H 0.53654 0.84221 0.15331 0.0
C569 C 0.4671 0.84225 0.22844 0.0
C570 C 0.51469 0.86723 0.25764 0.0
C571 C 0.44812 0.83824 0.2468 0.0
C572 C 0.59735 0.87777 0.20872 0.0
C573 C 0.57771 0.87283 0.22108 0.0
C574 C 0.5305 0.84955 0.18208 0.0
C575 C 0.48408 0.84505 0.25528 0.0
C576 C 0.50373 0.85186 0.23672 0.0
C577 C 0.56256 0.86999 0.18964 0.0
C578 C 0.54173 0.8645 0.20393 0.0
H579 H 0.46173 0.83733 0.35411 0.0
H580 H 0.49475 0.84413 0.32213 0.0
H581 H 0.50356 0.83145 0.18139 0.0
H582 H 0.59096 0.87878 0.09836 0.0
H583 H 0.55627 0.87026 0.12019 0.0
C584 C 0.83768 0.96357 0.56636 0.0
C585 C 0.83659 0.94674 0.53848 0.0
C586 C 0.84179 0.98279 0.54962 0.0
C587 C 0.84364 0.01385 0.44898 0.0
H588 H 0.88458 0.04331 0.51317 0.0
C589 C 0.87849 0.08984 0.3875 0.0
C590 C 0.8809 0.10486 0.4196 0.0
C591 C 0.87322 0.07002 0.39937 0.0
C592 C 0.87299 0.03541 0.495 0.0
H593 H 0.83779 0.93717 0.47079 0.0
H594 H 0.84487 0.97077 0.44162 0.0
H595 H 0.87346 0.01048 0.53933 0.0
H596 H 0.87975 0.11062 0.48939 0.0
H597 H 0.87049 0.07657 0.50963 0.0
H598 H 0.84311 0.03903 0.40481 0.0
C599 C 0.84256 0.96907 0.47644 0.0
C600 C 0.86657 0.01658 0.51011 0.0
C601 C 0.83853 0.9498 0.49321 0.0
C602 C 0.87811 0.09952 0.46365 0.0
C603 C 0.87291 0.07986 0.4754 0.0
C604 C 0.85002 0.03283 0.4339 0.0
C605 C 0.84485 0.98568 0.50459 0.0
C606 C 0.85164 0.00566 0.48765 0.0
C607 C 0.87037 0.06482 0.44355 0.0
C608 C 0.86459 0.04396 0.45711 0.0
H609 H 0.83621 0.96179 0.60136 0.0
H610 H 0.84305 0.99535 0.57212 0.0
H611 H 0.8321 0.00582 0.43094 0.0
H612 H 0.88048 0.09344 0.35328 0.0
H613 H 0.87151 0.05874 0.37402 0.0
C614 C 0.96308 0.17079 0.45758 0.0
C615 C 0.94621 0.17375 0.48474 0.0
C616 C 0.98195 0.16617 0.47543 0.0
C617 C 0.01289 0.1665 0.57561 0.0
H618 H 0.03915 0.12074 0.52048 0.0
C619 C 0.08819 0.13156 0.64053 0.0
C620 C 0.1025 0.1268 0.60812 0.0
C621 C 0.06833 0.13684 0.62895 0.0
C622 C 0.03215 0.13366 0.5361 0.0
H623 H 0.93627 0.17543 0.55216 0.0
H624 H 0.96936 0.16759 0.5833 0.0
H625 H 0.00685 0.13262 0.49284 0.0
H626 H 0.10694 0.12359 0.53817 0.0
H627 H 0.07291 0.13292 0.51837 0.0
H628 H 0.03851 0.16773 0.61839 0.0
C629 C 0.9679 0.16875 0.54818 0.0
C630 C 0.01362 0.14048 0.52016 0.0
C631 C 0.94895 0.17323 0.53029 0.0
C632 C 0.0964 0.1271 0.56417 0.0
C633 C 0.07673 0.13234 0.55271 0.0
C634 C 0.0316 0.15975 0.59142 0.0
C635 C 0.98445 0.16453 0.52087 0.0
C636 C 1.00391 0.15717 0.53923 0.0
C637 C 0.0624 0.13735 0.58479 0.0
C638 C 0.04162 0.14344 0.57133 0.0
H639 H 0.96155 0.17112 0.42239 0.0
H640 H 0.99451 0.16337 0.45356 0.0
H641 H 0.00573 0.17938 0.59102 0.0
H642 H 0.09239 0.13153 0.67467 0.0
H643 H 0.05762 0.14049 0.65452 0.0
C644 C 0.13144 0.91979 0.38467 0.0
C645 C 0.12897 0.90496 0.41715 0.0
C646 C 0.13793 0.93934 0.39577 0.0
C647 C 0.16522 0.96664 0.48332 0.0
H648 H 0.13969 0.01469 0.43667 0.0
C649 C 0.17316 0.04495 0.56427 0.0
C650 C 0.17339 0.06225 0.5377 0.0
C651 C 0.17015 0.02579 0.54603 0.0
C652 C 0.14725 1.00144 0.44949 0.0
H653 H 0.13077 0.89939 0.48695 0.0
H654 H 0.14183 0.93313 0.50592 0.0
H655 H 0.1292 0.98143 0.41063 0.0
H656 H 0.17162 0.07285 0.4708 0.0
H657 H 0.1667 0.03943 0.439 0.0
H658 H 0.1831 0.98652 0.52254 0.0
C659 C 0.13917 0.92966 0.47185 0.0
C660 C 0.14119 0.98237 0.43456 0.0
C661 C 0.13265 0.91029 0.46089 0.0
C662 C 0.17147 0.05985 0.49227 0.0
C663 C 0.16846 0.0407 0.47403 0.0
C664 C 0.17131 0.98566 0.49815 0.0
C665 C 0.14219 0.94436 0.43948 0.0
C666 C 0.14982 0.96473 0.45197 0.0
C667 C 0.16732 0.02346 0.50076 0.0
C668 C 0.16215 1.00331 0.48204 0.0
H669 H 0.12876 0.9162 0.35068 0.0
H670 H 0.14012 0.95036 0.37006 0.0
H671 H 0.17249 0.95336 0.49675 0.0
H672 H 0.17448 0.04624 0.59939 0.0
H673 H 0.16917 0.01291 0.56772 0.0
C674 C 0.91208 0.88005 0.56186 0.0
C675 C 0.90596 0.88081 0.60582 0.0
C676 C 0.93184 0.87501 0.55059 0.0
C677 C 0.97758 0.84905 0.59032 0.0
H678 H 1.00177 0.87599 0.49072 0.0
C679 C 0.06055 0.83681 0.52914 0.0
C680 C 0.06328 0.83602 0.4836 0.0
C681 C 0.04152 0.84108 0.54704 0.0
C682 C 0.99516 0.86818 0.51834 0.0
H683 H 0.91612 0.87699 0.67255 0.0
H684 H 0.95104 0.86834 0.6527 0.0
H685 H 0.96916 0.88728 0.51795 0.0
H686 H 0.04786 0.83797 0.4213 0.0
H687 H 0.01479 0.84533 0.45248 0.0
H688 H 1.00393 0.83005 0.5906 0.0
C689 C 0.94028 0.8715 0.627 0.0
C690 C 0.97646 0.87467 0.53403 0.0
C691 C 0.92033 0.8766 0.63839 0.0
C692 C 0.04635 0.83853 0.45649 0.0
C693 C 0.02741 0.84292 0.47434 0.0
C694 C 0.99648 0.84263 0.57473 0.0
C695 C 0.94624 0.87064 0.58286 0.0
C696 C 0.96718 0.86494 0.56962 0.0
C697 C 0.02488 0.8448 0.51974 0.0
C698 C 0.00526 0.85189 0.53799 0.0
H699 H 0.90151 0.88312 0.53573 0.0
H700 H 0.93569 0.87412 0.51628 0.0
H701 H 0.97084 0.84112 0.6176 0.0
H702 H 0.07327 0.83497 0.55098 0.0
H703 H 0.04005 0.84244 0.58214 0.0
C704 C 0.30453 0.3301 0.17055 0.0
C705 C 0.3102 0.33854 0.13031 0.0
C706 C 0.29818 0.31004 0.17314 0.0
C707 C 0.28558 0.26407 0.10742 0.0
H708 H 0.31337 0.23684 0.202 0.0
C709 C 0.31317 0.18198 0.09953 0.0
C710 C 0.31435 0.17042 0.13796 0.0
C711 C 0.306 0.20179 0.10062 0.0
C712 C 0.30506 0.24414 0.17597 0.0
H713 H 0.31235 0.3331 0.06078 0.0
H714 H 0.3019 0.29778 0.06529 0.0
H715 H 0.31282 0.27339 0.1997 0.0
H716 H 0.30751 0.17011 0.20716 0.0
H717 H 0.29494 0.20489 0.20911 0.0
H718 H 0.27881 0.23453 0.08265 0.0
C719 C 0.30195 0.30673 0.09487 0.0
C720 C 0.30473 0.26521 0.17459 0.0
C721 C 0.308 0.32698 0.0922 0.0
C722 C 0.30688 0.17866 0.17705 0.0
C723 C 0.29979 0.1986 0.17819 0.0
C724 C 0.28599 0.24292 0.10872 0.0
C725 C 0.29774 0.2978 0.13564 0.0
C726 C 0.29541 0.27548 0.13978 0.0
C727 C 0.29989 0.21059 0.14021 0.0
C728 C 0.2962 0.23273 0.14245 0.0
H729 H 0.30582 0.33879 0.2004 0.0
H730 H 0.2945 0.30387 0.2049 0.0
H731 H 0.27798 0.27146 0.08051 0.0
H732 H 0.31863 0.17602 0.06876 0.0
H733 H 0.30645 0.2106 0.07084 0.0
C734 C 0.18125 0.70014 0.84165 0.0
C735 C 0.16985 0.69786 0.88 0.0
C736 C 0.20157 0.70594 0.8439 0.0
C737 C 0.24354 0.70271 0.92247 0.0
H738 H 0.27374 0.7287 0.82973 0.0
C739 C 0.33015 0.70147 0.923 0.0
C740 C 0.33833 0.6939 0.88394 0.0
C741 C 0.31011 0.70824 0.92445 0.0
C742 C 0.26548 0.72151 0.85601 0.0
H743 H 0.17002 0.70182 0.95021 0.0
H744 H 0.20508 0.71274 0.95402 0.0
H745 H 0.23682 0.72961 0.82868 0.0
H746 H 0.33245 0.68901 0.81506 0.0
H747 H 0.29768 0.70069 0.81767 0.0
H748 H 0.27207 0.69407 0.9491 0.0
C749 C 0.19871 0.70928 0.92235 0.0
C750 C 0.24434 0.72196 0.85534 0.0
C751 C 0.17857 0.70316 0.92016 0.0
C752 C 0.32655 0.69457 0.8458 0.0
C753 C 0.30663 0.70145 0.84718 0.0
C754 C 0.26461 0.70237 0.92327 0.0
C755 C 0.21075 0.70984 0.88451 0.0
C756 C 0.23309 0.71209 0.88799 0.0
C757 C 0.29797 0.70773 0.88679 0.0
C758 C 0.27583 0.71129 0.88947 0.0
H759 H 0.17491 0.69608 0.81027 0.0
H760 H 0.21035 0.70608 0.81407 0.0
H761 H 0.2355 0.69459 0.94778 0.0
H762 H 0.33886 0.70123 0.9529 0.0
H763 H 0.3039 0.71321 0.95536 0.0
C764 C 0.70328 0.82947 0.09783 0.0
C765 C 0.69779 0.83798 0.13812 0.0
C766 C 0.70975 0.80944 0.09531 0.0
C767 C 0.7231 0.76375 0.16128 0.0
H768 H 0.6951 0.73603 0.06768 0.0
C769 C 0.69629 0.68145 0.17073 0.0
C770 C 0.69506 0.66979 0.13245 0.0
C771 C 0.70327 0.70133 0.16926 0.0
C772 C 0.70346 0.74348 0.09343 0.0
H773 H 0.69605 0.83271 0.20776 0.0
H774 H 0.70672 0.79744 0.20339 0.0
H775 H 0.69531 0.77259 0.06954 0.0
H776 H 0.70162 0.66936 0.06313 0.0
H777 H 0.71385 0.70423 0.06053 0.0
H778 H 0.73026 0.73434 0.18625 0.0
C779 C 0.70644 0.80631 0.17372 0.0
C780 C 0.7036 0.76455 0.09455 0.0
C781 C 0.70027 0.82653 0.1763 0.0
C782 C 0.70229 0.67799 0.09313 0.0
C783 C 0.70919 0.69799 0.09162 0.0
C784 C 0.72288 0.74259 0.16025 0.0
C785 C 0.71049 0.7973 0.13294 0.0
C786 C 0.713 0.77499 0.12903 0.0
C787 C 0.70914 0.71007 0.12945 0.0
C788 C 0.7126 0.73223 0.12688 0.0
H789 H 0.70177 0.83807 0.06792 0.0
H790 H 0.71331 0.80321 0.06353 0.0
H791 H 0.73076 0.77127 0.18793 0.0
H792 H 0.69101 0.67553 0.20167 0.0
H793 H 0.70286 0.71021 0.19895 0.0
C794 C 0.68169 0.30703 0.93315 0.0
C795 C 0.66995 0.30927 0.89534 0.0
C796 C 0.70184 0.30069 0.93001 0.0
C797 C 0.74295 0.30266 0.84907 0.0
H798 H 0.77376 0.2762 0.94011 0.0
C799 C 0.82947 0.30313 0.84335 0.0
C800 C 0.83819 0.31032 0.88214 0.0
C801 C 0.80939 0.29644 0.84299 0.0
C802 C 0.76534 0.28354 0.91429 0.0
H803 H 0.66926 0.30469 0.82534 0.0
H804 H 0.704 0.29288 0.82003 0.0
H805 H 0.73685 0.27613 0.94357 0.0
H806 H 0.83326 0.31451 0.95161 0.0
H807 H 0.79844 0.30306 0.95089 0.0
H808 H 0.77127 0.31072 0.82061 0.0
C809 C 0.69805 0.29673 0.85191 0.0
C810 C 0.74419 0.28355 0.91635 0.0
C811 C 0.67809 0.30336 0.85496 0.0
C812 C 0.82694 0.30925 0.92105 0.0
C813 C 0.80698 0.3025 0.92073 0.0
C814 C 0.764 0.30258 0.84696 0.0
C815 C 0.71049 0.29624 0.88905 0.0
C816 C 0.73275 0.29356 0.8843 0.0
C817 C 0.79772 0.2967 0.88146 0.0
C818 C 0.77548 0.2935 0.88011 0.0
H819 H 0.6758 0.31157 0.96466 0.0
H820 H 0.71096 0.30059 0.95933 0.0
H821 H 0.73475 0.31087 0.82418 0.0
H822 H 0.83776 0.30368 0.81287 0.0
H823 H 0.80275 0.2918 0.81229 0.0
C824 C 0.81602 0.68365 0.68683 0.0
C825 C 0.81157 0.67025 0.65282 0.0
C826 C 0.80989 0.70384 0.68439 0.0
C827 C 0.79434 0.74156 0.59986 0.0
H828 H 0.79526 0.7767 0.70072 0.0
C829 C 0.79877 0.83205 0.65354 0.0
C830 C 0.81058 0.83877 0.61842 0.0
C831 C 0.79224 0.81199 0.65552 0.0
C832 C 0.79442 0.76729 0.67193 0.0
H833 H 0.79582 0.66668 0.59153 0.0
H834 H 0.78349 0.70134 0.58888 0.0
H835 H 0.79404 0.74065 0.71107 0.0
H836 H 0.82435 0.83022 0.55716 0.0
H837 H 0.8143 0.79503 0.56159 0.0
H838 H 0.79348 0.76819 0.56074 0.0
C839 C 0.79272 0.69684 0.61634 0.0
C840 C 0.7942 0.74636 0.67798 0.0
C841 C 0.79948 0.67684 0.6181 0.0
C842 C 0.81498 0.82541 0.58426 0.0
C843 C 0.80908 0.80516 0.58691 0.0
C844 C 0.79388 0.76249 0.59382 0.0
C845 C 0.79865 0.71094 0.64836 0.0
C846 C 0.79506 0.73312 0.64208 0.0
C847 C 0.79813 0.79794 0.62331 0.0
C848 C 0.79481 0.77573 0.62969 0.0
H849 H 0.82561 0.67894 0.71361 0.0
H850 H 0.81514 0.71402 0.70954 0.0
H851 H 0.79511 0.73215 0.57104 0.0
H852 H 0.79515 0.84218 0.68022 0.0
H853 H 0.78322 0.8074 0.68328 0.0
C854 C 0.83134 0.20607 0.35457 0.0
C855 C 0.8397 0.20027 0.39477 0.0
C856 C 0.81126 0.21235 0.35194 0.0
C857 C 0.76503 0.22431 0.41761 0.0
H858 H 0.73827 0.19678 0.32207 0.0
C859 C 0.68318 0.19599 0.42412 0.0
C860 C 0.67164 0.19519 0.38565 0.0
C861 C 0.70299 0.20318 0.42337 0.0
C862 C 0.74544 0.20501 0.34839 0.0
H863 H 0.8341 0.19782 0.46419 0.0
H864 H 0.79875 0.20814 0.4596 0.0
H865 H 0.7748 0.19766 0.32462 0.0
H866 H 0.6714 0.20263 0.31675 0.0
H867 H 0.70616 0.21519 0.31538 0.0
H868 H 0.73538 0.23063 0.44242 0.0
C869 C 0.80778 0.20826 0.4301 0.0
C870 C 0.7665 0.20553 0.3499 0.0
C871 C 0.82804 0.20229 0.43281 0.0
C872 C 0.67993 0.20296 0.34689 0.0
C873 C 0.69985 0.21006 0.34608 0.0
C874 C 0.74389 0.22368 0.41619 0.0
C875 C 0.79892 0.21257 0.38933 0.0
C876 C 0.7766 0.21476 0.38505 0.0
C877 C 0.71179 0.20968 0.38408 0.0
C878 C 0.73389 0.21357 0.3821 0.0
H879 H 0.84011 0.20492 0.32478 0.0
H880 H 0.80515 0.21613 0.3202 0.0
H881 H 0.77228 0.23182 0.44479 0.0
H882 H 0.6772 0.19029 0.45466 0.0
H883 H 0.71177 0.2025 0.45314 0.0
C884 C 0.20851 0.33202 0.61918 0.0
C885 C 0.19639 0.33883 0.65373 0.0
C886 C 0.21504 0.31194 0.61768 0.0
C887 C 0.21292 0.26262 0.67994 0.0
H888 H 0.2142 0.24045 0.56301 0.0
C889 C 0.20874 0.17681 0.65638 0.0
C890 C 0.19719 0.16994 0.62106 0.0
C891 C 0.2151 0.19693 0.65833 0.0
C892 C 0.21363 0.24624 0.59601 0.0
H893 H 0.18202 0.33044 0.71443 0.0
H894 H 0.19208 0.29522 0.71077 0.0
H895 H 0.21258 0.27652 0.57281 0.0
H896 H 0.18367 0.17827 0.55948 0.0
H897 H 0.19344 0.21355 0.56383 0.0
H898 H 0.21169 0.23234 0.70306 0.0
C899 C 0.19754 0.30528 0.68559 0.0
C900 C 0.21318 0.26719 0.60176 0.0
C901 C 0.19163 0.32555 0.68778 0.0
C902 C 0.19285 0.18321 0.58673 0.0
C903 C 0.19858 0.20351 0.58934 0.0
C904 C 0.21269 0.24167 0.67416 0.0
C905 C 0.20885 0.29798 0.64978 0.0
C906 C 0.2123 0.27576 0.64385 0.0
C907 C 0.2093 0.21087 0.62587 0.0
C908 C 0.21251 0.2331 0.63204 0.0
H909 H 0.21239 0.3421 0.59258 0.0
H910 H 0.22433 0.30729 0.59039 0.0
H911 H 0.21294 0.26842 0.71296 0.0
H912 H 0.2123 0.16675 0.6832 0.0
H913 H 0.22394 0.20163 0.68622 0.0
C914 C 0.17853 0.80474 0.35127 0.0
C915 C 0.16994 0.81019 0.39152 0.0
C916 C 0.19863 0.79846 0.34882 0.0
C917 C 0.24439 0.7857 0.41514 0.0
H918 H 0.27195 0.81326 0.32056 0.0
C919 C 0.32673 0.81275 0.42283 0.0
C920 C 0.33838 0.81341 0.38443 0.0
C921 C 0.30681 0.8059 0.4219 0.0
C922 C 0.26454 0.80504 0.34662 0.0
H923 H 0.17517 0.81207 0.46114 0.0
H924 H 0.21053 0.80178 0.45687 0.0
H925 H 0.23539 0.8129 0.32258 0.0
H926 H 0.33867 0.80604 0.31549 0.0
H927 H 0.3037 0.79407 0.31382 0.0
H928 H 0.27385 0.77887 0.44025 0.0
C929 C 0.20168 0.80192 0.42718 0.0
C930 C 0.24347 0.8048 0.34782 0.0
C931 C 0.1814 0.80788 0.42971 0.0
C932 C 0.33007 0.8058 0.34558 0.0
C933 C 0.31002 0.79905 0.34459 0.0
C934 C 0.26554 0.78605 0.41405 0.0
C935 C 0.21075 0.79789 0.38645 0.0
C936 C 0.23309 0.79553 0.38259 0.0
C937 C 0.298 0.79961 0.3825 0.0
C938 C 0.27583 0.79615 0.38029 0.0
H939 H 0.16993 0.80612 0.32135 0.0
H940 H 0.2049 0.7949 0.31707 0.0
H941 H 0.23692 0.77814 0.44202 0.0
H942 H 0.33273 0.81834 0.45342 0.0
H943 H 0.29795 0.80669 0.45161 0.0
C944 C 0.1901 0.10646 0.80745 0.0
C945 C 0.19016 0.0966 0.76679 0.0
C946 C 0.20569 0.10326 0.8374 0.0
C947 C 0.24837 0.07099 0.87005 0.0
H948 H 0.27269 0.12181 0.9049 0.0
C949 C 0.3084 0.08238 1.00877 0.0
C950 C 0.32398 0.09627 0.9999 0.0
C951 C 0.29297 0.07903 0.97824 0.0
C952 C 0.26616 0.10747 0.89531 0.0
H953 H 0.20587 0.07437 0.72729 0.0
H954 H 0.23299 0.06853 0.78021 0.0
H955 H 0.24279 0.12194 0.85868 0.0
H956 H 0.33632 0.11631 0.95055 0.0
H957 H 0.30945 0.11055 0.89779 0.0
H958 H 0.2718 0.0566 0.90755 0.0
C959 C 0.2209 0.07887 0.78856 0.0
C960 C 0.2489 0.10756 0.8692 0.0
C961 C 0.20536 0.08223 0.75828 0.0
C962 C 0.32454 0.1056 0.95867 0.0
C963 C 0.30906 0.1024 0.92845 0.0
C964 C 0.26554 0.07091 0.89698 0.0
C965 C 0.22162 0.08995 0.82768 0.0
C966 C 0.23978 0.08935 0.85623 0.0
C967 C 0.29274 0.08964 0.93849 0.0
C968 C 0.27469 0.08919 0.9096 0.0
H969 H 0.17862 0.11756 0.81529 0.0
H970 H 0.20569 0.11179 0.86758 0.0
H971 H 0.24165 0.05674 0.86051 0.0
H972 H 0.3075 0.07495 0.04019 0.0
H973 H 0.28057 0.06912 0.98687 0.0
C974 C 0.08553 0.79887 0.2726 0.0
C975 C 0.09184 0.81842 0.26106 0.0
C976 C 0.0815 0.78439 0.24044 0.0
C977 C 0.0929 0.77422 0.12267 0.0
H978 H 0.06014 0.72665 0.14392 0.0
C979 C 0.08308 0.71163 0.99338 0.0
C980 C 0.09062 0.69286 1.00751 0.0
C981 C 0.07912 0.72709 0.02341 0.0
C982 C 0.06926 0.73992 0.13755 0.0
H983 H 0.09735 0.8386 0.20677 0.0
H984 H 0.08893 0.81394 0.15065 0.0
H985 H 0.05988 0.75434 0.19665 0.0
H986 H 0.09855 0.67517 0.06451 0.0
H987 H 0.09088 0.70201 0.11711 0.0
H988 H 0.10184 0.75982 0.06302 0.0
C989 C 0.08809 0.80929 0.18446 0.0
C990 C 0.06929 0.75578 0.16793 0.0
C991 C 0.09265 0.82361 0.21667 0.0
C992 C 0.09272 0.68944 0.05259 0.0
C993 C 0.08833 0.70478 0.08271 0.0
C994 C 0.09247 0.7586 0.09193 0.0
C995 C 0.08321 0.78919 0.19574 0.0
C996 C 0.08143 0.77306 0.16142 0.0
C997 C 0.08216 0.72396 0.06827 0.0
C998 C 0.08092 0.74116 0.09935 0.0
H999 H 0.08499 0.79432 0.30655 0.0
H1000 H 0.07808 0.76917 0.25096 0.0
H1001 H 0.10288 0.78685 0.11649 0.0
H1002 H 0.08142 0.71484 0.9589 0.0
H1003 H 0.0743 0.74173 0.01147 0.0
C1004 C 0.68775 0.90658 0.96168 0.0
C1005 C 0.68838 0.91464 1.00413 0.0
C1006 C 0.70288 0.91114 0.93132 0.0
C1007 C 0.75651 0.92646 0.92842 0.0
H1008 H 0.74753 0.92648 0.80345 0.0
C1009 C 0.80332 0.92784 0.75245 0.0
C1010 C 0.81836 0.91357 0.76254 0.0
C1011 C 0.7882 0.9326 0.78287 0.0
C1012 C 0.75038 0.92686 0.83823 0.0
H1013 H 0.70477 0.93492 0.0469 0.0
H1014 H 0.73095 0.94322 0.99363 0.0
H1015 H 0.71875 0.92731 0.85295 0.0
H1016 H 0.82989 0.89399 0.81352 0.0
H1017 H 0.80362 0.90209 0.86609 0.0
H1018 H 0.78814 0.92599 0.91371 0.0
C1019 C 0.71898 0.93299 0.9841 0.0
C1020 C 0.73381 0.92707 0.8667 0.0
C1021 C 0.70383 0.92839 0.01455 0.0
C1022 C 0.81859 0.90508 0.8046 0.0
C1023 C 0.80349 0.90981 0.83493 0.0
C1024 C 0.77308 0.92632 0.89996 0.0
C1025 C 0.71905 0.92394 0.9425 0.0
C1026 C 0.73662 0.92639 0.9122 0.0
C1027 C 0.78775 0.92321 0.82411 0.0
C1028 C 0.77025 0.92602 0.85444 0.0
H1029 H 0.67612 0.89589 0.9525 0.0
H1030 H 0.70245 0.9037 0.89986 0.0
H1031 H 0.75935 0.92576 0.96318 0.0
H1032 H 0.80269 0.9347 0.72039 0.0
H1033 H 0.77655 0.94327 0.77363 0.0
C1034 C 0.9079 0.18975 0.21721 0.0
C1035 C 0.91615 0.19043 0.25945 0.0
C1036 C 0.91246 0.20475 0.18657 0.0
C1037 C 0.92843 0.25821 0.18252 0.0
H1038 H 0.9275 0.24873 0.05772 0.0
C1039 C 0.92901 0.30415 1.00553 0.0
C1040 C 0.91509 0.31948 0.01595 0.0
C1041 C 0.93386 0.28915 0.03609 0.0
C1042 C 0.92816 0.25172 0.09243 0.0
H1043 H 0.93677 0.20676 0.30157 0.0
H1044 H 0.9451 0.23269 0.24778 0.0
H1045 H 0.92832 0.22014 0.10761 0.0
H1046 H 0.89626 0.33166 0.06763 0.0
H1047 H 0.90448 0.30556 0.12044 0.0
H1048 H 0.9283 0.28979 0.16733 0.0
C1049 C 0.93471 0.22079 0.23864 0.0
C1050 C 0.92835 0.23526 0.12115 0.0
C1051 C 0.93009 0.20578 0.26938 0.0
C1052 C 0.90708 0.32012 0.05845 0.0
C1053 C 0.91188 0.30512 0.08892 0.0
C1054 C 0.92833 0.27468 0.1538 0.0
C1055 C 0.92548 0.22082 0.19724 0.0
C1056 C 0.92799 0.23825 0.16662 0.0
C1057 C 0.92489 0.28909 0.0778 0.0
C1058 C 0.92769 0.27168 0.10834 0.0
H1059 H 0.89706 0.17819 0.20841 0.0
H1060 H 0.90488 0.20429 0.15531 0.0
H1061 H 0.92799 0.2612 0.21725 0.0
H1062 H 0.93551 0.30322 0.97314 0.0
H1063 H 0.94425 0.27729 0.0266 0.0
C1064 C 0.2045 0.42751 0.51808 0.0
C1065 C 0.18939 0.4133 0.50812 0.0
C1066 C 0.2196 0.43218 0.48756 0.0
C1067 C 0.23447 0.42583 0.3703 0.0
H1068 H 0.28891 0.427 0.41668 0.0
C1069 C 0.31987 0.40666 0.30757 0.0
C1070 C 0.31911 0.41479 0.2652 0.0
C1071 C 0.30473 0.41104 0.33807 0.0
C1072 C 0.27382 0.4267 0.4031 0.0
H1073 H 0.17776 0.39371 0.45728 0.0
H1074 H 0.204 0.40165 0.40454 0.0
H1075 H 0.26025 0.42606 0.46651 0.0
H1076 H 0.30245 0.43497 0.22267 0.0
H1077 H 0.27627 0.44296 0.27617 0.0
H1078 H 0.24805 0.42534 0.30692 0.0
C1079 C 0.20419 0.4094 0.43567 0.0
C1080 C 0.25732 0.42643 0.43176 0.0
C1081 C 0.18911 0.40476 0.4661 0.0
C1082 C 0.3035 0.42841 0.25497 0.0
C1083 C 0.28835 0.43282 0.28555 0.0
C1084 C 0.25097 0.42604 0.34164 0.0
C1085 C 0.21997 0.42276 0.44633 0.0
C1086 C 0.2374 0.42556 0.41579 0.0
C1087 C 0.28842 0.42372 0.32711 0.0
C1088 C 0.27091 0.42604 0.35762 0.0
H1089 H 0.20518 0.4344 0.55011 0.0
H1090 H 0.23128 0.44282 0.49669 0.0
H1091 H 0.21938 0.42547 0.35671 0.0
H1092 H 0.33162 0.39607 0.31661 0.0
H1093 H 0.30528 0.40357 0.36948 0.0
C1094 C 0.41593 0.82408 0.55776 0.0
C1095 C 0.41647 0.81948 0.51305 0.0
C1096 C 0.42046 0.80927 0.58895 0.0
C1097 C 0.43877 0.75538 0.60166 0.0
H1098 H 0.40642 0.75817 0.70704 0.0
C1099 C 0.41513 0.68747 0.71224 0.0
C1100 C 0.4171 0.69024 0.75757 0.0
C1101 C 0.41961 0.70324 0.68326 0.0
C1102 C 0.41574 0.75729 0.67799 0.0
H1103 H 0.42286 0.79592 0.46592 0.0
H1104 H 0.42972 0.76995 0.51974 0.0
H1105 H 0.40557 0.786 0.65553 0.0
H1106 H 0.42619 0.71149 0.80777 0.0
H1107 H 0.43347 0.7391 0.75718 0.0
H1108 H 0.44769 0.72582 0.62352 0.0
C1109 C 0.42652 0.78507 0.53128 0.0
C1110 C 0.41541 0.77337 0.64839 0.0
C1111 C 0.4225 0.80002 0.50015 0.0
C1112 C 0.42461 0.70879 0.77307 0.0
C1113 C 0.42867 0.72466 0.74418 0.0
C1114 C 0.4387 0.73907 0.63089 0.0
C1115 C 0.42506 0.78929 0.57629 0.0
C1116 C 0.42679 0.77267 0.60948 0.0
C1117 C 0.42575 0.7222 0.69909 0.0
C1118 C 0.4271 0.73985 0.66924 0.0
H1119 H 0.41146 0.83899 0.56872 0.0
H1120 H 0.4198 0.81346 0.62306 0.0
H1121 H 0.44811 0.75428 0.57276 0.0
H1122 H 0.40935 0.67339 0.69927 0.0
H1123 H 0.41715 0.70098 0.64865 0.0
C1124 C 0.70199 0.58218 0.26294 0.0
C1125 C 0.68622 0.59586 0.27181 0.0
C1126 C 0.71746 0.57901 0.29349 0.0
C1127 C 0.74374 0.60776 0.3768 0.0
H1128 H 0.76924 0.55736 0.41068 0.0
C1129 C 0.81984 0.60789 0.4644 0.0
C1130 C 0.82006 0.59782 0.50483 0.0
C1131 C 0.80429 0.6045 0.43447 0.0
C1132 C 0.76224 0.57152 0.40141 0.0
H1133 H 0.67356 0.6157 0.32119 0.0
H1134 H 0.70047 0.61024 0.37403 0.0
H1135 H 0.73907 0.55684 0.36372 0.0
H1136 H 0.80489 0.57508 0.5439 0.0
H1137 H 0.77783 0.56894 0.49101 0.0
H1138 H 0.76684 0.62252 0.41364 0.0
C1139 C 0.701 0.60212 0.34333 0.0
C1140 C 0.74506 0.57122 0.37452 0.0
C1141 C 0.6855 0.60515 0.31308 0.0
C1142 C 0.80519 0.58309 0.51309 0.0
C1143 C 0.78968 0.57956 0.48282 0.0
C1144 C 0.76101 0.60807 0.40288 0.0
C1145 C 0.71751 0.58959 0.33329 0.0
C1146 C 0.73556 0.58938 0.36221 0.0
C1147 C 0.78867 0.59083 0.44397 0.0
C1148 C 0.77048 0.58999 0.41551 0.0
H1149 H 0.70302 0.57478 0.23149 0.0
H1150 H 0.73 0.56928 0.28485 0.0
H1151 H 0.73694 0.62201 0.36745 0.0
H1152 H 0.83107 0.61925 0.45675 0.0
H1153 H 0.80407 0.61317 0.40449 0.0
C1154 C 0.60585 0.18655 0.56313 0.0
C1155 C 0.59666 0.18707 0.52178 0.0
C1156 C 0.60258 0.20209 0.59323 0.0
C1157 C 0.57093 0.24549 0.62458 0.0
H1158 H 0.62173 0.26842 0.66352 0.0
C1159 C 0.58172 0.30491 0.76504 0.0
C1160 C 0.59604 0.32022 0.75716 0.0
C1161 C 0.57845 0.2896 0.73413 0.0
C1162 C 0.60741 0.26227 0.6528 0.0
H1163 H 0.57554 0.20358 0.4811 0.0
H1164 H 0.56957 0.23061 0.53426 0.0
H1165 H 0.62187 0.23864 0.61681 0.0
H1166 H 0.61695 0.33223 0.70913 0.0
H1167 H 0.61133 0.30556 0.65574 0.0
H1168 H 0.55654 0.26919 0.66143 0.0
C1169 C 0.57944 0.2182 0.54305 0.0
C1170 C 0.60748 0.24508 0.6264 0.0
C1171 C 0.58287 0.20271 0.51263 0.0
C1172 C 0.6059 0.32066 0.71648 0.0
C1173 C 0.60278 0.3053 0.68591 0.0
C1174 C 0.57085 0.26259 0.6518 0.0
C1175 C 0.58988 0.21843 0.58298 0.0
C1176 C 0.58928 0.23648 0.61193 0.0
C1177 C 0.58956 0.28923 0.69501 0.0
C1178 C 0.58913 0.27123 0.66589 0.0
H1179 H 0.61649 0.17473 0.57146 0.0
H1180 H 0.61061 0.20173 0.62401 0.0
H1181 H 0.55668 0.23918 0.61386 0.0
H1182 H 0.57387 0.3041 0.79603 0.0
H1183 H 0.56818 0.2774 0.74202 0.0
loop_
_geom_bond_atom_site_label_1
_geom_bond_atom_site_label_2
_geom_bond_distance
_geom_bond_site_symmetry_2
_ccdc_geom_bond_type
O0 Cd1 2.223 . S
O0 C8 1.315 . S
Cd1 O0 2.223 . S
Cd1 O4 2.297 . S
Cd1 O5 2.439 . S
Cd1 O11 2.240 . S
Cd2 O3 2.240 . S
Cd2 O10 2.223 . S
Cd2 O12 2.297 . S
Cd2 O13 2.439 . S
O3 Cd2 2.240 . S
O3 C8 1.279 . S
O4 Cd1 2.297 . S
O4 C6 1.247 . S
O5 Cd1 2.439 . S
O5 C6 1.208 . S
C6 O4 1.247 . S
C6 O5 1.208 . S
C7 O12 1.247 . S
C7 O13 1.208 . S
C8 O0 1.315 . S
C8 O3 1.279 . S
C9 O10 1.315 . S
C9 O11 1.279 . S
O10 Cd2 2.223 . S
O10 C9 1.315 . S
O11 Cd1 2.240 . S
O11 C9 1.279 . S
O12 Cd2 2.297 . S
O12 C7 1.247 . S
O13 Cd2 2.439 . S
O13 C7 1.208 . S
O14 Cd15 2.223 . S
O14 C22 1.315 . S
Cd15 O14 2.223 . S
Cd15 O18 2.297 . S
Cd15 O19 2.439 . S
Cd15 O25 2.240 . S
Cd16 O17 2.240 . S
Cd16 O24 2.223 . S
Cd16 O26 2.297 . S
Cd16 O27 2.439 . S
O17 Cd16 2.240 . S
O17 C22 1.279 . S
O18 Cd15 2.297 . S
O18 C20 1.247 . S
O19 Cd15 2.439 . S
O19 C20 1.208 . S
C20 O18 1.247 . S
C20 O19 1.208 . S
C21 O26 1.247 . S
C21 O27 1.208 . S
C22 O14 1.315 . S
C22 O17 1.279 . S
C23 O24 1.315 . S
C23 O25 1.279 . S
O24 Cd16 2.223 . S
O24 C23 1.315 . S
O25 Cd15 2.240 . S
O25 C23 1.279 . S
O26 Cd16 2.297 . S
O26 C21 1.247 . S
O27 Cd16 2.439 . S
O27 C21 1.208 . S
O28 Cd29 2.223 . S
O28 C36 1.315 . S
Cd29 O28 2.223 . S
Cd29 O32 2.297 . S
Cd29 O33 2.439 . S
Cd29 O39 2.240 . S
Cd30 O31 2.240 . S
Cd30 O38 2.223 . S
Cd30 O40 2.297 . S
Cd30 O41 2.439 . S
O31 Cd30 2.240 . S
O31 C36 1.279 . S
O32 Cd29 2.297 . S
O32 C34 1.247 . S
O33 Cd29 2.439 . S
O33 C34 1.208 . S
C34 O32 1.247 . S
C34 O33 1.208 . S
C35 O40 1.247 . S
C35 O41 1.208 . S
C36 O28 1.315 . S
C36 O31 1.279 . S
C37 O38 1.315 . S
C37 O39 1.279 . S
O38 Cd30 2.223 . S
O38 C37 1.315 . S
O39 Cd29 2.240 . S
O39 C37 1.279 . S
O40 Cd30 2.297 . S
O40 C35 1.247 . S
O41 Cd30 2.439 . S
O41 C35 1.208 . S
O42 Cd43 2.223 . S
O42 C50 1.315 . S
Cd43 O42 2.223 . S
Cd43 O46 2.297 . S
Cd43 O47 2.439 . S
Cd43 O53 2.240 . S
Cd44 O45 2.240 . S
Cd44 O52 2.223 . S
Cd44 O54 2.297 . S
Cd44 O55 2.439 . S
O45 Cd44 2.240 . S
O45 C50 1.279 . S
O46 Cd43 2.297 . S
O46 C48 1.247 . S
O47 Cd43 2.439 . S
O47 C48 1.208 . S
C48 O46 1.247 . S
C48 O47 1.208 . S
C49 O54 1.247 . S
C49 O55 1.208 . S
C50 O42 1.315 . S
C50 O45 1.279 . S
C51 O52 1.315 . S
C51 O53 1.279 . S
O52 Cd44 2.223 . S
O52 C51 1.315 . S
O53 Cd43 2.240 . S
O53 C51 1.279 . S
O54 Cd44 2.297 . S
O54 C49 1.247 . S
O55 Cd44 2.439 . S
O55 C49 1.208 . S
O56 Cd57 2.223 . S
O56 C64 1.315 . S
Cd57 O56 2.223 . S
Cd57 O60 2.297 . S
Cd57 O61 2.439 . S
Cd57 O67 2.240 . S
Cd58 O59 2.240 . S
Cd58 O66 2.223 . S
Cd58 O68 2.297 . S
Cd58 O69 2.439 . S
O59 Cd58 2.240 . S
O59 C64 1.279 . S
O60 Cd57 2.297 . S
O60 C62 1.247 . S
O61 Cd57 2.439 . S
O61 C62 1.208 . S
C62 O60 1.247 . S
C62 O61 1.208 . S
C63 O68 1.247 . S
C63 O69 1.208 . S
C64 O56 1.315 . S
C64 O59 1.279 . S
C65 O66 1.315 . S
C65 O67 1.279 . S
O66 Cd58 2.223 . S
O66 C65 1.315 . S
O67 Cd57 2.240 . S
O67 C65 1.279 . S
O68 Cd58 2.297 . S
O68 C63 1.247 . S
O69 Cd58 2.439 . S
O69 C63 1.208 . S
O70 Cd71 2.223 . S
O70 C78 1.315 . S
Cd71 O70 2.223 . S
Cd71 O74 2.297 . S
Cd71 O75 2.439 . S
Cd71 O81 2.240 . S
Cd72 O73 2.240 . S
Cd72 O80 2.223 . S
Cd72 O82 2.297 . S
Cd72 O83 2.439 . S
O73 Cd72 2.240 . S
O73 C78 1.279 . S
O74 Cd71 2.297 . S
O74 C76 1.247 . S
O75 Cd71 2.439 . S
O75 C76 1.208 . S
C76 O74 1.247 . S
C76 O75 1.208 . S
C77 O82 1.247 . S
C77 O83 1.208 . S
C78 O70 1.315 . S
C78 O73 1.279 . S
C79 O80 1.315 . S
C79 O81 1.279 . S
O80 Cd72 2.223 . S
O80 C79 1.315 . S
O81 Cd71 2.240 . S
O81 C79 1.279 . S
O82 Cd72 2.297 . S
O82 C77 1.247 . S
O83 Cd72 2.439 . S
O83 C77 1.208 . S
O84 Cd85 2.223 . S
O84 C92 1.315 . S
Cd85 O84 2.223 . S
Cd85 O88 2.297 . S
Cd85 O89 2.439 . S
Cd85 O95 2.240 . S
Cd86 O87 2.240 . S
Cd86 O94 2.223 . S
Cd86 O96 2.297 . S
Cd86 O97 2.439 . S
O87 Cd86 2.240 . S
O87 C92 1.279 . S
O88 Cd85 2.297 . S
O88 C90 1.247 . S
O89 Cd85 2.439 . S
O89 C90 1.208 . S
C90 O88 1.247 . S
C90 O89 1.208 . S
C91 O96 1.247 . S
C91 O97 1.208 . S
C92 O84 1.315 . S
C92 O87 1.279 . S
C93 O94 1.315 . S
C93 O95 1.279 . S
O94 Cd86 2.223 . S
O94 C93 1.315 . S
O95 Cd85 2.240 . S
O95 C93 1.279 . S
O96 Cd86 2.297 . S
O96 C91 1.247 . S
O97 Cd86 2.439 . S
O97 C91 1.208 . S
O98 Cd99 2.223 . S
O98 C106 1.315 . S
Cd99 O98 2.223 . S
Cd99 O102 2.297 . S
Cd99 O103 2.439 . S
Cd99 O109 2.240 . S
Cd100 O101 2.240 . S
Cd100 O108 2.223 . S
Cd100 O110 2.297 . S
Cd100 O111 2.439 . S
O101 Cd100 2.240 . S
O101 C106 1.279 . S
O102 Cd99 2.297 . S
O102 C104 1.247 . S
O103 Cd99 2.439 . S
O103 C104 1.208 . S
C104 O102 1.247 . S
C104 O103 1.208 . S
C105 O110 1.247 . S
C105 O111 1.208 . S
C106 O98 1.315 . S
C106 O101 1.279 . S
C107 O108 1.315 . S
C107 O109 1.279 . S
O108 Cd100 2.223 . S
O108 C107 1.315 . S
O109 Cd99 2.240 . S
O109 C107 1.279 . S
O110 Cd100 2.297 . S
O110 C105 1.247 . S
O111 Cd100 2.439 . S
O111 C105 1.208 . S
O112 Cd113 2.223 . S
O112 C120 1.315 . S
Cd113 O112 2.223 . S
Cd113 O116 2.297 . S
Cd113 O117 2.439 . S
Cd113 O123 2.240 . S
Cd114 O115 2.240 . S
Cd114 O122 2.223 . S
Cd114 O124 2.297 . S
Cd114 O125 2.439 . S
O115 Cd114 2.240 . S
O115 C120 1.279 . S
O116 Cd113 2.297 . S
O116 C118 1.247 . S
O117 Cd113 2.439 . S
O117 C118 1.208 . S
C118 O116 1.247 . S
C118 O117 1.208 . S
C119 O124 1.247 . S
C119 O125 1.208 . S
C120 O112 1.315 . S
C120 O115 1.279 . S
C121 O122 1.315 . S
C121 O123 1.279 . S
O122 Cd114 2.223 . S
O122 C121 1.315 . S
O123 Cd113 2.240 . S
O123 C121 1.279 . S
O124 Cd114 2.297 . S
O124 C119 1.247 . S
O125 Cd114 2.439 . S
O125 C119 1.208 . S
O126 Cd127 2.223 . S
O126 C134 1.315 . S
Cd127 O126 2.223 . S
Cd127 O130 2.297 . S
Cd127 O131 2.439 . S
Cd127 O137 2.240 . S
Cd128 O129 2.240 . S
Cd128 O136 2.223 . S
Cd128 O138 2.297 . S
Cd128 O139 2.439 . S
O129 Cd128 2.240 . S
O129 C134 1.279 . S
O130 Cd127 2.297 . S
O130 C132 1.247 . S
O131 Cd127 2.439 . S
O131 C132 1.208 . S
C132 O130 1.247 . S
C132 O131 1.208 . S
C133 O138 1.247 . S
C133 O139 1.208 . S
C134 O126 1.315 . S
C134 O129 1.279 . S
C135 O136 1.315 . S
C135 O137 1.279 . S
O136 Cd128 2.223 . S
O136 C135 1.315 . S
O137 Cd127 2.240 . S
O137 C135 1.279 . S
O138 Cd128 2.297 . S
O138 C133 1.247 . S
O139 Cd128 2.439 . S
O139 C133 1.208 . S
O140 Cd141 2.223 . S
O140 C148 1.315 . S
Cd141 O140 2.223 . S
Cd141 O144 2.297 . S
Cd141 O145 2.439 . S
Cd141 O151 2.240 . S
Cd142 O143 2.240 . S
Cd142 O150 2.223 . S
Cd142 O152 2.297 . S
Cd142 O153 2.439 . S
O143 Cd142 2.240 . S
O143 C148 1.279 . S
O144 Cd141 2.297 . S
O144 C146 1.247 . S
O145 Cd141 2.439 . S
O145 C146 1.208 . S
C146 O144 1.247 . S
C146 O145 1.208 . S
C147 O152 1.247 . S
C147 O153 1.208 . S
C148 O140 1.315 . S
C148 O143 1.279 . S
C149 O150 1.315 . S
C149 O151 1.279 . S
O150 Cd142 2.223 . S
O150 C149 1.315 . S
O151 Cd141 2.240 . S
O151 C149 1.279 . S
O152 Cd142 2.297 . S
O152 C147 1.247 . S
O153 Cd142 2.439 . S
O153 C147 1.208 . S
O154 Cd155 2.223 . S
O154 C162 1.315 . S
Cd155 O154 2.223 . S
Cd155 O158 2.297 . S
Cd155 O159 2.439 . S
Cd155 O165 2.240 . S
Cd156 O157 2.240 . S
Cd156 O164 2.223 . S
Cd156 O166 2.297 . S
Cd156 O167 2.439 . S
O157 Cd156 2.240 . S
O157 C162 1.279 . S
O158 Cd155 2.297 . S
O158 C160 1.247 . S
O159 Cd155 2.439 . S
O159 C160 1.208 . S
C160 O158 1.247 . S
C160 O159 1.208 . S
C161 O166 1.247 . S
C161 O167 1.208 . S
C162 O154 1.315 . S
C162 O157 1.279 . S
C163 O164 1.315 . S
C163 O165 1.279 . S
O164 Cd156 2.223 . S
O164 C163 1.315 . S
O165 Cd155 2.240 . S
O165 C163 1.279 . S
O166 Cd156 2.297 . S
O166 C161 1.247 . S
O167 Cd156 2.439 . S
O167 C161 1.208 . S
O168 Cd169 2.223 . S
O168 C176 1.315 . S
Cd169 O168 2.223 . S
Cd169 O172 2.297 . S
Cd169 O173 2.439 . S
Cd169 O179 2.240 . S
Cd170 O171 2.240 . S
Cd170 O178 2.223 . S
Cd170 O180 2.297 . S
Cd170 O181 2.439 . S
O171 Cd170 2.240 . S
O171 C176 1.279 . S
O172 Cd169 2.297 . S
O172 C174 1.247 . S
O173 Cd169 2.439 . S
O173 C174 1.208 . S
C174 O172 1.247 . S
C174 O173 1.208 . S
C175 O180 1.247 . S
C175 O181 1.208 . S
C176 O168 1.315 . S
C176 O171 1.279 . S
C177 O178 1.315 . S
C177 O179 1.279 . S
O178 Cd170 2.223 . S
O178 C177 1.315 . S
O179 Cd169 2.240 . S
O179 C177 1.279 . S
O180 Cd170 2.297 . S
O180 C175 1.247 . S
O181 Cd170 2.439 . S
O181 C175 1.208 . S
O182 Cd183 2.223 . S
O182 C190 1.315 . S
Cd183 O182 2.223 . S
Cd183 O186 2.297 . S
Cd183 O187 2.439 . S
Cd183 O193 2.240 . S
Cd184 O185 2.240 . S
Cd184 O192 2.223 . S
Cd184 O194 2.297 . S
Cd184 O195 2.439 . S
O185 Cd184 2.240 . S
O185 C190 1.279 . S
O186 Cd183 2.297 . S
O186 C188 1.247 . S
O187 Cd183 2.439 . S
O187 C188 1.208 . S
C188 O186 1.247 . S
C188 O187 1.208 . S
C189 O194 1.247 . S
C189 O195 1.208 . S
C190 O182 1.315 . S
C190 O185 1.279 . S
C191 O192 1.315 . S
C191 O193 1.279 . S
O192 Cd184 2.223 . S
O192 C191 1.315 . S
O193 Cd183 2.240 . S
O193 C191 1.279 . S
O194 Cd184 2.297 . S
O194 C189 1.247 . S
O195 Cd184 2.439 . S
O195 C189 1.208 . S
O196 Cd197 2.223 . S
O196 C204 1.315 . S
Cd197 O196 2.223 . S
Cd197 O200 2.297 . S
Cd197 O201 2.439 . S
Cd197 O207 2.240 . S
Cd198 O199 2.240 . S
Cd198 O206 2.223 . S
Cd198 O208 2.297 . S
Cd198 O209 2.439 . S
O199 Cd198 2.240 . S
O199 C204 1.279 . S
O200 Cd197 2.297 . S
O200 C202 1.247 . S
O201 Cd197 2.439 . S
O201 C202 1.208 . S
C202 O200 1.247 . S
C202 O201 1.208 . S
C203 O208 1.247 . S
C203 O209 1.208 . S
C204 O196 1.315 . S
C204 O199 1.279 . S
C205 O206 1.315 . S
C205 O207 1.279 . S
O206 Cd198 2.223 . S
O206 C205 1.315 . S
O207 Cd197 2.240 . S
O207 C205 1.279 . S
O208 Cd198 2.297 . S
O208 C203 1.247 . S
O209 Cd198 2.439 . S
O209 C203 1.208 . S
O210 Cd211 2.223 . S
O210 C218 1.315 . S
Cd211 O210 2.223 . S
Cd211 O214 2.297 . S
Cd211 O215 2.439 . S
Cd211 O221 2.240 . S
Cd212 O213 2.240 . S
Cd212 O220 2.223 . S
Cd212 O222 2.297 . S
Cd212 O223 2.439 . S
O213 Cd212 2.240 . S
O213 C218 1.279 . S
O214 Cd211 2.297 . S
O214 C216 1.247 . S
O215 Cd211 2.439 . S
O215 C216 1.208 . S
C216 O214 1.247 . S
C216 O215 1.208 . S
C217 O222 1.247 . S
C217 O223 1.208 . S
C218 O210 1.315 . S
C218 O213 1.279 . S
C219 O220 1.315 . S
C219 O221 1.279 . S
O220 Cd212 2.223 . S
O220 C219 1.315 . S
O221 Cd211 2.240 . S
O221 C219 1.279 . S
O222 Cd212 2.297 . S
O222 C217 1.247 . S
O223 Cd212 2.439 . S
O223 C217 1.208 . S
C224 C225 1.349 . S
C224 C226 1.327 . S
C224 H249 0.950 . S
C225 C224 1.349 . S
C225 C241 1.349 . S
C226 C224 1.327 . S
C226 C245 1.429 . S
C226 H250 0.950 . S
C227 C244 1.574 . S
C227 C246 1.368 . S
C227 H251 0.949 . S
H228 C232 0.949 1_545 S
C229 C230 1.349 . S
C229 C231 1.327 . S
C229 H252 0.950 . S
C230 C229 1.349 . S
C230 C242 1.349 . S
C231 C229 1.327 . S
C231 C247 1.429 . S
C231 H253 0.950 . S
C232 H228 0.949 1_565 S
C232 C240 1.574 . S
C232 C248 1.368 . S
H233 C241 0.950 . S
H234 C239 0.950 . S
H235 C240 0.949 . S
H236 C242 0.950 . S
H237 C243 0.950 . S
H238 C244 0.949 . S
C239 H234 0.950 . S
C239 C241 1.327 . S
C239 C245 1.429 . S
C240 C232 1.574 . S
C240 H235 0.949 . S
C240 C246 1.368 . S
C241 C225 1.349 . S
C241 H233 0.950 . S
C241 C239 1.327 . S
C242 C230 1.349 . S
C242 H236 0.950 . S
C242 C243 1.327 . S
C243 H237 0.950 . S
C243 C242 1.327 . S
C243 C247 1.429 . S
C244 C227 1.574 . S
C244 H238 0.949 . S
C244 C248 1.368 . S
C245 C226 1.429 . S
C245 C239 1.429 . S
C245 C246 1.523 . S
C246 C227 1.368 . S
C246 C240 1.368 . S
C246 C245 1.523 . S
C247 C231 1.429 . S
C247 C243 1.429 . S
C247 C248 1.523 1_545 S
C248 C232 1.368 . S
C248 C244 1.368 . S
C248 C247 1.523 1_565 S
H249 C224 0.950 . S
H250 C226 0.950 . S
H251 C227 0.949 . S
H252 C229 0.950 . S
H253 C231 0.950 . S
C254 C255 1.349 . S
C254 C256 1.327 . S
C254 H279 0.950 . S
C255 C254 1.349 . S
C255 C271 1.349 . S
C256 C254 1.327 . S
C256 C275 1.429 . S
C256 H280 0.950 . S
C257 C274 1.574 . S
C257 C276 1.368 . S
C257 H281 0.929 1_655 S
H258 C262 0.949 . S
C259 C260 1.349 . S
C259 C261 1.327 . S
C259 H282 0.950 . S
C260 C259 1.349 . S
C260 C272 1.349 . S
C261 C259 1.327 . S
C261 C277 1.429 . S
C261 H283 0.950 . S
C262 H258 0.949 . S
C262 C270 1.574 . S
C262 C278 1.368 . S
H263 C271 0.950 . S
H264 C269 0.950 . S
H265 C270 0.949 . S
H266 C272 0.950 . S
H267 C273 0.950 . S
H268 C274 0.949 . S
C269 H264 0.950 . S
C269 C271 1.327 . S
C269 C275 1.429 . S
C270 C262 1.574 . S
C270 H265 0.949 . S
C270 C276 1.368 . S
C271 C255 1.349 . S
C271 H263 0.950 . S
C271 C269 1.327 . S
C272 C260 1.349 . S
C272 H266 0.950 . S
C272 C273 1.327 . S
C273 H267 0.950 . S
C273 C272 1.327 . S
C273 C277 1.429 . S
C274 C257 1.574 . S
C274 H268 0.949 . S
C274 C278 1.368 . S
C275 C256 1.429 . S
C275 C269 1.429 . S
C275 C276 1.523 1_455 S
C276 C257 1.368 . S
C276 C270 1.368 . S
C276 C275 1.523 1_655 S
C277 C261 1.429 . S
C277 C273 1.429 . S
C277 C278 1.523 . S
C278 C262 1.368 . S
C278 C274 1.368 . S
C278 C277 1.523 . S
H279 C254 0.950 . S
H280 C256 0.950 . S
H281 C257 0.929 1_455 S
H282 C259 0.950 . S
H283 C261 0.950 . S
C284 C285 1.349 . S
C284 C286 1.327 . S
C284 H309 0.950 . S
C285 C284 1.349 . S
C285 C301 1.349 . S
C286 C284 1.327 . S
C286 C305 1.429 . S
C286 H310 0.950 . S
C287 C304 1.574 . S
C287 C306 1.368 . S
C287 H311 0.949 . S
H288 C292 0.949 . S
C289 C290 1.349 . S
C289 C291 1.327 . S
C289 H312 0.950 . S
C290 C289 1.349 . S
C290 C302 1.349 . S
C291 C289 1.327 . S
C291 C307 1.429 . S
C291 H313 0.950 . S
C292 H288 0.949 . S
C292 C300 1.574 . S
C292 C308 1.368 . S
H293 C301 0.950 . S
H294 C299 0.950 . S
H295 C300 0.949 . S
H296 C302 0.950 . S
H297 C303 0.950 . S
H298 C304 0.949 . S
C299 H294 0.950 . S
C299 C301 1.327 . S
C299 C305 1.429 . S
C300 C292 1.574 . S
C300 H295 0.949 . S
C300 C306 1.368 . S
C301 C285 1.349 . S
C301 H293 0.950 . S
C301 C299 1.327 . S
C302 C290 1.349 . S
C302 H296 0.950 . S
C302 C303 1.327 . S
C303 H297 0.950 . S
C303 C302 1.327 . S
C303 C307 1.429 . S
C304 C287 1.574 . S
C304 H298 0.949 . S
C304 C308 1.368 . S
C305 C286 1.429 . S
C305 C299 1.429 . S
C305 C306 1.523 1_565 S
C306 C287 1.368 . S
C306 C300 1.368 . S
C306 C305 1.523 1_545 S
C307 C291 1.429 . S
C307 C303 1.429 . S
C307 C308 1.523 . S
C308 C292 1.368 . S
C308 C304 1.368 . S
C308 C307 1.523 . S
H309 C284 0.950 . S
H310 C286 0.950 . S
H311 C287 0.949 . S
H312 C289 0.950 . S
H313 C291 0.950 . S
C314 C315 1.349 . S
C314 C316 1.327 . S
C314 H339 0.950 . S
C315 C314 1.349 . S
C315 C331 1.349 . S
C316 C314 1.327 . S
C316 C335 1.429 . S
C316 H340 0.950 . S
C317 C334 1.574 . S
C317 C336 1.368 . S
C317 H341 0.949 . S
H318 C322 0.949 . S
C319 C320 1.349 . S
C319 C321 1.327 . S
C319 H342 0.950 . S
C320 C319 1.349 . S
C320 C332 1.349 . S
C321 C319 1.327 . S
C321 C337 1.429 . S
C321 H343 0.950 . S
C322 H318 0.949 . S
C322 C330 1.574 . S
C322 C338 1.368 . S
H323 C331 0.950 . S
H324 C329 0.950 . S
H325 C330 0.949 . S
H326 C332 0.950 . S
H327 C333 0.950 . S
H328 C334 0.949 . S
C329 H324 0.950 . S
C329 C331 1.327 . S
C329 C335 1.429 . S
C330 C322 1.574 . S
C330 H325 0.949 . S
C330 C336 1.368 . S
C331 C315 1.349 . S
C331 H323 0.950 . S
C331 C329 1.327 . S
C332 C320 1.349 . S
C332 H326 0.950 . S
C332 C333 1.327 . S
C333 H327 0.950 . S
C333 C332 1.327 . S
C333 C337 1.429 . S
C334 C317 1.574 . S
C334 H328 0.949 . S
C334 C338 1.368 . S
C335 C316 1.429 . S
C335 C329 1.429 . S
C335 C336 1.523 . S
C336 C317 1.368 . S
C336 C330 1.368 . S
C336 C335 1.523 . S
C337 C321 1.429 . S
C337 C333 1.429 . S
C337 C338 1.523 1_655 S
C338 C322 1.368 . S
C338 C334 1.368 . S
C338 C337 1.523 1_455 S
H339 C314 0.950 . S
H340 C316 0.950 . S
H341 C317 0.949 . S
H342 C319 0.950 . S
H343 C321 0.950 . S
C344 C345 1.349 . S
C344 C346 1.327 . S
C344 H369 0.950 . S
C345 C344 1.349 . S
C345 C361 1.349 1_554 S
C346 C344 1.327 . S
C346 C365 1.429 . S
C346 H370 0.950 . S
C347 C364 1.574 . S
C347 C366 1.368 . S
C347 H371 0.949 . S
H348 C352 0.949 . S
C349 C350 1.349 . S
C349 C351 1.327 . S
C349 H372 0.950 . S
C350 C349 1.349 . S
C350 C362 1.349 . S
C351 C349 1.327 . S
C351 C367 1.429 . S
C351 H373 0.950 . S
C352 H348 0.949 . S
C352 C360 1.574 . S
C352 C368 1.368 1_554 S
H353 C361 0.950 . S
H354 C359 0.950 . S
H355 C360 0.949 . S
H356 C362 0.950 . S
H357 C363 0.950 . S
H358 C364 0.949 . S
C359 H354 0.950 . S
C359 C361 1.327 . S
C359 C365 1.429 1_556 S
C360 C352 1.574 . S
C360 H355 0.949 . S
C360 C366 1.368 1_554 S
C361 C345 1.349 1_556 S
C361 H353 0.950 . S
C361 C359 1.327 . S
C362 C350 1.349 . S
C362 H356 0.950 . S
C362 C363 1.327 . S
C363 H357 0.950 . S
C363 C362 1.327 . S
C363 C367 1.429 . S
C364 C347 1.574 . S
C364 H358 0.949 . S
C364 C368 1.368 . S
C365 C346 1.429 . S
C365 C359 1.429 1_554 S
C365 C366 1.523 1_554 S
C366 C347 1.368 . S
C366 C360 1.368 1_556 S
C366 C365 1.523 1_556 S
C367 C351 1.429 . S
C367 C363 1.429 . S
C367 C368 1.523 . S
C368 C352 1.368 1_556 S
C368 C364 1.368 . S
C368 C367 1.523 . S
H369 C344 0.950 . S
H370 C346 0.950 . S
H371 C347 0.949 . S
H372 C349 0.950 . S
H373 C351 0.950 . S
C374 C375 1.349 1_554 S
C374 C376 1.327 . S
C374 H399 0.950 . S
C375 C374 1.349 1_556 S
C375 C391 1.349 . S
C376 C374 1.327 . S
C376 C395 1.429 1_554 S
C376 H400 0.950 . S
C377 C394 1.574 . S
C377 C396 1.368 1_556 S
C377 H401 0.949 . S
H378 C382 0.949 . S
C379 C380 1.349 . S
C379 C381 1.327 . S
C379 H402 0.950 . S
C380 C379 1.349 . S
C380 C392 1.349 . S
C381 C379 1.327 . S
C381 C397 1.429 . S
C381 H403 0.950 1_554 S
C382 H378 0.949 . S
C382 C390 1.574 . S
C382 C398 1.368 . S
H383 C391 0.950 . S
H384 C389 0.950 . S
H385 C390 0.949 . S
H386 C392 0.950 . S
H387 C393 0.950 . S
H388 C394 0.949 . S
C389 H384 0.950 . S
C389 C391 1.327 . S
C389 C395 1.429 . S
C390 C382 1.574 . S
C390 H385 0.949 . S
C390 C396 1.368 . S
C391 C375 1.349 . S
C391 H383 0.950 . S
C391 C389 1.327 . S
C392 C380 1.349 . S
C392 H386 0.950 . S
C392 C393 1.327 . S
C393 H387 0.950 . S
C393 C392 1.327 . S
C393 C397 1.429 . S
C394 C377 1.574 . S
C394 H388 0.949 . S
C394 C398 1.368 1_556 S
C395 C376 1.429 1_556 S
C395 C389 1.429 . S
C395 C396 1.523 1_556 S
C396 C377 1.368 1_554 S
C396 C390 1.368 . S
C396 C395 1.523 1_554 S
C397 C381 1.429 . S
C397 C393 1.429 . S
C397 C398 1.523 . S
C398 C382 1.368 . S
C398 C394 1.368 1_554 S
C398 C397 1.523 . S
H399 C374 0.950 . S
H400 C376 0.950 . S
H401 C377 0.949 . S
H402 C379 0.950 . S
H403 C381 0.950 1_556 S
C404 C405 1.349 . S
C404 C406 1.327 . S
C404 H429 0.950 . S
C405 C404 1.349 . S
C405 C421 1.349 . S
C406 C404 1.327 . S
C406 C425 1.429 . S
C406 H430 0.950 1_556 S
C407 C424 1.574 . S
C407 C426 1.368 . S
C407 H431 0.949 . S
H408 C412 0.949 . S
C409 C410 1.349 1_556 S
C409 C411 1.327 . S
C409 H432 0.950 . S
C410 C409 1.349 1_554 S
C410 C422 1.349 . S
C411 C409 1.327 . S
C411 C427 1.429 1_556 S
C411 H433 0.950 . S
C412 H408 0.949 . S
C412 C420 1.574 . S
C412 C428 1.368 1_554 S
H413 C421 0.950 . S
H414 C419 0.950 . S
H415 C420 0.949 . S
H416 C422 0.950 . S
H417 C423 0.950 . S
H418 C424 0.949 . S
C419 H414 0.950 . S
C419 C421 1.327 . S
C419 C425 1.429 . S
C420 C412 1.574 . S
C420 H415 0.949 . S
C420 C426 1.368 1_554 S
C421 C405 1.349 . S
C421 H413 0.950 . S
C421 C419 1.327 . S
C422 C410 1.349 . S
C422 H416 0.950 . S
C422 C423 1.327 . S
C423 H417 0.950 . S
C423 C422 1.327 . S
C423 C427 1.429 . S
C424 C407 1.574 . S
C424 H418 0.949 . S
C424 C428 1.368 . S
C425 C406 1.429 . S
C425 C419 1.429 . S
C425 C426 1.523 . S
C426 C407 1.368 . S
C426 C420 1.368 1_556 S
C426 C425 1.523 . S
C427 C411 1.429 1_554 S
C427 C423 1.429 . S
C427 C428 1.523 1_554 S
C428 C412 1.368 1_556 S
C428 C424 1.368 . S
C428 C427 1.523 1_556 S
H429 C404 0.950 . S
H430 C406 0.950 1_554 S
H431 C407 0.949 . S
H432 C409 0.950 . S
H433 C411 0.950 . S
C434 C435 1.349 . S
C434 C436 1.327 . S
C434 H459 0.950 . S
C435 C434 1.349 . S
C435 C451 1.349 . S
C436 C434 1.327 . S
C436 C455 1.429 . S
C436 H460 0.950 . S
C437 C454 1.574 . S
C437 C456 1.368 1_556 S
C437 H461 0.949 . S
H438 C442 0.949 . S
C439 C440 1.349 . S
C439 C441 1.327 . S
C439 H462 0.950 . S
C440 C439 1.349 . S
C440 C452 1.349 1_556 S
C441 C439 1.327 . S
C441 C457 1.429 . S
C441 H463 0.950 . S
C442 H438 0.949 . S
C442 C450 1.574 . S
C442 C458 1.368 . S
H443 C451 0.950 . S
H444 C449 0.950 . S
H445 C450 0.949 . S
H446 C452 0.950 . S
H447 C453 0.950 . S
H448 C454 0.949 . S
C449 H444 0.950 . S
C449 C451 1.327 . S
C449 C455 1.429 . S
C450 C442 1.574 . S
C450 H445 0.949 . S
C450 C456 1.368 . S
C451 C435 1.349 . S
C451 H443 0.950 . S
C451 C449 1.327 . S
C452 C440 1.349 1_554 S
C452 H446 0.950 . S
C452 C453 1.327 . S
C453 H447 0.950 . S
C453 C452 1.327 . S
C453 C457 1.429 1_554 S
C454 C437 1.574 . S
C454 H448 0.949 . S
C454 C458 1.368 1_556 S
C455 C436 1.429 . S
C455 C449 1.429 . S
C455 C456 1.523 . S
C456 C437 1.368 1_554 S
C456 C450 1.368 . S
C456 C455 1.523 . S
C457 C441 1.429 . S
C457 C453 1.429 1_556 S
C457 C458 1.523 1_556 S
C458 C442 1.368 . S
C458 C454 1.368 1_554 S
C458 C457 1.523 1_554 S
H459 C434 0.950 . S
H460 C436 0.950 . S
H461 C437 0.949 . S
H462 C439 0.950 . S
H463 C441 0.950 . S
C464 C465 1.349 . S
C464 C466 1.327 . S
C464 H489 0.950 . S
C465 C464 1.349 . S
C465 C481 1.349 . S
C466 C464 1.327 . S
C466 C485 1.429 . S
C466 H490 0.950 . S
C467 C484 1.574 . S
C467 C486 1.368 . S
C467 H491 0.949 . S
H468 C472 0.949 . S
C469 C470 1.349 . S
C469 C471 1.327 . S
C469 H492 0.950 . S
C470 C469 1.349 . S
C470 C482 1.349 . S
C471 C469 1.327 . S
C471 C487 1.429 . S
C471 H493 0.950 . S
C472 H468 0.949 . S
C472 C480 1.574 . S
C472 C488 1.368 . S
H473 C481 0.950 . S
H474 C479 0.950 . S
H475 C480 0.949 . S
H476 C482 0.950 . S
H477 C483 0.950 . S
H478 C484 0.949 . S
C479 H474 0.950 . S
C479 C481 1.327 . S
C479 C485 1.429 . S
C480 C472 1.574 . S
C480 H475 0.949 . S
C480 C486 1.368 . S
C481 C465 1.349 . S
C481 H473 0.950 . S
C481 C479 1.327 . S
C482 C470 1.349 . S
C482 H476 0.950 . S
C482 C483 1.327 . S
C483 H477 0.950 . S
C483 C482 1.327 . S
C483 C487 1.429 . S
C484 C467 1.574 . S
C484 H478 0.949 . S
C484 C488 1.368 . S
C485 C466 1.429 . S
C485 C479 1.429 . S
C485 C486 1.523 . S
C486 C467 1.368 . S
C486 C480 1.368 . S
C486 C485 1.523 . S
C487 C471 1.429 . S
C487 C483 1.429 . S
C487 C488 1.523 . S
C488 C472 1.368 . S
C488 C484 1.368 . S
C488 C487 1.523 . S
H489 C464 0.950 . S
H490 C466 0.950 . S
H491 C467 0.949 . S
H492 C469 0.950 . S
H493 C471 0.950 . S
C494 C495 1.349 . S
C494 C496 1.327 . S
C494 H519 0.950 . S
C495 C494 1.349 . S
C495 C511 1.349 . S
C496 C494 1.327 . S
C496 C515 1.429 . S
C496 H520 0.950 . S
C497 C514 1.574 . S
C497 C516 1.368 . S
C497 H521 0.949 . S
H498 C502 0.949 . S
C499 C500 1.349 . S
C499 C501 1.327 . S
C499 H522 0.950 . S
C500 C499 1.349 . S
C500 C512 1.349 . S
C501 C499 1.327 . S
C501 C517 1.429 . S
C501 H523 0.950 . S
C502 H498 0.949 . S
C502 C510 1.574 . S
C502 C518 1.368 . S
H503 C511 0.950 . S
H504 C509 0.950 . S
H505 C510 0.949 . S
H506 C512 0.950 . S
H507 C513 0.950 . S
H508 C514 0.949 . S
C509 H504 0.950 . S
C509 C511 1.327 . S
C509 C515 1.429 . S
C510 C502 1.574 . S
C510 H505 0.949 . S
C510 C516 1.368 . S
C511 C495 1.349 . S
C511 H503 0.950 . S
C511 C509 1.327 . S
C512 C500 1.349 . S
C512 H506 0.950 . S
C512 C513 1.327 . S
C513 H507 0.950 . S
C513 C512 1.327 . S
C513 C517 1.429 . S
C514 C497 1.574 . S
C514 H508 0.949 . S
C514 C518 1.368 . S
C515 C496 1.429 . S
C515 C509 1.429 . S
C515 C516 1.523 . S
C516 C497 1.368 . S
C516 C510 1.368 . S
C516 C515 1.523 . S
C517 C501 1.429 . S
C517 C513 1.429 . S
C517 C518 1.523 . S
C518 C502 1.368 . S
C518 C514 1.368 . S
C518 C517 1.523 . S
H519 C494 0.950 . S
H520 C496 0.950 . S
H521 C497 0.949 . S
H522 C499 0.950 . S
H523 C501 0.950 . S
C524 C525 1.349 . S
C524 C526 1.327 . S
C524 H549 0.950 . S
C525 C524 1.349 . S
C525 C541 1.349 . S
C526 C524 1.327 . S
C526 C545 1.429 . S
C526 H550 0.950 . S
C527 C544 1.574 . S
C527 C546 1.368 . S
C527 H551 0.949 . S
H528 C532 0.949 . S
C529 C530 1.349 . S
C529 C531 1.327 . S
C529 H552 0.950 . S
C530 C529 1.349 . S
C530 C542 1.349 . S
C531 C529 1.327 . S
C531 C547 1.429 . S
C531 H553 0.950 . S
C532 H528 0.949 . S
C532 C540 1.574 . S
C532 C548 1.368 . S
H533 C541 0.950 . S
H534 C539 0.950 . S
H535 C540 0.949 . S
H536 C542 0.950 . S
H537 C543 0.950 . S
H538 C544 0.949 . S
C539 H534 0.950 . S
C539 C541 1.327 . S
C539 C545 1.429 . S
C540 C532 1.574 . S
C540 H535 0.949 . S
C540 C546 1.368 . S
C541 C525 1.349 . S
C541 H533 0.950 . S
C541 C539 1.327 . S
C542 C530 1.349 . S
C542 H536 0.950 . S
C542 C543 1.327 . S
C543 H537 0.950 . S
C543 C542 1.327 . S
C543 C547 1.429 . S
C544 C527 1.574 . S
C544 H538 0.949 . S
C544 C548 1.368 . S
C545 C526 1.429 . S
C545 C539 1.429 . S
C545 C546 1.523 . S
C546 C527 1.368 . S
C546 C540 1.368 . S
C546 C545 1.523 . S
C547 C531 1.429 . S
C547 C543 1.429 . S
C547 C548 1.523 . S
C548 C532 1.368 . S
C548 C544 1.368 . S
C548 C547 1.523 . S
H549 C524 0.950 . S
H550 C526 0.950 . S
H551 C527 0.949 . S
H552 C529 0.950 . S
H553 C531 0.950 . S
C554 C555 1.349 . S
C554 C556 1.327 . S
C554 H579 0.950 . S
C555 C554 1.349 . S
C555 C571 1.349 . S
C556 C554 1.327 . S
C556 C575 1.429 . S
C556 H580 0.950 . S
C557 C574 1.574 . S
C557 C576 1.368 . S
C557 H581 0.949 . S
H558 C562 0.949 . S
C559 C560 1.349 . S
C559 C561 1.327 . S
C559 H582 0.950 . S
C560 C559 1.349 . S
C560 C572 1.349 . S
C561 C559 1.327 . S
C561 C577 1.429 . S
C561 H583 0.950 . S
C562 H558 0.949 . S
C562 C570 1.574 . S
C562 C578 1.368 . S
H563 C571 0.950 . S
H564 C569 0.950 . S
H565 C570 0.949 . S
H566 C572 0.950 . S
H567 C573 0.950 . S
H568 C574 0.949 . S
C569 H564 0.950 . S
C569 C571 1.327 . S
C569 C575 1.429 . S
C570 C562 1.574 . S
C570 H565 0.949 . S
C570 C576 1.368 . S
C571 C555 1.349 . S
C571 H563 0.950 . S
C571 C569 1.327 . S
C572 C560 1.349 . S
C572 H566 0.950 . S
C572 C573 1.327 . S
C573 H567 0.950 . S
C573 C572 1.327 . S
C573 C577 1.429 . S
C574 C557 1.574 . S
C574 H568 0.949 . S
C574 C578 1.368 . S
C575 C556 1.429 . S
C575 C569 1.429 . S
C575 C576 1.523 . S
C576 C557 1.368 . S
C576 C570 1.368 . S
C576 C575 1.523 . S
C577 C561 1.429 . S
C577 C573 1.429 . S
C577 C578 1.523 . S
C578 C562 1.368 . S
C578 C574 1.368 . S
C578 C577 1.523 . S
H579 C554 0.950 . S
H580 C556 0.950 . S
H581 C557 0.949 . S
H582 C559 0.950 . S
H583 C561 0.950 . S
C584 C585 1.349 . S
C584 C586 1.327 . S
C584 H609 0.950 . S
C585 C584 1.349 . S
C585 C601 1.349 . S
C586 C584 1.327 . S
C586 C605 1.429 . S
C586 H610 0.950 . S
C587 C604 1.574 . S
C587 C606 1.368 . S
C587 H611 0.949 . S
H588 C592 0.949 . S
C589 C590 1.349 . S
C589 C591 1.327 . S
C589 H612 0.950 . S
C590 C589 1.349 . S
C590 C602 1.349 . S
C591 C589 1.327 . S
C591 C607 1.429 . S
C591 H613 0.950 . S
C592 H588 0.949 . S
C592 C600 1.574 . S
C592 C608 1.368 . S
H593 C601 0.950 . S
H594 C599 0.950 . S
H595 C600 0.949 . S
H596 C602 0.950 . S
H597 C603 0.950 . S
H598 C604 0.949 . S
C599 H594 0.950 . S
C599 C601 1.327 . S
C599 C605 1.429 . S
C600 C592 1.574 . S
C600 H595 0.949 . S
C600 C606 1.368 . S
C601 C585 1.349 . S
C601 H593 0.950 . S
C601 C599 1.327 . S
C602 C590 1.349 . S
C602 H596 0.950 . S
C602 C603 1.327 . S
C603 H597 0.950 . S
C603 C602 1.327 . S
C603 C607 1.429 . S
C604 C587 1.574 . S
C604 H598 0.949 . S
C604 C608 1.368 . S
C605 C586 1.429 . S
C605 C599 1.429 . S
C605 C606 1.523 1_565 S
C606 C587 1.368 . S
C606 C600 1.368 . S
C606 C605 1.523 1_545 S
C607 C591 1.429 . S
C607 C603 1.429 . S
C607 C608 1.523 . S
C608 C592 1.368 . S
C608 C604 1.368 . S
C608 C607 1.523 . S
H609 C584 0.950 . S
H610 C586 0.950 . S
H611 C587 0.949 . S
H612 C589 0.950 . S
H613 C591 0.950 . S
C614 C615 1.349 . S
C614 C616 1.327 . S
C614 H639 0.950 . S
C615 C614 1.349 . S
C615 C631 1.349 . S
C616 C614 1.327 . S
C616 C635 1.429 . S
C616 H640 0.950 . S
C617 C634 1.574 . S
C617 C636 1.368 . S
C617 H641 0.949 . S
H618 C622 0.949 . S
C619 C620 1.349 . S
C619 C621 1.327 . S
C619 H642 0.950 . S
C620 C619 1.349 . S
C620 C632 1.349 . S
C621 C619 1.327 . S
C621 C637 1.429 . S
C621 H643 0.950 . S
C622 H618 0.949 . S
C622 C630 1.574 . S
C622 C638 1.368 . S
H623 C631 0.950 . S
H624 C629 0.950 . S
H625 C630 0.949 . S
H626 C632 0.950 . S
H627 C633 0.950 . S
H628 C634 0.949 . S
C629 H624 0.950 . S
C629 C631 1.327 . S
C629 C635 1.429 . S
C630 C622 1.574 . S
C630 H625 0.949 . S
C630 C636 1.368 . S
C631 C615 1.349 . S
C631 H623 0.950 . S
C631 C629 1.327 . S
C632 C620 1.349 . S
C632 H626 0.950 . S
C632 C633 1.327 . S
C633 H627 0.950 . S
C633 C632 1.327 . S
C633 C637 1.429 . S
C634 C617 1.574 . S
C634 H628 0.949 . S
C634 C638 1.368 . S
C635 C616 1.429 . S
C635 C629 1.429 . S
C635 C636 1.523 1_655 S
C636 C617 1.368 . S
C636 C630 1.368 . S
C636 C635 1.523 1_455 S
C637 C621 1.429 . S
C637 C633 1.429 . S
C637 C638 1.523 . S
C638 C622 1.368 . S
C638 C634 1.368 . S
C638 C637 1.523 . S
H639 C614 0.950 . S
H640 C616 0.950 . S
H641 C617 0.949 . S
H642 C619 0.950 . S
H643 C621 0.950 . S
C644 C645 1.349 . S
C644 C646 1.327 . S
C644 H669 0.950 . S
C645 C644 1.349 . S
C645 C661 1.349 . S
C646 C644 1.327 . S
C646 C665 1.429 . S
C646 H670 0.950 . S
C647 C664 1.574 . S
C647 C666 1.368 . S
C647 H671 0.949 . S
H648 C652 0.949 1_545 S
C649 C650 1.349 . S
C649 C651 1.327 . S
C649 H672 0.950 . S
C650 C649 1.349 . S
C650 C662 1.349 . S
C651 C649 1.327 . S
C651 C667 1.429 . S
C651 H673 0.950 . S
C652 H648 0.949 1_565 S
C652 C660 1.574 . S
C652 C668 1.368 . S
H653 C661 0.950 . S
H654 C659 0.950 . S
H655 C660 0.949 . S
H656 C662 0.950 . S
H657 C663 0.950 . S
H658 C664 0.949 . S
C659 H654 0.950 . S
C659 C661 1.327 . S
C659 C665 1.429 . S
C660 C652 1.574 . S
C660 H655 0.949 . S
C660 C666 1.368 . S
C661 C645 1.349 . S
C661 H653 0.950 . S
C661 C659 1.327 . S
C662 C650 1.349 . S
C662 H656 0.950 . S
C662 C663 1.327 . S
C663 H657 0.950 . S
C663 C662 1.327 . S
C663 C667 1.429 . S
C664 C647 1.574 . S
C664 H658 0.949 . S
C664 C668 1.368 . S
C665 C646 1.429 . S
C665 C659 1.429 . S
C665 C666 1.523 . S
C666 C647 1.368 . S
C666 C660 1.368 . S
C666 C665 1.523 . S
C667 C651 1.429 . S
C667 C663 1.429 . S
C667 C668 1.523 1_545 S
C668 C652 1.368 . S
C668 C664 1.368 . S
C668 C667 1.523 1_565 S
H669 C644 0.950 . S
H670 C646 0.950 . S
H671 C647 0.949 . S
H672 C649 0.950 . S
H673 C651 0.950 . S
C674 C675 1.349 . S
C674 C676 1.327 . S
C674 H699 0.950 . S
C675 C674 1.349 . S
C675 C691 1.349 . S
C676 C674 1.327 . S
C676 C695 1.429 . S
C676 H700 0.950 . S
C677 C694 1.574 . S
C677 C696 1.368 . S
C677 H701 0.949 . S
H678 C682 0.949 . S
C679 C680 1.349 . S
C679 C681 1.327 . S
C679 H702 0.950 . S
C680 C679 1.349 . S
C680 C692 1.349 . S
C681 C679 1.327 . S
C681 C697 1.429 . S
C681 H703 0.950 . S
C682 H678 0.949 . S
C682 C690 1.574 . S
C682 C698 1.368 . S
H683 C691 0.950 . S
H684 C689 0.950 . S
H685 C690 0.949 . S
H686 C692 0.950 . S
H687 C693 0.950 . S
H688 C694 0.949 . S
C689 H684 0.950 . S
C689 C691 1.327 . S
C689 C695 1.429 . S
C690 C682 1.574 . S
C690 H685 0.949 . S
C690 C696 1.368 . S
C691 C675 1.349 . S
C691 H683 0.950 . S
C691 C689 1.327 . S
C692 C680 1.349 . S
C692 H686 0.950 . S
C692 C693 1.327 . S
C693 H687 0.950 . S
C693 C692 1.327 . S
C693 C697 1.429 . S
C694 C677 1.574 . S
C694 H688 0.949 . S
C694 C698 1.368 . S
C695 C676 1.429 . S
C695 C689 1.429 . S
C695 C696 1.523 . S
C696 C677 1.368 . S
C696 C690 1.368 . S
C696 C695 1.523 . S
C697 C681 1.429 . S
C697 C693 1.429 . S
C697 C698 1.523 1_455 S
C698 C682 1.368 . S
C698 C694 1.368 . S
C698 C697 1.523 1_655 S
H699 C674 0.950 . S
H700 C676 0.950 . S
H701 C677 0.949 . S
H702 C679 0.950 . S
H703 C681 0.950 . S
C704 C705 1.349 . S
C704 C706 1.327 . S
C704 H729 0.950 . S
C705 C704 1.349 . S
C705 C721 1.349 . S
C706 C704 1.327 . S
C706 C725 1.429 . S
C706 H730 0.950 . S
C707 C724 1.574 . S
C707 C726 1.368 . S
C707 H731 0.949 . S
H708 C712 0.949 . S
C709 C710 1.349 . S
C709 C711 1.327 . S
C709 H732 0.950 . S
C710 C709 1.349 . S
C710 C722 1.349 . S
C711 C709 1.327 . S
C711 C727 1.429 . S
C711 H733 0.950 . S
C712 H708 0.949 . S
C712 C720 1.574 . S
C712 C728 1.368 . S
H713 C721 0.950 . S
H714 C719 0.950 . S
H715 C720 0.949 . S
H716 C722 0.950 . S
H717 C723 0.950 . S
H718 C724 0.949 . S
C719 H714 0.950 . S
C719 C721 1.327 . S
C719 C725 1.429 . S
C720 C712 1.574 . S
C720 H715 0.949 . S
C720 C726 1.368 . S
C721 C705 1.349 . S
C721 H713 0.950 . S
C721 C719 1.327 . S
C722 C710 1.349 . S
C722 H716 0.950 . S
C722 C723 1.327 . S
C723 H717 0.950 . S
C723 C722 1.327 . S
C723 C727 1.429 . S
C724 C707 1.574 . S
C724 H718 0.949 . S
C724 C728 1.368 . S
C725 C706 1.429 . S
C725 C719 1.429 . S
C725 C726 1.523 . S
C726 C707 1.368 . S
C726 C720 1.368 . S
C726 C725 1.523 . S
C727 C711 1.429 . S
C727 C723 1.429 . S
C727 C728 1.523 . S
C728 C712 1.368 . S
C728 C724 1.368 . S
C728 C727 1.523 . S
H729 C704 0.950 . S
H730 C706 0.950 . S
H731 C707 0.949 . S
H732 C709 0.950 . S
H733 C711 0.950 . S
C734 C735 1.349 . S
C734 C736 1.327 . S
C734 H759 0.950 . S
C735 C734 1.349 . S
C735 C751 1.349 . S
C736 C734 1.327 . S
C736 C755 1.429 . S
C736 H760 0.950 . S
C737 C754 1.574 . S
C737 C756 1.368 . S
C737 H761 0.949 . S
H738 C742 0.949 . S
C739 C740 1.349 . S
C739 C741 1.327 . S
C739 H762 0.950 . S
C740 C739 1.349 . S
C740 C752 1.349 . S
C741 C739 1.327 . S
C741 C757 1.429 . S
C741 H763 0.950 . S
C742 H738 0.949 . S
C742 C750 1.574 . S
C742 C758 1.368 . S
H743 C751 0.950 . S
H744 C749 0.950 . S
H745 C750 0.949 . S
H746 C752 0.950 . S
H747 C753 0.950 . S
H748 C754 0.949 . S
C749 H744 0.950 . S
C749 C751 1.327 . S
C749 C755 1.429 . S
C750 C742 1.574 . S
C750 H745 0.949 . S
C750 C756 1.368 . S
C751 C735 1.349 . S
C751 H743 0.950 . S
C751 C749 1.327 . S
C752 C740 1.349 . S
C752 H746 0.950 . S
C752 C753 1.327 . S
C753 H747 0.950 . S
C753 C752 1.327 . S
C753 C757 1.429 . S
C754 C737 1.574 . S
C754 H748 0.949 . S
C754 C758 1.368 . S
C755 C736 1.429 . S
C755 C749 1.429 . S
C755 C756 1.523 . S
C756 C737 1.368 . S
C756 C750 1.368 . S
C756 C755 1.523 . S
C757 C741 1.429 . S
C757 C753 1.429 . S
C757 C758 1.523 . S
C758 C742 1.368 . S
C758 C754 1.368 . S
C758 C757 1.523 . S
H759 C734 0.950 . S
H760 C736 0.950 . S
H761 C737 0.949 . S
H762 C739 0.950 . S
H763 C741 0.950 . S
C764 C765 1.349 . S
C764 C766 1.327 . S
C764 H789 0.950 . S
C765 C764 1.349 . S
C765 C781 1.349 . S
C766 C764 1.327 . S
C766 C785 1.429 . S
C766 H790 0.950 . S
C767 C784 1.574 . S
C767 C786 1.368 . S
C767 H791 0.949 . S
H768 C772 0.949 . S
C769 C770 1.349 . S
C769 C771 1.327 . S
C769 H792 0.950 . S
C770 C769 1.349 . S
C770 C782 1.349 . S
C771 C769 1.327 . S
C771 C787 1.429 . S
C771 H793 0.950 . S
C772 H768 0.949 . S
C772 C780 1.574 . S
C772 C788 1.368 . S
H773 C781 0.950 . S
H774 C779 0.950 . S
H775 C780 0.949 . S
H776 C782 0.950 . S
H777 C783 0.950 . S
H778 C784 0.949 . S
C779 H774 0.950 . S
C779 C781 1.327 . S
C779 C785 1.429 . S
C780 C772 1.574 . S
C780 H775 0.949 . S
C780 C786 1.368 . S
C781 C765 1.349 . S
C781 H773 0.950 . S
C781 C779 1.327 . S
C782 C770 1.349 . S
C782 H776 0.950 . S
C782 C783 1.327 . S
C783 H777 0.950 . S
C783 C782 1.327 . S
C783 C787 1.429 . S
C784 C767 1.574 . S
C784 H778 0.949 . S
C784 C788 1.368 . S
C785 C766 1.429 . S
C785 C779 1.429 . S
C785 C786 1.523 . S
C786 C767 1.368 . S
C786 C780 1.368 . S
C786 C785 1.523 . S
C787 C771 1.429 . S
C787 C783 1.429 . S
C787 C788 1.523 . S
C788 C772 1.368 . S
C788 C784 1.368 . S
C788 C787 1.523 . S
H789 C764 0.950 . S
H790 C766 0.950 . S
H791 C767 0.949 . S
H792 C769 0.950 . S
H793 C771 0.950 . S
C794 C795 1.349 . S
C794 C796 1.327 . S
C794 H819 0.950 . S
C795 C794 1.349 . S
C795 C811 1.349 . S
C796 C794 1.327 . S
C796 C815 1.429 . S
C796 H820 0.950 . S
C797 C814 1.574 . S
C797 C816 1.368 . S
C797 H821 0.949 . S
H798 C802 0.949 . S
C799 C800 1.349 . S
C799 C801 1.327 . S
C799 H822 0.950 . S
C800 C799 1.349 . S
C800 C812 1.349 . S
C801 C799 1.327 . S
C801 C817 1.429 . S
C801 H823 0.950 . S
C802 H798 0.949 . S
C802 C810 1.574 . S
C802 C818 1.368 . S
H803 C811 0.950 . S
H804 C809 0.950 . S
H805 C810 0.949 . S
H806 C812 0.950 . S
H807 C813 0.950 . S
H808 C814 0.949 . S
C809 H804 0.950 . S
C809 C811 1.327 . S
C809 C815 1.429 . S
C810 C802 1.574 . S
C810 H805 0.949 . S
C810 C816 1.368 . S
C811 C795 1.349 . S
C811 H803 0.950 . S
C811 C809 1.327 . S
C812 C800 1.349 . S
C812 H806 0.950 . S
C812 C813 1.327 . S
C813 H807 0.950 . S
C813 C812 1.327 . S
C813 C817 1.429 . S
C814 C797 1.574 . S
C814 H808 0.949 . S
C814 C818 1.368 . S
C815 C796 1.429 . S
C815 C809 1.429 . S
C815 C816 1.523 . S
C816 C797 1.368 . S
C816 C810 1.368 . S
C816 C815 1.523 . S
C817 C801 1.429 . S
C817 C813 1.429 . S
C817 C818 1.523 . S
C818 C802 1.368 . S
C818 C814 1.368 . S
C818 C817 1.523 . S
H819 C794 0.950 . S
H820 C796 0.950 . S
H821 C797 0.949 . S
H822 C799 0.950 . S
H823 C801 0.950 . S
C824 C825 1.349 . S
C824 C826 1.327 . S
C824 H849 0.950 . S
C825 C824 1.349 . S
C825 C841 1.349 . S
C826 C824 1.327 . S
C826 C845 1.429 . S
C826 H850 0.950 . S
C827 C844 1.574 . S
C827 C846 1.368 . S
C827 H851 0.949 . S
H828 C832 0.949 . S
C829 C830 1.349 . S
C829 C831 1.327 . S
C829 H852 0.950 . S
C830 C829 1.349 . S
C830 C842 1.349 . S
C831 C829 1.327 . S
C831 C847 1.429 . S
C831 H853 0.950 . S
C832 H828 0.949 . S
C832 C840 1.574 . S
C832 C848 1.368 . S
H833 C841 0.950 . S
H834 C839 0.950 . S
H835 C840 0.949 . S
H836 C842 0.950 . S
H837 C843 0.950 . S
H838 C844 0.949 . S
C839 H834 0.950 . S
C839 C841 1.327 . S
C839 C845 1.429 . S
C840 C832 1.574 . S
C840 H835 0.949 . S
C840 C846 1.368 . S
C841 C825 1.349 . S
C841 H833 0.950 . S
C841 C839 1.327 . S
C842 C830 1.349 . S
C842 H836 0.950 . S
C842 C843 1.327 . S
C843 H837 0.950 . S
C843 C842 1.327 . S
C843 C847 1.429 . S
C844 C827 1.574 . S
C844 H838 0.949 . S
C844 C848 1.368 . S
C845 C826 1.429 . S
C845 C839 1.429 . S
C845 C846 1.523 . S
C846 C827 1.368 . S
C846 C840 1.368 . S
C846 C845 1.523 . S
C847 C831 1.429 . S
C847 C843 1.429 . S
C847 C848 1.523 . S
C848 C832 1.368 . S
C848 C844 1.368 . S
C848 C847 1.523 . S
H849 C824 0.950 . S
H850 C826 0.950 . S
H851 C827 0.949 . S
H852 C829 0.950 . S
H853 C831 0.950 . S
C854 C855 1.349 . S
C854 C856 1.327 . S
C854 H879 0.950 . S
C855 C854 1.349 . S
C855 C871 1.349 . S
C856 C854 1.327 . S
C856 C875 1.429 . S
C856 H880 0.950 . S
C857 C874 1.574 . S
C857 C876 1.368 . S
C857 H881 0.949 . S
H858 C862 0.949 . S
C859 C860 1.349 . S
C859 C861 1.327 . S
C859 H882 0.950 . S
C860 C859 1.349 . S
C860 C872 1.349 . S
C861 C859 1.327 . S
C861 C877 1.429 . S
C861 H883 0.950 . S
C862 H858 0.949 . S
C862 C870 1.574 . S
C862 C878 1.368 . S
H863 C871 0.950 . S
H864 C869 0.950 . S
H865 C870 0.949 . S
H866 C872 0.950 . S
H867 C873 0.950 . S
H868 C874 0.949 . S
C869 H864 0.950 . S
C869 C871 1.327 . S
C869 C875 1.429 . S
C870 C862 1.574 . S
C870 H865 0.949 . S
C870 C876 1.368 . S
C871 C855 1.349 . S
C871 H863 0.950 . S
C871 C869 1.327 . S
C872 C860 1.349 . S
C872 H866 0.950 . S
C872 C873 1.327 . S
C873 H867 0.950 . S
C873 C872 1.327 . S
C873 C877 1.429 . S
C874 C857 1.574 . S
C874 H868 0.949 . S
C874 C878 1.368 . S
C875 C856 1.429 . S
C875 C869 1.429 . S
C875 C876 1.523 . S
C876 C857 1.368 . S
C876 C870 1.368 . S
C876 C875 1.523 . S
C877 C861 1.429 . S
C877 C873 1.429 . S
C877 C878 1.523 . S
C878 C862 1.368 . S
C878 C874 1.368 . S
C878 C877 1.523 . S
H879 C854 0.950 . S
H880 C856 0.950 . S
H881 C857 0.949 . S
H882 C859 0.950 . S
H883 C861 0.950 . S
C884 C885 1.349 . S
C884 C886 1.327 . S
C884 H909 0.950 . S
C885 C884 1.349 . S
C885 C901 1.349 . S
C886 C884 1.327 . S
C886 C905 1.429 . S
C886 H910 0.950 . S
C887 C904 1.574 . S
C887 C906 1.368 . S
C887 H911 0.949 . S
H888 C892 0.949 . S
C889 C890 1.349 . S
C889 C891 1.327 . S
C889 H912 0.950 . S
C890 C889 1.349 . S
C890 C902 1.349 . S
C891 C889 1.327 . S
C891 C907 1.429 . S
C891 H913 0.950 . S
C892 H888 0.949 . S
C892 C900 1.574 . S
C892 C908 1.368 . S
H893 C901 0.950 . S
H894 C899 0.950 . S
H895 C900 0.949 . S
H896 C902 0.950 . S
H897 C903 0.950 . S
H898 C904 0.949 . S
C899 H894 0.950 . S
C899 C901 1.327 . S
C899 C905 1.429 . S
C900 C892 1.574 . S
C900 H895 0.949 . S
C900 C906 1.368 . S
C901 C885 1.349 . S
C901 H893 0.950 . S
C901 C899 1.327 . S
C902 C890 1.349 . S
C902 H896 0.950 . S
C902 C903 1.327 . S
C903 H897 0.950 . S
C903 C902 1.327 . S
C903 C907 1.429 . S
C904 C887 1.574 . S
C904 H898 0.949 . S
C904 C908 1.368 . S
C905 C886 1.429 . S
C905 C899 1.429 . S
C905 C906 1.523 . S
C906 C887 1.368 . S
C906 C900 1.368 . S
C906 C905 1.523 . S
C907 C891 1.429 . S
C907 C903 1.429 . S
C907 C908 1.523 . S
C908 C892 1.368 . S
C908 C904 1.368 . S
C908 C907 1.523 . S
H909 C884 0.950 . S
H910 C886 0.950 . S
H911 C887 0.949 . S
H912 C889 0.950 . S
H913 C891 0.950 . S
C914 C915 1.349 . S
C914 C916 1.327 . S
C914 H939 0.950 . S
C915 C914 1.349 . S
C915 C931 1.349 . S
C916 C914 1.327 . S
C916 C935 1.429 . S
C916 H940 0.950 . S
C917 C934 1.574 . S
C917 C936 1.368 . S
C917 H941 0.949 . S
H918 C922 0.949 . S
C919 C920 1.349 . S
C919 C921 1.327 . S
C919 H942 0.950 . S
C920 C919 1.349 . S
C920 C932 1.349 . S
C921 C919 1.327 . S
C921 C937 1.429 . S
C921 H943 0.950 . S
C922 H918 0.949 . S
C922 C930 1.574 . S
C922 C938 1.368 . S
H923 C931 0.950 . S
H924 C929 0.950 . S
H925 C930 0.949 . S
H926 C932 0.950 . S
H927 C933 0.950 . S
H928 C934 0.949 . S
C929 H924 0.950 . S
C929 C931 1.327 . S
C929 C935 1.429 . S
C930 C922 1.574 . S
C930 H925 0.949 . S
C930 C936 1.368 . S
C931 C915 1.349 . S
C931 H923 0.950 . S
C931 C929 1.327 . S
C932 C920 1.349 . S
C932 H926 0.950 . S
C932 C933 1.327 . S
C933 H927 0.950 . S
C933 C932 1.327 . S
C933 C937 1.429 . S
C934 C917 1.574 . S
C934 H928 0.949 . S
C934 C938 1.368 . S
C935 C916 1.429 . S
C935 C929 1.429 . S
C935 C936 1.523 . S
C936 C917 1.368 . S
C936 C930 1.368 . S
C936 C935 1.523 . S
C937 C921 1.429 . S
C937 C933 1.429 . S
C937 C938 1.523 . S
C938 C922 1.368 . S
C938 C934 1.368 . S
C938 C937 1.523 . S
H939 C914 0.950 . S
H940 C916 0.950 . S
H941 C917 0.949 . S
H942 C919 0.950 . S
H943 C921 0.950 . S
C944 C945 1.349 . S
C944 C946 1.327 . S
C944 H969 0.950 . S
C945 C944 1.349 . S
C945 C961 1.349 . S
C946 C944 1.327 . S
C946 C965 1.429 . S
C946 H970 0.950 . S
C947 C964 1.574 . S
C947 C966 1.368 . S
C947 H971 0.949 . S
H948 C952 0.949 . S
C949 C950 1.349 1_556 S
C949 C951 1.327 . S
C949 H972 0.950 . S
C950 C949 1.349 1_554 S
C950 C962 1.349 . S
C951 C949 1.327 . S
C951 C967 1.429 . S
C951 H973 0.950 . S
C952 H948 0.949 . S
C952 C960 1.574 . S
C952 C968 1.368 . S
H953 C961 0.950 . S
H954 C959 0.950 . S
H955 C960 0.949 . S
H956 C962 0.950 . S
H957 C963 0.950 . S
H958 C964 0.949 . S
C959 H954 0.950 . S
C959 C961 1.327 . S
C959 C965 1.429 . S
C960 C952 1.574 . S
C960 H955 0.949 . S
C960 C966 1.368 . S
C961 C945 1.349 . S
C961 H953 0.950 . S
C961 C959 1.327 . S
C962 C950 1.349 . S
C962 H956 0.950 . S
C962 C963 1.327 1_554 S
C963 H957 0.950 . S
C963 C962 1.327 1_556 S
C963 C967 1.429 . S
C964 C947 1.574 . S
C964 H958 0.949 . S
C964 C968 1.368 . S
C965 C946 1.429 . S
C965 C959 1.429 . S
C965 C966 1.523 . S
C966 C947 1.368 . S
C966 C960 1.368 . S
C966 C965 1.523 . S
C967 C951 1.429 . S
C967 C963 1.429 . S
C967 C968 1.523 . S
C968 C952 1.368 . S
C968 C964 1.368 . S
C968 C967 1.523 . S
H969 C944 0.950 . S
H970 C946 0.950 . S
H971 C947 0.949 . S
H972 C949 0.950 . S
H973 C951 0.950 . S
C974 C975 1.349 . S
C974 C976 1.327 . S
C974 H999 0.950 . S
C975 C974 1.349 . S
C975 C991 1.349 . S
C976 C974 1.327 . S
C976 C995 1.429 . S
C976 H1000 0.950 . S
C977 C994 1.574 . S
C977 C996 1.368 . S
C977 H1001 0.949 . S
H978 C982 0.949 . S
C979 C980 1.349 . S
C979 C981 1.327 1_556 S
C979 H1002 0.950 . S
C980 C979 1.349 . S
C980 C992 1.349 1_556 S
C981 C979 1.327 1_554 S
C981 C997 1.429 . S
C981 H1003 0.950 . S
C982 H978 0.949 . S
C982 C990 1.574 . S
C982 C998 1.368 . S
H983 C991 0.950 . S
H984 C989 0.950 . S
H985 C990 0.949 . S
H986 C992 0.950 . S
H987 C993 0.950 . S
H988 C994 0.949 . S
C989 H984 0.950 . S
C989 C991 1.327 . S
C989 C995 1.429 . S
C990 C982 1.574 . S
C990 H985 0.949 . S
C990 C996 1.368 . S
C991 C975 1.349 . S
C991 H983 0.950 . S
C991 C989 1.327 . S
C992 C980 1.349 1_554 S
C992 H986 0.950 . S
C992 C993 1.327 . S
C993 H987 0.950 . S
C993 C992 1.327 . S
C993 C997 1.429 . S
C994 C977 1.574 . S
C994 H988 0.949 . S
C994 C998 1.368 . S
C995 C976 1.429 . S
C995 C989 1.429 . S
C995 C996 1.523 . S
C996 C977 1.368 . S
C996 C990 1.368 . S
C996 C995 1.523 . S
C997 C981 1.429 . S
C997 C993 1.429 . S
C997 C998 1.523 . S
C998 C982 1.368 . S
C998 C994 1.368 . S
C998 C997 1.523 . S
H999 C974 0.950 . S
H1000 C976 0.950 . S
H1001 C977 0.949 . S
H1002 C979 0.950 . S
H1003 C981 0.950 . S
C1004 C1005 1.349 1_556 S
C1004 C1006 1.327 . S
C1004 H1029 0.950 . S
C1005 C1004 1.349 1_554 S
C1005 C1021 1.349 . S
C1006 C1004 1.327 . S
C1006 C1025 1.429 . S
C1006 H1030 0.950 . S
C1007 C1024 1.574 . S
C1007 C1026 1.368 . S
C1007 H1031 0.949 . S
H1008 C1012 0.949 . S
C1009 C1010 1.349 . S
C1009 C1011 1.327 . S
C1009 H1032 0.950 . S
C1010 C1009 1.349 . S
C1010 C1022 1.349 . S
C1011 C1009 1.327 . S
C1011 C1027 1.429 . S
C1011 H1033 0.950 . S
C1012 H1008 0.949 . S
C1012 C1020 1.574 . S
C1012 C1028 1.368 . S
H1013 C1021 0.950 . S
H1014 C1019 0.950 . S
H1015 C1020 0.949 . S
H1016 C1022 0.950 . S
H1017 C1023 0.950 . S
H1018 C1024 0.949 . S
C1019 H1014 0.950 . S
C1019 C1021 1.327 1_556 S
C1019 C1025 1.429 . S
C1020 C1012 1.574 . S
C1020 H1015 0.949 . S
C1020 C1026 1.368 . S
C1021 C1005 1.349 . S
C1021 H1013 0.950 . S
C1021 C1019 1.327 1_554 S
C1022 C1010 1.349 . S
C1022 H1016 0.950 . S
C1022 C1023 1.327 . S
C1023 H1017 0.950 . S
C1023 C1022 1.327 . S
C1023 C1027 1.429 . S
C1024 C1007 1.574 . S
C1024 H1018 0.949 . S
C1024 C1028 1.368 . S
C1025 C1006 1.429 . S
C1025 C1019 1.429 . S
C1025 C1026 1.523 . S
C1026 C1007 1.368 . S
C1026 C1020 1.368 . S
C1026 C1025 1.523 . S
C1027 C1011 1.429 . S
C1027 C1023 1.429 . S
C1027 C1028 1.523 . S
C1028 C1012 1.368 . S
C1028 C1024 1.368 . S
C1028 C1027 1.523 . S
H1029 C1004 0.950 . S
H1030 C1006 0.950 . S
H1031 C1007 0.949 . S
H1032 C1009 0.950 . S
H1033 C1011 0.950 . S
C1034 C1035 1.349 . S
C1034 C1036 1.327 . S
C1034 H1059 0.950 . S
C1035 C1034 1.349 . S
C1035 C1051 1.349 . S
C1036 C1034 1.327 . S
C1036 C1055 1.429 . S
C1036 H1060 0.950 . S
C1037 C1054 1.574 . S
C1037 C1056 1.368 . S
C1037 H1061 0.949 . S
H1038 C1042 0.949 . S
C1039 C1040 1.349 1_554 S
C1039 C1041 1.327 . S
C1039 H1062 0.950 . S
C1040 C1039 1.349 1_556 S
C1040 C1052 1.349 . S
C1041 C1039 1.327 . S
C1041 C1057 1.429 . S
C1041 H1063 0.950 . S
C1042 H1038 0.949 . S
C1042 C1050 1.574 . S
C1042 C1058 1.368 . S
H1043 C1051 0.950 . S
H1044 C1049 0.950 . S
H1045 C1050 0.949 . S
H1046 C1052 0.950 . S
H1047 C1053 0.950 . S
H1048 C1054 0.949 . S
C1049 H1044 0.950 . S
C1049 C1051 1.327 . S
C1049 C1055 1.429 . S
C1050 C1042 1.574 . S
C1050 H1045 0.949 . S
C1050 C1056 1.368 . S
C1051 C1035 1.349 . S
C1051 H1043 0.950 . S
C1051 C1049 1.327 . S
C1052 C1040 1.349 . S
C1052 H1046 0.950 . S
C1052 C1053 1.327 1_556 S
C1053 H1047 0.950 . S
C1053 C1052 1.327 1_554 S
C1053 C1057 1.429 . S
C1054 C1037 1.574 . S
C1054 H1048 0.949 . S
C1054 C1058 1.368 . S
C1055 C1036 1.429 . S
C1055 C1049 1.429 . S
C1055 C1056 1.523 . S
C1056 C1037 1.368 . S
C1056 C1050 1.368 . S
C1056 C1055 1.523 . S
C1057 C1041 1.429 . S
C1057 C1053 1.429 . S
C1057 C1058 1.523 . S
C1058 C1042 1.368 . S
C1058 C1054 1.368 . S
C1058 C1057 1.523 . S
H1059 C1034 0.950 . S
H1060 C1036 0.950 . S
H1061 C1037 0.949 . S
H1062 C1039 0.950 . S
H1063 C1041 0.950 . S
C1064 C1065 1.349 . S
C1064 C1066 1.327 . S
C1064 H1089 0.950 . S
C1065 C1064 1.349 . S
C1065 C1081 1.349 . S
C1066 C1064 1.327 . S
C1066 C1085 1.429 . S
C1066 H1090 0.950 . S
C1067 C1084 1.574 . S
C1067 C1086 1.368 . S
C1067 H1091 0.949 . S
H1068 C1072 0.949 . S
C1069 C1070 1.349 . S
C1069 C1071 1.327 . S
C1069 H1092 0.950 . S
C1070 C1069 1.349 . S
C1070 C1082 1.349 . S
C1071 C1069 1.327 . S
C1071 C1087 1.429 . S
C1071 H1093 0.950 . S
C1072 H1068 0.949 . S
C1072 C1080 1.574 . S
C1072 C1088 1.368 . S
H1073 C1081 0.950 . S
H1074 C1079 0.950 . S
H1075 C1080 0.949 . S
H1076 C1082 0.950 . S
H1077 C1083 0.950 . S
H1078 C1084 0.949 . S
C1079 H1074 0.950 . S
C1079 C1081 1.327 . S
C1079 C1085 1.429 . S
C1080 C1072 1.574 . S
C1080 H1075 0.949 . S
C1080 C1086 1.368 . S
C1081 C1065 1.349 . S
C1081 H1073 0.950 . S
C1081 C1079 1.327 . S
C1082 C1070 1.349 . S
C1082 H1076 0.950 . S
C1082 C1083 1.327 . S
C1083 H1077 0.950 . S
C1083 C1082 1.327 . S
C1083 C1087 1.429 . S
C1084 C1067 1.574 . S
C1084 H1078 0.949 . S
C1084 C1088 1.368 . S
C1085 C1066 1.429 . S
C1085 C1079 1.429 . S
C1085 C1086 1.523 . S
C1086 C1067 1.368 . S
C1086 C1080 1.368 . S
C1086 C1085 1.523 . S
C1087 C1071 1.429 . S
C1087 C1083 1.429 . S
C1087 C1088 1.523 . S
C1088 C1072 1.368 . S
C1088 C1084 1.368 . S
C1088 C1087 1.523 . S
H1089 C1064 0.950 . S
H1090 C1066 0.950 . S
H1091 C1067 0.949 . S
H1092 C1069 0.950 . S
H1093 C1071 0.950 . S
C1094 C1095 1.349 . S
C1094 C1096 1.327 . S
C1094 H1119 0.950 . S
C1095 C1094 1.349 . S
C1095 C1111 1.349 . S
C1096 C1094 1.327 . S
C1096 C1115 1.429 . S
C1096 H1120 0.950 . S
C1097 C1114 1.574 . S
C1097 C1116 1.368 . S
C1097 H1121 0.949 . S
H1098 C1102 0.949 . S
C1099 C1100 1.349 . S
C1099 C1101 1.327 . S
C1099 H1122 0.950 . S
C1100 C1099 1.349 . S
C1100 C1112 1.349 . S
C1101 C1099 1.327 . S
C1101 C1117 1.429 . S
C1101 H1123 0.950 . S
C1102 H1098 0.949 . S
C1102 C1110 1.574 . S
C1102 C1118 1.368 . S
H1103 C1111 0.950 . S
H1104 C1109 0.950 . S
H1105 C1110 0.949 . S
H1106 C1112 0.950 . S
H1107 C1113 0.950 . S
H1108 C1114 0.949 . S
C1109 H1104 0.950 . S
C1109 C1111 1.327 . S
C1109 C1115 1.429 . S
C1110 C1102 1.574 . S
C1110 H1105 0.949 . S
C1110 C1116 1.368 . S
C1111 C1095 1.349 . S
C1111 H1103 0.950 . S
C1111 C1109 1.327 . S
C1112 C1100 1.349 . S
C1112 H1106 0.950 . S
C1112 C1113 1.327 . S
C1113 H1107 0.950 . S
C1113 C1112 1.327 . S
C1113 C1117 1.429 . S
C1114 C1097 1.574 . S
C1114 H1108 0.949 . S
C1114 C1118 1.368 . S
C1115 C1096 1.429 . S
C1115 C1109 1.429 . S
C1115 C1116 1.523 . S
C1116 C1097 1.368 . S
C1116 C1110 1.368 . S
C1116 C1115 1.523 . S
C1117 C1101 1.429 . S
C1117 C1113 1.429 . S
C1117 C1118 1.523 . S
C1118 C1102 1.368 . S
C1118 C1114 1.368 . S
C1118 C1117 1.523 . S
H1119 C1094 0.950 . S
H1120 C1096 0.950 . S
H1121 C1097 0.949 . S
H1122 C1099 0.950 . S
H1123 C1101 0.950 . S
C1124 C1125 1.349 . S
C1124 C1126 1.327 . S
C1124 H1149 0.950 . S
C1125 C1124 1.349 . S
C1125 C1141 1.349 . S
C1126 C1124 1.327 . S
C1126 C1145 1.429 . S
C1126 H1150 0.950 . S
C1127 C1144 1.574 . S
C1127 C1146 1.368 . S
C1127 H1151 0.949 . S
H1128 C1132 0.949 . S
C1129 C1130 1.349 . S
C1129 C1131 1.327 . S
C1129 H1152 0.950 . S
C1130 C1129 1.349 . S
C1130 C1142 1.349 . S
C1131 C1129 1.327 . S
C1131 C1147 1.429 . S
C1131 H1153 0.950 . S
C1132 H1128 0.949 . S
C1132 C1140 1.574 . S
C1132 C1148 1.368 . S
H1133 C1141 0.950 . S
H1134 C1139 0.950 . S
H1135 C1140 0.949 . S
H1136 C1142 0.950 . S
H1137 C1143 0.950 . S
H1138 C1144 0.949 . S
C1139 H1134 0.950 . S
C1139 C1141 1.327 . S
C1139 C1145 1.429 . S
C1140 C1132 1.574 . S
C1140 H1135 0.949 . S
C1140 C1146 1.368 . S
C1141 C1125 1.349 . S
C1141 H1133 0.950 . S
C1141 C1139 1.327 . S
C1142 C1130 1.349 . S
C1142 H1136 0.950 . S
C1142 C1143 1.327 . S
C1143 H1137 0.950 . S
C1143 C1142 1.327 . S
C1143 C1147 1.429 . S
C1144 C1127 1.574 . S
C1144 H1138 0.949 . S
C1144 C1148 1.368 . S
C1145 C1126 1.429 . S
C1145 C1139 1.429 . S
C1145 C1146 1.523 . S
C1146 C1127 1.368 . S
C1146 C1140 1.368 . S
C1146 C1145 1.523 . S
C1147 C1131 1.429 . S
C1147 C1143 1.429 . S
C1147 C1148 1.523 . S
C1148 C1132 1.368 . S
C1148 C1144 1.368 . S
C1148 C1147 1.523 . S
H1149 C1124 0.950 . S
H1150 C1126 0.950 . S
H1151 C1127 0.949 . S
H1152 C1129 0.950 . S
H1153 C1131 0.950 . S
C1154 C1155 1.349 . S
C1154 C1156 1.327 . S
C1154 H1179 0.950 . S
C1155 C1154 1.349 . S
C1155 C1171 1.349 . S
C1156 C1154 1.327 . S
C1156 C1175 1.429 . S
C1156 H1180 0.950 . S
C1157 C1174 1.574 . S
C1157 C1176 1.368 . S
C1157 H1181 0.949 . S
H1158 C1162 0.949 . S
C1159 C1160 1.349 . S
C1159 C1161 1.327 . S
C1159 H1182 0.950 . S
C1160 C1159 1.349 . S
C1160 C1172 1.349 . S
C1161 C1159 1.327 . S
C1161 C1177 1.429 . S
C1161 H1183 0.950 . S
C1162 H1158 0.949 . S
C1162 C1170 1.574 . S
C1162 C1178 1.368 . S
H1163 C1171 0.950 . S
H1164 C1169 0.950 . S
H1165 C1170 0.949 . S
H1166 C1172 0.950 . S
H1167 C1173 0.950 . S
H1168 C1174 0.949 . S
C1169 H1164 0.950 . S
C1169 C1171 1.327 . S
C1169 C1175 1.429 . S
C1170 C1162 1.574 . S
C1170 H1165 0.949 . S
C1170 C1176 1.368 . S
C1171 C1155 1.349 . S
C1171 H1163 0.950 . S
C1171 C1169 1.327 . S
C1172 C1160 1.349 . S
C1172 H1166 0.950 . S
C1172 C1173 1.327 . S
C1173 H1167 0.950 . S
C1173 C1172 1.327 . S
C1173 C1177 1.429 . S
C1174 C1157 1.574 . S
C1174 H1168 0.949 . S
C1174 C1178 1.368 . S
C1175 C1156 1.429 . S
C1175 C1169 1.429 . S
C1175 C1176 1.523 . S
C1176 C1157 1.368 . S
C1176 C1170 1.368 . S
C1176 C1175 1.523 . S
C1177 C1161 1.429 . S
C1177 C1173 1.429 . S
C1177 C1178 1.523 . S
C1178 C1162 1.368 . S
C1178 C1174 1.368 . S
C1178 C1177 1.523 . S
H1179 C1154 0.950 . S
H1180 C1156 0.950 . S
H1181 C1157 0.949 . S
H1182 C1159 0.950 . S
H1183 C1161 0.950 . S
C225 C163 1.347 . S
C230 C7 1.358 . S
C255 C21 1.358 . S
C260 C121 1.347 . S
C285 C35 1.358 . S
C290 C135 1.347 . S
C315 C149 1.347 . S
C320 C49 1.358 . S
C345 C63 1.358 . S
C350 C79 1.347 . S
C375 C77 1.358 . S
C380 C93 1.347 . S
C405 C107 1.347 . S
C410 C91 1.358 . S
C435 C65 1.347 . S
C440 C105 1.358 . S
C465 C51 1.347 . S
C470 C119 1.358 . S
C495 C133 1.358 . S
C500 C9 1.347 . S
C525 C23 1.347 . S
C530 C147 1.358 . S
C555 C161 1.358 . S
C560 C37 1.347 . S
C585 C175 1.358 . S
C590 C191 1.347 . S
C615 C189 1.358 . S
C620 C205 1.347 . S
C645 C219 1.347 . S
C650 C203 1.358 . S
C675 C177 1.347 . S
C680 C217 1.358 . S
C705 C64 1.171 . S
C710 C8 1.171 . S
C735 C22 1.172 . S
C740 C78 1.172 . S
C765 C36 1.172 . S
C770 C92 1.172 . S
C795 C106 1.171 . S
C800 C50 1.171 . S
C825 C120 1.171 . S
C830 C176 1.171 . S
C855 C190 1.172 . S
C860 C134 1.172 . S
C885 C148 1.172 . S
C890 C204 1.172 . S
C915 C218 1.171 . S
C920 C162 1.171 . S
C945 C202 1.327 . S
C950 C6 1.327 . S
C975 C216 1.327 . S
C980 C20 1.327 . S
C1005 C34 1.327 . S
C1010 C174 1.327 . S
C1035 C188 1.327 . S
C1040 C48 1.327 . S
C1065 C146 1.327 . S
C1070 C62 1.327 . S
C1095 C160 1.327 . S
C1100 C76 1.327 . S
C1125 C90 1.327 . S
C1130 C118 1.327 . S
C1155 C132 1.327 . S
C1160 C104 1.327 . S
