# Generated by pormake.
# Topology vbf, (5)-cn, num edge types: 1
# Building blocks:
#     Node 0, Type 0, BuildingBlock: XOMCOT_clean_sbu_0, # of connection points: 5
#     Node 1, Type 0, BuildingBlock: XOMCOT_clean_sbu_0, # of connection points: 5
#     Node 2, Type 0, BuildingBlock: XOMCOT_clean_sbu_0, # of connection points: 5
#     Node 3, Type 0, BuildingBlock: XOMCOT_clean_sbu_0, # of connection points: 5
#     Node 4, Type 0, BuildingBlock: XOMCOT_clean_sbu_0, # of connection points: 5
#     Node 5, Type 0, BuildingBlock: XOMCOT_clean_sbu_0, # of connection points: 5
#     Node 6, Type 0, BuildingBlock: XOMCOT_clean_sbu_0, # of connection points: 5
#     Node 7, Type 0, BuildingBlock: XOMCOT_clean_sbu_0, # of connection points: 5
#     Node 8, Type 0, BuildingBlock: XOMCOT_clean_sbu_0, # of connection points: 5
#     Node 9, Type 0, BuildingBlock: XOMCOT_clean_sbu_0, # of connection points: 5
#     Node 10, Type 0, BuildingBlock: XOMCOT_clean_sbu_0, # of connection points: 5
#     Node 11, Type 0, BuildingBlock: XOMCOT_clean_sbu_0, # of connection points: 5
#     Node 12, Type 0, BuildingBlock: XOMCOT_clean_sbu_0, # of connection points: 5
#     Node 13, Type 0, BuildingBlock: XOMCOT_clean_sbu_0, # of connection points: 5
#     Node 14, Type 0, BuildingBlock: XOMCOT_clean_sbu_0, # of connection points: 5
#     Node 15, Type 0, BuildingBlock: XOMCOT_clean_sbu_0, # of connection points: 5
#     Edge 16, Type (0, 0), BuildingBlock: KIFKEQ_clean_linker_1, # of connection points: 2
#     Edge 17, Type (0, 0), BuildingBlock: KIFKEQ_clean_linker_1, # of connection points: 2
#     Edge 18, Type (0, 0), BuildingBlock: KIFKEQ_clean_linker_1, # of connection points: 2
#     Edge 19, Type (0, 0), BuildingBlock: KIFKEQ_clean_linker_1, # of connection points: 2
#     Edge 20, Type (0, 0), BuildingBlock: KIFKEQ_clean_linker_1, # of connection points: 2
#     Edge 21, Type (0, 0), BuildingBlock: KIFKEQ_clean_linker_1, # of connection points: 2
#     Edge 22, Type (0, 0), BuildingBlock: KIFKEQ_clean_linker_1, # of connection points: 2
#     Edge 23, Type (0, 0), BuildingBlock: KIFKEQ_clean_linker_1, # of connection points: 2
#     Edge 24, Type (0, 0), BuildingBlock: KIFKEQ_clean_linker_1, # of connection points: 2
#     Edge 25, Type (0, 0), BuildingBlock: KIFKEQ_clean_linker_1, # of connection points: 2
#     Edge 26, Type (0, 0), BuildingBlock: KIFKEQ_clean_linker_1, # of connection points: 2
#     Edge 27, Type (0, 0), BuildingBlock: KIFKEQ_clean_linker_1, # of connection points: 2
#     Edge 28, Type (0, 0), BuildingBlock: KIFKEQ_clean_linker_1, # of connection points: 2
#     Edge 29, Type (0, 0), BuildingBlock: KIFKEQ_clean_linker_1, # of connection points: 2
#     Edge 30, Type (0, 0), BuildingBlock: KIFKEQ_clean_linker_1, # of connection points: 2
#     Edge 31, Type (0, 0), BuildingBlock: KIFKEQ_clean_linker_1, # of connection points: 2
#     Edge 32, Type (0, 0), BuildingBlock: KIFKEQ_clean_linker_1, # of connection points: 2
#     Edge 33, Type (0, 0), BuildingBlock: KIFKEQ_clean_linker_1, # of connection points: 2
#     Edge 34, Type (0, 0), BuildingBlock: KIFKEQ_clean_linker_1, # of connection points: 2
#     Edge 35, Type (0, 0), BuildingBlock: KIFKEQ_clean_linker_1, # of connection points: 2
#     Edge 36, Type (0, 0), BuildingBlock: KIFKEQ_clean_linker_1, # of connection points: 2
#     Edge 37, Type (0, 0), BuildingBlock: KIFKEQ_clean_linker_1, # of connection points: 2
#     Edge 38, Type (0, 0), BuildingBlock: KIFKEQ_clean_linker_1, # of connection points: 2
#     Edge 39, Type (0, 0), BuildingBlock: KIFKEQ_clean_linker_1, # of connection points: 2
#     Edge 40, Type (0, 0), BuildingBlock: KIFKEQ_clean_linker_1, # of connection points: 2
#     Edge 41, Type (0, 0), BuildingBlock: KIFKEQ_clean_linker_1, # of connection points: 2
#     Edge 42, Type (0, 0), BuildingBlock: KIFKEQ_clean_linker_1, # of connection points: 2
#     Edge 43, Type (0, 0), BuildingBlock: KIFKEQ_clean_linker_1, # of connection points: 2
#     Edge 44, Type (0, 0), BuildingBlock: KIFKEQ_clean_linker_1, # of connection points: 2
#     Edge 45, Type (0, 0), BuildingBlock: KIFKEQ_clean_linker_1, # of connection points: 2
#     Edge 46, Type (0, 0), BuildingBlock: KIFKEQ_clean_linker_1, # of connection points: 2
#     Edge 47, Type (0, 0), BuildingBlock: KIFKEQ_clean_linker_1, # of connection points: 2
#     Edge 48, Type (0, 0), BuildingBlock: KIFKEQ_clean_linker_1, # of connection points: 2
#     Edge 49, Type (0, 0), BuildingBlock: KIFKEQ_clean_linker_1, # of connection points: 2
#     Edge 50, Type (0, 0), BuildingBlock: KIFKEQ_clean_linker_1, # of connection points: 2
#     Edge 51, Type (0, 0), BuildingBlock: KIFKEQ_clean_linker_1, # of connection points: 2
#     Edge 52, Type (0, 0), BuildingBlock: KIFKEQ_clean_linker_1, # of connection points: 2
#     Edge 53, Type (0, 0), BuildingBlock: KIFKEQ_clean_linker_1, # of connection points: 2
#     Edge 54, Type (0, 0), BuildingBlock: KIFKEQ_clean_linker_1, # of connection points: 2
#     Edge 55, Type (0, 0), BuildingBlock: KIFKEQ_clean_linker_1, # of connection points: 2
# Relax obj value: 0.129
# Max RMSD: 0.207
# Mean RMSD: 0.207
data_MOF--net-vbf--node1-XOMCOT_clean_sbu_0--edge1-KIFKEQ_clean_linker_1
_symmetry_space_group_name_H-M    P1
_symmetry_Int_Tables_number       1
_symmetry_cell_setting            triclinic
loop_
_symmetry_equiv_pos_as_xyz
'x, y, z'
_cell_length_a     45.140838
_cell_length_b     74.533245
_cell_length_c     25.92497
_cell_angle_alpha  90.052429
_cell_angle_beta   89.954819
_cell_angle_gamma 90.019613
loop_
_atom_site_label
_atom_site_type_symbol
_atom_site_fract_x
_atom_site_fract_y
_atom_site_fract_z
_atom_type_partial_charge
Co0 Co 0.09699 0.31725 0.02538 0.0
C1 C 0.14744 0.29253 0.99802 0.0
C2 C 0.13534 0.29094 0.07763 0.0
C3 C 0.15896 0.27976 0.06947 0.0
N4 N 0.12697 0.29843 0.03244 0.0
N5 N 0.16653 0.28075 0.01943 0.0
H6 H 0.14959 0.29736 0.95895 0.0
H7 H 0.12636 0.29417 0.11509 0.0
C8 C 0.06862 0.29353 0.10322 0.0
O9 O 0.0721 0.28042 0.0699 0.0
N10 N 0.06799 0.33628 0.02118 0.0
C11 C 0.05554 0.34315 0.97839 0.0
C12 C 0.03347 0.3549 0.99304 0.0
C13 C 0.05371 0.34408 0.06116 0.0
N14 N 0.03224 0.3554 0.04513 0.0
C15 C 0.08223 0.29473 0.94043 0.0
C16 C 0.02235 0.29099 0.95986 0.0
C17 C 0.0343 0.28369 0.91454 0.0
C18 C 0.06463 0.28551 0.90549 0.0
C19 C 0.04095 0.30037 0.99408 0.0
N20 N 0.07077 0.30181 0.98467 0.0
H21 H 0.10484 0.29702 0.92988 0.0
H22 H 0.03127 0.30681 0.02746 0.0
H23 H 0.06134 0.33937 0.93937 0.0
H24 H 0.05805 0.34095 0.10117 0.0
O25 O 0.11803 0.32709 0.96793 0.0
O26 O 0.1269 0.33464 0.04897 0.0
O27 O 0.07826 0.30931 0.09304 0.0
C28 C 0.13383 0.33623 1.00016 0.0
H29 H 0.17096 0.27241 0.09878 0.0
H30 H 0.01915 0.36229 0.96722 0.0
H31 H 0.99882 0.29012 0.96762 0.0
H32 H 0.07463 0.28028 0.87055 0.0
Co33 Co 0.93072 0.69992 0.01518 0.0
C34 C 0.87675 0.72159 0.99038 0.0
C35 C 0.90772 0.73634 0.03642 0.0
C36 C 0.88364 0.74714 0.02693 0.0
N37 N 0.90363 0.72029 0.01321 0.0
N38 N 0.86421 0.73779 0.99825 0.0
H39 H 0.86612 0.71101 0.96878 0.0
H40 H 0.92643 0.73995 0.0601 0.0
C41 C 0.97228 0.70808 0.10288 0.0
O42 O 0.99413 0.70199 0.07428 0.0
N43 N 0.95738 0.67938 0.01814 0.0
C44 C 0.97327 0.67201 0.97952 0.0
C45 C 0.98997 0.65816 0.99902 0.0
C46 C 0.96389 0.66937 0.06026 0.0
N47 N 0.98437 0.65663 0.04995 0.0
C48 C 0.96053 0.71098 0.92324 0.0
C49 C 0.99081 0.74021 0.96174 0.0
C50 C 0.99119 0.73698 0.90856 0.0
C51 C 0.97612 0.72205 0.88963 0.0
C52 C 0.97438 0.72888 0.99433 0.0
N53 N 0.95946 0.71427 0.9752 0.0
H54 H 0.94854 0.70001 0.90623 0.0
H55 H 0.9729 0.73261 0.03425 0.0
H56 H 0.9733 0.67636 0.93992 0.0
H57 H 0.95459 0.67181 0.09812 0.0
O58 O 0.9108 0.68916 0.95756 0.0
O59 O 0.89823 0.68407 0.03831 0.0
O60 O 0.94589 0.70869 0.08476 0.0
C61 C 0.89348 0.68095 0.98943 0.0
H62 H 0.88001 0.76052 0.042 0.0
H63 H 1.00605 0.65035 0.97766 0.0
H64 H 1.00196 0.75183 0.97766 0.0
H65 H 0.97591 0.71911 0.84867 0.0
Co66 Co 0.17529 0.56912 0.26771 0.0
C67 C 0.1241 0.54665 0.23225 0.0
C68 C 0.1482 0.53398 0.29336 0.0
C69 C 0.12487 0.5231 0.28009 0.0
N70 N 0.1482 0.5487 0.26288 0.0
N71 N 0.10975 0.53111 0.24193 0.0
H72 H 0.11652 0.55641 0.20442 0.0
H73 H 0.16348 0.53134 0.32444 0.0
C74 C 0.21856 0.55631 0.3464 0.0
O75 O 0.23937 0.56094 0.31347 0.0
N76 N 0.20156 0.58999 0.27462 0.0
C77 C 0.20836 0.6026 0.23899 0.0
C78 C 0.22612 0.61552 0.26123 0.0
C79 C 0.21387 0.59627 0.31876 0.0
N80 N 0.22982 0.61133 0.31126 0.0
C81 C 0.21209 0.56286 0.17962 0.0
C82 C 0.22643 0.52761 0.20054 0.0
C83 C 0.23323 0.53463 0.15182 0.0
C84 C 0.22685 0.55271 0.14247 0.0
C85 C 0.21179 0.53832 0.23698 0.0
N86 N 0.20423 0.55573 0.22616 0.0
H87 H 0.20512 0.57608 0.16885 0.0
H88 H 0.20558 0.5322 0.27296 0.0
H89 H 0.20032 0.60296 0.19983 0.0
H90 H 0.21074 0.59034 0.35634 0.0
O91 O 0.15577 0.58053 0.21111 0.0
O92 O 0.14241 0.58414 0.29251 0.0
O93 O 0.19129 0.55906 0.33513 0.0
C94 C 0.13812 0.58809 0.24393 0.0
H95 H 0.11843 0.51077 0.29907 0.0
H96 H 0.23586 0.62697 0.24196 0.0
H97 H 0.23074 0.51366 0.20945 0.0
H98 H 0.23192 0.55882 0.1056 0.0
Co99 Co 0.8418 0.44579 0.26533 0.0
C100 C 0.89226 0.46925 0.23165 0.0
C101 C 0.86882 0.48058 0.29572 0.0
C102 C 0.89181 0.49184 0.28327 0.0
N103 N 0.86863 0.46644 0.26295 0.0
N104 N 0.90653 0.48465 0.24326 0.0
H105 H 0.89957 0.46014 0.20181 0.0
H106 H 0.85379 0.48262 0.32756 0.0
C107 C 0.79938 0.45797 0.34696 0.0
O108 O 0.77786 0.45413 0.31464 0.0
N109 N 0.81577 0.42466 0.26947 0.0
C110 C 0.81077 0.41231 0.23231 0.0
C111 C 0.79245 0.39913 0.25121 0.0
C112 C 0.80179 0.4179 0.3116 0.0
N113 N 0.78642 0.40274 0.30108 0.0
C114 C 0.80395 0.45285 0.17966 0.0
C115 C 0.79149 0.48825 0.20221 0.0
C116 C 0.78458 0.4816 0.15308 0.0
C117 C 0.78977 0.46344 0.14304 0.0
C118 C 0.80551 0.47708 0.23818 0.0
N119 N 0.81244 0.45965 0.22627 0.0
H120 H 0.81019 0.43956 0.16819 0.0
H121 H 0.81195 0.48286 0.27452 0.0
H122 H 0.82045 0.41232 0.19421 0.0
H123 H 0.80302 0.42372 0.34959 0.0
O124 O 0.86126 0.43568 0.2066 0.0
O125 O 0.87504 0.43047 0.28699 0.0
O126 O 0.82631 0.45469 0.3344 0.0
C127 C 0.87943 0.42775 0.23769 0.0
H128 H 0.89828 0.50386 0.30389 0.0
H129 H 0.78467 0.38759 0.22981 0.0
H130 H 0.78788 0.50224 0.21168 0.0
H131 H 0.78445 0.45763 0.10586 0.0
Co132 Co 0.09501 0.8205 0.51562 0.0
C133 C 0.14748 0.79621 0.49029 0.0
C134 C 0.14789 0.80771 0.56618 0.0
C135 C 0.17204 0.79671 0.56152 0.0
N136 N 0.13196 0.80719 0.52216 0.0
N137 N 0.17173 0.78951 0.51398 0.0
H138 H 0.14151 0.79285 0.45127 0.0
H139 H 0.14191 0.81541 0.60002 0.0
C140 C 0.08447 0.79395 0.59954 0.0
O141 O 0.09712 0.78198 0.56951 0.0
N142 N 0.05891 0.83431 0.51273 0.0
C143 C 0.0425 0.83846 0.47114 0.0
C144 C 0.01921 0.84914 0.48691 0.0
C145 C 0.04558 0.84248 0.55304 0.0
N146 N 0.02118 0.85166 0.53847 0.0
C147 C 0.08604 0.79885 0.42652 0.0
C148 C 0.03649 0.78029 0.45883 0.0
C149 C 0.04796 0.77682 0.40934 0.0
C150 C 0.07281 0.78658 0.39339 0.0
C151 C 0.0506 0.79286 0.49116 0.0
N152 N 0.07591 0.80144 0.47558 0.0
H153 H 0.10435 0.80657 0.41175 0.0
H154 H 0.04072 0.79594 0.52806 0.0
H155 H 0.04723 0.83412 0.43217 0.0
H156 H 0.05404 0.84204 0.59206 0.0
O157 O 0.1106 0.83372 0.45823 0.0
O158 O 0.11654 0.84187 0.53953 0.0
O159 O 0.08127 0.81011 0.58385 0.0
C160 C 0.12171 0.845 0.49079 0.0
H161 H 0.18876 0.79426 0.5906 0.0
H162 H 1.00204 0.85451 0.46226 0.0
H163 H 0.01684 0.77343 0.4724 0.0
H164 H 0.08169 0.78514 0.35478 0.0
Co165 Co 0.92589 0.19819 0.53004 0.0
C166 C 0.8779 0.22253 0.49038 0.0
C167 C 0.89368 0.23048 0.56497 0.0
C168 C 0.87126 0.24182 0.55097 0.0
N169 N 0.89833 0.21842 0.52687 0.0
N170 N 0.86117 0.23683 0.50428 0.0
H171 H 0.8747 0.21499 0.45514 0.0
H172 H 0.90508 0.23096 0.60149 0.0
C173 C 0.96731 0.21263 0.60943 0.0
O174 O 0.98891 0.20949 0.57661 0.0
N175 N 0.95252 0.17733 0.53601 0.0
C176 C 0.95592 0.1637 0.50194 0.0
C177 C 0.974 0.15073 0.52297 0.0
C178 C 0.96759 0.17174 0.57837 0.0
N179 N 0.98149 0.15591 0.57092 0.0
C180 C 0.9679 0.20427 0.44902 0.0
C181 C 0.97312 0.24093 0.46175 0.0
C182 C 0.98507 0.23301 0.41719 0.0
C183 C 0.98347 0.21429 0.41265 0.0
C184 C 0.95829 0.23028 0.49815 0.0
N185 N 0.95503 0.21218 0.49088 0.0
H186 H 0.96468 0.19028 0.44114 0.0
H187 H 0.94839 0.23681 0.53105 0.0
H188 H 0.94559 0.16291 0.46441 0.0
H189 H 0.96741 0.17845 0.61521 0.0
O190 O 0.90718 0.18763 0.47143 0.0
O191 O 0.89289 0.18279 0.55186 0.0
O192 O 0.94087 0.2077 0.59857 0.0
C193 C 0.88885 0.17981 0.50259 0.0
H194 H 0.8619 0.25233 0.57481 0.0
H195 H 0.98117 0.13847 0.50433 0.0
H196 H 0.97371 0.25533 0.46726 0.0
H197 H 0.99296 0.20738 0.37982 0.0
Co198 Co 0.17806 0.06897 0.76961 0.0
C199 C 0.12491 0.04696 0.74093 0.0
C200 C 0.15643 0.03196 0.78511 0.0
C201 C 0.13299 0.02091 0.77358 0.0
N202 N 0.15166 0.04832 0.7643 0.0
N203 N 0.11319 0.03037 0.74604 0.0
H204 H 0.11393 0.05778 0.72087 0.0
H205 H 0.17522 0.02823 0.80841 0.0
C206 C 0.22262 0.05853 0.85039 0.0
O207 O 0.24341 0.06539 0.82087 0.0
N208 N 0.20409 0.08978 0.77601 0.0
C209 C 0.21753 0.09918 0.73819 0.0
C210 C 0.23456 0.11251 0.7601 0.0
C211 C 0.21227 0.09808 0.82028 0.0
N212 N 0.23156 0.11163 0.81175 0.0
C213 C 0.20628 0.0614 0.67301 0.0
C214 C 0.23732 0.03117 0.70207 0.0
C215 C 0.23711 0.03613 0.65008 0.0
C216 C 0.22157 0.05153 0.63581 0.0
C217 C 0.22119 0.04124 0.73808 0.0
N218 N 0.20608 0.05641 0.72381 0.0
H219 H 0.19364 0.07274 0.65984 0.0
H220 H 0.22008 0.03608 0.77665 0.0
H221 H 0.21562 0.09658 0.69744 0.0
H222 H 0.20508 0.09389 0.85823 0.0
O223 O 0.15605 0.08157 0.71719 0.0
O224 O 0.14604 0.08307 0.8006 0.0
O225 O 0.19564 0.05831 0.83506 0.0
C226 C 0.13989 0.08822 0.75375 0.0
H227 H 0.13007 1.0072 0.78642 0.0
H228 H 0.24914 0.12161 0.73971 0.0
H229 H 0.24865 0.0191 0.71439 0.0
H230 H 0.22078 0.05577 0.59586 0.0
Co231 Co 0.84066 0.9464 0.76824 0.0
C232 C 0.89451 0.96762 0.73764 0.0
C233 C 0.87095 0.9798 0.80035 0.0
C234 C 0.89492 0.99036 0.78883 0.0
N235 N 0.87017 0.96561 0.76781 0.0
N236 N 0.9097 0.98269 0.74965 0.0
H237 H 0.90136 0.95828 0.70801 0.0
H238 H 0.8556 0.98238 0.83139 0.0
C239 C 0.80042 0.95822 0.85388 0.0
O240 O 0.77797 0.95534 0.82265 0.0
N241 N 0.81161 0.92681 0.77037 0.0
C242 C 0.80125 0.91703 0.73036 0.0
C243 C 0.781 0.90475 0.74823 0.0
C244 C 0.79886 0.91923 0.81255 0.0
N245 N 0.77917 0.90629 0.7999 0.0
C246 C 0.80547 0.95757 0.6823 0.0
C247 C 0.79017 0.99124 0.71754 0.0
C248 C 0.78207 0.98624 0.66738 0.0
C249 C 0.78959 0.96906 0.65028 0.0
C250 C 0.80574 0.97914 0.74883 0.0
N251 N 0.81314 0.96235 0.7314 0.0
H252 H 0.81313 0.94525 0.66567 0.0
H253 H 0.81236 0.98368 0.78646 0.0
H254 H 0.80836 0.9181 0.69081 0.0
H255 H 0.80348 0.92318 0.85182 0.0
O256 O 0.85839 0.93579 0.7083 0.0
O257 O 0.87146 0.92913 0.78817 0.0
O258 O 0.82688 0.95492 0.83874 0.0
C259 C 0.87485 0.92632 0.73874 0.0
H260 H 0.90179 1.00235 0.80921 0.0
H261 H 0.76878 0.89524 0.7249 0.0
H262 H 0.78506 1.0045 0.73213 0.0
H263 H 0.78484 0.96484 0.61114 0.0
Co264 Co 0.59195 0.31748 0.51621 0.0
C265 C 0.64348 0.29477 0.48306 0.0
C266 C 0.62336 0.28514 0.55269 0.0
C267 C 0.64687 0.27427 0.541 0.0
N268 N 0.62087 0.298 0.51627 0.0
N269 N 0.65964 0.2803 0.49738 0.0
H270 H 0.64838 0.30292 0.44964 0.0
H271 H 0.60948 0.2837 0.5863 0.0
C272 C 0.54683 0.30378 0.59068 0.0
O273 O 0.52675 0.30746 0.55556 0.0
N274 N 0.56358 0.33748 0.51832 0.0
C275 C 0.55708 0.34919 0.48023 0.0
C276 C 0.53734 0.36175 0.49833 0.0
C277 C 0.54904 0.34408 0.56017 0.0
N278 N 0.53202 0.35844 0.54856 0.0
C279 C 0.55914 0.30917 0.42482 0.0
C280 C 0.54756 0.27364 0.44712 0.0
C281 C 0.54114 0.28011 0.39758 0.0
C282 C 0.54628 0.29827 0.38738 0.0
C283 C 0.56034 0.28512 0.48385 0.0
N284 N 0.56614 0.30273 0.47255 0.0
H285 H 0.5654 0.32245 0.41346 0.0
H286 H 0.56676 0.27951 0.5205 0.0
H287 H 0.56695 0.34941 0.44234 0.0
H288 H 0.55097 0.33867 0.59863 0.0
O289 O 0.61284 0.32911 0.46129 0.0
O290 O 0.62228 0.33364 0.54413 0.0
O291 O 0.57409 0.30749 0.58208 0.0
C292 C 0.6283 0.33737 0.49599 0.0
H293 H 0.65482 0.26322 0.5643 0.0
H294 H 0.52831 0.37283 0.47644 0.0
H295 H 0.54433 0.25962 0.45653 0.0
H296 H 0.54163 0.30392 0.34976 0.0
Co297 Co 0.42747 0.69327 0.51967 0.0
C298 C 0.37564 0.71536 0.48526 0.0
C299 C 0.39929 0.72781 0.54743 0.0
C300 C 0.37586 0.7386 0.53445 0.0
N301 N 0.39959 0.71328 0.51622 0.0
N302 N 0.36097 0.73075 0.49563 0.0
H303 H 0.3686 0.70579 0.45641 0.0
H304 H 0.41458 0.73047 0.5785 0.0
C305 C 0.47186 0.70635 0.59664 0.0
O306 O 0.49266 0.70165 0.56376 0.0
N307 N 0.45469 0.67288 0.525 0.0
C308 C 0.46269 0.66102 0.48804 0.0
C309 C 0.48094 0.64818 0.50933 0.0
C310 C 0.467 0.66633 0.56875 0.0
N311 N 0.48389 0.65172 0.55997 0.0
C312 C 0.46124 0.70065 0.42788 0.0
C313 C 0.47782 0.73517 0.45374 0.0
C314 C 0.4843 0.72882 0.40418 0.0
C315 C 0.47631 0.71118 0.39178 0.0
C316 C 0.46291 0.72417 0.48878 0.0
N317 N 0.45482 0.70701 0.47606 0.0
H318 H 0.45308 0.68782 0.41545 0.0
H319 H 0.45706 0.72988 0.5255 0.0
H320 H 0.4552 0.66112 0.44856 0.0
H321 H 0.46336 0.67185 0.60679 0.0
O322 O 0.40651 0.68101 0.46551 0.0
O323 O 0.39625 0.67838 0.54893 0.0
O324 O 0.44458 0.7037 0.58549 0.0
C325 C 0.39027 0.67391 0.5014 0.0
H326 H 0.36936 0.75087 0.5538 0.0
H327 H 0.49155 0.63723 0.48901 0.0
H328 H 0.48348 0.74874 0.46497 0.0
H329 H 0.48004 0.70589 0.35339 0.0
Co330 Co 0.67961 0.56801 0.76836 0.0
C331 C 0.62717 0.54569 0.73788 0.0
C332 C 0.64915 0.53528 0.80473 0.0
C333 C 0.62518 0.5246 0.79423 0.0
N334 N 0.6507 0.54852 0.76933 0.0
N335 N 0.61125 0.53114 0.75236 0.0
H336 H 0.62145 0.55418 0.70558 0.0
H337 H 0.66399 0.53344 0.83689 0.0
C338 C 0.72498 0.55539 0.84433 0.0
O339 O 0.74544 0.55919 0.80991 0.0
N340 N 0.70812 0.58788 0.76931 0.0
C341 C 0.71739 0.59804 0.72933 0.0
C342 C 0.73777 0.61035 0.74674 0.0
C343 C 0.72169 0.59517 0.81113 0.0
N344 N 0.74076 0.60841 0.79813 0.0
C345 C 0.71045 0.55848 0.67512 0.0
C346 C 0.7279 0.52455 0.70491 0.0
C347 C 0.73428 0.53026 0.65463 0.0
C348 C 0.72548 0.54753 0.6401 0.0
C349 C 0.71309 0.53605 0.73903 0.0
N350 N 0.70514 0.55306 0.72459 0.0
H351 H 0.70153 0.57087 0.66094 0.0
H352 H 0.70729 0.53091 0.77655 0.0
H353 H 0.70946 0.5972 0.69025 0.0
H354 H 0.7182 0.59072 0.85033 0.0
O355 O 0.65794 0.57985 0.71423 0.0
O356 O 0.64991 0.58395 0.79787 0.0
O357 O 0.69768 0.55832 0.83418 0.0
C358 C 0.64291 0.58775 0.75031 0.0
H359 H 0.61781 0.51333 0.8172 0.0
H360 H 0.7493 0.62014 0.72333 0.0
H361 H 0.7338 0.51117 0.71753 0.0
H362 H 0.72871 0.55223 0.60096 0.0
Co363 Co 0.34284 0.44863 0.76834 0.0
C364 C 0.39175 0.47356 0.7361 0.0
C365 C 0.37196 0.4814 0.8078 0.0
C366 C 0.39476 0.49296 0.79719 0.0
N367 N 0.36976 0.46918 0.76949 0.0
N368 N 0.40738 0.48802 0.75231 0.0
H369 H 0.39674 0.46615 0.70132 0.0
H370 H 0.35859 0.48184 0.84225 0.0
C371 C 0.29767 0.46062 0.84531 0.0
O372 O 0.27736 0.4569 0.8106 0.0
N373 N 0.31652 0.4276 0.76985 0.0
C374 C 0.31126 0.41558 0.73192 0.0
C375 C 0.29222 0.40257 0.74988 0.0
C376 C 0.30213 0.42075 0.81144 0.0
N377 N 0.28618 0.40593 0.79989 0.0
C378 C 0.30711 0.4561 0.67996 0.0
C379 C 0.29357 0.49131 0.70337 0.0
C380 C 0.28637 0.48463 0.65437 0.0
C381 C 0.29253 0.46663 0.64364 0.0
C382 C 0.3082 0.48023 0.73895 0.0
N383 N 0.31497 0.46278 0.72704 0.0
H384 H 0.31394 0.44297 0.66815 0.0
H385 H 0.31514 0.48599 0.77516 0.0
H386 H 0.32131 0.41565 0.69412 0.0
H387 H 0.30343 0.42628 0.84981 0.0
O388 O 0.36429 0.43866 0.71139 0.0
O389 O 0.37516 0.4332 0.79308 0.0
O390 O 0.32496 0.4573 0.83574 0.0
C391 C 0.38143 0.43077 0.74429 0.0
H392 H 0.40251 0.5036 0.82224 0.0
H393 H 0.28405 0.39124 0.72796 0.0
H394 H 0.28956 0.50524 0.71302 0.0
H395 H 0.28742 0.46089 0.60628 0.0
Co396 Co 0.58918 0.81637 0.01881 0.0
C397 C 0.64127 0.794 0.98656 0.0
C398 C 0.61669 0.78158 0.04749 0.0
C399 C 0.6406 0.77091 0.03612 0.0
N400 N 0.61667 0.79606 0.01603 0.0
N401 N 0.65606 0.7788 0.99812 0.0
H402 H 0.64894 0.80355 0.95826 0.0
H403 H 0.60104 0.77897 0.07802 0.0
C404 C 0.5464 0.80303 0.09825 0.0
O405 O 0.52497 0.80691 0.0658 0.0
N406 N 0.56237 0.8371 0.02355 0.0
C407 C 0.55663 0.84946 0.98685 0.0
C408 C 0.5371 0.86197 1.00602 0.0
C409 C 0.54766 0.84323 0.06572 0.0
N410 N 0.53106 0.85791 0.0556 0.0
C411 C 0.55276 0.80941 0.93107 0.0
C412 C 0.53945 0.77405 0.95253 0.0
C413 C 0.53272 0.7809 0.90362 0.0
C414 C 0.53854 0.79901 0.89396 0.0
C415 C 0.55363 0.785 0.9889 0.0
N416 N 0.5607 0.80247 0.97778 0.0
H417 H 0.55933 0.82268 0.92008 0.0
H418 H 0.55986 0.77904 0.02505 0.0
H419 H 0.56645 0.84988 0.9489 0.0
H420 H 0.54911 0.83723 0.10341 0.0
O421 O 0.60901 0.8272 0.96157 0.0
O422 O 0.62169 0.83188 0.04282 0.0
O423 O 0.57329 0.80674 0.08662 0.0
C424 C 0.62666 0.83499 0.99391 0.0
H425 H 0.64721 0.75887 0.0564 0.0
H426 H 0.52841 0.87333 0.98496 0.0
H427 H 0.53549 0.76007 0.96158 0.0
H428 H 0.53353 0.80494 0.85683 0.0
Co429 Co 0.42866 0.1937 0.01781 0.0
C430 C 0.37892 0.21756 0.98538 0.0
C431 C 0.40044 0.22723 0.05371 0.0
C432 C 0.3778 0.23874 0.04169 0.0
N433 N 0.4014 0.21394 0.01831 0.0
N434 N 0.36419 0.23264 0.99892 0.0
H435 H 0.37303 0.20925 0.95275 0.0
H436 H 0.41475 0.22854 0.0868 0.0
C437 C 0.47613 0.20679 0.08977 0.0
O438 O 0.49586 0.20254 0.05448 0.0
N439 N 0.45557 0.17309 0.019 0.0
C440 C 0.46159 0.16148 0.98035 0.0
C441 C 0.48173 0.14898 0.99731 0.0
C442 C 0.47068 0.16651 0.06005 0.0
N443 N 0.48763 0.15226 0.04733 0.0
C444 C 0.45884 0.20081 0.92255 0.0
C445 C 0.47608 0.23551 0.94481 0.0
C446 C 0.48056 0.2289 0.89474 0.0
C447 C 0.47235 0.21114 0.88439 0.0
C448 C 0.46262 0.22463 0.98215 0.0
N449 N 0.45433 0.20736 0.97112 0.0
H450 H 0.4502 0.18799 0.91142 0.0
H451 H 0.45769 0.2305 0.0192 0.0
H452 H 0.45145 0.16146 0.94272 0.0
H453 H 0.46961 0.17202 0.09855 0.0
O454 O 0.40495 0.1819 0.9661 0.0
O455 O 0.39831 0.17894 0.05045 0.0
O456 O 0.44863 0.20378 0.08161 0.0
C457 C 0.39001 0.17486 1.00369 0.0
H458 H 0.37091 0.25023 0.06427 0.0
H459 H 0.49105 0.13813 0.97473 0.0
H460 H 0.4814 0.24929 0.95437 0.0
H461 H 0.47524 0.2054 0.84633 0.0
Co462 Co 0.68303 0.06681 0.26907 0.0
C463 C 0.6333 0.04314 0.234 0.0
C464 C 0.65507 0.03256 0.30078 0.0
C465 C 0.6321 0.02134 0.2881 0.0
N466 N 0.65617 0.04625 0.26667 0.0
N467 N 0.61833 0.02806 0.24639 0.0
H468 H 0.62707 0.05185 0.20254 0.0
H469 H 0.66934 0.03088 0.33379 0.0
C470 C 0.72386 0.05663 0.35513 0.0
O471 O 0.74611 0.06068 0.32452 0.0
N472 N 0.70913 0.08776 0.27331 0.0
C473 C 0.71821 0.09869 0.23488 0.0
C474 C 0.73485 0.11243 0.25539 0.0
C475 C 0.71906 0.09581 0.31694 0.0
N476 N 0.7356 0.11051 0.30705 0.0
C477 C 0.72101 0.05775 0.1844 0.0
C478 C 0.73701 0.02394 0.21757 0.0
C479 C 0.74504 0.02933 0.16769 0.0
C480 C 0.7374 0.04664 0.15181 0.0
C481 C 0.72092 0.03562 0.24939 0.0
N482 N 0.71288 0.05238 0.23276 0.0
H483 H 0.71303 0.07013 0.16865 0.0
H484 H 0.71396 0.03072 0.2865 0.0
H485 H 0.71237 0.09744 0.19475 0.0
H486 H 0.71372 0.09136 0.35549 0.0
O487 O 0.66438 0.0767 0.20911 0.0
O488 O 0.64984 0.08229 0.28905 0.0
O489 O 0.69719 0.05867 0.33946 0.0
C490 C 0.64588 0.08472 0.23962 0.0
H491 H 0.62496 0.0097 0.30975 0.0
H492 H 0.74571 0.12296 0.23374 0.0
H493 H 0.74231 0.01061 0.23134 0.0
H494 H 0.74221 0.05119 0.11302 0.0
Co495 Co 0.34545 0.94699 0.26928 0.0
C496 C 0.39932 0.9695 0.24092 0.0
C497 C 0.39692 0.96168 0.32044 0.0
C498 C 0.42185 0.97189 0.31386 0.0
N499 N 0.38218 0.96053 0.27527 0.0
N500 N 0.4233 0.97677 0.26405 0.0
H501 H 0.39491 0.97076 0.20027 0.0
H502 H 0.38981 0.95551 0.35611 0.0
C503 C 0.33333 0.97529 0.3476 0.0
O504 O 0.34655 0.98661 0.31626 0.0
N505 N 0.30948 0.93303 0.26665 0.0
C506 C 0.29373 0.92832 0.22477 0.0
C507 C 0.26947 0.91853 0.24072 0.0
C508 C 0.29481 0.92606 0.30736 0.0
N509 N 0.27014 0.9171 0.29273 0.0
C510 C 0.33757 0.96681 0.17638 0.0
C511 C 0.28796 0.98611 0.20461 0.0
C512 C 0.29996 0.9887 0.1551 0.0
C513 C 0.32477 0.97851 0.14116 0.0
C514 C 0.30145 0.97399 0.23885 0.0
N515 N 0.32687 0.96513 0.22537 0.0
H516 H 0.35581 0.9587 0.16323 0.0
H517 H 0.29101 0.97152 0.27565 0.0
H518 H 0.29936 0.93186 0.18552 0.0
H519 H 0.30231 0.92735 0.34681 0.0
O520 O 0.36217 0.93265 0.2151 0.0
O521 O 0.36682 0.92641 0.2981 0.0
O522 O 0.33047 0.95879 0.33477 0.0
C523 C 0.37308 0.92232 0.25033 0.0
H524 H 0.43809 0.97519 0.3431 0.0
H525 H 0.25242 0.91314 0.21582 0.0
H526 H 0.26835 0.99331 0.21684 0.0
H527 H 0.33398 0.97917 0.10263 0.0
H528 H 0.16753 0.32658 0.91973 0.0
H529 H 0.15879 0.36831 0.03426 0.0
H530 H 0.20574 0.34354 0.87623 0.0
H531 H 0.19726 0.3859 0.98907 0.0
H532 H 0.28603 0.40404 0.90538 0.0
H533 H 0.25087 0.38763 0.9599 0.0
H534 H 0.20406 0.37015 0.82368 0.0
H535 H 0.23882 0.38633 0.76974 0.0
C536 C 0.17391 0.33944 0.93581 0.0
C537 C 0.15982 0.34622 0.98008 0.0
C538 C 0.19577 0.34924 0.91054 0.0
C539 C 0.20409 0.36632 0.92819 0.0
C540 C 0.19127 0.3728 0.97431 0.0
C541 C 0.16929 0.36277 1.00022 0.0
C542 C 0.26817 0.39675 0.8871 0.0
C543 C 0.26566 0.39631 0.83286 0.0
C544 C 0.24796 0.38738 0.91845 0.0
C545 C 0.22485 0.37734 0.89626 0.0
C546 C 0.22202 0.37733 0.84219 0.0
C547 C 0.24209 0.3866 0.81107 0.0
H548 H 0.86004 0.65391 0.03595 0.0
H549 H 0.86984 0.68408 0.89484 0.0
H550 H 0.8219 0.63515 0.99379 0.0
H551 H 0.83213 0.6661 0.85414 0.0
H552 H 0.79533 0.6194 0.77076 0.0
H553 H 0.83087 0.63584 0.82258 0.0
H554 H 0.77072 0.6346 0.95215 0.0
H555 H 0.73496 0.61758 0.89968 0.0
C556 C 0.85388 0.65666 0.99637 0.0
C557 C 0.86841 0.67025 0.96849 0.0
C558 C 0.83205 0.64597 0.97225 0.0
C559 C 0.82444 0.64882 0.92007 0.0
C560 C 0.83801 0.66307 0.89369 0.0
C561 C 0.85968 0.67348 0.9173 0.0
C562 C 0.78951 0.62269 0.81016 0.0
C563 C 0.76201 0.61752 0.83064 0.0
C564 C 0.80995 0.63212 0.84005 0.0
C565 C 0.80346 0.63692 0.89134 0.0
C566 C 0.77643 0.63113 0.91281 0.0
C567 C 0.75592 0.62146 0.88274 0.0
H568 H 1.00809 0.62405 0.03128 0.0
H569 H 0.99795 0.66416 0.15014 0.0
H570 H 0.04289 0.60776 0.08558 0.0
H571 H 0.03296 0.64767 0.20499 0.0
H572 H 0.08638 0.59955 0.29248 0.0
H573 H 0.04486 0.61583 0.25158 0.0
H574 H 0.0947 0.61883 0.10976 0.0
H575 H 0.13543 0.60304 0.14968 0.0
C576 C 0.01302 0.62927 0.06929 0.0
C577 C 1.00062 0.64556 0.08592 0.0
C578 C 0.03291 0.61993 0.10048 0.0
C579 C 0.04101 0.62659 0.14923 0.0
C580 C 0.02708 0.6422 0.16765 0.0
C581 C 1.00704 0.65162 0.13622 0.0
C582 C 0.08848 0.60397 0.25286 0.0
C583 C 0.11405 0.5998 0.22419 0.0
C584 C 0.06475 0.61321 0.22946 0.0
C585 C 0.06632 0.61823 0.1771 0.0
C586 C 0.09249 0.61476 0.1497 0.0
C587 C 0.11593 0.60574 0.17282 0.0
H588 H 0.97626 0.36454 0.0189 0.0
H589 H 0.0393 0.36737 0.14375 0.0
H590 H 0.94058 0.38114 0.07024 0.0
H591 H 1.00336 0.38429 0.19551 0.0
H592 H 0.91569 0.40215 0.28398 0.0
H593 H 0.95362 0.38362 0.24064 0.0
H594 H 0.93707 0.41188 0.09819 0.0
H595 H 0.89964 0.42974 0.14025 0.0
C596 C 0.98265 0.36886 0.05716 0.0
C597 C 1.01089 0.36486 0.07671 0.0
C598 C 0.96212 0.37836 0.0868 0.0
C599 C 0.96921 0.38432 0.13684 0.0
C600 C 0.99711 0.37985 0.15725 0.0
C601 C 0.01773 0.37021 0.1275 0.0
C602 C 0.9204 0.40438 0.24353 0.0
C603 C 0.90428 0.41721 0.21545 0.0
C604 C 0.9421 0.39382 0.21871 0.0
C605 C 0.94793 0.39599 0.16556 0.0
C606 C 0.93261 0.4094 0.13863 0.0
C607 C 0.91113 0.41975 0.16303 0.0
H608 H 0.11413 0.86314 0.40221 0.0
H609 H 0.17241 0.85938 0.53351 0.0
H610 H 0.14973 0.88219 0.35811 0.0
H611 H 0.20887 0.87833 0.48853 0.0
H612 H 0.25847 0.92327 0.39461 0.0
H613 H 0.22154 0.9081 0.4484 0.0
H614 H 0.19695 0.87491 0.31875 0.0
H615 H 0.23361 0.88984 0.26551 0.0
C616 C 0.13444 0.86669 0.42204 0.0
C617 C 0.14057 0.85973 0.47118 0.0
C618 C 0.155 0.87747 0.39653 0.0
C619 C 0.18252 0.88142 0.41914 0.0
C620 C 0.18789 0.87551 0.46996 0.0
C621 C 0.16701 0.86474 0.49587 0.0
C622 C 0.24535 0.91264 0.3777 0.0
C623 C 0.24892 0.90794 0.32535 0.0
C624 C 0.22414 0.90397 0.4086 0.0
C625 C 0.20593 0.89047 0.38777 0.0
C626 C 0.21 0.88557 0.33581 0.0
C627 C 0.23111 0.89416 0.30512 0.0
H628 H 0.87901 0.17338 0.40169 0.0
H629 H 0.84322 0.1616 0.55261 0.0
H630 H 0.83884 0.15726 0.36164 0.0
H631 H 0.80212 0.14507 0.51134 0.0
H632 H 0.75935 0.09971 0.39837 0.0
H633 H 0.79377 0.1167 0.45286 0.0
H634 H 0.78458 0.16239 0.352 0.0
H635 H 0.75035 0.14555 0.29792 0.0
C636 C 0.86251 0.16734 0.42659 0.0
C637 C 0.86434 0.16892 0.48058 0.0
C638 C 0.83926 0.15816 0.40336 0.0
C639 C 0.81697 0.15015 0.43316 0.0
C640 C 0.81897 0.1512 0.48737 0.0
C641 C 0.84242 0.16064 0.51096 0.0
C642 C 0.76416 0.11352 0.38853 0.0
C643 C 0.75246 0.12118 0.34322 0.0
C644 C 0.78386 0.12324 0.41981 0.0
C645 C 0.79223 0.14079 0.4063 0.0
C646 C 0.77901 0.14877 0.3629 0.0
C647 C 0.75945 0.1391 0.33176 0.0
H648 H 0.98773 0.12005 0.58452 0.0
H649 H 0.02056 0.17134 0.63629 0.0
H650 H 0.02424 0.10481 0.63916 0.0
H651 H 0.05738 0.15613 0.6902 0.0
H652 H 0.14344 0.11845 0.69727 0.0
H653 H 0.10258 0.13583 0.66072 0.0
H654 H 0.03982 0.10169 0.73908 0.0
H655 H 0.08107 0.0846 0.7772 0.0
C656 C 1.00261 0.12804 0.60787 0.0
C657 C 1.00134 0.14688 0.60603 0.0
C658 C 0.02331 0.11934 0.63944 0.0
C659 C 0.0436 0.1293 0.669 0.0
C660 C 0.04198 0.14813 0.6679 0.0
C661 C 0.02086 0.15682 0.63721 0.0
C662 C 0.12091 0.11504 0.70793 0.0
C663 C 0.11532 0.10043 0.74063 0.0
C664 C 0.09755 0.12494 0.68697 0.0
C665 C 0.06802 0.1201 0.69702 0.0
C666 C 0.06238 0.10571 0.73079 0.0
C667 C 0.08589 0.09607 0.75296 0.0
H668 H 0.87037 0.91056 0.64572 0.0
H669 H 0.92717 0.91284 0.77941 0.0
H670 H 0.90629 0.89211 0.60105 0.0
H671 H 0.96409 0.89437 0.73361 0.0
H672 H 1.00998 0.84729 0.64106 0.0
H673 H 0.97521 0.8645 0.69422 0.0
H674 H 0.95376 0.89736 0.56233 0.0
H675 H 0.98807 0.88021 0.50961 0.0
C676 C 0.89064 0.90707 0.66569 0.0
C677 C 0.89606 0.91334 0.71595 0.0
C678 C 0.91139 0.89656 0.63983 0.0
C679 C 0.93847 0.89207 0.66311 0.0
C680 C 0.94347 0.89761 0.71446 0.0
C681 C 0.92238 0.90816 0.74075 0.0
C682 C 0.998 0.85829 0.62358 0.0
C683 C 1.00159 0.86219 0.57075 0.0
C684 C 0.9781 0.86817 0.65412 0.0
C685 C 0.96132 0.88217 0.63249 0.0
C686 C 0.96568 0.88637 0.58009 0.0
C687 C 0.98541 0.87651 0.54969 0.0
H688 H 0.74191 0.38055 0.27143 0.0
H689 H 0.78318 0.40349 0.40672 0.0
H690 H 0.70523 0.3662 0.32532 0.0
H691 H 0.74529 0.38942 0.46094 0.0
H692 H 0.68478 0.34256 0.53438 0.0
H693 H 0.72507 0.3591 0.49109 0.0
H694 H 0.66319 0.37715 0.37525 0.0
H695 H 0.62376 0.36051 0.41738 0.0
C696 C 0.74348 0.38246 0.31268 0.0
C697 C 0.76573 0.39332 0.33429 0.0
C698 C 0.72204 0.37437 0.34371 0.0
C699 C 0.72195 0.3769 0.39745 0.0
C700 C 0.74468 0.38724 0.41964 0.0
C701 C 0.76627 0.39543 0.38839 0.0
C702 C 0.67983 0.35048 0.50046 0.0
C703 C 0.65127 0.3502 0.47897 0.0
C704 C 0.70285 0.35987 0.47554 0.0
C705 C 0.69747 0.36908 0.42897 0.0
C706 C 0.66833 0.36979 0.41014 0.0
C707 C 0.64564 0.36039 0.43456 0.0
H708 H 0.2642 0.59494 0.38206 0.0
H709 H 0.24038 0.6469 0.32184 0.0
H710 H 0.30147 0.609 0.43768 0.0
H711 H 0.27726 0.66103 0.37849 0.0
H712 H 0.3319 0.67897 0.52359 0.0
H713 H 0.28971 0.6633 0.48355 0.0
H714 H 0.35037 0.6278 0.40512 0.0
H715 H 0.39231 0.64387 0.4434 0.0
C716 C 0.2665 0.6094 0.38161 0.0
C717 C 0.24945 0.61986 0.34763 0.0
C718 C 0.28785 0.61741 0.41325 0.0
C719 C 0.29207 0.63607 0.41246 0.0
C720 C 0.27419 0.64662 0.38013 0.0
C721 C 0.2533 0.63857 0.34755 0.0
C722 C 0.33603 0.6675 0.4989 0.0
C723 C 0.36516 0.66237 0.48701 0.0
C724 C 0.31201 0.65868 0.4757 0.0
C725 C 0.31688 0.64434 0.44143 0.0
C726 C 0.34604 0.6387 0.43177 0.0
C727 C 0.36997 0.64782 0.45371 0.0
H728 H 0.517 0.66751 0.63388 0.0
H729 H 0.49556 0.61619 0.56653 0.0
H730 H 0.55399 0.65308 0.68929 0.0
H731 H 0.5321 0.60168 0.62278 0.0
H732 H 0.58436 0.5812 0.76522 0.0
H733 H 0.54275 0.59719 0.72482 0.0
H734 H 0.60391 0.63582 0.66118 0.0
H735 H 0.6454 0.61945 0.70002 0.0
C736 C 0.51979 0.65309 0.63174 0.0
C737 C 0.50346 0.64294 0.59592 0.0
C738 C 0.54101 0.64487 0.66322 0.0
C739 C 0.54579 0.62627 0.6604 0.0
C740 C 0.52865 0.61602 0.62603 0.0
C741 C 0.50792 0.6243 0.59368 0.0
C742 C 0.58867 0.5934 0.74382 0.0
C743 C 0.61785 0.59937 0.73637 0.0
C744 C 0.565 0.60243 0.72036 0.0
C745 C 0.57016 0.61775 0.69003 0.0
C746 C 0.59929 0.62416 0.68481 0.0
C747 C 0.62297 0.61488 0.7071 0.0
H748 H 0.53451 0.36278 0.65328 0.0
H749 H 0.48203 0.37531 0.51898 0.0
H750 H 0.49998 0.38007 0.70726 0.0
H751 H 0.44784 0.39222 0.57217 0.0
H752 H 0.41233 0.43821 0.65853 0.0
H753 H 0.45024 0.42053 0.61671 0.0
H754 H 0.44713 0.38213 0.74126 0.0
H755 H 0.40909 0.40055 0.78476 0.0
C756 C 0.51557 0.36909 0.63531 0.0
C757 C 0.51141 0.36796 0.58152 0.0
C758 C 0.49576 0.37896 0.66627 0.0
C759 C 0.47142 0.38785 0.64399 0.0
C760 C 0.4668 0.38604 0.59057 0.0
C761 C 0.48649 0.37633 0.55988 0.0
C762 C 0.41989 0.42613 0.6776 0.0
C763 C 0.40743 0.42068 0.72472 0.0
C764 C 0.44156 0.41588 0.6533 0.0
C765 C 0.45122 0.39962 0.67477 0.0
C766 C 0.44007 0.39456 0.72354 0.0
C767 C 0.41834 0.40507 0.74848 0.0
H768 H 0.66008 0.86213 0.04001 0.0
H769 H 0.65123 0.83095 0.90035 0.0
H770 H 0.69863 0.88052 0.99753 0.0
H771 H 0.68938 0.84854 0.85952 0.0
H772 H 0.72423 0.89542 0.77451 0.0
H773 H 0.68919 0.87912 0.82758 0.0
H774 H 0.75065 0.88034 0.95507 0.0
H775 H 0.78607 0.89712 0.90126 0.0
C776 C 0.6666 0.85905 1.00078 0.0
C777 C 0.65219 0.84531 0.97329 0.0
C778 C 0.68864 0.86952 0.9765 0.0
C779 C 0.69656 0.86627 0.92464 0.0
C780 C 0.68324 0.85182 0.89883 0.0
C781 C 0.66135 0.84164 0.92253 0.0
C782 C 0.73049 0.89213 0.81367 0.0
C783 C 0.75827 0.8972 0.83314 0.0
C784 C 0.71032 0.88282 0.84428 0.0
C785 C 0.71731 0.87808 0.89534 0.0
C786 C 0.7446 0.88377 0.91589 0.0
C787 C 0.7649 0.8933 0.88504 0.0
H788 H 0.38853 0.14028 0.97135 0.0
H789 H 0.33279 0.18566 1.0056 0.0
H790 H 0.34609 0.12457 0.933 0.0
H791 H 0.29048 0.1703 0.96546 0.0
H792 H 0.24934 0.14623 0.80819 0.0
H793 H 0.28484 0.161 0.86583 0.0
H794 H 0.29129 0.11258 0.95617 0.0
H795 H 0.25512 0.09801 0.89927 0.0
C796 C 0.36693 0.14662 0.97203 0.0
C797 C 0.36362 0.16397 0.99217 0.0
C798 C 0.34272 0.1377 0.94993 0.0
C799 C 0.31502 0.14624 0.94619 0.0
C800 C 0.31156 0.16341 0.96788 0.0
C801 C 0.33563 0.17213 0.9911 0.0
C802 C 0.25796 0.13889 0.84091 0.0
C803 C 0.2495 0.12098 0.84922 0.0
C804 C 0.27815 0.14734 0.87399 0.0
C805 C 0.29083 0.13792 0.91542 0.0
C806 C 0.28185 0.12014 0.92453 0.0
C807 C 0.26108 0.11185 0.89216 0.0
H808 H 0.61175 0.11189 0.28256 0.0
H809 H 0.6225 0.07966 0.14538 0.0
H810 H 0.57257 0.12919 0.23894 0.0
H811 H 0.58321 0.09597 0.10344 0.0
H812 H 0.54022 0.13959 0.01521 0.0
H813 H 0.57756 0.12428 0.0659 0.0
H814 H 0.52264 0.12934 0.2018 0.0
H815 H 0.48542 0.14544 0.15046 0.0
C816 C 0.60552 0.10838 0.2435 0.0
C817 C 0.62055 0.09464 0.21712 0.0
C818 C 0.58305 0.11821 0.21854 0.0
C819 C 0.57512 0.11427 0.16709 0.0
C820 C 0.58931 0.09989 0.14223 0.0
C821 C 0.61182 0.0904 0.16658 0.0
C822 C 0.53599 0.13734 0.05581 0.0
C823 C 0.50965 0.14341 0.07859 0.0
C824 C 0.5574 0.12852 0.08504 0.0
C825 C 0.55293 0.12516 0.13792 0.0
C826 C 0.52689 0.1317 0.16126 0.0
C827 C 0.50551 0.14083 0.13188 0.0
H828 H 0.48489 0.87888 0.02626 0.0
H829 H 0.52686 0.85611 0.16098 0.0
H830 H 0.44685 0.89184 0.08024 0.0
H831 H 0.48763 0.86863 0.21515 0.0
H832 H 0.42745 0.91431 0.2914 0.0
H833 H 0.46683 0.89729 0.24785 0.0
H834 H 0.4048 0.88187 0.12894 0.0
H835 H 0.36622 0.89926 0.17141 0.0
C836 C 0.48625 0.87667 0.0674 0.0
C837 C 0.50924 0.86636 0.08881 0.0
C838 C 0.46398 0.88391 0.09848 0.0
C839 C 0.46376 0.88102 0.15209 0.0
C840 C 0.48704 0.87108 0.174 0.0
C841 C 0.50946 0.86379 0.14273 0.0
C842 C 0.42214 0.90672 0.25697 0.0
C843 C 0.39386 0.90804 0.23471 0.0
C844 C 0.4447 0.89708 0.23177 0.0
C845 C 0.4392 0.88858 0.18411 0.0
C846 C 0.41011 0.88867 0.16469 0.0
C847 C 0.38785 0.89842 0.18939 0.0
H848 H 0.01649 0.26497 0.42038 0.0
H849 H 0.97933 0.22634 0.31406 0.0
H850 H 0.03402 0.28285 0.34736 0.0
H851 H 0.99864 0.24317 0.24239 0.0
H852 H 0.0136 0.28046 0.11543 0.0
H853 H 0.99135 0.26872 0.194 0.0
H854 H 0.06967 0.28396 0.27961 0.0
H855 H 0.09088 0.29685 0.20078 0.0
C856 C 0.01213 0.26023 0.38165 0.0
C857 C 0.99671 0.24404 0.37348 0.0
C858 C 0.02246 0.2704 0.33971 0.0
C859 C 0.01764 0.2646 0.28864 0.0
C860 C 1.00229 0.2484 0.28083 0.0
C861 C 0.99173 0.23844 0.32238 0.0
C862 C 0.02564 0.28167 0.15143 0.0
C863 C 0.05382 0.28949 0.15238 0.0
C864 C 0.01313 0.27474 0.19642 0.0
C865 C 0.029 0.27487 0.24321 0.0
C866 C 0.05669 0.28363 0.24453 0.0
C867 C 0.06891 0.291 0.19946 0.0
H868 H 0.9886 0.77043 0.39064 0.0
H869 H 0.07626 0.75356 0.34489 0.0
H870 H 0.96724 0.75147 0.3231 0.0
H871 H 0.05547 0.73587 0.27585 0.0
H872 H 0.01547 0.69725 0.16846 0.0
H873 H 0.03031 0.71087 0.24961 0.0
H874 H 0.96071 0.75035 0.2333 0.0
H875 H 0.94471 0.73576 0.15364 0.0
C876 C 1.0033 0.76255 0.36659 0.0
C877 C 0.03419 0.76372 0.3729 0.0
C878 C 0.99109 0.75186 0.32728 0.0
C879 C 1.0095 0.74213 0.29328 0.0
C880 C 0.04032 0.74283 0.30127 0.0
C881 C 0.05239 0.75328 0.34066 0.0
C882 C 1.00311 0.7087 0.18265 0.0
C883 C 0.97914 0.71555 0.15446 0.0
C884 C 0.01176 0.71665 0.22909 0.0
C885 C 0.99724 0.73206 0.24795 0.0
C886 C 0.97239 0.73846 0.22059 0.0
C887 C 0.96327 0.73018 0.17462 0.0
H888 H 0.27429 0.55244 0.38462 0.0
H889 H 0.18262 0.54139 0.42095 0.0
H890 H 0.28966 0.53682 0.46224 0.0
H891 H 0.19828 0.52547 0.4991 0.0
H892 H 0.24175 0.50992 0.65775 0.0
H893 H 0.22415 0.5289 0.58644 0.0
H894 H 0.28918 0.50485 0.48558 0.0
H895 H 0.30683 0.48634 0.55611 0.0
C896 C 0.25734 0.54672 0.40924 0.0
C897 C 0.22721 0.54797 0.3961 0.0
C898 C 0.26621 0.53773 0.45378 0.0
C899 C 0.24523 0.5297 0.48649 0.0
C900 C 0.21496 0.53157 0.47472 0.0
C901 C 0.20602 0.54061 0.42986 0.0
C902 C 0.25229 0.50883 0.62033 0.0
C903 C 0.2755 0.49654 0.61243 0.0
C904 C 0.24211 0.51957 0.57951 0.0
C905 C 0.25534 0.51842 0.53043 0.0
C906 C 0.2787 0.50624 0.52299 0.0
C907 C 0.28862 0.49547 0.56334 0.0
H908 H 0.72022 0.49514 0.63604 0.0
H909 H 0.77818 0.53767 0.58494 0.0
H910 H 0.73834 0.47596 0.56631 0.0
H911 H 0.79607 0.51854 0.51487 0.0
H912 H 0.74495 0.46122 0.39166 0.0
H913 H 0.73201 0.47716 0.47052 0.0
H914 H 0.82416 0.49004 0.49523 0.0
H915 H 0.83728 0.47393 0.41613 0.0
C916 C 0.73721 0.50028 0.61049 0.0
C917 C 0.7477 0.51794 0.61591 0.0
C918 C 0.74739 0.48935 0.57028 0.0
C919 C 0.76852 0.49577 0.53491 0.0
C920 C 0.77994 0.51316 0.54167 0.0
C921 C 0.76954 0.52416 0.58155 0.0
C922 C 0.76255 0.46729 0.41405 0.0
C923 C 0.79214 0.46641 0.39727 0.0
C924 C 0.75512 0.47634 0.45949 0.0
C925 C 0.77704 0.48489 0.48908 0.0
C926 C 0.80675 0.4837 0.47299 0.0
C927 C 0.81426 0.47442 0.42777 0.0
H928 H 0.05 0.74548 0.90194 0.0
H929 H 0.96525 0.75561 0.83115 0.0
H930 H 0.07464 0.7619 0.83174 0.0
H931 H 0.98959 0.77213 0.76158 0.0
H932 H 0.04237 0.81053 0.65933 0.0
H933 H 0.02114 0.79967 0.74062 0.0
H934 H 0.07966 0.75391 0.7362 0.0
H935 H 0.10062 0.76458 0.65512 0.0
C936 C 0.03667 0.7516 0.87203 0.0
C937 C 1.00582 0.74931 0.87171 0.0
C938 C 0.0507 0.76087 0.83178 0.0
C939 C 0.03402 0.76825 0.79109 0.0
C940 C 1.00301 0.76676 0.79255 0.0
C941 C 0.98909 0.75726 0.8322 0.0
C942 C 0.0509 0.79826 0.67607 0.0
C943 C 0.07301 0.78834 0.65063 0.0
C944 C 0.03871 0.79203 0.72249 0.0
C945 C 0.0488 0.77596 0.74483 0.0
C946 C 0.07167 0.76643 0.72029 0.0
C947 C 0.08347 0.77248 0.67358 0.0
H948 H 0.99839 0.25404 0.92258 0.0
H949 H 0.02987 0.29386 0.81503 0.0
H950 H 0.9781 0.23643 0.85025 0.0
H951 H 1.00984 0.27647 0.74345 0.0
H952 H 0.01938 0.22817 0.63711 0.0
H953 H 0.02994 0.24597 0.71336 0.0
H954 H 0.94103 0.23712 0.7691 0.0
H955 H 0.93011 0.21916 0.6918 0.0
C956 C 1.00012 0.25926 0.88371 0.0
C957 C 0.01589 0.27517 0.87412 0.0
C958 C 0.98864 0.2492 0.84243 0.0
C959 C 0.99296 0.25495 0.79128 0.0
C960 C 1.00669 0.27157 0.78241 0.0
C961 C 0.01801 0.28155 0.82333 0.0
C962 C 1.00201 0.22987 0.66555 0.0
C963 C 0.97382 0.22231 0.6581 0.0
C964 C 1.00805 0.24017 0.70916 0.0
C965 C 0.98617 0.24312 0.74677 0.0
C966 C 0.95824 0.23508 0.74056 0.0
C967 C 0.95203 0.22485 0.69634 0.0
H968 H 0.19427 0.03164 0.9033 0.0
H969 H 0.27016 0.06677 0.90986 0.0
H970 H 0.21135 0.01635 0.98103 0.0
H971 H 0.28601 0.05267 0.98936 0.0
H972 H 0.32915 0.00978 0.08558 0.0
H973 H 0.30875 0.0271 0.01572 0.0
H974 H 0.22014 0.01533 0.06967 0.0
H975 H 0.2409 0.99647 0.13759 0.0
C976 C 0.21428 0.03633 0.922 0.0
C977 C 0.23106 0.05027 0.90016 0.0
C978 C 0.22401 0.02766 0.96691 0.0
C979 C 0.25041 0.03302 0.99161 0.0
C980 C 0.26616 0.04766 0.9709 0.0
C981 C 0.2569 0.05594 0.92541 0.0
C982 C 0.30527 0.0107 0.08248 0.0
C983 C 0.28675 1.00138 0.11689 0.0
C984 C 0.29345 0.021 0.04264 0.0
C985 C 0.26261 0.02276 0.0365 0.0
C986 C 0.24398 0.01409 0.07237 0.0
C987 C 0.2559 1.00347 0.11197 0.0
H988 H 0.84097 0.97212 0.92202 0.0
H989 H 0.74729 0.96228 0.90264 0.0
H990 H 0.83089 0.98735 1.00381 0.0
H991 H 0.73733 0.97744 0.98401 0.0
H992 H 0.72879 0.99457 0.14939 0.0
H993 H 0.74492 0.97523 0.07864 0.0
H994 H 0.80618 0.01616 0.02844 0.0
H995 H 0.79039 0.03539 0.09969 0.0
C996 C 0.81828 0.97305 0.93537 0.0
C997 C 0.79491 0.96611 0.90554 0.0
C998 C 0.81252 0.98183 0.98213 0.0
C999 C 0.78332 0.98362 1.00039 0.0
C1000 C 0.76011 0.97612 0.97138 0.0
C1001 C 0.76582 0.96753 0.92448 0.0
C1002 C 0.74625 0.99925 0.12408 0.0
C1003 C 0.75824 0.01655 0.13002 0.0
C1004 C 0.75526 0.98825 0.08322 0.0
C1005 C 0.77662 0.99423 0.04764 0.0
C1006 C 0.7898 0.01111 0.05531 0.0
C1007 C 0.78062 0.02218 0.09591 0.0
H1008 H 0.49065 0.29654 0.62308 0.0
H1009 H 0.58223 0.29066 0.66834 0.0
H1010 H 0.47524 0.27985 0.69892 0.0
H1011 H 0.56675 0.27341 0.74386 0.0
H1012 H 0.5245 0.2546 0.89744 0.0
H1013 H 0.54072 0.27421 0.82704 0.0
H1014 H 0.47708 0.24913 0.72559 0.0
H1015 H 0.46017 0.23027 0.79578 0.0
C1016 C 0.50755 0.29169 0.64922 0.0
C1017 C 0.53772 0.29476 0.63917 0.0
C1018 C 0.49869 0.28201 0.69266 0.0
C1019 C 0.51976 0.27502 0.72716 0.0
C1020 C 0.54992 0.27865 0.71822 0.0
C1021 C 0.55881 0.28844 0.67472 0.0
C1022 C 0.51388 0.2534 0.86016 0.0
C1023 C 0.49117 0.24075 0.85227 0.0
C1024 C 0.52334 0.26452 0.81971 0.0
C1025 C 0.51014 0.26331 0.77065 0.0
C1026 C 0.48748 0.25065 0.76298 0.0
C1027 C 0.47808 0.2396 0.80317 0.0
H1028 H 0.49036 0.75428 0.9058 0.0
H1029 H 0.55318 0.78044 0.80506 0.0
H1030 H 0.47519 0.73467 0.83434 0.0
H1031 H 0.53769 0.76136 0.73416 0.0
H1032 H 0.5275 0.71307 0.63257 0.0
H1033 H 0.54155 0.72969 0.70952 0.0
H1034 H 0.44928 0.73686 0.74851 0.0
H1035 H 0.43507 0.71995 0.67148 0.0
C1036 C 0.50086 0.75585 0.8685 0.0
C1037 C 0.52276 0.76901 0.86097 0.0
C1038 C 0.49207 0.74473 0.82759 0.0
C1039 C 0.50534 0.74642 0.77869 0.0
C1040 C 0.52728 0.75954 0.77146 0.0
C1041 C 0.53588 0.77066 0.812 0.0
C1042 C 0.51014 0.71808 0.6576 0.0
C1043 C 0.48014 0.71535 0.6455 0.0
C1044 C 0.51822 0.72766 0.70167 0.0
C1045 C 0.49652 0.73476 0.73479 0.0
C1046 C 0.4665 0.73147 0.72386 0.0
C1047 C 0.45839 0.72188 0.67958 0.0
H1048 H 0.74361 0.50905 0.15541 0.0
H1049 H 0.80504 0.48172 0.05453 0.0
H1050 H 0.72925 0.52879 0.08391 0.0
H1051 H 0.79023 0.50087 0.98356 0.0
H1052 H 0.78076 0.54794 0.87855 0.0
H1053 H 0.79494 0.53187 0.95632 0.0
H1054 H 0.70287 0.52709 0.99967 0.0
H1055 H 0.68861 0.54356 0.92214 0.0
C1056 C 0.75399 0.50725 0.11809 0.0
C1057 C 0.77521 0.49369 0.11052 0.0
C1058 C 0.74565 0.51846 0.07712 0.0
C1059 C 0.75869 0.51644 0.02809 0.0
C1060 C 0.78003 0.50297 0.02092 0.0
C1061 C 0.78821 0.49179 0.06152 0.0
C1062 C 0.7635 0.5436 0.90477 0.0
C1063 C 0.73352 0.54684 0.89371 0.0
C1064 C 0.77164 0.53432 0.94931 0.0
C1065 C 0.75 0.52799 0.98387 0.0
C1066 C 0.72007 0.53186 0.97395 0.0
C1067 C 0.7119 0.54119 0.92931 0.0
H1068 H 0.21499 0.53479 0.05177 0.0
H1069 H 0.27514 0.50772 0.15525 0.0
H1070 H 0.23141 0.51585 0.98132 0.0
H1071 H 0.29101 0.48813 0.0843 0.0
H1072 H 0.3334 0.47232 0.92446 0.0
H1073 H 0.31846 0.48925 1.00102 0.0
H1074 H 0.22688 0.48484 0.95458 0.0
H1075 H 0.24171 0.46839 0.87788 0.0
C1076 C 0.23192 0.52486 0.05947 0.0
C1077 C 0.24397 0.52292 0.10916 0.0
C1078 C 0.24103 0.51379 0.01912 0.0
C1079 C 0.26235 0.50036 0.02721 0.0
C1080 C 0.27462 0.49841 0.07678 0.0
C1081 C 0.26539 0.50953 0.11746 0.0
C1082 C 0.31007 0.47489 0.93076 0.0
C1083 C 0.2888 0.46923 0.89455 0.0
C1084 C 0.3015 0.48449 0.97482 0.0
C1085 C 0.27151 0.48862 0.98354 0.0
C1086 C 0.25022 0.48224 0.94846 0.0
C1087 C 0.25875 0.47271 0.90455 0.0
H1088 H 0.52791 0.72166 0.33338 0.0
H1089 H 0.4681 0.76336 0.38385 0.0
H1090 H 0.54478 0.74092 0.26275 0.0
H1091 H 0.4852 0.78262 0.31387 0.0
H1092 H 0.58459 0.78724 0.16702 0.0
H1093 H 0.57175 0.7702 0.24453 0.0
H1094 H 0.47911 0.78118 0.21802 0.0
H1095 H 0.49177 0.79805 0.14072 0.0
C1096 C 0.5186 0.73499 0.32967 0.0
C1097 C 0.49667 0.74098 0.36416 0.0
C1098 C 0.52841 0.74606 0.28952 0.0
C1099 C 0.51622 0.76325 0.2827 0.0
C1100 C 0.49483 0.76939 0.31793 0.0
C1101 C 0.48525 0.75841 0.3583 0.0
C1102 C 0.56151 0.78611 0.1779 0.0
C1103 C 0.53919 0.79391 0.14745 0.0
C1104 C 0.55417 0.77629 0.22215 0.0
C1105 C 0.52443 0.77433 0.23728 0.0
C1106 C 0.50224 0.78258 0.20764 0.0
C1107 C 0.50952 0.79218 0.16315 0.0
H1108 H 0.56148 0.27971 0.29871 0.0
H1109 H 0.49999 0.25278 0.40024 0.0
H1110 H 0.54557 0.2609 0.22757 0.0
H1111 H 0.4846 0.23333 0.32871 0.0
H1112 H 0.4415 0.21885 0.16973 0.0
H1113 H 0.4574 0.23521 0.24649 0.0
H1114 H 0.54852 0.23038 0.1974 0.0
H1115 H 0.53265 0.21446 0.12025 0.0
C1116 C 0.54447 0.26976 0.30586 0.0
C1117 C 0.53173 0.26792 0.35509 0.0
C1118 C 0.53563 0.25877 0.26511 0.0
C1119 C 0.51388 0.24553 0.27236 0.0
C1120 C 0.50127 0.2435 0.32173 0.0
C1121 C 0.51023 0.25453 0.36278 0.0
C1122 C 0.46494 0.22121 0.1754 0.0
C1123 C 0.48576 0.21553 0.13841 0.0
C1124 C 0.47407 0.23048 0.21966 0.0
C1125 C 0.50422 0.23426 0.22793 0.0
C1126 C 0.52507 0.22801 0.19179 0.0
C1127 C 0.51596 0.21879 0.14759 0.0
H1128 H 0.73599 0.98035 0.60126 0.0
H1129 H 0.79809 0.02109 0.64959 0.0
H1130 H 0.71963 0.99956 0.53071 0.0
H1131 H 0.7813 0.04051 0.5795 0.0
H1132 H 0.7773 0.05354 0.40356 0.0
H1133 H 0.78797 0.03878 0.48517 0.0
H1134 H 0.69479 0.02777 0.50606 0.0
H1135 H 0.68405 0.04246 0.42398 0.0
C1136 C 0.74573 0.99357 0.59735 0.0
C1137 C 0.76847 0.99916 0.63074 0.0
C1138 C 0.73622 1.00463 0.55715 0.0
C1139 C 0.74935 0.02151 0.54921 0.0
C1140 C 0.77101 0.02749 0.58425 0.0
C1141 C 0.78039 0.01645 0.62473 0.0
C1142 C 0.75901 0.04812 0.42569 0.0
C1143 C 0.72985 0.04902 0.4069 0.0
C1144 C 0.76512 0.03978 0.47276 0.0
C1145 C 0.74223 0.03207 0.50211 0.0
C1146 C 0.71294 0.03344 0.4841 0.0
C1147 C 0.70679 0.0419 0.43713 0.0
H1148 H 0.21208 0.02216 0.56363 0.0
H1149 H 0.29474 0.02494 0.6467 0.0
H1150 H 0.23635 1.0052 0.49463 0.0
H1151 H 0.31926 0.00821 0.577 0.0
H1152 H 0.35111 1.00452 0.40209 0.0
H1153 H 0.32864 0.01712 0.47983 0.0
H1154 H 0.26422 0.97433 0.48093 0.0
H1155 H 0.28713 0.96143 0.4034 0.0
C1156 C 0.23543 0.01904 0.56713 0.0
C1157 C 0.25164 0.02492 0.6102 0.0
C1158 C 0.24924 0.00924 0.52792 0.0
C1159 C 0.27965 1.00541 0.53056 0.0
C1160 C 0.29579 0.01103 0.57406 0.0
C1161 C 0.28181 0.02053 0.61387 0.0
C1162 C 0.33233 0.99769 0.4192 0.0
C1163 C 0.32078 0.98204 0.39661 0.0
C1164 C 0.31962 1.00484 0.46386 0.0
C1165 C 0.29473 0.99669 0.48631 0.0
C1166 C 0.28339 0.98087 0.46424 0.0
C1167 C 0.29653 0.97348 0.42009 0.0
H1168 H 0.34743 0.26727 0.99397 0.0
H1169 H 0.31866 0.21344 0.95881 0.0
H1170 H 0.29727 0.27828 0.98045 0.0
H1171 H 0.26831 0.22445 0.94451 0.0
H1172 H 0.18627 0.24742 0.03728 0.0
H1173 H 0.23413 0.23509 0.01246 0.0
H1174 H 0.25308 0.2832 0.92557 0.0
H1175 H 0.20491 0.29559 0.95119 0.0
C1176 C 0.33046 0.25788 0.98202 0.0
C1177 C 0.33677 0.23946 0.97859 0.0
C1178 C 0.30177 0.2642 0.97374 0.0
C1179 C 0.27871 0.25219 0.96211 0.0
C1180 C 0.28558 0.23398 0.95408 0.0
C1181 C 0.31442 0.22769 0.96199 0.0
C1182 C 0.20045 0.25517 1.012 0.0
C1183 C 0.19216 0.27249 0.99666 0.0
C1184 C 0.22773 0.24805 0.99727 0.0
C1185 C 0.24748 0.2582 0.96718 0.0
C1186 C 0.23837 0.27511 0.94901 0.0
C1187 C 0.2108 0.28217 0.96338 0.0
H1188 H 0.81469 0.71805 1.00827 0.0
H1189 H 0.84702 0.76979 0.96048 0.0
H1190 H 0.76397 0.7283 0.99806 0.0
H1191 H 0.79628 0.77996 0.94612 0.0
H1192 H 0.70465 0.79959 0.99947 0.0
H1193 H 0.75566 0.78949 0.99045 0.0
H1194 H 0.72418 0.73641 0.94992 0.0
H1195 H 0.67333 0.74651 0.96345 0.0
C1196 C 0.81078 0.7315 0.99405 0.0
C1197 C 0.83458 0.74319 0.98544 0.0
C1198 C 0.78165 0.73743 0.98776 0.0
C1199 C 0.77561 0.7551 0.97139 0.0
C1200 C 0.79976 0.76645 0.9601 0.0
C1201 C 0.82888 0.76063 0.96782 0.0
C1202 C 0.70886 0.78588 0.98766 0.0
C1203 C 0.68534 0.77376 0.98228 0.0
C1204 C 0.73813 0.78002 0.98224 0.0
C1205 C 0.74445 0.76196 0.97009 0.0
C1206 C 0.72049 0.75023 0.96096 0.0
C1207 C 0.69131 0.75601 0.96792 0.0
H1208 H 0.0955 0.49937 0.19975 0.0
H1209 H 0.05953 0.55028 0.24646 0.0
H1210 H 0.04564 0.48802 0.18331 0.0
H1211 H 1.00952 0.53884 0.23469 0.0
H1212 H 0.92002 0.51739 0.20695 0.0
H1213 H 0.96954 0.52917 0.18987 0.0
H1214 H 1.0066 0.47728 0.22861 0.0
H1215 H 0.95685 0.46552 0.24104 0.0
C1216 C 0.0767 0.50815 0.20582 0.0
C1217 C 0.08108 0.52565 0.22405 0.0
C1218 C 0.04807 0.50163 0.19722 0.0
C1219 C 0.02309 0.51229 0.20855 0.0
C1220 C 0.02784 0.53018 0.22457 0.0
C1221 C 0.05653 0.53682 0.23161 0.0
C1222 C 0.93892 0.50851 0.21014 0.0
C1223 C 0.93488 0.49061 0.22502 0.0
C1224 C 0.96737 0.51525 0.20114 0.0
C1225 C 0.99255 0.50438 0.20873 0.0
C1226 C 0.9881 0.48615 0.22139 0.0
C1227 C 0.95956 0.47932 0.22881 0.0
H1228 H 0.3464 0.7643 0.46827 0.0
H1229 H 0.3118 0.71063 0.4819 0.0
H1230 H 0.29633 0.7759 0.45572 0.0
H1231 H 0.26133 0.7222 0.46997 0.0
H1232 H 0.19026 0.75918 0.55862 0.0
H1233 H 0.23442 0.74196 0.53595 0.0
H1234 H 0.24808 0.776 0.40329 0.0
H1235 H 0.20324 0.79305 0.42605 0.0
C1236 C 0.32803 0.75496 0.46697 0.0
C1237 C 0.33279 0.73664 0.47631 0.0
C1238 C 0.29941 0.76155 0.4595 0.0
C1239 C 0.2749 0.74996 0.46214 0.0
C1240 C 0.27985 0.73142 0.46785 0.0
C1241 C 0.30864 0.72479 0.47439 0.0
C1242 C 0.20225 0.76255 0.52373 0.0
C1243 C 0.19362 0.77738 0.49408 0.0
C1244 C 0.22738 0.75267 0.51053 0.0
C1245 C 0.24475 0.75766 0.46789 0.0
C1246 C 0.23507 0.77187 0.43635 0.0
C1247 C 0.20947 0.78155 0.44911 0.0
H1248 H 0.81976 0.21839 0.44968 0.0
H1249 H 0.84244 0.2711 0.50579 0.0
H1250 H 0.77018 0.22913 0.42739 0.0
H1251 H 0.79294 0.28169 0.48592 0.0
H1252 H 0.70288 0.29955 0.44974 0.0
H1253 H 0.75309 0.28916 0.43048 0.0
H1254 H 0.72898 0.23583 0.48084 0.0
H1255 H 0.67889 0.24607 0.4976 0.0
C1256 C 0.81441 0.23238 0.45598 0.0
C1257 C 0.83478 0.24384 0.48033 0.0
C1258 C 0.78589 0.23852 0.44378 0.0
C1259 C 0.77722 0.25622 0.45573 0.0
C1260 C 0.79862 0.26802 0.47581 0.0
C1261 C 0.82701 0.26191 0.48781 0.0
C1262 C 0.70813 0.2855 0.45499 0.0
C1263 C 0.68711 0.27369 0.47613 0.0
C1264 C 0.73699 0.27955 0.44449 0.0
C1265 C 0.74539 0.2617 0.45494 0.0
C1266 C 0.72352 0.24963 0.47195 0.0
C1267 C 0.69479 0.25555 0.48227 0.0
H1268 H 0.0988 0.99834 0.70497 0.0
H1269 H 0.06199 0.04862 0.75593 0.0
H1270 H 0.04906 0.98651 0.69077 0.0
H1271 H 0.0122 0.03669 0.74537 0.0
H1272 H 0.92329 0.0152 0.71235 0.0
H1273 H 0.97291 0.02711 0.69708 0.0
H1274 H 1.00996 0.97539 0.7372 0.0
H1275 H 0.96006 0.96348 0.7484 0.0
C1276 C 0.0799 1.00686 0.71284 0.0
C1277 C 0.08409 0.02434 0.73159 0.0
C1278 C 0.05134 1.00006 0.70522 0.0
C1279 C 0.02624 0.01045 0.71753 0.0
C1280 C 0.03069 0.02826 0.73447 0.0
C1281 C 0.05927 0.03516 0.74085 0.0
C1282 C 0.9422 1.00636 0.71618 0.0
C1283 C 0.93811 0.98847 0.73121 0.0
C1284 C 0.97068 0.01319 0.70826 0.0
C1285 C 0.99583 1.00241 0.71689 0.0
C1286 C 0.99141 0.98416 0.72941 0.0
C1287 C 0.96282 0.97725 0.73597 0.0
H1288 H 0.45022 0.47012 0.69937 0.0
H1289 H 0.42683 0.52215 0.75999 0.0
H1290 H 0.5002 0.48099 0.68103 0.0
H1291 H 0.47682 0.5328 0.74412 0.0
H1292 H 0.5675 0.55094 0.7082 0.0
H1293 H 0.51706 0.54087 0.68964 0.0
H1294 H 0.54091 0.48711 0.73627 0.0
H1295 H 0.59125 0.49704 0.75241 0.0
C1296 C 0.45553 0.48398 0.70772 0.0
C1297 C 0.43472 0.49518 0.73203 0.0
C1298 C 0.48429 0.49018 0.69776 0.0
C1299 C 0.49284 0.5077 0.71193 0.0
C1300 C 0.4712 0.51927 0.73238 0.0
C1301 C 0.44254 0.5131 0.74214 0.0
C1302 C 0.56213 0.53688 0.71294 0.0
C1303 C 0.58322 0.52484 0.73264 0.0
C1304 C 0.53313 0.53112 0.70283 0.0
C1305 C 0.52465 0.5132 0.71216 0.0
C1306 C 0.54647 0.50096 0.72821 0.0
C1307 C 0.57534 0.5067 0.73819 0.0
H1308 H 0.44255 0.00878 0.29621 0.0
H1309 H 0.45784 0.96733 0.18354 0.0
H1310 H 0.48923 0.02314 0.27257 0.0
H1311 H 0.50518 0.98152 0.15987 0.0
H1312 H 0.60141 0.99381 0.23223 0.0
H1313 H 0.55091 0.98319 0.21787 0.0
H1314 H 0.52097 0.03797 0.20351 0.0
H1315 H 0.57174 0.04855 0.21772 0.0
C1316 C 0.45563 1.00312 0.26517 0.0
C1317 C 0.44687 0.98704 0.24162 0.0
C1318 C 0.48225 0.01134 0.25141 0.0
C1319 C 0.50091 1.00342 0.21445 0.0
C1320 C 0.4912 0.98789 0.1885 0.0
C1321 C 0.46417 0.97984 0.20171 0.0
C1322 C 0.58413 1.00352 0.22451 0.0
C1323 C 0.59033 0.02196 0.22657 0.0
C1324 C 0.55528 0.99746 0.21589 0.0
C1325 C 0.53196 0.00976 0.20988 0.0
C1326 C 0.53853 0.02821 0.20819 0.0
C1327 C 0.56754 0.03426 0.21605 0.0
loop_
_geom_bond_atom_site_label_1
_geom_bond_atom_site_label_2
_geom_bond_distance
_geom_bond_site_symmetry_2
_ccdc_geom_bond_type
Co0 N4 2.148 . S
Co0 N10 2.128 . S
Co0 N20 2.194 1_554 S
Co0 O25 2.351 1_554 S
Co0 O26 2.155 . S
Co0 O27 2.096 . S
C1 N4 1.301 1_556 S
C1 N5 1.328 . S
C1 H6 0.930 . S
C2 C3 1.333 . S
C2 N4 1.317 . S
C2 H7 0.930 . S
C3 C2 1.333 . S
C3 N5 1.350 1_554 S
C3 H29 0.931 . S
N4 Co0 2.148 . S
N4 C1 1.301 1_554 S
N4 C2 1.317 . S
N5 C1 1.328 . S
N5 C3 1.350 1_556 S
H6 C1 0.930 . S
H7 C2 0.930 . S
C8 O9 1.224 . S
C8 O27 1.247 . S
O9 C8 1.224 . S
N10 Co0 2.128 . S
N10 C11 1.355 1_554 S
N10 C13 1.311 . S
C11 N10 1.355 1_556 S
C11 C12 1.383 . S
C11 H23 0.929 . S
C12 C11 1.383 . S
C12 N14 1.373 1_456 S
C12 H30 0.916 1_455 S
C13 N10 1.311 . S
C13 N14 1.347 1_455 S
C13 H24 0.929 . S
N14 C12 1.373 1_654 S
N14 C13 1.347 1_655 S
C15 C18 1.365 . S
C15 N20 1.328 . S
C15 H21 0.929 . S
C16 C17 1.362 . S
C16 C19 1.378 . S
C16 H31 0.929 . S
C17 C16 1.362 . S
C17 C18 1.366 . S
C18 C15 1.365 . S
C18 C17 1.366 . S
C18 H32 0.930 . S
C19 C16 1.378 . S
C19 N20 1.315 . S
C19 H22 0.930 . S
N20 Co0 2.194 1_556 S
N20 C15 1.328 . S
N20 C19 1.315 . S
H21 C15 0.929 . S
H22 C19 0.930 . S
H23 C11 0.929 . S
H24 C13 0.929 . S
O25 Co0 2.351 1_556 S
O25 C28 1.244 . S
O26 Co0 2.155 . S
O26 C28 1.240 1_554 S
O27 Co0 2.096 . S
O27 C8 1.247 . S
C28 O25 1.244 . S
C28 O26 1.240 1_556 S
H29 C3 0.931 . S
H30 C12 0.916 1_655 S
H31 C16 0.929 . S
H32 C18 0.930 . S
Co33 N37 2.148 . S
Co33 N43 2.128 . S
Co33 N53 2.194 1_554 S
Co33 O58 2.351 1_554 S
Co33 O59 2.155 . S
Co33 O60 2.096 . S
C34 N37 1.301 1_556 S
C34 N38 1.328 . S
C34 H39 0.930 . S
C35 C36 1.333 . S
C35 N37 1.317 . S
C35 H40 0.930 . S
C36 C35 1.333 . S
C36 N38 1.350 1_554 S
C36 H62 0.931 . S
N37 Co33 2.148 . S
N37 C34 1.301 1_554 S
N37 C35 1.317 . S
N38 C34 1.328 . S
N38 C36 1.350 1_556 S
H39 C34 0.930 . S
H40 C35 0.930 . S
C41 O42 1.224 . S
C41 O60 1.247 . S
O42 C41 1.224 . S
N43 Co33 2.128 . S
N43 C44 1.355 1_554 S
N43 C46 1.311 . S
C44 N43 1.355 1_556 S
C44 C45 1.383 . S
C44 H56 0.929 . S
C45 C44 1.383 . S
C45 N47 1.373 1_656 S
C45 H63 0.916 1_655 S
C46 N43 1.311 . S
C46 N47 1.347 1_655 S
C46 H57 0.929 . S
N47 C45 1.373 1_454 S
N47 C46 1.347 1_455 S
C48 C51 1.365 . S
C48 N53 1.328 . S
C48 H54 0.929 . S
C49 C50 1.362 . S
C49 C52 1.378 . S
C49 H64 0.929 . S
C50 C49 1.362 . S
C50 C51 1.366 . S
C51 C48 1.365 . S
C51 C50 1.366 . S
C51 H65 0.930 . S
C52 C49 1.378 . S
C52 N53 1.315 . S
C52 H55 0.930 . S
N53 Co33 2.194 1_556 S
N53 C48 1.328 . S
N53 C52 1.315 . S
H54 C48 0.929 . S
H55 C52 0.930 . S
H56 C44 0.929 . S
H57 C46 0.929 . S
O58 Co33 2.351 1_556 S
O58 C61 1.244 . S
O59 Co33 2.155 . S
O59 C61 1.240 1_554 S
O60 Co33 2.096 . S
O60 C41 1.247 . S
C61 O58 1.244 . S
C61 O59 1.240 1_556 S
H62 C36 0.931 . S
H63 C45 0.916 1_455 S
H64 C49 0.929 . S
H65 C51 0.930 . S
Co66 N70 2.148 . S
Co66 N76 2.128 . S
Co66 N86 2.194 . S
Co66 O91 2.351 . S
Co66 O92 2.155 . S
Co66 O93 2.096 . S
C67 N70 1.301 . S
C67 N71 1.328 . S
C67 H72 0.930 . S
C68 C69 1.333 . S
C68 N70 1.317 . S
C68 H73 0.930 . S
C69 C68 1.333 . S
C69 N71 1.350 . S
C69 H95 0.931 . S
N70 Co66 2.148 . S
N70 C67 1.301 . S
N70 C68 1.317 . S
N71 C67 1.328 . S
N71 C69 1.350 . S
H72 C67 0.930 . S
H73 C68 0.930 . S
C74 O75 1.224 . S
C74 O93 1.247 . S
O75 C74 1.224 . S
N76 Co66 2.128 . S
N76 C77 1.355 . S
N76 C79 1.311 . S
C77 N76 1.355 . S
C77 C78 1.363 . S
C77 H89 0.929 . S
C78 C77 1.363 . S
C78 N80 1.375 . S
C78 H96 0.931 . S
C79 N76 1.311 . S
C79 N80 1.347 . S
C79 H90 0.929 . S
N80 C78 1.375 . S
N80 C79 1.347 . S
C81 C84 1.365 . S
C81 N86 1.328 . S
C81 H87 0.929 . S
C82 C83 1.362 . S
C82 C85 1.378 . S
C82 H97 0.929 . S
C83 C82 1.362 . S
C83 C84 1.366 . S
C84 C81 1.365 . S
C84 C83 1.366 . S
C84 H98 0.930 . S
C85 C82 1.378 . S
C85 N86 1.315 . S
C85 H88 0.930 . S
N86 Co66 2.194 . S
N86 C81 1.328 . S
N86 C85 1.315 . S
H87 C81 0.929 . S
H88 C85 0.930 . S
H89 C77 0.929 . S
H90 C79 0.929 . S
O91 Co66 2.351 . S
O91 C94 1.244 . S
O92 Co66 2.155 . S
O92 C94 1.240 . S
O93 Co66 2.096 . S
O93 C74 1.247 . S
C94 O91 1.244 . S
C94 O92 1.240 . S
H95 C69 0.931 . S
H96 C78 0.931 . S
H97 C82 0.929 . S
H98 C84 0.930 . S
Co99 N103 2.148 . S
Co99 N109 2.128 . S
Co99 N119 2.194 . S
Co99 O124 2.351 . S
Co99 O125 2.155 . S
Co99 O126 2.096 . S
C100 N103 1.301 . S
C100 N104 1.328 . S
C100 H105 0.930 . S
C101 C102 1.333 . S
C101 N103 1.317 . S
C101 H106 0.930 . S
C102 C101 1.333 . S
C102 N104 1.350 . S
C102 H128 0.931 . S
N103 Co99 2.148 . S
N103 C100 1.301 . S
N103 C101 1.317 . S
N104 C100 1.328 . S
N104 C102 1.350 . S
H105 C100 0.930 . S
H106 C101 0.930 . S
C107 O108 1.224 . S
C107 O126 1.247 . S
O108 C107 1.224 . S
N109 Co99 2.128 . S
N109 C110 1.355 . S
N109 C112 1.311 . S
C110 N109 1.355 . S
C110 C111 1.363 . S
C110 H122 0.929 . S
C111 C110 1.363 . S
C111 N113 1.375 . S
C111 H129 0.931 . S
C112 N109 1.311 . S
C112 N113 1.347 . S
C112 H123 0.929 . S
N113 C111 1.375 . S
N113 C112 1.347 . S
C114 C117 1.365 . S
C114 N119 1.328 . S
C114 H120 0.929 . S
C115 C116 1.362 . S
C115 C118 1.378 . S
C115 H130 0.929 . S
C116 C115 1.362 . S
C116 C117 1.366 . S
C117 C114 1.365 . S
C117 C116 1.366 . S
C117 H131 0.930 . S
C118 C115 1.378 . S
C118 N119 1.315 . S
C118 H121 0.930 . S
N119 Co99 2.194 . S
N119 C114 1.328 . S
N119 C118 1.315 . S
H120 C114 0.929 . S
H121 C118 0.930 . S
H122 C110 0.929 . S
H123 C112 0.929 . S
O124 Co99 2.351 . S
O124 C127 1.244 . S
O125 Co99 2.155 . S
O125 C127 1.240 . S
O126 Co99 2.096 . S
O126 C107 1.247 . S
C127 O124 1.244 . S
C127 O125 1.240 . S
H128 C102 0.931 . S
H129 C111 0.931 . S
H130 C115 0.929 . S
H131 C117 0.930 . S
Co132 N136 2.148 . S
Co132 N142 2.128 . S
Co132 N152 2.194 . S
Co132 O157 2.351 . S
Co132 O158 2.155 . S
Co132 O159 2.096 . S
C133 N136 1.301 . S
C133 N137 1.328 . S
C133 H138 0.930 . S
C134 C135 1.333 . S
C134 N136 1.317 . S
C134 H139 0.930 . S
C135 C134 1.333 . S
C135 N137 1.350 . S
C135 H161 0.931 . S
N136 Co132 2.148 . S
N136 C133 1.301 . S
N136 C134 1.317 . S
N137 C133 1.328 . S
N137 C135 1.350 . S
H138 C133 0.930 . S
H139 C134 0.930 . S
C140 O141 1.224 . S
C140 O159 1.247 . S
O141 C140 1.224 . S
N142 Co132 2.128 . S
N142 C143 1.355 . S
N142 C145 1.311 . S
C143 N142 1.355 . S
C143 C144 1.383 . S
C143 H155 0.929 . S
C144 C143 1.383 . S
C144 N146 1.373 1_455 S
C144 H162 0.916 1_455 S
C145 N142 1.311 . S
C145 N146 1.347 1_455 S
C145 H156 0.929 . S
N146 C144 1.373 1_655 S
N146 C145 1.347 1_655 S
C147 C150 1.365 . S
C147 N152 1.328 . S
C147 H153 0.929 . S
C148 C149 1.362 . S
C148 C151 1.378 . S
C148 H163 0.929 . S
C149 C148 1.362 . S
C149 C150 1.366 . S
C150 C147 1.365 . S
C150 C149 1.366 . S
C150 H164 0.930 . S
C151 C148 1.378 . S
C151 N152 1.315 . S
C151 H154 0.930 . S
N152 Co132 2.194 . S
N152 C147 1.328 . S
N152 C151 1.315 . S
H153 C147 0.929 . S
H154 C151 0.930 . S
H155 C143 0.929 . S
H156 C145 0.929 . S
O157 Co132 2.351 . S
O157 C160 1.244 . S
O158 Co132 2.155 . S
O158 C160 1.240 . S
O159 Co132 2.096 . S
O159 C140 1.247 . S
C160 O157 1.244 . S
C160 O158 1.240 . S
H161 C135 0.931 . S
H162 C144 0.916 1_655 S
H163 C148 0.929 . S
H164 C150 0.930 . S
Co165 N169 2.148 . S
Co165 N175 2.128 . S
Co165 N185 2.194 . S
Co165 O190 2.351 . S
Co165 O191 2.155 . S
Co165 O192 2.096 . S
C166 N169 1.301 . S
C166 N170 1.328 . S
C166 H171 0.930 . S
C167 C168 1.333 . S
C167 N169 1.317 . S
C167 H172 0.930 . S
C168 C167 1.333 . S
C168 N170 1.350 . S
C168 H194 0.931 . S
N169 Co165 2.148 . S
N169 C166 1.301 . S
N169 C167 1.317 . S
N170 C166 1.328 . S
N170 C168 1.350 . S
H171 C166 0.930 . S
H172 C167 0.930 . S
C173 O174 1.224 . S
C173 O192 1.247 . S
O174 C173 1.224 . S
N175 Co165 2.128 . S
N175 C176 1.355 . S
N175 C178 1.311 . S
C176 N175 1.355 . S
C176 C177 1.383 . S
C176 H188 0.929 . S
C177 C176 1.383 . S
C177 N179 1.373 1_655 S
C177 H195 0.916 1_655 S
C178 N175 1.311 . S
C178 N179 1.347 1_655 S
C178 H189 0.929 . S
N179 C177 1.373 1_455 S
N179 C178 1.347 1_455 S
C180 C183 1.365 . S
C180 N185 1.328 . S
C180 H186 0.929 . S
C181 C182 1.362 . S
C181 C184 1.378 . S
C181 H196 0.929 . S
C182 C181 1.362 . S
C182 C183 1.366 . S
C183 C180 1.365 . S
C183 C182 1.366 . S
C183 H197 0.930 . S
C184 C181 1.378 . S
C184 N185 1.315 . S
C184 H187 0.930 . S
N185 Co165 2.194 . S
N185 C180 1.328 . S
N185 C184 1.315 . S
H186 C180 0.929 . S
H187 C184 0.930 . S
H188 C176 0.929 . S
H189 C178 0.929 . S
O190 Co165 2.351 . S
O190 C193 1.244 . S
O191 Co165 2.155 . S
O191 C193 1.240 . S
O192 Co165 2.096 . S
O192 C173 1.247 . S
C193 O190 1.244 . S
C193 O191 1.240 . S
H194 C168 0.931 . S
H195 C177 0.916 1_455 S
H196 C181 0.929 . S
H197 C183 0.930 . S
Co198 N202 2.148 . S
Co198 N208 2.128 . S
Co198 N218 2.194 . S
Co198 O223 2.351 . S
Co198 O224 2.155 . S
Co198 O225 2.096 . S
C199 N202 1.301 . S
C199 N203 1.328 . S
C199 H204 0.930 . S
C200 C201 1.333 . S
C200 N202 1.317 . S
C200 H205 0.930 . S
C201 C200 1.333 . S
C201 N203 1.350 . S
C201 H227 0.931 . S
N202 Co198 2.148 . S
N202 C199 1.301 . S
N202 C200 1.317 . S
N203 C199 1.328 . S
N203 C201 1.350 . S
H204 C199 0.930 . S
H205 C200 0.930 . S
C206 O207 1.224 . S
C206 O225 1.247 . S
O207 C206 1.224 . S
N208 Co198 2.128 . S
N208 C209 1.355 . S
N208 C211 1.311 . S
C209 N208 1.355 . S
C209 C210 1.363 . S
C209 H221 0.929 . S
C210 C209 1.363 . S
C210 N212 1.375 . S
C210 H228 0.931 . S
C211 N208 1.311 . S
C211 N212 1.347 . S
C211 H222 0.929 . S
N212 C210 1.375 . S
N212 C211 1.347 . S
C213 C216 1.365 . S
C213 N218 1.328 . S
C213 H219 0.929 . S
C214 C215 1.362 . S
C214 C217 1.378 . S
C214 H229 0.929 . S
C215 C214 1.362 . S
C215 C216 1.366 . S
C216 C213 1.365 . S
C216 C215 1.366 . S
C216 H230 0.930 . S
C217 C214 1.378 . S
C217 N218 1.315 . S
C217 H220 0.930 . S
N218 Co198 2.194 . S
N218 C213 1.328 . S
N218 C217 1.315 . S
H219 C213 0.929 . S
H220 C217 0.930 . S
H221 C209 0.929 . S
H222 C211 0.929 . S
O223 Co198 2.351 . S
O223 C226 1.244 . S
O224 Co198 2.155 . S
O224 C226 1.240 . S
O225 Co198 2.096 . S
O225 C206 1.247 . S
C226 O223 1.244 . S
C226 O224 1.240 . S
H227 C201 0.931 . S
H228 C210 0.931 . S
H229 C214 0.929 . S
H230 C216 0.930 . S
Co231 N235 2.148 . S
Co231 N241 2.128 . S
Co231 N251 2.194 . S
Co231 O256 2.351 . S
Co231 O257 2.155 . S
Co231 O258 2.096 . S
C232 N235 1.301 . S
C232 N236 1.328 . S
C232 H237 0.930 . S
C233 C234 1.333 . S
C233 N235 1.317 . S
C233 H238 0.930 . S
C234 C233 1.333 . S
C234 N236 1.350 . S
C234 H260 0.931 . S
N235 Co231 2.148 . S
N235 C232 1.301 . S
N235 C233 1.317 . S
N236 C232 1.328 . S
N236 C234 1.350 . S
H237 C232 0.930 . S
H238 C233 0.930 . S
C239 O240 1.224 . S
C239 O258 1.247 . S
O240 C239 1.224 . S
N241 Co231 2.128 . S
N241 C242 1.355 . S
N241 C244 1.311 . S
C242 N241 1.355 . S
C242 C243 1.363 . S
C242 H254 0.929 . S
C243 C242 1.363 . S
C243 N245 1.375 . S
C243 H261 0.931 . S
C244 N241 1.311 . S
C244 N245 1.347 . S
C244 H255 0.929 . S
N245 C243 1.375 . S
N245 C244 1.347 . S
C246 C249 1.365 . S
C246 N251 1.328 . S
C246 H252 0.929 . S
C247 C248 1.362 . S
C247 C250 1.378 . S
C247 H262 0.929 . S
C248 C247 1.362 . S
C248 C249 1.366 . S
C249 C246 1.365 . S
C249 C248 1.366 . S
C249 H263 0.930 . S
C250 C247 1.378 . S
C250 N251 1.315 . S
C250 H253 0.930 . S
N251 Co231 2.194 . S
N251 C246 1.328 . S
N251 C250 1.315 . S
H252 C246 0.929 . S
H253 C250 0.930 . S
H254 C242 0.929 . S
H255 C244 0.929 . S
O256 Co231 2.351 . S
O256 C259 1.244 . S
O257 Co231 2.155 . S
O257 C259 1.240 . S
O258 Co231 2.096 . S
O258 C239 1.247 . S
C259 O256 1.244 . S
C259 O257 1.240 . S
H260 C234 0.931 . S
H261 C243 0.931 . S
H262 C247 0.929 . S
H263 C249 0.930 . S
Co264 N268 2.148 . S
Co264 N274 2.128 . S
Co264 N284 2.194 . S
Co264 O289 2.351 . S
Co264 O290 2.155 . S
Co264 O291 2.096 . S
C265 N268 1.301 . S
C265 N269 1.328 . S
C265 H270 0.930 . S
C266 C267 1.333 . S
C266 N268 1.317 . S
C266 H271 0.930 . S
C267 C266 1.333 . S
C267 N269 1.350 . S
C267 H293 0.931 . S
N268 Co264 2.148 . S
N268 C265 1.301 . S
N268 C266 1.317 . S
N269 C265 1.328 . S
N269 C267 1.350 . S
H270 C265 0.930 . S
H271 C266 0.930 . S
C272 O273 1.224 . S
C272 O291 1.247 . S
O273 C272 1.224 . S
N274 Co264 2.128 . S
N274 C275 1.355 . S
N274 C277 1.311 . S
C275 N274 1.355 . S
C275 C276 1.363 . S
C275 H287 0.929 . S
C276 C275 1.363 . S
C276 N278 1.375 . S
C276 H294 0.931 . S
C277 N274 1.311 . S
C277 N278 1.347 . S
C277 H288 0.929 . S
N278 C276 1.375 . S
N278 C277 1.347 . S
C279 C282 1.365 . S
C279 N284 1.328 . S
C279 H285 0.929 . S
C280 C281 1.362 . S
C280 C283 1.378 . S
C280 H295 0.929 . S
C281 C280 1.362 . S
C281 C282 1.366 . S
C282 C279 1.365 . S
C282 C281 1.366 . S
C282 H296 0.930 . S
C283 C280 1.378 . S
C283 N284 1.315 . S
C283 H286 0.930 . S
N284 Co264 2.194 . S
N284 C279 1.328 . S
N284 C283 1.315 . S
H285 C279 0.929 . S
H286 C283 0.930 . S
H287 C275 0.929 . S
H288 C277 0.929 . S
O289 Co264 2.351 . S
O289 C292 1.244 . S
O290 Co264 2.155 . S
O290 C292 1.240 . S
O291 Co264 2.096 . S
O291 C272 1.247 . S
C292 O289 1.244 . S
C292 O290 1.240 . S
H293 C267 0.931 . S
H294 C276 0.931 . S
H295 C280 0.929 . S
H296 C282 0.930 . S
Co297 N301 2.148 . S
Co297 N307 2.128 . S
Co297 N317 2.194 . S
Co297 O322 2.351 . S
Co297 O323 2.155 . S
Co297 O324 2.096 . S
C298 N301 1.301 . S
C298 N302 1.328 . S
C298 H303 0.930 . S
C299 C300 1.333 . S
C299 N301 1.317 . S
C299 H304 0.930 . S
C300 C299 1.333 . S
C300 N302 1.350 . S
C300 H326 0.931 . S
N301 Co297 2.148 . S
N301 C298 1.301 . S
N301 C299 1.317 . S
N302 C298 1.328 . S
N302 C300 1.350 . S
H303 C298 0.930 . S
H304 C299 0.930 . S
C305 O306 1.224 . S
C305 O324 1.247 . S
O306 C305 1.224 . S
N307 Co297 2.128 . S
N307 C308 1.355 . S
N307 C310 1.311 . S
C308 N307 1.355 . S
C308 C309 1.363 . S
C308 H320 0.929 . S
C309 C308 1.363 . S
C309 N311 1.375 . S
C309 H327 0.931 . S
C310 N307 1.311 . S
C310 N311 1.347 . S
C310 H321 0.929 . S
N311 C309 1.375 . S
N311 C310 1.347 . S
C312 C315 1.365 . S
C312 N317 1.328 . S
C312 H318 0.929 . S
C313 C314 1.362 . S
C313 C316 1.378 . S
C313 H328 0.929 . S
C314 C313 1.362 . S
C314 C315 1.366 . S
C315 C312 1.365 . S
C315 C314 1.366 . S
C315 H329 0.930 . S
C316 C313 1.378 . S
C316 N317 1.315 . S
C316 H319 0.930 . S
N317 Co297 2.194 . S
N317 C312 1.328 . S
N317 C316 1.315 . S
H318 C312 0.929 . S
H319 C316 0.930 . S
H320 C308 0.929 . S
H321 C310 0.929 . S
O322 Co297 2.351 . S
O322 C325 1.244 . S
O323 Co297 2.155 . S
O323 C325 1.240 . S
O324 Co297 2.096 . S
O324 C305 1.247 . S
C325 O322 1.244 . S
C325 O323 1.240 . S
H326 C300 0.931 . S
H327 C309 0.931 . S
H328 C313 0.929 . S
H329 C315 0.930 . S
Co330 N334 2.148 . S
Co330 N340 2.128 . S
Co330 N350 2.194 . S
Co330 O355 2.351 . S
Co330 O356 2.155 . S
Co330 O357 2.096 . S
C331 N334 1.301 . S
C331 N335 1.328 . S
C331 H336 0.930 . S
C332 C333 1.333 . S
C332 N334 1.317 . S
C332 H337 0.930 . S
C333 C332 1.333 . S
C333 N335 1.350 . S
C333 H359 0.931 . S
N334 Co330 2.148 . S
N334 C331 1.301 . S
N334 C332 1.317 . S
N335 C331 1.328 . S
N335 C333 1.350 . S
H336 C331 0.930 . S
H337 C332 0.930 . S
C338 O339 1.224 . S
C338 O357 1.247 . S
O339 C338 1.224 . S
N340 Co330 2.128 . S
N340 C341 1.355 . S
N340 C343 1.311 . S
C341 N340 1.355 . S
C341 C342 1.363 . S
C341 H353 0.929 . S
C342 C341 1.363 . S
C342 N344 1.375 . S
C342 H360 0.931 . S
C343 N340 1.311 . S
C343 N344 1.347 . S
C343 H354 0.929 . S
N344 C342 1.375 . S
N344 C343 1.347 . S
C345 C348 1.365 . S
C345 N350 1.328 . S
C345 H351 0.929 . S
C346 C347 1.362 . S
C346 C349 1.378 . S
C346 H361 0.929 . S
C347 C346 1.362 . S
C347 C348 1.366 . S
C348 C345 1.365 . S
C348 C347 1.366 . S
C348 H362 0.930 . S
C349 C346 1.378 . S
C349 N350 1.315 . S
C349 H352 0.930 . S
N350 Co330 2.194 . S
N350 C345 1.328 . S
N350 C349 1.315 . S
H351 C345 0.929 . S
H352 C349 0.930 . S
H353 C341 0.929 . S
H354 C343 0.929 . S
O355 Co330 2.351 . S
O355 C358 1.244 . S
O356 Co330 2.155 . S
O356 C358 1.240 . S
O357 Co330 2.096 . S
O357 C338 1.247 . S
C358 O355 1.244 . S
C358 O356 1.240 . S
H359 C333 0.931 . S
H360 C342 0.931 . S
H361 C346 0.929 . S
H362 C348 0.930 . S
Co363 N367 2.148 . S
Co363 N373 2.128 . S
Co363 N383 2.194 . S
Co363 O388 2.351 . S
Co363 O389 2.155 . S
Co363 O390 2.096 . S
C364 N367 1.301 . S
C364 N368 1.328 . S
C364 H369 0.930 . S
C365 C366 1.333 . S
C365 N367 1.317 . S
C365 H370 0.930 . S
C366 C365 1.333 . S
C366 N368 1.350 . S
C366 H392 0.931 . S
N367 Co363 2.148 . S
N367 C364 1.301 . S
N367 C365 1.317 . S
N368 C364 1.328 . S
N368 C366 1.350 . S
H369 C364 0.930 . S
H370 C365 0.930 . S
C371 O372 1.224 . S
C371 O390 1.247 . S
O372 C371 1.224 . S
N373 Co363 2.128 . S
N373 C374 1.355 . S
N373 C376 1.311 . S
C374 N373 1.355 . S
C374 C375 1.363 . S
C374 H386 0.929 . S
C375 C374 1.363 . S
C375 N377 1.375 . S
C375 H393 0.931 . S
C376 N373 1.311 . S
C376 N377 1.347 . S
C376 H387 0.929 . S
N377 C375 1.375 . S
N377 C376 1.347 . S
C378 C381 1.365 . S
C378 N383 1.328 . S
C378 H384 0.929 . S
C379 C380 1.362 . S
C379 C382 1.378 . S
C379 H394 0.929 . S
C380 C379 1.362 . S
C380 C381 1.366 . S
C381 C378 1.365 . S
C381 C380 1.366 . S
C381 H395 0.930 . S
C382 C379 1.378 . S
C382 N383 1.315 . S
C382 H385 0.930 . S
N383 Co363 2.194 . S
N383 C378 1.328 . S
N383 C382 1.315 . S
H384 C378 0.929 . S
H385 C382 0.930 . S
H386 C374 0.929 . S
H387 C376 0.929 . S
O388 Co363 2.351 . S
O388 C391 1.244 . S
O389 Co363 2.155 . S
O389 C391 1.240 . S
O390 Co363 2.096 . S
O390 C371 1.247 . S
C391 O388 1.244 . S
C391 O389 1.240 . S
H392 C366 0.931 . S
H393 C375 0.931 . S
H394 C379 0.929 . S
H395 C381 0.930 . S
Co396 N400 2.148 . S
Co396 N406 2.128 . S
Co396 N416 2.194 1_554 S
Co396 O421 2.351 1_554 S
Co396 O422 2.155 . S
Co396 O423 2.096 . S
C397 N400 1.301 1_556 S
C397 N401 1.328 . S
C397 H402 0.930 . S
C398 C399 1.333 . S
C398 N400 1.317 . S
C398 H403 0.930 . S
C399 C398 1.333 . S
C399 N401 1.350 1_554 S
C399 H425 0.931 . S
N400 Co396 2.148 . S
N400 C397 1.301 1_554 S
N400 C398 1.317 . S
N401 C397 1.328 . S
N401 C399 1.350 1_556 S
H402 C397 0.930 . S
H403 C398 0.930 . S
C404 O405 1.224 . S
C404 O423 1.247 . S
O405 C404 1.224 . S
N406 Co396 2.128 . S
N406 C407 1.355 1_554 S
N406 C409 1.311 . S
C407 N406 1.355 1_556 S
C407 C408 1.363 . S
C407 H419 0.929 . S
C408 C407 1.363 . S
C408 N410 1.375 1_556 S
C408 H426 0.931 . S
C409 N406 1.311 . S
C409 N410 1.347 . S
C409 H420 0.929 . S
N410 C408 1.375 1_554 S
N410 C409 1.347 . S
C411 C414 1.365 . S
C411 N416 1.328 . S
C411 H417 0.929 . S
C412 C413 1.362 . S
C412 C415 1.378 . S
C412 H427 0.929 . S
C413 C412 1.362 . S
C413 C414 1.366 . S
C414 C411 1.365 . S
C414 C413 1.366 . S
C414 H428 0.930 . S
C415 C412 1.378 . S
C415 N416 1.315 . S
C415 H418 0.930 . S
N416 Co396 2.194 1_556 S
N416 C411 1.328 . S
N416 C415 1.315 . S
H417 C411 0.929 . S
H418 C415 0.930 . S
H419 C407 0.929 . S
H420 C409 0.929 . S
O421 Co396 2.351 1_556 S
O421 C424 1.244 . S
O422 Co396 2.155 . S
O422 C424 1.240 1_554 S
O423 Co396 2.096 . S
O423 C404 1.247 . S
C424 O421 1.244 . S
C424 O422 1.240 1_556 S
H425 C399 0.931 . S
H426 C408 0.931 . S
H427 C412 0.929 . S
H428 C414 0.930 . S
Co429 N433 2.148 . S
Co429 N439 2.128 . S
Co429 N449 2.194 1_554 S
Co429 O454 2.351 1_554 S
Co429 O455 2.155 . S
Co429 O456 2.096 . S
C430 N433 1.301 1_556 S
C430 N434 1.328 . S
C430 H435 0.930 . S
C431 C432 1.333 . S
C431 N433 1.317 . S
C431 H436 0.930 . S
C432 C431 1.333 . S
C432 N434 1.350 1_554 S
C432 H458 0.931 . S
N433 Co429 2.148 . S
N433 C430 1.301 1_554 S
N433 C431 1.317 . S
N434 C430 1.328 . S
N434 C432 1.350 1_556 S
H435 C430 0.930 . S
H436 C431 0.930 . S
C437 O438 1.224 . S
C437 O456 1.247 . S
O438 C437 1.224 . S
N439 Co429 2.128 . S
N439 C440 1.355 1_554 S
N439 C442 1.311 . S
C440 N439 1.355 1_556 S
C440 C441 1.363 . S
C440 H452 0.929 . S
C441 C440 1.363 . S
C441 N443 1.375 1_556 S
C441 H459 0.931 . S
C442 N439 1.311 . S
C442 N443 1.347 . S
C442 H453 0.929 . S
N443 C441 1.375 1_554 S
N443 C442 1.347 . S
C444 C447 1.365 . S
C444 N449 1.328 . S
C444 H450 0.929 . S
C445 C446 1.362 . S
C445 C448 1.378 . S
C445 H460 0.929 . S
C446 C445 1.362 . S
C446 C447 1.366 . S
C447 C444 1.365 . S
C447 C446 1.366 . S
C447 H461 0.930 . S
C448 C445 1.378 . S
C448 N449 1.315 . S
C448 H451 0.930 . S
N449 Co429 2.194 1_556 S
N449 C444 1.328 . S
N449 C448 1.315 . S
H450 C444 0.929 . S
H451 C448 0.930 . S
H452 C440 0.929 . S
H453 C442 0.929 . S
O454 Co429 2.351 1_556 S
O454 C457 1.244 . S
O455 Co429 2.155 . S
O455 C457 1.240 1_554 S
O456 Co429 2.096 . S
O456 C437 1.247 . S
C457 O454 1.244 . S
C457 O455 1.240 1_556 S
H458 C432 0.931 . S
H459 C441 0.931 . S
H460 C445 0.929 . S
H461 C447 0.930 . S
Co462 N466 2.148 . S
Co462 N472 2.128 . S
Co462 N482 2.194 . S
Co462 O487 2.351 . S
Co462 O488 2.155 . S
Co462 O489 2.096 . S
C463 N466 1.301 . S
C463 N467 1.328 . S
C463 H468 0.930 . S
C464 C465 1.333 . S
C464 N466 1.317 . S
C464 H469 0.930 . S
C465 C464 1.333 . S
C465 N467 1.350 . S
C465 H491 0.931 . S
N466 Co462 2.148 . S
N466 C463 1.301 . S
N466 C464 1.317 . S
N467 C463 1.328 . S
N467 C465 1.350 . S
H468 C463 0.930 . S
H469 C464 0.930 . S
C470 O471 1.224 . S
C470 O489 1.247 . S
O471 C470 1.224 . S
N472 Co462 2.128 . S
N472 C473 1.355 . S
N472 C475 1.311 . S
C473 N472 1.355 . S
C473 C474 1.363 . S
C473 H485 0.929 . S
C474 C473 1.363 . S
C474 N476 1.375 . S
C474 H492 0.931 . S
C475 N472 1.311 . S
C475 N476 1.347 . S
C475 H486 0.929 . S
N476 C474 1.375 . S
N476 C475 1.347 . S
C477 C480 1.365 . S
C477 N482 1.328 . S
C477 H483 0.929 . S
C478 C479 1.362 . S
C478 C481 1.378 . S
C478 H493 0.929 . S
C479 C478 1.362 . S
C479 C480 1.366 . S
C480 C477 1.365 . S
C480 C479 1.366 . S
C480 H494 0.930 . S
C481 C478 1.378 . S
C481 N482 1.315 . S
C481 H484 0.930 . S
N482 Co462 2.194 . S
N482 C477 1.328 . S
N482 C481 1.315 . S
H483 C477 0.929 . S
H484 C481 0.930 . S
H485 C473 0.929 . S
H486 C475 0.929 . S
O487 Co462 2.351 . S
O487 C490 1.244 . S
O488 Co462 2.155 . S
O488 C490 1.240 . S
O489 Co462 2.096 . S
O489 C470 1.247 . S
C490 O487 1.244 . S
C490 O488 1.240 . S
H491 C465 0.931 . S
H492 C474 0.931 . S
H493 C478 0.929 . S
H494 C480 0.930 . S
Co495 N499 2.148 . S
Co495 N505 2.128 . S
Co495 N515 2.194 . S
Co495 O520 2.351 . S
Co495 O521 2.155 . S
Co495 O522 2.096 . S
C496 N499 1.301 . S
C496 N500 1.328 . S
C496 H501 0.930 . S
C497 C498 1.333 . S
C497 N499 1.317 . S
C497 H502 0.930 . S
C498 C497 1.333 . S
C498 N500 1.350 . S
C498 H524 0.931 . S
N499 Co495 2.148 . S
N499 C496 1.301 . S
N499 C497 1.317 . S
N500 C496 1.328 . S
N500 C498 1.350 . S
H501 C496 0.930 . S
H502 C497 0.930 . S
C503 O504 1.224 . S
C503 O522 1.247 . S
O504 C503 1.224 . S
N505 Co495 2.128 . S
N505 C506 1.355 . S
N505 C508 1.311 . S
C506 N505 1.355 . S
C506 C507 1.363 . S
C506 H518 0.929 . S
C507 C506 1.363 . S
C507 N509 1.375 . S
C507 H525 0.931 . S
C508 N505 1.311 . S
C508 N509 1.347 . S
C508 H519 0.929 . S
N509 C507 1.375 . S
N509 C508 1.347 . S
C510 C513 1.365 . S
C510 N515 1.328 . S
C510 H516 0.929 . S
C511 C512 1.362 . S
C511 C514 1.378 . S
C511 H526 0.929 . S
C512 C511 1.362 . S
C512 C513 1.366 . S
C513 C510 1.365 . S
C513 C512 1.366 . S
C513 H527 0.930 . S
C514 C511 1.378 . S
C514 N515 1.315 . S
C514 H517 0.930 . S
N515 Co495 2.194 . S
N515 C510 1.328 . S
N515 C514 1.315 . S
H516 C510 0.929 . S
H517 C514 0.930 . S
H518 C506 0.929 . S
H519 C508 0.929 . S
O520 Co495 2.351 . S
O520 C523 1.244 . S
O521 Co495 2.155 . S
O521 C523 1.240 . S
O522 Co495 2.096 . S
O522 C503 1.247 . S
C523 O520 1.244 . S
C523 O521 1.240 . S
H524 C498 0.931 . S
H525 C507 0.931 . S
H526 C511 0.929 . S
H527 C513 0.930 . S
H528 C536 0.950 . S
H529 C541 0.950 1_554 S
H530 C538 0.950 . S
H531 C540 0.950 . S
H532 C542 0.950 . S
H533 C544 0.950 . S
H534 C546 0.950 . S
H535 C547 0.950 . S
C536 H528 0.950 . S
C536 C537 1.386 . S
C536 C538 1.391 . S
C537 C536 1.386 . S
C537 C541 1.393 . S
C538 H530 0.950 . S
C538 C536 1.391 . S
C538 C539 1.400 . S
C539 C538 1.400 . S
C539 C540 1.398 . S
C539 C545 1.491 . S
C540 H531 0.950 . S
C540 C539 1.398 . S
C540 C541 1.391 . S
C541 H529 0.950 1_556 S
C541 C537 1.393 . S
C541 C540 1.391 . S
C542 H532 0.950 . S
C542 C543 1.386 . S
C542 C544 1.391 . S
C543 C542 1.386 . S
C543 C547 1.393 . S
C544 H533 0.950 . S
C544 C542 1.391 . S
C544 C545 1.400 . S
C545 C539 1.491 . S
C545 C544 1.400 . S
C545 C546 1.398 . S
C546 H534 0.950 . S
C546 C545 1.398 . S
C546 C547 1.391 . S
C547 H535 0.950 . S
C547 C543 1.393 . S
C547 C546 1.391 . S
H548 C556 0.950 1_554 S
H549 C561 0.950 . S
H550 C558 0.950 . S
H551 C560 0.950 . S
H552 C562 0.950 . S
H553 C564 0.950 . S
H554 C566 0.950 . S
H555 C567 0.950 . S
C556 H548 0.950 1_556 S
C556 C557 1.386 . S
C556 C558 1.391 . S
C557 C556 1.386 . S
C557 C561 1.393 . S
C558 H550 0.950 . S
C558 C556 1.391 . S
C558 C559 1.400 . S
C559 C558 1.400 . S
C559 C560 1.398 . S
C559 C565 1.491 . S
C560 H551 0.950 . S
C560 C559 1.398 . S
C560 C561 1.391 . S
C561 H549 0.950 . S
C561 C557 1.393 . S
C561 C560 1.391 . S
C562 H552 0.950 . S
C562 C563 1.386 . S
C562 C564 1.391 . S
C563 C562 1.386 . S
C563 C567 1.393 . S
C564 H553 0.950 . S
C564 C562 1.391 . S
C564 C565 1.400 . S
C565 C559 1.491 . S
C565 C564 1.400 . S
C565 C566 1.398 . S
C566 H554 0.950 . S
C566 C565 1.398 . S
C566 C567 1.391 . S
C567 H555 0.950 . S
C567 C563 1.393 . S
C567 C566 1.391 . S
H568 C576 0.950 . S
H569 C581 0.950 1_655 S
H570 C578 0.950 . S
H571 C580 0.950 . S
H572 C582 0.950 . S
H573 C584 0.950 . S
H574 C586 0.950 . S
H575 C587 0.950 . S
C576 H568 0.950 . S
C576 C577 1.386 . S
C576 C578 1.391 . S
C577 C576 1.386 . S
C577 C581 1.393 . S
C578 H570 0.950 . S
C578 C576 1.391 . S
C578 C579 1.400 . S
C579 C578 1.400 . S
C579 C580 1.398 . S
C579 C585 1.491 . S
C580 H571 0.950 . S
C580 C579 1.398 . S
C580 C581 1.391 . S
C581 H569 0.950 1_455 S
C581 C577 1.393 . S
C581 C580 1.391 . S
C582 H572 0.950 . S
C582 C583 1.386 . S
C582 C584 1.391 . S
C583 C582 1.386 . S
C583 C587 1.393 . S
C584 H573 0.950 . S
C584 C582 1.391 . S
C584 C585 1.400 . S
C585 C579 1.491 . S
C585 C584 1.400 . S
C585 C586 1.398 . S
C586 H574 0.950 . S
C586 C585 1.398 . S
C586 C587 1.391 . S
C587 H575 0.950 . S
C587 C583 1.393 . S
C587 C586 1.391 . S
H588 C596 0.950 . S
H589 C601 0.950 . S
H590 C598 0.950 . S
H591 C600 0.950 . S
H592 C602 0.950 . S
H593 C604 0.950 . S
H594 C606 0.950 . S
H595 C607 0.950 . S
C596 H588 0.950 . S
C596 C597 1.386 . S
C596 C598 1.391 . S
C597 C596 1.386 . S
C597 C601 1.393 . S
C598 H590 0.950 . S
C598 C596 1.391 . S
C598 C599 1.400 . S
C599 C598 1.400 . S
C599 C600 1.398 . S
C599 C605 1.491 . S
C600 H591 0.950 . S
C600 C599 1.398 . S
C600 C601 1.391 . S
C601 H589 0.950 . S
C601 C597 1.393 . S
C601 C600 1.391 . S
C602 H592 0.950 . S
C602 C603 1.386 . S
C602 C604 1.391 . S
C603 C602 1.386 . S
C603 C607 1.393 . S
C604 H593 0.950 . S
C604 C602 1.391 . S
C604 C605 1.400 . S
C605 C599 1.491 . S
C605 C604 1.400 . S
C605 C606 1.398 . S
C606 H594 0.950 . S
C606 C605 1.398 . S
C606 C607 1.391 . S
C607 H595 0.950 . S
C607 C603 1.393 . S
C607 C606 1.391 . S
H608 C616 0.950 . S
H609 C621 0.950 . S
H610 C618 0.950 . S
H611 C620 0.950 . S
H612 C622 0.950 . S
H613 C624 0.950 . S
H614 C626 0.950 . S
H615 C627 0.950 . S
C616 H608 0.950 . S
C616 C617 1.386 . S
C616 C618 1.391 . S
C617 C616 1.386 . S
C617 C621 1.393 . S
C618 H610 0.950 . S
C618 C616 1.391 . S
C618 C619 1.400 . S
C619 C618 1.400 . S
C619 C620 1.398 . S
C619 C625 1.491 . S
C620 H611 0.950 . S
C620 C619 1.398 . S
C620 C621 1.391 . S
C621 H609 0.950 . S
C621 C617 1.393 . S
C621 C620 1.391 . S
C622 H612 0.950 . S
C622 C623 1.386 . S
C622 C624 1.391 . S
C623 C622 1.386 . S
C623 C627 1.393 . S
C624 H613 0.950 . S
C624 C622 1.391 . S
C624 C625 1.400 . S
C625 C619 1.491 . S
C625 C624 1.400 . S
C625 C626 1.398 . S
C626 H614 0.950 . S
C626 C625 1.398 . S
C626 C627 1.391 . S
C627 H615 0.950 . S
C627 C623 1.393 . S
C627 C626 1.391 . S
H628 C636 0.950 . S
H629 C641 0.950 . S
H630 C638 0.950 . S
H631 C640 0.950 . S
H632 C642 0.950 . S
H633 C644 0.950 . S
H634 C646 0.950 . S
H635 C647 0.950 . S
C636 H628 0.950 . S
C636 C637 1.386 . S
C636 C638 1.391 . S
C637 C636 1.386 . S
C637 C641 1.393 . S
C638 H630 0.950 . S
C638 C636 1.391 . S
C638 C639 1.400 . S
C639 C638 1.400 . S
C639 C640 1.398 . S
C639 C645 1.491 . S
C640 H631 0.950 . S
C640 C639 1.398 . S
C640 C641 1.391 . S
C641 H629 0.950 . S
C641 C637 1.393 . S
C641 C640 1.391 . S
C642 H632 0.950 . S
C642 C643 1.386 . S
C642 C644 1.391 . S
C643 C642 1.386 . S
C643 C647 1.393 . S
C644 H633 0.950 . S
C644 C642 1.391 . S
C644 C645 1.400 . S
C645 C639 1.491 . S
C645 C644 1.400 . S
C645 C646 1.398 . S
C646 H634 0.950 . S
C646 C645 1.398 . S
C646 C647 1.391 . S
C647 H635 0.950 . S
C647 C643 1.393 . S
C647 C646 1.391 . S
H648 C656 0.950 . S
H649 C661 0.950 . S
H650 C658 0.950 . S
H651 C660 0.950 . S
H652 C662 0.950 . S
H653 C664 0.950 . S
H654 C666 0.950 . S
H655 C667 0.950 . S
C656 H648 0.950 . S
C656 C657 1.386 . S
C656 C658 1.391 . S
C657 C656 1.386 . S
C657 C661 1.393 . S
C658 H650 0.950 . S
C658 C656 1.391 . S
C658 C659 1.400 . S
C659 C658 1.400 . S
C659 C660 1.398 . S
C659 C665 1.491 . S
C660 H651 0.950 . S
C660 C659 1.398 . S
C660 C661 1.391 . S
C661 H649 0.950 . S
C661 C657 1.393 . S
C661 C660 1.391 . S
C662 H652 0.950 . S
C662 C663 1.386 . S
C662 C664 1.391 . S
C663 C662 1.386 . S
C663 C667 1.393 . S
C664 H653 0.950 . S
C664 C662 1.391 . S
C664 C665 1.400 . S
C665 C659 1.491 . S
C665 C664 1.400 . S
C665 C666 1.398 . S
C666 H654 0.950 . S
C666 C665 1.398 . S
C666 C667 1.391 . S
C667 H655 0.950 . S
C667 C663 1.393 . S
C667 C666 1.391 . S
H668 C676 0.950 . S
H669 C681 0.950 . S
H670 C678 0.950 . S
H671 C680 0.950 . S
H672 C682 0.950 1_455 S
H673 C684 0.950 . S
H674 C686 0.950 . S
H675 C687 0.950 . S
C676 H668 0.950 . S
C676 C677 1.386 . S
C676 C678 1.391 . S
C677 C676 1.386 . S
C677 C681 1.393 . S
C678 H670 0.950 . S
C678 C676 1.391 . S
C678 C679 1.400 . S
C679 C678 1.400 . S
C679 C680 1.398 . S
C679 C685 1.491 . S
C680 H671 0.950 . S
C680 C679 1.398 . S
C680 C681 1.391 . S
C681 H669 0.950 . S
C681 C677 1.393 . S
C681 C680 1.391 . S
C682 H672 0.950 1_655 S
C682 C683 1.386 . S
C682 C684 1.391 . S
C683 C682 1.386 . S
C683 C687 1.393 . S
C684 H673 0.950 . S
C684 C682 1.391 . S
C684 C685 1.400 . S
C685 C679 1.491 . S
C685 C684 1.400 . S
C685 C686 1.398 . S
C686 H674 0.950 . S
C686 C685 1.398 . S
C686 C687 1.391 . S
C687 H675 0.950 . S
C687 C683 1.393 . S
C687 C686 1.391 . S
H688 C696 0.950 . S
H689 C701 0.950 . S
H690 C698 0.950 . S
H691 C700 0.950 . S
H692 C702 0.950 . S
H693 C704 0.950 . S
H694 C706 0.950 . S
H695 C707 0.950 . S
C696 H688 0.950 . S
C696 C697 1.386 . S
C696 C698 1.391 . S
C697 C696 1.386 . S
C697 C701 1.393 . S
C698 H690 0.950 . S
C698 C696 1.391 . S
C698 C699 1.400 . S
C699 C698 1.400 . S
C699 C700 1.398 . S
C699 C705 1.491 . S
C700 H691 0.950 . S
C700 C699 1.398 . S
C700 C701 1.391 . S
C701 H689 0.950 . S
C701 C697 1.393 . S
C701 C700 1.391 . S
C702 H692 0.950 . S
C702 C703 1.386 . S
C702 C704 1.391 . S
C703 C702 1.386 . S
C703 C707 1.393 . S
C704 H693 0.950 . S
C704 C702 1.391 . S
C704 C705 1.400 . S
C705 C699 1.491 . S
C705 C704 1.400 . S
C705 C706 1.398 . S
C706 H694 0.950 . S
C706 C705 1.398 . S
C706 C707 1.391 . S
C707 H695 0.950 . S
C707 C703 1.393 . S
C707 C706 1.391 . S
H708 C716 0.950 . S
H709 C721 0.950 . S
H710 C718 0.950 . S
H711 C720 0.950 . S
H712 C722 0.950 . S
H713 C724 0.950 . S
H714 C726 0.950 . S
H715 C727 0.950 . S
C716 H708 0.950 . S
C716 C717 1.386 . S
C716 C718 1.391 . S
C717 C716 1.386 . S
C717 C721 1.393 . S
C718 H710 0.950 . S
C718 C716 1.391 . S
C718 C719 1.400 . S
C719 C718 1.400 . S
C719 C720 1.398 . S
C719 C725 1.491 . S
C720 H711 0.950 . S
C720 C719 1.398 . S
C720 C721 1.391 . S
C721 H709 0.950 . S
C721 C717 1.393 . S
C721 C720 1.391 . S
C722 H712 0.950 . S
C722 C723 1.386 . S
C722 C724 1.391 . S
C723 C722 1.386 . S
C723 C727 1.393 . S
C724 H713 0.950 . S
C724 C722 1.391 . S
C724 C725 1.400 . S
C725 C719 1.491 . S
C725 C724 1.400 . S
C725 C726 1.398 . S
C726 H714 0.950 . S
C726 C725 1.398 . S
C726 C727 1.391 . S
C727 H715 0.950 . S
C727 C723 1.393 . S
C727 C726 1.391 . S
H728 C736 0.950 . S
H729 C741 0.950 . S
H730 C738 0.950 . S
H731 C740 0.950 . S
H732 C742 0.950 . S
H733 C744 0.950 . S
H734 C746 0.950 . S
H735 C747 0.950 . S
C736 H728 0.950 . S
C736 C737 1.386 . S
C736 C738 1.391 . S
C737 C736 1.386 . S
C737 C741 1.393 . S
C738 H730 0.950 . S
C738 C736 1.391 . S
C738 C739 1.400 . S
C739 C738 1.400 . S
C739 C740 1.398 . S
C739 C745 1.491 . S
C740 H731 0.950 . S
C740 C739 1.398 . S
C740 C741 1.391 . S
C741 H729 0.950 . S
C741 C737 1.393 . S
C741 C740 1.391 . S
C742 H732 0.950 . S
C742 C743 1.386 . S
C742 C744 1.391 . S
C743 C742 1.386 . S
C743 C747 1.393 . S
C744 H733 0.950 . S
C744 C742 1.391 . S
C744 C745 1.400 . S
C745 C739 1.491 . S
C745 C744 1.400 . S
C745 C746 1.398 . S
C746 H734 0.950 . S
C746 C745 1.398 . S
C746 C747 1.391 . S
C747 H735 0.950 . S
C747 C743 1.393 . S
C747 C746 1.391 . S
H748 C756 0.950 . S
H749 C761 0.950 . S
H750 C758 0.950 . S
H751 C760 0.950 . S
H752 C762 0.950 . S
H753 C764 0.950 . S
H754 C766 0.950 . S
H755 C767 0.950 . S
C756 H748 0.950 . S
C756 C757 1.386 . S
C756 C758 1.391 . S
C757 C756 1.386 . S
C757 C761 1.393 . S
C758 H750 0.950 . S
C758 C756 1.391 . S
C758 C759 1.400 . S
C759 C758 1.400 . S
C759 C760 1.398 . S
C759 C765 1.491 . S
C760 H751 0.950 . S
C760 C759 1.398 . S
C760 C761 1.391 . S
C761 H749 0.950 . S
C761 C757 1.393 . S
C761 C760 1.391 . S
C762 H752 0.950 . S
C762 C763 1.386 . S
C762 C764 1.391 . S
C763 C762 1.386 . S
C763 C767 1.393 . S
C764 H753 0.950 . S
C764 C762 1.391 . S
C764 C765 1.400 . S
C765 C759 1.491 . S
C765 C764 1.400 . S
C765 C766 1.398 . S
C766 H754 0.950 . S
C766 C765 1.398 . S
C766 C767 1.391 . S
C767 H755 0.950 . S
C767 C763 1.393 . S
C767 C766 1.391 . S
H768 C776 0.950 1_554 S
H769 C781 0.950 . S
H770 C778 0.950 . S
H771 C780 0.950 . S
H772 C782 0.950 . S
H773 C784 0.950 . S
H774 C786 0.950 . S
H775 C787 0.950 . S
C776 H768 0.950 1_556 S
C776 C777 1.386 . S
C776 C778 1.391 . S
C777 C776 1.386 . S
C777 C781 1.393 . S
C778 H770 0.950 . S
C778 C776 1.391 . S
C778 C779 1.400 . S
C779 C778 1.400 . S
C779 C780 1.398 . S
C779 C785 1.491 . S
C780 H771 0.950 . S
C780 C779 1.398 . S
C780 C781 1.391 . S
C781 H769 0.950 . S
C781 C777 1.393 . S
C781 C780 1.391 . S
C782 H772 0.950 . S
C782 C783 1.386 . S
C782 C784 1.391 . S
C783 C782 1.386 . S
C783 C787 1.393 . S
C784 H773 0.950 . S
C784 C782 1.391 . S
C784 C785 1.400 . S
C785 C779 1.491 . S
C785 C784 1.400 . S
C785 C786 1.398 . S
C786 H774 0.950 . S
C786 C785 1.398 . S
C786 C787 1.391 . S
C787 H775 0.950 . S
C787 C783 1.393 . S
C787 C786 1.391 . S
H788 C796 0.950 . S
H789 C801 0.950 . S
H790 C798 0.950 . S
H791 C800 0.950 . S
H792 C802 0.950 . S
H793 C804 0.950 . S
H794 C806 0.950 . S
H795 C807 0.950 . S
C796 H788 0.950 . S
C796 C797 1.386 . S
C796 C798 1.391 . S
C797 C796 1.386 . S
C797 C801 1.393 . S
C798 H790 0.950 . S
C798 C796 1.391 . S
C798 C799 1.400 . S
C799 C798 1.400 . S
C799 C800 1.398 . S
C799 C805 1.491 . S
C800 H791 0.950 . S
C800 C799 1.398 . S
C800 C801 1.391 . S
C801 H789 0.950 . S
C801 C797 1.393 . S
C801 C800 1.391 . S
C802 H792 0.950 . S
C802 C803 1.386 . S
C802 C804 1.391 . S
C803 C802 1.386 . S
C803 C807 1.393 . S
C804 H793 0.950 . S
C804 C802 1.391 . S
C804 C805 1.400 . S
C805 C799 1.491 . S
C805 C804 1.400 . S
C805 C806 1.398 . S
C806 H794 0.950 . S
C806 C805 1.398 . S
C806 C807 1.391 . S
C807 H795 0.950 . S
C807 C803 1.393 . S
C807 C806 1.391 . S
H808 C816 0.950 . S
H809 C821 0.950 . S
H810 C818 0.950 . S
H811 C820 0.950 . S
H812 C822 0.950 . S
H813 C824 0.950 . S
H814 C826 0.950 . S
H815 C827 0.950 . S
C816 H808 0.950 . S
C816 C817 1.386 . S
C816 C818 1.391 . S
C817 C816 1.386 . S
C817 C821 1.393 . S
C818 H810 0.950 . S
C818 C816 1.391 . S
C818 C819 1.400 . S
C819 C818 1.400 . S
C819 C820 1.398 . S
C819 C825 1.491 . S
C820 H811 0.950 . S
C820 C819 1.398 . S
C820 C821 1.391 . S
C821 H809 0.950 . S
C821 C817 1.393 . S
C821 C820 1.391 . S
C822 H812 0.950 . S
C822 C823 1.386 . S
C822 C824 1.391 . S
C823 C822 1.386 . S
C823 C827 1.393 . S
C824 H813 0.950 . S
C824 C822 1.391 . S
C824 C825 1.400 . S
C825 C819 1.491 . S
C825 C824 1.400 . S
C825 C826 1.398 . S
C826 H814 0.950 . S
C826 C825 1.398 . S
C826 C827 1.391 . S
C827 H815 0.950 . S
C827 C823 1.393 . S
C827 C826 1.391 . S
H828 C836 0.950 . S
H829 C841 0.950 . S
H830 C838 0.950 . S
H831 C840 0.950 . S
H832 C842 0.950 . S
H833 C844 0.950 . S
H834 C846 0.950 . S
H835 C847 0.950 . S
C836 H828 0.950 . S
C836 C837 1.386 . S
C836 C838 1.391 . S
C837 C836 1.386 . S
C837 C841 1.393 . S
C838 H830 0.950 . S
C838 C836 1.391 . S
C838 C839 1.400 . S
C839 C838 1.400 . S
C839 C840 1.398 . S
C839 C845 1.491 . S
C840 H831 0.950 . S
C840 C839 1.398 . S
C840 C841 1.391 . S
C841 H829 0.950 . S
C841 C837 1.393 . S
C841 C840 1.391 . S
C842 H832 0.950 . S
C842 C843 1.386 . S
C842 C844 1.391 . S
C843 C842 1.386 . S
C843 C847 1.393 . S
C844 H833 0.950 . S
C844 C842 1.391 . S
C844 C845 1.400 . S
C845 C839 1.491 . S
C845 C844 1.400 . S
C845 C846 1.398 . S
C846 H834 0.950 . S
C846 C845 1.398 . S
C846 C847 1.391 . S
C847 H835 0.950 . S
C847 C843 1.393 . S
C847 C846 1.391 . S
H848 C856 0.950 . S
H849 C861 0.950 . S
H850 C858 0.950 . S
H851 C860 0.950 . S
H852 C862 0.950 . S
H853 C864 0.950 1_655 S
H854 C866 0.950 . S
H855 C867 0.950 . S
C856 H848 0.950 . S
C856 C857 1.386 1_455 S
C856 C858 1.391 . S
C857 C856 1.386 1_655 S
C857 C861 1.393 . S
C858 H850 0.950 . S
C858 C856 1.391 . S
C858 C859 1.400 . S
C859 C858 1.400 . S
C859 C860 1.398 1_455 S
C859 C865 1.491 . S
C860 H851 0.950 . S
C860 C859 1.398 1_655 S
C860 C861 1.391 . S
C861 H849 0.950 . S
C861 C857 1.393 . S
C861 C860 1.391 . S
C862 H852 0.950 . S
C862 C863 1.386 . S
C862 C864 1.391 . S
C863 C862 1.386 . S
C863 C867 1.393 . S
C864 H853 0.950 1_455 S
C864 C862 1.391 . S
C864 C865 1.400 . S
C865 C859 1.491 . S
C865 C864 1.400 . S
C865 C866 1.398 . S
C866 H854 0.950 . S
C866 C865 1.398 . S
C866 C867 1.391 . S
C867 H855 0.950 . S
C867 C863 1.393 . S
C867 C866 1.391 . S
H868 C876 0.950 . S
H869 C881 0.950 . S
H870 C878 0.950 . S
H871 C880 0.950 . S
H872 C882 0.950 . S
H873 C884 0.950 1_455 S
H874 C886 0.950 . S
H875 C887 0.950 . S
C876 H868 0.950 . S
C876 C877 1.386 1_655 S
C876 C878 1.391 . S
C877 C876 1.386 1_455 S
C877 C881 1.393 . S
C878 H870 0.950 . S
C878 C876 1.391 . S
C878 C879 1.400 . S
C879 C878 1.400 . S
C879 C880 1.398 1_655 S
C879 C885 1.491 . S
C880 H871 0.950 . S
C880 C879 1.398 1_455 S
C880 C881 1.391 . S
C881 H869 0.950 . S
C881 C877 1.393 . S
C881 C880 1.391 . S
C882 H872 0.950 . S
C882 C883 1.386 . S
C882 C884 1.391 . S
C883 C882 1.386 . S
C883 C887 1.393 . S
C884 H873 0.950 1_655 S
C884 C882 1.391 . S
C884 C885 1.400 . S
C885 C879 1.491 . S
C885 C884 1.400 . S
C885 C886 1.398 . S
C886 H874 0.950 . S
C886 C885 1.398 . S
C886 C887 1.391 . S
C887 H875 0.950 . S
C887 C883 1.393 . S
C887 C886 1.391 . S
H888 C896 0.950 . S
H889 C901 0.950 . S
H890 C898 0.950 . S
H891 C900 0.950 . S
H892 C902 0.950 . S
H893 C904 0.950 . S
H894 C906 0.950 . S
H895 C907 0.950 . S
C896 H888 0.950 . S
C896 C897 1.386 . S
C896 C898 1.391 . S
C897 C896 1.386 . S
C897 C901 1.393 . S
C898 H890 0.950 . S
C898 C896 1.391 . S
C898 C899 1.400 . S
C899 C898 1.400 . S
C899 C900 1.398 . S
C899 C905 1.491 . S
C900 H891 0.950 . S
C900 C899 1.398 . S
C900 C901 1.391 . S
C901 H889 0.950 . S
C901 C897 1.393 . S
C901 C900 1.391 . S
C902 H892 0.950 . S
C902 C903 1.386 . S
C902 C904 1.391 . S
C903 C902 1.386 . S
C903 C907 1.393 . S
C904 H893 0.950 . S
C904 C902 1.391 . S
C904 C905 1.400 . S
C905 C899 1.491 . S
C905 C904 1.400 . S
C905 C906 1.398 . S
C906 H894 0.950 . S
C906 C905 1.398 . S
C906 C907 1.391 . S
C907 H895 0.950 . S
C907 C903 1.393 . S
C907 C906 1.391 . S
H908 C916 0.950 . S
H909 C921 0.950 . S
H910 C918 0.950 . S
H911 C920 0.950 . S
H912 C922 0.950 . S
H913 C924 0.950 . S
H914 C926 0.950 . S
H915 C927 0.950 . S
C916 H908 0.950 . S
C916 C917 1.386 . S
C916 C918 1.391 . S
C917 C916 1.386 . S
C917 C921 1.393 . S
C918 H910 0.950 . S
C918 C916 1.391 . S
C918 C919 1.400 . S
C919 C918 1.400 . S
C919 C920 1.398 . S
C919 C925 1.491 . S
C920 H911 0.950 . S
C920 C919 1.398 . S
C920 C921 1.391 . S
C921 H909 0.950 . S
C921 C917 1.393 . S
C921 C920 1.391 . S
C922 H912 0.950 . S
C922 C923 1.386 . S
C922 C924 1.391 . S
C923 C922 1.386 . S
C923 C927 1.393 . S
C924 H913 0.950 . S
C924 C922 1.391 . S
C924 C925 1.400 . S
C925 C919 1.491 . S
C925 C924 1.400 . S
C925 C926 1.398 . S
C926 H914 0.950 . S
C926 C925 1.398 . S
C926 C927 1.391 . S
C927 H915 0.950 . S
C927 C923 1.393 . S
C927 C926 1.391 . S
H928 C936 0.950 . S
H929 C941 0.950 . S
H930 C938 0.950 . S
H931 C940 0.950 . S
H932 C942 0.950 . S
H933 C944 0.950 1_655 S
H934 C946 0.950 . S
H935 C947 0.950 . S
C936 H928 0.950 . S
C936 C937 1.386 1_455 S
C936 C938 1.391 . S
C937 C936 1.386 1_655 S
C937 C941 1.393 . S
C938 H930 0.950 . S
C938 C936 1.391 . S
C938 C939 1.400 . S
C939 C938 1.400 . S
C939 C940 1.398 1_455 S
C939 C945 1.491 . S
C940 H931 0.950 . S
C940 C939 1.398 1_655 S
C940 C941 1.391 . S
C941 H929 0.950 . S
C941 C937 1.393 . S
C941 C940 1.391 . S
C942 H932 0.950 . S
C942 C943 1.386 . S
C942 C944 1.391 . S
C943 C942 1.386 . S
C943 C947 1.393 . S
C944 H933 0.950 1_455 S
C944 C942 1.391 . S
C944 C945 1.400 . S
C945 C939 1.491 . S
C945 C944 1.400 . S
C945 C946 1.398 . S
C946 H934 0.950 . S
C946 C945 1.398 . S
C946 C947 1.391 . S
C947 H935 0.950 . S
C947 C943 1.393 . S
C947 C946 1.391 . S
H948 C956 0.954 . S
H949 C961 0.950 . S
H950 C958 0.950 . S
H951 C960 0.950 . S
H952 C962 0.950 . S
H953 C964 0.950 . S
H954 C966 0.950 . S
H955 C967 0.950 . S
C956 H948 0.954 . S
C956 C957 1.371 1_655 S
C956 C958 1.402 . S
C957 C956 1.371 1_455 S
C957 C961 1.393 . S
C958 H950 0.950 . S
C958 C956 1.402 . S
C958 C959 1.400 . S
C959 C958 1.400 . S
C959 C960 1.398 1_655 S
C959 C965 1.491 . S
C960 H951 0.950 . S
C960 C959 1.398 1_455 S
C960 C961 1.391 . S
C961 H949 0.950 . S
C961 C957 1.393 . S
C961 C960 1.391 . S
C962 H952 0.950 . S
C962 C963 1.386 . S
C962 C964 1.391 . S
C963 C962 1.386 . S
C963 C967 1.393 . S
C964 H953 0.950 . S
C964 C962 1.391 . S
C964 C965 1.400 . S
C965 C959 1.491 . S
C965 C964 1.400 . S
C965 C966 1.398 . S
C966 H954 0.950 . S
C966 C965 1.398 . S
C966 C967 1.391 . S
C967 H955 0.950 . S
C967 C963 1.393 . S
C967 C966 1.391 . S
H968 C976 0.950 . S
H969 C981 0.950 . S
H970 C978 0.950 1_565 S
H971 C980 0.950 . S
H972 C982 0.950 1_545 S
H973 C984 0.950 . S
H974 C986 0.950 . S
H975 C987 0.950 . S
C976 H968 0.950 . S
C976 C977 1.386 . S
C976 C978 1.391 . S
C977 C976 1.386 . S
C977 C981 1.393 . S
C978 H970 0.950 1_545 S
C978 C976 1.391 . S
C978 C979 1.400 . S
C979 C978 1.400 . S
C979 C980 1.398 . S
C979 C985 1.491 1_556 S
C980 H971 0.950 . S
C980 C979 1.398 . S
C980 C981 1.391 . S
C981 H969 0.950 . S
C981 C977 1.393 . S
C981 C980 1.391 . S
C982 H972 0.950 1_565 S
C982 C983 1.386 . S
C982 C984 1.391 1_565 S
C983 C982 1.386 . S
C983 C987 1.393 . S
C984 H973 0.950 . S
C984 C982 1.391 1_545 S
C984 C985 1.400 . S
C985 C979 1.491 1_554 S
C985 C984 1.400 . S
C985 C986 1.398 1_545 S
C986 H974 0.950 . S
C986 C985 1.398 1_565 S
C986 C987 1.391 . S
C987 H975 0.950 . S
C987 C983 1.393 . S
C987 C986 1.391 . S
H988 C996 0.950 . S
H989 C1001 0.950 . S
H990 C998 0.950 1_545 S
H991 C1000 0.962 . S
H992 C1002 0.977 . S
H993 C1004 0.950 . S
H994 C1006 0.950 1_556 S
H995 C1007 0.950 . S
C996 H988 0.950 . S
C996 C997 1.386 . S
C996 C998 1.391 . S
C997 C996 1.386 . S
C997 C1001 1.393 . S
C998 H990 0.950 1_565 S
C998 C996 1.391 . S
C998 C999 1.400 . S
C999 C998 1.400 . S
C999 C1000 1.398 . S
C999 C1005 1.491 1_556 S
C1000 H991 0.962 . S
C1000 C999 1.398 . S
C1000 C1001 1.391 . S
C1001 H989 0.950 . S
C1001 C997 1.393 . S
C1001 C1000 1.391 . S
C1002 H992 0.977 . S
C1002 C1003 1.327 1_565 S
C1002 C1004 1.424 . S
C1003 C1002 1.327 1_545 S
C1003 C1007 1.393 . S
C1004 H993 0.950 . S
C1004 C1002 1.424 . S
C1004 C1005 1.400 . S
C1005 C999 1.491 1_554 S
C1005 C1004 1.400 . S
C1005 C1006 1.398 1_565 S
C1006 H994 0.950 1_554 S
C1006 C1005 1.398 1_545 S
C1006 C1007 1.391 . S
C1007 H995 0.950 . S
C1007 C1003 1.393 . S
C1007 C1006 1.391 . S
H1008 C1016 0.950 . S
H1009 C1021 0.950 . S
H1010 C1018 0.950 . S
H1011 C1020 0.950 . S
H1012 C1022 0.950 . S
H1013 C1024 0.950 . S
H1014 C1026 0.950 . S
H1015 C1027 0.950 . S
C1016 H1008 0.950 . S
C1016 C1017 1.386 . S
C1016 C1018 1.391 . S
C1017 C1016 1.386 . S
C1017 C1021 1.393 . S
C1018 H1010 0.950 . S
C1018 C1016 1.391 . S
C1018 C1019 1.400 . S
C1019 C1018 1.400 . S
C1019 C1020 1.398 . S
C1019 C1025 1.491 . S
C1020 H1011 0.950 . S
C1020 C1019 1.398 . S
C1020 C1021 1.391 . S
C1021 H1009 0.950 . S
C1021 C1017 1.393 . S
C1021 C1020 1.391 . S
C1022 H1012 0.950 . S
C1022 C1023 1.386 . S
C1022 C1024 1.391 . S
C1023 C1022 1.386 . S
C1023 C1027 1.393 . S
C1024 H1013 0.950 . S
C1024 C1022 1.391 . S
C1024 C1025 1.400 . S
C1025 C1019 1.491 . S
C1025 C1024 1.400 . S
C1025 C1026 1.398 . S
C1026 H1014 0.950 . S
C1026 C1025 1.398 . S
C1026 C1027 1.391 . S
C1027 H1015 0.950 . S
C1027 C1023 1.393 . S
C1027 C1026 1.391 . S
H1028 C1036 0.950 . S
H1029 C1041 0.950 . S
H1030 C1038 0.950 . S
H1031 C1040 0.950 . S
H1032 C1042 0.950 . S
H1033 C1044 0.950 . S
H1034 C1046 0.950 . S
H1035 C1047 0.950 . S
C1036 H1028 0.950 . S
C1036 C1037 1.386 . S
C1036 C1038 1.391 . S
C1037 C1036 1.386 . S
C1037 C1041 1.393 . S
C1038 H1030 0.950 . S
C1038 C1036 1.391 . S
C1038 C1039 1.400 . S
C1039 C1038 1.400 . S
C1039 C1040 1.398 . S
C1039 C1045 1.491 . S
C1040 H1031 0.950 . S
C1040 C1039 1.398 . S
C1040 C1041 1.391 . S
C1041 H1029 0.950 . S
C1041 C1037 1.393 . S
C1041 C1040 1.391 . S
C1042 H1032 0.950 . S
C1042 C1043 1.386 . S
C1042 C1044 1.391 . S
C1043 C1042 1.386 . S
C1043 C1047 1.393 . S
C1044 H1033 0.950 . S
C1044 C1042 1.391 . S
C1044 C1045 1.400 . S
C1045 C1039 1.491 . S
C1045 C1044 1.400 . S
C1045 C1046 1.398 . S
C1046 H1034 0.950 . S
C1046 C1045 1.398 . S
C1046 C1047 1.391 . S
C1047 H1035 0.950 . S
C1047 C1043 1.393 . S
C1047 C1046 1.391 . S
H1048 C1056 0.950 . S
H1049 C1061 0.950 . S
H1050 C1058 0.950 . S
H1051 C1060 0.950 . S
H1052 C1062 0.950 . S
H1053 C1064 0.950 . S
H1054 C1066 0.950 . S
H1055 C1067 0.950 . S
C1056 H1048 0.950 . S
C1056 C1057 1.386 . S
C1056 C1058 1.391 . S
C1057 C1056 1.386 . S
C1057 C1061 1.393 . S
C1058 H1050 0.950 . S
C1058 C1056 1.391 . S
C1058 C1059 1.400 . S
C1059 C1058 1.400 . S
C1059 C1060 1.398 . S
C1059 C1065 1.491 1_554 S
C1060 H1051 0.950 . S
C1060 C1059 1.398 . S
C1060 C1061 1.391 . S
C1061 H1049 0.950 . S
C1061 C1057 1.393 . S
C1061 C1060 1.391 . S
C1062 H1052 0.950 . S
C1062 C1063 1.386 . S
C1062 C1064 1.391 . S
C1063 C1062 1.386 . S
C1063 C1067 1.393 . S
C1064 H1053 0.950 . S
C1064 C1062 1.391 . S
C1064 C1065 1.400 . S
C1065 C1059 1.491 1_556 S
C1065 C1064 1.400 . S
C1065 C1066 1.398 . S
C1066 H1054 0.950 . S
C1066 C1065 1.398 . S
C1066 C1067 1.391 . S
C1067 H1055 0.950 . S
C1067 C1063 1.393 . S
C1067 C1066 1.391 . S
H1068 C1076 0.950 . S
H1069 C1081 0.950 . S
H1070 C1078 0.950 . S
H1071 C1080 0.950 1_556 S
H1072 C1082 0.950 . S
H1073 C1084 0.950 . S
H1074 C1086 0.950 . S
H1075 C1087 0.950 . S
C1076 H1068 0.950 . S
C1076 C1077 1.386 . S
C1076 C1078 1.391 . S
C1077 C1076 1.386 . S
C1077 C1081 1.393 . S
C1078 H1070 0.950 . S
C1078 C1076 1.391 . S
C1078 C1079 1.400 . S
C1079 C1078 1.400 . S
C1079 C1080 1.398 . S
C1079 C1085 1.491 1_554 S
C1080 H1071 0.950 1_554 S
C1080 C1079 1.398 . S
C1080 C1081 1.391 . S
C1081 H1069 0.950 . S
C1081 C1077 1.393 . S
C1081 C1080 1.391 . S
C1082 H1072 0.950 . S
C1082 C1083 1.386 . S
C1082 C1084 1.391 . S
C1083 C1082 1.386 . S
C1083 C1087 1.393 . S
C1084 H1073 0.950 . S
C1084 C1082 1.391 . S
C1084 C1085 1.400 . S
C1085 C1079 1.491 1_556 S
C1085 C1084 1.400 . S
C1085 C1086 1.398 . S
C1086 H1074 0.950 . S
C1086 C1085 1.398 . S
C1086 C1087 1.391 . S
C1087 H1075 0.950 . S
C1087 C1083 1.393 . S
C1087 C1086 1.391 . S
H1088 C1096 0.950 . S
H1089 C1101 0.950 . S
H1090 C1098 0.950 . S
H1091 C1100 0.950 . S
H1092 C1102 0.950 . S
H1093 C1104 0.950 . S
H1094 C1106 0.950 . S
H1095 C1107 0.950 . S
C1096 H1088 0.950 . S
C1096 C1097 1.386 . S
C1096 C1098 1.391 . S
C1097 C1096 1.386 . S
C1097 C1101 1.393 . S
C1098 H1090 0.950 . S
C1098 C1096 1.391 . S
C1098 C1099 1.400 . S
C1099 C1098 1.400 . S
C1099 C1100 1.398 . S
C1099 C1105 1.491 . S
C1100 H1091 0.950 . S
C1100 C1099 1.398 . S
C1100 C1101 1.391 . S
C1101 H1089 0.950 . S
C1101 C1097 1.393 . S
C1101 C1100 1.391 . S
C1102 H1092 0.950 . S
C1102 C1103 1.386 . S
C1102 C1104 1.391 . S
C1103 C1102 1.386 . S
C1103 C1107 1.393 . S
C1104 H1093 0.950 . S
C1104 C1102 1.391 . S
C1104 C1105 1.400 . S
C1105 C1099 1.491 . S
C1105 C1104 1.400 . S
C1105 C1106 1.398 . S
C1106 H1094 0.950 . S
C1106 C1105 1.398 . S
C1106 C1107 1.391 . S
C1107 H1095 0.950 . S
C1107 C1103 1.393 . S
C1107 C1106 1.391 . S
H1108 C1116 0.950 . S
H1109 C1121 0.950 . S
H1110 C1118 0.950 . S
H1111 C1120 0.950 . S
H1112 C1122 0.950 . S
H1113 C1124 0.950 . S
H1114 C1126 0.950 . S
H1115 C1127 0.950 . S
C1116 H1108 0.950 . S
C1116 C1117 1.386 . S
C1116 C1118 1.391 . S
C1117 C1116 1.386 . S
C1117 C1121 1.393 . S
C1118 H1110 0.950 . S
C1118 C1116 1.391 . S
C1118 C1119 1.400 . S
C1119 C1118 1.400 . S
C1119 C1120 1.398 . S
C1119 C1125 1.491 . S
C1120 H1111 0.950 . S
C1120 C1119 1.398 . S
C1120 C1121 1.391 . S
C1121 H1109 0.950 . S
C1121 C1117 1.393 . S
C1121 C1120 1.391 . S
C1122 H1112 0.950 . S
C1122 C1123 1.386 . S
C1122 C1124 1.391 . S
C1123 C1122 1.386 . S
C1123 C1127 1.393 . S
C1124 H1113 0.950 . S
C1124 C1122 1.391 . S
C1124 C1125 1.400 . S
C1125 C1119 1.491 . S
C1125 C1124 1.400 . S
C1125 C1126 1.398 . S
C1126 H1114 0.950 . S
C1126 C1125 1.398 . S
C1126 C1127 1.391 . S
C1127 H1115 0.950 . S
C1127 C1123 1.393 . S
C1127 C1126 1.391 . S
H1128 C1136 0.950 . S
H1129 C1141 0.950 . S
H1130 C1138 0.950 . S
H1131 C1140 0.950 . S
H1132 C1142 0.950 . S
H1133 C1144 0.950 . S
H1134 C1146 0.950 1_565 S
H1135 C1147 0.950 . S
C1136 H1128 0.950 . S
C1136 C1137 1.386 . S
C1136 C1138 1.391 . S
C1137 C1136 1.386 . S
C1137 C1141 1.393 1_565 S
C1138 H1130 0.950 . S
C1138 C1136 1.391 . S
C1138 C1139 1.400 1_565 S
C1139 C1138 1.400 1_545 S
C1139 C1140 1.398 . S
C1139 C1145 1.491 . S
C1140 H1131 0.950 . S
C1140 C1139 1.398 . S
C1140 C1141 1.391 . S
C1141 H1129 0.950 . S
C1141 C1137 1.393 1_545 S
C1141 C1140 1.391 . S
C1142 H1132 0.950 . S
C1142 C1143 1.386 . S
C1142 C1144 1.391 . S
C1143 C1142 1.386 . S
C1143 C1147 1.393 . S
C1144 H1133 0.950 . S
C1144 C1142 1.391 . S
C1144 C1145 1.400 . S
C1145 C1139 1.491 . S
C1145 C1144 1.400 . S
C1145 C1146 1.398 . S
C1146 H1134 0.950 1_545 S
C1146 C1145 1.398 . S
C1146 C1147 1.391 . S
C1147 H1135 0.950 . S
C1147 C1143 1.393 . S
C1147 C1146 1.391 . S
H1148 C1156 0.950 . S
H1149 C1161 0.950 . S
H1150 C1158 0.950 . S
H1151 C1160 0.950 . S
H1152 C1162 0.950 . S
H1153 C1164 0.950 . S
H1154 C1166 0.950 . S
H1155 C1167 0.950 . S
C1156 H1148 0.950 . S
C1156 C1157 1.386 . S
C1156 C1158 1.391 . S
C1157 C1156 1.386 . S
C1157 C1161 1.393 . S
C1158 H1150 0.950 . S
C1158 C1156 1.391 . S
C1158 C1159 1.400 1_545 S
C1159 C1158 1.400 1_565 S
C1159 C1160 1.398 . S
C1159 C1165 1.491 . S
C1160 H1151 0.950 . S
C1160 C1159 1.398 . S
C1160 C1161 1.391 1_565 S
C1161 H1149 0.950 . S
C1161 C1157 1.393 . S
C1161 C1160 1.391 1_545 S
C1162 H1152 0.950 . S
C1162 C1163 1.386 . S
C1162 C1164 1.391 . S
C1163 C1162 1.386 . S
C1163 C1167 1.393 . S
C1164 H1153 0.950 . S
C1164 C1162 1.391 . S
C1164 C1165 1.400 . S
C1165 C1159 1.491 . S
C1165 C1164 1.400 . S
C1165 C1166 1.398 . S
C1166 H1154 0.950 . S
C1166 C1165 1.398 . S
C1166 C1167 1.391 . S
C1167 H1155 0.950 . S
C1167 C1163 1.393 . S
C1167 C1166 1.391 . S
H1168 C1176 0.950 . S
H1169 C1181 0.950 . S
H1170 C1178 0.950 . S
H1171 C1180 0.950 . S
H1172 C1182 0.950 . S
H1173 C1184 0.950 . S
H1174 C1186 0.950 . S
H1175 C1187 0.950 . S
C1176 H1168 0.950 . S
C1176 C1177 1.386 . S
C1176 C1178 1.391 . S
C1177 C1176 1.386 . S
C1177 C1181 1.393 . S
C1178 H1170 0.950 . S
C1178 C1176 1.391 . S
C1178 C1179 1.400 . S
C1179 C1178 1.400 . S
C1179 C1180 1.398 . S
C1179 C1185 1.491 . S
C1180 H1171 0.950 . S
C1180 C1179 1.398 . S
C1180 C1181 1.391 . S
C1181 H1169 0.950 . S
C1181 C1177 1.393 . S
C1181 C1180 1.391 . S
C1182 H1172 0.950 . S
C1182 C1183 1.386 . S
C1182 C1184 1.391 . S
C1183 C1182 1.386 . S
C1183 C1187 1.393 . S
C1184 H1173 0.950 . S
C1184 C1182 1.391 . S
C1184 C1185 1.400 . S
C1185 C1179 1.491 . S
C1185 C1184 1.400 . S
C1185 C1186 1.398 . S
C1186 H1174 0.950 . S
C1186 C1185 1.398 . S
C1186 C1187 1.391 . S
C1187 H1175 0.950 . S
C1187 C1183 1.393 . S
C1187 C1186 1.391 . S
H1188 C1196 0.950 . S
H1189 C1201 0.950 . S
H1190 C1198 0.950 . S
H1191 C1200 0.950 . S
H1192 C1202 0.950 . S
H1193 C1204 0.950 . S
H1194 C1206 0.950 . S
H1195 C1207 0.950 . S
C1196 H1188 0.950 . S
C1196 C1197 1.386 1_554 S
C1196 C1198 1.391 . S
C1197 C1196 1.386 1_556 S
C1197 C1201 1.393 . S
C1198 H1190 0.950 . S
C1198 C1196 1.391 . S
C1198 C1199 1.400 1_554 S
C1199 C1198 1.400 1_556 S
C1199 C1200 1.398 . S
C1199 C1205 1.491 . S
C1200 H1191 0.950 . S
C1200 C1199 1.398 . S
C1200 C1201 1.391 . S
C1201 H1189 0.950 . S
C1201 C1197 1.393 . S
C1201 C1200 1.391 . S
C1202 H1192 0.950 . S
C1202 C1203 1.386 . S
C1202 C1204 1.391 . S
C1203 C1202 1.386 . S
C1203 C1207 1.393 1_556 S
C1204 H1193 0.950 . S
C1204 C1202 1.391 . S
C1204 C1205 1.400 . S
C1205 C1199 1.491 . S
C1205 C1204 1.400 . S
C1205 C1206 1.398 1_556 S
C1206 H1194 0.950 . S
C1206 C1205 1.398 1_554 S
C1206 C1207 1.391 . S
C1207 H1195 0.950 . S
C1207 C1203 1.393 1_554 S
C1207 C1206 1.391 . S
H1208 C1216 0.950 . S
H1209 C1221 0.950 . S
H1210 C1218 0.950 . S
H1211 C1220 0.950 . S
H1212 C1222 0.950 . S
H1213 C1224 0.950 . S
H1214 C1226 0.950 . S
H1215 C1227 0.950 . S
C1216 H1208 0.950 . S
C1216 C1217 1.386 . S
C1216 C1218 1.391 . S
C1217 C1216 1.386 . S
C1217 C1221 1.393 . S
C1218 H1210 0.950 . S
C1218 C1216 1.391 . S
C1218 C1219 1.400 . S
C1219 C1218 1.400 . S
C1219 C1220 1.398 . S
C1219 C1225 1.491 1_455 S
C1220 H1211 0.950 . S
C1220 C1219 1.398 . S
C1220 C1221 1.391 . S
C1221 H1209 0.950 . S
C1221 C1217 1.393 . S
C1221 C1220 1.391 . S
C1222 H1212 0.950 . S
C1222 C1223 1.386 . S
C1222 C1224 1.391 . S
C1223 C1222 1.386 . S
C1223 C1227 1.393 . S
C1224 H1213 0.950 . S
C1224 C1222 1.391 . S
C1224 C1225 1.400 . S
C1225 C1219 1.491 1_655 S
C1225 C1224 1.400 . S
C1225 C1226 1.398 . S
C1226 H1214 0.950 . S
C1226 C1225 1.398 . S
C1226 C1227 1.391 . S
C1227 H1215 0.950 . S
C1227 C1223 1.393 . S
C1227 C1226 1.391 . S
H1228 C1236 0.950 . S
H1229 C1241 0.950 . S
H1230 C1238 0.950 . S
H1231 C1240 0.950 . S
H1232 C1242 0.950 . S
H1233 C1244 0.950 . S
H1234 C1246 0.950 . S
H1235 C1247 0.950 . S
C1236 H1228 0.950 . S
C1236 C1237 1.386 . S
C1236 C1238 1.391 . S
C1237 C1236 1.386 . S
C1237 C1241 1.393 . S
C1238 H1230 0.950 . S
C1238 C1236 1.391 . S
C1238 C1239 1.400 . S
C1239 C1238 1.400 . S
C1239 C1240 1.398 . S
C1239 C1245 1.491 . S
C1240 H1231 0.950 . S
C1240 C1239 1.398 . S
C1240 C1241 1.391 . S
C1241 H1229 0.950 . S
C1241 C1237 1.393 . S
C1241 C1240 1.391 . S
C1242 H1232 0.950 . S
C1242 C1243 1.386 . S
C1242 C1244 1.391 . S
C1243 C1242 1.386 . S
C1243 C1247 1.393 . S
C1244 H1233 0.950 . S
C1244 C1242 1.391 . S
C1244 C1245 1.400 . S
C1245 C1239 1.491 . S
C1245 C1244 1.400 . S
C1245 C1246 1.398 . S
C1246 H1234 0.950 . S
C1246 C1245 1.398 . S
C1246 C1247 1.391 . S
C1247 H1235 0.950 . S
C1247 C1243 1.393 . S
C1247 C1246 1.391 . S
H1248 C1256 0.950 . S
H1249 C1261 0.950 . S
H1250 C1258 0.950 . S
H1251 C1260 0.950 . S
H1252 C1262 0.950 . S
H1253 C1264 0.950 . S
H1254 C1266 0.950 . S
H1255 C1267 0.950 . S
C1256 H1248 0.950 . S
C1256 C1257 1.386 . S
C1256 C1258 1.391 . S
C1257 C1256 1.386 . S
C1257 C1261 1.393 . S
C1258 H1250 0.950 . S
C1258 C1256 1.391 . S
C1258 C1259 1.400 . S
C1259 C1258 1.400 . S
C1259 C1260 1.398 . S
C1259 C1265 1.491 . S
C1260 H1251 0.950 . S
C1260 C1259 1.398 . S
C1260 C1261 1.391 . S
C1261 H1249 0.950 . S
C1261 C1257 1.393 . S
C1261 C1260 1.391 . S
C1262 H1252 0.950 . S
C1262 C1263 1.386 . S
C1262 C1264 1.391 . S
C1263 C1262 1.386 . S
C1263 C1267 1.393 . S
C1264 H1253 0.950 . S
C1264 C1262 1.391 . S
C1264 C1265 1.400 . S
C1265 C1259 1.491 . S
C1265 C1264 1.400 . S
C1265 C1266 1.398 . S
C1266 H1254 0.950 . S
C1266 C1265 1.398 . S
C1266 C1267 1.391 . S
C1267 H1255 0.950 . S
C1267 C1263 1.393 . S
C1267 C1266 1.391 . S
H1268 C1276 0.950 1_565 S
H1269 C1281 0.950 . S
H1270 C1278 0.950 . S
H1271 C1280 0.950 . S
H1272 C1282 0.950 1_545 S
H1273 C1284 0.950 . S
H1274 C1286 0.950 . S
H1275 C1287 0.950 . S
C1276 H1268 0.950 1_545 S
C1276 C1277 1.386 . S
C1276 C1278 1.391 1_545 S
C1277 C1276 1.386 . S
C1277 C1281 1.393 . S
C1278 H1270 0.950 . S
C1278 C1276 1.391 1_565 S
C1278 C1279 1.400 1_565 S
C1279 C1278 1.400 1_545 S
C1279 C1280 1.398 . S
C1279 C1285 1.491 1_445 S
C1280 H1271 0.950 . S
C1280 C1279 1.398 . S
C1280 C1281 1.391 . S
C1281 H1269 0.950 . S
C1281 C1277 1.393 . S
C1281 C1280 1.391 . S
C1282 H1272 0.950 1_565 S
C1282 C1283 1.386 . S
C1282 C1284 1.391 1_565 S
C1283 C1282 1.386 . S
C1283 C1287 1.393 . S
C1284 H1273 0.950 . S
C1284 C1282 1.391 1_545 S
C1284 C1285 1.400 1_545 S
C1285 C1279 1.491 1_665 S
C1285 C1284 1.400 1_565 S
C1285 C1286 1.398 . S
C1286 H1274 0.950 . S
C1286 C1285 1.398 . S
C1286 C1287 1.391 . S
C1287 H1275 0.950 . S
C1287 C1283 1.393 . S
C1287 C1286 1.391 . S
H1288 C1296 0.950 . S
H1289 C1301 0.950 . S
H1290 C1298 0.950 . S
H1291 C1300 0.950 . S
H1292 C1302 0.950 . S
H1293 C1304 0.950 . S
H1294 C1306 0.950 . S
H1295 C1307 0.950 . S
C1296 H1288 0.950 . S
C1296 C1297 1.386 . S
C1296 C1298 1.391 . S
C1297 C1296 1.386 . S
C1297 C1301 1.393 . S
C1298 H1290 0.950 . S
C1298 C1296 1.391 . S
C1298 C1299 1.400 . S
C1299 C1298 1.400 . S
C1299 C1300 1.398 . S
C1299 C1305 1.491 . S
C1300 H1291 0.950 . S
C1300 C1299 1.398 . S
C1300 C1301 1.391 . S
C1301 H1289 0.950 . S
C1301 C1297 1.393 . S
C1301 C1300 1.391 . S
C1302 H1292 0.950 . S
C1302 C1303 1.386 . S
C1302 C1304 1.391 . S
C1303 C1302 1.386 . S
C1303 C1307 1.393 . S
C1304 H1293 0.950 . S
C1304 C1302 1.391 . S
C1304 C1305 1.400 . S
C1305 C1299 1.491 . S
C1305 C1304 1.400 . S
C1305 C1306 1.398 . S
C1306 H1294 0.950 . S
C1306 C1305 1.398 . S
C1306 C1307 1.391 . S
C1307 H1295 0.950 . S
C1307 C1303 1.393 . S
C1307 C1306 1.391 . S
H1308 C1316 0.950 . S
H1309 C1321 0.950 . S
H1310 C1318 0.950 . S
H1311 C1320 0.950 . S
H1312 C1322 0.950 . S
H1313 C1324 0.950 . S
H1314 C1326 0.950 . S
H1315 C1327 0.950 . S
C1316 H1308 0.950 . S
C1316 C1317 1.386 1_545 S
C1316 C1318 1.391 . S
C1317 C1316 1.386 1_565 S
C1317 C1321 1.393 . S
C1318 H1310 0.950 . S
C1318 C1316 1.391 . S
C1318 C1319 1.400 1_545 S
C1319 C1318 1.400 1_565 S
C1319 C1320 1.398 . S
C1319 C1325 1.491 1_565 S
C1320 H1311 0.950 . S
C1320 C1319 1.398 . S
C1320 C1321 1.391 . S
C1321 H1309 0.950 . S
C1321 C1317 1.393 . S
C1321 C1320 1.391 . S
C1322 H1312 0.950 . S
C1322 C1323 1.386 1_565 S
C1322 C1324 1.391 . S
C1323 C1322 1.386 1_545 S
C1323 C1327 1.393 . S
C1324 H1313 0.950 . S
C1324 C1322 1.391 . S
C1324 C1325 1.400 1_565 S
C1325 C1319 1.491 1_545 S
C1325 C1324 1.400 1_545 S
C1325 C1326 1.398 . S
C1326 H1314 0.950 . S
C1326 C1325 1.398 . S
C1326 C1327 1.391 . S
C1327 H1315 0.950 . S
C1327 C1323 1.393 . S
C1327 C1326 1.391 . S
C537 C28 1.742 . S
C543 N377 1.735 . S
C557 C61 1.735 . S
C563 N344 1.748 . S
C577 N47 1.745 . S
C583 C94 1.731 . S
C597 N14 1.748 . S
C603 C127 1.738 . S
C617 C160 1.745 . S
C623 N509 1.742 . S
C637 C193 1.745 . S
C643 N476 1.738 . S
C657 N179 1.746 . S
C663 C226 1.743 . S
C677 C259 1.731 . S
C683 N146 1.743 . S
C697 N113 1.735 . S
C703 C292 1.742 . S
C717 N80 1.743 . S
C723 C325 1.745 . S
C737 N311 1.739 . S
C743 C358 1.730 . S
C757 N278 1.735 . S
C763 C391 1.733 . S
C777 C424 1.743 . S
C783 N245 1.747 . S
C797 C457 1.744 . S
C803 N212 1.745 . S
C817 C490 1.732 . S
C823 N443 1.736 . S
C837 N410 1.744 . S
C843 C523 1.731 . S
C857 C182 1.151 . S
C863 C8 1.134 . S
C877 C149 1.144 . S
C883 C41 1.141 . S
C897 C74 1.141 . S
C903 C380 1.143 . S
C917 C347 1.141 . S
C923 C107 1.138 . S
C937 C50 1.150 . S
C943 C140 1.138 . S
C957 C17 1.151 . S
C963 C173 1.132 . S
C977 C206 1.119 . S
C983 C512 1.145 . S
C997 C239 1.124 . S
C1003 C479 1.149 . S
C1017 C272 1.118 . S
C1023 C446 1.141 . S
C1037 C413 1.145 . S
C1043 C305 1.143 . S
C1057 C116 1.142 . S
C1063 C338 1.118 . S
C1077 C83 1.144 . S
C1083 C371 1.142 . S
C1097 C314 1.143 . S
C1103 C404 1.141 . S
C1117 C281 1.145 . S
C1123 C437 1.118 . S
C1137 C248 1.147 . S
C1143 C470 1.120 . S
C1157 C215 1.151 . S
C1163 C503 1.134 . S
C1177 N434 1.439 . S
C1183 N5 1.414 . S
C1197 N38 1.423 . S
C1203 N401 1.434 . S
C1217 N71 1.416 . S
C1223 N104 1.435 . S
C1237 N302 1.428 . S
C1243 N137 1.421 . S
C1257 N170 1.427 . S
C1263 N269 1.430 . S
C1277 N203 1.419 . S
C1283 N236 1.437 . S
C1297 N368 1.428 . S
C1303 N335 1.429 . S
C1317 N500 1.414 . S
C1323 N467 1.439 . S
