# Generated by pormake.
# Topology tfs, (6)-cn, num edge types: 1
# Building blocks:
#     Node 0, Type 0, BuildingBlock: MIFKUJ_clean_sbu_0, # of connection points: 6
#     Node 1, Type 0, BuildingBlock: MIFKUJ_clean_sbu_0, # of connection points: 6
#     Node 2, Type 0, BuildingBlock: MIFKUJ_clean_sbu_0, # of connection points: 6
#     Node 3, Type 0, BuildingBlock: MIFKUJ_clean_sbu_0, # of connection points: 6
#     Node 4, Type 0, BuildingBlock: MIFKUJ_clean_sbu_0, # of connection points: 6
#     Node 5, Type 0, BuildingBlock: MIFKUJ_clean_sbu_0, # of connection points: 6
#     Edge 6, Type (0, 0), BuildingBlock: EZIPEK_clean_linker_0, # of connection points: 2
#     Edge 7, Type (0, 0), BuildingBlock: EZIPEK_clean_linker_0, # of connection points: 2
#     Edge 8, Type (0, 0), BuildingBlock: EZIPEK_clean_linker_0, # of connection points: 2
#     Edge 9, Type (0, 0), BuildingBlock: EZIPEK_clean_linker_0, # of connection points: 2
#     Edge 10, Type (0, 0), BuildingBlock: EZIPEK_clean_linker_0, # of connection points: 2
#     Edge 11, Type (0, 0), BuildingBlock: EZIPEK_clean_linker_0, # of connection points: 2
#     Edge 12, Type (0, 0), BuildingBlock: EZIPEK_clean_linker_0, # of connection points: 2
#     Edge 13, Type (0, 0), BuildingBlock: EZIPEK_clean_linker_0, # of connection points: 2
#     Edge 14, Type (0, 0), BuildingBlock: EZIPEK_clean_linker_0, # of connection points: 2
#     Edge 15, Type (0, 0), BuildingBlock: EZIPEK_clean_linker_0, # of connection points: 2
#     Edge 16, Type (0, 0), BuildingBlock: EZIPEK_clean_linker_0, # of connection points: 2
#     Edge 17, Type (0, 0), BuildingBlock: EZIPEK_clean_linker_0, # of connection points: 2
#     Edge 18, Type (0, 0), BuildingBlock: EZIPEK_clean_linker_0, # of connection points: 2
#     Edge 19, Type (0, 0), BuildingBlock: EZIPEK_clean_linker_0, # of connection points: 2
#     Edge 20, Type (0, 0), BuildingBlock: EZIPEK_clean_linker_0, # of connection points: 2
#     Edge 21, Type (0, 0), BuildingBlock: EZIPEK_clean_linker_0, # of connection points: 2
#     Edge 22, Type (0, 0), BuildingBlock: EZIPEK_clean_linker_0, # of connection points: 2
#     Edge 23, Type (0, 0), BuildingBlock: EZIPEK_clean_linker_0, # of connection points: 2
# Relax obj value: 0.442
# Max RMSD: 0.248
# Mean RMSD: 0.248
data_MOF--net-tfs--node1-MIFKUJ_clean_sbu_0--edge1-EZIPEK_clean_linker_0
_symmetry_space_group_name_H-M    P1
_symmetry_Int_Tables_number       1
_symmetry_cell_setting            triclinic
loop_
_symmetry_equiv_pos_as_xyz
'x, y, z'
_cell_length_a     36.968368
_cell_length_b     36.878226
_cell_length_c     10.041116
_cell_angle_alpha  89.702431
_cell_angle_beta   90.124206
_cell_angle_gamma 119.68019
loop_
_atom_site_label
_atom_site_type_symbol
_atom_site_fract_x
_atom_site_fract_y
_atom_site_fract_z
_atom_type_partial_charge
Zn0 Zn 0.24917 0.47663 0.93217 0.0
Zn1 Zn 0.17981 0.34309 0.98039 0.0
C2 C 0.33299 0.54307 0.94168 0.0
O3 O 0.31676 0.55465 0.0374 0.0
C4 C 0.09348 0.27721 0.98272 0.0
O5 O 0.10672 0.25818 0.90274 0.0
O6 O 0.21941 0.50985 0.9112 0.0
O7 O 0.21932 0.42218 0.83467 0.0
O8 O 0.18404 0.35662 0.78155 0.0
C9 C 0.23605 0.5455 0.85576 0.0
O10 O 0.27082 0.55876 0.78888 0.0
O11 O 0.30986 0.50954 0.87893 0.0
C12 C 0.20588 0.28602 0.10261 0.0
O13 O 0.18609 0.28601 0.21111 0.0
O14 O 0.20679 0.30744 0.002 0.0
O15 O 0.20956 0.39653 0.09022 0.0
O16 O 0.24617 0.46362 0.13026 0.0
O17 O 0.11917 0.31262 0.0305 0.0
C18 C 0.20433 0.39453 0.74471 0.0
C19 C 0.2261 0.42631 0.17373 0.0
Zn20 Zn 0.74685 0.21859 0.03474 0.0
Zn21 Zn 0.83513 0.1996 0.02408 0.0
C22 C 0.76603 0.30289 0.06805 0.0
O23 O 0.74958 0.28774 0.18519 0.0
C24 C 0.80653 0.11004 0.01235 0.0
O25 O 0.8462 0.12245 -0.00387 0.0
O26 O 0.6864 0.20208 0.05947 0.0
O27 O 0.75309 0.18846 0.88096 0.0
O28 O 0.82068 0.23009 0.89206 0.0
C29 C 0.66131 0.19059 0.96168 0.0
O30 O 0.67267 0.18255 0.84674 0.0
O31 O 0.77215 0.27992 0.98788 0.0
C32 C 0.91787 0.21337 0.08054 0.0
O33 O 0.90321 0.20258 0.20205 0.0
O34 O 0.89421 0.21308 0.98793 0.0
O35 O 0.83312 0.21818 0.20242 0.0
O36 O 0.77012 0.21278 0.20666 0.0
O37 O 0.79466 0.13693 0.02281 0.0
C38 C 0.7886 0.20598 0.82635 0.0
C39 C 0.802 0.21537 0.26392 0.0
Zn40 Zn 0.54502 0.75721 -0.00457 0.0
Zn41 Zn 0.66545 0.84536 0.03438 0.0
C42 C 0.47243 0.76276 0.9801 0.0
O43 O 0.46383 0.7359 0.07787 0.0
C44 C 0.72501 0.81974 0.1092 0.0
O45 O 0.73752 0.85107 0.19238 0.0
O46 O 0.51075 0.69467 -0.00933 0.0
O47 O 0.59608 0.77492 0.88715 0.0
O48 O 0.63862 0.84147 0.85854 0.0
C49 C 0.4959 0.6766 0.88039 0.0
O50 O 0.50436 0.70026 0.77381 0.0
O51 O 0.50781 0.77857 0.92365 0.0
C52 C 0.69269 0.93192 0.04617 0.0
O53 O 0.65262 0.91717 0.02769 0.0
O54 O 0.70655 0.90665 0.05824 0.0
O55 O 0.62639 0.82347 0.1912 0.0
O56 O 0.55913 0.77446 0.18552 0.0
O57 O 0.69528 0.81183 0.02934 0.0
C58 C 0.6091 0.80743 0.81596 0.0
C59 C 0.59149 0.8007 0.24794 0.0
Zn60 Zn 0.7615 0.52347 0.96481 0.0
Zn61 Zn 0.82681 0.6576 0.00523 0.0
C62 C 0.67184 0.48943 0.87818 0.0
O63 O 0.67643 0.52698 0.86699 0.0
C64 C 0.91157 0.72584 0.04801 0.0
O65 O 0.8969 0.74948 0.00292 0.0
O66 O 0.78918 0.48783 0.95921 0.0
O67 O 0.78798 0.57547 0.84444 0.0
O68 O 0.82246 0.64343 0.80809 0.0
C69 C 0.77454 0.45617 0.88346 0.0
O70 O 0.74782 0.45223 0.79044 0.0
O71 O 0.70212 0.48467 0.91463 0.0
C72 C 0.80508 0.71823 0.12302 0.0
O73 O 0.83121 0.72304 0.21921 0.0
O74 O 0.79877 0.6926 0.02967 0.0
O75 O 0.79675 0.60294 0.10127 0.0
O76 O 0.76312 0.53786 0.16107 0.0
O77 O 0.88744 0.68673 0.05936 0.0
C78 C 0.8036 0.60625 0.76332 0.0
C79 C 0.78216 0.57598 0.19393 0.0
Zn80 Zn 0.25432 0.77357 0.98088 0.0
Zn81 Zn 0.17002 0.8112 0.02824 0.0
C82 C 0.22906 0.69008 0.9723 0.0
O83 O 0.25554 0.70447 0.07196 0.0
C84 C 0.1896 0.89534 0.95621 0.0
O85 O 0.16354 0.8769 0.85764 0.0
O86 O 0.31433 0.78665 0.96968 0.0
O87 O 0.24522 0.81457 0.8782 0.0
O88 O 0.17937 0.79527 0.84762 0.0
C89 C 0.3294 0.78041 0.86423 0.0
O90 O 0.30731 0.76973 0.75413 0.0
O91 O 0.21979 0.71486 0.91319 0.0
C92 C 0.08829 0.79339 0.13618 0.0
O93 O 0.10886 0.81694 0.23777 0.0
O94 O 0.10779 0.78684 0.04381 0.0
O95 O 0.1934 0.79443 0.18316 0.0
O96 O 0.24127 0.77428 0.17297 0.0
O97 O 0.19725 0.87364 0.03801 0.0
C98 C 0.21349 0.80004 0.80345 0.0
C99 C 0.21661 0.78224 0.23806 0.0
Zn100 Zn 0.46372 0.24757 0.93189 0.0
Zn101 Zn 0.34281 0.15874 0.9792 0.0
C102 C 0.52574 0.22562 0.01832 0.0
O103 O 0.52516 0.24402 0.12928 0.0
C104 C 0.28091 0.18405 -0.00304 0.0
O105 O 0.26657 0.16072 0.89026 0.0
O106 O 0.50126 0.30965 0.91215 0.0
O107 O 0.4232 0.22369 0.77713 0.0
O108 O 0.35571 0.17548 0.78719 0.0
C109 C 0.52591 0.3276 0.81529 0.0
O110 O 0.52431 0.30583 0.71013 0.0
O111 O 0.50099 0.22179 0.92434 0.0
C112 C 0.27286 0.07431 0.03255 0.0
O113 O 0.25583 0.09263 0.09867 0.0
O114 O 0.3085 0.0961 0.98001 0.0
O115 O 0.39531 0.17476 0.07661 0.0
O116 O 0.43934 0.24029 0.11423 0.0
O117 O 0.3126 0.18688 0.05638 0.0
C118 C 0.38805 0.20073 0.72194 0.0
C119 C 0.40978 0.20576 0.15426 0.0
C120 C 0.22057 0.19091 0.07978 0.0
C121 C 0.2628 0.21019 0.03863 0.0
C122 C 0.2693 0.27915 0.06786 0.0
C123 C 0.22588 0.2598 0.09294 0.0
N124 N 0.15881 0.19721 0.10676 0.0
N125 N 0.32617 0.27254 0.97523 0.0
C126 C 0.20115 0.21563 0.09598 0.0
C127 C 0.28704 0.25433 0.029 0.0
N128 N 0.19923 0.14902 0.10588 0.0
N129 N 0.29375 0.3213 0.08322 0.0
H130 H 0.34029 0.25566 0.94339 0.0
H131 H 0.34339 0.30414 0.95128 0.0
H132 H 0.28175 0.34052 0.10975 0.0
H133 H 0.32615 0.33665 0.0814 0.0
H134 H 0.16993 0.13388 0.15024 0.0
H135 H 0.21235 0.12992 0.09398 0.0
H136 H 0.13873 0.1654 0.09338 0.0
H137 H 0.14328 0.21408 0.11861 0.0
C138 C 0.02924 0.28342 0.9634 0.0
C139 C 0.04827 0.25998 0.00496 0.0
C140 C 0.98058 0.20363 0.08195 0.0
C141 C 0.96264 0.22911 0.0538 0.0
N142 N 0.97201 0.29676 -0.00666 0.0
N143 N 0.04373 0.20052 0.12147 0.0
C144 C 0.98751 0.26997 0.00127 0.0
C145 C 0.02438 0.22073 0.06884 0.0
N146 N 0.05047 0.31773 0.88342 0.0
N147 N 0.95563 0.16269 0.1167 0.0
H148 H 0.07574 0.21219 0.11429 0.0
H149 H 0.02869 0.17412 0.18189 0.0
H150 H 0.92341 0.14893 0.12629 0.0
H151 H 0.96634 0.14142 0.12451 0.0
H152 H 0.03658 0.33331 0.83861 0.0
H153 H 0.08082 0.32818 0.85059 0.0
H154 H 0.99027 0.32828 0.96937 0.0
H155 H 0.94201 0.28877 0.02375 0.0
C156 C 0.7776 0.04202 0.13676 0.0
C157 C 0.77614 0.06482 0.02419 0.0
C158 C 0.72266 0.99994 0.92234 0.0
C159 C 0.72174 0.97759 0.03908 0.0
N160 N 0.74316 0.97789 0.26616 0.0
N161 N 0.74237 0.06685 0.82045 0.0
C162 C 0.74794 0.99873 0.14867 0.0
C163 C 0.74698 0.04421 0.9206 0.0
N164 N 0.80731 0.06175 0.23246 0.0
N165 N 0.70215 0.97874 0.8102 0.0
H166 H 0.76032 0.09918 0.8131 0.0
H167 H 0.71838 0.05397 0.75079 0.0
H168 H 0.68507 0.94625 0.80547 0.0
H169 H 0.70542 0.99302 0.71785 0.0
H170 H 0.81334 0.04604 0.30805 0.0
H171 H 0.82776 0.09386 0.23247 0.0
H172 H 0.758 0.99246 0.35428 0.0
H173 H 0.72154 0.94632 0.27897 0.0
C174 C 0.78991 0.77001 0.00734 0.0
C175 C 0.78429 0.744 0.11947 0.0
C176 C 0.7411 0.76904 0.22728 0.0
C177 C 0.74469 0.79303 0.11163 0.0
N178 N 0.76786 0.8125 0.88463 0.0
N179 N 0.74944 0.71349 0.32686 0.0
C180 C 0.76746 0.7921 -0.00072 0.0
C181 C 0.7587 0.74228 0.22742 0.0
N182 N 0.81861 0.7756 0.91191 0.0
N183 N 0.72062 0.77161 0.33701 0.0
H184 H 0.76147 0.69324 0.33026 0.0
H185 H 0.72729 0.70715 0.40048 0.0
H186 H 0.70422 0.78786 0.3377 0.0
H187 H 0.72153 0.75943 0.42989 0.0
H188 H 0.82781 0.79783 0.83625 0.0
H189 H 0.83623 0.76067 0.91429 0.0
H190 H 0.77894 0.80833 0.79405 0.0
H191 H 0.75473 0.83176 0.87712 0.0
C192 C 0.02888 0.78866 0.00272 0.0
C193 C 0.04307 0.77812 0.1202 0.0
C194 C 0.97095 0.73809 0.19972 0.0
C195 C 0.95676 0.74409 0.07426 0.0
N196 N 0.97253 0.7677 0.84571 0.0
N197 N 0.0273 0.7381 0.32393 0.0
C198 C 0.98579 0.76741 0.97276 0.0
C199 C 0.01404 0.75167 0.21749 0.0
N200 N 0.0564 0.82021 0.92205 0.0
N201 N 0.94357 0.72072 0.30312 0.0
H202 H 0.0585 0.74709 0.33992 0.0
H203 H 0.00706 0.71523 0.39015 0.0
H204 H 0.91194 0.71105 0.29461 0.0
H205 H 0.9528 0.71948 0.40032 0.0
H206 H 0.04716 0.83178 0.84189 0.0
H207 H 0.08795 0.83803 0.94455 0.0
H208 H 0.99288 0.7807 0.76549 0.0
H209 H 0.94134 0.75114 0.81733 0.0
C210 C 0.20814 0.95755 0.10085 0.0
C211 C 0.20947 0.94115 0.97436 0.0
C212 C 0.24587 0.01202 0.88252 0.0
C213 C 0.24993 0.02848 0.01278 0.0
N214 N 0.24171 0.01625 0.25039 0.0
N215 N 0.23741 0.95367 0.75078 0.0
C216 C 0.23287 0.0011 0.12343 0.0
C217 C 0.23043 0.96859 0.86651 0.0
N218 N 0.18203 0.93191 0.19798 0.0
N219 N 0.25517 0.03748 0.77349 0.0
H220 H 0.22816 0.92229 0.73629 0.0
H221 H 0.25623 0.97307 0.67451 0.0
H222 H 0.26472 0.06917 0.78014 0.0
H223 H 0.24894 0.02621 0.67631 0.0
H224 H 0.17703 0.94302 0.28733 0.0
H225 H 0.16188 0.90013 0.18362 0.0
H226 H 0.23348 0.997 0.33423 0.0
H227 H 0.2609 0.04777 0.27189 0.0
C228 C 0.20415 0.61656 0.03202 0.0
C229 C 0.21329 0.64623 0.92954 0.0
C230 C 0.21709 0.59778 0.77154 0.0
C231 C 0.22005 0.57469 0.88035 0.0
N232 N 0.21868 0.56434 0.12027 0.0
N233 N 0.22494 0.66357 0.69453 0.0
C234 C 0.21307 0.5838 0.01234 0.0
C235 C 0.2176 0.63602 0.79621 0.0
N236 N 0.18811 0.62068 0.14968 0.0
N237 N 0.21375 0.58299 0.64499 0.0
H238 H 0.22351 0.69084 0.70509 0.0
H239 H 0.23426 0.66018 0.59978 0.0
H240 H 0.21255 0.55465 0.62506 0.0
H241 H 0.20782 0.59638 0.56221 0.0
H242 H 0.17763 0.59812 0.22479 0.0
H243 H 0.1811 0.64454 0.16485 0.0
H244 H 0.21842 0.57367 0.21788 0.0
H245 H 0.22745 0.54162 0.11438 0.0
C246 C 0.55975 0.18308 0.07827 0.0
C247 C 0.55865 0.21423 -0.00286 0.0
C248 C 0.6247 0.22942 0.89216 0.0
C249 C 0.62474 0.19691 0.96863 0.0
N250 N 0.59023 0.13884 0.11976 0.0
N251 N 0.58738 0.26403 0.81605 0.0
C252 C 0.59168 0.17266 0.0579 0.0
C253 C 0.59007 0.2361 0.89983 0.0
N254 N 0.53038 0.16368 0.17541 0.0
N255 N 0.65923 0.25612 0.81986 0.0
H256 H 0.56536 0.27353 0.82656 0.0
H257 H 0.60563 0.27621 0.73103 0.0
H258 H 0.68607 0.25367 0.81476 0.0
H259 H 0.66332 0.28347 0.7755 0.0
H260 H 0.53209 0.14448 0.24852 0.0
H261 H 0.505 0.16838 0.18741 0.0
H262 H 0.56505 0.11721 0.17584 0.0
H263 H 0.6131 0.13044 0.10653 0.0
C264 C 0.43534 0.61576 0.76636 0.0
C265 C 0.46123 0.63212 0.87957 0.0
C266 C 0.40717 0.57739 0.01833 0.0
C267 C 0.37823 0.56834 0.91284 0.0
N268 N 0.36503 0.57737 0.68204 0.0
N269 N 0.47961 0.61407 0.08913 0.0
C270 C 0.39249 0.58628 0.78452 0.0
C271 C 0.44955 0.60846 -0.00095 0.0
N272 N 0.45228 0.62639 0.64187 0.0
N273 N 0.39382 0.55685 0.13741 0.0
H274 H 0.51121 0.63336 0.06863 0.0
H275 H 0.47412 0.59641 0.17554 0.0
H276 H 0.36402 0.53138 0.15077 0.0
H277 H 0.41172 0.56547 0.22376 0.0
H278 H 0.43555 0.61309 0.55504 0.0
H279 H 0.48438 0.64382 0.62696 0.0
H280 H 0.37299 0.59397 0.59257 0.0
H281 H 0.33366 0.55503 0.68836 0.0
C282 C 0.73821 0.38775 0.00231 0.0
C283 C 0.77398 0.41796 0.93295 0.0
C284 C 0.80685 0.37468 0.96354 0.0
C285 C 0.76925 0.34265 0.02051 0.0
N286 N 0.69582 0.31539 0.06408 0.0
N287 N 0.84072 0.439 0.8339 0.0
C288 C 0.73403 0.34828 0.03191 0.0
C289 C 0.80792 0.4111 0.90954 0.0
N290 N 0.70853 0.39709 0.04345 0.0
N291 N 0.84189 0.37105 0.96589 0.0
H292 H 0.84273 0.46637 0.79619 0.0
H293 H 0.86438 0.4337 0.80093 0.0
H294 H 0.84242 0.34524 0.00649 0.0
H295 H 0.87119 0.39501 0.93799 0.0
H296 H 0.68425 0.37799 0.1074 0.0
H297 H 0.71038 0.42579 0.02526 0.0
H298 H 0.6684 0.31683 0.0588 0.0
H299 H 0.6904 0.28522 0.08093 0.0
C300 C 0.40635 0.81368 0.90595 0.0
C301 C 0.36808 0.77767 0.87329 0.0
C302 C 0.40261 0.73547 0.87562 0.0
C303 C 0.43898 0.76992 0.92767 0.0
N304 N 0.47592 0.84169 -0.00196 0.0
N305 N 0.32845 0.70303 0.83987 0.0
C306 C 0.44125 0.80923 0.94274 0.0
C307 C 0.36593 0.73828 0.85986 0.0
N308 N 0.40938 0.85212 0.89953 0.0
N309 N 0.40339 0.70018 0.83912 0.0
H310 H 0.30081 0.70351 0.82666 0.0
H311 H 0.32409 0.67293 0.84675 0.0
H312 H 0.42993 0.69728 0.84815 0.0
H313 H 0.37927 0.67554 0.78798 0.0
H314 H 0.43731 0.88003 0.90946 0.0
H315 H 0.38436 0.85624 0.87265 0.0
H316 H 0.47773 0.86968 0.02613 0.0
H317 H 0.50228 0.83977 0.02351 0.0
C318 C 0.60762 0.44116 0.74538 0.0
C319 C 0.63045 0.45145 0.8664 0.0
C320 C 0.58644 0.38042 0.9487 0.0
C321 C 0.56123 0.37067 0.83283 0.0
N322 N 0.54296 0.39441 0.63268 0.0
N323 N 0.63339 0.43469 0.09728 0.0
C324 C 0.57032 0.40188 0.7345 0.0
C325 C 0.61705 0.42229 0.97267 0.0
N326 N 0.62247 0.4678 0.63894 0.0
N327 N 0.58343 0.34951 0.03151 0.0
H328 H 0.65507 0.46561 0.11961 0.0
H329 H 0.622 0.41533 0.18075 0.0
H330 H 0.56375 0.31794 0.01309 0.0
H331 H 0.60408 0.35496 0.10967 0.0
H332 H 0.60965 0.45982 0.54388 0.0
H333 H 0.64952 0.4968 0.64312 0.0
H334 H 0.54598 0.41735 0.56546 0.0
H335 H 0.51517 0.36624 0.62274 0.0
C336 C 0.23501 0.39064 0.52553 0.0
C337 C 0.212 0.40512 0.60009 0.0
C338 C 0.19853 0.43359 0.39546 0.0
C339 C 0.22093 0.41848 0.32042 0.0
N340 N 0.25947 0.38178 0.30977 0.0
N341 N 0.17689 0.44532 0.61212 0.0
C342 C 0.23882 0.39668 0.38449 0.0
C343 C 0.19541 0.42824 0.53679 0.0
N344 N 0.25531 0.37334 0.59146 0.0
N345 N 0.17799 0.45073 0.33017 0.0
H346 H 0.17158 0.43989 0.71405 0.0
H347 H 0.16886 0.4669 0.5762 0.0
H348 H 0.17875 0.45445 0.22701 0.0
H349 H 0.15755 0.45853 0.37573 0.0
H350 H 0.27539 0.36491 0.54682 0.0
H351 H 0.25453 0.36984 0.69472 0.0
H352 H 0.26925 0.36149 0.34503 0.0
H353 H 0.26575 0.38861 0.2088 0.0
C354 C 0.80823 0.18519 0.61714 0.0
C355 C 0.7916 0.20761 0.68241 0.0
C356 C 0.79363 0.243 0.4765 0.0
C357 C 0.80241 0.21494 0.40807 0.0
N358 N 0.81067 0.15367 0.41047 0.0
N359 N 0.76212 0.2534 0.6708 0.0
C360 C 0.80787 0.18444 0.47715 0.0
C361 C 0.78215 0.23511 0.61117 0.0
N362 N 0.82503 0.16542 0.6879 0.0
N363 N 0.79804 0.278 0.41434 0.0
H364 H 0.75219 0.24758 0.76917 0.0
H365 H 0.75157 0.27085 0.61841 0.0
H366 H 0.80952 0.28606 0.31743 0.0
H367 H 0.79522 0.30125 0.46386 0.0
H368 H 0.84091 0.15192 0.64322 0.0
H369 H 0.82664 0.16609 0.79135 0.0
H370 H 0.81051 0.12851 0.45884 0.0
H371 H 0.809 0.15086 0.30714 0.0
C372 C 0.61626 0.78115 0.59488 0.0
C373 C 0.60152 0.80341 0.6715 0.0
C374 C 0.57853 0.82335 0.46867 0.0
C375 C 0.59115 0.79907 0.39398 0.0
N376 N 0.61361 0.74785 0.38543 0.0
N377 N 0.56471 0.84196 0.68685 0.0
C378 C 0.60724 0.77564 0.45716 0.0
C379 C 0.58139 0.8234 0.60996 0.0
N380 N 0.64123 0.76764 0.65159 0.0
N381 N 0.56511 0.84725 0.40407 0.0
H382 H 0.56762 0.84384 0.79029 0.0
H383 H 0.5458 0.85317 0.64967 0.0
H384 H 0.56142 0.8467 0.30088 0.0
H385 H 0.55976 0.86923 0.45116 0.0
H386 H 0.65672 0.75557 0.59688 0.0
H387 H 0.65002 0.77221 0.75149 0.0
H388 H 0.62099 0.72663 0.42897 0.0
H389 H 0.60792 0.74332 0.28335 0.0
C390 C 0.77342 0.61161 0.54337 0.0
C391 C 0.7986 0.59927 0.61673 0.0
C392 C 0.81798 0.57838 0.40858 0.0
C393 C 0.79021 0.58747 0.33704 0.0
N394 N 0.73797 0.60827 0.33565 0.0
N395 N 0.84177 0.5672 0.62244 0.0
C396 C 0.76723 0.60325 0.40406 0.0
C397 C 0.81991 0.58147 0.55019 0.0
N398 N 0.75524 0.63122 0.60703 0.0
N399 N 0.84365 0.5682 0.34014 0.0
H400 H 0.84595 0.57099 0.72518 0.0
H401 H 0.85364 0.54927 0.58229 0.0
H402 H 0.84334 0.56602 0.23653 0.0
H403 H 0.8677 0.56545 0.3841 0.0
H404 H 0.74099 0.64567 0.55747 0.0
H405 H 0.75616 0.63503 0.71002 0.0
H406 H 0.71627 0.61437 0.38102 0.0
H407 H 0.73358 0.60375 0.23312 0.0
C408 C 0.25047 0.82066 0.44473 0.0
C409 C 0.21933 0.78373 0.38389 0.0
C410 C 0.18912 0.75468 0.60145 0.0
C411 C 0.21707 0.7937 0.66034 0.0
N412 N 0.26899 0.86654 0.63408 0.0
N413 N 0.15753 0.71635 0.39867 0.0
C414 C 0.24674 0.82735 0.58147 0.0
C415 C 0.1883 0.7508 0.46072 0.0
N416 N 0.28337 0.84962 0.37142 0.0
N417 N 0.16399 0.72118 0.68016 0.0
H418 H 0.1573 0.71169 0.29616 0.0
H419 H 0.1311 0.69352 0.44717 0.0
H420 H 0.16313 0.72288 0.78357 0.0
H421 H 0.14639 0.69089 0.6444 0.0
H422 H 0.30934 0.87481 0.41382 0.0
H423 H 0.28654 0.84662 0.26952 0.0
H424 H 0.28746 0.89303 0.57699 0.0
H425 H 0.26585 0.87369 0.73211 0.0
C426 C 0.39292 0.16726 0.51352 0.0
C427 C 0.38688 0.19833 0.5753 0.0
C428 C 0.38643 0.22798 0.35697 0.0
C429 C 0.39838 0.20062 0.2972 0.0
N430 N 0.42045 0.14913 0.32334 0.0
N431 N 0.37991 0.25972 0.56028 0.0
C432 C 0.40307 0.17111 0.37618 0.0
C433 C 0.38399 0.22904 0.4982 0.0
N434 N 0.38948 0.13426 0.58642 0.0
N435 N 0.3766 0.25227 0.27845 0.0
H436 H 0.37617 0.2602 0.66315 0.0
H437 H 0.38253 0.28585 0.51116 0.0
H438 H 0.37811 0.25233 0.17475 0.0
H439 H 0.36362 0.26966 0.31493 0.0
H440 H 0.38881 0.10828 0.54347 0.0
H441 H 0.38355 0.13096 0.68853 0.0
H442 H 0.42908 0.13101 0.38054 0.0
H443 H 0.43036 0.15208 0.22492 0.0
loop_
_geom_bond_atom_site_label_1
_geom_bond_atom_site_label_2
_geom_bond_distance
_geom_bond_site_symmetry_2
_ccdc_geom_bond_type
Zn0 O6 1.969 . S
Zn0 O7 1.965 1_554 S
Zn0 O11 2.024 1_554 S
Zn0 O16 1.969 . S
Zn1 O8 1.969 . S
Zn1 O14 1.969 . S
Zn1 O15 1.965 1_556 S
Zn1 O17 2.024 1_556 S
C2 O3 1.229 . S
C2 O11 1.058 1_554 S
O3 C2 1.229 . S
C4 O5 1.229 . S
C4 O17 1.058 1_556 S
O5 C4 1.229 . S
O6 Zn0 1.969 . S
O6 C9 1.267 1_554 S
O7 Zn0 1.965 1_556 S
O7 C18 1.260 . S
O8 Zn1 1.969 . S
O8 C18 1.258 . S
C9 O6 1.267 1_556 S
C9 O10 1.228 . S
O10 C9 1.228 . S
O11 Zn0 2.024 1_556 S
O11 C2 1.058 1_556 S
C12 O13 1.228 . S
C12 O14 1.267 1_554 S
O13 C12 1.228 . S
O14 Zn1 1.969 . S
O14 C12 1.267 1_556 S
O15 Zn1 1.965 1_554 S
O15 C19 1.260 . S
O16 Zn0 1.969 . S
O16 C19 1.258 . S
O17 Zn1 2.024 1_554 S
O17 C4 1.058 1_554 S
C18 O7 1.260 . S
C18 O8 1.258 . S
C19 O15 1.260 . S
C19 O16 1.258 . S
Zn20 O26 1.969 . S
Zn20 O27 1.965 1_554 S
Zn20 O31 2.024 1_554 S
Zn20 O36 1.969 . S
Zn21 O28 1.969 . S
Zn21 O34 1.969 . S
Zn21 O35 1.965 1_556 S
Zn21 O37 2.024 1_556 S
C22 O23 1.229 . S
C22 O31 1.058 1_554 S
O23 C22 1.229 . S
C24 O25 1.229 . S
C24 O37 1.058 1_556 S
O25 C24 1.229 . S
O26 Zn20 1.969 . S
O26 C29 1.267 1_554 S
O27 Zn20 1.965 1_556 S
O27 C38 1.260 . S
O28 Zn21 1.969 . S
O28 C38 1.258 . S
C29 O26 1.267 1_556 S
C29 O30 1.228 . S
O30 C29 1.228 . S
O31 Zn20 2.024 1_556 S
O31 C22 1.058 1_556 S
C32 O33 1.228 . S
C32 O34 1.267 1_554 S
O33 C32 1.228 . S
O34 Zn21 1.969 . S
O34 C32 1.267 1_556 S
O35 Zn21 1.965 1_554 S
O35 C39 1.260 . S
O36 Zn20 1.969 . S
O36 C39 1.258 . S
O37 Zn21 2.024 1_554 S
O37 C24 1.058 1_554 S
C38 O27 1.260 . S
C38 O28 1.258 . S
C39 O35 1.260 . S
C39 O36 1.258 . S
Zn40 O46 1.969 . S
Zn40 O47 1.965 1_554 S
Zn40 O51 2.024 1_554 S
Zn40 O56 1.969 . S
Zn41 O48 1.969 . S
Zn41 O54 1.969 . S
Zn41 O55 1.965 1_556 S
Zn41 O57 2.024 1_556 S
C42 O43 1.229 . S
C42 O51 1.058 1_554 S
O43 C42 1.229 . S
C44 O45 1.229 . S
C44 O57 1.058 1_556 S
O45 C44 1.229 . S
O46 Zn40 1.969 . S
O46 C49 1.267 1_554 S
O47 Zn40 1.965 1_556 S
O47 C58 1.260 . S
O48 Zn41 1.969 . S
O48 C58 1.258 . S
C49 O46 1.267 1_556 S
C49 O50 1.228 . S
O50 C49 1.228 . S
O51 Zn40 2.024 1_556 S
O51 C42 1.058 1_556 S
C52 O53 1.228 . S
C52 O54 1.267 1_554 S
O53 C52 1.228 . S
O54 Zn41 1.969 . S
O54 C52 1.267 1_556 S
O55 Zn41 1.965 1_554 S
O55 C59 1.260 . S
O56 Zn40 1.969 . S
O56 C59 1.258 . S
O57 Zn41 2.024 1_554 S
O57 C44 1.058 1_554 S
C58 O47 1.260 . S
C58 O48 1.258 . S
C59 O55 1.260 . S
C59 O56 1.258 . S
Zn60 O66 1.969 . S
Zn60 O67 1.965 1_554 S
Zn60 O71 2.024 1_554 S
Zn60 O76 1.969 . S
Zn61 O68 1.969 . S
Zn61 O74 1.969 . S
Zn61 O75 1.965 1_556 S
Zn61 O77 2.024 1_556 S
C62 O63 1.229 . S
C62 O71 1.058 1_554 S
O63 C62 1.229 . S
C64 O65 1.229 . S
C64 O77 1.058 1_556 S
O65 C64 1.229 . S
O66 Zn60 1.969 . S
O66 C69 1.267 1_554 S
O67 Zn60 1.965 1_556 S
O67 C78 1.260 . S
O68 Zn61 1.969 . S
O68 C78 1.258 . S
C69 O66 1.267 1_556 S
C69 O70 1.228 . S
O70 C69 1.228 . S
O71 Zn60 2.024 1_556 S
O71 C62 1.058 1_556 S
C72 O73 1.228 . S
C72 O74 1.267 1_554 S
O73 C72 1.228 . S
O74 Zn61 1.969 . S
O74 C72 1.267 1_556 S
O75 Zn61 1.965 1_554 S
O75 C79 1.260 . S
O76 Zn60 1.969 . S
O76 C79 1.258 . S
O77 Zn61 2.024 1_554 S
O77 C64 1.058 1_554 S
C78 O67 1.260 . S
C78 O68 1.258 . S
C79 O75 1.260 . S
C79 O76 1.258 . S
Zn80 O86 1.969 . S
Zn80 O87 1.965 1_554 S
Zn80 O91 2.024 1_554 S
Zn80 O96 1.969 . S
Zn81 O88 1.969 . S
Zn81 O94 1.969 . S
Zn81 O95 1.965 1_556 S
Zn81 O97 2.024 1_556 S
C82 O83 1.229 . S
C82 O91 1.058 1_554 S
O83 C82 1.229 . S
C84 O85 1.229 . S
C84 O97 1.058 1_556 S
O85 C84 1.229 . S
O86 Zn80 1.969 . S
O86 C89 1.267 1_554 S
O87 Zn80 1.965 1_556 S
O87 C98 1.260 . S
O88 Zn81 1.969 . S
O88 C98 1.258 . S
C89 O86 1.267 1_556 S
C89 O90 1.228 . S
O90 C89 1.228 . S
O91 Zn80 2.024 1_556 S
O91 C82 1.058 1_556 S
C92 O93 1.228 . S
C92 O94 1.267 1_554 S
O93 C92 1.228 . S
O94 Zn81 1.969 . S
O94 C92 1.267 1_556 S
O95 Zn81 1.965 1_554 S
O95 C99 1.260 . S
O96 Zn80 1.969 . S
O96 C99 1.258 . S
O97 Zn81 2.024 1_554 S
O97 C84 1.058 1_554 S
C98 O87 1.260 . S
C98 O88 1.258 . S
C99 O95 1.260 . S
C99 O96 1.258 . S
Zn100 O106 1.969 . S
Zn100 O107 1.965 1_554 S
Zn100 O111 2.024 1_554 S
Zn100 O116 1.969 . S
Zn101 O108 1.969 . S
Zn101 O114 1.969 . S
Zn101 O115 1.965 1_556 S
Zn101 O117 2.024 1_556 S
C102 O103 1.229 . S
C102 O111 1.058 1_554 S
O103 C102 1.229 . S
C104 O105 1.229 . S
C104 O117 1.058 1_556 S
O105 C104 1.229 . S
O106 Zn100 1.969 . S
O106 C109 1.267 1_554 S
O107 Zn100 1.965 1_556 S
O107 C118 1.260 . S
O108 Zn101 1.969 . S
O108 C118 1.258 . S
C109 O106 1.267 1_556 S
C109 O110 1.228 . S
O110 C109 1.228 . S
O111 Zn100 2.024 1_556 S
O111 C102 1.058 1_556 S
C112 O113 1.228 . S
C112 O114 1.267 1_554 S
O113 C112 1.228 . S
O114 Zn101 1.969 . S
O114 C112 1.267 1_556 S
O115 Zn101 1.965 1_554 S
O115 C119 1.260 . S
O116 Zn100 1.969 . S
O116 C119 1.258 . S
O117 Zn101 2.024 1_554 S
O117 C104 1.058 1_554 S
C118 O107 1.260 . S
C118 O108 1.258 . S
C119 O115 1.260 . S
C119 O116 1.258 . S
C120 C121 1.363 . S
C120 C126 1.379 . S
C120 N128 1.356 . S
C121 C120 1.363 . S
C121 C127 1.363 . S
C122 C123 1.363 . S
C122 C127 1.379 . S
C122 N129 1.356 . S
C123 C122 1.363 . S
C123 C126 1.363 . S
N124 C126 1.356 . S
N124 H136 0.984 . S
N124 H137 0.985 . S
N125 C127 1.356 1_556 S
N125 H130 0.984 . S
N125 H131 0.985 . S
C126 C120 1.379 . S
C126 C123 1.363 . S
C126 N124 1.356 . S
C127 C121 1.363 . S
C127 C122 1.379 . S
C127 N125 1.356 1_554 S
N128 C120 1.356 . S
N128 H134 0.984 . S
N128 H135 0.984 . S
N129 C122 1.356 . S
N129 H132 0.984 . S
N129 H133 0.985 . S
H130 N125 0.984 . S
H131 N125 0.985 . S
H132 N129 0.984 . S
H133 N129 0.985 . S
H134 N128 0.984 . S
H135 N128 0.984 . S
H136 N124 0.984 . S
H137 N124 0.985 . S
C138 C139 1.363 1_556 S
C138 C144 1.379 1_455 S
C138 N146 1.356 . S
C139 C138 1.363 1_554 S
C139 C145 1.363 . S
C140 C141 1.363 . S
C140 C145 1.379 1_655 S
C140 N147 1.356 . S
C141 C140 1.363 . S
C141 C144 1.363 1_554 S
N142 C144 1.356 . S
N142 H154 0.984 . S
N142 H155 0.985 . S
N143 C145 1.356 . S
N143 H148 0.984 . S
N143 H149 0.985 . S
C144 C138 1.379 1_655 S
C144 C141 1.363 1_556 S
C144 N142 1.356 . S
C145 C139 1.363 . S
C145 C140 1.379 1_455 S
C145 N143 1.356 . S
N146 C138 1.356 . S
N146 H152 0.984 . S
N146 H153 0.984 . S
N147 C140 1.356 . S
N147 H150 0.984 . S
N147 H151 0.985 . S
H148 N143 0.984 . S
H149 N143 0.985 . S
H150 N147 0.984 . S
H151 N147 0.985 . S
H152 N146 0.984 . S
H153 N146 0.984 . S
H154 N142 0.984 . S
H155 N142 0.985 . S
C156 C157 1.363 . S
C156 C162 1.379 1_545 S
C156 N164 1.356 . S
C157 C156 1.363 . S
C157 C163 1.363 1_554 S
C158 C159 1.363 1_556 S
C158 C163 1.379 1_565 S
C158 N165 1.356 . S
C159 C158 1.363 1_554 S
C159 C162 1.363 . S
N160 C162 1.356 . S
N160 H172 0.984 . S
N160 H173 0.985 . S
N161 C163 1.356 . S
N161 H166 0.984 . S
N161 H167 0.985 . S
C162 C156 1.379 1_565 S
C162 C159 1.363 . S
C162 N160 1.356 . S
C163 C157 1.363 1_556 S
C163 C158 1.379 1_545 S
C163 N161 1.356 . S
N164 C156 1.356 . S
N164 H170 0.984 . S
N164 H171 0.984 . S
N165 C158 1.356 . S
N165 H168 0.984 . S
N165 H169 0.985 . S
H166 N161 0.984 . S
H167 N161 0.985 . S
H168 N165 0.984 . S
H169 N165 0.985 . S
H170 N164 0.984 . S
H171 N164 0.984 . S
H172 N160 0.984 . S
H173 N160 0.985 . S
C174 C175 1.363 1_556 S
C174 C180 1.379 . S
C174 N182 1.356 . S
C175 C174 1.363 1_554 S
C175 C181 1.363 . S
C176 C177 1.363 . S
C176 C181 1.379 . S
C176 N183 1.356 . S
C177 C176 1.363 . S
C177 C180 1.363 1_554 S
N178 C180 1.356 . S
N178 H190 0.984 . S
N178 H191 0.985 . S
N179 C181 1.356 . S
N179 H184 0.984 . S
N179 H185 0.985 . S
C180 C174 1.379 . S
C180 C177 1.363 1_556 S
C180 N178 1.356 . S
C181 C175 1.363 . S
C181 C176 1.379 . S
C181 N179 1.356 . S
N182 C174 1.356 . S
N182 H188 0.984 . S
N182 H189 0.984 . S
N183 C176 1.356 . S
N183 H186 0.984 . S
N183 H187 0.985 . S
H184 N179 0.984 . S
H185 N179 0.985 . S
H186 N183 0.984 . S
H187 N183 0.985 . S
H188 N182 0.984 . S
H189 N182 0.984 . S
H190 N178 0.984 . S
H191 N178 0.985 . S
C192 C193 1.363 1_556 S
C192 C198 1.379 1_455 S
C192 N200 1.356 . S
C193 C192 1.363 1_554 S
C193 C199 1.363 . S
C194 C195 1.363 . S
C194 C199 1.379 1_655 S
C194 N201 1.356 . S
C195 C194 1.363 . S
C195 C198 1.363 1_554 S
N196 C198 1.356 . S
N196 H208 0.984 . S
N196 H209 0.985 . S
N197 C199 1.356 . S
N197 H202 0.984 . S
N197 H203 0.985 . S
C198 C192 1.379 1_655 S
C198 C195 1.363 1_556 S
C198 N196 1.356 . S
C199 C193 1.363 . S
C199 C194 1.379 1_455 S
C199 N197 1.356 . S
N200 C192 1.356 . S
N200 H206 0.984 . S
N200 H207 0.984 . S
N201 C194 1.356 . S
N201 H204 0.984 . S
N201 H205 0.985 . S
H202 N197 0.984 . S
H203 N197 0.985 . S
H204 N201 0.984 . S
H205 N201 0.985 . S
H206 N200 0.984 . S
H207 N200 0.984 . S
H208 N196 0.984 . S
H209 N196 0.985 . S
C210 C211 1.363 . S
C210 C216 1.379 1_565 S
C210 N218 1.356 . S
C211 C210 1.363 . S
C211 C217 1.363 1_554 S
C212 C213 1.363 1_556 S
C212 C217 1.379 1_545 S
C212 N219 1.356 . S
C213 C212 1.363 1_554 S
C213 C216 1.363 . S
N214 C216 1.356 . S
N214 H226 0.984 . S
N214 H227 0.985 . S
N215 C217 1.356 . S
N215 H220 0.984 . S
N215 H221 0.985 . S
C216 C210 1.379 1_545 S
C216 C213 1.363 . S
C216 N214 1.356 . S
C217 C211 1.363 1_556 S
C217 C212 1.379 1_565 S
C217 N215 1.356 . S
N218 C210 1.356 . S
N218 H224 0.984 . S
N218 H225 0.984 . S
N219 C212 1.356 . S
N219 H222 0.984 . S
N219 H223 0.985 . S
H220 N215 0.984 . S
H221 N215 0.985 . S
H222 N219 0.984 . S
H223 N219 0.985 . S
H224 N218 0.984 . S
H225 N218 0.984 . S
H226 N214 0.984 . S
H227 N214 0.985 . S
C228 C229 1.363 1_554 S
C228 C234 1.379 . S
C228 N236 1.356 . S
C229 C228 1.363 1_556 S
C229 C235 1.363 . S
C230 C231 1.363 . S
C230 C235 1.379 . S
C230 N237 1.356 . S
C231 C230 1.363 . S
C231 C234 1.363 1_556 S
N232 C234 1.356 . S
N232 H244 0.984 . S
N232 H245 0.985 . S
N233 C235 1.356 . S
N233 H238 0.984 . S
N233 H239 0.985 . S
C234 C228 1.379 . S
C234 C231 1.363 1_554 S
C234 N232 1.356 . S
C235 C229 1.363 . S
C235 C230 1.379 . S
C235 N233 1.356 . S
N236 C228 1.356 . S
N236 H242 0.984 . S
N236 H243 0.984 . S
N237 C230 1.356 . S
N237 H240 0.984 . S
N237 H241 0.985 . S
H238 N233 0.984 . S
H239 N233 0.985 . S
H240 N237 0.984 . S
H241 N237 0.985 . S
H242 N236 0.984 . S
H243 N236 0.984 . S
H244 N232 0.984 . S
H245 N232 0.985 . S
C246 C247 1.363 1_554 S
C246 C252 1.379 . S
C246 N254 1.356 . S
C247 C246 1.363 1_556 S
C247 C253 1.363 . S
C248 C249 1.363 . S
C248 C253 1.379 . S
C248 N255 1.356 . S
C249 C248 1.363 . S
C249 C252 1.363 1_556 S
N250 C252 1.356 . S
N250 H262 0.984 . S
N250 H263 0.985 . S
N251 C253 1.356 . S
N251 H256 0.984 . S
N251 H257 0.985 . S
C252 C246 1.379 . S
C252 C249 1.363 1_554 S
C252 N250 1.356 . S
C253 C247 1.363 . S
C253 C248 1.379 . S
C253 N251 1.356 . S
N254 C246 1.356 . S
N254 H260 0.984 . S
N254 H261 0.984 . S
N255 C248 1.356 . S
N255 H258 0.984 . S
N255 H259 0.985 . S
H256 N251 0.984 . S
H257 N251 0.985 . S
H258 N255 0.984 . S
H259 N255 0.985 . S
H260 N254 0.984 . S
H261 N254 0.984 . S
H262 N250 0.984 . S
H263 N250 0.985 . S
C264 C265 1.363 . S
C264 C270 1.379 . S
C264 N272 1.356 . S
C265 C264 1.363 . S
C265 C271 1.363 1_556 S
C266 C267 1.363 1_554 S
C266 C271 1.379 . S
C266 N273 1.356 . S
C267 C266 1.363 1_556 S
C267 C270 1.363 . S
N268 C270 1.356 . S
N268 H280 0.984 . S
N268 H281 0.985 . S
N269 C271 1.356 . S
N269 H274 0.984 . S
N269 H275 0.985 . S
C270 C264 1.379 . S
C270 C267 1.363 . S
C270 N268 1.356 . S
C271 C265 1.363 1_554 S
C271 C266 1.379 . S
C271 N269 1.356 . S
N272 C264 1.356 . S
N272 H278 0.984 . S
N272 H279 0.984 . S
N273 C266 1.356 . S
N273 H276 0.984 . S
N273 H277 0.985 . S
H274 N269 0.984 . S
H275 N269 0.985 . S
H276 N273 0.984 . S
H277 N273 0.985 . S
H278 N272 0.984 . S
H279 N272 0.984 . S
H280 N268 0.984 . S
H281 N268 0.985 . S
C282 C283 1.363 1_554 S
C282 C288 1.379 . S
C282 N290 1.356 . S
C283 C282 1.363 1_556 S
C283 C289 1.363 . S
C284 C285 1.363 . S
C284 C289 1.379 . S
C284 N291 1.356 . S
C285 C284 1.363 . S
C285 C288 1.363 1_556 S
N286 C288 1.356 . S
N286 H298 0.984 . S
N286 H299 0.985 . S
N287 C289 1.356 . S
N287 H292 0.984 . S
N287 H293 0.985 . S
C288 C282 1.379 . S
C288 C285 1.363 1_554 S
C288 N286 1.356 . S
C289 C283 1.363 . S
C289 C284 1.379 . S
C289 N287 1.356 . S
N290 C282 1.356 . S
N290 H296 0.984 . S
N290 H297 0.984 . S
N291 C284 1.356 . S
N291 H294 0.984 . S
N291 H295 0.985 . S
H292 N287 0.984 . S
H293 N287 0.985 . S
H294 N291 0.984 . S
H295 N291 0.985 . S
H296 N290 0.984 . S
H297 N290 0.984 . S
H298 N286 0.984 . S
H299 N286 0.985 . S
C300 C301 1.363 . S
C300 C306 1.379 . S
C300 N308 1.356 . S
C301 C300 1.363 . S
C301 C307 1.363 1_556 S
C302 C303 1.363 1_554 S
C302 C307 1.379 . S
C302 N309 1.356 . S
C303 C302 1.363 1_556 S
C303 C306 1.363 . S
N304 C306 1.356 . S
N304 H316 0.984 . S
N304 H317 0.985 . S
N305 C307 1.356 . S
N305 H310 0.984 . S
N305 H311 0.985 . S
C306 C300 1.379 . S
C306 C303 1.363 . S
C306 N304 1.356 . S
C307 C301 1.363 1_554 S
C307 C302 1.379 . S
C307 N305 1.356 . S
N308 C300 1.356 . S
N308 H314 0.984 . S
N308 H315 0.984 . S
N309 C302 1.356 . S
N309 H312 0.984 . S
N309 H313 0.985 . S
H310 N305 0.984 . S
H311 N305 0.985 . S
H312 N309 0.984 . S
H313 N309 0.985 . S
H314 N308 0.984 . S
H315 N308 0.984 . S
H316 N304 0.984 . S
H317 N304 0.985 . S
C318 C319 1.363 . S
C318 C324 1.379 . S
C318 N326 1.356 . S
C319 C318 1.363 . S
C319 C325 1.363 1_556 S
C320 C321 1.363 1_554 S
C320 C325 1.379 . S
C320 N327 1.356 . S
C321 C320 1.363 1_556 S
C321 C324 1.363 . S
N322 C324 1.356 . S
N322 H334 0.984 . S
N322 H335 0.985 . S
N323 C325 1.356 . S
N323 H328 0.984 . S
N323 H329 0.985 . S
C324 C318 1.379 . S
C324 C321 1.363 . S
C324 N322 1.356 . S
C325 C319 1.363 1_554 S
C325 C320 1.379 . S
C325 N323 1.356 . S
N326 C318 1.356 . S
N326 H332 0.984 . S
N326 H333 0.984 . S
N327 C320 1.356 . S
N327 H330 0.984 . S
N327 H331 0.985 . S
H328 N323 0.984 . S
H329 N323 0.985 . S
H330 N327 0.984 . S
H331 N327 0.985 . S
H332 N326 0.984 . S
H333 N326 0.984 . S
H334 N322 0.984 . S
H335 N322 0.985 . S
C336 C337 1.363 . S
C336 C342 1.379 . S
C336 N344 1.356 . S
C337 C336 1.363 . S
C337 C343 1.363 . S
C338 C339 1.363 . S
C338 C343 1.379 . S
C338 N345 1.356 . S
C339 C338 1.363 . S
C339 C342 1.363 . S
N340 C342 1.356 . S
N340 H352 0.984 . S
N340 H353 0.985 . S
N341 C343 1.356 . S
N341 H346 0.984 . S
N341 H347 0.985 . S
C342 C336 1.379 . S
C342 C339 1.363 . S
C342 N340 1.356 . S
C343 C337 1.363 . S
C343 C338 1.379 . S
C343 N341 1.356 . S
N344 C336 1.356 . S
N344 H350 0.984 . S
N344 H351 0.984 . S
N345 C338 1.356 . S
N345 H348 0.984 . S
N345 H349 0.985 . S
H346 N341 0.984 . S
H347 N341 0.985 . S
H348 N345 0.984 . S
H349 N345 0.985 . S
H350 N344 0.984 . S
H351 N344 0.984 . S
H352 N340 0.984 . S
H353 N340 0.985 . S
C354 C355 1.363 . S
C354 C360 1.379 . S
C354 N362 1.356 . S
C355 C354 1.363 . S
C355 C361 1.363 . S
C356 C357 1.363 . S
C356 C361 1.379 . S
C356 N363 1.356 . S
C357 C356 1.363 . S
C357 C360 1.363 . S
N358 C360 1.356 . S
N358 H370 0.984 . S
N358 H371 0.985 . S
N359 C361 1.356 . S
N359 H364 0.984 . S
N359 H365 0.985 . S
C360 C354 1.379 . S
C360 C357 1.363 . S
C360 N358 1.356 . S
C361 C355 1.363 . S
C361 C356 1.379 . S
C361 N359 1.356 . S
N362 C354 1.356 . S
N362 H368 0.984 . S
N362 H369 0.984 . S
N363 C356 1.356 . S
N363 H366 0.984 . S
N363 H367 0.985 . S
H364 N359 0.984 . S
H365 N359 0.985 . S
H366 N363 0.984 . S
H367 N363 0.985 . S
H368 N362 0.984 . S
H369 N362 0.984 . S
H370 N358 0.984 . S
H371 N358 0.985 . S
C372 C373 1.363 . S
C372 C378 1.379 . S
C372 N380 1.356 . S
C373 C372 1.363 . S
C373 C379 1.363 . S
C374 C375 1.363 . S
C374 C379 1.379 . S
C374 N381 1.356 . S
C375 C374 1.363 . S
C375 C378 1.363 . S
N376 C378 1.356 . S
N376 H388 0.984 . S
N376 H389 0.985 . S
N377 C379 1.356 . S
N377 H382 0.984 . S
N377 H383 0.985 . S
C378 C372 1.379 . S
C378 C375 1.363 . S
C378 N376 1.356 . S
C379 C373 1.363 . S
C379 C374 1.379 . S
C379 N377 1.356 . S
N380 C372 1.356 . S
N380 H386 0.984 . S
N380 H387 0.984 . S
N381 C374 1.356 . S
N381 H384 0.984 . S
N381 H385 0.985 . S
H382 N377 0.984 . S
H383 N377 0.985 . S
H384 N381 0.984 . S
H385 N381 0.985 . S
H386 N380 0.984 . S
H387 N380 0.984 . S
H388 N376 0.984 . S
H389 N376 0.985 . S
C390 C391 1.363 . S
C390 C396 1.379 . S
C390 N398 1.356 . S
C391 C390 1.363 . S
C391 C397 1.363 . S
C392 C393 1.363 . S
C392 C397 1.379 . S
C392 N399 1.356 . S
C393 C392 1.363 . S
C393 C396 1.363 . S
N394 C396 1.356 . S
N394 H406 0.984 . S
N394 H407 0.985 . S
N395 C397 1.356 . S
N395 H400 0.984 . S
N395 H401 0.985 . S
C396 C390 1.379 . S
C396 C393 1.363 . S
C396 N394 1.356 . S
C397 C391 1.363 . S
C397 C392 1.379 . S
C397 N395 1.356 . S
N398 C390 1.356 . S
N398 H404 0.984 . S
N398 H405 0.984 . S
N399 C392 1.356 . S
N399 H402 0.984 . S
N399 H403 0.985 . S
H400 N395 0.984 . S
H401 N395 0.985 . S
H402 N399 0.984 . S
H403 N399 0.985 . S
H404 N398 0.984 . S
H405 N398 0.984 . S
H406 N394 0.984 . S
H407 N394 0.985 . S
C408 C409 1.363 . S
C408 C414 1.379 . S
C408 N416 1.356 . S
C409 C408 1.363 . S
C409 C415 1.363 . S
C410 C411 1.363 . S
C410 C415 1.379 . S
C410 N417 1.356 . S
C411 C410 1.363 . S
C411 C414 1.363 . S
N412 C414 1.356 . S
N412 H424 0.984 . S
N412 H425 0.985 . S
N413 C415 1.356 . S
N413 H418 0.984 . S
N413 H419 0.985 . S
C414 C408 1.379 . S
C414 C411 1.363 . S
C414 N412 1.356 . S
C415 C409 1.363 . S
C415 C410 1.379 . S
C415 N413 1.356 . S
N416 C408 1.356 . S
N416 H422 0.984 . S
N416 H423 0.984 . S
N417 C410 1.356 . S
N417 H420 0.984 . S
N417 H421 0.985 . S
H418 N413 0.984 . S
H419 N413 0.985 . S
H420 N417 0.984 . S
H421 N417 0.985 . S
H422 N416 0.984 . S
H423 N416 0.984 . S
H424 N412 0.984 . S
H425 N412 0.985 . S
C426 C427 1.363 . S
C426 C432 1.379 . S
C426 N434 1.356 . S
C427 C426 1.363 . S
C427 C433 1.363 . S
C428 C429 1.363 . S
C428 C433 1.379 . S
C428 N435 1.356 . S
C429 C428 1.363 . S
C429 C432 1.363 . S
N430 C432 1.356 . S
N430 H442 0.984 . S
N430 H443 0.985 . S
N431 C433 1.356 . S
N431 H436 0.984 . S
N431 H437 0.985 . S
C432 C426 1.379 . S
C432 C429 1.363 . S
C432 N430 1.356 . S
C433 C427 1.363 . S
C433 C428 1.379 . S
C433 N431 1.356 . S
N434 C426 1.356 . S
N434 H440 0.984 . S
N434 H441 0.984 . S
N435 C428 1.356 . S
N435 H438 0.984 . S
N435 H439 0.985 . S
H436 N431 0.984 . S
H437 N431 0.985 . S
H438 N435 0.984 . S
H439 N435 0.985 . S
H440 N434 0.984 . S
H441 N434 0.984 . S
H442 N430 0.984 . S
H443 N430 0.985 . S
C121 C104 1.593 1_554 S
C123 C12 1.602 . S
C139 C4 1.593 1_554 S
C141 C32 1.602 . S
C157 C24 1.593 1_554 S
C159 C52 1.602 . S
C175 C72 1.602 . S
C177 C44 1.593 1_554 S
C193 C92 1.602 . S
C195 C64 1.593 1_554 S
C211 C84 1.593 1_554 S
C213 C112 1.602 . S
C229 C82 1.581 1_556 S
C231 C9 1.634 . S
C247 C102 1.581 1_556 S
C249 C29 1.634 . S
C265 C49 1.634 . S
C267 C2 1.581 1_556 S
C283 C69 1.634 . S
C285 C22 1.581 1_556 S
C301 C89 1.634 . S
C303 C42 1.581 1_556 S
C319 C62 1.581 1_556 S
C321 C109 1.634 . S
C337 C18 1.496 . S
C339 C19 1.496 . S
C355 C38 1.496 . S
C357 C39 1.496 . S
C373 C58 1.496 . S
C375 C59 1.496 . S
C391 C78 1.496 . S
C393 C79 1.496 . S
C409 C99 1.496 . S
C411 C98 1.496 . S
C427 C118 1.496 . S
C429 C119 1.496 . S
