# Generated by pormake.
# Topology sme, (6)-cn, num edge types: 1
# Building blocks:
#     Node 0, Type 0, BuildingBlock: IZENUY_clean_sbu_0, # of connection points: 6
#     Node 1, Type 0, BuildingBlock: IZENUY_clean_sbu_0, # of connection points: 6
#     Node 2, Type 0, BuildingBlock: IZENUY_clean_sbu_0, # of connection points: 6
#     Node 3, Type 0, BuildingBlock: IZENUY_clean_sbu_0, # of connection points: 6
#     Node 4, Type 0, BuildingBlock: IZENUY_clean_sbu_0, # of connection points: 6
#     Node 5, Type 0, BuildingBlock: IZENUY_clean_sbu_0, # of connection points: 6
#     Node 6, Type 0, BuildingBlock: IZENUY_clean_sbu_0, # of connection points: 6
#     Node 7, Type 0, BuildingBlock: IZENUY_clean_sbu_0, # of connection points: 6
#     Node 8, Type 0, BuildingBlock: IZENUY_clean_sbu_0, # of connection points: 6
#     Node 9, Type 0, BuildingBlock: IZENUY_clean_sbu_0, # of connection points: 6
#     Node 10, Type 0, BuildingBlock: IZENUY_clean_sbu_0, # of connection points: 6
#     Node 11, Type 0, BuildingBlock: IZENUY_clean_sbu_0, # of connection points: 6
#     Node 12, Type 0, BuildingBlock: IZENUY_clean_sbu_0, # of connection points: 6
#     Node 13, Type 0, BuildingBlock: IZENUY_clean_sbu_0, # of connection points: 6
#     Node 14, Type 0, BuildingBlock: IZENUY_clean_sbu_0, # of connection points: 6
#     Node 15, Type 0, BuildingBlock: IZENUY_clean_sbu_0, # of connection points: 6
#     Node 16, Type 0, BuildingBlock: IZENUY_clean_sbu_0, # of connection points: 6
#     Node 17, Type 0, BuildingBlock: IZENUY_clean_sbu_0, # of connection points: 6
#     Edge 18, Type (0, 0), None
#     Edge 19, Type (0, 0), None
#     Edge 20, Type (0, 0), None
#     Edge 21, Type (0, 0), None
#     Edge 22, Type (0, 0), None
#     Edge 23, Type (0, 0), None
#     Edge 24, Type (0, 0), None
#     Edge 25, Type (0, 0), None
#     Edge 26, Type (0, 0), None
#     Edge 27, Type (0, 0), None
#     Edge 28, Type (0, 0), None
#     Edge 29, Type (0, 0), None
#     Edge 30, Type (0, 0), None
#     Edge 31, Type (0, 0), None
#     Edge 32, Type (0, 0), None
#     Edge 33, Type (0, 0), None
#     Edge 34, Type (0, 0), None
#     Edge 35, Type (0, 0), None
#     Edge 36, Type (0, 0), None
#     Edge 37, Type (0, 0), None
#     Edge 38, Type (0, 0), None
#     Edge 39, Type (0, 0), None
#     Edge 40, Type (0, 0), None
#     Edge 41, Type (0, 0), None
#     Edge 42, Type (0, 0), None
#     Edge 43, Type (0, 0), None
#     Edge 44, Type (0, 0), None
#     Edge 45, Type (0, 0), None
#     Edge 46, Type (0, 0), None
#     Edge 47, Type (0, 0), None
#     Edge 48, Type (0, 0), None
#     Edge 49, Type (0, 0), None
#     Edge 50, Type (0, 0), None
#     Edge 51, Type (0, 0), None
#     Edge 52, Type (0, 0), None
#     Edge 53, Type (0, 0), None
#     Edge 54, Type (0, 0), None
#     Edge 55, Type (0, 0), None
#     Edge 56, Type (0, 0), None
#     Edge 57, Type (0, 0), None
#     Edge 58, Type (0, 0), None
#     Edge 59, Type (0, 0), None
#     Edge 60, Type (0, 0), None
#     Edge 61, Type (0, 0), None
#     Edge 62, Type (0, 0), None
#     Edge 63, Type (0, 0), None
#     Edge 64, Type (0, 0), None
#     Edge 65, Type (0, 0), None
#     Edge 66, Type (0, 0), None
#     Edge 67, Type (0, 0), None
#     Edge 68, Type (0, 0), None
#     Edge 69, Type (0, 0), None
#     Edge 70, Type (0, 0), None
#     Edge 71, Type (0, 0), None
# Relax obj value: 0.120
# Max RMSD: 0.169
# Mean RMSD: 0.168
data_MOF--net-sme--node1-IZENUY_clean_sbu_0--edge1-none
_symmetry_space_group_name_H-M    P1
_symmetry_Int_Tables_number       1
_symmetry_cell_setting            triclinic
loop_
_symmetry_equiv_pos_as_xyz
'x, y, z'
_cell_length_a     20.516197
_cell_length_b     20.513568
_cell_length_c     18.457953
_cell_angle_alpha  89.990904
_cell_angle_beta   90.017961
_cell_angle_gamma 119.98784
loop_
_atom_site_label
_atom_site_type_symbol
_atom_site_fract_x
_atom_site_fract_y
_atom_site_fract_z
_atom_type_partial_charge
Fe0 Fe 0.08904 0.38679 0.79197 0.0
Fe1 Fe 0.09021 0.26133 0.87677 0.0
O2 O 0.08905 0.30096 0.79197 0.0
Fe3 Fe 0.0879 0.2602 0.70717 0.0
O4 O 0.16295 0.34823 0.66738 0.0
O5 O 0.11074 0.4115 0.69757 0.0
O6 O 0.18986 0.43274 0.81589 0.0
C7 C 0.21466 0.4079 0.86696 0.0
C8 C 0.96344 0.28231 0.71699 0.0
O9 O 0.16903 0.35292 0.90722 0.0
C10 C 0.99258 0.13449 0.79267 0.0
O11 O 0.06734 0.38978 0.88637 0.0
O12 O 1.01516 0.27432 0.91658 0.0
O13 O 1.00908 0.27299 0.67671 0.0
O14 O 0.98822 0.33193 0.76805 0.0
C15 C 0.18553 0.23095 0.79127 0.0
O16 O 1.01627 0.16721 0.85303 0.0
O17 O 1.01693 0.16705 0.73303 0.0
C18 C 1.02025 0.33725 0.92428 0.0
O19 O 0.16118 0.23915 0.85091 0.0
O20 O 0.16184 0.24 0.73091 0.0
C21 C 0.15783 0.40606 0.65966 0.0
Fe22 Fe 0.92136 0.92698 0.87677 0.0
Fe23 Fe 0.92242 0.92587 0.70718 0.0
O24 O 0.8817 0.88623 0.79198 0.0
Fe25 Fe 0.7959 0.80041 0.79198 0.0
O26 O 0.74993 0.85527 0.81587 0.0
O27 O 0.82979 0.91429 0.90719 0.0
O28 O 0.9436 1.02016 0.8509 0.0
C29 C 0.95163 0.05269 0.79127 0.0
C30 C 0.8454 0.78112 0.92433 0.0
O31 O 0.94251 1.01997 0.7309 0.0
C32 C 0.90036 0.77927 0.71701 0.0
O33 O 1.01545 0.94706 0.85304 0.0
O34 O 1.0156 0.94812 0.73304 0.0
O35 O 0.79289 0.77572 0.88638 0.0
O36 O 0.90833 0.83892 0.91662 0.0
C37 C 0.77658 0.84988 0.65963 0.0
O38 O 0.90973 0.83428 0.67676 0.0
O39 O 0.85076 0.75445 0.76809 0.0
C40 C 1.04817 0.95622 0.79267 0.0
O41 O 0.83436 0.91283 0.66735 0.0
O42 O 0.77118 0.79738 0.69758 0.0
C43 C 0.77476 0.90489 0.86694 0.0
Fe44 Fe 0.38223 0.09354 0.79196 0.0
Fe45 Fe 0.25677 0.0947 0.70716 0.0
O46 O 0.29641 0.09357 0.79196 0.0
Fe47 Fe 0.25568 0.09245 0.87676 0.0
O48 O 0.34373 0.16748 0.91657 0.0
O49 O 0.40694 0.11523 0.88636 0.0
O50 O 0.42819 0.19436 0.76806 0.0
C51 C 0.40335 0.21917 0.71699 0.0
C52 C 0.27776 0.96794 0.86693 0.0
O53 O 0.34834 0.17355 0.67673 0.0
C54 C 0.12997 0.99708 0.79127 0.0
O55 O 0.38521 0.07185 0.69756 0.0
O56 O 0.26977 1.01966 0.66733 0.0
O57 O 0.26844 1.0136 0.9072 0.0
O58 O 0.32737 0.99272 0.81586 0.0
C59 C 0.22648 0.1901 0.79268 0.0
O60 O 0.16266 1.02074 0.7309 0.0
O61 O 0.16252 1.02149 0.85091 0.0
C62 C 0.3327 1.02476 0.65962 0.0
O63 O 0.23457 0.16567 0.73303 0.0
O64 O 0.23553 0.16642 0.85304 0.0
C65 C 0.40153 0.16234 0.92428 0.0
Fe66 Fe 0.08789 0.92579 0.20717 0.0
Fe67 Fe 0.08906 0.80034 0.292 0.0
O68 O 0.08905 0.88617 0.29197 0.0
Fe69 Fe 0.09021 0.92695 0.37677 0.0
O70 O 1.01628 0.94716 0.35302 0.0
O71 O 1.01692 0.94797 0.23302 0.0
O72 O 1.00906 0.8342 0.17673 0.0
C73 C 0.96343 0.77922 0.21701 0.0
C74 C 0.18552 0.05265 0.29125 0.0
O75 O 0.98824 0.75438 0.26808 0.0
C76 C 0.21466 0.90483 0.36697 0.0
O77 O 0.16293 0.91279 0.16736 0.0
O78 O 0.11075 0.79733 0.1976 0.0
O79 O 0.16119 1.02009 0.3509 0.0
O80 O 0.16183 1.01992 0.2309 0.0
C81 C 1.02024 0.78109 0.42428 0.0
O82 O 0.18987 0.8552 0.31591 0.0
O83 O 0.16902 0.91416 0.40724 0.0
C84 C 0.15782 0.84985 0.15966 0.0
O85 O 0.06736 0.77566 0.3864 0.0
O86 O 1.01515 0.83893 0.41657 0.0
C87 C 0.99259 0.9562 0.29266 0.0
Fe88 Fe 0.25674 0.26017 0.20717 0.0
Fe89 Fe 0.3822 0.38673 0.29199 0.0
O90 O 0.29639 0.30091 0.29197 0.0
Fe91 Fe 0.25565 0.26126 0.37676 0.0
O92 O 0.23555 0.16715 0.35303 0.0
O93 O 0.23451 0.16699 0.23302 0.0
O94 O 0.34832 0.27286 0.17676 0.0
C95 C 0.40334 0.28225 0.21702 0.0
C96 C 0.12992 0.23093 0.29126 0.0
O97 O 0.42816 0.33187 0.26809 0.0
C98 C 0.27773 0.40786 0.36694 0.0
O99 O 0.26978 0.34823 0.16734 0.0
O100 O 0.38522 0.41144 0.19759 0.0
O101 O 0.16248 0.23903 0.35089 0.0
O102 O 0.16264 0.24008 0.23089 0.0
C103 C 0.4015 0.33721 0.42431 0.0
O104 O 0.32734 0.43269 0.31588 0.0
O105 O 0.26836 0.35285 0.40719 0.0
C106 C 0.33272 0.40602 0.15962 0.0
O107 O 0.40689 0.38973 0.38639 0.0
O108 O 0.3437 0.27427 0.41659 0.0
C109 C 0.22645 0.13444 0.29266 0.0
Fe110 Fe 0.92132 0.09243 0.37677 0.0
Fe111 Fe 0.79586 0.09358 0.29195 0.0
O112 O 0.88168 0.09357 0.29196 0.0
Fe113 Fe 0.92242 0.09469 0.20717 0.0
O114 O 0.9426 1.02074 0.2309 0.0
O115 O 0.94353 1.02147 0.35091 0.0
O116 O 0.82974 1.01357 0.40719 0.0
C117 C 0.77474 0.96795 0.36692 0.0
C118 C 1.04812 0.19008 0.29267 0.0
O119 O 0.74991 0.99275 0.31585 0.0
C120 C 0.90032 0.21918 0.21698 0.0
O121 O 0.90829 0.16746 0.41659 0.0
O122 O 0.79284 0.11527 0.38635 0.0
O123 O 1.01557 0.16567 0.23303 0.0
O124 O 1.01542 0.16641 0.35304 0.0
C125 C 0.77657 1.02475 0.15965 0.0
O126 O 0.85071 0.1944 0.26805 0.0
O127 O 0.90965 0.17353 0.17672 0.0
C128 C 0.84535 0.16233 0.42431 0.0
O129 O 0.77116 0.07188 0.19754 0.0
O130 O 0.83439 1.01964 0.16737 0.0
C131 C 0.95165 0.99706 0.29127 0.0
Fe132 Fe 0.7557 0.72013 0.12532 0.0
Fe133 Fe 0.75688 0.59467 0.21011 0.0
O134 O 0.75572 0.6343 0.12531 0.0
Fe135 Fe 0.75455 0.59352 1.04051 0.0
O136 O 0.8296 0.68154 1.00071 0.0
O137 O 0.77742 0.74486 1.03092 0.0
O138 O 0.85652 0.76609 0.14924 0.0
C139 C 0.88132 0.74124 0.20031 0.0
C140 C 0.6301 0.61565 0.05032 0.0
O141 O 0.83569 0.68626 0.24057 0.0
C142 C 0.65925 0.46782 0.126 0.0
O143 O 0.73399 0.7231 0.21972 0.0
O144 O 0.68182 0.60763 0.24991 0.0
O145 O 0.67575 0.60634 1.01005 0.0
O146 O 0.65489 0.66528 0.10139 0.0
C147 C 0.85219 0.56428 0.12459 0.0
O148 O 0.68296 0.50053 0.18636 0.0
O149 O 0.68356 0.50039 0.06636 0.0
C150 C 0.6869 0.67056 0.25762 0.0
O151 O 0.82787 0.57252 0.18424 0.0
O152 O 0.82847 0.5733 0.06424 0.0
C153 C 0.82447 0.73936 0.993 0.0
Fe154 Fe 0.46255 0.13373 0.12532 0.0
Fe155 Fe 0.58802 0.26031 0.2101 0.0
O156 O 0.54836 0.21956 0.12531 0.0
Fe157 Fe 0.58909 0.25919 1.04051 0.0
O158 O 0.50105 0.24617 1.00067 0.0
O159 O 0.43782 0.13069 1.03092 0.0
O160 O 0.41659 0.18859 0.14921 0.0
C161 C 0.44142 0.23822 0.20028 0.0
C162 C 0.56702 0.11259 0.05035 0.0
O163 O 0.49645 0.24762 0.24053 0.0
C164 C 0.71484 0.28955 0.126 0.0
O165 O 0.45956 0.10905 0.21972 0.0
O166 O 0.575 0.17225 0.24995 0.0
O167 O 0.57638 0.1676 1.01009 0.0
O168 O 0.51742 0.08777 0.10142 0.0
C169 C 0.6183 0.38602 0.1246 0.0
O170 O 0.68212 0.28041 0.18637 0.0
O171 O 0.68226 0.28142 0.06637 0.0
C172 C 0.51207 0.11445 0.25766 0.0
O173 O 0.61025 0.35348 0.18424 0.0
O174 O 0.60919 0.3533 0.06423 0.0
C175 C 0.44327 0.18321 0.99297 0.0
Fe176 Fe 0.92234 0.42578 0.2101 0.0
Fe177 Fe 0.92344 0.42804 1.0405 0.0
O178 O 0.96308 0.4269 0.1253 0.0
Fe179 Fe 0.0489 0.42688 0.12532 0.0
O180 O 0.99405 0.32606 0.14923 0.0
O181 O 0.93511 0.34694 0.24055 0.0
O182 O 0.82919 0.35481 0.18424 0.0
C183 C 0.79664 0.3304 0.12459 0.0
C184 C 0.06819 0.49572 0.25762 0.0
O185 O 0.82933 0.35407 0.06423 0.0
C186 C 0.07003 0.55251 0.05033 0.0
O187 O 0.90217 0.49974 0.18637 0.0
O188 O 0.90124 0.499 0.06636 0.0
O189 O 0.0736 0.44859 0.21973 0.0
O190 O 1.01037 0.50083 0.2499 0.0
C191 C 0.9994 0.35815 0.99296 0.0
O192 O 1.01502 0.50688 1.01007 0.0
O193 O 0.09486 0.5277 0.10141 0.0
C194 C 0.89312 0.52342 0.126 0.0
O195 O 0.93645 0.353 1.00066 0.0
O196 O 0.05192 0.40518 1.03093 0.0
C197 C 0.94444 0.30129 0.20029 0.0
Fe198 Fe 0.75687 0.26027 0.71011 0.0
Fe199 Fe 0.75573 0.13367 0.62531 0.0
O200 O 0.75572 0.2195 0.6253 0.0
Fe201 Fe 0.75455 0.25914 0.54051 0.0
O202 O 0.82849 0.35326 0.56425 0.0
O203 O 0.82785 0.35341 0.68425 0.0
O204 O 0.83569 0.24747 0.74056 0.0
C205 C 0.88133 0.23816 0.70029 0.0
C206 C 0.65924 0.28952 0.62602 0.0
O207 O 0.85654 0.18853 0.64923 0.0
C208 C 0.63011 0.11256 0.55033 0.0
O209 O 0.68182 0.17223 0.7499 0.0
O210 O 0.73403 0.10897 0.71971 0.0
O211 O 0.68357 0.28131 0.56638 0.0
O212 O 0.68294 0.28047 0.68638 0.0
C213 C 0.82449 0.18322 0.49299 0.0
O214 O 0.65491 0.08772 0.60138 0.0
O215 O 0.67573 0.16754 0.51006 0.0
C216 C 0.68693 0.11441 0.75761 0.0
O217 O 0.77743 0.13067 0.53091 0.0
O218 O 0.82959 0.24616 0.50068 0.0
C219 C 0.85218 0.38598 0.62461 0.0
Fe220 Fe 0.92233 0.59461 0.7101 0.0
Fe221 Fe 0.04887 0.72007 0.6253 0.0
O222 O 0.96306 0.63425 0.6253 0.0
Fe223 Fe 0.9234 0.59348 0.54051 0.0
O224 O 0.8293 0.57337 0.56424 0.0
O225 O 0.82916 0.5724 0.68425 0.0
O226 O 0.93505 0.6862 0.74053 0.0
C227 C 0.94441 0.74121 0.70028 0.0
C228 C 0.89313 0.46778 0.62602 0.0
O229 O 0.99401 0.76604 0.6492 0.0
C230 C 0.07001 0.61559 0.55034 0.0
O231 O 1.01038 0.60762 0.74992 0.0
O232 O 0.07359 0.72308 0.7197 0.0
O233 O 0.9012 0.50031 0.56638 0.0
O234 O 0.90221 0.50049 0.68638 0.0
C235 C 0.99934 0.73932 0.49296 0.0
O236 O 0.09483 0.66521 0.60141 0.0
O237 O 1.01498 0.60619 0.51008 0.0
C238 C 0.06817 0.67057 0.75764 0.0
O239 O 0.05187 0.74479 0.53091 0.0
O240 O 0.93641 0.68152 0.50066 0.0
C241 C 0.79658 0.56425 0.62461 0.0
Fe242 Fe 0.46252 0.42691 0.62527 0.0
Fe243 Fe 0.5891 0.42802 0.5405 0.0
O244 O 0.54834 0.4269 0.6253 0.0
Fe245 Fe 0.58798 0.42576 0.71011 0.0
O246 O 0.4964 0.34691 0.74053 0.0
O247 O 0.41656 0.32609 0.64919 0.0
O248 O 0.43781 0.4052 0.53087 0.0
C249 C 0.44327 0.35811 0.49298 0.0
C250 C 0.51202 0.49567 0.75763 0.0
O251 O 0.50108 0.35297 0.50069 0.0
C252 C 0.71479 0.5234 0.62602 0.0
O253 O 0.51738 0.52773 0.60137 0.0
O254 O 0.57632 0.50686 0.51005 0.0
O255 O 0.57496 0.5008 0.74993 0.0
O256 O 0.45951 0.44861 0.71967 0.0
C257 C 0.6183 0.33038 0.62461 0.0
O258 O 0.68224 0.49899 0.56637 0.0
O259 O 0.68209 0.49973 0.68638 0.0
C260 C 0.56699 0.55251 0.55031 0.0
O261 O 0.60927 0.35406 0.56424 0.0
O262 O 0.61018 0.3548 0.68425 0.0
C263 C 0.44139 0.30129 0.70026 0.0
Fe264 Fe 0.42356 0.928 0.54344 0.0
Fe265 Fe 0.42122 0.92686 0.37384 0.0
O266 O 0.42238 0.96764 0.45864 0.0
Fe267 Fe 0.42237 0.05347 0.45865 0.0
O268 O 0.52318 0.09943 0.48258 0.0
O269 O 0.50236 1.0196 0.5739 0.0
O270 O 0.49456 0.90587 0.51758 0.0
C271 C 0.51887 0.89762 0.45793 0.0
C272 C 0.35359 1.00389 0.59095 0.0
O273 O 0.49514 0.90663 0.39758 0.0
C274 C 0.29677 0.94899 0.38365 0.0
O275 O 0.34965 0.83387 0.5197 0.0
O276 O 0.35022 0.83372 0.3997 0.0
O277 O 0.40065 0.05645 0.55304 0.0
O278 O 0.3485 0.94096 0.58326 0.0
C279 C 0.49115 0.0727 0.32634 0.0
O280 O 0.34242 0.93967 0.34338 0.0
O281 O 0.32156 0.99862 0.43471 0.0
C282 C 0.32592 0.80115 0.45934 0.0
O283 O 0.49627 1.01488 0.33404 0.0
O284 O 0.4441 0.0782 0.36425 0.0
C285 C 0.54799 0.07458 0.53363 0.0
Fe286 Fe 0.25468 0.59365 0.54344 0.0
Fe287 Fe 0.25577 0.59252 0.37384 0.0
O288 O 0.21503 0.55289 0.45864 0.0
Fe289 Fe 0.12921 0.46706 0.45864 0.0
O290 O 0.08325 0.52192 0.48254 0.0
O291 O 0.1631 0.58094 0.57386 0.0
O292 O 0.27689 0.68682 0.51757 0.0
C293 C 0.28497 0.71936 0.45793 0.0
C294 C 0.17874 0.44781 0.59098 0.0
O295 O 0.27589 0.68664 0.39756 0.0
C296 C 0.23367 0.44592 0.38367 0.0
O297 O 0.34879 0.61377 0.51971 0.0
O298 O 0.34893 0.61473 0.39971 0.0
O299 O 0.12621 0.44235 0.55303 0.0
O300 O 0.24168 0.5056 0.58329 0.0
C301 C 0.10995 0.51657 0.3263 0.0
O302 O 0.24304 0.50093 0.34341 0.0
O303 O 0.18407 0.42109 0.43474 0.0
C304 C 0.38151 0.62289 0.45934 0.0
O305 O 0.16773 0.57952 0.33401 0.0
O306 O 0.10448 0.46404 0.36424 0.0
C307 C 0.10808 0.57154 0.53361 0.0
Fe308 Fe 0.71558 0.76021 0.45863 0.0
Fe309 Fe 0.59011 0.76138 0.37383 0.0
O310 O 0.62976 0.76023 0.45863 0.0
Fe311 Fe 0.58901 0.7591 0.54343 0.0
O312 O 0.67704 0.83415 0.58324 0.0
O313 O 0.74031 0.78193 0.55302 0.0
O314 O 0.76154 0.86102 0.43471 0.0
C315 C 0.7367 0.88583 0.38364 0.0
C316 C 0.61111 0.63462 0.53361 0.0
O317 O 0.68168 0.84021 0.34339 0.0
C318 C 0.4633 0.66374 0.45794 0.0
O319 O 0.71856 0.73848 0.36423 0.0
O320 O 0.60308 0.68632 0.33399 0.0
O321 O 0.60179 0.68027 0.57388 0.0
O322 O 0.66072 0.65939 0.48255 0.0
C323 C 0.55981 0.85676 0.45934 0.0
O324 O 0.49599 0.68743 0.39757 0.0
O325 O 0.49586 0.68813 0.51758 0.0
C326 C 0.66602 0.69144 0.3263 0.0
O327 O 0.56794 0.83236 0.3997 0.0
O328 O 0.56883 0.83306 0.51971 0.0
C329 C 0.73484 0.82899 0.59095 0.0
Fe330 Fe 0.42121 0.59245 0.87383 0.0
Fe331 Fe 0.42239 0.46699 0.95865 0.0
O332 O 0.42238 0.55283 0.95864 0.0
Fe333 Fe 0.42355 0.59362 0.04343 0.0
O334 O 0.34963 0.61385 1.01969 0.0
O335 O 0.35022 0.61461 0.89969 0.0
O336 O 0.3424 0.50086 0.84339 0.0
C337 C 0.29677 0.44588 0.88366 0.0
C338 C 0.51885 0.71931 0.95792 0.0
O339 O 0.32158 0.42104 0.93472 0.0
C340 C 0.54799 0.57149 1.03364 0.0
O341 O 0.49626 0.57947 0.83401 0.0
O342 O 0.44411 0.46399 0.86426 0.0
O343 O 0.49454 0.68675 1.01757 0.0
O344 O 0.49514 0.68659 0.89756 0.0
C345 C 0.35359 0.44777 0.09094 0.0
O346 O 0.52321 0.52185 0.98258 0.0
O347 O 0.50235 0.58081 0.07391 0.0
C348 C 0.49114 0.51653 0.82632 0.0
O349 O 0.40067 0.44229 0.05305 0.0
O350 O 0.34849 0.50561 0.08324 0.0
C351 C 0.32592 0.62286 0.95933 0.0
Fe352 Fe 0.59008 0.92683 0.87384 0.0
Fe353 Fe 0.71554 0.05341 0.95866 0.0
O354 O 0.62973 0.96758 0.95864 0.0
Fe355 Fe 0.58898 0.92793 0.04343 0.0
O356 O 0.56885 0.83381 1.0197 0.0
O357 O 0.56787 0.83366 0.89969 0.0
O358 O 0.68166 0.93954 0.84342 0.0
C359 C 0.73668 0.94893 0.88368 0.0
C360 C 0.46325 0.8976 0.95792 0.0
O361 O 0.76151 0.99855 0.93476 0.0
C362 C 0.61108 0.07454 1.03363 0.0
O363 O 0.6031 1.01489 0.83399 0.0
O364 O 0.71857 0.07814 0.86428 0.0
O365 O 0.49582 0.90573 1.01756 0.0
O366 O 0.49597 0.90672 0.89756 0.0
C367 C 0.7348 1.00386 0.09098 0.0
O368 O 0.66069 0.09937 0.98257 0.0
O369 O 0.6017 1.01952 0.07388 0.0
C370 C 0.66605 0.07267 0.8263 0.0
O371 O 0.74026 0.0564 0.05306 0.0
O372 O 0.67701 0.94092 0.08327 0.0
C373 C 0.55978 0.80111 0.95933 0.0
Fe374 Fe 0.25576 0.76136 0.87383 0.0
Fe375 Fe 0.25465 0.7591 0.04344 0.0
O376 O 0.21501 0.76023 0.95863 0.0
Fe377 Fe 0.12918 0.76024 0.95861 0.0
O378 O 0.10447 0.73852 0.86422 0.0
O379 O 0.16774 0.6863 0.83402 0.0
O380 O 0.27594 0.68741 0.89757 0.0
C381 C 0.28498 0.66373 0.95793 0.0
C382 C 0.23364 0.88584 0.88363 0.0
O383 O 0.27685 0.68813 1.01757 0.0
C384 C 0.17869 0.82898 0.09097 0.0
O385 O 0.3489 0.83234 0.89969 0.0
O386 O 0.34876 0.83307 1.01971 0.0
O387 O 0.18403 0.86106 0.93469 0.0
O388 O 0.24297 0.84018 0.84337 0.0
C389 C 0.10807 0.63462 1.0336 0.0
O390 O 0.24164 0.83413 0.08328 0.0
O391 O 0.12617 0.78196 0.053 0.0
C392 C 0.38145 0.85675 0.95934 0.0
O393 O 0.16308 0.68025 0.07386 0.0
O394 O 0.08323 0.65943 0.98253 0.0
C395 C 0.10992 0.69143 0.82632 0.0
loop_
_geom_bond_atom_site_label_1
_geom_bond_atom_site_label_2
_geom_bond_distance
_geom_bond_site_symmetry_2
_ccdc_geom_bond_type
Fe0 O2 1.918 . S
Fe0 O5 1.997 . S
Fe0 O6 2.002 . S
Fe0 O11 1.976 1_455 S
Fe0 O14 1.996 1_455 S
Fe1 O2 1.918 . S
Fe1 O9 1.997 . S
Fe1 O12 1.996 . S
Fe1 O16 1.976 1_455 S
Fe1 O19 2.002 . S
O2 Fe0 1.918 . S
O2 Fe1 1.918 . S
O2 Fe3 1.918 . S
Fe3 O2 1.918 . S
Fe3 O4 2.002 . S
Fe3 O13 1.976 1_455 S
Fe3 O17 1.996 1_455 S
Fe3 O20 1.997 . S
O4 Fe3 2.002 . S
O4 C21 1.295 . S
O5 Fe0 1.997 . S
O5 C21 1.235 . S
O6 Fe0 2.002 . S
O6 C7 1.295 . S
C7 O6 1.295 . S
C7 O9 1.235 . S
C8 O13 1.287 . S
C8 O14 1.255 . S
O9 Fe1 1.997 . S
O9 C7 1.235 . S
C10 O16 1.287 . S
C10 O17 1.255 . S
O11 Fe0 1.976 1_655 S
O11 C18 1.287 . S
O12 Fe1 1.996 . S
O12 C18 1.255 1_455 S
O13 Fe3 1.976 1_655 S
O13 C8 1.287 . S
O14 Fe0 1.996 1_655 S
O14 C8 1.255 . S
C15 O19 1.295 . S
C15 O20 1.235 . S
O16 Fe1 1.976 1_655 S
O16 C10 1.287 . S
O17 Fe3 1.996 1_655 S
O17 C10 1.255 . S
C18 O11 1.287 . S
C18 O12 1.255 1_655 S
O19 Fe1 2.002 . S
O19 C15 1.295 . S
O20 Fe3 1.997 . S
O20 C15 1.235 . S
C21 O4 1.295 . S
C21 O5 1.235 . S
Fe22 O24 1.918 . S
Fe22 O27 1.997 . S
Fe22 O28 2.002 1_565 S
Fe22 O33 1.976 . S
Fe22 O36 1.996 . S
Fe23 O24 1.918 . S
Fe23 O31 1.997 . S
Fe23 O34 1.996 . S
Fe23 O38 1.976 . S
Fe23 O41 2.002 . S
O24 Fe22 1.918 . S
O24 Fe23 1.918 . S
O24 Fe25 1.918 . S
Fe25 O24 1.918 . S
Fe25 O26 2.002 . S
Fe25 O35 1.976 . S
Fe25 O39 1.996 . S
Fe25 O42 1.997 . S
O26 Fe25 2.002 . S
O26 C43 1.295 . S
O27 Fe22 1.997 . S
O27 C43 1.235 . S
O28 Fe22 2.002 1_545 S
O28 C29 1.295 . S
C29 O28 1.295 . S
C29 O31 1.235 1_545 S
C30 O35 1.287 . S
C30 O36 1.255 . S
O31 Fe23 1.997 . S
O31 C29 1.235 1_565 S
C32 O38 1.287 . S
C32 O39 1.255 . S
O33 Fe22 1.976 . S
O33 C40 1.287 1_655 S
O34 Fe23 1.996 . S
O34 C40 1.255 1_655 S
O35 Fe25 1.976 . S
O35 C30 1.287 . S
O36 Fe22 1.996 . S
O36 C30 1.255 . S
C37 O41 1.295 . S
C37 O42 1.235 . S
O38 Fe23 1.976 . S
O38 C32 1.287 . S
O39 Fe25 1.996 . S
O39 C32 1.255 . S
C40 O33 1.287 1_455 S
C40 O34 1.255 1_455 S
O41 Fe23 2.002 . S
O41 C37 1.295 . S
O42 Fe25 1.997 . S
O42 C37 1.235 . S
C43 O26 1.295 . S
C43 O27 1.235 . S
Fe44 O46 1.918 . S
Fe44 O49 1.997 . S
Fe44 O50 2.002 . S
Fe44 O55 1.976 . S
Fe44 O58 1.996 1_545 S
Fe45 O46 1.918 . S
Fe45 O53 1.997 . S
Fe45 O56 1.996 . S
Fe45 O60 1.976 . S
Fe45 O63 2.002 . S
O46 Fe44 1.918 . S
O46 Fe45 1.918 . S
O46 Fe47 1.918 . S
Fe47 O46 1.918 . S
Fe47 O48 2.002 . S
Fe47 O57 1.976 1_545 S
Fe47 O61 1.996 1_545 S
Fe47 O64 1.997 . S
O48 Fe47 2.002 . S
O48 C65 1.295 . S
O49 Fe44 1.997 . S
O49 C65 1.235 . S
O50 Fe44 2.002 . S
O50 C51 1.295 . S
C51 O50 1.295 . S
C51 O53 1.235 . S
C52 O57 1.287 . S
C52 O58 1.255 . S
O53 Fe45 1.997 . S
O53 C51 1.235 . S
C54 O60 1.287 1_565 S
C54 O61 1.255 . S
O55 Fe44 1.976 . S
O55 C62 1.287 . S
O56 Fe45 1.996 . S
O56 C62 1.255 . S
O57 Fe47 1.976 1_565 S
O57 C52 1.287 . S
O58 Fe44 1.996 1_565 S
O58 C52 1.255 . S
C59 O63 1.295 . S
C59 O64 1.235 . S
O60 Fe45 1.976 . S
O60 C54 1.287 1_545 S
O61 Fe47 1.996 1_565 S
O61 C54 1.255 . S
C62 O55 1.287 . S
C62 O56 1.255 . S
O63 Fe45 2.002 . S
O63 C59 1.295 . S
O64 Fe47 1.997 . S
O64 C59 1.235 . S
C65 O48 1.295 . S
C65 O49 1.235 . S
Fe66 O68 1.918 . S
Fe66 O71 1.997 1_455 S
Fe66 O72 2.002 1_455 S
Fe66 O77 1.976 . S
Fe66 O80 1.996 . S
Fe67 O68 1.918 . S
Fe67 O75 1.997 1_455 S
Fe67 O78 1.996 . S
Fe67 O82 1.976 . S
Fe67 O85 2.002 1_455 S
O68 Fe66 1.918 . S
O68 Fe67 1.918 . S
O68 Fe69 1.918 . S
Fe69 O68 1.918 . S
Fe69 O70 2.002 1_455 S
Fe69 O79 1.976 1_565 S
Fe69 O83 1.996 . S
Fe69 O86 1.997 . S
O70 Fe69 2.002 1_655 S
O70 C87 1.295 . S
O71 Fe66 1.997 1_655 S
O71 C87 1.235 . S
O72 Fe66 2.002 1_655 S
O72 C73 1.295 . S
C73 O72 1.295 . S
C73 O75 1.235 . S
C74 O79 1.287 . S
C74 O80 1.255 1_545 S
O75 Fe67 1.997 1_655 S
O75 C73 1.235 . S
C76 O82 1.287 . S
C76 O83 1.255 . S
O77 Fe66 1.976 . S
O77 C84 1.287 . S
O78 Fe67 1.996 . S
O78 C84 1.255 . S
O79 Fe69 1.976 1_545 S
O79 C74 1.287 . S
O80 Fe66 1.996 . S
O80 C74 1.255 1_565 S
C81 O85 1.295 . S
C81 O86 1.235 1_655 S
O82 Fe67 1.976 . S
O82 C76 1.287 . S
O83 Fe69 1.996 . S
O83 C76 1.255 . S
C84 O77 1.287 . S
C84 O78 1.255 . S
O85 Fe67 2.002 1_655 S
O85 C81 1.295 . S
O86 Fe69 1.997 . S
O86 C81 1.235 1_455 S
C87 O70 1.295 . S
C87 O71 1.235 . S
Fe88 O90 1.918 . S
Fe88 O93 1.997 . S
Fe88 O94 2.002 . S
Fe88 O99 1.976 . S
Fe88 O102 1.996 . S
Fe89 O90 1.918 . S
Fe89 O97 1.997 . S
Fe89 O100 1.996 . S
Fe89 O104 1.976 . S
Fe89 O107 2.002 . S
O90 Fe88 1.918 . S
O90 Fe89 1.918 . S
O90 Fe91 1.918 . S
Fe91 O90 1.918 . S
Fe91 O92 2.002 . S
Fe91 O101 1.976 . S
Fe91 O105 1.996 . S
Fe91 O108 1.997 . S
O92 Fe91 2.002 . S
O92 C109 1.295 . S
O93 Fe88 1.997 . S
O93 C109 1.235 . S
O94 Fe88 2.002 . S
O94 C95 1.295 . S
C95 O94 1.295 . S
C95 O97 1.235 . S
C96 O101 1.287 . S
C96 O102 1.255 . S
O97 Fe89 1.997 . S
O97 C95 1.235 . S
C98 O104 1.287 . S
C98 O105 1.255 . S
O99 Fe88 1.976 . S
O99 C106 1.287 . S
O100 Fe89 1.996 . S
O100 C106 1.255 . S
O101 Fe91 1.976 . S
O101 C96 1.287 . S
O102 Fe88 1.996 . S
O102 C96 1.255 . S
C103 O107 1.295 . S
C103 O108 1.235 . S
O104 Fe89 1.976 . S
O104 C98 1.287 . S
O105 Fe91 1.996 . S
O105 C98 1.255 . S
C106 O99 1.287 . S
C106 O100 1.255 . S
O107 Fe89 2.002 . S
O107 C103 1.295 . S
O108 Fe91 1.997 . S
O108 C103 1.235 . S
C109 O92 1.295 . S
C109 O93 1.235 . S
Fe110 O112 1.918 . S
Fe110 O115 1.997 1_545 S
Fe110 O116 2.002 1_545 S
Fe110 O121 1.976 . S
Fe110 O124 1.996 . S
Fe111 O112 1.918 . S
Fe111 O119 1.997 1_545 S
Fe111 O122 1.996 . S
Fe111 O126 1.976 . S
Fe111 O129 2.002 . S
O112 Fe110 1.918 . S
O112 Fe111 1.918 . S
O112 Fe113 1.918 . S
Fe113 O112 1.918 . S
Fe113 O114 2.002 . S
Fe113 O123 1.976 . S
Fe113 O127 1.996 . S
Fe113 O130 1.997 . S
O114 Fe113 2.002 . S
O114 C131 1.295 1_545 S
O115 Fe110 1.997 1_565 S
O115 C131 1.235 . S
O116 Fe110 2.002 1_565 S
O116 C117 1.295 . S
C117 O116 1.295 . S
C117 O119 1.235 . S
C118 O123 1.287 1_455 S
C118 O124 1.255 1_455 S
O119 Fe111 1.997 1_565 S
O119 C117 1.235 . S
C120 O126 1.287 . S
C120 O127 1.255 . S
O121 Fe110 1.976 . S
O121 C128 1.287 . S
O122 Fe111 1.996 . S
O122 C128 1.255 . S
O123 Fe113 1.976 . S
O123 C118 1.287 1_655 S
O124 Fe110 1.996 . S
O124 C118 1.255 1_655 S
C125 O129 1.295 . S
C125 O130 1.235 . S
O126 Fe111 1.976 . S
O126 C120 1.287 . S
O127 Fe113 1.996 . S
O127 C120 1.255 . S
C128 O121 1.287 . S
C128 O122 1.255 . S
O129 Fe111 2.002 . S
O129 C125 1.295 . S
O130 Fe113 1.997 . S
O130 C125 1.235 . S
C131 O114 1.295 1_565 S
C131 O115 1.235 . S
Fe132 O134 1.918 . S
Fe132 O137 1.997 1_554 S
Fe132 O138 2.002 . S
Fe132 O143 1.976 . S
Fe132 O146 1.996 . S
Fe133 O134 1.918 . S
Fe133 O141 1.997 . S
Fe133 O144 1.996 . S
Fe133 O148 1.976 . S
Fe133 O151 2.002 . S
O134 Fe132 1.918 . S
O134 Fe133 1.918 . S
O134 Fe135 1.918 . S
Fe135 O134 1.918 . S
Fe135 O136 2.002 1_554 S
Fe135 O145 1.976 1_554 S
Fe135 O149 1.996 . S
Fe135 O152 1.997 . S
O136 Fe135 2.002 1_556 S
O136 C153 1.295 . S
O137 Fe132 1.997 1_556 S
O137 C153 1.235 . S
O138 Fe132 2.002 . S
O138 C139 1.295 . S
C139 O138 1.295 . S
C139 O141 1.235 . S
C140 O145 1.287 1_554 S
C140 O146 1.255 . S
O141 Fe133 1.997 . S
O141 C139 1.235 . S
C142 O148 1.287 . S
C142 O149 1.255 . S
O143 Fe132 1.976 . S
O143 C150 1.287 . S
O144 Fe133 1.996 . S
O144 C150 1.255 . S
O145 Fe135 1.976 1_556 S
O145 C140 1.287 1_556 S
O146 Fe132 1.996 . S
O146 C140 1.255 . S
C147 O151 1.295 . S
C147 O152 1.235 . S
O148 Fe133 1.976 . S
O148 C142 1.287 . S
O149 Fe135 1.996 . S
O149 C142 1.255 . S
C150 O143 1.287 . S
C150 O144 1.255 . S
O151 Fe133 2.002 . S
O151 C147 1.295 . S
O152 Fe135 1.997 . S
O152 C147 1.235 . S
C153 O136 1.295 . S
C153 O137 1.235 . S
Fe154 O156 1.918 . S
Fe154 O159 1.997 1_554 S
Fe154 O160 2.002 . S
Fe154 O165 1.976 . S
Fe154 O168 1.996 . S
Fe155 O156 1.918 . S
Fe155 O163 1.997 . S
Fe155 O166 1.996 . S
Fe155 O170 1.976 . S
Fe155 O173 2.002 . S
O156 Fe154 1.918 . S
O156 Fe155 1.918 . S
O156 Fe157 1.918 . S
Fe157 O156 1.918 . S
Fe157 O158 2.002 1_554 S
Fe157 O167 1.976 1_554 S
Fe157 O171 1.996 . S
Fe157 O174 1.997 . S
O158 Fe157 2.002 1_556 S
O158 C175 1.295 . S
O159 Fe154 1.997 1_556 S
O159 C175 1.235 . S
O160 Fe154 2.002 . S
O160 C161 1.295 . S
C161 O160 1.295 . S
C161 O163 1.235 . S
C162 O167 1.287 1_554 S
C162 O168 1.255 . S
O163 Fe155 1.997 . S
O163 C161 1.235 . S
C164 O170 1.287 . S
C164 O171 1.255 . S
O165 Fe154 1.976 . S
O165 C172 1.287 . S
O166 Fe155 1.996 . S
O166 C172 1.255 . S
O167 Fe157 1.976 1_556 S
O167 C162 1.287 1_556 S
O168 Fe154 1.996 . S
O168 C162 1.255 . S
C169 O173 1.295 . S
C169 O174 1.235 . S
O170 Fe155 1.976 . S
O170 C164 1.287 . S
O171 Fe157 1.996 . S
O171 C164 1.255 . S
C172 O165 1.287 . S
C172 O166 1.255 . S
O173 Fe155 2.002 . S
O173 C169 1.295 . S
O174 Fe157 1.997 . S
O174 C169 1.235 . S
C175 O158 1.295 . S
C175 O159 1.235 . S
Fe176 O178 1.918 . S
Fe176 O181 1.997 . S
Fe176 O182 2.002 . S
Fe176 O187 1.976 . S
Fe176 O190 1.996 . S
Fe177 O178 1.918 . S
Fe177 O185 1.997 . S
Fe177 O188 1.996 . S
Fe177 O192 1.976 1_554 S
Fe177 O195 2.002 1_554 S
O178 Fe176 1.918 . S
O178 Fe177 1.918 . S
O178 Fe179 1.930 . S
Fe179 O178 1.930 . S
Fe179 O180 2.001 . S
Fe179 O189 1.975 1_655 S
Fe179 O193 1.994 1_655 S
Fe179 O196 1.996 1_554 S
O180 Fe179 2.001 . S
O180 C197 1.295 . S
O181 Fe176 1.997 . S
O181 C197 1.235 . S
O182 Fe176 2.002 . S
O182 C183 1.295 . S
C183 O182 1.295 . S
C183 O185 1.235 . S
C184 O189 1.287 1_655 S
C184 O190 1.255 . S
O185 Fe177 1.997 . S
O185 C183 1.235 . S
C186 O192 1.287 1_454 S
C186 O193 1.255 . S
O187 Fe176 1.976 . S
O187 C194 1.287 . S
O188 Fe177 1.996 . S
O188 C194 1.255 . S
O189 Fe179 1.975 1_455 S
O189 C184 1.287 1_455 S
O190 Fe176 1.996 . S
O190 C184 1.255 . S
C191 O195 1.295 . S
C191 O196 1.235 . S
O192 Fe177 1.976 1_556 S
O192 C186 1.287 1_656 S
O193 Fe179 1.994 1_455 S
O193 C186 1.255 . S
C194 O187 1.287 . S
C194 O188 1.255 . S
O195 Fe177 2.002 1_556 S
O195 C191 1.295 . S
O196 Fe179 1.996 1_556 S
O196 C191 1.235 . S
C197 O180 1.295 . S
C197 O181 1.235 . S
Fe198 O200 1.918 . S
Fe198 O203 1.997 . S
Fe198 O204 2.002 . S
Fe198 O209 1.976 . S
Fe198 O212 1.996 . S
Fe199 O200 1.918 . S
Fe199 O207 1.997 . S
Fe199 O210 1.996 . S
Fe199 O214 1.976 . S
Fe199 O217 2.002 . S
O200 Fe198 1.918 . S
O200 Fe199 1.918 . S
O200 Fe201 1.918 . S
Fe201 O200 1.918 . S
Fe201 O202 2.002 . S
Fe201 O211 1.976 . S
Fe201 O215 1.996 . S
Fe201 O218 1.997 . S
O202 Fe201 2.002 . S
O202 C219 1.295 . S
O203 Fe198 1.997 . S
O203 C219 1.235 . S
O204 Fe198 2.002 . S
O204 C205 1.295 . S
C205 O204 1.295 . S
C205 O207 1.235 . S
C206 O211 1.287 . S
C206 O212 1.255 . S
O207 Fe199 1.997 . S
O207 C205 1.235 . S
C208 O214 1.287 . S
C208 O215 1.255 . S
O209 Fe198 1.976 . S
O209 C216 1.287 . S
O210 Fe199 1.996 . S
O210 C216 1.255 . S
O211 Fe201 1.976 . S
O211 C206 1.287 . S
O212 Fe198 1.996 . S
O212 C206 1.255 . S
C213 O217 1.295 . S
C213 O218 1.235 . S
O214 Fe199 1.976 . S
O214 C208 1.287 . S
O215 Fe201 1.996 . S
O215 C208 1.255 . S
C216 O209 1.287 . S
C216 O210 1.255 . S
O217 Fe199 2.002 . S
O217 C213 1.295 . S
O218 Fe201 1.997 . S
O218 C213 1.235 . S
C219 O202 1.295 . S
C219 O203 1.235 . S
Fe220 O222 1.918 . S
Fe220 O225 1.997 . S
Fe220 O226 2.002 . S
Fe220 O231 1.976 . S
Fe220 O234 1.996 . S
Fe221 O222 1.918 . S
Fe221 O229 1.997 . S
Fe221 O232 1.996 1_655 S
Fe221 O236 1.976 1_655 S
Fe221 O239 2.002 . S
O222 Fe220 1.918 . S
O222 Fe221 1.918 . S
O222 Fe223 1.918 . S
Fe223 O222 1.918 . S
Fe223 O224 2.002 . S
Fe223 O233 1.976 . S
Fe223 O237 1.996 . S
Fe223 O240 1.997 . S
O224 Fe223 2.002 . S
O224 C241 1.295 . S
O225 Fe220 1.997 . S
O225 C241 1.235 . S
O226 Fe220 2.002 . S
O226 C227 1.295 . S
C227 O226 1.295 . S
C227 O229 1.235 . S
C228 O233 1.287 . S
C228 O234 1.255 . S
O229 Fe221 1.997 . S
O229 C227 1.235 . S
C230 O236 1.287 . S
C230 O237 1.255 1_455 S
O231 Fe220 1.976 . S
O231 C238 1.281 1_655 S
O232 Fe221 1.996 1_455 S
O232 C238 1.256 . S
O233 Fe223 1.976 . S
O233 C228 1.287 . S
O234 Fe220 1.996 . S
O234 C228 1.255 . S
C235 O239 1.295 . S
C235 O240 1.235 . S
O236 Fe221 1.976 1_455 S
O236 C230 1.287 . S
O237 Fe223 1.996 . S
O237 C230 1.255 1_655 S
C238 O231 1.281 1_455 S
C238 O232 1.256 . S
O239 Fe221 2.002 . S
O239 C235 1.295 . S
O240 Fe223 1.997 . S
O240 C235 1.235 . S
C241 O224 1.295 . S
C241 O225 1.235 . S
Fe242 O244 1.918 . S
Fe242 O247 1.997 . S
Fe242 O248 2.002 . S
Fe242 O253 1.976 . S
Fe242 O256 1.996 . S
Fe243 O244 1.918 . S
Fe243 O251 1.997 . S
Fe243 O254 1.996 . S
Fe243 O258 1.976 . S
Fe243 O261 2.002 . S
O244 Fe242 1.918 . S
O244 Fe243 1.918 . S
O244 Fe245 1.918 . S
Fe245 O244 1.918 . S
Fe245 O246 2.002 . S
Fe245 O255 1.976 . S
Fe245 O259 1.996 . S
Fe245 O262 1.997 . S
O246 Fe245 2.002 . S
O246 C263 1.295 . S
O247 Fe242 1.997 . S
O247 C263 1.235 . S
O248 Fe242 2.002 . S
O248 C249 1.295 . S
C249 O248 1.295 . S
C249 O251 1.235 . S
C250 O255 1.287 . S
C250 O256 1.255 . S
O251 Fe243 1.997 . S
O251 C249 1.235 . S
C252 O258 1.287 . S
C252 O259 1.255 . S
O253 Fe242 1.976 . S
O253 C260 1.287 . S
O254 Fe243 1.996 . S
O254 C260 1.255 . S
O255 Fe245 1.976 . S
O255 C250 1.287 . S
O256 Fe242 1.996 . S
O256 C250 1.255 . S
C257 O261 1.295 . S
C257 O262 1.235 . S
O258 Fe243 1.976 . S
O258 C252 1.287 . S
O259 Fe245 1.996 . S
O259 C252 1.255 . S
C260 O253 1.287 . S
C260 O254 1.255 . S
O261 Fe243 2.002 . S
O261 C257 1.295 . S
O262 Fe245 1.997 . S
O262 C257 1.235 . S
C263 O246 1.295 . S
C263 O247 1.235 . S
Fe264 O266 1.918 . S
Fe264 O269 1.997 . S
Fe264 O270 2.002 . S
Fe264 O275 1.976 . S
Fe264 O278 1.996 . S
Fe265 O266 1.918 . S
Fe265 O273 1.997 . S
Fe265 O276 1.996 . S
Fe265 O280 1.976 . S
Fe265 O283 2.002 . S
O266 Fe264 1.918 . S
O266 Fe265 1.918 . S
O266 Fe267 1.918 1_565 S
Fe267 O266 1.918 1_545 S
Fe267 O268 2.002 . S
Fe267 O277 1.976 1_545 S
Fe267 O281 1.996 1_545 S
Fe267 O284 1.997 . S
O268 Fe267 2.002 . S
O268 C285 1.295 . S
O269 Fe264 1.997 . S
O269 C285 1.235 1_565 S
O270 Fe264 2.002 . S
O270 C271 1.295 . S
C271 O270 1.295 . S
C271 O273 1.235 . S
C272 O277 1.287 . S
C272 O278 1.255 . S
O273 Fe265 1.997 . S
O273 C271 1.235 . S
C274 O280 1.287 . S
C274 O281 1.255 . S
O275 Fe264 1.976 . S
O275 C282 1.287 . S
O276 Fe265 1.996 . S
O276 C282 1.255 . S
O277 Fe267 1.976 1_565 S
O277 C272 1.287 . S
O278 Fe264 1.996 . S
O278 C272 1.255 . S
C279 O283 1.295 1_545 S
C279 O284 1.235 . S
O280 Fe265 1.976 . S
O280 C274 1.287 . S
O281 Fe267 1.996 1_565 S
O281 C274 1.255 . S
C282 O275 1.287 . S
C282 O276 1.255 . S
O283 Fe265 2.002 . S
O283 C279 1.295 1_565 S
O284 Fe267 1.997 . S
O284 C279 1.235 . S
C285 O268 1.295 . S
C285 O269 1.235 1_545 S
Fe286 O288 1.918 . S
Fe286 O291 1.997 . S
Fe286 O292 2.002 . S
Fe286 O297 1.976 . S
Fe286 O300 1.996 . S
Fe287 O288 1.918 . S
Fe287 O295 1.997 . S
Fe287 O298 1.996 . S
Fe287 O302 1.976 . S
Fe287 O305 2.002 . S
O288 Fe286 1.918 . S
O288 Fe287 1.918 . S
O288 Fe289 1.918 . S
Fe289 O288 1.918 . S
Fe289 O290 2.002 . S
Fe289 O299 1.976 . S
Fe289 O303 1.996 . S
Fe289 O306 1.997 . S
O290 Fe289 2.002 . S
O290 C307 1.295 . S
O291 Fe286 1.997 . S
O291 C307 1.235 . S
O292 Fe286 2.002 . S
O292 C293 1.295 . S
C293 O292 1.295 . S
C293 O295 1.235 . S
C294 O299 1.287 . S
C294 O300 1.255 . S
O295 Fe287 1.997 . S
O295 C293 1.235 . S
C296 O302 1.287 . S
C296 O303 1.255 . S
O297 Fe286 1.976 . S
O297 C304 1.287 . S
O298 Fe287 1.996 . S
O298 C304 1.255 . S
O299 Fe289 1.976 . S
O299 C294 1.287 . S
O300 Fe286 1.996 . S
O300 C294 1.255 . S
C301 O305 1.295 . S
C301 O306 1.235 . S
O302 Fe287 1.976 . S
O302 C296 1.287 . S
O303 Fe289 1.996 . S
O303 C296 1.255 . S
C304 O297 1.287 . S
C304 O298 1.255 . S
O305 Fe287 2.002 . S
O305 C301 1.295 . S
O306 Fe289 1.997 . S
O306 C301 1.235 . S
C307 O290 1.295 . S
C307 O291 1.235 . S
Fe308 O310 1.918 . S
Fe308 O313 1.997 . S
Fe308 O314 2.002 . S
Fe308 O319 1.976 . S
Fe308 O322 1.996 . S
Fe309 O310 1.918 . S
Fe309 O317 1.997 . S
Fe309 O320 1.996 . S
Fe309 O324 1.976 . S
Fe309 O327 2.002 . S
O310 Fe308 1.918 . S
O310 Fe309 1.918 . S
O310 Fe311 1.918 . S
Fe311 O310 1.918 . S
Fe311 O312 2.002 . S
Fe311 O321 1.976 . S
Fe311 O325 1.996 . S
Fe311 O328 1.997 . S
O312 Fe311 2.002 . S
O312 C329 1.295 . S
O313 Fe308 1.997 . S
O313 C329 1.235 . S
O314 Fe308 2.002 . S
O314 C315 1.295 . S
C315 O314 1.295 . S
C315 O317 1.235 . S
C316 O321 1.287 . S
C316 O322 1.255 . S
O317 Fe309 1.997 . S
O317 C315 1.235 . S
C318 O324 1.287 . S
C318 O325 1.255 . S
O319 Fe308 1.976 . S
O319 C326 1.287 . S
O320 Fe309 1.996 . S
O320 C326 1.255 . S
O321 Fe311 1.976 . S
O321 C316 1.287 . S
O322 Fe308 1.996 . S
O322 C316 1.255 . S
C323 O327 1.295 . S
C323 O328 1.235 . S
O324 Fe309 1.976 . S
O324 C318 1.287 . S
O325 Fe311 1.996 . S
O325 C318 1.255 . S
C326 O319 1.287 . S
C326 O320 1.255 . S
O327 Fe309 2.002 . S
O327 C323 1.295 . S
O328 Fe311 1.997 . S
O328 C323 1.235 . S
C329 O312 1.295 . S
C329 O313 1.235 . S
Fe330 O332 1.918 . S
Fe330 O335 1.997 . S
Fe330 O336 2.002 . S
Fe330 O341 1.976 . S
Fe330 O344 1.996 . S
Fe331 O332 1.918 . S
Fe331 O339 1.997 . S
Fe331 O342 1.996 . S
Fe331 O346 1.976 . S
Fe331 O349 2.002 1_556 S
O332 Fe330 1.918 . S
O332 Fe331 1.918 . S
O332 Fe333 1.918 . S
Fe333 O332 1.918 . S
Fe333 O334 2.002 . S
Fe333 O343 1.976 . S
Fe333 O347 1.996 1_556 S
Fe333 O350 1.997 1_556 S
O334 Fe333 2.002 . S
O334 C351 1.295 . S
O335 Fe330 1.997 . S
O335 C351 1.235 . S
O336 Fe330 2.002 . S
O336 C337 1.295 . S
C337 O336 1.295 . S
C337 O339 1.235 . S
C338 O343 1.287 . S
C338 O344 1.255 . S
O339 Fe331 1.997 . S
O339 C337 1.235 . S
C340 O346 1.287 . S
C340 O347 1.255 1_556 S
O341 Fe330 1.976 . S
O341 C348 1.287 . S
O342 Fe331 1.996 . S
O342 C348 1.255 . S
O343 Fe333 1.976 . S
O343 C338 1.287 . S
O344 Fe330 1.996 . S
O344 C338 1.255 . S
C345 O349 1.295 . S
C345 O350 1.235 . S
O346 Fe331 1.976 . S
O346 C340 1.287 . S
O347 Fe333 1.996 1_554 S
O347 C340 1.255 1_554 S
C348 O341 1.287 . S
C348 O342 1.255 . S
O349 Fe331 2.002 1_554 S
O349 C345 1.295 . S
O350 Fe333 1.997 1_554 S
O350 C345 1.235 . S
C351 O334 1.295 . S
C351 O335 1.235 . S
Fe352 O354 1.918 . S
Fe352 O357 1.997 . S
Fe352 O358 2.002 . S
Fe352 O363 1.976 . S
Fe352 O366 1.996 . S
Fe353 O354 1.918 1_545 S
Fe353 O361 1.997 1_545 S
Fe353 O364 1.996 . S
Fe353 O368 1.976 . S
Fe353 O371 2.002 1_556 S
O354 Fe352 1.918 . S
O354 Fe353 1.918 1_565 S
O354 Fe355 1.918 . S
Fe355 O354 1.918 . S
Fe355 O356 2.002 . S
Fe355 O365 1.976 . S
Fe355 O369 1.996 1_556 S
Fe355 O372 1.997 1_556 S
O356 Fe355 2.002 . S
O356 C373 1.295 . S
O357 Fe352 1.997 . S
O357 C373 1.235 . S
O358 Fe352 2.002 . S
O358 C359 1.295 . S
C359 O358 1.295 . S
C359 O361 1.235 . S
C360 O365 1.287 . S
C360 O366 1.255 . S
O361 Fe353 1.997 1_565 S
O361 C359 1.235 . S
C362 O368 1.296 . S
C362 O369 1.250 1_546 S
O363 Fe352 1.976 . S
O363 C370 1.287 1_565 S
O364 Fe353 1.996 . S
O364 C370 1.255 . S
O365 Fe355 1.976 . S
O365 C360 1.287 . S
O366 Fe352 1.996 . S
O366 C360 1.255 . S
C367 O371 1.295 1_565 S
C367 O372 1.235 . S
O368 Fe353 1.976 . S
O368 C362 1.296 . S
O369 Fe355 1.996 1_554 S
O369 C362 1.250 1_564 S
C370 O363 1.287 1_545 S
C370 O364 1.255 . S
O371 Fe353 2.002 1_554 S
O371 C367 1.295 1_545 S
O372 Fe355 1.997 1_554 S
O372 C367 1.235 . S
C373 O356 1.295 . S
C373 O357 1.235 . S
Fe374 O376 1.918 . S
Fe374 O379 1.997 . S
Fe374 O380 2.002 . S
Fe374 O385 1.976 . S
Fe374 O388 1.996 . S
Fe375 O376 1.918 . S
Fe375 O383 1.997 . S
Fe375 O386 1.996 . S
Fe375 O390 1.976 1_556 S
Fe375 O393 2.002 1_556 S
O376 Fe374 1.918 . S
O376 Fe375 1.918 . S
O376 Fe377 1.918 . S
Fe377 O376 1.918 . S
Fe377 O378 2.002 . S
Fe377 O387 1.976 . S
Fe377 O391 1.996 1_556 S
Fe377 O394 1.997 . S
O378 Fe377 2.002 . S
O378 C395 1.295 . S
O379 Fe374 1.997 . S
O379 C395 1.235 . S
O380 Fe374 2.002 . S
O380 C381 1.295 . S
C381 O380 1.295 . S
C381 O383 1.235 . S
C382 O387 1.287 . S
C382 O388 1.255 . S
O383 Fe375 1.997 . S
O383 C381 1.235 . S
C384 O390 1.287 . S
C384 O391 1.255 . S
O385 Fe374 1.976 . S
O385 C392 1.287 . S
O386 Fe375 1.996 . S
O386 C392 1.255 . S
O387 Fe377 1.976 . S
O387 C382 1.287 . S
O388 Fe374 1.996 . S
O388 C382 1.255 . S
C389 O393 1.295 1_556 S
C389 O394 1.235 . S
O390 Fe375 1.976 1_554 S
O390 C384 1.287 . S
O391 Fe377 1.996 1_554 S
O391 C384 1.255 . S
C392 O385 1.287 . S
C392 O386 1.255 . S
O393 Fe375 2.002 1_554 S
O393 C389 1.295 1_554 S
O394 Fe377 1.997 . S
O394 C389 1.235 . S
C395 O378 1.295 . S
C395 O379 1.235 . S
C59 C15 1.694 . S
C10 C29 1.688 . S
C40 C54 1.660 . S
C87 C131 1.790 . S
C74 C109 1.766 . S
C96 C118 1.773 . S
C194 C147 1.656 . S
C169 C142 1.673 . S
C164 C183 1.690 . S
C206 C257 1.754 . S
C219 C228 1.772 . S
C252 C241 1.790 . S
C323 C271 1.688 . S
C282 C293 1.656 . S
C304 C318 1.657 . S
C381 C351 1.771 . S
C373 C338 1.779 . S
C392 C360 1.755 . S
C21 C294 2.033 . S
C329 C37 2.048 . S
C62 C272 2.017 1_545 S
C175 C65 2.070 . S
C18 C191 2.044 . S
C153 C30 2.027 . S
C235 C81 2.037 . S
C103 C249 2.023 . S
C213 C128 1.991 . S
C125 C367 2.007 1_545 S
C384 C84 1.967 . S
C345 C106 1.986 . S
C301 C184 2.023 1_455 S
C326 C150 1.996 . S
C172 C279 2.039 . S
C216 C370 1.937 . S
C395 C238 1.988 . S
C250 C348 1.951 . S
C7 C337 1.516 . S
C43 C359 1.510 . S
C382 C52 1.498 . S
C263 C51 1.471 . S
C205 C8 1.482 . S
C32 C227 1.502 . S
C73 C139 1.499 . S
C95 C161 1.521 . S
C120 C197 1.531 . S
C117 C315 1.454 . S
C76 C274 1.440 . S
C296 C98 1.435 . S
C186 C389 1.421 1_554 S
C340 C140 1.431 1_556 S
C162 C362 1.450 1_554 S
C208 C285 1.449 . S
C230 C307 1.470 . S
C316 C260 1.486 . S
