# Generated by pormake.
# Topology rob, (6)-cn, num edge types: 1
# Building blocks:
#     Node 0, Type 0, BuildingBlock: KUMJIN_clean_sbu_0, # of connection points: 6
#     Node 1, Type 0, BuildingBlock: KUMJIN_clean_sbu_0, # of connection points: 6
#     Node 2, Type 0, BuildingBlock: KUMJIN_clean_sbu_0, # of connection points: 6
#     Node 3, Type 0, BuildingBlock: KUMJIN_clean_sbu_0, # of connection points: 6
#     Edge 4, Type (0, 0), BuildingBlock: KIFKEQ_clean_linker_1, # of connection points: 2
#     Edge 5, Type (0, 0), BuildingBlock: KIFKEQ_clean_linker_1, # of connection points: 2
#     Edge 6, Type (0, 0), BuildingBlock: KIFKEQ_clean_linker_1, # of connection points: 2
#     Edge 7, Type (0, 0), BuildingBlock: KIFKEQ_clean_linker_1, # of connection points: 2
#     Edge 8, Type (0, 0), BuildingBlock: KIFKEQ_clean_linker_1, # of connection points: 2
#     Edge 9, Type (0, 0), BuildingBlock: KIFKEQ_clean_linker_1, # of connection points: 2
#     Edge 10, Type (0, 0), BuildingBlock: KIFKEQ_clean_linker_1, # of connection points: 2
#     Edge 11, Type (0, 0), BuildingBlock: KIFKEQ_clean_linker_1, # of connection points: 2
#     Edge 12, Type (0, 0), BuildingBlock: KIFKEQ_clean_linker_1, # of connection points: 2
#     Edge 13, Type (0, 0), BuildingBlock: KIFKEQ_clean_linker_1, # of connection points: 2
#     Edge 14, Type (0, 0), BuildingBlock: KIFKEQ_clean_linker_1, # of connection points: 2
#     Edge 15, Type (0, 0), BuildingBlock: KIFKEQ_clean_linker_1, # of connection points: 2
# Relax obj value: 0.035
# Max RMSD: 0.159
# Mean RMSD: 0.159
data_MOF--net-rob--node1-KUMJIN_clean_sbu_0--edge1-KIFKEQ_clean_linker_1
_symmetry_space_group_name_H-M    P1
_symmetry_Int_Tables_number       1
_symmetry_cell_setting            triclinic
loop_
_symmetry_equiv_pos_as_xyz
'x, y, z'
_cell_length_a     16.693989
_cell_length_b     26.148083
_cell_length_c     33.98278
_cell_angle_alpha  118.58938
_cell_angle_beta   89.97599
_cell_angle_gamma 90.02314
loop_
_atom_site_label
_atom_site_type_symbol
_atom_site_fract_x
_atom_site_fract_y
_atom_site_fract_z
_atom_type_partial_charge
Eu0 Eu 0.16836 0.31763 0.06736 0.0
C1 C 0.36627 0.08815 0.96239 0.0
C2 C 0.49015 0.10606 1.004 0.0
C3 C 0.43782 1.00753 0.96293 0.0
C4 C 0.42351 0.12668 0.99023 0.0
C5 C 0.37346 0.02799 0.94777 0.0
C6 C 0.49656 0.04641 0.99056 0.0
C7 C 0.25649 1.01229 0.90146 0.0
N8 N 0.30526 0.10926 0.94804 0.0
C9 C 0.25213 0.07229 0.91675 0.0
C10 C 0.31693 0.99007 0.91741 0.0
Eu11 Eu 0.29968 0.21145 0.97689 0.0
N12 N 0.41617 0.1839 1.00197 0.0
C13 C 0.47576 0.22231 0.02532 0.0
C14 C 0.54935 0.14581 0.02994 0.0
C15 C 0.54253 0.20408 0.0402 0.0
H16 H 0.20513 0.08937 0.9045 0.0
H17 H 0.58864 0.23503 0.0596 0.0
H18 H 0.54742 0.02977 1.00071 0.0
H19 H 0.21332 0.98324 0.87738 0.0
H20 H 0.47132 0.26747 0.03357 0.0
H21 H 0.88082 0.29166 0.98278 0.0
H22 H 0.60126 0.13175 0.04137 0.0
H23 H 0.26008 0.44031 0.14068 0.0
H24 H -0.0012 0.26013 1.00903 0.0
H25 H 0.24846 0.54662 0.16961 0.0
H26 H 0.44355 0.96161 0.95277 0.0
H27 H 0.86478 0.39531 1.00267 0.0
H28 H 0.91492 0.49827 0.04544 0.0
H29 H 0.3205 0.94353 0.90533 0.0
H30 H 0.01508 0.56759 0.09608 0.0
N31 N 0.05125 0.34456 0.04214 0.0
C32 C -0.00705 0.30544 1.01793 0.0
C33 C 0.91704 0.38165 1.01413 0.0
C34 C 0.9747 0.4221 0.04108 0.0
C35 C 0.9258 0.32316 1.00293 0.0
C36 C 0.04197 0.40193 0.05477 0.0
H37 H 0.13929 0.58606 0.14275 0.0
N38 N 0.15993 0.41998 0.0971 0.0
C39 C 0.20592 0.51736 0.14517 0.0
C40 C 0.09805 0.44089 0.08321 0.0
C41 C 0.21227 0.45721 0.1288 0.0
C42 C 0.14428 0.53946 0.12989 0.0
C43 C 0.08861 0.50122 0.09906 0.0
O44 O 0.16976 0.34353 0.13875 0.0
O45 O 0.26811 0.25416 0.04913 0.0
O46 O 0.22399 0.16152 1.00151 0.0
O47 O 0.11564 0.22511 0.03188 0.0
O48 O 0.28193 0.33057 0.10793 0.0
O49 O 0.06775 0.29665 0.09825 0.0
O50 O 0.2968 0.18646 0.90576 0.0
O51 O 0.20088 0.2757 0.99534 0.0
O52 O 0.24736 0.36842 0.0446 0.0
O53 O 0.35362 0.30311 1.01204 0.0
O54 O 0.18596 0.19961 0.93647 0.0
O55 O 0.40248 0.22838 0.94487 0.0
C56 C 0.31364 0.28045 0.08239 0.0
C57 C 0.04491 0.36145 0.17502 0.0
C58 C 0.98388 0.38875 0.24796 0.0
C59 C 0.03491 0.35247 0.21234 0.0
C60 C 0.9433 0.43418 0.24521 0.0
C61 C 0.00406 0.40699 0.17316 0.0
C62 C 0.95341 0.44306 0.20809 0.0
C63 C 0.14962 0.17304 1.01652 0.0
C64 C 0.09848 0.32311 0.13845 0.0
C65 C 0.02302 0.52146 0.08456 0.0
C66 C 0.9661 0.48196 0.05566 0.0
C67 C 0.15534 0.25017 0.962 0.0
C68 C 0.41959 0.16399 0.86733 0.0
C69 C 0.43209 0.17505 0.83118 0.0
C70 C 0.47811 0.13663 0.79383 0.0
C71 C 0.51104 0.0869 0.79356 0.0
C72 C 0.45316 0.1143 0.86632 0.0
C73 C 0.49874 0.07603 0.82955 0.0
C74 C 0.32139 0.35586 0.02888 0.0
C75 C 0.3696 0.20397 0.90517 0.0
H76 H 0.06567 0.3164 0.213 0.0
H77 H 0.90369 0.46304 0.27177 0.0
H78 H 0.01097 0.41444 0.14467 0.0
H79 H 0.92159 0.47787 0.20622 0.0
H80 H 0.40693 0.21413 0.83264 0.0
H81 H 0.54625 0.05623 0.76548 0.0
H82 H 0.44415 0.10513 0.89384 0.0
H83 H 0.52482 0.03786 0.82895 0.0
Eu84 Eu 0.68338 0.81503 0.07126 0.0
C85 C 0.88258 0.58362 0.96088 0.0
C86 C 0.00493 0.60116 1.00363 0.0
C87 C 0.95796 0.50198 0.95743 0.0
C88 C 0.93774 0.62209 0.9905 0.0
C89 C 0.89285 0.52303 0.94324 0.0
C90 C 0.01402 0.54098 0.98751 0.0
C91 C 0.77799 0.50851 0.89578 0.0
N92 N 0.82121 0.60538 0.94736 0.0
C93 C 0.77052 0.56894 0.9142 0.0
C94 C 0.83878 0.48544 0.91081 0.0
Eu95 Eu 0.81141 0.7079 0.97973 0.0
N96 N 0.92816 0.67976 1.00442 0.0
C97 C 0.98657 0.71849 0.02905 0.0
C98 C 0.06227 0.6412 0.03137 0.0
C99 C 0.05355 0.70005 0.04362 0.0
H100 H 0.72324 0.58657 0.90258 0.0
H101 H 0.09847 0.73124 0.06423 0.0
H102 H 0.06511 0.52409 0.99731 0.0
H103 H 0.73679 0.4798 0.8701 0.0
H104 H 0.98082 0.76406 0.03867 0.0
H105 H 0.39455 0.78964 0.98792 0.0
H106 H 0.11447 0.62696 0.04244 0.0
H107 H 0.77211 0.93756 0.14647 0.0
H108 H 0.51157 0.75809 1.01488 0.0
H109 H 0.76077 0.04398 0.17515 0.0
H110 H 0.96637 0.45563 0.94464 0.0
H111 H 0.382 0.89248 1.00494 0.0
H112 H 0.43504 0.99473 0.04542 0.0
H113 H 0.84449 0.43865 0.89649 0.0
H114 H 0.53694 0.06373 0.09464 0.0
N115 N 0.56683 0.84167 0.04555 0.0
C116 C 0.50719 0.80306 1.02255 0.0
C117 C 0.43382 0.8788 1.01671 0.0
C118 C 0.49268 0.91888 0.04268 0.0
C119 C 0.44058 0.82078 1.00716 0.0
C120 C 0.55922 0.89874 0.05691 0.0
H121 H 0.65593 0.08295 0.14521 0.0
N122 N 0.6757 0.91708 0.10055 0.0
C123 C 0.71984 1.01455 0.14968 0.0
C124 C 0.61537 0.93772 0.0854 0.0
C125 C 0.72602 0.95441 0.13349 0.0
C126 C 0.66078 0.03636 0.13257 0.0
C127 C 0.60686 0.9979 0.10051 0.0
O128 O 0.68652 0.84119 0.14264 0.0
O129 O 0.78049 0.74935 0.052 0.0
O130 O 0.73094 0.65597 1.00092 0.0
O131 O 0.62884 0.72369 0.03788 0.0
O132 O 0.79797 0.82565 0.11057 0.0
O133 O 0.58105 0.79851 0.10363 0.0
O134 O 0.81078 0.68309 0.9085 0.0
O135 O 0.71294 0.77243 0.99875 0.0
O136 O 0.76091 0.86566 0.04786 0.0
O137 O 0.86585 0.79971 1.01442 0.0
O138 O 0.6968 0.69591 0.94031 0.0
O139 O 0.91122 0.73123 0.95012 0.0
C140 C 0.82691 0.77451 0.08496 0.0
C141 C 0.56313 0.86461 0.18057 0.0
C142 C 0.50441 0.89455 0.25435 0.0
C143 C 0.55223 0.85605 0.21798 0.0
C144 C 0.46803 0.94183 0.25238 0.0
C145 C 0.52625 0.91193 0.17934 0.0
C146 C 0.47888 0.95029 0.21515 0.0
C147 C 0.65878 0.67011 1.01935 0.0
C148 C 0.61363 0.82392 0.14338 0.0
C149 C 0.54328 0.01782 0.08441 0.0
C150 C 0.48574 0.97847 0.05599 0.0
C151 C 0.66639 0.74649 0.9659 0.0
C152 C 0.93642 0.66967 0.87332 0.0
C153 C 0.94445 0.68134 0.83733 0.0
C154 C -0.00122 0.64955 0.80239 0.0
C155 C 0.04438 0.60526 0.80388 0.0
C156 C 0.98233 0.62552 0.87439 0.0
C157 C 0.0362 0.59358 0.83979 0.0
C158 C 0.83379 0.85248 0.03055 0.0
C159 C 0.88123 0.70523 0.90978 0.0
H160 H 0.57968 0.81858 0.21812 0.0
H161 H 0.4309 0.97227 0.27953 0.0
H162 H 0.53363 0.919 0.15071 0.0
H163 H 0.44992 0.98646 0.21393 0.0
H164 H 0.90848 0.71548 0.83671 0.0
H165 H 0.08789 0.58079 0.77798 0.0
H166 H 0.9772 0.61627 0.90212 0.0
H167 H 0.07262 0.56032 0.84125 0.0
Eu168 Eu 0.17983 0.71373 0.47925 0.0
C169 C 0.38349 0.94377 0.58785 0.0
C170 C 0.50459 0.92602 0.54405 0.0
C171 C 0.4581 0.02528 0.59046 0.0
C172 C 0.43805 0.90523 0.55783 0.0
C173 C 0.39373 1.00435 0.60531 0.0
C174 C 0.51354 0.98617 0.55992 0.0
C175 C 0.28011 0.01906 0.65365 0.0
N176 N 0.32263 0.9221 0.60182 0.0
C177 C 0.27256 0.95864 0.63533 0.0
C178 C 0.34029 0.04203 0.63813 0.0
Eu179 Eu 0.31217 0.81952 0.56924 0.0
N180 N 0.4284 0.84757 0.54397 0.0
C181 C 0.48629 0.80873 0.51881 0.0
C182 C 0.56138 0.88588 0.51585 0.0
C183 C 0.55273 0.82706 0.5037 0.0
H184 H 0.22567 0.94112 0.64731 0.0
H185 H 0.5972 0.79578 0.48269 0.0
H186 H 0.56406 1.00295 0.54958 0.0
H187 H 0.2394 0.04784 0.67962 0.0
H188 H 0.48051 0.76316 0.50914 0.0
H189 H 0.89126 0.73887 0.56255 0.0
H190 H 0.61308 0.90001 0.50429 0.0
H191 H 0.27484 0.59183 0.40754 0.0
H192 H 0.01096 0.77112 0.53807 0.0
H193 H 0.26186 0.48525 0.37696 0.0
H194 H 0.46647 0.07161 0.60307 0.0
H195 H 0.87346 0.63469 0.54057 0.0
H196 H 0.92204 0.53174 0.49598 0.0
H197 H 0.34599 0.0888 0.65233 0.0
H198 H 0.02265 0.46275 0.4456 0.0
N199 N 0.06323 0.68666 0.50464 0.0
C200 C 0.00469 0.72565 0.52868 0.0
C201 C 0.92679 0.64873 0.53021 0.0
C202 C 0.98475 0.60847 0.50338 0.0
C203 C 0.93651 0.70752 0.54257 0.0
C204 C 0.05346 0.62908 0.49116 0.0
H205 H 0.14939 0.44501 0.40104 0.0
N206 N 0.17296 0.61148 0.44986 0.0
C207 C 0.21888 0.51429 0.4012 0.0
C208 C 0.1099 0.59025 0.46275 0.0
C209 C 0.22609 0.57457 0.41855 0.0
C210 C 0.15544 0.49175 0.41496 0.0
C211 C 0.09931 0.52974 0.44561 0.0
O212 O 0.17926 0.68626 0.40761 0.0
O213 O 0.27832 0.77825 0.49735 0.0
O214 O 0.23147 0.87212 0.5487 0.0
O215 O 0.12705 0.80571 0.51362 0.0
O216 O 0.2923 0.70237 0.43803 0.0
O217 O 0.07745 0.73306 0.44868 0.0
O218 O 0.31405 0.84318 0.64026 0.0
O219 O 0.2121 0.75635 0.55129 0.0
O220 O 0.2561 0.66367 0.5035 0.0
O221 O 0.36482 0.72713 0.53222 0.0
O222 O 0.19922 0.83241 0.61034 0.0
O223 O 0.41278 0.7945 0.59731 0.0
C224 C 0.32301 0.75287 0.46361 0.0
C225 C 0.05326 0.6669 0.37238 0.0
C226 C -0.00835 0.63759 0.29938 0.0
C227 C 0.04331 0.67429 0.3344 0.0
C228 C 0.95011 0.59345 0.30344 0.0
C229 C 0.01168 0.62247 0.37554 0.0
C230 C 0.96034 0.58596 0.34118 0.0
C231 C 0.15847 0.85885 0.53125 0.0
C232 C 0.10731 0.70598 0.40828 0.0
C233 C 0.03188 0.50906 0.4584 0.0
C234 C 0.97468 0.54837 0.48718 0.0
C235 C 0.16698 0.78252 0.58474 0.0
C236 C 0.44078 0.85514 0.67409 0.0
C237 C 0.4481 0.84407 0.71045 0.0
C238 C 0.50304 0.87555 0.74517 0.0
C239 C 0.55011 0.91878 0.743 0.0
C240 C 0.48816 0.8983 0.67241 0.0
C241 C 0.54276 0.9298 0.70672 0.0
C242 C 0.33093 0.67519 0.51773 0.0
C243 C 0.3843 0.82033 0.63802 0.0
H244 H 0.07458 0.70958 0.33279 0.0
H245 H 0.90959 0.5646 0.2775 0.0
H246 H 0.0184 0.61629 0.40459 0.0
H247 H 0.92801 0.55196 0.34397 0.0
H248 H 0.41099 0.81076 0.71159 0.0
H249 H 0.59405 0.94301 0.7687 0.0
H250 H 0.4835 0.90718 0.64448 0.0
H251 H 0.58028 0.96232 0.70485 0.0
Eu252 Eu 0.67462 0.21078 0.47816 0.0
C253 C 0.87273 0.44072 0.58376 0.0
C254 C -0.00741 0.42303 0.53898 0.0
C255 C 0.94193 0.52169 0.58245 0.0
C256 C 0.92786 0.40226 0.55404 0.0
C257 C 0.88042 0.50108 0.59937 0.0
C258 C -0.00143 0.48282 0.55277 0.0
C259 C 0.77057 0.51635 0.65019 0.0
N260 N 0.81404 0.41931 0.59934 0.0
C261 C 0.76495 0.45604 0.63333 0.0
C262 C 0.82768 0.53895 0.63259 0.0
Eu263 Eu 0.80606 0.3169 0.56822 0.0
N264 N 0.92075 0.34491 0.54186 0.0
C265 C 0.97952 0.30656 0.51722 0.0
C266 C 0.05044 0.3833 0.51146 0.0
C267 C 0.04445 0.32493 0.50108 0.0
H268 H 0.7202 0.43867 0.64667 0.0
H269 H 0.0897 0.29401 0.48055 0.0
H270 H 0.04777 0.49957 0.54151 0.0
H271 H 0.73059 0.5453 0.67653 0.0
H272 H 0.97561 0.26129 0.50875 0.0
H273 H 0.38682 0.2367 0.56265 0.0
H274 H 0.10084 0.39746 0.49899 0.0
H275 H 0.76719 0.0883 0.40543 0.0
H276 H 0.50484 0.26833 0.53647 0.0
H277 H 0.75569 0.98193 0.37662 0.0
H278 H 0.94747 0.56774 0.59299 0.0
H279 H 0.37096 0.13308 0.54291 0.0
H280 H 0.42154 0.03022 0.50051 0.0
H281 H 0.83198 0.58565 0.64568 0.0
H282 H 0.52183 0.96094 0.44998 0.0
N283 N 0.55741 0.18392 0.5034 0.0
C284 C 0.49904 0.223 0.52757 0.0
C285 C 0.42319 0.14675 0.53141 0.0
C286 C 0.48093 0.10635 0.5045 0.0
C287 C 0.43186 0.20524 0.54254 0.0
C288 C 0.54812 0.12654 0.49073 0.0
H289 H 0.64617 0.94248 0.40331 0.0
N290 N 0.66637 0.1085 0.44854 0.0
C291 C 0.71287 1.01118 0.40086 0.0
C292 C 0.60429 0.08759 0.46233 0.0
C293 C 0.71914 0.07131 0.41713 0.0
C294 C 0.65101 0.98907 0.41603 0.0
C295 C 0.59507 0.02728 0.44668 0.0
O296 O 0.67279 0.18184 0.40627 0.0
O297 O 0.77292 0.27538 0.49617 0.0
O298 O 0.72568 0.36902 0.54742 0.0
O299 O 0.62109 0.30278 0.51291 0.0
O300 O 0.78709 0.19955 0.43697 0.0
O301 O 0.57488 0.23386 0.4484 0.0
O302 O 0.8055 0.33902 0.63884 0.0
O303 O 0.70747 0.25241 0.55011 0.0
O304 O 0.75349 0.16049 0.50135 0.0
O305 O 0.86044 0.22532 0.5319 0.0
O306 O 0.69318 0.32848 0.60917 0.0
O307 O 0.91044 0.29881 0.59837 0.0
C308 C 0.81766 0.25016 0.46237 0.0
C309 C 0.54634 0.17067 0.37217 0.0
C310 C 0.48234 0.15055 0.30164 0.0
C311 C 0.53824 0.18165 0.33584 0.0
C312 C 0.43515 0.10767 0.30424 0.0
C313 C 0.4988 0.12797 0.37439 0.0
C314 C 0.44324 0.09678 0.34056 0.0
C315 C 0.6527 0.35585 0.53014 0.0
C316 C 0.6034 0.20553 0.40777 0.0
C317 C 0.52958 1.00704 0.4613 0.0
C318 C 0.47257 0.04652 0.49014 0.0
C319 C 0.66221 0.27804 0.58362 0.0
C320 C 0.92956 0.36198 0.67582 0.0
C321 C 0.93933 0.35265 0.71293 0.0
C322 C 0.98659 0.39067 0.74976 0.0
C323 C 0.02378 0.43821 0.74849 0.0
C324 C 0.96699 0.40962 0.67533 0.0
C325 C 0.01401 0.44746 0.71155 0.0
C326 C 0.8279 0.17284 0.51632 0.0
C327 C 0.87892 0.32206 0.63836 0.0
H328 H 0.5754 0.21472 0.33435 0.0
H329 H 0.39055 0.08371 0.27889 0.0
H330 H 0.50401 0.11928 0.4024 0.0
H331 H 0.40555 0.06465 0.34287 0.0
H332 H 0.91124 0.31503 0.71253 0.0
H333 H 0.06056 0.46832 0.77599 0.0
H334 H 0.96017 0.4174 0.64698 0.0
H335 H 0.04339 0.48389 0.7109 0.0
H336 H 0.5156 0.68308 0.06217 0.0
H337 H 0.68916 0.55289 0.98005 0.0
H338 H 0.43592 0.60866 0.06672 0.0
H339 H 0.6065 0.47769 0.98166 0.0
H340 H 0.48433 0.36205 0.02785 0.0
H341 H 0.56553 0.43865 0.02694 0.0
H342 H 0.35003 0.53089 0.02735 0.0
H343 H 0.26936 0.45585 0.03096 0.0
C344 C 0.53626 0.63842 0.04438 0.0
C345 C 0.60861 0.62401 1.02026 0.0
C346 C 0.49003 0.5955 0.04673 0.0
C347 C 0.51422 0.53684 0.02439 0.0
C348 C 0.58633 0.52242 0.99994 0.0
C349 C 0.63337 0.56556 0.99837 0.0
C350 C 0.45447 0.39891 0.02799 0.0
C351 C 0.3706 0.40301 0.0295 0.0
C352 C 0.50099 0.44268 0.02707 0.0
C353 C 0.46463 0.49101 0.02671 0.0
C354 C 0.38045 0.49499 0.02837 0.0
C355 C 0.33402 0.45177 0.03019 0.0
H356 H 0.49389 0.66443 0.51644 0.0
H357 H 0.27457 0.57892 0.51982 0.0
H358 H 0.57124 0.58627 0.51762 0.0
H359 H 0.3512 0.50287 0.52397 0.0
H360 H 0.50584 0.34622 0.49119 0.0
H361 H 0.43035 0.42168 0.48557 0.0
H362 H 0.61283 0.54765 0.56253 0.0
H363 H 0.6911 0.4712 0.56465 0.0
C364 C 0.4623 0.62913 0.51784 0.0
C365 C 0.37831 0.62774 0.51797 0.0
C366 C 0.50658 0.58445 0.51891 0.0
C367 C 0.46782 0.53802 0.52116 0.0
C368 C 0.38352 0.537 0.52135 0.0
C369 C 0.33938 0.58096 0.51929 0.0
C370 C 0.52993 0.39 0.50694 0.0
C371 C 0.60431 0.40261 0.52898 0.0
C372 C 0.48617 0.4336 0.504 0.0
C373 C 0.5149 0.49124 0.52377 0.0
C374 C 0.58901 0.5038 0.54618 0.0
C375 C 0.63352 0.45994 0.54819 0.0
H376 H 0.98698 0.16027 1.01394 0.0
H377 H 0.20771 0.078 1.01966 0.0
H378 H 0.91107 0.08122 1.01466 0.0
H379 H 0.13251 1.0012 0.02355 0.0
H380 H 0.98141 0.84339 0.99227 0.0
H381 H 0.0556 0.91885 0.98572 0.0
H382 H 0.86932 0.04317 0.05958 0.0
H383 H 0.79246 0.96669 0.06227 0.0
C384 C 0.01914 0.12553 1.01583 0.0
C385 C 0.10308 0.12529 1.01677 0.0
C386 C 0.97572 0.08032 1.01661 0.0
C387 C 0.0153 0.0346 1.0195 0.0
C388 C 0.09958 0.03472 1.02044 0.0
C389 C 0.14289 0.07915 1.01858 0.0
C390 C 0.95624 0.88682 1.00706 0.0
C391 C 0.88132 0.89901 0.0285 0.0
C392 C -0.0008 0.93042 1.00362 0.0
C393 C 0.96904 0.98762 1.0223 0.0
C394 C 0.8943 0.99968 0.04403 0.0
C395 C 0.85061 0.95581 0.04645 0.0
H396 H 0.991 0.1659 0.51803 0.0
H397 H 0.77434 0.07441 0.51621 0.0
H398 H 0.07071 0.08972 0.52072 0.0
H399 H 0.85327 1.00011 0.52167 0.0
H400 H 0.0146 0.84701 0.48938 0.0
H401 H 0.93715 0.9214 0.48369 0.0
H402 H 0.11117 0.05115 0.56634 0.0
H403 H 0.19173 0.9757 0.56904 0.0
C404 C 0.96045 0.12965 0.51852 0.0
C405 C 0.87652 0.12602 0.51677 0.0
C406 C 0.00609 0.08614 0.52049 0.0
C407 C 0.96877 0.03858 0.52167 0.0
C408 C 0.88454 0.03525 0.51994 0.0
C409 C 0.83905 0.07812 0.51705 0.0
C410 C 0.03651 0.89138 0.50643 0.0
C411 C 0.10928 0.90529 0.53013 0.0
C412 C -0.00847 0.93436 0.50343 0.0
C413 C 0.01727 0.99271 0.52473 0.0
C414 C 0.08976 1.00668 0.54883 0.0
C415 C 0.1356 0.96341 0.55104 0.0
H416 H 0.4732 0.25848 0.30831 0.0
H417 H 0.46394 0.07575 0.21167 0.0
H418 H 0.44807 0.28347 0.24939 0.0
H419 H 0.43829 0.1005 0.15228 0.0
H420 H 0.2909 0.17188 0.07358 0.0
H421 H 0.34303 0.13623 0.12254 0.0
H422 H 0.4947 0.28856 0.18735 0.0
H423 H 0.43819 0.32543 0.13965 0.0
C424 C 0.46737 0.22355 0.27422 0.0
C425 C 0.47071 0.16509 0.26473 0.0
C426 C 0.45334 0.23785 0.24016 0.0
C427 C 0.44262 0.19408 0.19547 0.0
C428 C 0.44668 0.13549 0.186 0.0
C429 C 0.46078 0.12119 0.22017 0.0
C430 C 0.33692 0.19691 0.09742 0.0
C431 C 0.3603 0.25155 0.103 0.0
C432 C 0.36708 0.17647 0.12572 0.0
C433 C 0.42183 0.21013 0.15999 0.0
C434 C 0.45047 0.26235 0.16257 0.0
C435 C 0.41905 0.28324 0.13487 0.0
H436 H 0.3654 0.91208 0.30214 0.0
H437 H 0.60943 0.85269 0.29475 0.0
H438 H 0.33745 0.88793 0.36137 0.0
H439 H 0.58001 0.82663 0.3534 0.0
H440 H 0.43522 0.70594 0.39832 0.0
H441 H 0.49219 0.74924 0.35479 0.0
H442 H 0.36985 0.91063 0.43968 0.0
H443 H 0.31204 0.86698 0.48251 0.0
C444 C 0.41371 0.89495 0.31364 0.0
C445 C 0.4896 0.88394 0.29317 0.0
C446 C 0.39754 0.88105 0.34773 0.0
C447 C 0.45648 0.85521 0.36197 0.0
C448 C 0.53315 0.84589 0.34271 0.0
C449 C 0.54972 0.86047 0.3089 0.0
C450 C 0.42213 0.75108 0.40822 0.0
C451 C 0.36931 0.78304 0.44377 0.0
C452 C 0.45505 0.77601 0.38352 0.0
C453 C 0.43484 0.83318 0.39356 0.0
C454 C 0.38573 0.86625 0.43084 0.0
C455 C 0.35309 0.84137 0.45561 0.0
H456 H 0.54215 0.70224 0.90848 0.0
H457 H 0.69128 0.85488 0.97443 0.0
H458 H 0.48727 0.73899 0.86038 0.0
H459 H 0.64053 0.89042 0.92497 0.0
H460 H 0.52029 0.95071 0.83523 0.0
H461 H 0.54488 0.92636 0.89495 0.0
H462 H 0.53595 0.74324 0.79818 0.0
H463 H 0.51166 0.76779 0.73894 0.0
C464 C 0.56207 0.74421 0.91311 0.0
C465 C 0.6209 0.77562 0.94504 0.0
C466 C 0.53156 0.76502 0.88519 0.0
C467 C 0.5611 0.81692 0.88761 0.0
C468 C 0.61593 0.85038 0.92191 0.0
C469 C 0.64528 0.83001 0.95045 0.0
C470 C 0.52335 0.90531 0.82685 0.0
C471 C 0.51384 0.86124 0.78228 0.0
C472 C 0.53695 0.89125 0.86121 0.0
C473 C 0.54102 0.83275 0.85191 0.0
C474 C 0.53072 0.78881 0.80724 0.0
C475 C 0.51713 0.80286 0.773 0.0
H476 H 0.55014 0.32609 0.64884 0.0
H477 H 0.67208 0.16412 0.56583 0.0
H478 H 0.49374 0.28458 0.69367 0.0
H479 H 0.61441 0.12203 0.60972 0.0
H480 H 0.61641 0.11735 0.74514 0.0
H481 H 0.64548 0.14247 0.68654 0.0
H482 H 0.40635 0.21111 0.69828 0.0
H483 H 0.37606 0.18454 0.75653 0.0
C484 C 0.56298 0.28106 0.63941 0.0
C485 C 0.61538 0.2484 0.60379 0.0
C486 C 0.53042 0.25715 0.66493 0.0
C487 C 0.55033 0.20018 0.65561 0.0
C488 C 0.59886 0.16634 0.6182 0.0
C489 C 0.63132 0.19028 0.59269 0.0
C490 C 0.56913 0.13654 0.73469 0.0
C491 C 0.49393 0.14919 0.75602 0.0
C492 C 0.58591 0.15096 0.70093 0.0
C493 C 0.52828 0.1789 0.68772 0.0
C494 C 0.45238 0.19029 0.70811 0.0
C495 C 0.43525 0.17534 0.74169 0.0
H496 H 0.81117 0.66108 0.06724 0.0
H497 H 0.94031 0.81998 0.14975 0.0
H498 H 0.8641 0.61808 0.11161 0.0
H499 H -0.00691 0.77706 0.19448 0.0
H500 H 0.10159 0.67174 0.25592 0.0
H501 H 0.07626 0.69617 0.19604 0.0
H502 H 0.8285 0.64683 0.19195 0.0
H503 H 0.85227 0.6248 0.2527 0.0
C504 C 0.8526 0.68628 0.09403 0.0
C505 C 0.87157 0.74399 0.10511 0.0
C506 C 0.8825 0.66175 0.11965 0.0
C507 C 0.93199 0.69444 0.1568 0.0
C508 C 0.95546 0.75067 0.16589 0.0
C509 C 0.92503 0.77535 0.14046 0.0
C510 C 0.04156 0.6663 0.24244 0.0
C511 C 0.97881 0.64689 0.25976 0.0
C512 C 0.02737 0.67987 0.20788 0.0
C513 C 0.95051 0.67334 0.18931 0.0
C514 C 0.88873 0.65144 0.2051 0.0
C515 C 0.90252 0.63873 0.24003 0.0
H516 H 0.80128 0.36329 0.4792 0.0
H517 H 0.93055 0.20432 0.39729 0.0
H518 H 0.85466 0.40594 0.4346 0.0
H519 H 0.9833 0.24669 0.35212 0.0
H520 H 0.09274 0.35155 0.29 0.0
H521 H 0.06684 0.32652 0.34959 0.0
H522 H 0.81996 0.37814 0.35472 0.0
H523 H 0.84444 0.40115 0.29454 0.0
C524 C 0.84281 0.33799 0.45248 0.0
C525 C 0.86196 0.28045 0.4418 0.0
C526 C 0.87288 0.36228 0.42667 0.0
C527 C 0.92244 0.32944 0.38952 0.0
C528 C 0.94569 0.27325 0.38068 0.0
C529 C 0.91524 0.24888 0.40637 0.0
C530 C 0.03281 0.35737 0.30367 0.0
C531 C 0.97058 0.37795 0.28691 0.0
C532 C 0.01824 0.34342 0.33806 0.0
C533 C 0.94144 0.35045 0.3569 0.0
C534 C 0.88015 0.37312 0.34144 0.0
C535 C 0.89435 0.38638 0.3068 0.0
H536 H 0.87915 0.34808 0.78861 0.0
H537 H 0.12381 0.40759 0.79886 0.0
H538 H 0.9052 0.32188 0.84746 0.0
H539 H 0.14843 0.38325 0.85828 0.0
H540 H 0.16761 0.36398 0.98009 0.0
H541 H 0.11322 0.40658 0.93595 0.0
H542 H 0.98996 0.24543 0.85145 0.0
H543 H 0.04354 0.20316 0.89642 0.0
C544 C 0.93834 0.35579 0.80338 0.0
C545 C -0.00043 0.37947 0.78845 0.0
C546 C 0.95299 0.34109 0.8373 0.0
C547 C 0.0288 0.35052 0.85754 0.0
C548 C 0.08893 0.37632 0.84393 0.0
C549 C 0.07467 0.39034 0.80973 0.0
C550 C 0.12697 0.33821 0.95308 0.0
C551 C 0.1097 0.28019 0.94178 0.0
C552 C 0.09633 0.36249 0.92747 0.0
C553 C 0.04815 0.32914 0.88984 0.0
C554 C 0.02652 0.27241 0.88038 0.0
C555 C 0.05742 0.24808 0.90596 0.0
H556 H 0.04402 0.8279 0.64306 0.0
H557 H 0.18839 0.67316 0.57476 0.0
H558 H 0.9878 0.79051 0.69051 0.0
H559 H 0.13644 0.63692 0.62343 0.0
H560 H 0.01445 0.57567 0.7121 0.0
H561 H 0.04051 0.60139 0.65325 0.0
H562 H 0.03594 0.78387 0.75174 0.0
H563 H 0.01091 0.75797 0.81018 0.0
C564 C 0.06258 0.78536 0.63775 0.0
C565 C 0.12047 0.75349 0.60533 0.0
C566 C 0.03131 0.76416 0.66529 0.0
C567 C 0.05922 0.71138 0.66196 0.0
C568 C 0.11304 0.6776 0.62718 0.0
C569 C 0.14307 0.69838 0.59906 0.0
C570 C 0.01892 0.62122 0.72103 0.0
C571 C 0.01051 0.66473 0.76583 0.0
C572 C 0.03316 0.63608 0.68717 0.0
C573 C 0.03866 0.69482 0.69719 0.0
C574 C 0.02949 0.73819 0.74212 0.0
C575 C 0.01549 0.72335 0.77589 0.0
loop_
_geom_bond_atom_site_label_1
_geom_bond_atom_site_label_2
_geom_bond_distance
_geom_bond_site_symmetry_2
_ccdc_geom_bond_type
Eu0 N31 2.657 . S
Eu0 N38 2.609 . S
Eu0 O44 2.558 . S
Eu0 O45 2.612 . S
Eu0 O47 2.339 . S
Eu0 O48 2.563 . S
Eu0 O49 2.419 . S
Eu0 O51 2.380 1_554 S
Eu0 O52 2.432 . S
Eu0 C64 2.848 . S
C1 C4 1.429 . S
C1 C5 1.411 . S
C1 N8 1.377 . S
C2 C4 1.420 1_554 S
C2 C6 1.423 . S
C2 C14 1.392 . S
C3 C5 1.420 . S
C3 C6 1.351 1_556 S
C3 H26 0.931 . S
C4 C1 1.429 . S
C4 C2 1.420 1_556 S
C4 N12 1.362 . S
C5 C1 1.411 . S
C5 C3 1.420 . S
C5 C10 1.395 . S
C6 C2 1.423 . S
C6 C3 1.351 1_554 S
C6 H18 0.930 . S
C7 C9 1.400 . S
C7 C10 1.386 . S
C7 H19 0.930 1_545 S
N8 C1 1.377 . S
N8 C9 1.321 . S
N8 Eu11 2.609 . S
C9 C7 1.400 . S
C9 N8 1.321 . S
C9 H16 0.930 . S
C10 C5 1.395 . S
C10 C7 1.386 . S
C10 H29 0.930 1_545 S
Eu11 N8 2.609 . S
Eu11 N12 2.657 . S
Eu11 O45 2.380 1_556 S
Eu11 O46 2.432 . S
Eu11 O50 2.558 . S
Eu11 O51 2.612 . S
Eu11 O53 2.339 . S
Eu11 O54 2.563 . S
Eu11 O55 2.419 . S
Eu11 C75 2.848 . S
N12 C4 1.362 . S
N12 Eu11 2.657 . S
N12 C13 1.334 1_556 S
C13 N12 1.334 1_554 S
C13 C15 1.413 . S
C13 H20 0.929 . S
C14 C2 1.392 . S
C14 C15 1.367 . S
C14 H22 0.930 . S
C15 C13 1.413 . S
C15 C14 1.367 . S
C15 H17 0.930 . S
H16 C9 0.930 . S
H17 C15 0.930 . S
H18 C6 0.930 . S
H19 C7 0.930 1_565 S
H20 C13 0.929 . S
H21 C35 0.930 . S
H22 C14 0.930 . S
H23 C41 0.930 . S
H24 C32 0.929 1_455 S
H25 C39 0.930 . S
H26 C3 0.931 . S
H27 C33 0.930 . S
H28 C66 0.930 . S
H29 C10 0.930 1_565 S
H30 C65 0.931 . S
N31 Eu0 2.657 . S
N31 C32 1.334 1_454 S
N31 C36 1.362 1_455 S
C32 H24 0.929 1_655 S
C32 N31 1.334 1_656 S
C32 C35 1.413 . S
C33 H27 0.930 . S
C33 C34 1.392 . S
C33 C35 1.367 . S
C34 C33 1.392 . S
C34 C36 1.420 1_556 S
C34 C66 1.423 . S
C35 H21 0.930 . S
C35 C32 1.413 . S
C35 C33 1.367 . S
C36 N31 1.362 1_655 S
C36 C34 1.420 1_554 S
C36 C40 1.429 1_655 S
H37 C42 0.930 1_655 S
N38 Eu0 2.609 . S
N38 C40 1.377 . S
N38 C41 1.321 . S
C39 H25 0.930 . S
C39 C41 1.400 . S
C39 C42 1.386 . S
C40 C36 1.429 1_455 S
C40 N38 1.377 . S
C40 C43 1.411 1_455 S
C41 H23 0.930 . S
C41 N38 1.321 . S
C41 C39 1.400 . S
C42 H37 0.930 1_455 S
C42 C39 1.386 . S
C42 C43 1.395 1_455 S
C43 C40 1.411 1_655 S
C43 C42 1.395 1_655 S
C43 C65 1.420 . S
O44 Eu0 2.558 . S
O44 C64 1.257 . S
O45 Eu0 2.612 . S
O45 Eu11 2.380 1_554 S
O45 C56 1.276 . S
O46 Eu11 2.432 . S
O46 C63 1.264 . S
O47 Eu0 2.339 . S
O47 C63 1.254 1_554 S
O48 Eu0 2.563 . S
O48 C56 1.235 . S
O49 Eu0 2.419 . S
O49 C64 1.249 . S
O50 Eu11 2.558 . S
O50 C75 1.257 . S
O51 Eu0 2.380 1_556 S
O51 Eu11 2.612 . S
O51 C67 1.276 . S
O52 Eu0 2.432 . S
O52 C74 1.264 . S
O53 Eu11 2.339 . S
O53 C74 1.254 1_556 S
O54 Eu11 2.563 . S
O54 C67 1.235 . S
O55 Eu11 2.419 . S
O55 C75 1.249 . S
C56 O45 1.276 . S
C56 O48 1.235 . S
C57 C59 1.393 . S
C57 C61 1.395 . S
C57 C64 1.492 . S
C58 C59 1.392 1_655 S
C58 C60 1.386 . S
C59 C57 1.393 . S
C59 C58 1.392 1_455 S
C59 H76 0.930 . S
C60 C58 1.386 . S
C60 C62 1.395 . S
C60 H77 0.930 . S
C61 C57 1.395 . S
C61 C62 1.378 1_455 S
C61 H78 0.930 . S
C62 C60 1.395 . S
C62 C61 1.378 1_655 S
C62 H79 0.930 . S
C63 O46 1.264 . S
C63 O47 1.254 1_556 S
C64 Eu0 2.848 . S
C64 O44 1.257 . S
C64 O49 1.249 . S
C64 C57 1.492 . S
C65 H30 0.931 . S
C65 C43 1.420 . S
C65 C66 1.351 1_554 S
C66 H28 0.930 . S
C66 C34 1.423 . S
C66 C65 1.351 1_556 S
C67 O51 1.276 . S
C67 O54 1.235 . S
C68 C69 1.393 . S
C68 C72 1.395 . S
C68 C75 1.492 . S
C69 C68 1.393 . S
C69 C70 1.392 . S
C69 H80 0.930 . S
C70 C69 1.392 . S
C70 C71 1.386 . S
C71 C70 1.386 . S
C71 C73 1.395 . S
C71 H81 0.930 . S
C72 C68 1.395 . S
C72 C73 1.379 . S
C72 H82 0.930 . S
C73 C71 1.395 . S
C73 C72 1.379 . S
C73 H83 0.930 . S
C74 O52 1.264 . S
C74 O53 1.254 1_554 S
C75 Eu11 2.848 . S
C75 O50 1.257 . S
C75 O55 1.249 . S
C75 C68 1.492 . S
H76 C59 0.930 . S
H77 C60 0.930 . S
H78 C61 0.930 . S
H79 C62 0.930 . S
H80 C69 0.930 . S
H81 C71 0.930 . S
H82 C72 0.930 . S
H83 C73 0.930 . S
Eu84 N115 2.657 . S
Eu84 N122 2.609 . S
Eu84 O128 2.558 . S
Eu84 O129 2.612 . S
Eu84 O131 2.339 . S
Eu84 O132 2.563 . S
Eu84 O133 2.419 . S
Eu84 O135 2.380 1_554 S
Eu84 O136 2.432 . S
Eu84 C148 2.848 . S
C85 C88 1.429 1_655 S
C85 C89 1.411 1_655 S
C85 N92 1.377 . S
C86 C88 1.420 1_554 S
C86 C90 1.423 . S
C86 C98 1.392 . S
C87 C89 1.420 . S
C87 C90 1.351 1_556 S
C87 H110 0.931 . S
C88 C85 1.429 1_455 S
C88 C86 1.420 1_556 S
C88 N96 1.362 1_455 S
C89 C85 1.411 1_455 S
C89 C87 1.420 . S
C89 C94 1.395 1_455 S
C90 C86 1.423 . S
C90 C87 1.351 1_554 S
C90 H102 0.930 . S
C91 C93 1.400 . S
C91 C94 1.386 . S
C91 H103 0.930 . S
N92 C85 1.377 . S
N92 C93 1.321 . S
N92 Eu95 2.609 . S
C93 C91 1.400 . S
C93 N92 1.321 . S
C93 H100 0.930 . S
C94 C89 1.395 1_655 S
C94 C91 1.386 . S
C94 H113 0.930 1_655 S
Eu95 N92 2.609 . S
Eu95 N96 2.657 . S
Eu95 O129 2.380 1_556 S
Eu95 O130 2.432 . S
Eu95 O134 2.558 . S
Eu95 O135 2.612 . S
Eu95 O137 2.339 . S
Eu95 O138 2.563 . S
Eu95 O139 2.419 . S
Eu95 C159 2.848 . S
N96 C88 1.362 1_655 S
N96 Eu95 2.657 . S
N96 C97 1.334 1_656 S
C97 N96 1.334 1_454 S
C97 C99 1.413 . S
C97 H104 0.929 1_455 S
C98 C86 1.392 . S
C98 C99 1.367 . S
C98 H106 0.930 . S
C99 C97 1.413 . S
C99 C98 1.367 . S
C99 H101 0.930 . S
H100 C93 0.930 . S
H101 C99 0.930 . S
H102 C90 0.930 . S
H103 C91 0.930 . S
H104 C97 0.929 1_655 S
H105 C119 0.930 . S
H106 C98 0.930 . S
H107 C125 0.930 . S
H108 C116 0.929 . S
H109 C123 0.930 1_545 S
H110 C87 0.931 . S
H111 C117 0.930 . S
H112 C150 0.930 . S
H113 C94 0.930 1_455 S
H114 C149 0.931 . S
N115 Eu84 2.657 . S
N115 C116 1.334 1_554 S
N115 C120 1.362 . S
C116 H108 0.929 . S
C116 N115 1.334 1_556 S
C116 C119 1.413 . S
C117 H111 0.930 . S
C117 C118 1.392 . S
C117 C119 1.367 . S
C118 C117 1.392 . S
C118 C120 1.420 1_556 S
C118 C150 1.423 . S
C119 H105 0.930 . S
C119 C116 1.413 . S
C119 C117 1.367 . S
C120 N115 1.362 . S
C120 C118 1.420 1_554 S
C120 C124 1.429 . S
H121 C126 0.930 1_545 S
N122 Eu84 2.609 . S
N122 C124 1.377 . S
N122 C125 1.321 . S
C123 H109 0.930 1_565 S
C123 C125 1.400 . S
C123 C126 1.386 . S
C124 C120 1.429 . S
C124 N122 1.377 . S
C124 C127 1.411 . S
C125 H107 0.930 . S
C125 N122 1.321 . S
C125 C123 1.400 . S
C126 H121 0.930 1_565 S
C126 C123 1.386 . S
C126 C127 1.395 . S
C127 C124 1.411 . S
C127 C126 1.395 . S
C127 C149 1.420 . S
O128 Eu84 2.558 . S
O128 C148 1.257 . S
O129 Eu84 2.612 . S
O129 Eu95 2.380 1_554 S
O129 C140 1.276 . S
O130 Eu95 2.432 . S
O130 C147 1.264 . S
O131 Eu84 2.339 . S
O131 C147 1.254 1_554 S
O132 Eu84 2.563 . S
O132 C140 1.235 . S
O133 Eu84 2.419 . S
O133 C148 1.249 . S
O134 Eu95 2.558 . S
O134 C159 1.257 . S
O135 Eu84 2.380 1_556 S
O135 Eu95 2.612 . S
O135 C151 1.276 . S
O136 Eu84 2.432 . S
O136 C158 1.264 . S
O137 Eu95 2.339 . S
O137 C158 1.254 1_556 S
O138 Eu95 2.563 . S
O138 C151 1.235 . S
O139 Eu95 2.419 . S
O139 C159 1.249 . S
C140 O129 1.276 . S
C140 O132 1.235 . S
C141 C143 1.393 . S
C141 C145 1.395 . S
C141 C148 1.492 . S
C142 C143 1.392 . S
C142 C144 1.386 . S
C143 C141 1.393 . S
C143 C142 1.392 . S
C143 H160 0.930 . S
C144 C142 1.386 . S
C144 C146 1.395 . S
C144 H161 0.930 . S
C145 C141 1.395 . S
C145 C146 1.379 . S
C145 H162 0.930 . S
C146 C144 1.395 . S
C146 C145 1.379 . S
C146 H163 0.930 . S
C147 O130 1.264 . S
C147 O131 1.254 1_556 S
C148 Eu84 2.848 . S
C148 O128 1.257 . S
C148 O133 1.249 . S
C148 C141 1.492 . S
C149 H114 0.931 . S
C149 C127 1.420 . S
C149 C150 1.351 1_554 S
C150 H112 0.930 . S
C150 C118 1.423 . S
C150 C149 1.351 1_556 S
C151 O135 1.276 . S
C151 O138 1.235 . S
C152 C153 1.393 . S
C152 C156 1.395 . S
C152 C159 1.492 . S
C153 C152 1.393 . S
C153 C154 1.392 1_655 S
C153 H164 0.930 . S
C154 C153 1.392 1_455 S
C154 C155 1.386 . S
C155 C154 1.386 . S
C155 C157 1.395 . S
C155 H165 0.930 . S
C156 C152 1.395 . S
C156 C157 1.378 1_655 S
C156 H166 0.930 . S
C157 C155 1.395 . S
C157 C156 1.378 1_455 S
C157 H167 0.930 . S
C158 O136 1.264 . S
C158 O137 1.254 1_554 S
C159 Eu95 2.848 . S
C159 O134 1.257 . S
C159 O139 1.249 . S
C159 C152 1.492 . S
H160 C143 0.930 . S
H161 C144 0.930 . S
H162 C145 0.930 . S
H163 C146 0.930 . S
H164 C153 0.930 . S
H165 C155 0.930 . S
H166 C156 0.930 . S
H167 C157 0.930 . S
Eu168 N199 2.657 . S
Eu168 N206 2.609 . S
Eu168 O212 2.558 . S
Eu168 O213 2.612 . S
Eu168 O215 2.339 . S
Eu168 O216 2.563 . S
Eu168 O217 2.419 . S
Eu168 O219 2.380 . S
Eu168 O220 2.432 . S
Eu168 C232 2.848 . S
C169 C172 1.429 . S
C169 C173 1.411 . S
C169 N176 1.377 . S
C170 C172 1.420 . S
C170 C174 1.423 . S
C170 C182 1.392 . S
C171 C173 1.420 . S
C171 C174 1.351 . S
C171 H194 0.931 . S
C172 C169 1.429 . S
C172 C170 1.420 . S
C172 N180 1.362 . S
C173 C169 1.411 . S
C173 C171 1.420 . S
C173 C178 1.395 . S
C174 C170 1.423 . S
C174 C171 1.351 . S
C174 H186 0.930 . S
C175 C177 1.400 . S
C175 C178 1.386 . S
C175 H187 0.930 1_565 S
N176 C169 1.377 . S
N176 C177 1.321 . S
N176 Eu179 2.609 . S
C177 C175 1.400 . S
C177 N176 1.321 . S
C177 H184 0.930 . S
C178 C173 1.395 . S
C178 C175 1.386 . S
C178 H197 0.930 1_565 S
Eu179 N176 2.609 . S
Eu179 N180 2.657 . S
Eu179 O213 2.380 . S
Eu179 O214 2.432 . S
Eu179 O218 2.558 . S
Eu179 O219 2.612 . S
Eu179 O221 2.339 . S
Eu179 O222 2.563 . S
Eu179 O223 2.419 . S
Eu179 C243 2.848 . S
N180 C172 1.362 . S
N180 Eu179 2.657 . S
N180 C181 1.334 . S
C181 N180 1.334 . S
C181 C183 1.413 . S
C181 H188 0.929 . S
C182 C170 1.392 . S
C182 C183 1.367 . S
C182 H190 0.930 . S
C183 C181 1.413 . S
C183 C182 1.367 . S
C183 H185 0.930 . S
H184 C177 0.930 . S
H185 C183 0.930 . S
H186 C174 0.930 . S
H187 C175 0.930 1_545 S
H188 C181 0.929 . S
H189 C203 0.930 . S
H190 C182 0.930 . S
H191 C209 0.930 . S
H192 C200 0.929 1_455 S
H193 C207 0.930 . S
H194 C171 0.931 . S
H195 C201 0.930 . S
H196 C234 0.930 . S
H197 C178 0.930 1_545 S
H198 C233 0.931 . S
N199 Eu168 2.657 . S
N199 C200 1.334 1_455 S
N199 C204 1.362 1_455 S
C200 H192 0.929 1_655 S
C200 N199 1.334 1_655 S
C200 C203 1.413 . S
C201 H195 0.930 . S
C201 C202 1.392 . S
C201 C203 1.367 . S
C202 C201 1.392 . S
C202 C204 1.420 . S
C202 C234 1.423 . S
C203 H189 0.930 . S
C203 C200 1.413 . S
C203 C201 1.367 . S
C204 N199 1.362 1_655 S
C204 C202 1.420 . S
C204 C208 1.429 1_655 S
H205 C210 0.930 1_655 S
N206 Eu168 2.609 . S
N206 C208 1.377 . S
N206 C209 1.321 . S
C207 H193 0.930 . S
C207 C209 1.400 . S
C207 C210 1.386 . S
C208 C204 1.429 1_455 S
C208 N206 1.377 . S
C208 C211 1.411 1_455 S
C209 H191 0.930 . S
C209 N206 1.321 . S
C209 C207 1.400 . S
C210 H205 0.930 1_455 S
C210 C207 1.386 . S
C210 C211 1.395 1_455 S
C211 C208 1.411 1_655 S
C211 C210 1.395 1_655 S
C211 C233 1.420 . S
O212 Eu168 2.558 . S
O212 C232 1.257 . S
O213 Eu168 2.612 . S
O213 Eu179 2.380 . S
O213 C224 1.276 . S
O214 Eu179 2.432 . S
O214 C231 1.264 . S
O215 Eu168 2.339 . S
O215 C231 1.254 . S
O216 Eu168 2.563 . S
O216 C224 1.235 . S
O217 Eu168 2.419 . S
O217 C232 1.249 . S
O218 Eu179 2.558 . S
O218 C243 1.257 . S
O219 Eu168 2.380 . S
O219 Eu179 2.612 . S
O219 C235 1.276 . S
O220 Eu168 2.432 . S
O220 C242 1.264 . S
O221 Eu179 2.339 . S
O221 C242 1.254 . S
O222 Eu179 2.563 . S
O222 C235 1.235 . S
O223 Eu179 2.419 . S
O223 C243 1.249 . S
C224 O213 1.276 . S
C224 O216 1.235 . S
C225 C227 1.393 . S
C225 C229 1.395 . S
C225 C232 1.492 . S
C226 C227 1.392 1_655 S
C226 C228 1.386 . S
C227 C225 1.393 . S
C227 C226 1.392 1_455 S
C227 H244 0.930 . S
C228 C226 1.386 . S
C228 C230 1.395 . S
C228 H245 0.930 . S
C229 C225 1.395 . S
C229 C230 1.378 1_455 S
C229 H246 0.930 . S
C230 C228 1.395 . S
C230 C229 1.378 1_655 S
C230 H247 0.930 . S
C231 O214 1.264 . S
C231 O215 1.254 . S
C232 Eu168 2.848 . S
C232 O212 1.257 . S
C232 O217 1.249 . S
C232 C225 1.492 . S
C233 H198 0.931 . S
C233 C211 1.420 . S
C233 C234 1.351 . S
C234 H196 0.930 . S
C234 C202 1.423 . S
C234 C233 1.351 . S
C235 O219 1.276 . S
C235 O222 1.235 . S
C236 C237 1.393 . S
C236 C240 1.395 . S
C236 C243 1.492 . S
C237 C236 1.393 . S
C237 C238 1.392 . S
C237 H248 0.930 . S
C238 C237 1.392 . S
C238 C239 1.386 . S
C239 C238 1.386 . S
C239 C241 1.395 . S
C239 H249 0.930 . S
C240 C236 1.395 . S
C240 C241 1.379 . S
C240 H250 0.930 . S
C241 C239 1.395 . S
C241 C240 1.379 . S
C241 H251 0.930 . S
C242 O220 1.264 . S
C242 O221 1.254 . S
C243 Eu179 2.848 . S
C243 O218 1.257 . S
C243 O223 1.249 . S
C243 C236 1.492 . S
H244 C227 0.930 . S
H245 C228 0.930 . S
H246 C229 0.930 . S
H247 C230 0.930 . S
H248 C237 0.930 . S
H249 C239 0.930 . S
H250 C240 0.930 . S
H251 C241 0.930 . S
Eu252 N283 2.657 . S
Eu252 N290 2.609 . S
Eu252 O296 2.558 . S
Eu252 O297 2.612 . S
Eu252 O299 2.339 . S
Eu252 O300 2.563 . S
Eu252 O301 2.419 . S
Eu252 O303 2.380 . S
Eu252 O304 2.432 . S
Eu252 C316 2.848 . S
C253 C256 1.429 1_655 S
C253 C257 1.411 1_655 S
C253 N260 1.377 . S
C254 C256 1.420 . S
C254 C258 1.423 . S
C254 C266 1.392 . S
C255 C257 1.420 . S
C255 C258 1.351 . S
C255 H278 0.931 . S
C256 C253 1.429 1_455 S
C256 C254 1.420 . S
C256 N264 1.362 1_455 S
C257 C253 1.411 1_455 S
C257 C255 1.420 . S
C257 C262 1.395 1_455 S
C258 C254 1.423 . S
C258 C255 1.351 . S
C258 H270 0.930 . S
C259 C261 1.400 . S
C259 C262 1.386 . S
C259 H271 0.930 . S
N260 C253 1.377 . S
N260 C261 1.321 . S
N260 Eu263 2.609 . S
C261 C259 1.400 . S
C261 N260 1.321 . S
C261 H268 0.930 . S
C262 C257 1.395 1_655 S
C262 C259 1.386 . S
C262 H281 0.930 1_655 S
Eu263 N260 2.609 . S
Eu263 N264 2.657 . S
Eu263 O297 2.380 . S
Eu263 O298 2.432 . S
Eu263 O302 2.558 . S
Eu263 O303 2.612 . S
Eu263 O305 2.339 . S
Eu263 O306 2.563 . S
Eu263 O307 2.419 . S
Eu263 C327 2.848 . S
N264 C256 1.362 1_655 S
N264 Eu263 2.657 . S
N264 C265 1.334 1_655 S
C265 N264 1.334 1_455 S
C265 C267 1.413 . S
C265 H272 0.929 1_455 S
C266 C254 1.392 . S
C266 C267 1.367 . S
C266 H274 0.930 . S
C267 C265 1.413 . S
C267 C266 1.367 . S
C267 H269 0.930 . S
H268 C261 0.930 . S
H269 C267 0.930 . S
H270 C258 0.930 . S
H271 C259 0.930 . S
H272 C265 0.929 1_655 S
H273 C287 0.930 . S
H274 C266 0.930 . S
H275 C293 0.930 . S
H276 C284 0.929 . S
H277 C291 0.930 1_565 S
H278 C255 0.931 . S
H279 C285 0.930 . S
H280 C318 0.930 . S
H281 C262 0.930 1_455 S
H282 C317 0.931 . S
N283 Eu252 2.657 . S
N283 C284 1.334 . S
N283 C288 1.362 . S
C284 H276 0.929 . S
C284 N283 1.334 . S
C284 C287 1.413 . S
C285 H279 0.930 . S
C285 C286 1.392 . S
C285 C287 1.367 . S
C286 C285 1.392 . S
C286 C288 1.420 . S
C286 C318 1.423 . S
C287 H273 0.930 . S
C287 C284 1.413 . S
C287 C285 1.367 . S
C288 N283 1.362 . S
C288 C286 1.420 . S
C288 C292 1.429 . S
H289 C294 0.930 1_565 S
N290 Eu252 2.609 . S
N290 C292 1.377 . S
N290 C293 1.321 . S
C291 H277 0.930 1_545 S
C291 C293 1.400 . S
C291 C294 1.386 . S
C292 C288 1.429 . S
C292 N290 1.377 . S
C292 C295 1.411 . S
C293 H275 0.930 . S
C293 N290 1.321 . S
C293 C291 1.400 . S
C294 H289 0.930 1_545 S
C294 C291 1.386 . S
C294 C295 1.395 . S
C295 C292 1.411 . S
C295 C294 1.395 . S
C295 C317 1.420 . S
O296 Eu252 2.558 . S
O296 C316 1.257 . S
O297 Eu252 2.612 . S
O297 Eu263 2.380 . S
O297 C308 1.276 . S
O298 Eu263 2.432 . S
O298 C315 1.264 . S
O299 Eu252 2.339 . S
O299 C315 1.254 . S
O300 Eu252 2.563 . S
O300 C308 1.235 . S
O301 Eu252 2.419 . S
O301 C316 1.249 . S
O302 Eu263 2.558 . S
O302 C327 1.257 . S
O303 Eu252 2.380 . S
O303 Eu263 2.612 . S
O303 C319 1.276 . S
O304 Eu252 2.432 . S
O304 C326 1.264 . S
O305 Eu263 2.339 . S
O305 C326 1.254 . S
O306 Eu263 2.563 . S
O306 C319 1.235 . S
O307 Eu263 2.419 . S
O307 C327 1.249 . S
C308 O297 1.276 . S
C308 O300 1.235 . S
C309 C311 1.393 . S
C309 C313 1.395 . S
C309 C316 1.492 . S
C310 C311 1.392 . S
C310 C312 1.386 . S
C311 C309 1.393 . S
C311 C310 1.392 . S
C311 H328 0.930 . S
C312 C310 1.386 . S
C312 C314 1.395 . S
C312 H329 0.930 . S
C313 C309 1.395 . S
C313 C314 1.379 . S
C313 H330 0.930 . S
C314 C312 1.395 . S
C314 C313 1.379 . S
C314 H331 0.930 . S
C315 O298 1.264 . S
C315 O299 1.254 . S
C316 Eu252 2.848 . S
C316 O296 1.257 . S
C316 O301 1.249 . S
C316 C309 1.492 . S
C317 H282 0.931 . S
C317 C295 1.420 . S
C317 C318 1.351 . S
C318 H280 0.930 . S
C318 C286 1.423 . S
C318 C317 1.351 . S
C319 O303 1.276 . S
C319 O306 1.235 . S
C320 C321 1.393 . S
C320 C324 1.395 . S
C320 C327 1.492 . S
C321 C320 1.393 . S
C321 C322 1.392 1_655 S
C321 H332 0.930 . S
C322 C321 1.392 1_455 S
C322 C323 1.386 . S
C323 C322 1.386 . S
C323 C325 1.395 . S
C323 H333 0.930 . S
C324 C320 1.395 . S
C324 C325 1.378 1_655 S
C324 H334 0.930 . S
C325 C323 1.395 . S
C325 C324 1.378 1_455 S
C325 H335 0.930 . S
C326 O304 1.264 . S
C326 O305 1.254 . S
C327 Eu263 2.848 . S
C327 O302 1.257 . S
C327 O307 1.249 . S
C327 C320 1.492 . S
H328 C311 0.930 . S
H329 C312 0.930 . S
H330 C313 0.930 . S
H331 C314 0.930 . S
H332 C321 0.930 . S
H333 C323 0.930 . S
H334 C324 0.930 . S
H335 C325 0.930 . S
H336 C344 0.950 . S
H337 C349 0.950 . S
H338 C346 0.950 . S
H339 C348 0.950 . S
H340 C350 0.950 . S
H341 C352 0.950 . S
H342 C354 0.950 . S
H343 C355 0.950 . S
C344 H336 0.950 . S
C344 C345 1.386 1_554 S
C344 C346 1.391 . S
C345 C344 1.386 1_556 S
C345 C349 1.393 . S
C346 H338 0.950 . S
C346 C344 1.391 . S
C346 C347 1.402 . S
C347 C346 1.402 . S
C347 C348 1.395 1_554 S
C347 C353 1.492 . S
C348 H339 0.950 . S
C348 C347 1.395 1_556 S
C348 C349 1.391 . S
C349 H337 0.950 . S
C349 C345 1.393 . S
C349 C348 1.391 . S
C350 H340 0.950 . S
C350 C351 1.386 1_556 S
C350 C352 1.391 . S
C351 C350 1.386 1_554 S
C351 C355 1.393 . S
C352 H341 0.950 . S
C352 C350 1.391 . S
C352 C353 1.400 1_556 S
C353 C347 1.492 . S
C353 C352 1.400 1_554 S
C353 C354 1.398 . S
C354 H342 0.950 . S
C354 C353 1.398 . S
C354 C355 1.391 . S
C355 H343 0.950 . S
C355 C351 1.393 . S
C355 C354 1.391 . S
H356 C364 0.950 . S
H357 C369 0.950 . S
H358 C366 0.950 . S
H359 C368 0.950 . S
H360 C370 0.950 . S
H361 C372 0.950 . S
H362 C374 0.950 . S
H363 C375 0.950 . S
C364 H356 0.950 . S
C364 C365 1.386 . S
C364 C366 1.391 . S
C365 C364 1.386 . S
C365 C369 1.393 . S
C366 H358 0.950 . S
C366 C364 1.391 . S
C366 C367 1.400 . S
C367 C366 1.400 . S
C367 C368 1.398 . S
C367 C373 1.491 . S
C368 H359 0.950 . S
C368 C367 1.398 . S
C368 C369 1.391 . S
C369 H357 0.950 . S
C369 C365 1.393 . S
C369 C368 1.391 . S
C370 H360 0.950 . S
C370 C371 1.386 . S
C370 C372 1.391 . S
C371 C370 1.386 . S
C371 C375 1.393 . S
C372 H361 0.950 . S
C372 C370 1.391 . S
C372 C373 1.400 . S
C373 C367 1.491 . S
C373 C372 1.400 . S
C373 C374 1.398 . S
C374 H362 0.950 . S
C374 C373 1.398 . S
C374 C375 1.391 . S
C375 H363 0.950 . S
C375 C371 1.393 . S
C375 C374 1.391 . S
H376 C384 0.950 . S
H377 C389 0.950 . S
H378 C386 0.950 1_655 S
H379 C388 0.947 1_565 S
H380 C390 0.950 . S
H381 C392 0.950 1_455 S
H382 C394 0.947 1_545 S
H383 C395 0.950 . S
C384 H376 0.950 . S
C384 C385 1.386 . S
C384 C386 1.391 . S
C385 C384 1.386 . S
C385 C389 1.393 1_556 S
C386 H378 0.950 1_455 S
C386 C384 1.391 . S
C386 C387 1.412 . S
C387 C386 1.412 . S
C387 C388 1.394 1_556 S
C387 C393 1.484 1_446 S
C388 H379 0.947 1_545 S
C388 C387 1.394 1_554 S
C388 C389 1.391 . S
C389 H377 0.950 . S
C389 C385 1.393 1_554 S
C389 C388 1.391 . S
C390 H380 0.950 . S
C390 C391 1.386 . S
C390 C392 1.391 . S
C391 C390 1.386 . S
C391 C395 1.393 1_554 S
C392 H381 0.950 1_655 S
C392 C390 1.391 . S
C392 C393 1.400 . S
C393 C387 1.484 1_664 S
C393 C392 1.400 . S
C393 C394 1.398 1_554 S
C394 H382 0.947 1_565 S
C394 C393 1.398 1_556 S
C394 C395 1.391 . S
C395 H383 0.950 . S
C395 C391 1.393 1_556 S
C395 C394 1.391 . S
H396 C404 0.950 . S
H397 C409 0.950 . S
H398 C406 0.942 1_455 S
H399 C408 0.950 . S
H400 C410 0.950 . S
H401 C412 0.942 1_655 S
H402 C414 0.950 . S
H403 C415 0.950 . S
C404 H396 0.950 . S
C404 C405 1.386 . S
C404 C406 1.396 . S
C405 C404 1.386 . S
C405 C409 1.393 . S
C406 H398 0.942 1_655 S
C406 C404 1.396 . S
C406 C407 1.403 . S
C407 C406 1.403 . S
C407 C408 1.398 . S
C407 C413 1.491 1_645 S
C408 H399 0.950 . S
C408 C407 1.398 . S
C408 C409 1.391 . S
C409 H397 0.950 . S
C409 C405 1.393 . S
C409 C408 1.391 . S
C410 H400 0.950 . S
C410 C411 1.386 . S
C410 C412 1.396 . S
C411 C410 1.386 . S
C411 C415 1.393 . S
C412 H401 0.942 1_455 S
C412 C410 1.396 . S
C412 C413 1.403 . S
C413 C407 1.491 1_465 S
C413 C412 1.403 . S
C413 C414 1.398 . S
C414 H402 0.950 . S
C414 C413 1.398 . S
C414 C415 1.391 . S
C415 H403 0.950 . S
C415 C411 1.393 . S
C415 C414 1.391 . S
H416 C424 0.950 . S
H417 C429 0.950 . S
H418 C426 0.950 . S
H419 C428 0.950 . S
H420 C430 0.950 . S
H421 C432 0.950 . S
H422 C434 0.950 . S
H423 C435 0.950 . S
C424 H416 0.950 . S
C424 C425 1.386 . S
C424 C426 1.391 . S
C425 C424 1.386 . S
C425 C429 1.393 . S
C426 H418 0.950 . S
C426 C424 1.391 . S
C426 C427 1.400 . S
C427 C426 1.400 . S
C427 C428 1.398 . S
C427 C433 1.491 . S
C428 H419 0.950 . S
C428 C427 1.398 . S
C428 C429 1.391 . S
C429 H417 0.950 . S
C429 C425 1.393 . S
C429 C428 1.391 . S
C430 H420 0.950 . S
C430 C431 1.386 . S
C430 C432 1.391 . S
C431 C430 1.386 . S
C431 C435 1.393 . S
C432 H421 0.950 . S
C432 C430 1.391 . S
C432 C433 1.400 . S
C433 C427 1.491 . S
C433 C432 1.400 . S
C433 C434 1.398 . S
C434 H422 0.950 . S
C434 C433 1.398 . S
C434 C435 1.391 . S
C435 H423 0.950 . S
C435 C431 1.393 . S
C435 C434 1.391 . S
H436 C444 0.950 . S
H437 C449 0.950 . S
H438 C446 0.950 . S
H439 C448 0.950 . S
H440 C450 0.950 . S
H441 C452 0.950 . S
H442 C454 0.950 . S
H443 C455 0.950 . S
C444 H436 0.950 . S
C444 C445 1.386 . S
C444 C446 1.391 . S
C445 C444 1.386 . S
C445 C449 1.393 . S
C446 H438 0.950 . S
C446 C444 1.391 . S
C446 C447 1.400 . S
C447 C446 1.400 . S
C447 C448 1.398 . S
C447 C453 1.491 . S
C448 H439 0.950 . S
C448 C447 1.398 . S
C448 C449 1.391 . S
C449 H437 0.950 . S
C449 C445 1.393 . S
C449 C448 1.391 . S
C450 H440 0.950 . S
C450 C451 1.386 . S
C450 C452 1.391 . S
C451 C450 1.386 . S
C451 C455 1.393 . S
C452 H441 0.950 . S
C452 C450 1.391 . S
C452 C453 1.400 . S
C453 C447 1.491 . S
C453 C452 1.400 . S
C453 C454 1.398 . S
C454 H442 0.950 . S
C454 C453 1.398 . S
C454 C455 1.391 . S
C455 H443 0.950 . S
C455 C451 1.393 . S
C455 C454 1.391 . S
H456 C464 0.950 . S
H457 C469 0.950 . S
H458 C466 0.950 . S
H459 C468 0.950 . S
H460 C470 0.950 . S
H461 C472 0.950 . S
H462 C474 0.950 . S
H463 C475 0.950 . S
C464 H456 0.950 . S
C464 C465 1.386 . S
C464 C466 1.391 . S
C465 C464 1.386 . S
C465 C469 1.393 . S
C466 H458 0.950 . S
C466 C464 1.391 . S
C466 C467 1.400 . S
C467 C466 1.400 . S
C467 C468 1.398 . S
C467 C473 1.491 . S
C468 H459 0.950 . S
C468 C467 1.398 . S
C468 C469 1.391 . S
C469 H457 0.950 . S
C469 C465 1.393 . S
C469 C468 1.391 . S
C470 H460 0.950 . S
C470 C471 1.386 . S
C470 C472 1.391 . S
C471 C470 1.386 . S
C471 C475 1.393 . S
C472 H461 0.950 . S
C472 C470 1.391 . S
C472 C473 1.400 . S
C473 C467 1.491 . S
C473 C472 1.400 . S
C473 C474 1.398 . S
C474 H462 0.950 . S
C474 C473 1.398 . S
C474 C475 1.391 . S
C475 H463 0.950 . S
C475 C471 1.393 . S
C475 C474 1.391 . S
H476 C484 0.950 . S
H477 C489 0.950 . S
H478 C486 0.950 . S
H479 C488 0.950 . S
H480 C490 0.950 . S
H481 C492 0.950 . S
H482 C494 0.950 . S
H483 C495 0.950 . S
C484 H476 0.950 . S
C484 C485 1.386 . S
C484 C486 1.391 . S
C485 C484 1.386 . S
C485 C489 1.393 . S
C486 H478 0.950 . S
C486 C484 1.391 . S
C486 C487 1.400 . S
C487 C486 1.400 . S
C487 C488 1.398 . S
C487 C493 1.491 . S
C488 H479 0.950 . S
C488 C487 1.398 . S
C488 C489 1.391 . S
C489 H477 0.950 . S
C489 C485 1.393 . S
C489 C488 1.391 . S
C490 H480 0.950 . S
C490 C491 1.386 . S
C490 C492 1.391 . S
C491 C490 1.386 . S
C491 C495 1.393 . S
C492 H481 0.950 . S
C492 C490 1.391 . S
C492 C493 1.400 . S
C493 C487 1.491 . S
C493 C492 1.400 . S
C493 C494 1.398 . S
C494 H482 0.950 . S
C494 C493 1.398 . S
C494 C495 1.391 . S
C495 H483 0.950 . S
C495 C491 1.393 . S
C495 C494 1.391 . S
H496 C504 0.950 . S
H497 C509 0.950 . S
H498 C506 0.950 . S
H499 C508 0.950 . S
H500 C510 0.950 . S
H501 C512 0.950 1_455 S
H502 C514 0.950 . S
H503 C515 0.950 . S
C504 H496 0.950 . S
C504 C505 1.386 . S
C504 C506 1.391 . S
C505 C504 1.386 . S
C505 C509 1.393 . S
C506 H498 0.950 . S
C506 C504 1.391 . S
C506 C507 1.400 . S
C507 C506 1.400 . S
C507 C508 1.398 . S
C507 C513 1.491 . S
C508 H499 0.950 . S
C508 C507 1.398 . S
C508 C509 1.391 . S
C509 H497 0.950 . S
C509 C505 1.393 . S
C509 C508 1.391 . S
C510 H500 0.950 . S
C510 C511 1.386 1_455 S
C510 C512 1.391 1_455 S
C511 C510 1.386 1_655 S
C511 C515 1.393 . S
C512 H501 0.950 1_655 S
C512 C510 1.391 1_655 S
C512 C513 1.400 . S
C513 C507 1.491 . S
C513 C512 1.400 . S
C513 C514 1.398 . S
C514 H502 0.950 . S
C514 C513 1.398 . S
C514 C515 1.391 . S
C515 H503 0.950 . S
C515 C511 1.393 . S
C515 C514 1.391 . S
H516 C524 0.950 . S
H517 C529 0.950 . S
H518 C526 0.950 . S
H519 C528 0.950 . S
H520 C530 0.950 . S
H521 C532 0.950 1_455 S
H522 C534 0.950 . S
H523 C535 0.950 . S
C524 H516 0.950 . S
C524 C525 1.386 . S
C524 C526 1.391 . S
C525 C524 1.386 . S
C525 C529 1.393 . S
C526 H518 0.950 . S
C526 C524 1.391 . S
C526 C527 1.400 . S
C527 C526 1.400 . S
C527 C528 1.398 . S
C527 C533 1.491 . S
C528 H519 0.950 . S
C528 C527 1.398 . S
C528 C529 1.391 . S
C529 H517 0.950 . S
C529 C525 1.393 . S
C529 C528 1.391 . S
C530 H520 0.950 . S
C530 C531 1.386 1_455 S
C530 C532 1.391 1_455 S
C531 C530 1.386 1_655 S
C531 C535 1.393 . S
C532 H521 0.950 1_655 S
C532 C530 1.391 1_655 S
C532 C533 1.400 . S
C533 C527 1.491 . S
C533 C532 1.400 . S
C533 C534 1.398 . S
C534 H522 0.950 . S
C534 C533 1.398 . S
C534 C535 1.391 . S
C535 H523 0.950 . S
C535 C531 1.393 . S
C535 C534 1.391 . S
H536 C544 0.950 . S
H537 C549 0.950 . S
H538 C546 0.950 . S
H539 C548 0.950 . S
H540 C550 0.950 . S
H541 C552 0.950 . S
H542 C554 0.950 1_655 S
H543 C555 0.950 . S
C544 H536 0.950 . S
C544 C545 1.386 1_655 S
C544 C546 1.391 . S
C545 C544 1.386 1_455 S
C545 C549 1.393 . S
C546 H538 0.950 . S
C546 C544 1.391 . S
C546 C547 1.400 1_655 S
C547 C546 1.400 1_455 S
C547 C548 1.398 . S
C547 C553 1.491 . S
C548 H539 0.950 . S
C548 C547 1.398 . S
C548 C549 1.391 . S
C549 H537 0.950 . S
C549 C545 1.393 . S
C549 C548 1.391 . S
C550 H540 0.950 . S
C550 C551 1.386 . S
C550 C552 1.391 . S
C551 C550 1.386 . S
C551 C555 1.393 . S
C552 H541 0.950 . S
C552 C550 1.391 . S
C552 C553 1.400 . S
C553 C547 1.491 . S
C553 C552 1.400 . S
C553 C554 1.398 . S
C554 H542 0.950 1_455 S
C554 C553 1.398 . S
C554 C555 1.391 . S
C555 H543 0.950 . S
C555 C551 1.393 . S
C555 C554 1.391 . S
H556 C564 0.950 . S
H557 C569 0.950 . S
H558 C566 0.950 . S
H559 C568 0.950 . S
H560 C570 0.950 1_655 S
H561 C572 0.950 . S
H562 C574 0.950 . S
H563 C575 0.950 . S
C564 H556 0.950 . S
C564 C565 1.386 . S
C564 C566 1.391 . S
C565 C564 1.386 . S
C565 C569 1.393 . S
C566 H558 0.950 . S
C566 C564 1.391 . S
C566 C567 1.400 . S
C567 C566 1.400 . S
C567 C568 1.398 . S
C567 C573 1.491 . S
C568 H559 0.950 . S
C568 C567 1.398 . S
C568 C569 1.391 . S
C569 H557 0.950 . S
C569 C565 1.393 . S
C569 C568 1.391 . S
C570 H560 0.950 1_455 S
C570 C571 1.386 . S
C570 C572 1.391 . S
C571 C570 1.386 . S
C571 C575 1.393 . S
C572 H561 0.950 . S
C572 C570 1.391 . S
C572 C573 1.400 . S
C573 C567 1.491 . S
C573 C572 1.400 . S
C573 C574 1.398 . S
C574 H562 0.950 . S
C574 C573 1.398 . S
C574 C575 1.391 . S
C575 H563 0.950 . S
C575 C571 1.393 . S
C575 C574 1.391 . S
C345 C147 1.493 . S
C351 C74 1.493 . S
C365 C242 1.511 . S
C371 C315 1.511 . S
C385 C63 1.503 . S
C391 C158 1.503 . S
C405 C326 1.507 . S
C411 C231 1.507 . S
C425 C310 1.220 . S
C431 C56 1.192 . S
C445 C142 1.218 . S
C451 C224 1.221 . S
C465 C151 1.204 . S
C471 C238 1.198 . S
C485 C319 1.218 . S
C491 C70 1.229 . S
C505 C140 1.221 . S
C511 C226 1.219 . S
C525 C308 1.221 . S
C531 C58 1.221 . S
C545 C322 1.229 . S
C551 C67 1.219 . S
C565 C235 1.211 . S
C571 C154 1.204 . S
