# Generated by pormake.
# Topology zfr, (5)-cn, num edge types: 1
# Building blocks:
#     Node 0, Type 0, BuildingBlock: XOMCOT_clean_sbu_1, # of connection points: 5
#     Node 1, Type 0, BuildingBlock: XOMCOT_clean_sbu_1, # of connection points: 5
#     Node 2, Type 0, BuildingBlock: XOMCOT_clean_sbu_1, # of connection points: 5
#     Node 3, Type 0, BuildingBlock: XOMCOT_clean_sbu_1, # of connection points: 5
#     Node 4, Type 0, BuildingBlock: XOMCOT_clean_sbu_1, # of connection points: 5
#     Node 5, Type 0, BuildingBlock: XOMCOT_clean_sbu_1, # of connection points: 5
#     Node 6, Type 0, BuildingBlock: XOMCOT_clean_sbu_1, # of connection points: 5
#     Node 7, Type 0, BuildingBlock: XOMCOT_clean_sbu_1, # of connection points: 5
#     Edge 8, Type (0, 0), BuildingBlock: KIFKEQ_clean_linker_1, # of connection points: 2
#     Edge 9, Type (0, 0), BuildingBlock: KIFKEQ_clean_linker_1, # of connection points: 2
#     Edge 10, Type (0, 0), BuildingBlock: KIFKEQ_clean_linker_1, # of connection points: 2
#     Edge 11, Type (0, 0), BuildingBlock: KIFKEQ_clean_linker_1, # of connection points: 2
#     Edge 12, Type (0, 0), BuildingBlock: KIFKEQ_clean_linker_1, # of connection points: 2
#     Edge 13, Type (0, 0), BuildingBlock: KIFKEQ_clean_linker_1, # of connection points: 2
#     Edge 14, Type (0, 0), BuildingBlock: KIFKEQ_clean_linker_1, # of connection points: 2
#     Edge 15, Type (0, 0), BuildingBlock: KIFKEQ_clean_linker_1, # of connection points: 2
#     Edge 16, Type (0, 0), BuildingBlock: KIFKEQ_clean_linker_1, # of connection points: 2
#     Edge 17, Type (0, 0), BuildingBlock: KIFKEQ_clean_linker_1, # of connection points: 2
#     Edge 18, Type (0, 0), BuildingBlock: KIFKEQ_clean_linker_1, # of connection points: 2
#     Edge 19, Type (0, 0), BuildingBlock: KIFKEQ_clean_linker_1, # of connection points: 2
#     Edge 20, Type (0, 0), BuildingBlock: KIFKEQ_clean_linker_1, # of connection points: 2
#     Edge 21, Type (0, 0), BuildingBlock: KIFKEQ_clean_linker_1, # of connection points: 2
#     Edge 22, Type (0, 0), BuildingBlock: KIFKEQ_clean_linker_1, # of connection points: 2
#     Edge 23, Type (0, 0), BuildingBlock: KIFKEQ_clean_linker_1, # of connection points: 2
#     Edge 24, Type (0, 0), BuildingBlock: KIFKEQ_clean_linker_1, # of connection points: 2
#     Edge 25, Type (0, 0), BuildingBlock: KIFKEQ_clean_linker_1, # of connection points: 2
#     Edge 26, Type (0, 0), BuildingBlock: KIFKEQ_clean_linker_1, # of connection points: 2
#     Edge 27, Type (0, 0), BuildingBlock: KIFKEQ_clean_linker_1, # of connection points: 2
# Relax obj value: 0.188
# Max RMSD: 0.175
# Mean RMSD: 0.175
data_MOF--net-zfr--node1-XOMCOT_clean_sbu_1--edge1-KIFKEQ_clean_linker_1
_symmetry_space_group_name_H-M    P1
_symmetry_Int_Tables_number       1
_symmetry_cell_setting            triclinic
loop_
_symmetry_equiv_pos_as_xyz
'x, y, z'
_cell_length_a     52.113493
_cell_length_b     52.119863
_cell_length_c     17.524184
_cell_angle_alpha  90.0627
_cell_angle_beta   90.061864
_cell_angle_gamma 90.020478
loop_
_atom_site_label
_atom_site_type_symbol
_atom_site_fract_x
_atom_site_fract_y
_atom_site_fract_z
_atom_type_partial_charge
C0 C 0.15647 0.33877 0.12661 0.0
C1 C 0.16114 0.33814 0.04933 0.0
N2 N 0.14666 0.31942 0.01779 0.0
N3 N 0.13888 0.32075 0.14381 0.0
C4 C 0.13379 0.30891 0.07705 0.0
H5 H 0.16445 0.35226 0.16714 0.0
Co6 Co 0.12299 0.31545 0.23776 0.0
C7 C 0.06787 0.31449 0.18793 0.0
O8 O 0.06152 0.33084 0.24189 0.0
N9 N 0.10794 0.30921 0.33348 0.0
C10 C 0.08503 0.29326 0.42975 0.0
C11 C 0.0863 0.29628 0.35198 0.0
C12 C 0.12024 0.31214 0.40095 0.0
N13 N 0.10645 0.30328 0.46048 0.0
O14 O 0.13352 0.28019 0.23774 0.0
H15 H 0.07299 0.28782 0.31209 0.0
H16 H 0.13946 0.31976 0.4061 0.0
O17 O 0.09106 0.30653 0.18314 0.0
C18 C 0.15745 0.27571 0.24411 0.0
O19 O 0.17368 0.29497 0.24165 0.0
N20 N 0.11406 0.35094 0.24048 0.0
C21 C 0.10804 0.40448 0.24265 0.0
C22 C 0.0991 0.38984 0.1808 0.0
C23 C 0.10256 0.36319 0.1804 0.0
C24 C 0.12346 0.36507 0.29981 0.0
C25 C 0.12014 0.39159 0.30295 0.0
H26 H 0.0969 0.35257 0.13013 0.0
H27 H 0.13469 0.35616 0.34376 0.0
H28 H 0.12048 0.29314 0.07235 0.0
H29 H 0.17336 0.35138 0.01879 0.0
H30 H 0.07016 0.28324 0.46085 0.0
H31 H 0.09043 0.39892 0.13158 0.0
H32 H 0.12754 0.40191 0.35191 0.0
C33 C 0.67908 0.16183 0.42159 0.0
C34 C 0.6777 0.16585 0.34378 0.0
N35 N 0.67874 0.14283 0.3088 0.0
N36 N 0.68095 0.13645 0.43513 0.0
C37 C 0.68037 0.12547 0.36544 0.0
H38 H 0.67937 0.17647 0.46538 0.0
Co39 Co 0.68535 0.12058 0.52911 0.0
C40 C 0.69179 0.06503 0.4884 0.0
O41 O 0.67782 0.05801 0.54722 0.0
N42 N 0.69051 0.10517 0.62511 0.0
C43 C 0.71181 0.08673 0.72058 0.0
C44 C 0.71027 0.08948 0.6429 0.0
C45 C 0.68084 0.11224 0.69361 0.0
N46 N 0.69343 0.10131 0.75257 0.0
O47 O 0.72024 0.13259 0.53239 0.0
H48 H 0.72401 0.08199 0.60243 0.0
H49 H 0.66671 0.12713 0.70102 0.0
O50 O 0.69623 0.08887 0.47698 0.0
C51 C 0.7228 0.15141 0.57835 0.0
O52 O 0.70235 0.16004 0.6139 0.0
N53 N 0.65031 0.11125 0.52748 0.0
C54 C 0.59664 0.10695 0.52564 0.0
C55 C 0.61192 0.09184 0.4772 0.0
C56 C 0.63865 0.09451 0.47826 0.0
C57 C 0.63569 0.12687 0.57204 0.0
C58 C 0.60904 0.12456 0.57383 0.0
H59 H 0.64956 0.08397 0.43657 0.0
H60 H 0.64469 0.14207 0.60426 0.0
H61 H 0.68109 0.10505 0.35583 0.0
H62 H 0.67696 0.18424 0.31528 0.0
H63 H 0.72629 0.07593 0.75103 0.0
H64 H 0.60333 0.07881 0.43636 0.0
H65 H 0.59833 0.13691 0.61191 0.0
C66 C 0.84535 0.66967 0.64061 0.0
C67 C 0.84003 0.67003 0.56365 0.0
N68 N 0.85636 0.68651 0.52949 0.0
N69 N 0.86501 0.68574 0.65502 0.0
C70 C 0.87098 0.69602 0.58669 0.0
H71 H 0.83597 0.65795 0.68319 0.0
Co72 Co 0.88099 0.69059 0.74917 0.0
C73 C 0.93614 0.69146 0.70383 0.0
O74 O 0.94159 0.67541 0.75936 0.0
N75 N 0.89592 0.69647 0.84548 0.0
C76 C 0.91734 0.71434 0.94197 0.0
C77 C 0.91647 0.71101 0.86424 0.0
C78 C 0.8838 0.69272 0.9128 0.0
N79 N 0.89672 0.70276 0.97274 0.0
O80 O 0.87052 0.72586 0.7506 0.0
H81 H 0.92903 0.72051 0.82431 0.0
H82 H 0.86503 0.68408 0.91711 0.0
O83 O 0.91312 0.69963 0.69586 0.0
C84 C 0.84666 0.73025 0.75925 0.0
O85 O 0.83049 0.71093 0.75866 0.0
N86 N 0.89002 0.65505 0.74969 0.0
C87 C 0.89722 0.60161 0.7464 0.0
C88 C 0.90502 0.61705 0.68504 0.0
C89 C 0.9011 0.64359 0.68756 0.0
C90 C 0.88163 0.64017 0.80858 0.0
C91 C 0.8856 0.6137 0.80906 0.0
H92 H 0.90621 0.65479 0.63802 0.0
H93 H 0.8708 0.64837 0.85451 0.0
H94 H 0.88633 0.70962 0.57893 0.0
H95 H 0.82549 0.65867 0.53531 0.0
H96 H 0.93125 0.72581 0.97265 0.0
H97 H 0.91324 0.6087 0.63405 0.0
H98 H 0.87913 0.60282 0.85797 0.0
C99 C 0.34037 0.84775 0.90363 0.0
C100 C 0.34034 0.84252 0.82662 0.0
N101 N 0.32348 0.85841 0.79224 0.0
N102 N 0.3237 0.86691 0.91781 0.0
C103 C 0.31346 0.87271 0.84927 0.0
H104 H 0.35221 0.83862 0.94645 0.0
Co105 Co 0.31811 0.8825 0.01198 0.0
C106 C 0.31489 0.93776 0.96786 0.0
O107 O 0.33049 0.9439 0.02401 0.0
N108 N 0.31163 0.89707 0.10827 0.0
C109 C 0.2926 0.91757 0.20443 0.0
C110 C 0.29582 0.91667 0.1267 0.0
C111 C 0.31633 0.88545 0.17582 0.0
N112 N 0.30557 0.89785 0.23551 0.0
O113 O 0.2832 0.87084 0.0123 0.0
H114 H 0.28546 0.92846 0.08652 0.0
H115 H 0.32608 0.86726 0.18062 0.0
O116 O 0.30798 0.91436 0.95912 0.0
C117 C 0.27946 0.84683 0.01981 0.0
O118 O 0.29924 0.83123 0.01962 0.0
N119 N 0.35331 0.89264 0.01342 0.0
C120 C 0.40646 0.90095 0.01078 0.0
C121 C 0.39085 0.90965 0.95102 0.0
C122 C 0.36441 0.90506 0.95299 0.0
C123 C 0.36851 0.88327 0.07039 0.0
C124 C 0.39493 0.88769 0.07112 0.0
H125 H 0.35305 0.91067 0.9042 0.0
H126 H 0.36064 0.87103 0.11363 0.0
H127 H 0.2995 0.88771 0.8412 0.0
H128 H 0.35212 0.82832 0.79839 0.0
H129 H 0.28029 0.93075 0.23496 0.0
H130 H 0.39904 0.91949 0.90239 0.0
H131 H 0.40642 0.87961 0.11671 0.0
C132 C 0.15661 0.66341 0.35639 0.0
C133 C 0.16132 0.66378 0.43375 0.0
N134 N 0.1462 0.68182 0.46564 0.0
N135 N 0.13852 0.68103 0.33988 0.0
C136 C 0.13294 0.69223 0.40719 0.0
H137 H 0.1651 0.65051 0.31515 0.0
Co138 Co 0.12331 0.68679 0.24542 0.0
C139 C 0.06791 0.68945 0.28848 0.0
O140 O 0.062 0.67389 0.23201 0.0
N141 N 0.10906 0.6935 0.14913 0.0
C142 C 0.08868 0.71242 0.05255 0.0
C143 C 0.08918 0.70892 0.1302 0.0
C144 C 0.12119 0.68931 0.08212 0.0
N145 N 0.10889 0.70003 0.02233 0.0
O146 O 0.13481 0.72177 0.24632 0.0
H147 H 0.07679 0.71871 0.16999 0.0
H148 H 0.13986 0.68042 0.07783 0.0
O149 O 0.09124 0.69657 0.29768 0.0
C150 C 0.15886 0.72578 0.24129 0.0
O151 O 0.17468 0.7062 0.24368 0.0
N152 N 0.11329 0.65155 0.24254 0.0
C153 C 0.10506 0.59839 0.24296 0.0
C154 C 0.09639 0.61371 0.30345 0.0
C155 C 0.10092 0.64015 0.30255 0.0
C156 C 0.12256 0.63666 0.18469 0.0
C157 C 0.11819 0.61024 0.18291 0.0
H158 H 0.0953 0.65128 0.3518 0.0
H159 H 0.13463 0.64478 0.1414 0.0
H160 H 0.11919 0.70759 0.41327 0.0
H161 H 0.17397 0.65094 0.46439 0.0
H162 H 0.07497 0.72393 0.02128 0.0
H163 H 0.0866 0.60527 0.3518 0.0
H164 H 0.1262 0.59899 0.13668 0.0
C165 C 0.33657 0.15621 0.60873 0.0
C166 C 0.33589 0.16116 0.68583 0.0
N167 N 0.31758 0.14633 0.71792 0.0
N168 N 0.31899 0.13813 0.59205 0.0
C169 C 0.30733 0.13299 0.65896 0.0
H170 H 0.34985 0.16434 0.56794 0.0
Co171 Co 0.31436 0.12191 0.49813 0.0
C172 C 0.31271 0.06703 0.54634 0.0
O173 O 0.32908 0.06106 0.4921 0.0
N174 N 0.30875 0.10672 0.4022 0.0
C175 C 0.2921 0.08453 0.30526 0.0
C176 C 0.29489 0.0857 0.38313 0.0
C177 C 0.31252 0.11882 0.33489 0.0
N178 N 0.30321 0.10544 0.27497 0.0
O179 O 0.27926 0.13292 0.4949 0.0
H180 H 0.28552 0.07294 0.4227 0.0
H181 H 0.32092 0.13772 0.33024 0.0
O182 O 0.30464 0.09016 0.55234 0.0
C183 C 0.27516 0.15687 0.48718 0.0
O184 O 0.29463 0.17285 0.48979 0.0
N185 N 0.34977 0.11229 0.49927 0.0
C186 C 0.40292 0.1046 0.50602 0.0
C187 C 0.38718 0.09746 0.56712 0.0
C188 C 0.36072 0.10156 0.56279 0.0
C189 C 0.36507 0.1199 0.44027 0.0
C190 C 0.39154 0.11572 0.44172 0.0
H191 H 0.34918 0.09693 0.61206 0.0
H192 H 0.35722 0.13042 0.39308 0.0
H193 H 0.292 0.11921 0.66399 0.0
H194 H 0.34884 0.17389 0.71577 0.0
H195 H 0.28134 0.07023 0.2738 0.0
H196 H 0.39531 0.08919 0.61842 0.0
H197 H 0.40317 0.12235 0.39447 0.0
C198 C 0.84641 0.32789 0.82056 0.0
C199 C 0.84227 0.32924 0.89833 0.0
N200 N 0.86512 0.32699 0.93374 0.0
N201 N 0.87171 0.32486 0.80746 0.0
C202 C 0.88252 0.32468 0.8774 0.0
H203 H 0.83188 0.32848 0.77647 0.0
Co204 Co 0.88755 0.32017 0.71353 0.0
C205 C 0.94288 0.31213 0.75464 0.0
O206 O 0.9503 0.326 0.69606 0.0
N207 N 0.90286 0.31473 0.61753 0.0
C208 C 0.92066 0.29296 0.52188 0.0
C209 C 0.9181 0.29463 0.59959 0.0
C210 C 0.89583 0.32447 0.54908 0.0
N211 N 0.90638 0.3116 0.49003 0.0
O212 O 0.87459 0.28564 0.70964 0.0
H213 H 0.92533 0.28073 0.63998 0.0
H214 H 0.88116 0.33883 0.54182 0.0
O215 O 0.91891 0.30827 0.76575 0.0
C216 C 0.8557 0.28349 0.66375 0.0
O217 O 0.84744 0.30413 0.62842 0.0
N218 N 0.898 0.35494 0.71593 0.0
C219 C 0.90434 0.40822 0.72022 0.0
C220 C 0.91843 0.39233 0.76919 0.0
C221 C 0.91479 0.36574 0.76678 0.0
C222 C 0.88327 0.37035 0.67086 0.0
C223 C 0.8866 0.39692 0.67047 0.0
H224 H 0.92464 0.35429 0.80862 0.0
H225 H 0.86784 0.36213 0.6378 0.0
H226 H 0.90286 0.32301 0.88741 0.0
H227 H 0.82387 0.33083 0.92649 0.0
H228 H 0.93105 0.27822 0.49131 0.0
H229 H 0.93176 0.40042 0.81016 0.0
H230 H 0.87445 0.40862 0.63434 0.0
C231 C 0.66632 0.84942 0.12127 0.0
C232 C 0.667 0.8447 0.19851 0.0
N233 N 0.68563 0.85929 0.23012 0.0
N234 N 0.68421 0.86713 0.10414 0.0
C235 C 0.69603 0.87227 0.17091 0.0
H236 H 0.65289 0.84136 0.0807 0.0
Co237 Co 0.68943 0.88302 0.01016 0.0
C238 C 0.69017 0.93815 0.05926 0.0
O239 O 0.67391 0.9443 0.00486 0.0
N240 N 0.69561 0.89805 0.91439 0.0
C241 C 0.71178 0.92083 0.81819 0.0
C242 C 0.70871 0.91958 0.89594 0.0
C243 C 0.69262 0.88577 0.84691 0.0
N244 N 0.70162 0.89949 0.78742 0.0
O245 O 0.72472 0.87259 0.01008 0.0
H246 H 0.71729 0.9328 0.93588 0.0
H247 H 0.68492 0.86658 0.84176 0.0
O248 O 0.69824 0.91501 0.06465 0.0
C249 C 0.72922 0.84866 0.00348 0.0
O250 O 0.70997 0.83242 0.00588 0.0
N251 N 0.6539 0.89186 0.00759 0.0
C252 C 0.60036 0.89794 0.00585 0.0
C253 C 0.61507 0.90681 0.06766 0.0
C254 C 0.64171 0.90332 0.06784 0.0
C255 C 0.63972 0.88251 0.94832 0.0
C256 C 0.61319 0.88586 0.94539 0.0
H257 H 0.65237 0.90895 0.11805 0.0
H258 H 0.64858 0.87131 0.90421 0.0
H259 H 0.7117 0.88569 0.17562 0.0
H260 H 0.65387 0.83234 0.22893 0.0
H261 H 0.72196 0.9356 0.78714 0.0
H262 H 0.60604 0.91545 0.11701 0.0
H263 H 0.60282 0.87851 0.89646 0.0
H264 H 0.24893 0.19759 0.54291 0.0
H265 H 0.24658 0.13926 0.36827 0.0
H266 H 0.2134 0.22014 0.48068 0.0
H267 H 0.21166 0.1625 0.30394 0.0
H268 H 0.13946 0.24689 0.36169 0.0
H269 H 0.16243 0.21172 0.42548 0.0
H270 H 0.22032 0.21354 0.24984 0.0
H271 H 0.19803 0.24932 0.18813 0.0
C272 C 0.2402 0.18921 0.49256 0.0
C273 C 0.25017 0.16661 0.46075 0.0
C274 C 0.21992 0.20206 0.45704 0.0
C275 C 0.20982 0.19295 0.3878 0.0
C276 C 0.219 0.1697 0.35772 0.0
C277 C 0.23881 0.15639 0.39464 0.0
C278 C 0.15658 0.23908 0.33538 0.0
C279 C 0.16696 0.25055 0.26977 0.0
C280 C 0.16973 0.21912 0.37201 0.0
C281 C 0.19299 0.20991 0.34214 0.0
C282 C 0.20224 0.22009 0.27331 0.0
C283 C 0.18954 0.24052 0.23807 0.0
H284 H 0.83093 0.26943 0.53463 0.0
H285 H 0.85102 0.24186 0.75905 0.0
H286 H 0.80411 0.23184 0.51403 0.0
H287 H 0.82379 0.20396 0.73853 0.0
H288 H 0.73777 0.175 0.70839 0.0
H289 H 0.77549 0.20168 0.72857 0.0
H290 H 0.80195 0.18359 0.50136 0.0
H291 H 0.76391 0.15649 0.48129 0.0
C292 C 0.82991 0.25507 0.57918 0.0
C293 C 0.8428 0.2587 0.64885 0.0
C294 C 0.81473 0.23338 0.56701 0.0
C295 C 0.81175 0.21495 0.62467 0.0
C296 C 0.82566 0.21792 0.69315 0.0
C297 C 0.84127 0.23952 0.70486 0.0
C298 C 0.75187 0.17631 0.66317 0.0
C299 C 0.74779 0.16393 0.59291 0.0
C300 C 0.77363 0.19142 0.67506 0.0
C301 C 0.79167 0.19484 0.61652 0.0
C302 C 0.78828 0.18138 0.54742 0.0
C303 C 0.76661 0.16583 0.53596 0.0
H304 H 0.86493 0.75893 0.87698 0.0
H305 H 0.80614 0.75682 0.70369 0.0
H306 H 0.84217 0.79413 0.94137 0.0
H307 H 0.78406 0.79264 0.76595 0.0
H308 H 0.75589 0.80829 0.05953 0.0
H309 H 0.79148 0.78592 0.9971 0.0
H310 H 0.79261 0.84345 0.82037 0.0
H311 H 0.75764 0.8665 0.88487 0.0
C312 C 0.84781 0.76683 0.85086 0.0
C313 C 0.83732 0.75545 0.78515 0.0
C314 C 0.83477 0.7868 0.88782 0.0
C315 C 0.8115 0.79611 0.8582 0.0
C316 C 0.80215 0.78601 0.78925 0.0
C317 C 0.81474 0.76557 0.75369 0.0
C318 C 0.76452 0.81671 0.00919 0.0
C319 C 0.75434 0.8392 0.9774 0.0
C320 C 0.78483 0.80395 0.97353 0.0
C321 C 0.79476 0.81306 0.90418 0.0
C322 C 0.78541 0.83625 0.87422 0.0
C323 C 0.76557 0.84946 0.91126 0.0
H324 H 0.14193 0.75635 0.12603 0.0
H325 H 0.19982 0.75062 0.3013 0.0
H326 H 0.16576 0.79194 0.06722 0.0
H327 H 0.22294 0.78683 0.24464 0.0
H328 H 0.25483 0.80576 0.95987 0.0
H329 H 0.21871 0.7825 0.01652 0.0
H330 H 0.2133 0.83972 0.19375 0.0
H331 H 0.24881 0.86368 0.1349 0.0
C332 C 0.15911 0.76349 0.1538 0.0
C333 C 0.16904 0.75098 0.21839 0.0
C334 C 0.17274 0.78369 0.12004 0.0
C335 C 0.19601 0.79213 0.15191 0.0
C336 C 0.20485 0.78086 0.21974 0.0
C337 C 0.19168 0.7602 0.25205 0.0
C338 C 0.2452 0.81388 0.00905 0.0
C339 C 0.25429 0.83658 0.04263 0.0
C340 C 0.22459 0.80063 0.04137 0.0
C341 C 0.21326 0.80945 0.10914 0.0
C342 C 0.22159 0.83276 0.14096 0.0
C343 C 0.24174 0.84647 0.10719 0.0
H344 H 0.07405 0.30707 0.57978 0.0
H345 H 0.15427 0.30096 0.5217 0.0
H346 H 0.08515 0.30921 0.71444 0.0
H347 H 0.16554 0.3026 0.65692 0.0
H348 H 0.17574 0.33641 0.89843 0.0
H349 H 0.16664 0.33145 0.76342 0.0
H350 H 0.101 0.28424 0.81735 0.0
H351 H 0.10911 0.29019 0.95165 0.0
C352 C 0.09406 0.30582 0.59598 0.0
C353 C 0.11326 0.30386 0.54015 0.0
C354 C 0.10047 0.30698 0.67325 0.0
C355 C 0.12627 0.30596 0.69679 0.0
C356 C 0.1455 0.3038 0.64085 0.0
C357 C 0.13907 0.30284 0.56335 0.0
C358 C 0.15928 0.32506 0.882 0.0
C359 C 0.143 0.31414 0.93729 0.0
C360 C 0.15423 0.32196 0.8041 0.0
C361 C 0.1329 0.30769 0.7793 0.0
C362 C 0.11728 0.29585 0.83428 0.0
C363 C 0.12219 0.29908 0.912 0.0
H364 H 0.70266 0.10272 0.24173 0.0
H365 H 0.65837 0.17079 0.19278 0.0
H366 H 0.70482 0.09286 0.10686 0.0
H367 H 0.66135 0.1613 0.05594 0.0
H368 H 0.6504 0.11753 0.82508 0.0
H369 H 0.64618 0.12876 0.96009 0.0
H370 H 0.72622 0.1108 0.9951 0.0
H371 H 0.73048 0.09982 0.86118 0.0
C372 C 0.69321 0.11554 0.20223 0.0
C373 C 0.68015 0.13747 0.22822 0.0
C374 C 0.69474 0.11004 0.12464 0.0
C375 C 0.68337 0.12636 0.07073 0.0
C376 C 0.67016 0.14828 0.09632 0.0
C377 C 0.66866 0.15384 0.17444 0.0
C378 C 0.66709 0.11612 0.86161 0.0
C379 C 0.6907 0.10751 0.83236 0.0
C380 C 0.66469 0.12261 0.9388 0.0
C381 C 0.68583 0.12052 0.98822 0.0
C382 C 0.70945 0.11215 0.95876 0.0
C383 C 0.71186 0.10573 0.88188 0.0
H384 H 0.84914 0.69426 0.03282 0.0
H385 H 0.92794 0.70991 0.09505 0.0
H386 H 0.83778 0.6918 0.16729 0.0
H387 H 0.91632 0.70797 0.22922 0.0
H388 H 0.88128 0.72633 0.46118 0.0
H389 H 0.89001 0.73157 0.32582 0.0
H390 H 0.84734 0.66249 0.27699 0.0
H391 H 0.83901 0.65677 0.41225 0.0
C392 C 0.86411 0.69711 0.07473 0.0
C393 C 0.88956 0.70222 0.05243 0.0
C394 C 0.85752 0.69577 0.15198 0.0
C395 C 0.87614 0.69973 0.20879 0.0
C396 C 0.90146 0.70521 0.18674 0.0
C397 C 0.9081 0.70635 0.10961 0.0
C398 C 0.8738 0.71213 0.42204 0.0
C399 C 0.8596 0.69094 0.44857 0.0
C400 C 0.87879 0.71522 0.34424 0.0
C401 C 0.86948 0.69738 0.29084 0.0
C402 C 0.85457 0.6767 0.31673 0.0
C403 C 0.84976 0.67347 0.39459 0.0
H404 H 0.2971 0.92885 0.35736 0.0
H405 H 0.31632 0.85081 0.29592 0.0
H406 H 0.29964 0.91746 0.49172 0.0
H407 H 0.31935 0.8397 0.43046 0.0
H408 H 0.35414 0.84256 0.67558 0.0
H409 H 0.34819 0.85069 0.54021 0.0
H410 H 0.27718 0.8901 0.58813 0.0
H411 H 0.28269 0.88156 0.72355 0.0
C412 C 0.30159 0.90921 0.37218 0.0
C413 C 0.30654 0.89082 0.31522 0.0
C414 C 0.30306 0.90271 0.44936 0.0
C415 C 0.3097 0.87769 0.47159 0.0
C416 C 0.31449 0.85922 0.41497 0.0
C417 C 0.31283 0.86567 0.3377 0.0
C418 C 0.33699 0.85254 0.65764 0.0
C419 C 0.31903 0.86153 0.71132 0.0
C420 C 0.33363 0.85724 0.57977 0.0
C421 C 0.31231 0.87118 0.55364 0.0
C422 C 0.29402 0.87965 0.60676 0.0
C423 C 0.29725 0.87477 0.68457 0.0
H424 H 0.13678 0.66306 0.95238 0.0
H425 H 0.09827 0.73521 0.91266 0.0
H426 H 0.14775 0.66051 0.81743 0.0
H427 H 0.10918 0.73263 0.77779 0.0
H428 H 0.10324 0.69981 0.53427 0.0
H429 H 0.09614 0.70597 0.6698 0.0
H430 H 0.17351 0.68064 0.71631 0.0
H431 H 0.18069 0.67455 0.5797 0.0
C432 C 0.13096 0.67855 0.91511 0.0
C433 C 0.11648 0.69924 0.9433 0.0
C434 C 0.13728 0.6771 0.83776 0.0
C435 C 0.12923 0.69631 0.78687 0.0
C436 C 0.11529 0.71731 0.81536 0.0
C437 C 0.10898 0.71876 0.89267 0.0
C438 C 0.11895 0.69603 0.57295 0.0
C439 C 0.14259 0.68677 0.54588 0.0
C440 C 0.11485 0.69953 0.65089 0.0
C441 C 0.13427 0.69383 0.70384 0.0
C442 C 0.15806 0.68491 0.67693 0.0
C443 C 0.16218 0.68143 0.59874 0.0
H444 H 0.30287 0.15349 0.2152 0.0
H445 H 0.30493 0.07324 0.15455 0.0
H446 H 0.30407 0.16503 0.08025 0.0
H447 H 0.30656 0.08462 0.02005 0.0
H448 H 0.28651 0.1104 0.78483 0.0
H449 H 0.2813 0.10211 0.91921 0.0
H450 H 0.33237 0.16491 0.97223 0.0
H451 H 0.33687 0.17413 0.83751 0.0
C452 C 0.3038 0.13833 0.17306 0.0
C453 C 0.3038 0.11244 0.19548 0.0
C454 C 0.30448 0.14493 0.0957 0.0
C455 C 0.30532 0.12577 0.03912 0.0
C456 C 0.30536 0.09989 0.06184 0.0
C457 C 0.30451 0.09333 0.139 0.0
C458 C 0.29653 0.12278 0.82424 0.0
C459 C 0.31256 0.14278 0.79863 0.0
C460 C 0.29365 0.11779 0.90202 0.0
C461 C 0.30673 0.13255 0.95672 0.0
C462 C 0.32192 0.15317 0.93174 0.0
C463 C 0.32472 0.15828 0.85385 0.0
H464 H 0.90633 0.27427 0.38228 0.0
H465 H 0.89131 0.35495 0.41708 0.0
H466 H 0.89524 0.27858 0.24843 0.0
H467 H 0.88003 0.35925 0.2821 0.0
H468 H 0.83788 0.34852 0.04946 0.0
H469 H 0.84713 0.34527 0.18637 0.0
H470 H 0.91373 0.29892 0.13625 0.0
H471 H 0.90404 0.30131 0.00133 0.0
C472 C 0.90099 0.29303 0.36127 0.0
C473 C 0.90003 0.31434 0.41036 0.0
C474 C 0.89451 0.29547 0.28444 0.0
C475 C 0.88691 0.31929 0.2546 0.0
C476 C 0.88558 0.3406 0.30366 0.0
C477 C 0.89211 0.33814 0.38081 0.0
C478 C 0.85435 0.33751 0.06799 0.0
C479 C 0.87027 0.32531 0.0144 0.0
C480 C 0.85979 0.33586 0.14616 0.0
C481 C 0.88113 0.32179 0.17202 0.0
C482 C 0.89698 0.30966 0.11831 0.0
C483 C 0.8916 0.31134 0.04067 0.0
H484 H 0.71537 0.89644 0.29639 0.0
H485 H 0.66824 0.83043 0.34954 0.0
H486 H 0.72129 0.90452 0.43071 0.0
H487 H 0.67323 0.83951 0.48449 0.0
H488 H 0.70361 0.85162 0.72639 0.0
H489 H 0.70206 0.84031 0.59119 0.0
H490 H 0.6963 0.92072 0.53329 0.0
H491 H 0.69833 0.93186 0.66794 0.0
C492 C 0.70625 0.8835 0.33599 0.0
C493 C 0.69093 0.86289 0.31065 0.0
C494 C 0.70949 0.88838 0.41372 0.0
C495 C 0.69742 0.87294 0.46866 0.0
C496 C 0.68291 0.85178 0.44384 0.0
C497 C 0.67979 0.84675 0.36593 0.0
C498 C 0.70193 0.86682 0.68467 0.0
C499 C 0.7011 0.89264 0.70777 0.0
C500 C 0.70103 0.86036 0.60718 0.0
C501 C 0.69913 0.87959 0.55116 0.0
C502 C 0.69833 0.9054 0.57458 0.0
C503 C 0.69941 0.91183 0.65184 0.0
H504 H 0.07617 0.28905 0.05305 0.0
H505 H 0.01648 0.32504 0.18616 0.0
H506 H 0.04619 0.28354 0.94717 0.0
H507 H 0.98642 0.31909 0.08083 0.0
H508 H 0.99474 0.32007 0.7534 0.0
H509 H 0.02462 0.31558 0.85957 0.0
H510 H 0.96375 0.28539 0.00022 0.0
H511 H 0.93389 0.28921 0.89326 0.0
C512 C 0.05663 0.29553 0.06016 0.0
C513 C 0.0489 0.30785 0.12776 0.0
C514 C 0.03945 0.29237 0.99943 0.0
C515 C 0.01399 0.301 0.00552 0.0
C516 C 0.00587 0.31208 0.07456 0.0
C517 C 0.02316 0.31559 0.13481 0.0
C518 C 0.98776 0.31204 0.80644 0.0
C519 C 0.96173 0.30554 0.81518 0.0
C520 C 0.00495 0.30939 0.86727 0.0
C521 C 0.99647 0.30041 0.9385 0.0
C522 C 0.97075 0.29272 0.94628 0.0
C523 C 0.95364 0.29497 0.88498 0.0
H524 H 0.71446 0.93016 0.19618 0.0
H525 H 0.68014 0.98962 0.05835 0.0
H526 H 0.71963 0.96059 0.30106 0.0
H527 H 0.68565 0.02009 0.16279 0.0
H528 H 0.71483 0.07327 0.34961 0.0
H529 H 0.71877 0.04289 0.244 0.0
H530 H 0.68767 0.98291 0.38625 0.0
H531 H 0.68315 0.01329 0.49114 0.0
C532 C 0.7083 0.94975 0.18781 0.0
C533 C 0.69657 0.9573 0.11912 0.0
C534 C 0.71124 0.96718 0.24801 0.0
C535 C 0.70293 0.99271 0.24034 0.0
C536 C 0.69242 1.00061 0.17031 0.0
C537 C 0.68914 0.98308 0.11056 0.0
C538 C 0.70891 0.0536 0.35853 0.0
C539 C 0.69814 0.04589 0.42844 0.0
C540 C 0.71121 0.03619 0.298 0.0
C541 C 0.70333 0.01056 0.30661 0.0
C542 C 0.69403 1.00249 0.37791 0.0
C543 C 0.69136 0.01997 0.438 0.0
H544 H 0.01638 0.68011 0.28153 0.0
H545 H 0.07462 0.71317 0.42704 0.0
H546 H 0.9848 0.68547 0.3828 0.0
H547 H 0.04306 0.71812 0.52888 0.0
H548 H 0.92988 0.7146 0.56412 0.0
H549 H 0.9616 0.71864 0.46254 0.0
H550 H 0.01922 0.68578 0.61007 0.0
H551 H 0.9875 0.68142 0.71138 0.0
C552 C 0.02243 0.68879 0.33477 0.0
C553 C 0.04818 0.69586 0.34646 0.0
C554 C 0.00427 0.69197 0.39271 0.0
C555 C 0.01149 0.70205 0.46399 0.0
C556 C 0.037 0.71004 0.47479 0.0
C557 C 0.05508 0.70721 0.41638 0.0
C558 C 0.94932 0.70846 0.57533 0.0
C559 C 0.95599 0.69735 0.64572 0.0
C560 C 0.96749 0.71074 0.51696 0.0
C561 C 0.99286 0.70238 0.52816 0.0
C562 C 0.99987 0.69255 0.59984 0.0
C563 C 0.98163 0.68993 0.65778 0.0
H564 H 0.28987 0.93082 0.83115 0.0
H565 H 0.32499 0.98919 0.97201 0.0
H566 H 0.2846 0.96197 0.72858 0.0
H567 H 0.3194 0.02034 0.86977 0.0
H568 H 0.32089 0.01536 0.54065 0.0
H569 H 0.31643 0.98443 0.64402 0.0
H570 H 0.28675 0.04401 0.79078 0.0
H571 H 0.29103 0.07495 0.68707 0.0
C572 C 0.29624 0.95029 0.84071 0.0
C573 C 0.30826 0.95732 0.90954 0.0
C574 C 0.29322 0.96815 0.7818 0.0
C575 C 0.30175 0.99356 0.79087 0.0
C576 C 0.31247 1.00095 0.86116 0.0
C577 C 0.31579 0.98302 0.91966 0.0
C578 C 0.31303 0.02182 0.59454 0.0
C579 C 0.30654 0.04773 0.60573 0.0
C580 C 0.31035 0.00404 0.65369 0.0
C581 C 0.30138 0.01181 0.72571 0.0
C582 C 0.29395 0.0375 0.7361 0.0
C583 C 0.2963 0.05522 0.67653 0.0
H584 H 0.14322 0.43924 0.29647 0.0
H585 H 0.06876 0.43476 0.18808 0.0
H586 H 0.14005 0.48573 0.29917 0.0
H587 H 0.0661 0.48162 0.18875 0.0
H588 H 0.09033 0.56635 0.12701 0.0
H589 H 0.08948 0.51938 0.12763 0.0
H590 H 0.11311 0.51948 0.36385 0.0
H591 H 0.11417 0.56632 0.36309 0.0
C592 C 0.126 0.44807 0.274 0.0
C593 C 0.1061 0.43306 0.24284 0.0
C594 C 0.12427 0.47479 0.27533 0.0
C595 C 0.10275 0.48731 0.2447 0.0
C596 C 0.08298 0.47247 0.21245 0.0
C597 C 0.08457 0.44563 0.21186 0.0
C598 C 0.09518 0.5563 0.17914 0.0
C599 C 0.10235 0.57002 0.24497 0.0
C600 C 0.09453 0.52945 0.17963 0.0
C601 C 0.10135 0.51578 0.24567 0.0
C602 C 0.10797 0.52951 0.31192 0.0
C603 C 0.10834 0.55633 0.31169 0.0
H604 H 0.56173 0.14599 0.54494 0.0
H605 H 0.56625 0.06448 0.49957 0.0
H606 H 0.51517 0.14338 0.54396 0.0
H607 H 0.51941 0.06242 0.49464 0.0
H608 H 0.43596 0.08407 0.40138 0.0
H609 H 0.48301 0.08313 0.40741 0.0
H610 H 0.48057 0.12001 0.6279 0.0
H611 H 0.43366 0.12067 0.62237 0.0
C612 C 0.55294 0.12743 0.53554 0.0
C613 C 0.56801 0.10537 0.52327 0.0
C614 C 0.52619 0.12604 0.53446 0.0
C615 C 0.51375 0.10269 0.51959 0.0
C616 C 0.52859 0.08069 0.5059 0.0
C617 C 0.55542 0.08195 0.50835 0.0
C618 C 0.44554 0.09175 0.45132 0.0
C619 C 0.43123 0.10239 0.51148 0.0
C620 C 0.47237 0.0911 0.45492 0.0
C621 C 0.48534 0.10156 0.51802 0.0
C622 C 0.47101 0.11193 0.57848 0.0
C623 C 0.44421 0.11215 0.57554 0.0
H624 H 0.86467 0.56518 0.80563 0.0
H625 H 0.93567 0.57294 0.67988 0.0
H626 H 0.8691 0.51878 0.802 0.0
H627 H 0.93914 0.52622 0.67313 0.0
H628 H 0.91095 0.44222 0.60344 0.0
H629 H 0.91116 0.48922 0.61088 0.0
H630 H 0.90173 0.48492 0.85518 0.0
H631 H 0.90184 0.438 0.8479 0.0
C632 C 0.8814 0.55715 0.77796 0.0
C633 C 0.89994 0.57308 0.74365 0.0
C634 C 0.88379 0.53047 0.77554 0.0
C635 C 0.90449 0.51897 0.73755 0.0
C636 C 0.92292 0.53467 0.70246 0.0
C637 C 0.9208 0.56143 0.70604 0.0
C638 C 0.90918 0.45138 0.6587 0.0
C639 C 0.90642 0.43654 0.7251 0.0
C640 C 0.90943 0.47819 0.66299 0.0
C641 C 0.9064 0.49062 0.73357 0.0
C642 C 0.90399 0.47578 0.80005 0.0
C643 C 0.90423 0.44899 0.79594 0.0
H644 H 0.57026 0.93724 0.06105 0.0
H645 H 0.56544 0.86293 0.95191 0.0
H646 H 0.5234 0.93996 0.06134 0.0
H647 H 0.51894 0.86617 0.95016 0.0
H648 H 0.43805 0.89203 0.88935 0.0
H649 H 0.4849 0.89313 0.88695 0.0
H650 H 0.48591 0.91653 0.12335 0.0
H651 H 0.43895 0.91564 0.12562 0.0
C652 C 0.55931 0.92148 0.03728 0.0
C653 C 0.57179 0.89996 0.00589 0.0
C654 C 0.53247 0.92311 0.03724 0.0
C655 C 0.51753 0.90339 0.00512 0.0
C656 C 0.52995 0.88191 0.97394 0.0
C657 C 0.55668 0.88013 0.97473 0.0
C658 C 0.44825 0.89782 0.94044 0.0
C659 C 0.43482 0.90373 0.0077 0.0
C660 C 0.47507 0.89822 0.93926 0.0
C661 C 0.48906 0.90478 0.00509 0.0
C662 C 0.47564 0.91153 0.07166 0.0
C663 C 0.4488 0.91085 0.07309 0.0
loop_
_geom_bond_atom_site_label_1
_geom_bond_atom_site_label_2
_geom_bond_distance
_geom_bond_site_symmetry_2
_ccdc_geom_bond_type
C0 C1 1.351 1_554 S
C0 N3 1.368 . S
C0 H5 0.931 . S
C1 C0 1.351 1_556 S
C1 N2 1.373 . S
C1 H29 0.930 . S
N2 C1 1.373 . S
N2 C4 1.340 1_556 S
N3 C0 1.368 . S
N3 C4 1.321 . S
N3 Co6 2.135 . S
C4 N2 1.340 1_554 S
C4 N3 1.321 . S
C4 H28 0.930 . S
H5 C0 0.931 . S
Co6 N3 2.135 . S
Co6 N9 2.121 . S
Co6 O14 2.055 . S
Co6 O17 2.039 . S
Co6 N20 2.140 . S
C7 O8 1.227 . S
C7 O17 1.265 . S
O8 C7 1.227 . S
N9 Co6 2.121 . S
N9 C11 1.375 . S
N9 C12 1.313 . S
C10 C11 1.338 . S
C10 N13 1.377 . S
C10 H30 0.930 . S
C11 N9 1.375 . S
C11 C10 1.338 . S
C11 H15 0.931 . S
C12 N9 1.313 . S
C12 N13 1.344 . S
C12 H16 0.930 . S
N13 C10 1.377 . S
N13 C12 1.344 . S
O14 Co6 2.055 . S
O14 C18 1.253 . S
H15 C11 0.931 . S
H16 C12 0.930 . S
O17 Co6 2.039 . S
O17 C7 1.265 . S
C18 O14 1.253 . S
C18 O19 1.227 . S
O19 C18 1.227 . S
N20 Co6 2.140 . S
N20 C23 1.346 . S
N20 C24 1.345 . S
C21 C22 1.387 . S
C21 C25 1.391 . S
C22 C21 1.387 . S
C22 C23 1.369 . S
C22 H31 0.929 . S
C23 N20 1.346 . S
C23 C22 1.369 . S
C23 H26 0.928 . S
C24 N20 1.345 . S
C24 C25 1.371 . S
C24 H27 0.931 . S
C25 C21 1.391 . S
C25 C24 1.371 . S
C25 H32 0.930 . S
H26 C23 0.928 . S
H27 C24 0.931 . S
H28 C4 0.930 . S
H29 C1 0.930 . S
H30 C10 0.930 . S
H31 C22 0.929 . S
H32 C25 0.930 . S
C33 C34 1.351 . S
C33 N36 1.368 . S
C33 H38 0.931 . S
C34 C33 1.351 . S
C34 N35 1.373 . S
C34 H62 0.930 . S
N35 C34 1.373 . S
N35 C37 1.340 . S
N36 C33 1.368 . S
N36 C37 1.321 . S
N36 Co39 2.135 . S
C37 N35 1.340 . S
C37 N36 1.321 . S
C37 H61 0.930 . S
H38 C33 0.931 . S
Co39 N36 2.135 . S
Co39 N42 2.121 . S
Co39 O47 2.055 . S
Co39 O50 2.039 . S
Co39 N53 2.140 . S
C40 O41 1.227 . S
C40 O50 1.265 . S
O41 C40 1.227 . S
N42 Co39 2.121 . S
N42 C44 1.375 . S
N42 C45 1.313 . S
C43 C44 1.338 . S
C43 N46 1.377 . S
C43 H63 0.930 . S
C44 N42 1.375 . S
C44 C43 1.338 . S
C44 H48 0.931 . S
C45 N42 1.313 . S
C45 N46 1.344 . S
C45 H49 0.930 . S
N46 C43 1.377 . S
N46 C45 1.344 . S
O47 Co39 2.055 . S
O47 C51 1.253 . S
H48 C44 0.931 . S
H49 C45 0.930 . S
O50 Co39 2.039 . S
O50 C40 1.265 . S
C51 O47 1.253 . S
C51 O52 1.227 . S
O52 C51 1.227 . S
N53 Co39 2.140 . S
N53 C56 1.346 . S
N53 C57 1.345 . S
C54 C55 1.387 . S
C54 C58 1.391 . S
C55 C54 1.387 . S
C55 C56 1.369 . S
C55 H64 0.929 . S
C56 N53 1.346 . S
C56 C55 1.369 . S
C56 H59 0.928 . S
C57 N53 1.345 . S
C57 C58 1.371 . S
C57 H60 0.931 . S
C58 C54 1.391 . S
C58 C57 1.371 . S
C58 H65 0.930 . S
H59 C56 0.928 . S
H60 C57 0.931 . S
H61 C37 0.930 . S
H62 C34 0.930 . S
H63 C43 0.930 . S
H64 C55 0.929 . S
H65 C58 0.930 . S
C66 C67 1.351 . S
C66 N69 1.368 . S
C66 H71 0.931 . S
C67 C66 1.351 . S
C67 N68 1.373 . S
C67 H95 0.930 . S
N68 C67 1.373 . S
N68 C70 1.340 . S
N69 C66 1.368 . S
N69 C70 1.321 . S
N69 Co72 2.135 . S
C70 N68 1.340 . S
C70 N69 1.321 . S
C70 H94 0.930 . S
H71 C66 0.931 . S
Co72 N69 2.135 . S
Co72 N75 2.121 . S
Co72 O80 2.055 . S
Co72 O83 2.039 . S
Co72 N86 2.140 . S
C73 O74 1.227 . S
C73 O83 1.265 . S
O74 C73 1.227 . S
N75 Co72 2.121 . S
N75 C77 1.375 . S
N75 C78 1.313 . S
C76 C77 1.338 . S
C76 N79 1.377 . S
C76 H96 0.930 . S
C77 N75 1.375 . S
C77 C76 1.338 . S
C77 H81 0.931 . S
C78 N75 1.313 . S
C78 N79 1.344 . S
C78 H82 0.930 . S
N79 C76 1.377 . S
N79 C78 1.344 . S
O80 Co72 2.055 . S
O80 C84 1.253 . S
H81 C77 0.931 . S
H82 C78 0.930 . S
O83 Co72 2.039 . S
O83 C73 1.265 . S
C84 O80 1.253 . S
C84 O85 1.227 . S
O85 C84 1.227 . S
N86 Co72 2.140 . S
N86 C89 1.346 . S
N86 C90 1.345 . S
C87 C88 1.387 . S
C87 C91 1.391 . S
C88 C87 1.387 . S
C88 C89 1.369 . S
C88 H97 0.929 . S
C89 N86 1.346 . S
C89 C88 1.369 . S
C89 H92 0.928 . S
C90 N86 1.345 . S
C90 C91 1.371 . S
C90 H93 0.931 . S
C91 C87 1.391 . S
C91 C90 1.371 . S
C91 H98 0.930 . S
H92 C89 0.928 . S
H93 C90 0.931 . S
H94 C70 0.930 . S
H95 C67 0.930 . S
H96 C76 0.930 . S
H97 C88 0.929 . S
H98 C91 0.930 . S
C99 C100 1.351 . S
C99 N102 1.368 . S
C99 H104 0.931 . S
C100 C99 1.351 . S
C100 N101 1.373 . S
C100 H128 0.930 . S
N101 C100 1.373 . S
N101 C103 1.340 . S
N102 C99 1.368 . S
N102 C103 1.321 . S
N102 Co105 2.135 . S
C103 N101 1.340 . S
C103 N102 1.321 . S
C103 H127 0.930 . S
H104 C99 0.931 . S
Co105 N102 2.135 . S
Co105 N108 2.121 1_556 S
Co105 O113 2.055 . S
Co105 O116 2.039 . S
Co105 N119 2.140 . S
C106 O107 1.227 . S
C106 O116 1.265 . S
O107 C106 1.227 . S
N108 Co105 2.121 1_554 S
N108 C110 1.375 . S
N108 C111 1.313 . S
C109 C110 1.338 . S
C109 N112 1.377 . S
C109 H129 0.930 . S
C110 N108 1.375 . S
C110 C109 1.338 . S
C110 H114 0.931 . S
C111 N108 1.313 . S
C111 N112 1.344 . S
C111 H115 0.930 . S
N112 C109 1.377 . S
N112 C111 1.344 . S
O113 Co105 2.055 . S
O113 C117 1.253 . S
H114 C110 0.931 . S
H115 C111 0.930 . S
O116 Co105 2.039 . S
O116 C106 1.265 . S
C117 O113 1.253 . S
C117 O118 1.227 1_556 S
O118 C117 1.227 1_554 S
N119 Co105 2.140 . S
N119 C122 1.346 . S
N119 C123 1.345 1_556 S
C120 C121 1.387 . S
C120 C124 1.391 1_556 S
C121 C120 1.387 . S
C121 C122 1.369 . S
C121 H130 0.929 . S
C122 N119 1.346 . S
C122 C121 1.369 . S
C122 H125 0.928 . S
C123 N119 1.345 1_554 S
C123 C124 1.371 . S
C123 H126 0.931 . S
C124 C120 1.391 1_554 S
C124 C123 1.371 . S
C124 H131 0.930 . S
H125 C122 0.928 . S
H126 C123 0.931 . S
H127 C103 0.930 . S
H128 C100 0.930 . S
H129 C109 0.930 . S
H130 C121 0.929 . S
H131 C124 0.930 . S
C132 C133 1.351 . S
C132 N135 1.368 . S
C132 H137 0.931 . S
C133 C132 1.351 . S
C133 N134 1.373 . S
C133 H161 0.930 . S
N134 C133 1.373 . S
N134 C136 1.340 . S
N135 C132 1.368 . S
N135 C136 1.321 . S
N135 Co138 2.135 . S
C136 N134 1.340 . S
C136 N135 1.321 . S
C136 H160 0.930 . S
H137 C132 0.931 . S
Co138 N135 2.135 . S
Co138 N141 2.121 . S
Co138 O146 2.055 . S
Co138 O149 2.039 . S
Co138 N152 2.140 . S
C139 O140 1.227 . S
C139 O149 1.265 . S
O140 C139 1.227 . S
N141 Co138 2.121 . S
N141 C143 1.375 . S
N141 C144 1.313 . S
C142 C143 1.338 . S
C142 N145 1.377 . S
C142 H162 0.930 . S
C143 N141 1.375 . S
C143 C142 1.338 . S
C143 H147 0.931 . S
C144 N141 1.313 . S
C144 N145 1.344 . S
C144 H148 0.930 . S
N145 C142 1.377 . S
N145 C144 1.344 . S
O146 Co138 2.055 . S
O146 C150 1.253 . S
H147 C143 0.931 . S
H148 C144 0.930 . S
O149 Co138 2.039 . S
O149 C139 1.265 . S
C150 O146 1.253 . S
C150 O151 1.227 . S
O151 C150 1.227 . S
N152 Co138 2.140 . S
N152 C155 1.346 . S
N152 C156 1.345 . S
C153 C154 1.387 . S
C153 C157 1.391 . S
C154 C153 1.387 . S
C154 C155 1.369 . S
C154 H163 0.929 . S
C155 N152 1.346 . S
C155 C154 1.369 . S
C155 H158 0.928 . S
C156 N152 1.345 . S
C156 C157 1.371 . S
C156 H159 0.931 . S
C157 C153 1.391 . S
C157 C156 1.371 . S
C157 H164 0.930 . S
H158 C155 0.928 . S
H159 C156 0.931 . S
H160 C136 0.930 . S
H161 C133 0.930 . S
H162 C142 0.930 . S
H163 C154 0.929 . S
H164 C157 0.930 . S
C165 C166 1.351 . S
C165 N168 1.368 . S
C165 H170 0.931 . S
C166 C165 1.351 . S
C166 N167 1.373 . S
C166 H194 0.930 . S
N167 C166 1.373 . S
N167 C169 1.340 . S
N168 C165 1.368 . S
N168 C169 1.321 . S
N168 Co171 2.135 . S
C169 N167 1.340 . S
C169 N168 1.321 . S
C169 H193 0.930 . S
H170 C165 0.931 . S
Co171 N168 2.135 . S
Co171 N174 2.121 . S
Co171 O179 2.055 . S
Co171 O182 2.039 . S
Co171 N185 2.140 . S
C172 O173 1.227 . S
C172 O182 1.265 . S
O173 C172 1.227 . S
N174 Co171 2.121 . S
N174 C176 1.375 . S
N174 C177 1.313 . S
C175 C176 1.338 . S
C175 N178 1.377 . S
C175 H195 0.930 . S
C176 N174 1.375 . S
C176 C175 1.338 . S
C176 H180 0.931 . S
C177 N174 1.313 . S
C177 N178 1.344 . S
C177 H181 0.930 . S
N178 C175 1.377 . S
N178 C177 1.344 . S
O179 Co171 2.055 . S
O179 C183 1.253 . S
H180 C176 0.931 . S
H181 C177 0.930 . S
O182 Co171 2.039 . S
O182 C172 1.265 . S
C183 O179 1.253 . S
C183 O184 1.227 . S
O184 C183 1.227 . S
N185 Co171 2.140 . S
N185 C188 1.346 . S
N185 C189 1.345 . S
C186 C187 1.387 . S
C186 C190 1.391 . S
C187 C186 1.387 . S
C187 C188 1.369 . S
C187 H196 0.929 . S
C188 N185 1.346 . S
C188 C187 1.369 . S
C188 H191 0.928 . S
C189 N185 1.345 . S
C189 C190 1.371 . S
C189 H192 0.931 . S
C190 C186 1.391 . S
C190 C189 1.371 . S
C190 H197 0.930 . S
H191 C188 0.928 . S
H192 C189 0.931 . S
H193 C169 0.930 . S
H194 C166 0.930 . S
H195 C175 0.930 . S
H196 C187 0.929 . S
H197 C190 0.930 . S
C198 C199 1.351 1_556 S
C198 N201 1.368 . S
C198 H203 0.931 . S
C199 C198 1.351 1_554 S
C199 N200 1.373 . S
C199 H227 0.930 . S
N200 C199 1.373 . S
N200 C202 1.340 1_554 S
N201 C198 1.368 . S
N201 C202 1.321 . S
N201 Co204 2.135 . S
C202 N200 1.340 1_556 S
C202 N201 1.321 . S
C202 H226 0.930 . S
H203 C198 0.931 . S
Co204 N201 2.135 . S
Co204 N207 2.121 . S
Co204 O212 2.055 . S
Co204 O215 2.039 . S
Co204 N218 2.140 . S
C205 O206 1.227 . S
C205 O215 1.265 . S
O206 C205 1.227 . S
N207 Co204 2.121 . S
N207 C209 1.375 . S
N207 C210 1.313 . S
C208 C209 1.338 . S
C208 N211 1.377 . S
C208 H228 0.930 . S
C209 N207 1.375 . S
C209 C208 1.338 . S
C209 H213 0.931 . S
C210 N207 1.313 . S
C210 N211 1.344 . S
C210 H214 0.930 . S
N211 C208 1.377 . S
N211 C210 1.344 . S
O212 Co204 2.055 . S
O212 C216 1.253 . S
H213 C209 0.931 . S
H214 C210 0.930 . S
O215 Co204 2.039 . S
O215 C205 1.265 . S
C216 O212 1.253 . S
C216 O217 1.227 . S
O217 C216 1.227 . S
N218 Co204 2.140 . S
N218 C221 1.346 . S
N218 C222 1.345 . S
C219 C220 1.387 . S
C219 C223 1.391 . S
C220 C219 1.387 . S
C220 C221 1.369 . S
C220 H229 0.929 . S
C221 N218 1.346 . S
C221 C220 1.369 . S
C221 H224 0.928 . S
C222 N218 1.345 . S
C222 C223 1.371 . S
C222 H225 0.931 . S
C223 C219 1.391 . S
C223 C222 1.371 . S
C223 H230 0.930 . S
H224 C221 0.928 . S
H225 C222 0.931 . S
H226 C202 0.930 . S
H227 C199 0.930 . S
H228 C208 0.930 . S
H229 C220 0.929 . S
H230 C223 0.930 . S
C231 C232 1.351 . S
C231 N234 1.368 . S
C231 H236 0.931 . S
C232 C231 1.351 . S
C232 N233 1.373 . S
C232 H260 0.930 . S
N233 C232 1.373 . S
N233 C235 1.340 . S
N234 C231 1.368 . S
N234 C235 1.321 . S
N234 Co237 2.135 . S
C235 N233 1.340 . S
C235 N234 1.321 . S
C235 H259 0.930 . S
H236 C231 0.931 . S
Co237 N234 2.135 . S
Co237 N240 2.121 1_554 S
Co237 O245 2.055 . S
Co237 O248 2.039 . S
Co237 N251 2.140 . S
C238 O239 1.227 . S
C238 O248 1.265 . S
O239 C238 1.227 . S
N240 Co237 2.121 1_556 S
N240 C242 1.375 . S
N240 C243 1.313 . S
C241 C242 1.338 . S
C241 N244 1.377 . S
C241 H261 0.930 . S
C242 N240 1.375 . S
C242 C241 1.338 . S
C242 H246 0.931 . S
C243 N240 1.313 . S
C243 N244 1.344 . S
C243 H247 0.930 . S
N244 C241 1.377 . S
N244 C243 1.344 . S
O245 Co237 2.055 . S
O245 C249 1.253 . S
H246 C242 0.931 . S
H247 C243 0.930 . S
O248 Co237 2.039 . S
O248 C238 1.265 . S
C249 O245 1.253 . S
C249 O250 1.227 1_554 S
O250 C249 1.227 1_556 S
N251 Co237 2.140 . S
N251 C254 1.346 . S
N251 C255 1.345 1_554 S
C252 C253 1.387 . S
C252 C256 1.391 1_554 S
C253 C252 1.387 . S
C253 C254 1.369 . S
C253 H262 0.929 . S
C254 N251 1.346 . S
C254 C253 1.369 . S
C254 H257 0.928 . S
C255 N251 1.345 1_556 S
C255 C256 1.371 . S
C255 H258 0.931 . S
C256 C252 1.391 1_556 S
C256 C255 1.371 . S
C256 H263 0.930 . S
H257 C254 0.928 . S
H258 C255 0.931 . S
H259 C235 0.930 . S
H260 C232 0.930 . S
H261 C241 0.930 . S
H262 C253 0.929 . S
H263 C256 0.930 . S
H264 C272 0.950 . S
H265 C277 0.950 . S
H266 C274 0.950 . S
H267 C276 0.950 . S
H268 C278 0.950 . S
H269 C280 0.950 . S
H270 C282 0.950 . S
H271 C283 0.950 . S
C272 H264 0.950 . S
C272 C273 1.386 . S
C272 C274 1.391 . S
C273 C272 1.386 . S
C273 C277 1.393 . S
C274 H266 0.950 . S
C274 C272 1.391 . S
C274 C275 1.400 . S
C275 C274 1.400 . S
C275 C276 1.398 . S
C275 C281 1.491 . S
C276 H267 0.950 . S
C276 C275 1.398 . S
C276 C277 1.391 . S
C277 H265 0.950 . S
C277 C273 1.393 . S
C277 C276 1.391 . S
C278 H268 0.950 . S
C278 C279 1.386 . S
C278 C280 1.391 . S
C279 C278 1.386 . S
C279 C283 1.393 . S
C280 H269 0.950 . S
C280 C278 1.391 . S
C280 C281 1.400 . S
C281 C275 1.491 . S
C281 C280 1.400 . S
C281 C282 1.398 . S
C282 H270 0.950 . S
C282 C281 1.398 . S
C282 C283 1.391 . S
C283 H271 0.950 . S
C283 C279 1.393 . S
C283 C282 1.391 . S
H284 C292 0.950 . S
H285 C297 0.950 . S
H286 C294 0.950 . S
H287 C296 0.950 . S
H288 C298 0.950 . S
H289 C300 0.950 . S
H290 C302 0.950 . S
H291 C303 0.950 . S
C292 H284 0.950 . S
C292 C293 1.386 . S
C292 C294 1.391 . S
C293 C292 1.386 . S
C293 C297 1.393 . S
C294 H286 0.950 . S
C294 C292 1.391 . S
C294 C295 1.400 . S
C295 C294 1.400 . S
C295 C296 1.398 . S
C295 C301 1.491 . S
C296 H287 0.950 . S
C296 C295 1.398 . S
C296 C297 1.391 . S
C297 H285 0.950 . S
C297 C293 1.393 . S
C297 C296 1.391 . S
C298 H288 0.950 . S
C298 C299 1.386 . S
C298 C300 1.391 . S
C299 C298 1.386 . S
C299 C303 1.393 . S
C300 H289 0.950 . S
C300 C298 1.391 . S
C300 C301 1.400 . S
C301 C295 1.491 . S
C301 C300 1.400 . S
C301 C302 1.398 . S
C302 H290 0.950 . S
C302 C301 1.398 . S
C302 C303 1.391 . S
C303 H291 0.950 . S
C303 C299 1.393 . S
C303 C302 1.391 . S
H304 C312 0.950 . S
H305 C317 0.950 . S
H306 C314 0.950 . S
H307 C316 0.950 . S
H308 C318 0.950 . S
H309 C320 0.950 . S
H310 C322 0.950 . S
H311 C323 0.950 1_554 S
C312 H304 0.950 . S
C312 C313 1.386 . S
C312 C314 1.391 . S
C313 C312 1.386 . S
C313 C317 1.393 . S
C314 H306 0.950 . S
C314 C312 1.391 . S
C314 C315 1.400 . S
C315 C314 1.400 . S
C315 C316 1.398 . S
C315 C321 1.491 . S
C316 H307 0.950 . S
C316 C315 1.398 . S
C316 C317 1.391 . S
C317 H305 0.950 . S
C317 C313 1.393 . S
C317 C316 1.391 . S
C318 H308 0.950 . S
C318 C319 1.386 . S
C318 C320 1.391 . S
C319 C318 1.386 . S
C319 C323 1.393 . S
C320 H309 0.950 . S
C320 C318 1.391 . S
C320 C321 1.400 . S
C321 C315 1.491 . S
C321 C320 1.400 . S
C321 C322 1.398 . S
C322 H310 0.950 . S
C322 C321 1.398 . S
C322 C323 1.391 . S
C323 H311 0.950 1_556 S
C323 C319 1.393 . S
C323 C322 1.391 . S
H324 C332 0.950 . S
H325 C337 0.950 . S
H326 C334 0.950 . S
H327 C336 0.950 . S
H328 C338 0.950 . S
H329 C340 0.950 . S
H330 C342 0.950 . S
H331 C343 0.950 1_556 S
C332 H324 0.950 . S
C332 C333 1.386 . S
C332 C334 1.391 . S
C333 C332 1.386 . S
C333 C337 1.393 . S
C334 H326 0.950 . S
C334 C332 1.391 . S
C334 C335 1.400 . S
C335 C334 1.400 . S
C335 C336 1.398 . S
C335 C341 1.491 . S
C336 H327 0.950 . S
C336 C335 1.398 . S
C336 C337 1.391 . S
C337 H325 0.950 . S
C337 C333 1.393 . S
C337 C336 1.391 . S
C338 H328 0.950 . S
C338 C339 1.386 . S
C338 C340 1.391 . S
C339 C338 1.386 . S
C339 C343 1.393 . S
C340 H329 0.950 . S
C340 C338 1.391 . S
C340 C341 1.400 . S
C341 C335 1.491 . S
C341 C340 1.400 . S
C341 C342 1.398 . S
C342 H330 0.950 . S
C342 C341 1.398 . S
C342 C343 1.391 . S
C343 H331 0.950 1_554 S
C343 C339 1.393 . S
C343 C342 1.391 . S
H344 C352 0.950 . S
H345 C357 0.950 . S
H346 C354 0.950 . S
H347 C356 0.950 . S
H348 C358 0.950 . S
H349 C360 0.950 . S
H350 C362 0.950 . S
H351 C363 0.950 . S
C352 H344 0.950 . S
C352 C353 1.386 . S
C352 C354 1.391 . S
C353 C352 1.386 . S
C353 C357 1.393 . S
C354 H346 0.950 . S
C354 C352 1.391 . S
C354 C355 1.400 . S
C355 C354 1.400 . S
C355 C356 1.398 . S
C355 C361 1.491 . S
C356 H347 0.950 . S
C356 C355 1.398 . S
C356 C357 1.391 . S
C357 H345 0.950 . S
C357 C353 1.393 . S
C357 C356 1.391 . S
C358 H348 0.950 . S
C358 C359 1.386 . S
C358 C360 1.391 . S
C359 C358 1.386 . S
C359 C363 1.393 . S
C360 H349 0.950 . S
C360 C358 1.391 . S
C360 C361 1.400 . S
C361 C355 1.491 . S
C361 C360 1.400 . S
C361 C362 1.398 . S
C362 H350 0.950 . S
C362 C361 1.398 . S
C362 C363 1.391 . S
C363 H351 0.950 . S
C363 C359 1.393 . S
C363 C362 1.391 . S
H364 C372 0.950 . S
H365 C377 0.950 . S
H366 C374 0.950 . S
H367 C376 0.950 1_556 S
H368 C378 0.950 . S
H369 C380 0.950 . S
H370 C382 0.950 . S
H371 C383 0.950 . S
C372 H364 0.950 . S
C372 C373 1.386 . S
C372 C374 1.391 . S
C373 C372 1.386 . S
C373 C377 1.393 . S
C374 H366 0.950 . S
C374 C372 1.391 . S
C374 C375 1.400 1_554 S
C375 C374 1.400 1_556 S
C375 C376 1.398 1_556 S
C375 C381 1.491 . S
C376 H367 0.950 1_554 S
C376 C375 1.398 1_554 S
C376 C377 1.391 . S
C377 H365 0.950 . S
C377 C373 1.393 . S
C377 C376 1.391 . S
C378 H368 0.950 . S
C378 C379 1.386 . S
C378 C380 1.391 . S
C379 C378 1.386 . S
C379 C383 1.393 . S
C380 H369 0.950 . S
C380 C378 1.391 . S
C380 C381 1.400 . S
C381 C375 1.491 . S
C381 C380 1.400 . S
C381 C382 1.398 . S
C382 H370 0.950 . S
C382 C381 1.398 . S
C382 C383 1.391 . S
C383 H371 0.950 . S
C383 C379 1.393 . S
C383 C382 1.391 . S
H384 C392 0.950 1_556 S
H385 C397 0.950 . S
H386 C394 0.950 . S
H387 C396 0.950 . S
H388 C398 0.950 . S
H389 C400 0.950 . S
H390 C402 0.950 . S
H391 C403 0.950 . S
C392 H384 0.950 1_554 S
C392 C393 1.386 1_554 S
C392 C394 1.391 . S
C393 C392 1.386 1_556 S
C393 C397 1.393 1_556 S
C394 H386 0.950 . S
C394 C392 1.391 . S
C394 C395 1.400 . S
C395 C394 1.400 . S
C395 C396 1.398 . S
C395 C401 1.491 . S
C396 H387 0.950 . S
C396 C395 1.398 . S
C396 C397 1.391 . S
C397 H385 0.950 . S
C397 C393 1.393 1_554 S
C397 C396 1.391 . S
C398 H388 0.950 . S
C398 C399 1.386 . S
C398 C400 1.391 . S
C399 C398 1.386 . S
C399 C403 1.393 . S
C400 H389 0.950 . S
C400 C398 1.391 . S
C400 C401 1.400 . S
C401 C395 1.491 . S
C401 C400 1.400 . S
C401 C402 1.398 . S
C402 H390 0.950 . S
C402 C401 1.398 . S
C402 C403 1.391 . S
C403 H391 0.950 . S
C403 C399 1.393 . S
C403 C402 1.391 . S
H404 C412 0.950 . S
H405 C417 0.950 . S
H406 C414 0.950 . S
H407 C416 0.950 . S
H408 C418 0.950 . S
H409 C420 0.950 . S
H410 C422 0.950 . S
H411 C423 0.950 . S
C412 H404 0.950 . S
C412 C413 1.386 . S
C412 C414 1.391 . S
C413 C412 1.386 . S
C413 C417 1.393 . S
C414 H406 0.950 . S
C414 C412 1.391 . S
C414 C415 1.400 . S
C415 C414 1.400 . S
C415 C416 1.398 . S
C415 C421 1.491 . S
C416 H407 0.950 . S
C416 C415 1.398 . S
C416 C417 1.391 . S
C417 H405 0.950 . S
C417 C413 1.393 . S
C417 C416 1.391 . S
C418 H408 0.950 . S
C418 C419 1.386 . S
C418 C420 1.391 . S
C419 C418 1.386 . S
C419 C423 1.393 . S
C420 H409 0.950 . S
C420 C418 1.391 . S
C420 C421 1.400 . S
C421 C415 1.491 . S
C421 C420 1.400 . S
C421 C422 1.398 . S
C422 H410 0.950 . S
C422 C421 1.398 . S
C422 C423 1.391 . S
C423 H411 0.950 . S
C423 C419 1.393 . S
C423 C422 1.391 . S
H424 C432 0.950 1_554 S
H425 C437 0.950 . S
H426 C434 0.950 . S
H427 C436 0.950 . S
H428 C438 0.950 . S
H429 C440 0.950 . S
H430 C442 0.950 . S
H431 C443 0.950 . S
C432 H424 0.950 1_556 S
C432 C433 1.386 1_556 S
C432 C434 1.391 . S
C433 C432 1.386 1_554 S
C433 C437 1.393 1_554 S
C434 H426 0.950 . S
C434 C432 1.391 . S
C434 C435 1.400 . S
C435 C434 1.400 . S
C435 C436 1.398 . S
C435 C441 1.491 . S
C436 H427 0.950 . S
C436 C435 1.398 . S
C436 C437 1.391 . S
C437 H425 0.950 . S
C437 C433 1.393 1_556 S
C437 C436 1.391 . S
C438 H428 0.950 . S
C438 C439 1.386 . S
C438 C440 1.391 . S
C439 C438 1.386 . S
C439 C443 1.393 . S
C440 H429 0.950 . S
C440 C438 1.391 . S
C440 C441 1.400 . S
C441 C435 1.491 . S
C441 C440 1.400 . S
C441 C442 1.398 . S
C442 H430 0.950 . S
C442 C441 1.398 . S
C442 C443 1.391 . S
C443 H431 0.950 . S
C443 C439 1.393 . S
C443 C442 1.391 . S
H444 C452 0.950 . S
H445 C457 0.950 . S
H446 C454 0.950 . S
H447 C456 0.950 . S
H448 C458 0.950 . S
H449 C460 0.950 . S
H450 C462 0.950 1_554 S
H451 C463 0.950 . S
C452 H444 0.950 . S
C452 C453 1.386 . S
C452 C454 1.391 . S
C453 C452 1.386 . S
C453 C457 1.393 . S
C454 H446 0.950 . S
C454 C452 1.391 . S
C454 C455 1.400 . S
C455 C454 1.400 . S
C455 C456 1.398 . S
C455 C461 1.491 . S
C456 H447 0.950 . S
C456 C455 1.398 . S
C456 C457 1.391 . S
C457 H445 0.950 . S
C457 C453 1.393 . S
C457 C456 1.391 . S
C458 H448 0.950 . S
C458 C459 1.386 . S
C458 C460 1.391 . S
C459 C458 1.386 . S
C459 C463 1.393 . S
C460 H449 0.950 . S
C460 C458 1.391 . S
C460 C461 1.400 1_556 S
C461 C455 1.491 . S
C461 C460 1.400 1_554 S
C461 C462 1.398 1_554 S
C462 H450 0.950 1_556 S
C462 C461 1.398 1_556 S
C462 C463 1.391 . S
C463 H451 0.950 . S
C463 C459 1.393 . S
C463 C462 1.391 . S
H464 C472 0.950 . S
H465 C477 0.950 . S
H466 C474 0.950 . S
H467 C476 0.950 . S
H468 C478 0.950 . S
H469 C480 0.950 . S
H470 C482 0.950 . S
H471 C483 0.950 . S
C472 H464 0.950 . S
C472 C473 1.386 . S
C472 C474 1.391 . S
C473 C472 1.386 . S
C473 C477 1.393 . S
C474 H466 0.950 . S
C474 C472 1.391 . S
C474 C475 1.400 . S
C475 C474 1.400 . S
C475 C476 1.398 . S
C475 C481 1.491 . S
C476 H467 0.950 . S
C476 C475 1.398 . S
C476 C477 1.391 . S
C477 H465 0.950 . S
C477 C473 1.393 . S
C477 C476 1.391 . S
C478 H468 0.950 . S
C478 C479 1.386 . S
C478 C480 1.391 . S
C479 C478 1.386 . S
C479 C483 1.393 . S
C480 H469 0.950 . S
C480 C478 1.391 . S
C480 C481 1.400 . S
C481 C475 1.491 . S
C481 C480 1.400 . S
C481 C482 1.398 . S
C482 H470 0.950 . S
C482 C481 1.398 . S
C482 C483 1.391 . S
C483 H471 0.950 . S
C483 C479 1.393 . S
C483 C482 1.391 . S
H484 C492 0.950 . S
H485 C497 0.950 . S
H486 C494 0.950 . S
H487 C496 0.950 . S
H488 C498 0.950 . S
H489 C500 0.950 . S
H490 C502 0.950 . S
H491 C503 0.950 . S
C492 H484 0.950 . S
C492 C493 1.386 . S
C492 C494 1.391 . S
C493 C492 1.386 . S
C493 C497 1.393 . S
C494 H486 0.950 . S
C494 C492 1.391 . S
C494 C495 1.400 . S
C495 C494 1.400 . S
C495 C496 1.398 . S
C495 C501 1.491 . S
C496 H487 0.950 . S
C496 C495 1.398 . S
C496 C497 1.391 . S
C497 H485 0.950 . S
C497 C493 1.393 . S
C497 C496 1.391 . S
C498 H488 0.950 . S
C498 C499 1.386 . S
C498 C500 1.391 . S
C499 C498 1.386 . S
C499 C503 1.393 . S
C500 H489 0.950 . S
C500 C498 1.391 . S
C500 C501 1.400 . S
C501 C495 1.491 . S
C501 C500 1.400 . S
C501 C502 1.398 . S
C502 H490 0.950 . S
C502 C501 1.398 . S
C502 C503 1.391 . S
C503 H491 0.950 . S
C503 C499 1.393 . S
C503 C502 1.391 . S
H504 C512 0.950 . S
H505 C517 0.950 . S
H506 C514 0.950 . S
H507 C516 0.950 1_556 S
H508 C518 0.950 . S
H509 C520 0.950 . S
H510 C522 0.950 1_554 S
H511 C523 0.950 . S
C512 H504 0.950 . S
C512 C513 1.386 . S
C512 C514 1.391 . S
C513 C512 1.386 . S
C513 C517 1.393 . S
C514 H506 0.950 . S
C514 C512 1.391 . S
C514 C515 1.400 . S
C515 C514 1.400 . S
C515 C516 1.398 . S
C515 C521 1.491 1_454 S
C516 H507 0.950 1_554 S
C516 C515 1.398 . S
C516 C517 1.391 . S
C517 H505 0.950 . S
C517 C513 1.393 . S
C517 C516 1.391 . S
C518 H508 0.950 . S
C518 C519 1.386 . S
C518 C520 1.391 . S
C519 C518 1.386 . S
C519 C523 1.393 . S
C520 H509 0.950 . S
C520 C518 1.391 . S
C520 C521 1.400 . S
C521 C515 1.491 1_656 S
C521 C520 1.400 . S
C521 C522 1.398 . S
C522 H510 0.950 1_556 S
C522 C521 1.398 . S
C522 C523 1.391 . S
C523 H511 0.950 . S
C523 C519 1.393 . S
C523 C522 1.391 . S
H524 C532 0.950 . S
H525 C537 0.950 . S
H526 C534 0.950 . S
H527 C536 0.975 . S
H528 C538 0.950 . S
H529 C540 0.950 . S
H530 C542 0.975 . S
H531 C543 0.950 . S
C532 H524 0.950 . S
C532 C533 1.386 . S
C532 C534 1.391 . S
C533 C532 1.386 . S
C533 C537 1.393 . S
C534 H526 0.950 . S
C534 C532 1.391 . S
C534 C535 1.400 . S
C535 C534 1.400 . S
C535 C536 1.398 . S
C535 C541 1.491 1_565 S
C536 H527 0.975 . S
C536 C535 1.398 . S
C536 C537 1.391 . S
C537 H525 0.950 . S
C537 C533 1.393 . S
C537 C536 1.391 . S
C538 H528 0.950 . S
C538 C539 1.386 . S
C538 C540 1.391 . S
C539 C538 1.386 . S
C539 C543 1.393 . S
C540 H529 0.950 . S
C540 C538 1.391 . S
C540 C541 1.400 . S
C541 C535 1.491 1_545 S
C541 C540 1.400 . S
C541 C542 1.398 . S
C542 H530 0.975 . S
C542 C541 1.398 . S
C542 C543 1.391 . S
C543 H531 0.950 . S
C543 C539 1.393 . S
C543 C542 1.391 . S
H544 C552 0.950 . S
H545 C557 0.950 . S
H546 C554 0.950 . S
H547 C556 0.950 . S
H548 C558 0.950 . S
H549 C560 0.950 . S
H550 C562 0.950 . S
H551 C563 0.950 . S
C552 H544 0.950 . S
C552 C553 1.386 . S
C552 C554 1.391 . S
C553 C552 1.386 . S
C553 C557 1.393 . S
C554 H546 0.950 . S
C554 C552 1.391 . S
C554 C555 1.400 . S
C555 C554 1.400 . S
C555 C556 1.398 . S
C555 C561 1.491 1_455 S
C556 H547 0.950 . S
C556 C555 1.398 . S
C556 C557 1.391 . S
C557 H545 0.950 . S
C557 C553 1.393 . S
C557 C556 1.391 . S
C558 H548 0.950 . S
C558 C559 1.386 . S
C558 C560 1.391 . S
C559 C558 1.386 . S
C559 C563 1.393 . S
C560 H549 0.950 . S
C560 C558 1.391 . S
C560 C561 1.400 . S
C561 C555 1.491 1_655 S
C561 C560 1.400 . S
C561 C562 1.398 . S
C562 H550 0.950 . S
C562 C561 1.398 . S
C562 C563 1.391 . S
C563 H551 0.950 . S
C563 C559 1.393 . S
C563 C562 1.391 . S
H564 C572 0.950 . S
H565 C577 0.950 . S
H566 C574 0.950 . S
H567 C576 0.950 1_545 S
H568 C578 0.950 . S
H569 C580 0.950 . S
H570 C582 0.950 1_565 S
H571 C583 0.950 . S
C572 H564 0.950 . S
C572 C573 1.386 . S
C572 C574 1.391 . S
C573 C572 1.386 . S
C573 C577 1.393 . S
C574 H566 0.950 . S
C574 C572 1.391 . S
C574 C575 1.400 . S
C575 C574 1.400 . S
C575 C576 1.398 . S
C575 C581 1.491 1_565 S
C576 H567 0.950 1_565 S
C576 C575 1.398 . S
C576 C577 1.391 . S
C577 H565 0.950 . S
C577 C573 1.393 . S
C577 C576 1.391 . S
C578 H568 0.950 . S
C578 C579 1.386 . S
C578 C580 1.391 . S
C579 C578 1.386 . S
C579 C583 1.393 . S
C580 H569 0.950 . S
C580 C578 1.391 . S
C580 C581 1.400 . S
C581 C575 1.491 1_545 S
C581 C580 1.400 . S
C581 C582 1.398 . S
C582 H570 0.950 1_545 S
C582 C581 1.398 . S
C582 C583 1.391 . S
C583 H571 0.950 . S
C583 C579 1.393 . S
C583 C582 1.391 . S
H584 C592 0.950 . S
H585 C597 0.950 . S
H586 C594 0.950 . S
H587 C596 0.950 . S
H588 C598 0.950 . S
H589 C600 0.950 . S
H590 C602 0.950 . S
H591 C603 0.950 . S
C592 H584 0.950 . S
C592 C593 1.386 . S
C592 C594 1.391 . S
C593 C592 1.386 . S
C593 C597 1.393 . S
C594 H586 0.950 . S
C594 C592 1.391 . S
C594 C595 1.400 . S
C595 C594 1.400 . S
C595 C596 1.398 . S
C595 C601 1.491 . S
C596 H587 0.950 . S
C596 C595 1.398 . S
C596 C597 1.391 . S
C597 H585 0.950 . S
C597 C593 1.393 . S
C597 C596 1.391 . S
C598 H588 0.950 . S
C598 C599 1.386 . S
C598 C600 1.391 . S
C599 C598 1.386 . S
C599 C603 1.393 . S
C600 H589 0.950 . S
C600 C598 1.391 . S
C600 C601 1.400 . S
C601 C595 1.491 . S
C601 C600 1.400 . S
C601 C602 1.398 . S
C602 H590 0.950 . S
C602 C601 1.398 . S
C602 C603 1.391 . S
C603 H591 0.950 . S
C603 C599 1.393 . S
C603 C602 1.391 . S
H604 C612 0.950 . S
H605 C617 0.950 . S
H606 C614 0.950 . S
H607 C616 0.950 . S
H608 C618 0.950 . S
H609 C620 0.950 . S
H610 C622 0.950 . S
H611 C623 0.950 . S
C612 H604 0.950 . S
C612 C613 1.386 . S
C612 C614 1.391 . S
C613 C612 1.386 . S
C613 C617 1.393 . S
C614 H606 0.950 . S
C614 C612 1.391 . S
C614 C615 1.400 . S
C615 C614 1.400 . S
C615 C616 1.398 . S
C615 C621 1.491 . S
C616 H607 0.950 . S
C616 C615 1.398 . S
C616 C617 1.391 . S
C617 H605 0.950 . S
C617 C613 1.393 . S
C617 C616 1.391 . S
C618 H608 0.950 . S
C618 C619 1.386 . S
C618 C620 1.391 . S
C619 C618 1.386 . S
C619 C623 1.393 . S
C620 H609 0.950 . S
C620 C618 1.391 . S
C620 C621 1.400 . S
C621 C615 1.491 . S
C621 C620 1.400 . S
C621 C622 1.398 . S
C622 H610 0.950 . S
C622 C621 1.398 . S
C622 C623 1.391 . S
C623 H611 0.950 . S
C623 C619 1.393 . S
C623 C622 1.391 . S
H624 C632 0.950 . S
H625 C637 0.950 . S
H626 C634 0.950 . S
H627 C636 0.950 . S
H628 C638 0.950 . S
H629 C640 0.950 . S
H630 C642 0.950 . S
H631 C643 0.950 . S
C632 H624 0.950 . S
C632 C633 1.386 . S
C632 C634 1.391 . S
C633 C632 1.386 . S
C633 C637 1.393 . S
C634 H626 0.950 . S
C634 C632 1.391 . S
C634 C635 1.400 . S
C635 C634 1.400 . S
C635 C636 1.398 . S
C635 C641 1.491 . S
C636 H627 0.950 . S
C636 C635 1.398 . S
C636 C637 1.391 . S
C637 H625 0.950 . S
C637 C633 1.393 . S
C637 C636 1.391 . S
C638 H628 0.950 . S
C638 C639 1.386 . S
C638 C640 1.391 . S
C639 C638 1.386 . S
C639 C643 1.393 . S
C640 H629 0.950 . S
C640 C638 1.391 . S
C640 C641 1.400 . S
C641 C635 1.491 . S
C641 C640 1.400 . S
C641 C642 1.398 . S
C642 H630 0.950 . S
C642 C641 1.398 . S
C642 C643 1.391 . S
C643 H631 0.950 . S
C643 C639 1.393 . S
C643 C642 1.391 . S
H644 C652 0.950 . S
H645 C657 0.950 . S
H646 C654 0.950 . S
H647 C656 0.950 . S
H648 C658 0.950 . S
H649 C660 0.950 . S
H650 C662 0.950 . S
H651 C663 0.950 . S
C652 H644 0.950 . S
C652 C653 1.386 . S
C652 C654 1.391 . S
C653 C652 1.386 . S
C653 C657 1.393 1_554 S
C654 H646 0.950 . S
C654 C652 1.391 . S
C654 C655 1.400 . S
C655 C654 1.400 . S
C655 C656 1.398 1_554 S
C655 C661 1.491 1_554 S
C656 H647 0.950 . S
C656 C655 1.398 1_556 S
C656 C657 1.391 . S
C657 H645 0.950 . S
C657 C653 1.393 1_556 S
C657 C656 1.391 . S
C658 H648 0.950 . S
C658 C659 1.386 . S
C658 C660 1.391 . S
C659 C658 1.386 . S
C659 C663 1.393 1_556 S
C660 H649 0.950 . S
C660 C658 1.391 . S
C660 C661 1.400 . S
C661 C655 1.491 1_556 S
C661 C660 1.400 . S
C661 C662 1.398 1_556 S
C662 H650 0.950 . S
C662 C661 1.398 1_554 S
C662 C663 1.391 . S
C663 H651 0.950 . S
C663 C659 1.393 1_554 S
C663 C662 1.391 . S
C273 C183 1.226 . S
C279 C18 1.226 . S
C293 C216 1.238 . S
C299 C51 1.238 . S
C313 C84 1.246 . S
C319 C249 1.246 1_556 S
C333 C150 1.245 . S
C339 C117 1.245 1_554 S
C353 N13 1.112 . S
C359 N2 1.111 . S
C373 N35 1.112 . S
C379 N46 1.112 . S
C393 N79 1.099 . S
C399 N68 1.098 . S
C413 N112 1.115 . S
C419 N101 1.114 . S
C433 N145 1.101 . S
C439 N134 1.100 . S
C453 N178 1.100 . S
C459 N167 1.099 . S
C473 N211 1.109 . S
C479 N200 1.108 . S
C493 N233 1.107 . S
C499 N244 1.108 . S
C513 C7 1.403 . S
C519 C205 1.413 . S
C533 C238 1.399 . S
C539 C40 1.385 . S
C553 C139 1.385 . S
C559 C73 1.393 . S
C573 C106 1.412 . S
C579 C172 1.399 . S
C593 C21 1.553 . S
C599 C153 1.546 . S
C613 C54 1.553 . S
C619 C186 1.547 . S
C633 C87 1.552 . S
C639 C219 1.548 . S
C653 C252 1.542 . S
C659 C120 1.549 . S
