# Generated by pormake.
# Topology vmc, (5)-cn, num edge types: 1
# Building blocks:
#     Node 0, Type 0, BuildingBlock: BEQFEK_clean_sbu_0, # of connection points: 5
#     Node 1, Type 0, BuildingBlock: BEQFEK_clean_sbu_0, # of connection points: 5
#     Node 2, Type 0, BuildingBlock: BEQFEK_clean_sbu_0, # of connection points: 5
#     Node 3, Type 0, BuildingBlock: BEQFEK_clean_sbu_0, # of connection points: 5
#     Node 4, Type 0, BuildingBlock: BEQFEK_clean_sbu_0, # of connection points: 5
#     Node 5, Type 0, BuildingBlock: BEQFEK_clean_sbu_0, # of connection points: 5
#     Node 6, Type 0, BuildingBlock: BEQFEK_clean_sbu_0, # of connection points: 5
#     Node 7, Type 0, BuildingBlock: BEQFEK_clean_sbu_0, # of connection points: 5
#     Edge 8, Type (0, 0), BuildingBlock: EYOCIG_clean_linker_4, # of connection points: 2
#     Edge 9, Type (0, 0), BuildingBlock: EYOCIG_clean_linker_4, # of connection points: 2
#     Edge 10, Type (0, 0), BuildingBlock: EYOCIG_clean_linker_4, # of connection points: 2
#     Edge 11, Type (0, 0), BuildingBlock: EYOCIG_clean_linker_4, # of connection points: 2
#     Edge 12, Type (0, 0), BuildingBlock: EYOCIG_clean_linker_4, # of connection points: 2
#     Edge 13, Type (0, 0), BuildingBlock: EYOCIG_clean_linker_4, # of connection points: 2
#     Edge 14, Type (0, 0), BuildingBlock: EYOCIG_clean_linker_4, # of connection points: 2
#     Edge 15, Type (0, 0), BuildingBlock: EYOCIG_clean_linker_4, # of connection points: 2
#     Edge 16, Type (0, 0), BuildingBlock: EYOCIG_clean_linker_4, # of connection points: 2
#     Edge 17, Type (0, 0), BuildingBlock: EYOCIG_clean_linker_4, # of connection points: 2
#     Edge 18, Type (0, 0), BuildingBlock: EYOCIG_clean_linker_4, # of connection points: 2
#     Edge 19, Type (0, 0), BuildingBlock: EYOCIG_clean_linker_4, # of connection points: 2
#     Edge 20, Type (0, 0), BuildingBlock: EYOCIG_clean_linker_4, # of connection points: 2
#     Edge 21, Type (0, 0), BuildingBlock: EYOCIG_clean_linker_4, # of connection points: 2
#     Edge 22, Type (0, 0), BuildingBlock: EYOCIG_clean_linker_4, # of connection points: 2
#     Edge 23, Type (0, 0), BuildingBlock: EYOCIG_clean_linker_4, # of connection points: 2
#     Edge 24, Type (0, 0), BuildingBlock: EYOCIG_clean_linker_4, # of connection points: 2
#     Edge 25, Type (0, 0), BuildingBlock: EYOCIG_clean_linker_4, # of connection points: 2
#     Edge 26, Type (0, 0), BuildingBlock: EYOCIG_clean_linker_4, # of connection points: 2
#     Edge 27, Type (0, 0), BuildingBlock: EYOCIG_clean_linker_4, # of connection points: 2
# Relax obj value: 0.523
# Max RMSD: 0.276
# Mean RMSD: 0.276
data_MOF--net-vmc--node1-BEQFEK_clean_sbu_0--edge1-EYOCIG_clean_linker_4
_symmetry_space_group_name_H-M    P1
_symmetry_Int_Tables_number       1
_symmetry_cell_setting            triclinic
loop_
_symmetry_equiv_pos_as_xyz
'x, y, z'
_cell_length_a     41.605224
_cell_length_b     39.799302
_cell_length_c     21.967059
_cell_angle_alpha  89.999206
_cell_angle_beta   107.82935
_cell_angle_gamma 89.996434
loop_
_atom_site_label
_atom_site_type_symbol
_atom_site_fract_x
_atom_site_fract_y
_atom_site_fract_z
_atom_type_partial_charge
Co0 Co 0.40254 0.46582 0.14334 0.0
Co1 Co 0.35019 0.40744 0.12765 0.0
C2 C 0.42348 0.39491 0.1889 0.0
O3 O 0.42832 0.42598 0.18341 0.0
O4 O 0.39405 0.38215 0.16776 0.0
C5 C 0.45227 0.4777 0.09396 0.0
O6 O 0.44344 0.4464 0.07908 0.0
C7 C 0.31297 0.3446 0.0799 0.0
C8 C 0.26312 0.3547 0.09211 0.0
C9 C 0.28128 0.33078 0.07089 0.0
N10 N 0.31365 0.37547 0.10544 0.0
N11 N 0.28371 0.38129 0.11262 0.0
C12 C 0.34205 0.32885 0.0641 0.0
H13 H 0.35964 0.34845 0.05741 0.0
H14 H 0.33292 0.3132 0.02034 0.0
H15 H 0.35589 0.3123 0.10421 0.0
C16 C 0.36547 0.47553 1.00805 0.0
N17 N 0.37125 0.45767 0.06234 0.0
N18 N 0.35071 0.43174 0.05229 0.0
C19 C 0.33192 0.43177 0.98974 0.0
C20 C 0.34112 0.45948 0.96007 0.0
C21 C 0.38065 0.50916 1.00291 0.0
H22 H 0.38831 0.52213 0.04979 0.0
H23 H 0.40289 0.50574 0.98582 0.0
H24 H 0.3623 0.52526 0.96758 0.0
O25 O 0.37823 0.48396 0.19949 0.0
O26 O 0.34174 0.44155 0.19123 0.0
H27 H 0.286 0.40656 0.98604 0.0
H28 H 0.29217 0.4128 0.90866 0.0
C29 C 0.3049 0.40679 0.95973 0.0
H30 H 0.3162 0.38135 0.96343 0.0
H31 H 0.27725 0.40352 0.13123 0.0
O32 O 0.43785 0.49445 0.12755 0.0
C33 C 0.35382 0.47021 0.2138 0.0
Co34 Co 0.5976 0.46585 0.37545 0.0
Co35 Co 0.64996 0.40747 0.39124 0.0
C36 C 0.57668 0.39493 0.32997 0.0
O37 O 0.57183 0.426 0.33541 0.0
O38 O 0.6061 0.38217 0.35114 0.0
C39 C 0.54785 0.47775 0.42478 0.0
O40 O 0.55669 0.44646 0.4397 0.0
C41 C 0.68718 0.34463 0.43906 0.0
C42 C 0.73705 0.35473 0.42691 0.0
C43 C 0.71888 0.33081 0.44811 0.0
N44 N 0.68651 0.3755 0.41351 0.0
N45 N 0.71646 0.38131 0.40637 0.0
C46 C 0.65809 0.32888 0.45482 0.0
H47 H 0.6405 0.34849 0.46154 0.0
H48 H 0.66721 0.31321 0.49855 0.0
H49 H 0.64424 0.31236 0.41467 0.0
C50 C 0.63466 0.4756 0.51073 0.0
N51 N 0.62888 0.45773 0.45647 0.0
N52 N 0.64943 0.43179 0.46655 0.0
C53 C 0.66822 0.43184 0.52912 0.0
C54 C 0.65901 0.45957 0.55874 0.0
C55 C 0.61947 0.50924 0.51581 0.0
H56 H 0.61181 0.5222 0.46891 0.0
H57 H 0.59722 0.50583 0.5329 0.0
H58 H 0.63781 0.52535 0.55113 0.0
O59 O 0.62192 0.48396 0.31929 0.0
O60 O 0.65842 0.44155 0.32762 0.0
H61 H 0.71415 0.40665 0.53288 0.0
H62 H 0.70795 0.41289 0.61023 0.0
C63 C 0.69524 0.40687 0.55916 0.0
H64 H 0.68394 0.38143 0.55546 0.0
H65 H 0.72292 0.40354 0.38777 0.0
O66 O 0.56228 0.49449 0.39117 0.0
C67 C 0.64633 0.47021 0.30501 0.0
Co68 Co 0.59775 0.54575 0.87569 0.0
Co69 Co 0.64999 0.60423 0.89132 0.0
C70 C 0.57668 0.61664 0.83014 0.0
O71 O 0.57189 0.58556 0.83565 0.0
O72 O 0.60608 0.62945 0.85125 0.0
C73 C 0.5481 0.53376 0.92523 0.0
O74 O 0.5569 0.56506 0.94011 0.0
C75 C 0.68716 0.66711 0.93912 0.0
C76 C 0.73697 0.65712 0.92663 0.0
C77 C 0.71882 0.68098 0.94802 0.0
N78 N 0.68649 0.63626 0.91347 0.0
N79 N 0.7164 0.63051 0.90613 0.0
C80 C 0.65811 0.68279 0.95512 0.0
H81 H 0.64047 0.66316 0.96153 0.0
H82 H 0.66727 0.69827 0.9991 0.0
H83 H 0.64431 0.69951 0.91525 0.0
C84 C 0.63489 0.53605 0.01093 0.0
N85 N 0.62906 0.55392 0.95664 0.0
N86 N 0.64955 0.5799 0.96669 0.0
C87 C 0.66833 0.5799 0.02926 0.0
C88 C 0.65918 0.55215 0.05892 0.0
C89 C 0.6198 0.50238 0.01606 0.0
H90 H 0.61214 0.48942 0.96916 0.0
H91 H 0.59757 0.50572 0.03323 0.0
H92 H 0.6382 0.4863 0.05133 0.0
O93 O 0.62204 0.52769 0.81944 0.0
O94 O 0.65845 0.57017 0.82766 0.0
H95 H 0.71413 0.60531 0.03293 0.0
H96 H 0.70804 0.59892 0.11033 0.0
C97 C 0.69526 0.60495 0.05929 0.0
H98 H 0.68387 0.63034 0.05571 0.0
H99 H 0.72286 0.60832 0.88741 0.0
O100 O 0.56251 0.51705 0.89155 0.0
C101 C 0.6464 0.54149 0.80508 0.0
Co102 Co 0.40239 0.5457 0.64314 0.0
Co103 Co 0.35012 0.60415 0.62755 0.0
C104 C 0.42342 0.61658 0.68875 0.0
O105 O 0.42822 0.58551 0.68322 0.0
O106 O 0.39401 0.62938 0.66765 0.0
C107 C 0.45204 0.53377 0.59358 0.0
O108 O 0.44322 0.56507 0.57874 0.0
C109 C 0.31292 0.66702 0.57981 0.0
C110 C 0.26312 0.65701 0.59228 0.0
C111 C 0.28126 0.68089 0.57092 0.0
N112 N 0.3136 0.63617 0.60542 0.0
N113 N 0.28369 0.63041 0.61276 0.0
C114 C 0.34198 0.68271 0.56383 0.0
H115 H 0.35961 0.66309 0.55737 0.0
H116 H 0.33282 0.69822 0.51988 0.0
H117 H 0.35578 0.69941 0.60373 0.0
C118 C 0.36525 0.53602 0.50789 0.0
N119 N 0.37107 0.55388 0.56219 0.0
N120 N 0.35057 0.57985 0.55216 0.0
C121 C 0.3318 0.57986 0.48959 0.0
C122 C 0.34095 0.55213 0.45991 0.0
C123 C 0.38036 0.50236 0.50274 0.0
H124 H 0.38804 0.48939 0.54963 0.0
H125 H 0.40259 0.50571 0.48556 0.0
H126 H 0.36197 0.48628 0.46746 0.0
O127 O 0.37811 0.5276 0.69937 0.0
O128 O 0.34167 0.57006 0.69117 0.0
H129 H 0.28597 0.60524 0.48594 0.0
H130 H 0.29207 0.59888 0.40854 0.0
C131 C 0.30484 0.6049 0.45958 0.0
H132 H 0.31622 0.6303 0.46318 0.0
H133 H 0.27724 0.6082 0.63145 0.0
O134 O 0.43765 0.51703 0.62725 0.0
C135 C 0.35374 0.54138 0.71374 0.0
Co136 Co 0.90247 0.96594 0.14331 0.0
Co137 Co 0.85017 0.90751 0.12769 0.0
C138 C 0.92347 0.89504 0.18889 0.0
O139 O 0.92829 0.92611 0.18337 0.0
O140 O 0.89406 0.88225 0.16778 0.0
C141 C 0.95214 0.97785 0.09379 0.0
O142 O 0.94332 0.94655 0.07893 0.0
C143 C 0.81295 0.84466 0.0799 0.0
C144 C 0.76315 0.8547 0.09237 0.0
C145 C 0.78128 0.83081 0.07099 0.0
N146 N 0.81364 0.87551 0.10553 0.0
N147 N 0.78373 0.88129 0.11287 0.0
C148 C 0.842 0.82895 0.06391 0.0
H149 H 0.85964 0.84857 0.05746 0.0
H150 H 0.83283 0.81345 0.01997 0.0
H151 H 0.85579 0.81225 0.10382 0.0
C152 C 0.86535 0.97564 1.00807 0.0
N153 N 0.87116 0.95778 0.06235 0.0
N154 N 0.85064 0.93182 0.05231 0.0
C155 C 0.83186 0.93184 0.98975 0.0
C156 C 0.84103 0.95957 0.96008 0.0
C157 C 0.88048 0.0093 1.00293 0.0
H158 H 0.88816 0.02226 0.04983 0.0
H159 H 0.90271 0.00592 0.98577 0.0
H160 H 0.8621 0.02539 0.96765 0.0
O161 O 0.87819 0.98404 0.19954 0.0
O162 O 0.84174 0.94161 0.19132 0.0
H163 H 0.78601 0.90651 0.98611 0.0
H164 H 0.7921 0.91286 0.9087 0.0
C165 C 0.80488 0.90682 0.95974 0.0
H166 H 0.81623 0.88141 0.96333 0.0
H167 H 0.77729 0.9035 0.13157 0.0
O168 O 0.93775 0.99459 0.12745 0.0
C169 C 0.85382 0.97027 0.2139 0.0
Co170 Co 0.09773 0.96594 0.37576 0.0
Co171 Co 0.15001 0.9075 0.39139 0.0
C172 C 0.07671 0.89505 0.33021 0.0
O173 O 0.0719 0.92612 0.33572 0.0
O174 O 0.10612 0.88226 0.35132 0.0
C175 C 0.04808 0.9779 0.42531 0.0
O176 O 0.05689 0.94659 0.44018 0.0
C177 C 0.18721 0.84463 0.43917 0.0
C178 C 0.23701 0.85463 0.42666 0.0
C179 C 0.21887 0.83076 0.44805 0.0
N180 N 0.18653 0.87548 0.41353 0.0
N181 N 0.21644 0.88124 0.40617 0.0
C182 C 0.15816 0.82895 0.45517 0.0
H183 H 0.14053 0.84857 0.46163 0.0
H184 H 0.16732 0.81344 0.49911 0.0
H185 H 0.14435 0.81225 0.41527 0.0
C186 C 0.13487 0.97564 0.511 0.0
N187 N 0.12905 0.95778 0.45672 0.0
N188 N 0.14956 0.93181 0.46676 0.0
C189 C 0.16835 0.93182 0.52932 0.0
C190 C 0.15919 0.95956 0.55899 0.0
C191 C 0.11976 0.00931 0.51614 0.0
H192 H 0.11208 0.02227 0.46925 0.0
H193 H 0.09753 0.00595 0.53332 0.0
H194 H 0.13815 0.02539 0.55142 0.0
O195 O 0.12201 0.98403 0.31953 0.0
O196 O 0.15845 0.94158 0.32775 0.0
H197 H 0.21418 0.90646 0.53295 0.0
H198 H 0.2081 0.91283 0.61037 0.0
C199 C 0.19532 0.90679 0.55933 0.0
H200 H 0.18395 0.88139 0.55576 0.0
H201 H 0.22288 0.90343 0.38746 0.0
O202 O 0.06247 0.99462 0.39164 0.0
C203 C 0.14638 0.97025 0.30517 0.0
Co204 Co 0.09766 0.04583 0.87559 0.0
Co205 Co 0.14999 0.10423 0.89133 0.0
C206 C 0.0767 0.11674 0.83009 0.0
O207 O 0.07187 0.08568 0.83555 0.0
O208 O 0.10612 0.12951 0.85123 0.0
C209 C 0.04794 0.0339 0.92497 0.0
O210 O 0.05676 0.06519 0.93987 0.0
C211 C 0.18719 0.16708 0.93909 0.0
C212 C 0.23706 0.15698 0.92695 0.0
C213 C 0.21888 0.1809 0.94813 0.0
N214 N 0.18653 0.13621 0.91357 0.0
N215 N 0.21647 0.13039 0.90643 0.0
C216 C 0.15809 0.18283 0.95485 0.0
H217 H 0.14051 0.16322 0.96157 0.0
H218 H 0.16721 0.19851 0.99857 0.0
H219 H 0.14425 0.19935 0.91469 0.0
C220 C 0.13473 0.0361 0.01087 0.0
N221 N 0.12895 0.05396 0.95659 0.0
N222 N 0.14948 0.07991 0.96666 0.0
C223 C 0.16825 0.07988 0.02923 0.0
C224 C 0.15906 0.05216 0.05887 0.0
C225 C 0.11958 1.00246 0.01598 0.0
H226 H 0.11191 0.98949 0.96908 0.0
H227 H 0.09733 1.00585 0.03309 0.0
H228 H 0.13793 0.98636 0.05129 0.0
O229 O 0.12197 0.02772 0.81941 0.0
O230 O 0.15845 0.07015 0.82772 0.0
H231 H 0.21416 0.10512 0.033 0.0
H232 H 0.20796 0.09888 0.11034 0.0
C233 C 0.19525 0.10488 0.05926 0.0
H234 H 0.18392 0.13031 0.05553 0.0
H235 H 0.22294 0.10816 0.88784 0.0
O236 O 0.06236 0.01717 0.89135 0.0
C237 C 0.14637 0.04148 0.80511 0.0
Co238 Co 0.90255 0.04586 0.64349 0.0
Co239 Co 0.85021 0.10426 0.62774 0.0
C240 C 0.92349 0.11678 0.68901 0.0
O241 O 0.92833 0.08571 0.68354 0.0
O242 O 0.89407 0.12954 0.66785 0.0
C243 C 0.95229 0.03396 0.59412 0.0
O244 O 0.94346 0.06525 0.57923 0.0
C245 C 0.81299 0.16711 0.57996 0.0
C246 C 0.76313 0.15701 0.59213 0.0
C247 C 0.7813 0.18093 0.57093 0.0
N248 N 0.81366 0.13624 0.6055 0.0
N249 N 0.78372 0.13042 0.61266 0.0
C250 C 0.84208 0.18286 0.56419 0.0
H251 H 0.85967 0.16325 0.55751 0.0
H252 H 0.83296 0.19852 0.52043 0.0
H253 H 0.85591 0.1994 0.60431 0.0
C254 C 0.86549 0.03614 0.5082 0.0
N255 N 0.87127 0.05401 0.56248 0.0
N256 N 0.85073 0.07995 0.55241 0.0
C257 C 0.83195 0.07992 0.48984 0.0
C258 C 0.84115 0.0522 0.4602 0.0
C259 C 0.88066 1.0025 0.50309 0.0
H260 H 0.88832 0.98954 0.54998 0.0
H261 H 0.90291 0.0059 0.48599 0.0
H262 H 0.86231 0.98641 0.46777 0.0
O263 O 0.87824 0.02775 0.69965 0.0
O264 O 0.84175 0.07017 0.69135 0.0
H265 H 0.78604 0.10515 0.48608 0.0
H266 H 0.79224 0.09891 0.40873 0.0
C267 C 0.80495 0.10491 0.45981 0.0
H268 H 0.81626 0.13034 0.46351 0.0
H269 H 0.77726 0.1082 0.63126 0.0
O270 O 0.93786 0.01722 0.62773 0.0
C271 C 0.85383 0.04151 0.71395 0.0
C272 C 0.33187 0.50646 0.79574 0.0
C273 C 0.34027 0.52395 0.75816 0.0
C274 C 0.32761 0.48578 0.84534 0.0
C275 C 0.33022 0.47038 0.8941 0.0
C276 C 0.67251 0.4859 0.67344 0.0
C277 C 0.6699 0.4705 0.62469 0.0
C278 C 0.66827 0.5066 0.72304 0.0
C279 C 0.65987 0.52408 0.76064 0.0
C280 C 0.66829 0.50518 0.22317 0.0
C281 C 0.65984 0.48767 0.26068 0.0
C282 C 0.6726 0.52588 0.17365 0.0
C283 C 0.67004 0.54128 0.12491 0.0
C284 C 0.33187 0.50518 0.29564 0.0
C285 C 0.34032 0.48768 0.25814 0.0
C286 C 0.32754 0.52588 0.34517 0.0
C287 C 0.3301 0.54127 0.39392 0.0
C288 C 0.82759 0.98585 0.84536 0.0
C289 C 0.83016 0.97045 0.8941 0.0
C290 C 0.83189 0.00655 0.79582 0.0
C291 C 0.84033 0.02405 0.7583 0.0
C292 C 0.16833 0.00653 0.72325 0.0
C293 C 0.15988 0.02403 0.76077 0.0
C294 C 0.17263 0.98584 0.67371 0.0
C295 C 0.17006 0.97044 0.62497 0.0
C296 C 0.17253 0.02586 0.17359 0.0
C297 C 0.16994 0.04125 0.12484 0.0
C298 C 0.16827 1.00517 0.22318 0.0
C299 C 0.15986 0.98768 0.26075 0.0
C300 C 0.82768 0.0259 0.34548 0.0
C301 C 0.83028 0.04129 0.39423 0.0
C302 C 0.83194 1.00521 0.29589 0.0
C303 C 0.84035 0.98771 0.25831 0.0
C304 C 0.49064 0.50188 0.03001 0.0
C305 C 0.47315 0.49359 0.06184 0.0
C306 C 0.50982 0.50951 0.98927 0.0
C307 C 0.52728 0.51782 0.95739 0.0
C308 C 0.50949 0.50194 0.48871 0.0
C309 C 0.52698 0.49366 0.45688 0.0
C310 C 0.49031 0.50956 0.52947 0.0
C311 C 0.47286 0.51785 0.56138 0.0
C312 C 0.00961 0.00968 0.98895 0.0
C313 C 0.02708 0.01798 0.9571 0.0
C314 C 0.99043 1.00205 0.02971 0.0
C315 C 0.97298 0.99376 0.0616 0.0
C316 C 0.99063 0.00975 0.53015 0.0
C317 C 0.97315 0.01804 0.562 0.0
C318 C 0.00981 1.00212 0.4894 0.0
C319 C 0.02726 0.99382 0.4575 0.0
C320 C 0.25713 0.27151 0.02235 0.0
C321 C 0.26875 0.29837 0.0443 0.0
C322 C 0.24301 0.24018 0.99667 0.0
C323 C 0.2314 0.21332 0.97472 0.0
C324 C 0.74302 0.27154 0.49668 0.0
C325 C 0.7314 0.29839 0.47472 0.0
C326 C 0.75715 0.2402 0.52238 0.0
C327 C 0.76877 0.21335 0.54433 0.0
C328 C 0.75711 0.77157 0.02237 0.0
C329 C 0.76874 0.79841 0.04435 0.0
C330 C 0.74296 0.74024 0.99665 0.0
C331 C 0.73134 0.71339 0.97467 0.0
C332 C 0.243 0.7715 0.49664 0.0
C333 C 0.23139 0.79835 0.47468 0.0
C334 C 0.25713 0.74016 0.52234 0.0
C335 C 0.26874 0.7133 0.5443 0.0
C336 C 0.51787 0.36697 0.27452 0.0
C337 C 0.54702 0.3749 0.30031 0.0
C338 C 0.4823 0.36696 0.24438 0.0
C339 C 0.45314 0.37489 0.21859 0.0
C340 C 0.48226 0.64448 0.74435 0.0
C341 C 0.4531 0.63657 0.7185 0.0
C342 C 0.51782 0.6445 0.77456 0.0
C343 C 0.54698 0.63661 0.8004 0.0
C344 C 0.01787 0.86714 0.27467 0.0
C345 C 0.04703 0.87506 0.3005 0.0
C346 C 0.98231 0.86713 0.24447 0.0
C347 C 0.95315 0.87504 0.21863 0.0
C348 C 0.01788 0.1447 0.77463 0.0
C349 C 0.04704 0.13677 0.80042 0.0
C350 C 0.98231 0.14471 0.74449 0.0
C351 C 0.95315 0.1368 0.71869 0.0
loop_
_geom_bond_atom_site_label_1
_geom_bond_atom_site_label_2
_geom_bond_distance
_geom_bond_site_symmetry_2
_ccdc_geom_bond_type
Co0 O3 1.970 . S
Co0 N17 1.989 1_554 S
Co0 O25 1.967 . S
Co0 O32 1.920 . S
Co1 O4 1.966 . S
Co1 N10 2.022 . S
Co1 N18 1.993 1_554 S
Co1 O26 1.941 . S
C2 O3 1.258 . S
C2 O4 1.263 . S
O3 Co0 1.970 . S
O3 C2 1.258 . S
O4 Co1 1.966 . S
O4 C2 1.263 . S
C5 O6 1.235 . S
C5 O32 1.289 . S
O6 C5 1.235 . S
C7 C9 1.400 . S
C7 N10 1.351 . S
C7 C12 1.501 . S
C8 C9 1.387 . S
C8 N11 1.341 . S
C9 C7 1.400 . S
C9 C8 1.387 . S
N10 Co1 2.022 . S
N10 C7 1.351 . S
N10 N11 1.365 . S
N11 C8 1.341 . S
N11 N10 1.365 . S
N11 H31 0.862 . S
C12 C7 1.501 . S
C12 H13 0.961 . S
C12 H14 0.961 . S
C12 H15 0.960 . S
H13 C12 0.961 . S
H14 C12 0.961 . S
H15 C12 0.960 . S
C16 N17 1.342 . S
C16 C20 1.401 . S
C16 C21 1.499 . S
N17 Co0 1.989 1_556 S
N17 C16 1.342 . S
N17 N18 1.388 . S
N18 Co1 1.993 1_556 S
N18 N17 1.388 . S
N18 C19 1.346 . S
C19 N18 1.346 . S
C19 C20 1.396 . S
C19 C29 1.510 . S
C20 C16 1.401 . S
C20 C19 1.396 . S
C21 C16 1.499 . S
C21 H22 0.959 . S
C21 H23 0.960 . S
C21 H24 0.961 . S
H22 C21 0.959 . S
H23 C21 0.960 . S
H24 C21 0.961 . S
O25 Co0 1.967 . S
O25 C33 1.258 . S
O26 Co1 1.941 . S
O26 C33 1.266 . S
H27 C29 0.959 . S
H28 C29 0.961 . S
C29 C19 1.510 . S
C29 H27 0.959 . S
C29 H28 0.961 . S
C29 H30 0.960 . S
H30 C29 0.960 . S
H31 N11 0.862 . S
O32 Co0 1.920 . S
O32 C5 1.289 . S
C33 O25 1.258 . S
C33 O26 1.266 . S
Co34 O37 1.970 . S
Co34 N51 1.989 . S
Co34 O59 1.967 . S
Co34 O66 1.920 . S
Co35 O38 1.966 . S
Co35 N44 2.022 . S
Co35 N52 1.993 . S
Co35 O60 1.941 . S
C36 O37 1.258 . S
C36 O38 1.263 . S
O37 Co34 1.970 . S
O37 C36 1.258 . S
O38 Co35 1.966 . S
O38 C36 1.263 . S
C39 O40 1.235 . S
C39 O66 1.289 . S
O40 C39 1.235 . S
C41 C43 1.400 . S
C41 N44 1.351 . S
C41 C46 1.501 . S
C42 C43 1.387 . S
C42 N45 1.341 . S
C43 C41 1.400 . S
C43 C42 1.387 . S
N44 Co35 2.022 . S
N44 C41 1.351 . S
N44 N45 1.365 . S
N45 C42 1.341 . S
N45 N44 1.365 . S
N45 H65 0.862 . S
C46 C41 1.501 . S
C46 H47 0.961 . S
C46 H48 0.961 . S
C46 H49 0.960 . S
H47 C46 0.961 . S
H48 C46 0.961 . S
H49 C46 0.960 . S
C50 N51 1.342 . S
C50 C54 1.401 . S
C50 C55 1.499 . S
N51 Co34 1.989 . S
N51 C50 1.342 . S
N51 N52 1.388 . S
N52 Co35 1.993 . S
N52 N51 1.388 . S
N52 C53 1.346 . S
C53 N52 1.346 . S
C53 C54 1.396 . S
C53 C63 1.510 . S
C54 C50 1.401 . S
C54 C53 1.396 . S
C55 C50 1.499 . S
C55 H56 0.959 . S
C55 H57 0.960 . S
C55 H58 0.961 . S
H56 C55 0.959 . S
H57 C55 0.960 . S
H58 C55 0.961 . S
O59 Co34 1.967 . S
O59 C67 1.258 . S
O60 Co35 1.941 . S
O60 C67 1.266 . S
H61 C63 0.959 . S
H62 C63 0.961 . S
C63 C53 1.510 . S
C63 H61 0.959 . S
C63 H62 0.961 . S
C63 H64 0.960 . S
H64 C63 0.960 . S
H65 N45 0.862 . S
O66 Co34 1.920 . S
O66 C39 1.289 . S
C67 O59 1.258 . S
C67 O60 1.266 . S
Co68 O71 1.970 . S
Co68 N85 1.989 1_556 S
Co68 O93 1.967 . S
Co68 O100 1.920 . S
Co69 O72 1.966 . S
Co69 N78 2.022 . S
Co69 N86 1.993 1_556 S
Co69 O94 1.941 . S
C70 O71 1.258 . S
C70 O72 1.263 . S
O71 Co68 1.970 . S
O71 C70 1.258 . S
O72 Co69 1.966 . S
O72 C70 1.263 . S
C73 O74 1.235 . S
C73 O100 1.289 . S
O74 C73 1.235 . S
C75 C77 1.400 . S
C75 N78 1.351 . S
C75 C80 1.501 . S
C76 C77 1.387 . S
C76 N79 1.341 . S
C77 C75 1.400 . S
C77 C76 1.387 . S
N78 Co69 2.022 . S
N78 C75 1.351 . S
N78 N79 1.365 . S
N79 C76 1.341 . S
N79 N78 1.365 . S
N79 H99 0.862 . S
C80 C75 1.501 . S
C80 H81 0.961 . S
C80 H82 0.961 . S
C80 H83 0.960 . S
H81 C80 0.961 . S
H82 C80 0.961 . S
H83 C80 0.960 . S
C84 N85 1.342 . S
C84 C88 1.401 . S
C84 C89 1.499 . S
N85 Co68 1.989 1_554 S
N85 C84 1.342 . S
N85 N86 1.388 . S
N86 Co69 1.993 1_554 S
N86 N85 1.388 . S
N86 C87 1.346 . S
C87 N86 1.346 . S
C87 C88 1.396 . S
C87 C97 1.510 . S
C88 C84 1.401 . S
C88 C87 1.396 . S
C89 C84 1.499 . S
C89 H90 0.959 . S
C89 H91 0.960 . S
C89 H92 0.961 . S
H90 C89 0.959 . S
H91 C89 0.960 . S
H92 C89 0.961 . S
O93 Co68 1.967 . S
O93 C101 1.258 . S
O94 Co69 1.941 . S
O94 C101 1.266 . S
H95 C97 0.959 . S
H96 C97 0.961 . S
C97 C87 1.510 . S
C97 H95 0.959 . S
C97 H96 0.961 . S
C97 H98 0.960 . S
H98 C97 0.960 . S
H99 N79 0.862 . S
O100 Co68 1.920 . S
O100 C73 1.289 . S
C101 O93 1.258 . S
C101 O94 1.266 . S
Co102 O105 1.970 . S
Co102 N119 1.989 . S
Co102 O127 1.967 . S
Co102 O134 1.920 . S
Co103 O106 1.966 . S
Co103 N112 2.022 . S
Co103 N120 1.993 . S
Co103 O128 1.941 . S
C104 O105 1.258 . S
C104 O106 1.263 . S
O105 Co102 1.970 . S
O105 C104 1.258 . S
O106 Co103 1.966 . S
O106 C104 1.263 . S
C107 O108 1.235 . S
C107 O134 1.289 . S
O108 C107 1.235 . S
C109 C111 1.400 . S
C109 N112 1.351 . S
C109 C114 1.501 . S
C110 C111 1.387 . S
C110 N113 1.341 . S
C111 C109 1.400 . S
C111 C110 1.387 . S
N112 Co103 2.022 . S
N112 C109 1.351 . S
N112 N113 1.365 . S
N113 C110 1.341 . S
N113 N112 1.365 . S
N113 H133 0.862 . S
C114 C109 1.501 . S
C114 H115 0.961 . S
C114 H116 0.961 . S
C114 H117 0.960 . S
H115 C114 0.961 . S
H116 C114 0.961 . S
H117 C114 0.960 . S
C118 N119 1.342 . S
C118 C122 1.401 . S
C118 C123 1.499 . S
N119 Co102 1.989 . S
N119 C118 1.342 . S
N119 N120 1.388 . S
N120 Co103 1.993 . S
N120 N119 1.388 . S
N120 C121 1.346 . S
C121 N120 1.346 . S
C121 C122 1.396 . S
C121 C131 1.510 . S
C122 C118 1.401 . S
C122 C121 1.396 . S
C123 C118 1.499 . S
C123 H124 0.959 . S
C123 H125 0.960 . S
C123 H126 0.961 . S
H124 C123 0.959 . S
H125 C123 0.960 . S
H126 C123 0.961 . S
O127 Co102 1.967 . S
O127 C135 1.258 . S
O128 Co103 1.941 . S
O128 C135 1.266 . S
H129 C131 0.959 . S
H130 C131 0.961 . S
C131 C121 1.510 . S
C131 H129 0.959 . S
C131 H130 0.961 . S
C131 H132 0.960 . S
H132 C131 0.960 . S
H133 N113 0.862 . S
O134 Co102 1.920 . S
O134 C107 1.289 . S
C135 O127 1.258 . S
C135 O128 1.266 . S
Co136 O139 1.970 . S
Co136 N153 1.989 1_554 S
Co136 O161 1.967 . S
Co136 O168 1.920 . S
Co137 O140 1.966 . S
Co137 N146 2.022 . S
Co137 N154 1.993 1_554 S
Co137 O162 1.941 . S
C138 O139 1.258 . S
C138 O140 1.263 . S
O139 Co136 1.970 . S
O139 C138 1.258 . S
O140 Co137 1.966 . S
O140 C138 1.263 . S
C141 O142 1.235 . S
C141 O168 1.289 . S
O142 C141 1.235 . S
C143 C145 1.400 . S
C143 N146 1.351 . S
C143 C148 1.501 . S
C144 C145 1.387 . S
C144 N147 1.341 . S
C145 C143 1.400 . S
C145 C144 1.387 . S
N146 Co137 2.022 . S
N146 C143 1.351 . S
N146 N147 1.365 . S
N147 C144 1.341 . S
N147 N146 1.365 . S
N147 H167 0.862 . S
C148 C143 1.501 . S
C148 H149 0.961 . S
C148 H150 0.961 . S
C148 H151 0.960 . S
H149 C148 0.961 . S
H150 C148 0.961 . S
H151 C148 0.960 . S
C152 N153 1.342 . S
C152 C156 1.401 . S
C152 C157 1.499 . S
N153 Co136 1.989 1_556 S
N153 C152 1.342 . S
N153 N154 1.388 . S
N154 Co137 1.993 1_556 S
N154 N153 1.388 . S
N154 C155 1.346 . S
C155 N154 1.346 . S
C155 C156 1.396 . S
C155 C165 1.510 . S
C156 C152 1.401 . S
C156 C155 1.396 . S
C157 C152 1.499 . S
C157 H158 0.959 . S
C157 H159 0.960 . S
C157 H160 0.961 1_565 S
H158 C157 0.959 . S
H159 C157 0.960 . S
H160 C157 0.961 1_545 S
O161 Co136 1.967 . S
O161 C169 1.258 . S
O162 Co137 1.941 . S
O162 C169 1.266 . S
H163 C165 0.959 . S
H164 C165 0.961 . S
C165 C155 1.510 . S
C165 H163 0.959 . S
C165 H164 0.961 . S
C165 H166 0.960 . S
H166 C165 0.960 . S
H167 N147 0.862 . S
O168 Co136 1.920 . S
O168 C141 1.289 . S
C169 O161 1.258 . S
C169 O162 1.266 . S
Co170 O173 1.970 . S
Co170 N187 1.989 . S
Co170 O195 1.967 . S
Co170 O202 1.920 . S
Co171 O174 1.966 . S
Co171 N180 2.022 . S
Co171 N188 1.993 . S
Co171 O196 1.941 . S
C172 O173 1.258 . S
C172 O174 1.263 . S
O173 Co170 1.970 . S
O173 C172 1.258 . S
O174 Co171 1.966 . S
O174 C172 1.263 . S
C175 O176 1.235 . S
C175 O202 1.289 . S
O176 C175 1.235 . S
C177 C179 1.400 . S
C177 N180 1.351 . S
C177 C182 1.501 . S
C178 C179 1.387 . S
C178 N181 1.341 . S
C179 C177 1.400 . S
C179 C178 1.387 . S
N180 Co171 2.022 . S
N180 C177 1.351 . S
N180 N181 1.365 . S
N181 C178 1.341 . S
N181 N180 1.365 . S
N181 H201 0.862 . S
C182 C177 1.501 . S
C182 H183 0.961 . S
C182 H184 0.961 . S
C182 H185 0.960 . S
H183 C182 0.961 . S
H184 C182 0.961 . S
H185 C182 0.960 . S
C186 N187 1.342 . S
C186 C190 1.401 . S
C186 C191 1.499 . S
N187 Co170 1.989 . S
N187 C186 1.342 . S
N187 N188 1.388 . S
N188 Co171 1.993 . S
N188 N187 1.388 . S
N188 C189 1.346 . S
C189 N188 1.346 . S
C189 C190 1.396 . S
C189 C199 1.510 . S
C190 C186 1.401 . S
C190 C189 1.396 . S
C191 C186 1.499 . S
C191 H192 0.959 . S
C191 H193 0.960 . S
C191 H194 0.961 1_565 S
H192 C191 0.959 . S
H193 C191 0.960 . S
H194 C191 0.961 1_545 S
O195 Co170 1.967 . S
O195 C203 1.258 . S
O196 Co171 1.941 . S
O196 C203 1.266 . S
H197 C199 0.959 . S
H198 C199 0.961 . S
C199 C189 1.510 . S
C199 H197 0.959 . S
C199 H198 0.961 . S
C199 H200 0.960 . S
H200 C199 0.960 . S
H201 N181 0.862 . S
O202 Co170 1.920 . S
O202 C175 1.289 . S
C203 O195 1.258 . S
C203 O196 1.266 . S
Co204 O207 1.970 . S
Co204 N221 1.989 1_556 S
Co204 O229 1.967 . S
Co204 O236 1.920 . S
Co205 O208 1.966 . S
Co205 N214 2.022 . S
Co205 N222 1.993 1_556 S
Co205 O230 1.941 . S
C206 O207 1.258 . S
C206 O208 1.263 . S
O207 Co204 1.970 . S
O207 C206 1.258 . S
O208 Co205 1.966 . S
O208 C206 1.263 . S
C209 O210 1.235 . S
C209 O236 1.289 . S
O210 C209 1.235 . S
C211 C213 1.400 . S
C211 N214 1.351 . S
C211 C216 1.501 . S
C212 C213 1.387 . S
C212 N215 1.341 . S
C213 C211 1.400 . S
C213 C212 1.387 . S
N214 Co205 2.022 . S
N214 C211 1.351 . S
N214 N215 1.365 . S
N215 C212 1.341 . S
N215 N214 1.365 . S
N215 H235 0.862 . S
C216 C211 1.501 . S
C216 H217 0.961 . S
C216 H218 0.961 . S
C216 H219 0.960 . S
H217 C216 0.961 . S
H218 C216 0.961 . S
H219 C216 0.960 . S
C220 N221 1.342 . S
C220 C224 1.401 . S
C220 C225 1.499 . S
N221 Co204 1.989 1_554 S
N221 C220 1.342 . S
N221 N222 1.388 . S
N222 Co205 1.993 1_554 S
N222 N221 1.388 . S
N222 C223 1.346 . S
C223 N222 1.346 . S
C223 C224 1.396 . S
C223 C233 1.510 . S
C224 C220 1.401 . S
C224 C223 1.396 . S
C225 C220 1.499 . S
C225 H226 0.959 . S
C225 H227 0.960 . S
C225 H228 0.961 1_545 S
H226 C225 0.959 . S
H227 C225 0.960 . S
H228 C225 0.961 1_565 S
O229 Co204 1.967 . S
O229 C237 1.258 . S
O230 Co205 1.941 . S
O230 C237 1.266 . S
H231 C233 0.959 . S
H232 C233 0.961 . S
C233 C223 1.510 . S
C233 H231 0.959 . S
C233 H232 0.961 . S
C233 H234 0.960 . S
H234 C233 0.960 . S
H235 N215 0.862 . S
O236 Co204 1.920 . S
O236 C209 1.289 . S
C237 O229 1.258 . S
C237 O230 1.266 . S
Co238 O241 1.970 . S
Co238 N255 1.989 . S
Co238 O263 1.967 . S
Co238 O270 1.920 . S
Co239 O242 1.966 . S
Co239 N248 2.022 . S
Co239 N256 1.993 . S
Co239 O264 1.941 . S
C240 O241 1.258 . S
C240 O242 1.263 . S
O241 Co238 1.970 . S
O241 C240 1.258 . S
O242 Co239 1.966 . S
O242 C240 1.263 . S
C243 O244 1.235 . S
C243 O270 1.289 . S
O244 C243 1.235 . S
C245 C247 1.400 . S
C245 N248 1.351 . S
C245 C250 1.501 . S
C246 C247 1.387 . S
C246 N249 1.341 . S
C247 C245 1.400 . S
C247 C246 1.387 . S
N248 Co239 2.022 . S
N248 C245 1.351 . S
N248 N249 1.365 . S
N249 C246 1.341 . S
N249 N248 1.365 . S
N249 H269 0.862 . S
C250 C245 1.501 . S
C250 H251 0.961 . S
C250 H252 0.961 . S
C250 H253 0.960 . S
H251 C250 0.961 . S
H252 C250 0.961 . S
H253 C250 0.960 . S
C254 N255 1.342 . S
C254 C258 1.401 . S
C254 C259 1.499 . S
N255 Co238 1.989 . S
N255 C254 1.342 . S
N255 N256 1.388 . S
N256 Co239 1.993 . S
N256 N255 1.388 . S
N256 C257 1.346 . S
C257 N256 1.346 . S
C257 C258 1.396 . S
C257 C267 1.510 . S
C258 C254 1.401 . S
C258 C257 1.396 . S
C259 C254 1.499 . S
C259 H260 0.959 . S
C259 H261 0.960 . S
C259 H262 0.961 1_545 S
H260 C259 0.959 . S
H261 C259 0.960 . S
H262 C259 0.961 1_565 S
O263 Co238 1.967 . S
O263 C271 1.258 . S
O264 Co239 1.941 . S
O264 C271 1.266 . S
H265 C267 0.959 . S
H266 C267 0.961 . S
C267 C257 1.510 . S
C267 H265 0.959 . S
C267 H266 0.961 . S
C267 H268 0.960 . S
H268 C267 0.960 . S
H269 N249 0.862 . S
O270 Co238 1.920 . S
O270 C243 1.289 . S
C271 O263 1.258 . S
C271 O264 1.266 . S
C272 C273 1.170 . S
C272 C274 1.380 . S
C273 C272 1.170 . S
C274 C272 1.380 . S
C274 C275 1.170 . S
C275 C274 1.170 . S
C276 C277 1.170 . S
C276 C278 1.380 . S
C277 C276 1.170 . S
C278 C276 1.380 . S
C278 C279 1.170 . S
C279 C278 1.170 . S
C280 C281 1.170 . S
C280 C282 1.380 . S
C281 C280 1.170 . S
C282 C280 1.380 . S
C282 C283 1.170 . S
C283 C282 1.170 . S
C284 C285 1.170 . S
C284 C286 1.380 . S
C285 C284 1.170 . S
C286 C284 1.380 . S
C286 C287 1.170 . S
C287 C286 1.170 . S
C288 C289 1.170 . S
C288 C290 1.380 . S
C289 C288 1.170 . S
C290 C288 1.380 . S
C290 C291 1.170 1_565 S
C291 C290 1.170 1_545 S
C292 C293 1.170 1_565 S
C292 C294 1.380 . S
C293 C292 1.170 1_545 S
C294 C292 1.380 . S
C294 C295 1.170 . S
C295 C294 1.170 . S
C296 C297 1.170 . S
C296 C298 1.380 . S
C297 C296 1.170 . S
C298 C296 1.380 . S
C298 C299 1.170 1_545 S
C299 C298 1.170 1_565 S
C300 C301 1.170 . S
C300 C302 1.380 . S
C301 C300 1.170 . S
C302 C300 1.380 . S
C302 C303 1.170 1_545 S
C303 C302 1.170 1_565 S
C304 C305 1.170 . S
C304 C306 1.380 1_554 S
C305 C304 1.170 . S
C306 C304 1.380 1_556 S
C306 C307 1.170 . S
C307 C306 1.170 . S
C308 C309 1.170 . S
C308 C310 1.380 . S
C309 C308 1.170 . S
C310 C308 1.380 . S
C310 C311 1.170 . S
C311 C310 1.170 . S
C312 C313 1.170 . S
C312 C314 1.380 1_466 S
C313 C312 1.170 . S
C314 C312 1.380 1_644 S
C314 C315 1.170 . S
C315 C314 1.170 . S
C316 C317 1.170 . S
C316 C318 1.380 1_665 S
C317 C316 1.170 . S
C318 C316 1.380 1_445 S
C318 C319 1.170 . S
C319 C318 1.170 . S
C320 C321 1.169 1_556 S
C320 C322 1.381 . S
C321 C320 1.169 1_554 S
C322 C320 1.381 . S
C322 C323 1.170 . S
C323 C322 1.170 . S
C324 C325 1.170 . S
C324 C326 1.380 . S
C325 C324 1.170 . S
C326 C324 1.380 . S
C326 C327 1.170 . S
C327 C326 1.170 . S
C328 C329 1.170 1_556 S
C328 C330 1.380 . S
C329 C328 1.170 1_554 S
C330 C328 1.380 . S
C330 C331 1.170 . S
C331 C330 1.170 . S
C332 C333 1.170 . S
C332 C334 1.380 . S
C333 C332 1.170 . S
C334 C332 1.380 . S
C334 C335 1.170 . S
C335 C334 1.170 . S
C336 C337 1.170 . S
C336 C338 1.380 . S
C337 C336 1.170 . S
C338 C336 1.380 . S
C338 C339 1.170 . S
C339 C338 1.170 . S
C340 C341 1.170 . S
C340 C342 1.380 . S
C341 C340 1.170 . S
C342 C340 1.380 . S
C342 C343 1.170 . S
C343 C342 1.170 . S
C344 C345 1.170 . S
C344 C346 1.380 1_455 S
C345 C344 1.170 . S
C346 C344 1.380 1_655 S
C346 C347 1.170 . S
C347 C346 1.170 . S
C348 C349 1.170 . S
C348 C350 1.380 1_455 S
C349 C348 1.170 . S
C350 C348 1.380 1_655 S
C350 C351 1.170 . S
C351 C350 1.170 . S
C273 C135 1.622 . S
C275 C20 1.526 . S
C277 C54 1.489 . S
C279 C101 1.616 . S
C281 C67 1.618 . S
C283 C88 1.492 . S
C285 C33 1.614 . S
C287 C122 1.511 . S
C289 C156 1.488 . S
C291 C271 1.616 . S
C293 C237 1.620 . S
C295 C190 1.527 . S
C297 C224 1.478 . S
C299 C203 1.614 . S
C301 C258 1.498 . S
C303 C169 1.612 . S
C305 C5 0.715 . S
C307 C73 0.780 . S
C309 C39 0.778 . S
C311 C107 0.716 . S
C313 C209 0.833 1_565 S
C315 C141 0.707 1_545 S
C317 C243 0.729 1_565 S
C319 C175 0.828 1_545 S
C321 C9 1.369 . S
C323 C213 1.371 . S
C325 C43 1.377 . S
C327 C247 1.350 . S
C329 C145 1.369 . S
C331 C77 1.371 . S
C333 C179 1.367 . S
C335 C111 1.373 . S
C337 C36 1.988 . S
C339 C2 1.970 . S
C341 C104 1.962 . S
C343 C70 1.963 . S
C345 C172 1.974 . S
C347 C138 1.962 . S
C349 C206 1.982 . S
C351 C240 1.983 . S
