# Generated by pormake.
# Topology swf, (7)-cn, num edge types: 1
# Building blocks:
#     Node 0, Type 0, BuildingBlock: HICVOG_clean_sbu_0, # of connection points: 7
#     Node 1, Type 0, BuildingBlock: HICVOG_clean_sbu_0, # of connection points: 7
#     Node 2, Type 0, BuildingBlock: HICVOG_clean_sbu_0, # of connection points: 7
#     Node 3, Type 0, BuildingBlock: HICVOG_clean_sbu_0, # of connection points: 7
#     Node 4, Type 0, BuildingBlock: HICVOG_clean_sbu_0, # of connection points: 7
#     Node 5, Type 0, BuildingBlock: HICVOG_clean_sbu_0, # of connection points: 7
#     Node 6, Type 0, BuildingBlock: HICVOG_clean_sbu_0, # of connection points: 7
#     Node 7, Type 0, BuildingBlock: HICVOG_clean_sbu_0, # of connection points: 7
#     Node 8, Type 0, BuildingBlock: HICVOG_clean_sbu_0, # of connection points: 7
#     Node 9, Type 0, BuildingBlock: HICVOG_clean_sbu_0, # of connection points: 7
#     Node 10, Type 0, BuildingBlock: HICVOG_clean_sbu_0, # of connection points: 7
#     Node 11, Type 0, BuildingBlock: HICVOG_clean_sbu_0, # of connection points: 7
#     Edge 12, Type (0, 0), None
#     Edge 13, Type (0, 0), None
#     Edge 14, Type (0, 0), None
#     Edge 15, Type (0, 0), None
#     Edge 16, Type (0, 0), None
#     Edge 17, Type (0, 0), None
#     Edge 18, Type (0, 0), None
#     Edge 19, Type (0, 0), None
#     Edge 20, Type (0, 0), None
#     Edge 21, Type (0, 0), None
#     Edge 22, Type (0, 0), None
#     Edge 23, Type (0, 0), None
#     Edge 24, Type (0, 0), None
#     Edge 25, Type (0, 0), None
#     Edge 26, Type (0, 0), None
#     Edge 27, Type (0, 0), None
#     Edge 28, Type (0, 0), None
#     Edge 29, Type (0, 0), None
#     Edge 30, Type (0, 0), None
#     Edge 31, Type (0, 0), None
#     Edge 32, Type (0, 0), None
#     Edge 33, Type (0, 0), None
#     Edge 34, Type (0, 0), None
#     Edge 35, Type (0, 0), None
#     Edge 36, Type (0, 0), None
#     Edge 37, Type (0, 0), None
#     Edge 38, Type (0, 0), None
#     Edge 39, Type (0, 0), None
#     Edge 40, Type (0, 0), None
#     Edge 41, Type (0, 0), None
#     Edge 42, Type (0, 0), None
#     Edge 43, Type (0, 0), None
#     Edge 44, Type (0, 0), None
#     Edge 45, Type (0, 0), None
#     Edge 46, Type (0, 0), None
#     Edge 47, Type (0, 0), None
#     Edge 48, Type (0, 0), None
#     Edge 49, Type (0, 0), None
#     Edge 50, Type (0, 0), None
#     Edge 51, Type (0, 0), None
#     Edge 52, Type (0, 0), None
#     Edge 53, Type (0, 0), None
# Relax obj value: 0.623
# Max RMSD: 0.225
# Mean RMSD: 0.225
data_MOF--net-swf--node1-HICVOG_clean_sbu_0--edge1-none
_symmetry_space_group_name_H-M    P1
_symmetry_Int_Tables_number       1
_symmetry_cell_setting            triclinic
loop_
_symmetry_equiv_pos_as_xyz
'x, y, z'
_cell_length_a     24.82416
_cell_length_b     24.901832
_cell_length_c     8.7509326
_cell_angle_alpha  90.317373
_cell_angle_beta   89.77959
_cell_angle_gamma 120.11397
loop_
_atom_site_label
_atom_site_type_symbol
_atom_site_fract_x
_atom_site_fract_y
_atom_site_fract_z
_atom_type_partial_charge
Zn0 Zn 0.35117 0.04118 1.22468 0.0
C1 C 0.33926 0.15975 0.52552 0.0
N2 N 0.34316 0.1315 0.36756 0.0
C3 C 0.34116 0.15887 1.20788 0.0
N4 N 0.34609 0.11829 1.29507 0.0
N5 N 0.34569 0.1191 0.43804 0.0
C6 C 0.2598 -0.02067 0.57469 0.0
O7 O 0.22584 0.00481 0.54426 0.0
O8 O 0.41536 0.07377 1.05736 0.0
Zn9 Zn 0.37673 0.05754 0.47279 0.0
N10 N 0.26227 -0.023 1.23042 0.0
C11 C 0.18099 0.8759 1.29956 0.0
C12 C 0.24441 0.91759 1.27094 0.0
C13 C 0.21727 -0.00733 1.21267 0.0
N14 N 0.13777 0.89117 1.25661 0.0
C15 C 0.15695 -0.05598 1.17444 0.0
O16 O 0.38545 -0.02044 0.52388 0.0
C17 C 0.40181 -0.03776 0.4068 0.0
O18 O 0.39482 -0.0151 1.28273 0.0
H19 H 0.27861 0.90425 1.29445 0.0
H20 H 0.23111 0.03994 1.18284 0.0
C21 C 0.48644 0.1684 0.44653 0.0
C22 C 0.5458 0.20328 0.50571 0.0
C23 C 0.57109 0.13703 0.37326 0.0
C24 C 0.50918 0.09238 0.37439 0.0
N25 N 0.46615 0.10833 0.41846 0.0
N26 N 0.58949 0.19336 0.43694 0.0
H27 H 0.45274 0.17942 0.48039 0.0
C28 C 0.46578 0.12598 1.07537 0.0
O29 O 0.4641 0.17249 1.1403 0.0
O30 O 0.31486 0.01329 0.62596 0.0
H31 H 0.49946 0.04787 1.33621 0.0
H32 H 0.16675 0.83295 1.35664 0.0
H33 H 0.60246 0.1234 1.33477 0.0
Zn34 Zn 0.24273 0.37785 1.20178 0.0
C35 C 0.12399 0.37078 0.53159 0.0
N36 N 0.15352 0.37396 0.37071 0.0
C37 C 0.12136 0.37209 1.21488 0.0
N38 N 0.16785 0.37621 1.29687 0.0
N39 N 0.17038 0.37672 0.44097 0.0
C40 C 0.21999 0.27781 0.60894 0.0
O41 O 0.16363 0.25756 0.55602 0.0
O42 O 0.30123 0.47064 1.23525 0.0
Zn43 Zn 0.25999 0.39861 0.51104 0.0
N44 N 0.22408 0.29252 1.2615 0.0
C45 C 0.24691 0.21142 1.30426 0.0
C46 C 0.26708 0.27502 1.2899 0.0
C47 C 0.16369 0.24694 1.2368 0.0
N48 N 0.188 0.1684 1.26325 0.0
C49 C 0.15333 0.18812 1.18826 0.0
O50 O 0.34589 0.41076 0.42951 0.0
C51 C 0.37614 0.4289 1.30553 0.0
O52 O 0.34315 0.42038 1.18638 0.0
H53 H 0.31555 0.30848 1.3039 0.0
H54 H 0.13037 0.26075 1.20484 0.0
C55 C 0.26189 0.5055 0.60423 0.0
C56 C 0.28845 0.56846 0.63829 0.0
C57 C 0.38209 0.58429 0.53225 0.0
C58 C 0.36141 0.52197 0.55119 0.0
N59 N 0.29957 0.48251 0.57536 0.0
N60 N 0.34279 0.60552 0.56289 0.0
H61 H 0.21561 0.47374 0.63227 0.0
C62 C 0.30938 0.52469 1.25264 0.0
O63 O 0.26095 0.53256 1.26092 0.0
O64 O 0.25476 0.3347 0.64223 0.0
H65 H 0.39365 0.5066 0.5295 0.0
H66 H 0.27752 0.1965 1.34624 0.0
H67 H 0.42679 0.61377 0.4833 0.0
Zn68 Zn 0.81295 0.27203 1.20116 0.0
C69 C 0.69579 0.15409 0.52427 0.0
N70 N 0.72399 0.18384 1.36503 0.0
C71 C 0.69547 0.15191 1.2072 0.0
N72 N 0.73716 0.19804 1.29079 0.0
N73 N 0.73719 0.20066 0.43493 0.0
C74 C 0.88428 0.25849 0.63323 0.0
O75 O 0.85269 0.20034 0.58864 0.0
O76 O 0.77649 0.32875 1.22439 0.0
Zn77 Zn 0.80449 0.29199 0.49939 0.0
N78 N 0.87622 0.25291 1.28838 0.0
C79 C -0.02191 0.27252 1.35205 0.0
C80 C -0.06321 0.29465 1.32358 0.0
C81 C 0.85988 0.19188 1.27144 0.0
N82 N -0.03893 0.21303 1.31496 0.0
C83 C 0.90795 0.17954 1.23299 0.0
O84 O 0.87994 0.37691 0.41126 0.0
C85 C 0.89664 0.40541 1.28413 0.0
O86 O 0.87452 0.37114 1.16549 0.0
H87 H -0.04634 0.34359 1.33007 0.0
H88 H 0.81317 0.15914 1.23435 0.0
C89 C 0.69948 0.29355 0.5906 0.0
C90 C 0.66384 0.31944 0.63943 0.0
C91 C 0.73423 0.41076 0.51057 0.0
C92 C 0.77643 0.39065 0.50732 0.0
N93 N 0.75795 0.33124 0.54564 0.0
N94 N 0.67772 0.3742 0.57231 0.0
H95 H 0.6894 0.24911 0.62235 0.0
C96 C 0.72764 0.33283 1.22885 0.0
O97 O 0.67273 0.2825 1.232 0.0
O98 O 0.85635 0.28853 0.65976 0.0
H99 H 0.82007 0.42061 0.45421 0.0
H100 H 0.02357 0.30255 0.39584 0.0
H101 H 0.74712 0.45416 0.45932 0.0
Zn102 Zn 0.44945 0.82071 0.4832 0.0
C103 C 0.4934 0.72425 1.22904 0.0
N104 N 0.49045 0.75188 0.38828 0.0
C105 C 0.49209 0.72295 0.54589 0.0
N106 N 0.48447 0.76278 0.45853 0.0
N107 N 0.49052 0.7669 1.3146 0.0
C108 C 0.36919 0.7629 1.02762 0.0
O109 O 0.37248 0.7134 1.0475 0.0
O110 O 0.5323 0.89731 0.48717 0.0
Zn111 Zn 0.48804 0.84463 1.21515 0.0
N112 N 0.37257 0.77649 1.3507 0.0
C113 C 0.26936 0.75699 1.3067 0.0
C114 C 0.33252 0.79836 1.32245 0.0
C115 C 0.34666 0.71344 1.35386 0.0
N116 N 0.24717 0.6964 1.34157 0.0
C117 C 0.28655 0.68153 0.41286 0.0
O118 O 0.45574 0.90923 1.29711 0.0
C119 C 0.43523 0.9237 0.41646 0.0
O120 O 0.43188 0.89376 0.53602 0.0
H121 H 0.34601 0.84492 1.29936 0.0
H122 H 0.37528 0.69373 0.37697 0.0
C123 C 0.61608 0.88334 1.11414 0.0
C124 C 0.674 0.92884 1.05368 0.0
C125 C 0.66774 0.00181 1.21021 0.0
C126 C 0.60226 -0.03499 1.19854 0.0
N127 N 0.57679 0.90338 1.16283 0.0
N128 N 0.70336 -0.01887 1.14153 0.0
H129 H 0.59775 0.83529 1.08434 0.0
C130 C 0.59083 0.93171 0.49361 0.0
O131 O 0.62762 0.90795 0.48974 0.0
O132 O 0.41749 0.81625 1.05003 0.0
H133 H 0.57296 -0.01725 1.23847 0.0
H134 H 0.24036 0.77425 1.26849 0.0
H135 H 0.68968 0.04612 1.26759 0.0
Zn136 Zn 0.58151 0.51175 1.18924 0.0
C137 C 0.7011 0.5168 0.50247 0.0
N138 N 0.67202 0.5145 1.34222 0.0
C139 C 0.704 0.51662 1.18546 0.0
N140 N 0.65705 0.51074 1.26931 0.0
N141 N 0.6558 0.5126 0.41256 0.0
C142 C 0.59112 0.58448 0.60649 0.0
O143 O 0.6485 0.61308 0.55494 0.0
O144 O 0.5489 0.45042 1.0104 0.0
Zn145 Zn 0.56271 0.48182 0.45391 0.0
N146 N 0.60871 0.59983 1.24756 0.0
C147 C 0.5966 0.68314 1.3449 0.0
C148 C 0.57057 0.62005 1.30397 0.0
C149 C 0.67068 0.64243 1.23294 0.0
N150 N 0.65573 0.72457 1.29988 0.0
C151 C 0.68595 0.70432 1.20646 0.0
O152 O 0.47834 0.48428 0.4323 0.0
C153 C 0.44857 0.46405 1.309 0.0
O154 O 0.48169 0.46309 1.20074 0.0
H155 H 0.52188 0.58841 1.32058 0.0
H156 H 0.70166 0.62709 1.19064 0.0
C157 C 0.56286 0.37158 0.36641 0.0
C158 C 0.53667 0.3109 0.41377 0.0
C159 C 0.44097 0.29481 1.32382 0.0
C160 C 0.46165 0.3558 1.36323 0.0
N161 N 0.52437 0.39544 0.38193 0.0
N162 N 0.48117 0.27326 1.34228 0.0
H163 H 0.6118 0.40032 0.38422 0.0
C164 C 0.54819 0.39891 1.0261 0.0
O165 O 0.59835 0.39992 1.06732 0.0
O166 O 0.56454 0.52693 0.63816 0.0
H167 H 0.42691 0.36597 0.40081 0.0
H168 H 0.5696 0.69935 0.40408 0.0
H169 H 0.39305 0.26542 1.29552 0.0
Zn170 Zn 0.02717 0.59457 0.50103 0.0
C171 C 0.13356 0.73314 1.20526 0.0
N172 N 0.10532 0.70249 1.36372 0.0
C173 C 0.13395 0.7333 0.52213 0.0
N174 N 0.09216 0.68644 0.43366 0.0
N175 N 0.09142 0.68779 1.28968 0.0
C176 C 0.10315 0.55482 1.18529 0.0
O177 O 0.15529 0.60583 1.15388 0.0
O178 O -0.0134 0.60158 0.69068 0.0
Zn179 Zn 0.01307 0.6105 1.21697 0.0
N180 N 0.07536 0.55552 0.51322 0.0
C181 C 0.09668 0.47407 0.47303 0.0
C182 C 0.05381 0.49332 0.49686 0.0
C183 C 0.13687 0.59472 0.50264 0.0
N184 N 0.15832 0.51631 0.49123 0.0
C185 C 0.17409 0.57264 0.55475 0.0
O186 O -0.04552 0.5122 1.16699 0.0
C187 C -0.06402 0.47756 1.28522 0.0
O188 O -0.04658 0.5063 0.41334 0.0
H189 H 0.00588 0.45924 0.4857 0.0
H190 H 0.15281 0.64203 0.50183 0.0
C191 C -0.03796 0.68097 1.35092 0.0
C192 C 0.91059 0.69052 1.33805 0.0
C193 C 0.84887 0.59134 0.43925 0.0
C194 C 0.89189 0.57536 0.38762 0.0
N195 N -0.0498 0.62102 1.34604 0.0
N196 N 0.85912 0.64966 0.41743 0.0
H197 H 0.00701 0.71763 1.31347 0.0
C198 C -0.03236 0.64049 0.7019 0.0
O199 O 0.00093 0.69678 0.6475 0.0
O200 O 0.05406 0.55695 1.21304 0.0
H201 H 0.87556 0.52701 0.37739 0.0
H202 H 0.08029 0.42861 0.42786 0.0
H203 H 0.80958 0.55787 0.49983 0.0
Zn204 Zn 0.79048 0.47537 0.74296 0.0
C205 C 0.69429 0.5186 1.00349 0.0
N206 N 0.72199 0.51605 0.84396 0.0
C207 C 0.69274 0.51769 0.68649 0.0
N208 N 0.73313 0.51067 0.77337 0.0
N209 N 0.73705 0.51601 0.91746 0.0
C210 C 0.73354 0.39392 1.19776 0.0
O211 O 0.68317 0.39619 1.18105 0.0
O212 O 0.86824 0.55726 0.74207 0.0
Zn213 Zn 0.81486 0.51359 1.01557 0.0
N214 N 0.74552 0.39892 0.87371 0.0
C215 C 0.72487 0.29587 0.91883 0.0
C216 C 0.76691 0.35871 0.90395 0.0
C217 C 0.6824 0.37359 0.86711 0.0
N218 N 0.66444 0.27417 0.88061 0.0
C219 C 0.6504 0.31377 0.80803 0.0
O220 O 0.87939 0.48133 0.93525 0.0
C221 C 0.89369 0.4606 0.8162 0.0
O222 O 0.86374 0.45716 0.69634 0.0
H223 H 0.81336 0.37195 0.9311 0.0
H224 H 0.66297 0.40216 0.84181 0.0
C225 C 0.85311 0.64113 1.11475 0.0
C226 C 0.8985 0.69919 1.17466 0.0
C227 C -0.0279 0.69305 1.0199 0.0
C228 C -0.0646 0.62776 1.03143 0.0
N229 N 0.87359 0.60215 1.06706 0.0
N230 N -0.04891 0.72849 1.08771 0.0
H231 H 0.80486 0.62258 1.14423 0.0
C232 C 0.90153 0.61574 0.73571 0.0
O233 O 0.87634 0.65123 0.73927 0.0
O234 O 0.7866 0.443 1.1785 0.0
H235 H -0.04663 0.59866 0.99179 0.0
H236 H 0.74147 0.26671 0.95893 0.0
H237 H 0.01665 0.71499 0.9633 0.0
Zn238 Zn 0.26338 0.83238 0.73359 0.0
C239 C 0.12362 0.72261 1.02488 0.0
N240 N 0.15543 0.7513 0.86732 0.0
C241 C 0.12548 0.72329 0.70779 0.0
N242 N 0.17216 0.76464 0.79753 0.0
N243 N 0.16986 0.76427 0.94172 0.0
C244 C 0.30711 0.75564 0.99802 0.0
O245 O 0.25726 0.70034 0.99509 0.0
O246 O 0.25946 0.88477 0.57625 0.0
Zn247 Zn 0.24461 0.83985 1.03117 0.0
N248 N 0.3028 0.78655 0.68231 0.0
C249 C 0.38389 0.76453 0.71232 0.0
C250 C 0.3627 0.80567 0.71954 0.0
C251 C 0.26561 0.72839 0.63443 0.0
N252 N 0.34806 0.7089 0.64647 0.0
C253 C 0.2925 0.69424 0.58174 0.0
O254 O 0.34377 0.90212 1.06897 0.0
C255 C 0.37774 0.92436 0.95008 0.0
O256 O 0.34873 0.90759 0.82322 0.0
H257 H 0.3924 0.84885 0.77459 0.0
H258 H 0.22053 0.71741 0.60484 0.0
C259 C 0.16369 0.8865 0.96433 0.0
C260 C 0.15117 0.93421 1.00429 0.0
C261 C 0.24422 0.00475 0.88658 0.0
C262 C 0.26661 -0.03637 0.91325 0.0
N263 N 0.22495 0.90304 0.94679 0.0
N264 N 0.18448 -0.01257 0.92355 0.0
H265 H 0.13093 0.83985 1.00057 0.0
C266 C 0.22927 0.91253 0.60298 0.0
O267 O 0.17079 0.88098 0.64607 0.0
O268 O 0.30191 0.80376 1.00351 0.0
H269 H 0.31574 -0.01923 0.90678 0.0
H270 H 0.42805 0.77772 0.76071 0.0
H271 H 0.27434 0.05035 0.84466 0.0
Zn272 Zn 0.34666 0.27149 1.03323 0.0
C273 C 0.34036 0.15081 0.70986 0.0
N274 N 0.34398 0.18077 0.87038 0.0
C275 C 0.34286 0.14934 1.02634 0.0
N276 N 0.34644 0.19551 0.94464 0.0
N277 N 0.34623 0.19702 0.801 0.0
C278 C 0.24501 0.23627 0.62731 0.0
O279 O 0.20597 0.17613 0.62586 0.0
O280 O 0.43929 0.33285 1.01652 0.0
Zn281 Zn 0.365 0.28384 0.72981 0.0
N282 N 0.26306 0.25545 0.96373 0.0
C283 C 0.18424 0.28102 0.91294 0.0
C284 C 0.24686 0.29977 0.94102 0.0
C285 C 0.21619 0.19493 0.97277 0.0
N286 N 0.13942 0.22148 0.94211 0.0
C287 C 0.15684 0.18486 1.01665 0.0
O288 O 0.37168 0.37088 0.78133 0.0
C289 C 0.39546 0.40314 0.90138 0.0
O290 O 0.39208 0.37212 1.02056 0.0
H291 H 0.28015 0.34838 0.94277 0.0
H292 H 0.22833 0.16005 1.00046 0.0
C293 C 0.47335 0.28582 0.64315 0.0
C294 C 0.53372 0.31258 0.58688 0.0
C295 C 0.55399 0.40571 0.70416 0.0
C296 C 0.49109 0.38512 0.69906 0.0
N297 N 0.45087 0.32328 0.67911 0.0
N298 N 0.57423 0.36735 0.65609 0.0
H299 H 0.44094 0.23986 0.61757 0.0
C300 C 0.4922 0.33752 1.00416 0.0
O301 O 0.49679 0.28732 0.99588 0.0
O302 O 0.30055 0.25648 0.58011 0.0
H303 H 0.47658 0.41815 0.71696 0.0
H304 H 0.17216 0.3133 0.86977 0.0
H305 H 0.58515 0.45066 0.74811 0.0
Zn306 Zn 0.02911 0.40522 0.76508 0.0
C307 C 0.13058 0.36946 1.03285 0.0
N308 N 0.10394 0.37269 0.87285 0.0
C309 C 0.13313 0.37009 0.71514 0.0
N310 N 0.09196 0.37582 0.80203 0.0
N311 N 0.09013 0.37458 0.94484 0.0
C312 C 0.09722 0.49361 1.15732 0.0
O313 O 0.14349 0.49131 1.09247 0.0
O314 O -0.01432 0.34346 0.61113 0.0
Zn315 Zn 0.01211 0.37827 1.01257 0.0
N316 N 0.07793 0.49468 0.81627 0.0
C317 C 0.10371 0.59882 0.85595 0.0
C318 C 0.06062 0.53663 0.85955 0.0
C319 C 0.138 0.51595 0.78565 0.0
N320 N 0.16005 0.6183 0.79018 0.0
C321 C 0.17211 0.57523 0.72622 0.0
O322 O -0.04517 0.42035 0.95058 0.0
C323 C -0.06757 0.42753 0.8261 0.0
O324 O -0.0491 0.41251 0.7089 0.0
H325 H 0.01609 0.52573 0.90147 0.0
H326 H 0.14993 0.48261 0.75408 0.0
C327 C -0.03398 0.24528 1.02532 0.0
C328 C -0.08191 0.18477 1.06308 0.0
C329 C 0.8486 0.20635 0.93503 0.0
C330 C 0.88914 0.26989 0.96458 0.0
N331 N -0.05104 0.28911 1.00659 0.0
N332 N 0.86503 0.1643 0.9799 0.0
H333 H 0.01359 0.26002 1.0561 0.0
C334 C -0.0487 0.28872 0.66253 0.0
O335 O -0.0235 0.25455 0.69302 0.0
O336 O 0.04484 0.44357 1.17737 0.0
H337 H 0.87469 0.3032 0.94109 0.0
H338 H 0.08815 0.62928 0.89054 0.0
H339 H 0.80543 0.19099 0.87684 0.0
Zn340 Zn 0.58311 0.04197 1.01391 0.0
C341 C 0.70577 0.16274 0.71009 0.0
N342 N 0.675 0.1341 0.86827 0.0
C343 C 0.7059 0.16211 1.027 0.0
N344 N 0.66035 0.1202 0.94218 0.0
N345 N 0.65878 0.12106 0.79824 0.0
C346 C 0.61418 -0.00273 0.52878 0.0
O347 O 0.67045 0.03125 0.58399 0.0
O348 O 0.52882 0.08243 1.01786 0.0
Zn349 Zn 0.5666 0.05534 0.73018 0.0
N350 N 0.59422 -0.02041 0.8845 0.0
C351 C 0.5652 0.87892 0.78946 0.0
C352 C 0.54874 0.92139 0.84191 0.0
C353 C 0.65453 -0.0081 0.87959 0.0
N354 N 0.62383 0.88949 0.81127 0.0
C355 C 0.66467 0.94093 0.89085 0.0
O356 O 0.47853 -0.01829 0.81993 0.0
C357 C 0.45008 -0.03587 0.94829 0.0
O358 O 0.48511 -0.01701 1.06621 0.0
H359 H 0.50014 0.90473 0.85148 0.0
H360 H 0.69106 0.03682 0.9176 0.0
C361 C 0.56585 0.16358 0.7226 0.0
C362 C 0.54293 0.20093 0.67722 0.0
C363 C 0.4447 0.1232 0.76033 0.0
C364 C 0.46414 0.08072 0.73554 0.0
N365 N 0.52637 0.10232 0.71589 0.0
N366 N 0.48669 0.18461 0.74252 0.0
H367 H 0.61308 0.17892 0.71414 0.0
C368 C 0.52689 0.1316 1.04409 0.0
O369 O 0.57833 0.18384 1.07174 0.0
O370 O 0.57407 0.01477 0.54103 0.0
H371 H 0.43024 0.03301 0.74948 0.0
H372 H 0.53185 0.83987 0.72785 0.0
H373 H 0.39926 0.1068 0.80644 0.0
Zn374 Zn 0.45318 0.59425 0.78331 0.0
C375 C 0.49234 0.73434 1.04725 0.0
N376 N 0.49049 0.70294 0.88984 0.0
C377 C 0.49268 0.7322 0.73001 0.0
N378 N 0.48853 0.6871 0.81944 0.0
N379 N 0.48662 0.68766 0.96272 0.0
C380 C 0.37153 0.57783 1.21509 0.0
O381 O 0.37343 0.62619 1.15759 0.0
O382 O 0.50246 0.59667 0.60586 0.0
Zn383 Zn 0.485 0.60974 1.04158 0.0
N384 N 0.36819 0.56444 0.86242 0.0
C385 C 0.26517 0.49214 0.93915 0.0
C386 C 0.32527 0.50553 0.9085 0.0
C387 C 0.34865 0.60653 0.85456 0.0
N388 N 0.248 0.53333 0.89425 0.0
C389 C 0.28819 0.58209 0.80651 0.0
O390 O 0.44144 0.51 1.01099 0.0
C391 C 0.4307 0.47534 0.8951 0.0
O392 O 0.44104 0.50369 0.77076 0.0
H393 H 0.33335 0.46794 0.91941 0.0
H394 H 0.37987 0.65301 0.82219 0.0
C395 C 0.6173 0.69879 1.01157 0.0
C396 C 0.67882 0.7123 1.03907 0.0
C397 C 0.65568 0.62287 0.89899 0.0
C398 C 0.59242 0.59833 0.93824 0.0
N399 N 0.57358 0.63747 0.99435 0.0
N400 N 0.69823 0.68131 0.9458 0.0
H401 H 0.60283 0.73045 1.05373 0.0
C402 C 0.55964 0.61979 0.63897 0.0
O403 O 0.59179 0.67764 0.68575 0.0
O404 O 0.42165 0.57503 1.21982 0.0
H405 H 0.55889 0.55032 0.91759 0.0
H406 H 0.23425 0.45042 0.99571 0.0
H407 H 0.671 0.59542 0.8385 0.0
loop_
_geom_bond_atom_site_label_1
_geom_bond_atom_site_label_2
_geom_bond_distance
_geom_bond_site_symmetry_2
_ccdc_geom_bond_type
Zn0 N4 2.020 . S
Zn0 O8 2.019 . S
Zn0 N10 2.119 . S
Zn0 O18 1.975 . S
C1 N2 1.334 . S
C1 N5 1.336 . S
N2 C1 1.334 . S
N2 C3 1.333 1_554 S
C3 N2 1.333 1_556 S
C3 N4 1.336 . S
N4 Zn0 2.020 . S
N4 C3 1.336 . S
N4 N5 1.354 1_556 S
N5 C1 1.336 . S
N5 N4 1.354 1_554 S
N5 Zn9 2.020 . S
C6 O7 1.244 . S
C6 O30 1.257 . S
O7 C6 1.244 . S
O8 Zn0 2.019 . S
O8 C28 1.257 . S
Zn9 N5 2.020 . S
Zn9 O16 1.975 . S
Zn9 N25 2.119 . S
Zn9 O30 2.019 . S
N10 Zn0 2.119 . S
N10 C12 1.334 . S
N10 C13 1.328 . S
C11 C12 1.391 1_565 S
C11 N14 1.329 . S
C11 H32 0.930 . S
C12 N10 1.334 . S
C12 C11 1.391 1_545 S
C12 H19 0.930 . S
C13 N10 1.328 . S
C13 C15 1.392 1_545 S
C13 H20 0.930 . S
N14 C11 1.329 . S
N14 C15 1.331 . S
C15 C13 1.392 1_565 S
C15 N14 1.331 . S
O16 Zn9 1.975 . S
O16 C17 1.252 . S
C17 O16 1.252 . S
C17 O18 1.252 1_554 S
O18 Zn0 1.975 . S
O18 C17 1.252 1_556 S
H19 C12 0.930 . S
H20 C13 0.930 . S
C21 C22 1.392 . S
C21 N25 1.328 . S
C21 H27 0.930 . S
C22 C21 1.392 . S
C22 N26 1.331 . S
C23 C24 1.391 . S
C23 N26 1.329 . S
C23 H33 0.930 . S
C24 C23 1.391 . S
C24 N25 1.334 . S
C24 H31 0.930 . S
N25 Zn9 2.119 . S
N25 C21 1.328 . S
N25 C24 1.334 . S
N26 C22 1.331 . S
N26 C23 1.329 . S
H27 C21 0.930 . S
C28 O8 1.257 . S
C28 O29 1.244 . S
O29 C28 1.244 . S
O30 C6 1.257 . S
O30 Zn9 2.019 . S
H31 C24 0.930 . S
H32 C11 0.930 . S
H33 C23 0.930 . S
Zn34 N38 2.020 . S
Zn34 O42 2.019 . S
Zn34 N44 2.119 . S
Zn34 O52 1.975 . S
C35 N36 1.334 . S
C35 N39 1.336 . S
N36 C35 1.334 . S
N36 C37 1.333 1_554 S
C37 N36 1.333 1_556 S
C37 N38 1.336 . S
N38 Zn34 2.020 . S
N38 C37 1.336 . S
N38 N39 1.354 1_556 S
N39 C35 1.336 . S
N39 N38 1.354 1_554 S
N39 Zn43 2.020 . S
C40 O41 1.244 . S
C40 O64 1.257 . S
O41 C40 1.244 . S
O42 Zn34 2.019 . S
O42 C62 1.257 . S
Zn43 N39 2.020 . S
Zn43 O50 1.975 . S
Zn43 N59 2.119 . S
Zn43 O64 2.019 . S
N44 Zn34 2.119 . S
N44 C46 1.334 . S
N44 C47 1.328 . S
C45 C46 1.391 . S
C45 N48 1.329 . S
C45 H66 0.930 . S
C46 N44 1.334 . S
C46 C45 1.391 . S
C46 H53 0.930 . S
C47 N44 1.328 . S
C47 C49 1.392 . S
C47 H54 0.930 . S
N48 C45 1.329 . S
N48 C49 1.331 . S
C49 C47 1.392 . S
C49 N48 1.331 . S
O50 Zn43 1.975 . S
O50 C51 1.252 . S
C51 O50 1.252 . S
C51 O52 1.252 1_554 S
O52 Zn34 1.975 . S
O52 C51 1.252 1_556 S
H53 C46 0.930 . S
H54 C47 0.930 . S
C55 C56 1.392 . S
C55 N59 1.328 . S
C55 H61 0.930 . S
C56 C55 1.392 . S
C56 N60 1.331 . S
C57 C58 1.391 . S
C57 N60 1.329 . S
C57 H67 0.930 . S
C58 C57 1.391 . S
C58 N59 1.334 . S
C58 H65 0.930 . S
N59 Zn43 2.119 . S
N59 C55 1.328 . S
N59 C58 1.334 . S
N60 C56 1.331 . S
N60 C57 1.329 . S
H61 C55 0.930 . S
C62 O42 1.257 . S
C62 O63 1.244 . S
O63 C62 1.244 . S
O64 C40 1.257 . S
O64 Zn43 2.019 . S
H65 C58 0.930 . S
H66 C45 0.930 . S
H67 C57 0.930 . S
Zn68 N72 2.020 . S
Zn68 O76 2.019 . S
Zn68 N78 2.119 . S
Zn68 O86 1.975 . S
C69 N70 1.334 . S
C69 N73 1.336 . S
N70 C69 1.334 . S
N70 C71 1.333 1_554 S
C71 N70 1.333 1_556 S
C71 N72 1.336 . S
N72 Zn68 2.020 . S
N72 C71 1.336 . S
N72 N73 1.354 1_556 S
N73 C69 1.336 . S
N73 N72 1.354 1_554 S
N73 Zn77 2.020 . S
C74 O75 1.244 . S
C74 O98 1.257 . S
O75 C74 1.244 . S
O76 Zn68 2.019 . S
O76 C96 1.257 . S
Zn77 N73 2.020 . S
Zn77 O84 1.975 . S
Zn77 N93 2.119 . S
Zn77 O98 2.019 . S
N78 Zn68 2.119 . S
N78 C80 1.334 . S
N78 C81 1.328 . S
C79 C80 1.391 1_455 S
C79 N82 1.329 . S
C79 H100 0.930 . S
C80 N78 1.334 . S
C80 C79 1.391 1_655 S
C80 H87 0.930 . S
C81 N78 1.328 . S
C81 C83 1.392 1_655 S
C81 H88 0.930 . S
N82 C79 1.329 . S
N82 C83 1.331 . S
C83 C81 1.392 1_455 S
C83 N82 1.331 . S
O84 Zn77 1.975 . S
O84 C85 1.252 . S
C85 O84 1.252 . S
C85 O86 1.252 1_554 S
O86 Zn68 1.975 . S
O86 C85 1.252 1_556 S
H87 C80 0.930 . S
H88 C81 0.930 . S
C89 C90 1.392 . S
C89 N93 1.328 . S
C89 H95 0.930 . S
C90 C89 1.392 . S
C90 N94 1.331 . S
C91 C92 1.391 . S
C91 N94 1.329 . S
C91 H101 0.930 . S
C92 C91 1.391 . S
C92 N93 1.334 . S
C92 H99 0.930 . S
N93 Zn77 2.119 . S
N93 C89 1.328 . S
N93 C92 1.334 . S
N94 C90 1.331 . S
N94 C91 1.329 . S
H95 C89 0.930 . S
C96 O76 1.257 . S
C96 O97 1.244 . S
O97 C96 1.244 . S
O98 C74 1.257 . S
O98 Zn77 2.019 . S
H99 C92 0.930 . S
H100 C79 0.930 . S
H101 C91 0.930 . S
Zn102 N106 2.020 . S
Zn102 O110 2.019 . S
Zn102 N112 2.119 . S
Zn102 O120 1.975 . S
C103 N104 1.333 1_556 S
C103 N107 1.336 . S
N104 C103 1.333 1_554 S
N104 C105 1.334 . S
C105 N104 1.334 . S
C105 N106 1.336 . S
N106 Zn102 2.020 . S
N106 C105 1.336 . S
N106 N107 1.354 1_554 S
N107 C103 1.336 . S
N107 N106 1.354 1_556 S
N107 Zn111 2.020 . S
C108 O109 1.244 . S
C108 O132 1.257 . S
O109 C108 1.244 . S
O110 Zn102 2.019 . S
O110 C130 1.257 . S
Zn111 N107 2.020 . S
Zn111 O118 1.975 . S
Zn111 N127 2.119 . S
Zn111 O132 2.019 . S
N112 Zn102 2.119 . S
N112 C114 1.334 . S
N112 C115 1.328 . S
C113 C114 1.391 . S
C113 N116 1.329 . S
C113 H134 0.930 . S
C114 N112 1.334 . S
C114 C113 1.391 . S
C114 H121 0.930 . S
C115 N112 1.328 . S
C115 C117 1.392 . S
C115 H122 0.930 . S
N116 C113 1.329 . S
N116 C117 1.331 . S
C117 C115 1.392 . S
C117 N116 1.331 . S
O118 Zn111 1.975 . S
O118 C119 1.252 1_556 S
C119 O118 1.252 1_554 S
C119 O120 1.252 . S
O120 Zn102 1.975 . S
O120 C119 1.252 . S
H121 C114 0.930 . S
H122 C115 0.930 . S
C123 C124 1.392 1_565 S
C123 N127 1.328 . S
C123 H129 0.930 . S
C124 C123 1.392 1_545 S
C124 N128 1.331 . S
C125 C126 1.391 1_545 S
C125 N128 1.329 . S
C125 H135 0.930 . S
C126 C125 1.391 1_565 S
C126 N127 1.334 . S
C126 H133 0.930 . S
N127 Zn111 2.119 . S
N127 C123 1.328 . S
N127 C126 1.334 . S
N128 C124 1.331 . S
N128 C125 1.329 . S
H129 C123 0.930 . S
C130 O110 1.257 . S
C130 O131 1.244 . S
O131 C130 1.244 . S
O132 C108 1.257 . S
O132 Zn111 2.019 . S
H133 C126 0.930 . S
H134 C113 0.930 . S
H135 C125 0.930 . S
Zn136 N140 2.020 . S
Zn136 O144 2.019 . S
Zn136 N146 2.119 . S
Zn136 O154 1.975 . S
C137 N138 1.334 . S
C137 N141 1.336 . S
N138 C137 1.334 . S
N138 C139 1.333 1_554 S
C139 N138 1.333 1_556 S
C139 N140 1.336 . S
N140 Zn136 2.020 . S
N140 C139 1.336 . S
N140 N141 1.354 1_556 S
N141 C137 1.336 . S
N141 N140 1.354 1_554 S
N141 Zn145 2.020 . S
C142 O143 1.244 . S
C142 O166 1.257 . S
O143 C142 1.244 . S
O144 Zn136 2.019 . S
O144 C164 1.257 . S
Zn145 N141 2.020 . S
Zn145 O152 1.975 . S
Zn145 N161 2.119 . S
Zn145 O166 2.019 . S
N146 Zn136 2.119 . S
N146 C148 1.334 . S
N146 C149 1.328 . S
C147 C148 1.391 . S
C147 N150 1.329 . S
C147 H168 0.930 . S
C148 N146 1.334 . S
C148 C147 1.391 . S
C148 H155 0.930 . S
C149 N146 1.328 . S
C149 C151 1.392 . S
C149 H156 0.930 . S
N150 C147 1.329 . S
N150 C151 1.331 . S
C151 C149 1.392 . S
C151 N150 1.331 . S
O152 Zn145 1.975 . S
O152 C153 1.252 . S
C153 O152 1.252 . S
C153 O154 1.252 1_554 S
O154 Zn136 1.975 . S
O154 C153 1.252 1_556 S
H155 C148 0.930 . S
H156 C149 0.930 . S
C157 C158 1.392 . S
C157 N161 1.328 . S
C157 H163 0.930 . S
C158 C157 1.392 . S
C158 N162 1.331 . S
C159 C160 1.391 . S
C159 N162 1.329 . S
C159 H169 0.930 . S
C160 C159 1.391 . S
C160 N161 1.334 . S
C160 H167 0.930 . S
N161 Zn145 2.119 . S
N161 C157 1.328 . S
N161 C160 1.334 . S
N162 C158 1.331 . S
N162 C159 1.329 . S
H163 C157 0.930 . S
C164 O144 1.257 . S
C164 O165 1.244 . S
O165 C164 1.244 . S
O166 C142 1.257 . S
O166 Zn145 2.019 . S
H167 C160 0.930 . S
H168 C147 0.930 . S
H169 C159 0.930 . S
Zn170 N174 2.020 . S
Zn170 O178 2.019 . S
Zn170 N180 2.119 . S
Zn170 O188 1.975 . S
C171 N172 1.333 1_556 S
C171 N175 1.336 . S
N172 C171 1.333 1_554 S
N172 C173 1.334 . S
C173 N172 1.334 . S
C173 N174 1.336 . S
N174 Zn170 2.020 . S
N174 C173 1.336 . S
N174 N175 1.354 1_554 S
N175 C171 1.336 . S
N175 N174 1.354 1_556 S
N175 Zn179 2.020 . S
C176 O177 1.244 . S
C176 O200 1.257 . S
O177 C176 1.244 . S
O178 Zn170 2.019 . S
O178 C198 1.257 . S
Zn179 N175 2.020 . S
Zn179 O186 1.975 . S
Zn179 N195 2.119 . S
Zn179 O200 2.019 . S
N180 Zn170 2.119 . S
N180 C182 1.334 . S
N180 C183 1.328 . S
C181 C182 1.391 . S
C181 N184 1.329 . S
C181 H202 0.930 . S
C182 N180 1.334 . S
C182 C181 1.391 . S
C182 H189 0.930 . S
C183 N180 1.328 . S
C183 C185 1.392 . S
C183 H190 0.930 . S
N184 C181 1.329 . S
N184 C185 1.331 . S
C185 C183 1.392 . S
C185 N184 1.331 . S
O186 Zn179 1.975 . S
O186 C187 1.252 1_556 S
C187 O186 1.252 1_554 S
C187 O188 1.252 . S
O188 Zn170 1.975 . S
O188 C187 1.252 . S
H189 C182 0.930 . S
H190 C183 0.930 . S
C191 C192 1.392 1_455 S
C191 N195 1.328 . S
C191 H197 0.930 . S
C192 C191 1.392 1_655 S
C192 N196 1.331 . S
C193 C194 1.391 1_655 S
C193 N196 1.329 . S
C193 H203 0.930 . S
C194 C193 1.391 1_455 S
C194 N195 1.334 . S
C194 H201 0.930 . S
N195 Zn179 2.119 . S
N195 C191 1.328 . S
N195 C194 1.334 . S
N196 C192 1.331 . S
N196 C193 1.329 . S
H197 C191 0.930 . S
C198 O178 1.257 . S
C198 O199 1.244 . S
O199 C198 1.244 . S
O200 C176 1.257 . S
O200 Zn179 2.019 . S
H201 C194 0.930 . S
H202 C181 0.930 . S
H203 C193 0.930 . S
Zn204 N208 2.020 . S
Zn204 O212 2.019 . S
Zn204 N214 2.119 . S
Zn204 O222 1.975 . S
C205 N206 1.334 . S
C205 N209 1.336 . S
N206 C205 1.334 . S
N206 C207 1.334 . S
C207 N206 1.334 . S
C207 N208 1.336 . S
N208 Zn204 2.020 . S
N208 C207 1.336 . S
N208 N209 1.354 . S
N209 C205 1.336 . S
N209 N208 1.354 . S
N209 Zn213 2.020 . S
C210 O211 1.244 . S
C210 O234 1.257 . S
O211 C210 1.244 . S
O212 Zn204 2.019 . S
O212 C232 1.257 . S
Zn213 N209 2.020 . S
Zn213 O220 1.975 . S
Zn213 N229 2.119 . S
Zn213 O234 2.019 . S
N214 Zn204 2.119 . S
N214 C216 1.334 . S
N214 C217 1.328 . S
C215 C216 1.391 . S
C215 N218 1.329 . S
C215 H236 0.930 . S
C216 N214 1.334 . S
C216 C215 1.391 . S
C216 H223 0.930 . S
C217 N214 1.328 . S
C217 C219 1.392 . S
C217 H224 0.930 . S
N218 C215 1.329 . S
N218 C219 1.331 . S
C219 C217 1.392 . S
C219 N218 1.331 . S
O220 Zn213 1.975 . S
O220 C221 1.252 . S
C221 O220 1.252 . S
C221 O222 1.252 . S
O222 Zn204 1.975 . S
O222 C221 1.252 . S
H223 C216 0.930 . S
H224 C217 0.930 . S
C225 C226 1.392 1_655 S
C225 N229 1.328 . S
C225 H231 0.930 . S
C226 C225 1.392 1_455 S
C226 N230 1.331 . S
C227 C228 1.391 1_455 S
C227 N230 1.329 . S
C227 H237 0.930 . S
C228 C227 1.391 1_655 S
C228 N229 1.334 . S
C228 H235 0.930 . S
N229 Zn213 2.119 . S
N229 C225 1.328 . S
N229 C228 1.334 . S
N230 C226 1.331 . S
N230 C227 1.329 . S
H231 C225 0.930 . S
C232 O212 1.257 . S
C232 O233 1.244 . S
O233 C232 1.244 . S
O234 C210 1.257 . S
O234 Zn213 2.019 . S
H235 C228 0.930 . S
H236 C215 0.930 . S
H237 C227 0.930 . S
Zn238 N242 2.020 . S
Zn238 O246 2.019 . S
Zn238 N248 2.119 . S
Zn238 O256 1.975 . S
C239 N240 1.334 . S
C239 N243 1.336 . S
N240 C239 1.334 . S
N240 C241 1.334 . S
C241 N240 1.334 . S
C241 N242 1.336 . S
N242 Zn238 2.020 . S
N242 C241 1.336 . S
N242 N243 1.354 . S
N243 C239 1.336 . S
N243 N242 1.354 . S
N243 Zn247 2.020 . S
C244 O245 1.244 . S
C244 O268 1.257 . S
O245 C244 1.244 . S
O246 Zn238 2.019 . S
O246 C266 1.257 . S
Zn247 N243 2.020 . S
Zn247 O254 1.975 . S
Zn247 N263 2.119 . S
Zn247 O268 2.019 . S
N248 Zn238 2.119 . S
N248 C250 1.334 . S
N248 C251 1.328 . S
C249 C250 1.391 . S
C249 N252 1.329 . S
C249 H270 0.930 . S
C250 N248 1.334 . S
C250 C249 1.391 . S
C250 H257 0.930 . S
C251 N248 1.328 . S
C251 C253 1.392 . S
C251 H258 0.930 . S
N252 C249 1.329 . S
N252 C253 1.331 . S
C253 C251 1.392 . S
C253 N252 1.331 . S
O254 Zn247 1.975 . S
O254 C255 1.252 . S
C255 O254 1.252 . S
C255 O256 1.252 . S
O256 Zn238 1.975 . S
O256 C255 1.252 . S
H257 C250 0.930 . S
H258 C251 0.930 . S
C259 C260 1.392 1_565 S
C259 N263 1.328 . S
C259 H265 0.930 . S
C260 C259 1.392 1_545 S
C260 N264 1.331 . S
C261 C262 1.391 1_545 S
C261 N264 1.329 . S
C261 H271 0.930 . S
C262 C261 1.391 1_565 S
C262 N263 1.334 . S
C262 H269 0.930 . S
N263 Zn247 2.119 . S
N263 C259 1.328 . S
N263 C262 1.334 . S
N264 C260 1.331 . S
N264 C261 1.329 . S
H265 C259 0.930 . S
C266 O246 1.257 . S
C266 O267 1.244 . S
O267 C266 1.244 . S
O268 C244 1.257 . S
O268 Zn247 2.019 . S
H269 C262 0.930 . S
H270 C249 0.930 . S
H271 C261 0.930 . S
Zn272 N276 2.020 . S
Zn272 O280 2.019 . S
Zn272 N282 2.119 . S
Zn272 O290 1.975 . S
C273 N274 1.334 . S
C273 N277 1.336 . S
N274 C273 1.334 . S
N274 C275 1.334 . S
C275 N274 1.334 . S
C275 N276 1.336 . S
N276 Zn272 2.020 . S
N276 C275 1.336 . S
N276 N277 1.354 . S
N277 C273 1.336 . S
N277 N276 1.354 . S
N277 Zn281 2.020 . S
C278 O279 1.244 . S
C278 O302 1.257 . S
O279 C278 1.244 . S
O280 Zn272 2.019 . S
O280 C300 1.257 . S
Zn281 N277 2.020 . S
Zn281 O288 1.975 . S
Zn281 N297 2.119 . S
Zn281 O302 2.019 . S
N282 Zn272 2.119 . S
N282 C284 1.334 . S
N282 C285 1.328 . S
C283 C284 1.391 . S
C283 N286 1.329 . S
C283 H304 0.930 . S
C284 N282 1.334 . S
C284 C283 1.391 . S
C284 H291 0.930 . S
C285 N282 1.328 . S
C285 C287 1.392 . S
C285 H292 0.930 . S
N286 C283 1.329 . S
N286 C287 1.331 . S
C287 C285 1.392 . S
C287 N286 1.331 . S
O288 Zn281 1.975 . S
O288 C289 1.252 . S
C289 O288 1.252 . S
C289 O290 1.252 . S
O290 Zn272 1.975 . S
O290 C289 1.252 . S
H291 C284 0.930 . S
H292 C285 0.930 . S
C293 C294 1.392 . S
C293 N297 1.328 . S
C293 H299 0.930 . S
C294 C293 1.392 . S
C294 N298 1.331 . S
C295 C296 1.391 . S
C295 N298 1.329 . S
C295 H305 0.930 . S
C296 C295 1.391 . S
C296 N297 1.334 . S
C296 H303 0.930 . S
N297 Zn281 2.119 . S
N297 C293 1.328 . S
N297 C296 1.334 . S
N298 C294 1.331 . S
N298 C295 1.329 . S
H299 C293 0.930 . S
C300 O280 1.257 . S
C300 O301 1.244 . S
O301 C300 1.244 . S
O302 C278 1.257 . S
O302 Zn281 2.019 . S
H303 C296 0.930 . S
H304 C283 0.930 . S
H305 C295 0.930 . S
Zn306 N310 2.020 . S
Zn306 O314 2.019 . S
Zn306 N316 2.119 . S
Zn306 O324 1.975 . S
C307 N308 1.334 . S
C307 N311 1.336 . S
N308 C307 1.334 . S
N308 C309 1.334 . S
C309 N308 1.334 . S
C309 N310 1.336 . S
N310 Zn306 2.020 . S
N310 C309 1.336 . S
N310 N311 1.354 . S
N311 C307 1.336 . S
N311 N310 1.354 . S
N311 Zn315 2.020 . S
C312 O313 1.244 . S
C312 O336 1.257 . S
O313 C312 1.244 . S
O314 Zn306 2.019 . S
O314 C334 1.257 . S
Zn315 N311 2.020 . S
Zn315 O322 1.975 . S
Zn315 N331 2.119 . S
Zn315 O336 2.019 . S
N316 Zn306 2.119 . S
N316 C318 1.334 . S
N316 C319 1.328 . S
C317 C318 1.391 . S
C317 N320 1.329 . S
C317 H338 0.930 . S
C318 N316 1.334 . S
C318 C317 1.391 . S
C318 H325 0.930 . S
C319 N316 1.328 . S
C319 C321 1.392 . S
C319 H326 0.930 . S
N320 C317 1.329 . S
N320 C321 1.331 . S
C321 C319 1.392 . S
C321 N320 1.331 . S
O322 Zn315 1.975 . S
O322 C323 1.252 . S
C323 O322 1.252 . S
C323 O324 1.252 . S
O324 Zn306 1.975 . S
O324 C323 1.252 . S
H325 C318 0.930 . S
H326 C319 0.930 . S
C327 C328 1.392 1_455 S
C327 N331 1.328 . S
C327 H333 0.930 . S
C328 C327 1.392 1_655 S
C328 N332 1.331 . S
C329 C330 1.391 1_655 S
C329 N332 1.329 . S
C329 H339 0.930 . S
C330 C329 1.391 1_455 S
C330 N331 1.334 . S
C330 H337 0.930 . S
N331 Zn315 2.119 . S
N331 C327 1.328 . S
N331 C330 1.334 . S
N332 C328 1.331 . S
N332 C329 1.329 . S
H333 C327 0.930 . S
C334 O314 1.257 . S
C334 O335 1.244 . S
O335 C334 1.244 . S
O336 C312 1.257 . S
O336 Zn315 2.019 . S
H337 C330 0.930 . S
H338 C317 0.930 . S
H339 C329 0.930 . S
Zn340 N344 2.020 . S
Zn340 O348 2.019 . S
Zn340 N350 2.119 . S
Zn340 O358 1.975 . S
C341 N342 1.334 . S
C341 N345 1.336 . S
N342 C341 1.334 . S
N342 C343 1.334 . S
C343 N342 1.334 . S
C343 N344 1.336 . S
N344 Zn340 2.020 . S
N344 C343 1.336 . S
N344 N345 1.354 . S
N345 C341 1.336 . S
N345 N344 1.354 . S
N345 Zn349 2.020 . S
C346 O347 1.244 . S
C346 O370 1.257 . S
O347 C346 1.244 . S
O348 Zn340 2.019 . S
O348 C368 1.257 . S
Zn349 N345 2.020 . S
Zn349 O356 1.975 . S
Zn349 N365 2.119 . S
Zn349 O370 2.019 . S
N350 Zn340 2.119 . S
N350 C352 1.334 . S
N350 C353 1.328 . S
C351 C352 1.391 1_565 S
C351 N354 1.329 . S
C351 H372 0.930 . S
C352 N350 1.334 . S
C352 C351 1.391 1_545 S
C352 H359 0.930 . S
C353 N350 1.328 . S
C353 C355 1.392 1_545 S
C353 H360 0.930 . S
N354 C351 1.329 . S
N354 C355 1.331 . S
C355 C353 1.392 1_565 S
C355 N354 1.331 . S
O356 Zn349 1.975 . S
O356 C357 1.252 . S
C357 O356 1.252 . S
C357 O358 1.252 . S
O358 Zn340 1.975 . S
O358 C357 1.252 . S
H359 C352 0.930 . S
H360 C353 0.930 . S
C361 C362 1.392 . S
C361 N365 1.328 . S
C361 H367 0.930 . S
C362 C361 1.392 . S
C362 N366 1.331 . S
C363 C364 1.391 . S
C363 N366 1.329 . S
C363 H373 0.930 . S
C364 C363 1.391 . S
C364 N365 1.334 . S
C364 H371 0.930 . S
N365 Zn349 2.119 . S
N365 C361 1.328 . S
N365 C364 1.334 . S
N366 C362 1.331 . S
N366 C363 1.329 . S
H367 C361 0.930 . S
C368 O348 1.257 . S
C368 O369 1.244 . S
O369 C368 1.244 . S
O370 C346 1.257 . S
O370 Zn349 2.019 . S
H371 C364 0.930 . S
H372 C351 0.930 . S
H373 C363 0.930 . S
Zn374 N378 2.020 . S
Zn374 O382 2.019 . S
Zn374 N384 2.119 . S
Zn374 O392 1.975 . S
C375 N376 1.334 . S
C375 N379 1.336 . S
N376 C375 1.334 . S
N376 C377 1.334 . S
C377 N376 1.334 . S
C377 N378 1.336 . S
N378 Zn374 2.020 . S
N378 C377 1.336 . S
N378 N379 1.354 . S
N379 C375 1.336 . S
N379 N378 1.354 . S
N379 Zn383 2.020 . S
C380 O381 1.244 . S
C380 O404 1.257 . S
O381 C380 1.244 . S
O382 Zn374 2.019 . S
O382 C402 1.257 . S
Zn383 N379 2.020 . S
Zn383 O390 1.975 . S
Zn383 N399 2.119 . S
Zn383 O404 2.019 . S
N384 Zn374 2.119 . S
N384 C386 1.334 . S
N384 C387 1.328 . S
C385 C386 1.391 . S
C385 N388 1.329 . S
C385 H406 0.930 . S
C386 N384 1.334 . S
C386 C385 1.391 . S
C386 H393 0.930 . S
C387 N384 1.328 . S
C387 C389 1.392 . S
C387 H394 0.930 . S
N388 C385 1.329 . S
N388 C389 1.331 . S
C389 C387 1.392 . S
C389 N388 1.331 . S
O390 Zn383 1.975 . S
O390 C391 1.252 . S
C391 O390 1.252 . S
C391 O392 1.252 . S
O392 Zn374 1.975 . S
O392 C391 1.252 . S
H393 C386 0.930 . S
H394 C387 0.930 . S
C395 C396 1.392 . S
C395 N399 1.328 . S
C395 H401 0.930 . S
C396 C395 1.392 . S
C396 N400 1.331 . S
C397 C398 1.391 . S
C397 N400 1.329 . S
C397 H407 0.930 . S
C398 C397 1.391 . S
C398 N399 1.334 . S
C398 H405 0.930 . S
N399 Zn383 2.119 . S
N399 C395 1.328 . S
N399 C398 1.334 . S
N400 C396 1.331 . S
N400 C397 1.329 . S
H401 C395 0.930 . S
C402 O382 1.257 . S
C402 O403 1.244 . S
O403 C402 1.244 . S
O404 C380 1.257 . S
O404 Zn383 2.019 . S
H405 C398 0.930 . S
H406 C385 0.930 . S
H407 C397 0.930 . S
C6 C266 1.743 1_545 S
C40 C278 1.743 . S
C334 C74 1.743 1_455 S
C130 C346 1.743 1_565 S
C142 C402 1.743 . S
C232 C198 1.743 1_655 S
C355 C124 1.063 1_565 S
C151 C396 1.063 . S
C192 C226 1.063 1_655 S
C15 C260 1.063 1_565 S
C287 C49 1.063 . S
C328 C83 1.063 1_655 S
C119 C17 2.818 1_565 S
C51 C153 2.818 . S
C187 C85 2.818 1_455 S
C221 C323 2.818 1_655 S
C255 C357 2.818 1_565 S
C391 C289 2.818 . S
C22 C362 1.171 . S
C56 C389 1.171 . S
C90 C219 1.171 . S
C253 C117 1.171 . S
C294 C158 1.171 . S
C185 C321 1.171 . S
C244 C108 1.610 . S
C300 C164 1.610 . S
C312 C176 1.610 . S
C368 C28 1.610 . S
C380 C62 1.610 . S
C96 C210 1.610 . S
C1 C273 5.699 . S
C309 C35 5.699 . S
C341 C69 5.699 . S
C105 C377 5.699 . S
C207 C137 5.699 . S
C173 C241 5.699 . S
C375 C103 5.735 . S
C205 C139 5.735 . S
C239 C171 5.735 . S
C275 C3 5.735 . S
C307 C37 5.735 . S
C343 C71 5.735 . S
