# Generated by pormake.
# Topology uka, (4)-cn, num edge types: 1
# Building blocks:
#     Node 0, Type 0, BuildingBlock: TATPOV_clean_sbu_0, # of connection points: 4
#     Node 1, Type 0, BuildingBlock: TATPOV_clean_sbu_0, # of connection points: 4
#     Node 2, Type 0, BuildingBlock: TATPOV_clean_sbu_0, # of connection points: 4
#     Node 3, Type 0, BuildingBlock: TATPOV_clean_sbu_0, # of connection points: 4
#     Node 4, Type 0, BuildingBlock: TATPOV_clean_sbu_0, # of connection points: 4
#     Node 5, Type 0, BuildingBlock: TATPOV_clean_sbu_0, # of connection points: 4
#     Node 6, Type 0, BuildingBlock: TATPOV_clean_sbu_0, # of connection points: 4
#     Node 7, Type 0, BuildingBlock: TATPOV_clean_sbu_0, # of connection points: 4
#     Node 8, Type 0, BuildingBlock: TATPOV_clean_sbu_0, # of connection points: 4
#     Node 9, Type 0, BuildingBlock: TATPOV_clean_sbu_0, # of connection points: 4
#     Node 10, Type 0, BuildingBlock: TATPOV_clean_sbu_0, # of connection points: 4
#     Node 11, Type 0, BuildingBlock: TATPOV_clean_sbu_0, # of connection points: 4
#     Node 12, Type 0, BuildingBlock: TATPOV_clean_sbu_0, # of connection points: 4
#     Node 13, Type 0, BuildingBlock: TATPOV_clean_sbu_0, # of connection points: 4
#     Node 14, Type 0, BuildingBlock: TATPOV_clean_sbu_0, # of connection points: 4
#     Node 15, Type 0, BuildingBlock: TATPOV_clean_sbu_0, # of connection points: 4
#     Node 16, Type 0, BuildingBlock: TATPOV_clean_sbu_0, # of connection points: 4
#     Node 17, Type 0, BuildingBlock: TATPOV_clean_sbu_0, # of connection points: 4
#     Node 18, Type 0, BuildingBlock: TATPOV_clean_sbu_0, # of connection points: 4
#     Node 19, Type 0, BuildingBlock: TATPOV_clean_sbu_0, # of connection points: 4
#     Node 20, Type 0, BuildingBlock: TATPOV_clean_sbu_0, # of connection points: 4
#     Node 21, Type 0, BuildingBlock: TATPOV_clean_sbu_0, # of connection points: 4
#     Node 22, Type 0, BuildingBlock: TATPOV_clean_sbu_0, # of connection points: 4
#     Node 23, Type 0, BuildingBlock: TATPOV_clean_sbu_0, # of connection points: 4
#     Node 24, Type 0, BuildingBlock: TATPOV_clean_sbu_0, # of connection points: 4
#     Node 25, Type 0, BuildingBlock: TATPOV_clean_sbu_0, # of connection points: 4
#     Node 26, Type 0, BuildingBlock: TATPOV_clean_sbu_0, # of connection points: 4
#     Node 27, Type 0, BuildingBlock: TATPOV_clean_sbu_0, # of connection points: 4
#     Node 28, Type 0, BuildingBlock: TATPOV_clean_sbu_0, # of connection points: 4
#     Node 29, Type 0, BuildingBlock: TATPOV_clean_sbu_0, # of connection points: 4
#     Node 30, Type 0, BuildingBlock: TATPOV_clean_sbu_0, # of connection points: 4
#     Node 31, Type 0, BuildingBlock: TATPOV_clean_sbu_0, # of connection points: 4
#     Edge 32, Type (0, 0), BuildingBlock: ZUJKAS_clean_linker_0, # of connection points: 2
#     Edge 33, Type (0, 0), BuildingBlock: ZUJKAS_clean_linker_0, # of connection points: 2
#     Edge 34, Type (0, 0), BuildingBlock: ZUJKAS_clean_linker_0, # of connection points: 2
#     Edge 35, Type (0, 0), BuildingBlock: ZUJKAS_clean_linker_0, # of connection points: 2
#     Edge 36, Type (0, 0), BuildingBlock: ZUJKAS_clean_linker_0, # of connection points: 2
#     Edge 37, Type (0, 0), BuildingBlock: ZUJKAS_clean_linker_0, # of connection points: 2
#     Edge 38, Type (0, 0), BuildingBlock: ZUJKAS_clean_linker_0, # of connection points: 2
#     Edge 39, Type (0, 0), BuildingBlock: ZUJKAS_clean_linker_0, # of connection points: 2
#     Edge 40, Type (0, 0), BuildingBlock: ZUJKAS_clean_linker_0, # of connection points: 2
#     Edge 41, Type (0, 0), BuildingBlock: ZUJKAS_clean_linker_0, # of connection points: 2
#     Edge 42, Type (0, 0), BuildingBlock: ZUJKAS_clean_linker_0, # of connection points: 2
#     Edge 43, Type (0, 0), BuildingBlock: ZUJKAS_clean_linker_0, # of connection points: 2
#     Edge 44, Type (0, 0), BuildingBlock: ZUJKAS_clean_linker_0, # of connection points: 2
#     Edge 45, Type (0, 0), BuildingBlock: ZUJKAS_clean_linker_0, # of connection points: 2
#     Edge 46, Type (0, 0), BuildingBlock: ZUJKAS_clean_linker_0, # of connection points: 2
#     Edge 47, Type (0, 0), BuildingBlock: ZUJKAS_clean_linker_0, # of connection points: 2
#     Edge 48, Type (0, 0), BuildingBlock: ZUJKAS_clean_linker_0, # of connection points: 2
#     Edge 49, Type (0, 0), BuildingBlock: ZUJKAS_clean_linker_0, # of connection points: 2
#     Edge 50, Type (0, 0), BuildingBlock: ZUJKAS_clean_linker_0, # of connection points: 2
#     Edge 51, Type (0, 0), BuildingBlock: ZUJKAS_clean_linker_0, # of connection points: 2
#     Edge 52, Type (0, 0), BuildingBlock: ZUJKAS_clean_linker_0, # of connection points: 2
#     Edge 53, Type (0, 0), BuildingBlock: ZUJKAS_clean_linker_0, # of connection points: 2
#     Edge 54, Type (0, 0), BuildingBlock: ZUJKAS_clean_linker_0, # of connection points: 2
#     Edge 55, Type (0, 0), BuildingBlock: ZUJKAS_clean_linker_0, # of connection points: 2
#     Edge 56, Type (0, 0), BuildingBlock: ZUJKAS_clean_linker_0, # of connection points: 2
#     Edge 57, Type (0, 0), BuildingBlock: ZUJKAS_clean_linker_0, # of connection points: 2
#     Edge 58, Type (0, 0), BuildingBlock: ZUJKAS_clean_linker_0, # of connection points: 2
#     Edge 59, Type (0, 0), BuildingBlock: ZUJKAS_clean_linker_0, # of connection points: 2
#     Edge 60, Type (0, 0), BuildingBlock: ZUJKAS_clean_linker_0, # of connection points: 2
#     Edge 61, Type (0, 0), BuildingBlock: ZUJKAS_clean_linker_0, # of connection points: 2
#     Edge 62, Type (0, 0), BuildingBlock: ZUJKAS_clean_linker_0, # of connection points: 2
#     Edge 63, Type (0, 0), BuildingBlock: ZUJKAS_clean_linker_0, # of connection points: 2
#     Edge 64, Type (0, 0), BuildingBlock: ZUJKAS_clean_linker_0, # of connection points: 2
#     Edge 65, Type (0, 0), BuildingBlock: ZUJKAS_clean_linker_0, # of connection points: 2
#     Edge 66, Type (0, 0), BuildingBlock: ZUJKAS_clean_linker_0, # of connection points: 2
#     Edge 67, Type (0, 0), BuildingBlock: ZUJKAS_clean_linker_0, # of connection points: 2
#     Edge 68, Type (0, 0), BuildingBlock: ZUJKAS_clean_linker_0, # of connection points: 2
#     Edge 69, Type (0, 0), BuildingBlock: ZUJKAS_clean_linker_0, # of connection points: 2
#     Edge 70, Type (0, 0), BuildingBlock: ZUJKAS_clean_linker_0, # of connection points: 2
#     Edge 71, Type (0, 0), BuildingBlock: ZUJKAS_clean_linker_0, # of connection points: 2
#     Edge 72, Type (0, 0), BuildingBlock: ZUJKAS_clean_linker_0, # of connection points: 2
#     Edge 73, Type (0, 0), BuildingBlock: ZUJKAS_clean_linker_0, # of connection points: 2
#     Edge 74, Type (0, 0), BuildingBlock: ZUJKAS_clean_linker_0, # of connection points: 2
#     Edge 75, Type (0, 0), BuildingBlock: ZUJKAS_clean_linker_0, # of connection points: 2
#     Edge 76, Type (0, 0), BuildingBlock: ZUJKAS_clean_linker_0, # of connection points: 2
#     Edge 77, Type (0, 0), BuildingBlock: ZUJKAS_clean_linker_0, # of connection points: 2
#     Edge 78, Type (0, 0), BuildingBlock: ZUJKAS_clean_linker_0, # of connection points: 2
#     Edge 79, Type (0, 0), BuildingBlock: ZUJKAS_clean_linker_0, # of connection points: 2
#     Edge 80, Type (0, 0), BuildingBlock: ZUJKAS_clean_linker_0, # of connection points: 2
#     Edge 81, Type (0, 0), BuildingBlock: ZUJKAS_clean_linker_0, # of connection points: 2
#     Edge 82, Type (0, 0), BuildingBlock: ZUJKAS_clean_linker_0, # of connection points: 2
#     Edge 83, Type (0, 0), BuildingBlock: ZUJKAS_clean_linker_0, # of connection points: 2
#     Edge 84, Type (0, 0), BuildingBlock: ZUJKAS_clean_linker_0, # of connection points: 2
#     Edge 85, Type (0, 0), BuildingBlock: ZUJKAS_clean_linker_0, # of connection points: 2
#     Edge 86, Type (0, 0), BuildingBlock: ZUJKAS_clean_linker_0, # of connection points: 2
#     Edge 87, Type (0, 0), BuildingBlock: ZUJKAS_clean_linker_0, # of connection points: 2
#     Edge 88, Type (0, 0), BuildingBlock: ZUJKAS_clean_linker_0, # of connection points: 2
#     Edge 89, Type (0, 0), BuildingBlock: ZUJKAS_clean_linker_0, # of connection points: 2
#     Edge 90, Type (0, 0), BuildingBlock: ZUJKAS_clean_linker_0, # of connection points: 2
#     Edge 91, Type (0, 0), BuildingBlock: ZUJKAS_clean_linker_0, # of connection points: 2
#     Edge 92, Type (0, 0), BuildingBlock: ZUJKAS_clean_linker_0, # of connection points: 2
#     Edge 93, Type (0, 0), BuildingBlock: ZUJKAS_clean_linker_0, # of connection points: 2
#     Edge 94, Type (0, 0), BuildingBlock: ZUJKAS_clean_linker_0, # of connection points: 2
#     Edge 95, Type (0, 0), BuildingBlock: ZUJKAS_clean_linker_0, # of connection points: 2
# Relax obj value: 0.186
# Max RMSD: 0.208
# Mean RMSD: 0.208
data_MOF--net-uka--node1-TATPOV_clean_sbu_0--edge1-ZUJKAS_clean_linker_0
_symmetry_space_group_name_H-M    P1
_symmetry_Int_Tables_number       1
_symmetry_cell_setting            triclinic
loop_
_symmetry_equiv_pos_as_xyz
'x, y, z'
_cell_length_a     76.333242
_cell_length_b     76.383036
_cell_length_c     55.365327
_cell_angle_alpha  90.03935
_cell_angle_beta   89.982133
_cell_angle_gamma 90.011249
loop_
_atom_site_label
_atom_site_type_symbol
_atom_site_fract_x
_atom_site_fract_y
_atom_site_fract_z
_atom_type_partial_charge
Zn0 Zn 0.08868 0.28998 0.30823 0.0
Zn1 Zn 0.12087 0.28101 0.29605 0.0
O2 O 0.10918 0.25727 0.3047 0.0
O3 O 0.08172 0.26486 0.31068 0.0
O4 O 0.14489 0.27413 0.2849 0.0
O5 O 0.08495 0.30269 0.27699 0.0
O6 O 0.11112 0.29361 0.26603 0.0
C7 C 0.09334 0.2531 0.30928 0.0
C8 C 0.11506 0.30407 0.34 0.0
O9 O 0.12573 0.29731 0.32499 0.0
O10 O 0.0987 0.30222 0.33731 0.0
C11 C 0.15463 0.26381 0.29685 0.0
O12 O 0.14888 0.25732 0.31735 0.0
C13 C 0.09695 0.30174 0.26129 0.0
Zn14 Zn 0.00761 0.82704 0.5111 0.0
Zn15 Zn 0.0009 0.86104 0.50433 0.0
O16 O 0.02723 0.86007 0.51246 0.0
O17 O 0.0335 0.83196 0.51394 0.0
O18 O 0.9971 0.88642 0.49698 0.0
O19 O 0.99728 0.82093 0.47889 0.0
O20 O 0.99201 0.84896 0.47339 0.0
C21 C 0.03835 0.84778 0.51496 0.0
C22 C 0.98328 0.84261 0.54601 0.0
O23 O 0.98531 0.85646 0.53356 0.0
O24 O 0.99152 0.82876 0.54042 0.0
C25 C 0.00291 0.89812 0.51116 0.0
O26 O 0.01113 0.89337 0.53095 0.0
C27 C 0.99123 0.83318 0.46599 0.0
Zn28 Zn 0.40976 0.71498 0.76637 0.0
Zn29 Zn 0.37545 0.71826 0.75994 0.0
O30 O 0.38329 0.74333 0.76871 0.0
O31 O 0.41157 0.7405 0.77511 0.0
O32 O 0.3497 0.72135 0.75407 0.0
O33 O 0.41308 0.70724 0.73222 0.0
O34 O 0.38444 0.70783 0.7277 0.0
C35 C 0.39799 0.75 0.7746 0.0
C36 C 0.38924 0.69378 0.79898 0.0
O37 O 0.37635 0.70139 0.78883 0.0
O38 O 0.40476 0.69693 0.79211 0.0
C39 C 0.3401 0.72733 0.77091 0.0
O40 O 0.34728 0.73109 0.79186 0.0
C41 C 0.39966 0.70456 0.71934 0.0
Zn42 Zn 0.52122 0.15236 0.02445 0.0
Zn43 Zn 0.51675 0.11821 0.02334 0.0
O44 O 0.49169 0.12815 0.02731 0.0
O45 O 0.4956 0.15662 0.02939 0.0
O46 O 0.51173 0.09253 0.01999 0.0
O47 O 0.53084 0.15256 0.99116 0.0
O48 O 0.52961 0.12378 0.99122 0.0
C49 C 0.48544 0.14354 0.02955 0.0
C50 C 0.53998 0.13412 0.06214 0.0
O51 O 0.53223 0.12061 0.05383 0.0
O52 O 0.53769 0.14893 0.05238 0.0
C53 C 0.52349 0.0808 0.01888 0.0
O54 O 0.54003 0.08533 0.02091 0.0
C55 C 0.53381 0.13809 0.98087 0.0
Zn56 Zn 0.096 0.72606 0.1991 0.0
Zn57 Zn 0.12928 0.72383 0.21122 0.0
O58 O 0.12412 0.75048 0.21046 0.0
O59 O 0.09573 0.75199 0.20427 0.0
O60 O 0.15456 0.7236 0.22091 0.0
O61 O 0.08964 0.70985 0.22637 0.0
O62 O 0.11717 0.70976 0.23812 0.0
C63 C 0.11019 0.75954 0.20828 0.0
C64 C 0.11713 0.70986 0.16245 0.0
O65 O 0.12906 0.71102 0.17845 0.0
O66 O 0.10207 0.71621 0.16636 0.0
C67 C 0.16531 0.73278 0.20881 0.0
O68 O 0.15959 0.74152 0.18996 0.0
C69 C 0.10133 0.70495 0.24111 0.0
Zn70 Zn 0.49834 0.84447 0.4969 0.0
Zn71 Zn 0.50221 0.87885 0.49126 0.0
O72 O 0.47544 0.87463 0.49126 0.0
O73 O 0.47218 0.84664 0.49954 0.0
O74 O 0.50395 0.90497 0.49079 0.0
O75 O 0.51293 0.8445 0.52692 0.0
O76 O 0.51739 0.87262 0.5208 0.0
C77 C 0.46557 0.86151 0.49537 0.0
C78 C 0.51594 0.85543 0.452 0.0
O79 O 0.51376 0.87088 0.46009 0.0
O80 O 0.51041 0.84238 0.46397 0.0
C81 C 0.49572 0.91429 0.47558 0.0
O82 O 0.48606 0.90661 0.45904 0.0
C83 C 0.52024 0.85872 0.53285 0.0
Zn84 Zn 0.41209 0.24862 0.75618 0.0
Zn85 Zn 0.37767 0.25041 0.75274 0.0
O86 O 0.3838 0.22478 0.74421 0.0
O87 O 0.41216 0.22267 0.75056 0.0
O88 O 0.35145 0.25038 0.75313 0.0
O89 O 0.41221 0.25814 0.78962 0.0
O90 O 0.38364 0.26085 0.78625 0.0
C91 C 0.39779 0.21567 0.74453 0.0
C92 C 0.39913 0.27137 0.71758 0.0
O93 O 0.38405 0.26677 0.72505 0.0
O94 O 0.41281 0.26551 0.72776 0.0
C95 C 0.34264 0.244 0.73578 0.0
O96 O 0.35092 0.23748 0.717 0.0
C97 C 0.3977 0.26301 0.79832 0.0
Zn98 Zn 0.97708 0.16033 0.98555 0.0
Zn99 Zn 0.97934 0.12617 0.97715 0.0
O100 O 0.00286 0.13627 0.96518 0.0
O101 O 0.00142 0.16448 0.97298 0.0
O102 O 0.98331 0.10031 0.97441 0.0
O103 O 0.9733 0.15685 0.02088 0.0
O104 O 0.97201 0.12863 0.013 0.0
C105 C 0.00972 0.15148 0.96465 0.0
C106 C 0.95166 0.14636 0.95062 0.0
O107 O 0.95961 0.13188 0.95366 0.0
O108 O 0.95628 0.15985 0.96241 0.0
C109 C 0.97164 0.08945 0.98097 0.0
O110 O 0.95636 0.09534 0.98827 0.0
C111 C 0.97068 0.14131 0.02783 0.0
Zn112 Zn 0.91452 0.72913 0.72311 0.0
Zn113 Zn 0.88043 0.73345 0.72998 0.0
O114 O 0.88915 0.75867 0.72378 0.0
O115 O 0.91742 0.75498 0.71799 0.0
O116 O 0.85498 0.73668 0.73767 0.0
O117 O 0.91799 0.71891 0.75577 0.0
O118 O 0.88936 0.7202 0.76014 0.0
C119 C 0.90424 0.765 0.71919 0.0
C120 C 0.89272 0.71077 0.68847 0.0
O121 O 0.88016 0.71839 0.69934 0.0
O122 O 0.90837 0.71291 0.69547 0.0
C123 C 0.84502 0.74553 0.72397 0.0
O124 O 0.85158 0.75274 0.7044 0.0
C125 C 0.90438 0.71565 0.76799 0.0
Zn126 Zn 0.97978 0.15068 0.4971 0.0
Zn127 Zn 0.98723 0.11755 0.48834 0.0
O128 O 0.96031 0.11967 0.48456 0.0
O129 O 0.95386 0.14642 0.49627 0.0
O130 O 0.99138 0.09178 0.48586 0.0
O131 O 0.99257 0.15059 0.52862 0.0
O132 O -0.00025 0.12337 0.52034 0.0
C133 C 0.94899 0.13151 0.48895 0.0
C134 C 0.00144 0.1442 0.4539 0.0
O135 O 0.00045 0.12819 0.46008 0.0
O136 O 0.99355 0.15584 0.46616 0.0
C137 C 0.98483 0.08218 0.46946 0.0
O138 O 0.9751 0.08934 0.45257 0.0
C139 C 0.00078 0.13675 0.53399 0.0
Zn140 Zn 0.58717 0.26635 0.22304 0.0
Zn141 Zn 0.62132 0.26824 0.2272 0.0
O142 O 0.61553 0.24173 0.22563 0.0
O143 O 0.5868 0.24031 0.22792 0.0
O144 O 0.64735 0.26805 0.23246 0.0
O145 O 0.58349 0.28247 0.25086 0.0
O146 O 0.61205 0.28303 0.25601 0.0
C147 C 0.6015 0.23272 0.22695 0.0
C148 C 0.60448 0.28215 0.18172 0.0
O149 O 0.61825 0.28045 0.19449 0.0
O150 O 0.58991 0.27658 0.18958 0.0
C151 C 0.65716 0.25982 0.21778 0.0
O152 O 0.65004 0.25199 0.19905 0.0
C153 C 0.59673 0.28782 0.26244 0.0
Zn154 Zn 0.47996 0.82993 0.9863 0.0
Zn155 Zn 0.47825 0.86437 0.98461 0.0
O156 O 0.50311 0.85817 0.97252 0.0
O157 O 0.50534 0.82967 0.97708 0.0
O158 O 0.47964 0.89052 0.9876 0.0
O159 O 0.47292 0.82874 0.02086 0.0
O160 O 0.47035 0.85738 0.0191 0.0
C161 C 0.51206 0.84413 0.97092 0.0
C162 C 0.45465 0.84408 0.95144 0.0
O163 O 0.45976 0.85906 0.95877 0.0
O164 O 0.46121 0.83027 0.96036 0.0
C165 C 0.47954 0.9012 0.97003 0.0
O166 O 0.4777 0.89523 0.94792 0.0
C167 C 0.46895 0.84309 0.03084 0.0
Zn168 Zn 0.90532 0.25907 0.73598 0.0
Zn169 Zn 0.8713 0.26426 0.74284 0.0
O170 O 0.87528 0.23847 0.75237 0.0
O171 O 0.90336 0.2339 0.74624 0.0
O172 O 0.8452 0.26661 0.74488 0.0
O173 O 0.90382 0.2655 0.70107 0.0
O174 O 0.87631 0.27252 0.70794 0.0
C175 C 0.88854 0.22835 0.75305 0.0
C176 C 0.89663 0.2848 0.77337 0.0
O177 O 0.88083 0.28066 0.76877 0.0
O178 O 0.90908 0.27796 0.76146 0.0
C179 C 0.8366 0.26075 0.76277 0.0
O180 O 0.84508 0.25359 0.7809 0.0
C181 C 0.88946 0.27181 0.69378 0.0
Zn182 Zn 0.49109 0.17142 0.50236 0.0
Zn183 Zn 0.4887 0.13651 0.50007 0.0
O184 O 0.51512 0.14128 0.5036 0.0
O185 O 0.5175 0.16998 0.50213 0.0
O186 O 0.48766 0.11048 0.49616 0.0
O187 O 0.47796 0.17392 0.47129 0.0
O188 O 0.47604 0.14521 0.46951 0.0
C189 C 0.52456 0.15503 0.50358 0.0
C190 C 0.47187 0.15533 0.54223 0.0
O191 O 0.47512 0.14107 0.5312 0.0
O192 O 0.47739 0.16975 0.5338 0.0
C193 C 0.49538 0.10043 0.51099 0.0
O194 O 0.50395 0.10729 0.52927 0.0
C195 C 0.47269 0.16023 0.46066 0.0
Zn196 Zn 0.58814 0.74237 0.25459 0.0
Zn197 Zn 0.6227 0.74293 0.25824 0.0
O198 O 0.61504 0.76808 0.26773 0.0
O199 O 0.58652 0.76797 0.26168 0.0
O200 O 0.64888 0.74421 0.25751 0.0
O201 O 0.58876 0.73444 0.22034 0.0
O202 O 0.61744 0.73322 0.22408 0.0
C203 C 0.60034 0.77601 0.26763 0.0
C204 C 0.60266 0.71916 0.29163 0.0
O205 O 0.61737 0.72515 0.28467 0.0
O206 O 0.58862 0.72445 0.28177 0.0
C207 C 0.65831 0.75021 0.27449 0.0
O208 O 0.65079 0.75611 0.29424 0.0
C209 C 0.60362 0.73085 0.2116 0.0
Zn210 Zn 0.02629 0.84455 0.05487 0.0
Zn211 Zn 0.02582 0.87797 0.04297 0.0
O212 O -0.00035 0.87132 0.04742 0.0
O213 O 0.00021 0.84285 0.05315 0.0
O214 O 0.02385 0.90303 0.03259 0.0
O215 O 0.04068 0.83871 0.02556 0.0
O216 O 0.03891 0.86635 0.01462 0.0
C217 C 0.9916 0.85687 0.05055 0.0
C218 C 0.04322 0.86702 0.0898 0.0
O219 O 0.04043 0.87895 0.07423 0.0
O220 O 0.03781 0.85156 0.08618 0.0
C221 C 0.01587 0.91377 0.04624 0.0
O222 O 0.00985 0.90829 0.06714 0.0
C223 C 0.04409 0.85075 0.01059 0.0
Zn224 Zn 0.59087 0.7577 0.7313 0.0
Zn225 Zn 0.62445 0.76025 0.7421 0.0
O226 O 0.61792 0.73463 0.75017 0.0
O227 O 0.59039 0.73205 0.73901 0.0
O228 O 0.65055 0.76093 0.7454 0.0
O229 O 0.59416 0.76572 0.69729 0.0
O230 O 0.62147 0.77061 0.70791 0.0
C231 C 0.60411 0.72539 0.74792 0.0
C232 C 0.59946 0.7816 0.77145 0.0
O233 O 0.61518 0.77667 0.76794 0.0
O234 O 0.5872 0.77573 0.75822 0.0
C235 C 0.65939 0.75334 0.76175 0.0
O236 O 0.65122 0.7445 0.77871 0.0
C237 C 0.60922 0.7716 0.69236 0.0
Zn238 Zn 0.48864 0.3412 0.03284 0.0
Zn239 Zn 0.48464 0.37471 0.02546 0.0
O240 O 0.51148 0.37055 0.02566 0.0
O241 O 0.51433 0.34191 0.02527 0.0
O242 O 0.48325 0.40028 0.01763 0.0
O243 O 0.47145 0.3352 0.00706 0.0
O244 O 0.46951 0.36327 -0.00128 0.0
C245 C 0.52112 0.35698 0.02436 0.0
C246 C 0.47307 0.35959 0.07331 0.0
O247 O 0.47336 0.37261 0.05896 0.0
O248 O 0.47966 0.3451 0.06683 0.0
C249 C 0.49203 0.4111 0.03015 0.0
O250 O 0.50126 0.4053 0.04851 0.0
C251 C 0.46512 0.34745 0.99445 0.0
Zn252 Zn 0.90887 0.22556 0.27843 0.0
Zn253 Zn 0.87512 0.22625 0.26792 0.0
O254 O 0.88245 0.25245 0.26943 0.0
O255 O 0.91087 0.25157 0.27579 0.0
O256 O 0.84962 0.22795 0.25931 0.0
O257 O 0.91377 0.21061 0.24964 0.0
O258 O 0.88569 0.21101 0.24059 0.0
C259 C 0.89704 0.26032 0.27226 0.0
C260 C 0.88716 0.21024 0.31549 0.0
O261 O 0.8748 0.21377 0.30083 0.0
O262 O 0.90279 0.21431 0.31026 0.0
C263 C 0.83966 0.23691 0.27295 0.0
O264 O 0.84637 0.24444 0.29219 0.0
C265 C 0.90128 0.20597 0.23606 0.0
Zn266 Zn 0.00113 0.66856 0.49351 0.0
Zn267 Zn 0.00678 0.63453 0.49949 0.0
O268 O 0.98034 0.63829 0.50555 0.0
O269 O 0.97503 0.66578 0.49634 0.0
O270 O 0.00891 0.60832 0.50041 0.0
O271 O 0.01246 0.66846 0.46102 0.0
O272 O 0.01723 0.6403 0.46598 0.0
C273 C 0.9696 0.65091 0.503 0.0
C274 C 0.02381 0.65943 0.5345 0.0
O275 O 0.02178 0.64369 0.52738 0.0
O276 O 0.01622 0.67185 0.52347 0.0
C277 C 0.00079 0.59897 0.51573 0.0
O278 O 0.99145 0.60666 0.53263 0.0
C279 C 0.01864 0.65415 0.4533 0.0
Zn280 Zn 0.58395 0.21882 0.72394 0.0
Zn281 Zn 0.6181 0.22314 0.73075 0.0
O282 O 0.60876 0.24838 0.72755 0.0
O283 O 0.58053 0.24488 0.72141 0.0
O284 O 0.64352 0.22702 0.73802 0.0
O285 O 0.58128 0.20656 0.75552 0.0
O286 O 0.60989 0.20822 0.75976 0.0
C287 C 0.59366 0.25488 0.72362 0.0
C288 C 0.60564 0.20284 0.68697 0.0
O289 O 0.61825 0.20981 0.69854 0.0
O290 O 0.59003 0.20448 0.69444 0.0
C291 C 0.65278 0.23666 0.72437 0.0
O292 O 0.64555 0.24377 0.7052 0.0
C293 C 0.59502 0.20293 0.76726 0.0
Zn294 Zn 0.0268 0.32343 0.97897 0.0
Zn295 Zn 0.02595 0.35853 0.9806 0.0
O296 O 0.00076 0.35174 0.97146 0.0
O297 O 0.00082 0.32293 0.97207 0.0
O298 O 0.02457 0.38457 0.98444 0.0
O299 O 0.03551 0.32199 0.01307 0.0
O300 O 0.03568 0.3508 0.01361 0.0
C301 C 0.99274 0.33723 0.96894 0.0
C302 C 0.04869 0.341 0.94297 0.0
O303 O 0.04274 0.35499 0.95238 0.0
O304 O 0.04412 0.3262 0.95122 0.0
C305 C 0.01732 0.39417 0.96861 0.0
O306 O 0.01086 0.38689 0.94903 0.0
C307 C 0.03864 0.33621 0.02397 0.0
Zn308 Zn 0.91069 0.75399 0.20512 0.0
Zn309 Zn 0.87817 0.75686 0.21997 0.0
O310 O 0.88075 0.73049 0.21127 0.0
O311 O 0.90887 0.72798 0.20335 0.0
O312 O 0.85341 0.7582 0.23194 0.0
O313 O 0.91959 0.76531 0.23539 0.0
O314 O 0.89251 0.766 0.24894 0.0
C315 C 0.89394 0.72103 0.20584 0.0
C316 C 0.88982 0.7762 0.1747 0.0
O317 O 0.87828 0.77373 0.19095 0.0
O318 O 0.90451 0.76857 0.17601 0.0
C319 C 0.84117 0.75298 0.21817 0.0
O320 O 0.84514 0.74708 0.19655 0.0
C321 C 0.9088 0.76895 0.252 0.0
Zn322 Zn 0.47848 0.65423 0.45097 0.0
Zn323 Zn 0.48201 0.62084 0.46118 0.0
O324 O 0.50727 0.63023 0.45657 0.0
O325 O 0.50422 0.6587 0.45283 0.0
O326 O 0.48685 0.59584 0.46982 0.0
O327 O 0.46339 0.65781 0.48021 0.0
O328 O 0.46781 0.63027 0.49013 0.0
C329 C 0.51404 0.6454 0.45421 0.0
C330 C 0.46385 0.63119 0.41479 0.0
O331 O 0.46754 0.61918 0.42989 0.0
O332 O 0.46788 0.64696 0.41914 0.0
C333 C 0.47522 0.58507 0.47675 0.0
O334 O 0.45887 0.59028 0.47851 0.0
C335 C 0.46107 0.64519 0.49466 0.0
Zn336 Zn 0.40113 0.2416 0.20882 0.0
Zn337 Zn 0.36755 0.23765 0.21654 0.0
O338 O 0.37103 0.26456 0.21398 0.0
O339 O 0.39972 0.26747 0.21419 0.0
O340 O 0.34207 0.23552 0.22468 0.0
O341 O 0.40732 0.22586 0.23635 0.0
O342 O 0.37922 0.22466 0.24495 0.0
C343 C 0.38462 0.27423 0.21459 0.0
C344 C 0.38309 0.22403 0.1699 0.0
O345 O 0.37014 0.22451 0.18439 0.0
O346 O 0.39742 0.23133 0.17555 0.0
C347 C 0.33034 0.24224 0.21134 0.0
O348 O 0.33501 0.2504 0.19147 0.0
C349 C 0.39502 0.22056 0.2498 0.0
Zn350 Zn 0.50223 0.6633 0.98413 0.0
Zn351 Zn 0.50877 0.62909 0.98266 0.0
O352 O 0.48191 0.63156 0.97958 0.0
O353 O 0.47615 0.6596 0.9838 0.0
O354 O 0.51171 0.60305 0.98448 0.0
O355 O 0.51492 0.6657 0.01551 0.0
O356 O 0.52147 0.63769 0.0134 0.0
C357 C 0.47089 0.64405 0.98076 0.0
C358 C 0.52323 0.65155 0.9427 0.0
O359 O 0.52157 0.63639 0.95196 0.0
O360 O 0.51619 0.66472 0.95277 0.0
C361 C 0.50398 0.59312 0.96947 0.0
O362 O 0.4947 0.60015 0.95201 0.0
C363 C 0.52266 0.65244 0.02405 0.0
Zn364 Zn 0.0918 0.78994 0.73065 0.0
Zn365 Zn 0.12452 0.7799 0.73793 0.0
O366 O 0.11305 0.7574 0.7246 0.0
O367 O 0.08614 0.76614 0.71713 0.0
O368 O 0.14929 0.77251 0.74451 0.0
O369 O 0.08813 0.79465 0.76568 0.0
O370 O 0.11604 0.7887 0.77141 0.0
C371 C 0.09769 0.75424 0.71672 0.0
C372 C 0.11661 0.80957 0.70259 0.0
O373 O 0.12742 0.79875 0.71173 0.0
O374 O 0.10061 0.80911 0.70866 0.0
C375 C 0.15852 0.76575 0.72783 0.0
O376 O 0.15159 0.76356 0.70632 0.0
C377 C 0.10121 0.79363 0.77959 0.0
Zn378 Zn 0.98467 0.34703 0.45316 0.0
Zn379 Zn 0.97876 0.38033 0.46244 0.0
O380 O 0.00585 0.37759 0.46317 0.0
O381 O 0.0104 0.3494 0.45856 0.0
O382 O 0.97622 0.40586 0.47034 0.0
O383 O 0.96899 0.34008 0.48061 0.0
O384 O 0.96466 0.36789 0.48921 0.0
C385 C 0.01635 0.36465 0.46198 0.0
C386 C 0.96719 0.36496 0.41423 0.0
O387 O 0.96713 0.37776 0.42901 0.0
O388 O 0.97454 0.35068 0.4199 0.0
C389 C 0.98485 0.4167 0.45763 0.0
O390 O 0.99423 0.41081 0.43945 0.0
C391 C 0.96192 0.35173 0.49362 0.0
Zn392 Zn 0.4119 0.76819 0.29378 0.0
Zn393 Zn 0.37777 0.76892 0.28527 0.0
O394 O 0.38396 0.74257 0.28472 0.0
O395 O 0.41254 0.74211 0.28938 0.0
O396 O 0.35217 0.76838 0.27739 0.0
O397 O 0.41644 0.78412 0.26574 0.0
O398 O 0.38817 0.78413 0.25801 0.0
C399 C 0.39825 0.73403 0.28618 0.0
C400 C 0.3917 0.78293 0.33302 0.0
O401 O 0.37878 0.7804 0.3189 0.0
O402 O 0.40699 0.77847 0.32658 0.0
C403 C 0.34201 0.75873 0.28975 0.0
O404 O 0.34846 0.74984 0.30802 0.0
C405 C 0.40367 0.78913 0.25292 0.0
Zn406 Zn 0.97951 0.64541 0.026 0.0
Zn407 Zn 0.98168 0.61196 0.0151 0.0
O408 O 0.00747 0.61963 0.02139 0.0
O409 O 0.00545 0.64803 0.02719 0.0
O410 O 0.98439 0.58655 0.00686 0.0
O411 O 0.96681 0.6499 0.99494 0.0
O412 O 0.96984 0.62219 0.98486 0.0
C413 C 0.01475 0.6344 0.02525 0.0
C414 C 0.96086 0.62367 0.0593 0.0
O415 O 0.96513 0.6116 0.04458 0.0
O416 O 0.96613 0.63921 0.0561 0.0
C417 C 0.99274 0.57659 0.02116 0.0
O418 O -0.00077 0.58316 0.04118 0.0
C419 C 0.96449 0.63759 0.97997 0.0
Zn420 Zn 0.08676 0.24757 0.72383 0.0
Zn421 Zn 0.12015 0.24016 0.7312 0.0
O422 O 0.11772 0.26672 0.73707 0.0
O423 O 0.09042 0.2734 0.7286 0.0
O424 O 0.14607 0.23653 0.733 0.0
O425 O 0.08693 0.23702 0.69077 0.0
O426 O 0.11385 0.22856 0.69868 0.0
C427 C 0.10553 0.27805 0.73544 0.0
C428 C 0.09412 0.22455 0.76535 0.0
O429 O 0.11011 0.22656 0.75948 0.0
O430 O 0.08211 0.23183 0.75307 0.0
C431 C 0.15495 0.24228 0.7507 0.0
O432 O 0.14684 0.25023 0.76855 0.0
C433 C 0.10052 0.22859 0.68484 0.0
Zn434 Zn 0.51095 0.33361 0.51473 0.0
Zn435 Zn 0.511 0.36789 0.51763 0.0
O436 O 0.48572 0.36002 0.52569 0.0
O437 O 0.485 0.33164 0.51922 0.0
O438 O 0.50817 0.39397 0.51735 0.0
O439 O 0.52108 0.33382 0.4817 0.0
O440 O 0.52191 0.36255 0.484 0.0
C441 C 0.47725 0.34565 0.52502 0.0
C442 C 0.53282 0.34794 0.55343 0.0
O443 O 0.52786 0.36278 0.54547 0.0
O444 O 0.52729 0.33398 0.54363 0.0
C445 C 0.52054 0.40465 0.51317 0.0
O446 O 0.53641 0.39862 0.50924 0.0
C447 C 0.52504 0.34842 0.47248 0.0
H448 H 0.0047 0.17679 0.43451 0.0
H449 H 0.02552 0.18648 0.40395 0.0
H450 H 0.04504 0.1338 0.39662 0.0
H451 H 0.02408 0.12382 0.42736 0.0
H452 H 0.06476 0.17926 0.41047 0.0
H453 H 0.03481 0.15471 0.32512 0.0
H454 H 0.02124 0.15936 0.35107 0.0
H455 H 0.03588 0.14104 0.35168 0.0
C456 C 0.01325 0.16717 0.42627 0.0
C457 C 0.01278 0.14954 0.4335 0.0
C458 C 0.02514 0.17274 0.40881 0.0
C459 C 0.03679 0.16084 0.39815 0.0
C460 C 0.03607 0.14312 0.40463 0.0
H461 H 0.11471 0.22555 0.32206 0.0
H462 H 0.10518 0.19749 0.33942 0.0
C463 C 0.02409 0.13748 0.42217 0.0
C464 C 0.05022 0.1676 0.38139 0.0
H465 H 0.05671 0.17633 0.3217 0.0
C466 C 0.06343 0.17826 0.391 0.0
C467 C 0.04836 0.16611 0.35613 0.0
C468 C 0.03434 0.15469 0.34517 0.0
C469 C 0.07383 0.18881 0.37606 0.0
C470 C 0.07105 0.18842 0.35076 0.0
C471 C 0.05888 0.17653 0.34106 0.0
C472 C 0.07749 0.20283 0.3352 0.0
C473 C 0.08647 0.20149 0.38767 0.0
C474 C 0.06515 0.21452 0.32568 0.0
C475 C 0.07051 0.23036 0.31572 0.0
C476 C 0.08835 0.23487 0.31505 0.0
C477 C 0.10085 0.22249 0.32256 0.0
C478 C 0.09544 0.20651 0.33257 0.0
H479 H 0.0856 0.20136 0.4077 0.0
H480 H 0.10007 0.19796 0.38253 0.0
H481 H 0.08391 0.21503 0.38129 0.0
H482 H 0.05125 0.21195 0.32742 0.0
H483 H 0.06056 0.23947 0.30971 0.0
H484 H 0.06903 0.83325 0.49957 0.0
H485 H 0.09689 0.83358 0.52163 0.0
H486 H 0.07465 0.86952 0.57344 0.0
H487 H 0.04755 0.87045 0.5502 0.0
H488 H 0.1088 0.87344 0.57306 0.0
H489 H 0.09407 0.80192 0.57756 0.0
H490 H 0.0996 0.81013 0.54826 0.0
H491 H 0.07959 0.817 0.56273 0.0
C492 C 0.07045 0.84176 0.51512 0.0
C493 C 0.05617 0.85162 0.52349 0.0
C494 C 0.08627 0.84181 0.52785 0.0
C495 C 0.08759 0.85089 0.54986 0.0
C496 C 0.07394 0.86222 0.55669 0.0
H497 H 0.10168 0.84032 0.68913 0.0
H498 H 0.10364 0.85373 0.64938 0.0
C499 C 0.0584 0.86274 0.54342 0.0
C500 C 0.10132 0.84646 0.5679 0.0
H501 H 0.11366 0.81306 0.60507 0.0
C502 C 0.11019 0.86016 0.57972 0.0
C503 C 0.10329 0.82909 0.57661 0.0
C504 C 0.09357 0.8137 0.56581 0.0
C505 C 0.11959 0.85719 0.60115 0.0
C506 C 0.12028 0.84009 0.61077 0.0
C507 C 0.11313 0.82617 0.59756 0.0
C508 C 0.12427 0.83665 0.6365 0.0
C509 C 0.12779 0.87248 0.61409 0.0
C510 C 0.13581 0.82312 0.64296 0.0
C511 C 0.1347 0.8154 0.66584 0.0
C512 C 0.12181 0.82094 0.68228 0.0
C513 C 0.11163 0.8357 0.6767 0.0
C514 C 0.1129 0.84354 0.65403 0.0
H515 H 0.13197 0.88274 0.60108 0.0
H516 H 0.11797 0.87841 0.62641 0.0
H517 H 0.13928 0.86833 0.62498 0.0
H518 H 0.14454 0.8175 0.62962 0.0
H519 H 0.14271 0.80403 0.66967 0.0
H520 H 0.44287 0.86945 0.91996 0.0
H521 H 0.42401 0.86499 0.88446 0.0
H522 H 0.41907 0.81031 0.90283 0.0
H523 H 0.4373 0.81468 0.93806 0.0
H524 H 0.43138 0.84505 0.84661 0.0
H525 H 0.36977 0.82037 0.88384 0.0
H526 H 0.38536 0.83215 0.90228 0.0
H527 H 0.38708 0.80871 0.89851 0.0
C528 C 0.43736 0.8566 0.91668 0.0
C529 C 0.44164 0.8424 0.93176 0.0
C530 C 0.4266 0.85407 0.89642 0.0
C531 C 0.41979 0.83739 0.89122 0.0
C532 C 0.42363 0.82343 0.9068 0.0
H533 H 0.42725 0.76758 0.78864 0.0
H534 H 0.42874 0.79494 0.81054 0.0
C535 C 0.43432 0.82591 0.92685 0.0
C536 C 0.4108 0.83352 0.86807 0.0
H537 H 0.38041 0.80482 0.84678 0.0
C538 C 0.41984 0.83677 0.84645 0.0
C539 C 0.39531 0.82337 0.86741 0.0
C540 C 0.38375 0.82117 0.8893 0.0
C541 C 0.41529 0.82797 0.82508 0.0
C542 C 0.40182 0.81523 0.8257 0.0
C543 C 0.39115 0.8141 0.84632 0.0
C544 C 0.40099 0.8007 0.80785 0.0
C545 C 0.42569 0.83167 0.80249 0.0
C546 C 0.38487 0.79457 0.7989 0.0
C547 C 0.38392 0.77851 0.78671 0.0
C548 C 0.39908 0.76831 0.78335 0.0
C549 C 0.4153 0.77505 0.79092 0.0
C550 C 0.41621 0.79093 0.80321 0.0
H551 H 0.42859 0.84589 0.80109 0.0
H552 H 0.43844 0.82473 0.80346 0.0
H553 H 0.41862 0.82744 0.78596 0.0
H554 H 0.37292 0.80178 0.80238 0.0
H555 H 0.37122 0.7737 0.78104 0.0
H556 H 0.36222 0.19568 0.15992 0.0
H557 H 0.36627 0.17478 0.12658 0.0
H558 H 0.40655 0.20789 0.0966 0.0
H559 H 0.40262 0.22862 0.12956 0.0
H560 H 0.38404 0.18937 0.06103 0.0
H561 H 0.41317 0.14666 0.13233 0.0
H562 H 0.39096 0.15431 0.13521 0.0
H563 H 0.40879 0.16943 0.13848 0.0
C564 C 0.37154 0.19872 0.14578 0.0
C565 C 0.38234 0.2136 0.1475 0.0
C566 C 0.37385 0.18677 0.12682 0.0
C567 C 0.38685 0.18973 0.10934 0.0
C568 C 0.39644 0.20537 0.1099 0.0
H569 H 0.46786 0.17441 0.02783 0.0
H570 H 0.43821 0.18023 0.04116 0.0
C571 C 0.39427 0.21716 0.12884 0.0
C572 C 0.39288 0.17576 0.09283 0.0
H573 H 0.42353 0.14337 0.09302 0.0
C574 C 0.39217 0.17884 0.06787 0.0
C575 C 0.40321 0.16181 0.10173 0.0
C576 C 0.40419 0.15774 0.12838 0.0
C577 C 0.40314 0.16968 0.05193 0.0
C578 C 0.41538 0.15758 0.06136 0.0
C579 C 0.41432 0.15283 0.08581 0.0
C580 C 0.43172 0.15308 0.04823 0.0
C581 C 0.40237 0.17397 0.02538 0.0
C582 C 0.43813 0.13583 0.04769 0.0
C583 C 0.45537 0.13247 0.04033 0.0
C584 C 0.4665 0.14635 0.03371 0.0
C585 C 0.45969 0.16342 0.03297 0.0
C586 C 0.44256 0.16675 0.04024 0.0
H587 H 0.38862 0.17638 0.01971 0.0
H588 H 0.40985 0.18618 0.02193 0.0
H589 H 0.40793 0.16328 0.01414 0.0
H590 H 0.43008 0.12511 0.05406 0.0
H591 H 0.46024 0.11916 0.04104 0.0
H592 H 0.08254 0.78181 0.21037 0.0
H593 H 0.08257 0.81301 0.2025 0.0
H594 H 0.13905 0.8129 0.19925 0.0
H595 H 0.13911 0.78116 0.20649 0.0
H596 H 0.097 0.84388 0.22075 0.0
H597 H 0.126 0.82689 0.13107 0.0
H598 H 0.11879 0.80979 0.15113 0.0
H599 H 0.13804 0.82233 0.15823 0.0
C600 C 0.09503 0.78839 0.20836 0.0
C601 C 0.1108 0.77891 0.20841 0.0
C602 C 0.09504 0.80633 0.20409 0.0
C603 C 0.11079 0.81527 0.19981 0.0
C604 C 0.12672 0.80619 0.20203 0.0
H605 H 0.0737 0.88569 0.09289 0.0
H606 H 0.09556 0.88293 0.12527 0.0
C607 C 0.12673 0.78808 0.20625 0.0
C608 C 0.10967 0.83309 0.18928 0.0
H609 H 0.10698 0.85048 0.1328 0.0
C610 C 0.09979 0.84574 0.20171 0.0
C611 C 0.11371 0.83585 0.1646 0.0
C612 C 0.1247 0.82306 0.15034 0.0
C613 C 0.09152 0.85943 0.18924 0.0
C614 C 0.0931 0.86028 0.16384 0.0
C615 C 0.10547 0.8496 0.15225 0.0
C616 C 0.07884 0.86752 0.14863 0.0
C617 C 0.07975 0.87174 0.20299 0.0
C618 C 0.06199 0.86042 0.15143 0.0
C619 C 0.04972 0.86173 0.13292 0.0
C620 C 0.05399 0.87033 0.11136 0.0
C621 C 0.07011 0.8791 0.10948 0.0
C622 C 0.08257 0.87754 0.12796 0.0
H623 H 0.0856 0.87498 0.22081 0.0
H624 H 0.07739 0.88404 0.19282 0.0
H625 H 0.06699 0.86524 0.20645 0.0
H626 H 0.05885 0.85225 0.16682 0.0
H627 H 0.03736 0.85487 0.13474 0.0
H628 H 0.41603 0.78637 0.36833 0.0
H629 H 0.41362 0.80223 0.40598 0.0
H630 H 0.35981 0.81503 0.38998 0.0
H631 H 0.36222 0.79916 0.35137 0.0
H632 H 0.37802 0.8437 0.40516 0.0
H633 H 0.39066 0.79083 0.46929 0.0
H634 H 0.40657 0.78885 0.4457 0.0
H635 H 0.38357 0.7865 0.43871 0.0
C636 C 0.40356 0.79233 0.37279 0.0
C637 C 0.38932 0.79148 0.35679 0.0
C638 C 0.40214 0.80127 0.39455 0.0
C639 C 0.3864 0.80946 0.40113 0.0
C640 C 0.372 0.80857 0.38539 0.0
H641 H 0.43859 0.84853 0.52228 0.0
H642 H 0.40944 0.8413 0.50689 0.0
C643 C 0.3734 0.79951 0.3634 0.0
C644 C 0.38617 0.82015 0.42347 0.0
H645 H 0.40636 0.81884 0.47793 0.0
C646 C 0.38363 0.83829 0.42153 0.0
C647 C 0.39244 0.81318 0.44543 0.0
C648 C 0.39322 0.79372 0.44994 0.0
C649 C 0.38997 0.84971 0.43943 0.0
C650 C 0.39982 0.84276 0.45891 0.0
C651 C 0.39953 0.82453 0.46269 0.0
C652 C 0.41358 0.85313 0.47174 0.0
C653 C 0.38679 0.86907 0.43655 0.0
C654 C 0.4251 0.86366 0.45816 0.0
C655 C 0.44136 0.86856 0.46749 0.0
C656 C 0.44671 0.86241 0.49014 0.0
C657 C 0.43469 0.8534 0.50471 0.0
C658 C 0.41807 0.84917 0.4958 0.0
H659 H 0.37294 0.87141 0.43132 0.0
H660 H 0.38961 0.87644 0.4534 0.0
H661 H 0.39507 0.87421 0.42167 0.0
H662 H 0.42252 0.86657 0.43939 0.0
H663 H 0.45053 0.87532 0.4558 0.0
H664 H 0.41822 0.18752 0.75582 0.0
H665 H 0.42768 0.16519 0.72688 0.0
H666 H 0.38981 0.18432 0.67547 0.0
H667 H 0.37953 0.20573 0.70485 0.0
H668 H 0.39843 0.15055 0.66571 0.0
H669 H 0.45858 0.19066 0.67998 0.0
H670 H 0.45164 0.17803 0.70552 0.0
H671 H 0.43821 0.19575 0.69469 0.0
C672 C 0.41132 0.1863 0.73881 0.0
C673 C 0.39843 0.19856 0.73231 0.0
C674 C 0.41682 0.17365 0.72221 0.0
C675 C 0.41003 0.17368 0.69864 0.0
C676 C 0.39543 0.18422 0.69344 0.0
H677 H 0.45787 0.1834 0.56543 0.0
H678 H 0.4426 0.18389 0.604 0.0
C679 C 0.38954 0.19648 0.7103 0.0
C680 C 0.42015 0.16606 0.6783 0.0
H681 H 0.45817 0.17213 0.64689 0.0
C682 C 0.41162 0.15497 0.66177 0.0
C683 C 0.43733 0.17207 0.67303 0.0
C684 C 0.44697 0.18488 0.68908 0.0
C685 C 0.41946 0.15049 0.6396 0.0
C686 C 0.4363 0.15706 0.63413 0.0
C687 C 0.44524 0.16715 0.65127 0.0
C688 C 0.44405 0.1559 0.60969 0.0
C689 C 0.40929 0.13973 0.62156 0.0
C690 C 0.44975 0.13992 0.59994 0.0
C691 C 0.45848 0.13958 0.57766 0.0
C692 C 0.46178 0.15525 0.56504 0.0
C693 C 0.45569 0.17112 0.57473 0.0
C694 C 0.44691 0.17142 0.59676 0.0
H695 H 0.39561 0.13731 0.62752 0.0
H696 H 0.40902 0.14645 0.60378 0.0
H697 H 0.41588 0.12691 0.61901 0.0
H698 H 0.44789 0.12783 0.60982 0.0
H699 H 0.46304 0.12715 0.57066 0.0
H700 H 0.11539 0.21453 0.80277 0.0
H701 H 0.10661 0.19966 0.84008 0.0
H702 H 0.05357 0.19605 0.81361 0.0
H703 H 0.06209 0.21129 0.77677 0.0
H704 H 0.05518 0.21028 0.85786 0.0
H705 H 0.09441 0.14903 0.8556 0.0
H706 H 0.10682 0.16891 0.85268 0.0
H707 H 0.09159 0.16282 0.82941 0.0
C708 C 0.10191 0.21035 0.8048 0.0
C709 C 0.0894 0.21418 0.78691 0.0
C710 C 0.09695 0.20175 0.82606 0.0
C711 C 0.07947 0.19661 0.82953 0.0
C712 C 0.06713 0.19992 0.8113 0.0
H713 H 0.02198 0.13285 0.92622 0.0
H714 H 0.04294 0.14333 0.89615 0.0
C715 C 0.07202 0.20866 0.79027 0.0
C716 C 0.07347 0.18917 0.85281 0.0
H717 H 0.07728 0.15404 0.89062 0.0
C718 C 0.06007 0.19802 0.8651 0.0
C719 C 0.07988 0.17316 0.86213 0.0
C720 C 0.09387 0.16281 0.84922 0.0
C721 C 0.05244 0.19108 0.88598 0.0
C722 C 0.05886 0.1751 0.89545 0.0
C723 C 0.07258 0.1664 0.88351 0.0
C724 C 0.05015 0.16655 0.91625 0.0
C725 C 0.03695 0.20055 0.89689 0.0
C726 C 0.04818 0.17549 0.93824 0.0
C727 C 0.03593 0.16975 0.9552 0.0
C728 C 0.02587 0.15468 0.95071 0.0
C729 C 0.02952 0.14454 0.93013 0.0
C730 C 0.0415 0.15051 0.91291 0.0
H731 H 0.03121 0.21025 0.8842 0.0
H732 H 0.02651 0.19118 0.90218 0.0
H733 H 0.04126 0.20773 0.91327 0.0
H734 H 0.05512 0.18764 0.94146 0.0
H735 H 0.03354 0.17767 0.9711 0.0
H736 H 0.97409 0.8145 0.57337 0.0
H737 H 0.95299 0.81339 0.60624 0.0
H738 H 0.94311 0.86868 0.59864 0.0
H739 H 0.96439 0.87 0.56529 0.0
H740 H 0.94888 0.85495 0.64894 0.0
H741 H 0.8984 0.81882 0.59781 0.0
H742 H 0.91988 0.80997 0.59279 0.0
H743 H 0.91505 0.83199 0.58331 0.0
C744 C 0.96749 0.82649 0.57859 0.0
C745 C 0.97087 0.84233 0.56658 0.0
C746 C 0.95537 0.8258 0.59733 0.0
C747 C 0.94632 0.84089 0.60454 0.0
C748 C 0.94988 0.85688 0.59312 0.0
H749 H 0.87892 0.78795 0.70372 0.0
H750 H 0.88411 0.81499 0.68103 0.0
C751 C 0.96202 0.85758 0.57412 0.0
C752 C 0.93345 0.83943 0.62436 0.0
H753 H 0.90024 0.81231 0.64078 0.0
C754 C 0.93782 0.84611 0.64717 0.0
C755 C 0.91866 0.82848 0.62192 0.0
C756 C 0.91259 0.82206 0.59755 0.0
C757 C 0.92921 0.84013 0.66802 0.0
C758 C 0.91635 0.82685 0.66584 0.0
C759 C 0.91033 0.82221 0.64272 0.0
C760 C 0.91225 0.81468 0.68599 0.0
C761 C 0.93478 0.84724 0.69222 0.0
C762 C 0.92618 0.80601 0.69744 0.0
C763 C 0.92325 0.79066 0.71037 0.0
C764 C 0.90634 0.7835 0.71193 0.0
C765 C 0.89212 0.79311 0.70272 0.0
C766 C 0.89508 0.80858 0.68975 0.0
H767 H 0.93723 0.86155 0.69097 0.0
H768 H 0.92476 0.84482 0.70638 0.0
H769 H 0.94728 0.84098 0.69772 0.0
H770 H 0.9396 0.81007 0.69447 0.0
H771 H 0.93446 0.78366 0.71749 0.0
H772 H 0.91907 0.14282 0.51093 0.0
H773 H 0.8916 0.14944 0.49018 0.0
H774 H 0.91202 0.12517 0.42549 0.0
H775 H 0.93842 0.11715 0.44689 0.0
H776 H 0.89223 0.17236 0.46087 0.0
H777 H 0.86349 0.11973 0.40822 0.0
H778 H 0.87781 0.11479 0.43327 0.0
H779 H 0.88643 0.11723 0.40296 0.0
C780 C 0.91713 0.138 0.49272 0.0
C781 C 0.93084 0.12963 0.48038 0.0
C782 C 0.90147 0.14186 0.48077 0.0
C783 C 0.89961 0.13811 0.456 0.0
C784 C 0.91263 0.12796 0.44462 0.0
H785 H 0.90994 0.20504 0.35234 0.0
H786 H 0.90543 0.18842 0.38906 0.0
C787 C 0.92796 0.12347 0.45687 0.0
C788 C 0.88726 0.1485 0.44081 0.0
H789 H 0.87023 0.1477 0.38385 0.0
C790 C 0.88673 0.16673 0.44458 0.0
C791 C 0.87929 0.14158 0.41974 0.0
C792 C 0.87664 0.12221 0.41611 0.0
C793 C 0.88121 0.17812 0.42634 0.0
C794 C 0.87668 0.17119 0.40355 0.0
C795 C 0.87443 0.15305 0.40105 0.0
C796 C 0.87833 0.18205 0.38153 0.0
C797 C 0.88183 0.19758 0.43094 0.0
C798 C 0.86467 0.18369 0.36471 0.0
C799 C 0.86726 0.19325 0.34336 0.0
C800 C 0.88363 0.20101 0.33847 0.0
C801 C 0.89716 0.19931 0.35548 0.0
C802 C 0.89455 0.1899 0.37665 0.0
H803 H 0.87835 0.20055 0.44999 0.0
H804 H 0.89537 0.20241 0.42786 0.0
H805 H 0.87278 0.2048 0.4188 0.0
H806 H 0.85212 0.17752 0.36803 0.0
H807 H 0.85661 0.19426 0.33052 0.0
H808 H 0.53567 0.11363 0.10243 0.0
H809 H 0.55031 0.11794 0.14163 0.0
H810 H 0.58373 0.1571 0.10962 0.0
H811 H 0.56914 0.15304 0.07088 0.0
H812 H 0.5996 0.13371 0.14927 0.0
H813 H 0.53679 0.1678 0.17078 0.0
H814 H 0.53648 0.14544 0.16045 0.0
H815 H 0.54246 0.16262 0.13997 0.0
C816 C 0.54654 0.1227 0.10367 0.0
C817 C 0.55113 0.13321 0.08383 0.0
C818 C 0.55488 0.12514 0.126 0.0
C819 C 0.56801 0.13791 0.12847 0.0
C820 C 0.57368 0.14714 0.10805 0.0
H821 H 0.62193 0.2149 0.19537 0.0
H822 H 0.61555 0.18617 0.17867 0.0
C823 C 0.56524 0.1449 0.08598 0.0
C824 C 0.5736 0.14439 0.15242 0.0
H825 H 0.56138 0.17557 0.1929 0.0
C826 C 0.59116 0.14247 0.15941 0.0
C827 C 0.56251 0.15563 0.16572 0.0
C828 C 0.5435 0.15812 0.15899 0.0
C829 C 0.59824 0.15251 0.17835 0.0
C830 C 0.58762 0.16526 0.18982 0.0
C831 C 0.56966 0.16592 0.18419 0.0
C832 C 0.59499 0.17995 0.20437 0.0
C833 C 0.61712 0.14967 0.18525 0.0
C834 C 0.58598 0.1861 0.22486 0.0
C835 C 0.58916 0.20293 0.23376 0.0
C836 C 0.60181 0.21366 0.22285 0.0
C837 C 0.61225 0.20679 0.20429 0.0
C838 C 0.60868 0.19019 0.19484 0.0
H839 H 0.62051 0.13554 0.18415 0.0
H840 H 0.6257 0.15667 0.17226 0.0
H841 H 0.61996 0.15442 0.2038 0.0
H842 H 0.57543 0.17848 0.23267 0.0
H843 H 0.58095 0.20797 0.24814 0.0
H844 H 0.52325 0.8671 0.93649 0.0
H845 H 0.54527 0.86081 0.90558 0.0
H846 H 0.56069 0.81432 0.94422 0.0
H847 H 0.53839 0.82024 0.97484 0.0
H848 H 0.58258 0.85022 0.89986 0.0
H849 H 0.53359 0.79766 0.88281 0.0
H850 H 0.52935 0.81568 0.90301 0.0
H851 H 0.54294 0.79777 0.91257 0.0
C852 C 0.53182 0.85593 0.93894 0.0
C853 C 0.52885 0.84391 0.95772 0.0
C854 C 0.54441 0.85237 0.92126 0.0
C855 C 0.55428 0.8369 0.92241 0.0
C856 C 0.55299 0.8262 0.9429 0.0
H857 H 0.61972 0.78946 0.81086 0.0
H858 H 0.61054 0.8052 0.8473 0.0
C859 C 0.54025 0.82959 0.96036 0.0
C860 C 0.5628 0.83013 0.90033 0.0
H861 H 0.5581 0.79848 0.85738 0.0
C862 C 0.57734 0.83887 0.89055 0.0
C863 C 0.55565 0.81553 0.88805 0.0
C864 C 0.53944 0.80617 0.89695 0.0
C865 C 0.58502 0.83323 0.86876 0.0
C866 C 0.57795 0.81849 0.85675 0.0
C867 C 0.56348 0.80979 0.86665 0.0
C868 C 0.58485 0.81182 0.83351 0.0
C869 C 0.60028 0.84329 0.85846 0.0
C870 C 0.57353 0.81049 0.81364 0.0
C871 C 0.5786 0.80129 0.79305 0.0
C872 C 0.59515 0.7933 0.79187 0.0
C873 C 0.60689 0.79551 0.81123 0.0
C874 C 0.60172 0.80461 0.83199 0.0
H875 H 0.60158 0.85645 0.86685 0.0
H876 H 0.61255 0.83592 0.86191 0.0
H877 H 0.59886 0.84487 0.83862 0.0
H878 H 0.56044 0.81595 0.81448 0.0
H879 H 0.56932 0.79997 0.77836 0.0
H880 H 0.86311 0.21738 0.78443 0.0
H881 H 0.86715 0.19555 0.8162 0.0
H882 H 0.9161 0.17983 0.78407 0.0
H883 H 0.91231 0.20168 0.75235 0.0
H884 H 0.88384 0.15425 0.82 0.0
H885 H 0.92117 0.21302 0.85065 0.0
H886 H 0.90286 0.21478 0.8302 0.0
H887 H 0.92338 0.20628 0.81964 0.0
C888 C 0.87434 0.20875 0.78344 0.0
C889 C 0.88763 0.21155 0.76625 0.0
C890 C 0.87658 0.19622 0.8016 0.0
C891 C 0.89199 0.18626 0.80251 0.0
C892 C 0.90411 0.1874 0.78356 0.0
H893 H 0.94783 0.1269 0.90948 0.0
H894 H 0.92975 0.13434 0.87446 0.0
C895 C 0.90196 0.19998 0.76554 0.0
C896 C 0.89759 0.17851 0.82564 0.0
H897 H 0.92308 0.18786 0.87442 0.0
C898 C 0.89232 0.16155 0.83207 0.0
C899 C 0.90851 0.18821 0.8413 0.0
C900 C 0.91431 0.20662 0.83531 0.0
C901 C 0.898 0.15392 0.85387 0.0
C902 C 0.90931 0.16351 0.86922 0.0
C903 C 0.9143 0.18055 0.86275 0.0
C904 C 0.91688 0.15628 0.89176 0.0
C905 C 0.89177 0.13579 0.86035 0.0
C906 C 0.91541 0.1659 0.91328 0.0
C907 C 0.92601 0.16195 0.93304 0.0
C908 C 0.93813 0.14816 0.93176 0.0
C909 C 0.93854 0.13757 0.91098 0.0
C910 C 0.92811 0.14173 0.891 0.0
H911 H 0.87941 0.13244 0.8508 0.0
H912 H 0.90187 0.12613 0.8549 0.0
H913 H 0.88962 0.13454 0.88011 0.0
H914 H 0.90684 0.17719 0.91426 0.0
H915 H 0.92529 0.17021 0.94892 0.0
H916 H 0.63143 0.20864 0.65339 0.0
H917 H 0.63223 0.19694 0.61196 0.0
H918 H 0.58754 0.16439 0.62791 0.0
H919 H 0.58651 0.1761 0.66883 0.0
H920 H 0.61655 0.14964 0.59364 0.0
H921 H 0.58796 0.21493 0.57135 0.0
H922 H 0.60817 0.21328 0.58799 0.0
H923 H 0.58792 0.20728 0.60216 0.0
C924 C 0.62213 0.19861 0.64819 0.0
C925 C 0.60872 0.19346 0.66408 0.0
C926 C 0.62264 0.19192 0.62461 0.0
C927 C 0.60992 0.17986 0.61697 0.0
C928 C 0.59753 0.17362 0.63354 0.0
H929 H 0.54004 0.1326 0.5348 0.0
H930 H 0.56794 0.13712 0.55476 0.0
C931 C 0.59685 0.18044 0.65684 0.0
C932 C 0.60694 0.17608 0.59115 0.0
H933 H 0.58108 0.1916 0.54611 0.0
C934 C 0.60932 0.15893 0.58269 0.0
C935 C 0.59785 0.18831 0.57674 0.0
C936 C 0.59526 0.20702 0.58485 0.0
C937 C 0.60132 0.15326 0.56121 0.0
C938 C 0.59007 0.16485 0.54862 0.0
C939 C 0.58948 0.18253 0.55571 0.0
C940 C 0.57622 0.15859 0.53173 0.0
C941 C 0.60444 0.13472 0.55292 0.0
C942 C 0.57148 0.16876 0.51158 0.0
C943 C 0.55503 0.16667 0.50085 0.0
C944 C 0.54333 0.15397 0.50955 0.0
C945 C 0.5489 0.14239 0.52762 0.0
C946 C 0.56506 0.14487 0.53891 0.0
H947 H 0.6184 0.1311 0.55562 0.0
H948 H 0.59648 0.12563 0.56406 0.0
H949 H 0.60105 0.13288 0.53358 0.0
H950 H 0.57983 0.17935 0.50552 0.0
H951 H 0.55103 0.1757 0.48682 0.0
H952 H 0.58018 0.80279 0.25141 0.0
H953 H 0.56921 0.82702 0.27596 0.0
H954 H 0.60341 0.81126 0.33413 0.0
H955 H 0.61516 0.78786 0.30899 0.0
H956 H 0.55065 0.81898 0.31165 0.0
H957 H 0.60204 0.86176 0.34828 0.0
H958 H 0.60595 0.84783 0.32247 0.0
H959 H 0.60862 0.83952 0.35278 0.0
C960 C 0.586 0.80516 0.26897 0.0
C961 C 0.59844 0.79351 0.27841 0.0
C962 C 0.57968 0.81895 0.28305 0.0
C963 C 0.58535 0.82099 0.30704 0.0
C964 C 0.59904 0.81033 0.31558 0.0
H965 H 0.52368 0.82425 0.43059 0.0
H966 H 0.53986 0.81925 0.39334 0.0
C967 C 0.60573 0.79684 0.3012 0.0
C968 C 0.57449 0.83113 0.32443 0.0
H969 H 0.57702 0.856 0.3756 0.0
C970 C 0.55643 0.82749 0.32515 0.0
C971 C 0.58177 0.84244 0.34204 0.0
C972 C 0.60064 0.84824 0.34113 0.0
C973 C 0.54583 0.83367 0.34392 0.0
C974 C 0.55353 0.84331 0.36292 0.0
C975 C 0.57122 0.84823 0.36128 0.0
C976 C 0.54383 0.84675 0.38558 0.0
C977 C 0.52655 0.82926 0.34365 0.0
C978 C 0.54108 0.86388 0.39391 0.0
C979 C 0.53185 0.86678 0.41541 0.0
C980 C 0.52536 0.85259 0.42895 0.0
C981 C 0.52833 0.83546 0.42057 0.0
C982 C 0.53754 0.8326 0.39919 0.0
H983 H 0.52173 0.82736 0.3249 0.0
H984 H 0.52442 0.81683 0.3536 0.0
H985 H 0.51865 0.83969 0.35242 0.0
H986 H 0.54595 0.87494 0.38373 0.0
H987 H 0.52986 0.88015 0.42145 0.0
H988 H 0.87214 0.80736 0.1767 0.0
H989 H 0.87443 0.83134 0.14726 0.0
H990 H 0.90402 0.79763 0.09981 0.0
H991 H 0.90191 0.77399 0.12898 0.0
H992 H 0.90702 0.84352 0.13805 0.0
H993 H 0.87746 0.82653 0.05096 0.0
H994 H 0.87009 0.81692 0.07905 0.0
H995 H 0.88827 0.80755 0.06269 0.0
C996 C 0.8785 0.80494 0.15953 0.0
C997 C 0.88701 0.78894 0.15512 0.0
C998 C 0.87977 0.81862 0.14274 0.0
C999 C 0.8892 0.81625 0.12116 0.0
C1000 C 0.89629 0.79971 0.11598 0.0
H1001 H 0.97083 0.82814 0.04824 0.0
H1002 H 0.94049 0.82571 0.06072 0.0
C1003 C 0.89528 0.78623 0.13282 0.0
C1004 C 0.89543 0.83139 0.10682 0.0
H1005 H 0.90764 0.83947 0.04873 0.0
C1006 C 0.9066 0.84329 0.11847 0.0
C1007 C 0.8946 0.83136 0.08133 0.0
C1008 C 0.88177 0.81999 0.06786 0.0
C1009 C 0.91913 0.85284 0.10542 0.0
C1010 C 0.92017 0.85059 0.08007 0.0
C1011 C 0.90706 0.84095 0.0682 0.0
C1012 C 0.93698 0.85345 0.06724 0.0
C1013 C 0.93256 0.86337 0.11922 0.0
C1014 C 0.94495 0.87 0.06565 0.0
C1015 C 0.96257 0.87141 0.05869 0.0
C1016 C 0.97233 0.85629 0.0532 0.0
C1017 C 0.96379 0.84001 0.05276 0.0
C1018 C 0.94633 0.83862 0.05969 0.0
H1019 H 0.93021 0.86314 0.13902 0.0
H1020 H 0.94591 0.85818 0.11569 0.0
H1021 H 0.9322 0.8772 0.11313 0.0
H1022 H 0.93787 0.88165 0.071 0.0
H1023 H 0.96877 0.88417 0.05896 0.0
H1024 H 0.53552 0.62644 0.91136 0.0
H1025 H 0.55177 0.6312 0.87365 0.0
H1026 H 0.55079 0.68692 0.88639 0.0
H1027 H 0.53432 0.68236 0.92347 0.0
H1028 H 0.53977 0.67795 0.84124 0.0
H1029 H 0.60306 0.64534 0.86274 0.0
H1030 H 0.58352 0.63243 0.86629 0.0
H1031 H 0.58721 0.65087 0.88572 0.0
C1032 C 0.53887 0.63969 0.90614 0.0
C1033 C 0.53354 0.65404 0.92034 0.0
C1034 C 0.54825 0.64236 0.8847 0.0
C1035 C 0.55262 0.6594 0.87735 0.0
C1036 C 0.54755 0.67366 0.89172 0.0
H1037 H 0.62023 0.71562 0.78952 0.0
H1038 H 0.60889 0.69397 0.81788 0.0
C1039 C 0.53808 0.67103 0.91292 0.0
C1040 C 0.5616 0.66285 0.85411 0.0
H1041 H 0.60095 0.65949 0.82505 0.0
C1042 C 0.55306 0.67372 0.83749 0.0
C1043 C 0.57895 0.65731 0.84941 0.0
C1044 C 0.58885 0.64593 0.86699 0.0
C1045 C 0.56168 0.68012 0.81701 0.0
C1046 C 0.5792 0.67489 0.81242 0.0
C1047 C 0.58748 0.66329 0.82844 0.0
C1048 C 0.58965 0.6834 0.79311 0.0
C1049 C 0.55227 0.69345 0.80154 0.0
C1050 C 0.58365 0.68361 0.76914 0.0
C1051 C 0.58982 0.69629 0.75307 0.0
C1052 C 0.6025 0.70848 0.76056 0.0
C1053 C 0.61042 0.70641 0.78328 0.0
C1054 C 0.60391 0.69404 0.79955 0.0
H1055 H 0.54035 0.69868 0.81053 0.0
H1056 H 0.561 0.70464 0.79719 0.0
H1057 H 0.54812 0.68721 0.78437 0.0
H1058 H 0.57304 0.67511 0.76357 0.0
H1059 H 0.58365 0.69749 0.73553 0.0
H1060 H 0.57756 0.28625 0.15029 0.0
H1061 H 0.57749 0.30164 0.11213 0.0
H1062 H 0.63241 0.31357 0.12027 0.0
H1063 H 0.63258 0.29817 0.15934 0.0
H1064 H 0.61323 0.34241 0.10599 0.0
H1065 H 0.59648 0.2874 0.04696 0.0
H1066 H 0.58225 0.28647 0.07264 0.0
H1067 H 0.60561 0.28415 0.07675 0.0
C1068 C 0.58973 0.29195 0.14402 0.0
C1069 C 0.60509 0.2909 0.15789 0.0
C1070 C 0.5897 0.30064 0.122 0.0
C1071 C 0.60505 0.30837 0.11302 0.0
C1072 C 0.62049 0.30746 0.12673 0.0
H1073 H 0.54645 0.34319 0.99535 0.0
H1074 H 0.57645 0.33662 0.00797 0.0
C1075 C 0.62055 0.29867 0.14899 0.0
C1076 C 0.60397 0.31833 0.09013 0.0
H1077 H 0.58091 0.31525 0.03803 0.0
C1078 C 0.60671 0.33649 0.09061 0.0
C1079 C 0.59647 0.31064 0.06938 0.0
C1080 C 0.59527 0.29104 0.06632 0.0
C1081 C 0.5995 0.34731 0.07265 0.0
C1082 C 0.58861 0.33976 0.05468 0.0
C1083 C 0.58857 0.32142 0.05213 0.0
C1084 C 0.57428 0.34977 0.04259 0.0
C1085 C 0.60293 0.36672 0.07391 0.0
C1086 C 0.56353 0.36083 0.05659 0.0
C1087 C 0.54677 0.36535 0.04871 0.0
C1088 C 0.54018 0.35833 0.0272 0.0
C1089 C 0.55136 0.34878 0.01202 0.0
C1090 C 0.56846 0.34492 0.01938 0.0
H1091 H 0.61704 0.36913 0.07757 0.0
H1092 H 0.59926 0.37351 0.05693 0.0
H1093 H 0.5955 0.37245 0.08923 0.0
H1094 H 0.56714 0.36443 0.0748 0.0
H1095 H 0.53824 0.37251 0.06087 0.0
H1096 H 0.87033 0.28355 0.28146 0.0
H1097 H 0.87367 0.31425 0.29374 0.0
H1098 H 0.92929 0.31078 0.28049 0.0
H1099 H 0.92598 0.28064 0.26778 0.0
H1100 H 0.89081 0.32162 0.33266 0.0
H1101 H 0.9223 0.36025 0.26186 0.0
H1102 H 0.91096 0.34006 0.25507 0.0
H1103 H 0.93385 0.33992 0.26343 0.0
C1104 C 0.88314 0.2896 0.28028 0.0
C1105 C 0.89794 0.27962 0.27402 0.0
C1106 C 0.88503 0.30715 0.28729 0.0
C1107 C 0.90171 0.31498 0.28785 0.0
C1108 C 0.91621 0.30535 0.27964 0.0
H1109 H 0.97389 0.34679 0.37327 0.0
H1110 H 0.95415 0.3424 0.33926 0.0
C1111 C 0.91433 0.28792 0.2727 0.0
C1112 C 0.90494 0.33132 0.30174 0.0
H1113 H 0.93482 0.3645 0.30376 0.0
C1114 C 0.89979 0.33153 0.3261 0.0
C1115 C 0.91643 0.34449 0.29323 0.0
C1116 C 0.92099 0.34623 0.26685 0.0
C1117 C 0.90785 0.34278 0.34277 0.0
C1118 C 0.92129 0.35413 0.33476 0.0
C1119 C 0.9247 0.35559 0.30993 0.0
C1120 C 0.93457 0.36068 0.352 0.0
C1121 C 0.90342 0.34094 0.36923 0.0
C1122 C 0.93047 0.3731 0.36986 0.0
C1123 C 0.94186 0.3757 0.38941 0.0
C1124 C 0.95732 0.36576 0.39134 0.0
C1125 C 0.96199 0.35449 0.37237 0.0
C1126 C 0.95076 0.35205 0.35284 0.0
H1127 H 0.89286 0.33122 0.37245 0.0
H1128 H 0.91522 0.33684 0.37949 0.0
H1129 H 0.89907 0.35376 0.3765 0.0
H1130 H 0.91805 0.37994 0.36944 0.0
H1131 H 0.93796 0.38448 0.40381 0.0
H1132 H 0.86828 0.71561 0.65294 0.0
H1133 H 0.86726 0.7004 0.61376 0.0
H1134 H 0.9088 0.6661 0.63714 0.0
H1135 H 0.91017 0.68141 0.67573 0.0
H1136 H 0.89959 0.70128 0.58689 0.0
H1137 H 0.87587 0.6334 0.59728 0.0
H1138 H 0.86929 0.65103 0.61718 0.0
H1139 H 0.88997 0.64018 0.62151 0.0
C1140 C 0.87679 0.70447 0.64989 0.0
C1141 C 0.88944 0.69975 0.66712 0.0
C1142 C 0.87614 0.69577 0.62761 0.0
C1143 C 0.88776 0.68196 0.62273 0.0
C1144 C 0.89944 0.67645 0.64073 0.0
H1145 H 0.95898 0.63302 0.54255 0.0
H1146 H 0.93254 0.63891 0.56575 0.0
C1147 C 0.90037 0.68534 0.66265 0.0
C1148 C 0.89075 0.6758 0.59778 0.0
H1149 H 0.89821 0.63807 0.56654 0.0
C1150 C 0.89878 0.68757 0.58188 0.0
C1151 C 0.88965 0.65793 0.59153 0.0
C1152 C 0.88056 0.64492 0.6077 0.0
C1153 C 0.90777 0.68166 0.56137 0.0
C1154 C 0.90796 0.66345 0.55604 0.0
C1155 C 0.89816 0.65197 0.5706 0.0
C1156 C 0.92089 0.65594 0.53885 0.0
C1157 C 0.91854 0.69481 0.54737 0.0
C1158 C 0.92258 0.66238 0.5152 0.0
C1159 C 0.93807 0.65954 0.50228 0.0
C1160 C 0.95161 0.64947 0.51237 0.0
C1161 C 0.94875 0.64086 0.53439 0.0
C1162 C 0.93358 0.64423 0.54767 0.0
H1163 H 0.91927 0.70771 0.55661 0.0
H1164 H 0.93212 0.68999 0.54472 0.0
H1165 H 0.91251 0.69698 0.5294 0.0
H1166 H 0.91263 0.67081 0.50757 0.0
H1167 H 0.93992 0.6661 0.48513 0.0
H1168 H 0.54344 0.37403 0.58465 0.0
H1169 H 0.56191 0.37065 0.62078 0.0
H1170 H 0.56721 0.31552 0.60543 0.0
H1171 H 0.54921 0.31875 0.56971 0.0
H1172 H 0.55509 0.3504 0.6604 0.0
H1173 H 0.61717 0.32841 0.62101 0.0
H1174 H 0.60086 0.33988 0.60341 0.0
H1175 H 0.59983 0.31639 0.60687 0.0
C1176 C 0.54882 0.36127 0.58883 0.0
C1177 C 0.54484 0.34665 0.57432 0.0
C1178 C 0.55936 0.35938 0.60943 0.0
C1179 C 0.56628 0.34292 0.61548 0.0
C1180 C 0.56249 0.32846 0.60075 0.0
H1181 H 0.56337 0.27244 0.71453 0.0
H1182 H 0.56044 0.30085 0.69583 0.0
C1183 C 0.55198 0.3303 0.58041 0.0
C1184 C 0.57587 0.33988 0.63835 0.0
H1185 H 0.60808 0.31292 0.65857 0.0
C1186 C 0.56706 0.34275 0.66024 0.0
C1187 C 0.5919 0.33063 0.63851 0.0
C1188 C 0.60306 0.32887 0.61615 0.0
C1189 C 0.57241 0.33423 0.68146 0.0
C1190 C 0.58649 0.32218 0.68038 0.0
C1191 C 0.59691 0.32166 0.65945 0.0
C1192 C 0.58807 0.30738 0.69769 0.0
C1193 C 0.56222 0.33739 0.70437 0.0
C1194 C 0.60456 0.30141 0.70546 0.0
C1195 C 0.60634 0.28474 0.71572 0.0
C1196 C 0.59163 0.27379 0.71836 0.0
C1197 C 0.575 0.28045 0.71263 0.0
C1198 C 0.57326 0.29695 0.70221 0.0
H1199 H 0.55897 0.35151 0.70614 0.0
H1200 H 0.54963 0.33014 0.70354 0.0
H1201 H 0.5696 0.33318 0.72064 0.0
H1202 H 0.6162 0.30915 0.70213 0.0
H1203 H 0.61934 0.28003 0.72008 0.0
H1204 H 0.9682 0.31142 0.97284 0.0
H1205 H 0.94379 0.30648 0.94505 0.0
H1206 H 0.95381 0.35637 0.91136 0.0
H1207 H 0.97776 0.36171 0.93969 0.0
H1208 H 0.91782 0.34539 0.90832 0.0
H1209 H 0.96529 0.29427 0.87912 0.0
H1210 H 0.95765 0.29209 0.90962 0.0
H1211 H 0.97077 0.31068 0.90123 0.0
C1212 C 0.96474 0.32164 0.96014 0.0
C1213 C 0.97511 0.33676 0.95803 0.0
C1214 C 0.95081 0.3188 0.94428 0.0
C1215 C 0.94738 0.33083 0.92573 0.0
C1216 C 0.95633 0.34687 0.92547 0.0
H1217 H 0.92611 0.30414 0.7799 0.0
H1218 H 0.93583 0.31812 0.81717 0.0
C1219 C 0.97005 0.34989 0.94166 0.0
C1220 C 0.93738 0.32531 0.90413 0.0
H1221 H 0.93948 0.29687 0.85672 0.0
C1222 C 0.92242 0.33472 0.89706 0.0
C1223 C 0.94368 0.31159 0.88927 0.0
C1224 C 0.9603 0.30165 0.89499 0.0
C1225 C 0.91362 0.33073 0.87539 0.0
C1226 C 0.91994 0.31697 0.8607 0.0
C1227 C 0.9347 0.30745 0.86803 0.0
C1228 C 0.91213 0.31232 0.83709 0.0
C1229 C 0.898 0.34155 0.86799 0.0
C1230 C 0.89527 0.30505 0.83565 0.0
C1231 C 0.88959 0.29718 0.81417 0.0
C1232 C 0.90084 0.29622 0.79409 0.0
C1233 C 0.91723 0.30454 0.79516 0.0
C1234 C 0.92277 0.31257 0.81642 0.0
H1235 H 0.89699 0.35383 0.87866 0.0
H1236 H 0.89872 0.34491 0.8485 0.0
H1237 H 0.88587 0.33383 0.87094 0.0
H1238 H 0.88697 0.30445 0.85149 0.0
H1239 H 0.87692 0.2908 0.81387 0.0
H1240 H 0.96555 0.63216 0.10605 0.0
H1241 H 0.94281 0.6345 0.13678 0.0
H1242 H 0.90529 0.61179 0.08762 0.0
H1243 H 0.9284 0.60897 0.05684 0.0
H1244 H 0.89801 0.64614 0.10217 0.0
H1245 H 0.91137 0.60604 0.18253 0.0
H1246 H 0.93132 0.61506 0.17078 0.0
H1247 H 0.91881 0.59997 0.15262 0.0
C1248 C 0.95265 0.62691 0.10224 0.0
C1249 C 0.94866 0.62033 0.07928 0.0
C1250 C 0.93967 0.62813 0.11984 0.0
C1251 C 0.92238 0.62311 0.11462 0.0
C1252 C 0.91861 0.61544 0.09215 0.0
H1253 H 0.86409 0.70302 0.19283 0.0
H1254 H 0.86304 0.67367 0.17457 0.0
C1255 C 0.93178 0.61383 0.07463 0.0
C1256 C 0.90825 0.62981 0.13045 0.0
H1257 H 0.90124 0.63632 0.19051 0.0
C1258 C 0.898 0.64357 0.12143 0.0
C1259 C 0.90808 0.62624 0.15545 0.0
C1260 C 0.91787 0.61087 0.16585 0.0
C1261 C 0.88998 0.6556 0.13708 0.0
C1262 C 0.89199 0.65345 0.16236 0.0
C1263 C 0.8999 0.63812 0.17117 0.0
C1264 C 0.89081 0.66876 0.17879 0.0
C1265 C 0.88145 0.67166 0.12638 0.0
C1266 C 0.90645 0.67514 0.18877 0.0
C1267 C 0.90704 0.69166 0.19928 0.0
C1268 C 0.89201 0.70223 0.20006 0.0
C1269 C 0.87593 0.69521 0.19226 0.0
C1270 C 0.87533 0.67851 0.1817 0.0
H1271 H 0.88194 0.67171 0.10632 0.0
H1272 H 0.8675 0.67221 0.13195 0.0
H1273 H 0.88804 0.68368 0.13306 0.0
H1274 H 0.91856 0.66787 0.18685 0.0
H1275 H 0.91958 0.69657 0.20551 0.0
H1276 H 0.62946 0.70637 0.31987 0.0
H1277 H 0.62705 0.68525 0.35321 0.0
H1278 H 0.57134 0.68174 0.34106 0.0
H1279 H 0.5736 0.70239 0.30798 0.0
H1280 H 0.60839 0.68848 0.39512 0.0
H1281 H 0.58438 0.63067 0.34663 0.0
H1282 H 0.59534 0.64847 0.3313 0.0
H1283 H 0.57203 0.64923 0.33666 0.0
C1284 C 0.61674 0.7009 0.32417 0.0
C1285 C 0.60171 0.70604 0.31123 0.0
C1286 C 0.61542 0.68883 0.34316 0.0
C1287 C 0.5991 0.68159 0.3492 0.0
C1288 C 0.58417 0.68671 0.33623 0.0
H1289 H 0.53221 0.6759 0.45113 0.0
H1290 H 0.56048 0.68011 0.43255 0.0
C1291 C 0.58545 0.69871 0.31744 0.0
C1292 C 0.59682 0.66998 0.37037 0.0
H1293 H 0.57057 0.63607 0.38664 0.0
C1294 C 0.60066 0.67663 0.39339 0.0
C1295 C 0.58753 0.65405 0.36834 0.0
C1296 C 0.58481 0.64512 0.34433 0.0
C1297 C 0.593 0.66927 0.4141 0.0
C1298 C 0.58081 0.65543 0.41141 0.0
C1299 C 0.57942 0.64706 0.38887 0.0
C1300 C 0.5665 0.65246 0.42916 0.0
C1301 C 0.59713 0.67721 0.43837 0.0
C1302 C 0.56033 0.63548 0.43413 0.0
C1303 C 0.5437 0.63302 0.44431 0.0
C1304 C 0.53303 0.64752 0.44964 0.0
C1305 C 0.54 0.66443 0.447 0.0
C1306 C 0.55644 0.66687 0.43667 0.0
H1307 H 0.61137 0.68005 0.43972 0.0
H1308 H 0.59013 0.68987 0.44026 0.0
H1309 H 0.59332 0.66844 0.45348 0.0
H1310 H 0.5678 0.62413 0.4285 0.0
H1311 H 0.53876 0.61981 0.4463 0.0
H1312 H 0.45338 0.38681 0.0916 0.0
H1313 H 0.43514 0.38634 0.12816 0.0
H1314 H 0.45302 0.33389 0.14337 0.0
H1315 H 0.47144 0.33448 0.10789 0.0
H1316 H 0.40817 0.36663 0.13707 0.0
H1317 H 0.45446 0.35301 0.20958 0.0
H1318 H 0.46178 0.36121 0.18068 0.0
H1319 H 0.45978 0.33793 0.18598 0.0
C1320 C 0.45374 0.37539 0.10316 0.0
C1321 C 0.46384 0.36066 0.09679 0.0
C1322 C 0.4433 0.37514 0.12402 0.0
C1323 C 0.44295 0.36023 0.13888 0.0
C1324 C 0.45347 0.34581 0.1328 0.0
H1325 H 0.37475 0.29051 0.17402 0.0
H1326 H 0.38434 0.3194 0.16188 0.0
C1327 C 0.46389 0.34608 0.11221 0.0
C1328 C 0.4301 0.35831 0.15885 0.0
H1329 H 0.42683 0.33502 0.21079 0.0
C1330 C 0.4122 0.36026 0.15368 0.0
C1331 C 0.43508 0.35101 0.18125 0.0
C1332 C 0.45386 0.35092 0.18973 0.0
C1333 C 0.39941 0.3525 0.16845 0.0
C1334 C 0.40478 0.34182 0.18801 0.0
C1335 C 0.42244 0.34248 0.1953 0.0
C1336 C 0.39375 0.32716 0.19737 0.0
C1337 C 0.38038 0.35515 0.16215 0.0
C1338 C 0.39521 0.32169 0.22158 0.0
C1339 C 0.39043 0.30466 0.22819 0.0
C1340 C 0.38339 0.29318 0.21097 0.0
C1341 C 0.37981 0.29933 0.1877 0.0
C1342 C 0.3852 0.31605 0.18082 0.0
H1343 H 0.37797 0.36913 0.15774 0.0
H1344 H 0.37712 0.34746 0.14574 0.0
H1345 H 0.37153 0.35126 0.17713 0.0
H1346 H 0.40159 0.32994 0.23484 0.0
H1347 H 0.39349 0.30004 0.2462 0.0
H1348 H 0.44194 0.66086 -0.00197 0.0
H1349 H 0.41343 0.66238 0.97804 0.0
H1350 H 0.43091 0.62396 0.92606 0.0
H1351 H 0.4586 0.62141 0.94718 0.0
H1352 H 0.41231 0.67638 0.93854 0.0
H1353 H 0.38135 0.6132 0.92128 0.0
H1354 H 0.39778 0.61556 0.94452 0.0
H1355 H 0.40393 0.61032 0.91378 0.0
C1356 C 0.43926 0.6521 0.98308 0.0
C1357 C 0.45246 0.64114 0.97397 0.0
C1358 C 0.42298 0.65299 0.9716 0.0
C1359 C 0.41987 0.64338 0.95033 0.0
C1360 C 0.43255 0.6312 0.9427 0.0
H1361 H 0.41021 0.6673 0.81391 0.0
H1362 H 0.40975 0.65291 0.85319 0.0
C1363 C 0.44858 0.62987 0.95469 0.0
C1364 C 0.406 0.64909 0.9331 0.0
H1365 H 0.38225 0.63373 0.8853 0.0
C1366 C 0.40508 0.66705 0.92765 0.0
C1367 C 0.3963 0.63714 0.9188 0.0
C1368 C 0.39479 0.61802 0.9252 0.0
C1369 C 0.39672 0.67305 0.90674 0.0
C1370 C 0.38916 0.66077 0.89076 0.0
C1371 C 0.38832 0.64308 0.89745 0.0
C1372 C 0.38603 0.66566 0.86533 0.0
C1373 C 0.39769 0.69229 0.90055 0.0
C1374 C 0.37236 0.67699 0.85879 0.0
C1375 C 0.37255 0.68523 0.83618 0.0
C1376 C 0.38656 0.68236 0.82013 0.0
C1377 C 0.39937 0.6699 0.82605 0.0
C1378 C 0.39905 0.66155 0.84839 0.0
H1379 H 0.40423 0.7001 0.91488 0.0
H1380 H 0.40501 0.69411 0.88339 0.0
H1381 H 0.38428 0.69754 0.8979 0.0
H1382 H 0.36225 0.68035 0.87172 0.0
H1383 H 0.3625 0.69478 0.83203 0.0
H1384 H 0.1202 0.72756 0.70421 0.0
H1385 H 0.11341 0.70216 0.67865 0.0
H1386 H 0.05914 0.71781 0.67657 0.0
H1387 H 0.06563 0.74271 0.70235 0.0
H1388 H 0.06314 0.68176 0.67823 0.0
H1389 H 0.10528 0.71189 0.60714 0.0
H1390 H 0.11541 0.70616 0.63533 0.0
H1391 H 0.09959 0.72354 0.63434 0.0
C1392 C 0.10676 0.72534 0.69873 0.0
C1393 C 0.09351 0.73733 0.70495 0.0
C1394 C 0.10293 0.71088 0.68403 0.0
C1395 C 0.08584 0.70831 0.67531 0.0
C1396 C 0.07243 0.71955 0.68301 0.0
H1397 H 0.03116 0.69162 0.55287 0.0
H1398 H 0.04921 0.69885 0.58759 0.0
C1399 C 0.07621 0.73388 0.69767 0.0
C1400 C 0.08184 0.69541 0.65607 0.0
H1401 H 0.08558 0.69033 0.59504 0.0
C1402 C 0.06837 0.68322 0.66013 0.0
C1403 C 0.08871 0.6974 0.63247 0.0
C1404 C 0.10298 0.71048 0.62686 0.0
C1405 C 0.06056 0.6741 0.6409 0.0
C1406 C 0.06656 0.67715 0.61713 0.0
C1407 C 0.08105 0.6881 0.61335 0.0
C1408 C 0.05603 0.67202 0.59583 0.0
C1409 C 0.04499 0.66247 0.64583 0.0
C1410 C 0.05389 0.65447 0.5889 0.0
C1411 C 0.04344 0.65024 0.5689 0.0
C1412 C 0.03502 0.66351 0.55561 0.0
C1413 C 0.03738 0.68105 0.56264 0.0
C1414 C 0.04776 0.68522 0.58248 0.0
H1415 H 0.04126 0.66241 0.66523 0.0
H1416 H 0.03356 0.66688 0.63503 0.0
H1417 H 0.04809 0.64886 0.6403 0.0
H1418 H 0.0603 0.64412 0.59889 0.0
H1419 H 0.04193 0.6366 0.56389 0.0
H1420 H 0.03489 0.39556 0.45854 0.0
H1421 H 0.06634 0.39847 0.45001 0.0
H1422 H 0.07221 0.34245 0.45625 0.0
H1423 H 0.04137 0.33958 0.46562 0.0
H1424 H 0.10222 0.35963 0.47041 0.0
H1425 H 0.07896 0.38581 0.38181 0.0
H1426 H 0.07488 0.39789 0.40909 0.0
H1427 H 0.06328 0.3778 0.40345 0.0
C1428 C 0.04304 0.38396 0.45877 0.0
C1429 C 0.03556 0.36728 0.46207 0.0
C1430 C 0.06099 0.38563 0.45378 0.0
C1431 C 0.07156 0.37063 0.4518 0.0
C1432 C 0.06437 0.35425 0.45756 0.0
H1433 H 0.10825 0.29861 0.38695 0.0
H1434 H 0.10872 0.32072 0.41843 0.0
C1435 C 0.04661 0.35259 0.46268 0.0
C1436 C 0.08893 0.37085 0.43974 0.0
H1437 H 0.10328 0.36777 0.38168 0.0
C1438 C 0.10285 0.36207 0.45112 0.0
C1439 C 0.09017 0.37454 0.41471 0.0
C1440 C 0.07609 0.38453 0.40141 0.0
C1441 C 0.11618 0.35414 0.43749 0.0
C1442 C 0.11541 0.35501 0.41203 0.0
C1443 C 0.1036 0.3667 0.40121 0.0
C1444 C 0.12185 0.3404 0.39673 0.0
C1445 C 0.12981 0.34331 0.45027 0.0
C1446 C 0.12981 0.34366 0.37426 0.0
C1447 C 0.12958 0.33082 0.35615 0.0
C1448 C 0.12119 0.31476 0.36033 0.0
C1449 C 0.11491 0.31089 0.38348 0.0
C1450 C 0.11536 0.32354 0.40158 0.0
H1451 H 0.13408 0.34997 0.46712 0.0
H1452 H 0.12403 0.33054 0.45552 0.0
H1453 H 0.14143 0.34092 0.43865 0.0
H1454 H 0.13469 0.35662 0.36999 0.0
H1455 H 0.1343 0.33411 0.33826 0.0
H1456 H 0.43416 0.61149 0.40994 0.0
H1457 H 0.41355 0.61305 0.37585 0.0
H1458 H 0.45073 0.64461 0.3364 0.0
H1459 H 0.47093 0.64325 0.37022 0.0
H1460 H 0.40147 0.64531 0.36625 0.0
H1461 H 0.42724 0.61942 0.28119 0.0
H1462 H 0.43431 0.61115 0.31023 0.0
H1463 H 0.44485 0.62996 0.29686 0.0
C1464 C 0.43815 0.61804 0.39349 0.0
C1465 C 0.45399 0.62738 0.39261 0.0
C1466 C 0.42641 0.61891 0.37404 0.0
C1467 C 0.43063 0.62878 0.35341 0.0
C1468 C 0.44728 0.63653 0.35176 0.0
H1469 H 0.42661 0.71254 0.2859 0.0
H1470 H 0.4273 0.68159 0.29541 0.0
C1471 C 0.45878 0.63594 0.37123 0.0
C1472 C 0.41681 0.63516 0.33679 0.0
H1473 H 0.41467 0.64989 0.27886 0.0
C1474 C 0.4037 0.64575 0.34691 0.0
C1475 C 0.4194 0.63541 0.31154 0.0
C1476 C 0.43212 0.62317 0.29937 0.0
C1477 C 0.39558 0.65892 0.33326 0.0
C1478 C 0.40048 0.66113 0.30876 0.0
C1479 C 0.4112 0.64847 0.29776 0.0
C1480 C 0.39911 0.67856 0.2971 0.0
C1481 C 0.38372 0.67174 0.34608 0.0
C1482 C 0.38298 0.68707 0.29365 0.0
C1483 C 0.38255 0.70506 0.28856 0.0
C1484 C 0.39825 0.71465 0.28662 0.0
C1485 C 0.41427 0.70565 0.2877 0.0
C1486 C 0.41468 0.68784 0.29293 0.0
H1487 H 0.382 0.66851 0.3655 0.0
H1488 H 0.38916 0.68519 0.34475 0.0
H1489 H 0.37061 0.67169 0.33745 0.0
H1490 H 0.37079 0.68008 0.29623 0.0
H1491 H 0.36998 0.71158 0.28749 0.0
H1492 H 0.03892 0.60806 0.03267 0.0
H1493 H 0.0695 0.61174 0.04571 0.0
H1494 H 0.06384 0.66781 0.04024 0.0
H1495 H 0.0339 0.66427 0.02665 0.0
H1496 H 0.097 0.65703 0.02736 0.0
H1497 H 0.07661 0.62703 0.11499 0.0
H1498 H 0.07542 0.6141 0.08792 0.0
H1499 H 0.06062 0.63214 0.09213 0.0
C1500 C 0.04438 0.62113 0.03375 0.0
C1501 C 0.03387 0.63589 0.02916 0.0
C1502 C 0.06181 0.62321 0.0413 0.0
C1503 C 0.06885 0.64007 0.04445 0.0
C1504 C 0.05874 0.65466 0.03801 0.0
H1505 H 0.10348 0.71626 0.1183 0.0
H1506 H 0.10069 0.69542 0.08528 0.0
C1507 C 0.0415 0.65261 0.03043 0.0
C1508 C 0.08554 0.64327 0.05745 0.0
H1509 H 0.09956 0.64688 0.11567 0.0
C1510 C 0.09798 0.65429 0.04653 0.0
C1511 C 0.08706 0.63945 0.08239 0.0
C1512 C 0.07425 0.62758 0.0952 0.0
C1513 C 0.11031 0.66345 0.06047 0.0
C1514 C 0.11012 0.66149 0.08582 0.0
C1515 C 0.09953 0.6485 0.09621 0.0
C1516 C 0.11673 0.67543 0.10205 0.0
C1517 C 0.12238 0.67627 0.04818 0.0
C1518 C 0.12715 0.6714 0.12221 0.0
C1519 C 0.12886 0.68347 0.14116 0.0
C1520 C 0.1198 0.69947 0.14033 0.0
C1521 C 0.11058 0.70399 0.11934 0.0
C1522 C 0.10913 0.69213 0.10034 0.0
H1523 H 0.12618 0.67144 0.02999 0.0
H1524 H 0.11544 0.68891 0.04572 0.0
H1525 H 0.1344 0.67863 0.05901 0.0
H1526 H 0.13291 0.65851 0.12404 0.0
H1527 H 0.13593 0.67964 0.15727 0.0
H1528 H 0.12806 0.28663 0.77161 0.0
H1529 H 0.12232 0.30892 0.802 0.0
H1530 H 0.08183 0.331 0.75708 0.0
H1531 H 0.08684 0.30801 0.72706 0.0
H1532 H 0.11688 0.34388 0.81239 0.0
H1533 H 0.05397 0.30674 0.80946 0.0
H1534 H 0.07264 0.30042 0.79164 0.0
H1535 H 0.05934 0.31875 0.78264 0.0
C1536 C 0.11843 0.29665 0.76766 0.0
C1537 C 0.10746 0.29524 0.74737 0.0
C1538 C 0.11517 0.30945 0.78511 0.0
C1539 C 0.10115 0.32114 0.78222 0.0
C1540 C 0.09233 0.3217 0.75998 0.0
H1541 H 0.05399 0.36892 0.91263 0.0
H1542 H 0.06835 0.3683 0.87292 0.0
C1543 C 0.09527 0.30862 0.74277 0.0
C1544 C 0.09344 0.32937 0.80403 0.0
H1545 H 0.0585 0.32516 0.84213 0.0
C1546 C 0.10395 0.34014 0.81868 0.0
C1547 C 0.07664 0.32419 0.81242 0.0
C1548 C 0.06501 0.3118 0.79839 0.0
C1549 C 0.09839 0.34523 0.84189 0.0
C1550 C 0.08197 0.33944 0.8504 0.0
C1551 C 0.07108 0.32956 0.83532 0.0
C1552 C 0.07654 0.34129 0.87585 0.0
C1553 C 0.1104 0.35583 0.85778 0.0
C1554 C 0.07674 0.32641 0.89064 0.0
C1555 C 0.06846 0.32664 0.91306 0.0
C1556 C 0.05981 0.34179 0.92112 0.0
C1557 C 0.06057 0.35706 0.9069 0.0
C1558 C 0.0688 0.35677 0.88429 0.0
H1559 H 0.12265 0.35965 0.84832 0.0
H1560 H 0.10355 0.36785 0.86395 0.0
H1561 H 0.11384 0.34812 0.8741 0.0
H1562 H 0.08259 0.31433 0.88428 0.0
H1563 H 0.06825 0.31472 0.92364 0.0
H1564 H 0.4644 0.36441 0.56273 0.0
H1565 H 0.44112 0.35462 0.58974 0.0
H1566 H 0.4268 0.31435 0.53879 0.0
H1567 H 0.45082 0.32346 0.51232 0.0
H1568 H 0.40616 0.34546 0.59398 0.0
H1569 H 0.4494 0.28667 0.59257 0.0
H1570 H 0.45515 0.30659 0.57719 0.0
H1571 H 0.43923 0.29193 0.56431 0.0
C1572 C 0.45585 0.35392 0.55683 0.0
C1573 C 0.45965 0.34437 0.53579 0.0
C1574 C 0.44251 0.34833 0.57229 0.0
C1575 C 0.43267 0.33335 0.56664 0.0
C1576 C 0.43463 0.32561 0.54379 0.0
H1577 H 0.37433 0.27945 0.6834 0.0
H1578 H 0.37902 0.29554 0.64553 0.0
C1579 C 0.44828 0.33087 0.52864 0.0
C1580 C 0.42352 0.32393 0.58634 0.0
H1581 H 0.42728 0.28735 0.62133 0.0
C1582 C 0.41052 0.33262 0.59976 0.0
C1583 C 0.42948 0.30726 0.59406 0.0
C1584 C 0.44416 0.29759 0.58147 0.0
C1585 C 0.40381 0.32533 0.6212 0.0
C1586 C 0.41019 0.30896 0.62911 0.0
C1587 C 0.42246 0.29992 0.61507 0.0
C1588 C 0.40612 0.30169 0.65318 0.0
C1589 C 0.39072 0.33552 0.63597 0.0
C1590 C 0.41974 0.30004 0.67001 0.0
C1591 C 0.4172 0.29074 0.69133 0.0
C1592 C 0.40094 0.28292 0.69633 0.0
C1593 C 0.38699 0.28535 0.68003 0.0
C1594 C 0.38961 0.2946 0.65848 0.0
H1595 H 0.3882 0.34874 0.62836 0.0
H1596 H 0.37814 0.32824 0.63664 0.0
H1597 H 0.39549 0.33696 0.65481 0.0
H1598 H 0.43258 0.30543 0.6662 0.0
H1599 H 0.42816 0.28927 0.7036 0.0
H1600 H 0.31656 0.2266 0.25146 0.0
H1601 H 0.28618 0.22735 0.26532 0.0
H1602 H 0.27182 0.25784 0.20287 0.0
H1603 H 0.30214 0.257 0.18866 0.0
H1604 H 0.26742 0.25737 0.27645 0.0
H1605 H 0.23427 0.21962 0.20405 0.0
H1606 H 0.2577 0.21906 0.20853 0.0
H1607 H 0.24772 0.23719 0.19308 0.0
C1608 C 0.30691 0.2333 0.2405 0.0
C1609 C 0.31177 0.24175 0.21894 0.0
C1610 C 0.28956 0.23371 0.24847 0.0
C1611 C 0.27673 0.24246 0.23498 0.0
C1612 C 0.28146 0.25071 0.21329 0.0
H1613 H 0.17006 0.27486 0.25505 0.0
H1614 H 0.19968 0.26855 0.2408 0.0
C1615 C 0.29882 0.2503 0.20528 0.0
C1616 C 0.25866 0.24398 0.24442 0.0
H1617 H 0.21583 0.23572 0.23086 0.0
C1618 C 0.25614 0.25248 0.26663 0.0
C1619 C 0.24401 0.2376 0.23151 0.0
C1620 C 0.24602 0.22771 0.20807 0.0
C1621 C 0.23929 0.25526 0.27596 0.0
C1622 C 0.22462 0.24912 0.26287 0.0
C1623 C 0.22714 0.2404 0.24082 0.0
C1624 C 0.20651 0.25227 0.27132 0.0
C1625 C 0.23728 0.26526 0.29932 0.0
C1626 C 0.20049 0.24497 0.29304 0.0
C1627 C 0.18356 0.24857 0.3013 0.0
C1628 C 0.17237 0.25949 0.28789 0.0
C1629 C 0.17836 0.26647 0.26587 0.0
C1630 C 0.19526 0.26284 0.25766 0.0
H1631 H 0.24949 0.2723 0.30435 0.0
H1632 H 0.22644 0.27491 0.29801 0.0
H1633 H 0.23407 0.25596 0.31407 0.0
H1634 H 0.20891 0.23653 0.30364 0.0
H1635 H 0.17931 0.24291 0.31824 0.0
H1636 H 0.98583 0.91225 0.47239 0.0
H1637 H 0.98317 0.94323 0.46183 0.0
H1638 H 0.01263 0.95729 0.5254 0.0
H1639 H 0.01548 0.92636 0.53606 0.0
H1640 H 0.96822 0.97061 0.49009 0.0
H1641 H 0.03842 0.98253 0.4697 0.0
H1642 H 0.02914 0.96081 0.47135 0.0
H1643 H 0.03446 0.97252 0.49855 0.0
C1644 C 0.99178 0.92192 0.48412 0.0
C1645 C 0.00094 0.91685 0.50502 0.0
C1646 C 0.99024 0.9396 0.47804 0.0
C1647 C 0.99795 0.95247 0.49264 0.0
C1648 C 0.00689 0.94749 0.51367 0.0
H1649 H 0.00355 0.06367 0.50268 0.0
H1650 H 0.00642 0.03197 0.5059 0.0
C1651 C 0.00841 0.92982 0.5198 0.0
C1652 C 0.99627 0.97117 0.48625 0.0
H1653 H 0.02017 0.00769 0.47314 0.0
C1654 C 0.97953 0.97872 0.48612 0.0
C1655 C 0.01108 0.98161 0.48103 0.0
C1656 C 0.02929 0.97396 0.47992 0.0
C1657 C 0.97725 0.99668 0.48187 0.0
C1658 C 0.99212 0.00721 0.47719 0.0
C1659 C 0.00882 -0.00045 0.47674 0.0
C1660 C 0.99075 0.0264 0.47427 0.0
C1661 C 0.95907 0.00436 0.4834 0.0
C1662 C 0.98124 0.03376 0.45512 0.0
C1663 C 0.9795 0.05194 0.45324 0.0
C1664 C 0.98736 0.063 0.47043 0.0
C1665 C 0.99727 0.05554 0.48918 0.0
C1666 C -0.00104 0.03742 0.49105 0.0
H1667 H 0.94967 0.99524 0.49214 0.0
H1668 H 0.95919 0.01684 0.4937 0.0
H1669 H 0.95425 0.00718 0.46491 0.0
H1670 H 0.97508 0.02545 0.44173 0.0
H1671 H 0.97187 0.05729 0.4385 0.0
H1672 H 0.32141 0.72188 0.72941 0.0
H1673 H 0.29037 0.72798 0.7224 0.0
H1674 H 0.28497 0.74572 0.79599 0.0
H1675 H 0.31603 0.73988 0.80312 0.0
H1676 H 0.26073 0.71453 0.74633 0.0
H1677 H 0.26554 0.78672 0.75635 0.0
H1678 H 0.28453 0.77295 0.75227 0.0
H1679 H 0.27421 0.77453 0.78137 0.0
C1680 C 0.31364 0.7271 0.74412 0.0
C1681 C 0.32122 0.73051 0.76679 0.0
C1682 C 0.2959 0.73055 0.74007 0.0
C1683 C 0.28547 0.73755 0.75857 0.0
C1684 C 0.2929 0.74065 0.78134 0.0
H1685 H 0.17685 0.76903 0.77002 0.0
H1686 H 0.20747 0.76135 0.77741 0.0
C1687 C 0.31063 0.73722 0.78541 0.0
C1688 C 0.26678 0.74149 0.75406 0.0
H1689 H 0.23696 0.77477 0.75329 0.0
C1690 C 0.25552 0.7277 0.74774 0.0
C1691 C 0.26007 0.75869 0.75593 0.0
C1692 C 0.27171 0.77412 0.76163 0.0
C1693 C 0.23761 0.73061 0.74367 0.0
C1694 C 0.2309 0.74781 0.74562 0.0
C1695 C 0.24216 0.7616 0.75189 0.0
C1696 C 0.21221 0.75185 0.74118 0.0
C1697 C 0.22595 0.71523 0.73783 0.0
C1698 C 0.2048 0.74914 0.7183 0.0
C1699 C 0.18729 0.75351 0.714 0.0
C1700 C 0.17694 0.76076 0.73249 0.0
C1701 C 0.18444 0.76345 0.75539 0.0
C1702 C 0.20194 0.75908 0.75966 0.0
H1703 H 0.23214 0.70259 0.7429 0.0
H1704 H 0.21316 0.71635 0.74728 0.0
H1705 H 0.22339 0.71497 0.7181 0.0
H1706 H 0.21262 0.74388 0.70367 0.0
H1707 H 0.18194 0.75134 0.69613 0.0
H1708 H 0.54462 0.05181 0.01912 0.0
H1709 H 0.53625 0.02156 0.01014 0.0
H1710 H 0.48292 0.03805 -0.00191 0.0
H1711 H 0.49104 0.06817 0.00765 0.0
H1712 H 0.48419 0.00894 0.02496 0.0
H1713 H 0.52647 0.00083 0.94434 0.0
H1714 H 0.53849 0.00712 0.97081 0.0
H1715 H 0.52256 0.02187 0.95816 0.0
C1716 C 0.53111 0.04899 0.01456 0.0
C1717 C 0.51852 0.06241 0.01401 0.0
C1718 C 0.52638 0.03172 0.00924 0.0
C1719 C 0.50903 0.02761 0.00295 0.0
C1720 C 0.4964 0.04094 0.00275 0.0
H1721 H 0.47727 0.92837 0.93783 0.0
H1722 H 0.48317 0.95941 0.94556 0.0
C1723 C 0.50108 0.05816 0.00824 0.0
C1724 C 0.50389 0.00937 -0.0029 0.0
H1725 H 0.51315 0.97494 0.95987 0.0
C1726 C 0.49046 0.00154 0.01064 0.0
C1727 C 0.51184 -0.00017 0.97811 0.0
C1728 C 0.52551 0.00789 0.96185 0.0
C1729 C 0.48502 0.98431 0.00608 0.0
C1730 C 0.49358 0.97448 0.98789 0.0
C1731 C 0.50672 0.98243 0.97397 0.0
C1732 C 0.48938 0.9558 0.98338 0.0
C1733 C 0.47001 0.97691 0.02059 0.0
C1734 C 0.49101 0.94348 0.00201 0.0
C1735 C 0.48749 0.92583 -0.00227 0.0
C1736 C 0.48253 0.92006 0.97458 0.0
C1737 C 0.48101 0.93239 0.95586 0.0
C1738 C 0.48441 0.95012 0.96024 0.0
H1739 H 0.46149 0.98747 0.02787 0.0
H1740 H 0.46184 0.96793 0.00955 0.0
H1741 H 0.4753 0.96947 0.03617 0.0
H1742 H 0.49529 0.94748 0.01983 0.0
H1743 H 0.48897 0.91666 0.0125 0.0
H1744 H 0.19113 0.75248 0.18811 0.0
H1745 H 0.2212 0.75632 0.20222 0.0
H1746 H 0.21135 0.72083 0.26123 0.0
H1747 H 0.18113 0.71705 0.24745 0.0
H1748 H 0.22746 0.75227 0.27514 0.0
H1749 H 0.26202 0.72165 0.19767 0.0
H1750 H 0.24667 0.73837 0.18925 0.0
H1751 H 0.23891 0.71856 0.20311 0.0
C1752 C 0.19538 0.74536 0.20398 0.0
C1753 C 0.18375 0.73442 0.21662 0.0
C1754 C 0.2126 0.74752 0.21194 0.0
C1755 C 0.21853 0.73868 0.23257 0.0
C1756 C 0.20701 0.7277 0.2452 0.0
H1757 H 0.31711 0.73827 0.31129 0.0
H1758 H 0.28687 0.73365 0.29816 0.0
C1759 C 0.18977 0.72553 0.23726 0.0
C1760 C 0.23658 0.74143 0.2415 0.0
H1761 H 0.2796 0.73733 0.22574 0.0
C1762 C 0.23888 0.74891 0.26444 0.0
C1763 C 0.2514 0.73705 0.22743 0.0
C1764 C 0.2497 0.72831 0.20308 0.0
C1765 C 0.25567 0.75248 0.27351 0.0
C1766 C 0.27048 0.74821 0.25936 0.0
C1767 C 0.26818 0.74064 0.23648 0.0
C1768 C 0.28853 0.75149 0.2679 0.0
C1769 C 0.25741 0.76116 0.29788 0.0
C1770 C 0.29949 0.7629 0.25506 0.0
C1771 C 0.31678 0.76552 0.26244 0.0
C1772 C 0.32344 0.75668 0.28272 0.0
C1773 C 0.31236 0.74535 0.29566 0.0
C1774 C 0.29506 0.74274 0.28826 0.0
H1775 H 0.24494 0.76735 0.30375 0.0
H1776 H 0.26107 0.75117 0.31152 0.0
H1777 H 0.26784 0.7713 0.29759 0.0
H1778 H 0.29468 0.76972 0.23924 0.0
H1779 H 0.32498 0.77431 0.25204 0.0
H1780 H 0.47889 0.93838 0.44723 0.0
H1781 H 0.47878 0.97025 0.4521 0.0
H1782 H 0.51359 0.96564 0.51309 0.0
H1783 H 0.51371 0.93386 0.50854 0.0
H1784 H 0.48344 0.98662 0.52132 0.0
H1785 H 0.51858 0.00544 0.43726 0.0
H1786 H 0.50027 0.99091 0.43327 0.0
H1787 H 0.51928 0.98351 0.44942 0.0
C1788 C 0.48665 0.94416 0.46155 0.0
C1789 C 0.49631 0.93359 0.47749 0.0
C1790 C 0.48662 0.96236 0.46423 0.0
C1791 C 0.49631 0.97025 0.48281 0.0
C1792 C 0.50607 0.95976 0.4986 0.0
H1793 H 0.51153 0.07525 0.53812 0.0
H1794 H 0.51132 0.0436 0.53137 0.0
C1795 C 0.50613 0.9416 0.49593 0.0
C1796 C 0.49573 0.9894 0.48653 0.0
H1797 H 0.50678 0.02845 0.46082 0.0
C1798 C 0.48856 0.99579 0.50814 0.0
C1799 C 0.50238 0.00125 0.46922 0.0
C1800 C 0.5107 0.995 0.44605 0.0
C1801 C 0.48772 0.0138 0.51285 0.0
C1802 C 0.49454 0.02567 0.49566 0.0
C1803 C 0.50159 0.01928 0.47396 0.0
C1804 C 0.49456 0.04478 0.4999 0.0
C1805 C 0.47926 0.01999 0.53598 0.0
C1806 C 0.4855 0.05591 0.48413 0.0
C1807 C 0.48567 0.07399 0.48784 0.0
C1808 C 0.49499 0.08126 0.50733 0.0
C1809 C 0.50413 0.07006 0.52304 0.0
C1810 C 0.50396 0.05197 0.51929 0.0
H1811 H 0.4707 0.00976 0.54399 0.0
H1812 H 0.48963 0.02318 0.54933 0.0
H1813 H 0.47134 0.03196 0.53287 0.0
H1814 H 0.47823 0.0506 0.469 0.0
H1815 H 0.47853 0.08226 0.47537 0.0
H1816 H 0.17551 0.2274 0.71592 0.0
H1817 H 0.20748 0.22672 0.71421 0.0
H1818 H 0.21013 0.25386 0.78243 0.0
H1819 H 0.17812 0.25449 0.78447 0.0
H1820 H 0.22964 0.25627 0.71428 0.0
H1821 H 0.24357 0.21206 0.79157 0.0
H1822 H 0.2222 0.21357 0.77776 0.0
H1823 H 0.22944 0.2302 0.79844 0.0
C1824 C 0.18287 0.23308 0.73071 0.0
C1825 C 0.17427 0.24099 0.75036 0.0
C1826 C 0.20113 0.23269 0.72966 0.0
C1827 C 0.21113 0.24008 0.74829 0.0
C1828 C 0.20263 0.24782 0.76807 0.0
H1829 H 0.32178 0.2567 0.77185 0.0
H1830 H 0.28983 0.25587 0.77417 0.0
C1831 C 0.18434 0.24823 0.76914 0.0
C1832 C 0.23044 0.24042 0.74641 0.0
H1833 H 0.26794 0.22637 0.77373 0.0
C1834 C 0.23804 0.24966 0.72718 0.0
C1835 C 0.24129 0.23183 0.76334 0.0
C1836 C 0.23376 0.22122 0.78384 0.0
C1837 C 0.25628 0.2508 0.72465 0.0
C1838 C 0.26714 0.2422 0.74158 0.0
C1839 C 0.25954 0.23294 0.76079 0.0
C1840 C 0.28646 0.2428 0.73982 0.0
C1841 C 0.26377 0.26155 0.70424 0.0
C1842 C 0.29512 0.23559 0.71979 0.0
C1843 C 0.31339 0.23607 0.71835 0.0
C1844 C 0.3233 0.24367 0.73702 0.0
C1845 C 0.31455 0.25078 0.75713 0.0
C1846 C 0.2963 0.2503 0.75852 0.0
H1847 H 0.25394 0.27073 0.69663 0.0
H1848 H 0.27532 0.26919 0.71037 0.0
H1849 H 0.26808 0.25265 0.68953 0.0
H1850 H 0.28775 0.22944 0.70537 0.0
H1851 H 0.31974 0.23039 0.7027 0.0
H1852 H 0.00292 0.07359 0.97102 0.0
H1853 H 0.01096 0.0431 0.97843 0.0
H1854 H 0.95855 0.03232 0.0034 0.0
H1855 H 0.95031 0.06279 -0.00404 0.0
H1856 H 0.00911 0.02712 0.0244 0.0
H1857 H 0.96919 0.99155 0.95637 0.0
H1858 H 0.97387 0.01468 0.95413 0.0
H1859 H 0.95719 0.00701 0.97442 0.0
C1860 C 0.993 0.06469 0.97774 0.0
C1861 C 0.97597 0.07063 0.98297 0.0
C1862 C 0.99765 0.04728 0.98198 0.0
C1863 C 0.98532 0.03546 0.99128 0.0
C1864 C 0.96818 0.04119 -0.00414 0.0
H1865 H 0.00051 0.94027 0.07174 0.0
H1866 H 0.99396 0.9699 0.05774 0.0
C1867 C 0.96352 0.05863 0.99169 0.0
C1868 C 0.99076 0.01753 -0.00204 0.0
H1869 H 0.98265 0.97431 0.98703 0.0
C1870 C 0.00343 0.01556 0.01612 0.0
C1871 C 0.9834 0.00253 0.98698 0.0
C1872 C 0.97027 0.00397 0.96673 0.0
C1873 C 0.00863 -0.00108 0.02405 0.0
C1874 C 0.00082 0.98393 0.01366 0.0
C1875 C 0.98849 0.98588 0.99506 0.0
C1876 C 0.00509 0.96611 0.02218 0.0
C1877 C 0.02246 0.9975 0.04341 0.0
C1878 C 0.01335 0.95416 0.0067 0.0
C1879 C 0.01714 0.93722 0.01464 0.0
C1880 C 0.01256 0.93191 0.03814 0.0
C1881 C 0.00427 0.94395 0.05358 0.0
C1882 C 0.00056 0.9609 0.04565 0.0
H1883 H 0.03001 0.00985 0.0454 0.0
H1884 H 0.01605 0.99462 0.06096 0.0
H1885 H 0.03171 0.98667 0.03936 0.0
H1886 H 0.01688 0.95796 0.98848 0.0
H1887 H 0.02348 0.92824 0.00226 0.0
H1888 H 0.8199 0.76283 0.6981 0.0
H1889 H 0.78861 0.76494 0.7072 0.0
H1890 H 0.7962 0.73417 0.77163 0.0
H1891 H 0.82751 0.73213 0.76287 0.0
H1892 H 0.76538 0.73661 0.71198 0.0
H1893 H 0.76788 0.77642 0.79597 0.0
H1894 H 0.78616 0.77482 0.77537 0.0
H1895 H 0.78158 0.75729 0.79604 0.0
C1896 C 0.81495 0.75663 0.71431 0.0
C1897 C 0.8262 0.74732 0.72977 0.0
C1898 C 0.79708 0.75785 0.71948 0.0
C1899 C 0.79017 0.74991 0.74024 0.0
C1900 C 0.80135 0.74069 0.75577 0.0
H1901 H 0.68285 0.73698 0.79177 0.0
H1902 H 0.71483 0.73598 0.78745 0.0
C1903 C 0.81922 0.73944 0.75063 0.0
C1904 C 0.7711 0.75048 0.74491 0.0
H1905 H 0.74021 0.76467 0.78505 0.0
C1906 C 0.75987 0.74279 0.72791 0.0
C1907 C 0.76401 0.75843 0.76582 0.0
C1908 C 0.77549 0.76735 0.78429 0.0
C1909 C 0.74167 0.74279 0.73127 0.0
C1910 C 0.73456 0.75094 0.752 0.0
C1911 C 0.74578 0.75843 0.76919 0.0
C1912 C 0.71543 0.75231 0.75556 0.0
C1913 C 0.7302 0.73392 0.71273 0.0
C1914 C 0.70535 0.76218 0.73942 0.0
C1915 C 0.68718 0.7628 0.74181 0.0
C1916 C 0.67874 0.75358 0.76048 0.0
C1917 C 0.68895 0.74415 0.77714 0.0
C1918 C 0.70719 0.74357 0.77473 0.0
H1919 H 0.73777 0.72465 0.7013 0.0
H1920 H 0.71933 0.72669 0.72156 0.0
H1921 H 0.72439 0.74399 0.70072 0.0
H1922 H 0.71153 0.76926 0.72476 0.0
H1923 H 0.67974 0.7703 0.72876 0.0
H1924 H 0.67581 0.27368 0.2554 0.0
H1925 H 0.70709 0.27024 0.2637 0.0
H1926 H 0.71279 0.23897 0.1993 0.0
H1927 H 0.68158 0.24248 0.19067 0.0
H1928 H 0.72498 0.23856 0.27092 0.0
H1929 H 0.7522 0.27525 0.19287 0.0
H1930 H 0.72962 0.2772 0.20223 0.0
H1931 H 0.73666 0.25853 0.185 0.0
C1932 C 0.68373 0.26619 0.24287 0.0
C1933 C 0.67621 0.25838 0.22233 0.0
C1934 C 0.70159 0.26423 0.24767 0.0
C1935 C 0.71227 0.25453 0.23197 0.0
C1936 C 0.70484 0.24679 0.2114 0.0
H1937 H 0.82174 0.22361 0.23422 0.0
H1938 H 0.79069 0.22753 0.22461 0.0
C1939 C 0.68697 0.24873 0.20657 0.0
C1940 C 0.73102 0.2519 0.2377 0.0
H1941 H 0.77244 0.25923 0.21672 0.0
C1942 C 0.73538 0.24315 0.25915 0.0
C1943 C 0.74451 0.25783 0.22222 0.0
C1944 C 0.74058 0.26786 0.19938 0.0
C1945 C 0.75289 0.23995 0.2654 0.0
C1946 C 0.76638 0.24594 0.24997 0.0
C1947 C 0.76204 0.25464 0.22848 0.0
C1948 C 0.78511 0.24348 0.25597 0.0
C1949 C 0.7568 0.2299 0.28823 0.0
C1950 C 0.79227 0.25132 0.27666 0.0
C1951 C 0.80997 0.2491 0.28223 0.0
C1952 C 0.82088 0.23908 0.26712 0.0
C1953 C 0.81369 0.23136 0.24628 0.0
C1954 C 0.79596 0.2336 0.24073 0.0
H1955 H 0.74521 0.22242 0.29463 0.0
H1956 H 0.76784 0.22065 0.28545 0.0
H1957 H 0.76059 0.23924 0.30269 0.0
H1958 H 0.78417 0.25928 0.28841 0.0
H1959 H 0.81511 0.25531 0.29833 0.0
H1960 H 0.67662 0.25534 0.69802 0.0
H1961 H 0.70752 0.2604 0.7075 0.0
H1962 H 0.70182 0.23092 0.77345 0.0
H1963 H 0.67102 0.22555 0.76397 0.0
H1964 H 0.7226 0.27666 0.748 0.0
H1965 H 0.74334 0.20714 0.74015 0.0
H1966 H 0.72253 0.21489 0.72897 0.0
H1967 H 0.72552 0.21089 0.76069 0.0
C1968 C 0.68194 0.24989 0.71451 0.0
C1969 C 0.6714 0.23992 0.73014 0.0
C1970 C 0.69958 0.25283 0.71991 0.0
C1971 C 0.70698 0.24582 0.74099 0.0
C1972 C 0.69643 0.23614 0.75685 0.0
H1973 H 0.81407 0.24611 0.79551 0.0
H1974 H 0.78216 0.24381 0.79233 0.0
C1975 C 0.67882 0.23315 0.75144 0.0
C1976 C 0.72575 0.24866 0.74634 0.0
H1977 H 0.7646 0.22728 0.75398 0.0
C1978 C 0.7318 0.26588 0.74932 0.0
C1979 C 0.73767 0.23455 0.7481 0.0
C1980 C 0.73202 0.21583 0.74411 0.0
C1981 C 0.74952 0.26937 0.7541 0.0
C1982 C 0.76146 0.25527 0.75559 0.0
C1983 C 0.75536 0.23805 0.75294 0.0
C1984 C 0.7805 0.25806 0.75865 0.0
C1985 C 0.75528 0.28808 0.75769 0.0
C1986 C 0.79008 0.26689 0.7408 0.0
C1987 C 0.80827 0.26821 0.74253 0.0
C1988 C 0.81723 0.26063 0.7621 0.0
C1989 C 0.80756 0.25212 0.78024 0.0
C1990 C 0.78934 0.25077 0.77845 0.0
H1991 H 0.74411 0.29668 0.76269 0.0
H1992 H 0.76547 0.28903 0.77196 0.0
H1993 H 0.76096 0.29309 0.74059 0.0
H1994 H 0.78353 0.2723 0.72514 0.0
H1995 H 0.81532 0.27482 0.72822 0.0
H1996 H 0.81221 0.74206 0.1935 0.0
H1997 H 0.78182 0.74216 0.20738 0.0
H1998 H 0.79802 0.76428 0.27548 0.0
H1999 H 0.8285 0.7644 0.26171 0.0
H2000 H 0.76831 0.7249 0.24922 0.0
H2001 H 0.75818 0.79705 0.25235 0.0
H2002 H 0.77606 0.78714 0.23595 0.0
H2003 H 0.77694 0.78873 0.26827 0.0
C2004 C 0.80933 0.74704 0.21139 0.0
C2005 C 0.82277 0.75327 0.22647 0.0
C2006 C 0.79197 0.74705 0.21929 0.0
C2007 C 0.7877 0.75339 0.24233 0.0
C2008 C 0.80104 0.7596 0.25749 0.0
H2009 H 0.68282 0.76257 0.30653 0.0
H2010 H 0.71476 0.7629 0.30141 0.0
C2011 C 0.81844 0.75957 0.24961 0.0
C2012 C 0.76927 0.75305 0.25053 0.0
H2013 H 0.73445 0.77928 0.26426 0.0
C2014 C 0.76091 0.73677 0.25264 0.0
C2015 C 0.75976 0.76858 0.25519 0.0
C2016 C 0.76809 0.78641 0.2527 0.0
C2017 C 0.74316 0.7356 0.25886 0.0
C2018 C 0.73347 0.75114 0.26261 0.0
C2019 C 0.74196 0.76741 0.26133 0.0
C2020 C 0.71426 0.7508 0.26608 0.0
C2021 C 0.7349 0.71773 0.26124 0.0
C2022 C 0.70349 0.74413 0.24776 0.0
C2023 C 0.68535 0.74392 0.25059 0.0
C2024 C 0.67758 0.7505 0.27178 0.0
C2025 C 0.6884 0.75735 0.29005 0.0
C2026 C 0.70662 0.75756 0.28716 0.0
H2027 H 0.74487 0.7075 0.26501 0.0
H2028 H 0.72495 0.71755 0.27588 0.0
H2029 H 0.7283 0.71429 0.24402 0.0
H2030 H 0.70912 0.7392 0.23112 0.0
H2031 H 0.67742 0.73865 0.23609 0.0
H2032 H 0.51016 0.43742 0.05237 0.0
H2033 H 0.51205 0.46811 0.04009 0.0
H2034 H 0.47767 0.4577 0.97997 0.0
H2035 H 0.47551 0.42704 0.99224 0.0
H2036 H 0.52419 0.48113 0.99535 0.0
H2037 H 0.45511 0.50034 0.01293 0.0
H2038 H 0.46465 0.48059 0.02509 0.0
H2039 H 0.45782 0.48139 0.99406 0.0
C2040 C 0.50288 0.44167 0.03665 0.0
C2041 C 0.49263 0.4298 0.02333 0.0
C2042 C 0.50402 0.4592 0.02963 0.0
C2043 C 0.49486 0.46518 0.00929 0.0
C2044 C 0.48459 0.45339 -0.00402 0.0
H2045 H 0.48664 0.56825 0.94311 0.0
H2046 H 0.48532 0.53674 0.95094 0.0
C2047 C 0.48344 0.43587 0.00297 0.0
C2048 C 0.49647 0.48365 0.00166 0.0
H2049 H 0.47315 0.52132 0.99376 0.0
C2050 C 0.51305 0.48995 0.99502 0.0
C2051 C 0.48187 0.49504 0.00114 0.0
C2052 C 0.46387 0.48909 0.00887 0.0
C2053 C 0.51544 0.50738 0.98776 0.0
C2054 C 0.50089 0.51882 0.98755 0.0
C2055 C 0.48426 0.51247 0.99389 0.0
C2056 C 0.50271 0.53763 0.98176 0.0
C2057 C 0.53346 0.51334 0.98014 0.0
C2058 C 0.51296 0.54852 -0.00351 0.0
C2059 C 0.51376 0.56649 0.99208 0.0
C2060 C 0.50422 0.57392 0.97293 0.0
C2061 C 0.49418 0.56293 0.95796 0.0
C2062 C 0.49338 0.54494 0.96242 0.0
H2063 H 0.5419 0.50212 0.97488 0.0
H2064 H 0.5327 0.52262 0.96474 0.0
H2065 H 0.53985 0.52016 -0.0045 0.0
H2066 H 0.51999 0.54317 0.01179 0.0
H2067 H 0.52156 0.57459 0.00401 0.0
H2068 H 0.96815 0.43306 0.4952 0.0
H2069 H 0.96999 0.46401 0.50656 0.0
H2070 H 0.00468 0.47359 0.44652 0.0
H2071 H 0.00279 0.44282 0.43486 0.0
H2072 H 0.00025 0.48317 0.51876 0.0
H2073 H 0.96705 0.51136 0.43863 0.0
H2074 H 0.96564 0.48843 0.4463 0.0
H2075 H 0.98474 0.49684 0.43121 0.0
C2076 C 0.97604 0.44179 0.48428 0.0
C2077 C 0.98526 0.4355 0.46405 0.0
C2078 C 0.97711 0.45944 0.49084 0.0
C2079 C 0.98728 0.4711 0.47719 0.0
C2080 C 0.99648 0.46486 0.45701 0.0
H2081 H 0.01778 0.57929 0.48184 0.0
H2082 H 0.01474 0.54791 0.47446 0.0
C2083 C 0.99543 0.44725 0.45044 0.0
C2084 C 0.98877 0.4897 0.4844 0.0
H2085 H 0.98243 0.53134 0.46396 0.0
C2086 C 0.99622 0.49373 0.50691 0.0
C2087 C 0.98347 0.50339 0.46888 0.0
C2088 C 0.97462 0.49983 0.445 0.0
C2089 C -0.00097 0.51117 0.51399 0.0
C2090 C 0.99406 0.52484 0.49823 0.0
C2091 C 0.98634 0.52079 0.47592 0.0
C2092 C 0.99694 0.54349 0.50425 0.0
C2093 C 0.00777 0.51483 0.5379 0.0
C2094 C 0.98807 0.55135 0.52362 0.0
C2095 C 0.98978 0.56931 0.52793 0.0
C2096 C 0.00033 0.57972 0.51282 0.0
C2097 C 0.00954 0.57167 0.49381 0.0
C2098 C 0.00781 0.55375 0.48953 0.0
H2099 H 0.01422 0.50298 0.5454 0.0
H2100 H 0.01771 0.52536 0.53604 0.0
H2101 H 0.99776 0.51931 0.55106 0.0
H2102 H 0.9794 0.54369 0.53495 0.0
H2103 H 0.98246 0.5751 0.54266 0.0
H2104 H 0.00105 0.41831 0.93981 0.0
H2105 H 0.99759 0.4497 0.94747 0.0
H2106 H 0.02596 0.44439 0.01441 0.0
H2107 H 0.02964 0.41311 0.00686 0.0
H2108 H 0.98103 0.46519 0.98793 0.0
H2109 H 0.05069 0.48547 0.98062 0.0
H2110 H 0.04278 0.46478 0.96918 0.0
H2111 H 0.04686 0.46755 0.00093 0.0
C2112 C 0.00668 0.42384 0.95606 0.0
C2113 C 0.01566 0.41323 0.97269 0.0
C2114 C 0.00467 0.44176 0.96041 0.0
C2115 C 0.01172 0.44936 0.98133 0.0
C2116 C 0.02071 0.43882 -0.00207 0.0
H2117 H 0.0102 0.55188 0.0475 0.0
H2118 H 0.0144 0.52096 0.03749 0.0
C2119 C 0.02271 0.42093 0.99363 0.0
C2120 C 0.00905 0.46818 0.98636 0.0
H2121 H 0.03079 0.50657 -0.00374 0.0
C2122 C 0.99188 0.47429 0.98957 0.0
C2123 C 0.02327 0.47994 0.98859 0.0
C2124 C 0.04194 0.47418 0.98445 0.0
C2125 C 0.98854 0.49183 -0.0045 0.0
C2126 C 0.00276 0.50358 -0.00217 0.0
C2127 C 0.01993 0.49749 0.99449 0.0
C2128 C 0.0001 0.52226 0.0038 0.0
C2129 C 0.96988 0.49754 -0.00016 0.0
C2130 C 0.99083 0.53323 0.98803 0.0
C2131 C 0.98838 0.55087 0.99369 0.0
C2132 C 0.99526 0.55788 0.0152 0.0
C2133 C 0.00469 0.54688 0.03085 0.0
C2134 C 0.00712 0.52923 0.02515 0.0
H2135 H 0.96108 0.48621 0.00323 0.0
H2136 H 0.96906 0.50662 0.01548 0.0
H2137 H 0.96498 0.50454 0.98364 0.0
H2138 H 0.9856 0.52815 0.97124 0.0
H2139 H 0.98115 0.55902 0.98118 0.0
H2140 H 0.48895 0.42087 0.51891 0.0
H2141 H 0.48233 0.45195 0.51428 0.0
H2142 H 0.53681 0.46257 0.49972 0.0
H2143 H 0.54357 0.43137 0.50397 0.0
H2144 H 0.49536 0.48114 0.5391 0.0
H2145 H 0.51152 0.48376 0.44127 0.0
H2146 H 0.50867 0.46339 0.45729 0.0
H2147 H 0.52872 0.47553 0.46026 0.0
C2148 C 0.49956 0.42979 0.51476 0.0
C2149 C 0.51678 0.42362 0.5116 0.0
C2150 C 0.49574 0.44755 0.51216 0.0
C2151 C 0.50902 0.45948 0.5063 0.0
C2152 C 0.52631 0.45349 0.50379 0.0
H2153 H 0.50792 0.57065 0.47544 0.0
H2154 H 0.51617 0.54042 0.48402 0.0
C2155 C 0.53016 0.43568 0.50634 0.0
C2156 C 0.50464 0.47816 0.5026 0.0
H2157 H 0.50421 0.51053 0.46015 0.0
C2158 C 0.49728 0.48759 0.52186 0.0
C2159 C 0.50714 0.48648 0.48005 0.0
C2160 C 0.5143 0.47677 0.45844 0.0
C2161 C 0.49251 0.50523 0.51923 0.0
C2162 C 0.49493 0.51351 0.49665 0.0
C2163 C 0.50239 0.50411 0.47744 0.0
C2164 C 0.48983 0.53195 0.49245 0.0
C2165 C 0.48519 0.51494 0.54073 0.0
C2166 C 0.47225 0.53717 0.49423 0.0
C2167 C 0.46746 0.55448 0.48935 0.0
C2168 C 0.48018 0.56681 0.48245 0.0
C2169 C 0.49779 0.5615 0.48072 0.0
C2170 C 0.50254 0.54422 0.48561 0.0
H2171 H 0.48827 0.50817 0.55797 0.0
H2172 H 0.49042 0.52849 0.54157 0.0
H2173 H 0.47073 0.51572 0.53904 0.0
H2174 H 0.46219 0.52779 0.49903 0.0
H2175 H 0.45379 0.55813 0.49075 0.0
H2176 H 0.05622 0.36235 0.04762 0.0
H2177 H 0.07082 0.36046 0.08697 0.0
H2178 H 0.05256 0.30731 0.09489 0.0
H2179 H 0.03856 0.30888 0.05541 0.0
H2180 H 0.05902 0.35519 0.13116 0.0
H2181 H 0.10361 0.30091 0.10822 0.0
H2182 H 0.0912 0.31247 0.08554 0.0
H2183 H 0.08142 0.29468 0.10217 0.0
C2184 C 0.05535 0.35027 0.05779 0.0
C2185 C 0.04641 0.33569 0.04836 0.0
C2186 C 0.06373 0.3492 0.0802 0.0
C2187 C 0.06321 0.33358 0.09353 0.0
C2188 C 0.0537 0.31928 0.08453 0.0
H2189 H 0.06605 0.31279 0.24219 0.0
H2190 H 0.06059 0.32335 0.2015 0.0
C2191 C 0.04555 0.32025 0.06205 0.0
C2192 C 0.07203 0.33224 0.11728 0.0
H2193 H 0.09745 0.30482 0.15086 0.0
C2194 C 0.06769 0.34436 0.13538 0.0
C2195 C 0.0838 0.31846 0.12263 0.0
C2196 C 0.09043 0.30604 0.10349 0.0
C2197 C 0.07378 0.34231 0.1591 0.0
C2198 C 0.08397 0.32742 0.16499 0.0
C2199 C 0.08936 0.31605 0.14651 0.0
C2200 C 0.08778 0.32245 0.19032 0.0
C2201 C 0.06901 0.35601 0.17761 0.0
C2202 C 0.10484 0.3179 0.19748 0.0
C2203 C 0.10796 0.31141 0.2207 0.0
C2204 C 0.09406 0.30945 0.23715 0.0
C2205 C 0.07708 0.31432 0.23006 0.0
C2206 C 0.07395 0.32055 0.20681 0.0
H2207 H 0.0677 0.3691 0.16907 0.0
H2208 H 0.05615 0.35268 0.18575 0.0
H2209 H 0.07894 0.35685 0.19222 0.0
H2210 H 0.11568 0.3191 0.18497 0.0
H2211 H 0.12119 0.30778 0.22567 0.0
H2212 H 0.94276 0.77286 0.2659 0.0
H2213 H 0.95386 0.78629 0.30271 0.0
H2214 H 0.90101 0.79694 0.32605 0.0
H2215 H 0.88966 0.78311 0.28924 0.0
H2216 H 0.94952 0.82009 0.31906 0.0
H2217 H 0.92221 0.77172 0.38413 0.0
H2218 H 0.92288 0.76769 0.35202 0.0
H2219 H 0.9066 0.78206 0.3645 0.0
C2220 C 0.93344 0.77798 0.27885 0.0
C2221 C 0.9153 0.77685 0.27467 0.0
C2222 C 0.93983 0.78571 0.29987 0.0
C2223 C 0.92827 0.7925 0.31716 0.0
C2224 C 0.91014 0.79152 0.31308 0.0
H2225 H 0.97091 0.85461 0.43783 0.0
H2226 H 0.95428 0.84639 0.40171 0.0
C2227 C 0.90369 0.78366 0.29203 0.0
C2228 C 0.93548 0.80055 0.33933 0.0
H2229 H 0.93888 0.79483 0.40024 0.0
C2230 C 0.94709 0.8147 0.33688 0.0
C2231 C 0.93232 0.79337 0.36246 0.0
C2232 C 0.92044 0.77779 0.36606 0.0
C2233 C 0.95611 0.82152 0.35684 0.0
C2234 C 0.95313 0.81418 0.37991 0.0
C2235 C 0.94108 0.80043 0.38249 0.0
C2236 C 0.9634 0.81956 0.40131 0.0
C2237 C 0.96933 0.83593 0.35291 0.0
C2238 C 0.9739 0.80718 0.41309 0.0
C2239 C 0.98328 0.81177 0.43373 0.0
C2240 C 0.98234 0.82887 0.44303 0.0
C2241 C 0.97202 0.84137 0.43098 0.0
C2242 C 0.96253 0.83672 0.41034 0.0
H2243 H 0.9727 0.83753 0.33351 0.0
H2244 H 0.9638 0.8485 0.35948 0.0
H2245 H 0.98155 0.83329 0.36315 0.0
H2246 H 0.97478 0.79388 0.40635 0.0
H2247 H 0.99111 0.80182 0.44255 0.0
H2248 H 0.37498 0.68845 0.69079 0.0
H2249 H 0.38009 0.67331 0.65223 0.0
H2250 H 0.43449 0.68853 0.65465 0.0
H2251 H 0.42965 0.70321 0.69306 0.0
H2252 H 0.39191 0.68466 0.60849 0.0
H2253 H 0.43829 0.63621 0.64524 0.0
H2254 H 0.42459 0.64957 0.66441 0.0
H2255 H 0.4451 0.65793 0.65309 0.0
C2256 C 0.388 0.6886 0.683 0.0
C2257 C 0.40196 0.69683 0.69508 0.0
C2258 C 0.3909 0.6799 0.66107 0.0
C2259 C 0.40778 0.67935 0.65101 0.0
C2260 C 0.4215 0.68826 0.66253 0.0
H2261 H 0.45024 0.67636 0.51308 0.0
H2262 H 0.43395 0.68159 0.55006 0.0
C2263 C 0.41866 0.69677 0.68441 0.0
C2264 C 0.41132 0.66995 0.62813 0.0
H2265 H 0.44119 0.64252 0.60239 0.0
C2266 C 0.40242 0.67515 0.60718 0.0
C2267 C 0.42464 0.65712 0.6265 0.0
C2268 C 0.43354 0.64974 0.6486 0.0
C2269 C 0.40758 0.669 0.58437 0.0
C2270 C 0.4223 0.65778 0.58254 0.0
C2271 C 0.43013 0.65139 0.60369 0.0
C2272 C 0.43102 0.65417 0.55915 0.0
C2273 C 0.39745 0.67494 0.56247 0.0
C2274 C 0.43541 0.637 0.55229 0.0
C2275 C 0.44514 0.63396 0.53126 0.0
C2276 C 0.45061 0.64805 0.51678 0.0
C2277 C 0.44609 0.66518 0.52367 0.0
C2278 C 0.43657 0.6682 0.54472 0.0
H2279 H 0.38344 0.67711 0.56702 0.0
H2280 H 0.40285 0.6876 0.55606 0.0
H2281 H 0.39826 0.66526 0.54754 0.0
H2282 H 0.43145 0.62598 0.56333 0.0
H2283 H 0.4484 0.62061 0.5264 0.0
H2284 H 0.5654 0.19518 0.79217 0.0
H2285 H 0.5623 0.17603 0.82693 0.0
H2286 H 0.61786 0.16568 0.82601 0.0
H2287 H 0.62119 0.18535 0.7912 0.0
H2288 H 0.57039 0.14051 0.83178 0.0
H2289 H 0.60903 0.18217 0.89522 0.0
H2290 H 0.60191 0.19031 0.86628 0.0
H2291 H 0.61945 0.17472 0.86796 0.0
C2292 C 0.57702 0.18891 0.79934 0.0
C2293 C 0.59357 0.19186 0.78902 0.0
C2294 C 0.5752 0.17786 0.81913 0.0
C2295 C 0.58984 0.16942 0.82902 0.0
C2296 C 0.60643 0.17221 0.81877 0.0
H2297 H 0.55279 0.11173 0.95913 0.0
H2298 H 0.57021 0.11413 0.92175 0.0
C2299 C 0.6083 0.18347 0.79896 0.0
C2300 C 0.5873 0.15844 0.85071 0.0
H2301 H 0.5909 0.16081 0.91196 0.0
C2302 C 0.57528 0.14453 0.84931 0.0
C2303 C 0.59384 0.16368 0.87348 0.0
C2304 C 0.60672 0.17857 0.87604 0.0
C2305 C 0.5682 0.13701 0.87026 0.0
C2306 C 0.57348 0.14348 0.89298 0.0
C2307 C 0.58692 0.15597 0.89437 0.0
C2308 C 0.56253 0.1409 0.91462 0.0
C2309 C 0.55389 0.1235 0.86804 0.0
C2310 C 0.55232 0.15501 0.9225 0.0
C2311 C 0.54254 0.15373 0.94357 0.0
C2312 C 0.54271 0.13825 0.95723 0.0
C2313 C 0.5524 0.12379 0.94887 0.0
C2314 C 0.56237 0.12515 0.92765 0.0
H2315 H 0.55171 0.1194 0.84902 0.0
H2316 H 0.55727 0.11178 0.87891 0.0
H2317 H 0.54145 0.12891 0.87532 0.0
H2318 H 0.55215 0.1672 0.9125 0.0
H2319 H 0.53507 0.16503 0.94938 0.0
H2320 H 0.03915 0.62785 0.43447 0.0
H2321 H 0.05818 0.62964 0.39871 0.0
H2322 H 0.03955 0.68198 0.38494 0.0
H2323 H 0.02072 0.68041 0.42032 0.0
H2324 H 0.05008 0.63772 0.34839 0.0
H2325 H 0.09367 0.6868 0.39061 0.0
H2326 H 0.07897 0.67315 0.40795 0.0
H2327 H 0.07097 0.69261 0.39333 0.0
C2328 C 0.039 0.63966 0.42365 0.0
C2329 C 0.02858 0.65407 0.43039 0.0
C2330 C 0.04989 0.64066 0.40333 0.0
C2331 C 0.05052 0.65609 0.38964 0.0
C2332 C 0.03952 0.67011 0.39566 0.0
H2333 H 0.06859 0.69375 0.2531 0.0
H2334 H 0.05972 0.67753 0.28876 0.0
C2335 C 0.02871 0.66915 0.41585 0.0
C2336 C 0.06267 0.65802 0.36907 0.0
H2337 H 0.0931 0.68643 0.34698 0.0
C2338 C 0.05981 0.64807 0.34817 0.0
C2339 C 0.07568 0.6712 0.36905 0.0
C2340 C 0.08016 0.68143 0.39154 0.0
C2341 C 0.06852 0.65209 0.32653 0.0
C2342 C 0.08003 0.66663 0.32586 0.0
C2343 C 0.08409 0.67545 0.34737 0.0
C2344 C 0.08601 0.67447 0.30283 0.0
C2345 C 0.06483 0.64111 0.30446 0.0
C2346 C 0.10375 0.67852 0.29905 0.0
C2347 C 0.10888 0.68813 0.27872 0.0
C2348 C 0.09631 0.69392 0.26196 0.0
C2349 C 0.07863 0.68948 0.26558 0.0
C2350 C 0.07354 0.67997 0.28586 0.0
H2351 H 0.06192 0.62736 0.30959 0.0
H2352 H 0.05312 0.64637 0.29508 0.0
H2353 H 0.07605 0.64121 0.29169 0.0
H2354 H 0.11356 0.67458 0.31209 0.0
H2355 H 0.12261 0.69131 0.27642 0.0
H2356 H 0.5926 0.76742 0.64945 0.0
H2357 H 0.58913 0.78971 0.61836 0.0
H2358 H 0.62606 0.82295 0.65546 0.0
H2359 H 0.62983 0.80043 0.68656 0.0
H2360 H 0.59157 0.83629 0.65194 0.0
H2361 H 0.61484 0.8144 0.56246 0.0
H2362 H 0.60388 0.79711 0.57837 0.0
H2363 H 0.62387 0.80609 0.59042 0.0
C2364 C 0.60056 0.77915 0.65041 0.0
C2365 C 0.61137 0.78228 0.67044 0.0
C2366 C 0.59866 0.79185 0.63256 0.0
C2367 C 0.60741 0.80795 0.63457 0.0
C2368 C 0.61936 0.81053 0.65348 0.0
H2369 H 0.55107 0.87674 0.53379 0.0
H2370 H 0.57635 0.87049 0.55993 0.0
C2371 C 0.62151 0.79765 0.67118 0.0
C2372 C 0.60094 0.82288 0.62016 0.0
H2373 H 0.58803 0.83216 0.5627 0.0
C2374 C 0.59135 0.83586 0.63236 0.0
C2375 C 0.60076 0.8224 0.59467 0.0
C2376 C 0.61156 0.80934 0.58072 0.0
C2377 C 0.5799 0.84694 0.61982 0.0
C2378 C 0.57817 0.84499 0.59461 0.0
C2379 C 0.58932 0.83352 0.58213 0.0
C2380 C 0.56256 0.85155 0.58184 0.0
C2381 C 0.56863 0.85961 0.63376 0.0
C2382 C 0.54647 0.84319 0.58595 0.0
C2383 C 0.53223 0.84646 0.5709 0.0
C2384 C 0.53378 0.85835 0.55173 0.0
C2385 C 0.54951 0.86767 0.54867 0.0
C2386 C 0.56395 0.86409 0.56346 0.0
H2387 H 0.57467 0.86308 0.65138 0.0
H2388 H 0.56638 0.87177 0.62321 0.0
H2389 H 0.55572 0.85347 0.63737 0.0
H2390 H 0.54526 0.83331 0.59989 0.0
H2391 H 0.52025 0.83908 0.57354 0.0
H2392 H 0.37196 0.28456 0.8163 0.0
H2393 H 0.37484 0.30505 0.8504 0.0
H2394 H 0.42635 0.28462 0.86536 0.0
H2395 H 0.42366 0.26428 0.8317 0.0
H2396 H 0.38614 0.29806 0.90376 0.0
H2397 H 0.43074 0.3396 0.84952 0.0
H2398 H 0.41495 0.32487 0.83608 0.0
H2399 H 0.43546 0.3166 0.84725 0.0
C2400 C 0.38372 0.2842 0.82721 0.0
C2401 C 0.39768 0.27296 0.82118 0.0
C2402 C 0.38536 0.29595 0.84654 0.0
C2403 C 0.40094 0.29649 0.85992 0.0
C2404 C 0.41435 0.28452 0.8549 0.0
H2405 H 0.45269 0.3152 0.98291 0.0
H2406 H 0.43223 0.30742 0.95123 0.0
C2407 C 0.41276 0.27288 0.83571 0.0
C2408 C 0.40403 0.30992 0.87856 0.0
H2409 H 0.43439 0.34091 0.89281 0.0
C2410 C 0.39628 0.30784 0.9013 0.0
C2411 C 0.41693 0.32294 0.87508 0.0
C2412 C 0.4249 0.3263 0.85058 0.0
C2413 C 0.40254 0.3172 0.92133 0.0
C2414 C 0.41709 0.32853 0.91841 0.0
C2415 C 0.4234 0.33205 0.89513 0.0
C2416 C 0.42796 0.33404 0.93917 0.0
C2417 C 0.39418 0.31414 0.94563 0.0
C2418 C 0.43285 0.35161 0.94251 0.0
C2419 C 0.44487 0.35615 0.96059 0.0
C2420 C 0.45229 0.34313 0.97536 0.0
C2421 C 0.44724 0.3256 0.97194 0.0
C2422 C 0.4353 0.32112 0.95401 0.0
H2423 H 0.37995 0.31147 0.94365 0.0
H2424 H 0.40022 0.30245 0.95416 0.0
H2425 H 0.39598 0.32554 0.95783 0.0
H2426 H 0.42756 0.36173 0.93093 0.0
H2427 H 0.44848 0.36976 0.9628 0.0
H2428 H 0.93279 0.20104 0.21462 0.0
H2429 H 0.94003 0.18127 0.1817 0.0
H2430 H 0.8862 0.16417 0.17827 0.0
H2431 H 0.87867 0.18457 0.21103 0.0
H2432 H 0.93755 0.14581 0.17927 0.0
H2433 H 0.89585 0.17706 0.10868 0.0
H2434 H 0.89996 0.18747 0.13736 0.0
H2435 H 0.88499 0.16938 0.13545 0.0
C2436 C 0.92243 0.19317 0.20682 0.0
C2437 C 0.90514 0.19442 0.21534 0.0
C2438 C 0.92661 0.18179 0.18807 0.0
C2439 C 0.91367 0.17126 0.17748 0.0
C2440 C 0.89635 0.17237 0.18594 0.0
H2441 H 0.94511 0.11873 0.04241 0.0
H2442 H 0.9294 0.11973 0.0812 0.0
C2443 C 0.89207 0.18401 0.20463 0.0
C2444 C 0.91874 0.15958 0.15729 0.0
H2445 H 0.91611 0.1561 0.09597 0.0
C2446 C 0.93257 0.14775 0.16111 0.0
C2447 C 0.91213 0.16199 0.13365 0.0
C2448 C 0.89749 0.17471 0.12835 0.0
C2449 C 0.94096 0.13947 0.14169 0.0
C2450 C 0.93525 0.14301 0.11799 0.0
C2451 C 0.92037 0.15344 0.11429 0.0
C2452 C 0.94645 0.13926 0.09692 0.0
C2453 C 0.9566 0.12794 0.14643 0.0
C2454 C 0.96139 0.14963 0.09332 0.0
C2455 C 0.97008 0.14935 0.07121 0.0
C2456 C 0.96415 0.13848 0.0525 0.0
C2457 C 0.95002 0.12707 0.05672 0.0
C2458 C 0.94103 0.12766 0.07876 0.0
H2459 H 0.9566 0.12287 0.16524 0.0
H2460 H 0.95687 0.11672 0.13366 0.0
H2461 H 0.96876 0.13567 0.14372 0.0
H2462 H 0.9656 0.15882 0.10706 0.0
H2463 H 0.98091 0.15828 0.06831 0.0
H2464 H 0.9504 0.61422 0.94749 0.0
H2465 H 0.93417 0.62123 0.9104 0.0
H2466 H 0.942 0.67632 0.92388 0.0
H2467 H 0.95771 0.66955 0.96085 0.0
H2468 H 0.90768 0.66803 0.91159 0.0
H2469 H 0.95576 0.63889 0.84721 0.0
H2470 H 0.94675 0.62497 0.87027 0.0
H2471 H 0.96115 0.64256 0.87852 0.0
C2472 C 0.94868 0.62781 0.94243 0.0
C2473 C 0.95532 0.64134 0.95708 0.0
C2474 C 0.93943 0.63178 0.92128 0.0
C2475 C 0.93693 0.64929 0.91443 0.0
C2476 C 0.94366 0.66272 0.92897 0.0
H2477 H 0.93357 0.71208 0.79538 0.0
H2478 H 0.93778 0.69302 0.83009 0.0
C2479 C 0.95271 0.65881 0.95006 0.0
C2480 C 0.92768 0.65415 0.89197 0.0
H2481 H 0.93396 0.65692 0.83116 0.0
C2482 C 0.91313 0.66532 0.89388 0.0
C2483 C 0.93483 0.65045 0.86899 0.0
C2484 C 0.95053 0.63864 0.86593 0.0
C2485 C 0.90654 0.67419 0.87367 0.0
C2486 C 0.91451 0.67144 0.85096 0.0
C2487 C 0.928 0.65904 0.84871 0.0
C2488 C 0.91117 0.6832 0.83029 0.0
C2489 C 0.89209 0.68744 0.87713 0.0
C2490 C 0.89467 0.68428 0.8192 0.0
C2491 C 0.89213 0.69546 0.79948 0.0
C2492 C 0.90615 0.70546 0.79044 0.0
C2493 C 0.92253 0.7045 0.80188 0.0
C2494 C 0.92499 0.69354 0.82163 0.0
H2495 H 0.88907 0.68972 0.89651 0.0
H2496 H 0.89574 0.70014 0.86876 0.0
H2497 H 0.88 0.68268 0.86814 0.0
H2498 H 0.8839 0.67625 0.82547 0.0
H2499 H 0.87942 0.69581 0.79081 0.0
H2500 H 0.07943 0.23127 0.64554 0.0
H2501 H 0.07136 0.20755 0.61821 0.0
H2502 H 0.11032 0.17422 0.65079 0.0
H2503 H 0.1186 0.19804 0.67827 0.0
H2504 H 0.09024 0.18272 0.58545 0.0
H2505 H 0.06043 0.15313 0.66797 0.0
H2506 H 0.06708 0.1758 0.66745 0.0
H2507 H 0.08333 0.15885 0.66796 0.0
C2508 C 0.08669 0.2191 0.64636 0.0
C2509 C 0.09946 0.21641 0.66421 0.0
C2510 C 0.08209 0.20557 0.63072 0.0
C2511 C 0.09007 0.18911 0.63281 0.0
C2512 C 0.10396 0.18683 0.64908 0.0
H2513 H 0.03066 0.11729 0.53867 0.0
H2514 H 0.05569 0.12426 0.56479 0.0
C2515 C 0.10872 0.20048 0.66464 0.0
C2516 C 0.0818 0.17408 0.62051 0.0
H2517 H 0.04983 0.14368 0.63051 0.0
C2518 C 0.08187 0.17368 0.59522 0.0
C2519 C 0.07085 0.16245 0.63346 0.0
C2520 C 0.07027 0.16247 0.66072 0.0
C2521 C 0.07018 0.16294 0.58246 0.0
C2522 C 0.05819 0.15241 0.59546 0.0
C2523 C 0.05914 0.15173 0.62071 0.0
C2524 C 0.04245 0.14529 0.58352 0.0
C2525 C 0.06959 0.1641 0.55526 0.0
C2526 C 0.02656 0.15424 0.5864 0.0
C2527 C 0.01235 0.15039 0.57153 0.0
C2528 C 0.01377 0.13742 0.55367 0.0
C2529 C 0.02918 0.12733 0.55235 0.0
C2530 C 0.04351 0.13134 0.56712 0.0
H2531 H 0.0795 0.17335 0.54797 0.0
H2532 H 0.072 0.15098 0.54733 0.0
H2533 H 0.05639 0.16845 0.54932 0.0
H2534 H 0.02552 0.16503 0.59903 0.0
H2535 H 0.00062 0.1583 0.57303 0.0
H2536 H 0.52759 0.32173 0.44044 0.0
H2537 H 0.54645 0.31985 0.40519 0.0
H2538 H 0.56336 0.37311 0.41635 0.0
H2539 H 0.54427 0.37518 0.45214 0.0
H2540 H 0.55529 0.36293 0.36615 0.0
H2541 H 0.60092 0.31711 0.41071 0.0
H2542 H 0.57852 0.31073 0.4151 0.0
H2543 H 0.5862 0.33117 0.42742 0.0
C2544 C 0.53519 0.33314 0.43541 0.0
C2545 C 0.53459 0.34855 0.44926 0.0
C2546 C 0.54605 0.33199 0.41532 0.0
C2547 C 0.55663 0.34616 0.40865 0.0
C2548 C 0.55544 0.36195 0.42152 0.0
H2549 H 0.62153 0.30257 0.29244 0.0
H2550 H 0.61621 0.32208 0.32701 0.0
C2551 C 0.54448 0.36314 0.44181 0.0
C2552 C 0.56875 0.34394 0.38808 0.0
H2553 H 0.59834 0.31424 0.36704 0.0
C2554 C 0.56512 0.35268 0.36641 0.0
C2555 C 0.58193 0.33095 0.38861 0.0
C2556 C 0.58727 0.32209 0.41181 0.0
C2557 C 0.57292 0.34728 0.34468 0.0
C2558 C 0.58422 0.33258 0.34475 0.0
C2559 C 0.58943 0.3253 0.36686 0.0
C2560 C 0.58805 0.32259 0.32241 0.0
C2561 C 0.56821 0.35676 0.32171 0.0
C2562 C 0.57401 0.31622 0.30867 0.0
C2563 C 0.57697 0.3051 0.28919 0.0
C2564 C 0.59406 0.29989 0.28306 0.0
C2565 C 0.60821 0.30634 0.29671 0.0
C2566 C 0.60521 0.31755 0.31635 0.0
H2567 H 0.56603 0.37091 0.32528 0.0
H2568 H 0.57858 0.35535 0.30778 0.0
H2569 H 0.55579 0.35133 0.31445 0.0
H2570 H 0.56062 0.31938 0.31348 0.0
H2571 H 0.56573 0.30039 0.27917 0.0
H2572 H 0.46905 0.81595 0.06251 0.0
H2573 H 0.45339 0.81381 0.10068 0.0
H2574 H 0.43558 0.86709 0.09305 0.0
H2575 H 0.45147 0.86946 0.05456 0.0
H2576 H 0.44687 0.85773 0.14082 0.0
H2577 H 0.39945 0.81012 0.10372 0.0
H2578 H 0.42163 0.80374 0.09765 0.0
H2579 H 0.41315 0.82363 0.08473 0.0
C2580 C 0.46193 0.8273 0.06895 0.0
C2581 C 0.46133 0.84281 0.05536 0.0
C2582 C 0.45291 0.82601 0.09071 0.0
C2583 C 0.44297 0.84013 0.09927 0.0
C2584 C 0.44302 0.85599 0.0865 0.0
H2585 H 0.3798 0.80335 0.22136 0.0
H2586 H 0.3861 0.82065 0.18509 0.0
C2587 C 0.45215 0.85733 0.06461 0.0
C2588 C 0.43251 0.8379 0.12149 0.0
H2589 H 0.40356 0.80947 0.14705 0.0
C2590 C 0.43708 0.84748 0.14215 0.0
C2591 C 0.41938 0.82489 0.12302 0.0
C2592 C 0.41297 0.81514 0.10101 0.0
C2593 C 0.43002 0.8432 0.1648 0.0
C2594 C 0.41845 0.82877 0.16673 0.0
C2595 C 0.41264 0.82036 0.14568 0.0
C2596 C 0.41422 0.82058 0.19026 0.0
C2597 C 0.43549 0.85381 0.18651 0.0
C2598 C 0.4279 0.81479 0.20513 0.0
C2599 C 0.42437 0.80497 0.22574 0.0
C2600 C 0.40705 0.80049 0.2318 0.0
C2601 C 0.39328 0.80656 0.21715 0.0
C2602 C 0.39685 0.8165 0.1965 0.0
H2603 H 0.43805 0.86764 0.18139 0.0
H2604 H 0.42535 0.85355 0.2009 0.0
H2605 H 0.44785 0.84837 0.19391 0.0
H2606 H 0.44143 0.81724 0.20029 0.0
H2607 H 0.43531 0.80049 0.23654 0.0
H2608 H 0.93817 0.37175 0.51878 0.0
H2609 H 0.91781 0.36175 0.55022 0.0
H2610 H 0.93901 0.30955 0.54461 0.0
H2611 H 0.95891 0.31923 0.51302 0.0
H2612 H 0.90305 0.30971 0.5453 0.0
H2613 H 0.93022 0.35058 0.61991 0.0
H2614 H 0.92276 0.36197 0.59346 0.0
H2615 H 0.94154 0.34788 0.59156 0.0
C2616 C 0.93853 0.35817 0.52439 0.0
C2617 C 0.95017 0.34629 0.51347 0.0
C2618 C 0.92691 0.35249 0.54235 0.0
C2619 C 0.92698 0.33493 0.54984 0.0
C2620 C 0.93866 0.32314 0.53901 0.0
H2621 H 0.90831 0.26253 0.65431 0.0
H2622 H 0.91173 0.27919 0.61701 0.0
C2623 C 0.95009 0.32873 0.52101 0.0
C2624 C 0.9152 0.32848 0.56912 0.0
H2625 H 0.90926 0.32952 0.63018 0.0
C2626 C 0.90414 0.31428 0.56381 0.0
C2627 C 0.91653 0.33453 0.5932 0.0
C2628 C 0.92846 0.3495 0.60005 0.0
C2629 C 0.89535 0.30521 0.58217 0.0
C2630 C 0.89766 0.31052 0.60636 0.0
C2631 C 0.90753 0.32556 0.61151 0.0
C2632 C 0.89276 0.29904 0.62669 0.0
C2633 C 0.88438 0.28946 0.57576 0.0
C2634 C 0.88066 0.30453 0.64421 0.0
C2635 C 0.87851 0.29486 0.66547 0.0
C2636 C 0.88878 0.27988 0.66965 0.0
C2637 C 0.90025 0.27403 0.65154 0.0
C2638 C 0.90215 0.28348 0.6302 0.0
H2639 H 0.87989 0.28997 0.55669 0.0
H2640 H 0.89236 0.27744 0.5781 0.0
H2641 H 0.87277 0.28846 0.58779 0.0
H2642 H 0.87345 0.31662 0.64184 0.0
H2643 H 0.86969 0.29972 0.67926 0.0
H2644 H 0.42738 0.21151 0.26609 0.0
H2645 H 0.43469 0.19411 0.30134 0.0
H2646 H 0.37976 0.18682 0.31672 0.0
H2647 H 0.37223 0.2047 0.28141 0.0
H2648 H 0.39728 0.19696 0.35587 0.0
H2649 H 0.43365 0.14247 0.3145 0.0
H2650 H 0.44222 0.16279 0.30353 0.0
H2651 H 0.41984 0.15687 0.29698 0.0
C2652 C 0.41679 0.20609 0.27676 0.0
C2653 C 0.3992 0.20951 0.27093 0.0
C2654 C 0.42101 0.19594 0.29678 0.0
C2655 C 0.40778 0.18876 0.31128 0.0
C2656 C 0.39017 0.19204 0.30553 0.0
H2657 H 0.45494 0.13445 0.43611 0.0
H2658 H 0.43564 0.13819 0.40102 0.0
C2659 C 0.3859 0.20231 0.28545 0.0
C2660 C 0.41267 0.17953 0.33377 0.0
H2661 H 0.44295 0.15074 0.35551 0.0
C2662 C 0.40689 0.1865 0.35581 0.0
C2663 C 0.42486 0.16557 0.3338 0.0
C2664 C 0.43032 0.15638 0.31088 0.0
C2665 C 0.41433 0.18114 0.3777 0.0
C2666 C 0.42816 0.16881 0.37738 0.0
C2667 C 0.43263 0.16051 0.35565 0.0
C2668 C 0.43955 0.1662 0.39863 0.0
C2669 C 0.40786 0.1893 0.40086 0.0
C2670 C 0.44851 0.1806 0.40833 0.0
C2671 C 0.45948 0.17853 0.42818 0.0
C2672 C 0.4619 0.16195 0.43864 0.0
C2673 C 0.45332 0.14739 0.42847 0.0
C2674 C 0.44225 0.14951 0.40853 0.0
H2675 H 0.39384 0.19305 0.39938 0.0
H2676 H 0.40944 0.18026 0.41641 0.0
H2677 H 0.41547 0.2014 0.40456 0.0
H2678 H 0.44706 0.1935 0.40046 0.0
H2679 H 0.46601 0.18999 0.43538 0.0
H2680 H 0.55021 0.63165 0.03804 0.0
H2681 H 0.57285 0.63909 0.06797 0.0
H2682 H 0.54469 0.68621 0.08616 0.0
H2683 H 0.52223 0.67904 0.0565 0.0
H2684 H 0.58378 0.68786 0.06846 0.0
H2685 H 0.56887 0.64444 0.14674 0.0
H2686 H 0.5677 0.63654 0.11601 0.0
H2687 H 0.55133 0.65132 0.12705 0.0
C2688 C 0.54867 0.64338 0.04885 0.0
C2689 C 0.53453 0.65485 0.04483 0.0
C2690 C 0.56163 0.64762 0.0658 0.0
C2691 C 0.56042 0.66324 0.07899 0.0
C2692 C 0.54584 0.67414 0.07596 0.0
H2693 H 0.5832 0.73761 0.17289 0.0
H2694 H 0.57955 0.71926 0.13717 0.0
C2695 C 0.53302 0.67 0.05905 0.0
C2696 C 0.57469 0.66927 0.09488 0.0
H2697 H 0.58627 0.66948 0.15426 0.0
C2698 C 0.58482 0.6835 0.08705 0.0
C2699 C 0.57607 0.6634 0.11895 0.0
C2700 C 0.56549 0.64805 0.12787 0.0
C2701 C 0.59505 0.6931 0.10336 0.0
C2702 C 0.59494 0.68839 0.12799 0.0
C2703 C 0.5863 0.67304 0.1353 0.0
C2704 C 0.6001 0.70104 0.14685 0.0
C2705 C 0.60485 0.70898 0.09448 0.0
C2706 C 0.61317 0.69707 0.16379 0.0
C2707 C 0.61548 0.70778 0.1841 0.0
C2708 C 0.60438 0.72221 0.1879 0.0
C2709 C 0.59194 0.72658 0.17028 0.0
C2710 C 0.5899 0.71615 0.14986 0.0
H2711 H 0.60837 0.70765 0.07509 0.0
H2712 H 0.59637 0.7207 0.09642 0.0
H2713 H 0.61697 0.71117 0.10516 0.0
H2714 H 0.621 0.68533 0.16185 0.0
H2715 H 0.62501 0.70404 0.19764 0.0
H2716 H 0.12619 0.80585 0.81107 0.0
H2717 H 0.12119 0.81756 0.85184 0.0
H2718 H 0.06637 0.80433 0.84619 0.0
H2719 H 0.07115 0.79325 0.80549 0.0
H2720 H 0.07111 0.83771 0.86012 0.0
H2721 H 0.11229 0.79331 0.91589 0.0
H2722 H 0.12345 0.80443 0.89178 0.0
H2723 H 0.10685 0.78853 0.88486 0.0
C2724 C 0.11315 0.80523 0.81874 0.0
C2725 C 0.09903 0.79874 0.80511 0.0
C2726 C 0.11032 0.81187 0.84202 0.0
C2727 C 0.09341 0.81176 0.85206 0.0
C2728 C 0.0795 0.80465 0.83874 0.0
H2729 H 0.05001 0.81836 0.99178 0.0
H2730 H 0.06439 0.81104 0.95382 0.0
C2731 C 0.08226 0.7983 0.81549 0.0
C2732 C 0.08965 0.81982 0.87585 0.0
H2733 H 0.09691 0.81557 0.93636 0.0
C2734 C 0.07684 0.83298 0.87681 0.0
C2735 C 0.09718 0.81359 0.89752 0.0
C2736 C 0.11061 0.7991 0.89762 0.0
C2737 C 0.07067 0.83949 0.89889 0.0
C2738 C 0.07799 0.8331 0.92063 0.0
C2739 C 0.09139 0.8205 0.91964 0.0
C2740 C 0.07059 0.83785 0.9445 0.0
C2741 C 0.05565 0.85236 0.89865 0.0
C2742 C 0.06955 0.85537 0.9521 0.0
C2743 C 0.06099 0.85965 0.97367 0.0
C2744 C 0.0537 0.84643 0.98819 0.0
C2745 C 0.05545 0.82887 0.98099 0.0
C2746 C 0.06374 0.82464 0.95932 0.0
H2747 H 0.04897 0.85277 0.88083 0.0
H2748 H 0.04578 0.84901 0.91264 0.0
H2749 H 0.06072 0.86568 0.90253 0.0
H2750 H 0.07512 0.86574 0.94121 0.0
H2751 H 0.06007 0.87328 0.97892 0.0
loop_
_geom_bond_atom_site_label_1
_geom_bond_atom_site_label_2
_geom_bond_distance
_geom_bond_site_symmetry_2
_ccdc_geom_bond_type
Zn0 O3 2.031 . S
Zn0 O5 2.049 . S
Zn0 O10 2.067 . S
Zn1 O2 1.962 . S
Zn1 O4 1.986 . S
Zn1 O6 1.996 . S
Zn1 O9 1.943 . S
O2 Zn1 1.962 . S
O2 C7 1.254 . S
O3 Zn0 2.031 . S
O3 C7 1.269 . S
O4 Zn1 1.986 . S
O4 C11 1.262 . S
O5 Zn0 2.049 . S
O5 C13 1.260 . S
O6 Zn1 1.996 . S
O6 C13 1.257 . S
C7 O2 1.254 . S
C7 O3 1.269 . S
C8 O9 1.249 . S
C8 O10 1.270 . S
O9 Zn1 1.943 . S
O9 C8 1.249 . S
O10 Zn0 2.067 . S
O10 C8 1.270 . S
C11 O4 1.262 . S
C11 O12 1.232 . S
O12 C11 1.232 . S
C13 O5 1.260 . S
C13 O6 1.257 . S
Zn14 O17 2.005 1_655 S
Zn14 O19 2.049 . S
Zn14 O24 2.067 . S
Zn15 O16 1.962 1_655 S
Zn15 O18 1.986 . S
Zn15 O20 1.996 . S
Zn15 O23 1.943 . S
O16 Zn15 1.962 1_455 S
O16 C21 1.254 . S
O17 Zn14 2.005 1_455 S
O17 C21 1.306 . S
O18 Zn15 1.986 . S
O18 C25 1.262 . S
O19 Zn14 2.049 . S
O19 C27 1.260 . S
O20 Zn15 1.996 . S
O20 C27 1.257 . S
C21 O16 1.254 . S
C21 O17 1.306 . S
C22 O23 1.249 . S
C22 O24 1.270 . S
O23 Zn15 1.943 . S
O23 C22 1.249 . S
O24 Zn14 2.067 . S
O24 C22 1.270 . S
C25 O18 1.262 . S
C25 O26 1.232 . S
O26 C25 1.232 . S
C27 O19 1.260 . S
C27 O20 1.257 . S
Zn28 O31 2.031 . S
Zn28 O33 2.049 . S
Zn28 O38 2.067 . S
Zn29 O30 1.962 . S
Zn29 O32 1.986 . S
Zn29 O34 1.996 . S
Zn29 O37 1.943 . S
O30 Zn29 1.962 . S
O30 C35 1.254 . S
O31 Zn28 2.031 . S
O31 C35 1.269 . S
O32 Zn29 1.986 . S
O32 C39 1.262 . S
O33 Zn28 2.049 . S
O33 C41 1.260 . S
O34 Zn29 1.996 . S
O34 C41 1.257 . S
C35 O30 1.254 . S
C35 O31 1.269 . S
C36 O37 1.249 . S
C36 O38 1.270 . S
O37 Zn29 1.943 . S
O37 C36 1.249 . S
O38 Zn28 2.067 . S
O38 C36 1.270 . S
C39 O32 1.262 . S
C39 O40 1.232 . S
O40 C39 1.232 . S
C41 O33 1.260 . S
C41 O34 1.257 . S
Zn42 O45 2.031 . S
Zn42 O47 2.049 1_554 S
Zn42 O52 2.067 . S
Zn43 O44 1.962 . S
Zn43 O46 1.986 . S
Zn43 O48 1.996 1_554 S
Zn43 O51 1.943 . S
O44 Zn43 1.962 . S
O44 C49 1.254 . S
O45 Zn42 2.031 . S
O45 C49 1.269 . S
O46 Zn43 1.986 . S
O46 C53 1.262 . S
O47 Zn42 2.049 1_556 S
O47 C55 1.260 . S
O48 Zn43 1.996 1_556 S
O48 C55 1.257 . S
C49 O44 1.254 . S
C49 O45 1.269 . S
C50 O51 1.249 . S
C50 O52 1.270 . S
O51 Zn43 1.943 . S
O51 C50 1.249 . S
O52 Zn42 2.067 . S
O52 C50 1.270 . S
C53 O46 1.262 . S
C53 O54 1.232 . S
O54 C53 1.232 . S
C55 O47 1.260 . S
C55 O48 1.257 . S
Zn56 O59 2.031 . S
Zn56 O61 2.049 . S
Zn56 O66 2.067 . S
Zn57 O58 1.962 . S
Zn57 O60 1.986 . S
Zn57 O62 1.996 . S
Zn57 O65 1.943 . S
O58 Zn57 1.962 . S
O58 C63 1.254 . S
O59 Zn56 2.031 . S
O59 C63 1.269 . S
O60 Zn57 1.986 . S
O60 C67 1.262 . S
O61 Zn56 2.049 . S
O61 C69 1.260 . S
O62 Zn57 1.996 . S
O62 C69 1.257 . S
C63 O58 1.254 . S
C63 O59 1.269 . S
C64 O65 1.249 . S
C64 O66 1.270 . S
O65 Zn57 1.943 . S
O65 C64 1.249 . S
O66 Zn56 2.067 . S
O66 C64 1.270 . S
C67 O60 1.262 . S
C67 O68 1.232 . S
O68 C67 1.232 . S
C69 O61 1.260 . S
C69 O62 1.257 . S
Zn70 O73 2.031 . S
Zn70 O75 2.049 . S
Zn70 O80 2.067 . S
Zn71 O72 1.962 . S
Zn71 O74 1.986 . S
Zn71 O76 1.996 . S
Zn71 O79 1.943 . S
O72 Zn71 1.962 . S
O72 C77 1.254 . S
O73 Zn70 2.031 . S
O73 C77 1.269 . S
O74 Zn71 1.986 . S
O74 C81 1.262 . S
O75 Zn70 2.049 . S
O75 C83 1.260 . S
O76 Zn71 1.996 . S
O76 C83 1.257 . S
C77 O72 1.254 . S
C77 O73 1.269 . S
C78 O79 1.249 . S
C78 O80 1.270 . S
O79 Zn71 1.943 . S
O79 C78 1.249 . S
O80 Zn70 2.067 . S
O80 C78 1.270 . S
C81 O74 1.262 . S
C81 O82 1.232 . S
O82 C81 1.232 . S
C83 O75 1.260 . S
C83 O76 1.257 . S
Zn84 O87 2.031 . S
Zn84 O89 2.049 . S
Zn84 O94 2.067 . S
Zn85 O86 1.962 . S
Zn85 O88 1.986 . S
Zn85 O90 1.996 . S
Zn85 O93 1.943 . S
O86 Zn85 1.962 . S
O86 C91 1.254 . S
O87 Zn84 2.031 . S
O87 C91 1.269 . S
O88 Zn85 1.986 . S
O88 C95 1.262 . S
O89 Zn84 2.049 . S
O89 C97 1.260 . S
O90 Zn85 1.996 . S
O90 C97 1.257 . S
C91 O86 1.254 . S
C91 O87 1.269 . S
C92 O93 1.249 . S
C92 O94 1.270 . S
O93 Zn85 1.943 . S
O93 C92 1.249 . S
O94 Zn84 2.067 . S
O94 C92 1.270 . S
C95 O88 1.262 . S
C95 O96 1.232 . S
O96 C95 1.232 . S
C97 O89 1.260 . S
C97 O90 1.257 . S
Zn98 O101 2.005 1_655 S
Zn98 O103 2.049 1_556 S
Zn98 O108 2.067 . S
Zn99 O100 1.962 1_655 S
Zn99 O102 1.986 . S
Zn99 O104 1.996 1_556 S
Zn99 O107 1.943 . S
O100 Zn99 1.962 1_455 S
O100 C105 1.254 . S
O101 Zn98 2.005 1_455 S
O101 C105 1.306 . S
O102 Zn99 1.986 . S
O102 C109 1.262 . S
O103 Zn98 2.049 1_554 S
O103 C111 1.260 . S
O104 Zn99 1.996 1_554 S
O104 C111 1.257 . S
C105 O100 1.254 . S
C105 O101 1.306 . S
C106 O107 1.249 . S
C106 O108 1.270 . S
O107 Zn99 1.943 . S
O107 C106 1.249 . S
O108 Zn98 2.067 . S
O108 C106 1.270 . S
C109 O102 1.262 . S
C109 O110 1.232 . S
O110 C109 1.232 . S
C111 O103 1.260 . S
C111 O104 1.257 . S
Zn112 O115 2.031 . S
Zn112 O117 2.049 . S
Zn112 O122 2.067 . S
Zn113 O114 1.962 . S
Zn113 O116 1.986 . S
Zn113 O118 1.996 . S
Zn113 O121 1.943 . S
O114 Zn113 1.962 . S
O114 C119 1.254 . S
O115 Zn112 2.031 . S
O115 C119 1.269 . S
O116 Zn113 1.986 . S
O116 C123 1.262 . S
O117 Zn112 2.049 . S
O117 C125 1.260 . S
O118 Zn113 1.996 . S
O118 C125 1.257 . S
C119 O114 1.254 . S
C119 O115 1.269 . S
C120 O121 1.249 . S
C120 O122 1.270 . S
O121 Zn113 1.943 . S
O121 C120 1.249 . S
O122 Zn112 2.067 . S
O122 C120 1.270 . S
C123 O116 1.262 . S
C123 O124 1.232 . S
O124 C123 1.232 . S
C125 O117 1.260 . S
C125 O118 1.257 . S
Zn126 O129 2.005 1_455 S
Zn126 O131 2.049 . S
Zn126 O136 2.067 . S
Zn127 O128 1.962 1_455 S
Zn127 O130 1.986 . S
Zn127 O132 1.996 . S
Zn127 O135 1.943 . S
O128 Zn127 1.962 1_655 S
O128 C133 1.254 . S
O129 Zn126 2.005 1_655 S
O129 C133 1.306 . S
O130 Zn127 1.986 . S
O130 C137 1.262 . S
O131 Zn126 2.049 . S
O131 C139 1.260 . S
O132 Zn127 1.996 . S
O132 C139 1.257 . S
C133 O128 1.254 . S
C133 O129 1.306 . S
C134 O135 1.249 . S
C134 O136 1.270 . S
O135 Zn127 1.943 . S
O135 C134 1.249 . S
O136 Zn126 2.067 . S
O136 C134 1.270 . S
C137 O130 1.262 . S
C137 O138 1.232 . S
O138 C137 1.232 . S
C139 O131 1.260 . S
C139 O132 1.257 . S
Zn140 O143 2.031 . S
Zn140 O145 2.049 . S
Zn140 O150 2.067 . S
Zn141 O142 1.962 . S
Zn141 O144 1.986 . S
Zn141 O146 1.996 . S
Zn141 O149 1.943 . S
O142 Zn141 1.962 . S
O142 C147 1.254 . S
O143 Zn140 2.031 . S
O143 C147 1.269 . S
O144 Zn141 1.986 . S
O144 C151 1.262 . S
O145 Zn140 2.049 . S
O145 C153 1.260 . S
O146 Zn141 1.996 . S
O146 C153 1.257 . S
C147 O142 1.254 . S
C147 O143 1.269 . S
C148 O149 1.249 . S
C148 O150 1.270 . S
O149 Zn141 1.943 . S
O149 C148 1.249 . S
O150 Zn140 2.067 . S
O150 C148 1.270 . S
C151 O144 1.262 . S
C151 O152 1.232 . S
O152 C151 1.232 . S
C153 O145 1.260 . S
C153 O146 1.257 . S
Zn154 O157 2.031 . S
Zn154 O159 2.049 1_556 S
Zn154 O164 2.067 . S
Zn155 O156 1.962 . S
Zn155 O158 1.986 . S
Zn155 O160 1.996 1_556 S
Zn155 O163 1.943 . S
O156 Zn155 1.962 . S
O156 C161 1.254 . S
O157 Zn154 2.031 . S
O157 C161 1.269 . S
O158 Zn155 1.986 . S
O158 C165 1.262 . S
O159 Zn154 2.049 1_554 S
O159 C167 1.260 . S
O160 Zn155 1.996 1_554 S
O160 C167 1.257 . S
C161 O156 1.254 . S
C161 O157 1.269 . S
C162 O163 1.249 . S
C162 O164 1.270 . S
O163 Zn155 1.943 . S
O163 C162 1.249 . S
O164 Zn154 2.067 . S
O164 C162 1.270 . S
C165 O158 1.262 . S
C165 O166 1.232 . S
O166 C165 1.232 . S
C167 O159 1.260 . S
C167 O160 1.257 . S
Zn168 O171 2.031 . S
Zn168 O173 2.049 . S
Zn168 O178 2.067 . S
Zn169 O170 1.962 . S
Zn169 O172 1.986 . S
Zn169 O174 1.996 . S
Zn169 O177 1.943 . S
O170 Zn169 1.962 . S
O170 C175 1.254 . S
O171 Zn168 2.031 . S
O171 C175 1.269 . S
O172 Zn169 1.986 . S
O172 C179 1.262 . S
O173 Zn168 2.049 . S
O173 C181 1.260 . S
O174 Zn169 1.996 . S
O174 C181 1.257 . S
C175 O170 1.254 . S
C175 O171 1.269 . S
C176 O177 1.249 . S
C176 O178 1.270 . S
O177 Zn169 1.943 . S
O177 C176 1.249 . S
O178 Zn168 2.067 . S
O178 C176 1.270 . S
C179 O172 1.262 . S
C179 O180 1.232 . S
O180 C179 1.232 . S
C181 O173 1.260 . S
C181 O174 1.257 . S
Zn182 O185 2.031 . S
Zn182 O187 2.049 . S
Zn182 O192 2.067 . S
Zn183 O184 1.962 . S
Zn183 O186 1.986 . S
Zn183 O188 1.996 . S
Zn183 O191 1.943 . S
O184 Zn183 1.962 . S
O184 C189 1.254 . S
O185 Zn182 2.031 . S
O185 C189 1.269 . S
O186 Zn183 1.986 . S
O186 C193 1.262 . S
O187 Zn182 2.049 . S
O187 C195 1.260 . S
O188 Zn183 1.996 . S
O188 C195 1.257 . S
C189 O184 1.254 . S
C189 O185 1.269 . S
C190 O191 1.249 . S
C190 O192 1.270 . S
O191 Zn183 1.943 . S
O191 C190 1.249 . S
O192 Zn182 2.067 . S
O192 C190 1.270 . S
C193 O186 1.262 . S
C193 O194 1.232 . S
O194 C193 1.232 . S
C195 O187 1.260 . S
C195 O188 1.257 . S
Zn196 O199 2.031 . S
Zn196 O201 2.049 . S
Zn196 O206 2.067 . S
Zn197 O198 1.962 . S
Zn197 O200 1.986 . S
Zn197 O202 1.996 . S
Zn197 O205 1.943 . S
O198 Zn197 1.962 . S
O198 C203 1.254 . S
O199 Zn196 2.031 . S
O199 C203 1.269 . S
O200 Zn197 1.986 . S
O200 C207 1.262 . S
O201 Zn196 2.049 . S
O201 C209 1.260 . S
O202 Zn197 1.996 . S
O202 C209 1.257 . S
C203 O198 1.254 . S
C203 O199 1.269 . S
C204 O205 1.249 . S
C204 O206 1.270 . S
O205 Zn197 1.943 . S
O205 C204 1.249 . S
O206 Zn196 2.067 . S
O206 C204 1.270 . S
C207 O200 1.262 . S
C207 O208 1.232 . S
O208 C207 1.232 . S
C209 O201 1.260 . S
C209 O202 1.257 . S
Zn210 O213 2.005 1_455 S
Zn210 O215 2.049 1_554 S
Zn210 O220 2.067 . S
Zn211 O212 1.962 1_455 S
Zn211 O214 1.986 . S
Zn211 O216 1.996 1_554 S
Zn211 O219 1.943 . S
O212 Zn211 1.962 1_655 S
O212 C217 1.254 . S
O213 Zn210 2.005 1_655 S
O213 C217 1.306 . S
O214 Zn211 1.986 . S
O214 C221 1.262 . S
O215 Zn210 2.049 1_556 S
O215 C223 1.260 . S
O216 Zn211 1.996 1_556 S
O216 C223 1.257 . S
C217 O212 1.254 . S
C217 O213 1.306 . S
C218 O219 1.249 . S
C218 O220 1.270 . S
O219 Zn211 1.943 . S
O219 C218 1.249 . S
O220 Zn210 2.067 . S
O220 C218 1.270 . S
C221 O214 1.262 . S
C221 O222 1.232 . S
O222 C221 1.232 . S
C223 O215 1.260 . S
C223 O216 1.257 . S
Zn224 O227 2.031 . S
Zn224 O229 2.049 . S
Zn224 O234 2.067 . S
Zn225 O226 1.962 . S
Zn225 O228 1.986 . S
Zn225 O230 1.996 . S
Zn225 O233 1.943 . S
O226 Zn225 1.962 . S
O226 C231 1.254 . S
O227 Zn224 2.031 . S
O227 C231 1.269 . S
O228 Zn225 1.986 . S
O228 C235 1.262 . S
O229 Zn224 2.049 . S
O229 C237 1.260 . S
O230 Zn225 1.996 . S
O230 C237 1.257 . S
C231 O226 1.254 . S
C231 O227 1.269 . S
C232 O233 1.249 . S
C232 O234 1.270 . S
O233 Zn225 1.943 . S
O233 C232 1.249 . S
O234 Zn224 2.067 . S
O234 C232 1.270 . S
C235 O228 1.262 . S
C235 O236 1.232 . S
O236 C235 1.232 . S
C237 O229 1.260 . S
C237 O230 1.257 . S
Zn238 O241 2.031 . S
Zn238 O243 2.049 1_554 S
Zn238 O248 2.067 . S
Zn239 O240 1.962 . S
Zn239 O242 1.986 . S
Zn239 O244 1.996 1_554 S
Zn239 O247 1.943 . S
O240 Zn239 1.962 . S
O240 C245 1.254 . S
O241 Zn238 2.031 . S
O241 C245 1.269 . S
O242 Zn239 1.986 . S
O242 C249 1.262 . S
O243 Zn238 2.049 1_556 S
O243 C251 1.260 . S
O244 Zn239 1.996 1_556 S
O244 C251 1.257 . S
C245 O240 1.254 . S
C245 O241 1.269 . S
C246 O247 1.249 . S
C246 O248 1.270 . S
O247 Zn239 1.943 . S
O247 C246 1.249 . S
O248 Zn238 2.067 . S
O248 C246 1.270 . S
C249 O242 1.262 . S
C249 O250 1.232 . S
O250 C249 1.232 . S
C251 O243 1.260 . S
C251 O244 1.257 . S
Zn252 O255 2.031 . S
Zn252 O257 2.049 . S
Zn252 O262 2.067 . S
Zn253 O254 1.962 . S
Zn253 O256 1.986 . S
Zn253 O258 1.996 . S
Zn253 O261 1.943 . S
O254 Zn253 1.962 . S
O254 C259 1.254 . S
O255 Zn252 2.031 . S
O255 C259 1.269 . S
O256 Zn253 1.986 . S
O256 C263 1.262 . S
O257 Zn252 2.049 . S
O257 C265 1.260 . S
O258 Zn253 1.996 . S
O258 C265 1.257 . S
C259 O254 1.254 . S
C259 O255 1.269 . S
C260 O261 1.249 . S
C260 O262 1.270 . S
O261 Zn253 1.943 . S
O261 C260 1.249 . S
O262 Zn252 2.067 . S
O262 C260 1.270 . S
C263 O256 1.262 . S
C263 O264 1.232 . S
O264 C263 1.232 . S
C265 O257 1.260 . S
C265 O258 1.257 . S
Zn266 O269 2.005 1_455 S
Zn266 O271 2.049 . S
Zn266 O276 2.067 . S
Zn267 O268 1.962 1_455 S
Zn267 O270 1.986 . S
Zn267 O272 1.996 . S
Zn267 O275 1.943 . S
O268 Zn267 1.962 1_655 S
O268 C273 1.254 . S
O269 Zn266 2.005 1_655 S
O269 C273 1.306 . S
O270 Zn267 1.986 . S
O270 C277 1.262 . S
O271 Zn266 2.049 . S
O271 C279 1.260 . S
O272 Zn267 1.996 . S
O272 C279 1.257 . S
C273 O268 1.254 . S
C273 O269 1.306 . S
C274 O275 1.249 . S
C274 O276 1.270 . S
O275 Zn267 1.943 . S
O275 C274 1.249 . S
O276 Zn266 2.067 . S
O276 C274 1.270 . S
C277 O270 1.262 . S
C277 O278 1.232 . S
O278 C277 1.232 . S
C279 O271 1.260 . S
C279 O272 1.257 . S
Zn280 O283 2.031 . S
Zn280 O285 2.049 . S
Zn280 O290 2.067 . S
Zn281 O282 1.962 . S
Zn281 O284 1.986 . S
Zn281 O286 1.996 . S
Zn281 O289 1.943 . S
O282 Zn281 1.962 . S
O282 C287 1.254 . S
O283 Zn280 2.031 . S
O283 C287 1.269 . S
O284 Zn281 1.986 . S
O284 C291 1.262 . S
O285 Zn280 2.049 . S
O285 C293 1.260 . S
O286 Zn281 1.996 . S
O286 C293 1.257 . S
C287 O282 1.254 . S
C287 O283 1.269 . S
C288 O289 1.249 . S
C288 O290 1.270 . S
O289 Zn281 1.943 . S
O289 C288 1.249 . S
O290 Zn280 2.067 . S
O290 C288 1.270 . S
C291 O284 1.262 . S
C291 O292 1.232 . S
O292 C291 1.232 . S
C293 O285 1.260 . S
C293 O286 1.257 . S
Zn294 O297 2.005 1_455 S
Zn294 O299 2.049 1_556 S
Zn294 O304 2.067 . S
Zn295 O296 1.962 1_455 S
Zn295 O298 1.986 . S
Zn295 O300 1.996 1_556 S
Zn295 O303 1.943 . S
O296 Zn295 1.962 1_655 S
O296 C301 1.254 . S
O297 Zn294 2.005 1_655 S
O297 C301 1.306 . S
O298 Zn295 1.986 . S
O298 C305 1.262 . S
O299 Zn294 2.049 1_554 S
O299 C307 1.260 . S
O300 Zn295 1.996 1_554 S
O300 C307 1.257 . S
C301 O296 1.254 . S
C301 O297 1.306 . S
C302 O303 1.249 . S
C302 O304 1.270 . S
O303 Zn295 1.943 . S
O303 C302 1.249 . S
O304 Zn294 2.067 . S
O304 C302 1.270 . S
C305 O298 1.262 . S
C305 O306 1.232 . S
O306 C305 1.232 . S
C307 O299 1.260 . S
C307 O300 1.257 . S
Zn308 O311 2.031 . S
Zn308 O313 2.049 . S
Zn308 O318 2.067 . S
Zn309 O310 1.962 . S
Zn309 O312 1.986 . S
Zn309 O314 1.996 . S
Zn309 O317 1.943 . S
O310 Zn309 1.962 . S
O310 C315 1.254 . S
O311 Zn308 2.031 . S
O311 C315 1.269 . S
O312 Zn309 1.986 . S
O312 C319 1.262 . S
O313 Zn308 2.049 . S
O313 C321 1.260 . S
O314 Zn309 1.996 . S
O314 C321 1.257 . S
C315 O310 1.254 . S
C315 O311 1.269 . S
C316 O317 1.249 . S
C316 O318 1.270 . S
O317 Zn309 1.943 . S
O317 C316 1.249 . S
O318 Zn308 2.067 . S
O318 C316 1.270 . S
C319 O312 1.262 . S
C319 O320 1.232 . S
O320 C319 1.232 . S
C321 O313 1.260 . S
C321 O314 1.257 . S
Zn322 O325 2.031 . S
Zn322 O327 2.049 . S
Zn322 O332 2.067 . S
Zn323 O324 1.962 . S
Zn323 O326 1.986 . S
Zn323 O328 1.996 . S
Zn323 O331 1.943 . S
O324 Zn323 1.962 . S
O324 C329 1.254 . S
O325 Zn322 2.031 . S
O325 C329 1.269 . S
O326 Zn323 1.986 . S
O326 C333 1.262 . S
O327 Zn322 2.049 . S
O327 C335 1.260 . S
O328 Zn323 1.996 . S
O328 C335 1.257 . S
C329 O324 1.254 . S
C329 O325 1.269 . S
C330 O331 1.249 . S
C330 O332 1.270 . S
O331 Zn323 1.943 . S
O331 C330 1.249 . S
O332 Zn322 2.067 . S
O332 C330 1.270 . S
C333 O326 1.262 . S
C333 O334 1.232 . S
O334 C333 1.232 . S
C335 O327 1.260 . S
C335 O328 1.257 . S
Zn336 O339 2.031 . S
Zn336 O341 2.049 . S
Zn336 O346 2.067 . S
Zn337 O338 1.962 . S
Zn337 O340 1.986 . S
Zn337 O342 1.996 . S
Zn337 O345 1.943 . S
O338 Zn337 1.962 . S
O338 C343 1.254 . S
O339 Zn336 2.031 . S
O339 C343 1.269 . S
O340 Zn337 1.986 . S
O340 C347 1.262 . S
O341 Zn336 2.049 . S
O341 C349 1.260 . S
O342 Zn337 1.996 . S
O342 C349 1.257 . S
C343 O338 1.254 . S
C343 O339 1.269 . S
C344 O345 1.249 . S
C344 O346 1.270 . S
O345 Zn337 1.943 . S
O345 C344 1.249 . S
O346 Zn336 2.067 . S
O346 C344 1.270 . S
C347 O340 1.262 . S
C347 O348 1.232 . S
O348 C347 1.232 . S
C349 O341 1.260 . S
C349 O342 1.257 . S
Zn350 O353 2.031 . S
Zn350 O355 2.049 1_556 S
Zn350 O360 2.067 . S
Zn351 O352 1.962 . S
Zn351 O354 1.986 . S
Zn351 O356 1.996 1_556 S
Zn351 O359 1.943 . S
O352 Zn351 1.962 . S
O352 C357 1.254 . S
O353 Zn350 2.031 . S
O353 C357 1.269 . S
O354 Zn351 1.986 . S
O354 C361 1.262 . S
O355 Zn350 2.049 1_554 S
O355 C363 1.260 . S
O356 Zn351 1.996 1_554 S
O356 C363 1.257 . S
C357 O352 1.254 . S
C357 O353 1.269 . S
C358 O359 1.249 . S
C358 O360 1.270 . S
O359 Zn351 1.943 . S
O359 C358 1.249 . S
O360 Zn350 2.067 . S
O360 C358 1.270 . S
C361 O354 1.262 . S
C361 O362 1.232 . S
O362 C361 1.232 . S
C363 O355 1.260 . S
C363 O356 1.257 . S
Zn364 O367 2.031 . S
Zn364 O369 2.049 . S
Zn364 O374 2.067 . S
Zn365 O366 1.962 . S
Zn365 O368 1.986 . S
Zn365 O370 1.996 . S
Zn365 O373 1.943 . S
O366 Zn365 1.962 . S
O366 C371 1.254 . S
O367 Zn364 2.031 . S
O367 C371 1.269 . S
O368 Zn365 1.986 . S
O368 C375 1.262 . S
O369 Zn364 2.049 . S
O369 C377 1.260 . S
O370 Zn365 1.996 . S
O370 C377 1.257 . S
C371 O366 1.254 . S
C371 O367 1.269 . S
C372 O373 1.249 . S
C372 O374 1.270 . S
O373 Zn365 1.943 . S
O373 C372 1.249 . S
O374 Zn364 2.067 . S
O374 C372 1.270 . S
C375 O368 1.262 . S
C375 O376 1.232 . S
O376 C375 1.232 . S
C377 O369 1.260 . S
C377 O370 1.257 . S
Zn378 O381 2.005 1_655 S
Zn378 O383 2.049 . S
Zn378 O388 2.067 . S
Zn379 O380 1.962 1_655 S
Zn379 O382 1.986 . S
Zn379 O384 1.996 . S
Zn379 O387 1.943 . S
O380 Zn379 1.962 1_455 S
O380 C385 1.254 . S
O381 Zn378 2.005 1_455 S
O381 C385 1.306 . S
O382 Zn379 1.986 . S
O382 C389 1.262 . S
O383 Zn378 2.049 . S
O383 C391 1.260 . S
O384 Zn379 1.996 . S
O384 C391 1.257 . S
C385 O380 1.254 . S
C385 O381 1.306 . S
C386 O387 1.249 . S
C386 O388 1.270 . S
O387 Zn379 1.943 . S
O387 C386 1.249 . S
O388 Zn378 2.067 . S
O388 C386 1.270 . S
C389 O382 1.262 . S
C389 O390 1.232 . S
O390 C389 1.232 . S
C391 O383 1.260 . S
C391 O384 1.257 . S
Zn392 O395 2.031 . S
Zn392 O397 2.049 . S
Zn392 O402 2.067 . S
Zn393 O394 1.962 . S
Zn393 O396 1.986 . S
Zn393 O398 1.996 . S
Zn393 O401 1.943 . S
O394 Zn393 1.962 . S
O394 C399 1.254 . S
O395 Zn392 2.031 . S
O395 C399 1.269 . S
O396 Zn393 1.986 . S
O396 C403 1.262 . S
O397 Zn392 2.049 . S
O397 C405 1.260 . S
O398 Zn393 1.996 . S
O398 C405 1.257 . S
C399 O394 1.254 . S
C399 O395 1.269 . S
C400 O401 1.249 . S
C400 O402 1.270 . S
O401 Zn393 1.943 . S
O401 C400 1.249 . S
O402 Zn392 2.067 . S
O402 C400 1.270 . S
C403 O396 1.262 . S
C403 O404 1.232 . S
O404 C403 1.232 . S
C405 O397 1.260 . S
C405 O398 1.257 . S
Zn406 O409 2.005 1_655 S
Zn406 O411 2.049 1_554 S
Zn406 O416 2.067 . S
Zn407 O408 1.962 1_655 S
Zn407 O410 1.986 . S
Zn407 O412 1.996 1_554 S
Zn407 O415 1.943 . S
O408 Zn407 1.962 1_455 S
O408 C413 1.254 . S
O409 Zn406 2.005 1_455 S
O409 C413 1.306 . S
O410 Zn407 1.986 . S
O410 C417 1.262 . S
O411 Zn406 2.049 1_556 S
O411 C419 1.260 . S
O412 Zn407 1.996 1_556 S
O412 C419 1.257 . S
C413 O408 1.254 . S
C413 O409 1.306 . S
C414 O415 1.249 . S
C414 O416 1.270 . S
O415 Zn407 1.943 . S
O415 C414 1.249 . S
O416 Zn406 2.067 . S
O416 C414 1.270 . S
C417 O410 1.262 . S
C417 O418 1.232 . S
O418 C417 1.232 . S
C419 O411 1.260 . S
C419 O412 1.257 . S
Zn420 O423 2.031 . S
Zn420 O425 2.049 . S
Zn420 O430 2.067 . S
Zn421 O422 1.962 . S
Zn421 O424 1.986 . S
Zn421 O426 1.996 . S
Zn421 O429 1.943 . S
O422 Zn421 1.962 . S
O422 C427 1.254 . S
O423 Zn420 2.031 . S
O423 C427 1.269 . S
O424 Zn421 1.986 . S
O424 C431 1.262 . S
O425 Zn420 2.049 . S
O425 C433 1.260 . S
O426 Zn421 1.996 . S
O426 C433 1.257 . S
C427 O422 1.254 . S
C427 O423 1.269 . S
C428 O429 1.249 . S
C428 O430 1.270 . S
O429 Zn421 1.943 . S
O429 C428 1.249 . S
O430 Zn420 2.067 . S
O430 C428 1.270 . S
C431 O424 1.262 . S
C431 O432 1.232 . S
O432 C431 1.232 . S
C433 O425 1.260 . S
C433 O426 1.257 . S
Zn434 O437 2.031 . S
Zn434 O439 2.049 . S
Zn434 O444 2.067 . S
Zn435 O436 1.962 . S
Zn435 O438 1.986 . S
Zn435 O440 1.996 . S
Zn435 O443 1.943 . S
O436 Zn435 1.962 . S
O436 C441 1.254 . S
O437 Zn434 2.031 . S
O437 C441 1.269 . S
O438 Zn435 1.986 . S
O438 C445 1.262 . S
O439 Zn434 2.049 . S
O439 C447 1.260 . S
O440 Zn435 1.996 . S
O440 C447 1.257 . S
C441 O436 1.254 . S
C441 O437 1.269 . S
C442 O443 1.249 . S
C442 O444 1.270 . S
O443 Zn435 1.943 . S
O443 C442 1.249 . S
O444 Zn434 2.067 . S
O444 C442 1.270 . S
C445 O438 1.262 . S
C445 O446 1.232 . S
O446 C445 1.232 . S
C447 O439 1.260 . S
C447 O440 1.257 . S
H448 C456 0.929 . S
H449 C458 0.930 . S
H450 C460 0.930 . S
H451 C463 0.929 . S
H452 C466 0.930 . S
H453 C468 0.960 . S
H454 C468 0.960 . S
H455 C468 0.960 . S
C456 H448 0.929 . S
C456 C457 1.377 . S
C456 C458 1.384 . S
C457 C456 1.377 . S
C457 C463 1.390 . S
C458 H449 0.930 . S
C458 C456 1.384 . S
C458 C459 1.372 . S
C459 C458 1.372 . S
C459 C460 1.400 . S
C459 C464 1.490 . S
C460 H450 0.930 . S
C460 C459 1.400 . S
C460 C463 1.386 . S
H461 C477 0.930 . S
H462 C478 0.931 . S
C463 H451 0.929 . S
C463 C457 1.390 . S
C463 C460 1.386 . S
C464 C459 1.490 . S
C464 C466 1.395 . S
C464 C467 1.403 . S
H465 C471 0.930 . S
C466 H452 0.930 . S
C466 C464 1.395 . S
C466 C469 1.403 . S
C467 C464 1.403 . S
C467 C468 1.524 . S
C467 C471 1.400 . S
C468 H453 0.960 . S
C468 H454 0.960 . S
C468 H455 0.960 . S
C468 C467 1.524 . S
C469 C466 1.403 . S
C469 C470 1.392 . S
C469 C473 1.495 . S
C470 C469 1.392 . S
C470 C471 1.385 . S
C470 C472 1.478 . S
C471 H465 0.930 . S
C471 C467 1.400 . S
C471 C470 1.385 . S
C472 C470 1.478 . S
C472 C474 1.381 . S
C472 C478 1.383 . S
C473 C469 1.495 . S
C473 H479 0.959 . S
C473 H480 0.961 . S
C473 H481 0.960 . S
C474 C472 1.381 . S
C474 C475 1.394 . S
C474 H482 0.930 . S
C475 C474 1.394 . S
C475 C476 1.383 . S
C475 H483 0.929 . S
C476 C475 1.383 . S
C476 C477 1.377 . S
C477 H461 0.930 . S
C477 C476 1.377 . S
C477 C478 1.379 . S
C478 H462 0.931 . S
C478 C472 1.383 . S
C478 C477 1.379 . S
H479 C473 0.959 . S
H480 C473 0.961 . S
H481 C473 0.960 . S
H482 C474 0.930 . S
H483 C475 0.929 . S
H484 C492 0.929 . S
H485 C494 0.930 . S
H486 C496 0.930 . S
H487 C499 0.929 . S
H488 C502 0.930 . S
H489 C504 0.960 . S
H490 C504 0.960 . S
H491 C504 0.960 . S
C492 H484 0.929 . S
C492 C493 1.377 . S
C492 C494 1.384 . S
C493 C492 1.377 . S
C493 C499 1.390 . S
C494 H485 0.930 . S
C494 C492 1.384 . S
C494 C495 1.372 . S
C495 C494 1.372 . S
C495 C496 1.400 . S
C495 C500 1.490 . S
C496 H486 0.930 . S
C496 C495 1.400 . S
C496 C499 1.386 . S
H497 C513 0.930 . S
H498 C514 0.931 . S
C499 H487 0.929 . S
C499 C493 1.390 . S
C499 C496 1.386 . S
C500 C495 1.490 . S
C500 C502 1.395 . S
C500 C503 1.403 . S
H501 C507 0.930 . S
C502 H488 0.930 . S
C502 C500 1.395 . S
C502 C505 1.403 . S
C503 C500 1.403 . S
C503 C504 1.524 . S
C503 C507 1.400 . S
C504 H489 0.960 . S
C504 H490 0.960 . S
C504 H491 0.960 . S
C504 C503 1.524 . S
C505 C502 1.403 . S
C505 C506 1.392 . S
C505 C509 1.495 . S
C506 C505 1.392 . S
C506 C507 1.385 . S
C506 C508 1.478 . S
C507 H501 0.930 . S
C507 C503 1.400 . S
C507 C506 1.385 . S
C508 C506 1.478 . S
C508 C510 1.381 . S
C508 C514 1.383 . S
C509 C505 1.495 . S
C509 H515 0.959 . S
C509 H516 0.961 . S
C509 H517 0.960 . S
C510 C508 1.381 . S
C510 C511 1.394 . S
C510 H518 0.930 . S
C511 C510 1.394 . S
C511 C512 1.383 . S
C511 H519 0.929 . S
C512 C511 1.383 . S
C512 C513 1.377 . S
C513 H497 0.930 . S
C513 C512 1.377 . S
C513 C514 1.379 . S
C514 H498 0.931 . S
C514 C508 1.383 . S
C514 C513 1.379 . S
H515 C509 0.959 . S
H516 C509 0.961 . S
H517 C509 0.960 . S
H518 C510 0.930 . S
H519 C511 0.929 . S
H520 C528 0.929 . S
H521 C530 0.930 . S
H522 C532 0.930 . S
H523 C535 0.929 . S
H524 C538 0.930 . S
H525 C540 0.960 . S
H526 C540 0.960 . S
H527 C540 0.960 . S
C528 H520 0.929 . S
C528 C529 1.377 . S
C528 C530 1.384 . S
C529 C528 1.377 . S
C529 C535 1.390 . S
C530 H521 0.930 . S
C530 C528 1.384 . S
C530 C531 1.372 . S
C531 C530 1.372 . S
C531 C532 1.400 . S
C531 C536 1.490 . S
C532 H522 0.930 . S
C532 C531 1.400 . S
C532 C535 1.386 . S
H533 C549 0.930 . S
H534 C550 0.931 . S
C535 H523 0.929 . S
C535 C529 1.390 . S
C535 C532 1.386 . S
C536 C531 1.490 . S
C536 C538 1.395 . S
C536 C539 1.403 . S
H537 C543 0.930 . S
C538 H524 0.930 . S
C538 C536 1.395 . S
C538 C541 1.403 . S
C539 C536 1.403 . S
C539 C540 1.524 . S
C539 C543 1.400 . S
C540 H525 0.960 . S
C540 H526 0.960 . S
C540 H527 0.960 . S
C540 C539 1.524 . S
C541 C538 1.403 . S
C541 C542 1.392 . S
C541 C545 1.495 . S
C542 C541 1.392 . S
C542 C543 1.385 . S
C542 C544 1.478 . S
C543 H537 0.930 . S
C543 C539 1.400 . S
C543 C542 1.385 . S
C544 C542 1.478 . S
C544 C546 1.381 . S
C544 C550 1.383 . S
C545 C541 1.495 . S
C545 H551 0.959 . S
C545 H552 0.961 . S
C545 H553 0.960 . S
C546 C544 1.381 . S
C546 C547 1.394 . S
C546 H554 0.930 . S
C547 C546 1.394 . S
C547 C548 1.383 . S
C547 H555 0.929 . S
C548 C547 1.383 . S
C548 C549 1.377 . S
C549 H533 0.930 . S
C549 C548 1.377 . S
C549 C550 1.379 . S
C550 H534 0.931 . S
C550 C544 1.383 . S
C550 C549 1.379 . S
H551 C545 0.959 . S
H552 C545 0.961 . S
H553 C545 0.960 . S
H554 C546 0.930 . S
H555 C547 0.929 . S
H556 C564 0.929 . S
H557 C566 0.930 . S
H558 C568 0.930 . S
H559 C571 0.929 . S
H560 C574 0.930 . S
H561 C576 0.960 . S
H562 C576 0.960 . S
H563 C576 0.960 . S
C564 H556 0.929 . S
C564 C565 1.377 . S
C564 C566 1.384 . S
C565 C564 1.377 . S
C565 C571 1.390 . S
C566 H557 0.930 . S
C566 C564 1.384 . S
C566 C567 1.372 . S
C567 C566 1.372 . S
C567 C568 1.400 . S
C567 C572 1.490 . S
C568 H558 0.930 . S
C568 C567 1.400 . S
C568 C571 1.386 . S
H569 C585 0.930 . S
H570 C586 0.931 . S
C571 H559 0.929 . S
C571 C565 1.390 . S
C571 C568 1.386 . S
C572 C567 1.490 . S
C572 C574 1.395 . S
C572 C575 1.403 . S
H573 C579 0.930 . S
C574 H560 0.930 . S
C574 C572 1.395 . S
C574 C577 1.403 . S
C575 C572 1.403 . S
C575 C576 1.524 . S
C575 C579 1.400 . S
C576 H561 0.960 . S
C576 H562 0.960 . S
C576 H563 0.960 . S
C576 C575 1.524 . S
C577 C574 1.403 . S
C577 C578 1.392 . S
C577 C581 1.495 . S
C578 C577 1.392 . S
C578 C579 1.385 . S
C578 C580 1.478 . S
C579 H573 0.930 . S
C579 C575 1.400 . S
C579 C578 1.385 . S
C580 C578 1.478 . S
C580 C582 1.381 . S
C580 C586 1.383 . S
C581 C577 1.495 . S
C581 H587 0.959 . S
C581 H588 0.961 . S
C581 H589 0.960 . S
C582 C580 1.381 . S
C582 C583 1.394 . S
C582 H590 0.930 . S
C583 C582 1.394 . S
C583 C584 1.383 . S
C583 H591 0.929 . S
C584 C583 1.383 . S
C584 C585 1.377 . S
C585 H569 0.930 . S
C585 C584 1.377 . S
C585 C586 1.379 . S
C586 H570 0.931 . S
C586 C580 1.383 . S
C586 C585 1.379 . S
H587 C581 0.959 . S
H588 C581 0.961 . S
H589 C581 0.960 . S
H590 C582 0.930 . S
H591 C583 0.929 . S
H592 C600 0.929 . S
H593 C602 0.930 . S
H594 C604 0.930 . S
H595 C607 0.929 . S
H596 C610 0.930 . S
H597 C612 0.960 . S
H598 C612 0.960 . S
H599 C612 0.960 . S
C600 H592 0.929 . S
C600 C601 1.377 . S
C600 C602 1.384 . S
C601 C600 1.377 . S
C601 C607 1.390 . S
C602 H593 0.930 . S
C602 C600 1.384 . S
C602 C603 1.372 . S
C603 C602 1.372 . S
C603 C604 1.400 . S
C603 C608 1.490 . S
C604 H594 0.930 . S
C604 C603 1.400 . S
C604 C607 1.386 . S
H605 C621 0.930 . S
H606 C622 0.931 . S
C607 H595 0.929 . S
C607 C601 1.390 . S
C607 C604 1.386 . S
C608 C603 1.490 . S
C608 C610 1.395 . S
C608 C611 1.403 . S
H609 C615 0.930 . S
C610 H596 0.930 . S
C610 C608 1.395 . S
C610 C613 1.403 . S
C611 C608 1.403 . S
C611 C612 1.524 . S
C611 C615 1.400 . S
C612 H597 0.960 . S
C612 H598 0.960 . S
C612 H599 0.960 . S
C612 C611 1.524 . S
C613 C610 1.403 . S
C613 C614 1.392 . S
C613 C617 1.495 . S
C614 C613 1.392 . S
C614 C615 1.385 . S
C614 C616 1.478 . S
C615 H609 0.930 . S
C615 C611 1.400 . S
C615 C614 1.385 . S
C616 C614 1.478 . S
C616 C618 1.381 . S
C616 C622 1.383 . S
C617 C613 1.495 . S
C617 H623 0.959 . S
C617 H624 0.961 . S
C617 H625 0.960 . S
C618 C616 1.381 . S
C618 C619 1.394 . S
C618 H626 0.930 . S
C619 C618 1.394 . S
C619 C620 1.383 . S
C619 H627 0.929 . S
C620 C619 1.383 . S
C620 C621 1.377 . S
C621 H605 0.930 . S
C621 C620 1.377 . S
C621 C622 1.379 . S
C622 H606 0.931 . S
C622 C616 1.383 . S
C622 C621 1.379 . S
H623 C617 0.959 . S
H624 C617 0.961 . S
H625 C617 0.960 . S
H626 C618 0.930 . S
H627 C619 0.929 . S
H628 C636 0.929 . S
H629 C638 0.930 . S
H630 C640 0.930 . S
H631 C643 0.929 . S
H632 C646 0.930 . S
H633 C648 0.960 . S
H634 C648 0.960 . S
H635 C648 0.960 . S
C636 H628 0.929 . S
C636 C637 1.377 . S
C636 C638 1.384 . S
C637 C636 1.377 . S
C637 C643 1.390 . S
C638 H629 0.930 . S
C638 C636 1.384 . S
C638 C639 1.372 . S
C639 C638 1.372 . S
C639 C640 1.400 . S
C639 C644 1.490 . S
C640 H630 0.930 . S
C640 C639 1.400 . S
C640 C643 1.386 . S
H641 C657 0.930 . S
H642 C658 0.931 . S
C643 H631 0.929 . S
C643 C637 1.390 . S
C643 C640 1.386 . S
C644 C639 1.490 . S
C644 C646 1.395 . S
C644 C647 1.403 . S
H645 C651 0.930 . S
C646 H632 0.930 . S
C646 C644 1.395 . S
C646 C649 1.403 . S
C647 C644 1.403 . S
C647 C648 1.524 . S
C647 C651 1.400 . S
C648 H633 0.960 . S
C648 H634 0.960 . S
C648 H635 0.960 . S
C648 C647 1.524 . S
C649 C646 1.403 . S
C649 C650 1.392 . S
C649 C653 1.495 . S
C650 C649 1.392 . S
C650 C651 1.385 . S
C650 C652 1.478 . S
C651 H645 0.930 . S
C651 C647 1.400 . S
C651 C650 1.385 . S
C652 C650 1.478 . S
C652 C654 1.381 . S
C652 C658 1.383 . S
C653 C649 1.495 . S
C653 H659 0.959 . S
C653 H660 0.961 . S
C653 H661 0.960 . S
C654 C652 1.381 . S
C654 C655 1.394 . S
C654 H662 0.930 . S
C655 C654 1.394 . S
C655 C656 1.383 . S
C655 H663 0.929 . S
C656 C655 1.383 . S
C656 C657 1.377 . S
C657 H641 0.930 . S
C657 C656 1.377 . S
C657 C658 1.379 . S
C658 H642 0.931 . S
C658 C652 1.383 . S
C658 C657 1.379 . S
H659 C653 0.959 . S
H660 C653 0.961 . S
H661 C653 0.960 . S
H662 C654 0.930 . S
H663 C655 0.929 . S
H664 C672 0.929 . S
H665 C674 0.930 . S
H666 C676 0.930 . S
H667 C679 0.929 . S
H668 C682 0.930 . S
H669 C684 0.960 . S
H670 C684 0.960 . S
H671 C684 0.960 . S
C672 H664 0.929 . S
C672 C673 1.377 . S
C672 C674 1.384 . S
C673 C672 1.377 . S
C673 C679 1.390 . S
C674 H665 0.930 . S
C674 C672 1.384 . S
C674 C675 1.372 . S
C675 C674 1.372 . S
C675 C676 1.400 . S
C675 C680 1.490 . S
C676 H666 0.930 . S
C676 C675 1.400 . S
C676 C679 1.386 . S
H677 C693 0.930 . S
H678 C694 0.931 . S
C679 H667 0.929 . S
C679 C673 1.390 . S
C679 C676 1.386 . S
C680 C675 1.490 . S
C680 C682 1.395 . S
C680 C683 1.403 . S
H681 C687 0.930 . S
C682 H668 0.930 . S
C682 C680 1.395 . S
C682 C685 1.403 . S
C683 C680 1.403 . S
C683 C684 1.524 . S
C683 C687 1.400 . S
C684 H669 0.960 . S
C684 H670 0.960 . S
C684 H671 0.960 . S
C684 C683 1.524 . S
C685 C682 1.403 . S
C685 C686 1.392 . S
C685 C689 1.495 . S
C686 C685 1.392 . S
C686 C687 1.385 . S
C686 C688 1.478 . S
C687 H681 0.930 . S
C687 C683 1.400 . S
C687 C686 1.385 . S
C688 C686 1.478 . S
C688 C690 1.381 . S
C688 C694 1.383 . S
C689 C685 1.495 . S
C689 H695 0.959 . S
C689 H696 0.961 . S
C689 H697 0.960 . S
C690 C688 1.381 . S
C690 C691 1.394 . S
C690 H698 0.930 . S
C691 C690 1.394 . S
C691 C692 1.383 . S
C691 H699 0.929 . S
C692 C691 1.383 . S
C692 C693 1.377 . S
C693 H677 0.930 . S
C693 C692 1.377 . S
C693 C694 1.379 . S
C694 H678 0.931 . S
C694 C688 1.383 . S
C694 C693 1.379 . S
H695 C689 0.959 . S
H696 C689 0.961 . S
H697 C689 0.960 . S
H698 C690 0.930 . S
H699 C691 0.929 . S
H700 C708 0.929 . S
H701 C710 0.930 . S
H702 C712 0.930 . S
H703 C715 0.929 . S
H704 C718 0.930 . S
H705 C720 0.960 . S
H706 C720 0.960 . S
H707 C720 0.960 . S
C708 H700 0.929 . S
C708 C709 1.377 . S
C708 C710 1.384 . S
C709 C708 1.377 . S
C709 C715 1.390 . S
C710 H701 0.930 . S
C710 C708 1.384 . S
C710 C711 1.372 . S
C711 C710 1.372 . S
C711 C712 1.400 . S
C711 C716 1.490 . S
C712 H702 0.930 . S
C712 C711 1.400 . S
C712 C715 1.386 . S
H713 C729 0.930 . S
H714 C730 0.931 . S
C715 H703 0.929 . S
C715 C709 1.390 . S
C715 C712 1.386 . S
C716 C711 1.490 . S
C716 C718 1.395 . S
C716 C719 1.403 . S
H717 C723 0.930 . S
C718 H704 0.930 . S
C718 C716 1.395 . S
C718 C721 1.403 . S
C719 C716 1.403 . S
C719 C720 1.524 . S
C719 C723 1.400 . S
C720 H705 0.960 . S
C720 H706 0.960 . S
C720 H707 0.960 . S
C720 C719 1.524 . S
C721 C718 1.403 . S
C721 C722 1.392 . S
C721 C725 1.495 . S
C722 C721 1.392 . S
C722 C723 1.385 . S
C722 C724 1.478 . S
C723 H717 0.930 . S
C723 C719 1.400 . S
C723 C722 1.385 . S
C724 C722 1.478 . S
C724 C726 1.381 . S
C724 C730 1.383 . S
C725 C721 1.495 . S
C725 H731 0.959 . S
C725 H732 0.961 . S
C725 H733 0.960 . S
C726 C724 1.381 . S
C726 C727 1.394 . S
C726 H734 0.930 . S
C727 C726 1.394 . S
C727 C728 1.383 . S
C727 H735 0.929 . S
C728 C727 1.383 . S
C728 C729 1.377 . S
C729 H713 0.930 . S
C729 C728 1.377 . S
C729 C730 1.379 . S
C730 H714 0.931 . S
C730 C724 1.383 . S
C730 C729 1.379 . S
H731 C725 0.959 . S
H732 C725 0.961 . S
H733 C725 0.960 . S
H734 C726 0.930 . S
H735 C727 0.929 . S
H736 C744 0.929 . S
H737 C746 0.930 . S
H738 C748 0.930 . S
H739 C751 0.929 . S
H740 C754 0.930 . S
H741 C756 0.960 . S
H742 C756 0.960 . S
H743 C756 0.960 . S
C744 H736 0.929 . S
C744 C745 1.377 . S
C744 C746 1.384 . S
C745 C744 1.377 . S
C745 C751 1.390 . S
C746 H737 0.930 . S
C746 C744 1.384 . S
C746 C747 1.372 . S
C747 C746 1.372 . S
C747 C748 1.400 . S
C747 C752 1.490 . S
C748 H738 0.930 . S
C748 C747 1.400 . S
C748 C751 1.386 . S
H749 C765 0.930 . S
H750 C766 0.931 . S
C751 H739 0.929 . S
C751 C745 1.390 . S
C751 C748 1.386 . S
C752 C747 1.490 . S
C752 C754 1.395 . S
C752 C755 1.403 . S
H753 C759 0.930 . S
C754 H740 0.930 . S
C754 C752 1.395 . S
C754 C757 1.403 . S
C755 C752 1.403 . S
C755 C756 1.524 . S
C755 C759 1.400 . S
C756 H741 0.960 . S
C756 H742 0.960 . S
C756 H743 0.960 . S
C756 C755 1.524 . S
C757 C754 1.403 . S
C757 C758 1.392 . S
C757 C761 1.495 . S
C758 C757 1.392 . S
C758 C759 1.385 . S
C758 C760 1.478 . S
C759 H753 0.930 . S
C759 C755 1.400 . S
C759 C758 1.385 . S
C760 C758 1.478 . S
C760 C762 1.381 . S
C760 C766 1.383 . S
C761 C757 1.495 . S
C761 H767 0.959 . S
C761 H768 0.961 . S
C761 H769 0.960 . S
C762 C760 1.381 . S
C762 C763 1.394 . S
C762 H770 0.930 . S
C763 C762 1.394 . S
C763 C764 1.383 . S
C763 H771 0.929 . S
C764 C763 1.383 . S
C764 C765 1.377 . S
C765 H749 0.930 . S
C765 C764 1.377 . S
C765 C766 1.379 . S
C766 H750 0.931 . S
C766 C760 1.383 . S
C766 C765 1.379 . S
H767 C761 0.959 . S
H768 C761 0.961 . S
H769 C761 0.960 . S
H770 C762 0.930 . S
H771 C763 0.929 . S
H772 C780 0.929 . S
H773 C782 0.930 . S
H774 C784 0.930 . S
H775 C787 0.929 . S
H776 C790 0.930 . S
H777 C792 0.960 . S
H778 C792 0.960 . S
H779 C792 0.960 . S
C780 H772 0.929 . S
C780 C781 1.377 . S
C780 C782 1.384 . S
C781 C780 1.377 . S
C781 C787 1.390 . S
C782 H773 0.930 . S
C782 C780 1.384 . S
C782 C783 1.372 . S
C783 C782 1.372 . S
C783 C784 1.400 . S
C783 C788 1.490 . S
C784 H774 0.930 . S
C784 C783 1.400 . S
C784 C787 1.386 . S
H785 C801 0.930 . S
H786 C802 0.931 . S
C787 H775 0.929 . S
C787 C781 1.390 . S
C787 C784 1.386 . S
C788 C783 1.490 . S
C788 C790 1.395 . S
C788 C791 1.403 . S
H789 C795 0.930 . S
C790 H776 0.930 . S
C790 C788 1.395 . S
C790 C793 1.403 . S
C791 C788 1.403 . S
C791 C792 1.524 . S
C791 C795 1.400 . S
C792 H777 0.960 . S
C792 H778 0.960 . S
C792 H779 0.960 . S
C792 C791 1.524 . S
C793 C790 1.403 . S
C793 C794 1.392 . S
C793 C797 1.495 . S
C794 C793 1.392 . S
C794 C795 1.385 . S
C794 C796 1.478 . S
C795 H789 0.930 . S
C795 C791 1.400 . S
C795 C794 1.385 . S
C796 C794 1.478 . S
C796 C798 1.381 . S
C796 C802 1.383 . S
C797 C793 1.495 . S
C797 H803 0.959 . S
C797 H804 0.961 . S
C797 H805 0.960 . S
C798 C796 1.381 . S
C798 C799 1.394 . S
C798 H806 0.930 . S
C799 C798 1.394 . S
C799 C800 1.383 . S
C799 H807 0.929 . S
C800 C799 1.383 . S
C800 C801 1.377 . S
C801 H785 0.930 . S
C801 C800 1.377 . S
C801 C802 1.379 . S
C802 H786 0.931 . S
C802 C796 1.383 . S
C802 C801 1.379 . S
H803 C797 0.959 . S
H804 C797 0.961 . S
H805 C797 0.960 . S
H806 C798 0.930 . S
H807 C799 0.929 . S
H808 C816 0.929 . S
H809 C818 0.930 . S
H810 C820 0.930 . S
H811 C823 0.929 . S
H812 C826 0.930 . S
H813 C828 0.960 . S
H814 C828 0.960 . S
H815 C828 0.960 . S
C816 H808 0.929 . S
C816 C817 1.377 . S
C816 C818 1.384 . S
C817 C816 1.377 . S
C817 C823 1.390 . S
C818 H809 0.930 . S
C818 C816 1.384 . S
C818 C819 1.372 . S
C819 C818 1.372 . S
C819 C820 1.400 . S
C819 C824 1.490 . S
C820 H810 0.930 . S
C820 C819 1.400 . S
C820 C823 1.386 . S
H821 C837 0.930 . S
H822 C838 0.931 . S
C823 H811 0.929 . S
C823 C817 1.390 . S
C823 C820 1.386 . S
C824 C819 1.490 . S
C824 C826 1.395 . S
C824 C827 1.403 . S
H825 C831 0.930 . S
C826 H812 0.930 . S
C826 C824 1.395 . S
C826 C829 1.403 . S
C827 C824 1.403 . S
C827 C828 1.524 . S
C827 C831 1.400 . S
C828 H813 0.960 . S
C828 H814 0.960 . S
C828 H815 0.960 . S
C828 C827 1.524 . S
C829 C826 1.403 . S
C829 C830 1.392 . S
C829 C833 1.495 . S
C830 C829 1.392 . S
C830 C831 1.385 . S
C830 C832 1.478 . S
C831 H825 0.930 . S
C831 C827 1.400 . S
C831 C830 1.385 . S
C832 C830 1.478 . S
C832 C834 1.381 . S
C832 C838 1.383 . S
C833 C829 1.495 . S
C833 H839 0.959 . S
C833 H840 0.961 . S
C833 H841 0.960 . S
C834 C832 1.381 . S
C834 C835 1.394 . S
C834 H842 0.930 . S
C835 C834 1.394 . S
C835 C836 1.383 . S
C835 H843 0.929 . S
C836 C835 1.383 . S
C836 C837 1.377 . S
C837 H821 0.930 . S
C837 C836 1.377 . S
C837 C838 1.379 . S
C838 H822 0.931 . S
C838 C832 1.383 . S
C838 C837 1.379 . S
H839 C833 0.959 . S
H840 C833 0.961 . S
H841 C833 0.960 . S
H842 C834 0.930 . S
H843 C835 0.929 . S
H844 C852 0.929 . S
H845 C854 0.930 . S
H846 C856 0.930 . S
H847 C859 0.929 . S
H848 C862 0.930 . S
H849 C864 0.960 . S
H850 C864 0.960 . S
H851 C864 0.960 . S
C852 H844 0.929 . S
C852 C853 1.377 . S
C852 C854 1.384 . S
C853 C852 1.377 . S
C853 C859 1.390 . S
C854 H845 0.930 . S
C854 C852 1.384 . S
C854 C855 1.372 . S
C855 C854 1.372 . S
C855 C856 1.400 . S
C855 C860 1.490 . S
C856 H846 0.930 . S
C856 C855 1.400 . S
C856 C859 1.386 . S
H857 C873 0.930 . S
H858 C874 0.931 . S
C859 H847 0.929 . S
C859 C853 1.390 . S
C859 C856 1.386 . S
C860 C855 1.490 . S
C860 C862 1.395 . S
C860 C863 1.403 . S
H861 C867 0.930 . S
C862 H848 0.930 . S
C862 C860 1.395 . S
C862 C865 1.403 . S
C863 C860 1.403 . S
C863 C864 1.524 . S
C863 C867 1.400 . S
C864 H849 0.960 . S
C864 H850 0.960 . S
C864 H851 0.960 . S
C864 C863 1.524 . S
C865 C862 1.403 . S
C865 C866 1.392 . S
C865 C869 1.495 . S
C866 C865 1.392 . S
C866 C867 1.385 . S
C866 C868 1.478 . S
C867 H861 0.930 . S
C867 C863 1.400 . S
C867 C866 1.385 . S
C868 C866 1.478 . S
C868 C870 1.381 . S
C868 C874 1.383 . S
C869 C865 1.495 . S
C869 H875 0.959 . S
C869 H876 0.961 . S
C869 H877 0.960 . S
C870 C868 1.381 . S
C870 C871 1.394 . S
C870 H878 0.930 . S
C871 C870 1.394 . S
C871 C872 1.383 . S
C871 H879 0.929 . S
C872 C871 1.383 . S
C872 C873 1.377 . S
C873 H857 0.930 . S
C873 C872 1.377 . S
C873 C874 1.379 . S
C874 H858 0.931 . S
C874 C868 1.383 . S
C874 C873 1.379 . S
H875 C869 0.959 . S
H876 C869 0.961 . S
H877 C869 0.960 . S
H878 C870 0.930 . S
H879 C871 0.929 . S
H880 C888 0.929 . S
H881 C890 0.930 . S
H882 C892 0.930 . S
H883 C895 0.929 . S
H884 C898 0.930 . S
H885 C900 0.960 . S
H886 C900 0.960 . S
H887 C900 0.960 . S
C888 H880 0.929 . S
C888 C889 1.377 . S
C888 C890 1.384 . S
C889 C888 1.377 . S
C889 C895 1.390 . S
C890 H881 0.930 . S
C890 C888 1.384 . S
C890 C891 1.372 . S
C891 C890 1.372 . S
C891 C892 1.400 . S
C891 C896 1.490 . S
C892 H882 0.930 . S
C892 C891 1.400 . S
C892 C895 1.386 . S
H893 C909 0.930 . S
H894 C910 0.931 . S
C895 H883 0.929 . S
C895 C889 1.390 . S
C895 C892 1.386 . S
C896 C891 1.490 . S
C896 C898 1.395 . S
C896 C899 1.403 . S
H897 C903 0.930 . S
C898 H884 0.930 . S
C898 C896 1.395 . S
C898 C901 1.403 . S
C899 C896 1.403 . S
C899 C900 1.524 . S
C899 C903 1.400 . S
C900 H885 0.960 . S
C900 H886 0.960 . S
C900 H887 0.960 . S
C900 C899 1.524 . S
C901 C898 1.403 . S
C901 C902 1.392 . S
C901 C905 1.495 . S
C902 C901 1.392 . S
C902 C903 1.385 . S
C902 C904 1.478 . S
C903 H897 0.930 . S
C903 C899 1.400 . S
C903 C902 1.385 . S
C904 C902 1.478 . S
C904 C906 1.381 . S
C904 C910 1.383 . S
C905 C901 1.495 . S
C905 H911 0.959 . S
C905 H912 0.961 . S
C905 H913 0.960 . S
C906 C904 1.381 . S
C906 C907 1.394 . S
C906 H914 0.930 . S
C907 C906 1.394 . S
C907 C908 1.383 . S
C907 H915 0.929 . S
C908 C907 1.383 . S
C908 C909 1.377 . S
C909 H893 0.930 . S
C909 C908 1.377 . S
C909 C910 1.379 . S
C910 H894 0.931 . S
C910 C904 1.383 . S
C910 C909 1.379 . S
H911 C905 0.959 . S
H912 C905 0.961 . S
H913 C905 0.960 . S
H914 C906 0.930 . S
H915 C907 0.929 . S
H916 C924 0.929 . S
H917 C926 0.930 . S
H918 C928 0.930 . S
H919 C931 0.929 . S
H920 C934 0.930 . S
H921 C936 0.960 . S
H922 C936 0.960 . S
H923 C936 0.960 . S
C924 H916 0.929 . S
C924 C925 1.377 . S
C924 C926 1.384 . S
C925 C924 1.377 . S
C925 C931 1.390 . S
C926 H917 0.930 . S
C926 C924 1.384 . S
C926 C927 1.372 . S
C927 C926 1.372 . S
C927 C928 1.400 . S
C927 C932 1.490 . S
C928 H918 0.930 . S
C928 C927 1.400 . S
C928 C931 1.386 . S
H929 C945 0.930 . S
H930 C946 0.931 . S
C931 H919 0.929 . S
C931 C925 1.390 . S
C931 C928 1.386 . S
C932 C927 1.490 . S
C932 C934 1.395 . S
C932 C935 1.403 . S
H933 C939 0.930 . S
C934 H920 0.930 . S
C934 C932 1.395 . S
C934 C937 1.403 . S
C935 C932 1.403 . S
C935 C936 1.524 . S
C935 C939 1.400 . S
C936 H921 0.960 . S
C936 H922 0.960 . S
C936 H923 0.960 . S
C936 C935 1.524 . S
C937 C934 1.403 . S
C937 C938 1.392 . S
C937 C941 1.495 . S
C938 C937 1.392 . S
C938 C939 1.385 . S
C938 C940 1.478 . S
C939 H933 0.930 . S
C939 C935 1.400 . S
C939 C938 1.385 . S
C940 C938 1.478 . S
C940 C942 1.381 . S
C940 C946 1.383 . S
C941 C937 1.495 . S
C941 H947 0.959 . S
C941 H948 0.961 . S
C941 H949 0.960 . S
C942 C940 1.381 . S
C942 C943 1.394 . S
C942 H950 0.930 . S
C943 C942 1.394 . S
C943 C944 1.383 . S
C943 H951 0.929 . S
C944 C943 1.383 . S
C944 C945 1.377 . S
C945 H929 0.930 . S
C945 C944 1.377 . S
C945 C946 1.379 . S
C946 H930 0.931 . S
C946 C940 1.383 . S
C946 C945 1.379 . S
H947 C941 0.959 . S
H948 C941 0.961 . S
H949 C941 0.960 . S
H950 C942 0.930 . S
H951 C943 0.929 . S
H952 C960 0.929 . S
H953 C962 0.930 . S
H954 C964 0.930 . S
H955 C967 0.929 . S
H956 C970 0.930 . S
H957 C972 0.960 . S
H958 C972 0.960 . S
H959 C972 0.960 . S
C960 H952 0.929 . S
C960 C961 1.377 . S
C960 C962 1.384 . S
C961 C960 1.377 . S
C961 C967 1.390 . S
C962 H953 0.930 . S
C962 C960 1.384 . S
C962 C963 1.372 . S
C963 C962 1.372 . S
C963 C964 1.400 . S
C963 C968 1.490 . S
C964 H954 0.930 . S
C964 C963 1.400 . S
C964 C967 1.386 . S
H965 C981 0.930 . S
H966 C982 0.931 . S
C967 H955 0.929 . S
C967 C961 1.390 . S
C967 C964 1.386 . S
C968 C963 1.490 . S
C968 C970 1.395 . S
C968 C971 1.403 . S
H969 C975 0.930 . S
C970 H956 0.930 . S
C970 C968 1.395 . S
C970 C973 1.403 . S
C971 C968 1.403 . S
C971 C972 1.524 . S
C971 C975 1.400 . S
C972 H957 0.960 . S
C972 H958 0.960 . S
C972 H959 0.960 . S
C972 C971 1.524 . S
C973 C970 1.403 . S
C973 C974 1.392 . S
C973 C977 1.495 . S
C974 C973 1.392 . S
C974 C975 1.385 . S
C974 C976 1.478 . S
C975 H969 0.930 . S
C975 C971 1.400 . S
C975 C974 1.385 . S
C976 C974 1.478 . S
C976 C978 1.381 . S
C976 C982 1.383 . S
C977 C973 1.495 . S
C977 H983 0.959 . S
C977 H984 0.961 . S
C977 H985 0.960 . S
C978 C976 1.381 . S
C978 C979 1.394 . S
C978 H986 0.930 . S
C979 C978 1.394 . S
C979 C980 1.383 . S
C979 H987 0.929 . S
C980 C979 1.383 . S
C980 C981 1.377 . S
C981 H965 0.930 . S
C981 C980 1.377 . S
C981 C982 1.379 . S
C982 H966 0.931 . S
C982 C976 1.383 . S
C982 C981 1.379 . S
H983 C977 0.959 . S
H984 C977 0.961 . S
H985 C977 0.960 . S
H986 C978 0.930 . S
H987 C979 0.929 . S
H988 C996 0.929 . S
H989 C998 0.930 . S
H990 C1000 0.930 . S
H991 C1003 0.929 . S
H992 C1006 0.930 . S
H993 C1008 0.960 . S
H994 C1008 0.960 . S
H995 C1008 0.960 . S
C996 H988 0.929 . S
C996 C997 1.377 . S
C996 C998 1.384 . S
C997 C996 1.377 . S
C997 C1003 1.390 . S
C998 H989 0.930 . S
C998 C996 1.384 . S
C998 C999 1.372 . S
C999 C998 1.372 . S
C999 C1000 1.400 . S
C999 C1004 1.490 . S
C1000 H990 0.930 . S
C1000 C999 1.400 . S
C1000 C1003 1.386 . S
H1001 C1017 0.930 . S
H1002 C1018 0.931 . S
C1003 H991 0.929 . S
C1003 C997 1.390 . S
C1003 C1000 1.386 . S
C1004 C999 1.490 . S
C1004 C1006 1.395 . S
C1004 C1007 1.403 . S
H1005 C1011 0.930 . S
C1006 H992 0.930 . S
C1006 C1004 1.395 . S
C1006 C1009 1.403 . S
C1007 C1004 1.403 . S
C1007 C1008 1.524 . S
C1007 C1011 1.400 . S
C1008 H993 0.960 . S
C1008 H994 0.960 . S
C1008 H995 0.960 . S
C1008 C1007 1.524 . S
C1009 C1006 1.403 . S
C1009 C1010 1.392 . S
C1009 C1013 1.495 . S
C1010 C1009 1.392 . S
C1010 C1011 1.385 . S
C1010 C1012 1.478 . S
C1011 H1005 0.930 . S
C1011 C1007 1.400 . S
C1011 C1010 1.385 . S
C1012 C1010 1.478 . S
C1012 C1014 1.381 . S
C1012 C1018 1.383 . S
C1013 C1009 1.495 . S
C1013 H1019 0.959 . S
C1013 H1020 0.961 . S
C1013 H1021 0.960 . S
C1014 C1012 1.381 . S
C1014 C1015 1.394 . S
C1014 H1022 0.930 . S
C1015 C1014 1.394 . S
C1015 C1016 1.383 . S
C1015 H1023 0.929 . S
C1016 C1015 1.383 . S
C1016 C1017 1.377 . S
C1017 H1001 0.930 . S
C1017 C1016 1.377 . S
C1017 C1018 1.379 . S
C1018 H1002 0.931 . S
C1018 C1012 1.383 . S
C1018 C1017 1.379 . S
H1019 C1013 0.959 . S
H1020 C1013 0.961 . S
H1021 C1013 0.960 . S
H1022 C1014 0.930 . S
H1023 C1015 0.929 . S
H1024 C1032 0.929 . S
H1025 C1034 0.930 . S
H1026 C1036 0.930 . S
H1027 C1039 0.929 . S
H1028 C1042 0.930 . S
H1029 C1044 0.960 . S
H1030 C1044 0.960 . S
H1031 C1044 0.960 . S
C1032 H1024 0.929 . S
C1032 C1033 1.377 . S
C1032 C1034 1.384 . S
C1033 C1032 1.377 . S
C1033 C1039 1.390 . S
C1034 H1025 0.930 . S
C1034 C1032 1.384 . S
C1034 C1035 1.372 . S
C1035 C1034 1.372 . S
C1035 C1036 1.400 . S
C1035 C1040 1.490 . S
C1036 H1026 0.930 . S
C1036 C1035 1.400 . S
C1036 C1039 1.386 . S
H1037 C1053 0.930 . S
H1038 C1054 0.931 . S
C1039 H1027 0.929 . S
C1039 C1033 1.390 . S
C1039 C1036 1.386 . S
C1040 C1035 1.490 . S
C1040 C1042 1.395 . S
C1040 C1043 1.403 . S
H1041 C1047 0.930 . S
C1042 H1028 0.930 . S
C1042 C1040 1.395 . S
C1042 C1045 1.403 . S
C1043 C1040 1.403 . S
C1043 C1044 1.524 . S
C1043 C1047 1.400 . S
C1044 H1029 0.960 . S
C1044 H1030 0.960 . S
C1044 H1031 0.960 . S
C1044 C1043 1.524 . S
C1045 C1042 1.403 . S
C1045 C1046 1.392 . S
C1045 C1049 1.495 . S
C1046 C1045 1.392 . S
C1046 C1047 1.385 . S
C1046 C1048 1.478 . S
C1047 H1041 0.930 . S
C1047 C1043 1.400 . S
C1047 C1046 1.385 . S
C1048 C1046 1.478 . S
C1048 C1050 1.381 . S
C1048 C1054 1.383 . S
C1049 C1045 1.495 . S
C1049 H1055 0.959 . S
C1049 H1056 0.961 . S
C1049 H1057 0.960 . S
C1050 C1048 1.381 . S
C1050 C1051 1.394 . S
C1050 H1058 0.930 . S
C1051 C1050 1.394 . S
C1051 C1052 1.383 . S
C1051 H1059 0.929 . S
C1052 C1051 1.383 . S
C1052 C1053 1.377 . S
C1053 H1037 0.930 . S
C1053 C1052 1.377 . S
C1053 C1054 1.379 . S
C1054 H1038 0.931 . S
C1054 C1048 1.383 . S
C1054 C1053 1.379 . S
H1055 C1049 0.959 . S
H1056 C1049 0.961 . S
H1057 C1049 0.960 . S
H1058 C1050 0.930 . S
H1059 C1051 0.929 . S
H1060 C1068 0.929 . S
H1061 C1070 0.930 . S
H1062 C1072 0.930 . S
H1063 C1075 0.929 . S
H1064 C1078 0.930 . S
H1065 C1080 0.960 . S
H1066 C1080 0.960 . S
H1067 C1080 0.960 . S
C1068 H1060 0.929 . S
C1068 C1069 1.377 . S
C1068 C1070 1.384 . S
C1069 C1068 1.377 . S
C1069 C1075 1.390 . S
C1070 H1061 0.930 . S
C1070 C1068 1.384 . S
C1070 C1071 1.372 . S
C1071 C1070 1.372 . S
C1071 C1072 1.400 . S
C1071 C1076 1.490 . S
C1072 H1062 0.930 . S
C1072 C1071 1.400 . S
C1072 C1075 1.386 . S
H1073 C1089 0.930 . S
H1074 C1090 0.931 . S
C1075 H1063 0.929 . S
C1075 C1069 1.390 . S
C1075 C1072 1.386 . S
C1076 C1071 1.490 . S
C1076 C1078 1.395 . S
C1076 C1079 1.403 . S
H1077 C1083 0.930 . S
C1078 H1064 0.930 . S
C1078 C1076 1.395 . S
C1078 C1081 1.403 . S
C1079 C1076 1.403 . S
C1079 C1080 1.524 . S
C1079 C1083 1.400 . S
C1080 H1065 0.960 . S
C1080 H1066 0.960 . S
C1080 H1067 0.960 . S
C1080 C1079 1.524 . S
C1081 C1078 1.403 . S
C1081 C1082 1.392 . S
C1081 C1085 1.495 . S
C1082 C1081 1.392 . S
C1082 C1083 1.385 . S
C1082 C1084 1.478 . S
C1083 H1077 0.930 . S
C1083 C1079 1.400 . S
C1083 C1082 1.385 . S
C1084 C1082 1.478 . S
C1084 C1086 1.381 . S
C1084 C1090 1.383 . S
C1085 C1081 1.495 . S
C1085 H1091 0.959 . S
C1085 H1092 0.961 . S
C1085 H1093 0.960 . S
C1086 C1084 1.381 . S
C1086 C1087 1.394 . S
C1086 H1094 0.930 . S
C1087 C1086 1.394 . S
C1087 C1088 1.383 . S
C1087 H1095 0.929 . S
C1088 C1087 1.383 . S
C1088 C1089 1.377 . S
C1089 H1073 0.930 . S
C1089 C1088 1.377 . S
C1089 C1090 1.379 . S
C1090 H1074 0.931 . S
C1090 C1084 1.383 . S
C1090 C1089 1.379 . S
H1091 C1085 0.959 . S
H1092 C1085 0.961 . S
H1093 C1085 0.960 . S
H1094 C1086 0.930 . S
H1095 C1087 0.929 . S
H1096 C1104 0.929 . S
H1097 C1106 0.930 . S
H1098 C1108 0.930 . S
H1099 C1111 0.929 . S
H1100 C1114 0.930 . S
H1101 C1116 0.960 . S
H1102 C1116 0.960 . S
H1103 C1116 0.960 . S
C1104 H1096 0.929 . S
C1104 C1105 1.377 . S
C1104 C1106 1.384 . S
C1105 C1104 1.377 . S
C1105 C1111 1.390 . S
C1106 H1097 0.930 . S
C1106 C1104 1.384 . S
C1106 C1107 1.372 . S
C1107 C1106 1.372 . S
C1107 C1108 1.400 . S
C1107 C1112 1.490 . S
C1108 H1098 0.930 . S
C1108 C1107 1.400 . S
C1108 C1111 1.386 . S
H1109 C1125 0.930 . S
H1110 C1126 0.931 . S
C1111 H1099 0.929 . S
C1111 C1105 1.390 . S
C1111 C1108 1.386 . S
C1112 C1107 1.490 . S
C1112 C1114 1.395 . S
C1112 C1115 1.403 . S
H1113 C1119 0.930 . S
C1114 H1100 0.930 . S
C1114 C1112 1.395 . S
C1114 C1117 1.403 . S
C1115 C1112 1.403 . S
C1115 C1116 1.524 . S
C1115 C1119 1.400 . S
C1116 H1101 0.960 . S
C1116 H1102 0.960 . S
C1116 H1103 0.960 . S
C1116 C1115 1.524 . S
C1117 C1114 1.403 . S
C1117 C1118 1.392 . S
C1117 C1121 1.495 . S
C1118 C1117 1.392 . S
C1118 C1119 1.385 . S
C1118 C1120 1.478 . S
C1119 H1113 0.930 . S
C1119 C1115 1.400 . S
C1119 C1118 1.385 . S
C1120 C1118 1.478 . S
C1120 C1122 1.381 . S
C1120 C1126 1.383 . S
C1121 C1117 1.495 . S
C1121 H1127 0.959 . S
C1121 H1128 0.961 . S
C1121 H1129 0.960 . S
C1122 C1120 1.381 . S
C1122 C1123 1.394 . S
C1122 H1130 0.930 . S
C1123 C1122 1.394 . S
C1123 C1124 1.383 . S
C1123 H1131 0.929 . S
C1124 C1123 1.383 . S
C1124 C1125 1.377 . S
C1125 H1109 0.930 . S
C1125 C1124 1.377 . S
C1125 C1126 1.379 . S
C1126 H1110 0.931 . S
C1126 C1120 1.383 . S
C1126 C1125 1.379 . S
H1127 C1121 0.959 . S
H1128 C1121 0.961 . S
H1129 C1121 0.960 . S
H1130 C1122 0.930 . S
H1131 C1123 0.929 . S
H1132 C1140 0.929 . S
H1133 C1142 0.930 . S
H1134 C1144 0.930 . S
H1135 C1147 0.929 . S
H1136 C1150 0.930 . S
H1137 C1152 0.960 . S
H1138 C1152 0.960 . S
H1139 C1152 0.960 . S
C1140 H1132 0.929 . S
C1140 C1141 1.377 . S
C1140 C1142 1.384 . S
C1141 C1140 1.377 . S
C1141 C1147 1.390 . S
C1142 H1133 0.930 . S
C1142 C1140 1.384 . S
C1142 C1143 1.372 . S
C1143 C1142 1.372 . S
C1143 C1144 1.400 . S
C1143 C1148 1.490 . S
C1144 H1134 0.930 . S
C1144 C1143 1.400 . S
C1144 C1147 1.386 . S
H1145 C1161 0.930 . S
H1146 C1162 0.931 . S
C1147 H1135 0.929 . S
C1147 C1141 1.390 . S
C1147 C1144 1.386 . S
C1148 C1143 1.490 . S
C1148 C1150 1.395 . S
C1148 C1151 1.403 . S
H1149 C1155 0.930 . S
C1150 H1136 0.930 . S
C1150 C1148 1.395 . S
C1150 C1153 1.403 . S
C1151 C1148 1.403 . S
C1151 C1152 1.524 . S
C1151 C1155 1.400 . S
C1152 H1137 0.960 . S
C1152 H1138 0.960 . S
C1152 H1139 0.960 . S
C1152 C1151 1.524 . S
C1153 C1150 1.403 . S
C1153 C1154 1.392 . S
C1153 C1157 1.495 . S
C1154 C1153 1.392 . S
C1154 C1155 1.385 . S
C1154 C1156 1.478 . S
C1155 H1149 0.930 . S
C1155 C1151 1.400 . S
C1155 C1154 1.385 . S
C1156 C1154 1.478 . S
C1156 C1158 1.381 . S
C1156 C1162 1.383 . S
C1157 C1153 1.495 . S
C1157 H1163 0.959 . S
C1157 H1164 0.961 . S
C1157 H1165 0.960 . S
C1158 C1156 1.381 . S
C1158 C1159 1.394 . S
C1158 H1166 0.930 . S
C1159 C1158 1.394 . S
C1159 C1160 1.383 . S
C1159 H1167 0.929 . S
C1160 C1159 1.383 . S
C1160 C1161 1.377 . S
C1161 H1145 0.930 . S
C1161 C1160 1.377 . S
C1161 C1162 1.379 . S
C1162 H1146 0.931 . S
C1162 C1156 1.383 . S
C1162 C1161 1.379 . S
H1163 C1157 0.959 . S
H1164 C1157 0.961 . S
H1165 C1157 0.960 . S
H1166 C1158 0.930 . S
H1167 C1159 0.929 . S
H1168 C1176 0.929 . S
H1169 C1178 0.930 . S
H1170 C1180 0.930 . S
H1171 C1183 0.929 . S
H1172 C1186 0.930 . S
H1173 C1188 0.960 . S
H1174 C1188 0.960 . S
H1175 C1188 0.960 . S
C1176 H1168 0.929 . S
C1176 C1177 1.377 . S
C1176 C1178 1.384 . S
C1177 C1176 1.377 . S
C1177 C1183 1.390 . S
C1178 H1169 0.930 . S
C1178 C1176 1.384 . S
C1178 C1179 1.372 . S
C1179 C1178 1.372 . S
C1179 C1180 1.400 . S
C1179 C1184 1.490 . S
C1180 H1170 0.930 . S
C1180 C1179 1.400 . S
C1180 C1183 1.386 . S
H1181 C1197 0.930 . S
H1182 C1198 0.931 . S
C1183 H1171 0.929 . S
C1183 C1177 1.390 . S
C1183 C1180 1.386 . S
C1184 C1179 1.490 . S
C1184 C1186 1.395 . S
C1184 C1187 1.403 . S
H1185 C1191 0.930 . S
C1186 H1172 0.930 . S
C1186 C1184 1.395 . S
C1186 C1189 1.403 . S
C1187 C1184 1.403 . S
C1187 C1188 1.524 . S
C1187 C1191 1.400 . S
C1188 H1173 0.960 . S
C1188 H1174 0.960 . S
C1188 H1175 0.960 . S
C1188 C1187 1.524 . S
C1189 C1186 1.403 . S
C1189 C1190 1.392 . S
C1189 C1193 1.495 . S
C1190 C1189 1.392 . S
C1190 C1191 1.385 . S
C1190 C1192 1.478 . S
C1191 H1185 0.930 . S
C1191 C1187 1.400 . S
C1191 C1190 1.385 . S
C1192 C1190 1.478 . S
C1192 C1194 1.381 . S
C1192 C1198 1.383 . S
C1193 C1189 1.495 . S
C1193 H1199 0.959 . S
C1193 H1200 0.961 . S
C1193 H1201 0.960 . S
C1194 C1192 1.381 . S
C1194 C1195 1.394 . S
C1194 H1202 0.930 . S
C1195 C1194 1.394 . S
C1195 C1196 1.383 . S
C1195 H1203 0.929 . S
C1196 C1195 1.383 . S
C1196 C1197 1.377 . S
C1197 H1181 0.930 . S
C1197 C1196 1.377 . S
C1197 C1198 1.379 . S
C1198 H1182 0.931 . S
C1198 C1192 1.383 . S
C1198 C1197 1.379 . S
H1199 C1193 0.959 . S
H1200 C1193 0.961 . S
H1201 C1193 0.960 . S
H1202 C1194 0.930 . S
H1203 C1195 0.929 . S
H1204 C1212 0.929 . S
H1205 C1214 0.930 . S
H1206 C1216 0.930 . S
H1207 C1219 0.929 . S
H1208 C1222 0.930 . S
H1209 C1224 0.960 . S
H1210 C1224 0.960 . S
H1211 C1224 0.960 . S
C1212 H1204 0.929 . S
C1212 C1213 1.377 . S
C1212 C1214 1.384 . S
C1213 C1212 1.377 . S
C1213 C1219 1.390 . S
C1214 H1205 0.930 . S
C1214 C1212 1.384 . S
C1214 C1215 1.372 . S
C1215 C1214 1.372 . S
C1215 C1216 1.400 . S
C1215 C1220 1.490 . S
C1216 H1206 0.930 . S
C1216 C1215 1.400 . S
C1216 C1219 1.386 . S
H1217 C1233 0.930 . S
H1218 C1234 0.931 . S
C1219 H1207 0.929 . S
C1219 C1213 1.390 . S
C1219 C1216 1.386 . S
C1220 C1215 1.490 . S
C1220 C1222 1.395 . S
C1220 C1223 1.403 . S
H1221 C1227 0.930 . S
C1222 H1208 0.930 . S
C1222 C1220 1.395 . S
C1222 C1225 1.403 . S
C1223 C1220 1.403 . S
C1223 C1224 1.524 . S
C1223 C1227 1.400 . S
C1224 H1209 0.960 . S
C1224 H1210 0.960 . S
C1224 H1211 0.960 . S
C1224 C1223 1.524 . S
C1225 C1222 1.403 . S
C1225 C1226 1.392 . S
C1225 C1229 1.495 . S
C1226 C1225 1.392 . S
C1226 C1227 1.385 . S
C1226 C1228 1.478 . S
C1227 H1221 0.930 . S
C1227 C1223 1.400 . S
C1227 C1226 1.385 . S
C1228 C1226 1.478 . S
C1228 C1230 1.381 . S
C1228 C1234 1.383 . S
C1229 C1225 1.495 . S
C1229 H1235 0.959 . S
C1229 H1236 0.961 . S
C1229 H1237 0.960 . S
C1230 C1228 1.381 . S
C1230 C1231 1.394 . S
C1230 H1238 0.930 . S
C1231 C1230 1.394 . S
C1231 C1232 1.383 . S
C1231 H1239 0.929 . S
C1232 C1231 1.383 . S
C1232 C1233 1.377 . S
C1233 H1217 0.930 . S
C1233 C1232 1.377 . S
C1233 C1234 1.379 . S
C1234 H1218 0.931 . S
C1234 C1228 1.383 . S
C1234 C1233 1.379 . S
H1235 C1229 0.959 . S
H1236 C1229 0.961 . S
H1237 C1229 0.960 . S
H1238 C1230 0.930 . S
H1239 C1231 0.929 . S
H1240 C1248 0.929 . S
H1241 C1250 0.930 . S
H1242 C1252 0.930 . S
H1243 C1255 0.929 . S
H1244 C1258 0.930 . S
H1245 C1260 0.960 . S
H1246 C1260 0.960 . S
H1247 C1260 0.960 . S
C1248 H1240 0.929 . S
C1248 C1249 1.377 . S
C1248 C1250 1.384 . S
C1249 C1248 1.377 . S
C1249 C1255 1.390 . S
C1250 H1241 0.930 . S
C1250 C1248 1.384 . S
C1250 C1251 1.372 . S
C1251 C1250 1.372 . S
C1251 C1252 1.400 . S
C1251 C1256 1.490 . S
C1252 H1242 0.930 . S
C1252 C1251 1.400 . S
C1252 C1255 1.386 . S
H1253 C1269 0.930 . S
H1254 C1270 0.931 . S
C1255 H1243 0.929 . S
C1255 C1249 1.390 . S
C1255 C1252 1.386 . S
C1256 C1251 1.490 . S
C1256 C1258 1.395 . S
C1256 C1259 1.403 . S
H1257 C1263 0.930 . S
C1258 H1244 0.930 . S
C1258 C1256 1.395 . S
C1258 C1261 1.403 . S
C1259 C1256 1.403 . S
C1259 C1260 1.524 . S
C1259 C1263 1.400 . S
C1260 H1245 0.960 . S
C1260 H1246 0.960 . S
C1260 H1247 0.960 . S
C1260 C1259 1.524 . S
C1261 C1258 1.403 . S
C1261 C1262 1.392 . S
C1261 C1265 1.495 . S
C1262 C1261 1.392 . S
C1262 C1263 1.385 . S
C1262 C1264 1.478 . S
C1263 H1257 0.930 . S
C1263 C1259 1.400 . S
C1263 C1262 1.385 . S
C1264 C1262 1.478 . S
C1264 C1266 1.381 . S
C1264 C1270 1.383 . S
C1265 C1261 1.495 . S
C1265 H1271 0.959 . S
C1265 H1272 0.961 . S
C1265 H1273 0.960 . S
C1266 C1264 1.381 . S
C1266 C1267 1.394 . S
C1266 H1274 0.930 . S
C1267 C1266 1.394 . S
C1267 C1268 1.383 . S
C1267 H1275 0.929 . S
C1268 C1267 1.383 . S
C1268 C1269 1.377 . S
C1269 H1253 0.930 . S
C1269 C1268 1.377 . S
C1269 C1270 1.379 . S
C1270 H1254 0.931 . S
C1270 C1264 1.383 . S
C1270 C1269 1.379 . S
H1271 C1265 0.959 . S
H1272 C1265 0.961 . S
H1273 C1265 0.960 . S
H1274 C1266 0.930 . S
H1275 C1267 0.929 . S
H1276 C1284 0.929 . S
H1277 C1286 0.930 . S
H1278 C1288 0.930 . S
H1279 C1291 0.929 . S
H1280 C1294 0.930 . S
H1281 C1296 0.960 . S
H1282 C1296 0.960 . S
H1283 C1296 0.960 . S
C1284 H1276 0.929 . S
C1284 C1285 1.377 . S
C1284 C1286 1.384 . S
C1285 C1284 1.377 . S
C1285 C1291 1.390 . S
C1286 H1277 0.930 . S
C1286 C1284 1.384 . S
C1286 C1287 1.372 . S
C1287 C1286 1.372 . S
C1287 C1288 1.400 . S
C1287 C1292 1.490 . S
C1288 H1278 0.930 . S
C1288 C1287 1.400 . S
C1288 C1291 1.386 . S
H1289 C1305 0.930 . S
H1290 C1306 0.931 . S
C1291 H1279 0.929 . S
C1291 C1285 1.390 . S
C1291 C1288 1.386 . S
C1292 C1287 1.490 . S
C1292 C1294 1.395 . S
C1292 C1295 1.403 . S
H1293 C1299 0.930 . S
C1294 H1280 0.930 . S
C1294 C1292 1.395 . S
C1294 C1297 1.403 . S
C1295 C1292 1.403 . S
C1295 C1296 1.524 . S
C1295 C1299 1.400 . S
C1296 H1281 0.960 . S
C1296 H1282 0.960 . S
C1296 H1283 0.960 . S
C1296 C1295 1.524 . S
C1297 C1294 1.403 . S
C1297 C1298 1.392 . S
C1297 C1301 1.495 . S
C1298 C1297 1.392 . S
C1298 C1299 1.385 . S
C1298 C1300 1.478 . S
C1299 H1293 0.930 . S
C1299 C1295 1.400 . S
C1299 C1298 1.385 . S
C1300 C1298 1.478 . S
C1300 C1302 1.381 . S
C1300 C1306 1.383 . S
C1301 C1297 1.495 . S
C1301 H1307 0.959 . S
C1301 H1308 0.961 . S
C1301 H1309 0.960 . S
C1302 C1300 1.381 . S
C1302 C1303 1.394 . S
C1302 H1310 0.930 . S
C1303 C1302 1.394 . S
C1303 C1304 1.383 . S
C1303 H1311 0.929 . S
C1304 C1303 1.383 . S
C1304 C1305 1.377 . S
C1305 H1289 0.930 . S
C1305 C1304 1.377 . S
C1305 C1306 1.379 . S
C1306 H1290 0.931 . S
C1306 C1300 1.383 . S
C1306 C1305 1.379 . S
H1307 C1301 0.959 . S
H1308 C1301 0.961 . S
H1309 C1301 0.960 . S
H1310 C1302 0.930 . S
H1311 C1303 0.929 . S
H1312 C1320 0.929 . S
H1313 C1322 0.930 . S
H1314 C1324 0.930 . S
H1315 C1327 0.929 . S
H1316 C1330 0.930 . S
H1317 C1332 0.960 . S
H1318 C1332 0.960 . S
H1319 C1332 0.960 . S
C1320 H1312 0.929 . S
C1320 C1321 1.377 . S
C1320 C1322 1.384 . S
C1321 C1320 1.377 . S
C1321 C1327 1.390 . S
C1322 H1313 0.930 . S
C1322 C1320 1.384 . S
C1322 C1323 1.372 . S
C1323 C1322 1.372 . S
C1323 C1324 1.400 . S
C1323 C1328 1.490 . S
C1324 H1314 0.930 . S
C1324 C1323 1.400 . S
C1324 C1327 1.386 . S
H1325 C1341 0.930 . S
H1326 C1342 0.931 . S
C1327 H1315 0.929 . S
C1327 C1321 1.390 . S
C1327 C1324 1.386 . S
C1328 C1323 1.490 . S
C1328 C1330 1.395 . S
C1328 C1331 1.403 . S
H1329 C1335 0.930 . S
C1330 H1316 0.930 . S
C1330 C1328 1.395 . S
C1330 C1333 1.403 . S
C1331 C1328 1.403 . S
C1331 C1332 1.524 . S
C1331 C1335 1.400 . S
C1332 H1317 0.960 . S
C1332 H1318 0.960 . S
C1332 H1319 0.960 . S
C1332 C1331 1.524 . S
C1333 C1330 1.403 . S
C1333 C1334 1.392 . S
C1333 C1337 1.495 . S
C1334 C1333 1.392 . S
C1334 C1335 1.385 . S
C1334 C1336 1.478 . S
C1335 H1329 0.930 . S
C1335 C1331 1.400 . S
C1335 C1334 1.385 . S
C1336 C1334 1.478 . S
C1336 C1338 1.381 . S
C1336 C1342 1.383 . S
C1337 C1333 1.495 . S
C1337 H1343 0.959 . S
C1337 H1344 0.961 . S
C1337 H1345 0.960 . S
C1338 C1336 1.381 . S
C1338 C1339 1.394 . S
C1338 H1346 0.930 . S
C1339 C1338 1.394 . S
C1339 C1340 1.383 . S
C1339 H1347 0.929 . S
C1340 C1339 1.383 . S
C1340 C1341 1.377 . S
C1341 H1325 0.930 . S
C1341 C1340 1.377 . S
C1341 C1342 1.379 . S
C1342 H1326 0.931 . S
C1342 C1336 1.383 . S
C1342 C1341 1.379 . S
H1343 C1337 0.959 . S
H1344 C1337 0.961 . S
H1345 C1337 0.960 . S
H1346 C1338 0.930 . S
H1347 C1339 0.929 . S
H1348 C1356 0.929 . S
H1349 C1358 0.930 . S
H1350 C1360 0.930 . S
H1351 C1363 0.929 . S
H1352 C1366 0.930 . S
H1353 C1368 0.960 . S
H1354 C1368 0.960 . S
H1355 C1368 0.960 . S
C1356 H1348 0.929 . S
C1356 C1357 1.377 . S
C1356 C1358 1.384 . S
C1357 C1356 1.377 . S
C1357 C1363 1.390 . S
C1358 H1349 0.930 . S
C1358 C1356 1.384 . S
C1358 C1359 1.372 . S
C1359 C1358 1.372 . S
C1359 C1360 1.400 . S
C1359 C1364 1.490 . S
C1360 H1350 0.930 . S
C1360 C1359 1.400 . S
C1360 C1363 1.386 . S
H1361 C1377 0.930 . S
H1362 C1378 0.931 . S
C1363 H1351 0.929 . S
C1363 C1357 1.390 . S
C1363 C1360 1.386 . S
C1364 C1359 1.490 . S
C1364 C1366 1.395 . S
C1364 C1367 1.403 . S
H1365 C1371 0.930 . S
C1366 H1352 0.930 . S
C1366 C1364 1.395 . S
C1366 C1369 1.403 . S
C1367 C1364 1.403 . S
C1367 C1368 1.524 . S
C1367 C1371 1.400 . S
C1368 H1353 0.960 . S
C1368 H1354 0.960 . S
C1368 H1355 0.960 . S
C1368 C1367 1.524 . S
C1369 C1366 1.403 . S
C1369 C1370 1.392 . S
C1369 C1373 1.495 . S
C1370 C1369 1.392 . S
C1370 C1371 1.385 . S
C1370 C1372 1.478 . S
C1371 H1365 0.930 . S
C1371 C1367 1.400 . S
C1371 C1370 1.385 . S
C1372 C1370 1.478 . S
C1372 C1374 1.381 . S
C1372 C1378 1.383 . S
C1373 C1369 1.495 . S
C1373 H1379 0.959 . S
C1373 H1380 0.961 . S
C1373 H1381 0.960 . S
C1374 C1372 1.381 . S
C1374 C1375 1.394 . S
C1374 H1382 0.930 . S
C1375 C1374 1.394 . S
C1375 C1376 1.383 . S
C1375 H1383 0.929 . S
C1376 C1375 1.383 . S
C1376 C1377 1.377 . S
C1377 H1361 0.930 . S
C1377 C1376 1.377 . S
C1377 C1378 1.379 . S
C1378 H1362 0.931 . S
C1378 C1372 1.383 . S
C1378 C1377 1.379 . S
H1379 C1373 0.959 . S
H1380 C1373 0.961 . S
H1381 C1373 0.960 . S
H1382 C1374 0.930 . S
H1383 C1375 0.929 . S
H1384 C1392 0.929 . S
H1385 C1394 0.930 . S
H1386 C1396 0.930 . S
H1387 C1399 0.929 . S
H1388 C1402 0.930 . S
H1389 C1404 0.960 . S
H1390 C1404 0.960 . S
H1391 C1404 0.960 . S
C1392 H1384 0.929 . S
C1392 C1393 1.377 . S
C1392 C1394 1.384 . S
C1393 C1392 1.377 . S
C1393 C1399 1.390 . S
C1394 H1385 0.930 . S
C1394 C1392 1.384 . S
C1394 C1395 1.372 . S
C1395 C1394 1.372 . S
C1395 C1396 1.400 . S
C1395 C1400 1.490 . S
C1396 H1386 0.930 . S
C1396 C1395 1.400 . S
C1396 C1399 1.386 . S
H1397 C1413 0.930 . S
H1398 C1414 0.931 . S
C1399 H1387 0.929 . S
C1399 C1393 1.390 . S
C1399 C1396 1.386 . S
C1400 C1395 1.490 . S
C1400 C1402 1.395 . S
C1400 C1403 1.403 . S
H1401 C1407 0.930 . S
C1402 H1388 0.930 . S
C1402 C1400 1.395 . S
C1402 C1405 1.403 . S
C1403 C1400 1.403 . S
C1403 C1404 1.524 . S
C1403 C1407 1.400 . S
C1404 H1389 0.960 . S
C1404 H1390 0.960 . S
C1404 H1391 0.960 . S
C1404 C1403 1.524 . S
C1405 C1402 1.403 . S
C1405 C1406 1.392 . S
C1405 C1409 1.495 . S
C1406 C1405 1.392 . S
C1406 C1407 1.385 . S
C1406 C1408 1.478 . S
C1407 H1401 0.930 . S
C1407 C1403 1.400 . S
C1407 C1406 1.385 . S
C1408 C1406 1.478 . S
C1408 C1410 1.381 . S
C1408 C1414 1.383 . S
C1409 C1405 1.495 . S
C1409 H1415 0.959 . S
C1409 H1416 0.961 . S
C1409 H1417 0.960 . S
C1410 C1408 1.381 . S
C1410 C1411 1.394 . S
C1410 H1418 0.930 . S
C1411 C1410 1.394 . S
C1411 C1412 1.383 . S
C1411 H1419 0.929 . S
C1412 C1411 1.383 . S
C1412 C1413 1.377 . S
C1413 H1397 0.930 . S
C1413 C1412 1.377 . S
C1413 C1414 1.379 . S
C1414 H1398 0.931 . S
C1414 C1408 1.383 . S
C1414 C1413 1.379 . S
H1415 C1409 0.959 . S
H1416 C1409 0.961 . S
H1417 C1409 0.960 . S
H1418 C1410 0.930 . S
H1419 C1411 0.929 . S
H1420 C1428 0.929 . S
H1421 C1430 0.930 . S
H1422 C1432 0.930 . S
H1423 C1435 0.929 . S
H1424 C1438 0.930 . S
H1425 C1440 0.960 . S
H1426 C1440 0.960 . S
H1427 C1440 0.960 . S
C1428 H1420 0.929 . S
C1428 C1429 1.377 . S
C1428 C1430 1.384 . S
C1429 C1428 1.377 . S
C1429 C1435 1.390 . S
C1430 H1421 0.930 . S
C1430 C1428 1.384 . S
C1430 C1431 1.372 . S
C1431 C1430 1.372 . S
C1431 C1432 1.400 . S
C1431 C1436 1.490 . S
C1432 H1422 0.930 . S
C1432 C1431 1.400 . S
C1432 C1435 1.386 . S
H1433 C1449 0.930 . S
H1434 C1450 0.931 . S
C1435 H1423 0.929 . S
C1435 C1429 1.390 . S
C1435 C1432 1.386 . S
C1436 C1431 1.490 . S
C1436 C1438 1.395 . S
C1436 C1439 1.403 . S
H1437 C1443 0.930 . S
C1438 H1424 0.930 . S
C1438 C1436 1.395 . S
C1438 C1441 1.403 . S
C1439 C1436 1.403 . S
C1439 C1440 1.524 . S
C1439 C1443 1.400 . S
C1440 H1425 0.960 . S
C1440 H1426 0.960 . S
C1440 H1427 0.960 . S
C1440 C1439 1.524 . S
C1441 C1438 1.403 . S
C1441 C1442 1.392 . S
C1441 C1445 1.495 . S
C1442 C1441 1.392 . S
C1442 C1443 1.385 . S
C1442 C1444 1.478 . S
C1443 H1437 0.930 . S
C1443 C1439 1.400 . S
C1443 C1442 1.385 . S
C1444 C1442 1.478 . S
C1444 C1446 1.381 . S
C1444 C1450 1.383 . S
C1445 C1441 1.495 . S
C1445 H1451 0.959 . S
C1445 H1452 0.961 . S
C1445 H1453 0.960 . S
C1446 C1444 1.381 . S
C1446 C1447 1.394 . S
C1446 H1454 0.930 . S
C1447 C1446 1.394 . S
C1447 C1448 1.383 . S
C1447 H1455 0.929 . S
C1448 C1447 1.383 . S
C1448 C1449 1.377 . S
C1449 H1433 0.930 . S
C1449 C1448 1.377 . S
C1449 C1450 1.379 . S
C1450 H1434 0.931 . S
C1450 C1444 1.383 . S
C1450 C1449 1.379 . S
H1451 C1445 0.959 . S
H1452 C1445 0.961 . S
H1453 C1445 0.960 . S
H1454 C1446 0.930 . S
H1455 C1447 0.929 . S
H1456 C1464 0.929 . S
H1457 C1466 0.930 . S
H1458 C1468 0.930 . S
H1459 C1471 0.929 . S
H1460 C1474 0.930 . S
H1461 C1476 0.960 . S
H1462 C1476 0.960 . S
H1463 C1476 0.960 . S
C1464 H1456 0.929 . S
C1464 C1465 1.377 . S
C1464 C1466 1.384 . S
C1465 C1464 1.377 . S
C1465 C1471 1.390 . S
C1466 H1457 0.930 . S
C1466 C1464 1.384 . S
C1466 C1467 1.372 . S
C1467 C1466 1.372 . S
C1467 C1468 1.400 . S
C1467 C1472 1.490 . S
C1468 H1458 0.930 . S
C1468 C1467 1.400 . S
C1468 C1471 1.386 . S
H1469 C1485 0.930 . S
H1470 C1486 0.931 . S
C1471 H1459 0.929 . S
C1471 C1465 1.390 . S
C1471 C1468 1.386 . S
C1472 C1467 1.490 . S
C1472 C1474 1.395 . S
C1472 C1475 1.403 . S
H1473 C1479 0.930 . S
C1474 H1460 0.930 . S
C1474 C1472 1.395 . S
C1474 C1477 1.403 . S
C1475 C1472 1.403 . S
C1475 C1476 1.524 . S
C1475 C1479 1.400 . S
C1476 H1461 0.960 . S
C1476 H1462 0.960 . S
C1476 H1463 0.960 . S
C1476 C1475 1.524 . S
C1477 C1474 1.403 . S
C1477 C1478 1.392 . S
C1477 C1481 1.495 . S
C1478 C1477 1.392 . S
C1478 C1479 1.385 . S
C1478 C1480 1.478 . S
C1479 H1473 0.930 . S
C1479 C1475 1.400 . S
C1479 C1478 1.385 . S
C1480 C1478 1.478 . S
C1480 C1482 1.381 . S
C1480 C1486 1.383 . S
C1481 C1477 1.495 . S
C1481 H1487 0.959 . S
C1481 H1488 0.961 . S
C1481 H1489 0.960 . S
C1482 C1480 1.381 . S
C1482 C1483 1.394 . S
C1482 H1490 0.930 . S
C1483 C1482 1.394 . S
C1483 C1484 1.383 . S
C1483 H1491 0.929 . S
C1484 C1483 1.383 . S
C1484 C1485 1.377 . S
C1485 H1469 0.930 . S
C1485 C1484 1.377 . S
C1485 C1486 1.379 . S
C1486 H1470 0.931 . S
C1486 C1480 1.383 . S
C1486 C1485 1.379 . S
H1487 C1481 0.959 . S
H1488 C1481 0.961 . S
H1489 C1481 0.960 . S
H1490 C1482 0.930 . S
H1491 C1483 0.929 . S
H1492 C1500 0.929 . S
H1493 C1502 0.930 . S
H1494 C1504 0.930 . S
H1495 C1507 0.929 . S
H1496 C1510 0.930 . S
H1497 C1512 0.960 . S
H1498 C1512 0.960 . S
H1499 C1512 0.960 . S
C1500 H1492 0.929 . S
C1500 C1501 1.377 . S
C1500 C1502 1.384 . S
C1501 C1500 1.377 . S
C1501 C1507 1.390 . S
C1502 H1493 0.930 . S
C1502 C1500 1.384 . S
C1502 C1503 1.372 . S
C1503 C1502 1.372 . S
C1503 C1504 1.400 . S
C1503 C1508 1.490 . S
C1504 H1494 0.930 . S
C1504 C1503 1.400 . S
C1504 C1507 1.386 . S
H1505 C1521 0.930 . S
H1506 C1522 0.931 . S
C1507 H1495 0.929 . S
C1507 C1501 1.390 . S
C1507 C1504 1.386 . S
C1508 C1503 1.490 . S
C1508 C1510 1.395 . S
C1508 C1511 1.403 . S
H1509 C1515 0.930 . S
C1510 H1496 0.930 . S
C1510 C1508 1.395 . S
C1510 C1513 1.403 . S
C1511 C1508 1.403 . S
C1511 C1512 1.524 . S
C1511 C1515 1.400 . S
C1512 H1497 0.960 . S
C1512 H1498 0.960 . S
C1512 H1499 0.960 . S
C1512 C1511 1.524 . S
C1513 C1510 1.403 . S
C1513 C1514 1.392 . S
C1513 C1517 1.495 . S
C1514 C1513 1.392 . S
C1514 C1515 1.385 . S
C1514 C1516 1.478 . S
C1515 H1509 0.930 . S
C1515 C1511 1.400 . S
C1515 C1514 1.385 . S
C1516 C1514 1.478 . S
C1516 C1518 1.381 . S
C1516 C1522 1.383 . S
C1517 C1513 1.495 . S
C1517 H1523 0.959 . S
C1517 H1524 0.961 . S
C1517 H1525 0.960 . S
C1518 C1516 1.381 . S
C1518 C1519 1.394 . S
C1518 H1526 0.930 . S
C1519 C1518 1.394 . S
C1519 C1520 1.383 . S
C1519 H1527 0.929 . S
C1520 C1519 1.383 . S
C1520 C1521 1.377 . S
C1521 H1505 0.930 . S
C1521 C1520 1.377 . S
C1521 C1522 1.379 . S
C1522 H1506 0.931 . S
C1522 C1516 1.383 . S
C1522 C1521 1.379 . S
H1523 C1517 0.959 . S
H1524 C1517 0.961 . S
H1525 C1517 0.960 . S
H1526 C1518 0.930 . S
H1527 C1519 0.929 . S
H1528 C1536 0.929 . S
H1529 C1538 0.930 . S
H1530 C1540 0.930 . S
H1531 C1543 0.929 . S
H1532 C1546 0.930 . S
H1533 C1548 0.960 . S
H1534 C1548 0.960 . S
H1535 C1548 0.960 . S
C1536 H1528 0.929 . S
C1536 C1537 1.377 . S
C1536 C1538 1.384 . S
C1537 C1536 1.377 . S
C1537 C1543 1.390 . S
C1538 H1529 0.930 . S
C1538 C1536 1.384 . S
C1538 C1539 1.372 . S
C1539 C1538 1.372 . S
C1539 C1540 1.400 . S
C1539 C1544 1.490 . S
C1540 H1530 0.930 . S
C1540 C1539 1.400 . S
C1540 C1543 1.386 . S
H1541 C1557 0.930 . S
H1542 C1558 0.931 . S
C1543 H1531 0.929 . S
C1543 C1537 1.390 . S
C1543 C1540 1.386 . S
C1544 C1539 1.490 . S
C1544 C1546 1.395 . S
C1544 C1547 1.403 . S
H1545 C1551 0.930 . S
C1546 H1532 0.930 . S
C1546 C1544 1.395 . S
C1546 C1549 1.403 . S
C1547 C1544 1.403 . S
C1547 C1548 1.524 . S
C1547 C1551 1.400 . S
C1548 H1533 0.960 . S
C1548 H1534 0.960 . S
C1548 H1535 0.960 . S
C1548 C1547 1.524 . S
C1549 C1546 1.403 . S
C1549 C1550 1.392 . S
C1549 C1553 1.495 . S
C1550 C1549 1.392 . S
C1550 C1551 1.385 . S
C1550 C1552 1.478 . S
C1551 H1545 0.930 . S
C1551 C1547 1.400 . S
C1551 C1550 1.385 . S
C1552 C1550 1.478 . S
C1552 C1554 1.381 . S
C1552 C1558 1.383 . S
C1553 C1549 1.495 . S
C1553 H1559 0.959 . S
C1553 H1560 0.961 . S
C1553 H1561 0.960 . S
C1554 C1552 1.381 . S
C1554 C1555 1.394 . S
C1554 H1562 0.930 . S
C1555 C1554 1.394 . S
C1555 C1556 1.383 . S
C1555 H1563 0.929 . S
C1556 C1555 1.383 . S
C1556 C1557 1.377 . S
C1557 H1541 0.930 . S
C1557 C1556 1.377 . S
C1557 C1558 1.379 . S
C1558 H1542 0.931 . S
C1558 C1552 1.383 . S
C1558 C1557 1.379 . S
H1559 C1553 0.959 . S
H1560 C1553 0.961 . S
H1561 C1553 0.960 . S
H1562 C1554 0.930 . S
H1563 C1555 0.929 . S
H1564 C1572 0.929 . S
H1565 C1574 0.930 . S
H1566 C1576 0.930 . S
H1567 C1579 0.929 . S
H1568 C1582 0.930 . S
H1569 C1584 0.960 . S
H1570 C1584 0.960 . S
H1571 C1584 0.960 . S
C1572 H1564 0.929 . S
C1572 C1573 1.377 . S
C1572 C1574 1.384 . S
C1573 C1572 1.377 . S
C1573 C1579 1.390 . S
C1574 H1565 0.930 . S
C1574 C1572 1.384 . S
C1574 C1575 1.372 . S
C1575 C1574 1.372 . S
C1575 C1576 1.400 . S
C1575 C1580 1.490 . S
C1576 H1566 0.930 . S
C1576 C1575 1.400 . S
C1576 C1579 1.386 . S
H1577 C1593 0.930 . S
H1578 C1594 0.931 . S
C1579 H1567 0.929 . S
C1579 C1573 1.390 . S
C1579 C1576 1.386 . S
C1580 C1575 1.490 . S
C1580 C1582 1.395 . S
C1580 C1583 1.403 . S
H1581 C1587 0.930 . S
C1582 H1568 0.930 . S
C1582 C1580 1.395 . S
C1582 C1585 1.403 . S
C1583 C1580 1.403 . S
C1583 C1584 1.524 . S
C1583 C1587 1.400 . S
C1584 H1569 0.960 . S
C1584 H1570 0.960 . S
C1584 H1571 0.960 . S
C1584 C1583 1.524 . S
C1585 C1582 1.403 . S
C1585 C1586 1.392 . S
C1585 C1589 1.495 . S
C1586 C1585 1.392 . S
C1586 C1587 1.385 . S
C1586 C1588 1.478 . S
C1587 H1581 0.930 . S
C1587 C1583 1.400 . S
C1587 C1586 1.385 . S
C1588 C1586 1.478 . S
C1588 C1590 1.381 . S
C1588 C1594 1.383 . S
C1589 C1585 1.495 . S
C1589 H1595 0.959 . S
C1589 H1596 0.961 . S
C1589 H1597 0.960 . S
C1590 C1588 1.381 . S
C1590 C1591 1.394 . S
C1590 H1598 0.930 . S
C1591 C1590 1.394 . S
C1591 C1592 1.383 . S
C1591 H1599 0.929 . S
C1592 C1591 1.383 . S
C1592 C1593 1.377 . S
C1593 H1577 0.930 . S
C1593 C1592 1.377 . S
C1593 C1594 1.379 . S
C1594 H1578 0.931 . S
C1594 C1588 1.383 . S
C1594 C1593 1.379 . S
H1595 C1589 0.959 . S
H1596 C1589 0.961 . S
H1597 C1589 0.960 . S
H1598 C1590 0.930 . S
H1599 C1591 0.929 . S
H1600 C1608 0.929 . S
H1601 C1610 0.930 . S
H1602 C1612 0.930 . S
H1603 C1615 0.929 . S
H1604 C1618 0.930 . S
H1605 C1620 0.960 . S
H1606 C1620 0.960 . S
H1607 C1620 0.960 . S
C1608 H1600 0.929 . S
C1608 C1609 1.377 . S
C1608 C1610 1.384 . S
C1609 C1608 1.377 . S
C1609 C1615 1.390 . S
C1610 H1601 0.930 . S
C1610 C1608 1.384 . S
C1610 C1611 1.372 . S
C1611 C1610 1.372 . S
C1611 C1612 1.400 . S
C1611 C1616 1.490 . S
C1612 H1602 0.930 . S
C1612 C1611 1.400 . S
C1612 C1615 1.386 . S
H1613 C1629 0.930 . S
H1614 C1630 0.931 . S
C1615 H1603 0.929 . S
C1615 C1609 1.390 . S
C1615 C1612 1.386 . S
C1616 C1611 1.490 . S
C1616 C1618 1.395 . S
C1616 C1619 1.403 . S
H1617 C1623 0.930 . S
C1618 H1604 0.930 . S
C1618 C1616 1.395 . S
C1618 C1621 1.403 . S
C1619 C1616 1.403 . S
C1619 C1620 1.524 . S
C1619 C1623 1.400 . S
C1620 H1605 0.960 . S
C1620 H1606 0.960 . S
C1620 H1607 0.960 . S
C1620 C1619 1.524 . S
C1621 C1618 1.403 . S
C1621 C1622 1.392 . S
C1621 C1625 1.495 . S
C1622 C1621 1.392 . S
C1622 C1623 1.385 . S
C1622 C1624 1.478 . S
C1623 H1617 0.930 . S
C1623 C1619 1.400 . S
C1623 C1622 1.385 . S
C1624 C1622 1.478 . S
C1624 C1626 1.381 . S
C1624 C1630 1.383 . S
C1625 C1621 1.495 . S
C1625 H1631 0.959 . S
C1625 H1632 0.961 . S
C1625 H1633 0.960 . S
C1626 C1624 1.381 . S
C1626 C1627 1.394 . S
C1626 H1634 0.930 . S
C1627 C1626 1.394 . S
C1627 C1628 1.383 . S
C1627 H1635 0.929 . S
C1628 C1627 1.383 . S
C1628 C1629 1.377 . S
C1629 H1613 0.930 . S
C1629 C1628 1.377 . S
C1629 C1630 1.379 . S
C1630 H1614 0.931 . S
C1630 C1624 1.383 . S
C1630 C1629 1.379 . S
H1631 C1625 0.959 . S
H1632 C1625 0.961 . S
H1633 C1625 0.960 . S
H1634 C1626 0.930 . S
H1635 C1627 0.929 . S
H1636 C1644 0.929 . S
H1637 C1646 0.930 . S
H1638 C1648 0.930 . S
H1639 C1651 0.929 . S
H1640 C1654 0.930 . S
H1641 C1656 0.960 . S
H1642 C1656 0.960 . S
H1643 C1656 0.960 . S
C1644 H1636 0.929 . S
C1644 C1645 1.377 . S
C1644 C1646 1.384 . S
C1645 C1644 1.377 . S
C1645 C1651 1.390 . S
C1646 H1637 0.930 . S
C1646 C1644 1.384 . S
C1646 C1647 1.372 . S
C1647 C1646 1.372 . S
C1647 C1648 1.400 . S
C1647 C1652 1.490 . S
C1648 H1638 0.930 . S
C1648 C1647 1.400 . S
C1648 C1651 1.386 . S
H1649 C1665 0.930 . S
H1650 C1666 0.931 . S
C1651 H1639 0.929 . S
C1651 C1645 1.390 . S
C1651 C1648 1.386 . S
C1652 C1647 1.490 . S
C1652 C1654 1.395 . S
C1652 C1655 1.403 1_655 S
H1653 C1659 0.930 . S
C1654 H1640 0.930 . S
C1654 C1652 1.395 . S
C1654 C1657 1.403 1_565 S
C1655 C1652 1.403 1_455 S
C1655 C1656 1.524 . S
C1655 C1659 1.400 1_565 S
C1656 H1641 0.960 . S
C1656 H1642 0.960 . S
C1656 H1643 0.960 . S
C1656 C1655 1.524 . S
C1657 C1654 1.403 1_545 S
C1657 C1658 1.386 1_655 S
C1657 C1661 1.495 . S
C1658 C1657 1.386 1_455 S
C1658 C1659 1.391 . S
C1658 C1660 1.479 . S
C1659 H1653 0.930 . S
C1659 C1655 1.400 1_545 S
C1659 C1658 1.391 . S
C1660 C1658 1.479 . S
C1660 C1662 1.381 . S
C1660 C1666 1.383 . S
C1661 C1657 1.495 . S
C1661 H1667 0.959 . S
C1661 H1668 0.961 . S
C1661 H1669 0.960 . S
C1662 C1660 1.381 . S
C1662 C1663 1.394 . S
C1662 H1670 0.930 . S
C1663 C1662 1.394 . S
C1663 C1664 1.383 . S
C1663 H1671 0.929 . S
C1664 C1663 1.383 . S
C1664 C1665 1.377 . S
C1665 H1649 0.930 . S
C1665 C1664 1.377 . S
C1665 C1666 1.379 . S
C1666 H1650 0.931 . S
C1666 C1660 1.383 . S
C1666 C1665 1.379 . S
H1667 C1661 0.959 . S
H1668 C1661 0.961 . S
H1669 C1661 0.960 . S
H1670 C1662 0.930 . S
H1671 C1663 0.929 . S
H1672 C1680 0.929 . S
H1673 C1682 0.930 . S
H1674 C1684 0.930 . S
H1675 C1687 0.929 . S
H1676 C1690 0.930 . S
H1677 C1692 0.960 . S
H1678 C1692 0.960 . S
H1679 C1692 0.960 . S
C1680 H1672 0.929 . S
C1680 C1681 1.377 . S
C1680 C1682 1.384 . S
C1681 C1680 1.377 . S
C1681 C1687 1.390 . S
C1682 H1673 0.930 . S
C1682 C1680 1.384 . S
C1682 C1683 1.372 . S
C1683 C1682 1.372 . S
C1683 C1684 1.400 . S
C1683 C1688 1.490 . S
C1684 H1674 0.930 . S
C1684 C1683 1.400 . S
C1684 C1687 1.386 . S
H1685 C1701 0.930 . S
H1686 C1702 0.931 . S
C1687 H1675 0.929 . S
C1687 C1681 1.390 . S
C1687 C1684 1.386 . S
C1688 C1683 1.490 . S
C1688 C1690 1.395 . S
C1688 C1691 1.403 . S
H1689 C1695 0.930 . S
C1690 H1676 0.930 . S
C1690 C1688 1.395 . S
C1690 C1693 1.403 . S
C1691 C1688 1.403 . S
C1691 C1692 1.524 . S
C1691 C1695 1.400 . S
C1692 H1677 0.960 . S
C1692 H1678 0.960 . S
C1692 H1679 0.960 . S
C1692 C1691 1.524 . S
C1693 C1690 1.403 . S
C1693 C1694 1.392 . S
C1693 C1697 1.495 . S
C1694 C1693 1.392 . S
C1694 C1695 1.385 . S
C1694 C1696 1.478 . S
C1695 H1689 0.930 . S
C1695 C1691 1.400 . S
C1695 C1694 1.385 . S
C1696 C1694 1.478 . S
C1696 C1698 1.381 . S
C1696 C1702 1.383 . S
C1697 C1693 1.495 . S
C1697 H1703 0.959 . S
C1697 H1704 0.961 . S
C1697 H1705 0.960 . S
C1698 C1696 1.381 . S
C1698 C1699 1.394 . S
C1698 H1706 0.930 . S
C1699 C1698 1.394 . S
C1699 C1700 1.383 . S
C1699 H1707 0.929 . S
C1700 C1699 1.383 . S
C1700 C1701 1.377 . S
C1701 H1685 0.930 . S
C1701 C1700 1.377 . S
C1701 C1702 1.379 . S
C1702 H1686 0.931 . S
C1702 C1696 1.383 . S
C1702 C1701 1.379 . S
H1703 C1697 0.959 . S
H1704 C1697 0.961 . S
H1705 C1697 0.960 . S
H1706 C1698 0.930 . S
H1707 C1699 0.929 . S
H1708 C1716 0.929 . S
H1709 C1718 0.930 . S
H1710 C1720 0.930 . S
H1711 C1723 0.920 1_556 S
H1712 C1726 0.930 . S
H1713 C1728 0.960 . S
H1714 C1728 0.960 . S
H1715 C1728 0.960 . S
C1716 H1708 0.929 . S
C1716 C1717 1.377 . S
C1716 C1718 1.384 . S
C1717 C1716 1.377 . S
C1717 C1723 1.402 . S
C1718 H1709 0.930 . S
C1718 C1716 1.384 . S
C1718 C1719 1.372 . S
C1719 C1718 1.372 . S
C1719 C1720 1.400 1_554 S
C1719 C1724 1.490 . S
C1720 H1710 0.930 . S
C1720 C1719 1.400 1_556 S
C1720 C1723 1.383 1_556 S
H1721 C1737 0.930 . S
H1722 C1738 0.931 . S
C1723 H1711 0.920 1_554 S
C1723 C1717 1.402 . S
C1723 C1720 1.383 1_554 S
C1724 C1719 1.490 . S
C1724 C1726 1.395 . S
C1724 C1727 1.403 1_554 S
H1725 C1731 0.930 . S
C1726 H1712 0.930 . S
C1726 C1724 1.395 . S
C1726 C1729 1.403 1_545 S
C1727 C1724 1.403 1_556 S
C1727 C1728 1.524 . S
C1727 C1731 1.400 1_545 S
C1728 H1713 0.960 . S
C1728 H1714 0.960 . S
C1728 H1715 0.960 . S
C1728 C1727 1.524 . S
C1729 C1726 1.403 1_565 S
C1729 C1730 1.425 . S
C1729 C1733 1.495 . S
C1730 C1729 1.425 . S
C1730 C1731 1.357 1_554 S
C1730 C1732 1.472 1_554 S
C1731 H1725 0.930 . S
C1731 C1727 1.400 1_565 S
C1731 C1730 1.357 1_556 S
C1732 C1730 1.472 1_556 S
C1732 C1734 1.381 1_556 S
C1732 C1738 1.383 . S
C1733 C1729 1.495 . S
C1733 H1739 0.959 . S
C1733 H1740 0.961 . S
C1733 H1741 0.960 . S
C1734 C1732 1.381 1_554 S
C1734 C1735 1.394 1_554 S
C1734 H1742 0.930 . S
C1735 C1734 1.394 1_556 S
C1735 C1736 1.385 . S
C1735 H1743 0.928 1_556 S
C1736 C1735 1.385 . S
C1736 C1737 1.377 . S
C1737 H1721 0.930 . S
C1737 C1736 1.377 . S
C1737 C1738 1.379 . S
C1738 H1722 0.931 . S
C1738 C1732 1.383 . S
C1738 C1737 1.379 . S
H1739 C1733 0.959 . S
H1740 C1733 0.961 . S
H1741 C1733 0.960 . S
H1742 C1734 0.930 . S
H1743 C1735 0.928 1_554 S
H1744 C1752 0.929 . S
H1745 C1754 0.930 . S
H1746 C1756 0.930 . S
H1747 C1759 0.929 . S
H1748 C1762 0.930 . S
H1749 C1764 0.960 . S
H1750 C1764 0.960 . S
H1751 C1764 0.960 . S
C1752 H1744 0.929 . S
C1752 C1753 1.377 . S
C1752 C1754 1.384 . S
C1753 C1752 1.377 . S
C1753 C1759 1.390 . S
C1754 H1745 0.930 . S
C1754 C1752 1.384 . S
C1754 C1755 1.372 . S
C1755 C1754 1.372 . S
C1755 C1756 1.400 . S
C1755 C1760 1.490 . S
C1756 H1746 0.930 . S
C1756 C1755 1.400 . S
C1756 C1759 1.386 . S
H1757 C1773 0.930 . S
H1758 C1774 0.931 . S
C1759 H1747 0.929 . S
C1759 C1753 1.390 . S
C1759 C1756 1.386 . S
C1760 C1755 1.490 . S
C1760 C1762 1.395 . S
C1760 C1763 1.403 . S
H1761 C1767 0.930 . S
C1762 H1748 0.930 . S
C1762 C1760 1.395 . S
C1762 C1765 1.403 . S
C1763 C1760 1.403 . S
C1763 C1764 1.524 . S
C1763 C1767 1.400 . S
C1764 H1749 0.960 . S
C1764 H1750 0.960 . S
C1764 H1751 0.960 . S
C1764 C1763 1.524 . S
C1765 C1762 1.403 . S
C1765 C1766 1.392 . S
C1765 C1769 1.495 . S
C1766 C1765 1.392 . S
C1766 C1767 1.385 . S
C1766 C1768 1.478 . S
C1767 H1761 0.930 . S
C1767 C1763 1.400 . S
C1767 C1766 1.385 . S
C1768 C1766 1.478 . S
C1768 C1770 1.381 . S
C1768 C1774 1.383 . S
C1769 C1765 1.495 . S
C1769 H1775 0.959 . S
C1769 H1776 0.961 . S
C1769 H1777 0.960 . S
C1770 C1768 1.381 . S
C1770 C1771 1.394 . S
C1770 H1778 0.930 . S
C1771 C1770 1.394 . S
C1771 C1772 1.383 . S
C1771 H1779 0.929 . S
C1772 C1771 1.383 . S
C1772 C1773 1.377 . S
C1773 H1757 0.930 . S
C1773 C1772 1.377 . S
C1773 C1774 1.379 . S
C1774 H1758 0.931 . S
C1774 C1768 1.383 . S
C1774 C1773 1.379 . S
H1775 C1769 0.959 . S
H1776 C1769 0.961 . S
H1777 C1769 0.960 . S
H1778 C1770 0.930 . S
H1779 C1771 0.929 . S
H1780 C1788 0.929 . S
H1781 C1790 0.930 . S
H1782 C1792 0.930 . S
H1783 C1795 0.929 . S
H1784 C1798 0.930 . S
H1785 C1800 0.960 1_545 S
H1786 C1800 0.960 . S
H1787 C1800 0.960 . S
C1788 H1780 0.929 . S
C1788 C1789 1.377 . S
C1788 C1790 1.384 . S
C1789 C1788 1.377 . S
C1789 C1795 1.390 . S
C1790 H1781 0.930 . S
C1790 C1788 1.384 . S
C1790 C1791 1.372 . S
C1791 C1790 1.372 . S
C1791 C1792 1.400 . S
C1791 C1796 1.490 . S
C1792 H1782 0.930 . S
C1792 C1791 1.400 . S
C1792 C1795 1.386 . S
H1793 C1809 0.930 . S
H1794 C1810 0.931 . S
C1795 H1783 0.929 . S
C1795 C1789 1.390 . S
C1795 C1792 1.386 . S
C1796 C1791 1.490 . S
C1796 C1798 1.395 . S
C1796 C1799 1.403 . S
H1797 C1803 0.930 . S
C1798 H1784 0.930 . S
C1798 C1796 1.395 . S
C1798 C1801 1.403 1_565 S
C1799 C1796 1.403 . S
C1799 C1800 1.524 . S
C1799 C1803 1.400 1_565 S
C1800 H1785 0.960 1_565 S
C1800 H1786 0.960 . S
C1800 H1787 0.960 . S
C1800 C1799 1.524 . S
C1801 C1798 1.403 1_545 S
C1801 C1802 1.392 . S
C1801 C1805 1.495 . S
C1802 C1801 1.392 . S
C1802 C1803 1.385 . S
C1802 C1804 1.478 . S
C1803 H1797 0.930 . S
C1803 C1799 1.400 1_545 S
C1803 C1802 1.385 . S
C1804 C1802 1.478 . S
C1804 C1806 1.381 . S
C1804 C1810 1.383 . S
C1805 C1801 1.495 . S
C1805 H1811 0.959 1_545 S
C1805 H1812 0.961 . S
C1805 H1813 0.960 . S
C1806 C1804 1.381 . S
C1806 C1807 1.394 . S
C1806 H1814 0.930 . S
C1807 C1806 1.394 . S
C1807 C1808 1.383 . S
C1807 H1815 0.929 . S
C1808 C1807 1.383 . S
C1808 C1809 1.377 . S
C1809 H1793 0.930 . S
C1809 C1808 1.377 . S
C1809 C1810 1.379 . S
C1810 H1794 0.931 . S
C1810 C1804 1.383 . S
C1810 C1809 1.379 . S
H1811 C1805 0.959 1_565 S
H1812 C1805 0.961 . S
H1813 C1805 0.960 . S
H1814 C1806 0.930 . S
H1815 C1807 0.929 . S
H1816 C1824 0.929 . S
H1817 C1826 0.930 . S
H1818 C1828 0.930 . S
H1819 C1831 0.929 . S
H1820 C1834 0.930 . S
H1821 C1836 0.960 . S
H1822 C1836 0.960 . S
H1823 C1836 0.960 . S
C1824 H1816 0.929 . S
C1824 C1825 1.377 . S
C1824 C1826 1.384 . S
C1825 C1824 1.377 . S
C1825 C1831 1.390 . S
C1826 H1817 0.930 . S
C1826 C1824 1.384 . S
C1826 C1827 1.372 . S
C1827 C1826 1.372 . S
C1827 C1828 1.400 . S
C1827 C1832 1.490 . S
C1828 H1818 0.930 . S
C1828 C1827 1.400 . S
C1828 C1831 1.386 . S
H1829 C1845 0.930 . S
H1830 C1846 0.931 . S
C1831 H1819 0.929 . S
C1831 C1825 1.390 . S
C1831 C1828 1.386 . S
C1832 C1827 1.490 . S
C1832 C1834 1.395 . S
C1832 C1835 1.403 . S
H1833 C1839 0.930 . S
C1834 H1820 0.930 . S
C1834 C1832 1.395 . S
C1834 C1837 1.403 . S
C1835 C1832 1.403 . S
C1835 C1836 1.524 . S
C1835 C1839 1.400 . S
C1836 H1821 0.960 . S
C1836 H1822 0.960 . S
C1836 H1823 0.960 . S
C1836 C1835 1.524 . S
C1837 C1834 1.403 . S
C1837 C1838 1.392 . S
C1837 C1841 1.495 . S
C1838 C1837 1.392 . S
C1838 C1839 1.385 . S
C1838 C1840 1.478 . S
C1839 H1833 0.930 . S
C1839 C1835 1.400 . S
C1839 C1838 1.385 . S
C1840 C1838 1.478 . S
C1840 C1842 1.381 . S
C1840 C1846 1.383 . S
C1841 C1837 1.495 . S
C1841 H1847 0.959 . S
C1841 H1848 0.961 . S
C1841 H1849 0.960 . S
C1842 C1840 1.381 . S
C1842 C1843 1.394 . S
C1842 H1850 0.930 . S
C1843 C1842 1.394 . S
C1843 C1844 1.383 . S
C1843 H1851 0.929 . S
C1844 C1843 1.383 . S
C1844 C1845 1.377 . S
C1845 H1829 0.930 . S
C1845 C1844 1.377 . S
C1845 C1846 1.379 . S
C1846 H1830 0.931 . S
C1846 C1840 1.383 . S
C1846 C1845 1.379 . S
H1847 C1841 0.959 . S
H1848 C1841 0.961 . S
H1849 C1841 0.960 . S
H1850 C1842 0.930 . S
H1851 C1843 0.929 . S
H1852 C1860 0.929 . S
H1853 C1862 0.930 . S
H1854 C1864 0.930 . S
H1855 C1867 0.929 . S
H1856 C1870 0.930 . S
H1857 C1872 0.960 1_565 S
H1858 C1872 0.969 . S
H1859 C1872 0.960 . S
C1860 H1852 0.929 . S
C1860 C1861 1.377 1_455 S
C1860 C1862 1.384 . S
C1861 C1860 1.377 1_655 S
C1861 C1867 1.390 . S
C1862 H1853 0.930 . S
C1862 C1860 1.384 . S
C1862 C1863 1.372 1_455 S
C1863 C1862 1.372 1_655 S
C1863 C1864 1.400 . S
C1863 C1868 1.490 . S
C1864 H1854 0.930 . S
C1864 C1863 1.400 . S
C1864 C1867 1.386 . S
H1865 C1881 0.930 . S
H1866 C1882 0.931 . S
C1867 H1855 0.929 . S
C1867 C1861 1.390 . S
C1867 C1864 1.386 . S
C1868 C1863 1.490 . S
C1868 C1870 1.395 1_656 S
C1868 C1871 1.403 . S
H1869 C1875 0.941 . S
C1870 H1856 0.930 . S
C1870 C1868 1.395 1_454 S
C1870 C1873 1.403 1_545 S
C1871 C1868 1.403 . S
C1871 C1872 1.524 . S
C1871 C1875 1.412 1_545 S
C1872 H1857 0.960 1_545 S
C1872 H1858 0.969 . S
C1872 H1859 0.960 . S
C1872 C1871 1.524 . S
C1873 C1870 1.403 1_565 S
C1873 C1874 1.392 . S
C1873 C1877 1.495 . S
C1874 C1873 1.392 . S
C1874 C1875 1.367 1_454 S
C1874 C1876 1.478 . S
C1875 H1869 0.941 . S
C1875 C1871 1.412 1_565 S
C1875 C1874 1.367 1_656 S
C1876 C1874 1.478 . S
C1876 C1878 1.381 . S
C1876 C1882 1.383 1_455 S
C1877 C1873 1.495 . S
C1877 H1883 0.959 1_565 S
C1877 H1884 0.961 . S
C1877 H1885 0.960 . S
C1878 C1876 1.381 . S
C1878 C1879 1.394 . S
C1878 H1886 0.930 . S
C1879 C1878 1.394 . S
C1879 C1880 1.383 . S
C1879 H1887 0.929 . S
C1880 C1879 1.383 . S
C1880 C1881 1.377 1_455 S
C1881 H1865 0.930 . S
C1881 C1880 1.377 1_655 S
C1881 C1882 1.379 . S
C1882 H1866 0.931 . S
C1882 C1876 1.383 1_655 S
C1882 C1881 1.379 . S
H1883 C1877 0.959 1_545 S
H1884 C1877 0.961 . S
H1885 C1877 0.960 . S
H1886 C1878 0.930 . S
H1887 C1879 0.929 . S
H1888 C1896 0.929 . S
H1889 C1898 0.930 . S
H1890 C1900 0.930 . S
H1891 C1903 0.929 . S
H1892 C1906 0.930 . S
H1893 C1908 0.960 . S
H1894 C1908 0.960 . S
H1895 C1908 0.960 . S
C1896 H1888 0.929 . S
C1896 C1897 1.377 . S
C1896 C1898 1.384 . S
C1897 C1896 1.377 . S
C1897 C1903 1.390 . S
C1898 H1889 0.930 . S
C1898 C1896 1.384 . S
C1898 C1899 1.372 . S
C1899 C1898 1.372 . S
C1899 C1900 1.400 . S
C1899 C1904 1.490 . S
C1900 H1890 0.930 . S
C1900 C1899 1.400 . S
C1900 C1903 1.386 . S
H1901 C1917 0.930 . S
H1902 C1918 0.931 . S
C1903 H1891 0.929 . S
C1903 C1897 1.390 . S
C1903 C1900 1.386 . S
C1904 C1899 1.490 . S
C1904 C1906 1.395 . S
C1904 C1907 1.403 . S
H1905 C1911 0.930 . S
C1906 H1892 0.930 . S
C1906 C1904 1.395 . S
C1906 C1909 1.403 . S
C1907 C1904 1.403 . S
C1907 C1908 1.524 . S
C1907 C1911 1.400 . S
C1908 H1893 0.960 . S
C1908 H1894 0.960 . S
C1908 H1895 0.960 . S
C1908 C1907 1.524 . S
C1909 C1906 1.403 . S
C1909 C1910 1.392 . S
C1909 C1913 1.495 . S
C1910 C1909 1.392 . S
C1910 C1911 1.385 . S
C1910 C1912 1.478 . S
C1911 H1905 0.930 . S
C1911 C1907 1.400 . S
C1911 C1910 1.385 . S
C1912 C1910 1.478 . S
C1912 C1914 1.381 . S
C1912 C1918 1.383 . S
C1913 C1909 1.495 . S
C1913 H1919 0.959 . S
C1913 H1920 0.961 . S
C1913 H1921 0.960 . S
C1914 C1912 1.381 . S
C1914 C1915 1.394 . S
C1914 H1922 0.930 . S
C1915 C1914 1.394 . S
C1915 C1916 1.383 . S
C1915 H1923 0.929 . S
C1916 C1915 1.383 . S
C1916 C1917 1.377 . S
C1917 H1901 0.930 . S
C1917 C1916 1.377 . S
C1917 C1918 1.379 . S
C1918 H1902 0.931 . S
C1918 C1912 1.383 . S
C1918 C1917 1.379 . S
H1919 C1913 0.959 . S
H1920 C1913 0.961 . S
H1921 C1913 0.960 . S
H1922 C1914 0.930 . S
H1923 C1915 0.929 . S
H1924 C1932 0.929 . S
H1925 C1934 0.930 . S
H1926 C1936 0.930 . S
H1927 C1939 0.929 . S
H1928 C1942 0.930 . S
H1929 C1944 0.960 . S
H1930 C1944 0.960 . S
H1931 C1944 0.960 . S
C1932 H1924 0.929 . S
C1932 C1933 1.377 . S
C1932 C1934 1.384 . S
C1933 C1932 1.377 . S
C1933 C1939 1.390 . S
C1934 H1925 0.930 . S
C1934 C1932 1.384 . S
C1934 C1935 1.372 . S
C1935 C1934 1.372 . S
C1935 C1936 1.400 . S
C1935 C1940 1.490 . S
C1936 H1926 0.930 . S
C1936 C1935 1.400 . S
C1936 C1939 1.386 . S
H1937 C1953 0.930 . S
H1938 C1954 0.931 . S
C1939 H1927 0.929 . S
C1939 C1933 1.390 . S
C1939 C1936 1.386 . S
C1940 C1935 1.490 . S
C1940 C1942 1.395 . S
C1940 C1943 1.403 . S
H1941 C1947 0.930 . S
C1942 H1928 0.930 . S
C1942 C1940 1.395 . S
C1942 C1945 1.403 . S
C1943 C1940 1.403 . S
C1943 C1944 1.524 . S
C1943 C1947 1.400 . S
C1944 H1929 0.960 . S
C1944 H1930 0.960 . S
C1944 H1931 0.960 . S
C1944 C1943 1.524 . S
C1945 C1942 1.403 . S
C1945 C1946 1.392 . S
C1945 C1949 1.495 . S
C1946 C1945 1.392 . S
C1946 C1947 1.385 . S
C1946 C1948 1.478 . S
C1947 H1941 0.930 . S
C1947 C1943 1.400 . S
C1947 C1946 1.385 . S
C1948 C1946 1.478 . S
C1948 C1950 1.381 . S
C1948 C1954 1.383 . S
C1949 C1945 1.495 . S
C1949 H1955 0.959 . S
C1949 H1956 0.961 . S
C1949 H1957 0.960 . S
C1950 C1948 1.381 . S
C1950 C1951 1.394 . S
C1950 H1958 0.930 . S
C1951 C1950 1.394 . S
C1951 C1952 1.383 . S
C1951 H1959 0.929 . S
C1952 C1951 1.383 . S
C1952 C1953 1.377 . S
C1953 H1937 0.930 . S
C1953 C1952 1.377 . S
C1953 C1954 1.379 . S
C1954 H1938 0.931 . S
C1954 C1948 1.383 . S
C1954 C1953 1.379 . S
H1955 C1949 0.959 . S
H1956 C1949 0.961 . S
H1957 C1949 0.960 . S
H1958 C1950 0.930 . S
H1959 C1951 0.929 . S
H1960 C1968 0.929 . S
H1961 C1970 0.930 . S
H1962 C1972 0.930 . S
H1963 C1975 0.929 . S
H1964 C1978 0.930 . S
H1965 C1980 0.960 . S
H1966 C1980 0.960 . S
H1967 C1980 0.960 . S
C1968 H1960 0.929 . S
C1968 C1969 1.377 . S
C1968 C1970 1.384 . S
C1969 C1968 1.377 . S
C1969 C1975 1.390 . S
C1970 H1961 0.930 . S
C1970 C1968 1.384 . S
C1970 C1971 1.372 . S
C1971 C1970 1.372 . S
C1971 C1972 1.400 . S
C1971 C1976 1.490 . S
C1972 H1962 0.930 . S
C1972 C1971 1.400 . S
C1972 C1975 1.386 . S
H1973 C1989 0.930 . S
H1974 C1990 0.931 . S
C1975 H1963 0.929 . S
C1975 C1969 1.390 . S
C1975 C1972 1.386 . S
C1976 C1971 1.490 . S
C1976 C1978 1.395 . S
C1976 C1979 1.403 . S
H1977 C1983 0.930 . S
C1978 H1964 0.930 . S
C1978 C1976 1.395 . S
C1978 C1981 1.403 . S
C1979 C1976 1.403 . S
C1979 C1980 1.524 . S
C1979 C1983 1.400 . S
C1980 H1965 0.960 . S
C1980 H1966 0.960 . S
C1980 H1967 0.960 . S
C1980 C1979 1.524 . S
C1981 C1978 1.403 . S
C1981 C1982 1.392 . S
C1981 C1985 1.495 . S
C1982 C1981 1.392 . S
C1982 C1983 1.385 . S
C1982 C1984 1.478 . S
C1983 H1977 0.930 . S
C1983 C1979 1.400 . S
C1983 C1982 1.385 . S
C1984 C1982 1.478 . S
C1984 C1986 1.381 . S
C1984 C1990 1.383 . S
C1985 C1981 1.495 . S
C1985 H1991 0.959 . S
C1985 H1992 0.961 . S
C1985 H1993 0.960 . S
C1986 C1984 1.381 . S
C1986 C1987 1.394 . S
C1986 H1994 0.930 . S
C1987 C1986 1.394 . S
C1987 C1988 1.383 . S
C1987 H1995 0.929 . S
C1988 C1987 1.383 . S
C1988 C1989 1.377 . S
C1989 H1973 0.930 . S
C1989 C1988 1.377 . S
C1989 C1990 1.379 . S
C1990 H1974 0.931 . S
C1990 C1984 1.383 . S
C1990 C1989 1.379 . S
H1991 C1985 0.959 . S
H1992 C1985 0.961 . S
H1993 C1985 0.960 . S
H1994 C1986 0.930 . S
H1995 C1987 0.929 . S
H1996 C2004 0.929 . S
H1997 C2006 0.930 . S
H1998 C2008 0.930 . S
H1999 C2011 0.929 . S
H2000 C2014 0.930 . S
H2001 C2016 0.960 . S
H2002 C2016 0.960 . S
H2003 C2016 0.960 . S
C2004 H1996 0.929 . S
C2004 C2005 1.377 . S
C2004 C2006 1.384 . S
C2005 C2004 1.377 . S
C2005 C2011 1.390 . S
C2006 H1997 0.930 . S
C2006 C2004 1.384 . S
C2006 C2007 1.372 . S
C2007 C2006 1.372 . S
C2007 C2008 1.400 . S
C2007 C2012 1.490 . S
C2008 H1998 0.930 . S
C2008 C2007 1.400 . S
C2008 C2011 1.386 . S
H2009 C2025 0.930 . S
H2010 C2026 0.931 . S
C2011 H1999 0.929 . S
C2011 C2005 1.390 . S
C2011 C2008 1.386 . S
C2012 C2007 1.490 . S
C2012 C2014 1.395 . S
C2012 C2015 1.403 . S
H2013 C2019 0.930 . S
C2014 H2000 0.930 . S
C2014 C2012 1.395 . S
C2014 C2017 1.403 . S
C2015 C2012 1.403 . S
C2015 C2016 1.524 . S
C2015 C2019 1.400 . S
C2016 H2001 0.960 . S
C2016 H2002 0.960 . S
C2016 H2003 0.960 . S
C2016 C2015 1.524 . S
C2017 C2014 1.403 . S
C2017 C2018 1.392 . S
C2017 C2021 1.495 . S
C2018 C2017 1.392 . S
C2018 C2019 1.385 . S
C2018 C2020 1.478 . S
C2019 H2013 0.930 . S
C2019 C2015 1.400 . S
C2019 C2018 1.385 . S
C2020 C2018 1.478 . S
C2020 C2022 1.381 . S
C2020 C2026 1.383 . S
C2021 C2017 1.495 . S
C2021 H2027 0.959 . S
C2021 H2028 0.961 . S
C2021 H2029 0.960 . S
C2022 C2020 1.381 . S
C2022 C2023 1.394 . S
C2022 H2030 0.930 . S
C2023 C2022 1.394 . S
C2023 C2024 1.383 . S
C2023 H2031 0.929 . S
C2024 C2023 1.383 . S
C2024 C2025 1.377 . S
C2025 H2009 0.930 . S
C2025 C2024 1.377 . S
C2025 C2026 1.379 . S
C2026 H2010 0.931 . S
C2026 C2020 1.383 . S
C2026 C2025 1.379 . S
H2027 C2021 0.959 . S
H2028 C2021 0.961 . S
H2029 C2021 0.960 . S
H2030 C2022 0.930 . S
H2031 C2023 0.929 . S
H2032 C2040 0.929 . S
H2033 C2042 0.930 . S
H2034 C2044 0.930 1_556 S
H2035 C2047 0.929 . S
H2036 C2050 0.930 . S
H2037 C2052 0.960 . S
H2038 C2052 0.960 . S
H2039 C2052 0.960 . S
C2040 H2032 0.929 . S
C2040 C2041 1.377 . S
C2040 C2042 1.384 . S
C2041 C2040 1.377 . S
C2041 C2047 1.390 . S
C2042 H2033 0.930 . S
C2042 C2040 1.384 . S
C2042 C2043 1.372 . S
C2043 C2042 1.372 . S
C2043 C2044 1.400 . S
C2043 C2048 1.490 . S
C2044 H2034 0.930 1_554 S
C2044 C2043 1.400 . S
C2044 C2047 1.386 . S
H2045 C2061 0.930 . S
H2046 C2062 0.931 . S
C2047 H2035 0.929 . S
C2047 C2041 1.390 . S
C2047 C2044 1.386 . S
C2048 C2043 1.490 . S
C2048 C2050 1.395 1_554 S
C2048 C2051 1.403 . S
H2049 C2055 0.930 . S
C2050 H2036 0.930 . S
C2050 C2048 1.395 1_556 S
C2050 C2053 1.403 . S
C2051 C2048 1.403 . S
C2051 C2052 1.524 . S
C2051 C2055 1.400 . S
C2052 H2037 0.960 . S
C2052 H2038 0.960 . S
C2052 H2039 0.960 . S
C2052 C2051 1.524 . S
C2053 C2050 1.403 . S
C2053 C2054 1.392 . S
C2053 C2057 1.495 . S
C2054 C2053 1.392 . S
C2054 C2055 1.385 1_556 S
C2054 C2056 1.478 . S
C2055 H2049 0.930 . S
C2055 C2051 1.400 . S
C2055 C2054 1.385 1_554 S
C2056 C2054 1.478 . S
C2056 C2058 1.381 . S
C2056 C2062 1.383 . S
C2057 C2053 1.495 . S
C2057 H2063 0.959 . S
C2057 H2064 0.961 . S
C2057 H2065 0.960 . S
C2058 C2056 1.381 . S
C2058 C2059 1.394 . S
C2058 H2066 0.930 1_556 S
C2059 C2058 1.394 . S
C2059 C2060 1.383 . S
C2059 H2067 0.929 . S
C2060 C2059 1.383 . S
C2060 C2061 1.377 . S
C2061 H2045 0.930 . S
C2061 C2060 1.377 . S
C2061 C2062 1.379 . S
C2062 H2046 0.931 . S
C2062 C2056 1.383 . S
C2062 C2061 1.379 . S
H2063 C2057 0.959 . S
H2064 C2057 0.961 . S
H2065 C2057 0.960 . S
H2066 C2058 0.930 1_554 S
H2067 C2059 0.929 . S
H2068 C2076 0.929 . S
H2069 C2078 0.930 . S
H2070 C2080 0.930 . S
H2071 C2083 0.929 . S
H2072 C2086 0.930 . S
H2073 C2088 0.960 . S
H2074 C2088 0.960 1_655 S
H2075 C2088 0.960 . S
C2076 H2068 0.929 . S
C2076 C2077 1.377 . S
C2076 C2078 1.384 . S
C2077 C2076 1.377 . S
C2077 C2083 1.390 1_655 S
C2078 H2069 0.930 . S
C2078 C2076 1.384 . S
C2078 C2079 1.372 . S
C2079 C2078 1.372 . S
C2079 C2080 1.400 1_655 S
C2079 C2084 1.490 . S
C2080 H2070 0.930 . S
C2080 C2079 1.400 1_455 S
C2080 C2083 1.386 . S
H2081 C2097 0.930 . S
H2082 C2098 0.931 . S
C2083 H2071 0.929 . S
C2083 C2077 1.390 1_455 S
C2083 C2080 1.386 . S
C2084 C2079 1.490 . S
C2084 C2086 1.395 . S
C2084 C2087 1.403 1_655 S
H2085 C2091 0.930 . S
C2086 H2072 0.930 . S
C2086 C2084 1.395 . S
C2086 C2089 1.403 . S
C2087 C2084 1.403 1_455 S
C2087 C2088 1.524 . S
C2087 C2091 1.400 . S
C2088 H2073 0.960 . S
C2088 H2074 0.960 1_455 S
C2088 H2075 0.960 . S
C2088 C2087 1.524 . S
C2089 C2086 1.403 . S
C2089 C2090 1.392 1_655 S
C2089 C2093 1.495 . S
C2090 C2089 1.392 1_455 S
C2090 C2091 1.385 . S
C2090 C2092 1.478 . S
C2091 H2085 0.930 . S
C2091 C2087 1.400 . S
C2091 C2090 1.385 . S
C2092 C2090 1.478 . S
C2092 C2094 1.381 1_455 S
C2092 C2098 1.383 . S
C2093 C2089 1.495 . S
C2093 H2099 0.959 . S
C2093 H2100 0.970 . S
C2093 H2101 0.960 . S
C2094 C2092 1.381 1_655 S
C2094 C2095 1.394 . S
C2094 H2102 0.930 . S
C2095 C2094 1.394 . S
C2095 C2096 1.383 1_655 S
C2095 H2103 0.929 . S
C2096 C2095 1.383 1_455 S
C2096 C2097 1.377 . S
C2097 H2081 0.930 . S
C2097 C2096 1.377 . S
C2097 C2098 1.379 . S
C2098 H2082 0.931 . S
C2098 C2092 1.383 . S
C2098 C2097 1.379 . S
H2099 C2093 0.959 . S
H2100 C2093 0.970 . S
H2101 C2093 0.960 . S
H2102 C2094 0.930 . S
H2103 C2095 0.929 . S
H2104 C2112 0.929 1_655 S
H2105 C2114 0.935 . S
H2106 C2116 0.930 . S
H2107 C2119 0.929 . S
H2108 C2122 0.930 . S
H2109 C2124 0.960 . S
H2110 C2124 0.960 . S
H2111 C2124 0.960 1_554 S
C2112 H2104 0.929 1_455 S
C2112 C2113 1.377 . S
C2112 C2114 1.382 1_455 S
C2113 C2112 1.377 . S
C2113 C2119 1.390 1_556 S
C2114 H2105 0.935 . S
C2114 C2112 1.382 1_655 S
C2114 C2115 1.369 1_655 S
C2115 C2114 1.369 1_455 S
C2115 C2116 1.400 1_556 S
C2115 C2120 1.490 . S
C2116 H2106 0.930 . S
C2116 C2115 1.400 1_554 S
C2116 C2119 1.386 . S
H2117 C2133 0.930 . S
H2118 C2134 0.921 1_455 S
C2119 H2107 0.929 . S
C2119 C2113 1.390 1_554 S
C2119 C2116 1.386 . S
C2120 C2115 1.490 . S
C2120 C2122 1.395 1_455 S
C2120 C2123 1.403 . S
H2121 C2127 0.930 . S
C2122 H2108 0.930 . S
C2122 C2120 1.395 1_655 S
C2122 C2125 1.399 1_556 S
C2123 C2120 1.403 . S
C2123 C2124 1.524 . S
C2123 C2127 1.400 1_556 S
C2124 H2109 0.960 . S
C2124 H2110 0.960 . S
C2124 H2111 0.960 1_556 S
C2124 C2123 1.524 . S
C2125 C2122 1.399 1_554 S
C2125 C2126 1.396 . S
C2125 C2129 1.498 . S
C2126 C2125 1.396 . S
C2126 C2127 1.385 1_655 S
C2126 C2128 1.478 . S
C2127 H2121 0.930 . S
C2127 C2123 1.400 1_554 S
C2127 C2126 1.385 1_455 S
C2128 C2126 1.478 . S
C2128 C2130 1.381 1_554 S
C2128 C2134 1.383 . S
C2129 C2125 1.498 . S
C2129 H2135 0.959 . S
C2129 H2136 0.961 . S
C2129 H2137 0.960 1_554 S
C2130 C2128 1.381 1_556 S
C2130 C2131 1.394 . S
C2130 H2138 0.930 . S
C2131 C2130 1.394 . S
C2131 C2132 1.383 1_556 S
C2131 H2139 0.929 . S
C2132 C2131 1.383 1_554 S
C2132 C2133 1.377 . S
C2133 H2117 0.930 . S
C2133 C2132 1.377 . S
C2133 C2134 1.379 . S
C2134 H2118 0.921 1_655 S
C2134 C2128 1.383 . S
C2134 C2133 1.379 . S
H2135 C2129 0.959 . S
H2136 C2129 0.961 . S
H2137 C2129 0.960 1_556 S
H2138 C2130 0.930 . S
H2139 C2131 0.929 . S
H2140 C2148 0.929 . S
H2141 C2150 0.930 . S
H2142 C2152 0.930 . S
H2143 C2155 0.929 . S
H2144 C2158 0.930 . S
H2145 C2160 0.960 . S
H2146 C2160 0.960 . S
H2147 C2160 0.960 . S
C2148 H2140 0.929 . S
C2148 C2149 1.377 . S
C2148 C2150 1.384 . S
C2149 C2148 1.377 . S
C2149 C2155 1.390 . S
C2150 H2141 0.930 . S
C2150 C2148 1.384 . S
C2150 C2151 1.372 . S
C2151 C2150 1.372 . S
C2151 C2152 1.400 . S
C2151 C2156 1.490 . S
C2152 H2142 0.930 . S
C2152 C2151 1.400 . S
C2152 C2155 1.386 . S
H2153 C2169 0.930 . S
H2154 C2170 0.931 . S
C2155 H2143 0.929 . S
C2155 C2149 1.390 . S
C2155 C2152 1.386 . S
C2156 C2151 1.490 . S
C2156 C2158 1.395 . S
C2156 C2159 1.403 . S
H2157 C2163 0.930 . S
C2158 H2144 0.930 . S
C2158 C2156 1.395 . S
C2158 C2161 1.403 . S
C2159 C2156 1.403 . S
C2159 C2160 1.524 . S
C2159 C2163 1.400 . S
C2160 H2145 0.960 . S
C2160 H2146 0.960 . S
C2160 H2147 0.960 . S
C2160 C2159 1.524 . S
C2161 C2158 1.403 . S
C2161 C2162 1.392 . S
C2161 C2165 1.495 . S
C2162 C2161 1.392 . S
C2162 C2163 1.385 . S
C2162 C2164 1.478 . S
C2163 H2157 0.930 . S
C2163 C2159 1.400 . S
C2163 C2162 1.385 . S
C2164 C2162 1.478 . S
C2164 C2166 1.381 . S
C2164 C2170 1.383 . S
C2165 C2161 1.495 . S
C2165 H2171 0.959 . S
C2165 H2172 0.961 . S
C2165 H2173 0.960 . S
C2166 C2164 1.381 . S
C2166 C2167 1.394 . S
C2166 H2174 0.930 . S
C2167 C2166 1.394 . S
C2167 C2168 1.383 . S
C2167 H2175 0.929 . S
C2168 C2167 1.383 . S
C2168 C2169 1.377 . S
C2169 H2153 0.930 . S
C2169 C2168 1.377 . S
C2169 C2170 1.379 . S
C2170 H2154 0.931 . S
C2170 C2164 1.383 . S
C2170 C2169 1.379 . S
H2171 C2165 0.959 . S
H2172 C2165 0.961 . S
H2173 C2165 0.960 . S
H2174 C2166 0.930 . S
H2175 C2167 0.929 . S
H2176 C2184 0.929 . S
H2177 C2186 0.930 . S
H2178 C2188 0.930 . S
H2179 C2191 0.929 . S
H2180 C2194 0.930 . S
H2181 C2196 0.960 . S
H2182 C2196 0.960 . S
H2183 C2196 0.960 . S
C2184 H2176 0.929 . S
C2184 C2185 1.377 . S
C2184 C2186 1.384 . S
C2185 C2184 1.377 . S
C2185 C2191 1.390 . S
C2186 H2177 0.930 . S
C2186 C2184 1.384 . S
C2186 C2187 1.372 . S
C2187 C2186 1.372 . S
C2187 C2188 1.400 . S
C2187 C2192 1.490 . S
C2188 H2178 0.930 . S
C2188 C2187 1.400 . S
C2188 C2191 1.386 . S
H2189 C2205 0.930 . S
H2190 C2206 0.931 . S
C2191 H2179 0.929 . S
C2191 C2185 1.390 . S
C2191 C2188 1.386 . S
C2192 C2187 1.490 . S
C2192 C2194 1.395 . S
C2192 C2195 1.403 . S
H2193 C2199 0.930 . S
C2194 H2180 0.930 . S
C2194 C2192 1.395 . S
C2194 C2197 1.403 . S
C2195 C2192 1.403 . S
C2195 C2196 1.524 . S
C2195 C2199 1.400 . S
C2196 H2181 0.960 . S
C2196 H2182 0.960 . S
C2196 H2183 0.960 . S
C2196 C2195 1.524 . S
C2197 C2194 1.403 . S
C2197 C2198 1.392 . S
C2197 C2201 1.495 . S
C2198 C2197 1.392 . S
C2198 C2199 1.385 . S
C2198 C2200 1.478 . S
C2199 H2193 0.930 . S
C2199 C2195 1.400 . S
C2199 C2198 1.385 . S
C2200 C2198 1.478 . S
C2200 C2202 1.381 . S
C2200 C2206 1.383 . S
C2201 C2197 1.495 . S
C2201 H2207 0.959 . S
C2201 H2208 0.961 . S
C2201 H2209 0.960 . S
C2202 C2200 1.381 . S
C2202 C2203 1.394 . S
C2202 H2210 0.930 . S
C2203 C2202 1.394 . S
C2203 C2204 1.383 . S
C2203 H2211 0.929 . S
C2204 C2203 1.383 . S
C2204 C2205 1.377 . S
C2205 H2189 0.930 . S
C2205 C2204 1.377 . S
C2205 C2206 1.379 . S
C2206 H2190 0.931 . S
C2206 C2200 1.383 . S
C2206 C2205 1.379 . S
H2207 C2201 0.959 . S
H2208 C2201 0.961 . S
H2209 C2201 0.960 . S
H2210 C2202 0.930 . S
H2211 C2203 0.929 . S
H2212 C2220 0.929 . S
H2213 C2222 0.930 . S
H2214 C2224 0.930 . S
H2215 C2227 0.929 . S
H2216 C2230 0.930 . S
H2217 C2232 0.960 . S
H2218 C2232 0.960 . S
H2219 C2232 0.960 . S
C2220 H2212 0.929 . S
C2220 C2221 1.377 . S
C2220 C2222 1.384 . S
C2221 C2220 1.377 . S
C2221 C2227 1.390 . S
C2222 H2213 0.930 . S
C2222 C2220 1.384 . S
C2222 C2223 1.372 . S
C2223 C2222 1.372 . S
C2223 C2224 1.400 . S
C2223 C2228 1.490 . S
C2224 H2214 0.930 . S
C2224 C2223 1.400 . S
C2224 C2227 1.386 . S
H2225 C2241 0.930 . S
H2226 C2242 0.931 . S
C2227 H2215 0.929 . S
C2227 C2221 1.390 . S
C2227 C2224 1.386 . S
C2228 C2223 1.490 . S
C2228 C2230 1.395 . S
C2228 C2231 1.403 . S
H2229 C2235 0.930 . S
C2230 H2216 0.930 . S
C2230 C2228 1.395 . S
C2230 C2233 1.403 . S
C2231 C2228 1.403 . S
C2231 C2232 1.524 . S
C2231 C2235 1.400 . S
C2232 H2217 0.960 . S
C2232 H2218 0.960 . S
C2232 H2219 0.960 . S
C2232 C2231 1.524 . S
C2233 C2230 1.403 . S
C2233 C2234 1.392 . S
C2233 C2237 1.495 . S
C2234 C2233 1.392 . S
C2234 C2235 1.385 . S
C2234 C2236 1.478 . S
C2235 H2229 0.930 . S
C2235 C2231 1.400 . S
C2235 C2234 1.385 . S
C2236 C2234 1.478 . S
C2236 C2238 1.381 . S
C2236 C2242 1.383 . S
C2237 C2233 1.495 . S
C2237 H2243 0.959 . S
C2237 H2244 0.961 . S
C2237 H2245 0.960 . S
C2238 C2236 1.381 . S
C2238 C2239 1.394 . S
C2238 H2246 0.930 . S
C2239 C2238 1.394 . S
C2239 C2240 1.383 . S
C2239 H2247 0.929 . S
C2240 C2239 1.383 . S
C2240 C2241 1.377 . S
C2241 H2225 0.930 . S
C2241 C2240 1.377 . S
C2241 C2242 1.379 . S
C2242 H2226 0.931 . S
C2242 C2236 1.383 . S
C2242 C2241 1.379 . S
H2243 C2237 0.959 . S
H2244 C2237 0.961 . S
H2245 C2237 0.960 . S
H2246 C2238 0.930 . S
H2247 C2239 0.929 . S
H2248 C2256 0.929 . S
H2249 C2258 0.930 . S
H2250 C2260 0.930 . S
H2251 C2263 0.929 . S
H2252 C2266 0.930 . S
H2253 C2268 0.960 . S
H2254 C2268 0.960 . S
H2255 C2268 0.960 . S
C2256 H2248 0.929 . S
C2256 C2257 1.377 . S
C2256 C2258 1.384 . S
C2257 C2256 1.377 . S
C2257 C2263 1.390 . S
C2258 H2249 0.930 . S
C2258 C2256 1.384 . S
C2258 C2259 1.372 . S
C2259 C2258 1.372 . S
C2259 C2260 1.400 . S
C2259 C2264 1.490 . S
C2260 H2250 0.930 . S
C2260 C2259 1.400 . S
C2260 C2263 1.386 . S
H2261 C2277 0.930 . S
H2262 C2278 0.931 . S
C2263 H2251 0.929 . S
C2263 C2257 1.390 . S
C2263 C2260 1.386 . S
C2264 C2259 1.490 . S
C2264 C2266 1.395 . S
C2264 C2267 1.403 . S
H2265 C2271 0.930 . S
C2266 H2252 0.930 . S
C2266 C2264 1.395 . S
C2266 C2269 1.403 . S
C2267 C2264 1.403 . S
C2267 C2268 1.524 . S
C2267 C2271 1.400 . S
C2268 H2253 0.960 . S
C2268 H2254 0.960 . S
C2268 H2255 0.960 . S
C2268 C2267 1.524 . S
C2269 C2266 1.403 . S
C2269 C2270 1.392 . S
C2269 C2273 1.495 . S
C2270 C2269 1.392 . S
C2270 C2271 1.385 . S
C2270 C2272 1.478 . S
C2271 H2265 0.930 . S
C2271 C2267 1.400 . S
C2271 C2270 1.385 . S
C2272 C2270 1.478 . S
C2272 C2274 1.381 . S
C2272 C2278 1.383 . S
C2273 C2269 1.495 . S
C2273 H2279 0.959 . S
C2273 H2280 0.961 . S
C2273 H2281 0.960 . S
C2274 C2272 1.381 . S
C2274 C2275 1.394 . S
C2274 H2282 0.930 . S
C2275 C2274 1.394 . S
C2275 C2276 1.383 . S
C2275 H2283 0.929 . S
C2276 C2275 1.383 . S
C2276 C2277 1.377 . S
C2277 H2261 0.930 . S
C2277 C2276 1.377 . S
C2277 C2278 1.379 . S
C2278 H2262 0.931 . S
C2278 C2272 1.383 . S
C2278 C2277 1.379 . S
H2279 C2273 0.959 . S
H2280 C2273 0.961 . S
H2281 C2273 0.960 . S
H2282 C2274 0.930 . S
H2283 C2275 0.929 . S
H2284 C2292 0.929 . S
H2285 C2294 0.930 . S
H2286 C2296 0.930 . S
H2287 C2299 0.929 . S
H2288 C2302 0.930 . S
H2289 C2304 0.960 . S
H2290 C2304 0.960 . S
H2291 C2304 0.960 . S
C2292 H2284 0.929 . S
C2292 C2293 1.377 . S
C2292 C2294 1.384 . S
C2293 C2292 1.377 . S
C2293 C2299 1.390 . S
C2294 H2285 0.930 . S
C2294 C2292 1.384 . S
C2294 C2295 1.372 . S
C2295 C2294 1.372 . S
C2295 C2296 1.400 . S
C2295 C2300 1.490 . S
C2296 H2286 0.930 . S
C2296 C2295 1.400 . S
C2296 C2299 1.386 . S
H2297 C2313 0.930 . S
H2298 C2314 0.931 . S
C2299 H2287 0.929 . S
C2299 C2293 1.390 . S
C2299 C2296 1.386 . S
C2300 C2295 1.490 . S
C2300 C2302 1.395 . S
C2300 C2303 1.403 . S
H2301 C2307 0.930 . S
C2302 H2288 0.930 . S
C2302 C2300 1.395 . S
C2302 C2305 1.403 . S
C2303 C2300 1.403 . S
C2303 C2304 1.524 . S
C2303 C2307 1.400 . S
C2304 H2289 0.960 . S
C2304 H2290 0.960 . S
C2304 H2291 0.960 . S
C2304 C2303 1.524 . S
C2305 C2302 1.403 . S
C2305 C2306 1.392 . S
C2305 C2309 1.495 . S
C2306 C2305 1.392 . S
C2306 C2307 1.385 . S
C2306 C2308 1.478 . S
C2307 H2301 0.930 . S
C2307 C2303 1.400 . S
C2307 C2306 1.385 . S
C2308 C2306 1.478 . S
C2308 C2310 1.381 . S
C2308 C2314 1.383 . S
C2309 C2305 1.495 . S
C2309 H2315 0.959 . S
C2309 H2316 0.961 . S
C2309 H2317 0.960 . S
C2310 C2308 1.381 . S
C2310 C2311 1.394 . S
C2310 H2318 0.930 . S
C2311 C2310 1.394 . S
C2311 C2312 1.383 . S
C2311 H2319 0.929 . S
C2312 C2311 1.383 . S
C2312 C2313 1.377 . S
C2313 H2297 0.930 . S
C2313 C2312 1.377 . S
C2313 C2314 1.379 . S
C2314 H2298 0.931 . S
C2314 C2308 1.383 . S
C2314 C2313 1.379 . S
H2315 C2309 0.959 . S
H2316 C2309 0.961 . S
H2317 C2309 0.960 . S
H2318 C2310 0.930 . S
H2319 C2311 0.929 . S
H2320 C2328 0.929 . S
H2321 C2330 0.930 . S
H2322 C2332 0.930 . S
H2323 C2335 0.929 . S
H2324 C2338 0.930 . S
H2325 C2340 0.960 . S
H2326 C2340 0.960 . S
H2327 C2340 0.960 . S
C2328 H2320 0.929 . S
C2328 C2329 1.377 . S
C2328 C2330 1.384 . S
C2329 C2328 1.377 . S
C2329 C2335 1.390 . S
C2330 H2321 0.930 . S
C2330 C2328 1.384 . S
C2330 C2331 1.372 . S
C2331 C2330 1.372 . S
C2331 C2332 1.400 . S
C2331 C2336 1.490 . S
C2332 H2322 0.930 . S
C2332 C2331 1.400 . S
C2332 C2335 1.386 . S
H2333 C2349 0.930 . S
H2334 C2350 0.931 . S
C2335 H2323 0.929 . S
C2335 C2329 1.390 . S
C2335 C2332 1.386 . S
C2336 C2331 1.490 . S
C2336 C2338 1.395 . S
C2336 C2339 1.403 . S
H2337 C2343 0.930 . S
C2338 H2324 0.930 . S
C2338 C2336 1.395 . S
C2338 C2341 1.403 . S
C2339 C2336 1.403 . S
C2339 C2340 1.524 . S
C2339 C2343 1.400 . S
C2340 H2325 0.960 . S
C2340 H2326 0.960 . S
C2340 H2327 0.960 . S
C2340 C2339 1.524 . S
C2341 C2338 1.403 . S
C2341 C2342 1.392 . S
C2341 C2345 1.495 . S
C2342 C2341 1.392 . S
C2342 C2343 1.385 . S
C2342 C2344 1.478 . S
C2343 H2337 0.930 . S
C2343 C2339 1.400 . S
C2343 C2342 1.385 . S
C2344 C2342 1.478 . S
C2344 C2346 1.381 . S
C2344 C2350 1.383 . S
C2345 C2341 1.495 . S
C2345 H2351 0.959 . S
C2345 H2352 0.961 . S
C2345 H2353 0.960 . S
C2346 C2344 1.381 . S
C2346 C2347 1.394 . S
C2346 H2354 0.930 . S
C2347 C2346 1.394 . S
C2347 C2348 1.383 . S
C2347 H2355 0.929 . S
C2348 C2347 1.383 . S
C2348 C2349 1.377 . S
C2349 H2333 0.930 . S
C2349 C2348 1.377 . S
C2349 C2350 1.379 . S
C2350 H2334 0.931 . S
C2350 C2344 1.383 . S
C2350 C2349 1.379 . S
H2351 C2345 0.959 . S
H2352 C2345 0.961 . S
H2353 C2345 0.960 . S
H2354 C2346 0.930 . S
H2355 C2347 0.929 . S
H2356 C2364 0.929 . S
H2357 C2366 0.930 . S
H2358 C2368 0.930 . S
H2359 C2371 0.929 . S
H2360 C2374 0.930 . S
H2361 C2376 0.960 . S
H2362 C2376 0.960 . S
H2363 C2376 0.960 . S
C2364 H2356 0.929 . S
C2364 C2365 1.377 . S
C2364 C2366 1.384 . S
C2365 C2364 1.377 . S
C2365 C2371 1.390 . S
C2366 H2357 0.930 . S
C2366 C2364 1.384 . S
C2366 C2367 1.372 . S
C2367 C2366 1.372 . S
C2367 C2368 1.400 . S
C2367 C2372 1.490 . S
C2368 H2358 0.930 . S
C2368 C2367 1.400 . S
C2368 C2371 1.386 . S
H2369 C2385 0.930 . S
H2370 C2386 0.931 . S
C2371 H2359 0.929 . S
C2371 C2365 1.390 . S
C2371 C2368 1.386 . S
C2372 C2367 1.490 . S
C2372 C2374 1.395 . S
C2372 C2375 1.403 . S
H2373 C2379 0.930 . S
C2374 H2360 0.930 . S
C2374 C2372 1.395 . S
C2374 C2377 1.403 . S
C2375 C2372 1.403 . S
C2375 C2376 1.524 . S
C2375 C2379 1.400 . S
C2376 H2361 0.960 . S
C2376 H2362 0.960 . S
C2376 H2363 0.960 . S
C2376 C2375 1.524 . S
C2377 C2374 1.403 . S
C2377 C2378 1.392 . S
C2377 C2381 1.495 . S
C2378 C2377 1.392 . S
C2378 C2379 1.385 . S
C2378 C2380 1.478 . S
C2379 H2373 0.930 . S
C2379 C2375 1.400 . S
C2379 C2378 1.385 . S
C2380 C2378 1.478 . S
C2380 C2382 1.381 . S
C2380 C2386 1.383 . S
C2381 C2377 1.495 . S
C2381 H2387 0.959 . S
C2381 H2388 0.961 . S
C2381 H2389 0.960 . S
C2382 C2380 1.381 . S
C2382 C2383 1.394 . S
C2382 H2390 0.930 . S
C2383 C2382 1.394 . S
C2383 C2384 1.383 . S
C2383 H2391 0.929 . S
C2384 C2383 1.383 . S
C2384 C2385 1.377 . S
C2385 H2369 0.930 . S
C2385 C2384 1.377 . S
C2385 C2386 1.379 . S
C2386 H2370 0.931 . S
C2386 C2380 1.383 . S
C2386 C2385 1.379 . S
H2387 C2381 0.959 . S
H2388 C2381 0.961 . S
H2389 C2381 0.960 . S
H2390 C2382 0.930 . S
H2391 C2383 0.929 . S
H2392 C2400 0.929 . S
H2393 C2402 0.930 . S
H2394 C2404 0.930 . S
H2395 C2407 0.929 . S
H2396 C2410 0.930 . S
H2397 C2412 0.960 . S
H2398 C2412 0.960 . S
H2399 C2412 0.960 . S
C2400 H2392 0.929 . S
C2400 C2401 1.377 . S
C2400 C2402 1.384 . S
C2401 C2400 1.377 . S
C2401 C2407 1.390 . S
C2402 H2393 0.930 . S
C2402 C2400 1.384 . S
C2402 C2403 1.372 . S
C2403 C2402 1.372 . S
C2403 C2404 1.400 . S
C2403 C2408 1.490 . S
C2404 H2394 0.930 . S
C2404 C2403 1.400 . S
C2404 C2407 1.386 . S
H2405 C2421 0.930 . S
H2406 C2422 0.931 . S
C2407 H2395 0.929 . S
C2407 C2401 1.390 . S
C2407 C2404 1.386 . S
C2408 C2403 1.490 . S
C2408 C2410 1.395 . S
C2408 C2411 1.403 . S
H2409 C2415 0.930 . S
C2410 H2396 0.930 . S
C2410 C2408 1.395 . S
C2410 C2413 1.403 . S
C2411 C2408 1.403 . S
C2411 C2412 1.524 . S
C2411 C2415 1.400 . S
C2412 H2397 0.960 . S
C2412 H2398 0.960 . S
C2412 H2399 0.960 . S
C2412 C2411 1.524 . S
C2413 C2410 1.403 . S
C2413 C2414 1.392 . S
C2413 C2417 1.495 . S
C2414 C2413 1.392 . S
C2414 C2415 1.385 . S
C2414 C2416 1.478 . S
C2415 H2409 0.930 . S
C2415 C2411 1.400 . S
C2415 C2414 1.385 . S
C2416 C2414 1.478 . S
C2416 C2418 1.381 . S
C2416 C2422 1.383 . S
C2417 C2413 1.495 . S
C2417 H2423 0.959 . S
C2417 H2424 0.961 . S
C2417 H2425 0.960 . S
C2418 C2416 1.381 . S
C2418 C2419 1.394 . S
C2418 H2426 0.930 . S
C2419 C2418 1.394 . S
C2419 C2420 1.383 . S
C2419 H2427 0.929 . S
C2420 C2419 1.383 . S
C2420 C2421 1.377 . S
C2421 H2405 0.930 . S
C2421 C2420 1.377 . S
C2421 C2422 1.379 . S
C2422 H2406 0.931 . S
C2422 C2416 1.383 . S
C2422 C2421 1.379 . S
H2423 C2417 0.959 . S
H2424 C2417 0.961 . S
H2425 C2417 0.960 . S
H2426 C2418 0.930 . S
H2427 C2419 0.929 . S
H2428 C2436 0.929 . S
H2429 C2438 0.930 . S
H2430 C2440 0.930 . S
H2431 C2443 0.929 . S
H2432 C2446 0.930 . S
H2433 C2448 0.960 . S
H2434 C2448 0.960 . S
H2435 C2448 0.960 . S
C2436 H2428 0.929 . S
C2436 C2437 1.377 . S
C2436 C2438 1.384 . S
C2437 C2436 1.377 . S
C2437 C2443 1.390 . S
C2438 H2429 0.930 . S
C2438 C2436 1.384 . S
C2438 C2439 1.372 . S
C2439 C2438 1.372 . S
C2439 C2440 1.400 . S
C2439 C2444 1.490 . S
C2440 H2430 0.930 . S
C2440 C2439 1.400 . S
C2440 C2443 1.386 . S
H2441 C2457 0.930 . S
H2442 C2458 0.931 . S
C2443 H2431 0.929 . S
C2443 C2437 1.390 . S
C2443 C2440 1.386 . S
C2444 C2439 1.490 . S
C2444 C2446 1.395 . S
C2444 C2447 1.403 . S
H2445 C2451 0.930 . S
C2446 H2432 0.930 . S
C2446 C2444 1.395 . S
C2446 C2449 1.403 . S
C2447 C2444 1.403 . S
C2447 C2448 1.524 . S
C2447 C2451 1.400 . S
C2448 H2433 0.960 . S
C2448 H2434 0.960 . S
C2448 H2435 0.960 . S
C2448 C2447 1.524 . S
C2449 C2446 1.403 . S
C2449 C2450 1.392 . S
C2449 C2453 1.495 . S
C2450 C2449 1.392 . S
C2450 C2451 1.385 . S
C2450 C2452 1.478 . S
C2451 H2445 0.930 . S
C2451 C2447 1.400 . S
C2451 C2450 1.385 . S
C2452 C2450 1.478 . S
C2452 C2454 1.381 . S
C2452 C2458 1.383 . S
C2453 C2449 1.495 . S
C2453 H2459 0.959 . S
C2453 H2460 0.961 . S
C2453 H2461 0.960 . S
C2454 C2452 1.381 . S
C2454 C2455 1.394 . S
C2454 H2462 0.930 . S
C2455 C2454 1.394 . S
C2455 C2456 1.383 . S
C2455 H2463 0.929 . S
C2456 C2455 1.383 . S
C2456 C2457 1.377 . S
C2457 H2441 0.930 . S
C2457 C2456 1.377 . S
C2457 C2458 1.379 . S
C2458 H2442 0.931 . S
C2458 C2452 1.383 . S
C2458 C2457 1.379 . S
H2459 C2453 0.959 . S
H2460 C2453 0.961 . S
H2461 C2453 0.960 . S
H2462 C2454 0.930 . S
H2463 C2455 0.929 . S
H2464 C2472 0.929 . S
H2465 C2474 0.930 . S
H2466 C2476 0.930 . S
H2467 C2479 0.929 . S
H2468 C2482 0.930 . S
H2469 C2484 0.960 . S
H2470 C2484 0.960 . S
H2471 C2484 0.960 . S
C2472 H2464 0.929 . S
C2472 C2473 1.377 . S
C2472 C2474 1.384 . S
C2473 C2472 1.377 . S
C2473 C2479 1.390 . S
C2474 H2465 0.930 . S
C2474 C2472 1.384 . S
C2474 C2475 1.372 . S
C2475 C2474 1.372 . S
C2475 C2476 1.400 . S
C2475 C2480 1.490 . S
C2476 H2466 0.930 . S
C2476 C2475 1.400 . S
C2476 C2479 1.386 . S
H2477 C2493 0.930 . S
H2478 C2494 0.931 . S
C2479 H2467 0.929 . S
C2479 C2473 1.390 . S
C2479 C2476 1.386 . S
C2480 C2475 1.490 . S
C2480 C2482 1.395 . S
C2480 C2483 1.403 . S
H2481 C2487 0.930 . S
C2482 H2468 0.930 . S
C2482 C2480 1.395 . S
C2482 C2485 1.403 . S
C2483 C2480 1.403 . S
C2483 C2484 1.524 . S
C2483 C2487 1.400 . S
C2484 H2469 0.960 . S
C2484 H2470 0.960 . S
C2484 H2471 0.960 . S
C2484 C2483 1.524 . S
C2485 C2482 1.403 . S
C2485 C2486 1.392 . S
C2485 C2489 1.495 . S
C2486 C2485 1.392 . S
C2486 C2487 1.385 . S
C2486 C2488 1.478 . S
C2487 H2481 0.930 . S
C2487 C2483 1.400 . S
C2487 C2486 1.385 . S
C2488 C2486 1.478 . S
C2488 C2490 1.381 . S
C2488 C2494 1.383 . S
C2489 C2485 1.495 . S
C2489 H2495 0.959 . S
C2489 H2496 0.961 . S
C2489 H2497 0.960 . S
C2490 C2488 1.381 . S
C2490 C2491 1.394 . S
C2490 H2498 0.930 . S
C2491 C2490 1.394 . S
C2491 C2492 1.383 . S
C2491 H2499 0.929 . S
C2492 C2491 1.383 . S
C2492 C2493 1.377 . S
C2493 H2477 0.930 . S
C2493 C2492 1.377 . S
C2493 C2494 1.379 . S
C2494 H2478 0.931 . S
C2494 C2488 1.383 . S
C2494 C2493 1.379 . S
H2495 C2489 0.959 . S
H2496 C2489 0.961 . S
H2497 C2489 0.960 . S
H2498 C2490 0.930 . S
H2499 C2491 0.929 . S
H2500 C2508 0.929 . S
H2501 C2510 0.930 . S
H2502 C2512 0.930 . S
H2503 C2515 0.929 . S
H2504 C2518 0.930 . S
H2505 C2520 0.960 . S
H2506 C2520 0.960 . S
H2507 C2520 0.960 . S
C2508 H2500 0.929 . S
C2508 C2509 1.377 . S
C2508 C2510 1.384 . S
C2509 C2508 1.377 . S
C2509 C2515 1.390 . S
C2510 H2501 0.930 . S
C2510 C2508 1.384 . S
C2510 C2511 1.372 . S
C2511 C2510 1.372 . S
C2511 C2512 1.400 . S
C2511 C2516 1.490 . S
C2512 H2502 0.930 . S
C2512 C2511 1.400 . S
C2512 C2515 1.386 . S
H2513 C2529 0.930 . S
H2514 C2530 0.931 . S
C2515 H2503 0.929 . S
C2515 C2509 1.390 . S
C2515 C2512 1.386 . S
C2516 C2511 1.490 . S
C2516 C2518 1.395 . S
C2516 C2519 1.403 . S
H2517 C2523 0.930 . S
C2518 H2504 0.930 . S
C2518 C2516 1.395 . S
C2518 C2521 1.403 . S
C2519 C2516 1.403 . S
C2519 C2520 1.524 . S
C2519 C2523 1.400 . S
C2520 H2505 0.960 . S
C2520 H2506 0.960 . S
C2520 H2507 0.960 . S
C2520 C2519 1.524 . S
C2521 C2518 1.403 . S
C2521 C2522 1.392 . S
C2521 C2525 1.495 . S
C2522 C2521 1.392 . S
C2522 C2523 1.385 . S
C2522 C2524 1.478 . S
C2523 H2517 0.930 . S
C2523 C2519 1.400 . S
C2523 C2522 1.385 . S
C2524 C2522 1.478 . S
C2524 C2526 1.381 . S
C2524 C2530 1.383 . S
C2525 C2521 1.495 . S
C2525 H2531 0.959 . S
C2525 H2532 0.961 . S
C2525 H2533 0.960 . S
C2526 C2524 1.381 . S
C2526 C2527 1.394 . S
C2526 H2534 0.930 . S
C2527 C2526 1.394 . S
C2527 C2528 1.383 . S
C2527 H2535 0.929 . S
C2528 C2527 1.383 . S
C2528 C2529 1.377 . S
C2529 H2513 0.930 . S
C2529 C2528 1.377 . S
C2529 C2530 1.379 . S
C2530 H2514 0.931 . S
C2530 C2524 1.383 . S
C2530 C2529 1.379 . S
H2531 C2525 0.959 . S
H2532 C2525 0.961 . S
H2533 C2525 0.960 . S
H2534 C2526 0.930 . S
H2535 C2527 0.929 . S
H2536 C2544 0.929 . S
H2537 C2546 0.930 . S
H2538 C2548 0.930 . S
H2539 C2551 0.929 . S
H2540 C2554 0.930 . S
H2541 C2556 0.960 . S
H2542 C2556 0.960 . S
H2543 C2556 0.960 . S
C2544 H2536 0.929 . S
C2544 C2545 1.377 . S
C2544 C2546 1.384 . S
C2545 C2544 1.377 . S
C2545 C2551 1.390 . S
C2546 H2537 0.930 . S
C2546 C2544 1.384 . S
C2546 C2547 1.372 . S
C2547 C2546 1.372 . S
C2547 C2548 1.400 . S
C2547 C2552 1.490 . S
C2548 H2538 0.930 . S
C2548 C2547 1.400 . S
C2548 C2551 1.386 . S
H2549 C2565 0.930 . S
H2550 C2566 0.931 . S
C2551 H2539 0.929 . S
C2551 C2545 1.390 . S
C2551 C2548 1.386 . S
C2552 C2547 1.490 . S
C2552 C2554 1.395 . S
C2552 C2555 1.403 . S
H2553 C2559 0.930 . S
C2554 H2540 0.930 . S
C2554 C2552 1.395 . S
C2554 C2557 1.403 . S
C2555 C2552 1.403 . S
C2555 C2556 1.524 . S
C2555 C2559 1.400 . S
C2556 H2541 0.960 . S
C2556 H2542 0.960 . S
C2556 H2543 0.960 . S
C2556 C2555 1.524 . S
C2557 C2554 1.403 . S
C2557 C2558 1.392 . S
C2557 C2561 1.495 . S
C2558 C2557 1.392 . S
C2558 C2559 1.385 . S
C2558 C2560 1.478 . S
C2559 H2553 0.930 . S
C2559 C2555 1.400 . S
C2559 C2558 1.385 . S
C2560 C2558 1.478 . S
C2560 C2562 1.381 . S
C2560 C2566 1.383 . S
C2561 C2557 1.495 . S
C2561 H2567 0.959 . S
C2561 H2568 0.961 . S
C2561 H2569 0.960 . S
C2562 C2560 1.381 . S
C2562 C2563 1.394 . S
C2562 H2570 0.930 . S
C2563 C2562 1.394 . S
C2563 C2564 1.383 . S
C2563 H2571 0.929 . S
C2564 C2563 1.383 . S
C2564 C2565 1.377 . S
C2565 H2549 0.930 . S
C2565 C2564 1.377 . S
C2565 C2566 1.379 . S
C2566 H2550 0.931 . S
C2566 C2560 1.383 . S
C2566 C2565 1.379 . S
H2567 C2561 0.959 . S
H2568 C2561 0.961 . S
H2569 C2561 0.960 . S
H2570 C2562 0.930 . S
H2571 C2563 0.929 . S
H2572 C2580 0.929 . S
H2573 C2582 0.930 . S
H2574 C2584 0.930 . S
H2575 C2587 0.929 . S
H2576 C2590 0.930 . S
H2577 C2592 0.960 . S
H2578 C2592 0.960 . S
H2579 C2592 0.960 . S
C2580 H2572 0.929 . S
C2580 C2581 1.377 . S
C2580 C2582 1.384 . S
C2581 C2580 1.377 . S
C2581 C2587 1.390 . S
C2582 H2573 0.930 . S
C2582 C2580 1.384 . S
C2582 C2583 1.372 . S
C2583 C2582 1.372 . S
C2583 C2584 1.400 . S
C2583 C2588 1.490 . S
C2584 H2574 0.930 . S
C2584 C2583 1.400 . S
C2584 C2587 1.386 . S
H2585 C2601 0.930 . S
H2586 C2602 0.931 . S
C2587 H2575 0.929 . S
C2587 C2581 1.390 . S
C2587 C2584 1.386 . S
C2588 C2583 1.490 . S
C2588 C2590 1.395 . S
C2588 C2591 1.403 . S
H2589 C2595 0.930 . S
C2590 H2576 0.930 . S
C2590 C2588 1.395 . S
C2590 C2593 1.403 . S
C2591 C2588 1.403 . S
C2591 C2592 1.524 . S
C2591 C2595 1.400 . S
C2592 H2577 0.960 . S
C2592 H2578 0.960 . S
C2592 H2579 0.960 . S
C2592 C2591 1.524 . S
C2593 C2590 1.403 . S
C2593 C2594 1.392 . S
C2593 C2597 1.495 . S
C2594 C2593 1.392 . S
C2594 C2595 1.385 . S
C2594 C2596 1.478 . S
C2595 H2589 0.930 . S
C2595 C2591 1.400 . S
C2595 C2594 1.385 . S
C2596 C2594 1.478 . S
C2596 C2598 1.381 . S
C2596 C2602 1.383 . S
C2597 C2593 1.495 . S
C2597 H2603 0.959 . S
C2597 H2604 0.961 . S
C2597 H2605 0.960 . S
C2598 C2596 1.381 . S
C2598 C2599 1.394 . S
C2598 H2606 0.930 . S
C2599 C2598 1.394 . S
C2599 C2600 1.383 . S
C2599 H2607 0.929 . S
C2600 C2599 1.383 . S
C2600 C2601 1.377 . S
C2601 H2585 0.930 . S
C2601 C2600 1.377 . S
C2601 C2602 1.379 . S
C2602 H2586 0.931 . S
C2602 C2596 1.383 . S
C2602 C2601 1.379 . S
H2603 C2597 0.959 . S
H2604 C2597 0.961 . S
H2605 C2597 0.960 . S
H2606 C2598 0.930 . S
H2607 C2599 0.929 . S
H2608 C2616 0.929 . S
H2609 C2618 0.930 . S
H2610 C2620 0.930 . S
H2611 C2623 0.929 . S
H2612 C2626 0.930 . S
H2613 C2628 0.960 . S
H2614 C2628 0.960 . S
H2615 C2628 0.960 . S
C2616 H2608 0.929 . S
C2616 C2617 1.377 . S
C2616 C2618 1.384 . S
C2617 C2616 1.377 . S
C2617 C2623 1.390 . S
C2618 H2609 0.930 . S
C2618 C2616 1.384 . S
C2618 C2619 1.372 . S
C2619 C2618 1.372 . S
C2619 C2620 1.400 . S
C2619 C2624 1.490 . S
C2620 H2610 0.930 . S
C2620 C2619 1.400 . S
C2620 C2623 1.386 . S
H2621 C2637 0.930 . S
H2622 C2638 0.931 . S
C2623 H2611 0.929 . S
C2623 C2617 1.390 . S
C2623 C2620 1.386 . S
C2624 C2619 1.490 . S
C2624 C2626 1.395 . S
C2624 C2627 1.403 . S
H2625 C2631 0.930 . S
C2626 H2612 0.930 . S
C2626 C2624 1.395 . S
C2626 C2629 1.403 . S
C2627 C2624 1.403 . S
C2627 C2628 1.524 . S
C2627 C2631 1.400 . S
C2628 H2613 0.960 . S
C2628 H2614 0.960 . S
C2628 H2615 0.960 . S
C2628 C2627 1.524 . S
C2629 C2626 1.403 . S
C2629 C2630 1.392 . S
C2629 C2633 1.495 . S
C2630 C2629 1.392 . S
C2630 C2631 1.385 . S
C2630 C2632 1.478 . S
C2631 H2625 0.930 . S
C2631 C2627 1.400 . S
C2631 C2630 1.385 . S
C2632 C2630 1.478 . S
C2632 C2634 1.381 . S
C2632 C2638 1.383 . S
C2633 C2629 1.495 . S
C2633 H2639 0.959 . S
C2633 H2640 0.961 . S
C2633 H2641 0.960 . S
C2634 C2632 1.381 . S
C2634 C2635 1.394 . S
C2634 H2642 0.930 . S
C2635 C2634 1.394 . S
C2635 C2636 1.383 . S
C2635 H2643 0.929 . S
C2636 C2635 1.383 . S
C2636 C2637 1.377 . S
C2637 H2621 0.930 . S
C2637 C2636 1.377 . S
C2637 C2638 1.379 . S
C2638 H2622 0.931 . S
C2638 C2632 1.383 . S
C2638 C2637 1.379 . S
H2639 C2633 0.959 . S
H2640 C2633 0.961 . S
H2641 C2633 0.960 . S
H2642 C2634 0.930 . S
H2643 C2635 0.929 . S
H2644 C2652 0.929 . S
H2645 C2654 0.930 . S
H2646 C2656 0.930 . S
H2647 C2659 0.929 . S
H2648 C2662 0.930 . S
H2649 C2664 0.960 . S
H2650 C2664 0.960 . S
H2651 C2664 0.960 . S
C2652 H2644 0.929 . S
C2652 C2653 1.377 . S
C2652 C2654 1.384 . S
C2653 C2652 1.377 . S
C2653 C2659 1.390 . S
C2654 H2645 0.930 . S
C2654 C2652 1.384 . S
C2654 C2655 1.372 . S
C2655 C2654 1.372 . S
C2655 C2656 1.400 . S
C2655 C2660 1.490 . S
C2656 H2646 0.930 . S
C2656 C2655 1.400 . S
C2656 C2659 1.386 . S
H2657 C2673 0.930 . S
H2658 C2674 0.931 . S
C2659 H2647 0.929 . S
C2659 C2653 1.390 . S
C2659 C2656 1.386 . S
C2660 C2655 1.490 . S
C2660 C2662 1.395 . S
C2660 C2663 1.403 . S
H2661 C2667 0.930 . S
C2662 H2648 0.930 . S
C2662 C2660 1.395 . S
C2662 C2665 1.403 . S
C2663 C2660 1.403 . S
C2663 C2664 1.524 . S
C2663 C2667 1.400 . S
C2664 H2649 0.960 . S
C2664 H2650 0.960 . S
C2664 H2651 0.960 . S
C2664 C2663 1.524 . S
C2665 C2662 1.403 . S
C2665 C2666 1.392 . S
C2665 C2669 1.495 . S
C2666 C2665 1.392 . S
C2666 C2667 1.385 . S
C2666 C2668 1.478 . S
C2667 H2661 0.930 . S
C2667 C2663 1.400 . S
C2667 C2666 1.385 . S
C2668 C2666 1.478 . S
C2668 C2670 1.381 . S
C2668 C2674 1.383 . S
C2669 C2665 1.495 . S
C2669 H2675 0.959 . S
C2669 H2676 0.961 . S
C2669 H2677 0.960 . S
C2670 C2668 1.381 . S
C2670 C2671 1.394 . S
C2670 H2678 0.930 . S
C2671 C2670 1.394 . S
C2671 C2672 1.383 . S
C2671 H2679 0.929 . S
C2672 C2671 1.383 . S
C2672 C2673 1.377 . S
C2673 H2657 0.930 . S
C2673 C2672 1.377 . S
C2673 C2674 1.379 . S
C2674 H2658 0.931 . S
C2674 C2668 1.383 . S
C2674 C2673 1.379 . S
H2675 C2669 0.959 . S
H2676 C2669 0.961 . S
H2677 C2669 0.960 . S
H2678 C2670 0.930 . S
H2679 C2671 0.929 . S
H2680 C2688 0.929 . S
H2681 C2690 0.930 . S
H2682 C2692 0.930 . S
H2683 C2695 0.929 . S
H2684 C2698 0.930 . S
H2685 C2700 0.960 . S
H2686 C2700 0.960 . S
H2687 C2700 0.960 . S
C2688 H2680 0.929 . S
C2688 C2689 1.377 . S
C2688 C2690 1.384 . S
C2689 C2688 1.377 . S
C2689 C2695 1.390 . S
C2690 H2681 0.930 . S
C2690 C2688 1.384 . S
C2690 C2691 1.372 . S
C2691 C2690 1.372 . S
C2691 C2692 1.400 . S
C2691 C2696 1.490 . S
C2692 H2682 0.930 . S
C2692 C2691 1.400 . S
C2692 C2695 1.386 . S
H2693 C2709 0.930 . S
H2694 C2710 0.931 . S
C2695 H2683 0.929 . S
C2695 C2689 1.390 . S
C2695 C2692 1.386 . S
C2696 C2691 1.490 . S
C2696 C2698 1.395 . S
C2696 C2699 1.403 . S
H2697 C2703 0.930 . S
C2698 H2684 0.930 . S
C2698 C2696 1.395 . S
C2698 C2701 1.403 . S
C2699 C2696 1.403 . S
C2699 C2700 1.524 . S
C2699 C2703 1.400 . S
C2700 H2685 0.960 . S
C2700 H2686 0.960 . S
C2700 H2687 0.960 . S
C2700 C2699 1.524 . S
C2701 C2698 1.403 . S
C2701 C2702 1.392 . S
C2701 C2705 1.495 . S
C2702 C2701 1.392 . S
C2702 C2703 1.385 . S
C2702 C2704 1.478 . S
C2703 H2697 0.930 . S
C2703 C2699 1.400 . S
C2703 C2702 1.385 . S
C2704 C2702 1.478 . S
C2704 C2706 1.381 . S
C2704 C2710 1.383 . S
C2705 C2701 1.495 . S
C2705 H2711 0.959 . S
C2705 H2712 0.961 . S
C2705 H2713 0.960 . S
C2706 C2704 1.381 . S
C2706 C2707 1.394 . S
C2706 H2714 0.930 . S
C2707 C2706 1.394 . S
C2707 C2708 1.383 . S
C2707 H2715 0.929 . S
C2708 C2707 1.383 . S
C2708 C2709 1.377 . S
C2709 H2693 0.930 . S
C2709 C2708 1.377 . S
C2709 C2710 1.379 . S
C2710 H2694 0.931 . S
C2710 C2704 1.383 . S
C2710 C2709 1.379 . S
H2711 C2705 0.959 . S
H2712 C2705 0.961 . S
H2713 C2705 0.960 . S
H2714 C2706 0.930 . S
H2715 C2707 0.929 . S
H2716 C2724 0.929 . S
H2717 C2726 0.930 . S
H2718 C2728 0.930 . S
H2719 C2731 0.929 . S
H2720 C2734 0.930 . S
H2721 C2736 0.960 . S
H2722 C2736 0.960 . S
H2723 C2736 0.960 . S
C2724 H2716 0.929 . S
C2724 C2725 1.377 . S
C2724 C2726 1.384 . S
C2725 C2724 1.377 . S
C2725 C2731 1.390 . S
C2726 H2717 0.930 . S
C2726 C2724 1.384 . S
C2726 C2727 1.372 . S
C2727 C2726 1.372 . S
C2727 C2728 1.400 . S
C2727 C2732 1.490 . S
C2728 H2718 0.930 . S
C2728 C2727 1.400 . S
C2728 C2731 1.386 . S
H2729 C2745 0.930 . S
H2730 C2746 0.931 . S
C2731 H2719 0.929 . S
C2731 C2725 1.390 . S
C2731 C2728 1.386 . S
C2732 C2727 1.490 . S
C2732 C2734 1.395 . S
C2732 C2735 1.403 . S
H2733 C2739 0.930 . S
C2734 H2720 0.930 . S
C2734 C2732 1.395 . S
C2734 C2737 1.403 . S
C2735 C2732 1.403 . S
C2735 C2736 1.524 . S
C2735 C2739 1.400 . S
C2736 H2721 0.960 . S
C2736 H2722 0.960 . S
C2736 H2723 0.960 . S
C2736 C2735 1.524 . S
C2737 C2734 1.403 . S
C2737 C2738 1.392 . S
C2737 C2741 1.495 . S
C2738 C2737 1.392 . S
C2738 C2739 1.385 . S
C2738 C2740 1.478 . S
C2739 H2733 0.930 . S
C2739 C2735 1.400 . S
C2739 C2738 1.385 . S
C2740 C2738 1.478 . S
C2740 C2742 1.381 . S
C2740 C2746 1.383 . S
C2741 C2737 1.495 . S
C2741 H2747 0.959 . S
C2741 H2748 0.961 . S
C2741 H2749 0.960 . S
C2742 C2740 1.381 . S
C2742 C2743 1.394 . S
C2742 H2750 0.930 . S
C2743 C2742 1.394 . S
C2743 C2744 1.383 . S
C2743 H2751 0.929 . S
C2744 C2743 1.383 . S
C2744 C2745 1.377 . S
C2745 H2729 0.930 . S
C2745 C2744 1.377 . S
C2745 C2746 1.379 . S
C2746 H2730 0.931 . S
C2746 C2740 1.383 . S
C2746 C2745 1.379 . S
H2747 C2741 0.959 . S
H2748 C2741 0.961 . S
H2749 C2741 0.960 . S
H2750 C2742 0.930 . S
H2751 C2743 0.929 . S
C457 C134 0.736 . S
C476 C7 0.720 . S
C493 C21 0.740 . S
C512 C372 0.770 . S
C529 C162 0.740 . S
C548 C35 0.765 . S
C565 C344 0.742 . S
C584 C49 0.759 . S
C601 C63 0.731 . S
C620 C218 0.756 . S
C637 C400 0.728 . S
C656 C77 0.777 . S
C673 C91 0.731 . S
C692 C190 0.797 . S
C709 C428 0.745 . S
C728 C105 0.699 . S
C745 C22 0.728 . S
C764 C119 0.732 . S
C781 C133 0.745 . S
C800 C260 0.698 . S
C817 C50 0.737 . S
C836 C147 0.779 . S
C853 C161 0.740 . S
C872 C232 0.793 . S
C889 C175 0.733 . S
C908 C106 0.793 . S
C925 C288 0.737 . S
C944 C189 0.779 . S
C961 C203 0.746 . S
C980 C78 0.742 . S
C997 C316 0.750 . S
C1016 C217 0.752 . S
C1033 C358 0.752 . S
C1052 C231 0.712 . S
C1069 C148 0.727 . S
C1088 C245 0.769 . S
C1105 C259 0.745 . S
C1124 C386 0.726 . S
C1141 C120 0.752 . S
C1160 C273 0.712 . S
C1177 C442 0.740 . S
C1196 C287 0.766 . S
C1213 C301 0.734 . S
C1232 C176 0.796 . S
C1249 C414 0.748 . S
C1268 C315 0.697 . S
C1285 C204 0.748 . S
C1304 C329 0.738 . S
C1321 C246 0.737 . S
C1340 C343 0.779 . S
C1357 C357 0.744 . S
C1376 C36 0.771 . S
C1393 C371 0.745 . S
C1412 C274 0.763 . S
C1429 C385 0.739 . S
C1448 C8 0.796 . S
C1465 C330 0.752 . S
C1484 C399 0.738 . S
C1501 C413 0.735 . S
C1520 C64 0.797 . S
C1537 C427 0.731 . S
C1556 C302 0.781 . S
C1573 C441 0.730 . S
C1592 C92 0.750 . S
C1609 C347 1.182 . S
C1628 C11 1.184 . S
C1645 C25 1.175 . S
C1664 C137 1.160 . S
C1681 C39 1.175 . S
C1700 C375 1.172 . S
C1717 C53 1.182 . S
C1736 C165 1.181 . S
C1753 C67 1.176 . S
C1772 C403 1.182 . S
C1789 C81 1.177 . S
C1808 C193 1.186 . S
C1825 C431 1.180 . S
C1844 C95 1.193 . S
C1861 C109 1.175 . S
C1880 C221 1.179 . S
C1897 C123 1.175 . S
C1916 C235 1.171 . S
C1933 C151 1.180 . S
C1952 C263 1.193 . S
C1969 C291 1.182 . S
C1988 C179 1.186 . S
C2005 C319 1.182 . S
C2024 C207 1.189 . S
C2041 C249 1.177 . S
C2060 C361 1.188 . S
C2077 C389 1.181 . S
C2096 C277 1.172 . S
C2113 C305 1.180 . S
C2132 C417 1.193 . S
C2149 C445 1.177 . S
C2168 C333 1.187 . S
C2185 C307 1.501 . S
C2204 C13 1.492 . S
C2221 C321 1.510 . S
C2240 C27 1.488 . S
C2257 C41 1.503 . S
C2276 C335 1.484 . S
C2293 C293 1.506 . S
C2312 C55 1.515 . S
C2329 C279 1.505 . S
C2348 C69 1.475 . S
C2365 C237 1.506 . S
C2384 C83 1.515 . S
C2401 C97 1.502 . S
C2420 C251 1.487 . S
C2437 C265 1.505 . S
C2456 C111 1.520 . S
C2473 C419 1.511 . S
C2492 C125 1.524 . S
C2509 C433 1.497 . S
C2528 C139 1.476 . S
C2545 C447 1.501 . S
C2564 C153 1.500 . S
C2581 C167 1.497 . S
C2600 C405 1.472 . S
C2617 C391 1.509 . S
C2636 C181 1.534 . S
C2653 C349 1.501 . S
C2672 C195 1.501 . S
C2689 C363 1.512 . S
C2708 C209 1.534 . S
C2725 C377 1.511 . S
C2744 C223 1.538 . S
