# Generated by pormake.
# Topology wjd, (6)-cn, num edge types: 1
# Building blocks:
#     Node 0, Type 0, BuildingBlock: PAMTOO_clean_sbu_0, # of connection points: 6
#     Node 1, Type 0, BuildingBlock: PAMTOO_clean_sbu_0, # of connection points: 6
#     Node 2, Type 0, BuildingBlock: PAMTOO_clean_sbu_0, # of connection points: 6
#     Node 3, Type 0, BuildingBlock: PAMTOO_clean_sbu_0, # of connection points: 6
#     Node 4, Type 0, BuildingBlock: PAMTOO_clean_sbu_0, # of connection points: 6
#     Node 5, Type 0, BuildingBlock: PAMTOO_clean_sbu_0, # of connection points: 6
#     Node 6, Type 0, BuildingBlock: PAMTOO_clean_sbu_0, # of connection points: 6
#     Node 7, Type 0, BuildingBlock: PAMTOO_clean_sbu_0, # of connection points: 6
#     Node 8, Type 0, BuildingBlock: PAMTOO_clean_sbu_0, # of connection points: 6
#     Node 9, Type 0, BuildingBlock: PAMTOO_clean_sbu_0, # of connection points: 6
#     Node 10, Type 0, BuildingBlock: PAMTOO_clean_sbu_0, # of connection points: 6
#     Node 11, Type 0, BuildingBlock: PAMTOO_clean_sbu_0, # of connection points: 6
#     Edge 12, Type (0, 0), BuildingBlock: UVAHIK_clean_linker_0, # of connection points: 2
#     Edge 13, Type (0, 0), BuildingBlock: UVAHIK_clean_linker_0, # of connection points: 2
#     Edge 14, Type (0, 0), BuildingBlock: UVAHIK_clean_linker_0, # of connection points: 2
#     Edge 15, Type (0, 0), BuildingBlock: UVAHIK_clean_linker_0, # of connection points: 2
#     Edge 16, Type (0, 0), BuildingBlock: UVAHIK_clean_linker_0, # of connection points: 2
#     Edge 17, Type (0, 0), BuildingBlock: UVAHIK_clean_linker_0, # of connection points: 2
#     Edge 18, Type (0, 0), BuildingBlock: UVAHIK_clean_linker_0, # of connection points: 2
#     Edge 19, Type (0, 0), BuildingBlock: UVAHIK_clean_linker_0, # of connection points: 2
#     Edge 20, Type (0, 0), BuildingBlock: UVAHIK_clean_linker_0, # of connection points: 2
#     Edge 21, Type (0, 0), BuildingBlock: UVAHIK_clean_linker_0, # of connection points: 2
#     Edge 22, Type (0, 0), BuildingBlock: UVAHIK_clean_linker_0, # of connection points: 2
#     Edge 23, Type (0, 0), BuildingBlock: UVAHIK_clean_linker_0, # of connection points: 2
#     Edge 24, Type (0, 0), BuildingBlock: UVAHIK_clean_linker_0, # of connection points: 2
#     Edge 25, Type (0, 0), BuildingBlock: UVAHIK_clean_linker_0, # of connection points: 2
#     Edge 26, Type (0, 0), BuildingBlock: UVAHIK_clean_linker_0, # of connection points: 2
#     Edge 27, Type (0, 0), BuildingBlock: UVAHIK_clean_linker_0, # of connection points: 2
#     Edge 28, Type (0, 0), BuildingBlock: UVAHIK_clean_linker_0, # of connection points: 2
#     Edge 29, Type (0, 0), BuildingBlock: UVAHIK_clean_linker_0, # of connection points: 2
#     Edge 30, Type (0, 0), BuildingBlock: UVAHIK_clean_linker_0, # of connection points: 2
#     Edge 31, Type (0, 0), BuildingBlock: UVAHIK_clean_linker_0, # of connection points: 2
#     Edge 32, Type (0, 0), BuildingBlock: UVAHIK_clean_linker_0, # of connection points: 2
#     Edge 33, Type (0, 0), BuildingBlock: UVAHIK_clean_linker_0, # of connection points: 2
#     Edge 34, Type (0, 0), BuildingBlock: UVAHIK_clean_linker_0, # of connection points: 2
#     Edge 35, Type (0, 0), BuildingBlock: UVAHIK_clean_linker_0, # of connection points: 2
#     Edge 36, Type (0, 0), BuildingBlock: UVAHIK_clean_linker_0, # of connection points: 2
#     Edge 37, Type (0, 0), BuildingBlock: UVAHIK_clean_linker_0, # of connection points: 2
#     Edge 38, Type (0, 0), BuildingBlock: UVAHIK_clean_linker_0, # of connection points: 2
#     Edge 39, Type (0, 0), BuildingBlock: UVAHIK_clean_linker_0, # of connection points: 2
#     Edge 40, Type (0, 0), BuildingBlock: UVAHIK_clean_linker_0, # of connection points: 2
#     Edge 41, Type (0, 0), BuildingBlock: UVAHIK_clean_linker_0, # of connection points: 2
#     Edge 42, Type (0, 0), BuildingBlock: UVAHIK_clean_linker_0, # of connection points: 2
#     Edge 43, Type (0, 0), BuildingBlock: UVAHIK_clean_linker_0, # of connection points: 2
#     Edge 44, Type (0, 0), BuildingBlock: UVAHIK_clean_linker_0, # of connection points: 2
#     Edge 45, Type (0, 0), BuildingBlock: UVAHIK_clean_linker_0, # of connection points: 2
#     Edge 46, Type (0, 0), BuildingBlock: UVAHIK_clean_linker_0, # of connection points: 2
#     Edge 47, Type (0, 0), BuildingBlock: UVAHIK_clean_linker_0, # of connection points: 2
# Relax obj value: 0.083
# Max RMSD: 0.199
# Mean RMSD: 0.199
data_MOF--net-wjd--node1-PAMTOO_clean_sbu_0--edge1-UVAHIK_clean_linker_0
_symmetry_space_group_name_H-M    P1
_symmetry_Int_Tables_number       1
_symmetry_cell_setting            triclinic
loop_
_symmetry_equiv_pos_as_xyz
'x, y, z'
_cell_length_a     49.055233
_cell_length_b     49.087563
_cell_length_c     70.754647
_cell_angle_alpha  89.955458
_cell_angle_beta   89.951223
_cell_angle_gamma 120.05913
loop_
_atom_site_label
_atom_site_type_symbol
_atom_site_fract_x
_atom_site_fract_y
_atom_site_fract_z
_atom_type_partial_charge
Dy0 Dy 0.31676 0.0993 0.13801 0.0
Dy1 Dy 0.36114 0.16571 0.11467 0.0
C2 C 0.31611 0.10087 0.09232 0.0
O3 O 0.36736 0.11158 0.1408 0.0
O4 O 0.38065 0.13371 0.11166 0.0
O5 O 0.30212 0.05053 0.14353 0.0
O6 O 0.28232 0.07383 0.15975 0.0
O7 O 0.37664 0.17567 0.1451 0.0
O8 O 0.33083 0.13782 0.15883 0.0
O9 O 0.31921 0.16733 0.12554 0.0
O10 O 0.28425 0.11436 0.12596 0.0
O11 O 0.36899 0.20794 0.09993 0.0
O12 O 0.40716 0.19837 0.10376 0.0
C13 C 0.3867 0.12132 0.12629 0.0
O14 O 0.31255 0.08492 0.10793 0.0
O15 O 0.33072 0.13195 0.09195 0.0
C16 C 0.24854 0.02078 0.15226 0.0
C17 C 0.18564 0.97253 0.14677 0.0
C18 C 0.20254 0.99361 0.13205 0.0
C19 C 0.23368 0.01762 0.1348 0.0
C20 C 0.232 0.99961 0.16688 0.0
C21 C 0.20081 0.97569 0.16418 0.0
C22 C 0.28054 0.04712 0.15564 0.0
C23 C 0.35799 0.16396 0.15988 0.0
C24 C 0.29015 0.14358 0.12579 0.0
C25 C 0.42087 0.25183 0.10298 0.0
C26 C 0.46757 0.31497 0.11023 0.0
C27 C 0.46018 0.29134 0.12386 0.0
C28 C 0.43699 0.2601 0.1203 0.0
C29 C 0.42743 0.27545 0.08961 0.0
C30 C 0.45047 0.30673 0.09321 0.0
C31 C 0.39912 0.21858 0.09802 0.0
H32 H 0.19144 0.99207 0.11856 0.0
H33 H 0.24599 0.03404 0.12341 0.0
H34 H 0.24308 1.00182 0.18048 0.0
H35 H 0.18857 0.95963 0.17573 0.0
H36 H 0.47258 0.29695 0.13723 0.0
H37 H 0.43224 0.24229 0.13089 0.0
H38 H 0.41535 0.26956 0.07613 0.0
H39 H 0.45571 0.32424 0.08234 0.0
Dy40 Dy 0.83072 0.65611 0.39931 0.0
Dy41 Dy 0.80282 0.69853 0.38016 0.0
C42 C 0.83044 0.66476 0.35494 0.0
O43 O 0.87198 0.70214 0.39135 0.0
O44 O 0.84957 0.73321 0.3927 0.0
O45 O 0.86861 0.64611 0.40153 0.0
O46 O 0.82751 0.62129 0.41947 0.0
O47 O 0.78077 0.68112 0.40828 0.0
O48 O 0.82299 0.68291 0.42257 0.0
O49 O 0.76503 0.64881 0.37397 0.0
O50 O 0.77965 0.62238 0.39506 0.0
O51 O 0.77935 0.72516 0.38442 0.0
O52 O 0.79542 0.72216 0.35645 0.0
C53 C 0.87458 0.72996 0.39259 0.0
O54 O 0.82394 0.64403 0.36847 0.0
O55 O 0.83153 0.69158 0.35825 0.0
C56 C 0.85429 0.59437 0.41032 0.0
C57 C 0.85986 0.54074 0.40316 0.0
C58 C 0.84885 0.55304 0.38902 0.0
C59 C 0.84602 0.5796 0.39258 0.0
C60 C 0.86478 0.58194 0.42451 0.0
C61 C 0.86753 0.5554 0.42099 0.0
C62 C 0.85405 0.62377 0.41395 0.0
C63 C 0.79727 0.68488 0.42354 0.0
C64 C 0.7595 0.62302 0.38305 0.0
C65 C 0.79818 0.76999 0.36525 0.0
C66 C 0.82166 0.83554 0.36441 0.0
C67 C 0.83673 0.82292 0.37528 0.0
C68 C 0.82508 0.79045 0.37569 0.0
C69 C 0.7837 0.78246 0.35391 0.0
C70 C 0.79535 0.81494 0.35345 0.0
C71 C 0.78395 0.73566 0.36713 0.0
H72 H 0.84241 0.54212 0.37521 0.0
H73 H 0.83786 0.5889 0.38143 0.0
H74 H 0.87148 0.59317 0.43823 0.0
H75 H 0.8765 0.54689 0.43213 0.0
H76 H 0.85681 0.83798 0.38403 0.0
H77 H 0.83648 0.78121 0.38462 0.0
H78 H 0.76295 0.76702 0.34573 0.0
H79 H 0.78349 0.82389 0.34467 0.0
Dy80 Dy 0.91513 0.22548 0.12603 0.0
Dy81 Dy 0.84178 0.19108 0.11086 0.0
C82 C 0.89965 0.22071 0.08317 0.0
O83 O 0.90146 0.26242 0.13067 0.0
O84 O 0.85768 0.24225 0.11138 0.0
O85 O 0.96418 0.24866 0.11839 0.0
O86 O 0.95086 0.24073 0.14788 0.0
O87 O 0.83993 0.20176 0.14153 0.0
O88 O 0.88404 0.20032 0.1506 0.0
O89 O 0.8497 0.15288 0.12103 0.0
O90 O 0.90311 0.17656 0.11735 0.0
O91 O 0.79431 0.15182 0.11177 0.0
O92 O 0.80676 0.1891 0.09135 0.0
C93 C 0.87935 0.26513 0.1217 0.0
O94 O 0.91373 0.24104 0.09671 0.0
O95 O 0.87345 0.19435 0.08675 0.0
C96 C 0.99583 0.23804 0.13839 0.0
C97 C 0.0414 0.21898 0.14019 0.0
C98 C 1.01196 0.19959 0.13163 0.0
C99 C 0.9894 0.20902 0.13076 0.0
C100 C 0.02464 0.25697 0.14747 0.0
C101 C 0.0472 0.24752 0.14841 0.0
C102 C 0.97374 0.24978 0.13568 0.0
C103 C 0.85729 0.199 0.15471 0.0
C104 C 0.87538 0.15112 0.11954 0.0
C105 C 0.75425 0.16225 0.10286 0.0
C106 C 0.6951 0.15581 0.11169 0.0
C107 C 0.72164 0.17449 0.12303 0.0
C108 C 0.75096 0.17762 0.11867 0.0
C109 C 0.72808 0.14414 0.09135 0.0
C110 C 0.69882 0.14096 0.09569 0.0
C111 C 0.78413 0.16323 0.09871 0.0
H112 H 1.00674 0.17763 0.12498 0.0
H113 H 0.96729 0.19412 0.12362 0.0
H114 H 0.03 0.27942 0.15346 0.0
H115 H 0.06934 0.26277 0.15542 0.0
H116 H 0.71958 0.18607 0.13553 0.0
H117 H 0.77093 0.19158 0.12779 0.0
H118 H 0.73019 0.13209 0.07909 0.0
H119 H 0.67909 0.12689 0.08645 0.0
Dy120 Dy 0.37155 0.17456 0.40061 0.0
Dy121 Dy 0.33155 0.10337 0.38279 0.0
C122 C 0.3707 0.16183 0.35581 0.0
O123 O 0.32076 0.15945 0.40407 0.0
O124 O 0.3028 0.12682 0.37852 0.0
O125 O 0.37741 0.22101 0.40372 0.0
O126 O 0.4088 0.20897 0.41827 0.0
O127 O 0.31468 0.10108 0.41224 0.0
O128 O 0.36093 0.1399 0.42437 0.0
O129 O 0.37898 0.11022 0.39124 0.0
O130 O 0.40762 0.16412 0.38947 0.0
O131 O 0.31311 0.05335 0.38589 0.0
O132 O 0.30257 0.07162 0.36078 0.0
C133 C 0.29958 0.14495 0.39089 0.0
O134 O 0.37006 0.18038 0.36906 0.0
O135 O 0.36279 0.13255 0.35941 0.0
C136 C 0.42971 0.26184 0.40824 0.0
C137 C 0.48065 0.32109 0.39758 0.0
C138 C 0.47845 0.29311 0.39076 0.0
C139 C 0.45312 0.26373 0.39598 0.0
C140 C 0.43173 0.28962 0.41499 0.0
C141 C 0.45691 0.31897 0.40971 0.0
C142 C 0.40278 0.23128 0.41393 0.0
C143 C 0.33376 0.11381 0.42656 0.0
C144 C 0.4062 0.13674 0.3902 0.0
C145 C 0.26254 0.02332 0.37273 0.0
C146 C 0.19794 0.97857 0.37678 0.0
C147 C 0.21074 0.0084 0.38529 0.0
C148 C 0.24276 0.03056 0.38329 0.0
C149 C 0.24996 0.99376 0.36416 0.0
C150 C 0.21796 0.97157 0.36615 0.0
C151 C 0.29618 0.04656 0.37055 0.0
H152 H 0.49614 0.29393 0.38124 0.0
H153 H 0.45181 0.24253 0.39045 0.0
H154 H 0.41384 0.28862 0.42442 0.0
H155 H 0.45806 0.34 0.4154 0.0
H156 H 0.19612 0.01446 0.39373 0.0
H157 H 0.25214 0.05334 0.39002 0.0
H158 H 0.26488 0.98786 0.35588 0.0
H159 H 0.20883 0.94903 0.35918 0.0
Dy160 Dy 0.78831 0.69504 0.13197 0.0
Dy161 Dy 0.81912 0.65646 0.11149 0.0
C162 C 0.7964 0.69689 0.08779 0.0
O163 O 0.74737 0.64866 0.12259 0.0
O164 O 0.77237 0.61971 0.12237 0.0
O165 O 0.75679 0.71377 0.13083 0.0
O166 O 0.78698 0.72303 0.15513 0.0
O167 O 0.8284 0.65775 0.14278 0.0
O168 O 0.78641 0.66157 0.15381 0.0
O169 O 0.85496 0.70741 0.10908 0.0
O170 O 0.84066 0.72315 0.1358 0.0
O171 O 0.85963 0.6508 0.10704 0.0
O172 O 0.81565 0.62003 0.0928 0.0
C173 C 0.74646 0.62135 0.12252 0.0
O174 O 0.80227 0.7142 0.10293 0.0
O175 O 0.79606 0.66992 0.08854 0.0
C176 C 0.77946 0.76417 0.14447 0.0
C177 C 0.80117 0.82927 0.14114 0.0
C178 C 0.81487 0.81517 0.13034 0.0
C179 C 0.80413 0.78294 0.13201 0.0
C180 C 0.76583 0.77804 0.15535 0.0
C181 C 0.77657 0.81029 0.15372 0.0
C182 C 0.7682 0.73027 0.14622 0.0
C183 C 0.80895 0.655 0.15646 0.0
C184 C 0.86183 0.72748 0.12297 0.0
C185 C 0.84878 0.59917 0.10035 0.0
C186 C 0.85819 0.5476 0.10689 0.0
C187 C 0.8328 0.54876 0.11541 0.0
C188 C 0.82815 0.57434 0.11218 0.0
C189 C 0.87433 0.59836 0.09211 0.0
C190 C 0.87905 0.57292 0.09535 0.0
C191 C 0.84428 0.62614 0.09631 0.0
H192 H 0.83356 0.82891 0.12037 0.0
H193 H 0.815 0.77261 0.1235 0.0
H194 H 0.74691 0.76395 0.16514 0.0
H195 H 0.76578 0.8204 0.16248 0.0
H196 H 0.81612 0.52959 0.12425 0.0
H197 H 0.80833 0.5746 0.11877 0.0
H198 H 0.89067 0.61743 0.08306 0.0
H199 H 0.89916 0.57318 0.08884 0.0
Dy200 Dy 0.85764 0.19524 0.39692 0.0
Dy201 Dy 0.92763 0.22702 0.37651 0.0
C202 C 0.86438 0.20022 0.35232 0.0
O203 O 0.86433 0.15631 0.3864 0.0
O204 O 0.91795 0.18035 0.38783 0.0
O205 O 0.81024 0.15604 0.39942 0.0
O206 O 0.82582 0.19627 0.41781 0.0
O207 O 0.9355 0.24058 0.4068 0.0
O208 O 0.89163 0.19871 0.41955 0.0
O209 O 0.91198 0.26261 0.37262 0.0
O210 O 0.87809 0.24717 0.39793 0.0
O211 O 0.97691 0.26268 0.375 0.0
O212 O 0.95714 0.22517 0.35443 0.0
C213 C 0.89019 0.15473 0.38697 0.0
O214 O 0.84984 0.20423 0.36676 0.0
O215 O 0.89157 0.20153 0.35435 0.0
C216 C 0.7716 0.1676 0.40994 0.0
C217 C 0.7114 0.16085 0.40474 0.0
C218 C 0.7362 0.17912 0.39211 0.0
C219 C 0.76604 0.18241 0.39467 0.0
C220 C 0.74714 0.14971 0.42266 0.0
C221 C 0.71735 0.14636 0.42011 0.0
C222 C 0.80221 0.16933 0.41249 0.0
C223 C 0.92059 0.22253 0.42126 0.0
C224 C 0.8954 0.26814 0.38511 0.0
C225 C 1.00861 0.24192 0.36462 0.0
C226 C 0.05576 0.22565 0.36971 0.0
C227 C 0.03437 0.22091 0.38434 0.0
C228 C 1.0109 0.22881 0.38178 0.0
C229 C 0.03004 0.24699 0.35007 0.0
C230 C 0.05341 0.2389 0.35257 0.0
C231 C 0.9828 0.24846 0.36139 0.0
H232 H 0.73238 0.19038 0.38004 0.0
H233 H 0.78465 0.19618 0.38463 0.0
H234 H 0.75102 0.1381 0.43453 0.0
H235 H 0.69902 0.13258 0.43028 0.0
H236 H 0.0353 0.21038 0.3976 0.0
H237 H 0.99425 0.22428 0.3931 0.0
H238 H 0.02848 0.25686 0.33669 0.0
H239 H 0.06971 0.24312 0.34111 0.0
Dy240 Dy 0.17201 0.36022 0.61446 0.0
Dy241 Dy 0.10492 0.31733 0.63715 0.0
C242 C 0.16956 0.35799 0.65955 0.0
O243 O 0.17178 0.31757 0.62563 0.0
O244 O 0.11864 0.28385 0.62493 0.0
O245 O 0.21551 0.36687 0.60212 0.0
O246 O 0.204 0.40393 0.60063 0.0
O247 O 0.09192 0.31733 0.60705 0.0
O248 O 0.13811 0.32883 0.5921 0.0
O249 O 0.11799 0.36797 0.6406 0.0
O250 O 0.14245 0.38271 0.61202 0.0
O251 O 0.05587 0.30261 0.64186 0.0
O252 O 0.07865 0.28318 0.65887 0.0
C253 C 0.14756 0.28883 0.62521 0.0
O254 O 0.18218 0.37638 0.64474 0.0
O255 O 0.14297 0.33122 0.65838 0.0
C256 C 0.25801 0.41962 0.602 0.0
C257 C 0.32051 0.46842 0.60857 0.0
C258 C 0.29622 0.46294 0.62133 0.0
C259 C 0.26528 0.43872 0.61811 0.0
C260 C 0.28225 0.42446 0.58952 0.0
C261 C 0.3132 0.44856 0.59277 0.0
C262 C 0.22519 0.39595 0.59735 0.0
C263 C 0.10751 0.31812 0.59178 0.0
C264 C 0.12901 0.38802 0.62645 0.0
C265 C 0.02587 0.24919 0.65087 0.0
C266 C 0.97826 0.186 0.64557 0.0
C267 C 0.99915 0.20301 0.63079 0.0
C268 C 0.02283 0.2343 0.63344 0.0
C269 C 1.00486 0.23255 0.66555 0.0
C270 C 0.98125 0.20122 0.66294 0.0
C271 C 0.05206 0.28127 0.65424 0.0
H272 H 0.3011 0.4775 0.63377 0.0
H273 H 0.24695 0.4353 0.628 0.0
H274 H 0.2771 0.41005 0.57697 0.0
H275 H 0.33121 0.45227 0.58256 0.0
H276 H 0.99772 0.19189 0.61733 0.0
H277 H 0.03913 0.2467 0.62201 0.0
H278 H 1.00699 0.24365 0.67912 0.0
H279 H 0.96533 0.18889 0.67453 0.0
Dy280 Dy 0.22529 0.91625 0.87865 0.0
Dy281 Dy 0.19677 0.8467 0.89921 0.0
C282 C 0.22313 0.90977 0.92352 0.0
O283 O 0.26268 0.90298 0.87441 0.0
O284 O 0.24895 0.86912 0.89965 0.0
O285 O 0.25758 0.96652 0.87793 0.0
O286 O 0.22309 0.94435 0.85583 0.0
O287 O 0.20532 0.83971 0.86884 0.0
O288 O 0.1991 0.87956 0.85692 0.0
O289 O 0.15626 0.85148 0.88947 0.0
O290 O 0.17856 0.90491 0.89078 0.0
O291 O 0.15756 0.79946 0.90294 0.0
O292 O 0.20093 0.81433 0.91818 0.0
C293 C 0.26925 0.88677 0.88663 0.0
O294 O 0.24003 0.92485 0.9087 0.0
O295 O 0.20063 0.88006 0.92238 0.0
C296 C 0.23404 0.99445 0.86569 0.0
C297 C 0.21402 0.03905 0.86936 0.0
C298 C 0.2002 0.01145 0.88038 0.0
C299 C 0.21016 0.98939 0.87858 0.0
C300 C 0.2479 0.02186 0.85468 0.0
C301 C 0.23803 0.04399 0.8565 0.0
C302 C 0.24391 0.97086 0.86339 0.0
C303 C 0.19957 0.85332 0.85461 0.0
C304 C 0.15356 0.87668 0.89036 0.0
C305 C 0.17092 0.76044 0.90923 0.0
C306 C 0.16444 0.70136 0.90018 0.0
C307 C 0.19248 0.72948 0.89591 0.0
C308 C 0.19564 0.75877 0.90031 0.0
C309 C 0.143 0.73248 0.9135 0.0
C310 C 0.13974 0.70326 0.909 0.0
C311 C 0.17324 0.79085 0.91386 0.0
H312 H 0.18196 1.00707 0.89057 0.0
H313 H 0.19921 0.96836 0.88723 0.0
H314 H 0.26623 0.02605 0.84459 0.0
H315 H 0.2489 0.06477 0.84762 0.0
H316 H 0.21182 0.72884 0.88895 0.0
H317 H 0.21731 0.78005 0.89669 0.0
H318 H 0.12362 0.73325 0.92034 0.0
H319 H 0.11801 0.6821 0.91269 0.0
Dy320 Dy 0.66335 0.82076 0.60965 0.0
Dy321 Dy 0.70128 0.7882 0.629 0.0
C322 C 0.66077 0.80753 0.65439 0.0
O323 O 0.71446 0.85607 0.60759 0.0
O324 O 0.72997 0.8403 0.6338 0.0
O325 O 0.65785 0.86149 0.60621 0.0
O326 O 0.62792 0.81881 0.59062 0.0
O327 O 0.72068 0.80333 0.60014 0.0
O328 O 0.67638 0.79801 0.58625 0.0
O329 O 0.65441 0.74825 0.61928 0.0
O330 O 0.62599 0.77382 0.61969 0.0
O331 O 0.71769 0.75488 0.62738 0.0
O332 O 0.72973 0.78582 0.6516 0.0
C333 C 0.73447 0.86212 0.62141 0.0
O334 O 0.6633 0.82771 0.64123 0.0
O335 O 0.66786 0.78554 0.65101 0.0
C336 C 0.60661 0.8511 0.59883 0.0
C337 C 0.5551 0.86028 0.60613 0.0
C338 C 0.56139 0.84108 0.61806 0.0
C339 C 0.58697 0.83657 0.61446 0.0
C340 C 0.60042 0.87013 0.58689 0.0
C341 C 0.57495 0.87469 0.59048 0.0
C342 C 0.63389 0.84714 0.59483 0.0
C343 C 0.70322 0.79808 0.58513 0.0
C344 C 0.62727 0.74774 0.6194 0.0
C345 C 0.7684 0.77457 0.64057 0.0
C346 C 0.83264 0.79236 0.63738 0.0
C347 C 0.817 0.79747 0.62233 0.0
C348 C 0.78525 0.78882 0.62394 0.0
C349 C 0.78387 0.76945 0.65561 0.0
C350 C 0.81572 0.77831 0.65407 0.0
C351 C 0.73505 0.76581 0.64252 0.0
H352 H 0.54681 0.82988 0.63034 0.0
H353 H 0.5915 0.82188 0.62388 0.0
H354 H 0.61533 0.8815 0.57474 0.0
H355 H 0.57058 0.88921 0.58082 0.0
H356 H 0.82945 0.80861 0.6094 0.0
H357 H 0.7739 0.79339 0.61223 0.0
H358 H 0.77132 0.75863 0.66858 0.0
H359 H 0.82701 0.77382 0.66585 0.0
Dy360 Dy 0.10287 0.32165 0.8784 0.0
Dy361 Dy 0.17206 0.36016 0.89938 0.0
C362 C 0.10841 0.32578 0.92292 0.0
O363 O 0.11779 0.37254 0.8738 0.0
O364 O 0.15356 0.39331 0.89817 0.0
O365 O 0.05312 0.30602 0.87721 0.0
O366 O 0.07421 0.29094 0.85588 0.0
O367 O 0.18142 0.37703 0.86927 0.0
O368 O 0.13941 0.33345 0.8562 0.0
O369 O 0.1666 0.31552 0.88801 0.0
O370 O 0.1132 0.28519 0.89003 0.0
O371 O 0.21855 0.36687 0.90354 0.0
O372 O 0.20343 0.39403 0.92004 0.0
C373 C 0.13591 0.39598 0.88517 0.0
O374 O 0.09464 0.32984 0.90825 0.0
O375 O 0.13685 0.32955 0.92157 0.0
C376 C 0.02304 0.25418 0.86564 0.0
C377 C 0.97673 0.19015 0.86957 0.0
C378 C 0.99888 0.20579 0.88401 0.0
C379 C 0.02192 0.23748 0.88202 0.0
C380 C 1.00096 0.23878 0.85126 0.0
C381 C 0.97801 0.20702 0.85319 0.0
C382 C 0.04808 0.28708 0.86307 0.0
C383 C 0.16695 0.35916 0.85459 0.0
C384 C 0.14114 0.28779 0.8889 0.0
C385 C 0.25797 0.41857 0.91233 0.0
C386 C 0.31893 0.47166 0.90814 0.0
C387 C 0.30606 0.4486 0.89393 0.0
C388 C 0.27587 0.42239 0.89596 0.0
C389 C 0.27069 0.44172 0.92644 0.0
C390 C 0.30077 0.46804 0.92435 0.0
C391 C 0.22691 0.39 0.91541 0.0
H392 H 0.99877 0.19335 0.89669 0.0
H393 H 0.03908 0.24888 0.89318 0.0
H394 H 1.00162 0.25127 0.83848 0.0
H395 H 0.9611 0.19573 0.84191 0.0
H396 H 0.31929 0.45089 0.88118 0.0
H397 H 0.26675 0.40501 0.88478 0.0
H398 H 0.25751 0.43922 0.93925 0.0
H399 H 0.31012 0.48521 0.93564 0.0
Dy400 Dy 0.202 0.84414 0.61277 0.0
Dy401 Dy 0.23155 0.91491 0.63114 0.0
C402 C 0.21267 0.85601 0.65765 0.0
O403 O 0.1657 0.8584 0.60917 0.0
O404 O 0.17914 0.89053 0.63492 0.0
O405 O 0.16221 0.79734 0.60917 0.0
O406 O 0.20605 0.81088 0.59462 0.0
O407 O 0.21766 0.91753 0.6016 0.0
O408 O 0.22654 0.8797 0.58946 0.0
O409 O 0.2729 0.90922 0.62286 0.0
O410 O 0.24863 0.85531 0.62413 0.0
O411 O 0.2628 0.96511 0.62858 0.0
O412 O 0.23307 0.94588 0.6533 0.0
C413 C 0.15828 0.87236 0.62233 0.0
O414 O 0.19391 0.83747 0.64424 0.0
O415 O 0.23376 0.88551 0.65429 0.0
C416 C 0.17393 0.75711 0.60274 0.0
C417 C 0.16511 0.69665 0.61033 0.0
C418 C 0.17981 0.72105 0.62371 0.0
C419 C 0.18423 0.75107 0.61992 0.0
C420 C 0.15919 0.73291 0.58947 0.0
C421 C 0.15479 0.70302 0.5932 0.0
C422 C 0.17764 0.78813 0.59842 0.0
C423 C 0.22498 0.9055 0.58733 0.0
C424 C 0.27427 0.88306 0.62371 0.0
C425 C 0.24206 0.99481 0.64201 0.0
C426 C 0.22317 0.04031 0.63848 0.0
C427 C 0.20628 0.011 0.62933 0.0
C428 C 0.21567 0.98846 0.63107 0.0
C429 C 0.25887 0.02382 0.65123 0.0
C430 C 0.24953 0.04636 0.6495 0.0
C431 C 0.25213 0.9713 0.64392 0.0
H432 H 0.18827 0.71706 0.63697 0.0
H433 H 0.19563 0.76953 0.63037 0.0
H434 H 0.15088 0.73709 0.57619 0.0
H435 H 0.14288 0.68474 0.58272 0.0
H436 H 0.1861 1.00566 0.62059 0.0
H437 H 0.20241 0.96612 0.62384 0.0
H438 H 0.2792 0.02903 0.6598 0.0
H439 H 0.26279 0.06844 0.65698 0.0
Dy440 Dy 0.69781 0.79232 0.88019 0.0
Dy441 Dy 0.65915 0.82446 0.89883 0.0
C442 C 0.69881 0.80234 0.92408 0.0
O443 O 0.6516 0.75195 0.89042 0.0
O444 O 0.62231 0.77665 0.88996 0.0
O445 O 0.71631 0.76072 0.88231 0.0
O446 O 0.72548 0.78956 0.8573 0.0
O447 O 0.65971 0.83077 0.86715 0.0
O448 O 0.66346 0.78785 0.85838 0.0
O449 O 0.71009 0.85967 0.90163 0.0
O450 O 0.72627 0.84454 0.87546 0.0
O451 O 0.65264 0.86468 0.90106 0.0
O452 O 0.62358 0.82286 0.91771 0.0
C453 C 0.62422 0.75096 0.8909 0.0
O454 O 0.71647 0.8072 0.90918 0.0
O455 O 0.6721 0.8025 0.92275 0.0
C456 C 0.76628 0.7818 0.86827 0.0
C457 C 0.83107 0.80224 0.87152 0.0
C458 C 0.81802 0.81822 0.88101 0.0
C459 C 0.78591 0.80808 0.8794 0.0
C460 C 0.77912 0.76591 0.85867 0.0
C461 C 0.81123 0.77602 0.86026 0.0
C462 C 0.7325 0.77101 0.86669 0.0
C463 C 0.65673 0.80989 0.85441 0.0
C464 C 0.73056 0.86602 0.88803 0.0
C465 C 0.60084 0.85338 0.9083 0.0
C466 C 0.54807 0.8605 0.90097 0.0
C467 C 0.56342 0.85441 0.88612 0.0
C468 C 0.58953 0.85078 0.88976 0.0
C469 C 0.58561 0.85939 0.92309 0.0
C470 C 0.55953 0.86291 0.91949 0.0
C471 C 0.62874 0.85057 0.91258 0.0
H472 H 0.83249 0.83824 0.88996 0.0
H473 H 0.77632 0.82064 0.88693 0.0
H474 H 0.76432 0.74568 0.84994 0.0
H475 H 0.82058 0.76345 0.85254 0.0
H476 H 0.55504 0.85211 0.87173 0.0
H477 H 0.60092 0.84602 0.87813 0.0
H478 H 0.59405 0.86161 0.93747 0.0
H479 H 0.54864 0.86804 0.93123 0.0
C480 C 0.09805 0.23326 0.13653 0.0
C481 C 0.06644 0.21019 0.13977 0.0
C482 C 0.12152 0.2251 0.13553 0.0
C483 C 0.13401 0.15821 0.12621 0.0
H484 H 0.21502 0.2119 0.14973 0.0
C485 C 0.23249 0.1255 0.12929 0.0
C486 C 0.26369 0.15006 0.12675 0.0
C487 C 0.20784 0.13195 0.13103 0.0
C488 C 0.19268 0.19682 0.14288 0.0
H489 H 0.03495 0.16035 0.14477 0.0
H490 H 0.07597 0.1461 0.1429 0.0
H491 H 0.17325 0.22469 0.15282 0.0
H492 H 0.29323 0.20065 0.12359 0.0
H493 H 0.25035 0.21179 0.12628 0.0
H494 H 0.15358 0.1305 0.11611 0.0
C495 C 0.08247 0.17051 0.14095 0.0
C496 C 0.16869 0.20415 0.14469 0.0
C497 C 0.05896 0.1787 0.14202 0.0
C498 C 0.26955 0.18114 0.12567 0.0
C499 C 0.24494 0.18757 0.12734 0.0
C500 C 0.15807 0.15092 0.12435 0.0
C501 C 0.11404 0.19362 0.13767 0.0
C502 C 0.13913 0.18507 0.13628 0.0
C503 C 0.21379 0.16312 0.13022 0.0
C504 C 0.1878 0.17028 0.13255 0.0
H505 H 0.10465 0.25764 0.13432 0.0
H506 H 0.1455 0.24342 0.13267 0.0
H507 H 0.11164 0.14322 0.11937 0.0
H508 H 0.22712 0.10128 0.13025 0.0
H509 H 0.1842 0.11256 0.1334 0.0
C510 C 0.14068 0.96348 0.37823 0.0
C511 C 0.16394 0.95473 0.37904 0.0
C512 C 0.10871 0.9408 0.37994 0.0
C513 C 0.05435 0.85531 0.37449 0.0
H514 H 0.99648 0.86967 0.40446 0.0
C515 C 0.93292 0.75366 0.3945 0.0
C516 C 0.90674 0.75793 0.39277 0.0
C517 C 0.96348 0.77913 0.39312 0.0
C518 C 1.01228 0.86547 0.39586 0.0
H519 H 0.17176 0.91535 0.38299 0.0
H520 H 0.11626 0.87597 0.38593 0.0
H521 H 0.05158 0.91143 0.40142 0.0
H522 H 0.89237 0.79276 0.3889 0.0
H523 H 0.94617 0.83757 0.38642 0.0
H524 H 0.01538 0.80946 0.36899 0.0
C525 C 0.12262 0.90025 0.38358 0.0
C526 C 0.04384 0.88937 0.39412 0.0
C527 C 0.15448 0.92286 0.38189 0.0
C528 C 0.91198 0.78863 0.39028 0.0
C529 C 0.94279 0.8143 0.38889 0.0
C530 C 0.02296 0.83154 0.37624 0.0
C531 C 0.09929 0.90886 0.38246 0.0
C532 C 0.06535 0.88436 0.38364 0.0
C533 C 0.96885 0.80967 0.38992 0.0
C534 C 1.00165 0.83609 0.38719 0.0
H535 H 0.14711 0.98777 0.37586 0.0
H536 H 0.09135 0.9482 0.37884 0.0
H537 H 0.07003 0.8509 0.36592 0.0
H538 H 0.92991 0.73046 0.39667 0.0
H539 H 0.98299 0.77482 0.39444 0.0
C540 C 0.89841 0.11505 0.12151 0.0
C541 C 0.87216 0.11943 0.12114 0.0
C542 C 0.89432 0.08479 0.12405 0.0
C543 C 0.83658 1.00692 0.14355 0.0
H544 H 0.87777 0.97332 0.11233 0.0
C545 C 0.79038 0.87419 0.1394 0.0
C546 C 0.81215 0.86352 0.13916 0.0
C547 C 0.80048 0.90623 0.13774 0.0
C548 C 0.8664 0.9825 0.12134 0.0
H549 H 0.821 0.09506 0.12252 0.0
H550 H 0.81415 0.04318 0.12682 0.0
H551 H 0.89131 0.02835 0.10852 0.0
H552 H 0.86184 0.8785 0.13696 0.0
H553 H 0.87946 0.93455 0.13397 0.0
H554 H 0.81141 0.96132 0.15624 0.0
C555 C 0.83788 0.06296 0.12551 0.0
C556 C 0.87419 0.01402 0.11916 0.0
C557 C 0.84189 0.09287 0.12293 0.0
C558 C 0.84436 0.88581 0.137 0.0
C559 C 0.85449 0.91796 0.1353 0.0
C560 C 0.82884 0.9756 0.14573 0.0
C561 C 0.86396 0.0585 0.12639 0.0
C562 C 0.85879 0.02634 0.12996 0.0
C563 C 0.83267 0.92858 0.13579 0.0
C564 C 0.8431 0.96274 0.13438 0.0
H565 H 0.92203 0.13495 0.12015 0.0
H566 H 0.91489 0.08207 0.12465 0.0
H567 H 0.82479 0.01588 0.15239 0.0
H568 H 0.76536 0.8577 0.14062 0.0
H569 H 0.78295 0.91348 0.13776 0.0
C570 C 0.2672 0.16724 0.40372 0.0
C571 C 0.27241 0.15026 0.38958 0.0
C572 C 0.24275 0.17391 0.40205 0.0
C573 C 0.16856 0.15132 0.37595 0.0
H574 H 0.18539 0.23394 0.39179 0.0
C575 C 0.08626 0.20053 0.35775 0.0
C576 C 0.08013 0.21637 0.37222 0.0
C577 C 0.109 0.19159 0.36015 0.0
C578 C 0.18019 0.21066 0.38748 0.0
H579 H 0.25554 0.12647 0.36269 0.0
H580 H 0.21326 0.13863 0.35958 0.0
H581 H 0.22598 0.21962 0.39545 0.0
H582 H 0.09332 0.23545 0.40051 0.0
H583 H 0.133 0.2198 0.40471 0.0
H584 H 0.12288 0.14268 0.36769 0.0
C585 C 0.22778 0.1464 0.37214 0.0
C586 C 0.20345 0.20238 0.38962 0.0
C587 C 0.25215 0.13955 0.37388 0.0
C588 C 0.09732 0.22309 0.38914 0.0
C589 C 0.12024 0.21437 0.39148 0.0
C590 C 0.14536 0.1597 0.3737 0.0
C591 C 0.22297 0.16397 0.38611 0.0
C592 C 0.19796 0.17258 0.38391 0.0
C593 C 0.12634 0.1985 0.37702 0.0
C594 C 0.1509 0.18946 0.37946 0.0
H595 H 0.28217 0.17564 0.41609 0.0
H596 H 0.23938 0.18691 0.41328 0.0
H597 H 0.16329 0.12801 0.37165 0.0
H598 H 0.07319 0.19471 0.34462 0.0
H599 H 0.11332 0.17963 0.34868 0.0
C600 C 0.14212 0.9303 0.12728 0.0
C601 C 0.15212 0.94777 0.14412 0.0
C602 C 0.11055 0.90717 0.1248 0.0
C603 C 0.03691 0.85691 0.15163 0.0
H604 H 0.99739 0.84609 0.10264 0.0
C605 C 0.90332 0.77431 0.14059 0.0
C606 C 0.89434 0.75454 0.12468 0.0
C607 C 0.93444 0.79873 0.14272 0.0
C608 C 1.00816 0.84866 0.11637 0.0
H609 H 0.13661 0.95506 0.17139 0.0
H610 H 0.08158 0.91501 0.16701 0.0
H611 H 0.0523 0.88684 0.10688 0.0
H612 H 0.911 0.74548 0.09831 0.0
H613 H 0.9652 0.78808 0.10203 0.0
H614 H 0.99269 0.81883 0.16111 0.0
C615 C 0.09821 0.91865 0.15586 0.0
C616 C 0.03968 0.87198 0.1188 0.0
C617 C 0.12979 0.94165 0.15838 0.0
C618 C 0.91707 0.76022 0.11075 0.0
C619 C 0.94813 0.78476 0.11283 0.0
C620 C 1.00537 0.83372 0.14921 0.0
C621 C 0.08816 0.90105 0.13905 0.0
C622 C 0.05451 0.87636 0.13645 0.0
C623 C 0.95727 0.80409 0.12893 0.0
C624 C 0.99064 0.82926 0.13155 0.0
H625 H 0.15881 0.93419 0.11612 0.0
H626 H 0.1038 0.89376 0.1118 0.0
H627 H 0.04765 0.8592 0.16533 0.0
H628 H 0.88644 0.77068 0.15158 0.0
H629 H 0.94063 0.81346 0.15517 0.0
C630 C 0.80991 0.87969 0.36604 0.0
C631 C 0.83222 0.86974 0.3653 0.0
C632 C 0.81945 0.9116 0.36744 0.0
C633 C 0.88554 0.98848 0.38222 0.0
H634 H 0.83899 0.01999 0.35436 0.0
C635 C 0.91392 0.11963 0.38354 0.0
C636 C 0.88734 0.12326 0.38538 0.0
C637 C 0.91028 0.08968 0.38064 0.0
C638 C 0.85216 0.01153 0.3623 0.0
H639 H 0.88226 0.8858 0.36532 0.0
H640 H 0.89895 0.94172 0.36781 0.0
H641 H 0.827 0.96602 0.34959 0.0
H642 H 0.83618 0.098 0.38636 0.0
H643 H 0.83005 0.04643 0.38142 0.0
H644 H 0.91046 0.03422 0.39506 0.0
C645 C 0.87401 0.92465 0.36746 0.0
C646 C 0.84525 0.98057 0.35959 0.0
C647 C 0.86443 0.89262 0.36602 0.0
C648 C 0.85723 0.09628 0.38481 0.0
C649 C 0.85365 0.06662 0.38186 0.0
C650 C 0.89253 0.01963 0.38491 0.0
C651 C 0.8516 0.9345 0.36815 0.0
C652 C 0.86131 0.9684 0.36982 0.0
C653 C 0.88003 0.06296 0.37941 0.0
C654 C 0.87536 0.03121 0.3753 0.0
H655 H 0.78492 0.86275 0.36598 0.0
H656 H 0.80153 0.91827 0.36836 0.0
H657 H 0.89826 0.97979 0.39039 0.0
H658 H 0.93745 0.13993 0.38393 0.0
H659 H 0.93106 0.08754 0.37883 0.0
C660 C 0.23648 0.09656 0.63455 0.0
C661 C 0.21358 0.0646 0.63652 0.0
C662 C 0.22774 0.11956 0.6332 0.0
C663 C 0.16108 0.13198 0.62197 0.0
H664 H 0.21114 0.2099 0.64938 0.0
C665 C 0.12818 0.23063 0.62703 0.0
C666 C 0.15326 0.26184 0.62573 0.0
C667 C 0.13404 0.2055 0.62826 0.0
C668 C 0.19708 0.18844 0.64147 0.0
H669 H 0.16335 0.03184 0.63847 0.0
H670 H 0.14808 0.07207 0.63605 0.0
H671 H 0.22406 0.16821 0.65163 0.0
H672 H 0.20417 0.2909 0.62423 0.0
H673 H 0.21426 0.24734 0.62614 0.0
H674 H 0.13417 0.15245 0.61176 0.0
C675 C 0.17284 0.07925 0.6354 0.0
C676 C 0.20451 0.1645 0.64276 0.0
C677 C 0.18161 0.05619 0.63678 0.0
C678 C 0.18424 0.26724 0.62537 0.0
C679 C 0.19007 0.24222 0.62658 0.0
C680 C 0.15364 0.15603 0.62066 0.0
C681 C 0.19584 0.11126 0.63376 0.0
C682 C 0.18686 0.1361 0.63287 0.0
C683 C 0.16511 0.21105 0.62825 0.0
C684 C 0.17181 0.18472 0.63022 0.0
H685 H 0.26127 0.10385 0.63389 0.0
H686 H 0.24605 0.14391 0.63154 0.0
H687 H 0.14713 0.11049 0.61406 0.0
H688 H 0.10402 0.22561 0.62736 0.0
H689 H 0.11427 0.18181 0.62964 0.0
C690 C 0.11659 0.89834 0.88771 0.0
C691 C 0.12147 0.87257 0.88971 0.0
C692 C 0.08598 0.89347 0.88574 0.0
C693 C 1.00677 0.83213 0.8705 0.0
H694 H 0.97627 0.88025 0.89755 0.0
C695 C 0.87483 0.79017 0.87531 0.0
C696 C 0.86512 0.81255 0.87351 0.0
C697 C 0.90673 0.79962 0.87698 0.0
C698 C 0.98456 0.86687 0.88971 0.0
H699 H 0.09785 0.82161 0.89201 0.0
H700 H 0.0451 0.81334 0.88872 0.0
H701 H 0.03125 0.89355 0.90113 0.0
H702 H 0.88152 0.86257 0.87208 0.0
H703 H 0.93734 0.87909 0.87503 0.0
H704 H 0.96035 0.80535 0.85913 0.0
C705 C 0.06477 0.83723 0.88828 0.0
C706 C 0.01604 0.8745 0.89176 0.0
C707 C 0.09512 0.84204 0.89027 0.0
C708 C 0.88816 0.84471 0.87364 0.0
C709 C 0.92015 0.85419 0.87533 0.0
C710 C 0.97547 0.82456 0.86843 0.0
C711 C 0.0598 0.86276 0.88565 0.0
C712 C 0.02729 0.85678 0.88245 0.0
C713 C 0.92982 0.83173 0.87688 0.0
C714 C 0.96378 0.84143 0.87826 0.0
H715 H 0.13637 0.92215 0.88723 0.0
H716 H 0.08288 0.91362 0.88373 0.0
H717 H 0.01489 0.81848 0.86277 0.0
H718 H 0.85772 0.76524 0.87567 0.0
H719 H 0.91327 0.7817 0.87856 0.0
C720 C 0.78125 0.90302 0.63944 0.0
C721 C 0.76177 0.89442 0.6234 0.0
C722 C 0.80587 0.93402 0.64174 0.0
C723 C 0.85654 1.00785 0.61561 0.0
H724 H 0.86645 0.04734 0.6645 0.0
C725 C 0.93642 0.14192 0.62623 0.0
C726 C 0.95391 0.15232 0.64304 0.0
C727 C 0.9137 0.1102 0.62384 0.0
C728 C 0.86434 0.03659 0.65082 0.0
H729 H 0.7534 0.91161 0.59701 0.0
H730 H 0.79625 0.9655 0.60105 0.0
H731 H 0.82635 0.99228 0.66027 0.0
H732 H 0.96166 0.13739 0.67037 0.0
H733 H 0.92228 0.08209 0.66617 0.0
H734 H 0.89455 0.05208 0.60613 0.0
C735 C 0.79261 0.94827 0.6118 0.0
C736 C 0.84131 1.005 0.6484 0.0
C737 C 0.76791 0.91737 0.60955 0.0
C738 C 0.94822 0.13024 0.65738 0.0
C739 C 0.92561 0.09851 0.65496 0.0
C740 C 0.87967 0.03941 0.61804 0.0
C741 C 0.81169 0.95705 0.62801 0.0
C742 C 0.83702 0.9903 0.63074 0.0
C743 C 0.90801 0.08806 0.63817 0.0
C744 C 0.88376 0.05426 0.63565 0.0
H745 H 0.77722 0.88595 0.65037 0.0
H746 H 0.82038 0.93995 0.65429 0.0
H747 H 0.85412 0.9971 0.60189 0.0
H748 H 0.93996 0.1584 0.615 0.0
H749 H 0.90024 0.10313 0.61085 0.0
C750 C 0.11857 0.22887 0.88683 0.0
C751 C 0.14471 0.25954 0.8876 0.0
C752 C 0.1229 0.20283 0.88458 0.0
C753 C 0.18156 0.18311 0.8665 0.0
H754 H 0.13842 0.10773 0.89721 0.0
C755 C 0.22579 0.09503 0.8711 0.0
C756 C 0.2036 0.06269 0.87129 0.0
C757 C 0.21616 0.11733 0.87265 0.0
C758 C 0.15035 0.12845 0.88834 0.0
H759 H 0.19588 0.28665 0.8872 0.0
H760 H 0.20319 0.24175 0.88337 0.0
H761 H 0.12517 0.14943 0.90063 0.0
H762 H 0.15374 0.02848 0.87327 0.0
H763 H 0.13691 0.06751 0.87596 0.0
H764 H 0.20688 0.16256 0.85427 0.0
C765 C 0.17938 0.23768 0.88418 0.0
C766 C 0.14274 0.1523 0.8903 0.0
C767 C 0.17512 0.26348 0.88649 0.0
C768 C 0.17149 0.05321 0.87328 0.0
C769 C 0.16183 0.07557 0.87482 0.0
C770 C 0.18909 0.15936 0.86451 0.0
C771 C 0.15341 0.20709 0.88293 0.0
C772 C 0.15878 0.18019 0.87968 0.0
C773 C 0.18405 0.10793 0.87439 0.0
C774 C 0.17409 0.132 0.87567 0.0
H775 H 0.09484 0.22501 0.88766 0.0
H776 H 0.10242 0.17949 0.88367 0.0
H777 H 0.19386 0.20402 0.85781 0.0
H778 H 0.25073 0.10318 0.86998 0.0
H779 H 0.23399 0.14204 0.8727 0.0
C780 C 0.11538 0.87708 0.6388 0.0
C781 C 0.1256 0.86668 0.62325 0.0
C782 C 0.08405 0.87014 0.64009 0.0
C783 C 1.00428 0.81475 0.62133 0.0
H784 H 0.98294 0.8743 0.64285 0.0
C785 C 0.87794 0.79531 0.619 0.0
C786 C 0.86645 0.80163 0.63566 0.0
C787 C 0.90965 0.80381 0.61741 0.0
C788 C 0.98852 0.85732 0.63695 0.0
H789 H 0.11101 0.84165 0.59658 0.0
H790 H 0.05679 0.83025 0.59861 0.0
H791 H 0.03814 0.88865 0.63994 0.0
H792 H 0.87946 0.8223 0.6636 0.0
H793 H 0.93486 0.83707 0.66082 0.0
H794 H 0.95467 0.78357 0.61818 0.0
C795 C 0.0727 0.84307 0.61007 0.0
C796 C 0.02018 0.86551 0.63531 0.0
C797 C 0.10393 0.84982 0.60884 0.0
C798 C 0.8875 0.81685 0.65064 0.0
C799 C 0.9193 0.82559 0.64898 0.0
C800 C 0.97268 0.80667 0.62286 0.0
C801 C 0.0622 0.85279 0.62582 0.0
C802 C 0.0285 0.84432 0.62748 0.0
C803 C 0.93072 0.81905 0.63237 0.0
C804 C 0.96441 0.82782 0.6307 0.0
H805 H 0.13141 0.89004 0.65019 0.0
H806 H 0.07681 0.87773 0.65253 0.0
H807 H 1.00966 0.79753 0.61558 0.0
H808 H 0.86229 0.78341 0.60726 0.0
H809 H 0.91776 0.79869 0.60436 0.0
C810 C 0.94539 0.13543 0.85636 0.0
C811 C 0.95248 0.15634 0.87158 0.0
C812 C 0.92249 0.10365 0.85825 0.0
C813 C 0.85232 0.05046 0.88607 0.0
H814 H 0.86669 0.98473 0.86685 0.0
C815 C 0.76485 0.91997 0.90125 0.0
C816 C 0.75809 0.89825 0.88656 0.0
C817 C 0.78961 0.95094 0.89958 0.0
C818 C 0.86213 1.00279 0.87209 0.0
H819 H 0.94097 0.16028 0.90066 0.0
H820 H 0.90105 0.1048 0.90397 0.0
H821 H 0.90768 0.03984 0.86347 0.0
H822 H 0.77256 0.89192 0.85871 0.0
H823 H 0.81545 0.94621 0.85561 0.0
H824 H 0.8067 0.01372 0.89443 0.0
C825 C 0.91315 0.11302 0.89056 0.0
C826 C 0.88566 0.03437 0.87018 0.0
C827 C 0.9362 0.14473 0.88872 0.0
C828 C 0.77716 0.90805 0.87031 0.0
C829 C 0.80186 0.93917 0.86857 0.0
C830 C 0.82876 0.01896 0.88787 0.0
C831 C 0.90599 0.09212 0.87533 0.0
C832 C 0.88105 0.05854 0.87722 0.0
C833 C 0.80816 0.96112 0.8831 0.0
C834 C 0.83338 0.99467 0.881 0.0
H835 H 0.95775 0.1436 0.84303 0.0
H836 H 0.91735 0.0882 0.84622 0.0
H837 H 0.84782 0.06855 0.89135 0.0
H838 H 0.75086 0.91316 0.91407 0.0
H839 H 0.79418 0.96693 0.91124 0.0
C840 C 0.38254 0.20223 0.33029 0.0
C841 C 0.37962 0.17348 0.33612 0.0
C842 C 0.38836 0.21148 0.31125 0.0
C843 C 0.41324 0.19315 0.26525 0.0
H844 H 0.35766 0.21935 0.24331 0.0
C845 C 0.34408 0.17359 0.19201 0.0
C846 C 0.36752 0.17905 0.17868 0.0
C847 C 0.3519 0.18307 0.21073 0.0
C848 C 0.37355 0.21229 0.24922 0.0
H849 H 0.38195 0.13265 0.3266 0.0
H850 H 0.39167 0.14849 0.29373 0.0
H851 H 0.36044 0.21597 0.27755 0.0
H852 H 0.41781 0.20033 0.17427 0.0
H853 H 0.43167 0.21692 0.20731 0.0
H854 H 0.42477 0.18747 0.23689 0.0
C855 C 0.3898 0.16414 0.30375 0.0
C856 C 0.37538 0.21064 0.26888 0.0
C857 C 0.38387 0.15487 0.32266 0.0
C858 C 0.39925 0.19585 0.18425 0.0
C859 C 0.40713 0.20512 0.20317 0.0
C860 C 0.41138 0.19476 0.24558 0.0
C861 C 0.39164 0.1923 0.29771 0.0
C862 C 0.39433 0.19988 0.27713 0.0
C863 C 0.38342 0.19815 0.21672 0.0
C864 C 0.39058 0.20317 0.23732 0.0
H865 H 0.3795 0.21718 0.3403 0.0
H866 H 0.38988 0.23344 0.3071 0.0
H867 H 0.42855 0.18535 0.27115 0.0
H868 H 0.3194 0.16089 0.18813 0.0
H869 H 0.33295 0.17692 0.22074 0.0
C870 C 0.81513 0.6264 0.32827 0.0
C871 C 0.83385 0.65713 0.33521 0.0
C872 C 0.8145 0.62039 0.30887 0.0
C873 C 0.85495 0.64521 0.26408 0.0
H874 H 0.77559 0.62722 0.24172 0.0
C875 C 0.84342 0.66277 0.18422 0.0
C876 C 0.81364 0.64683 0.17575 0.0
C877 C 0.84681 0.65896 0.20354 0.0
C878 C 0.79771 0.63131 0.24754 0.0
H879 H 0.86797 0.7052 0.32765 0.0
H880 H 0.86779 0.69434 0.29385 0.0
H881 H 0.78086 0.62858 0.27584 0.0
H882 H 0.76445 0.61276 0.18019 0.0
H883 H 0.7705 0.60401 0.21341 0.0
H884 H 0.87186 0.64733 0.23596 0.0
C885 C 0.85335 0.67512 0.30336 0.0
C886 C 0.80069 0.6323 0.2672 0.0
C887 C 0.85334 0.6813 0.32264 0.0
C888 C 0.78764 0.62551 0.18652 0.0
C889 C 0.79115 0.62088 0.20566 0.0
C890 C 0.85178 0.64339 0.24437 0.0
C891 C 0.83328 0.64483 0.29626 0.0
C892 C 0.82946 0.63984 0.27561 0.0
C893 C 0.82055 0.63844 0.21469 0.0
C894 C 0.82327 0.6371 0.23574 0.0
H895 H 0.79966 0.60743 0.33765 0.0
H896 H 0.79872 0.59689 0.30364 0.0
H897 H 0.87739 0.65108 0.27033 0.0
H898 H 0.86375 0.67964 0.17619 0.0
H899 H 0.8698 0.67333 0.20981 0.0
C900 C 0.82657 0.20416 0.18171 0.0
C901 C 0.84691 0.19408 0.17472 0.0
C902 C 0.81897 0.20131 0.20103 0.0
C903 C 0.81712 0.15805 0.24417 0.0
H904 H 0.83615 0.23377 0.27177 0.0
C905 C 0.85896 0.17724 0.32035 0.0
C906 C 0.85059 0.19373 0.33311 0.0
C907 C 0.84946 0.17361 0.30154 0.0
C908 C 0.82995 0.21221 0.26428 0.0
H909 H 0.87427 0.17212 0.18235 0.0
H910 H 0.86062 0.16665 0.21571 0.0
H911 H 0.836 0.23422 0.23715 0.0
H912 H 0.82478 0.21859 0.33627 0.0
H913 H 0.80824 0.21252 0.30293 0.0
H914 H 0.81213 0.13627 0.27112 0.0
C915 C 0.85064 0.17689 0.20639 0.0
C916 C 0.82993 0.21249 0.24445 0.0
C917 C 0.85865 0.18025 0.18727 0.0
C918 C 0.83146 0.20566 0.32674 0.0
C919 C 0.82221 0.20236 0.30768 0.0
C920 C 0.81695 0.1577 0.26391 0.0
C921 C 0.83101 0.18766 0.21356 0.0
C922 C 0.82476 0.18576 0.23422 0.0
C923 C 0.83144 0.18654 0.29483 0.0
C924 C 0.82469 0.18513 0.27421 0.0
H925 H 0.81727 0.21504 0.17237 0.0
H926 H 0.80378 0.2098 0.20618 0.0
H927 H 0.8125 0.13693 0.23666 0.0
H928 H 0.87355 0.1676 0.32481 0.0
H929 H 0.85745 0.16173 0.29205 0.0
C930 C 0.20049 0.39827 0.68464 0.0
C931 C 0.18464 0.3669 0.67836 0.0
C932 C 0.21 0.40525 0.70361 0.0
C933 C 0.22206 0.37037 0.74749 0.0
H934 H 0.19098 0.41855 0.77394 0.0
C935 C 0.17511 0.34293 0.82281 0.0
C936 C 0.18138 0.36729 0.83556 0.0
C937 C 0.18543 0.3496 0.80412 0.0
C938 C 0.20049 0.40565 0.76675 0.0
H939 H 0.16808 0.31855 0.68661 0.0
H940 H 0.18481 0.33056 0.71924 0.0
H941 H 0.19196 0.41861 0.73935 0.0
H942 H 0.20398 0.41785 0.83887 0.0
H943 H 0.22154 0.42964 0.80572 0.0
H944 H 0.22879 0.35589 0.77481 0.0
C945 C 0.18997 0.3499 0.70976 0.0
C946 C 0.20109 0.4057 0.74693 0.0
C947 C 0.18013 0.34296 0.69104 0.0
C948 C 0.19903 0.39865 0.82935 0.0
C949 C 0.20888 0.40536 0.8104 0.0
C950 C 0.22134 0.37023 0.76723 0.0
C951 C 0.20437 0.381 0.71645 0.0
C952 C 0.21062 0.38697 0.73708 0.0
C953 C 0.20191 0.38081 0.79757 0.0
C954 C 0.20934 0.38681 0.77707 0.0
H955 H 0.2041 0.41715 0.67517 0.0
H956 H 0.22113 0.42946 0.70833 0.0
H957 H 0.23015 0.3562 0.74034 0.0
H958 H 0.16163 0.31853 0.8272 0.0
H959 H 0.1793 0.33013 0.79457 0.0
C960 C 0.17865 0.8488 0.82202 0.0
C961 C 0.19419 0.84004 0.83528 0.0
C962 C 0.17653 0.83993 0.80313 0.0
C963 C 0.2196 0.82244 0.7678 0.0
H964 H 0.14872 0.80749 0.73632 0.0
C965 C 0.18277 0.81651 0.68336 0.0
C966 C 0.20973 0.84417 0.67729 0.0
C967 C 0.1791 0.80754 0.70245 0.0
C968 C 0.16855 0.81104 0.74486 0.0
H969 H 0.21857 0.8139 0.83926 0.0
H970 H 0.2151 0.79847 0.80593 0.0
H971 H 0.14323 0.80524 0.77062 0.0
H972 H 0.2547 0.88314 0.68634 0.0
H973 H 0.24828 0.86769 0.71932 0.0
H974 H 0.24517 0.82909 0.74204 0.0
C975 C 0.20459 0.81231 0.81028 0.0
C976 C 0.16549 0.81005 0.76455 0.0
C977 C 0.20642 0.82097 0.82936 0.0
C978 C 0.23351 0.8618 0.69051 0.0
C979 C 0.22997 0.85275 0.70946 0.0
C980 C 0.22267 0.82347 0.74811 0.0
C981 C 0.19006 0.82218 0.79689 0.0
C982 C 0.19131 0.81687 0.77626 0.0
C983 C 0.20249 0.82585 0.71578 0.0
C984 C 0.19752 0.8189 0.73641 0.0
H985 H 0.16877 0.86332 0.82612 0.0
H986 H 0.16556 0.84834 0.79323 0.0
H987 H 0.23999 0.8279 0.77637 0.0
H988 H 0.16404 0.80237 0.67353 0.0
H989 H 0.15774 0.78656 0.70684 0.0
C990 C 0.65976 0.83902 0.68221 0.0
C991 C 0.65127 0.80982 0.6739 0.0
C992 C 0.6558 0.84105 0.70174 0.0
C993 C 0.65289 0.79762 0.74469 0.0
H994 H 0.62654 0.84992 0.77094 0.0
C995 C 0.63333 0.78419 0.82378 0.0
C996 C 0.64777 0.81174 0.8347 0.0
C997 C 0.62989 0.78571 0.80433 0.0
C998 C 0.63414 0.83539 0.76376 0.0
H999 H 0.62933 0.75966 0.67903 0.0
H1000 H 0.6217 0.76304 0.71268 0.0
H1001 H 0.62735 0.84949 0.73616 0.0
H1002 H 0.66804 0.86237 0.83404 0.0
H1003 H 0.66246 0.86514 0.79966 0.0
H1004 H 0.66001 0.78361 0.7719 0.0
C1005 C 0.63239 0.78453 0.70442 0.0
C1006 C 0.6346 0.83514 0.74388 0.0
C1007 C 0.63661 0.78256 0.6851 0.0
C1008 C 0.65677 0.84076 0.82593 0.0
C1009 C 0.65359 0.84233 0.80628 0.0
C1010 C 0.65242 0.79785 0.76435 0.0
C1011 C 0.64312 0.81387 0.71314 0.0
C1012 C 0.64348 0.81577 0.73416 0.0
C1013 C 0.64119 0.81486 0.7952 0.0
C1014 C 0.64253 0.81625 0.77418 0.0
H1015 H 0.67117 0.86042 0.67388 0.0
H1016 H 0.66425 0.864 0.70804 0.0
H1017 H 0.66085 0.78322 0.7377 0.0
H1018 H 0.62569 0.76142 0.83018 0.0
H1019 H 0.61943 0.76403 0.7963 0.0
C1020 C 0.25233 0.96022 0.94145 0.0
C1021 C 0.23001 0.92781 0.94149 0.0
C1022 C 0.25908 0.97814 0.95787 0.0
C1023 C 0.25642 0.97307 0.00969 0.0
H1024 H 0.26841 0.0573 0.0063 0.0
C1025 C 0.28087 0.04995 0.076 0.0
C1026 C 0.30326 0.08223 0.07471 0.0
C1027 C 0.26998 0.0312 0.05985 0.0
C1028 C 0.26552 0.03401 0.00749 0.0
H1029 H 0.19737 0.88891 0.95912 0.0
H1030 H 0.20938 0.92046 0.98809 0.0
H1031 H 0.25227 0.02367 0.97841 0.0
H1032 H 0.33116 0.12023 0.05522 0.0
H1033 H 0.31253 0.0873 0.02686 0.0
H1034 H 0.27022 0.98352 0.03864 0.0
C1035 C 0.22165 0.93182 0.97516 0.0
C1036 C 0.25613 0.01464 0.99149 0.0
C1037 C 0.21469 0.91376 0.95857 0.0
C1038 C 0.31387 0.0955 0.05671 0.0
C1039 C 0.30309 0.07658 0.04046 0.0
C1040 C 0.26594 0.99249 0.02568 0.0
C1041 C 0.24382 0.96432 0.97494 0.0
C1042 C 0.2517 0.98401 0.99234 0.0
C1043 C 0.2813 0.04405 0.04186 0.0
C1044 C 0.27077 0.0233 0.02479 0.0
H1045 H 0.26474 0.97207 0.92864 0.0
H1046 H 0.27667 1.00291 0.95721 0.0
H1047 H 0.25367 0.94982 0.01079 0.0
H1048 H 0.27175 0.03892 0.08959 0.0
H1049 H 0.25263 1.00652 0.06152 0.0
C1050 C 0.80772 0.70656 0.45677 0.0
C1051 C 0.78724 0.69347 0.44131 0.0
C1052 C 0.79875 0.71756 0.47257 0.0
C1053 C 0.72882 0.7127 0.49663 0.0
H1054 H 0.78958 0.7936 0.51762 0.0
C1055 C 0.69291 0.77623 0.55195 0.0
C1056 C 0.71352 0.78991 0.5673 0.0
C1057 C 0.70206 0.76539 0.53616 0.0
C1058 C 0.77236 0.77083 0.51205 0.0
H1059 H 0.74083 0.68071 0.43067 0.0
H1060 H 0.72541 0.69974 0.45796 0.0
H1061 H 0.8053 0.77105 0.49205 0.0
H1062 H 0.7604 0.80395 0.57769 0.0
H1063 H 0.77604 0.78502 0.55048 0.0
H1064 H 0.6959 0.71242 0.51665 0.0
C1065 C 0.74831 0.70147 0.45804 0.0
C1066 C 0.78145 0.75785 0.49742 0.0
C1067 C 0.75729 0.69069 0.44229 0.0
C1068 C 0.7438 0.79348 0.56618 0.0
C1069 C 0.75292 0.78277 0.55045 0.0
C1070 C 0.71975 0.72566 0.51128 0.0
C1071 C 0.76902 0.71545 0.4733 0.0
C1072 C 0.75979 0.72863 0.48949 0.0
C1073 C 0.73206 0.76814 0.53534 0.0
C1074 C 0.74139 0.75491 0.5192 0.0
H1075 H 0.83096 0.70912 0.45645 0.0
H1076 H 0.81516 0.72789 0.48418 0.0
H1077 H 0.7116 0.68996 0.49104 0.0
H1078 H 0.66942 0.77307 0.55236 0.0
H1079 H 0.68553 0.75464 0.52464 0.0
C1080 C 0.08804 0.29084 0.9516 0.0
C1081 C 0.09041 0.31597 0.94084 0.0
C1082 C 0.06652 0.27843 0.96669 0.0
C1083 C 0.99482 0.27865 0.98558 0.0
H1084 H 1.00835 0.23974 0.02952 0.0
C1085 C 0.93075 0.25816 0.05747 0.0
C1086 C 0.91553 0.22727 0.06457 0.0
C1087 C 0.94978 0.26608 0.04136 0.0
C1088 C 1.00418 0.25026 0.01721 0.0
H1089 H 0.07369 0.34902 0.93798 0.0
H1090 H 0.03815 0.32922 0.96485 0.0
H1091 H 0.04805 0.26094 1.00445 0.0
H1092 H 0.90829 0.1804 0.06047 0.0
H1093 H 0.94266 0.1946 0.03244 0.0
H1094 H 0.95176 0.26944 0.999 0.0
C1095 C 0.05137 0.3177 0.96128 0.0
C1096 C 0.02689 0.26239 1.00277 0.0
C1097 C 0.07218 0.32948 0.946 0.0
C1098 C 0.91934 0.20425 0.05508 0.0
C1099 C 0.93919 0.21242 0.03921 0.0
C1100 C 0.97257 0.26718 1.00018 0.0
C1101 C 0.04736 0.29131 0.97154 0.0
C1102 C 0.02276 0.27715 0.98679 0.0
C1103 C 0.95476 0.2435 0.03232 0.0
C1104 C 0.97709 0.25306 0.01618 0.0
H1105 H 0.10153 0.27972 0.94773 0.0
H1106 H 0.06414 0.25801 0.97404 0.0
H1107 H 0.98996 0.28875 0.97334 0.0
H1108 H 0.92842 0.2764 0.06462 0.0
H1109 H 0.96159 0.29021 0.03638 0.0
C1110 C 0.34736 0.09504 0.45623 0.0
C1111 C 0.32482 0.09676 0.44482 0.0
C1112 C 0.33791 0.07499 0.47202 0.0
C1113 C 0.2803 0.03907 0.50857 0.0
H1114 H 0.28834 0.96454 0.50556 0.0
C1115 C 0.21982 0.94075 0.56399 0.0
C1116 C 0.23414 0.92334 0.56933 0.0
C1117 C 0.23098 0.96114 0.54847 0.0
C1118 C 0.28636 0.98543 0.50691 0.0
H1119 H 0.27497 0.07989 0.44136 0.0
H1120 H 0.25873 0.04616 0.46946 0.0
H1121 H 0.30986 1.00388 0.48036 0.0
H1122 H 0.27121 0.91329 0.56252 0.0
H1123 H 0.2918 0.94992 0.53594 0.0
H1124 H 0.25802 0.02186 0.53527 0.0
C1125 C 0.28354 0.0598 0.46596 0.0
C1126 C 0.29863 1.0079 0.49238 0.0
C1127 C 0.29286 0.07911 0.44994 0.0
C1128 C 0.25944 0.92613 0.55854 0.0
C1129 C 0.2712 0.9472 0.54325 0.0
C1130 C 0.2687 0.01706 0.5233 0.0
C1131 C 0.30589 0.05706 0.47691 0.0
C1132 C 0.29535 0.03469 0.493 0.0
C1133 C 0.25748 0.96549 0.53816 0.0
C1134 C 0.27102 0.98954 0.5226 0.0
H1135 H 0.37209 0.10806 0.45246 0.0
H1136 H 0.35552 0.07323 0.4803 0.0
H1137 H 0.27761 0.05964 0.50935 0.0
H1138 H 0.20013 0.93892 0.572 0.0
H1139 H 0.21888 0.97373 0.54476 0.0
C1140 C 0.77411 0.68771 0.05471 0.0
C1141 C 0.78879 0.70799 0.07008 0.0
C1142 C 0.76449 0.69806 0.03888 0.0
C1143 C 0.77822 0.77066 0.01425 0.0
H1144 H 0.69579 0.71704 0.99235 0.0
C1145 C 0.74005 0.8007 0.94395 0.0
C1146 C 0.70897 0.79473 0.94215 0.0
C1147 C 0.74944 0.79079 0.95991 0.0
C1148 C 0.71876 0.73239 0.99842 0.0
H1149 H 0.80549 0.75532 0.0806 0.0
H1150 H 0.78898 0.77314 0.05323 0.0
H1151 H 0.71351 0.69771 0.01884 0.0
H1152 H 0.66348 0.77404 0.956 0.0
H1153 H 0.68001 0.75674 0.98411 0.0
H1154 H 0.78346 0.80544 0.99406 0.0
C1155 C 0.78493 0.74932 0.05326 0.0
C1156 C 0.72909 0.72115 0.01343 0.0
C1157 C 0.7943 0.73898 0.06904 0.0
C1158 C 0.68764 0.77918 0.95699 0.0
C1159 C 0.69702 0.76898 0.97299 0.0
C1160 C 0.76799 0.7818 0.99924 0.0
C1161 C 0.76965 0.72898 0.03804 0.0
C1162 C 0.75894 0.7402 0.02156 0.0
C1163 C 0.72801 0.77446 0.97455 0.0
C1164 C 0.73814 0.76284 0.9911 0.0
H1165 H 0.76937 0.66367 0.05509 0.0
H1166 H 0.75304 0.68188 0.0273 0.0
H1167 H 0.80143 0.7859 0.02006 0.0
H1168 H 0.75717 0.81258 0.93281 0.0
H1169 H 0.77336 0.79514 0.9605 0.0
C1170 C 0.10161 0.29943 0.55792 0.0
C1171 C 0.0893 0.30652 0.57391 0.0
C1172 C 0.08332 0.28741 0.5415 0.0
C1173 C 0.99984 0.25028 0.5244 0.0
H1174 H 0.0392 0.27762 0.47529 0.0
C1175 C 0.92857 0.20731 0.45411 0.0
C1176 C 0.93783 0.22964 0.4395 0.0
C1177 C 0.94683 0.21411 0.4706 0.0
C1178 C 0.0277 0.26989 0.48889 0.0
H1179 H 0.04826 0.30711 0.58494 0.0
H1180 H 0.01719 0.28735 0.55647 0.0
H1181 H 0.0716 0.29479 0.50356 0.0
H1182 H 0.97291 0.27708 0.43113 0.0
H1183 H 1.00378 0.28909 0.45974 0.0
H1184 H 0.95578 0.22664 0.50975 0.0
C1185 C 0.04046 0.28999 0.55663 0.0
C1186 C 0.04644 0.2794 0.50516 0.0
C1187 C 0.05852 0.30167 0.573 0.0
C1188 C 0.96519 0.25909 0.44196 0.0
C1189 C 0.98317 0.26594 0.45838 0.0
C1190 C 0.98106 0.24099 0.50813 0.0
C1191 C 0.05241 0.28242 0.54066 0.0
C1192 C 0.03275 0.27019 0.52319 0.0
C1193 C 0.97462 0.24346 0.47285 0.0
C1194 C 0.99467 0.25113 0.49015 0.0
H1195 H 0.12514 0.3027 0.55818 0.0
H1196 H 0.0933 0.28162 0.52957 0.0
H1197 H 0.98841 0.24208 0.53798 0.0
H1198 H 0.90771 0.18436 0.45262 0.0
H1199 H 0.93953 0.19611 0.48138 0.0
C1200 C 0.63618 0.12204 0.11438 0.0
C1201 C 0.66359 0.15159 0.11647 0.0
C1202 C 0.60643 0.11826 0.11797 0.0
C1203 C 0.56536 0.16369 0.1191 0.0
H1204 H 0.49735 0.08783 0.14155 0.0
C1205 C 0.43669 0.13174 0.11064 0.0
C1206 C 0.4169 0.12113 0.1266 0.0
C1207 C 0.46648 0.13471 0.11108 0.0
C1208 C 0.51616 0.10926 0.13541 0.0
H1209 H 0.68107 0.20022 0.1244 0.0
H1210 H 0.62918 0.19357 0.13088 0.0
H1211 H 0.55045 0.09506 0.14012 0.0
H1212 H 0.41271 0.10437 0.1554 0.0
H1213 H 0.46508 0.10941 0.15612 0.0
H1214 H 0.53124 0.1779 0.11432 0.0
C1215 C 0.63072 0.17335 0.12626 0.0
C1216 C 0.54652 0.11329 0.13443 0.0
C1217 C 0.6605 0.17711 0.12272 0.0
C1218 C 0.42733 0.11255 0.14286 0.0
C1219 C 0.4573 0.11543 0.14327 0.0
C1220 C 0.53508 0.1596 0.12 0.0
C1221 C 0.60327 0.14395 0.12372 0.0
C1222 C 0.57143 0.14042 0.12606 0.0
C1223 C 0.47743 0.12714 0.12747 0.0
C1224 C 0.50999 0.13214 0.1279 0.0
H1225 H 0.63769 0.10175 0.10987 0.0
H1226 H 0.58584 0.09536 0.1157 0.0
H1227 H 0.58383 0.18473 0.11241 0.0
H1228 H 0.42946 0.13836 0.09779 0.0
H1229 H 0.48107 0.14313 0.09853 0.0
C1230 C 0.70198 0.59241 0.37417 0.0
C1231 C 0.72972 0.59304 0.3799 0.0
C1232 C 0.67355 0.56366 0.37286 0.0
C1233 C 0.64122 0.47762 0.36887 0.0
H1234 H 0.56875 0.46991 0.39569 0.0
C1235 C 0.53863 0.35727 0.39231 0.0
C1236 C 0.50786 0.3524 0.39242 0.0
C1237 C 0.56436 0.38698 0.38826 0.0
C1238 C 0.58852 0.47168 0.38782 0.0
H1239 H 0.74969 0.564 0.38792 0.0
H1240 H 0.7006 0.51432 0.38543 0.0
H1241 H 0.61592 0.52154 0.39226 0.0
H1242 H 0.47995 0.3748 0.38776 0.0
H1243 H 0.52479 0.42658 0.3805 0.0
H1244 H 0.61416 0.42786 0.36455 0.0
C1245 C 0.70058 0.53583 0.38203 0.0
C1246 C 0.61557 0.50133 0.38587 0.0
C1247 C 0.7287 0.56439 0.3836 0.0
C1248 C 0.5034 0.37787 0.38806 0.0
C1249 C 0.52913 0.40758 0.38392 0.0
C1250 C 0.61416 0.44805 0.37071 0.0
C1251 C 0.67258 0.53508 0.3769 0.0
C1252 C 0.64247 0.5045 0.37675 0.0
C1253 C 0.56 0.41261 0.3841 0.0
C1254 C 0.58769 0.44454 0.38059 0.0
H1255 H 0.70204 0.6141 0.37127 0.0
H1256 H 0.65233 0.56377 0.36879 0.0
H1257 H 0.66143 0.47938 0.36151 0.0
H1258 H 0.54295 0.3383 0.39587 0.0
H1259 H 0.58777 0.39001 0.38891 0.0
C1260 C 0.85186 0.29558 0.11582 0.0
C1261 C 0.87848 0.29496 0.12264 0.0
C1262 C 0.85106 0.32357 0.11535 0.0
C1263 C 0.88762 0.40462 0.13416 0.0
H1264 H 0.8512 0.41814 0.08898 0.0
C1265 C 0.85714 0.50466 0.12719 0.0
C1266 C 0.86258 0.51985 0.10956 0.0
C1267 C 0.86092 0.47836 0.12945 0.0
C1268 C 0.86173 0.41498 0.10163 0.0
H1269 H 0.92483 0.32339 0.13492 0.0
H1270 H 0.92354 0.37272 0.13393 0.0
H1271 H 0.85507 0.37091 0.09184 0.0
H1272 H 0.87619 0.51896 0.08048 0.0
H1273 H 0.88337 0.47378 0.0845 0.0
H1274 H 0.89463 0.44915 0.14377 0.0
C1275 C 0.9032 0.35127 0.12903 0.0
C1276 C 0.8636 0.38763 0.10338 0.0
C1277 C 0.90398 0.32304 0.12956 0.0
C1278 C 0.87212 0.50817 0.09432 0.0
C1279 C 0.87589 0.48195 0.09658 0.0
C1280 C 0.88571 0.43211 0.13241 0.0
C1281 C 0.87689 0.35192 0.1216 0.0
C1282 C 0.87631 0.3819 0.11971 0.0
C1283 C 0.87011 0.46651 0.11412 0.0
C1284 C 0.87265 0.43758 0.11612 0.0
H1285 H 0.8315 0.27439 0.11066 0.0
H1286 H 0.83009 0.32297 0.10999 0.0
H1287 H 0.89741 0.4009 0.14696 0.0
H1288 H 0.8501 0.51319 0.1393 0.0
H1289 H 0.85601 0.46692 0.14313 0.0
C1290 C 0.46472 0.16462 0.38639 0.0
C1291 C 0.43639 0.13654 0.39009 0.0
C1292 C 0.49362 0.16564 0.38735 0.0
C1293 C 0.5315 0.11665 0.38734 0.0
H1294 H 0.60031 0.19081 0.41053 0.0
C1295 C 0.65221 0.12754 0.40524 0.0
C1296 C 0.67945 0.15687 0.40202 0.0
C1297 C 0.6222 0.12399 0.4033 0.0
C1298 C 0.58149 0.17011 0.40381 0.0
H1299 H 0.41635 0.08721 0.39726 0.0
H1300 H 0.46716 0.08907 0.39912 0.0
H1301 H 0.54863 0.18601 0.40822 0.0
H1302 H 0.6963 0.2054 0.39406 0.0
H1303 H 0.64402 0.19913 0.39042 0.0
H1304 H 0.56458 0.10077 0.38304 0.0
C1305 C 0.46682 0.11027 0.39532 0.0
C1306 C 0.55178 0.16732 0.40249 0.0
C1307 C 0.4377 0.10921 0.39431 0.0
C1308 C 0.67588 0.18244 0.39653 0.0
C1309 C 0.64587 0.17891 0.39465 0.0
C1310 C 0.56131 0.11943 0.3887 0.0
C1311 C 0.49518 0.13867 0.39212 0.0
C1312 C 0.52644 0.14072 0.39408 0.0
C1313 C 0.61864 0.1497 0.39815 0.0
C1314 C 0.58674 0.14633 0.39682 0.0
H1315 H 0.46472 0.1861 0.38287 0.0
H1316 H 0.51484 0.18773 0.38434 0.0
H1317 H 0.51262 0.09598 0.38063 0.0
H1318 H 0.65406 0.10722 0.40924 0.0
H1319 H 0.60179 0.10122 0.40622 0.0
C1320 C 0.52269 0.35288 0.121 0.0
C1321 C 0.49405 0.34769 0.11333 0.0
C1322 C 0.54815 0.38344 0.12315 0.0
C1323 C 0.57971 0.46543 0.10585 0.0
H1324 H 0.63683 0.48516 0.14811 0.0
C1325 C 0.68732 0.59069 0.11889 0.0
C1326 C 0.71577 0.59143 0.1229 0.0
C1327 C 0.65874 0.562 0.11864 0.0
C1328 C 0.62116 0.48 0.13619 0.0
H1329 H 0.46957 0.37076 0.10229 0.0
H1330 H 0.51382 0.42416 0.10632 0.0
H1331 H 0.58971 0.43341 0.14619 0.0
H1332 H 0.73626 0.56253 0.13015 0.0
H1333 H 0.68672 0.51294 0.12986 0.0
H1334 H 0.61136 0.51225 0.09593 0.0
C1335 C 0.51685 0.40455 0.11033 0.0
C1336 C 0.59416 0.45024 0.13503 0.0
C1337 C 0.49141 0.37391 0.10807 0.0
C1338 C 0.71487 0.56293 0.12696 0.0
C1339 C 0.68639 0.53443 0.12692 0.0
C1340 C 0.60664 0.49533 0.1071 0.0
C1341 C 0.54566 0.40976 0.11781 0.0
C1342 C 0.57329 0.4423 0.11968 0.0
C1343 C 0.65798 0.53353 0.12267 0.0
C1344 C 0.62796 0.50278 0.12212 0.0
H1345 H 0.52576 0.33324 0.12489 0.0
H1346 H 0.57007 0.38634 0.12859 0.0
H1347 H 0.56448 0.46017 0.0937 0.0
H1348 H 0.68717 0.61219 0.11567 0.0
H1349 H 0.63721 0.56209 0.11542 0.0
C1350 C 0.85618 0.48991 0.41325 0.0
C1351 C 0.86408 0.51321 0.39937 0.0
C1352 C 0.86191 0.46509 0.41029 0.0
C1353 C 0.87708 0.42075 0.37351 0.0
H1354 H 0.90892 0.39549 0.41619 0.0
C1355 C 0.90807 0.32006 0.37015 0.0
C1356 C 0.89588 0.29863 0.3853 0.0
C1357 C 0.90711 0.3482 0.3706 0.0
C1358 C 0.89994 0.40218 0.40414 0.0
H1359 H 0.88378 0.52824 0.37129 0.0
H1360 H 0.89369 0.4847 0.36609 0.0
H1361 H 0.90075 0.44026 0.41924 0.0
H1362 H 0.87346 0.2903 0.41286 0.0
H1363 H 0.87191 0.33876 0.41358 0.0
H1364 H 0.87599 0.38217 0.35853 0.0
C1365 C 0.88286 0.48562 0.37924 0.0
C1366 C 0.89514 0.42779 0.40591 0.0
C1367 C 0.87712 0.51055 0.38222 0.0
C1368 C 0.88309 0.30613 0.40091 0.0
C1369 C 0.88238 0.33414 0.40141 0.0
C1370 C 0.88193 0.39502 0.37174 0.0
C1371 C 0.87573 0.46284 0.39337 0.0
C1372 C 0.88299 0.437 0.39078 0.0
C1373 C 0.89433 0.35555 0.38631 0.0
C1374 C 0.89275 0.38503 0.38719 0.0
H1375 H 0.84551 0.49084 0.42646 0.0
H1376 H 0.85541 0.44755 0.4213 0.0
H1377 H 0.86762 0.42717 0.3616 0.0
H1378 H 0.91797 0.31495 0.3579 0.0
H1379 H 0.91657 0.36431 0.35876 0.0
C1380 C 0.15095 0.65031 0.6319 0.0
C1381 C 0.16044 0.66463 0.61402 0.0
C1382 C 0.145 0.61953 0.63487 0.0
C1383 C 0.12478 0.54677 0.60847 0.0
H1384 H 0.1547 0.52314 0.65278 0.0
C1385 C 0.13502 0.4357 0.60994 0.0
C1386 C 0.12737 0.41743 0.62649 0.0
C1387 C 0.1357 0.46444 0.60981 0.0
C1388 C 0.14572 0.52922 0.64047 0.0
H1389 H 0.17259 0.65822 0.58552 0.0
H1390 H 0.16215 0.60486 0.59065 0.0
H1391 H 0.16321 0.5766 0.65007 0.0
H1392 H 0.11415 0.4151 0.65594 0.0
H1393 H 0.11528 0.46571 0.65571 0.0
H1394 H 0.10767 0.49976 0.5987 0.0
C1395 C 0.15858 0.61706 0.6023 0.0
C1396 C 0.15066 0.55988 0.6389 0.0
C1397 C 0.16459 0.64772 0.59935 0.0
C1398 C 0.11998 0.42853 0.64293 0.0
C1399 C 0.12086 0.4576 0.64283 0.0
C1400 C 0.11982 0.51625 0.61004 0.0
C1401 C 0.14831 0.60238 0.62001 0.0
C1402 C 0.14088 0.5692 0.62266 0.0
C1403 C 0.12881 0.47591 0.62624 0.0
C1404 C 0.13086 0.50726 0.62584 0.0
H1405 H 0.14728 0.66253 0.64348 0.0
H1406 H 0.13701 0.60887 0.64867 0.0
H1407 H 0.11622 0.55289 0.59599 0.0
H1408 H 0.14092 0.42802 0.597 0.0
H1409 H 0.14244 0.47808 0.59687 0.0
C1410 C 0.30666 0.8715 0.90022 0.0
C1411 C 0.30013 0.88788 0.88626 0.0
C1412 C 0.33519 0.87179 0.90036 0.0
C1413 C 0.40179 0.88317 0.87103 0.0
H1414 H 0.44042 0.89003 0.91993 0.0
C1415 C 0.51947 0.88187 0.88177 0.0
C1416 C 0.52027 0.86442 0.89735 0.0
C1417 C 0.49399 0.88692 0.87915 0.0
C1418 C 0.42986 0.88783 0.90617 0.0
H1419 H 0.31874 0.91718 0.8613 0.0
H1420 H 0.36914 0.91767 0.86158 0.0
H1421 H 0.39437 0.8962 0.91758 0.0
H1422 H 0.49403 0.83729 0.92182 0.0
H1423 H 0.44987 0.84604 0.91728 0.0
H1424 H 0.43728 0.87433 0.85972 0.0
C1425 C 0.3518 0.90459 0.8724 0.0
C1426 C 0.40347 0.89146 0.90481 0.0
C1427 C 0.32303 0.90443 0.87229 0.0
C1428 C 0.49459 0.85145 0.90992 0.0
C1429 C 0.46924 0.8565 0.90731 0.0
C1430 C 0.42836 0.87954 0.8724 0.0
C1431 C 0.35825 0.88844 0.88658 0.0
C1432 C 0.38861 0.88842 0.88732 0.0
C1433 C 0.46878 0.87468 0.89207 0.0
C1434 C 0.44223 0.88108 0.89008 0.0
H1435 H 0.28968 0.85824 0.91117 0.0
H1436 H 0.33903 0.85854 0.91125 0.0
H1437 H 0.39083 0.88057 0.85737 0.0
H1438 H 0.53896 0.8924 0.87189 0.0
H1439 H 0.49445 0.90114 0.86731 0.0
C1440 C 0.5961 0.6885 0.61652 0.0
C1441 C 0.59707 0.71729 0.61956 0.0
C1442 C 0.56721 0.66013 0.61632 0.0
C1443 C 0.48433 0.62477 0.63231 0.0
H1444 H 0.46625 0.56402 0.59239 0.0
C1445 C 0.35781 0.52501 0.61691 0.0
C1446 C 0.35304 0.49547 0.61128 0.0
C1447 C 0.38826 0.55078 0.61879 0.0
C1448 C 0.47102 0.58047 0.60382 0.0
H1449 H 0.56827 0.73862 0.62496 0.0
H1450 H 0.51839 0.68953 0.62463 0.0
H1451 H 0.51838 0.61094 0.59431 0.0
H1452 H 0.37673 0.46981 0.60359 0.0
H1453 H 0.4299 0.5147 0.60707 0.0
H1454 H 0.43711 0.59454 0.64184 0.0
C1455 C 0.53985 0.68873 0.62252 0.0
C1456 C 0.50095 0.60739 0.6049 0.0
C1457 C 0.56855 0.71697 0.62257 0.0
C1458 C 0.37955 0.49231 0.60774 0.0
C1459 C 0.41006 0.51809 0.6097 0.0
C1460 C 0.45451 0.59784 0.63129 0.0
C1461 C 0.53874 0.65994 0.61936 0.0
C1462 C 0.50781 0.6301 0.619 0.0
C1463 C 0.41483 0.54773 0.61519 0.0
C1464 C 0.44726 0.57551 0.61687 0.0
H1465 H 0.6176 0.68788 0.61414 0.0
H1466 H 0.56717 0.63831 0.61397 0.0
H1467 H 0.489 0.64151 0.64355 0.0
H1468 H 0.33796 0.52845 0.61941 0.0
H1469 H 0.39092 0.57332 0.62268 0.0
C1470 C 0.18566 0.66415 0.89938 0.0
C1471 C 0.16099 0.67012 0.89569 0.0
C1472 C 0.18201 0.63446 0.89584 0.0
C1473 C 0.12066 0.55061 0.88898 0.0
H1474 H 0.19213 0.54332 0.87252 0.0
C1475 C 0.1137 0.43011 0.87451 0.0
C1476 C 0.13756 0.42691 0.88342 0.0
C1477 C 0.11543 0.45955 0.87379 0.0
C1478 C 0.17194 0.54497 0.87713 0.0
H1479 H 0.11342 0.64975 0.88486 0.0
H1480 H 0.10718 0.5981 0.87842 0.0
H1481 H 0.19739 0.59521 0.87531 0.0
H1482 H 0.18236 0.45234 0.89805 0.0
H1483 H 0.18541 0.50318 0.89662 0.0
H1484 H 0.09533 0.50017 0.8908 0.0
C1485 C 0.12914 0.61613 0.88446 0.0
C1486 C 0.17499 0.57474 0.87883 0.0
C1487 C 0.13274 0.64579 0.88811 0.0
C1488 C 0.16342 0.45382 0.89118 0.0
C1489 C 0.16534 0.48311 0.89023 0.0
C1490 C 0.11756 0.52076 0.88712 0.0
C1491 C 0.15367 0.60997 0.88838 0.0
C1492 C 0.1496 0.57806 0.88515 0.0
C1493 C 0.14134 0.48636 0.88165 0.0
C1494 C 0.14336 0.51765 0.88154 0.0
H1495 H 0.20756 0.68221 0.90547 0.0
H1496 H 0.20123 0.63053 0.89941 0.0
H1497 H 0.10066 0.55215 0.89407 0.0
H1498 H 0.09347 0.40983 0.86842 0.0
H1499 H 0.09662 0.46139 0.86703 0.0
C1500 C 0.33353 0.91226 0.62041 0.0
C1501 C 0.30514 0.88424 0.62406 0.0
C1502 C 0.3622 0.91236 0.61989 0.0
C1503 C 0.39945 0.86596 0.63501 0.0
H1504 H 0.45766 0.9087 0.59382 0.0
C1505 C 0.49866 0.84001 0.61572 0.0
C1506 C 0.52786 0.86515 0.6098 0.0
C1507 C 0.47286 0.84438 0.61859 0.0
C1508 C 0.44192 0.89699 0.60558 0.0
H1509 H 0.28487 0.83448 0.6304 0.0
H1510 H 0.33439 0.83472 0.62944 0.0
H1511 H 0.41067 0.91343 0.59713 0.0
H1512 H 0.55293 0.91488 0.60281 0.0
H1513 H 0.50799 0.92247 0.60782 0.0
H1514 H 0.43042 0.84924 0.64337 0.0
C1515 C 0.33472 0.85669 0.62711 0.0
C1516 C 0.41496 0.89974 0.60748 0.0
C1517 C 0.3062 0.85654 0.62752 0.0
C1518 C 0.53067 0.89485 0.60705 0.0
C1519 C 0.50487 0.89922 0.60993 0.0
C1520 C 0.42638 0.86324 0.63313 0.0
C1521 C 0.36309 0.88451 0.62319 0.0
C1522 C 0.39314 0.88388 0.62206 0.0
C1523 C 0.47556 0.87401 0.61565 0.0
C1524 C 0.44777 0.87836 0.61824 0.0
H1525 H 0.33358 0.93399 0.61767 0.0
H1526 H 0.38368 0.93425 0.61697 0.0
H1527 H 0.38345 0.85388 0.6466 0.0
H1528 H 0.49548 0.81672 0.61771 0.0
H1529 H 0.45055 0.82428 0.6227 0.0
C1530 C 0.56634 0.72026 0.89712 0.0
C1531 C 0.59441 0.72044 0.89275 0.0
C1532 C 0.53804 0.692 0.89921 0.0
C1533 C 0.49612 0.60901 0.88577 0.0
H1534 H 0.44216 0.60094 0.92804 0.0
C1535 C 0.37623 0.49531 0.89963 0.0
C1536 C 0.35131 0.49917 0.90622 0.0
C1537 C 0.40683 0.52112 0.8983 0.0
C1538 C 0.45671 0.60288 0.91602 0.0
H1539 H 0.61456 0.6908 0.88697 0.0
H1540 H 0.56459 0.64102 0.89042 0.0
H1541 H 0.49398 0.64769 0.92522 0.0
H1542 H 0.33887 0.53333 0.91605 0.0
H1543 H 0.39194 0.57834 0.91344 0.0
H1544 H 0.45849 0.56454 0.87628 0.0
C1545 C 0.56479 0.66302 0.89226 0.0
C1546 C 0.48651 0.62965 0.91447 0.0
C1547 C 0.59338 0.69148 0.89037 0.0
C1548 C 0.35763 0.52948 0.91121 0.0
C1549 C 0.38813 0.55528 0.90976 0.0
C1550 C 0.46612 0.58225 0.88724 0.0
C1551 C 0.53688 0.66305 0.89686 0.0
C1552 C 0.50639 0.63325 0.8992 0.0
C1553 C 0.41323 0.55145 0.90343 0.0
C1554 C 0.44583 0.57905 0.90225 0.0
H1555 H 0.56614 0.74204 0.8991 0.0
H1556 H 0.51689 0.69283 0.90249 0.0
H1557 H 0.51083 0.61124 0.87377 0.0
H1558 H 0.37221 0.4722 0.89588 0.0
H1559 H 0.42557 0.51715 0.89359 0.0
loop_
_geom_bond_atom_site_label_1
_geom_bond_atom_site_label_2
_geom_bond_distance
_geom_bond_site_symmetry_2
_ccdc_geom_bond_type
Dy0 O3 2.307 . S
Dy0 O5 2.395 . S
Dy0 O6 2.379 . S
Dy0 O8 2.339 . S
Dy0 O10 2.298 . S
Dy0 O14 2.275 . S
Dy0 C22 2.738 . S
Dy1 O4 2.298 . S
Dy1 O7 2.275 . S
Dy1 O9 2.307 . S
Dy1 O11 2.395 . S
Dy1 O12 2.379 . S
Dy1 O15 2.339 . S
Dy1 C31 2.738 . S
C2 O14 1.254 . S
C2 O15 1.257 . S
O3 Dy0 2.307 . S
O3 C13 1.266 . S
O4 Dy1 2.298 . S
O4 C13 1.236 . S
O5 Dy0 2.395 . S
O5 C22 1.255 . S
O6 Dy0 2.379 . S
O6 C22 1.249 . S
O7 Dy1 2.275 . S
O7 C23 1.254 . S
O8 Dy0 2.339 . S
O8 C23 1.257 . S
O9 Dy1 2.307 . S
O9 C24 1.266 . S
O10 Dy0 2.298 . S
O10 C24 1.236 . S
O11 Dy1 2.395 . S
O11 C31 1.255 . S
O12 Dy1 2.379 . S
O12 C31 1.249 . S
C13 O3 1.266 . S
C13 O4 1.236 . S
O14 Dy0 2.275 . S
O14 C2 1.254 . S
O15 Dy1 2.339 . S
O15 C2 1.257 . S
C16 C19 1.344 . S
C16 C20 1.328 . S
C16 C22 1.516 . S
C17 C18 1.304 . S
C17 C21 1.323 . S
C18 C17 1.304 . S
C18 C19 1.371 1_565 S
C18 H32 0.930 . S
C19 C16 1.344 . S
C19 C18 1.371 1_545 S
C19 H33 0.931 . S
C20 C16 1.328 . S
C20 C21 1.433 1_545 S
C20 H34 0.931 . S
C21 C17 1.323 . S
C21 C20 1.433 1_565 S
C21 H35 0.933 . S
C22 Dy0 2.738 . S
C22 O5 1.255 . S
C22 O6 1.249 . S
C22 C16 1.516 . S
C23 O7 1.254 . S
C23 O8 1.257 . S
C24 O9 1.266 . S
C24 O10 1.236 . S
C25 C28 1.344 . S
C25 C29 1.328 . S
C25 C31 1.516 . S
C26 C27 1.304 . S
C26 C30 1.323 . S
C27 C26 1.304 . S
C27 C28 1.371 . S
C27 H36 0.930 . S
C28 C25 1.344 . S
C28 C27 1.371 . S
C28 H37 0.931 . S
C29 C25 1.328 . S
C29 C30 1.433 . S
C29 H38 0.931 . S
C30 C26 1.323 . S
C30 C29 1.433 . S
C30 H39 0.933 . S
C31 Dy1 2.738 . S
C31 O11 1.255 . S
C31 O12 1.249 . S
C31 C25 1.516 . S
H32 C18 0.930 . S
H33 C19 0.931 . S
H34 C20 0.931 . S
H35 C21 0.933 . S
H36 C27 0.930 . S
H37 C28 0.931 . S
H38 C29 0.931 . S
H39 C30 0.933 . S
Dy40 O43 2.307 . S
Dy40 O45 2.395 . S
Dy40 O46 2.379 . S
Dy40 O48 2.339 . S
Dy40 O50 2.298 . S
Dy40 O54 2.275 . S
Dy40 C62 2.738 . S
Dy41 O44 2.298 . S
Dy41 O47 2.275 . S
Dy41 O49 2.307 . S
Dy41 O51 2.395 . S
Dy41 O52 2.379 . S
Dy41 O55 2.339 . S
Dy41 C71 2.738 . S
C42 O54 1.254 . S
C42 O55 1.257 . S
O43 Dy40 2.307 . S
O43 C53 1.266 . S
O44 Dy41 2.298 . S
O44 C53 1.236 . S
O45 Dy40 2.395 . S
O45 C62 1.255 . S
O46 Dy40 2.379 . S
O46 C62 1.249 . S
O47 Dy41 2.275 . S
O47 C63 1.254 . S
O48 Dy40 2.339 . S
O48 C63 1.257 . S
O49 Dy41 2.307 . S
O49 C64 1.266 . S
O50 Dy40 2.298 . S
O50 C64 1.236 . S
O51 Dy41 2.395 . S
O51 C71 1.255 . S
O52 Dy41 2.379 . S
O52 C71 1.249 . S
C53 O43 1.266 . S
C53 O44 1.236 . S
O54 Dy40 2.275 . S
O54 C42 1.254 . S
O55 Dy41 2.339 . S
O55 C42 1.257 . S
C56 C59 1.344 . S
C56 C60 1.328 . S
C56 C62 1.516 . S
C57 C58 1.304 . S
C57 C61 1.323 . S
C58 C57 1.304 . S
C58 C59 1.371 . S
C58 H72 0.930 . S
C59 C56 1.344 . S
C59 C58 1.371 . S
C59 H73 0.931 . S
C60 C56 1.328 . S
C60 C61 1.433 . S
C60 H74 0.931 . S
C61 C57 1.323 . S
C61 C60 1.433 . S
C61 H75 0.933 . S
C62 Dy40 2.738 . S
C62 O45 1.255 . S
C62 O46 1.249 . S
C62 C56 1.516 . S
C63 O47 1.254 . S
C63 O48 1.257 . S
C64 O49 1.266 . S
C64 O50 1.236 . S
C65 C68 1.344 . S
C65 C69 1.328 . S
C65 C71 1.516 . S
C66 C67 1.304 . S
C66 C70 1.323 . S
C67 C66 1.304 . S
C67 C68 1.371 . S
C67 H76 0.930 . S
C68 C65 1.344 . S
C68 C67 1.371 . S
C68 H77 0.931 . S
C69 C65 1.328 . S
C69 C70 1.433 . S
C69 H78 0.931 . S
C70 C66 1.323 . S
C70 C69 1.433 . S
C70 H79 0.933 . S
C71 Dy41 2.738 . S
C71 O51 1.255 . S
C71 O52 1.249 . S
C71 C65 1.516 . S
H72 C58 0.930 . S
H73 C59 0.931 . S
H74 C60 0.931 . S
H75 C61 0.933 . S
H76 C67 0.930 . S
H77 C68 0.931 . S
H78 C69 0.931 . S
H79 C70 0.933 . S
Dy80 O83 2.307 . S
Dy80 O85 2.395 . S
Dy80 O86 2.379 . S
Dy80 O88 2.339 . S
Dy80 O90 2.298 . S
Dy80 O94 2.275 . S
Dy80 C102 2.738 . S
Dy81 O84 2.298 . S
Dy81 O87 2.275 . S
Dy81 O89 2.307 . S
Dy81 O91 2.395 . S
Dy81 O92 2.379 . S
Dy81 O95 2.339 . S
Dy81 C111 2.738 . S
C82 O94 1.254 . S
C82 O95 1.257 . S
O83 Dy80 2.307 . S
O83 C93 1.266 . S
O84 Dy81 2.298 . S
O84 C93 1.236 . S
O85 Dy80 2.395 . S
O85 C102 1.255 . S
O86 Dy80 2.379 . S
O86 C102 1.249 . S
O87 Dy81 2.275 . S
O87 C103 1.254 . S
O88 Dy80 2.339 . S
O88 C103 1.257 . S
O89 Dy81 2.307 . S
O89 C104 1.266 . S
O90 Dy80 2.298 . S
O90 C104 1.236 . S
O91 Dy81 2.395 . S
O91 C111 1.255 . S
O92 Dy81 2.379 . S
O92 C111 1.249 . S
C93 O83 1.266 . S
C93 O84 1.236 . S
O94 Dy80 2.275 . S
O94 C82 1.254 . S
O95 Dy81 2.339 . S
O95 C82 1.257 . S
C96 C99 1.344 . S
C96 C100 1.328 . S
C96 C102 1.516 . S
C97 C98 1.304 . S
C97 C101 1.323 . S
C98 C97 1.304 . S
C98 C99 1.371 1_455 S
C98 H112 0.930 . S
C99 C96 1.344 . S
C99 C98 1.371 1_655 S
C99 H113 0.931 . S
C100 C96 1.328 . S
C100 C101 1.433 1_655 S
C100 H114 0.931 . S
C101 C97 1.323 . S
C101 C100 1.433 1_455 S
C101 H115 0.933 . S
C102 Dy80 2.738 . S
C102 O85 1.255 . S
C102 O86 1.249 . S
C102 C96 1.516 . S
C103 O87 1.254 . S
C103 O88 1.257 . S
C104 O89 1.266 . S
C104 O90 1.236 . S
C105 C108 1.344 . S
C105 C109 1.328 . S
C105 C111 1.516 . S
C106 C107 1.304 . S
C106 C110 1.323 . S
C107 C106 1.304 . S
C107 C108 1.371 . S
C107 H116 0.930 . S
C108 C105 1.344 . S
C108 C107 1.371 . S
C108 H117 0.931 . S
C109 C105 1.328 . S
C109 C110 1.433 . S
C109 H118 0.931 . S
C110 C106 1.323 . S
C110 C109 1.433 . S
C110 H119 0.933 . S
C111 Dy81 2.738 . S
C111 O91 1.255 . S
C111 O92 1.249 . S
C111 C105 1.516 . S
H112 C98 0.930 . S
H113 C99 0.931 . S
H114 C100 0.931 . S
H115 C101 0.933 . S
H116 C107 0.930 . S
H117 C108 0.931 . S
H118 C109 0.931 . S
H119 C110 0.933 . S
Dy120 O123 2.307 . S
Dy120 O125 2.395 . S
Dy120 O126 2.379 . S
Dy120 O128 2.339 . S
Dy120 O130 2.298 . S
Dy120 O134 2.275 . S
Dy120 C142 2.738 . S
Dy121 O124 2.298 . S
Dy121 O127 2.275 . S
Dy121 O129 2.307 . S
Dy121 O131 2.395 . S
Dy121 O132 2.379 . S
Dy121 O135 2.339 . S
Dy121 C151 2.738 . S
C122 O134 1.254 . S
C122 O135 1.257 . S
O123 Dy120 2.307 . S
O123 C133 1.266 . S
O124 Dy121 2.298 . S
O124 C133 1.236 . S
O125 Dy120 2.395 . S
O125 C142 1.255 . S
O126 Dy120 2.379 . S
O126 C142 1.249 . S
O127 Dy121 2.275 . S
O127 C143 1.254 . S
O128 Dy120 2.339 . S
O128 C143 1.257 . S
O129 Dy121 2.307 . S
O129 C144 1.266 . S
O130 Dy120 2.298 . S
O130 C144 1.236 . S
O131 Dy121 2.395 . S
O131 C151 1.255 . S
O132 Dy121 2.379 . S
O132 C151 1.249 . S
C133 O123 1.266 . S
C133 O124 1.236 . S
O134 Dy120 2.275 . S
O134 C122 1.254 . S
O135 Dy121 2.339 . S
O135 C122 1.257 . S
C136 C139 1.344 . S
C136 C140 1.328 . S
C136 C142 1.516 . S
C137 C138 1.304 . S
C137 C141 1.323 . S
C138 C137 1.304 . S
C138 C139 1.371 . S
C138 H152 0.930 . S
C139 C136 1.344 . S
C139 C138 1.371 . S
C139 H153 0.931 . S
C140 C136 1.328 . S
C140 C141 1.433 . S
C140 H154 0.931 . S
C141 C137 1.323 . S
C141 C140 1.433 . S
C141 H155 0.933 . S
C142 Dy120 2.738 . S
C142 O125 1.255 . S
C142 O126 1.249 . S
C142 C136 1.516 . S
C143 O127 1.254 . S
C143 O128 1.257 . S
C144 O129 1.266 . S
C144 O130 1.236 . S
C145 C148 1.344 . S
C145 C149 1.328 . S
C145 C151 1.516 . S
C146 C147 1.304 . S
C146 C150 1.323 . S
C147 C146 1.304 . S
C147 C148 1.371 1_565 S
C147 H156 0.930 . S
C148 C145 1.344 . S
C148 C147 1.371 1_545 S
C148 H157 0.931 . S
C149 C145 1.328 . S
C149 C150 1.433 1_545 S
C149 H158 0.931 . S
C150 C146 1.323 . S
C150 C149 1.433 1_565 S
C150 H159 0.933 . S
C151 Dy121 2.738 . S
C151 O131 1.255 . S
C151 O132 1.249 . S
C151 C145 1.516 . S
H152 C138 0.930 . S
H153 C139 0.931 . S
H154 C140 0.931 . S
H155 C141 0.933 . S
H156 C147 0.930 . S
H157 C148 0.931 . S
H158 C149 0.931 . S
H159 C150 0.933 . S
Dy160 O163 2.307 . S
Dy160 O165 2.395 . S
Dy160 O166 2.379 . S
Dy160 O168 2.339 . S
Dy160 O170 2.298 . S
Dy160 O174 2.275 . S
Dy160 C182 2.738 . S
Dy161 O164 2.298 . S
Dy161 O167 2.275 . S
Dy161 O169 2.307 . S
Dy161 O171 2.395 . S
Dy161 O172 2.379 . S
Dy161 O175 2.339 . S
Dy161 C191 2.738 . S
C162 O174 1.254 . S
C162 O175 1.257 . S
O163 Dy160 2.307 . S
O163 C173 1.266 . S
O164 Dy161 2.298 . S
O164 C173 1.236 . S
O165 Dy160 2.395 . S
O165 C182 1.255 . S
O166 Dy160 2.379 . S
O166 C182 1.249 . S
O167 Dy161 2.275 . S
O167 C183 1.254 . S
O168 Dy160 2.339 . S
O168 C183 1.257 . S
O169 Dy161 2.307 . S
O169 C184 1.266 . S
O170 Dy160 2.298 . S
O170 C184 1.236 . S
O171 Dy161 2.395 . S
O171 C191 1.255 . S
O172 Dy161 2.379 . S
O172 C191 1.249 . S
C173 O163 1.266 . S
C173 O164 1.236 . S
O174 Dy160 2.275 . S
O174 C162 1.254 . S
O175 Dy161 2.339 . S
O175 C162 1.257 . S
C176 C179 1.344 . S
C176 C180 1.328 . S
C176 C182 1.516 . S
C177 C178 1.304 . S
C177 C181 1.323 . S
C178 C177 1.304 . S
C178 C179 1.371 . S
C178 H192 0.930 . S
C179 C176 1.344 . S
C179 C178 1.371 . S
C179 H193 0.931 . S
C180 C176 1.328 . S
C180 C181 1.433 . S
C180 H194 0.931 . S
C181 C177 1.323 . S
C181 C180 1.433 . S
C181 H195 0.933 . S
C182 Dy160 2.738 . S
C182 O165 1.255 . S
C182 O166 1.249 . S
C182 C176 1.516 . S
C183 O167 1.254 . S
C183 O168 1.257 . S
C184 O169 1.266 . S
C184 O170 1.236 . S
C185 C188 1.344 . S
C185 C189 1.328 . S
C185 C191 1.516 . S
C186 C187 1.304 . S
C186 C190 1.323 . S
C187 C186 1.304 . S
C187 C188 1.371 . S
C187 H196 0.930 . S
C188 C185 1.344 . S
C188 C187 1.371 . S
C188 H197 0.931 . S
C189 C185 1.328 . S
C189 C190 1.433 . S
C189 H198 0.931 . S
C190 C186 1.323 . S
C190 C189 1.433 . S
C190 H199 0.933 . S
C191 Dy161 2.738 . S
C191 O171 1.255 . S
C191 O172 1.249 . S
C191 C185 1.516 . S
H192 C178 0.930 . S
H193 C179 0.931 . S
H194 C180 0.931 . S
H195 C181 0.933 . S
H196 C187 0.930 . S
H197 C188 0.931 . S
H198 C189 0.931 . S
H199 C190 0.933 . S
Dy200 O203 2.307 . S
Dy200 O205 2.395 . S
Dy200 O206 2.379 . S
Dy200 O208 2.339 . S
Dy200 O210 2.298 . S
Dy200 O214 2.275 . S
Dy200 C222 2.738 . S
Dy201 O204 2.298 . S
Dy201 O207 2.275 . S
Dy201 O209 2.307 . S
Dy201 O211 2.395 . S
Dy201 O212 2.379 . S
Dy201 O215 2.339 . S
Dy201 C231 2.738 . S
C202 O214 1.254 . S
C202 O215 1.257 . S
O203 Dy200 2.307 . S
O203 C213 1.266 . S
O204 Dy201 2.298 . S
O204 C213 1.236 . S
O205 Dy200 2.395 . S
O205 C222 1.255 . S
O206 Dy200 2.379 . S
O206 C222 1.249 . S
O207 Dy201 2.275 . S
O207 C223 1.254 . S
O208 Dy200 2.339 . S
O208 C223 1.257 . S
O209 Dy201 2.307 . S
O209 C224 1.266 . S
O210 Dy200 2.298 . S
O210 C224 1.236 . S
O211 Dy201 2.395 . S
O211 C231 1.255 . S
O212 Dy201 2.379 . S
O212 C231 1.249 . S
C213 O203 1.266 . S
C213 O204 1.236 . S
O214 Dy200 2.275 . S
O214 C202 1.254 . S
O215 Dy201 2.339 . S
O215 C202 1.257 . S
C216 C219 1.344 . S
C216 C220 1.328 . S
C216 C222 1.516 . S
C217 C218 1.304 . S
C217 C221 1.323 . S
C218 C217 1.304 . S
C218 C219 1.371 . S
C218 H232 0.930 . S
C219 C216 1.344 . S
C219 C218 1.371 . S
C219 H233 0.931 . S
C220 C216 1.328 . S
C220 C221 1.433 . S
C220 H234 0.931 . S
C221 C217 1.323 . S
C221 C220 1.433 . S
C221 H235 0.933 . S
C222 Dy200 2.738 . S
C222 O205 1.255 . S
C222 O206 1.249 . S
C222 C216 1.516 . S
C223 O207 1.254 . S
C223 O208 1.257 . S
C224 O209 1.266 . S
C224 O210 1.236 . S
C225 C228 1.344 . S
C225 C229 1.328 . S
C225 C231 1.516 . S
C226 C227 1.304 . S
C226 C230 1.323 . S
C227 C226 1.304 . S
C227 C228 1.371 1_455 S
C227 H236 0.930 . S
C228 C225 1.344 . S
C228 C227 1.371 1_655 S
C228 H237 0.931 . S
C229 C225 1.328 . S
C229 C230 1.433 1_655 S
C229 H238 0.931 . S
C230 C226 1.323 . S
C230 C229 1.433 1_455 S
C230 H239 0.933 . S
C231 Dy201 2.738 . S
C231 O211 1.255 . S
C231 O212 1.249 . S
C231 C225 1.516 . S
H232 C218 0.930 . S
H233 C219 0.931 . S
H234 C220 0.931 . S
H235 C221 0.933 . S
H236 C227 0.930 . S
H237 C228 0.931 . S
H238 C229 0.931 . S
H239 C230 0.933 . S
Dy240 O243 2.307 . S
Dy240 O245 2.395 . S
Dy240 O246 2.379 . S
Dy240 O248 2.339 . S
Dy240 O250 2.298 . S
Dy240 O254 2.275 . S
Dy240 C262 2.738 . S
Dy241 O244 2.298 . S
Dy241 O247 2.275 . S
Dy241 O249 2.307 . S
Dy241 O251 2.395 . S
Dy241 O252 2.379 . S
Dy241 O255 2.339 . S
Dy241 C271 2.738 . S
C242 O254 1.254 . S
C242 O255 1.257 . S
O243 Dy240 2.307 . S
O243 C253 1.266 . S
O244 Dy241 2.298 . S
O244 C253 1.236 . S
O245 Dy240 2.395 . S
O245 C262 1.255 . S
O246 Dy240 2.379 . S
O246 C262 1.249 . S
O247 Dy241 2.275 . S
O247 C263 1.254 . S
O248 Dy240 2.339 . S
O248 C263 1.257 . S
O249 Dy241 2.307 . S
O249 C264 1.266 . S
O250 Dy240 2.298 . S
O250 C264 1.236 . S
O251 Dy241 2.395 . S
O251 C271 1.255 . S
O252 Dy241 2.379 . S
O252 C271 1.249 . S
C253 O243 1.266 . S
C253 O244 1.236 . S
O254 Dy240 2.275 . S
O254 C242 1.254 . S
O255 Dy241 2.339 . S
O255 C242 1.257 . S
C256 C259 1.344 . S
C256 C260 1.328 . S
C256 C262 1.516 . S
C257 C258 1.304 . S
C257 C261 1.323 . S
C258 C257 1.304 . S
C258 C259 1.371 . S
C258 H272 0.930 . S
C259 C256 1.344 . S
C259 C258 1.371 . S
C259 H273 0.931 . S
C260 C256 1.328 . S
C260 C261 1.433 . S
C260 H274 0.931 . S
C261 C257 1.323 . S
C261 C260 1.433 . S
C261 H275 0.933 . S
C262 Dy240 2.738 . S
C262 O245 1.255 . S
C262 O246 1.249 . S
C262 C256 1.516 . S
C263 O247 1.254 . S
C263 O248 1.257 . S
C264 O249 1.266 . S
C264 O250 1.236 . S
C265 C268 1.344 . S
C265 C269 1.328 . S
C265 C271 1.516 . S
C266 C267 1.304 . S
C266 C270 1.323 . S
C267 C266 1.304 . S
C267 C268 1.371 1_655 S
C267 H276 0.930 . S
C268 C265 1.344 . S
C268 C267 1.371 1_455 S
C268 H277 0.931 . S
C269 C265 1.328 . S
C269 C270 1.433 1_455 S
C269 H278 0.931 . S
C270 C266 1.323 . S
C270 C269 1.433 1_655 S
C270 H279 0.933 . S
C271 Dy241 2.738 . S
C271 O251 1.255 . S
C271 O252 1.249 . S
C271 C265 1.516 . S
H272 C258 0.930 . S
H273 C259 0.931 . S
H274 C260 0.931 . S
H275 C261 0.933 . S
H276 C267 0.930 . S
H277 C268 0.931 . S
H278 C269 0.931 . S
H279 C270 0.933 . S
Dy280 O283 2.307 . S
Dy280 O285 2.395 . S
Dy280 O286 2.379 . S
Dy280 O288 2.339 . S
Dy280 O290 2.298 . S
Dy280 O294 2.275 . S
Dy280 C302 2.738 . S
Dy281 O284 2.298 . S
Dy281 O287 2.275 . S
Dy281 O289 2.307 . S
Dy281 O291 2.395 . S
Dy281 O292 2.379 . S
Dy281 O295 2.339 . S
Dy281 C311 2.738 . S
C282 O294 1.254 . S
C282 O295 1.257 . S
O283 Dy280 2.307 . S
O283 C293 1.266 . S
O284 Dy281 2.298 . S
O284 C293 1.236 . S
O285 Dy280 2.395 . S
O285 C302 1.255 . S
O286 Dy280 2.379 . S
O286 C302 1.249 . S
O287 Dy281 2.275 . S
O287 C303 1.254 . S
O288 Dy280 2.339 . S
O288 C303 1.257 . S
O289 Dy281 2.307 . S
O289 C304 1.266 . S
O290 Dy280 2.298 . S
O290 C304 1.236 . S
O291 Dy281 2.395 . S
O291 C311 1.255 . S
O292 Dy281 2.379 . S
O292 C311 1.249 . S
C293 O283 1.266 . S
C293 O284 1.236 . S
O294 Dy280 2.275 . S
O294 C282 1.254 . S
O295 Dy281 2.339 . S
O295 C282 1.257 . S
C296 C299 1.344 . S
C296 C300 1.328 . S
C296 C302 1.516 . S
C297 C298 1.304 . S
C297 C301 1.323 . S
C298 C297 1.304 . S
C298 C299 1.371 1_545 S
C298 H312 0.930 . S
C299 C296 1.344 . S
C299 C298 1.371 1_565 S
C299 H313 0.931 . S
C300 C296 1.328 . S
C300 C301 1.433 1_565 S
C300 H314 0.931 . S
C301 C297 1.323 . S
C301 C300 1.433 1_545 S
C301 H315 0.933 . S
C302 Dy280 2.738 . S
C302 O285 1.255 . S
C302 O286 1.249 . S
C302 C296 1.516 . S
C303 O287 1.254 . S
C303 O288 1.257 . S
C304 O289 1.266 . S
C304 O290 1.236 . S
C305 C308 1.344 . S
C305 C309 1.328 . S
C305 C311 1.516 . S
C306 C307 1.304 . S
C306 C310 1.323 . S
C307 C306 1.304 . S
C307 C308 1.371 . S
C307 H316 0.930 . S
C308 C305 1.344 . S
C308 C307 1.371 . S
C308 H317 0.931 . S
C309 C305 1.328 . S
C309 C310 1.433 . S
C309 H318 0.931 . S
C310 C306 1.323 . S
C310 C309 1.433 . S
C310 H319 0.933 . S
C311 Dy281 2.738 . S
C311 O291 1.255 . S
C311 O292 1.249 . S
C311 C305 1.516 . S
H312 C298 0.930 . S
H313 C299 0.931 . S
H314 C300 0.931 . S
H315 C301 0.933 . S
H316 C307 0.930 . S
H317 C308 0.931 . S
H318 C309 0.931 . S
H319 C310 0.933 . S
Dy320 O323 2.307 . S
Dy320 O325 2.395 . S
Dy320 O326 2.379 . S
Dy320 O328 2.339 . S
Dy320 O330 2.298 . S
Dy320 O334 2.275 . S
Dy320 C342 2.738 . S
Dy321 O324 2.298 . S
Dy321 O327 2.275 . S
Dy321 O329 2.307 . S
Dy321 O331 2.395 . S
Dy321 O332 2.379 . S
Dy321 O335 2.339 . S
Dy321 C351 2.738 . S
C322 O334 1.254 . S
C322 O335 1.257 . S
O323 Dy320 2.307 . S
O323 C333 1.266 . S
O324 Dy321 2.298 . S
O324 C333 1.236 . S
O325 Dy320 2.395 . S
O325 C342 1.255 . S
O326 Dy320 2.379 . S
O326 C342 1.249 . S
O327 Dy321 2.275 . S
O327 C343 1.254 . S
O328 Dy320 2.339 . S
O328 C343 1.257 . S
O329 Dy321 2.307 . S
O329 C344 1.266 . S
O330 Dy320 2.298 . S
O330 C344 1.236 . S
O331 Dy321 2.395 . S
O331 C351 1.255 . S
O332 Dy321 2.379 . S
O332 C351 1.249 . S
C333 O323 1.266 . S
C333 O324 1.236 . S
O334 Dy320 2.275 . S
O334 C322 1.254 . S
O335 Dy321 2.339 . S
O335 C322 1.257 . S
C336 C339 1.344 . S
C336 C340 1.328 . S
C336 C342 1.516 . S
C337 C338 1.304 . S
C337 C341 1.323 . S
C338 C337 1.304 . S
C338 C339 1.371 . S
C338 H352 0.930 . S
C339 C336 1.344 . S
C339 C338 1.371 . S
C339 H353 0.931 . S
C340 C336 1.328 . S
C340 C341 1.433 . S
C340 H354 0.931 . S
C341 C337 1.323 . S
C341 C340 1.433 . S
C341 H355 0.933 . S
C342 Dy320 2.738 . S
C342 O325 1.255 . S
C342 O326 1.249 . S
C342 C336 1.516 . S
C343 O327 1.254 . S
C343 O328 1.257 . S
C344 O329 1.266 . S
C344 O330 1.236 . S
C345 C348 1.344 . S
C345 C349 1.328 . S
C345 C351 1.516 . S
C346 C347 1.304 . S
C346 C350 1.323 . S
C347 C346 1.304 . S
C347 C348 1.371 . S
C347 H356 0.930 . S
C348 C345 1.344 . S
C348 C347 1.371 . S
C348 H357 0.931 . S
C349 C345 1.328 . S
C349 C350 1.433 . S
C349 H358 0.931 . S
C350 C346 1.323 . S
C350 C349 1.433 . S
C350 H359 0.933 . S
C351 Dy321 2.738 . S
C351 O331 1.255 . S
C351 O332 1.249 . S
C351 C345 1.516 . S
H352 C338 0.930 . S
H353 C339 0.931 . S
H354 C340 0.931 . S
H355 C341 0.933 . S
H356 C347 0.930 . S
H357 C348 0.931 . S
H358 C349 0.931 . S
H359 C350 0.933 . S
Dy360 O363 2.307 . S
Dy360 O365 2.395 . S
Dy360 O366 2.379 . S
Dy360 O368 2.339 . S
Dy360 O370 2.298 . S
Dy360 O374 2.275 . S
Dy360 C382 2.738 . S
Dy361 O364 2.298 . S
Dy361 O367 2.275 . S
Dy361 O369 2.307 . S
Dy361 O371 2.395 . S
Dy361 O372 2.379 . S
Dy361 O375 2.339 . S
Dy361 C391 2.738 . S
C362 O374 1.254 . S
C362 O375 1.257 . S
O363 Dy360 2.307 . S
O363 C373 1.266 . S
O364 Dy361 2.298 . S
O364 C373 1.236 . S
O365 Dy360 2.395 . S
O365 C382 1.255 . S
O366 Dy360 2.379 . S
O366 C382 1.249 . S
O367 Dy361 2.275 . S
O367 C383 1.254 . S
O368 Dy360 2.339 . S
O368 C383 1.257 . S
O369 Dy361 2.307 . S
O369 C384 1.266 . S
O370 Dy360 2.298 . S
O370 C384 1.236 . S
O371 Dy361 2.395 . S
O371 C391 1.255 . S
O372 Dy361 2.379 . S
O372 C391 1.249 . S
C373 O363 1.266 . S
C373 O364 1.236 . S
O374 Dy360 2.275 . S
O374 C362 1.254 . S
O375 Dy361 2.339 . S
O375 C362 1.257 . S
C376 C379 1.344 . S
C376 C380 1.328 . S
C376 C382 1.516 . S
C377 C378 1.304 . S
C377 C381 1.323 . S
C378 C377 1.304 . S
C378 C379 1.371 1_655 S
C378 H392 0.930 . S
C379 C376 1.344 . S
C379 C378 1.371 1_455 S
C379 H393 0.931 . S
C380 C376 1.328 . S
C380 C381 1.433 1_455 S
C380 H394 0.931 . S
C381 C377 1.323 . S
C381 C380 1.433 1_655 S
C381 H395 0.933 . S
C382 Dy360 2.738 . S
C382 O365 1.255 . S
C382 O366 1.249 . S
C382 C376 1.516 . S
C383 O367 1.254 . S
C383 O368 1.257 . S
C384 O369 1.266 . S
C384 O370 1.236 . S
C385 C388 1.344 . S
C385 C389 1.328 . S
C385 C391 1.516 . S
C386 C387 1.304 . S
C386 C390 1.323 . S
C387 C386 1.304 . S
C387 C388 1.371 . S
C387 H396 0.930 . S
C388 C385 1.344 . S
C388 C387 1.371 . S
C388 H397 0.931 . S
C389 C385 1.328 . S
C389 C390 1.433 . S
C389 H398 0.931 . S
C390 C386 1.323 . S
C390 C389 1.433 . S
C390 H399 0.933 . S
C391 Dy361 2.738 . S
C391 O371 1.255 . S
C391 O372 1.249 . S
C391 C385 1.516 . S
H392 C378 0.930 . S
H393 C379 0.931 . S
H394 C380 0.931 . S
H395 C381 0.933 . S
H396 C387 0.930 . S
H397 C388 0.931 . S
H398 C389 0.931 . S
H399 C390 0.933 . S
Dy400 O403 2.307 . S
Dy400 O405 2.395 . S
Dy400 O406 2.379 . S
Dy400 O408 2.339 . S
Dy400 O410 2.298 . S
Dy400 O414 2.275 . S
Dy400 C422 2.738 . S
Dy401 O404 2.298 . S
Dy401 O407 2.275 . S
Dy401 O409 2.307 . S
Dy401 O411 2.395 . S
Dy401 O412 2.379 . S
Dy401 O415 2.339 . S
Dy401 C431 2.738 . S
C402 O414 1.254 . S
C402 O415 1.257 . S
O403 Dy400 2.307 . S
O403 C413 1.266 . S
O404 Dy401 2.298 . S
O404 C413 1.236 . S
O405 Dy400 2.395 . S
O405 C422 1.255 . S
O406 Dy400 2.379 . S
O406 C422 1.249 . S
O407 Dy401 2.275 . S
O407 C423 1.254 . S
O408 Dy400 2.339 . S
O408 C423 1.257 . S
O409 Dy401 2.307 . S
O409 C424 1.266 . S
O410 Dy400 2.298 . S
O410 C424 1.236 . S
O411 Dy401 2.395 . S
O411 C431 1.255 . S
O412 Dy401 2.379 . S
O412 C431 1.249 . S
C413 O403 1.266 . S
C413 O404 1.236 . S
O414 Dy400 2.275 . S
O414 C402 1.254 . S
O415 Dy401 2.339 . S
O415 C402 1.257 . S
C416 C419 1.344 . S
C416 C420 1.328 . S
C416 C422 1.516 . S
C417 C418 1.304 . S
C417 C421 1.323 . S
C418 C417 1.304 . S
C418 C419 1.371 . S
C418 H432 0.930 . S
C419 C416 1.344 . S
C419 C418 1.371 . S
C419 H433 0.931 . S
C420 C416 1.328 . S
C420 C421 1.433 . S
C420 H434 0.931 . S
C421 C417 1.323 . S
C421 C420 1.433 . S
C421 H435 0.933 . S
C422 Dy400 2.738 . S
C422 O405 1.255 . S
C422 O406 1.249 . S
C422 C416 1.516 . S
C423 O407 1.254 . S
C423 O408 1.257 . S
C424 O409 1.266 . S
C424 O410 1.236 . S
C425 C428 1.344 . S
C425 C429 1.328 . S
C425 C431 1.516 . S
C426 C427 1.304 . S
C426 C430 1.323 . S
C427 C426 1.304 . S
C427 C428 1.371 1_545 S
C427 H436 0.930 . S
C428 C425 1.344 . S
C428 C427 1.371 1_565 S
C428 H437 0.931 . S
C429 C425 1.328 . S
C429 C430 1.433 1_565 S
C429 H438 0.931 . S
C430 C426 1.323 . S
C430 C429 1.433 1_545 S
C430 H439 0.933 . S
C431 Dy401 2.738 . S
C431 O411 1.255 . S
C431 O412 1.249 . S
C431 C425 1.516 . S
H432 C418 0.930 . S
H433 C419 0.931 . S
H434 C420 0.931 . S
H435 C421 0.933 . S
H436 C427 0.930 . S
H437 C428 0.931 . S
H438 C429 0.931 . S
H439 C430 0.933 . S
Dy440 O443 2.307 . S
Dy440 O445 2.395 . S
Dy440 O446 2.379 . S
Dy440 O448 2.339 . S
Dy440 O450 2.298 . S
Dy440 O454 2.275 . S
Dy440 C462 2.738 . S
Dy441 O444 2.298 . S
Dy441 O447 2.275 . S
Dy441 O449 2.307 . S
Dy441 O451 2.395 . S
Dy441 O452 2.379 . S
Dy441 O455 2.339 . S
Dy441 C471 2.738 . S
C442 O454 1.254 . S
C442 O455 1.257 . S
O443 Dy440 2.307 . S
O443 C453 1.266 . S
O444 Dy441 2.298 . S
O444 C453 1.236 . S
O445 Dy440 2.395 . S
O445 C462 1.255 . S
O446 Dy440 2.379 . S
O446 C462 1.249 . S
O447 Dy441 2.275 . S
O447 C463 1.254 . S
O448 Dy440 2.339 . S
O448 C463 1.257 . S
O449 Dy441 2.307 . S
O449 C464 1.266 . S
O450 Dy440 2.298 . S
O450 C464 1.236 . S
O451 Dy441 2.395 . S
O451 C471 1.255 . S
O452 Dy441 2.379 . S
O452 C471 1.249 . S
C453 O443 1.266 . S
C453 O444 1.236 . S
O454 Dy440 2.275 . S
O454 C442 1.254 . S
O455 Dy441 2.339 . S
O455 C442 1.257 . S
C456 C459 1.344 . S
C456 C460 1.328 . S
C456 C462 1.516 . S
C457 C458 1.304 . S
C457 C461 1.323 . S
C458 C457 1.304 . S
C458 C459 1.371 . S
C458 H472 0.930 . S
C459 C456 1.344 . S
C459 C458 1.371 . S
C459 H473 0.931 . S
C460 C456 1.328 . S
C460 C461 1.433 . S
C460 H474 0.931 . S
C461 C457 1.323 . S
C461 C460 1.433 . S
C461 H475 0.933 . S
C462 Dy440 2.738 . S
C462 O445 1.255 . S
C462 O446 1.249 . S
C462 C456 1.516 . S
C463 O447 1.254 . S
C463 O448 1.257 . S
C464 O449 1.266 . S
C464 O450 1.236 . S
C465 C468 1.344 . S
C465 C469 1.328 . S
C465 C471 1.516 . S
C466 C467 1.304 . S
C466 C470 1.323 . S
C467 C466 1.304 . S
C467 C468 1.371 . S
C467 H476 0.930 . S
C468 C465 1.344 . S
C468 C467 1.371 . S
C468 H477 0.931 . S
C469 C465 1.328 . S
C469 C470 1.433 . S
C469 H478 0.931 . S
C470 C466 1.323 . S
C470 C469 1.433 . S
C470 H479 0.933 . S
C471 Dy441 2.738 . S
C471 O451 1.255 . S
C471 O452 1.249 . S
C471 C465 1.516 . S
H472 C458 0.930 . S
H473 C459 0.931 . S
H474 C460 0.931 . S
H475 C461 0.933 . S
H476 C467 0.930 . S
H477 C468 0.931 . S
H478 C469 0.931 . S
H479 C470 0.933 . S
C480 C481 1.349 . S
C480 C482 1.327 . S
C480 H505 0.950 . S
C481 C480 1.349 . S
C481 C497 1.349 . S
C482 C480 1.327 . S
C482 C501 1.429 . S
C482 H506 0.950 . S
C483 C500 1.574 . S
C483 C502 1.368 . S
C483 H507 0.949 . S
H484 C488 0.949 . S
C485 C486 1.349 . S
C485 C487 1.327 . S
C485 H508 0.950 . S
C486 C485 1.349 . S
C486 C498 1.349 . S
C487 C485 1.327 . S
C487 C503 1.429 . S
C487 H509 0.950 . S
C488 H484 0.949 . S
C488 C496 1.574 . S
C488 C504 1.368 . S
H489 C497 0.950 . S
H490 C495 0.950 . S
H491 C496 0.949 . S
H492 C498 0.950 . S
H493 C499 0.950 . S
H494 C500 0.949 . S
C495 H490 0.950 . S
C495 C497 1.327 . S
C495 C501 1.429 . S
C496 C488 1.574 . S
C496 H491 0.949 . S
C496 C502 1.368 . S
C497 C481 1.349 . S
C497 H489 0.950 . S
C497 C495 1.327 . S
C498 C486 1.349 . S
C498 H492 0.950 . S
C498 C499 1.327 . S
C499 H493 0.950 . S
C499 C498 1.327 . S
C499 C503 1.429 . S
C500 C483 1.574 . S
C500 H494 0.949 . S
C500 C504 1.368 . S
C501 C482 1.429 . S
C501 C495 1.429 . S
C501 C502 1.523 . S
C502 C483 1.368 . S
C502 C496 1.368 . S
C502 C501 1.523 . S
C503 C487 1.429 . S
C503 C499 1.429 . S
C503 C504 1.523 . S
C504 C488 1.368 . S
C504 C500 1.368 . S
C504 C503 1.523 . S
H505 C480 0.950 . S
H506 C482 0.950 . S
H507 C483 0.949 . S
H508 C485 0.950 . S
H509 C487 0.950 . S
C510 C511 1.349 . S
C510 C512 1.327 . S
C510 H535 0.950 . S
C511 C510 1.349 . S
C511 C527 1.349 . S
C512 C510 1.327 . S
C512 C531 1.429 . S
C512 H536 0.950 . S
C513 C530 1.574 1_455 S
C513 C532 1.368 . S
C513 H537 0.949 . S
H514 C518 0.949 . S
C515 C516 1.349 . S
C515 C517 1.327 . S
C515 H538 0.950 . S
C516 C515 1.349 . S
C516 C528 1.349 . S
C517 C515 1.327 . S
C517 C533 1.429 . S
C517 H539 0.950 . S
C518 H514 0.949 . S
C518 C526 1.574 1_655 S
C518 C534 1.368 . S
H519 C527 0.950 . S
H520 C525 0.950 . S
H521 C526 0.949 . S
H522 C528 0.950 . S
H523 C529 0.950 . S
H524 C530 0.949 . S
C525 H520 0.950 . S
C525 C527 1.327 . S
C525 C531 1.429 . S
C526 C518 1.574 1_455 S
C526 H521 0.949 . S
C526 C532 1.368 . S
C527 C511 1.349 . S
C527 H519 0.950 . S
C527 C525 1.327 . S
C528 C516 1.349 . S
C528 H522 0.950 . S
C528 C529 1.327 . S
C529 H523 0.950 . S
C529 C528 1.327 . S
C529 C533 1.429 . S
C530 C513 1.574 1_655 S
C530 H524 0.949 . S
C530 C534 1.368 . S
C531 C512 1.429 . S
C531 C525 1.429 . S
C531 C532 1.523 . S
C532 C513 1.368 . S
C532 C526 1.368 . S
C532 C531 1.523 . S
C533 C517 1.429 . S
C533 C529 1.429 . S
C533 C534 1.523 . S
C534 C518 1.368 . S
C534 C530 1.368 . S
C534 C533 1.523 . S
H535 C510 0.950 . S
H536 C512 0.950 . S
H537 C513 0.949 . S
H538 C515 0.950 . S
H539 C517 0.950 . S
C540 C541 1.349 . S
C540 C542 1.327 . S
C540 H565 0.950 . S
C541 C540 1.349 . S
C541 C557 1.349 . S
C542 C540 1.327 . S
C542 C561 1.429 . S
C542 H566 0.950 . S
C543 C560 1.574 1_545 S
C543 C562 1.368 . S
C543 H567 0.949 . S
H544 C548 0.949 . S
C545 C546 1.349 . S
C545 C547 1.327 . S
C545 H568 0.950 . S
C546 C545 1.349 . S
C546 C558 1.349 . S
C547 C545 1.327 . S
C547 C563 1.429 . S
C547 H569 0.950 . S
C548 H544 0.949 . S
C548 C556 1.574 1_565 S
C548 C564 1.368 . S
H549 C557 0.950 . S
H550 C555 0.950 . S
H551 C556 0.949 . S
H552 C558 0.950 . S
H553 C559 0.950 . S
H554 C560 0.949 . S
C555 H550 0.950 . S
C555 C557 1.327 . S
C555 C561 1.429 . S
C556 C548 1.574 1_545 S
C556 H551 0.949 . S
C556 C562 1.368 . S
C557 C541 1.349 . S
C557 H549 0.950 . S
C557 C555 1.327 . S
C558 C546 1.349 . S
C558 H552 0.950 . S
C558 C559 1.327 . S
C559 H553 0.950 . S
C559 C558 1.327 . S
C559 C563 1.429 . S
C560 C543 1.574 1_565 S
C560 H554 0.949 . S
C560 C564 1.368 . S
C561 C542 1.429 . S
C561 C555 1.429 . S
C561 C562 1.523 . S
C562 C543 1.368 . S
C562 C556 1.368 . S
C562 C561 1.523 . S
C563 C547 1.429 . S
C563 C559 1.429 . S
C563 C564 1.523 . S
C564 C548 1.368 . S
C564 C560 1.368 . S
C564 C563 1.523 . S
H565 C540 0.950 . S
H566 C542 0.950 . S
H567 C543 0.949 . S
H568 C545 0.950 . S
H569 C547 0.950 . S
C570 C571 1.349 . S
C570 C572 1.327 . S
C570 H595 0.950 . S
C571 C570 1.349 . S
C571 C587 1.349 . S
C572 C570 1.327 . S
C572 C591 1.429 . S
C572 H596 0.950 . S
C573 C590 1.574 . S
C573 C592 1.368 . S
C573 H597 0.949 . S
H574 C578 0.949 . S
C575 C576 1.349 . S
C575 C577 1.327 . S
C575 H598 0.950 . S
C576 C575 1.349 . S
C576 C588 1.349 . S
C577 C575 1.327 . S
C577 C593 1.429 . S
C577 H599 0.950 . S
C578 H574 0.949 . S
C578 C586 1.574 . S
C578 C594 1.368 . S
H579 C587 0.950 . S
H580 C585 0.950 . S
H581 C586 0.949 . S
H582 C588 0.950 . S
H583 C589 0.950 . S
H584 C590 0.949 . S
C585 H580 0.950 . S
C585 C587 1.327 . S
C585 C591 1.429 . S
C586 C578 1.574 . S
C586 H581 0.949 . S
C586 C592 1.368 . S
C587 C571 1.349 . S
C587 H579 0.950 . S
C587 C585 1.327 . S
C588 C576 1.349 . S
C588 H582 0.950 . S
C588 C589 1.327 . S
C589 H583 0.950 . S
C589 C588 1.327 . S
C589 C593 1.429 . S
C590 C573 1.574 . S
C590 H584 0.949 . S
C590 C594 1.368 . S
C591 C572 1.429 . S
C591 C585 1.429 . S
C591 C592 1.523 . S
C592 C573 1.368 . S
C592 C586 1.368 . S
C592 C591 1.523 . S
C593 C577 1.429 . S
C593 C589 1.429 . S
C593 C594 1.523 . S
C594 C578 1.368 . S
C594 C590 1.368 . S
C594 C593 1.523 . S
H595 C570 0.950 . S
H596 C572 0.950 . S
H597 C573 0.949 . S
H598 C575 0.950 . S
H599 C577 0.950 . S
C600 C601 1.349 . S
C600 C602 1.327 . S
C600 H625 0.950 . S
C601 C600 1.349 . S
C601 C617 1.349 . S
C602 C600 1.327 . S
C602 C621 1.429 . S
C602 H626 0.950 . S
C603 C620 1.574 1_455 S
C603 C622 1.368 . S
C603 H627 0.949 . S
H604 C608 0.949 . S
C605 C606 1.349 . S
C605 C607 1.327 . S
C605 H628 0.950 . S
C606 C605 1.349 . S
C606 C618 1.349 . S
C607 C605 1.327 . S
C607 C623 1.429 . S
C607 H629 0.950 . S
C608 H604 0.949 . S
C608 C616 1.574 1_655 S
C608 C624 1.368 . S
H609 C617 0.950 . S
H610 C615 0.950 . S
H611 C616 0.949 . S
H612 C618 0.950 . S
H613 C619 0.950 . S
H614 C620 0.949 . S
C615 H610 0.950 . S
C615 C617 1.327 . S
C615 C621 1.429 . S
C616 C608 1.574 1_455 S
C616 H611 0.949 . S
C616 C622 1.368 . S
C617 C601 1.349 . S
C617 H609 0.950 . S
C617 C615 1.327 . S
C618 C606 1.349 . S
C618 H612 0.950 . S
C618 C619 1.327 . S
C619 H613 0.950 . S
C619 C618 1.327 . S
C619 C623 1.429 . S
C620 C603 1.574 1_655 S
C620 H614 0.949 . S
C620 C624 1.368 . S
C621 C602 1.429 . S
C621 C615 1.429 . S
C621 C622 1.523 . S
C622 C603 1.368 . S
C622 C616 1.368 . S
C622 C621 1.523 . S
C623 C607 1.429 . S
C623 C619 1.429 . S
C623 C624 1.523 . S
C624 C608 1.368 . S
C624 C620 1.368 . S
C624 C623 1.523 . S
H625 C600 0.950 . S
H626 C602 0.950 . S
H627 C603 0.949 . S
H628 C605 0.950 . S
H629 C607 0.950 . S
C630 C631 1.349 . S
C630 C632 1.327 . S
C630 H655 0.950 . S
C631 C630 1.349 . S
C631 C647 1.349 . S
C632 C630 1.327 . S
C632 C651 1.429 . S
C632 H656 0.950 . S
C633 C650 1.574 1_565 S
C633 C652 1.368 . S
C633 H657 0.949 . S
H634 C638 0.949 . S
C635 C636 1.349 . S
C635 C637 1.327 . S
C635 H658 0.950 . S
C636 C635 1.349 . S
C636 C648 1.349 . S
C637 C635 1.327 . S
C637 C653 1.429 . S
C637 H659 0.950 . S
C638 H634 0.949 . S
C638 C646 1.574 1_545 S
C638 C654 1.368 . S
H639 C647 0.950 . S
H640 C645 0.950 . S
H641 C646 0.949 . S
H642 C648 0.950 . S
H643 C649 0.950 . S
H644 C650 0.949 . S
C645 H640 0.950 . S
C645 C647 1.327 . S
C645 C651 1.429 . S
C646 C638 1.574 1_565 S
C646 H641 0.949 . S
C646 C652 1.368 . S
C647 C631 1.349 . S
C647 H639 0.950 . S
C647 C645 1.327 . S
C648 C636 1.349 . S
C648 H642 0.950 . S
C648 C649 1.327 . S
C649 H643 0.950 . S
C649 C648 1.327 . S
C649 C653 1.429 . S
C650 C633 1.574 1_545 S
C650 H644 0.949 . S
C650 C654 1.368 . S
C651 C632 1.429 . S
C651 C645 1.429 . S
C651 C652 1.523 . S
C652 C633 1.368 . S
C652 C646 1.368 . S
C652 C651 1.523 . S
C653 C637 1.429 . S
C653 C649 1.429 . S
C653 C654 1.523 . S
C654 C638 1.368 . S
C654 C650 1.368 . S
C654 C653 1.523 . S
H655 C630 0.950 . S
H656 C632 0.950 . S
H657 C633 0.949 . S
H658 C635 0.950 . S
H659 C637 0.950 . S
C660 C661 1.349 . S
C660 C662 1.327 . S
C660 H685 0.950 . S
C661 C660 1.349 . S
C661 C677 1.349 . S
C662 C660 1.327 . S
C662 C681 1.429 . S
C662 H686 0.950 . S
C663 C680 1.574 . S
C663 C682 1.368 . S
C663 H687 0.949 . S
H664 C668 0.949 . S
C665 C666 1.349 . S
C665 C667 1.327 . S
C665 H688 0.950 . S
C666 C665 1.349 . S
C666 C678 1.349 . S
C667 C665 1.327 . S
C667 C683 1.429 . S
C667 H689 0.950 . S
C668 H664 0.949 . S
C668 C676 1.574 . S
C668 C684 1.368 . S
H669 C677 0.950 . S
H670 C675 0.950 . S
H671 C676 0.949 . S
H672 C678 0.950 . S
H673 C679 0.950 . S
H674 C680 0.949 . S
C675 H670 0.950 . S
C675 C677 1.327 . S
C675 C681 1.429 . S
C676 C668 1.574 . S
C676 H671 0.949 . S
C676 C682 1.368 . S
C677 C661 1.349 . S
C677 H669 0.950 . S
C677 C675 1.327 . S
C678 C666 1.349 . S
C678 H672 0.950 . S
C678 C679 1.327 . S
C679 H673 0.950 . S
C679 C678 1.327 . S
C679 C683 1.429 . S
C680 C663 1.574 . S
C680 H674 0.949 . S
C680 C684 1.368 . S
C681 C662 1.429 . S
C681 C675 1.429 . S
C681 C682 1.523 . S
C682 C663 1.368 . S
C682 C676 1.368 . S
C682 C681 1.523 . S
C683 C667 1.429 . S
C683 C679 1.429 . S
C683 C684 1.523 . S
C684 C668 1.368 . S
C684 C680 1.368 . S
C684 C683 1.523 . S
H685 C660 0.950 . S
H686 C662 0.950 . S
H687 C663 0.949 . S
H688 C665 0.950 . S
H689 C667 0.950 . S
C690 C691 1.349 . S
C690 C692 1.327 . S
C690 H715 0.950 . S
C691 C690 1.349 . S
C691 C707 1.349 . S
C692 C690 1.327 . S
C692 C711 1.429 . S
C692 H716 0.950 . S
C693 C710 1.574 1_455 S
C693 C712 1.368 . S
C693 H717 0.949 . S
H694 C698 0.949 . S
C695 C696 1.349 . S
C695 C697 1.327 . S
C695 H718 0.950 . S
C696 C695 1.349 . S
C696 C708 1.349 . S
C697 C695 1.327 . S
C697 C713 1.429 . S
C697 H719 0.950 . S
C698 H694 0.949 . S
C698 C706 1.574 1_655 S
C698 C714 1.368 . S
H699 C707 0.950 . S
H700 C705 0.950 . S
H701 C706 0.949 . S
H702 C708 0.950 . S
H703 C709 0.950 . S
H704 C710 0.949 . S
C705 H700 0.950 . S
C705 C707 1.327 . S
C705 C711 1.429 . S
C706 C698 1.574 1_455 S
C706 H701 0.949 . S
C706 C712 1.368 . S
C707 C691 1.349 . S
C707 H699 0.950 . S
C707 C705 1.327 . S
C708 C696 1.349 . S
C708 H702 0.950 . S
C708 C709 1.327 . S
C709 H703 0.950 . S
C709 C708 1.327 . S
C709 C713 1.429 . S
C710 C693 1.574 1_655 S
C710 H704 0.949 . S
C710 C714 1.368 . S
C711 C692 1.429 . S
C711 C705 1.429 . S
C711 C712 1.523 . S
C712 C693 1.368 . S
C712 C706 1.368 . S
C712 C711 1.523 . S
C713 C697 1.429 . S
C713 C709 1.429 . S
C713 C714 1.523 . S
C714 C698 1.368 . S
C714 C710 1.368 . S
C714 C713 1.523 . S
H715 C690 0.950 . S
H716 C692 0.950 . S
H717 C693 0.949 . S
H718 C695 0.950 . S
H719 C697 0.950 . S
C720 C721 1.349 . S
C720 C722 1.327 . S
C720 H745 0.950 . S
C721 C720 1.349 . S
C721 C737 1.349 . S
C722 C720 1.327 . S
C722 C741 1.429 . S
C722 H746 0.950 . S
C723 C740 1.572 . S
C723 C742 1.370 1_545 S
C723 H747 0.949 1_545 S
H724 C728 0.949 . S
C725 C726 1.349 . S
C725 C727 1.327 . S
C725 H748 0.950 . S
C726 C725 1.349 . S
C726 C738 1.349 . S
C727 C725 1.327 . S
C727 C743 1.429 . S
C727 H749 0.950 . S
C728 H724 0.949 . S
C728 C736 1.574 1_545 S
C728 C744 1.368 . S
H729 C737 0.950 . S
H730 C735 0.950 . S
H731 C736 0.949 . S
H732 C738 0.950 . S
H733 C739 0.950 . S
H734 C740 0.949 . S
C735 H730 0.950 . S
C735 C737 1.327 . S
C735 C741 1.429 . S
C736 C728 1.574 1_565 S
C736 H731 0.949 . S
C736 C742 1.368 . S
C737 C721 1.349 . S
C737 H729 0.950 . S
C737 C735 1.327 . S
C738 C726 1.349 . S
C738 H732 0.950 . S
C738 C739 1.327 . S
C739 H733 0.950 . S
C739 C738 1.327 . S
C739 C743 1.429 . S
C740 C723 1.572 . S
C740 H734 0.949 . S
C740 C744 1.368 . S
C741 C722 1.429 . S
C741 C735 1.429 . S
C741 C742 1.523 . S
C742 C723 1.370 1_565 S
C742 C736 1.368 . S
C742 C741 1.523 . S
C743 C727 1.429 . S
C743 C739 1.429 . S
C743 C744 1.523 . S
C744 C728 1.368 . S
C744 C740 1.368 . S
C744 C743 1.523 . S
H745 C720 0.950 . S
H746 C722 0.950 . S
H747 C723 0.949 1_565 S
H748 C725 0.950 . S
H749 C727 0.950 . S
C750 C751 1.349 . S
C750 C752 1.327 . S
C750 H775 0.950 . S
C751 C750 1.349 . S
C751 C767 1.349 . S
C752 C750 1.327 . S
C752 C771 1.429 . S
C752 H776 0.950 . S
C753 C770 1.574 . S
C753 C772 1.368 . S
C753 H777 0.949 . S
H754 C758 0.949 . S
C755 C756 1.349 . S
C755 C757 1.327 . S
C755 H778 0.950 . S
C756 C755 1.349 . S
C756 C768 1.349 . S
C757 C755 1.327 . S
C757 C773 1.429 . S
C757 H779 0.950 . S
C758 H754 0.949 . S
C758 C766 1.574 . S
C758 C774 1.368 . S
H759 C767 0.950 . S
H760 C765 0.950 . S
H761 C766 0.949 . S
H762 C768 0.950 . S
H763 C769 0.950 . S
H764 C770 0.949 . S
C765 H760 0.950 . S
C765 C767 1.327 . S
C765 C771 1.429 . S
C766 C758 1.574 . S
C766 H761 0.949 . S
C766 C772 1.368 . S
C767 C751 1.349 . S
C767 H759 0.950 . S
C767 C765 1.327 . S
C768 C756 1.349 . S
C768 H762 0.950 . S
C768 C769 1.327 . S
C769 H763 0.950 . S
C769 C768 1.327 . S
C769 C773 1.429 . S
C770 C753 1.574 . S
C770 H764 0.949 . S
C770 C774 1.368 . S
C771 C752 1.429 . S
C771 C765 1.429 . S
C771 C772 1.523 . S
C772 C753 1.368 . S
C772 C766 1.368 . S
C772 C771 1.523 . S
C773 C757 1.429 . S
C773 C769 1.429 . S
C773 C774 1.523 . S
C774 C758 1.368 . S
C774 C770 1.368 . S
C774 C773 1.523 . S
H775 C750 0.950 . S
H776 C752 0.950 . S
H777 C753 0.949 . S
H778 C755 0.950 . S
H779 C757 0.950 . S
C780 C781 1.349 . S
C780 C782 1.327 . S
C780 H805 0.950 . S
C781 C780 1.349 . S
C781 C797 1.349 . S
C782 C780 1.327 . S
C782 C801 1.429 . S
C782 H806 0.950 . S
C783 C800 1.574 . S
C783 C802 1.368 1_655 S
C783 H807 0.949 1_655 S
H784 C788 0.949 . S
C785 C786 1.349 . S
C785 C787 1.327 . S
C785 H808 0.950 . S
C786 C785 1.349 . S
C786 C798 1.349 . S
C787 C785 1.327 . S
C787 C803 1.429 . S
C787 H809 0.950 . S
C788 H784 0.949 . S
C788 C796 1.574 1_655 S
C788 C804 1.368 . S
H789 C797 0.950 . S
H790 C795 0.950 . S
H791 C796 0.949 . S
H792 C798 0.950 . S
H793 C799 0.950 . S
H794 C800 0.949 . S
C795 H790 0.950 . S
C795 C797 1.327 . S
C795 C801 1.429 . S
C796 C788 1.574 1_455 S
C796 H791 0.949 . S
C796 C802 1.368 . S
C797 C781 1.349 . S
C797 H789 0.950 . S
C797 C795 1.327 . S
C798 C786 1.349 . S
C798 H792 0.950 . S
C798 C799 1.327 . S
C799 H793 0.950 . S
C799 C798 1.327 . S
C799 C803 1.429 . S
C800 C783 1.574 . S
C800 H794 0.949 . S
C800 C804 1.368 . S
C801 C782 1.429 . S
C801 C795 1.429 . S
C801 C802 1.523 . S
C802 C783 1.368 1_455 S
C802 C796 1.368 . S
C802 C801 1.523 . S
C803 C787 1.429 . S
C803 C799 1.429 . S
C803 C804 1.523 . S
C804 C788 1.368 . S
C804 C800 1.368 . S
C804 C803 1.523 . S
H805 C780 0.950 . S
H806 C782 0.950 . S
H807 C783 0.949 1_455 S
H808 C785 0.950 . S
H809 C787 0.950 . S
C810 C811 1.349 . S
C810 C812 1.327 . S
C810 H835 0.950 . S
C811 C810 1.349 . S
C811 C827 1.349 . S
C812 C810 1.327 . S
C812 C831 1.429 . S
C812 H836 0.950 . S
C813 C830 1.593 . S
C813 C832 1.368 . S
C813 H837 0.949 . S
H814 C818 0.949 . S
C815 C816 1.349 . S
C815 C817 1.327 . S
C815 H838 0.950 . S
C816 C815 1.349 . S
C816 C828 1.349 . S
C817 C815 1.327 . S
C817 C833 1.429 . S
C817 H839 0.950 . S
C818 H814 0.949 . S
C818 C826 1.574 1_565 S
C818 C834 1.368 . S
H819 C827 0.950 . S
H820 C825 0.950 . S
H821 C826 0.949 . S
H822 C828 0.950 . S
H823 C829 0.950 . S
H824 C830 0.952 1_565 S
C825 H820 0.950 . S
C825 C827 1.327 . S
C825 C831 1.429 . S
C826 C818 1.574 1_545 S
C826 H821 0.949 . S
C826 C832 1.368 . S
C827 C811 1.349 . S
C827 H819 0.950 . S
C827 C825 1.327 . S
C828 C816 1.349 . S
C828 H822 0.950 . S
C828 C829 1.327 . S
C829 H823 0.950 . S
C829 C828 1.327 . S
C829 C833 1.429 . S
C830 C813 1.593 . S
C830 H824 0.952 1_545 S
C830 C834 1.346 1_545 S
C831 C812 1.429 . S
C831 C825 1.429 . S
C831 C832 1.523 . S
C832 C813 1.368 . S
C832 C826 1.368 . S
C832 C831 1.523 . S
C833 C817 1.429 . S
C833 C829 1.429 . S
C833 C834 1.523 . S
C834 C818 1.368 . S
C834 C830 1.346 1_565 S
C834 C833 1.523 . S
H835 C810 0.950 . S
H836 C812 0.950 . S
H837 C813 0.949 . S
H838 C815 0.950 . S
H839 C817 0.950 . S
C840 C841 1.349 . S
C840 C842 1.327 . S
C840 H865 0.950 . S
C841 C840 1.349 . S
C841 C857 1.349 . S
C842 C840 1.327 . S
C842 C861 1.429 . S
C842 H866 0.950 . S
C843 C860 1.574 . S
C843 C862 1.368 . S
C843 H867 0.949 . S
H844 C848 0.949 . S
C845 C846 1.349 . S
C845 C847 1.327 . S
C845 H868 0.950 . S
C846 C845 1.349 . S
C846 C858 1.349 . S
C847 C845 1.327 . S
C847 C863 1.429 . S
C847 H869 0.950 . S
C848 H844 0.949 . S
C848 C856 1.574 . S
C848 C864 1.368 . S
H849 C857 0.950 . S
H850 C855 0.950 . S
H851 C856 0.949 . S
H852 C858 0.950 . S
H853 C859 0.950 . S
H854 C860 0.949 . S
C855 H850 0.950 . S
C855 C857 1.327 . S
C855 C861 1.429 . S
C856 C848 1.574 . S
C856 H851 0.949 . S
C856 C862 1.368 . S
C857 C841 1.349 . S
C857 H849 0.950 . S
C857 C855 1.327 . S
C858 C846 1.349 . S
C858 H852 0.950 . S
C858 C859 1.327 . S
C859 H853 0.950 . S
C859 C858 1.327 . S
C859 C863 1.429 . S
C860 C843 1.574 . S
C860 H854 0.949 . S
C860 C864 1.368 . S
C861 C842 1.429 . S
C861 C855 1.429 . S
C861 C862 1.523 . S
C862 C843 1.368 . S
C862 C856 1.368 . S
C862 C861 1.523 . S
C863 C847 1.429 . S
C863 C859 1.429 . S
C863 C864 1.523 . S
C864 C848 1.368 . S
C864 C860 1.368 . S
C864 C863 1.523 . S
H865 C840 0.950 . S
H866 C842 0.950 . S
H867 C843 0.949 . S
H868 C845 0.950 . S
H869 C847 0.950 . S
C870 C871 1.349 . S
C870 C872 1.327 . S
C870 H895 0.950 . S
C871 C870 1.349 . S
C871 C887 1.349 . S
C872 C870 1.327 . S
C872 C891 1.429 . S
C872 H896 0.950 . S
C873 C890 1.574 . S
C873 C892 1.368 . S
C873 H897 0.949 . S
H874 C878 0.949 . S
C875 C876 1.349 . S
C875 C877 1.327 . S
C875 H898 0.950 . S
C876 C875 1.349 . S
C876 C888 1.349 . S
C877 C875 1.327 . S
C877 C893 1.429 . S
C877 H899 0.950 . S
C878 H874 0.949 . S
C878 C886 1.574 . S
C878 C894 1.368 . S
H879 C887 0.950 . S
H880 C885 0.950 . S
H881 C886 0.949 . S
H882 C888 0.950 . S
H883 C889 0.950 . S
H884 C890 0.949 . S
C885 H880 0.950 . S
C885 C887 1.327 . S
C885 C891 1.429 . S
C886 C878 1.574 . S
C886 H881 0.949 . S
C886 C892 1.368 . S
C887 C871 1.349 . S
C887 H879 0.950 . S
C887 C885 1.327 . S
C888 C876 1.349 . S
C888 H882 0.950 . S
C888 C889 1.327 . S
C889 H883 0.950 . S
C889 C888 1.327 . S
C889 C893 1.429 . S
C890 C873 1.574 . S
C890 H884 0.949 . S
C890 C894 1.368 . S
C891 C872 1.429 . S
C891 C885 1.429 . S
C891 C892 1.523 . S
C892 C873 1.368 . S
C892 C886 1.368 . S
C892 C891 1.523 . S
C893 C877 1.429 . S
C893 C889 1.429 . S
C893 C894 1.523 . S
C894 C878 1.368 . S
C894 C890 1.368 . S
C894 C893 1.523 . S
H895 C870 0.950 . S
H896 C872 0.950 . S
H897 C873 0.949 . S
H898 C875 0.950 . S
H899 C877 0.950 . S
C900 C901 1.349 . S
C900 C902 1.327 . S
C900 H925 0.950 . S
C901 C900 1.349 . S
C901 C917 1.349 . S
C902 C900 1.327 . S
C902 C921 1.429 . S
C902 H926 0.950 . S
C903 C920 1.574 . S
C903 C922 1.368 . S
C903 H927 0.949 . S
H904 C908 0.949 . S
C905 C906 1.349 . S
C905 C907 1.327 . S
C905 H928 0.950 . S
C906 C905 1.349 . S
C906 C918 1.349 . S
C907 C905 1.327 . S
C907 C923 1.429 . S
C907 H929 0.950 . S
C908 H904 0.949 . S
C908 C916 1.574 . S
C908 C924 1.368 . S
H909 C917 0.950 . S
H910 C915 0.950 . S
H911 C916 0.949 . S
H912 C918 0.950 . S
H913 C919 0.950 . S
H914 C920 0.949 . S
C915 H910 0.950 . S
C915 C917 1.327 . S
C915 C921 1.429 . S
C916 C908 1.574 . S
C916 H911 0.949 . S
C916 C922 1.368 . S
C917 C901 1.349 . S
C917 H909 0.950 . S
C917 C915 1.327 . S
C918 C906 1.349 . S
C918 H912 0.950 . S
C918 C919 1.327 . S
C919 H913 0.950 . S
C919 C918 1.327 . S
C919 C923 1.429 . S
C920 C903 1.574 . S
C920 H914 0.949 . S
C920 C924 1.368 . S
C921 C902 1.429 . S
C921 C915 1.429 . S
C921 C922 1.523 . S
C922 C903 1.368 . S
C922 C916 1.368 . S
C922 C921 1.523 . S
C923 C907 1.429 . S
C923 C919 1.429 . S
C923 C924 1.523 . S
C924 C908 1.368 . S
C924 C920 1.368 . S
C924 C923 1.523 . S
H925 C900 0.950 . S
H926 C902 0.950 . S
H927 C903 0.949 . S
H928 C905 0.950 . S
H929 C907 0.950 . S
C930 C931 1.349 . S
C930 C932 1.327 . S
C930 H955 0.950 . S
C931 C930 1.349 . S
C931 C947 1.349 . S
C932 C930 1.327 . S
C932 C951 1.429 . S
C932 H956 0.950 . S
C933 C950 1.574 . S
C933 C952 1.368 . S
C933 H957 0.949 . S
H934 C938 0.949 . S
C935 C936 1.349 . S
C935 C937 1.327 . S
C935 H958 0.950 . S
C936 C935 1.349 . S
C936 C948 1.349 . S
C937 C935 1.327 . S
C937 C953 1.429 . S
C937 H959 0.950 . S
C938 H934 0.949 . S
C938 C946 1.574 . S
C938 C954 1.368 . S
H939 C947 0.950 . S
H940 C945 0.950 . S
H941 C946 0.949 . S
H942 C948 0.950 . S
H943 C949 0.950 . S
H944 C950 0.949 . S
C945 H940 0.950 . S
C945 C947 1.327 . S
C945 C951 1.429 . S
C946 C938 1.574 . S
C946 H941 0.949 . S
C946 C952 1.368 . S
C947 C931 1.349 . S
C947 H939 0.950 . S
C947 C945 1.327 . S
C948 C936 1.349 . S
C948 H942 0.950 . S
C948 C949 1.327 . S
C949 H943 0.950 . S
C949 C948 1.327 . S
C949 C953 1.429 . S
C950 C933 1.574 . S
C950 H944 0.949 . S
C950 C954 1.368 . S
C951 C932 1.429 . S
C951 C945 1.429 . S
C951 C952 1.523 . S
C952 C933 1.368 . S
C952 C946 1.368 . S
C952 C951 1.523 . S
C953 C937 1.429 . S
C953 C949 1.429 . S
C953 C954 1.523 . S
C954 C938 1.368 . S
C954 C950 1.368 . S
C954 C953 1.523 . S
H955 C930 0.950 . S
H956 C932 0.950 . S
H957 C933 0.949 . S
H958 C935 0.950 . S
H959 C937 0.950 . S
C960 C961 1.349 . S
C960 C962 1.327 . S
C960 H985 0.950 . S
C961 C960 1.349 . S
C961 C977 1.349 . S
C962 C960 1.327 . S
C962 C981 1.429 . S
C962 H986 0.950 . S
C963 C980 1.574 . S
C963 C982 1.368 . S
C963 H987 0.949 . S
H964 C968 0.949 . S
C965 C966 1.349 . S
C965 C967 1.327 . S
C965 H988 0.950 . S
C966 C965 1.349 . S
C966 C978 1.349 . S
C967 C965 1.327 . S
C967 C983 1.429 . S
C967 H989 0.950 . S
C968 H964 0.949 . S
C968 C976 1.574 . S
C968 C984 1.368 . S
H969 C977 0.950 . S
H970 C975 0.950 . S
H971 C976 0.949 . S
H972 C978 0.950 . S
H973 C979 0.950 . S
H974 C980 0.949 . S
C975 H970 0.950 . S
C975 C977 1.327 . S
C975 C981 1.429 . S
C976 C968 1.574 . S
C976 H971 0.949 . S
C976 C982 1.368 . S
C977 C961 1.349 . S
C977 H969 0.950 . S
C977 C975 1.327 . S
C978 C966 1.349 . S
C978 H972 0.950 . S
C978 C979 1.327 . S
C979 H973 0.950 . S
C979 C978 1.327 . S
C979 C983 1.429 . S
C980 C963 1.574 . S
C980 H974 0.949 . S
C980 C984 1.368 . S
C981 C962 1.429 . S
C981 C975 1.429 . S
C981 C982 1.523 . S
C982 C963 1.368 . S
C982 C976 1.368 . S
C982 C981 1.523 . S
C983 C967 1.429 . S
C983 C979 1.429 . S
C983 C984 1.523 . S
C984 C968 1.368 . S
C984 C980 1.368 . S
C984 C983 1.523 . S
H985 C960 0.950 . S
H986 C962 0.950 . S
H987 C963 0.949 . S
H988 C965 0.950 . S
H989 C967 0.950 . S
C990 C991 1.349 . S
C990 C992 1.327 . S
C990 H1015 0.950 . S
C991 C990 1.349 . S
C991 C1007 1.349 . S
C992 C990 1.327 . S
C992 C1011 1.429 . S
C992 H1016 0.950 . S
C993 C1010 1.574 . S
C993 C1012 1.368 . S
C993 H1017 0.949 . S
H994 C998 0.949 . S
C995 C996 1.349 . S
C995 C997 1.327 . S
C995 H1018 0.950 . S
C996 C995 1.349 . S
C996 C1008 1.349 . S
C997 C995 1.327 . S
C997 C1013 1.429 . S
C997 H1019 0.950 . S
C998 H994 0.949 . S
C998 C1006 1.574 . S
C998 C1014 1.368 . S
H999 C1007 0.950 . S
H1000 C1005 0.950 . S
H1001 C1006 0.949 . S
H1002 C1008 0.950 . S
H1003 C1009 0.950 . S
H1004 C1010 0.949 . S
C1005 H1000 0.950 . S
C1005 C1007 1.327 . S
C1005 C1011 1.429 . S
C1006 C998 1.574 . S
C1006 H1001 0.949 . S
C1006 C1012 1.368 . S
C1007 C991 1.349 . S
C1007 H999 0.950 . S
C1007 C1005 1.327 . S
C1008 C996 1.349 . S
C1008 H1002 0.950 . S
C1008 C1009 1.327 . S
C1009 H1003 0.950 . S
C1009 C1008 1.327 . S
C1009 C1013 1.429 . S
C1010 C993 1.574 . S
C1010 H1004 0.949 . S
C1010 C1014 1.368 . S
C1011 C992 1.429 . S
C1011 C1005 1.429 . S
C1011 C1012 1.523 . S
C1012 C993 1.368 . S
C1012 C1006 1.368 . S
C1012 C1011 1.523 . S
C1013 C997 1.429 . S
C1013 C1009 1.429 . S
C1013 C1014 1.523 . S
C1014 C998 1.368 . S
C1014 C1010 1.368 . S
C1014 C1013 1.523 . S
H1015 C990 0.950 . S
H1016 C992 0.950 . S
H1017 C993 0.949 . S
H1018 C995 0.950 . S
H1019 C997 0.950 . S
C1020 C1021 1.349 . S
C1020 C1022 1.327 . S
C1020 H1045 0.950 . S
C1021 C1020 1.349 . S
C1021 C1037 1.349 . S
C1022 C1020 1.327 . S
C1022 C1041 1.429 . S
C1022 H1046 0.950 . S
C1023 C1040 1.574 . S
C1023 C1042 1.368 1_554 S
C1023 H1047 0.949 . S
H1024 C1028 0.949 . S
C1025 C1026 1.349 . S
C1025 C1027 1.327 . S
C1025 H1048 0.950 . S
C1026 C1025 1.349 . S
C1026 C1038 1.349 . S
C1027 C1025 1.327 . S
C1027 C1043 1.429 . S
C1027 H1049 0.950 . S
C1028 H1024 0.949 . S
C1028 C1036 1.574 . S
C1028 C1044 1.368 1_556 S
H1029 C1037 0.950 . S
H1030 C1035 0.950 . S
H1031 C1036 0.949 . S
H1032 C1038 0.950 . S
H1033 C1039 0.950 . S
H1034 C1040 0.949 . S
C1035 H1030 0.950 . S
C1035 C1037 1.327 . S
C1035 C1041 1.429 . S
C1036 C1028 1.574 . S
C1036 H1031 0.949 . S
C1036 C1042 1.368 1_545 S
C1037 C1021 1.349 . S
C1037 H1029 0.950 . S
C1037 C1035 1.327 . S
C1038 C1026 1.349 . S
C1038 H1032 0.950 . S
C1038 C1039 1.327 . S
C1039 H1033 0.950 . S
C1039 C1038 1.327 . S
C1039 C1043 1.429 . S
C1040 C1023 1.574 . S
C1040 H1034 0.949 . S
C1040 C1044 1.368 1_565 S
C1041 C1022 1.429 . S
C1041 C1035 1.429 . S
C1041 C1042 1.523 . S
C1042 C1023 1.368 1_556 S
C1042 C1036 1.368 1_565 S
C1042 C1041 1.523 . S
C1043 C1027 1.429 . S
C1043 C1039 1.429 . S
C1043 C1044 1.523 . S
C1044 C1028 1.368 1_554 S
C1044 C1040 1.368 1_545 S
C1044 C1043 1.523 . S
H1045 C1020 0.950 . S
H1046 C1022 0.950 . S
H1047 C1023 0.949 . S
H1048 C1025 0.950 . S
H1049 C1027 0.950 . S
C1050 C1051 1.349 . S
C1050 C1052 1.327 . S
C1050 H1075 0.950 . S
C1051 C1050 1.349 . S
C1051 C1067 1.349 . S
C1052 C1050 1.327 . S
C1052 C1071 1.429 . S
C1052 H1076 0.950 . S
C1053 C1070 1.574 . S
C1053 C1072 1.368 . S
C1053 H1077 0.949 . S
H1054 C1058 0.949 . S
C1055 C1056 1.349 . S
C1055 C1057 1.327 . S
C1055 H1078 0.950 . S
C1056 C1055 1.349 . S
C1056 C1068 1.349 . S
C1057 C1055 1.327 . S
C1057 C1073 1.429 . S
C1057 H1079 0.950 . S
C1058 H1054 0.949 . S
C1058 C1066 1.574 . S
C1058 C1074 1.368 . S
H1059 C1067 0.950 . S
H1060 C1065 0.950 . S
H1061 C1066 0.949 . S
H1062 C1068 0.950 . S
H1063 C1069 0.950 . S
H1064 C1070 0.949 . S
C1065 H1060 0.950 . S
C1065 C1067 1.327 . S
C1065 C1071 1.429 . S
C1066 C1058 1.574 . S
C1066 H1061 0.949 . S
C1066 C1072 1.368 . S
C1067 C1051 1.349 . S
C1067 H1059 0.950 . S
C1067 C1065 1.327 . S
C1068 C1056 1.349 . S
C1068 H1062 0.950 . S
C1068 C1069 1.327 . S
C1069 H1063 0.950 . S
C1069 C1068 1.327 . S
C1069 C1073 1.429 . S
C1070 C1053 1.574 . S
C1070 H1064 0.949 . S
C1070 C1074 1.368 . S
C1071 C1052 1.429 . S
C1071 C1065 1.429 . S
C1071 C1072 1.523 . S
C1072 C1053 1.368 . S
C1072 C1066 1.368 . S
C1072 C1071 1.523 . S
C1073 C1057 1.429 . S
C1073 C1069 1.429 . S
C1073 C1074 1.523 . S
C1074 C1058 1.368 . S
C1074 C1070 1.368 . S
C1074 C1073 1.523 . S
H1075 C1050 0.950 . S
H1076 C1052 0.950 . S
H1077 C1053 0.949 . S
H1078 C1055 0.950 . S
H1079 C1057 0.950 . S
C1080 C1081 1.349 . S
C1080 C1082 1.327 . S
C1080 H1105 0.950 . S
C1081 C1080 1.349 . S
C1081 C1097 1.349 . S
C1082 C1080 1.327 . S
C1082 C1101 1.429 . S
C1082 H1106 0.950 . S
C1083 C1100 1.574 1_456 S
C1083 C1102 1.368 . S
C1083 H1107 0.949 . S
H1084 C1088 0.949 . S
C1085 C1086 1.349 . S
C1085 C1087 1.327 . S
C1085 H1108 0.950 . S
C1086 C1085 1.349 . S
C1086 C1098 1.349 . S
C1087 C1085 1.327 . S
C1087 C1103 1.429 . S
C1087 H1109 0.950 . S
C1088 H1084 0.949 . S
C1088 C1096 1.574 1_654 S
C1088 C1104 1.368 . S
H1089 C1097 0.950 . S
H1090 C1095 0.950 . S
H1091 C1096 0.949 . S
H1092 C1098 0.950 . S
H1093 C1099 0.950 . S
H1094 C1100 0.949 . S
C1095 H1090 0.950 . S
C1095 C1097 1.327 . S
C1095 C1101 1.429 . S
C1096 C1088 1.574 1_456 S
C1096 H1091 0.949 . S
C1096 C1102 1.368 . S
C1097 C1081 1.349 . S
C1097 H1089 0.950 . S
C1097 C1095 1.327 . S
C1098 C1086 1.349 . S
C1098 H1092 0.950 . S
C1098 C1099 1.327 . S
C1099 H1093 0.950 . S
C1099 C1098 1.327 . S
C1099 C1103 1.429 . S
C1100 C1083 1.574 1_654 S
C1100 H1094 0.949 . S
C1100 C1104 1.368 . S
C1101 C1082 1.429 . S
C1101 C1095 1.429 . S
C1101 C1102 1.523 . S
C1102 C1083 1.368 . S
C1102 C1096 1.368 . S
C1102 C1101 1.523 . S
C1103 C1087 1.429 . S
C1103 C1099 1.429 . S
C1103 C1104 1.523 . S
C1104 C1088 1.368 . S
C1104 C1100 1.368 . S
C1104 C1103 1.523 . S
H1105 C1080 0.950 . S
H1106 C1082 0.950 . S
H1107 C1083 0.949 . S
H1108 C1085 0.950 . S
H1109 C1087 0.950 . S
C1110 C1111 1.349 . S
C1110 C1112 1.327 . S
C1110 H1135 0.950 . S
C1111 C1110 1.349 . S
C1111 C1127 1.349 . S
C1112 C1110 1.327 . S
C1112 C1131 1.429 . S
C1112 H1136 0.950 . S
C1113 C1130 1.572 . S
C1113 C1132 1.368 . S
C1113 H1137 0.949 . S
H1114 C1118 0.949 . S
C1115 C1116 1.349 . S
C1115 C1117 1.327 . S
C1115 H1138 0.950 . S
C1116 C1115 1.349 . S
C1116 C1128 1.349 . S
C1117 C1115 1.327 . S
C1117 C1133 1.429 . S
C1117 H1139 0.950 . S
C1118 H1114 0.949 . S
C1118 C1126 1.572 . S
C1118 C1134 1.368 . S
H1119 C1127 0.950 . S
H1120 C1125 0.950 . S
H1121 C1126 0.953 1_545 S
H1122 C1128 0.950 . S
H1123 C1129 0.950 . S
H1124 C1130 0.953 1_565 S
C1125 H1120 0.950 . S
C1125 C1127 1.327 . S
C1125 C1131 1.429 . S
C1126 C1118 1.572 . S
C1126 H1121 0.953 1_565 S
C1126 C1132 1.371 1_565 S
C1127 C1111 1.349 . S
C1127 H1119 0.950 . S
C1127 C1125 1.327 . S
C1128 C1116 1.349 . S
C1128 H1122 0.950 . S
C1128 C1129 1.327 . S
C1129 H1123 0.950 . S
C1129 C1128 1.327 . S
C1129 C1133 1.429 . S
C1130 C1113 1.572 . S
C1130 H1124 0.953 1_545 S
C1130 C1134 1.371 1_545 S
C1131 C1112 1.429 . S
C1131 C1125 1.429 . S
C1131 C1132 1.523 . S
C1132 C1113 1.368 . S
C1132 C1126 1.371 1_545 S
C1132 C1131 1.523 . S
C1133 C1117 1.429 . S
C1133 C1129 1.429 . S
C1133 C1134 1.523 . S
C1134 C1118 1.368 . S
C1134 C1130 1.371 1_565 S
C1134 C1133 1.523 . S
H1135 C1110 0.950 . S
H1136 C1112 0.950 . S
H1137 C1113 0.949 . S
H1138 C1115 0.950 . S
H1139 C1117 0.950 . S
C1140 C1141 1.349 . S
C1140 C1142 1.327 . S
C1140 H1165 0.950 . S
C1141 C1140 1.349 . S
C1141 C1157 1.349 . S
C1142 C1140 1.327 . S
C1142 C1161 1.429 . S
C1142 H1166 0.950 . S
C1143 C1160 1.574 1_554 S
C1143 C1162 1.368 . S
C1143 H1167 0.949 . S
H1144 C1148 0.949 . S
C1145 C1146 1.349 . S
C1145 C1147 1.327 . S
C1145 H1168 0.950 . S
C1146 C1145 1.349 . S
C1146 C1158 1.349 . S
C1147 C1145 1.327 . S
C1147 C1163 1.429 . S
C1147 H1169 0.950 . S
C1148 H1144 0.949 . S
C1148 C1156 1.574 1_556 S
C1148 C1164 1.368 . S
H1149 C1157 0.950 . S
H1150 C1155 0.950 . S
H1151 C1156 0.949 . S
H1152 C1158 0.950 . S
H1153 C1159 0.950 . S
H1154 C1160 0.949 . S
C1155 H1150 0.950 . S
C1155 C1157 1.327 . S
C1155 C1161 1.429 . S
C1156 C1148 1.574 1_554 S
C1156 H1151 0.949 . S
C1156 C1162 1.368 . S
C1157 C1141 1.349 . S
C1157 H1149 0.950 . S
C1157 C1155 1.327 . S
C1158 C1146 1.349 . S
C1158 H1152 0.950 . S
C1158 C1159 1.327 . S
C1159 H1153 0.950 . S
C1159 C1158 1.327 . S
C1159 C1163 1.429 . S
C1160 C1143 1.574 1_556 S
C1160 H1154 0.949 . S
C1160 C1164 1.368 . S
C1161 C1142 1.429 . S
C1161 C1155 1.429 . S
C1161 C1162 1.523 . S
C1162 C1143 1.368 . S
C1162 C1156 1.368 . S
C1162 C1161 1.523 . S
C1163 C1147 1.429 . S
C1163 C1159 1.429 . S
C1163 C1164 1.523 . S
C1164 C1148 1.368 . S
C1164 C1160 1.368 . S
C1164 C1163 1.523 . S
H1165 C1140 0.950 . S
H1166 C1142 0.950 . S
H1167 C1143 0.949 . S
H1168 C1145 0.950 . S
H1169 C1147 0.950 . S
C1170 C1171 1.349 . S
C1170 C1172 1.327 . S
C1170 H1195 0.950 . S
C1171 C1170 1.349 . S
C1171 C1187 1.349 . S
C1172 C1170 1.327 . S
C1172 C1191 1.429 . S
C1172 H1196 0.950 . S
C1173 C1190 1.574 1_455 S
C1173 C1192 1.368 . S
C1173 H1197 0.949 . S
H1174 C1178 0.949 . S
C1175 C1176 1.349 . S
C1175 C1177 1.327 . S
C1175 H1198 0.950 . S
C1176 C1175 1.349 . S
C1176 C1188 1.349 . S
C1177 C1175 1.327 . S
C1177 C1193 1.429 . S
C1177 H1199 0.950 . S
C1178 H1174 0.949 . S
C1178 C1186 1.574 1_655 S
C1178 C1194 1.368 . S
H1179 C1187 0.950 . S
H1180 C1185 0.950 . S
H1181 C1186 0.949 . S
H1182 C1188 0.950 . S
H1183 C1189 0.950 . S
H1184 C1190 0.949 . S
C1185 H1180 0.950 . S
C1185 C1187 1.327 . S
C1185 C1191 1.429 . S
C1186 C1178 1.574 1_455 S
C1186 H1181 0.949 . S
C1186 C1192 1.368 . S
C1187 C1171 1.349 . S
C1187 H1179 0.950 . S
C1187 C1185 1.327 . S
C1188 C1176 1.349 . S
C1188 H1182 0.950 . S
C1188 C1189 1.327 . S
C1189 H1183 0.950 . S
C1189 C1188 1.327 . S
C1189 C1193 1.429 . S
C1190 C1173 1.574 1_655 S
C1190 H1184 0.949 . S
C1190 C1194 1.368 . S
C1191 C1172 1.429 . S
C1191 C1185 1.429 . S
C1191 C1192 1.523 . S
C1192 C1173 1.368 . S
C1192 C1186 1.368 . S
C1192 C1191 1.523 . S
C1193 C1177 1.429 . S
C1193 C1189 1.429 . S
C1193 C1194 1.523 . S
C1194 C1178 1.368 . S
C1194 C1190 1.368 . S
C1194 C1193 1.523 . S
H1195 C1170 0.950 . S
H1196 C1172 0.950 . S
H1197 C1173 0.949 . S
H1198 C1175 0.950 . S
H1199 C1177 0.950 . S
C1200 C1201 1.349 . S
C1200 C1202 1.327 . S
C1200 H1225 0.950 . S
C1201 C1200 1.349 . S
C1201 C1217 1.349 . S
C1202 C1200 1.327 . S
C1202 C1221 1.429 . S
C1202 H1226 0.950 . S
C1203 C1220 1.574 . S
C1203 C1222 1.368 . S
C1203 H1227 0.949 . S
H1204 C1208 0.949 . S
C1205 C1206 1.349 . S
C1205 C1207 1.327 . S
C1205 H1228 0.950 . S
C1206 C1205 1.349 . S
C1206 C1218 1.349 . S
C1207 C1205 1.327 . S
C1207 C1223 1.429 . S
C1207 H1229 0.950 . S
C1208 H1204 0.949 . S
C1208 C1216 1.574 . S
C1208 C1224 1.368 . S
H1209 C1217 0.950 . S
H1210 C1215 0.950 . S
H1211 C1216 0.949 . S
H1212 C1218 0.950 . S
H1213 C1219 0.950 . S
H1214 C1220 0.949 . S
C1215 H1210 0.950 . S
C1215 C1217 1.327 . S
C1215 C1221 1.429 . S
C1216 C1208 1.574 . S
C1216 H1211 0.949 . S
C1216 C1222 1.368 . S
C1217 C1201 1.349 . S
C1217 H1209 0.950 . S
C1217 C1215 1.327 . S
C1218 C1206 1.349 . S
C1218 H1212 0.950 . S
C1218 C1219 1.327 . S
C1219 H1213 0.950 . S
C1219 C1218 1.327 . S
C1219 C1223 1.429 . S
C1220 C1203 1.574 . S
C1220 H1214 0.949 . S
C1220 C1224 1.368 . S
C1221 C1202 1.429 . S
C1221 C1215 1.429 . S
C1221 C1222 1.523 . S
C1222 C1203 1.368 . S
C1222 C1216 1.368 . S
C1222 C1221 1.523 . S
C1223 C1207 1.429 . S
C1223 C1219 1.429 . S
C1223 C1224 1.523 . S
C1224 C1208 1.368 . S
C1224 C1220 1.368 . S
C1224 C1223 1.523 . S
H1225 C1200 0.950 . S
H1226 C1202 0.950 . S
H1227 C1203 0.949 . S
H1228 C1205 0.950 . S
H1229 C1207 0.950 . S
C1230 C1231 1.349 . S
C1230 C1232 1.327 . S
C1230 H1255 0.950 . S
C1231 C1230 1.349 . S
C1231 C1247 1.349 . S
C1232 C1230 1.327 . S
C1232 C1251 1.429 . S
C1232 H1256 0.950 . S
C1233 C1250 1.574 . S
C1233 C1252 1.368 . S
C1233 H1257 0.949 . S
H1234 C1238 0.949 . S
C1235 C1236 1.349 . S
C1235 C1237 1.327 . S
C1235 H1258 0.950 . S
C1236 C1235 1.349 . S
C1236 C1248 1.349 . S
C1237 C1235 1.327 . S
C1237 C1253 1.429 . S
C1237 H1259 0.950 . S
C1238 H1234 0.949 . S
C1238 C1246 1.574 . S
C1238 C1254 1.368 . S
H1239 C1247 0.950 . S
H1240 C1245 0.950 . S
H1241 C1246 0.949 . S
H1242 C1248 0.950 . S
H1243 C1249 0.950 . S
H1244 C1250 0.949 . S
C1245 H1240 0.950 . S
C1245 C1247 1.327 . S
C1245 C1251 1.429 . S
C1246 C1238 1.574 . S
C1246 H1241 0.949 . S
C1246 C1252 1.368 . S
C1247 C1231 1.349 . S
C1247 H1239 0.950 . S
C1247 C1245 1.327 . S
C1248 C1236 1.349 . S
C1248 H1242 0.950 . S
C1248 C1249 1.327 . S
C1249 H1243 0.950 . S
C1249 C1248 1.327 . S
C1249 C1253 1.429 . S
C1250 C1233 1.574 . S
C1250 H1244 0.949 . S
C1250 C1254 1.368 . S
C1251 C1232 1.429 . S
C1251 C1245 1.429 . S
C1251 C1252 1.523 . S
C1252 C1233 1.368 . S
C1252 C1246 1.368 . S
C1252 C1251 1.523 . S
C1253 C1237 1.429 . S
C1253 C1249 1.429 . S
C1253 C1254 1.523 . S
C1254 C1238 1.368 . S
C1254 C1250 1.368 . S
C1254 C1253 1.523 . S
H1255 C1230 0.950 . S
H1256 C1232 0.950 . S
H1257 C1233 0.949 . S
H1258 C1235 0.950 . S
H1259 C1237 0.950 . S
C1260 C1261 1.349 . S
C1260 C1262 1.327 . S
C1260 H1285 0.950 . S
C1261 C1260 1.349 . S
C1261 C1277 1.349 . S
C1262 C1260 1.327 . S
C1262 C1281 1.429 . S
C1262 H1286 0.950 . S
C1263 C1280 1.574 . S
C1263 C1282 1.368 . S
C1263 H1287 0.949 . S
H1264 C1268 0.949 . S
C1265 C1266 1.349 . S
C1265 C1267 1.327 . S
C1265 H1288 0.950 . S
C1266 C1265 1.349 . S
C1266 C1278 1.349 . S
C1267 C1265 1.327 . S
C1267 C1283 1.429 . S
C1267 H1289 0.950 . S
C1268 H1264 0.949 . S
C1268 C1276 1.574 . S
C1268 C1284 1.368 . S
H1269 C1277 0.950 . S
H1270 C1275 0.950 . S
H1271 C1276 0.949 . S
H1272 C1278 0.950 . S
H1273 C1279 0.950 . S
H1274 C1280 0.949 . S
C1275 H1270 0.950 . S
C1275 C1277 1.327 . S
C1275 C1281 1.429 . S
C1276 C1268 1.574 . S
C1276 H1271 0.949 . S
C1276 C1282 1.368 . S
C1277 C1261 1.349 . S
C1277 H1269 0.950 . S
C1277 C1275 1.327 . S
C1278 C1266 1.349 . S
C1278 H1272 0.950 . S
C1278 C1279 1.327 . S
C1279 H1273 0.950 . S
C1279 C1278 1.327 . S
C1279 C1283 1.429 . S
C1280 C1263 1.574 . S
C1280 H1274 0.949 . S
C1280 C1284 1.368 . S
C1281 C1262 1.429 . S
C1281 C1275 1.429 . S
C1281 C1282 1.523 . S
C1282 C1263 1.368 . S
C1282 C1276 1.368 . S
C1282 C1281 1.523 . S
C1283 C1267 1.429 . S
C1283 C1279 1.429 . S
C1283 C1284 1.523 . S
C1284 C1268 1.368 . S
C1284 C1280 1.368 . S
C1284 C1283 1.523 . S
H1285 C1260 0.950 . S
H1286 C1262 0.950 . S
H1287 C1263 0.949 . S
H1288 C1265 0.950 . S
H1289 C1267 0.950 . S
C1290 C1291 1.349 . S
C1290 C1292 1.327 . S
C1290 H1315 0.950 . S
C1291 C1290 1.349 . S
C1291 C1307 1.349 . S
C1292 C1290 1.327 . S
C1292 C1311 1.429 . S
C1292 H1316 0.950 . S
C1293 C1310 1.574 . S
C1293 C1312 1.368 . S
C1293 H1317 0.949 . S
H1294 C1298 0.949 . S
C1295 C1296 1.349 . S
C1295 C1297 1.327 . S
C1295 H1318 0.950 . S
C1296 C1295 1.349 . S
C1296 C1308 1.349 . S
C1297 C1295 1.327 . S
C1297 C1313 1.429 . S
C1297 H1319 0.950 . S
C1298 H1294 0.949 . S
C1298 C1306 1.574 . S
C1298 C1314 1.368 . S
H1299 C1307 0.950 . S
H1300 C1305 0.950 . S
H1301 C1306 0.949 . S
H1302 C1308 0.950 . S
H1303 C1309 0.950 . S
H1304 C1310 0.949 . S
C1305 H1300 0.950 . S
C1305 C1307 1.327 . S
C1305 C1311 1.429 . S
C1306 C1298 1.574 . S
C1306 H1301 0.949 . S
C1306 C1312 1.368 . S
C1307 C1291 1.349 . S
C1307 H1299 0.950 . S
C1307 C1305 1.327 . S
C1308 C1296 1.349 . S
C1308 H1302 0.950 . S
C1308 C1309 1.327 . S
C1309 H1303 0.950 . S
C1309 C1308 1.327 . S
C1309 C1313 1.429 . S
C1310 C1293 1.574 . S
C1310 H1304 0.949 . S
C1310 C1314 1.368 . S
C1311 C1292 1.429 . S
C1311 C1305 1.429 . S
C1311 C1312 1.523 . S
C1312 C1293 1.368 . S
C1312 C1306 1.368 . S
C1312 C1311 1.523 . S
C1313 C1297 1.429 . S
C1313 C1309 1.429 . S
C1313 C1314 1.523 . S
C1314 C1298 1.368 . S
C1314 C1310 1.368 . S
C1314 C1313 1.523 . S
H1315 C1290 0.950 . S
H1316 C1292 0.950 . S
H1317 C1293 0.949 . S
H1318 C1295 0.950 . S
H1319 C1297 0.950 . S
C1320 C1321 1.349 . S
C1320 C1322 1.327 . S
C1320 H1345 0.950 . S
C1321 C1320 1.349 . S
C1321 C1337 1.349 . S
C1322 C1320 1.327 . S
C1322 C1341 1.429 . S
C1322 H1346 0.950 . S
C1323 C1340 1.574 . S
C1323 C1342 1.368 . S
C1323 H1347 0.949 . S
H1324 C1328 0.949 . S
C1325 C1326 1.349 . S
C1325 C1327 1.327 . S
C1325 H1348 0.950 . S
C1326 C1325 1.349 . S
C1326 C1338 1.349 . S
C1327 C1325 1.327 . S
C1327 C1343 1.429 . S
C1327 H1349 0.950 . S
C1328 H1324 0.949 . S
C1328 C1336 1.574 . S
C1328 C1344 1.368 . S
H1329 C1337 0.950 . S
H1330 C1335 0.950 . S
H1331 C1336 0.949 . S
H1332 C1338 0.950 . S
H1333 C1339 0.950 . S
H1334 C1340 0.949 . S
C1335 H1330 0.950 . S
C1335 C1337 1.327 . S
C1335 C1341 1.429 . S
C1336 C1328 1.574 . S
C1336 H1331 0.949 . S
C1336 C1342 1.368 . S
C1337 C1321 1.349 . S
C1337 H1329 0.950 . S
C1337 C1335 1.327 . S
C1338 C1326 1.349 . S
C1338 H1332 0.950 . S
C1338 C1339 1.327 . S
C1339 H1333 0.950 . S
C1339 C1338 1.327 . S
C1339 C1343 1.429 . S
C1340 C1323 1.574 . S
C1340 H1334 0.949 . S
C1340 C1344 1.368 . S
C1341 C1322 1.429 . S
C1341 C1335 1.429 . S
C1341 C1342 1.523 . S
C1342 C1323 1.368 . S
C1342 C1336 1.368 . S
C1342 C1341 1.523 . S
C1343 C1327 1.429 . S
C1343 C1339 1.429 . S
C1343 C1344 1.523 . S
C1344 C1328 1.368 . S
C1344 C1340 1.368 . S
C1344 C1343 1.523 . S
H1345 C1320 0.950 . S
H1346 C1322 0.950 . S
H1347 C1323 0.949 . S
H1348 C1325 0.950 . S
H1349 C1327 0.950 . S
C1350 C1351 1.349 . S
C1350 C1352 1.327 . S
C1350 H1375 0.950 . S
C1351 C1350 1.349 . S
C1351 C1367 1.349 . S
C1352 C1350 1.327 . S
C1352 C1371 1.429 . S
C1352 H1376 0.950 . S
C1353 C1370 1.574 . S
C1353 C1372 1.368 . S
C1353 H1377 0.949 . S
H1354 C1358 0.949 . S
C1355 C1356 1.349 . S
C1355 C1357 1.327 . S
C1355 H1378 0.950 . S
C1356 C1355 1.349 . S
C1356 C1368 1.349 . S
C1357 C1355 1.327 . S
C1357 C1373 1.429 . S
C1357 H1379 0.950 . S
C1358 H1354 0.949 . S
C1358 C1366 1.574 . S
C1358 C1374 1.368 . S
H1359 C1367 0.950 . S
H1360 C1365 0.950 . S
H1361 C1366 0.949 . S
H1362 C1368 0.950 . S
H1363 C1369 0.950 . S
H1364 C1370 0.949 . S
C1365 H1360 0.950 . S
C1365 C1367 1.327 . S
C1365 C1371 1.429 . S
C1366 C1358 1.574 . S
C1366 H1361 0.949 . S
C1366 C1372 1.368 . S
C1367 C1351 1.349 . S
C1367 H1359 0.950 . S
C1367 C1365 1.327 . S
C1368 C1356 1.349 . S
C1368 H1362 0.950 . S
C1368 C1369 1.327 . S
C1369 H1363 0.950 . S
C1369 C1368 1.327 . S
C1369 C1373 1.429 . S
C1370 C1353 1.574 . S
C1370 H1364 0.949 . S
C1370 C1374 1.368 . S
C1371 C1352 1.429 . S
C1371 C1365 1.429 . S
C1371 C1372 1.523 . S
C1372 C1353 1.368 . S
C1372 C1366 1.368 . S
C1372 C1371 1.523 . S
C1373 C1357 1.429 . S
C1373 C1369 1.429 . S
C1373 C1374 1.523 . S
C1374 C1358 1.368 . S
C1374 C1370 1.368 . S
C1374 C1373 1.523 . S
H1375 C1350 0.950 . S
H1376 C1352 0.950 . S
H1377 C1353 0.949 . S
H1378 C1355 0.950 . S
H1379 C1357 0.950 . S
C1380 C1381 1.349 . S
C1380 C1382 1.327 . S
C1380 H1405 0.950 . S
C1381 C1380 1.349 . S
C1381 C1397 1.349 . S
C1382 C1380 1.327 . S
C1382 C1401 1.429 . S
C1382 H1406 0.950 . S
C1383 C1400 1.574 . S
C1383 C1402 1.368 . S
C1383 H1407 0.949 . S
H1384 C1388 0.949 . S
C1385 C1386 1.349 . S
C1385 C1387 1.327 . S
C1385 H1408 0.950 . S
C1386 C1385 1.349 . S
C1386 C1398 1.349 . S
C1387 C1385 1.327 . S
C1387 C1403 1.429 . S
C1387 H1409 0.950 . S
C1388 H1384 0.949 . S
C1388 C1396 1.574 . S
C1388 C1404 1.368 . S
H1389 C1397 0.950 . S
H1390 C1395 0.950 . S
H1391 C1396 0.949 . S
H1392 C1398 0.950 . S
H1393 C1399 0.950 . S
H1394 C1400 0.949 . S
C1395 H1390 0.950 . S
C1395 C1397 1.327 . S
C1395 C1401 1.429 . S
C1396 C1388 1.574 . S
C1396 H1391 0.949 . S
C1396 C1402 1.368 . S
C1397 C1381 1.349 . S
C1397 H1389 0.950 . S
C1397 C1395 1.327 . S
C1398 C1386 1.349 . S
C1398 H1392 0.950 . S
C1398 C1399 1.327 . S
C1399 H1393 0.950 . S
C1399 C1398 1.327 . S
C1399 C1403 1.429 . S
C1400 C1383 1.574 . S
C1400 H1394 0.949 . S
C1400 C1404 1.368 . S
C1401 C1382 1.429 . S
C1401 C1395 1.429 . S
C1401 C1402 1.523 . S
C1402 C1383 1.368 . S
C1402 C1396 1.368 . S
C1402 C1401 1.523 . S
C1403 C1387 1.429 . S
C1403 C1399 1.429 . S
C1403 C1404 1.523 . S
C1404 C1388 1.368 . S
C1404 C1400 1.368 . S
C1404 C1403 1.523 . S
H1405 C1380 0.950 . S
H1406 C1382 0.950 . S
H1407 C1383 0.949 . S
H1408 C1385 0.950 . S
H1409 C1387 0.950 . S
C1410 C1411 1.349 . S
C1410 C1412 1.327 . S
C1410 H1435 0.950 . S
C1411 C1410 1.349 . S
C1411 C1427 1.349 . S
C1412 C1410 1.327 . S
C1412 C1431 1.429 . S
C1412 H1436 0.950 . S
C1413 C1430 1.574 . S
C1413 C1432 1.368 . S
C1413 H1437 0.949 . S
H1414 C1418 0.949 . S
C1415 C1416 1.349 . S
C1415 C1417 1.327 . S
C1415 H1438 0.950 . S
C1416 C1415 1.349 . S
C1416 C1428 1.349 . S
C1417 C1415 1.327 . S
C1417 C1433 1.429 . S
C1417 H1439 0.950 . S
C1418 H1414 0.949 . S
C1418 C1426 1.574 . S
C1418 C1434 1.368 . S
H1419 C1427 0.950 . S
H1420 C1425 0.950 . S
H1421 C1426 0.949 . S
H1422 C1428 0.950 . S
H1423 C1429 0.950 . S
H1424 C1430 0.949 . S
C1425 H1420 0.950 . S
C1425 C1427 1.327 . S
C1425 C1431 1.429 . S
C1426 C1418 1.574 . S
C1426 H1421 0.949 . S
C1426 C1432 1.368 . S
C1427 C1411 1.349 . S
C1427 H1419 0.950 . S
C1427 C1425 1.327 . S
C1428 C1416 1.349 . S
C1428 H1422 0.950 . S
C1428 C1429 1.327 . S
C1429 H1423 0.950 . S
C1429 C1428 1.327 . S
C1429 C1433 1.429 . S
C1430 C1413 1.574 . S
C1430 H1424 0.949 . S
C1430 C1434 1.368 . S
C1431 C1412 1.429 . S
C1431 C1425 1.429 . S
C1431 C1432 1.523 . S
C1432 C1413 1.368 . S
C1432 C1426 1.368 . S
C1432 C1431 1.523 . S
C1433 C1417 1.429 . S
C1433 C1429 1.429 . S
C1433 C1434 1.523 . S
C1434 C1418 1.368 . S
C1434 C1430 1.368 . S
C1434 C1433 1.523 . S
H1435 C1410 0.950 . S
H1436 C1412 0.950 . S
H1437 C1413 0.949 . S
H1438 C1415 0.950 . S
H1439 C1417 0.950 . S
C1440 C1441 1.349 . S
C1440 C1442 1.327 . S
C1440 H1465 0.950 . S
C1441 C1440 1.349 . S
C1441 C1457 1.349 . S
C1442 C1440 1.327 . S
C1442 C1461 1.429 . S
C1442 H1466 0.950 . S
C1443 C1460 1.574 . S
C1443 C1462 1.368 . S
C1443 H1467 0.949 . S
H1444 C1448 0.949 . S
C1445 C1446 1.349 . S
C1445 C1447 1.327 . S
C1445 H1468 0.950 . S
C1446 C1445 1.349 . S
C1446 C1458 1.349 . S
C1447 C1445 1.327 . S
C1447 C1463 1.429 . S
C1447 H1469 0.950 . S
C1448 H1444 0.949 . S
C1448 C1456 1.574 . S
C1448 C1464 1.368 . S
H1449 C1457 0.950 . S
H1450 C1455 0.950 . S
H1451 C1456 0.949 . S
H1452 C1458 0.950 . S
H1453 C1459 0.950 . S
H1454 C1460 0.949 . S
C1455 H1450 0.950 . S
C1455 C1457 1.327 . S
C1455 C1461 1.429 . S
C1456 C1448 1.574 . S
C1456 H1451 0.949 . S
C1456 C1462 1.368 . S
C1457 C1441 1.349 . S
C1457 H1449 0.950 . S
C1457 C1455 1.327 . S
C1458 C1446 1.349 . S
C1458 H1452 0.950 . S
C1458 C1459 1.327 . S
C1459 H1453 0.950 . S
C1459 C1458 1.327 . S
C1459 C1463 1.429 . S
C1460 C1443 1.574 . S
C1460 H1454 0.949 . S
C1460 C1464 1.368 . S
C1461 C1442 1.429 . S
C1461 C1455 1.429 . S
C1461 C1462 1.523 . S
C1462 C1443 1.368 . S
C1462 C1456 1.368 . S
C1462 C1461 1.523 . S
C1463 C1447 1.429 . S
C1463 C1459 1.429 . S
C1463 C1464 1.523 . S
C1464 C1448 1.368 . S
C1464 C1460 1.368 . S
C1464 C1463 1.523 . S
H1465 C1440 0.950 . S
H1466 C1442 0.950 . S
H1467 C1443 0.949 . S
H1468 C1445 0.950 . S
H1469 C1447 0.950 . S
C1470 C1471 1.349 . S
C1470 C1472 1.327 . S
C1470 H1495 0.950 . S
C1471 C1470 1.349 . S
C1471 C1487 1.349 . S
C1472 C1470 1.327 . S
C1472 C1491 1.429 . S
C1472 H1496 0.950 . S
C1473 C1490 1.574 . S
C1473 C1492 1.368 . S
C1473 H1497 0.949 . S
H1474 C1478 0.949 . S
C1475 C1476 1.349 . S
C1475 C1477 1.327 . S
C1475 H1498 0.950 . S
C1476 C1475 1.349 . S
C1476 C1488 1.349 . S
C1477 C1475 1.327 . S
C1477 C1493 1.429 . S
C1477 H1499 0.950 . S
C1478 H1474 0.949 . S
C1478 C1486 1.574 . S
C1478 C1494 1.368 . S
H1479 C1487 0.950 . S
H1480 C1485 0.950 . S
H1481 C1486 0.949 . S
H1482 C1488 0.950 . S
H1483 C1489 0.950 . S
H1484 C1490 0.949 . S
C1485 H1480 0.950 . S
C1485 C1487 1.327 . S
C1485 C1491 1.429 . S
C1486 C1478 1.574 . S
C1486 H1481 0.949 . S
C1486 C1492 1.368 . S
C1487 C1471 1.349 . S
C1487 H1479 0.950 . S
C1487 C1485 1.327 . S
C1488 C1476 1.349 . S
C1488 H1482 0.950 . S
C1488 C1489 1.327 . S
C1489 H1483 0.950 . S
C1489 C1488 1.327 . S
C1489 C1493 1.429 . S
C1490 C1473 1.574 . S
C1490 H1484 0.949 . S
C1490 C1494 1.368 . S
C1491 C1472 1.429 . S
C1491 C1485 1.429 . S
C1491 C1492 1.523 . S
C1492 C1473 1.368 . S
C1492 C1486 1.368 . S
C1492 C1491 1.523 . S
C1493 C1477 1.429 . S
C1493 C1489 1.429 . S
C1493 C1494 1.523 . S
C1494 C1478 1.368 . S
C1494 C1490 1.368 . S
C1494 C1493 1.523 . S
H1495 C1470 0.950 . S
H1496 C1472 0.950 . S
H1497 C1473 0.949 . S
H1498 C1475 0.950 . S
H1499 C1477 0.950 . S
C1500 C1501 1.349 . S
C1500 C1502 1.327 . S
C1500 H1525 0.950 . S
C1501 C1500 1.349 . S
C1501 C1517 1.349 . S
C1502 C1500 1.327 . S
C1502 C1521 1.429 . S
C1502 H1526 0.950 . S
C1503 C1520 1.574 . S
C1503 C1522 1.368 . S
C1503 H1527 0.949 . S
H1504 C1508 0.949 . S
C1505 C1506 1.349 . S
C1505 C1507 1.327 . S
C1505 H1528 0.950 . S
C1506 C1505 1.349 . S
C1506 C1518 1.349 . S
C1507 C1505 1.327 . S
C1507 C1523 1.429 . S
C1507 H1529 0.950 . S
C1508 H1504 0.949 . S
C1508 C1516 1.574 . S
C1508 C1524 1.368 . S
H1509 C1517 0.950 . S
H1510 C1515 0.950 . S
H1511 C1516 0.949 . S
H1512 C1518 0.950 . S
H1513 C1519 0.950 . S
H1514 C1520 0.949 . S
C1515 H1510 0.950 . S
C1515 C1517 1.327 . S
C1515 C1521 1.429 . S
C1516 C1508 1.574 . S
C1516 H1511 0.949 . S
C1516 C1522 1.368 . S
C1517 C1501 1.349 . S
C1517 H1509 0.950 . S
C1517 C1515 1.327 . S
C1518 C1506 1.349 . S
C1518 H1512 0.950 . S
C1518 C1519 1.327 . S
C1519 H1513 0.950 . S
C1519 C1518 1.327 . S
C1519 C1523 1.429 . S
C1520 C1503 1.574 . S
C1520 H1514 0.949 . S
C1520 C1524 1.368 . S
C1521 C1502 1.429 . S
C1521 C1515 1.429 . S
C1521 C1522 1.523 . S
C1522 C1503 1.368 . S
C1522 C1516 1.368 . S
C1522 C1521 1.523 . S
C1523 C1507 1.429 . S
C1523 C1519 1.429 . S
C1523 C1524 1.523 . S
C1524 C1508 1.368 . S
C1524 C1520 1.368 . S
C1524 C1523 1.523 . S
H1525 C1500 0.950 . S
H1526 C1502 0.950 . S
H1527 C1503 0.949 . S
H1528 C1505 0.950 . S
H1529 C1507 0.950 . S
C1530 C1531 1.349 . S
C1530 C1532 1.327 . S
C1530 H1555 0.950 . S
C1531 C1530 1.349 . S
C1531 C1547 1.349 . S
C1532 C1530 1.327 . S
C1532 C1551 1.429 . S
C1532 H1556 0.950 . S
C1533 C1550 1.574 . S
C1533 C1552 1.368 . S
C1533 H1557 0.949 . S
H1534 C1538 0.949 . S
C1535 C1536 1.349 . S
C1535 C1537 1.327 . S
C1535 H1558 0.950 . S
C1536 C1535 1.349 . S
C1536 C1548 1.349 . S
C1537 C1535 1.327 . S
C1537 C1553 1.429 . S
C1537 H1559 0.950 . S
C1538 H1534 0.949 . S
C1538 C1546 1.574 . S
C1538 C1554 1.368 . S
H1539 C1547 0.950 . S
H1540 C1545 0.950 . S
H1541 C1546 0.949 . S
H1542 C1548 0.950 . S
H1543 C1549 0.950 . S
H1544 C1550 0.949 . S
C1545 H1540 0.950 . S
C1545 C1547 1.327 . S
C1545 C1551 1.429 . S
C1546 C1538 1.574 . S
C1546 H1541 0.949 . S
C1546 C1552 1.368 . S
C1547 C1531 1.349 . S
C1547 H1539 0.950 . S
C1547 C1545 1.327 . S
C1548 C1536 1.349 . S
C1548 H1542 0.950 . S
C1548 C1549 1.327 . S
C1549 H1543 0.950 . S
C1549 C1548 1.327 . S
C1549 C1553 1.429 . S
C1550 C1533 1.574 . S
C1550 H1544 0.949 . S
C1550 C1554 1.368 . S
C1551 C1532 1.429 . S
C1551 C1545 1.429 . S
C1551 C1552 1.523 . S
C1552 C1533 1.368 . S
C1552 C1546 1.368 . S
C1552 C1551 1.523 . S
C1553 C1537 1.429 . S
C1553 C1549 1.429 . S
C1553 C1554 1.523 . S
C1554 C1538 1.368 . S
C1554 C1550 1.368 . S
C1554 C1553 1.523 . S
H1555 C1530 0.950 . S
H1556 C1532 0.950 . S
H1557 C1533 0.949 . S
H1558 C1535 0.950 . S
H1559 C1537 0.950 . S
C481 C97 1.112 . S
C486 C24 1.110 . S
C511 C146 1.112 . S
C516 C53 1.110 . S
C541 C104 1.110 . S
C546 C177 1.112 . S
C571 C133 1.110 . S
C576 C226 1.112 . S
C601 C17 1.112 . S
C606 C184 1.110 . S
C631 C66 1.112 . S
C636 C213 1.110 . S
C661 C426 1.112 . S
C666 C253 1.110 . S
C691 C304 1.110 . S
C696 C457 1.112 . S
C721 C333 1.110 . S
C726 C266 1.112 . S
C751 C384 1.110 . S
C756 C297 1.112 . S
C781 C413 1.110 . S
C786 C346 1.112 . S
C811 C377 1.112 . S
C816 C464 1.110 . S
C841 C122 1.775 . S
C846 C23 1.775 . S
C871 C42 1.775 . S
C876 C183 1.775 . S
C901 C103 1.775 . S
C906 C202 1.775 . S
C931 C242 1.775 . S
C936 C383 1.775 . S
C961 C303 1.775 . S
C966 C402 1.775 . S
C991 C322 1.775 . S
C996 C463 1.775 . S
C1021 C282 2.262 . S
C1026 C2 2.262 . S
C1051 C63 2.262 . S
C1056 C343 2.262 . S
C1081 C362 2.262 . S
C1086 C82 2.262 . S
C1111 C143 2.262 . S
C1116 C423 2.262 . S
C1141 C162 2.262 . S
C1146 C442 2.262 . S
C1171 C263 2.262 . S
C1176 C223 2.262 . S
C1201 C106 1.515 . S
C1206 C13 1.512 . S
C1231 C64 1.512 . S
C1236 C137 1.515 . S
C1261 C93 1.512 . S
C1266 C186 1.515 . S
C1291 C144 1.512 . S
C1296 C217 1.515 . S
C1321 C26 1.515 . S
C1326 C173 1.512 . S
C1351 C57 1.515 . S
C1356 C224 1.512 . S
C1381 C417 1.515 . S
C1386 C264 1.512 . S
C1411 C293 1.512 . S
C1416 C466 1.515 . S
C1441 C344 1.512 . S
C1446 C257 1.515 . S
C1471 C306 1.515 . S
C1476 C373 1.512 . S
C1501 C424 1.512 . S
C1506 C337 1.515 . S
C1531 C453 1.512 . S
C1536 C386 1.515 . S
