# Generated by pormake.
# Topology sow, (4)-cn, num edge types: 1
# Building blocks:
#     Node 0, Type 0, BuildingBlock: MUDLON_clean_sbu_0, # of connection points: 4
#     Node 1, Type 0, BuildingBlock: MUDLON_clean_sbu_0, # of connection points: 4
#     Node 2, Type 0, BuildingBlock: MUDLON_clean_sbu_0, # of connection points: 4
#     Node 3, Type 0, BuildingBlock: MUDLON_clean_sbu_0, # of connection points: 4
#     Node 4, Type 0, BuildingBlock: MUDLON_clean_sbu_0, # of connection points: 4
#     Node 5, Type 0, BuildingBlock: MUDLON_clean_sbu_0, # of connection points: 4
#     Node 6, Type 0, BuildingBlock: MUDLON_clean_sbu_0, # of connection points: 4
#     Node 7, Type 0, BuildingBlock: MUDLON_clean_sbu_0, # of connection points: 4
#     Edge 8, Type (0, 0), BuildingBlock: FUNLAD_clean_linker_0, # of connection points: 2
#     Edge 9, Type (0, 0), BuildingBlock: FUNLAD_clean_linker_0, # of connection points: 2
#     Edge 10, Type (0, 0), BuildingBlock: FUNLAD_clean_linker_0, # of connection points: 2
#     Edge 11, Type (0, 0), BuildingBlock: FUNLAD_clean_linker_0, # of connection points: 2
#     Edge 12, Type (0, 0), BuildingBlock: FUNLAD_clean_linker_0, # of connection points: 2
#     Edge 13, Type (0, 0), BuildingBlock: FUNLAD_clean_linker_0, # of connection points: 2
#     Edge 14, Type (0, 0), BuildingBlock: FUNLAD_clean_linker_0, # of connection points: 2
#     Edge 15, Type (0, 0), BuildingBlock: FUNLAD_clean_linker_0, # of connection points: 2
#     Edge 16, Type (0, 0), BuildingBlock: FUNLAD_clean_linker_0, # of connection points: 2
#     Edge 17, Type (0, 0), BuildingBlock: FUNLAD_clean_linker_0, # of connection points: 2
#     Edge 18, Type (0, 0), BuildingBlock: FUNLAD_clean_linker_0, # of connection points: 2
#     Edge 19, Type (0, 0), BuildingBlock: FUNLAD_clean_linker_0, # of connection points: 2
#     Edge 20, Type (0, 0), BuildingBlock: FUNLAD_clean_linker_0, # of connection points: 2
#     Edge 21, Type (0, 0), BuildingBlock: FUNLAD_clean_linker_0, # of connection points: 2
#     Edge 22, Type (0, 0), BuildingBlock: FUNLAD_clean_linker_0, # of connection points: 2
#     Edge 23, Type (0, 0), BuildingBlock: FUNLAD_clean_linker_0, # of connection points: 2
# Relax obj value: 0.167
# Max RMSD: 0.252
# Mean RMSD: 0.252
data_MOF--net-sow--node1-MUDLON_clean_sbu_0--edge1-FUNLAD_clean_linker_0
_symmetry_space_group_name_H-M    P1
_symmetry_Int_Tables_number       1
_symmetry_cell_setting            triclinic
loop_
_symmetry_equiv_pos_as_xyz
'x, y, z'
_cell_length_a     47.628659
_cell_length_b     28.19955
_cell_length_c     28.567837
_cell_angle_alpha  89.822637
_cell_angle_beta   90.135231
_cell_angle_gamma 90.113908
loop_
_atom_site_label
_atom_site_type_symbol
_atom_site_fract_x
_atom_site_fract_y
_atom_site_fract_z
_atom_type_partial_charge
Mg0 Mg 0.15829 0.19633 0.08707 0.0
C1 C 0.12307 0.23182 0.16337 0.0
O2 O 0.13678 0.19621 0.18236 0.0
C3 C 0.20093 0.23573 0.01778 0.0
O4 O 0.21769 0.22964 0.05385 0.0
C5 C 0.1104 0.13975 0.05207 0.0
O6 O 0.10277 0.18361 0.04307 0.0
O7 O 0.13428 0.13262 0.0709 0.0
O8 O 0.12815 0.24264 0.12097 0.0
O9 O 0.19183 0.18436 0.13798 0.0
C10 C 0.20119 0.22125 0.15834 0.0
O11 O 0.19084 0.26273 0.14634 0.0
O12 O 0.17498 0.22576 0.02201 0.0
Mg13 Mg 0.38403 0.30289 0.59063 0.0
C14 C 0.40454 0.22007 0.64845 0.0
O15 O 0.37989 0.22616 0.66804 0.0
C16 C 0.36064 0.25535 0.50091 0.0
O17 O 0.38291 0.22808 0.50396 0.0
C18 C 0.42908 0.35327 0.53751 0.0
O19 O 0.42674 0.3136 0.5138 0.0
O20 O 0.41283 0.36002 0.57213 0.0
O21 O 0.41079 0.24458 0.6125 0.0
O22 O 0.35822 0.321 0.65091 0.0
C23 C 0.33273 0.30749 0.65237 0.0
O24 O 0.32202 0.28556 0.61595 0.0
O25 O 0.35672 0.28732 0.53149 0.0
Mg26 Mg 0.6533 0.28412 0.92357 0.0
C27 C 0.60386 0.21843 0.89738 0.0
O28 O 0.59659 0.2236 0.94138 0.0
C29 C 0.68067 0.27586 0.0182 0.0
O30 O 0.67567 0.32165 0.01674 0.0
C31 C 0.61048 0.34166 0.97715 0.0
O32 O 0.60967 0.30223 1.00173 0.0
O33 O 0.62771 0.34493 0.9433 0.0
O34 O 0.6265 0.2373 0.88292 0.0
O35 O 0.6865 0.30372 0.87504 0.0
C36 C 0.70616 0.27378 0.86964 0.0
O37 O 0.70608 0.23516 0.8955 0.0
O38 O 0.67265 0.25019 0.98415 0.0
Mg39 Mg 0.87425 0.20689 0.43413 0.0
C40 C 0.92568 0.26816 0.41944 0.0
O41 O 0.92891 0.25922 0.46429 0.0
C42 C 0.83308 0.25699 0.49732 0.0
O43 O 0.81932 0.25994 0.45751 0.0
C44 C 0.91006 0.14149 0.49195 0.0
O45 O 0.90457 0.17472 0.52272 0.0
O46 O 0.89877 0.14406 0.4516 0.0
O47 O 0.90371 0.25331 0.39884 0.0
O48 O 0.83998 0.19364 0.38533 0.0
C49 C 0.84468 0.18867 0.34182 0.0
O50 O 0.8708 0.18773 0.32711 0.0
O51 O 0.85721 0.23777 0.49776 0.0
Mg52 Mg 0.88093 0.7797 0.92156 0.0
C53 C 0.85601 0.8087 0.82818 0.0
O54 O 0.88279 0.81247 0.81778 0.0
C55 C 0.93039 0.83367 0.959 0.0
O56 O 0.9393 0.78977 0.96242 0.0
C57 C 0.86957 0.74189 0.02133 0.0
O58 O 0.89604 0.75283 0.02857 0.0
O59 O 0.85898 0.74818 0.98086 0.0
O60 O 0.8491 0.79787 0.86984 0.0
O61 O 0.9093 0.73204 0.8855 0.0
C62 C 0.9244 0.69961 0.90346 0.0
O63 O 0.92239 0.69035 0.94843 0.0
O64 O 0.90578 0.84118 0.94315 0.0
Mg65 Mg 0.66178 0.70394 0.42202 0.0
C66 C 0.69982 0.72693 0.34474 0.0
O67 O 0.68815 0.76758 0.3557 0.0
C68 C 0.62211 0.64453 0.4785 0.0
O69 O 0.62452 0.6824 0.50488 0.0
C70 C 0.69196 0.70461 0.51354 0.0
O71 O 0.68879 0.65896 0.50603 0.0
O72 O 0.68226 0.73379 0.48358 0.0
O73 O 0.69334 0.6903 0.36855 0.0
O74 O 0.63219 0.75123 0.38782 0.0
C75 C 0.6111 0.77082 0.40676 0.0
O76 O 0.60738 0.76653 0.45212 0.0
O77 O 0.63667 0.64201 0.44127 0.0
Mg78 Mg 0.37363 0.687 0.09747 0.0
C79 C 0.32988 0.71 0.16686 0.0
O80 O 0.33933 0.75179 0.15373 0.0
C81 C 0.41999 0.63138 0.05617 0.0
O82 O 0.42471 0.67437 0.0401 0.0
C83 C 0.33088 0.72086 0.02604 0.0
O84 O 0.31385 0.70723 0.0596 0.0
O85 O 0.35726 0.71751 0.03249 0.0
O86 O 0.33983 0.67325 0.14721 0.0
O87 O 0.40248 0.73338 0.13485 0.0
C88 C 0.40664 0.72002 0.17687 0.0
O89 O 0.39362 0.68184 0.192 0.0
O90 O 0.39846 0.62436 0.08159 0.0
Mg91 Mg 0.14732 0.79467 0.59711 0.0
C92 C 0.19863 0.78735 0.65909 0.0
O93 O 0.20541 0.75691 0.62629 0.0
C94 C 0.09934 0.84297 0.55276 0.0
O95 O 0.09941 0.80089 0.53312 0.0
C96 C 0.17785 0.74103 0.51772 0.0
O97 O 0.17172 0.70283 0.5421 0.0
O98 O 0.17041 0.78145 0.53289 0.0
O99 O 0.17569 0.81013 0.65519 0.0
O100 O 0.11979 0.73675 0.6178 0.0
C101 C 0.12314 0.71474 0.65633 0.0
O102 O 0.14575 0.72314 0.68138 0.0
O103 O 0.11838 0.85261 0.5826 0.0
C104 C 0.288 0.29701 0.69732 0.0
C105 C 0.31627 0.31137 0.6962 0.0
C106 C 0.27307 0.29636 0.73943 0.0
C107 C 0.28619 0.30968 0.78168 0.0
C108 C 0.3141 0.32593 0.78007 0.0
C109 C 0.32899 0.32673 0.73791 0.0
C110 C 0.27207 0.30621 0.8282 0.0
C111 C 0.24846 0.28092 0.83637 0.0
C112 C 0.23626 0.27351 0.88384 0.0
C113 C 0.20781 0.26084 0.88768 0.0
C114 C 0.19605 0.24994 0.93127 0.0
C115 C 0.21263 0.25085 0.97202 0.0
H116 H 0.2749 0.28343 0.92345 0.0
C117 C 0.24101 0.26412 0.96832 0.0
C118 C 0.25272 0.27526 0.9248 0.0
H119 H 0.25442 0.26501 0.99898 0.0
H120 H 0.27744 0.2855 0.6657 0.0
H121 H 0.25138 0.28515 0.73829 0.0
H122 H 0.32475 0.33688 0.81182 0.0
H123 H 0.35071 0.33817 0.73832 0.0
H124 H 0.28238 0.32386 0.85726 0.0
H125 H 0.23759 0.26378 0.80767 0.0
H126 H 0.19467 0.25878 0.85673 0.0
H127 H 0.17414 0.23968 0.93281 0.0
C128 C 0.23315 0.25984 0.21637 0.0
C129 C 0.22257 0.21814 0.19603 0.0
C130 C 0.25239 0.25772 0.25324 0.0
C131 C 0.26137 0.21373 0.27115 0.0
C132 C 0.2515 0.17201 0.24988 0.0
C133 C 0.23219 0.17413 0.21281 0.0
C134 C 0.28132 0.21056 0.31133 0.0
C135 C 0.28292 0.24436 0.34457 0.0
C136 C 0.3027 0.24384 0.38507 0.0
C137 C 0.29768 0.27536 0.42207 0.0
C138 C 0.31625 0.27848 0.4598 0.0
C139 C 0.3405 0.25023 0.46153 0.0
H140 H 0.33193 0.19104 0.35878 0.0
C141 C 0.34549 0.2182 0.42485 0.0
C142 C 0.32685 0.21509 0.3869 0.0
H143 H 0.36406 0.19608 0.42499 0.0
H144 H 0.22653 0.29438 0.20392 0.0
H145 H 0.26033 0.29075 0.26723 0.0
H146 H 0.25834 0.13765 0.26252 0.0
H147 H 0.22456 0.14134 0.19773 0.0
H148 H 0.2939 0.17867 0.3144 0.0
H149 H 0.26832 0.27386 0.34304 0.0
H150 H 0.27936 0.29809 0.42166 0.0
H151 H 0.31166 0.30349 0.48744 0.0
C152 C 0.82632 0.18501 0.25949 0.0
C153 C 0.82117 0.19009 0.30766 0.0
C154 C 0.80474 0.19162 0.22679 0.0
C155 C 0.77745 0.20342 0.24159 0.0
C156 C 0.77219 0.20715 0.28979 0.0
C157 C 0.79371 0.20026 0.32248 0.0
C158 C 0.7548 0.21646 0.20794 0.0
C159 C 0.75407 0.2021 0.16297 0.0
C160 C 0.73317 0.21995 0.12833 0.0
C161 C 0.72662 0.19222 0.08902 0.0
C162 C 0.70876 0.20959 0.05396 0.0
C163 C 0.69746 0.2555 0.05711 0.0
H164 H 0.7265 0.28858 0.16092 0.0
C165 C 0.70374 0.28303 0.09672 0.0
C166 C 0.72137 0.26552 0.13192 0.0
H167 H 0.69549 0.31861 0.10016 0.0
H168 H 0.84724 0.17737 0.24685 0.0
H169 H 0.80991 0.18953 0.19001 0.0
H170 H 0.75144 0.21647 0.30221 0.0
H171 H 0.789 0.20456 0.3593 0.0
H172 H 0.73805 0.23886 0.22102 0.0
H173 H 0.76916 0.17608 0.15086 0.0
H174 H 0.73561 0.1572 0.08512 0.0
H175 H 0.70449 0.18757 0.02377 0.0
C176 C 0.725 0.3164 0.79882 0.0
C177 C 0.7271 0.27934 0.83167 0.0
C178 C 0.74319 0.31847 0.76039 0.0
C179 C 0.76381 0.2833 0.75396 0.0
C180 C 0.7667 0.24773 0.7881 0.0
C181 C 0.74853 0.24561 0.82635 0.0
C182 C 0.78226 0.28141 0.71194 0.0
C183 C 0.77559 0.30124 0.67034 0.0
C184 C 0.79185 0.29311 0.62655 0.0
C185 C 0.77822 0.29948 0.58335 0.0
C186 C 0.79185 0.28897 0.54138 0.0
C187 C 0.81958 0.27202 0.54157 0.0
H188 H 0.83179 0.2745 0.65892 0.0
C189 C 0.83372 0.2676 0.58462 0.0
C190 C 0.82008 0.27822 0.62665 0.0
H191 H 0.85522 0.25522 0.58597 0.0
H192 H 0.7089 0.34324 0.80216 0.0
H193 H 0.74086 0.34748 0.73585 0.0
H194 H 0.78255 0.22048 0.78447 0.0
H195 H 0.75093 0.21679 0.85118 0.0
H196 H 0.80062 0.25883 0.71448 0.0
H197 H 0.75601 0.32056 0.66686 0.0
H198 H 0.75661 0.31138 0.58205 0.0
H199 H 0.78037 0.29313 0.50886 0.0
C200 C 0.82228 0.72181 0.05442 0.0
C201 C 0.85143 0.72672 0.06082 0.0
C202 C 0.80475 0.712 0.09241 0.0
C203 C 0.81595 0.70686 0.13776 0.0
C204 C 0.84519 0.70916 0.14376 0.0
C205 C 0.86275 0.71935 0.10577 0.0
C206 C 0.79757 0.70072 0.1794 0.0
C207 C 0.77235 0.72206 0.18232 0.0
C208 C 0.75455 0.72178 0.22496 0.0
C209 C 0.73685 0.76064 0.23258 0.0
C210 C 0.71946 0.76221 0.27172 0.0
C211 C 0.71887 0.72443 0.3039 0.0
H212 H 0.76711 0.65283 0.25172 0.0
C213 C 0.73629 0.68502 0.29612 0.0
C214 C 0.75414 0.6838 0.25709 0.0
H215 H 0.7362 0.6553 0.32023 0.0
H216 H 0.81285 0.7267 0.02021 0.0
H217 H 0.78239 0.7089 0.08621 0.0
H218 H 0.85439 0.70481 0.17823 0.0
H219 H 0.88514 0.72243 0.11187 0.0
H220 H 0.80609 0.68237 0.20974 0.0
H221 H 0.76535 0.74435 0.15348 0.0
H222 H 0.73661 0.79023 0.20828 0.0
H223 H 0.70619 0.79297 0.27637 0.0
C224 C 0.71646 0.76829 0.55992 0.0
C225 C 0.70714 0.72113 0.55583 0.0
C226 C 0.732 0.7827 0.59915 0.0
C227 C 0.73833 0.75018 0.63516 0.0
C228 C 0.7282 0.70357 0.63161 0.0
C229 C 0.71301 0.68908 0.5923 0.0
C230 C 0.75534 0.7631 0.67698 0.0
C231 C 0.77539 0.79693 0.67677 0.0
C232 C 0.79486 0.80433 0.71695 0.0
C233 C 0.82242 0.81963 0.70814 0.0
C234 C 0.84207 0.82262 0.7445 0.0
C235 C 0.83445 0.81098 0.79066 0.0
H236 H 0.76552 0.78477 0.77187 0.0
C237 C 0.80642 0.79835 0.79991 0.0
C238 C 0.78683 0.79505 0.76348 0.0
H239 H 0.79975 0.78964 0.83512 0.0
H240 H 0.71212 0.7939 0.53252 0.0
H241 H 0.73882 0.81926 0.60124 0.0
H242 H 0.73253 0.67788 0.65896 0.0
H243 H 0.70594 0.6526 0.5905 0.0
H244 H 0.75305 0.74064 0.70771 0.0
H245 H 0.77967 0.81636 0.64468 0.0
H246 H 0.82909 0.82757 0.67272 0.0
H247 H 0.86341 0.83288 0.73618 0.0
C248 C 0.29012 0.74224 0.97464 0.0
C249 C 0.31926 0.73679 0.98039 0.0
C250 C 0.27872 0.75397 0.93099 0.0
C251 C 0.29623 0.7608 0.89188 0.0
C252 C 0.32539 0.75601 0.89782 0.0
C253 C 0.33682 0.74442 0.9416 0.0
C254 C 0.28469 0.7691 0.84397 0.0
C255 C 0.25888 0.78699 0.83564 0.0
C256 C 0.24572 0.79013 0.78828 0.0
C257 C 0.22213 0.81937 0.78209 0.0
C258 C 0.20739 0.81984 0.73965 0.0
C259 C 0.21581 0.79077 0.70238 0.0
H260 H 0.27215 0.73796 0.75383 0.0
C261 C 0.23985 0.76245 0.70805 0.0
C262 C 0.25458 0.76195 0.75048 0.0
H263 H 0.24686 0.73942 0.68016 0.0
H264 H 0.27594 0.73645 1.00371 0.0
H265 H 0.25611 0.75585 0.92792 0.0
H266 H 0.3394 0.76062 0.86831 0.0
H267 H 0.35936 0.74034 0.94474 0.0
H268 H 0.29817 0.76014 0.81474 0.0
H269 H 0.24654 0.8 0.86478 0.0
H270 H 0.21468 0.84126 0.81057 0.0
H271 H 0.18895 0.84206 0.73654 0.0
C272 C 0.30013 0.74783 0.22813 0.0
C273 C 0.30971 0.7064 0.20618 0.0
C274 C 0.28252 0.74528 0.26703 0.0
C275 C 0.27369 0.7011 0.28484 0.0
C276 C 0.28319 0.65962 0.2628 0.0
C277 C 0.30091 0.66219 0.22374 0.0
C278 C 0.25608 0.69724 0.32781 0.0
C279 C 0.23894 0.73232 0.34229 0.0
C280 C 0.22311 0.7323 0.38726 0.0
C281 C 0.21264 0.77575 0.40348 0.0
C282 C 0.19805 0.77844 0.44569 0.0
C283 C 0.19328 0.73756 0.47279 0.0
H284 H 0.2252 0.65669 0.40261 0.0
C285 C 0.20335 0.6938 0.45643 0.0
C286 C 0.21812 0.69112 0.4141 0.0
H287 H 0.19988 0.66158 0.47632 0.0
H288 H 0.30671 0.7825 0.21591 0.0
H289 H 0.2767 0.77816 0.28377 0.0
H290 H 0.27702 0.6251 0.27601 0.0
H291 H 0.30806 0.62957 0.20783 0.0
H292 H 0.25785 0.6648 0.34807 0.0
H293 H 0.2369 0.76394 0.32082 0.0
H294 H 0.21601 0.80806 0.38362 0.0
H295 H 0.1905 0.81274 0.45702 0.0
C296 C 0.09774 0.24618 0.23821 0.0
C297 C 0.10055 0.25545 0.19013 0.0
C298 C 0.07482 0.26352 0.2631 0.0
C299 C 0.05411 0.2909 0.24052 0.0
C300 C 0.0574 0.30148 0.19272 0.0
C301 C 0.08051 0.28424 0.16779 0.0
C302 C 0.02742 0.30357 0.26442 0.0
C303 C 0.02505 0.30619 0.31141 0.0
C304 C 0.99794 0.30565 0.33744 0.0
C305 C 0.99888 0.30804 0.38656 0.0
C306 C 0.97495 0.29875 0.41333 0.0
C307 C 0.94944 0.28691 0.39153 0.0
H308 H 0.96983 0.29468 0.27802 0.0
C309 C 0.94791 0.28795 0.34239 0.0
C310 C 0.97186 0.29702 0.31559 0.0
H311 H 0.92852 0.27923 0.32444 0.0
H312 H 0.11281 0.22409 0.2565 0.0
H313 H 0.0728 0.25313 0.29941 0.0
H314 H 0.04164 0.32203 0.1743 0.0
H315 H 0.08205 0.29185 0.13069 0.0
H316 H 1.00914 0.30836 0.24227 0.0
H317 H 0.04404 0.30536 0.3325 0.0
H318 H 0.01855 0.31475 0.40451 0.0
H319 H 0.97684 0.29862 0.45112 0.0
C320 C 0.454 0.19047 0.6551 0.0
C321 C 0.42679 0.19364 0.67372 0.0
C322 C 0.47631 0.17437 0.68278 0.0
C323 C 0.47189 0.16163 0.72993 0.0
C324 C 0.44427 0.1607 0.74701 0.0
C325 C 0.42195 0.17657 0.71928 0.0
C326 C 0.49536 0.15326 0.76355 0.0
C327 C 0.52135 0.1713 0.7574 0.0
C328 C 0.54306 0.17426 0.79486 0.0
C329 C 0.57087 0.18411 0.78178 0.0
C330 C 0.59107 0.19565 0.8154 0.0
C331 C 0.58387 0.19799 0.86304 0.0
H332 H 0.515 0.16749 0.85461 0.0
C333 C 0.55648 0.18545 0.87653 0.0
C334 C 0.53624 0.17385 0.84284 0.0
H335 H 0.55023 0.18695 0.91293 0.0
H336 H 0.45835 0.20245 0.61978 0.0
H337 H 0.497 0.17346 0.66734 0.0
H338 H 0.44011 0.15033 0.7829 0.0
H339 H 0.40119 0.17798 0.7346 0.0
H340 H 0.49014 0.13609 0.79645 0.0
H341 H 0.52668 0.18826 0.72447 0.0
H342 H 0.57675 0.18481 0.74516 0.0
H343 H 0.61201 0.20483 0.80374 0.0
C344 C 0.10161 0.66883 0.72243 0.0
C345 C 0.09936 0.68812 0.67714 0.0
C346 C 0.07779 0.65201 0.74581 0.0
C347 C 0.05115 0.65446 0.72441 0.0
C348 C 0.04941 0.66988 0.67769 0.0
C349 C 0.07321 0.68663 0.65431 0.0
C350 C 0.0245 0.64562 0.75027 0.0
C351 C 0.02225 0.64863 0.79726 0.0
C352 C 0.99499 0.65358 0.82213 0.0
C353 C 0.99388 0.64412 0.87042 0.0
C354 C 0.97016 0.65622 0.89663 0.0
C355 C 0.94722 0.67875 0.87509 0.0
H356 H 0.97138 0.68277 0.76341 0.0
C357 C 0.94772 0.686 0.8264 0.0
C358 C 0.9713 0.67366 0.80021 0.0
H359 H 0.93036 0.70326 0.80872 0.0
H360 H 0.12155 0.66865 0.74073 0.0
H361 H 0.08039 0.63851 0.78101 0.0
H362 H 0.02929 0.67157 0.66 0.0
H363 H 0.07075 0.70073 0.61923 0.0
H364 H 1.00558 0.6417 0.72936 0.0
H365 H 0.04097 0.65167 0.81871 0.0
H366 H 1.01187 0.62903 0.8883 0.0
H367 H 0.97048 0.65025 0.93409 0.0
C368 C 0.44644 0.77725 0.19076 0.0
C369 C 0.42661 0.74476 0.20817 0.0
C370 C 0.46706 0.79628 0.22043 0.0
C371 C 0.4681 0.7831 0.26806 0.0
C372 C 0.44718 0.7529 0.28568 0.0
C373 C 0.42682 0.73374 0.25614 0.0
C374 C 0.49126 0.79712 0.30027 0.0
C375 C 0.51723 0.80921 0.28578 0.0
C376 C 0.54205 0.80891 0.31764 0.0
C377 C 0.56848 0.79897 0.29849 0.0
C378 C 0.59145 0.78959 0.32752 0.0
C379 C 0.58851 0.79014 0.3765 0.0
H380 H 0.52008 0.82365 0.38272 0.0
C381 C 0.56274 0.80435 0.39569 0.0
C382 C 0.53975 0.8139 0.36657 0.0
H383 H 0.55991 0.80601 0.43325 0.0
H384 H 0.44659 0.78679 0.154 0.0
H385 H 0.48226 0.82063 0.20571 0.0
H386 H 0.4472 0.74245 0.32223 0.0
H387 H 0.41159 0.70937 0.27087 0.0
H388 H 0.4877 0.79055 0.33723 0.0
H389 H 0.5214 0.81236 0.24857 0.0
H390 H 0.57105 0.79565 0.26096 0.0
H391 H 0.61112 0.77949 0.31147 0.0
C392 C 0.06468 0.1092 0.02081 0.0
C393 C 0.091 0.1 0.04127 0.0
C394 C 0.04598 0.07225 1.01102 0.0
C395 C 0.05308 0.02502 0.02176 0.0
C396 C 0.07958 0.01579 0.04159 0.0
C397 C 0.0983 0.05283 0.05144 0.0
C398 C 0.03398 0.9844 1.01135 0.0
C399 C 1.00587 0.98852 1.00608 0.0
C400 C 0.98677 0.94803 0.995 0.0
C401 C 0.95999 0.95767 0.97642 0.0
C402 C 0.94148 0.92077 0.96506 0.0
C403 C 0.94931 0.8733 0.97226 0.0
H404 H 1.01417 0.89116 0.019 0.0
C405 C 0.97583 0.86366 0.99178 0.0
C406 C 0.99428 0.90046 1.00321 0.0
H407 H 0.98244 0.82751 0.99835 0.0
H408 H 0.05844 0.14508 1.01211 0.0
H409 H 0.02628 0.08103 0.99425 0.0
H410 H 0.08577 0.97976 0.04983 0.0
H411 H 0.11843 0.04447 0.06708 0.0
H412 H 0.04377 0.94988 1.00828 0.0
H413 H 0.99616 0.0231 1.00933 0.0
H414 H 0.95346 -0.00608 0.97014 0.0
H415 H 0.92117 0.92946 0.95025 0.0
C416 C 0.5948 0.57053 0.45924 0.0
C417 C 0.601 0.60765 0.49036 0.0
C418 C 0.57338 0.53795 0.46938 0.0
C419 C 0.55763 0.54192 0.51093 0.0
C420 C 0.56453 0.57811 0.54257 0.0
C421 C 0.58582 0.61068 0.53238 0.0
C422 C 0.53416 0.50907 0.52314 0.0
C423 C 0.51978 0.48302 0.49158 0.0
C424 C 0.49605 0.45094 0.5042 0.0
C425 C 0.48986 0.41259 0.4747 0.0
C426 C 0.46796 0.38129 0.4853 0.0
C427 C 0.45143 0.38794 0.52545 0.0
H428 H 0.48252 0.48828 0.56672 0.0
C429 C 0.45707 0.42706 0.55439 0.0
C430 C 0.47912 0.45826 0.54392 0.0
H431 H 0.44461 0.43341 0.58541 0.0
H432 H 0.60623 0.56699 0.42671 0.0
H433 H 0.56947 0.50973 0.44468 0.0
H434 H 0.55305 0.58182 0.57505 0.0
H435 H 0.5901 0.63864 0.55732 0.0
H436 H 0.5282 0.5073 0.55976 0.0
H437 H 0.52571 0.48431 0.45496 0.0
H438 H 0.50229 0.40637 0.4436 0.0
H439 H 0.46413 0.3517 0.46206 0.0
C440 C 0.46329 0.60114 0.01678 0.0
C441 C 0.44041 0.59292 0.04677 0.0
C442 C 0.48343 0.56601 1.00923 0.0
C443 C 0.48137 0.52173 0.03193 0.0
C444 C 0.45811 0.51317 0.06103 0.0
C445 C 0.43789 0.54834 0.06847 0.0
C446 C 0.50255 0.48331 0.02555 0.0
C447 C 0.52878 0.49054 1.00903 0.0
C448 C 0.54971 0.45195 1.00227 0.0
C449 C 0.57125 0.45854 0.96935 0.0
C450 C 0.59119 0.42307 0.96149 0.0
C451 C 0.59025 0.38033 0.98688 0.0
H452 H 0.53352 0.40367 0.05527 0.0
C453 C 0.56915 0.37422 0.02076 0.0
C454 C 0.54913 0.40958 0.02843 0.0
H455 H 0.56792 0.34189 0.04121 0.0
H456 H 0.46573 0.6349 0.99905 0.0
H457 H 0.50028 0.57388 0.98517 0.0
H458 H 0.45573 0.4793 0.07861 0.0
H459 H 0.4205 0.54077 0.0917 0.0
H460 H 0.4961 0.44769 0.0353 0.0
H461 H 0.53538 0.52593 0.99895 0.0
H462 H 0.57243 0.49101 0.94906 0.0
H463 H 0.60721 0.42907 0.93527 0.0
C464 C 0.07535 0.92182 0.56298 0.0
C465 C 0.07678 0.87731 0.54111 0.0
C466 C 0.05345 0.95328 0.55244 0.0
C467 C 0.03239 0.94069 0.51994 0.0
C468 C 0.03425 0.89656 0.49759 0.0
C469 C 0.05605 0.86522 0.50811 0.0
C470 C 1.0086 0.97261 0.50729 0.0
C471 C 0.9994 0.00823 0.53467 0.0
C472 C 0.97534 0.03997 0.5226 0.0
C473 C 0.96423 0.06894 0.55791 0.0
C474 C 0.94256 0.10086 0.5482 0.0
C475 C 0.93136 0.10471 0.50279 0.0
H476 H 0.97204 0.02291 0.44838 0.0
C477 C 0.94205 0.07528 0.46748 0.0
C478 C 0.96389 0.04348 0.47712 0.0
H479 H 0.93411 0.07771 0.432 0.0
H480 H 0.09112 0.93238 0.58828 0.0
H481 H 0.05341 0.9875 0.56942 0.0
H482 H 0.01857 0.88599 0.4721 0.0
H483 H 0.05652 0.83133 0.4904 0.0
H484 H 0.99753 0.96452 0.47508 0.0
H485 H 1.00925 0.01372 0.56851 0.0
H486 H 0.97256 0.06728 0.59321 0.0
H487 H 0.93486 0.12302 0.57626 0.0
loop_
_geom_bond_atom_site_label_1
_geom_bond_atom_site_label_2
_geom_bond_distance
_geom_bond_site_symmetry_2
_ccdc_geom_bond_type
Mg0 O7 2.141 . S
Mg0 O8 2.048 . S
Mg0 O9 2.048 . S
Mg0 O12 2.141 . S
C1 O2 1.313 . S
C1 O8 1.195 . S
O2 C1 1.313 . S
C3 O4 1.245 . S
C3 O12 1.289 . S
O4 C3 1.245 . S
C5 O6 1.245 . S
C5 O7 1.289 . S
O6 C5 1.245 . S
O7 Mg0 2.141 . S
O7 C5 1.289 . S
O8 Mg0 2.048 . S
O8 C1 1.195 . S
O9 Mg0 2.048 . S
O9 C10 1.195 . S
C10 O9 1.195 . S
C10 O11 1.313 . S
O11 C10 1.313 . S
O12 Mg0 2.141 . S
O12 C3 1.289 . S
Mg13 O20 2.141 . S
Mg13 O21 2.048 . S
Mg13 O22 2.048 . S
Mg13 O25 2.141 . S
C14 O15 1.313 . S
C14 O21 1.195 . S
O15 C14 1.313 . S
C16 O17 1.245 . S
C16 O25 1.289 . S
O17 C16 1.245 . S
C18 O19 1.245 . S
C18 O20 1.289 . S
O19 C18 1.245 . S
O20 Mg13 2.141 . S
O20 C18 1.289 . S
O21 Mg13 2.048 . S
O21 C14 1.195 . S
O22 Mg13 2.048 . S
O22 C23 1.195 . S
C23 O22 1.195 . S
C23 O24 1.313 . S
O24 C23 1.313 . S
O25 Mg13 2.141 . S
O25 C16 1.289 . S
Mg26 O33 2.141 . S
Mg26 O34 2.048 . S
Mg26 O35 2.048 . S
Mg26 O38 2.141 . S
C27 O28 1.313 . S
C27 O34 1.195 . S
O28 C27 1.313 . S
C29 O30 1.245 . S
C29 O38 1.289 . S
O30 C29 1.245 . S
C31 O32 1.245 . S
C31 O33 1.289 . S
O32 C31 1.245 . S
O33 Mg26 2.141 . S
O33 C31 1.289 . S
O34 Mg26 2.048 . S
O34 C27 1.195 . S
O35 Mg26 2.048 . S
O35 C36 1.195 . S
C36 O35 1.195 . S
C36 O37 1.313 . S
O37 C36 1.313 . S
O38 Mg26 2.141 . S
O38 C29 1.289 . S
Mg39 O46 2.141 . S
Mg39 O47 2.048 . S
Mg39 O48 2.048 . S
Mg39 O51 2.141 . S
C40 O41 1.313 . S
C40 O47 1.195 . S
O41 C40 1.313 . S
C42 O43 1.245 . S
C42 O51 1.289 . S
O43 C42 1.245 . S
C44 O45 1.245 . S
C44 O46 1.289 . S
O45 C44 1.245 . S
O46 Mg39 2.141 . S
O46 C44 1.289 . S
O47 Mg39 2.048 . S
O47 C40 1.195 . S
O48 Mg39 2.048 . S
O48 C49 1.195 . S
C49 O48 1.195 . S
C49 O50 1.313 . S
O50 C49 1.313 . S
O51 Mg39 2.141 . S
O51 C42 1.289 . S
Mg52 O59 2.141 . S
Mg52 O60 2.048 . S
Mg52 O61 2.048 . S
Mg52 O64 2.141 . S
C53 O54 1.313 . S
C53 O60 1.195 . S
O54 C53 1.313 . S
C55 O56 1.245 . S
C55 O64 1.289 . S
O56 C55 1.245 . S
C57 O58 1.245 . S
C57 O59 1.289 . S
O58 C57 1.245 . S
O59 Mg52 2.141 . S
O59 C57 1.289 . S
O60 Mg52 2.048 . S
O60 C53 1.195 . S
O61 Mg52 2.048 . S
O61 C62 1.195 . S
C62 O61 1.195 . S
C62 O63 1.313 . S
O63 C62 1.313 . S
O64 Mg52 2.141 . S
O64 C55 1.289 . S
Mg65 O72 2.141 . S
Mg65 O73 2.048 . S
Mg65 O74 2.048 . S
Mg65 O77 2.141 . S
C66 O67 1.313 . S
C66 O73 1.195 . S
O67 C66 1.313 . S
C68 O69 1.245 . S
C68 O77 1.289 . S
O69 C68 1.245 . S
C70 O71 1.245 . S
C70 O72 1.289 . S
O71 C70 1.245 . S
O72 Mg65 2.141 . S
O72 C70 1.289 . S
O73 Mg65 2.048 . S
O73 C66 1.195 . S
O74 Mg65 2.048 . S
O74 C75 1.195 . S
C75 O74 1.195 . S
C75 O76 1.313 . S
O76 C75 1.313 . S
O77 Mg65 2.141 . S
O77 C68 1.289 . S
Mg78 O85 2.141 . S
Mg78 O86 2.048 . S
Mg78 O87 2.048 . S
Mg78 O90 2.141 . S
C79 O80 1.313 . S
C79 O86 1.195 . S
O80 C79 1.313 . S
C81 O82 1.245 . S
C81 O90 1.289 . S
O82 C81 1.245 . S
C83 O84 1.245 . S
C83 O85 1.289 . S
O84 C83 1.245 . S
O85 Mg78 2.141 . S
O85 C83 1.289 . S
O86 Mg78 2.048 . S
O86 C79 1.195 . S
O87 Mg78 2.048 . S
O87 C88 1.195 . S
C88 O87 1.195 . S
C88 O89 1.313 . S
O89 C88 1.313 . S
O90 Mg78 2.141 . S
O90 C81 1.289 . S
Mg91 O98 2.141 . S
Mg91 O99 2.048 . S
Mg91 O100 2.048 . S
Mg91 O103 2.141 . S
C92 O93 1.313 . S
C92 O99 1.195 . S
O93 C92 1.313 . S
C94 O95 1.245 . S
C94 O103 1.289 . S
O95 C94 1.245 . S
C96 O97 1.245 . S
C96 O98 1.289 . S
O97 C96 1.245 . S
O98 Mg91 2.141 . S
O98 C96 1.289 . S
O99 Mg91 2.048 . S
O99 C92 1.195 . S
O100 Mg91 2.048 . S
O100 C101 1.195 . S
C101 O100 1.195 . S
C101 O102 1.313 . S
O102 C101 1.313 . S
O103 Mg91 2.141 . S
O103 C94 1.289 . S
C104 C105 1.386 . S
C104 C106 1.383 . S
C104 H120 0.951 . S
C105 C104 1.386 . S
C105 C109 1.383 . S
C106 C104 1.383 . S
C106 C107 1.402 . S
C106 H121 0.951 . S
C107 C106 1.402 . S
C107 C108 1.375 . S
C107 C110 1.481 . S
C108 C107 1.375 . S
C108 C109 1.367 . S
C108 H122 0.951 . S
C109 C105 1.383 . S
C109 C108 1.367 . S
C109 H123 0.950 . S
C110 C107 1.481 . S
C110 C111 1.297 . S
C110 H124 0.950 . S
C111 C110 1.297 . S
C111 C112 1.479 . S
C111 H125 0.950 . S
C112 C111 1.479 . S
C112 C113 1.375 . S
C112 C118 1.404 . S
C113 C112 1.375 . S
C113 C114 1.369 . S
C113 H126 0.950 . S
C114 C113 1.369 . S
C114 C115 1.392 . S
C114 H127 0.951 . S
C115 C114 1.392 . S
C115 C117 1.384 . S
H116 C118 0.949 . S
C117 C115 1.384 . S
C117 C118 1.385 . S
C117 H119 0.950 . S
C118 C112 1.404 . S
C118 H116 0.949 . S
C118 C117 1.385 . S
H119 C117 0.950 . S
H120 C104 0.951 . S
H121 C106 0.951 . S
H122 C108 0.951 . S
H123 C109 0.950 . S
H124 C110 0.950 . S
H125 C111 0.950 . S
H126 C113 0.950 . S
H127 C114 0.951 . S
C128 C129 1.386 . S
C128 C130 1.383 . S
C128 H144 0.951 . S
C129 C128 1.386 . S
C129 C133 1.383 . S
C130 C128 1.383 . S
C130 C131 1.402 . S
C130 H145 0.951 . S
C131 C130 1.402 . S
C131 C132 1.375 . S
C131 C134 1.481 . S
C132 C131 1.375 . S
C132 C133 1.367 . S
C132 H146 0.951 . S
C133 C129 1.383 . S
C133 C132 1.367 . S
C133 H147 0.950 . S
C134 C131 1.481 . S
C134 C135 1.297 . S
C134 H148 0.950 . S
C135 C134 1.297 . S
C135 C136 1.479 . S
C135 H149 0.950 . S
C136 C135 1.479 . S
C136 C137 1.375 . S
C136 C142 1.404 . S
C137 C136 1.375 . S
C137 C138 1.369 . S
C137 H150 0.950 . S
C138 C137 1.369 . S
C138 C139 1.392 . S
C138 H151 0.951 . S
C139 C138 1.392 . S
C139 C141 1.384 . S
H140 C142 0.949 . S
C141 C139 1.384 . S
C141 C142 1.385 . S
C141 H143 0.950 . S
C142 C136 1.404 . S
C142 H140 0.949 . S
C142 C141 1.385 . S
H143 C141 0.950 . S
H144 C128 0.951 . S
H145 C130 0.951 . S
H146 C132 0.951 . S
H147 C133 0.950 . S
H148 C134 0.950 . S
H149 C135 0.950 . S
H150 C137 0.950 . S
H151 C138 0.951 . S
C152 C153 1.386 . S
C152 C154 1.383 . S
C152 H168 0.951 . S
C153 C152 1.386 . S
C153 C157 1.383 . S
C154 C152 1.383 . S
C154 C155 1.402 . S
C154 H169 0.951 . S
C155 C154 1.402 . S
C155 C156 1.375 . S
C155 C158 1.481 . S
C156 C155 1.375 . S
C156 C157 1.367 . S
C156 H170 0.951 . S
C157 C153 1.383 . S
C157 C156 1.367 . S
C157 H171 0.950 . S
C158 C155 1.481 . S
C158 C159 1.297 . S
C158 H172 0.950 . S
C159 C158 1.297 . S
C159 C160 1.479 . S
C159 H173 0.950 . S
C160 C159 1.479 . S
C160 C161 1.375 . S
C160 C166 1.404 . S
C161 C160 1.375 . S
C161 C162 1.369 . S
C161 H174 0.950 . S
C162 C161 1.369 . S
C162 C163 1.392 . S
C162 H175 0.951 1_554 S
C163 C162 1.392 . S
C163 C165 1.384 . S
H164 C166 0.949 . S
C165 C163 1.384 . S
C165 C166 1.385 . S
C165 H167 0.950 . S
C166 C160 1.404 . S
C166 H164 0.949 . S
C166 C165 1.385 . S
H167 C165 0.950 . S
H168 C152 0.951 . S
H169 C154 0.951 . S
H170 C156 0.951 . S
H171 C157 0.950 . S
H172 C158 0.950 . S
H173 C159 0.950 . S
H174 C161 0.950 . S
H175 C162 0.951 1_556 S
C176 C177 1.386 . S
C176 C178 1.383 . S
C176 H192 0.951 . S
C177 C176 1.386 . S
C177 C181 1.383 . S
C178 C176 1.383 . S
C178 C179 1.402 . S
C178 H193 0.951 . S
C179 C178 1.402 . S
C179 C180 1.375 . S
C179 C182 1.481 . S
C180 C179 1.375 . S
C180 C181 1.367 . S
C180 H194 0.951 . S
C181 C177 1.383 . S
C181 C180 1.367 . S
C181 H195 0.950 . S
C182 C179 1.481 . S
C182 C183 1.297 . S
C182 H196 0.950 . S
C183 C182 1.297 . S
C183 C184 1.479 . S
C183 H197 0.950 . S
C184 C183 1.479 . S
C184 C185 1.375 . S
C184 C190 1.404 . S
C185 C184 1.375 . S
C185 C186 1.369 . S
C185 H198 0.950 . S
C186 C185 1.369 . S
C186 C187 1.392 . S
C186 H199 0.951 . S
C187 C186 1.392 . S
C187 C189 1.384 . S
H188 C190 0.949 . S
C189 C187 1.384 . S
C189 C190 1.385 . S
C189 H191 0.950 . S
C190 C184 1.404 . S
C190 H188 0.949 . S
C190 C189 1.385 . S
H191 C189 0.950 . S
H192 C176 0.951 . S
H193 C178 0.951 . S
H194 C180 0.951 . S
H195 C181 0.950 . S
H196 C182 0.950 . S
H197 C183 0.950 . S
H198 C185 0.950 . S
H199 C186 0.951 . S
C200 C201 1.386 . S
C200 C202 1.383 . S
C200 H216 0.951 . S
C201 C200 1.386 . S
C201 C205 1.383 . S
C202 C200 1.383 . S
C202 C203 1.402 . S
C202 H217 0.951 . S
C203 C202 1.402 . S
C203 C204 1.375 . S
C203 C206 1.481 . S
C204 C203 1.375 . S
C204 C205 1.367 . S
C204 H218 0.951 . S
C205 C201 1.383 . S
C205 C204 1.367 . S
C205 H219 0.950 . S
C206 C203 1.481 . S
C206 C207 1.297 . S
C206 H220 0.950 . S
C207 C206 1.297 . S
C207 C208 1.479 . S
C207 H221 0.950 . S
C208 C207 1.479 . S
C208 C209 1.375 . S
C208 C214 1.404 . S
C209 C208 1.375 . S
C209 C210 1.369 . S
C209 H222 0.950 . S
C210 C209 1.369 . S
C210 C211 1.392 . S
C210 H223 0.951 . S
C211 C210 1.392 . S
C211 C213 1.384 . S
H212 C214 0.949 . S
C213 C211 1.384 . S
C213 C214 1.385 . S
C213 H215 0.950 . S
C214 C208 1.404 . S
C214 H212 0.949 . S
C214 C213 1.385 . S
H215 C213 0.950 . S
H216 C200 0.951 . S
H217 C202 0.951 . S
H218 C204 0.951 . S
H219 C205 0.950 . S
H220 C206 0.950 . S
H221 C207 0.950 . S
H222 C209 0.950 . S
H223 C210 0.951 . S
C224 C225 1.386 . S
C224 C226 1.383 . S
C224 H240 0.951 . S
C225 C224 1.386 . S
C225 C229 1.383 . S
C226 C224 1.383 . S
C226 C227 1.402 . S
C226 H241 0.951 . S
C227 C226 1.402 . S
C227 C228 1.375 . S
C227 C230 1.481 . S
C228 C227 1.375 . S
C228 C229 1.367 . S
C228 H242 0.951 . S
C229 C225 1.383 . S
C229 C228 1.367 . S
C229 H243 0.950 . S
C230 C227 1.481 . S
C230 C231 1.297 . S
C230 H244 0.950 . S
C231 C230 1.297 . S
C231 C232 1.479 . S
C231 H245 0.950 . S
C232 C231 1.479 . S
C232 C233 1.375 . S
C232 C238 1.404 . S
C233 C232 1.375 . S
C233 C234 1.369 . S
C233 H246 0.950 . S
C234 C233 1.369 . S
C234 C235 1.392 . S
C234 H247 0.951 . S
C235 C234 1.392 . S
C235 C237 1.384 . S
H236 C238 0.949 . S
C237 C235 1.384 . S
C237 C238 1.385 . S
C237 H239 0.950 . S
C238 C232 1.404 . S
C238 H236 0.949 . S
C238 C237 1.385 . S
H239 C237 0.950 . S
H240 C224 0.951 . S
H241 C226 0.951 . S
H242 C228 0.951 . S
H243 C229 0.950 . S
H244 C230 0.950 . S
H245 C231 0.950 . S
H246 C233 0.950 . S
H247 C234 0.951 . S
C248 C249 1.386 . S
C248 C250 1.383 . S
C248 H264 0.951 . S
C249 C248 1.386 . S
C249 C253 1.383 . S
C250 C248 1.383 . S
C250 C251 1.402 . S
C250 H265 0.951 . S
C251 C250 1.402 . S
C251 C252 1.375 . S
C251 C254 1.481 . S
C252 C251 1.375 . S
C252 C253 1.367 . S
C252 H266 0.951 . S
C253 C249 1.383 . S
C253 C252 1.367 . S
C253 H267 0.950 . S
C254 C251 1.481 . S
C254 C255 1.297 . S
C254 H268 0.950 . S
C255 C254 1.297 . S
C255 C256 1.479 . S
C255 H269 0.950 . S
C256 C255 1.479 . S
C256 C257 1.375 . S
C256 C262 1.404 . S
C257 C256 1.375 . S
C257 C258 1.369 . S
C257 H270 0.950 . S
C258 C257 1.369 . S
C258 C259 1.392 . S
C258 H271 0.951 . S
C259 C258 1.392 . S
C259 C261 1.384 . S
H260 C262 0.949 . S
C261 C259 1.384 . S
C261 C262 1.385 . S
C261 H263 0.950 . S
C262 C256 1.404 . S
C262 H260 0.949 . S
C262 C261 1.385 . S
H263 C261 0.950 . S
H264 C248 0.951 . S
H265 C250 0.951 . S
H266 C252 0.951 . S
H267 C253 0.950 . S
H268 C254 0.950 . S
H269 C255 0.950 . S
H270 C257 0.950 . S
H271 C258 0.951 . S
C272 C273 1.386 . S
C272 C274 1.383 . S
C272 H288 0.951 . S
C273 C272 1.386 . S
C273 C277 1.383 . S
C274 C272 1.383 . S
C274 C275 1.402 . S
C274 H289 0.951 . S
C275 C274 1.402 . S
C275 C276 1.375 . S
C275 C278 1.481 . S
C276 C275 1.375 . S
C276 C277 1.367 . S
C276 H290 0.951 . S
C277 C273 1.383 . S
C277 C276 1.367 . S
C277 H291 0.950 . S
C278 C275 1.481 . S
C278 C279 1.297 . S
C278 H292 0.950 . S
C279 C278 1.297 . S
C279 C280 1.479 . S
C279 H293 0.950 . S
C280 C279 1.479 . S
C280 C281 1.375 . S
C280 C286 1.404 . S
C281 C280 1.375 . S
C281 C282 1.369 . S
C281 H294 0.950 . S
C282 C281 1.369 . S
C282 C283 1.392 . S
C282 H295 0.951 . S
C283 C282 1.392 . S
C283 C285 1.384 . S
H284 C286 0.949 . S
C285 C283 1.384 . S
C285 C286 1.385 . S
C285 H287 0.950 . S
C286 C280 1.404 . S
C286 H284 0.949 . S
C286 C285 1.385 . S
H287 C285 0.950 . S
H288 C272 0.951 . S
H289 C274 0.951 . S
H290 C276 0.951 . S
H291 C277 0.950 . S
H292 C278 0.950 . S
H293 C279 0.950 . S
H294 C281 0.950 . S
H295 C282 0.951 . S
C296 C297 1.386 . S
C296 C298 1.383 . S
C296 H312 0.951 . S
C297 C296 1.386 . S
C297 C301 1.383 . S
C298 C296 1.383 . S
C298 C299 1.402 . S
C298 H313 0.951 . S
C299 C298 1.402 . S
C299 C300 1.375 . S
C299 C302 1.519 . S
C300 C299 1.375 . S
C300 C301 1.367 . S
C300 H314 0.951 . S
C301 C297 1.383 . S
C301 C300 1.367 . S
C301 H315 0.950 . S
C302 C299 1.519 . S
C302 C303 1.284 1_455 S
C302 H316 0.924 1_455 S
C303 C302 1.284 1_655 S
C303 C304 1.479 . S
C303 H317 0.950 1_655 S
C304 C303 1.479 . S
C304 C305 1.375 . S
C304 C310 1.404 . S
C305 C304 1.375 . S
C305 C306 1.369 . S
C305 H318 0.950 . S
C306 C305 1.369 . S
C306 C307 1.392 . S
C306 H319 0.951 . S
C307 C306 1.392 . S
C307 C309 1.384 . S
H308 C310 0.949 . S
C309 C307 1.384 . S
C309 C310 1.385 . S
C309 H311 0.950 . S
C310 C304 1.404 . S
C310 H308 0.949 . S
C310 C309 1.385 . S
H311 C309 0.950 . S
H312 C296 0.951 . S
H313 C298 0.951 . S
H314 C300 0.951 . S
H315 C301 0.950 . S
H316 C302 0.924 1_655 S
H317 C303 0.950 1_455 S
H318 C305 0.950 . S
H319 C306 0.951 . S
C320 C321 1.386 . S
C320 C322 1.383 . S
C320 H336 0.951 . S
C321 C320 1.386 . S
C321 C325 1.383 . S
C322 C320 1.383 . S
C322 C323 1.402 . S
C322 H337 0.951 . S
C323 C322 1.402 . S
C323 C324 1.375 . S
C323 C326 1.481 . S
C324 C323 1.375 . S
C324 C325 1.367 . S
C324 H338 0.951 . S
C325 C321 1.383 . S
C325 C324 1.367 . S
C325 H339 0.950 . S
C326 C323 1.481 . S
C326 C327 1.297 . S
C326 H340 0.950 . S
C327 C326 1.297 . S
C327 C328 1.479 . S
C327 H341 0.950 . S
C328 C327 1.479 . S
C328 C329 1.375 . S
C328 C334 1.404 . S
C329 C328 1.375 . S
C329 C330 1.369 . S
C329 H342 0.950 . S
C330 C329 1.369 . S
C330 C331 1.392 . S
C330 H343 0.951 . S
C331 C330 1.392 . S
C331 C333 1.384 . S
H332 C334 0.949 . S
C333 C331 1.384 . S
C333 C334 1.385 . S
C333 H335 0.950 . S
C334 C328 1.404 . S
C334 H332 0.949 . S
C334 C333 1.385 . S
H335 C333 0.950 . S
H336 C320 0.951 . S
H337 C322 0.951 . S
H338 C324 0.951 . S
H339 C325 0.950 . S
H340 C326 0.950 . S
H341 C327 0.950 . S
H342 C329 0.950 . S
H343 C330 0.951 . S
C344 C345 1.386 . S
C344 C346 1.383 . S
C344 H360 0.951 . S
C345 C344 1.386 . S
C345 C349 1.383 . S
C346 C344 1.383 . S
C346 C347 1.402 . S
C346 H361 0.951 . S
C347 C346 1.402 . S
C347 C348 1.375 . S
C347 C350 1.481 . S
C348 C347 1.375 . S
C348 C349 1.367 . S
C348 H362 0.951 . S
C349 C345 1.383 . S
C349 C348 1.367 . S
C349 H363 0.950 . S
C350 C347 1.481 . S
C350 C351 1.297 1_455 S
C350 H364 0.950 . S
C351 C350 1.297 1_655 S
C351 C352 1.479 . S
C351 H365 0.950 1_655 S
C352 C351 1.479 . S
C352 C353 1.375 . S
C352 C358 1.404 . S
C353 C352 1.375 . S
C353 C354 1.369 . S
C353 H366 0.950 . S
C354 C353 1.369 . S
C354 C355 1.392 . S
C354 H367 0.951 . S
C355 C354 1.392 . S
C355 C357 1.384 . S
H356 C358 0.949 . S
C357 C355 1.384 . S
C357 C358 1.385 . S
C357 H359 0.950 . S
C358 C352 1.404 . S
C358 H356 0.949 . S
C358 C357 1.385 . S
H359 C357 0.950 . S
H360 C344 0.951 . S
H361 C346 0.951 . S
H362 C348 0.951 . S
H363 C349 0.950 . S
H364 C350 0.950 . S
H365 C351 0.950 1_455 S
H366 C353 0.950 . S
H367 C354 0.951 . S
C368 C369 1.386 . S
C368 C370 1.383 . S
C368 H384 0.951 . S
C369 C368 1.386 . S
C369 C373 1.383 . S
C370 C368 1.383 . S
C370 C371 1.402 . S
C370 H385 0.951 . S
C371 C370 1.402 . S
C371 C372 1.375 . S
C371 C374 1.481 . S
C372 C371 1.375 . S
C372 C373 1.367 . S
C372 H386 0.951 . S
C373 C369 1.383 . S
C373 C372 1.367 . S
C373 H387 0.950 . S
C374 C371 1.481 . S
C374 C375 1.297 . S
C374 H388 0.950 . S
C375 C374 1.297 . S
C375 C376 1.479 . S
C375 H389 0.950 . S
C376 C375 1.479 . S
C376 C377 1.375 . S
C376 C382 1.404 . S
C377 C376 1.375 . S
C377 C378 1.369 . S
C377 H390 0.950 . S
C378 C377 1.369 . S
C378 C379 1.392 . S
C378 H391 0.951 . S
C379 C378 1.392 . S
C379 C381 1.384 . S
H380 C382 0.949 . S
C381 C379 1.384 . S
C381 C382 1.385 . S
C381 H383 0.950 . S
C382 C376 1.404 . S
C382 H380 0.949 . S
C382 C381 1.385 . S
H383 C381 0.950 . S
H384 C368 0.951 . S
H385 C370 0.951 . S
H386 C372 0.951 . S
H387 C373 0.950 . S
H388 C374 0.950 . S
H389 C375 0.950 . S
H390 C377 0.950 . S
H391 C378 0.951 . S
C392 C393 1.386 . S
C392 C394 1.383 . S
C392 H408 0.951 . S
C393 C392 1.386 . S
C393 C397 1.383 . S
C394 C392 1.383 . S
C394 C395 1.402 1_554 S
C394 H409 0.951 1_455 S
C395 C394 1.402 1_556 S
C395 C396 1.375 . S
C395 C398 1.501 . S
C396 C395 1.375 . S
C396 C397 1.367 1_556 S
C396 H410 0.951 . S
C397 C393 1.383 . S
C397 C396 1.367 1_554 S
C397 H411 0.950 . S
C398 C395 1.501 . S
C398 C399 1.296 1_445 S
C398 H412 0.930 1_545 S
C399 C398 1.296 1_665 S
C399 C400 1.479 . S
C399 H413 0.950 1_565 S
C400 C399 1.479 . S
C400 C401 1.375 . S
C400 C406 1.404 . S
C401 C400 1.375 . S
C401 C402 1.369 . S
C401 H414 0.950 . S
C402 C401 1.369 . S
C402 C403 1.392 . S
C402 H415 0.951 . S
C403 C402 1.392 . S
C403 C405 1.384 . S
H404 C406 0.949 1_455 S
C405 C403 1.384 . S
C405 C406 1.385 . S
C405 H407 0.950 . S
C406 C400 1.404 . S
C406 H404 0.949 1_655 S
C406 C405 1.385 . S
H407 C405 0.950 . S
H408 C392 0.951 . S
H409 C394 0.951 1_655 S
H410 C396 0.951 . S
H411 C397 0.950 . S
H412 C398 0.930 1_565 S
H413 C399 0.950 1_545 S
H414 C401 0.950 . S
H415 C402 0.951 . S
C416 C417 1.386 . S
C416 C418 1.383 . S
C416 H432 0.951 . S
C417 C416 1.386 . S
C417 C421 1.383 . S
C418 C416 1.383 . S
C418 C419 1.402 . S
C418 H433 0.951 . S
C419 C418 1.402 . S
C419 C420 1.375 . S
C419 C422 1.481 . S
C420 C419 1.375 . S
C420 C421 1.367 . S
C420 H434 0.951 . S
C421 C417 1.383 . S
C421 C420 1.367 . S
C421 H435 0.950 . S
C422 C419 1.481 . S
C422 C423 1.297 . S
C422 H436 0.950 . S
C423 C422 1.297 . S
C423 C424 1.479 . S
C423 H437 0.950 . S
C424 C423 1.479 . S
C424 C425 1.375 . S
C424 C430 1.404 . S
C425 C424 1.375 . S
C425 C426 1.369 . S
C425 H438 0.950 . S
C426 C425 1.369 . S
C426 C427 1.392 . S
C426 H439 0.951 . S
C427 C426 1.392 . S
C427 C429 1.384 . S
H428 C430 0.949 . S
C429 C427 1.384 . S
C429 C430 1.385 . S
C429 H431 0.950 . S
C430 C424 1.404 . S
C430 H428 0.949 . S
C430 C429 1.385 . S
H431 C429 0.950 . S
H432 C416 0.951 . S
H433 C418 0.951 . S
H434 C420 0.951 . S
H435 C421 0.950 . S
H436 C422 0.950 . S
H437 C423 0.950 . S
H438 C425 0.950 . S
H439 C426 0.951 . S
C440 C441 1.386 . S
C440 C442 1.383 . S
C440 H456 0.951 . S
C441 C440 1.386 . S
C441 C445 1.383 1_554 S
C442 C440 1.383 . S
C442 C443 1.402 . S
C442 H457 0.951 . S
C443 C442 1.402 . S
C443 C444 1.375 1_554 S
C443 C446 1.482 . S
C444 C443 1.375 1_556 S
C444 C445 1.367 . S
C444 H458 0.951 . S
C445 C441 1.383 1_556 S
C445 C444 1.367 . S
C445 H459 0.950 . S
C446 C443 1.482 . S
C446 C447 1.302 . S
C446 H460 0.944 1_554 S
C447 C446 1.302 . S
C447 C448 1.479 . S
C447 H461 0.950 . S
C448 C447 1.479 . S
C448 C449 1.375 . S
C448 C454 1.404 1_554 S
C449 C448 1.375 . S
C449 C450 1.369 . S
C449 H462 0.950 . S
C450 C449 1.369 . S
C450 C451 1.392 1_554 S
C450 H463 0.951 . S
C451 C450 1.392 1_556 S
C451 C453 1.384 . S
H452 C454 0.949 . S
C453 C451 1.384 . S
C453 C454 1.385 . S
C453 H455 0.950 . S
C454 C448 1.404 1_556 S
C454 H452 0.949 . S
C454 C453 1.385 . S
H455 C453 0.950 . S
H456 C440 0.951 . S
H457 C442 0.951 . S
H458 C444 0.951 . S
H459 C445 0.950 . S
H460 C446 0.944 1_556 S
H461 C447 0.950 . S
H462 C449 0.950 . S
H463 C450 0.951 . S
C464 C465 1.386 . S
C464 C466 1.383 . S
C464 H480 0.951 . S
C465 C464 1.386 . S
C465 C469 1.383 . S
C466 C464 1.383 . S
C466 C467 1.402 . S
C466 H481 0.951 . S
C467 C466 1.402 . S
C467 C468 1.375 . S
C467 C470 1.481 1_455 S
C468 C467 1.375 . S
C468 C469 1.367 . S
C468 H482 0.952 1_455 S
C469 C465 1.383 . S
C469 C468 1.367 . S
C469 H483 0.950 . S
C470 C467 1.481 1_655 S
C470 C471 1.297 1_565 S
C470 H484 0.950 . S
C471 C470 1.297 1_545 S
C471 C472 1.479 . S
C471 H485 0.950 1_655 S
C472 C471 1.479 . S
C472 C473 1.375 . S
C472 C478 1.404 . S
C473 C472 1.375 . S
C473 C474 1.369 . S
C473 H486 0.950 . S
C474 C473 1.369 . S
C474 C475 1.392 . S
C474 H487 0.951 . S
C475 C474 1.392 . S
C475 C477 1.384 . S
H476 C478 0.949 . S
C477 C475 1.384 . S
C477 C478 1.385 . S
C477 H479 0.950 . S
C478 C472 1.404 . S
C478 H476 0.949 . S
C478 C477 1.385 . S
H479 C477 0.950 . S
H480 C464 0.951 . S
H481 C466 0.951 . S
H482 C468 0.952 1_655 S
H483 C469 0.950 . S
H484 C470 0.950 . S
H485 C471 0.950 1_455 S
H486 C473 0.950 . S
H487 C474 0.951 . S
C105 C23 2.148 . S
C115 C3 2.156 1_556 S
C129 C10 2.153 . S
C139 C16 2.146 . S
C153 C49 2.159 . S
C163 C29 2.134 1_554 S
C177 C36 2.169 . S
C187 C42 2.124 . S
C201 C57 2.147 1_554 S
C211 C66 2.126 . S
C225 C70 2.143 . S
C235 C53 2.133 . S
C249 C83 2.151 1_556 S
C259 C92 2.155 . S
C273 C79 2.153 . S
C283 C96 2.126 . S
C297 C1 0.312 . S
C307 C40 0.397 . S
C321 C14 0.438 . S
C331 C27 0.340 . S
C345 C101 0.468 . S
C355 C62 0.264 . S
C369 C88 0.372 . S
C379 C75 0.449 . S
C393 C5 1.928 . S
C403 C55 1.877 . S
C417 C68 1.935 . S
C427 C18 1.894 . S
C441 C81 1.913 . S
C451 C31 1.937 . S
C465 C94 1.918 . S
C475 C44 1.881 . S
