# Generated by pormake.
# Topology skc, (5)-cn, num edge types: 1
# Building blocks:
#     Node 0, Type 0, BuildingBlock: BEQFEK_clean_sbu_0, # of connection points: 5
#     Node 1, Type 0, BuildingBlock: BEQFEK_clean_sbu_0, # of connection points: 5
#     Node 2, Type 0, BuildingBlock: BEQFEK_clean_sbu_0, # of connection points: 5
#     Node 3, Type 0, BuildingBlock: BEQFEK_clean_sbu_0, # of connection points: 5
#     Node 4, Type 0, BuildingBlock: BEQFEK_clean_sbu_0, # of connection points: 5
#     Node 5, Type 0, BuildingBlock: BEQFEK_clean_sbu_0, # of connection points: 5
#     Node 6, Type 0, BuildingBlock: BEQFEK_clean_sbu_0, # of connection points: 5
#     Node 7, Type 0, BuildingBlock: BEQFEK_clean_sbu_0, # of connection points: 5
#     Edge 8, Type (0, 0), None
#     Edge 9, Type (0, 0), None
#     Edge 10, Type (0, 0), None
#     Edge 11, Type (0, 0), None
#     Edge 12, Type (0, 0), None
#     Edge 13, Type (0, 0), None
#     Edge 14, Type (0, 0), None
#     Edge 15, Type (0, 0), None
#     Edge 16, Type (0, 0), None
#     Edge 17, Type (0, 0), None
#     Edge 18, Type (0, 0), None
#     Edge 19, Type (0, 0), None
#     Edge 20, Type (0, 0), None
#     Edge 21, Type (0, 0), None
#     Edge 22, Type (0, 0), None
#     Edge 23, Type (0, 0), None
#     Edge 24, Type (0, 0), None
#     Edge 25, Type (0, 0), None
#     Edge 26, Type (0, 0), None
#     Edge 27, Type (0, 0), None
# Relax obj value: 0.150
# Max RMSD: 0.219
# Mean RMSD: 0.219
data_MOF--net-skc--node1-BEQFEK_clean_sbu_0--edge1-none
_symmetry_space_group_name_H-M    P1
_symmetry_Int_Tables_number       1
_symmetry_cell_setting            triclinic
loop_
_symmetry_equiv_pos_as_xyz
'x, y, z'
_cell_length_a     23.786881
_cell_length_b     11.409545
_cell_length_c     13.071231
_cell_angle_alpha  90.064749
_cell_angle_beta   90.007211
_cell_angle_gamma 90.233866
loop_
_atom_site_label
_atom_site_type_symbol
_atom_site_fract_x
_atom_site_fract_y
_atom_site_fract_z
_atom_type_partial_charge
Co0 Co 0.05798 0.15401 0.19579 0.0
Co1 Co 0.1209 0.19475 0.9874 0.0
C2 C 0.03401 0.03013 0.99723 0.0
O3 O 0.02053 0.05993 0.08787 0.0
O4 O 0.08352 0.04616 0.96482 0.0
C5 C 0.02468 0.06723 0.4051 0.0
O6 O 0.0608 -0.01937 0.40313 0.0
C7 C 0.20881 0.13892 0.838 0.0
C8 C 0.22879 0.31059 0.76991 0.0
C9 C 0.24713 0.1962 0.77621 0.0
N10 N 0.17118 0.21758 0.87258 0.0
N11 N 0.18245 0.31929 0.8285 0.0
C12 C 0.20872 0.01212 0.86572 0.0
H13 H 0.19201 0.00059 0.94422 0.0
H14 H 0.25152 -0.02568 0.85943 0.0
H15 H 0.1806 -0.03578 0.81216 0.0
C16 C 0.1757 0.15119 0.27252 0.0
N17 N 0.1377 0.15863 0.19643 0.0
N18 N 0.16434 0.17945 0.11007 0.0
C19 C 0.22009 0.1814 0.12967 0.0
C20 C 0.22922 0.16248 0.23206 0.0
C21 C 0.16126 0.15726 0.38296 0.0
H22 H 0.11734 0.18428 0.39359 0.0
H23 H 0.16938 0.07159 0.42005 0.0
H24 H 0.18693 0.2266 0.41898 0.0
O25 O 0.03355 0.30793 0.16114 0.0
O26 O 0.05965 0.32325 0.99861 0.0
H27 H 0.3055 0.22341 0.08988 0.0
H28 H 0.27139 0.11038 0.01702 0.0
C29 C 0.26538 0.19662 0.053 0.0
H30 H 0.25386 0.26323 0.99558 0.0
H31 H 0.16033 0.39624 0.84161 0.0
O32 O 0.02082 0.13647 0.32981 0.0
C33 C 0.03119 0.35939 0.0756 0.0
Co34 Co 0.97131 0.68055 0.18407 0.0
Co35 Co 0.9077 0.62722 0.97463 0.0
C36 C 0.9955 0.78491 0.96978 0.0
O37 O 1.00916 0.75992 0.06219 0.0
O38 O 0.94579 0.76964 0.93877 0.0
C39 C 0.98034 0.78538 0.39405 0.0
O40 O 0.93866 0.85389 0.3673 0.0
C41 C 0.82082 0.673 0.82185 0.0
C42 C 0.79818 0.49606 0.7672 0.0
C43 C 0.78159 0.61182 0.76474 0.0
N44 N 0.85733 0.59555 0.86212 0.0
N45 N 0.84452 0.49045 0.82601 0.0
C46 C 0.82259 0.80241 0.84051 0.0
H47 H 0.83758 0.82083 0.91923 0.0
H48 H 0.78079 0.84281 0.82787 0.0
H49 H 0.85291 0.84281 0.78635 0.0
C50 C 0.85337 0.66811 0.25889 0.0
N51 N 0.89119 0.66987 0.18202 0.0
N52 N 0.86444 0.65345 0.09505 0.0
C53 C 0.80871 0.64977 0.11468 0.0
C54 C 0.79987 0.6596 0.21798 0.0
C55 C 0.86774 0.63629 0.36628 0.0
H56 H 0.91165 0.60551 0.37182 0.0
H57 H 0.86054 0.71229 0.41727 0.0
H58 H 0.84077 0.56241 0.39123 0.0
O59 O 0.99711 0.52467 0.15815 0.0
O60 O 0.96854 0.49934 0.99695 0.0
H61 H 0.7225 0.61265 0.07591 0.0
H62 H 0.75875 0.71623 0.99629 0.0
C63 C 0.76322 0.6332 0.03829 0.0
H64 H 0.7735 0.56063 0.98564 0.0
H65 H 0.86546 0.41373 0.84495 0.0
O66 O 1.0021 0.71764 0.32724 0.0
C67 C 0.99825 0.46831 0.07431 0.0
Co68 Co 0.06239 0.68015 0.67739 0.0
Co69 Co 0.12491 0.60219 0.88009 0.0
C70 C 0.03969 0.77822 0.89081 0.0
O71 O 0.02467 0.7617 0.7975 0.0
O72 O 0.08723 0.74469 0.92259 0.0
C73 C 0.99304 0.76828 0.50431 0.0
O74 O 0.95327 0.78233 0.57266 0.0
C75 C 0.21015 0.63918 0.03782 0.0
C76 C 0.22069 0.46571 0.10819 0.0
C77 C 0.24164 0.57845 0.1086 0.0
N78 N 0.1726 0.56534 0.99517 0.0
N79 N 0.17829 0.46235 0.04001 0.0
C80 C 0.21737 0.76455 0.00815 0.0
H81 H 0.19456 0.82019 0.06398 0.0
H82 H 0.19949 0.77953 0.93109 0.0
H83 H 0.2624 0.79045 0.01001 0.0
C84 C 0.18025 0.7259 0.61794 0.0
N85 N 0.14226 0.68396 0.68505 0.0
N86 N 0.16891 0.63621 0.76272 0.0
C87 C 0.22485 0.64136 0.74441 0.0
C88 C 0.23355 0.6994 0.65317 0.0
C89 C 0.16564 0.79454 0.52422 0.0
H90 H 0.13196 0.85816 0.54257 0.0
H91 H 0.20262 0.84246 0.49359 0.0
H92 H 0.14962 0.73375 0.46456 0.0
O93 O 0.03343 0.51734 0.69322 0.0
O94 O 0.06331 0.48145 0.85155 0.0
H95 H 0.3038 0.55443 0.76546 0.0
H96 H 0.28929 0.66747 0.85612 0.0
C97 C 0.26999 0.59441 0.81235 0.0
H98 H 0.25306 0.52782 0.86544 0.0
H99 H 0.15525 0.38817 0.02123 0.0
O100 O 0.04034 0.72873 0.53301 0.0
C101 C 0.03219 0.45607 0.77464 0.0
Co102 Co 0.96802 0.11621 0.70384 0.0
Co103 Co 0.9032 0.21216 0.89443 0.0
C104 C 0.98954 0.04062 0.92041 0.0
O105 O 1.00406 0.04954 0.82707 0.0
O106 O 0.94312 0.08051 0.95167 0.0
C107 C 0.99602 0.1007 0.49969 0.0
O108 O 0.96739 0.19887 0.50243 0.0
C109 C 0.81797 0.18398 0.05305 0.0
C110 C 0.80654 0.36207 0.11437 0.0
C111 C 0.78647 0.24876 0.1213 0.0
N112 N 0.85465 0.2561 0.00589 0.0
N113 N 0.84855 0.36192 0.0454 0.0
C114 C 0.81178 0.05596 0.03049 0.0
H115 H 0.82993 0.0347 0.95469 0.0
H116 H 0.76692 0.02895 0.03361 0.0
H117 H 0.83476 0.00539 0.08957 0.0
C118 C 0.84937 0.07139 0.63536 0.0
N119 N 0.88732 0.11178 0.70377 0.0
N120 N 0.8601 0.16266 0.77953 0.0
C121 C 0.80429 0.15891 0.75957 0.0
C122 C 0.79604 0.09958 0.66885 0.0
C123 C 0.86323 0.0111 0.53718 0.0
H124 H 0.90332 -0.03553 0.54451 0.0
H125 H 0.82967 -0.05167 0.51475 0.0
H126 H 0.86737 0.07752 0.47577 0.0
O127 O 0.99594 0.27995 0.70432 0.0
O128 O 0.96304 0.33453 0.85634 0.0
H129 H 0.72461 0.24514 0.77584 0.0
H130 H 0.74042 0.14065 0.87314 0.0
C131 C 0.75891 0.21039 0.82459 0.0
H132 H 0.77536 0.2819 0.8733 0.0
H133 H 0.8714 0.43509 0.02298 0.0
O134 O 1.00133 0.04144 0.58106 0.0
C135 C 0.99486 0.35191 0.77864 0.0
Co136 Co 0.55784 0.63371 0.6838 0.0
Co137 Co 0.62143 0.68709 0.47449 0.0
C138 C 0.53367 0.52923 0.46939 0.0
O139 O 0.52001 0.55419 0.56185 0.0
O140 O 0.58337 0.54459 0.43841 0.0
C141 C 0.54861 0.52868 0.89354 0.0
O142 O 0.59018 0.45987 0.86666 0.0
C143 C 0.70836 0.64094 0.32206 0.0
C144 C 0.73102 0.81765 0.26721 0.0
C145 C 0.74765 0.70189 0.26506 0.0
N146 N 0.67181 0.71854 0.36209 0.0
N147 N 0.68463 0.82349 0.32587 0.0
C148 C 0.70658 0.51161 0.3409 0.0
H149 H 0.69175 0.49358 0.41976 0.0
H150 H 0.74833 0.47106 0.32805 0.0
H151 H 0.67611 0.47103 0.28704 0.0
C152 C 0.67581 0.64541 0.75867 0.0
N153 N 0.63797 0.64424 0.68181 0.0
N154 N 0.66472 0.66097 0.5949 0.0
C155 C 0.72047 0.66443 0.61453 0.0
C156 C 0.72929 0.65373 0.71774 0.0
C157 C 0.66154 0.67675 0.86625 0.0
H158 H 0.61766 0.70765 0.87206 0.0
H159 H 0.66876 0.60052 0.91682 0.0
H160 H 0.68855 0.75048 0.8915 0.0
O161 O 0.53202 0.78961 0.65798 0.0
O162 O 0.56054 0.81486 0.49681 0.0
H163 H 0.80657 0.70286 0.57615 0.0
H164 H 0.77078 0.59875 0.49618 0.0
C165 C 0.76597 0.6817 0.53832 0.0
H166 H 0.7555 0.7541 0.48576 0.0
H167 H 0.66364 0.90028 0.34461 0.0
O168 O 0.52701 0.59671 0.8269 0.0
C169 C 0.53084 0.84589 0.57421 0.0
Co170 Co 0.47106 0.16024 0.69592 0.0
Co171 Co 0.40817 0.11933 0.4874 0.0
C172 C 0.49507 0.284 0.49753 0.0
O173 O 0.50855 0.25418 0.58812 0.0
O174 O 0.44557 0.2679 0.46505 0.0
C175 C 0.50431 0.24697 0.90545 0.0
O176 O 0.46814 0.33349 0.90371 0.0
C177 C 0.32033 0.17523 0.33799 0.0
C178 C 0.30003 0.00351 0.26997 0.0
C179 C 0.28185 0.11804 0.27635 0.0
N180 N 0.35788 0.09642 0.3725 0.0
N181 N 0.34642 -0.00533 0.32845 0.0
C182 C 0.32059 0.30206 0.36582 0.0
H183 H 0.33721 0.31355 0.44441 0.0
H184 H 0.27786 0.34014 0.35939 0.0
H185 H 0.34886 0.34969 0.31245 0.0
C186 C 0.35332 0.16319 0.77249 0.0
N187 N 0.39134 0.15565 0.69645 0.0
N188 N 0.36472 0.13481 0.61001 0.0
C189 C 0.30896 0.13298 0.62948 0.0
C190 C 0.29983 0.15218 0.73184 0.0
C191 C 0.36769 0.15712 0.88294 0.0
H192 H 0.41161 0.13008 0.89363 0.0
H193 H 0.35955 0.24278 0.92019 0.0
H194 H 0.34199 0.08777 0.91874 0.0
O195 O 0.49546 0.00629 0.66119 0.0
O196 O 0.4694 -0.00918 0.49861 0.0
H197 H 0.22354 0.0911 0.58954 0.0
H198 H 0.25777 0.20375 0.51666 0.0
C199 C 0.2637 0.11764 0.55274 0.0
H200 H 0.2752 0.05078 0.49539 0.0
H201 H 0.36843 -0.08239 0.34155 0.0
O202 O 0.5082 0.17782 0.82998 0.0
C203 C 0.49784 -0.04525 0.5756 0.0
Co204 Co 0.56103 0.19786 0.20403 0.0
Co205 Co 0.62587 0.10209 0.39439 0.0
C206 C 0.53954 0.27353 0.42071 0.0
O207 O 0.52501 0.26454 0.32736 0.0
O208 O 0.58599 0.23376 0.45189 0.0
C209 C 0.53299 0.21347 0.99995 0.0
O210 O 0.56165 0.11533 0.00245 0.0
C211 C 0.71112 0.13033 0.55294 0.0
C212 C 0.72246 -0.0477 0.61417 0.0
C213 C 0.74263 0.06554 0.62102 0.0
N214 N 0.6744 0.0582 0.50575 0.0
N215 N 0.68044 -0.04756 0.54521 0.0
C216 C 0.71735 0.25832 0.53053 0.0
H217 H 0.69914 0.27956 0.45481 0.0
H218 H 0.76222 0.28524 0.53358 0.0
H219 H 0.69444 0.30899 0.58974 0.0
C220 C 0.67969 0.24287 0.13556 0.0
N221 N 0.64174 0.20239 0.20388 0.0
N222 N 0.66897 0.1515 0.27952 0.0
C223 C 0.72479 0.15529 0.25957 0.0
C224 C 0.73303 0.21474 0.16901 0.0
C225 C 0.66579 0.3032 0.03754 0.0
H226 H 0.62568 0.34975 0.04495 0.0
H227 H 0.69932 0.36607 0.01529 0.0
H228 H 0.6617 0.23683 0.97594 0.0
O229 O 0.5331 0.03406 0.20431 0.0
O230 O 0.56603 -0.02031 0.35627 0.0
H231 H 0.80443 0.06892 0.27563 0.0
H232 H 0.78872 0.17353 0.37308 0.0
C233 C 0.77017 0.10378 0.32447 0.0
H234 H 0.75371 0.03235 0.3731 0.0
H235 H 0.65754 0.87929 0.52276 0.0
O236 O 0.52767 0.27267 0.08147 0.0
C237 C 0.53418 -0.03778 0.27858 0.0
Co238 Co 0.46666 0.63379 0.17718 0.0
Co239 Co 0.40423 0.71198 0.38014 0.0
C240 C 0.48946 0.5359 0.39045 0.0
O241 O 0.50445 0.55236 0.29716 0.0
O242 O 0.44194 0.56949 0.42234 0.0
C243 C 0.53597 0.5459 0.00384 0.0
O244 O 0.57584 0.53234 0.07206 0.0
C245 C 0.31903 0.67496 0.53787 0.0
C246 C 0.30822 0.84861 0.60813 0.0
C247 C 0.28735 0.73581 0.60839 0.0
N248 N 0.35654 0.74884 0.49533 0.0
N249 N 0.3507 0.85195 0.54012 0.0
C250 C 0.31196 0.5495 0.50816 0.0
H251 H 0.33495 0.49412 0.56383 0.0
H252 H 0.32974 0.53455 0.43101 0.0
H253 H 0.26697 0.52328 0.51019 0.0
C254 C 0.34874 0.58812 0.11791 0.0
N255 N 0.38679 0.63006 0.18501 0.0
N256 N 0.3602 0.67785 0.26281 0.0
C257 C 0.30425 0.67272 0.24463 0.0
C258 C 0.29548 0.61461 0.15334 0.0
C259 C 0.36326 0.51946 0.02403 0.0
H260 H 0.39692 0.45577 0.04223 0.0
H261 H 0.32624 0.47159 0.99338 0.0
H262 H 0.37928 0.5802 0.96446 0.0
O263 O 0.49561 0.79661 0.19311 0.0
O264 O 0.46577 0.83277 0.35148 0.0
H265 H 0.22527 0.7595 0.26596 0.0
H266 H 0.23996 0.64674 0.35656 0.0
C267 C 0.25916 0.71973 0.31273 0.0
H268 H 0.2761 0.78651 0.36576 0.0
H269 H 0.37368 -0.07384 0.52137 0.0
O270 O 0.48861 0.58506 0.03269 0.0
C271 C 0.49685 0.85805 0.27455 0.0
loop_
_geom_bond_atom_site_label_1
_geom_bond_atom_site_label_2
_geom_bond_distance
_geom_bond_site_symmetry_2
_ccdc_geom_bond_type
Co0 O3 1.970 . S
Co0 N17 1.989 . S
Co0 O25 1.967 . S
Co0 O32 1.920 1_455 S
Co1 O4 1.966 . S
Co1 N10 2.022 . S
Co1 N18 1.993 1_556 S
Co1 O26 1.941 1_556 S
C2 O3 1.258 1_556 S
C2 O4 1.263 . S
O3 Co0 1.970 . S
O3 C2 1.258 1_554 S
O4 Co1 1.966 . S
O4 C2 1.263 . S
C5 O6 1.235 1_645 S
C5 O32 1.289 . S
O6 C5 1.235 1_465 S
C7 C9 1.400 . S
C7 N10 1.351 . S
C7 C12 1.501 . S
C8 C9 1.387 . S
C8 N11 1.341 . S
C9 C7 1.400 . S
C9 C8 1.387 . S
N10 Co1 2.022 . S
N10 C7 1.351 . S
N10 N11 1.365 . S
N11 C8 1.341 . S
N11 N10 1.365 . S
N11 H31 0.862 . S
C12 C7 1.501 . S
C12 H13 0.961 . S
C12 H14 0.961 1_545 S
C12 H15 0.960 . S
H13 C12 0.961 . S
H14 C12 0.961 1_565 S
H15 C12 0.960 . S
C16 N17 1.342 . S
C16 C20 1.401 . S
C16 C21 1.499 . S
N17 Co0 1.989 . S
N17 C16 1.342 . S
N17 N18 1.388 . S
N18 Co1 1.993 1_554 S
N18 N17 1.388 . S
N18 C19 1.346 . S
C19 N18 1.346 . S
C19 C20 1.396 . S
C19 C29 1.510 . S
C20 C16 1.401 . S
C20 C19 1.396 . S
C21 C16 1.499 . S
C21 H22 0.959 . S
C21 H23 0.960 . S
C21 H24 0.961 . S
H22 C21 0.959 . S
H23 C21 0.960 . S
H24 C21 0.961 . S
O25 Co0 1.967 . S
O25 C33 1.258 . S
O26 Co1 1.941 1_554 S
O26 C33 1.266 . S
H27 C29 0.959 . S
H28 C29 0.961 . S
C29 C19 1.510 . S
C29 H27 0.959 . S
C29 H28 0.961 . S
C29 H30 0.960 . S
H30 C29 0.960 . S
H31 N11 0.862 . S
O32 Co0 1.920 1_655 S
O32 C5 1.289 . S
C33 O25 1.258 . S
C33 O26 1.266 . S
Co34 O37 1.970 . S
Co34 N51 1.989 . S
Co34 O59 1.967 . S
Co34 O66 1.920 1_655 S
Co35 O38 1.966 . S
Co35 N44 2.022 . S
Co35 N52 1.993 1_556 S
Co35 O60 1.941 1_556 S
C36 O37 1.258 1_556 S
C36 O38 1.263 . S
O37 Co34 1.970 . S
O37 C36 1.258 1_554 S
O38 Co35 1.966 . S
O38 C36 1.263 . S
C39 O40 1.235 1_465 S
C39 O66 1.289 . S
O40 C39 1.235 1_645 S
C41 C43 1.400 . S
C41 N44 1.351 . S
C41 C46 1.501 . S
C42 C43 1.387 . S
C42 N45 1.341 . S
C43 C41 1.400 . S
C43 C42 1.387 . S
N44 Co35 2.022 . S
N44 C41 1.351 . S
N44 N45 1.365 . S
N45 C42 1.341 . S
N45 N44 1.365 . S
N45 H65 0.862 . S
C46 C41 1.501 . S
C46 H47 0.961 . S
C46 H48 0.961 1_565 S
C46 H49 0.960 . S
H47 C46 0.961 . S
H48 C46 0.961 1_545 S
H49 C46 0.960 . S
C50 N51 1.342 . S
C50 C54 1.401 . S
C50 C55 1.499 . S
N51 Co34 1.989 . S
N51 C50 1.342 . S
N51 N52 1.388 . S
N52 Co35 1.993 1_554 S
N52 N51 1.388 . S
N52 C53 1.346 . S
C53 N52 1.346 . S
C53 C54 1.396 . S
C53 C63 1.510 . S
C54 C50 1.401 . S
C54 C53 1.396 . S
C55 C50 1.499 . S
C55 H56 0.959 . S
C55 H57 0.960 . S
C55 H58 0.961 . S
H56 C55 0.959 . S
H57 C55 0.960 . S
H58 C55 0.961 . S
O59 Co34 1.967 . S
O59 C67 1.258 . S
O60 Co35 1.941 1_554 S
O60 C67 1.266 . S
H61 C63 0.959 . S
H62 C63 0.961 . S
C63 C53 1.510 . S
C63 H61 0.959 . S
C63 H62 0.961 . S
C63 H64 0.960 . S
H64 C63 0.960 . S
H65 N45 0.862 . S
O66 Co34 1.920 1_455 S
O66 C39 1.289 . S
C67 O59 1.258 . S
C67 O60 1.266 . S
Co68 O71 1.970 . S
Co68 N85 1.989 . S
Co68 O93 1.967 . S
Co68 O100 1.920 1_455 S
Co69 O72 1.966 . S
Co69 N78 2.022 . S
Co69 N86 1.993 . S
Co69 O94 1.941 . S
C70 O71 1.258 . S
C70 O72 1.263 . S
O71 Co68 1.970 . S
O71 C70 1.258 . S
O72 Co69 1.966 . S
O72 C70 1.263 . S
C73 O74 1.235 1_665 S
C73 O100 1.289 . S
O74 C73 1.235 1_445 S
C75 C77 1.400 . S
C75 N78 1.351 1_554 S
C75 C80 1.501 . S
C76 C77 1.387 . S
C76 N79 1.341 1_554 S
C77 C75 1.400 . S
C77 C76 1.387 . S
N78 Co69 2.022 . S
N78 C75 1.351 1_556 S
N78 N79 1.365 . S
N79 C76 1.341 1_556 S
N79 N78 1.365 . S
N79 H99 0.862 . S
C80 C75 1.501 . S
C80 H81 0.961 . S
C80 H82 0.961 1_565 S
C80 H83 0.960 . S
H81 C80 0.961 . S
H82 C80 0.961 1_545 S
H83 C80 0.960 . S
C84 N85 1.342 . S
C84 C88 1.401 . S
C84 C89 1.499 . S
N85 Co68 1.989 . S
N85 C84 1.342 . S
N85 N86 1.388 . S
N86 Co69 1.993 . S
N86 N85 1.388 . S
N86 C87 1.346 . S
C87 N86 1.346 . S
C87 C88 1.396 . S
C87 C97 1.510 . S
C88 C84 1.401 . S
C88 C87 1.396 . S
C89 C84 1.499 . S
C89 H90 0.959 . S
C89 H91 0.960 . S
C89 H92 0.961 . S
H90 C89 0.959 . S
H91 C89 0.960 . S
H92 C89 0.961 . S
O93 Co68 1.967 . S
O93 C101 1.258 . S
O94 Co69 1.941 . S
O94 C101 1.266 . S
H95 C97 0.959 . S
H96 C97 0.961 . S
C97 C87 1.510 . S
C97 H95 0.959 . S
C97 H96 0.961 . S
C97 H98 0.960 . S
H98 C97 0.960 . S
H99 N79 0.862 . S
O100 Co68 1.920 1_655 S
O100 C73 1.289 . S
C101 O93 1.258 . S
C101 O94 1.266 . S
Co102 O105 1.970 . S
Co102 N119 1.989 . S
Co102 O127 1.967 . S
Co102 O134 1.920 1_655 S
Co103 O106 1.966 . S
Co103 N112 2.022 . S
Co103 N120 1.993 . S
Co103 O128 1.941 . S
C104 O105 1.258 . S
C104 O106 1.263 . S
O105 Co102 1.970 . S
O105 C104 1.258 . S
O106 Co103 1.966 . S
O106 C104 1.263 . S
C107 O108 1.235 1_445 S
C107 O134 1.289 . S
O108 C107 1.235 1_665 S
C109 C111 1.400 . S
C109 N112 1.351 1_554 S
C109 C114 1.501 . S
C110 C111 1.387 . S
C110 N113 1.341 1_554 S
C111 C109 1.400 . S
C111 C110 1.387 . S
N112 Co103 2.022 . S
N112 C109 1.351 1_556 S
N112 N113 1.365 . S
N113 C110 1.341 1_556 S
N113 N112 1.365 . S
N113 H133 0.862 . S
C114 C109 1.501 . S
C114 H115 0.961 . S
C114 H116 0.961 1_545 S
C114 H117 0.960 . S
H115 C114 0.961 . S
H116 C114 0.961 1_565 S
H117 C114 0.960 . S
C118 N119 1.342 . S
C118 C122 1.401 . S
C118 C123 1.499 . S
N119 Co102 1.989 . S
N119 C118 1.342 . S
N119 N120 1.388 . S
N120 Co103 1.993 . S
N120 N119 1.388 . S
N120 C121 1.346 . S
C121 N120 1.346 . S
C121 C122 1.396 . S
C121 C131 1.510 . S
C122 C118 1.401 . S
C122 C121 1.396 . S
C123 C118 1.499 . S
C123 H124 0.959 . S
C123 H125 0.960 . S
C123 H126 0.961 . S
H124 C123 0.959 . S
H125 C123 0.960 . S
H126 C123 0.961 . S
O127 Co102 1.967 . S
O127 C135 1.258 . S
O128 Co103 1.941 . S
O128 C135 1.266 . S
H129 C131 0.959 . S
H130 C131 0.961 . S
C131 C121 1.510 . S
C131 H129 0.959 . S
C131 H130 0.961 . S
C131 H132 0.960 . S
H132 C131 0.960 . S
H133 N113 0.862 . S
O134 Co102 1.920 1_455 S
O134 C107 1.289 . S
C135 O127 1.258 . S
C135 O128 1.266 . S
Co136 O139 1.970 . S
Co136 N153 1.989 . S
Co136 O161 1.967 . S
Co136 O168 1.920 . S
Co137 O140 1.966 . S
Co137 N146 2.022 . S
Co137 N154 1.993 . S
Co137 O162 1.941 . S
C138 O139 1.258 . S
C138 O140 1.263 . S
O139 Co136 1.970 . S
O139 C138 1.258 . S
O140 Co137 1.966 . S
O140 C138 1.263 . S
C141 O142 1.235 . S
C141 O168 1.289 . S
O142 C141 1.235 . S
C143 C145 1.400 . S
C143 N146 1.351 . S
C143 C148 1.501 . S
C144 C145 1.387 . S
C144 N147 1.341 . S
C145 C143 1.400 . S
C145 C144 1.387 . S
N146 Co137 2.022 . S
N146 C143 1.351 . S
N146 N147 1.365 . S
N147 C144 1.341 . S
N147 N146 1.365 . S
N147 H167 0.862 . S
C148 C143 1.501 . S
C148 H149 0.961 . S
C148 H150 0.961 . S
C148 H151 0.960 . S
H149 C148 0.961 . S
H150 C148 0.961 . S
H151 C148 0.960 . S
C152 N153 1.342 . S
C152 C156 1.401 . S
C152 C157 1.499 . S
N153 Co136 1.989 . S
N153 C152 1.342 . S
N153 N154 1.388 . S
N154 Co137 1.993 . S
N154 N153 1.388 . S
N154 C155 1.346 . S
C155 N154 1.346 . S
C155 C156 1.396 . S
C155 C165 1.510 . S
C156 C152 1.401 . S
C156 C155 1.396 . S
C157 C152 1.499 . S
C157 H158 0.959 . S
C157 H159 0.960 . S
C157 H160 0.961 . S
H158 C157 0.959 . S
H159 C157 0.960 . S
H160 C157 0.961 . S
O161 Co136 1.967 . S
O161 C169 1.258 . S
O162 Co137 1.941 . S
O162 C169 1.266 . S
H163 C165 0.959 . S
H164 C165 0.961 . S
C165 C155 1.510 . S
C165 H163 0.959 . S
C165 H164 0.961 . S
C165 H166 0.960 . S
H166 C165 0.960 . S
H167 N147 0.862 . S
O168 Co136 1.920 . S
O168 C141 1.289 . S
C169 O161 1.258 . S
C169 O162 1.266 . S
Co170 O173 1.970 . S
Co170 N187 1.989 . S
Co170 O195 1.967 . S
Co170 O202 1.920 . S
Co171 O174 1.966 . S
Co171 N180 2.022 . S
Co171 N188 1.993 . S
Co171 O196 1.941 . S
C172 O173 1.258 . S
C172 O174 1.263 . S
O173 Co170 1.970 . S
O173 C172 1.258 . S
O174 Co171 1.966 . S
O174 C172 1.263 . S
C175 O176 1.235 . S
C175 O202 1.289 . S
O176 C175 1.235 . S
C177 C179 1.400 . S
C177 N180 1.351 . S
C177 C182 1.501 . S
C178 C179 1.387 . S
C178 N181 1.341 . S
C179 C177 1.400 . S
C179 C178 1.387 . S
N180 Co171 2.022 . S
N180 C177 1.351 . S
N180 N181 1.365 . S
N181 C178 1.341 . S
N181 N180 1.365 . S
N181 H201 0.862 . S
C182 C177 1.501 . S
C182 H183 0.961 . S
C182 H184 0.961 . S
C182 H185 0.960 . S
H183 C182 0.961 . S
H184 C182 0.961 . S
H185 C182 0.960 . S
C186 N187 1.342 . S
C186 C190 1.401 . S
C186 C191 1.499 . S
N187 Co170 1.989 . S
N187 C186 1.342 . S
N187 N188 1.388 . S
N188 Co171 1.993 . S
N188 N187 1.388 . S
N188 C189 1.346 . S
C189 N188 1.346 . S
C189 C190 1.396 . S
C189 C199 1.510 . S
C190 C186 1.401 . S
C190 C189 1.396 . S
C191 C186 1.499 . S
C191 H192 0.959 . S
C191 H193 0.960 . S
C191 H194 0.961 . S
H192 C191 0.959 . S
H193 C191 0.960 . S
H194 C191 0.961 . S
O195 Co170 1.967 . S
O195 C203 1.258 . S
O196 Co171 1.941 . S
O196 C203 1.266 . S
H197 C199 0.959 . S
H198 C199 0.961 . S
C199 C189 1.510 . S
C199 H197 0.959 . S
C199 H198 0.961 . S
C199 H200 0.960 . S
H200 C199 0.960 . S
H201 N181 0.862 . S
O202 Co170 1.920 . S
O202 C175 1.289 . S
C203 O195 1.258 . S
C203 O196 1.266 . S
Co204 O207 1.970 . S
Co204 N221 1.989 . S
Co204 O229 1.967 . S
Co204 O236 1.920 . S
Co205 O208 1.966 . S
Co205 N214 2.022 . S
Co205 N222 1.993 . S
Co205 O230 1.941 . S
C206 O207 1.258 . S
C206 O208 1.263 . S
O207 Co204 1.970 . S
O207 C206 1.258 . S
O208 Co205 1.966 . S
O208 C206 1.263 . S
C209 O210 1.235 . S
C209 O236 1.289 . S
O210 C209 1.235 . S
C211 C213 1.400 . S
C211 N214 1.351 . S
C211 C216 1.501 . S
C212 C213 1.387 . S
C212 N215 1.341 . S
C213 C211 1.400 . S
C213 C212 1.387 . S
N214 Co205 2.022 . S
N214 C211 1.351 . S
N214 N215 1.365 . S
N215 C212 1.341 . S
N215 N214 1.365 . S
N215 H235 0.862 . S
C216 C211 1.501 . S
C216 H217 0.961 . S
C216 H218 0.961 . S
C216 H219 0.960 . S
H217 C216 0.961 . S
H218 C216 0.961 . S
H219 C216 0.960 . S
C220 N221 1.342 . S
C220 C224 1.401 . S
C220 C225 1.499 1_554 S
N221 Co204 1.989 . S
N221 C220 1.342 . S
N221 N222 1.388 . S
N222 Co205 1.993 . S
N222 N221 1.388 . S
N222 C223 1.346 . S
C223 N222 1.346 . S
C223 C224 1.396 . S
C223 C233 1.510 . S
C224 C220 1.401 . S
C224 C223 1.396 . S
C225 C220 1.499 1_556 S
C225 H226 0.959 . S
C225 H227 0.960 . S
C225 H228 0.961 . S
H226 C225 0.959 . S
H227 C225 0.960 . S
H228 C225 0.961 . S
O229 Co204 1.967 . S
O229 C237 1.258 . S
O230 Co205 1.941 . S
O230 C237 1.266 . S
H231 C233 0.959 . S
H232 C233 0.961 . S
C233 C223 1.510 . S
C233 H231 0.959 . S
C233 H232 0.961 . S
C233 H234 0.960 . S
H234 C233 0.960 . S
H235 N215 0.862 . S
O236 Co204 1.920 . S
O236 C209 1.289 . S
C237 O229 1.258 . S
C237 O230 1.266 . S
Co238 O241 1.970 . S
Co238 N255 1.989 . S
Co238 O263 1.967 . S
Co238 O270 1.920 . S
Co239 O242 1.966 . S
Co239 N248 2.022 . S
Co239 N256 1.993 . S
Co239 O264 1.941 . S
C240 O241 1.258 . S
C240 O242 1.263 . S
O241 Co238 1.970 . S
O241 C240 1.258 . S
O242 Co239 1.966 . S
O242 C240 1.263 . S
C243 O244 1.235 . S
C243 O270 1.289 . S
O244 C243 1.235 . S
C245 C247 1.400 . S
C245 N248 1.351 . S
C245 C250 1.501 . S
C246 C247 1.387 . S
C246 N249 1.341 . S
C247 C245 1.400 . S
C247 C246 1.387 . S
N248 Co239 2.022 . S
N248 C245 1.351 . S
N248 N249 1.365 . S
N249 C246 1.341 . S
N249 N248 1.365 . S
N249 H269 0.862 . S
C250 C245 1.501 . S
C250 H251 0.961 . S
C250 H252 0.961 . S
C250 H253 0.960 . S
H251 C250 0.961 . S
H252 C250 0.961 . S
H253 C250 0.960 . S
C254 N255 1.342 . S
C254 C258 1.401 . S
C254 C259 1.499 1_554 S
N255 Co238 1.989 . S
N255 C254 1.342 . S
N255 N256 1.388 . S
N256 Co239 1.993 . S
N256 N255 1.388 . S
N256 C257 1.346 . S
C257 N256 1.346 . S
C257 C258 1.396 . S
C257 C267 1.510 . S
C258 C254 1.401 . S
C258 C257 1.396 . S
C259 C254 1.499 1_556 S
C259 H260 0.959 . S
C259 H261 0.960 . S
C259 H262 0.961 . S
H260 C259 0.959 . S
H261 C259 0.960 . S
H262 C259 0.961 . S
O263 Co238 1.967 . S
O263 C271 1.258 . S
O264 Co239 1.941 . S
O264 C271 1.266 . S
H265 C267 0.959 . S
H266 C267 0.961 . S
C267 C257 1.510 . S
C267 H265 0.959 . S
C267 H266 0.961 . S
C267 H268 0.960 . S
H268 C267 0.960 . S
H269 N249 0.862 . S
O270 Co238 1.920 . S
O270 C243 1.289 . S
C271 O263 1.258 . S
C271 O264 1.266 . S
C33 C67 1.733 1_455 S
C135 C101 1.732 1_655 S
C169 C203 1.733 1_565 S
C271 C237 1.732 1_565 S
C179 C20 1.578 . S
C145 C54 1.578 . S
C247 C88 1.578 . S
C122 C213 1.578 . S
C43 C156 1.578 . S
C9 C190 1.578 . S
C224 C111 1.578 . S
C77 C258 1.578 . S
C5 C107 2.440 1_655 S
C73 C39 2.440 1_655 S
C70 C36 1.582 1_455 S
C2 C104 1.582 1_455 S
C243 C141 2.440 1_554 S
C175 C209 2.440 1_556 S
C206 C172 1.582 . S
C138 C240 1.582 . S
