# Generated by pormake.
# Topology wiv, (6)-cn, num edge types: 1
# Building blocks:
#     Node 0, Type 0, BuildingBlock: BETGAK_clean_sbu_0, # of connection points: 6
#     Node 1, Type 0, BuildingBlock: BETGAK_clean_sbu_0, # of connection points: 6
#     Node 2, Type 0, BuildingBlock: BETGAK_clean_sbu_0, # of connection points: 6
#     Node 3, Type 0, BuildingBlock: BETGAK_clean_sbu_0, # of connection points: 6
#     Node 4, Type 0, BuildingBlock: BETGAK_clean_sbu_0, # of connection points: 6
#     Node 5, Type 0, BuildingBlock: BETGAK_clean_sbu_0, # of connection points: 6
#     Node 6, Type 0, BuildingBlock: BETGAK_clean_sbu_0, # of connection points: 6
#     Node 7, Type 0, BuildingBlock: BETGAK_clean_sbu_0, # of connection points: 6
#     Node 8, Type 0, BuildingBlock: BETGAK_clean_sbu_0, # of connection points: 6
#     Node 9, Type 0, BuildingBlock: BETGAK_clean_sbu_0, # of connection points: 6
#     Node 10, Type 0, BuildingBlock: BETGAK_clean_sbu_0, # of connection points: 6
#     Node 11, Type 0, BuildingBlock: BETGAK_clean_sbu_0, # of connection points: 6
#     Node 12, Type 0, BuildingBlock: BETGAK_clean_sbu_0, # of connection points: 6
#     Node 13, Type 0, BuildingBlock: BETGAK_clean_sbu_0, # of connection points: 6
#     Node 14, Type 0, BuildingBlock: BETGAK_clean_sbu_0, # of connection points: 6
#     Node 15, Type 0, BuildingBlock: BETGAK_clean_sbu_0, # of connection points: 6
#     Edge 16, Type (0, 0), BuildingBlock: KIFKEQ_clean_linker_1, # of connection points: 2
#     Edge 17, Type (0, 0), BuildingBlock: KIFKEQ_clean_linker_1, # of connection points: 2
#     Edge 18, Type (0, 0), BuildingBlock: KIFKEQ_clean_linker_1, # of connection points: 2
#     Edge 19, Type (0, 0), BuildingBlock: KIFKEQ_clean_linker_1, # of connection points: 2
#     Edge 20, Type (0, 0), BuildingBlock: KIFKEQ_clean_linker_1, # of connection points: 2
#     Edge 21, Type (0, 0), BuildingBlock: KIFKEQ_clean_linker_1, # of connection points: 2
#     Edge 22, Type (0, 0), BuildingBlock: KIFKEQ_clean_linker_1, # of connection points: 2
#     Edge 23, Type (0, 0), BuildingBlock: KIFKEQ_clean_linker_1, # of connection points: 2
#     Edge 24, Type (0, 0), BuildingBlock: KIFKEQ_clean_linker_1, # of connection points: 2
#     Edge 25, Type (0, 0), BuildingBlock: KIFKEQ_clean_linker_1, # of connection points: 2
#     Edge 26, Type (0, 0), BuildingBlock: KIFKEQ_clean_linker_1, # of connection points: 2
#     Edge 27, Type (0, 0), BuildingBlock: KIFKEQ_clean_linker_1, # of connection points: 2
#     Edge 28, Type (0, 0), BuildingBlock: KIFKEQ_clean_linker_1, # of connection points: 2
#     Edge 29, Type (0, 0), BuildingBlock: KIFKEQ_clean_linker_1, # of connection points: 2
#     Edge 30, Type (0, 0), BuildingBlock: KIFKEQ_clean_linker_1, # of connection points: 2
#     Edge 31, Type (0, 0), BuildingBlock: KIFKEQ_clean_linker_1, # of connection points: 2
#     Edge 32, Type (0, 0), BuildingBlock: KIFKEQ_clean_linker_1, # of connection points: 2
#     Edge 33, Type (0, 0), BuildingBlock: KIFKEQ_clean_linker_1, # of connection points: 2
#     Edge 34, Type (0, 0), BuildingBlock: KIFKEQ_clean_linker_1, # of connection points: 2
#     Edge 35, Type (0, 0), BuildingBlock: KIFKEQ_clean_linker_1, # of connection points: 2
#     Edge 36, Type (0, 0), BuildingBlock: KIFKEQ_clean_linker_1, # of connection points: 2
#     Edge 37, Type (0, 0), BuildingBlock: KIFKEQ_clean_linker_1, # of connection points: 2
#     Edge 38, Type (0, 0), BuildingBlock: KIFKEQ_clean_linker_1, # of connection points: 2
#     Edge 39, Type (0, 0), BuildingBlock: KIFKEQ_clean_linker_1, # of connection points: 2
#     Edge 40, Type (0, 0), BuildingBlock: KIFKEQ_clean_linker_1, # of connection points: 2
#     Edge 41, Type (0, 0), BuildingBlock: KIFKEQ_clean_linker_1, # of connection points: 2
#     Edge 42, Type (0, 0), BuildingBlock: KIFKEQ_clean_linker_1, # of connection points: 2
#     Edge 43, Type (0, 0), BuildingBlock: KIFKEQ_clean_linker_1, # of connection points: 2
#     Edge 44, Type (0, 0), BuildingBlock: KIFKEQ_clean_linker_1, # of connection points: 2
#     Edge 45, Type (0, 0), BuildingBlock: KIFKEQ_clean_linker_1, # of connection points: 2
#     Edge 46, Type (0, 0), BuildingBlock: KIFKEQ_clean_linker_1, # of connection points: 2
#     Edge 47, Type (0, 0), BuildingBlock: KIFKEQ_clean_linker_1, # of connection points: 2
#     Edge 48, Type (0, 0), BuildingBlock: KIFKEQ_clean_linker_1, # of connection points: 2
#     Edge 49, Type (0, 0), BuildingBlock: KIFKEQ_clean_linker_1, # of connection points: 2
#     Edge 50, Type (0, 0), BuildingBlock: KIFKEQ_clean_linker_1, # of connection points: 2
#     Edge 51, Type (0, 0), BuildingBlock: KIFKEQ_clean_linker_1, # of connection points: 2
#     Edge 52, Type (0, 0), BuildingBlock: KIFKEQ_clean_linker_1, # of connection points: 2
#     Edge 53, Type (0, 0), BuildingBlock: KIFKEQ_clean_linker_1, # of connection points: 2
#     Edge 54, Type (0, 0), BuildingBlock: KIFKEQ_clean_linker_1, # of connection points: 2
#     Edge 55, Type (0, 0), BuildingBlock: KIFKEQ_clean_linker_1, # of connection points: 2
#     Edge 56, Type (0, 0), BuildingBlock: KIFKEQ_clean_linker_1, # of connection points: 2
#     Edge 57, Type (0, 0), BuildingBlock: KIFKEQ_clean_linker_1, # of connection points: 2
#     Edge 58, Type (0, 0), BuildingBlock: KIFKEQ_clean_linker_1, # of connection points: 2
#     Edge 59, Type (0, 0), BuildingBlock: KIFKEQ_clean_linker_1, # of connection points: 2
#     Edge 60, Type (0, 0), BuildingBlock: KIFKEQ_clean_linker_1, # of connection points: 2
#     Edge 61, Type (0, 0), BuildingBlock: KIFKEQ_clean_linker_1, # of connection points: 2
#     Edge 62, Type (0, 0), BuildingBlock: KIFKEQ_clean_linker_1, # of connection points: 2
#     Edge 63, Type (0, 0), BuildingBlock: KIFKEQ_clean_linker_1, # of connection points: 2
# Relax obj value: 0.127
# Max RMSD: 0.181
# Mean RMSD: 0.181
data_MOF--net-wiv--node1-BETGAK_clean_sbu_0--edge1-KIFKEQ_clean_linker_1
_symmetry_space_group_name_H-M    P1
_symmetry_Int_Tables_number       1
_symmetry_cell_setting            triclinic
loop_
_symmetry_equiv_pos_as_xyz
'x, y, z'
_cell_length_a     52.197158
_cell_length_b     52.207224
_cell_length_c     24.964309
_cell_angle_alpha  90.010043
_cell_angle_beta   90.084842
_cell_angle_gamma 90.021062
loop_
_atom_site_label
_atom_site_type_symbol
_atom_site_fract_x
_atom_site_fract_y
_atom_site_fract_z
_atom_type_partial_charge
La0 La 0.35382 0.11708 0.1688 0.0
La1 La 0.39021 0.11655 0.08107 0.0
C2 C 0.33166 0.10841 0.25735 0.0
C3 C 0.33842 0.10937 0.31498 0.0
C4 C 0.31929 0.11469 0.35277 0.0
C5 C 0.32514 0.11585 0.40752 0.0
C6 C 0.35037 0.11185 0.42578 0.0
C7 C 0.36955 0.10656 0.38768 0.0
C8 C 0.36362 0.10524 0.33291 0.0
C9 C 0.35964 0.16291 0.12458 0.0
C10 C 0.41497 0.12538 0.19172 0.0
C11 C 0.41285 0.12225 0.99232 0.0
C12 C 0.40565 0.12185 0.93473 0.0
C13 C 0.41876 0.10544 0.89968 0.0
C14 C 0.41245 0.10454 0.84517 0.0
C15 C 0.39289 0.12016 0.82405 0.0
C16 C 0.37968 0.13656 0.85938 0.0
C17 C 0.38598 0.1374 0.91404 0.0
C18 C 0.38628 0.07246 0.13371 0.0
C19 C 0.33023 0.11118 0.05324 0.0
O20 O 0.3308 0.13033 0.2323 0.0
O21 O 0.34283 0.0908 0.2284 0.0
O22 O 0.33805 0.15303 0.13974 0.0
O23 O 0.37729 0.14678 0.13375 0.0
O24 O 0.39177 0.11982 0.21078 0.0
O25 O 0.41859 0.12819 0.13972 0.0
O26 O 0.41123 0.10041 1.01763 0.0
O27 O 0.40447 0.1413 1.02162 0.0
O28 O 0.40743 0.08203 0.11564 0.0
O29 O 0.36798 0.08701 0.12002 0.0
O30 O 0.35358 0.11722 0.03732 0.0
O31 O 0.32567 0.1073 0.10506 0.0
H32 H 0.29973 0.11801 0.33989 0.0
H33 H 0.30994 0.12027 0.43551 0.0
H34 H 0.38911 0.10308 0.40023 0.0
H35 H 0.37873 0.10087 0.30473 0.0
H36 H 0.43392 0.09318 0.91457 0.0
H37 H 0.42276 0.09131 0.81971 0.0
H38 H 0.3647 0.14908 0.84474 0.0
H39 H 0.37543 0.15024 0.94 0.0
La40 La 0.11795 0.62844 0.98658 0.0
La41 La 0.1168 0.66499 0.89908 0.0
C42 C 0.12621 0.60603 0.07483 0.0
C43 C 0.12494 0.61298 0.1325 0.0
C44 C 0.11047 0.59779 0.16764 0.0
C45 C 0.10887 0.60391 0.2222 0.0
C46 C 0.12176 0.62542 0.24312 0.0
C47 C 0.13624 0.64066 0.20774 0.0
C48 C 0.13787 0.63448 0.15316 0.0
C49 C 0.07268 0.63204 0.9381 0.0
C50 C 0.11134 0.68835 1.01483 0.0
C51 C 0.10835 0.68675 0.80992 0.0
C52 C 0.10977 0.67953 0.7522 0.0
C53 C 0.13274 0.68233 0.72332 0.0
C54 C 0.13386 0.67633 0.66866 0.0
C55 C 0.11201 0.66748 0.64115 0.0
C56 C 0.08904 0.66465 0.67009 0.0
C57 C 0.08792 0.67067 0.7248 0.0
C58 C 0.16343 0.65885 0.94025 0.0
C59 C 0.12509 0.60424 0.875 0.0
O60 O 0.10438 0.60506 0.0492 0.0
O61 O 0.14412 0.61685 0.04593 0.0
O62 O 0.08252 0.6111 0.95678 0.0
O63 O 0.08752 0.65052 0.94961 0.0
O64 O 0.11782 0.66505 1.0305 0.0
O65 O 0.10706 0.69294 0.96312 0.0
O66 O 0.12992 0.68842 0.83622 0.0
O67 O 0.09065 0.67574 0.8388 0.0
O68 O 0.1533 0.68051 0.92645 0.0
O69 O 0.14705 0.64141 0.93158 0.0
O70 O 0.11746 0.62705 0.85717 0.0
O71 O 0.13019 0.60092 0.92638 0.0
H72 H 0.10028 0.58115 0.15281 0.0
H73 H 0.09724 0.59192 0.24786 0.0
H74 H 0.14666 0.65719 0.22232 0.0
H75 H 0.14924 0.64659 0.12721 0.0
H76 H 0.14993 0.68927 0.74288 0.0
H77 H 0.15197 0.67845 0.64803 0.0
H78 H 0.07172 0.65826 0.65024 0.0
H79 H 0.06981 0.66859 0.74553 0.0
La80 La 0.66545 0.90195 0.17613 0.0
La81 La 0.62939 0.89838 0.08849 0.0
C82 C 0.68644 0.91256 0.26516 0.0
C83 C 0.67948 0.91035 0.32287 0.0
C84 C 0.68144 0.88686 0.35025 0.0
C85 C 0.67558 0.88518 0.40493 0.0
C86 C 0.66764 0.90693 0.43383 0.0
C87 C 0.66561 0.9304 0.40634 0.0
C88 C 0.67154 0.9321 0.35168 0.0
C89 C 0.66153 0.85443 0.1389 0.0
C90 C 0.60492 0.89149 0.19967 0.0
C91 C 0.60744 0.88894 1.00017 0.0
C92 C 0.61432 0.89054 0.94248 0.0
C93 C 0.5991 0.90522 0.9077 0.0
C94 C 0.60511 0.9071 0.85315 0.0
C95 C 0.62653 0.89427 0.8318 0.0
C96 C 0.6418 0.87958 0.86681 0.0
C97 C 0.63574 0.87768 0.9214 0.0
C98 C 0.63188 0.94444 0.1344 0.0
C99 C 0.68895 0.9068 0.06031 0.0
O100 O 0.69038 0.89136 0.23869 0.0
O101 O 0.67349 0.92899 0.23651 0.0
O102 O 0.68256 0.86592 0.15237 0.0
O103 O 0.64319 0.87013 0.14507 0.0
O104 O 0.62743 0.90002 0.21752 0.0
O105 O 0.60199 0.88577 0.1485 0.0
O106 O 0.60536 0.91068 1.0257 0.0
O107 O 0.61911 0.87162 1.02924 0.0
O108 O 0.61111 0.93371 0.11696 0.0
O109 O 0.65058 0.92994 0.12332 0.0
O110 O 0.66602 0.89898 0.04493 0.0
O111 O 0.69315 0.91217 0.11176 0.0
H112 H 0.68759 0.8697 0.32956 0.0
H113 H 0.67707 0.86672 0.42447 0.0
H114 H 0.65991 0.94764 0.4273 0.0
H115 H 0.6701 0.95054 0.33202 0.0
H116 H 0.5825 0.91535 0.92281 0.0
H117 H 0.59309 0.91891 0.82782 0.0
H118 H 0.65827 0.86918 0.85192 0.0
H119 H 0.64789 0.86616 0.94703 0.0
La120 La 0.90008 0.38679 0.98235 0.0
La121 La 0.9039 0.35057 0.89511 0.0
C122 C 0.8919 0.40866 0.07128 0.0
C123 C 0.89358 0.40136 0.12894 0.0
C124 C 0.91268 0.41225 0.16156 0.0
C125 C 0.91454 0.40588 0.21598 0.0
C126 C 0.89721 0.38857 0.23952 0.0
C127 C 0.87802 0.37772 0.20689 0.0
C128 C 0.87623 0.384 0.15233 0.0
C129 C 0.94591 0.38462 0.93566 0.0
C130 C 0.90779 0.32727 1.01103 0.0
C131 C 0.915 0.329 0.80701 0.0
C132 C 0.91383 0.33569 0.74924 0.0
C133 C 0.9053 0.31731 0.71226 0.0
C134 C 0.90359 0.32316 0.65757 0.0
C135 C 0.9103 0.34763 0.63833 0.0
C136 C 0.91899 0.36601 0.67561 0.0
C137 C 0.92077 0.36008 0.73036 0.0
C138 C 0.85652 0.35383 0.93337 0.0
C139 C 0.89272 0.41101 0.87124 0.0
O140 O 0.91354 0.41008 0.04522 0.0
O141 O 0.87395 0.39798 0.04217 0.0
O142 O 0.93475 0.40541 0.95144 0.0
O143 O 0.93175 0.36581 0.94774 0.0
O144 O 0.89962 0.35013 1.02574 0.0
O145 O 0.91398 0.32311 0.96003 0.0
O146 O 0.89306 0.32641 0.83133 0.0
O147 O 0.93152 0.34135 0.83678 0.0
O148 O 0.86816 0.33296 0.91956 0.0
O149 O 0.87185 0.37241 0.92632 0.0
O150 O 0.90179 0.38865 0.8537 0.0
O151 O 0.88672 0.41386 0.92229 0.0
H152 H 0.92619 0.42585 0.14495 0.0
H153 H 0.92934 0.41491 0.23986 0.0
H154 H 0.8645 0.36411 0.22341 0.0
H155 H 0.86126 0.3752 0.12855 0.0
H156 H 0.89993 0.29833 0.72574 0.0
H157 H 0.89725 0.30832 0.63028 0.0
H158 H 0.92407 0.38514 0.66269 0.0
H159 H 0.92751 0.37461 0.75791 0.0
La160 La 0.34927 0.40529 0.1372 0.0
La161 La 0.38698 0.40059 0.23252 0.0
C162 C 0.32972 0.42456 0.05399 0.0
C163 C 0.33302 0.42056 0.9956 0.0
C164 C 0.3357 0.39595 0.97339 0.0
C165 C 0.34054 0.39288 0.91845 0.0
C166 C 0.34311 0.41434 0.88465 0.0
C167 C 0.34021 0.43891 0.90712 0.0
C168 C 0.3352 0.44195 0.96186 0.0
C169 C 0.35754 0.35592 0.15777 0.0
C170 C 0.40961 0.39173 0.11885 0.0
C171 C 0.40765 0.39012 0.32147 0.0
C172 C 0.39987 0.39216 0.37844 0.0
C173 C 0.38429 0.41234 0.39633 0.0
C174 C 0.37729 0.41422 0.45038 0.0
C175 C 0.38591 0.39607 0.48812 0.0
C176 C 0.40147 0.3758 0.46985 0.0
C177 C 0.40831 0.37387 0.41566 0.0
C178 C 0.38459 0.44567 0.18334 0.0
C179 C 0.32633 0.4086 0.25621 0.0
O180 O 0.3188 0.40622 0.08181 0.0
O181 O 0.3497 0.43411 0.07865 0.0
O182 O 0.34194 0.36443 0.12155 0.0
O183 O 0.36695 0.37523 0.18118 0.0
O184 O 0.38791 0.40176 0.09968 0.0
O185 O 0.41224 0.38588 0.17029 0.0
O186 O 0.41101 0.41173 0.2958 0.0
O187 O 0.39537 0.37325 0.29222 0.0
O188 O 0.40537 0.43564 0.20281 0.0
O189 O 0.36601 0.43087 0.19381 0.0
O190 O 0.35005 0.40514 0.27404 0.0
O191 O 0.32122 0.41029 0.20377 0.0
H192 H 0.3345 0.37911 0.99859 0.0
H193 H 0.34294 0.3737 0.9027 0.0
H194 H 0.34178 0.45585 0.88232 0.0
H195 H 0.3334 0.46112 0.97809 0.0
H196 H 0.37755 0.42676 0.36849 0.0
H197 H 0.36496 0.42985 0.46246 0.0
H198 H 0.40882 0.36165 0.49757 0.0
H199 H 0.42043 0.35818 0.40288 0.0
La200 La 0.40236 0.62825 0.83203 0.0
La201 La 0.40438 0.66571 0.92778 0.0
C202 C 0.39522 0.6065 0.74293 0.0
C203 C 0.39373 0.61415 0.68588 0.0
C204 C 0.40696 0.5996 0.64765 0.0
C205 C 0.40699 0.60682 0.59369 0.0
C206 C 0.39375 0.62883 0.57649 0.0
C207 C 0.38039 0.64338 0.61494 0.0
C208 C 0.3803 0.63606 0.66906 0.0
C209 C 0.44633 0.63118 0.88527 0.0
C210 C 0.40714 0.68923 0.80939 0.0
C211 C 0.42143 0.68573 1.01261 0.0
C212 C 0.41625 0.68153 0.07036 0.0
C213 C 0.41638 0.70221 0.1063 0.0
C214 C 0.41223 0.69817 0.16124 0.0
C215 C 0.40781 0.67333 0.18135 0.0
C216 C 0.40756 0.65272 0.145 0.0
C217 C 0.41171 0.65677 0.09032 0.0
C218 C 0.35566 0.65672 0.90288 0.0
C219 C 0.39253 0.6047 0.94468 0.0
O220 O 0.41771 0.60921 0.76539 0.0
O221 O 0.37655 0.6136 0.77484 0.0
O222 O 0.43688 0.61033 0.86512 0.0
O223 O 0.43156 0.64966 0.87367 0.0
O224 O 0.40322 0.66562 0.79145 0.0
O225 O 0.40994 0.69398 0.86176 0.0
O226 O 0.40294 0.69591 0.98402 0.0
O227 O 0.43254 0.6667 0.98754 0.0
O228 O 0.36321 0.67225 0.94007 0.0
O229 O 0.37549 0.64771 0.88078 0.0
O230 O 0.40014 0.62706 0.96537 0.0
O231 O 0.38889 0.60161 0.89253 0.0
H232 H 0.41759 0.58273 0.65969 0.0
H233 H 0.41783 0.59536 0.56556 0.0
H234 H 0.36981 0.66031 0.60317 0.0
H235 H 0.36995 0.64767 0.69774 0.0
H236 H 0.41981 0.72148 0.09193 0.0
H237 H 0.41231 0.71454 0.18788 0.0
H238 H 0.40468 0.63328 0.15889 0.0
H239 H 0.4117 0.64038 0.06382 0.0
La240 La 0.6651 0.61359 0.14997 0.0
La241 La 0.62934 0.61504 0.23786 0.0
C242 C 0.68635 0.60392 0.06098 0.0
C243 C 0.6795 0.60615 1.0033 0.0
C244 C 0.67834 0.6301 0.97749 0.0
C245 C 0.67256 0.63174 0.92274 0.0
C246 C 0.66776 0.60952 0.89241 0.0
C247 C 0.66881 0.58561 0.91836 0.0
C248 C 0.67471 0.58395 0.97302 0.0
C249 C 0.66092 0.66021 0.19092 0.0
C250 C 0.60421 0.62304 0.12728 0.0
C251 C 0.60706 0.62276 0.32635 0.0
C252 C 0.61412 0.62211 0.38395 0.0
C253 C 0.59986 0.60675 0.41911 0.0
C254 C 0.60603 0.60561 0.47364 0.0
C255 C 0.62661 0.61993 0.4946 0.0
C256 C 0.64095 0.63528 0.45918 0.0
C257 C 0.63478 0.63638 0.40451 0.0
C258 C 0.63234 0.56977 0.18898 0.0
C259 C 0.68905 0.6082 0.26543 0.0
O260 O 0.6898 0.62509 0.08791 0.0
O261 O 0.6736 0.58708 0.08897 0.0
O262 O 0.68204 0.64924 0.17634 0.0
O263 O 0.64259 0.64456 0.18349 0.0
O264 O 0.62721 0.61692 0.10804 0.0
O265 O 0.60089 0.6264 0.17918 0.0
O266 O 0.60715 0.60075 0.30148 0.0
O267 O 0.61687 0.641 0.29679 0.0
O268 O 0.61151 0.57992 0.20728 0.0
O269 O 0.65092 0.58437 0.20078 0.0
O270 O 0.66598 0.61517 0.28135 0.0
O271 O 0.69321 0.60347 0.21375 0.0
H272 H 0.68194 0.64763 0.99944 0.0
H273 H 0.67163 0.65048 0.90426 0.0
H274 H 0.66555 0.56807 0.89618 0.0
H275 H 0.6757 0.56522 0.99159 0.0
H276 H 0.58391 0.59549 0.40429 0.0
H277 H 0.59481 0.5932 0.49924 0.0
H278 H 0.65675 0.64679 0.47376 0.0
H279 H 0.6462 0.64838 0.37845 0.0
La280 La 0.61747 0.38506 0.84201 0.0
La281 La 0.61441 0.34905 0.92956 0.0
C282 C 0.62635 0.40717 0.7537 0.0
C283 C 0.62492 0.40028 0.69599 0.0
C284 C 0.60972 0.41504 0.66131 0.0
C285 C 0.60789 0.40894 0.60678 0.0
C286 C 0.62131 0.3879 0.5854 0.0
C287 C 0.63663 0.37317 0.62021 0.0
C288 C 0.63844 0.37929 0.6748 0.0
C289 C 0.57159 0.3826 0.88847 0.0
C290 C 0.60968 0.32537 0.81401 0.0
C291 C 0.60432 0.32794 1.01859 0.0
C292 C 0.60625 0.33513 0.07623 0.0
C293 C 0.62975 0.33383 0.10381 0.0
C294 C 0.63124 0.33993 0.15841 0.0
C295 C 0.60927 0.34741 0.18708 0.0
C296 C 0.58577 0.34873 0.15939 0.0
C297 C 0.58428 0.34262 0.10477 0.0
C298 C 0.66157 0.35289 0.8905 0.0
C299 C 0.6248 0.40955 0.95316 0.0
O300 O 0.60455 0.40866 0.77913 0.0
O301 O 0.64396 0.39596 0.78281 0.0
O302 O 0.5823 0.40333 0.87097 0.0
O303 O 0.58604 0.36383 0.8774 0.0
O304 O 0.61726 0.34836 0.79857 0.0
O305 O 0.60428 0.32121 0.8654 0.0
O306 O 0.62569 0.32464 0.99239 0.0
O307 O 0.5875 0.34026 0.98965 0.0
O308 O 0.65026 0.33187 0.90451 0.0
O309 O 0.64604 0.37126 0.89782 0.0
O310 O 0.61634 0.38705 0.97106 0.0
O311 O 0.63031 0.41247 0.90192 0.0
H312 H 0.59922 0.43141 0.67645 0.0
H313 H 0.59622 0.42097 0.5812 0.0
H314 H 0.64698 0.35664 0.60544 0.0
H315 H 0.65031 0.36746 0.7004 0.0
H316 H 0.64705 0.32789 0.08341 0.0
H317 H 0.64959 0.33828 0.17838 0.0
H318 H 0.56848 0.35468 0.17982 0.0
H319 H 0.56585 0.34368 0.08488 0.0
La320 La 0.85171 0.6136 0.67941 0.0
La321 La 0.88743 0.61784 0.5913 0.0
C322 C 0.83107 0.60199 0.76807 0.0
C323 C 0.8379 0.60439 0.82559 0.0
C324 C 0.8476 0.62734 0.84705 0.0
C325 C 0.85341 0.62925 0.90179 0.0
C326 C 0.84985 0.60821 0.93642 0.0
C327 C 0.84049 0.58516 0.91442 0.0
C328 C 0.83455 0.58333 0.85977 0.0
C329 C 0.85489 0.66114 0.64236 0.0
C330 C 0.91217 0.62482 0.70245 0.0
C331 C 0.90937 0.62748 0.50305 0.0
C332 C 0.90249 0.62561 0.44563 0.0
C333 C 0.88278 0.60932 0.42794 0.0
C334 C 0.87663 0.6077 0.37332 0.0
C335 C 0.89027 0.62212 0.3351 0.0
C336 C 0.90999 0.63841 0.35316 0.0
C337 C 0.91596 0.64018 0.40781 0.0
C338 C 0.88509 0.57148 0.63605 0.0
C339 C 0.82777 0.60964 0.56389 0.0
O340 O 0.82637 0.6231 0.7418 0.0
O341 O 0.84492 0.58621 0.73978 0.0
O342 O 0.8341 0.6496 0.65701 0.0
O343 O 0.8735 0.64573 0.64832 0.0
O344 O 0.88984 0.61596 0.72043 0.0
O345 O 0.91483 0.63072 0.65131 0.0
O346 O 0.91163 0.60586 0.52895 0.0
O347 O 0.89697 0.64456 0.53122 0.0
O348 O 0.9058 0.58237 0.61897 0.0
O349 O 0.86637 0.58605 0.62545 0.0
O350 O 0.85051 0.61799 0.54863 0.0
O351 O 0.824 0.6033 0.61497 0.0
H352 H 0.85054 0.6439 0.82166 0.0
H353 H 0.86028 0.64741 0.91706 0.0
H354 H 0.83795 0.56837 0.9393 0.0
H355 H 0.8273 0.56536 0.84415 0.0
H356 H 0.87223 0.59773 0.45633 0.0
H357 H 0.86151 0.59477 0.36094 0.0
H358 H 0.92068 0.65004 0.32507 0.0
H359 H 0.9312 0.6529 0.42053 0.0
La360 La 0.61714 0.12748 0.48546 0.0
La361 La 0.61563 0.16428 0.39806 0.0
C362 C 0.6244 0.10525 0.57431 0.0
C363 C 0.62281 0.11253 0.63195 0.0
C364 C 0.60412 0.10121 0.66477 0.0
C365 C 0.60237 0.1075 0.71924 0.0
C366 C 0.61941 0.1252 0.7427 0.0
C367 C 0.63811 0.13659 0.70967 0.0
C368 C 0.6398 0.13034 0.65508 0.0
C369 C 0.5721 0.13109 0.43615 0.0
C370 C 0.61076 0.18736 0.51409 0.0
C371 C 0.60626 0.18656 0.30981 0.0
C372 C 0.60667 0.17978 0.25208 0.0
C373 C 0.61495 0.198 0.21457 0.0
C374 C 0.61588 0.19204 0.15985 0.0
C375 C 0.60866 0.16761 0.14123 0.0
C376 C 0.60035 0.14935 0.17901 0.0
C377 C 0.59926 0.15541 0.23377 0.0
C378 C 0.66224 0.15863 0.4396 0.0
C379 C 0.62464 0.1035 0.37394 0.0
O380 O 0.60278 0.10449 0.54788 0.0
O381 O 0.64275 0.11546 0.54562 0.0
O382 O 0.58221 0.10997 0.45324 0.0
O383 O 0.58672 0.1495 0.44884 0.0
O384 O 0.61756 0.16409 0.52935 0.0
O385 O 0.60598 0.19199 0.46259 0.0
O386 O 0.62842 0.18724 0.33401 0.0
O387 O 0.58881 0.17566 0.33964 0.0
O388 O 0.65199 0.18019 0.42538 0.0
O389 O 0.6461 0.141 0.43074 0.0
O390 O 0.61657 0.12622 0.3563 0.0
O391 O 0.63001 0.10023 0.42526 0.0
H392 H 0.59077 0.08742 0.64822 0.0
H393 H 0.58742 0.09861 0.74282 0.0
H394 H 0.65181 0.15004 0.72611 0.0
H395 H 0.6545 0.13944 0.63114 0.0
H396 H 0.62083 0.2169 0.22768 0.0
H397 H 0.62267 0.20649 0.13218 0.0
H398 H 0.59435 0.13045 0.16621 0.0
H399 H 0.59258 0.14107 0.26174 0.0
La400 La 0.16476 0.40116 0.67141 0.0
La401 La 0.12868 0.40113 0.58323 0.0
C402 C 0.18676 0.40876 0.76062 0.0
C403 C 0.17963 0.40797 0.81825 0.0
C404 C 0.1897 0.38864 0.85127 0.0
C405 C 0.18374 0.38772 0.90589 0.0
C406 C 0.16768 0.40628 0.92924 0.0
C407 C 0.15757 0.42566 0.89607 0.0
C408 C 0.16346 0.4265 0.84129 0.0
C409 C 0.16031 0.35543 0.6266 0.0
C410 C 0.10382 0.39263 0.69391 0.0
C411 C 0.10618 0.39347 0.49477 0.0
C412 C 0.11312 0.39427 0.43729 0.0
C413 C 0.09523 0.40344 0.39997 0.0
C414 C 0.10135 0.40473 0.34543 0.0
C415 C 0.1256 0.39696 0.32691 0.0
C416 C 0.14356 0.38784 0.36452 0.0
C417 C 0.13734 0.3864 0.41908 0.0
C418 C 0.13177 0.44561 0.63486 0.0
C419 C 0.18859 0.40813 0.55619 0.0
O420 O 0.18694 0.3869 0.73528 0.0
O421 O 0.17692 0.42694 0.73109 0.0
O422 O 0.18156 0.36614 0.64137 0.0
O423 O 0.14205 0.37093 0.63572 0.0
O424 O 0.12687 0.3986 0.71321 0.0
O425 O 0.10038 0.3895 0.64194 0.0
O426 O 0.1062 0.41543 0.51985 0.0
O427 O 0.11646 0.37529 0.52383 0.0
O428 O 0.11094 0.43596 0.61508 0.0
O429 O 0.15034 0.43111 0.62256 0.0
O430 O 0.16517 0.40286 0.53943 0.0
O431 O 0.19323 0.41083 0.60836 0.0
H432 H 0.20228 0.37415 0.83478 0.0
H433 H 0.19158 0.37226 0.92971 0.0
H434 H 0.14543 0.4405 0.91257 0.0
H435 H 0.15547 0.4418 0.81718 0.0
H436 H 0.07647 0.40971 0.41308 0.0
H437 H 0.08716 0.41218 0.31784 0.0
H438 H 0.16232 0.38146 0.35173 0.0
H439 H 0.15149 0.37912 0.44692 0.0
La440 La 0.40061 0.88988 0.48741 0.0
La441 La 0.39977 0.85383 0.39942 0.0
C442 C 0.39444 0.91261 0.57598 0.0
C443 C 0.39441 0.90555 0.63354 0.0
C444 C 0.41015 0.91916 0.66919 0.0
C445 C 0.41076 0.91291 0.7237 0.0
C446 C 0.39554 0.89289 0.74409 0.0
C447 C 0.37979 0.87921 0.70819 0.0
C448 C 0.3792 0.8855 0.65356 0.0
C449 C 0.44507 0.88573 0.43626 0.0
C450 C 0.40544 0.82986 0.51451 0.0
C451 C 0.40744 0.83192 0.31024 0.0
C452 C 0.4057 0.83894 0.25256 0.0
C453 C 0.38196 0.84009 0.22587 0.0
C454 C 0.38071 0.84597 0.17115 0.0
C455 C 0.40315 0.85083 0.14164 0.0
C456 C 0.42687 0.84973 0.16843 0.0
C457 C 0.42813 0.84377 0.22309 0.0
C458 C 0.35401 0.86014 0.44368 0.0
C459 C 0.39236 0.91498 0.37674 0.0
O460 O 0.41644 0.91079 0.55144 0.0
O461 O 0.37555 0.90421 0.54616 0.0
O462 O 0.43579 0.90675 0.45561 0.0
O463 O 0.43013 0.86744 0.44837 0.0
O464 O 0.39925 0.85315 0.53067 0.0
O465 O 0.40976 0.82557 0.46274 0.0
O466 O 0.38608 0.83028 0.33719 0.0
O467 O 0.42535 0.84314 0.3383 0.0
O468 O 0.36369 0.83844 0.42877 0.0
O469 O 0.3703 0.87759 0.43421 0.0
O470 O 0.39753 0.89175 0.3574 0.0
O471 O 0.38968 0.91853 0.42878 0.0
H472 H 0.42213 0.93464 0.65477 0.0
H473 H 0.42346 0.92361 0.74974 0.0
H474 H 0.3676 0.86386 0.72236 0.0
H475 H 0.36684 0.87463 0.62708 0.0
H476 H 0.36427 0.83639 0.24714 0.0
H477 H 0.36209 0.84692 0.15204 0.0
H478 H 0.44457 0.85301 0.14691 0.0
H479 H 0.44674 0.84274 0.24225 0.0
La480 La 0.84986 0.90353 0.64352 0.0
La481 La 0.88581 0.8999 0.73153 0.0
C482 C 0.829 0.91457 0.55462 0.0
C483 C 0.83588 0.91227 0.49707 0.0
C484 C 0.84362 0.88882 0.47454 0.0
C485 C 0.84944 0.88705 0.41982 0.0
C486 C 0.84783 0.90869 0.38622 0.0
C487 C 0.84038 0.93219 0.40921 0.0
C488 C 0.83444 0.93392 0.46385 0.0
C489 C 0.85362 0.85609 0.68099 0.0
C490 C 0.9104 0.89281 0.62051 0.0
C491 C 0.90787 0.89064 0.81993 0.0
C492 C 0.90087 0.89237 0.87729 0.0
C493 C 0.88174 0.90927 0.89511 0.0
C494 C 0.87551 0.91078 0.94968 0.0
C495 C 0.88844 0.89558 0.98773 0.0
C496 C 0.90753 0.87862 0.96949 0.0
C497 C 0.91361 0.87702 0.91492 0.0
C498 C 0.88316 0.94605 0.68591 0.0
C499 C 0.82616 0.90748 0.75922 0.0
O500 O 0.8247 0.89342 0.58104 0.0
O501 O 0.84247 0.9307 0.58297 0.0
O502 O 0.83267 0.8674 0.66645 0.0
O503 O 0.87203 0.87171 0.67486 0.0
O504 O 0.88797 0.90145 0.60247 0.0
O505 O 0.91319 0.88704 0.6717 0.0
O506 O 0.90982 0.91229 0.79401 0.0
O507 O 0.89583 0.87332 0.79162 0.0
O508 O 0.90394 0.93536 0.70328 0.0
O509 O 0.86451 0.93143 0.69682 0.0
O510 O 0.84904 0.8995 0.77441 0.0
O511 O 0.82214 0.91358 0.70805 0.0
H512 H 0.84501 0.87176 0.49905 0.0
H513 H 0.85479 0.86855 0.40374 0.0
H514 H 0.83934 0.9494 0.38511 0.0
H515 H 0.82869 0.95225 0.48022 0.0
H516 H 0.87167 0.9214 0.86688 0.0
H517 H 0.86089 0.92422 0.96214 0.0
H518 H 0.91764 0.86636 0.99738 0.0
H519 H 0.92837 0.86379 0.90209 0.0
La520 La 0.90012 0.12873 0.33474 0.0
La521 La 0.90412 0.16652 0.4305 0.0
C522 C 0.89 0.10781 0.24588 0.0
C523 C 0.88943 0.11579 0.18884 0.0
C524 C 0.89967 0.09941 0.14979 0.0
C525 C 0.90033 0.10676 0.09584 0.0
C526 C 0.8909 0.1308 0.07959 0.0
C527 C 0.88055 0.14719 0.11883 0.0
C528 C 0.87967 0.13969 0.17281 0.0
C529 C 0.94512 0.13122 0.38445 0.0
C530 C 0.90781 0.18941 0.3114 0.0
C531 C 0.92117 0.18652 0.51551 0.0
C532 C 0.91484 0.18358 0.57306 0.0
C533 C 0.92246 0.20222 0.6103 0.0
C534 C 0.9182 0.19856 0.66532 0.0
C535 C 0.90636 0.17604 0.6844 0.0
C536 C 0.89839 0.15763 0.64656 0.0
C537 C 0.90244 0.16143 0.5917 0.0
C538 C 0.85496 0.15789 0.40753 0.0
C539 C 0.89173 0.10583 0.44842 0.0
O540 O 0.91265 0.10735 0.26839 0.0
O541 O 0.87255 0.1174 0.27788 0.0
O542 O 0.93542 0.11062 0.3635 0.0
O543 O 0.9302 0.14985 0.37472 0.0
O544 O 0.90305 0.16589 0.29381 0.0
O545 O 0.91061 0.1943 0.36377 0.0
O546 O 0.90394 0.19752 0.48489 0.0
O547 O 0.931 0.16619 0.49276 0.0
O548 O 0.86296 0.17351 0.44409 0.0
O549 O 0.87461 0.14874 0.38532 0.0
O550 O 0.90126 0.12775 0.46749 0.0
O551 O 0.88619 0.10292 0.39689 0.0
H552 H 0.90741 0.08093 0.16113 0.0
H553 H 0.90872 0.09376 0.06696 0.0
H554 H 0.87291 0.16573 0.10775 0.0
H555 H 0.87157 0.1527 0.20203 0.0
H556 H 0.93202 0.21949 0.5969 0.0
H557 H 0.92423 0.21341 0.69285 0.0
H558 H 0.88961 0.13986 0.65926 0.0
H559 H 0.89634 0.14673 0.56393 0.0
La560 La 0.16705 0.11331 0.63972 0.0
La561 La 0.13162 0.11782 0.72818 0.0
C562 C 0.18757 0.10124 0.55121 0.0
C563 C 0.18107 0.104 0.49359 0.0
C564 C 0.1729 0.12748 0.47189 0.0
C565 C 0.16727 0.12963 0.41711 0.0
C566 C 0.16951 0.10833 0.38269 0.0
C567 C 0.17739 0.0848 0.4049 0.0
C568 C 0.18314 0.08271 0.45958 0.0
C569 C 0.16295 0.16133 0.67408 0.0
C570 C 0.10641 0.12368 0.61724 0.0
C571 C 0.10989 0.12802 0.81636 0.0
C572 C 0.11684 0.12619 0.87373 0.0
C573 C 0.13623 0.10954 0.89144 0.0
C574 C 0.14242 0.10793 0.94604 0.0
C575 C 0.12919 0.12276 0.98419 0.0
C576 C 0.10983 0.13947 0.96606 0.0
C577 C 0.10379 0.14118 0.91146 0.0
C578 C 0.13433 0.07112 0.68512 0.0
C579 C 0.19135 0.11041 0.75507 0.0
O580 O 0.19295 0.12209 0.57786 0.0
O581 O 0.17302 0.0859 0.57901 0.0
O582 O 0.1839 0.15003 0.6597 0.0
O583 O 0.14476 0.14534 0.66958 0.0
O584 O 0.12875 0.1149 0.59913 0.0
O585 O 0.10395 0.13003 0.66818 0.0
O586 O 0.10725 0.10638 0.79067 0.0
O587 O 0.12253 0.14485 0.78797 0.0
O588 O 0.11359 0.08188 0.70236 0.0
O589 O 0.15293 0.086 0.69483 0.0
O590 O 0.16862 0.11869 0.77035 0.0
O591 O 0.195 0.10369 0.70417 0.0
H592 H 0.17099 0.14425 0.49713 0.0
H593 H 0.16156 0.14814 0.40164 0.0
H594 H 0.17889 0.06783 0.38015 0.0
H595 H 0.1892 0.06435 0.47538 0.0
H596 H 0.1465 0.09768 0.8631 0.0
H597 H 0.15725 0.09469 0.95845 0.0
H598 H 0.09949 0.15145 0.99406 0.0
H599 H 0.08883 0.15421 0.89868 0.0
La600 La 0.11629 0.88736 0.33772 0.0
La601 La 0.11189 0.84974 0.43314 0.0
C602 C 0.12545 0.90818 0.24831 0.0
C603 C 0.12553 0.89963 0.19167 0.0
C604 C 0.10968 0.8795 0.17423 0.0
C605 C 0.10922 0.87222 0.12018 0.0
C606 C 0.12435 0.88512 0.0821 0.0
C607 C 0.14032 0.90518 0.09986 0.0
C608 C 0.14094 0.91228 0.15406 0.0
C609 C 0.07099 0.88466 0.38622 0.0
C610 C 0.11026 0.82653 0.31445 0.0
C611 C 0.09347 0.83001 0.51699 0.0
C612 C 0.09898 0.83211 0.57498 0.0
C613 C 0.12303 0.84022 0.59373 0.0
C614 C 0.12714 0.84436 0.64864 0.0
C615 C 0.10721 0.84073 0.68601 0.0
C616 C 0.08322 0.83235 0.66677 0.0
C617 C 0.07919 0.82811 0.61197 0.0
C618 C 0.16118 0.85817 0.41199 0.0
C619 C 0.12493 0.9103 0.45121 0.0
O620 O 0.10308 0.90852 0.27189 0.0
O621 O 0.14332 0.89886 0.27966 0.0
O622 O 0.08088 0.90533 0.36616 0.0
O623 O 0.08599 0.86611 0.37658 0.0
O624 O 0.11539 0.85 0.2972 0.0
O625 O 0.106 0.82184 0.36639 0.0
O626 O 0.11062 0.81861 0.48681 0.0
O627 O 0.08479 0.851 0.49489 0.0
O628 O 0.15285 0.84246 0.44807 0.0
O629 O 0.14175 0.86747 0.38895 0.0
O630 O 0.11524 0.88846 0.47037 0.0
O631 O 0.13048 0.91311 0.39969 0.0
H632 H 0.09739 0.86957 0.20229 0.0
H633 H 0.09649 0.85689 0.10801 0.0
H634 H 0.15244 0.91536 0.07186 0.0
H635 H 0.15329 0.92788 0.1665 0.0
H636 H 0.13851 0.84376 0.56586 0.0
H637 H 0.14595 0.85048 0.66171 0.0
H638 H 0.06724 0.82978 0.69382 0.0
H639 H 0.06036 0.82228 0.59829 0.0
H640 H 0.39902 0.96551 0.4018 0.0
H641 H 0.38018 0.91633 0.26851 0.0
H642 H 0.39614 1.00296 0.34339 0.0
H643 H 0.37648 0.95425 0.21017 0.0
H644 H 0.34632 0.03827 0.15048 0.0
H645 H 0.34667 0.99951 0.20725 0.0
H646 H 0.42395 0.0168 0.25646 0.0
H647 H 0.42395 0.05464 0.19877 0.0
C648 C 0.394 0.96264 0.36011 0.0
C649 C 0.38986 0.93772 0.34011 0.0
C650 C 0.39239 0.9842 0.32656 0.0
C651 C 0.38595 0.98172 0.27207 0.0
C652 C 0.38128 0.95689 0.25203 0.0
C653 C 0.38355 0.93514 0.28542 0.0
C654 C 0.36334 0.03374 0.17346 0.0
C655 C 0.38512 0.04957 0.1699 0.0
C656 C 0.3636 0.01147 0.20571 0.0
C657 C 0.38539 1.00495 0.23637 0.0
C658 C 0.40687 0.02117 0.23351 0.0
C659 C 0.40685 0.04289 0.20032 0.0
H660 H 0.95652 0.65238 0.68668 0.0
H661 H 0.91903 0.60428 0.80322 0.0
H662 H 0.99398 0.6558 0.74541 0.0
H663 H 0.95669 0.60742 0.86158 0.0
H664 H 0.04148 0.59208 0.91275 0.0
H665 H 1.00238 0.59181 0.85916 0.0
H666 H 0.00894 0.67342 0.83626 0.0
H667 H 0.04785 0.67382 0.89203 0.0
C668 C 0.95616 0.64259 0.72492 0.0
C669 C 0.93459 0.62798 0.73987 0.0
C670 C 0.97768 0.64469 0.75882 0.0
C671 C 0.97857 0.63185 0.80841 0.0
C672 C 0.95689 0.61743 0.8236 0.0
C673 C 0.93517 0.61572 0.79014 0.0
C674 C 0.03457 0.61008 0.89673 0.0
C675 C 0.04819 0.63294 0.90639 0.0
C676 C 0.01199 0.60991 0.86598 0.0
C677 C 1.00233 0.63256 0.843 0.0
C678 C 0.01586 0.65553 0.85277 0.0
C679 C 0.03828 0.65578 0.88464 0.0
H680 H 0.59122 0.974 0.16371 0.0
H681 H 0.6735 0.97059 0.17734 0.0
H682 H 0.59064 0.01276 0.21841 0.0
H683 H 0.67286 0.00912 0.23404 0.0
H684 H 0.65383 0.06 0.38612 0.0
H685 H 0.65694 0.02288 0.32645 0.0
H686 H 0.60436 0.05893 0.21644 0.0
H687 H 0.60143 0.09612 0.27588 0.0
C688 C 0.60927 0.98151 0.17836 0.0
C689 C 0.63239 0.96882 0.16646 0.0
C690 C 0.60892 1.00387 0.20976 0.0
C691 C 0.63167 0.01422 0.23108 0.0
C692 C 0.6549 1.00164 0.21892 0.0
C693 C 0.65528 0.97946 0.18647 0.0
C694 C 0.64304 0.06014 0.34904 0.0
C695 C 0.62742 0.08128 0.33599 0.0
C696 C 0.64495 0.03883 0.31458 0.0
C697 C 0.6309 0.03771 0.26638 0.0
C698 C 0.61537 0.05892 0.25324 0.0
C699 C 0.61383 0.08043 0.28724 0.0
H700 H 0.98193 0.3462 0.92215 0.0
H701 H 0.96245 0.42228 0.86878 0.0
H702 H 0.02077 0.3473 0.86585 0.0
H703 H 1.00044 0.42297 0.81145 0.0
H704 H 0.05312 0.39771 0.66818 0.0
H705 H 0.01568 0.39478 0.72656 0.0
H706 H 0.06474 0.37818 0.8611 0.0
H707 H 0.10261 0.38196 0.80278 0.0
C708 C 0.98584 0.36306 0.89824 0.0
C709 C 0.9691 0.38419 0.90025 0.0
C710 C 1.00814 0.36375 0.8662 0.0
C711 C 0.01383 0.38528 0.83416 0.0
C712 C 0.99674 0.40611 0.8355 0.0
C713 C 0.97495 0.40571 0.86853 0.0
C714 C 0.05607 0.39336 0.71016 0.0
C715 C 0.08107 0.39006 0.7305 0.0
C716 C 0.03452 0.39174 0.7437 0.0
C717 C 0.03709 0.38613 0.79856 0.0
C718 C 0.06202 0.38234 0.81898 0.0
C719 C 0.08374 0.38463 0.78556 0.0
H720 H 0.42285 0.46343 0.11926 0.0
H721 H 0.34549 0.48065 0.16751 0.0
H722 H 0.42332 0.50161 0.06224 0.0
H723 H 0.34633 0.51965 0.11166 0.0
H724 H 0.38055 0.60268 0.05282 0.0
H725 H 0.37686 0.56446 0.11016 0.0
H726 H 0.39507 0.51638 0.97519 0.0
H727 H 0.39799 0.55421 0.91773 0.0
C728 C 0.40595 0.47546 0.11792 0.0
C729 C 0.38412 0.46891 0.14804 0.0
C730 C 0.40622 0.49735 0.0851 0.0
C731 C 0.38494 0.51385 0.08248 0.0
C732 C 0.36312 0.50748 0.11299 0.0
C733 C 0.36258 0.48508 0.14478 0.0
C734 C 0.38361 0.58396 1.03529 0.0
C735 C 0.38953 0.58168 0.9804 0.0
C736 C 0.38136 0.56203 0.06814 0.0
C737 C 0.38566 0.53728 0.04734 0.0
C738 C 0.39166 0.53508 0.9926 0.0
C739 C 0.39324 0.55685 0.95958 0.0
H740 H 0.55363 0.61761 0.15296 0.0
H741 H 0.60285 0.63432 1.0187 0.0
H742 H 0.51608 0.62072 0.09469 0.0
H743 H 0.56484 0.6383 0.96052 0.0
H744 H 0.48101 0.67051 0.9026 0.0
H745 H 0.5199 0.6695 0.95902 0.0
H746 H 0.50182 0.59229 1.00696 0.0
H747 H 0.46379 0.59292 0.94944 0.0
C748 C 0.55649 0.62222 0.11109 0.0
C749 C 0.58143 0.62571 0.09076 0.0
C750 C 0.53487 0.62394 0.07764 0.0
C751 C 0.53736 0.62988 1.02295 0.0
C752 C 0.56222 0.63389 1.00255 0.0
C753 C 0.58401 0.63148 0.03585 0.0
C754 C 0.48539 0.65336 0.92522 0.0
C755 C 0.46927 0.63179 0.92141 0.0
C756 C 0.50773 0.65272 0.95727 0.0
C757 C 0.51406 0.63076 0.98744 0.0
C758 C 0.49758 0.60948 0.98433 0.0
C759 C 0.47577 0.60986 0.95128 0.0
H760 H 0.67404 0.54448 0.14406 0.0
H761 H 0.59213 0.53895 0.16299 0.0
H762 H 0.67349 0.50559 0.08838 0.0
H763 H 0.59171 0.49984 0.10948 0.0
H764 H 0.60396 0.41632 0.05363 0.0
H765 H 0.60706 0.45389 0.1122 0.0
H766 H 0.65595 0.49114 0.99692 0.0
H767 H 0.65253 0.4538 0.93797 0.0
C768 C 0.65592 0.53508 0.13633 0.0
C769 C 0.63309 0.54523 0.15749 0.0
C770 C 0.6556 0.51269 0.10449 0.0
C771 C 0.63252 0.49941 0.09421 0.0
C772 C 0.60987 0.50927 0.1167 0.0
C773 C 0.61013 0.53185 0.1474 0.0
C774 C 0.6155 0.43243 0.04081 0.0
C775 C 0.6279 0.43188 0.99073 0.0
C776 C 0.61719 0.45409 0.07437 0.0
C777 C 0.63176 0.47573 0.05949 0.0
C778 C 0.64473 0.47487 1.01008 0.0
C779 C 0.64263 0.45343 0.97606 0.0
H780 H 0.41828 0.4138 1.02027 0.0
H781 H 0.45261 0.36189 0.13406 0.0
H782 H 0.45628 0.41032 0.9634 0.0
H783 H 0.49052 0.35822 0.07681 0.0
H784 H 0.54534 0.34113 0.93185 0.0
H785 H 0.50609 0.34197 0.98628 0.0
H786 H 0.50213 0.42401 0.96771 0.0
H787 H 0.5415 0.42324 0.91519 0.0
C788 C 0.43378 0.40142 1.03302 0.0
C789 C 0.43219 0.38818 0.0821 0.0
C790 C 0.45573 0.39954 1.00044 0.0
C791 C 0.4767 0.38402 1.0153 0.0
C792 C 0.4748 0.37021 0.06365 0.0
C793 C 0.45303 0.37244 0.09672 0.0
C794 C 0.53623 0.35936 0.93984 0.0
C795 C 0.54693 0.38214 0.91954 0.0
C796 C 0.51364 0.35986 0.97101 0.0
C797 C 0.50073 0.38309 0.98162 0.0
C798 C 0.51122 0.40572 0.96019 0.0
C799 C 0.53396 0.40526 0.93005 0.0
H800 H 0.86302 0.45413 0.88373 0.0
H801 H 0.91612 0.41908 0.77374 0.0
H802 H 0.85983 0.49156 0.82499 0.0
H803 H 0.91309 0.45657 0.7152 0.0
H804 H 0.92579 0.54175 0.66455 0.0
H805 H 0.92643 0.50262 0.71805 0.0
H806 H 0.84421 0.50606 0.73336 0.0
H807 H 0.84352 0.54503 0.67804 0.0
C808 C 0.87393 0.45428 0.84687 0.0
C809 C 0.88979 0.43335 0.83366 0.0
C810 C 0.87198 0.47577 0.81294 0.0
C811 C 0.88621 0.4773 0.76511 0.0
C812 C 0.90195 0.45628 0.75175 0.0
C813 C 0.90355 0.4346 0.78523 0.0
C814 C 0.90776 0.53412 0.67889 0.0
C815 C 0.88462 0.54688 0.66731 0.0
C816 C 0.90814 0.51154 0.70958 0.0
C817 C 0.8854 0.50102 0.73047 0.0
C818 C 0.86216 0.51366 0.71858 0.0
C819 C 0.86175 0.53608 0.68688 0.0
H820 H 0.55487 0.09367 0.36961 0.0
H821 H 0.53734 0.17055 0.42083 0.0
H822 H 0.51706 0.09368 0.31161 0.0
H823 H 0.49864 0.17019 0.36378 0.0
H824 H 0.41607 0.13681 0.30026 0.0
H825 H 0.45385 0.14019 0.35915 0.0
H826 H 0.50291 0.12189 0.22584 0.0
H827 H 0.46557 0.11928 0.16694 0.0
C828 C 0.54285 0.11058 0.36869 0.0
C829 C 0.54918 0.1321 0.40002 0.0
C830 C 0.52116 0.11058 0.33531 0.0
C831 C 0.50465 0.13185 0.33318 0.0
C832 C 0.51083 0.15341 0.36476 0.0
C833 C 0.53306 0.15368 0.39719 0.0
C834 C 0.43492 0.13367 0.28345 0.0
C835 C 0.43763 0.12783 0.2286 0.0
C836 C 0.45659 0.13575 0.31717 0.0
C837 C 0.48148 0.13136 0.29724 0.0
C838 C 0.4841 0.12539 0.24258 0.0
C839 C 0.4626 0.12396 0.20874 0.0
H840 H 0.1045 0.59831 0.77398 0.0
H841 H 0.15204 0.55953 0.88991 0.0
H842 H 0.10736 0.56103 0.71454 0.0
H843 H 0.15523 0.5225 0.8301 0.0
H844 H 0.17352 0.47028 0.68124 0.0
H845 H 0.1731 0.50872 0.73824 0.0
H846 H 0.0914 0.51508 0.7162 0.0
H847 H 0.09167 0.47635 0.66146 0.0
C848 C 0.11576 0.58197 0.78669 0.0
C849 C 0.12794 0.58205 0.83707 0.0
C850 C 0.11731 0.56049 0.75262 0.0
C851 C 0.13153 0.5386 0.76733 0.0
C852 C 0.14427 0.53898 0.81709 0.0
C853 C 0.1423 0.56024 0.8516 0.0
C854 C 0.15544 0.47968 0.68915 0.0
C855 C 0.13258 0.46983 0.66732 0.0
C856 C 0.1552 0.50183 0.72167 0.0
C857 C 0.13219 0.51515 0.73201 0.0
C858 C 0.10951 0.50559 0.70894 0.0
C859 C 0.10968 0.48324 0.67754 0.0
H860 H 0.56025 0.86444 0.18397 0.0
H861 H 0.5986 0.9119 0.30069 0.0
H862 H 0.52294 0.86129 0.24291 0.0
H863 H 0.56111 0.90902 0.35932 0.0
H864 H 0.47682 0.92524 0.41141 0.0
H865 H 0.51576 0.92511 0.35764 0.0
H866 H 0.50785 0.84371 0.33328 0.0
H867 H 0.46905 0.8437 0.38917 0.0
C868 C 0.56083 0.87414 0.2223 0.0
C869 C 0.5826 0.8885 0.23724 0.0
C870 C 0.5394 0.87219 0.25633 0.0
C871 C 0.5388 0.88493 0.30605 0.0
C872 C 0.56069 0.89908 0.32124 0.0
C873 C 0.58231 0.90065 0.28763 0.0
C874 C 0.48339 0.9072 0.39503 0.0
C875 C 0.46943 0.88452 0.40434 0.0
C876 C 0.50589 0.90714 0.36419 0.0
C877 C 0.51513 0.88444 0.34076 0.0
C878 C 0.50125 0.86163 0.35015 0.0
C879 C 0.47891 0.86162 0.3821 0.0
H880 H 0.84155 0.97216 0.64254 0.0
H881 H 0.9238 0.9757 0.65697 0.0
H882 H 0.8423 0.01074 0.58592 0.0
H883 H 0.92446 0.01451 0.60249 0.0
H884 H 0.9136 0.09817 0.54757 0.0
H885 H 0.91026 0.0607 0.606 0.0
H886 H 0.85889 0.02487 0.49316 0.0
H887 H 0.8625 0.06225 0.43415 0.0
C888 C 0.85978 0.98107 0.63361 0.0
C889 C 0.88264 0.97044 0.65384 0.0
C890 C 0.86022 1.00327 0.60119 0.0
C891 C 0.88346 0.01591 0.58937 0.0
C892 C 0.90617 1.00557 0.61087 0.0
C893 C 0.90577 0.98318 0.64216 0.0
C894 C 0.90143 0.08242 0.53519 0.0
C895 C 0.8884 0.08341 0.48574 0.0
C896 C 0.89962 0.06079 0.56871 0.0
C897 C 0.88434 0.03955 0.55451 0.0
C898 C 0.87072 0.04083 0.50577 0.0
C899 C 0.87291 0.06228 0.47171 0.0
H900 H 0.09873 0.10178 0.51795 0.0
H901 H 0.06263 0.15202 0.63244 0.0
H902 H 0.06078 0.1047 0.46026 0.0
H903 H 0.02494 0.15524 0.57441 0.0
H904 H 0.97103 0.17275 0.42825 0.0
H905 H 0.01026 0.17208 0.48296 0.0
H906 H 0.0146 0.09006 0.46453 0.0
H907 H 0.97519 0.09064 0.41177 0.0
C908 C 0.08284 0.11364 0.53069 0.0
C909 C 0.08387 0.12657 0.58017 0.0
C910 C 0.06097 0.11523 0.49765 0.0
C911 C 0.03963 0.13021 0.5125 0.0
C912 C 0.04098 0.14368 0.5613 0.0
C913 C 0.06262 0.1417 0.59479 0.0
C914 C 0.98022 0.15456 0.43637 0.0
C915 C 0.96958 0.13171 0.41622 0.0
C916 C 1.00278 0.15417 0.46765 0.0
C917 C 0.01575 0.13099 0.47838 0.0
C918 C 1.0054 0.10829 0.45693 0.0
C919 C 0.98265 0.10864 0.42671 0.0
H920 H 0.10373 0.91811 0.55084 0.0
H921 H 0.15404 0.95382 0.43595 0.0
H922 H 0.10732 0.95578 0.60871 0.0
H923 H 0.15789 0.99138 0.49432 0.0
H924 H 0.1758 0.04511 0.6413 0.0
H925 H 0.17492 1.00613 0.58586 0.0
H926 H 0.09294 1.00174 0.60516 0.0
H927 H 0.09373 0.04088 0.65858 0.0
C928 C 0.11577 0.93386 0.53802 0.0
C929 C 0.1285 0.93276 0.48833 0.0
C930 C 0.11773 0.9556 0.57121 0.0
C931 C 0.13286 0.97683 0.55638 0.0
C932 C 0.1462 0.97544 0.50742 0.0
C933 C 0.14386 0.95387 0.47372 0.0
C934 C 0.15758 0.03595 0.63329 0.0
C935 C 0.1348 0.04649 0.65393 0.0
C936 C 0.15706 0.01354 0.60153 0.0
C937 C 0.13383 1.00063 0.59077 0.0
C938 C 0.11122 0.01089 0.61273 0.0
C939 C 0.11169 0.03347 0.6434 0.0
H940 H 0.045 0.84311 0.42988 0.0
H941 H 0.04097 0.92524 0.41371 0.0
H942 H 1.00596 0.84385 0.48501 0.0
H943 H 1.00172 0.92587 0.46674 0.0
H944 H 0.91769 0.91427 0.52073 0.0
H945 H 0.95541 0.91114 0.46264 0.0
H946 H 0.9917 0.86096 0.57704 0.0
H947 H 0.95425 0.86443 0.63553 0.0
C948 C 0.03587 0.86131 0.43809 0.0
C949 C 0.04653 0.88415 0.41797 0.0
C950 C 0.01342 0.86175 0.46964 0.0
C951 C 1.00053 0.88495 0.48056 0.0
C952 C 0.01086 0.90762 0.45904 0.0
C953 C 0.03352 0.90724 0.42864 0.0
C954 C 0.93362 0.90244 0.53345 0.0
C955 C 0.93278 0.88969 0.58315 0.0
C956 C 0.95537 0.90073 0.50017 0.0
C957 C 0.97677 0.8858 0.51496 0.0
C958 C 0.97561 0.87249 0.56397 0.0
C959 C 0.9541 0.87461 0.59773 0.0
H960 H 0.32468 0.19879 0.09659 0.0
H961 H 0.40177 0.19144 0.15668 0.0
H962 H 0.32656 0.24488 0.10945 0.0
H963 H 0.40351 0.23792 0.1718 0.0
H964 H 0.40193 0.32785 0.14702 0.0
H965 H 0.40474 0.28104 0.1374 0.0
H966 H 0.32453 0.27481 0.17804 0.0
H967 H 0.32179 0.32119 0.18492 0.0
C968 C 0.34217 0.20711 0.1123 0.0
C969 C 0.36303 0.19134 0.12553 0.0
C970 C 0.34317 0.23365 0.12053 0.0
C971 C 0.36496 0.24546 0.1432 0.0
C972 C 0.38635 0.22976 0.15437 0.0
C973 C 0.38541 0.20304 0.14555 0.0
C974 C 0.38519 0.31628 0.15554 0.0
C975 C 0.36172 0.32816 0.16764 0.0
C976 C 0.38669 0.2894 0.14957 0.0
C977 C 0.36471 0.27382 0.15556 0.0
C978 C 0.34175 0.2859 0.17122 0.0
C979 C 0.34022 0.31258 0.17635 0.0
H980 H 0.32164 0.68945 0.85911 0.0
H981 H 0.32744 0.61417 0.92827 0.0
H982 H 0.27511 0.68772 0.86654 0.0
H983 H 0.28061 0.6125 0.93768 0.0
H984 H 0.19103 0.61476 0.91794 0.0
H985 H 0.23727 0.61136 0.90083 0.0
H986 H 0.24599 0.69166 0.9383 0.0
H987 H 0.20017 0.69502 0.954 0.0
C988 C 0.31282 0.67212 0.87427 0.0
C989 C 0.32817 0.65169 0.8917 0.0
C990 C 0.28609 0.67129 0.87968 0.0
C991 C 0.27382 0.65021 0.90398 0.0
C992 C 0.28916 0.62905 0.91861 0.0
C993 C 0.31604 0.62984 0.91273 0.0
C994 C 0.20295 0.63157 0.92312 0.0
C995 C 0.19181 0.65521 0.93717 0.0
C996 C 0.22951 0.62966 0.91315 0.0
C997 C 0.24559 0.65135 0.9169 0.0
C998 C 0.23438 0.67465 0.93319 0.0
C999 C 0.20801 0.67654 0.94295 0.0
H1000 H 0.696 0.82312 0.18697 0.0
H1001 H 0.62173 0.82142 0.11112 0.0
H1002 H 0.69342 0.77789 0.20451 0.0
H1003 H 0.61976 0.77475 0.1254 0.0
H1004 H 0.61747 0.69132 0.19375 0.0
H1005 H 0.61572 0.73817 0.18232 0.0
H1006 H 0.69809 0.73953 0.16454 0.0
H1007 H 0.69975 0.69404 0.1793 0.0
C1008 C 0.67919 0.81295 0.17295 0.0
C1009 C 0.65924 0.82607 0.14681 0.0
C1010 C 0.67776 0.78664 0.18275 0.0
C1011 C 0.65665 0.77197 0.16536 0.0
C1012 C 0.63636 0.78513 0.13969 0.0
C1013 C 0.63755 0.8119 0.13095 0.0
C1014 C 0.63515 0.70186 0.18839 0.0
C1015 C 0.65877 0.6888 0.18805 0.0
C1016 C 0.63418 0.72875 0.18115 0.0
C1017 C 0.65678 0.74318 0.17295 0.0
C1018 C 0.6802 0.72975 0.17236 0.0
C1019 C 0.68118 0.70328 0.18044 0.0
H1020 H 0.82405 0.31648 0.90045 0.0
H1021 H 0.82413 0.39516 0.95317 0.0
H1022 H 0.7785 0.31825 0.88608 0.0
H1023 H 0.77724 0.39656 0.94234 0.0
H1024 H 0.69313 0.39546 0.87694 0.0
H1025 H 0.74004 0.39734 0.88709 0.0
H1026 H 0.74051 0.3169 0.92818 0.0
H1027 H 0.69493 0.31485 0.91451 0.0
C1028 C 0.81423 0.33416 0.91008 0.0
C1029 C 0.82795 0.3556 0.92856 0.0
C1030 C 0.78773 0.33514 0.9022 0.0
C1031 C 0.77351 0.35739 0.914 0.0
C1032 C 0.78725 0.37905 0.93242 0.0
C1033 C 0.81416 0.37821 0.93924 0.0
C1034 C 0.70348 0.37818 0.88731 0.0
C1035 C 0.69015 0.35495 0.89416 0.0
C1036 C 0.73041 0.37927 0.89376 0.0
C1037 C 0.74463 0.35719 0.90787 0.0
C1038 C 0.7309 0.33423 0.91553 0.0
C1039 C 0.70438 0.33307 0.90808 0.0
H1040 H 0.89699 0.69311 0.62649 0.0
H1041 H 0.81683 0.69408 0.6682 0.0
H1042 H 0.89841 0.74008 0.63577 0.0
H1043 H 0.81848 0.73973 0.68087 0.0
H1044 H 0.8166 0.82295 0.64959 0.0
H1045 H 0.81895 0.77735 0.63649 0.0
H1046 H 0.89758 0.77752 0.6911 0.0
H1047 H 0.89555 0.82445 0.7008 0.0
C1048 C 0.87972 0.70329 0.63761 0.0
C1049 C 0.85673 0.68972 0.64585 0.0
C1050 C 0.88055 0.73024 0.64354 0.0
C1051 C 0.85846 0.74423 0.65843 0.0
C1052 C 0.83577 0.73026 0.66758 0.0
C1053 C 0.83485 0.70371 0.6607 0.0
C1054 C 0.83448 0.81344 0.65911 0.0
C1055 C 0.85581 0.82756 0.67683 0.0
C1056 C 0.83579 0.78693 0.65196 0.0
C1057 C 0.8583 0.77311 0.66371 0.0
C1058 C 0.87987 0.78724 0.6813 0.0
C1059 C 0.87868 0.81417 0.68745 0.0
H1060 H 0.82096 0.192 0.3688 0.0
H1061 H 0.82656 0.11469 0.42753 0.0
H1062 H 0.77444 0.19001 0.37494 0.0
H1063 H 0.7797 0.11276 0.43607 0.0
H1064 H 0.69036 0.1152 0.41498 0.0
H1065 H 0.73675 0.11244 0.39948 0.0
H1066 H 0.74453 0.19198 0.44448 0.0
H1067 H 0.69852 0.19474 0.45814 0.0
C1068 C 0.8121 0.17425 0.38157 0.0
C1069 C 0.82739 0.15332 0.39639 0.0
C1070 C 0.78536 0.17323 0.38626 0.0
C1071 C 0.77299 0.15144 0.4074 0.0
C1072 C 0.7883 0.12988 0.41948 0.0
C1073 C 0.81521 0.13085 0.41414 0.0
C1074 C 0.70211 0.13197 0.42213 0.0
C1075 C 0.69066 0.15525 0.43761 0.0
C1076 C 0.72876 0.13043 0.41311 0.0
C1077 C 0.74465 0.15213 0.41943 0.0
C1078 C 0.73311 0.17501 0.4373 0.0
C1079 C 0.70662 0.17656 0.44592 0.0
H1080 H 0.19936 0.32151 0.6284 0.0
H1081 H 0.11679 0.32444 0.62899 0.0
H1082 H 0.19816 0.27583 0.6412 0.0
H1083 H 0.11536 0.27751 0.63863 0.0
H1084 H 0.12448 0.19424 0.70867 0.0
H1085 H 0.12187 0.24088 0.69463 0.0
H1086 H 0.1914 0.23766 0.601 0.0
H1087 H 0.19474 0.19238 0.61808 0.0
C1088 C 0.18079 0.31228 0.63013 0.0
C1089 C 0.15819 0.32684 0.62741 0.0
C1090 C 0.18006 0.28573 0.6371 0.0
C1091 C 0.15664 0.27237 0.64036 0.0
C1092 C 0.13383 0.28689 0.63677 0.0
C1093 C 0.13459 0.31382 0.63052 0.0
C1094 C 0.13925 0.20372 0.68557 0.0
C1095 C 0.16009 0.18956 0.66558 0.0
C1096 C 0.13768 0.23047 0.67701 0.0
C1097 C 0.1567 0.24359 0.64743 0.0
C1098 C 0.17683 0.2289 0.62577 0.0
C1099 C 0.17868 0.2026 0.63533 0.0
H1100 H 0.31805 0.82563 0.47303 0.0
H1101 H 0.32571 0.90223 0.41071 0.0
H1102 H 0.27194 0.82762 0.46027 0.0
H1103 H 0.27918 0.90407 0.3958 0.0
H1104 H 0.18917 0.90264 0.42202 0.0
H1105 H 0.23602 0.90554 0.43116 0.0
H1106 H 0.24221 0.82529 0.39081 0.0
H1107 H 0.1958 0.82246 0.38434 0.0
C1108 C 0.30978 0.84304 0.45687 0.0
C1109 C 0.32563 0.86372 0.44293 0.0
C1110 C 0.28325 0.84409 0.44873 0.0
C1111 C 0.27153 0.86576 0.42547 0.0
C1112 C 0.2873 0.88701 0.41366 0.0
C1113 C 0.31403 0.88602 0.42237 0.0
C1114 C 0.20074 0.88592 0.41342 0.0
C1115 C 0.18886 0.8624 0.40158 0.0
C1116 C 0.22763 0.88747 0.41912 0.0
C1117 C 0.24319 0.8655 0.41312 0.0
C1118 C 0.23111 0.84249 0.39761 0.0
C1119 C 0.20442 0.84092 0.39274 0.0
H1120 H 0.18846 0.12518 0.86048 0.0
H1121 H 0.24219 0.093 0.74808 0.0
H1122 H 0.22057 0.12395 0.93051 0.0
H1123 H 0.27475 0.09147 0.81916 0.0
H1124 H 0.33555 0.1155 0.94404 0.0
H1125 H 0.30336 0.11435 0.8739 0.0
H1126 H 0.24488 0.10074 0.99261 0.0
H1127 H 0.27743 0.10258 0.06352 0.0
C1128 C 0.20711 0.11753 0.85044 0.0
C1129 C 0.21228 0.10907 0.79767 0.0
C1130 C 0.22575 0.11671 0.89137 0.0
C1131 C 0.25073 0.1075 0.88182 0.0
C1132 C 0.25603 0.09902 0.82891 0.0
C1133 C 0.23719 0.09976 0.78772 0.0
C1134 C 0.31586 0.11225 0.9557 0.0
C1135 C 0.30946 0.10927 1.01044 0.0
C1136 C 0.29717 0.11135 0.91478 0.0
C1137 C 0.27101 0.10744 0.92634 0.0
C1138 C 0.26457 0.10418 0.98117 0.0
C1139 C 0.28339 0.10505 1.02232 0.0
H1140 H 0.11444 0.68255 0.12408 0.0
H1141 H 0.10362 0.74134 1.00508 0.0
H1142 H 0.11368 0.71444 0.19464 0.0
H1143 H 0.10196 0.77364 0.0764 0.0
H1144 H 0.12602 0.82936 0.20967 0.0
H1145 H 0.12478 0.7975 0.13931 0.0
H1146 H 0.09179 0.74314 0.24974 0.0
H1147 H 0.0933 0.77549 0.32109 0.0
C1148 C 0.11177 0.70234 0.11261 0.0
C1149 C 0.10933 0.70899 0.05788 0.0
C1150 C 0.11105 0.72087 0.15379 0.0
C1151 C 0.10778 0.74715 0.14254 0.0
C1152 C 0.10494 0.75385 0.08768 0.0
C1153 C 0.10568 0.73518 0.04627 0.0
C1154 C 0.11819 0.81075 0.21938 0.0
C1155 C 0.10951 0.80551 0.27196 0.0
C1156 C 0.11741 0.79222 0.17827 0.0
C1157 C 0.108 0.76727 0.1874 0.0
C1158 C 0.09947 0.76185 0.24022 0.0
C1159 C 0.10023 0.78056 0.28163 0.0
H1160 H 0.68313 0.90268 0.95127 0.0
H1161 H 0.74177 0.91623 0.06961 0.0
H1162 H 0.71488 0.90381 0.88056 0.0
H1163 H 0.77393 0.91815 0.99803 0.0
H1164 H 0.82978 0.89353 0.86505 0.0
H1165 H 0.79815 0.89505 0.93576 0.0
H1166 H 0.743 0.92632 0.82465 0.0
H1167 H 0.77511 0.92451 0.7529 0.0
C1168 C 0.70285 0.90604 0.96257 0.0
C1169 C 0.70951 0.90914 1.01718 0.0
C1170 C 0.72129 0.90697 0.92128 0.0
C1171 C 0.74749 0.91107 0.93227 0.0
C1172 C 0.7542 0.91455 0.98699 0.0
C1173 C 0.7356 0.91366 1.02853 0.0
C1174 C 0.81103 0.90099 0.85519 0.0
C1175 C 0.80547 0.90903 0.80226 0.0
C1176 C 0.79264 0.90197 0.89654 0.0
C1177 C 0.76753 0.91092 0.88731 0.0
C1178 C 0.76184 0.91899 0.83423 0.0
C1179 C 0.78042 0.91808 0.79262 0.0
H1180 H 0.89238 0.33056 0.11598 0.0
H1181 H 0.92651 0.2769 1.00598 0.0
H1182 H 0.89348 0.29882 0.18657 0.0
H1183 H 0.92856 0.24495 0.07777 0.0
H1184 H 0.90846 0.18374 0.20195 0.0
H1185 H 0.90875 0.21563 0.13184 0.0
H1186 H 0.9141 0.27526 0.25126 0.0
H1187 H 0.91232 0.24283 0.32218 0.0
C1188 C 0.90038 0.31198 0.10659 0.0
C1189 C 0.9093 0.30667 0.05423 0.0
C1190 C 0.90123 0.29355 0.14794 0.0
C1191 C 0.91119 0.26875 0.13941 0.0
C1192 C 0.9203 0.26344 0.08693 0.0
C1193 C 0.9193 0.28196 0.04523 0.0
C1194 C 0.90943 0.20362 0.21384 0.0
C1195 C 0.90994 0.21028 0.2688 0.0
C1196 C 0.91 0.22222 0.17285 0.0
C1197 C 0.91142 0.24864 0.18439 0.0
C1198 C 0.9125 0.25538 0.23954 0.0
C1199 C 0.91172 0.23662 0.28082 0.0
H1200 H 0.2734 0.40072 0.24732 0.0
H1201 H 0.33139 0.42078 0.36271 0.0
H1202 H 0.24123 0.40074 0.31858 0.0
H1203 H 0.29963 0.42194 0.43318 0.0
H1204 H 0.24172 0.40254 0.56526 0.0
H1205 H 0.27376 0.40268 0.49383 0.0
H1206 H 0.21448 0.41977 0.37822 0.0
H1207 H 0.18281 0.4186 0.44913 0.0
C1208 C 0.27934 0.40553 0.28767 0.0
C1209 C 0.30537 0.41064 0.29845 0.0
C1210 C 0.26072 0.40564 0.32918 0.0
C1211 C 0.26724 0.41121 0.38327 0.0
C1212 C 0.29328 0.41687 0.39331 0.0
C1213 C 0.31179 0.41642 0.35213 0.0
C1214 C 0.23557 0.40651 0.52467 0.0
C1215 C 0.20937 0.41045 0.51374 0.0
C1216 C 0.2541 0.40669 0.48304 0.0
C1217 C 0.24731 0.41115 0.42865 0.0
C1218 C 0.22106 0.41562 0.4184 0.0
C1219 C 0.20262 0.41515 0.45976 0.0
H1220 H 0.41538 0.74213 0.82115 0.0
H1221 H 0.40145 0.68487 0.70021 0.0
H1222 H 0.41656 0.77511 0.75134 0.0
H1223 H 0.40145 0.71742 0.63138 0.0
H1224 H 0.41976 0.77827 0.50499 0.0
H1225 H 0.4218 0.74554 0.57518 0.0
H1226 H 0.39549 0.80097 0.69116 0.0
H1227 H 0.39446 0.83342 0.62192 0.0
C1228 C 0.41243 0.73645 0.77989 0.0
C1229 C 0.40823 0.71043 0.76733 0.0
C1230 C 0.4129 0.75555 0.7393 0.0
C1231 C 0.40907 0.74951 0.68434 0.0
C1232 C 0.40498 0.72342 0.67222 0.0
C1233 C 0.40468 0.70446 0.71251 0.0
C1234 C 0.41449 0.78351 0.54547 0.0
C1235 C 0.40693 0.80886 0.55686 0.0
C1236 C 0.41547 0.76454 0.58626 0.0
C1237 C 0.40879 0.77004 0.64023 0.0
C1238 C 0.4013 0.79548 0.65119 0.0
C1239 C 0.40047 0.81434 0.61069 0.0
H1240 H 0.74196 0.59993 0.25503 0.0
H1241 H 0.68374 0.61217 0.37458 0.0
H1242 H 0.77457 0.59859 0.32598 0.0
H1243 H 0.71593 0.61153 0.44466 0.0
H1244 H 0.77725 0.59135 0.57067 0.0
H1245 H 0.74481 0.58911 0.49946 0.0
H1246 H 0.79854 0.62237 0.38814 0.0
H1247 H 0.83053 0.62436 0.45839 0.0
C1248 C 0.73599 0.60232 0.29624 0.0
C1249 C 0.70987 0.60626 0.30814 0.0
C1250 C 0.75483 0.60175 0.3374 0.0
C1251 C 0.74836 0.60501 0.39224 0.0
C1252 C 0.72215 0.60856 0.40379 0.0
C1253 C 0.70346 0.60917 0.36288 0.0
C1254 C 0.78218 0.59814 0.53102 0.0
C1255 C 0.80694 0.60788 0.52115 0.0
C1256 C 0.76341 0.59698 0.48974 0.0
C1257 C 0.76862 0.60546 0.43679 0.0
C1258 C 0.79344 0.61511 0.42731 0.0
C1259 C 0.81202 0.61635 0.46835 0.0
H1260 H 0.62057 0.18264 0.62196 0.0
H1261 H 0.59703 0.23915 0.50607 0.0
H1262 H 0.6192 0.21454 0.69247 0.0
H1263 H 0.59486 0.27132 0.57746 0.0
H1264 H 0.61705 0.33033 0.70562 0.0
H1265 H 0.61653 0.2983 0.63554 0.0
H1266 H 0.5969 0.24048 0.75212 0.0
H1267 H 0.59833 0.27293 0.82324 0.0
C1268 C 0.61489 0.2019 0.6112 0.0
C1269 C 0.60901 0.20795 0.55729 0.0
C1270 C 0.61388 0.22042 0.65241 0.0
C1271 C 0.60688 0.24605 0.64203 0.0
C1272 C 0.60077 0.25211 0.58803 0.0
C1273 C 0.60183 0.23348 0.54657 0.0
C1274 C 0.61263 0.31082 0.71687 0.0
C1275 C 0.60788 0.30461 0.77113 0.0
C1276 C 0.61207 0.2922 0.67589 0.0
C1277 C 0.60663 0.26625 0.68678 0.0
C1278 C 0.60157 0.25998 0.74114 0.0
C1279 C 0.60218 0.27875 0.78242 0.0
H1280 H 0.32262 0.09281 0.51025 0.0
H1281 H 0.39218 0.13401 0.47401 0.0
H1282 H 0.33267 0.095 0.6055 0.0
H1283 H 0.4021 0.1366 0.56929 0.0
H1284 H 0.42576 0.11466 0.73884 0.0
H1285 H 0.41544 0.11211 0.64402 0.0
H1286 H 0.33529 0.12281 0.68064 0.0
H1287 H 0.34547 0.12389 0.77589 0.0
C1288 C 0.33995 0.10257 0.52262 0.0
C1289 C 0.35658 0.11321 0.48425 0.0
C1290 C 0.34572 0.10389 0.57742 0.0
C1291 C 0.36824 0.116 0.59557 0.0
C1292 C 0.38482 0.12671 0.55709 0.0
C1293 C 0.37911 0.12526 0.50227 0.0
C1294 C 0.40587 0.11614 0.7269 0.0
C1295 C 0.38648 0.11937 0.7655 0.0
C1296 C 0.39996 0.11505 0.67218 0.0
C1297 C 0.37449 0.1173 0.65417 0.0
C1298 C 0.3551 0.12068 0.69274 0.0
C1299 C 0.361 0.12166 0.74755 0.0
H1300 H 0.13773 0.69351 0.56201 0.0
H1301 H 0.08887 0.62781 0.58696 0.0
H1302 H 0.14026 0.68333 0.46689 0.0
H1303 H 0.09057 0.61823 0.49144 0.0
H1304 H 0.12215 0.59238 0.32878 0.0
H1305 H 0.11952 0.60259 0.42381 0.0
H1306 H 0.11526 0.68314 0.38551 0.0
H1307 H 0.11785 0.67292 0.29032 0.0
C1308 C 0.12754 0.67685 0.54731 0.0
C1309 C 0.11317 0.66146 0.58252 0.0
C1310 C 0.12874 0.67119 0.49247 0.0
C1311 C 0.11562 0.64993 0.47115 0.0
C1312 C 0.10118 0.63458 0.50633 0.0
C1313 C 0.09995 0.64027 0.56117 0.0
C1314 C 0.12039 0.61227 0.34047 0.0
C1315 C 0.1202 0.63178 0.30154 0.0
C1316 C 0.11888 0.61814 0.39516 0.0
C1317 C 0.11713 0.64371 0.41265 0.0
C1318 C 0.11697 0.66325 0.37375 0.0
C1319 C 0.11847 0.65737 0.31901 0.0
H1320 H 0.69318 0.87961 0.51138 0.0
H1321 H 0.62868 0.93031 0.48939 0.0
H1322 H 0.68326 0.87633 0.60658 0.0
H1323 H 0.61928 0.92774 0.58492 0.0
H1324 H 0.59324 0.8948 0.74638 0.0
H1325 H 0.60321 0.89805 0.65135 0.0
H1326 H 0.68393 0.901 0.68897 0.0
H1327 H 0.67396 0.8979 0.7842 0.0
C1328 C 0.67684 0.89003 0.52676 0.0
C1329 C 0.66171 0.90518 0.4924 0.0
C1330 C 0.67132 0.88839 0.5816 0.0
C1331 C 0.65046 0.90177 0.60372 0.0
C1332 C 0.63534 0.91693 0.56937 0.0
C1333 C 0.64091 0.91865 0.51455 0.0
C1334 C 0.61313 0.89641 0.73458 0.0
C1335 C 0.63275 0.89612 0.77334 0.0
C1336 C 0.61886 0.89827 0.67989 0.0
C1337 C 0.6444 0.89983 0.66221 0.0
C1338 C 0.66405 0.89946 0.70091 0.0
C1339 C 0.65832 0.89766 0.75566 0.0
H1340 H 0.85811 0.38328 0.31231 0.0
H1341 H 0.94046 0.37937 0.29935 0.0
H1342 H 0.86113 0.37382 0.40775 0.0
H1343 H 0.94354 0.36954 0.3946 0.0
H1344 H 0.94253 0.37728 0.57671 0.0
H1345 H 0.939 0.38742 0.48174 0.0
H1346 H 0.87052 0.34121 0.4711 0.0
H1347 H 0.87331 0.33217 0.56653 0.0
C1348 C 0.87687 0.38011 0.32966 0.0
C1349 C 0.89903 0.38215 0.2979 0.0
C1350 C 0.87863 0.37464 0.38457 0.0
C1351 C 0.90261 0.37091 0.4094 0.0
C1352 C 0.92475 0.37276 0.37744 0.0
C1353 C 0.92299 0.37835 0.3226 0.0
C1354 C 0.92651 0.36953 0.55437 0.0
C1355 C 0.90822 0.35386 0.57977 0.0
C1356 C 0.92467 0.37507 0.49949 0.0
C1357 C 0.90451 0.36511 0.4682 0.0
C1358 C 0.88618 0.34952 0.49367 0.0
C1359 C 0.88799 0.34402 0.54853 0.0
H1360 H 0.3816 0.44 0.54831 0.0
H1361 H 0.37473 0.35775 0.56039 0.0
H1362 H 0.37047 0.44412 0.64245 0.0
H1363 H 0.36493 0.3618 0.65541 0.0
H1364 H 0.32334 0.37946 0.81307 0.0
H1365 H 0.33308 0.37498 0.71789 0.0
H1366 H 0.3871 0.43746 0.72965 0.0
H1367 H 0.37702 0.44214 0.82433 0.0
C1368 C 0.37766 0.42275 0.57089 0.0
C1369 C 0.37908 0.39852 0.54625 0.0
C1370 C 0.37161 0.4251 0.62535 0.0
C1371 C 0.36688 0.40331 0.65708 0.0
C1372 C 0.36817 0.37908 0.63241 0.0
C1373 C 0.37415 0.37672 0.57785 0.0
C1374 C 0.3374 0.39214 0.79537 0.0
C1375 C 0.34927 0.41125 0.82648 0.0
C1376 C 0.34305 0.38955 0.74068 0.0
C1377 C 0.36086 0.4059 0.71559 0.0
C1378 C 0.37289 0.42484 0.74698 0.0
C1379 C 0.36713 0.42751 0.8015 0.0
H1380 H 0.43258 0.69593 0.26654 0.0
H1381 H 0.37416 0.64008 0.2292 0.0
H1382 H 0.42788 0.68631 0.3617 0.0
H1383 H 0.36949 0.63048 0.32412 0.0
H1384 H 0.39046 0.5977 0.48834 0.0
H1385 H 0.39312 0.60957 0.39431 0.0
H1386 H 0.39963 0.68925 0.43892 0.0
H1387 H 0.39794 0.67722 0.53348 0.0
C1388 C 0.41848 0.68186 0.27858 0.0
C1389 C 0.4039 0.66867 0.23991 0.0
C1390 C 0.41578 0.67633 0.33328 0.0
C1391 C 0.39843 0.65745 0.35079 0.0
C1392 C 0.38342 0.64474 0.31218 0.0
C1393 C 0.38611 0.65027 0.2576 0.0
C1394 C 0.39263 0.61775 0.47825 0.0
C1395 C 0.3941 0.63645 0.51874 0.0
C1396 C 0.39384 0.62462 0.42413 0.0
C1397 C 0.39654 0.6504 0.40875 0.0
C1398 C 0.39779 0.66918 0.44919 0.0
C1399 C 0.39652 0.6623 0.50347 0.0
H1400 H 0.69044 0.64021 0.81679 0.0
H1401 H 0.63167 0.58267 0.83538 0.0
H1402 H 0.6806 0.64313 0.7213 0.0
H1403 H 0.62227 0.58514 0.73973 0.0
H1404 H 0.59333 0.61739 0.57962 0.0
H1405 H 0.60339 0.61481 0.67472 0.0
H1406 H 0.68414 0.61795 0.6382 0.0
H1407 H 0.67415 0.62013 0.54276 0.0
C1408 C 0.67537 0.62823 0.80057 0.0
C1409 C 0.66183 0.61124 0.83393 0.0
C1410 C 0.66991 0.6297 0.74566 0.0
C1411 C 0.65064 0.61437 0.72269 0.0
C1412 C 0.63707 0.59742 0.75608 0.0
C1413 C 0.64264 0.59582 0.81089 0.0
C1414 C 0.61327 0.61724 0.59163 0.0
C1415 C 0.63289 0.61887 0.55311 0.0
C1416 C 0.61903 0.6158 0.64634 0.0
C1417 C 0.64459 0.6161 0.66427 0.0
C1418 C 0.66424 0.61798 0.62592 0.0
C1419 C 0.65848 0.61929 0.57109 0.0
H1420 H 0.57871 0.38927 0.52066 0.0
H1421 H 0.65961 0.37205 0.5176 0.0
H1422 H 0.57582 0.38 0.42511 0.0
H1423 H 0.65654 0.36191 0.42241 0.0
H1424 H 0.64736 0.37319 0.24093 0.0
H1425 H 0.65021 0.38256 0.33642 0.0
H1426 H 0.57759 0.34486 0.36185 0.0
H1427 H 0.57478 0.33539 0.26639 0.0
C1428 C 0.59591 0.38353 0.49965 0.0
C1429 C 0.61942 0.38152 0.52706 0.0
C1430 C 0.59419 0.37791 0.44485 0.0
C1431 C 0.61594 0.37019 0.41577 0.0
C1432 C 0.63943 0.36808 0.44323 0.0
C1433 C 0.64113 0.37361 0.49808 0.0
C1434 C 0.63208 0.36668 0.26687 0.0
C1435 C 0.61084 0.35349 0.24563 0.0
C1436 C 0.63373 0.37206 0.32179 0.0
C1437 C 0.61416 0.36446 0.35712 0.0
C1438 C 0.59286 0.35136 0.33587 0.0
C1439 C 0.59123 0.34595 0.28097 0.0
H1440 H 0.82405 0.58643 1.02112 0.0
H1441 H 0.889 0.6348 0.98551 0.0
H1442 H 0.83399 0.58917 0.11617 0.0
H1443 H 0.89802 0.63878 0.08078 0.0
H1444 H 0.9238 0.61961 0.25077 0.0
H1445 H 0.91409 0.61613 0.15561 0.0
H1446 H 0.83313 0.61675 0.19151 0.0
H1447 H 0.84295 0.61977 0.28686 0.0
C1448 C 0.84048 0.59765 1.0334 0.0
C1449 C 0.85573 0.6103 0.99511 0.0
C1450 C 0.84598 0.59954 0.08825 0.0
C1451 C 0.86683 0.61425 0.10667 0.0
C1452 C 0.88201 0.62699 0.0684 0.0
C1453 C 0.87659 0.625 1.01353 0.0
C1454 C 0.90391 0.61919 0.23837 0.0
C1455 C 0.88418 0.62002 0.27667 0.0
C1456 C 0.89831 0.61724 0.1836 0.0
C1457 C 0.87278 0.61622 0.16536 0.0
C1458 C 0.85303 0.61706 0.20377 0.0
C1459 C 0.85865 0.61885 0.25862 0.0
H1460 H 0.62754 0.1717 0.79246 0.0
H1461 H 0.60763 0.09306 0.82659 0.0
H1462 H 0.62559 0.18162 0.88767 0.0
H1463 H 0.60419 0.10331 0.92128 0.0
H1464 H 0.62536 0.1231 0.09397 0.0
H1465 H 0.62821 0.11308 0.9988 0.0
H1466 H 0.59728 0.18764 0.96051 0.0
H1467 H 0.59488 0.19773 0.05566 0.0
C1468 C 0.62275 0.15647 0.82013 0.0
C1469 C 0.61779 0.13151 0.8013 0.0
C1470 C 0.62126 0.16227 0.87494 0.0
C1471 C 0.61466 0.14333 0.91272 0.0
C1472 C 0.60966 0.1184 0.89384 0.0
C1473 C 0.61126 0.11258 0.83911 0.0
C1474 C 0.61899 0.13729 0.06527 0.0
C1475 C 0.60992 0.16126 0.08275 0.0
C1476 C 0.62058 0.13154 1.01047 0.0
C1477 C 0.613 0.14951 0.9714 0.0
C1478 C 0.60378 0.17342 0.98902 0.0
C1479 C 0.60233 0.17922 0.0438 0.0
H1480 H 0.09509 0.3845 0.24124 0.0
H1481 H 0.17068 0.41251 0.28036 0.0
H1482 H 0.10528 0.38698 0.14623 0.0
H1483 H 0.18083 0.41531 0.1852 0.0
H1484 H 0.19954 0.39301 1.01259 0.0
H1485 H 0.18944 0.39029 0.10752 0.0
H1486 H 0.11242 0.41623 0.07466 0.0
H1487 H 0.12212 0.4176 0.97933 0.0
C1488 C 0.11382 0.39144 0.22958 0.0
C1489 C 0.13202 0.39834 0.26864 0.0
C1490 C 0.11968 0.39292 0.17493 0.0
C1491 C 0.14389 0.40144 0.15764 0.0
C1492 C 0.16212 0.40829 0.19678 0.0
C1493 C 0.15629 0.40671 0.25149 0.0
C1494 C 0.18033 0.39784 1.0254 0.0
C1495 C 0.16164 0.4054 0.98786 0.0
C1496 C 0.17463 0.39663 0.08016 0.0
C1497 C 0.15008 0.40303 0.09916 0.0
C1498 C 0.13144 0.4108 0.06168 0.0
C1499 C 0.13712 0.41193 1.00687 0.0
H1500 H 0.37269 0.82857 0.06483 0.0
H1501 H 0.4307 0.88673 0.08577 0.0
H1502 H 0.37037 0.83867 0.96945 0.0
H1503 H 0.42892 0.8963 0.9902 0.0
H1504 H 0.39847 0.92593 0.82948 0.0
H1505 H 0.40031 0.91565 0.92453 0.0
H1506 H 0.39542 0.83506 0.88694 0.0
H1507 H 0.39384 0.84531 0.79158 0.0
C1508 C 0.38491 0.84356 0.04916 0.0
C1509 C 0.40184 0.85687 0.08317 0.0
C1510 C 0.38378 0.84916 0.99429 0.0
C1511 C 0.39945 0.86831 0.97197 0.0
C1512 C 0.41637 0.88162 1.00601 0.0
C1513 C 0.41759 0.87594 0.06079 0.0
C1514 C 0.39805 0.90598 0.84129 0.0
C1515 C 0.39611 0.88648 0.80252 0.0
C1516 C 0.39908 0.90008 0.89596 0.0
C1517 C 0.3981 0.87451 0.91357 0.0
C1518 C 0.39591 0.85499 0.87493 0.0
C1519 C 0.39497 0.86088 0.82015 0.0
H1520 H 0.82405 0.93321 0.30208 0.0
H1521 H 0.88499 0.87972 0.3367 0.0
H1522 H 0.83402 0.93056 0.20702 0.0
H1523 H 0.89404 0.87602 0.2414 0.0
H1524 H 0.9218 0.89541 0.07282 0.0
H1525 H 0.91202 0.89864 0.16792 0.0
H1526 H 0.8313 0.90331 0.13063 0.0
H1527 H 0.84118 0.90035 1.03535 0.0
C1528 C 0.83961 0.92089 0.28958 0.0
C1529 C 0.85372 0.90675 0.32756 0.0
C1530 C 0.84511 0.91909 0.23473 0.0
C1531 C 0.86485 0.90304 0.21606 0.0
C1532 C 0.87891 0.88885 0.25403 0.0
C1533 C 0.87346 0.89071 0.30888 0.0
C1534 C 0.90193 0.89691 0.08486 0.0
C1535 C 0.8823 0.89756 0.04616 0.0
C1536 C 0.89629 0.89874 0.1396 0.0
C1537 C 0.87083 0.90118 0.15742 0.0
C1538 C 0.85118 0.90186 0.11866 0.0
C1539 C 0.85684 0.90013 0.06385 0.0
H1540 H 0.90435 0.17759 0.03745 0.0
H1541 H 0.88001 0.10171 0.99101 0.0
H1542 H 0.90708 0.18985 0.94299 0.0
H1543 H 0.88316 0.1138 0.89688 0.0
H1544 H 0.86642 0.15166 0.73547 0.0
H1545 H 0.8621 0.14165 0.83031 0.0
H1546 H 0.93364 0.18011 0.86284 0.0
H1547 H 0.93841 0.18961 0.76773 0.0
C1548 C 0.89944 0.16356 1.00715 0.0
C1549 C 0.89199 0.13863 1.02198 0.0
C1550 C 0.90123 0.17052 0.95296 0.0
C1551 C 0.89535 0.15282 0.91219 0.0
C1552 C 0.8876 0.12801 0.92711 0.0
C1553 C 0.88604 0.12099 0.98117 0.0
C1554 C 0.88141 0.15783 0.76256 0.0
C1555 C 0.90289 0.17133 0.7433 0.0
C1556 C 0.87886 0.15213 0.81715 0.0
C1557 C 0.89757 0.15995 0.85433 0.0
C1558 C 0.91871 0.17401 0.83547 0.0
C1559 C 0.9214 0.17953 0.78075 0.0
H1560 H 0.09574 0.12184 0.06886 0.0
H1561 H 0.17649 0.11886 1.03217 0.0
H1562 H 0.1055 0.11839 0.164 0.0
H1563 H 0.18634 0.11573 0.12749 0.0
H1564 H 0.19407 0.08504 0.29819 0.0
H1565 H 0.18419 0.08805 0.20311 0.0
H1566 H 0.12288 0.14098 0.23822 0.0
H1567 H 0.13185 0.13687 0.33353 0.0
C1568 C 0.11563 0.12072 0.0811 0.0
C1569 C 0.13531 0.12068 0.04262 0.0
C1570 C 0.12125 0.11878 0.13585 0.0
C1571 C 0.14675 0.11683 0.15389 0.0
C1572 C 0.16645 0.11678 0.11534 0.0
C1573 C 0.1608 0.11862 0.06052 0.0
C1574 C 0.17825 0.09709 0.28583 0.0
C1575 C 0.16374 0.11063 0.32402 0.0
C1576 C 0.1728 0.0991 0.23099 0.0
C1577 C 0.15271 0.1148 0.21252 0.0
C1578 C 0.13828 0.12844 0.25069 0.0
C1579 C 0.14368 0.12635 0.30555 0.0
H1580 H 0.08726 0.81519 0.7731 0.0
H1581 H 0.13589 0.87919 0.73204 0.0
H1582 H 0.09161 0.8258 0.86757 0.0
H1583 H 0.14148 0.88887 0.82664 0.0
H1584 H 0.12295 0.91732 0.99538 0.0
H1585 H 0.11957 0.9062 0.90093 0.0
H1586 H 0.11952 0.82584 0.94238 0.0
H1587 H 0.12242 0.83709 0.03705 0.0
C1588 C 0.09896 0.83149 0.78408 0.0
C1589 C 0.11109 0.84635 0.74442 0.0
C1590 C 0.10176 0.8374 0.83858 0.0
C1591 C 0.11689 0.85828 0.85526 0.0
C1592 C 0.12935 0.87288 0.81564 0.0
C1593 C 0.12645 0.86706 0.76112 0.0
C1594 C 0.12247 0.89726 0.98435 0.0
C1595 C 0.12298 0.87813 1.02402 0.0
C1596 C 0.12057 0.89084 0.92997 0.0
C1597 C 0.1193 0.86506 0.91349 0.0
C1598 C 0.12001 0.84591 0.95326 0.0
C1599 C 0.12174 0.85235 1.00771 0.0
loop_
_geom_bond_atom_site_label_1
_geom_bond_atom_site_label_2
_geom_bond_distance
_geom_bond_site_symmetry_2
_ccdc_geom_bond_type
La0 C2 2.928 . S
La0 O20 2.521 . S
La0 O21 2.628 . S
La0 O22 2.554 . S
La0 O23 2.757 . S
La0 O24 2.470 . S
La0 O29 2.482 . S
La0 O31 2.503 . S
La1 C11 2.928 1_554 S
La1 O23 2.482 . S
La1 O25 2.503 . S
La1 O26 2.521 1_554 S
La1 O27 2.628 1_554 S
La1 O28 2.554 . S
La1 O29 2.757 . S
La1 O30 2.470 . S
C2 La0 2.928 . S
C2 C3 1.503 . S
C2 O20 1.261 . S
C2 O21 1.243 . S
C3 C2 1.503 . S
C3 C4 1.394 . S
C3 C8 1.373 . S
C4 C3 1.394 . S
C4 C5 1.380 . S
C4 H32 0.930 . S
C5 C4 1.380 . S
C5 C6 1.376 . S
C5 H33 0.930 . S
C6 C5 1.376 . S
C6 C7 1.370 . S
C7 C6 1.370 . S
C7 C8 1.396 . S
C7 H34 0.929 . S
C8 C3 1.373 . S
C8 C7 1.396 . S
C8 H35 0.929 . S
C9 O22 1.240 . S
C9 O23 1.289 . S
C10 O24 1.258 . S
C10 O25 1.256 . S
C11 La1 2.928 1_556 S
C11 C12 1.503 . S
C11 O26 1.261 . S
C11 O27 1.243 . S
C12 C11 1.503 . S
C12 C13 1.394 . S
C12 C17 1.373 . S
C13 C12 1.394 . S
C13 C14 1.380 . S
C13 H36 0.930 . S
C14 C13 1.380 . S
C14 C15 1.376 . S
C14 H37 0.930 . S
C15 C14 1.376 . S
C15 C16 1.370 . S
C16 C15 1.370 . S
C16 C17 1.396 . S
C16 H38 0.929 . S
C17 C12 1.373 . S
C17 C16 1.396 . S
C17 H39 0.929 . S
C18 O28 1.240 . S
C18 O29 1.289 . S
C19 O30 1.258 . S
C19 O31 1.256 . S
O20 La0 2.521 . S
O20 C2 1.261 . S
O21 La0 2.628 . S
O21 C2 1.243 . S
O22 La0 2.554 . S
O22 C9 1.240 . S
O23 La0 2.757 . S
O23 La1 2.482 . S
O23 C9 1.289 . S
O24 La0 2.470 . S
O24 C10 1.258 . S
O25 La1 2.503 . S
O25 C10 1.256 . S
O26 La1 2.521 1_556 S
O26 C11 1.261 . S
O27 La1 2.628 1_556 S
O27 C11 1.243 . S
O28 La1 2.554 . S
O28 C18 1.240 . S
O29 La0 2.482 . S
O29 La1 2.757 . S
O29 C18 1.289 . S
O30 La1 2.470 . S
O30 C19 1.258 . S
O31 La0 2.503 . S
O31 C19 1.256 . S
H32 C4 0.930 . S
H33 C5 0.930 . S
H34 C7 0.929 . S
H35 C8 0.929 . S
H36 C13 0.930 . S
H37 C14 0.930 . S
H38 C16 0.929 . S
H39 C17 0.929 . S
La40 C42 2.928 1_556 S
La40 O60 2.521 1_556 S
La40 O61 2.628 1_556 S
La40 O62 2.554 . S
La40 O63 2.757 . S
La40 O64 2.470 . S
La40 O69 2.482 . S
La40 O71 2.503 . S
La41 C51 2.928 . S
La41 O63 2.482 . S
La41 O65 2.503 . S
La41 O66 2.521 . S
La41 O67 2.628 . S
La41 O68 2.554 . S
La41 O69 2.757 . S
La41 O70 2.470 . S
C42 La40 2.928 1_554 S
C42 C43 1.503 . S
C42 O60 1.261 . S
C42 O61 1.243 . S
C43 C42 1.503 . S
C43 C44 1.394 . S
C43 C48 1.373 . S
C44 C43 1.394 . S
C44 C45 1.380 . S
C44 H72 0.930 . S
C45 C44 1.380 . S
C45 C46 1.376 . S
C45 H73 0.930 . S
C46 C45 1.376 . S
C46 C47 1.370 . S
C47 C46 1.370 . S
C47 C48 1.396 . S
C47 H74 0.929 . S
C48 C43 1.373 . S
C48 C47 1.396 . S
C48 H75 0.929 . S
C49 O62 1.240 . S
C49 O63 1.289 . S
C50 O64 1.258 . S
C50 O65 1.256 . S
C51 La41 2.928 . S
C51 C52 1.503 . S
C51 O66 1.261 . S
C51 O67 1.243 . S
C52 C51 1.503 . S
C52 C53 1.394 . S
C52 C57 1.373 . S
C53 C52 1.394 . S
C53 C54 1.380 . S
C53 H76 0.930 . S
C54 C53 1.380 . S
C54 C55 1.376 . S
C54 H77 0.930 . S
C55 C54 1.376 . S
C55 C56 1.370 . S
C56 C55 1.370 . S
C56 C57 1.396 . S
C56 H78 0.929 . S
C57 C52 1.373 . S
C57 C56 1.396 . S
C57 H79 0.929 . S
C58 O68 1.240 . S
C58 O69 1.289 . S
C59 O70 1.258 . S
C59 O71 1.256 . S
O60 La40 2.521 1_554 S
O60 C42 1.261 . S
O61 La40 2.628 1_554 S
O61 C42 1.243 . S
O62 La40 2.554 . S
O62 C49 1.240 . S
O63 La40 2.757 . S
O63 La41 2.482 . S
O63 C49 1.289 . S
O64 La40 2.470 . S
O64 C50 1.258 . S
O65 La41 2.503 . S
O65 C50 1.256 . S
O66 La41 2.521 . S
O66 C51 1.261 . S
O67 La41 2.628 . S
O67 C51 1.243 . S
O68 La41 2.554 . S
O68 C58 1.240 . S
O69 La40 2.482 . S
O69 La41 2.757 . S
O69 C58 1.289 . S
O70 La41 2.470 . S
O70 C59 1.258 . S
O71 La40 2.503 . S
O71 C59 1.256 . S
H72 C44 0.930 . S
H73 C45 0.930 . S
H74 C47 0.929 . S
H75 C48 0.929 . S
H76 C53 0.930 . S
H77 C54 0.930 . S
H78 C56 0.929 . S
H79 C57 0.929 . S
La80 C82 2.928 . S
La80 O100 2.521 . S
La80 O101 2.628 . S
La80 O102 2.554 . S
La80 O103 2.757 . S
La80 O104 2.470 . S
La80 O109 2.482 . S
La80 O111 2.503 . S
La81 C91 2.928 1_554 S
La81 O103 2.482 . S
La81 O105 2.503 . S
La81 O106 2.521 1_554 S
La81 O107 2.628 1_554 S
La81 O108 2.554 . S
La81 O109 2.757 . S
La81 O110 2.470 . S
C82 La80 2.928 . S
C82 C83 1.503 . S
C82 O100 1.261 . S
C82 O101 1.243 . S
C83 C82 1.503 . S
C83 C84 1.394 . S
C83 C88 1.373 . S
C84 C83 1.394 . S
C84 C85 1.380 . S
C84 H112 0.930 . S
C85 C84 1.380 . S
C85 C86 1.376 . S
C85 H113 0.930 . S
C86 C85 1.376 . S
C86 C87 1.370 . S
C87 C86 1.370 . S
C87 C88 1.396 . S
C87 H114 0.929 . S
C88 C83 1.373 . S
C88 C87 1.396 . S
C88 H115 0.929 . S
C89 O102 1.240 . S
C89 O103 1.289 . S
C90 O104 1.258 . S
C90 O105 1.256 . S
C91 La81 2.928 1_556 S
C91 C92 1.503 . S
C91 O106 1.261 . S
C91 O107 1.243 . S
C92 C91 1.503 . S
C92 C93 1.394 . S
C92 C97 1.373 . S
C93 C92 1.394 . S
C93 C94 1.380 . S
C93 H116 0.930 . S
C94 C93 1.380 . S
C94 C95 1.376 . S
C94 H117 0.930 . S
C95 C94 1.376 . S
C95 C96 1.370 . S
C96 C95 1.370 . S
C96 C97 1.396 . S
C96 H118 0.929 . S
C97 C92 1.373 . S
C97 C96 1.396 . S
C97 H119 0.929 . S
C98 O108 1.240 . S
C98 O109 1.289 . S
C99 O110 1.258 . S
C99 O111 1.256 . S
O100 La80 2.521 . S
O100 C82 1.261 . S
O101 La80 2.628 . S
O101 C82 1.243 . S
O102 La80 2.554 . S
O102 C89 1.240 . S
O103 La80 2.757 . S
O103 La81 2.482 . S
O103 C89 1.289 . S
O104 La80 2.470 . S
O104 C90 1.258 . S
O105 La81 2.503 . S
O105 C90 1.256 . S
O106 La81 2.521 1_556 S
O106 C91 1.261 . S
O107 La81 2.628 1_556 S
O107 C91 1.243 . S
O108 La81 2.554 . S
O108 C98 1.240 . S
O109 La80 2.482 . S
O109 La81 2.757 . S
O109 C98 1.289 . S
O110 La81 2.470 . S
O110 C99 1.258 . S
O111 La80 2.503 . S
O111 C99 1.256 . S
H112 C84 0.930 . S
H113 C85 0.930 . S
H114 C87 0.929 . S
H115 C88 0.929 . S
H116 C93 0.930 . S
H117 C94 0.930 . S
H118 C96 0.929 . S
H119 C97 0.929 . S
La120 C122 2.928 1_556 S
La120 O140 2.521 1_556 S
La120 O141 2.628 1_556 S
La120 O142 2.554 . S
La120 O143 2.757 . S
La120 O144 2.470 . S
La120 O149 2.482 . S
La120 O151 2.503 . S
La121 C131 2.928 . S
La121 O143 2.482 . S
La121 O145 2.503 . S
La121 O146 2.521 . S
La121 O147 2.628 . S
La121 O148 2.554 . S
La121 O149 2.757 . S
La121 O150 2.470 . S
C122 La120 2.928 1_554 S
C122 C123 1.503 . S
C122 O140 1.261 . S
C122 O141 1.243 . S
C123 C122 1.503 . S
C123 C124 1.394 . S
C123 C128 1.373 . S
C124 C123 1.394 . S
C124 C125 1.380 . S
C124 H152 0.930 . S
C125 C124 1.380 . S
C125 C126 1.376 . S
C125 H153 0.930 . S
C126 C125 1.376 . S
C126 C127 1.370 . S
C127 C126 1.370 . S
C127 C128 1.396 . S
C127 H154 0.929 . S
C128 C123 1.373 . S
C128 C127 1.396 . S
C128 H155 0.929 . S
C129 O142 1.240 . S
C129 O143 1.289 . S
C130 O144 1.258 . S
C130 O145 1.256 . S
C131 La121 2.928 . S
C131 C132 1.503 . S
C131 O146 1.261 . S
C131 O147 1.243 . S
C132 C131 1.503 . S
C132 C133 1.394 . S
C132 C137 1.373 . S
C133 C132 1.394 . S
C133 C134 1.380 . S
C133 H156 0.930 . S
C134 C133 1.380 . S
C134 C135 1.376 . S
C134 H157 0.930 . S
C135 C134 1.376 . S
C135 C136 1.370 . S
C136 C135 1.370 . S
C136 C137 1.396 . S
C136 H158 0.929 . S
C137 C132 1.373 . S
C137 C136 1.396 . S
C137 H159 0.929 . S
C138 O148 1.240 . S
C138 O149 1.289 . S
C139 O150 1.258 . S
C139 O151 1.256 . S
O140 La120 2.521 1_554 S
O140 C122 1.261 . S
O141 La120 2.628 1_554 S
O141 C122 1.243 . S
O142 La120 2.554 . S
O142 C129 1.240 . S
O143 La120 2.757 . S
O143 La121 2.482 . S
O143 C129 1.289 . S
O144 La120 2.470 . S
O144 C130 1.258 . S
O145 La121 2.503 . S
O145 C130 1.256 . S
O146 La121 2.521 . S
O146 C131 1.261 . S
O147 La121 2.628 . S
O147 C131 1.243 . S
O148 La121 2.554 . S
O148 C138 1.240 . S
O149 La120 2.482 . S
O149 La121 2.757 . S
O149 C138 1.289 . S
O150 La121 2.470 . S
O150 C139 1.258 . S
O151 La120 2.503 . S
O151 C139 1.256 . S
H152 C124 0.930 . S
H153 C125 0.930 . S
H154 C127 0.929 . S
H155 C128 0.929 . S
H156 C133 0.930 . S
H157 C134 0.930 . S
H158 C136 0.929 . S
H159 C137 0.929 . S
La160 C162 2.928 1_554 S
La160 O180 2.521 1_554 S
La160 O181 2.628 1_554 S
La160 O182 2.554 . S
La160 O183 2.757 . S
La160 O184 2.470 . S
La160 O189 2.482 . S
La160 O191 2.503 . S
La161 C171 2.928 . S
La161 O183 2.482 . S
La161 O185 2.503 . S
La161 O186 2.521 . S
La161 O187 2.628 . S
La161 O188 2.554 . S
La161 O189 2.757 . S
La161 O190 2.470 . S
C162 La160 2.928 1_556 S
C162 C163 1.503 . S
C162 O180 1.261 . S
C162 O181 1.243 . S
C163 C162 1.503 . S
C163 C164 1.394 . S
C163 C168 1.373 . S
C164 C163 1.394 . S
C164 C165 1.380 . S
C164 H192 0.930 . S
C165 C164 1.380 . S
C165 C166 1.376 . S
C165 H193 0.930 . S
C166 C165 1.376 . S
C166 C167 1.370 . S
C167 C166 1.370 . S
C167 C168 1.396 . S
C167 H194 0.929 . S
C168 C163 1.373 . S
C168 C167 1.396 . S
C168 H195 0.929 . S
C169 O182 1.240 . S
C169 O183 1.289 . S
C170 O184 1.258 . S
C170 O185 1.256 . S
C171 La161 2.928 . S
C171 C172 1.503 . S
C171 O186 1.261 . S
C171 O187 1.243 . S
C172 C171 1.503 . S
C172 C173 1.394 . S
C172 C177 1.373 . S
C173 C172 1.394 . S
C173 C174 1.380 . S
C173 H196 0.930 . S
C174 C173 1.380 . S
C174 C175 1.376 . S
C174 H197 0.930 . S
C175 C174 1.376 . S
C175 C176 1.370 . S
C176 C175 1.370 . S
C176 C177 1.396 . S
C176 H198 0.929 . S
C177 C172 1.373 . S
C177 C176 1.396 . S
C177 H199 0.929 . S
C178 O188 1.240 . S
C178 O189 1.289 . S
C179 O190 1.258 . S
C179 O191 1.256 . S
O180 La160 2.521 1_556 S
O180 C162 1.261 . S
O181 La160 2.628 1_556 S
O181 C162 1.243 . S
O182 La160 2.554 . S
O182 C169 1.240 . S
O183 La160 2.757 . S
O183 La161 2.482 . S
O183 C169 1.289 . S
O184 La160 2.470 . S
O184 C170 1.258 . S
O185 La161 2.503 . S
O185 C170 1.256 . S
O186 La161 2.521 . S
O186 C171 1.261 . S
O187 La161 2.628 . S
O187 C171 1.243 . S
O188 La161 2.554 . S
O188 C178 1.240 . S
O189 La160 2.482 . S
O189 La161 2.757 . S
O189 C178 1.289 . S
O190 La161 2.470 . S
O190 C179 1.258 . S
O191 La160 2.503 . S
O191 C179 1.256 . S
H192 C164 0.930 . S
H193 C165 0.930 . S
H194 C167 0.929 . S
H195 C168 0.929 . S
H196 C173 0.930 . S
H197 C174 0.930 . S
H198 C176 0.929 . S
H199 C177 0.929 . S
La200 C202 2.928 . S
La200 O220 2.521 . S
La200 O221 2.628 . S
La200 O222 2.554 . S
La200 O223 2.757 . S
La200 O224 2.470 . S
La200 O229 2.482 . S
La200 O231 2.503 . S
La201 C211 2.928 1_556 S
La201 O223 2.482 . S
La201 O225 2.503 . S
La201 O226 2.521 1_556 S
La201 O227 2.628 1_556 S
La201 O228 2.554 . S
La201 O229 2.757 . S
La201 O230 2.470 . S
C202 La200 2.928 . S
C202 C203 1.503 . S
C202 O220 1.261 . S
C202 O221 1.243 . S
C203 C202 1.503 . S
C203 C204 1.394 . S
C203 C208 1.373 . S
C204 C203 1.394 . S
C204 C205 1.380 . S
C204 H232 0.930 . S
C205 C204 1.380 . S
C205 C206 1.376 . S
C205 H233 0.930 . S
C206 C205 1.376 . S
C206 C207 1.370 . S
C207 C206 1.370 . S
C207 C208 1.396 . S
C207 H234 0.929 . S
C208 C203 1.373 . S
C208 C207 1.396 . S
C208 H235 0.929 . S
C209 O222 1.240 . S
C209 O223 1.289 . S
C210 O224 1.258 . S
C210 O225 1.256 . S
C211 La201 2.928 1_554 S
C211 C212 1.503 . S
C211 O226 1.261 . S
C211 O227 1.243 . S
C212 C211 1.503 . S
C212 C213 1.394 . S
C212 C217 1.373 . S
C213 C212 1.394 . S
C213 C214 1.380 . S
C213 H236 0.930 . S
C214 C213 1.380 . S
C214 C215 1.376 . S
C214 H237 0.930 . S
C215 C214 1.376 . S
C215 C216 1.370 . S
C216 C215 1.370 . S
C216 C217 1.396 . S
C216 H238 0.929 . S
C217 C212 1.373 . S
C217 C216 1.396 . S
C217 H239 0.929 . S
C218 O228 1.240 . S
C218 O229 1.289 . S
C219 O230 1.258 . S
C219 O231 1.256 . S
O220 La200 2.521 . S
O220 C202 1.261 . S
O221 La200 2.628 . S
O221 C202 1.243 . S
O222 La200 2.554 . S
O222 C209 1.240 . S
O223 La200 2.757 . S
O223 La201 2.482 . S
O223 C209 1.289 . S
O224 La200 2.470 . S
O224 C210 1.258 . S
O225 La201 2.503 . S
O225 C210 1.256 . S
O226 La201 2.521 1_554 S
O226 C211 1.261 . S
O227 La201 2.628 1_554 S
O227 C211 1.243 . S
O228 La201 2.554 . S
O228 C218 1.240 . S
O229 La200 2.482 . S
O229 La201 2.757 . S
O229 C218 1.289 . S
O230 La201 2.470 . S
O230 C219 1.258 . S
O231 La200 2.503 . S
O231 C219 1.256 . S
H232 C204 0.930 . S
H233 C205 0.930 . S
H234 C207 0.929 . S
H235 C208 0.929 . S
H236 C213 0.930 . S
H237 C214 0.930 . S
H238 C216 0.929 . S
H239 C217 0.929 . S
La240 C242 2.928 1_554 S
La240 O260 2.521 1_554 S
La240 O261 2.628 1_554 S
La240 O262 2.554 . S
La240 O263 2.757 . S
La240 O264 2.470 . S
La240 O269 2.482 . S
La240 O271 2.503 . S
La241 C251 2.928 . S
La241 O263 2.482 . S
La241 O265 2.503 . S
La241 O266 2.521 . S
La241 O267 2.628 . S
La241 O268 2.554 . S
La241 O269 2.757 . S
La241 O270 2.470 . S
C242 La240 2.928 1_556 S
C242 C243 1.503 . S
C242 O260 1.261 . S
C242 O261 1.243 . S
C243 C242 1.503 . S
C243 C244 1.394 . S
C243 C248 1.373 . S
C244 C243 1.394 . S
C244 C245 1.380 . S
C244 H272 0.930 . S
C245 C244 1.380 . S
C245 C246 1.376 . S
C245 H273 0.930 . S
C246 C245 1.376 . S
C246 C247 1.370 . S
C247 C246 1.370 . S
C247 C248 1.396 . S
C247 H274 0.929 . S
C248 C243 1.373 . S
C248 C247 1.396 . S
C248 H275 0.929 . S
C249 O262 1.240 . S
C249 O263 1.289 . S
C250 O264 1.258 . S
C250 O265 1.256 . S
C251 La241 2.928 . S
C251 C252 1.503 . S
C251 O266 1.261 . S
C251 O267 1.243 . S
C252 C251 1.503 . S
C252 C253 1.394 . S
C252 C257 1.373 . S
C253 C252 1.394 . S
C253 C254 1.380 . S
C253 H276 0.930 . S
C254 C253 1.380 . S
C254 C255 1.376 . S
C254 H277 0.930 . S
C255 C254 1.376 . S
C255 C256 1.370 . S
C256 C255 1.370 . S
C256 C257 1.396 . S
C256 H278 0.929 . S
C257 C252 1.373 . S
C257 C256 1.396 . S
C257 H279 0.929 . S
C258 O268 1.240 . S
C258 O269 1.289 . S
C259 O270 1.258 . S
C259 O271 1.256 . S
O260 La240 2.521 1_556 S
O260 C242 1.261 . S
O261 La240 2.628 1_556 S
O261 C242 1.243 . S
O262 La240 2.554 . S
O262 C249 1.240 . S
O263 La240 2.757 . S
O263 La241 2.482 . S
O263 C249 1.289 . S
O264 La240 2.470 . S
O264 C250 1.258 . S
O265 La241 2.503 . S
O265 C250 1.256 . S
O266 La241 2.521 . S
O266 C251 1.261 . S
O267 La241 2.628 . S
O267 C251 1.243 . S
O268 La241 2.554 . S
O268 C258 1.240 . S
O269 La240 2.482 . S
O269 La241 2.757 . S
O269 C258 1.289 . S
O270 La241 2.470 . S
O270 C259 1.258 . S
O271 La240 2.503 . S
O271 C259 1.256 . S
H272 C244 0.930 . S
H273 C245 0.930 . S
H274 C247 0.929 . S
H275 C248 0.929 . S
H276 C253 0.930 . S
H277 C254 0.930 . S
H278 C256 0.929 . S
H279 C257 0.929 . S
La280 C282 2.928 . S
La280 O300 2.521 . S
La280 O301 2.628 . S
La280 O302 2.554 . S
La280 O303 2.757 . S
La280 O304 2.470 . S
La280 O309 2.482 . S
La280 O311 2.503 . S
La281 C291 2.928 1_556 S
La281 O303 2.482 . S
La281 O305 2.503 . S
La281 O306 2.521 1_556 S
La281 O307 2.628 1_556 S
La281 O308 2.554 . S
La281 O309 2.757 . S
La281 O310 2.470 . S
C282 La280 2.928 . S
C282 C283 1.503 . S
C282 O300 1.261 . S
C282 O301 1.243 . S
C283 C282 1.503 . S
C283 C284 1.394 . S
C283 C288 1.373 . S
C284 C283 1.394 . S
C284 C285 1.380 . S
C284 H312 0.930 . S
C285 C284 1.380 . S
C285 C286 1.376 . S
C285 H313 0.930 . S
C286 C285 1.376 . S
C286 C287 1.370 . S
C287 C286 1.370 . S
C287 C288 1.396 . S
C287 H314 0.929 . S
C288 C283 1.373 . S
C288 C287 1.396 . S
C288 H315 0.929 . S
C289 O302 1.240 . S
C289 O303 1.289 . S
C290 O304 1.258 . S
C290 O305 1.256 . S
C291 La281 2.928 1_554 S
C291 C292 1.503 . S
C291 O306 1.261 . S
C291 O307 1.243 . S
C292 C291 1.503 . S
C292 C293 1.394 . S
C292 C297 1.373 . S
C293 C292 1.394 . S
C293 C294 1.380 . S
C293 H316 0.930 . S
C294 C293 1.380 . S
C294 C295 1.376 . S
C294 H317 0.930 . S
C295 C294 1.376 . S
C295 C296 1.370 . S
C296 C295 1.370 . S
C296 C297 1.396 . S
C296 H318 0.929 . S
C297 C292 1.373 . S
C297 C296 1.396 . S
C297 H319 0.929 . S
C298 O308 1.240 . S
C298 O309 1.289 . S
C299 O310 1.258 . S
C299 O311 1.256 . S
O300 La280 2.521 . S
O300 C282 1.261 . S
O301 La280 2.628 . S
O301 C282 1.243 . S
O302 La280 2.554 . S
O302 C289 1.240 . S
O303 La280 2.757 . S
O303 La281 2.482 . S
O303 C289 1.289 . S
O304 La280 2.470 . S
O304 C290 1.258 . S
O305 La281 2.503 . S
O305 C290 1.256 . S
O306 La281 2.521 1_554 S
O306 C291 1.261 . S
O307 La281 2.628 1_554 S
O307 C291 1.243 . S
O308 La281 2.554 . S
O308 C298 1.240 . S
O309 La280 2.482 . S
O309 La281 2.757 . S
O309 C298 1.289 . S
O310 La281 2.470 . S
O310 C299 1.258 . S
O311 La280 2.503 . S
O311 C299 1.256 . S
H312 C284 0.930 . S
H313 C285 0.930 . S
H314 C287 0.929 . S
H315 C288 0.929 . S
H316 C293 0.930 . S
H317 C294 0.930 . S
H318 C296 0.929 . S
H319 C297 0.929 . S
La320 C322 2.928 . S
La320 O340 2.521 . S
La320 O341 2.628 . S
La320 O342 2.554 . S
La320 O343 2.757 . S
La320 O344 2.470 . S
La320 O349 2.482 . S
La320 O351 2.503 . S
La321 C331 2.928 . S
La321 O343 2.482 . S
La321 O345 2.503 . S
La321 O346 2.521 . S
La321 O347 2.628 . S
La321 O348 2.554 . S
La321 O349 2.757 . S
La321 O350 2.470 . S
C322 La320 2.928 . S
C322 C323 1.503 . S
C322 O340 1.261 . S
C322 O341 1.243 . S
C323 C322 1.503 . S
C323 C324 1.394 . S
C323 C328 1.373 . S
C324 C323 1.394 . S
C324 C325 1.380 . S
C324 H352 0.930 . S
C325 C324 1.380 . S
C325 C326 1.376 . S
C325 H353 0.930 . S
C326 C325 1.376 . S
C326 C327 1.370 . S
C327 C326 1.370 . S
C327 C328 1.396 . S
C327 H354 0.929 . S
C328 C323 1.373 . S
C328 C327 1.396 . S
C328 H355 0.929 . S
C329 O342 1.240 . S
C329 O343 1.289 . S
C330 O344 1.258 . S
C330 O345 1.256 . S
C331 La321 2.928 . S
C331 C332 1.503 . S
C331 O346 1.261 . S
C331 O347 1.243 . S
C332 C331 1.503 . S
C332 C333 1.394 . S
C332 C337 1.373 . S
C333 C332 1.394 . S
C333 C334 1.380 . S
C333 H356 0.930 . S
C334 C333 1.380 . S
C334 C335 1.376 . S
C334 H357 0.930 . S
C335 C334 1.376 . S
C335 C336 1.370 . S
C336 C335 1.370 . S
C336 C337 1.396 . S
C336 H358 0.929 . S
C337 C332 1.373 . S
C337 C336 1.396 . S
C337 H359 0.929 . S
C338 O348 1.240 . S
C338 O349 1.289 . S
C339 O350 1.258 . S
C339 O351 1.256 . S
O340 La320 2.521 . S
O340 C322 1.261 . S
O341 La320 2.628 . S
O341 C322 1.243 . S
O342 La320 2.554 . S
O342 C329 1.240 . S
O343 La320 2.757 . S
O343 La321 2.482 . S
O343 C329 1.289 . S
O344 La320 2.470 . S
O344 C330 1.258 . S
O345 La321 2.503 . S
O345 C330 1.256 . S
O346 La321 2.521 . S
O346 C331 1.261 . S
O347 La321 2.628 . S
O347 C331 1.243 . S
O348 La321 2.554 . S
O348 C338 1.240 . S
O349 La320 2.482 . S
O349 La321 2.757 . S
O349 C338 1.289 . S
O350 La321 2.470 . S
O350 C339 1.258 . S
O351 La320 2.503 . S
O351 C339 1.256 . S
H352 C324 0.930 . S
H353 C325 0.930 . S
H354 C327 0.929 . S
H355 C328 0.929 . S
H356 C333 0.930 . S
H357 C334 0.930 . S
H358 C336 0.929 . S
H359 C337 0.929 . S
La360 C362 2.928 . S
La360 O380 2.521 . S
La360 O381 2.628 . S
La360 O382 2.554 . S
La360 O383 2.757 . S
La360 O384 2.470 . S
La360 O389 2.482 . S
La360 O391 2.503 . S
La361 C371 2.928 . S
La361 O383 2.482 . S
La361 O385 2.503 . S
La361 O386 2.521 . S
La361 O387 2.628 . S
La361 O388 2.554 . S
La361 O389 2.757 . S
La361 O390 2.470 . S
C362 La360 2.928 . S
C362 C363 1.503 . S
C362 O380 1.261 . S
C362 O381 1.243 . S
C363 C362 1.503 . S
C363 C364 1.394 . S
C363 C368 1.373 . S
C364 C363 1.394 . S
C364 C365 1.380 . S
C364 H392 0.930 . S
C365 C364 1.380 . S
C365 C366 1.376 . S
C365 H393 0.930 . S
C366 C365 1.376 . S
C366 C367 1.370 . S
C367 C366 1.370 . S
C367 C368 1.396 . S
C367 H394 0.929 . S
C368 C363 1.373 . S
C368 C367 1.396 . S
C368 H395 0.929 . S
C369 O382 1.240 . S
C369 O383 1.289 . S
C370 O384 1.258 . S
C370 O385 1.256 . S
C371 La361 2.928 . S
C371 C372 1.503 . S
C371 O386 1.261 . S
C371 O387 1.243 . S
C372 C371 1.503 . S
C372 C373 1.394 . S
C372 C377 1.373 . S
C373 C372 1.394 . S
C373 C374 1.380 . S
C373 H396 0.930 . S
C374 C373 1.380 . S
C374 C375 1.376 . S
C374 H397 0.930 . S
C375 C374 1.376 . S
C375 C376 1.370 . S
C376 C375 1.370 . S
C376 C377 1.396 . S
C376 H398 0.929 . S
C377 C372 1.373 . S
C377 C376 1.396 . S
C377 H399 0.929 . S
C378 O388 1.240 . S
C378 O389 1.289 . S
C379 O390 1.258 . S
C379 O391 1.256 . S
O380 La360 2.521 . S
O380 C362 1.261 . S
O381 La360 2.628 . S
O381 C362 1.243 . S
O382 La360 2.554 . S
O382 C369 1.240 . S
O383 La360 2.757 . S
O383 La361 2.482 . S
O383 C369 1.289 . S
O384 La360 2.470 . S
O384 C370 1.258 . S
O385 La361 2.503 . S
O385 C370 1.256 . S
O386 La361 2.521 . S
O386 C371 1.261 . S
O387 La361 2.628 . S
O387 C371 1.243 . S
O388 La361 2.554 . S
O388 C378 1.240 . S
O389 La360 2.482 . S
O389 La361 2.757 . S
O389 C378 1.289 . S
O390 La361 2.470 . S
O390 C379 1.258 . S
O391 La360 2.503 . S
O391 C379 1.256 . S
H392 C364 0.930 . S
H393 C365 0.930 . S
H394 C367 0.929 . S
H395 C368 0.929 . S
H396 C373 0.930 . S
H397 C374 0.930 . S
H398 C376 0.929 . S
H399 C377 0.929 . S
La400 C402 2.928 . S
La400 O420 2.521 . S
La400 O421 2.628 . S
La400 O422 2.554 . S
La400 O423 2.757 . S
La400 O424 2.470 . S
La400 O429 2.482 . S
La400 O431 2.503 . S
La401 C411 2.928 . S
La401 O423 2.482 . S
La401 O425 2.503 . S
La401 O426 2.521 . S
La401 O427 2.628 . S
La401 O428 2.554 . S
La401 O429 2.757 . S
La401 O430 2.470 . S
C402 La400 2.928 . S
C402 C403 1.503 . S
C402 O420 1.261 . S
C402 O421 1.243 . S
C403 C402 1.503 . S
C403 C404 1.394 . S
C403 C408 1.373 . S
C404 C403 1.394 . S
C404 C405 1.380 . S
C404 H432 0.930 . S
C405 C404 1.380 . S
C405 C406 1.376 . S
C405 H433 0.930 . S
C406 C405 1.376 . S
C406 C407 1.370 . S
C407 C406 1.370 . S
C407 C408 1.396 . S
C407 H434 0.929 . S
C408 C403 1.373 . S
C408 C407 1.396 . S
C408 H435 0.929 . S
C409 O422 1.240 . S
C409 O423 1.289 . S
C410 O424 1.258 . S
C410 O425 1.256 . S
C411 La401 2.928 . S
C411 C412 1.503 . S
C411 O426 1.261 . S
C411 O427 1.243 . S
C412 C411 1.503 . S
C412 C413 1.394 . S
C412 C417 1.373 . S
C413 C412 1.394 . S
C413 C414 1.380 . S
C413 H436 0.930 . S
C414 C413 1.380 . S
C414 C415 1.376 . S
C414 H437 0.930 . S
C415 C414 1.376 . S
C415 C416 1.370 . S
C416 C415 1.370 . S
C416 C417 1.396 . S
C416 H438 0.929 . S
C417 C412 1.373 . S
C417 C416 1.396 . S
C417 H439 0.929 . S
C418 O428 1.240 . S
C418 O429 1.289 . S
C419 O430 1.258 . S
C419 O431 1.256 . S
O420 La400 2.521 . S
O420 C402 1.261 . S
O421 La400 2.628 . S
O421 C402 1.243 . S
O422 La400 2.554 . S
O422 C409 1.240 . S
O423 La400 2.757 . S
O423 La401 2.482 . S
O423 C409 1.289 . S
O424 La400 2.470 . S
O424 C410 1.258 . S
O425 La401 2.503 . S
O425 C410 1.256 . S
O426 La401 2.521 . S
O426 C411 1.261 . S
O427 La401 2.628 . S
O427 C411 1.243 . S
O428 La401 2.554 . S
O428 C418 1.240 . S
O429 La400 2.482 . S
O429 La401 2.757 . S
O429 C418 1.289 . S
O430 La401 2.470 . S
O430 C419 1.258 . S
O431 La400 2.503 . S
O431 C419 1.256 . S
H432 C404 0.930 . S
H433 C405 0.930 . S
H434 C407 0.929 . S
H435 C408 0.929 . S
H436 C413 0.930 . S
H437 C414 0.930 . S
H438 C416 0.929 . S
H439 C417 0.929 . S
La440 C442 2.928 . S
La440 O460 2.521 . S
La440 O461 2.628 . S
La440 O462 2.554 . S
La440 O463 2.757 . S
La440 O464 2.470 . S
La440 O469 2.482 . S
La440 O471 2.503 . S
La441 C451 2.928 . S
La441 O463 2.482 . S
La441 O465 2.503 . S
La441 O466 2.521 . S
La441 O467 2.628 . S
La441 O468 2.554 . S
La441 O469 2.757 . S
La441 O470 2.470 . S
C442 La440 2.928 . S
C442 C443 1.503 . S
C442 O460 1.261 . S
C442 O461 1.243 . S
C443 C442 1.503 . S
C443 C444 1.394 . S
C443 C448 1.373 . S
C444 C443 1.394 . S
C444 C445 1.380 . S
C444 H472 0.930 . S
C445 C444 1.380 . S
C445 C446 1.376 . S
C445 H473 0.930 . S
C446 C445 1.376 . S
C446 C447 1.370 . S
C447 C446 1.370 . S
C447 C448 1.396 . S
C447 H474 0.929 . S
C448 C443 1.373 . S
C448 C447 1.396 . S
C448 H475 0.929 . S
C449 O462 1.240 . S
C449 O463 1.289 . S
C450 O464 1.258 . S
C450 O465 1.256 . S
C451 La441 2.928 . S
C451 C452 1.503 . S
C451 O466 1.261 . S
C451 O467 1.243 . S
C452 C451 1.503 . S
C452 C453 1.394 . S
C452 C457 1.373 . S
C453 C452 1.394 . S
C453 C454 1.380 . S
C453 H476 0.930 . S
C454 C453 1.380 . S
C454 C455 1.376 . S
C454 H477 0.930 . S
C455 C454 1.376 . S
C455 C456 1.370 . S
C456 C455 1.370 . S
C456 C457 1.396 . S
C456 H478 0.929 . S
C457 C452 1.373 . S
C457 C456 1.396 . S
C457 H479 0.929 . S
C458 O468 1.240 . S
C458 O469 1.289 . S
C459 O470 1.258 . S
C459 O471 1.256 . S
O460 La440 2.521 . S
O460 C442 1.261 . S
O461 La440 2.628 . S
O461 C442 1.243 . S
O462 La440 2.554 . S
O462 C449 1.240 . S
O463 La440 2.757 . S
O463 La441 2.482 . S
O463 C449 1.289 . S
O464 La440 2.470 . S
O464 C450 1.258 . S
O465 La441 2.503 . S
O465 C450 1.256 . S
O466 La441 2.521 . S
O466 C451 1.261 . S
O467 La441 2.628 . S
O467 C451 1.243 . S
O468 La441 2.554 . S
O468 C458 1.240 . S
O469 La440 2.482 . S
O469 La441 2.757 . S
O469 C458 1.289 . S
O470 La441 2.470 . S
O470 C459 1.258 . S
O471 La440 2.503 . S
O471 C459 1.256 . S
H472 C444 0.930 . S
H473 C445 0.930 . S
H474 C447 0.929 . S
H475 C448 0.929 . S
H476 C453 0.930 . S
H477 C454 0.930 . S
H478 C456 0.929 . S
H479 C457 0.929 . S
La480 C482 2.928 . S
La480 O500 2.521 . S
La480 O501 2.628 . S
La480 O502 2.554 . S
La480 O503 2.757 . S
La480 O504 2.470 . S
La480 O509 2.482 . S
La480 O511 2.503 . S
La481 C491 2.928 . S
La481 O503 2.482 . S
La481 O505 2.503 . S
La481 O506 2.521 . S
La481 O507 2.628 . S
La481 O508 2.554 . S
La481 O509 2.757 . S
La481 O510 2.470 . S
C482 La480 2.928 . S
C482 C483 1.503 . S
C482 O500 1.261 . S
C482 O501 1.243 . S
C483 C482 1.503 . S
C483 C484 1.394 . S
C483 C488 1.373 . S
C484 C483 1.394 . S
C484 C485 1.380 . S
C484 H512 0.930 . S
C485 C484 1.380 . S
C485 C486 1.376 . S
C485 H513 0.930 . S
C486 C485 1.376 . S
C486 C487 1.370 . S
C487 C486 1.370 . S
C487 C488 1.396 . S
C487 H514 0.929 . S
C488 C483 1.373 . S
C488 C487 1.396 . S
C488 H515 0.929 . S
C489 O502 1.240 . S
C489 O503 1.289 . S
C490 O504 1.258 . S
C490 O505 1.256 . S
C491 La481 2.928 . S
C491 C492 1.503 . S
C491 O506 1.261 . S
C491 O507 1.243 . S
C492 C491 1.503 . S
C492 C493 1.394 . S
C492 C497 1.373 . S
C493 C492 1.394 . S
C493 C494 1.380 . S
C493 H516 0.930 . S
C494 C493 1.380 . S
C494 C495 1.376 . S
C494 H517 0.930 . S
C495 C494 1.376 . S
C495 C496 1.370 . S
C496 C495 1.370 . S
C496 C497 1.396 . S
C496 H518 0.929 . S
C497 C492 1.373 . S
C497 C496 1.396 . S
C497 H519 0.929 . S
C498 O508 1.240 . S
C498 O509 1.289 . S
C499 O510 1.258 . S
C499 O511 1.256 . S
O500 La480 2.521 . S
O500 C482 1.261 . S
O501 La480 2.628 . S
O501 C482 1.243 . S
O502 La480 2.554 . S
O502 C489 1.240 . S
O503 La480 2.757 . S
O503 La481 2.482 . S
O503 C489 1.289 . S
O504 La480 2.470 . S
O504 C490 1.258 . S
O505 La481 2.503 . S
O505 C490 1.256 . S
O506 La481 2.521 . S
O506 C491 1.261 . S
O507 La481 2.628 . S
O507 C491 1.243 . S
O508 La481 2.554 . S
O508 C498 1.240 . S
O509 La480 2.482 . S
O509 La481 2.757 . S
O509 C498 1.289 . S
O510 La481 2.470 . S
O510 C499 1.258 . S
O511 La480 2.503 . S
O511 C499 1.256 . S
H512 C484 0.930 . S
H513 C485 0.930 . S
H514 C487 0.929 . S
H515 C488 0.929 . S
H516 C493 0.930 . S
H517 C494 0.930 . S
H518 C496 0.929 . S
H519 C497 0.929 . S
La520 C522 2.928 . S
La520 O540 2.521 . S
La520 O541 2.628 . S
La520 O542 2.554 . S
La520 O543 2.757 . S
La520 O544 2.470 . S
La520 O549 2.482 . S
La520 O551 2.503 . S
La521 C531 2.928 . S
La521 O543 2.482 . S
La521 O545 2.503 . S
La521 O546 2.521 . S
La521 O547 2.628 . S
La521 O548 2.554 . S
La521 O549 2.757 . S
La521 O550 2.470 . S
C522 La520 2.928 . S
C522 C523 1.503 . S
C522 O540 1.261 . S
C522 O541 1.243 . S
C523 C522 1.503 . S
C523 C524 1.394 . S
C523 C528 1.373 . S
C524 C523 1.394 . S
C524 C525 1.380 . S
C524 H552 0.930 . S
C525 C524 1.380 . S
C525 C526 1.376 . S
C525 H553 0.930 . S
C526 C525 1.376 . S
C526 C527 1.370 . S
C527 C526 1.370 . S
C527 C528 1.396 . S
C527 H554 0.929 . S
C528 C523 1.373 . S
C528 C527 1.396 . S
C528 H555 0.929 . S
C529 O542 1.240 . S
C529 O543 1.289 . S
C530 O544 1.258 . S
C530 O545 1.256 . S
C531 La521 2.928 . S
C531 C532 1.503 . S
C531 O546 1.261 . S
C531 O547 1.243 . S
C532 C531 1.503 . S
C532 C533 1.394 . S
C532 C537 1.373 . S
C533 C532 1.394 . S
C533 C534 1.380 . S
C533 H556 0.930 . S
C534 C533 1.380 . S
C534 C535 1.376 . S
C534 H557 0.930 . S
C535 C534 1.376 . S
C535 C536 1.370 . S
C536 C535 1.370 . S
C536 C537 1.396 . S
C536 H558 0.929 . S
C537 C532 1.373 . S
C537 C536 1.396 . S
C537 H559 0.929 . S
C538 O548 1.240 . S
C538 O549 1.289 . S
C539 O550 1.258 . S
C539 O551 1.256 . S
O540 La520 2.521 . S
O540 C522 1.261 . S
O541 La520 2.628 . S
O541 C522 1.243 . S
O542 La520 2.554 . S
O542 C529 1.240 . S
O543 La520 2.757 . S
O543 La521 2.482 . S
O543 C529 1.289 . S
O544 La520 2.470 . S
O544 C530 1.258 . S
O545 La521 2.503 . S
O545 C530 1.256 . S
O546 La521 2.521 . S
O546 C531 1.261 . S
O547 La521 2.628 . S
O547 C531 1.243 . S
O548 La521 2.554 . S
O548 C538 1.240 . S
O549 La520 2.482 . S
O549 La521 2.757 . S
O549 C538 1.289 . S
O550 La521 2.470 . S
O550 C539 1.258 . S
O551 La520 2.503 . S
O551 C539 1.256 . S
H552 C524 0.930 . S
H553 C525 0.930 . S
H554 C527 0.929 . S
H555 C528 0.929 . S
H556 C533 0.930 . S
H557 C534 0.930 . S
H558 C536 0.929 . S
H559 C537 0.929 . S
La560 C562 2.928 . S
La560 O580 2.521 . S
La560 O581 2.628 . S
La560 O582 2.554 . S
La560 O583 2.757 . S
La560 O584 2.470 . S
La560 O589 2.482 . S
La560 O591 2.503 . S
La561 C571 2.928 . S
La561 O583 2.482 . S
La561 O585 2.503 . S
La561 O586 2.521 . S
La561 O587 2.628 . S
La561 O588 2.554 . S
La561 O589 2.757 . S
La561 O590 2.470 . S
C562 La560 2.928 . S
C562 C563 1.503 . S
C562 O580 1.261 . S
C562 O581 1.243 . S
C563 C562 1.503 . S
C563 C564 1.394 . S
C563 C568 1.373 . S
C564 C563 1.394 . S
C564 C565 1.380 . S
C564 H592 0.930 . S
C565 C564 1.380 . S
C565 C566 1.376 . S
C565 H593 0.930 . S
C566 C565 1.376 . S
C566 C567 1.370 . S
C567 C566 1.370 . S
C567 C568 1.396 . S
C567 H594 0.929 . S
C568 C563 1.373 . S
C568 C567 1.396 . S
C568 H595 0.929 . S
C569 O582 1.240 . S
C569 O583 1.289 . S
C570 O584 1.258 . S
C570 O585 1.256 . S
C571 La561 2.928 . S
C571 C572 1.503 . S
C571 O586 1.261 . S
C571 O587 1.243 . S
C572 C571 1.503 . S
C572 C573 1.394 . S
C572 C577 1.373 . S
C573 C572 1.394 . S
C573 C574 1.380 . S
C573 H596 0.930 . S
C574 C573 1.380 . S
C574 C575 1.376 . S
C574 H597 0.930 . S
C575 C574 1.376 . S
C575 C576 1.370 . S
C576 C575 1.370 . S
C576 C577 1.396 . S
C576 H598 0.929 . S
C577 C572 1.373 . S
C577 C576 1.396 . S
C577 H599 0.929 . S
C578 O588 1.240 . S
C578 O589 1.289 . S
C579 O590 1.258 . S
C579 O591 1.256 . S
O580 La560 2.521 . S
O580 C562 1.261 . S
O581 La560 2.628 . S
O581 C562 1.243 . S
O582 La560 2.554 . S
O582 C569 1.240 . S
O583 La560 2.757 . S
O583 La561 2.482 . S
O583 C569 1.289 . S
O584 La560 2.470 . S
O584 C570 1.258 . S
O585 La561 2.503 . S
O585 C570 1.256 . S
O586 La561 2.521 . S
O586 C571 1.261 . S
O587 La561 2.628 . S
O587 C571 1.243 . S
O588 La561 2.554 . S
O588 C578 1.240 . S
O589 La560 2.482 . S
O589 La561 2.757 . S
O589 C578 1.289 . S
O590 La561 2.470 . S
O590 C579 1.258 . S
O591 La560 2.503 . S
O591 C579 1.256 . S
H592 C564 0.930 . S
H593 C565 0.930 . S
H594 C567 0.929 . S
H595 C568 0.929 . S
H596 C573 0.930 . S
H597 C574 0.930 . S
H598 C576 0.929 . S
H599 C577 0.929 . S
La600 C602 2.928 . S
La600 O620 2.521 . S
La600 O621 2.628 . S
La600 O622 2.554 . S
La600 O623 2.757 . S
La600 O624 2.470 . S
La600 O629 2.482 . S
La600 O631 2.503 . S
La601 C611 2.928 . S
La601 O623 2.482 . S
La601 O625 2.503 . S
La601 O626 2.521 . S
La601 O627 2.628 . S
La601 O628 2.554 . S
La601 O629 2.757 . S
La601 O630 2.470 . S
C602 La600 2.928 . S
C602 C603 1.503 . S
C602 O620 1.261 . S
C602 O621 1.243 . S
C603 C602 1.503 . S
C603 C604 1.394 . S
C603 C608 1.373 . S
C604 C603 1.394 . S
C604 C605 1.380 . S
C604 H632 0.930 . S
C605 C604 1.380 . S
C605 C606 1.376 . S
C605 H633 0.930 . S
C606 C605 1.376 . S
C606 C607 1.370 . S
C607 C606 1.370 . S
C607 C608 1.396 . S
C607 H634 0.929 . S
C608 C603 1.373 . S
C608 C607 1.396 . S
C608 H635 0.929 . S
C609 O622 1.240 . S
C609 O623 1.289 . S
C610 O624 1.258 . S
C610 O625 1.256 . S
C611 La601 2.928 . S
C611 C612 1.503 . S
C611 O626 1.261 . S
C611 O627 1.243 . S
C612 C611 1.503 . S
C612 C613 1.394 . S
C612 C617 1.373 . S
C613 C612 1.394 . S
C613 C614 1.380 . S
C613 H636 0.930 . S
C614 C613 1.380 . S
C614 C615 1.376 . S
C614 H637 0.930 . S
C615 C614 1.376 . S
C615 C616 1.370 . S
C616 C615 1.370 . S
C616 C617 1.396 . S
C616 H638 0.929 . S
C617 C612 1.373 . S
C617 C616 1.396 . S
C617 H639 0.929 . S
C618 O628 1.240 . S
C618 O629 1.289 . S
C619 O630 1.258 . S
C619 O631 1.256 . S
O620 La600 2.521 . S
O620 C602 1.261 . S
O621 La600 2.628 . S
O621 C602 1.243 . S
O622 La600 2.554 . S
O622 C609 1.240 . S
O623 La600 2.757 . S
O623 La601 2.482 . S
O623 C609 1.289 . S
O624 La600 2.470 . S
O624 C610 1.258 . S
O625 La601 2.503 . S
O625 C610 1.256 . S
O626 La601 2.521 . S
O626 C611 1.261 . S
O627 La601 2.628 . S
O627 C611 1.243 . S
O628 La601 2.554 . S
O628 C618 1.240 . S
O629 La600 2.482 . S
O629 La601 2.757 . S
O629 C618 1.289 . S
O630 La601 2.470 . S
O630 C619 1.258 . S
O631 La600 2.503 . S
O631 C619 1.256 . S
H632 C604 0.930 . S
H633 C605 0.930 . S
H634 C607 0.929 . S
H635 C608 0.929 . S
H636 C613 0.930 . S
H637 C614 0.930 . S
H638 C616 0.929 . S
H639 C617 0.929 . S
H640 C648 0.950 . S
H641 C653 0.950 . S
H642 C650 0.950 . S
H643 C652 0.950 . S
H644 C654 0.950 . S
H645 C656 0.950 . S
H646 C658 0.950 . S
H647 C659 0.950 . S
C648 H640 0.950 . S
C648 C649 1.386 . S
C648 C650 1.391 . S
C649 C648 1.386 . S
C649 C653 1.393 . S
C650 H642 0.950 . S
C650 C648 1.391 . S
C650 C651 1.400 . S
C651 C650 1.400 . S
C651 C652 1.398 . S
C651 C657 1.491 . S
C652 H643 0.950 . S
C652 C651 1.398 . S
C652 C653 1.391 . S
C653 H641 0.950 . S
C653 C649 1.393 . S
C653 C652 1.391 . S
C654 H644 0.950 . S
C654 C655 1.386 . S
C654 C656 1.391 1_545 S
C655 C654 1.386 . S
C655 C659 1.393 . S
C656 H645 0.950 . S
C656 C654 1.391 1_565 S
C656 C657 1.400 . S
C657 C651 1.491 . S
C657 C656 1.400 . S
C657 C658 1.398 1_565 S
C658 H646 0.950 . S
C658 C657 1.398 1_545 S
C658 C659 1.391 . S
C659 H647 0.950 . S
C659 C655 1.393 . S
C659 C658 1.391 . S
H660 C668 0.950 . S
H661 C673 0.950 . S
H662 C670 0.950 . S
H663 C672 0.950 . S
H664 C674 0.950 . S
H665 C676 0.950 . S
H666 C678 0.950 . S
H667 C679 0.950 . S
C668 H660 0.950 . S
C668 C669 1.386 . S
C668 C670 1.391 . S
C669 C668 1.386 . S
C669 C673 1.393 . S
C670 H662 0.950 . S
C670 C668 1.391 . S
C670 C671 1.400 . S
C671 C670 1.400 . S
C671 C672 1.398 . S
C671 C677 1.491 . S
C672 H663 0.950 . S
C672 C671 1.398 . S
C672 C673 1.391 . S
C673 H661 0.950 . S
C673 C669 1.393 . S
C673 C672 1.391 . S
C674 H664 0.950 . S
C674 C675 1.386 . S
C674 C676 1.391 1_455 S
C675 C674 1.386 . S
C675 C679 1.393 . S
C676 H665 0.950 . S
C676 C674 1.391 1_655 S
C676 C677 1.400 . S
C677 C671 1.491 . S
C677 C676 1.400 . S
C677 C678 1.398 1_655 S
C678 H666 0.950 . S
C678 C677 1.398 1_455 S
C678 C679 1.391 . S
C679 H667 0.950 . S
C679 C675 1.393 . S
C679 C678 1.391 . S
H680 C688 0.950 . S
H681 C693 0.950 . S
H682 C690 0.950 1_545 S
H683 C692 0.950 . S
H684 C694 0.950 . S
H685 C696 0.950 . S
H686 C698 0.950 . S
H687 C699 0.950 . S
C688 H680 0.950 . S
C688 C689 1.386 . S
C688 C690 1.391 . S
C689 C688 1.386 . S
C689 C693 1.393 . S
C690 H682 0.950 1_565 S
C690 C688 1.391 . S
C690 C691 1.400 1_565 S
C691 C690 1.400 1_545 S
C691 C692 1.398 . S
C691 C697 1.491 . S
C692 H683 0.950 . S
C692 C691 1.398 . S
C692 C693 1.391 1_545 S
C693 H681 0.950 . S
C693 C689 1.393 . S
C693 C692 1.391 1_565 S
C694 H684 0.950 . S
C694 C695 1.386 . S
C694 C696 1.391 . S
C695 C694 1.386 . S
C695 C699 1.393 . S
C696 H685 0.950 . S
C696 C694 1.391 . S
C696 C697 1.400 . S
C697 C691 1.491 . S
C697 C696 1.400 . S
C697 C698 1.398 . S
C698 H686 0.950 . S
C698 C697 1.398 . S
C698 C699 1.391 . S
C699 H687 0.950 . S
C699 C695 1.393 . S
C699 C698 1.391 . S
H700 C708 0.950 . S
H701 C713 0.950 . S
H702 C710 0.950 . S
H703 C712 0.950 . S
H704 C714 0.950 . S
H705 C716 0.950 . S
H706 C718 0.950 . S
H707 C719 0.950 . S
C708 H700 0.950 . S
C708 C709 1.386 . S
C708 C710 1.391 1_655 S
C709 C708 1.386 . S
C709 C713 1.393 . S
C710 H702 0.950 . S
C710 C708 1.391 1_455 S
C710 C711 1.400 . S
C711 C710 1.400 . S
C711 C712 1.398 1_455 S
C711 C717 1.491 . S
C712 H703 0.950 . S
C712 C711 1.398 1_655 S
C712 C713 1.391 . S
C713 H701 0.950 . S
C713 C709 1.393 . S
C713 C712 1.391 . S
C714 H704 0.950 . S
C714 C715 1.386 . S
C714 C716 1.391 . S
C715 C714 1.386 . S
C715 C719 1.393 . S
C716 H705 0.950 . S
C716 C714 1.391 . S
C716 C717 1.400 . S
C717 C711 1.491 . S
C717 C716 1.400 . S
C717 C718 1.398 . S
C718 H706 0.950 . S
C718 C717 1.398 . S
C718 C719 1.391 . S
C719 H707 0.950 . S
C719 C715 1.393 . S
C719 C718 1.391 . S
H720 C728 0.950 . S
H721 C733 0.950 . S
H722 C730 0.950 1_556 S
H723 C732 0.950 . S
H724 C734 0.950 . S
H725 C736 0.950 . S
H726 C738 0.950 . S
H727 C739 0.950 . S
C728 H720 0.950 . S
C728 C729 1.386 . S
C728 C730 1.391 . S
C729 C728 1.386 . S
C729 C733 1.393 . S
C730 H722 0.950 1_554 S
C730 C728 1.391 . S
C730 C731 1.400 . S
C731 C730 1.400 . S
C731 C732 1.398 . S
C731 C737 1.491 . S
C732 H723 0.950 . S
C732 C731 1.398 . S
C732 C733 1.391 . S
C733 H721 0.950 . S
C733 C729 1.393 . S
C733 C732 1.391 . S
C734 H724 0.950 . S
C734 C735 1.386 1_554 S
C734 C736 1.391 . S
C735 C734 1.386 1_556 S
C735 C739 1.393 . S
C736 H725 0.950 . S
C736 C734 1.391 . S
C736 C737 1.400 . S
C737 C731 1.491 . S
C737 C736 1.400 . S
C737 C738 1.398 1_554 S
C738 H726 0.950 . S
C738 C737 1.398 1_556 S
C738 C739 1.391 . S
C739 H727 0.950 . S
C739 C735 1.393 . S
C739 C738 1.391 . S
H740 C748 0.950 . S
H741 C753 0.950 . S
H742 C750 0.950 . S
H743 C752 0.950 . S
H744 C754 0.950 . S
H745 C756 0.950 . S
H746 C758 0.950 1_554 S
H747 C759 0.950 . S
C748 H740 0.950 . S
C748 C749 1.386 . S
C748 C750 1.391 . S
C749 C748 1.386 . S
C749 C753 1.393 1_554 S
C750 H742 0.950 . S
C750 C748 1.391 . S
C750 C751 1.400 1_554 S
C751 C750 1.400 1_556 S
C751 C752 1.398 . S
C751 C757 1.491 . S
C752 H743 0.950 . S
C752 C751 1.398 . S
C752 C753 1.391 . S
C753 H741 0.950 . S
C753 C749 1.393 1_556 S
C753 C752 1.391 . S
C754 H744 0.950 . S
C754 C755 1.386 . S
C754 C756 1.391 . S
C755 C754 1.386 . S
C755 C759 1.393 . S
C756 H745 0.950 . S
C756 C754 1.391 . S
C756 C757 1.400 . S
C757 C751 1.491 . S
C757 C756 1.400 . S
C757 C758 1.398 . S
C758 H746 0.950 1_556 S
C758 C757 1.398 . S
C758 C759 1.391 . S
C759 H747 0.950 . S
C759 C755 1.393 . S
C759 C758 1.391 . S
H760 C768 0.950 . S
H761 C773 0.950 . S
H762 C770 0.950 . S
H763 C772 0.950 . S
H764 C774 0.950 . S
H765 C776 0.950 . S
H766 C778 0.950 . S
H767 C779 0.950 . S
C768 H760 0.950 . S
C768 C769 1.386 . S
C768 C770 1.391 . S
C769 C768 1.386 . S
C769 C773 1.393 . S
C770 H762 0.950 . S
C770 C768 1.391 . S
C770 C771 1.400 . S
C771 C770 1.400 . S
C771 C772 1.398 . S
C771 C777 1.491 . S
C772 H763 0.950 . S
C772 C771 1.398 . S
C772 C773 1.391 . S
C773 H761 0.950 . S
C773 C769 1.393 . S
C773 C772 1.391 . S
C774 H764 0.950 . S
C774 C775 1.386 . S
C774 C776 1.391 1_556 S
C775 C774 1.386 . S
C775 C779 1.393 . S
C776 H765 0.950 . S
C776 C774 1.391 1_554 S
C776 C777 1.400 . S
C777 C771 1.491 . S
C777 C776 1.400 . S
C777 C778 1.398 1_554 S
C778 H766 0.950 . S
C778 C777 1.398 1_556 S
C778 C779 1.391 . S
C779 H767 0.950 . S
C779 C775 1.393 . S
C779 C778 1.391 . S
H780 C788 0.950 . S
H781 C793 0.950 . S
H782 C790 0.950 . S
H783 C792 0.950 . S
H784 C794 0.950 . S
H785 C796 0.950 1_554 S
H786 C798 0.950 . S
H787 C799 0.950 . S
C788 H780 0.950 . S
C788 C789 1.386 1_556 S
C788 C790 1.391 . S
C789 C788 1.386 1_554 S
C789 C793 1.393 . S
C790 H782 0.950 . S
C790 C788 1.391 . S
C790 C791 1.400 . S
C791 C790 1.400 . S
C791 C792 1.398 1_556 S
C791 C797 1.491 . S
C792 H783 0.950 . S
C792 C791 1.398 1_554 S
C792 C793 1.391 . S
C793 H781 0.950 . S
C793 C789 1.393 . S
C793 C792 1.391 . S
C794 H784 0.950 . S
C794 C795 1.386 . S
C794 C796 1.391 . S
C795 C794 1.386 . S
C795 C799 1.393 . S
C796 H785 0.950 1_556 S
C796 C794 1.391 . S
C796 C797 1.400 . S
C797 C791 1.491 . S
C797 C796 1.400 . S
C797 C798 1.398 . S
C798 H786 0.950 . S
C798 C797 1.398 . S
C798 C799 1.391 . S
C799 H787 0.950 . S
C799 C795 1.393 . S
C799 C798 1.391 . S
H800 C808 0.950 . S
H801 C813 0.950 . S
H802 C810 0.950 . S
H803 C812 0.950 . S
H804 C814 0.950 . S
H805 C816 0.950 . S
H806 C818 0.950 . S
H807 C819 0.950 . S
C808 H800 0.950 . S
C808 C809 1.386 . S
C808 C810 1.391 . S
C809 C808 1.386 . S
C809 C813 1.393 . S
C810 H802 0.950 . S
C810 C808 1.391 . S
C810 C811 1.400 . S
C811 C810 1.400 . S
C811 C812 1.398 . S
C811 C817 1.491 . S
C812 H803 0.950 . S
C812 C811 1.398 . S
C812 C813 1.391 . S
C813 H801 0.950 . S
C813 C809 1.393 . S
C813 C812 1.391 . S
C814 H804 0.950 . S
C814 C815 1.386 . S
C814 C816 1.391 . S
C815 C814 1.386 . S
C815 C819 1.393 . S
C816 H805 0.950 . S
C816 C814 1.391 . S
C816 C817 1.400 . S
C817 C811 1.491 . S
C817 C816 1.400 . S
C817 C818 1.398 . S
C818 H806 0.950 . S
C818 C817 1.398 . S
C818 C819 1.391 . S
C819 H807 0.950 . S
C819 C815 1.393 . S
C819 C818 1.391 . S
H820 C828 0.950 . S
H821 C833 0.950 . S
H822 C830 0.950 . S
H823 C832 0.950 . S
H824 C834 0.950 . S
H825 C836 0.950 . S
H826 C838 0.950 . S
H827 C839 0.950 . S
C828 H820 0.950 . S
C828 C829 1.386 . S
C828 C830 1.391 . S
C829 C828 1.386 . S
C829 C833 1.393 . S
C830 H822 0.950 . S
C830 C828 1.391 . S
C830 C831 1.400 . S
C831 C830 1.400 . S
C831 C832 1.398 . S
C831 C837 1.491 . S
C832 H823 0.950 . S
C832 C831 1.398 . S
C832 C833 1.391 . S
C833 H821 0.950 . S
C833 C829 1.393 . S
C833 C832 1.391 . S
C834 H824 0.950 . S
C834 C835 1.386 . S
C834 C836 1.391 . S
C835 C834 1.386 . S
C835 C839 1.393 . S
C836 H825 0.950 . S
C836 C834 1.391 . S
C836 C837 1.400 . S
C837 C831 1.491 . S
C837 C836 1.400 . S
C837 C838 1.398 . S
C838 H826 0.950 . S
C838 C837 1.398 . S
C838 C839 1.391 . S
C839 H827 0.950 . S
C839 C835 1.393 . S
C839 C838 1.391 . S
H840 C848 0.950 . S
H841 C853 0.950 . S
H842 C850 0.950 . S
H843 C852 0.950 . S
H844 C854 0.950 . S
H845 C856 0.950 . S
H846 C858 0.950 . S
H847 C859 0.950 . S
C848 H840 0.950 . S
C848 C849 1.386 . S
C848 C850 1.391 . S
C849 C848 1.386 . S
C849 C853 1.393 . S
C850 H842 0.950 . S
C850 C848 1.391 . S
C850 C851 1.400 . S
C851 C850 1.400 . S
C851 C852 1.398 . S
C851 C857 1.491 . S
C852 H843 0.950 . S
C852 C851 1.398 . S
C852 C853 1.391 . S
C853 H841 0.950 . S
C853 C849 1.393 . S
C853 C852 1.391 . S
C854 H844 0.950 . S
C854 C855 1.386 . S
C854 C856 1.391 . S
C855 C854 1.386 . S
C855 C859 1.393 . S
C856 H845 0.950 . S
C856 C854 1.391 . S
C856 C857 1.400 . S
C857 C851 1.491 . S
C857 C856 1.400 . S
C857 C858 1.398 . S
C858 H846 0.950 . S
C858 C857 1.398 . S
C858 C859 1.391 . S
C859 H847 0.950 . S
C859 C855 1.393 . S
C859 C858 1.391 . S
H860 C868 0.950 . S
H861 C873 0.950 . S
H862 C870 0.950 . S
H863 C872 0.950 . S
H864 C874 0.950 . S
H865 C876 0.950 . S
H866 C878 0.950 . S
H867 C879 0.950 . S
C868 H860 0.950 . S
C868 C869 1.386 . S
C868 C870 1.391 . S
C869 C868 1.386 . S
C869 C873 1.393 . S
C870 H862 0.950 . S
C870 C868 1.391 . S
C870 C871 1.400 . S
C871 C870 1.400 . S
C871 C872 1.398 . S
C871 C877 1.491 . S
C872 H863 0.950 . S
C872 C871 1.398 . S
C872 C873 1.391 . S
C873 H861 0.950 . S
C873 C869 1.393 . S
C873 C872 1.391 . S
C874 H864 0.950 . S
C874 C875 1.386 . S
C874 C876 1.391 . S
C875 C874 1.386 . S
C875 C879 1.393 . S
C876 H865 0.950 . S
C876 C874 1.391 . S
C876 C877 1.400 . S
C877 C871 1.491 . S
C877 C876 1.400 . S
C877 C878 1.398 . S
C878 H866 0.950 . S
C878 C877 1.398 . S
C878 C879 1.391 . S
C879 H867 0.950 . S
C879 C875 1.393 . S
C879 C878 1.391 . S
H880 C888 0.950 . S
H881 C893 0.950 . S
H882 C890 0.942 1_545 S
H883 C892 0.950 . S
H884 C894 0.950 . S
H885 C896 0.950 . S
H886 C898 0.950 . S
H887 C899 0.950 . S
C888 H880 0.950 . S
C888 C889 1.386 . S
C888 C890 1.409 . S
C889 C888 1.386 . S
C889 C893 1.393 . S
C890 H882 0.942 1_565 S
C890 C888 1.409 . S
C890 C891 1.390 1_565 S
C891 C890 1.390 1_545 S
C891 C892 1.398 . S
C891 C897 1.491 . S
C892 H883 0.950 . S
C892 C891 1.398 . S
C892 C893 1.391 1_545 S
C893 H881 0.950 . S
C893 C889 1.393 . S
C893 C892 1.391 1_565 S
C894 H884 0.950 . S
C894 C895 1.386 . S
C894 C896 1.391 . S
C895 C894 1.386 . S
C895 C899 1.393 . S
C896 H885 0.950 . S
C896 C894 1.391 . S
C896 C897 1.400 . S
C897 C891 1.491 . S
C897 C896 1.400 . S
C897 C898 1.398 . S
C898 H886 0.950 . S
C898 C897 1.398 . S
C898 C899 1.391 . S
C899 H887 0.950 . S
C899 C895 1.393 . S
C899 C898 1.391 . S
H900 C908 0.950 . S
H901 C913 0.950 . S
H902 C910 0.950 . S
H903 C912 0.950 . S
H904 C914 0.950 . S
H905 C916 0.938 1_455 S
H906 C918 0.950 . S
H907 C919 0.950 . S
C908 H900 0.950 . S
C908 C909 1.386 . S
C908 C910 1.391 . S
C909 C908 1.386 . S
C909 C913 1.393 . S
C910 H902 0.950 . S
C910 C908 1.391 . S
C910 C911 1.400 . S
C911 C910 1.400 . S
C911 C912 1.398 . S
C911 C917 1.491 . S
C912 H903 0.950 . S
C912 C911 1.398 . S
C912 C913 1.391 . S
C913 H901 0.950 . S
C913 C909 1.393 . S
C913 C912 1.391 . S
C914 H904 0.950 . S
C914 C915 1.386 . S
C914 C916 1.421 . S
C915 C914 1.386 . S
C915 C919 1.393 . S
C916 H905 0.938 1_655 S
C916 C914 1.421 . S
C916 C917 1.383 1_655 S
C917 C911 1.491 . S
C917 C916 1.383 1_455 S
C917 C918 1.398 . S
C918 H906 0.950 . S
C918 C917 1.398 . S
C918 C919 1.391 1_455 S
C919 H907 0.950 . S
C919 C915 1.393 . S
C919 C918 1.391 1_655 S
H920 C928 0.950 . S
H921 C933 0.950 . S
H922 C930 0.950 . S
H923 C932 0.950 . S
H924 C934 0.950 . S
H925 C936 0.950 . S
H926 C938 0.961 . S
H927 C939 0.950 . S
C928 H920 0.950 . S
C928 C929 1.386 . S
C928 C930 1.391 . S
C929 C928 1.386 . S
C929 C933 1.393 . S
C930 H922 0.950 . S
C930 C928 1.391 . S
C930 C931 1.400 . S
C931 C930 1.400 . S
C931 C932 1.398 . S
C931 C937 1.491 . S
C932 H923 0.950 . S
C932 C931 1.398 . S
C932 C933 1.391 . S
C933 H921 0.950 . S
C933 C929 1.393 . S
C933 C932 1.391 . S
C934 H924 0.950 . S
C934 C935 1.386 . S
C934 C936 1.391 1_545 S
C935 C934 1.386 . S
C935 C939 1.393 . S
C936 H925 0.950 . S
C936 C934 1.391 1_565 S
C936 C937 1.400 . S
C937 C931 1.491 . S
C937 C936 1.400 . S
C937 C938 1.410 . S
C938 H926 0.961 . S
C938 C937 1.410 . S
C938 C939 1.369 1_565 S
C939 H927 0.950 . S
C939 C935 1.393 . S
C939 C938 1.369 1_545 S
H940 C948 0.950 . S
H941 C953 0.950 . S
H942 C950 0.950 . S
H943 C952 0.950 1_655 S
H944 C954 0.950 . S
H945 C956 0.950 . S
H946 C958 0.950 . S
H947 C959 0.950 . S
C948 H940 0.950 . S
C948 C949 1.386 . S
C948 C950 1.391 1_455 S
C949 C948 1.386 . S
C949 C953 1.393 . S
C950 H942 0.950 . S
C950 C948 1.391 1_655 S
C950 C951 1.400 . S
C951 C950 1.400 . S
C951 C952 1.398 1_655 S
C951 C957 1.491 . S
C952 H943 0.950 1_455 S
C952 C951 1.398 1_455 S
C952 C953 1.391 . S
C953 H941 0.950 . S
C953 C949 1.393 . S
C953 C952 1.391 . S
C954 H944 0.950 . S
C954 C955 1.386 . S
C954 C956 1.391 . S
C955 C954 1.386 . S
C955 C959 1.393 . S
C956 H945 0.950 . S
C956 C954 1.391 . S
C956 C957 1.400 . S
C957 C951 1.491 . S
C957 C956 1.400 . S
C957 C958 1.398 . S
C958 H946 0.950 . S
C958 C957 1.398 . S
C958 C959 1.391 . S
C959 H947 0.950 . S
C959 C955 1.393 . S
C959 C958 1.391 . S
H960 C968 0.950 . S
H961 C973 0.950 . S
H962 C970 0.950 . S
H963 C972 0.950 . S
H964 C974 0.950 . S
H965 C976 0.950 . S
H966 C978 0.950 . S
H967 C979 0.950 . S
C968 H960 0.950 . S
C968 C969 1.386 . S
C968 C970 1.391 . S
C969 C968 1.386 . S
C969 C973 1.393 . S
C970 H962 0.950 . S
C970 C968 1.391 . S
C970 C971 1.400 . S
C971 C970 1.400 . S
C971 C972 1.398 . S
C971 C977 1.491 . S
C972 H963 0.950 . S
C972 C971 1.398 . S
C972 C973 1.391 . S
C973 H961 0.950 . S
C973 C969 1.393 . S
C973 C972 1.391 . S
C974 H964 0.950 . S
C974 C975 1.386 . S
C974 C976 1.391 . S
C975 C974 1.386 . S
C975 C979 1.393 . S
C976 H965 0.950 . S
C976 C974 1.391 . S
C976 C977 1.400 . S
C977 C971 1.491 . S
C977 C976 1.400 . S
C977 C978 1.398 . S
C978 H966 0.950 . S
C978 C977 1.398 . S
C978 C979 1.391 . S
C979 H967 0.950 . S
C979 C975 1.393 . S
C979 C978 1.391 . S
H980 C988 0.950 . S
H981 C993 0.950 . S
H982 C990 0.950 . S
H983 C992 0.950 . S
H984 C994 0.950 . S
H985 C996 0.950 . S
H986 C998 0.950 . S
H987 C999 0.950 . S
C988 H980 0.950 . S
C988 C989 1.386 . S
C988 C990 1.391 . S
C989 C988 1.386 . S
C989 C993 1.393 . S
C990 H982 0.950 . S
C990 C988 1.391 . S
C990 C991 1.400 . S
C991 C990 1.400 . S
C991 C992 1.398 . S
C991 C997 1.491 . S
C992 H983 0.950 . S
C992 C991 1.398 . S
C992 C993 1.391 . S
C993 H981 0.950 . S
C993 C989 1.393 . S
C993 C992 1.391 . S
C994 H984 0.950 . S
C994 C995 1.386 . S
C994 C996 1.391 . S
C995 C994 1.386 . S
C995 C999 1.393 . S
C996 H985 0.950 . S
C996 C994 1.391 . S
C996 C997 1.400 . S
C997 C991 1.491 . S
C997 C996 1.400 . S
C997 C998 1.398 . S
C998 H986 0.950 . S
C998 C997 1.398 . S
C998 C999 1.391 . S
C999 H987 0.950 . S
C999 C995 1.393 . S
C999 C998 1.391 . S
H1000 C1008 0.950 . S
H1001 C1013 0.950 . S
H1002 C1010 0.950 . S
H1003 C1012 0.950 . S
H1004 C1014 0.950 . S
H1005 C1016 0.950 . S
H1006 C1018 0.950 . S
H1007 C1019 0.950 . S
C1008 H1000 0.950 . S
C1008 C1009 1.386 . S
C1008 C1010 1.391 . S
C1009 C1008 1.386 . S
C1009 C1013 1.393 . S
C1010 H1002 0.950 . S
C1010 C1008 1.391 . S
C1010 C1011 1.400 . S
C1011 C1010 1.400 . S
C1011 C1012 1.398 . S
C1011 C1017 1.491 . S
C1012 H1003 0.950 . S
C1012 C1011 1.398 . S
C1012 C1013 1.391 . S
C1013 H1001 0.950 . S
C1013 C1009 1.393 . S
C1013 C1012 1.391 . S
C1014 H1004 0.950 . S
C1014 C1015 1.386 . S
C1014 C1016 1.391 . S
C1015 C1014 1.386 . S
C1015 C1019 1.393 . S
C1016 H1005 0.950 . S
C1016 C1014 1.391 . S
C1016 C1017 1.400 . S
C1017 C1011 1.491 . S
C1017 C1016 1.400 . S
C1017 C1018 1.398 . S
C1018 H1006 0.950 . S
C1018 C1017 1.398 . S
C1018 C1019 1.391 . S
C1019 H1007 0.950 . S
C1019 C1015 1.393 . S
C1019 C1018 1.391 . S
H1020 C1028 0.950 . S
H1021 C1033 0.950 . S
H1022 C1030 0.950 . S
H1023 C1032 0.950 . S
H1024 C1034 0.950 . S
H1025 C1036 0.950 . S
H1026 C1038 0.950 . S
H1027 C1039 0.950 . S
C1028 H1020 0.950 . S
C1028 C1029 1.386 . S
C1028 C1030 1.391 . S
C1029 C1028 1.386 . S
C1029 C1033 1.393 . S
C1030 H1022 0.950 . S
C1030 C1028 1.391 . S
C1030 C1031 1.400 . S
C1031 C1030 1.400 . S
C1031 C1032 1.398 . S
C1031 C1037 1.491 . S
C1032 H1023 0.950 . S
C1032 C1031 1.398 . S
C1032 C1033 1.391 . S
C1033 H1021 0.950 . S
C1033 C1029 1.393 . S
C1033 C1032 1.391 . S
C1034 H1024 0.950 . S
C1034 C1035 1.386 . S
C1034 C1036 1.391 . S
C1035 C1034 1.386 . S
C1035 C1039 1.393 . S
C1036 H1025 0.950 . S
C1036 C1034 1.391 . S
C1036 C1037 1.400 . S
C1037 C1031 1.491 . S
C1037 C1036 1.400 . S
C1037 C1038 1.398 . S
C1038 H1026 0.950 . S
C1038 C1037 1.398 . S
C1038 C1039 1.391 . S
C1039 H1027 0.950 . S
C1039 C1035 1.393 . S
C1039 C1038 1.391 . S
H1040 C1048 0.950 . S
H1041 C1053 0.950 . S
H1042 C1050 0.950 . S
H1043 C1052 0.950 . S
H1044 C1054 0.950 . S
H1045 C1056 0.950 . S
H1046 C1058 0.950 . S
H1047 C1059 0.950 . S
C1048 H1040 0.950 . S
C1048 C1049 1.386 . S
C1048 C1050 1.391 . S
C1049 C1048 1.386 . S
C1049 C1053 1.393 . S
C1050 H1042 0.950 . S
C1050 C1048 1.391 . S
C1050 C1051 1.400 . S
C1051 C1050 1.400 . S
C1051 C1052 1.398 . S
C1051 C1057 1.491 . S
C1052 H1043 0.950 . S
C1052 C1051 1.398 . S
C1052 C1053 1.391 . S
C1053 H1041 0.950 . S
C1053 C1049 1.393 . S
C1053 C1052 1.391 . S
C1054 H1044 0.950 . S
C1054 C1055 1.386 . S
C1054 C1056 1.391 . S
C1055 C1054 1.386 . S
C1055 C1059 1.393 . S
C1056 H1045 0.950 . S
C1056 C1054 1.391 . S
C1056 C1057 1.400 . S
C1057 C1051 1.491 . S
C1057 C1056 1.400 . S
C1057 C1058 1.398 . S
C1058 H1046 0.950 . S
C1058 C1057 1.398 . S
C1058 C1059 1.391 . S
C1059 H1047 0.950 . S
C1059 C1055 1.393 . S
C1059 C1058 1.391 . S
H1060 C1068 0.950 . S
H1061 C1073 0.950 . S
H1062 C1070 0.950 . S
H1063 C1072 0.950 . S
H1064 C1074 0.950 . S
H1065 C1076 0.950 . S
H1066 C1078 0.950 . S
H1067 C1079 0.950 . S
C1068 H1060 0.950 . S
C1068 C1069 1.386 . S
C1068 C1070 1.391 . S
C1069 C1068 1.386 . S
C1069 C1073 1.393 . S
C1070 H1062 0.950 . S
C1070 C1068 1.391 . S
C1070 C1071 1.400 . S
C1071 C1070 1.400 . S
C1071 C1072 1.398 . S
C1071 C1077 1.491 . S
C1072 H1063 0.950 . S
C1072 C1071 1.398 . S
C1072 C1073 1.391 . S
C1073 H1061 0.950 . S
C1073 C1069 1.393 . S
C1073 C1072 1.391 . S
C1074 H1064 0.950 . S
C1074 C1075 1.386 . S
C1074 C1076 1.391 . S
C1075 C1074 1.386 . S
C1075 C1079 1.393 . S
C1076 H1065 0.950 . S
C1076 C1074 1.391 . S
C1076 C1077 1.400 . S
C1077 C1071 1.491 . S
C1077 C1076 1.400 . S
C1077 C1078 1.398 . S
C1078 H1066 0.950 . S
C1078 C1077 1.398 . S
C1078 C1079 1.391 . S
C1079 H1067 0.950 . S
C1079 C1075 1.393 . S
C1079 C1078 1.391 . S
H1080 C1088 0.950 . S
H1081 C1093 0.950 . S
H1082 C1090 0.950 . S
H1083 C1092 0.950 . S
H1084 C1094 0.950 . S
H1085 C1096 0.950 . S
H1086 C1098 0.950 . S
H1087 C1099 0.950 . S
C1088 H1080 0.950 . S
C1088 C1089 1.386 . S
C1088 C1090 1.391 . S
C1089 C1088 1.386 . S
C1089 C1093 1.393 . S
C1090 H1082 0.950 . S
C1090 C1088 1.391 . S
C1090 C1091 1.400 . S
C1091 C1090 1.400 . S
C1091 C1092 1.398 . S
C1091 C1097 1.491 . S
C1092 H1083 0.950 . S
C1092 C1091 1.398 . S
C1092 C1093 1.391 . S
C1093 H1081 0.950 . S
C1093 C1089 1.393 . S
C1093 C1092 1.391 . S
C1094 H1084 0.950 . S
C1094 C1095 1.386 . S
C1094 C1096 1.391 . S
C1095 C1094 1.386 . S
C1095 C1099 1.393 . S
C1096 H1085 0.950 . S
C1096 C1094 1.391 . S
C1096 C1097 1.400 . S
C1097 C1091 1.491 . S
C1097 C1096 1.400 . S
C1097 C1098 1.398 . S
C1098 H1086 0.950 . S
C1098 C1097 1.398 . S
C1098 C1099 1.391 . S
C1099 H1087 0.950 . S
C1099 C1095 1.393 . S
C1099 C1098 1.391 . S
H1100 C1108 0.950 . S
H1101 C1113 0.950 . S
H1102 C1110 0.950 . S
H1103 C1112 0.950 . S
H1104 C1114 0.950 . S
H1105 C1116 0.950 . S
H1106 C1118 0.950 . S
H1107 C1119 0.950 . S
C1108 H1100 0.950 . S
C1108 C1109 1.386 . S
C1108 C1110 1.391 . S
C1109 C1108 1.386 . S
C1109 C1113 1.393 . S
C1110 H1102 0.950 . S
C1110 C1108 1.391 . S
C1110 C1111 1.400 . S
C1111 C1110 1.400 . S
C1111 C1112 1.398 . S
C1111 C1117 1.491 . S
C1112 H1103 0.950 . S
C1112 C1111 1.398 . S
C1112 C1113 1.391 . S
C1113 H1101 0.950 . S
C1113 C1109 1.393 . S
C1113 C1112 1.391 . S
C1114 H1104 0.950 . S
C1114 C1115 1.386 . S
C1114 C1116 1.391 . S
C1115 C1114 1.386 . S
C1115 C1119 1.393 . S
C1116 H1105 0.950 . S
C1116 C1114 1.391 . S
C1116 C1117 1.400 . S
C1117 C1111 1.491 . S
C1117 C1116 1.400 . S
C1117 C1118 1.398 . S
C1118 H1106 0.950 . S
C1118 C1117 1.398 . S
C1118 C1119 1.391 . S
C1119 H1107 0.950 . S
C1119 C1115 1.393 . S
C1119 C1118 1.391 . S
H1120 C1128 0.950 . S
H1121 C1133 0.950 . S
H1122 C1130 0.950 . S
H1123 C1132 0.950 . S
H1124 C1134 0.950 . S
H1125 C1136 0.950 . S
H1126 C1138 0.950 . S
H1127 C1139 0.950 1_554 S
C1128 H1120 0.950 . S
C1128 C1129 1.386 . S
C1128 C1130 1.391 . S
C1129 C1128 1.386 . S
C1129 C1133 1.393 . S
C1130 H1122 0.950 . S
C1130 C1128 1.391 . S
C1130 C1131 1.400 . S
C1131 C1130 1.400 . S
C1131 C1132 1.398 . S
C1131 C1137 1.491 . S
C1132 H1123 0.950 . S
C1132 C1131 1.398 . S
C1132 C1133 1.391 . S
C1133 H1121 0.950 . S
C1133 C1129 1.393 . S
C1133 C1132 1.391 . S
C1134 H1124 0.950 . S
C1134 C1135 1.386 . S
C1134 C1136 1.391 . S
C1135 C1134 1.386 . S
C1135 C1139 1.393 . S
C1136 H1125 0.950 . S
C1136 C1134 1.391 . S
C1136 C1137 1.400 . S
C1137 C1131 1.491 . S
C1137 C1136 1.400 . S
C1137 C1138 1.398 . S
C1138 H1126 0.950 . S
C1138 C1137 1.398 . S
C1138 C1139 1.391 . S
C1139 H1127 0.950 1_556 S
C1139 C1135 1.393 . S
C1139 C1138 1.391 . S
H1140 C1148 0.950 . S
H1141 C1153 0.950 . S
H1142 C1150 0.950 . S
H1143 C1152 0.950 . S
H1144 C1154 0.950 . S
H1145 C1156 0.950 . S
H1146 C1158 0.950 . S
H1147 C1159 0.950 . S
C1148 H1140 0.950 . S
C1148 C1149 1.386 . S
C1148 C1150 1.391 . S
C1149 C1148 1.386 . S
C1149 C1153 1.393 . S
C1150 H1142 0.950 . S
C1150 C1148 1.391 . S
C1150 C1151 1.400 . S
C1151 C1150 1.400 . S
C1151 C1152 1.398 . S
C1151 C1157 1.491 . S
C1152 H1143 0.950 . S
C1152 C1151 1.398 . S
C1152 C1153 1.391 . S
C1153 H1141 0.950 . S
C1153 C1149 1.393 . S
C1153 C1152 1.391 . S
C1154 H1144 0.950 . S
C1154 C1155 1.386 . S
C1154 C1156 1.391 . S
C1155 C1154 1.386 . S
C1155 C1159 1.393 . S
C1156 H1145 0.950 . S
C1156 C1154 1.391 . S
C1156 C1157 1.400 . S
C1157 C1151 1.491 . S
C1157 C1156 1.400 . S
C1157 C1158 1.398 . S
C1158 H1146 0.950 . S
C1158 C1157 1.398 . S
C1158 C1159 1.391 . S
C1159 H1147 0.950 . S
C1159 C1155 1.393 . S
C1159 C1158 1.391 . S
H1160 C1168 0.950 . S
H1161 C1173 0.950 . S
H1162 C1170 0.950 . S
H1163 C1172 0.950 . S
H1164 C1174 0.950 . S
H1165 C1176 0.950 . S
H1166 C1178 0.950 . S
H1167 C1179 0.950 . S
C1168 H1160 0.950 . S
C1168 C1169 1.386 . S
C1168 C1170 1.391 . S
C1169 C1168 1.386 . S
C1169 C1173 1.393 . S
C1170 H1162 0.950 . S
C1170 C1168 1.391 . S
C1170 C1171 1.400 . S
C1171 C1170 1.400 . S
C1171 C1172 1.398 . S
C1171 C1177 1.491 . S
C1172 H1163 0.950 . S
C1172 C1171 1.398 . S
C1172 C1173 1.391 . S
C1173 H1161 0.950 . S
C1173 C1169 1.393 . S
C1173 C1172 1.391 . S
C1174 H1164 0.950 . S
C1174 C1175 1.386 . S
C1174 C1176 1.391 . S
C1175 C1174 1.386 . S
C1175 C1179 1.393 . S
C1176 H1165 0.950 . S
C1176 C1174 1.391 . S
C1176 C1177 1.400 . S
C1177 C1171 1.491 . S
C1177 C1176 1.400 . S
C1177 C1178 1.398 . S
C1178 H1166 0.950 . S
C1178 C1177 1.398 . S
C1178 C1179 1.391 . S
C1179 H1167 0.950 . S
C1179 C1175 1.393 . S
C1179 C1178 1.391 . S
H1180 C1188 0.950 . S
H1181 C1193 0.950 1_556 S
H1182 C1190 0.950 . S
H1183 C1192 0.950 . S
H1184 C1194 0.950 . S
H1185 C1196 0.950 . S
H1186 C1198 0.950 . S
H1187 C1199 0.950 . S
C1188 H1180 0.950 . S
C1188 C1189 1.386 . S
C1188 C1190 1.391 . S
C1189 C1188 1.386 . S
C1189 C1193 1.393 . S
C1190 H1182 0.950 . S
C1190 C1188 1.391 . S
C1190 C1191 1.400 . S
C1191 C1190 1.400 . S
C1191 C1192 1.398 . S
C1191 C1197 1.491 . S
C1192 H1183 0.950 . S
C1192 C1191 1.398 . S
C1192 C1193 1.391 . S
C1193 H1181 0.950 1_554 S
C1193 C1189 1.393 . S
C1193 C1192 1.391 . S
C1194 H1184 0.950 . S
C1194 C1195 1.386 . S
C1194 C1196 1.391 . S
C1195 C1194 1.386 . S
C1195 C1199 1.393 . S
C1196 H1185 0.950 . S
C1196 C1194 1.391 . S
C1196 C1197 1.400 . S
C1197 C1191 1.491 . S
C1197 C1196 1.400 . S
C1197 C1198 1.398 . S
C1198 H1186 0.950 . S
C1198 C1197 1.398 . S
C1198 C1199 1.391 . S
C1199 H1187 0.950 . S
C1199 C1195 1.393 . S
C1199 C1198 1.391 . S
H1200 C1208 0.950 . S
H1201 C1213 0.950 . S
H1202 C1210 0.950 . S
H1203 C1212 0.950 . S
H1204 C1214 0.950 . S
H1205 C1216 0.950 . S
H1206 C1218 0.950 . S
H1207 C1219 0.950 . S
C1208 H1200 0.950 . S
C1208 C1209 1.386 . S
C1208 C1210 1.391 . S
C1209 C1208 1.386 . S
C1209 C1213 1.393 . S
C1210 H1202 0.950 . S
C1210 C1208 1.391 . S
C1210 C1211 1.400 . S
C1211 C1210 1.400 . S
C1211 C1212 1.398 . S
C1211 C1217 1.491 . S
C1212 H1203 0.950 . S
C1212 C1211 1.398 . S
C1212 C1213 1.391 . S
C1213 H1201 0.950 . S
C1213 C1209 1.393 . S
C1213 C1212 1.391 . S
C1214 H1204 0.950 . S
C1214 C1215 1.386 . S
C1214 C1216 1.391 . S
C1215 C1214 1.386 . S
C1215 C1219 1.393 . S
C1216 H1205 0.950 . S
C1216 C1214 1.391 . S
C1216 C1217 1.400 . S
C1217 C1211 1.491 . S
C1217 C1216 1.400 . S
C1217 C1218 1.398 . S
C1218 H1206 0.950 . S
C1218 C1217 1.398 . S
C1218 C1219 1.391 . S
C1219 H1207 0.950 . S
C1219 C1215 1.393 . S
C1219 C1218 1.391 . S
H1220 C1228 0.950 . S
H1221 C1233 0.950 . S
H1222 C1230 0.950 . S
H1223 C1232 0.950 . S
H1224 C1234 0.950 . S
H1225 C1236 0.950 . S
H1226 C1238 0.950 . S
H1227 C1239 0.950 . S
C1228 H1220 0.950 . S
C1228 C1229 1.386 . S
C1228 C1230 1.391 . S
C1229 C1228 1.386 . S
C1229 C1233 1.393 . S
C1230 H1222 0.950 . S
C1230 C1228 1.391 . S
C1230 C1231 1.400 . S
C1231 C1230 1.400 . S
C1231 C1232 1.398 . S
C1231 C1237 1.491 . S
C1232 H1223 0.950 . S
C1232 C1231 1.398 . S
C1232 C1233 1.391 . S
C1233 H1221 0.950 . S
C1233 C1229 1.393 . S
C1233 C1232 1.391 . S
C1234 H1224 0.950 . S
C1234 C1235 1.386 . S
C1234 C1236 1.391 . S
C1235 C1234 1.386 . S
C1235 C1239 1.393 . S
C1236 H1225 0.950 . S
C1236 C1234 1.391 . S
C1236 C1237 1.400 . S
C1237 C1231 1.491 . S
C1237 C1236 1.400 . S
C1237 C1238 1.398 . S
C1238 H1226 0.950 . S
C1238 C1237 1.398 . S
C1238 C1239 1.391 . S
C1239 H1227 0.950 . S
C1239 C1235 1.393 . S
C1239 C1238 1.391 . S
H1240 C1248 0.950 . S
H1241 C1253 0.950 . S
H1242 C1250 0.950 . S
H1243 C1252 0.950 . S
H1244 C1254 0.950 . S
H1245 C1256 0.950 . S
H1246 C1258 0.950 . S
H1247 C1259 0.950 . S
C1248 H1240 0.950 . S
C1248 C1249 1.386 . S
C1248 C1250 1.391 . S
C1249 C1248 1.386 . S
C1249 C1253 1.393 . S
C1250 H1242 0.950 . S
C1250 C1248 1.391 . S
C1250 C1251 1.400 . S
C1251 C1250 1.400 . S
C1251 C1252 1.398 . S
C1251 C1257 1.491 . S
C1252 H1243 0.950 . S
C1252 C1251 1.398 . S
C1252 C1253 1.391 . S
C1253 H1241 0.950 . S
C1253 C1249 1.393 . S
C1253 C1252 1.391 . S
C1254 H1244 0.950 . S
C1254 C1255 1.386 . S
C1254 C1256 1.391 . S
C1255 C1254 1.386 . S
C1255 C1259 1.393 . S
C1256 H1245 0.950 . S
C1256 C1254 1.391 . S
C1256 C1257 1.400 . S
C1257 C1251 1.491 . S
C1257 C1256 1.400 . S
C1257 C1258 1.398 . S
C1258 H1246 0.950 . S
C1258 C1257 1.398 . S
C1258 C1259 1.391 . S
C1259 H1247 0.950 . S
C1259 C1255 1.393 . S
C1259 C1258 1.391 . S
H1260 C1268 0.950 . S
H1261 C1273 0.950 . S
H1262 C1270 0.950 . S
H1263 C1272 0.950 . S
H1264 C1274 0.950 . S
H1265 C1276 0.950 . S
H1266 C1278 0.950 . S
H1267 C1279 0.950 . S
C1268 H1260 0.950 . S
C1268 C1269 1.386 . S
C1268 C1270 1.391 . S
C1269 C1268 1.386 . S
C1269 C1273 1.393 . S
C1270 H1262 0.950 . S
C1270 C1268 1.391 . S
C1270 C1271 1.400 . S
C1271 C1270 1.400 . S
C1271 C1272 1.398 . S
C1271 C1277 1.491 . S
C1272 H1263 0.950 . S
C1272 C1271 1.398 . S
C1272 C1273 1.391 . S
C1273 H1261 0.950 . S
C1273 C1269 1.393 . S
C1273 C1272 1.391 . S
C1274 H1264 0.950 . S
C1274 C1275 1.386 . S
C1274 C1276 1.391 . S
C1275 C1274 1.386 . S
C1275 C1279 1.393 . S
C1276 H1265 0.950 . S
C1276 C1274 1.391 . S
C1276 C1277 1.400 . S
C1277 C1271 1.491 . S
C1277 C1276 1.400 . S
C1277 C1278 1.398 . S
C1278 H1266 0.950 . S
C1278 C1277 1.398 . S
C1278 C1279 1.391 . S
C1279 H1267 0.950 . S
C1279 C1275 1.393 . S
C1279 C1278 1.391 . S
H1280 C1288 0.950 . S
H1281 C1293 0.950 . S
H1282 C1290 0.950 . S
H1283 C1292 0.950 . S
H1284 C1294 0.950 . S
H1285 C1296 0.950 . S
H1286 C1298 0.950 . S
H1287 C1299 0.950 . S
C1288 H1280 0.950 . S
C1288 C1289 1.386 . S
C1288 C1290 1.391 . S
C1289 C1288 1.386 . S
C1289 C1293 1.393 . S
C1290 H1282 0.950 . S
C1290 C1288 1.391 . S
C1290 C1291 1.400 . S
C1291 C1290 1.400 . S
C1291 C1292 1.398 . S
C1291 C1297 1.491 . S
C1292 H1283 0.950 . S
C1292 C1291 1.398 . S
C1292 C1293 1.391 . S
C1293 H1281 0.950 . S
C1293 C1289 1.393 . S
C1293 C1292 1.391 . S
C1294 H1284 0.950 . S
C1294 C1295 1.386 . S
C1294 C1296 1.391 . S
C1295 C1294 1.386 . S
C1295 C1299 1.393 . S
C1296 H1285 0.950 . S
C1296 C1294 1.391 . S
C1296 C1297 1.400 . S
C1297 C1291 1.491 . S
C1297 C1296 1.400 . S
C1297 C1298 1.398 . S
C1298 H1286 0.950 . S
C1298 C1297 1.398 . S
C1298 C1299 1.391 . S
C1299 H1287 0.950 . S
C1299 C1295 1.393 . S
C1299 C1298 1.391 . S
H1300 C1308 0.950 . S
H1301 C1313 0.950 . S
H1302 C1310 0.950 . S
H1303 C1312 0.950 . S
H1304 C1314 0.950 . S
H1305 C1316 0.950 . S
H1306 C1318 0.950 . S
H1307 C1319 0.950 . S
C1308 H1300 0.950 . S
C1308 C1309 1.386 . S
C1308 C1310 1.391 . S
C1309 C1308 1.386 . S
C1309 C1313 1.393 . S
C1310 H1302 0.950 . S
C1310 C1308 1.391 . S
C1310 C1311 1.400 . S
C1311 C1310 1.400 . S
C1311 C1312 1.398 . S
C1311 C1317 1.491 . S
C1312 H1303 0.950 . S
C1312 C1311 1.398 . S
C1312 C1313 1.391 . S
C1313 H1301 0.950 . S
C1313 C1309 1.393 . S
C1313 C1312 1.391 . S
C1314 H1304 0.950 . S
C1314 C1315 1.386 . S
C1314 C1316 1.391 . S
C1315 C1314 1.386 . S
C1315 C1319 1.393 . S
C1316 H1305 0.950 . S
C1316 C1314 1.391 . S
C1316 C1317 1.400 . S
C1317 C1311 1.491 . S
C1317 C1316 1.400 . S
C1317 C1318 1.398 . S
C1318 H1306 0.950 . S
C1318 C1317 1.398 . S
C1318 C1319 1.391 . S
C1319 H1307 0.950 . S
C1319 C1315 1.393 . S
C1319 C1318 1.391 . S
H1320 C1328 0.950 . S
H1321 C1333 0.950 . S
H1322 C1330 0.950 . S
H1323 C1332 0.950 . S
H1324 C1334 0.950 . S
H1325 C1336 0.950 . S
H1326 C1338 0.950 . S
H1327 C1339 0.950 . S
C1328 H1320 0.950 . S
C1328 C1329 1.386 . S
C1328 C1330 1.391 . S
C1329 C1328 1.386 . S
C1329 C1333 1.393 . S
C1330 H1322 0.950 . S
C1330 C1328 1.391 . S
C1330 C1331 1.400 . S
C1331 C1330 1.400 . S
C1331 C1332 1.398 . S
C1331 C1337 1.491 . S
C1332 H1323 0.950 . S
C1332 C1331 1.398 . S
C1332 C1333 1.391 . S
C1333 H1321 0.950 . S
C1333 C1329 1.393 . S
C1333 C1332 1.391 . S
C1334 H1324 0.950 . S
C1334 C1335 1.386 . S
C1334 C1336 1.391 . S
C1335 C1334 1.386 . S
C1335 C1339 1.393 . S
C1336 H1325 0.950 . S
C1336 C1334 1.391 . S
C1336 C1337 1.400 . S
C1337 C1331 1.491 . S
C1337 C1336 1.400 . S
C1337 C1338 1.398 . S
C1338 H1326 0.950 . S
C1338 C1337 1.398 . S
C1338 C1339 1.391 . S
C1339 H1327 0.950 . S
C1339 C1335 1.393 . S
C1339 C1338 1.391 . S
H1340 C1348 0.950 . S
H1341 C1353 0.950 . S
H1342 C1350 0.950 . S
H1343 C1352 0.950 . S
H1344 C1354 0.950 . S
H1345 C1356 0.950 . S
H1346 C1358 0.950 . S
H1347 C1359 0.950 . S
C1348 H1340 0.950 . S
C1348 C1349 1.386 . S
C1348 C1350 1.391 . S
C1349 C1348 1.386 . S
C1349 C1353 1.393 . S
C1350 H1342 0.950 . S
C1350 C1348 1.391 . S
C1350 C1351 1.400 . S
C1351 C1350 1.400 . S
C1351 C1352 1.398 . S
C1351 C1357 1.491 . S
C1352 H1343 0.950 . S
C1352 C1351 1.398 . S
C1352 C1353 1.391 . S
C1353 H1341 0.950 . S
C1353 C1349 1.393 . S
C1353 C1352 1.391 . S
C1354 H1344 0.950 . S
C1354 C1355 1.386 . S
C1354 C1356 1.391 . S
C1355 C1354 1.386 . S
C1355 C1359 1.393 . S
C1356 H1345 0.950 . S
C1356 C1354 1.391 . S
C1356 C1357 1.400 . S
C1357 C1351 1.491 . S
C1357 C1356 1.400 . S
C1357 C1358 1.398 . S
C1358 H1346 0.950 . S
C1358 C1357 1.398 . S
C1358 C1359 1.391 . S
C1359 H1347 0.950 . S
C1359 C1355 1.393 . S
C1359 C1358 1.391 . S
H1360 C1368 0.950 . S
H1361 C1373 0.950 . S
H1362 C1370 0.950 . S
H1363 C1372 0.950 . S
H1364 C1374 0.950 . S
H1365 C1376 0.950 . S
H1366 C1378 0.950 . S
H1367 C1379 0.950 . S
C1368 H1360 0.950 . S
C1368 C1369 1.386 . S
C1368 C1370 1.391 . S
C1369 C1368 1.386 . S
C1369 C1373 1.393 . S
C1370 H1362 0.950 . S
C1370 C1368 1.391 . S
C1370 C1371 1.400 . S
C1371 C1370 1.400 . S
C1371 C1372 1.398 . S
C1371 C1377 1.491 . S
C1372 H1363 0.950 . S
C1372 C1371 1.398 . S
C1372 C1373 1.391 . S
C1373 H1361 0.950 . S
C1373 C1369 1.393 . S
C1373 C1372 1.391 . S
C1374 H1364 0.950 . S
C1374 C1375 1.386 . S
C1374 C1376 1.391 . S
C1375 C1374 1.386 . S
C1375 C1379 1.393 . S
C1376 H1365 0.950 . S
C1376 C1374 1.391 . S
C1376 C1377 1.400 . S
C1377 C1371 1.491 . S
C1377 C1376 1.400 . S
C1377 C1378 1.398 . S
C1378 H1366 0.950 . S
C1378 C1377 1.398 . S
C1378 C1379 1.391 . S
C1379 H1367 0.950 . S
C1379 C1375 1.393 . S
C1379 C1378 1.391 . S
H1380 C1388 0.950 . S
H1381 C1393 0.950 . S
H1382 C1390 0.950 . S
H1383 C1392 0.950 . S
H1384 C1394 0.950 . S
H1385 C1396 0.950 . S
H1386 C1398 0.950 . S
H1387 C1399 0.950 . S
C1388 H1380 0.950 . S
C1388 C1389 1.386 . S
C1388 C1390 1.391 . S
C1389 C1388 1.386 . S
C1389 C1393 1.393 . S
C1390 H1382 0.950 . S
C1390 C1388 1.391 . S
C1390 C1391 1.400 . S
C1391 C1390 1.400 . S
C1391 C1392 1.398 . S
C1391 C1397 1.491 . S
C1392 H1383 0.950 . S
C1392 C1391 1.398 . S
C1392 C1393 1.391 . S
C1393 H1381 0.950 . S
C1393 C1389 1.393 . S
C1393 C1392 1.391 . S
C1394 H1384 0.950 . S
C1394 C1395 1.386 . S
C1394 C1396 1.391 . S
C1395 C1394 1.386 . S
C1395 C1399 1.393 . S
C1396 H1385 0.950 . S
C1396 C1394 1.391 . S
C1396 C1397 1.400 . S
C1397 C1391 1.491 . S
C1397 C1396 1.400 . S
C1397 C1398 1.398 . S
C1398 H1386 0.950 . S
C1398 C1397 1.398 . S
C1398 C1399 1.391 . S
C1399 H1387 0.950 . S
C1399 C1395 1.393 . S
C1399 C1398 1.391 . S
H1400 C1408 0.950 . S
H1401 C1413 0.950 . S
H1402 C1410 0.950 . S
H1403 C1412 0.950 . S
H1404 C1414 0.950 . S
H1405 C1416 0.950 . S
H1406 C1418 0.950 . S
H1407 C1419 0.950 . S
C1408 H1400 0.950 . S
C1408 C1409 1.386 . S
C1408 C1410 1.391 . S
C1409 C1408 1.386 . S
C1409 C1413 1.393 . S
C1410 H1402 0.950 . S
C1410 C1408 1.391 . S
C1410 C1411 1.400 . S
C1411 C1410 1.400 . S
C1411 C1412 1.398 . S
C1411 C1417 1.491 . S
C1412 H1403 0.950 . S
C1412 C1411 1.398 . S
C1412 C1413 1.391 . S
C1413 H1401 0.950 . S
C1413 C1409 1.393 . S
C1413 C1412 1.391 . S
C1414 H1404 0.950 . S
C1414 C1415 1.386 . S
C1414 C1416 1.391 . S
C1415 C1414 1.386 . S
C1415 C1419 1.393 . S
C1416 H1405 0.950 . S
C1416 C1414 1.391 . S
C1416 C1417 1.400 . S
C1417 C1411 1.491 . S
C1417 C1416 1.400 . S
C1417 C1418 1.398 . S
C1418 H1406 0.950 . S
C1418 C1417 1.398 . S
C1418 C1419 1.391 . S
C1419 H1407 0.950 . S
C1419 C1415 1.393 . S
C1419 C1418 1.391 . S
H1420 C1428 0.950 . S
H1421 C1433 0.950 . S
H1422 C1430 0.950 . S
H1423 C1432 0.950 . S
H1424 C1434 0.950 . S
H1425 C1436 0.950 . S
H1426 C1438 0.950 . S
H1427 C1439 0.950 . S
C1428 H1420 0.950 . S
C1428 C1429 1.386 . S
C1428 C1430 1.391 . S
C1429 C1428 1.386 . S
C1429 C1433 1.393 . S
C1430 H1422 0.950 . S
C1430 C1428 1.391 . S
C1430 C1431 1.400 . S
C1431 C1430 1.400 . S
C1431 C1432 1.398 . S
C1431 C1437 1.491 . S
C1432 H1423 0.950 . S
C1432 C1431 1.398 . S
C1432 C1433 1.391 . S
C1433 H1421 0.950 . S
C1433 C1429 1.393 . S
C1433 C1432 1.391 . S
C1434 H1424 0.950 . S
C1434 C1435 1.386 . S
C1434 C1436 1.391 . S
C1435 C1434 1.386 . S
C1435 C1439 1.393 . S
C1436 H1425 0.950 . S
C1436 C1434 1.391 . S
C1436 C1437 1.400 . S
C1437 C1431 1.491 . S
C1437 C1436 1.400 . S
C1437 C1438 1.398 . S
C1438 H1426 0.950 . S
C1438 C1437 1.398 . S
C1438 C1439 1.391 . S
C1439 H1427 0.950 . S
C1439 C1435 1.393 . S
C1439 C1438 1.391 . S
H1440 C1448 0.950 . S
H1441 C1453 0.950 . S
H1442 C1450 0.950 . S
H1443 C1452 0.950 . S
H1444 C1454 0.950 . S
H1445 C1456 0.950 . S
H1446 C1458 0.950 . S
H1447 C1459 0.950 . S
C1448 H1440 0.950 . S
C1448 C1449 1.386 1_554 S
C1448 C1450 1.391 . S
C1449 C1448 1.386 1_556 S
C1449 C1453 1.393 1_556 S
C1450 H1442 0.950 . S
C1450 C1448 1.391 . S
C1450 C1451 1.400 . S
C1451 C1450 1.400 . S
C1451 C1452 1.398 . S
C1451 C1457 1.491 . S
C1452 H1443 0.950 . S
C1452 C1451 1.398 . S
C1452 C1453 1.391 . S
C1453 H1441 0.950 . S
C1453 C1449 1.393 1_554 S
C1453 C1452 1.391 . S
C1454 H1444 0.950 . S
C1454 C1455 1.386 . S
C1454 C1456 1.391 . S
C1455 C1454 1.386 . S
C1455 C1459 1.393 . S
C1456 H1445 0.950 . S
C1456 C1454 1.391 . S
C1456 C1457 1.400 . S
C1457 C1451 1.491 . S
C1457 C1456 1.400 . S
C1457 C1458 1.398 . S
C1458 H1446 0.950 . S
C1458 C1457 1.398 . S
C1458 C1459 1.391 . S
C1459 H1447 0.950 . S
C1459 C1455 1.393 . S
C1459 C1458 1.391 . S
H1460 C1468 0.950 . S
H1461 C1473 0.950 . S
H1462 C1470 0.950 . S
H1463 C1472 0.950 . S
H1464 C1474 0.951 1_554 S
H1465 C1476 0.950 . S
H1466 C1478 0.950 . S
H1467 C1479 0.950 . S
C1468 H1460 0.950 . S
C1468 C1469 1.386 . S
C1468 C1470 1.391 . S
C1469 C1468 1.386 . S
C1469 C1473 1.393 . S
C1470 H1462 0.950 . S
C1470 C1468 1.391 . S
C1470 C1471 1.400 . S
C1471 C1470 1.400 . S
C1471 C1472 1.398 . S
C1471 C1477 1.491 . S
C1472 H1463 0.950 . S
C1472 C1471 1.398 . S
C1472 C1473 1.391 . S
C1473 H1461 0.950 . S
C1473 C1469 1.393 . S
C1473 C1472 1.391 . S
C1474 H1464 0.951 1_556 S
C1474 C1475 1.386 1_556 S
C1474 C1476 1.391 . S
C1475 C1474 1.386 1_554 S
C1475 C1479 1.393 1_554 S
C1476 H1465 0.950 . S
C1476 C1474 1.391 . S
C1476 C1477 1.400 . S
C1477 C1471 1.491 . S
C1477 C1476 1.400 . S
C1477 C1478 1.398 . S
C1478 H1466 0.950 . S
C1478 C1477 1.398 . S
C1478 C1479 1.391 . S
C1479 H1467 0.950 . S
C1479 C1475 1.393 1_556 S
C1479 C1478 1.391 . S
H1480 C1488 0.950 . S
H1481 C1493 0.950 . S
H1482 C1490 0.950 . S
H1483 C1492 0.950 . S
H1484 C1494 0.950 . S
H1485 C1496 0.950 . S
H1486 C1498 0.950 . S
H1487 C1499 0.951 . S
C1488 H1480 0.950 . S
C1488 C1489 1.386 . S
C1488 C1490 1.391 . S
C1489 C1488 1.386 . S
C1489 C1493 1.393 . S
C1490 H1482 0.950 . S
C1490 C1488 1.391 . S
C1490 C1491 1.400 . S
C1491 C1490 1.400 . S
C1491 C1492 1.398 . S
C1491 C1497 1.491 . S
C1492 H1483 0.950 . S
C1492 C1491 1.398 . S
C1492 C1493 1.391 . S
C1493 H1481 0.950 . S
C1493 C1489 1.393 . S
C1493 C1492 1.391 . S
C1494 H1484 0.950 . S
C1494 C1495 1.386 1_554 S
C1494 C1496 1.391 . S
C1495 C1494 1.386 1_556 S
C1495 C1499 1.393 1_556 S
C1496 H1485 0.950 . S
C1496 C1494 1.391 . S
C1496 C1497 1.400 . S
C1497 C1491 1.491 . S
C1497 C1496 1.400 . S
C1497 C1498 1.398 . S
C1498 H1486 0.950 . S
C1498 C1497 1.398 . S
C1498 C1499 1.391 . S
C1499 H1487 0.951 . S
C1499 C1495 1.393 1_554 S
C1499 C1498 1.391 . S
H1500 C1508 0.950 . S
H1501 C1513 0.950 1_554 S
H1502 C1510 0.950 . S
H1503 C1512 0.950 . S
H1504 C1514 0.950 . S
H1505 C1516 0.950 . S
H1506 C1518 0.950 . S
H1507 C1519 0.950 . S
C1508 H1500 0.950 . S
C1508 C1509 1.386 1_556 S
C1508 C1510 1.391 . S
C1509 C1508 1.386 1_554 S
C1509 C1513 1.393 1_554 S
C1510 H1502 0.950 . S
C1510 C1508 1.391 . S
C1510 C1511 1.400 . S
C1511 C1510 1.400 . S
C1511 C1512 1.398 . S
C1511 C1517 1.491 . S
C1512 H1503 0.950 . S
C1512 C1511 1.398 . S
C1512 C1513 1.391 . S
C1513 H1501 0.950 1_556 S
C1513 C1509 1.393 1_556 S
C1513 C1512 1.391 . S
C1514 H1504 0.950 . S
C1514 C1515 1.386 . S
C1514 C1516 1.391 . S
C1515 C1514 1.386 . S
C1515 C1519 1.393 . S
C1516 H1505 0.950 . S
C1516 C1514 1.391 . S
C1516 C1517 1.400 . S
C1517 C1511 1.491 . S
C1517 C1516 1.400 . S
C1517 C1518 1.398 . S
C1518 H1506 0.950 . S
C1518 C1517 1.398 . S
C1518 C1519 1.391 . S
C1519 H1507 0.950 . S
C1519 C1515 1.393 . S
C1519 C1518 1.391 . S
H1520 C1528 0.950 . S
H1521 C1533 0.950 . S
H1522 C1530 0.950 . S
H1523 C1532 0.950 . S
H1524 C1534 0.950 1_556 S
H1525 C1536 0.950 . S
H1526 C1538 0.950 . S
H1527 C1539 0.950 . S
C1528 H1520 0.950 . S
C1528 C1529 1.386 . S
C1528 C1530 1.391 . S
C1529 C1528 1.386 . S
C1529 C1533 1.393 . S
C1530 H1522 0.950 . S
C1530 C1528 1.391 . S
C1530 C1531 1.400 . S
C1531 C1530 1.400 . S
C1531 C1532 1.398 . S
C1531 C1537 1.491 . S
C1532 H1523 0.950 . S
C1532 C1531 1.398 . S
C1532 C1533 1.391 . S
C1533 H1521 0.950 . S
C1533 C1529 1.393 . S
C1533 C1532 1.391 . S
C1534 H1524 0.950 1_554 S
C1534 C1535 1.386 1_554 S
C1534 C1536 1.391 . S
C1535 C1534 1.386 1_556 S
C1535 C1539 1.393 1_556 S
C1536 H1525 0.950 . S
C1536 C1534 1.391 . S
C1536 C1537 1.400 . S
C1537 C1531 1.491 . S
C1537 C1536 1.400 . S
C1537 C1538 1.398 . S
C1538 H1526 0.950 . S
C1538 C1537 1.398 . S
C1538 C1539 1.391 . S
C1539 H1527 0.950 . S
C1539 C1535 1.393 1_554 S
C1539 C1538 1.391 . S
H1540 C1548 0.950 1_554 S
H1541 C1553 0.950 . S
H1542 C1550 0.950 . S
H1543 C1552 0.950 . S
H1544 C1554 0.950 . S
H1545 C1556 0.950 . S
H1546 C1558 0.950 . S
H1547 C1559 0.950 . S
C1548 H1540 0.950 1_556 S
C1548 C1549 1.386 1_556 S
C1548 C1550 1.391 . S
C1549 C1548 1.386 1_554 S
C1549 C1553 1.393 1_554 S
C1550 H1542 0.950 . S
C1550 C1548 1.391 . S
C1550 C1551 1.400 . S
C1551 C1550 1.400 . S
C1551 C1552 1.398 . S
C1551 C1557 1.491 . S
C1552 H1543 0.950 . S
C1552 C1551 1.398 . S
C1552 C1553 1.391 . S
C1553 H1541 0.950 . S
C1553 C1549 1.393 1_556 S
C1553 C1552 1.391 . S
C1554 H1544 0.950 . S
C1554 C1555 1.386 . S
C1554 C1556 1.391 . S
C1555 C1554 1.386 . S
C1555 C1559 1.393 . S
C1556 H1545 0.950 . S
C1556 C1554 1.391 . S
C1556 C1557 1.400 . S
C1557 C1551 1.491 . S
C1557 C1556 1.400 . S
C1557 C1558 1.398 . S
C1558 H1546 0.950 . S
C1558 C1557 1.398 . S
C1558 C1559 1.391 . S
C1559 H1547 0.950 . S
C1559 C1555 1.393 . S
C1559 C1558 1.391 . S
H1560 C1568 0.950 1_556 S
H1561 C1573 0.950 . S
H1562 C1570 0.950 . S
H1563 C1572 0.950 . S
H1564 C1574 0.950 . S
H1565 C1576 0.950 . S
H1566 C1578 0.950 . S
H1567 C1579 0.950 . S
C1568 H1560 0.950 1_554 S
C1568 C1569 1.386 1_554 S
C1568 C1570 1.391 . S
C1569 C1568 1.386 1_556 S
C1569 C1573 1.393 1_556 S
C1570 H1562 0.950 . S
C1570 C1568 1.391 . S
C1570 C1571 1.400 . S
C1571 C1570 1.400 . S
C1571 C1572 1.398 . S
C1571 C1577 1.491 . S
C1572 H1563 0.950 . S
C1572 C1571 1.398 . S
C1572 C1573 1.391 . S
C1573 H1561 0.950 . S
C1573 C1569 1.393 1_554 S
C1573 C1572 1.391 . S
C1574 H1564 0.950 . S
C1574 C1575 1.386 . S
C1574 C1576 1.391 . S
C1575 C1574 1.386 . S
C1575 C1579 1.393 . S
C1576 H1565 0.950 . S
C1576 C1574 1.391 . S
C1576 C1577 1.400 . S
C1577 C1571 1.491 . S
C1577 C1576 1.400 . S
C1577 C1578 1.398 . S
C1578 H1566 0.950 . S
C1578 C1577 1.398 . S
C1578 C1579 1.391 . S
C1579 H1567 0.950 . S
C1579 C1575 1.393 . S
C1579 C1578 1.391 . S
H1580 C1588 0.950 . S
H1581 C1593 0.950 . S
H1582 C1590 0.950 . S
H1583 C1592 0.950 . S
H1584 C1594 0.950 1_554 S
H1585 C1596 0.950 . S
H1586 C1598 0.950 . S
H1587 C1599 0.950 . S
C1588 H1580 0.950 . S
C1588 C1589 1.386 . S
C1588 C1590 1.391 . S
C1589 C1588 1.386 . S
C1589 C1593 1.393 . S
C1590 H1582 0.950 . S
C1590 C1588 1.391 . S
C1590 C1591 1.400 . S
C1591 C1590 1.400 . S
C1591 C1592 1.398 . S
C1591 C1597 1.491 . S
C1592 H1583 0.950 . S
C1592 C1591 1.398 . S
C1592 C1593 1.391 . S
C1593 H1581 0.950 . S
C1593 C1589 1.393 . S
C1593 C1592 1.391 . S
C1594 H1584 0.950 1_556 S
C1594 C1595 1.386 1_556 S
C1594 C1596 1.391 . S
C1595 C1594 1.386 1_554 S
C1595 C1599 1.393 1_554 S
C1596 H1585 0.950 . S
C1596 C1594 1.391 . S
C1596 C1597 1.400 . S
C1597 C1591 1.491 . S
C1597 C1596 1.400 . S
C1597 C1598 1.398 . S
C1598 H1586 0.950 . S
C1598 C1597 1.398 . S
C1598 C1599 1.391 . S
C1599 H1587 0.950 . S
C1599 C1595 1.393 1_556 S
C1599 C1598 1.391 . S
C649 C459 1.718 . S
C655 C18 1.723 . S
C669 C330 1.704 . S
C675 C49 1.711 . S
C689 C98 1.722 . S
C695 C379 1.718 . S
C709 C129 1.728 . S
C715 C410 1.720 . S
C729 C178 1.728 . S
C735 C219 1.718 . S
C749 C250 1.702 . S
C755 C209 1.710 . S
C769 C258 1.718 . S
C775 C299 1.704 . S
C789 C170 1.713 . S
C795 C289 1.725 . S
C809 C139 1.719 . S
C815 C338 1.728 . S
C829 C369 1.714 . S
C835 C10 1.701 . S
C849 C59 1.714 . S
C855 C418 1.718 . S
C869 C90 1.704 . S
C875 C449 1.711 . S
C889 C498 1.720 . S
C895 C539 1.707 . S
C909 C570 1.707 . S
C915 C529 1.720 . S
C929 C619 1.712 . S
C935 C578 1.717 . S
C949 C609 1.720 . S
C955 C490 1.715 . S
C969 C9 1.145 . S
C975 C169 1.148 . S
C989 C218 1.178 . S
C995 C58 1.186 . S
C1009 C89 1.174 . S
C1015 C249 1.159 . S
C1029 C138 1.166 . S
C1035 C298 1.180 . S
C1049 C329 1.179 . S
C1055 C489 1.165 . S
C1069 C538 1.178 . S
C1075 C378 1.186 . S
C1089 C409 1.153 . S
C1095 C569 1.168 . S
C1109 C458 1.186 . S
C1115 C618 1.180 . S
C1129 C579 2.318 . S
C1135 C19 2.323 1_556 S
C1149 C50 2.323 1_554 S
C1155 C610 2.323 . S
C1169 C99 2.323 1_556 S
C1175 C499 2.323 . S
C1189 C130 2.324 1_554 S
C1195 C530 2.322 . S
C1209 C179 2.323 . S
C1215 C419 2.320 . S
C1229 C210 2.320 . S
C1235 C450 2.324 . S
C1249 C259 2.313 . S
C1255 C339 2.312 . S
C1269 C370 2.323 . S
C1275 C290 2.318 . S
C1289 C6 1.054 . S
C1295 C15 1.054 . S
C1309 C55 1.066 . S
C1315 C46 1.066 . S
C1329 C86 1.054 . S
C1335 C95 1.054 . S
C1349 C126 1.058 . S
C1355 C135 1.058 . S
C1369 C175 1.061 . S
C1375 C166 1.061 . S
C1389 C215 1.062 . S
C1395 C206 1.062 . S
C1409 C246 1.057 . S
C1415 C255 1.057 . S
C1429 C286 1.061 . S
C1435 C295 1.061 . S
C1449 C326 1.055 . S
C1455 C335 1.055 . S
C1469 C366 1.066 . S
C1475 C375 1.066 . S
C1489 C415 1.066 . S
C1495 C406 1.066 . S
C1509 C455 1.065 . S
C1515 C446 1.065 . S
C1529 C486 1.055 . S
C1535 C495 1.055 . S
C1549 C526 1.065 . S
C1555 C535 1.065 . S
C1569 C575 1.066 . S
C1575 C566 1.066 . S
C1589 C615 1.066 . S
C1595 C606 1.066 . S
