# Generated by pormake.
# Topology sml, (6)-cn, num edge types: 1
# Building blocks:
#     Node 0, Type 0, BuildingBlock: BETDAH_clean_sbu_0, # of connection points: 6
#     Node 1, Type 0, BuildingBlock: BETDAH_clean_sbu_0, # of connection points: 6
#     Node 2, Type 0, BuildingBlock: BETDAH_clean_sbu_0, # of connection points: 6
#     Node 3, Type 0, BuildingBlock: BETDAH_clean_sbu_0, # of connection points: 6
#     Node 4, Type 0, BuildingBlock: BETDAH_clean_sbu_0, # of connection points: 6
#     Node 5, Type 0, BuildingBlock: BETDAH_clean_sbu_0, # of connection points: 6
#     Edge 6, Type (0, 0), BuildingBlock: OJICUG_clean_linker_0, # of connection points: 2
#     Edge 7, Type (0, 0), BuildingBlock: OJICUG_clean_linker_0, # of connection points: 2
#     Edge 8, Type (0, 0), BuildingBlock: OJICUG_clean_linker_0, # of connection points: 2
#     Edge 9, Type (0, 0), BuildingBlock: OJICUG_clean_linker_0, # of connection points: 2
#     Edge 10, Type (0, 0), BuildingBlock: OJICUG_clean_linker_0, # of connection points: 2
#     Edge 11, Type (0, 0), BuildingBlock: OJICUG_clean_linker_0, # of connection points: 2
#     Edge 12, Type (0, 0), BuildingBlock: OJICUG_clean_linker_0, # of connection points: 2
#     Edge 13, Type (0, 0), BuildingBlock: OJICUG_clean_linker_0, # of connection points: 2
#     Edge 14, Type (0, 0), BuildingBlock: OJICUG_clean_linker_0, # of connection points: 2
#     Edge 15, Type (0, 0), BuildingBlock: OJICUG_clean_linker_0, # of connection points: 2
#     Edge 16, Type (0, 0), BuildingBlock: OJICUG_clean_linker_0, # of connection points: 2
#     Edge 17, Type (0, 0), BuildingBlock: OJICUG_clean_linker_0, # of connection points: 2
#     Edge 18, Type (0, 0), BuildingBlock: OJICUG_clean_linker_0, # of connection points: 2
#     Edge 19, Type (0, 0), BuildingBlock: OJICUG_clean_linker_0, # of connection points: 2
#     Edge 20, Type (0, 0), BuildingBlock: OJICUG_clean_linker_0, # of connection points: 2
#     Edge 21, Type (0, 0), BuildingBlock: OJICUG_clean_linker_0, # of connection points: 2
#     Edge 22, Type (0, 0), BuildingBlock: OJICUG_clean_linker_0, # of connection points: 2
#     Edge 23, Type (0, 0), BuildingBlock: OJICUG_clean_linker_0, # of connection points: 2
# Relax obj value: 0.252
# Max RMSD: 0.268
# Mean RMSD: 0.268
data_MOF--net-sml--node1-BETDAH_clean_sbu_0--edge1-OJICUG_clean_linker_0
_symmetry_space_group_name_H-M    P1
_symmetry_Int_Tables_number       1
_symmetry_cell_setting            triclinic
loop_
_symmetry_equiv_pos_as_xyz
'x, y, z'
_cell_length_a     21.098555
_cell_length_b     21.00479
_cell_length_c     20.477982
_cell_angle_alpha  90.050993
_cell_angle_beta   90.296452
_cell_angle_gamma 119.89574
loop_
_atom_site_label
_atom_site_type_symbol
_atom_site_fract_x
_atom_site_fract_y
_atom_site_fract_z
_atom_type_partial_charge
Ho0 Ho 0.14924 0.43628 0.14638 0.0
Ho1 Ho 0.23244 0.40123 0.25695 0.0
C2 C 0.18985 0.30461 0.12969 0.0
C3 C 0.12168 0.47248 0.03374 0.0
C4 C 0.14054 0.46527 0.96557 0.0
C5 C 0.17444 0.52758 0.9255 0.0
C6 C 0.19422 0.52208 0.86141 0.0
C7 C 0.18083 0.4541 0.83618 0.0
C8 C 0.14698 0.39182 0.8765 0.0
C9 C 0.12687 0.39729 0.94035 0.0
C10 C 0.06416 0.35171 0.24327 0.0
C11 C 0.18497 0.52692 0.27891 0.0
C12 C 0.27506 0.37497 0.36702 0.0
C13 C 0.26727 0.39059 0.43607 0.0
C14 C 0.24423 0.3344 0.48241 0.0
C15 C 0.23343 0.34702 0.54743 0.0
C16 C 0.24584 0.41643 0.56777 0.0
C17 C 0.26944 0.47286 0.52112 0.0
C18 C 0.27982 0.46005 0.456 0.0
C19 C 0.31181 0.48195 0.15507 0.0
O20 O 0.1759 0.35353 0.10198 0.0
O21 O 0.20353 0.30532 0.19279 0.0
O22 O 0.07603 0.41178 0.06405 0.0
O23 O 0.17642 0.51791 0.07096 0.0
O24 O 0.04743 0.39206 0.20699 0.0
O25 O 0.1198 0.35163 0.22107 0.0
O26 O 0.20833 0.48385 0.30298 0.0
O27 O 0.16345 0.52378 0.21753 0.0
O28 O 0.31684 0.43144 0.33023 0.0
O29 O 0.21473 0.32714 0.3373 0.0
O30 O 0.3253 0.43561 0.1854 0.0
O31 O 0.26115 0.48612 0.18315 0.0
H32 H 0.18595 0.5807 0.94392 0.0
H33 H 0.22082 0.57123 0.83188 0.0
H34 H 0.13498 0.33847 0.85836 0.0
H35 H 0.10053 0.3482 0.96988 0.0
H36 H 0.23363 0.28026 0.4681 0.0
H37 H 0.21389 0.30176 0.58145 0.0
H38 H 0.28039 0.52723 0.53488 0.0
H39 H 0.29727 0.50446 0.42128 0.0
Ho40 Ho 0.83314 0.27664 0.58449 0.0
Ho41 Ho 0.74869 0.15903 0.47399 0.0
C42 C 0.79105 0.10404 0.60081 0.0
C43 C 0.86131 0.33923 0.6977 0.0
C44 C 0.84079 0.31208 0.76563 0.0
C45 C 0.78279 0.31471 0.79672 0.0
C46 C 0.76196 0.28753 0.86011 0.0
C47 C 0.79889 0.25738 0.89408 0.0
C48 C 0.85748 0.25567 0.86325 0.0
C49 C 0.87825 0.28275 0.79993 0.0
C50 C 0.91754 0.2773 0.48705 0.0
C51 C 0.79847 0.33278 0.45243 0.0
C52 C 0.70317 0.08911 0.36442 0.0
C53 C 0.71173 0.1101 0.29437 0.0
C54 C 0.76381 0.10431 0.25621 0.0
C55 C 0.77379 0.12554 0.1907 0.0
C56 C 0.73148 0.15255 0.16131 0.0
C57 C 0.67837 0.1571 0.19914 0.0
C58 C 0.66849 0.136 0.26485 0.0
C59 C 0.67037 0.16127 0.57647 0.0
O60 O 0.80544 0.16699 0.62868 0.0
O61 O 0.77697 0.09118 0.53772 0.0
O62 O 0.90607 0.3229 0.66744 0.0
O63 O 0.80827 0.33296 0.65973 0.0
O64 O 0.93477 0.33415 0.52395 0.0
O65 O 0.86185 0.22137 0.50903 0.0
O66 O 0.77564 0.2666 0.42768 0.0
O67 O 0.81898 0.35038 0.51412 0.0
O68 O 0.664 0.10813 0.40031 0.0
O69 O 0.76188 0.09819 0.395 0.0
O70 O 0.65619 0.10118 0.54618 0.0
O71 O 0.72109 0.21571 0.54817 0.0
H72 H 0.75307 0.33737 0.77186 0.0
H73 H 0.71626 0.28924 0.88216 0.0
H74 H 0.88803 0.23413 0.8884 0.0
H75 H 0.92364 0.28046 0.77793 0.0
H76 H 0.79764 0.08411 0.27723 0.0
H77 H 0.81584 0.12211 0.16343 0.0
H78 H 0.644 0.17652 0.17788 0.0
H79 H 0.62713 0.14032 0.29246 0.0
Ho80 Ho 0.55536 0.6903 0.79687 0.0
Ho81 Ho 0.60699 0.81037 0.90742 0.0
C82 C 0.68882 0.8604 0.77397 0.0
C83 C 0.51418 0.62241 0.68598 0.0
C84 C 0.52737 0.64483 0.61672 0.0
C85 C 0.46905 0.6151 0.57191 0.0
C86 C 0.48022 0.63766 0.50657 0.0
C87 C 0.55012 0.69073 0.48471 0.0
C88 C 0.60852 0.71981 0.5299 0.0
C89 C 0.59733 0.697 0.59501 0.0
C90 C 0.64181 0.68297 0.89072 0.0
C91 C 0.46969 0.64384 0.93106 0.0
C92 C 0.64594 0.8764 1.01912 0.0
C93 C 0.62947 0.85062 0.08734 0.0
C94 C 0.68487 0.88103 0.13488 0.0
C95 C 0.67116 0.85474 0.19901 0.0
C96 C 0.60161 0.79737 0.21696 0.0
C97 C 0.54599 0.76739 0.16922 0.0
C98 C 0.55982 0.79365 0.1051 0.0
C99 C 0.51998 0.81525 0.81337 0.0
O100 O 0.63603 0.79775 0.74899 0.0
O101 O 0.69629 0.87398 0.83739 0.0
O102 O 0.57042 0.62951 0.71948 0.0
O103 O 0.47481 0.64362 0.71891 0.0
O104 O 0.59281 0.62664 0.85801 0.0
O105 O 0.64679 0.74059 0.86671 0.0
O106 O 0.52178 0.70691 0.95514 0.0
O107 O 0.46589 0.62517 0.86872 0.0
O108 O 0.59167 0.87204 0.98423 0.0
O109 O 0.68561 0.85523 0.98674 0.0
O110 O 0.57115 0.87372 0.84218 0.0
O111 O 0.5147 0.75847 0.83918 0.0
H112 H 0.4147 0.57461 0.5876 0.0
H113 H 0.43413 0.61311 0.47316 0.0
H114 H 0.66288 0.76145 0.51542 0.0
H115 H 0.64338 0.72085 0.6285 0.0
H116 H 0.739 0.92487 0.12226 0.0
H117 H 0.71498 0.87975 0.2347 0.0
H118 H 0.49208 0.72265 0.18107 0.0
H119 H 0.51614 0.76894 0.06934 0.0
Ho120 Ho 0.69504 0.5711 0.26172 0.0
Ho121 Ho 0.81158 0.61221 0.15079 0.0
C122 C 0.8676 0.70026 0.28224 0.0
C123 C 0.62618 0.53588 0.37151 0.0
C124 C 0.64798 0.54976 0.44085 0.0
C125 C 0.61024 0.49462 0.48715 0.0
C126 C 0.63287 0.50576 0.55257 0.0
C127 C 0.69381 0.57238 0.57282 0.0
C128 C 0.73044 0.62806 0.52634 0.0
C129 C 0.70791 0.61673 0.46104 0.0
C130 C 0.68818 0.65296 0.16343 0.0
C131 C 0.64377 0.47727 0.1302 0.0
C132 C 0.87693 0.64771 0.03951 0.0
C133 C 0.85108 0.63488 0.97118 0.0
C134 C 0.88782 0.69003 0.92469 0.0
C135 C 0.86202 0.68019 0.86031 0.0
C136 C 0.79888 0.61481 0.84113 0.0
C137 C 0.76227 0.55962 0.88805 0.0
C138 C 0.78802 0.56961 0.95239 0.0
C139 C 0.8127 0.52578 0.24748 0.0
O140 O 0.80452 0.65097 0.30864 0.0
O141 O 0.87958 0.70335 0.21885 0.0
O142 O 0.63723 0.59297 0.33701 0.0
O143 O 0.64467 0.49312 0.34038 0.0
O144 O 0.6326 0.60794 0.19841 0.0
O145 O 0.74544 0.65775 0.18792 0.0
O146 O 0.7065 0.52693 0.10447 0.0
O147 O 0.62723 0.47787 0.1925 0.0
O148 O 0.86666 0.59007 0.07279 0.0
O149 O 0.86141 0.69119 0.07304 0.0
O150 O 0.87168 0.5733 0.21744 0.0
O151 O 0.75755 0.52341 0.22139 0.0
H152 H 0.56396 0.44244 0.47249 0.0
H153 H 0.6038 0.46144 0.58688 0.0
H154 H 0.77668 0.6805 0.54036 0.0
H155 H 0.73774 0.66019 0.42623 0.0
H156 H 0.93614 0.74109 0.93835 0.0
H157 H 0.89102 0.72434 0.82585 0.0
H158 H 0.71414 0.50819 0.87499 0.0
H159 H 0.75855 0.52622 0.98734 0.0
Ho160 Ho 0.28903 0.86268 0.47364 0.0
Ho161 Ho 0.17221 0.78895 0.5848 0.0
C162 C 0.11727 0.82188 0.45313 0.0
C163 C 0.35811 0.89504 0.36394 0.0
C164 C 0.3369 0.88906 0.29455 0.0
C165 C 0.3737 0.87094 0.24779 0.0
C166 C 0.35153 0.86123 0.18225 0.0
C167 C 0.29184 0.86915 0.16244 0.0
C168 C 0.25619 0.8889 0.20935 0.0
C169 C 0.27851 0.89878 0.27471 0.0
C170 C 0.29671 0.9524 0.57134 0.0
C171 C 0.33958 0.82058 0.60556 0.0
C172 C 0.10727 0.76082 0.69625 0.0
C173 C 0.13331 0.77418 0.76455 0.0
C174 C 0.09658 0.79254 0.81112 0.0
C175 C 0.12263 0.80897 0.87541 0.0
C176 C 0.1861 0.80739 0.8944 0.0
C177 C 0.2227 0.78883 0.84742 0.0
C178 C 0.19661 0.77247 0.78319 0.0
C179 C 0.17034 0.70045 0.48857 0.0
O180 O 0.18014 0.83499 0.42673 0.0
O181 O 0.10502 0.81274 0.51649 0.0
O182 O 0.34951 0.94223 0.39915 0.0
O183 O 0.33679 0.83279 0.39426 0.0
O184 O 0.35223 0.96204 0.53677 0.0
O185 O 0.23918 0.90014 0.54695 0.0
O186 O 0.27708 0.80829 0.63122 0.0
O187 O 0.35607 0.8369 0.54316 0.0
O188 O 0.11659 0.71263 0.66325 0.0
O189 O 0.12358 0.8198 0.66239 0.0
O190 O 0.11139 0.68969 0.51825 0.0
O191 O 0.22563 0.75305 0.51471 0.0
H192 H 0.41885 0.86311 0.26216 0.0
H193 H 0.37981 0.8455 0.14746 0.0
H194 H 0.21081 0.89657 0.19557 0.0
H195 H 0.2497 0.91341 0.30985 0.0
H196 H 0.04805 0.79487 0.79758 0.0
H197 H 0.09359 0.82399 0.90998 0.0
H198 H 0.27106 0.78599 0.8604 0.0
H199 H 0.22602 0.7585 0.74821 0.0
Ho200 Ho 0.43111 0.13281 0.93552 0.0
Ho201 Ho 0.38095 0.20205 0.82469 0.0
C202 C 0.29695 0.16811 0.95682 0.0
C203 C 0.47205 0.10807 0.04716 0.0
C204 C 0.46461 0.12604 0.11525 0.0
C205 C 0.45469 0.18585 0.12986 0.0
C206 C 0.44475 0.20071 0.19446 0.0
C207 C 0.44404 0.15572 0.24569 0.0
C208 C 0.45463 0.09619 0.23069 0.0
C209 C 0.46473 0.08151 0.16609 0.0
C210 C 0.34543 0.03864 0.84171 0.0
C211 C 0.5161 0.16981 0.80121 0.0
C212 C 0.34522 0.23348 0.7133 0.0
C213 C 0.36155 0.22441 0.64505 0.0
C214 C 0.38142 0.17179 0.62885 0.0
C215 C 0.39583 0.16239 0.5641 0.0
C216 C 0.39153 0.20607 0.51419 0.0
C217 C 0.37357 0.26021 0.53079 0.0
C218 C 0.35847 0.26909 0.59571 0.0
C219 C 0.46637 0.2931 0.92032 0.0
O220 O 0.35052 0.1601 0.98233 0.0
O221 O 0.28991 0.17398 0.89332 0.0
O222 O 0.41109 0.06095 1.01791 0.0
O223 O 0.51458 0.1637 1.00982 0.0
O224 O 0.39328 0.03072 0.87565 0.0
O225 O 0.34061 0.09184 0.86467 0.0
O226 O 0.46476 0.18181 0.77718 0.0
O227 O 0.51974 0.1549 0.86351 0.0
O228 O 0.40095 0.28106 0.74827 0.0
O229 O 0.30345 0.17272 0.74519 0.0
O230 O 0.41541 0.30031 0.89119 0.0
O231 O 0.47212 0.24204 0.89417 0.0
H232 H 0.45366 0.22051 0.09122 0.0
H233 H 0.43581 0.24634 0.20404 0.0
H234 H 0.45531 0.06095 0.26894 0.0
H235 H 0.4721 0.035 0.15578 0.0
H236 H 0.38564 0.13779 0.66629 0.0
H237 H 0.41095 0.12128 0.55312 0.0
H238 H 0.36982 0.29468 0.49343 0.0
H239 H 0.34418 0.31066 0.60735 0.0
C240 C 0.26096 0.18247 0.06946 0.0
C241 C 0.25325 0.18589 1.00154 0.0
H242 H 0.24593 0.2165 0.16358 0.0
C243 C 0.21318 0.21785 0.97722 0.0
H244 H 0.29098 0.15766 0.08985 0.0
C245 C 0.18773 0.2521 1.01956 0.0
C246 C 0.20135 0.25456 0.087 0.0
H247 H 0.20585 0.22115 0.92519 0.0
H248 H 0.16117 0.28022 0.99893 0.0
C249 C 0.23505 0.21629 0.11181 0.0
C250 C 0.95101 0.27822 0.30688 0.0
C251 C 0.02755 0.31924 0.30512 0.0
H252 H 0.85581 0.22991 0.36663 0.0
C253 C 0.06738 0.33812 0.36382 0.0
H254 H 0.91921 0.26388 0.26206 0.0
C255 C 0.0311 0.32069 0.42355 0.0
C256 C 0.95452 0.28192 0.42532 0.0
H257 H 0.12613 0.3709 0.364 0.0
H258 H 0.06284 0.34004 0.46831 0.0
C259 C 0.91474 0.2585 0.36667 0.0
C260 C 0.74687 0.97059 0.61865 0.0
C261 C 0.78018 0.04264 0.64341 0.0
H262 H 0.69264 0.85611 0.64062 0.0
C263 C 0.79457 0.05409 0.71078 0.0
H264 H 0.73542 0.95975 0.56695 0.0
C265 C 0.77052 0.99445 0.75306 0.0
C266 C 0.73102 0.92217 0.72887 0.0
H267 H 0.82087 0.10896 0.73142 0.0
H268 H 0.77856 0.00526 0.80506 0.0
C269 C 0.72233 0.91096 0.66099 0.0
C270 C 0.60716 0.61522 0.99476 0.0
C271 C 0.65839 0.67609 0.9594 0.0
H272 H 0.57393 0.56388 0.08736 0.0
C273 C 0.72131 0.73052 0.99142 0.0
H274 H 0.55873 0.57203 0.97131 0.0
C275 C 0.73215 0.72377 0.05828 0.0
C276 C 0.67901 0.66374 0.09371 0.0
H277 H 0.76179 0.77782 0.96483 0.0
H278 H 0.78108 0.7657 0.0824 0.0
C279 C 0.61607 0.61042 0.06137 0.0
C280 C 0.98327 0.77328 0.43523 0.0
C281 C 0.0544 0.80515 0.4096 0.0
H282 H 0.86845 0.71541 0.41525 0.0
C283 C 0.06321 0.81172 0.34157 0.0
H284 H 0.97418 0.76742 0.48742 0.0
C285 C 0.00223 0.78247 0.3001 0.0
C286 C 0.93098 0.74517 0.32573 0.0
H287 H 0.117 0.83614 0.32008 0.0
H288 H 0.01125 0.78532 0.24791 0.0
C289 C 0.92229 0.74328 0.39376 0.0
C290 C 0.26574 0.00478 0.74101 0.0
C291 C 0.328 0.01268 0.77373 0.0
H292 H 0.20558 0.97745 0.6501 0.0
C293 C 0.37764 -0.00074 0.73985 0.0
H294 H 0.22655 0.01461 0.76647 0.0
C295 C 0.36796 0.98245 0.67379 0.0
C296 C 0.30575 0.97355 0.64074 0.0
H297 H 0.42555 0.00405 0.76392 0.0
H298 H 0.40914 0.97556 0.64874 0.0
C299 C 0.2539 0.98383 0.67485 0.0
C300 C 0.18661 0.48293 0.71631 0.0
C301 C 0.20095 0.4476 0.76783 0.0
H302 H 0.18785 0.49973 0.61318 0.0
C303 C 0.23283 0.40434 0.75333 0.0
H304 H 0.16142 0.51606 0.72569 0.0
C305 C 0.2487 0.39546 0.68882 0.0
C306 C 0.23261 0.42918 0.63694 0.0
H307 H 0.24578 0.37743 0.792 0.0
H308 H 0.27376 0.36218 0.67971 0.0
C309 C 0.20198 0.47364 0.6517 0.0
C310 C 0.74285 0.24071 0.07247 0.0
C311 C 0.744 0.17701 0.09186 0.0
H312 H 0.75985 0.3164 0.99533 0.0
C313 C 0.75978 0.13817 0.04476 0.0
H314 H 0.7316 0.27242 0.10749 0.0
C315 C 0.77624 0.16355 0.98056 0.0
C316 C 0.77719 0.22836 0.96159 0.0
H317 H 0.75948 0.08798 0.05749 0.0
H318 H 0.78823 0.13226 0.94566 0.0
C319 C 0.75915 0.26602 1.0081 0.0
C320 C 0.62763 0.7334 0.38345 0.0
C321 C 0.56221 0.71637 0.41546 0.0
H322 H 0.6906 0.77044 0.29592 0.0
C323 C 0.50924 0.72537 0.38106 0.0
H324 H 0.66928 0.7263 0.40779 0.0
C325 C 0.52171 0.75117 0.31668 0.0
C326 C 0.58746 0.76867 0.28505 0.0
H327 H 0.45871 0.71414 0.40427 0.0
H328 H 0.48041 0.75886 0.29217 0.0
C329 C 0.64 0.75897 0.31916 0.0
C330 C 0.82108 0.62956 0.72007 0.0
C331 C 0.77169 0.60405 0.77242 0.0
H332 H 0.83543 0.63878 0.61654 0.0
C333 C 0.69625 0.56771 0.75848 0.0
H334 H 0.87948 0.65636 0.72877 0.0
C335 C 0.67094 0.55717 0.6939 0.0
C336 C 0.72039 0.58327 0.64166 0.0
H337 H 0.65659 0.54811 0.7975 0.0
H338 H 0.61256 0.52948 0.68495 0.0
C339 C 0.79577 0.61941 0.65559 0.0
C340 C 0.289 0.86454 0.97674 0.0
C341 C 0.21353 0.82423 0.96302 0.0
H342 H 0.3729 0.9109 0.05021 0.0
C343 C 0.16431 0.79943 1.0155 0.0
H344 H 0.32846 0.88544 0.93756 0.0
C345 C 0.18981 0.81448 0.07994 0.0
C346 C 0.26519 0.8545 0.09365 0.0
H347 H 0.10593 0.76709 1.00691 0.0
H348 H 0.15036 0.7934 0.11914 0.0
C349 C 0.31452 0.87929 0.0413 0.0
C350 C 0.37273 0.12237 0.41957 0.0
C351 C 0.40459 0.194 0.44509 0.0
H352 H 0.35816 0.05473 0.33626 0.0
C353 C 0.44889 0.25343 0.40425 0.0
H354 H 0.33721 0.0755 0.44938 0.0
C355 C 0.46193 0.24131 0.33961 0.0
C356 C 0.43043 0.16948 0.31426 0.0
H357 H 0.47459 0.30923 0.42265 0.0
H358 H 0.49758 0.28813 0.30983 0.0
C359 C 0.3851 0.11037 0.3549 0.0
C360 C 0.24346 0.61976 0.36626 0.0
C361 C 0.18284 0.57929 0.32526 0.0
H362 H 0.28663 0.68977 0.44982 0.0
C363 C 0.1179 0.58062 0.3366 0.0
H364 H 0.29377 0.61869 0.35891 0.0
C365 C 0.11316 0.62008 0.38994 0.0
C366 C 0.17374 0.65945 0.43154 0.0
H367 H 0.07 0.54841 0.30634 0.0
H368 H 0.06223 0.61931 0.39896 0.0
C369 C 0.2392 0.66 0.41844 0.0
C370 C 0.6114 0.10772 0.684 0.0
C371 C 0.63843 0.16567 0.63884 0.0
H372 H 0.55507 0.06567 0.77478 0.0
C373 C 0.63449 0.22879 0.65326 0.0
H374 H 0.61509 0.05898 0.67421 0.0
C375 C 0.59938 0.23196 0.70954 0.0
C376 C 0.56933 0.17296 0.75343 0.0
H377 H 0.65544 0.27435 0.6194 0.0
H378 H 0.59277 0.27937 0.71739 0.0
C379 C 0.57804 0.1119 0.7417 0.0
C380 C 0.34923 0.5855 0.07794 0.0
C381 C 0.34451 0.51819 0.09281 0.0
H382 H 0.39217 0.67758 1.01347 0.0
C383 C 0.37179 0.48689 0.04827 0.0
H384 H 0.32821 0.61047 0.11135 0.0
C385 C 0.40622 0.52424 0.99082 0.0
C386 C 0.41566 0.59421 0.97865 0.0
H387 H 0.36751 0.43427 0.05839 0.0
H388 H 0.42939 0.50063 0.95832 0.0
C389 C 0.38519 0.6235 1.02177 0.0
C390 C 0.73963 0.36926 0.36709 0.0
C391 C 0.80079 0.38798 0.40691 0.0
H392 H 0.69562 0.39885 0.28596 0.0
C393 C 0.86593 0.4542 0.39587 0.0
H394 H 0.68912 0.31798 0.37431 0.0
C395 C 0.87035 0.49976 0.3439 0.0
C396 C 0.80921 0.48011 0.30348 0.0
H397 H 0.91415 0.46886 0.4253 0.0
H398 H 0.92149 0.54979 0.33498 0.0
C399 C 0.74351 0.4153 0.31643 0.0
C400 C 0.46298 0.87339 0.65887 0.0
C401 C 0.39112 0.81512 0.65079 0.0
H402 H 0.55996 0.92027 0.71887 0.0
C403 C 0.36419 0.75529 0.69377 0.0
H404 H 0.48474 0.92025 0.62649 0.0
C405 C 0.4073 0.75456 0.74528 0.0
C406 C 0.47737 0.81469 0.75597 0.0
H407 H 0.30879 0.70985 0.68855 0.0
H408 H 0.38464 0.70824 0.77835 0.0
C409 C 0.5055 0.87375 0.71193 0.0
C410 C 0.61921 0.38604 0.04319 0.0
C411 C 0.59227 0.41985 0.08514 0.0
H412 H 0.59979 0.31861 0.95863 0.0
C413 C 0.521 0.40733 0.07558 0.0
H414 H 0.67415 0.39512 0.04956 0.0
C415 C 0.47936 0.36566 1.02187 0.0
C416 C 0.50776 0.33423 0.97862 0.0
H417 H 0.49918 0.43301 0.10722 0.0
H418 H 0.42546 0.35863 1.01373 0.0
C419 C 0.57697 0.34277 0.99099 0.0
loop_
_geom_bond_atom_site_label_1
_geom_bond_atom_site_label_2
_geom_bond_distance
_geom_bond_site_symmetry_2
_ccdc_geom_bond_type
Ho0 C3 2.811 . S
Ho0 O20 2.322 . S
Ho0 O22 2.378 . S
Ho0 O23 2.524 . S
Ho0 O24 2.381 . S
Ho0 O25 2.669 . S
Ho0 O27 2.346 . S
Ho0 O31 2.305 . S
Ho1 C12 2.811 . S
Ho1 O21 2.346 . S
Ho1 O25 2.305 . S
Ho1 O26 2.322 . S
Ho1 O28 2.378 . S
Ho1 O29 2.524 . S
Ho1 O30 2.381 . S
Ho1 O31 2.669 . S
C2 O20 1.259 . S
C2 O21 1.268 . S
C3 Ho0 2.811 . S
C3 C4 1.488 1_554 S
C3 O22 1.215 . S
C3 O23 1.289 . S
C4 C3 1.488 1_556 S
C4 C5 1.348 . S
C4 C9 1.413 . S
C5 C4 1.348 . S
C5 C6 1.442 . S
C5 H32 0.930 . S
C6 C5 1.442 . S
C6 C7 1.381 . S
C6 H33 0.931 . S
C7 C6 1.381 . S
C7 C8 1.321 . S
C8 C7 1.321 . S
C8 C9 1.403 . S
C8 H34 0.934 . S
C9 C4 1.413 . S
C9 C8 1.403 . S
C9 H35 0.930 . S
C10 O24 1.275 . S
C10 O25 1.256 . S
C11 O26 1.259 . S
C11 O27 1.268 . S
C12 Ho1 2.811 . S
C12 C13 1.488 . S
C12 O28 1.215 . S
C12 O29 1.289 . S
C13 C12 1.488 . S
C13 C14 1.348 . S
C13 C18 1.413 . S
C14 C13 1.348 . S
C14 C15 1.442 . S
C14 H36 0.930 . S
C15 C14 1.442 . S
C15 C16 1.381 . S
C15 H37 0.931 . S
C16 C15 1.381 . S
C16 C17 1.321 . S
C17 C16 1.321 . S
C17 C18 1.403 . S
C17 H38 0.934 . S
C18 C13 1.413 . S
C18 C17 1.403 . S
C18 H39 0.930 . S
C19 O30 1.275 . S
C19 O31 1.256 . S
O20 Ho0 2.322 . S
O20 C2 1.259 . S
O21 Ho1 2.346 . S
O21 C2 1.268 . S
O22 Ho0 2.378 . S
O22 C3 1.215 . S
O23 Ho0 2.524 . S
O23 C3 1.289 . S
O24 Ho0 2.381 . S
O24 C10 1.275 . S
O25 Ho0 2.669 . S
O25 Ho1 2.305 . S
O25 C10 1.256 . S
O26 Ho1 2.322 . S
O26 C11 1.259 . S
O27 Ho0 2.346 . S
O27 C11 1.268 . S
O28 Ho1 2.378 . S
O28 C12 1.215 . S
O29 Ho1 2.524 . S
O29 C12 1.289 . S
O30 Ho1 2.381 . S
O30 C19 1.275 . S
O31 Ho0 2.305 . S
O31 Ho1 2.669 . S
O31 C19 1.256 . S
H32 C5 0.930 . S
H33 C6 0.931 . S
H34 C8 0.934 . S
H35 C9 0.930 . S
H36 C14 0.930 . S
H37 C15 0.931 . S
H38 C17 0.934 . S
H39 C18 0.930 . S
Ho40 C43 2.811 . S
Ho40 O60 2.322 . S
Ho40 O62 2.378 . S
Ho40 O63 2.524 . S
Ho40 O64 2.381 . S
Ho40 O65 2.669 . S
Ho40 O67 2.346 . S
Ho40 O71 2.305 . S
Ho41 C52 2.811 . S
Ho41 O61 2.346 . S
Ho41 O65 2.305 . S
Ho41 O66 2.322 . S
Ho41 O68 2.378 . S
Ho41 O69 2.524 . S
Ho41 O70 2.381 . S
Ho41 O71 2.669 . S
C42 O60 1.259 . S
C42 O61 1.268 . S
C43 Ho40 2.811 . S
C43 C44 1.488 . S
C43 O62 1.215 . S
C43 O63 1.289 . S
C44 C43 1.488 . S
C44 C45 1.348 . S
C44 C49 1.413 . S
C45 C44 1.348 . S
C45 C46 1.442 . S
C45 H72 0.930 . S
C46 C45 1.442 . S
C46 C47 1.381 . S
C46 H73 0.931 . S
C47 C46 1.381 . S
C47 C48 1.321 . S
C48 C47 1.321 . S
C48 C49 1.403 . S
C48 H74 0.934 . S
C49 C44 1.413 . S
C49 C48 1.403 . S
C49 H75 0.930 . S
C50 O64 1.275 . S
C50 O65 1.256 . S
C51 O66 1.259 . S
C51 O67 1.268 . S
C52 Ho41 2.811 . S
C52 C53 1.488 . S
C52 O68 1.215 . S
C52 O69 1.289 . S
C53 C52 1.488 . S
C53 C54 1.348 . S
C53 C58 1.413 . S
C54 C53 1.348 . S
C54 C55 1.442 . S
C54 H76 0.930 . S
C55 C54 1.442 . S
C55 C56 1.381 . S
C55 H77 0.931 . S
C56 C55 1.381 . S
C56 C57 1.321 . S
C57 C56 1.321 . S
C57 C58 1.403 . S
C57 H78 0.934 . S
C58 C53 1.413 . S
C58 C57 1.403 . S
C58 H79 0.930 . S
C59 O70 1.275 . S
C59 O71 1.256 . S
O60 Ho40 2.322 . S
O60 C42 1.259 . S
O61 Ho41 2.346 . S
O61 C42 1.268 . S
O62 Ho40 2.378 . S
O62 C43 1.215 . S
O63 Ho40 2.524 . S
O63 C43 1.289 . S
O64 Ho40 2.381 . S
O64 C50 1.275 . S
O65 Ho40 2.669 . S
O65 Ho41 2.305 . S
O65 C50 1.256 . S
O66 Ho41 2.322 . S
O66 C51 1.259 . S
O67 Ho40 2.346 . S
O67 C51 1.268 . S
O68 Ho41 2.378 . S
O68 C52 1.215 . S
O69 Ho41 2.524 . S
O69 C52 1.289 . S
O70 Ho41 2.381 . S
O70 C59 1.275 . S
O71 Ho40 2.305 . S
O71 Ho41 2.669 . S
O71 C59 1.256 . S
H72 C45 0.930 . S
H73 C46 0.931 . S
H74 C48 0.934 . S
H75 C49 0.930 . S
H76 C54 0.930 . S
H77 C55 0.931 . S
H78 C57 0.934 . S
H79 C58 0.930 . S
Ho80 C83 2.811 . S
Ho80 O100 2.322 . S
Ho80 O102 2.378 . S
Ho80 O103 2.524 . S
Ho80 O104 2.381 . S
Ho80 O105 2.669 . S
Ho80 O107 2.346 . S
Ho80 O111 2.305 . S
Ho81 C92 2.811 1_556 S
Ho81 O101 2.346 . S
Ho81 O105 2.305 . S
Ho81 O106 2.322 . S
Ho81 O108 2.378 1_556 S
Ho81 O109 2.524 1_556 S
Ho81 O110 2.381 . S
Ho81 O111 2.669 . S
C82 O100 1.259 . S
C82 O101 1.268 . S
C83 Ho80 2.811 . S
C83 C84 1.488 . S
C83 O102 1.215 . S
C83 O103 1.289 . S
C84 C83 1.488 . S
C84 C85 1.348 . S
C84 C89 1.413 . S
C85 C84 1.348 . S
C85 C86 1.442 . S
C85 H112 0.930 . S
C86 C85 1.442 . S
C86 C87 1.381 . S
C86 H113 0.931 . S
C87 C86 1.381 . S
C87 C88 1.321 . S
C88 C87 1.321 . S
C88 C89 1.403 . S
C88 H114 0.934 . S
C89 C84 1.413 . S
C89 C88 1.403 . S
C89 H115 0.930 . S
C90 O104 1.275 . S
C90 O105 1.256 . S
C91 O106 1.259 . S
C91 O107 1.268 . S
C92 Ho81 2.811 1_554 S
C92 C93 1.488 . S
C92 O108 1.215 . S
C92 O109 1.289 . S
C93 C92 1.488 . S
C93 C94 1.348 . S
C93 C98 1.413 . S
C94 C93 1.348 . S
C94 C95 1.442 . S
C94 H116 0.930 . S
C95 C94 1.442 . S
C95 C96 1.381 . S
C95 H117 0.931 . S
C96 C95 1.381 . S
C96 C97 1.321 . S
C97 C96 1.321 . S
C97 C98 1.403 . S
C97 H118 0.934 . S
C98 C93 1.413 . S
C98 C97 1.403 . S
C98 H119 0.930 . S
C99 O110 1.275 . S
C99 O111 1.256 . S
O100 Ho80 2.322 . S
O100 C82 1.259 . S
O101 Ho81 2.346 . S
O101 C82 1.268 . S
O102 Ho80 2.378 . S
O102 C83 1.215 . S
O103 Ho80 2.524 . S
O103 C83 1.289 . S
O104 Ho80 2.381 . S
O104 C90 1.275 . S
O105 Ho80 2.669 . S
O105 Ho81 2.305 . S
O105 C90 1.256 . S
O106 Ho81 2.322 . S
O106 C91 1.259 . S
O107 Ho80 2.346 . S
O107 C91 1.268 . S
O108 Ho81 2.378 1_554 S
O108 C92 1.215 . S
O109 Ho81 2.524 1_554 S
O109 C92 1.289 . S
O110 Ho81 2.381 . S
O110 C99 1.275 . S
O111 Ho80 2.305 . S
O111 Ho81 2.669 . S
O111 C99 1.256 . S
H112 C85 0.930 . S
H113 C86 0.931 . S
H114 C88 0.934 . S
H115 C89 0.930 . S
H116 C94 0.930 . S
H117 C95 0.931 . S
H118 C97 0.934 . S
H119 C98 0.930 . S
Ho120 C123 2.811 . S
Ho120 O140 2.322 . S
Ho120 O142 2.378 . S
Ho120 O143 2.524 . S
Ho120 O144 2.381 . S
Ho120 O145 2.669 . S
Ho120 O147 2.346 . S
Ho120 O151 2.305 . S
Ho121 C132 2.811 1_554 S
Ho121 O141 2.346 . S
Ho121 O145 2.305 . S
Ho121 O146 2.322 . S
Ho121 O148 2.378 1_554 S
Ho121 O149 2.524 1_554 S
Ho121 O150 2.381 . S
Ho121 O151 2.669 . S
C122 O140 1.259 . S
C122 O141 1.268 . S
C123 Ho120 2.811 . S
C123 C124 1.488 . S
C123 O142 1.215 . S
C123 O143 1.289 . S
C124 C123 1.488 . S
C124 C125 1.348 . S
C124 C129 1.413 . S
C125 C124 1.348 . S
C125 C126 1.442 . S
C125 H152 0.930 . S
C126 C125 1.442 . S
C126 C127 1.381 . S
C126 H153 0.931 . S
C127 C126 1.381 . S
C127 C128 1.321 . S
C128 C127 1.321 . S
C128 C129 1.403 . S
C128 H154 0.934 . S
C129 C124 1.413 . S
C129 C128 1.403 . S
C129 H155 0.930 . S
C130 O144 1.275 . S
C130 O145 1.256 . S
C131 O146 1.259 . S
C131 O147 1.268 . S
C132 Ho121 2.811 1_556 S
C132 C133 1.488 . S
C132 O148 1.215 . S
C132 O149 1.289 . S
C133 C132 1.488 . S
C133 C134 1.348 . S
C133 C138 1.413 . S
C134 C133 1.348 . S
C134 C135 1.442 . S
C134 H156 0.930 . S
C135 C134 1.442 . S
C135 C136 1.381 . S
C135 H157 0.931 . S
C136 C135 1.381 . S
C136 C137 1.321 . S
C137 C136 1.321 . S
C137 C138 1.403 . S
C137 H158 0.934 . S
C138 C133 1.413 . S
C138 C137 1.403 . S
C138 H159 0.930 . S
C139 O150 1.275 . S
C139 O151 1.256 . S
O140 Ho120 2.322 . S
O140 C122 1.259 . S
O141 Ho121 2.346 . S
O141 C122 1.268 . S
O142 Ho120 2.378 . S
O142 C123 1.215 . S
O143 Ho120 2.524 . S
O143 C123 1.289 . S
O144 Ho120 2.381 . S
O144 C130 1.275 . S
O145 Ho120 2.669 . S
O145 Ho121 2.305 . S
O145 C130 1.256 . S
O146 Ho121 2.322 . S
O146 C131 1.259 . S
O147 Ho120 2.346 . S
O147 C131 1.268 . S
O148 Ho121 2.378 1_556 S
O148 C132 1.215 . S
O149 Ho121 2.524 1_556 S
O149 C132 1.289 . S
O150 Ho121 2.381 . S
O150 C139 1.275 . S
O151 Ho120 2.305 . S
O151 Ho121 2.669 . S
O151 C139 1.256 . S
H152 C125 0.930 . S
H153 C126 0.931 . S
H154 C128 0.934 . S
H155 C129 0.930 . S
H156 C134 0.930 . S
H157 C135 0.931 . S
H158 C137 0.934 . S
H159 C138 0.930 . S
Ho160 C163 2.811 . S
Ho160 O180 2.322 . S
Ho160 O182 2.378 . S
Ho160 O183 2.524 . S
Ho160 O184 2.381 . S
Ho160 O185 2.669 . S
Ho160 O187 2.346 . S
Ho160 O191 2.305 . S
Ho161 C172 2.811 . S
Ho161 O181 2.346 . S
Ho161 O185 2.305 . S
Ho161 O186 2.322 . S
Ho161 O188 2.378 . S
Ho161 O189 2.524 . S
Ho161 O190 2.381 . S
Ho161 O191 2.669 . S
C162 O180 1.259 . S
C162 O181 1.268 . S
C163 Ho160 2.811 . S
C163 C164 1.488 . S
C163 O182 1.215 . S
C163 O183 1.289 . S
C164 C163 1.488 . S
C164 C165 1.348 . S
C164 C169 1.413 . S
C165 C164 1.348 . S
C165 C166 1.442 . S
C165 H192 0.930 . S
C166 C165 1.442 . S
C166 C167 1.381 . S
C166 H193 0.931 . S
C167 C166 1.381 . S
C167 C168 1.321 . S
C168 C167 1.321 . S
C168 C169 1.403 . S
C168 H194 0.934 . S
C169 C164 1.413 . S
C169 C168 1.403 . S
C169 H195 0.930 . S
C170 O184 1.275 . S
C170 O185 1.256 . S
C171 O186 1.259 . S
C171 O187 1.268 . S
C172 Ho161 2.811 . S
C172 C173 1.488 . S
C172 O188 1.215 . S
C172 O189 1.289 . S
C173 C172 1.488 . S
C173 C174 1.348 . S
C173 C178 1.413 . S
C174 C173 1.348 . S
C174 C175 1.442 . S
C174 H196 0.930 . S
C175 C174 1.442 . S
C175 C176 1.381 . S
C175 H197 0.931 . S
C176 C175 1.381 . S
C176 C177 1.321 . S
C177 C176 1.321 . S
C177 C178 1.403 . S
C177 H198 0.934 . S
C178 C173 1.413 . S
C178 C177 1.403 . S
C178 H199 0.930 . S
C179 O190 1.275 . S
C179 O191 1.256 . S
O180 Ho160 2.322 . S
O180 C162 1.259 . S
O181 Ho161 2.346 . S
O181 C162 1.268 . S
O182 Ho160 2.378 . S
O182 C163 1.215 . S
O183 Ho160 2.524 . S
O183 C163 1.289 . S
O184 Ho160 2.381 . S
O184 C170 1.275 . S
O185 Ho160 2.669 . S
O185 Ho161 2.305 . S
O185 C170 1.256 . S
O186 Ho161 2.322 . S
O186 C171 1.259 . S
O187 Ho160 2.346 . S
O187 C171 1.268 . S
O188 Ho161 2.378 . S
O188 C172 1.215 . S
O189 Ho161 2.524 . S
O189 C172 1.289 . S
O190 Ho161 2.381 . S
O190 C179 1.275 . S
O191 Ho160 2.305 . S
O191 Ho161 2.669 . S
O191 C179 1.256 . S
H192 C165 0.930 . S
H193 C166 0.931 . S
H194 C168 0.934 . S
H195 C169 0.930 . S
H196 C174 0.930 . S
H197 C175 0.931 . S
H198 C177 0.934 . S
H199 C178 0.930 . S
Ho200 C203 2.811 . S
Ho200 O220 2.322 . S
Ho200 O222 2.378 . S
Ho200 O223 2.524 . S
Ho200 O224 2.381 . S
Ho200 O225 2.669 . S
Ho200 O227 2.346 . S
Ho200 O231 2.305 . S
Ho201 C212 2.811 . S
Ho201 O221 2.346 . S
Ho201 O225 2.305 . S
Ho201 O226 2.322 . S
Ho201 O228 2.378 . S
Ho201 O229 2.524 . S
Ho201 O230 2.381 . S
Ho201 O231 2.669 . S
C202 O220 1.259 . S
C202 O221 1.268 . S
C203 Ho200 2.811 . S
C203 C204 1.488 1_556 S
C203 O222 1.215 . S
C203 O223 1.289 . S
C204 C203 1.488 1_554 S
C204 C205 1.348 . S
C204 C209 1.413 . S
C205 C204 1.348 . S
C205 C206 1.442 . S
C205 H232 0.930 . S
C206 C205 1.442 . S
C206 C207 1.381 . S
C206 H233 0.931 . S
C207 C206 1.381 . S
C207 C208 1.321 . S
C208 C207 1.321 . S
C208 C209 1.403 . S
C208 H234 0.934 . S
C209 C204 1.413 . S
C209 C208 1.403 . S
C209 H235 0.930 . S
C210 O224 1.275 . S
C210 O225 1.256 . S
C211 O226 1.259 . S
C211 O227 1.268 . S
C212 Ho201 2.811 . S
C212 C213 1.488 . S
C212 O228 1.215 . S
C212 O229 1.289 . S
C213 C212 1.488 . S
C213 C214 1.348 . S
C213 C218 1.413 . S
C214 C213 1.348 . S
C214 C215 1.442 . S
C214 H236 0.930 . S
C215 C214 1.442 . S
C215 C216 1.381 . S
C215 H237 0.931 . S
C216 C215 1.381 . S
C216 C217 1.321 . S
C217 C216 1.321 . S
C217 C218 1.403 . S
C217 H238 0.934 . S
C218 C213 1.413 . S
C218 C217 1.403 . S
C218 H239 0.930 . S
C219 O230 1.275 . S
C219 O231 1.256 . S
O220 Ho200 2.322 . S
O220 C202 1.259 . S
O221 Ho201 2.346 . S
O221 C202 1.268 . S
O222 Ho200 2.378 . S
O222 C203 1.215 . S
O223 Ho200 2.524 . S
O223 C203 1.289 . S
O224 Ho200 2.381 . S
O224 C210 1.275 . S
O225 Ho200 2.669 . S
O225 Ho201 2.305 . S
O225 C210 1.256 . S
O226 Ho201 2.322 . S
O226 C211 1.259 . S
O227 Ho200 2.346 . S
O227 C211 1.268 . S
O228 Ho201 2.378 . S
O228 C212 1.215 . S
O229 Ho201 2.524 . S
O229 C212 1.289 . S
O230 Ho201 2.381 . S
O230 C219 1.275 . S
O231 Ho200 2.305 . S
O231 Ho201 2.669 . S
O231 C219 1.256 . S
H232 C205 0.930 . S
H233 C206 0.931 . S
H234 C208 0.934 . S
H235 C209 0.930 . S
H236 C214 0.930 . S
H237 C215 0.931 . S
H238 C217 0.934 . S
H239 C218 0.930 . S
C240 C241 1.387 . S
C240 H244 0.950 . S
C240 C249 1.390 1_556 S
C241 C240 1.387 . S
C241 C243 1.387 . S
H242 C249 0.950 . S
C243 C241 1.387 . S
C243 C245 1.390 1_556 S
C243 H247 0.950 . S
H244 C240 0.950 . S
C245 C243 1.390 1_554 S
C245 C246 1.387 . S
C245 H248 0.950 . S
C246 C245 1.387 . S
C246 C249 1.387 . S
H247 C243 0.950 . S
H248 C245 0.950 . S
C249 C240 1.390 1_554 S
C249 H242 0.950 . S
C249 C246 1.387 . S
C250 C251 1.387 . S
C250 H254 0.950 . S
C250 C259 1.390 1_455 S
C251 C250 1.387 . S
C251 C253 1.387 . S
H252 C259 0.950 . S
C253 C251 1.387 . S
C253 C255 1.390 1_455 S
C253 H257 0.950 . S
H254 C250 0.950 . S
C255 C253 1.390 1_655 S
C255 C256 1.387 . S
C255 H258 0.950 . S
C256 C255 1.387 . S
C256 C259 1.387 . S
H257 C253 0.950 . S
H258 C255 0.950 . S
C259 C250 1.390 1_655 S
C259 H252 0.950 . S
C259 C256 1.387 . S
C260 C261 1.387 . S
C260 H264 0.950 . S
C260 C269 1.390 . S
C261 C260 1.387 . S
C261 C263 1.387 1_545 S
H262 C269 0.950 . S
C263 C261 1.387 1_565 S
C263 C265 1.390 . S
C263 H267 0.950 . S
H264 C260 0.950 . S
C265 C263 1.390 . S
C265 C266 1.387 . S
C265 H268 0.950 . S
C266 C265 1.387 . S
C266 C269 1.387 1_565 S
H267 C263 0.950 . S
H268 C265 0.950 . S
C269 C260 1.390 . S
C269 H262 0.950 . S
C269 C266 1.387 1_545 S
C270 C271 1.387 . S
C270 H274 0.950 . S
C270 C279 1.390 1_556 S
C271 C270 1.387 . S
C271 C273 1.387 . S
H272 C279 0.950 . S
C273 C271 1.387 . S
C273 C275 1.391 1_556 S
C273 H277 0.949 . S
H274 C270 0.950 . S
C275 C273 1.391 1_554 S
C275 C276 1.387 . S
C275 H278 0.950 . S
C276 C275 1.387 . S
C276 C279 1.387 . S
H277 C273 0.949 . S
H278 C275 0.950 . S
C279 C270 1.390 1_554 S
C279 H272 0.950 . S
C279 C276 1.387 . S
C280 C281 1.387 1_655 S
C280 H284 0.950 . S
C280 C289 1.390 . S
C281 C280 1.387 1_455 S
C281 C283 1.387 . S
H282 C289 0.950 . S
C283 C281 1.387 . S
C283 C285 1.390 . S
C283 H287 0.950 . S
H284 C280 0.950 . S
C285 C283 1.390 . S
C285 C286 1.387 1_455 S
C285 H288 0.950 . S
C286 C285 1.387 1_655 S
C286 C289 1.387 . S
H287 C283 0.950 . S
H288 C285 0.950 . S
C289 C280 1.390 . S
C289 H282 0.950 . S
C289 C286 1.387 . S
C290 C291 1.387 . S
C290 H294 0.950 . S
C290 C299 1.390 1_545 S
C291 C290 1.387 . S
C291 C293 1.387 . S
H292 C299 0.950 . S
C293 C291 1.387 . S
C293 C295 1.390 1_545 S
C293 H297 0.950 . S
H294 C290 0.950 . S
C295 C293 1.390 1_565 S
C295 C296 1.387 . S
C295 H298 0.950 . S
C296 C295 1.387 . S
C296 C299 1.387 . S
H297 C293 0.950 . S
H298 C295 0.950 . S
C299 C290 1.390 1_565 S
C299 H292 0.950 . S
C299 C296 1.387 . S
C300 C301 1.387 . S
C300 H304 0.950 . S
C300 C309 1.390 . S
C301 C300 1.387 . S
C301 C303 1.387 . S
H302 C309 0.950 . S
C303 C301 1.387 . S
C303 C305 1.390 . S
C303 H307 0.950 . S
H304 C300 0.950 . S
C305 C303 1.390 . S
C305 C306 1.387 . S
C305 H308 0.950 . S
C306 C305 1.387 . S
C306 C309 1.387 . S
H307 C303 0.950 . S
H308 C305 0.950 . S
C309 C300 1.390 . S
C309 H302 0.950 . S
C309 C306 1.387 . S
C310 C311 1.387 . S
C310 H314 0.950 . S
C310 C319 1.390 . S
C311 C310 1.387 . S
C311 C313 1.387 . S
H312 C319 0.950 . S
C313 C311 1.387 . S
C313 C315 1.390 . S
C313 H317 0.950 . S
H314 C310 0.950 . S
C315 C313 1.390 . S
C315 C316 1.387 . S
C315 H318 0.950 . S
C316 C315 1.387 . S
C316 C319 1.387 . S
H317 C313 0.950 . S
H318 C315 0.950 . S
C319 C310 1.390 . S
C319 H312 0.950 . S
C319 C316 1.387 . S
C320 C321 1.387 . S
C320 H324 0.950 . S
C320 C329 1.390 . S
C321 C320 1.387 . S
C321 C323 1.387 . S
H322 C329 0.950 . S
C323 C321 1.387 . S
C323 C325 1.390 . S
C323 H327 0.950 . S
H324 C320 0.950 . S
C325 C323 1.390 . S
C325 C326 1.387 . S
C325 H328 0.950 . S
C326 C325 1.387 . S
C326 C329 1.387 . S
H327 C323 0.950 . S
H328 C325 0.950 . S
C329 C320 1.390 . S
C329 H322 0.950 . S
C329 C326 1.387 . S
C330 C331 1.387 . S
C330 H334 0.950 . S
C330 C339 1.390 . S
C331 C330 1.387 . S
C331 C333 1.387 . S
H332 C339 0.950 . S
C333 C331 1.387 . S
C333 C335 1.390 . S
C333 H337 0.950 . S
H334 C330 0.950 . S
C335 C333 1.390 . S
C335 C336 1.387 . S
C335 H338 0.950 . S
C336 C335 1.387 . S
C336 C339 1.387 . S
H337 C333 0.950 . S
H338 C335 0.950 . S
C339 C330 1.390 . S
C339 H332 0.950 . S
C339 C336 1.387 . S
C340 C341 1.387 . S
C340 H344 0.950 . S
C340 C349 1.390 . S
C341 C340 1.387 . S
C341 C343 1.387 . S
H342 C349 0.950 . S
C343 C341 1.387 . S
C343 C345 1.390 . S
C343 H347 0.950 . S
H344 C340 0.950 . S
C345 C343 1.390 . S
C345 C346 1.387 . S
C345 H348 0.950 . S
C346 C345 1.387 . S
C346 C349 1.387 . S
H347 C343 0.950 . S
H348 C345 0.950 . S
C349 C340 1.390 . S
C349 H342 0.950 . S
C349 C346 1.387 . S
C350 C351 1.387 . S
C350 H354 0.950 . S
C350 C359 1.390 . S
C351 C350 1.387 . S
C351 C353 1.387 . S
H352 C359 0.950 . S
C353 C351 1.387 . S
C353 C355 1.390 . S
C353 H357 0.950 . S
H354 C350 0.950 . S
C355 C353 1.390 . S
C355 C356 1.387 . S
C355 H358 0.950 . S
C356 C355 1.387 . S
C356 C359 1.387 . S
H357 C353 0.950 . S
H358 C355 0.950 . S
C359 C350 1.390 . S
C359 H352 0.950 . S
C359 C356 1.387 . S
C360 C361 1.387 . S
C360 H364 0.950 . S
C360 C369 1.390 . S
C361 C360 1.387 . S
C361 C363 1.387 . S
H362 C369 0.950 . S
C363 C361 1.387 . S
C363 C365 1.390 . S
C363 H367 0.950 . S
H364 C360 0.950 . S
C365 C363 1.390 . S
C365 C366 1.387 . S
C365 H368 0.950 . S
C366 C365 1.387 . S
C366 C369 1.387 . S
H367 C363 0.950 . S
H368 C365 0.950 . S
C369 C360 1.390 . S
C369 H362 0.950 . S
C369 C366 1.387 . S
C370 C371 1.387 . S
C370 H374 0.950 . S
C370 C379 1.390 . S
C371 C370 1.387 . S
C371 C373 1.387 . S
H372 C379 0.950 . S
C373 C371 1.387 . S
C373 C375 1.390 . S
C373 H377 0.950 . S
H374 C370 0.950 . S
C375 C373 1.390 . S
C375 C376 1.387 . S
C375 H378 0.950 . S
C376 C375 1.387 . S
C376 C379 1.387 . S
H377 C373 0.950 . S
H378 C375 0.950 . S
C379 C370 1.390 . S
C379 H372 0.950 . S
C379 C376 1.387 . S
C380 C381 1.387 . S
C380 H384 0.950 . S
C380 C389 1.390 . S
C381 C380 1.387 . S
C381 C383 1.387 . S
H382 C389 0.950 . S
C383 C381 1.387 . S
C383 C385 1.390 . S
C383 H387 0.950 . S
H384 C380 0.950 . S
C385 C383 1.390 . S
C385 C386 1.387 . S
C385 H388 0.950 . S
C386 C385 1.387 . S
C386 C389 1.387 . S
H387 C383 0.950 . S
H388 C385 0.950 . S
C389 C380 1.390 . S
C389 H382 0.950 . S
C389 C386 1.387 . S
C390 C391 1.387 . S
C390 H394 0.950 . S
C390 C399 1.390 . S
C391 C390 1.387 . S
C391 C393 1.387 . S
H392 C399 0.950 . S
C393 C391 1.387 . S
C393 C395 1.390 . S
C393 H397 0.950 . S
H394 C390 0.950 . S
C395 C393 1.390 . S
C395 C396 1.387 . S
C395 H398 0.950 . S
C396 C395 1.387 . S
C396 C399 1.387 . S
H397 C393 0.950 . S
H398 C395 0.950 . S
C399 C390 1.390 . S
C399 H392 0.950 . S
C399 C396 1.387 . S
C400 C401 1.387 . S
C400 H404 0.950 . S
C400 C409 1.390 . S
C401 C400 1.387 . S
C401 C403 1.387 . S
H402 C409 0.950 . S
C403 C401 1.387 . S
C403 C405 1.390 . S
C403 H407 0.950 . S
H404 C400 0.950 . S
C405 C403 1.390 . S
C405 C406 1.387 . S
C405 H408 0.950 . S
C406 C405 1.387 . S
C406 C409 1.387 . S
H407 C403 0.950 . S
H408 C405 0.950 . S
C409 C400 1.390 . S
C409 H402 0.950 . S
C409 C406 1.387 . S
C410 C411 1.387 . S
C410 H414 0.950 . S
C410 C419 1.390 . S
C411 C410 1.387 . S
C411 C413 1.387 . S
H412 C419 0.950 . S
C413 C411 1.387 . S
C413 C415 1.390 . S
C413 H417 0.950 . S
H414 C410 0.950 . S
C415 C413 1.390 . S
C415 C416 1.387 . S
C415 H418 0.950 . S
C416 C415 1.387 . S
C416 C419 1.387 . S
H417 C413 0.950 . S
H418 C415 0.950 . S
C419 C410 1.390 . S
C419 H412 0.950 . S
C419 C416 1.387 . S
C241 C202 1.989 . S
C246 C2 1.989 . S
C251 C10 1.451 . S
C256 C50 1.454 . S
C261 C42 1.986 . S
C266 C82 1.986 . S
C271 C90 1.452 . S
C276 C130 1.453 . S
C281 C162 1.987 . S
C286 C122 1.987 . S
C291 C210 1.451 . S
C296 C170 1.451 . S
C301 C7 1.911 . S
C306 C16 1.911 . S
C311 C56 1.912 1_556 S
C316 C47 1.912 . S
C321 C87 1.910 . S
C326 C96 1.910 . S
C331 C136 1.908 . S
C336 C127 1.908 . S
C341 C176 1.912 1_554 S
C346 C167 1.912 . S
C351 C216 1.909 . S
C356 C207 1.909 . S
C361 C11 1.953 . S
C366 C179 1.936 . S
C371 C59 1.937 . S
C376 C211 1.953 . S
C381 C19 1.936 . S
C386 C91 1.953 1_554 S
C391 C51 1.953 . S
C396 C139 1.936 . S
C401 C171 1.953 . S
C406 C99 1.937 . S
C411 C131 1.953 1_556 S
C416 C219 1.937 . S
