# Generated by pormake.
# Topology wjd, (6)-cn, num edge types: 1
# Building blocks:
#     Node 0, Type 0, BuildingBlock: MIFKUJ_clean_sbu_0, # of connection points: 6
#     Node 1, Type 0, BuildingBlock: MIFKUJ_clean_sbu_0, # of connection points: 6
#     Node 2, Type 0, BuildingBlock: MIFKUJ_clean_sbu_0, # of connection points: 6
#     Node 3, Type 0, BuildingBlock: MIFKUJ_clean_sbu_0, # of connection points: 6
#     Node 4, Type 0, BuildingBlock: MIFKUJ_clean_sbu_0, # of connection points: 6
#     Node 5, Type 0, BuildingBlock: MIFKUJ_clean_sbu_0, # of connection points: 6
#     Node 6, Type 0, BuildingBlock: MIFKUJ_clean_sbu_0, # of connection points: 6
#     Node 7, Type 0, BuildingBlock: MIFKUJ_clean_sbu_0, # of connection points: 6
#     Node 8, Type 0, BuildingBlock: MIFKUJ_clean_sbu_0, # of connection points: 6
#     Node 9, Type 0, BuildingBlock: MIFKUJ_clean_sbu_0, # of connection points: 6
#     Node 10, Type 0, BuildingBlock: MIFKUJ_clean_sbu_0, # of connection points: 6
#     Node 11, Type 0, BuildingBlock: MIFKUJ_clean_sbu_0, # of connection points: 6
#     Edge 12, Type (0, 0), BuildingBlock: KIFKEQ_clean_linker_1, # of connection points: 2
#     Edge 13, Type (0, 0), BuildingBlock: KIFKEQ_clean_linker_1, # of connection points: 2
#     Edge 14, Type (0, 0), BuildingBlock: KIFKEQ_clean_linker_1, # of connection points: 2
#     Edge 15, Type (0, 0), BuildingBlock: KIFKEQ_clean_linker_1, # of connection points: 2
#     Edge 16, Type (0, 0), BuildingBlock: KIFKEQ_clean_linker_1, # of connection points: 2
#     Edge 17, Type (0, 0), BuildingBlock: KIFKEQ_clean_linker_1, # of connection points: 2
#     Edge 18, Type (0, 0), BuildingBlock: KIFKEQ_clean_linker_1, # of connection points: 2
#     Edge 19, Type (0, 0), BuildingBlock: KIFKEQ_clean_linker_1, # of connection points: 2
#     Edge 20, Type (0, 0), BuildingBlock: KIFKEQ_clean_linker_1, # of connection points: 2
#     Edge 21, Type (0, 0), BuildingBlock: KIFKEQ_clean_linker_1, # of connection points: 2
#     Edge 22, Type (0, 0), BuildingBlock: KIFKEQ_clean_linker_1, # of connection points: 2
#     Edge 23, Type (0, 0), BuildingBlock: KIFKEQ_clean_linker_1, # of connection points: 2
#     Edge 24, Type (0, 0), BuildingBlock: KIFKEQ_clean_linker_1, # of connection points: 2
#     Edge 25, Type (0, 0), BuildingBlock: KIFKEQ_clean_linker_1, # of connection points: 2
#     Edge 26, Type (0, 0), BuildingBlock: KIFKEQ_clean_linker_1, # of connection points: 2
#     Edge 27, Type (0, 0), BuildingBlock: KIFKEQ_clean_linker_1, # of connection points: 2
#     Edge 28, Type (0, 0), BuildingBlock: KIFKEQ_clean_linker_1, # of connection points: 2
#     Edge 29, Type (0, 0), BuildingBlock: KIFKEQ_clean_linker_1, # of connection points: 2
#     Edge 30, Type (0, 0), BuildingBlock: KIFKEQ_clean_linker_1, # of connection points: 2
#     Edge 31, Type (0, 0), BuildingBlock: KIFKEQ_clean_linker_1, # of connection points: 2
#     Edge 32, Type (0, 0), BuildingBlock: KIFKEQ_clean_linker_1, # of connection points: 2
#     Edge 33, Type (0, 0), BuildingBlock: KIFKEQ_clean_linker_1, # of connection points: 2
#     Edge 34, Type (0, 0), BuildingBlock: KIFKEQ_clean_linker_1, # of connection points: 2
#     Edge 35, Type (0, 0), BuildingBlock: KIFKEQ_clean_linker_1, # of connection points: 2
#     Edge 36, Type (0, 0), BuildingBlock: KIFKEQ_clean_linker_1, # of connection points: 2
#     Edge 37, Type (0, 0), BuildingBlock: KIFKEQ_clean_linker_1, # of connection points: 2
#     Edge 38, Type (0, 0), BuildingBlock: KIFKEQ_clean_linker_1, # of connection points: 2
#     Edge 39, Type (0, 0), BuildingBlock: KIFKEQ_clean_linker_1, # of connection points: 2
#     Edge 40, Type (0, 0), BuildingBlock: KIFKEQ_clean_linker_1, # of connection points: 2
#     Edge 41, Type (0, 0), BuildingBlock: KIFKEQ_clean_linker_1, # of connection points: 2
#     Edge 42, Type (0, 0), BuildingBlock: KIFKEQ_clean_linker_1, # of connection points: 2
#     Edge 43, Type (0, 0), BuildingBlock: KIFKEQ_clean_linker_1, # of connection points: 2
#     Edge 44, Type (0, 0), BuildingBlock: KIFKEQ_clean_linker_1, # of connection points: 2
#     Edge 45, Type (0, 0), BuildingBlock: KIFKEQ_clean_linker_1, # of connection points: 2
#     Edge 46, Type (0, 0), BuildingBlock: KIFKEQ_clean_linker_1, # of connection points: 2
#     Edge 47, Type (0, 0), BuildingBlock: KIFKEQ_clean_linker_1, # of connection points: 2
# Relax obj value: 0.083
# Max RMSD: 0.184
# Mean RMSD: 0.184
data_MOF--net-wjd--node1-MIFKUJ_clean_sbu_0--edge1-KIFKEQ_clean_linker_1
_symmetry_space_group_name_H-M    P1
_symmetry_Int_Tables_number       1
_symmetry_cell_setting            triclinic
loop_
_symmetry_equiv_pos_as_xyz
'x, y, z'
_cell_length_a     35.088467
_cell_length_b     34.907972
_cell_length_c     54.211634
_cell_angle_alpha  90.061349
_cell_angle_beta   90.050355
_cell_angle_gamma 119.6348
loop_
_atom_site_label
_atom_site_type_symbol
_atom_site_fract_x
_atom_site_fract_y
_atom_site_fract_z
_atom_type_partial_charge
Zn0 Zn 0.2861 0.08267 0.10494 0.0
Zn1 Zn 0.39491 0.17601 0.09699 0.0
C2 C 0.23292 0.1192 0.1069 0.0
O3 O 0.22313 0.09348 0.12629 0.0
C4 C 0.47037 0.17261 0.08014 0.0
O5 O 0.46386 0.19129 0.06078 0.0
O6 O 0.23651 0.02022 0.1041 0.0
O7 O 0.33619 0.08478 0.08721 0.0
O8 O 0.35876 0.14497 0.06626 0.0
C9 C 0.21183 0.00758 0.08518 0.0
O10 O 0.22024 0.03534 0.06691 0.0
O11 O 0.26225 0.12146 0.09216 0.0
C12 C 0.45233 0.26429 0.10936 0.0
O13 O 0.45433 0.24362 0.12914 0.0
O14 O 0.42622 0.24186 0.09209 0.0
O15 O 0.36813 0.16271 0.13194 0.0
O16 O 0.30413 0.10206 0.13886 0.0
O17 O 0.4438 0.16153 0.09814 0.0
C18 C 0.34095 0.10331 0.06665 0.0
C19 C 0.33746 0.13696 0.14644 0.0
Zn20 Zn 0.77684 0.61644 0.38526 0.0
Zn21 Zn 0.78045 0.71927 0.37895 0.0
C22 C 0.69166 0.5459 0.40126 0.0
O23 O 0.71019 0.55552 0.42316 0.0
C24 C 0.86879 0.77551 0.37345 0.0
O25 O 0.84974 0.7838 0.35495 0.0
O26 O 0.80916 0.58236 0.38977 0.0
O27 O 0.79217 0.64506 0.35076 0.0
O28 O 0.77817 0.70015 0.34498 0.0
C29 C 0.80395 0.55552 0.37246 0.0
O30 O 0.78098 0.55422 0.35299 0.0
O31 O 0.71326 0.56861 0.38277 0.0
C32 C 0.78305 0.79638 0.39867 0.0
O33 O 0.80368 0.78815 0.41631 0.0
O34 O 0.76723 0.76949 0.38069 0.0
O35 O 0.73756 0.66762 0.39783 0.0
O36 O 0.78369 0.65312 0.41622 0.0
O37 O 0.84466 0.74568 0.38881 0.0
C38 C 0.78895 0.67277 0.33676 0.0
C39 C 0.75612 0.66656 0.41748 0.0
Zn40 Zn 0.94943 0.23857 0.10142 0.0
Zn41 Zn 0.85738 0.23301 0.09239 0.0
C42 C 0.90756 0.14823 0.11226 0.0
O43 O 0.92933 0.16636 0.13266 0.0
C44 C 0.86487 0.31557 0.07882 0.0
O45 O 0.84632 0.29272 0.05876 0.0
O46 O 1.00952 0.24423 0.10333 0.0
O47 O 0.95106 0.27812 0.0749 0.0
O48 O 0.88735 0.22676 0.06135 0.0
C49 C 0.02208 0.23141 0.08459 0.0
O50 O 0.99698 0.21837 0.06487 0.0
O51 O 0.90922 0.17318 0.09467 0.0
C52 C 0.76985 0.20816 0.10294 0.0
O53 O 0.78993 0.22858 0.12333 0.0
O54 O 0.79226 0.20388 0.08583 0.0
O55 O 0.86339 0.21159 0.12659 0.0
O56 O 0.93426 0.25377 0.13351 0.0
O57 O 0.87514 0.29752 0.096 0.0
C58 C 0.92573 0.25836 0.05703 0.0
C59 C 0.89546 0.23086 0.14153 0.0
Zn60 Zn 0.39045 0.15146 0.37832 0.0
Zn61 Zn 0.2718 0.06757 0.37205 0.0
C62 C 0.45782 0.13054 0.39296 0.0
O63 O 0.44423 0.13217 0.4153 0.0
C64 C 0.26473 0.14656 0.38107 0.0
O65 O 0.2919 0.16315 0.36243 0.0
O66 O 0.42335 0.21654 0.38662 0.0
O67 O 0.36257 0.14147 0.344 0.0
O68 O 0.29311 0.08931 0.33848 0.0
C69 C 0.42835 0.24758 0.37235 0.0
O70 O 0.40819 0.23788 0.35092 0.0
O71 O 0.43887 0.13645 0.37452 0.0
C72 C 0.18981 0.99662 0.38867 0.0
O73 O 0.20372 0.01947 0.40921 0.0
O74 O 0.21412 0.01019 0.36961 0.0
O75 O 0.31375 0.05485 0.38979 0.0
O76 O 0.35507 0.11787 0.40847 0.0
O77 O 0.25597 0.10912 0.38953 0.0
C78 C 0.3294 0.1195 0.33007 0.0
C79 C 0.32966 0.07645 0.40943 0.0
Zn80 Zn 0.81811 0.74766 0.11358 0.0
Zn81 Zn 0.79367 0.63646 0.10382 0.0
C82 C 0.90702 0.78029 0.11512 0.0
O83 O 0.89688 0.78766 0.13727 0.0
C84 C 0.71306 0.56383 0.08668 0.0
O85 O 0.73659 0.57076 0.06662 0.0
O86 O 0.82211 0.80743 0.11671 0.0
O87 O 0.76651 0.70951 0.09281 0.0
O88 O 0.79761 0.67548 0.07481 0.0
C89 C 0.8136 0.82562 0.09882 0.0
O90 O 0.7999 0.80428 0.07782 0.0
O91 O 0.87637 0.76036 0.09945 0.0
C92 C 0.82118 0.57418 0.11208 0.0
O93 O 0.7989 0.57061 0.13224 0.0
O94 O 0.82579 0.60292 0.09614 0.0
O95 O 0.80858 0.65895 0.13911 0.0
O96 O 0.81347 0.72376 0.14684 0.0
O97 O 0.73028 0.58903 0.10517 0.0
C98 C 0.77301 0.69265 0.07374 0.0
C99 C 0.81369 0.68932 0.15401 0.0
Zn100 Zn 0.84857 0.2163 0.37477 0.0
Zn101 Zn 0.93917 0.20364 0.36667 0.0
C102 C 0.85042 0.29528 0.39151 0.0
O103 O 0.83594 0.27181 0.41177 0.0
C104 C 0.89134 0.11299 0.36633 0.0
O105 O 0.91333 0.12375 0.34551 0.0
O106 O 0.78396 0.1811 0.38298 0.0
O107 O 0.85876 0.20247 0.3392 0.0
O108 O 0.92193 0.20398 0.33254 0.0
C109 C 0.75449 0.16096 0.36673 0.0
O110 O 0.76628 0.15886 0.344 0.0
O111 O 0.85945 0.27877 0.37301 0.0
C112 C 0.0138 0.20434 0.3882 0.0
O113 O 0.99051 0.19863 0.40822 0.0
O114 O 0.9986 0.20783 0.36753 0.0
O115 O 0.94488 0.25622 0.38416 0.0
O116 O 0.88455 0.21581 0.40451 0.0
O117 O 0.8961 0.14375 0.38087 0.0
C118 C 0.88611 0.20002 0.3247 0.0
C119 C 0.92459 0.24564 0.40438 0.0
Zn120 Zn 0.17738 0.38356 0.5912 0.0
Zn121 Zn 0.08564 0.30878 0.60203 0.0
C122 C 0.16541 0.4561 0.57862 0.0
O123 O 0.18399 0.45269 0.55833 0.0
C124 C 0.11502 0.24925 0.61288 0.0
O125 O 0.09112 0.2462 0.63222 0.0
O126 O 0.24224 0.42206 0.58442 0.0
O127 O 0.17274 0.35487 0.62461 0.0
O128 O 0.10635 0.34278 0.63327 0.0
C129 C 0.26369 0.44878 0.60173 0.0
O130 O 0.24308 0.44714 0.62228 0.0
O131 O 0.15699 0.42818 0.59577 0.0
C132 C 1.00893 0.23317 0.58653 0.0
O133 O 0.03314 0.24422 0.56652 0.0
O134 O 0.02346 0.25824 0.60535 0.0
O135 O 0.08663 0.34469 0.57344 0.0
O136 O 0.14686 0.34702 0.56049 0.0
O137 O 0.12004 0.27681 0.59607 0.0
C138 C 0.14432 0.35153 0.64032 0.0
C139 C 0.11042 0.34507 0.55583 0.0
Zn140 Zn 0.22727 0.9369 0.87391 0.0
Zn141 Zn 0.22735 0.84109 0.88225 0.0
C142 C 0.13787 0.90241 0.86767 0.0
O143 O 0.15619 0.92869 0.84875 0.0
C144 C 0.30769 0.84411 0.89656 0.0
O145 O 0.28443 0.82623 0.91653 0.0
O146 O 0.23905 0.99955 0.87446 0.0
O147 O 0.2718 0.93392 0.89495 0.0
O148 O 0.22336 0.87392 0.91283 0.0
C149 C 0.23105 0.01401 0.89419 0.0
O150 O 0.21674 0.98812 0.91356 0.0
O151 O 0.16278 0.89858 0.88345 0.0
C152 C 0.17185 0.74601 0.87443 0.0
O153 O 0.16292 0.75758 0.85309 0.0
O154 O 0.19591 0.77577 0.88982 0.0
O155 O 0.20881 0.8496 0.84734 0.0
O156 O 0.23229 0.92052 0.84027 0.0
O157 O 0.29082 0.85547 0.87924 0.0
C158 C 0.25403 0.91363 0.91455 0.0
C159 C 0.21638 0.88118 0.83265 0.0
Zn160 Zn 0.62993 0.80376 0.59641 0.0
Zn161 Zn 0.74313 0.82216 0.60357 0.0
C162 C 0.55463 0.72412 0.58024 0.0
O163 O 0.55964 0.74906 0.56101 0.0
C164 C 0.79909 0.91082 0.60566 0.0
O165 O 0.80914 0.89364 0.62442 0.0
O166 O 0.59776 0.83765 0.59276 0.0
O167 O 0.66018 0.8179 0.63053 0.0
O168 O 0.72582 0.82446 0.63742 0.0
C169 C 0.57236 0.83368 0.61047 0.0
O170 O 0.57178 0.81129 0.63007 0.0
O171 O 0.58187 0.74011 0.59797 0.0
C172 C 0.81183 0.81363 0.58199 0.0
O173 O 0.80218 0.83201 0.56369 0.0
O174 O 0.79045 0.80573 0.60203 0.0
O175 O 0.69041 0.77598 0.58691 0.0
O176 O 0.66421 0.80939 0.56499 0.0
O177 O 0.76864 0.88493 0.59109 0.0
C178 C 0.69166 0.8246 0.64501 0.0
C179 C 0.68525 0.78865 0.56609 0.0
Zn180 Zn 0.09456 0.26864 0.86199 0.0
Zn181 Zn 0.17576 0.3859 0.8728 0.0
C182 C 0.17231 0.26242 0.87515 0.0
O183 O 0.19149 0.29109 0.85734 0.0
C184 C 0.15455 0.45149 0.89013 0.0
O185 O 0.15782 0.43656 0.91181 0.0
O186 O 0.03714 0.21197 0.85765 0.0
O187 O 0.0799 0.30953 0.87968 0.0
O188 O 0.14005 0.34671 0.90135 0.0
C189 C 0.01955 0.18835 0.87664 0.0
O190 O 0.03911 0.20194 0.89812 0.0
O191 O 0.13328 0.25165 0.8812 0.0
C192 C 0.27095 0.425 0.8667 0.0
O193 O 0.26057 0.4056 0.84503 0.0
O194 O 0.24048 0.41897 0.88162 0.0
O195 O 0.1676 0.36138 0.83786 0.0
O196 O 0.11988 0.29144 0.82915 0.0
O197 O 0.15988 0.43408 0.87076 0.0
C198 C 0.09856 0.32305 0.90032 0.0
C199 C 0.14912 0.32968 0.82252 0.0
Zn200 Zn 0.21766 0.84011 0.60204 0.0
Zn201 Zn 0.18851 0.92671 0.60842 0.0
C202 C 0.30104 0.85393 0.5868 0.0
O203 O 0.27915 0.83807 0.56615 0.0
C204 C 0.10626 0.8488 0.59326 0.0
O205 O 0.11617 0.82726 0.60953 0.0
O206 O 0.18832 0.77471 0.59496 0.0
O207 O 0.19888 0.84826 0.63615 0.0
O208 O 0.18295 0.90179 0.64179 0.0
C209 C 0.19304 0.75149 0.61146 0.0
O210 O 0.21385 0.77086 0.6319 0.0
O211 O 0.28152 0.85889 0.60522 0.0
C212 C 0.18301 1.00253 0.59322 0.0
O213 O 0.17372 0.98129 0.57209 0.0
O214 O 0.19151 0.9859 0.61187 0.0
O215 O 0.24237 0.93678 0.59086 0.0
O216 O 0.21389 0.87281 0.57205 0.0
O217 O 0.1334 0.88911 0.58907 0.0
C218 C 0.18715 0.87003 0.64999 0.0
C219 C 0.23502 0.91466 0.57121 0.0
Zn220 Zn 0.73293 0.78518 0.86624 0.0
Zn221 Zn 0.63433 0.77955 0.87639 0.0
C222 C 0.78077 0.87396 0.85688 0.0
O223 O 0.7852 0.85471 0.8371 0.0
C224 C 0.56705 0.69312 0.89109 0.0
O225 O 0.57618 0.71243 0.91281 0.0
O226 O 0.78902 0.78152 0.86364 0.0
O227 O 0.69627 0.74328 0.89206 0.0
O228 O 0.67157 0.78557 0.90677 0.0
C229 C 0.81402 0.79373 0.8825 0.0
O230 O 0.8007 0.80453 0.90265 0.0
O231 O 0.7557 0.84974 0.87406 0.0
C232 C 0.56839 0.80222 0.8675 0.0
O233 O 0.5672 0.7815 0.84701 0.0
O234 O 0.59665 0.8075 0.88387 0.0
O235 O 0.66114 0.80204 0.84239 0.0
O236 O 0.70278 0.77216 0.83412 0.0
O237 O 0.58931 0.71483 0.87248 0.0
C238 C 0.68437 0.75765 0.91017 0.0
C239 C 0.68088 0.7902 0.82705 0.0
H240 H 0.05238 0.1969 0.04945 0.0
H241 H 0.08002 0.25236 0.12292 0.0
H242 H 0.10968 0.17726 0.05392 0.0
H243 H 0.13813 0.23371 0.12713 0.0
H244 H 0.17958 0.12918 0.13917 0.0
H245 H 0.13556 0.164 0.13254 0.0
H246 H 0.18777 0.20052 0.05881 0.0
H247 H 0.23189 0.1645 0.0654 0.0
C248 C 0.07125 0.2057 0.06639 0.0
C249 C 0.06113 0.2256 0.08599 0.0
C250 C 0.10436 0.19468 0.06887 0.0
C251 C 0.12818 0.2034 0.09099 0.0
C252 C 0.11982 0.22574 0.11001 0.0
C253 C 0.08663 0.23663 0.10756 0.0
C254 C 0.18206 0.14483 0.12155 0.0
C255 C 0.20907 0.14376 0.10274 0.0
C256 C 0.15704 0.16528 0.11784 0.0
C257 C 0.1582 0.1853 0.09519 0.0
C258 C 0.18594 0.18515 0.07644 0.0
C259 C 0.21133 0.16472 0.08023 0.0
H260 H 0.14969 0.94213 0.34921 0.0
H261 H 0.12833 0.96331 0.42529 0.0
H262 H 0.07383 0.88281 0.34621 0.0
H263 H 0.05225 0.90481 0.4221 0.0
H264 H 0.92078 0.77828 0.41247 0.0
H265 H 1.00035 0.82623 0.4167 0.0
H266 H 1.00458 0.88098 0.34465 0.0
H267 H 0.92631 0.83311 0.34028 0.0
C268 C 0.12893 0.93398 0.36534 0.0
C269 C 0.14501 0.95785 0.38739 0.0
C270 C 0.08535 0.90007 0.36361 0.0
C271 C 0.05671 0.88931 0.38384 0.0
C272 C 0.07338 0.9119 0.40621 0.0
C273 C 0.11701 0.94574 0.40797 0.0
C274 C 0.93893 0.80025 0.39748 0.0
C275 C 0.91713 0.80195 0.3761 0.0
C276 C 0.98443 0.82787 0.39994 0.0
C277 C 1.00897 0.85744 0.38098 0.0
C278 C 0.98706 0.8582 0.35945 0.0
C279 C 0.94189 0.8309 0.35705 0.0
H280 H 0.87537 0.0875 0.14885 0.0
H281 H 0.89001 0.09959 0.06975 0.0
H282 H 0.84692 0.00849 0.14567 0.0
H283 H 0.8634 0.02049 0.0665 0.0
H284 H 0.78917 0.8705 0.06694 0.0
H285 H 0.80536 0.94686 0.06999 0.0
H286 H 0.87494 0.96118 0.1383 0.0
H287 H 0.8572 0.88469 0.13571 0.0
C288 C 0.87233 0.07312 0.13073 0.0
C289 C 0.88517 0.09973 0.10956 0.0
C290 C 0.85637 0.02781 0.1289 0.0
C291 C 0.85359 0.00793 0.10588 0.0
C292 C 0.86472 0.0344 0.08455 0.0
C293 C 0.88008 0.0798 0.08637 0.0
C294 C 0.8076 0.88993 0.08271 0.0
C295 C 0.8218 0.87144 0.10111 0.0
C296 C 0.81716 0.93386 0.08438 0.0
C297 C 0.84147 0.96048 0.1044 0.0
C298 C 0.85534 0.94168 0.12286 0.0
C299 C 0.84541 0.89773 0.12131 0.0
H300 H 0.26698 0.22051 0.36249 0.0
H301 H 0.1973 0.11438 0.41436 0.0
H302 H 0.21088 0.24191 0.36685 0.0
H303 H 0.14099 0.13537 0.41836 0.0
H304 H 0.05388 0.1952 0.42931 0.0
H305 H 0.12055 0.18979 0.43128 0.0
H306 H 0.13513 0.20697 0.35229 0.0
H307 H 0.06897 0.21301 0.35034 0.0
C308 C 0.24019 0.20225 0.37519 0.0
C309 C 0.23636 0.16533 0.38781 0.0
C310 C 0.20785 0.21433 0.37753 0.0
C311 C 0.17106 0.18988 0.3926 0.0
C312 C 0.16895 0.15504 0.40665 0.0
C313 C 0.20126 0.14292 0.40429 0.0
C314 C 0.07153 0.19823 0.41238 0.0
C315 C 0.05589 0.20418 0.38962 0.0
C316 C 0.10969 0.19502 0.41353 0.0
C317 C 0.13315 0.19787 0.39196 0.0
C318 C 0.11823 0.20525 0.36932 0.0
C319 C 0.08006 0.20835 0.36816 0.0
H320 H 0.19064 0.9374 0.11545 0.0
H321 H 0.14129 0.98017 0.05462 0.0
H322 H 0.11953 0.87077 0.11925 0.0
H323 H 0.06977 0.91479 0.0591 0.0
H324 H 0.94286 0.7917 0.06874 0.0
H325 H 0.02042 0.83702 0.05798 0.0
H326 H 0.05309 0.86102 0.13549 0.0
H327 H 0.97676 0.81505 0.14604 0.0
C328 C 0.1647 0.93234 0.10274 0.0
C329 C 0.17124 0.96438 0.08507 0.0
C330 C 0.12391 0.89423 0.10495 0.0
C331 C 0.08859 0.88774 0.08981 0.0
C332 C 0.09618 0.91839 0.07097 0.0
C333 C 0.13717 0.95618 0.06854 0.0
C334 C 0.9669 0.8058 0.08341 0.0
C335 C 0.9537 0.80044 0.10821 0.0
C336 C 0.01125 0.832 0.07727 0.0
C337 C 0.04305 0.85314 0.09584 0.0
C338 C 0.02985 0.845 0.12064 0.0
C339 C 0.9858 0.81891 0.12673 0.0
H340 H 0.82487 0.86538 0.43073 0.0
H341 H 0.74704 0.82628 0.36406 0.0
H342 H 0.84117 0.94102 0.42467 0.0
H343 H 0.76222 0.90183 0.35842 0.0
H344 H 0.8645 0.04338 0.33539 0.0
H345 H 0.82819 0.96586 0.34561 0.0
H346 H 0.81921 0.99699 0.42182 0.0
H347 H 0.85687 0.07571 0.4115 0.0
C348 C 0.81031 0.87268 0.41509 0.0
C349 C 0.7854 0.83993 0.39759 0.0
C350 C 0.81943 0.91612 0.41172 0.0
C351 C 0.80363 0.92774 0.39083 0.0
C352 C 0.77575 0.89421 0.37442 0.0
C353 C 0.76685 0.85082 0.37771 0.0
C354 C 0.8544 0.03385 0.35432 0.0
C355 C 0.86405 0.06579 0.3727 0.0
C356 C 0.83305 0.98916 0.36015 0.0
C357 C 0.82069 0.975 0.38456 0.0
C358 C 0.82865 1.00683 0.40286 0.0
C359 C 0.84999 0.05185 0.39696 0.0
H360 H 0.2022 0.05621 0.63365 0.0
H361 H 0.15806 0.04179 0.55804 0.0
H362 H 0.193 0.12069 0.63819 0.0
H363 H 0.14769 0.10539 0.56277 0.0
H364 H 0.15866 0.23932 0.57342 0.0
H365 H 0.18187 0.18418 0.56849 0.0
H366 H 0.13245 0.13382 0.64127 0.0
H367 H 0.11051 0.18921 0.64639 0.0
C368 C 0.19068 0.06687 0.61797 0.0
C369 C 0.18053 0.04359 0.59555 0.0
C370 C 0.18521 0.10374 0.62059 0.0
C371 C 0.16925 0.11812 0.60091 0.0
C372 C 0.1605 0.09565 0.57825 0.0
C373 C 0.16615 0.0589 0.57559 0.0
C374 C 0.15332 0.2168 0.58846 0.0
C375 C 0.13256 0.21857 0.61025 0.0
C376 C 0.16634 0.185 0.58558 0.0
C377 C 0.15894 0.15439 0.60446 0.0
C378 C 0.13931 0.15716 0.62648 0.0
C379 C 0.12637 0.18882 0.62934 0.0
H380 H 0.08665 0.85323 0.90682 0.0
H381 H 0.07903 0.89967 0.83415 0.0
H382 H 1.0068 0.8195 0.91084 0.0
H383 H 1.00038 0.86719 0.83831 0.0
H384 H 0.85528 0.78065 0.843 0.0
H385 H 0.93205 0.7996 0.83999 0.0
H386 H 0.95259 0.84297 0.91592 0.0
H387 H 0.87578 0.82301 0.91911 0.0
C388 C 0.06801 0.85603 0.89168 0.0
C389 C 0.08935 0.87936 0.87023 0.0
C390 C 0.02228 0.83692 0.89401 0.0
C391 C 0.99696 0.8405 0.87487 0.0
C392 C 0.01846 0.863 0.85327 0.0
C393 C 0.06386 0.88208 0.851 0.0
C394 C 0.87601 0.79364 0.85915 0.0
C395 C 0.85935 0.80064 0.88121 0.0
C396 C 0.92016 0.80478 0.8574 0.0
C397 C 0.94881 0.82333 0.87764 0.0
C398 C 0.93158 0.82846 0.90001 0.0
C399 C 0.88745 0.81725 0.90178 0.0
H400 H 0.85775 0.97175 0.63725 0.0
H401 H 0.79534 0.95975 0.5667 0.0
H402 H 0.9009 0.05071 0.63195 0.0
H403 H 0.8386 0.03999 0.56152 0.0
H404 H 0.97254 0.17137 0.55007 0.0
H405 H 0.91555 0.09473 0.55424 0.0
H406 H 0.89782 0.11816 0.63054 0.0
H407 H 0.95578 0.19474 0.62655 0.0
C408 C 0.8529 0.98602 0.62063 0.0
C409 C 0.82325 0.95929 0.6023 0.0
C410 C 0.87742 0.03156 0.61773 0.0
C411 C 0.87309 0.05187 0.59639 0.0
C412 C 0.84287 0.02532 0.57814 0.0
C413 C 0.81802 0.97943 0.58111 0.0
C414 C 0.95606 0.16042 0.56767 0.0
C415 C 0.96924 0.18905 0.58811 0.0
C416 C 0.9231 0.11644 0.56999 0.0
C417 C 0.90249 0.10008 0.5928 0.0
C418 C 0.91367 0.1295 0.61281 0.0
C419 C 0.94672 0.17349 0.61051 0.0
H420 H 0.24981 0.26774 0.86123 0.0
H421 H 0.13773 0.19533 0.90872 0.0
H422 H 0.27332 0.21382 0.86929 0.0
H423 H 0.16068 0.14116 0.9163 0.0
H424 H 0.21769 0.05496 0.93355 0.0
H425 H 0.21312 0.12245 0.93326 0.0
H426 H 0.244 0.13827 0.8555 0.0
H427 H 0.24943 0.07144 0.85589 0.0
C428 C 0.23062 0.24083 0.87375 0.0
C429 C 0.19151 0.23549 0.88402 0.0
C430 C 0.24395 0.20975 0.87822 0.0
C431 C 0.21852 0.17277 0.8931 0.0
C432 C 0.18123 0.16932 0.90484 0.0
C433 C 0.16792 0.20035 0.90039 0.0
C434 C 0.22409 0.07318 0.91646 0.0
C435 C 0.23338 0.05752 0.89466 0.0
C436 C 0.22135 0.1118 0.9163 0.0
C437 C 0.22785 0.13562 0.89433 0.0
C438 C 0.2393 0.12108 0.87282 0.0
C439 C 0.24209 0.08251 0.87299 0.0
H440 H 0.07515 0.8847 0.55967 0.0
H441 H 0.03389 0.77189 0.60738 0.0
H442 H 0.99921 0.86505 0.55325 0.0
H443 H 0.95743 0.75158 0.60046 0.0
H444 H 0.84944 0.78942 0.61844 0.0
H445 H 0.91712 0.78642 0.61608 0.0
H446 H 0.92623 0.81573 0.53816 0.0
H447 H 0.85887 0.81971 0.54065 0.0
C448 C 0.04979 0.85494 0.56823 0.0
C449 C 0.06061 0.83041 0.58446 0.0
C450 C 1.0061 0.84347 0.56441 0.0
C451 C 0.97225 0.80713 0.57669 0.0
C452 C 0.98287 0.78028 0.59114 0.0
C453 C 0.02667 0.79176 0.59496 0.0
C454 C 0.86549 0.79454 0.60072 0.0
C455 C 0.84932 0.80568 0.57985 0.0
C456 C 0.90414 0.79243 0.5993 0.0
C457 C 0.92731 0.80119 0.57695 0.0
C458 C 0.90954 0.80953 0.55573 0.0
C459 C 0.87096 0.81181 0.55717 0.0
H460 H 0.98272 0.12399 0.91165 0.0
H461 H 0.96463 0.1546 0.83687 0.0
H462 H 0.91994 0.05032 0.90714 0.0
H463 H 0.9007 0.08145 0.83262 0.0
H464 H 0.8354 0.93178 0.82271 0.0
H465 H 0.88827 0.00902 0.82808 0.0
H466 H 0.84239 1.00419 0.90261 0.0
H467 H 0.78996 0.9256 0.89742 0.0
C468 C 0.9649 0.11523 0.89435 0.0
C469 C 0.97905 0.14499 0.8745 0.0
C470 C 0.92859 0.07301 0.89183 0.0
C471 C 0.90527 0.05963 0.86945 0.0
C472 C 0.91836 0.0902 0.84996 0.0
C473 C 0.95494 0.13226 0.85241 0.0
C474 C 0.83614 0.94713 0.84021 0.0
C475 C 0.80863 0.92233 0.85971 0.0
C476 C 0.86637 0.99175 0.84323 0.0
C477 C 0.86983 0.01308 0.86581 0.0
C478 C 0.84108 0.98871 0.88507 0.0
C479 C 0.81078 0.94375 0.88206 0.0
H480 H 0.39649 0.1879 0.30474 0.0
H481 H 0.27018 0.07097 0.29467 0.0
H482 H 0.40089 0.20135 0.26024 0.0
H483 H 0.27525 0.08342 0.25071 0.0
H484 H 0.27132 0.12635 0.17603 0.0
H485 H 0.27174 0.13071 0.22079 0.0
H486 H 0.40987 0.17135 0.22156 0.0
H487 H 0.40967 0.16919 0.17635 0.0
C488 C 0.36974 0.1651 0.29308 0.0
C489 C 0.33288 0.12849 0.30328 0.0
C490 C 0.37234 0.17273 0.26761 0.0
C491 C 0.33819 0.1438 0.25194 0.0
C492 C 0.30162 0.10714 0.26225 0.0
C493 C 0.29888 0.09975 0.28754 0.0
C494 C 0.30192 0.137 0.18579 0.0
C495 C 0.3403 0.14674 0.17294 0.0
C496 C 0.30216 0.13925 0.21141 0.0
C497 C 0.34055 0.15014 0.22479 0.0
C498 C 0.37975 0.16284 0.21181 0.0
C499 C 0.37968 0.16148 0.18599 0.0
H500 H 0.80911 0.61781 0.31016 0.0
H501 H 0.78817 0.7295 0.3029 0.0
H502 H 0.8228 0.62041 0.26565 0.0
H503 H 0.80079 0.73132 0.25911 0.0
H504 H 0.85969 0.75494 0.18654 0.0
H505 H 0.8612 0.74937 0.23115 0.0
H506 H 0.78073 0.60775 0.22606 0.0
H507 H 0.78071 0.61329 0.18099 0.0
C508 C 0.80747 0.64283 0.29915 0.0
C509 C 0.79757 0.67344 0.31008 0.0
C510 C 0.81519 0.64421 0.27374 0.0
C511 C 0.81342 0.67641 0.25902 0.0
C512 C 0.80345 0.70678 0.27004 0.0
C513 C 0.79577 0.70542 0.2952 0.0
C514 C 0.84286 0.72256 0.19492 0.0
C515 C 0.81923 0.68461 0.18048 0.0
C516 C 0.8437 0.71936 0.22043 0.0
C517 C 0.82019 0.67823 0.23206 0.0
C518 C 0.79914 0.63987 0.21755 0.0
C519 C 0.7989 0.64304 0.19183 0.0
H520 H 0.95832 0.25733 0.1769 0.0
H521 H 0.81755 0.18744 0.1669 0.0
H522 H 0.94873 0.24339 0.22081 0.0
H523 H 0.80811 0.17333 0.21148 0.0
H524 H 0.82926 0.21627 0.29769 0.0
H525 H 0.82566 0.21902 0.25256 0.0
H526 H 0.9202 0.17443 0.24651 0.0
H527 H 0.92424 0.17209 0.29115 0.0
C528 C 0.92525 0.23901 0.18405 0.0
C529 C 0.88868 0.22328 0.16836 0.0
C530 C 0.91981 0.23078 0.20923 0.0
C531 C 0.87771 0.20676 0.21942 0.0
C532 C 0.84091 0.19184 0.20398 0.0
C533 C 0.84636 0.19982 0.17855 0.0
C534 C 0.84861 0.20631 0.28666 0.0
C535 C 0.87781 0.19499 0.2979 0.0
C536 C 0.84643 0.20775 0.2609 0.0
C537 C 0.87332 0.19776 0.24619 0.0
C538 C 0.89986 0.18321 0.25748 0.0
C539 C 0.90216 0.18192 0.28304 0.0
H540 H 0.20039 0.33089 0.6641 0.0
H541 H 0.10988 0.37922 0.67623 0.0
H542 H 0.21129 0.33056 0.70883 0.0
H543 H 0.12163 0.37987 0.72067 0.0
H544 H 0.18077 0.4076 0.79789 0.0
H545 H 0.18845 0.41856 0.75317 0.0
H546 H 0.15009 0.28151 0.74306 0.0
H547 H 0.14146 0.27015 0.78763 0.0
C548 C 0.1835 0.34215 0.6763 0.0
C549 C 0.15407 0.35478 0.66686 0.0
C550 C 0.1897 0.34191 0.70177 0.0
C551 C 0.16744 0.35543 0.71799 0.0
C552 C 0.13948 0.36978 0.70845 0.0
C553 C 0.13251 0.36905 0.68311 0.0
C554 C 0.17477 0.38004 0.78614 0.0
C555 C 0.16002 0.3379 0.79613 0.0
C556 C 0.17911 0.38633 0.76064 0.0
C557 C 0.16978 0.35083 0.74487 0.0
C558 C 0.15775 0.3094 0.75494 0.0
C559 C 0.15252 0.30288 0.78037 0.0
H560 H 0.19214 0.8048 0.80642 0.0
H561 H 0.21629 0.93835 0.79887 0.0
H562 H 0.17591 0.7929 0.76214 0.0
H563 H 0.20106 0.92674 0.75526 0.0
H564 H 0.14178 0.89193 0.68228 0.0
H565 H 0.14041 0.88581 0.727 0.0
H566 H 0.21765 0.82066 0.72268 0.0
H567 H 0.21794 0.8256 0.67773 0.0
C568 C 0.19382 0.83145 0.79541 0.0
C569 C 0.20567 0.87254 0.80616 0.0
C570 C 0.18465 0.82467 0.77011 0.0
C571 C 0.18678 0.85874 0.75532 0.0
C572 C 0.19819 0.8995 0.76622 0.0
C573 C 0.20745 0.9063 0.79126 0.0
C574 C 0.15789 0.87568 0.69084 0.0
C575 C 0.18077 0.8601 0.67658 0.0
C576 C 0.15713 0.8722 0.71643 0.0
C577 C 0.17972 0.8536 0.72832 0.0
C578 C 0.19988 0.83507 0.71401 0.0
C579 C 0.20025 0.83814 0.68829 0.0
H580 H 0.75837 0.86819 0.67721 0.0
H581 H 0.61696 0.79351 0.67283 0.0
H582 H 0.75429 0.86632 0.72199 0.0
H583 H 0.61296 0.79097 0.718 0.0
H584 H 0.63008 0.81825 0.80305 0.0
H585 H 0.63128 0.83443 0.75893 0.0
H586 H 0.73198 0.79928 0.74762 0.0
H587 H 0.73118 0.78353 0.79114 0.0
C588 C 0.72636 0.85184 0.68587 0.0
C589 C 0.68799 0.83011 0.67164 0.0
C590 C 0.72406 0.85079 0.71146 0.0
C591 C 0.68338 0.82765 0.72335 0.0
C592 C 0.64472 0.80898 0.70921 0.0
C593 C 0.64701 0.81033 0.68343 0.0
C594 C 0.65251 0.81413 0.79108 0.0
C595 C 0.68056 0.79964 0.80057 0.0
C596 C 0.65308 0.82328 0.76591 0.0
C597 C 0.6821 0.81863 0.75002 0.0
C598 C 0.70988 0.804 0.75955 0.0
C599 C 0.70911 0.79458 0.78449 0.0
H600 H 0.20719 0.89137 0.958 0.0
H601 H 0.32257 0.99516 0.9228 0.0
H602 H 0.22258 0.9381 -0.00539 0.0
H603 H 0.33816 0.04099 0.95909 0.0
H604 H 0.33889 0.12963 0.0191 0.0
H605 H 0.31238 0.08273 0.98239 0.0
H606 H 0.27641 0.96784 0.0275 0.0
H607 H 0.30173 0.0141 0.06391 0.0
C608 C 0.23591 0.92389 0.95815 0.0
C609 C 0.26361 0.93954 0.93754 0.0
C610 C 0.24469 0.9507 0.97904 0.0
C611 C 0.28136 0.99349 0.97964 0.0
C612 C 0.30909 0.00872 0.95906 0.0
C613 C 0.30036 0.98213 0.93833 0.0
C614 C 0.32493 0.09434 0.02113 0.0
C615 C 0.32276 0.07571 0.04436 0.0
C616 C 0.30987 0.06747 0.00014 0.0
C617 C 0.29254 0.02154 0.00203 0.0
C618 C 0.28907 1.00293 0.02539 0.0
C619 C 0.30403 0.02966 0.04627 0.0
H620 H 0.69706 0.69394 0.424 0.0
H621 H 0.80632 0.69223 0.45986 0.0
H622 H 0.68809 0.73129 0.45914 0.0
H623 H 0.79771 0.7309 0.49536 0.0
H624 H 0.71889 0.73366 0.56374 0.0
H625 H 0.74379 0.71142 0.52771 0.0
H626 H 0.71895 0.79876 0.48255 0.0
H627 H 0.6929 0.8206 0.51894 0.0
C628 C 0.71956 0.70198 0.43935 0.0
C629 C 0.75232 0.68991 0.43921 0.0
C630 C 0.71468 0.72395 0.45942 0.0
C631 C 0.74235 0.7344 0.47997 0.0
C632 C 0.77569 0.72301 0.47979 0.0
C633 C 0.7806 0.70083 0.45955 0.0
C634 C 0.71913 0.7486 0.54619 0.0
C635 C 0.70356 0.77866 0.54412 0.0
C636 C 0.7339 0.73611 0.52555 0.0
C637 C 0.73326 0.75318 0.50226 0.0
C638 C 0.71929 0.7846 0.50027 0.0
C639 C 0.7044 0.79713 0.52103 0.0
H640 H 1.0094 0.27499 0.90354 0.0
H641 H 0.12636 0.34631 0.94794 0.0
H642 H 0.96423 0.25942 0.94022 0.0
H643 H 0.0811 0.3296 0.98475 0.0
H644 H 0.99151 0.33617 0.04103 0.0
H645 H 0.03149 0.35114 0.00245 0.0
H646 H 0.94424 0.21745 0.97848 0.0
H647 H 0.90327 0.20285 0.01716 0.0
C648 C 0.02552 0.28717 0.92116 0.0
C649 C 0.07152 0.31224 0.92282 0.0
C650 C 0.99956 0.27795 0.94219 0.0
C651 C 0.01903 0.29357 0.96534 0.0
C652 C 0.06506 0.31787 0.96707 0.0
C653 C 0.09104 0.32721 0.94603 0.0
C654 C 0.98049 0.31014 0.02736 0.0
C655 C 0.94453 0.26828 0.03207 0.0
C656 C 1.00365 0.31859 0.00537 0.0
C657 C 0.99164 0.28522 0.98765 0.0
C658 C 0.95424 0.24387 -0.0082 0.0
C659 C 0.93071 0.2355 0.01385 0.0
H660 H 0.26634 0.99159 0.41756 0.0
H661 H 0.3646 0.10821 0.45508 0.0
H662 H 0.24383 0.9529 0.45655 0.0
H663 H 0.34346 0.06861 0.4942 0.0
H664 H 0.2623 1.00112 0.56229 0.0
H665 H 0.28556 0.04007 0.52331 0.0
H666 H 0.26603 0.92073 0.4877 0.0
H667 H 0.2407 0.88119 0.52663 0.0
C668 C 0.28339 0.00892 0.43415 0.0
C669 C 0.31705 0.05312 0.43327 0.0
C670 C 0.27072 0.98652 0.45652 0.0
C671 C 0.29188 0.00753 0.47854 0.0
C672 C 0.32598 0.05164 0.47763 0.0
C673 C 0.33828 0.07429 0.45522 0.0
C674 C 0.26283 0.98312 0.54612 0.0
C675 C 0.24939 0.938 0.54746 0.0
C676 C 0.27657 1.0056 0.5238 0.0
C677 C 0.27782 0.98363 0.50235 0.0
C678 C 0.26478 0.93852 0.50377 0.0
C679 C 0.25043 0.91586 0.52608 0.0
H680 H 0.79549 0.68024 0.0273 0.0
H681 H 0.71153 0.71744 0.06661 0.0
H682 H 0.77012 0.69429 -0.01174 0.0
H683 H 0.68535 0.7303 0.02766 0.0
H684 H 0.69321 0.80074 0.95392 0.0
H685 H 0.71209 0.78254 -0.00599 0.0
H686 H 0.70623 0.66601 0.96233 0.0
H687 H 0.68873 0.68481 0.92241 0.0
C688 C 0.77125 0.69088 0.02759 0.0
C689 C 0.75573 0.698 0.04998 0.0
C690 C 0.75655 0.69877 0.00525 0.0
C691 C 0.72577 0.71352 0.00491 0.0
C692 C 0.70959 0.71967 0.02733 0.0
C693 C 0.72444 0.71204 0.04962 0.0
C694 C 0.69544 0.771 0.95569 0.0
C695 C 0.69002 0.74448 0.93507 0.0
C696 C 0.70618 0.7605 0.9786 0.0
C697 C 0.71122 0.72311 0.98122 0.0
C698 C 0.70367 0.69559 0.96078 0.0
C699 C 0.69335 0.70624 0.93795 0.0
H700 H 0.07164 0.38574 0.53364 0.0
H701 H 0.10375 0.28232 0.52346 0.0
H702 H 0.02655 0.3619 0.49627 0.0
H703 H 0.05727 0.25746 0.4863 0.0
H704 H 0.91525 0.20087 0.44748 0.0
H705 H 0.96566 0.22692 0.48297 0.0
H706 H 0.04296 0.35272 0.44735 0.0
H707 H 0.99363 0.32658 0.4118 0.0
C708 C 0.06966 0.35847 0.52303 0.0
C709 C 0.09136 0.33609 0.53104 0.0
C710 C 0.04376 0.34473 0.50186 0.0
C711 C 0.03827 0.30767 0.48878 0.0
C712 C 0.06096 0.28596 0.49634 0.0
C713 C 0.08788 0.30048 0.51725 0.0
C714 C 0.94272 0.2342 0.44746 0.0
C715 C 0.95062 0.26189 0.42709 0.0
C716 C 0.97172 0.24881 0.4675 0.0
C717 C 1.00817 0.29155 0.46756 0.0
C718 C 0.01515 0.31959 0.44755 0.0
C719 C 0.98689 0.30471 0.42737 0.0
H720 H 0.71981 0.17474 0.06112 0.0
H721 H 0.71378 0.21064 0.13674 0.0
H722 H 0.64418 0.15829 0.05477 0.0
H723 H 0.63901 0.19517 0.13028 0.0
H724 H 0.4949 0.13745 0.11794 0.0
H725 H 0.5643 0.13808 0.12276 0.0
H726 H 0.60657 0.201 0.05171 0.0
H727 H 0.53688 0.19948 0.04663 0.0
C728 C 0.70226 0.17873 0.07643 0.0
C729 C 0.72291 0.19422 0.0994 0.0
C730 C 0.65904 0.16956 0.07276 0.0
C731 C 0.63555 0.17553 0.09199 0.0
C732 C 0.65584 0.18961 0.11515 0.0
C733 C 0.69893 0.19883 0.1188 0.0
C734 C 0.51877 0.15091 0.1032 0.0
C735 C 0.51049 0.1688 0.082 0.0
C736 C 0.55864 0.15145 0.10602 0.0
C737 C 0.59119 0.16996 0.08772 0.0
C738 C 0.58211 0.18611 0.06606 0.0
C739 C 0.54221 0.18551 0.06323 0.0
H740 H 0.65113 0.50744 0.35777 0.0
H741 H 0.63375 0.49406 0.43677 0.0
H742 H 0.58371 0.43777 0.35204 0.0
H743 H 0.56538 0.42498 0.43105 0.0
H744 H 0.48439 0.27734 0.41172 0.0
H745 H 0.54395 0.35162 0.41926 0.0
H746 H 0.50586 0.39753 0.35481 0.0
H747 H 0.44695 0.32258 0.34679 0.0
C748 C 0.63248 0.49003 0.37393 0.0
C749 C 0.64807 0.50617 0.39775 0.0
C750 C 0.59357 0.45009 0.37064 0.0
C751 C 0.56905 0.42541 0.39108 0.0
C752 C 0.58377 0.44258 0.41488 0.0
C753 C 0.62288 0.48238 0.41817 0.0
C754 C 0.48833 0.30331 0.39929 0.0
C755 C 0.46104 0.29385 0.37853 0.0
C756 C 0.52245 0.34613 0.4037 0.0
C757 C 0.53003 0.38076 0.38758 0.0
C758 C 0.50155 0.3716 0.36738 0.0
C759 C 0.46754 0.32864 0.36287 0.0
H760 H 0.89588 0.36951 0.11938 0.0
H761 H 0.84126 0.36055 0.04675 0.0
H762 H 0.89356 0.43723 0.12706 0.0
H763 H 0.838 0.42749 0.05462 0.0
H764 H 0.85891 0.56388 0.06997 0.0
H765 H 0.87782 0.50648 0.06141 0.0
H766 H 0.83593 0.45422 0.13475 0.0
H767 H 0.81804 0.51175 0.14341 0.0
C768 C 0.88379 0.38218 0.10495 0.0
C769 C 0.86841 0.35935 0.08253 0.0
C770 C 0.88221 0.42089 0.10941 0.0
C771 C 0.8652 0.43767 0.09155 0.0
C772 C 0.8517 0.41586 0.06871 0.0
C773 C 0.85331 0.37722 0.06426 0.0
C774 C 0.85434 0.54049 0.08435 0.0
C775 C 0.83673 0.5423 0.10733 0.0
C776 C 0.86493 0.50742 0.07941 0.0
C777 C 0.85827 0.47556 0.09735 0.0
C778 C 0.84208 0.47845 0.12058 0.0
C779 C 0.83148 0.51136 0.1255 0.0
H780 H 0.50207 0.13883 0.35003 0.0
H781 H 0.5033 0.11261 0.4278 0.0
H782 H 0.57098 0.13906 0.34481 0.0
H783 H 0.57169 0.11139 0.42246 0.0
H784 H 0.72114 0.17718 0.40852 0.0
H785 H 0.64684 0.16321 0.41518 0.0
H786 H 0.6078 0.09729 0.34456 0.0
H787 H 0.68267 0.11265 0.33755 0.0
C788 C 0.51666 0.13235 0.36596 0.0
C789 C 0.49732 0.12607 0.38937 0.0
C790 C 0.55613 0.13218 0.36294 0.0
C791 C 0.57714 0.1254 0.38323 0.0
C792 C 0.55688 0.11746 0.40649 0.0
C793 C 0.5175 0.11792 0.40954 0.0
C794 C 0.69658 0.15911 0.39456 0.0
C795 C 0.70798 0.14641 0.37239 0.0
C796 C 0.6538 0.15089 0.39843 0.0
C797 C 0.62125 0.12946 0.38031 0.0
C798 C 0.63219 0.1147 0.3587 0.0
C799 C 0.67508 0.12322 0.35475 0.0
H800 H 0.46568 0.31577 0.06847 0.0
H801 H 0.51077 0.32031 0.14319 0.0
H802 H 0.52352 0.39202 0.06232 0.0
H803 H 0.56881 0.39568 0.1369 0.0
H804 H 0.65571 0.53986 0.12533 0.0
H805 H 0.58691 0.47103 0.13039 0.0
H806 H 0.60267 0.42913 0.05791 0.0
H807 H 0.67079 0.49833 0.05261 0.0
C808 C 0.48757 0.33315 0.08366 0.0
C809 C 0.4838 0.31186 0.10626 0.0
C810 C 0.52088 0.37674 0.08009 0.0
C811 C 0.55098 0.39993 0.09907 0.0
C812 C 0.54594 0.3791 0.12197 0.0
C813 C 0.51277 0.33566 0.12552 0.0
C814 C 0.64418 0.51623 0.11034 0.0
C815 C 0.66899 0.5244 0.08867 0.0
C816 C 0.60484 0.47667 0.11328 0.0
C817 C 0.58946 0.44433 0.09467 0.0
C818 C 0.61327 0.45344 0.07254 0.0
C819 C 0.65255 0.49305 0.06956 0.0
H820 H 0.79834 0.49568 0.33828 0.0
H821 H 0.84398 0.5415 0.41231 0.0
H822 H 0.8161 0.43719 0.34339 0.0
H823 H 0.86278 0.48319 0.41726 0.0
H824 H 0.82732 0.33659 0.42643 0.0
H825 H 0.82296 0.40368 0.42186 0.0
H826 H 0.87404 0.41965 0.34781 0.0
H827 H 0.87742 0.35185 0.35217 0.0
C828 C 0.81279 0.4937 0.35556 0.0
C829 C 0.81942 0.52313 0.37495 0.0
C830 C 0.8233 0.46025 0.35843 0.0
C831 C 0.84079 0.45532 0.38076 0.0
C832 C 0.84883 0.48569 0.39992 0.0
C833 C 0.83832 0.51928 0.39703 0.0
C834 C 0.83805 0.35461 0.40924 0.0
C835 C 0.85228 0.33855 0.38957 0.0
C836 C 0.83583 0.39332 0.40668 0.0
C837 C 0.84787 0.41698 0.3844 0.0
C838 C 0.86381 0.40185 0.36508 0.0
C839 C 0.86596 0.36308 0.36763 0.0
H840 H 0.20002 0.69461 0.64307 0.0
H841 H 0.15597 0.70218 0.56972 0.0
H842 H 0.18573 0.62032 0.63466 0.0
H843 H 0.14056 0.62701 0.56145 0.0
H844 H 0.18461 0.52342 0.54653 0.0
H845 H 0.18375 0.59154 0.55448 0.0
H846 H 0.1312 0.54473 0.62723 0.0
H847 H 0.13312 0.47681 0.61947 0.0
C848 C 0.18661 0.68017 0.62525 0.0
C849 C 0.17951 0.70455 0.607 0.0
C850 C 0.17807 0.63731 0.62048 0.0
C851 C 0.1621 0.61761 0.59734 0.0
C852 C 0.15342 0.64139 0.57936 0.0
C853 C 0.162 0.68439 0.58414 0.0
C854 C 0.17236 0.52736 0.56413 0.0
C855 C 0.15938 0.49482 0.58246 0.0
C856 C 0.17158 0.56639 0.56863 0.0
C857 C 0.1577 0.57385 0.59157 0.0
C858 C 0.14278 0.54039 0.6095 0.0
C859 C 0.14363 0.50133 0.60501 0.0
H860 H 0.35033 0.8187 0.92923 0.0
H861 H 0.36261 0.87416 0.85653 0.0
H862 H 0.41678 0.81462 0.92246 0.0
H863 H 0.42981 0.87098 0.84995 0.0
H864 H 0.5065 0.79735 0.83525 0.0
H865 H 0.44773 0.81356 0.84286 0.0
H866 H 0.49565 0.85489 0.91706 0.0
H867 H 0.55432 0.8377 0.90955 0.0
C868 C 0.36756 0.83068 0.91192 0.0
C869 C 0.35083 0.8464 0.89334 0.0
C870 C 0.40593 0.82859 0.9081 0.0
C871 C 0.42862 0.84219 0.88559 0.0
C872 C 0.41281 0.85953 0.86736 0.0
C873 C 0.37439 0.86162 0.87119 0.0
C874 C 0.50483 0.81023 0.85316 0.0
C875 C 0.53506 0.81597 0.87184 0.0
C876 C 0.47121 0.81987 0.85747 0.0
C877 C 0.4668 0.83554 0.88059 0.0
C878 C 0.49773 0.84239 0.89912 0.0
C879 C 0.53154 0.83279 0.89478 0.0
H880 H 0.53332 0.66434 0.61769 0.0
H881 H 0.48782 0.68279 0.54698 0.0
H882 H 0.46637 0.5935 0.62214 0.0
H883 H 0.42055 0.61254 0.55169 0.0
H884 H 0.31389 0.47012 0.55972 0.0
H885 H 0.38757 0.53278 0.55372 0.0
H886 H 0.3904 0.57045 0.62994 0.0
H887 H 0.31767 0.50774 0.63603 0.0
C888 C 0.50918 0.65319 0.60303 0.0
C889 C 0.5158 0.67943 0.58207 0.0
C890 C 0.47069 0.61266 0.60563 0.0
C891 C 0.43788 0.59743 0.58736 0.0
C892 C 0.44528 0.62296 0.566 0.0
C893 C 0.48378 0.66346 0.56338 0.0
C894 C 0.33055 0.49146 0.57525 0.0
C895 C 0.30979 0.48402 0.59832 0.0
C896 C 0.37264 0.52753 0.57178 0.0
C897 C 0.39489 0.55679 0.59132 0.0
C898 C 0.37458 0.54836 0.61455 0.0
C899 C 0.33262 0.51247 0.618 0.0
H900 H 0.12111 0.67403 0.84558 0.0
H901 H 0.19618 0.7128 0.91325 0.0
H902 H 0.1094 0.59951 0.85028 0.0
H903 H 0.18551 0.63881 0.91758 0.0
H904 H 0.13921 0.49459 0.92763 0.0
H905 H 0.1353 0.5623 0.92513 0.0
H906 H 0.15387 0.5652 0.84621 0.0
H907 H 0.15657 0.497 0.84864 0.0
C908 C 0.13476 0.66658 0.86159 0.0
C909 C 0.15984 0.6995 0.87894 0.0
C910 C 0.1283 0.62391 0.86419 0.0
C911 C 0.14689 0.61319 0.88417 0.0
C912 C 0.17031 0.64566 0.9021 0.0
C913 C 0.17661 0.68825 0.89954 0.0
C914 C 0.14198 0.50944 0.90971 0.0
C915 C 0.14851 0.49053 0.88836 0.0
C916 C 0.13996 0.5484 0.90829 0.0
C917 C 0.14455 0.56945 0.8855 0.0
C918 C 0.14963 0.54968 0.86405 0.0
C919 C 0.15148 0.51064 0.86546 0.0
H920 H 0.34828 0.83691 0.55291 0.0
H921 H 0.35608 0.88829 0.62644 0.0
H922 H 0.41902 0.84122 0.55882 0.0
H923 H 0.42754 0.89375 0.63211 0.0
H924 H 0.51206 0.82696 0.64433 0.0
H925 H 0.45121 0.84047 0.6381 0.0
H926 H 0.49727 0.88737 0.56437 0.0
H927 H 0.55785 0.8727 0.57041 0.0
C928 C 0.36545 0.84989 0.57018 0.0
C929 C 0.34629 0.8617 0.58933 0.0
C930 C 0.40623 0.85268 0.57351 0.0
C931 C 0.42885 0.86755 0.59602 0.0
C932 C 0.41063 0.88145 0.61471 0.0
C933 C 0.36975 0.87848 0.61142 0.0
C934 C 0.50964 0.84073 0.62689 0.0
C935 C 0.53953 0.84828 0.60777 0.0
C936 C 0.47484 0.8488 0.62337 0.0
C937 C 0.46915 0.86475 0.60066 0.0
C938 C 0.50035 0.87443 0.58195 0.0
C939 C 0.53521 0.8663 0.58547 0.0
H940 H 0.52723 0.65112 0.84807 0.0
H941 H 0.51816 0.635 0.92721 0.0
H942 H 0.45811 0.58258 0.84339 0.0
H943 H 0.44975 0.56568 0.92254 0.0
H944 H 0.30197 0.48197 0.90584 0.0
H945 H 0.37591 0.54283 0.91213 0.0
H946 H 0.41899 0.50436 0.84669 0.0
H947 H 0.34446 0.44419 0.83996 0.0
C948 C 0.51093 0.6325 0.86446 0.0
C949 C 0.52806 0.64877 0.88802 0.0
C950 C 0.47129 0.59298 0.86178 0.0
C951 C 0.44796 0.56857 0.8826 0.0
C952 C 0.46623 0.58396 0.90611 0.0
C953 C 0.50567 0.62363 0.90878 0.0
C954 C 0.32729 0.4861 0.89294 0.0
C955 C 0.31713 0.45834 0.87228 0.0
C956 C 0.3699 0.52098 0.89662 0.0
C957 C 0.4036 0.52886 0.87984 0.0
C958 C 0.39378 0.49988 0.85975 0.0
C959 C 0.35106 0.46513 0.85598 0.0
loop_
_geom_bond_atom_site_label_1
_geom_bond_atom_site_label_2
_geom_bond_distance
_geom_bond_site_symmetry_2
_ccdc_geom_bond_type
Zn0 O6 1.969 . S
Zn0 O7 1.965 . S
Zn0 O11 2.024 . S
Zn0 O16 1.969 . S
Zn1 O8 1.969 . S
Zn1 O14 1.969 . S
Zn1 O15 1.965 . S
Zn1 O17 2.024 . S
C2 O3 1.229 . S
C2 O11 1.058 . S
O3 C2 1.229 . S
C4 O5 1.229 . S
C4 O17 1.058 . S
O5 C4 1.229 . S
O6 Zn0 1.969 . S
O6 C9 1.267 . S
O7 Zn0 1.965 . S
O7 C18 1.260 . S
O8 Zn1 1.969 . S
O8 C18 1.258 . S
C9 O6 1.267 . S
C9 O10 1.228 . S
O10 C9 1.228 . S
O11 Zn0 2.024 . S
O11 C2 1.058 . S
C12 O13 1.228 . S
C12 O14 1.267 . S
O13 C12 1.228 . S
O14 Zn1 1.969 . S
O14 C12 1.267 . S
O15 Zn1 1.965 . S
O15 C19 1.260 . S
O16 Zn0 1.969 . S
O16 C19 1.258 . S
O17 Zn1 2.024 . S
O17 C4 1.058 . S
C18 O7 1.260 . S
C18 O8 1.258 . S
C19 O15 1.260 . S
C19 O16 1.258 . S
Zn20 O26 1.969 . S
Zn20 O27 1.965 . S
Zn20 O31 2.024 . S
Zn20 O36 1.969 . S
Zn21 O28 1.969 . S
Zn21 O34 1.969 . S
Zn21 O35 1.965 . S
Zn21 O37 2.024 . S
C22 O23 1.229 . S
C22 O31 1.058 . S
O23 C22 1.229 . S
C24 O25 1.229 . S
C24 O37 1.058 . S
O25 C24 1.229 . S
O26 Zn20 1.969 . S
O26 C29 1.267 . S
O27 Zn20 1.965 . S
O27 C38 1.260 . S
O28 Zn21 1.969 . S
O28 C38 1.258 . S
C29 O26 1.267 . S
C29 O30 1.228 . S
O30 C29 1.228 . S
O31 Zn20 2.024 . S
O31 C22 1.058 . S
C32 O33 1.228 . S
C32 O34 1.267 . S
O33 C32 1.228 . S
O34 Zn21 1.969 . S
O34 C32 1.267 . S
O35 Zn21 1.965 . S
O35 C39 1.260 . S
O36 Zn20 1.969 . S
O36 C39 1.258 . S
O37 Zn21 2.024 . S
O37 C24 1.058 . S
C38 O27 1.260 . S
C38 O28 1.258 . S
C39 O35 1.260 . S
C39 O36 1.258 . S
Zn40 O46 1.969 . S
Zn40 O47 1.965 . S
Zn40 O51 2.024 . S
Zn40 O56 1.969 . S
Zn41 O48 1.969 . S
Zn41 O54 1.969 . S
Zn41 O55 1.965 . S
Zn41 O57 2.024 . S
C42 O43 1.229 . S
C42 O51 1.058 . S
O43 C42 1.229 . S
C44 O45 1.229 . S
C44 O57 1.058 . S
O45 C44 1.229 . S
O46 Zn40 1.969 . S
O46 C49 1.267 . S
O47 Zn40 1.965 . S
O47 C58 1.260 . S
O48 Zn41 1.969 . S
O48 C58 1.258 . S
C49 O46 1.267 . S
C49 O50 1.228 . S
O50 C49 1.228 . S
O51 Zn40 2.024 . S
O51 C42 1.058 . S
C52 O53 1.228 . S
C52 O54 1.267 . S
O53 C52 1.228 . S
O54 Zn41 1.969 . S
O54 C52 1.267 . S
O55 Zn41 1.965 . S
O55 C59 1.260 . S
O56 Zn40 1.969 . S
O56 C59 1.258 . S
O57 Zn41 2.024 . S
O57 C44 1.058 . S
C58 O47 1.260 . S
C58 O48 1.258 . S
C59 O55 1.260 . S
C59 O56 1.258 . S
Zn60 O66 1.969 . S
Zn60 O67 1.965 . S
Zn60 O71 2.024 . S
Zn60 O76 1.969 . S
Zn61 O68 1.969 . S
Zn61 O74 1.969 . S
Zn61 O75 1.965 . S
Zn61 O77 2.024 . S
C62 O63 1.229 . S
C62 O71 1.058 . S
O63 C62 1.229 . S
C64 O65 1.229 . S
C64 O77 1.058 . S
O65 C64 1.229 . S
O66 Zn60 1.969 . S
O66 C69 1.267 . S
O67 Zn60 1.965 . S
O67 C78 1.260 . S
O68 Zn61 1.969 . S
O68 C78 1.258 . S
C69 O66 1.267 . S
C69 O70 1.228 . S
O70 C69 1.228 . S
O71 Zn60 2.024 . S
O71 C62 1.058 . S
C72 O73 1.228 . S
C72 O74 1.267 . S
O73 C72 1.228 . S
O74 Zn61 1.969 . S
O74 C72 1.267 . S
O75 Zn61 1.965 . S
O75 C79 1.260 . S
O76 Zn60 1.969 . S
O76 C79 1.258 . S
O77 Zn61 2.024 . S
O77 C64 1.058 . S
C78 O67 1.260 . S
C78 O68 1.258 . S
C79 O75 1.260 . S
C79 O76 1.258 . S
Zn80 O86 1.969 . S
Zn80 O87 1.965 . S
Zn80 O91 2.024 . S
Zn80 O96 1.969 . S
Zn81 O88 1.969 . S
Zn81 O94 1.969 . S
Zn81 O95 1.965 . S
Zn81 O97 2.024 . S
C82 O83 1.229 . S
C82 O91 1.058 . S
O83 C82 1.229 . S
C84 O85 1.229 . S
C84 O97 1.058 . S
O85 C84 1.229 . S
O86 Zn80 1.969 . S
O86 C89 1.267 . S
O87 Zn80 1.965 . S
O87 C98 1.260 . S
O88 Zn81 1.969 . S
O88 C98 1.258 . S
C89 O86 1.267 . S
C89 O90 1.228 . S
O90 C89 1.228 . S
O91 Zn80 2.024 . S
O91 C82 1.058 . S
C92 O93 1.228 . S
C92 O94 1.267 . S
O93 C92 1.228 . S
O94 Zn81 1.969 . S
O94 C92 1.267 . S
O95 Zn81 1.965 . S
O95 C99 1.260 . S
O96 Zn80 1.969 . S
O96 C99 1.258 . S
O97 Zn81 2.024 . S
O97 C84 1.058 . S
C98 O87 1.260 . S
C98 O88 1.258 . S
C99 O95 1.260 . S
C99 O96 1.258 . S
Zn100 O106 1.969 . S
Zn100 O107 1.965 . S
Zn100 O111 2.024 . S
Zn100 O116 1.969 . S
Zn101 O108 1.969 . S
Zn101 O114 1.969 . S
Zn101 O115 1.965 . S
Zn101 O117 2.024 . S
C102 O103 1.229 . S
C102 O111 1.058 . S
O103 C102 1.229 . S
C104 O105 1.229 . S
C104 O117 1.058 . S
O105 C104 1.229 . S
O106 Zn100 1.969 . S
O106 C109 1.267 . S
O107 Zn100 1.965 . S
O107 C118 1.260 . S
O108 Zn101 1.969 . S
O108 C118 1.258 . S
C109 O106 1.267 . S
C109 O110 1.228 . S
O110 C109 1.228 . S
O111 Zn100 2.024 . S
O111 C102 1.058 . S
C112 O113 1.228 . S
C112 O114 1.267 . S
O113 C112 1.228 . S
O114 Zn101 1.969 . S
O114 C112 1.267 . S
O115 Zn101 1.965 . S
O115 C119 1.260 . S
O116 Zn100 1.969 . S
O116 C119 1.258 . S
O117 Zn101 2.024 . S
O117 C104 1.058 . S
C118 O107 1.260 . S
C118 O108 1.258 . S
C119 O115 1.260 . S
C119 O116 1.258 . S
Zn120 O126 1.969 . S
Zn120 O127 1.965 . S
Zn120 O131 2.024 . S
Zn120 O136 1.969 . S
Zn121 O128 1.969 . S
Zn121 O134 1.969 . S
Zn121 O135 1.965 . S
Zn121 O137 2.024 . S
C122 O123 1.229 . S
C122 O131 1.058 . S
O123 C122 1.229 . S
C124 O125 1.229 . S
C124 O137 1.058 . S
O125 C124 1.229 . S
O126 Zn120 1.969 . S
O126 C129 1.267 . S
O127 Zn120 1.965 . S
O127 C138 1.260 . S
O128 Zn121 1.969 . S
O128 C138 1.258 . S
C129 O126 1.267 . S
C129 O130 1.228 . S
O130 C129 1.228 . S
O131 Zn120 2.024 . S
O131 C122 1.058 . S
C132 O133 1.228 . S
C132 O134 1.267 . S
O133 C132 1.228 . S
O134 Zn121 1.969 . S
O134 C132 1.267 . S
O135 Zn121 1.965 . S
O135 C139 1.260 . S
O136 Zn120 1.969 . S
O136 C139 1.258 . S
O137 Zn121 2.024 . S
O137 C124 1.058 . S
C138 O127 1.260 . S
C138 O128 1.258 . S
C139 O135 1.260 . S
C139 O136 1.258 . S
Zn140 O146 1.969 . S
Zn140 O147 1.965 . S
Zn140 O151 2.024 . S
Zn140 O156 1.969 . S
Zn141 O148 1.969 . S
Zn141 O154 1.969 . S
Zn141 O155 1.965 . S
Zn141 O157 2.024 . S
C142 O143 1.229 . S
C142 O151 1.058 . S
O143 C142 1.229 . S
C144 O145 1.229 . S
C144 O157 1.058 . S
O145 C144 1.229 . S
O146 Zn140 1.969 . S
O146 C149 1.267 . S
O147 Zn140 1.965 . S
O147 C158 1.260 . S
O148 Zn141 1.969 . S
O148 C158 1.258 . S
C149 O146 1.267 . S
C149 O150 1.228 . S
O150 C149 1.228 . S
O151 Zn140 2.024 . S
O151 C142 1.058 . S
C152 O153 1.228 . S
C152 O154 1.267 . S
O153 C152 1.228 . S
O154 Zn141 1.969 . S
O154 C152 1.267 . S
O155 Zn141 1.965 . S
O155 C159 1.260 . S
O156 Zn140 1.969 . S
O156 C159 1.258 . S
O157 Zn141 2.024 . S
O157 C144 1.058 . S
C158 O147 1.260 . S
C158 O148 1.258 . S
C159 O155 1.260 . S
C159 O156 1.258 . S
Zn160 O166 1.969 . S
Zn160 O167 1.965 . S
Zn160 O171 2.024 . S
Zn160 O176 1.969 . S
Zn161 O168 1.969 . S
Zn161 O174 1.969 . S
Zn161 O175 1.965 . S
Zn161 O177 2.024 . S
C162 O163 1.229 . S
C162 O171 1.058 . S
O163 C162 1.229 . S
C164 O165 1.229 . S
C164 O177 1.058 . S
O165 C164 1.229 . S
O166 Zn160 1.969 . S
O166 C169 1.267 . S
O167 Zn160 1.965 . S
O167 C178 1.260 . S
O168 Zn161 1.969 . S
O168 C178 1.258 . S
C169 O166 1.267 . S
C169 O170 1.228 . S
O170 C169 1.228 . S
O171 Zn160 2.024 . S
O171 C162 1.058 . S
C172 O173 1.228 . S
C172 O174 1.267 . S
O173 C172 1.228 . S
O174 Zn161 1.969 . S
O174 C172 1.267 . S
O175 Zn161 1.965 . S
O175 C179 1.260 . S
O176 Zn160 1.969 . S
O176 C179 1.258 . S
O177 Zn161 2.024 . S
O177 C164 1.058 . S
C178 O167 1.260 . S
C178 O168 1.258 . S
C179 O175 1.260 . S
C179 O176 1.258 . S
Zn180 O186 1.969 . S
Zn180 O187 1.965 . S
Zn180 O191 2.024 . S
Zn180 O196 1.969 . S
Zn181 O188 1.969 . S
Zn181 O194 1.969 . S
Zn181 O195 1.965 . S
Zn181 O197 2.024 . S
C182 O183 1.229 . S
C182 O191 1.058 . S
O183 C182 1.229 . S
C184 O185 1.229 . S
C184 O197 1.058 . S
O185 C184 1.229 . S
O186 Zn180 1.969 . S
O186 C189 1.267 . S
O187 Zn180 1.965 . S
O187 C198 1.260 . S
O188 Zn181 1.969 . S
O188 C198 1.258 . S
C189 O186 1.267 . S
C189 O190 1.228 . S
O190 C189 1.228 . S
O191 Zn180 2.024 . S
O191 C182 1.058 . S
C192 O193 1.228 . S
C192 O194 1.267 . S
O193 C192 1.228 . S
O194 Zn181 1.969 . S
O194 C192 1.267 . S
O195 Zn181 1.965 . S
O195 C199 1.260 . S
O196 Zn180 1.969 . S
O196 C199 1.258 . S
O197 Zn181 2.024 . S
O197 C184 1.058 . S
C198 O187 1.260 . S
C198 O188 1.258 . S
C199 O195 1.260 . S
C199 O196 1.258 . S
Zn200 O206 1.969 . S
Zn200 O207 1.965 . S
Zn200 O211 2.024 . S
Zn200 O216 1.969 . S
Zn201 O208 1.969 . S
Zn201 O214 1.969 . S
Zn201 O215 1.965 . S
Zn201 O217 2.024 . S
C202 O203 1.229 . S
C202 O211 1.058 . S
O203 C202 1.229 . S
C204 O205 1.229 . S
C204 O217 1.058 . S
O205 C204 1.229 . S
O206 Zn200 1.969 . S
O206 C209 1.267 . S
O207 Zn200 1.965 . S
O207 C218 1.260 . S
O208 Zn201 1.969 . S
O208 C218 1.258 . S
C209 O206 1.267 . S
C209 O210 1.228 . S
O210 C209 1.228 . S
O211 Zn200 2.024 . S
O211 C202 1.058 . S
C212 O213 1.228 . S
C212 O214 1.267 . S
O213 C212 1.228 . S
O214 Zn201 1.969 . S
O214 C212 1.267 . S
O215 Zn201 1.965 . S
O215 C219 1.260 . S
O216 Zn200 1.969 . S
O216 C219 1.258 . S
O217 Zn201 2.024 . S
O217 C204 1.058 . S
C218 O207 1.260 . S
C218 O208 1.258 . S
C219 O215 1.260 . S
C219 O216 1.258 . S
Zn220 O226 1.969 . S
Zn220 O227 1.965 . S
Zn220 O231 2.024 . S
Zn220 O236 1.969 . S
Zn221 O228 1.969 . S
Zn221 O234 1.969 . S
Zn221 O235 1.965 . S
Zn221 O237 2.024 . S
C222 O223 1.229 . S
C222 O231 1.058 . S
O223 C222 1.229 . S
C224 O225 1.229 . S
C224 O237 1.058 . S
O225 C224 1.229 . S
O226 Zn220 1.969 . S
O226 C229 1.267 . S
O227 Zn220 1.965 . S
O227 C238 1.260 . S
O228 Zn221 1.969 . S
O228 C238 1.258 . S
C229 O226 1.267 . S
C229 O230 1.228 . S
O230 C229 1.228 . S
O231 Zn220 2.024 . S
O231 C222 1.058 . S
C232 O233 1.228 . S
C232 O234 1.267 . S
O233 C232 1.228 . S
O234 Zn221 1.969 . S
O234 C232 1.267 . S
O235 Zn221 1.965 . S
O235 C239 1.260 . S
O236 Zn220 1.969 . S
O236 C239 1.258 . S
O237 Zn221 2.024 . S
O237 C224 1.058 . S
C238 O227 1.260 . S
C238 O228 1.258 . S
C239 O235 1.260 . S
C239 O236 1.258 . S
H240 C248 0.950 1_655 S
H241 C253 0.950 . S
H242 C250 0.950 . S
H243 C252 0.950 . S
H244 C254 0.950 . S
H245 C256 0.950 . S
H246 C258 0.950 . S
H247 C259 0.950 . S
C248 H240 0.950 1_455 S
C248 C249 1.386 . S
C248 C250 1.391 . S
C249 C248 1.386 . S
C249 C253 1.393 . S
C250 H242 0.950 . S
C250 C248 1.391 . S
C250 C251 1.400 . S
C251 C250 1.400 . S
C251 C252 1.398 . S
C251 C257 1.491 . S
C252 H243 0.950 . S
C252 C251 1.398 . S
C252 C253 1.391 . S
C253 H241 0.950 . S
C253 C249 1.393 . S
C253 C252 1.391 . S
C254 H244 0.950 . S
C254 C255 1.386 . S
C254 C256 1.391 . S
C255 C254 1.386 . S
C255 C259 1.393 . S
C256 H245 0.950 . S
C256 C254 1.391 . S
C256 C257 1.400 . S
C257 C251 1.491 . S
C257 C256 1.400 . S
C257 C258 1.398 . S
C258 H246 0.950 . S
C258 C257 1.398 . S
C258 C259 1.391 . S
C259 H247 0.950 . S
C259 C255 1.393 . S
C259 C258 1.391 . S
H260 C268 0.950 1_545 S
H261 C273 0.950 . S
H262 C270 0.950 . S
H263 C272 0.950 . S
H264 C274 0.950 . S
H265 C276 0.950 . S
H266 C278 0.950 . S
H267 C279 0.950 . S
C268 H260 0.950 1_565 S
C268 C269 1.386 . S
C268 C270 1.391 . S
C269 C268 1.386 . S
C269 C273 1.393 . S
C270 H262 0.950 . S
C270 C268 1.391 . S
C270 C271 1.400 . S
C271 C270 1.400 . S
C271 C272 1.398 . S
C271 C277 1.491 . S
C272 H263 0.950 . S
C272 C271 1.398 . S
C272 C273 1.391 . S
C273 H261 0.950 . S
C273 C269 1.393 . S
C273 C272 1.391 . S
C274 H264 0.950 . S
C274 C275 1.386 . S
C274 C276 1.391 1_655 S
C275 C274 1.386 . S
C275 C279 1.393 . S
C276 H265 0.950 . S
C276 C274 1.391 1_455 S
C276 C277 1.400 . S
C277 C271 1.491 . S
C277 C276 1.400 . S
C277 C278 1.398 . S
C278 H266 0.950 . S
C278 C277 1.398 . S
C278 C279 1.391 1_455 S
C279 H267 0.950 . S
C279 C275 1.393 . S
C279 C278 1.391 1_655 S
H280 C288 0.950 . S
H281 C293 0.950 . S
H282 C290 0.950 . S
H283 C292 0.950 . S
H284 C294 0.950 . S
H285 C296 0.950 . S
H286 C298 0.950 . S
H287 C299 0.950 . S
C288 H280 0.950 . S
C288 C289 1.386 . S
C288 C290 1.391 1_545 S
C289 C288 1.386 . S
C289 C293 1.393 . S
C290 H282 0.950 . S
C290 C288 1.391 1_565 S
C290 C291 1.400 . S
C291 C290 1.400 . S
C291 C292 1.398 . S
C291 C297 1.491 . S
C292 H283 0.950 . S
C292 C291 1.398 . S
C292 C293 1.391 1_565 S
C293 H281 0.950 . S
C293 C289 1.393 . S
C293 C292 1.391 1_545 S
C294 H284 0.950 . S
C294 C295 1.386 . S
C294 C296 1.391 . S
C295 C294 1.386 . S
C295 C299 1.393 . S
C296 H285 0.950 . S
C296 C294 1.391 . S
C296 C297 1.400 . S
C297 C291 1.491 . S
C297 C296 1.400 . S
C297 C298 1.398 . S
C298 H286 0.950 . S
C298 C297 1.398 . S
C298 C299 1.391 . S
C299 H287 0.950 . S
C299 C295 1.393 . S
C299 C298 1.391 . S
H300 C308 0.950 . S
H301 C313 0.950 . S
H302 C310 0.950 . S
H303 C312 0.950 . S
H304 C314 0.950 1_655 S
H305 C316 0.950 . S
H306 C318 0.950 . S
H307 C319 0.950 . S
C308 H300 0.950 . S
C308 C309 1.386 . S
C308 C310 1.391 . S
C309 C308 1.386 . S
C309 C313 1.393 . S
C310 H302 0.950 . S
C310 C308 1.391 . S
C310 C311 1.400 . S
C311 C310 1.400 . S
C311 C312 1.398 . S
C311 C317 1.491 . S
C312 H303 0.950 . S
C312 C311 1.398 . S
C312 C313 1.391 . S
C313 H301 0.950 . S
C313 C309 1.393 . S
C313 C312 1.391 . S
C314 H304 0.950 1_455 S
C314 C315 1.386 . S
C314 C316 1.391 . S
C315 C314 1.386 . S
C315 C319 1.393 . S
C316 H305 0.950 . S
C316 C314 1.391 . S
C316 C317 1.400 . S
C317 C311 1.491 . S
C317 C316 1.400 . S
C317 C318 1.398 . S
C318 H306 0.950 . S
C318 C317 1.398 . S
C318 C319 1.391 . S
C319 H307 0.950 . S
C319 C315 1.393 . S
C319 C318 1.391 . S
H320 C328 0.950 . S
H321 C333 0.950 1_545 S
H322 C330 0.950 . S
H323 C332 0.950 . S
H324 C334 0.950 . S
H325 C336 0.950 . S
H326 C338 0.950 . S
H327 C339 0.950 . S
C328 H320 0.950 . S
C328 C329 1.386 . S
C328 C330 1.391 . S
C329 C328 1.386 . S
C329 C333 1.393 . S
C330 H322 0.950 . S
C330 C328 1.391 . S
C330 C331 1.400 . S
C331 C330 1.400 . S
C331 C332 1.398 . S
C331 C337 1.491 . S
C332 H323 0.950 . S
C332 C331 1.398 . S
C332 C333 1.391 . S
C333 H321 0.950 1_565 S
C333 C329 1.393 . S
C333 C332 1.391 . S
C334 H324 0.950 . S
C334 C335 1.386 . S
C334 C336 1.391 1_655 S
C335 C334 1.386 . S
C335 C339 1.393 . S
C336 H325 0.950 . S
C336 C334 1.391 1_455 S
C336 C337 1.400 . S
C337 C331 1.491 . S
C337 C336 1.400 . S
C337 C338 1.398 . S
C338 H326 0.950 . S
C338 C337 1.398 . S
C338 C339 1.391 1_455 S
C339 H327 0.950 . S
C339 C335 1.393 . S
C339 C338 1.391 1_655 S
H340 C348 0.950 . S
H341 C353 0.950 . S
H342 C350 0.950 . S
H343 C352 0.950 . S
H344 C354 0.950 . S
H345 C356 0.950 . S
H346 C358 0.950 . S
H347 C359 0.950 . S
C348 H340 0.950 . S
C348 C349 1.386 . S
C348 C350 1.391 . S
C349 C348 1.386 . S
C349 C353 1.393 . S
C350 H342 0.950 . S
C350 C348 1.391 . S
C350 C351 1.400 . S
C351 C350 1.400 . S
C351 C352 1.398 . S
C351 C357 1.491 . S
C352 H343 0.950 . S
C352 C351 1.398 . S
C352 C353 1.391 . S
C353 H341 0.950 . S
C353 C349 1.393 . S
C353 C352 1.391 . S
C354 H344 0.950 . S
C354 C355 1.386 . S
C354 C356 1.391 1_545 S
C355 C354 1.386 . S
C355 C359 1.393 . S
C356 H345 0.950 . S
C356 C354 1.391 1_565 S
C356 C357 1.400 . S
C357 C351 1.491 . S
C357 C356 1.400 . S
C357 C358 1.398 . S
C358 H346 0.950 . S
C358 C357 1.398 . S
C358 C359 1.391 1_565 S
C359 H347 0.950 . S
C359 C355 1.393 . S
C359 C358 1.391 1_545 S
H360 C368 0.950 . S
H361 C373 0.950 1_565 S
H362 C370 0.950 . S
H363 C372 0.950 . S
H364 C374 0.950 . S
H365 C376 0.950 . S
H366 C378 0.950 . S
H367 C379 0.950 . S
C368 H360 0.950 . S
C368 C369 1.386 . S
C368 C370 1.391 . S
C369 C368 1.386 . S
C369 C373 1.393 . S
C370 H362 0.950 . S
C370 C368 1.391 . S
C370 C371 1.400 . S
C371 C370 1.400 . S
C371 C372 1.398 . S
C371 C377 1.491 . S
C372 H363 0.950 . S
C372 C371 1.398 . S
C372 C373 1.391 . S
C373 H361 0.950 1_545 S
C373 C369 1.393 . S
C373 C372 1.391 . S
C374 H364 0.950 . S
C374 C375 1.386 . S
C374 C376 1.391 . S
C375 C374 1.386 . S
C375 C379 1.393 . S
C376 H365 0.950 . S
C376 C374 1.391 . S
C376 C377 1.400 . S
C377 C371 1.491 . S
C377 C376 1.400 . S
C377 C378 1.398 . S
C378 H366 0.950 . S
C378 C377 1.398 . S
C378 C379 1.391 . S
C379 H367 0.950 . S
C379 C375 1.393 . S
C379 C378 1.391 . S
H380 C388 0.950 . S
H381 C393 0.950 . S
H382 C390 0.950 . S
H383 C392 0.950 . S
H384 C394 0.950 . S
H385 C396 0.950 . S
H386 C398 0.950 . S
H387 C399 0.950 . S
C388 H380 0.950 . S
C388 C389 1.386 . S
C388 C390 1.391 1_455 S
C389 C388 1.386 . S
C389 C393 1.393 . S
C390 H382 0.950 . S
C390 C388 1.391 1_655 S
C390 C391 1.400 . S
C391 C390 1.400 . S
C391 C392 1.398 . S
C391 C397 1.491 . S
C392 H383 0.950 . S
C392 C391 1.398 . S
C392 C393 1.391 1_655 S
C393 H381 0.950 . S
C393 C389 1.393 . S
C393 C392 1.391 1_455 S
C394 H384 0.950 . S
C394 C395 1.386 . S
C394 C396 1.391 . S
C395 C394 1.386 . S
C395 C399 1.393 . S
C396 H385 0.950 . S
C396 C394 1.391 . S
C396 C397 1.400 . S
C397 C391 1.491 . S
C397 C396 1.400 . S
C397 C398 1.398 . S
C398 H386 0.950 . S
C398 C397 1.398 . S
C398 C399 1.391 . S
C399 H387 0.950 . S
C399 C395 1.393 . S
C399 C398 1.391 . S
H400 C408 0.950 . S
H401 C413 0.950 . S
H402 C410 0.950 . S
H403 C412 0.950 . S
H404 C414 0.950 1_455 S
H405 C416 0.950 . S
H406 C418 0.950 . S
H407 C419 0.950 . S
C408 H400 0.950 . S
C408 C409 1.386 . S
C408 C410 1.391 1_565 S
C409 C408 1.386 . S
C409 C413 1.393 . S
C410 H402 0.950 . S
C410 C408 1.391 1_545 S
C410 C411 1.400 . S
C411 C410 1.400 . S
C411 C412 1.398 . S
C411 C417 1.491 . S
C412 H403 0.950 . S
C412 C411 1.398 . S
C412 C413 1.391 1_545 S
C413 H401 0.950 . S
C413 C409 1.393 . S
C413 C412 1.391 1_565 S
C414 H404 0.950 1_655 S
C414 C415 1.386 . S
C414 C416 1.391 . S
C415 C414 1.386 . S
C415 C419 1.393 . S
C416 H405 0.950 . S
C416 C414 1.391 . S
C416 C417 1.400 . S
C417 C411 1.491 . S
C417 C416 1.400 . S
C417 C418 1.398 . S
C418 H406 0.950 . S
C418 C417 1.398 . S
C418 C419 1.391 . S
C419 H407 0.950 . S
C419 C415 1.393 . S
C419 C418 1.391 . S
H420 C428 0.950 . S
H421 C433 0.950 . S
H422 C430 0.950 . S
H423 C432 0.950 . S
H424 C434 0.950 . S
H425 C436 0.950 . S
H426 C438 0.950 . S
H427 C439 0.950 . S
C428 H420 0.950 . S
C428 C429 1.386 . S
C428 C430 1.391 . S
C429 C428 1.386 . S
C429 C433 1.393 . S
C430 H422 0.950 . S
C430 C428 1.391 . S
C430 C431 1.400 . S
C431 C430 1.400 . S
C431 C432 1.398 . S
C431 C437 1.491 . S
C432 H423 0.950 . S
C432 C431 1.398 . S
C432 C433 1.391 . S
C433 H421 0.950 . S
C433 C429 1.393 . S
C433 C432 1.391 . S
C434 H424 0.950 . S
C434 C435 1.386 . S
C434 C436 1.391 . S
C435 C434 1.386 . S
C435 C439 1.393 . S
C436 H425 0.950 . S
C436 C434 1.391 . S
C436 C437 1.400 . S
C437 C431 1.491 . S
C437 C436 1.400 . S
C437 C438 1.398 . S
C438 H426 0.950 . S
C438 C437 1.398 . S
C438 C439 1.391 . S
C439 H427 0.950 . S
C439 C435 1.393 . S
C439 C438 1.391 . S
H440 C448 0.950 . S
H441 C453 0.950 . S
H442 C450 0.950 . S
H443 C452 0.950 . S
H444 C454 0.950 . S
H445 C456 0.950 . S
H446 C458 0.950 . S
H447 C459 0.950 . S
C448 H440 0.950 . S
C448 C449 1.386 . S
C448 C450 1.391 1_455 S
C449 C448 1.386 . S
C449 C453 1.393 . S
C450 H442 0.950 . S
C450 C448 1.391 1_655 S
C450 C451 1.400 . S
C451 C450 1.400 . S
C451 C452 1.398 . S
C451 C457 1.491 . S
C452 H443 0.950 . S
C452 C451 1.398 . S
C452 C453 1.391 1_655 S
C453 H441 0.950 . S
C453 C449 1.393 . S
C453 C452 1.391 1_455 S
C454 H444 0.950 . S
C454 C455 1.386 . S
C454 C456 1.391 . S
C455 C454 1.386 . S
C455 C459 1.393 . S
C456 H445 0.950 . S
C456 C454 1.391 . S
C456 C457 1.400 . S
C457 C451 1.491 . S
C457 C456 1.400 . S
C457 C458 1.398 . S
C458 H446 0.950 . S
C458 C457 1.398 . S
C458 C459 1.391 . S
C459 H447 0.950 . S
C459 C455 1.393 . S
C459 C458 1.391 . S
H460 C468 0.950 1_455 S
H461 C473 0.950 . S
H462 C470 0.950 . S
H463 C472 0.950 . S
H464 C474 0.950 . S
H465 C476 0.950 . S
H466 C478 0.950 . S
H467 C479 0.950 . S
C468 H460 0.950 1_655 S
C468 C469 1.386 . S
C468 C470 1.391 . S
C469 C468 1.386 . S
C469 C473 1.393 . S
C470 H462 0.950 . S
C470 C468 1.391 . S
C470 C471 1.400 . S
C471 C470 1.400 . S
C471 C472 1.398 . S
C471 C477 1.491 . S
C472 H463 0.950 . S
C472 C471 1.398 . S
C472 C473 1.391 . S
C473 H461 0.950 . S
C473 C469 1.393 . S
C473 C472 1.391 . S
C474 H464 0.950 . S
C474 C475 1.386 . S
C474 C476 1.391 1_565 S
C475 C474 1.386 . S
C475 C479 1.393 . S
C476 H465 0.950 . S
C476 C474 1.391 1_545 S
C476 C477 1.400 . S
C477 C471 1.491 . S
C477 C476 1.400 . S
C477 C478 1.398 . S
C478 H466 0.950 . S
C478 C477 1.398 . S
C478 C479 1.391 1_545 S
C479 H467 0.950 . S
C479 C475 1.393 . S
C479 C478 1.391 1_565 S
H480 C488 0.950 . S
H481 C493 0.950 . S
H482 C490 0.950 . S
H483 C492 0.950 . S
H484 C494 0.950 . S
H485 C496 0.950 . S
H486 C498 0.950 . S
H487 C499 0.950 . S
C488 H480 0.950 . S
C488 C489 1.386 . S
C488 C490 1.391 . S
C489 C488 1.386 . S
C489 C493 1.393 . S
C490 H482 0.950 . S
C490 C488 1.391 . S
C490 C491 1.400 . S
C491 C490 1.400 . S
C491 C492 1.398 . S
C491 C497 1.491 . S
C492 H483 0.950 . S
C492 C491 1.398 . S
C492 C493 1.391 . S
C493 H481 0.950 . S
C493 C489 1.393 . S
C493 C492 1.391 . S
C494 H484 0.950 . S
C494 C495 1.386 . S
C494 C496 1.391 . S
C495 C494 1.386 . S
C495 C499 1.393 . S
C496 H485 0.950 . S
C496 C494 1.391 . S
C496 C497 1.400 . S
C497 C491 1.491 . S
C497 C496 1.400 . S
C497 C498 1.398 . S
C498 H486 0.950 . S
C498 C497 1.398 . S
C498 C499 1.391 . S
C499 H487 0.950 . S
C499 C495 1.393 . S
C499 C498 1.391 . S
H500 C508 0.950 . S
H501 C513 0.950 . S
H502 C510 0.950 . S
H503 C512 0.950 . S
H504 C514 0.950 . S
H505 C516 0.950 . S
H506 C518 0.950 . S
H507 C519 0.950 . S
C508 H500 0.950 . S
C508 C509 1.386 . S
C508 C510 1.391 . S
C509 C508 1.386 . S
C509 C513 1.393 . S
C510 H502 0.950 . S
C510 C508 1.391 . S
C510 C511 1.400 . S
C511 C510 1.400 . S
C511 C512 1.398 . S
C511 C517 1.491 . S
C512 H503 0.950 . S
C512 C511 1.398 . S
C512 C513 1.391 . S
C513 H501 0.950 . S
C513 C509 1.393 . S
C513 C512 1.391 . S
C514 H504 0.950 . S
C514 C515 1.386 . S
C514 C516 1.391 . S
C515 C514 1.386 . S
C515 C519 1.393 . S
C516 H505 0.950 . S
C516 C514 1.391 . S
C516 C517 1.400 . S
C517 C511 1.491 . S
C517 C516 1.400 . S
C517 C518 1.398 . S
C518 H506 0.950 . S
C518 C517 1.398 . S
C518 C519 1.391 . S
C519 H507 0.950 . S
C519 C515 1.393 . S
C519 C518 1.391 . S
H520 C528 0.950 . S
H521 C533 0.950 . S
H522 C530 0.950 . S
H523 C532 0.950 . S
H524 C534 0.950 . S
H525 C536 0.950 . S
H526 C538 0.950 . S
H527 C539 0.950 . S
C528 H520 0.950 . S
C528 C529 1.386 . S
C528 C530 1.391 . S
C529 C528 1.386 . S
C529 C533 1.393 . S
C530 H522 0.950 . S
C530 C528 1.391 . S
C530 C531 1.400 . S
C531 C530 1.400 . S
C531 C532 1.398 . S
C531 C537 1.491 . S
C532 H523 0.950 . S
C532 C531 1.398 . S
C532 C533 1.391 . S
C533 H521 0.950 . S
C533 C529 1.393 . S
C533 C532 1.391 . S
C534 H524 0.950 . S
C534 C535 1.386 . S
C534 C536 1.391 . S
C535 C534 1.386 . S
C535 C539 1.393 . S
C536 H525 0.950 . S
C536 C534 1.391 . S
C536 C537 1.400 . S
C537 C531 1.491 . S
C537 C536 1.400 . S
C537 C538 1.398 . S
C538 H526 0.950 . S
C538 C537 1.398 . S
C538 C539 1.391 . S
C539 H527 0.950 . S
C539 C535 1.393 . S
C539 C538 1.391 . S
H540 C548 0.950 . S
H541 C553 0.950 . S
H542 C550 0.950 . S
H543 C552 0.950 . S
H544 C554 0.950 . S
H545 C556 0.950 . S
H546 C558 0.950 . S
H547 C559 0.950 . S
C548 H540 0.950 . S
C548 C549 1.386 . S
C548 C550 1.391 . S
C549 C548 1.386 . S
C549 C553 1.393 . S
C550 H542 0.950 . S
C550 C548 1.391 . S
C550 C551 1.400 . S
C551 C550 1.400 . S
C551 C552 1.398 . S
C551 C557 1.491 . S
C552 H543 0.950 . S
C552 C551 1.398 . S
C552 C553 1.391 . S
C553 H541 0.950 . S
C553 C549 1.393 . S
C553 C552 1.391 . S
C554 H544 0.950 . S
C554 C555 1.386 . S
C554 C556 1.391 . S
C555 C554 1.386 . S
C555 C559 1.393 . S
C556 H545 0.950 . S
C556 C554 1.391 . S
C556 C557 1.400 . S
C557 C551 1.491 . S
C557 C556 1.400 . S
C557 C558 1.398 . S
C558 H546 0.950 . S
C558 C557 1.398 . S
C558 C559 1.391 . S
C559 H547 0.950 . S
C559 C555 1.393 . S
C559 C558 1.391 . S
H560 C568 0.950 . S
H561 C573 0.950 . S
H562 C570 0.950 . S
H563 C572 0.950 . S
H564 C574 0.950 . S
H565 C576 0.950 . S
H566 C578 0.950 . S
H567 C579 0.950 . S
C568 H560 0.950 . S
C568 C569 1.386 . S
C568 C570 1.391 . S
C569 C568 1.386 . S
C569 C573 1.393 . S
C570 H562 0.950 . S
C570 C568 1.391 . S
C570 C571 1.400 . S
C571 C570 1.400 . S
C571 C572 1.398 . S
C571 C577 1.491 . S
C572 H563 0.950 . S
C572 C571 1.398 . S
C572 C573 1.391 . S
C573 H561 0.950 . S
C573 C569 1.393 . S
C573 C572 1.391 . S
C574 H564 0.950 . S
C574 C575 1.386 . S
C574 C576 1.391 . S
C575 C574 1.386 . S
C575 C579 1.393 . S
C576 H565 0.950 . S
C576 C574 1.391 . S
C576 C577 1.400 . S
C577 C571 1.491 . S
C577 C576 1.400 . S
C577 C578 1.398 . S
C578 H566 0.950 . S
C578 C577 1.398 . S
C578 C579 1.391 . S
C579 H567 0.950 . S
C579 C575 1.393 . S
C579 C578 1.391 . S
H580 C588 0.950 . S
H581 C593 0.950 . S
H582 C590 0.950 . S
H583 C592 0.950 . S
H584 C594 0.950 . S
H585 C596 0.950 . S
H586 C598 0.950 . S
H587 C599 0.950 . S
C588 H580 0.950 . S
C588 C589 1.386 . S
C588 C590 1.391 . S
C589 C588 1.386 . S
C589 C593 1.393 . S
C590 H582 0.950 . S
C590 C588 1.391 . S
C590 C591 1.400 . S
C591 C590 1.400 . S
C591 C592 1.398 . S
C591 C597 1.491 . S
C592 H583 0.950 . S
C592 C591 1.398 . S
C592 C593 1.391 . S
C593 H581 0.950 . S
C593 C589 1.393 . S
C593 C592 1.391 . S
C594 H584 0.950 . S
C594 C595 1.386 . S
C594 C596 1.391 . S
C595 C594 1.386 . S
C595 C599 1.393 . S
C596 H585 0.950 . S
C596 C594 1.391 . S
C596 C597 1.400 . S
C597 C591 1.491 . S
C597 C596 1.400 . S
C597 C598 1.398 . S
C598 H586 0.950 . S
C598 C597 1.398 . S
C598 C599 1.391 . S
C599 H587 0.950 . S
C599 C595 1.393 . S
C599 C598 1.391 . S
H600 C608 0.950 . S
H601 C613 0.950 . S
H602 C610 0.950 1_554 S
H603 C612 0.950 1_545 S
H604 C614 0.950 . S
H605 C616 0.950 1_556 S
H606 C618 0.950 1_565 S
H607 C619 0.950 . S
C608 H600 0.950 . S
C608 C609 1.386 . S
C608 C610 1.391 . S
C609 C608 1.386 . S
C609 C613 1.393 . S
C610 H602 0.950 1_556 S
C610 C608 1.391 . S
C610 C611 1.400 . S
C611 C610 1.400 . S
C611 C612 1.398 . S
C611 C617 1.491 1_566 S
C612 H603 0.950 1_565 S
C612 C611 1.398 . S
C612 C613 1.391 . S
C613 H601 0.950 . S
C613 C609 1.393 . S
C613 C612 1.391 . S
C614 H604 0.950 . S
C614 C615 1.386 . S
C614 C616 1.391 . S
C615 C614 1.386 . S
C615 C619 1.393 . S
C616 H605 0.950 1_554 S
C616 C614 1.391 . S
C616 C617 1.400 . S
C617 C611 1.491 1_544 S
C617 C616 1.400 . S
C617 C618 1.398 . S
C618 H606 0.950 1_545 S
C618 C617 1.398 . S
C618 C619 1.391 . S
C619 H607 0.950 . S
C619 C615 1.393 . S
C619 C618 1.391 . S
H620 C628 0.950 . S
H621 C633 0.950 . S
H622 C630 0.950 . S
H623 C632 0.950 . S
H624 C634 0.950 . S
H625 C636 0.950 . S
H626 C638 0.950 . S
H627 C639 0.950 . S
C628 H620 0.950 . S
C628 C629 1.386 . S
C628 C630 1.391 . S
C629 C628 1.386 . S
C629 C633 1.393 . S
C630 H622 0.950 . S
C630 C628 1.391 . S
C630 C631 1.400 . S
C631 C630 1.400 . S
C631 C632 1.398 . S
C631 C637 1.491 . S
C632 H623 0.950 . S
C632 C631 1.398 . S
C632 C633 1.391 . S
C633 H621 0.950 . S
C633 C629 1.393 . S
C633 C632 1.391 . S
C634 H624 0.950 . S
C634 C635 1.386 . S
C634 C636 1.391 . S
C635 C634 1.386 . S
C635 C639 1.393 . S
C636 H625 0.950 . S
C636 C634 1.391 . S
C636 C637 1.400 . S
C637 C631 1.491 . S
C637 C636 1.400 . S
C637 C638 1.398 . S
C638 H626 0.950 . S
C638 C637 1.398 . S
C638 C639 1.391 . S
C639 H627 0.950 . S
C639 C635 1.393 . S
C639 C638 1.391 . S
H640 C648 0.950 . S
H641 C653 0.950 . S
H642 C650 0.950 1_655 S
H643 C652 0.950 1_554 S
H644 C654 0.950 . S
H645 C656 0.950 1_455 S
H646 C658 0.950 1_556 S
H647 C659 0.950 . S
C648 H640 0.950 . S
C648 C649 1.386 . S
C648 C650 1.391 . S
C649 C648 1.386 . S
C649 C653 1.393 . S
C650 H642 0.950 1_455 S
C650 C648 1.391 . S
C650 C651 1.400 . S
C651 C650 1.400 . S
C651 C652 1.398 . S
C651 C657 1.491 1_456 S
C652 H643 0.950 1_556 S
C652 C651 1.398 . S
C652 C653 1.391 . S
C653 H641 0.950 . S
C653 C649 1.393 . S
C653 C652 1.391 . S
C654 H644 0.950 . S
C654 C655 1.386 . S
C654 C656 1.391 . S
C655 C654 1.386 . S
C655 C659 1.393 . S
C656 H645 0.950 1_655 S
C656 C654 1.391 . S
C656 C657 1.400 . S
C657 C651 1.491 1_654 S
C657 C656 1.400 . S
C657 C658 1.398 . S
C658 H646 0.950 1_554 S
C658 C657 1.398 . S
C658 C659 1.391 . S
C659 H647 0.950 . S
C659 C655 1.393 . S
C659 C658 1.391 . S
H660 C668 0.950 . S
H661 C673 0.950 . S
H662 C670 0.950 . S
H663 C672 0.950 . S
H664 C674 0.950 . S
H665 C676 0.950 . S
H666 C678 0.950 . S
H667 C679 0.950 . S
C668 H660 0.950 . S
C668 C669 1.386 . S
C668 C670 1.391 . S
C669 C668 1.386 . S
C669 C673 1.393 . S
C670 H662 0.950 . S
C670 C668 1.391 . S
C670 C671 1.400 . S
C671 C670 1.400 . S
C671 C672 1.398 . S
C671 C677 1.491 1_545 S
C672 H663 0.950 . S
C672 C671 1.398 . S
C672 C673 1.391 . S
C673 H661 0.950 . S
C673 C669 1.393 . S
C673 C672 1.391 . S
C674 H664 0.950 . S
C674 C675 1.386 . S
C674 C676 1.391 . S
C675 C674 1.386 . S
C675 C679 1.393 . S
C676 H665 0.950 . S
C676 C674 1.391 . S
C676 C677 1.400 . S
C677 C671 1.491 1_565 S
C677 C676 1.400 . S
C677 C678 1.398 . S
C678 H666 0.950 . S
C678 C677 1.398 . S
C678 C679 1.391 . S
C679 H667 0.950 . S
C679 C675 1.393 . S
C679 C678 1.391 . S
H680 C688 0.950 . S
H681 C693 0.950 . S
H682 C690 0.950 1_556 S
H683 C692 0.950 . S
H684 C694 0.950 . S
H685 C696 0.950 1_554 S
H686 C698 0.950 . S
H687 C699 0.950 . S
C688 H680 0.950 . S
C688 C689 1.386 . S
C688 C690 1.391 . S
C689 C688 1.386 . S
C689 C693 1.393 . S
C690 H682 0.950 1_554 S
C690 C688 1.391 . S
C690 C691 1.400 . S
C691 C690 1.400 . S
C691 C692 1.398 . S
C691 C697 1.491 1_554 S
C692 H683 0.950 . S
C692 C691 1.398 . S
C692 C693 1.391 . S
C693 H681 0.950 . S
C693 C689 1.393 . S
C693 C692 1.391 . S
C694 H684 0.950 . S
C694 C695 1.386 . S
C694 C696 1.391 . S
C695 C694 1.386 . S
C695 C699 1.393 . S
C696 H685 0.950 1_556 S
C696 C694 1.391 . S
C696 C697 1.400 . S
C697 C691 1.491 1_556 S
C697 C696 1.400 . S
C697 C698 1.398 . S
C698 H686 0.950 . S
C698 C697 1.398 . S
C698 C699 1.391 . S
C699 H687 0.950 . S
C699 C695 1.393 . S
C699 C698 1.391 . S
H700 C708 0.950 . S
H701 C713 0.950 . S
H702 C710 0.950 . S
H703 C712 0.950 . S
H704 C714 0.950 . S
H705 C716 0.950 . S
H706 C718 0.950 . S
H707 C719 0.950 . S
C708 H700 0.950 . S
C708 C709 1.386 . S
C708 C710 1.391 . S
C709 C708 1.386 . S
C709 C713 1.393 . S
C710 H702 0.950 . S
C710 C708 1.391 . S
C710 C711 1.400 . S
C711 C710 1.400 . S
C711 C712 1.398 . S
C711 C717 1.491 1_455 S
C712 H703 0.950 . S
C712 C711 1.398 . S
C712 C713 1.391 . S
C713 H701 0.950 . S
C713 C709 1.393 . S
C713 C712 1.391 . S
C714 H704 0.950 . S
C714 C715 1.386 . S
C714 C716 1.391 . S
C715 C714 1.386 . S
C715 C719 1.393 . S
C716 H705 0.950 . S
C716 C714 1.391 . S
C716 C717 1.400 . S
C717 C711 1.491 1_655 S
C717 C716 1.400 . S
C717 C718 1.398 . S
C718 H706 0.950 . S
C718 C717 1.398 . S
C718 C719 1.391 . S
C719 H707 0.950 . S
C719 C715 1.393 . S
C719 C718 1.391 . S
H720 C728 0.950 . S
H721 C733 0.950 . S
H722 C730 0.950 . S
H723 C732 0.950 . S
H724 C734 0.950 . S
H725 C736 0.950 . S
H726 C738 0.950 . S
H727 C739 0.950 . S
C728 H720 0.950 . S
C728 C729 1.386 . S
C728 C730 1.391 . S
C729 C728 1.386 . S
C729 C733 1.393 . S
C730 H722 0.950 . S
C730 C728 1.391 . S
C730 C731 1.400 . S
C731 C730 1.400 . S
C731 C732 1.398 . S
C731 C737 1.491 . S
C732 H723 0.950 . S
C732 C731 1.398 . S
C732 C733 1.391 . S
C733 H721 0.950 . S
C733 C729 1.393 . S
C733 C732 1.391 . S
C734 H724 0.950 . S
C734 C735 1.386 . S
C734 C736 1.391 . S
C735 C734 1.386 . S
C735 C739 1.393 . S
C736 H725 0.950 . S
C736 C734 1.391 . S
C736 C737 1.400 . S
C737 C731 1.491 . S
C737 C736 1.400 . S
C737 C738 1.398 . S
C738 H726 0.950 . S
C738 C737 1.398 . S
C738 C739 1.391 . S
C739 H727 0.950 . S
C739 C735 1.393 . S
C739 C738 1.391 . S
H740 C748 0.950 . S
H741 C753 0.950 . S
H742 C750 0.950 . S
H743 C752 0.950 . S
H744 C754 0.950 . S
H745 C756 0.950 . S
H746 C758 0.950 . S
H747 C759 0.950 . S
C748 H740 0.950 . S
C748 C749 1.386 . S
C748 C750 1.391 . S
C749 C748 1.386 . S
C749 C753 1.393 . S
C750 H742 0.950 . S
C750 C748 1.391 . S
C750 C751 1.400 . S
C751 C750 1.400 . S
C751 C752 1.398 . S
C751 C757 1.491 . S
C752 H743 0.950 . S
C752 C751 1.398 . S
C752 C753 1.391 . S
C753 H741 0.950 . S
C753 C749 1.393 . S
C753 C752 1.391 . S
C754 H744 0.950 . S
C754 C755 1.386 . S
C754 C756 1.391 . S
C755 C754 1.386 . S
C755 C759 1.393 . S
C756 H745 0.950 . S
C756 C754 1.391 . S
C756 C757 1.400 . S
C757 C751 1.491 . S
C757 C756 1.400 . S
C757 C758 1.398 . S
C758 H746 0.950 . S
C758 C757 1.398 . S
C758 C759 1.391 . S
C759 H747 0.950 . S
C759 C755 1.393 . S
C759 C758 1.391 . S
H760 C768 0.950 . S
H761 C773 0.950 . S
H762 C770 0.950 . S
H763 C772 0.950 . S
H764 C774 0.950 . S
H765 C776 0.950 . S
H766 C778 0.950 . S
H767 C779 0.950 . S
C768 H760 0.950 . S
C768 C769 1.386 . S
C768 C770 1.391 . S
C769 C768 1.386 . S
C769 C773 1.393 . S
C770 H762 0.950 . S
C770 C768 1.391 . S
C770 C771 1.400 . S
C771 C770 1.400 . S
C771 C772 1.398 . S
C771 C777 1.491 . S
C772 H763 0.950 . S
C772 C771 1.398 . S
C772 C773 1.391 . S
C773 H761 0.950 . S
C773 C769 1.393 . S
C773 C772 1.391 . S
C774 H764 0.950 . S
C774 C775 1.386 . S
C774 C776 1.391 . S
C775 C774 1.386 . S
C775 C779 1.393 . S
C776 H765 0.950 . S
C776 C774 1.391 . S
C776 C777 1.400 . S
C777 C771 1.491 . S
C777 C776 1.400 . S
C777 C778 1.398 . S
C778 H766 0.950 . S
C778 C777 1.398 . S
C778 C779 1.391 . S
C779 H767 0.950 . S
C779 C775 1.393 . S
C779 C778 1.391 . S
H780 C788 0.950 . S
H781 C793 0.950 . S
H782 C790 0.950 . S
H783 C792 0.950 . S
H784 C794 0.950 . S
H785 C796 0.950 . S
H786 C798 0.950 . S
H787 C799 0.950 . S
C788 H780 0.950 . S
C788 C789 1.386 . S
C788 C790 1.391 . S
C789 C788 1.386 . S
C789 C793 1.393 . S
C790 H782 0.950 . S
C790 C788 1.391 . S
C790 C791 1.400 . S
C791 C790 1.400 . S
C791 C792 1.398 . S
C791 C797 1.491 . S
C792 H783 0.950 . S
C792 C791 1.398 . S
C792 C793 1.391 . S
C793 H781 0.950 . S
C793 C789 1.393 . S
C793 C792 1.391 . S
C794 H784 0.950 . S
C794 C795 1.386 . S
C794 C796 1.391 . S
C795 C794 1.386 . S
C795 C799 1.393 . S
C796 H785 0.950 . S
C796 C794 1.391 . S
C796 C797 1.400 . S
C797 C791 1.491 . S
C797 C796 1.400 . S
C797 C798 1.398 . S
C798 H786 0.950 . S
C798 C797 1.398 . S
C798 C799 1.391 . S
C799 H787 0.950 . S
C799 C795 1.393 . S
C799 C798 1.391 . S
H800 C808 0.950 . S
H801 C813 0.950 . S
H802 C810 0.950 . S
H803 C812 0.950 . S
H804 C814 0.950 . S
H805 C816 0.950 . S
H806 C818 0.950 . S
H807 C819 0.950 . S
C808 H800 0.950 . S
C808 C809 1.386 . S
C808 C810 1.391 . S
C809 C808 1.386 . S
C809 C813 1.393 . S
C810 H802 0.950 . S
C810 C808 1.391 . S
C810 C811 1.400 . S
C811 C810 1.400 . S
C811 C812 1.398 . S
C811 C817 1.491 . S
C812 H803 0.950 . S
C812 C811 1.398 . S
C812 C813 1.391 . S
C813 H801 0.950 . S
C813 C809 1.393 . S
C813 C812 1.391 . S
C814 H804 0.950 . S
C814 C815 1.386 . S
C814 C816 1.391 . S
C815 C814 1.386 . S
C815 C819 1.393 . S
C816 H805 0.950 . S
C816 C814 1.391 . S
C816 C817 1.400 . S
C817 C811 1.491 . S
C817 C816 1.400 . S
C817 C818 1.398 . S
C818 H806 0.950 . S
C818 C817 1.398 . S
C818 C819 1.391 . S
C819 H807 0.950 . S
C819 C815 1.393 . S
C819 C818 1.391 . S
H820 C828 0.950 . S
H821 C833 0.950 . S
H822 C830 0.950 . S
H823 C832 0.950 . S
H824 C834 0.950 . S
H825 C836 0.950 . S
H826 C838 0.950 . S
H827 C839 0.950 . S
C828 H820 0.950 . S
C828 C829 1.386 . S
C828 C830 1.391 . S
C829 C828 1.386 . S
C829 C833 1.393 . S
C830 H822 0.950 . S
C830 C828 1.391 . S
C830 C831 1.400 . S
C831 C830 1.400 . S
C831 C832 1.398 . S
C831 C837 1.491 . S
C832 H823 0.950 . S
C832 C831 1.398 . S
C832 C833 1.391 . S
C833 H821 0.950 . S
C833 C829 1.393 . S
C833 C832 1.391 . S
C834 H824 0.950 . S
C834 C835 1.386 . S
C834 C836 1.391 . S
C835 C834 1.386 . S
C835 C839 1.393 . S
C836 H825 0.950 . S
C836 C834 1.391 . S
C836 C837 1.400 . S
C837 C831 1.491 . S
C837 C836 1.400 . S
C837 C838 1.398 . S
C838 H826 0.950 . S
C838 C837 1.398 . S
C838 C839 1.391 . S
C839 H827 0.950 . S
C839 C835 1.393 . S
C839 C838 1.391 . S
H840 C848 0.950 . S
H841 C853 0.950 . S
H842 C850 0.950 . S
H843 C852 0.950 . S
H844 C854 0.950 . S
H845 C856 0.950 . S
H846 C858 0.950 . S
H847 C859 0.950 . S
C848 H840 0.950 . S
C848 C849 1.386 . S
C848 C850 1.391 . S
C849 C848 1.386 . S
C849 C853 1.393 . S
C850 H842 0.950 . S
C850 C848 1.391 . S
C850 C851 1.400 . S
C851 C850 1.400 . S
C851 C852 1.398 . S
C851 C857 1.491 . S
C852 H843 0.950 . S
C852 C851 1.398 . S
C852 C853 1.391 . S
C853 H841 0.950 . S
C853 C849 1.393 . S
C853 C852 1.391 . S
C854 H844 0.950 . S
C854 C855 1.386 . S
C854 C856 1.391 . S
C855 C854 1.386 . S
C855 C859 1.393 . S
C856 H845 0.950 . S
C856 C854 1.391 . S
C856 C857 1.400 . S
C857 C851 1.491 . S
C857 C856 1.400 . S
C857 C858 1.398 . S
C858 H846 0.950 . S
C858 C857 1.398 . S
C858 C859 1.391 . S
C859 H847 0.950 . S
C859 C855 1.393 . S
C859 C858 1.391 . S
H860 C868 0.950 . S
H861 C873 0.950 . S
H862 C870 0.950 . S
H863 C872 0.950 . S
H864 C874 0.950 . S
H865 C876 0.950 . S
H866 C878 0.950 . S
H867 C879 0.950 . S
C868 H860 0.950 . S
C868 C869 1.386 . S
C868 C870 1.391 . S
C869 C868 1.386 . S
C869 C873 1.393 . S
C870 H862 0.950 . S
C870 C868 1.391 . S
C870 C871 1.400 . S
C871 C870 1.400 . S
C871 C872 1.398 . S
C871 C877 1.491 . S
C872 H863 0.950 . S
C872 C871 1.398 . S
C872 C873 1.391 . S
C873 H861 0.950 . S
C873 C869 1.393 . S
C873 C872 1.391 . S
C874 H864 0.950 . S
C874 C875 1.386 . S
C874 C876 1.391 . S
C875 C874 1.386 . S
C875 C879 1.393 . S
C876 H865 0.950 . S
C876 C874 1.391 . S
C876 C877 1.400 . S
C877 C871 1.491 . S
C877 C876 1.400 . S
C877 C878 1.398 . S
C878 H866 0.950 . S
C878 C877 1.398 . S
C878 C879 1.391 . S
C879 H867 0.950 . S
C879 C875 1.393 . S
C879 C878 1.391 . S
H880 C888 0.950 . S
H881 C893 0.950 . S
H882 C890 0.950 . S
H883 C892 0.950 . S
H884 C894 0.950 . S
H885 C896 0.950 . S
H886 C898 0.950 . S
H887 C899 0.950 . S
C888 H880 0.950 . S
C888 C889 1.386 . S
C888 C890 1.391 . S
C889 C888 1.386 . S
C889 C893 1.393 . S
C890 H882 0.950 . S
C890 C888 1.391 . S
C890 C891 1.400 . S
C891 C890 1.400 . S
C891 C892 1.398 . S
C891 C897 1.491 . S
C892 H883 0.950 . S
C892 C891 1.398 . S
C892 C893 1.391 . S
C893 H881 0.950 . S
C893 C889 1.393 . S
C893 C892 1.391 . S
C894 H884 0.950 . S
C894 C895 1.386 . S
C894 C896 1.391 . S
C895 C894 1.386 . S
C895 C899 1.393 . S
C896 H885 0.950 . S
C896 C894 1.391 . S
C896 C897 1.400 . S
C897 C891 1.491 . S
C897 C896 1.400 . S
C897 C898 1.398 . S
C898 H886 0.950 . S
C898 C897 1.398 . S
C898 C899 1.391 . S
C899 H887 0.950 . S
C899 C895 1.393 . S
C899 C898 1.391 . S
H900 C908 0.950 . S
H901 C913 0.950 . S
H902 C910 0.950 . S
H903 C912 0.950 . S
H904 C914 0.950 . S
H905 C916 0.950 . S
H906 C918 0.950 . S
H907 C919 0.950 . S
C908 H900 0.950 . S
C908 C909 1.386 . S
C908 C910 1.391 . S
C909 C908 1.386 . S
C909 C913 1.393 . S
C910 H902 0.950 . S
C910 C908 1.391 . S
C910 C911 1.400 . S
C911 C910 1.400 . S
C911 C912 1.398 . S
C911 C917 1.491 . S
C912 H903 0.950 . S
C912 C911 1.398 . S
C912 C913 1.391 . S
C913 H901 0.950 . S
C913 C909 1.393 . S
C913 C912 1.391 . S
C914 H904 0.950 . S
C914 C915 1.386 . S
C914 C916 1.391 . S
C915 C914 1.386 . S
C915 C919 1.393 . S
C916 H905 0.950 . S
C916 C914 1.391 . S
C916 C917 1.400 . S
C917 C911 1.491 . S
C917 C916 1.400 . S
C917 C918 1.398 . S
C918 H906 0.950 . S
C918 C917 1.398 . S
C918 C919 1.391 . S
C919 H907 0.950 . S
C919 C915 1.393 . S
C919 C918 1.391 . S
H920 C928 0.950 . S
H921 C933 0.950 . S
H922 C930 0.950 . S
H923 C932 0.950 . S
H924 C934 0.950 . S
H925 C936 0.950 . S
H926 C938 0.950 . S
H927 C939 0.950 . S
C928 H920 0.950 . S
C928 C929 1.386 . S
C928 C930 1.391 . S
C929 C928 1.386 . S
C929 C933 1.393 . S
C930 H922 0.950 . S
C930 C928 1.391 . S
C930 C931 1.400 . S
C931 C930 1.400 . S
C931 C932 1.398 . S
C931 C937 1.491 . S
C932 H923 0.950 . S
C932 C931 1.398 . S
C932 C933 1.391 . S
C933 H921 0.950 . S
C933 C929 1.393 . S
C933 C932 1.391 . S
C934 H924 0.950 . S
C934 C935 1.386 . S
C934 C936 1.391 . S
C935 C934 1.386 . S
C935 C939 1.393 . S
C936 H925 0.950 . S
C936 C934 1.391 . S
C936 C937 1.400 . S
C937 C931 1.491 . S
C937 C936 1.400 . S
C937 C938 1.398 . S
C938 H926 0.950 . S
C938 C937 1.398 . S
C938 C939 1.391 . S
C939 H927 0.950 . S
C939 C935 1.393 . S
C939 C938 1.391 . S
H940 C948 0.950 . S
H941 C953 0.950 . S
H942 C950 0.950 . S
H943 C952 0.950 . S
H944 C954 0.950 . S
H945 C956 0.950 . S
H946 C958 0.950 . S
H947 C959 0.950 . S
C948 H940 0.950 . S
C948 C949 1.386 . S
C948 C950 1.391 . S
C949 C948 1.386 . S
C949 C953 1.393 . S
C950 H942 0.950 . S
C950 C948 1.391 . S
C950 C951 1.400 . S
C951 C950 1.400 . S
C951 C952 1.398 . S
C951 C957 1.491 . S
C952 H943 0.950 . S
C952 C951 1.398 . S
C952 C953 1.391 . S
C953 H941 0.950 . S
C953 C949 1.393 . S
C953 C952 1.391 . S
C954 H944 0.950 . S
C954 C955 1.386 . S
C954 C956 1.391 . S
C955 C954 1.386 . S
C955 C959 1.393 . S
C956 H945 0.950 . S
C956 C954 1.391 . S
C956 C957 1.400 . S
C957 C951 1.491 . S
C957 C956 1.400 . S
C957 C958 1.398 . S
C958 H946 0.950 . S
C958 C957 1.398 . S
C958 C959 1.391 . S
C959 H947 0.950 . S
C959 C955 1.393 . S
C959 C958 1.391 . S
C249 C49 1.072 1_455 S
C255 C2 1.083 . S
C269 C72 1.089 1_565 S
C275 C24 1.102 . S
C289 C42 1.111 . S
C295 C89 1.054 . S
C309 C64 1.078 . S
C315 C112 1.088 1_455 S
C329 C9 1.065 1_565 S
C335 C82 1.115 . S
C349 C32 1.082 . S
C355 C104 1.108 . S
C369 C212 1.070 1_545 S
C375 C124 1.085 . S
C389 C142 1.096 . S
C395 C229 1.095 . S
C409 C164 1.082 . S
C415 C132 1.075 1_655 S
C429 C182 1.115 . S
C435 C149 1.059 1_545 S
C449 C204 1.109 . S
C455 C172 1.053 . S
C469 C189 1.081 1_655 S
C475 C222 1.079 . S
C489 C78 1.749 . S
C495 C19 1.756 . S
C509 C38 1.750 . S
C515 C99 1.755 . S
C529 C59 1.757 . S
C535 C118 1.748 . S
C549 C138 1.759 . S
C555 C199 1.745 . S
C569 C159 1.745 . S
C575 C218 1.760 . S
C589 C178 1.755 . S
C595 C239 1.750 . S
C609 C158 1.953 . S
C615 C18 1.964 . S
C629 C39 1.958 . S
C635 C179 1.967 . S
C649 C198 1.967 . S
C655 C58 1.958 . S
C669 C79 1.967 . S
C675 C219 1.960 . S
C689 C98 1.944 . S
C695 C238 1.952 . S
C709 C139 1.966 . S
C715 C119 1.965 . S
C729 C52 1.406 . S
C735 C4 1.268 . S
C749 C22 1.258 . S
C755 C69 1.401 . S
C769 C44 1.303 . S
C775 C92 1.394 . S
C789 C62 1.259 . S
C795 C109 1.398 . S
C809 C12 1.406 . S
C815 C84 1.274 . S
C829 C29 1.397 . S
C835 C102 1.259 . S
C849 C209 1.407 . S
C855 C122 1.272 . S
C869 C144 1.274 . S
C875 C232 1.406 . S
C889 C162 1.268 . S
C895 C129 1.406 . S
C909 C152 1.386 . S
C915 C184 1.297 . S
C929 C202 1.290 . S
C935 C169 1.385 . S
C949 C224 1.303 . S
C955 C192 1.389 . S
