# Generated by pormake.
# Topology tfs, (6)-cn, num edge types: 1
# Building blocks:
#     Node 0, Type 0, BuildingBlock: JUFBIX_clean_sbu_0, # of connection points: 6
#     Node 1, Type 0, BuildingBlock: JUFBIX_clean_sbu_0, # of connection points: 6
#     Node 2, Type 0, BuildingBlock: JUFBIX_clean_sbu_0, # of connection points: 6
#     Node 3, Type 0, BuildingBlock: JUFBIX_clean_sbu_0, # of connection points: 6
#     Node 4, Type 0, BuildingBlock: JUFBIX_clean_sbu_0, # of connection points: 6
#     Node 5, Type 0, BuildingBlock: JUFBIX_clean_sbu_0, # of connection points: 6
#     Edge 6, Type (0, 0), BuildingBlock: UVAHIK_clean_linker_0, # of connection points: 2
#     Edge 7, Type (0, 0), BuildingBlock: UVAHIK_clean_linker_0, # of connection points: 2
#     Edge 8, Type (0, 0), BuildingBlock: UVAHIK_clean_linker_0, # of connection points: 2
#     Edge 9, Type (0, 0), BuildingBlock: UVAHIK_clean_linker_0, # of connection points: 2
#     Edge 10, Type (0, 0), BuildingBlock: UVAHIK_clean_linker_0, # of connection points: 2
#     Edge 11, Type (0, 0), BuildingBlock: UVAHIK_clean_linker_0, # of connection points: 2
#     Edge 12, Type (0, 0), BuildingBlock: UVAHIK_clean_linker_0, # of connection points: 2
#     Edge 13, Type (0, 0), BuildingBlock: UVAHIK_clean_linker_0, # of connection points: 2
#     Edge 14, Type (0, 0), BuildingBlock: UVAHIK_clean_linker_0, # of connection points: 2
#     Edge 15, Type (0, 0), BuildingBlock: UVAHIK_clean_linker_0, # of connection points: 2
#     Edge 16, Type (0, 0), BuildingBlock: UVAHIK_clean_linker_0, # of connection points: 2
#     Edge 17, Type (0, 0), BuildingBlock: UVAHIK_clean_linker_0, # of connection points: 2
#     Edge 18, Type (0, 0), BuildingBlock: UVAHIK_clean_linker_0, # of connection points: 2
#     Edge 19, Type (0, 0), BuildingBlock: UVAHIK_clean_linker_0, # of connection points: 2
#     Edge 20, Type (0, 0), BuildingBlock: UVAHIK_clean_linker_0, # of connection points: 2
#     Edge 21, Type (0, 0), BuildingBlock: UVAHIK_clean_linker_0, # of connection points: 2
#     Edge 22, Type (0, 0), BuildingBlock: UVAHIK_clean_linker_0, # of connection points: 2
#     Edge 23, Type (0, 0), BuildingBlock: UVAHIK_clean_linker_0, # of connection points: 2
# Relax obj value: 0.274
# Max RMSD: 0.213
# Mean RMSD: 0.174
data_MOF--net-tfs--node1-JUFBIX_clean_sbu_0--edge1-UVAHIK_clean_linker_0
_symmetry_space_group_name_H-M    P1
_symmetry_Int_Tables_number       1
_symmetry_cell_setting            triclinic
loop_
_symmetry_equiv_pos_as_xyz
'x, y, z'
_cell_length_a     55.106494
_cell_length_b     58.732722
_cell_length_c     19.489528
_cell_angle_alpha  90.135774
_cell_angle_beta   92.561133
_cell_angle_gamma 113.98758
loop_
_atom_site_label
_atom_site_type_symbol
_atom_site_fract_x
_atom_site_fract_y
_atom_site_fract_z
_atom_type_partial_charge
Co0 Co 0.23786 0.40694 0.00963 0.0
C1 C 0.21288 0.39674 0.13523 0.0
Co2 Co 0.19438 0.38443 0.00142 0.0
C3 C 0.28906 0.44832 0.00113 0.0
C4 C 0.29122 0.41893 0.06231 0.0
N5 N 0.27424 0.42516 0.02269 0.0
N6 N 0.31452 0.45683 0.02611 0.0
C7 C 0.31597 0.43829 0.06428 0.0
H8 H 0.28121 0.45895 0.96882 0.0
H9 H 0.28574 0.40182 0.09032 0.0
C10 C 0.21978 0.39475 0.87587 0.0
N11 N 0.15768 0.36645 0.98793 0.0
C12 C 0.13961 0.35024 0.02877 0.0
C13 C 0.14333 0.36754 0.93092 0.0
N14 N 0.11489 0.34101 -0.00161 0.0
C15 C 0.11716 0.3518 0.93701 0.0
C16 C 0.20962 0.43622 0.9962 0.0
O17 O 0.24092 0.40646 0.91267 0.0
O18 O 0.19798 0.38392 0.905 0.0
O19 O 0.18958 0.41528 0.99433 0.0
O20 O 0.23274 0.43655 0.00316 0.0
O21 O 0.19161 0.38521 0.09858 0.0
H22 H 0.15124 0.37932 0.88768 0.0
H23 H 0.1444 0.34529 0.07949 0.0
O24 O 0.23471 0.40741 0.10599 0.0
O25 O 0.24261 0.3771 0.01649 0.0
O26 O 0.19966 0.35386 0.00846 0.0
C27 C 0.22351 0.35572 0.01561 0.0
H28 H 0.33335 0.4391 0.09418 0.0
H29 H 0.10086 0.34896 0.90008 0.0
Co30 Co 0.7844 0.2188 0.05934 0.0
C31 C 0.79086 0.24168 0.19031 0.0
Co32 Co 0.79717 0.2598 0.06078 0.0
C33 C 0.75497 0.16518 0.02865 0.0
C34 C 0.78549 0.17376 0.10871 0.0
N35 N 0.77371 0.18446 0.06521 0.0
N36 N 0.75504 0.14303 0.04731 0.0
C37 C 0.77418 0.14844 0.09768 0.0
H38 H 0.74215 0.1674 0.98789 0.0
H39 H 0.80164 0.18382 0.14556 0.0
C40 C 0.79063 0.23691 0.92975 0.0
N41 N 0.80952 0.2943 0.05421 0.0
C42 C 0.80231 0.31143 0.08335 0.0
C43 C 0.83025 0.30771 0.01614 0.0
N44 N 0.81813 0.33491 0.06543 0.0
C45 C 0.8356 0.3325 0.02309 0.0
C46 C 0.83924 0.24489 0.06906 0.0
O47 O 0.78373 0.21664 0.96211 0.0
O48 O 0.79729 0.25729 0.96338 0.0
O49 O 0.83292 0.26336 0.06929 0.0
O50 O 0.82093 0.22304 0.06358 0.0
O51 O 0.79684 0.26186 0.15781 0.0
H52 H 0.84096 0.29992 0.98525 0.0
H53 H 0.78619 0.30685 0.11777 0.0
O54 O 0.78512 0.22137 0.15687 0.0
O55 O 0.74819 0.21511 0.05486 0.0
O56 O 0.76129 0.25585 0.05327 0.0
C57 C 0.74253 0.23412 0.05232 0.0
H58 H 0.77965 0.13497 0.12459 0.0
H59 H 0.85099 0.34763 0.99808 0.0
Co60 Co 0.57845 0.76888 0.02312 0.0
C61 C 0.59157 0.79189 0.89501 0.0
Co62 Co 0.59915 0.81 0.02655 0.0
C63 C 0.53814 0.71792 0.03274 0.0
C64 C 0.57198 0.72075 0.97766 0.0
N65 N 0.56183 0.73452 0.01224 0.0
N66 N 0.53342 0.69437 0.01278 0.0
C67 C 0.5547 0.69617 0.97817 0.0
H68 H 0.52468 0.72299 0.06162 0.0
H69 H 0.59065 0.72818 0.95252 0.0
C70 C 0.58593 0.78688 0.15465 0.0
N71 N 0.61738 0.84447 0.03743 0.0
C72 C 0.61644 0.86382 0.00132 0.0
C73 C 0.63738 0.85509 0.08533 0.0
N74 N 0.63539 0.8859 0.0247 0.0
C75 C 0.64848 0.88039 0.0775 0.0
C76 C 0.54377 0.79236 0.01519 0.0
O77 O 0.5754 0.76662 0.11967 0.0
O78 O 0.59718 0.80728 0.12372 0.0
O79 O 0.56502 0.81238 0.02117 0.0
O80 O 0.54559 0.77148 0.01347 0.0
O81 O 0.60079 0.81226 0.92965 0.0
H82 H 0.64401 0.84498 0.12263 0.0
H83 H 0.60295 0.8617 0.9573 0.0
O84 O 0.58161 0.77141 0.92628 0.0
O85 O 0.61137 0.76645 0.034 0.0
O86 O 0.63302 0.80692 0.03174 0.0
C87 C 0.63325 0.78541 0.03626 0.0
H88 H 0.55724 0.68085 0.95318 0.0
H89 H 0.66517 0.89377 0.10774 0.0
Co90 Co 0.82167 0.62533 0.06798 0.0
C91 C 0.79615 0.61521 0.19349 0.0
Co92 Co 0.77795 0.6031 0.05969 0.0
C93 C 0.87712 0.6595 0.04205 0.0
C94 C 0.87258 0.64144 0.13884 0.0
N95 N 0.8586 0.64312 0.08174 0.0
N96 N 0.90172 0.66829 0.07333 0.0
C97 C 0.89888 0.65699 0.13407 0.0
H98 H 0.87269 0.66498 0.99165 0.0
H99 H 0.86431 0.62941 0.18137 0.0
C100 C 0.80307 0.61311 0.93418 0.0
N101 N 0.7414 0.58484 0.04681 0.0
C102 C 0.72643 0.56173 0.06873 0.0
C103 C 0.72441 0.59118 0.00762 0.0
N104 N 0.70086 0.5534 0.04453 0.0
C105 C 0.69952 0.57199 0.00637 0.0
C106 C 0.79285 0.65443 0.05381 0.0
O107 O 0.82439 0.62455 0.97084 0.0
O108 O 0.78119 0.60256 0.96337 0.0
O109 O 0.77348 0.63317 0.05258 0.0
O110 O 0.81658 0.65594 0.06122 0.0
O111 O 0.77495 0.60371 0.15668 0.0
H112 H 0.72992 0.6083 0.97965 0.0
H113 H 0.73423 0.55105 0.10102 0.0
O114 O 0.818 0.62581 0.16439 0.0
O115 O 0.82612 0.59438 0.07501 0.0
O116 O 0.78289 0.57342 0.06649 0.0
C117 C 0.80592 0.57356 0.07349 0.0
H118 H 0.91489 0.65944 0.17163 0.0
H119 H 0.68208 0.57136 0.97715 0.0
Co120 Co 0.21945 0.75038 0.00444 0.0
C121 C 0.227 0.77347 0.13558 0.0
Co122 Co 0.23297 0.79152 0.00602 0.0
C123 C 0.21204 0.69806 0.98496 0.0
C124 C 0.18319 0.70296 0.04632 0.0
N125 N 0.20489 0.71574 0.01077 0.0
N126 N 0.19533 0.67481 0.00255 0.0
C127 C 0.17725 0.67798 0.04118 0.0
H128 H 0.22899 0.70212 0.95367 0.0
H129 H 0.17243 0.71133 0.07498 0.0
C130 C 0.22532 0.76828 0.87485 0.0
N131 N 0.24766 0.82624 -0.00011 0.0
C132 C 0.24576 0.8445 0.03912 0.0
C133 C 0.26623 0.83848 0.95475 0.0
N134 N 0.26268 0.86744 0.0201 0.0
C135 C 0.27551 0.86363 0.96718 0.0
C136 C 0.27366 0.77341 0.01184 0.0
O137 O 0.2193 0.74811 0.90736 0.0
O138 O 0.23137 0.78862 0.90834 0.0
O139 O 0.26829 0.79254 0.00976 0.0
O140 O 0.25462 0.75188 0.01109 0.0
O141 O 0.23423 0.79378 0.10329 0.0
H142 H 0.27349 0.82961 0.91688 0.0
H143 H 0.23336 0.84106 0.08277 0.0
O144 O 0.21978 0.75302 0.10189 0.0
O145 O 0.18448 0.74941 0.99684 0.0
O146 O 0.19744 0.79001 0.00258 0.0
C147 C 0.17872 0.76827 0.99738 0.0
H148 H 0.16119 0.66328 0.06553 0.0
H149 H 0.29109 0.87808 0.94073 0.0
Co150 Co 0.41876 0.19918 0.05706 0.0
C151 C 0.42839 0.22236 0.92927 0.0
Co152 Co 0.43858 0.24051 0.06198 0.0
C153 C 0.38568 0.14588 0.07992 0.0
C154 C 0.41478 0.15276 0.00438 0.0
N155 N 0.40485 0.1645 0.04736 0.0
N156 N 0.38377 0.12315 0.05922 0.0
C157 C 0.40203 0.12751 0.01178 0.0
H158 H 0.37408 0.14891 0.11954 0.0
H159 H 0.4308 0.16204 0.97066 0.0
C160 C 0.42895 0.21746 0.18974 0.0
N161 N 0.45305 0.27513 0.07166 0.0
C162 C 0.4764 0.29239 0.05103 0.0
C163 C 0.44223 0.28831 0.10635 0.0
N164 N 0.48037 0.31575 0.07125 0.0
C165 C 0.45883 0.31316 0.10589 0.0
C166 C 0.38263 0.22023 0.05821 0.0
O167 O 0.41874 0.19719 0.15457 0.0
O168 O 0.43874 0.23805 0.15891 0.0
O169 O 0.40407 0.2398 0.06122 0.0
O170 O 0.38359 0.19894 0.05477 0.0
O171 O 0.43827 0.24262 0.96452 0.0
H172 H 0.42373 0.28032 0.13215 0.0
H173 H 0.4903 0.2879 0.02232 0.0
O174 O 0.41895 0.20175 0.96005 0.0
O175 O 0.45426 0.20002 0.05938 0.0
O176 O 0.47284 0.24082 0.0629 0.0
C177 C 0.47517 0.22022 0.06129 0.0
H178 H 0.40601 0.11336 0.98476 0.0
H179 H 0.45573 0.32808 0.1314 0.0
C180 C 0.33737 0.21477 0.01031 0.0
C181 C 0.35752 0.22334 0.06281 0.0
C182 C 0.31729 0.22381 0.00683 0.0
C183 C 0.31188 0.28154 0.05347 0.0
H184 H 0.23565 0.24778 0.01699 0.0
C185 C 0.24854 0.33578 0.08132 0.0
C186 C 0.22999 0.334 0.02773 0.0
C187 C 0.25959 0.3183 0.08669 0.0
C188 C 0.25695 0.25742 0.02659 0.0
H189 H 0.37146 0.24619 0.15549 0.0
H190 H 0.33636 0.26131 0.15068 0.0
H191 H 0.26304 0.22341 0.02445 0.0
H192 H 0.20722 0.31188 0.93965 0.0
H193 H 0.22715 0.28115 0.94809 0.0
H194 H 0.30638 0.3154 0.05505 0.0
C195 C 0.33616 0.24814 0.11139 0.0
C196 C 0.27257 0.24349 0.0309 0.0
C197 C 0.35614 0.23935 0.11448 0.0
C198 C 0.22138 0.31347 0.98174 0.0
C199 C 0.23281 0.29598 0.98657 0.0
C200 C 0.29646 0.29531 0.04897 0.0
C201 C 0.31727 0.24147 0.05587 0.0
C202 C 0.30015 0.25545 0.04606 0.0
C203 C 0.25284 0.29883 0.03764 0.0
C204 C 0.26873 0.28348 0.0372 0.0
H205 H 0.33828 0.20265 0.96943 0.0
H206 H 0.30298 0.21836 0.96347 0.0
H207 H 0.33317 0.29141 0.06312 0.0
H208 H 0.25534 0.35136 0.11771 0.0
H209 H 0.27437 0.32068 0.12781 0.0
C210 C 0.07909 0.33317 0.07757 0.0
C211 C 0.09028 0.32464 0.02565 0.0
C212 C 0.05248 0.31973 0.0929 0.0
C213 C 0.98975 0.27354 0.00856 0.0
H214 H 0.961 0.27884 0.18284 0.0
C215 C 0.87645 0.23144 0.05109 0.0
C216 C 0.86767 0.24925 0.07501 0.0
C217 C 0.90369 0.23674 0.05262 0.0
C218 C 0.9688 0.2771 0.13399 0.0
H219 H 0.08352 0.29503 0.95174 0.0
H220 H 0.0376 0.27055 0.98106 0.0
H221 H 0.00909 0.2942 0.17409 0.0
H222 H 0.88037 0.28608 0.12196 0.0
H223 H 0.92765 0.29501 0.12594 0.0
H224 H 0.94934 0.25639 0.96882 0.0
C225 C 0.04876 0.28801 0.00851 0.0
C226 C 0.99638 0.28605 0.12873 0.0
C227 C 0.07515 0.30175 0.99231 0.0
C228 C 0.88652 0.27201 0.1028 0.0
C229 C 0.91359 0.27708 0.10558 0.0
C230 C 0.96221 0.26422 0.0142 0.0
C231 C 0.03666 0.29729 0.05704 0.0
C232 C 1.00731 0.28498 0.06546 0.0
C233 C 0.92251 0.25969 0.07956 0.0
C234 C 0.95148 0.26643 0.0765 0.0
H235 H 0.09041 0.35107 0.1028 0.0
H236 H 0.04399 0.32778 0.12991 0.0
H237 H 0.99717 0.27274 0.95853 0.0
H238 H 0.86237 0.21377 0.02933 0.0
H239 H 0.91007 0.22301 0.03228 0.0
C240 C 0.75086 0.10148 0.01051 0.0
C241 C 0.73919 0.11849 0.0189 0.0
C242 C 0.7354 0.07682 0.99016 0.0
C243 C 0.66868 0.02836 0.00115 0.0
H244 H 0.69629 0.99185 0.88428 0.0
C245 C 0.62296 0.91998 0.98535 0.0
C246 C 0.6423 0.91043 0.99784 0.0
C247 C 0.63064 0.94527 0.97007 0.0
C248 C 0.68819 1.00176 0.91677 0.0
H249 H 0.70229 0.12329 0.01075 0.0
H250 H 0.67482 0.07965 0.97578 0.0
H251 H 0.71756 0.03728 0.88984 0.0
H252 H 0.6844 0.91913 0.00029 0.0
H253 H 0.69781 0.96283 0.97293 0.0
H254 H 0.6401 0.9927 0.03063 0.0
C255 C 0.69607 0.08558 0.98478 0.0
C256 C 0.70039 0.02779 0.91995 0.0
C257 C 0.71173 0.11052 0.00427 0.0
C258 C 0.66917 0.92612 0.99103 0.0
C259 C 0.67678 0.95111 0.97488 0.0
C260 C 0.65646 1.00223 0.99803 0.0
C261 C 0.70775 0.06839 0.97825 0.0
C262 C 0.69144 0.04136 0.96421 0.0
C263 C 0.65772 0.9612 0.96577 0.0
C264 C 0.66676 0.98862 0.95786 0.0
H265 H 0.772 0.1072 0.021 0.0
H266 H 0.74504 0.06407 0.98653 0.0
H267 H 0.66138 0.03825 0.036 0.0
H268 H 0.60214 0.90821 0.99084 0.0
H269 H 0.61548 0.95248 0.96308 0.0
C270 C 0.76552 0.6751 0.00084 0.0
C271 C 0.78695 0.6767 0.04533 0.0
C272 C 0.75707 0.69449 0.998 0.0
C273 C 0.74905 0.74268 0.98399 0.0
H274 H 0.7283 0.75722 0.16069 0.0
C275 C 0.68123 0.79632 0.01187 0.0
C276 C 0.65817 0.78171 0.04561 0.0
C277 C 0.70333 0.79007 0.01463 0.0
C278 C 0.73436 0.7537 0.11107 0.0
H279 H 0.81688 0.70011 0.12042 0.0
H280 H 0.80142 0.73403 0.11719 0.0
H281 H 0.7567 0.73435 0.15536 0.0
H282 H 0.64061 0.75011 0.1116 0.0
H283 H 0.67914 0.73976 0.11805 0.0
H284 H 0.72563 0.76097 0.93955 0.0
C285 C 0.79151 0.71781 0.08372 0.0
C286 C 0.75075 0.74074 0.10805 0.0
C287 C 0.80042 0.69852 0.08537 0.0
C288 C 0.6581 0.76166 0.08492 0.0
C289 C 0.68024 0.75582 0.08899 0.0
C290 C 0.73297 0.75595 0.98708 0.0
C291 C 0.76948 0.71579 0.04061 0.0
C292 C 0.7574 0.73425 0.04433 0.0
C293 C 0.70289 0.76957 0.05276 0.0
C294 C 0.72461 0.76073 0.05051 0.0
H295 H 0.75481 0.65849 0.96931 0.0
H296 H 0.73987 0.6922 0.96491 0.0
H297 H 0.75396 0.73802 0.93418 0.0
H298 H 0.68171 0.81177 0.98091 0.0
H299 H 0.72054 0.80094 0.98609 0.0
C300 C 0.13154 0.74217 0.96016 0.0
C301 C 0.1503 0.76416 0.99217 0.0
C302 C 0.10438 0.73668 0.95951 0.0
C303 C 0.05546 0.74561 0.06105 0.0
H304 H 0.00801 0.71892 0.90015 0.0
C305 C 0.94228 0.70684 0.08628 0.0
C306 C 0.9267 0.68508 0.04829 0.0
C307 C 0.96881 0.72073 0.07136 0.0
C308 C 0.02086 0.72608 0.94585 0.0
H309 H 0.15525 0.79789 0.04756 0.0
H310 H 0.10734 0.78788 0.04818 0.0
H311 H 0.05606 0.73538 0.88925 0.0
H312 H 0.92616 0.66088 0.96429 0.0
H313 H 0.97279 0.68445 0.93908 0.0
H314 H 0.0207 0.73506 0.11878 0.0
C315 C 0.1139 0.77509 0.02289 0.0
C316 C 0.04845 0.7357 0.93938 0.0
C317 C 0.14127 0.78087 0.02228 0.0
C318 C 0.93775 0.67791 0.99326 0.0
C319 C 0.96452 0.6915 0.97907 0.0
C320 C 0.02791 0.73562 0.0678 0.0
C321 C 0.09517 0.7528 0.99193 0.0
C322 C 0.06605 0.74528 0.99708 0.0
C323 C 0.9807 0.71278 0.01921 0.0
C324 C 0.01011 0.72538 0.01047 0.0
H325 H 0.13786 0.72894 0.93631 0.0
H326 H 0.09047 0.71927 0.93585 0.0
H327 H 0.0685 0.75251 0.10663 0.0
H328 H 0.93408 0.71254 0.12925 0.0
H329 H 0.98017 0.73731 0.10228 0.0
C330 C 0.24957 0.9008 0.05877 0.0
C331 C 0.26897 0.89124 0.05298 0.0
C332 C 0.25699 0.9258 0.07923 0.0
C333 C 0.31312 0.98099 0.15934 0.0
H334 H 0.28984 0.01976 0.0328 0.0
C335 C 0.37846 0.0817 0.09755 0.0
C336 C 0.36726 0.09891 0.08374 0.0
C337 C 0.3624 0.05696 0.11134 0.0
C338 C 0.29611 0.00923 0.06969 0.0
H339 H 0.31084 0.89953 0.06692 0.0
H340 H 0.32382 0.94273 0.10383 0.0
H341 H 0.26831 0.97425 0.02622 0.0
H342 H 0.33058 0.10406 0.07557 0.0
H343 H 0.30202 0.06026 0.09902 0.0
H344 H 0.34174 0.01587 0.2007 0.0
C345 C 0.30293 0.93123 0.09281 0.0
C346 C 0.28376 0.98311 0.06592 0.0
C347 C 0.29557 0.90654 0.07144 0.0
C348 C 0.33963 0.09112 0.08666 0.0
C349 C 0.32336 0.06608 0.09948 0.0
C350 C 0.32543 0.00703 0.16312 0.0
C351 C 0.28387 0.94141 0.09539 0.0
C352 C 0.29285 0.9687 0.10893 0.0
C353 C 0.33459 0.04863 0.11092 0.0
C354 C 0.31781 0.02146 0.11656 0.0
H355 H 0.22898 0.88933 0.044 0.0
H356 H 0.24184 0.93308 0.08088 0.0
H357 H 0.32026 0.97045 0.19409 0.0
H358 H 0.39972 0.08731 0.09558 0.0
H359 H 0.37175 0.04405 0.11895 0.0
C360 C 0.2209 0.64922 0.98323 0.0
C361 C 0.19645 0.65124 0.9871 0.0
C362 C 0.2217 0.62573 0.97674 0.0
C363 C 0.18092 0.55929 0.01136 0.0
H364 H 0.23244 0.54725 0.90499 0.0
C365 C 0.18159 0.46107 0.98408 0.0
C366 C 0.20671 0.46018 0.98999 0.0
C367 C 0.17946 0.48402 0.97867 0.0
C368 C 0.21802 0.55035 0.93533 0.0
H369 H 0.15369 0.63043 0.98223 0.0
H370 H 0.155 0.58972 0.96997 0.0
H371 H 0.23085 0.58818 0.90332 0.0
H372 H 0.24927 0.48282 0.99456 0.0
H373 H 0.2455 0.52245 0.98576 0.0
H374 H 0.16825 0.52158 0.04389 0.0
C375 C 0.17362 0.60608 0.9741 0.0
C376 C 0.21715 0.57384 0.93443 0.0
C377 C 0.17285 0.62944 0.98089 0.0
C378 C 0.22956 0.48271 0.98995 0.0
C379 C 0.22743 0.50552 0.98436 0.0
C380 C 0.18177 0.53582 0.01219 0.0
C381 C 0.19804 0.60383 0.9736 0.0
C382 C 0.19867 0.57867 0.97272 0.0
C383 C 0.2024 0.50653 0.97872 0.0
C384 C 0.20047 0.53109 0.97464 0.0
H385 H 0.23939 0.66567 0.98832 0.0
H386 H 0.24088 0.62471 0.97691 0.0
H387 H 0.16672 0.56242 0.04249 0.0
H388 H 0.16361 0.44408 0.98377 0.0
H389 H 0.15985 0.48412 0.97387 0.0
C390 C 0.50522 0.19745 0.05768 0.0
C391 C 0.50197 0.21999 0.06003 0.0
C392 C 0.53063 0.19755 0.05475 0.0
C393 C 0.59899 0.23779 0.00742 0.0
H394 H 0.6197 0.19341 0.11875 0.0
C395 C 0.70842 0.25222 0.04833 0.0
C396 C 0.71443 0.23114 0.04952 0.0
C397 C 0.68205 0.24962 0.04695 0.0
C398 C 0.61413 0.20569 0.0866 0.0
H399 H 0.52299 0.26029 0.0619 0.0
H400 H 0.56705 0.26042 0.05729 0.0
H401 H 0.57443 0.19098 0.12164 0.0
H402 H 0.69729 0.19071 0.04984 0.0
H403 H 0.65116 0.18619 0.0468 0.0
H404 H 0.6386 0.25261 0.97255 0.0
C405 C 0.55 0.24266 0.05677 0.0
C406 C 0.58818 0.2043 0.0883 0.0
C407 C 0.5247 0.24257 0.0599 0.0
C408 C 0.69337 0.20735 0.04905 0.0
C409 C 0.66693 0.20476 0.0477 0.0
C410 C 0.62486 0.23915 0.00563 0.0
C411 C 0.55332 0.22018 0.05374 0.0
C412 C 0.58041 0.22057 0.0494 0.0
C413 C 0.66094 0.22588 0.04663 0.0
C414 C 0.6329 0.22335 0.04585 0.0
H415 H 0.48812 0.17973 0.05758 0.0
H416 H 0.53248 0.17991 0.052 0.0
H417 H 0.59352 0.25024 0.97569 0.0
H418 H 0.72412 0.27084 0.04899 0.0
H419 H 0.67823 0.26631 0.04729 0.0
C420 C 0.4847 0.67178 0.02059 0.0
C421 C 0.51023 0.67179 0.02215 0.0
C422 C 0.46211 0.64923 0.02113 0.0
C423 C 0.4416 0.58265 0.97722 0.0
H424 H 0.37996 0.572 0.08233 0.0
C425 C 0.36203 0.48489 0.02338 0.0
C426 C 0.33523 0.48137 0.01946 0.0
C427 C 0.38225 0.50877 0.02055 0.0
C428 C 0.3969 0.57482 0.05199 0.0
H429 H 0.53223 0.64855 0.03065 0.0
H430 H 0.49309 0.60943 0.03248 0.0
H431 H 0.41746 0.61288 0.0867 0.0
H432 H 0.30861 0.50019 0.00951 0.0
H433 H 0.34404 0.542 0.00391 0.0
H434 H 0.42135 0.54466 0.94309 0.0
C435 C 0.49036 0.62664 0.02864 0.0
C436 C 0.41836 0.59821 0.05456 0.0
C437 C 0.51279 0.64904 0.02784 0.0
C438 C 0.32907 0.50227 0.01186 0.0
C439 C 0.34934 0.52622 0.00946 0.0
C440 C 0.42026 0.55937 0.97477 0.0
C441 C 0.46474 0.62639 0.02345 0.0
C442 C 0.44113 0.60222 0.0181 0.0
C443 C 0.37615 0.52971 0.01398 0.0
C444 C 0.39786 0.55506 0.01293 0.0
H445 H 0.48219 0.68907 0.01585 0.0
H446 H 0.44262 0.64963 0.01703 0.0
H447 H 0.45857 0.58532 0.94713 0.0
H448 H 0.36738 0.46916 0.02874 0.0
H449 H 0.40272 0.51087 0.02488 0.0
C450 C 0.78559 0.52711 0.08063 0.0
C451 C 0.80858 0.54952 0.08062 0.0
C452 C 0.7875 0.50425 0.08746 0.0
C453 C 0.83291 0.47357 0.06259 0.0
H454 H 0.78309 0.42152 0.17087 0.0
C455 C 0.84081 0.37977 0.09304 0.0
C456 C 0.81711 0.35818 0.08472 0.0
C457 C 0.84023 0.40312 0.10162 0.0
C458 C 0.79701 0.43579 0.14002 0.0
H459 H 0.85167 0.56539 0.08832 0.0
H460 H 0.85504 0.52525 0.10033 0.0
H461 H 0.78188 0.46262 0.16828 0.0
H462 H 0.77419 0.34392 0.08227 0.0
H463 H 0.773 0.38495 0.09662 0.0
H464 H 0.84777 0.44675 0.0333 0.0
C465 C 0.8355 0.52549 0.09453 0.0
C466 C 0.79635 0.45936 0.13857 0.0
C467 C 0.83359 0.54848 0.08786 0.0
C468 C 0.79273 0.36027 0.08892 0.0
C469 C 0.79211 0.38377 0.09708 0.0
C470 C 0.83355 0.45003 0.06397 0.0
C471 C 0.81244 0.50309 0.0944 0.0
C472 C 0.81417 0.47849 0.09939 0.0
C473 C 0.8159 0.40555 0.10163 0.0
C474 C 0.81554 0.43079 0.10244 0.0
H475 H 0.76595 0.52713 0.07506 0.0
H476 H 0.76935 0.4874 0.08595 0.0
H477 H 0.84661 0.4877 0.03096 0.0
H478 H 0.85989 0.37863 0.09135 0.0
H479 H 0.85893 0.41937 0.1069 0.0
C480 C 0.32271 0.80034 0.01627 0.0
C481 C 0.30181 0.77642 0.01418 0.0
C482 C 0.34926 0.8033 0.01764 0.0
C483 C 0.39216 0.7694 0.05663 0.0
H484 H 0.44341 0.82108 0.95049 0.0
C485 C 0.49424 0.76987 0.00749 0.0
C486 C 0.51685 0.79261 0.01277 0.0
C487 C 0.4687 0.76928 0.00855 0.0
C488 C 0.42943 0.80677 0.98109 0.0
H489 H 0.2926 0.73684 0.01154 0.0
H490 H 0.33882 0.74198 0.01313 0.0
H491 H 0.39748 0.81707 0.95051 0.0
H492 H 0.5301 0.8327 0.02194 0.0
H493 H 0.48513 0.83167 0.02368 0.0
H494 H 0.42395 0.75891 0.08662 0.0
C495 C 0.33472 0.7585 0.01481 0.0
C496 C 0.40306 0.80444 0.98114 0.0
C497 C 0.30816 0.75553 0.01351 0.0
C498 C 0.51315 0.81488 0.01777 0.0
C499 C 0.48739 0.81428 0.01858 0.0
C500 C 0.41843 0.77169 0.05643 0.0
C501 C 0.35566 0.78244 0.01692 0.0
C502 C 0.38399 0.78554 0.01838 0.0
C503 C 0.46486 0.7914 0.01487 0.0
C504 C 0.43735 0.7902 0.01803 0.0
H505 H 0.31859 0.81687 0.01694 0.0
H506 H 0.36479 0.822 0.02016 0.0
H507 H 0.37827 0.75501 0.0872 0.0
H508 H 0.49618 0.7523 0.00313 0.0
H509 H 0.45186 0.75137 0.00414 0.0
C510 C 0.65312 0.52602 0.0496 0.0
C511 C 0.67979 0.52907 0.0525 0.0
C512 C 0.63253 0.50236 0.0538 0.0
C513 C 0.61628 0.43571 0.02495 0.0
H514 H 0.55568 0.42677 0.13249 0.0
C515 C 0.529 0.33906 0.06162 0.0
C516 C 0.50336 0.33871 0.0628 0.0
C517 C 0.5514 0.36175 0.06009 0.0
C518 C 0.57229 0.42897 0.10151 0.0
H519 H 0.70572 0.50955 0.06217 0.0
H520 H 0.66968 0.46814 0.06994 0.0
H521 H 0.59314 0.46724 0.13288 0.0
H522 H 0.48103 0.36173 0.05914 0.0
H523 H 0.5198 0.40109 0.0554 0.0
H524 H 0.59519 0.39744 0.99285 0.0
C525 C 0.66476 0.48413 0.06415 0.0
C526 C 0.59381 0.45218 0.10193 0.0
C527 C 0.68541 0.50787 0.06048 0.0
C528 C 0.50054 0.36141 0.05971 0.0
C529 C 0.52281 0.38399 0.05784 0.0
C530 C 0.59464 0.41243 0.0243 0.0
C531 C 0.63807 0.4811 0.06064 0.0
C532 C 0.61594 0.45593 0.06308 0.0
C533 C 0.54858 0.38453 0.05942 0.0
C534 C 0.57222 0.40887 0.06191 0.0
H535 H 0.64814 0.54197 0.04404 0.0
H536 H 0.61219 0.50068 0.05029 0.0
H537 H 0.63294 0.43806 0.99398 0.0
H538 H 0.53182 0.32189 0.06451 0.0
H539 H 0.57094 0.36147 0.06171 0.0
C540 C 0.1962 0.38065 0.76093 0.0
C541 C 0.21989 0.39425 0.79987 0.0
C542 C 0.19559 0.38091 0.6893 0.0
C543 C 0.23819 0.39397 0.54095 0.0
H544 H 0.17783 0.39949 0.44404 0.0
C545 C 0.23663 0.41063 0.25006 0.0
C546 C 0.21285 0.39724 0.21124 0.0
C547 C 0.23727 0.41042 0.32171 0.0
C548 C 0.19466 0.39765 0.47025 0.0
H549 H 0.26165 0.41854 0.79382 0.0
H550 H 0.26057 0.41908 0.66824 0.0
H551 H 0.17986 0.39886 0.56922 0.0
H552 H 0.17098 0.37333 0.21749 0.0
H553 H 0.17214 0.37281 0.34304 0.0
H554 H 0.25298 0.39272 0.442 0.0
C555 C 0.24249 0.40806 0.69341 0.0
C556 C 0.19585 0.3973 0.54203 0.0
C557 C 0.24311 0.40781 0.76534 0.0
C558 C 0.1896 0.38389 0.24588 0.0
C559 C 0.19025 0.38368 0.31781 0.0
C560 C 0.23699 0.3943 0.46916 0.0
C561 C 0.21865 0.39477 0.6546 0.0
C562 C 0.21762 0.39544 0.57825 0.0
C563 C 0.21417 0.39678 0.35654 0.0
C564 C 0.21523 0.39617 0.43292 0.0
H565 H 0.17795 0.36986 0.78574 0.0
H566 H 0.17702 0.37011 0.66104 0.0
H567 H 0.25503 0.39214 0.56718 0.0
H568 H 0.25491 0.42122 0.22514 0.0
H569 H 0.25591 0.42108 0.34985 0.0
C570 C 0.78346 0.21485 0.81517 0.0
C571 C 0.79082 0.23708 0.85383 0.0
C572 C 0.7835 0.21528 0.74338 0.0
C573 C 0.81129 0.25751 0.59921 0.0
H574 H 0.75361 0.20702 0.4913 0.0
C575 C 0.79744 0.26369 0.30478 0.0
C576 C 0.79063 0.24151 0.26623 0.0
C577 C 0.79736 0.26328 0.37656 0.0
C578 C 0.76999 0.22112 0.5207 0.0
H579 H 0.80397 0.27721 0.84734 0.0
H580 H 0.80374 0.27788 0.72262 0.0
H581 H 0.75394 0.20573 0.61637 0.0
H582 H 0.77839 0.20149 0.27292 0.0
H583 H 0.77843 0.20085 0.39767 0.0
H584 H 0.8273 0.27293 0.50349 0.0
C585 C 0.7983 0.26014 0.7476 0.0
C586 C 0.77021 0.22035 0.59239 0.0
C587 C 0.79827 0.25972 0.81919 0.0
C588 C 0.78366 0.21893 0.30097 0.0
C589 C 0.78353 0.21852 0.37255 0.0
C590 C 0.81105 0.2583 0.52753 0.0
C591 C 0.79092 0.23795 0.70878 0.0
C592 C 0.79085 0.23854 0.63251 0.0
C593 C 0.79039 0.24067 0.41122 0.0
C594 C 0.79042 0.2401 0.48745 0.0
H595 H 0.77766 0.19711 0.8403 0.0
H596 H 0.778 0.19788 0.715 0.0
H597 H 0.8277 0.2716 0.62855 0.0
H598 H 0.80285 0.28138 0.27957 0.0
H599 H 0.80247 0.28063 0.4049 0.0
C600 C 0.60225 0.814 0.78285 0.0
C601 C 0.59177 0.79168 0.81906 0.0
C602 C 0.60172 0.81352 0.71098 0.0
C603 C 0.56686 0.77353 0.56002 0.0
H604 H 0.62807 0.81713 0.46369 0.0
C605 C 0.57469 0.76473 0.26663 0.0
C606 C 0.58575 0.78704 0.23059 0.0
C607 C 0.57525 0.76516 0.33851 0.0
C608 C 0.61068 0.80502 0.48976 0.0
H609 H 0.57276 0.75134 0.80809 0.0
H610 H 0.57205 0.75056 0.68324 0.0
H611 H 0.62955 0.81851 0.5889 0.0
H612 H 0.60578 0.82732 0.24185 0.0
H613 H 0.60641 0.82804 0.36661 0.0
H614 H 0.54795 0.76008 0.46093 0.0
C615 C 0.58035 0.76844 0.71021 0.0
C616 C 0.61155 0.80583 0.56154 0.0
C617 C 0.58093 0.7689 0.78188 0.0
C618 C 0.59716 0.80976 0.26793 0.0
C619 C 0.5977 0.81018 0.33959 0.0
C620 C 0.56598 0.77275 0.48823 0.0
C621 C 0.59063 0.79072 0.67386 0.0
C622 C 0.58965 0.79008 0.59751 0.0
C623 C 0.58689 0.7879 0.37583 0.0
C624 C 0.58787 0.7885 0.45223 0.0
H625 H 0.61069 0.83185 0.80995 0.0
H626 H 0.60959 0.83103 0.68443 0.0
H627 H 0.54951 0.7614 0.58617 0.0
H628 H 0.56581 0.74692 0.23939 0.0
H629 H 0.56698 0.74764 0.36488 0.0
C630 C 0.77931 0.59928 0.81933 0.0
C631 C 0.80311 0.61258 0.85817 0.0
C632 C 0.77868 0.59948 0.74769 0.0
C633 C 0.82124 0.61205 0.5991 0.0
H634 H 0.76108 0.618 0.50233 0.0
C635 C 0.8198 0.62914 0.30843 0.0
C636 C 0.79606 0.61571 0.2695 0.0
C637 C 0.82041 0.62886 0.38007 0.0
C638 C 0.77786 0.61604 0.52851 0.0
H639 H 0.84503 0.6363 0.85192 0.0
H640 H 0.84389 0.63681 0.72636 0.0
H641 H 0.76313 0.61737 0.6275 0.0
H642 H 0.75422 0.5917 0.27558 0.0
H643 H 0.75531 0.59111 0.40116 0.0
H644 H 0.83598 0.61076 0.50009 0.0
C645 C 0.82575 0.62602 0.75159 0.0
C646 C 0.77906 0.61569 0.60029 0.0
C647 C 0.8264 0.62581 0.82353 0.0
C648 C 0.7728 0.6023 0.30405 0.0
C649 C 0.77342 0.60203 0.37598 0.0
C650 C 0.82004 0.61242 0.52732 0.0
C651 C 0.8018 0.61302 0.71286 0.0
C652 C 0.80075 0.61367 0.63648 0.0
C653 C 0.79732 0.61514 0.41479 0.0
C654 C 0.79835 0.61445 0.49115 0.0
H655 H 0.761 0.58877 0.84424 0.0
H656 H 0.76002 0.5889 0.71954 0.0
H657 H 0.83801 0.61009 0.62526 0.0
H658 H 0.83808 0.63982 0.28362 0.0
H659 H 0.83903 0.63953 0.40832 0.0
C660 C 0.21924 0.75062 0.2461 0.0
C661 C 0.22696 0.7733 0.21153 0.0
C662 C 0.21921 0.75019 0.31769 0.0
C663 C 0.21704 0.78666 0.46952 0.0
H664 H 0.24324 0.74312 0.5675 0.0
C665 C 0.23282 0.7911 0.76432 0.0
C666 C 0.22541 0.76845 0.79891 0.0
C667 C 0.23296 0.79155 0.69275 0.0
C668 C 0.23555 0.75515 0.54088 0.0
H669 H 0.24066 0.81333 0.22518 0.0
H670 H 0.24075 0.81257 0.35057 0.0
H671 H 0.24395 0.74458 0.44254 0.0
H672 H 0.21236 0.72849 0.78531 0.0
H673 H 0.21236 0.72926 0.65996 0.0
H674 H 0.20859 0.7972 0.56779 0.0
C675 C 0.2345 0.7951 0.32204 0.0
C676 C 0.236 0.75602 0.46927 0.0
C677 C 0.23458 0.79555 0.25025 0.0
C678 C 0.2182 0.74624 0.76022 0.0
C679 C 0.21834 0.74671 0.68844 0.0
C680 C 0.21657 0.78578 0.54112 0.0
C681 C 0.22686 0.7724 0.35654 0.0
C682 C 0.22673 0.77177 0.43276 0.0
C683 C 0.22568 0.76938 0.6539 0.0
C684 C 0.22585 0.77003 0.57766 0.0
H685 H 0.21316 0.73311 0.21789 0.0
H686 H 0.21285 0.73237 0.34258 0.0
H687 H 0.20937 0.7987 0.44287 0.0
H688 H 0.23863 0.80859 0.7925 0.0
H689 H 0.23912 0.80937 0.66789 0.0
C690 C 0.41683 0.19967 0.81573 0.0
C691 C 0.42806 0.22236 0.85326 0.0
C692 C 0.4168 0.19929 0.74414 0.0
C693 C 0.45087 0.23643 0.59806 0.0
H694 H 0.38863 0.19101 0.49206 0.0
C695 C 0.44051 0.24021 0.30319 0.0
C696 C 0.42923 0.21751 0.26574 0.0
C697 C 0.44049 0.24063 0.37477 0.0
C698 C 0.40629 0.20357 0.52094 0.0
H699 H 0.44794 0.2625 0.84481 0.0
H700 H 0.4477 0.26185 0.71933 0.0
H701 H 0.388 0.19263 0.61698 0.0
H702 H 0.40917 0.17739 0.27432 0.0
H703 H 0.40934 0.17811 0.39978 0.0
H704 H 0.46917 0.24736 0.50204 0.0
C705 C 0.43916 0.24432 0.74559 0.0
C706 C 0.40592 0.20454 0.59253 0.0
C707 C 0.43916 0.24471 0.81743 0.0
C708 C 0.418 0.19518 0.30164 0.0
C709 C 0.41796 0.19561 0.37347 0.0
C710 C 0.45125 0.23545 0.52647 0.0
C711 C 0.42799 0.22159 0.70817 0.0
C712 C 0.42821 0.22096 0.63194 0.0
C713 C 0.42919 0.21836 0.41082 0.0
C714 C 0.42895 0.21903 0.48705 0.0
H715 H 0.40818 0.18207 0.84164 0.0
H716 H 0.40838 0.18145 0.71702 0.0
H717 H 0.46853 0.24898 0.62694 0.0
H718 H 0.44924 0.25779 0.27723 0.0
H719 H 0.44895 0.25849 0.40182 0.0
loop_
_geom_bond_atom_site_label_1
_geom_bond_atom_site_label_2
_geom_bond_distance
_geom_bond_site_symmetry_2
_ccdc_geom_bond_type
Co0 N5 2.057 . S
Co0 O17 2.021 1_554 S
Co0 O20 2.062 . S
Co0 O24 2.117 . S
Co0 O25 2.020 . S
C1 O21 1.259 . S
C1 O24 1.258 . S
Co2 N11 2.057 . S
Co2 O18 2.117 1_554 S
Co2 O19 2.020 . S
Co2 O21 2.021 . S
Co2 O26 2.062 . S
C3 N5 1.316 . S
C3 N6 1.347 . S
C3 H8 0.931 1_554 S
C4 N5 1.375 . S
C4 C7 1.350 . S
C4 H9 0.930 . S
N5 Co0 2.057 . S
N5 C3 1.316 . S
N5 C4 1.375 . S
N6 C3 1.347 . S
N6 C7 1.373 . S
C7 C4 1.350 . S
C7 N6 1.373 . S
C7 H28 0.931 . S
H8 C3 0.931 1_556 S
H9 C4 0.930 . S
C10 O17 1.259 . S
C10 O18 1.258 . S
N11 Co2 2.057 . S
N11 C12 1.316 . S
N11 C13 1.375 1_554 S
C12 N11 1.316 . S
C12 N14 1.347 . S
C12 H23 0.931 . S
C13 N11 1.375 1_556 S
C13 C15 1.350 . S
C13 H22 0.930 . S
N14 C12 1.347 . S
N14 C15 1.373 1_554 S
C15 C13 1.350 . S
C15 N14 1.373 1_556 S
C15 H29 0.931 . S
C16 O19 1.256 . S
C16 O20 1.255 . S
O17 Co0 2.021 1_556 S
O17 C10 1.259 . S
O18 Co2 2.117 1_556 S
O18 C10 1.258 . S
O19 Co2 2.020 . S
O19 C16 1.256 . S
O20 Co0 2.062 . S
O20 C16 1.255 . S
O21 C1 1.259 . S
O21 Co2 2.021 . S
H22 C13 0.930 . S
H23 C12 0.931 . S
O24 Co0 2.117 . S
O24 C1 1.258 . S
O25 Co0 2.020 . S
O25 C27 1.256 . S
O26 Co2 2.062 . S
O26 C27 1.255 . S
C27 O25 1.256 . S
C27 O26 1.255 . S
H28 C7 0.931 . S
H29 C15 0.931 . S
Co30 N35 2.057 . S
Co30 O47 2.021 1_554 S
Co30 O50 2.062 . S
Co30 O54 2.117 . S
Co30 O55 2.020 . S
C31 O51 1.259 . S
C31 O54 1.258 . S
Co32 N41 2.057 . S
Co32 O48 2.117 1_554 S
Co32 O49 2.020 . S
Co32 O51 2.021 . S
Co32 O56 2.062 . S
C33 N35 1.316 . S
C33 N36 1.347 . S
C33 H38 0.931 1_554 S
C34 N35 1.375 . S
C34 C37 1.350 . S
C34 H39 0.930 . S
N35 Co30 2.057 . S
N35 C33 1.316 . S
N35 C34 1.375 . S
N36 C33 1.347 . S
N36 C37 1.373 . S
C37 C34 1.350 . S
C37 N36 1.373 . S
C37 H58 0.931 . S
H38 C33 0.931 1_556 S
H39 C34 0.930 . S
C40 O47 1.259 . S
C40 O48 1.258 . S
N41 Co32 2.057 . S
N41 C42 1.316 . S
N41 C43 1.375 1_554 S
C42 N41 1.316 . S
C42 N44 1.347 . S
C42 H53 0.931 . S
C43 N41 1.375 1_556 S
C43 C45 1.350 . S
C43 H52 0.930 . S
N44 C42 1.347 . S
N44 C45 1.373 1_554 S
C45 C43 1.350 . S
C45 N44 1.373 1_556 S
C45 H59 0.931 . S
C46 O49 1.256 . S
C46 O50 1.255 . S
O47 Co30 2.021 1_556 S
O47 C40 1.259 . S
O48 Co32 2.117 1_556 S
O48 C40 1.258 . S
O49 Co32 2.020 . S
O49 C46 1.256 . S
O50 Co30 2.062 . S
O50 C46 1.255 . S
O51 C31 1.259 . S
O51 Co32 2.021 . S
H52 C43 0.930 . S
H53 C42 0.931 . S
O54 Co30 2.117 . S
O54 C31 1.258 . S
O55 Co30 2.020 . S
O55 C57 1.256 . S
O56 Co32 2.062 . S
O56 C57 1.255 . S
C57 O55 1.256 . S
C57 O56 1.255 . S
H58 C37 0.931 . S
H59 C45 0.931 . S
Co60 N65 2.057 1_554 S
Co60 O77 2.021 . S
Co60 O80 2.062 . S
Co60 O84 2.117 1_554 S
Co60 O85 2.020 . S
C61 O81 1.259 . S
C61 O84 1.258 . S
Co62 N71 2.057 . S
Co62 O78 2.117 . S
Co62 O79 2.020 . S
Co62 O81 2.021 1_554 S
Co62 O86 2.062 . S
C63 N65 1.316 1_554 S
C63 N66 1.346 1_554 S
C63 H68 0.931 . S
C64 N65 1.375 . S
C64 C67 1.350 . S
C64 H69 0.930 . S
N65 Co60 2.057 1_556 S
N65 C63 1.316 1_556 S
N65 C64 1.375 . S
N66 C63 1.346 1_556 S
N66 C67 1.376 . S
C67 C64 1.350 . S
C67 N66 1.376 . S
C67 H88 0.931 . S
H68 C63 0.931 . S
H69 C64 0.930 . S
C70 O77 1.259 . S
C70 O78 1.258 . S
N71 Co62 2.057 . S
N71 C72 1.316 1_554 S
N71 C73 1.375 . S
C72 N71 1.316 1_556 S
C72 N74 1.347 1_556 S
C72 H83 0.931 . S
C73 N71 1.375 . S
C73 C75 1.350 . S
C73 H82 0.930 . S
N74 C72 1.347 1_554 S
N74 C75 1.373 . S
C75 C73 1.350 . S
C75 N74 1.373 . S
C75 H89 0.931 . S
C76 O79 1.256 . S
C76 O80 1.255 . S
O77 Co60 2.021 . S
O77 C70 1.259 . S
O78 Co62 2.117 . S
O78 C70 1.258 . S
O79 Co62 2.020 . S
O79 C76 1.256 . S
O80 Co60 2.062 . S
O80 C76 1.255 . S
O81 C61 1.259 . S
O81 Co62 2.021 1_556 S
H82 C73 0.930 . S
H83 C72 0.931 . S
O84 Co60 2.117 1_556 S
O84 C61 1.258 . S
O85 Co60 2.020 . S
O85 C87 1.256 . S
O86 Co62 2.062 . S
O86 C87 1.255 . S
C87 O85 1.256 . S
C87 O86 1.255 . S
H88 C67 0.931 . S
H89 C75 0.931 . S
Co90 N95 2.057 . S
Co90 O107 2.021 1_554 S
Co90 O110 2.062 . S
Co90 O114 2.117 . S
Co90 O115 2.020 . S
C91 O111 1.259 . S
C91 O114 1.258 . S
Co92 N101 2.057 . S
Co92 O108 2.117 1_554 S
Co92 O109 2.020 . S
Co92 O111 2.021 . S
Co92 O116 2.062 . S
C93 N95 1.316 . S
C93 N96 1.347 . S
C93 H98 0.931 1_554 S
C94 N95 1.375 . S
C94 C97 1.350 . S
C94 H99 0.930 . S
N95 Co90 2.057 . S
N95 C93 1.316 . S
N95 C94 1.375 . S
N96 C93 1.347 . S
N96 C97 1.373 . S
C97 C94 1.350 . S
C97 N96 1.373 . S
C97 H118 0.931 . S
H98 C93 0.931 1_556 S
H99 C94 0.930 . S
C100 O107 1.259 . S
C100 O108 1.258 . S
N101 Co92 2.057 . S
N101 C102 1.316 . S
N101 C103 1.375 1_554 S
C102 N101 1.316 . S
C102 N104 1.347 . S
C102 H113 0.931 . S
C103 N101 1.375 1_556 S
C103 C105 1.350 . S
C103 H112 0.930 . S
N104 C102 1.347 . S
N104 C105 1.373 1_554 S
C105 C103 1.350 . S
C105 N104 1.373 1_556 S
C105 H119 0.931 . S
C106 O109 1.256 . S
C106 O110 1.255 . S
O107 Co90 2.021 1_556 S
O107 C100 1.259 . S
O108 Co92 2.117 1_556 S
O108 C100 1.258 . S
O109 Co92 2.020 . S
O109 C106 1.256 . S
O110 Co90 2.062 . S
O110 C106 1.255 . S
O111 C91 1.259 . S
O111 Co92 2.021 . S
H112 C103 0.930 . S
H113 C102 0.931 . S
O114 Co90 2.117 . S
O114 C91 1.258 . S
O115 Co90 2.020 . S
O115 C117 1.256 . S
O116 Co92 2.062 . S
O116 C117 1.255 . S
C117 O115 1.256 . S
C117 O116 1.255 . S
H118 C97 0.931 . S
H119 C105 0.931 . S
Co120 N125 2.057 . S
Co120 O137 2.021 1_554 S
Co120 O140 2.062 . S
Co120 O144 2.117 . S
Co120 O145 2.020 . S
C121 O141 1.259 . S
C121 O144 1.258 . S
Co122 N131 2.057 . S
Co122 O138 2.117 1_554 S
Co122 O139 2.020 . S
Co122 O141 2.021 . S
Co122 O146 2.062 . S
C123 N125 1.316 1_556 S
C123 N126 1.347 1_556 S
C123 H128 0.931 . S
C124 N125 1.375 . S
C124 C127 1.350 . S
C124 H129 0.930 . S
N125 Co120 2.057 . S
N125 C123 1.316 1_554 S
N125 C124 1.375 . S
N126 C123 1.347 1_554 S
N126 C127 1.373 . S
C127 C124 1.350 . S
C127 N126 1.373 . S
C127 H148 0.931 . S
H128 C123 0.931 . S
H129 C124 0.930 . S
C130 O137 1.259 . S
C130 O138 1.258 . S
N131 Co122 2.057 . S
N131 C132 1.316 . S
N131 C133 1.375 1_554 S
C132 N131 1.316 . S
C132 N134 1.347 . S
C132 H143 0.931 . S
C133 N131 1.375 1_556 S
C133 C135 1.350 . S
C133 H142 0.930 . S
N134 C132 1.347 . S
N134 C135 1.373 1_554 S
C135 C133 1.350 . S
C135 N134 1.373 1_556 S
C135 H149 0.931 . S
C136 O139 1.256 . S
C136 O140 1.255 . S
O137 Co120 2.021 1_556 S
O137 C130 1.259 . S
O138 Co122 2.117 1_556 S
O138 C130 1.258 . S
O139 Co122 2.020 . S
O139 C136 1.256 . S
O140 Co120 2.062 . S
O140 C136 1.255 . S
O141 C121 1.259 . S
O141 Co122 2.021 . S
H142 C133 0.930 . S
H143 C132 0.931 . S
O144 Co120 2.117 . S
O144 C121 1.258 . S
O145 Co120 2.020 . S
O145 C147 1.256 . S
O146 Co122 2.062 . S
O146 C147 1.255 . S
C147 O145 1.256 . S
C147 O146 1.255 . S
H148 C127 0.931 . S
H149 C135 0.931 . S
Co150 N155 2.057 . S
Co150 O167 2.021 . S
Co150 O170 2.062 . S
Co150 O174 2.117 1_554 S
Co150 O175 2.020 . S
C151 O171 1.259 . S
C151 O174 1.258 . S
Co152 N161 2.057 . S
Co152 O168 2.117 . S
Co152 O169 2.020 . S
Co152 O171 2.021 1_554 S
Co152 O176 2.062 . S
C153 N155 1.316 . S
C153 N156 1.347 . S
C153 H158 0.931 . S
C154 N155 1.375 1_556 S
C154 C157 1.350 . S
C154 H159 0.930 . S
N155 Co150 2.057 . S
N155 C153 1.316 . S
N155 C154 1.375 1_554 S
N156 C153 1.347 . S
N156 C157 1.373 1_554 S
C157 C154 1.350 . S
C157 N156 1.373 1_556 S
C157 H178 0.931 . S
H158 C153 0.931 . S
H159 C154 0.930 . S
C160 O167 1.259 . S
C160 O168 1.258 . S
N161 Co152 2.057 . S
N161 C162 1.316 . S
N161 C163 1.375 . S
C162 N161 1.316 . S
C162 N164 1.347 . S
C162 H173 0.931 1_554 S
C163 N161 1.375 . S
C163 C165 1.350 . S
C163 H172 0.930 . S
N164 C162 1.347 . S
N164 C165 1.373 . S
C165 C163 1.350 . S
C165 N164 1.373 . S
C165 H179 0.931 . S
C166 O169 1.256 . S
C166 O170 1.255 . S
O167 Co150 2.021 . S
O167 C160 1.259 . S
O168 Co152 2.117 . S
O168 C160 1.258 . S
O169 Co152 2.020 . S
O169 C166 1.256 . S
O170 Co150 2.062 . S
O170 C166 1.255 . S
O171 C151 1.259 . S
O171 Co152 2.021 1_556 S
H172 C163 0.930 . S
H173 C162 0.931 1_556 S
O174 Co150 2.117 1_556 S
O174 C151 1.258 . S
O175 Co150 2.020 . S
O175 C177 1.256 . S
O176 Co152 2.062 . S
O176 C177 1.255 . S
C177 O175 1.256 . S
C177 O176 1.255 . S
H178 C157 0.931 . S
H179 C165 0.931 . S
C180 C181 1.349 . S
C180 C182 1.327 . S
C180 H205 0.950 . S
C181 C180 1.349 . S
C181 C197 1.349 . S
C182 C180 1.327 . S
C182 C201 1.429 . S
C182 H206 0.950 1_554 S
C183 C200 1.574 . S
C183 C202 1.368 . S
C183 H207 0.949 . S
H184 C188 0.949 1_556 S
C185 C186 1.349 . S
C185 C187 1.327 . S
C185 H208 0.950 . S
C186 C185 1.349 . S
C186 C198 1.349 1_554 S
C187 C185 1.327 . S
C187 C203 1.429 . S
C187 H209 0.950 . S
C188 H184 0.949 1_554 S
C188 C196 1.574 . S
C188 C204 1.368 . S
H189 C197 0.950 . S
H190 C195 0.950 . S
H191 C196 0.949 1_556 S
H192 C198 0.950 . S
H193 C199 0.952 . S
H194 C200 0.949 . S
C195 H190 0.950 . S
C195 C197 1.327 . S
C195 C201 1.429 . S
C196 C188 1.574 . S
C196 H191 0.949 1_554 S
C196 C202 1.368 . S
C197 C181 1.349 . S
C197 H189 0.950 . S
C197 C195 1.327 . S
C198 C186 1.349 1_556 S
C198 H192 0.950 . S
C198 C199 1.327 . S
C199 H193 0.952 . S
C199 C198 1.327 . S
C199 C203 1.426 1_556 S
C200 C183 1.574 . S
C200 H194 0.949 . S
C200 C204 1.368 . S
C201 C182 1.429 . S
C201 C195 1.429 . S
C201 C202 1.523 . S
C202 C183 1.368 . S
C202 C196 1.368 . S
C202 C201 1.523 . S
C203 C187 1.429 . S
C203 C199 1.426 1_554 S
C203 C204 1.523 . S
C204 C188 1.368 . S
C204 C200 1.368 . S
C204 C203 1.523 . S
H205 C180 0.950 . S
H206 C182 0.950 1_556 S
H207 C183 0.949 . S
H208 C185 0.950 . S
H209 C187 0.950 . S
C210 C211 1.349 . S
C210 C212 1.327 . S
C210 H235 0.950 . S
C211 C210 1.349 . S
C211 C227 1.349 1_554 S
C212 C210 1.327 . S
C212 C231 1.429 . S
C212 H236 0.950 . S
C213 C230 1.574 . S
C213 C232 1.368 1_556 S
C213 H237 0.949 . S
H214 C218 0.949 . S
C215 C216 1.349 1_556 S
C215 C217 1.327 . S
C215 H238 0.950 . S
C216 C215 1.349 1_554 S
C216 C228 1.349 . S
C217 C215 1.327 . S
C217 C233 1.429 1_556 S
C217 H239 0.950 . S
C218 H214 0.949 . S
C218 C226 1.574 . S
C218 C234 1.368 . S
H219 C227 0.950 . S
H220 C225 0.950 . S
H221 C226 0.949 . S
H222 C228 0.950 . S
H223 C229 0.950 . S
H224 C230 0.949 . S
C225 H220 0.950 . S
C225 C227 1.327 . S
C225 C231 1.429 1_556 S
C226 C218 1.574 . S
C226 H221 0.949 . S
C226 C232 1.368 . S
C227 C211 1.349 1_556 S
C227 H219 0.950 . S
C227 C225 1.327 . S
C228 C216 1.349 . S
C228 H222 0.950 . S
C228 C229 1.327 . S
C229 H223 0.950 . S
C229 C228 1.327 . S
C229 C233 1.429 . S
C230 C213 1.574 . S
C230 H224 0.949 . S
C230 C234 1.368 1_556 S
C231 C212 1.429 . S
C231 C225 1.429 1_554 S
C231 C232 1.523 1_455 S
C232 C213 1.368 1_554 S
C232 C226 1.368 . S
C232 C231 1.523 1_655 S
C233 C217 1.429 1_554 S
C233 C229 1.429 . S
C233 C234 1.523 . S
C234 C218 1.368 . S
C234 C230 1.368 1_554 S
C234 C233 1.523 . S
H235 C210 0.950 . S
H236 C212 0.950 . S
H237 C213 0.949 . S
H238 C215 0.950 . S
H239 C217 0.950 . S
C240 C241 1.349 1_556 S
C240 C242 1.327 . S
C240 H265 0.950 . S
C241 C240 1.349 1_554 S
C241 C257 1.349 . S
C242 C240 1.327 . S
C242 C261 1.429 1_556 S
C242 H266 0.950 . S
C243 C260 1.574 1_545 S
C243 C262 1.368 . S
C243 H267 0.949 . S
H244 C248 0.949 . S
C245 C246 1.349 . S
C245 C247 1.327 . S
C245 H268 0.950 . S
C246 C245 1.349 . S
C246 C258 1.349 1_554 S
C247 C245 1.327 . S
C247 C263 1.429 . S
C247 H269 0.950 . S
C248 H244 0.949 . S
C248 C256 1.574 1_565 S
C248 C264 1.368 1_556 S
H249 C257 0.950 . S
H250 C255 0.950 . S
H251 C256 0.949 . S
H252 C258 0.950 . S
H253 C259 0.950 . S
H254 C260 0.949 . S
C255 H250 0.950 . S
C255 C257 1.327 . S
C255 C261 1.429 . S
C256 C248 1.574 1_545 S
C256 H251 0.949 . S
C256 C262 1.368 1_556 S
C257 C241 1.349 . S
C257 H249 0.950 . S
C257 C255 1.327 . S
C258 C246 1.349 1_556 S
C258 H252 0.950 . S
C258 C259 1.327 . S
C259 H253 0.950 . S
C259 C258 1.327 . S
C259 C263 1.429 1_556 S
C260 C243 1.574 1_565 S
C260 H254 0.949 . S
C260 C264 1.368 . S
C261 C242 1.429 1_554 S
C261 C255 1.429 . S
C261 C262 1.523 . S
C262 C243 1.368 . S
C262 C256 1.368 1_554 S
C262 C261 1.523 . S
C263 C247 1.429 . S
C263 C259 1.429 1_554 S
C263 C264 1.523 . S
C264 C248 1.368 1_554 S
C264 C260 1.368 . S
C264 C263 1.523 . S
H265 C240 0.950 . S
H266 C242 0.950 . S
H267 C243 0.949 . S
H268 C245 0.950 . S
H269 C247 0.950 . S
C270 C271 1.349 1_556 S
C270 C272 1.327 . S
C270 H295 0.950 . S
C271 C270 1.349 1_554 S
C271 C287 1.349 . S
C272 C270 1.327 . S
C272 C291 1.429 1_556 S
C272 H296 0.950 . S
C273 C290 1.574 . S
C273 C292 1.368 . S
C273 H297 0.949 . S
H274 C278 0.949 . S
C275 C276 1.349 . S
C275 C277 1.327 . S
C275 H298 0.950 . S
C276 C275 1.349 . S
C276 C288 1.349 1_554 S
C277 C275 1.327 . S
C277 C293 1.429 . S
C277 H299 0.950 . S
C278 H274 0.949 . S
C278 C286 1.574 . S
C278 C294 1.368 1_556 S
H279 C287 0.950 . S
H280 C285 0.950 . S
H281 C286 0.949 . S
H282 C288 0.950 . S
H283 C289 0.950 . S
H284 C290 0.949 . S
C285 H280 0.950 . S
C285 C287 1.327 . S
C285 C291 1.429 . S
C286 C278 1.574 . S
C286 H281 0.949 . S
C286 C292 1.368 1_556 S
C287 C271 1.349 . S
C287 H279 0.950 . S
C287 C285 1.327 . S
C288 C276 1.349 1_556 S
C288 H282 0.950 . S
C288 C289 1.327 . S
C289 H283 0.950 . S
C289 C288 1.327 . S
C289 C293 1.429 1_556 S
C290 C273 1.574 . S
C290 H284 0.949 . S
C290 C294 1.368 . S
C291 C272 1.429 1_554 S
C291 C285 1.429 . S
C291 C292 1.523 . S
C292 C273 1.368 . S
C292 C286 1.368 1_554 S
C292 C291 1.523 . S
C293 C277 1.429 . S
C293 C289 1.429 1_554 S
C293 C294 1.523 . S
C294 C278 1.368 1_554 S
C294 C290 1.368 . S
C294 C293 1.523 . S
H295 C270 0.950 . S
H296 C272 0.950 . S
H297 C273 0.949 . S
H298 C275 0.950 . S
H299 C277 0.950 . S
C300 C301 1.349 1_556 S
C300 C302 1.327 . S
C300 H325 0.950 . S
C301 C300 1.349 1_554 S
C301 C317 1.349 . S
C302 C300 1.327 . S
C302 C321 1.429 1_556 S
C302 H326 0.950 . S
C303 C320 1.574 . S
C303 C322 1.368 . S
C303 H327 0.949 . S
H304 C308 0.949 . S
C305 C306 1.349 . S
C305 C307 1.327 . S
C305 H328 0.950 . S
C306 C305 1.349 . S
C306 C318 1.359 . S
C307 C305 1.327 . S
C307 C323 1.429 . S
C307 H329 0.950 . S
C308 H304 0.949 . S
C308 C316 1.574 . S
C308 C324 1.368 1_556 S
H309 C317 0.950 . S
H310 C315 0.950 . S
H311 C316 0.949 . S
H312 C318 0.941 1_556 S
H313 C319 0.950 . S
H314 C320 0.949 . S
C315 H310 0.950 . S
C315 C317 1.327 . S
C315 C321 1.429 . S
C316 C308 1.574 . S
C316 H311 0.949 . S
C316 C322 1.368 1_556 S
C317 C301 1.349 . S
C317 H309 0.950 . S
C317 C315 1.327 . S
C318 C306 1.359 . S
C318 H312 0.941 1_554 S
C318 C319 1.326 1_554 S
C319 H313 0.950 . S
C319 C318 1.326 1_556 S
C319 C323 1.429 1_556 S
C320 C303 1.574 . S
C320 H314 0.949 . S
C320 C324 1.368 . S
C321 C302 1.429 1_554 S
C321 C315 1.429 . S
C321 C322 1.523 . S
C322 C303 1.368 . S
C322 C316 1.368 1_554 S
C322 C321 1.523 . S
C323 C307 1.429 . S
C323 C319 1.429 1_554 S
C323 C324 1.523 1_655 S
C324 C308 1.368 1_554 S
C324 C320 1.368 . S
C324 C323 1.523 1_455 S
H325 C300 0.950 . S
H326 C302 0.950 . S
H327 C303 0.949 . S
H328 C305 0.950 . S
H329 C307 0.950 . S
C330 C331 1.349 1_556 S
C330 C332 1.327 . S
C330 H355 0.950 . S
C331 C330 1.349 1_554 S
C331 C347 1.349 . S
C332 C330 1.327 . S
C332 C351 1.429 1_556 S
C332 H356 0.950 . S
C333 C350 1.574 1_565 S
C333 C352 1.368 . S
C333 H357 0.949 . S
H334 C338 0.948 1_556 S
C335 C336 1.349 . S
C335 C337 1.327 . S
C335 H358 0.950 . S
C336 C335 1.349 . S
C336 C348 1.349 . S
C337 C335 1.327 . S
C337 C353 1.429 . S
C337 H359 0.950 . S
C338 H334 0.948 1_554 S
C338 C346 1.574 1_544 S
C338 C354 1.370 . S
H339 C347 0.950 . S
H340 C345 0.950 . S
H341 C346 0.949 . S
H342 C348 0.950 1_556 S
H343 C349 0.950 1_556 S
H344 C350 0.949 . S
C345 H340 0.950 . S
C345 C347 1.327 . S
C345 C351 1.429 . S
C346 C338 1.574 1_566 S
C346 H341 0.949 . S
C346 C352 1.368 1_556 S
C347 C331 1.349 . S
C347 H339 0.950 . S
C347 C345 1.327 . S
C348 C336 1.349 . S
C348 H342 0.950 1_554 S
C348 C349 1.327 . S
C349 H343 0.950 1_554 S
C349 C348 1.327 . S
C349 C353 1.429 . S
C350 C333 1.574 1_545 S
C350 H344 0.949 . S
C350 C354 1.368 . S
C351 C332 1.429 1_554 S
C351 C345 1.429 . S
C351 C352 1.523 . S
C352 C333 1.368 . S
C352 C346 1.368 1_554 S
C352 C351 1.523 . S
C353 C337 1.429 . S
C353 C349 1.429 . S
C353 C354 1.523 . S
C354 C338 1.370 . S
C354 C350 1.368 . S
C354 C353 1.523 . S
H355 C330 0.950 . S
H356 C332 0.950 . S
H357 C333 0.949 . S
H358 C335 0.950 . S
H359 C337 0.950 . S
C360 C361 1.349 1_556 S
C360 C362 1.327 . S
C360 H385 0.950 . S
C361 C360 1.349 1_554 S
C361 C377 1.349 . S
C362 C360 1.327 . S
C362 C381 1.429 1_556 S
C362 H386 0.950 . S
C363 C380 1.574 . S
C363 C382 1.368 . S
C363 H387 0.949 . S
H364 C368 0.949 . S
C365 C366 1.349 . S
C365 C367 1.327 . S
C365 H388 0.950 . S
C366 C365 1.349 . S
C366 C378 1.349 1_554 S
C367 C365 1.327 . S
C367 C383 1.429 . S
C367 H389 0.950 . S
C368 H364 0.949 . S
C368 C376 1.574 . S
C368 C384 1.368 1_556 S
H369 C377 0.950 . S
H370 C375 0.950 . S
H371 C376 0.949 . S
H372 C378 0.950 . S
H373 C379 0.950 . S
H374 C380 0.949 . S
C375 H370 0.950 . S
C375 C377 1.327 . S
C375 C381 1.429 . S
C376 C368 1.574 . S
C376 H371 0.949 . S
C376 C382 1.368 1_556 S
C377 C361 1.349 . S
C377 H369 0.950 . S
C377 C375 1.327 . S
C378 C366 1.349 1_556 S
C378 H372 0.950 . S
C378 C379 1.327 . S
C379 H373 0.950 . S
C379 C378 1.327 . S
C379 C383 1.429 1_556 S
C380 C363 1.574 . S
C380 H374 0.949 . S
C380 C384 1.368 . S
C381 C362 1.429 1_554 S
C381 C375 1.429 . S
C381 C382 1.523 . S
C382 C363 1.368 . S
C382 C376 1.368 1_554 S
C382 C381 1.523 . S
C383 C367 1.429 . S
C383 C379 1.429 1_554 S
C383 C384 1.523 . S
C384 C368 1.368 1_554 S
C384 C380 1.368 . S
C384 C383 1.523 . S
H385 C360 0.950 . S
H386 C362 0.950 . S
H387 C363 0.949 . S
H388 C365 0.950 . S
H389 C367 0.950 . S
C390 C391 1.349 . S
C390 C392 1.327 . S
C390 H415 0.950 . S
C391 C390 1.349 . S
C391 C407 1.349 . S
C392 C390 1.327 . S
C392 C411 1.429 . S
C392 H416 0.950 . S
C393 C410 1.574 . S
C393 C412 1.368 . S
C393 H417 0.949 . S
H394 C398 0.949 . S
C395 C396 1.349 . S
C395 C397 1.327 . S
C395 H418 0.950 . S
C396 C395 1.349 . S
C396 C408 1.349 . S
C397 C395 1.327 . S
C397 C413 1.429 . S
C397 H419 0.950 . S
C398 H394 0.949 . S
C398 C406 1.574 . S
C398 C414 1.368 . S
H399 C407 0.950 . S
H400 C405 0.950 . S
H401 C406 0.949 . S
H402 C408 0.950 . S
H403 C409 0.950 . S
H404 C410 0.949 . S
C405 H400 0.950 . S
C405 C407 1.327 . S
C405 C411 1.429 . S
C406 C398 1.574 . S
C406 H401 0.949 . S
C406 C412 1.368 . S
C407 C391 1.349 . S
C407 H399 0.950 . S
C407 C405 1.327 . S
C408 C396 1.349 . S
C408 H402 0.950 . S
C408 C409 1.327 . S
C409 H403 0.950 . S
C409 C408 1.327 . S
C409 C413 1.429 . S
C410 C393 1.574 . S
C410 H404 0.949 . S
C410 C414 1.368 . S
C411 C392 1.429 . S
C411 C405 1.429 . S
C411 C412 1.523 . S
C412 C393 1.368 . S
C412 C406 1.368 . S
C412 C411 1.523 . S
C413 C397 1.429 . S
C413 C409 1.429 . S
C413 C414 1.523 . S
C414 C398 1.368 . S
C414 C410 1.368 . S
C414 C413 1.523 . S
H415 C390 0.950 . S
H416 C392 0.950 . S
H417 C393 0.949 . S
H418 C395 0.950 . S
H419 C397 0.950 . S
C420 C421 1.349 . S
C420 C422 1.327 . S
C420 H445 0.950 . S
C421 C420 1.349 . S
C421 C437 1.349 1_554 S
C422 C420 1.327 . S
C422 C441 1.429 . S
C422 H446 0.950 . S
C423 C440 1.574 . S
C423 C442 1.368 1_556 S
C423 H447 0.949 . S
H424 C428 0.949 . S
C425 C426 1.349 1_556 S
C425 C427 1.327 . S
C425 H448 0.950 . S
C426 C425 1.349 1_554 S
C426 C438 1.349 . S
C427 C425 1.327 . S
C427 C443 1.429 1_556 S
C427 H449 0.950 . S
C428 H424 0.949 . S
C428 C436 1.574 . S
C428 C444 1.368 . S
H429 C437 0.950 . S
H430 C435 0.950 . S
H431 C436 0.949 . S
H432 C438 0.950 . S
H433 C439 0.950 . S
H434 C440 0.949 . S
C435 H430 0.950 . S
C435 C437 1.327 . S
C435 C441 1.429 1_556 S
C436 C428 1.574 . S
C436 H431 0.949 . S
C436 C442 1.368 . S
C437 C421 1.349 1_556 S
C437 H429 0.950 . S
C437 C435 1.327 . S
C438 C426 1.349 . S
C438 H432 0.950 . S
C438 C439 1.327 . S
C439 H433 0.950 . S
C439 C438 1.327 . S
C439 C443 1.429 . S
C440 C423 1.574 . S
C440 H434 0.949 . S
C440 C444 1.368 1_556 S
C441 C422 1.429 . S
C441 C435 1.429 1_554 S
C441 C442 1.523 . S
C442 C423 1.368 1_554 S
C442 C436 1.368 . S
C442 C441 1.523 . S
C443 C427 1.429 1_554 S
C443 C439 1.429 . S
C443 C444 1.523 . S
C444 C428 1.368 . S
C444 C440 1.368 1_554 S
C444 C443 1.523 . S
H445 C420 0.950 . S
H446 C422 0.950 . S
H447 C423 0.949 . S
H448 C425 0.950 . S
H449 C427 0.950 . S
C450 C451 1.349 . S
C450 C452 1.327 . S
C450 H475 0.950 . S
C451 C450 1.349 . S
C451 C467 1.349 . S
C452 C450 1.327 . S
C452 C471 1.429 . S
C452 H476 0.950 . S
C453 C470 1.574 . S
C453 C472 1.368 . S
C453 H477 0.949 1_554 S
H454 C458 0.949 . S
C455 C456 1.349 . S
C455 C457 1.327 . S
C455 H478 0.950 1_554 S
C456 C455 1.349 . S
C456 C468 1.349 . S
C457 C455 1.327 . S
C457 C473 1.429 . S
C457 H479 0.950 1_554 S
C458 H454 0.949 . S
C458 C466 1.574 . S
C458 C474 1.368 . S
H459 C467 0.950 1_556 S
H460 C465 0.950 1_556 S
H461 C466 0.949 . S
H462 C468 0.950 . S
H463 C469 0.950 . S
H464 C470 0.949 1_556 S
C465 H460 0.950 1_554 S
C465 C467 1.327 . S
C465 C471 1.429 . S
C466 C458 1.574 . S
C466 H461 0.949 . S
C466 C472 1.368 . S
C467 C451 1.349 . S
C467 H459 0.950 1_554 S
C467 C465 1.327 . S
C468 C456 1.349 . S
C468 H462 0.950 . S
C468 C469 1.327 . S
C469 H463 0.950 . S
C469 C468 1.327 . S
C469 C473 1.429 . S
C470 C453 1.574 . S
C470 H464 0.949 1_554 S
C470 C474 1.368 . S
C471 C452 1.429 . S
C471 C465 1.429 . S
C471 C472 1.523 . S
C472 C453 1.368 . S
C472 C466 1.368 . S
C472 C471 1.523 . S
C473 C457 1.429 . S
C473 C469 1.429 . S
C473 C474 1.523 . S
C474 C458 1.368 . S
C474 C470 1.368 . S
C474 C473 1.523 . S
H475 C450 0.950 . S
H476 C452 0.950 . S
H477 C453 0.949 1_556 S
H478 C455 0.950 1_556 S
H479 C457 0.950 1_556 S
C480 C481 1.349 1_556 S
C480 C482 1.327 . S
C480 H505 0.950 . S
C481 C480 1.349 1_554 S
C481 C497 1.349 . S
C482 C480 1.327 . S
C482 C501 1.429 1_556 S
C482 H506 0.950 . S
C483 C500 1.574 . S
C483 C502 1.368 . S
C483 H507 0.949 . S
H484 C488 0.949 . S
C485 C486 1.349 . S
C485 C487 1.327 . S
C485 H508 0.950 . S
C486 C485 1.349 . S
C486 C498 1.349 1_554 S
C487 C485 1.327 . S
C487 C503 1.429 . S
C487 H509 0.950 . S
C488 H484 0.949 . S
C488 C496 1.574 . S
C488 C504 1.368 1_556 S
H489 C497 0.950 . S
H490 C495 0.950 . S
H491 C496 0.949 . S
H492 C498 0.950 . S
H493 C499 0.950 . S
H494 C500 0.949 . S
C495 H490 0.950 . S
C495 C497 1.327 . S
C495 C501 1.429 . S
C496 C488 1.574 . S
C496 H491 0.949 . S
C496 C502 1.368 1_556 S
C497 C481 1.349 . S
C497 H489 0.950 . S
C497 C495 1.327 . S
C498 C486 1.349 1_556 S
C498 H492 0.950 . S
C498 C499 1.327 . S
C499 H493 0.950 . S
C499 C498 1.327 . S
C499 C503 1.429 1_556 S
C500 C483 1.574 . S
C500 H494 0.949 . S
C500 C504 1.368 . S
C501 C482 1.429 1_554 S
C501 C495 1.429 . S
C501 C502 1.523 . S
C502 C483 1.368 . S
C502 C496 1.368 1_554 S
C502 C501 1.523 . S
C503 C487 1.429 . S
C503 C499 1.429 1_554 S
C503 C504 1.523 . S
C504 C488 1.368 1_554 S
C504 C500 1.368 . S
C504 C503 1.523 . S
H505 C480 0.950 . S
H506 C482 0.950 . S
H507 C483 0.949 . S
H508 C485 0.950 . S
H509 C487 0.950 . S
C510 C511 1.349 . S
C510 C512 1.327 . S
C510 H535 0.950 . S
C511 C510 1.349 . S
C511 C527 1.349 . S
C512 C510 1.327 . S
C512 C531 1.429 . S
C512 H536 0.950 . S
C513 C530 1.574 . S
C513 C532 1.368 . S
C513 H537 0.949 1_554 S
H514 C518 0.949 . S
C515 C516 1.349 . S
C515 C517 1.327 . S
C515 H538 0.950 1_554 S
C516 C515 1.349 . S
C516 C528 1.349 . S
C517 C515 1.327 . S
C517 C533 1.429 . S
C517 H539 0.950 1_554 S
C518 H514 0.949 . S
C518 C526 1.574 . S
C518 C534 1.368 . S
H519 C527 0.950 1_556 S
H520 C525 0.950 1_556 S
H521 C526 0.949 . S
H522 C528 0.950 . S
H523 C529 0.950 . S
H524 C530 0.949 1_556 S
C525 H520 0.950 1_554 S
C525 C527 1.327 . S
C525 C531 1.429 . S
C526 C518 1.574 . S
C526 H521 0.949 . S
C526 C532 1.368 . S
C527 C511 1.349 . S
C527 H519 0.950 1_554 S
C527 C525 1.327 . S
C528 C516 1.349 . S
C528 H522 0.950 . S
C528 C529 1.327 . S
C529 H523 0.950 . S
C529 C528 1.327 . S
C529 C533 1.429 . S
C530 C513 1.574 . S
C530 H524 0.949 1_554 S
C530 C534 1.368 . S
C531 C512 1.429 . S
C531 C525 1.429 . S
C531 C532 1.523 . S
C532 C513 1.368 . S
C532 C526 1.368 . S
C532 C531 1.523 . S
C533 C517 1.429 . S
C533 C529 1.429 . S
C533 C534 1.523 . S
C534 C518 1.368 . S
C534 C530 1.368 . S
C534 C533 1.523 . S
H535 C510 0.950 . S
H536 C512 0.950 . S
H537 C513 0.949 1_556 S
H538 C515 0.950 1_556 S
H539 C517 0.950 1_556 S
C540 C541 1.349 . S
C540 C542 1.327 . S
C540 H565 0.950 . S
C541 C540 1.349 . S
C541 C557 1.349 . S
C542 C540 1.327 . S
C542 C561 1.429 . S
C542 H566 0.950 . S
C543 C560 1.574 . S
C543 C562 1.368 . S
C543 H567 0.949 . S
H544 C548 0.949 . S
C545 C546 1.349 . S
C545 C547 1.327 . S
C545 H568 0.950 . S
C546 C545 1.349 . S
C546 C558 1.349 . S
C547 C545 1.327 . S
C547 C563 1.429 . S
C547 H569 0.950 . S
C548 H544 0.949 . S
C548 C556 1.574 . S
C548 C564 1.368 . S
H549 C557 0.950 . S
H550 C555 0.950 . S
H551 C556 0.949 . S
H552 C558 0.950 . S
H553 C559 0.950 . S
H554 C560 0.949 . S
C555 H550 0.950 . S
C555 C557 1.327 . S
C555 C561 1.429 . S
C556 C548 1.574 . S
C556 H551 0.949 . S
C556 C562 1.368 . S
C557 C541 1.349 . S
C557 H549 0.950 . S
C557 C555 1.327 . S
C558 C546 1.349 . S
C558 H552 0.950 . S
C558 C559 1.327 . S
C559 H553 0.950 . S
C559 C558 1.327 . S
C559 C563 1.429 . S
C560 C543 1.574 . S
C560 H554 0.949 . S
C560 C564 1.368 . S
C561 C542 1.429 . S
C561 C555 1.429 . S
C561 C562 1.523 . S
C562 C543 1.368 . S
C562 C556 1.368 . S
C562 C561 1.523 . S
C563 C547 1.429 . S
C563 C559 1.429 . S
C563 C564 1.523 . S
C564 C548 1.368 . S
C564 C560 1.368 . S
C564 C563 1.523 . S
H565 C540 0.950 . S
H566 C542 0.950 . S
H567 C543 0.949 . S
H568 C545 0.950 . S
H569 C547 0.950 . S
C570 C571 1.349 . S
C570 C572 1.327 . S
C570 H595 0.950 . S
C571 C570 1.349 . S
C571 C587 1.349 . S
C572 C570 1.327 . S
C572 C591 1.429 . S
C572 H596 0.950 . S
C573 C590 1.574 . S
C573 C592 1.368 . S
C573 H597 0.949 . S
H574 C578 0.949 . S
C575 C576 1.349 . S
C575 C577 1.327 . S
C575 H598 0.950 . S
C576 C575 1.349 . S
C576 C588 1.349 . S
C577 C575 1.327 . S
C577 C593 1.429 . S
C577 H599 0.950 . S
C578 H574 0.949 . S
C578 C586 1.574 . S
C578 C594 1.368 . S
H579 C587 0.950 . S
H580 C585 0.950 . S
H581 C586 0.949 . S
H582 C588 0.950 . S
H583 C589 0.950 . S
H584 C590 0.949 . S
C585 H580 0.950 . S
C585 C587 1.327 . S
C585 C591 1.429 . S
C586 C578 1.574 . S
C586 H581 0.949 . S
C586 C592 1.368 . S
C587 C571 1.349 . S
C587 H579 0.950 . S
C587 C585 1.327 . S
C588 C576 1.349 . S
C588 H582 0.950 . S
C588 C589 1.327 . S
C589 H583 0.950 . S
C589 C588 1.327 . S
C589 C593 1.429 . S
C590 C573 1.574 . S
C590 H584 0.949 . S
C590 C594 1.368 . S
C591 C572 1.429 . S
C591 C585 1.429 . S
C591 C592 1.523 . S
C592 C573 1.368 . S
C592 C586 1.368 . S
C592 C591 1.523 . S
C593 C577 1.429 . S
C593 C589 1.429 . S
C593 C594 1.523 . S
C594 C578 1.368 . S
C594 C590 1.368 . S
C594 C593 1.523 . S
H595 C570 0.950 . S
H596 C572 0.950 . S
H597 C573 0.949 . S
H598 C575 0.950 . S
H599 C577 0.950 . S
C600 C601 1.349 . S
C600 C602 1.327 . S
C600 H625 0.950 . S
C601 C600 1.349 . S
C601 C617 1.349 . S
C602 C600 1.327 . S
C602 C621 1.429 . S
C602 H626 0.950 . S
C603 C620 1.574 . S
C603 C622 1.368 . S
C603 H627 0.949 . S
H604 C608 0.949 . S
C605 C606 1.349 . S
C605 C607 1.327 . S
C605 H628 0.950 . S
C606 C605 1.349 . S
C606 C618 1.349 . S
C607 C605 1.327 . S
C607 C623 1.429 . S
C607 H629 0.950 . S
C608 H604 0.949 . S
C608 C616 1.574 . S
C608 C624 1.368 . S
H609 C617 0.950 . S
H610 C615 0.950 . S
H611 C616 0.949 . S
H612 C618 0.950 . S
H613 C619 0.950 . S
H614 C620 0.949 . S
C615 H610 0.950 . S
C615 C617 1.327 . S
C615 C621 1.429 . S
C616 C608 1.574 . S
C616 H611 0.949 . S
C616 C622 1.368 . S
C617 C601 1.349 . S
C617 H609 0.950 . S
C617 C615 1.327 . S
C618 C606 1.349 . S
C618 H612 0.950 . S
C618 C619 1.327 . S
C619 H613 0.950 . S
C619 C618 1.327 . S
C619 C623 1.429 . S
C620 C603 1.574 . S
C620 H614 0.949 . S
C620 C624 1.368 . S
C621 C602 1.429 . S
C621 C615 1.429 . S
C621 C622 1.523 . S
C622 C603 1.368 . S
C622 C616 1.368 . S
C622 C621 1.523 . S
C623 C607 1.429 . S
C623 C619 1.429 . S
C623 C624 1.523 . S
C624 C608 1.368 . S
C624 C620 1.368 . S
C624 C623 1.523 . S
H625 C600 0.950 . S
H626 C602 0.950 . S
H627 C603 0.949 . S
H628 C605 0.950 . S
H629 C607 0.950 . S
C630 C631 1.349 . S
C630 C632 1.327 . S
C630 H655 0.950 . S
C631 C630 1.349 . S
C631 C647 1.349 . S
C632 C630 1.327 . S
C632 C651 1.429 . S
C632 H656 0.950 . S
C633 C650 1.574 . S
C633 C652 1.368 . S
C633 H657 0.949 . S
H634 C638 0.949 . S
C635 C636 1.349 . S
C635 C637 1.327 . S
C635 H658 0.950 . S
C636 C635 1.349 . S
C636 C648 1.349 . S
C637 C635 1.327 . S
C637 C653 1.429 . S
C637 H659 0.950 . S
C638 H634 0.949 . S
C638 C646 1.574 . S
C638 C654 1.368 . S
H639 C647 0.950 . S
H640 C645 0.950 . S
H641 C646 0.949 . S
H642 C648 0.950 . S
H643 C649 0.950 . S
H644 C650 0.949 . S
C645 H640 0.950 . S
C645 C647 1.327 . S
C645 C651 1.429 . S
C646 C638 1.574 . S
C646 H641 0.949 . S
C646 C652 1.368 . S
C647 C631 1.349 . S
C647 H639 0.950 . S
C647 C645 1.327 . S
C648 C636 1.349 . S
C648 H642 0.950 . S
C648 C649 1.327 . S
C649 H643 0.950 . S
C649 C648 1.327 . S
C649 C653 1.429 . S
C650 C633 1.574 . S
C650 H644 0.949 . S
C650 C654 1.368 . S
C651 C632 1.429 . S
C651 C645 1.429 . S
C651 C652 1.523 . S
C652 C633 1.368 . S
C652 C646 1.368 . S
C652 C651 1.523 . S
C653 C637 1.429 . S
C653 C649 1.429 . S
C653 C654 1.523 . S
C654 C638 1.368 . S
C654 C650 1.368 . S
C654 C653 1.523 . S
H655 C630 0.950 . S
H656 C632 0.950 . S
H657 C633 0.949 . S
H658 C635 0.950 . S
H659 C637 0.950 . S
C660 C661 1.349 . S
C660 C662 1.327 . S
C660 H685 0.950 . S
C661 C660 1.349 . S
C661 C677 1.349 . S
C662 C660 1.327 . S
C662 C681 1.429 . S
C662 H686 0.950 . S
C663 C680 1.574 . S
C663 C682 1.368 . S
C663 H687 0.949 . S
H664 C668 0.949 . S
C665 C666 1.349 . S
C665 C667 1.327 . S
C665 H688 0.950 . S
C666 C665 1.349 . S
C666 C678 1.349 . S
C667 C665 1.327 . S
C667 C683 1.429 . S
C667 H689 0.950 . S
C668 H664 0.949 . S
C668 C676 1.574 . S
C668 C684 1.368 . S
H669 C677 0.950 . S
H670 C675 0.950 . S
H671 C676 0.949 . S
H672 C678 0.950 . S
H673 C679 0.950 . S
H674 C680 0.949 . S
C675 H670 0.950 . S
C675 C677 1.327 . S
C675 C681 1.429 . S
C676 C668 1.574 . S
C676 H671 0.949 . S
C676 C682 1.368 . S
C677 C661 1.349 . S
C677 H669 0.950 . S
C677 C675 1.327 . S
C678 C666 1.349 . S
C678 H672 0.950 . S
C678 C679 1.327 . S
C679 H673 0.950 . S
C679 C678 1.327 . S
C679 C683 1.429 . S
C680 C663 1.574 . S
C680 H674 0.949 . S
C680 C684 1.368 . S
C681 C662 1.429 . S
C681 C675 1.429 . S
C681 C682 1.523 . S
C682 C663 1.368 . S
C682 C676 1.368 . S
C682 C681 1.523 . S
C683 C667 1.429 . S
C683 C679 1.429 . S
C683 C684 1.523 . S
C684 C668 1.368 . S
C684 C680 1.368 . S
C684 C683 1.523 . S
H685 C660 0.950 . S
H686 C662 0.950 . S
H687 C663 0.949 . S
H688 C665 0.950 . S
H689 C667 0.950 . S
C690 C691 1.349 . S
C690 C692 1.327 . S
C690 H715 0.950 . S
C691 C690 1.349 . S
C691 C707 1.349 . S
C692 C690 1.327 . S
C692 C711 1.429 . S
C692 H716 0.950 . S
C693 C710 1.574 . S
C693 C712 1.368 . S
C693 H717 0.949 . S
H694 C698 0.949 . S
C695 C696 1.349 . S
C695 C697 1.327 . S
C695 H718 0.950 . S
C696 C695 1.349 . S
C696 C708 1.349 . S
C697 C695 1.327 . S
C697 C713 1.429 . S
C697 H719 0.950 . S
C698 H694 0.949 . S
C698 C706 1.574 . S
C698 C714 1.368 . S
H699 C707 0.950 . S
H700 C705 0.950 . S
H701 C706 0.949 . S
H702 C708 0.950 . S
H703 C709 0.950 . S
H704 C710 0.949 . S
C705 H700 0.950 . S
C705 C707 1.327 . S
C705 C711 1.429 . S
C706 C698 1.574 . S
C706 H701 0.949 . S
C706 C712 1.368 . S
C707 C691 1.349 . S
C707 H699 0.950 . S
C707 C705 1.327 . S
C708 C696 1.349 . S
C708 H702 0.950 . S
C708 C709 1.327 . S
C709 H703 0.950 . S
C709 C708 1.327 . S
C709 C713 1.429 . S
C710 C693 1.574 . S
C710 H704 0.949 . S
C710 C714 1.368 . S
C711 C692 1.429 . S
C711 C705 1.429 . S
C711 C712 1.523 . S
C712 C693 1.368 . S
C712 C706 1.368 . S
C712 C711 1.523 . S
C713 C697 1.429 . S
C713 C709 1.429 . S
C713 C714 1.523 . S
C714 C698 1.368 . S
C714 C710 1.368 . S
C714 C713 1.523 . S
H715 C690 0.950 . S
H716 C692 0.950 . S
H717 C693 0.949 . S
H718 C695 0.950 . S
H719 C697 0.950 . S
C181 C166 0.888 . S
C186 C27 0.882 . S
C211 N14 1.412 . S
C216 C46 1.537 . S
C241 N36 1.576 . S
C246 N74 1.537 . S
C271 C106 0.882 . S
C276 C87 0.888 . S
C301 C147 1.537 . S
C306 N96 1.412 . S
C331 N134 1.576 . S
C336 N156 1.537 . S
C361 N126 1.468 . S
C366 C16 1.491 . S
C391 C177 1.893 . S
C396 C57 1.901 . S
C421 N66 1.212 1_554 S
C426 N6 1.211 . S
C451 C117 1.491 . S
C456 N44 1.468 . S
C481 C136 1.901 . S
C486 C76 1.893 . S
C511 N104 1.211 . S
C516 N164 1.213 . S
C541 C10 1.493 . S
C546 C1 1.493 . S
C571 C40 1.497 . S
C576 C31 1.497 . S
C601 C61 1.495 . S
C606 C70 1.495 . S
C631 C100 1.493 . S
C636 C91 1.493 . S
C661 C121 1.497 . S
C666 C130 1.497 . S
C691 C151 1.495 . S
C696 C160 1.495 . S
