# Generated by pormake.
# Topology afw, (4)-cn, num edge types: 1
# Building blocks:
#     Node 0, Type 0, BuildingBlock: KUFVIS_clean_sbu_0, # of connection points: 4
#     Node 1, Type 0, BuildingBlock: KUFVIS_clean_sbu_0, # of connection points: 4
#     Node 2, Type 0, BuildingBlock: KUFVIS_clean_sbu_0, # of connection points: 4
#     Node 3, Type 0, BuildingBlock: KUFVIS_clean_sbu_0, # of connection points: 4
#     Node 4, Type 0, BuildingBlock: KUFVIS_clean_sbu_0, # of connection points: 4
#     Node 5, Type 0, BuildingBlock: KUFVIS_clean_sbu_0, # of connection points: 4
#     Node 6, Type 0, BuildingBlock: KUFVIS_clean_sbu_0, # of connection points: 4
#     Node 7, Type 0, BuildingBlock: KUFVIS_clean_sbu_0, # of connection points: 4
#     Node 8, Type 0, BuildingBlock: KUFVIS_clean_sbu_0, # of connection points: 4
#     Edge 9, Type (0, 0), BuildingBlock: OJICUG_clean_linker_0, # of connection points: 2
#     Edge 10, Type (0, 0), BuildingBlock: OJICUG_clean_linker_0, # of connection points: 2
#     Edge 11, Type (0, 0), BuildingBlock: OJICUG_clean_linker_0, # of connection points: 2
#     Edge 12, Type (0, 0), BuildingBlock: OJICUG_clean_linker_0, # of connection points: 2
#     Edge 13, Type (0, 0), BuildingBlock: OJICUG_clean_linker_0, # of connection points: 2
#     Edge 14, Type (0, 0), BuildingBlock: OJICUG_clean_linker_0, # of connection points: 2
#     Edge 15, Type (0, 0), BuildingBlock: OJICUG_clean_linker_0, # of connection points: 2
#     Edge 16, Type (0, 0), BuildingBlock: OJICUG_clean_linker_0, # of connection points: 2
#     Edge 17, Type (0, 0), BuildingBlock: OJICUG_clean_linker_0, # of connection points: 2
#     Edge 18, Type (0, 0), BuildingBlock: OJICUG_clean_linker_0, # of connection points: 2
#     Edge 19, Type (0, 0), BuildingBlock: OJICUG_clean_linker_0, # of connection points: 2
#     Edge 20, Type (0, 0), BuildingBlock: OJICUG_clean_linker_0, # of connection points: 2
#     Edge 21, Type (0, 0), BuildingBlock: OJICUG_clean_linker_0, # of connection points: 2
#     Edge 22, Type (0, 0), BuildingBlock: OJICUG_clean_linker_0, # of connection points: 2
#     Edge 23, Type (0, 0), BuildingBlock: OJICUG_clean_linker_0, # of connection points: 2
#     Edge 24, Type (0, 0), BuildingBlock: OJICUG_clean_linker_0, # of connection points: 2
#     Edge 25, Type (0, 0), BuildingBlock: OJICUG_clean_linker_0, # of connection points: 2
#     Edge 26, Type (0, 0), BuildingBlock: OJICUG_clean_linker_0, # of connection points: 2
# Relax obj value: 0.208
# Max RMSD: 0.231
# Mean RMSD: 0.211
data_MOF--net-afw--node1-KUFVIS_clean_sbu_0--edge1-OJICUG_clean_linker_0
_symmetry_space_group_name_H-M    P1
_symmetry_Int_Tables_number       1
_symmetry_cell_setting            triclinic
loop_
_symmetry_equiv_pos_as_xyz
'x, y, z'
_cell_length_a     30.193426
_cell_length_b     31.358521
_cell_length_c     23.589657
_cell_angle_alpha  91.591702
_cell_angle_beta   90.27678
_cell_angle_gamma 119.03256
loop_
_atom_site_label
_atom_site_type_symbol
_atom_site_fract_x
_atom_site_fract_y
_atom_site_fract_z
_atom_type_partial_charge
Mn0 Mn 0.01102 0.19333 0.01716 0.0
Mn1 Mn 0.12445 0.28316 0.06419 0.0
C2 C 0.08339 0.1861 0.00712 0.0
C3 C 0.93843 0.11877 0.0278 0.0
C4 C 0.07217 0.28923 0.95686 0.0
O5 O 0.99089 0.23204 0.07298 0.0
O6 O 0.06937 0.28846 0.10373 0.0
C7 C 0.12173 0.2531 0.18257 0.0
N8 N 0.14423 0.26307 0.13111 0.0
C9 C 0.20776 0.24334 0.16303 0.0
C10 C 0.18543 0.23312 0.21645 0.0
C11 C 0.14224 0.23804 0.22624 0.0
C12 C 0.18595 0.25869 0.12131 0.0
H13 H 0.08828 0.25641 0.19017 0.0
C14 C 0.02088 0.26883 0.10479 0.0
O15 O 0.94029 0.14861 0.9896 0.0
O16 O 0.97674 0.13413 0.06279 0.0
N17 N 0.18004 0.28025 0.02911 0.0
C18 C 0.19549 0.28916 0.97445 0.0
C19 C 0.23763 0.28481 0.95732 0.0
C20 C 0.26336 0.27125 0.99649 0.0
C21 C 0.24685 0.26241 0.05254 0.0
C22 C 0.20501 0.26793 0.06735 0.0
H23 H 0.1756 0.29918 0.94402 0.0
O24 O 0.04459 0.1617 0.9734 0.0
O25 O 0.07893 0.21478 0.04447 0.0
O26 O 0.03363 0.24692 0.95915 0.0
O27 O 0.10786 0.3067 0.99434 0.0
C28 C 0.26972 0.2475 0.09403 0.0
C29 C 0.25019 0.23797 0.14922 0.0
H30 H 0.20087 0.2211 0.2501 0.0
H31 H 0.12465 0.23 0.26727 0.0
H32 H 0.25006 0.29158 0.91394 0.0
H33 H 0.29552 0.26742 0.98296 0.0
H34 H 0.30203 0.24277 0.08377 0.0
H35 H 0.26778 0.22605 0.18058 0.0
Mn36 Mn 0.83601 0.83421 0.02489 0.0
Mn37 Mn 0.84045 0.73446 0.97615 0.0
C38 C 0.91 0.82843 0.03757 0.0
C39 C 0.84582 0.91208 0.01532 0.0
C40 C 0.78425 0.73639 0.08152 0.0
O41 O 0.77622 0.80305 0.9674 0.0
O42 O 0.7906 0.74361 0.93198 0.0
C43 C 0.88033 0.76558 0.86139 0.0
N44 N 0.88341 0.748 0.91253 0.0
C45 C 0.94838 0.73055 0.87991 0.0
C46 C 0.94614 0.74861 0.82684 0.0
C47 C 0.91235 0.76673 0.81777 0.0
C48 C 0.91714 0.73234 0.92242 0.0
H49 H 0.85341 0.77828 0.85393 0.0
C50 C 0.76743 0.76852 0.9312 0.0
O51 O 0.81635 0.88288 0.05289 0.0
O52 O 0.86819 0.89544 0.98148 0.0
N53 N 0.88767 0.7209 0.01472 0.0
C54 C 0.88532 0.70529 0.06853 0.0
C55 C 0.91437 0.6834 0.08381 0.0
C56 C 0.94474 0.67703 0.04333 0.0
C57 C 0.94814 0.69513 0.98883 0.0
C58 C 0.91858 0.71694 0.97623 0.0
H59 H 0.86002 0.70776 0.09896 0.0
O60 O 0.90049 0.85701 0.07002 0.0
O61 O 0.87583 0.80399 0.99852 0.0
O62 O 0.7983 0.78166 0.08191 0.0
O63 O 0.79535 0.71483 0.04207 0.0
C64 C 0.97803 0.69065 0.94578 0.0
C65 C 0.97922 0.70955 0.89186 0.0
H66 H 0.96986 0.74838 0.79267 0.0
H67 H 0.91028 0.7806 0.77691 0.0
H68 H 0.91195 0.66987 0.12604 0.0
H69 H 0.96465 0.65753 0.05453 0.0
H70 H 0.00034 0.6728 0.95358 0.0
H71 H 0.00307 0.70668 0.85952 0.0
Mn72 Mn 0.1955 0.00542 0.02619 0.0
Mn73 Mn 0.19387 0.90535 0.0764 0.0
C74 C 0.12232 0.92945 0.01783 0.0
C75 C 0.18293 0.07296 0.03252 0.0
C76 C 0.24076 0.94828 0.96494 0.0
O77 O 0.25642 0.03583 0.08105 0.0
O78 O 0.25304 0.96574 0.1065 0.0
C79 C 0.17562 0.922 0.1964 0.0
N80 N 0.16249 0.89254 0.14877 0.0
C81 C 0.09717 0.82543 0.19785 0.0
C82 C 0.10998 0.85499 0.24746 0.0
C83 C 0.14913 0.90361 0.2466 0.0
C84 C 0.12394 0.84624 0.14874 0.0
H85 H 0.20618 0.95914 0.19618 0.0
C86 C 0.27368 0.0123 0.10838 0.0
O87 O 0.21257 0.06974 0.99511 0.0
O88 O 0.16248 0.03804 0.06817 0.0
N89 N 0.13894 0.84357 0.05239 0.0
C90 C 0.13172 0.81995 1.00108 0.0
C91 C 0.09766 0.76984 0.99597 0.0
C92 C 0.07109 0.74478 0.04357 0.0
C93 C 0.07666 0.77035 0.09507 0.0
C94 C 0.11235 0.81995 0.09802 0.0
H95 H 0.15312 0.8388 0.96487 0.0
O96 O 0.13072 0.9638 0.98306 0.0
O97 O 0.15734 0.94026 0.05645 0.0
O98 O 0.23422 0.98531 0.9703 0.0
O99 O 0.22572 0.91481 1.00119 0.0
C100 C 0.0499 0.74819 0.14418 0.0
C101 C 0.05945 0.77597 0.19531 0.0
H102 H 0.09017 0.84069 0.28648 0.0
H103 H 0.15928 0.92667 0.28471 0.0
H104 H 0.09315 0.75032 0.95593 0.0
H105 H 0.04772 0.70567 0.04047 0.0
H106 H 0.02192 0.70988 0.14309 0.0
H107 H 0.03832 0.75873 0.23267 0.0
Mn108 Mn 0.68484 0.53111 0.34166 0.0
Mn109 Mn 0.78343 0.63432 0.39518 0.0
C110 C 0.76662 0.54219 0.33396 0.0
C111 C 0.61877 0.45202 0.35094 0.0
C112 C 0.72826 0.62901 0.28531 0.0
O113 O 0.65163 0.55837 0.39578 0.0
O114 O 0.72111 0.6223 0.43532 0.0
C115 C 0.78909 0.60403 0.51157 0.0
N116 N 0.81155 0.62218 0.46141 0.0
C117 C 0.89297 0.63891 0.49831 0.0
C118 C 0.87079 0.62033 0.55041 0.0
C119 C 0.81852 0.6024 0.55689 0.0
C120 C 0.86142 0.63807 0.45417 0.0
H121 H 0.74912 0.59118 0.51696 0.0
C122 C 0.67323 0.59386 0.43194 0.0
O123 O 0.61804 0.47963 0.31146 0.0
O124 O 0.65755 0.47056 0.3858 0.0
N125 N 0.84665 0.65079 0.36088 0.0
C126 C 0.86186 0.66689 0.30766 0.0
C127 C 0.91341 0.68842 0.29486 0.0
C128 C 0.94877 0.69371 0.33708 0.0
C129 C 0.93207 0.67518 0.39097 0.0
C130 C 0.8802 0.6541 0.4012 0.0
H131 H 0.83517 0.66486 0.27568 0.0
O132 O 0.73017 0.51217 0.2999 0.0
O133 O 0.75391 0.56493 0.37205 0.0
O134 O 0.69889 0.58319 0.28416 0.0
O135 O 0.75894 0.65194 0.3265 0.0
C136 C 0.96492 0.67828 0.43553 0.0
C137 C 0.94525 0.65915 0.48874 0.0
H138 H 0.89355 0.61989 0.58579 0.0
H139 H 0.80113 0.58807 0.59698 0.0
H140 H 0.92607 0.70229 0.25309 0.0
H141 H 0.98867 0.71279 0.32767 0.0
H142 H 0.00539 0.6953 0.42947 0.0
H143 H 0.97081 0.66108 0.52234 0.0
Mn144 Mn 0.50387 0.17224 0.36276 0.0
Mn145 Mn 0.52732 0.0833 0.31523 0.0
C146 C 0.58401 0.18057 0.3721 0.0
C147 C 0.50505 0.24588 0.35 0.0
C148 C 0.46942 0.07649 0.42277 0.0
O149 O 0.44437 0.133 0.30741 0.0
O150 O 0.46728 0.0783 0.27436 0.0
C151 C 0.55581 0.11439 0.19746 0.0
N152 N 0.56794 0.10418 0.24916 0.0
C153 C 0.65203 0.12538 0.21918 0.0
C154 C 0.64032 0.13586 0.16554 0.0
C155 C 0.59199 0.13031 0.15464 0.0
C156 C 0.61425 0.10913 0.26 0.0
H157 H 0.51888 0.11065 0.18901 0.0
C158 C 0.43828 0.09764 0.27387 0.0
O159 O 0.47799 0.21691 0.38936 0.0
O160 O 0.52788 0.23033 0.31576 0.0
N161 N 0.58577 0.08645 0.35153 0.0
C162 C 0.59197 0.07747 0.40637 0.0
C163 C 0.63866 0.0825 0.42457 0.0
C164 C 0.67851 0.09683 0.3863 0.0
C165 C 0.67123 0.10582 0.33006 0.0
C166 C 0.62365 0.09961 0.31415 0.0
H167 H 0.56165 0.06689 0.43614 0.0
O168 O 0.56996 0.20488 0.40585 0.0
O169 O 0.55013 0.15134 0.33535 0.0
O170 O 0.47399 0.11905 0.42146 0.0
O171 O 0.48642 0.05901 0.38436 0.0
C172 C 0.70962 0.12164 0.28949 0.0
C173 C 0.70003 0.13141 0.23409 0.0
H174 H 0.66827 0.14858 0.13256 0.0
H175 H 0.58275 0.13856 0.11344 0.0
H176 H 0.64404 0.07567 0.46811 0.0
H177 H 0.71465 0.10121 0.40068 0.0
H178 H 0.74684 0.12693 0.30062 0.0
H179 H 0.73003 0.14406 0.20346 0.0
Mn180 Mn 0.87571 0.36791 0.34807 0.0
Mn181 Mn 0.97484 0.46851 0.29886 0.0
C182 C 0.87876 0.44371 0.35697 0.0
C183 C 0.79579 0.2995 0.3421 0.0
C184 C 0.97871 0.42441 0.40955 0.0
O185 O 0.90615 0.33813 0.29313 0.0
O186 O 0.97266 0.40831 0.26683 0.0
C187 C 0.93995 0.45463 0.17865 0.0
N188 N 0.95641 0.48298 0.22714 0.0
C189 C 0.95813 0.55106 0.1806 0.0
C190 C 0.94125 0.52265 0.13012 0.0
C191 C 0.93181 0.47411 0.12926 0.0
C192 C 0.96447 0.5293 0.22873 0.0
H193 H 0.93327 0.41752 0.1776 0.0
C194 C 0.94642 0.36168 0.26494 0.0
O195 O 0.82949 0.30352 0.37917 0.0
O196 O 0.80923 0.33436 0.30642 0.0
N197 N 0.98222 0.5298 0.32491 0.0
C198 C -0.00233 0.55195 0.3772 0.0
C199 C 0.0123 0.60156 0.38446 0.0
C200 C 0.0106 0.62768 0.33794 0.0
C201 C 0.99192 0.60357 0.28526 0.0
C202 C 0.97913 0.55439 0.28027 0.0
H203 H 0.00026 0.5323 0.41269 0.0
O204 O 0.85266 0.40905 0.39136 0.0
O205 O 0.90294 0.43327 0.31833 0.0
O206 O 0.93456 0.38798 0.40401 0.0
O207 O -0.00222 0.45787 0.37343 0.0
C208 C 0.98703 0.62669 0.23709 0.0
C209 C 0.9693 0.6002 0.18501 0.0
H210 H 0.93552 0.53774 0.09178 0.0
H211 H 0.91877 0.45193 0.09047 0.0
H212 H 0.02619 0.61994 0.4254 0.0
H213 H 0.02497 0.66648 0.34293 0.0
H214 H 0.99661 0.66472 0.23966 0.0
H215 H 0.96503 0.61811 0.14845 0.0
Mn216 Mn 0.34553 0.86145 0.67566 0.0
Mn217 Mn 0.45106 0.95516 0.73327 0.0
C218 C 0.42194 0.86212 0.66929 0.0
C219 C 0.27617 0.78415 0.6841 0.0
C220 C 0.40309 0.96095 0.62221 0.0
O221 O 0.31783 0.89306 0.73093 0.0
O222 O 0.39077 0.95208 0.77153 0.0
C223 C 0.44579 0.91945 0.84931 0.0
N224 N 0.47068 0.93412 0.79956 0.0
C225 C 0.53702 0.91867 0.83235 0.0
C226 C 0.51228 0.90375 0.88405 0.0
C227 C 0.46647 0.90416 0.89254 0.0
C228 C 0.51491 0.93407 0.79103 0.0
H229 H 0.41029 0.91915 0.85591 0.0
C230 C 0.34222 0.92738 0.76792 0.0
O231 O 0.27687 0.81279 0.64488 0.0
O232 O 0.31421 0.80129 0.71951 0.0
N233 N 0.51116 0.9599 0.70044 0.0
C234 C 0.52881 0.97271 0.64705 0.0
C235 C 0.57365 0.97286 0.63121 0.0
C236 C 0.5998 0.95975 0.6703 0.0
C237 C 0.58096 0.94676 0.725 0.0
C238 C 0.53639 0.9478 0.73861 0.0
H239 H 0.50868 0.98237 0.61658 0.0
O240 O 0.38546 0.83651 0.63311 0.0
O241 O 0.41247 0.88711 0.70739 0.0
O242 O 0.36733 0.91683 0.62004 0.0
O243 O 0.43467 0.97955 0.6639 0.0
C244 C 0.60415 0.93192 0.76616 0.0
C245 C 0.58221 0.9179 0.8198 0.0
H246 H 0.52786 0.89149 0.91731 0.0
H247 H 0.44699 0.89241 0.9322 0.0
H248 H 0.58784 0.98276 0.58884 0.0
H249 H 0.6341 0.95944 0.65772 0.0
H250 H 0.63859 0.93065 0.7568 0.0
H251 H 0.60011 0.90607 0.85088 0.0
Mn252 Mn 0.1714 0.49954 0.6996 0.0
Mn253 Mn 0.1679 0.39787 0.64478 0.0
C254 C 0.24308 0.49035 0.70705 0.0
C255 C 0.18369 0.57812 0.68907 0.0
C256 C 0.11857 0.40121 0.75529 0.0
O257 O 0.11032 0.47154 0.64559 0.0
O258 O 0.11772 0.40988 0.60373 0.0
C259 C 0.20453 0.42947 0.52905 0.0
N260 N 0.20881 0.41119 0.57924 0.0
C261 C 0.2752 0.39699 0.54367 0.0
C262 C 0.27163 0.41573 0.49158 0.0
C263 C 0.23641 0.43241 0.48441 0.0
C264 C 0.2435 0.39633 0.5871 0.0
H265 H 0.17687 0.44149 0.52311 0.0
C266 C 0.09775 0.43766 0.60763 0.0
O267 O 0.15599 0.55089 0.7292 0.0
O268 O 0.20371 0.55954 0.65466 0.0
N269 N 0.21502 0.38201 0.67973 0.0
C270 C 0.21419 0.36577 0.73292 0.0
C271 C 0.24529 0.34563 0.74636 0.0
C272 C 0.27645 0.34191 0.70484 0.0
C273 C 0.27811 0.36049 0.65098 0.0
C274 C 0.24617 0.38009 0.64004 0.0
H275 H 0.18891 0.36672 0.76444 0.0
O276 O 0.23629 0.51976 0.74123 0.0
O277 O 0.20728 0.46706 0.66897 0.0
O278 O 0.13475 0.447 0.75741 0.0
O279 O 0.12526 0.379 0.71288 0.0
C280 C 0.30901 0.35904 0.60718 0.0
C281 C 0.30834 0.37821 0.55396 0.0
H282 H 0.29556 0.4173 0.45675 0.0
H283 H 0.23338 0.44687 0.44433 0.0
H284 H 0.24418 0.33173 0.78812 0.0
H285 H 0.29838 0.3241 0.7148 0.0
H286 H 0.33357 0.3434 0.61396 0.0
H287 H 0.33286 0.37758 0.52096 0.0
Mn288 Mn 0.52478 0.67533 0.68428 0.0
Mn289 Mn 0.52771 0.57866 0.7393 0.0
C290 C 0.45286 0.59858 0.67984 0.0
C291 C 0.51346 0.7435 0.69034 0.0
C292 C 0.5711 0.61823 0.6254 0.0
O293 O 0.58696 0.70835 0.73641 0.0
O294 O 0.58583 0.64079 0.76826 0.0
C295 C 0.50893 0.59598 0.85881 0.0
N296 N 0.49655 0.56598 0.81174 0.0
C297 C 0.43226 0.49865 0.86158 0.0
C298 C 0.44437 0.52877 0.91068 0.0
C299 C 0.48266 0.57774 0.90916 0.0
C300 C 0.45913 0.51914 0.81246 0.0
H301 H 0.5387 0.63347 0.85798 0.0
C302 C 0.60498 0.68716 0.76661 0.0
O303 O 0.54087 0.7386 0.65129 0.0
O304 O 0.49308 0.70901 0.72658 0.0
N305 N 0.47403 0.51587 0.71621 0.0
C306 C 0.46591 0.49233 0.66469 0.0
C307 C 0.43108 0.44241 0.65953 0.0
C308 C 0.40476 0.41745 0.7073 0.0
C309 C 0.41159 0.44294 0.75917 0.0
C310 C 0.44786 0.49237 0.76207 0.0
H311 H 0.48672 0.51122 0.62815 0.0
O312 O 0.45895 0.63174 0.64421 0.0
O313 O 0.48908 0.61131 0.71754 0.0
O314 O 0.56201 0.65382 0.62803 0.0
O315 O 0.5595 0.58743 0.6644 0.0
C316 C 0.38487 0.42107 0.80841 0.0
C317 C 0.39469 0.4491 0.85941 0.0
H318 H 0.42451 0.51472 0.94972 0.0
H319 H 0.49217 0.60123 0.94684 0.0
H320 H 0.4255 0.42298 0.6192 0.0
H321 H 0.38033 0.37854 0.70389 0.0
H322 H 0.3565 0.38283 0.80744 0.0
H323 H 0.37348 0.43209 0.89681 0.0
C324 C 0.14404 0.12023 0.07569 0.0
C325 C 0.16715 0.11061 0.02932 0.0
H326 H 0.10006 0.153 0.10479 0.0
C327 C 0.16852 0.13204 0.97727 0.0
H328 H 0.14244 0.10419 0.11623 0.0
C329 C 0.14351 0.15925 0.9705 0.0
C330 C 0.11851 0.16692 0.01622 0.0
H331 H 0.1858 0.12494 0.94067 0.0
H332 H 0.14207 0.17274 0.92913 0.0
C333 C 0.12006 0.14833 0.06922 0.0
C334 C 0.87338 0.99085 0.96698 0.0
C335 C 0.8588 0.96392 0.01645 0.0
H336 H 0.90784 0.06189 0.93185 0.0
C337 C 0.86252 0.9882 0.06873 0.0
H338 H 0.87083 0.97291 0.92623 0.0
C339 C 0.88491 0.03908 0.07217 0.0
C340 C 0.90203 0.06625 0.02311 0.0
H341 H 0.85179 0.96827 0.10758 0.0
H342 H 0.89142 0.05736 0.11347 0.0
C343 C 0.89402 0.04162 0.97018 0.0
C344 C 0.99471 0.8536 0.08194 0.0
C345 C 0.96312 0.83845 0.03325 0.0
H346 H 0.07057 0.89468 0.11521 0.0
C347 C 0.98544 0.84531 0.97976 0.0
H348 H 0.97859 0.84964 0.12367 0.0
C349 C 0.03819 0.87037 0.97494 0.0
C350 C 0.06969 0.88942 0.02346 0.0
H351 H 0.96245 0.83614 0.94142 0.0
H352 H 0.0542 0.87861 0.93306 0.0
C353 C 0.04752 0.879 0.07711 0.0
C354 C 0.85612 0.49545 0.29782 0.0
C355 C 0.86641 0.48381 0.35162 0.0
H356 H 0.81817 0.52582 0.25019 0.0
C357 C 0.8529 0.50188 0.39988 0.0
H358 H 0.86397 0.48035 0.25984 0.0
C359 C 0.82539 0.52699 0.39435 0.0
C360 C 0.81126 0.53482 0.34041 0.0
H361 H 0.85958 0.49276 0.44187 0.0
H362 H 0.81045 0.53517 0.43219 0.0
C363 C 0.82931 0.52114 0.2923 0.0
C364 C 0.53814 0.32485 0.40341 0.0
C365 C 0.52021 0.29806 0.35187 0.0
H366 H 0.58494 0.39527 0.44342 0.0
C367 C 0.52891 0.323 0.30116 0.0
H368 H 0.53272 0.30629 0.44295 0.0
C369 C 0.55775 0.37385 0.30159 0.0
C370 C 0.57984 0.40025 0.35249 0.0
H371 H 0.51605 0.30297 0.2609 0.0
H372 H 0.56602 0.39205 0.26156 0.0
C373 C 0.5685 0.3756 0.40363 0.0
C374 C 0.65655 0.2206 0.30815 0.0
C375 C 0.63822 0.20109 0.3613 0.0
H376 H 0.72142 0.26715 0.26008 0.0
C377 C 0.67249 0.20943 0.40589 0.0
H378 H 0.63052 0.21533 0.27347 0.0
C379 C 0.72449 0.23829 0.39797 0.0
C380 C 0.74268 0.26073 0.34595 0.0
H381 H 0.65894 0.19523 0.44736 0.0
H382 H 0.75007 0.24578 0.4338 0.0
C383 C 0.70841 0.25041 0.30057 0.0
C384 C 0.45764 0.82401 0.73168 0.0
C385 C 0.45883 0.84544 0.67984 0.0
H386 H 0.47442 0.77465 0.77583 0.0
C387 C 0.48504 0.83911 0.63445 0.0
H388 H 0.43658 0.82755 0.76686 0.0
C389 C 0.50696 0.80907 0.63962 0.0
C390 C 0.5015 0.78382 0.68973 0.0
H391 H 0.48565 0.85478 0.59391 0.0
H392 H 0.52453 0.8026 0.60287 0.0
C393 C 0.47872 0.79328 0.73656 0.0
C394 C 0.22345 0.70786 0.73469 0.0
C395 C 0.23954 0.73173 0.68328 0.0
H396 H 0.19142 0.63975 0.77644 0.0
C397 C 0.23014 0.70393 0.63259 0.0
H398 H 0.2309 0.72872 0.77434 0.0
C399 C 0.20932 0.65322 0.63399 0.0
C400 C 0.19624 0.62964 0.68589 0.0
H401 H 0.24303 0.72165 0.59258 0.0
H402 H 0.20566 0.63273 0.59486 0.0
C403 C 0.20111 0.65707 0.73587 0.0
C404 C 0.31662 0.50821 0.64545 0.0
C405 C 0.29576 0.50002 0.69979 0.0
H406 H 0.38381 0.54504 0.59657 0.0
C407 C 0.32873 0.51638 0.74735 0.0
H408 H 0.29243 0.49827 0.608 0.0
C409 C 0.38096 0.54522 0.7408 0.0
C410 C 0.40151 0.5567 0.68655 0.0
H411 H 0.31371 0.5116 0.78973 0.0
H412 H 0.40439 0.56256 0.77822 0.0
C413 C 0.36909 0.53598 0.63892 0.0
C414 C 0.05691 0.29531 0.85355 0.0
C415 C 0.07761 0.31847 0.90647 0.0
H416 H 0.05365 0.3034 0.76389 0.0
C417 C 0.10659 0.36961 0.90984 0.0
H418 H 0.03454 0.25593 0.84954 0.0
C419 C 0.11642 0.39687 0.86101 0.0
C420 C 0.0985 0.37348 0.80753 0.0
H421 H 0.12279 0.3885 0.95007 0.0
H422 H 0.14071 0.43604 0.86478 0.0
C423 C 0.06778 0.32248 0.80449 0.0
C424 C 0.69117 0.76883 0.88585 0.0
C425 C 0.72906 0.75497 0.88487 0.0
H426 H 0.62145 0.75831 0.84757 0.0
C427 C 0.72881 0.72446 0.83969 0.0
H428 H 0.69048 0.79245 0.91979 0.0
C429 C 0.68983 0.70513 0.79931 0.0
C430 C 0.65046 0.71639 0.80216 0.0
H431 H 0.75782 0.7137 0.83644 0.0
H432 H 0.68941 0.67971 0.76692 0.0
C433 C 0.652 0.74962 0.84448 0.0
C434 C 0.3281 0.98019 0.83932 0.0
C435 C 0.31342 0.93387 0.81461 0.0
H436 H 0.31571 0.02113 0.9058 0.0
C437 C 0.27445 0.8925 0.83928 0.0
H438 H 0.35852 0.01257 0.82149 0.0
C439 C 0.25152 0.89717 0.8886 0.0
C440 C 0.26585 0.94343 0.91329 0.0
H441 H 0.26312 0.85625 0.82179 0.0
H442 H 0.22249 0.86447 0.90719 0.0
C443 C 0.30383 0.985 0.88762 0.0
C444 C 0.38682 0.03564 0.1984 0.0
C445 C 0.39669 0.07791 0.23046 0.0
H446 H 0.34142 0.98295 0.13437 0.0
C447 C 0.36773 0.10102 0.21893 0.0
H448 H 0.40838 0.01688 0.20541 0.0
C449 C 0.32904 0.08142 0.17704 0.0
C450 C 0.31855 0.03825 0.14655 0.0
H451 H 0.37473 0.13395 0.24239 0.0
H452 H 0.30627 0.09895 0.16996 0.0
C453 C 0.34837 0.01614 0.15728 0.0
C454 C 0.94906 0.26669 0.16234 0.0
C455 C 4e-05 0.29096 0.14588 0.0
H456 H 0.89188 0.26953 0.21406 0.0
C457 C 0.03271 0.33722 0.17064 0.0
H458 H 0.923 0.23085 0.14443 0.0
C459 C 0.01513 0.359 0.21002 0.0
C460 C 0.9643 0.33527 0.22638 0.0
H461 H 0.0722 0.35721 0.1593 0.0
H462 H 0.04167 0.39488 0.22749 0.0
C463 C 0.93138 0.28858 0.20259 0.0
C464 C 0.71996 0.63136 0.18006 0.0
C465 C 0.73244 0.65603 0.23335 0.0
H466 H 0.72669 0.63753 0.08994 0.0
C467 C 0.75544 0.7072 0.23562 0.0
H468 H 0.70238 0.59194 0.17678 0.0
C469 C 0.76866 0.73329 0.18575 0.0
C470 C 0.76005 0.70875 0.13264 0.0
H471 H 0.76534 0.72723 0.27602 0.0
H472 H 0.78871 0.77279 0.18913 0.0
C473 C 0.73407 0.65748 0.13023 0.0
C474 C 0.02907 0.3885 0.53633 0.0
C475 C 0.06346 0.43413 0.56091 0.0
H476 H 0.97478 0.34975 0.46949 0.0
C477 C 0.06969 0.47671 0.53572 0.0
H478 H 0.02416 0.35519 0.55459 0.0
C479 C 0.04296 0.47371 0.48583 0.0
C480 C 0.00839 0.42804 0.46125 0.0
H481 H 0.09685 0.51237 0.55323 0.0
H482 H 0.04931 0.50713 0.46672 0.0
C483 C 0.00115 0.38547 0.48751 0.0
C484 C 0.60912 0.55897 0.50715 0.0
C485 C 0.64274 0.59961 0.47687 0.0
H486 H 0.56175 0.53319 0.57922 0.0
C487 C 0.65187 0.64629 0.49479 0.0
H488 H 0.60237 0.52273 0.49476 0.0
C489 C 0.62768 0.65224 0.54235 0.0
C490 C 0.59537 0.61178 0.57397 0.0
H491 H 0.67821 0.6782 0.4724 0.0
H492 H 0.6355 0.68868 0.55537 0.0
C493 C 0.58629 0.56508 0.5558 0.0
C494 C 0.40349 0.96774 0.51674 0.0
C495 C 0.41285 0.99043 0.57106 0.0
H496 H 0.41479 0.97721 0.42728 0.0
C497 C 0.43726 0.04166 0.57569 0.0
H498 H 0.38533 0.92836 0.51179 0.0
C499 C 0.45321 0.0696 0.52715 0.0
C500 C 0.44638 0.04691 0.47312 0.0
H501 H 0.44519 0.06015 0.61697 0.0
H502 H 0.47316 0.10903 0.53218 0.0
C503 C 0.42069 0.99569 0.46837 0.0
loop_
_geom_bond_atom_site_label_1
_geom_bond_atom_site_label_2
_geom_bond_distance
_geom_bond_site_symmetry_2
_ccdc_geom_bond_type
Mn0 O5 2.095 1_455 S
Mn0 O15 2.162 1_454 S
Mn0 O16 2.297 1_455 S
Mn0 O24 2.385 1_554 S
Mn0 O25 2.209 . S
Mn0 O26 2.094 1_554 S
Mn1 O6 2.121 . S
Mn1 N8 2.257 . S
Mn1 N17 2.282 . S
Mn1 O25 2.215 . S
Mn1 O27 2.117 1_554 S
C2 O24 1.234 1_554 S
C2 O25 1.283 . S
C3 O15 1.281 1_554 S
C3 O16 1.236 . S
C4 O26 1.240 . S
C4 O27 1.264 . S
O5 Mn0 2.095 1_655 S
O5 C14 1.248 1_655 S
O6 Mn1 2.121 . S
O6 C14 1.271 . S
C7 N8 1.326 . S
C7 C11 1.460 . S
C7 H13 0.929 . S
N8 Mn1 2.257 . S
N8 C7 1.326 . S
N8 C12 1.362 . S
C9 C10 1.258 . S
C9 C12 1.431 . S
C9 C29 1.449 . S
C10 C9 1.258 . S
C10 C11 1.477 . S
C10 H30 0.931 . S
C11 C7 1.460 . S
C11 C10 1.477 . S
C11 H31 0.930 . S
C12 N8 1.362 . S
C12 C9 1.431 . S
C12 C22 1.476 . S
H13 C7 0.929 . S
C14 O5 1.248 1_455 S
C14 O6 1.271 . S
O15 Mn0 2.162 1_656 S
O15 C3 1.281 1_556 S
O16 Mn0 2.297 1_655 S
O16 C3 1.236 . S
N17 Mn1 2.282 . S
N17 C18 1.328 1_554 S
N17 C22 1.318 . S
C18 N17 1.328 1_556 S
C18 C19 1.457 . S
C18 H23 0.929 . S
C19 C18 1.457 . S
C19 C20 1.291 . S
C19 H32 0.931 . S
C20 C19 1.291 . S
C20 C21 1.373 1_556 S
C20 H33 0.929 . S
C21 C20 1.373 1_554 S
C21 C22 1.396 . S
C21 C28 1.403 . S
C22 C12 1.476 . S
C22 N17 1.318 . S
C22 C21 1.396 . S
H23 C18 0.929 . S
O24 Mn0 2.385 1_556 S
O24 C2 1.234 1_556 S
O25 Mn0 2.209 . S
O25 Mn1 2.215 . S
O25 C2 1.283 . S
O26 Mn0 2.094 1_556 S
O26 C4 1.240 . S
O27 Mn1 2.117 1_556 S
O27 C4 1.264 . S
C28 C21 1.403 . S
C28 C29 1.399 . S
C28 H34 0.929 . S
C29 C9 1.449 . S
C29 C28 1.399 . S
C29 H35 0.930 . S
H30 C10 0.931 . S
H31 C11 0.930 . S
H32 C19 0.931 . S
H33 C20 0.929 . S
H34 C28 0.929 . S
H35 C29 0.930 . S
Mn36 O41 2.095 1_554 S
Mn36 O51 2.162 . S
Mn36 O52 2.297 1_554 S
Mn36 O60 2.385 . S
Mn36 O61 2.209 1_554 S
Mn36 O62 2.094 . S
Mn37 O42 2.121 . S
Mn37 N44 2.257 . S
Mn37 N53 2.282 1_556 S
Mn37 O61 2.215 . S
Mn37 O63 2.117 1_556 S
C38 O60 1.234 . S
C38 O61 1.283 1_554 S
C39 O51 1.281 . S
C39 O52 1.236 1_554 S
C40 O62 1.240 . S
C40 O63 1.264 . S
O41 Mn36 2.095 1_556 S
O41 C50 1.250 . S
O42 Mn37 2.121 . S
O42 C50 1.258 . S
C43 N44 1.326 . S
C43 C47 1.460 . S
C43 H49 0.929 . S
N44 Mn37 2.257 . S
N44 C43 1.326 . S
N44 C48 1.362 . S
C45 C46 1.258 . S
C45 C48 1.431 . S
C45 C65 1.449 . S
C46 C45 1.258 . S
C46 C47 1.477 . S
C46 H66 0.931 . S
C47 C43 1.460 . S
C47 C46 1.477 . S
C47 H67 0.930 . S
C48 N44 1.362 . S
C48 C45 1.431 . S
C48 C58 1.476 . S
H49 C43 0.929 . S
C50 O41 1.250 . S
C50 O42 1.258 . S
O51 Mn36 2.162 . S
O51 C39 1.281 . S
O52 Mn36 2.297 1_556 S
O52 C39 1.236 1_556 S
N53 Mn37 2.282 1_554 S
N53 C54 1.328 . S
N53 C58 1.318 1_554 S
C54 N53 1.328 . S
C54 C55 1.457 . S
C54 H59 0.929 . S
C55 C54 1.457 . S
C55 C56 1.291 . S
C55 H68 0.931 . S
C56 C55 1.291 . S
C56 C57 1.373 1_554 S
C56 H69 0.929 1_655 S
C57 C56 1.373 1_556 S
C57 C58 1.396 . S
C57 C64 1.403 1_655 S
C58 C48 1.476 . S
C58 N53 1.318 1_556 S
C58 C57 1.396 . S
H59 C54 0.929 . S
O60 Mn36 2.385 . S
O60 C38 1.234 . S
O61 Mn36 2.209 1_556 S
O61 Mn37 2.215 . S
O61 C38 1.283 1_556 S
O62 Mn36 2.094 . S
O62 C40 1.240 . S
O63 Mn37 2.117 1_554 S
O63 C40 1.264 . S
C64 C57 1.403 1_455 S
C64 C65 1.399 1_455 S
C64 H70 0.929 . S
C65 C45 1.449 . S
C65 C64 1.399 1_655 S
C65 H71 0.930 1_655 S
H66 C46 0.931 . S
H67 C47 0.930 . S
H68 C55 0.931 . S
H69 C56 0.929 1_455 S
H70 C64 0.929 . S
H71 C65 0.930 1_455 S
Mn72 O77 2.095 . S
Mn72 O87 2.162 1_554 S
Mn72 O88 2.297 . S
Mn72 O96 2.385 1_544 S
Mn72 O97 2.209 1_545 S
Mn72 O98 2.094 1_554 S
Mn73 O78 2.121 . S
Mn73 N80 2.257 . S
Mn73 N89 2.282 . S
Mn73 O97 2.215 . S
Mn73 O99 2.117 1_554 S
C74 O96 1.234 1_554 S
C74 O97 1.283 . S
C75 O87 1.281 1_554 S
C75 O88 1.236 . S
C76 O98 1.240 1_565 S
C76 O99 1.264 . S
O77 Mn72 2.095 . S
O77 C86 1.250 . S
O78 Mn73 2.121 . S
O78 C86 1.258 1_565 S
C79 N80 1.326 . S
C79 C83 1.460 . S
C79 H85 0.929 . S
N80 Mn73 2.257 . S
N80 C79 1.326 . S
N80 C84 1.362 . S
C81 C82 1.258 . S
C81 C84 1.431 . S
C81 C101 1.449 . S
C82 C81 1.258 . S
C82 C83 1.477 . S
C82 H102 0.931 . S
C83 C79 1.460 . S
C83 C82 1.477 . S
C83 H103 0.930 . S
C84 N80 1.362 . S
C84 C81 1.431 . S
C84 C94 1.476 . S
H85 C79 0.929 . S
C86 O77 1.250 . S
C86 O78 1.258 1_545 S
O87 Mn72 2.162 1_556 S
O87 C75 1.281 1_556 S
O88 Mn72 2.297 . S
O88 C75 1.236 . S
N89 Mn73 2.282 . S
N89 C90 1.328 1_554 S
N89 C94 1.318 . S
C90 N89 1.328 1_556 S
C90 C91 1.457 . S
C90 H95 0.929 . S
C91 C90 1.457 . S
C91 C92 1.291 . S
C91 H104 0.931 . S
C92 C91 1.291 . S
C92 C93 1.373 1_556 S
C92 H105 0.929 . S
C93 C92 1.373 1_554 S
C93 C94 1.396 . S
C93 C100 1.403 . S
C94 C84 1.476 . S
C94 N89 1.318 . S
C94 C93 1.396 . S
H95 C90 0.929 . S
O96 Mn72 2.385 1_566 S
O96 C74 1.234 1_556 S
O97 Mn72 2.209 1_565 S
O97 Mn73 2.215 . S
O97 C74 1.283 . S
O98 Mn72 2.094 1_556 S
O98 C76 1.240 1_545 S
O99 Mn73 2.117 1_556 S
O99 C76 1.264 . S
C100 C93 1.403 . S
C100 C101 1.399 . S
C100 H106 0.929 . S
C101 C81 1.449 . S
C101 C100 1.399 . S
C101 H107 0.930 . S
H102 C82 0.931 . S
H103 C83 0.930 . S
H104 C91 0.931 . S
H105 C92 0.929 . S
H106 C100 0.929 . S
H107 C101 0.930 . S
Mn108 O113 2.095 . S
Mn108 O123 2.162 . S
Mn108 O124 2.297 . S
Mn108 O132 2.385 . S
Mn108 O133 2.209 . S
Mn108 O134 2.094 . S
Mn109 O114 2.121 . S
Mn109 N116 2.257 . S
Mn109 N125 2.282 . S
Mn109 O133 2.215 . S
Mn109 O135 2.117 . S
C110 O132 1.234 . S
C110 O133 1.283 . S
C111 O123 1.281 . S
C111 O124 1.236 . S
C112 O134 1.240 . S
C112 O135 1.264 . S
O113 Mn108 2.095 . S
O113 C122 1.250 . S
O114 Mn109 2.121 . S
O114 C122 1.258 . S
C115 N116 1.326 . S
C115 C119 1.460 . S
C115 H121 0.929 . S
N116 Mn109 2.257 . S
N116 C115 1.326 . S
N116 C120 1.362 . S
C117 C118 1.258 . S
C117 C120 1.431 . S
C117 C137 1.449 . S
C118 C117 1.258 . S
C118 C119 1.477 . S
C118 H138 0.931 . S
C119 C115 1.460 . S
C119 C118 1.477 . S
C119 H139 0.930 . S
C120 N116 1.362 . S
C120 C117 1.431 . S
C120 C130 1.476 . S
H121 C115 0.929 . S
C122 O113 1.250 . S
C122 O114 1.258 . S
O123 Mn108 2.162 . S
O123 C111 1.281 . S
O124 Mn108 2.297 . S
O124 C111 1.236 . S
N125 Mn109 2.282 . S
N125 C126 1.328 . S
N125 C130 1.318 . S
C126 N125 1.328 . S
C126 C127 1.457 . S
C126 H131 0.929 . S
C127 C126 1.457 . S
C127 C128 1.291 . S
C127 H140 0.931 . S
C128 C127 1.291 . S
C128 C129 1.373 . S
C128 H141 0.929 . S
C129 C128 1.373 . S
C129 C130 1.396 . S
C129 C136 1.403 . S
C130 C120 1.476 . S
C130 N125 1.318 . S
C130 C129 1.396 . S
H131 C126 0.929 . S
O132 Mn108 2.385 . S
O132 C110 1.234 . S
O133 Mn108 2.209 . S
O133 Mn109 2.215 . S
O133 C110 1.283 . S
O134 Mn108 2.094 . S
O134 C112 1.240 . S
O135 Mn109 2.117 . S
O135 C112 1.264 . S
C136 C129 1.403 . S
C136 C137 1.399 . S
C136 H142 0.929 1_655 S
C137 C117 1.449 . S
C137 C136 1.399 . S
C137 H143 0.930 . S
H138 C118 0.931 . S
H139 C119 0.930 . S
H140 C127 0.931 . S
H141 C128 0.929 . S
H142 C136 0.929 1_455 S
H143 C137 0.930 . S
Mn144 O149 2.095 . S
Mn144 O159 2.162 . S
Mn144 O160 2.297 . S
Mn144 O168 2.385 . S
Mn144 O169 2.209 . S
Mn144 O170 2.094 . S
Mn145 O150 2.121 . S
Mn145 N152 2.257 . S
Mn145 N161 2.282 . S
Mn145 O169 2.215 . S
Mn145 O171 2.117 . S
C146 O168 1.234 . S
C146 O169 1.283 . S
C147 O159 1.281 . S
C147 O160 1.236 . S
C148 O170 1.240 . S
C148 O171 1.264 . S
O149 Mn144 2.095 . S
O149 C158 1.250 . S
O150 Mn145 2.121 . S
O150 C158 1.258 . S
C151 N152 1.326 . S
C151 C155 1.460 . S
C151 H157 0.929 . S
N152 Mn145 2.257 . S
N152 C151 1.326 . S
N152 C156 1.362 . S
C153 C154 1.258 . S
C153 C156 1.431 . S
C153 C173 1.449 . S
C154 C153 1.258 . S
C154 C155 1.477 . S
C154 H174 0.931 . S
C155 C151 1.460 . S
C155 C154 1.477 . S
C155 H175 0.930 . S
C156 N152 1.362 . S
C156 C153 1.431 . S
C156 C166 1.476 . S
H157 C151 0.929 . S
C158 O149 1.250 . S
C158 O150 1.258 . S
O159 Mn144 2.162 . S
O159 C147 1.281 . S
O160 Mn144 2.297 . S
O160 C147 1.236 . S
N161 Mn145 2.282 . S
N161 C162 1.328 . S
N161 C166 1.318 . S
C162 N161 1.328 . S
C162 C163 1.457 . S
C162 H167 0.929 . S
C163 C162 1.457 . S
C163 C164 1.291 . S
C163 H176 0.931 . S
C164 C163 1.291 . S
C164 C165 1.373 . S
C164 H177 0.929 . S
C165 C164 1.373 . S
C165 C166 1.396 . S
C165 C172 1.403 . S
C166 C156 1.476 . S
C166 N161 1.318 . S
C166 C165 1.396 . S
H167 C162 0.929 . S
O168 Mn144 2.385 . S
O168 C146 1.234 . S
O169 Mn144 2.209 . S
O169 Mn145 2.215 . S
O169 C146 1.283 . S
O170 Mn144 2.094 . S
O170 C148 1.240 . S
O171 Mn145 2.117 . S
O171 C148 1.264 . S
C172 C165 1.403 . S
C172 C173 1.399 . S
C172 H178 0.929 . S
C173 C153 1.449 . S
C173 C172 1.399 . S
C173 H179 0.930 . S
H174 C154 0.931 . S
H175 C155 0.930 . S
H176 C163 0.931 . S
H177 C164 0.929 . S
H178 C172 0.929 . S
H179 C173 0.930 . S
Mn180 O185 2.095 . S
Mn180 O195 2.162 . S
Mn180 O196 2.297 . S
Mn180 O204 2.385 . S
Mn180 O205 2.209 . S
Mn180 O206 2.094 . S
Mn181 O186 2.121 . S
Mn181 N188 2.257 . S
Mn181 N197 2.282 . S
Mn181 O205 2.215 . S
Mn181 O207 2.117 . S
C182 O204 1.234 . S
C182 O205 1.283 . S
C183 O195 1.281 . S
C183 O196 1.236 . S
C184 O206 1.240 . S
C184 O207 1.264 . S
O185 Mn180 2.095 . S
O185 C194 1.250 . S
O186 Mn181 2.121 . S
O186 C194 1.258 . S
C187 N188 1.326 . S
C187 C191 1.460 . S
C187 H193 0.929 . S
N188 Mn181 2.257 . S
N188 C187 1.326 . S
N188 C192 1.362 . S
C189 C190 1.258 . S
C189 C192 1.431 . S
C189 C209 1.449 . S
C190 C189 1.258 . S
C190 C191 1.477 . S
C190 H210 0.931 . S
C191 C187 1.460 . S
C191 C190 1.477 . S
C191 H211 0.930 . S
C192 N188 1.362 . S
C192 C189 1.431 . S
C192 C202 1.476 . S
H193 C187 0.929 . S
C194 O185 1.250 . S
C194 O186 1.258 . S
O195 Mn180 2.162 . S
O195 C183 1.281 . S
O196 Mn180 2.297 . S
O196 C183 1.236 . S
N197 Mn181 2.282 . S
N197 C198 1.328 . S
N197 C202 1.318 . S
C198 N197 1.328 . S
C198 C199 1.457 . S
C198 H203 0.929 . S
C199 C198 1.457 . S
C199 C200 1.291 . S
C199 H212 0.931 . S
C200 C199 1.291 . S
C200 C201 1.373 . S
C200 H213 0.929 . S
C201 C200 1.373 . S
C201 C202 1.396 . S
C201 C208 1.403 . S
C202 C192 1.476 . S
C202 N197 1.318 . S
C202 C201 1.396 . S
H203 C198 0.929 . S
O204 Mn180 2.385 . S
O204 C182 1.234 . S
O205 Mn180 2.209 . S
O205 Mn181 2.215 . S
O205 C182 1.283 . S
O206 Mn180 2.094 . S
O206 C184 1.240 . S
O207 Mn181 2.117 . S
O207 C184 1.264 . S
C208 C201 1.403 . S
C208 C209 1.399 . S
C208 H214 0.929 . S
C209 C189 1.449 . S
C209 C208 1.399 . S
C209 H215 0.930 . S
H210 C190 0.931 . S
H211 C191 0.930 . S
H212 C199 0.931 . S
H213 C200 0.929 . S
H214 C208 0.929 . S
H215 C209 0.930 . S
Mn216 O221 2.095 . S
Mn216 O231 2.162 . S
Mn216 O232 2.297 . S
Mn216 O240 2.385 . S
Mn216 O241 2.209 . S
Mn216 O242 2.094 . S
Mn217 O222 2.121 . S
Mn217 N224 2.257 . S
Mn217 N233 2.282 . S
Mn217 O241 2.215 . S
Mn217 O243 2.117 . S
C218 O240 1.234 . S
C218 O241 1.283 . S
C219 O231 1.281 . S
C219 O232 1.236 . S
C220 O242 1.240 . S
C220 O243 1.264 . S
O221 Mn216 2.095 . S
O221 C230 1.250 . S
O222 Mn217 2.121 . S
O222 C230 1.258 . S
C223 N224 1.326 . S
C223 C227 1.460 . S
C223 H229 0.929 . S
N224 Mn217 2.257 . S
N224 C223 1.326 . S
N224 C228 1.362 . S
C225 C226 1.258 . S
C225 C228 1.431 . S
C225 C245 1.449 . S
C226 C225 1.258 . S
C226 C227 1.477 . S
C226 H246 0.931 . S
C227 C223 1.460 . S
C227 C226 1.477 . S
C227 H247 0.930 . S
C228 N224 1.362 . S
C228 C225 1.431 . S
C228 C238 1.476 . S
H229 C223 0.929 . S
C230 O221 1.250 . S
C230 O222 1.258 . S
O231 Mn216 2.162 . S
O231 C219 1.281 . S
O232 Mn216 2.297 . S
O232 C219 1.236 . S
N233 Mn217 2.282 . S
N233 C234 1.328 . S
N233 C238 1.318 . S
C234 N233 1.328 . S
C234 C235 1.457 . S
C234 H239 0.929 . S
C235 C234 1.457 . S
C235 C236 1.291 . S
C235 H248 0.931 . S
C236 C235 1.291 . S
C236 C237 1.373 . S
C236 H249 0.929 . S
C237 C236 1.373 . S
C237 C238 1.396 . S
C237 C244 1.403 . S
C238 C228 1.476 . S
C238 N233 1.318 . S
C238 C237 1.396 . S
H239 C234 0.929 . S
O240 Mn216 2.385 . S
O240 C218 1.234 . S
O241 Mn216 2.209 . S
O241 Mn217 2.215 . S
O241 C218 1.283 . S
O242 Mn216 2.094 . S
O242 C220 1.240 . S
O243 Mn217 2.117 . S
O243 C220 1.264 . S
C244 C237 1.403 . S
C244 C245 1.399 . S
C244 H250 0.929 . S
C245 C225 1.449 . S
C245 C244 1.399 . S
C245 H251 0.930 . S
H246 C226 0.931 . S
H247 C227 0.930 . S
H248 C235 0.931 . S
H249 C236 0.929 . S
H250 C244 0.929 . S
H251 C245 0.930 . S
Mn252 O257 2.095 . S
Mn252 O267 2.162 . S
Mn252 O268 2.297 . S
Mn252 O276 2.385 . S
Mn252 O277 2.209 . S
Mn252 O278 2.094 . S
Mn253 O258 2.121 . S
Mn253 N260 2.257 . S
Mn253 N269 2.282 . S
Mn253 O277 2.215 . S
Mn253 O279 2.117 . S
C254 O276 1.234 . S
C254 O277 1.283 . S
C255 O267 1.281 . S
C255 O268 1.236 . S
C256 O278 1.240 . S
C256 O279 1.264 . S
O257 Mn252 2.095 . S
O257 C266 1.250 . S
O258 Mn253 2.121 . S
O258 C266 1.258 . S
C259 N260 1.326 . S
C259 C263 1.460 . S
C259 H265 0.929 . S
N260 Mn253 2.257 . S
N260 C259 1.326 . S
N260 C264 1.362 . S
C261 C262 1.258 . S
C261 C264 1.431 . S
C261 C281 1.449 . S
C262 C261 1.258 . S
C262 C263 1.477 . S
C262 H282 0.931 . S
C263 C259 1.460 . S
C263 C262 1.477 . S
C263 H283 0.930 . S
C264 N260 1.362 . S
C264 C261 1.431 . S
C264 C274 1.476 . S
H265 C259 0.929 . S
C266 O257 1.250 . S
C266 O258 1.258 . S
O267 Mn252 2.162 . S
O267 C255 1.281 . S
O268 Mn252 2.297 . S
O268 C255 1.236 . S
N269 Mn253 2.282 . S
N269 C270 1.328 . S
N269 C274 1.318 . S
C270 N269 1.328 . S
C270 C271 1.457 . S
C270 H275 0.929 . S
C271 C270 1.457 . S
C271 C272 1.291 . S
C271 H284 0.931 . S
C272 C271 1.291 . S
C272 C273 1.373 . S
C272 H285 0.929 . S
C273 C272 1.373 . S
C273 C274 1.396 . S
C273 C280 1.403 . S
C274 C264 1.476 . S
C274 N269 1.318 . S
C274 C273 1.396 . S
H275 C270 0.929 . S
O276 Mn252 2.385 . S
O276 C254 1.234 . S
O277 Mn252 2.209 . S
O277 Mn253 2.215 . S
O277 C254 1.283 . S
O278 Mn252 2.094 . S
O278 C256 1.240 . S
O279 Mn253 2.117 . S
O279 C256 1.264 . S
C280 C273 1.403 . S
C280 C281 1.399 . S
C280 H286 0.929 . S
C281 C261 1.449 . S
C281 C280 1.399 . S
C281 H287 0.930 . S
H282 C262 0.931 . S
H283 C263 0.930 . S
H284 C271 0.931 . S
H285 C272 0.929 . S
H286 C280 0.929 . S
H287 C281 0.930 . S
Mn288 O293 2.095 . S
Mn288 O303 2.162 . S
Mn288 O304 2.297 . S
Mn288 O312 2.385 . S
Mn288 O313 2.209 . S
Mn288 O314 2.094 . S
Mn289 O294 2.121 . S
Mn289 N296 2.257 . S
Mn289 N305 2.282 . S
Mn289 O313 2.215 . S
Mn289 O315 2.117 . S
C290 O312 1.234 . S
C290 O313 1.283 . S
C291 O303 1.281 . S
C291 O304 1.236 . S
C292 O314 1.240 . S
C292 O315 1.264 . S
O293 Mn288 2.095 . S
O293 C302 1.250 . S
O294 Mn289 2.121 . S
O294 C302 1.258 . S
C295 N296 1.326 . S
C295 C299 1.460 . S
C295 H301 0.929 . S
N296 Mn289 2.257 . S
N296 C295 1.326 . S
N296 C300 1.362 . S
C297 C298 1.258 . S
C297 C300 1.431 . S
C297 C317 1.449 . S
C298 C297 1.258 . S
C298 C299 1.477 . S
C298 H318 0.931 . S
C299 C295 1.460 . S
C299 C298 1.477 . S
C299 H319 0.930 . S
C300 N296 1.362 . S
C300 C297 1.431 . S
C300 C310 1.476 . S
H301 C295 0.929 . S
C302 O293 1.250 . S
C302 O294 1.258 . S
O303 Mn288 2.162 . S
O303 C291 1.281 . S
O304 Mn288 2.297 . S
O304 C291 1.236 . S
N305 Mn289 2.282 . S
N305 C306 1.328 . S
N305 C310 1.318 . S
C306 N305 1.328 . S
C306 C307 1.457 . S
C306 H311 0.929 . S
C307 C306 1.457 . S
C307 C308 1.291 . S
C307 H320 0.931 . S
C308 C307 1.291 . S
C308 C309 1.373 . S
C308 H321 0.929 . S
C309 C308 1.373 . S
C309 C310 1.396 . S
C309 C316 1.403 . S
C310 C300 1.476 . S
C310 N305 1.318 . S
C310 C309 1.396 . S
H311 C306 0.929 . S
O312 Mn288 2.385 . S
O312 C290 1.234 . S
O313 Mn288 2.209 . S
O313 Mn289 2.215 . S
O313 C290 1.283 . S
O314 Mn288 2.094 . S
O314 C292 1.240 . S
O315 Mn289 2.117 . S
O315 C292 1.264 . S
C316 C309 1.403 . S
C316 C317 1.399 . S
C316 H322 0.929 . S
C317 C297 1.449 . S
C317 C316 1.399 . S
C317 H323 0.930 . S
H318 C298 0.931 . S
H319 C299 0.930 . S
H320 C307 0.931 . S
H321 C308 0.929 . S
H322 C316 0.929 . S
H323 C317 0.930 . S
C324 C325 1.387 . S
C324 H328 0.950 . S
C324 C333 1.390 . S
C325 C324 1.387 . S
C325 C327 1.387 1_554 S
H326 C333 0.950 . S
C327 C325 1.387 1_556 S
C327 C329 1.390 . S
C327 H331 0.950 . S
H328 C324 0.950 . S
C329 C327 1.390 . S
C329 C330 1.387 1_556 S
C329 H332 0.950 . S
C330 C329 1.387 1_554 S
C330 C333 1.387 . S
H331 C327 0.950 . S
H332 C329 0.950 . S
C333 C324 1.390 . S
C333 H326 0.950 . S
C333 C330 1.387 . S
C334 C335 1.387 1_556 S
C334 H338 0.950 . S
C334 C343 1.390 1_565 S
C335 C334 1.387 1_554 S
C335 C337 1.387 . S
H336 C343 0.950 . S
C337 C335 1.387 . S
C337 C339 1.390 1_565 S
C337 H341 0.950 . S
H338 C334 0.950 . S
C339 C337 1.390 1_545 S
C339 C340 1.387 . S
C339 H342 0.950 . S
C340 C339 1.387 . S
C340 C343 1.387 1_554 S
H341 C337 0.950 . S
H342 C339 0.950 . S
C343 C334 1.390 1_545 S
C343 H336 0.950 . S
C343 C340 1.387 1_556 S
C344 C345 1.387 . S
C344 H348 0.950 . S
C344 C353 1.390 1_655 S
C345 C344 1.387 . S
C345 C347 1.387 1_554 S
H346 C353 0.950 . S
C347 C345 1.387 1_556 S
C347 C349 1.390 1_655 S
C347 H351 0.950 . S
H348 C344 0.950 . S
C349 C347 1.390 1_455 S
C349 C350 1.387 1_556 S
C349 H352 0.950 . S
C350 C349 1.387 1_554 S
C350 C353 1.387 . S
H351 C347 0.950 . S
H352 C349 0.950 . S
C353 C344 1.390 1_455 S
C353 H346 0.950 . S
C353 C350 1.387 . S
C354 C355 1.387 . S
C354 H358 0.950 . S
C354 C363 1.390 . S
C355 C354 1.387 . S
C355 C357 1.387 . S
H356 C363 0.950 . S
C357 C355 1.387 . S
C357 C359 1.390 . S
C357 H361 0.950 . S
H358 C354 0.950 . S
C359 C357 1.390 . S
C359 C360 1.387 . S
C359 H362 0.950 . S
C360 C359 1.387 . S
C360 C363 1.387 . S
H361 C357 0.950 . S
H362 C359 0.950 . S
C363 C354 1.390 . S
C363 H356 0.950 . S
C363 C360 1.387 . S
C364 C365 1.387 . S
C364 H368 0.950 . S
C364 C373 1.390 . S
C365 C364 1.387 . S
C365 C367 1.387 . S
H366 C373 0.950 . S
C367 C365 1.387 . S
C367 C369 1.390 . S
C367 H371 0.950 . S
H368 C364 0.950 . S
C369 C367 1.390 . S
C369 C370 1.387 . S
C369 H372 0.950 . S
C370 C369 1.387 . S
C370 C373 1.387 . S
H371 C367 0.950 . S
H372 C369 0.950 . S
C373 C364 1.390 . S
C373 H366 0.950 . S
C373 C370 1.387 . S
C374 C375 1.387 . S
C374 H378 0.950 . S
C374 C383 1.390 . S
C375 C374 1.387 . S
C375 C377 1.387 . S
H376 C383 0.950 . S
C377 C375 1.387 . S
C377 C379 1.390 . S
C377 H381 0.950 . S
H378 C374 0.950 . S
C379 C377 1.390 . S
C379 C380 1.387 . S
C379 H382 0.950 . S
C380 C379 1.387 . S
C380 C383 1.387 . S
H381 C377 0.950 . S
H382 C379 0.950 . S
C383 C374 1.390 . S
C383 H376 0.950 . S
C383 C380 1.387 . S
C384 C385 1.387 . S
C384 H388 0.950 . S
C384 C393 1.390 . S
C385 C384 1.387 . S
C385 C387 1.387 . S
H386 C393 0.950 . S
C387 C385 1.387 . S
C387 C389 1.390 . S
C387 H391 0.950 . S
H388 C384 0.950 . S
C389 C387 1.390 . S
C389 C390 1.387 . S
C389 H392 0.950 . S
C390 C389 1.387 . S
C390 C393 1.387 . S
H391 C387 0.950 . S
H392 C389 0.950 . S
C393 C384 1.390 . S
C393 H386 0.950 . S
C393 C390 1.387 . S
C394 C395 1.387 . S
C394 H398 0.950 . S
C394 C403 1.390 . S
C395 C394 1.387 . S
C395 C397 1.387 . S
H396 C403 0.950 . S
C397 C395 1.387 . S
C397 C399 1.390 . S
C397 H401 0.950 . S
H398 C394 0.950 . S
C399 C397 1.390 . S
C399 C400 1.387 . S
C399 H402 0.950 . S
C400 C399 1.387 . S
C400 C403 1.387 . S
H401 C397 0.950 . S
H402 C399 0.950 . S
C403 C394 1.390 . S
C403 H396 0.950 . S
C403 C400 1.387 . S
C404 C405 1.387 . S
C404 H408 0.950 . S
C404 C413 1.390 . S
C405 C404 1.387 . S
C405 C407 1.387 . S
H406 C413 0.950 . S
C407 C405 1.387 . S
C407 C409 1.390 . S
C407 H411 0.950 . S
H408 C404 0.950 . S
C409 C407 1.390 . S
C409 C410 1.387 . S
C409 H412 0.950 . S
C410 C409 1.387 . S
C410 C413 1.387 . S
H411 C407 0.950 . S
H412 C409 0.950 . S
C413 C404 1.390 . S
C413 H406 0.950 . S
C413 C410 1.387 . S
C414 C415 1.387 . S
C414 H418 0.950 . S
C414 C423 1.390 . S
C415 C414 1.387 . S
C415 C417 1.387 . S
H416 C423 0.950 . S
C417 C415 1.387 . S
C417 C419 1.390 . S
C417 H421 0.950 . S
H418 C414 0.950 . S
C419 C417 1.390 . S
C419 C420 1.387 . S
C419 H422 0.950 . S
C420 C419 1.387 . S
C420 C423 1.387 . S
H421 C417 0.950 . S
H422 C419 0.950 . S
C423 C414 1.390 . S
C423 H416 0.950 . S
C423 C420 1.387 . S
C424 C425 1.387 . S
C424 H428 0.950 . S
C424 C433 1.390 . S
C425 C424 1.387 . S
C425 C427 1.387 . S
H426 C433 0.950 . S
C427 C425 1.387 . S
C427 C429 1.390 . S
C427 H431 0.950 . S
H428 C424 0.950 . S
C429 C427 1.390 . S
C429 C430 1.387 . S
C429 H432 0.950 . S
C430 C429 1.387 . S
C430 C433 1.387 . S
H431 C427 0.950 . S
H432 C429 0.950 . S
C433 C424 1.390 . S
C433 H426 0.950 . S
C433 C430 1.387 . S
C434 C435 1.387 . S
C434 H438 0.950 . S
C434 C443 1.390 . S
C435 C434 1.387 . S
C435 C437 1.387 . S
H436 C443 0.950 1_545 S
C437 C435 1.387 . S
C437 C439 1.390 . S
C437 H441 0.950 . S
H438 C434 0.950 . S
C439 C437 1.390 . S
C439 C440 1.387 . S
C439 H442 0.950 . S
C440 C439 1.387 . S
C440 C443 1.387 . S
H441 C437 0.950 . S
H442 C439 0.950 . S
C443 C434 1.390 . S
C443 H436 0.950 1_565 S
C443 C440 1.387 . S
C444 C445 1.387 . S
C444 H448 0.950 . S
C444 C453 1.390 . S
C445 C444 1.387 . S
C445 C447 1.387 . S
H446 C453 0.950 1_565 S
C447 C445 1.387 . S
C447 C449 1.390 . S
C447 H451 0.950 . S
H448 C444 0.950 . S
C449 C447 1.390 . S
C449 C450 1.387 . S
C449 H452 0.950 . S
C450 C449 1.387 . S
C450 C453 1.387 . S
H451 C447 0.950 . S
H452 C449 0.950 . S
C453 C444 1.390 . S
C453 H446 0.950 1_545 S
C453 C450 1.387 . S
C454 C455 1.387 . S
C454 H458 0.950 . S
C454 C463 1.390 . S
C455 C454 1.387 . S
C455 C457 1.387 . S
H456 C463 0.950 . S
C457 C455 1.387 . S
C457 C459 1.390 . S
C457 H461 0.950 . S
H458 C454 0.950 . S
C459 C457 1.390 . S
C459 C460 1.387 . S
C459 H462 0.950 . S
C460 C459 1.387 . S
C460 C463 1.387 . S
H461 C457 0.950 . S
H462 C459 0.950 . S
C463 C454 1.390 . S
C463 H456 0.950 . S
C463 C460 1.387 . S
C464 C465 1.387 . S
C464 H468 0.950 . S
C464 C473 1.390 . S
C465 C464 1.387 . S
C465 C467 1.387 . S
H466 C473 0.950 . S
C467 C465 1.387 . S
C467 C469 1.390 . S
C467 H471 0.950 . S
H468 C464 0.950 . S
C469 C467 1.390 . S
C469 C470 1.387 . S
C469 H472 0.950 . S
C470 C469 1.387 . S
C470 C473 1.387 . S
H471 C467 0.950 . S
H472 C469 0.950 . S
C473 C464 1.390 . S
C473 H466 0.950 . S
C473 C470 1.387 . S
C474 C475 1.387 . S
C474 H478 0.950 . S
C474 C483 1.390 . S
C475 C474 1.387 . S
C475 C477 1.387 . S
H476 C483 0.950 . S
C477 C475 1.387 . S
C477 C479 1.382 1_455 S
C477 H481 0.950 . S
H478 C474 0.950 . S
C479 C477 1.382 1_655 S
C479 C480 1.384 . S
C479 H482 0.961 . S
C480 C479 1.384 . S
C480 C483 1.387 1_655 S
H481 C477 0.950 . S
H482 C479 0.961 . S
C483 C474 1.390 . S
C483 H476 0.950 . S
C483 C480 1.387 1_455 S
C484 C485 1.387 . S
C484 H488 0.950 . S
C484 C493 1.390 . S
C485 C484 1.387 . S
C485 C487 1.387 . S
H486 C493 0.950 . S
C487 C485 1.387 . S
C487 C489 1.390 . S
C487 H491 0.950 . S
H488 C484 0.950 . S
C489 C487 1.390 . S
C489 C490 1.387 . S
C489 H492 0.950 . S
C490 C489 1.387 . S
C490 C493 1.387 . S
H491 C487 0.950 . S
H492 C489 0.950 . S
C493 C484 1.390 . S
C493 H486 0.950 . S
C493 C490 1.387 . S
C494 C495 1.387 . S
C494 H498 0.950 . S
C494 C503 1.390 1_565 S
C495 C494 1.387 . S
C495 C497 1.387 . S
H496 C503 0.950 . S
C497 C495 1.387 . S
C497 C499 1.390 1_565 S
C497 H501 0.950 . S
H498 C494 0.950 . S
C499 C497 1.390 1_545 S
C499 C500 1.387 . S
C499 H502 0.950 . S
C500 C499 1.387 . S
C500 C503 1.387 . S
H501 C497 0.950 . S
H502 C499 0.950 . S
C503 C494 1.390 1_545 S
C503 H496 0.950 . S
C503 C500 1.387 . S
C325 C75 1.188 . S
C330 C2 1.141 . S
C335 C39 1.197 . S
C340 C3 1.189 . S
C345 C38 1.206 . S
C350 C74 1.223 . S
C355 C182 1.241 . S
C360 C110 1.222 . S
C365 C147 1.147 . S
C370 C111 1.155 . S
C375 C146 1.148 . S
C380 C183 1.192 . S
C385 C218 1.163 . S
C390 C291 1.209 . S
C395 C219 1.101 . S
C400 C255 1.112 . S
C405 C254 1.230 . S
C410 C290 1.242 . S
C415 C4 1.413 . S
C420 C256 1.423 . S
C425 C50 1.403 . S
C430 C302 1.401 . S
C435 C230 1.370 . S
C440 C76 1.392 . S
C445 C158 1.355 . S
C450 C86 1.353 . S
C455 C14 1.368 1_655 S
C460 C194 1.374 . S
C465 C112 1.428 . S
C470 C40 1.426 . S
C475 C266 1.398 . S
C480 C184 1.419 . S
C485 C122 1.418 . S
C490 C292 1.440 . S
C495 C220 1.405 . S
C500 C148 1.402 . S
