# Generated by pormake.
# Topology wgn, (5)-cn, num edge types: 1
# Building blocks:
#     Node 0, Type 0, BuildingBlock: BEQFEK_clean_sbu_0, # of connection points: 5
#     Node 1, Type 0, BuildingBlock: BEQFEK_clean_sbu_0, # of connection points: 5
#     Node 2, Type 0, BuildingBlock: BEQFEK_clean_sbu_0, # of connection points: 5
#     Node 3, Type 0, BuildingBlock: BEQFEK_clean_sbu_0, # of connection points: 5
#     Node 4, Type 0, BuildingBlock: BEQFEK_clean_sbu_0, # of connection points: 5
#     Node 5, Type 0, BuildingBlock: BEQFEK_clean_sbu_0, # of connection points: 5
#     Node 6, Type 0, BuildingBlock: BEQFEK_clean_sbu_0, # of connection points: 5
#     Node 7, Type 0, BuildingBlock: BEQFEK_clean_sbu_0, # of connection points: 5
#     Node 8, Type 0, BuildingBlock: BEQFEK_clean_sbu_0, # of connection points: 5
#     Node 9, Type 0, BuildingBlock: BEQFEK_clean_sbu_0, # of connection points: 5
#     Node 10, Type 0, BuildingBlock: BEQFEK_clean_sbu_0, # of connection points: 5
#     Node 11, Type 0, BuildingBlock: BEQFEK_clean_sbu_0, # of connection points: 5
#     Node 12, Type 0, BuildingBlock: BEQFEK_clean_sbu_0, # of connection points: 5
#     Node 13, Type 0, BuildingBlock: BEQFEK_clean_sbu_0, # of connection points: 5
#     Node 14, Type 0, BuildingBlock: BEQFEK_clean_sbu_0, # of connection points: 5
#     Node 15, Type 0, BuildingBlock: BEQFEK_clean_sbu_0, # of connection points: 5
#     Node 16, Type 0, BuildingBlock: BEQFEK_clean_sbu_0, # of connection points: 5
#     Node 17, Type 0, BuildingBlock: BEQFEK_clean_sbu_0, # of connection points: 5
#     Node 18, Type 0, BuildingBlock: BEQFEK_clean_sbu_0, # of connection points: 5
#     Node 19, Type 0, BuildingBlock: BEQFEK_clean_sbu_0, # of connection points: 5
#     Node 20, Type 0, BuildingBlock: BEQFEK_clean_sbu_0, # of connection points: 5
#     Node 21, Type 0, BuildingBlock: BEQFEK_clean_sbu_0, # of connection points: 5
#     Node 22, Type 0, BuildingBlock: BEQFEK_clean_sbu_0, # of connection points: 5
#     Node 23, Type 0, BuildingBlock: BEQFEK_clean_sbu_0, # of connection points: 5
#     Node 24, Type 0, BuildingBlock: BEQFEK_clean_sbu_0, # of connection points: 5
#     Node 25, Type 0, BuildingBlock: BEQFEK_clean_sbu_0, # of connection points: 5
#     Node 26, Type 0, BuildingBlock: BEQFEK_clean_sbu_0, # of connection points: 5
#     Node 27, Type 0, BuildingBlock: BEQFEK_clean_sbu_0, # of connection points: 5
#     Node 28, Type 0, BuildingBlock: BEQFEK_clean_sbu_0, # of connection points: 5
#     Node 29, Type 0, BuildingBlock: BEQFEK_clean_sbu_0, # of connection points: 5
#     Node 30, Type 0, BuildingBlock: BEQFEK_clean_sbu_0, # of connection points: 5
#     Node 31, Type 0, BuildingBlock: BEQFEK_clean_sbu_0, # of connection points: 5
#     Edge 32, Type (0, 0), None
#     Edge 33, Type (0, 0), None
#     Edge 34, Type (0, 0), None
#     Edge 35, Type (0, 0), None
#     Edge 36, Type (0, 0), None
#     Edge 37, Type (0, 0), None
#     Edge 38, Type (0, 0), None
#     Edge 39, Type (0, 0), None
#     Edge 40, Type (0, 0), None
#     Edge 41, Type (0, 0), None
#     Edge 42, Type (0, 0), None
#     Edge 43, Type (0, 0), None
#     Edge 44, Type (0, 0), None
#     Edge 45, Type (0, 0), None
#     Edge 46, Type (0, 0), None
#     Edge 47, Type (0, 0), None
#     Edge 48, Type (0, 0), None
#     Edge 49, Type (0, 0), None
#     Edge 50, Type (0, 0), None
#     Edge 51, Type (0, 0), None
#     Edge 52, Type (0, 0), None
#     Edge 53, Type (0, 0), None
#     Edge 54, Type (0, 0), None
#     Edge 55, Type (0, 0), None
#     Edge 56, Type (0, 0), None
#     Edge 57, Type (0, 0), None
#     Edge 58, Type (0, 0), None
#     Edge 59, Type (0, 0), None
#     Edge 60, Type (0, 0), None
#     Edge 61, Type (0, 0), None
#     Edge 62, Type (0, 0), None
#     Edge 63, Type (0, 0), None
#     Edge 64, Type (0, 0), None
#     Edge 65, Type (0, 0), None
#     Edge 66, Type (0, 0), None
#     Edge 67, Type (0, 0), None
#     Edge 68, Type (0, 0), None
#     Edge 69, Type (0, 0), None
#     Edge 70, Type (0, 0), None
#     Edge 71, Type (0, 0), None
#     Edge 72, Type (0, 0), None
#     Edge 73, Type (0, 0), None
#     Edge 74, Type (0, 0), None
#     Edge 75, Type (0, 0), None
#     Edge 76, Type (0, 0), None
#     Edge 77, Type (0, 0), None
#     Edge 78, Type (0, 0), None
#     Edge 79, Type (0, 0), None
#     Edge 80, Type (0, 0), None
#     Edge 81, Type (0, 0), None
#     Edge 82, Type (0, 0), None
#     Edge 83, Type (0, 0), None
#     Edge 84, Type (0, 0), None
#     Edge 85, Type (0, 0), None
#     Edge 86, Type (0, 0), None
#     Edge 87, Type (0, 0), None
#     Edge 88, Type (0, 0), None
#     Edge 89, Type (0, 0), None
#     Edge 90, Type (0, 0), None
#     Edge 91, Type (0, 0), None
#     Edge 92, Type (0, 0), None
#     Edge 93, Type (0, 0), None
#     Edge 94, Type (0, 0), None
#     Edge 95, Type (0, 0), None
#     Edge 96, Type (0, 0), None
#     Edge 97, Type (0, 0), None
#     Edge 98, Type (0, 0), None
#     Edge 99, Type (0, 0), None
#     Edge 100, Type (0, 0), None
#     Edge 101, Type (0, 0), None
#     Edge 102, Type (0, 0), None
#     Edge 103, Type (0, 0), None
#     Edge 104, Type (0, 0), None
#     Edge 105, Type (0, 0), None
#     Edge 106, Type (0, 0), None
#     Edge 107, Type (0, 0), None
#     Edge 108, Type (0, 0), None
#     Edge 109, Type (0, 0), None
#     Edge 110, Type (0, 0), None
#     Edge 111, Type (0, 0), None
# Relax obj value: 0.134
# Max RMSD: 0.124
# Mean RMSD: 0.123
data_MOF--net-wgn--node1-BEQFEK_clean_sbu_0--edge1-none
_symmetry_space_group_name_H-M    P1
_symmetry_Int_Tables_number       1
_symmetry_cell_setting            triclinic
loop_
_symmetry_equiv_pos_as_xyz
'x, y, z'
_cell_length_a     14.872244
_cell_length_b     14.870879
_cell_length_c     85.695076
_cell_angle_alpha  89.999887
_cell_angle_beta   89.999812
_cell_angle_gamma 90.005903
loop_
_atom_site_label
_atom_site_type_symbol
_atom_site_fract_x
_atom_site_fract_y
_atom_site_fract_z
_atom_type_partial_charge
Co0 Co 0.29271 0.16013 0.3442 0.0
Co1 Co 0.28772 0.16905 0.3061 0.0
C2 C 0.21753 0.31691 0.32331 0.0
O3 O 0.24193 0.28116 0.33632 0.0
O4 O 0.21244 0.27123 0.31083 0.0
C5 C 0.29556 0.09534 0.37971 0.0
O6 O 0.22959 0.03722 0.37865 0.0
C7 C 0.27539 0.21095 0.27248 0.0
C8 C 0.40756 0.16054 0.26469 0.0
C9 C 0.33571 0.21334 0.2601 0.0
N10 N 0.31192 0.16222 0.28414 0.0
N11 N 0.39055 0.13161 0.27928 0.0
C12 C 0.18266 0.24977 0.27276 0.0
H13 H 0.14918 0.23725 0.2841 0.0
H14 H 0.14219 0.21815 0.26336 0.0
H15 H 0.18515 0.32269 0.27022 0.0
C16 C 0.26223 0.96552 0.33584 0.0
N17 N 0.2655 0.05361 0.33192 0.0
N18 N 0.25998 0.05948 0.31653 0.0
C19 C 0.25064 0.97641 0.31046 0.0
C20 C 0.2523 0.91426 0.32251 0.0
C21 C 0.28356 0.92848 0.35153 0.0
H22 H 0.22015 0.9227 0.35823 0.0
H23 H 0.31348 0.86034 0.35057 0.0
H24 H 0.33232 0.97267 0.35754 0.0
O25 O 0.41244 0.1889 0.33909 0.0
O26 O 0.4012 0.21157 0.31351 0.0
H27 H 0.31029 0.9483 0.28833 0.0
H28 H 0.20305 0.89481 0.29131 0.0
C29 C 0.24214 0.95726 0.29337 0.0
H30 H 0.20894 0.01438 0.28737 0.0
H31 H 0.43536 0.09573 0.28628 0.0
O32 O 0.31643 0.14475 0.368 0.0
C33 C 0.4432 0.2172 0.32627 0.0
Co34 Co 0.06314 0.04427 0.59422 0.0
Co35 Co 0.05427 0.03928 0.55611 0.0
C36 C 0.9066 0.9686 0.57331 0.0
O37 O 0.94228 -0.00689 0.58632 0.0
O38 O 0.95231 0.96362 0.56084 0.0
C39 C 0.12799 0.04719 0.62972 0.0
O40 O 0.18613 0.98126 0.62865 0.0
C41 C 0.01265 0.0269 0.52247 0.0
C42 C 0.06268 0.15929 0.51472 0.0
C43 C 0.01019 0.08725 0.5101 0.0
N44 N 0.06111 0.06359 0.53416 0.0
N45 N 0.0915 0.14235 0.52931 0.0
C46 C 0.97427 0.93397 0.52273 0.0
H47 H 0.98634 0.90067 0.5341 0.0
H48 H 0.00662 0.89356 0.5134 0.0
H49 H 0.90149 0.93603 0.52007 0.0
C50 C 0.25786 0.01462 0.58586 0.0
N51 N 0.16977 0.01754 0.58193 0.0
N52 N 0.16394 0.01198 0.56655 0.0
C53 C 0.24705 0.00292 0.56048 0.0
C54 C 0.30919 0.00485 0.57253 0.0
C55 C 0.2948 0.03595 0.60156 0.0
H56 H 0.30069 0.9725 0.60824 0.0
H57 H 0.36287 0.06604 0.6006 0.0
H58 H 0.25048 0.08457 0.60757 0.0
O59 O 0.03394 0.16388 0.5891 0.0
O60 O 0.0114 0.15263 0.56353 0.0
H61 H 0.27536 0.06234 0.53834 0.0
H62 H 0.32858 0.955 0.54134 0.0
C63 C 0.26622 -0.00575 0.54339 0.0
H64 H 0.20906 0.9611 0.53739 0.0
H65 H 0.12716 0.18726 0.53633 0.0
O66 O 0.07852 0.06803 0.61802 0.0
C67 C 0.00559 0.19458 0.57629 0.0
Co68 Co 0.17951 0.81536 0.8442 0.0
Co69 Co 0.18451 0.80644 0.8061 0.0
C70 C 0.25463 0.65855 0.82331 0.0
O71 O 0.23025 0.69431 0.83632 0.0
O72 O 0.25974 0.70423 0.81083 0.0
C73 C 0.17669 0.88015 0.87971 0.0
O74 O 0.24267 0.93825 0.87864 0.0
C75 C 0.1969 0.76453 0.77248 0.0
C76 C 0.06474 0.81493 0.76469 0.0
C77 C 0.1366 0.76213 0.7601 0.0
N78 N 0.16034 0.81327 0.78414 0.0
N79 N 0.08172 0.84388 0.77927 0.0
C80 C 0.28963 0.72571 0.77277 0.0
H81 H 0.32309 0.73825 0.78411 0.0
H82 H 0.33011 0.7573 0.76337 0.0
H83 H 0.28713 0.65278 0.77024 0.0
C84 C 0.21004 0.00995 0.83584 0.0
N85 N 0.20677 0.92186 0.83192 0.0
N86 N 0.21229 0.91599 0.81653 0.0
C87 C 0.22164 -0.00094 0.81046 0.0
C88 C 0.21998 0.06121 0.82251 0.0
C89 C 0.18868 0.04699 0.85153 0.0
H90 H 0.25208 0.05279 0.85823 0.0
H91 H 0.15875 0.11513 0.85056 0.0
H92 H 0.13992 0.0028 0.85753 0.0
O93 O 0.05977 0.78665 0.83908 0.0
O94 O 0.071 0.76398 0.81351 0.0
H95 H 0.16199 0.02715 0.78833 0.0
H96 H 0.26921 0.08067 0.79131 0.0
C97 C 0.23014 0.01821 0.79337 0.0
H98 H 0.26335 0.9611 0.78737 0.0
H99 H 0.03691 0.87976 0.78627 0.0
O100 O 0.15581 0.83074 0.868 0.0
C101 C 0.029 0.75837 0.82627 0.0
Co102 Co 0.40931 0.93123 0.09422 0.0
Co103 Co 0.41817 0.93621 0.05612 0.0
C104 C 0.56578 0.00705 0.07331 0.0
O105 O 0.53011 0.9825 0.08632 0.0
O106 O 0.52006 0.01199 0.06084 0.0
C107 C 0.34444 0.92827 0.12972 0.0
O108 O 0.28627 -0.00582 0.12865 0.0
C109 C 0.45971 0.94856 0.02247 0.0
C110 C 0.40976 0.81612 0.01473 0.0
C111 C 0.46217 0.8882 1.0101 0.0
N112 N 0.41132 0.91184 0.03416 0.0
N113 N 0.38099 0.83305 0.02932 0.0
C114 C 0.49794 0.04155 0.02272 0.0
H115 H 0.48606 0.07479 0.0341 0.0
H116 H 0.46532 0.08194 0.01341 0.0
H117 H 0.57066 0.03963 0.02 0.0
C118 C 0.21455 0.96061 0.08586 0.0
N119 N 0.30264 0.9578 0.08194 0.0
N120 N 0.30847 0.96338 0.06655 0.0
C121 C 0.22535 0.97235 0.06048 0.0
C122 C 0.16321 0.97034 0.07254 0.0
C123 C 0.17764 0.93927 0.10156 0.0
H124 H 0.1717 0.00273 0.10824 0.0
H125 H 0.10959 0.90912 0.10061 0.0
H126 H 0.222 0.8907 0.10758 0.0
O127 O 0.43865 0.81166 0.08911 0.0
O128 O 0.46116 0.8229 0.06353 0.0
H129 H 0.19694 0.91302 0.03834 0.0
H130 H 0.14386 0.02041 0.04135 0.0
C131 C 0.20618 0.98109 0.0434 0.0
H132 H 0.26337 0.01419 0.0374 0.0
H133 H 0.34539 0.78811 0.03635 0.0
O134 O 0.39394 0.90745 0.11802 0.0
C135 C 0.46702 0.78097 0.07629 0.0
Co136 Co 0.28843 0.82459 0.1764 0.0
Co137 Co 0.29652 0.8141 0.21406 0.0
C138 C 0.21422 0.66854 0.1971 0.0
O139 O 0.23343 0.70378 0.18376 0.0
O140 O 0.21696 0.71411 0.20962 0.0
C141 C 0.35165 0.87701 0.14456 0.0
O142 O 0.43102 0.84913 0.14917 0.0
C143 C 0.28344 0.77103 0.24754 0.0
C144 C 0.41614 0.81765 0.25572 0.0
C145 C 0.34193 0.76756 0.26014 0.0
N146 N 0.32323 0.81743 0.23591 0.0
N147 N 0.40226 0.8457 0.24098 0.0
C148 C 0.18942 0.73549 0.24695 0.0
H149 H 0.15483 0.75673 0.23611 0.0
H150 H 0.1512 0.76114 0.25715 0.0
H151 H 0.19018 0.66125 0.24784 0.0
C152 C 0.24802 0.01431 0.18472 0.0
N153 N 0.26182 0.92817 0.18914 0.0
N154 N 0.26808 0.92525 0.20447 0.0
C155 C 0.26085 0.00946 0.21019 0.0
C156 C 0.24933 0.06928 0.19782 0.0
C157 C 0.23862 0.04379 0.16813 0.0
H158 H 0.19009 -0.00043 0.162 0.0
H159 H 0.21503 0.11398 0.16732 0.0
H160 H 0.30488 0.03868 0.16227 0.0
O161 O 0.4117 0.78936 0.17945 0.0
O162 O 0.40539 0.76929 0.20516 0.0
H163 H 0.33422 0.04149 0.23086 0.0
H164 H 0.22489 0.09367 0.22978 0.0
C165 C 0.26331 0.03144 0.22723 0.0
H166 H 0.23501 0.97501 0.23412 0.0
H167 H 0.44887 0.88005 0.2341 0.0
O168 O 0.28282 0.86475 0.15337 0.0
C169 C 0.44419 0.76007 0.19213 0.0
Co170 Co 0.3991 0.0396 0.4264 0.0
Co171 Co 0.40956 0.04786 0.46405 0.0
C172 C 0.55518 0.96562 0.44711 0.0
O173 O 0.51992 0.98474 0.43377 0.0
O174 O 0.50963 0.96839 0.45963 0.0
C175 C 0.34682 0.10262 0.39455 0.0
O176 O 0.37481 0.182 0.39914 0.0
C177 C 0.45264 0.03476 0.49753 0.0
C178 C 0.40627 0.16755 0.50571 0.0
C179 C 0.45626 0.09328 0.51013 0.0
N180 N 0.40626 0.07459 0.48591 0.0
N181 N 0.37814 0.15368 0.49098 0.0
C182 C 0.48806 0.94069 0.49694 0.0
H183 H 0.46676 0.90612 0.4861 0.0
H184 H 0.46239 0.90249 0.50714 0.0
H185 H 0.56229 0.94137 0.49783 0.0
C186 C 0.20941 -0.00087 0.43472 0.0
N187 N 0.29555 0.01294 0.43914 0.0
N188 N 0.29844 0.01931 0.45447 0.0
C189 C 0.21423 0.01214 0.46019 0.0
C190 C 0.15442 0.00056 0.44782 0.0
C191 C 0.17996 -0.0104 0.41814 0.0
H192 H 0.22423 0.94107 0.41201 0.0
H193 H 0.1098 0.96593 0.41732 0.0
H194 H 0.18502 0.05584 0.41226 0.0
O195 O 0.43421 0.16292 0.42943 0.0
O196 O 0.45425 0.15677 0.45515 0.0
H197 H 0.18221 0.08572 0.48084 0.0
H198 H 0.12995 0.9764 0.47978 0.0
C199 C 0.19221 0.01477 0.47722 0.0
H200 H 0.24859 0.98649 0.48413 0.0
H201 H 0.34385 0.20033 0.48409 0.0
O202 O 0.35898 0.03384 0.40337 0.0
C203 C 0.46343 0.19553 0.44211 0.0
Co204 Co 0.18391 0.15081 0.6764 0.0
Co205 Co 0.17574 0.16128 0.71406 0.0
C206 C 0.25803 0.30687 0.69711 0.0
O207 O 0.23886 0.27163 0.68377 0.0
O208 O 0.25526 0.26132 0.70963 0.0
C209 C 0.12076 0.09845 0.64456 0.0
O210 O 0.04139 0.12638 0.64916 0.0
C211 C 0.18879 0.20436 0.74754 0.0
C212 C 0.0561 0.15773 0.75572 0.0
C213 C 0.13029 0.20783 0.76014 0.0
N214 N 0.14902 0.15795 0.73592 0.0
N215 N 0.06998 0.12967 0.74099 0.0
C216 C 0.28281 0.23991 0.74696 0.0
H217 H 0.31741 0.21866 0.73611 0.0
H218 H 0.32102 0.21426 0.75716 0.0
H219 H 0.28205 0.31414 0.74784 0.0
C220 C 0.22438 0.96111 0.68472 0.0
N221 N 0.21055 0.04725 0.68914 0.0
N222 N 0.20425 0.05016 0.70447 0.0
C223 C 0.21149 0.96595 0.71019 0.0
C224 C 0.22305 0.90613 0.69783 0.0
C225 C 0.23383 0.93163 0.66814 0.0
H226 H 0.28235 0.97588 0.66201 0.0
H227 H 0.25745 0.86146 0.66732 0.0
H228 H 0.16757 0.93672 0.66227 0.0
O229 O 0.06063 0.18599 0.67944 0.0
O230 O 0.06686 0.20604 0.70516 0.0
H231 H 0.13806 0.9339 0.73086 0.0
H232 H 0.24741 0.88173 0.72979 0.0
C233 C 0.20898 0.94396 0.72723 0.0
H234 H 0.23726 0.00038 0.73412 0.0
H235 H 0.02339 0.09532 0.7341 0.0
O236 O 0.18957 0.11067 0.65337 0.0
C237 C 0.02808 0.21525 0.69212 0.0
Co238 Co 0.07317 0.93592 0.9264 0.0
Co239 Co 0.06269 0.92767 0.96405 0.0
C240 C 0.91709 0.00991 0.9471 0.0
O241 O 0.95234 -0.00922 0.93376 0.0
O242 O 0.96263 0.00715 0.95962 0.0
C243 C 0.12543 0.87288 0.89454 0.0
O244 O 0.09744 0.7935 0.89913 0.0
C245 C 0.01962 0.94082 0.99752 0.0
C246 C 0.0659 0.808 1.00571 0.0
C247 C 0.01595 0.8823 1.01012 0.0
N248 N 0.06598 0.90096 0.9859 0.0
N249 N 0.09405 0.82185 0.99097 0.0
C250 C 0.98424 0.03489 0.99693 0.0
H251 H 0.00557 0.06945 0.98609 0.0
H252 H 0.00991 0.07309 1.00714 0.0
H253 H 0.91 0.03424 0.99781 0.0
C254 C 0.26285 0.97638 0.93472 0.0
N255 N 0.17672 0.96257 0.93913 0.0
N256 N 0.17382 0.95621 0.95446 0.0
C257 C 0.25803 0.96338 0.96018 0.0
C258 C 0.31784 0.97495 0.94782 0.0
C259 C 0.29231 0.98591 0.91813 0.0
H260 H 0.24805 0.03443 0.91201 0.0
H261 H 0.36247 0.00957 0.91731 0.0
H262 H 0.28724 0.91966 0.91226 0.0
O263 O 0.03805 0.8126 0.92943 0.0
O264 O 0.018 0.81876 0.95514 0.0
H265 H 0.29002 0.88979 0.98083 0.0
H266 H 0.34232 -0.0009 0.97978 0.0
C267 C 0.28005 0.96075 0.97722 0.0
H268 H 0.22367 -0.01095 0.98412 0.0
H269 H 0.12831 0.77518 0.98409 0.0
O270 O 0.11328 0.94167 0.90337 0.0
C271 C 0.00882 0.77999 0.94211 0.0
Co272 Co 0.71428 0.81456 0.72009 0.0
Co273 Co 0.60727 0.8239 0.68982 0.0
C274 C 0.73134 0.66832 0.6989 0.0
O275 O 0.77329 0.71465 0.70898 0.0
O276 O 0.66564 0.70193 0.69141 0.0
C277 C 0.82585 0.75742 0.74483 0.0
O278 O 0.8783 0.73095 0.73341 0.0
C279 C 0.60666 0.81612 0.65655 0.0
C280 C 0.46964 0.86065 0.65026 0.0
C281 C 0.551 0.83243 0.64411 0.0
N282 N 0.56075 0.83332 0.66964 0.0
N283 N 0.47866 0.85961 0.66589 0.0
C284 C 0.70492 0.79522 0.6559 0.0
H285 H 0.73393 0.78982 0.66778 0.0
H286 H 0.74008 0.8495 0.64943 0.0
H287 H 0.71589 0.73199 0.64932 0.0
C288 C 0.73679 0.01419 0.71126 0.0
N289 N 0.71393 0.92793 0.70826 0.0
N290 N 0.67454 0.92591 0.69452 0.0
C291 C 0.66857 0.0098 0.68854 0.0
C292 C 0.70656 0.06972 0.69895 0.0
C293 C 0.78781 0.04077 0.72558 0.0
H294 H 0.84475 -0.00647 0.72731 0.0
H295 H 0.81419 0.11032 0.7249 0.0
H296 H 0.74329 0.03332 0.73587 0.0
O297 O 0.59289 0.76078 0.72264 0.0
O298 O 0.51041 0.82643 0.70467 0.0
H299 H 0.5437 0.01376 0.67628 0.0
H300 H 0.61592 0.1066 0.6718 0.0
C301 C 0.61463 0.03365 0.67437 0.0
H302 H 0.64103 -0.00333 0.66412 0.0
H303 H 0.42948 0.87772 0.67397 0.0
O304 O 0.76111 0.81106 0.74193 0.0
C305 C 0.51715 0.77486 0.71636 0.0
Co306 Co 0.90984 0.96682 0.46993 0.0
Co307 Co 0.901 0.86007 0.43959 0.0
C308 C 0.05629 0.98418 0.44875 0.0
O309 O 0.00997 0.02584 0.45886 0.0
O310 O 0.0227 0.91867 0.44121 0.0
C311 C 0.96669 0.07831 0.49471 0.0
O312 O -0.00633 0.1307 0.48332 0.0
C313 C 0.90927 0.85969 0.4063 0.0
C314 C 0.86496 0.72261 0.39999 0.0
C315 C 0.89333 0.80394 0.39385 0.0
N316 N 0.89181 0.81379 0.41938 0.0
N317 N 0.86566 0.73167 0.41561 0.0
C318 C 0.93001 0.95799 0.40564 0.0
H319 H 0.93536 0.98701 0.41752 0.0
H320 H 0.87564 -0.00696 0.39918 0.0
H321 H -0.00681 0.9691 0.39905 0.0
C322 C 0.71024 -0.01136 0.46109 0.0
N323 N 0.79658 0.96619 0.45807 0.0
N324 N 0.79876 0.92693 0.44433 0.0
C325 C 0.71491 0.92076 0.43834 0.0
C326 C 0.65484 0.95836 0.44877 0.0
C327 C 0.68342 0.03922 0.47544 0.0
H328 H 0.73071 0.09603 0.47727 0.0
H329 H 0.61393 0.06573 0.47473 0.0
H330 H 0.69048 -0.00569 0.48568 0.0
O331 O 0.9634 0.84546 0.47253 0.0
O332 O 0.89921 0.7629 0.45439 0.0
H333 H 0.71113 0.79609 0.42602 0.0
H334 H 0.61838 0.86841 0.42152 0.0
C335 C 0.69128 0.86706 0.42413 0.0
H336 H 0.72844 0.89363 0.41392 0.0
H337 H 0.84746 0.68246 0.42369 0.0
O338 O 0.91301 0.01368 0.49177 0.0
C339 C 0.9499 0.76975 0.46619 0.0
Co340 Co 0.75805 0.16082 0.22012 0.0
Co341 Co 0.86515 0.15142 0.18986 0.0
C342 C 0.74105 0.30705 0.19892 0.0
O343 O 0.69905 0.26071 0.20899 0.0
O344 O 0.8068 0.27343 0.19144 0.0
C345 C 0.64644 0.218 0.24484 0.0
O346 O 0.59399 0.24443 0.23342 0.0
C347 C 0.86582 0.15914 0.1566 0.0
C348 C 0.00285 0.1146 0.15031 0.0
C349 C 0.92149 0.14279 0.14416 0.0
N350 N 0.91173 0.14198 0.16968 0.0
N351 N -0.00618 0.11569 0.16594 0.0
C352 C 0.76756 0.18004 0.15594 0.0
H353 H 0.73854 0.18544 0.16782 0.0
H354 H 0.73241 0.12575 0.14947 0.0
H355 H 0.7566 0.24327 0.14936 0.0
C356 C 0.73547 0.96119 0.21128 0.0
N357 N 0.75838 0.04744 0.20828 0.0
N358 N 0.79782 0.04945 0.19455 0.0
C359 C 0.80377 0.96556 0.18856 0.0
C360 C 0.76571 0.90565 0.19897 0.0
C361 C 0.68436 0.93464 0.22559 0.0
H362 H 0.62736 0.98183 0.2273 0.0
H363 H 0.65803 0.86506 0.22492 0.0
H364 H 0.72879 0.94218 0.23589 0.0
O365 O 0.87943 0.21464 0.22267 0.0
O366 O 0.96195 0.14879 0.20472 0.0
H367 H 0.92868 0.96157 0.17632 0.0
H368 H 0.85648 0.86872 0.17184 0.0
C369 C 0.85776 0.94168 0.1744 0.0
H370 H 0.83139 0.97863 0.16415 0.0
H371 H 0.043 0.0976 0.17403 0.0
O372 O 0.71119 0.16437 0.24195 0.0
C373 C 0.95519 0.20048 0.21639 0.0
Co374 Co 0.56243 0.00867 0.96993 0.0
Co375 Co 0.57126 0.11546 0.93959 0.0
C376 C 0.41598 -0.00866 0.94875 0.0
O377 O 0.4623 0.94965 0.95886 0.0
O378 O 0.44956 0.05686 0.94121 0.0
C379 C 0.50558 0.89716 0.99471 0.0
O380 O 0.47855 0.84479 0.98332 0.0
C381 C 0.563 0.11588 0.9063 0.0
C382 C 0.60729 0.25297 0.89999 0.0
C383 C 0.57893 0.17163 0.89386 0.0
N384 N 0.58045 0.16177 0.91938 0.0
N385 N 0.60659 0.2439 0.91562 0.0
C386 C 0.54228 0.01757 0.90565 0.0
H387 H 0.53693 -0.01146 0.91753 0.0
H388 H 0.59666 0.98254 0.89918 0.0
H389 H 0.4791 0.00646 0.89905 0.0
C390 C 0.76203 0.98687 0.96108 0.0
N391 N 0.67568 0.00931 0.95807 0.0
N392 N 0.6735 0.04859 0.94433 0.0
C393 C 0.75735 0.05477 0.93833 0.0
C394 C 0.81742 0.01716 0.94876 0.0
C395 C 0.78885 0.93628 0.97543 0.0
H396 H 0.74155 0.87949 0.97726 0.0
H397 H 0.85834 0.90976 0.97472 0.0
H398 H 0.78182 0.9812 0.98568 0.0
O399 O 0.50884 0.13002 0.97253 0.0
O400 O 0.57308 0.2126 0.95439 0.0
H401 H 0.76112 0.17945 0.92601 0.0
H402 H 0.85389 0.10714 0.92152 0.0
C403 C 0.78098 0.10849 0.92413 0.0
H404 H 0.74382 0.08193 0.91391 0.0
H405 H 0.62477 0.2931 0.9237 0.0
O406 O 0.55927 0.96179 0.99176 0.0
C407 C 0.52236 0.20574 0.96619 0.0
Co408 Co 0.71592 0.16954 0.80017 0.0
Co409 Co 0.61856 0.16029 0.83174 0.0
C410 C 0.73539 0.31661 0.82158 0.0
O411 O 0.77249 0.27209 0.81075 0.0
O412 O 0.67416 0.28208 0.82999 0.0
C413 C 0.83015 0.22619 0.77566 0.0
O414 O 0.88175 0.25226 0.78722 0.0
C415 C 0.6157 0.17292 0.86507 0.0
C416 C 0.48345 0.11583 0.87134 0.0
C417 C 0.56147 0.15216 0.8775 0.0
N418 N 0.57238 0.15002 0.85197 0.0
N419 N 0.49287 0.11659 0.85572 0.0
C420 C 0.71042 0.206 0.86577 0.0
H421 H 0.74304 0.20207 0.85415 0.0
H422 H 0.74919 0.16523 0.87429 0.0
H423 H 0.71062 0.2763 0.87004 0.0
C424 C 0.73939 0.97109 0.80914 0.0
N425 N 0.72064 0.05785 0.81246 0.0
N426 N 0.6885 0.06091 0.82676 0.0
C427 C 0.68475 0.97739 0.83293 0.0
C428 C 0.71464 0.91662 0.82191 0.0
C429 C 0.77925 0.94266 0.79391 0.0
H430 H 0.83344 -0.00972 0.79058 0.0
H431 H 0.80697 0.87354 0.79437 0.0
H432 H 0.72671 0.94736 0.78478 0.0
O433 O 0.59262 0.21841 0.79783 0.0
O434 O 0.52007 0.1541 0.81725 0.0
H435 H 0.56611 0.96468 0.84675 0.0
H436 H 0.6508 0.88438 0.85168 0.0
C437 C 0.63954 0.95486 0.84806 0.0
H438 H 0.66495 -0.0004 0.85739 0.0
H439 H 0.44571 0.09339 0.84765 0.0
O440 O 0.76424 0.17355 0.77838 0.0
C441 C 0.52029 0.20271 0.80513 0.0
Co442 Co 0.55389 0.96651 0.55012 0.0
Co443 Co 0.56198 0.87139 0.58196 0.0
C444 C 0.40672 -0.01128 0.57158 0.0
O445 O 0.45124 0.02391 0.56056 0.0
O446 O 0.44097 0.92844 0.58023 0.0
C447 C 0.49872 0.08083 0.52553 0.0
O448 O 0.47334 0.13299 0.53706 0.0
C449 C 0.54968 0.86936 0.61533 0.0
C450 C 0.60682 0.73711 0.6216 0.0
C451 C 0.57051 0.81513 0.62775 0.0
N452 N 0.57248 0.82597 0.60224 0.0
N453 N 0.60593 0.74649 0.60598 0.0
C454 C 0.51647 0.96404 0.61603 0.0
H455 H 0.52073 -0.00323 0.60443 0.0
H456 H 0.55691 0.00278 0.6246 0.0
H457 H 0.44604 0.96407 0.62023 0.0
C458 C 0.7525 -0.01124 0.55901 0.0
N459 N 0.66563 0.97079 0.56238 0.0
N460 N 0.66245 0.93935 0.57673 0.0
C461 C 0.74599 0.9354 0.58288 0.0
C462 C 0.80692 0.96432 0.5718 0.0
C463 C 0.78115 0.02741 0.5437 0.0
H464 H 0.73247 0.07988 0.54002 0.0
H465 H 0.8495 0.05694 0.54424 0.0
H466 H 0.77875 0.9735 0.5348 0.0
O467 O 0.50475 0.8434 0.54783 0.0
O468 O 0.56507 0.77154 0.56775 0.0
H469 H 0.75842 0.8178 0.59697 0.0
H470 H 0.83864 0.90281 0.60176 0.0
C471 C 0.76823 0.89133 0.59812 0.0
H472 H 0.72334 0.91744 0.60738 0.0
H473 H 0.62901 0.69927 0.59791 0.0
O474 O 0.5505 0.01431 0.52829 0.0
C475 C 0.51854 0.77153 0.55538 0.0
Co476 Co 0.75628 0.80598 0.30018 0.0
Co477 Co 0.85373 0.81527 0.33173 0.0
C478 C 0.73689 0.65892 0.32158 0.0
O479 O 0.69972 0.70345 0.31076 0.0
O480 O 0.79816 0.69345 0.32999 0.0
C481 C 0.64204 0.74925 0.27567 0.0
O482 O 0.59045 0.72318 0.28723 0.0
C483 C 0.85659 0.80265 0.36506 0.0
C484 C -0.01115 0.85972 0.37133 0.0
C485 C 0.91081 0.82341 0.37749 0.0
N486 N 0.89993 0.82554 0.35197 0.0
N487 N 0.97944 0.85896 0.35571 0.0
C488 C 0.76186 0.76959 0.36576 0.0
H489 H 0.72926 0.77352 0.35415 0.0
H490 H 0.7231 0.81036 0.37428 0.0
H491 H 0.76166 0.69928 0.37003 0.0
C492 C 0.73274 0.00442 0.30914 0.0
N493 N 0.75156 0.91767 0.31246 0.0
N494 N 0.78375 0.91463 0.32676 0.0
C495 C 0.7875 -0.00185 0.33293 0.0
C496 C 0.75753 0.0589 0.32191 0.0
C497 C 0.69275 0.03283 0.29392 0.0
H498 H 0.63838 0.98531 0.29063 0.0
H499 H 0.6652 0.10201 0.29438 0.0
H500 H 0.74514 0.02789 0.28478 0.0
O501 O 0.87957 0.75711 0.29783 0.0
O502 O 0.95218 0.82151 0.31723 0.0
H503 H 0.90622 0.01084 0.34673 0.0
H504 H 0.82159 0.0912 0.35167 0.0
C505 C 0.8328 0.0207 0.34805 0.0
H506 H 0.8074 0.976 0.35739 0.0
H507 H 0.02661 0.88215 0.34764 0.0
O508 O 0.70793 0.80193 0.27839 0.0
C509 C 0.95193 0.77284 0.30512 0.0
Co510 Co 0.91849 0.00909 0.05012 0.0
Co511 Co 0.91054 0.10385 0.082 0.0
C512 C 0.06568 0.98651 0.07159 0.0
O513 O 0.02117 0.95161 0.06055 0.0
O514 O 0.03144 0.04663 0.08027 0.0
C515 C 0.97349 0.89476 0.02553 0.0
O516 O -0.00124 0.84253 0.03705 0.0
C517 C 0.92282 0.10581 0.11538 0.0
C518 C 0.86562 0.23803 0.12164 0.0
C519 C 0.90197 0.16004 0.1278 0.0
N520 N 0.90001 0.14917 0.10228 0.0
N521 N 0.86652 0.22864 0.10603 0.0
C522 C 0.95608 0.01115 0.11608 0.0
H523 H 0.95179 0.97837 0.10449 0.0
H524 H 0.91569 0.97241 0.12466 0.0
H525 H 0.02653 0.01115 0.12028 0.0
C526 C 0.71986 0.987 0.059 0.0
N527 N 0.80675 0.00483 0.06238 0.0
N528 N 0.80996 0.03614 0.07674 0.0
C529 C 0.72642 0.0401 0.08289 0.0
C530 C 0.66545 0.01135 0.0718 0.0
C531 C 0.69117 0.94859 0.04368 0.0
H532 H 0.74002 0.89641 0.03994 0.0
H533 H 0.62295 0.91877 0.04423 0.0
H534 H 0.69319 0.00274 0.03482 0.0
O535 O 0.96762 0.13219 0.04784 0.0
O536 O 0.90787 0.20387 0.06783 0.0
H537 H 0.71396 0.1575 0.09703 0.0
H538 H 0.63384 0.07236 0.1018 0.0
C539 C 0.70422 0.08395 0.09815 0.0
H540 H 0.74918 0.05775 0.10739 0.0
H541 H 0.84344 0.27585 0.09796 0.0
O542 O 0.92182 0.96136 0.02828 0.0
C543 C 0.95409 0.20396 0.05543 0.0
Co544 Co 0.79289 0.65968 0.84426 0.0
Co545 Co 0.78756 0.66866 0.80616 0.0
C546 C 0.71857 0.81696 0.8234 0.0
O547 O 0.74284 0.78106 0.8364 0.0
O548 O 0.71314 0.77136 0.81092 0.0
C549 C 0.7955 0.59486 0.87977 0.0
O550 O 0.72935 0.53695 0.87871 0.0
C551 C 0.77464 0.71085 0.77257 0.0
C552 C 0.90649 0.66016 0.76468 0.0
C553 C 0.83471 0.71325 0.76016 0.0
N554 N 0.81125 0.6618 0.78419 0.0
N555 N 0.88968 0.63101 0.77926 0.0
C556 C 0.68215 0.75021 0.77296 0.0
H557 H 0.64861 0.73691 0.78427 0.0
H558 H 0.64147 0.7197 0.76347 0.0
H559 H 0.68512 0.82333 0.77062 0.0
C560 C 0.76118 0.46533 0.8359 0.0
N561 N 0.76474 0.55341 0.83198 0.0
N562 N 0.75912 0.55934 0.81659 0.0
C563 C 0.74946 0.47633 0.81052 0.0
C564 C 0.75091 0.41418 0.82257 0.0
C565 C 0.7828 0.42815 0.85157 0.0
H566 H 0.71952 0.4224 0.85831 0.0
H567 H 0.81261 0.35998 0.85057 0.0
H568 H 0.83174 0.47224 0.85755 0.0
O569 O 0.9128 0.6875 0.8391 0.0
O570 O 0.90145 0.71026 0.81353 0.0
H571 H 0.8094 0.4487 0.78839 0.0
H572 H 0.70248 0.3945 0.79135 0.0
C573 C 0.74117 0.45719 0.79343 0.0
H574 H 0.70766 0.51415 0.78743 0.0
H575 H 0.93452 0.5949 0.78622 0.0
O576 O 0.81653 0.64419 0.86806 0.0
C577 C 0.94365 0.71551 0.82627 0.0
Co578 Co 0.56442 0.5445 0.09428 0.0
Co579 Co 0.55521 0.539 0.05618 0.0
C580 C 0.40659 0.47109 0.07345 0.0
O581 O 0.44272 0.49525 0.08644 0.0
O582 O 0.45209 0.46525 0.06097 0.0
C583 C 0.62931 0.54693 0.1298 0.0
O584 O 0.68719 0.48077 0.12873 0.0
C585 C 0.51289 0.52608 0.02259 0.0
C586 C 0.56411 0.65772 0.01469 0.0
C587 C 0.51072 0.58613 1.01017 0.0
N588 N 0.56207 0.56255 0.0342 0.0
N589 N 0.59317 0.64085 0.02927 0.0
C590 C 0.47324 0.4337 0.02298 0.0
H591 H 0.48582 0.40037 0.03433 0.0
H592 H 0.50415 0.39273 0.01357 0.0
H593 H 0.40026 0.4368 0.02051 0.0
C594 C 0.75845 0.51197 0.0859 0.0
N595 N 0.67037 0.51563 0.08199 0.0
N596 N 0.66434 0.50992 0.06661 0.0
C597 C 0.74729 0.50009 0.06052 0.0
C598 C 0.80948 0.50159 0.07256 0.0
C599 C 0.79574 0.53391 0.10155 0.0
H600 H 0.80161 0.47075 0.10831 0.0
H601 H 0.86387 0.56378 0.10051 0.0
H602 H 0.75168 0.58291 0.10752 0.0
O603 O 0.53758 0.66459 0.08912 0.0
O604 O 0.51446 0.65319 0.06356 0.0
H605 H 0.77479 0.56018 0.0384 0.0
H606 H 0.82905 0.45327 0.04133 0.0
C607 C 0.76636 0.49191 0.04343 0.0
H608 H 0.70939 0.4584 0.03743 0.0
H609 H 0.62946 0.68559 0.03622 0.0
O610 O 0.57999 0.56801 0.11809 0.0
C611 C 0.50971 0.69555 0.07629 0.0
Co612 Co 0.67932 0.31585 0.34426 0.0
Co613 Co 0.68465 0.30689 0.30616 0.0
C614 C 0.75359 0.15856 0.3234 0.0
O615 O 0.72934 0.19446 0.33641 0.0
O616 O 0.75903 0.20416 0.31092 0.0
C617 C 0.67672 0.38066 0.37978 0.0
O618 O 0.74289 0.43855 0.37872 0.0
C619 C 0.69762 0.26466 0.27258 0.0
C620 C 0.56579 0.31535 0.26468 0.0
C621 C 0.63757 0.26223 0.26017 0.0
N622 N 0.661 0.31374 0.28419 0.0
N623 N 0.58259 0.34454 0.27926 0.0
C624 C 0.79009 0.22526 0.27298 0.0
H625 H 0.82367 0.23872 0.28428 0.0
H626 H 0.83075 0.25558 0.26347 0.0
H627 H 0.78707 0.1521 0.27068 0.0
C628 C 0.7111 0.5102 0.3359 0.0
N629 N 0.70751 0.42212 0.33199 0.0
N630 N 0.71313 0.4162 0.3166 0.0
C631 C 0.72282 0.49921 0.31052 0.0
C632 C 0.72138 0.56135 0.32257 0.0
C633 C 0.68947 0.54738 0.35158 0.0
H634 H 0.75275 0.55313 0.35831 0.0
H635 H 0.65967 0.61556 0.35057 0.0
H636 H 0.64052 0.5033 0.35756 0.0
O637 O 0.5594 0.28807 0.33911 0.0
O638 O 0.57075 0.26533 0.31353 0.0
H639 H 0.66286 0.52681 0.2884 0.0
H640 H 0.76976 0.58105 0.29135 0.0
C641 C 0.73109 0.51835 0.29343 0.0
H642 H 0.76461 0.4614 0.28743 0.0
H643 H 0.53773 0.38067 0.28622 0.0
O644 O 0.65568 0.33134 0.36806 0.0
C645 C 0.52854 0.26008 0.32628 0.0
Co646 Co 0.90786 0.43096 0.59427 0.0
Co647 Co 0.91701 0.43642 0.55617 0.0
C648 C 0.06555 0.50459 0.57343 0.0
O649 O 0.02948 0.48041 0.58643 0.0
O650 O 0.02003 0.51033 0.56095 0.0
C651 C 0.843 0.42849 0.62979 0.0
O652 O 0.78511 0.49464 0.62872 0.0
C653 C 0.9593 0.44933 0.52258 0.0
C654 C 0.90819 0.31764 0.51468 0.0
C655 C 0.96152 0.38927 0.51016 0.0
N656 N 0.91015 0.41282 0.53419 0.0
N657 N 0.87912 0.33449 0.52926 0.0
C658 C -0.00111 0.54173 0.52297 0.0
H659 H 0.98613 0.57512 0.53431 0.0
H660 H 0.96809 0.58263 0.51354 0.0
H661 H 0.07191 0.53865 0.52053 0.0
C662 C 0.71375 0.46329 0.58589 0.0
N663 N 0.80183 0.45966 0.58199 0.0
N664 N 0.80783 0.46533 0.5666 0.0
C665 C 0.72487 0.47512 0.56051 0.0
C666 C 0.66269 0.47362 0.57256 0.0
C667 C 0.67649 0.44143 0.60155 0.0
H668 H 0.67065 0.50463 0.60831 0.0
H669 H 0.60835 0.41158 0.60053 0.0
H670 H 0.72056 0.39245 0.60752 0.0
O671 O 0.93494 0.31091 0.58911 0.0
O672 O 0.95797 0.3223 0.56355 0.0
H673 H 0.69732 0.41508 0.5384 0.0
H674 H 0.6431 0.522 0.54133 0.0
C675 C 0.70578 0.48334 0.54342 0.0
H676 H 0.76275 0.51684 0.53742 0.0
H677 H 0.84287 0.28974 0.53622 0.0
O678 O 0.89232 0.40742 0.61808 0.0
C679 C 0.96284 0.27998 0.57628 0.0
Co680 Co 0.78739 0.32557 0.67653 0.0
Co681 Co 0.79649 0.31526 0.71419 0.0
C682 C 0.71408 0.16938 0.69729 0.0
O683 O 0.73277 0.20466 0.68393 0.0
O684 O 0.71735 0.21486 0.70981 0.0
C685 C 0.85019 0.37729 0.64463 0.0
O686 O 0.92944 0.34873 0.64918 0.0
C687 C 0.78382 0.27211 0.74766 0.0
C688 C 0.9164 0.31913 0.75584 0.0
C689 C 0.84238 0.26878 0.76026 0.0
N690 N 0.8234 0.3187 0.73604 0.0
N691 N 0.90237 0.3472 0.7411 0.0
C692 C 0.6899 0.23633 0.74709 0.0
H693 H 0.65509 0.25779 0.73628 0.0
H694 H 0.65175 0.26155 0.75733 0.0
H695 H 0.69089 0.16207 0.74791 0.0
C696 C 0.74642 0.51518 0.68486 0.0
N697 N 0.76066 0.42909 0.68927 0.0
N698 N 0.76727 0.42623 0.7046 0.0
C699 C 0.7598 0.51042 0.71032 0.0
C700 C 0.74772 0.57017 0.69796 0.0
C701 C 0.73674 0.54461 0.66828 0.0
H702 H 0.68819 0.50029 0.66217 0.0
H703 H 0.71305 0.61478 0.66747 0.0
H704 H 0.80292 0.53955 0.66238 0.0
O705 O 0.91076 0.29069 0.67951 0.0
O706 O 0.90542 0.27092 0.70523 0.0
H707 H 0.83362 0.54258 0.73094 0.0
H708 H 0.72419 0.59464 0.72993 0.0
C709 C 0.76264 0.53245 0.72736 0.0
H710 H 0.73457 0.476 0.73427 0.0
H711 H 0.94883 0.38172 0.73422 0.0
O712 O 0.78149 0.36564 0.6535 0.0
C713 C 0.94382 0.26173 0.69216 0.0
Co714 Co 0.89854 0.53925 0.9265 0.0
Co715 Co 0.90883 0.54832 0.96416 0.0
C716 C 0.05471 0.46592 0.94726 0.0
O717 O 0.01941 0.48459 0.9339 0.0
O718 O 0.00924 0.46918 0.95979 0.0
C719 C 0.84673 0.60207 0.89461 0.0
O720 O 0.87518 0.68136 0.89916 0.0
C721 C 0.95184 0.53574 0.99765 0.0
C722 C 0.90455 0.66824 1.00582 0.0
C723 C 0.95496 0.59429 1.01026 0.0
N724 N 0.90534 0.57526 0.98602 0.0
N725 N 0.87668 0.65419 0.99108 0.0
C726 C 0.98765 0.44182 0.9971 0.0
H727 H 0.96661 0.40707 0.98626 0.0
H728 H 0.96203 0.4036 1.00731 0.0
H729 H 0.06187 0.44282 0.99801 0.0
C730 C 0.70892 0.49839 0.93483 0.0
N731 N 0.79501 0.51255 0.93925 0.0
N732 N 0.79787 0.51913 0.95457 0.0
C733 C 0.71367 0.51173 0.96029 0.0
C734 C 0.65391 0.49978 0.94793 0.0
C735 C 0.67951 0.48871 0.91824 0.0
H736 H 0.72383 0.44016 0.91214 0.0
H737 H 0.60936 0.465 0.91743 0.0
H738 H 0.68457 0.5549 0.91235 0.0
O739 O 0.93345 0.66263 0.92948 0.0
O740 O 0.95318 0.65727 0.95521 0.0
H741 H 0.68146 0.58548 0.98091 0.0
H742 H 0.62948 0.476 0.9799 0.0
C743 C 0.69164 0.51451 0.97733 0.0
H744 H 0.74809 0.48647 0.98424 0.0
H745 H 0.84215 0.7006 0.98418 0.0
O746 O 0.85847 0.53335 0.90347 0.0
C747 C 0.96239 0.69569 0.94214 0.0
Co748 Co 0.68493 0.64978 0.17655 0.0
Co749 Co 0.67576 0.66008 0.21421 0.0
C750 C 0.75816 0.80599 0.19731 0.0
O751 O 0.73952 0.77071 0.18395 0.0
O752 O 0.75487 0.76051 0.20984 0.0
C753 C 0.62214 0.59812 0.14464 0.0
O754 O 0.5429 0.62673 0.14919 0.0
C755 C 0.6884 0.70327 0.24768 0.0
C756 C 0.55583 0.65624 0.25585 0.0
C757 C 0.62984 0.70662 0.26028 0.0
N758 N 0.64884 0.65665 0.23606 0.0
N759 N 0.56988 0.62814 0.24112 0.0
C760 C 0.78231 0.73909 0.24711 0.0
H761 H 0.81716 0.71755 0.2363 0.0
H762 H 0.82045 0.71396 0.25736 0.0
H763 H 0.78129 0.81335 0.2479 0.0
C764 C 0.72595 0.46018 0.18488 0.0
N765 N 0.71168 0.54626 0.18929 0.0
N766 N 0.70505 0.54912 0.20462 0.0
C767 C 0.71255 0.46494 0.21034 0.0
C768 C 0.72467 0.40519 0.19798 0.0
C769 C 0.73563 0.43074 0.1683 0.0
H770 H 0.78419 0.47506 0.16219 0.0
H771 H 0.75932 0.36057 0.16749 0.0
H772 H 0.66946 0.43582 0.1624 0.0
O773 O 0.56155 0.68463 0.17952 0.0
O774 O 0.56682 0.70439 0.20525 0.0
H775 H 0.6387 0.43278 0.23096 0.0
H776 H 0.74813 0.38073 0.22996 0.0
C777 C 0.70969 0.44291 0.22738 0.0
H778 H 0.73774 0.49936 0.23429 0.0
H779 H 0.52343 0.59359 0.23424 0.0
O780 O 0.69083 0.60971 0.15352 0.0
C781 C 0.52845 0.71358 0.19217 0.0
Co782 Co 0.57369 0.43628 0.4265 0.0
Co783 Co 0.56338 0.42723 0.46416 0.0
C784 C 0.4175 0.5096 0.44726 0.0
O785 O 0.45281 0.49092 0.4339 0.0
O786 O 0.46298 0.50636 0.45978 0.0
C787 C 0.6255 0.37345 0.39461 0.0
O788 O 0.59704 0.29417 0.39917 0.0
C789 C 0.52035 0.43982 0.49765 0.0
C790 C 0.56759 0.30731 0.50582 0.0
C791 C 0.51718 0.38127 0.51025 0.0
N792 N 0.56686 0.4003 0.48602 0.0
N793 N 0.5955 0.32136 0.49108 0.0
C794 C 0.48454 0.53375 0.4971 0.0
H795 H 0.50563 0.5685 0.48626 0.0
H796 H 0.51013 0.57196 0.5073 0.0
H797 H 0.41033 0.53275 0.498 0.0
C798 C 0.76329 0.47715 0.43483 0.0
N799 N 0.67721 0.463 0.43925 0.0
N800 N 0.67435 0.45641 0.45457 0.0
C801 C 0.75854 0.46381 0.46029 0.0
C802 C 0.8183 0.47576 0.44793 0.0
C803 C 0.79271 0.48685 0.41825 0.0
H804 H 0.74837 0.53538 0.41214 0.0
H805 H 0.86285 0.51058 0.41743 0.0
H806 H 0.78766 0.42066 0.41235 0.0
O807 O 0.53879 0.31289 0.42948 0.0
O808 O 0.51904 0.31827 0.45521 0.0
H809 H 0.79076 0.39003 0.48091 0.0
H810 H 0.84274 0.49951 0.4799 0.0
C811 C 0.78058 0.46101 0.47733 0.0
H812 H 0.72413 0.48905 0.48424 0.0
H813 H 0.63003 0.27494 0.48418 0.0
O814 O 0.61376 0.44217 0.40347 0.0
C815 C 0.50985 0.27984 0.44214 0.0
Co816 Co 0.21543 0.31391 0.21995 0.0
Co817 Co 0.10865 0.32259 0.18959 0.0
C818 C 0.23285 0.16741 0.19876 0.0
O819 O 0.2744 0.21373 0.20889 0.0
O820 O 0.16739 0.20097 0.1912 0.0
C821 C 0.32691 0.25703 0.24472 0.0
O822 O 0.37928 0.23008 0.23333 0.0
C823 C 0.10828 0.31435 0.15629 0.0
C824 C 0.97118 0.35857 0.14999 0.0
C825 C 0.0525 0.33025 0.14385 0.0
N826 N 0.0624 0.33177 0.16937 0.0
N827 N 0.98027 0.35786 0.16562 0.0
C828 C 0.20659 0.29371 0.15563 0.0
H829 H 0.23564 0.28841 0.16751 0.0
H830 H 0.24158 0.34811 0.14916 0.0
H831 H 0.21773 0.23052 0.14904 0.0
C832 C 0.23722 0.51349 0.21109 0.0
N833 N 0.21473 0.42714 0.20808 0.0
N834 N 0.1754 0.42493 0.19434 0.0
C835 C 0.16924 0.50878 0.18835 0.0
C836 C 0.20692 0.56887 0.19877 0.0
C837 C 0.28793 0.54032 0.22543 0.0
H838 H 0.34483 0.49312 0.22722 0.0
H839 H 0.31431 0.60987 0.22472 0.0
H840 H 0.24316 0.5331 0.23569 0.0
O841 O 0.09408 0.26043 0.22258 0.0
O842 O 0.01142 0.3241 0.20438 0.0
H843 H 0.04461 0.51248 0.17602 0.0
H844 H 0.11689 0.60531 0.17154 0.0
C845 C 0.11556 0.53239 0.17414 0.0
H846 H 0.14217 0.49525 0.16392 0.0
H847 H 0.93108 0.37601 0.1737 0.0
O848 O 0.26233 0.31078 0.24179 0.0
C849 C 0.01836 0.27384 0.21624 0.0
Co850 Co 0.40948 0.46603 0.97006 0.0
Co851 Co 0.40023 0.35939 0.93972 0.0
C852 C 0.55578 0.48334 0.94887 0.0
O853 O 0.50948 0.5251 0.95897 0.0
O854 O 0.52215 0.41779 0.94134 0.0
C855 C 0.46664 0.57736 0.99483 0.0
O856 O 0.4932 0.62989 0.98342 0.0
C857 C 0.40817 0.35906 0.90644 0.0
C858 C 0.36363 0.22206 0.90012 0.0
C859 C 0.39196 0.30342 0.89399 0.0
N860 N 0.39083 0.3131 0.91952 0.0
N861 N 0.36454 0.23103 0.91575 0.0
C862 C 0.42916 0.45731 0.9058 0.0
H863 H 0.43454 0.48627 0.91768 0.0
H864 H 0.37492 0.49253 0.89933 0.0
H865 H 0.49241 0.46826 0.89922 0.0
C866 C 0.2099 0.48847 0.96123 0.0
N867 N 0.29616 0.46574 0.95822 0.0
N868 N 0.29819 0.42652 0.94447 0.0
C869 C 0.2143 0.42056 0.93848 0.0
C870 C 0.15437 0.45836 0.94892 0.0
C871 C 0.18331 0.53921 0.97558 0.0
H872 H 0.23072 0.59595 0.97738 0.0
H873 H 0.11386 0.56584 0.97489 0.0
H874 H 0.19044 0.49437 0.98583 0.0
O875 O 0.46309 0.3446 0.9726 0.0
O876 O 0.3979 0.26228 0.95453 0.0
H877 H 0.21034 0.29586 0.92617 0.0
H878 H 0.11756 0.36816 0.92171 0.0
C879 C 0.19049 0.36682 0.92429 0.0
H880 H 0.22753 0.39336 0.91406 0.0
H881 H 0.34639 0.1818 0.92383 0.0
O882 O 0.41295 0.51269 0.99191 0.0
C883 C 0.44905 0.26895 0.96627 0.0
Co884 Co 0.2569 0.66152 0.71995 0.0
Co885 Co 0.36366 0.65278 0.68959 0.0
C886 C 0.23951 0.808 0.69876 0.0
O887 O 0.19793 0.76168 0.70889 0.0
O888 O 0.30498 0.77444 0.69121 0.0
C889 C 0.14542 0.71842 0.74472 0.0
O890 O 0.09303 0.74533 0.73333 0.0
C891 C 0.36402 0.66101 0.65629 0.0
C892 C 0.50111 0.61676 0.64999 0.0
C893 C 0.41979 0.64509 0.64385 0.0
N894 N 0.40991 0.64358 0.66938 0.0
N895 N 0.49204 0.61747 0.66562 0.0
C896 C 0.26572 0.68169 0.65564 0.0
H897 H 0.23669 0.68701 0.66752 0.0
H898 H 0.2307 0.6273 0.64917 0.0
H899 H 0.2546 0.74488 0.64905 0.0
C900 C 0.23505 0.46194 0.71109 0.0
N901 N 0.25755 0.54829 0.70809 0.0
N902 N 0.29686 0.55048 0.69435 0.0
C903 C 0.303 0.46662 0.68835 0.0
C904 C 0.26534 0.40655 0.69877 0.0
C905 C 0.18437 0.43512 0.72544 0.0
H906 H 0.12749 0.48234 0.72724 0.0
H907 H 0.15796 0.36559 0.72473 0.0
H908 H 0.22916 0.44233 0.73569 0.0
O909 O 0.37827 0.715 0.72257 0.0
O910 O 0.46088 0.65115 0.70439 0.0
H911 H 0.42764 0.4629 0.67602 0.0
H912 H 0.35535 0.37008 0.67154 0.0
C913 C 0.35669 0.443 0.67414 0.0
H914 H 0.3301 0.48014 0.66393 0.0
H915 H 0.54123 0.59931 0.6737 0.0
O916 O 0.21001 0.66468 0.74179 0.0
C917 C 0.45397 0.70152 0.71623 0.0
Co918 Co 0.06274 0.50945 0.47006 0.0
Co919 Co 0.072 0.61611 0.43972 0.0
C920 C 0.91644 0.49218 0.44886 0.0
O921 O 0.96274 0.45041 0.45897 0.0
O922 O 0.95007 0.55774 0.44134 0.0
C923 C 0.0056 0.39807 0.49482 0.0
O924 O 0.97905 0.34556 0.48341 0.0
C925 C 0.06405 0.61646 0.40644 0.0
C926 C 0.1086 0.75345 0.40012 0.0
C927 C 0.08026 0.67209 0.39399 0.0
N928 N 0.0814 0.66241 0.41952 0.0
N929 N 0.10769 0.74448 0.41575 0.0
C930 C 0.04305 0.51821 0.4058 0.0
H931 H 0.03767 0.48924 0.41769 0.0
H932 H 0.09729 0.48298 0.39933 0.0
H933 H 0.9798 0.50725 0.39922 0.0
C934 C 0.26232 0.48701 0.46123 0.0
N935 N 0.17606 0.50973 0.45821 0.0
N936 N 0.17402 0.54896 0.44446 0.0
C937 C 0.25791 0.55493 0.43848 0.0
C938 C 0.31785 0.51713 0.44891 0.0
C939 C 0.28891 0.43627 0.47558 0.0
H940 H 0.24153 0.3795 0.47737 0.0
H941 H 0.35837 0.40967 0.47489 0.0
H942 H 0.28175 0.48109 0.48583 0.0
O943 O 0.00915 0.63089 0.4726 0.0
O944 O 0.07437 0.7132 0.45453 0.0
H945 H 0.26188 0.67964 0.42617 0.0
H946 H 0.35466 0.60734 0.4217 0.0
C947 C 0.28173 0.60868 0.42429 0.0
H948 H 0.24468 0.58215 0.41406 0.0
H949 H 0.12585 0.79371 0.42383 0.0
O950 O 0.05928 0.46276 0.49191 0.0
C951 C 0.0232 0.70654 0.46627 0.0
Co952 Co 0.21515 0.66956 0.30011 0.0
Co953 Co 0.11907 0.66103 0.33184 0.0
C954 C 0.23631 0.81672 0.32154 0.0
O955 O 0.27225 0.77217 0.3106 0.0
O956 O 0.17562 0.78237 0.3301 0.0
C957 C 0.32949 0.72517 0.27555 0.0
O958 O 0.38141 0.75087 0.28709 0.0
C959 C 0.11695 0.67337 0.3652 0.0
C960 C 0.98469 0.61637 0.37149 0.0
C961 C 0.0628 0.65258 0.37763 0.0
N962 N 0.07346 0.65062 0.35211 0.0
N963 N -0.00604 0.61724 0.35587 0.0
C964 C 0.21167 0.70647 0.36588 0.0
H965 H 0.24427 0.70234 0.35427 0.0
H966 H 0.25045 0.66587 0.37442 0.0
H967 H 0.21184 0.77686 0.37011 0.0
C968 C 0.23795 0.47104 0.30903 0.0
N969 N 0.21958 0.55786 0.31238 0.0
N970 N 0.18776 0.56096 0.3267 0.0
C971 C 0.18387 0.47741 0.33286 0.0
C972 C 0.21331 0.41657 0.32181 0.0
C973 C 0.27727 0.44254 0.29377 0.0
H974 H 0.33055 0.49077 0.29026 0.0
H975 H 0.30599 0.37384 0.29428 0.0
H976 H 0.22405 0.446 0.28475 0.0
O977 O 0.09197 0.71856 0.2978 0.0
O978 O 0.0197 0.65674 0.31753 0.0
H979 H 0.06574 0.465 0.34681 0.0
H980 H 0.15039 0.38449 0.35165 0.0
C981 C 0.1392 0.45499 0.34804 0.0
H982 H 0.16509 0.49967 0.35734 0.0
H983 H 0.94668 0.5942 0.34781 0.0
O984 O 0.26316 0.67311 0.27829 0.0
C985 C 0.01988 0.70395 0.30524 0.0
Co986 Co 0.05428 0.46787 0.05018 0.0
Co987 Co 0.06395 0.37058 0.08174 0.0
C988 C 0.90704 0.48635 0.07155 0.0
O989 O 0.95144 0.52384 0.06075 0.0
O990 O 0.94178 0.42517 0.07995 0.0
C991 C -0.00272 0.58203 0.02568 0.0
O992 O 0.97081 0.6334 0.03724 0.0
C993 C 0.05099 0.36716 0.11506 0.0
C994 C 0.1087 0.23513 0.1213 0.0
C995 C 0.07197 0.31293 0.12748 0.0
N996 N 0.0742 0.32409 0.10196 0.0
N997 N 0.10798 0.2447 0.10569 0.0
C998 C 0.01759 0.46176 0.11578 0.0
H999 H 0.02121 0.4944 0.10417 0.0
H1000 H 0.05838 0.50068 0.12428 0.0
H1001 H 0.94737 0.4617 0.12009 0.0
C1002 C 0.25254 0.49191 0.05919 0.0
N1003 N 0.16577 0.4733 0.06252 0.0
N1004 N 0.16264 0.44164 0.07686 0.0
C1005 C 0.24611 0.43815 0.08304 0.0
C1006 C 0.30693 0.46755 0.07199 0.0
C1007 C 0.2811 0.5309 0.0439 0.0
H1008 H 0.23326 0.58459 0.04042 0.0
H1009 H 0.35004 0.55906 0.04436 0.0
H1010 H 0.27695 0.47769 0.03489 0.0
O1011 O 0.00599 0.34432 0.04784 0.0
O1012 O 0.0719 0.27253 0.06717 0.0
H1013 H 0.25958 0.31982 0.09692 0.0
H1014 H 0.33878 0.40546 0.10191 0.0
C1015 C 0.26857 0.39338 0.09821 0.0
H1016 H 0.22329 0.41849 0.10749 0.0
H1017 H 0.13149 0.19775 0.09761 0.0
O1018 O 0.05017 0.51632 0.0284 0.0
C1019 C 0.02272 0.27218 0.05512 0.0
Co1020 Co 0.25705 0.30591 0.80011 0.0
Co1021 Co 0.35313 0.31446 0.83184 0.0
C1022 C 0.23594 0.15875 0.82154 0.0
O1023 O 0.19998 0.20329 0.8106 0.0
O1024 O 0.29663 0.19311 0.83009 0.0
C1025 C 0.14272 0.25024 0.77555 0.0
O1026 O 0.09081 0.22453 0.7871 0.0
C1027 C 0.35527 0.30212 0.8652 0.0
C1028 C 0.48752 0.35917 0.87149 0.0
C1029 C 0.40942 0.32293 0.87763 0.0
N1030 N 0.39875 0.32488 0.85211 0.0
N1031 N 0.47824 0.35828 0.85587 0.0
C1032 C 0.26056 0.269 0.86588 0.0
H1033 H 0.22797 0.27311 0.85426 0.0
H1034 H 0.22177 0.3096 0.87442 0.0
H1035 H 0.2604 0.19862 0.87011 0.0
C1036 C 0.23422 0.50442 0.80903 0.0
N1037 N 0.25258 0.4176 0.81238 0.0
N1038 N 0.28439 0.4145 0.8267 0.0
C1039 C 0.28827 0.49805 0.83286 0.0
C1040 C 0.25884 0.55889 0.82181 0.0
C1041 C 0.19492 0.53292 0.79376 0.0
H1042 H 0.14164 0.48469 0.79026 0.0
H1043 H 0.16621 0.60162 0.79427 0.0
H1044 H 0.24816 0.52945 0.78475 0.0
O1045 O 0.38024 0.25693 0.7978 0.0
O1046 O 0.45248 0.31883 0.81752 0.0
H1047 H 0.40637 0.5105 0.84682 0.0
H1048 H 0.32168 0.59096 0.85166 0.0
C1049 C 0.33291 0.52047 0.84804 0.0
H1050 H 0.30704 0.47576 0.85734 0.0
H1051 H 0.52551 0.38135 0.84781 0.0
O1052 O 0.20903 0.30233 0.77829 0.0
C1053 C 0.45232 0.27159 0.80524 0.0
Co1054 Co 0.41793 0.5077 0.55018 0.0
Co1055 Co 0.40836 0.60498 0.58174 0.0
C1056 C 0.56513 0.48896 0.57155 0.0
O1057 O 0.52069 0.45158 0.56074 0.0
O1058 O 0.53045 0.55014 0.57996 0.0
C1059 C 0.47482 0.39353 0.52567 0.0
O1060 O 0.50121 0.3421 0.53723 0.0
C1061 C 0.42123 0.60823 0.61507 0.0
C1062 C 0.36368 0.74031 0.62132 0.0
C1063 C 0.40031 0.66245 0.62749 0.0
N1064 N 0.39811 0.65137 0.60197 0.0
N1065 N 0.36442 0.73079 0.6057 0.0
C1066 C 0.45456 0.5136 0.61578 0.0
H1067 H 0.45086 0.48097 0.60416 0.0
H1068 H 0.41378 0.47471 0.62428 0.0
H1069 H 0.5248 0.5136 0.62008 0.0
C1070 C 0.21963 0.48378 0.55917 0.0
N1071 N 0.30639 0.50242 0.5625 0.0
N1072 N 0.3095 0.5342 0.57683 0.0
C1073 C 0.22601 0.53776 0.58301 0.0
C1074 C 0.16521 0.50824 0.57196 0.0
C1075 C 0.1911 0.44457 0.5439 0.0
H1076 H 0.23888 0.39075 0.54045 0.0
H1077 H 0.12211 0.41654 0.54436 0.0
H1078 H 0.19541 0.49762 0.53486 0.0
O1079 O 0.46634 0.63119 0.54783 0.0
O1080 O 0.40086 0.70316 0.56719 0.0
H1081 H 0.21275 0.65617 0.59688 0.0
H1082 H 0.13326 0.57077 0.60185 0.0
C1083 C 0.20353 0.58263 0.59817 0.0
H1084 H 0.24868 0.55744 0.60746 0.0
H1085 H 0.34099 0.7778 0.59762 0.0
O1086 O 0.422 0.45928 0.52839 0.0
C1087 C 0.44985 0.70337 0.55512 0.0
loop_
_geom_bond_atom_site_label_1
_geom_bond_atom_site_label_2
_geom_bond_distance
_geom_bond_site_symmetry_2
_ccdc_geom_bond_type
Co0 O3 1.970 . S
Co0 N17 1.989 . S
Co0 O25 1.967 . S
Co0 O32 1.920 . S
Co1 O4 1.966 . S
Co1 N10 2.022 . S
Co1 N18 1.993 . S
Co1 O26 1.941 . S
C2 O3 1.258 . S
C2 O4 1.263 . S
O3 Co0 1.970 . S
O3 C2 1.258 . S
O4 Co1 1.966 . S
O4 C2 1.263 . S
C5 O6 1.235 . S
C5 O32 1.289 . S
O6 C5 1.235 . S
C7 C9 1.400 . S
C7 N10 1.351 . S
C7 C12 1.501 . S
C8 C9 1.387 . S
C8 N11 1.341 . S
C9 C7 1.400 . S
C9 C8 1.387 . S
N10 Co1 2.022 . S
N10 C7 1.351 . S
N10 N11 1.365 . S
N11 C8 1.341 . S
N11 N10 1.365 . S
N11 H31 0.862 . S
C12 C7 1.501 . S
C12 H13 0.961 . S
C12 H14 0.961 . S
C12 H15 0.960 . S
H13 C12 0.961 . S
H14 C12 0.961 . S
H15 C12 0.960 . S
C16 N17 1.333 1_565 S
C16 C20 1.406 . S
C16 C21 1.502 . S
N17 Co0 1.989 . S
N17 C16 1.333 1_545 S
N17 N18 1.388 . S
N18 Co1 1.993 . S
N18 N17 1.388 . S
N18 C19 1.346 . S
C19 N18 1.346 . S
C19 C20 1.396 1_545 S
C19 C29 1.510 . S
C20 C16 1.406 . S
C20 C19 1.396 1_565 S
C21 C16 1.502 . S
C21 H22 0.959 1_565 S
C21 H23 0.960 . S
C21 H24 0.961 . S
H22 C21 0.959 1_545 S
H23 C21 0.960 . S
H24 C21 0.961 . S
O25 Co0 1.967 . S
O25 C33 1.258 . S
O26 Co1 1.941 . S
O26 C33 1.266 . S
H27 C29 0.959 1_565 S
H28 C29 0.961 1_565 S
C29 C19 1.510 . S
C29 H27 0.959 1_545 S
C29 H28 0.961 1_545 S
C29 H30 0.960 . S
H30 C29 0.960 . S
H31 N11 0.862 . S
O32 Co0 1.920 . S
O32 C5 1.289 . S
C33 O25 1.258 . S
C33 O26 1.266 . S
Co34 O37 1.970 1_455 S
Co34 N51 1.989 . S
Co34 O59 1.967 . S
Co34 O66 1.920 . S
Co35 O38 1.966 1_455 S
Co35 N44 2.022 . S
Co35 N52 1.993 . S
Co35 O60 1.941 . S
C36 O37 1.258 . S
C36 O38 1.263 . S
O37 Co34 1.970 1_655 S
O37 C36 1.258 . S
O38 Co35 1.966 1_655 S
O38 C36 1.263 . S
C39 O40 1.235 1_545 S
C39 O66 1.289 . S
O40 C39 1.235 1_565 S
C41 C43 1.400 . S
C41 N44 1.351 1_565 S
C41 C46 1.501 1_455 S
C42 C43 1.387 1_545 S
C42 N45 1.341 . S
C43 C41 1.400 . S
C43 C42 1.387 1_565 S
N44 Co35 2.022 . S
N44 C41 1.351 1_545 S
N44 N45 1.365 . S
N45 C42 1.341 . S
N45 N44 1.365 . S
N45 H65 0.862 . S
C46 C41 1.501 1_655 S
C46 H47 0.961 . S
C46 H48 0.961 . S
C46 H49 0.960 . S
H47 C46 0.961 . S
H48 C46 0.961 . S
H49 C46 0.960 . S
C50 N51 1.342 . S
C50 C54 1.401 1_545 S
C50 C55 1.499 . S
N51 Co34 1.989 . S
N51 C50 1.342 . S
N51 N52 1.388 . S
N52 Co35 1.993 . S
N52 N51 1.388 . S
N52 C53 1.346 . S
C53 N52 1.346 . S
C53 C54 1.396 1_545 S
C53 C63 1.510 1_545 S
C54 C50 1.401 1_565 S
C54 C53 1.396 1_565 S
C55 C50 1.499 . S
C55 H56 0.959 . S
C55 H57 0.960 1_545 S
C55 H58 0.961 . S
H56 C55 0.959 . S
H57 C55 0.960 1_565 S
H58 C55 0.961 . S
O59 Co34 1.967 . S
O59 C67 1.258 . S
O60 Co35 1.941 . S
O60 C67 1.266 . S
H61 C63 0.959 1_545 S
H62 C63 0.961 . S
C63 C53 1.510 1_565 S
C63 H61 0.959 1_565 S
C63 H62 0.961 . S
C63 H64 0.960 . S
H64 C63 0.960 . S
H65 N45 0.862 . S
O66 Co34 1.920 . S
O66 C39 1.289 . S
C67 O59 1.258 . S
C67 O60 1.266 . S
Co68 O71 1.970 . S
Co68 N85 1.989 . S
Co68 O93 1.967 . S
Co68 O100 1.920 . S
Co69 O72 1.966 . S
Co69 N78 2.022 . S
Co69 N86 1.993 . S
Co69 O94 1.941 . S
C70 O71 1.258 . S
C70 O72 1.263 . S
O71 Co68 1.970 . S
O71 C70 1.258 . S
O72 Co69 1.966 . S
O72 C70 1.263 . S
C73 O74 1.235 . S
C73 O100 1.289 . S
O74 C73 1.235 . S
C75 C77 1.400 . S
C75 N78 1.351 . S
C75 C80 1.501 . S
C76 C77 1.387 . S
C76 N79 1.341 . S
C77 C75 1.400 . S
C77 C76 1.387 . S
N78 Co69 2.022 . S
N78 C75 1.351 . S
N78 N79 1.365 . S
N79 C76 1.341 . S
N79 N78 1.365 . S
N79 H99 0.862 . S
C80 C75 1.501 . S
C80 H81 0.961 . S
C80 H82 0.961 . S
C80 H83 0.960 . S
H81 C80 0.961 . S
H82 C80 0.961 . S
H83 C80 0.960 . S
C84 N85 1.333 1_545 S
C84 C88 1.406 . S
C84 C89 1.503 . S
N85 Co68 1.989 . S
N85 C84 1.333 1_565 S
N85 N86 1.388 . S
N86 Co69 1.993 . S
N86 N85 1.388 . S
N86 C87 1.346 . S
C87 N86 1.346 . S
C87 C88 1.396 1_565 S
C87 C97 1.510 . S
C88 C84 1.406 . S
C88 C87 1.396 1_545 S
C89 C84 1.503 . S
C89 H90 0.959 1_545 S
C89 H91 0.960 . S
C89 H92 0.961 . S
H90 C89 0.959 1_565 S
H91 C89 0.960 . S
H92 C89 0.961 . S
O93 Co68 1.967 . S
O93 C101 1.258 1_455 S
O94 Co69 1.941 . S
O94 C101 1.266 1_455 S
H95 C97 0.959 1_545 S
H96 C97 0.961 1_545 S
C97 C87 1.510 . S
C97 H95 0.959 1_565 S
C97 H96 0.961 1_565 S
C97 H98 0.960 . S
H98 C97 0.960 . S
H99 N79 0.862 . S
O100 Co68 1.920 . S
O100 C73 1.289 . S
C101 O93 1.258 1_655 S
C101 O94 1.266 1_655 S
Co102 O105 1.970 . S
Co102 N119 1.989 . S
Co102 O127 1.967 . S
Co102 O134 1.920 . S
Co103 O106 1.966 . S
Co103 N112 2.022 . S
Co103 N120 1.993 . S
Co103 O128 1.941 . S
C104 O105 1.258 . S
C104 O106 1.263 . S
O105 Co102 1.970 . S
O105 C104 1.258 . S
O106 Co103 1.966 . S
O106 C104 1.263 . S
C107 O108 1.235 1_565 S
C107 O134 1.289 . S
O108 C107 1.235 1_545 S
C109 C111 1.400 . S
C109 N112 1.351 1_545 S
C109 C114 1.501 . S
C110 C111 1.387 1_565 S
C110 N113 1.341 . S
C111 C109 1.400 . S
C111 C110 1.387 1_545 S
N112 Co103 2.022 . S
N112 C109 1.351 1_565 S
N112 N113 1.365 . S
N113 C110 1.341 . S
N113 N112 1.365 . S
N113 H133 0.862 . S
C114 C109 1.501 . S
C114 H115 0.961 . S
C114 H116 0.961 . S
C114 H117 0.960 . S
H115 C114 0.961 . S
H116 C114 0.961 . S
H117 C114 0.960 . S
C118 N119 1.342 . S
C118 C122 1.401 1_565 S
C118 C123 1.499 . S
N119 Co102 1.989 . S
N119 C118 1.342 . S
N119 N120 1.388 . S
N120 Co103 1.993 . S
N120 N119 1.388 . S
N120 C121 1.346 . S
C121 N120 1.346 . S
C121 C122 1.396 1_565 S
C121 C131 1.510 1_565 S
C122 C118 1.401 1_545 S
C122 C121 1.396 1_545 S
C123 C118 1.499 . S
C123 H124 0.959 . S
C123 H125 0.960 1_565 S
C123 H126 0.961 . S
H124 C123 0.959 . S
H125 C123 0.960 1_545 S
H126 C123 0.961 . S
O127 Co102 1.967 . S
O127 C135 1.258 . S
O128 Co103 1.941 . S
O128 C135 1.266 . S
H129 C131 0.959 1_565 S
H130 C131 0.961 . S
C131 C121 1.510 1_545 S
C131 H129 0.959 1_545 S
C131 H130 0.961 . S
C131 H132 0.960 . S
H132 C131 0.960 . S
H133 N113 0.862 . S
O134 Co102 1.920 . S
O134 C107 1.289 . S
C135 O127 1.258 . S
C135 O128 1.266 . S
Co136 O139 1.970 . S
Co136 N153 1.989 . S
Co136 O161 1.967 . S
Co136 O168 1.920 . S
Co137 O140 1.966 . S
Co137 N146 2.022 . S
Co137 N154 1.993 . S
Co137 O162 1.941 . S
C138 O139 1.258 . S
C138 O140 1.263 . S
O139 Co136 1.970 . S
O139 C138 1.258 . S
O140 Co137 1.966 . S
O140 C138 1.263 . S
C141 O142 1.235 . S
C141 O168 1.289 . S
O142 C141 1.235 . S
C143 C145 1.400 . S
C143 N146 1.351 . S
C143 C148 1.501 . S
C144 C145 1.387 . S
C144 N147 1.341 . S
C145 C143 1.400 . S
C145 C144 1.387 . S
N146 Co137 2.022 . S
N146 C143 1.351 . S
N146 N147 1.365 . S
N147 C144 1.341 . S
N147 N146 1.365 . S
N147 H167 0.862 . S
C148 C143 1.501 . S
C148 H149 0.961 . S
C148 H150 0.961 . S
C148 H151 0.960 . S
H149 C148 0.961 . S
H150 C148 0.961 . S
H151 C148 0.960 . S
C152 N153 1.333 1_545 S
C152 C156 1.406 . S
C152 C157 1.503 . S
N153 Co136 1.989 . S
N153 C152 1.333 1_565 S
N153 N154 1.388 . S
N154 Co137 1.993 . S
N154 N153 1.388 . S
N154 C155 1.346 . S
C155 N154 1.346 . S
C155 C156 1.396 1_565 S
C155 C165 1.510 . S
C156 C152 1.406 . S
C156 C155 1.396 1_545 S
C157 C152 1.503 . S
C157 H158 0.959 1_545 S
C157 H159 0.960 . S
C157 H160 0.961 . S
H158 C157 0.959 1_565 S
H159 C157 0.960 . S
H160 C157 0.961 . S
O161 Co136 1.967 . S
O161 C169 1.258 . S
O162 Co137 1.941 . S
O162 C169 1.266 . S
H163 C165 0.959 1_545 S
H164 C165 0.961 1_545 S
C165 C155 1.510 . S
C165 H163 0.959 1_565 S
C165 H164 0.961 1_565 S
C165 H166 0.960 . S
H166 C165 0.960 . S
H167 N147 0.862 . S
O168 Co136 1.920 . S
O168 C141 1.289 . S
C169 O161 1.258 . S
C169 O162 1.266 . S
Co170 O173 1.970 . S
Co170 N187 1.989 . S
Co170 O195 1.967 . S
Co170 O202 1.920 . S
Co171 O174 1.966 . S
Co171 N180 2.022 . S
Co171 N188 1.993 . S
Co171 O196 1.941 . S
C172 O173 1.258 . S
C172 O174 1.263 . S
O173 Co170 1.970 . S
O173 C172 1.258 . S
O174 Co171 1.966 . S
O174 C172 1.263 . S
C175 O176 1.235 1_545 S
C175 O202 1.289 . S
O176 C175 1.235 1_565 S
C177 C179 1.400 . S
C177 N180 1.351 1_565 S
C177 C182 1.501 . S
C178 C179 1.387 1_545 S
C178 N181 1.341 . S
C179 C177 1.400 . S
C179 C178 1.387 1_565 S
N180 Co171 2.022 . S
N180 C177 1.351 1_545 S
N180 N181 1.365 . S
N181 C178 1.341 . S
N181 N180 1.365 . S
N181 H201 0.862 . S
C182 C177 1.501 . S
C182 H183 0.961 . S
C182 H184 0.961 . S
C182 H185 0.960 . S
H183 C182 0.961 . S
H184 C182 0.961 . S
H185 C182 0.960 . S
C186 N187 1.342 . S
C186 C190 1.401 1_545 S
C186 C191 1.499 . S
N187 Co170 1.989 . S
N187 C186 1.342 . S
N187 N188 1.388 . S
N188 Co171 1.993 . S
N188 N187 1.388 . S
N188 C189 1.346 . S
C189 N188 1.346 . S
C189 C190 1.396 1_545 S
C189 C199 1.510 1_545 S
C190 C186 1.401 1_565 S
C190 C189 1.396 1_565 S
C191 C186 1.499 . S
C191 H192 0.959 . S
C191 H193 0.960 1_545 S
C191 H194 0.961 . S
H192 C191 0.959 . S
H193 C191 0.960 1_565 S
H194 C191 0.961 . S
O195 Co170 1.967 . S
O195 C203 1.258 . S
O196 Co171 1.941 . S
O196 C203 1.266 . S
H197 C199 0.959 1_545 S
H198 C199 0.961 . S
C199 C189 1.510 1_565 S
C199 H197 0.959 1_565 S
C199 H198 0.961 . S
C199 H200 0.960 . S
H200 C199 0.960 . S
H201 N181 0.862 . S
O202 Co170 1.920 . S
O202 C175 1.289 . S
C203 O195 1.258 . S
C203 O196 1.266 . S
Co204 O207 1.970 . S
Co204 N221 1.989 . S
Co204 O229 1.967 . S
Co204 O236 1.920 . S
Co205 O208 1.966 . S
Co205 N214 2.022 . S
Co205 N222 1.993 . S
Co205 O230 1.941 . S
C206 O207 1.258 . S
C206 O208 1.263 . S
O207 Co204 1.970 . S
O207 C206 1.258 . S
O208 Co205 1.966 . S
O208 C206 1.263 . S
C209 O210 1.235 . S
C209 O236 1.289 . S
O210 C209 1.235 . S
C211 C213 1.400 . S
C211 N214 1.351 . S
C211 C216 1.501 . S
C212 C213 1.387 . S
C212 N215 1.341 . S
C213 C211 1.400 . S
C213 C212 1.387 . S
N214 Co205 2.022 . S
N214 C211 1.351 . S
N214 N215 1.365 . S
N215 C212 1.341 . S
N215 N214 1.365 . S
N215 H235 0.862 . S
C216 C211 1.501 . S
C216 H217 0.961 . S
C216 H218 0.961 . S
C216 H219 0.960 . S
H217 C216 0.961 . S
H218 C216 0.961 . S
H219 C216 0.960 . S
C220 N221 1.333 1_565 S
C220 C224 1.406 . S
C220 C225 1.503 . S
N221 Co204 1.989 . S
N221 C220 1.333 1_545 S
N221 N222 1.388 . S
N222 Co205 1.993 . S
N222 N221 1.388 . S
N222 C223 1.346 . S
C223 N222 1.346 . S
C223 C224 1.396 1_545 S
C223 C233 1.510 . S
C224 C220 1.406 . S
C224 C223 1.396 1_565 S
C225 C220 1.503 . S
C225 H226 0.959 1_565 S
C225 H227 0.960 . S
C225 H228 0.961 . S
H226 C225 0.959 1_545 S
H227 C225 0.960 . S
H228 C225 0.961 . S
O229 Co204 1.967 . S
O229 C237 1.258 1_455 S
O230 Co205 1.941 . S
O230 C237 1.266 1_455 S
H231 C233 0.959 1_565 S
H232 C233 0.961 1_565 S
C233 C223 1.510 . S
C233 H231 0.959 1_545 S
C233 H232 0.961 1_545 S
C233 H234 0.960 . S
H234 C233 0.960 . S
H235 N215 0.862 . S
O236 Co204 1.920 . S
O236 C209 1.289 . S
C237 O229 1.258 1_655 S
C237 O230 1.266 1_655 S
Co238 O241 1.970 1_455 S
Co238 N255 1.989 . S
Co238 O263 1.967 . S
Co238 O270 1.920 . S
Co239 O242 1.966 1_455 S
Co239 N248 2.022 . S
Co239 N256 1.993 . S
Co239 O264 1.941 . S
C240 O241 1.258 . S
C240 O242 1.263 . S
O241 Co238 1.970 1_655 S
O241 C240 1.258 . S
O242 Co239 1.966 1_655 S
O242 C240 1.263 . S
C243 O244 1.235 1_565 S
C243 O270 1.289 . S
O244 C243 1.235 1_545 S
C245 C247 1.400 . S
C245 N248 1.351 1_545 S
C245 C250 1.501 1_455 S
C246 C247 1.387 1_565 S
C246 N249 1.341 . S
C247 C245 1.400 . S
C247 C246 1.387 1_545 S
N248 Co239 2.022 . S
N248 C245 1.351 1_565 S
N248 N249 1.365 . S
N249 C246 1.341 . S
N249 N248 1.365 . S
N249 H269 0.862 . S
C250 C245 1.501 1_655 S
C250 H251 0.961 . S
C250 H252 0.961 . S
C250 H253 0.960 . S
H251 C250 0.961 . S
H252 C250 0.961 . S
H253 C250 0.960 . S
C254 N255 1.342 . S
C254 C258 1.401 1_565 S
C254 C259 1.499 . S
N255 Co238 1.989 . S
N255 C254 1.342 . S
N255 N256 1.388 . S
N256 Co239 1.993 . S
N256 N255 1.388 . S
N256 C257 1.346 . S
C257 N256 1.346 . S
C257 C258 1.396 1_565 S
C257 C267 1.510 1_565 S
C258 C254 1.401 1_545 S
C258 C257 1.396 1_545 S
C259 C254 1.499 . S
C259 H260 0.959 . S
C259 H261 0.960 1_565 S
C259 H262 0.961 . S
H260 C259 0.959 . S
H261 C259 0.960 1_545 S
H262 C259 0.961 . S
O263 Co238 1.967 . S
O263 C271 1.258 . S
O264 Co239 1.941 . S
O264 C271 1.266 . S
H265 C267 0.959 1_565 S
H266 C267 0.961 . S
C267 C257 1.510 1_545 S
C267 H265 0.959 1_545 S
C267 H266 0.961 . S
C267 H268 0.960 . S
H268 C267 0.960 . S
H269 N249 0.862 . S
O270 Co238 1.920 . S
O270 C243 1.289 . S
C271 O263 1.258 . S
C271 O264 1.266 . S
Co272 O275 1.970 . S
Co272 N289 1.989 . S
Co272 O297 1.967 . S
Co272 O304 1.920 . S
Co273 O276 1.966 . S
Co273 N282 2.022 . S
Co273 N290 1.993 . S
Co273 O298 1.941 . S
C274 O275 1.258 . S
C274 O276 1.263 . S
O275 Co272 1.970 . S
O275 C274 1.258 . S
O276 Co273 1.966 . S
O276 C274 1.263 . S
C277 O278 1.235 . S
C277 O304 1.289 . S
O278 C277 1.235 . S
C279 C281 1.400 . S
C279 N282 1.351 . S
C279 C284 1.501 . S
C280 C281 1.387 . S
C280 N283 1.341 . S
C281 C279 1.400 . S
C281 C280 1.387 . S
N282 Co273 2.022 . S
N282 C279 1.351 . S
N282 N283 1.365 . S
N283 C280 1.341 . S
N283 N282 1.365 . S
N283 H303 0.862 . S
C284 C279 1.501 . S
C284 H285 0.961 . S
C284 H286 0.961 . S
C284 H287 0.960 . S
H285 C284 0.961 . S
H286 C284 0.961 . S
H287 C284 0.960 . S
C288 N289 1.342 . S
C288 C292 1.401 1_565 S
C288 C293 1.499 1_565 S
N289 Co272 1.989 . S
N289 C288 1.342 . S
N289 N290 1.388 . S
N290 Co273 1.993 . S
N290 N289 1.388 . S
N290 C291 1.352 . S
C291 N290 1.352 . S
C291 C292 1.392 1_565 S
C291 C301 1.508 1_565 S
C292 C288 1.401 1_545 S
C292 C291 1.392 1_545 S
C293 C288 1.499 1_545 S
C293 H294 0.959 1_545 S
C293 H295 0.960 . S
C293 H296 0.961 . S
H294 C293 0.959 1_565 S
H295 C293 0.960 . S
H296 C293 0.961 . S
O297 Co272 1.967 . S
O297 C305 1.258 . S
O298 Co273 1.941 . S
O298 C305 1.266 . S
H299 C301 0.959 . S
H300 C301 0.961 . S
C301 C291 1.508 1_545 S
C301 H299 0.959 . S
C301 H300 0.961 . S
C301 H302 0.960 1_545 S
H302 C301 0.960 1_565 S
H303 N283 0.862 . S
O304 Co272 1.920 . S
O304 C277 1.289 . S
C305 O297 1.258 . S
C305 O298 1.266 . S
Co306 O309 1.970 1_665 S
Co306 N323 1.989 . S
Co306 O331 1.967 . S
Co306 O338 1.920 . S
Co307 O310 1.966 1_655 S
Co307 N316 2.022 . S
Co307 N324 1.993 . S
Co307 O332 1.941 . S
C308 O309 1.258 1_565 S
C308 O310 1.263 . S
O309 Co306 1.970 1_445 S
O309 C308 1.258 1_545 S
O310 Co307 1.966 1_455 S
O310 C308 1.263 . S
C311 O312 1.235 . S
C311 O338 1.289 1_545 S
O312 C311 1.235 . S
C313 C315 1.400 . S
C313 N316 1.351 . S
C313 C318 1.501 1_665 S
C314 C315 1.387 . S
C314 N317 1.341 . S
C315 C313 1.400 . S
C315 C314 1.387 . S
N316 Co307 2.022 . S
N316 C313 1.351 . S
N316 N317 1.365 . S
N317 C314 1.341 . S
N317 N316 1.365 . S
N317 H337 0.862 . S
C318 C313 1.501 1_445 S
C318 H319 0.961 . S
C318 H320 0.961 1_455 S
C318 H321 0.960 . S
H319 C318 0.961 . S
H320 C318 0.961 1_655 S
H321 C318 0.960 . S
C322 N323 1.342 . S
C322 C326 1.401 1_565 S
C322 C327 1.499 1_565 S
N323 Co306 1.989 . S
N323 C322 1.342 . S
N323 N324 1.388 . S
N324 Co307 1.993 . S
N324 N323 1.388 . S
N324 C325 1.346 . S
C325 N324 1.346 . S
C325 C326 1.396 1_565 S
C325 C335 1.510 . S
C326 C322 1.401 1_545 S
C326 C325 1.396 1_545 S
C327 C322 1.499 1_545 S
C327 H328 0.959 1_545 S
C327 H329 0.960 . S
C327 H330 0.961 1_545 S
H328 C327 0.959 1_565 S
H329 C327 0.960 . S
H330 C327 0.961 1_565 S
O331 Co306 1.967 . S
O331 C339 1.258 . S
O332 Co307 1.941 . S
O332 C339 1.266 . S
H333 C335 0.959 . S
H334 C335 0.961 1_545 S
C335 C325 1.510 . S
C335 H333 0.959 . S
C335 H334 0.961 1_565 S
C335 H336 0.960 . S
H336 C335 0.960 . S
H337 N317 0.862 . S
O338 Co306 1.920 . S
O338 C311 1.289 1_565 S
C339 O331 1.258 . S
C339 O332 1.266 . S
Co340 O343 1.970 . S
Co340 N357 1.989 . S
Co340 O365 1.967 . S
Co340 O372 1.920 . S
Co341 O344 1.966 . S
Co341 N350 2.022 . S
Co341 N358 1.993 . S
Co341 O366 1.941 . S
C342 O343 1.258 . S
C342 O344 1.263 . S
O343 Co340 1.970 . S
O343 C342 1.258 . S
O344 Co341 1.966 . S
O344 C342 1.263 . S
C345 O346 1.235 . S
C345 O372 1.289 . S
O346 C345 1.235 . S
C347 C349 1.400 . S
C347 N350 1.351 . S
C347 C352 1.501 . S
C348 C349 1.387 . S
C348 N351 1.341 . S
C349 C347 1.400 . S
C349 C348 1.387 . S
N350 Co341 2.022 . S
N350 C347 1.351 . S
N350 N351 1.365 . S
N351 C348 1.341 . S
N351 N350 1.365 . S
N351 H371 0.862 . S
C352 C347 1.501 . S
C352 H353 0.961 . S
C352 H354 0.961 . S
C352 H355 0.960 . S
H353 C352 0.961 . S
H354 C352 0.961 . S
H355 C352 0.960 . S
C356 N357 1.342 . S
C356 C360 1.401 1_545 S
C356 C361 1.499 1_545 S
N357 Co340 1.989 . S
N357 C356 1.342 . S
N357 N358 1.388 . S
N358 Co341 1.993 . S
N358 N357 1.388 . S
N358 C359 1.352 . S
C359 N358 1.352 . S
C359 C360 1.392 1_545 S
C359 C369 1.508 1_545 S
C360 C356 1.401 1_565 S
C360 C359 1.392 1_565 S
C361 C356 1.499 1_565 S
C361 H362 0.959 1_565 S
C361 H363 0.960 . S
C361 H364 0.961 . S
H362 C361 0.959 1_545 S
H363 C361 0.960 . S
H364 C361 0.961 . S
O365 Co340 1.967 . S
O365 C373 1.258 . S
O366 Co341 1.941 . S
O366 C373 1.266 . S
H367 C369 0.959 . S
H368 C369 0.961 . S
C369 C359 1.508 1_565 S
C369 H367 0.959 . S
C369 H368 0.961 . S
C369 H370 0.960 1_565 S
H370 C369 0.960 1_545 S
H371 N351 0.862 . S
O372 Co340 1.920 . S
O372 C345 1.289 . S
C373 O365 1.258 . S
C373 O366 1.266 . S
Co374 O377 1.970 1_545 S
Co374 N391 1.989 . S
Co374 O399 1.967 . S
Co374 O406 1.920 . S
Co375 O378 1.966 . S
Co375 N384 2.022 . S
Co375 N392 1.993 . S
Co375 O400 1.941 . S
C376 O377 1.258 1_545 S
C376 O378 1.263 . S
O377 Co374 1.970 1_565 S
O377 C376 1.258 1_565 S
O378 Co375 1.966 . S
O378 C376 1.263 . S
C379 O380 1.235 . S
C379 O406 1.289 1_565 S
O380 C379 1.235 . S
C381 C383 1.400 . S
C381 N384 1.351 . S
C381 C386 1.501 1_545 S
C382 C383 1.387 . S
C382 N385 1.341 . S
C383 C381 1.400 . S
C383 C382 1.387 . S
N384 Co375 2.022 . S
N384 C381 1.351 . S
N384 N385 1.365 . S
N385 C382 1.341 . S
N385 N384 1.365 . S
N385 H405 0.862 . S
C386 C381 1.501 1_565 S
C386 H387 0.961 . S
C386 H388 0.961 . S
C386 H389 0.960 . S
H387 C386 0.961 . S
H388 C386 0.961 . S
H389 C386 0.960 . S
C390 N391 1.342 . S
C390 C394 1.401 1_545 S
C390 C395 1.499 1_545 S
N391 Co374 1.989 . S
N391 C390 1.342 . S
N391 N392 1.388 . S
N392 Co375 1.993 . S
N392 N391 1.388 . S
N392 C393 1.346 . S
C393 N392 1.346 . S
C393 C394 1.396 1_545 S
C393 C403 1.510 . S
C394 C390 1.401 1_565 S
C394 C393 1.396 1_565 S
C395 C390 1.499 1_565 S
C395 H396 0.959 1_565 S
C395 H397 0.960 . S
C395 H398 0.961 1_565 S
H396 C395 0.959 1_545 S
H397 C395 0.960 . S
H398 C395 0.961 1_545 S
O399 Co374 1.967 . S
O399 C407 1.258 . S
O400 Co375 1.941 . S
O400 C407 1.266 . S
H401 C403 0.959 . S
H402 C403 0.961 1_565 S
C403 C393 1.510 . S
C403 H401 0.959 . S
C403 H402 0.961 1_545 S
C403 H404 0.960 . S
H404 C403 0.960 . S
H405 N385 0.862 . S
O406 Co374 1.920 . S
O406 C379 1.289 1_545 S
C407 O399 1.258 . S
C407 O400 1.266 . S
Co408 O411 1.970 . S
Co408 N425 1.989 . S
Co408 O433 1.967 . S
Co408 O440 1.920 . S
Co409 O412 1.966 . S
Co409 N418 2.022 . S
Co409 N426 1.993 . S
Co409 O434 1.941 . S
C410 O411 1.258 . S
C410 O412 1.263 . S
O411 Co408 1.970 . S
O411 C410 1.258 . S
O412 Co409 1.966 . S
O412 C410 1.263 . S
C413 O414 1.235 . S
C413 O440 1.289 . S
O414 C413 1.235 . S
C415 C417 1.400 . S
C415 N418 1.351 . S
C415 C420 1.501 . S
C416 C417 1.387 . S
C416 N419 1.341 . S
C417 C415 1.400 . S
C417 C416 1.387 . S
N418 Co409 2.022 . S
N418 C415 1.351 . S
N418 N419 1.365 . S
N419 C416 1.341 . S
N419 N418 1.365 . S
N419 H439 0.862 . S
C420 C415 1.501 . S
C420 H421 0.961 . S
C420 H422 0.961 . S
C420 H423 0.960 . S
H421 C420 0.961 . S
H422 C420 0.961 . S
H423 C420 0.960 . S
C424 N425 1.342 . S
C424 C428 1.401 1_545 S
C424 C429 1.499 1_545 S
N425 Co408 1.989 . S
N425 C424 1.342 . S
N425 N426 1.388 . S
N426 Co409 1.993 . S
N426 N425 1.388 . S
N426 C427 1.352 . S
C427 N426 1.352 . S
C427 C428 1.392 1_545 S
C427 C437 1.508 1_545 S
C428 C424 1.401 1_565 S
C428 C427 1.392 1_565 S
C429 C424 1.499 1_565 S
C429 H430 0.959 1_565 S
C429 H431 0.960 . S
C429 H432 0.961 . S
H430 C429 0.959 1_545 S
H431 C429 0.960 . S
H432 C429 0.961 . S
O433 Co408 1.967 . S
O433 C441 1.258 . S
O434 Co409 1.941 . S
O434 C441 1.266 . S
H435 C437 0.959 . S
H436 C437 0.961 . S
C437 C427 1.508 1_565 S
C437 H435 0.959 . S
C437 H436 0.961 . S
C437 H438 0.960 1_565 S
H438 C437 0.960 1_545 S
H439 N419 0.862 . S
O440 Co408 1.920 . S
O440 C413 1.289 . S
C441 O433 1.258 . S
C441 O434 1.266 . S
Co442 O445 1.970 1_565 S
Co442 N459 1.989 . S
Co442 O467 1.967 . S
Co442 O474 1.920 . S
Co443 O446 1.966 . S
Co443 N452 2.022 . S
Co443 N460 1.993 . S
Co443 O468 1.941 . S
C444 O445 1.258 1_565 S
C444 O446 1.263 . S
O445 Co442 1.970 1_545 S
O445 C444 1.258 1_545 S
O446 Co443 1.966 . S
O446 C444 1.263 . S
C447 O448 1.235 . S
C447 O474 1.289 1_545 S
O448 C447 1.235 . S
C449 C451 1.400 . S
C449 N452 1.351 . S
C449 C454 1.501 1_565 S
C450 C451 1.387 . S
C450 N453 1.341 . S
C451 C449 1.400 . S
C451 C450 1.387 . S
N452 Co443 2.022 . S
N452 C449 1.351 . S
N452 N453 1.365 . S
N453 C450 1.341 . S
N453 N452 1.365 . S
N453 H473 0.862 . S
C454 C449 1.501 1_545 S
C454 H455 0.961 . S
C454 H456 0.961 . S
C454 H457 0.960 . S
H455 C454 0.961 . S
H456 C454 0.961 . S
H457 C454 0.960 . S
C458 N459 1.342 . S
C458 C462 1.401 1_565 S
C458 C463 1.499 1_565 S
N459 Co442 1.989 . S
N459 C458 1.342 . S
N459 N460 1.388 . S
N460 Co443 1.993 . S
N460 N459 1.388 . S
N460 C461 1.346 . S
C461 N460 1.346 . S
C461 C462 1.396 1_565 S
C461 C471 1.510 . S
C462 C458 1.401 1_545 S
C462 C461 1.396 1_545 S
C463 C458 1.499 1_545 S
C463 H464 0.959 1_545 S
C463 H465 0.960 . S
C463 H466 0.961 1_545 S
H464 C463 0.959 1_565 S
H465 C463 0.960 . S
H466 C463 0.961 1_565 S
O467 Co442 1.967 . S
O467 C475 1.258 . S
O468 Co443 1.941 . S
O468 C475 1.266 . S
H469 C471 0.959 . S
H470 C471 0.961 1_545 S
C471 C461 1.510 . S
C471 H469 0.959 . S
C471 H470 0.961 1_565 S
C471 H472 0.960 . S
H472 C471 0.960 . S
H473 N453 0.862 . S
O474 Co442 1.920 . S
O474 C447 1.289 1_565 S
C475 O467 1.258 . S
C475 O468 1.266 . S
Co476 O479 1.970 . S
Co476 N493 1.989 . S
Co476 O501 1.967 . S
Co476 O508 1.920 . S
Co477 O480 1.966 . S
Co477 N486 2.022 . S
Co477 N494 1.993 . S
Co477 O502 1.941 . S
C478 O479 1.258 . S
C478 O480 1.263 . S
O479 Co476 1.970 . S
O479 C478 1.258 . S
O480 Co477 1.966 . S
O480 C478 1.263 . S
C481 O482 1.235 . S
C481 O508 1.289 . S
O482 C481 1.235 . S
C483 C485 1.400 . S
C483 N486 1.351 . S
C483 C488 1.501 . S
C484 C485 1.387 . S
C484 N487 1.341 . S
C485 C483 1.400 . S
C485 C484 1.387 . S
N486 Co477 2.022 . S
N486 C483 1.351 . S
N486 N487 1.365 . S
N487 C484 1.341 . S
N487 N486 1.365 . S
N487 H507 0.862 . S
C488 C483 1.501 . S
C488 H489 0.961 . S
C488 H490 0.961 . S
C488 H491 0.960 . S
H489 C488 0.961 . S
H490 C488 0.961 . S
H491 C488 0.960 . S
C492 N493 1.342 . S
C492 C496 1.401 1_565 S
C492 C497 1.499 1_565 S
N493 Co476 1.989 . S
N493 C492 1.342 . S
N493 N494 1.388 . S
N494 Co477 1.993 . S
N494 N493 1.388 . S
N494 C495 1.352 . S
C495 N494 1.352 . S
C495 C496 1.393 1_565 S
C495 C505 1.508 1_565 S
C496 C492 1.401 1_545 S
C496 C495 1.393 1_545 S
C497 C492 1.499 1_545 S
C497 H498 0.959 1_545 S
C497 H499 0.960 . S
C497 H500 0.961 . S
H498 C497 0.959 1_565 S
H499 C497 0.960 . S
H500 C497 0.961 . S
O501 Co476 1.967 . S
O501 C509 1.258 . S
O502 Co477 1.941 . S
O502 C509 1.266 . S
H503 C505 0.959 . S
H504 C505 0.961 . S
C505 C495 1.508 1_545 S
C505 H503 0.959 . S
C505 H504 0.961 . S
C505 H506 0.960 1_545 S
H506 C505 0.960 1_565 S
H507 N487 0.862 . S
O508 Co476 1.920 . S
O508 C481 1.289 . S
C509 O501 1.258 . S
C509 O502 1.266 . S
Co510 O513 1.970 1_645 S
Co510 N527 1.989 . S
Co510 O535 1.967 . S
Co510 O542 1.920 . S
Co511 O514 1.966 1_655 S
Co511 N520 2.022 . S
Co511 N528 1.993 . S
Co511 O536 1.941 . S
C512 O513 1.258 1_545 S
C512 O514 1.263 . S
O513 Co510 1.970 1_465 S
O513 C512 1.258 1_565 S
O514 Co511 1.966 1_455 S
O514 C512 1.263 . S
C515 O516 1.235 . S
C515 O542 1.289 1_565 S
O516 C515 1.235 . S
C517 C519 1.400 . S
C517 N520 1.351 . S
C517 C522 1.501 1_645 S
C518 C519 1.387 . S
C518 N521 1.341 . S
C519 C517 1.400 . S
C519 C518 1.387 . S
N520 Co511 2.022 . S
N520 C517 1.351 . S
N520 N521 1.365 . S
N521 C518 1.341 . S
N521 N520 1.365 . S
N521 H541 0.862 . S
C522 C517 1.501 1_465 S
C522 H523 0.961 . S
C522 H524 0.961 1_455 S
C522 H525 0.960 . S
H523 C522 0.961 . S
H524 C522 0.961 1_655 S
H525 C522 0.960 . S
C526 N527 1.342 . S
C526 C530 1.401 1_545 S
C526 C531 1.499 1_545 S
N527 Co510 1.989 . S
N527 C526 1.342 . S
N527 N528 1.388 . S
N528 Co511 1.993 . S
N528 N527 1.388 . S
N528 C529 1.346 . S
C529 N528 1.346 . S
C529 C530 1.396 1_545 S
C529 C539 1.510 . S
C530 C526 1.401 1_565 S
C530 C529 1.396 1_565 S
C531 C526 1.499 1_565 S
C531 H532 0.959 1_565 S
C531 H533 0.960 . S
C531 H534 0.961 1_565 S
H532 C531 0.959 1_545 S
H533 C531 0.960 . S
H534 C531 0.961 1_545 S
O535 Co510 1.967 . S
O535 C543 1.258 . S
O536 Co511 1.941 . S
O536 C543 1.266 . S
H537 C539 0.959 . S
H538 C539 0.961 1_565 S
C539 C529 1.510 . S
C539 H537 0.959 . S
C539 H538 0.961 1_545 S
C539 H540 0.960 . S
H540 C539 0.960 . S
H541 N521 0.862 . S
O542 Co510 1.920 . S
O542 C515 1.289 1_545 S
C543 O535 1.258 . S
C543 O536 1.266 . S
Co544 O547 1.970 . S
Co544 N561 1.989 . S
Co544 O569 1.967 . S
Co544 O576 1.920 . S
Co545 O548 1.966 . S
Co545 N554 2.022 . S
Co545 N562 1.993 . S
Co545 O570 1.941 . S
C546 O547 1.258 . S
C546 O548 1.263 . S
O547 Co544 1.970 . S
O547 C546 1.258 . S
O548 Co545 1.966 . S
O548 C546 1.263 . S
C549 O550 1.235 . S
C549 O576 1.289 . S
O550 C549 1.235 . S
C551 C553 1.400 . S
C551 N554 1.351 . S
C551 C556 1.501 . S
C552 C553 1.387 . S
C552 N555 1.341 . S
C553 C551 1.400 . S
C553 C552 1.387 . S
N554 Co545 2.022 . S
N554 C551 1.351 . S
N554 N555 1.365 . S
N555 C552 1.341 . S
N555 N554 1.365 . S
N555 H575 0.862 . S
C556 C551 1.501 . S
C556 H557 0.961 . S
C556 H558 0.961 . S
C556 H559 0.960 . S
H557 C556 0.961 . S
H558 C556 0.961 . S
H559 C556 0.960 . S
C560 N561 1.342 . S
C560 C564 1.401 . S
C560 C565 1.499 . S
N561 Co544 1.989 . S
N561 C560 1.342 . S
N561 N562 1.388 . S
N562 Co545 1.993 . S
N562 N561 1.388 . S
N562 C563 1.346 . S
C563 N562 1.346 . S
C563 C564 1.396 . S
C563 C573 1.510 . S
C564 C560 1.401 . S
C564 C563 1.396 . S
C565 C560 1.499 . S
C565 H566 0.959 . S
C565 H567 0.960 . S
C565 H568 0.961 . S
H566 C565 0.959 . S
H567 C565 0.960 . S
H568 C565 0.961 . S
O569 Co544 1.967 . S
O569 C577 1.258 1_655 S
O570 Co545 1.941 . S
O570 C577 1.266 1_655 S
H571 C573 0.959 . S
H572 C573 0.961 . S
C573 C563 1.510 . S
C573 H571 0.959 . S
C573 H572 0.961 . S
C573 H574 0.960 . S
H574 C573 0.960 . S
H575 N555 0.862 . S
O576 Co544 1.920 . S
O576 C549 1.289 . S
C577 O569 1.258 1_455 S
C577 O570 1.266 1_455 S
Co578 O581 1.970 . S
Co578 N595 1.989 . S
Co578 O603 1.967 . S
Co578 O610 1.920 . S
Co579 O582 1.966 . S
Co579 N588 2.022 . S
Co579 N596 1.993 . S
Co579 O604 1.941 . S
C580 O581 1.258 . S
C580 O582 1.263 . S
O581 Co578 1.970 . S
O581 C580 1.258 . S
O582 Co579 1.966 . S
O582 C580 1.263 . S
C583 O584 1.235 . S
C583 O610 1.289 . S
O584 C583 1.235 . S
C585 C587 1.400 . S
C585 N588 1.351 . S
C585 C590 1.501 . S
C586 C587 1.387 . S
C586 N589 1.341 . S
C587 C585 1.400 . S
C587 C586 1.387 . S
N588 Co579 2.022 . S
N588 C585 1.351 . S
N588 N589 1.365 . S
N589 C586 1.341 . S
N589 N588 1.365 . S
N589 H609 0.862 . S
C590 C585 1.501 . S
C590 H591 0.961 . S
C590 H592 0.961 . S
C590 H593 0.960 . S
H591 C590 0.961 . S
H592 C590 0.961 . S
H593 C590 0.960 . S
C594 N595 1.342 . S
C594 C598 1.401 . S
C594 C599 1.499 . S
N595 Co578 1.989 . S
N595 C594 1.342 . S
N595 N596 1.388 . S
N596 Co579 1.993 . S
N596 N595 1.388 . S
N596 C597 1.346 . S
C597 N596 1.346 . S
C597 C598 1.396 . S
C597 C607 1.510 . S
C598 C594 1.401 . S
C598 C597 1.396 . S
C599 C594 1.499 . S
C599 H600 0.959 . S
C599 H601 0.960 . S
C599 H602 0.961 . S
H600 C599 0.959 . S
H601 C599 0.960 . S
H602 C599 0.961 . S
O603 Co578 1.967 . S
O603 C611 1.258 . S
O604 Co579 1.941 . S
O604 C611 1.266 . S
H605 C607 0.959 . S
H606 C607 0.961 . S
C607 C597 1.510 . S
C607 H605 0.959 . S
C607 H606 0.961 . S
C607 H608 0.960 . S
H608 C607 0.960 . S
H609 N589 0.862 . S
O610 Co578 1.920 . S
O610 C583 1.289 . S
C611 O603 1.258 . S
C611 O604 1.266 . S
Co612 O615 1.970 . S
Co612 N629 1.989 . S
Co612 O637 1.967 . S
Co612 O644 1.920 . S
Co613 O616 1.966 . S
Co613 N622 2.022 . S
Co613 N630 1.993 . S
Co613 O638 1.941 . S
C614 O615 1.258 . S
C614 O616 1.263 . S
O615 Co612 1.970 . S
O615 C614 1.258 . S
O616 Co613 1.966 . S
O616 C614 1.263 . S
C617 O618 1.235 . S
C617 O644 1.289 . S
O618 C617 1.235 . S
C619 C621 1.400 . S
C619 N622 1.351 . S
C619 C624 1.501 . S
C620 C621 1.387 . S
C620 N623 1.341 . S
C621 C619 1.400 . S
C621 C620 1.387 . S
N622 Co613 2.022 . S
N622 C619 1.351 . S
N622 N623 1.365 . S
N623 C620 1.341 . S
N623 N622 1.365 . S
N623 H643 0.862 . S
C624 C619 1.501 . S
C624 H625 0.961 . S
C624 H626 0.961 . S
C624 H627 0.960 . S
H625 C624 0.961 . S
H626 C624 0.961 . S
H627 C624 0.960 . S
C628 N629 1.342 . S
C628 C632 1.401 . S
C628 C633 1.499 . S
N629 Co612 1.989 . S
N629 C628 1.342 . S
N629 N630 1.388 . S
N630 Co613 1.993 . S
N630 N629 1.388 . S
N630 C631 1.346 . S
C631 N630 1.346 . S
C631 C632 1.396 . S
C631 C641 1.510 . S
C632 C628 1.401 . S
C632 C631 1.396 . S
C633 C628 1.499 . S
C633 H634 0.959 . S
C633 H635 0.960 . S
C633 H636 0.961 . S
H634 C633 0.959 . S
H635 C633 0.960 . S
H636 C633 0.961 . S
O637 Co612 1.967 . S
O637 C645 1.258 . S
O638 Co613 1.941 . S
O638 C645 1.266 . S
H639 C641 0.959 . S
H640 C641 0.961 . S
C641 C631 1.510 . S
C641 H639 0.959 . S
C641 H640 0.961 . S
C641 H642 0.960 . S
H642 C641 0.960 . S
H643 N623 0.862 . S
O644 Co612 1.920 . S
O644 C617 1.289 . S
C645 O637 1.258 . S
C645 O638 1.266 . S
Co646 O649 1.970 1_655 S
Co646 N663 1.989 . S
Co646 O671 1.967 . S
Co646 O678 1.920 . S
Co647 O650 1.966 1_655 S
Co647 N656 2.022 . S
Co647 N664 1.993 . S
Co647 O672 1.941 . S
C648 O649 1.258 . S
C648 O650 1.263 . S
O649 Co646 1.970 1_455 S
O649 C648 1.258 . S
O650 Co647 1.966 1_455 S
O650 C648 1.263 . S
C651 O652 1.235 . S
C651 O678 1.289 . S
O652 C651 1.235 . S
C653 C655 1.400 . S
C653 N656 1.351 . S
C653 C658 1.501 1_655 S
C654 C655 1.387 . S
C654 N657 1.341 . S
C655 C653 1.400 . S
C655 C654 1.387 . S
N656 Co647 2.022 . S
N656 C653 1.351 . S
N656 N657 1.365 . S
N657 C654 1.341 . S
N657 N656 1.365 . S
N657 H677 0.862 . S
C658 C653 1.501 1_455 S
C658 H659 0.961 . S
C658 H660 0.961 . S
C658 H661 0.960 . S
H659 C658 0.961 . S
H660 C658 0.961 . S
H661 C658 0.960 . S
C662 N663 1.342 . S
C662 C666 1.401 . S
C662 C667 1.499 . S
N663 Co646 1.989 . S
N663 C662 1.342 . S
N663 N664 1.388 . S
N664 Co647 1.993 . S
N664 N663 1.388 . S
N664 C665 1.346 . S
C665 N664 1.346 . S
C665 C666 1.396 . S
C665 C675 1.510 . S
C666 C662 1.401 . S
C666 C665 1.396 . S
C667 C662 1.499 . S
C667 H668 0.959 . S
C667 H669 0.960 . S
C667 H670 0.961 . S
H668 C667 0.959 . S
H669 C667 0.960 . S
H670 C667 0.961 . S
O671 Co646 1.967 . S
O671 C679 1.258 . S
O672 Co647 1.941 . S
O672 C679 1.266 . S
H673 C675 0.959 . S
H674 C675 0.961 . S
C675 C665 1.510 . S
C675 H673 0.959 . S
C675 H674 0.961 . S
C675 H676 0.960 . S
H676 C675 0.960 . S
H677 N657 0.862 . S
O678 Co646 1.920 . S
O678 C651 1.289 . S
C679 O671 1.258 . S
C679 O672 1.266 . S
Co680 O683 1.970 . S
Co680 N697 1.989 . S
Co680 O705 1.967 . S
Co680 O712 1.920 . S
Co681 O684 1.966 . S
Co681 N690 2.022 . S
Co681 N698 1.993 . S
Co681 O706 1.941 . S
C682 O683 1.258 . S
C682 O684 1.263 . S
O683 Co680 1.970 . S
O683 C682 1.258 . S
O684 Co681 1.966 . S
O684 C682 1.263 . S
C685 O686 1.235 . S
C685 O712 1.289 . S
O686 C685 1.235 . S
C687 C689 1.400 . S
C687 N690 1.351 . S
C687 C692 1.501 . S
C688 C689 1.387 . S
C688 N691 1.341 . S
C689 C687 1.400 . S
C689 C688 1.387 . S
N690 Co681 2.022 . S
N690 C687 1.351 . S
N690 N691 1.365 . S
N691 C688 1.341 . S
N691 N690 1.365 . S
N691 H711 0.862 . S
C692 C687 1.501 . S
C692 H693 0.961 . S
C692 H694 0.961 . S
C692 H695 0.960 . S
H693 C692 0.961 . S
H694 C692 0.961 . S
H695 C692 0.960 . S
C696 N697 1.342 . S
C696 C700 1.401 . S
C696 C701 1.499 . S
N697 Co680 1.989 . S
N697 C696 1.342 . S
N697 N698 1.388 . S
N698 Co681 1.993 . S
N698 N697 1.388 . S
N698 C699 1.346 . S
C699 N698 1.346 . S
C699 C700 1.396 . S
C699 C709 1.510 . S
C700 C696 1.401 . S
C700 C699 1.396 . S
C701 C696 1.499 . S
C701 H702 0.959 . S
C701 H703 0.960 . S
C701 H704 0.961 . S
H702 C701 0.959 . S
H703 C701 0.960 . S
H704 C701 0.961 . S
O705 Co680 1.967 . S
O705 C713 1.258 1_655 S
O706 Co681 1.941 . S
O706 C713 1.266 1_655 S
H707 C709 0.959 . S
H708 C709 0.961 . S
C709 C699 1.510 . S
C709 H707 0.959 . S
C709 H708 0.961 . S
C709 H710 0.960 . S
H710 C709 0.960 . S
H711 N691 0.862 . S
O712 Co680 1.920 . S
O712 C685 1.289 . S
C713 O705 1.258 1_455 S
C713 O706 1.266 1_455 S
Co714 O717 1.970 1_655 S
Co714 N731 1.989 . S
Co714 O739 1.967 . S
Co714 O746 1.920 . S
Co715 O718 1.966 1_655 S
Co715 N724 2.022 . S
Co715 N732 1.993 . S
Co715 O740 1.941 . S
C716 O717 1.258 . S
C716 O718 1.263 . S
O717 Co714 1.970 1_455 S
O717 C716 1.258 . S
O718 Co715 1.966 1_455 S
O718 C716 1.263 . S
C719 O720 1.235 . S
C719 O746 1.289 . S
O720 C719 1.235 . S
C721 C723 1.400 . S
C721 N724 1.351 . S
C721 C726 1.501 1_655 S
C722 C723 1.387 . S
C722 N725 1.341 . S
C723 C721 1.400 . S
C723 C722 1.387 . S
N724 Co715 2.022 . S
N724 C721 1.351 . S
N724 N725 1.365 . S
N725 C722 1.341 . S
N725 N724 1.365 . S
N725 H745 0.862 . S
C726 C721 1.501 1_455 S
C726 H727 0.961 . S
C726 H728 0.961 . S
C726 H729 0.960 . S
H727 C726 0.961 . S
H728 C726 0.961 . S
H729 C726 0.960 . S
C730 N731 1.342 . S
C730 C734 1.401 . S
C730 C735 1.499 . S
N731 Co714 1.989 . S
N731 C730 1.342 . S
N731 N732 1.388 . S
N732 Co715 1.993 . S
N732 N731 1.388 . S
N732 C733 1.346 . S
C733 N732 1.346 . S
C733 C734 1.396 . S
C733 C743 1.510 . S
C734 C730 1.401 . S
C734 C733 1.396 . S
C735 C730 1.499 . S
C735 H736 0.959 . S
C735 H737 0.960 . S
C735 H738 0.961 . S
H736 C735 0.959 . S
H737 C735 0.960 . S
H738 C735 0.961 . S
O739 Co714 1.967 . S
O739 C747 1.258 . S
O740 Co715 1.941 . S
O740 C747 1.266 . S
H741 C743 0.959 . S
H742 C743 0.961 . S
C743 C733 1.510 . S
C743 H741 0.959 . S
C743 H742 0.961 . S
C743 H744 0.960 . S
H744 C743 0.960 . S
H745 N725 0.862 . S
O746 Co714 1.920 . S
O746 C719 1.289 . S
C747 O739 1.258 . S
C747 O740 1.266 . S
Co748 O751 1.970 . S
Co748 N765 1.989 . S
Co748 O773 1.967 . S
Co748 O780 1.920 . S
Co749 O752 1.966 . S
Co749 N758 2.022 . S
Co749 N766 1.993 . S
Co749 O774 1.941 . S
C750 O751 1.258 . S
C750 O752 1.263 . S
O751 Co748 1.970 . S
O751 C750 1.258 . S
O752 Co749 1.966 . S
O752 C750 1.263 . S
C753 O754 1.235 . S
C753 O780 1.289 . S
O754 C753 1.235 . S
C755 C757 1.400 . S
C755 N758 1.351 . S
C755 C760 1.501 . S
C756 C757 1.387 . S
C756 N759 1.341 . S
C757 C755 1.400 . S
C757 C756 1.387 . S
N758 Co749 2.022 . S
N758 C755 1.351 . S
N758 N759 1.365 . S
N759 C756 1.341 . S
N759 N758 1.365 . S
N759 H779 0.862 . S
C760 C755 1.501 . S
C760 H761 0.961 . S
C760 H762 0.961 . S
C760 H763 0.960 . S
H761 C760 0.961 . S
H762 C760 0.961 . S
H763 C760 0.960 . S
C764 N765 1.342 . S
C764 C768 1.401 . S
C764 C769 1.499 . S
N765 Co748 1.989 . S
N765 C764 1.342 . S
N765 N766 1.388 . S
N766 Co749 1.993 . S
N766 N765 1.388 . S
N766 C767 1.346 . S
C767 N766 1.346 . S
C767 C768 1.396 . S
C767 C777 1.510 . S
C768 C764 1.401 . S
C768 C767 1.396 . S
C769 C764 1.499 . S
C769 H770 0.959 . S
C769 H771 0.960 . S
C769 H772 0.961 . S
H770 C769 0.959 . S
H771 C769 0.960 . S
H772 C769 0.961 . S
O773 Co748 1.967 . S
O773 C781 1.258 . S
O774 Co749 1.941 . S
O774 C781 1.266 . S
H775 C777 0.959 . S
H776 C777 0.961 . S
C777 C767 1.510 . S
C777 H775 0.959 . S
C777 H776 0.961 . S
C777 H778 0.960 . S
H778 C777 0.960 . S
H779 N759 0.862 . S
O780 Co748 1.920 . S
O780 C753 1.289 . S
C781 O773 1.258 . S
C781 O774 1.266 . S
Co782 O785 1.970 . S
Co782 N799 1.989 . S
Co782 O807 1.967 . S
Co782 O814 1.920 . S
Co783 O786 1.966 . S
Co783 N792 2.022 . S
Co783 N800 1.993 . S
Co783 O808 1.941 . S
C784 O785 1.258 . S
C784 O786 1.263 . S
O785 Co782 1.970 . S
O785 C784 1.258 . S
O786 Co783 1.966 . S
O786 C784 1.263 . S
C787 O788 1.235 . S
C787 O814 1.289 . S
O788 C787 1.235 . S
C789 C791 1.400 . S
C789 N792 1.351 . S
C789 C794 1.501 . S
C790 C791 1.387 . S
C790 N793 1.341 . S
C791 C789 1.400 . S
C791 C790 1.387 . S
N792 Co783 2.022 . S
N792 C789 1.351 . S
N792 N793 1.365 . S
N793 C790 1.341 . S
N793 N792 1.365 . S
N793 H813 0.862 . S
C794 C789 1.501 . S
C794 H795 0.961 . S
C794 H796 0.961 . S
C794 H797 0.960 . S
H795 C794 0.961 . S
H796 C794 0.961 . S
H797 C794 0.960 . S
C798 N799 1.342 . S
C798 C802 1.401 . S
C798 C803 1.499 . S
N799 Co782 1.989 . S
N799 C798 1.342 . S
N799 N800 1.388 . S
N800 Co783 1.993 . S
N800 N799 1.388 . S
N800 C801 1.346 . S
C801 N800 1.346 . S
C801 C802 1.396 . S
C801 C811 1.510 . S
C802 C798 1.401 . S
C802 C801 1.396 . S
C803 C798 1.499 . S
C803 H804 0.959 . S
C803 H805 0.960 . S
C803 H806 0.961 . S
H804 C803 0.959 . S
H805 C803 0.960 . S
H806 C803 0.961 . S
O807 Co782 1.967 . S
O807 C815 1.258 . S
O808 Co783 1.941 . S
O808 C815 1.266 . S
H809 C811 0.959 . S
H810 C811 0.961 . S
C811 C801 1.510 . S
C811 H809 0.959 . S
C811 H810 0.961 . S
C811 H812 0.960 . S
H812 C811 0.960 . S
H813 N793 0.862 . S
O814 Co782 1.920 . S
O814 C787 1.289 . S
C815 O807 1.258 . S
C815 O808 1.266 . S
Co816 O819 1.970 . S
Co816 N833 1.989 . S
Co816 O841 1.967 . S
Co816 O848 1.920 . S
Co817 O820 1.966 . S
Co817 N826 2.022 . S
Co817 N834 1.993 . S
Co817 O842 1.941 . S
C818 O819 1.258 . S
C818 O820 1.263 . S
O819 Co816 1.970 . S
O819 C818 1.258 . S
O820 Co817 1.966 . S
O820 C818 1.263 . S
C821 O822 1.235 . S
C821 O848 1.289 . S
O822 C821 1.235 . S
C823 C825 1.400 . S
C823 N826 1.351 . S
C823 C828 1.501 . S
C824 C825 1.387 . S
C824 N827 1.341 . S
C825 C823 1.400 . S
C825 C824 1.387 . S
N826 Co817 2.022 . S
N826 C823 1.351 . S
N826 N827 1.365 . S
N827 C824 1.341 . S
N827 N826 1.365 . S
N827 H847 0.862 . S
C828 C823 1.501 . S
C828 H829 0.961 . S
C828 H830 0.961 . S
C828 H831 0.960 . S
H829 C828 0.961 . S
H830 C828 0.961 . S
H831 C828 0.960 . S
C832 N833 1.342 . S
C832 C836 1.401 . S
C832 C837 1.499 . S
N833 Co816 1.989 . S
N833 C832 1.342 . S
N833 N834 1.388 . S
N834 Co817 1.993 . S
N834 N833 1.388 . S
N834 C835 1.346 . S
C835 N834 1.346 . S
C835 C836 1.396 . S
C835 C845 1.510 . S
C836 C832 1.401 . S
C836 C835 1.396 . S
C837 C832 1.499 . S
C837 H838 0.959 . S
C837 H839 0.960 . S
C837 H840 0.961 . S
H838 C837 0.959 . S
H839 C837 0.960 . S
H840 C837 0.961 . S
O841 Co816 1.967 . S
O841 C849 1.266 . S
O842 Co817 1.941 . S
O842 C849 1.269 . S
H843 C845 0.959 . S
H844 C845 0.961 . S
C845 C835 1.510 . S
C845 H843 0.959 . S
C845 H844 0.961 . S
C845 H846 0.960 . S
H846 C845 0.960 . S
H847 N827 0.862 . S
O848 Co816 1.920 . S
O848 C821 1.289 . S
C849 O841 1.266 . S
C849 O842 1.269 . S
Co850 O853 1.970 . S
Co850 N867 1.989 . S
Co850 O875 1.967 . S
Co850 O882 1.920 . S
Co851 O854 1.966 . S
Co851 N860 2.022 . S
Co851 N868 1.993 . S
Co851 O876 1.941 . S
C852 O853 1.258 . S
C852 O854 1.263 . S
O853 Co850 1.970 . S
O853 C852 1.258 . S
O854 Co851 1.966 . S
O854 C852 1.263 . S
C855 O856 1.235 . S
C855 O882 1.289 . S
O856 C855 1.235 . S
C857 C859 1.400 . S
C857 N860 1.351 . S
C857 C862 1.501 . S
C858 C859 1.387 . S
C858 N861 1.341 . S
C859 C857 1.400 . S
C859 C858 1.387 . S
N860 Co851 2.022 . S
N860 C857 1.351 . S
N860 N861 1.365 . S
N861 C858 1.341 . S
N861 N860 1.365 . S
N861 H881 0.862 . S
C862 C857 1.501 . S
C862 H863 0.961 . S
C862 H864 0.961 . S
C862 H865 0.960 . S
H863 C862 0.961 . S
H864 C862 0.961 . S
H865 C862 0.960 . S
C866 N867 1.342 . S
C866 C870 1.401 . S
C866 C871 1.499 . S
N867 Co850 1.989 . S
N867 C866 1.342 . S
N867 N868 1.388 . S
N868 Co851 1.993 . S
N868 N867 1.388 . S
N868 C869 1.346 . S
C869 N868 1.346 . S
C869 C870 1.396 . S
C869 C879 1.510 . S
C870 C866 1.401 . S
C870 C869 1.396 . S
C871 C866 1.499 . S
C871 H872 0.959 . S
C871 H873 0.960 . S
C871 H874 0.961 . S
H872 C871 0.959 . S
H873 C871 0.960 . S
H874 C871 0.961 . S
O875 Co850 1.967 . S
O875 C883 1.258 . S
O876 Co851 1.941 . S
O876 C883 1.266 . S
H877 C879 0.959 . S
H878 C879 0.961 . S
C879 C869 1.510 . S
C879 H877 0.959 . S
C879 H878 0.961 . S
C879 H880 0.960 . S
H880 C879 0.960 . S
H881 N861 0.862 . S
O882 Co850 1.920 . S
O882 C855 1.289 . S
C883 O875 1.258 . S
C883 O876 1.266 . S
Co884 O887 1.970 . S
Co884 N901 1.989 . S
Co884 O909 1.967 . S
Co884 O916 1.920 . S
Co885 O888 1.966 . S
Co885 N894 2.022 . S
Co885 N902 1.993 . S
Co885 O910 1.941 . S
C886 O887 1.258 . S
C886 O888 1.263 . S
O887 Co884 1.970 . S
O887 C886 1.258 . S
O888 Co885 1.966 . S
O888 C886 1.263 . S
C889 O890 1.235 . S
C889 O916 1.289 . S
O890 C889 1.235 . S
C891 C893 1.400 . S
C891 N894 1.351 . S
C891 C896 1.501 . S
C892 C893 1.387 . S
C892 N895 1.341 . S
C893 C891 1.400 . S
C893 C892 1.387 . S
N894 Co885 2.022 . S
N894 C891 1.351 . S
N894 N895 1.365 . S
N895 C892 1.341 . S
N895 N894 1.365 . S
N895 H915 0.862 . S
C896 C891 1.501 . S
C896 H897 0.961 . S
C896 H898 0.961 . S
C896 H899 0.960 . S
H897 C896 0.961 . S
H898 C896 0.961 . S
H899 C896 0.960 . S
C900 N901 1.342 . S
C900 C904 1.401 . S
C900 C905 1.499 . S
N901 Co884 1.989 . S
N901 C900 1.342 . S
N901 N902 1.388 . S
N902 Co885 1.993 . S
N902 N901 1.388 . S
N902 C903 1.346 . S
C903 N902 1.346 . S
C903 C904 1.396 . S
C903 C913 1.510 . S
C904 C900 1.401 . S
C904 C903 1.396 . S
C905 C900 1.499 . S
C905 H906 0.959 . S
C905 H907 0.960 . S
C905 H908 0.961 . S
H906 C905 0.959 . S
H907 C905 0.960 . S
H908 C905 0.961 . S
O909 Co884 1.967 . S
O909 C917 1.258 . S
O910 Co885 1.941 . S
O910 C917 1.266 . S
H911 C913 0.959 . S
H912 C913 0.961 . S
C913 C903 1.510 . S
C913 H911 0.959 . S
C913 H912 0.961 . S
C913 H914 0.960 . S
H914 C913 0.960 . S
H915 N895 0.862 . S
O916 Co884 1.920 . S
O916 C889 1.289 . S
C917 O909 1.258 . S
C917 O910 1.266 . S
Co918 O921 1.970 1_455 S
Co918 N935 1.989 . S
Co918 O943 1.967 . S
Co918 O950 1.920 . S
Co919 O922 1.966 1_455 S
Co919 N928 2.022 . S
Co919 N936 1.993 . S
Co919 O944 1.941 . S
C920 O921 1.258 . S
C920 O922 1.263 . S
O921 Co918 1.970 1_655 S
O921 C920 1.258 . S
O922 Co919 1.966 1_655 S
O922 C920 1.263 . S
C923 O924 1.235 . S
C923 O950 1.289 . S
O924 C923 1.235 . S
C925 C927 1.400 . S
C925 N928 1.351 . S
C925 C930 1.501 1_455 S
C926 C927 1.387 . S
C926 N929 1.341 . S
C927 C925 1.400 . S
C927 C926 1.387 . S
N928 Co919 2.022 . S
N928 C925 1.351 . S
N928 N929 1.365 . S
N929 C926 1.341 . S
N929 N928 1.365 . S
N929 H949 0.862 . S
C930 C925 1.501 1_655 S
C930 H931 0.961 . S
C930 H932 0.961 1_655 S
C930 H933 0.960 . S
H931 C930 0.961 . S
H932 C930 0.961 1_455 S
H933 C930 0.960 . S
C934 N935 1.342 . S
C934 C938 1.401 . S
C934 C939 1.499 . S
N935 Co918 1.989 . S
N935 C934 1.342 . S
N935 N936 1.388 . S
N936 Co919 1.993 . S
N936 N935 1.388 . S
N936 C937 1.346 . S
C937 N936 1.346 . S
C937 C938 1.396 . S
C937 C947 1.510 . S
C938 C934 1.401 . S
C938 C937 1.396 . S
C939 C934 1.499 . S
C939 H940 0.959 . S
C939 H941 0.960 . S
C939 H942 0.961 . S
H940 C939 0.959 . S
H941 C939 0.960 . S
H942 C939 0.961 . S
O943 Co918 1.967 . S
O943 C951 1.258 . S
O944 Co919 1.941 . S
O944 C951 1.266 . S
H945 C947 0.959 . S
H946 C947 0.961 . S
C947 C937 1.510 . S
C947 H945 0.959 . S
C947 H946 0.961 . S
C947 H948 0.960 . S
H948 C947 0.960 . S
H949 N929 0.862 . S
O950 Co918 1.920 . S
O950 C923 1.289 . S
C951 O943 1.258 . S
C951 O944 1.266 . S
Co952 O955 1.970 . S
Co952 N969 1.989 . S
Co952 O977 1.967 . S
Co952 O984 1.920 . S
Co953 O956 1.966 . S
Co953 N962 2.022 . S
Co953 N970 1.993 . S
Co953 O978 1.941 . S
C954 O955 1.258 . S
C954 O956 1.263 . S
O955 Co952 1.970 . S
O955 C954 1.258 . S
O956 Co953 1.966 . S
O956 C954 1.263 . S
C957 O958 1.235 . S
C957 O984 1.289 . S
O958 C957 1.235 . S
C959 C961 1.400 . S
C959 N962 1.351 . S
C959 C964 1.501 . S
C960 C961 1.387 . S
C960 N963 1.341 . S
C961 C959 1.400 . S
C961 C960 1.387 . S
N962 Co953 2.022 . S
N962 C959 1.351 . S
N962 N963 1.365 . S
N963 C960 1.341 . S
N963 N962 1.365 . S
N963 H983 0.862 . S
C964 C959 1.501 . S
C964 H965 0.961 . S
C964 H966 0.961 . S
C964 H967 0.960 . S
H965 C964 0.961 . S
H966 C964 0.961 . S
H967 C964 0.960 . S
C968 N969 1.342 . S
C968 C972 1.401 . S
C968 C973 1.499 . S
N969 Co952 1.989 . S
N969 C968 1.342 . S
N969 N970 1.388 . S
N970 Co953 1.993 . S
N970 N969 1.388 . S
N970 C971 1.346 . S
C971 N970 1.346 . S
C971 C972 1.396 . S
C971 C981 1.510 . S
C972 C968 1.401 . S
C972 C971 1.396 . S
C973 C968 1.499 . S
C973 H974 0.959 . S
C973 H975 0.960 . S
C973 H976 0.961 . S
H974 C973 0.959 . S
H975 C973 0.960 . S
H976 C973 0.961 . S
O977 Co952 1.967 . S
O977 C985 1.265 . S
O978 Co953 1.941 . S
O978 C985 1.268 . S
H979 C981 0.959 . S
H980 C981 0.961 . S
C981 C971 1.510 . S
C981 H979 0.959 . S
C981 H980 0.961 . S
C981 H982 0.960 . S
H982 C981 0.960 . S
H983 N963 0.862 . S
O984 Co952 1.920 . S
O984 C957 1.289 . S
C985 O977 1.265 . S
C985 O978 1.268 . S
Co986 O989 1.970 1_455 S
Co986 N1003 1.989 . S
Co986 O1011 1.967 . S
Co986 O1018 1.920 . S
Co987 O990 1.966 1_455 S
Co987 N996 2.022 . S
Co987 N1004 1.993 . S
Co987 O1012 1.941 . S
C988 O989 1.258 . S
C988 O990 1.263 . S
O989 Co986 1.970 1_655 S
O989 C988 1.258 . S
O990 Co987 1.966 1_655 S
O990 C988 1.263 . S
C991 O992 1.235 . S
C991 O1018 1.289 . S
O992 C991 1.235 . S
C993 C995 1.400 . S
C993 N996 1.351 . S
C993 C998 1.501 1_455 S
C994 C995 1.387 . S
C994 N997 1.341 . S
C995 C993 1.400 . S
C995 C994 1.387 . S
N996 Co987 2.022 . S
N996 C993 1.351 . S
N996 N997 1.365 . S
N997 C994 1.341 . S
N997 N996 1.365 . S
N997 H1017 0.862 . S
C998 C993 1.501 1_655 S
C998 H999 0.961 . S
C998 H1000 0.961 1_655 S
C998 H1001 0.960 . S
H999 C998 0.961 . S
H1000 C998 0.961 1_455 S
H1001 C998 0.960 . S
C1002 N1003 1.342 . S
C1002 C1006 1.401 . S
C1002 C1007 1.499 . S
N1003 Co986 1.989 . S
N1003 C1002 1.342 . S
N1003 N1004 1.388 . S
N1004 Co987 1.993 . S
N1004 N1003 1.388 . S
N1004 C1005 1.346 . S
C1005 N1004 1.346 . S
C1005 C1006 1.396 . S
C1005 C1015 1.510 . S
C1006 C1002 1.401 . S
C1006 C1005 1.396 . S
C1007 C1002 1.499 . S
C1007 H1008 0.959 . S
C1007 H1009 0.960 . S
C1007 H1010 0.961 . S
H1008 C1007 0.959 . S
H1009 C1007 0.960 . S
H1010 C1007 0.961 . S
O1011 Co986 1.967 . S
O1011 C1019 1.258 . S
O1012 Co987 1.941 . S
O1012 C1019 1.266 . S
H1013 C1015 0.959 . S
H1014 C1015 0.961 . S
C1015 C1005 1.510 . S
C1015 H1013 0.959 . S
C1015 H1014 0.961 . S
C1015 H1016 0.960 . S
H1016 C1015 0.960 . S
H1017 N997 0.862 . S
O1018 Co986 1.920 . S
O1018 C991 1.289 . S
C1019 O1011 1.258 . S
C1019 O1012 1.266 . S
Co1020 O1023 1.970 . S
Co1020 N1037 1.989 . S
Co1020 O1045 1.967 . S
Co1020 O1052 1.920 . S
Co1021 O1024 1.966 . S
Co1021 N1030 2.022 . S
Co1021 N1038 1.993 . S
Co1021 O1046 1.941 . S
C1022 O1023 1.258 . S
C1022 O1024 1.263 . S
O1023 Co1020 1.970 . S
O1023 C1022 1.258 . S
O1024 Co1021 1.966 . S
O1024 C1022 1.263 . S
C1025 O1026 1.235 . S
C1025 O1052 1.289 . S
O1026 C1025 1.235 . S
C1027 C1029 1.400 . S
C1027 N1030 1.351 . S
C1027 C1032 1.501 . S
C1028 C1029 1.387 . S
C1028 N1031 1.341 . S
C1029 C1027 1.400 . S
C1029 C1028 1.387 . S
N1030 Co1021 2.022 . S
N1030 C1027 1.351 . S
N1030 N1031 1.365 . S
N1031 C1028 1.341 . S
N1031 N1030 1.365 . S
N1031 H1051 0.862 . S
C1032 C1027 1.501 . S
C1032 H1033 0.961 . S
C1032 H1034 0.961 . S
C1032 H1035 0.960 . S
H1033 C1032 0.961 . S
H1034 C1032 0.961 . S
H1035 C1032 0.960 . S
C1036 N1037 1.342 . S
C1036 C1040 1.401 . S
C1036 C1041 1.499 . S
N1037 Co1020 1.989 . S
N1037 C1036 1.342 . S
N1037 N1038 1.388 . S
N1038 Co1021 1.993 . S
N1038 N1037 1.388 . S
N1038 C1039 1.346 . S
C1039 N1038 1.346 . S
C1039 C1040 1.396 . S
C1039 C1049 1.510 . S
C1040 C1036 1.401 . S
C1040 C1039 1.396 . S
C1041 C1036 1.499 . S
C1041 H1042 0.959 . S
C1041 H1043 0.960 . S
C1041 H1044 0.961 . S
H1042 C1041 0.959 . S
H1043 C1041 0.960 . S
H1044 C1041 0.961 . S
O1045 Co1020 1.967 . S
O1045 C1053 1.258 . S
O1046 Co1021 1.941 . S
O1046 C1053 1.266 . S
H1047 C1049 0.959 . S
H1048 C1049 0.961 . S
C1049 C1039 1.510 . S
C1049 H1047 0.959 . S
C1049 H1048 0.961 . S
C1049 H1050 0.960 . S
H1050 C1049 0.960 . S
H1051 N1031 0.862 . S
O1052 Co1020 1.920 . S
O1052 C1025 1.289 . S
C1053 O1045 1.258 . S
C1053 O1046 1.266 . S
Co1054 O1057 1.970 . S
Co1054 N1071 1.989 . S
Co1054 O1079 1.967 . S
Co1054 O1086 1.920 . S
Co1055 O1058 1.966 . S
Co1055 N1064 2.022 . S
Co1055 N1072 1.993 . S
Co1055 O1080 1.941 . S
C1056 O1057 1.258 . S
C1056 O1058 1.263 . S
O1057 Co1054 1.970 . S
O1057 C1056 1.258 . S
O1058 Co1055 1.966 . S
O1058 C1056 1.263 . S
C1059 O1060 1.235 . S
C1059 O1086 1.289 . S
O1060 C1059 1.235 . S
C1061 C1063 1.400 . S
C1061 N1064 1.351 . S
C1061 C1066 1.501 . S
C1062 C1063 1.387 . S
C1062 N1065 1.341 . S
C1063 C1061 1.400 . S
C1063 C1062 1.387 . S
N1064 Co1055 2.022 . S
N1064 C1061 1.351 . S
N1064 N1065 1.365 . S
N1065 C1062 1.341 . S
N1065 N1064 1.365 . S
N1065 H1085 0.862 . S
C1066 C1061 1.501 . S
C1066 H1067 0.961 . S
C1066 H1068 0.961 . S
C1066 H1069 0.960 . S
H1067 C1066 0.961 . S
H1068 C1066 0.961 . S
H1069 C1066 0.960 . S
C1070 N1071 1.342 . S
C1070 C1074 1.401 . S
C1070 C1075 1.499 . S
N1071 Co1054 1.989 . S
N1071 C1070 1.342 . S
N1071 N1072 1.388 . S
N1072 Co1055 1.993 . S
N1072 N1071 1.388 . S
N1072 C1073 1.346 . S
C1073 N1072 1.346 . S
C1073 C1074 1.396 . S
C1073 C1083 1.510 . S
C1074 C1070 1.401 . S
C1074 C1073 1.396 . S
C1075 C1070 1.499 . S
C1075 H1076 0.959 . S
C1075 H1077 0.960 . S
C1075 H1078 0.961 . S
H1076 C1075 0.959 . S
H1077 C1075 0.960 . S
H1078 C1075 0.961 . S
O1079 Co1054 1.967 . S
O1079 C1087 1.258 . S
O1080 Co1055 1.941 . S
O1080 C1087 1.266 . S
H1081 C1083 0.959 . S
H1082 C1083 0.961 . S
C1083 C1073 1.510 . S
C1083 H1081 0.959 . S
C1083 H1082 0.961 . S
C1083 H1084 0.960 . S
H1084 C1083 0.960 . S
H1085 N1065 0.862 . S
O1086 Co1054 1.920 . S
O1086 C1059 1.289 . S
C1087 O1079 1.258 . S
C1087 O1080 1.266 . S
C33 C645 0.339 . S
C679 C67 0.338 1_655 S
C577 C101 0.339 1_455 S
C135 C611 0.337 . S
C781 C169 0.339 . S
C815 C203 0.337 . S
C237 C713 0.339 1_655 S
C271 C747 0.338 1_455 S
C917 C305 0.341 . S
C951 C339 0.341 1_455 S
C373 C849 0.340 1_655 S
C407 C883 0.342 . S
C441 C1053 0.341 . S
C475 C1087 0.342 . S
C985 C509 0.340 1_455 S
C543 C1019 0.341 1_655 S
C9 C821 1.767 . S
C311 C43 1.767 1_645 S
C889 C77 1.767 . S
C111 C379 1.766 1_544 S
C145 C957 1.767 . S
C179 C447 1.767 1_565 S
C1025 C213 1.767 . S
C515 C247 1.767 1_664 S
C553 C277 1.767 . S
C621 C345 1.767 . S
C689 C413 1.767 . S
C481 C757 1.767 . S
C855 C587 1.768 1_556 S
C923 C655 1.767 1_455 S
C723 C991 1.767 1_656 S
C791 C1059 1.768 . S
C20 C954 1.500 . S
C54 C444 1.501 . S
C1022 C88 1.500 . S
C512 C122 1.501 . S
C818 C156 1.500 . S
C308 C190 1.501 . S
C224 C886 1.500 . S
C376 C258 1.501 . S
C682 C292 1.869 . S
C326 C172 1.869 . S
C750 C360 1.869 . S
C394 C240 1.869 . S
C428 C546 1.869 . S
C36 C462 1.869 . S
C614 C496 1.869 . S
C530 C104 1.869 . S
C564 C410 1.500 . S
C598 C988 1.501 . S
C478 C632 1.500 . S
C666 C1056 1.501 . S
C700 C274 1.500 . S
C852 C734 1.501 . S
C768 C342 1.500 . S
C802 C920 1.501 . S
C836 C138 1.869 . S
C716 C870 1.869 . S
C904 C206 1.869 . S
C784 C938 1.870 . S
C972 C2 1.869 . S
C1006 C580 1.870 . S
C1040 C70 1.869 . S
C1074 C648 1.869 . S
C5 C175 2.850 . S
C209 C39 2.850 . S
C73 C243 2.850 . S
C107 C141 2.850 . S
C451 C281 1.448 . S
C485 C315 1.448 . S
C519 C349 1.448 . S
C383 C417 1.448 . S
C549 C719 2.851 . S
C753 C583 2.851 . S
C617 C787 2.851 . S
C685 C651 2.851 . S
C995 C825 1.449 . S
C1029 C859 1.449 . S
C893 C1063 1.449 . S
C961 C927 1.449 . S
