# Generated by pormake.
# Topology vmi, (6)-cn, num edge types: 1
# Building blocks:
#     Node 0, Type 0, BuildingBlock: IZENUY_clean_sbu_0, # of connection points: 6
#     Node 1, Type 0, BuildingBlock: IZENUY_clean_sbu_0, # of connection points: 6
#     Node 2, Type 0, BuildingBlock: IZENUY_clean_sbu_0, # of connection points: 6
#     Node 3, Type 0, BuildingBlock: IZENUY_clean_sbu_0, # of connection points: 6
#     Node 4, Type 0, BuildingBlock: IZENUY_clean_sbu_0, # of connection points: 6
#     Node 5, Type 0, BuildingBlock: IZENUY_clean_sbu_0, # of connection points: 6
#     Node 6, Type 0, BuildingBlock: IZENUY_clean_sbu_0, # of connection points: 6
#     Node 7, Type 0, BuildingBlock: IZENUY_clean_sbu_0, # of connection points: 6
#     Edge 8, Type (0, 0), BuildingBlock: EZIPEK_clean_linker_0, # of connection points: 2
#     Edge 9, Type (0, 0), BuildingBlock: EZIPEK_clean_linker_0, # of connection points: 2
#     Edge 10, Type (0, 0), BuildingBlock: EZIPEK_clean_linker_0, # of connection points: 2
#     Edge 11, Type (0, 0), BuildingBlock: EZIPEK_clean_linker_0, # of connection points: 2
#     Edge 12, Type (0, 0), BuildingBlock: EZIPEK_clean_linker_0, # of connection points: 2
#     Edge 13, Type (0, 0), BuildingBlock: EZIPEK_clean_linker_0, # of connection points: 2
#     Edge 14, Type (0, 0), BuildingBlock: EZIPEK_clean_linker_0, # of connection points: 2
#     Edge 15, Type (0, 0), BuildingBlock: EZIPEK_clean_linker_0, # of connection points: 2
#     Edge 16, Type (0, 0), BuildingBlock: EZIPEK_clean_linker_0, # of connection points: 2
#     Edge 17, Type (0, 0), BuildingBlock: EZIPEK_clean_linker_0, # of connection points: 2
#     Edge 18, Type (0, 0), BuildingBlock: EZIPEK_clean_linker_0, # of connection points: 2
#     Edge 19, Type (0, 0), BuildingBlock: EZIPEK_clean_linker_0, # of connection points: 2
#     Edge 20, Type (0, 0), BuildingBlock: EZIPEK_clean_linker_0, # of connection points: 2
#     Edge 21, Type (0, 0), BuildingBlock: EZIPEK_clean_linker_0, # of connection points: 2
#     Edge 22, Type (0, 0), BuildingBlock: EZIPEK_clean_linker_0, # of connection points: 2
#     Edge 23, Type (0, 0), BuildingBlock: EZIPEK_clean_linker_0, # of connection points: 2
#     Edge 24, Type (0, 0), BuildingBlock: EZIPEK_clean_linker_0, # of connection points: 2
#     Edge 25, Type (0, 0), BuildingBlock: EZIPEK_clean_linker_0, # of connection points: 2
#     Edge 26, Type (0, 0), BuildingBlock: EZIPEK_clean_linker_0, # of connection points: 2
#     Edge 27, Type (0, 0), BuildingBlock: EZIPEK_clean_linker_0, # of connection points: 2
#     Edge 28, Type (0, 0), BuildingBlock: EZIPEK_clean_linker_0, # of connection points: 2
#     Edge 29, Type (0, 0), BuildingBlock: EZIPEK_clean_linker_0, # of connection points: 2
#     Edge 30, Type (0, 0), BuildingBlock: EZIPEK_clean_linker_0, # of connection points: 2
#     Edge 31, Type (0, 0), BuildingBlock: EZIPEK_clean_linker_0, # of connection points: 2
# Relax obj value: 0.332
# Max RMSD: 0.290
# Mean RMSD: 0.290
data_MOF--net-vmi--node1-IZENUY_clean_sbu_0--edge1-EZIPEK_clean_linker_0
_symmetry_space_group_name_H-M    P1
_symmetry_Int_Tables_number       1
_symmetry_cell_setting            triclinic
loop_
_symmetry_equiv_pos_as_xyz
'x, y, z'
_cell_length_a     20.199388
_cell_length_b     33.593611
_cell_length_c     21.904539
_cell_angle_alpha  89.954969
_cell_angle_beta   109.44656
_cell_angle_gamma 90.247254
loop_
_atom_site_label
_atom_site_type_symbol
_atom_site_fract_x
_atom_site_fract_y
_atom_site_fract_z
_atom_type_partial_charge
Fe0 Fe 0.18985 0.03628 0.26292 0.0
Fe1 Fe 0.14499 0.11472 0.18415 0.0
O2 O 0.21028 0.0836 0.23699 0.0
Fe3 Fe 0.29988 0.09968 0.26451 0.0
O4 O 0.34076 0.05042 0.28337 0.0
O5 O 0.25501 1.01025 0.23561 0.0
O6 O 0.12415 0.02163 0.18601 0.0
C7 C 0.09796 0.03943 0.13275 0.0
C8 C 0.28154 0.07472 0.37695 0.0
O9 O 0.10824 0.07584 0.1266 0.0
C10 C 0.23276 0.17559 0.24571 0.0
O11 O 0.12203 0.05583 0.29141 0.0
O12 O 0.07881 0.10534 0.22384 0.0
O13 O 0.29683 0.10398 0.34687 0.0
O14 O 0.25112 0.04413 0.34544 0.0
C15 C 0.25757 0.10955 0.13314 0.0
O16 O 0.17304 0.15976 0.23421 0.0
O17 O 0.28469 0.15361 0.25131 0.0
C18 C 0.07451 0.08119 0.26714 0.0
O19 O 0.20113 0.1256 0.13502 0.0
O20 O 0.30281 0.09469 0.18292 0.0
C21 C 0.3199 0.01759 0.25613 0.0
Fe22 Fe 0.40278 0.12251 0.82941 0.0
Fe23 Fe 0.24964 0.10534 0.74639 0.0
O24 O 0.33805 0.08943 0.78068 0.0
Fe25 Fe 0.35666 0.03962 0.76607 0.0
O26 O 0.4038 0.02723 0.84991 0.0
O27 O 0.44982 0.08547 0.8871 0.0
O28 O 0.34898 0.12999 0.88084 0.0
C29 C 0.28943 0.1163 0.87994 0.0
C30 C 0.47784 0.08315 0.7622 0.0
O31 O 0.24331 0.10254 0.82808 0.0
C32 C 0.28683 0.07949 0.64476 0.0
O33 O 0.37024 0.16751 0.78202 0.0
O34 O 0.25932 0.15799 0.75792 0.0
O35 O 0.43902 0.05243 0.75324 0.0
O36 O 0.46163 0.11566 0.78283 0.0
C37 C 0.21721 0.02662 0.75342 0.0
O38 O 0.2618 0.10847 0.66801 0.0
O39 O 0.31148 0.04784 0.67782 0.0
C40 C 0.3095 0.18124 0.76916 0.0
O41 O 0.20742 0.05732 0.72053 0.0
O42 O 0.27988 0.01834 0.78351 0.0
C43 C 0.44496 0.0486 0.89328 0.0
Fe44 Fe 0.84548 0.9784 0.75379 0.0
Fe45 Fe 0.73477 0.91706 0.75492 0.0
O46 O 0.82362 0.93244 0.78063 0.0
Fe47 Fe 0.89008 0.90063 0.83066 0.0
O48 O 0.91812 0.93723 0.8935 0.0
O49 O 0.9159 0.9895 0.83193 0.0
O50 O 0.78689 1.00687 0.78496 0.0
C51 C 0.72163 1.00082 0.76721 0.0
C52 C 0.96084 0.94007 0.75282 0.0
O53 O 0.69669 0.96759 0.74281 0.0
C54 C 0.80464 0.84382 0.75779 0.0
O55 O 0.77943 0.974 0.67281 0.0
O56 O 0.73314 0.91431 0.67098 0.0
O57 O 0.96192 0.91746 0.79974 0.0
O58 O 0.90321 0.95349 0.71847 0.0
C59 C 0.78118 0.89906 0.88387 0.0
O60 O 0.75332 0.86381 0.76138 0.0
O61 O 0.86489 0.8599 0.77138 0.0
C62 C 0.75327 0.94239 0.64255 0.0
O63 O 0.7368 0.91873 0.83901 0.0
O64 O 0.83253 0.8816 0.8742 0.0
C65 C 0.93376 0.97283 0.8871 0.0
Fe66 Fe 0.79846 0.91938 0.27419 0.0
Fe67 Fe 0.64583 0.91019 0.17937 0.0
O68 O 0.71172 0.93797 0.23892 0.0
Fe69 Fe 0.68893 0.98502 0.26291 0.0
O70 O 0.77665 1.0083 0.28525 0.0
O71 O 0.83999 0.96411 0.2573 0.0
O72 O 0.80227 0.90048 0.19556 0.0
C73 C 0.75978 0.90354 0.13774 0.0
C74 C 0.75887 0.94928 0.37969 0.0
O75 O 0.69578 0.91149 0.12529 0.0
C76 C 0.56481 0.93992 0.24566 0.0
O77 O 0.76897 0.87187 0.2953 0.0
O78 O 0.68116 0.86038 0.20697 0.0
O79 O 0.70492 0.96674 0.34344 0.0
O80 O 0.80559 0.9362 0.35735 0.0
C81 C 0.62461 0.98868 0.13344 0.0
O82 O 0.5887 0.90807 0.22966 0.0
O83 O 0.59653 0.97258 0.24739 0.0
C84 C 0.73072 0.84773 0.25518 0.0
O85 O 0.60072 0.95429 0.13721 0.0
O86 O 0.67008 1.00474 0.18159 0.0
C87 C 0.83062 0.99924 0.27167 0.0
Fe88 Fe 0.6431 0.6205 0.68168 0.0
Fe89 Fe 0.79882 0.6059 0.75862 0.0
O90 O 0.71048 0.58894 0.73132 0.0
Fe91 Fe 0.69158 0.54114 0.75553 0.0
O92 O 0.62346 0.52949 0.67781 0.0
O93 O 0.61235 0.58376 0.61861 0.0
O94 O 0.69914 0.63936 0.63657 0.0
C95 C 0.7535 0.62427 0.62912 0.0
C96 C 0.57458 0.58038 0.76049 0.0
O97 O 0.79886 0.60575 0.67495 0.0
C98 C 0.78309 0.5761 0.87039 0.0
O99 O 0.66726 0.66181 0.73963 0.0
O100 O 0.77907 0.65893 0.75287 0.0
O101 O 0.62851 0.56084 0.79003 0.0
O102 O 0.57486 0.60441 0.71583 0.0
C103 C 0.81947 0.52336 0.74529 0.0
O104 O 0.79828 0.60631 0.84237 0.0
O105 O 0.75542 0.54581 0.83695 0.0
C106 C 0.72657 0.67859 0.75362 0.0
O107 O 0.84075 0.5568 0.77035 0.0
O108 O 0.75446 0.51596 0.72478 0.0
C109 C 0.59902 0.54768 0.62452 0.0
Fe110 Fe 0.88343 0.6153 0.32606 0.0
Fe111 Fe 0.72825 0.60493 0.2361 0.0
O112 O 0.81575 0.5869 0.26864 0.0
Fe113 Fe 0.83773 0.53926 0.24466 0.0
O114 O 0.85862 0.52067 0.32655 0.0
O115 O 0.92872 0.57124 0.36915 0.0
O116 O 0.83658 0.61589 0.38278 0.0
C117 C 0.77235 0.62184 0.373 0.0
C118 C 0.9611 0.58404 0.25753 0.0
O119 O 0.72662 0.62183 0.31639 0.0
C120 C 0.76685 0.57607 0.12916 0.0
O121 O 0.84853 0.66515 0.29767 0.0
O122 O 0.75348 0.65356 0.21569 0.0
O123 O 0.92962 0.55158 0.25774 0.0
O124 O 0.93809 0.61617 0.27342 0.0
C125 C 0.69715 0.52422 0.23783 0.0
O126 O 0.72122 0.59032 0.15202 0.0
O127 O 0.81891 0.55618 0.16311 0.0
C128 C 0.79476 0.67762 0.25337 0.0
O129 O 0.68772 0.55936 0.25197 0.0
O130 O 0.75105 0.51529 0.2244 0.0
C131 C 0.9048 0.53692 0.37388 0.0
Fe132 Fe 0.34459 0.48914 0.25193 0.0
Fe133 Fe 0.23077 0.42428 0.24371 0.0
O134 O 0.32044 0.44059 0.27169 0.0
Fe135 Fe 0.38917 0.40952 0.32228 0.0
O136 O 0.44344 0.45045 0.36556 0.0
O137 O 0.37835 0.50362 0.33718 0.0
O138 O 0.26446 0.51643 0.24548 0.0
C139 C 0.20651 0.50673 0.25025 0.0
C140 C 0.45842 0.4411 0.2462 0.0
O141 O 0.19139 0.47098 0.25422 0.0
C142 C 0.29189 0.34833 0.25791 0.0
O143 O 0.3123 0.47726 0.16677 0.0
O144 O 0.22193 0.43612 0.15842 0.0
O145 O 0.43582 0.40883 0.26285 0.0
O146 O 0.43133 0.47401 0.25236 0.0
C147 C 0.28544 0.41099 0.38104 0.0
O148 O 0.24631 0.37269 0.22671 0.0
O149 O 0.35032 0.36043 0.29507 0.0
C150 C 0.26075 0.45613 0.13334 0.0
O151 O 0.23429 0.41239 0.32736 0.0
O152 O 0.34907 0.40996 0.38414 0.0
C153 C 0.42635 0.48451 0.37874 0.0
Fe154 Fe 0.29426 0.42996 0.76671 0.0
Fe155 Fe 0.14517 0.40369 0.68387 0.0
O156 O 0.20323 0.44106 0.72939 0.0
Fe157 Fe 0.17482 0.48985 0.7382 0.0
O158 O 0.24706 0.51492 0.71952 0.0
O159 O 0.32914 0.48032 0.78461 0.0
O160 O 0.30345 0.43145 0.68693 0.0
C161 C 0.26112 0.41497 0.63609 0.0
C162 C 0.25048 0.45736 0.86429 0.0
O163 O 0.2044 0.39691 0.63537 0.0
C164 C 0.06192 0.44112 0.74641 0.0
O165 O 0.29165 0.37595 0.76134 0.0
O166 O 0.18211 0.36295 0.73864 0.0
O167 O 0.22076 0.48662 0.82724 0.0
O168 O 0.28089 0.4291 0.84473 0.0
C169 C 0.08954 0.4723 0.61071 0.0
O170 O 0.08143 0.40934 0.72623 0.0
O171 O 0.09642 0.4732 0.75327 0.0
C172 C 0.24395 0.35114 0.75525 0.0
O173 O 0.09315 0.43578 0.62137 0.0
O174 O 0.12501 0.49706 0.65239 0.0
C175 C 0.3107 0.51082 0.75105 0.0
C176 C 0.48772 0.95508 0.31094 0.0
C177 C 0.49302 0.94316 0.25072 0.0
C178 C 0.37757 0.97312 0.19404 0.0
C179 C 0.37363 0.98697 0.2542 0.0
N180 N 0.41751 0.98351 0.37073 0.0
N181 N 0.43621 0.93116 0.13724 0.0
C182 C 0.42635 0.97528 0.31292 0.0
C183 C 0.43512 0.94867 0.19314 0.0
N184 N 0.54357 0.9488 0.36605 0.0
N185 N 0.32936 0.98583 0.13747 0.0
H186 H 0.47763 0.91321 0.13574 0.0
H187 H 0.39375 0.9311 0.0943 0.0
H188 H 0.28676 1.00348 0.13614 0.0
H189 H 0.33387 0.98127 0.09203 0.0
H190 H 0.54848 0.96122 0.41086 0.0
H191 H 0.58672 0.93177 0.36611 0.0
H192 H 0.44989 0.97274 0.41514 0.0
H193 H 0.37424 0.99893 0.37376 0.0
C194 C 0.08848 0.93966 0.75506 0.0
C195 C 0.02661 0.96123 0.75091 0.0
C196 C 0.09078 0.02423 0.75126 0.0
C197 C 0.15394 1.0031 0.7571 0.0
N198 N 0.21272 0.93951 0.76718 0.0
N199 N 0.97227 0.02623 0.74947 0.0
C200 C 0.15286 0.96048 0.76037 0.0
C201 C 0.02858 1.0038 0.74916 0.0
N202 N 0.08425 0.8991 0.74931 0.0
N203 N 0.08802 0.06479 0.7455 0.0
H204 H 0.92007 0.01837 0.72797 0.0
H205 H 0.97773 0.0546 0.76995 0.0
H206 H 0.13068 0.08346 0.76462 0.0
H207 H 0.04172 0.0803 0.72268 0.0
H208 H 0.12419 0.88109 0.74502 0.0
H209 H 0.038 0.88327 0.74338 0.0
H210 H 0.21903 0.9096 0.78001 0.0
H211 H 0.25769 0.9519 0.7619 0.0
C212 C 0.62329 0.04563 0.70453 0.0
C213 C 0.67192 0.03427 0.765 0.0
C214 C 0.60781 0.07594 0.81846 0.0
C215 C 0.54989 0.07725 0.75952 0.0
N216 N 0.504 0.06508 0.64476 0.0
N217 N 0.7158 0.04287 0.8805 0.0
C218 C 0.55845 0.06303 0.70183 0.0
C219 C 0.66652 0.05138 0.82228 0.0
N220 N 0.64101 0.04163 0.65013 0.0
N221 N 0.60648 0.0975 0.8709 0.0
H222 H 0.76135 0.02761 0.88383 0.0
H223 H 0.71069 0.04972 0.92505 0.0
H224 H 0.56569 0.1165 0.86994 0.0
H225 H 0.6491 0.10002 0.91348 0.0
H226 H 0.61028 0.05252 0.60509 0.0
H227 H 0.69092 0.03214 0.65259 0.0
H228 H 0.50457 0.0511 0.60248 0.0
H229 H 0.45705 0.07935 0.64096 0.0
C230 C 0.94644 0.03117 0.33625 0.0
C231 C 0.88749 0.02936 0.27832 0.0
C232 C 0.94115 0.08191 0.23185 0.0
C233 C 1.00654 0.07564 0.28131 0.0
N234 N 0.06598 0.05515 0.39089 0.0
N235 N 0.82824 0.0535 0.1702 0.0
C236 C 1.00709 0.05382 0.33721 0.0
C237 C 0.88428 0.05528 0.2262 0.0
N238 N 0.94402 1.01118 0.38986 0.0
N239 N 0.93213 0.11435 0.19248 0.0
H240 H 0.78515 0.03491 0.16457 0.0
H241 H 0.82706 0.06836 0.12807 0.0
H242 H 0.97006 0.13668 0.20045 0.0
H243 H 0.88402 0.12178 0.15823 0.0
H244 H 0.98349 1.01185 0.43471 0.0
H245 H 0.8999 0.99519 0.39045 0.0
H246 H 0.07426 0.03763 0.43186 0.0
H247 H 0.10698 0.07505 0.39443 0.0
C248 C 0.93151 0.44475 0.69725 0.0
C249 C 0.99155 0.4447 0.75392 0.0
C250 C 0.92699 0.48412 0.80978 0.0
C251 C 0.87306 0.4915 0.74937 0.0
N252 N 0.8262 0.47934 0.63429 0.0
N253 N 0.04534 0.46052 0.8662 0.0
C254 C 0.87503 0.47116 0.69299 0.0
C255 C 0.98805 0.46255 0.81119 0.0
N256 N 0.92911 0.42024 0.64684 0.0
N257 N 0.9198 0.49764 0.86596 0.0
H258 H 0.08832 0.4426 0.86898 0.0
H259 H 0.05159 0.4773 0.9077 0.0
H260 H 0.87704 0.51426 0.8669 0.0
H261 H 0.95314 0.4899 0.91188 0.0
H262 H 0.88457 0.4165 0.60618 0.0
H263 H 0.96885 0.40013 0.64891 0.0
H264 H 0.83021 0.47003 0.59033 0.0
H265 H 0.78413 0.49809 0.62917 0.0
C266 C 0.57804 0.49411 0.1778 0.0
C267 C 0.64091 0.49361 0.23229 0.0
C268 C 0.5904 0.44008 0.28107 0.0
C269 C 0.52512 0.44466 0.23087 0.0
N270 N 0.46296 0.46469 0.12229 0.0
N271 N 0.70817 0.46598 0.33582 0.0
C272 C 0.52168 0.46779 0.17588 0.0
C273 C 0.64807 0.46578 0.28326 0.0
N274 N 0.5706 0.52151 0.12983 0.0
N275 N 0.5965 0.41141 0.3268 0.0
H276 H 0.75088 0.48432 0.33893 0.0
H277 H 0.71504 0.44968 0.37782 0.0
H278 H 0.55535 0.39206 0.32476 0.0
H279 H 0.64311 0.40435 0.36323 0.0
H280 H 0.52405 0.52637 0.09191 0.0
H281 H 0.61027 0.5414 0.12981 0.0
H282 H 0.45711 0.4783 0.07813 0.0
H283 H 0.42209 0.44514 0.12089 0.0
C284 C 0.09306 0.57903 0.30605 0.0
C285 C 0.03185 0.58041 0.25018 0.0
C286 C 0.09205 0.54092 0.18992 0.0
C287 C 0.15175 0.53753 0.24686 0.0
N288 N 0.21725 0.56322 0.35218 0.0
N289 N 0.97999 0.5731 0.13527 0.0
C290 C 0.15499 0.56007 0.30259 0.0
C291 C 0.03419 0.56497 0.19073 0.0
N292 N 0.09059 0.59354 0.36346 0.0
N293 N 0.08973 0.51998 0.13578 0.0
H294 H 0.93803 0.59105 0.13555 0.0
H295 H 0.97948 0.56546 0.08908 0.0
H296 H 0.13226 0.50366 0.13263 0.0
H297 H 0.04504 0.51734 0.09501 0.0
H298 H 0.1295 0.58846 0.40784 0.0
H299 H 0.04787 0.60952 0.3669 0.0
H300 H 0.22496 0.58157 0.39225 0.0
H301 H 0.26319 0.55033 0.34993 0.0
C302 C 0.48247 0.52715 0.73392 0.0
C303 C 0.50572 0.56486 0.76236 0.0
C304 C 0.39131 0.57185 0.77898 0.0
C305 C 0.36711 0.53671 0.74202 0.0
N306 N 0.38266 0.49478 0.65937 0.0
N307 N 0.47738 0.62593 0.80571 0.0
C308 C 0.4104 0.51901 0.7112 0.0
C309 C 0.45823 0.58849 0.78239 0.0
N310 N 0.52791 0.49782 0.73137 0.0
N311 N 0.35167 0.58852 0.81175 0.0
H312 H 0.52696 0.63772 0.8113 0.0
H313 H 0.4429 0.64565 0.81609 0.0
H314 H 0.30206 0.57743 0.8079 0.0
H315 H 0.36941 0.61187 0.84449 0.0
H316 H 0.58119 0.49873 0.7578 0.0
H317 H 0.51052 0.46977 0.71196 0.0
H318 H 0.41256 0.48251 0.63338 0.0
H319 H 0.32867 0.49282 0.63767 0.0
C320 C 0.98823 0.03618 0.03789 0.0
C321 C 0.05307 0.01833 0.07386 0.0
C322 C 0.04419 0.97434 0.98221 0.0
C323 C 0.98008 0.99299 0.94611 0.0
N324 N 0.90092 0.0482 0.93325 0.0
N325 N 0.13797 0.96597 0.08472 0.0
C326 C 0.95501 0.0259 0.972 0.0
C327 C 0.07939 0.98578 0.04762 0.0
N328 N 0.95647 0.06145 0.06832 0.0
N329 N 0.07405 0.94792 0.95174 0.0
H330 H 0.16745 0.97433 0.13154 0.0
H331 H 0.15526 0.93937 0.07111 0.0
H332 H 0.05189 0.94123 0.90271 0.0
H333 H 0.12385 0.93582 0.97227 0.0
H334 H 0.90566 0.0722 0.04723 0.0
H335 H 0.97811 0.0679 0.11748 0.0
H336 H 0.88478 0.07488 0.94784 0.0
H337 H 0.87673 0.04236 0.88424 0.0
C338 C 0.52322 0.02973 0.07253 0.0
C339 C 0.5873 1.01172 0.07553 0.0
C340 C 0.55491 0.01373 0.95755 0.0
C341 C 0.49 0.031 0.95447 0.0
N342 N 0.406 0.04853 1.00559 0.0
N343 N 0.67113 0.9925 0.02532 0.0
C344 C 0.47262 0.03742 0.0112 0.0
C345 C 0.6052 1.00547 0.01913 0.0
N346 N 0.51156 0.03975 0.12859 0.0
N347 N 0.56685 1.00386 0.90158 0.0
H348 H 0.70917 0.98782 0.07049 0.0
H349 H 0.69015 0.98948 0.98696 0.0
H350 H 0.53035 1.00914 0.85588 0.0
H351 H 0.61018 0.98794 0.89978 0.0
H352 H 0.46812 0.05558 0.13044 0.0
H353 H 0.54902 0.03527 0.17408 0.0
H354 H 0.38702 0.05074 0.04415 0.0
H355 H 0.36744 0.0516 0.96052 0.0
C356 C 0.47927 0.53856 0.54123 0.0
C357 C 0.55084 0.52706 0.56729 0.0
C358 C 0.54173 0.49358 0.46683 0.0
C359 C 0.46872 0.50212 0.44185 0.0
N360 N 0.36494 0.52081 0.46651 0.0
N361 N 0.63936 0.48017 0.56371 0.0
C362 C 0.43623 0.52139 0.48203 0.0
C363 C 0.57853 0.49996 0.53317 0.0
N364 N 0.45198 0.56529 0.57313 0.0
N365 N 0.57689 0.48119 0.42682 0.0
H366 H 0.66615 0.48321 0.61311 0.0
H367 H 0.65859 0.45779 0.5413 0.0
H368 H 0.55394 0.48145 0.3766 0.0
H369 H 0.63085 0.47613 0.44284 0.0
H370 H 0.40222 0.57766 0.55273 0.0
H371 H 0.48047 0.57652 0.61857 0.0
H372 H 0.33935 0.53115 0.49756 0.0
H373 H 0.33206 0.50568 0.42631 0.0
C374 C 0.0368 0.4689 0.48855 0.0
C375 C 0.03753 0.48566 0.54882 0.0
C376 C 0.93209 0.52364 0.49074 0.0
C377 C 0.9418 0.51365 0.43173 0.0
N378 N 1.00522 0.47843 0.37305 0.0
N379 N 0.98004 0.52638 0.60752 0.0
C380 C 0.99417 0.48646 0.43008 0.0
C381 C 0.98353 0.51243 0.55002 0.0
N382 N 0.07477 0.43572 0.48607 0.0
N383 N 0.87176 0.54226 0.48953 0.0
H384 H 1.01061 0.51542 0.65247 0.0
H385 H 0.9479 0.54983 0.61089 0.0
H386 H 0.83181 0.54826 0.44612 0.0
H387 H 0.85785 0.54743 0.53048 0.0
H388 H 0.06819 0.42004 0.4434 0.0
H389 H 0.10897 0.42151 0.52613 0.0
H390 H 0.04887 0.46305 0.37041 0.0
H391 H 0.97294 0.48904 0.32844 0.0
C392 C 0.30861 0.14528 0.99153 0.0
C393 C 0.27687 0.11557 0.94351 0.0
C394 C 0.23413 0.08146 0.02224 0.0
C395 C 0.27025 0.10924 0.07046 0.0
N396 N 0.35769 0.16062 0.1059 0.0
N397 N 0.22695 0.04887 0.92264 0.0
C398 C 0.31248 0.13894 0.05665 0.0
C399 C 0.24307 0.08218 0.96083 0.0
N400 N 0.33297 0.18041 0.9754 0.0
N401 N 0.19371 0.05279 0.03617 0.0
H402 H 0.24164 0.04478 0.88205 0.0
H403 H 0.20834 0.02247 0.93606 0.0
H404 H 0.19745 0.04623 0.08349 0.0
H405 H 0.15634 0.03651 1.00051 0.0
H406 H 0.34814 0.20437 0.00729 0.0
H407 H 0.33191 0.18776 0.92909 0.0
H408 H 0.39568 0.17967 0.09946 0.0
H409 H 0.36174 0.15671 0.15425 0.0
C410 C 0.80354 0.93196 0.99126 0.0
C411 C 0.77804 0.89845 0.95061 0.0
C412 C 0.75717 0.8633 0.04086 0.0
C413 C 0.78277 0.89701 0.08101 0.0
N414 N 0.849 0.95802 0.1005 0.0
N415 N 0.74311 0.82941 0.93915 0.0
C416 C 0.81235 0.9295 0.05813 0.0
C417 C 0.75911 0.86307 0.97633 0.0
N418 N 0.81727 0.96673 0.96558 0.0
N419 N 0.72935 0.83203 0.06424 0.0
H420 H 0.74053 0.82888 0.89078 0.0
H421 H 0.73615 0.80154 0.95696 0.0
H422 H 0.73203 0.83034 0.11258 0.0
H423 H 0.70204 0.80856 0.03575 0.0
H424 H 0.82727 0.99353 0.99091 0.0
H425 H 0.8122 0.96959 0.91699 0.0
H426 H 0.8775 0.9807 0.08813 0.0
H427 H 0.85706 0.95641 0.14987 0.0
C428 C 0.72193 0.5955 0.45427 0.0
C429 C 0.75227 0.62777 0.43174 0.0
C430 C 0.77826 0.66064 0.53785 0.0
C431 C 0.75806 0.62533 0.56276 0.0
N432 N 0.71913 0.55719 0.54625 0.0
N433 N 0.80878 0.69196 0.45047 0.0
C434 C 0.73182 0.59239 0.52126 0.0
C435 C 0.7799 0.66081 0.47308 0.0
N436 N 0.68365 0.56756 0.41174 0.0
N437 N 0.79545 0.69387 0.57591 0.0
H438 H 0.80592 0.69408 0.40211 0.0
H439 H 0.83715 0.71489 0.47964 0.0
H440 H 0.79786 0.69396 0.62425 0.0
H441 H 0.80351 0.72177 0.55886 0.0
H442 H 0.65396 0.54579 0.42454 0.0
H443 H 0.67515 0.5688 0.3623 0.0
H444 H 0.71184 0.53065 0.52029 0.0
H445 H 0.72347 0.55383 0.59465 0.0
C446 C 0.23853 0.44688 0.52716 0.0
C447 C 0.27506 0.41829 0.57368 0.0
C448 C 0.31252 0.38415 0.49296 0.0
C449 C 0.27354 0.41131 0.44458 0.0
N450 N 0.20244 0.47072 0.41639 0.0
N451 N 0.37558 0.37576 0.6069 0.0
C452 C 0.23724 0.4434 0.46186 0.0
C453 C 0.32042 0.39138 0.55859 0.0
N454 N 0.20971 0.47894 0.54715 0.0
N455 N 0.34074 0.35071 0.47621 0.0
H456 H 0.38692 0.38437 0.65509 0.0
H457 H 0.41448 0.35867 0.59822 0.0
H458 H 0.33434 0.34333 0.42834 0.0
H459 H 0.36412 0.32838 0.50939 0.0
H460 H 0.1864 0.50304 0.51842 0.0
H461 H 0.21358 0.48277 0.59531 0.0
H462 H 0.16964 0.49269 0.42335 0.0
H463 H 0.20531 0.47148 0.3701 0.0
C464 C 0.27145 0.04244 0.47861 0.0
C465 C 0.29528 0.07532 0.44965 0.0
C466 C 0.32116 0.11073 0.55428 0.0
C467 C 0.28432 0.08082 0.57609 0.0
N468 N 0.20977 0.02282 0.55105 0.0
N469 N 0.35143 0.14052 0.46663 0.0
C470 C 0.25452 0.04836 0.5355 0.0
C471 C 0.32216 0.1096 0.48921 0.0
N472 N 0.27066 1.00452 0.45589 0.0
N473 N 0.35973 0.13857 0.59708 0.0
H474 H 0.37266 0.1376 0.42967 0.0
H475 H 0.35763 0.16887 0.48711 0.0
H476 H 0.36282 0.13933 0.64548 0.0
H477 H 0.39404 0.15853 0.5866 0.0
H478 H 0.25777 0.97984 0.47865 0.0
H479 H 0.29423 0.99667 0.42217 0.0
H480 H 0.18203 1.00055 0.5196 0.0
H481 H 0.19455 0.02674 0.59174 0.0
C482 C 0.79188 0.91161 0.55426 0.0
C483 C 0.74925 0.93903 0.57364 0.0
C484 C 0.73406 0.97725 0.47566 0.0
C485 C 0.76609 0.94678 0.45014 0.0
N486 N 0.81472 0.87992 0.46438 0.0
N487 N 0.66048 0.98922 0.54048 0.0
C488 C 0.79227 0.91243 0.48913 0.0
C489 C 0.71438 0.96918 0.53047 0.0
N490 N 0.83393 0.88571 0.59814 0.0
N491 N 0.72461 0.01451 0.44928 0.0
H492 H 0.64068 0.98056 0.57683 0.0
H493 H 0.63034 1.01007 0.5077 0.0
H494 H 0.74508 0.02311 0.41335 0.0
H495 H 0.70488 0.03794 0.46924 0.0
H496 H 0.87164 0.86823 0.58823 0.0
H497 H 0.83515 0.8841 0.64598 0.0
H498 H 0.82654 0.85296 0.48916 0.0
H499 H 0.81607 0.87837 0.41753 0.0
C500 C 0.81107 0.61032 0.98176 0.0
C501 C 0.7903 0.57583 0.94174 0.0
C502 C 0.74096 0.54663 0.02046 0.0
C503 C 0.76063 0.58064 0.06001 0.0
N504 N 0.81987 0.64385 0.08312 0.0
N505 N 0.7711 0.50454 0.94554 0.0
C506 C 0.79659 0.61251 0.04154 0.0
C507 C 0.76505 0.54204 0.9672 0.0
N508 N 0.84886 0.63963 0.96512 0.0
N509 N 0.70075 0.51778 0.035 0.0
H510 H 0.79962 0.49836 0.91504 0.0
H511 H 0.75839 0.47889 0.96611 0.0
H512 H 0.68411 0.51966 0.07511 0.0
H513 H 0.67863 0.49419 1.0039 0.0
H514 H 0.85767 0.66777 0.98602 0.0
H515 H 0.87573 0.63492 0.93263 0.0
H516 H 0.85151 0.66688 0.07691 0.0
H517 H 0.80828 0.64649 0.12584 0.0
C518 C 0.23221 0.42138 0.95933 0.0
C519 C 0.25011 0.45683 0.93258 0.0
C520 C 0.25229 0.4925 0.03084 0.0
C521 C 0.24739 0.45591 0.06188 0.0
N522 N 0.24666 0.38389 0.05706 0.0
N523 N 0.29273 0.52463 0.95095 0.0
C524 C 0.24092 0.41981 0.02654 0.0
C525 C 0.26423 0.49208 0.97046 0.0
N526 N 0.2037 0.38972 0.92027 0.0
N527 N 0.24432 0.52781 0.05844 0.0
H528 H 0.30716 0.52479 0.90947 0.0
H529 H 0.30976 0.54971 0.98003 0.0
H530 H 0.23245 0.52937 0.10123 0.0
H531 H 0.24147 0.55509 0.035 0.0
H532 H 0.18418 0.36461 0.93665 0.0
H533 H 0.1914 0.39072 0.87019 0.0
H534 H 0.24956 0.35704 0.03426 0.0
H535 H 0.25556 0.38098 0.10644 0.0
C536 C 0.233 0.24411 0.29636 0.0
C537 C 0.24263 0.22048 0.24642 0.0
C538 C 0.28973 0.28007 0.20706 0.0
C539 C 0.27469 0.30428 0.25354 0.0
N540 N 0.21676 0.31 0.33346 0.0
N541 N 0.26219 0.21983 0.14354 0.0
C542 C 0.24187 0.28646 0.29556 0.0
C543 C 0.26638 0.23954 0.19899 0.0
N544 N 0.21762 0.22611 0.34601 0.0
N545 N 0.32666 0.29565 0.17046 0.0
H546 H 0.24047 0.19164 0.13357 0.0
H547 H 0.27184 0.23314 0.10434 0.0
H548 H 0.34275 0.32536 0.17374 0.0
H549 H 0.34619 0.27835 0.14088 0.0
H550 H 0.21824 0.2411 0.38782 0.0
H551 H 0.20993 0.19547 0.3479 0.0
H552 H 0.18605 0.29938 0.35991 0.0
H553 H 0.22083 0.34076 0.33346 0.0
C554 C 0.24979 0.24047 0.80047 0.0
C555 C 0.29415 0.22483 0.76692 0.0
C556 C 0.30358 0.29152 0.72529 0.0
C557 C 0.2603 0.30742 0.75927 0.0
N558 N 0.18587 0.29612 0.82376 0.0
N559 N 0.35029 0.23412 0.6867 0.0
C560 C 0.23158 0.28158 0.79516 0.0
C561 C 0.31857 0.25013 0.72736 0.0
N562 N 0.22654 0.21645 0.83958 0.0
N563 N 0.32817 0.31585 0.68806 0.0
H564 H 0.36042 0.20392 0.68485 0.0
H565 H 0.36147 0.24986 0.65037 0.0
H566 H 0.30417 0.34263 0.67077 0.0
H567 H 0.37126 0.30914 0.67401 0.0
H568 H 0.20503 0.22681 0.87358 0.0
H569 H 0.23229 0.18587 0.84214 0.0
H570 H 0.15299 0.27846 0.84033 0.0
H571 H 0.17773 0.32629 0.82863 0.0
C572 C 0.78418 0.73933 0.81305 0.0
C573 C 0.73543 0.72276 0.75635 0.0
C574 C 0.74038 0.78455 0.69715 0.0
C575 C 0.79336 0.79985 0.75283 0.0
N576 N 0.87336 0.78919 0.86127 0.0
N577 N 0.66684 0.72903 0.64335 0.0
C578 C 0.81772 0.77636 0.80997 0.0
C579 C 0.71308 0.74537 0.69817 0.0
N580 N 0.7963 0.71994 0.87057 0.0
N581 N 0.71496 0.80816 0.64357 0.0
H582 H 0.63867 0.70311 0.6439 0.0
H583 H 0.65688 0.74071 0.59716 0.0
H584 H 0.73773 0.83546 0.63922 0.0
H585 H 0.6703 0.80157 0.60439 0.0
H586 H 0.82558 0.73187 0.9153 0.0
H587 H 0.77029 0.69352 0.87387 0.0
H588 H 0.89766 0.77188 0.90193 0.0
H589 H 0.90008 0.81568 0.86089 0.0
C590 C 0.71048 0.734 0.25433 0.0
C591 C 0.77626 0.72118 0.24981 0.0
C592 C 0.81605 0.79107 0.25935 0.0
C593 C 0.74866 0.80413 0.25947 0.0
N594 N 0.63022 0.78789 0.25272 0.0
N595 N 0.88443 0.73846 0.23317 0.0
C596 C 0.6956 0.77547 0.25549 0.0
C597 C 0.82706 0.75004 0.24855 0.0
N598 N 0.66272 0.70675 0.26053 0.0
N599 N 0.87039 0.81748 0.26989 0.0
H600 H 0.89306 0.70898 0.22299 0.0
H601 H 0.91937 0.75834 0.22351 0.0
H602 H 0.86618 0.84793 0.27529 0.0
H603 H 0.92217 0.80873 0.27888 0.0
H604 H 0.62074 0.71395 0.27593 0.0
H605 H 0.66552 0.67651 0.2528 0.0
H606 H 0.58601 0.76954 0.23894 0.0
H607 H 0.61915 0.81717 0.26167 0.0
loop_
_geom_bond_atom_site_label_1
_geom_bond_atom_site_label_2
_geom_bond_distance
_geom_bond_site_symmetry_2
_ccdc_geom_bond_type
Fe0 O2 1.918 . S
Fe0 O5 1.997 . S
Fe0 O6 2.002 . S
Fe0 O11 1.976 . S
Fe0 O14 1.996 . S
Fe1 O2 1.918 . S
Fe1 O9 1.997 . S
Fe1 O12 1.996 . S
Fe1 O16 1.976 . S
Fe1 O19 2.002 . S
O2 Fe0 1.918 . S
O2 Fe1 1.918 . S
O2 Fe3 1.918 . S
Fe3 O2 1.918 . S
Fe3 O4 2.002 . S
Fe3 O13 1.976 . S
Fe3 O17 1.996 . S
Fe3 O20 1.997 . S
O4 Fe3 2.002 . S
O4 C21 1.295 . S
O5 Fe0 1.997 . S
O5 C21 1.235 . S
O6 Fe0 2.002 . S
O6 C7 1.295 . S
C7 O6 1.295 . S
C7 O9 1.235 . S
C8 O13 1.287 . S
C8 O14 1.255 . S
O9 Fe1 1.997 . S
O9 C7 1.235 . S
C10 O16 1.287 . S
C10 O17 1.255 . S
O11 Fe0 1.976 . S
O11 C18 1.287 . S
O12 Fe1 1.996 . S
O12 C18 1.255 . S
O13 Fe3 1.976 . S
O13 C8 1.287 . S
O14 Fe0 1.996 . S
O14 C8 1.255 . S
C15 O19 1.295 . S
C15 O20 1.235 . S
O16 Fe1 1.976 . S
O16 C10 1.287 . S
O17 Fe3 1.996 . S
O17 C10 1.255 . S
C18 O11 1.287 . S
C18 O12 1.255 . S
O19 Fe1 2.002 . S
O19 C15 1.295 . S
O20 Fe3 1.997 . S
O20 C15 1.235 . S
C21 O4 1.295 . S
C21 O5 1.235 . S
Fe22 O24 1.918 . S
Fe22 O27 1.997 . S
Fe22 O28 2.002 . S
Fe22 O33 1.976 . S
Fe22 O36 1.996 . S
Fe23 O24 1.918 . S
Fe23 O31 1.997 . S
Fe23 O34 1.996 . S
Fe23 O38 1.976 . S
Fe23 O41 2.002 . S
O24 Fe22 1.918 . S
O24 Fe23 1.918 . S
O24 Fe25 1.918 . S
Fe25 O24 1.918 . S
Fe25 O26 2.002 . S
Fe25 O35 1.976 . S
Fe25 O39 1.996 . S
Fe25 O42 1.997 . S
O26 Fe25 2.002 . S
O26 C43 1.295 . S
O27 Fe22 1.997 . S
O27 C43 1.235 . S
O28 Fe22 2.002 . S
O28 C29 1.295 . S
C29 O28 1.295 . S
C29 O31 1.235 . S
C30 O35 1.287 . S
C30 O36 1.255 . S
O31 Fe23 1.997 . S
O31 C29 1.235 . S
C32 O38 1.287 . S
C32 O39 1.255 . S
O33 Fe22 1.976 . S
O33 C40 1.287 . S
O34 Fe23 1.996 . S
O34 C40 1.255 . S
O35 Fe25 1.976 . S
O35 C30 1.287 . S
O36 Fe22 1.996 . S
O36 C30 1.255 . S
C37 O41 1.295 . S
C37 O42 1.235 . S
O38 Fe23 1.976 . S
O38 C32 1.287 . S
O39 Fe25 1.996 . S
O39 C32 1.255 . S
C40 O33 1.287 . S
C40 O34 1.255 . S
O41 Fe23 2.002 . S
O41 C37 1.295 . S
O42 Fe25 1.997 . S
O42 C37 1.235 . S
C43 O26 1.295 . S
C43 O27 1.235 . S
Fe44 O46 1.918 . S
Fe44 O49 1.997 . S
Fe44 O50 2.002 . S
Fe44 O55 1.976 . S
Fe44 O58 1.996 . S
Fe45 O46 1.918 . S
Fe45 O53 1.997 . S
Fe45 O56 1.996 . S
Fe45 O60 1.976 . S
Fe45 O63 2.002 . S
O46 Fe44 1.918 . S
O46 Fe45 1.918 . S
O46 Fe47 1.918 . S
Fe47 O46 1.918 . S
Fe47 O48 2.002 . S
Fe47 O57 1.976 . S
Fe47 O61 1.996 . S
Fe47 O64 1.997 . S
O48 Fe47 2.002 . S
O48 C65 1.295 . S
O49 Fe44 1.997 . S
O49 C65 1.235 . S
O50 Fe44 2.002 . S
O50 C51 1.295 . S
C51 O50 1.295 . S
C51 O53 1.235 . S
C52 O57 1.287 . S
C52 O58 1.255 . S
O53 Fe45 1.997 . S
O53 C51 1.235 . S
C54 O60 1.287 . S
C54 O61 1.255 . S
O55 Fe44 1.976 . S
O55 C62 1.287 . S
O56 Fe45 1.996 . S
O56 C62 1.255 . S
O57 Fe47 1.976 . S
O57 C52 1.287 . S
O58 Fe44 1.996 . S
O58 C52 1.255 . S
C59 O63 1.295 . S
C59 O64 1.235 . S
O60 Fe45 1.976 . S
O60 C54 1.287 . S
O61 Fe47 1.996 . S
O61 C54 1.255 . S
C62 O55 1.287 . S
C62 O56 1.255 . S
O63 Fe45 2.002 . S
O63 C59 1.295 . S
O64 Fe47 1.997 . S
O64 C59 1.235 . S
C65 O48 1.295 . S
C65 O49 1.235 . S
Fe66 O68 1.918 . S
Fe66 O71 1.997 . S
Fe66 O72 2.002 . S
Fe66 O77 1.976 . S
Fe66 O80 1.996 . S
Fe67 O68 1.918 . S
Fe67 O75 1.997 . S
Fe67 O78 1.996 . S
Fe67 O82 1.976 . S
Fe67 O85 2.002 . S
O68 Fe66 1.918 . S
O68 Fe67 1.918 . S
O68 Fe69 1.918 . S
Fe69 O68 1.918 . S
Fe69 O70 2.002 . S
Fe69 O79 1.976 . S
Fe69 O83 1.996 . S
Fe69 O86 1.997 . S
O70 Fe69 2.002 . S
O70 C87 1.295 . S
O71 Fe66 1.997 . S
O71 C87 1.235 . S
O72 Fe66 2.002 . S
O72 C73 1.295 . S
C73 O72 1.295 . S
C73 O75 1.235 . S
C74 O79 1.287 . S
C74 O80 1.255 . S
O75 Fe67 1.997 . S
O75 C73 1.235 . S
C76 O82 1.287 . S
C76 O83 1.255 . S
O77 Fe66 1.976 . S
O77 C84 1.287 . S
O78 Fe67 1.996 . S
O78 C84 1.255 . S
O79 Fe69 1.976 . S
O79 C74 1.287 . S
O80 Fe66 1.996 . S
O80 C74 1.255 . S
C81 O85 1.295 . S
C81 O86 1.235 . S
O82 Fe67 1.976 . S
O82 C76 1.287 . S
O83 Fe69 1.996 . S
O83 C76 1.255 . S
C84 O77 1.287 . S
C84 O78 1.255 . S
O85 Fe67 2.002 . S
O85 C81 1.295 . S
O86 Fe69 1.997 . S
O86 C81 1.235 . S
C87 O70 1.295 . S
C87 O71 1.235 . S
Fe88 O90 1.918 . S
Fe88 O93 1.997 . S
Fe88 O94 2.002 . S
Fe88 O99 1.976 . S
Fe88 O102 1.996 . S
Fe89 O90 1.918 . S
Fe89 O97 1.997 . S
Fe89 O100 1.996 . S
Fe89 O104 1.976 . S
Fe89 O107 2.002 . S
O90 Fe88 1.918 . S
O90 Fe89 1.918 . S
O90 Fe91 1.918 . S
Fe91 O90 1.918 . S
Fe91 O92 2.002 . S
Fe91 O101 1.976 . S
Fe91 O105 1.996 . S
Fe91 O108 1.997 . S
O92 Fe91 2.002 . S
O92 C109 1.295 . S
O93 Fe88 1.997 . S
O93 C109 1.235 . S
O94 Fe88 2.002 . S
O94 C95 1.295 . S
C95 O94 1.295 . S
C95 O97 1.235 . S
C96 O101 1.287 . S
C96 O102 1.255 . S
O97 Fe89 1.997 . S
O97 C95 1.235 . S
C98 O104 1.287 . S
C98 O105 1.255 . S
O99 Fe88 1.976 . S
O99 C106 1.287 . S
O100 Fe89 1.996 . S
O100 C106 1.255 . S
O101 Fe91 1.976 . S
O101 C96 1.287 . S
O102 Fe88 1.996 . S
O102 C96 1.255 . S
C103 O107 1.295 . S
C103 O108 1.235 . S
O104 Fe89 1.976 . S
O104 C98 1.287 . S
O105 Fe91 1.996 . S
O105 C98 1.255 . S
C106 O99 1.287 . S
C106 O100 1.255 . S
O107 Fe89 2.002 . S
O107 C103 1.295 . S
O108 Fe91 1.997 . S
O108 C103 1.235 . S
C109 O92 1.295 . S
C109 O93 1.235 . S
Fe110 O112 1.918 . S
Fe110 O115 1.997 . S
Fe110 O116 2.002 . S
Fe110 O121 1.976 . S
Fe110 O124 1.996 . S
Fe111 O112 1.918 . S
Fe111 O119 1.997 . S
Fe111 O122 1.996 . S
Fe111 O126 1.976 . S
Fe111 O129 2.002 . S
O112 Fe110 1.918 . S
O112 Fe111 1.918 . S
O112 Fe113 1.918 . S
Fe113 O112 1.918 . S
Fe113 O114 2.002 . S
Fe113 O123 1.976 . S
Fe113 O127 1.996 . S
Fe113 O130 1.997 . S
O114 Fe113 2.002 . S
O114 C131 1.295 . S
O115 Fe110 1.997 . S
O115 C131 1.235 . S
O116 Fe110 2.002 . S
O116 C117 1.295 . S
C117 O116 1.295 . S
C117 O119 1.235 . S
C118 O123 1.287 . S
C118 O124 1.255 . S
O119 Fe111 1.997 . S
O119 C117 1.235 . S
C120 O126 1.287 . S
C120 O127 1.255 . S
O121 Fe110 1.976 . S
O121 C128 1.287 . S
O122 Fe111 1.996 . S
O122 C128 1.255 . S
O123 Fe113 1.976 . S
O123 C118 1.287 . S
O124 Fe110 1.996 . S
O124 C118 1.255 . S
C125 O129 1.295 . S
C125 O130 1.235 . S
O126 Fe111 1.976 . S
O126 C120 1.287 . S
O127 Fe113 1.996 . S
O127 C120 1.255 . S
C128 O121 1.287 . S
C128 O122 1.255 . S
O129 Fe111 2.002 . S
O129 C125 1.295 . S
O130 Fe113 1.997 . S
O130 C125 1.235 . S
C131 O114 1.295 . S
C131 O115 1.235 . S
Fe132 O134 1.918 . S
Fe132 O137 1.997 . S
Fe132 O138 2.002 . S
Fe132 O143 1.976 . S
Fe132 O146 1.996 . S
Fe133 O134 1.918 . S
Fe133 O141 1.997 . S
Fe133 O144 1.996 . S
Fe133 O148 1.976 . S
Fe133 O151 2.002 . S
O134 Fe132 1.918 . S
O134 Fe133 1.918 . S
O134 Fe135 1.918 . S
Fe135 O134 1.918 . S
Fe135 O136 2.002 . S
Fe135 O145 1.976 . S
Fe135 O149 1.996 . S
Fe135 O152 1.997 . S
O136 Fe135 2.002 . S
O136 C153 1.295 . S
O137 Fe132 1.997 . S
O137 C153 1.235 . S
O138 Fe132 2.002 . S
O138 C139 1.295 . S
C139 O138 1.295 . S
C139 O141 1.235 . S
C140 O145 1.287 . S
C140 O146 1.255 . S
O141 Fe133 1.997 . S
O141 C139 1.235 . S
C142 O148 1.287 . S
C142 O149 1.255 . S
O143 Fe132 1.976 . S
O143 C150 1.287 . S
O144 Fe133 1.996 . S
O144 C150 1.255 . S
O145 Fe135 1.976 . S
O145 C140 1.287 . S
O146 Fe132 1.996 . S
O146 C140 1.255 . S
C147 O151 1.295 . S
C147 O152 1.235 . S
O148 Fe133 1.976 . S
O148 C142 1.287 . S
O149 Fe135 1.996 . S
O149 C142 1.255 . S
C150 O143 1.287 . S
C150 O144 1.255 . S
O151 Fe133 2.002 . S
O151 C147 1.295 . S
O152 Fe135 1.997 . S
O152 C147 1.235 . S
C153 O136 1.295 . S
C153 O137 1.235 . S
Fe154 O156 1.918 . S
Fe154 O159 1.997 . S
Fe154 O160 2.002 . S
Fe154 O165 1.976 . S
Fe154 O168 1.996 . S
Fe155 O156 1.918 . S
Fe155 O163 1.997 . S
Fe155 O166 1.996 . S
Fe155 O170 1.976 . S
Fe155 O173 2.002 . S
O156 Fe154 1.918 . S
O156 Fe155 1.918 . S
O156 Fe157 1.918 . S
Fe157 O156 1.918 . S
Fe157 O158 2.002 . S
Fe157 O167 1.976 . S
Fe157 O171 1.996 . S
Fe157 O174 1.997 . S
O158 Fe157 2.002 . S
O158 C175 1.295 . S
O159 Fe154 1.997 . S
O159 C175 1.235 . S
O160 Fe154 2.002 . S
O160 C161 1.295 . S
C161 O160 1.295 . S
C161 O163 1.235 . S
C162 O167 1.287 . S
C162 O168 1.255 . S
O163 Fe155 1.997 . S
O163 C161 1.235 . S
C164 O170 1.287 . S
C164 O171 1.255 . S
O165 Fe154 1.976 . S
O165 C172 1.287 . S
O166 Fe155 1.996 . S
O166 C172 1.255 . S
O167 Fe157 1.976 . S
O167 C162 1.287 . S
O168 Fe154 1.996 . S
O168 C162 1.255 . S
C169 O173 1.295 . S
C169 O174 1.235 . S
O170 Fe155 1.976 . S
O170 C164 1.287 . S
O171 Fe157 1.996 . S
O171 C164 1.255 . S
C172 O165 1.287 . S
C172 O166 1.255 . S
O173 Fe155 2.002 . S
O173 C169 1.295 . S
O174 Fe157 1.997 . S
O174 C169 1.235 . S
C175 O158 1.295 . S
C175 O159 1.235 . S
C176 C177 1.363 . S
C176 C182 1.379 . S
C176 N184 1.356 . S
C177 C176 1.363 . S
C177 C183 1.363 . S
C178 C179 1.363 1_545 S
C178 C183 1.379 1_545 S
C178 N185 1.356 . S
C179 C178 1.363 1_565 S
C179 C182 1.363 . S
N180 C182 1.356 . S
N180 H192 0.984 . S
N180 H193 0.985 . S
N181 C183 1.356 . S
N181 H186 0.984 . S
N181 H187 0.985 1_565 S
C182 C176 1.379 . S
C182 C179 1.363 . S
C182 N180 1.356 . S
C183 C177 1.363 . S
C183 C178 1.379 1_565 S
C183 N181 1.356 . S
N184 C176 1.356 . S
N184 H190 0.984 . S
N184 H191 0.984 . S
N185 C178 1.356 . S
N185 H188 0.984 . S
N185 H189 0.985 . S
H186 N181 0.984 . S
H187 N181 0.985 1_545 S
H188 N185 0.984 . S
H189 N185 0.985 . S
H190 N184 0.984 . S
H191 N184 0.984 . S
H192 N180 0.984 . S
H193 N180 0.985 . S
C194 C195 1.363 . S
C194 C200 1.379 . S
C194 N202 1.356 . S
C195 C194 1.363 . S
C195 C201 1.363 . S
C196 C197 1.365 . S
C196 C201 1.384 . S
C196 N203 1.349 1_565 S
C197 C196 1.365 . S
C197 C200 1.363 . S
N198 C200 1.356 . S
N198 H210 0.984 . S
N198 H211 0.985 . S
N199 C201 1.356 . S
N199 H204 0.984 1_455 S
N199 H205 0.985 . S
C200 C194 1.379 . S
C200 C197 1.363 . S
C200 N198 1.356 . S
C201 C195 1.363 . S
C201 C196 1.384 . S
C201 N199 1.356 . S
N202 C194 1.356 . S
N202 H208 0.984 . S
N202 H209 0.984 1_455 S
N203 C196 1.349 1_545 S
N203 H206 0.984 . S
N203 H207 0.985 . S
H204 N199 0.984 1_655 S
H205 N199 0.985 . S
H206 N203 0.984 . S
H207 N203 0.985 . S
H208 N202 0.984 . S
H209 N202 0.984 1_655 S
H210 N198 0.984 . S
H211 N198 0.985 . S
C212 C213 1.363 . S
C212 C218 1.379 . S
C212 N220 1.356 . S
C213 C212 1.363 . S
C213 C219 1.363 . S
C214 C215 1.363 . S
C214 C219 1.379 . S
C214 N221 1.356 . S
C215 C214 1.363 . S
C215 C218 1.363 . S
N216 C218 1.356 . S
N216 H228 0.984 . S
N216 H229 0.985 . S
N217 C219 1.356 1_565 S
N217 H222 0.984 . S
N217 H223 0.985 . S
C218 C212 1.379 . S
C218 C215 1.363 . S
C218 N216 1.356 . S
C219 C213 1.363 . S
C219 C214 1.379 . S
C219 N217 1.356 1_545 S
N220 C212 1.356 . S
N220 H226 0.984 . S
N220 H227 0.984 . S
N221 C214 1.356 . S
N221 H224 0.984 . S
N221 H225 0.985 . S
H222 N217 0.984 . S
H223 N217 0.985 . S
H224 N221 0.984 . S
H225 N221 0.985 . S
H226 N220 0.984 . S
H227 N220 0.984 . S
H228 N216 0.984 . S
H229 N216 0.985 . S
C230 C231 1.363 . S
C230 C236 1.379 . S
C230 N238 1.356 . S
C231 C230 1.363 . S
C231 C237 1.363 . S
C232 C233 1.363 . S
C232 C237 1.379 . S
C232 N239 1.356 . S
C233 C232 1.363 . S
C233 C236 1.363 . S
N234 C236 1.356 1_455 S
N234 H246 0.984 . S
N234 H247 0.985 . S
N235 C237 1.356 . S
N235 H240 0.984 1_545 S
N235 H241 0.985 . S
C236 C230 1.379 . S
C236 C233 1.363 . S
C236 N234 1.356 1_655 S
C237 C231 1.363 . S
C237 C232 1.379 . S
C237 N235 1.356 . S
N238 C230 1.356 . S
N238 H244 0.984 . S
N238 H245 0.984 1_545 S
N239 C232 1.356 . S
N239 H242 0.984 . S
N239 H243 0.985 . S
H240 N235 0.984 1_565 S
H241 N235 0.985 . S
H242 N239 0.984 . S
H243 N239 0.985 . S
H244 N238 0.984 . S
H245 N238 0.984 1_565 S
H246 N234 0.984 . S
H247 N234 0.985 . S
C248 C249 1.363 . S
C248 C254 1.379 . S
C248 N256 1.356 . S
C249 C248 1.363 . S
C249 C255 1.363 . S
C250 C251 1.363 . S
C250 C255 1.379 . S
C250 N257 1.356 . S
C251 C250 1.363 . S
C251 C254 1.363 . S
N252 C254 1.356 . S
N252 H264 0.984 . S
N252 H265 0.985 . S
N253 C255 1.356 . S
N253 H258 0.984 1_655 S
N253 H259 0.985 . S
C254 C248 1.379 . S
C254 C251 1.363 . S
C254 N252 1.356 . S
C255 C249 1.363 . S
C255 C250 1.379 . S
C255 N253 1.356 . S
N256 C248 1.356 . S
N256 H262 0.984 . S
N256 H263 0.984 1_655 S
N257 C250 1.356 . S
N257 H260 0.984 . S
N257 H261 0.985 . S
H258 N253 0.984 1_455 S
H259 N253 0.985 . S
H260 N257 0.984 . S
H261 N257 0.985 . S
H262 N256 0.984 . S
H263 N256 0.984 1_455 S
H264 N252 0.984 . S
H265 N252 0.985 . S
C266 C267 1.363 . S
C266 C272 1.379 . S
C266 N274 1.356 . S
C267 C266 1.363 . S
C267 C273 1.363 . S
C268 C269 1.363 . S
C268 C273 1.379 . S
C268 N275 1.356 . S
C269 C268 1.363 . S
C269 C272 1.363 . S
N270 C272 1.356 . S
N270 H282 0.984 . S
N270 H283 0.985 . S
N271 C273 1.356 . S
N271 H276 0.984 . S
N271 H277 0.985 . S
C272 C266 1.379 . S
C272 C269 1.363 . S
C272 N270 1.356 . S
C273 C267 1.363 . S
C273 C268 1.379 . S
C273 N271 1.356 . S
N274 C266 1.356 . S
N274 H280 0.984 . S
N274 H281 0.984 . S
N275 C268 1.356 . S
N275 H278 0.984 . S
N275 H279 0.985 . S
H276 N271 0.984 . S
H277 N271 0.985 . S
H278 N275 0.984 . S
H279 N275 0.985 . S
H280 N274 0.984 . S
H281 N274 0.984 . S
H282 N270 0.984 . S
H283 N270 0.985 . S
C284 C285 1.363 . S
C284 C290 1.379 . S
C284 N292 1.356 . S
C285 C284 1.363 . S
C285 C291 1.363 . S
C286 C287 1.363 . S
C286 C291 1.379 . S
C286 N293 1.356 . S
C287 C286 1.363 . S
C287 C290 1.363 . S
N288 C290 1.356 . S
N288 H300 0.984 . S
N288 H301 0.985 . S
N289 C291 1.356 . S
N289 H294 0.984 1_455 S
N289 H295 0.985 . S
C290 C284 1.379 . S
C290 C287 1.363 . S
C290 N288 1.356 . S
C291 C285 1.363 . S
C291 C286 1.379 . S
C291 N289 1.356 . S
N292 C284 1.356 . S
N292 H298 0.984 . S
N292 H299 0.984 1_455 S
N293 C286 1.356 . S
N293 H296 0.984 . S
N293 H297 0.985 . S
H294 N289 0.984 1_655 S
H295 N289 0.985 . S
H296 N293 0.984 . S
H297 N293 0.985 . S
H298 N292 0.984 . S
H299 N292 0.984 1_655 S
H300 N288 0.984 . S
H301 N288 0.985 . S
C302 C303 1.363 . S
C302 C308 1.379 . S
C302 N310 1.356 . S
C303 C302 1.363 . S
C303 C309 1.363 . S
C304 C305 1.363 . S
C304 C309 1.379 . S
C304 N311 1.356 . S
C305 C304 1.363 . S
C305 C308 1.363 . S
N306 C308 1.356 . S
N306 H318 0.984 . S
N306 H319 0.985 . S
N307 C309 1.356 . S
N307 H312 0.984 . S
N307 H313 0.985 . S
C308 C302 1.379 . S
C308 C305 1.363 . S
C308 N306 1.356 . S
C309 C303 1.363 . S
C309 C304 1.379 . S
C309 N307 1.356 . S
N310 C302 1.356 . S
N310 H316 0.984 . S
N310 H317 0.984 . S
N311 C304 1.356 . S
N311 H314 0.984 . S
N311 H315 0.985 . S
H312 N307 0.984 . S
H313 N307 0.985 . S
H314 N311 0.984 . S
H315 N311 0.985 . S
H316 N310 0.984 . S
H317 N310 0.984 . S
H318 N306 0.984 . S
H319 N306 0.985 . S
C320 C321 1.363 . S
C320 C326 1.379 1_454 S
C320 N328 1.356 . S
C321 C320 1.363 . S
C321 C327 1.363 1_545 S
C322 C323 1.363 . S
C322 C327 1.379 1_656 S
C322 N329 1.356 . S
C323 C322 1.363 . S
C323 C326 1.363 1_565 S
N324 C326 1.356 . S
N324 H336 0.984 . S
N324 H337 0.985 . S
N325 C327 1.356 . S
N325 H330 0.984 . S
N325 H331 0.985 . S
C326 C320 1.379 1_656 S
C326 C323 1.363 1_545 S
C326 N324 1.356 . S
C327 C321 1.363 1_565 S
C327 C322 1.379 1_454 S
C327 N325 1.356 . S
N328 C320 1.356 . S
N328 H334 0.984 1_455 S
N328 H335 0.984 . S
N329 C322 1.356 . S
N329 H332 0.984 . S
N329 H333 0.985 1_655 S
H330 N325 0.984 . S
H331 N325 0.985 . S
H332 N329 0.984 . S
H333 N329 0.985 1_455 S
H334 N328 0.984 1_655 S
H335 N328 0.984 . S
H336 N324 0.984 . S
H337 N324 0.985 . S
C338 C339 1.363 1_545 S
C338 C344 1.379 1_554 S
C338 N346 1.356 . S
C339 C338 1.363 1_565 S
C339 C345 1.363 . S
C340 C341 1.363 1_565 S
C340 C345 1.379 1_556 S
C340 N347 1.356 . S
C341 C340 1.363 1_545 S
C341 C344 1.363 . S
N342 C344 1.356 . S
N342 H354 0.984 . S
N342 H355 0.985 . S
N343 C345 1.356 . S
N343 H348 0.984 . S
N343 H349 0.985 . S
C344 C338 1.379 1_556 S
C344 C341 1.363 . S
C344 N342 1.356 . S
C345 C339 1.363 . S
C345 C340 1.379 1_554 S
C345 N343 1.356 . S
N346 C338 1.356 . S
N346 H352 0.984 . S
N346 H353 0.984 . S
N347 C340 1.356 . S
N347 H350 0.984 . S
N347 H351 0.985 . S
H348 N343 0.984 . S
H349 N343 0.985 . S
H350 N347 0.984 . S
H351 N347 0.985 . S
H352 N346 0.984 . S
H353 N346 0.984 . S
H354 N342 0.984 . S
H355 N342 0.985 . S
C356 C357 1.363 . S
C356 C362 1.379 . S
C356 N364 1.356 . S
C357 C356 1.363 . S
C357 C363 1.363 . S
C358 C359 1.363 . S
C358 C363 1.379 . S
C358 N365 1.356 . S
C359 C358 1.363 . S
C359 C362 1.363 . S
N360 C362 1.356 . S
N360 H372 0.984 . S
N360 H373 0.985 . S
N361 C363 1.356 . S
N361 H366 0.984 . S
N361 H367 0.985 . S
C362 C356 1.379 . S
C362 C359 1.363 . S
C362 N360 1.356 . S
C363 C357 1.363 . S
C363 C358 1.379 . S
C363 N361 1.356 . S
N364 C356 1.356 . S
N364 H370 0.984 . S
N364 H371 0.984 . S
N365 C358 1.356 . S
N365 H368 0.984 . S
N365 H369 0.985 . S
H366 N361 0.984 . S
H367 N361 0.985 . S
H368 N365 0.984 . S
H369 N365 0.985 . S
H370 N364 0.984 . S
H371 N364 0.984 . S
H372 N360 0.984 . S
H373 N360 0.985 . S
C374 C375 1.363 . S
C374 C380 1.379 . S
C374 N382 1.356 . S
C375 C374 1.363 . S
C375 C381 1.363 1_455 S
C376 C377 1.363 . S
C376 C381 1.379 . S
C376 N383 1.356 . S
C377 C376 1.363 . S
C377 C380 1.363 1_655 S
N378 C380 1.356 1_655 S
N378 H390 0.984 1_655 S
N378 H391 0.985 . S
N379 C381 1.356 1_455 S
N379 H384 0.984 . S
N379 H385 0.985 1_455 S
C380 C374 1.379 . S
C380 C377 1.363 1_455 S
C380 N378 1.356 1_455 S
C381 C375 1.363 1_655 S
C381 C376 1.379 . S
C381 N379 1.356 1_655 S
N382 C374 1.356 . S
N382 H388 0.984 . S
N382 H389 0.984 . S
N383 C376 1.356 . S
N383 H386 0.984 . S
N383 H387 0.985 . S
H384 N379 0.984 . S
H385 N379 0.985 1_655 S
H386 N383 0.984 . S
H387 N383 0.985 . S
H388 N382 0.984 . S
H389 N382 0.984 . S
H390 N378 0.984 1_455 S
H391 N378 0.985 . S
C392 C393 1.363 . S
C392 C398 1.379 1_556 S
C392 N400 1.356 . S
C393 C392 1.363 . S
C393 C399 1.363 . S
C394 C395 1.363 . S
C394 C399 1.379 1_554 S
C394 N401 1.356 . S
C395 C394 1.363 . S
C395 C398 1.363 . S
N396 C398 1.356 . S
N396 H408 0.984 . S
N396 H409 0.985 . S
N397 C399 1.356 . S
N397 H402 0.984 . S
N397 H403 0.985 . S
C398 C392 1.379 1_554 S
C398 C395 1.363 . S
C398 N396 1.356 . S
C399 C393 1.363 . S
C399 C394 1.379 1_556 S
C399 N397 1.356 . S
N400 C392 1.356 . S
N400 H406 0.984 . S
N400 H407 0.984 . S
N401 C394 1.356 . S
N401 H404 0.984 . S
N401 H405 0.985 . S
H402 N397 0.984 . S
H403 N397 0.985 . S
H404 N401 0.984 . S
H405 N401 0.985 . S
H406 N400 0.984 . S
H407 N400 0.984 . S
H408 N396 0.984 . S
H409 N396 0.985 . S
C410 C411 1.363 . S
C410 C416 1.379 1_556 S
C410 N418 1.356 . S
C411 C410 1.363 . S
C411 C417 1.363 . S
C412 C413 1.363 . S
C412 C417 1.379 1_554 S
C412 N419 1.356 . S
C413 C412 1.363 . S
C413 C416 1.363 . S
N414 C416 1.356 . S
N414 H426 0.984 . S
N414 H427 0.985 . S
N415 C417 1.356 . S
N415 H420 0.984 . S
N415 H421 0.985 . S
C416 C410 1.379 1_554 S
C416 C413 1.363 . S
C416 N414 1.356 . S
C417 C411 1.363 . S
C417 C412 1.379 1_556 S
C417 N415 1.356 . S
N418 C410 1.356 . S
N418 H424 0.984 . S
N418 H425 0.984 . S
N419 C412 1.356 . S
N419 H422 0.984 . S
N419 H423 0.985 . S
H420 N415 0.984 . S
H421 N415 0.985 . S
H422 N419 0.984 . S
H423 N419 0.985 . S
H424 N418 0.984 . S
H425 N418 0.984 . S
H426 N414 0.984 . S
H427 N414 0.985 . S
C428 C429 1.363 . S
C428 C434 1.379 . S
C428 N436 1.356 . S
C429 C428 1.363 . S
C429 C435 1.363 . S
C430 C431 1.363 . S
C430 C435 1.379 . S
C430 N437 1.356 . S
C431 C430 1.363 . S
C431 C434 1.363 . S
N432 C434 1.356 . S
N432 H444 0.984 . S
N432 H445 0.985 . S
N433 C435 1.356 . S
N433 H438 0.984 . S
N433 H439 0.985 . S
C434 C428 1.379 . S
C434 C431 1.363 . S
C434 N432 1.356 . S
C435 C429 1.363 . S
C435 C430 1.379 . S
C435 N433 1.356 . S
N436 C428 1.356 . S
N436 H442 0.984 . S
N436 H443 0.984 . S
N437 C430 1.356 . S
N437 H440 0.984 . S
N437 H441 0.985 . S
H438 N433 0.984 . S
H439 N433 0.985 . S
H440 N437 0.984 . S
H441 N437 0.985 . S
H442 N436 0.984 . S
H443 N436 0.984 . S
H444 N432 0.984 . S
H445 N432 0.985 . S
C446 C447 1.363 . S
C446 C452 1.379 . S
C446 N454 1.356 . S
C447 C446 1.363 . S
C447 C453 1.363 . S
C448 C449 1.363 . S
C448 C453 1.379 . S
C448 N455 1.356 . S
C449 C448 1.363 . S
C449 C452 1.363 . S
N450 C452 1.356 . S
N450 H462 0.984 . S
N450 H463 0.985 . S
N451 C453 1.356 . S
N451 H456 0.984 . S
N451 H457 0.985 . S
C452 C446 1.379 . S
C452 C449 1.363 . S
C452 N450 1.356 . S
C453 C447 1.363 . S
C453 C448 1.379 . S
C453 N451 1.356 . S
N454 C446 1.356 . S
N454 H460 0.984 . S
N454 H461 0.984 . S
N455 C448 1.356 . S
N455 H458 0.984 . S
N455 H459 0.985 . S
H456 N451 0.984 . S
H457 N451 0.985 . S
H458 N455 0.984 . S
H459 N455 0.985 . S
H460 N454 0.984 . S
H461 N454 0.984 . S
H462 N450 0.984 . S
H463 N450 0.985 . S
C464 C465 1.363 . S
C464 C470 1.379 . S
C464 N472 1.356 . S
C465 C464 1.363 . S
C465 C471 1.363 . S
C466 C467 1.363 . S
C466 C471 1.379 . S
C466 N473 1.356 . S
C467 C466 1.363 . S
C467 C470 1.363 . S
N468 C470 1.356 . S
N468 H480 0.984 . S
N468 H481 0.985 . S
N469 C471 1.356 . S
N469 H474 0.984 . S
N469 H475 0.985 . S
C470 C464 1.379 . S
C470 C467 1.363 . S
C470 N468 1.356 . S
C471 C465 1.363 . S
C471 C466 1.379 . S
C471 N469 1.356 . S
N472 C464 1.356 . S
N472 H478 0.984 . S
N472 H479 0.984 . S
N473 C466 1.356 . S
N473 H476 0.984 . S
N473 H477 0.985 . S
H474 N469 0.984 . S
H475 N469 0.985 . S
H476 N473 0.984 . S
H477 N473 0.985 . S
H478 N472 0.984 . S
H479 N472 0.984 . S
H480 N468 0.984 . S
H481 N468 0.985 . S
C482 C483 1.363 . S
C482 C488 1.379 . S
C482 N490 1.356 . S
C483 C482 1.363 . S
C483 C489 1.363 . S
C484 C485 1.363 . S
C484 C489 1.379 . S
C484 N491 1.356 . S
C485 C484 1.363 . S
C485 C488 1.363 . S
N486 C488 1.356 . S
N486 H498 0.984 . S
N486 H499 0.985 . S
N487 C489 1.356 . S
N487 H492 0.984 . S
N487 H493 0.998 . S
C488 C482 1.379 . S
C488 C485 1.363 . S
C488 N486 1.356 . S
C489 C483 1.363 . S
C489 C484 1.379 . S
C489 N487 1.356 . S
N490 C482 1.356 . S
N490 H496 0.984 . S
N490 H497 0.984 . S
N491 C484 1.356 . S
N491 H494 0.984 . S
N491 H495 0.998 . S
H492 N487 0.984 . S
H493 N487 0.998 . S
H494 N491 0.984 . S
H495 N491 0.998 . S
H496 N490 0.984 . S
H497 N490 0.984 . S
H498 N486 0.984 . S
H499 N486 0.985 . S
C500 C501 1.363 . S
C500 C506 1.379 1_556 S
C500 N508 1.356 . S
C501 C500 1.363 . S
C501 C507 1.363 . S
C502 C503 1.363 . S
C502 C507 1.379 1_554 S
C502 N509 1.356 . S
C503 C502 1.363 . S
C503 C506 1.363 . S
N504 C506 1.356 . S
N504 H516 0.984 . S
N504 H517 0.985 . S
N505 C507 1.356 . S
N505 H510 0.984 . S
N505 H511 0.985 . S
C506 C500 1.379 1_554 S
C506 C503 1.363 . S
C506 N504 1.356 . S
C507 C501 1.363 . S
C507 C502 1.379 1_556 S
C507 N505 1.356 . S
N508 C500 1.356 . S
N508 H514 0.984 . S
N508 H515 0.984 . S
N509 C502 1.356 . S
N509 H512 0.984 . S
N509 H513 0.985 . S
H510 N505 0.984 . S
H511 N505 0.985 . S
H512 N509 0.984 . S
H513 N509 0.985 . S
H514 N508 0.984 . S
H515 N508 0.984 . S
H516 N504 0.984 . S
H517 N504 0.985 . S
C518 C519 1.363 . S
C518 C524 1.379 1_556 S
C518 N526 1.356 . S
C519 C518 1.363 . S
C519 C525 1.363 . S
C520 C521 1.363 . S
C520 C525 1.379 1_554 S
C520 N527 1.356 . S
C521 C520 1.363 . S
C521 C524 1.363 . S
N522 C524 1.356 . S
N522 H534 0.984 . S
N522 H535 0.985 . S
N523 C525 1.356 . S
N523 H528 0.984 . S
N523 H529 0.985 . S
C524 C518 1.379 1_554 S
C524 C521 1.363 . S
C524 N522 1.356 . S
C525 C519 1.363 . S
C525 C520 1.379 1_556 S
C525 N523 1.356 . S
N526 C518 1.356 . S
N526 H532 0.984 . S
N526 H533 0.984 . S
N527 C520 1.356 . S
N527 H530 0.984 . S
N527 H531 0.985 . S
H528 N523 0.984 . S
H529 N523 0.985 . S
H530 N527 0.984 . S
H531 N527 0.985 . S
H532 N526 0.984 . S
H533 N526 0.984 . S
H534 N522 0.984 . S
H535 N522 0.985 . S
C536 C537 1.363 . S
C536 C542 1.379 . S
C536 N544 1.356 . S
C537 C536 1.363 . S
C537 C543 1.363 . S
C538 C539 1.363 . S
C538 C543 1.379 . S
C538 N545 1.356 . S
C539 C538 1.363 . S
C539 C542 1.363 . S
N540 C542 1.356 . S
N540 H552 0.984 . S
N540 H553 0.985 . S
N541 C543 1.356 . S
N541 H546 0.984 . S
N541 H547 0.985 . S
C542 C536 1.379 . S
C542 C539 1.363 . S
C542 N540 1.356 . S
C543 C537 1.363 . S
C543 C538 1.379 . S
C543 N541 1.356 . S
N544 C536 1.356 . S
N544 H550 0.984 . S
N544 H551 0.984 . S
N545 C538 1.356 . S
N545 H548 0.984 . S
N545 H549 0.985 . S
H546 N541 0.984 . S
H547 N541 0.985 . S
H548 N545 0.984 . S
H549 N545 0.985 . S
H550 N544 0.984 . S
H551 N544 0.984 . S
H552 N540 0.984 . S
H553 N540 0.985 . S
C554 C555 1.363 . S
C554 C560 1.379 . S
C554 N562 1.356 . S
C555 C554 1.363 . S
C555 C561 1.363 . S
C556 C557 1.363 . S
C556 C561 1.379 . S
C556 N563 1.356 . S
C557 C556 1.363 . S
C557 C560 1.363 . S
N558 C560 1.356 . S
N558 H570 0.984 . S
N558 H571 0.985 . S
N559 C561 1.356 . S
N559 H564 0.984 . S
N559 H565 0.985 . S
C560 C554 1.379 . S
C560 C557 1.363 . S
C560 N558 1.356 . S
C561 C555 1.363 . S
C561 C556 1.379 . S
C561 N559 1.356 . S
N562 C554 1.356 . S
N562 H568 0.984 . S
N562 H569 0.984 . S
N563 C556 1.356 . S
N563 H566 0.984 . S
N563 H567 0.985 . S
H564 N559 0.984 . S
H565 N559 0.985 . S
H566 N563 0.984 . S
H567 N563 0.985 . S
H568 N562 0.984 . S
H569 N562 0.984 . S
H570 N558 0.984 . S
H571 N558 0.985 . S
C572 C573 1.363 . S
C572 C578 1.379 . S
C572 N580 1.356 . S
C573 C572 1.363 . S
C573 C579 1.363 . S
C574 C575 1.363 . S
C574 C579 1.379 . S
C574 N581 1.356 . S
C575 C574 1.363 . S
C575 C578 1.363 . S
N576 C578 1.356 . S
N576 H588 0.984 . S
N576 H589 0.985 . S
N577 C579 1.356 . S
N577 H582 0.984 . S
N577 H583 0.985 . S
C578 C572 1.379 . S
C578 C575 1.363 . S
C578 N576 1.356 . S
C579 C573 1.363 . S
C579 C574 1.379 . S
C579 N577 1.356 . S
N580 C572 1.356 . S
N580 H586 0.984 . S
N580 H587 0.984 . S
N581 C574 1.356 . S
N581 H584 0.984 . S
N581 H585 0.985 . S
H582 N577 0.984 . S
H583 N577 0.985 . S
H584 N581 0.984 . S
H585 N581 0.985 . S
H586 N580 0.984 . S
H587 N580 0.984 . S
H588 N576 0.984 . S
H589 N576 0.985 . S
C590 C591 1.363 . S
C590 C596 1.379 . S
C590 N598 1.356 . S
C591 C590 1.363 . S
C591 C597 1.363 . S
C592 C593 1.363 . S
C592 C597 1.379 . S
C592 N599 1.356 . S
C593 C592 1.363 . S
C593 C596 1.363 . S
N594 C596 1.356 . S
N594 H606 0.984 . S
N594 H607 0.985 . S
N595 C597 1.356 . S
N595 H600 0.984 . S
N595 H601 0.985 . S
C596 C590 1.379 . S
C596 C593 1.363 . S
C596 N594 1.356 . S
C597 C591 1.363 . S
C597 C592 1.379 . S
C597 N595 1.356 . S
N598 C590 1.356 . S
N598 H604 0.984 . S
N598 H605 0.984 . S
N599 C592 1.356 . S
N599 H602 0.984 . S
N599 H603 0.985 . S
H600 N595 0.984 . S
H601 N595 0.985 . S
H602 N599 0.984 . S
H603 N599 0.985 . S
H604 N598 0.984 . S
H605 N598 0.984 . S
H606 N594 0.984 . S
H607 N594 0.985 . S
C177 C76 1.417 . S
C179 C21 1.501 1_565 S
C195 C52 1.417 1_455 S
C197 C37 1.501 1_565 S
C213 C51 1.513 1_545 S
C215 C30 1.437 . S
C231 C87 1.513 1_545 S
C233 C18 1.437 1_655 S
C249 C164 1.417 1_655 S
C251 C103 1.501 . S
C267 C125 1.501 . S
C269 C140 1.417 . S
C285 C118 1.437 1_455 S
C287 C139 1.513 . S
C303 C96 1.437 . S
C305 C175 1.513 . S
C321 C7 1.328 . S
C323 C65 1.314 . S
C339 C81 1.314 . S
C341 C43 1.328 . S
C357 C109 1.328 . S
C359 C153 1.314 . S
C375 C169 1.314 . S
C377 C131 1.328 . S
C393 C29 1.200 . S
C395 C15 1.200 . S
C411 C59 1.206 . S
C413 C73 1.206 . S
C429 C117 1.200 . S
C431 C95 1.200 . S
C447 C161 1.206 . S
C449 C147 1.206 . S
C465 C8 1.470 . S
C467 C32 1.470 . S
C483 C62 1.492 . S
C485 C74 1.492 . S
C501 C98 1.470 . S
C503 C120 1.470 . S
C519 C162 1.492 . S
C521 C150 1.492 . S
C537 C10 1.727 . S
C539 C142 1.745 . S
C555 C40 1.727 . S
C557 C172 1.745 . S
C573 C106 1.727 . S
C575 C54 1.745 . S
C591 C128 1.727 . S
C593 C84 1.745 . S
