# Generated by pormake.
# Topology dia, (4)-cn, num edge types: 1
# Building blocks:
#     Node 0, Type 0, BuildingBlock: ICAMEG_clean_sbu_1, # of connection points: 4
#     Node 1, Type 0, BuildingBlock: ICAMEG_clean_sbu_1, # of connection points: 4
#     Node 2, Type 0, BuildingBlock: ICAMEG_clean_sbu_1, # of connection points: 4
#     Node 3, Type 0, BuildingBlock: ICAMEG_clean_sbu_1, # of connection points: 4
#     Node 4, Type 0, BuildingBlock: ICAMEG_clean_sbu_1, # of connection points: 4
#     Node 5, Type 0, BuildingBlock: ICAMEG_clean_sbu_1, # of connection points: 4
#     Node 6, Type 0, BuildingBlock: ICAMEG_clean_sbu_1, # of connection points: 4
#     Node 7, Type 0, BuildingBlock: ICAMEG_clean_sbu_1, # of connection points: 4
#     Edge 8, Type (0, 0), BuildingBlock: UVAHIK_clean_linker_0, # of connection points: 2
#     Edge 9, Type (0, 0), BuildingBlock: UVAHIK_clean_linker_0, # of connection points: 2
#     Edge 10, Type (0, 0), BuildingBlock: UVAHIK_clean_linker_0, # of connection points: 2
#     Edge 11, Type (0, 0), BuildingBlock: UVAHIK_clean_linker_0, # of connection points: 2
#     Edge 12, Type (0, 0), BuildingBlock: UVAHIK_clean_linker_0, # of connection points: 2
#     Edge 13, Type (0, 0), BuildingBlock: UVAHIK_clean_linker_0, # of connection points: 2
#     Edge 14, Type (0, 0), BuildingBlock: UVAHIK_clean_linker_0, # of connection points: 2
#     Edge 15, Type (0, 0), BuildingBlock: UVAHIK_clean_linker_0, # of connection points: 2
#     Edge 16, Type (0, 0), BuildingBlock: UVAHIK_clean_linker_0, # of connection points: 2
#     Edge 17, Type (0, 0), BuildingBlock: UVAHIK_clean_linker_0, # of connection points: 2
#     Edge 18, Type (0, 0), BuildingBlock: UVAHIK_clean_linker_0, # of connection points: 2
#     Edge 19, Type (0, 0), BuildingBlock: UVAHIK_clean_linker_0, # of connection points: 2
#     Edge 20, Type (0, 0), BuildingBlock: UVAHIK_clean_linker_0, # of connection points: 2
#     Edge 21, Type (0, 0), BuildingBlock: UVAHIK_clean_linker_0, # of connection points: 2
#     Edge 22, Type (0, 0), BuildingBlock: UVAHIK_clean_linker_0, # of connection points: 2
#     Edge 23, Type (0, 0), BuildingBlock: UVAHIK_clean_linker_0, # of connection points: 2
# Relax obj value: 0.181
# Max RMSD: 0.230
# Mean RMSD: 0.230
data_MOF--net-dia--node1-ICAMEG_clean_sbu_1--edge1-UVAHIK_clean_linker_0
_symmetry_space_group_name_H-M    P1
_symmetry_Int_Tables_number       1
_symmetry_cell_setting            triclinic
loop_
_symmetry_equiv_pos_as_xyz
'x, y, z'
_cell_length_a     42.222861
_cell_length_b     42.149825
_cell_length_c     54.504285
_cell_angle_alpha  89.991367
_cell_angle_beta   90.056757
_cell_angle_gamma 101.67362
loop_
_atom_site_label
_atom_site_type_symbol
_atom_site_fract_x
_atom_site_fract_y
_atom_site_fract_z
_atom_type_partial_charge
Co0 Co 0.15722 0.10955 0.63462 0.0
Co1 Co 0.08777 0.13808 0.62516 0.0
O2 O 0.11853 0.12299 0.64703 0.0
C3 C 0.15361 0.0459 0.65853 0.0
O4 O 0.15348 0.03385 0.63631 0.0
C5 C 0.09954 0.19064 0.6629 0.0
O6 O 0.13081 0.19387 0.65944 0.0
O7 O 0.1231 0.17135 0.61073 0.0
O8 O 0.16247 0.14294 0.60793 0.0
H9 H 0.04875 0.17417 0.5447 0.0
H10 H 0.15347 0.12606 0.6872 0.0
O11 O 0.15316 0.07591 0.66141 0.0
H12 H 0.249 0.20211 0.65545 0.0
H13 H 0.26468 0.07563 0.64239 0.0
H14 H 0.1807 0.09653 0.58516 0.0
H15 H 0.2167 0.16114 0.62829 0.0
H16 H 0.2161 0.09316 0.65789 0.0
O17 O 0.0797 0.16951 0.65087 0.0
H18 H 0.08678 0.15417 0.5722 0.0
H19 H 0.02342 0.15564 0.63249 0.0
H20 H 0.22895 0.07915 0.56887 0.0
H21 H 0.18531 0.16645 0.71508 0.0
H22 H 0.27135 0.06856 0.59757 0.0
H23 H 0.23341 0.20488 0.69922 0.0
O24 O 0.12982 0.07773 0.61236 0.0
H25 H 0.0251 0.07531 0.69395 0.0
H26 H 0.03406 0.08835 0.60415 0.0
H27 H 0.99099 0.04603 0.62156 0.0
H28 H 0.98623 0.03938 0.66678 0.0
H29 H 0.06804 0.11712 0.67575 0.0
H30 H 0.98481 0.1759 0.60567 0.0
H31 H 0.99732 0.18517 0.56141 0.0
O32 O 0.09431 0.10679 0.59886 0.0
C33 C 0.15007 0.16716 0.60216 0.0
C34 C 0.04297 0.17013 0.56394 0.0
C35 C 0.00711 0.17114 0.59816 0.0
N36 N 0.05725 0.15353 0.60389 0.0
C37 C 0.06438 0.15872 0.57959 0.0
C38 C 0.02911 0.15975 0.61327 0.0
C39 C 0.01414 0.17633 0.57333 0.0
C40 C 0.17455 0.14251 0.68022 0.0
N41 N 0.18331 0.14109 0.65619 0.0
C42 C 0.1924 0.16541 0.69607 0.0
C43 C 0.21936 0.187 0.68715 0.0
C44 C 0.22811 0.18547 0.66259 0.0
C45 C 0.20966 0.16227 0.64728 0.0
C46 C 0.24639 0.0802 0.62969 0.0
C47 C 0.19907 0.09202 0.59776 0.0
C48 C 0.21883 0.09012 0.63836 0.0
N49 N 0.19561 0.09594 0.62243 0.0
C50 C 0.22633 0.08217 0.58843 0.0
C51 C 0.25011 0.07623 0.60455 0.0
C52 C 0.10803 0.08253 0.59741 0.0
C53 C 0.02688 0.07802 0.67422 0.0
C54 C 0.03226 0.08551 0.62384 0.0
C55 C 0.00776 0.06156 0.6336 0.0
C56 C 0.00509 0.05785 0.65897 0.0
N57 N 0.05346 0.10528 0.63894 0.0
C58 C 0.05108 0.10171 0.66382 0.0
Co59 Co 0.89688 0.34334 0.88294 0.0
Co60 Co 0.86513 0.41216 0.88096 0.0
O61 O 0.88064 0.37675 0.86417 0.0
C62 C 0.9462 0.35977 0.84235 0.0
O63 O 0.94362 0.39028 0.84239 0.0
C64 C 0.81841 0.39354 0.83851 0.0
O65 O 0.82879 0.36673 0.83442 0.0
O66 O 0.83391 0.38022 0.90053 0.0
O67 O 0.86508 0.34488 0.90987 0.0
H68 H 0.83282 0.46932 0.9549 0.0
H69 H 0.87815 0.32944 0.83104 0.0
O70 O 0.92928 0.33951 0.85686 0.0
H71 H 0.80732 0.24423 0.87888 0.0
H72 H 0.93711 0.23948 0.89359 0.0
H73 H 0.91305 0.33569 0.93529 0.0
H74 H 0.84779 0.28595 0.89963 0.0
H75 H 0.91588 0.28076 0.87027 0.0
O76 O 0.8305 0.41269 0.85569 0.0
H77 H 0.85265 0.42602 0.93299 0.0
H78 H 0.8442 0.47256 0.86484 0.0
H79 H 0.93403 0.29485 0.95933 0.0
H80 H 0.83834 0.28785 0.8095 0.0
H81 H 0.94622 0.24632 0.93847 0.0
H82 H 0.80247 0.24491 0.83347 0.0
O83 O 0.92929 0.37729 0.89978 0.0
H84 H 0.9211 0.45776 0.80347 0.0
H85 H 0.91364 0.47216 0.89289 0.0
H86 H 0.95286 0.51141 0.86898 0.0
H87 H 0.95668 0.50444 0.8239 0.0
H88 H 0.88258 0.41883 0.82813 0.0
H89 H 0.82403 0.51621 0.88602 0.0
H90 H 0.81835 0.51484 0.93138 0.0
O91 O 0.89881 0.41396 0.9071 0.0
C92 C 0.83991 0.3567 0.91319 0.0
C93 C 0.83528 0.47024 0.93513 0.0
C94 C 0.83031 0.49654 0.89647 0.0
N95 N 0.8498 0.44684 0.89768 0.0
C96 C 0.84656 0.44582 0.92262 0.0
C97 C 0.84168 0.4717 0.88458 0.0
C98 C 0.82714 0.49576 0.92192 0.0
C99 C 0.86281 0.3107 0.84159 0.0
N100 N 0.86525 0.31024 0.86657 0.0
C101 C 0.84023 0.28727 0.82929 0.0
C102 C 0.82008 0.26322 0.84276 0.0
C103 C 0.82275 0.26285 0.86824 0.0
C104 C 0.8456 0.28668 0.8799 0.0
C105 C 0.93186 0.2605 0.90289 0.0
C106 C 0.91817 0.31458 0.92608 0.0
C107 C 0.9199 0.28401 0.88977 0.0
N108 N 0.91308 0.31057 0.90141 0.0
C109 C 0.9301 0.29156 0.93979 0.0
C110 C 0.93696 0.26435 0.92808 0.0
C111 C 0.92398 0.40227 0.91095 0.0
C112 C 0.91956 0.46116 0.82308 0.0
C113 C 0.91524 0.46882 0.87331 0.0
C114 C 0.93744 0.49121 0.85985 0.0
C115 C 0.93956 0.4873 0.83456 0.0
N116 N 0.89557 0.44331 0.8619 0.0
C117 C 0.89762 0.43927 0.83713 0.0
Co118 Co 0.6657 0.11238 0.13202 0.0
Co119 Co 0.59595 0.14356 0.13139 0.0
O120 O 0.63074 0.12821 0.14926 0.0
C121 C 0.64777 0.06602 0.17471 0.0
O122 O 0.62111 0.07656 0.17886 0.0
C123 C 0.61462 0.19255 0.17218 0.0
O124 O 0.64298 0.18477 0.17473 0.0
O125 O 0.62837 0.1746 0.11215 0.0
O126 O 0.66704 0.14607 0.10594 0.0
H127 H 0.54137 0.17478 0.05575 0.0
H128 H 0.67408 0.12948 0.18492 0.0
O129 O 0.66664 0.07775 0.1573 0.0
H130 H 0.76537 0.1999 0.14294 0.0
H131 H 0.76919 0.07071 0.12571 0.0
H132 H 0.67846 0.09981 0.07983 0.0
H133 H 0.72534 0.16092 0.11946 0.0
H134 H 0.72616 0.09112 0.14742 0.0
O135 O 0.59455 0.17845 0.15625 0.0
H136 H 0.58389 0.15532 0.07892 0.0
H137 H 0.53511 0.1647 0.14584 0.0
H138 H 0.72113 0.07974 0.05738 0.0
H139 H 0.71392 0.16761 0.20919 0.0
H140 H 0.76691 0.06502 0.08035 0.0
H141 H 0.75992 0.20332 0.18818 0.0
O142 O 0.6335 0.08102 0.11278 0.0
H143 H 0.54675 0.09058 0.20888 0.0
H144 H 0.53682 0.09413 0.11887 0.0
H145 H 0.49674 0.05554 0.14257 0.0
H146 H 0.50146 0.05368 0.18795 0.0
H147 H 0.58665 0.12835 0.18439 0.0
H148 H 0.49222 0.1845 0.1234 0.0
H149 H 0.49512 0.18953 0.07802 0.0
O150 O 0.59504 0.10951 0.1057 0.0
C151 C 0.65392 0.17017 0.1014 0.0
C152 C 0.53979 0.1726 0.07552 0.0
C153 C 0.51222 0.17809 0.11349 0.0
N154 N 0.5619 0.15864 0.11369 0.0
C155 C 0.56375 0.16152 0.08874 0.0
C156 C 0.53663 0.16692 0.1261 0.0
C157 C 0.51386 0.1809 0.08802 0.0
C158 C 0.69422 0.14455 0.17565 0.0
N159 N 0.69734 0.14281 0.15077 0.0
C160 C 0.71662 0.16628 0.18949 0.0
C161 C 0.74238 0.18636 0.1777 0.0
C162 C 0.74542 0.18449 0.15231 0.0
C163 C 0.72255 0.16247 0.13908 0.0
C164 C 0.7494 0.0771 0.11549 0.0
C165 C 0.69839 0.09363 0.08995 0.0
C166 C 0.72491 0.0886 0.12769 0.0
N167 N 0.6999 0.09686 0.11489 0.0
C168 C 0.72244 0.08221 0.07714 0.0
C169 C 0.74811 0.07392 0.09004 0.0
C170 C 0.60816 0.08531 0.10163 0.0
C171 C 0.5444 0.09118 0.18912 0.0
C172 C 0.53932 0.09321 0.13855 0.0
C173 C 0.5164 0.07143 0.1519 0.0
C174 C 0.51903 0.07044 0.17736 0.0
N175 N 0.56418 0.11345 0.15019 0.0
C176 C 0.56685 0.11265 0.17515 0.0
Co177 Co 0.89521 0.84097 0.3807 0.0
Co178 Co 0.86793 0.91208 0.38339 0.0
O179 O 0.88128 0.87735 0.36419 0.0
C180 C 0.94644 0.85903 0.34192 0.0
O181 O 0.94756 0.89002 0.3456 0.0
C182 C 0.81979 0.8988 0.34173 0.0
O183 O 0.82558 0.86966 0.33865 0.0
O184 O 0.83477 0.87963 0.40084 0.0
O185 O 0.8639 0.84181 0.40817 0.0
H186 H 0.83747 0.96347 0.46073 0.0
H187 H 0.87582 0.83294 0.32847 0.0
O188 O 0.9268 0.83778 0.35392 0.0
H189 H 0.80129 0.74642 0.37243 0.0
H190 H 0.92883 0.73298 0.385 0.0
H191 H 0.91075 0.82749 0.43223 0.0
H192 H 0.84365 0.78419 0.39483 0.0
H193 H 0.9103 0.77798 0.36431 0.0
O194 O 0.83466 0.91758 0.35817 0.0
H195 H 0.8548 0.92095 0.43613 0.0
H196 H 0.85175 0.97607 0.37122 0.0
H197 H 0.92902 0.78289 0.45367 0.0
H198 H 0.83418 0.79526 0.30524 0.0
H199 H 0.9382 0.7352 0.43002 0.0
H200 H 0.79642 0.75172 0.32726 0.0
O201 O 0.92922 0.87185 0.39869 0.0
H202 H 0.92769 0.96281 0.30893 0.0
H203 H 0.91964 0.96776 0.39905 0.0
H204 H 0.96161 0.0071 0.37754 0.0
H205 H 0.96577 0.00485 0.33214 0.0
H206 H 0.88632 0.9237 0.3312 0.0
H207 H 0.83413 0.01906 0.39511 0.0
H208 H 0.827 0.01297 0.44021 0.0
O209 O 0.90048 0.90876 0.40966 0.0
C210 C 0.83939 0.85448 0.41215 0.0
C211 C 0.8406 0.96646 0.4411 0.0
C212 C 0.83868 0.99764 0.40427 0.0
N213 N 0.85456 0.94612 0.4023 0.0
C214 C 0.8505 0.9425 0.42708 0.0
C215 C 0.84861 0.97318 0.39084 0.0
C216 C 0.8347 0.99421 0.42957 0.0
C217 C 0.85966 0.81389 0.33815 0.0
N218 N 0.86206 0.81095 0.36301 0.0
C219 C 0.83605 0.7927 0.32491 0.0
C220 C 0.81484 0.76831 0.33729 0.0
C221 C 0.81752 0.76536 0.36263 0.0
C222 C 0.84142 0.78699 0.37526 0.0
C223 C 0.9249 0.75362 0.39551 0.0
C224 C 0.91458 0.80678 0.42181 0.0
C225 C 0.91449 0.77923 0.38388 0.0
N226 N 0.90934 0.80532 0.39705 0.0
C227 C 0.92497 0.78162 0.43405 0.0
C228 C 0.93014 0.75488 0.42077 0.0
C229 C 0.92504 0.89563 0.41185 0.0
C230 C 0.92604 0.96412 0.3287 0.0
C231 C 0.92135 0.96653 0.3793 0.0
C232 C 0.94513 0.98893 0.36722 0.0
C233 C 0.94743 0.98767 0.34174 0.0
N234 N 0.90038 0.94357 0.36637 0.0
C235 C 0.90255 0.94213 0.3414 0.0
Co236 Co 0.17189 0.61184 0.12917 0.0
Co237 Co 0.10333 0.6445 0.13304 0.0
O238 O 0.13912 0.6282 0.14835 0.0
C239 C 0.15544 0.56453 0.17133 0.0
O240 O 0.12874 0.57476 0.17596 0.0
C241 C 0.10785 0.70867 0.15667 0.0
O242 O 0.11051 0.72119 0.13452 0.0
O243 O 0.13438 0.67495 0.11221 0.0
O244 O 0.1721 0.64608 0.10376 0.0
H245 H 0.04217 0.67947 0.06223 0.0
H246 H 0.18339 0.62908 0.1817 0.0
O247 O 0.17389 0.57669 0.1538 0.0
H248 H 0.27401 0.69694 0.13717 0.0
H249 H 0.27306 0.56755 0.1171 0.0
H250 H 0.18022 0.59983 0.07622 0.0
H251 H 0.23201 0.65864 0.11483 0.0
H252 H 0.23249 0.58868 0.14123 0.0
O253 O 0.10677 0.67838 0.15954 0.0
H254 H 0.08655 0.65885 0.082 0.0
H255 H 0.04402 0.66503 0.15198 0.0
H256 H 0.22039 0.57907 0.05137 0.0
H257 H 0.22508 0.66676 0.20481 0.0
H258 H 0.26723 0.56276 0.07182 0.0
H259 H 0.2708 0.70109 0.18252 0.0
O260 O 0.13751 0.58164 0.11089 0.0
H261 H 0.06041 0.59241 0.21254 0.0
H262 H 0.04298 0.59527 0.12319 0.0
H263 H 0.00473 0.55717 0.14865 0.0
H264 H 0.01321 0.55568 0.19371 0.0
H265 H 0.09851 0.62963 0.18631 0.0
H266 H 0.99922 0.68577 0.13297 0.0
H267 H 0.99809 0.6931 0.08778 0.0
O268 O 0.09894 0.61091 0.1066 0.0
C269 C 0.15895 0.67038 0.10022 0.0
C270 C 0.04238 0.67636 0.08194 0.0
C271 C 0.01827 0.67989 0.12164 0.0
N272 N 0.06788 0.66068 0.1181 0.0
C273 C 0.06744 0.66468 0.09323 0.0
C274 C 0.0437 0.66813 0.13229 0.0
C275 C 0.01766 0.684 0.09628 0.0
C276 C 0.20334 0.64366 0.17187 0.0
N277 N 0.20536 0.64139 0.14694 0.0
C278 C 0.22682 0.66508 0.18506 0.0
C279 C 0.25244 0.68437 0.17254 0.0
C280 C 0.25425 0.68207 0.1471 0.0
C281 C 0.23033 0.66038 0.13453 0.0
C282 C 0.25279 0.57463 0.10797 0.0
C283 C 0.20063 0.59294 0.08524 0.0
C284 C 0.22969 0.58654 0.12154 0.0
N285 N 0.2041 0.59569 0.11013 0.0
C286 C 0.22326 0.58113 0.07108 0.0
C287 C 0.24951 0.57196 0.08257 0.0
C288 C 0.1114 0.5866 0.10122 0.0
C289 C 0.05643 0.59285 0.19293 0.0
C290 C 0.04717 0.59447 0.14271 0.0
C291 C 0.02526 0.57299 0.15707 0.0
C292 C 0.02999 0.57221 0.18235 0.0
N293 N 0.0731 0.61461 0.1532 0.0
C294 C 0.07783 0.61402 0.17799 0.0
Co295 Co 0.39706 0.34122 0.3811 0.0
Co296 Co 0.36454 0.40942 0.38432 0.0
O297 O 0.38125 0.3768 0.36489 0.0
C298 C 0.44192 0.35939 0.33735 0.0
O299 O 0.42865 0.3839 0.33142 0.0
C300 C 0.31738 0.39366 0.34252 0.0
O301 O 0.32218 0.36389 0.34176 0.0
O302 O 0.33216 0.37466 0.40015 0.0
O303 O 0.36334 0.33857 0.40737 0.0
H304 H 0.32582 0.45479 0.46139 0.0
H305 H 0.37864 0.33481 0.32819 0.0
O306 O 0.43185 0.34163 0.3558 0.0
H307 H 0.31079 0.24083 0.36903 0.0
H308 H 0.43982 0.23801 0.3851 0.0
H309 H 0.40974 0.32668 0.43297 0.0
H310 H 0.34967 0.2805 0.39284 0.0
H311 H 0.41901 0.28163 0.36436 0.0
O312 O 0.33235 0.41385 0.35803 0.0
H313 H 0.34758 0.41509 0.43671 0.0
H314 H 0.34484 0.47194 0.37268 0.0
H315 H 0.43018 0.28339 0.45445 0.0
H316 H 0.34059 0.2954 0.30361 0.0
H317 H 0.44539 0.23864 0.43048 0.0
H318 H 0.30616 0.24801 0.32402 0.0
O319 O 0.42807 0.37321 0.40063 0.0
H320 H 0.42469 0.46769 0.31262 0.0
H321 H 0.41285 0.46638 0.40263 0.0
H322 H 0.4537 0.50897 0.38315 0.0
H323 H 0.45977 0.50987 0.33781 0.0
H324 H 0.3844 0.4253 0.3329 0.0
H325 H 0.32282 0.51212 0.39664 0.0
H326 H 0.31328 0.50374 0.44135 0.0
O327 O 0.39601 0.40707 0.41159 0.0
C328 C 0.33774 0.34962 0.41107 0.0
C329 C 0.32997 0.45877 0.44194 0.0
C330 C 0.32825 0.49093 0.40559 0.0
N331 N 0.34773 0.44129 0.40331 0.0
C332 C 0.34237 0.43641 0.42788 0.0
C333 C 0.34067 0.46805 0.39211 0.0
C334 C 0.32291 0.48621 0.43068 0.0
C335 C 0.36426 0.31405 0.3372 0.0
N336 N 0.36677 0.30992 0.36193 0.0
C337 C 0.34251 0.29189 0.32319 0.0
C338 C 0.32314 0.26536 0.33465 0.0
C339 C 0.3257 0.26134 0.3599 0.0
C340 C 0.34771 0.28399 0.37331 0.0
C341 C 0.43322 0.25735 0.39575 0.0
C342 C 0.41614 0.3072 0.42241 0.0
C343 C 0.42149 0.28217 0.38411 0.0
N344 N 0.41295 0.30659 0.39746 0.0
C345 C 0.42777 0.28279 0.43468 0.0
C346 C 0.43633 0.25771 0.42121 0.0
C347 C 0.42168 0.39579 0.41407 0.0
C348 C 0.42227 0.46758 0.33239 0.0
C349 C 0.41551 0.46641 0.38291 0.0
C350 C 0.4386 0.4907 0.37197 0.0
C351 C 0.44196 0.49121 0.34653 0.0
N352 N 0.39629 0.44329 0.36891 0.0
C353 C 0.39942 0.44368 0.34397 0.0
Co354 Co 0.39677 0.846 0.8802 0.0
Co355 Co 0.36691 0.91596 0.88163 0.0
O356 O 0.38219 0.88175 0.86324 0.0
C357 C 0.44296 0.86285 0.83731 0.0
O358 O 0.4327 0.88962 0.83277 0.0
C359 C 0.31514 0.89803 0.84353 0.0
O360 O 0.31469 0.86719 0.84738 0.0
O361 O 0.33404 0.88297 0.89897 0.0
O362 O 0.36336 0.84529 0.90631 0.0
H363 H 0.33159 0.96724 0.95736 0.0
H364 H 0.37841 0.83969 0.82747 0.0
O365 O 0.43111 0.84438 0.85493 0.0
H366 H 0.30692 0.74843 0.86879 0.0
H367 H 0.43496 0.74042 0.88582 0.0
H368 H 0.40903 0.83222 0.93231 0.0
H369 H 0.34738 0.78683 0.89241 0.0
H370 H 0.41603 0.78466 0.86441 0.0
O371 O 0.33469 0.91964 0.85534 0.0
H372 H 0.3514 0.92521 0.93387 0.0
H373 H 0.34918 0.97881 0.8681 0.0
H374 H 0.42764 0.78835 0.95446 0.0
H375 H 0.3386 0.80164 0.80311 0.0
H376 H 0.44075 0.74201 0.93118 0.0
H377 H 0.30241 0.75562 0.82378 0.0
O378 O 0.42862 0.87752 0.89968 0.0
H379 H 0.42579 0.96907 0.80757 0.0
H380 H 0.41729 0.97264 0.8977 0.0
H381 H 0.45842 0.01318 0.87652 0.0
H382 H 0.46282 0.01164 0.83111 0.0
H383 H 0.3853 0.92866 0.82955 0.0
H384 H 0.32911 0.02129 0.89086 0.0
H385 H 0.32029 0.01571 0.93584 0.0
O386 O 0.39871 0.9142 0.90858 0.0
C387 C 0.33874 0.85779 0.91021 0.0
C388 C 0.33539 0.96998 0.93777 0.0
C389 C 0.33397 1.0003 0.90045 0.0
N390 N 0.35159 0.9496 0.89965 0.0
C391 C 0.34666 0.94629 0.92438 0.0
C392 C 0.34526 0.97611 0.88765 0.0
C393 C 0.32904 0.99716 0.92568 0.0
C394 C 0.36313 0.81951 0.83657 0.0
N395 N 0.36558 0.81533 0.86131 0.0
C396 C 0.34046 0.79813 0.82269 0.0
C397 C 0.32012 0.77236 0.8343 0.0
C398 C 0.32262 0.76832 0.85955 0.0
C399 C 0.34556 0.7902 0.87284 0.0
C400 C 0.42928 0.76045 0.89617 0.0
C401 C 0.41454 0.81207 0.92205 0.0
C402 C 0.41861 0.78562 0.88414 0.0
N403 N 0.41122 0.81093 0.89711 0.0
C404 C 0.42513 0.78733 0.9347 0.0
C405 C 0.43251 0.76136 0.92162 0.0
C406 C 0.42332 0.90152 0.91213 0.0
C407 C 0.42412 0.97001 0.82736 0.0
C408 C 0.41926 0.97154 0.87797 0.0
C409 C 0.4425 0.9947 0.86606 0.0
C410 C 0.44491 0.99385 0.84058 0.0
N411 N 0.399 0.94816 0.86488 0.0
C412 C 0.40116 0.94725 0.8399 0.0
Co413 Co 0.66422 0.6103 0.63158 0.0
Co414 Co 0.59541 0.64204 0.62931 0.0
O415 O 0.62889 0.62597 0.64825 0.0
C416 C 0.6474 0.56539 0.67551 0.0
O417 O 0.62256 0.57807 0.6815 0.0
C418 C 0.60938 0.68713 0.67311 0.0
O419 O 0.63597 0.67695 0.6783 0.0
O420 O 0.62925 0.67425 0.61245 0.0
O421 O 0.66569 0.64358 0.60506 0.0
H422 H 0.54708 0.67825 0.55251 0.0
H423 H 0.67253 0.62866 0.68439 0.0
O424 O 0.66491 0.57587 0.65705 0.0
H425 H 0.76359 0.69833 0.64167 0.0
H426 H 0.76799 0.56898 0.62643 0.0
H427 H 0.67746 0.59693 0.5796 0.0
H428 H 0.72365 0.65876 0.61861 0.0
H429 H 0.72461 0.58947 0.64763 0.0
O430 O 0.59178 0.67544 0.65497 0.0
H431 H 0.58776 0.65745 0.5768 0.0
H432 H 0.5332 0.66171 0.64174 0.0
H433 H 0.72049 0.5768 0.55766 0.0
H434 H 0.71223 0.66744 0.70821 0.0
H435 H 0.76618 0.56266 0.58111 0.0
H436 H 0.75814 0.70277 0.68684 0.0
O437 O 0.63208 0.57866 0.61268 0.0
H438 H 0.54018 0.58281 0.70262 0.0
H439 H 0.53804 0.59323 0.61257 0.0
H440 H 0.49634 0.55261 0.63312 0.0
H441 H 0.49715 0.54726 0.67849 0.0
H442 H 0.58166 0.6228 0.68129 0.0
H443 H 0.49206 0.6828 0.61816 0.0
H444 H 0.4988 0.69109 0.57319 0.0
O445 O 0.59695 0.60976 0.60247 0.0
C446 C 0.65404 0.66881 0.60121 0.0
C447 C 0.54381 0.67464 0.57208 0.0
C448 C 0.51296 0.67723 0.60892 0.0
N449 N 0.56276 0.65809 0.61063 0.0
C450 C 0.56673 0.66277 0.58593 0.0
C451 C 0.53637 0.66533 0.62219 0.0
C452 C 0.51675 0.68187 0.5837 0.0
C453 C 0.6926 0.64353 0.67495 0.0
N454 N 0.69573 0.64118 0.65012 0.0
C455 C 0.71494 0.66565 0.68854 0.0
C456 C 0.74066 0.68551 0.67654 0.0
C457 C 0.7437 0.68306 0.6512 0.0
C458 C 0.72088 0.66067 0.63822 0.0
C459 C 0.74824 0.57512 0.616 0.0
C460 C 0.69734 0.591 0.58993 0.0
C461 C 0.72356 0.58666 0.62791 0.0
N462 N 0.69861 0.59461 0.61484 0.0
C463 C 0.7216 0.57954 0.57741 0.0
C464 C 0.74722 0.57158 0.59058 0.0
C465 C 0.60879 0.58444 0.59973 0.0
C466 C 0.53951 0.58496 0.68285 0.0
C467 C 0.53874 0.59094 0.6323 0.0
C468 C 0.51496 0.56795 0.64385 0.0
C469 C 0.51541 0.56499 0.6693 0.0
N470 N 0.5623 0.61049 0.64572 0.0
C471 C 0.56288 0.60769 0.67067 0.0
C472 C 0.28654 0.3444 0.43612 0.0
C473 C 0.31444 0.33284 0.4296 0.0
C474 C 0.26517 0.32825 0.45392 0.0
C475 C 0.24195 0.24831 0.48427 0.0
H476 H 0.21001 0.29482 0.53714 0.0
C477 C 0.19652 0.18498 0.57354 0.0
C478 C 0.16706 0.18987 0.58333 0.0
C479 C 0.21152 0.20415 0.55436 0.0
C480 C 0.2184 0.28156 0.5223 0.0
H481 H 0.34179 0.29542 0.43717 0.0
H482 H 0.30497 0.26776 0.46783 0.0
H483 H 0.24122 0.32507 0.50362 0.0
H484 H 0.13091 0.21978 0.58099 0.0
H485 H 0.15756 0.25365 0.54735 0.0
H486 H 0.22001 0.20492 0.50306 0.0
C487 C 0.29918 0.2889 0.45898 0.0
C488 C 0.23621 0.29884 0.5031 0.0
C489 C 0.32046 0.30496 0.44139 0.0
C490 C 0.15357 0.21532 0.57391 0.0
C491 C 0.16881 0.23474 0.55468 0.0
C492 C 0.22436 0.23115 0.50338 0.0
C493 C 0.27119 0.30016 0.46541 0.0
C494 C 0.2489 0.28236 0.48422 0.0
C495 C 0.19761 0.22886 0.5444 0.0
C496 C 0.21311 0.24754 0.52294 0.0
H497 H 0.28124 0.3659 0.42753 0.0
H498 H 0.24377 0.3375 0.45847 0.0
H499 H 0.25066 0.23484 0.4697 0.0
H500 H 0.20788 0.16586 0.58035 0.0
H501 H 0.23404 0.19945 0.54717 0.0
C502 C 0.67718 0.52054 0.68183 0.0
C503 C 0.658 0.54112 0.69154 0.0
C504 C 0.69028 0.49985 0.69708 0.0
C505 C 0.68756 0.46642 0.76106 0.0
H506 H 0.77404 0.4555 0.74448 0.0
C507 C 0.77699 0.42687 0.82977 0.0
C508 C 0.79469 0.40388 0.8218 0.0
C509 C 0.75684 0.43926 0.81358 0.0
C510 C 0.74972 0.45794 0.74919 0.0
H511 H 0.63692 0.55565 0.72484 0.0
H512 H 0.66078 0.52053 0.75174 0.0
H513 H 0.74573 0.48585 0.7171 0.0
H514 H 0.80458 0.37538 0.79071 0.0
H515 H 0.76977 0.39769 0.76216 0.0
H516 H 0.69267 0.43978 0.79391 0.0
C517 C 0.66506 0.51958 0.7322 0.0
C518 C 0.73332 0.47528 0.73342 0.0
C519 C 0.65141 0.53988 0.7168 0.0
C520 C 0.79115 0.39294 0.79741 0.0
C521 C 0.7714 0.40583 0.78106 0.0
C522 C 0.70425 0.44951 0.77703 0.0
C523 C 0.68518 0.49965 0.72261 0.0
C524 C 0.70201 0.47993 0.73913 0.0
C525 C 0.75431 0.42938 0.78894 0.0
C526 C 0.73556 0.44523 0.7713 0.0
H527 H 0.68244 0.5207 0.66236 0.0
H528 H 0.70476 0.48429 0.68879 0.0
H529 H 0.66334 0.46888 0.76597 0.0
H530 H 0.77915 0.43575 0.84847 0.0
H531 H 0.74419 0.45754 0.82013 0.0
C532 C 0.56322 0.06473 0.0722 0.0
C533 C 0.59259 0.0613 0.08306 0.0
C534 C 0.54764 0.04216 0.05524 0.0
C535 C 0.55874 0.98324 0.0093 0.0
H536 H 0.46615 0.95426 0.0175 0.0
C537 C 0.47375 0.90325 0.93774 0.0
C538 C 0.44565 0.91512 0.93234 0.0
C539 C 0.49398 0.91635 0.95728 0.0
C540 C 0.492 0.96207 0.01493 0.0
H541 H 0.6291 0.03169 0.08376 0.0
H542 H 0.60174 0.99223 0.05347 0.0
H543 H 0.49779 0.98593 0.04975 0.0
H544 H 0.4172 0.95039 0.94327 0.0
H545 H 0.45208 0.97281 0.97676 0.0
H546 H 0.5525 0.96035 0.97389 0.0
C547 C 0.59084 0.01242 0.05857 0.0
C548 C 0.5101 0.98015 0.03342 0.0
C549 C 0.60638 0.03494 0.07593 0.0
C550 C 0.43845 0.94039 0.9468 0.0
C551 C 0.4584 0.95319 0.96623 0.0
C552 C 0.5405 0.96513 0.99064 0.0
C553 C 0.56106 0.01564 0.04835 0.0
C554 C 0.54345 0.99187 0.03047 0.0
C555 C 0.48623 0.94123 0.97189 0.0
C556 C 0.50673 0.95538 0.99295 0.0
H557 H 0.55198 0.08486 0.07681 0.0
H558 H 0.52505 0.04564 0.04731 0.0
H559 H 0.58443 0.99202 0.00657 0.0
H560 H 0.48004 0.88382 0.92699 0.0
H561 H 0.51533 0.90667 0.96122 0.0
C562 C 0.9827 0.8674 0.30458 0.0
C563 C 0.96791 0.84763 0.32384 0.0
C564 C 1.00095 0.85493 0.28678 0.0
C565 C 0.01051 0.77577 0.26103 0.0
H566 H 0.08954 0.8245 0.23237 0.0
C567 C 0.08973 0.71309 0.20013 0.0
C568 C 0.09936 0.72804 0.17753 0.0
C569 C 0.07683 0.72983 0.2185 0.0
C570 C 0.0674 0.81068 0.24014 0.0
H571 H 0.96236 0.79992 0.3403 0.0
H572 H 0.99436 0.7787 0.30999 0.0
H573 H 0.06057 0.85013 0.26314 0.0
H574 H 0.10471 0.77305 0.15716 0.0
H575 H 0.08231 0.80228 0.18936 0.0
H576 H 0.01725 0.73636 0.23832 0.0
C577 C 0.99112 0.80341 0.30794 0.0
C578 C 0.05074 0.82538 0.25769 0.0
C579 C 0.97281 0.81569 0.32546 0.0
C580 C 0.09748 0.76074 0.17431 0.0
C581 C 0.08471 0.77757 0.19279 0.0
C582 C 0.02719 0.76111 0.24372 0.0
C583 C 0.00486 0.82253 0.28804 0.0
C584 C 0.02224 0.80795 0.26856 0.0
C585 C 0.07338 0.76198 0.21482 0.0
C586 C 0.05598 0.77821 0.23321 0.0
H587 H 0.9794 0.89213 0.30286 0.0
H588 H 0.01115 0.87033 0.27167 0.0
H589 H 0.98819 0.76183 0.26843 0.0
H590 H 0.09092 0.68799 0.20333 0.0
H591 H 0.06885 0.71731 0.23545 0.0
C592 C 0.28867 0.94089 0.82595 0.0
C593 C 0.29281 0.90859 0.82566 0.0
C594 C 0.26843 0.95171 0.80902 0.0
C595 C 0.23423 0.93611 0.74753 0.0
H596 H 0.17941 0.99486 0.7679 0.0
C597 C 0.16037 0.99306 0.67682 0.0
C598 C 0.16069 0.02628 0.67971 0.0
C599 C 0.17144 0.9754 0.69559 0.0
C600 C 0.19474 0.97868 0.76184 0.0
H601 H 0.2786 0.86227 0.80732 0.0
H602 H 0.24328 0.88143 0.77733 0.0
H603 H 0.20834 0.96974 0.79868 0.0
H604 H 0.17187 0.0667 0.70503 0.0
H605 H 0.19158 0.03615 0.73755 0.0
H606 H 0.22165 0.94586 0.71066 0.0
C607 C 0.25582 0.89827 0.79083 0.0
C608 C 0.21125 0.96419 0.77951 0.0
C609 C 0.27592 0.88727 0.80805 0.0
C610 C 0.17107 0.04111 0.70222 0.0
C611 C 0.18233 0.02349 0.72094 0.0
C612 C 0.21788 0.95077 0.72982 0.0
C613 C 0.25188 0.93066 0.79116 0.0
C614 C 0.23164 0.94318 0.77255 0.0
C615 C 0.1833 0.99054 0.7177 0.0
C616 C 0.19833 0.9727 0.7367 0.0
H617 H 0.30116 0.95802 0.83928 0.0
H618 H 0.26632 0.97689 0.80959 0.0
H619 H 0.25001 0.92032 0.74155 0.0
H620 H 0.15236 0.98081 0.65978 0.0
H621 H 0.17119 0.94996 0.6926 0.0
C622 C 0.94004 0.44486 0.94305 0.0
C623 C 0.94669 0.41789 0.93033 0.0
C624 C 0.95983 0.45895 0.9622 0.0
C625 C 0.0408 0.46994 0.9889 0.0
H626 H 0.99681 0.4939 0.04637 0.0
C627 C 0.10757 0.53725 0.07415 0.0
C628 C 0.09446 0.56343 0.0826 0.0
C629 C 0.0912 0.51584 0.05643 0.0
C630 C 0.0095 0.48746 0.03044 0.0
H631 H 0.98013 0.38515 0.92763 0.0
H632 H 0.01513 0.41026 0.96131 0.0
H633 H 0.96556 0.46301 0.01363 0.0
H634 H 0.05396 0.58771 0.07856 0.0
H635 H 0.02577 0.55064 0.04812 0.0
H636 H 0.08477 0.49526 1.00567 0.0
C637 C 0.99434 0.42024 0.95625 0.0
C638 C 0.99159 0.46974 0.01169 0.0
C639 C 0.97428 0.40587 0.93701 0.0
C640 C 0.06476 0.56771 0.07282 0.0
C641 C 0.04842 0.54631 0.05536 0.0
C642 C 0.05883 0.4878 0.00777 0.0
C643 C 0.98696 0.44664 0.96928 0.0
C644 C 0.00688 0.46159 0.99038 0.0
C645 C 0.06129 0.52002 0.04702 0.0
C646 C 0.04321 0.49754 0.02842 0.0
H647 H 0.91921 0.45505 0.93846 0.0
H648 H 0.95384 0.47967 0.97152 0.0
H649 H 0.05323 0.46403 0.97268 0.0
H650 H 0.13048 0.53332 0.08115 0.0
H651 H 0.10171 0.49578 0.05036 0.0
C652 C 0.46695 0.35584 0.29588 0.0
C653 C 0.46623 0.34926 0.32115 0.0
C654 C 0.48728 0.34258 0.28029 0.0
C655 C 0.5333 0.27551 0.2786 0.0
H656 H 0.56626 0.31657 0.21759 0.0
C657 C 0.6161 0.22032 0.21312 0.0
C658 C 0.60405 0.21591 0.18906 0.0
C659 C 0.60307 0.23963 0.22973 0.0
C660 C 0.55726 0.30489 0.23462 0.0
H661 H 0.48754 0.32521 0.35012 0.0
H662 H 0.52406 0.30363 0.32336 0.0
H663 H 0.53715 0.34522 0.24594 0.0
H664 H 0.56998 0.22939 0.1632 0.0
H665 H 0.54801 0.26375 0.19194 0.0
H666 H 0.55394 0.23539 0.26727 0.0
C667 C 0.50807 0.31779 0.31521 0.0
C668 C 0.54032 0.32118 0.25083 0.0
C669 C 0.48733 0.33047 0.33066 0.0
C670 C 0.57974 0.23228 0.18165 0.0
C671 C 0.56724 0.25207 0.19805 0.0
C672 C 0.55072 0.25953 0.26261 0.0
C673 C 0.5078 0.32289 0.28968 0.0
C674 C 0.52767 0.30655 0.27295 0.0
C675 C 0.5783 0.25546 0.2224 0.0
C676 C 0.5625 0.27385 0.2403 0.0
H677 H 0.45076 0.37 0.28799 0.0
H678 H 0.48591 0.34682 0.26077 0.0
H679 H 0.52344 0.26294 0.29507 0.0
H680 H 0.63467 0.20785 0.21939 0.0
H681 H 0.61208 0.24192 0.2484 0.0
C682 C 0.7888 0.85174 0.43764 0.0
C683 C 0.81593 0.83893 0.43102 0.0
C684 C 0.76675 0.83599 0.4552 0.0
C685 C 0.73805 0.7553 0.48187 0.0
H686 H 0.71401 0.79861 0.53966 0.0
C687 C 0.69609 0.68497 0.56883 0.0
C688 C 0.66933 0.69152 0.58178 0.0
C689 C 0.70987 0.70495 0.54969 0.0
C690 C 0.72006 0.7863 0.52341 0.0
H691 H 0.84145 0.79998 0.43842 0.0
H692 H 0.80317 0.77279 0.46832 0.0
H693 H 0.74531 0.83055 0.50686 0.0
H694 H 0.63657 0.72492 0.5849 0.0
H695 H 0.66106 0.76016 0.55123 0.0
H696 H 0.71374 0.7111 0.49839 0.0
C697 C 0.79865 0.79469 0.45981 0.0
C698 C 0.73792 0.80456 0.50467 0.0
C699 C 0.82069 0.81045 0.44263 0.0
C700 C 0.65715 0.71914 0.57533 0.0
C701 C 0.67117 0.73935 0.5561 0.0
C702 C 0.72027 0.73717 0.50045 0.0
C703 C 0.77129 0.80702 0.46614 0.0
C704 C 0.74798 0.78904 0.48412 0.0
C705 C 0.69739 0.73213 0.54286 0.0
C706 C 0.71201 0.7523 0.5218 0.0
H707 H 0.78452 0.87377 0.42921 0.0
H708 H 0.74587 0.84606 0.45985 0.0
H709 H 0.74492 0.74276 0.466 0.0
H710 H 0.70635 0.66411 0.57324 0.0
H711 H 0.73049 0.69909 0.5402 0.0
C712 C 0.15778 0.539 0.21274 0.0
C713 C 0.16637 0.54095 0.18783 0.0
C714 C 0.17112 0.51922 0.22877 0.0
C715 C 0.24052 0.47622 0.2331 0.0
H716 H 0.1963 0.44105 0.29242 0.0
C717 C 0.2915 0.39213 0.30086 0.0
C718 C 0.29559 0.40497 0.32472 0.0
C719 C 0.27327 0.40533 0.28351 0.0
C720 C 0.20883 0.45065 0.27585 0.0
H721 H 0.19431 0.52249 0.15989 0.0
H722 H 0.21598 0.48665 0.18731 0.0
H723 H 0.16847 0.46944 0.26295 0.0
H724 H 0.28278 0.4407 0.34941 0.0
H725 H 0.25003 0.46281 0.31939 0.0
H726 H 0.28057 0.45656 0.24597 0.0
C727 C 0.20018 0.50137 0.19494 0.0
C728 C 0.19304 0.46723 0.25901 0.0
C729 C 0.18746 0.52171 0.17907 0.0
C730 C 0.28011 0.43035 0.33114 0.0
C731 C 0.26127 0.44293 0.31402 0.0
C732 C 0.25598 0.45903 0.24968 0.0
C733 C 0.19286 0.50034 0.22018 0.0
C734 C 0.20881 0.48075 0.23751 0.0
C735 C 0.25811 0.43095 0.28993 0.0
C736 C 0.24047 0.44648 0.27137 0.0
H737 H 0.14182 0.55381 0.22006 0.0
H738 H 0.16515 0.5197 0.24805 0.0
H739 H 0.25398 0.48676 0.21719 0.0
H740 H 0.30333 0.37273 0.29538 0.0
H741 H 0.27117 0.39568 0.26502 0.0
C742 C 0.78901 0.35348 0.93844 0.0
C743 C 0.81768 0.34254 0.93327 0.0
C744 C 0.76875 0.33972 0.95774 0.0
C745 C 0.77094 0.29318 0.01512 0.0
H746 H 0.67866 0.26289 1.00602 0.0
C747 C 0.69925 0.19043 0.07226 0.0
C748 C 0.66971 0.19393 0.08276 0.0
C749 C 0.71502 0.21284 0.05526 0.0
C750 C 0.70431 0.27172 0.00894 0.0
H751 H 0.84715 0.30824 0.9444 0.0
H752 H 0.81217 0.28459 0.97742 0.0
H753 H 0.71076 0.2951 0.97374 0.0
H754 H 0.63313 0.22346 0.08278 0.0
H755 H 0.66081 0.26262 0.0525 0.0
H756 H 0.76493 0.26889 0.04975 0.0
C757 C 0.80543 0.30403 0.96692 0.0
C758 C 0.72266 0.29016 0.99051 0.0
C759 C 0.82544 0.31754 0.94775 0.0
C760 C 0.65596 0.22015 0.07524 0.0
C761 C 0.6717 0.2425 0.05786 0.0
C762 C 0.75274 0.27475 0.03337 0.0
C763 C 0.77699 0.31505 0.97233 0.0
C764 C 0.75637 0.30014 0.9931 0.0
C765 C 0.70163 0.23924 0.048 0.0
C766 C 0.71944 0.26295 0.03017 0.0
H767 H 0.78228 0.37268 0.92766 0.0
H768 H 0.74696 0.3487 0.96149 0.0
H769 H 0.79673 0.30117 0.01794 0.0
H770 H 0.71047 0.17039 0.07719 0.0
H771 H 0.73774 0.20933 0.04762 0.0
C772 C 0.7808 0.93499 0.33397 0.0
C773 C 0.79697 0.91116 0.32542 0.0
C774 C 0.76074 0.94845 0.31839 0.0
C775 C 0.72076 0.9389 0.25636 0.0
H776 H 0.71795 0.02931 0.26678 0.0
C777 C 0.68055 0.02426 0.18402 0.0
C778 C 0.6586 0.04316 0.19192 0.0
C779 C 0.69361 0.00511 0.20065 0.0
C780 C 0.71822 0.00395 0.26382 0.0
H781 H 0.80472 0.88255 0.29385 0.0
H782 H 0.77111 0.90714 0.26617 0.0
H783 H 0.74897 1.00241 0.29466 0.0
H784 H 0.63274 0.0564 0.22339 0.0
H785 H 0.65642 0.02354 0.25267 0.0
H786 H 0.69139 0.94152 0.22451 0.0
C787 C 0.77284 0.91476 0.28516 0.0
C788 C 0.73589 0.98833 0.2799 0.0
C789 C 0.79232 0.9007 0.30099 0.0
C790 C 0.64941 0.04193 0.21673 0.0
C791 C 0.66307 0.0233 0.23349 0.0
C792 C 0.70365 0.9548 0.23997 0.0
C793 C 0.75696 0.93912 0.29356 0.0
C794 C 0.73746 0.9555 0.27649 0.0
C795 C 0.68555 0.00499 0.22563 0.0
C796 C 0.7022 0.98746 0.24357 0.0
H797 H 0.78364 0.94329 0.35282 0.0
H798 H 0.74831 0.9663 0.32593 0.0
H799 H 0.72074 0.91354 0.25323 0.0
H800 H 0.6881 0.02472 0.165 0.0
H801 H 0.71103 0.9914 0.19414 0.0
C802 C 0.93848 0.92275 0.45226 0.0
C803 C 0.94872 0.90817 0.43132 0.0
C804 C 0.96057 0.93604 0.47037 0.0
C805 C 0.04304 0.97667 0.479 0.0
H806 H 0.02478 0.96119 0.54824 0.0
C807 C 0.08539 0.06972 0.55544 0.0
C808 C 0.09767 0.05917 0.57729 0.0
C809 C 0.07305 0.04765 0.53703 0.0
C810 C 0.0305 0.96541 0.52899 0.0
H811 H 0.99014 0.89582 0.41303 0.0
H812 H 0.02925 0.92027 0.44458 0.0
H813 H 0.9912 0.92774 0.51747 0.0
H814 H 0.1072 0.01727 0.59678 0.0
H815 H 0.08457 0.97832 0.56468 0.0
H816 H 0.08115 0.0156 0.49051 0.0
C817 C 1.00391 0.92084 0.44697 0.0
C818 C 0.01121 0.94643 0.51142 0.0
C819 C 0.98158 0.90682 0.42902 0.0
C820 C 0.09804 0.0261 0.58009 0.0
C821 C 0.08501 0.00384 0.56181 0.0
C822 C 0.06199 0.99605 0.49657 0.0
C823 C 0.99354 0.93561 0.46779 0.0
C824 C 0.01688 0.95232 0.48626 0.0
C825 C 0.07215 0.01442 0.5402 0.0
C826 C 0.05546 0.99102 0.52173 0.0
H827 H 0.91329 0.92402 0.45464 0.0
H828 H 0.95199 0.94757 0.48609 0.0
H829 H 0.04777 0.98185 0.45972 0.0
H830 H 0.0849 0.09507 0.5527 0.0
H831 H 0.063 0.05644 0.52068 0.0
C832 C 0.97672 0.31769 0.82967 0.0
C833 C 0.96779 0.34746 0.82486 0.0
C834 C 0.99415 0.30368 0.8125 0.0
C835 C 0.0439 0.31786 0.75607 0.0
H836 H 0.01182 0.22561 0.74741 0.0
C837 C 0.10719 0.23493 0.6949 0.0
C838 C 0.08661 0.21128 0.68088 0.0
C839 C 0.09436 0.25374 0.71208 0.0
C840 C 0.02101 0.25139 0.74944 0.0
H841 H 0.97156 0.38663 0.7986 0.0
H842 H 1.00186 0.36175 0.76816 0.0
H843 H 0.98699 0.25492 0.77772 0.0
H844 H 0.03631 0.18948 0.67366 0.0
H845 H 0.01424 0.22209 0.70322 0.0
H846 H 0.07766 0.31408 0.72725 0.0
C847 C 0.99546 0.34943 0.78544 0.0
C848 C 0.00699 0.26819 0.76707 0.0
C849 C 0.97805 0.36366 0.80282 0.0
C850 C 0.05299 0.20725 0.6842 0.0
C851 C 0.04026 0.2259 0.70128 0.0
C852 C 0.05809 0.30093 0.73836 0.0
C853 C 1.00298 0.31885 0.78987 0.0
C854 C 0.01825 0.3016 0.77071 0.0
C855 C 0.06071 0.24914 0.71565 0.0
C856 C 0.04665 0.26748 0.73477 0.0
H857 H 0.96979 0.3048 0.84665 0.0
H858 H 1.00026 0.28057 0.81684 0.0
H859 H 0.05325 0.34355 0.75849 0.0
H860 H 0.13319 0.23872 0.69279 0.0
H861 H 0.11079 0.2713 0.72296 0.0
C862 C 0.57684 0.72965 0.67997 0.0
C863 C 0.59784 0.71064 0.68929 0.0
C864 C 0.56374 0.75016 0.69536 0.0
C865 C 0.56997 0.78636 0.75858 0.0
H866 H 0.48213 0.79522 0.74443 0.0
C867 C 0.48367 0.82871 0.82859 0.0
C868 C 0.4659 0.85157 0.82047 0.0
C869 C 0.50297 0.81539 0.8123 0.0
C870 C 0.50681 0.7933 0.74845 0.0
H871 H 0.62189 0.69846 0.72203 0.0
H872 H 0.59794 0.73311 0.74924 0.0
H873 H 0.50916 0.76388 0.71694 0.0
H874 H 0.45493 0.87882 0.78896 0.0
H875 H 0.48816 0.85483 0.76026 0.0
H876 H 0.56652 0.81453 0.79093 0.0
C877 C 0.59228 0.73308 0.72987 0.0
C878 C 0.52249 0.77542 0.73261 0.0
C879 C 0.60596 0.71303 0.7143 0.0
C880 C 0.46847 0.8614 0.79579 0.0
C881 C 0.48731 0.84756 0.77935 0.0
C882 C 0.554 0.80377 0.77466 0.0
C883 C 0.57062 0.75168 0.72068 0.0
C884 C 0.55433 0.7716 0.73741 0.0
C885 C 0.50447 0.82416 0.78742 0.0
C886 C 0.52225 0.80737 0.76976 0.0
H887 H 0.57039 0.72859 0.6607 0.0
H888 H 0.54801 0.76468 0.68732 0.0
H889 H 0.59461 0.78459 0.76277 0.0
H890 H 0.48222 0.82066 0.84751 0.0
H891 H 0.51574 0.79725 0.81898 0.0
C892 C 0.20232 0.69064 0.06954 0.0
C893 C 0.17367 0.69433 0.08135 0.0
C894 C 0.21723 0.71324 0.05237 0.0
C895 C 0.20476 0.77368 0.00787 0.0
H896 H 0.29795 0.8004 0.01346 0.0
C897 C 0.28889 0.85564 0.93651 0.0
C898 C 0.31596 0.84284 0.92972 0.0
C899 C 0.26887 0.84185 0.95594 0.0
C900 C 0.27192 0.79325 0.01165 0.0
H901 H 0.13768 0.72443 0.08352 0.0
H902 H 0.16388 0.76402 0.05295 0.0
H903 H 0.26751 0.7685 0.04609 0.0
H904 H 0.34247 0.80486 0.9378 0.0
H905 H 0.30801 0.78134 0.97118 0.0
H906 H 0.20961 0.79765 0.97283 0.0
C907 C 0.17474 0.74356 0.05742 0.0
C908 C 0.25451 0.77501 0.03034 0.0
C909 C 0.15986 0.72097 0.07496 0.0
C910 C 0.32209 0.81568 0.94247 0.0
C911 C 0.30239 0.8022 0.9618 0.0
C912 C 0.22231 0.79203 0.98902 0.0
C913 C 0.20386 0.7401 0.04626 0.0
C914 C 0.22092 0.76404 0.02828 0.0
C915 C 0.27585 0.81532 0.96903 0.0
C916 C 0.25622 0.80096 0.99039 0.0
H917 H 0.21354 0.6703 0.07359 0.0
H918 H 0.23929 0.70955 0.04371 0.0
H919 H 0.17887 0.76553 1.00584 0.0
H920 H 0.28344 0.87652 0.92709 0.0
H921 H 0.24848 0.85238 0.96111 0.0
C922 C 0.43303 0.42372 0.45448 0.0
C923 C 0.44442 0.40944 0.43385 0.0
C924 C 0.45437 0.43801 0.47278 0.0
C925 C 0.53586 0.48144 0.48206 0.0
H926 H 0.51857 0.46451 0.55127 0.0
C927 C 0.58029 0.57264 0.5596 0.0
C928 C 0.59506 0.56148 0.58011 0.0
C929 C 0.56613 0.55114 0.54135 0.0
C930 C 0.5239 0.4692 0.53202 0.0
H931 H 0.48711 0.39875 0.4163 0.0
H932 H 0.52475 0.42487 0.44812 0.0
H933 H 0.48508 0.43107 0.52036 0.0
H934 H 0.60673 0.51904 0.5975 0.0
H935 H 0.5808 0.48106 0.56578 0.0
H936 H 0.57353 0.52069 0.49372 0.0
C937 C 0.49915 0.42446 0.45015 0.0
C938 C 0.5047 0.45023 0.51438 0.0
C939 C 0.47764 0.40947 0.43204 0.0
C940 C 0.59561 0.52832 0.58187 0.0
C941 C 0.58074 0.50663 0.56381 0.0
C942 C 0.55464 0.50083 0.4997 0.0
C943 C 0.48766 0.43891 0.47065 0.0
C944 C 0.51022 0.45648 0.48925 0.0
C945 C 0.56585 0.5179 0.54342 0.0
C946 C 0.54853 0.49516 0.52482 0.0
H947 H 0.40756 0.42398 0.45647 0.0
H948 H 0.44495 0.44925 0.48829 0.0
H949 H 0.54043 0.48689 0.46281 0.0
H950 H 0.57961 0.59807 0.55765 0.0
H951 H 0.55456 0.56039 0.52592 0.0
loop_
_geom_bond_atom_site_label_1
_geom_bond_atom_site_label_2
_geom_bond_distance
_geom_bond_site_symmetry_2
_ccdc_geom_bond_type
Co0 O2 2.143 . S
Co0 O8 2.074 . S
Co0 O11 2.093 . S
Co0 O24 2.097 . S
Co0 N41 2.151 . S
Co0 N49 2.214 . S
Co1 O2 2.160 . S
Co1 O7 2.058 . S
Co1 O17 2.057 . S
Co1 O32 2.037 . S
Co1 N36 2.145 . S
Co1 N57 2.257 . S
O2 Co0 2.143 . S
O2 Co1 2.160 . S
C3 O4 1.278 . S
C3 O11 1.224 . S
O4 C3 1.278 . S
C5 O6 1.245 . S
C5 O17 1.232 . S
O6 C5 1.245 . S
O7 Co1 2.058 . S
O7 C33 1.269 . S
O8 Co0 2.074 . S
O8 C33 1.257 . S
H9 C34 0.930 . S
H10 C40 0.930 . S
O11 Co0 2.093 . S
O11 C3 1.224 . S
H12 C44 0.929 . S
H13 C46 0.930 . S
H14 C47 0.930 . S
H15 C45 0.929 . S
H16 C48 0.928 . S
O17 Co1 2.057 . S
O17 C5 1.232 . S
H18 C37 0.929 . S
H19 C38 0.929 . S
H20 C50 0.931 . S
H21 C42 0.929 . S
H22 C51 0.930 . S
H23 C43 0.931 . S
O24 Co0 2.097 . S
O24 C52 1.214 . S
H25 C53 0.929 . S
H26 C54 0.929 . S
H27 C55 0.930 1_655 S
H28 C56 0.929 1_655 S
H29 C58 0.930 . S
H30 C35 0.930 1_655 S
H31 C39 0.930 . S
O32 Co1 2.037 . S
O32 C52 1.234 . S
C33 O7 1.269 . S
C33 O8 1.257 . S
C34 H9 0.930 . S
C34 C37 1.388 . S
C34 C39 1.418 1_455 S
C35 H30 0.930 1_455 S
C35 C38 1.404 . S
C35 C39 1.353 1_455 S
N36 Co1 2.145 . S
N36 C37 1.397 . S
N36 C38 1.334 . S
C37 H18 0.929 . S
C37 C34 1.388 . S
C37 N36 1.397 . S
C38 H19 0.929 . S
C38 C35 1.404 . S
C38 N36 1.334 . S
C39 H31 0.930 . S
C39 C34 1.418 1_655 S
C39 C35 1.353 1_655 S
C40 H10 0.930 . S
C40 N41 1.330 . S
C40 C42 1.446 . S
N41 Co0 2.151 . S
N41 C40 1.330 . S
N41 C45 1.418 . S
C42 H21 0.929 . S
C42 C40 1.446 . S
C42 C43 1.332 . S
C43 H23 0.931 . S
C43 C42 1.332 . S
C43 C44 1.267 . S
C44 H12 0.929 . S
C44 C43 1.267 . S
C44 C45 1.251 . S
C45 H15 0.929 . S
C45 N41 1.418 . S
C45 C44 1.251 . S
C46 H13 0.930 . S
C46 C48 1.406 . S
C46 C51 1.261 . S
C47 H14 0.930 . S
C47 N49 1.325 . S
C47 C50 1.357 . S
C48 H16 0.928 . S
C48 C46 1.406 . S
C48 N49 1.261 . S
N49 Co0 2.214 . S
N49 C47 1.325 . S
N49 C48 1.261 . S
C50 H20 0.931 . S
C50 C47 1.357 . S
C50 C51 1.312 . S
C51 H22 0.930 . S
C51 C46 1.261 . S
C51 C50 1.312 . S
C52 O24 1.214 . S
C52 O32 1.234 . S
C53 H25 0.929 . S
C53 C56 1.391 . S
C53 C58 1.391 . S
C54 H26 0.929 . S
C54 C55 1.390 . S
C54 N57 1.391 . S
C55 H27 0.930 1_455 S
C55 C54 1.390 . S
C55 C56 1.392 . S
C56 H28 0.929 1_455 S
C56 C53 1.391 . S
C56 C55 1.392 . S
N57 Co1 2.257 . S
N57 C54 1.391 . S
N57 C58 1.388 . S
C58 H29 0.930 . S
C58 C53 1.391 . S
C58 N57 1.388 . S
Co59 O61 2.143 . S
Co59 O67 2.074 . S
Co59 O70 2.093 . S
Co59 O83 2.097 . S
Co59 N100 2.151 . S
Co59 N108 2.214 . S
Co60 O61 2.160 . S
Co60 O66 2.058 . S
Co60 O76 2.057 . S
Co60 O91 2.037 . S
Co60 N95 2.145 . S
Co60 N116 2.257 . S
O61 Co59 2.143 . S
O61 Co60 2.160 . S
C62 O63 1.278 . S
C62 O70 1.224 . S
O63 C62 1.278 . S
C64 O65 1.245 . S
C64 O76 1.232 . S
O65 C64 1.245 . S
O66 Co60 2.058 . S
O66 C92 1.269 . S
O67 Co59 2.074 . S
O67 C92 1.257 . S
H68 C93 0.930 . S
H69 C99 0.930 . S
O70 Co59 2.093 . S
O70 C62 1.224 . S
H71 C103 0.929 . S
H72 C105 0.930 . S
H73 C106 0.930 . S
H74 C104 0.929 . S
H75 C107 0.928 . S
O76 Co60 2.057 . S
O76 C64 1.232 . S
H77 C96 0.929 . S
H78 C97 0.929 . S
H79 C109 0.931 . S
H80 C101 0.929 . S
H81 C110 0.930 . S
H82 C102 0.931 . S
O83 Co59 2.097 . S
O83 C111 1.214 . S
H84 C112 0.929 . S
H85 C113 0.929 . S
H86 C114 0.930 . S
H87 C115 0.929 . S
H88 C117 0.930 . S
H89 C94 0.930 . S
H90 C98 0.930 . S
O91 Co60 2.037 . S
O91 C111 1.234 . S
C92 O66 1.269 . S
C92 O67 1.257 . S
C93 H68 0.930 . S
C93 C96 1.388 . S
C93 C98 1.418 . S
C94 H89 0.930 . S
C94 C97 1.404 . S
C94 C98 1.353 . S
N95 Co60 2.145 . S
N95 C96 1.397 . S
N95 C97 1.334 . S
C96 H77 0.929 . S
C96 C93 1.388 . S
C96 N95 1.397 . S
C97 H78 0.929 . S
C97 C94 1.404 . S
C97 N95 1.334 . S
C98 H90 0.930 . S
C98 C93 1.418 . S
C98 C94 1.353 . S
C99 H69 0.930 . S
C99 N100 1.330 . S
C99 C101 1.446 . S
N100 Co59 2.151 . S
N100 C99 1.330 . S
N100 C104 1.418 . S
C101 H80 0.929 . S
C101 C99 1.446 . S
C101 C102 1.332 . S
C102 H82 0.931 . S
C102 C101 1.332 . S
C102 C103 1.267 . S
C103 H71 0.929 . S
C103 C102 1.267 . S
C103 C104 1.251 . S
C104 H74 0.929 . S
C104 N100 1.418 . S
C104 C103 1.251 . S
C105 H72 0.930 . S
C105 C107 1.406 . S
C105 C110 1.261 . S
C106 H73 0.930 . S
C106 N108 1.325 . S
C106 C109 1.357 . S
C107 H75 0.928 . S
C107 C105 1.406 . S
C107 N108 1.261 . S
N108 Co59 2.214 . S
N108 C106 1.325 . S
N108 C107 1.261 . S
C109 H79 0.931 . S
C109 C106 1.357 . S
C109 C110 1.312 . S
C110 H81 0.930 . S
C110 C105 1.261 . S
C110 C109 1.312 . S
C111 O83 1.214 . S
C111 O91 1.234 . S
C112 H84 0.929 . S
C112 C115 1.391 . S
C112 C117 1.391 . S
C113 H85 0.929 . S
C113 C114 1.390 . S
C113 N116 1.391 . S
C114 H86 0.930 . S
C114 C113 1.390 . S
C114 C115 1.392 . S
C115 H87 0.929 . S
C115 C112 1.391 . S
C115 C114 1.392 . S
N116 Co60 2.257 . S
N116 C113 1.391 . S
N116 C117 1.388 . S
C117 H88 0.930 . S
C117 C112 1.391 . S
C117 N116 1.388 . S
Co118 O120 2.143 . S
Co118 O126 2.074 . S
Co118 O129 2.093 . S
Co118 O142 2.097 . S
Co118 N159 2.151 . S
Co118 N167 2.214 . S
Co119 O120 2.160 . S
Co119 O125 2.058 . S
Co119 O135 2.057 . S
Co119 O150 2.037 . S
Co119 N154 2.145 . S
Co119 N175 2.257 . S
O120 Co118 2.143 . S
O120 Co119 2.160 . S
C121 O122 1.278 . S
C121 O129 1.224 . S
O122 C121 1.278 . S
C123 O124 1.245 . S
C123 O135 1.232 . S
O124 C123 1.245 . S
O125 Co119 2.058 . S
O125 C151 1.269 . S
O126 Co118 2.074 . S
O126 C151 1.257 . S
H127 C152 0.930 . S
H128 C158 0.930 . S
O129 Co118 2.093 . S
O129 C121 1.224 . S
H130 C162 0.929 . S
H131 C164 0.930 . S
H132 C165 0.930 . S
H133 C163 0.929 . S
H134 C166 0.928 . S
O135 Co119 2.057 . S
O135 C123 1.232 . S
H136 C155 0.929 . S
H137 C156 0.929 . S
H138 C168 0.931 . S
H139 C160 0.929 . S
H140 C169 0.930 . S
H141 C161 0.931 . S
O142 Co118 2.097 . S
O142 C170 1.214 . S
H143 C171 0.929 . S
H144 C172 0.929 . S
H145 C173 0.930 . S
H146 C174 0.929 . S
H147 C176 0.930 . S
H148 C153 0.930 . S
H149 C157 0.930 . S
O150 Co119 2.037 . S
O150 C170 1.234 . S
C151 O125 1.269 . S
C151 O126 1.257 . S
C152 H127 0.930 . S
C152 C155 1.388 . S
C152 C157 1.418 . S
C153 H148 0.930 . S
C153 C156 1.404 . S
C153 C157 1.353 . S
N154 Co119 2.145 . S
N154 C155 1.397 . S
N154 C156 1.334 . S
C155 H136 0.929 . S
C155 C152 1.388 . S
C155 N154 1.397 . S
C156 H137 0.929 . S
C156 C153 1.404 . S
C156 N154 1.334 . S
C157 H149 0.930 . S
C157 C152 1.418 . S
C157 C153 1.353 . S
C158 H128 0.930 . S
C158 N159 1.330 . S
C158 C160 1.446 . S
N159 Co118 2.151 . S
N159 C158 1.330 . S
N159 C163 1.418 . S
C160 H139 0.929 . S
C160 C158 1.446 . S
C160 C161 1.332 . S
C161 H141 0.931 . S
C161 C160 1.332 . S
C161 C162 1.267 . S
C162 H130 0.929 . S
C162 C161 1.267 . S
C162 C163 1.251 . S
C163 H133 0.929 . S
C163 N159 1.418 . S
C163 C162 1.251 . S
C164 H131 0.930 . S
C164 C166 1.406 . S
C164 C169 1.261 . S
C165 H132 0.930 . S
C165 N167 1.325 . S
C165 C168 1.357 . S
C166 H134 0.928 . S
C166 C164 1.406 . S
C166 N167 1.261 . S
N167 Co118 2.214 . S
N167 C165 1.325 . S
N167 C166 1.261 . S
C168 H138 0.931 . S
C168 C165 1.357 . S
C168 C169 1.312 . S
C169 H140 0.930 . S
C169 C164 1.261 . S
C169 C168 1.312 . S
C170 O142 1.214 . S
C170 O150 1.234 . S
C171 H143 0.929 . S
C171 C174 1.391 . S
C171 C176 1.391 . S
C172 H144 0.929 . S
C172 C173 1.390 . S
C172 N175 1.391 . S
C173 H145 0.930 . S
C173 C172 1.390 . S
C173 C174 1.392 . S
C174 H146 0.929 . S
C174 C171 1.391 . S
C174 C173 1.392 . S
N175 Co119 2.257 . S
N175 C172 1.391 . S
N175 C176 1.388 . S
C176 H147 0.930 . S
C176 C171 1.391 . S
C176 N175 1.388 . S
Co177 O179 2.143 . S
Co177 O185 2.074 . S
Co177 O188 2.093 . S
Co177 O201 2.097 . S
Co177 N218 2.151 . S
Co177 N226 2.214 . S
Co178 O179 2.160 . S
Co178 O184 2.058 . S
Co178 O194 2.057 . S
Co178 O209 2.037 . S
Co178 N213 2.145 . S
Co178 N234 2.257 . S
O179 Co177 2.143 . S
O179 Co178 2.160 . S
C180 O181 1.278 . S
C180 O188 1.224 . S
O181 C180 1.278 . S
C182 O183 1.245 . S
C182 O194 1.232 . S
O183 C182 1.245 . S
O184 Co178 2.058 . S
O184 C210 1.269 . S
O185 Co177 2.074 . S
O185 C210 1.257 . S
H186 C211 0.930 . S
H187 C217 0.930 . S
O188 Co177 2.093 . S
O188 C180 1.224 . S
H189 C221 0.929 . S
H190 C223 0.930 . S
H191 C224 0.930 . S
H192 C222 0.929 . S
H193 C225 0.928 . S
O194 Co178 2.057 . S
O194 C182 1.232 . S
H195 C214 0.929 . S
H196 C215 0.929 . S
H197 C227 0.931 . S
H198 C219 0.929 . S
H199 C228 0.930 . S
H200 C220 0.931 . S
O201 Co177 2.097 . S
O201 C229 1.214 . S
H202 C230 0.929 . S
H203 C231 0.929 . S
H204 C232 0.930 1_545 S
H205 C233 0.929 1_545 S
H206 C235 0.930 . S
H207 C212 0.930 1_545 S
H208 C216 0.930 . S
O209 Co178 2.037 . S
O209 C229 1.234 . S
C210 O184 1.269 . S
C210 O185 1.257 . S
C211 H186 0.930 . S
C211 C214 1.388 . S
C211 C216 1.418 1_565 S
C212 H207 0.930 1_565 S
C212 C215 1.404 . S
C212 C216 1.353 1_565 S
N213 Co178 2.145 . S
N213 C214 1.397 . S
N213 C215 1.334 . S
C214 H195 0.929 . S
C214 C211 1.388 . S
C214 N213 1.397 . S
C215 H196 0.929 . S
C215 C212 1.404 . S
C215 N213 1.334 . S
C216 H208 0.930 . S
C216 C211 1.418 1_545 S
C216 C212 1.353 1_545 S
C217 H187 0.930 . S
C217 N218 1.330 . S
C217 C219 1.446 . S
N218 Co177 2.151 . S
N218 C217 1.330 . S
N218 C222 1.418 . S
C219 H198 0.929 . S
C219 C217 1.446 . S
C219 C220 1.332 . S
C220 H200 0.931 . S
C220 C219 1.332 . S
C220 C221 1.267 . S
C221 H189 0.929 . S
C221 C220 1.267 . S
C221 C222 1.251 . S
C222 H192 0.929 . S
C222 N218 1.418 . S
C222 C221 1.251 . S
C223 H190 0.930 . S
C223 C225 1.406 . S
C223 C228 1.261 . S
C224 H191 0.930 . S
C224 N226 1.325 . S
C224 C227 1.357 . S
C225 H193 0.928 . S
C225 C223 1.406 . S
C225 N226 1.261 . S
N226 Co177 2.214 . S
N226 C224 1.325 . S
N226 C225 1.261 . S
C227 H197 0.931 . S
C227 C224 1.357 . S
C227 C228 1.312 . S
C228 H199 0.930 . S
C228 C223 1.261 . S
C228 C227 1.312 . S
C229 O201 1.214 . S
C229 O209 1.234 . S
C230 H202 0.929 . S
C230 C233 1.391 . S
C230 C235 1.391 . S
C231 H203 0.929 . S
C231 C232 1.390 . S
C231 N234 1.391 . S
C232 H204 0.930 1_565 S
C232 C231 1.390 . S
C232 C233 1.392 . S
C233 H205 0.929 1_565 S
C233 C230 1.391 . S
C233 C232 1.392 . S
N234 Co178 2.257 . S
N234 C231 1.391 . S
N234 C235 1.388 . S
C235 H206 0.930 . S
C235 C230 1.391 . S
C235 N234 1.388 . S
Co236 O238 2.143 . S
Co236 O244 2.074 . S
Co236 O247 2.093 . S
Co236 O260 2.097 . S
Co236 N277 2.151 . S
Co236 N285 2.214 . S
Co237 O238 2.160 . S
Co237 O243 2.058 . S
Co237 O253 2.057 . S
Co237 O268 2.037 . S
Co237 N272 2.145 . S
Co237 N293 2.257 . S
O238 Co236 2.143 . S
O238 Co237 2.160 . S
C239 O240 1.278 . S
C239 O247 1.224 . S
O240 C239 1.278 . S
C241 O242 1.245 . S
C241 O253 1.232 . S
O242 C241 1.245 . S
O243 Co237 2.058 . S
O243 C269 1.269 . S
O244 Co236 2.074 . S
O244 C269 1.257 . S
H245 C270 0.930 . S
H246 C276 0.930 . S
O247 Co236 2.093 . S
O247 C239 1.224 . S
H248 C280 0.929 . S
H249 C282 0.930 . S
H250 C283 0.930 . S
H251 C281 0.929 . S
H252 C284 0.928 . S
O253 Co237 2.057 . S
O253 C241 1.232 . S
H254 C273 0.929 . S
H255 C274 0.929 . S
H256 C286 0.931 . S
H257 C278 0.929 . S
H258 C287 0.930 . S
H259 C279 0.931 . S
O260 Co236 2.097 . S
O260 C288 1.214 . S
H261 C289 0.929 . S
H262 C290 0.929 . S
H263 C291 0.930 1_655 S
H264 C292 0.929 1_655 S
H265 C294 0.930 . S
H266 C271 0.930 1_655 S
H267 C275 0.930 . S
O268 Co237 2.037 . S
O268 C288 1.234 . S
C269 O243 1.269 . S
C269 O244 1.257 . S
C270 H245 0.930 . S
C270 C273 1.388 . S
C270 C275 1.418 1_455 S
C271 H266 0.930 1_455 S
C271 C274 1.404 . S
C271 C275 1.353 1_455 S
N272 Co237 2.145 . S
N272 C273 1.397 . S
N272 C274 1.334 . S
C273 H254 0.929 . S
C273 C270 1.388 . S
C273 N272 1.397 . S
C274 H255 0.929 . S
C274 C271 1.404 . S
C274 N272 1.334 . S
C275 H267 0.930 . S
C275 C270 1.418 1_655 S
C275 C271 1.353 1_655 S
C276 H246 0.930 . S
C276 N277 1.330 . S
C276 C278 1.446 . S
N277 Co236 2.151 . S
N277 C276 1.330 . S
N277 C281 1.418 . S
C278 H257 0.929 . S
C278 C276 1.446 . S
C278 C279 1.332 . S
C279 H259 0.931 . S
C279 C278 1.332 . S
C279 C280 1.267 . S
C280 H248 0.929 . S
C280 C279 1.267 . S
C280 C281 1.251 . S
C281 H251 0.929 . S
C281 N277 1.418 . S
C281 C280 1.251 . S
C282 H249 0.930 . S
C282 C284 1.406 . S
C282 C287 1.261 . S
C283 H250 0.930 . S
C283 N285 1.325 . S
C283 C286 1.357 . S
C284 H252 0.928 . S
C284 C282 1.406 . S
C284 N285 1.261 . S
N285 Co236 2.214 . S
N285 C283 1.325 . S
N285 C284 1.261 . S
C286 H256 0.931 . S
C286 C283 1.357 . S
C286 C287 1.312 . S
C287 H258 0.930 . S
C287 C282 1.261 . S
C287 C286 1.312 . S
C288 O260 1.214 . S
C288 O268 1.234 . S
C289 H261 0.929 . S
C289 C292 1.391 . S
C289 C294 1.391 . S
C290 H262 0.929 . S
C290 C291 1.390 . S
C290 N293 1.391 . S
C291 H263 0.930 1_455 S
C291 C290 1.390 . S
C291 C292 1.392 . S
C292 H264 0.929 1_455 S
C292 C289 1.391 . S
C292 C291 1.392 . S
N293 Co237 2.257 . S
N293 C290 1.391 . S
N293 C294 1.388 . S
C294 H265 0.930 . S
C294 C289 1.391 . S
C294 N293 1.388 . S
Co295 O297 2.143 . S
Co295 O303 2.074 . S
Co295 O306 2.093 . S
Co295 O319 2.097 . S
Co295 N336 2.151 . S
Co295 N344 2.214 . S
Co296 O297 2.160 . S
Co296 O302 2.058 . S
Co296 O312 2.057 . S
Co296 O327 2.037 . S
Co296 N331 2.145 . S
Co296 N352 2.257 . S
O297 Co295 2.143 . S
O297 Co296 2.160 . S
C298 O299 1.278 . S
C298 O306 1.224 . S
O299 C298 1.278 . S
C300 O301 1.245 . S
C300 O312 1.232 . S
O301 C300 1.245 . S
O302 Co296 2.058 . S
O302 C328 1.269 . S
O303 Co295 2.074 . S
O303 C328 1.257 . S
H304 C329 0.930 . S
H305 C335 0.930 . S
O306 Co295 2.093 . S
O306 C298 1.224 . S
H307 C339 0.929 . S
H308 C341 0.930 . S
H309 C342 0.930 . S
H310 C340 0.929 . S
H311 C343 0.928 . S
O312 Co296 2.057 . S
O312 C300 1.232 . S
H313 C332 0.929 . S
H314 C333 0.929 . S
H315 C345 0.931 . S
H316 C337 0.929 . S
H317 C346 0.930 . S
H318 C338 0.931 . S
O319 Co295 2.097 . S
O319 C347 1.214 . S
H320 C348 0.929 . S
H321 C349 0.929 . S
H322 C350 0.930 . S
H323 C351 0.929 . S
H324 C353 0.930 . S
H325 C330 0.930 . S
H326 C334 0.930 . S
O327 Co296 2.037 . S
O327 C347 1.234 . S
C328 O302 1.269 . S
C328 O303 1.257 . S
C329 H304 0.930 . S
C329 C332 1.388 . S
C329 C334 1.418 . S
C330 H325 0.930 . S
C330 C333 1.404 . S
C330 C334 1.353 . S
N331 Co296 2.145 . S
N331 C332 1.397 . S
N331 C333 1.334 . S
C332 H313 0.929 . S
C332 C329 1.388 . S
C332 N331 1.397 . S
C333 H314 0.929 . S
C333 C330 1.404 . S
C333 N331 1.334 . S
C334 H326 0.930 . S
C334 C329 1.418 . S
C334 C330 1.353 . S
C335 H305 0.930 . S
C335 N336 1.330 . S
C335 C337 1.446 . S
N336 Co295 2.151 . S
N336 C335 1.330 . S
N336 C340 1.418 . S
C337 H316 0.929 . S
C337 C335 1.446 . S
C337 C338 1.332 . S
C338 H318 0.931 . S
C338 C337 1.332 . S
C338 C339 1.267 . S
C339 H307 0.929 . S
C339 C338 1.267 . S
C339 C340 1.251 . S
C340 H310 0.929 . S
C340 N336 1.418 . S
C340 C339 1.251 . S
C341 H308 0.930 . S
C341 C343 1.406 . S
C341 C346 1.261 . S
C342 H309 0.930 . S
C342 N344 1.325 . S
C342 C345 1.357 . S
C343 H311 0.928 . S
C343 C341 1.406 . S
C343 N344 1.261 . S
N344 Co295 2.214 . S
N344 C342 1.325 . S
N344 C343 1.261 . S
C345 H315 0.931 . S
C345 C342 1.357 . S
C345 C346 1.312 . S
C346 H317 0.930 . S
C346 C341 1.261 . S
C346 C345 1.312 . S
C347 O319 1.214 . S
C347 O327 1.234 . S
C348 H320 0.929 . S
C348 C351 1.391 . S
C348 C353 1.391 . S
C349 H321 0.929 . S
C349 C350 1.390 . S
C349 N352 1.391 . S
C350 H322 0.930 . S
C350 C349 1.390 . S
C350 C351 1.392 . S
C351 H323 0.929 . S
C351 C348 1.391 . S
C351 C350 1.392 . S
N352 Co296 2.257 . S
N352 C349 1.391 . S
N352 C353 1.388 . S
C353 H324 0.930 . S
C353 C348 1.391 . S
C353 N352 1.388 . S
Co354 O356 2.143 . S
Co354 O362 2.074 . S
Co354 O365 2.093 . S
Co354 O378 2.097 . S
Co354 N395 2.151 . S
Co354 N403 2.214 . S
Co355 O356 2.160 . S
Co355 O361 2.058 . S
Co355 O371 2.057 . S
Co355 O386 2.037 . S
Co355 N390 2.145 . S
Co355 N411 2.257 . S
O356 Co354 2.143 . S
O356 Co355 2.160 . S
C357 O358 1.278 . S
C357 O365 1.224 . S
O358 C357 1.278 . S
C359 O360 1.245 . S
C359 O371 1.232 . S
O360 C359 1.245 . S
O361 Co355 2.058 . S
O361 C387 1.269 . S
O362 Co354 2.074 . S
O362 C387 1.257 . S
H363 C388 0.930 . S
H364 C394 0.930 . S
O365 Co354 2.093 . S
O365 C357 1.224 . S
H366 C398 0.929 . S
H367 C400 0.930 . S
H368 C401 0.930 . S
H369 C399 0.929 . S
H370 C402 0.928 . S
O371 Co355 2.057 . S
O371 C359 1.232 . S
H372 C391 0.929 . S
H373 C392 0.929 . S
H374 C404 0.931 . S
H375 C396 0.929 . S
H376 C405 0.930 . S
H377 C397 0.931 . S
O378 Co354 2.097 . S
O378 C406 1.214 . S
H379 C407 0.929 . S
H380 C408 0.929 . S
H381 C409 0.930 1_545 S
H382 C410 0.929 1_545 S
H383 C412 0.930 . S
H384 C389 0.930 1_545 S
H385 C393 0.930 . S
O386 Co355 2.037 . S
O386 C406 1.234 . S
C387 O361 1.269 . S
C387 O362 1.257 . S
C388 H363 0.930 . S
C388 C391 1.388 . S
C388 C393 1.418 1_565 S
C389 H384 0.930 1_565 S
C389 C392 1.404 . S
C389 C393 1.353 1_565 S
N390 Co355 2.145 . S
N390 C391 1.397 . S
N390 C392 1.334 . S
C391 H372 0.929 . S
C391 C388 1.388 . S
C391 N390 1.397 . S
C392 H373 0.929 . S
C392 C389 1.404 . S
C392 N390 1.334 . S
C393 H385 0.930 . S
C393 C388 1.418 1_545 S
C393 C389 1.353 1_545 S
C394 H364 0.930 . S
C394 N395 1.330 . S
C394 C396 1.446 . S
N395 Co354 2.151 . S
N395 C394 1.330 . S
N395 C399 1.418 . S
C396 H375 0.929 . S
C396 C394 1.446 . S
C396 C397 1.332 . S
C397 H377 0.931 . S
C397 C396 1.332 . S
C397 C398 1.267 . S
C398 H366 0.929 . S
C398 C397 1.267 . S
C398 C399 1.251 . S
C399 H369 0.929 . S
C399 N395 1.418 . S
C399 C398 1.251 . S
C400 H367 0.930 . S
C400 C402 1.406 . S
C400 C405 1.261 . S
C401 H368 0.930 . S
C401 N403 1.325 . S
C401 C404 1.357 . S
C402 H370 0.928 . S
C402 C400 1.406 . S
C402 N403 1.261 . S
N403 Co354 2.214 . S
N403 C401 1.325 . S
N403 C402 1.261 . S
C404 H374 0.931 . S
C404 C401 1.357 . S
C404 C405 1.312 . S
C405 H376 0.930 . S
C405 C400 1.261 . S
C405 C404 1.312 . S
C406 O378 1.214 . S
C406 O386 1.234 . S
C407 H379 0.929 . S
C407 C410 1.391 . S
C407 C412 1.391 . S
C408 H380 0.929 . S
C408 C409 1.390 . S
C408 N411 1.391 . S
C409 H381 0.930 1_565 S
C409 C408 1.390 . S
C409 C410 1.392 . S
C410 H382 0.929 1_565 S
C410 C407 1.391 . S
C410 C409 1.392 . S
N411 Co355 2.257 . S
N411 C408 1.391 . S
N411 C412 1.388 . S
C412 H383 0.930 . S
C412 C407 1.391 . S
C412 N411 1.388 . S
Co413 O415 2.143 . S
Co413 O421 2.074 . S
Co413 O424 2.093 . S
Co413 O437 2.097 . S
Co413 N454 2.151 . S
Co413 N462 2.214 . S
Co414 O415 2.160 . S
Co414 O420 2.058 . S
Co414 O430 2.057 . S
Co414 O445 2.037 . S
Co414 N449 2.145 . S
Co414 N470 2.257 . S
O415 Co413 2.143 . S
O415 Co414 2.160 . S
C416 O417 1.278 . S
C416 O424 1.224 . S
O417 C416 1.278 . S
C418 O419 1.245 . S
C418 O430 1.232 . S
O419 C418 1.245 . S
O420 Co414 2.058 . S
O420 C446 1.269 . S
O421 Co413 2.074 . S
O421 C446 1.257 . S
H422 C447 0.930 . S
H423 C453 0.930 . S
O424 Co413 2.093 . S
O424 C416 1.224 . S
H425 C457 0.929 . S
H426 C459 0.930 . S
H427 C460 0.930 . S
H428 C458 0.929 . S
H429 C461 0.928 . S
O430 Co414 2.057 . S
O430 C418 1.232 . S
H431 C450 0.929 . S
H432 C451 0.929 . S
H433 C463 0.931 . S
H434 C455 0.929 . S
H435 C464 0.930 . S
H436 C456 0.931 . S
O437 Co413 2.097 . S
O437 C465 1.214 . S
H438 C466 0.929 . S
H439 C467 0.929 . S
H440 C468 0.930 . S
H441 C469 0.929 . S
H442 C471 0.930 . S
H443 C448 0.930 . S
H444 C452 0.930 . S
O445 Co414 2.037 . S
O445 C465 1.234 . S
C446 O420 1.269 . S
C446 O421 1.257 . S
C447 H422 0.930 . S
C447 C450 1.388 . S
C447 C452 1.418 . S
C448 H443 0.930 . S
C448 C451 1.404 . S
C448 C452 1.353 . S
N449 Co414 2.145 . S
N449 C450 1.397 . S
N449 C451 1.334 . S
C450 H431 0.929 . S
C450 C447 1.388 . S
C450 N449 1.397 . S
C451 H432 0.929 . S
C451 C448 1.404 . S
C451 N449 1.334 . S
C452 H444 0.930 . S
C452 C447 1.418 . S
C452 C448 1.353 . S
C453 H423 0.930 . S
C453 N454 1.330 . S
C453 C455 1.446 . S
N454 Co413 2.151 . S
N454 C453 1.330 . S
N454 C458 1.418 . S
C455 H434 0.929 . S
C455 C453 1.446 . S
C455 C456 1.332 . S
C456 H436 0.931 . S
C456 C455 1.332 . S
C456 C457 1.267 . S
C457 H425 0.929 . S
C457 C456 1.267 . S
C457 C458 1.251 . S
C458 H428 0.929 . S
C458 N454 1.418 . S
C458 C457 1.251 . S
C459 H426 0.930 . S
C459 C461 1.406 . S
C459 C464 1.261 . S
C460 H427 0.930 . S
C460 N462 1.325 . S
C460 C463 1.357 . S
C461 H429 0.928 . S
C461 C459 1.406 . S
C461 N462 1.261 . S
N462 Co413 2.214 . S
N462 C460 1.325 . S
N462 C461 1.261 . S
C463 H433 0.931 . S
C463 C460 1.357 . S
C463 C464 1.312 . S
C464 H435 0.930 . S
C464 C459 1.261 . S
C464 C463 1.312 . S
C465 O437 1.214 . S
C465 O445 1.234 . S
C466 H438 0.929 . S
C466 C469 1.391 . S
C466 C471 1.391 . S
C467 H439 0.929 . S
C467 C468 1.390 . S
C467 N470 1.391 . S
C468 H440 0.930 . S
C468 C467 1.390 . S
C468 C469 1.392 . S
C469 H441 0.929 . S
C469 C466 1.391 . S
C469 C468 1.392 . S
N470 Co414 2.257 . S
N470 C467 1.391 . S
N470 C471 1.388 . S
C471 H442 0.930 . S
C471 C466 1.391 . S
C471 N470 1.388 . S
C472 C473 1.349 . S
C472 C474 1.327 . S
C472 H497 0.950 . S
C473 C472 1.349 . S
C473 C489 1.349 . S
C474 C472 1.327 . S
C474 C493 1.429 . S
C474 H498 0.950 . S
C475 C492 1.574 . S
C475 C494 1.368 . S
C475 H499 0.949 . S
H476 C480 0.949 . S
C477 C478 1.349 . S
C477 C479 1.327 . S
C477 H500 0.950 . S
C478 C477 1.349 . S
C478 C490 1.349 . S
C479 C477 1.327 . S
C479 C495 1.429 . S
C479 H501 0.950 . S
C480 H476 0.949 . S
C480 C488 1.574 . S
C480 C496 1.368 . S
H481 C489 0.950 . S
H482 C487 0.950 . S
H483 C488 0.949 . S
H484 C490 0.950 . S
H485 C491 0.950 . S
H486 C492 0.949 . S
C487 H482 0.950 . S
C487 C489 1.327 . S
C487 C493 1.429 . S
C488 C480 1.574 . S
C488 H483 0.949 . S
C488 C494 1.368 . S
C489 C473 1.349 . S
C489 H481 0.950 . S
C489 C487 1.327 . S
C490 C478 1.349 . S
C490 H484 0.950 . S
C490 C491 1.327 . S
C491 H485 0.950 . S
C491 C490 1.327 . S
C491 C495 1.429 . S
C492 C475 1.574 . S
C492 H486 0.949 . S
C492 C496 1.368 . S
C493 C474 1.429 . S
C493 C487 1.429 . S
C493 C494 1.523 . S
C494 C475 1.368 . S
C494 C488 1.368 . S
C494 C493 1.523 . S
C495 C479 1.429 . S
C495 C491 1.429 . S
C495 C496 1.523 . S
C496 C480 1.368 . S
C496 C492 1.368 . S
C496 C495 1.523 . S
H497 C472 0.950 . S
H498 C474 0.950 . S
H499 C475 0.949 . S
H500 C477 0.950 . S
H501 C479 0.950 . S
C502 C503 1.349 . S
C502 C504 1.327 . S
C502 H527 0.950 . S
C503 C502 1.349 . S
C503 C519 1.349 . S
C504 C502 1.327 . S
C504 C523 1.429 . S
C504 H528 0.950 . S
C505 C522 1.574 . S
C505 C524 1.368 . S
C505 H529 0.949 . S
H506 C510 0.949 . S
C507 C508 1.349 . S
C507 C509 1.327 . S
C507 H530 0.950 . S
C508 C507 1.349 . S
C508 C520 1.349 . S
C509 C507 1.327 . S
C509 C525 1.429 . S
C509 H531 0.950 . S
C510 H506 0.949 . S
C510 C518 1.574 . S
C510 C526 1.368 . S
H511 C519 0.950 . S
H512 C517 0.950 . S
H513 C518 0.949 . S
H514 C520 0.950 . S
H515 C521 0.950 . S
H516 C522 0.949 . S
C517 H512 0.950 . S
C517 C519 1.327 . S
C517 C523 1.429 . S
C518 C510 1.574 . S
C518 H513 0.949 . S
C518 C524 1.368 . S
C519 C503 1.349 . S
C519 H511 0.950 . S
C519 C517 1.327 . S
C520 C508 1.349 . S
C520 H514 0.950 . S
C520 C521 1.327 . S
C521 H515 0.950 . S
C521 C520 1.327 . S
C521 C525 1.429 . S
C522 C505 1.574 . S
C522 H516 0.949 . S
C522 C526 1.368 . S
C523 C504 1.429 . S
C523 C517 1.429 . S
C523 C524 1.523 . S
C524 C505 1.368 . S
C524 C518 1.368 . S
C524 C523 1.523 . S
C525 C509 1.429 . S
C525 C521 1.429 . S
C525 C526 1.523 . S
C526 C510 1.368 . S
C526 C522 1.368 . S
C526 C525 1.523 . S
H527 C502 0.950 . S
H528 C504 0.950 . S
H529 C505 0.949 . S
H530 C507 0.950 . S
H531 C509 0.950 . S
C532 C533 1.349 . S
C532 C534 1.327 . S
C532 H557 0.950 . S
C533 C532 1.349 . S
C533 C549 1.349 . S
C534 C532 1.327 . S
C534 C553 1.429 . S
C534 H558 0.950 . S
C535 C552 1.574 . S
C535 C554 1.368 1_565 S
C535 H559 0.949 . S
H536 C540 0.949 . S
C537 C538 1.349 . S
C537 C539 1.327 . S
C537 H560 0.950 . S
C538 C537 1.349 . S
C538 C550 1.349 . S
C539 C537 1.327 . S
C539 C555 1.429 . S
C539 H561 0.950 . S
C540 H536 0.949 . S
C540 C548 1.574 . S
C540 C556 1.368 1_545 S
H541 C549 0.950 . S
H542 C547 0.950 1_565 S
H543 C548 0.949 . S
H544 C550 0.950 . S
H545 C551 0.950 . S
H546 C552 0.949 . S
C547 H542 0.950 1_545 S
C547 C549 1.327 . S
C547 C553 1.429 . S
C548 C540 1.574 . S
C548 H543 0.949 . S
C548 C554 1.368 1_556 S
C549 C533 1.349 . S
C549 H541 0.950 . S
C549 C547 1.327 . S
C550 C538 1.349 . S
C550 H544 0.950 . S
C550 C551 1.327 . S
C551 H545 0.950 . S
C551 C550 1.327 . S
C551 C555 1.429 . S
C552 C535 1.574 . S
C552 H546 0.949 . S
C552 C556 1.368 1_554 S
C553 C534 1.429 . S
C553 C547 1.429 . S
C553 C554 1.523 . S
C554 C535 1.368 1_545 S
C554 C548 1.368 1_554 S
C554 C553 1.523 . S
C555 C539 1.429 . S
C555 C551 1.429 . S
C555 C556 1.523 . S
C556 C540 1.368 1_565 S
C556 C552 1.368 1_556 S
C556 C555 1.523 . S
H557 C532 0.950 . S
H558 C534 0.950 . S
H559 C535 0.949 . S
H560 C537 0.950 . S
H561 C539 0.950 . S
C562 C563 1.349 . S
C562 C564 1.327 . S
C562 H587 0.950 . S
C563 C562 1.349 . S
C563 C579 1.349 . S
C564 C562 1.327 . S
C564 C583 1.429 . S
C564 H588 0.950 1_655 S
C565 C582 1.574 1_655 S
C565 C584 1.358 1_655 S
C565 H589 0.949 . S
H566 C570 0.949 . S
C567 C568 1.349 . S
C567 C569 1.327 . S
C567 H590 0.950 . S
C568 C567 1.349 . S
C568 C580 1.349 . S
C569 C567 1.327 . S
C569 C585 1.429 . S
C569 H591 0.950 . S
C570 H566 0.949 . S
C570 C578 1.574 . S
C570 C586 1.368 . S
H571 C579 0.950 . S
H572 C577 0.950 . S
H573 C578 0.949 . S
H574 C580 0.950 . S
H575 C581 0.950 . S
H576 C582 0.949 1_655 S
C577 H572 0.950 . S
C577 C579 1.327 . S
C577 C583 1.429 . S
C578 C570 1.574 . S
C578 H573 0.949 . S
C578 C584 1.395 . S
C579 C563 1.349 . S
C579 H571 0.950 . S
C579 C577 1.327 . S
C580 C568 1.349 . S
C580 H574 0.950 . S
C580 C581 1.327 . S
C581 H575 0.950 . S
C581 C580 1.327 . S
C581 C585 1.429 . S
C582 C565 1.574 1_455 S
C582 H576 0.949 1_455 S
C582 C586 1.368 . S
C583 C564 1.429 . S
C583 C577 1.429 . S
C583 C584 1.503 1_655 S
C584 C565 1.358 1_455 S
C584 C578 1.395 . S
C584 C583 1.503 1_455 S
C585 C569 1.429 . S
C585 C581 1.429 . S
C585 C586 1.523 . S
C586 C570 1.368 . S
C586 C582 1.368 . S
C586 C585 1.523 . S
H587 C562 0.950 . S
H588 C564 0.950 1_455 S
H589 C565 0.949 . S
H590 C567 0.950 . S
H591 C569 0.950 . S
C592 C593 1.349 . S
C592 C594 1.327 . S
C592 H617 0.950 . S
C593 C592 1.349 . S
C593 C609 1.349 . S
C594 C592 1.327 . S
C594 C613 1.429 . S
C594 H618 0.950 . S
C595 C612 1.574 . S
C595 C614 1.368 . S
C595 H619 0.949 . S
H596 C600 0.949 . S
C597 C598 1.349 . S
C597 C599 1.327 . S
C597 H620 0.950 . S
C598 C597 1.349 . S
C598 C610 1.349 . S
C599 C597 1.327 . S
C599 C615 1.429 . S
C599 H621 0.950 1_545 S
C600 H596 0.949 . S
C600 C608 1.579 . S
C600 C616 1.353 1_545 S
H601 C609 0.950 . S
H602 C607 0.950 . S
H603 C608 0.952 . S
H604 C610 0.950 . S
H605 C611 0.950 . S
H606 C612 0.949 . S
C607 H602 0.950 . S
C607 C609 1.327 . S
C607 C613 1.429 . S
C608 C600 1.579 . S
C608 H603 0.952 . S
C608 C614 1.360 1_545 S
C609 C593 1.349 . S
C609 H601 0.950 . S
C609 C607 1.327 . S
C610 C598 1.349 . S
C610 H604 0.950 . S
C610 C611 1.327 . S
C611 H605 0.950 . S
C611 C610 1.327 . S
C611 C615 1.429 . S
C612 C595 1.574 . S
C612 H606 0.949 . S
C612 C616 1.399 . S
C613 C594 1.429 . S
C613 C607 1.429 . S
C613 C614 1.523 . S
C614 C595 1.368 . S
C614 C608 1.360 1_565 S
C614 C613 1.523 . S
C615 C599 1.429 . S
C615 C611 1.429 . S
C615 C616 1.503 1_545 S
C616 C600 1.353 1_565 S
C616 C612 1.399 . S
C616 C615 1.503 1_565 S
H617 C592 0.950 . S
H618 C594 0.950 . S
H619 C595 0.949 . S
H620 C597 0.950 . S
H621 C599 0.950 1_565 S
C622 C623 1.349 . S
C622 C624 1.327 . S
C622 H647 0.950 . S
C623 C622 1.349 . S
C623 C639 1.349 . S
C624 C622 1.327 . S
C624 C643 1.429 . S
C624 H648 0.950 . S
C625 C642 1.546 1_556 S
C625 C644 1.394 1_455 S
C625 H649 0.952 . S
H626 C630 0.952 . S
C627 C628 1.349 . S
C627 C629 1.327 . S
C627 H650 0.950 . S
C628 C627 1.349 . S
C628 C640 1.349 . S
C629 C627 1.327 . S
C629 C645 1.429 . S
C629 H651 0.950 . S
C630 H626 0.952 . S
C630 C638 1.546 1_454 S
C630 C646 1.394 . S
H631 C639 0.950 . S
H632 C637 0.950 . S
H633 C638 0.949 . S
H634 C640 0.950 . S
H635 C641 0.950 . S
H636 C642 0.949 . S
C637 H632 0.950 . S
C637 C639 1.327 . S
C637 C643 1.429 . S
C638 C630 1.546 1_656 S
C638 H633 0.949 . S
C638 C644 1.368 . S
C639 C623 1.349 . S
C639 H631 0.950 . S
C639 C637 1.327 . S
C640 C628 1.349 . S
C640 H634 0.950 . S
C640 C641 1.327 . S
C641 H635 0.950 . S
C641 C640 1.327 . S
C641 C645 1.429 . S
C642 C625 1.546 1_554 S
C642 H636 0.949 . S
C642 C646 1.368 . S
C643 C624 1.429 . S
C643 C637 1.429 . S
C643 C644 1.523 . S
C644 C625 1.394 1_655 S
C644 C638 1.368 . S
C644 C643 1.523 . S
C645 C629 1.429 . S
C645 C641 1.429 . S
C645 C646 1.523 . S
C646 C630 1.394 . S
C646 C642 1.368 . S
C646 C645 1.523 . S
H647 C622 0.950 . S
H648 C624 0.950 . S
H649 C625 0.952 . S
H650 C627 0.950 . S
H651 C629 0.950 . S
C652 C653 1.349 . S
C652 C654 1.327 . S
C652 H677 0.950 . S
C653 C652 1.349 . S
C653 C669 1.349 . S
C654 C652 1.327 . S
C654 C673 1.429 . S
C654 H678 0.950 . S
C655 C672 1.574 . S
C655 C674 1.368 . S
C655 H679 0.949 . S
H656 C660 0.949 . S
C657 C658 1.349 . S
C657 C659 1.327 . S
C657 H680 0.950 . S
C658 C657 1.349 . S
C658 C670 1.349 . S
C659 C657 1.327 . S
C659 C675 1.429 . S
C659 H681 0.950 . S
C660 H656 0.949 . S
C660 C668 1.574 . S
C660 C676 1.368 . S
H661 C669 0.950 . S
H662 C667 0.950 . S
H663 C668 0.949 . S
H664 C670 0.950 . S
H665 C671 0.950 . S
H666 C672 0.949 . S
C667 H662 0.950 . S
C667 C669 1.327 . S
C667 C673 1.429 . S
C668 C660 1.574 . S
C668 H663 0.949 . S
C668 C674 1.368 . S
C669 C653 1.349 . S
C669 H661 0.950 . S
C669 C667 1.327 . S
C670 C658 1.349 . S
C670 H664 0.950 . S
C670 C671 1.327 . S
C671 H665 0.950 . S
C671 C670 1.327 . S
C671 C675 1.429 . S
C672 C655 1.574 . S
C672 H666 0.949 . S
C672 C676 1.368 . S
C673 C654 1.429 . S
C673 C667 1.429 . S
C673 C674 1.523 . S
C674 C655 1.368 . S
C674 C668 1.368 . S
C674 C673 1.523 . S
C675 C659 1.429 . S
C675 C671 1.429 . S
C675 C676 1.523 . S
C676 C660 1.368 . S
C676 C672 1.368 . S
C676 C675 1.523 . S
H677 C652 0.950 . S
H678 C654 0.950 . S
H679 C655 0.949 . S
H680 C657 0.950 . S
H681 C659 0.950 . S
C682 C683 1.349 . S
C682 C684 1.327 . S
C682 H707 0.950 . S
C683 C682 1.349 . S
C683 C699 1.349 . S
C684 C682 1.327 . S
C684 C703 1.429 . S
C684 H708 0.950 . S
C685 C702 1.574 . S
C685 C704 1.368 . S
C685 H709 0.949 . S
H686 C690 0.949 . S
C687 C688 1.349 . S
C687 C689 1.327 . S
C687 H710 0.950 . S
C688 C687 1.349 . S
C688 C700 1.349 . S
C689 C687 1.327 . S
C689 C705 1.429 . S
C689 H711 0.950 . S
C690 H686 0.949 . S
C690 C698 1.574 . S
C690 C706 1.368 . S
H691 C699 0.950 . S
H692 C697 0.950 . S
H693 C698 0.949 . S
H694 C700 0.950 . S
H695 C701 0.950 . S
H696 C702 0.949 . S
C697 H692 0.950 . S
C697 C699 1.327 . S
C697 C703 1.429 . S
C698 C690 1.574 . S
C698 H693 0.949 . S
C698 C704 1.368 . S
C699 C683 1.349 . S
C699 H691 0.950 . S
C699 C697 1.327 . S
C700 C688 1.349 . S
C700 H694 0.950 . S
C700 C701 1.327 . S
C701 H695 0.950 . S
C701 C700 1.327 . S
C701 C705 1.429 . S
C702 C685 1.574 . S
C702 H696 0.949 . S
C702 C706 1.368 . S
C703 C684 1.429 . S
C703 C697 1.429 . S
C703 C704 1.523 . S
C704 C685 1.368 . S
C704 C698 1.368 . S
C704 C703 1.523 . S
C705 C689 1.429 . S
C705 C701 1.429 . S
C705 C706 1.523 . S
C706 C690 1.368 . S
C706 C702 1.368 . S
C706 C705 1.523 . S
H707 C682 0.950 . S
H708 C684 0.950 . S
H709 C685 0.949 . S
H710 C687 0.950 . S
H711 C689 0.950 . S
C712 C713 1.349 . S
C712 C714 1.327 . S
C712 H737 0.950 . S
C713 C712 1.349 . S
C713 C729 1.349 . S
C714 C712 1.327 . S
C714 C733 1.429 . S
C714 H738 0.950 . S
C715 C732 1.574 . S
C715 C734 1.368 . S
C715 H739 0.949 . S
H716 C720 0.949 . S
C717 C718 1.349 . S
C717 C719 1.327 . S
C717 H740 0.950 . S
C718 C717 1.349 . S
C718 C730 1.349 . S
C719 C717 1.327 . S
C719 C735 1.429 . S
C719 H741 0.950 . S
C720 H716 0.949 . S
C720 C728 1.574 . S
C720 C736 1.368 . S
H721 C729 0.950 . S
H722 C727 0.950 . S
H723 C728 0.949 . S
H724 C730 0.950 . S
H725 C731 0.950 . S
H726 C732 0.949 . S
C727 H722 0.950 . S
C727 C729 1.327 . S
C727 C733 1.429 . S
C728 C720 1.574 . S
C728 H723 0.949 . S
C728 C734 1.368 . S
C729 C713 1.349 . S
C729 H721 0.950 . S
C729 C727 1.327 . S
C730 C718 1.349 . S
C730 H724 0.950 . S
C730 C731 1.327 . S
C731 H725 0.950 . S
C731 C730 1.327 . S
C731 C735 1.429 . S
C732 C715 1.574 . S
C732 H726 0.949 . S
C732 C736 1.368 . S
C733 C714 1.429 . S
C733 C727 1.429 . S
C733 C734 1.523 . S
C734 C715 1.368 . S
C734 C728 1.368 . S
C734 C733 1.523 . S
C735 C719 1.429 . S
C735 C731 1.429 . S
C735 C736 1.523 . S
C736 C720 1.368 . S
C736 C732 1.368 . S
C736 C735 1.523 . S
H737 C712 0.950 . S
H738 C714 0.950 . S
H739 C715 0.949 . S
H740 C717 0.950 . S
H741 C719 0.950 . S
C742 C743 1.349 . S
C742 C744 1.327 . S
C742 H767 0.950 . S
C743 C742 1.349 . S
C743 C759 1.349 . S
C744 C742 1.327 . S
C744 C763 1.429 . S
C744 H768 0.950 . S
C745 C762 1.574 . S
C745 C764 1.368 . S
C745 H769 0.949 . S
H746 C750 0.949 . S
C747 C748 1.349 . S
C747 C749 1.327 . S
C747 H770 0.950 . S
C748 C747 1.349 . S
C748 C760 1.349 . S
C749 C747 1.327 . S
C749 C765 1.429 . S
C749 H771 0.950 . S
C750 H746 0.949 . S
C750 C758 1.574 . S
C750 C766 1.368 . S
H751 C759 0.950 . S
H752 C757 0.950 . S
H753 C758 0.949 . S
H754 C760 0.950 . S
H755 C761 0.950 . S
H756 C762 0.949 . S
C757 H752 0.950 . S
C757 C759 1.327 . S
C757 C763 1.429 . S
C758 C750 1.574 . S
C758 H753 0.949 . S
C758 C764 1.368 1_554 S
C759 C743 1.349 . S
C759 H751 0.950 . S
C759 C757 1.327 . S
C760 C748 1.349 . S
C760 H754 0.950 . S
C760 C761 1.327 . S
C761 H755 0.950 . S
C761 C760 1.327 . S
C761 C765 1.429 . S
C762 C745 1.574 . S
C762 H756 0.949 . S
C762 C766 1.368 1_556 S
C763 C744 1.429 . S
C763 C757 1.429 . S
C763 C764 1.523 . S
C764 C745 1.368 . S
C764 C758 1.368 1_556 S
C764 C763 1.523 . S
C765 C749 1.429 . S
C765 C761 1.429 . S
C765 C766 1.523 . S
C766 C750 1.368 . S
C766 C762 1.368 1_554 S
C766 C765 1.523 . S
H767 C742 0.950 . S
H768 C744 0.950 . S
H769 C745 0.949 . S
H770 C747 0.950 . S
H771 C749 0.950 . S
C772 C773 1.349 . S
C772 C774 1.327 . S
C772 H797 0.950 . S
C773 C772 1.349 . S
C773 C789 1.349 . S
C774 C772 1.327 . S
C774 C793 1.429 . S
C774 H798 0.950 . S
C775 C792 1.574 . S
C775 C794 1.368 . S
C775 H799 0.949 . S
H776 C780 0.949 . S
C777 C778 1.349 . S
C777 C779 1.327 . S
C777 H800 0.950 . S
C778 C777 1.349 . S
C778 C790 1.349 . S
C779 C777 1.327 . S
C779 C795 1.429 . S
C779 H801 0.950 1_545 S
C780 H776 0.949 . S
C780 C788 1.574 1_545 S
C780 C796 1.358 1_545 S
H781 C789 0.950 . S
H782 C787 0.950 . S
H783 C788 0.949 . S
H784 C790 0.950 . S
H785 C791 0.950 . S
H786 C792 0.949 . S
C787 H782 0.950 . S
C787 C789 1.327 . S
C787 C793 1.429 . S
C788 C780 1.574 1_565 S
C788 H783 0.949 . S
C788 C794 1.368 . S
C789 C773 1.349 . S
C789 H781 0.950 . S
C789 C787 1.327 . S
C790 C778 1.349 . S
C790 H784 0.950 . S
C790 C791 1.327 . S
C791 H785 0.950 . S
C791 C790 1.327 . S
C791 C795 1.429 . S
C792 C775 1.574 . S
C792 H786 0.949 . S
C792 C796 1.394 . S
C793 C774 1.429 . S
C793 C787 1.429 . S
C793 C794 1.523 . S
C794 C775 1.368 . S
C794 C788 1.368 . S
C794 C793 1.523 . S
C795 C779 1.429 . S
C795 C791 1.429 . S
C795 C796 1.503 1_545 S
C796 C780 1.358 1_565 S
C796 C792 1.394 . S
C796 C795 1.503 1_565 S
H797 C772 0.950 . S
H798 C774 0.950 . S
H799 C775 0.949 . S
H800 C777 0.950 . S
H801 C779 0.950 1_565 S
C802 C803 1.349 . S
C802 C804 1.327 . S
C802 H827 0.950 . S
C803 C802 1.349 . S
C803 C819 1.349 . S
C804 C802 1.327 . S
C804 C823 1.429 . S
C804 H828 0.950 . S
C805 C822 1.574 1_565 S
C805 C824 1.368 1_455 S
C805 H829 0.949 . S
H806 C810 0.949 . S
C807 C808 1.349 . S
C807 C809 1.327 . S
C807 H830 0.950 . S
C808 C807 1.349 . S
C808 C820 1.349 . S
C809 C807 1.327 . S
C809 C825 1.429 . S
C809 H831 0.950 . S
C810 H806 0.949 . S
C810 C818 1.574 1_455 S
C810 C826 1.368 1_565 S
H811 C819 0.950 . S
H812 C817 0.964 . S
H813 C818 0.949 . S
H814 C820 0.950 . S
H815 C821 0.963 . S
H816 C822 0.949 . S
C817 H812 0.964 . S
C817 C819 1.327 . S
C817 C823 1.429 . S
C818 C810 1.574 1_655 S
C818 H813 0.949 . S
C818 C824 1.368 . S
C819 C803 1.349 . S
C819 H811 0.950 . S
C819 C817 1.327 . S
C820 C808 1.349 . S
C820 H814 0.950 . S
C820 C821 1.327 . S
C821 H815 0.963 . S
C821 C820 1.327 . S
C821 C825 1.429 . S
C822 C805 1.574 1_545 S
C822 H816 0.949 . S
C822 C826 1.368 . S
C823 C804 1.429 . S
C823 C817 1.429 . S
C823 C824 1.523 . S
C824 C805 1.368 1_655 S
C824 C818 1.368 . S
C824 C823 1.523 . S
C825 C809 1.429 . S
C825 C821 1.429 . S
C825 C826 1.523 . S
C826 C810 1.368 1_545 S
C826 C822 1.368 . S
C826 C825 1.523 . S
H827 C802 0.950 . S
H828 C804 0.950 . S
H829 C805 0.949 . S
H830 C807 0.950 . S
H831 C809 0.950 . S
C832 C833 1.349 . S
C832 C834 1.327 . S
C832 H857 0.950 . S
C833 C832 1.349 . S
C833 C849 1.349 . S
C834 C832 1.327 . S
C834 C853 1.429 . S
C834 H858 0.950 . S
C835 C852 1.574 . S
C835 C854 1.390 . S
C835 H859 0.949 . S
H836 C840 0.949 . S
C837 C838 1.349 . S
C837 C839 1.327 . S
C837 H860 0.950 . S
C838 C837 1.349 . S
C838 C850 1.349 . S
C839 C837 1.327 . S
C839 C855 1.429 . S
C839 H861 0.950 . S
C840 H836 0.949 . S
C840 C848 1.574 1_455 S
C840 C856 1.368 . S
H841 C849 0.950 . S
H842 C847 0.950 1_455 S
H843 C848 0.949 . S
H844 C850 0.950 . S
H845 C851 0.950 . S
H846 C852 0.949 . S
C847 H842 0.950 1_655 S
C847 C849 1.327 . S
C847 C853 1.429 . S
C848 C840 1.574 1_655 S
C848 H843 0.949 . S
C848 C854 1.362 1_655 S
C849 C833 1.349 . S
C849 H841 0.950 . S
C849 C847 1.327 . S
C850 C838 1.349 . S
C850 H844 0.950 . S
C850 C851 1.327 . S
C851 H845 0.950 . S
C851 C850 1.327 . S
C851 C855 1.429 . S
C852 C835 1.574 . S
C852 H846 0.949 . S
C852 C856 1.368 . S
C853 C834 1.429 . S
C853 C847 1.429 . S
C853 C854 1.503 1_655 S
C854 C835 1.390 . S
C854 C848 1.362 1_455 S
C854 C853 1.503 1_455 S
C855 C839 1.429 . S
C855 C851 1.429 . S
C855 C856 1.523 . S
C856 C840 1.368 . S
C856 C852 1.368 . S
C856 C855 1.523 . S
H857 C832 0.950 . S
H858 C834 0.950 . S
H859 C835 0.949 . S
H860 C837 0.950 . S
H861 C839 0.950 . S
C862 C863 1.349 . S
C862 C864 1.327 . S
C862 H887 0.950 . S
C863 C862 1.349 . S
C863 C879 1.349 . S
C864 C862 1.327 . S
C864 C883 1.429 . S
C864 H888 0.950 . S
C865 C882 1.574 . S
C865 C884 1.368 . S
C865 H889 0.949 . S
H866 C870 0.949 . S
C867 C868 1.349 . S
C867 C869 1.327 . S
C867 H890 0.950 . S
C868 C867 1.349 . S
C868 C880 1.349 . S
C869 C867 1.327 . S
C869 C885 1.429 . S
C869 H891 0.950 . S
C870 H866 0.949 . S
C870 C878 1.574 . S
C870 C886 1.368 . S
H871 C879 0.950 . S
H872 C877 0.950 . S
H873 C878 0.949 . S
H874 C880 0.950 . S
H875 C881 0.950 . S
H876 C882 0.949 . S
C877 H872 0.950 . S
C877 C879 1.327 . S
C877 C883 1.429 . S
C878 C870 1.574 . S
C878 H873 0.949 . S
C878 C884 1.368 . S
C879 C863 1.349 . S
C879 H871 0.950 . S
C879 C877 1.327 . S
C880 C868 1.349 . S
C880 H874 0.950 . S
C880 C881 1.327 . S
C881 H875 0.950 . S
C881 C880 1.327 . S
C881 C885 1.429 . S
C882 C865 1.574 . S
C882 H876 0.949 . S
C882 C886 1.368 . S
C883 C864 1.429 . S
C883 C877 1.429 . S
C883 C884 1.523 . S
C884 C865 1.368 . S
C884 C878 1.368 . S
C884 C883 1.523 . S
C885 C869 1.429 . S
C885 C881 1.429 . S
C885 C886 1.523 . S
C886 C870 1.368 . S
C886 C882 1.368 . S
C886 C885 1.523 . S
H887 C862 0.950 . S
H888 C864 0.950 . S
H889 C865 0.949 . S
H890 C867 0.950 . S
H891 C869 0.950 . S
C892 C893 1.349 . S
C892 C894 1.327 . S
C892 H917 0.950 . S
C893 C892 1.349 . S
C893 C909 1.349 . S
C894 C892 1.327 . S
C894 C913 1.429 . S
C894 H918 0.950 . S
C895 C912 1.574 . S
C895 C914 1.368 1_556 S
C895 H919 0.949 . S
H896 C900 0.949 . S
C897 C898 1.349 . S
C897 C899 1.327 . S
C897 H920 0.950 . S
C898 C897 1.349 . S
C898 C910 1.349 . S
C899 C897 1.327 . S
C899 C915 1.429 . S
C899 H921 0.950 . S
C900 H896 0.949 . S
C900 C908 1.574 . S
C900 C916 1.368 1_554 S
H901 C909 0.950 . S
H902 C907 0.950 . S
H903 C908 0.949 . S
H904 C910 0.950 . S
H905 C911 0.950 . S
H906 C912 0.949 . S
C907 H902 0.950 . S
C907 C909 1.327 . S
C907 C913 1.429 . S
C908 C900 1.574 . S
C908 H903 0.949 . S
C908 C914 1.368 . S
C909 C893 1.349 . S
C909 H901 0.950 . S
C909 C907 1.327 . S
C910 C898 1.349 . S
C910 H904 0.950 . S
C910 C911 1.327 . S
C911 H905 0.950 . S
C911 C910 1.327 . S
C911 C915 1.429 . S
C912 C895 1.574 . S
C912 H906 0.949 . S
C912 C916 1.368 . S
C913 C894 1.429 . S
C913 C907 1.429 . S
C913 C914 1.523 . S
C914 C895 1.368 1_554 S
C914 C908 1.368 . S
C914 C913 1.523 . S
C915 C899 1.429 . S
C915 C911 1.429 . S
C915 C916 1.523 . S
C916 C900 1.368 1_556 S
C916 C912 1.368 . S
C916 C915 1.523 . S
H917 C892 0.950 . S
H918 C894 0.950 . S
H919 C895 0.949 . S
H920 C897 0.950 . S
H921 C899 0.950 . S
C922 C923 1.349 . S
C922 C924 1.327 . S
C922 H947 0.950 . S
C923 C922 1.349 . S
C923 C939 1.349 . S
C924 C922 1.327 . S
C924 C943 1.429 . S
C924 H948 0.950 . S
C925 C942 1.574 . S
C925 C944 1.368 . S
C925 H949 0.949 . S
H926 C930 0.949 . S
C927 C928 1.349 . S
C927 C929 1.327 . S
C927 H950 0.950 . S
C928 C927 1.349 . S
C928 C940 1.349 . S
C929 C927 1.327 . S
C929 C945 1.429 . S
C929 H951 0.950 . S
C930 H926 0.949 . S
C930 C938 1.574 . S
C930 C946 1.368 . S
H931 C939 0.950 . S
H932 C937 0.950 . S
H933 C938 0.949 . S
H934 C940 0.950 . S
H935 C941 0.950 . S
H936 C942 0.949 . S
C937 H932 0.950 . S
C937 C939 1.327 . S
C937 C943 1.429 . S
C938 C930 1.574 . S
C938 H933 0.949 . S
C938 C944 1.368 . S
C939 C923 1.349 . S
C939 H931 0.950 . S
C939 C937 1.327 . S
C940 C928 1.349 . S
C940 H934 0.950 . S
C940 C941 1.327 . S
C941 H935 0.950 . S
C941 C940 1.327 . S
C941 C945 1.429 . S
C942 C925 1.574 . S
C942 H936 0.949 . S
C942 C946 1.368 . S
C943 C924 1.429 . S
C943 C937 1.429 . S
C943 C944 1.523 . S
C944 C925 1.368 . S
C944 C938 1.368 . S
C944 C943 1.523 . S
C945 C929 1.429 . S
C945 C941 1.429 . S
C945 C946 1.523 . S
C946 C930 1.368 . S
C946 C942 1.368 . S
C946 C945 1.523 . S
H947 C922 0.950 . S
H948 C924 0.950 . S
H949 C925 0.949 . S
H950 C927 0.950 . S
H951 C929 0.950 . S
C473 C328 1.591 . S
C478 C33 1.591 . S
C503 C416 1.585 . S
C508 C64 1.592 . S
C533 C170 1.592 . S
C538 C406 1.592 . S
C563 C180 1.585 . S
C568 C241 1.592 . S
C593 C359 1.592 . S
C598 C3 1.585 . S
C623 C111 1.592 . S
C628 C288 1.592 . S
C653 C298 1.585 . S
C658 C123 1.592 . S
C683 C210 1.591 . S
C688 C446 1.591 . S
C713 C239 1.585 . S
C718 C300 1.592 . S
C743 C92 1.591 . S
C748 C151 1.591 . S
C773 C182 1.592 . S
C778 C121 1.585 . S
C803 C229 1.592 . S
C808 C52 1.592 . S
C833 C62 1.585 . S
C838 C5 1.592 . S
C863 C418 1.592 . S
C868 C357 1.585 . S
C893 C269 1.591 . S
C898 C387 1.591 . S
C923 C347 1.592 . S
C928 C465 1.592 . S
