# Generated by pormake.
# Topology uoi, (4)-cn, num edge types: 1
# Building blocks:
#     Node 0, Type 0, BuildingBlock: CEKHIL_clean_sbu_0, # of connection points: 4
#     Node 1, Type 0, BuildingBlock: CEKHIL_clean_sbu_0, # of connection points: 4
#     Node 2, Type 0, BuildingBlock: CEKHIL_clean_sbu_0, # of connection points: 4
#     Node 3, Type 0, BuildingBlock: CEKHIL_clean_sbu_0, # of connection points: 4
#     Node 4, Type 0, BuildingBlock: CEKHIL_clean_sbu_0, # of connection points: 4
#     Node 5, Type 0, BuildingBlock: CEKHIL_clean_sbu_0, # of connection points: 4
#     Node 6, Type 0, BuildingBlock: CEKHIL_clean_sbu_0, # of connection points: 4
#     Node 7, Type 0, BuildingBlock: CEKHIL_clean_sbu_0, # of connection points: 4
#     Node 8, Type 0, BuildingBlock: CEKHIL_clean_sbu_0, # of connection points: 4
#     Node 9, Type 0, BuildingBlock: CEKHIL_clean_sbu_0, # of connection points: 4
#     Node 10, Type 0, BuildingBlock: CEKHIL_clean_sbu_0, # of connection points: 4
#     Node 11, Type 0, BuildingBlock: CEKHIL_clean_sbu_0, # of connection points: 4
#     Node 12, Type 0, BuildingBlock: CEKHIL_clean_sbu_0, # of connection points: 4
#     Node 13, Type 0, BuildingBlock: CEKHIL_clean_sbu_0, # of connection points: 4
#     Node 14, Type 0, BuildingBlock: CEKHIL_clean_sbu_0, # of connection points: 4
#     Node 15, Type 0, BuildingBlock: CEKHIL_clean_sbu_0, # of connection points: 4
#     Node 16, Type 0, BuildingBlock: CEKHIL_clean_sbu_0, # of connection points: 4
#     Node 17, Type 0, BuildingBlock: CEKHIL_clean_sbu_0, # of connection points: 4
#     Node 18, Type 0, BuildingBlock: CEKHIL_clean_sbu_0, # of connection points: 4
#     Node 19, Type 0, BuildingBlock: CEKHIL_clean_sbu_0, # of connection points: 4
#     Node 20, Type 0, BuildingBlock: CEKHIL_clean_sbu_0, # of connection points: 4
#     Node 21, Type 0, BuildingBlock: CEKHIL_clean_sbu_0, # of connection points: 4
#     Node 22, Type 0, BuildingBlock: CEKHIL_clean_sbu_0, # of connection points: 4
#     Node 23, Type 0, BuildingBlock: CEKHIL_clean_sbu_0, # of connection points: 4
#     Node 24, Type 0, BuildingBlock: CEKHIL_clean_sbu_0, # of connection points: 4
#     Node 25, Type 0, BuildingBlock: CEKHIL_clean_sbu_0, # of connection points: 4
#     Node 26, Type 0, BuildingBlock: CEKHIL_clean_sbu_0, # of connection points: 4
#     Node 27, Type 0, BuildingBlock: CEKHIL_clean_sbu_0, # of connection points: 4
#     Node 28, Type 0, BuildingBlock: CEKHIL_clean_sbu_0, # of connection points: 4
#     Node 29, Type 0, BuildingBlock: CEKHIL_clean_sbu_0, # of connection points: 4
#     Node 30, Type 0, BuildingBlock: CEKHIL_clean_sbu_0, # of connection points: 4
#     Node 31, Type 0, BuildingBlock: CEKHIL_clean_sbu_0, # of connection points: 4
#     Edge 32, Type (0, 0), BuildingBlock: XUDNAN_clean_linker_2, # of connection points: 2
#     Edge 33, Type (0, 0), BuildingBlock: XUDNAN_clean_linker_2, # of connection points: 2
#     Edge 34, Type (0, 0), BuildingBlock: XUDNAN_clean_linker_2, # of connection points: 2
#     Edge 35, Type (0, 0), BuildingBlock: XUDNAN_clean_linker_2, # of connection points: 2
#     Edge 36, Type (0, 0), BuildingBlock: XUDNAN_clean_linker_2, # of connection points: 2
#     Edge 37, Type (0, 0), BuildingBlock: XUDNAN_clean_linker_2, # of connection points: 2
#     Edge 38, Type (0, 0), BuildingBlock: XUDNAN_clean_linker_2, # of connection points: 2
#     Edge 39, Type (0, 0), BuildingBlock: XUDNAN_clean_linker_2, # of connection points: 2
#     Edge 40, Type (0, 0), BuildingBlock: XUDNAN_clean_linker_2, # of connection points: 2
#     Edge 41, Type (0, 0), BuildingBlock: XUDNAN_clean_linker_2, # of connection points: 2
#     Edge 42, Type (0, 0), BuildingBlock: XUDNAN_clean_linker_2, # of connection points: 2
#     Edge 43, Type (0, 0), BuildingBlock: XUDNAN_clean_linker_2, # of connection points: 2
#     Edge 44, Type (0, 0), BuildingBlock: XUDNAN_clean_linker_2, # of connection points: 2
#     Edge 45, Type (0, 0), BuildingBlock: XUDNAN_clean_linker_2, # of connection points: 2
#     Edge 46, Type (0, 0), BuildingBlock: XUDNAN_clean_linker_2, # of connection points: 2
#     Edge 47, Type (0, 0), BuildingBlock: XUDNAN_clean_linker_2, # of connection points: 2
#     Edge 48, Type (0, 0), BuildingBlock: XUDNAN_clean_linker_2, # of connection points: 2
#     Edge 49, Type (0, 0), BuildingBlock: XUDNAN_clean_linker_2, # of connection points: 2
#     Edge 50, Type (0, 0), BuildingBlock: XUDNAN_clean_linker_2, # of connection points: 2
#     Edge 51, Type (0, 0), BuildingBlock: XUDNAN_clean_linker_2, # of connection points: 2
#     Edge 52, Type (0, 0), BuildingBlock: XUDNAN_clean_linker_2, # of connection points: 2
#     Edge 53, Type (0, 0), BuildingBlock: XUDNAN_clean_linker_2, # of connection points: 2
#     Edge 54, Type (0, 0), BuildingBlock: XUDNAN_clean_linker_2, # of connection points: 2
#     Edge 55, Type (0, 0), BuildingBlock: XUDNAN_clean_linker_2, # of connection points: 2
#     Edge 56, Type (0, 0), BuildingBlock: XUDNAN_clean_linker_2, # of connection points: 2
#     Edge 57, Type (0, 0), BuildingBlock: XUDNAN_clean_linker_2, # of connection points: 2
#     Edge 58, Type (0, 0), BuildingBlock: XUDNAN_clean_linker_2, # of connection points: 2
#     Edge 59, Type (0, 0), BuildingBlock: XUDNAN_clean_linker_2, # of connection points: 2
#     Edge 60, Type (0, 0), BuildingBlock: XUDNAN_clean_linker_2, # of connection points: 2
#     Edge 61, Type (0, 0), BuildingBlock: XUDNAN_clean_linker_2, # of connection points: 2
#     Edge 62, Type (0, 0), BuildingBlock: XUDNAN_clean_linker_2, # of connection points: 2
#     Edge 63, Type (0, 0), BuildingBlock: XUDNAN_clean_linker_2, # of connection points: 2
#     Edge 64, Type (0, 0), BuildingBlock: XUDNAN_clean_linker_2, # of connection points: 2
#     Edge 65, Type (0, 0), BuildingBlock: XUDNAN_clean_linker_2, # of connection points: 2
#     Edge 66, Type (0, 0), BuildingBlock: XUDNAN_clean_linker_2, # of connection points: 2
#     Edge 67, Type (0, 0), BuildingBlock: XUDNAN_clean_linker_2, # of connection points: 2
#     Edge 68, Type (0, 0), BuildingBlock: XUDNAN_clean_linker_2, # of connection points: 2
#     Edge 69, Type (0, 0), BuildingBlock: XUDNAN_clean_linker_2, # of connection points: 2
#     Edge 70, Type (0, 0), BuildingBlock: XUDNAN_clean_linker_2, # of connection points: 2
#     Edge 71, Type (0, 0), BuildingBlock: XUDNAN_clean_linker_2, # of connection points: 2
#     Edge 72, Type (0, 0), BuildingBlock: XUDNAN_clean_linker_2, # of connection points: 2
#     Edge 73, Type (0, 0), BuildingBlock: XUDNAN_clean_linker_2, # of connection points: 2
#     Edge 74, Type (0, 0), BuildingBlock: XUDNAN_clean_linker_2, # of connection points: 2
#     Edge 75, Type (0, 0), BuildingBlock: XUDNAN_clean_linker_2, # of connection points: 2
#     Edge 76, Type (0, 0), BuildingBlock: XUDNAN_clean_linker_2, # of connection points: 2
#     Edge 77, Type (0, 0), BuildingBlock: XUDNAN_clean_linker_2, # of connection points: 2
#     Edge 78, Type (0, 0), BuildingBlock: XUDNAN_clean_linker_2, # of connection points: 2
#     Edge 79, Type (0, 0), BuildingBlock: XUDNAN_clean_linker_2, # of connection points: 2
#     Edge 80, Type (0, 0), BuildingBlock: XUDNAN_clean_linker_2, # of connection points: 2
#     Edge 81, Type (0, 0), BuildingBlock: XUDNAN_clean_linker_2, # of connection points: 2
#     Edge 82, Type (0, 0), BuildingBlock: XUDNAN_clean_linker_2, # of connection points: 2
#     Edge 83, Type (0, 0), BuildingBlock: XUDNAN_clean_linker_2, # of connection points: 2
#     Edge 84, Type (0, 0), BuildingBlock: XUDNAN_clean_linker_2, # of connection points: 2
#     Edge 85, Type (0, 0), BuildingBlock: XUDNAN_clean_linker_2, # of connection points: 2
#     Edge 86, Type (0, 0), BuildingBlock: XUDNAN_clean_linker_2, # of connection points: 2
#     Edge 87, Type (0, 0), BuildingBlock: XUDNAN_clean_linker_2, # of connection points: 2
#     Edge 88, Type (0, 0), BuildingBlock: XUDNAN_clean_linker_2, # of connection points: 2
#     Edge 89, Type (0, 0), BuildingBlock: XUDNAN_clean_linker_2, # of connection points: 2
#     Edge 90, Type (0, 0), BuildingBlock: XUDNAN_clean_linker_2, # of connection points: 2
#     Edge 91, Type (0, 0), BuildingBlock: XUDNAN_clean_linker_2, # of connection points: 2
#     Edge 92, Type (0, 0), BuildingBlock: XUDNAN_clean_linker_2, # of connection points: 2
#     Edge 93, Type (0, 0), BuildingBlock: XUDNAN_clean_linker_2, # of connection points: 2
#     Edge 94, Type (0, 0), BuildingBlock: XUDNAN_clean_linker_2, # of connection points: 2
#     Edge 95, Type (0, 0), BuildingBlock: XUDNAN_clean_linker_2, # of connection points: 2
# Relax obj value: 0.257
# Max RMSD: 0.469
# Mean RMSD: 0.293
data_MOF--net-uoi--node1-CEKHIL_clean_sbu_0--edge1-XUDNAN_clean_linker_2
_symmetry_space_group_name_H-M    P1
_symmetry_Int_Tables_number       1
_symmetry_cell_setting            triclinic
loop_
_symmetry_equiv_pos_as_xyz
'x, y, z'
_cell_length_a     46.902681
_cell_length_b     73.858475
_cell_length_c     21.107995
_cell_angle_alpha  90.046993
_cell_angle_beta   89.933741
_cell_angle_gamma 90.028426
loop_
_atom_site_label
_atom_site_type_symbol
_atom_site_fract_x
_atom_site_fract_y
_atom_site_fract_z
_atom_type_partial_charge
Co0 Co 0.3053 0.18638 0.23198 0.0
O1 O 0.28939 0.1679 0.1798 0.0
O2 O 0.27237 0.19581 0.18653 0.0
C3 C 0.30802 0.16923 0.31888 0.0
O4 O 0.3165 0.2087 0.2858 0.0
Co5 Co 0.36636 0.18149 0.28186 0.0
O6 O 0.35461 0.20022 0.34336 0.0
C7 C 0.35752 0.19804 0.15629 0.0
C8 C 0.2698 0.1794 0.16441 0.0
C9 C 0.33461 0.21133 0.33122 0.0
O10 O 0.33086 0.19463 0.16146 0.0
O11 O 0.3757 0.19393 0.19918 0.0
O12 O 0.2845 0.17701 0.30223 0.0
O13 O 0.32895 0.17016 0.27851 0.0
Co14 Co 0.11869 0.91112 0.62856 0.0
O15 O 0.14564 0.9085 0.56031 0.0
O16 O 0.13699 0.88806 0.63504 0.0
C17 C 0.13075 0.93976 0.65461 0.0
O18 O 0.0944 0.90829 0.70729 0.0
Co19 Co 0.06977 0.93882 0.62892 0.0
O20 O 0.06214 0.93056 0.71635 0.0
C21 C 0.06579 0.90659 0.54723 0.0
C22 C 0.15033 0.89244 0.58335 0.0
C23 C 0.07451 0.91648 0.73728 0.0
O24 O 0.08842 0.90006 0.57265 0.0
O25 O 0.05583 0.92226 0.56036 0.0
O26 O 0.14537 0.92618 0.67657 0.0
O27 O 0.11059 0.93581 0.61534 0.0
Co28 Co 0.18679 0.81807 0.73787 0.0
O29 O 0.19626 0.83797 0.68386 0.0
O30 O 0.21883 0.81145 0.68707 0.0
C31 C 0.18451 0.83512 0.82894 0.0
O32 O 0.18101 0.79588 0.78925 0.0
Co33 Co 0.12697 0.82165 0.75426 0.0
O34 O 0.13418 0.79947 0.80935 0.0
C35 C 0.13984 0.80607 0.64042 0.0
C36 C 0.21689 0.82768 0.66404 0.0
C37 C 0.15763 0.79068 0.81552 0.0
O38 O 0.16377 0.80595 0.66901 0.0
O39 O 0.11878 0.81431 0.66471 0.0
O40 O 0.20795 0.83021 0.80274 0.0
O41 O 0.16159 0.82976 0.79928 0.0
Co42 Co 0.39171 0.09424 0.13993 0.0
O43 O 0.36946 0.09035 0.06501 0.0
O44 O 0.37005 0.11593 0.11979 0.0
C45 C 0.37971 0.06731 0.18301 0.0
O46 O 0.41111 0.10276 0.22212 0.0
Co47 Co 0.44182 0.06879 0.17241 0.0
O48 O 0.4398 0.08034 0.25617 0.0
C49 C 0.44551 0.09379 0.06379 0.0
C50 C 0.36026 0.10676 0.07175 0.0
C51 C 0.42721 0.0954 0.26437 0.0
O52 O 0.42418 0.10284 0.08507 0.0
O53 O 0.45425 0.0791 0.08919 0.0
O54 O 0.36315 0.08126 0.18994 0.0
O55 O 0.40197 0.06978 0.14816 0.0
Co56 Co 0.31256 0.81495 0.24694 0.0
O57 O 0.29922 0.83403 0.3009 0.0
O58 O 0.28014 0.80662 0.29513 0.0
C59 C 0.31066 0.83239 0.15444 0.0
O60 O 0.32191 0.79355 0.19504 0.0
Co61 Co 0.35454 0.82383 0.26005 0.0
O62 O 0.36643 0.80264 0.20362 0.0
C63 C 0.34885 0.80921 0.36366 0.0
C64 C 0.27924 0.82291 0.31798 0.0
C65 C 0.34824 0.79138 0.18191 0.0
O66 O 0.33409 0.80245 0.31902 0.0
O67 O 0.36152 0.82387 0.35291 0.0
O68 O 0.28961 0.82528 0.18259 0.0
O69 O 0.33552 0.83015 0.18007 0.0
Co70 Co 0.38012 0.91656 0.36085 0.0
O71 O 0.35209 0.91352 0.42658 0.0
O72 O 0.36735 0.89194 0.36154 0.0
C73 C 0.36193 0.94271 0.32249 0.0
O74 O 0.40786 0.91386 0.28798 0.0
Co75 Co 0.41989 0.95029 0.35099 0.0
O76 O 0.43368 0.93905 0.27135 0.0
C77 C 0.43306 0.92029 0.4411 0.0
C78 C 0.35107 0.8967 0.40847 0.0
C79 C 0.42658 0.92291 0.25714 0.0
O80 O 0.41195 0.91057 0.42189 0.0
O81 O 0.43761 0.93652 0.42227 0.0
O82 O 0.35132 0.92729 0.30418 0.0
O83 O 0.38162 0.94178 0.3646 0.0
Co84 Co 0.19075 0.18633 0.75455 0.0
O85 O 0.19015 0.1664 0.8129 0.0
O86 O 0.22139 0.18867 0.81625 0.0
C87 C 0.19323 0.16732 0.66594 0.0
O88 O 0.19554 0.20785 0.69855 0.0
Co89 Co 0.14681 0.18533 0.74888 0.0
O90 O 0.14872 0.20781 0.69209 0.0
C91 C 0.14829 0.19945 0.85216 0.0
C92 C 0.21336 0.17291 0.83703 0.0
C93 C 0.17261 0.21489 0.6769 0.0
O94 O 0.16885 0.20297 0.81472 0.0
O95 O 0.13212 0.18659 0.83742 0.0
O96 O 0.21376 0.17159 0.70169 0.0
O97 O 0.1685 0.17417 0.67936 0.0
Co98 Co 0.11361 0.08725 0.85053 0.0
O99 O 0.13764 0.09121 0.92374 0.0
O100 O 0.1222 0.11257 0.85869 0.0
C101 C 0.13762 0.0629 0.81206 0.0
O102 O 0.09012 0.08959 0.77068 0.0
Co103 Co 0.08007 0.05149 0.82459 0.0
O104 O 0.06341 0.0649 0.75197 0.0
C105 C 0.05925 0.07766 0.91945 0.0
C106 C 0.13714 0.10825 0.90809 0.0
C107 C 0.07114 0.08101 0.73909 0.0
O108 O 0.07743 0.08993 0.90294 0.0
O109 O 0.06099 0.06112 0.90186 0.0
O110 O 0.14676 0.07918 0.79989 0.0
O111 O 0.11598 0.06197 0.84908 0.0
Co112 Co 0.68688 0.8161 0.74772 0.0
O113 O 0.69052 0.83707 0.80022 0.0
O114 O 0.72075 0.81419 0.80132 0.0
C115 C 0.68202 0.83292 0.6578 0.0
O116 O 0.68731 0.79324 0.69551 0.0
Co117 Co 0.63044 0.8139 0.73617 0.0
O118 O 0.63994 0.79194 0.68195 0.0
C119 C 0.64473 0.80706 0.85258 0.0
C120 C 0.7143 0.83042 0.82075 0.0
C121 C 0.665 0.78576 0.67119 0.0
O122 O 0.66575 0.8026 0.81728 0.0
O123 O 0.62424 0.81569 0.8287 0.0
O124 O 0.706 0.82927 0.68357 0.0
O125 O 0.65937 0.82596 0.68389 0.0
Co126 Co 0.88478 0.0905 0.36062 0.0
O127 O 0.85955 0.09445 0.43106 0.0
O128 O 0.86541 0.11335 0.35056 0.0
C129 C 0.87196 0.06141 0.3448 0.0
O130 O 0.90783 0.09101 0.27856 0.0
Co131 Co 0.93291 0.06164 0.36558 0.0
O132 O 0.93672 0.0667 0.27401 0.0
C133 C 0.93996 0.09679 0.43127 0.0
C134 C 0.85307 0.10972 0.40432 0.0
C135 C 0.92574 0.08079 0.24942 0.0
O136 O 0.91654 0.1029 0.4082 0.0
O137 O 0.94893 0.0806 0.4232 0.0
O138 O 0.85695 0.07443 0.3204 0.0
O139 O 0.89289 0.06624 0.38052 0.0
Co140 Co 0.81006 0.1845 0.24818 0.0
O141 O 0.79128 0.16667 0.29829 0.0
O142 O 0.77727 0.19522 0.29082 0.0
C143 C 0.81375 0.1674 0.16034 0.0
O144 O 0.82442 0.20648 0.19737 0.0
Co145 Co 0.87236 0.17667 0.2061 0.0
O146 O 0.86899 0.20026 0.16299 0.0
C147 C 0.86159 0.19423 0.32922 0.0
C148 C 0.77286 0.17903 0.31314 0.0
C149 C 0.84757 0.21078 0.16755 0.0
O150 O 0.83479 0.19183 0.3213 0.0
O151 O 0.88041 0.18916 0.28906 0.0
O152 O 0.7903 0.17569 0.1748 0.0
O153 O 0.83345 0.16775 0.2035 0.0
Co154 Co 0.61935 0.91242 0.86825 0.0
O155 O 0.64639 0.91003 0.93707 0.0
O156 O 0.63429 0.88819 0.87046 0.0
C157 C 0.63607 0.93919 0.83146 0.0
O158 O 0.59321 0.90915 0.79165 0.0
Co159 Co 0.57621 0.94426 0.8572 0.0
O160 O 0.57025 0.93512 0.7702 0.0
C161 C 0.56372 0.91311 0.94175 0.0
C162 C 0.64925 0.89329 0.91907 0.0
C163 C 0.57695 0.9189 0.75646 0.0
O164 O 0.5871 0.90516 0.92618 0.0
O165 O 0.55639 0.92876 0.92141 0.0
O166 O 0.6486 0.92415 0.81565 0.0
O167 O 0.6155 0.9377 0.8717 0.0
Co168 Co 0.68921 0.18265 0.75213 0.0
O169 O 0.69667 0.16483 0.68748 0.0
O170 O 0.71962 0.19087 0.69738 0.0
C171 C 0.6924 0.16315 0.83893 0.0
O172 O 0.68468 0.20274 0.81259 0.0
Co173 Co 0.64876 0.17423 0.73754 0.0
O174 O 0.64022 0.19301 0.80744 0.0
C175 C 0.64849 0.19599 0.65112 0.0
C176 C 0.71683 0.17551 0.66828 0.0
C177 C 0.65865 0.20412 0.82976 0.0
O178 O 0.66564 0.19895 0.69614 0.0
O179 O 0.63714 0.18059 0.6483 0.0
O180 O 0.71327 0.16865 0.80562 0.0
O181 O 0.66713 0.16749 0.81879 0.0
Co182 Co 0.61883 0.08813 0.63008 0.0
O183 O 0.64628 0.09429 0.56678 0.0
O184 O 0.62772 0.11395 0.6342 0.0
C185 C 0.64142 0.06265 0.66488 0.0
O186 O 0.58931 0.08573 0.70091 0.0
Co187 Co 0.58852 0.0505 0.60582 0.0
O188 O 0.56664 0.0594 0.68001 0.0
C189 C 0.56677 0.08358 0.54402 0.0
C190 C 0.64476 0.11084 0.58652 0.0
C191 C 0.56945 0.07401 0.71181 0.0
O192 O 0.5859 0.09353 0.57063 0.0
O193 O 0.56641 0.06628 0.54703 0.0
O194 O 0.64925 0.07839 0.68608 0.0
O195 O 0.62329 0.06325 0.61954 0.0
Co196 Co 0.80993 0.81391 0.26787 0.0
O197 O 0.7992 0.83366 0.21234 0.0
O198 O 0.77587 0.80783 0.22002 0.0
C199 C 0.81222 0.83139 0.36032 0.0
O200 O 0.81687 0.79217 0.32126 0.0
Co201 Co 0.85095 0.82146 0.24828 0.0
O202 O 0.86138 0.80124 0.31109 0.0
C203 C 0.84169 0.80583 0.14867 0.0
C204 C 0.77748 0.82393 0.19566 0.0
C205 C 0.84326 0.79014 0.33464 0.0
O206 O 0.82944 0.79949 0.19755 0.0
O207 O 0.85361 0.82099 0.15384 0.0
O208 O 0.78962 0.82643 0.33212 0.0
O209 O 0.83612 0.8273 0.33299 0.0
Co210 Co 0.88902 0.91438 0.12561 0.0
O211 O 0.86241 0.91639 0.05787 0.0
O212 O 0.87347 0.89048 0.10362 0.0
C213 C 0.87108 0.93846 0.17978 0.0
O214 O 0.91655 0.90787 0.19695 0.0
Co215 Co 0.92838 0.94857 0.14903 0.0
O216 O 0.94577 0.93194 0.21176 0.0
C217 C 0.94272 0.92151 0.05048 0.0
C218 C 0.85855 0.89909 0.06111 0.0
C219 C 0.93831 0.91561 0.22275 0.0
O220 O 0.92188 0.91095 0.06508 0.0
O221 O 0.94551 0.9377 0.07134 0.0
O222 O 0.85968 0.92257 0.18733 0.0
O223 O 0.89085 0.93926 0.13814 0.0
Co224 Co 0.81219 0.68582 0.73139 0.0
O225 O 0.80125 0.66517 0.68386 0.0
O226 O 0.77993 0.69192 0.67795 0.0
C227 C 0.81282 0.67174 0.82622 0.0
O228 O 0.81825 0.70988 0.77789 0.0
Co229 Co 0.87215 0.68486 0.78943 0.0
O230 O 0.86059 0.70799 0.82802 0.0
C231 C 0.86564 0.69775 0.65877 0.0
C232 C 0.78019 0.6748 0.66312 0.0
C233 C 0.83778 0.71646 0.81447 0.0
O234 O 0.83916 0.69367 0.66289 0.0
O235 O 0.88327 0.69497 0.70397 0.0
O236 O 0.78948 0.67737 0.8008 0.0
O237 O 0.83531 0.67254 0.78974 0.0
Co238 Co 0.61812 0.41496 0.13617 0.0
O239 O 0.64647 0.41367 0.06962 0.0
O240 O 0.6394 0.39291 0.14405 0.0
C241 C 0.6289 0.44396 0.1604 0.0
O242 O 0.59151 0.41155 0.21295 0.0
Co243 Co 0.56947 0.44346 0.13383 0.0
O244 O 0.5661 0.43704 0.22376 0.0
C245 C 0.56658 0.41006 0.0541 0.0
C246 C 0.65377 0.39843 0.09497 0.0
C247 C 0.57409 0.42166 0.24426 0.0
O248 O 0.58925 0.40316 0.07832 0.0
O249 O 0.55691 0.42575 0.06842 0.0
O250 O 0.64325 0.43083 0.18598 0.0
O251 O 0.60937 0.43928 0.121 0.0
Co252 Co 0.67581 0.31457 0.23797 0.0
O253 O 0.67288 0.33383 0.17902 0.0
O254 O 0.70753 0.3134 0.1789 0.0
C255 C 0.67351 0.33366 0.32681 0.0
O256 O 0.68328 0.29372 0.29398 0.0
Co257 Co 0.63152 0.31299 0.24061 0.0
O258 O 0.63662 0.29054 0.29606 0.0
C259 C 0.63622 0.2999 0.1376 0.0
C260 C 0.69672 0.32809 0.15541 0.0
C261 C 0.66131 0.28507 0.31261 0.0
O262 O 0.65655 0.2968 0.17623 0.0
O263 O 0.61864 0.31205 0.15177 0.0
O264 O 0.69545 0.33092 0.29284 0.0
O265 O 0.65041 0.32527 0.31049 0.0
Co266 Co 0.87579 0.5902 0.64118 0.0
O267 O 0.84482 0.59274 0.58376 0.0
O268 O 0.8628 0.61473 0.64401 0.0
C269 C 0.86133 0.56376 0.68542 0.0
O270 O 0.90727 0.59269 0.70599 0.0
Co271 Co 0.91678 0.55746 0.62579 0.0
O272 O 0.93954 0.57051 0.69092 0.0
C273 C 0.91756 0.58643 0.53489 0.0
C274 C 0.84488 0.60968 0.60048 0.0
C275 C 0.93127 0.58509 0.71766 0.0
O276 O 0.90398 0.59689 0.57285 0.0
O277 O 0.91683 0.56922 0.54047 0.0
O278 O 0.85086 0.57904 0.70536 0.0
O279 O 0.87766 0.565 0.63659 0.0
Co280 Co 0.81036 0.30831 0.73196 0.0
O281 O 0.80046 0.32768 0.78917 0.0
O282 O 0.7808 0.30039 0.78953 0.0
C283 C 0.80403 0.32499 0.63898 0.0
O284 O 0.81655 0.28675 0.67802 0.0
Co285 Co 0.85085 0.31827 0.73754 0.0
O286 O 0.85954 0.29857 0.67137 0.0
C287 C 0.85039 0.3031 0.84035 0.0
C288 C 0.78151 0.31671 0.81207 0.0
C289 C 0.84172 0.28625 0.65529 0.0
O290 O 0.83608 0.29567 0.79628 0.0
O291 O 0.86013 0.31866 0.82985 0.0
O292 O 0.78442 0.31903 0.67482 0.0
O293 O 0.83 0.32276 0.65835 0.0
Co294 Co 0.8944 0.41166 0.86597 0.0
O295 O 0.86695 0.40887 0.93146 0.0
O296 O 0.87213 0.38959 0.8519 0.0
C297 C 0.88433 0.44131 0.84898 0.0
O298 O 0.92295 0.41183 0.79173 0.0
Co299 Co 0.94151 0.4401 0.90313 0.0
O300 O 0.94878 0.437 0.81129 0.0
C301 C 0.94517 0.40252 0.94904 0.0
C302 C 0.85885 0.39422 0.90388 0.0
C303 C 0.9428 0.42328 0.7769 0.0
O304 O 0.92331 0.39765 0.9167 0.0
O305 O 0.95387 0.41886 0.95425 0.0
O306 O 0.86923 0.42895 0.82106 0.0
O307 O 0.90216 0.43523 0.88983 0.0
Co308 Co 0.693 0.68335 0.23874 0.0
O309 O 0.71294 0.66313 0.27217 0.0
O310 O 0.72575 0.69185 0.28521 0.0
C311 C 0.68917 0.67257 0.14086 0.0
O312 O 0.67792 0.70777 0.20573 0.0
Co313 Co 0.63246 0.67986 0.20965 0.0
O314 O 0.63811 0.70051 0.15328 0.0
C315 C 0.64792 0.69438 0.33052 0.0
C316 C 0.73092 0.67475 0.29487 0.0
C317 C 0.65786 0.71163 0.16622 0.0
O318 O 0.67011 0.68496 0.31924 0.0
O319 O 0.62763 0.69457 0.2905 0.0
O320 O 0.71199 0.68045 0.16107 0.0
O321 O 0.6693 0.66884 0.18297 0.0
Co322 Co 0.61649 0.59242 0.3496 0.0
O323 O 0.63776 0.59071 0.42628 0.0
O324 O 0.63048 0.61619 0.37318 0.0
C325 C 0.63669 0.56787 0.30502 0.0
O326 O 0.59615 0.59928 0.2677 0.0
Co327 Co 0.57665 0.56094 0.30644 0.0
O328 O 0.57752 0.574 0.22471 0.0
C329 C 0.56014 0.58519 0.413 0.0
C330 C 0.64141 0.60807 0.42219 0.0
C331 C 0.58434 0.59066 0.22175 0.0
O332 O 0.58062 0.59624 0.40066 0.0
O333 O 0.55677 0.57009 0.38397 0.0
O334 O 0.64929 0.58351 0.3003 0.0
O335 O 0.61368 0.56753 0.33794 0.0
Co336 Co 0.18942 0.31704 0.25708 0.0
O337 O 0.21251 0.33479 0.29693 0.0
O338 O 0.21991 0.30533 0.30531 0.0
C339 C 0.19024 0.33037 0.16313 0.0
O340 O 0.17033 0.29493 0.21377 0.0
Co341 Co 0.13287 0.32499 0.23436 0.0
O342 O 0.13475 0.30844 0.16297 0.0
C343 C 0.14328 0.30684 0.34568 0.0
C344 C 0.22777 0.32178 0.31946 0.0
C345 C 0.15173 0.29526 0.16868 0.0
O346 O 0.16543 0.31625 0.33573 0.0
O347 O 0.12316 0.30787 0.30601 0.0
O348 O 0.20988 0.31945 0.18246 0.0
O349 O 0.17031 0.33528 0.20382 0.0
Co350 Co 0.38611 0.58895 0.87293 0.0
O351 O 0.35952 0.59579 0.9386 0.0
O352 O 0.37895 0.61455 0.86851 0.0
C353 C 0.36265 0.56381 0.83893 0.0
O354 O 0.41294 0.58774 0.7981 0.0
Co355 Co 0.41884 0.5522 0.8714 0.0
O356 O 0.43073 0.55978 0.78503 0.0
C357 C 0.44233 0.58412 0.94049 0.0
C358 C 0.36213 0.61215 0.91657 0.0
C359 C 0.42792 0.57618 0.76742 0.0
O360 O 0.42006 0.59375 0.92919 0.0
O361 O 0.44501 0.56754 0.9237 0.0
O362 O 0.3549 0.5798 0.81983 0.0
O363 O 0.3822 0.56362 0.88175 0.0
Co364 Co 0.32029 0.68819 0.76325 0.0
O365 O 0.31857 0.66826 0.82061 0.0
O366 O 0.29068 0.69216 0.82725 0.0
C367 C 0.3129 0.66923 0.67485 0.0
O368 O 0.31939 0.71002 0.70804 0.0
Co369 Co 0.36107 0.68182 0.76054 0.0
O370 O 0.36488 0.70332 0.7002 0.0
C371 C 0.36353 0.69724 0.8622 0.0
C372 C 0.29691 0.67596 0.84681 0.0
C373 C 0.34401 0.71358 0.68519 0.0
O374 O 0.34505 0.70308 0.8233 0.0
O375 O 0.37591 0.68265 0.849 0.0
O376 O 0.2939 0.67533 0.71137 0.0
O377 O 0.33877 0.67426 0.68639 0.0
Co378 Co 0.11877 0.41055 0.34894 0.0
O379 O 0.14635 0.40863 0.41681 0.0
O380 O 0.13994 0.38855 0.34007 0.0
C381 C 0.12741 0.44002 0.32758 0.0
O382 O 0.09454 0.40668 0.27052 0.0
Co383 Co 0.06682 0.4361 0.34534 0.0
O384 O 0.05934 0.42691 0.25943 0.0
C385 C 0.06728 0.40435 0.43148 0.0
C386 C 0.15296 0.39304 0.39192 0.0
C387 C 0.07361 0.41343 0.23968 0.0
O388 O 0.08989 0.39801 0.40495 0.0
O389 O 0.05627 0.41962 0.41677 0.0
O390 O 0.14351 0.4275 0.30281 0.0
O391 O 0.10732 0.43449 0.36442 0.0
Co392 Co 0.19494 0.68419 0.23363 0.0
O393 O 0.21418 0.66565 0.18515 0.0
O394 O 0.22592 0.69467 0.18503 0.0
C395 C 0.19396 0.67064 0.32544 0.0
O396 O 0.18091 0.70725 0.28277 0.0
Co397 Co 0.13601 0.68059 0.2638 0.0
O398 O 0.14169 0.69764 0.33258 0.0
C399 C 0.14905 0.6987 0.15297 0.0
C400 C 0.23065 0.67838 0.16391 0.0
C401 C 0.16156 0.70908 0.32637 0.0
O402 O 0.16917 0.68747 0.15995 0.0
O403 O 0.12867 0.69853 0.19245 0.0
O404 O 0.2165 0.67883 0.30442 0.0
O405 O 0.17268 0.66777 0.28582 0.0
Co406 Co 0.11224 0.58959 0.14609 0.0
O407 O 0.13462 0.58664 0.07212 0.0
O408 O 0.12762 0.61294 0.12045 0.0
C409 C 0.13057 0.5652 0.19551 0.0
O410 O 0.08978 0.597 0.2246 0.0
Co411 Co 0.07027 0.55828 0.18065 0.0
O412 O 0.06981 0.57144 0.2623 0.0
C413 C 0.05624 0.58426 0.07837 0.0
C414 C 0.13883 0.60394 0.07341 0.0
C415 C 0.07608 0.58819 0.2675 0.0
O416 O 0.07796 0.59403 0.09202 0.0
O417 O 0.0509 0.56904 0.10499 0.0
O418 O 0.14363 0.58068 0.1997 0.0
O419 O 0.10865 0.56482 0.15914 0.0
Co420 Co 0.30426 0.31408 0.74124 0.0
O421 O 0.28672 0.33175 0.68981 0.0
O422 O 0.27104 0.30358 0.69888 0.0
C423 C 0.30732 0.33146 0.82739 0.0
O424 O 0.31873 0.29312 0.79773 0.0
Co425 Co 0.36615 0.32262 0.76863 0.0
O426 O 0.35951 0.30485 0.83653 0.0
C427 C 0.35387 0.30644 0.64762 0.0
C428 C 0.2678 0.3198 0.67544 0.0
C429 C 0.33975 0.29302 0.8376 0.0
O430 O 0.32817 0.30586 0.66756 0.0
O431 O 0.37402 0.31346 0.68003 0.0
O432 O 0.28408 0.32314 0.81224 0.0
O433 O 0.32728 0.33165 0.784 0.0
Co434 Co 0.37591 0.4129 0.64871 0.0
O435 O 0.34873 0.40854 0.58227 0.0
O436 O 0.36207 0.38829 0.65364 0.0
C437 C 0.35738 0.44036 0.67534 0.0
O438 O 0.40288 0.41189 0.72437 0.0
Co439 Co 0.41546 0.44681 0.65407 0.0
O440 O 0.42093 0.43945 0.74289 0.0
C441 C 0.42833 0.41541 0.56751 0.0
C442 C 0.34686 0.39214 0.604 0.0
C443 C 0.41766 0.42291 0.75816 0.0
O444 O 0.40823 0.40536 0.58998 0.0
O445 O 0.43269 0.43174 0.58572 0.0
O446 O 0.34652 0.4257 0.69961 0.0
O447 O 0.37799 0.43795 0.63646 0.0
H448 H 0.20867 0.18902 0.57471 0.0
H449 H 0.20157 0.13251 0.62264 0.0
H450 H 0.23898 0.12512 0.54303 0.0
H451 H 0.23405 0.18703 0.41015 0.0
H452 H 0.25843 0.20535 0.42588 0.0
H453 H 0.22548 0.20383 0.4691 0.0
H454 H 0.25601 0.20503 0.57334 0.0
H455 H 0.28864 0.2049 0.52874 0.0
H456 H 0.28205 0.18764 0.58735 0.0
H457 H 0.27759 0.12565 0.45069 0.0
H458 H 0.30989 0.13412 0.36244 0.0
H459 H 0.3043 0.19018 0.41882 0.0
C460 C 0.21385 0.17504 0.56564 0.0
C461 C 0.20148 0.16133 0.60247 0.0
C462 C 0.20989 0.14313 0.5925 0.0
C463 C 0.23165 0.13892 0.54862 0.0
C464 C 0.24562 0.15322 0.51822 0.0
C465 C 0.23711 0.17094 0.52739 0.0
C466 C 0.25789 0.18423 0.49916 0.0
C467 C 0.24311 0.19578 0.44804 0.0
C468 C 0.27194 0.19614 0.55019 0.0
C469 C 0.27926 0.17133 0.47085 0.0
C470 C 0.27152 0.15344 0.47999 0.0
C471 C 0.28446 0.13955 0.4453 0.0
C472 C 0.30348 0.14439 0.39625 0.0
C473 C 0.30973 0.16283 0.38438 0.0
C474 C 0.30058 0.17596 0.4281 0.0
H475 H 0.13525 0.95655 0.76994 0.0
H476 H 0.1416 0.96575 0.56786 0.0
H477 H 0.15145 0.99823 0.58708 0.0
H478 H 0.09614 0.99636 0.79921 0.0
H479 H 0.11172 1.00078 0.87568 0.0
H480 H 0.10966 0.97794 0.84644 0.0
H481 H 0.16421 0.97447 0.86128 0.0
H482 H 0.16644 0.99741 0.89 0.0
H483 H 0.18802 0.99036 0.82372 0.0
H484 H 0.15774 0.03018 0.62827 0.0
H485 H 0.15371 0.05919 0.68722 0.0
H486 H 0.14008 0.0293 0.86112 0.0
C487 C 0.13947 0.96539 0.73008 0.0
C488 C 0.13835 0.95875 0.66753 0.0
C489 C 0.14277 0.97069 0.61613 0.0
C490 C 0.14851 0.9891 0.62662 0.0
C491 C 0.14928 0.99539 0.68887 0.0
C492 C 0.14449 0.98393 0.73974 0.0
C493 C 0.14284 0.99445 0.80123 0.0
C494 C 0.11334 0.99225 0.83243 0.0
C495 C 0.16682 0.98883 0.84672 0.0
C496 C 0.1473 0.01355 0.77697 0.0
C497 C 0.15154 0.01384 0.71224 0.0
C498 C 0.15477 0.03011 0.67912 0.0
C499 C 0.15272 0.04652 0.71289 0.0
C500 C 0.14699 0.0464 0.77863 0.0
C501 C 0.14493 0.02971 0.81094 0.0
H502 H 0.29204 0.8633 0.09154 0.0
H503 H 0.31633 0.80718 0.06565 0.0
H504 H 0.27533 0.80268 0.99507 0.0
H505 H 0.22205 0.86165 0.08525 0.0
H506 H 0.21369 0.87986 0.03161 0.0
H507 H 0.24645 0.88033 0.07604 0.0
H508 H 0.2768 0.88276 0.97411 0.0
H509 H 0.24413 0.88379 0.92945 0.0
H510 H 0.27071 0.86704 0.9101 0.0
H511 H 0.22093 0.80261 0.97519 0.0
H512 H 0.17728 0.80863 0.91491 0.0
H513 H 0.1996 0.86537 0.90368 0.0
C514 C 0.29018 0.85049 0.06691 0.0
C515 C 0.30644 0.83529 0.08642 0.0
C516 C 0.30369 0.81887 0.05246 0.0
C517 C 0.27994 0.81602 0.01376 0.0
C518 C 0.26156 0.83048 0.00356 0.0
C519 C 0.2683 0.84787 0.02216 0.0
C520 C 0.24636 0.86122 0.99644 0.0
C521 C 0.23126 0.87136 0.05058 0.0
C522 C 0.26033 0.87448 0.9497 0.0
C523 C 0.22589 0.84831 0.9631 0.0
C524 C 0.23406 0.83064 0.97331 0.0
C525 C 0.21571 0.81629 0.96097 0.0
C526 C 0.19051 0.81997 0.92794 0.0
C527 C 0.18675 0.83698 0.89831 0.0
C528 C 0.20274 0.85186 0.9223 0.0
H529 H 0.38235 0.04866 0.29449 0.0
H530 H 0.35603 0.04444 0.09857 0.0
H531 H 0.34307 0.01224 0.11501 0.0
H532 H 0.41564 0.00639 0.30128 0.0
H533 H 0.40534 0.00145 0.38171 0.0
H534 H 0.40899 0.02457 0.35643 0.0
H535 H 0.35714 0.03111 0.39254 0.0
H536 H 0.35336 0.00793 0.41777 0.0
H537 H 0.32838 0.01742 0.36215 0.0
H538 H 0.33665 0.97969 0.15138 0.0
H539 H 0.33975 0.94959 0.20354 0.0
H540 H 0.37083 0.97553 0.3744 0.0
C541 C 0.37315 0.041 0.25579 0.0
C542 C 0.36958 0.04888 0.19571 0.0
C543 C 0.35841 0.0385 0.14519 0.0
C544 C 0.35099 0.02027 0.15412 0.0
C545 C 0.35496 0.0127 0.21391 0.0
C546 C 0.3658 0.02276 0.26388 0.0
C547 C 0.37033 0.01109 0.32177 0.0
C548 C 0.40195 0.01086 0.34139 0.0
C549 C 0.35115 0.01726 0.3768 0.0
C550 C 0.36095 0.9929 0.29624 0.0
C551 C 0.35178 0.99405 0.23426 0.0
C552 C 0.34346 0.97867 0.20022 0.0
C553 C 0.34516 0.96166 0.23012 0.0
C554 C 0.35544 0.9603 0.29288 0.0
C555 C 0.36278 0.97618 0.32637 0.0
H556 H 0.80278 0.86173 0.43909 0.0
H557 H 0.81268 0.80353 0.44185 0.0
H558 H 0.76536 0.80037 0.49072 0.0
H559 H 0.77084 0.85613 0.61381 0.0
H560 H 0.75185 0.8772 0.60548 0.0
H561 H 0.78625 0.8744 0.56872 0.0
H562 H 0.76304 0.88367 0.4622 0.0
H563 H 0.72817 0.88498 0.49774 0.0
H564 H 0.73413 0.87031 0.43067 0.0
H565 H 0.71015 0.80525 0.49373 0.0
H566 H 0.66779 0.81182 0.55899 0.0
H567 H 0.70228 0.86465 0.60348 0.0
C568 C 0.79594 0.84838 0.45374 0.0
C569 C 0.8093 0.83264 0.42932 0.0
C570 C 0.80134 0.81569 0.45526 0.0
C571 C 0.77405 0.81367 0.4811 0.0
C572 C 0.75823 0.82928 0.49181 0.0
C573 C 0.77053 0.8462 0.48837 0.0
C574 C 0.75152 0.8602 0.52021 0.0
C575 C 0.76595 0.8674 0.58064 0.0
C576 C 0.74376 0.8757 0.47494 0.0
C577 C 0.72564 0.84855 0.53594 0.0
C578 C 0.7295 0.8311 0.51442 0.0
C579 C 0.7077 0.81835 0.51602 0.0
C580 C 0.68327 0.82249 0.5513 0.0
C581 C 0.68342 0.83793 0.59082 0.0
C582 C 0.70239 0.8523 0.57583 0.0
H583 H 0.87168 0.04466 0.22999 0.0
H584 H 0.86156 0.03504 0.43102 0.0
H585 H 0.85492 0.00223 0.41049 0.0
H586 H 0.8231 0.01014 0.16977 0.0
H587 H 0.84656 0.00376 0.10584 0.0
H588 H 0.84704 0.02661 0.13575 0.0
H589 H 0.9013 0.02406 0.15688 0.0
H590 H 0.90101 0.00128 0.12665 0.0
H591 H 0.91452 0.00575 0.20501 0.0
H592 H 0.85064 0.97004 0.36684 0.0
H593 H 0.85506 0.94137 0.30548 0.0
H594 H 0.87164 0.97249 0.13545 0.0
C595 C 0.86735 0.03563 0.26929 0.0
C596 C 0.86629 0.04222 0.33179 0.0
C597 C 0.8619 0.03009 0.38269 0.0
C598 C 0.85806 0.01151 0.37145 0.0
C599 C 0.85928 0.00531 0.3091 0.0
C600 C 0.86428 0.01701 0.259 0.0
C601 C 0.86785 0.0068 0.19745 0.0
C602 C 0.84475 0.01215 0.14939 0.0
C603 C 0.89795 0.00964 0.16992 0.0
C604 C 0.86376 0.98759 0.22049 0.0
C605 C 0.85847 0.98691 0.2848 0.0
C606 C 0.85465 0.97043 0.31636 0.0
C607 C 0.85697 0.95424 0.2813 0.0
C608 C 0.86353 0.95483 0.21597 0.0
C609 C 0.86647 0.97171 0.18542 0.0
H610 H 0.71096 0.13332 0.91095 0.0
H611 H 0.69117 0.19047 0.92329 0.0
H612 H 0.73619 0.19596 0.97868 0.0
H613 H 0.73498 0.13719 0.08903 0.0
H614 H 0.75843 0.11805 0.07967 0.0
H615 H 0.72565 0.1191 0.03553 0.0
H616 H 0.75554 0.11451 0.93321 0.0
H617 H 0.78851 0.11502 0.97695 0.0
H618 H 0.78274 0.13078 0.91304 0.0
H619 H 0.79101 0.19506 0.9948 0.0
H620 H 0.83087 0.19023 0.06789 0.0
H621 H 0.80353 0.13498 0.09734 0.0
C622 C 0.71515 0.14683 0.92854 0.0
C623 C 0.6991 0.16185 0.9068 0.0
C624 C 0.70432 0.17898 0.93469 0.0
C625 C 0.73023 0.18235 0.96499 0.0
C626 C 0.7482 0.16776 0.97572 0.0
C627 C 0.73909 0.15019 0.96704 0.0
C628 C 0.75921 0.13709 5e-05 0.0
C629 C 0.74365 0.12728 0.05431 0.0
C630 C 0.77227 0.12355 0.95296 0.0
C631 C 0.78162 0.15022 0.02509 0.0
C632 C 0.77578 0.16758 0.00506 0.0
C633 C 0.79472 0.18179 0.01493 0.0
C634 C 0.81778 0.17873 0.05541 0.0
C635 C 0.81804 0.16297 0.09334 0.0
C636 C 0.80278 0.14761 0.07137 0.0
H637 H 0.60023 0.96732 0.80868 0.0
H638 H 0.68869 0.9511 0.79206 0.0
H639 H 0.70113 0.98197 0.75409 0.0
H640 H 0.59943 0.9941 0.66577 0.0
H641 H 0.57491 0.01042 0.69838 0.0
H642 H 0.574 0.98731 0.72531 0.0
H643 H 0.58037 0.99854 0.84091 0.0
H644 H 0.58194 0.02166 0.81405 0.0
H645 H 0.61065 0.01248 0.86077 0.0
H646 H 0.70343 0.0158 0.7219 0.0
H647 H 0.69407 0.0471 0.68323 0.0
H648 H 0.60392 0.03913 0.71628 0.0
C649 C 0.62223 0.97021 0.79707 0.0
C650 C 0.64359 0.95693 0.80383 0.0
C651 C 0.67205 0.96116 0.78708 0.0
C652 C 0.67929 0.97866 0.76597 0.0
C653 C 0.65769 0.99159 0.76087 0.0
C654 C 0.62963 0.98736 0.77469 0.0
C655 C 0.60997 0.00313 0.76207 0.0
C656 C 0.58831 0.99846 0.70978 0.0
C657 C 0.59486 0.00932 0.8231 0.0
C658 C 0.63131 0.01704 0.73967 0.0
C659 C 0.65881 0.01035 0.73994 0.0
C660 C 0.68192 0.02108 0.72117 0.0
C661 C 0.6765 0.03884 0.69977 0.0
C662 C 0.64824 0.04542 0.69657 0.0
C663 C 0.62564 0.03444 0.71775 0.0
H664 H 0.79864 0.64112 0.89578 0.0
H665 H 0.82143 0.69754 0.91585 0.0
H666 H 0.77747 0.703 0.9762 0.0
H667 H 0.7274 0.64264 0.88935 0.0
H668 H 0.71797 0.625 0.94446 0.0
H669 H 0.75188 0.62434 0.9043 0.0
H670 H 0.77937 0.62336 0.01062 0.0
H671 H 0.7455 0.62258 0.05083 0.0
H672 H 0.77118 0.63979 0.07122 0.0
H673 H 0.72224 0.70298 0.99054 0.0
H674 H 0.67897 0.69748 0.05215 0.0
H675 H 0.70101 0.641 0.07002 0.0
C676 C 0.79565 0.65435 0.91686 0.0
C677 C 0.81191 0.66941 0.89538 0.0
C678 C 0.80808 0.6861 0.92722 0.0
C679 C 0.7827 0.68946 0.96029 0.0
C680 C 0.76396 0.67509 0.96948 0.0
C681 C 0.77175 0.65752 0.95598 0.0
C682 C 0.7493 0.64434 0.98093 0.0
C683 C 0.73586 0.63343 0.92651 0.0
C684 C 0.7621 0.63178 0.03145 0.0
C685 C 0.72772 0.65748 0.00937 0.0
C686 C 0.73567 0.67506 0.99644 0.0
C687 C 0.71699 0.6894 0.00599 0.0
C688 C 0.69168 0.68595 0.03912 0.0
C689 C 0.68827 0.66939 0.07201 0.0
C690 C 0.70409 0.65427 0.04943 0.0
H691 H 0.64651 0.53513 0.35622 0.0
H692 H 0.64318 0.56378 0.17754 0.0
H693 H 0.64475 0.53449 0.1201 0.0
H694 H 0.69441 0.4973 0.30109 0.0
H695 H 0.67572 0.48104 0.34941 0.0
H696 H 0.67849 0.50426 0.37497 0.0
H697 H 0.62354 0.50575 0.38489 0.0
H698 H 0.6205 0.48272 0.35804 0.0
H699 H 0.60177 0.50048 0.31698 0.0
H700 H 0.63774 0.50258 0.08458 0.0
H701 H 0.6296 0.46981 0.07075 0.0
H702 H 0.64116 0.46144 0.27232 0.0
C703 C 0.64742 0.53518 0.30492 0.0
C704 C 0.64548 0.55155 0.27083 0.0
C705 C 0.64562 0.55132 0.204 0.0
C706 C 0.64622 0.53476 0.17125 0.0
C707 C 0.64724 0.51875 0.20638 0.0
C708 C 0.64857 0.51883 0.27175 0.0
C709 C 0.64783 0.49977 0.29843 0.0
C710 C 0.67578 0.49533 0.333 0.0
C711 C 0.62186 0.49703 0.34213 0.0
C712 C 0.64498 0.48892 0.23789 0.0
C713 C 0.64447 0.50019 0.18546 0.0
C714 C 0.63901 0.49359 0.12493 0.0
C715 C 0.63428 0.47501 0.11763 0.0
C716 C 0.63544 0.4632 0.17031 0.0
C717 C 0.64108 0.47019 0.23116 0.0
H718 H 0.70593 0.36238 0.37006 0.0
H719 H 0.65437 0.31695 0.43162 0.0
H720 H 0.68998 0.30994 0.51331 0.0
H721 H 0.7687 0.34856 0.38253 0.0
H722 H 0.78769 0.36607 0.4245 0.0
H723 H 0.75587 0.37158 0.38105 0.0
H724 H 0.73144 0.38488 0.4805 0.0
H725 H 0.76404 0.38085 0.5234 0.0
H726 H 0.7308 0.3719 0.55281 0.0
H727 H 0.74186 0.2986 0.52173 0.0
H728 H 0.78956 0.29655 0.56874 0.0
H729 H 0.79905 0.35478 0.55413 0.0
C730 C 0.70086 0.35196 0.40432 0.0
C731 C 0.67853 0.3394 0.39241 0.0
C732 C 0.67198 0.32624 0.43857 0.0
C733 C 0.69235 0.3219 0.48419 0.0
C734 C 0.71708 0.33222 0.48615 0.0
C735 C 0.71976 0.3484 0.45438 0.0
C736 C 0.74817 0.35738 0.47076 0.0
C737 C 0.76614 0.36111 0.41113 0.0
C738 C 0.74332 0.37478 0.5092 0.0
C739 C 0.76167 0.34264 0.51104 0.0
C740 C 0.74403 0.32773 0.51363 0.0
C741 C 0.75463 0.31068 0.52806 0.0
C742 C 0.78223 0.30963 0.5522 0.0
C743 C 0.79623 0.32569 0.57176 0.0
C744 C 0.78762 0.34234 0.54451 0.0
H745 H 0.8417 0.46022 0.78678 0.0
H746 H 0.92535 0.46616 0.87267 0.0
H747 H 0.9254 0.49836 0.84708 0.0
H748 H 0.85112 0.49103 0.65841 0.0
H749 H 0.81601 0.50086 0.66341 0.0
H750 H 0.82177 0.47796 0.68953 0.0
H751 H 0.80058 0.4863 0.79913 0.0
H752 H 0.79533 0.50937 0.77372 0.0
H753 H 0.81594 0.50467 0.84377 0.0
H754 H 0.91705 0.52945 0.81679 0.0
H755 H 0.90278 0.55815 0.76762 0.0
H756 H 0.8262 0.53364 0.69441 0.0
C757 C 0.85996 0.46837 0.80002 0.0
C758 C 0.88356 0.46063 0.83181 0.0
C759 C 0.907 0.47168 0.84867 0.0
C760 C 0.90721 0.49008 0.83461 0.0
C761 C 0.88355 0.49738 0.80466 0.0
C762 C 0.86037 0.48702 0.787 0.0
C763 C 0.83801 0.49867 0.75447 0.0
C764 C 0.83137 0.49171 0.68745 0.0
C765 C 0.81085 0.49981 0.79517 0.0
C766 C 0.85329 0.51681 0.75308 0.0
C767 C 0.87902 0.51571 0.78469 0.0
C768 C 0.89703 0.53048 0.79158 0.0
C769 C 0.88898 0.54671 0.76345 0.0
C770 C 0.86399 0.54799 0.72707 0.0
C771 C 0.84542 0.53298 0.72266 0.0
H772 H 0.30159 0.31082 0.92635 0.0
H773 H 0.31003 0.36685 0.87239 0.0
H774 H 0.2761 0.37548 0.95768 0.0
H775 H 0.23176 0.31731 0.89932 0.0
H776 H 0.21919 0.29951 0.9506 0.0
H777 H 0.25388 0.29786 0.91467 0.0
H778 H 0.2791 0.29488 0.02387 0.0
H779 H 0.24423 0.29457 0.05936 0.0
H780 H 0.27042 0.31073 0.08602 0.0
H781 H 0.23723 0.37528 0.05629 0.0
H782 H 0.19953 0.36667 0.13376 0.0
H783 H 0.20016 0.31218 0.0596 0.0
C784 C 0.29814 0.32507 0.9358 0.0
C785 C 0.30878 0.33809 0.89316 0.0
C786 C 0.30261 0.35657 0.90508 0.0
C787 C 0.28261 0.36151 0.95242 0.0
C788 C 0.2681 0.34769 0.98462 0.0
C789 C 0.27517 0.32975 0.97426 0.0
C790 C 0.25139 0.31717 0.99377 0.0
C791 C 0.23831 0.30739 0.93617 0.0
C792 C 0.26191 0.30355 0.04375 0.0
C793 C 0.23057 0.33058 0.0212 0.0
C794 C 0.2409 0.34809 0.01891 0.0
C795 C 0.22827 0.36177 0.0555 0.0
C796 C 0.20625 0.35694 0.09835 0.0
C797 C 0.19634 0.33882 0.10139 0.0
C798 C 0.20647 0.32628 0.05649 0.0
H799 H 0.35338 0.45646 0.79347 0.0
H800 H 0.34616 0.46678 0.59217 0.0
H801 H 0.34247 0.49956 0.61281 0.0
H802 H 0.30601 0.49434 0.84798 0.0
H803 H 0.32849 0.49948 0.91482 0.0
H804 H 0.32622 0.47659 0.88552 0.0
H805 H 0.38112 0.47577 0.87218 0.0
H806 H 0.38352 0.49863 0.90121 0.0
H807 H 0.39843 0.49292 0.82503 0.0
H808 H 0.34301 0.53139 0.65399 0.0
H809 H 0.34984 0.56003 0.71318 0.0
H810 H 0.35966 0.52957 0.88726 0.0
C811 C 0.34973 0.46561 0.75427 0.0
C812 C 0.34896 0.45909 0.69137 0.0
C813 C 0.34589 0.47152 0.64078 0.0
C814 C 0.34391 0.49017 0.652 0.0
C815 C 0.34527 0.49629 0.71428 0.0
C816 C 0.34811 0.48443 0.76469 0.0
C817 C 0.35175 0.49477 0.82637 0.0
C818 C 0.32662 0.49107 0.87133 0.0
C819 C 0.38041 0.49025 0.85802 0.0
C820 C 0.35117 0.51416 0.80247 0.0
C821 C 0.34688 0.51474 0.73781 0.0
C822 C 0.34603 0.53112 0.7048 0.0
C823 C 0.34978 0.54732 0.73877 0.0
C824 C 0.35493 0.547 0.80478 0.0
C825 C 0.3555 0.53019 0.83685 0.0
H826 H 0.20766 0.69295 0.41515 0.0
H827 H 0.18966 0.63647 0.38094 0.0
H828 H 0.22122 0.62825 0.47121 0.0
H829 H 0.277 0.68353 0.41009 0.0
H830 H 0.2884 0.70173 0.46107 0.0
H831 H 0.25627 0.70401 0.41543 0.0
H832 H 0.22568 0.70997 0.51592 0.0
H833 H 0.25813 0.70943 0.56116 0.0
H834 H 0.22878 0.6949 0.58273 0.0
H835 H 0.25964 0.62772 0.56456 0.0
H836 H 0.29779 0.63462 0.64264 0.0
H837 H 0.30037 0.69001 0.5775 0.0
C838 C 0.20826 0.67893 0.43006 0.0
C839 C 0.19536 0.66544 0.39258 0.0
C840 C 0.19856 0.64708 0.41031 0.0
C841 C 0.21707 0.64234 0.46059 0.0
C842 C 0.23281 0.65611 0.49011 0.0
C843 C 0.22859 0.67406 0.47438 0.0
C844 C 0.25227 0.6861 0.49813 0.0
C845 C 0.26947 0.69432 0.44289 0.0
C846 C 0.24051 0.70096 0.54215 0.0
C847 C 0.26987 0.67245 0.53339 0.0
C848 C 0.25828 0.65523 0.52973 0.0
C849 C 0.26933 0.64102 0.56579 0.0
C850 C 0.29146 0.64491 0.60896 0.0
C851 C 0.30292 0.66263 0.61347 0.0
C852 C 0.29307 0.67615 0.57235 0.0
H853 H 0.14471 0.45895 0.22156 0.0
H854 H 0.12109 0.46521 0.41899 0.0
H855 H 0.12673 0.4983 0.41018 0.0
H856 H 0.19566 0.49743 0.21198 0.0
H857 H 0.18362 0.50409 0.13438 0.0
H858 H 0.1821 0.48063 0.15776 0.0
H859 H 0.128 0.47975 0.13261 0.0
H860 H 0.12956 0.50306 0.10838 0.0
H861 H 0.10471 0.49618 0.16894 0.0
H862 H 0.13168 0.53078 0.37898 0.0
H863 H 0.12974 0.56034 0.32336 0.0
H864 H 0.14685 0.53331 0.14531 0.0
C865 C 0.14149 0.46732 0.26312 0.0
C866 C 0.13298 0.45959 0.3212 0.0
C867 C 0.12788 0.47092 0.37417 0.0
C868 C 0.1312 0.48971 0.36979 0.0
C869 C 0.13935 0.49703 0.31183 0.0
C870 C 0.14408 0.48623 0.25914 0.0
C871 C 0.14919 0.49771 0.20075 0.0
C872 C 0.17945 0.49479 0.1747 0.0
C873 C 0.12651 0.49395 0.1497 0.0
C874 C 0.14594 0.51651 0.22865 0.0
C875 C 0.14102 0.51586 0.29313 0.0
C876 C 0.13597 0.53151 0.32866 0.0
C877 C 0.13513 0.54822 0.29701 0.0
C878 C 0.13881 0.54895 0.23069 0.0
C879 C 0.14472 0.533 0.19641 0.0
H880 H 0.17375 0.10321 0.00804 0.0
H881 H 0.13712 0.14479 0.88784 0.0
H882 H 0.1649 0.16808 0.94455 0.0
H883 H 0.17473 0.13046 0.15252 0.0
H884 H 0.20801 0.12106 0.17959 0.0
H885 H 0.18445 0.10762 0.13132 0.0
H886 H 0.22513 0.10226 0.04976 0.0
H887 H 0.2486 0.11527 0.0997 0.0
H888 H 0.2438 0.12152 0.01839 0.0
H889 H 0.19888 0.18679 0.01062 0.0
H890 H 0.2359 0.19917 0.08297 0.0
H891 H 0.2493 0.14532 0.15916 0.0
C892 C 0.17142 0.11722 0.99393 0.0
C893 C 0.15322 0.12218 0.94364 0.0
C894 C 0.15089 0.14067 0.92637 0.0
C895 C 0.16654 0.15402 0.95832 0.0
C896 C 0.18446 0.14869 0.00736 0.0
C897 C 0.18689 0.13073 0.0253 0.0
C898 C 0.20782 0.12855 0.07926 0.0
C899 C 0.19283 0.12152 0.13921 0.0
C900 C 0.23279 0.11615 0.06065 0.0
C901 C 0.21736 0.14799 0.08732 0.0
C902 C 0.20354 0.15947 0.04597 0.0
C903 C 0.20958 0.17799 0.04393 0.0
C904 C 0.23049 0.18492 0.08515 0.0
C905 C 0.24528 0.17321 0.12654 0.0
C906 C 0.23824 0.15461 0.12804 0.0
H907 H 0.2584 0.8569 0.32291 0.0
H908 H 0.24604 0.80288 0.39843 0.0
H909 H 0.20863 0.81467 0.47057 0.0
H910 H 0.25584 0.88069 0.44445 0.0
H911 H 0.23266 0.89954 0.4268 0.0
H912 H 0.25189 0.88821 0.36458 0.0
H913 H 0.20941 0.8786 0.30019 0.0
H914 H 0.18791 0.89236 0.35218 0.0
H915 H 0.17852 0.86902 0.33834 0.0
H916 H 0.17887 0.83312 0.54453 0.0
H917 H 0.15368 0.85627 0.60742 0.0
H918 H 0.18444 0.89808 0.47989 0.0
C919 C 0.2475 0.84752 0.35409 0.0
C920 C 0.25538 0.82915 0.35684 0.0
C921 C 0.24033 0.81708 0.39656 0.0
C922 C 0.21902 0.82361 0.43716 0.0
C923 C 0.21271 0.84205 0.43554 0.0
C924 C 0.22566 0.85368 0.39312 0.0
C925 C 0.21532 0.87291 0.4012 0.0
C926 C 0.24034 0.88615 0.41 0.0
C927 C 0.19667 0.87855 0.34464 0.0
C928 C 0.19741 0.87069 0.46031 0.0
C929 C 0.19535 0.85269 0.47788 0.0
C930 C 0.18001 0.84723 0.53094 0.0
C931 C 0.16603 0.8605 0.56663 0.0
C932 C 0.16738 0.87896 0.54875 0.0
C933 C 0.18327 0.88408 0.49491 0.0
H934 H 0.31889 0.90184 0.51537 0.0
H935 H 0.34234 0.86154 0.37457 0.0
H936 H 0.31271 0.83892 0.42974 0.0
H937 H 0.31805 0.86853 0.64753 0.0
H938 H 0.2891 0.8796 0.68806 0.0
H939 H 0.31379 0.89273 0.64137 0.0
H940 H 0.27171 0.90565 0.57002 0.0
H941 H 0.24936 0.89411 0.62627 0.0
H942 H 0.24494 0.88979 0.54372 0.0
H943 H 0.28143 0.82067 0.49925 0.0
H944 H 0.24421 0.80894 0.5719 0.0
H945 H 0.23868 0.86154 0.66219 0.0
C946 C 0.31771 0.88827 0.49609 0.0
C947 C 0.33285 0.8834 0.44078 0.0
C948 C 0.33097 0.86551 0.41704 0.0
C949 C 0.3143 0.85256 0.44799 0.0
C950 C 0.29974 0.85777 0.5024 0.0
C951 C 0.30111 0.87519 0.52633 0.0
C952 C 0.28301 0.87715 0.58546 0.0
C953 C 0.30213 0.87965 0.64404 0.0
C954 C 0.26104 0.89258 0.58075 0.0
C955 C 0.26897 0.85876 0.58629 0.0
C956 C 0.28014 0.84748 0.54032 0.0
C957 C 0.27203 0.82943 0.53468 0.0
C958 C 0.25108 0.8229 0.57591 0.0
C959 C 0.23844 0.83455 0.62084 0.0
C960 C 0.24758 0.85261 0.62654 0.0
H961 H 0.26279 0.18157 0.90296 0.0
H962 H 0.20865 0.13653 0.84721 0.0
H963 H 0.24387 0.11513 0.88835 0.0
H964 H 0.33232 0.15851 0.87308 0.0
H965 H 0.3485 0.16889 0.94153 0.0
H966 H 0.32036 0.18039 0.89955 0.0
H967 H 0.29138 0.18242 0.00779 0.0
H968 H 0.3206 0.1708 0.04592 0.0
H969 H 0.28548 0.16143 0.04953 0.0
H970 H 0.28299 0.0984 0.9378 0.0
H971 H 0.32156 0.08721 0.00624 0.0
H972 H 0.35006 0.14236 0.0384 0.0
C973 C 0.25838 0.1672 0.89984 0.0
C974 C 0.23292 0.16077 0.87173 0.0
C975 C 0.22785 0.14187 0.86871 0.0
C976 C 0.24799 0.12953 0.89096 0.0
C977 C 0.27303 0.13621 0.91721 0.0
C978 C 0.27817 0.15456 0.92306 0.0
C979 C 0.30582 0.15789 0.95866 0.0
C980 C 0.32809 0.16696 0.91568 0.0
C981 C 0.30052 0.16893 0.01893 0.0
C982 C 0.31435 0.13864 0.9749 0.0
C983 C 0.29557 0.12638 0.94844 0.0
C984 C 0.29801 0.10784 0.95843 0.0
C985 C 0.31989 0.10163 -0.00234 0.0
C986 C 0.3386 0.11395 0.02786 0.0
C987 C 0.33596 0.13269 0.01592 0.0
H988 H 0.84877 0.86227 0.03378 0.0
H989 H 0.81912 0.91683 0.99304 0.0
H990 H 0.78201 0.90468 0.92455 0.0
H991 H 0.83293 0.84368 0.86993 0.0
H992 H 0.82124 0.82214 0.90071 0.0
H993 H 0.84817 0.83493 0.94206 0.0
H994 H 0.81756 0.8328 0.04178 0.0
H995 H 0.78807 0.82191 0.00168 0.0
H996 H 0.7828 0.84299 0.04261 0.0
H997 H 0.74506 0.88802 0.87266 0.0
H998 H 0.7116 0.86672 0.82526 0.0
H999 H 0.76318 0.82157 0.89087 0.0
C1000 C 0.83468 0.87158 0.00961 0.0
C1001 C 0.83705 0.89056 0.01898 0.0
C1002 C 0.81807 0.90229 0.98673 0.0
C1003 C 0.79687 0.89555 0.94717 0.0
C1004 C 0.79483 0.87695 0.93936 0.0
C1005 C 0.81335 0.86502 0.9683 0.0
C1006 C 0.80487 0.84558 0.95277 0.0
C1007 C 0.8282 0.83602 0.91404 0.0
C1008 C 0.79798 0.83513 0.01341 0.0
C1009 C 0.7781 0.84865 0.91326 0.0
C1010 C 0.77302 0.86695 0.90667 0.0
C1011 C 0.74906 0.87363 0.87616 0.0
C1012 C 0.72996 0.86132 0.84989 0.0
C1013 C 0.73465 0.84242 0.8542 0.0
C1014 C 0.75912 0.83594 0.8865 0.0
H1015 H 0.74287 0.14301 0.66646 0.0
H1016 H 0.73945 0.19463 0.56948 0.0
H1017 H 0.77545 0.18365 0.49201 0.0
H1018 H 0.82246 0.14011 0.63957 0.0
H1019 H 0.82125 0.11573 0.63884 0.0
H1020 H 0.79646 0.12834 0.68699 0.0
H1021 H 0.75644 0.11101 0.63482 0.0
H1022 H 0.77896 0.09939 0.57911 0.0
H1023 H 0.74965 0.11308 0.55185 0.0
H1024 H 0.80787 0.16588 0.42032 0.0
H1025 H 0.83892 0.14389 0.36494 0.0
H1026 H 0.82372 0.10483 0.51496 0.0
C1027 C 0.74947 0.15187 0.62825 0.0
C1028 C 0.73791 0.16936 0.62193 0.0
C1029 C 0.74784 0.18102 0.57376 0.0
C1030 C 0.76816 0.17491 0.52981 0.0
C1031 C 0.77862 0.15735 0.53623 0.0
C1032 C 0.77038 0.14624 0.58562 0.0
C1033 C 0.78678 0.12862 0.58535 0.0
C1034 C 0.80799 0.12818 0.64096 0.0
C1035 C 0.76681 0.11207 0.58761 0.0
C1036 C 0.80251 0.13051 0.523 0.0
C1037 C 0.79838 0.14745 0.49671 0.0
C1038 C 0.81123 0.15254 0.43997 0.0
C1039 C 0.8288 0.13998 0.409 0.0
C1040 C 0.83353 0.12262 0.4354 0.0
C1041 C 0.82025 0.11792 0.49325 0.0
H1042 H 0.67935 0.10616 0.48502 0.0
H1043 H 0.64651 0.14767 0.61048 0.0
H1044 H 0.67229 0.17112 0.54738 0.0
H1045 H 0.74999 0.125 0.45411 0.0
H1046 H 0.74782 0.11605 0.37552 0.0
H1047 H 0.72854 0.10515 0.43856 0.0
H1048 H 0.68394 0.10961 0.36168 0.0
H1049 H 0.70473 0.12293 0.30708 0.0
H1050 H 0.673 0.13234 0.34224 0.0
H1051 H 0.70324 0.18978 0.46863 0.0
H1052 H 0.73985 0.20071 0.392 0.0
H1053 H 0.7497 0.14596 0.32149 0.0
C1054 C 0.67752 0.12016 0.49975 0.0
C1055 C 0.66085 0.12516 0.55267 0.0
C1056 C 0.65911 0.14365 0.56993 0.0
C1057 C 0.67352 0.15698 0.53425 0.0
C1058 C 0.68934 0.15153 0.48144 0.0
C1059 C 0.6915 0.13347 0.46485 0.0
C1060 C 0.70967 0.13079 0.40655 0.0
C1061 C 0.73545 0.11847 0.41965 0.0
C1062 C 0.69175 0.12349 0.35113 0.0
C1063 C 0.71886 0.15002 0.39485 0.0
C1064 C 0.7065 0.16199 0.43704 0.0
C1065 C 0.71296 0.18048 0.43539 0.0
C1066 C 0.73372 0.18657 0.39185 0.0
C1067 C 0.74787 0.17408 0.35186 0.0
C1068 C 0.7395 0.15579 0.35218 0.0
H1069 H 0.68465 0.89992 0.02111 0.0
H1070 H 0.65641 0.85745 0.89326 0.0
H1071 H 0.68649 0.83553 0.95025 0.0
H1072 H 0.75712 0.88302 0.03701 0.0
H1073 H 0.76015 0.88948 0.11882 0.0
H1074 H 0.73719 0.90208 0.06647 0.0
H1075 H 0.69482 0.89619 0.14333 0.0
H1076 H 0.7178 0.88329 0.19462 0.0
H1077 H 0.68566 0.87321 0.16386 0.0
H1078 H 0.71195 0.81696 0.03127 0.0
H1079 H 0.74414 0.80467 0.11311 0.0
H1080 H 0.76038 0.8591 0.18167 0.0
C1081 C 0.68448 0.88594 0.00562 0.0
C1082 C 0.66779 0.88036 0.95324 0.0
C1083 C 0.66855 0.86202 0.93385 0.0
C1084 C 0.68511 0.84936 0.96655 0.0
C1085 C 0.70035 0.85507 0.01927 0.0
C1086 C 0.70079 0.87299 0.03802 0.0
C1087 C 0.72034 0.8756 0.09458 0.0
C1088 C 0.74517 0.88833 0.07827 0.0
C1089 C 0.70364 0.88248 0.15251 0.0
C1090 C 0.73061 0.85633 0.10445 0.0
C1091 C 0.71823 0.84466 0.06138 0.0
C1092 C 0.72256 0.82601 0.06401 0.0
C1093 C 0.74092 0.81915 0.11055 0.0
C1094 C 0.75569 0.831 0.15176 0.0
C1095 C 0.74999 0.84979 0.14942 0.0
H1096 H 0.659 0.64388 0.42464 0.0
H1097 H 0.65883 0.59399 0.53361 0.0
H1098 H 0.68715 0.60858 0.6162 0.0
H1099 H 0.72779 0.65674 0.45124 0.0
H1100 H 0.72102 0.68055 0.459 0.0
H1101 H 0.69683 0.66652 0.41453 0.0
H1102 H 0.6558 0.67782 0.48943 0.0
H1103 H 0.68184 0.6912 0.53135 0.0
H1104 H 0.65985 0.67521 0.57383 0.0
H1105 H 0.72132 0.62521 0.67541 0.0
H1106 H 0.7614 0.64369 0.71069 0.0
H1107 H 0.74137 0.68429 0.56883 0.0
C1108 C 0.66439 0.63626 0.46674 0.0
C1109 C 0.65674 0.6178 0.47268 0.0
C1110 C 0.66446 0.60811 0.52784 0.0
C1111 C 0.68031 0.61634 0.57552 0.0
C1112 C 0.68801 0.63437 0.56796 0.0
C1113 C 0.68023 0.64438 0.51552 0.0
C1114 C 0.69403 0.66301 0.5173 0.0
C1115 C 0.71088 0.66696 0.45675 0.0
C1116 C 0.67151 0.67769 0.52878 0.0
C1117 C 0.71349 0.66088 0.57432 0.0
C1118 C 0.70845 0.64448 0.60403 0.0
C1119 C 0.72517 0.63823 0.65351 0.0
C1120 C 0.74818 0.64871 0.67245 0.0
C1121 C 0.75455 0.66525 0.64181 0.0
C1122 C 0.73661 0.67175 0.59321 0.0
H1123 H 0.65909 0.38209 0.96981 0.0
H1124 H 0.7019 0.39264 0.17459 0.0
H1125 H 0.74526 0.36836 0.16175 0.0
H1126 H 0.67062 0.33404 0.90544 0.0
H1127 H 0.67904 0.34212 0.82706 0.0
H1128 H 0.65674 0.35548 0.87858 0.0
H1129 H 0.69121 0.38285 0.86573 0.0
H1130 H 0.71286 0.36941 0.81341 0.0
H1131 H 0.72858 0.37974 0.88223 0.0
H1132 H 0.76067 0.31882 0.02212 0.0
H1133 H 0.78364 0.3054 0.93249 0.0
H1134 H 0.73546 0.33933 0.80594 0.0
C1135 C 0.67613 0.37764 0.00057 0.0
C1136 C 0.67859 0.38835 0.07304 0.0
C1137 C 0.7035 0.38513 0.13068 0.0
C1138 C 0.72992 0.36943 0.12287 0.0
C1139 C 0.72534 0.35251 0.01334 0.0
C1140 C 0.69777 0.36098 0.97128 0.0
C1141 C 0.70206 0.35597 0.90301 0.0
C1142 C 0.67554 0.34632 0.87704 0.0
C1143 C 0.70908 0.37299 0.86385 0.0
C1144 C 0.72769 0.3432 0.90618 0.0
C1145 C 0.73809 0.33959 0.96723 0.0
C1146 C 0.75569 0.32443 0.97663 0.0
C1147 C 0.76828 0.31607 0.9246 0.0
C1148 C 0.76285 0.32243 0.86356 0.0
C1149 C 0.74124 0.33532 0.85357 0.0
H1150 H 0.75943 0.32878 0.1293 0.0
H1151 H 0.66895 0.35657 0.08822 0.0
H1152 H 0.72056 0.3942 0.00535 0.0
H1153 H 0.80712 0.37514 0.14033 0.0
H1154 H 0.83923 0.36311 0.12017 0.0
H1155 H 0.81115 0.35177 0.16314 0.0
H1156 H 0.8061 0.32619 0.07317 0.0
H1157 H 0.83805 0.33716 0.04651 0.0
H1158 H 0.80952 0.33421 0.99224 0.0
H1159 H 0.76363 0.40111 0.93915 0.0
H1160 H 0.80718 0.40632 0.87679 0.0
H1161 H 0.85172 0.36591 0.98738 0.0
C1162 C 0.7485 0.33975 0.10566 0.0
C1163 C 0.71199 0.33983 0.11189 0.0
C1164 C 0.69212 0.35726 0.08217 0.0
C1165 C 0.72517 0.38154 0.03016 0.0
C1166 C 0.75974 0.3749 0.03474 0.0
C1167 C 0.76983 0.35575 0.06967 0.0
C1168 C 0.80223 0.35569 0.06223 0.0
C1169 C 0.81572 0.36179 0.12515 0.0
C1170 C 0.81442 0.33719 0.04246 0.0
C1171 C 0.80723 0.3702 0.01079 0.0
C1172 C 0.78351 0.38103 -0.00134 0.0
C1173 C 0.78273 0.39344 0.94935 0.0
C1174 C 0.80721 0.39591 0.91299 0.0
C1175 C 0.83226 0.38611 0.92627 0.0
C1176 C 0.83235 0.37312 0.97553 0.0
H1177 H 0.74374 0.63991 0.32238 0.0
H1178 H 0.77068 0.6953 0.35745 0.0
H1179 H 0.80367 0.68428 0.4403 0.0
H1180 H 0.74072 0.6279 0.48573 0.0
H1181 H 0.75063 0.60496 0.46878 0.0
H1182 H 0.73231 0.6181 0.4097 0.0
H1183 H 0.77497 0.61006 0.33289 0.0
H1184 H 0.79288 0.59821 0.39584 0.0
H1185 H 0.8107 0.61645 0.35517 0.0
H1186 H 0.82984 0.66793 0.52537 0.0
H1187 H 0.85077 0.6465 0.60202 0.0
H1188 H 0.80326 0.60255 0.51495 0.0
C1189 C 0.7573 0.64972 0.34578 0.0
C1190 C 0.75471 0.66845 0.3339 0.0
C1191 C 0.77244 0.68089 0.36608 0.0
C1192 C 0.79116 0.6748 0.41306 0.0
C1193 C 0.79176 0.65637 0.42663 0.0
C1194 C 0.77547 0.64397 0.3936 0.0
C1195 C 0.77753 0.62523 0.42184 0.0
C1196 C 0.74857 0.6187 0.44789 0.0
C1197 C 0.78978 0.6117 0.37356 0.0
C1198 C 0.79807 0.629 0.47508 0.0
C1199 C 0.80584 0.64703 0.47748 0.0
C1200 C 0.82409 0.65376 0.52382 0.0
C1201 C 0.83558 0.64154 0.56749 0.0
C1202 C 0.82864 0.62292 0.56397 0.0
C1203 C 0.80904 0.61672 0.5184 0.0
H1204 H 0.32006 0.39565 0.49017 0.0
H1205 H 0.33561 0.3572 0.64161 0.0
H1206 H 0.31028 0.33357 0.5801 0.0
H1207 H 0.24888 0.37948 0.44305 0.0
H1208 H 0.25721 0.38473 0.36227 0.0
H1209 H 0.27389 0.39733 0.42508 0.0
H1210 H 0.32232 0.38821 0.3692 0.0
H1211 H 0.30396 0.37395 0.31326 0.0
H1212 H 0.33142 0.36456 0.36297 0.0
H1213 H 0.28426 0.31362 0.49956 0.0
H1214 H 0.25217 0.3015 0.41577 0.0
H1215 H 0.25655 0.35311 0.31858 0.0
C1216 C 0.31805 0.38229 0.51078 0.0
C1217 C 0.32991 0.37824 0.57052 0.0
C1218 C 0.32679 0.36059 0.59573 0.0
C1219 C 0.31259 0.34706 0.56116 0.0
C1220 C 0.30208 0.35131 0.50134 0.0
C1221 C 0.30429 0.36862 0.47686 0.0
C1222 C 0.29097 0.3699 0.41193 0.0
C1223 C 0.26632 0.38368 0.4107 0.0
C1224 C 0.31352 0.37442 0.36138 0.0
C1225 C 0.28022 0.35076 0.40457 0.0
C1226 C 0.28718 0.34004 0.45577 0.0
C1227 C 0.27851 0.32195 0.45941 0.0
C1228 C 0.26059 0.31509 0.41144 0.0
C1229 C 0.25176 0.32645 0.3613 0.0
C1230 C 0.26281 0.34415 0.35671 0.0
H1231 H 0.30534 0.61503 0.92295 0.0
H1232 H 0.38317 0.64305 0.9688 0.0
H1233 H 0.35533 0.66794 0.01706 0.0
H1234 H 0.23586 0.66689 0.81297 0.0
H1235 H 0.20991 0.6527 0.83336 0.0
H1236 H 0.23705 0.64508 0.79252 0.0
H1237 H 0.26233 0.61322 0.97971 0.0
H1238 H 0.23821 0.62615 0.0272 0.0
H1239 H 0.27407 0.62521 0.04603 0.0
H1240 H 0.32174 0.68464 0.07995 0.0
H1241 H 0.28339 0.69358 0.15405 0.0
H1242 H 0.22986 0.65258 0.07216 0.0
C1243 C 0.31604 0.62682 0.94212 0.0
C1244 C 0.34593 0.6273 0.94322 0.0
C1245 C 0.36009 0.64258 0.96758 0.0
C1246 C 0.34443 0.65687 0.99383 0.0
C1247 C 0.31467 0.65622 0.99078 0.0
C1248 C 0.30018 0.6421 0.96212 0.0
C1249 C 0.26581 0.64447 0.96104 0.0
C1250 C 0.23368 0.6533 0.83717 0.0
C1251 C 0.2595 0.62637 0.00438 0.0
C1252 C 0.26795 0.65857 0.01959 0.0
C1253 C 0.29453 0.66664 0.02629 0.0
C1254 C 0.30056 0.67906 0.07442 0.0
C1255 C 0.27898 0.68374 0.11724 0.0
C1256 C 0.25279 0.67453 0.11587 0.0
C1257 C 0.24815 0.66122 0.06902 0.0
H1258 H 0.24332 0.686 0.9303 0.0
H1259 H 0.29498 0.63646 0.82265 0.0
H1260 H 0.25197 0.61212 0.86065 0.0
H1261 H 0.20187 0.68067 0.02536 0.0
H1262 H 0.18727 0.66163 0.06944 0.0
H1263 H 0.16435 0.67616 0.02841 0.0
H1264 H 0.17934 0.67949 0.89647 0.0
H1265 H 0.14816 0.66892 0.9301 0.0
H1266 H 0.16779 0.6572 0.87158 0.0
H1267 H 0.20675 0.59787 0.91765 0.0
H1268 H 0.17024 0.58584 0.98792 0.0
H1269 H 0.14717 0.64034 0.04612 0.0
C1270 C 0.24619 0.67173 0.92061 0.0
C1271 C 0.27608 0.66409 0.87709 0.0
C1272 C 0.27797 0.64113 0.85331 0.0
C1273 C 0.25119 0.6261 0.87584 0.0
C1274 C 0.22228 0.63411 0.91903 0.0
C1275 C 0.21971 0.65603 0.94219 0.0
C1276 C 0.18888 0.65804 0.96547 0.0
C1277 C 0.18571 0.66973 0.02554 0.0
C1278 C 0.17019 0.66641 0.91277 0.0
C1279 C 0.18019 0.63796 0.97474 0.0
C1280 C 0.19706 0.62554 0.94101 0.0
C1281 C 0.19295 0.60705 0.94339 0.0
C1282 C 0.17239 0.6004 0.98433 0.0
C1283 C 0.15667 0.61221 0.02391 0.0
C1284 C 0.15959 0.63118 0.01706 0.0
H1285 H 0.24328 0.3525 0.67695 0.0
H1286 H 0.24028 0.30054 0.58144 0.0
H1287 H 0.20981 0.3141 0.4977 0.0
H1288 H 0.16926 0.36715 0.63313 0.0
H1289 H 0.18075 0.39038 0.62666 0.0
H1290 H 0.19775 0.37544 0.68248 0.0
H1291 H 0.24531 0.38421 0.63322 0.0
H1292 H 0.23005 0.39737 0.57006 0.0
H1293 H 0.25306 0.37845 0.55253 0.0
H1294 H 0.188 0.33461 0.41787 0.0
H1295 H 0.16462 0.3585 0.35462 0.0
H1296 H 0.18178 0.39728 0.50471 0.0
C1297 C 0.23556 0.34383 0.63923 0.0
C1298 C 0.24408 0.32553 0.635 0.0
C1299 C 0.23365 0.31453 0.5855 0.0
C1300 C 0.21672 0.3222 0.53757 0.0
C1301 C 0.21061 0.34072 0.5408 0.0
C1302 C 0.2188 0.35121 0.59162 0.0
C1303 C 0.21003 0.37081 0.58363 0.0
C1304 C 0.18813 0.37626 0.63447 0.0
C1305 C 0.23612 0.38346 0.58479 0.0
C1306 C 0.1965 0.36992 0.51872 0.0
C1307 C 0.19718 0.35246 0.49505 0.0
C1308 C 0.18661 0.34825 0.43561 0.0
C1309 C 0.17365 0.36198 0.40024 0.0
C1310 C 0.17113 0.37975 0.42502 0.0
C1311 C 0.18332 0.38383 0.48452 0.0
H1312 H 0.34317 0.19865 0.02898 0.0
H1313 H 0.3869 0.22869 0.17637 0.0
H1314 H 0.38545 0.25606 0.11013 0.0
H1315 H 0.38097 0.22409 0.8934 0.0
H1316 H 0.34972 0.22238 0.84416 0.0
H1317 H 0.3578 0.20475 0.90038 0.0
H1318 H 0.30699 0.20909 0.94842 0.0
H1319 H 0.29981 0.22719 0.89382 0.0
H1320 H 0.29678 0.23103 0.97794 0.0
H1321 H 0.37061 0.28083 0.04062 0.0
H1322 H 0.35691 0.30134 0.95497 0.0
H1323 H 0.32719 0.25576 0.84275 0.0
C1324 C 0.35348 0.21079 0.04599 0.0
C1325 C 0.36533 0.21153 0.10773 0.0
C1326 C 0.37831 0.22772 0.12884 0.0
C1327 C 0.3772 0.24341 0.09188 0.0
C1328 C 0.36393 0.24251 0.03295 0.0
C1329 C 0.35353 0.2265 0.00846 0.0
C1330 C 0.34073 0.22954 0.94292 0.0
C1331 C 0.35834 0.2196 0.89219 0.0
C1332 C 0.30921 0.22387 0.94069 0.0
C1333 C 0.34396 0.24994 0.93649 0.0
C1334 C 0.3572 0.25698 0.98962 0.0
C1335 C 0.36117 0.27543 -0.00219 0.0
C1336 C 0.35309 0.28697 0.94885 0.0
C1337 C 0.34149 0.28016 0.89146 0.0
C1338 C 0.33605 0.26137 0.88585 0.0
H1339 H 0.93301 0.89898 0.33902 0.0
H1340 H 0.99164 0.90914 0.18489 0.0
H1341 H 0.03147 0.89788 0.24916 0.0
H1342 H 0.96812 0.91531 0.45348 0.0
H1343 H 0.96251 0.89864 0.51473 0.0
H1344 H 0.93756 0.90044 0.451 0.0
H1345 H 0.94488 0.86651 0.42461 0.0
H1346 H 0.9701 0.86469 0.48883 0.0
H1347 H 0.98028 0.85804 0.40988 0.0
H1348 H 0.0656 0.89367 0.3346 0.0
H1349 H 0.0907 0.89965 0.435 0.0
H1350 H 0.01143 0.89389 0.53779 0.0
C1351 C 0.95403 0.8978 0.31821 0.0
C1352 C 0.95938 0.90461 0.25705 0.0
C1353 C 0.98721 0.90369 0.23149 0.0
C1354 C 0.00995 0.89716 0.26751 0.0
C1355 C 0.00452 0.89136 0.32909 0.0
C1356 C 0.97713 0.89129 0.35413 0.0
C1357 C 0.97797 0.88745 0.42472 0.0
C1358 C 0.96055 0.90132 0.46315 0.0
C1359 C 0.96769 0.86803 0.43779 0.0
C1360 C 0.00978 0.88893 0.43687 0.0
C1361 C 0.02481 0.88958 0.38047 0.0
C1362 C 0.05418 0.89263 0.37903 0.0
C1363 C 0.06831 0.89602 0.43624 0.0
C1364 C 0.05287 0.897 0.49354 0.0
C1365 C 0.02355 0.89276 0.4943 0.0
H1366 H 0.16058 0.74718 0.3202 0.0
H1367 H 0.16181 0.70147 0.44919 0.0
H1368 H 0.15388 0.72164 0.53887 0.0
H1369 H 0.19396 0.78099 0.42775 0.0
H1370 H 0.17032 0.79893 0.4031 0.0
H1371 H 0.17912 0.78093 0.34897 0.0
H1372 H 0.12511 0.77497 0.33416 0.0
H1373 H 0.11653 0.79249 0.3906 0.0
H1374 H 0.10341 0.7698 0.40229 0.0
H1375 H 0.14023 0.74479 0.61293 0.0
H1376 H 0.13206 0.77223 0.67585 0.0
H1377 H 0.14127 0.8052 0.50695 0.0
C1378 C 0.16035 0.74164 0.36767 0.0
C1379 C 0.16329 0.72273 0.37782 0.0
C1380 C 0.16119 0.71589 0.44035 0.0
C1381 C 0.15601 0.72723 0.49174 0.0
C1382 C 0.15228 0.74556 0.48039 0.0
C1383 C 0.15485 0.75297 0.42054 0.0
C1384 C 0.14888 0.77329 0.42335 0.0
C1385 C 0.17464 0.78418 0.39943 0.0
C1386 C 0.12189 0.77791 0.38533 0.0
C1387 C 0.14382 0.77602 0.4944 0.0
C1388 C 0.14482 0.75954 0.52517 0.0
C1389 C 0.1396 0.75784 0.58972 0.0
C1390 C 0.13457 0.77349 0.62496 0.0
C1391 C 0.13547 0.79077 0.59634 0.0
C1392 C 0.13977 0.79212 0.52978 0.0
H1393 H 0.564 0.10234 0.80042 0.0
H1394 H 0.52187 0.05387 0.72916 0.0
H1395 H 0.48079 0.06011 0.79505 0.0
H1396 H 0.545 0.09676 0.95763 0.0
H1397 H 0.53757 0.12019 0.97536 0.0
H1398 H 0.56198 0.11455 0.91274 0.0
H1399 H 0.5317 0.13382 0.83548 0.0
H1400 H 0.50668 0.13897 0.89797 0.0
H1401 H 0.49441 0.12876 0.82545 0.0
H1402 H 0.44458 0.06987 0.86623 0.0
H1403 H 0.4222 0.07615 0.96881 0.0
H1404 H 0.48812 0.11547 0.0115 0.0
C1405 C 0.54597 0.0932 0.79839 0.0
C1406 C 0.54626 0.07782 0.75799 0.0
C1407 C 0.52243 0.06595 0.75822 0.0
C1408 C 0.49851 0.06949 0.79497 0.0
C1409 C 0.49843 0.08489 0.83245 0.0
C1410 C 0.52173 0.09629 0.8366 0.0
C1411 C 0.51704 0.11017 0.88906 0.0
C1412 C 0.54187 0.1104 0.93653 0.0
C1413 C 0.51219 0.12905 0.8603 0.0
C1414 C 0.4895 0.10303 0.9183 0.0
C1415 C 0.47808 0.08956 0.88063 0.0
C1416 C 0.45315 0.08042 0.89628 0.0
C1417 C 0.44054 0.08412 0.95449 0.0
C1418 C 0.45354 0.09621 -0.00262 0.0
C1419 C 0.47768 0.10639 0.97859 0.0
H1420 H 0.30502 0.73602 0.62429 0.0
H1421 H 0.39572 0.72617 0.64742 0.0
H1422 H 0.40649 0.7514 0.57573 0.0
H1423 H 0.30776 0.74619 0.45978 0.0
H1424 H 0.28127 0.76385 0.46295 0.0
H1425 H 0.28048 0.74576 0.52001 0.0
H1426 H 0.28205 0.76937 0.611 0.0
H1427 H 0.28314 0.7874 0.55356 0.0
H1428 H 0.31049 0.7858 0.61313 0.0
H1429 H 0.40815 0.77756 0.50111 0.0
H1430 H 0.39988 0.80051 0.41752 0.0
H1431 H 0.30869 0.79277 0.43689 0.0
C1432 C 0.32711 0.73933 0.6148 0.0
C1433 C 0.34947 0.72916 0.64228 0.0
C1434 C 0.37812 0.73375 0.62754 0.0
C1435 C 0.38455 0.74816 0.58697 0.0
C1436 C 0.36216 0.75798 0.56102 0.0
C1437 C 0.334 0.75369 0.57368 0.0
C1438 C 0.31409 0.76587 0.53638 0.0
C1439 C 0.29478 0.75475 0.49215 0.0
C1440 C 0.2964 0.77782 0.58126 0.0
C1441 C 0.33551 0.77716 0.49939 0.0
C1442 C 0.36312 0.77271 0.51575 0.0
C1443 C 0.38661 0.78123 0.48801 0.0
C1444 C 0.38178 0.79433 0.441 0.0
C1445 C 0.35374 0.79841 0.42135 0.0
C1446 C 0.33035 0.78991 0.45158 0.0
H1447 H 0.48722 0.93176 0.45293 0.0
H1448 H 0.42842 0.89152 0.52587 0.0
H1449 H 0.4652 0.88184 0.60372 0.0
H1450 H 0.55487 0.90673 0.4805 0.0
H1451 H 0.57276 0.9274 0.50259 0.0
H1452 H 0.54437 0.92789 0.44508 0.0
H1453 H 0.51751 0.9518 0.5126 0.0
H1454 H 0.54566 0.95146 0.56992 0.0
H1455 H 0.50952 0.94687 0.59436 0.0
H1456 H 0.50638 0.88027 0.68386 0.0
H1457 H 0.54381 0.88869 0.76133 0.0
H1458 H 0.57285 0.93124 0.63632 0.0
C1459 C 0.48203 0.92068 0.48451 0.0
C1460 C 0.45485 0.91254 0.4839 0.0
C1461 C 0.44916 0.89796 0.52559 0.0
C1462 C 0.47 0.89234 0.56963 0.0
C1463 C 0.49636 0.90127 0.57029 0.0
C1464 C 0.50225 0.91511 0.52833 0.0
C1465 C 0.53004 0.92448 0.5431 0.0
C1466 C 0.5518 0.92143 0.48964 0.0
C1467 C 0.52538 0.94484 0.55579 0.0
C1468 C 0.53846 0.91449 0.60242 0.0
C1469 C 0.5194 0.90071 0.61647 0.0
C1470 C 0.52167 0.89075 0.67244 0.0
C1471 C 0.54307 0.89554 0.716 0.0
C1472 C 0.56132 0.91042 0.70386 0.0
C1473 C 0.55953 0.91956 0.64567 0.0
H1474 H 0.14678 0.19968 0.98377 0.0
H1475 H 0.13164 0.23215 0.81598 0.0
H1476 H 0.13002 0.25964 0.88126 0.0
H1477 H 0.09963 0.2303 0.09141 0.0
H1478 H 0.12267 0.22669 0.15847 0.0
H1479 H 0.1178 0.20897 0.10066 0.0
H1480 H 0.1721 0.2075 0.08702 0.0
H1481 H 0.17775 0.22594 0.1412 0.0
H1482 H 0.19154 0.2273 0.06155 0.0
H1483 H 0.13886 0.28335 0.9566 0.0
H1484 H 0.14725 0.30355 0.04645 0.0
H1485 H 0.15456 0.25729 0.17237 0.0
C1486 C 0.14181 0.21251 0.96168 0.0
C1487 C 0.13902 0.21393 0.89505 0.0
C1488 C 0.13341 0.2309 0.86701 0.0
C1489 C 0.13264 0.24657 0.90363 0.0
C1490 C 0.137 0.245 0.96851 0.0
C1491 C 0.1404 0.22847 -0.00182 0.0
C1492 C 0.14531 0.23117 0.06904 0.0
C1493 C 0.11984 0.22385 0.10715 0.0
C1494 C 0.17338 0.22247 0.0909 0.0
C1495 C 0.1466 0.25173 0.07284 0.0
C1496 C 0.14136 0.25922 0.01398 0.0
C1497 C 0.14225 0.27773 0.00331 0.0
C1498 C 0.14728 0.28907 0.05469 0.0
C1499 C 0.15144 0.282 0.11637 0.0
C1500 C 0.15166 0.26302 0.12563 0.0
H1501 H 0.04862 0.10297 0.01545 0.0
H1502 H 0.00842 0.06289 0.89432 0.0
H1503 H 0.96408 0.06574 0.95371 0.0
H1504 H 0.02461 0.09018 0.15367 0.0
H1505 H 0.01535 0.11171 0.18845 0.0
H1506 H 0.04148 0.11072 0.12645 0.0
H1507 H 0.01217 0.13374 0.06102 0.0
H1508 H 0.98571 0.13468 0.12309 0.0
H1509 H 0.97534 0.12906 0.04331 0.0
H1510 H 0.92979 0.06608 0.0378 0.0
H1511 H 0.90715 0.06468 0.14305 0.0
H1512 H 0.96571 0.10542 0.21236 0.0
C1513 C 0.03008 0.09538 0.0004 0.0
C1514 C 0.03215 0.0825 0.95104 0.0
C1515 C 0.00757 0.0726 0.93279 0.0
C1516 C 0.98201 0.0743 0.96565 0.0
C1517 C 0.98084 0.08631 0.01613 0.0
C1518 C 0.0039 0.09702 0.03296 0.0
C1519 C 0.99742 0.10721 0.09388 0.0
C1520 C 0.02112 0.10477 0.14352 0.0
C1521 C 0.99237 0.12737 0.07949 0.0
C1522 C 0.96963 0.09811 0.11346 0.0
C1523 C 0.95968 0.08694 0.06577 0.0
C1524 C 0.9366 0.07529 0.07471 0.0
C1525 C 0.92389 0.07451 0.13456 0.0
C1526 C 0.93433 0.08528 0.18455 0.0
C1527 C 0.95685 0.09761 0.17365 0.0
H1528 H 0.63316 0.77167 0.86234 0.0
H1529 H 0.64769 0.81964 0.9752 0.0
H1530 H 0.65502 0.80054 0.07064 0.0
H1531 H 0.59172 0.74791 0.98591 0.0
H1532 H 0.60528 0.72622 0.9608 0.0
H1533 H 0.60111 0.74421 0.90407 0.0
H1534 H 0.65435 0.74069 0.87293 0.0
H1535 H 0.65895 0.72311 0.93098 0.0
H1536 H 0.68142 0.7429 0.93301 0.0
H1537 H 0.66768 0.77467 0.14961 0.0
H1538 H 0.67291 0.74572 0.20917 0.0
H1539 H 0.641 0.71649 0.0457 0.0
C1540 C 0.63708 0.77815 0.90759 0.0
C1541 C 0.64081 0.79697 0.91168 0.0
C1542 C 0.64588 0.80513 0.97121 0.0
C1543 C 0.64986 0.79439 0.02551 0.0
C1544 C 0.64748 0.77564 0.01925 0.0
C1545 C 0.64001 0.76774 0.96212 0.0
C1546 C 0.63777 0.74747 0.9673 0.0
C1547 C 0.60715 0.74108 0.95377 0.0
C1548 C 0.65941 0.738 0.92347 0.0
C1549 C 0.64557 0.74508 0.03603 0.0
C1550 C 0.65188 0.76131 0.06529 0.0
C1551 C 0.66211 0.76193 0.12752 0.0
C1552 C 0.66526 0.7455 0.16077 0.0
C1553 C 0.65746 0.72895 0.13188 0.0
C1554 C 0.64734 0.7289 0.06905 0.0
H1555 H 0.01447 0.08668 0.7385 0.0
H1556 H 0.09183 0.09876 0.63513 0.0
H1557 H 0.06352 0.11466 0.55316 0.0
H1558 H 0.97254 0.07492 0.62438 0.0
H1559 H 0.94024 0.08593 0.65042 0.0
H1560 H 0.96717 0.08034 0.70691 0.0
H1561 H 0.9688 0.11389 0.74257 0.0
H1562 H 0.94206 0.11959 0.68454 0.0
H1563 H 0.97566 0.13142 0.6852 0.0
H1564 H 0.02736 0.12093 0.47197 0.0
H1565 H 0.98775 0.11492 0.39836 0.0
H1566 H 0.93282 0.1017 0.55581 0.0
C1567 C 0.0253 0.09304 0.69899 0.0
C1568 C 0.055 0.09126 0.69164 0.0
C1569 C 0.06893 0.09988 0.64062 0.0
C1570 C 0.05306 0.10915 0.5946 0.0
C1571 C 0.02349 0.11029 0.60203 0.0
C1572 C 0.00982 0.10277 0.65387 0.0
C1573 C 0.97775 0.10377 0.64707 0.0
C1574 C 0.96365 0.08513 0.65768 0.0
C1575 C 0.96534 0.11802 0.69253 0.0
C1576 C 0.97557 0.11012 0.57902 0.0
C1577 C 0.00211 0.1149 0.55513 0.0
C1578 C 0.00637 0.11795 0.49054 0.0
C1579 C 0.98374 0.11459 0.44892 0.0
C1580 C 0.95735 0.1083 0.47224 0.0
C1581 C 0.95262 0.10725 0.5379 0.0
H1582 H 0.83869 0.24897 0.6499 0.0
H1583 H 0.86054 0.29672 0.54086 0.0
H1584 H 0.87349 0.27747 0.44957 0.0
H1585 H 0.89756 0.22102 0.58153 0.0
H1586 H 0.87681 0.20049 0.58313 0.0
H1587 H 0.87073 0.21787 0.64167 0.0
H1588 H 0.8173 0.21914 0.61069 0.0
H1589 H 0.8232 0.20163 0.5529 0.0
H1590 H 0.80764 0.22288 0.52905 0.0
H1591 H 0.8833 0.25363 0.37037 0.0
H1592 H 0.88351 0.2266 0.30193 0.0
H1593 H 0.85381 0.19381 0.45894 0.0
C1594 C 0.84628 0.25524 0.6067 0.0
C1595 C 0.84885 0.27424 0.60203 0.0
C1596 C 0.85887 0.28214 0.54521 0.0
C1597 C 0.86633 0.27134 0.49333 0.0
C1598 C 0.86418 0.25262 0.49954 0.0
C1599 C 0.85433 0.24458 0.55453 0.0
C1600 C 0.8536 0.22411 0.54762 0.0
C1601 C 0.87599 0.21535 0.59107 0.0
C1602 C 0.82364 0.21651 0.56078 0.0
C1603 C 0.86213 0.2221 0.47852 0.0
C1604 C 0.8694 0.2387 0.45284 0.0
C1605 C 0.87803 0.24053 0.39005 0.0
C1606 C 0.8784 0.22507 0.35175 0.0
C1607 C 0.8694 0.20814 0.37579 0.0
C1608 C 0.8615 0.20656 0.44017 0.0
H1609 H 0.4235 0.92071 0.12805 0.0
H1610 H 0.47217 0.90346 0.29103 0.0
H1611 H 0.50909 0.89062 0.22075 0.0
H1612 H 0.45025 0.8805 0.01822 0.0
H1613 H 0.45004 0.89547 0.95089 0.0
H1614 H 0.4234 0.89785 0.01206 0.0
H1615 H 0.4375 0.93152 0.02618 0.0
H1616 H 0.4639 0.92922 0.96546 0.0
H1617 H 0.47415 0.93722 0.04293 0.0
H1618 H 0.54526 0.88698 0.13718 0.0
H1619 H 0.57781 0.89417 0.04849 0.0
H1620 H 0.50618 0.91335 0.93825 0.0
C1621 C 0.44142 0.91352 0.14823 0.0
C1622 C 0.44525 0.91287 0.21419 0.0
C1623 C 0.46904 0.90383 0.24017 0.0
C1624 C 0.48991 0.89636 0.20067 0.0
C1625 C 0.4863 0.89774 0.13533 0.0
C1626 C 0.46232 0.90578 0.10912 0.0
C1627 C 0.46565 0.90801 0.03823 0.0
C1628 C 0.44618 0.89466 0.00277 0.0
C1629 C 0.46001 0.92766 0.01708 0.0
C1630 C 0.49662 0.90265 0.03061 0.0
C1631 C 0.50767 0.8957 0.08624 0.0
C1632 C 0.5367 0.89188 0.0928 0.0
C1633 C 0.55507 0.89603 0.04235 0.0
C1634 C 0.54432 0.90436 0.98713 0.0
C1635 C 0.5147 0.90689 0.9802 0.0
H1636 H 0.63957 0.25015 0.32017 0.0
H1637 H 0.68926 0.29024 0.42088 0.0
H1638 H 0.68236 0.27349 0.52075 0.0
H1639 H 0.59175 0.23498 0.43956 0.0
H1640 H 0.596 0.21107 0.42513 0.0
H1641 H 0.60144 0.22703 0.3617 0.0
H1642 H 0.65168 0.21417 0.34228 0.0
H1643 H 0.64723 0.19813 0.40583 0.0
H1644 H 0.67703 0.21357 0.40619 0.0
H1645 H 0.66257 0.25599 0.60882 0.0
H1646 H 0.6542 0.2309 0.68126 0.0
H1647 H 0.63095 0.19612 0.52298 0.0
C1648 C 0.64921 0.25517 0.36335 0.0
C1649 C 0.66358 0.27202 0.36459 0.0
C1650 C 0.67698 0.2779 0.4206 0.0
C1651 C 0.67311 0.26849 0.47716 0.0
C1652 C 0.65739 0.25253 0.47553 0.0
C1653 C 0.64751 0.24512 0.41974 0.0
C1654 C 0.63615 0.22605 0.43093 0.0
C1655 C 0.60445 0.22471 0.41328 0.0
C1656 C 0.65408 0.21214 0.39417 0.0
C1657 C 0.64046 0.2243 0.50222 0.0
C1658 C 0.65138 0.24027 0.52638 0.0
C1659 C 0.65523 0.2431 0.59056 0.0
C1660 C 0.65026 0.2287 0.63124 0.0
C1661 C 0.64311 0.21128 0.6076 0.0
C1662 C 0.63676 0.20918 0.54234 0.0
H1663 H 0.46762 0.12063 0.2861 0.0
H1664 H 0.40338 0.08784 0.37717 0.0
H1665 H 0.42946 0.08981 0.47765 0.0
H1666 H 0.52134 0.10271 0.32786 0.0
H1667 H 0.54553 0.12061 0.35027 0.0
H1668 H 0.51667 0.12538 0.29757 0.0
H1669 H 0.4977 0.15045 0.37165 0.0
H1670 H 0.5274 0.14631 0.424 0.0
H1671 H 0.49147 0.14556 0.45409 0.0
H1672 H 0.46864 0.08428 0.5477 0.0
H1673 H 0.51531 0.07478 0.58748 0.0
H1674 H 0.55737 0.11082 0.45523 0.0
C1675 C 0.45803 0.1153 0.32885 0.0
C1676 C 0.43326 0.1045 0.32473 0.0
C1677 C 0.42182 0.09666 0.38011 0.0
C1678 C 0.43667 0.09767 0.43744 0.0
C1679 C 0.46273 0.1068 0.43874 0.0
C1680 C 0.47284 0.11625 0.38664 0.0
C1681 C 0.50372 0.12195 0.39684 0.0
C1682 C 0.52291 0.11733 0.33977 0.0
C1683 C 0.50516 0.14227 0.41257 0.0
C1684 C 0.51102 0.11084 0.45504 0.0
C1685 C 0.48652 0.10332 0.48081 0.0
C1686 C 0.48774 0.09062 0.52935 0.0
C1687 C 0.51442 0.08508 0.55096 0.0
C1688 C 0.53977 0.09199 0.52383 0.0
C1689 C 0.53817 0.10556 0.47698 0.0
H1690 H 0.88166 0.79144 0.06602 0.0
H1691 H 0.79129 0.79776 0.09861 0.0
H1692 H 0.78056 0.77991 0.00332 0.0
H1693 H 0.88113 0.78823 0.8886 0.0
H1694 H 0.90666 0.76998 0.88809 0.0
H1695 H 0.90767 0.78677 0.95013 0.0
H1696 H 0.90394 0.76141 0.03455 0.0
H1697 H 0.90296 0.74461 0.97288 0.0
H1698 H 0.87474 0.74557 0.03081 0.0
H1699 H 0.77908 0.75906 0.91206 0.0
H1700 H 0.78691 0.73339 0.83893 0.0
H1701 H 0.87817 0.73797 0.86946 0.0
C1702 C 0.85975 0.78961 0.05124 0.0
C1703 C 0.83711 0.79669 0.08759 0.0
C1704 C 0.8087 0.793 0.06978 0.0
C1705 C 0.80246 0.78288 0.01568 0.0
C1706 C 0.82503 0.77594 0.98071 0.0
C1707 C 0.85315 0.77884 -0.00179 0.0
C1708 C 0.87301 0.76708 0.95919 0.0
C1709 C 0.89332 0.77872 0.91911 0.0
C1710 C 0.88963 0.75389 0.00189 0.0
C1711 C 0.8516 0.75715 0.9179 0.0
C1712 C 0.8241 0.76275 0.93018 0.0
C1713 C 0.80055 0.7547 0.90113 0.0
C1714 C 0.80517 0.74019 0.85945 0.0
C1715 C 0.83308 0.73375 0.84817 0.0
C1716 C 0.85655 0.74269 0.87669 0.0
H1717 H 0.02928 0.89472 0.75824 0.0
H1718 H 0.09811 0.92302 0.85147 0.0
H1719 H 0.07576 0.91723 0.95511 0.0
H1720 H 0.97715 0.91083 0.82103 0.0
H1721 H 0.95406 0.8919 0.83822 0.0
H1722 H 0.98051 0.88986 0.77759 0.0
H1723 H 0.0022 0.86187 0.83268 0.0
H1724 H 0.97508 0.86351 0.89315 0.0
H1725 H 0.01219 0.86311 0.91493 0.0
H1726 H 0.04046 0.91924 0.03514 0.0
H1727 H 0.99619 0.92793 0.08744 0.0
H1728 H 0.94721 0.89805 0.94816 0.0
C1729 C 0.04016 0.8987 0.80127 0.0
C1730 C 0.06522 0.90916 0.79808 0.0
C1731 C 0.079 0.9148 0.85387 0.0
C1732 C 0.06656 0.91137 0.9128 0.0
C1733 C 0.04062 0.90209 0.91475 0.0
C1734 C 0.02793 0.8952 0.8606 0.0
C1735 C 0.99768 0.8889 0.87427 0.0
C1736 C 0.97611 0.89584 0.8249 0.0
C1737 C 0.99673 0.86812 0.87904 0.0
C1738 C 0.9933 0.89729 0.93906 0.0
C1739 C 0.01906 0.90341 0.96334 0.0
C1740 C 0.02041 0.91398 0.01767 0.0
C1741 C 0.99502 0.91913 0.04641 0.0
C1742 C 0.96839 0.91383 0.02095 0.0
C1743 C 0.96743 0.90209 0.96838 0.0
H1744 H 0.82286 0.75561 0.3581 0.0
H1745 H 0.88569 0.79489 0.42002 0.0
H1746 H 0.90294 0.77349 0.50103 0.0
H1747 H 0.80425 0.73793 0.50505 0.0
H1748 H 0.80209 0.7146 0.48084 0.0
H1749 H 0.79602 0.73227 0.42396 0.0
H1750 H 0.83484 0.71904 0.35209 0.0
H1751 H 0.8434 0.7014 0.40795 0.0
H1752 H 0.87075 0.7166 0.38112 0.0
H1753 H 0.91167 0.74857 0.57947 0.0
H1754 H 0.90785 0.72329 0.65539 0.0
H1755 H 0.84033 0.69972 0.54182 0.0
C1756 C 0.84032 0.75961 0.38858 0.0
C1757 C 0.85305 0.77686 0.38256 0.0
C1758 C 0.87589 0.78163 0.42322 0.0
C1759 C 0.8859 0.76956 0.46934 0.0
C1760 C 0.87329 0.75254 0.47351 0.0
C1761 C 0.85103 0.74753 0.4342 0.0
C1762 C 0.84094 0.72853 0.44958 0.0
C1763 C 0.80894 0.72833 0.46582 0.0
C1764 C 0.84784 0.71563 0.39442 0.0
C1765 C 0.85933 0.72428 0.50687 0.0
C1766 C 0.87854 0.73805 0.51851 0.0
C1767 C 0.89697 0.73757 0.57037 0.0
C1768 C 0.89484 0.72304 0.61305 0.0
C1769 C 0.87399 0.70938 0.60442 0.0
C1770 C 0.85678 0.70977 0.54927 0.0
H1771 H 0.46478 0.43923 0.80318 0.0
H1772 H 0.41588 0.38961 0.82044 0.0
H1773 H 0.45373 0.3769 0.89027 0.0
H1774 H 0.53139 0.41947 0.78493 0.0
H1775 H 0.54972 0.43674 0.82957 0.0
H1776 H 0.51746 0.44222 0.78775 0.0
H1777 H 0.49347 0.45391 0.89137 0.0
H1778 H 0.52627 0.4495 0.93239 0.0
H1779 H 0.49351 0.43963 0.96054 0.0
H1780 H 0.49614 0.37283 0.97337 0.0
H1781 H 0.53658 0.3776 0.04802 0.0
H1782 H 0.56151 0.42528 0.94334 0.0
C1783 C 0.46153 0.42574 0.82193 0.0
C1784 C 0.43709 0.41556 0.80705 0.0
C1785 C 0.43429 0.39781 0.83208 0.0
C1786 C 0.45579 0.39044 0.87125 0.0
C1787 C 0.48019 0.40082 0.88288 0.0
C1788 C 0.48296 0.41802 0.85796 0.0
C1789 C 0.51085 0.42667 0.87489 0.0
C1790 C 0.52838 0.43154 0.81573 0.0
C1791 C 0.50572 0.4434 0.91727 0.0
C1792 C 0.52424 0.4115 0.91168 0.0
C1793 C 0.50594 0.39694 0.91921 0.0
C1794 C 0.51115 0.38373 0.96545 0.0
C1795 C 0.5344 0.38632 0.00708 0.0
C1796 C 0.5524 0.40157 -0.00015 0.0
C1797 C 0.54864 0.41314 0.94796 0.0
H1798 H 0.65506 0.29789 0.01572 0.0
H1799 H 0.60392 0.27048 0.15711 0.0
H1800 H 0.60061 0.24357 0.0879 0.0
H1801 H 0.61761 0.27559 0.87294 0.0
H1802 H 0.65058 0.27473 0.8292 0.0
H1803 H 0.64397 0.29309 0.88366 0.0
H1804 H 0.69118 0.28563 0.94136 0.0
H1805 H 0.69767 0.26704 0.88833 0.0
H1806 H 0.69668 0.26318 0.97264 0.0
H1807 H 0.60816 0.21869 0.01178 0.0
H1808 H 0.62454 0.1972 0.92977 0.0
H1809 H 0.67237 0.24009 0.83824 0.0
C1810 C 0.64219 0.28646 0.03042 0.0
C1811 C 0.62913 0.28617 0.09053 0.0
C1812 C 0.61333 0.27091 0.11021 0.0
C1813 C 0.61143 0.25562 0.07138 0.0
C1814 C 0.62524 0.256 0.01294 0.0
C1815 C 0.63987 0.27111 0.99177 0.0
C1816 C 0.65472 0.26734 0.92925 0.0
C1817 C 0.6409 0.27834 0.8756 0.0
C1818 C 0.68697 0.27101 0.93323 0.0
C1819 C 0.64829 0.24735 0.92182 0.0
C1820 C 0.63044 0.24129 0.9695 0.0
C1821 C 0.62177 0.22331 0.97364 0.0
C1822 C 0.63125 0.21122 0.9272 0.0
C1823 C 0.64974 0.2171 0.87844 0.0
C1824 C 0.65846 0.23534 0.8757 0.0
H1825 H 0.96898 0.5714 0.52719 0.0
H1826 H 0.92131 0.61824 0.46393 0.0
H1827 H 0.96402 0.62869 0.40332 0.0
H1828 H 0.039 0.59261 0.54209 0.0
H1829 H 0.05649 0.57247 0.51337 0.0
H1830 H 0.02354 0.57067 0.55692 0.0
H1831 H 0.00052 0.55269 0.46421 0.0
H1832 H 0.03347 0.55403 0.42148 0.0
H1833 H 0.00111 0.56225 0.38569 0.0
H1834 H 0.00967 0.62999 0.3345 0.0
H1835 H 0.04988 0.62141 0.2645 0.0
H1836 H 0.06791 0.57546 0.38475 0.0
C1837 C 0.96738 0.58394 0.50083 0.0
C1838 C 0.94176 0.59379 0.49866 0.0
C1839 C 0.94078 0.61037 0.46518 0.0
C1840 C 0.96497 0.61643 0.43132 0.0
C1841 C 0.98992 0.60602 0.43368 0.0
C1842 C 0.99107 0.59019 0.46837 0.0
C1843 C 0.01864 0.58015 0.45931 0.0
C1844 C 0.03541 0.57892 0.52164 0.0
C1845 C 0.0131 0.56119 0.43097 0.0
C1846 C 0.03308 0.59247 0.41243 0.0
C1847 C 0.01642 0.60742 0.39791 0.0
C1848 C 0.02326 0.61871 0.34701 0.0
C1849 C 0.04635 0.61386 0.30779 0.0
C1850 C 0.062 0.59785 0.31991 0.0
C1851 C 0.0566 0.58798 0.3755 0.0
H1852 H 0.81244 0.28071 0.89574 0.0
H1853 H 0.89711 0.30312 0.92012 0.0
H1854 H 0.90376 0.28388 0.01561 0.0
H1855 H 0.79632 0.27839 0.06956 0.0
H1856 H 0.77543 0.25809 0.05974 0.0
H1857 H 0.77684 0.27467 -0.00281 0.0
H1858 H 0.79384 0.25004 0.91851 0.0
H1859 H 0.79258 0.23334 0.9803 0.0
H1860 H 0.82518 0.23692 0.93675 0.0
H1861 H 0.90292 0.25906 0.09849 0.0
H1862 H 0.89418 0.23234 0.16595 0.0
H1863 H 0.80815 0.22815 0.09274 0.0
C1864 C 0.83216 0.28189 0.92206 0.0
C1865 C 0.85429 0.29337 0.90085 0.0
C1866 C 0.87986 0.29448 0.93601 0.0
C1867 C 0.88374 0.28363 0.9902 0.0
C1868 C 0.86144 0.27229 0.00944 0.0
C1869 C 0.8359 0.27171 0.9771 0.0
C1870 C 0.81543 0.25817 0.0062 0.0
C1871 C 0.78947 0.26791 0.03488 0.0
C1872 C 0.80625 0.24377 0.95755 0.0
C1873 C 0.83408 0.2502 0.05754 0.0
C1874 C 0.86043 0.2587 0.05914 0.0
C1875 C 0.88215 0.25266 0.0987 0.0
C1876 C 0.87699 0.23746 0.13675 0.0
C1877 C 0.8503 0.22845 0.13534 0.0
C1878 C 0.82839 0.23515 0.09621 0.0
H1879 H 0.94252 0.38546 0.06189 0.0
H1880 H 0.99287 0.3915 0.89224 0.0
H1881 H 0.03643 0.3849 0.95191 0.0
H1882 H 0.97342 0.40745 0.15376 0.0
H1883 H 0.97539 0.39451 0.22607 0.0
H1884 H 0.94838 0.38939 0.16945 0.0
H1885 H 0.96528 0.3562 0.16269 0.0
H1886 H 0.99228 0.36107 0.22111 0.0
H1887 H 0.00215 0.35122 0.14613 0.0
H1888 H 0.07194 0.3931 0.03084 0.0
H1889 H 0.09618 0.40812 0.12107 0.0
H1890 H 0.02446 0.39552 0.24185 0.0
C1891 C 0.96251 0.38367 0.03701 0.0
C1892 C 0.96472 0.38884 0.97326 0.0
C1893 C 0.991 0.38723 0.94121 0.0
C1894 C 0.01591 0.38354 0.97494 0.0
C1895 C 0.01384 0.38087 0.04013 0.0
C1896 C 0.98754 0.37968 0.07049 0.0
C1897 C 0.9912 0.38012 0.14177 0.0
C1898 C 0.97095 0.39371 0.17449 0.0
C1899 C 0.98752 0.36102 0.16954 0.0
C1900 C 0.02204 0.38592 0.14568 0.0
C1901 C 0.03532 0.38519 0.08714 0.0
C1902 C 0.06228 0.39287 0.07741 0.0
C1903 C 0.07576 0.40159 0.1284 0.0
C1904 C 0.06182 0.40286 0.18742 0.0
C1905 C 0.03527 0.39448 0.19663 0.0
H1906 H 0.61837 0.70244 0.44388 0.0
H1907 H 0.68662 0.72054 0.32021 0.0
H1908 H 0.69886 0.74462 0.39539 0.0
H1909 H 0.59663 0.74728 0.49718 0.0
H1910 H 0.59006 0.7408 0.57822 0.0
H1911 H 0.58604 0.7244 0.51566 0.0
H1912 H 0.62259 0.70287 0.57107 0.0
H1913 H 0.62438 0.71926 0.63423 0.0
H1914 H 0.65653 0.7121 0.5955 0.0
H1915 H 0.70774 0.7646 0.48674 0.0
H1916 H 0.70667 0.78376 0.58248 0.0
H1917 H 0.63015 0.75621 0.64594 0.0
C1918 C 0.63562 0.71165 0.43266 0.0
C1919 C 0.65161 0.70959 0.37595 0.0
C1920 C 0.67417 0.7218 0.36319 0.0
C1921 C 0.68143 0.73549 0.40586 0.0
C1922 C 0.66607 0.73692 0.46194 0.0
C1923 C 0.64337 0.72558 0.47556 0.0
C1924 C 0.63035 0.73071 0.53947 0.0
C1925 C 0.5989 0.73614 0.53215 0.0
C1926 C 0.63365 0.71529 0.58779 0.0
C1927 C 0.64893 0.74681 0.5581 0.0
C1928 C 0.66994 0.74967 0.51341 0.0
C1929 C 0.69111 0.76271 0.5217 0.0
C1930 C 0.69046 0.77348 0.57642 0.0
C1931 C 0.66818 0.77171 0.62116 0.0
C1932 C 0.6473 0.75801 0.61213 0.0
H1933 H 0.51853 0.56311 0.45718 0.0
H1934 H 0.55604 0.61619 0.48733 0.0
H1935 H 0.52279 0.62115 0.57742 0.0
H1936 H 0.44583 0.57406 0.49799 0.0
H1937 H 0.44033 0.55253 0.53629 0.0
H1938 H 0.46507 0.55436 0.47125 0.0
H1939 H 0.50532 0.54101 0.54158 0.0
H1940 H 0.48079 0.53909 0.60673 0.0
H1941 H 0.51346 0.55166 0.61629 0.0
H1942 H 0.48573 0.61909 0.66801 0.0
H1943 H 0.45229 0.60955 0.75265 0.0
H1944 H 0.44266 0.55723 0.66202 0.0
C1945 C 0.51969 0.57597 0.4817 0.0
C1946 C 0.53977 0.58932 0.46465 0.0
C1947 C 0.54065 0.60579 0.4992 0.0
C1948 C 0.52182 0.60873 0.55028 0.0
C1949 C 0.50245 0.59505 0.56593 0.0
C1950 C 0.50153 0.57898 0.53253 0.0
C1951 C 0.4807 0.56569 0.56066 0.0
C1952 C 0.45655 0.56142 0.51376 0.0
C1953 C 0.49599 0.54835 0.58261 0.0
C1954 C 0.47002 0.57657 0.61603 0.0
C1955 C 0.48234 0.59361 0.6181 0.0
C1956 C 0.47592 0.60583 0.66639 0.0
C1957 C 0.45683 0.60033 0.71401 0.0
C1958 C 0.44493 0.58266 0.7134 0.0
C1959 C 0.45143 0.5708 0.66344 0.0
H1960 H 0.13545 0.24373 0.65805 0.0
H1961 H 0.2123 0.21884 0.5847 0.0
H1962 H 0.20941 0.23775 0.48917 0.0
H1963 H 0.0973 0.25242 0.5187 0.0
H1964 H 0.08665 0.27527 0.53725 0.0
H1965 H 0.09362 0.25943 0.60017 0.0
H1966 H 0.13088 0.28124 0.64877 0.0
H1967 H 0.12356 0.29733 0.58672 0.0
H1968 H 0.15952 0.28966 0.59997 0.0
H1969 H 0.19528 0.25614 0.39746 0.0
H1970 H 0.17959 0.27986 0.32423 0.0
H1971 H 0.11668 0.2981 0.4609 0.0
C1972 C 0.15178 0.24245 0.62201 0.0
C1973 C 0.17353 0.22916 0.62739 0.0
C1974 C 0.19498 0.22832 0.58048 0.0
C1975 C 0.1935 0.23907 0.52607 0.0
C1976 C 0.17123 0.25142 0.52077 0.0
C1977 C 0.15159 0.25394 0.56867 0.0
C1978 C 0.13191 0.26977 0.55302 0.0
C1979 C 0.1005 0.26385 0.55223 0.0
C1980 C 0.13675 0.28543 0.5999 0.0
C1981 C 0.14239 0.27479 0.48694 0.0
C1982 C 0.16496 0.26378 0.46967 0.0
C1983 C 0.17805 0.2651 0.41083 0.0
C1984 C 0.16881 0.27856 0.36933 0.0
C1985 C 0.14695 0.29079 0.38668 0.0
C1986 C 0.13317 0.28876 0.44606 0.0
H1987 H 0.53915 0.61296 0.21477 0.0
H1988 H 0.60569 0.58803 0.1034 0.0
H1989 H 0.57848 0.59388 0.00611 0.0
H1990 H 0.48744 0.59359 0.1617 0.0
H1991 H 0.46061 0.61093 0.15335 0.0
H1992 H 0.48933 0.61417 0.20781 0.0
H1993 H 0.50361 0.64407 0.15323 0.0
H1994 H 0.47412 0.64131 0.09922 0.0
H1995 H 0.50969 0.64452 0.06897 0.0
H1996 H 0.53988 0.59092 0.93349 0.0
H1997 H 0.49422 0.58095 0.88934 0.0
H1998 H 0.44908 0.60674 0.04408 0.0
C1999 C 0.54866 0.61008 0.16909 0.0
C2000 C 0.57463 0.60052 0.16566 0.0
C2001 C 0.58616 0.59583 0.10626 0.0
C2002 C 0.57078 0.59915 0.05081 0.0
C2003 C 0.54385 0.60709 0.05578 0.0
C2004 C 0.5331 0.61308 0.11331 0.0
C2005 C 0.50148 0.61743 0.1079 0.0
C2006 C 0.48371 0.60845 0.16076 0.0
C2007 C 0.49696 0.63805 0.10729 0.0
C2008 C 0.49515 0.60951 0.04312 0.0
C2009 C 0.52026 0.60487 0.01234 0.0
C2010 C 0.52021 0.59503 0.95612 0.0
C2011 C 0.49416 0.58918 0.9319 0.0
C2012 C 0.46836 0.593 0.96389 0.0
C2013 C 0.46864 0.60394 0.01866 0.0
H2014 H 0.3145 0.76647 0.12324 0.0
H2015 H 0.40283 0.78285 0.14448 0.0
H2016 H 0.41762 0.75819 0.07212 0.0
H2017 H 0.32628 0.71764 0.11305 0.0
H2018 H 0.29768 0.7159 0.05583 0.0
H2019 H 0.29706 0.73348 0.11455 0.0
H2020 H 0.29138 0.75618 0.02039 0.0
H2021 H 0.29419 0.73802 0.96398 0.0
H2022 H 0.31848 0.7569 0.95976 0.0
H2023 H 0.42213 0.73204 0.99288 0.0
H2024 H 0.41521 0.70881 0.90884 0.0
H2025 H 0.32409 0.71034 0.94179 0.0
C2026 C 0.33701 0.76478 0.11342 0.0
C2027 C 0.3575 0.77643 0.14013 0.0
C2028 C 0.38672 0.77393 0.12504 0.0
C2029 C 0.39535 0.75995 0.0841 0.0
C2030 C 0.37449 0.74859 0.05885 0.0
C2031 C 0.34592 0.75102 0.07271 0.0
C2032 C 0.32739 0.73784 0.03703 0.0
C2033 C 0.31121 0.72545 0.08299 0.0
C2034 C 0.30667 0.74784 0.99265 0.0
C2035 C 0.34988 0.7276 0.00034 0.0
C2036 C 0.37702 0.73382 0.01373 0.0
C2037 C 0.40102 0.72691 0.98264 0.0
C2038 C 0.39699 0.71366 0.93547 0.0
C2039 C 0.3692 0.7078 0.91978 0.0
C2040 C 0.34558 0.71455 0.95365 0.0
H2041 H 0.02147 0.38293 0.47033 0.0
H2042 H 0.09452 0.41381 0.53478 0.0
H2043 H 0.06999 0.42023 0.63462 0.0
H2044 H 0.96807 0.40309 0.52092 0.0
H2045 H 0.94637 0.38644 0.56083 0.0
H2046 H 0.97149 0.37939 0.50136 0.0
H2047 H 0.99657 0.35782 0.5795 0.0
H2048 H 0.9705 0.36393 0.63873 0.0
H2049 H 0.00798 0.36621 0.6555 0.0
H2050 H 0.03155 0.4345 0.69115 0.0
H2051 H 0.99036 0.44291 0.75292 0.0
H2052 H 0.94406 0.39595 0.68142 0.0
C2053 C 0.0331 0.3897 0.50774 0.0
C2054 C 0.05976 0.39805 0.49509 0.0
C2055 C 0.07428 0.40721 0.54405 0.0
C2056 C 0.06038 0.4111 0.60068 0.0
C2057 C 0.033 0.40433 0.60943 0.0
C2058 C 0.02047 0.39235 0.56776 0.0
C2059 C 0.99085 0.38704 0.59193 0.0
C2060 C 0.96784 0.38915 0.54066 0.0
C2061 C 0.9915 0.3676 0.61794 0.0
C2062 C 0.98702 0.40059 0.6459 0.0
C2063 C 0.01188 0.41037 0.6539 0.0
C2064 C 0.01281 0.42595 0.69015 0.0
C2065 C 0.98877 0.43072 0.72459 0.0
C2066 C 0.96406 0.41953 0.72573 0.0
C2067 C 0.96286 0.40442 0.68397 0.0
H2068 H 0.10892 0.72291 0.09739 0.0
H2069 H 0.19753 0.70558 0.09092 0.0
H2070 H 0.20647 0.72488 0.00149 0.0
H2071 H 0.09904 0.7292 0.92648 0.0
H2072 H 0.07953 0.75014 0.93316 0.0
H2073 H 0.07777 0.73365 0.99598 0.0
H2074 H 0.09453 0.75782 0.07655 0.0
H2075 H 0.0962 0.7744 0.01407 0.0
H2076 H 0.1272 0.77001 0.06207 0.0
H2077 H 0.20793 0.74473 0.91401 0.0
H2078 H 0.20298 0.76874 0.83551 0.0
H2079 H 0.11522 0.77743 0.89574 0.0
C2080 C 0.13002 0.72312 0.07653 0.0
C2081 C 0.15207 0.71177 0.09983 0.0
C2082 C 0.17969 0.71315 0.07269 0.0
C2083 C 0.18526 0.72429 0.0216 0.0
C2084 C 0.16328 0.73475 -0.00155 0.0
C2085 C 0.13634 0.73478 0.02517 0.0
C2086 C 0.11781 0.74887 0.99213 0.0
C2087 C 0.092 0.73992 0.96003 0.0
C2088 C 0.10838 0.76365 0.039 0.0
C2089 C 0.13879 0.7563 0.94316 0.0
C2090 C 0.16468 0.74764 0.94801 0.0
C2091 C 0.1878 0.75176 0.90943 0.0
C2092 C 0.18473 0.76545 0.86479 0.0
C2093 C 0.15877 0.77504 0.8592 0.0
C2094 C 0.1353 0.77026 0.89856 0.0
H2095 H 0.93833 0.56708 0.82615 0.0
H2096 H 0.96162 0.61678 0.73082 0.0
H2097 H 0.99343 0.62472 0.82132 0.0
H2098 H 0.93948 0.58499 0.99085 0.0
H2099 H 0.95315 0.5637 0.01933 0.0
H2100 H 0.92969 0.56417 0.9518 0.0
H2101 H 0.96765 0.54661 0.88657 0.0
H2102 H 0.99153 0.54649 0.95291 0.0
H2103 H 0.00299 0.55596 0.87844 0.0
H2104 H 0.02802 0.62396 0.91681 0.0
H2105 H 0.05941 0.61555 0.00649 0.0
H2106 H 0.00913 0.5669 0.03611 0.0
C2107 C 0.94925 0.57992 0.82492 0.0
C2108 C 0.94754 0.59139 0.7723 0.0
C2109 C 0.96272 0.60793 0.77163 0.0
C2110 C 0.98066 0.61252 0.8227 0.0
C2111 C 0.98228 0.60055 0.87389 0.0
C2112 C 0.96642 0.58477 0.8754 0.0
C2113 C 0.97327 0.57319 0.93182 0.0
C2114 C 0.94735 0.57142 0.97607 0.0
C2115 C 0.98453 0.55447 0.91117 0.0
C2116 C 0.99631 0.58448 0.96129 0.0
C2117 C 0.00132 0.6003 0.92799 0.0
C2118 C 0.02378 0.61182 0.94392 0.0
C2119 C 0.04154 0.60689 0.99471 0.0
C2120 C 0.03666 0.59055 0.02841 0.0
C2121 C 0.01338 0.57954 0.01191 0.0
H2122 H 0.36976 0.27142 0.63543 0.0
H2123 H 0.34733 0.31883 0.52629 0.0
H2124 H 0.33835 0.29958 0.43246 0.0
H2125 H 0.40535 0.2466 0.50085 0.0
H2126 H 0.39261 0.22512 0.52989 0.0
H2127 H 0.40028 0.24319 0.58466 0.0
H2128 H 0.3491 0.24027 0.62961 0.0
H2129 H 0.34085 0.22268 0.57355 0.0
H2130 H 0.31904 0.24274 0.57715 0.0
H2131 H 0.32536 0.27417 0.3548 0.0
H2132 H 0.31826 0.24561 0.29458 0.0
H2133 H 0.35122 0.2152 0.45413 0.0
C2134 C 0.36436 0.27781 0.59085 0.0
C2135 C 0.35944 0.29663 0.58789 0.0
C2136 C 0.35123 0.30446 0.52953 0.0
C2137 C 0.34601 0.29359 0.47601 0.0
C2138 C 0.34951 0.2749 0.48145 0.0
C2139 C 0.3594 0.26715 0.53692 0.0
C2140 C 0.36062 0.24672 0.53139 0.0
C2141 C 0.39155 0.24001 0.537 0.0
C2142 C 0.34124 0.23758 0.58086 0.0
C2143 C 0.34918 0.24412 0.46485 0.0
C2144 C 0.34271 0.26049 0.43673 0.0
C2145 C 0.33081 0.26131 0.37606 0.0
C2146 C 0.32649 0.24503 0.34245 0.0
C2147 C 0.33426 0.22821 0.36947 0.0
C2148 C 0.34526 0.22787 0.43192 0.0
H2149 H 0.45123 0.43682 0.48085 0.0
H2150 H 0.44972 0.38052 0.5381 0.0
H2151 H 0.48956 0.37421 0.46194 0.0
H2152 H 0.47298 0.43353 0.32071 0.0
H2153 H 0.49528 0.45327 0.32903 0.0
H2154 H 0.46388 0.45092 0.37718 0.0
H2155 H 0.49551 0.45515 0.4775 0.0
H2156 H 0.52725 0.45658 0.42988 0.0
H2157 H 0.52465 0.43977 0.49148 0.0
H2158 H 0.53161 0.37625 0.37043 0.0
H2159 H 0.56724 0.3861 0.28941 0.0
H2160 H 0.54489 0.44201 0.32685 0.0
C2161 C 0.45887 0.42301 0.47757 0.0
C2162 C 0.44745 0.40924 0.51574 0.0
C2163 C 0.45802 0.39133 0.50879 0.0
C2164 C 0.48084 0.38772 0.46611 0.0
C2165 C 0.49294 0.40225 0.43249 0.0
C2166 C 0.48205 0.41952 0.43923 0.0
C2167 C 0.49957 0.43361 0.40633 0.0
C2168 C 0.48188 0.44339 0.3553 0.0
C2169 C 0.51251 0.44706 0.45414 0.0
C2170 C 0.52204 0.42182 0.37755 0.0
C2171 C 0.51802 0.40366 0.39088 0.0
C2172 C 0.53503 0.39051 0.36133 0.0
C2173 C 0.55545 0.39621 0.31577 0.0
C2174 C 0.55893 0.4149 0.30157 0.0
C2175 C 0.54297 0.42763 0.33604 0.0
loop_
_geom_bond_atom_site_label_1
_geom_bond_atom_site_label_2
_geom_bond_distance
_geom_bond_site_symmetry_2
_ccdc_geom_bond_type
Co0 O1 2.216 . S
Co0 O2 2.091 . S
Co0 O4 2.004 . S
Co0 O10 2.021 . S
Co0 O12 2.137 . S
Co0 O13 2.244 . S
O1 Co0 2.216 . S
O1 C8 1.247 . S
O2 Co0 2.091 . S
O2 C8 1.261 . S
C3 O12 1.247 . S
C3 O13 1.272 . S
O4 Co0 2.004 . S
O4 C9 1.259 . S
Co5 O6 2.061 . S
Co5 O11 2.052 . S
Co5 O13 2.135 . S
O6 Co5 2.061 . S
O6 C9 1.235 . S
C7 O10 1.238 . S
C7 O11 1.241 . S
C8 O1 1.247 . S
C8 O2 1.261 . S
C9 O4 1.259 . S
C9 O6 1.235 . S
O10 Co0 2.021 . S
O10 C7 1.238 . S
O11 Co5 2.052 . S
O11 C7 1.241 . S
O12 Co0 2.137 . S
O12 C3 1.247 . S
O13 Co0 2.244 . S
O13 C3 1.272 . S
O13 Co5 2.135 . S
Co14 O15 2.216 . S
Co14 O16 2.091 . S
Co14 O18 2.004 . S
Co14 O24 2.021 . S
Co14 O26 2.137 . S
Co14 O27 2.244 . S
O15 Co14 2.216 . S
O15 C22 1.247 . S
O16 Co14 2.091 . S
O16 C22 1.261 . S
C17 O26 1.247 . S
C17 O27 1.272 . S
O18 Co14 2.004 . S
O18 C23 1.259 . S
Co19 O20 2.061 . S
Co19 O25 2.052 . S
Co19 O27 2.135 . S
O20 Co19 2.061 . S
O20 C23 1.235 . S
C21 O24 1.238 . S
C21 O25 1.241 . S
C22 O15 1.247 . S
C22 O16 1.261 . S
C23 O18 1.259 . S
C23 O20 1.235 . S
O24 Co14 2.021 . S
O24 C21 1.238 . S
O25 Co19 2.052 . S
O25 C21 1.241 . S
O26 Co14 2.137 . S
O26 C17 1.247 . S
O27 Co14 2.244 . S
O27 C17 1.272 . S
O27 Co19 2.135 . S
Co28 O29 2.216 . S
Co28 O30 2.091 . S
Co28 O32 2.004 . S
Co28 O38 2.021 . S
Co28 O40 2.137 . S
Co28 O41 2.244 . S
O29 Co28 2.216 . S
O29 C36 1.247 . S
O30 Co28 2.091 . S
O30 C36 1.261 . S
C31 O40 1.247 . S
C31 O41 1.272 . S
O32 Co28 2.004 . S
O32 C37 1.259 . S
Co33 O34 2.061 . S
Co33 O39 2.052 . S
Co33 O41 2.135 . S
O34 Co33 2.061 . S
O34 C37 1.235 . S
C35 O38 1.238 . S
C35 O39 1.241 . S
C36 O29 1.247 . S
C36 O30 1.261 . S
C37 O32 1.259 . S
C37 O34 1.235 . S
O38 Co28 2.021 . S
O38 C35 1.238 . S
O39 Co33 2.052 . S
O39 C35 1.241 . S
O40 Co28 2.137 . S
O40 C31 1.247 . S
O41 Co28 2.244 . S
O41 C31 1.272 . S
O41 Co33 2.135 . S
Co42 O43 2.216 . S
Co42 O44 2.091 . S
Co42 O46 2.004 . S
Co42 O52 2.021 . S
Co42 O54 2.137 . S
Co42 O55 2.244 . S
O43 Co42 2.216 . S
O43 C50 1.247 . S
O44 Co42 2.091 . S
O44 C50 1.261 . S
C45 O54 1.247 . S
C45 O55 1.272 . S
O46 Co42 2.004 . S
O46 C51 1.259 . S
Co47 O48 2.061 . S
Co47 O53 2.052 . S
Co47 O55 2.135 . S
O48 Co47 2.061 . S
O48 C51 1.235 . S
C49 O52 1.238 . S
C49 O53 1.241 . S
C50 O43 1.247 . S
C50 O44 1.261 . S
C51 O46 1.259 . S
C51 O48 1.235 . S
O52 Co42 2.021 . S
O52 C49 1.238 . S
O53 Co47 2.052 . S
O53 C49 1.241 . S
O54 Co42 2.137 . S
O54 C45 1.247 . S
O55 Co42 2.244 . S
O55 C45 1.272 . S
O55 Co47 2.135 . S
Co56 O57 2.216 . S
Co56 O58 2.091 . S
Co56 O60 2.004 . S
Co56 O66 2.021 . S
Co56 O68 2.137 . S
Co56 O69 2.244 . S
O57 Co56 2.216 . S
O57 C64 1.247 . S
O58 Co56 2.091 . S
O58 C64 1.261 . S
C59 O68 1.247 . S
C59 O69 1.272 . S
O60 Co56 2.004 . S
O60 C65 1.259 . S
Co61 O62 2.061 . S
Co61 O67 2.052 . S
Co61 O69 2.135 . S
O62 Co61 2.061 . S
O62 C65 1.235 . S
C63 O66 1.238 . S
C63 O67 1.241 . S
C64 O57 1.247 . S
C64 O58 1.261 . S
C65 O60 1.259 . S
C65 O62 1.235 . S
O66 Co56 2.021 . S
O66 C63 1.238 . S
O67 Co61 2.052 . S
O67 C63 1.241 . S
O68 Co56 2.137 . S
O68 C59 1.247 . S
O69 Co56 2.244 . S
O69 C59 1.272 . S
O69 Co61 2.135 . S
Co70 O71 2.216 . S
Co70 O72 2.091 . S
Co70 O74 2.004 . S
Co70 O80 2.021 . S
Co70 O82 2.137 . S
Co70 O83 2.244 . S
O71 Co70 2.216 . S
O71 C78 1.247 . S
O72 Co70 2.091 . S
O72 C78 1.261 . S
C73 O82 1.247 . S
C73 O83 1.272 . S
O74 Co70 2.004 . S
O74 C79 1.259 . S
Co75 O76 2.061 . S
Co75 O81 2.052 . S
Co75 O83 2.135 . S
O76 Co75 2.061 . S
O76 C79 1.235 . S
C77 O80 1.238 . S
C77 O81 1.241 . S
C78 O71 1.247 . S
C78 O72 1.261 . S
C79 O74 1.259 . S
C79 O76 1.235 . S
O80 Co70 2.021 . S
O80 C77 1.238 . S
O81 Co75 2.052 . S
O81 C77 1.241 . S
O82 Co70 2.137 . S
O82 C73 1.247 . S
O83 Co70 2.244 . S
O83 C73 1.272 . S
O83 Co75 2.135 . S
Co84 O85 2.216 . S
Co84 O86 2.091 . S
Co84 O88 2.004 . S
Co84 O94 2.021 . S
Co84 O96 2.137 . S
Co84 O97 2.244 . S
O85 Co84 2.216 . S
O85 C92 1.247 . S
O86 Co84 2.091 . S
O86 C92 1.261 . S
C87 O96 1.247 . S
C87 O97 1.272 . S
O88 Co84 2.004 . S
O88 C93 1.259 . S
Co89 O90 2.061 . S
Co89 O95 2.052 . S
Co89 O97 2.135 . S
O90 Co89 2.061 . S
O90 C93 1.235 . S
C91 O94 1.238 . S
C91 O95 1.241 . S
C92 O85 1.247 . S
C92 O86 1.261 . S
C93 O88 1.259 . S
C93 O90 1.235 . S
O94 Co84 2.021 . S
O94 C91 1.238 . S
O95 Co89 2.052 . S
O95 C91 1.241 . S
O96 Co84 2.137 . S
O96 C87 1.247 . S
O97 Co84 2.244 . S
O97 C87 1.272 . S
O97 Co89 2.135 . S
Co98 O99 2.216 . S
Co98 O100 2.091 . S
Co98 O102 2.004 . S
Co98 O108 2.021 . S
Co98 O110 2.137 . S
Co98 O111 2.244 . S
O99 Co98 2.216 . S
O99 C106 1.247 . S
O100 Co98 2.091 . S
O100 C106 1.261 . S
C101 O110 1.247 . S
C101 O111 1.272 . S
O102 Co98 2.004 . S
O102 C107 1.259 . S
Co103 O104 2.061 . S
Co103 O109 2.052 . S
Co103 O111 2.135 . S
O104 Co103 2.061 . S
O104 C107 1.235 . S
C105 O108 1.238 . S
C105 O109 1.241 . S
C106 O99 1.247 . S
C106 O100 1.261 . S
C107 O102 1.259 . S
C107 O104 1.235 . S
O108 Co98 2.021 . S
O108 C105 1.238 . S
O109 Co103 2.052 . S
O109 C105 1.241 . S
O110 Co98 2.137 . S
O110 C101 1.247 . S
O111 Co98 2.244 . S
O111 C101 1.272 . S
O111 Co103 2.135 . S
Co112 O113 2.216 . S
Co112 O114 2.091 . S
Co112 O116 2.004 . S
Co112 O122 2.021 . S
Co112 O124 2.137 . S
Co112 O125 2.244 . S
O113 Co112 2.216 . S
O113 C120 1.247 . S
O114 Co112 2.091 . S
O114 C120 1.261 . S
C115 O124 1.247 . S
C115 O125 1.272 . S
O116 Co112 2.004 . S
O116 C121 1.259 . S
Co117 O118 2.061 . S
Co117 O123 2.052 . S
Co117 O125 2.135 . S
O118 Co117 2.061 . S
O118 C121 1.235 . S
C119 O122 1.238 . S
C119 O123 1.241 . S
C120 O113 1.247 . S
C120 O114 1.261 . S
C121 O116 1.259 . S
C121 O118 1.235 . S
O122 Co112 2.021 . S
O122 C119 1.238 . S
O123 Co117 2.052 . S
O123 C119 1.241 . S
O124 Co112 2.137 . S
O124 C115 1.247 . S
O125 Co112 2.244 . S
O125 C115 1.272 . S
O125 Co117 2.135 . S
Co126 O127 2.216 . S
Co126 O128 2.091 . S
Co126 O130 2.004 . S
Co126 O136 2.021 . S
Co126 O138 2.137 . S
Co126 O139 2.244 . S
O127 Co126 2.216 . S
O127 C134 1.247 . S
O128 Co126 2.091 . S
O128 C134 1.261 . S
C129 O138 1.247 . S
C129 O139 1.272 . S
O130 Co126 2.004 . S
O130 C135 1.259 . S
Co131 O132 2.061 . S
Co131 O137 2.052 . S
Co131 O139 2.135 . S
O132 Co131 2.061 . S
O132 C135 1.235 . S
C133 O136 1.238 . S
C133 O137 1.241 . S
C134 O127 1.247 . S
C134 O128 1.261 . S
C135 O130 1.259 . S
C135 O132 1.235 . S
O136 Co126 2.021 . S
O136 C133 1.238 . S
O137 Co131 2.052 . S
O137 C133 1.241 . S
O138 Co126 2.137 . S
O138 C129 1.247 . S
O139 Co126 2.244 . S
O139 C129 1.272 . S
O139 Co131 2.135 . S
Co140 O141 2.216 . S
Co140 O142 2.091 . S
Co140 O144 2.004 . S
Co140 O150 2.021 . S
Co140 O152 2.137 . S
Co140 O153 2.244 . S
O141 Co140 2.216 . S
O141 C148 1.247 . S
O142 Co140 2.091 . S
O142 C148 1.261 . S
C143 O152 1.247 . S
C143 O153 1.272 . S
O144 Co140 2.004 . S
O144 C149 1.259 . S
Co145 O146 2.061 . S
Co145 O151 2.052 . S
Co145 O153 2.135 . S
O146 Co145 2.061 . S
O146 C149 1.235 . S
C147 O150 1.238 . S
C147 O151 1.241 . S
C148 O141 1.247 . S
C148 O142 1.261 . S
C149 O144 1.259 . S
C149 O146 1.235 . S
O150 Co140 2.021 . S
O150 C147 1.238 . S
O151 Co145 2.052 . S
O151 C147 1.241 . S
O152 Co140 2.137 . S
O152 C143 1.247 . S
O153 Co140 2.244 . S
O153 C143 1.272 . S
O153 Co145 2.135 . S
Co154 O155 2.216 . S
Co154 O156 2.091 . S
Co154 O158 2.004 . S
Co154 O164 2.021 . S
Co154 O166 2.137 . S
Co154 O167 2.244 . S
O155 Co154 2.216 . S
O155 C162 1.247 . S
O156 Co154 2.091 . S
O156 C162 1.261 . S
C157 O166 1.247 . S
C157 O167 1.272 . S
O158 Co154 2.004 . S
O158 C163 1.259 . S
Co159 O160 2.061 . S
Co159 O165 2.052 . S
Co159 O167 2.135 . S
O160 Co159 2.061 . S
O160 C163 1.235 . S
C161 O164 1.238 . S
C161 O165 1.241 . S
C162 O155 1.247 . S
C162 O156 1.261 . S
C163 O158 1.259 . S
C163 O160 1.235 . S
O164 Co154 2.021 . S
O164 C161 1.238 . S
O165 Co159 2.052 . S
O165 C161 1.241 . S
O166 Co154 2.137 . S
O166 C157 1.247 . S
O167 Co154 2.244 . S
O167 C157 1.272 . S
O167 Co159 2.135 . S
Co168 O169 2.216 . S
Co168 O170 2.091 . S
Co168 O172 2.004 . S
Co168 O178 2.021 . S
Co168 O180 2.137 . S
Co168 O181 2.244 . S
O169 Co168 2.216 . S
O169 C176 1.247 . S
O170 Co168 2.091 . S
O170 C176 1.261 . S
C171 O180 1.247 . S
C171 O181 1.272 . S
O172 Co168 2.004 . S
O172 C177 1.259 . S
Co173 O174 2.061 . S
Co173 O179 2.052 . S
Co173 O181 2.135 . S
O174 Co173 2.061 . S
O174 C177 1.235 . S
C175 O178 1.238 . S
C175 O179 1.241 . S
C176 O169 1.247 . S
C176 O170 1.261 . S
C177 O172 1.259 . S
C177 O174 1.235 . S
O178 Co168 2.021 . S
O178 C175 1.238 . S
O179 Co173 2.052 . S
O179 C175 1.241 . S
O180 Co168 2.137 . S
O180 C171 1.247 . S
O181 Co168 2.244 . S
O181 C171 1.272 . S
O181 Co173 2.135 . S
Co182 O183 2.216 . S
Co182 O184 2.091 . S
Co182 O186 2.004 . S
Co182 O192 2.021 . S
Co182 O194 2.137 . S
Co182 O195 2.244 . S
O183 Co182 2.216 . S
O183 C190 1.247 . S
O184 Co182 2.091 . S
O184 C190 1.261 . S
C185 O194 1.247 . S
C185 O195 1.272 . S
O186 Co182 2.004 . S
O186 C191 1.259 . S
Co187 O188 2.061 . S
Co187 O193 2.052 . S
Co187 O195 2.135 . S
O188 Co187 2.061 . S
O188 C191 1.235 . S
C189 O192 1.238 . S
C189 O193 1.241 . S
C190 O183 1.247 . S
C190 O184 1.261 . S
C191 O186 1.259 . S
C191 O188 1.235 . S
O192 Co182 2.021 . S
O192 C189 1.238 . S
O193 Co187 2.052 . S
O193 C189 1.241 . S
O194 Co182 2.137 . S
O194 C185 1.247 . S
O195 Co182 2.244 . S
O195 C185 1.272 . S
O195 Co187 2.135 . S
Co196 O197 2.216 . S
Co196 O198 2.091 . S
Co196 O200 2.004 . S
Co196 O206 2.021 . S
Co196 O208 2.137 . S
Co196 O209 2.244 . S
O197 Co196 2.216 . S
O197 C204 1.247 . S
O198 Co196 2.091 . S
O198 C204 1.261 . S
C199 O208 1.247 . S
C199 O209 1.272 . S
O200 Co196 2.004 . S
O200 C205 1.259 . S
Co201 O202 2.061 . S
Co201 O207 2.052 . S
Co201 O209 2.135 . S
O202 Co201 2.061 . S
O202 C205 1.235 . S
C203 O206 1.238 . S
C203 O207 1.241 . S
C204 O197 1.247 . S
C204 O198 1.261 . S
C205 O200 1.259 . S
C205 O202 1.235 . S
O206 Co196 2.021 . S
O206 C203 1.238 . S
O207 Co201 2.052 . S
O207 C203 1.241 . S
O208 Co196 2.137 . S
O208 C199 1.247 . S
O209 Co196 2.244 . S
O209 C199 1.272 . S
O209 Co201 2.135 . S
Co210 O211 2.216 . S
Co210 O212 2.091 . S
Co210 O214 2.004 . S
Co210 O220 2.021 . S
Co210 O222 2.137 . S
Co210 O223 2.244 . S
O211 Co210 2.216 . S
O211 C218 1.247 . S
O212 Co210 2.091 . S
O212 C218 1.261 . S
C213 O222 1.247 . S
C213 O223 1.272 . S
O214 Co210 2.004 . S
O214 C219 1.259 . S
Co215 O216 2.061 . S
Co215 O221 2.052 . S
Co215 O223 2.135 . S
O216 Co215 2.061 . S
O216 C219 1.235 . S
C217 O220 1.238 . S
C217 O221 1.241 . S
C218 O211 1.247 . S
C218 O212 1.261 . S
C219 O214 1.259 . S
C219 O216 1.235 . S
O220 Co210 2.021 . S
O220 C217 1.238 . S
O221 Co215 2.052 . S
O221 C217 1.241 . S
O222 Co210 2.137 . S
O222 C213 1.247 . S
O223 Co210 2.244 . S
O223 C213 1.272 . S
O223 Co215 2.135 . S
Co224 O225 2.216 . S
Co224 O226 2.091 . S
Co224 O228 2.004 . S
Co224 O234 2.021 . S
Co224 O236 2.137 . S
Co224 O237 2.244 . S
O225 Co224 2.216 . S
O225 C232 1.247 . S
O226 Co224 2.091 . S
O226 C232 1.261 . S
C227 O236 1.247 . S
C227 O237 1.272 . S
O228 Co224 2.004 . S
O228 C233 1.259 . S
Co229 O230 2.061 . S
Co229 O235 2.052 . S
Co229 O237 2.135 . S
O230 Co229 2.061 . S
O230 C233 1.235 . S
C231 O234 1.238 . S
C231 O235 1.241 . S
C232 O225 1.247 . S
C232 O226 1.261 . S
C233 O228 1.259 . S
C233 O230 1.235 . S
O234 Co224 2.021 . S
O234 C231 1.238 . S
O235 Co229 2.052 . S
O235 C231 1.241 . S
O236 Co224 2.137 . S
O236 C227 1.247 . S
O237 Co224 2.244 . S
O237 C227 1.272 . S
O237 Co229 2.135 . S
Co238 O239 2.216 . S
Co238 O240 2.091 . S
Co238 O242 2.004 . S
Co238 O248 2.021 . S
Co238 O250 2.137 . S
Co238 O251 2.244 . S
O239 Co238 2.216 . S
O239 C246 1.247 . S
O240 Co238 2.091 . S
O240 C246 1.261 . S
C241 O250 1.247 . S
C241 O251 1.272 . S
O242 Co238 2.004 . S
O242 C247 1.259 . S
Co243 O244 2.061 . S
Co243 O249 2.052 . S
Co243 O251 2.135 . S
O244 Co243 2.061 . S
O244 C247 1.235 . S
C245 O248 1.238 . S
C245 O249 1.241 . S
C246 O239 1.247 . S
C246 O240 1.261 . S
C247 O242 1.259 . S
C247 O244 1.235 . S
O248 Co238 2.021 . S
O248 C245 1.238 . S
O249 Co243 2.052 . S
O249 C245 1.241 . S
O250 Co238 2.137 . S
O250 C241 1.247 . S
O251 Co238 2.244 . S
O251 C241 1.272 . S
O251 Co243 2.135 . S
Co252 O253 2.216 . S
Co252 O254 2.091 . S
Co252 O256 2.004 . S
Co252 O262 2.021 . S
Co252 O264 2.137 . S
Co252 O265 2.244 . S
O253 Co252 2.216 . S
O253 C260 1.247 . S
O254 Co252 2.091 . S
O254 C260 1.261 . S
C255 O264 1.247 . S
C255 O265 1.272 . S
O256 Co252 2.004 . S
O256 C261 1.259 . S
Co257 O258 2.061 . S
Co257 O263 2.052 . S
Co257 O265 2.135 . S
O258 Co257 2.061 . S
O258 C261 1.235 . S
C259 O262 1.238 . S
C259 O263 1.241 . S
C260 O253 1.247 . S
C260 O254 1.261 . S
C261 O256 1.259 . S
C261 O258 1.235 . S
O262 Co252 2.021 . S
O262 C259 1.238 . S
O263 Co257 2.052 . S
O263 C259 1.241 . S
O264 Co252 2.137 . S
O264 C255 1.247 . S
O265 Co252 2.244 . S
O265 C255 1.272 . S
O265 Co257 2.135 . S
Co266 O267 2.216 . S
Co266 O268 2.091 . S
Co266 O270 2.004 . S
Co266 O276 2.021 . S
Co266 O278 2.137 . S
Co266 O279 2.244 . S
O267 Co266 2.216 . S
O267 C274 1.247 . S
O268 Co266 2.091 . S
O268 C274 1.261 . S
C269 O278 1.247 . S
C269 O279 1.272 . S
O270 Co266 2.004 . S
O270 C275 1.259 . S
Co271 O272 2.061 . S
Co271 O277 2.052 . S
Co271 O279 2.135 . S
O272 Co271 2.061 . S
O272 C275 1.235 . S
C273 O276 1.238 . S
C273 O277 1.241 . S
C274 O267 1.247 . S
C274 O268 1.261 . S
C275 O270 1.259 . S
C275 O272 1.235 . S
O276 Co266 2.021 . S
O276 C273 1.238 . S
O277 Co271 2.052 . S
O277 C273 1.241 . S
O278 Co266 2.137 . S
O278 C269 1.247 . S
O279 Co266 2.244 . S
O279 C269 1.272 . S
O279 Co271 2.135 . S
Co280 O281 2.216 . S
Co280 O282 2.091 . S
Co280 O284 2.004 . S
Co280 O290 2.021 . S
Co280 O292 2.137 . S
Co280 O293 2.244 . S
O281 Co280 2.216 . S
O281 C288 1.247 . S
O282 Co280 2.091 . S
O282 C288 1.261 . S
C283 O292 1.247 . S
C283 O293 1.272 . S
O284 Co280 2.004 . S
O284 C289 1.259 . S
Co285 O286 2.061 . S
Co285 O291 2.052 . S
Co285 O293 2.135 . S
O286 Co285 2.061 . S
O286 C289 1.235 . S
C287 O290 1.238 . S
C287 O291 1.241 . S
C288 O281 1.247 . S
C288 O282 1.261 . S
C289 O284 1.259 . S
C289 O286 1.235 . S
O290 Co280 2.021 . S
O290 C287 1.238 . S
O291 Co285 2.052 . S
O291 C287 1.241 . S
O292 Co280 2.137 . S
O292 C283 1.247 . S
O293 Co280 2.244 . S
O293 C283 1.272 . S
O293 Co285 2.135 . S
Co294 O295 2.216 . S
Co294 O296 2.091 . S
Co294 O298 2.004 . S
Co294 O304 2.021 . S
Co294 O306 2.137 . S
Co294 O307 2.244 . S
O295 Co294 2.216 . S
O295 C302 1.247 . S
O296 Co294 2.091 . S
O296 C302 1.261 . S
C297 O306 1.247 . S
C297 O307 1.272 . S
O298 Co294 2.004 . S
O298 C303 1.259 . S
Co299 O300 2.061 . S
Co299 O305 2.052 . S
Co299 O307 2.135 . S
O300 Co299 2.061 . S
O300 C303 1.235 . S
C301 O304 1.238 . S
C301 O305 1.241 . S
C302 O295 1.247 . S
C302 O296 1.261 . S
C303 O298 1.259 . S
C303 O300 1.235 . S
O304 Co294 2.021 . S
O304 C301 1.238 . S
O305 Co299 2.052 . S
O305 C301 1.241 . S
O306 Co294 2.137 . S
O306 C297 1.247 . S
O307 Co294 2.244 . S
O307 C297 1.272 . S
O307 Co299 2.135 . S
Co308 O309 2.216 . S
Co308 O310 2.091 . S
Co308 O312 2.004 . S
Co308 O318 2.021 . S
Co308 O320 2.137 . S
Co308 O321 2.244 . S
O309 Co308 2.216 . S
O309 C316 1.247 . S
O310 Co308 2.091 . S
O310 C316 1.261 . S
C311 O320 1.247 . S
C311 O321 1.272 . S
O312 Co308 2.004 . S
O312 C317 1.259 . S
Co313 O314 2.061 . S
Co313 O319 2.052 . S
Co313 O321 2.135 . S
O314 Co313 2.061 . S
O314 C317 1.235 . S
C315 O318 1.238 . S
C315 O319 1.241 . S
C316 O309 1.247 . S
C316 O310 1.261 . S
C317 O312 1.259 . S
C317 O314 1.235 . S
O318 Co308 2.021 . S
O318 C315 1.238 . S
O319 Co313 2.052 . S
O319 C315 1.241 . S
O320 Co308 2.137 . S
O320 C311 1.247 . S
O321 Co308 2.244 . S
O321 C311 1.272 . S
O321 Co313 2.135 . S
Co322 O323 2.216 . S
Co322 O324 2.091 . S
Co322 O326 2.004 . S
Co322 O332 2.021 . S
Co322 O334 2.137 . S
Co322 O335 2.244 . S
O323 Co322 2.216 . S
O323 C330 1.247 . S
O324 Co322 2.091 . S
O324 C330 1.261 . S
C325 O334 1.247 . S
C325 O335 1.272 . S
O326 Co322 2.004 . S
O326 C331 1.259 . S
Co327 O328 2.061 . S
Co327 O333 2.052 . S
Co327 O335 2.135 . S
O328 Co327 2.061 . S
O328 C331 1.235 . S
C329 O332 1.238 . S
C329 O333 1.241 . S
C330 O323 1.247 . S
C330 O324 1.261 . S
C331 O326 1.259 . S
C331 O328 1.235 . S
O332 Co322 2.021 . S
O332 C329 1.238 . S
O333 Co327 2.052 . S
O333 C329 1.241 . S
O334 Co322 2.137 . S
O334 C325 1.247 . S
O335 Co322 2.244 . S
O335 C325 1.272 . S
O335 Co327 2.135 . S
Co336 O337 2.216 . S
Co336 O338 2.091 . S
Co336 O340 2.004 . S
Co336 O346 2.021 . S
Co336 O348 2.137 . S
Co336 O349 2.244 . S
O337 Co336 2.216 . S
O337 C344 1.247 . S
O338 Co336 2.091 . S
O338 C344 1.261 . S
C339 O348 1.247 . S
C339 O349 1.272 . S
O340 Co336 2.004 . S
O340 C345 1.259 . S
Co341 O342 2.061 . S
Co341 O347 2.052 . S
Co341 O349 2.135 . S
O342 Co341 2.061 . S
O342 C345 1.235 . S
C343 O346 1.238 . S
C343 O347 1.241 . S
C344 O337 1.247 . S
C344 O338 1.261 . S
C345 O340 1.259 . S
C345 O342 1.235 . S
O346 Co336 2.021 . S
O346 C343 1.238 . S
O347 Co341 2.052 . S
O347 C343 1.241 . S
O348 Co336 2.137 . S
O348 C339 1.247 . S
O349 Co336 2.244 . S
O349 C339 1.272 . S
O349 Co341 2.135 . S
Co350 O351 2.216 . S
Co350 O352 2.091 . S
Co350 O354 2.004 . S
Co350 O360 2.021 . S
Co350 O362 2.137 . S
Co350 O363 2.244 . S
O351 Co350 2.216 . S
O351 C358 1.247 . S
O352 Co350 2.091 . S
O352 C358 1.261 . S
C353 O362 1.247 . S
C353 O363 1.272 . S
O354 Co350 2.004 . S
O354 C359 1.259 . S
Co355 O356 2.061 . S
Co355 O361 2.052 . S
Co355 O363 2.135 . S
O356 Co355 2.061 . S
O356 C359 1.235 . S
C357 O360 1.238 . S
C357 O361 1.241 . S
C358 O351 1.247 . S
C358 O352 1.261 . S
C359 O354 1.259 . S
C359 O356 1.235 . S
O360 Co350 2.021 . S
O360 C357 1.238 . S
O361 Co355 2.052 . S
O361 C357 1.241 . S
O362 Co350 2.137 . S
O362 C353 1.247 . S
O363 Co350 2.244 . S
O363 C353 1.272 . S
O363 Co355 2.135 . S
Co364 O365 2.216 . S
Co364 O366 2.091 . S
Co364 O368 2.004 . S
Co364 O374 2.021 . S
Co364 O376 2.137 . S
Co364 O377 2.244 . S
O365 Co364 2.216 . S
O365 C372 1.247 . S
O366 Co364 2.091 . S
O366 C372 1.261 . S
C367 O376 1.247 . S
C367 O377 1.272 . S
O368 Co364 2.004 . S
O368 C373 1.259 . S
Co369 O370 2.061 . S
Co369 O375 2.052 . S
Co369 O377 2.135 . S
O370 Co369 2.061 . S
O370 C373 1.235 . S
C371 O374 1.238 . S
C371 O375 1.241 . S
C372 O365 1.247 . S
C372 O366 1.261 . S
C373 O368 1.259 . S
C373 O370 1.235 . S
O374 Co364 2.021 . S
O374 C371 1.238 . S
O375 Co369 2.052 . S
O375 C371 1.241 . S
O376 Co364 2.137 . S
O376 C367 1.247 . S
O377 Co364 2.244 . S
O377 C367 1.272 . S
O377 Co369 2.135 . S
Co378 O379 2.216 . S
Co378 O380 2.091 . S
Co378 O382 2.004 . S
Co378 O388 2.021 . S
Co378 O390 2.137 . S
Co378 O391 2.244 . S
O379 Co378 2.216 . S
O379 C386 1.247 . S
O380 Co378 2.091 . S
O380 C386 1.261 . S
C381 O390 1.247 . S
C381 O391 1.272 . S
O382 Co378 2.004 . S
O382 C387 1.259 . S
Co383 O384 2.061 . S
Co383 O389 2.052 . S
Co383 O391 2.135 . S
O384 Co383 2.061 . S
O384 C387 1.235 . S
C385 O388 1.238 . S
C385 O389 1.241 . S
C386 O379 1.247 . S
C386 O380 1.261 . S
C387 O382 1.259 . S
C387 O384 1.235 . S
O388 Co378 2.021 . S
O388 C385 1.238 . S
O389 Co383 2.052 . S
O389 C385 1.241 . S
O390 Co378 2.137 . S
O390 C381 1.247 . S
O391 Co378 2.244 . S
O391 C381 1.272 . S
O391 Co383 2.135 . S
Co392 O393 2.216 . S
Co392 O394 2.091 . S
Co392 O396 2.004 . S
Co392 O402 2.021 . S
Co392 O404 2.137 . S
Co392 O405 2.244 . S
O393 Co392 2.216 . S
O393 C400 1.247 . S
O394 Co392 2.091 . S
O394 C400 1.261 . S
C395 O404 1.247 . S
C395 O405 1.272 . S
O396 Co392 2.004 . S
O396 C401 1.259 . S
Co397 O398 2.061 . S
Co397 O403 2.052 . S
Co397 O405 2.135 . S
O398 Co397 2.061 . S
O398 C401 1.235 . S
C399 O402 1.238 . S
C399 O403 1.241 . S
C400 O393 1.247 . S
C400 O394 1.261 . S
C401 O396 1.259 . S
C401 O398 1.235 . S
O402 Co392 2.021 . S
O402 C399 1.238 . S
O403 Co397 2.052 . S
O403 C399 1.241 . S
O404 Co392 2.137 . S
O404 C395 1.247 . S
O405 Co392 2.244 . S
O405 C395 1.272 . S
O405 Co397 2.135 . S
Co406 O407 2.216 . S
Co406 O408 2.091 . S
Co406 O410 2.004 . S
Co406 O416 2.021 . S
Co406 O418 2.137 . S
Co406 O419 2.244 . S
O407 Co406 2.216 . S
O407 C414 1.247 . S
O408 Co406 2.091 . S
O408 C414 1.261 . S
C409 O418 1.247 . S
C409 O419 1.272 . S
O410 Co406 2.004 . S
O410 C415 1.259 . S
Co411 O412 2.061 . S
Co411 O417 2.052 . S
Co411 O419 2.135 . S
O412 Co411 2.061 . S
O412 C415 1.235 . S
C413 O416 1.238 . S
C413 O417 1.241 . S
C414 O407 1.247 . S
C414 O408 1.261 . S
C415 O410 1.259 . S
C415 O412 1.235 . S
O416 Co406 2.021 . S
O416 C413 1.238 . S
O417 Co411 2.052 . S
O417 C413 1.241 . S
O418 Co406 2.137 . S
O418 C409 1.247 . S
O419 Co406 2.244 . S
O419 C409 1.272 . S
O419 Co411 2.135 . S
Co420 O421 2.216 . S
Co420 O422 2.091 . S
Co420 O424 2.004 . S
Co420 O430 2.021 . S
Co420 O432 2.137 . S
Co420 O433 2.244 . S
O421 Co420 2.216 . S
O421 C428 1.247 . S
O422 Co420 2.091 . S
O422 C428 1.261 . S
C423 O432 1.247 . S
C423 O433 1.272 . S
O424 Co420 2.004 . S
O424 C429 1.259 . S
Co425 O426 2.061 . S
Co425 O431 2.052 . S
Co425 O433 2.135 . S
O426 Co425 2.061 . S
O426 C429 1.235 . S
C427 O430 1.238 . S
C427 O431 1.241 . S
C428 O421 1.247 . S
C428 O422 1.261 . S
C429 O424 1.259 . S
C429 O426 1.235 . S
O430 Co420 2.021 . S
O430 C427 1.238 . S
O431 Co425 2.052 . S
O431 C427 1.241 . S
O432 Co420 2.137 . S
O432 C423 1.247 . S
O433 Co420 2.244 . S
O433 C423 1.272 . S
O433 Co425 2.135 . S
Co434 O435 2.216 . S
Co434 O436 2.091 . S
Co434 O438 2.004 . S
Co434 O444 2.021 . S
Co434 O446 2.137 . S
Co434 O447 2.244 . S
O435 Co434 2.216 . S
O435 C442 1.247 . S
O436 Co434 2.091 . S
O436 C442 1.261 . S
C437 O446 1.247 . S
C437 O447 1.272 . S
O438 Co434 2.004 . S
O438 C443 1.259 . S
Co439 O440 2.061 . S
Co439 O445 2.052 . S
Co439 O447 2.135 . S
O440 Co439 2.061 . S
O440 C443 1.235 . S
C441 O444 1.238 . S
C441 O445 1.241 . S
C442 O435 1.247 . S
C442 O436 1.261 . S
C443 O438 1.259 . S
C443 O440 1.235 . S
O444 Co434 2.021 . S
O444 C441 1.238 . S
O445 Co439 2.052 . S
O445 C441 1.241 . S
O446 Co434 2.137 . S
O446 C437 1.247 . S
O447 Co434 2.244 . S
O447 C437 1.272 . S
O447 Co439 2.135 . S
H448 C460 0.930 . S
H449 C462 0.930 . S
H450 C463 0.930 . S
H451 C467 0.959 . S
H452 C467 0.959 . S
H453 C467 0.961 . S
H454 C468 0.960 . S
H455 C468 0.961 . S
H456 C468 0.959 . S
H457 C471 0.929 . S
H458 C472 0.931 . S
H459 C474 0.930 . S
C460 H448 0.930 . S
C460 C461 1.399 . S
C460 C465 1.399 . S
C461 C460 1.399 . S
C461 C462 1.376 . S
C462 H449 0.930 . S
C462 C461 1.376 . S
C462 C463 1.388 . S
C463 H450 0.930 . S
C463 C462 1.388 . S
C463 C464 1.390 . S
C464 C463 1.390 . S
C464 C465 1.394 . S
C464 C470 1.465 . S
C465 C460 1.399 . S
C465 C464 1.394 . S
C465 C466 1.516 . S
C466 C465 1.516 . S
C466 C467 1.502 . S
C466 C468 1.561 . S
C466 C469 1.526 . S
C467 H451 0.959 . S
C467 H452 0.959 . S
C467 H453 0.961 . S
C467 C466 1.502 . S
C468 H454 0.960 . S
C468 H455 0.961 . S
C468 H456 0.959 . S
C468 C466 1.561 . S
C469 C466 1.526 . S
C469 C470 1.396 . S
C469 C474 1.390 . S
C470 C464 1.465 . S
C470 C469 1.396 . S
C470 C471 1.399 . S
C471 H457 0.929 . S
C471 C470 1.399 . S
C471 C472 1.385 . S
C472 H458 0.931 . S
C472 C471 1.385 . S
C472 C473 1.389 . S
C473 C472 1.389 . S
C473 C474 1.387 . S
C474 H459 0.930 . S
C474 C469 1.390 . S
C474 C473 1.387 . S
H475 C487 0.930 . S
H476 C489 0.930 . S
H477 C490 0.930 . S
H478 C494 0.959 . S
H479 C494 0.956 1_545 S
H480 C494 0.961 . S
H481 C495 0.960 . S
H482 C495 0.949 1_545 S
H483 C495 0.959 . S
H484 C498 0.929 . S
H485 C499 0.931 . S
H486 C501 0.930 . S
C487 H475 0.930 . S
C487 C488 1.399 . S
C487 C492 1.399 . S
C488 C487 1.399 . S
C488 C489 1.376 . S
C489 H476 0.930 . S
C489 C488 1.376 . S
C489 C490 1.388 . S
C490 H477 0.930 . S
C490 C489 1.388 . S
C490 C491 1.390 . S
C491 C490 1.390 . S
C491 C492 1.394 . S
C491 C497 1.465 1_565 S
C492 C487 1.399 . S
C492 C491 1.394 . S
C492 C493 1.516 . S
C493 C492 1.516 . S
C493 C494 1.502 . S
C493 C495 1.561 . S
C493 C496 1.526 1_565 S
C494 H478 0.959 . S
C494 H479 0.956 1_565 S
C494 H480 0.961 . S
C494 C493 1.502 . S
C495 H481 0.960 . S
C495 H482 0.949 1_565 S
C495 H483 0.959 . S
C495 C493 1.561 . S
C496 C493 1.526 1_545 S
C496 C497 1.396 . S
C496 C501 1.390 . S
C497 C491 1.465 1_545 S
C497 C496 1.396 . S
C497 C498 1.399 . S
C498 H484 0.929 . S
C498 C497 1.399 . S
C498 C499 1.385 . S
C499 H485 0.931 . S
C499 C498 1.385 . S
C499 C500 1.389 . S
C500 C499 1.389 . S
C500 C501 1.387 . S
C501 H486 0.930 . S
C501 C496 1.390 . S
C501 C500 1.387 . S
H502 C514 0.930 . S
H503 C516 0.930 . S
H504 C517 0.930 1_556 S
H505 C521 0.959 . S
H506 C521 0.959 . S
H507 C521 0.961 . S
H508 C522 0.960 1_554 S
H509 C522 0.961 . S
H510 C522 0.959 . S
H511 C525 0.929 . S
H512 C526 0.931 . S
H513 C528 0.930 . S
C514 H502 0.930 . S
C514 C515 1.399 . S
C514 C519 1.399 . S
C515 C514 1.399 . S
C515 C516 1.376 . S
C516 H503 0.930 . S
C516 C515 1.376 . S
C516 C517 1.388 . S
C517 H504 0.930 1_554 S
C517 C516 1.388 . S
C517 C518 1.390 . S
C518 C517 1.390 . S
C518 C519 1.394 . S
C518 C524 1.465 1_554 S
C519 C514 1.399 . S
C519 C518 1.394 . S
C519 C520 1.516 . S
C520 C519 1.516 . S
C520 C521 1.502 . S
C520 C522 1.561 1_554 S
C520 C523 1.526 1_554 S
C521 H505 0.959 . S
C521 H506 0.959 . S
C521 H507 0.961 . S
C521 C520 1.502 . S
C522 H508 0.960 1_556 S
C522 H509 0.961 . S
C522 H510 0.959 . S
C522 C520 1.561 1_556 S
C523 C520 1.526 1_556 S
C523 C524 1.396 . S
C523 C528 1.390 . S
C524 C518 1.465 1_556 S
C524 C523 1.396 . S
C524 C525 1.399 . S
C525 H511 0.929 . S
C525 C524 1.399 . S
C525 C526 1.385 . S
C526 H512 0.931 . S
C526 C525 1.385 . S
C526 C527 1.389 . S
C527 C526 1.389 . S
C527 C528 1.387 . S
C528 H513 0.930 . S
C528 C523 1.390 . S
C528 C527 1.387 . S
H529 C541 0.930 . S
H530 C543 0.930 . S
H531 C544 0.930 . S
H532 C548 0.959 . S
H533 C548 0.920 1_565 S
H534 C548 0.961 . S
H535 C549 0.960 . S
H536 C549 0.971 . S
H537 C549 0.959 . S
H538 C552 0.929 . S
H539 C553 0.931 . S
H540 C555 0.930 . S
C541 H529 0.930 . S
C541 C542 1.399 . S
C541 C546 1.399 . S
C542 C541 1.399 . S
C542 C543 1.376 . S
C543 H530 0.930 . S
C543 C542 1.376 . S
C543 C544 1.388 . S
C544 H531 0.930 . S
C544 C543 1.388 . S
C544 C545 1.390 . S
C545 C544 1.390 . S
C545 C546 1.394 . S
C545 C551 1.465 1_545 S
C546 C541 1.399 . S
C546 C545 1.394 . S
C546 C547 1.516 . S
C547 C546 1.516 . S
C547 C548 1.502 . S
C547 C549 1.561 . S
C547 C550 1.526 1_545 S
C548 H532 0.959 . S
C548 H533 0.920 1_545 S
C548 H534 0.961 . S
C548 C547 1.502 . S
C549 H535 0.960 . S
C549 H536 0.971 . S
C549 H537 0.959 . S
C549 C547 1.561 . S
C550 C547 1.526 1_565 S
C550 C551 1.396 . S
C550 C555 1.390 . S
C551 C545 1.465 1_565 S
C551 C550 1.396 . S
C551 C552 1.399 . S
C552 H538 0.929 . S
C552 C551 1.399 . S
C552 C553 1.385 . S
C553 H539 0.931 . S
C553 C552 1.385 . S
C553 C554 1.389 . S
C554 C553 1.389 . S
C554 C555 1.387 . S
C555 H540 0.930 . S
C555 C550 1.390 . S
C555 C554 1.387 . S
H556 C568 0.930 . S
H557 C570 0.930 . S
H558 C571 0.930 . S
H559 C575 0.959 . S
H560 C575 0.959 . S
H561 C575 0.961 . S
H562 C576 0.960 . S
H563 C576 0.961 . S
H564 C576 0.959 . S
H565 C579 0.929 . S
H566 C580 0.931 . S
H567 C582 0.930 . S
C568 H556 0.930 . S
C568 C569 1.399 . S
C568 C573 1.399 . S
C569 C568 1.399 . S
C569 C570 1.376 . S
C570 H557 0.930 . S
C570 C569 1.376 . S
C570 C571 1.388 . S
C571 H558 0.930 . S
C571 C570 1.388 . S
C571 C572 1.390 . S
C572 C571 1.390 . S
C572 C573 1.394 . S
C572 C578 1.465 . S
C573 C568 1.399 . S
C573 C572 1.394 . S
C573 C574 1.516 . S
C574 C573 1.516 . S
C574 C575 1.502 . S
C574 C576 1.561 . S
C574 C577 1.526 . S
C575 H559 0.959 . S
C575 H560 0.959 . S
C575 H561 0.961 . S
C575 C574 1.502 . S
C576 H562 0.960 . S
C576 H563 0.961 . S
C576 H564 0.959 . S
C576 C574 1.561 . S
C577 C574 1.526 . S
C577 C578 1.396 . S
C577 C582 1.390 . S
C578 C572 1.465 . S
C578 C577 1.396 . S
C578 C579 1.399 . S
C579 H565 0.929 . S
C579 C578 1.399 . S
C579 C580 1.385 . S
C580 H566 0.931 . S
C580 C579 1.385 . S
C580 C581 1.389 . S
C581 C580 1.389 . S
C581 C582 1.387 . S
C582 H567 0.930 . S
C582 C577 1.390 . S
C582 C581 1.387 . S
H583 C595 0.930 . S
H584 C597 0.930 . S
H585 C598 0.930 . S
H586 C602 0.959 . S
H587 C602 0.957 . S
H588 C602 0.961 . S
H589 C603 0.960 . S
H590 C603 0.930 1_565 S
H591 C603 0.959 . S
H592 C606 0.929 . S
H593 C607 0.931 . S
H594 C609 0.930 . S
C595 H583 0.930 . S
C595 C596 1.399 . S
C595 C600 1.399 . S
C596 C595 1.399 . S
C596 C597 1.376 . S
C597 H584 0.930 . S
C597 C596 1.376 . S
C597 C598 1.388 . S
C598 H585 0.930 . S
C598 C597 1.388 . S
C598 C599 1.390 . S
C599 C598 1.390 . S
C599 C600 1.394 . S
C599 C605 1.465 1_545 S
C600 C595 1.399 . S
C600 C599 1.394 . S
C600 C601 1.516 . S
C601 C600 1.516 . S
C601 C602 1.502 . S
C601 C603 1.561 . S
C601 C604 1.526 1_545 S
C602 H586 0.959 . S
C602 H587 0.957 . S
C602 H588 0.961 . S
C602 C601 1.502 . S
C603 H589 0.960 . S
C603 H590 0.930 1_545 S
C603 H591 0.959 . S
C603 C601 1.561 . S
C604 C601 1.526 1_565 S
C604 C605 1.396 . S
C604 C609 1.390 . S
C605 C599 1.465 1_565 S
C605 C604 1.396 . S
C605 C606 1.399 . S
C606 H592 0.929 . S
C606 C605 1.399 . S
C606 C607 1.385 . S
C607 H593 0.931 . S
C607 C606 1.385 . S
C607 C608 1.389 . S
C608 C607 1.389 . S
C608 C609 1.387 . S
C609 H594 0.930 . S
C609 C604 1.390 . S
C609 C608 1.387 . S
H610 C622 0.930 . S
H611 C624 0.930 . S
H612 C625 0.930 . S
H613 C629 0.959 . S
H614 C629 0.959 . S
H615 C629 0.961 . S
H616 C630 0.960 . S
H617 C630 0.961 . S
H618 C630 0.959 . S
H619 C633 0.929 . S
H620 C634 0.931 . S
H621 C636 0.930 . S
C622 H610 0.930 . S
C622 C623 1.399 . S
C622 C627 1.399 . S
C623 C622 1.399 . S
C623 C624 1.376 . S
C624 H611 0.930 . S
C624 C623 1.376 . S
C624 C625 1.388 . S
C625 H612 0.930 . S
C625 C624 1.388 . S
C625 C626 1.390 . S
C626 C625 1.390 . S
C626 C627 1.394 . S
C626 C632 1.465 1_556 S
C627 C622 1.399 . S
C627 C626 1.394 . S
C627 C628 1.516 1_556 S
C628 C627 1.516 1_554 S
C628 C629 1.502 . S
C628 C630 1.561 1_554 S
C628 C631 1.526 . S
C629 H613 0.959 . S
C629 H614 0.959 . S
C629 H615 0.961 . S
C629 C628 1.502 . S
C630 H616 0.960 . S
C630 H617 0.961 . S
C630 H618 0.959 . S
C630 C628 1.561 1_556 S
C631 C628 1.526 . S
C631 C632 1.396 . S
C631 C636 1.390 . S
C632 C626 1.465 1_554 S
C632 C631 1.396 . S
C632 C633 1.399 . S
C633 H619 0.929 . S
C633 C632 1.399 . S
C633 C634 1.385 . S
C634 H620 0.931 . S
C634 C633 1.385 . S
C634 C635 1.389 . S
C635 C634 1.389 . S
C635 C636 1.387 . S
C636 H621 0.930 . S
C636 C631 1.390 . S
C636 C635 1.387 . S
H637 C649 0.930 . S
H638 C651 0.930 . S
H639 C652 0.930 . S
H640 C656 0.959 . S
H641 C656 0.959 1_545 S
H642 C656 0.961 . S
H643 C657 0.960 1_565 S
H644 C657 0.961 . S
H645 C657 0.959 . S
H646 C660 0.929 . S
H647 C661 0.931 . S
H648 C663 0.930 . S
C649 H637 0.930 . S
C649 C650 1.399 . S
C649 C654 1.399 . S
C650 C649 1.399 . S
C650 C651 1.376 . S
C651 H638 0.930 . S
C651 C650 1.376 . S
C651 C652 1.388 . S
C652 H639 0.930 . S
C652 C651 1.388 . S
C652 C653 1.390 . S
C653 C652 1.390 . S
C653 C654 1.394 . S
C653 C659 1.465 1_565 S
C654 C649 1.399 . S
C654 C653 1.394 . S
C654 C655 1.516 1_565 S
C655 C654 1.516 1_545 S
C655 C656 1.502 1_545 S
C655 C657 1.561 . S
C655 C658 1.526 . S
C656 H640 0.959 . S
C656 H641 0.959 1_565 S
C656 H642 0.961 . S
C656 C655 1.502 1_565 S
C657 H643 0.960 1_545 S
C657 H644 0.961 . S
C657 H645 0.959 . S
C657 C655 1.561 . S
C658 C655 1.526 . S
C658 C659 1.396 . S
C658 C663 1.390 . S
C659 C653 1.465 1_545 S
C659 C658 1.396 . S
C659 C660 1.399 . S
C660 H646 0.929 . S
C660 C659 1.399 . S
C660 C661 1.385 . S
C661 H647 0.931 . S
C661 C660 1.385 . S
C661 C662 1.389 . S
C662 C661 1.389 . S
C662 C663 1.387 . S
C663 H648 0.930 . S
C663 C658 1.390 . S
C663 C662 1.387 . S
H664 C676 0.930 . S
H665 C678 0.930 . S
H666 C679 0.930 1_554 S
H667 C683 0.959 . S
H668 C683 0.959 . S
H669 C683 0.961 . S
H670 C684 0.960 1_556 S
H671 C684 0.961 . S
H672 C684 0.959 . S
H673 C687 0.929 . S
H674 C688 0.931 . S
H675 C690 0.930 . S
C676 H664 0.930 . S
C676 C677 1.399 . S
C676 C681 1.399 . S
C677 C676 1.399 . S
C677 C678 1.376 . S
C678 H665 0.930 . S
C678 C677 1.376 . S
C678 C679 1.388 . S
C679 H666 0.930 1_556 S
C679 C678 1.388 . S
C679 C680 1.390 . S
C680 C679 1.390 . S
C680 C681 1.394 . S
C680 C686 1.465 1_556 S
C681 C676 1.399 . S
C681 C680 1.394 . S
C681 C682 1.516 . S
C682 C681 1.516 . S
C682 C683 1.502 . S
C682 C684 1.561 1_556 S
C682 C685 1.526 1_556 S
C683 H667 0.959 . S
C683 H668 0.959 . S
C683 H669 0.961 . S
C683 C682 1.502 . S
C684 H670 0.960 1_554 S
C684 H671 0.961 . S
C684 H672 0.959 . S
C684 C682 1.561 1_554 S
C685 C682 1.526 1_554 S
C685 C686 1.396 . S
C685 C690 1.390 . S
C686 C680 1.465 1_554 S
C686 C685 1.396 . S
C686 C687 1.399 . S
C687 H673 0.929 . S
C687 C686 1.399 . S
C687 C688 1.385 . S
C688 H674 0.931 . S
C688 C687 1.385 . S
C688 C689 1.389 . S
C689 C688 1.389 . S
C689 C690 1.387 . S
C690 H675 0.930 . S
C690 C685 1.390 . S
C690 C689 1.387 . S
H691 C703 0.930 . S
H692 C705 0.930 . S
H693 C706 0.930 . S
H694 C710 0.959 . S
H695 C710 0.959 . S
H696 C710 0.961 . S
H697 C711 0.960 . S
H698 C711 0.961 . S
H699 C711 0.959 . S
H700 C714 0.929 . S
H701 C715 0.931 . S
H702 C717 0.930 . S
C703 H691 0.930 . S
C703 C704 1.399 . S
C703 C708 1.399 . S
C704 C703 1.399 . S
C704 C705 1.376 . S
C705 H692 0.930 . S
C705 C704 1.376 . S
C705 C706 1.388 . S
C706 H693 0.930 . S
C706 C705 1.388 . S
C706 C707 1.390 . S
C707 C706 1.390 . S
C707 C708 1.394 . S
C707 C713 1.465 . S
C708 C703 1.399 . S
C708 C707 1.394 . S
C708 C709 1.516 . S
C709 C708 1.516 . S
C709 C710 1.502 . S
C709 C711 1.561 . S
C709 C712 1.526 . S
C710 H694 0.959 . S
C710 H695 0.959 . S
C710 H696 0.961 . S
C710 C709 1.502 . S
C711 H697 0.960 . S
C711 H698 0.961 . S
C711 H699 0.959 . S
C711 C709 1.561 . S
C712 C709 1.526 . S
C712 C713 1.396 . S
C712 C717 1.390 . S
C713 C707 1.465 . S
C713 C712 1.396 . S
C713 C714 1.399 . S
C714 H700 0.929 . S
C714 C713 1.399 . S
C714 C715 1.385 . S
C715 H701 0.931 . S
C715 C714 1.385 . S
C715 C716 1.389 . S
C716 C715 1.389 . S
C716 C717 1.387 . S
C717 H702 0.930 . S
C717 C712 1.390 . S
C717 C716 1.387 . S
H718 C730 0.930 . S
H719 C732 0.930 . S
H720 C733 0.930 . S
H721 C737 0.959 . S
H722 C737 0.959 . S
H723 C737 0.961 . S
H724 C738 0.960 . S
H725 C738 0.961 . S
H726 C738 0.959 . S
H727 C741 0.929 . S
H728 C742 0.931 . S
H729 C744 0.930 . S
C730 H718 0.930 . S
C730 C731 1.399 . S
C730 C735 1.399 . S
C731 C730 1.399 . S
C731 C732 1.376 . S
C732 H719 0.930 . S
C732 C731 1.376 . S
C732 C733 1.388 . S
C733 H720 0.930 . S
C733 C732 1.388 . S
C733 C734 1.390 . S
C734 C733 1.390 . S
C734 C735 1.394 . S
C734 C740 1.465 . S
C735 C730 1.399 . S
C735 C734 1.394 . S
C735 C736 1.516 . S
C736 C735 1.516 . S
C736 C737 1.502 . S
C736 C738 1.561 . S
C736 C739 1.526 . S
C737 H721 0.959 . S
C737 H722 0.959 . S
C737 H723 0.961 . S
C737 C736 1.502 . S
C738 H724 0.960 . S
C738 H725 0.961 . S
C738 H726 0.959 . S
C738 C736 1.561 . S
C739 C736 1.526 . S
C739 C740 1.396 . S
C739 C744 1.390 . S
C740 C734 1.465 . S
C740 C739 1.396 . S
C740 C741 1.399 . S
C741 H727 0.929 . S
C741 C740 1.399 . S
C741 C742 1.385 . S
C742 H728 0.931 . S
C742 C741 1.385 . S
C742 C743 1.389 . S
C743 C742 1.389 . S
C743 C744 1.387 . S
C744 H729 0.930 . S
C744 C739 1.390 . S
C744 C743 1.387 . S
H745 C757 0.930 . S
H746 C759 0.930 . S
H747 C760 0.930 . S
H748 C764 0.959 . S
H749 C764 0.959 . S
H750 C764 0.961 . S
H751 C765 0.960 . S
H752 C765 0.961 . S
H753 C765 0.959 . S
H754 C768 0.929 . S
H755 C769 0.931 . S
H756 C771 0.930 . S
C757 H745 0.930 . S
C757 C758 1.399 . S
C757 C762 1.399 . S
C758 C757 1.399 . S
C758 C759 1.376 . S
C759 H746 0.930 . S
C759 C758 1.376 . S
C759 C760 1.388 . S
C760 H747 0.930 . S
C760 C759 1.388 . S
C760 C761 1.390 . S
C761 C760 1.390 . S
C761 C762 1.394 . S
C761 C767 1.465 . S
C762 C757 1.399 . S
C762 C761 1.394 . S
C762 C763 1.516 . S
C763 C762 1.516 . S
C763 C764 1.502 . S
C763 C765 1.561 . S
C763 C766 1.526 . S
C764 H748 0.959 . S
C764 H749 0.959 . S
C764 H750 0.961 . S
C764 C763 1.502 . S
C765 H751 0.960 . S
C765 H752 0.961 . S
C765 H753 0.959 . S
C765 C763 1.561 . S
C766 C763 1.526 . S
C766 C767 1.396 . S
C766 C771 1.390 . S
C767 C761 1.465 . S
C767 C766 1.396 . S
C767 C768 1.399 . S
C768 H754 0.929 . S
C768 C767 1.399 . S
C768 C769 1.385 . S
C769 H755 0.931 . S
C769 C768 1.385 . S
C769 C770 1.389 . S
C770 C769 1.389 . S
C770 C771 1.387 . S
C771 H756 0.930 . S
C771 C766 1.390 . S
C771 C770 1.387 . S
H772 C784 0.930 . S
H773 C786 0.930 . S
H774 C787 0.930 1_554 S
H775 C791 0.959 . S
H776 C791 0.959 . S
H777 C791 0.961 . S
H778 C792 0.960 . S
H779 C792 0.961 . S
H780 C792 0.959 . S
H781 C795 0.929 . S
H782 C796 0.931 . S
H783 C798 0.930 . S
C784 H772 0.930 . S
C784 C785 1.399 . S
C784 C789 1.399 . S
C785 C784 1.399 . S
C785 C786 1.376 . S
C786 H773 0.930 . S
C786 C785 1.376 . S
C786 C787 1.388 . S
C787 H774 0.930 1_556 S
C787 C786 1.388 . S
C787 C788 1.390 . S
C788 C787 1.390 . S
C788 C789 1.394 . S
C788 C794 1.465 1_556 S
C789 C784 1.399 . S
C789 C788 1.394 . S
C789 C790 1.516 . S
C790 C789 1.516 . S
C790 C791 1.502 . S
C790 C792 1.561 1_556 S
C790 C793 1.526 1_556 S
C791 H775 0.959 . S
C791 H776 0.959 . S
C791 H777 0.961 . S
C791 C790 1.502 . S
C792 H778 0.960 . S
C792 H779 0.961 . S
C792 H780 0.959 . S
C792 C790 1.561 1_554 S
C793 C790 1.526 1_554 S
C793 C794 1.396 . S
C793 C798 1.390 . S
C794 C788 1.465 1_554 S
C794 C793 1.396 . S
C794 C795 1.399 . S
C795 H781 0.929 . S
C795 C794 1.399 . S
C795 C796 1.385 . S
C796 H782 0.931 . S
C796 C795 1.385 . S
C796 C797 1.389 . S
C797 C796 1.389 . S
C797 C798 1.387 . S
C798 H783 0.930 . S
C798 C793 1.390 . S
C798 C797 1.387 . S
H799 C811 0.930 . S
H800 C813 0.930 . S
H801 C814 0.930 . S
H802 C818 0.959 . S
H803 C818 0.959 . S
H804 C818 0.961 . S
H805 C819 0.960 . S
H806 C819 0.961 . S
H807 C819 0.959 . S
H808 C822 0.929 . S
H809 C823 0.931 . S
H810 C825 0.930 . S
C811 H799 0.930 . S
C811 C812 1.399 . S
C811 C816 1.399 . S
C812 C811 1.399 . S
C812 C813 1.376 . S
C813 H800 0.930 . S
C813 C812 1.376 . S
C813 C814 1.388 . S
C814 H801 0.930 . S
C814 C813 1.388 . S
C814 C815 1.390 . S
C815 C814 1.390 . S
C815 C816 1.394 . S
C815 C821 1.465 . S
C816 C811 1.399 . S
C816 C815 1.394 . S
C816 C817 1.516 . S
C817 C816 1.516 . S
C817 C818 1.502 . S
C817 C819 1.561 . S
C817 C820 1.526 . S
C818 H802 0.959 . S
C818 H803 0.959 . S
C818 H804 0.961 . S
C818 C817 1.502 . S
C819 H805 0.960 . S
C819 H806 0.961 . S
C819 H807 0.959 . S
C819 C817 1.561 . S
C820 C817 1.526 . S
C820 C821 1.396 . S
C820 C825 1.390 . S
C821 C815 1.465 . S
C821 C820 1.396 . S
C821 C822 1.399 . S
C822 H808 0.929 . S
C822 C821 1.399 . S
C822 C823 1.385 . S
C823 H809 0.931 . S
C823 C822 1.385 . S
C823 C824 1.389 . S
C824 C823 1.389 . S
C824 C825 1.387 . S
C825 H810 0.930 . S
C825 C820 1.390 . S
C825 C824 1.387 . S
H826 C838 0.930 . S
H827 C840 0.930 . S
H828 C841 0.930 . S
H829 C845 0.959 . S
H830 C845 0.959 . S
H831 C845 0.961 . S
H832 C846 0.960 . S
H833 C846 0.961 . S
H834 C846 0.959 . S
H835 C849 0.929 . S
H836 C850 0.931 . S
H837 C852 0.930 . S
C838 H826 0.930 . S
C838 C839 1.399 . S
C838 C843 1.399 . S
C839 C838 1.399 . S
C839 C840 1.376 . S
C840 H827 0.930 . S
C840 C839 1.376 . S
C840 C841 1.388 . S
C841 H828 0.930 . S
C841 C840 1.388 . S
C841 C842 1.390 . S
C842 C841 1.390 . S
C842 C843 1.394 . S
C842 C848 1.465 . S
C843 C838 1.399 . S
C843 C842 1.394 . S
C843 C844 1.516 . S
C844 C843 1.516 . S
C844 C845 1.502 . S
C844 C846 1.561 . S
C844 C847 1.526 . S
C845 H829 0.959 . S
C845 H830 0.959 . S
C845 H831 0.961 . S
C845 C844 1.502 . S
C846 H832 0.960 . S
C846 H833 0.961 . S
C846 H834 0.959 . S
C846 C844 1.561 . S
C847 C844 1.526 . S
C847 C848 1.396 . S
C847 C852 1.390 . S
C848 C842 1.465 . S
C848 C847 1.396 . S
C848 C849 1.399 . S
C849 H835 0.929 . S
C849 C848 1.399 . S
C849 C850 1.385 . S
C850 H836 0.931 . S
C850 C849 1.385 . S
C850 C851 1.389 . S
C851 C850 1.389 . S
C851 C852 1.387 . S
C852 H837 0.930 . S
C852 C847 1.390 . S
C852 C851 1.387 . S
H853 C865 0.930 . S
H854 C867 0.930 . S
H855 C868 0.930 . S
H856 C872 0.959 . S
H857 C872 0.959 . S
H858 C872 0.961 . S
H859 C873 0.960 . S
H860 C873 0.961 . S
H861 C873 0.959 . S
H862 C876 0.929 . S
H863 C877 0.931 . S
H864 C879 0.930 . S
C865 H853 0.930 . S
C865 C866 1.399 . S
C865 C870 1.399 . S
C866 C865 1.399 . S
C866 C867 1.376 . S
C867 H854 0.930 . S
C867 C866 1.376 . S
C867 C868 1.388 . S
C868 H855 0.930 . S
C868 C867 1.388 . S
C868 C869 1.390 . S
C869 C868 1.390 . S
C869 C870 1.394 . S
C869 C875 1.465 . S
C870 C865 1.399 . S
C870 C869 1.394 . S
C870 C871 1.516 . S
C871 C870 1.516 . S
C871 C872 1.502 . S
C871 C873 1.561 . S
C871 C874 1.526 . S
C872 H856 0.959 . S
C872 H857 0.959 . S
C872 H858 0.961 . S
C872 C871 1.502 . S
C873 H859 0.960 . S
C873 H860 0.961 . S
C873 H861 0.959 . S
C873 C871 1.561 . S
C874 C871 1.526 . S
C874 C875 1.396 . S
C874 C879 1.390 . S
C875 C869 1.465 . S
C875 C874 1.396 . S
C875 C876 1.399 . S
C876 H862 0.929 . S
C876 C875 1.399 . S
C876 C877 1.385 . S
C877 H863 0.931 . S
C877 C876 1.385 . S
C877 C878 1.389 . S
C878 C877 1.389 . S
C878 C879 1.387 . S
C879 H864 0.930 . S
C879 C874 1.390 . S
C879 C878 1.387 . S
H880 C892 0.930 . S
H881 C894 0.930 . S
H882 C895 0.930 . S
H883 C899 0.959 . S
H884 C899 0.959 . S
H885 C899 0.961 . S
H886 C900 0.960 . S
H887 C900 0.961 . S
H888 C900 0.959 . S
H889 C903 0.929 . S
H890 C904 0.931 . S
H891 C906 0.930 . S
C892 H880 0.930 . S
C892 C893 1.399 . S
C892 C897 1.399 . S
C893 C892 1.399 . S
C893 C894 1.376 . S
C894 H881 0.930 . S
C894 C893 1.376 . S
C894 C895 1.388 . S
C895 H882 0.930 . S
C895 C894 1.388 . S
C895 C896 1.390 . S
C896 C895 1.390 . S
C896 C897 1.394 . S
C896 C902 1.465 1_556 S
C897 C892 1.399 . S
C897 C896 1.394 . S
C897 C898 1.516 1_556 S
C898 C897 1.516 1_554 S
C898 C899 1.502 . S
C898 C900 1.561 1_554 S
C898 C901 1.526 . S
C899 H883 0.959 . S
C899 H884 0.959 . S
C899 H885 0.961 . S
C899 C898 1.502 . S
C900 H886 0.960 . S
C900 H887 0.961 . S
C900 H888 0.959 . S
C900 C898 1.561 1_556 S
C901 C898 1.526 . S
C901 C902 1.396 . S
C901 C906 1.390 . S
C902 C896 1.465 1_554 S
C902 C901 1.396 . S
C902 C903 1.399 . S
C903 H889 0.929 . S
C903 C902 1.399 . S
C903 C904 1.385 . S
C904 H890 0.931 . S
C904 C903 1.385 . S
C904 C905 1.389 . S
C905 C904 1.389 . S
C905 C906 1.387 . S
C906 H891 0.930 . S
C906 C901 1.390 . S
C906 C905 1.387 . S
H907 C919 0.930 . S
H908 C921 0.930 . S
H909 C922 0.930 . S
H910 C926 0.959 . S
H911 C926 0.959 . S
H912 C926 0.961 . S
H913 C927 0.960 . S
H914 C927 0.961 . S
H915 C927 0.959 . S
H916 C930 0.929 . S
H917 C931 0.931 . S
H918 C933 0.930 . S
C919 H907 0.930 . S
C919 C920 1.399 . S
C919 C924 1.399 . S
C920 C919 1.399 . S
C920 C921 1.376 . S
C921 H908 0.930 . S
C921 C920 1.376 . S
C921 C922 1.388 . S
C922 H909 0.930 . S
C922 C921 1.388 . S
C922 C923 1.390 . S
C923 C922 1.390 . S
C923 C924 1.394 . S
C923 C929 1.465 . S
C924 C919 1.399 . S
C924 C923 1.394 . S
C924 C925 1.516 . S
C925 C924 1.516 . S
C925 C926 1.502 . S
C925 C927 1.561 . S
C925 C928 1.526 . S
C926 H910 0.959 . S
C926 H911 0.959 . S
C926 H912 0.961 . S
C926 C925 1.502 . S
C927 H913 0.960 . S
C927 H914 0.961 . S
C927 H915 0.959 . S
C927 C925 1.561 . S
C928 C925 1.526 . S
C928 C929 1.396 . S
C928 C933 1.390 . S
C929 C923 1.465 . S
C929 C928 1.396 . S
C929 C930 1.399 . S
C930 H916 0.929 . S
C930 C929 1.399 . S
C930 C931 1.385 . S
C931 H917 0.931 . S
C931 C930 1.385 . S
C931 C932 1.389 . S
C932 C931 1.389 . S
C932 C933 1.387 . S
C933 H918 0.930 . S
C933 C928 1.390 . S
C933 C932 1.387 . S
H934 C946 0.930 . S
H935 C948 0.930 . S
H936 C949 0.930 . S
H937 C953 0.959 . S
H938 C953 0.959 . S
H939 C953 0.961 . S
H940 C954 0.960 . S
H941 C954 0.961 . S
H942 C954 0.959 . S
H943 C957 0.929 . S
H944 C958 0.931 . S
H945 C960 0.930 . S
C946 H934 0.930 . S
C946 C947 1.399 . S
C946 C951 1.399 . S
C947 C946 1.399 . S
C947 C948 1.376 . S
C948 H935 0.930 . S
C948 C947 1.376 . S
C948 C949 1.388 . S
C949 H936 0.930 . S
C949 C948 1.388 . S
C949 C950 1.390 . S
C950 C949 1.390 . S
C950 C951 1.394 . S
C950 C956 1.465 . S
C951 C946 1.399 . S
C951 C950 1.394 . S
C951 C952 1.516 . S
C952 C951 1.516 . S
C952 C953 1.502 . S
C952 C954 1.561 . S
C952 C955 1.526 . S
C953 H937 0.959 . S
C953 H938 0.959 . S
C953 H939 0.961 . S
C953 C952 1.502 . S
C954 H940 0.960 . S
C954 H941 0.961 . S
C954 H942 0.959 . S
C954 C952 1.561 . S
C955 C952 1.526 . S
C955 C956 1.396 . S
C955 C960 1.390 . S
C956 C950 1.465 . S
C956 C955 1.396 . S
C956 C957 1.399 . S
C957 H943 0.929 . S
C957 C956 1.399 . S
C957 C958 1.385 . S
C958 H944 0.931 . S
C958 C957 1.385 . S
C958 C959 1.389 . S
C959 C958 1.389 . S
C959 C960 1.387 . S
C960 H945 0.930 . S
C960 C955 1.390 . S
C960 C959 1.387 . S
H961 C973 0.930 . S
H962 C975 0.930 . S
H963 C976 0.930 . S
H964 C980 0.959 . S
H965 C980 0.959 . S
H966 C980 0.961 . S
H967 C981 0.960 . S
H968 C981 0.961 . S
H969 C981 0.959 . S
H970 C984 0.929 . S
H971 C985 0.931 . S
H972 C987 0.930 . S
C973 H961 0.930 . S
C973 C974 1.399 . S
C973 C978 1.399 . S
C974 C973 1.399 . S
C974 C975 1.376 . S
C975 H962 0.930 . S
C975 C974 1.376 . S
C975 C976 1.388 . S
C976 H963 0.930 . S
C976 C975 1.388 . S
C976 C977 1.390 . S
C977 C976 1.390 . S
C977 C978 1.394 . S
C977 C983 1.465 1_556 S
C978 C973 1.399 . S
C978 C977 1.394 . S
C978 C979 1.516 . S
C979 C978 1.516 . S
C979 C980 1.502 . S
C979 C981 1.561 1_556 S
C979 C982 1.526 1_556 S
C980 H964 0.959 . S
C980 H965 0.959 . S
C980 H966 0.961 . S
C980 C979 1.502 . S
C981 H967 0.960 . S
C981 H968 0.961 . S
C981 H969 0.959 . S
C981 C979 1.561 1_554 S
C982 C979 1.526 1_554 S
C982 C983 1.396 . S
C982 C987 1.390 . S
C983 C977 1.465 1_554 S
C983 C982 1.396 . S
C983 C984 1.399 . S
C984 H970 0.929 . S
C984 C983 1.399 . S
C984 C985 1.385 . S
C985 H971 0.931 . S
C985 C984 1.385 . S
C985 C986 1.389 . S
C986 C985 1.389 . S
C986 C987 1.387 . S
C987 H972 0.930 . S
C987 C982 1.390 . S
C987 C986 1.387 . S
H988 C1000 0.930 . S
H989 C1002 0.930 . S
H990 C1003 0.930 . S
H991 C1007 0.959 . S
H992 C1007 0.959 . S
H993 C1007 0.961 . S
H994 C1008 0.960 . S
H995 C1008 0.961 . S
H996 C1008 0.959 . S
H997 C1011 0.929 . S
H998 C1012 0.931 . S
H999 C1014 0.930 . S
C1000 H988 0.930 . S
C1000 C1001 1.399 . S
C1000 C1005 1.399 . S
C1001 C1000 1.399 . S
C1001 C1002 1.376 . S
C1002 H989 0.930 . S
C1002 C1001 1.376 . S
C1002 C1003 1.388 . S
C1003 H990 0.930 . S
C1003 C1002 1.388 . S
C1003 C1004 1.390 . S
C1004 C1003 1.390 . S
C1004 C1005 1.394 . S
C1004 C1010 1.465 1_554 S
C1005 C1000 1.399 . S
C1005 C1004 1.394 . S
C1005 C1006 1.516 1_554 S
C1006 C1005 1.516 1_556 S
C1006 C1007 1.502 . S
C1006 C1008 1.561 1_556 S
C1006 C1009 1.526 . S
C1007 H991 0.959 . S
C1007 H992 0.959 . S
C1007 H993 0.961 . S
C1007 C1006 1.502 . S
C1008 H994 0.960 . S
C1008 H995 0.961 . S
C1008 H996 0.959 . S
C1008 C1006 1.561 1_554 S
C1009 C1006 1.526 . S
C1009 C1010 1.396 . S
C1009 C1014 1.390 . S
C1010 C1004 1.465 1_556 S
C1010 C1009 1.396 . S
C1010 C1011 1.399 . S
C1011 H997 0.929 . S
C1011 C1010 1.399 . S
C1011 C1012 1.385 . S
C1012 H998 0.931 . S
C1012 C1011 1.385 . S
C1012 C1013 1.389 . S
C1013 C1012 1.389 . S
C1013 C1014 1.387 . S
C1014 H999 0.930 . S
C1014 C1009 1.390 . S
C1014 C1013 1.387 . S
H1015 C1027 0.930 . S
H1016 C1029 0.930 . S
H1017 C1030 0.930 . S
H1018 C1034 0.959 . S
H1019 C1034 0.959 . S
H1020 C1034 0.961 . S
H1021 C1035 0.960 . S
H1022 C1035 0.961 . S
H1023 C1035 0.959 . S
H1024 C1038 0.929 . S
H1025 C1039 0.931 . S
H1026 C1041 0.930 . S
C1027 H1015 0.930 . S
C1027 C1028 1.399 . S
C1027 C1032 1.399 . S
C1028 C1027 1.399 . S
C1028 C1029 1.376 . S
C1029 H1016 0.930 . S
C1029 C1028 1.376 . S
C1029 C1030 1.388 . S
C1030 H1017 0.930 . S
C1030 C1029 1.388 . S
C1030 C1031 1.390 . S
C1031 C1030 1.390 . S
C1031 C1032 1.394 . S
C1031 C1037 1.465 . S
C1032 C1027 1.399 . S
C1032 C1031 1.394 . S
C1032 C1033 1.516 . S
C1033 C1032 1.516 . S
C1033 C1034 1.502 . S
C1033 C1035 1.561 . S
C1033 C1036 1.526 . S
C1034 H1018 0.959 . S
C1034 H1019 0.959 . S
C1034 H1020 0.961 . S
C1034 C1033 1.502 . S
C1035 H1021 0.960 . S
C1035 H1022 0.961 . S
C1035 H1023 0.959 . S
C1035 C1033 1.561 . S
C1036 C1033 1.526 . S
C1036 C1037 1.396 . S
C1036 C1041 1.390 . S
C1037 C1031 1.465 . S
C1037 C1036 1.396 . S
C1037 C1038 1.399 . S
C1038 H1024 0.929 . S
C1038 C1037 1.399 . S
C1038 C1039 1.385 . S
C1039 H1025 0.931 . S
C1039 C1038 1.385 . S
C1039 C1040 1.389 . S
C1040 C1039 1.389 . S
C1040 C1041 1.387 . S
C1041 H1026 0.930 . S
C1041 C1036 1.390 . S
C1041 C1040 1.387 . S
H1042 C1054 0.930 . S
H1043 C1056 0.930 . S
H1044 C1057 0.930 . S
H1045 C1061 0.959 . S
H1046 C1061 0.959 . S
H1047 C1061 0.961 . S
H1048 C1062 0.960 . S
H1049 C1062 0.961 . S
H1050 C1062 0.959 . S
H1051 C1065 0.929 . S
H1052 C1066 0.931 . S
H1053 C1068 0.930 . S
C1054 H1042 0.930 . S
C1054 C1055 1.399 . S
C1054 C1059 1.399 . S
C1055 C1054 1.399 . S
C1055 C1056 1.376 . S
C1056 H1043 0.930 . S
C1056 C1055 1.376 . S
C1056 C1057 1.388 . S
C1057 H1044 0.930 . S
C1057 C1056 1.388 . S
C1057 C1058 1.390 . S
C1058 C1057 1.390 . S
C1058 C1059 1.394 . S
C1058 C1064 1.465 . S
C1059 C1054 1.399 . S
C1059 C1058 1.394 . S
C1059 C1060 1.516 . S
C1060 C1059 1.516 . S
C1060 C1061 1.502 . S
C1060 C1062 1.561 . S
C1060 C1063 1.526 . S
C1061 H1045 0.959 . S
C1061 H1046 0.959 . S
C1061 H1047 0.961 . S
C1061 C1060 1.502 . S
C1062 H1048 0.960 . S
C1062 H1049 0.961 . S
C1062 H1050 0.959 . S
C1062 C1060 1.561 . S
C1063 C1060 1.526 . S
C1063 C1064 1.396 . S
C1063 C1068 1.390 . S
C1064 C1058 1.465 . S
C1064 C1063 1.396 . S
C1064 C1065 1.399 . S
C1065 H1051 0.929 . S
C1065 C1064 1.399 . S
C1065 C1066 1.385 . S
C1066 H1052 0.931 . S
C1066 C1065 1.385 . S
C1066 C1067 1.389 . S
C1067 C1066 1.389 . S
C1067 C1068 1.387 . S
C1068 H1053 0.930 . S
C1068 C1063 1.390 . S
C1068 C1067 1.387 . S
H1069 C1081 0.930 . S
H1070 C1083 0.930 . S
H1071 C1084 0.930 . S
H1072 C1088 0.960 . S
H1073 C1088 0.959 1_554 S
H1074 C1088 0.961 . S
H1075 C1089 0.960 . S
H1076 C1089 0.961 . S
H1077 C1089 0.959 . S
H1078 C1092 0.929 . S
H1079 C1093 0.931 . S
H1080 C1095 0.930 . S
C1081 H1069 0.930 . S
C1081 C1082 1.399 . S
C1081 C1086 1.399 . S
C1082 C1081 1.399 . S
C1082 C1083 1.376 . S
C1083 H1070 0.930 . S
C1083 C1082 1.376 . S
C1083 C1084 1.388 . S
C1084 H1071 0.930 . S
C1084 C1083 1.388 . S
C1084 C1085 1.390 1_556 S
C1085 C1084 1.390 1_554 S
C1085 C1086 1.394 1_554 S
C1085 C1091 1.465 . S
C1086 C1081 1.399 . S
C1086 C1085 1.394 1_556 S
C1086 C1087 1.516 1_556 S
C1087 C1086 1.516 1_554 S
C1087 C1088 1.501 1_554 S
C1087 C1089 1.561 . S
C1087 C1090 1.526 . S
C1088 H1072 0.960 . S
C1088 H1073 0.959 1_556 S
C1088 H1074 0.961 . S
C1088 C1087 1.501 1_556 S
C1089 H1075 0.960 . S
C1089 H1076 0.961 . S
C1089 H1077 0.959 . S
C1089 C1087 1.561 . S
C1090 C1087 1.526 . S
C1090 C1091 1.396 . S
C1090 C1095 1.390 . S
C1091 C1085 1.465 . S
C1091 C1090 1.396 . S
C1091 C1092 1.399 . S
C1092 H1078 0.929 . S
C1092 C1091 1.399 . S
C1092 C1093 1.385 . S
C1093 H1079 0.931 . S
C1093 C1092 1.385 . S
C1093 C1094 1.389 . S
C1094 C1093 1.389 . S
C1094 C1095 1.387 . S
C1095 H1080 0.930 . S
C1095 C1090 1.390 . S
C1095 C1094 1.387 . S
H1096 C1108 0.930 . S
H1097 C1110 0.930 . S
H1098 C1111 0.930 . S
H1099 C1115 0.959 . S
H1100 C1115 0.959 . S
H1101 C1115 0.961 . S
H1102 C1116 0.960 . S
H1103 C1116 0.961 . S
H1104 C1116 0.959 . S
H1105 C1119 0.929 . S
H1106 C1120 0.931 . S
H1107 C1122 0.930 . S
C1108 H1096 0.930 . S
C1108 C1109 1.399 . S
C1108 C1113 1.399 . S
C1109 C1108 1.399 . S
C1109 C1110 1.376 . S
C1110 H1097 0.930 . S
C1110 C1109 1.376 . S
C1110 C1111 1.388 . S
C1111 H1098 0.930 . S
C1111 C1110 1.388 . S
C1111 C1112 1.390 . S
C1112 C1111 1.390 . S
C1112 C1113 1.394 . S
C1112 C1118 1.465 . S
C1113 C1108 1.399 . S
C1113 C1112 1.394 . S
C1113 C1114 1.516 . S
C1114 C1113 1.516 . S
C1114 C1115 1.502 . S
C1114 C1116 1.561 . S
C1114 C1117 1.526 . S
C1115 H1099 0.959 . S
C1115 H1100 0.959 . S
C1115 H1101 0.961 . S
C1115 C1114 1.502 . S
C1116 H1102 0.960 . S
C1116 H1103 0.961 . S
C1116 H1104 0.959 . S
C1116 C1114 1.561 . S
C1117 C1114 1.526 . S
C1117 C1118 1.396 . S
C1117 C1122 1.390 . S
C1118 C1112 1.465 . S
C1118 C1117 1.396 . S
C1118 C1119 1.399 . S
C1119 H1105 0.929 . S
C1119 C1118 1.399 . S
C1119 C1120 1.385 . S
C1120 H1106 0.931 . S
C1120 C1119 1.385 . S
C1120 C1121 1.389 . S
C1121 C1120 1.389 . S
C1121 C1122 1.387 . S
C1122 H1107 0.930 . S
C1122 C1117 1.390 . S
C1122 C1121 1.387 . S
H1123 C1135 0.930 1_556 S
H1124 C1137 0.930 . S
H1125 C1138 0.930 . S
H1126 C1142 0.959 . S
H1127 C1142 0.959 . S
H1128 C1142 0.961 . S
H1129 C1143 0.960 . S
H1130 C1143 0.961 . S
H1131 C1143 0.959 . S
H1132 C1146 0.929 1_554 S
H1133 C1147 0.931 . S
H1134 C1149 0.930 . S
C1135 H1123 0.930 1_554 S
C1135 C1136 1.399 . S
C1135 C1140 1.399 1_554 S
C1136 C1135 1.399 . S
C1136 C1137 1.376 . S
C1137 H1124 0.930 . S
C1137 C1136 1.376 . S
C1137 C1138 1.388 . S
C1138 H1125 0.930 . S
C1138 C1137 1.388 . S
C1138 C1139 1.390 . S
C1139 C1138 1.390 . S
C1139 C1140 1.394 1_554 S
C1139 C1145 1.465 1_554 S
C1140 C1135 1.399 1_556 S
C1140 C1139 1.394 1_556 S
C1140 C1141 1.516 . S
C1141 C1140 1.516 . S
C1141 C1142 1.502 . S
C1141 C1143 1.561 . S
C1141 C1144 1.526 . S
C1142 H1126 0.959 . S
C1142 H1127 0.959 . S
C1142 H1128 0.961 . S
C1142 C1141 1.502 . S
C1143 H1129 0.960 . S
C1143 H1130 0.961 . S
C1143 H1131 0.959 . S
C1143 C1141 1.561 . S
C1144 C1141 1.526 . S
C1144 C1145 1.396 . S
C1144 C1149 1.390 . S
C1145 C1139 1.465 1_556 S
C1145 C1144 1.396 . S
C1145 C1146 1.399 . S
C1146 H1132 0.929 1_556 S
C1146 C1145 1.399 . S
C1146 C1147 1.385 . S
C1147 H1133 0.931 . S
C1147 C1146 1.385 . S
C1147 C1148 1.389 . S
C1148 C1147 1.389 . S
C1148 C1149 1.387 . S
C1149 H1134 0.930 . S
C1149 C1144 1.390 . S
C1149 C1148 1.387 . S
H1150 C1162 0.930 . S
H1151 C1164 0.930 . S
H1152 C1165 0.930 . S
H1153 C1169 0.959 . S
H1154 C1169 0.959 . S
H1155 C1169 0.961 . S
H1156 C1170 0.957 1_554 S
H1157 C1170 0.961 . S
H1158 C1170 0.959 . S
H1159 C1173 0.929 . S
H1160 C1174 0.931 . S
H1161 C1176 0.930 . S
C1162 H1150 0.930 . S
C1162 C1163 1.399 . S
C1162 C1167 1.399 . S
C1163 C1162 1.399 . S
C1163 C1164 1.376 . S
C1164 H1151 0.930 . S
C1164 C1163 1.376 . S
C1164 C1165 1.388 . S
C1165 H1152 0.930 . S
C1165 C1164 1.388 . S
C1165 C1166 1.390 . S
C1166 C1165 1.390 . S
C1166 C1167 1.394 . S
C1166 C1172 1.465 1_554 S
C1167 C1162 1.399 . S
C1167 C1166 1.394 . S
C1167 C1168 1.516 . S
C1168 C1167 1.516 . S
C1168 C1169 1.502 . S
C1168 C1170 1.561 1_554 S
C1168 C1171 1.526 1_554 S
C1169 H1153 0.959 . S
C1169 H1154 0.959 . S
C1169 H1155 0.961 . S
C1169 C1168 1.502 . S
C1170 H1156 0.957 1_556 S
C1170 H1157 0.961 . S
C1170 H1158 0.959 . S
C1170 C1168 1.561 1_556 S
C1171 C1168 1.526 1_556 S
C1171 C1172 1.396 . S
C1171 C1176 1.390 . S
C1172 C1166 1.465 1_556 S
C1172 C1171 1.396 . S
C1172 C1173 1.399 . S
C1173 H1159 0.929 . S
C1173 C1172 1.399 . S
C1173 C1174 1.385 . S
C1174 H1160 0.931 . S
C1174 C1173 1.385 . S
C1174 C1175 1.389 . S
C1175 C1174 1.389 . S
C1175 C1176 1.387 . S
C1176 H1161 0.930 . S
C1176 C1171 1.390 . S
C1176 C1175 1.387 . S
H1177 C1189 0.930 . S
H1178 C1191 0.930 . S
H1179 C1192 0.930 . S
H1180 C1196 0.959 . S
H1181 C1196 0.959 . S
H1182 C1196 0.961 . S
H1183 C1197 0.960 . S
H1184 C1197 0.961 . S
H1185 C1197 0.959 . S
H1186 C1200 0.929 . S
H1187 C1201 0.931 . S
H1188 C1203 0.930 . S
C1189 H1177 0.930 . S
C1189 C1190 1.399 . S
C1189 C1194 1.399 . S
C1190 C1189 1.399 . S
C1190 C1191 1.376 . S
C1191 H1178 0.930 . S
C1191 C1190 1.376 . S
C1191 C1192 1.388 . S
C1192 H1179 0.930 . S
C1192 C1191 1.388 . S
C1192 C1193 1.390 . S
C1193 C1192 1.390 . S
C1193 C1194 1.394 . S
C1193 C1199 1.465 . S
C1194 C1189 1.399 . S
C1194 C1193 1.394 . S
C1194 C1195 1.516 . S
C1195 C1194 1.516 . S
C1195 C1196 1.502 . S
C1195 C1197 1.561 . S
C1195 C1198 1.526 . S
C1196 H1180 0.959 . S
C1196 H1181 0.959 . S
C1196 H1182 0.961 . S
C1196 C1195 1.502 . S
C1197 H1183 0.960 . S
C1197 H1184 0.961 . S
C1197 H1185 0.959 . S
C1197 C1195 1.561 . S
C1198 C1195 1.526 . S
C1198 C1199 1.396 . S
C1198 C1203 1.390 . S
C1199 C1193 1.465 . S
C1199 C1198 1.396 . S
C1199 C1200 1.399 . S
C1200 H1186 0.929 . S
C1200 C1199 1.399 . S
C1200 C1201 1.385 . S
C1201 H1187 0.931 . S
C1201 C1200 1.385 . S
C1201 C1202 1.389 . S
C1202 C1201 1.389 . S
C1202 C1203 1.387 . S
C1203 H1188 0.930 . S
C1203 C1198 1.390 . S
C1203 C1202 1.387 . S
H1204 C1216 0.930 . S
H1205 C1218 0.930 . S
H1206 C1219 0.930 . S
H1207 C1223 0.959 . S
H1208 C1223 0.959 . S
H1209 C1223 0.961 . S
H1210 C1224 0.960 . S
H1211 C1224 0.961 . S
H1212 C1224 0.959 . S
H1213 C1227 0.929 . S
H1214 C1228 0.931 . S
H1215 C1230 0.930 . S
C1216 H1204 0.930 . S
C1216 C1217 1.399 . S
C1216 C1221 1.399 . S
C1217 C1216 1.399 . S
C1217 C1218 1.376 . S
C1218 H1205 0.930 . S
C1218 C1217 1.376 . S
C1218 C1219 1.388 . S
C1219 H1206 0.930 . S
C1219 C1218 1.388 . S
C1219 C1220 1.390 . S
C1220 C1219 1.390 . S
C1220 C1221 1.394 . S
C1220 C1226 1.465 . S
C1221 C1216 1.399 . S
C1221 C1220 1.394 . S
C1221 C1222 1.516 . S
C1222 C1221 1.516 . S
C1222 C1223 1.502 . S
C1222 C1224 1.561 . S
C1222 C1225 1.526 . S
C1223 H1207 0.959 . S
C1223 H1208 0.959 . S
C1223 H1209 0.961 . S
C1223 C1222 1.502 . S
C1224 H1210 0.960 . S
C1224 H1211 0.961 . S
C1224 H1212 0.959 . S
C1224 C1222 1.561 . S
C1225 C1222 1.526 . S
C1225 C1226 1.396 . S
C1225 C1230 1.390 . S
C1226 C1220 1.465 . S
C1226 C1225 1.396 . S
C1226 C1227 1.399 . S
C1227 H1213 0.929 . S
C1227 C1226 1.399 . S
C1227 C1228 1.385 . S
C1228 H1214 0.931 . S
C1228 C1227 1.385 . S
C1228 C1229 1.389 . S
C1229 C1228 1.389 . S
C1229 C1230 1.387 . S
C1230 H1215 0.930 . S
C1230 C1225 1.390 . S
C1230 C1229 1.387 . S
H1231 C1243 0.930 . S
H1232 C1245 0.930 1_554 S
H1233 C1246 0.930 . S
H1234 C1250 0.959 . S
H1235 C1250 0.959 . S
H1236 C1250 0.961 . S
H1237 C1251 0.960 . S
H1238 C1251 0.961 . S
H1239 C1251 0.959 . S
H1240 C1254 0.929 . S
H1241 C1255 0.931 . S
H1242 C1257 0.930 . S
C1243 H1231 0.930 . S
C1243 C1244 1.399 . S
C1243 C1248 1.399 . S
C1244 C1243 1.399 . S
C1244 C1245 1.376 . S
C1245 H1232 0.930 1_556 S
C1245 C1244 1.376 . S
C1245 C1246 1.388 1_556 S
C1246 H1233 0.930 . S
C1246 C1245 1.388 1_554 S
C1246 C1247 1.390 . S
C1247 C1246 1.390 . S
C1247 C1248 1.394 1_554 S
C1247 C1253 1.465 . S
C1248 C1243 1.399 . S
C1248 C1247 1.394 1_556 S
C1248 C1249 1.516 . S
C1249 C1248 1.516 . S
C1249 C1250 1.502 . S
C1249 C1251 1.561 . S
C1249 C1252 1.526 1_556 S
C1250 H1234 0.959 . S
C1250 H1235 0.959 . S
C1250 H1236 0.961 . S
C1250 C1249 1.502 . S
C1251 H1237 0.960 . S
C1251 H1238 0.961 . S
C1251 H1239 0.959 . S
C1251 C1249 1.561 . S
C1252 C1249 1.526 1_554 S
C1252 C1253 1.396 . S
C1252 C1257 1.390 . S
C1253 C1247 1.465 . S
C1253 C1252 1.396 . S
C1253 C1254 1.399 . S
C1254 H1240 0.929 . S
C1254 C1253 1.399 . S
C1254 C1255 1.385 . S
C1255 H1241 0.931 . S
C1255 C1254 1.385 . S
C1255 C1256 1.389 . S
C1256 C1255 1.389 . S
C1256 C1257 1.387 . S
C1257 H1242 0.930 . S
C1257 C1252 1.390 . S
C1257 C1256 1.387 . S
H1258 C1270 0.930 . S
H1259 C1272 0.930 . S
H1260 C1273 0.930 . S
H1261 C1277 0.959 . S
H1262 C1277 0.959 . S
H1263 C1277 0.961 . S
H1264 C1278 0.960 . S
H1265 C1278 0.961 1_554 S
H1266 C1278 0.959 . S
H1267 C1281 0.929 . S
H1268 C1282 0.931 . S
H1269 C1284 0.930 . S
C1270 H1258 0.930 . S
C1270 C1271 1.399 . S
C1270 C1275 1.399 . S
C1271 C1270 1.399 . S
C1271 C1272 1.376 . S
C1272 H1259 0.930 . S
C1272 C1271 1.376 . S
C1272 C1273 1.388 . S
C1273 H1260 0.930 . S
C1273 C1272 1.388 . S
C1273 C1274 1.390 . S
C1274 C1273 1.390 . S
C1274 C1275 1.394 . S
C1274 C1280 1.465 . S
C1275 C1270 1.399 . S
C1275 C1274 1.394 . S
C1275 C1276 1.516 1_556 S
C1276 C1275 1.516 1_554 S
C1276 C1277 1.502 . S
C1276 C1278 1.561 1_554 S
C1276 C1279 1.526 . S
C1277 H1261 0.959 . S
C1277 H1262 0.959 . S
C1277 H1263 0.961 . S
C1277 C1276 1.502 . S
C1278 H1264 0.960 . S
C1278 H1265 0.961 1_556 S
C1278 H1266 0.959 . S
C1278 C1276 1.561 1_556 S
C1279 C1276 1.526 . S
C1279 C1280 1.396 1_554 S
C1279 C1284 1.390 . S
C1280 C1274 1.465 . S
C1280 C1279 1.396 1_556 S
C1280 C1281 1.399 . S
C1281 H1267 0.929 . S
C1281 C1280 1.399 . S
C1281 C1282 1.385 1_556 S
C1282 H1268 0.931 . S
C1282 C1281 1.385 1_554 S
C1282 C1283 1.389 . S
C1283 C1282 1.389 . S
C1283 C1284 1.387 . S
C1284 H1269 0.930 . S
C1284 C1279 1.390 . S
C1284 C1283 1.387 . S
H1285 C1297 0.930 . S
H1286 C1299 0.930 . S
H1287 C1300 0.930 . S
H1288 C1304 0.959 . S
H1289 C1304 0.959 . S
H1290 C1304 0.961 . S
H1291 C1305 0.960 . S
H1292 C1305 0.961 . S
H1293 C1305 0.959 . S
H1294 C1308 0.929 . S
H1295 C1309 0.931 . S
H1296 C1311 0.930 . S
C1297 H1285 0.930 . S
C1297 C1298 1.399 . S
C1297 C1302 1.399 . S
C1298 C1297 1.399 . S
C1298 C1299 1.376 . S
C1299 H1286 0.930 . S
C1299 C1298 1.376 . S
C1299 C1300 1.388 . S
C1300 H1287 0.930 . S
C1300 C1299 1.388 . S
C1300 C1301 1.390 . S
C1301 C1300 1.390 . S
C1301 C1302 1.394 . S
C1301 C1307 1.465 . S
C1302 C1297 1.399 . S
C1302 C1301 1.394 . S
C1302 C1303 1.516 . S
C1303 C1302 1.516 . S
C1303 C1304 1.502 . S
C1303 C1305 1.561 . S
C1303 C1306 1.526 . S
C1304 H1288 0.959 . S
C1304 H1289 0.959 . S
C1304 H1290 0.961 . S
C1304 C1303 1.502 . S
C1305 H1291 0.960 . S
C1305 H1292 0.961 . S
C1305 H1293 0.959 . S
C1305 C1303 1.561 . S
C1306 C1303 1.526 . S
C1306 C1307 1.396 . S
C1306 C1311 1.390 . S
C1307 C1301 1.465 . S
C1307 C1306 1.396 . S
C1307 C1308 1.399 . S
C1308 H1294 0.929 . S
C1308 C1307 1.399 . S
C1308 C1309 1.385 . S
C1309 H1295 0.931 . S
C1309 C1308 1.385 . S
C1309 C1310 1.389 . S
C1310 C1309 1.389 . S
C1310 C1311 1.387 . S
C1311 H1296 0.930 . S
C1311 C1306 1.390 . S
C1311 C1310 1.387 . S
H1312 C1324 0.930 . S
H1313 C1326 0.930 . S
H1314 C1327 0.930 . S
H1315 C1331 0.959 . S
H1316 C1331 0.959 . S
H1317 C1331 0.961 . S
H1318 C1332 0.960 . S
H1319 C1332 0.961 . S
H1320 C1332 0.959 . S
H1321 C1335 0.929 1_554 S
H1322 C1336 0.931 . S
H1323 C1338 0.930 . S
C1324 H1312 0.930 . S
C1324 C1325 1.399 . S
C1324 C1329 1.399 1_554 S
C1325 C1324 1.399 . S
C1325 C1326 1.376 . S
C1326 H1313 0.930 . S
C1326 C1325 1.376 . S
C1326 C1327 1.388 . S
C1327 H1314 0.930 . S
C1327 C1326 1.388 . S
C1327 C1328 1.390 . S
C1328 C1327 1.390 . S
C1328 C1329 1.394 1_554 S
C1328 C1334 1.465 1_554 S
C1329 C1324 1.399 1_556 S
C1329 C1328 1.394 1_556 S
C1329 C1330 1.516 . S
C1330 C1329 1.516 . S
C1330 C1331 1.502 . S
C1330 C1332 1.561 . S
C1330 C1333 1.526 . S
C1331 H1315 0.959 . S
C1331 H1316 0.959 . S
C1331 H1317 0.961 . S
C1331 C1330 1.502 . S
C1332 H1318 0.960 . S
C1332 H1319 0.961 . S
C1332 H1320 0.959 . S
C1332 C1330 1.561 . S
C1333 C1330 1.526 . S
C1333 C1334 1.396 . S
C1333 C1338 1.390 . S
C1334 C1328 1.465 1_556 S
C1334 C1333 1.396 . S
C1334 C1335 1.399 . S
C1335 H1321 0.929 1_556 S
C1335 C1334 1.399 . S
C1335 C1336 1.385 . S
C1336 H1322 0.931 . S
C1336 C1335 1.385 . S
C1336 C1337 1.389 . S
C1337 C1336 1.389 . S
C1337 C1338 1.387 . S
C1338 H1323 0.930 . S
C1338 C1333 1.390 . S
C1338 C1337 1.387 . S
H1339 C1351 0.930 . S
H1340 C1353 0.930 . S
H1341 C1354 0.930 1_455 S
H1342 C1358 0.959 . S
H1343 C1358 0.959 . S
H1344 C1358 0.961 . S
H1345 C1359 0.960 . S
H1346 C1359 0.961 1_455 S
H1347 C1359 0.959 1_455 S
H1348 C1362 0.929 . S
H1349 C1363 0.931 . S
H1350 C1365 0.930 . S
C1351 H1339 0.930 . S
C1351 C1352 1.399 . S
C1351 C1356 1.399 . S
C1352 C1351 1.399 . S
C1352 C1353 1.376 . S
C1353 H1340 0.930 . S
C1353 C1352 1.376 . S
C1353 C1354 1.388 . S
C1354 H1341 0.930 1_655 S
C1354 C1353 1.388 . S
C1354 C1355 1.390 . S
C1355 C1354 1.390 . S
C1355 C1356 1.394 . S
C1355 C1361 1.465 1_655 S
C1356 C1351 1.399 . S
C1356 C1355 1.394 . S
C1356 C1357 1.516 . S
C1357 C1356 1.516 . S
C1357 C1358 1.502 . S
C1357 C1359 1.561 . S
C1357 C1360 1.526 1_655 S
C1358 H1342 0.959 . S
C1358 H1343 0.959 . S
C1358 H1344 0.961 . S
C1358 C1357 1.502 . S
C1359 H1345 0.960 . S
C1359 H1346 0.961 1_655 S
C1359 H1347 0.959 1_655 S
C1359 C1357 1.561 . S
C1360 C1357 1.526 1_455 S
C1360 C1361 1.396 . S
C1360 C1365 1.390 . S
C1361 C1355 1.465 1_455 S
C1361 C1360 1.396 . S
C1361 C1362 1.399 . S
C1362 H1348 0.929 . S
C1362 C1361 1.399 . S
C1362 C1363 1.385 . S
C1363 H1349 0.931 . S
C1363 C1362 1.385 . S
C1363 C1364 1.389 . S
C1364 C1363 1.389 . S
C1364 C1365 1.387 . S
C1365 H1350 0.930 . S
C1365 C1360 1.390 . S
C1365 C1364 1.387 . S
H1366 C1378 0.930 . S
H1367 C1380 0.930 . S
H1368 C1381 0.930 . S
H1369 C1385 0.959 . S
H1370 C1385 0.959 . S
H1371 C1385 0.961 . S
H1372 C1386 0.960 . S
H1373 C1386 0.961 . S
H1374 C1386 0.959 . S
H1375 C1389 0.929 . S
H1376 C1390 0.931 . S
H1377 C1392 0.930 . S
C1378 H1366 0.930 . S
C1378 C1379 1.399 . S
C1378 C1383 1.399 . S
C1379 C1378 1.399 . S
C1379 C1380 1.376 . S
C1380 H1367 0.930 . S
C1380 C1379 1.376 . S
C1380 C1381 1.388 . S
C1381 H1368 0.930 . S
C1381 C1380 1.388 . S
C1381 C1382 1.390 . S
C1382 C1381 1.390 . S
C1382 C1383 1.394 . S
C1382 C1388 1.465 . S
C1383 C1378 1.399 . S
C1383 C1382 1.394 . S
C1383 C1384 1.516 . S
C1384 C1383 1.516 . S
C1384 C1385 1.502 . S
C1384 C1386 1.561 . S
C1384 C1387 1.526 . S
C1385 H1369 0.959 . S
C1385 H1370 0.959 . S
C1385 H1371 0.961 . S
C1385 C1384 1.502 . S
C1386 H1372 0.960 . S
C1386 H1373 0.961 . S
C1386 H1374 0.959 . S
C1386 C1384 1.561 . S
C1387 C1384 1.526 . S
C1387 C1388 1.396 . S
C1387 C1392 1.390 . S
C1388 C1382 1.465 . S
C1388 C1387 1.396 . S
C1388 C1389 1.399 . S
C1389 H1375 0.929 . S
C1389 C1388 1.399 . S
C1389 C1390 1.385 . S
C1390 H1376 0.931 . S
C1390 C1389 1.385 . S
C1390 C1391 1.389 . S
C1391 C1390 1.389 . S
C1391 C1392 1.387 . S
C1392 H1377 0.930 . S
C1392 C1387 1.390 . S
C1392 C1391 1.387 . S
H1393 C1405 0.930 . S
H1394 C1407 0.930 . S
H1395 C1408 0.930 . S
H1396 C1412 0.967 . S
H1397 C1412 0.959 1_554 S
H1398 C1412 0.961 . S
H1399 C1413 0.960 . S
H1400 C1413 0.961 . S
H1401 C1413 0.959 . S
H1402 C1416 0.929 . S
H1403 C1417 0.931 1_554 S
H1404 C1419 0.930 . S
C1405 H1393 0.930 . S
C1405 C1406 1.399 . S
C1405 C1410 1.399 . S
C1406 C1405 1.399 . S
C1406 C1407 1.376 . S
C1407 H1394 0.930 . S
C1407 C1406 1.376 . S
C1407 C1408 1.388 . S
C1408 H1395 0.930 . S
C1408 C1407 1.388 . S
C1408 C1409 1.390 . S
C1409 C1408 1.390 . S
C1409 C1410 1.394 . S
C1409 C1415 1.465 . S
C1410 C1405 1.399 . S
C1410 C1409 1.394 . S
C1410 C1411 1.516 . S
C1411 C1410 1.516 . S
C1411 C1412 1.502 . S
C1411 C1413 1.561 . S
C1411 C1414 1.526 . S
C1412 H1396 0.967 . S
C1412 H1397 0.959 1_556 S
C1412 H1398 0.961 . S
C1412 C1411 1.502 . S
C1413 H1399 0.960 . S
C1413 H1400 0.961 . S
C1413 H1401 0.959 . S
C1413 C1411 1.561 . S
C1414 C1411 1.526 . S
C1414 C1415 1.396 . S
C1414 C1419 1.390 1_556 S
C1415 C1409 1.465 . S
C1415 C1414 1.396 . S
C1415 C1416 1.399 . S
C1416 H1402 0.929 . S
C1416 C1415 1.399 . S
C1416 C1417 1.385 . S
C1417 H1403 0.931 1_556 S
C1417 C1416 1.385 . S
C1417 C1418 1.389 1_556 S
C1418 C1417 1.389 1_554 S
C1418 C1419 1.387 . S
C1419 H1404 0.930 . S
C1419 C1414 1.390 1_554 S
C1419 C1418 1.387 . S
H1420 C1432 0.930 . S
H1421 C1434 0.930 . S
H1422 C1435 0.930 . S
H1423 C1439 0.959 . S
H1424 C1439 0.959 . S
H1425 C1439 0.961 . S
H1426 C1440 0.960 . S
H1427 C1440 0.961 . S
H1428 C1440 0.959 . S
H1429 C1443 0.929 . S
H1430 C1444 0.931 . S
H1431 C1446 0.930 . S
C1432 H1420 0.930 . S
C1432 C1433 1.399 . S
C1432 C1437 1.399 . S
C1433 C1432 1.399 . S
C1433 C1434 1.376 . S
C1434 H1421 0.930 . S
C1434 C1433 1.376 . S
C1434 C1435 1.388 . S
C1435 H1422 0.930 . S
C1435 C1434 1.388 . S
C1435 C1436 1.390 . S
C1436 C1435 1.390 . S
C1436 C1437 1.394 . S
C1436 C1442 1.465 . S
C1437 C1432 1.399 . S
C1437 C1436 1.394 . S
C1437 C1438 1.516 . S
C1438 C1437 1.516 . S
C1438 C1439 1.502 . S
C1438 C1440 1.561 . S
C1438 C1441 1.526 . S
C1439 H1423 0.959 . S
C1439 H1424 0.959 . S
C1439 H1425 0.961 . S
C1439 C1438 1.502 . S
C1440 H1426 0.960 . S
C1440 H1427 0.961 . S
C1440 H1428 0.959 . S
C1440 C1438 1.561 . S
C1441 C1438 1.526 . S
C1441 C1442 1.396 . S
C1441 C1446 1.390 . S
C1442 C1436 1.465 . S
C1442 C1441 1.396 . S
C1442 C1443 1.399 . S
C1443 H1429 0.929 . S
C1443 C1442 1.399 . S
C1443 C1444 1.385 . S
C1444 H1430 0.931 . S
C1444 C1443 1.385 . S
C1444 C1445 1.389 . S
C1445 C1444 1.389 . S
C1445 C1446 1.387 . S
C1446 H1431 0.930 . S
C1446 C1441 1.390 . S
C1446 C1445 1.387 . S
H1447 C1459 0.930 . S
H1448 C1461 0.930 . S
H1449 C1462 0.930 . S
H1450 C1466 0.959 . S
H1451 C1466 0.959 . S
H1452 C1466 0.961 . S
H1453 C1467 0.960 . S
H1454 C1467 0.961 . S
H1455 C1467 0.959 . S
H1456 C1470 0.929 . S
H1457 C1471 0.931 . S
H1458 C1473 0.930 . S
C1459 H1447 0.930 . S
C1459 C1460 1.399 . S
C1459 C1464 1.399 . S
C1460 C1459 1.399 . S
C1460 C1461 1.376 . S
C1461 H1448 0.930 . S
C1461 C1460 1.376 . S
C1461 C1462 1.388 . S
C1462 H1449 0.930 . S
C1462 C1461 1.388 . S
C1462 C1463 1.390 . S
C1463 C1462 1.390 . S
C1463 C1464 1.394 . S
C1463 C1469 1.465 . S
C1464 C1459 1.399 . S
C1464 C1463 1.394 . S
C1464 C1465 1.516 . S
C1465 C1464 1.516 . S
C1465 C1466 1.502 . S
C1465 C1467 1.561 . S
C1465 C1468 1.526 . S
C1466 H1450 0.959 . S
C1466 H1451 0.959 . S
C1466 H1452 0.961 . S
C1466 C1465 1.502 . S
C1467 H1453 0.960 . S
C1467 H1454 0.961 . S
C1467 H1455 0.959 . S
C1467 C1465 1.561 . S
C1468 C1465 1.526 . S
C1468 C1469 1.396 . S
C1468 C1473 1.390 . S
C1469 C1463 1.465 . S
C1469 C1468 1.396 . S
C1469 C1470 1.399 . S
C1470 H1456 0.929 . S
C1470 C1469 1.399 . S
C1470 C1471 1.385 . S
C1471 H1457 0.931 . S
C1471 C1470 1.385 . S
C1471 C1472 1.389 . S
C1472 C1471 1.389 . S
C1472 C1473 1.387 . S
C1473 H1458 0.930 . S
C1473 C1468 1.390 . S
C1473 C1472 1.387 . S
H1474 C1486 0.930 . S
H1475 C1488 0.930 . S
H1476 C1489 0.930 . S
H1477 C1493 0.959 . S
H1478 C1493 0.959 . S
H1479 C1493 0.961 . S
H1480 C1494 0.960 . S
H1481 C1494 0.961 . S
H1482 C1494 0.959 . S
H1483 C1497 0.929 1_556 S
H1484 C1498 0.931 . S
H1485 C1500 0.930 . S
C1486 H1474 0.930 . S
C1486 C1487 1.399 . S
C1486 C1491 1.399 1_556 S
C1487 C1486 1.399 . S
C1487 C1488 1.376 . S
C1488 H1475 0.930 . S
C1488 C1487 1.376 . S
C1488 C1489 1.388 . S
C1489 H1476 0.930 . S
C1489 C1488 1.388 . S
C1489 C1490 1.390 . S
C1490 C1489 1.390 . S
C1490 C1491 1.394 1_556 S
C1490 C1496 1.465 1_556 S
C1491 C1486 1.399 1_554 S
C1491 C1490 1.394 1_554 S
C1491 C1492 1.516 . S
C1492 C1491 1.516 . S
C1492 C1493 1.502 . S
C1492 C1494 1.561 . S
C1492 C1495 1.526 . S
C1493 H1477 0.959 . S
C1493 H1478 0.959 . S
C1493 H1479 0.961 . S
C1493 C1492 1.502 . S
C1494 H1480 0.960 . S
C1494 H1481 0.961 . S
C1494 H1482 0.959 . S
C1494 C1492 1.561 . S
C1495 C1492 1.526 . S
C1495 C1496 1.396 . S
C1495 C1500 1.390 . S
C1496 C1490 1.465 1_554 S
C1496 C1495 1.396 . S
C1496 C1497 1.399 . S
C1497 H1483 0.929 1_554 S
C1497 C1496 1.399 . S
C1497 C1498 1.385 . S
C1498 H1484 0.931 . S
C1498 C1497 1.385 . S
C1498 C1499 1.389 . S
C1499 C1498 1.389 . S
C1499 C1500 1.387 . S
C1500 H1485 0.930 . S
C1500 C1495 1.390 . S
C1500 C1499 1.387 . S
H1501 C1513 0.930 . S
H1502 C1515 0.930 . S
H1503 C1516 0.930 . S
H1504 C1520 0.959 . S
H1505 C1520 0.959 . S
H1506 C1520 0.961 . S
H1507 C1521 0.934 1_455 S
H1508 C1521 0.961 . S
H1509 C1521 0.959 . S
H1510 C1524 0.929 . S
H1511 C1525 0.931 . S
H1512 C1527 0.930 . S
C1513 H1501 0.930 . S
C1513 C1514 1.399 1_554 S
C1513 C1518 1.399 . S
C1514 C1513 1.399 1_556 S
C1514 C1515 1.376 . S
C1515 H1502 0.930 . S
C1515 C1514 1.376 . S
C1515 C1516 1.388 1_556 S
C1516 H1503 0.930 . S
C1516 C1515 1.388 1_554 S
C1516 C1517 1.390 . S
C1517 C1516 1.390 . S
C1517 C1518 1.394 . S
C1517 C1523 1.465 1_455 S
C1518 C1513 1.399 . S
C1518 C1517 1.394 . S
C1518 C1519 1.516 . S
C1519 C1518 1.516 . S
C1519 C1520 1.502 . S
C1519 C1521 1.561 1_455 S
C1519 C1522 1.526 1_455 S
C1520 H1504 0.959 . S
C1520 H1505 0.959 . S
C1520 H1506 0.961 . S
C1520 C1519 1.502 . S
C1521 H1507 0.934 1_655 S
C1521 H1508 0.961 . S
C1521 H1509 0.959 . S
C1521 C1519 1.561 1_655 S
C1522 C1519 1.526 1_655 S
C1522 C1523 1.396 . S
C1522 C1527 1.390 . S
C1523 C1517 1.465 1_655 S
C1523 C1522 1.396 . S
C1523 C1524 1.399 . S
C1524 H1510 0.929 . S
C1524 C1523 1.399 . S
C1524 C1525 1.385 . S
C1525 H1511 0.931 . S
C1525 C1524 1.385 . S
C1525 C1526 1.389 . S
C1526 C1525 1.389 . S
C1526 C1527 1.387 . S
C1527 H1512 0.930 . S
C1527 C1522 1.390 . S
C1527 C1526 1.387 . S
H1528 C1540 0.930 . S
H1529 C1542 0.930 . S
H1530 C1543 0.930 . S
H1531 C1547 0.959 . S
H1532 C1547 0.959 . S
H1533 C1547 0.961 . S
H1534 C1548 0.960 . S
H1535 C1548 0.961 . S
H1536 C1548 0.959 . S
H1537 C1551 0.929 . S
H1538 C1552 0.931 . S
H1539 C1554 0.930 . S
C1540 H1528 0.930 . S
C1540 C1541 1.399 . S
C1540 C1545 1.399 . S
C1541 C1540 1.399 . S
C1541 C1542 1.376 . S
C1542 H1529 0.930 . S
C1542 C1541 1.376 . S
C1542 C1543 1.388 1_556 S
C1543 H1530 0.930 . S
C1543 C1542 1.388 1_554 S
C1543 C1544 1.390 . S
C1544 C1543 1.390 . S
C1544 C1545 1.394 1_554 S
C1544 C1550 1.465 . S
C1545 C1540 1.399 . S
C1545 C1544 1.394 1_556 S
C1545 C1546 1.516 . S
C1546 C1545 1.516 . S
C1546 C1547 1.502 . S
C1546 C1548 1.561 . S
C1546 C1549 1.526 1_556 S
C1547 H1531 0.959 . S
C1547 H1532 0.959 . S
C1547 H1533 0.961 . S
C1547 C1546 1.502 . S
C1548 H1534 0.960 . S
C1548 H1535 0.961 . S
C1548 H1536 0.959 . S
C1548 C1546 1.561 . S
C1549 C1546 1.526 1_554 S
C1549 C1550 1.396 . S
C1549 C1554 1.390 . S
C1550 C1544 1.465 . S
C1550 C1549 1.396 . S
C1550 C1551 1.399 . S
C1551 H1537 0.929 . S
C1551 C1550 1.399 . S
C1551 C1552 1.385 . S
C1552 H1538 0.931 . S
C1552 C1551 1.385 . S
C1552 C1553 1.389 . S
C1553 C1552 1.389 . S
C1553 C1554 1.387 . S
C1554 H1539 0.930 . S
C1554 C1549 1.390 . S
C1554 C1553 1.387 . S
H1555 C1567 0.930 . S
H1556 C1569 0.930 . S
H1557 C1570 0.930 . S
H1558 C1574 0.959 . S
H1559 C1574 0.959 . S
H1560 C1574 0.961 . S
H1561 C1575 0.960 . S
H1562 C1575 0.961 . S
H1563 C1575 0.959 . S
H1564 C1578 0.907 1_455 S
H1565 C1579 0.931 . S
H1566 C1581 0.930 . S
C1567 H1555 0.930 . S
C1567 C1568 1.399 . S
C1567 C1572 1.399 . S
C1568 C1567 1.399 . S
C1568 C1569 1.376 . S
C1569 H1556 0.930 . S
C1569 C1568 1.376 . S
C1569 C1570 1.388 . S
C1570 H1557 0.930 . S
C1570 C1569 1.388 . S
C1570 C1571 1.390 . S
C1571 C1570 1.390 . S
C1571 C1572 1.394 . S
C1571 C1577 1.465 1_455 S
C1572 C1567 1.399 . S
C1572 C1571 1.394 . S
C1572 C1573 1.516 1_455 S
C1573 C1572 1.516 1_655 S
C1573 C1574 1.502 . S
C1573 C1575 1.561 . S
C1573 C1576 1.526 . S
C1574 H1558 0.959 . S
C1574 H1559 0.959 . S
C1574 H1560 0.961 . S
C1574 C1573 1.502 . S
C1575 H1561 0.960 . S
C1575 H1562 0.961 . S
C1575 H1563 0.959 . S
C1575 C1573 1.561 . S
C1576 C1573 1.526 . S
C1576 C1577 1.396 . S
C1576 C1581 1.390 . S
C1577 C1571 1.465 1_655 S
C1577 C1576 1.396 . S
C1577 C1578 1.400 . S
C1578 H1564 0.907 1_655 S
C1578 C1577 1.400 . S
C1578 C1579 1.407 . S
C1579 H1565 0.931 . S
C1579 C1578 1.407 . S
C1579 C1580 1.389 . S
C1580 C1579 1.389 . S
C1580 C1581 1.387 . S
C1581 H1566 0.930 . S
C1581 C1576 1.390 . S
C1581 C1580 1.387 . S
H1582 C1594 0.930 . S
H1583 C1596 0.930 . S
H1584 C1597 0.930 . S
H1585 C1601 0.959 . S
H1586 C1601 0.959 . S
H1587 C1601 0.961 . S
H1588 C1602 0.960 . S
H1589 C1602 0.961 . S
H1590 C1602 0.959 . S
H1591 C1605 0.929 . S
H1592 C1606 0.931 . S
H1593 C1608 0.930 . S
C1594 H1582 0.930 . S
C1594 C1595 1.399 . S
C1594 C1599 1.399 . S
C1595 C1594 1.399 . S
C1595 C1596 1.376 . S
C1596 H1583 0.930 . S
C1596 C1595 1.376 . S
C1596 C1597 1.388 . S
C1597 H1584 0.930 . S
C1597 C1596 1.388 . S
C1597 C1598 1.390 . S
C1598 C1597 1.390 . S
C1598 C1599 1.394 . S
C1598 C1604 1.465 . S
C1599 C1594 1.399 . S
C1599 C1598 1.394 . S
C1599 C1600 1.516 . S
C1600 C1599 1.516 . S
C1600 C1601 1.502 . S
C1600 C1602 1.561 . S
C1600 C1603 1.526 . S
C1601 H1585 0.959 . S
C1601 H1586 0.959 . S
C1601 H1587 0.961 . S
C1601 C1600 1.502 . S
C1602 H1588 0.960 . S
C1602 H1589 0.961 . S
C1602 H1590 0.959 . S
C1602 C1600 1.561 . S
C1603 C1600 1.526 . S
C1603 C1604 1.396 . S
C1603 C1608 1.390 . S
C1604 C1598 1.465 . S
C1604 C1603 1.396 . S
C1604 C1605 1.399 . S
C1605 H1591 0.929 . S
C1605 C1604 1.399 . S
C1605 C1606 1.385 . S
C1606 H1592 0.931 . S
C1606 C1605 1.385 . S
C1606 C1607 1.389 . S
C1607 C1606 1.389 . S
C1607 C1608 1.387 . S
C1608 H1593 0.930 . S
C1608 C1603 1.390 . S
C1608 C1607 1.387 . S
H1609 C1621 0.930 . S
H1610 C1623 0.930 . S
H1611 C1624 0.930 . S
H1612 C1628 0.958 1_554 S
H1613 C1628 0.959 . S
H1614 C1628 0.961 . S
H1615 C1629 0.960 . S
H1616 C1629 0.961 1_556 S
H1617 C1629 0.959 . S
H1618 C1632 0.929 . S
H1619 C1633 0.931 . S
H1620 C1635 0.930 . S
C1621 H1609 0.930 . S
C1621 C1622 1.399 . S
C1621 C1626 1.399 . S
C1622 C1621 1.399 . S
C1622 C1623 1.376 . S
C1623 H1610 0.930 . S
C1623 C1622 1.376 . S
C1623 C1624 1.388 . S
C1624 H1611 0.930 . S
C1624 C1623 1.388 . S
C1624 C1625 1.390 . S
C1625 C1624 1.390 . S
C1625 C1626 1.394 . S
C1625 C1631 1.465 . S
C1626 C1621 1.399 . S
C1626 C1625 1.394 . S
C1626 C1627 1.516 . S
C1627 C1626 1.516 . S
C1627 C1628 1.502 1_554 S
C1627 C1629 1.561 . S
C1627 C1630 1.526 . S
C1628 H1612 0.958 1_556 S
C1628 H1613 0.959 . S
C1628 H1614 0.961 . S
C1628 C1627 1.502 1_556 S
C1629 H1615 0.960 . S
C1629 H1616 0.961 1_554 S
C1629 H1617 0.959 . S
C1629 C1627 1.561 . S
C1630 C1627 1.526 . S
C1630 C1631 1.396 . S
C1630 C1635 1.390 1_554 S
C1631 C1625 1.465 . S
C1631 C1630 1.396 . S
C1631 C1632 1.399 . S
C1632 H1618 0.929 . S
C1632 C1631 1.399 . S
C1632 C1633 1.385 . S
C1633 H1619 0.931 . S
C1633 C1632 1.385 . S
C1633 C1634 1.389 1_554 S
C1634 C1633 1.389 1_556 S
C1634 C1635 1.387 . S
C1635 H1620 0.930 . S
C1635 C1630 1.390 1_556 S
C1635 C1634 1.387 . S
H1636 C1648 0.930 . S
H1637 C1650 0.930 . S
H1638 C1651 0.930 . S
H1639 C1655 0.959 . S
H1640 C1655 0.959 . S
H1641 C1655 0.961 . S
H1642 C1656 0.960 . S
H1643 C1656 0.961 . S
H1644 C1656 0.959 . S
H1645 C1659 0.929 . S
H1646 C1660 0.931 . S
H1647 C1662 0.930 . S
C1648 H1636 0.930 . S
C1648 C1649 1.399 . S
C1648 C1653 1.399 . S
C1649 C1648 1.399 . S
C1649 C1650 1.376 . S
C1650 H1637 0.930 . S
C1650 C1649 1.376 . S
C1650 C1651 1.388 . S
C1651 H1638 0.930 . S
C1651 C1650 1.388 . S
C1651 C1652 1.390 . S
C1652 C1651 1.390 . S
C1652 C1653 1.394 . S
C1652 C1658 1.465 . S
C1653 C1648 1.399 . S
C1653 C1652 1.394 . S
C1653 C1654 1.516 . S
C1654 C1653 1.516 . S
C1654 C1655 1.502 . S
C1654 C1656 1.561 . S
C1654 C1657 1.526 . S
C1655 H1639 0.959 . S
C1655 H1640 0.959 . S
C1655 H1641 0.961 . S
C1655 C1654 1.502 . S
C1656 H1642 0.960 . S
C1656 H1643 0.961 . S
C1656 H1644 0.959 . S
C1656 C1654 1.561 . S
C1657 C1654 1.526 . S
C1657 C1658 1.396 . S
C1657 C1662 1.390 . S
C1658 C1652 1.465 . S
C1658 C1657 1.396 . S
C1658 C1659 1.399 . S
C1659 H1645 0.929 . S
C1659 C1658 1.399 . S
C1659 C1660 1.385 . S
C1660 H1646 0.931 . S
C1660 C1659 1.385 . S
C1660 C1661 1.389 . S
C1661 C1660 1.389 . S
C1661 C1662 1.387 . S
C1662 H1647 0.930 . S
C1662 C1657 1.390 . S
C1662 C1661 1.387 . S
H1663 C1675 0.930 . S
H1664 C1677 0.930 . S
H1665 C1678 0.930 . S
H1666 C1682 0.959 . S
H1667 C1682 0.959 . S
H1668 C1682 0.961 . S
H1669 C1683 0.960 . S
H1670 C1683 0.961 . S
H1671 C1683 0.959 . S
H1672 C1686 0.929 . S
H1673 C1687 0.931 . S
H1674 C1689 0.930 . S
C1675 H1663 0.930 . S
C1675 C1676 1.399 . S
C1675 C1680 1.399 . S
C1676 C1675 1.399 . S
C1676 C1677 1.376 . S
C1677 H1664 0.930 . S
C1677 C1676 1.376 . S
C1677 C1678 1.388 . S
C1678 H1665 0.930 . S
C1678 C1677 1.388 . S
C1678 C1679 1.390 . S
C1679 C1678 1.390 . S
C1679 C1680 1.394 . S
C1679 C1685 1.465 . S
C1680 C1675 1.399 . S
C1680 C1679 1.394 . S
C1680 C1681 1.516 . S
C1681 C1680 1.516 . S
C1681 C1682 1.502 . S
C1681 C1683 1.561 . S
C1681 C1684 1.526 . S
C1682 H1666 0.959 . S
C1682 H1667 0.959 . S
C1682 H1668 0.961 . S
C1682 C1681 1.502 . S
C1683 H1669 0.960 . S
C1683 H1670 0.961 . S
C1683 H1671 0.959 . S
C1683 C1681 1.561 . S
C1684 C1681 1.526 . S
C1684 C1685 1.396 . S
C1684 C1689 1.390 . S
C1685 C1679 1.465 . S
C1685 C1684 1.396 . S
C1685 C1686 1.399 . S
C1686 H1672 0.929 . S
C1686 C1685 1.399 . S
C1686 C1687 1.385 . S
C1687 H1673 0.931 . S
C1687 C1686 1.385 . S
C1687 C1688 1.389 . S
C1688 C1687 1.389 . S
C1688 C1689 1.387 . S
C1689 H1674 0.930 . S
C1689 C1684 1.390 . S
C1689 C1688 1.387 . S
H1690 C1702 0.930 . S
H1691 C1704 0.930 . S
H1692 C1705 0.930 . S
H1693 C1709 0.959 . S
H1694 C1709 0.959 . S
H1695 C1709 0.961 . S
H1696 C1710 0.960 . S
H1697 C1710 0.961 1_556 S
H1698 C1710 0.959 . S
H1699 C1713 0.929 . S
H1700 C1714 0.931 . S
H1701 C1716 0.930 . S
C1702 H1690 0.930 . S
C1702 C1703 1.399 . S
C1702 C1707 1.399 . S
C1703 C1702 1.399 . S
C1703 C1704 1.376 . S
C1704 H1691 0.930 . S
C1704 C1703 1.376 . S
C1704 C1705 1.388 . S
C1705 H1692 0.930 . S
C1705 C1704 1.388 . S
C1705 C1706 1.390 . S
C1706 C1705 1.390 . S
C1706 C1707 1.394 . S
C1706 C1712 1.465 1_554 S
C1707 C1702 1.399 . S
C1707 C1706 1.394 . S
C1707 C1708 1.516 1_554 S
C1708 C1707 1.516 1_556 S
C1708 C1709 1.502 . S
C1708 C1710 1.561 1_556 S
C1708 C1711 1.526 . S
C1709 H1693 0.959 . S
C1709 H1694 0.959 . S
C1709 H1695 0.961 . S
C1709 C1708 1.502 . S
C1710 H1696 0.960 . S
C1710 H1697 0.961 1_554 S
C1710 H1698 0.959 . S
C1710 C1708 1.561 1_554 S
C1711 C1708 1.526 . S
C1711 C1712 1.396 . S
C1711 C1716 1.390 . S
C1712 C1706 1.465 1_556 S
C1712 C1711 1.396 . S
C1712 C1713 1.399 . S
C1713 H1699 0.929 . S
C1713 C1712 1.399 . S
C1713 C1714 1.385 . S
C1714 H1700 0.931 . S
C1714 C1713 1.385 . S
C1714 C1715 1.389 . S
C1715 C1714 1.389 . S
C1715 C1716 1.387 . S
C1716 H1701 0.930 . S
C1716 C1711 1.390 . S
C1716 C1715 1.387 . S
H1717 C1729 0.930 . S
H1718 C1731 0.930 . S
H1719 C1732 0.930 . S
H1720 C1736 0.959 . S
H1721 C1736 0.959 . S
H1722 C1736 0.961 . S
H1723 C1737 0.960 . S
H1724 C1737 0.961 1_655 S
H1725 C1737 0.959 . S
H1726 C1740 0.930 1_455 S
H1727 C1741 0.931 . S
H1728 C1743 0.930 . S
C1729 H1717 0.930 . S
C1729 C1730 1.399 . S
C1729 C1734 1.399 . S
C1730 C1729 1.399 . S
C1730 C1731 1.376 . S
C1731 H1718 0.930 . S
C1731 C1730 1.376 . S
C1731 C1732 1.388 . S
C1732 H1719 0.930 . S
C1732 C1731 1.388 . S
C1732 C1733 1.390 . S
C1733 C1732 1.390 . S
C1733 C1734 1.394 . S
C1733 C1739 1.465 1_455 S
C1734 C1729 1.399 . S
C1734 C1733 1.394 . S
C1734 C1735 1.516 1_455 S
C1735 C1734 1.516 1_655 S
C1735 C1736 1.502 . S
C1735 C1737 1.561 1_655 S
C1735 C1738 1.526 . S
C1736 H1720 0.959 . S
C1736 H1721 0.959 . S
C1736 H1722 0.961 . S
C1736 C1735 1.502 . S
C1737 H1723 0.960 . S
C1737 H1724 0.961 1_455 S
C1737 H1725 0.959 . S
C1737 C1735 1.561 1_455 S
C1738 C1735 1.526 . S
C1738 C1739 1.396 . S
C1738 C1743 1.390 . S
C1739 C1733 1.465 1_655 S
C1739 C1738 1.396 . S
C1739 C1740 1.395 1_556 S
C1740 H1726 0.930 1_655 S
C1740 C1739 1.395 1_554 S
C1740 C1741 1.388 . S
C1741 H1727 0.931 . S
C1741 C1740 1.388 . S
C1741 C1742 1.389 . S
C1742 C1741 1.389 . S
C1742 C1743 1.387 1_554 S
C1743 H1728 0.930 . S
C1743 C1738 1.390 . S
C1743 C1742 1.387 1_556 S
H1744 C1756 0.930 . S
H1745 C1758 0.930 . S
H1746 C1759 0.930 . S
H1747 C1763 0.959 . S
H1748 C1763 0.959 . S
H1749 C1763 0.961 . S
H1750 C1764 0.960 . S
H1751 C1764 0.961 . S
H1752 C1764 0.959 . S
H1753 C1767 0.929 . S
H1754 C1768 0.931 . S
H1755 C1770 0.930 . S
C1756 H1744 0.930 . S
C1756 C1757 1.399 . S
C1756 C1761 1.399 . S
C1757 C1756 1.399 . S
C1757 C1758 1.376 . S
C1758 H1745 0.930 . S
C1758 C1757 1.376 . S
C1758 C1759 1.388 . S
C1759 H1746 0.930 . S
C1759 C1758 1.388 . S
C1759 C1760 1.390 . S
C1760 C1759 1.390 . S
C1760 C1761 1.394 . S
C1760 C1766 1.465 . S
C1761 C1756 1.399 . S
C1761 C1760 1.394 . S
C1761 C1762 1.516 . S
C1762 C1761 1.516 . S
C1762 C1763 1.502 . S
C1762 C1764 1.561 . S
C1762 C1765 1.526 . S
C1763 H1747 0.959 . S
C1763 H1748 0.959 . S
C1763 H1749 0.961 . S
C1763 C1762 1.502 . S
C1764 H1750 0.960 . S
C1764 H1751 0.961 . S
C1764 H1752 0.959 . S
C1764 C1762 1.561 . S
C1765 C1762 1.526 . S
C1765 C1766 1.396 . S
C1765 C1770 1.390 . S
C1766 C1760 1.465 . S
C1766 C1765 1.396 . S
C1766 C1767 1.399 . S
C1767 H1753 0.929 . S
C1767 C1766 1.399 . S
C1767 C1768 1.385 . S
C1768 H1754 0.931 . S
C1768 C1767 1.385 . S
C1768 C1769 1.389 . S
C1769 C1768 1.389 . S
C1769 C1770 1.387 . S
C1770 H1755 0.930 . S
C1770 C1765 1.390 . S
C1770 C1769 1.387 . S
H1771 C1783 0.930 . S
H1772 C1785 0.930 . S
H1773 C1786 0.930 . S
H1774 C1790 0.959 . S
H1775 C1790 0.959 . S
H1776 C1790 0.961 . S
H1777 C1791 0.960 . S
H1778 C1791 0.961 . S
H1779 C1791 0.959 . S
H1780 C1794 0.929 . S
H1781 C1795 0.931 . S
H1782 C1797 0.930 . S
C1783 H1771 0.930 . S
C1783 C1784 1.399 . S
C1783 C1788 1.399 . S
C1784 C1783 1.399 . S
C1784 C1785 1.376 . S
C1785 H1772 0.930 . S
C1785 C1784 1.376 . S
C1785 C1786 1.388 . S
C1786 H1773 0.930 . S
C1786 C1785 1.388 . S
C1786 C1787 1.390 . S
C1787 C1786 1.390 . S
C1787 C1788 1.394 . S
C1787 C1793 1.465 . S
C1788 C1783 1.399 . S
C1788 C1787 1.394 . S
C1788 C1789 1.516 . S
C1789 C1788 1.516 . S
C1789 C1790 1.502 . S
C1789 C1791 1.561 . S
C1789 C1792 1.526 . S
C1790 H1774 0.959 . S
C1790 H1775 0.959 . S
C1790 H1776 0.961 . S
C1790 C1789 1.502 . S
C1791 H1777 0.960 . S
C1791 H1778 0.961 . S
C1791 H1779 0.959 . S
C1791 C1789 1.561 . S
C1792 C1789 1.526 . S
C1792 C1793 1.396 . S
C1792 C1797 1.390 . S
C1793 C1787 1.465 . S
C1793 C1792 1.396 . S
C1793 C1794 1.399 . S
C1794 H1780 0.929 . S
C1794 C1793 1.399 . S
C1794 C1795 1.385 1_556 S
C1795 H1781 0.931 . S
C1795 C1794 1.385 1_554 S
C1795 C1796 1.389 . S
C1796 C1795 1.389 . S
C1796 C1797 1.387 1_554 S
C1797 H1782 0.930 . S
C1797 C1792 1.390 . S
C1797 C1796 1.387 1_556 S
H1798 C1810 0.930 . S
H1799 C1812 0.930 . S
H1800 C1813 0.930 . S
H1801 C1817 0.959 . S
H1802 C1817 0.959 . S
H1803 C1817 0.961 . S
H1804 C1818 0.960 . S
H1805 C1818 0.961 . S
H1806 C1818 0.959 . S
H1807 C1821 0.929 1_554 S
H1808 C1822 0.931 . S
H1809 C1824 0.930 . S
C1810 H1798 0.930 . S
C1810 C1811 1.399 . S
C1810 C1815 1.399 1_554 S
C1811 C1810 1.399 . S
C1811 C1812 1.376 . S
C1812 H1799 0.930 . S
C1812 C1811 1.376 . S
C1812 C1813 1.388 . S
C1813 H1800 0.930 . S
C1813 C1812 1.388 . S
C1813 C1814 1.390 . S
C1814 C1813 1.390 . S
C1814 C1815 1.394 1_554 S
C1814 C1820 1.465 1_554 S
C1815 C1810 1.399 1_556 S
C1815 C1814 1.394 1_556 S
C1815 C1816 1.516 . S
C1816 C1815 1.516 . S
C1816 C1817 1.502 . S
C1816 C1818 1.561 . S
C1816 C1819 1.526 . S
C1817 H1801 0.959 . S
C1817 H1802 0.959 . S
C1817 H1803 0.961 . S
C1817 C1816 1.502 . S
C1818 H1804 0.960 . S
C1818 H1805 0.961 . S
C1818 H1806 0.959 . S
C1818 C1816 1.561 . S
C1819 C1816 1.526 . S
C1819 C1820 1.396 . S
C1819 C1824 1.390 . S
C1820 C1814 1.465 1_556 S
C1820 C1819 1.396 . S
C1820 C1821 1.399 . S
C1821 H1807 0.929 1_556 S
C1821 C1820 1.399 . S
C1821 C1822 1.385 . S
C1822 H1808 0.931 . S
C1822 C1821 1.385 . S
C1822 C1823 1.389 . S
C1823 C1822 1.389 . S
C1823 C1824 1.387 . S
C1824 H1809 0.930 . S
C1824 C1819 1.390 . S
C1824 C1823 1.387 . S
H1825 C1837 0.930 . S
H1826 C1839 0.930 . S
H1827 C1840 0.930 . S
H1828 C1844 0.959 . S
H1829 C1844 0.959 . S
H1830 C1844 0.961 . S
H1831 C1845 0.960 . S
H1832 C1845 0.961 1_455 S
H1833 C1845 0.959 . S
H1834 C1848 0.929 . S
H1835 C1849 0.931 . S
H1836 C1851 0.930 . S
C1837 H1825 0.930 . S
C1837 C1838 1.399 . S
C1837 C1842 1.399 . S
C1838 C1837 1.399 . S
C1838 C1839 1.376 . S
C1839 H1826 0.930 . S
C1839 C1838 1.376 . S
C1839 C1840 1.388 . S
C1840 H1827 0.930 . S
C1840 C1839 1.388 . S
C1840 C1841 1.390 . S
C1841 C1840 1.390 . S
C1841 C1842 1.394 . S
C1841 C1847 1.465 1_655 S
C1842 C1837 1.399 . S
C1842 C1841 1.394 . S
C1842 C1843 1.516 1_655 S
C1843 C1842 1.516 1_455 S
C1843 C1844 1.502 . S
C1843 C1845 1.561 1_455 S
C1843 C1846 1.526 . S
C1844 H1828 0.959 . S
C1844 H1829 0.959 . S
C1844 H1830 0.961 . S
C1844 C1843 1.502 . S
C1845 H1831 0.960 . S
C1845 H1832 0.961 1_655 S
C1845 H1833 0.959 . S
C1845 C1843 1.561 1_655 S
C1846 C1843 1.526 . S
C1846 C1847 1.396 . S
C1846 C1851 1.390 . S
C1847 C1841 1.465 1_455 S
C1847 C1846 1.396 . S
C1847 C1848 1.399 . S
C1848 H1834 0.929 . S
C1848 C1847 1.399 . S
C1848 C1849 1.385 . S
C1849 H1835 0.931 . S
C1849 C1848 1.385 . S
C1849 C1850 1.389 . S
C1850 C1849 1.389 . S
C1850 C1851 1.387 . S
C1851 H1836 0.930 . S
C1851 C1846 1.390 . S
C1851 C1850 1.387 . S
H1852 C1864 0.930 . S
H1853 C1866 0.930 . S
H1854 C1867 0.930 1_554 S
H1855 C1871 0.959 . S
H1856 C1871 0.959 . S
H1857 C1871 0.961 1_556 S
H1858 C1872 0.960 . S
H1859 C1872 0.961 . S
H1860 C1872 0.959 . S
H1861 C1875 0.929 . S
H1862 C1876 0.931 . S
H1863 C1878 0.930 . S
C1864 H1852 0.930 . S
C1864 C1865 1.399 . S
C1864 C1869 1.399 . S
C1865 C1864 1.399 . S
C1865 C1866 1.376 . S
C1866 H1853 0.930 . S
C1866 C1865 1.376 . S
C1866 C1867 1.388 . S
C1867 H1854 0.930 1_556 S
C1867 C1866 1.388 . S
C1867 C1868 1.390 1_556 S
C1868 C1867 1.390 1_554 S
C1868 C1869 1.394 1_554 S
C1868 C1874 1.465 . S
C1869 C1864 1.399 . S
C1869 C1868 1.394 1_556 S
C1869 C1870 1.516 . S
C1870 C1869 1.516 . S
C1870 C1871 1.502 1_556 S
C1870 C1872 1.561 . S
C1870 C1873 1.526 1_556 S
C1871 H1855 0.959 . S
C1871 H1856 0.959 . S
C1871 H1857 0.961 1_554 S
C1871 C1870 1.502 1_554 S
C1872 H1858 0.960 . S
C1872 H1859 0.961 . S
C1872 H1860 0.959 . S
C1872 C1870 1.561 . S
C1873 C1870 1.526 1_554 S
C1873 C1874 1.396 . S
C1873 C1878 1.390 . S
C1874 C1868 1.465 . S
C1874 C1873 1.396 . S
C1874 C1875 1.399 . S
C1875 H1861 0.929 . S
C1875 C1874 1.399 . S
C1875 C1876 1.385 . S
C1876 H1862 0.931 . S
C1876 C1875 1.385 . S
C1876 C1877 1.389 . S
C1877 C1876 1.389 . S
C1877 C1878 1.387 . S
C1878 H1863 0.930 . S
C1878 C1873 1.390 . S
C1878 C1877 1.387 . S
H1879 C1891 0.930 . S
H1880 C1893 0.930 . S
H1881 C1894 0.930 1_455 S
H1882 C1898 0.959 . S
H1883 C1898 0.959 . S
H1884 C1898 0.961 . S
H1885 C1899 0.960 . S
H1886 C1899 0.961 . S
H1887 C1899 0.959 . S
H1888 C1902 0.929 . S
H1889 C1903 0.931 . S
H1890 C1905 0.930 . S
C1891 H1879 0.930 . S
C1891 C1892 1.399 1_554 S
C1891 C1896 1.399 . S
C1892 C1891 1.399 1_556 S
C1892 C1893 1.376 . S
C1893 H1880 0.930 . S
C1893 C1892 1.376 . S
C1893 C1894 1.388 . S
C1894 H1881 0.930 1_655 S
C1894 C1893 1.388 . S
C1894 C1895 1.390 1_556 S
C1895 C1894 1.390 1_554 S
C1895 C1896 1.394 . S
C1895 C1901 1.465 1_655 S
C1896 C1891 1.399 . S
C1896 C1895 1.394 . S
C1896 C1897 1.516 . S
C1897 C1896 1.516 . S
C1897 C1898 1.502 . S
C1897 C1899 1.561 . S
C1897 C1900 1.526 1_655 S
C1898 H1882 0.959 . S
C1898 H1883 0.959 . S
C1898 H1884 0.961 . S
C1898 C1897 1.502 . S
C1899 H1885 0.960 . S
C1899 H1886 0.961 . S
C1899 H1887 0.959 . S
C1899 C1897 1.561 . S
C1900 C1897 1.526 1_455 S
C1900 C1901 1.396 . S
C1900 C1905 1.390 . S
C1901 C1895 1.465 1_455 S
C1901 C1900 1.396 . S
C1901 C1902 1.399 . S
C1902 H1888 0.929 . S
C1902 C1901 1.399 . S
C1902 C1903 1.385 . S
C1903 H1889 0.931 . S
C1903 C1902 1.385 . S
C1903 C1904 1.389 . S
C1904 C1903 1.389 . S
C1904 C1905 1.387 . S
C1905 H1890 0.930 . S
C1905 C1900 1.390 . S
C1905 C1904 1.387 . S
H1906 C1918 0.930 . S
H1907 C1920 0.930 . S
H1908 C1921 0.930 . S
H1909 C1925 0.959 . S
H1910 C1925 0.959 . S
H1911 C1925 0.961 . S
H1912 C1926 0.960 . S
H1913 C1926 0.961 . S
H1914 C1926 0.959 . S
H1915 C1929 0.929 . S
H1916 C1930 0.931 . S
H1917 C1932 0.930 . S
C1918 H1906 0.930 . S
C1918 C1919 1.399 . S
C1918 C1923 1.399 . S
C1919 C1918 1.399 . S
C1919 C1920 1.376 . S
C1920 H1907 0.930 . S
C1920 C1919 1.376 . S
C1920 C1921 1.388 . S
C1921 H1908 0.930 . S
C1921 C1920 1.388 . S
C1921 C1922 1.390 . S
C1922 C1921 1.390 . S
C1922 C1923 1.394 . S
C1922 C1928 1.465 . S
C1923 C1918 1.399 . S
C1923 C1922 1.394 . S
C1923 C1924 1.516 . S
C1924 C1923 1.516 . S
C1924 C1925 1.502 . S
C1924 C1926 1.561 . S
C1924 C1927 1.526 . S
C1925 H1909 0.959 . S
C1925 H1910 0.959 . S
C1925 H1911 0.961 . S
C1925 C1924 1.502 . S
C1926 H1912 0.960 . S
C1926 H1913 0.961 . S
C1926 H1914 0.959 . S
C1926 C1924 1.561 . S
C1927 C1924 1.526 . S
C1927 C1928 1.396 . S
C1927 C1932 1.390 . S
C1928 C1922 1.465 . S
C1928 C1927 1.396 . S
C1928 C1929 1.399 . S
C1929 H1915 0.929 . S
C1929 C1928 1.399 . S
C1929 C1930 1.385 . S
C1930 H1916 0.931 . S
C1930 C1929 1.385 . S
C1930 C1931 1.389 . S
C1931 C1930 1.389 . S
C1931 C1932 1.387 . S
C1932 H1917 0.930 . S
C1932 C1927 1.390 . S
C1932 C1931 1.387 . S
H1933 C1945 0.930 . S
H1934 C1947 0.930 . S
H1935 C1948 0.930 . S
H1936 C1952 0.959 . S
H1937 C1952 0.959 . S
H1938 C1952 0.961 . S
H1939 C1953 0.960 . S
H1940 C1953 0.961 . S
H1941 C1953 0.959 . S
H1942 C1956 0.929 . S
H1943 C1957 0.931 . S
H1944 C1959 0.930 . S
C1945 H1933 0.930 . S
C1945 C1946 1.399 . S
C1945 C1950 1.399 . S
C1946 C1945 1.399 . S
C1946 C1947 1.376 . S
C1947 H1934 0.930 . S
C1947 C1946 1.376 . S
C1947 C1948 1.388 . S
C1948 H1935 0.930 . S
C1948 C1947 1.388 . S
C1948 C1949 1.390 . S
C1949 C1948 1.390 . S
C1949 C1950 1.394 . S
C1949 C1955 1.465 . S
C1950 C1945 1.399 . S
C1950 C1949 1.394 . S
C1950 C1951 1.516 . S
C1951 C1950 1.516 . S
C1951 C1952 1.502 . S
C1951 C1953 1.561 . S
C1951 C1954 1.526 . S
C1952 H1936 0.959 . S
C1952 H1937 0.959 . S
C1952 H1938 0.961 . S
C1952 C1951 1.502 . S
C1953 H1939 0.960 . S
C1953 H1940 0.961 . S
C1953 H1941 0.959 . S
C1953 C1951 1.561 . S
C1954 C1951 1.526 . S
C1954 C1955 1.396 . S
C1954 C1959 1.390 . S
C1955 C1949 1.465 . S
C1955 C1954 1.396 . S
C1955 C1956 1.399 . S
C1956 H1942 0.929 . S
C1956 C1955 1.399 . S
C1956 C1957 1.385 . S
C1957 H1943 0.931 . S
C1957 C1956 1.385 . S
C1957 C1958 1.389 . S
C1958 C1957 1.389 . S
C1958 C1959 1.387 . S
C1959 H1944 0.930 . S
C1959 C1954 1.390 . S
C1959 C1958 1.387 . S
H1960 C1972 0.930 . S
H1961 C1974 0.930 . S
H1962 C1975 0.930 . S
H1963 C1979 0.959 . S
H1964 C1979 0.959 . S
H1965 C1979 0.961 . S
H1966 C1980 0.960 . S
H1967 C1980 0.961 . S
H1968 C1980 0.959 . S
H1969 C1983 0.929 . S
H1970 C1984 0.931 . S
H1971 C1986 0.930 . S
C1972 H1960 0.930 . S
C1972 C1973 1.399 . S
C1972 C1977 1.399 . S
C1973 C1972 1.399 . S
C1973 C1974 1.376 . S
C1974 H1961 0.930 . S
C1974 C1973 1.376 . S
C1974 C1975 1.388 . S
C1975 H1962 0.930 . S
C1975 C1974 1.388 . S
C1975 C1976 1.390 . S
C1976 C1975 1.390 . S
C1976 C1977 1.394 . S
C1976 C1982 1.465 . S
C1977 C1972 1.399 . S
C1977 C1976 1.394 . S
C1977 C1978 1.516 . S
C1978 C1977 1.516 . S
C1978 C1979 1.502 . S
C1978 C1980 1.561 . S
C1978 C1981 1.526 . S
C1979 H1963 0.959 . S
C1979 H1964 0.959 . S
C1979 H1965 0.961 . S
C1979 C1978 1.502 . S
C1980 H1966 0.960 . S
C1980 H1967 0.961 . S
C1980 H1968 0.959 . S
C1980 C1978 1.561 . S
C1981 C1978 1.526 . S
C1981 C1982 1.396 . S
C1981 C1986 1.390 . S
C1982 C1976 1.465 . S
C1982 C1981 1.396 . S
C1982 C1983 1.399 . S
C1983 H1969 0.929 . S
C1983 C1982 1.399 . S
C1983 C1984 1.385 . S
C1984 H1970 0.931 . S
C1984 C1983 1.385 . S
C1984 C1985 1.389 . S
C1985 C1984 1.389 . S
C1985 C1986 1.387 . S
C1986 H1971 0.930 . S
C1986 C1981 1.390 . S
C1986 C1985 1.387 . S
H1987 C1999 0.930 . S
H1988 C2001 0.930 . S
H1989 C2002 0.930 . S
H1990 C2006 0.959 . S
H1991 C2006 0.959 . S
H1992 C2006 0.961 . S
H1993 C2007 0.960 . S
H1994 C2007 0.961 . S
H1995 C2007 0.959 . S
H1996 C2010 0.929 1_556 S
H1997 C2011 0.931 . S
H1998 C2013 0.930 . S
C1999 H1987 0.930 . S
C1999 C2000 1.399 . S
C1999 C2004 1.399 . S
C2000 C1999 1.399 . S
C2000 C2001 1.376 . S
C2001 H1988 0.930 . S
C2001 C2000 1.376 . S
C2001 C2002 1.388 . S
C2002 H1989 0.930 . S
C2002 C2001 1.388 . S
C2002 C2003 1.390 . S
C2003 C2002 1.390 . S
C2003 C2004 1.394 . S
C2003 C2009 1.465 . S
C2004 C1999 1.399 . S
C2004 C2003 1.394 . S
C2004 C2005 1.516 . S
C2005 C2004 1.516 . S
C2005 C2006 1.502 . S
C2005 C2007 1.561 . S
C2005 C2008 1.526 . S
C2006 H1990 0.959 . S
C2006 H1991 0.959 . S
C2006 H1992 0.961 . S
C2006 C2005 1.502 . S
C2007 H1993 0.960 . S
C2007 H1994 0.961 . S
C2007 H1995 0.959 . S
C2007 C2005 1.561 . S
C2008 C2005 1.526 . S
C2008 C2009 1.396 . S
C2008 C2013 1.390 . S
C2009 C2003 1.465 . S
C2009 C2008 1.396 . S
C2009 C2010 1.399 . S
C2010 H1996 0.929 1_554 S
C2010 C2009 1.399 . S
C2010 C2011 1.385 1_554 S
C2011 H1997 0.931 . S
C2011 C2010 1.385 1_556 S
C2011 C2012 1.389 . S
C2012 C2011 1.389 . S
C2012 C2013 1.387 1_556 S
C2013 H1998 0.930 . S
C2013 C2008 1.390 . S
C2013 C2012 1.387 1_554 S
H2014 C2026 0.930 . S
H2015 C2028 0.930 . S
H2016 C2029 0.930 . S
H2017 C2033 0.959 . S
H2018 C2033 0.959 . S
H2019 C2033 0.961 . S
H2020 C2034 0.960 1_554 S
H2021 C2034 0.961 . S
H2022 C2034 0.959 . S
H2023 C2037 0.929 . S
H2024 C2038 0.931 . S
H2025 C2040 0.930 . S
C2026 H2014 0.930 . S
C2026 C2027 1.399 . S
C2026 C2031 1.399 . S
C2027 C2026 1.399 . S
C2027 C2028 1.376 . S
C2028 H2015 0.930 . S
C2028 C2027 1.376 . S
C2028 C2029 1.388 . S
C2029 H2016 0.930 . S
C2029 C2028 1.388 . S
C2029 C2030 1.390 . S
C2030 C2029 1.390 . S
C2030 C2031 1.394 . S
C2030 C2036 1.465 1_554 S
C2031 C2026 1.399 . S
C2031 C2030 1.394 . S
C2031 C2032 1.516 . S
C2032 C2031 1.516 . S
C2032 C2033 1.502 . S
C2032 C2034 1.561 1_554 S
C2032 C2035 1.526 1_554 S
C2033 H2017 0.959 . S
C2033 H2018 0.959 . S
C2033 H2019 0.961 . S
C2033 C2032 1.502 . S
C2034 H2020 0.960 1_556 S
C2034 H2021 0.961 . S
C2034 H2022 0.959 . S
C2034 C2032 1.561 1_556 S
C2035 C2032 1.526 1_556 S
C2035 C2036 1.396 . S
C2035 C2040 1.390 . S
C2036 C2030 1.465 1_556 S
C2036 C2035 1.396 . S
C2036 C2037 1.399 . S
C2037 H2023 0.929 . S
C2037 C2036 1.399 . S
C2037 C2038 1.385 . S
C2038 H2024 0.931 . S
C2038 C2037 1.385 . S
C2038 C2039 1.389 . S
C2039 C2038 1.389 . S
C2039 C2040 1.387 . S
C2040 H2025 0.930 . S
C2040 C2035 1.390 . S
C2040 C2039 1.387 . S
H2041 C2053 0.930 . S
H2042 C2055 0.930 . S
H2043 C2056 0.930 . S
H2044 C2060 0.959 . S
H2045 C2060 0.959 . S
H2046 C2060 0.961 . S
H2047 C2061 0.960 . S
H2048 C2061 0.961 1_655 S
H2049 C2061 0.959 . S
H2050 C2064 0.929 . S
H2051 C2065 0.931 . S
H2052 C2067 0.930 . S
C2053 H2041 0.930 . S
C2053 C2054 1.399 . S
C2053 C2058 1.399 . S
C2054 C2053 1.399 . S
C2054 C2055 1.376 . S
C2055 H2042 0.930 . S
C2055 C2054 1.376 . S
C2055 C2056 1.388 . S
C2056 H2043 0.930 . S
C2056 C2055 1.388 . S
C2056 C2057 1.390 . S
C2057 C2056 1.390 . S
C2057 C2058 1.394 . S
C2057 C2063 1.465 1_455 S
C2058 C2053 1.399 . S
C2058 C2057 1.394 . S
C2058 C2059 1.516 1_455 S
C2059 C2058 1.516 1_655 S
C2059 C2060 1.502 . S
C2059 C2061 1.561 1_655 S
C2059 C2062 1.526 . S
C2060 H2044 0.959 . S
C2060 H2045 0.959 . S
C2060 H2046 0.961 . S
C2060 C2059 1.502 . S
C2061 H2047 0.960 . S
C2061 H2048 0.961 1_455 S
C2061 H2049 0.959 . S
C2061 C2059 1.561 1_455 S
C2062 C2059 1.526 . S
C2062 C2063 1.396 . S
C2062 C2067 1.390 . S
C2063 C2057 1.465 1_655 S
C2063 C2062 1.396 . S
C2063 C2064 1.399 . S
C2064 H2050 0.929 . S
C2064 C2063 1.399 . S
C2064 C2065 1.385 . S
C2065 H2051 0.931 . S
C2065 C2064 1.385 . S
C2065 C2066 1.389 . S
C2066 C2065 1.389 . S
C2066 C2067 1.387 . S
C2067 H2052 0.930 . S
C2067 C2062 1.390 . S
C2067 C2066 1.387 . S
H2068 C2080 0.930 . S
H2069 C2082 0.930 . S
H2070 C2083 0.930 . S
H2071 C2087 0.959 . S
H2072 C2087 0.959 . S
H2073 C2087 0.961 . S
H2074 C2088 0.960 . S
H2075 C2088 0.961 . S
H2076 C2088 0.959 . S
H2077 C2091 0.929 . S
H2078 C2092 0.931 . S
H2079 C2094 0.930 . S
C2080 H2068 0.930 . S
C2080 C2081 1.399 . S
C2080 C2085 1.399 . S
C2081 C2080 1.399 . S
C2081 C2082 1.376 . S
C2082 H2069 0.930 . S
C2082 C2081 1.376 . S
C2082 C2083 1.388 . S
C2083 H2070 0.930 . S
C2083 C2082 1.388 . S
C2083 C2084 1.390 . S
C2084 C2083 1.390 . S
C2084 C2085 1.394 . S
C2084 C2090 1.465 1_554 S
C2085 C2080 1.399 . S
C2085 C2084 1.394 . S
C2085 C2086 1.516 1_554 S
C2086 C2085 1.516 1_556 S
C2086 C2087 1.502 . S
C2086 C2088 1.561 1_556 S
C2086 C2089 1.526 . S
C2087 H2071 0.959 . S
C2087 H2072 0.959 . S
C2087 H2073 0.961 . S
C2087 C2086 1.502 . S
C2088 H2074 0.960 . S
C2088 H2075 0.961 . S
C2088 H2076 0.959 . S
C2088 C2086 1.561 1_554 S
C2089 C2086 1.526 . S
C2089 C2090 1.396 . S
C2089 C2094 1.390 . S
C2090 C2084 1.465 1_556 S
C2090 C2089 1.396 . S
C2090 C2091 1.399 . S
C2091 H2077 0.929 . S
C2091 C2090 1.399 . S
C2091 C2092 1.385 . S
C2092 H2078 0.931 . S
C2092 C2091 1.385 . S
C2092 C2093 1.389 . S
C2093 C2092 1.389 . S
C2093 C2094 1.387 . S
C2094 H2079 0.930 . S
C2094 C2089 1.390 . S
C2094 C2093 1.387 . S
H2095 C2107 0.930 . S
H2096 C2109 0.930 . S
H2097 C2110 0.930 . S
H2098 C2114 0.959 1_554 S
H2099 C2114 0.959 1_554 S
H2100 C2114 0.961 . S
H2101 C2115 0.960 1_655 S
H2102 C2115 0.961 . S
H2103 C2115 0.959 . S
H2104 C2118 0.929 . S
H2105 C2119 0.931 . S
H2106 C2121 0.930 . S
C2107 H2095 0.930 . S
C2107 C2108 1.399 . S
C2107 C2112 1.399 . S
C2108 C2107 1.399 . S
C2108 C2109 1.376 . S
C2109 H2096 0.930 . S
C2109 C2108 1.376 . S
C2109 C2110 1.388 . S
C2110 H2097 0.930 . S
C2110 C2109 1.388 . S
C2110 C2111 1.390 . S
C2111 C2110 1.390 . S
C2111 C2112 1.394 . S
C2111 C2117 1.465 1_655 S
C2112 C2107 1.399 . S
C2112 C2111 1.394 . S
C2112 C2113 1.516 . S
C2113 C2112 1.516 . S
C2113 C2114 1.502 . S
C2113 C2115 1.561 1_655 S
C2113 C2116 1.526 1_655 S
C2114 H2098 0.959 1_556 S
C2114 H2099 0.959 1_556 S
C2114 H2100 0.961 . S
C2114 C2113 1.502 . S
C2115 H2101 0.960 1_455 S
C2115 H2102 0.961 . S
C2115 H2103 0.959 . S
C2115 C2113 1.561 1_455 S
C2116 C2113 1.526 1_455 S
C2116 C2117 1.396 . S
C2116 C2121 1.390 1_556 S
C2117 C2111 1.465 1_455 S
C2117 C2116 1.396 . S
C2117 C2118 1.399 . S
C2118 H2104 0.929 . S
C2118 C2117 1.399 . S
C2118 C2119 1.385 . S
C2119 H2105 0.931 . S
C2119 C2118 1.385 . S
C2119 C2120 1.389 1_556 S
C2120 C2119 1.389 1_554 S
C2120 C2121 1.387 . S
C2121 H2106 0.930 . S
C2121 C2116 1.390 1_554 S
C2121 C2120 1.387 . S
H2122 C2134 0.930 . S
H2123 C2136 0.930 . S
H2124 C2137 0.930 . S
H2125 C2141 0.959 . S
H2126 C2141 0.959 . S
H2127 C2141 0.961 . S
H2128 C2142 0.960 . S
H2129 C2142 0.961 . S
H2130 C2142 0.959 . S
H2131 C2145 0.929 . S
H2132 C2146 0.931 . S
H2133 C2148 0.930 . S
C2134 H2122 0.930 . S
C2134 C2135 1.399 . S
C2134 C2139 1.399 . S
C2135 C2134 1.399 . S
C2135 C2136 1.376 . S
C2136 H2123 0.930 . S
C2136 C2135 1.376 . S
C2136 C2137 1.388 . S
C2137 H2124 0.930 . S
C2137 C2136 1.388 . S
C2137 C2138 1.390 . S
C2138 C2137 1.390 . S
C2138 C2139 1.394 . S
C2138 C2144 1.465 . S
C2139 C2134 1.399 . S
C2139 C2138 1.394 . S
C2139 C2140 1.516 . S
C2140 C2139 1.516 . S
C2140 C2141 1.502 . S
C2140 C2142 1.561 . S
C2140 C2143 1.526 . S
C2141 H2125 0.959 . S
C2141 H2126 0.959 . S
C2141 H2127 0.961 . S
C2141 C2140 1.502 . S
C2142 H2128 0.960 . S
C2142 H2129 0.961 . S
C2142 H2130 0.959 . S
C2142 C2140 1.561 . S
C2143 C2140 1.526 . S
C2143 C2144 1.396 . S
C2143 C2148 1.390 . S
C2144 C2138 1.465 . S
C2144 C2143 1.396 . S
C2144 C2145 1.399 . S
C2145 H2131 0.929 . S
C2145 C2144 1.399 . S
C2145 C2146 1.385 . S
C2146 H2132 0.931 . S
C2146 C2145 1.385 . S
C2146 C2147 1.389 . S
C2147 C2146 1.389 . S
C2147 C2148 1.387 . S
C2148 H2133 0.930 . S
C2148 C2143 1.390 . S
C2148 C2147 1.387 . S
H2149 C2161 0.930 . S
H2150 C2163 0.930 . S
H2151 C2164 0.930 . S
H2152 C2168 0.959 . S
H2153 C2168 0.959 . S
H2154 C2168 0.961 . S
H2155 C2169 0.960 . S
H2156 C2169 0.961 . S
H2157 C2169 0.959 . S
H2158 C2172 0.929 . S
H2159 C2173 0.931 . S
H2160 C2175 0.930 . S
C2161 H2149 0.930 . S
C2161 C2162 1.399 . S
C2161 C2166 1.399 . S
C2162 C2161 1.399 . S
C2162 C2163 1.376 . S
C2163 H2150 0.930 . S
C2163 C2162 1.376 . S
C2163 C2164 1.388 . S
C2164 H2151 0.930 . S
C2164 C2163 1.388 . S
C2164 C2165 1.390 . S
C2165 C2164 1.390 . S
C2165 C2166 1.394 . S
C2165 C2171 1.465 . S
C2166 C2161 1.399 . S
C2166 C2165 1.394 . S
C2166 C2167 1.516 . S
C2167 C2166 1.516 . S
C2167 C2168 1.502 . S
C2167 C2169 1.561 . S
C2167 C2170 1.526 . S
C2168 H2152 0.959 . S
C2168 H2153 0.959 . S
C2168 H2154 0.961 . S
C2168 C2167 1.502 . S
C2169 H2155 0.960 . S
C2169 H2156 0.961 . S
C2169 H2157 0.959 . S
C2169 C2167 1.561 . S
C2170 C2167 1.526 . S
C2170 C2171 1.396 . S
C2170 C2175 1.390 . S
C2171 C2165 1.465 . S
C2171 C2170 1.396 . S
C2171 C2172 1.399 . S
C2172 H2158 0.929 . S
C2172 C2171 1.399 . S
C2172 C2173 1.385 . S
C2173 H2159 0.931 . S
C2173 C2172 1.385 . S
C2173 C2174 1.389 . S
C2174 C2173 1.389 . S
C2174 C2175 1.387 . S
C2175 H2160 0.930 . S
C2175 C2170 1.390 . S
C2175 C2174 1.387 . S
C461 C87 2.249 . S
C473 C3 2.295 . S
C488 C17 1.396 . S
C500 C101 1.396 . S
C515 C59 2.254 . S
C527 C31 2.207 . S
C542 C45 1.400 . S
C554 C73 1.399 . S
C569 C199 2.206 . S
C581 C115 2.255 . S
C596 C129 1.379 . S
C608 C213 1.390 . S
C623 C171 2.204 . S
C635 C143 2.234 . S
C650 C157 1.407 . S
C662 C185 1.409 . S
C677 C227 2.256 . S
C689 C311 2.207 . S
C704 C325 1.377 . S
C716 C241 1.378 . S
C731 C255 2.266 . S
C743 C283 2.205 . S
C758 C297 1.371 . S
C770 C269 1.372 . S
C785 C423 2.298 . S
C797 C339 2.264 . S
C812 C437 1.374 . S
C824 C353 1.384 . S
C839 C395 2.298 . S
C851 C367 2.257 . S
C866 C381 1.372 . S
C878 C409 1.381 . S
C893 C106 1.320 . S
C905 C8 1.322 . S
C920 C64 1.323 . S
C932 C22 1.323 . S
C947 C78 1.334 . S
C959 C36 1.328 . S
C974 C92 1.328 . S
C986 C50 1.327 . S
C1001 C218 1.330 . S
C1013 C120 1.327 . S
C1028 C176 1.329 . S
C1040 C134 1.334 . S
C1055 C190 1.321 . S
C1067 C148 1.325 . S
C1082 C162 1.309 . S
C1094 C204 1.321 . S
C1109 C330 1.305 . S
C1121 C232 1.321 . S
C1136 C246 1.334 . S
C1148 C288 1.328 . S
C1163 C260 1.328 . S
C1175 C302 1.328 . S
C1190 C316 1.319 . S
C1202 C274 1.309 . S
C1217 C442 1.323 . S
C1229 C344 1.326 . S
C1244 C358 1.306 . S
C1256 C400 1.320 . S
C1271 C372 1.322 . S
C1283 C414 1.315 . S
C1298 C428 1.328 . S
C1310 C386 1.332 . S
C1325 C7 1.811 . S
C1337 C429 1.929 . S
C1352 C219 1.173 . S
C1364 C21 1.214 . S
C1379 C401 1.924 . S
C1391 C35 1.818 . S
C1406 C191 1.166 . S
C1418 C49 1.197 . S
C1433 C373 1.927 . S
C1445 C63 1.878 . S
C1460 C77 1.263 . S
C1472 C163 1.231 . S
C1487 C91 1.805 . S
C1499 C345 1.941 . S
C1514 C105 1.163 . S
C1526 C135 1.189 . S
C1541 C119 1.855 . S
C1553 C317 1.972 . S
C1568 C107 1.262 . S
C1580 C133 1.193 . S
C1595 C289 1.949 . S
C1607 C147 1.810 . S
C1622 C79 1.176 . S
C1634 C161 1.248 . S
C1649 C261 1.955 . S
C1661 C175 1.807 . S
C1676 C51 1.207 . S
C1688 C189 1.166 . S
C1703 C203 1.807 . S
C1715 C233 1.967 . S
C1730 C23 1.216 . S
C1742 C217 1.164 . S
C1757 C205 1.917 . S
C1769 C231 1.843 . S
C1784 C443 1.266 . S
C1796 C245 1.239 . S
C1811 C259 1.810 . S
C1823 C177 1.930 . S
C1838 C273 1.265 . S
C1850 C415 1.239 . S
C1865 C287 1.870 . S
C1877 C149 1.923 . S
C1892 C301 1.176 . S
C1904 C387 1.224 . S
C1919 C315 1.805 . S
C1931 C121 1.946 . S
C1946 C329 1.265 . S
C1958 C359 1.243 . S
C1973 C93 1.962 . S
C1985 C343 1.806 . S
C2000 C331 1.212 . S
C2012 C357 1.165 . S
C2027 C65 1.918 . S
C2039 C371 1.859 . S
C2054 C385 1.214 . S
C2066 C303 1.167 . S
C2081 C399 1.818 . S
C2093 C37 1.975 . S
C2108 C275 1.225 . S
C2120 C413 1.263 . S
C2135 C427 1.853 . S
C2147 C9 1.973 . S
C2162 C441 1.230 . S
C2174 C247 1.262 . S
