# Generated by pormake.
# Topology yff, (5)-cn, num edge types: 1
# Building blocks:
#     Node 0, Type 0, BuildingBlock: XOMCOT_clean_sbu_1, # of connection points: 5
#     Node 1, Type 0, BuildingBlock: XOMCOT_clean_sbu_1, # of connection points: 5
#     Node 2, Type 0, BuildingBlock: XOMCOT_clean_sbu_1, # of connection points: 5
#     Node 3, Type 0, BuildingBlock: XOMCOT_clean_sbu_1, # of connection points: 5
#     Node 4, Type 0, BuildingBlock: XOMCOT_clean_sbu_1, # of connection points: 5
#     Node 5, Type 0, BuildingBlock: XOMCOT_clean_sbu_1, # of connection points: 5
#     Node 6, Type 0, BuildingBlock: XOMCOT_clean_sbu_1, # of connection points: 5
#     Node 7, Type 0, BuildingBlock: XOMCOT_clean_sbu_1, # of connection points: 5
#     Node 8, Type 0, BuildingBlock: XOMCOT_clean_sbu_1, # of connection points: 5
#     Node 9, Type 0, BuildingBlock: XOMCOT_clean_sbu_1, # of connection points: 5
#     Node 10, Type 0, BuildingBlock: XOMCOT_clean_sbu_1, # of connection points: 5
#     Node 11, Type 0, BuildingBlock: XOMCOT_clean_sbu_1, # of connection points: 5
#     Node 12, Type 0, BuildingBlock: XOMCOT_clean_sbu_1, # of connection points: 5
#     Node 13, Type 0, BuildingBlock: XOMCOT_clean_sbu_1, # of connection points: 5
#     Node 14, Type 0, BuildingBlock: XOMCOT_clean_sbu_1, # of connection points: 5
#     Node 15, Type 0, BuildingBlock: XOMCOT_clean_sbu_1, # of connection points: 5
#     Edge 16, Type (0, 0), BuildingBlock: UVAHIK_clean_linker_0, # of connection points: 2
#     Edge 17, Type (0, 0), BuildingBlock: UVAHIK_clean_linker_0, # of connection points: 2
#     Edge 18, Type (0, 0), BuildingBlock: UVAHIK_clean_linker_0, # of connection points: 2
#     Edge 19, Type (0, 0), BuildingBlock: UVAHIK_clean_linker_0, # of connection points: 2
#     Edge 20, Type (0, 0), BuildingBlock: UVAHIK_clean_linker_0, # of connection points: 2
#     Edge 21, Type (0, 0), BuildingBlock: UVAHIK_clean_linker_0, # of connection points: 2
#     Edge 22, Type (0, 0), BuildingBlock: UVAHIK_clean_linker_0, # of connection points: 2
#     Edge 23, Type (0, 0), BuildingBlock: UVAHIK_clean_linker_0, # of connection points: 2
#     Edge 24, Type (0, 0), BuildingBlock: UVAHIK_clean_linker_0, # of connection points: 2
#     Edge 25, Type (0, 0), BuildingBlock: UVAHIK_clean_linker_0, # of connection points: 2
#     Edge 26, Type (0, 0), BuildingBlock: UVAHIK_clean_linker_0, # of connection points: 2
#     Edge 27, Type (0, 0), BuildingBlock: UVAHIK_clean_linker_0, # of connection points: 2
#     Edge 28, Type (0, 0), BuildingBlock: UVAHIK_clean_linker_0, # of connection points: 2
#     Edge 29, Type (0, 0), BuildingBlock: UVAHIK_clean_linker_0, # of connection points: 2
#     Edge 30, Type (0, 0), BuildingBlock: UVAHIK_clean_linker_0, # of connection points: 2
#     Edge 31, Type (0, 0), BuildingBlock: UVAHIK_clean_linker_0, # of connection points: 2
#     Edge 32, Type (0, 0), BuildingBlock: UVAHIK_clean_linker_0, # of connection points: 2
#     Edge 33, Type (0, 0), BuildingBlock: UVAHIK_clean_linker_0, # of connection points: 2
#     Edge 34, Type (0, 0), BuildingBlock: UVAHIK_clean_linker_0, # of connection points: 2
#     Edge 35, Type (0, 0), BuildingBlock: UVAHIK_clean_linker_0, # of connection points: 2
#     Edge 36, Type (0, 0), BuildingBlock: UVAHIK_clean_linker_0, # of connection points: 2
#     Edge 37, Type (0, 0), BuildingBlock: UVAHIK_clean_linker_0, # of connection points: 2
#     Edge 38, Type (0, 0), BuildingBlock: UVAHIK_clean_linker_0, # of connection points: 2
#     Edge 39, Type (0, 0), BuildingBlock: UVAHIK_clean_linker_0, # of connection points: 2
#     Edge 40, Type (0, 0), BuildingBlock: UVAHIK_clean_linker_0, # of connection points: 2
#     Edge 41, Type (0, 0), BuildingBlock: UVAHIK_clean_linker_0, # of connection points: 2
#     Edge 42, Type (0, 0), BuildingBlock: UVAHIK_clean_linker_0, # of connection points: 2
#     Edge 43, Type (0, 0), BuildingBlock: UVAHIK_clean_linker_0, # of connection points: 2
#     Edge 44, Type (0, 0), BuildingBlock: UVAHIK_clean_linker_0, # of connection points: 2
#     Edge 45, Type (0, 0), BuildingBlock: UVAHIK_clean_linker_0, # of connection points: 2
#     Edge 46, Type (0, 0), BuildingBlock: UVAHIK_clean_linker_0, # of connection points: 2
#     Edge 47, Type (0, 0), BuildingBlock: UVAHIK_clean_linker_0, # of connection points: 2
#     Edge 48, Type (0, 0), BuildingBlock: UVAHIK_clean_linker_0, # of connection points: 2
#     Edge 49, Type (0, 0), BuildingBlock: UVAHIK_clean_linker_0, # of connection points: 2
#     Edge 50, Type (0, 0), BuildingBlock: UVAHIK_clean_linker_0, # of connection points: 2
#     Edge 51, Type (0, 0), BuildingBlock: UVAHIK_clean_linker_0, # of connection points: 2
#     Edge 52, Type (0, 0), BuildingBlock: UVAHIK_clean_linker_0, # of connection points: 2
#     Edge 53, Type (0, 0), BuildingBlock: UVAHIK_clean_linker_0, # of connection points: 2
#     Edge 54, Type (0, 0), BuildingBlock: UVAHIK_clean_linker_0, # of connection points: 2
#     Edge 55, Type (0, 0), BuildingBlock: UVAHIK_clean_linker_0, # of connection points: 2
# Relax obj value: 0.474
# Max RMSD: 0.308
# Mean RMSD: 0.308
data_MOF--net-yff--node1-XOMCOT_clean_sbu_1--edge1-UVAHIK_clean_linker_0
_symmetry_space_group_name_H-M    P1
_symmetry_Int_Tables_number       1
_symmetry_cell_setting            triclinic
loop_
_symmetry_equiv_pos_as_xyz
'x, y, z'
_cell_length_a     74.634474
_cell_length_b     74.747224
_cell_length_c     37.464804
_cell_angle_alpha  90.091978
_cell_angle_beta   89.94073
_cell_angle_gamma 90.005492
loop_
_atom_site_label
_atom_site_type_symbol
_atom_site_fract_x
_atom_site_fract_y
_atom_site_fract_z
_atom_type_partial_charge
C0 C 0.11804 0.06814 0.36817 0.0
C1 C 0.11923 0.05617 0.34039 0.0
N2 N 0.10264 0.05026 0.33283 0.0
N3 N 0.1008 0.06946 0.37896 0.0
C4 C 0.09171 0.05898 0.35572 0.0
H5 H 0.12921 0.07537 0.37928 0.0
Co6 Co 0.09088 0.08341 0.41612 0.0
C7 C 0.07945 0.10421 0.36096 0.0
O8 O 0.09565 0.11072 0.36545 0.0
N9 N 0.08115 0.09763 0.45203 0.0
C10 C 0.07347 0.12156 0.48376 0.0
C11 C 0.08057 0.11565 0.45192 0.0
C12 C 0.0744 0.09287 0.48416 0.0
N13 N 0.06967 0.10719 0.50411 0.0
O14 O 0.07391 0.06441 0.4283 0.0
H15 H 0.08543 0.12398 0.43044 0.0
H16 H 0.07311 0.07916 0.49292 0.0
O17 O 0.07382 0.09237 0.38264 0.0
C18 C 0.07411 0.0473 0.42771 0.0
O19 O 0.08878 0.03871 0.41853 0.0
N20 N 0.10844 0.07528 0.44848 0.0
C21 C 0.13925 0.06089 0.47819 0.0
C22 C 0.14001 0.07704 0.45928 0.0
C23 C 0.12427 0.08419 0.44513 0.0
C24 C 0.10705 0.0615 0.47225 0.0
C25 C 0.12243 0.05376 0.48668 0.0
H26 H 0.12497 0.09591 0.42827 0.0
H27 H 0.09429 0.05581 0.47922 0.0
H28 H 0.07734 0.05713 0.3567 0.0
H29 H 0.1314 0.05207 0.32696 0.0
H30 H 0.07185 0.13538 0.49177 0.0
H31 H 0.15273 0.08322 0.45278 0.0
H32 H 0.12125 0.04179 0.50279 0.0
C33 C 0.44185 0.10974 0.927 0.0
C34 C 0.45696 0.11085 0.90602 0.0
N35 N 0.4588 0.09534 0.88791 0.0
N36 N 0.43407 0.09367 0.9219 0.0
C37 C 0.44469 0.0852 0.89807 0.0
H38 H 0.437 0.11985 0.94529 0.0
Co39 Co 0.41437 0.08443 0.94631 0.0
C40 C 0.40187 0.05692 0.89596 0.0
O41 O 0.40087 0.0449 0.92143 0.0
N42 N 0.39505 0.0752 0.97169 0.0
C43 C 0.36842 0.06707 0.99288 0.0
C44 C 0.37753 0.07351 0.96341 0.0
C45 C 0.39625 0.06988 0.00592 0.0
N46 N 0.38035 0.06473 0.01945 0.0
O47 O 0.4283 0.06427 0.95864 0.0
H48 H 0.37173 0.07705 0.93794 0.0
H49 H 0.4085 0.07044 0.02122 0.0
O50 O 0.40661 0.07288 0.90317 0.0
C51 C 0.43989 0.06703 0.98289 0.0
O52 O 0.44063 0.08286 0.99814 0.0
N53 N 0.40128 0.10484 0.93537 0.0
C54 C 0.3948 0.14099 0.92582 0.0
C55 C 0.3971 0.1297 0.89617 0.0
C56 C 0.40024 0.1115 0.90154 0.0
C57 C 0.39677 0.11511 0.96402 0.0
C58 C 0.39305 0.13321 0.95972 0.0
H59 H 0.40412 0.10339 0.87891 0.0
H60 H 0.39786 0.10971 0.99069 0.0
H61 H 0.44249 0.07153 0.88963 0.0
H62 H 0.46593 0.12219 0.90457 0.0
H63 H 0.3542 0.06439 0.99464 0.0
H64 H 0.3986 0.13507 0.86951 0.0
H65 H 0.39081 0.14137 0.98322 0.0
C66 C 0.37135 0.44396 0.36272 0.0
C67 C 0.37216 0.45653 0.33609 0.0
N68 N 0.38949 0.4594 0.32794 0.0
N69 N 0.38811 0.4391 0.37221 0.0
C70 C 0.39881 0.4483 0.34948 0.0
H71 H 0.35912 0.43873 0.37384 0.0
Co72 Co 0.39524 0.4221 0.4067 0.0
C73 C 0.39997 0.40003 0.35035 0.0
O74 O 0.38293 0.39742 0.35749 0.0
N75 N 0.40179 0.40489 0.43981 0.0
C76 C 0.39859 0.38058 0.47318 0.0
C77 C 0.39425 0.38852 0.44126 0.0
C78 C 0.41089 0.40654 0.47083 0.0
N79 N 0.40899 0.39198 0.49176 0.0
O80 O 0.41635 0.43656 0.41912 0.0
H81 H 0.38503 0.38326 0.42166 0.0
H82 H 0.41742 0.41873 0.47941 0.0
O83 O 0.40895 0.41041 0.37052 0.0
C84 C 0.41861 0.45348 0.42196 0.0
O85 O 0.40504 0.46442 0.4171 0.0
N86 N 0.38071 0.4328 0.442 0.0
C87 C 0.35483 0.45068 0.4815 0.0
C88 C 0.34994 0.43693 0.45795 0.0
C89 C 0.36322 0.4279 0.43895 0.0
C90 C 0.38583 0.44375 0.46944 0.0
C91 C 0.37303 0.45334 0.48876 0.0
H92 H 0.35945 0.41782 0.41961 0.0
H93 H 0.39973 0.44572 0.47599 0.0
H94 H 0.41324 0.44697 0.34902 0.0
H95 H 0.36081 0.46331 0.32433 0.0
H96 H 0.39365 0.36786 0.48288 0.0
H97 H 0.33601 0.4341 0.45218 0.0
H98 H 0.37731 0.46323 0.50813 0.0
C99 C 0.06596 0.37778 0.89408 0.0
C100 C 0.05345 0.37796 0.86721 0.0
N101 N 0.04871 0.39505 0.86102 0.0
N102 N 0.0689 0.39467 0.90562 0.0
C103 C 0.05873 0.40489 0.88377 0.0
H104 H 0.07234 0.36591 0.90423 0.0
Co105 Co 0.0843 0.40291 0.94216 0.0
C106 C 0.10538 0.41307 0.88742 0.0
O107 O 0.11037 0.39636 0.89195 0.0
N108 N 0.09996 0.41091 0.97731 0.0
C109 C 0.12526 0.41523 0.00713 0.0
C110 C 0.1179 0.40919 0.97575 0.0
C111 C 0.09667 0.41801 0.00993 0.0
N112 N 0.1119 0.4207 0.02879 0.0
O113 O 0.0667 0.42095 0.95712 0.0
H114 H 0.1252 0.40352 0.95354 0.0
H115 H 0.08335 0.42051 0.02014 0.0
O116 O 0.09394 0.41971 0.90892 0.0
C117 C 0.04956 0.42149 0.95778 0.0
O118 O 0.04019 0.40732 0.9486 0.0
N119 N 0.07569 0.38543 0.97398 0.0
C120 C 0.06019 0.35469 1.00142 0.0
C121 C 0.07612 0.35366 0.98168 0.0
C122 C 0.08383 0.36935 0.96865 0.0
C123 C 0.06237 0.38692 0.99885 0.0
C124 C 0.05402 0.37158 0.01213 0.0
H125 H 0.09523 0.36851 0.95085 0.0
H126 H 0.05746 0.39977 0.00736 0.0
H127 H 0.05835 0.41934 0.88523 0.0
H128 H 0.04782 0.36631 0.85422 0.0
H129 H 0.1394 0.41545 0.01348 0.0
H130 H 0.08158 0.34089 0.97338 0.0
H131 H 0.04225 0.3729 0.02887 0.0
C132 C 0.62457 0.03752 0.62023 0.0
C133 C 0.6153 0.04826 0.64391 0.0
N134 N 0.60311 0.03807 0.661 0.0
N135 N 0.61831 0.02065 0.62271 0.0
C136 C 0.6054 0.02141 0.6479 0.0
H137 H 0.6346 0.0419 0.60129 0.0
Co138 Co 0.62319 0.00091 0.59404 0.0
C139 C 0.61637 0.97233 0.64658 0.0
O140 O 0.60485 0.96467 0.6249 0.0
N141 N 0.62781 0.9812 0.56498 0.0
C142 C 0.63906 0.95668 0.53999 0.0
C143 C 0.63853 0.96694 0.57059 0.0
C144 C 0.6221 0.9794 0.53103 0.0
N145 N 0.62869 0.96457 0.51512 0.0
O146 O 0.5982 -0.00355 0.58983 0.0
H147 H 0.64589 0.96446 0.59493 0.0
H148 H 0.61391 0.98927 0.51772 0.0
O149 O 0.62465 0.9864 0.63672 0.0
C150 C 0.59021 0.00666 0.56789 0.0
O151 O 0.5995 0.0192 0.55171 0.0
N152 N 0.6476 0.00584 0.59553 0.0
C153 C 0.68449 0.00873 0.58595 0.0
C154 C 0.6772 0.00564 0.62008 0.0
C155 C 0.65863 0.0042 0.62432 0.0
C156 C 0.65427 0.01043 0.56301 0.0
C157 C 0.67264 0.01169 0.55747 0.0
H158 H 0.65322 0.0013 0.65042 0.0
H159 H 0.64523 0.01206 0.54069 0.0
H160 H 0.59734 0.00999 0.65547 0.0
H161 H 0.61673 0.0626 0.6468 0.0
H162 H 0.64666 0.94449 0.53629 0.0
H163 H 0.68575 0.00383 0.64312 0.0
H164 H 0.67742 0.01395 0.53058 0.0
C165 C 0.45341 0.62433 0.06648 0.0
C166 C 0.44202 0.61682 0.09137 0.0
N167 N 0.45098 0.6038 0.10867 0.0
N168 N 0.46939 0.616 0.0682 0.0
C169 C 0.46749 0.60364 0.09412 0.0
H170 H 0.45003 0.63456 0.04724 0.0
Co171 Co 0.48867 0.61756 0.03707 0.0
C172 C 0.51543 0.59988 0.08428 0.0
O173 O 0.51765 0.58624 0.06257 0.0
N174 N 0.50783 0.61852 0.00522 0.0
C175 C 0.53391 0.62323 0.97823 0.0
C176 C 0.52471 0.62452 0.01006 0.0
C177 C 0.5071 0.61361 0.97056 0.0
N178 N 0.52279 0.61631 0.95344 0.0
O179 O 0.48622 0.59292 0.02748 0.0
H180 H 0.52987 0.62977 0.03492 0.0
H181 H 0.49508 0.60859 0.9579 0.0
O182 O 0.50477 0.6125 0.07606 0.0
C183 C 0.47373 0.58652 0.00837 0.0
O184 O 0.46215 0.59738 0.99331 0.0
N185 N 0.49096 0.64207 0.04657 0.0
C186 C 0.50264 0.67683 0.05914 0.0
C187 C 0.4985 0.66543 0.08769 0.0
C188 C 0.49266 0.64808 0.08082 0.0
C189 C 0.49263 0.65361 0.01865 0.0
C190 C 0.49878 0.67103 0.02428 0.0
H191 H 0.4904 0.63918 0.10309 0.0
H192 H 0.49056 0.6489 0.99165 0.0
H193 H 0.47761 0.59377 0.10033 0.0
H194 H 0.42808 0.62026 0.09556 0.0
H195 H 0.54772 0.62703 0.97374 0.0
H196 H 0.50054 0.66958 0.1151 0.0
H197 H 0.50159 0.67936 1.00135 0.0
C198 C 0.8748 0.45209 0.61776 0.0
C199 C 0.88316 0.4401 0.64026 0.0
N200 N 0.89479 0.44923 0.66092 0.0
N201 N 0.8812 0.46862 0.62435 0.0
C202 C 0.89323 0.46645 0.6508 0.0
H203 H 0.86552 0.44884 0.59656 0.0
Co204 Co 0.87861 0.48914 0.59721 0.0
C205 C 0.87125 0.51568 0.65543 0.0
O206 O 0.85711 0.52196 0.6387 0.0
N207 N 0.87705 0.50971 0.56839 0.0
C208 C 0.88133 0.53662 0.54442 0.0
C209 C 0.88087 0.52702 0.57562 0.0
C210 C 0.87617 0.5091 0.53233 0.0
N211 N 0.87844 0.5253 0.51706 0.0
O212 O 0.90368 0.49006 0.59131 0.0
H213 H 0.88461 0.53235 0.60129 0.0
H214 H 0.87518 0.49673 0.51742 0.0
O215 O 0.88077 0.50343 0.64097 0.0
C216 C 0.91038 0.48055 0.56656 0.0
O217 O 0.89973 0.47044 0.54722 0.0
N218 N 0.85343 0.48766 0.60193 0.0
C219 C 0.8163 0.4907 0.60581 0.0
C220 C 0.82643 0.48792 0.63683 0.0
C221 C 0.84502 0.48598 0.6342 0.0
C222 C 0.84354 0.4878 0.5714 0.0
C223 C 0.82501 0.4897 0.57268 0.0
H224 H 0.85274 0.48416 0.65832 0.0
H225 H 0.84997 0.48698 0.54574 0.0
H226 H 0.90186 0.47709 0.66023 0.0
H227 H 0.8814 0.42573 0.64025 0.0
H228 H 0.88433 0.55073 0.54212 0.0
H229 H 0.82016 0.48783 0.66291 0.0
H230 H 0.81776 0.49133 0.54787 0.0
C231 C 0.0448 0.87621 0.09051 0.0
C232 C 0.05588 0.88615 0.11232 0.0
N233 N 0.04564 0.8972 0.13226 0.0
N234 N 0.02767 0.88089 0.09696 0.0
C235 C 0.02861 0.89344 0.12275 0.0
H236 H 0.04902 0.86723 0.06945 0.0
Co237 Co 0.00762 0.87632 0.06936 0.0
C238 C 0.98195 0.86433 0.1273 0.0
O239 O 0.9768 0.84996 0.10982 0.0
N240 N 0.98748 0.87263 0.04008 0.0
C241 C 0.9604 0.87262 0.01504 0.0
C242 C 0.96968 0.87314 0.04676 0.0
C243 C 0.98856 0.87277 0.00406 0.0
N244 N 0.97236 0.87246 0.98818 0.0
O245 O 0.00286 0.90113 0.06692 0.0
H246 H 0.96357 0.8753 0.07248 0.0
H247 H 0.00105 0.87401 0.98964 0.0
O248 O 0.99335 0.87499 0.1133 0.0
C249 C 0.01147 0.90949 0.04291 0.0
O250 O 0.02319 0.90068 0.02346 0.0
N251 N 0.01294 0.85171 0.06962 0.0
C252 C 0.01577 0.81497 0.06041 0.0
C253 C 0.01472 0.82228 0.09487 0.0
C254 C 0.01372 0.84089 0.09896 0.0
C255 C 0.01688 0.84489 0.03681 0.0
C256 C 0.01793 0.82652 0.03141 0.0
H257 H 0.01276 0.84649 0.12549 0.0
H258 H 0.0187 0.85368 0.01438 0.0
H259 H 0.01698 0.90058 0.13246 0.0
H260 H 0.07038 0.88625 0.11136 0.0
H261 H 0.94601 0.87355 0.01196 0.0
H262 H 0.01367 0.81375 0.11811 0.0
H263 H 0.01974 0.82138 0.00459 0.0
C264 C 0.87642 0.93504 0.62044 0.0
C265 C 0.87626 0.94777 0.64692 0.0
N266 N 0.89329 0.95256 0.65386 0.0
N267 N 0.89347 0.93198 0.6099 0.0
C268 C 0.90342 0.94235 0.63193 0.0
H269 H 0.86465 0.92859 0.60987 0.0
Co270 Co 0.90218 0.91627 0.57421 0.0
C271 C 0.91191 0.89625 0.63081 0.0
O272 O 0.89504 0.89157 0.62694 0.0
N273 N 0.91062 0.90037 0.54001 0.0
C274 C 0.91528 0.87493 0.51088 0.0
C275 C 0.90898 0.88246 0.54196 0.0
C276 C 0.91796 0.90347 0.50758 0.0
N277 N 0.92086 0.88817 0.48913 0.0
O278 O 0.92029 0.93378 0.55956 0.0
H279 H 0.90316 0.87535 0.56422 0.0
H280 H 0.92046 0.91672 0.49714 0.0
O281 O 0.91872 0.90702 0.60829 0.0
C282 C 0.92065 0.95088 0.55833 0.0
O283 O 0.90623 0.96017 0.5664 0.0
N284 N 0.88503 0.9245 0.54128 0.0
C285 C 0.85475 0.93925 0.5103 0.0
C286 C 0.85339 0.9238 0.53131 0.0
C287 C 0.86885 0.91645 0.54609 0.0
C288 C 0.88695 0.93728 0.51551 0.0
C289 C 0.87184 0.94524 0.50039 0.0
H290 H 0.86773 0.90539 0.56457 0.0
H291 H 0.89994 0.94206 0.50754 0.0
H292 H 0.91791 0.94272 0.63119 0.0
H293 H 0.86443 0.9535 0.65914 0.0
H294 H 0.91555 0.86079 0.50473 0.0
H295 H 0.84047 0.91848 0.53911 0.0
H296 H 0.87345 0.95661 0.48276 0.0
C297 C 0.55431 0.87935 0.10262 0.0
C298 C 0.53908 0.87874 0.12327 0.0
N299 N 0.53939 0.89264 0.14629 0.0
N300 N 0.56433 0.89346 0.11272 0.0
C301 C 0.55493 0.9013 0.13932 0.0
H302 H 0.5575 0.87055 0.08057 0.0
Co303 Co 0.58455 0.90192 0.08881 0.0
C304 C 0.60103 0.92423 0.14374 0.0
O305 O 0.60184 0.93744 0.12069 0.0
N306 N 0.60427 0.9105 0.06344 0.0
C307 C 0.63094 0.91631 0.03952 0.0
C308 C 0.6221 0.9099 0.06938 0.0
C309 C 0.60264 0.91722 0.03027 0.0
N310 N 0.61856 0.92098 0.01508 0.0
O311 O 0.57312 0.92441 0.08394 0.0
H312 H 0.62825 0.90455 0.09322 0.0
H313 H 0.58997 0.91837 0.01655 0.0
O314 O 0.59492 0.90906 0.13397 0.0
C315 C 0.56107 0.92453 0.06001 0.0
O316 O 0.55802 0.90979 0.04182 0.0
N317 N 0.59498 0.87935 0.09168 0.0
C318 C 0.59696 0.84236 0.08731 0.0
C319 C 0.59615 0.85087 0.12075 0.0
C320 C 0.59534 0.86956 0.1224 0.0
C321 C 0.59783 0.87141 0.05945 0.0
C322 C 0.59934 0.85293 0.05678 0.0
H323 H 0.59273 0.8759 0.14782 0.0
H324 H 0.59715 0.87921 0.03523 0.0
H325 H 0.55916 0.91353 0.15228 0.0
H326 H 0.52819 0.86932 0.12009 0.0
H327 H 0.64531 0.91719 0.03589 0.0
H328 H 0.59426 0.84326 0.14503 0.0
H329 H 0.6005 0.84694 0.03054 0.0
C330 C 0.60207 0.5287 0.54944 0.0
C331 C 0.60049 0.51428 0.57171 0.0
N332 N 0.58533 0.51615 0.59095 0.0
N333 N 0.58797 0.53973 0.55442 0.0
C334 C 0.57794 0.53169 0.57973 0.0
H335 H 0.61286 0.53098 0.53069 0.0
Co336 Co 0.58359 0.56085 0.52936 0.0
C337 C 0.57581 0.5863 0.58943 0.0
O338 O 0.58757 0.59781 0.57728 0.0
N339 N 0.5787 0.58147 0.5024 0.0
C340 C 0.58019 0.60599 0.46878 0.0
C341 C 0.58611 0.59793 0.49966 0.0
C342 C 0.56824 0.58007 0.47318 0.0
N343 N 0.56917 0.59455 0.45184 0.0
O344 O 0.59307 0.54981 0.48689 0.0
H345 H 0.59667 0.60311 0.51638 0.0
H346 H 0.56113 0.56798 0.4662 0.0
O347 O 0.57317 0.57163 0.57264 0.0
C348 C 0.58819 0.53667 0.46751 0.0
O349 O 0.59846 0.53221 0.4404 0.0
N350 N 0.60716 0.56887 0.54133 0.0
C351 C 0.64385 0.56949 0.55544 0.0
C352 C 0.6315 0.56716 0.58319 0.0
C353 C 0.61321 0.56689 0.57559 0.0
C354 C 0.619 0.57304 0.51474 0.0
C355 C 0.63738 0.57349 0.52128 0.0
H356 H 0.60409 0.56324 0.59677 0.0
H357 H 0.61445 0.57478 0.4876 0.0
H358 H 0.56551 0.53721 0.58972 0.0
H359 H 0.60971 0.50313 0.57301 0.0
H360 H 0.58506 0.6185 0.45794 0.0
H361 H 0.63588 0.56388 0.60994 0.0
H362 H 0.6465 0.57572 0.49921 0.0
C363 C 0.93579 0.61865 0.15622 0.0
C364 C 0.94775 0.61838 0.18411 0.0
N365 N 0.95349 0.60147 0.18832 0.0
N366 N 0.93427 0.60203 0.14224 0.0
C367 C 0.94467 0.59179 0.16355 0.0
H368 H 0.92871 0.63036 0.14723 0.0
Co369 Co 0.91974 0.59397 0.10434 0.0
C370 C 0.89706 0.58283 0.15638 0.0
O371 O 0.89114 0.5992 0.15143 0.0
N372 N 0.90484 0.58631 0.06799 0.0
C373 C 0.88098 0.58544 0.03293 0.0
C374 C 0.88784 0.59196 0.06435 0.0
C375 C 0.9081 0.57637 0.03852 0.0
N376 N 0.89375 0.57562 0.01649 0.0
O377 O 0.93772 0.57602 0.09072 0.0
H378 H 0.8811 0.60089 0.08269 0.0
H379 H 0.92091 0.57026 0.03292 0.0
O380 O 0.90948 0.577 0.13622 0.0
C381 C 0.95487 0.57588 0.09006 0.0
O382 O 0.96389 0.59036 0.0987 0.0
N383 N 0.9291 0.61141 0.07329 0.0
C384 C 0.94461 0.64087 0.04069 0.0
C385 C 0.92975 0.64301 0.06314 0.0
C386 C 0.92198 0.62796 0.07872 0.0
C387 C 0.94139 0.60889 0.04668 0.0
C388 C 0.94986 0.62356 0.03094 0.0
H389 H 0.91093 0.62958 0.09715 0.0
H390 H 0.94523 0.59567 0.03813 0.0
H391 H 0.94598 0.57744 0.16066 0.0
H392 H 0.9523 0.62983 0.19933 0.0
H393 H 0.86783 0.58845 0.02245 0.0
H394 H 0.92497 0.65619 0.07054 0.0
H395 H 0.96074 0.62142 0.01227 0.0
C396 C 0.37291 0.94829 0.41331 0.0
C397 C 0.38202 0.93788 0.38882 0.0
N398 N 0.39269 0.9486 0.36906 0.0
N399 N 0.37772 0.96549 0.40882 0.0
C400 C 0.38953 0.96528 0.38155 0.0
H401 H 0.3644 0.94349 0.43463 0.0
Co402 Co 0.37425 0.9847 0.43955 0.0
C403 C 0.36177 0.01217 0.3861 0.0
O404 O 0.3478 0.01681 0.40541 0.0
N405 N 0.37179 0.004 0.47163 0.0
C406 C 0.3722 0.03038 0.49951 0.0
C407 C 0.3722 0.02194 0.46687 0.0
C408 C 0.37269 0.002 0.50746 0.0
N409 N 0.37256 0.01776 0.52499 0.0
O410 O 0.39937 0.98822 0.44153 0.0
H411 H 0.37383 0.02873 0.44175 0.0
H412 H 0.37408 0.98918 0.5205 0.0
O413 O 0.37277 0.00044 0.39777 0.0
C414 C 0.40725 0.97804 0.46369 0.0
O415 O 0.3977 0.96611 0.48105 0.0
N416 N 0.3493 0.98049 0.43972 0.0
C417 C 0.31238 0.98134 0.44829 0.0
C418 C 0.31989 0.9811 0.41393 0.0
C419 C 0.33855 0.98022 0.41019 0.0
C420 C 0.34201 0.97746 0.4725 0.0
C421 C 0.32357 0.97829 0.47758 0.0
H422 H 0.34436 0.98062 0.38376 0.0
H423 H 0.3505 0.97519 0.49524 0.0
H424 H 0.39654 0.97713 0.37278 0.0
H425 H 0.38174 0.92342 0.38764 0.0
H426 H 0.37305 0.04465 0.50414 0.0
H427 H 0.31158 0.98279 0.39049 0.0
H428 H 0.31817 0.9774 0.50438 0.0
C429 C 0.52307 0.36655 0.88797 0.0
C430 C 0.53402 0.37576 0.86472 0.0
N431 N 0.52387 0.38741 0.84608 0.0
N432 N 0.50613 0.37231 0.88376 0.0
C433 C 0.50702 0.38494 0.85825 0.0
H434 H 0.52724 0.35675 0.90747 0.0
Co435 Co 0.48624 0.36667 0.91074 0.0
C436 C 0.45725 0.37829 0.86175 0.0
O437 O 0.44872 0.38701 0.88705 0.0
N438 N 0.46649 0.36137 0.93908 0.0
C439 C 0.44122 0.35191 0.96402 0.0
C440 C 0.45105 0.35256 0.93278 0.0
C441 C 0.4659 0.36566 0.97397 0.0
N442 N 0.45063 0.36025 0.98992 0.0
O443 O 0.48309 0.39113 0.92137 0.0
H444 H 0.44726 0.34686 0.90732 0.0
H445 H 0.47683 0.37224 0.9876 0.0
O446 O 0.47146 0.3696 0.86891 0.0
C447 C 0.49257 0.39956 0.94387 0.0
O448 O 0.50555 0.39118 0.96061 0.0
N449 N 0.48932 0.34248 0.90039 0.0
C450 C 0.48536 0.30604 0.88879 0.0
C451 C 0.48701 0.31783 0.85986 0.0
C452 C 0.48899 0.33609 0.86625 0.0
C453 C 0.49031 0.33107 0.92857 0.0
C454 C 0.48806 0.31275 0.92345 0.0
H455 H 0.48929 0.34515 0.84381 0.0
H456 H 0.49129 0.33633 0.95541 0.0
H457 H 0.49548 0.39248 0.84958 0.0
H458 H 0.54841 0.37438 0.86283 0.0
H459 H 0.42815 0.34585 0.96725 0.0
H460 H 0.48571 0.31314 0.83262 0.0
H461 H 0.487 0.30425 0.94671 0.0
C462 C 0.1276 0.5443 0.42997 0.0
C463 C 0.11751 0.55565 0.40907 0.0
N464 N 0.10553 0.54571 0.39088 0.0
N465 N 0.12209 0.52733 0.42445 0.0
C466 C 0.10877 0.52865 0.40037 0.0
H467 H 0.13758 0.54824 0.44937 0.0
Co468 Co 0.12777 0.50678 0.44969 0.0
C469 C 0.13973 0.48343 0.38838 0.0
O470 O 0.15487 0.47911 0.4041 0.0
N471 N 0.13256 0.48608 0.47659 0.0
C472 C 0.13287 0.45841 0.49863 0.0
C473 C 0.13251 0.46851 0.46796 0.0
C474 C 0.13223 0.48616 0.51269 0.0
N475 N 0.13264 0.46958 0.52681 0.0
O476 O 0.10314 0.50131 0.45378 0.0
H477 H 0.13075 0.46307 0.44156 0.0
H478 H 0.13022 0.49817 0.52835 0.0
O479 O 0.12856 0.49364 0.40434 0.0
C480 C 0.09504 0.5093 0.47901 0.0
O481 O 0.10401 0.52072 0.49884 0.0
N482 N 0.15222 0.51286 0.44766 0.0
C483 C 0.18849 0.5217 0.4515 0.0
C484 C 0.17976 0.52067 0.41835 0.0
C485 C 0.16148 0.51653 0.41705 0.0
C486 C 0.16011 0.51557 0.47997 0.0
C487 C 0.17824 0.51957 0.48256 0.0
H488 H 0.15481 0.5162 0.39147 0.0
H489 H 0.15237 0.5147 0.50413 0.0
H490 H 0.1009 0.51733 0.39143 0.0
H491 H 0.11808 0.57012 0.40916 0.0
H492 H 0.13248 0.44395 0.49996 0.0
H493 H 0.18698 0.52291 0.39367 0.0
H494 H 0.18419 0.52043 0.50885 0.0
C495 C 0.94628 0.12773 0.89797 0.0
C496 C 0.93483 0.11909 0.87474 0.0
N497 N 0.94447 0.10731 0.85532 0.0
N498 N 0.963 0.12136 0.89312 0.0
C499 C 0.96147 0.10909 0.86689 0.0
H500 H 0.94251 0.13721 0.91849 0.0
Co501 Co 0.98297 0.1245 0.92173 0.0
C502 C 0.01061 0.11302 0.87032 0.0
O503 O 0.01636 0.10103 0.89322 0.0
N504 N 0.00285 0.12736 0.95104 0.0
C505 C 0.02841 0.13586 0.97607 0.0
C506 C 0.01853 0.13579 0.945 0.0
C507 C 0.00341 0.12256 0.9857 0.0
N508 N 0.01883 0.12754 1.00171 0.0
O509 O 0.98474 0.09937 0.92708 0.0
H510 H 0.02232 0.14194 0.91999 0.0
H511 H 0.99231 0.11624 0.99929 0.0
O512 O -0.00206 0.12361 0.87916 0.0
C513 C 0.97426 0.09172 0.94902 0.0
O514 O 0.9623 0.10138 0.96617 0.0
N515 N 0.98073 0.14923 0.91878 0.0
C516 C 0.98203 0.18629 0.92644 0.0
C517 C 0.98472 0.17823 0.89286 0.0
C518 C 0.98403 0.15958 0.88957 0.0
C519 C 0.97651 0.15683 0.95071 0.0
C520 C 0.97732 0.17528 0.9553 0.0
H521 H 0.98666 0.15353 0.86392 0.0
H522 H 0.97355 0.14837 0.97337 0.0
H523 H 0.97238 0.10049 0.85859 0.0
H524 H 0.92044 0.12077 0.87339 0.0
H525 H 0.04153 0.14177 0.97951 0.0
H526 H 0.98783 0.18617 0.86953 0.0
H527 H 0.97526 0.18065 0.98183 0.0
C528 C 0.95166 0.95071 0.5325 0.0
C529 C 0.93687 0.96029 0.54575 0.0
C530 C 0.96682 0.95976 0.52008 0.0
C531 C 0.99008 0.00331 0.52557 0.0
H532 H 0.01275 0.988 0.4375 0.0
C533 C 0.04329 0.04613 0.45409 0.0
C534 C 0.05834 0.03715 0.44036 0.0
C535 C 0.02861 0.03649 0.46695 0.0
C536 C 0.00669 0.99232 0.46233 0.0
H537 H 0.92645 0.98686 0.55662 0.0
H538 H 0.95277 0.00258 0.53469 0.0
H539 H 0.98707 0.97144 0.46059 0.0
H540 H 0.06972 0.01103 0.42901 0.0
H541 H 0.04414 0.99425 0.45168 0.0
H542 H 0.00963 0.02422 0.52728 0.0
C543 C 0.95275 0.98809 0.53422 0.0
C544 C 0.99199 0.98282 0.47558 0.0
C545 C 0.93761 0.97907 0.54656 0.0
C546 C 0.05833 0.01836 0.43942 0.0
C547 C 0.04363 0.00873 0.45222 0.0
C548 C 0.00475 0.0128 0.51233 0.0
C549 C 0.96752 0.97856 0.52078 0.0
C550 C 0.98347 0.98827 0.50725 0.0
C551 C 0.02865 0.01769 0.46629 0.0
C552 C 0.01317 0.00746 0.48048 0.0
H553 H 0.9515 0.93622 0.53153 0.0
H554 H 0.97807 0.95203 0.51021 0.0
H555 H 0.98399 0.00767 0.55036 0.0
H556 H 0.04286 0.06061 0.45514 0.0
H557 H 0.01716 0.04379 0.47718 0.0
C558 C 0.46511 0.05601 0.02051 0.0
C559 C 0.45299 0.05313 0.99241 0.0
C560 C 0.47812 0.04326 0.02849 0.0
C561 C 0.50287 0.00599 0.98831 0.0
H562 H 0.51118 0.99122 0.08613 0.0
C563 C 0.53872 0.94091 0.02343 0.0
C564 C 0.55069 0.9408 0.05228 0.0
C565 C 0.52847 0.95602 0.01621 0.0
C566 C 0.50923 0.99545 0.05876 0.0
H567 H 0.44479 0.03459 0.9509 0.0
H568 H 0.46749 0.01224 0.96502 0.0
H569 H 0.48951 0.01487 0.07365 0.0
H570 H 0.56154 0.95644 0.09604 0.0
H571 H 0.5435 0.98302 0.08331 0.0
H572 H 0.52237 0.98643 0.97332 0.0
C573 C 0.46703 0.02446 0.98059 0.0
C574 C 0.49681 0.00892 0.05162 0.0
C575 C 0.45396 0.03717 0.9727 0.0
C576 C 0.55239 0.95618 0.07363 0.0
C577 C 0.54204 0.97133 0.06645 0.0
C578 C 0.51529 0.99257 0.99543 0.0
C579 C 0.4793 0.02745 0.00839 0.0
C580 C 0.49328 0.01406 0.01627 0.0
C581 C 0.52996 0.97134 0.03771 0.0
C582 C 0.51833 0.98692 0.03065 0.0
H583 H 0.46467 0.0682 0.03617 0.0
H584 H 0.48749 0.04592 0.04993 0.0
H585 H 0.50067 0.00998 0.96087 0.0
H586 H 0.53712 0.92927 0.00647 0.0
H587 H 0.51906 0.95554 0.99423 0.0
C588 C 0.56896 0.50993 0.45693 0.0
C589 C 0.57151 0.52645 0.47421 0.0
C590 C 0.55263 0.50093 0.45941 0.0
C591 C 0.50568 0.51065 0.4664 0.0
H592 H 0.49989 0.45954 0.4798 0.0
C593 C 0.43665 0.47768 0.45034 0.0
C594 C 0.43596 0.4608 0.43391 0.0
C595 C 0.45298 0.48495 0.46112 0.0
C596 C 0.50128 0.4738 0.47559 0.0
H597 H 0.55911 0.54582 0.5097 0.0
H598 H 0.53037 0.53035 0.51303 0.0
H599 H 0.52916 0.47336 0.48959 0.0
H600 H 0.45177 0.43816 0.41623 0.0
H601 H 0.48048 0.45119 0.43346 0.0
H602 H 0.47829 0.51117 0.45035 0.0
C603 C 0.54113 0.52444 0.49756 0.0
C604 C 0.51801 0.4817 0.48153 0.0
C605 C 0.55761 0.53331 0.49556 0.0
C606 C 0.45193 0.4512 0.4289 0.0
C607 C 0.46836 0.45864 0.43907 0.0
C608 C 0.48906 0.50274 0.45989 0.0
C609 C 0.5384 0.50836 0.47888 0.0
C610 C 0.52038 0.50017 0.47666 0.0
C611 C 0.46912 0.4757 0.45508 0.0
C612 C 0.48665 0.48417 0.46405 0.0
H613 H 0.57944 0.50412 0.4406 0.0
H614 H 0.55086 0.48859 0.44461 0.0
H615 H 0.50723 0.52488 0.46183 0.0
H616 H 0.42451 0.48527 0.45511 0.0
H617 H 0.45291 0.49789 0.47417 0.0
C618 C 0.95527 0.54494 0.06409 0.0
C619 C 0.96461 0.55984 0.07744 0.0
C620 C 0.96457 0.53002 0.05131 0.0
C621 C 0.00845 0.50727 0.05563 0.0
H622 H 0.99274 0.48479 0.96772 0.0
C623 C 0.04979 0.45226 0.98465 0.0
C624 C 0.04017 0.43764 0.9709 0.0
C625 C 0.04076 0.46736 0.99747 0.0
C626 C -0.00281 0.4908 0.9925 0.0
H627 H 0.99104 0.57064 0.0883 0.0
H628 H 0.00723 0.54468 0.06584 0.0
H629 H 0.97643 0.51054 0.99106 0.0
H630 H 0.01354 0.42744 0.95962 0.0
H631 H -0.00215 0.45361 0.98226 0.0
H632 H 0.02917 0.4875 0.05711 0.0
C633 C 0.99273 0.54447 0.06547 0.0
C634 C 0.98783 0.50554 0.00588 0.0
C635 C 0.98343 0.5594 0.07814 0.0
C636 C 0.02137 0.43847 0.97004 0.0
C637 C 0.01236 0.45354 0.9828 0.0
C638 C 0.01779 0.49251 0.04226 0.0
C639 C 0.98341 0.52964 0.05175 0.0
C640 C 0.99333 0.51393 0.03763 0.0
C641 C 0.02193 0.46815 0.99671 0.0
C642 C 0.01225 0.48408 0.01058 0.0
H643 H 0.94076 0.54482 0.06329 0.0
H644 H 0.95701 0.5187 0.04133 0.0
H645 H 0.01288 0.5133 0.0804 0.0
H646 H 0.0643 0.45204 0.98567 0.0
H647 H 0.04854 0.47848 0.00766 0.0
C648 C 0.5628 0.01532 0.53413 0.0
C649 C 0.57115 0.00398 0.55892 0.0
C650 C 0.54505 0.01244 0.52408 0.0
C651 C 0.51062 0.97741 0.51973 0.0
H652 H 0.47827 0.01752 0.50717 0.0
C653 C 0.43479 0.96879 0.49645 0.0
C654 C 0.42647 0.98022 0.47178 0.0
C655 C 0.45265 0.97139 0.50605 0.0
C656 C 0.48721 0.00621 0.51011 0.0
H657 H 0.56738 0.98091 0.59316 0.0
H658 H 0.5362 0.97597 0.57579 0.0
H659 H 0.50878 0.02284 0.52778 0.0
H660 H 0.43046 0.0031 0.43712 0.0
H661 H 0.46179 0.00758 0.45376 0.0
H662 H 0.48901 0.96077 0.50212 0.0
C663 C 0.54351 0.98696 0.56381 0.0
C664 C 0.50467 0.00924 0.522 0.0
C665 C 0.5613 0.98985 0.57392 0.0
C666 C 0.43649 0.9941 0.45629 0.0
C667 C 0.45438 -0.00327 0.46597 0.0
C668 C 0.49315 0.97437 0.50785 0.0
C669 C 0.53524 -0.00183 0.53861 0.0
C670 C 0.51656 0.99488 0.5269 0.0
C671 C 0.46258 0.9855 0.49122 0.0
C672 C 0.48127 0.98874 0.50291 0.0
H673 H 0.57003 0.02632 0.52201 0.0
H674 H 0.53915 0.02118 0.50429 0.0
H675 H 0.51956 0.9661 0.52268 0.0
H676 H 0.42744 0.95797 0.50889 0.0
H677 H 0.45852 0.96263 0.52584 0.0
C678 C 0.48324 0.55561 0.02407 0.0
C679 C 0.47234 0.567 0.00369 0.0
C680 C 0.48255 0.53718 0.01913 0.0
C681 C 0.47177 0.5037 0.95173 0.0
H682 H 0.47641 0.47087 0.03131 0.0
C683 C 0.47499 0.42733 0.93245 0.0
C684 C 0.48846 0.41844 0.95172 0.0
C685 C 0.47091 0.44514 0.93984 0.0
C686 C 0.47519 0.4799 0.00886 0.0
H687 H 0.45179 0.56802 0.96286 0.0
H688 H 0.45057 0.5356 0.9542 0.0
H689 H 0.47217 0.50275 0.04278 0.0
H690 H 0.50813 0.42116 0.99397 0.0
H691 H 0.50109 0.45242 0.00664 0.0
H692 H 0.47514 0.48092 0.9178 0.0
C693 C 0.45975 0.54104 0.97377 0.0
C694 C 0.47274 0.49811 0.0154 0.0
C695 C 0.46041 0.55956 0.97881 0.0
C696 C 0.4977 0.42767 0.97866 0.0
C697 C 0.49357 0.4455 0.9861 0.0
C698 C 0.4742 0.48549 0.94519 0.0
C699 C 0.47093 0.5297 0.99371 0.0
C700 C 0.47136 0.51022 0.98689 0.0
C701 C 0.48018 0.45441 0.96667 0.0
C702 C 0.47626 0.47347 0.97369 0.0
H703 H 0.49246 0.56092 0.0437 0.0
H704 H 0.4915 0.52881 0.03454 0.0
H705 H 0.47098 0.51275 0.92923 0.0
H706 H 0.46759 0.42056 0.91157 0.0
H707 H 0.46041 0.45164 0.92468 0.0
C708 C 0.93693 0.47176 0.52982 0.0
C709 C 0.92971 0.48143 0.55863 0.0
C710 C 0.95507 0.47325 0.5213 0.0
C711 C -0.00131 0.48718 0.55811 0.0
H712 H 0.01164 0.49421 0.4588 0.0
C713 C 0.06768 0.51359 0.51623 0.0
C714 C 0.07609 0.50542 0.48689 0.0
C715 C 0.04995 0.50956 0.52462 0.0
C716 C 0.00825 0.49202 0.48657 0.0
H717 H 0.93586 0.49997 0.60153 0.0
H718 H 0.96749 0.50267 0.58647 0.0
H719 H 0.98041 0.48875 0.47474 0.0
H720 H 0.07248 0.48677 0.44303 0.0
H721 H 0.04141 0.47968 0.45785 0.0
H722 H 0.02649 0.49067 0.57 0.0
C723 C 0.95917 0.49381 0.57068 0.0
C724 C 0.99039 0.48888 0.4957 0.0
C725 C 0.94104 0.49235 0.57917 0.0
C726 C 0.06634 0.49328 0.46582 0.0
C727 C 0.04855 0.48927 0.4742 0.0
C728 C 0.01653 0.49032 0.54899 0.0
C729 C 0.96634 0.48439 0.54149 0.0
C730 C 0.98541 0.48664 0.5316 0.0
C731 C 0.04023 0.49729 0.50385 0.0
C732 C 0.02146 0.49299 0.51318 0.0
H733 H 0.92854 0.46319 0.51356 0.0
H734 H 0.96029 0.46567 0.49892 0.0
H735 H 0.99529 0.4852 0.58593 0.0
H736 H 0.07481 0.52305 0.53291 0.0
H737 H 0.04379 0.51618 0.54726 0.0
C738 C 0.99418 0.93766 0.05415 0.0
C739 C 0.00756 0.92843 0.03518 0.0
C740 C 0.98982 0.95526 0.04515 0.0
C741 C 0.99252 0.98695 0.9702 0.0
H742 H 0.98435 0.023 0.04295 0.0
C743 C 0.98919 0.06223 0.93882 0.0
C744 C 0.97634 0.07252 0.95702 0.0
C745 C 0.99192 0.04434 0.94788 0.0
C746 C 0.98636 0.01301 0.02235 0.0
H747 H 0.02719 0.93055 0.99261 0.0
H748 H 0.01973 0.96126 0.97727 0.0
H749 H 0.99156 0.99242 0.06061 0.0
H750 H 0.95597 0.07203 0.99837 0.0
H751 H 0.96066 0.04073 0.01399 0.0
H752 H 0.98748 0.00755 0.93194 0.0
C753 C 0.01239 0.95481 0.99864 0.0
C754 C 0.9905 0.99553 0.03246 0.0
C755 C 0.01675 0.93725 0.00761 0.0
C756 C 0.96601 0.06447 0.98393 0.0
C757 C 0.96877 0.04658 0.99304 0.0
C758 C 0.9884 0.00442 0.9601 0.0
C759 C -0.00125 0.96393 0.01702 0.0
C760 C 0.99378 0.98236 0.00648 0.0
C761 C 0.98186 0.03639 0.97533 0.0
C762 C 0.98541 0.01766 0.98606 0.0
H763 H 0.98686 0.93119 0.07553 0.0
H764 H 0.97917 0.96192 0.05965 0.0
H765 H 0.99465 0.977 0.94957 0.0
H766 H -0.00264 0.06805 0.91794 0.0
H767 H 0.00223 0.03687 0.934 0.0
C768 C 0.0553 0.09744 0.31626 0.0
C769 C 0.06941 0.10844 0.32796 0.0
C770 C 0.04757 0.10008 0.28262 0.0
C771 C 0.04368 0.13278 0.20839 0.0
H772 H 0.03786 0.0905 0.14943 0.0
C773 C 0.03562 0.13707 0.05553 0.0
C774 C 0.02347 0.12535 0.03888 0.0
C775 C 0.03979 0.13518 0.09171 0.0
C776 C 0.03915 0.10244 0.16565 0.0
H777 H 0.08592 0.13129 0.31423 0.0
H778 H 0.07248 0.13591 0.25585 0.0
H779 H 0.04675 0.08731 0.21168 0.0
H780 H 0.00644 0.10222 0.04738 0.0
H781 H 0.01347 0.09912 0.11055 0.0
H782 H 0.03629 0.14793 0.16227 0.0
C783 C 0.0673 0.12529 0.27257 0.0
C784 C 0.04422 0.1006 0.20139 0.0
C785 C 0.07508 0.12258 0.30602 0.0
C786 C 0.01569 0.11162 0.05935 0.0
C787 C 0.01987 0.10972 0.09554 0.0
C788 C 0.03859 0.13462 0.17268 0.0
C789 C 0.0537 0.11385 0.26013 0.0
C790 C 0.04678 0.11576 0.22308 0.0
C791 C 0.03193 0.12151 0.11221 0.0
C792 C 0.03648 0.11949 0.15071 0.0
H793 H 0.05068 0.08637 0.33247 0.0
H794 H 0.03698 0.09117 0.27398 0.0
H795 H 0.04528 0.14472 0.2245 0.0
H796 H 0.04175 0.14789 0.04078 0.0
H797 H 0.04933 0.14435 0.10353 0.0
C798 C 0.40462 0.0628 0.8307 0.0
C799 C 0.39806 0.05205 0.8585 0.0
C800 C 0.40112 0.05845 0.79518 0.0
C801 C 0.38396 0.05287 0.72355 0.0
H802 H 0.38225 0.00346 0.69227 0.0
C803 C 0.36494 0.03492 0.57908 0.0
C804 C 0.37402 0.02064 0.56283 0.0
C805 C 0.36666 0.03807 0.61568 0.0
C806 C 0.38285 0.01735 0.70044 0.0
H807 H 0.38267 0.02829 0.87094 0.0
H808 H 0.37596 0.02096 0.80879 0.0
H809 H 0.38827 0.01025 0.75465 0.0
H810 H 0.39211 -0.00152 0.5719 0.0
H811 H 0.3957 0.00426 0.63557 0.0
H812 H 0.3795 0.06006 0.6692 0.0
C813 C 0.3842 0.03255 0.81438 0.0
C814 C 0.38603 0.02124 0.73642 0.0
C815 C 0.38795 0.03679 0.85003 0.0
C816 C 0.38478 0.00945 0.58389 0.0
C817 C 0.38676 0.01276 0.62042 0.0
C818 C 0.38102 0.049 0.68758 0.0
C819 C 0.39071 0.04337 0.78647 0.0
C820 C 0.38674 0.03907 0.74842 0.0
C821 C 0.3778 0.02718 0.63681 0.0
C822 C 0.38046 0.03119 0.67545 0.0
H823 H 0.4127 0.07452 0.83633 0.0
H824 H 0.40678 0.06685 0.77453 0.0
H825 H 0.38405 0.06676 0.7318 0.0
H826 H 0.35637 0.04357 0.56345 0.0
H827 H 0.35921 0.04904 0.62736 0.0
C828 C 0.42268 0.40078 0.30092 0.0
C829 C 0.40758 0.39287 0.31678 0.0
C830 C 0.42826 0.3955 0.26678 0.0
C831 C 0.41025 0.37396 0.18509 0.0
H832 H 0.46004 0.37385 0.15557 0.0
C833 C 0.4331 0.35177 0.04369 0.0
C834 C 0.44578 0.36287 0.02693 0.0
C835 C 0.42877 0.35421 0.07977 0.0
C836 C 0.44607 0.37391 0.16341 0.0
H837 H 0.38713 0.37253 0.31032 0.0
H838 H 0.39714 0.36294 0.2515 0.0
H839 H 0.45248 0.37976 0.21788 0.0
H840 H 0.46337 0.38568 0.0351 0.0
H841 H 0.45603 0.38969 0.09772 0.0
H842 H 0.40388 0.36809 0.13058 0.0
C843 C 0.40438 0.37361 0.26475 0.0
C844 C 0.44172 0.37734 0.1991 0.0
C845 C 0.39871 0.37901 0.29863 0.0
C846 C 0.45388 0.37656 0.04712 0.0
C847 C 0.44966 0.3789 0.08313 0.0
C848 C 0.41461 0.3704 0.14948 0.0
C849 C 0.41893 0.38208 0.24796 0.0
C850 C 0.42374 0.37756 0.21037 0.0
C851 C 0.4371 0.36775 0.09992 0.0
C852 C 0.43255 0.37052 0.13816 0.0
H853 H 0.42971 0.4116 0.31416 0.0
H854 H 0.43942 0.40245 0.25462 0.0
H855 H 0.39624 0.37435 0.19254 0.0
H856 H 0.42671 0.341 0.02918 0.0
H857 H 0.41911 0.34533 0.09205 0.0
C858 C 0.12307 0.44875 0.57445 0.0
C859 C 0.13108 0.46494 0.56407 0.0
C860 C 0.12125 0.44443 0.61054 0.0
C861 C 0.12081 0.46429 0.70124 0.0
H862 H 0.12828 0.41507 0.73003 0.0
C863 C 0.1003 0.43629 0.84015 0.0
C864 C 0.11093 0.42261 0.85471 0.0
C865 C 0.10407 0.44307 0.80611 0.0
C866 C 0.12636 0.42894 0.72263 0.0
H867 H 0.14368 0.48918 0.58358 0.0
H868 H 0.14065 0.48158 0.64665 0.0
H869 H 0.13246 0.42341 0.66799 0.0
H870 H 0.13453 0.40624 0.84629 0.0
H871 H 0.1414 0.41838 0.78765 0.0
H872 H 0.11496 0.46981 0.75622 0.0
C873 C 0.13549 0.47236 0.62685 0.0
C874 C 0.1285 0.43367 0.68686 0.0
C875 C 0.13726 0.4767 0.5907 0.0
C876 C 0.12598 0.41664 0.83559 0.0
C877 C 0.12983 0.42351 0.80183 0.0
C878 C 0.11868 0.45955 0.73716 0.0
C879 C 0.12746 0.45615 0.63722 0.0
C880 C 0.12564 0.45136 0.67562 0.0
C881 C 0.1186 0.43638 0.78613 0.0
C882 C 0.12139 0.44179 0.74828 0.0
H883 H 0.11785 0.43954 0.55474 0.0
H884 H 0.1147 0.43199 0.61754 0.0
H885 H 0.11834 0.47801 0.69346 0.0
H886 H 0.08854 0.44106 0.85419 0.0
H887 H 0.09507 0.4529 0.79478 0.0
C888 C 0.61018 0.94978 0.6947 0.0
C889 C 0.61908 0.96531 0.68321 0.0
C890 C 0.61188 0.94386 0.72997 0.0
C891 C 0.63922 0.94885 0.81248 0.0
H892 H 0.59529 0.93429 0.85944 0.0
C893 C 0.60804 0.938 0.96288 0.0
C894 C 0.62113 0.92719 0.97899 0.0
C895 C 0.60917 0.94239 0.92678 0.0
C896 C 0.60768 0.9384 0.8468 0.0
H897 H 0.63705 0.98659 0.69978 0.0
H898 H 0.63989 0.97635 0.76112 0.0
H899 H 0.59481 0.94178 0.79632 0.0
H900 H 0.64613 0.91315 0.97011 0.0
H901 H 0.64818 0.92089 0.90665 0.0
H902 H 0.65194 0.94586 0.86347 0.0
C903 C 0.63178 0.9686 0.74281 0.0
C904 C 0.60745 0.94247 0.81043 0.0
C905 C 0.63007 0.97452 0.70759 0.0
C906 C 0.63589 0.92157 0.95848 0.0
C907 C 0.63702 0.92597 0.92215 0.0
C908 C 0.63945 0.94471 0.84895 0.0
C909 C 0.62251 0.95333 0.7546 0.0
C910 C 0.62316 0.94792 0.79285 0.0
C911 C 0.62343 0.93609 0.90573 0.0
C912 C 0.62362 0.93968 0.86664 0.0
H913 H 0.60169 0.9423 0.67662 0.0
H914 H 0.60476 0.9319 0.73801 0.0
H915 H 0.6516 0.95283 0.79967 0.0
H916 H 0.59672 0.94288 0.97815 0.0
H917 H 0.59873 0.95062 0.91526 0.0
C918 C 0.52433 0.61592 0.14004 0.0
C919 C 0.52368 0.59997 0.12016 0.0
C920 C 0.53032 0.61588 0.17531 0.0
C921 C 0.55493 0.58882 0.24229 0.0
H922 H 0.5281 0.61769 0.30992 0.0
C923 C 0.56201 0.58005 0.39422 0.0
C924 C 0.56332 0.59563 0.41522 0.0
C925 C 0.55752 0.5811 0.35814 0.0
C926 C 0.53585 0.60972 0.29131 0.0
H927 H 0.52933 0.57154 0.12136 0.0
H928 H 0.53958 0.57139 0.18323 0.0
H929 H 0.52022 0.61843 0.24682 0.0
H930 H 0.56065 0.62447 0.41479 0.0
H931 H 0.55274 0.62632 0.35145 0.0
H932 H 0.57034 0.5799 0.28702 0.0
C933 C 0.53566 0.584 0.17139 0.0
C934 C 0.53137 0.61015 0.2551 0.0
C935 C 0.52976 0.58406 0.13593 0.0
C936 C 0.55978 0.61227 0.39929 0.0
C937 C 0.55516 0.6133 0.36313 0.0
C938 C 0.55934 0.58832 0.27853 0.0
C939 C 0.53573 0.59987 0.19171 0.0
C940 C 0.54082 0.59967 0.23012 0.0
C941 C 0.55417 0.59772 0.34209 0.0
C942 C 0.54979 0.5987 0.30347 0.0
H943 H 0.51999 0.62846 0.12849 0.0
H944 H 0.53059 0.62842 0.18983 0.0
H945 H 0.56268 0.58081 0.22378 0.0
H946 H 0.56495 0.56703 0.40532 0.0
H947 H 0.55667 0.56884 0.34278 0.0
C948 C 0.87585 0.56505 0.9649 0.0
C949 C 0.89258 0.5674 0.98153 0.0
C950 C 0.87466 0.55815 0.93035 0.0
C951 C 0.90169 0.55094 0.84823 0.0
H952 H 0.86015 0.52307 0.82035 0.0
C953 C 0.89173 0.51775 0.7084 0.0
C954 C 0.87518 0.52165 0.69224 0.0
C955 C 0.89496 0.52266 0.7439 0.0
C956 C 0.8718 0.53087 0.8278 0.0
H957 H 0.92126 0.5637 0.97437 0.0
H958 H 0.91909 0.55099 0.91487 0.0
H959 H 0.86394 0.53174 0.88257 0.0
H960 H 0.84909 0.53377 0.7006 0.0
H961 H 0.85465 0.542 0.76263 0.0
H962 H 0.9096 0.54964 0.79317 0.0
C963 C 0.90687 0.55498 0.92832 0.0
C964 C 0.87396 0.53594 0.86341 0.0
C965 C 0.90809 0.5621 0.96282 0.0
C966 C 0.86201 0.53064 0.71219 0.0
C967 C 0.86512 0.53525 0.74776 0.0
C968 C 0.89966 0.5456 0.81264 0.0
C969 C 0.89014 0.55309 0.91145 0.0
C970 C 0.88873 0.54637 0.87404 0.0
C971 C 0.88158 0.53123 0.76401 0.0
C972 C 0.88452 0.53581 0.80202 0.0
H973 H 0.86354 0.56863 0.97833 0.0
H974 H 0.86153 0.55719 0.91822 0.0
H975 H 0.91312 0.55914 0.8552 0.0
H976 H 0.90214 0.51082 0.69371 0.0
H977 H 0.90774 0.51937 0.75591 0.0
C978 C 0.96366 0.85543 0.18061 0.0
C979 C 0.97525 0.86769 0.16401 0.0
C980 C 0.95794 0.85816 0.21576 0.0
C981 C 0.95296 0.89282 0.28578 0.0
H982 H 0.95157 0.85192 0.34925 0.0
C983 C 0.93845 0.89946 0.43761 0.0
C984 C 0.92734 0.88635 0.45295 0.0
C985 C 0.94466 0.89759 0.40249 0.0
C986 C 0.95169 0.86346 0.33182 0.0
H987 H 0.98968 0.89264 0.1713 0.0
H988 H 0.97977 0.89734 0.23266 0.0
H989 H 0.96138 0.848 0.28774 0.0
H990 H 0.91368 0.86123 0.44277 0.0
H991 H 0.92442 0.85801 0.38191 0.0
H992 H 0.94318 0.90826 0.32992 0.0
C993 C 0.975 0.88567 0.21839 0.0
C994 C 0.95732 0.8612 0.2965 0.0
C995 C 0.98076 0.88291 0.18324 0.0
C996 C 0.92251 0.87141 0.43221 0.0
C997 C 0.92868 0.86956 0.39719 0.0
C998 C 0.9473 0.89508 0.32115 0.0
C999 C 0.96364 0.87324 0.23518 0.0
C1000 C 0.95792 0.87582 0.27296 0.0
C1001 C 0.93989 0.88257 0.38188 0.0
C1002 C 0.94648 0.88039 0.34455 0.0
H1003 H 0.9591 0.84359 0.1666 0.0
H1004 H 0.94897 0.84847 0.22767 0.0
H1005 H 0.9531 0.90432 0.26826 0.0
H1006 H 0.94259 0.91103 0.45291 0.0
H1007 H 0.95344 0.90778 0.39169 0.0
C1008 C 0.95301 0.86558 0.93653 0.0
C1009 C 0.9686 0.87342 0.9505 0.0
C1010 C 0.94922 0.86665 0.90007 0.0
C1011 C 0.95827 0.89392 0.82078 0.0
H1012 H 0.93918 0.853 0.7697 0.0
C1013 C 0.93836 0.89864 0.67204 0.0
C1014 C 0.92172 0.89096 0.66344 0.0
C1015 C 0.94645 0.89509 0.705 0.0
C1016 C 0.94441 0.86459 0.78361 0.0
H1017 H 0.99237 0.88873 0.93714 0.0
H1018 H 0.98577 0.89056 0.87346 0.0
H1019 H 0.94844 0.84973 0.83177 0.0
H1020 H 0.9009 0.87298 0.68207 0.0
H1021 H 0.91479 0.86702 0.73932 0.0
H1022 H 0.95374 0.90894 0.77307 0.0
C1023 C 0.9765 0.88355 0.89075 0.0
C1024 C 0.94971 0.8627 0.81916 0.0
C1025 C 0.98036 0.88235 0.92718 0.0
C1026 C 0.91372 0.87914 0.68782 0.0
C1027 C 0.92177 0.87561 0.72065 0.0
C1028 C 0.95287 0.89584 0.78526 0.0
C1029 C 0.96088 0.87573 0.8768 0.0
C1030 C 0.95644 0.87741 0.83831 0.0
C1031 C 0.93808 0.88377 0.72996 0.0
C1032 C 0.94559 0.88127 0.76641 0.0
H1033 H 0.94378 0.85851 0.95379 0.0
H1034 H 0.93697 0.86065 0.89019 0.0
H1035 H 0.96325 0.90555 0.83492 0.0
H1036 H 0.94488 0.90781 0.65381 0.0
H1037 H 0.95914 0.90141 0.71113 0.0
C1038 C 0.61052 0.96425 0.45995 0.0
C1039 C 0.62606 0.95914 0.47849 0.0
C1040 C 0.60828 0.95975 0.42401 0.0
C1041 C 0.62453 0.92919 0.35299 0.0
H1042 H 0.60441 0.96516 0.29025 0.0
C1043 C 0.61275 0.94395 0.19262 0.0
C1044 C 0.60587 0.92733 0.18162 0.0
C1045 C 0.61612 0.94735 0.2287 0.0
C1046 C 0.61021 0.955 0.30729 0.0
H1047 H 0.65137 0.9451 0.47367 0.0
H1048 H 0.64749 0.93728 0.41093 0.0
H1049 H 0.60844 0.97188 0.35329 0.0
H1050 H 0.59749 0.90111 0.19995 0.0
H1051 H 0.60321 0.90711 0.26288 0.0
H1052 H 0.62658 0.91242 0.30672 0.0
C1053 C 0.63693 0.9446 0.42434 0.0
C1054 C 0.61229 0.95878 0.34358 0.0
C1055 C 0.63915 0.94909 0.46036 0.0
C1056 C 0.60285 0.91404 0.20746 0.0
C1057 C 0.6062 0.91745 0.24358 0.0
C1058 C 0.62243 0.9254 0.31662 0.0
C1059 C 0.62153 0.95003 0.40563 0.0
C1060 C 0.61942 0.94592 0.36694 0.0
C1061 C 0.61266 0.93424 0.2547 0.0
C1062 C 0.61524 0.93826 0.29332 0.0
H1063 H 0.60001 0.9717 0.47325 0.0
H1064 H 0.59609 0.96383 0.41065 0.0
H1065 H 0.62993 0.91892 0.37025 0.0
H1066 H 0.61533 0.95446 0.17342 0.0
H1067 H 0.6214 0.96031 0.23624 0.0
C1068 C 0.51806 0.59898 0.89782 0.0
C1069 C 0.52666 0.61296 0.91626 0.0
C1070 C 0.52181 0.59576 0.86173 0.0
C1071 C 0.53895 0.61778 0.78076 0.0
H1072 H 0.54924 0.56971 0.74754 0.0
C1073 C 0.57206 0.60486 0.64456 0.0
C1074 C 0.56754 0.58945 0.62497 0.0
C1075 C 0.56541 0.60752 0.679 0.0
C1076 C 0.54609 0.58318 0.75615 0.0
H1077 H 0.54574 0.63464 0.9111 0.0
H1078 H 0.55224 0.62909 0.84816 0.0
H1079 H 0.54085 0.57465 0.80981 0.0
H1080 H 0.55206 0.56491 0.62616 0.0
H1081 H 0.54008 0.56975 0.68619 0.0
H1082 H 0.54403 0.62639 0.72732 0.0
C1083 C 0.5426 0.62061 0.86161 0.0
C1084 C 0.54134 0.58601 0.79191 0.0
C1085 C 0.53902 0.62368 0.89776 0.0
C1086 C 0.55584 0.57692 0.6405 0.0
C1087 C 0.54908 0.57964 0.67505 0.0
C1088 C 0.54352 0.61495 0.745 0.0
C1089 C 0.53406 0.60661 0.84317 0.0
C1090 C 0.53801 0.60339 0.80474 0.0
C1091 C 0.5539 0.59493 0.69487 0.0
C1092 C 0.54749 0.59766 0.73229 0.0
H1093 H 0.50859 0.59039 0.91141 0.0
H1094 H 0.51495 0.58493 0.84822 0.0
H1095 H 0.53613 0.63129 0.78967 0.0
H1096 H 0.5811 0.61478 0.63363 0.0
H1097 H 0.56972 0.61929 0.69353 0.0
C1098 C 0.90207 0.5587 0.20182 0.0
C1099 C 0.89163 0.57291 0.18877 0.0
C1100 C 0.89862 0.55146 0.23558 0.0
C1101 C 0.8793 0.56547 0.32126 0.0
H1102 H 0.88539 0.51573 0.3479 0.0
C1103 C 0.88869 0.54441 0.46717 0.0
C1104 C 0.87922 0.52935 0.47941 0.0
C1105 C 0.88922 0.54855 0.43088 0.0
C1106 C 0.8835 0.52964 0.34079 0.0
H1107 H 0.86857 0.58972 0.19962 0.0
H1108 H 0.86238 0.5769 0.25804 0.0
H1109 H 0.88699 0.52433 0.28491 0.0
H1110 H 0.86294 0.5068 0.46275 0.0
H1111 H 0.86397 0.51403 0.39917 0.0
H1112 H 0.87583 0.57086 0.37688 0.0
C1113 C 0.8735 0.57165 0.24268 0.0
C1114 C 0.88456 0.53458 0.30479 0.0
C1115 C 0.87699 0.57892 0.2091 0.0
C1116 C 0.8705 0.51839 0.45426 0.0
C1117 C 0.87109 0.52253 0.41783 0.0
C1118 C 0.87831 0.56056 0.35711 0.0
C1119 C 0.88463 0.55826 0.25684 0.0
C1120 C 0.88256 0.55258 0.29466 0.0
C1121 C 0.88033 0.53775 0.4058 0.0
C1122 C 0.88058 0.54264 0.36737 0.0
H1123 H 0.91349 0.55382 0.18682 0.0
H1124 H 0.9075 0.54121 0.24577 0.0
H1125 H 0.87795 0.57949 0.31451 0.0
H1126 H 0.89591 0.55295 0.48551 0.0
H1127 H 0.89677 0.56018 0.4224 0.0
C1128 C 0.36109 0.06282 0.07322 0.0
C1129 C 0.37718 0.05877 0.05545 0.0
C1130 C 0.35883 0.05829 0.10923 0.0
C1131 C 0.38551 0.04732 0.18977 0.0
H1132 H 0.34038 0.0297 0.22704 0.0
C1133 C 0.37903 0.01499 0.32894 0.0
C1134 C 0.36387 0.01932 0.34949 0.0
C1135 C 0.38045 0.02076 0.29358 0.0
C1136 C 0.35301 0.03481 0.2171 0.0
H1137 H 0.40304 0.04589 0.06077 0.0
H1138 H 0.39904 0.03774 0.12307 0.0
H1139 H 0.34284 0.03742 0.16391 0.0
H1140 H 0.33842 0.03337 0.34911 0.0
H1141 H 0.34094 0.04346 0.2874 0.0
H1142 H 0.39575 0.04447 0.2428 0.0
C1143 C 0.38837 0.04492 0.10974 0.0
C1144 C 0.35442 0.03924 0.18092 0.0
C1145 C 0.39065 0.04953 0.07398 0.0
C1146 C 0.35029 0.0298 0.33405 0.0
C1147 C 0.35166 0.03547 0.2986 0.0
C1148 C 0.38412 0.04282 0.22583 0.0
C1149 C 0.37258 0.04952 0.12805 0.0
C1150 C 0.37075 0.04538 0.16674 0.0
C1151 C 0.36669 0.03091 0.27789 0.0
C1152 C 0.36791 0.03638 0.23986 0.0
H1153 H 0.35054 0.07005 0.05967 0.0
H1154 H 0.34654 0.06213 0.12257 0.0
H1155 H 0.39818 0.0524 0.17996 0.0
H1156 H 0.38974 0.00694 0.33997 0.0
H1157 H 0.39212 0.01688 0.27822 0.0
C1158 C 0.43361 0.38385 0.81535 0.0
C1159 C 0.45142 0.37965 0.82414 0.0
C1160 C 0.42841 0.38529 0.77954 0.0
C1161 C 0.44352 0.39813 0.69294 0.0
H1162 H 0.4106 0.36378 0.65164 0.0
C1163 C 0.43065 0.39598 0.54084 0.0
C1164 C 0.41372 0.39054 0.52883 0.0
C1165 C 0.4351 0.3947 0.57705 0.0
C1166 C 0.41952 0.37376 0.6627 0.0
H1167 H 0.47778 0.37391 0.80237 0.0
H1168 H 0.46878 0.37709 0.74007 0.0
H1169 H 0.4178 0.36216 0.71501 0.0
H1170 H 0.38791 0.3802 0.54508 0.0
H1171 H 0.39518 0.37878 0.60825 0.0
H1172 H 0.44487 0.41025 0.64144 0.0
C1173 C 0.45885 0.37897 0.76087 0.0
C1174 C 0.4237 0.3727 0.69902 0.0
C1175 C 0.46394 0.37708 0.7965 0.0
C1176 C 0.40119 0.38412 0.55365 0.0
C1177 C 0.40545 0.38324 0.5899 0.0
C1178 C 0.43904 0.39947 0.65681 0.0
C1179 C 0.44106 0.38302 0.75212 0.0
C1180 C 0.43583 0.38478 0.71429 0.0
C1181 C 0.42251 0.38839 0.60221 0.0
C1182 C 0.42709 0.3872 0.641 0.0
H1183 H 0.42369 0.38586 0.8361 0.0
H1184 H 0.4146 0.38842 0.77323 0.0
H1185 H 0.45289 0.40761 0.70433 0.0
H1186 H 0.4405 0.40093 0.52207 0.0
H1187 H 0.44849 0.39849 0.58513 0.0
C1188 C 0.12869 0.42242 0.08561 0.0
C1189 C 0.11366 0.42712 0.06505 0.0
C1190 C 0.13073 0.42884 0.12038 0.0
C1191 C 0.10605 0.44812 0.19688 0.0
H1192 H 0.15352 0.46305 0.22659 0.0
C1193 C 0.12011 0.48197 0.33389 0.0
C1194 C 0.13586 0.47684 0.35179 0.0
C1195 C 0.1168 0.47618 0.29894 0.0
C1196 C 0.14021 0.45875 0.21891 0.0
H1197 H 0.08887 0.44225 0.06538 0.0
H1198 H 0.09244 0.4535 0.12631 0.0
H1199 H 0.14874 0.45268 0.16575 0.0
H1200 H 0.16031 0.46132 0.34705 0.0
H1201 H 0.15445 0.45109 0.28646 0.0
H1202 H 0.09757 0.45416 0.25025 0.0
C1203 C 0.10259 0.44469 0.11544 0.0
C1204 C 0.13746 0.45282 0.18396 0.0
C1205 C 0.10054 0.43824 0.0805 0.0
C1206 C 0.14809 0.46561 0.33406 0.0
C1207 C 0.14478 0.45983 0.29917 0.0
C1208 C 0.10881 0.45407 0.23195 0.0
C1209 C 0.11781 0.44018 0.13569 0.0
C1210 C 0.1204 0.44725 0.17256 0.0
C1211 C 0.12916 0.46513 0.28104 0.0
C1212 C 0.12597 0.4593 0.24349 0.0
H1213 H 0.13886 0.41356 0.07505 0.0
H1214 H 0.14241 0.42475 0.13544 0.0
H1215 H 0.09277 0.44377 0.1891 0.0
H1216 H 0.11041 0.49064 0.3467 0.0
H1217 H 0.10472 0.48065 0.28569 0.0
C1218 C 0.05238 0.12141 0.55292 0.0
C1219 C 0.06315 0.10729 0.54042 0.0
C1220 C 0.04662 0.12191 0.58846 0.0
C1221 C 0.05806 0.10519 0.67806 0.0
H1222 H 0.00928 0.11865 0.7015 0.0
C1223 C 0.02987 0.10005 0.82176 0.0
C1224 C 0.01772 0.11322 0.83329 0.0
C1225 C 0.03565 0.09948 0.78622 0.0
C1226 C 0.02303 0.11511 0.69552 0.0
H1227 H 0.0763 0.0826 0.55567 0.0
H1228 H 0.06617 0.08341 0.61764 0.0
H1229 H 0.01857 0.11712 0.63918 0.0
H1230 H 0.00243 0.1364 0.81647 0.0
H1231 H 0.01282 0.1357 0.75487 0.0
H1232 H 0.06262 0.10339 0.73433 0.0
C1233 C 0.06224 0.09415 0.59992 0.0
C1234 C 0.02833 0.11418 0.65973 0.0
C1235 C 0.06788 0.09358 0.56429 0.0
C1236 C 0.01177 0.12604 0.80856 0.0
C1237 C 0.01761 0.12553 0.77307 0.0
C1238 C 0.05279 0.10623 0.71387 0.0
C1239 C 0.0516 0.10836 0.61247 0.0
C1240 C 0.0459 0.10919 0.65056 0.0
C1241 C 0.02949 0.11214 0.7613 0.0
C1242 C 0.03519 0.1112 0.72312 0.0
H1243 H 0.04836 0.13209 0.53518 0.0
H1244 H 0.03854 0.13311 0.59731 0.0
H1245 H 0.07177 0.10156 0.67193 0.0
H1246 H 0.03466 0.08989 0.83999 0.0
H1247 H 0.0446 0.08883 0.77811 0.0
C1248 C 0.04054 0.92726 0.15825 0.0
C1249 C 0.05161 0.91218 0.15354 0.0
C1250 C 0.0466 0.94218 0.17708 0.0
C1251 C 0.08078 0.95722 0.24185 0.0
H1252 H 0.06822 0.00426 0.20604 0.0
C1253 C 0.11006 0.02191 0.30222 0.0
C1254 C 0.09784 0.03581 0.30918 0.0
C1255 C 0.10497 0.00709 0.2819 0.0
C1256 C 0.07172 0.99122 0.21651 0.0
H1257 H 0.0777 0.90102 0.16571 0.0
H1258 H 0.08845 0.92729 0.19803 0.0
H1259 H 0.05845 0.97765 0.17377 0.0
H1260 H 0.07088 0.04531 0.29912 0.0
H1261 H 0.06194 0.01935 0.26368 0.0
H1262 H 0.09411 0.97086 0.28452 0.0
C1263 C 0.07496 0.92742 0.1874 0.0
C1264 C 0.0661 0.97596 0.19808 0.0
C1265 C 0.06886 0.91241 0.1686 0.0
C1266 C 0.08055 0.03476 0.2945 0.0
C1267 C 0.07548 0.01996 0.27397 0.0
C1268 C 0.08647 0.9725 0.26019 0.0
C1269 C 0.06394 0.94255 0.19157 0.0
C1270 C 0.07044 0.95876 0.21067 0.0
C1271 C 0.08757 0.00584 0.26789 0.0
C1272 C 0.08191 0.98966 0.24783 0.0
H1273 H 0.02729 0.92783 0.14669 0.0
H1274 H 0.03764 0.95347 0.18025 0.0
H1275 H 0.08416 0.9442 0.25255 0.0
H1276 H 0.12341 0.02218 0.31345 0.0
H1277 H 0.11465 -0.00347 0.27733 0.0
C1278 C 0.5914 0.05906 0.70665 0.0
C1279 C 0.58901 0.04404 0.68456 0.0
C1280 C 0.57751 0.06502 0.72886 0.0
C1281 C 0.52835 0.06335 0.73876 0.0
H1282 H 0.53768 0.07678 0.83698 0.0
C1283 C 0.47113 0.07632 0.83947 0.0
C1284 C 0.47332 0.09022 0.86445 0.0
C1285 C 0.48531 0.07108 0.81737 0.0
C1286 C 0.53485 0.07332 0.80948 0.0
H1287 H 0.56998 0.02368 0.66811 0.0
H1288 H 0.54593 0.03392 0.70695 0.0
H1289 H 0.56239 0.06712 0.79888 0.0
H1290 H 0.49238 0.10946 0.88553 0.0
H1291 H 0.51684 0.10071 0.84641 0.0
H1292 H 0.50087 0.06964 0.74912 0.0
C1293 C 0.55852 0.04114 0.70711 0.0
C1294 C 0.54904 0.06776 0.78767 0.0
C1295 C 0.57241 0.03512 0.68516 0.0
C1296 C 0.49006 0.09884 0.86646 0.0
C1297 C 0.50422 0.09364 0.84428 0.0
C1298 C 0.51419 0.06899 0.76049 0.0
C1299 C 0.56087 0.05618 0.72914 0.0
C1300 C 0.54593 0.0626 0.75213 0.0
C1301 C 0.50206 0.07965 0.81953 0.0
C1302 C 0.51723 0.07396 0.7962 0.0
H1303 H 0.60405 0.06615 0.70689 0.0
H1304 H 0.5797 0.07672 0.74537 0.0
H1305 H 0.52554 0.05974 0.71132 0.0
H1306 H 0.45842 0.06949 0.83679 0.0
H1307 H 0.48319 0.06012 0.79892 0.0
C1308 C 0.38569 0.4797 0.27637 0.0
C1309 C 0.39644 0.47282 0.30392 0.0
C1310 C 0.39174 0.49383 0.25515 0.0
C1311 C 0.42451 0.53104 0.25535 0.0
H1312 H 0.41266 0.53365 0.15474 0.0
C1313 C 0.45544 0.58297 0.15891 0.0
C1314 C 0.44404 0.59084 0.13353 0.0
C1315 C 0.44932 0.56912 0.18073 0.0
C1316 C 0.41589 0.53321 0.18291 0.0
H1317 H 0.42227 0.47523 0.33005 0.0
H1318 H 0.43304 0.49943 0.29231 0.0
H1319 H 0.40338 0.50768 0.18941 0.0
H1320 H 0.41719 0.59057 0.11166 0.0
H1321 H 0.40643 0.56637 0.14997 0.0
H1322 H 0.43726 0.5565 0.24858 0.0
C1323 C 0.41975 0.49414 0.2876 0.0
C1324 C 0.41058 0.51831 0.2028 0.0
C1325 C 0.41366 0.48005 0.30894 0.0
C1326 C 0.42623 0.58488 0.13115 0.0
C1327 C 0.42014 0.5709 0.15279 0.0
C1328 C 0.42992 0.54589 0.23538 0.0
C1329 C 0.40876 0.50139 0.26076 0.0
C1330 C 0.41479 0.51704 0.23931 0.0
C1331 C 0.4317 0.56271 0.17749 0.0
C1332 C 0.42563 0.54715 0.19896 0.0
H1333 H 0.37247 0.47434 0.27137 0.0
H1334 H 0.38284 0.49912 0.23496 0.0
H1335 H 0.4277 0.5307 0.28353 0.0
H1336 H 0.46919 0.58739 0.16152 0.0
H1337 H 0.45858 0.56303 0.19935 0.0
C1338 C 0.91647 0.42551 0.67689 0.0
C1339 C 0.90849 0.44217 0.68404 0.0
C1340 C 0.93125 0.41974 0.69671 0.0
C1341 C 0.95604 0.42731 0.78081 0.0
H1342 H 0.99654 0.40856 0.7277 0.0
C1343 C 0.02484 0.41695 0.84713 0.0
C1344 C 0.03417 0.40113 0.83875 0.0
C1345 C 0.00967 0.42193 0.8277 0.0
C1346 C 0.98529 0.41357 0.74301 0.0
H1347 H 0.90916 0.4654 0.71865 0.0
H1348 H 0.93495 0.45538 0.75321 0.0
H1349 H 0.96903 0.41634 0.69629 0.0
H1350 H 0.0352 0.37858 0.80235 0.0
H1351 H 0.00855 0.38705 0.76896 0.0
H1352 H 0.97222 0.42451 0.82754 0.0
C1353 C 0.92982 0.44677 0.7323 0.0
C1354 C 0.96951 0.418 0.725 0.0
C1355 C 0.91513 0.45258 0.71236 0.0
C1356 C 0.02824 0.39072 0.80979 0.0
C1357 C 0.01304 0.39569 0.7904 0.0
C1358 C 0.97179 0.42282 0.79884 0.0
C1359 C 0.93826 0.43044 0.72427 0.0
C1360 C 0.95473 0.425 0.74368 0.0
C1361 C 0.00341 0.41121 0.79946 0.0
C1362 C 0.98665 0.41598 0.78015 0.0
H1363 H 0.91177 0.41726 0.65506 0.0
H1364 H 0.93734 0.407 0.69017 0.0
H1365 H 0.94481 0.43247 0.79601 0.0
H1366 H 0.02885 0.42521 0.86946 0.0
H1367 H 0.00275 0.43413 0.83504 0.0
C1368 C 0.92111 0.0855 0.83782 0.0
C1369 C 0.93795 0.0934 0.83201 0.0
C1370 C 0.91576 0.0706 0.81783 0.0
C1371 C 0.92503 0.04534 0.73492 0.0
H1372 H 0.9049 0.0053 0.78706 0.0
C1373 C 0.91512 0.9764 0.66863 0.0
C1374 C 0.89911 0.96721 0.67618 0.0
C1375 C 0.91991 0.99163 0.68813 0.0
C1376 C 0.9103 0.01642 0.77199 0.0
H1377 H 0.96197 0.09245 0.79957 0.0
H1378 H 0.95266 0.06647 0.76469 0.0
H1379 H 0.91226 0.03288 0.81867 0.0
H1380 H 0.87597 0.96653 0.71119 0.0
H1381 H 0.8841 0.99326 0.74462 0.0
H1382 H 0.92299 0.02898 0.68821 0.0
C1383 C 0.9436 0.07174 0.7847 0.0
C1384 C 0.9145 0.03224 0.79012 0.0
C1385 C 0.94899 0.08654 0.80484 0.0
C1386 C 0.88828 0.97337 0.70437 0.0
C1387 C 0.89305 0.98862 0.72381 0.0
C1388 C 0.92075 0.02956 0.71675 0.0
C1389 C 0.92706 0.0634 0.79141 0.0
C1390 C 0.92197 0.04686 0.77182 0.0
C1391 C 0.9088 -0.00191 0.71562 0.0
C1392 C 0.9134 0.01487 0.73508 0.0
H1393 H 0.91237 0.09036 0.85874 0.0
H1394 H 0.90284 0.0646 0.82333 0.0
H1395 H 0.93057 0.05644 0.71999 0.0
H1396 H 0.92372 0.97222 0.64689 0.0
H1397 H 0.93229 -0.00159 0.68146 0.0
C1398 C 0.52368 0.91587 0.18204 0.0
C1399 C 0.52515 0.89803 0.17024 0.0
C1400 C 0.50935 0.92121 0.20371 0.0
C1401 C 0.4631 0.90899 0.22772 0.0
H1402 H 0.47105 0.93977 0.30953 0.0
C1403 C 0.40688 0.92591 0.32949 0.0
C1404 C 0.4067 0.94319 0.34448 0.0
C1405 C 0.42108 0.92033 0.30767 0.0
C1406 C 0.46851 0.93139 0.28649 0.0
H1407 H 0.51283 0.87177 0.17328 0.0
H1408 H 0.4878 0.88116 0.21054 0.0
H1409 H 0.49641 0.93031 0.27315 0.0
H1410 H 0.42159 0.96821 0.34717 0.0
H1411 H 0.44566 0.95876 0.30846 0.0
H1412 H 0.43518 0.91025 0.24067 0.0
C1413 C 0.49765 0.89104 0.20261 0.0
C1414 C 0.4831 0.92593 0.2657 0.0
C1415 C 0.51203 0.88566 0.18119 0.0
C1416 C 0.42094 0.95486 0.33618 0.0
C1417 C 0.43503 0.94932 0.31424 0.0
C1418 C 0.44848 0.91457 0.24836 0.0
C1419 C 0.49608 0.90889 0.21394 0.0
C1420 C 0.48056 0.91466 0.2361 0.0
C1421 C 0.43545 0.93191 0.30007 0.0
C1422 C 0.45098 0.92586 0.27802 0.0
H1423 H 0.5333 0.92588 0.17388 0.0
H1424 H 0.50843 0.9351 0.21173 0.0
H1425 H 0.46068 0.90049 0.20479 0.0
H1426 H 0.39613 0.91658 0.33478 0.0
H1427 H 0.42097 0.90677 0.29744 0.0
C1428 C 0.56041 0.50396 0.62747 0.0
C1429 C 0.5786 0.5039 0.6175 0.0
C1430 C 0.55394 0.49162 0.65241 0.0
C1431 C 0.56331 0.44732 0.68882 0.0
H1432 H 0.53471 0.46237 0.7699 0.0
C1433 C 0.54677 0.39925 0.8043 0.0
C1434 C 0.52973 0.40049 0.82018 0.0
C1435 C 0.55243 0.41199 0.77947 0.0
C1436 C 0.54245 0.45788 0.74712 0.0
H1437 H 0.60431 0.49117 0.62734 0.0
H1438 H 0.59291 0.46952 0.66982 0.0
H1439 H 0.5446 0.48449 0.72628 0.0
H1440 H 0.5054 0.41653 0.8221 0.0
H1441 H 0.51493 0.43802 0.77801 0.0
H1442 H 0.56097 0.42071 0.70901 0.0
C1443 C 0.58366 0.47899 0.65803 0.0
C1444 C 0.54813 0.47058 0.72224 0.0
C1445 C 0.59016 0.49139 0.63351 0.0
C1446 C 0.51851 0.41481 0.81037 0.0
C1447 C 0.52409 0.42741 0.7853 0.0
C1448 C 0.55747 0.4346 0.71343 0.0
C1449 C 0.5655 0.4789 0.66754 0.0
C1450 C 0.55874 0.46542 0.69307 0.0
C1451 C 0.54114 0.4262 0.7696 0.0
C1452 C 0.54709 0.43973 0.74306 0.0
H1453 H 0.55106 0.51324 0.61556 0.0
H1454 H 0.53984 0.49176 0.65926 0.0
H1455 H 0.57131 0.44299 0.66625 0.0
H1456 H 0.55578 0.38841 0.81081 0.0
H1457 H 0.56576 0.41077 0.76829 0.0
C1458 C 0.97116 0.60377 0.24384 0.0
C1459 C 0.96793 0.59553 0.21074 0.0
C1460 C 0.98599 0.59885 0.26436 0.0
C1461 C 0.03093 0.5797 0.25616 0.0
H1462 H 0.02639 0.56953 0.35724 0.0
C1463 C 0.09181 0.56734 0.34923 0.0
C1464 C 0.09041 0.55205 0.37079 0.0
C1465 C 0.07697 0.57346 0.32999 0.0
C1466 C 0.02784 0.57236 0.32904 0.0
H1467 H 0.9777 0.57571 0.17314 0.0
H1468 H 0.00358 0.56712 0.20898 0.0
H1469 H -8e-05 0.57832 0.32306 0.0
H1470 H 0.0723 0.53151 0.39001 0.0
H1471 H 0.04646 0.54219 0.35655 0.0
H1472 H 0.05883 0.57363 0.2621 0.0
C1473 C 0.99463 0.57737 0.21904 0.0
C1474 C 0.01274 0.57748 0.30958 0.0
C1475 C 0.97971 0.58213 0.19875 0.0
C1476 C 0.07386 0.54315 0.37313 0.0
C1477 C 0.05902 0.54938 0.35433 0.0
C1478 C 0.04607 0.57479 0.27572 0.0
C1479 C -0.00201 0.58577 0.2519 0.0
C1480 C 0.0141 0.581 0.27287 0.0
C1481 C 0.06042 0.56457 0.33252 0.0
C1482 C 0.04462 0.57087 0.31225 0.0
H1483 H 0.96225 0.61409 0.25371 0.0
H1484 H 0.98831 0.60558 0.28957 0.0
H1485 H 0.03237 0.58252 0.22795 0.0
H1486 H 0.10443 0.5744 0.34702 0.0
H1487 H 0.07837 0.58526 0.31346 0.0
C1488 C 0.17149 0.05833 0.49682 0.0
C1489 C 0.15574 0.05029 0.484 0.0
C1490 C 0.1876 0.04876 0.49715 0.0
C1491 C 0.21071 0.01476 0.44687 0.0
H1492 H 0.24281 0.01137 0.52778 0.0
C1493 C 0.27934 0.97913 0.43537 0.0
C1494 C 0.29358 0.98684 0.45434 0.0
C1495 C 0.26174 0.98498 0.44126 0.0
C1496 C 0.23413 0.01237 0.50475 0.0
H1497 H 0.14441 0.02594 0.46198 0.0
H1498 H 0.1726 0.00937 0.46209 0.0
H1499 H 0.21362 0.02562 0.53505 0.0
H1500 H 0.30079 0.00704 0.49334 0.0
H1501 H 0.27048 0.01767 0.50259 0.0
H1502 H 0.23137 0.00245 0.41594 0.0
C1503 C 0.17242 0.02295 0.47224 0.0
C1504 C 0.21738 0.02044 0.50907 0.0
C1505 C 0.15629 0.03238 0.47252 0.0
C1506 C 0.28999 0.00059 0.47891 0.0
C1507 C 0.27254 0.00661 0.48435 0.0
C1508 C 0.22759 0.007 0.44233 0.0
C1509 C 0.18825 0.03115 0.48397 0.0
C1510 C 0.2056 0.02181 0.48011 0.0
C1511 C 0.25814 -0.00112 0.46574 0.0
C1512 C 0.23962 0.00587 0.47112 0.0
H1513 H 0.17141 0.07212 0.50572 0.0
H1514 H 0.19969 0.05537 0.50617 0.0
H1515 H 0.20187 0.01582 0.42404 0.0
H1516 H 0.28181 0.9685 0.41631 0.0
H1517 H 0.25099 0.97855 0.42672 0.0
C1518 C 0.39375 0.17015 0.89208 0.0
C1519 C 0.39869 0.16038 0.92258 0.0
C1520 C 0.40085 0.18723 0.88611 0.0
C1521 C 0.42685 0.22362 0.93027 0.0
H1522 H 0.44645 0.23146 0.83561 0.0
C1523 C 0.48291 0.2738 0.90692 0.0
C1524 C 0.47809 0.28773 0.88366 0.0
C1525 C 0.47295 0.25802 0.90775 0.0
C1526 C 0.44097 0.22939 0.86207 0.0
H1527 H 0.41463 0.16123 0.97112 0.0
H1528 H 0.42668 0.19058 0.96094 0.0
H1529 H 0.42685 0.20573 0.84636 0.0
H1530 H 0.45991 0.29526 0.84087 0.0
H1531 H 0.44309 0.26739 0.84158 0.0
H1532 H 0.4416 0.24681 0.94626 0.0
C1533 C 0.4171 0.18538 0.94188 0.0
C1534 C 0.42961 0.21484 0.86818 0.0
C1535 C 0.41006 0.16845 0.94781 0.0
C1536 C 0.46418 0.2848 0.85891 0.0
C1537 C 0.45441 0.26889 0.8594 0.0
C1538 C 0.4384 0.23792 0.92428 0.0
C1539 C 0.41299 0.19479 0.91056 0.0
C1540 C 0.42272 0.21161 0.90257 0.0
C1541 C 0.45824 0.25576 0.88488 0.0
C1542 C 0.4458 0.24072 0.89034 0.0
H1543 H 0.38495 0.16435 0.87224 0.0
H1544 H 0.39725 0.19429 0.86194 0.0
H1545 H 0.42146 0.22173 0.95686 0.0
H1546 H 0.4938 0.27544 0.92573 0.0
H1547 H 0.47628 0.24786 0.92725 0.0
C1548 C 0.32437 0.45775 0.50576 0.0
C1549 C 0.34119 0.46364 0.4938 0.0
C1550 C 0.31018 0.46981 0.50901 0.0
C1551 C 0.28295 0.49992 0.52038 0.0
H1552 H 0.27577 0.52185 0.42764 0.0
C1553 C 0.21611 0.5326 0.48324 0.0
C1554 C 0.20827 0.52354 0.45417 0.0
C1555 C 0.23441 0.53092 0.49019 0.0
C1556 C 0.27774 0.51609 0.45385 0.0
H1557 H 0.35674 0.48688 0.47822 0.0
H1558 H 0.33184 0.50791 0.48357 0.0
H1559 H 0.30451 0.50789 0.44165 0.0
H1560 H 0.21392 0.50697 0.40786 0.0
H1561 H 0.24588 0.50458 0.4194 0.0
H1562 H 0.25586 0.50735 0.53188 0.0
C1563 C 0.32969 0.49401 0.49057 0.0
C1564 C 0.29418 0.5082 0.46199 0.0
C1565 C 0.34394 0.482 0.48779 0.0
C1566 C 0.21946 0.51423 0.43032 0.0
C1567 C 0.2378 0.51281 0.43698 0.0
C1568 C 0.26659 0.50804 0.51244 0.0
C1569 C 0.31254 0.4879 0.49989 0.0
C1570 C 0.2967 0.49947 0.49482 0.0
C1571 C 0.24527 0.52052 0.46776 0.0
C1572 C 0.26364 0.5156 0.47862 0.0
H1573 H 0.32195 0.44368 0.51066 0.0
H1574 H 0.29705 0.46473 0.51604 0.0
H1575 H 0.2846 0.49329 0.54587 0.0
H1576 H 0.20797 0.54031 0.5016 0.0
H1577 H 0.23994 0.53716 0.51386 0.0
C1578 C 0.05597 0.32196 0.01417 0.0
C1579 C 0.04868 0.33865 0.00491 0.0
C1580 C 0.04586 0.30634 0.01004 0.0
C1581 C 0.01667 0.27654 0.00994 0.0
H1582 H 0.00129 0.27076 0.9116 0.0
C1583 C 0.97645 0.21531 0.95909 0.0
C1584 C 0.98571 0.20568 0.93246 0.0
C1585 C 0.98189 0.23255 0.96871 0.0
C1586 C 0.00538 0.27229 0.93918 0.0
H1587 H 0.0249 0.35215 0.9854 0.0
H1588 H 0.00739 0.32483 0.97778 0.0
H1589 H 0.01482 0.29903 0.93086 0.0
H1590 H 0.00744 0.20727 0.89391 0.0
H1591 H 0.0162 0.23765 0.90955 0.0
H1592 H 0.00726 0.24974 0.01814 0.0
C1593 C 0.02082 0.32389 0.98854 0.0
C1594 C 0.01302 0.28843 0.95023 0.0
C1595 C 0.0308 0.33951 0.99324 0.0
C1596 C -0.00022 0.21424 0.91413 0.0
C1597 C 0.00493 0.23162 0.92325 0.0
C1598 C 0.00866 0.26053 0.99906 0.0
C1599 C 0.02844 0.30716 0.99597 0.0
C1600 C 0.01897 0.29059 0.98555 0.0
C1601 C 0.99635 0.2407 0.95125 0.0
C1602 C 0.00322 0.2582 0.96346 0.0
H1603 H 0.06973 0.32095 0.02313 0.0
H1604 H 0.05202 0.29354 0.0158 0.0
H1605 H 0.02119 0.27793 0.03728 0.0
H1606 H 0.96526 0.2094 0.9732 0.0
H1607 H 0.97494 0.23943 0.9901 0.0
C1608 C 0.71437 0.99435 0.5975 0.0
C1609 C 0.7041 0.00713 0.57904 0.0
C1610 C 0.73204 0.99085 0.58744 0.0
C1611 C 0.75952 0.98839 0.50965 0.0
H1612 H 0.79956 0.98585 0.57534 0.0
C1613 C 0.83946 0.96877 0.51442 0.0
C1614 C 0.83875 0.95061 0.50467 0.0
C1615 C 0.82374 0.97871 0.51791 0.0
C1616 C 0.78855 0.98672 0.55659 0.0
H1617 H 0.70504 0.02719 0.5371 0.0
H1618 H 0.73566 0.02035 0.51856 0.0
H1619 H 0.77091 -0.00187 0.59567 0.0
H1620 H 0.82124 0.92904 0.48807 0.0
H1621 H 0.79366 0.94662 0.49348 0.0
H1622 H 0.7769 0.97603 0.47114 0.0
C1623 C 0.72987 0.01312 0.54081 0.0
C1624 C 0.7722 0.99364 0.56827 0.0
C1625 C 0.71231 0.01692 0.55136 0.0
C1626 C 0.82214 0.943 0.49566 0.0
C1627 C 0.80641 0.95306 0.49865 0.0
C1628 C 0.77579 0.98111 0.49815 0.0
C1629 C 0.73973 -0.00017 0.55837 0.0
C1630 C 0.75751 0.99435 0.54502 0.0
C1631 C 0.80705 0.97077 0.51121 0.0
C1632 C 0.79038 0.98007 0.52166 0.0
H1633 H 0.70853 0.98631 0.61853 0.0
H1634 H 0.7394 0.98045 0.60121 0.0
H1635 H 0.74827 0.98867 0.49138 0.0
H1636 H 0.85203 0.97494 0.52197 0.0
H1637 H 0.82454 0.99238 0.52748 0.0
C1638 C 0.5097 0.70883 0.04385 0.0
C1639 C 0.5126 0.69374 0.06543 0.0
C1640 C 0.52053 0.72396 0.0474 0.0
C1641 C 0.55061 0.74781 0.10813 0.0
H1642 H 0.5701 0.76775 0.02085 0.0
C1643 C 0.59655 0.81029 0.10855 0.0
C1644 C 0.59165 0.82332 0.08335 0.0
C1645 C 0.5894 0.79297 0.10653 0.0
C1646 C 0.56473 0.76238 0.04546 0.0
H1647 H 0.52909 0.68294 0.1081 0.0
H1648 H 0.54754 0.70955 0.11484 0.0
H1649 H 0.55129 0.74115 0.01805 0.0
H1650 H 0.57519 0.8283 0.03653 0.0
H1651 H 0.56309 0.7985 0.03293 0.0
H1652 H 0.56353 0.76942 0.13545 0.0
C1653 C 0.53687 0.70961 0.09525 0.0
C1654 C 0.55392 0.74719 0.04381 0.0
C1655 C 0.52619 0.69442 0.09148 0.0
C1656 C 0.57981 0.81853 0.05575 0.0
C1657 C 0.57275 0.80136 0.05372 0.0
C1658 C 0.5613 0.76314 0.10977 0.0
C1659 C 0.53436 0.72437 0.0728 0.0
C1660 C 0.54649 0.73997 0.07503 0.0
C1661 C 0.57725 0.78843 0.07928 0.0
C1662 C 0.56816 0.7708 0.07834 0.0
H1663 H 0.4992 0.70888 0.02392 0.0
H1664 H 0.51815 0.73533 0.03014 0.0
H1665 H 0.54503 0.74246 0.13259 0.0
H1666 H 0.60564 0.81355 0.13011 0.0
H1667 H 0.59319 0.78322 0.12649 0.0
C1668 C 0.78502 0.49085 0.58134 0.0
C1669 C 0.79726 0.49639 0.60763 0.0
C1670 C 0.76827 0.499 0.57862 0.0
C1671 C 0.73465 0.52656 0.62392 0.0
H1672 H 0.72512 0.54429 0.52855 0.0
C1673 C 0.67206 0.56936 0.59232 0.0
C1674 C 0.66295 0.56471 0.56082 0.0
C1675 C 0.68918 0.56254 0.59913 0.0
C1676 C 0.72746 0.5393 0.55527 0.0
H1677 H 0.80097 0.51398 0.65321 0.0
H1678 H 0.77145 0.52786 0.6489 0.0
H1679 H 0.75246 0.52754 0.54009 0.0
H1680 H 0.66471 0.54933 0.51176 0.0
H1681 H 0.69427 0.53749 0.52357 0.0
H1682 H 0.70939 0.53789 0.63891 0.0
C1683 C 0.77496 0.51731 0.6303 0.0
C1684 C 0.74312 0.5297 0.56184 0.0
C1685 C 0.79182 0.50927 0.63285 0.0
C1686 C 0.67151 0.55356 0.53587 0.0
C1687 C 0.68851 0.54671 0.54272 0.0
C1688 C 0.71882 0.53601 0.61726 0.0
C1689 C 0.76333 0.5127 0.60235 0.0
C1690 C 0.74675 0.52305 0.59608 0.0
C1691 C 0.69747 0.55088 0.57463 0.0
C1692 C 0.71495 0.5423 0.58271 0.0
H1693 H 0.78865 0.4807 0.56199 0.0
H1694 H 0.75936 0.49497 0.55725 0.0
H1695 H 0.7372 0.52159 0.65058 0.0
H1696 H 0.6658 0.57798 0.61198 0.0
H1697 H 0.69583 0.56623 0.62374 0.0
C1698 C 0.94794 0.67217 0.01793 0.0
C1699 C 0.95576 0.65651 0.03142 0.0
C1700 C 0.95805 0.68785 0.01507 0.0
C1701 C 0.99231 0.71109 0.06208 0.0
H1702 H 0.99487 0.74228 0.97973 0.0
C1703 C 0.02171 0.78245 0.07326 0.0
C1704 C 0.01267 0.7957 0.05387 0.0
C1705 C 0.01803 0.76433 0.06705 0.0
C1706 C 0.99415 0.73382 0.00311 0.0
H1707 H 0.98026 0.6447 0.05158 0.0
H1708 H -0.0022 0.6723 0.0474 0.0
H1709 H 0.98191 0.71245 0.97358 0.0
H1710 H 0.99246 0.80056 0.01354 0.0
H1711 H 0.98554 0.76931 0.00373 0.0
H1712 H 0.00328 0.73267 0.09237 0.0
C1713 C 0.98399 0.67232 0.03853 0.0
C1714 C 0.98686 0.71671 0.99941 0.0
C1715 C 0.974 0.65657 0.04067 0.0
C1716 C -0.00011 0.79058 0.02836 0.0
C1717 C 0.99602 0.7726 0.02258 0.0
C1718 C -0.00075 0.72833 0.066 0.0
C1719 C 0.97598 0.68815 0.0264 0.0
C1720 C 0.98562 0.70534 0.029 0.0
C1721 C 0.005 0.75918 0.04179 0.0
C1722 C -0.00012 0.74009 0.03673 0.0
H1723 H 0.93388 0.67243 0.01078 0.0
H1724 H 0.95158 0.69997 0.00588 0.0
H1725 H 0.99132 0.70255 0.08536 0.0
H1726 H 0.03166 0.7861 0.093 0.0
H1727 H 0.02537 0.75438 0.08209 0.0
loop_
_geom_bond_atom_site_label_1
_geom_bond_atom_site_label_2
_geom_bond_distance
_geom_bond_site_symmetry_2
_ccdc_geom_bond_type
C0 C1 1.351 . S
C0 N3 1.368 . S
C0 H5 0.931 . S
C1 C0 1.351 . S
C1 N2 1.373 . S
C1 H29 0.930 . S
N2 C1 1.373 . S
N2 C4 1.340 . S
N3 C0 1.368 . S
N3 C4 1.321 . S
N3 Co6 2.135 1_565 S
C4 N2 1.340 . S
C4 N3 1.321 . S
C4 H28 0.930 1_565 S
H5 C0 0.931 . S
Co6 N3 2.135 1_545 S
Co6 N9 2.121 . S
Co6 O14 2.055 . S
Co6 O17 2.039 . S
Co6 N20 2.140 . S
C7 O8 1.227 . S
C7 O17 1.265 . S
O8 C7 1.227 . S
N9 Co6 2.121 . S
N9 C11 1.375 . S
N9 C12 1.313 . S
C10 C11 1.338 . S
C10 N13 1.377 . S
C10 H30 0.930 . S
C11 N9 1.375 . S
C11 C10 1.338 . S
C11 H15 0.931 . S
C12 N9 1.313 . S
C12 N13 1.344 . S
C12 H16 0.930 . S
N13 C10 1.377 . S
N13 C12 1.344 . S
O14 Co6 2.055 . S
O14 C18 1.253 . S
H15 C11 0.931 . S
H16 C12 0.930 . S
O17 Co6 2.039 . S
O17 C7 1.265 . S
C18 O14 1.253 . S
C18 O19 1.218 1_545 S
O19 C18 1.218 1_565 S
N20 Co6 2.140 . S
N20 C23 1.346 . S
N20 C24 1.345 . S
C21 C22 1.387 . S
C21 C25 1.391 . S
C22 C21 1.387 . S
C22 C23 1.369 . S
C22 H31 0.929 . S
C23 N20 1.346 . S
C23 C22 1.369 . S
C23 H26 0.928 . S
C24 N20 1.345 . S
C24 C25 1.371 . S
C24 H27 0.931 . S
C25 C21 1.391 . S
C25 C24 1.371 . S
C25 H32 0.930 . S
H26 C23 0.928 . S
H27 C24 0.931 . S
H28 C4 0.930 1_545 S
H29 C1 0.930 . S
H30 C10 0.930 . S
H31 C22 0.929 . S
H32 C25 0.930 . S
C33 C34 1.351 . S
C33 N36 1.368 . S
C33 H38 0.931 . S
C34 C33 1.351 . S
C34 N35 1.373 . S
C34 H62 0.930 . S
N35 C34 1.373 . S
N35 C37 1.340 . S
N36 C33 1.368 . S
N36 C37 1.321 . S
N36 Co39 2.135 . S
C37 N35 1.340 . S
C37 N36 1.321 . S
C37 H61 0.930 . S
H38 C33 0.931 . S
Co39 N36 2.135 . S
Co39 N42 2.121 . S
Co39 O47 2.055 . S
Co39 O50 2.039 . S
Co39 N53 2.140 . S
C40 O41 1.227 . S
C40 O50 1.265 . S
O41 C40 1.227 . S
N42 Co39 2.121 . S
N42 C44 1.375 . S
N42 C45 1.313 . S
C43 C44 1.338 . S
C43 N46 1.377 1_556 S
C43 H63 0.930 . S
C44 N42 1.375 . S
C44 C43 1.338 . S
C44 H48 0.931 . S
C45 N42 1.313 . S
C45 N46 1.344 1_556 S
C45 H49 0.930 1_556 S
N46 C43 1.377 1_554 S
N46 C45 1.344 1_554 S
O47 Co39 2.055 . S
O47 C51 1.253 . S
H48 C44 0.931 . S
H49 C45 0.930 1_554 S
O50 Co39 2.039 . S
O50 C40 1.265 . S
C51 O47 1.253 . S
C51 O52 1.227 . S
O52 C51 1.227 . S
N53 Co39 2.140 . S
N53 C56 1.346 . S
N53 C57 1.345 . S
C54 C55 1.387 . S
C54 C58 1.391 . S
C55 C54 1.387 . S
C55 C56 1.369 . S
C55 H64 0.929 . S
C56 N53 1.346 . S
C56 C55 1.369 . S
C56 H59 0.928 . S
C57 N53 1.345 . S
C57 C58 1.371 . S
C57 H60 0.931 . S
C58 C54 1.391 . S
C58 C57 1.371 . S
C58 H65 0.930 . S
H59 C56 0.928 . S
H60 C57 0.931 . S
H61 C37 0.930 . S
H62 C34 0.930 . S
H63 C43 0.930 . S
H64 C55 0.929 . S
H65 C58 0.930 . S
C66 C67 1.351 . S
C66 N69 1.368 . S
C66 H71 0.931 . S
C67 C66 1.351 . S
C67 N68 1.373 . S
C67 H95 0.930 . S
N68 C67 1.373 . S
N68 C70 1.340 . S
N69 C66 1.368 . S
N69 C70 1.321 . S
N69 Co72 2.135 . S
C70 N68 1.340 . S
C70 N69 1.321 . S
C70 H94 0.930 . S
H71 C66 0.931 . S
Co72 N69 2.135 . S
Co72 N75 2.121 . S
Co72 O80 2.055 . S
Co72 O83 2.039 . S
Co72 N86 2.140 . S
C73 O74 1.227 . S
C73 O83 1.265 . S
O74 C73 1.227 . S
N75 Co72 2.121 . S
N75 C77 1.375 . S
N75 C78 1.313 . S
C76 C77 1.338 . S
C76 N79 1.377 . S
C76 H96 0.930 . S
C77 N75 1.375 . S
C77 C76 1.338 . S
C77 H81 0.931 . S
C78 N75 1.313 . S
C78 N79 1.344 . S
C78 H82 0.930 . S
N79 C76 1.377 . S
N79 C78 1.344 . S
O80 Co72 2.055 . S
O80 C84 1.253 . S
H81 C77 0.931 . S
H82 C78 0.930 . S
O83 Co72 2.039 . S
O83 C73 1.265 . S
C84 O80 1.253 . S
C84 O85 1.227 . S
O85 C84 1.227 . S
N86 Co72 2.140 . S
N86 C89 1.346 . S
N86 C90 1.345 . S
C87 C88 1.387 . S
C87 C91 1.391 . S
C88 C87 1.387 . S
C88 C89 1.369 . S
C88 H97 0.929 . S
C89 N86 1.346 . S
C89 C88 1.369 . S
C89 H92 0.928 . S
C90 N86 1.345 . S
C90 C91 1.371 . S
C90 H93 0.931 . S
C91 C87 1.391 . S
C91 C90 1.371 . S
C91 H98 0.930 . S
H92 C89 0.928 . S
H93 C90 0.931 . S
H94 C70 0.930 . S
H95 C67 0.930 . S
H96 C76 0.930 . S
H97 C88 0.929 . S
H98 C91 0.930 . S
C99 C100 1.351 . S
C99 N102 1.368 . S
C99 H104 0.931 . S
C100 C99 1.351 . S
C100 N101 1.373 . S
C100 H128 0.930 . S
N101 C100 1.373 . S
N101 C103 1.340 . S
N102 C99 1.368 . S
N102 C103 1.321 . S
N102 Co105 2.135 1_655 S
C103 N101 1.340 . S
C103 N102 1.321 . S
C103 H127 0.930 1_655 S
H104 C99 0.931 . S
Co105 N102 2.135 1_455 S
Co105 N108 2.121 . S
Co105 O113 2.055 . S
Co105 O116 2.039 . S
Co105 N119 2.140 . S
C106 O107 1.227 . S
C106 O116 1.265 . S
O107 C106 1.227 . S
N108 Co105 2.121 . S
N108 C110 1.375 . S
N108 C111 1.313 . S
C109 C110 1.338 . S
C109 N112 1.377 1_556 S
C109 H129 0.930 . S
C110 N108 1.375 . S
C110 C109 1.338 . S
C110 H114 0.931 . S
C111 N108 1.313 . S
C111 N112 1.344 1_556 S
C111 H115 0.930 1_556 S
N112 C109 1.377 1_554 S
N112 C111 1.344 1_554 S
O113 Co105 2.055 . S
O113 C117 1.253 . S
H114 C110 0.931 . S
H115 C111 0.930 1_554 S
O116 Co105 2.039 . S
O116 C106 1.265 . S
C117 O113 1.253 . S
C117 O118 1.218 1_455 S
O118 C117 1.218 1_655 S
N119 Co105 2.140 . S
N119 C122 1.346 . S
N119 C123 1.345 . S
C120 C121 1.387 . S
C120 C124 1.391 . S
C121 C120 1.387 . S
C121 C122 1.369 . S
C121 H130 0.929 . S
C122 N119 1.346 . S
C122 C121 1.369 . S
C122 H125 0.928 . S
C123 N119 1.345 . S
C123 C124 1.371 . S
C123 H126 0.931 . S
C124 C120 1.391 . S
C124 C123 1.371 . S
C124 H131 0.930 . S
H125 C122 0.928 . S
H126 C123 0.931 . S
H127 C103 0.930 1_455 S
H128 C100 0.930 . S
H129 C109 0.930 . S
H130 C121 0.929 . S
H131 C124 0.930 . S
C132 C133 1.351 . S
C132 N135 1.368 . S
C132 H137 0.931 . S
C133 C132 1.351 . S
C133 N134 1.373 . S
C133 H161 0.930 . S
N134 C133 1.373 . S
N134 C136 1.340 . S
N135 C132 1.368 . S
N135 C136 1.321 . S
N135 Co138 2.135 1_545 S
C136 N134 1.340 . S
C136 N135 1.321 . S
C136 H160 0.930 1_545 S
H137 C132 0.931 . S
Co138 N135 2.135 1_565 S
Co138 N141 2.121 . S
Co138 O146 2.055 . S
Co138 O149 2.039 . S
Co138 N152 2.140 . S
C139 O140 1.227 . S
C139 O149 1.265 . S
O140 C139 1.227 . S
N141 Co138 2.121 . S
N141 C143 1.375 . S
N141 C144 1.313 . S
C142 C143 1.338 . S
C142 N145 1.377 . S
C142 H162 0.930 . S
C143 N141 1.375 . S
C143 C142 1.338 . S
C143 H147 0.931 . S
C144 N141 1.313 . S
C144 N145 1.344 . S
C144 H148 0.930 . S
N145 C142 1.377 . S
N145 C144 1.344 . S
O146 Co138 2.055 . S
O146 C150 1.253 . S
H147 C143 0.931 . S
H148 C144 0.930 . S
O149 Co138 2.039 . S
O149 C139 1.265 . S
C150 O146 1.253 . S
C150 O151 1.218 1_565 S
O151 C150 1.218 1_545 S
N152 Co138 2.140 . S
N152 C155 1.346 . S
N152 C156 1.345 . S
C153 C154 1.387 . S
C153 C157 1.391 . S
C154 C153 1.387 . S
C154 C155 1.369 . S
C154 H163 0.929 . S
C155 N152 1.346 . S
C155 C154 1.369 . S
C155 H158 0.928 . S
C156 N152 1.345 . S
C156 C157 1.371 . S
C156 H159 0.931 . S
C157 C153 1.391 . S
C157 C156 1.371 . S
C157 H164 0.930 . S
H158 C155 0.928 . S
H159 C156 0.931 . S
H160 C136 0.930 1_565 S
H161 C133 0.930 . S
H162 C142 0.930 . S
H163 C154 0.929 . S
H164 C157 0.930 . S
C165 C166 1.351 . S
C165 N168 1.368 . S
C165 H170 0.931 . S
C166 C165 1.351 . S
C166 N167 1.373 . S
C166 H194 0.930 . S
N167 C166 1.373 . S
N167 C169 1.340 . S
N168 C165 1.368 . S
N168 C169 1.321 . S
N168 Co171 2.135 . S
C169 N167 1.340 . S
C169 N168 1.321 . S
C169 H193 0.930 . S
H170 C165 0.931 . S
Co171 N168 2.135 . S
Co171 N174 2.121 . S
Co171 O179 2.055 . S
Co171 O182 2.039 . S
Co171 N185 2.140 . S
C172 O173 1.227 . S
C172 O182 1.265 . S
O173 C172 1.227 . S
N174 Co171 2.121 . S
N174 C176 1.375 . S
N174 C177 1.313 . S
C175 C176 1.338 . S
C175 N178 1.377 1_554 S
C175 H195 0.930 . S
C176 N174 1.375 . S
C176 C175 1.338 . S
C176 H180 0.931 . S
C177 N174 1.313 . S
C177 N178 1.344 1_554 S
C177 H181 0.930 1_554 S
N178 C175 1.377 1_556 S
N178 C177 1.344 1_556 S
O179 Co171 2.055 . S
O179 C183 1.253 . S
H180 C176 0.931 . S
H181 C177 0.930 1_556 S
O182 Co171 2.039 . S
O182 C172 1.265 . S
C183 O179 1.253 . S
C183 O184 1.227 . S
O184 C183 1.227 . S
N185 Co171 2.140 . S
N185 C188 1.346 . S
N185 C189 1.345 . S
C186 C187 1.387 . S
C186 C190 1.391 . S
C187 C186 1.387 . S
C187 C188 1.369 . S
C187 H196 0.929 . S
C188 N185 1.346 . S
C188 C187 1.369 . S
C188 H191 0.928 . S
C189 N185 1.345 . S
C189 C190 1.371 . S
C189 H192 0.931 . S
C190 C186 1.391 . S
C190 C189 1.371 . S
C190 H197 0.930 . S
H191 C188 0.928 . S
H192 C189 0.931 . S
H193 C169 0.930 . S
H194 C166 0.930 . S
H195 C175 0.930 . S
H196 C187 0.929 . S
H197 C190 0.930 . S
C198 C199 1.351 . S
C198 N201 1.368 . S
C198 H203 0.931 . S
C199 C198 1.351 . S
C199 N200 1.373 . S
C199 H227 0.930 . S
N200 C199 1.373 . S
N200 C202 1.340 . S
N201 C198 1.368 . S
N201 C202 1.321 . S
N201 Co204 2.135 . S
C202 N200 1.340 . S
C202 N201 1.321 . S
C202 H226 0.930 . S
H203 C198 0.931 . S
Co204 N201 2.135 . S
Co204 N207 2.121 . S
Co204 O212 2.055 . S
Co204 O215 2.039 . S
Co204 N218 2.140 . S
C205 O206 1.227 . S
C205 O215 1.265 . S
O206 C205 1.227 . S
N207 Co204 2.121 . S
N207 C209 1.375 . S
N207 C210 1.313 . S
C208 C209 1.338 . S
C208 N211 1.377 . S
C208 H228 0.930 . S
C209 N207 1.375 . S
C209 C208 1.338 . S
C209 H213 0.931 . S
C210 N207 1.313 . S
C210 N211 1.344 . S
C210 H214 0.930 . S
N211 C208 1.377 . S
N211 C210 1.344 . S
O212 Co204 2.055 . S
O212 C216 1.253 . S
H213 C209 0.931 . S
H214 C210 0.930 . S
O215 Co204 2.039 . S
O215 C205 1.265 . S
C216 O212 1.253 . S
C216 O217 1.227 . S
O217 C216 1.227 . S
N218 Co204 2.140 . S
N218 C221 1.346 . S
N218 C222 1.345 . S
C219 C220 1.387 . S
C219 C223 1.391 . S
C220 C219 1.387 . S
C220 C221 1.369 . S
C220 H229 0.929 . S
C221 N218 1.346 . S
C221 C220 1.369 . S
C221 H224 0.928 . S
C222 N218 1.345 . S
C222 C223 1.371 . S
C222 H225 0.931 . S
C223 C219 1.391 . S
C223 C222 1.371 . S
C223 H230 0.930 . S
H224 C221 0.928 . S
H225 C222 0.931 . S
H226 C202 0.930 . S
H227 C199 0.930 . S
H228 C208 0.930 . S
H229 C220 0.929 . S
H230 C223 0.930 . S
C231 C232 1.351 . S
C231 N234 1.368 . S
C231 H236 0.931 . S
C232 C231 1.351 . S
C232 N233 1.373 . S
C232 H260 0.930 . S
N233 C232 1.373 . S
N233 C235 1.340 . S
N234 C231 1.368 . S
N234 C235 1.321 . S
N234 Co237 2.135 1_455 S
C235 N233 1.340 . S
C235 N234 1.321 . S
C235 H259 0.930 1_455 S
H236 C231 0.931 . S
Co237 N234 2.135 1_655 S
Co237 N240 2.121 . S
Co237 O245 2.055 . S
Co237 O248 2.039 . S
Co237 N251 2.140 . S
C238 O239 1.227 . S
C238 O248 1.265 . S
O239 C238 1.227 . S
N240 Co237 2.121 . S
N240 C242 1.375 . S
N240 C243 1.313 . S
C241 C242 1.338 . S
C241 N244 1.377 1_554 S
C241 H261 0.930 . S
C242 N240 1.375 . S
C242 C241 1.338 . S
C242 H246 0.931 . S
C243 N240 1.313 . S
C243 N244 1.344 1_554 S
C243 H247 0.930 1_554 S
N244 C241 1.377 1_556 S
N244 C243 1.344 1_556 S
O245 Co237 2.055 . S
O245 C249 1.253 . S
H246 C242 0.931 . S
H247 C243 0.930 1_556 S
O248 Co237 2.039 . S
O248 C238 1.265 . S
C249 O245 1.253 . S
C249 O250 1.218 1_655 S
O250 C249 1.218 1_455 S
N251 Co237 2.140 . S
N251 C254 1.346 . S
N251 C255 1.345 . S
C252 C253 1.387 . S
C252 C256 1.391 . S
C253 C252 1.387 . S
C253 C254 1.369 . S
C253 H262 0.929 . S
C254 N251 1.346 . S
C254 C253 1.369 . S
C254 H257 0.928 . S
C255 N251 1.345 . S
C255 C256 1.371 . S
C255 H258 0.931 . S
C256 C252 1.391 . S
C256 C255 1.371 . S
C256 H263 0.930 . S
H257 C254 0.928 . S
H258 C255 0.931 . S
H259 C235 0.930 1_655 S
H260 C232 0.930 . S
H261 C241 0.930 . S
H262 C253 0.929 . S
H263 C256 0.930 . S
C264 C265 1.351 . S
C264 N267 1.368 . S
C264 H269 0.931 . S
C265 C264 1.351 . S
C265 N266 1.373 . S
C265 H293 0.930 . S
N266 C265 1.373 . S
N266 C268 1.340 . S
N267 C264 1.368 . S
N267 C268 1.321 . S
N267 Co270 2.135 1_545 S
C268 N266 1.340 . S
C268 N267 1.321 . S
C268 H292 0.930 1_545 S
H269 C264 0.931 . S
Co270 N267 2.135 1_565 S
Co270 N273 2.121 . S
Co270 O278 2.055 . S
Co270 O281 2.039 . S
Co270 N284 2.140 . S
C271 O272 1.227 . S
C271 O281 1.265 . S
O272 C271 1.227 . S
N273 Co270 2.121 . S
N273 C275 1.375 . S
N273 C276 1.313 . S
C274 C275 1.338 . S
C274 N277 1.377 . S
C274 H294 0.930 . S
C275 N273 1.375 . S
C275 C274 1.338 . S
C275 H279 0.931 . S
C276 N273 1.313 . S
C276 N277 1.344 . S
C276 H280 0.930 . S
N277 C274 1.377 . S
N277 C276 1.344 . S
O278 Co270 2.055 . S
O278 C282 1.253 . S
H279 C275 0.931 . S
H280 C276 0.930 . S
O281 Co270 2.039 . S
O281 C271 1.265 . S
C282 O278 1.253 . S
C282 O283 1.218 1_565 S
O283 C282 1.218 1_545 S
N284 Co270 2.140 . S
N284 C287 1.346 . S
N284 C288 1.345 . S
C285 C286 1.387 . S
C285 C289 1.391 . S
C286 C285 1.387 . S
C286 C287 1.369 . S
C286 H295 0.929 . S
C287 N284 1.346 . S
C287 C286 1.369 . S
C287 H290 0.928 . S
C288 N284 1.345 . S
C288 C289 1.371 . S
C288 H291 0.931 . S
C289 C285 1.391 . S
C289 C288 1.371 . S
C289 H296 0.930 . S
H290 C287 0.928 . S
H291 C288 0.931 . S
H292 C268 0.930 1_565 S
H293 C265 0.930 . S
H294 C274 0.930 . S
H295 C286 0.929 . S
H296 C289 0.930 . S
C297 C298 1.351 . S
C297 N300 1.368 . S
C297 H302 0.931 . S
C298 C297 1.351 . S
C298 N299 1.373 . S
C298 H326 0.930 . S
N299 C298 1.373 . S
N299 C301 1.340 . S
N300 C297 1.368 . S
N300 C301 1.321 . S
N300 Co303 2.135 . S
C301 N299 1.340 . S
C301 N300 1.321 . S
C301 H325 0.930 . S
H302 C297 0.931 . S
Co303 N300 2.135 . S
Co303 N306 2.121 . S
Co303 O311 2.055 . S
Co303 O314 2.039 . S
Co303 N317 2.140 . S
C304 O305 1.227 . S
C304 O314 1.265 . S
O305 C304 1.227 . S
N306 Co303 2.121 . S
N306 C308 1.375 . S
N306 C309 1.313 . S
C307 C308 1.338 . S
C307 N310 1.377 1_554 S
C307 H327 0.930 . S
C308 N306 1.375 . S
C308 C307 1.338 . S
C308 H312 0.931 . S
C309 N306 1.313 . S
C309 N310 1.344 1_554 S
C309 H313 0.930 1_554 S
N310 C307 1.377 1_556 S
N310 C309 1.344 1_556 S
O311 Co303 2.055 . S
O311 C315 1.253 . S
H312 C308 0.931 . S
H313 C309 0.930 1_556 S
O314 Co303 2.039 . S
O314 C304 1.265 . S
C315 O311 1.253 . S
C315 O316 1.227 . S
O316 C315 1.227 . S
N317 Co303 2.140 . S
N317 C320 1.346 . S
N317 C321 1.345 . S
C318 C319 1.387 . S
C318 C322 1.391 . S
C319 C318 1.387 . S
C319 C320 1.369 . S
C319 H328 0.929 . S
C320 N317 1.346 . S
C320 C319 1.369 . S
C320 H323 0.928 . S
C321 N317 1.345 . S
C321 C322 1.371 . S
C321 H324 0.931 . S
C322 C318 1.391 . S
C322 C321 1.371 . S
C322 H329 0.930 . S
H323 C320 0.928 . S
H324 C321 0.931 . S
H325 C301 0.930 . S
H326 C298 0.930 . S
H327 C307 0.930 . S
H328 C319 0.929 . S
H329 C322 0.930 . S
C330 C331 1.351 . S
C330 N333 1.368 . S
C330 H335 0.931 . S
C331 C330 1.351 . S
C331 N332 1.373 . S
C331 H359 0.930 . S
N332 C331 1.373 . S
N332 C334 1.340 . S
N333 C330 1.368 . S
N333 C334 1.321 . S
N333 Co336 2.135 . S
C334 N332 1.340 . S
C334 N333 1.321 . S
C334 H358 0.930 . S
H335 C330 0.931 . S
Co336 N333 2.135 . S
Co336 N339 2.121 . S
Co336 O344 2.055 . S
Co336 O347 2.039 . S
Co336 N350 2.140 . S
C337 O338 1.227 . S
C337 O347 1.265 . S
O338 C337 1.227 . S
N339 Co336 2.121 . S
N339 C341 1.375 . S
N339 C342 1.313 . S
C340 C341 1.338 . S
C340 N343 1.377 . S
C340 H360 0.930 . S
C341 N339 1.375 . S
C341 C340 1.338 . S
C341 H345 0.931 . S
C342 N339 1.313 . S
C342 N343 1.344 . S
C342 H346 0.930 . S
N343 C340 1.377 . S
N343 C342 1.344 . S
O344 Co336 2.055 . S
O344 C348 1.253 . S
H345 C341 0.931 . S
H346 C342 0.930 . S
O347 Co336 2.039 . S
O347 C337 1.265 . S
C348 O344 1.253 . S
C348 O349 1.227 . S
O349 C348 1.227 . S
N350 Co336 2.140 . S
N350 C353 1.346 . S
N350 C354 1.345 . S
C351 C352 1.387 . S
C351 C355 1.391 . S
C352 C351 1.387 . S
C352 C353 1.369 . S
C352 H361 0.929 . S
C353 N350 1.346 . S
C353 C352 1.369 . S
C353 H356 0.928 . S
C354 N350 1.345 . S
C354 C355 1.371 . S
C354 H357 0.931 . S
C355 C351 1.391 . S
C355 C354 1.371 . S
C355 H362 0.930 . S
H356 C353 0.928 . S
H357 C354 0.931 . S
H358 C334 0.930 . S
H359 C331 0.930 . S
H360 C340 0.930 . S
H361 C352 0.929 . S
H362 C355 0.930 . S
C363 C364 1.351 . S
C363 N366 1.368 . S
C363 H368 0.931 . S
C364 C363 1.351 . S
C364 N365 1.373 . S
C364 H392 0.930 . S
N365 C364 1.373 . S
N365 C367 1.340 . S
N366 C363 1.368 . S
N366 C367 1.321 . S
N366 Co369 2.135 1_455 S
C367 N365 1.340 . S
C367 N366 1.321 . S
C367 H391 0.930 1_455 S
H368 C363 0.931 . S
Co369 N366 2.135 1_655 S
Co369 N372 2.121 . S
Co369 O377 2.055 . S
Co369 O380 2.039 . S
Co369 N383 2.140 . S
C370 O371 1.227 . S
C370 O380 1.265 . S
O371 C370 1.227 . S
N372 Co369 2.121 . S
N372 C374 1.375 . S
N372 C375 1.313 . S
C373 C374 1.338 . S
C373 N376 1.377 1_554 S
C373 H393 0.930 . S
C374 N372 1.375 . S
C374 C373 1.338 . S
C374 H378 0.931 . S
C375 N372 1.313 . S
C375 N376 1.344 1_554 S
C375 H379 0.930 1_554 S
N376 C373 1.377 1_556 S
N376 C375 1.344 1_556 S
O377 Co369 2.055 . S
O377 C381 1.253 . S
H378 C374 0.931 . S
H379 C375 0.930 1_556 S
O380 Co369 2.039 . S
O380 C370 1.265 . S
C381 O377 1.253 . S
C381 O382 1.218 1_655 S
O382 C381 1.218 1_455 S
N383 Co369 2.140 . S
N383 C386 1.346 . S
N383 C387 1.345 . S
C384 C385 1.387 . S
C384 C388 1.391 . S
C385 C384 1.387 . S
C385 C386 1.369 . S
C385 H394 0.929 . S
C386 N383 1.346 . S
C386 C385 1.369 . S
C386 H389 0.928 . S
C387 N383 1.345 . S
C387 C388 1.371 . S
C387 H390 0.931 . S
C388 C384 1.391 . S
C388 C387 1.371 . S
C388 H395 0.930 . S
H389 C386 0.928 . S
H390 C387 0.931 . S
H391 C367 0.930 1_655 S
H392 C364 0.930 . S
H393 C373 0.930 . S
H394 C385 0.929 . S
H395 C388 0.930 . S
C396 C397 1.351 . S
C396 N399 1.368 . S
C396 H401 0.931 . S
C397 C396 1.351 . S
C397 N398 1.373 . S
C397 H425 0.930 . S
N398 C397 1.373 . S
N398 C400 1.340 . S
N399 C396 1.368 . S
N399 C400 1.321 . S
N399 Co402 2.135 1_565 S
C400 N398 1.340 . S
C400 N399 1.321 . S
C400 H424 0.930 1_565 S
H401 C396 0.931 . S
Co402 N399 2.135 1_545 S
Co402 N405 2.121 . S
Co402 O410 2.055 . S
Co402 O413 2.039 . S
Co402 N416 2.140 . S
C403 O404 1.227 . S
C403 O413 1.265 . S
O404 C403 1.227 . S
N405 Co402 2.121 . S
N405 C407 1.375 . S
N405 C408 1.313 . S
C406 C407 1.338 . S
C406 N409 1.377 . S
C406 H426 0.930 . S
C407 N405 1.375 . S
C407 C406 1.338 . S
C407 H411 0.931 . S
C408 N405 1.313 . S
C408 N409 1.344 . S
C408 H412 0.930 . S
N409 C406 1.377 . S
N409 C408 1.344 . S
O410 Co402 2.055 . S
O410 C414 1.253 . S
H411 C407 0.931 . S
H412 C408 0.930 . S
O413 Co402 2.039 . S
O413 C403 1.265 . S
C414 O410 1.253 . S
C414 O415 1.218 1_545 S
O415 C414 1.218 1_565 S
N416 Co402 2.140 . S
N416 C419 1.346 . S
N416 C420 1.345 . S
C417 C418 1.387 . S
C417 C421 1.391 . S
C418 C417 1.387 . S
C418 C419 1.369 . S
C418 H427 0.929 . S
C419 N416 1.346 . S
C419 C418 1.369 . S
C419 H422 0.928 . S
C420 N416 1.345 . S
C420 C421 1.371 . S
C420 H423 0.931 . S
C421 C417 1.391 . S
C421 C420 1.371 . S
C421 H428 0.930 . S
H422 C419 0.928 . S
H423 C420 0.931 . S
H424 C400 0.930 1_545 S
H425 C397 0.930 . S
H426 C406 0.930 . S
H427 C418 0.929 . S
H428 C421 0.930 . S
C429 C430 1.351 . S
C429 N432 1.368 . S
C429 H434 0.931 . S
C430 C429 1.351 . S
C430 N431 1.373 . S
C430 H458 0.930 . S
N431 C430 1.373 . S
N431 C433 1.340 . S
N432 C429 1.368 . S
N432 C433 1.321 . S
N432 Co435 2.135 . S
C433 N431 1.340 . S
C433 N432 1.321 . S
C433 H457 0.930 . S
H434 C429 0.931 . S
Co435 N432 2.135 . S
Co435 N438 2.121 . S
Co435 O443 2.055 . S
Co435 O446 2.039 . S
Co435 N449 2.140 . S
C436 O437 1.227 . S
C436 O446 1.265 . S
O437 C436 1.227 . S
N438 Co435 2.121 . S
N438 C440 1.375 . S
N438 C441 1.313 . S
C439 C440 1.338 . S
C439 N442 1.377 1_556 S
C439 H459 0.930 . S
C440 N438 1.375 . S
C440 C439 1.338 . S
C440 H444 0.931 . S
C441 N438 1.313 . S
C441 N442 1.344 1_556 S
C441 H445 0.930 1_556 S
N442 C439 1.377 1_554 S
N442 C441 1.344 1_554 S
O443 Co435 2.055 . S
O443 C447 1.253 . S
H444 C440 0.931 . S
H445 C441 0.930 1_554 S
O446 Co435 2.039 . S
O446 C436 1.265 . S
C447 O443 1.253 . S
C447 O448 1.227 . S
O448 C447 1.227 . S
N449 Co435 2.140 . S
N449 C452 1.346 . S
N449 C453 1.345 . S
C450 C451 1.387 . S
C450 C454 1.391 . S
C451 C450 1.387 . S
C451 C452 1.369 . S
C451 H460 0.929 . S
C452 N449 1.346 . S
C452 C451 1.369 . S
C452 H455 0.928 . S
C453 N449 1.345 . S
C453 C454 1.371 . S
C453 H456 0.931 . S
C454 C450 1.391 . S
C454 C453 1.371 . S
C454 H461 0.930 . S
H455 C452 0.928 . S
H456 C453 0.931 . S
H457 C433 0.930 . S
H458 C430 0.930 . S
H459 C439 0.930 . S
H460 C451 0.929 . S
H461 C454 0.930 . S
C462 C463 1.351 . S
C462 N465 1.368 . S
C462 H467 0.931 . S
C463 C462 1.351 . S
C463 N464 1.373 . S
C463 H491 0.930 . S
N464 C463 1.373 . S
N464 C466 1.340 . S
N465 C462 1.368 . S
N465 C466 1.321 . S
N465 Co468 2.135 . S
C466 N464 1.340 . S
C466 N465 1.321 . S
C466 H490 0.930 . S
H467 C462 0.931 . S
Co468 N465 2.135 . S
Co468 N471 2.121 . S
Co468 O476 2.055 . S
Co468 O479 2.039 . S
Co468 N482 2.140 . S
C469 O470 1.227 . S
C469 O479 1.265 . S
O470 C469 1.227 . S
N471 Co468 2.121 . S
N471 C473 1.375 . S
N471 C474 1.313 . S
C472 C473 1.338 . S
C472 N475 1.377 . S
C472 H492 0.930 . S
C473 N471 1.375 . S
C473 C472 1.338 . S
C473 H477 0.931 . S
C474 N471 1.313 . S
C474 N475 1.344 . S
C474 H478 0.930 . S
N475 C472 1.377 . S
N475 C474 1.344 . S
O476 Co468 2.055 . S
O476 C480 1.253 . S
H477 C473 0.931 . S
H478 C474 0.930 . S
O479 Co468 2.039 . S
O479 C469 1.265 . S
C480 O476 1.253 . S
C480 O481 1.227 . S
O481 C480 1.227 . S
N482 Co468 2.140 . S
N482 C485 1.346 . S
N482 C486 1.345 . S
C483 C484 1.387 . S
C483 C487 1.391 . S
C484 C483 1.387 . S
C484 C485 1.369 . S
C484 H493 0.929 . S
C485 N482 1.346 . S
C485 C484 1.369 . S
C485 H488 0.928 . S
C486 N482 1.345 . S
C486 C487 1.371 . S
C486 H489 0.931 . S
C487 C483 1.391 . S
C487 C486 1.371 . S
C487 H494 0.930 . S
H488 C485 0.928 . S
H489 C486 0.931 . S
H490 C466 0.930 . S
H491 C463 0.930 . S
H492 C472 0.930 . S
H493 C484 0.929 . S
H494 C487 0.930 . S
C495 C496 1.351 . S
C495 N498 1.368 . S
C495 H500 0.931 . S
C496 C495 1.351 . S
C496 N497 1.373 . S
C496 H524 0.930 . S
N497 C496 1.373 . S
N497 C499 1.340 . S
N498 C495 1.368 . S
N498 C499 1.321 . S
N498 Co501 2.135 1_655 S
C499 N497 1.340 . S
C499 N498 1.321 . S
C499 H523 0.930 1_655 S
H500 C495 0.931 . S
Co501 N498 2.135 1_455 S
Co501 N504 2.121 . S
Co501 O509 2.055 . S
Co501 O512 2.039 . S
Co501 N515 2.140 . S
C502 O503 1.227 . S
C502 O512 1.265 . S
O503 C502 1.227 . S
N504 Co501 2.121 . S
N504 C506 1.375 . S
N504 C507 1.313 . S
C505 C506 1.338 . S
C505 N508 1.377 1_556 S
C505 H525 0.930 . S
C506 N504 1.375 . S
C506 C505 1.338 . S
C506 H510 0.931 . S
C507 N504 1.313 . S
C507 N508 1.344 1_556 S
C507 H511 0.930 1_556 S
N508 C505 1.377 1_554 S
N508 C507 1.344 1_554 S
O509 Co501 2.055 . S
O509 C513 1.253 . S
H510 C506 0.931 . S
H511 C507 0.930 1_554 S
O512 Co501 2.039 . S
O512 C502 1.265 . S
C513 O509 1.253 . S
C513 O514 1.218 1_455 S
O514 C513 1.218 1_655 S
N515 Co501 2.140 . S
N515 C518 1.346 . S
N515 C519 1.345 . S
C516 C517 1.387 . S
C516 C520 1.391 . S
C517 C516 1.387 . S
C517 C518 1.369 . S
C517 H526 0.929 . S
C518 N515 1.346 . S
C518 C517 1.369 . S
C518 H521 0.928 . S
C519 N515 1.345 . S
C519 C520 1.371 . S
C519 H522 0.931 . S
C520 C516 1.391 . S
C520 C519 1.371 . S
C520 H527 0.930 . S
H521 C518 0.928 . S
H522 C519 0.931 . S
H523 C499 0.930 1_455 S
H524 C496 0.930 . S
H525 C505 0.930 . S
H526 C517 0.929 . S
H527 C520 0.930 . S
C528 C529 1.349 . S
C528 C530 1.327 . S
C528 H553 0.950 . S
C529 C528 1.349 . S
C529 C545 1.349 1_545 S
C530 C528 1.327 . S
C530 C549 1.429 . S
C530 H554 0.950 . S
C531 C548 1.574 1_655 S
C531 C550 1.352 1_565 S
C531 H555 0.949 . S
H532 C536 0.949 . S
C533 C534 1.349 . S
C533 C535 1.327 . S
C533 H556 0.950 . S
C534 C533 1.349 . S
C534 C546 1.349 1_565 S
C535 C533 1.327 . S
C535 C551 1.429 . S
C535 H557 0.950 . S
C536 H532 0.949 . S
C536 C544 1.574 1_455 S
C536 C552 1.352 1_545 S
H537 C545 0.950 . S
H538 C543 0.950 . S
H539 C544 0.949 . S
H540 C546 0.950 . S
H541 C547 0.950 . S
H542 C548 0.949 . S
C543 H538 0.950 . S
C543 C545 1.327 . S
C543 C549 1.429 1_565 S
C544 C536 1.574 1_655 S
C544 H539 0.949 . S
C544 C550 1.384 . S
C545 C529 1.349 1_565 S
C545 H537 0.950 . S
C545 C543 1.327 . S
C546 C534 1.349 1_545 S
C546 H540 0.950 . S
C546 C547 1.327 . S
C547 H541 0.950 . S
C547 C546 1.327 . S
C547 C551 1.429 1_545 S
C548 C531 1.574 1_455 S
C548 H542 0.949 . S
C548 C552 1.384 . S
C549 C530 1.429 . S
C549 C543 1.429 1_545 S
C549 C550 1.525 . S
C550 C531 1.352 1_545 S
C550 C544 1.384 . S
C550 C549 1.525 . S
C551 C535 1.429 . S
C551 C547 1.429 1_565 S
C551 C552 1.525 . S
C552 C536 1.352 1_565 S
C552 C548 1.384 . S
C552 C551 1.525 . S
H553 C528 0.950 . S
H554 C530 0.950 . S
H555 C531 0.949 . S
H556 C533 0.950 . S
H557 C535 0.950 . S
C558 C559 1.349 1_554 S
C558 C560 1.327 . S
C558 H583 0.950 . S
C559 C558 1.349 1_556 S
C559 C575 1.349 . S
C560 C558 1.327 . S
C560 C579 1.429 1_554 S
C560 H584 0.950 . S
C561 C578 1.574 1_545 S
C561 C580 1.368 . S
C561 H585 0.949 . S
H562 C566 0.949 . S
C563 C564 1.349 1_556 S
C563 C565 1.327 . S
C563 H586 0.950 . S
C564 C563 1.349 1_554 S
C564 C576 1.349 . S
C565 C563 1.327 . S
C565 C581 1.429 1_556 S
C565 H587 0.950 . S
C566 H562 0.949 . S
C566 C574 1.574 1_565 S
C566 C582 1.368 . S
H567 C575 0.950 . S
H568 C573 0.950 . S
H569 C574 0.949 . S
H570 C576 0.950 . S
H571 C577 0.950 . S
H572 C578 0.949 . S
C573 H568 0.950 . S
C573 C575 1.327 . S
C573 C579 1.429 . S
C574 C566 1.574 1_545 S
C574 H569 0.949 . S
C574 C580 1.368 1_554 S
C575 C559 1.349 . S
C575 H567 0.950 . S
C575 C573 1.327 . S
C576 C564 1.349 . S
C576 H570 0.950 . S
C576 C577 1.327 . S
C577 H571 0.950 . S
C577 C576 1.327 . S
C577 C581 1.429 . S
C578 C561 1.574 1_565 S
C578 H572 0.949 . S
C578 C582 1.368 1_556 S
C579 C560 1.429 1_556 S
C579 C573 1.429 . S
C579 C580 1.523 . S
C580 C561 1.368 . S
C580 C574 1.368 1_556 S
C580 C579 1.523 . S
C581 C565 1.429 1_554 S
C581 C577 1.429 . S
C581 C582 1.523 . S
C582 C566 1.368 . S
C582 C578 1.368 1_554 S
C582 C581 1.523 . S
H583 C558 0.950 . S
H584 C560 0.950 . S
H585 C561 0.949 . S
H586 C563 0.950 . S
H587 C565 0.950 . S
C588 C589 1.349 . S
C588 C590 1.327 . S
C588 H613 0.950 . S
C589 C588 1.349 . S
C589 C605 1.349 . S
C590 C588 1.327 . S
C590 C609 1.429 . S
C590 H614 0.950 . S
C591 C608 1.574 . S
C591 C610 1.368 . S
C591 H615 0.949 . S
H592 C596 0.949 . S
C593 C594 1.349 . S
C593 C595 1.327 . S
C593 H616 0.950 . S
C594 C593 1.349 . S
C594 C606 1.349 . S
C595 C593 1.327 . S
C595 C611 1.429 . S
C595 H617 0.950 . S
C596 H592 0.949 . S
C596 C604 1.574 . S
C596 C612 1.368 . S
H597 C605 0.950 . S
H598 C603 0.950 . S
H599 C604 0.949 . S
H600 C606 0.950 . S
H601 C607 0.950 . S
H602 C608 0.949 . S
C603 H598 0.950 . S
C603 C605 1.327 . S
C603 C609 1.429 . S
C604 C596 1.574 . S
C604 H599 0.949 . S
C604 C610 1.368 . S
C605 C589 1.349 . S
C605 H597 0.950 . S
C605 C603 1.327 . S
C606 C594 1.349 . S
C606 H600 0.950 . S
C606 C607 1.327 . S
C607 H601 0.950 . S
C607 C606 1.327 . S
C607 C611 1.429 . S
C608 C591 1.574 . S
C608 H602 0.949 . S
C608 C612 1.368 . S
C609 C590 1.429 . S
C609 C603 1.429 . S
C609 C610 1.523 . S
C610 C591 1.368 . S
C610 C604 1.368 . S
C610 C609 1.523 . S
C611 C595 1.429 . S
C611 C607 1.429 . S
C611 C612 1.523 . S
C612 C596 1.368 . S
C612 C608 1.368 . S
C612 C611 1.523 . S
H613 C588 0.950 . S
H614 C590 0.950 . S
H615 C591 0.949 . S
H616 C593 0.950 . S
H617 C595 0.950 . S
C618 C619 1.349 1_655 S
C618 C620 1.327 . S
C618 H643 0.950 . S
C619 C618 1.349 1_455 S
C619 C635 1.349 1_554 S
C620 C618 1.327 . S
C620 C639 1.429 1_655 S
C620 H644 0.950 . S
C621 C638 1.574 . S
C621 C640 1.389 1_556 S
C621 H645 0.949 . S
H622 C626 0.949 . S
C623 C624 1.349 1_455 S
C623 C625 1.327 . S
C623 H646 0.950 . S
C624 C623 1.349 1_655 S
C624 C636 1.349 1_556 S
C625 C623 1.327 . S
C625 C641 1.429 1_455 S
C625 H647 0.950 . S
C626 H622 0.949 . S
C626 C634 1.574 . S
C626 C642 1.389 1_554 S
H627 C635 0.950 . S
H628 C633 0.950 . S
H629 C634 0.949 . S
H630 C636 0.950 . S
H631 C637 0.950 . S
H632 C638 0.949 . S
C633 H628 0.950 . S
C633 C635 1.327 . S
C633 C639 1.429 1_556 S
C634 C626 1.574 . S
C634 H629 0.949 . S
C634 C640 1.347 1_655 S
C635 C619 1.349 1_556 S
C635 H627 0.950 . S
C635 C633 1.327 . S
C636 C624 1.349 1_554 S
C636 H630 0.950 . S
C636 C637 1.327 . S
C637 H631 0.950 . S
C637 C636 1.327 . S
C637 C641 1.429 1_554 S
C638 C621 1.574 . S
C638 H632 0.949 . S
C638 C642 1.347 1_455 S
C639 C620 1.429 1_455 S
C639 C633 1.429 1_554 S
C639 C640 1.525 . S
C640 C621 1.389 1_554 S
C640 C634 1.347 1_455 S
C640 C639 1.525 . S
C641 C625 1.429 1_655 S
C641 C637 1.429 1_556 S
C641 C642 1.525 . S
C642 C626 1.389 1_556 S
C642 C638 1.347 1_655 S
C642 C641 1.525 . S
H643 C618 0.950 . S
H644 C620 0.950 . S
H645 C621 0.949 . S
H646 C623 0.950 . S
H647 C625 0.950 . S
C648 C649 1.349 . S
C648 C650 1.327 . S
C648 H673 0.950 . S
C649 C648 1.349 . S
C649 C665 1.349 1_545 S
C650 C648 1.327 . S
C650 C669 1.429 . S
C650 H674 0.950 . S
C651 C668 1.574 . S
C651 C670 1.361 1_565 S
C651 H675 0.949 . S
H652 C656 0.949 . S
C653 C654 1.349 . S
C653 C655 1.327 . S
C653 H676 0.950 . S
C654 C653 1.349 . S
C654 C666 1.349 1_565 S
C655 C653 1.327 . S
C655 C671 1.429 . S
C655 H677 0.950 . S
C656 H652 0.949 . S
C656 C664 1.574 . S
C656 C672 1.361 1_545 S
H657 C665 0.950 . S
H658 C663 0.950 . S
H659 C664 0.949 . S
H660 C666 0.950 . S
H661 C667 0.950 . S
H662 C668 0.949 . S
C663 H658 0.950 . S
C663 C665 1.327 . S
C663 C669 1.429 1_565 S
C664 C656 1.574 . S
C664 H659 0.949 . S
C664 C670 1.376 . S
C665 C649 1.349 1_565 S
C665 H657 0.950 . S
C665 C663 1.327 . S
C666 C654 1.349 1_545 S
C666 H660 0.950 . S
C666 C667 1.327 . S
C667 H661 0.950 . S
C667 C666 1.327 . S
C667 C671 1.429 1_545 S
C668 C651 1.574 . S
C668 H662 0.949 . S
C668 C672 1.376 . S
C669 C650 1.429 . S
C669 C663 1.429 1_545 S
C669 C670 1.525 . S
C670 C651 1.361 1_545 S
C670 C664 1.376 . S
C670 C669 1.525 . S
C671 C655 1.429 . S
C671 C667 1.429 1_565 S
C671 C672 1.525 . S
C672 C656 1.361 1_565 S
C672 C668 1.376 . S
C672 C671 1.525 . S
H673 C648 0.950 . S
H674 C650 0.950 . S
H675 C651 0.949 . S
H676 C653 0.950 . S
H677 C655 0.950 . S
C678 C679 1.349 . S
C678 C680 1.327 . S
C678 H703 0.950 . S
C679 C678 1.349 . S
C679 C695 1.349 1_554 S
C680 C678 1.327 . S
C680 C699 1.429 . S
C680 H704 0.950 . S
C681 C698 1.574 . S
C681 C700 1.368 1_556 S
C681 H705 0.949 . S
H682 C686 0.949 . S
C683 C684 1.349 . S
C683 C685 1.327 . S
C683 H706 0.950 . S
C684 C683 1.349 . S
C684 C696 1.349 1_556 S
C685 C683 1.327 . S
C685 C701 1.429 . S
C685 H707 0.950 . S
C686 H682 0.949 . S
C686 C694 1.574 . S
C686 C702 1.368 1_554 S
H687 C695 0.950 . S
H688 C693 0.950 . S
H689 C694 0.949 . S
H690 C696 0.950 . S
H691 C697 0.950 . S
H692 C698 0.949 . S
C693 H688 0.950 . S
C693 C695 1.327 . S
C693 C699 1.429 1_556 S
C694 C686 1.574 . S
C694 H689 0.949 . S
C694 C700 1.368 . S
C695 C679 1.349 1_556 S
C695 H687 0.950 . S
C695 C693 1.327 . S
C696 C684 1.349 1_554 S
C696 H690 0.950 . S
C696 C697 1.327 . S
C697 H691 0.950 . S
C697 C696 1.327 . S
C697 C701 1.429 1_554 S
C698 C681 1.574 . S
C698 H692 0.949 . S
C698 C702 1.368 . S
C699 C680 1.429 . S
C699 C693 1.429 1_554 S
C699 C700 1.523 . S
C700 C681 1.368 1_554 S
C700 C694 1.368 . S
C700 C699 1.523 . S
C701 C685 1.429 . S
C701 C697 1.429 1_556 S
C701 C702 1.523 . S
C702 C686 1.368 1_556 S
C702 C698 1.368 . S
C702 C701 1.523 . S
H703 C678 0.950 . S
H704 C680 0.950 . S
H705 C681 0.949 . S
H706 C683 0.950 . S
H707 C685 0.950 . S
C708 C709 1.349 . S
C708 C710 1.327 . S
C708 H733 0.950 . S
C709 C708 1.349 . S
C709 C725 1.349 . S
C710 C708 1.327 . S
C710 C729 1.429 . S
C710 H734 0.950 . S
C711 C728 1.574 1_655 S
C711 C730 1.368 . S
C711 H735 0.949 . S
H712 C716 0.949 . S
C713 C714 1.349 . S
C713 C715 1.327 . S
C713 H736 0.950 . S
C714 C713 1.349 . S
C714 C726 1.349 . S
C715 C713 1.327 . S
C715 C731 1.429 . S
C715 H737 0.950 . S
C716 H712 0.949 . S
C716 C724 1.574 1_455 S
C716 C732 1.368 . S
H717 C725 0.950 . S
H718 C723 0.950 . S
H719 C724 0.949 . S
H720 C726 0.950 . S
H721 C727 0.950 . S
H722 C728 0.949 . S
C723 H718 0.950 . S
C723 C725 1.327 . S
C723 C729 1.429 . S
C724 C716 1.574 1_655 S
C724 H719 0.949 . S
C724 C730 1.368 . S
C725 C709 1.349 . S
C725 H717 0.950 . S
C725 C723 1.327 . S
C726 C714 1.349 . S
C726 H720 0.950 . S
C726 C727 1.327 . S
C727 H721 0.950 . S
C727 C726 1.327 . S
C727 C731 1.429 . S
C728 C711 1.574 1_455 S
C728 H722 0.949 . S
C728 C732 1.368 . S
C729 C710 1.429 . S
C729 C723 1.429 . S
C729 C730 1.523 . S
C730 C711 1.368 . S
C730 C724 1.368 . S
C730 C729 1.523 . S
C731 C715 1.429 . S
C731 C727 1.429 . S
C731 C732 1.523 . S
C732 C716 1.368 . S
C732 C728 1.368 . S
C732 C731 1.523 . S
H733 C708 0.950 . S
H734 C710 0.950 . S
H735 C711 0.949 . S
H736 C713 0.950 . S
H737 C715 0.950 . S
C738 C739 1.349 . S
C738 C740 1.327 . S
C738 H763 0.950 . S
C739 C738 1.349 . S
C739 C755 1.349 1_454 S
C740 C738 1.327 . S
C740 C759 1.429 . S
C740 H764 0.950 . S
C741 C758 1.574 1_565 S
C741 C760 1.348 1_656 S
C741 H765 0.949 . S
H742 C746 0.949 . S
C743 C744 1.349 . S
C743 C745 1.327 . S
C743 H766 0.950 . S
C744 C743 1.349 . S
C744 C756 1.349 1_656 S
C745 C743 1.327 . S
C745 C761 1.429 . S
C745 H767 0.950 . S
C746 H742 0.949 . S
C746 C754 1.574 1_545 S
C746 C762 1.348 1_454 S
H747 C755 0.950 . S
H748 C753 0.950 . S
H749 C754 0.949 . S
H750 C756 0.950 . S
H751 C757 0.950 . S
H752 C758 0.949 . S
C753 H748 0.950 . S
C753 C755 1.327 . S
C753 C759 1.429 1_656 S
C754 C746 1.574 1_565 S
C754 H749 0.949 . S
C754 C760 1.388 . S
C755 C739 1.349 1_656 S
C755 H747 0.950 . S
C755 C753 1.327 . S
C756 C744 1.349 1_454 S
C756 H750 0.950 . S
C756 C757 1.327 . S
C757 H751 0.950 . S
C757 C756 1.327 . S
C757 C761 1.429 1_454 S
C758 C741 1.574 1_545 S
C758 H752 0.949 . S
C758 C762 1.388 . S
C759 C740 1.429 . S
C759 C753 1.429 1_454 S
C759 C760 1.525 . S
C760 C741 1.348 1_454 S
C760 C754 1.388 . S
C760 C759 1.525 . S
C761 C745 1.429 . S
C761 C757 1.429 1_656 S
C761 C762 1.525 . S
C762 C746 1.348 1_656 S
C762 C758 1.388 . S
C762 C761 1.525 . S
H763 C738 0.950 . S
H764 C740 0.950 . S
H765 C741 0.949 . S
H766 C743 0.950 . S
H767 C745 0.950 . S
C768 C769 1.349 . S
C768 C770 1.327 . S
C768 H793 0.950 . S
C769 C768 1.349 . S
C769 C785 1.349 . S
C770 C768 1.327 . S
C770 C789 1.429 . S
C770 H794 0.950 . S
C771 C788 1.574 . S
C771 C790 1.368 . S
C771 H795 0.949 . S
H772 C776 0.949 . S
C773 C774 1.349 . S
C773 C775 1.327 . S
C773 H796 0.950 . S
C774 C773 1.349 . S
C774 C786 1.349 . S
C775 C773 1.327 . S
C775 C791 1.429 . S
C775 H797 0.950 . S
C776 H772 0.949 . S
C776 C784 1.574 . S
C776 C792 1.368 . S
H777 C785 0.950 . S
H778 C783 0.950 . S
H779 C784 0.949 . S
H780 C786 0.950 . S
H781 C787 0.950 . S
H782 C788 0.949 . S
C783 H778 0.950 . S
C783 C785 1.327 . S
C783 C789 1.429 . S
C784 C776 1.574 . S
C784 H779 0.949 . S
C784 C790 1.368 . S
C785 C769 1.349 . S
C785 H777 0.950 . S
C785 C783 1.327 . S
C786 C774 1.349 . S
C786 H780 0.950 . S
C786 C787 1.327 . S
C787 H781 0.950 . S
C787 C786 1.327 . S
C787 C791 1.429 . S
C788 C771 1.574 . S
C788 H782 0.949 . S
C788 C792 1.368 . S
C789 C770 1.429 . S
C789 C783 1.429 . S
C789 C790 1.523 . S
C790 C771 1.368 . S
C790 C784 1.368 . S
C790 C789 1.523 . S
C791 C775 1.429 . S
C791 C787 1.429 . S
C791 C792 1.523 . S
C792 C776 1.368 . S
C792 C788 1.368 . S
C792 C791 1.523 . S
H793 C768 0.950 . S
H794 C770 0.950 . S
H795 C771 0.949 . S
H796 C773 0.950 . S
H797 C775 0.950 . S
C798 C799 1.349 . S
C798 C800 1.327 . S
C798 H823 0.950 . S
C799 C798 1.349 . S
C799 C815 1.349 . S
C800 C798 1.327 . S
C800 C819 1.429 . S
C800 H824 0.950 . S
C801 C818 1.574 . S
C801 C820 1.368 . S
C801 H825 0.949 . S
H802 C806 0.949 . S
C803 C804 1.349 . S
C803 C805 1.327 . S
C803 H826 0.950 . S
C804 C803 1.349 . S
C804 C816 1.349 . S
C805 C803 1.327 . S
C805 C821 1.429 . S
C805 H827 0.950 . S
C806 H802 0.949 . S
C806 C814 1.574 . S
C806 C822 1.368 . S
H807 C815 0.950 . S
H808 C813 0.950 . S
H809 C814 0.949 . S
H810 C816 0.950 . S
H811 C817 0.950 . S
H812 C818 0.949 . S
C813 H808 0.950 . S
C813 C815 1.327 . S
C813 C819 1.429 . S
C814 C806 1.574 . S
C814 H809 0.949 . S
C814 C820 1.368 . S
C815 C799 1.349 . S
C815 H807 0.950 . S
C815 C813 1.327 . S
C816 C804 1.349 . S
C816 H810 0.950 . S
C816 C817 1.327 . S
C817 H811 0.950 . S
C817 C816 1.327 . S
C817 C821 1.429 . S
C818 C801 1.574 . S
C818 H812 0.949 . S
C818 C822 1.368 . S
C819 C800 1.429 . S
C819 C813 1.429 . S
C819 C820 1.523 . S
C820 C801 1.368 . S
C820 C814 1.368 . S
C820 C819 1.523 . S
C821 C805 1.429 . S
C821 C817 1.429 . S
C821 C822 1.523 . S
C822 C806 1.368 . S
C822 C818 1.368 . S
C822 C821 1.523 . S
H823 C798 0.950 . S
H824 C800 0.950 . S
H825 C801 0.949 . S
H826 C803 0.950 . S
H827 C805 0.950 . S
C828 C829 1.349 . S
C828 C830 1.327 . S
C828 H853 0.950 . S
C829 C828 1.349 . S
C829 C845 1.349 . S
C830 C828 1.327 . S
C830 C849 1.429 . S
C830 H854 0.950 . S
C831 C848 1.574 . S
C831 C850 1.368 . S
C831 H855 0.949 . S
H832 C836 0.949 . S
C833 C834 1.349 . S
C833 C835 1.327 . S
C833 H856 0.950 . S
C834 C833 1.349 . S
C834 C846 1.349 . S
C835 C833 1.327 . S
C835 C851 1.429 . S
C835 H857 0.950 . S
C836 H832 0.949 . S
C836 C844 1.574 . S
C836 C852 1.368 . S
H837 C845 0.950 . S
H838 C843 0.950 . S
H839 C844 0.949 . S
H840 C846 0.950 . S
H841 C847 0.950 . S
H842 C848 0.949 . S
C843 H838 0.950 . S
C843 C845 1.327 . S
C843 C849 1.429 . S
C844 C836 1.574 . S
C844 H839 0.949 . S
C844 C850 1.368 . S
C845 C829 1.349 . S
C845 H837 0.950 . S
C845 C843 1.327 . S
C846 C834 1.349 . S
C846 H840 0.950 . S
C846 C847 1.327 . S
C847 H841 0.950 . S
C847 C846 1.327 . S
C847 C851 1.429 . S
C848 C831 1.574 . S
C848 H842 0.949 . S
C848 C852 1.368 . S
C849 C830 1.429 . S
C849 C843 1.429 . S
C849 C850 1.523 . S
C850 C831 1.368 . S
C850 C844 1.368 . S
C850 C849 1.523 . S
C851 C835 1.429 . S
C851 C847 1.429 . S
C851 C852 1.523 . S
C852 C836 1.368 . S
C852 C848 1.368 . S
C852 C851 1.523 . S
H853 C828 0.950 . S
H854 C830 0.950 . S
H855 C831 0.949 . S
H856 C833 0.950 . S
H857 C835 0.950 . S
C858 C859 1.349 . S
C858 C860 1.327 . S
C858 H883 0.950 . S
C859 C858 1.349 . S
C859 C875 1.349 . S
C860 C858 1.327 . S
C860 C879 1.429 . S
C860 H884 0.950 . S
C861 C878 1.574 . S
C861 C880 1.368 . S
C861 H885 0.949 . S
H862 C866 0.949 . S
C863 C864 1.349 . S
C863 C865 1.327 . S
C863 H886 0.950 . S
C864 C863 1.349 . S
C864 C876 1.349 . S
C865 C863 1.327 . S
C865 C881 1.429 . S
C865 H887 0.950 . S
C866 H862 0.949 . S
C866 C874 1.574 . S
C866 C882 1.368 . S
H867 C875 0.950 . S
H868 C873 0.950 . S
H869 C874 0.949 . S
H870 C876 0.950 . S
H871 C877 0.950 . S
H872 C878 0.949 . S
C873 H868 0.950 . S
C873 C875 1.327 . S
C873 C879 1.429 . S
C874 C866 1.574 . S
C874 H869 0.949 . S
C874 C880 1.368 . S
C875 C859 1.349 . S
C875 H867 0.950 . S
C875 C873 1.327 . S
C876 C864 1.349 . S
C876 H870 0.950 . S
C876 C877 1.327 . S
C877 H871 0.950 . S
C877 C876 1.327 . S
C877 C881 1.429 . S
C878 C861 1.574 . S
C878 H872 0.949 . S
C878 C882 1.368 . S
C879 C860 1.429 . S
C879 C873 1.429 . S
C879 C880 1.523 . S
C880 C861 1.368 . S
C880 C874 1.368 . S
C880 C879 1.523 . S
C881 C865 1.429 . S
C881 C877 1.429 . S
C881 C882 1.523 . S
C882 C866 1.368 . S
C882 C878 1.368 . S
C882 C881 1.523 . S
H883 C858 0.950 . S
H884 C860 0.950 . S
H885 C861 0.949 . S
H886 C863 0.950 . S
H887 C865 0.950 . S
C888 C889 1.349 . S
C888 C890 1.327 . S
C888 H913 0.950 . S
C889 C888 1.349 . S
C889 C905 1.349 . S
C890 C888 1.327 . S
C890 C909 1.429 . S
C890 H914 0.950 . S
C891 C908 1.574 . S
C891 C910 1.368 . S
C891 H915 0.949 . S
H892 C896 0.949 . S
C893 C894 1.349 . S
C893 C895 1.327 . S
C893 H916 0.950 . S
C894 C893 1.349 . S
C894 C906 1.349 . S
C895 C893 1.327 . S
C895 C911 1.429 . S
C895 H917 0.950 . S
C896 H892 0.949 . S
C896 C904 1.574 . S
C896 C912 1.368 . S
H897 C905 0.950 . S
H898 C903 0.950 . S
H899 C904 0.949 . S
H900 C906 0.950 . S
H901 C907 0.950 . S
H902 C908 0.949 . S
C903 H898 0.950 . S
C903 C905 1.327 . S
C903 C909 1.429 . S
C904 C896 1.574 . S
C904 H899 0.949 . S
C904 C910 1.368 . S
C905 C889 1.349 . S
C905 H897 0.950 . S
C905 C903 1.327 . S
C906 C894 1.349 . S
C906 H900 0.950 . S
C906 C907 1.327 . S
C907 H901 0.950 . S
C907 C906 1.327 . S
C907 C911 1.429 . S
C908 C891 1.574 . S
C908 H902 0.949 . S
C908 C912 1.368 . S
C909 C890 1.429 . S
C909 C903 1.429 . S
C909 C910 1.523 . S
C910 C891 1.368 . S
C910 C904 1.368 . S
C910 C909 1.523 . S
C911 C895 1.429 . S
C911 C907 1.429 . S
C911 C912 1.523 . S
C912 C896 1.368 . S
C912 C908 1.368 . S
C912 C911 1.523 . S
H913 C888 0.950 . S
H914 C890 0.950 . S
H915 C891 0.949 . S
H916 C893 0.950 . S
H917 C895 0.950 . S
C918 C919 1.349 . S
C918 C920 1.327 . S
C918 H943 0.950 . S
C919 C918 1.349 . S
C919 C935 1.349 . S
C920 C918 1.327 . S
C920 C939 1.429 . S
C920 H944 0.950 . S
C921 C938 1.574 . S
C921 C940 1.368 . S
C921 H945 0.949 . S
H922 C926 0.949 . S
C923 C924 1.349 . S
C923 C925 1.327 . S
C923 H946 0.950 . S
C924 C923 1.349 . S
C924 C936 1.349 . S
C925 C923 1.327 . S
C925 C941 1.429 . S
C925 H947 0.950 . S
C926 H922 0.949 . S
C926 C934 1.574 . S
C926 C942 1.368 . S
H927 C935 0.950 . S
H928 C933 0.950 . S
H929 C934 0.949 . S
H930 C936 0.950 . S
H931 C937 0.950 . S
H932 C938 0.949 . S
C933 H928 0.950 . S
C933 C935 1.327 . S
C933 C939 1.429 . S
C934 C926 1.574 . S
C934 H929 0.949 . S
C934 C940 1.368 . S
C935 C919 1.349 . S
C935 H927 0.950 . S
C935 C933 1.327 . S
C936 C924 1.349 . S
C936 H930 0.950 . S
C936 C937 1.327 . S
C937 H931 0.950 . S
C937 C936 1.327 . S
C937 C941 1.429 . S
C938 C921 1.574 . S
C938 H932 0.949 . S
C938 C942 1.368 . S
C939 C920 1.429 . S
C939 C933 1.429 . S
C939 C940 1.523 . S
C940 C921 1.368 . S
C940 C934 1.368 . S
C940 C939 1.523 . S
C941 C925 1.429 . S
C941 C937 1.429 . S
C941 C942 1.523 . S
C942 C926 1.368 . S
C942 C938 1.368 . S
C942 C941 1.523 . S
H943 C918 0.950 . S
H944 C920 0.950 . S
H945 C921 0.949 . S
H946 C923 0.950 . S
H947 C925 0.950 . S
C948 C949 1.349 . S
C948 C950 1.327 . S
C948 H973 0.950 . S
C949 C948 1.349 . S
C949 C965 1.349 . S
C950 C948 1.327 . S
C950 C969 1.429 . S
C950 H974 0.950 . S
C951 C968 1.574 . S
C951 C970 1.368 . S
C951 H975 0.949 . S
H952 C956 0.949 . S
C953 C954 1.349 . S
C953 C955 1.327 . S
C953 H976 0.950 . S
C954 C953 1.349 . S
C954 C966 1.349 . S
C955 C953 1.327 . S
C955 C971 1.429 . S
C955 H977 0.950 . S
C956 H952 0.949 . S
C956 C964 1.574 . S
C956 C972 1.368 . S
H957 C965 0.950 . S
H958 C963 0.950 . S
H959 C964 0.949 . S
H960 C966 0.950 . S
H961 C967 0.950 . S
H962 C968 0.949 . S
C963 H958 0.950 . S
C963 C965 1.327 . S
C963 C969 1.429 . S
C964 C956 1.574 . S
C964 H959 0.949 . S
C964 C970 1.368 . S
C965 C949 1.349 . S
C965 H957 0.950 . S
C965 C963 1.327 . S
C966 C954 1.349 . S
C966 H960 0.950 . S
C966 C967 1.327 . S
C967 H961 0.950 . S
C967 C966 1.327 . S
C967 C971 1.429 . S
C968 C951 1.574 . S
C968 H962 0.949 . S
C968 C972 1.368 . S
C969 C950 1.429 . S
C969 C963 1.429 . S
C969 C970 1.523 . S
C970 C951 1.368 . S
C970 C964 1.368 . S
C970 C969 1.523 . S
C971 C955 1.429 . S
C971 C967 1.429 . S
C971 C972 1.523 . S
C972 C956 1.368 . S
C972 C968 1.368 . S
C972 C971 1.523 . S
H973 C948 0.950 . S
H974 C950 0.950 . S
H975 C951 0.949 . S
H976 C953 0.950 . S
H977 C955 0.950 . S
C978 C979 1.349 . S
C978 C980 1.327 . S
C978 H1003 0.950 . S
C979 C978 1.349 . S
C979 C995 1.349 . S
C980 C978 1.327 . S
C980 C999 1.429 . S
C980 H1004 0.950 . S
C981 C998 1.574 . S
C981 C1000 1.368 . S
C981 H1005 0.949 . S
H982 C986 0.949 . S
C983 C984 1.349 . S
C983 C985 1.327 . S
C983 H1006 0.950 . S
C984 C983 1.349 . S
C984 C996 1.349 . S
C985 C983 1.327 . S
C985 C1001 1.429 . S
C985 H1007 0.950 . S
C986 H982 0.949 . S
C986 C994 1.574 . S
C986 C1002 1.368 . S
H987 C995 0.950 . S
H988 C993 0.950 . S
H989 C994 0.949 . S
H990 C996 0.950 . S
H991 C997 0.950 . S
H992 C998 0.949 . S
C993 H988 0.950 . S
C993 C995 1.327 . S
C993 C999 1.429 . S
C994 C986 1.574 . S
C994 H989 0.949 . S
C994 C1000 1.368 . S
C995 C979 1.349 . S
C995 H987 0.950 . S
C995 C993 1.327 . S
C996 C984 1.349 . S
C996 H990 0.950 . S
C996 C997 1.327 . S
C997 H991 0.950 . S
C997 C996 1.327 . S
C997 C1001 1.429 . S
C998 C981 1.574 . S
C998 H992 0.949 . S
C998 C1002 1.368 . S
C999 C980 1.429 . S
C999 C993 1.429 . S
C999 C1000 1.523 . S
C1000 C981 1.368 . S
C1000 C994 1.368 . S
C1000 C999 1.523 . S
C1001 C985 1.429 . S
C1001 C997 1.429 . S
C1001 C1002 1.523 . S
C1002 C986 1.368 . S
C1002 C998 1.368 . S
C1002 C1001 1.523 . S
H1003 C978 0.950 . S
H1004 C980 0.950 . S
H1005 C981 0.949 . S
H1006 C983 0.950 . S
H1007 C985 0.950 . S
C1008 C1009 1.349 . S
C1008 C1010 1.327 . S
C1008 H1033 0.950 . S
C1009 C1008 1.349 . S
C1009 C1025 1.349 . S
C1010 C1008 1.327 . S
C1010 C1029 1.429 . S
C1010 H1034 0.950 . S
C1011 C1028 1.574 . S
C1011 C1030 1.368 . S
C1011 H1035 0.949 . S
H1012 C1016 0.949 . S
C1013 C1014 1.349 . S
C1013 C1015 1.327 . S
C1013 H1036 0.950 . S
C1014 C1013 1.349 . S
C1014 C1026 1.349 . S
C1015 C1013 1.327 . S
C1015 C1031 1.429 . S
C1015 H1037 0.950 . S
C1016 H1012 0.949 . S
C1016 C1024 1.574 . S
C1016 C1032 1.368 . S
H1017 C1025 0.950 . S
H1018 C1023 0.950 . S
H1019 C1024 0.949 . S
H1020 C1026 0.950 . S
H1021 C1027 0.950 . S
H1022 C1028 0.949 . S
C1023 H1018 0.950 . S
C1023 C1025 1.327 . S
C1023 C1029 1.429 . S
C1024 C1016 1.574 . S
C1024 H1019 0.949 . S
C1024 C1030 1.368 . S
C1025 C1009 1.349 . S
C1025 H1017 0.950 . S
C1025 C1023 1.327 . S
C1026 C1014 1.349 . S
C1026 H1020 0.950 . S
C1026 C1027 1.327 . S
C1027 H1021 0.950 . S
C1027 C1026 1.327 . S
C1027 C1031 1.429 . S
C1028 C1011 1.574 . S
C1028 H1022 0.949 . S
C1028 C1032 1.368 . S
C1029 C1010 1.429 . S
C1029 C1023 1.429 . S
C1029 C1030 1.523 . S
C1030 C1011 1.368 . S
C1030 C1024 1.368 . S
C1030 C1029 1.523 . S
C1031 C1015 1.429 . S
C1031 C1027 1.429 . S
C1031 C1032 1.523 . S
C1032 C1016 1.368 . S
C1032 C1028 1.368 . S
C1032 C1031 1.523 . S
H1033 C1008 0.950 . S
H1034 C1010 0.950 . S
H1035 C1011 0.949 . S
H1036 C1013 0.950 . S
H1037 C1015 0.950 . S
C1038 C1039 1.349 . S
C1038 C1040 1.327 . S
C1038 H1063 0.950 . S
C1039 C1038 1.349 . S
C1039 C1055 1.349 . S
C1040 C1038 1.327 . S
C1040 C1059 1.429 . S
C1040 H1064 0.950 . S
C1041 C1058 1.574 . S
C1041 C1060 1.368 . S
C1041 H1065 0.949 . S
H1042 C1046 0.949 . S
C1043 C1044 1.349 . S
C1043 C1045 1.327 . S
C1043 H1066 0.950 . S
C1044 C1043 1.349 . S
C1044 C1056 1.349 . S
C1045 C1043 1.327 . S
C1045 C1061 1.429 . S
C1045 H1067 0.950 . S
C1046 H1042 0.949 . S
C1046 C1054 1.574 . S
C1046 C1062 1.368 . S
H1047 C1055 0.950 . S
H1048 C1053 0.950 . S
H1049 C1054 0.949 . S
H1050 C1056 0.950 . S
H1051 C1057 0.950 . S
H1052 C1058 0.949 . S
C1053 H1048 0.950 . S
C1053 C1055 1.327 . S
C1053 C1059 1.429 . S
C1054 C1046 1.574 . S
C1054 H1049 0.949 . S
C1054 C1060 1.368 . S
C1055 C1039 1.349 . S
C1055 H1047 0.950 . S
C1055 C1053 1.327 . S
C1056 C1044 1.349 . S
C1056 H1050 0.950 . S
C1056 C1057 1.327 . S
C1057 H1051 0.950 . S
C1057 C1056 1.327 . S
C1057 C1061 1.429 . S
C1058 C1041 1.574 . S
C1058 H1052 0.949 . S
C1058 C1062 1.368 . S
C1059 C1040 1.429 . S
C1059 C1053 1.429 . S
C1059 C1060 1.523 . S
C1060 C1041 1.368 . S
C1060 C1054 1.368 . S
C1060 C1059 1.523 . S
C1061 C1045 1.429 . S
C1061 C1057 1.429 . S
C1061 C1062 1.523 . S
C1062 C1046 1.368 . S
C1062 C1058 1.368 . S
C1062 C1061 1.523 . S
H1063 C1038 0.950 . S
H1064 C1040 0.950 . S
H1065 C1041 0.949 . S
H1066 C1043 0.950 . S
H1067 C1045 0.950 . S
C1068 C1069 1.349 . S
C1068 C1070 1.327 . S
C1068 H1093 0.950 . S
C1069 C1068 1.349 . S
C1069 C1085 1.349 . S
C1070 C1068 1.327 . S
C1070 C1089 1.429 . S
C1070 H1094 0.950 . S
C1071 C1088 1.574 . S
C1071 C1090 1.368 . S
C1071 H1095 0.949 . S
H1072 C1076 0.949 . S
C1073 C1074 1.349 . S
C1073 C1075 1.327 . S
C1073 H1096 0.950 . S
C1074 C1073 1.349 . S
C1074 C1086 1.349 . S
C1075 C1073 1.327 . S
C1075 C1091 1.429 . S
C1075 H1097 0.950 . S
C1076 H1072 0.949 . S
C1076 C1084 1.574 . S
C1076 C1092 1.368 . S
H1077 C1085 0.950 . S
H1078 C1083 0.950 . S
H1079 C1084 0.949 . S
H1080 C1086 0.950 . S
H1081 C1087 0.950 . S
H1082 C1088 0.949 . S
C1083 H1078 0.950 . S
C1083 C1085 1.327 . S
C1083 C1089 1.429 . S
C1084 C1076 1.574 . S
C1084 H1079 0.949 . S
C1084 C1090 1.368 . S
C1085 C1069 1.349 . S
C1085 H1077 0.950 . S
C1085 C1083 1.327 . S
C1086 C1074 1.349 . S
C1086 H1080 0.950 . S
C1086 C1087 1.327 . S
C1087 H1081 0.950 . S
C1087 C1086 1.327 . S
C1087 C1091 1.429 . S
C1088 C1071 1.574 . S
C1088 H1082 0.949 . S
C1088 C1092 1.368 . S
C1089 C1070 1.429 . S
C1089 C1083 1.429 . S
C1089 C1090 1.523 . S
C1090 C1071 1.368 . S
C1090 C1084 1.368 . S
C1090 C1089 1.523 . S
C1091 C1075 1.429 . S
C1091 C1087 1.429 . S
C1091 C1092 1.523 . S
C1092 C1076 1.368 . S
C1092 C1088 1.368 . S
C1092 C1091 1.523 . S
H1093 C1068 0.950 . S
H1094 C1070 0.950 . S
H1095 C1071 0.949 . S
H1096 C1073 0.950 . S
H1097 C1075 0.950 . S
C1098 C1099 1.349 . S
C1098 C1100 1.327 . S
C1098 H1123 0.950 . S
C1099 C1098 1.349 . S
C1099 C1115 1.349 . S
C1100 C1098 1.327 . S
C1100 C1119 1.429 . S
C1100 H1124 0.950 . S
C1101 C1118 1.574 . S
C1101 C1120 1.368 . S
C1101 H1125 0.949 . S
H1102 C1106 0.949 . S
C1103 C1104 1.349 . S
C1103 C1105 1.327 . S
C1103 H1126 0.950 . S
C1104 C1103 1.349 . S
C1104 C1116 1.349 . S
C1105 C1103 1.327 . S
C1105 C1121 1.429 . S
C1105 H1127 0.950 . S
C1106 H1102 0.949 . S
C1106 C1114 1.574 . S
C1106 C1122 1.368 . S
H1107 C1115 0.950 . S
H1108 C1113 0.950 . S
H1109 C1114 0.949 . S
H1110 C1116 0.950 . S
H1111 C1117 0.950 . S
H1112 C1118 0.949 . S
C1113 H1108 0.950 . S
C1113 C1115 1.327 . S
C1113 C1119 1.429 . S
C1114 C1106 1.574 . S
C1114 H1109 0.949 . S
C1114 C1120 1.368 . S
C1115 C1099 1.349 . S
C1115 H1107 0.950 . S
C1115 C1113 1.327 . S
C1116 C1104 1.349 . S
C1116 H1110 0.950 . S
C1116 C1117 1.327 . S
C1117 H1111 0.950 . S
C1117 C1116 1.327 . S
C1117 C1121 1.429 . S
C1118 C1101 1.574 . S
C1118 H1112 0.949 . S
C1118 C1122 1.368 . S
C1119 C1100 1.429 . S
C1119 C1113 1.429 . S
C1119 C1120 1.523 . S
C1120 C1101 1.368 . S
C1120 C1114 1.368 . S
C1120 C1119 1.523 . S
C1121 C1105 1.429 . S
C1121 C1117 1.429 . S
C1121 C1122 1.523 . S
C1122 C1106 1.368 . S
C1122 C1118 1.368 . S
C1122 C1121 1.523 . S
H1123 C1098 0.950 . S
H1124 C1100 0.950 . S
H1125 C1101 0.949 . S
H1126 C1103 0.950 . S
H1127 C1105 0.950 . S
C1128 C1129 1.349 . S
C1128 C1130 1.327 . S
C1128 H1153 0.950 . S
C1129 C1128 1.349 . S
C1129 C1145 1.349 . S
C1130 C1128 1.327 . S
C1130 C1149 1.429 . S
C1130 H1154 0.950 . S
C1131 C1148 1.574 . S
C1131 C1150 1.368 . S
C1131 H1155 0.949 . S
H1132 C1136 0.949 . S
C1133 C1134 1.349 . S
C1133 C1135 1.327 . S
C1133 H1156 0.950 . S
C1134 C1133 1.349 . S
C1134 C1146 1.349 . S
C1135 C1133 1.327 . S
C1135 C1151 1.429 . S
C1135 H1157 0.950 . S
C1136 H1132 0.949 . S
C1136 C1144 1.574 . S
C1136 C1152 1.368 . S
H1137 C1145 0.950 . S
H1138 C1143 0.950 . S
H1139 C1144 0.949 . S
H1140 C1146 0.950 . S
H1141 C1147 0.950 . S
H1142 C1148 0.949 . S
C1143 H1138 0.950 . S
C1143 C1145 1.327 . S
C1143 C1149 1.429 . S
C1144 C1136 1.574 . S
C1144 H1139 0.949 . S
C1144 C1150 1.368 . S
C1145 C1129 1.349 . S
C1145 H1137 0.950 . S
C1145 C1143 1.327 . S
C1146 C1134 1.349 . S
C1146 H1140 0.950 . S
C1146 C1147 1.327 . S
C1147 H1141 0.950 . S
C1147 C1146 1.327 . S
C1147 C1151 1.429 . S
C1148 C1131 1.574 . S
C1148 H1142 0.949 . S
C1148 C1152 1.368 . S
C1149 C1130 1.429 . S
C1149 C1143 1.429 . S
C1149 C1150 1.523 . S
C1150 C1131 1.368 . S
C1150 C1144 1.368 . S
C1150 C1149 1.523 . S
C1151 C1135 1.429 . S
C1151 C1147 1.429 . S
C1151 C1152 1.523 . S
C1152 C1136 1.368 . S
C1152 C1148 1.368 . S
C1152 C1151 1.523 . S
H1153 C1128 0.950 . S
H1154 C1130 0.950 . S
H1155 C1131 0.949 . S
H1156 C1133 0.950 . S
H1157 C1135 0.950 . S
C1158 C1159 1.349 . S
C1158 C1160 1.327 . S
C1158 H1183 0.950 . S
C1159 C1158 1.349 . S
C1159 C1175 1.349 . S
C1160 C1158 1.327 . S
C1160 C1179 1.429 . S
C1160 H1184 0.950 . S
C1161 C1178 1.574 . S
C1161 C1180 1.368 . S
C1161 H1185 0.949 . S
H1162 C1166 0.949 . S
C1163 C1164 1.349 . S
C1163 C1165 1.327 . S
C1163 H1186 0.950 . S
C1164 C1163 1.349 . S
C1164 C1176 1.349 . S
C1165 C1163 1.327 . S
C1165 C1181 1.429 . S
C1165 H1187 0.950 . S
C1166 H1162 0.949 . S
C1166 C1174 1.574 . S
C1166 C1182 1.368 . S
H1167 C1175 0.950 . S
H1168 C1173 0.950 . S
H1169 C1174 0.949 . S
H1170 C1176 0.950 . S
H1171 C1177 0.950 . S
H1172 C1178 0.949 . S
C1173 H1168 0.950 . S
C1173 C1175 1.327 . S
C1173 C1179 1.429 . S
C1174 C1166 1.574 . S
C1174 H1169 0.949 . S
C1174 C1180 1.368 . S
C1175 C1159 1.349 . S
C1175 H1167 0.950 . S
C1175 C1173 1.327 . S
C1176 C1164 1.349 . S
C1176 H1170 0.950 . S
C1176 C1177 1.327 . S
C1177 H1171 0.950 . S
C1177 C1176 1.327 . S
C1177 C1181 1.429 . S
C1178 C1161 1.574 . S
C1178 H1172 0.949 . S
C1178 C1182 1.368 . S
C1179 C1160 1.429 . S
C1179 C1173 1.429 . S
C1179 C1180 1.523 . S
C1180 C1161 1.368 . S
C1180 C1174 1.368 . S
C1180 C1179 1.523 . S
C1181 C1165 1.429 . S
C1181 C1177 1.429 . S
C1181 C1182 1.523 . S
C1182 C1166 1.368 . S
C1182 C1178 1.368 . S
C1182 C1181 1.523 . S
H1183 C1158 0.950 . S
H1184 C1160 0.950 . S
H1185 C1161 0.949 . S
H1186 C1163 0.950 . S
H1187 C1165 0.950 . S
C1188 C1189 1.349 . S
C1188 C1190 1.327 . S
C1188 H1213 0.950 . S
C1189 C1188 1.349 . S
C1189 C1205 1.349 . S
C1190 C1188 1.327 . S
C1190 C1209 1.429 . S
C1190 H1214 0.950 . S
C1191 C1208 1.574 . S
C1191 C1210 1.368 . S
C1191 H1215 0.949 . S
H1192 C1196 0.949 . S
C1193 C1194 1.349 . S
C1193 C1195 1.327 . S
C1193 H1216 0.950 . S
C1194 C1193 1.349 . S
C1194 C1206 1.349 . S
C1195 C1193 1.327 . S
C1195 C1211 1.429 . S
C1195 H1217 0.950 . S
C1196 H1192 0.949 . S
C1196 C1204 1.574 . S
C1196 C1212 1.368 . S
H1197 C1205 0.950 . S
H1198 C1203 0.950 . S
H1199 C1204 0.949 . S
H1200 C1206 0.950 . S
H1201 C1207 0.950 . S
H1202 C1208 0.949 . S
C1203 H1198 0.950 . S
C1203 C1205 1.327 . S
C1203 C1209 1.429 . S
C1204 C1196 1.574 . S
C1204 H1199 0.949 . S
C1204 C1210 1.368 . S
C1205 C1189 1.349 . S
C1205 H1197 0.950 . S
C1205 C1203 1.327 . S
C1206 C1194 1.349 . S
C1206 H1200 0.950 . S
C1206 C1207 1.327 . S
C1207 H1201 0.950 . S
C1207 C1206 1.327 . S
C1207 C1211 1.429 . S
C1208 C1191 1.574 . S
C1208 H1202 0.949 . S
C1208 C1212 1.368 . S
C1209 C1190 1.429 . S
C1209 C1203 1.429 . S
C1209 C1210 1.523 . S
C1210 C1191 1.368 . S
C1210 C1204 1.368 . S
C1210 C1209 1.523 . S
C1211 C1195 1.429 . S
C1211 C1207 1.429 . S
C1211 C1212 1.523 . S
C1212 C1196 1.368 . S
C1212 C1208 1.368 . S
C1212 C1211 1.523 . S
H1213 C1188 0.950 . S
H1214 C1190 0.950 . S
H1215 C1191 0.949 . S
H1216 C1193 0.950 . S
H1217 C1195 0.950 . S
C1218 C1219 1.349 . S
C1218 C1220 1.327 . S
C1218 H1243 0.950 . S
C1219 C1218 1.349 . S
C1219 C1235 1.349 . S
C1220 C1218 1.327 . S
C1220 C1239 1.429 . S
C1220 H1244 0.950 . S
C1221 C1238 1.574 . S
C1221 C1240 1.368 . S
C1221 H1245 0.949 . S
H1222 C1226 0.949 . S
C1223 C1224 1.349 . S
C1223 C1225 1.327 . S
C1223 H1246 0.950 . S
C1224 C1223 1.349 . S
C1224 C1236 1.349 . S
C1225 C1223 1.327 . S
C1225 C1241 1.429 . S
C1225 H1247 0.950 . S
C1226 H1222 0.949 . S
C1226 C1234 1.574 . S
C1226 C1242 1.368 . S
H1227 C1235 0.950 . S
H1228 C1233 0.950 . S
H1229 C1234 0.949 . S
H1230 C1236 0.950 . S
H1231 C1237 0.950 . S
H1232 C1238 0.949 . S
C1233 H1228 0.950 . S
C1233 C1235 1.327 . S
C1233 C1239 1.429 . S
C1234 C1226 1.574 . S
C1234 H1229 0.949 . S
C1234 C1240 1.368 . S
C1235 C1219 1.349 . S
C1235 H1227 0.950 . S
C1235 C1233 1.327 . S
C1236 C1224 1.349 . S
C1236 H1230 0.950 . S
C1236 C1237 1.327 . S
C1237 H1231 0.950 . S
C1237 C1236 1.327 . S
C1237 C1241 1.429 . S
C1238 C1221 1.574 . S
C1238 H1232 0.949 . S
C1238 C1242 1.368 . S
C1239 C1220 1.429 . S
C1239 C1233 1.429 . S
C1239 C1240 1.523 . S
C1240 C1221 1.368 . S
C1240 C1234 1.368 . S
C1240 C1239 1.523 . S
C1241 C1225 1.429 . S
C1241 C1237 1.429 . S
C1241 C1242 1.523 . S
C1242 C1226 1.368 . S
C1242 C1238 1.368 . S
C1242 C1241 1.523 . S
H1243 C1218 0.950 . S
H1244 C1220 0.950 . S
H1245 C1221 0.949 . S
H1246 C1223 0.950 . S
H1247 C1225 0.950 . S
C1248 C1249 1.349 . S
C1248 C1250 1.327 . S
C1248 H1273 0.950 . S
C1249 C1248 1.349 . S
C1249 C1265 1.349 . S
C1250 C1248 1.327 . S
C1250 C1269 1.429 . S
C1250 H1274 0.950 . S
C1251 C1268 1.574 . S
C1251 C1270 1.368 . S
C1251 H1275 0.949 . S
H1252 C1256 0.949 . S
C1253 C1254 1.349 . S
C1253 C1255 1.327 . S
C1253 H1276 0.950 . S
C1254 C1253 1.349 . S
C1254 C1266 1.349 . S
C1255 C1253 1.327 . S
C1255 C1271 1.429 . S
C1255 H1277 0.950 . S
C1256 H1252 0.949 . S
C1256 C1264 1.574 . S
C1256 C1272 1.368 . S
H1257 C1265 0.950 . S
H1258 C1263 0.950 . S
H1259 C1264 0.949 . S
H1260 C1266 0.950 1_545 S
H1261 C1267 0.950 . S
H1262 C1268 0.949 . S
C1263 H1258 0.950 . S
C1263 C1265 1.327 . S
C1263 C1269 1.429 . S
C1264 C1256 1.574 . S
C1264 H1259 0.949 . S
C1264 C1270 1.368 . S
C1265 C1249 1.349 . S
C1265 H1257 0.950 . S
C1265 C1263 1.327 . S
C1266 C1254 1.349 . S
C1266 H1260 0.950 1_565 S
C1266 C1267 1.327 . S
C1267 H1261 0.950 . S
C1267 C1266 1.327 . S
C1267 C1271 1.429 . S
C1268 C1251 1.574 . S
C1268 H1262 0.949 . S
C1268 C1272 1.368 . S
C1269 C1250 1.429 . S
C1269 C1263 1.429 . S
C1269 C1270 1.523 . S
C1270 C1251 1.368 . S
C1270 C1264 1.368 . S
C1270 C1269 1.523 . S
C1271 C1255 1.429 . S
C1271 C1267 1.429 . S
C1271 C1272 1.523 . S
C1272 C1256 1.368 . S
C1272 C1268 1.368 . S
C1272 C1271 1.523 . S
H1273 C1248 0.950 . S
H1274 C1250 0.950 . S
H1275 C1251 0.949 . S
H1276 C1253 0.950 . S
H1277 C1255 0.950 . S
C1278 C1279 1.349 . S
C1278 C1280 1.327 . S
C1278 H1303 0.950 . S
C1279 C1278 1.349 . S
C1279 C1295 1.349 . S
C1280 C1278 1.327 . S
C1280 C1299 1.429 . S
C1280 H1304 0.950 . S
C1281 C1298 1.574 . S
C1281 C1300 1.368 . S
C1281 H1305 0.949 . S
H1282 C1286 0.949 . S
C1283 C1284 1.349 . S
C1283 C1285 1.327 . S
C1283 H1306 0.950 . S
C1284 C1283 1.349 . S
C1284 C1296 1.349 . S
C1285 C1283 1.327 . S
C1285 C1301 1.429 . S
C1285 H1307 0.950 . S
C1286 H1282 0.949 . S
C1286 C1294 1.574 . S
C1286 C1302 1.368 . S
H1287 C1295 0.950 . S
H1288 C1293 0.950 . S
H1289 C1294 0.949 . S
H1290 C1296 0.950 . S
H1291 C1297 0.950 . S
H1292 C1298 0.949 . S
C1293 H1288 0.950 . S
C1293 C1295 1.327 . S
C1293 C1299 1.429 . S
C1294 C1286 1.574 . S
C1294 H1289 0.949 . S
C1294 C1300 1.368 . S
C1295 C1279 1.349 . S
C1295 H1287 0.950 . S
C1295 C1293 1.327 . S
C1296 C1284 1.349 . S
C1296 H1290 0.950 . S
C1296 C1297 1.327 . S
C1297 H1291 0.950 . S
C1297 C1296 1.327 . S
C1297 C1301 1.429 . S
C1298 C1281 1.574 . S
C1298 H1292 0.949 . S
C1298 C1302 1.368 . S
C1299 C1280 1.429 . S
C1299 C1293 1.429 . S
C1299 C1300 1.523 . S
C1300 C1281 1.368 . S
C1300 C1294 1.368 . S
C1300 C1299 1.523 . S
C1301 C1285 1.429 . S
C1301 C1297 1.429 . S
C1301 C1302 1.523 . S
C1302 C1286 1.368 . S
C1302 C1298 1.368 . S
C1302 C1301 1.523 . S
H1303 C1278 0.950 . S
H1304 C1280 0.950 . S
H1305 C1281 0.949 . S
H1306 C1283 0.950 . S
H1307 C1285 0.950 . S
C1308 C1309 1.349 . S
C1308 C1310 1.327 . S
C1308 H1333 0.950 . S
C1309 C1308 1.349 . S
C1309 C1325 1.349 . S
C1310 C1308 1.327 . S
C1310 C1329 1.429 . S
C1310 H1334 0.950 . S
C1311 C1328 1.574 . S
C1311 C1330 1.368 . S
C1311 H1335 0.949 . S
H1312 C1316 0.949 . S
C1313 C1314 1.349 . S
C1313 C1315 1.327 . S
C1313 H1336 0.950 . S
C1314 C1313 1.349 . S
C1314 C1326 1.349 . S
C1315 C1313 1.327 . S
C1315 C1331 1.429 . S
C1315 H1337 0.950 . S
C1316 H1312 0.949 . S
C1316 C1324 1.574 . S
C1316 C1332 1.368 . S
H1317 C1325 0.950 . S
H1318 C1323 0.950 . S
H1319 C1324 0.949 . S
H1320 C1326 0.950 . S
H1321 C1327 0.950 . S
H1322 C1328 0.949 . S
C1323 H1318 0.950 . S
C1323 C1325 1.327 . S
C1323 C1329 1.429 . S
C1324 C1316 1.574 . S
C1324 H1319 0.949 . S
C1324 C1330 1.368 . S
C1325 C1309 1.349 . S
C1325 H1317 0.950 . S
C1325 C1323 1.327 . S
C1326 C1314 1.349 . S
C1326 H1320 0.950 . S
C1326 C1327 1.327 . S
C1327 H1321 0.950 . S
C1327 C1326 1.327 . S
C1327 C1331 1.429 . S
C1328 C1311 1.574 . S
C1328 H1322 0.949 . S
C1328 C1332 1.368 . S
C1329 C1310 1.429 . S
C1329 C1323 1.429 . S
C1329 C1330 1.523 . S
C1330 C1311 1.368 . S
C1330 C1324 1.368 . S
C1330 C1329 1.523 . S
C1331 C1315 1.429 . S
C1331 C1327 1.429 . S
C1331 C1332 1.523 . S
C1332 C1316 1.368 . S
C1332 C1328 1.368 . S
C1332 C1331 1.523 . S
H1333 C1308 0.950 . S
H1334 C1310 0.950 . S
H1335 C1311 0.949 . S
H1336 C1313 0.950 . S
H1337 C1315 0.950 . S
C1338 C1339 1.349 . S
C1338 C1340 1.327 . S
C1338 H1363 0.950 . S
C1339 C1338 1.349 . S
C1339 C1355 1.349 . S
C1340 C1338 1.327 . S
C1340 C1359 1.429 . S
C1340 H1364 0.950 . S
C1341 C1358 1.574 . S
C1341 C1360 1.368 . S
C1341 H1365 0.949 . S
H1342 C1346 0.949 . S
C1343 C1344 1.349 . S
C1343 C1345 1.327 . S
C1343 H1366 0.950 . S
C1344 C1343 1.349 . S
C1344 C1356 1.349 . S
C1345 C1343 1.327 . S
C1345 C1361 1.429 . S
C1345 H1367 0.950 . S
C1346 H1342 0.949 . S
C1346 C1354 1.574 . S
C1346 C1362 1.368 . S
H1347 C1355 0.950 . S
H1348 C1353 0.950 . S
H1349 C1354 0.949 . S
H1350 C1356 0.950 . S
H1351 C1357 0.950 . S
H1352 C1358 0.949 . S
C1353 H1348 0.950 . S
C1353 C1355 1.327 . S
C1353 C1359 1.429 . S
C1354 C1346 1.574 . S
C1354 H1349 0.949 . S
C1354 C1360 1.368 . S
C1355 C1339 1.349 . S
C1355 H1347 0.950 . S
C1355 C1353 1.327 . S
C1356 C1344 1.349 . S
C1356 H1350 0.950 . S
C1356 C1357 1.327 . S
C1357 H1351 0.950 . S
C1357 C1356 1.327 . S
C1357 C1361 1.429 . S
C1358 C1341 1.574 . S
C1358 H1352 0.949 . S
C1358 C1362 1.368 . S
C1359 C1340 1.429 . S
C1359 C1353 1.429 . S
C1359 C1360 1.523 . S
C1360 C1341 1.368 . S
C1360 C1354 1.368 . S
C1360 C1359 1.523 . S
C1361 C1345 1.429 . S
C1361 C1357 1.429 . S
C1361 C1362 1.523 . S
C1362 C1346 1.368 . S
C1362 C1358 1.368 . S
C1362 C1361 1.523 . S
H1363 C1338 0.950 . S
H1364 C1340 0.950 . S
H1365 C1341 0.949 . S
H1366 C1343 0.950 . S
H1367 C1345 0.950 . S
C1368 C1369 1.349 . S
C1368 C1370 1.327 . S
C1368 H1393 0.950 . S
C1369 C1368 1.349 . S
C1369 C1385 1.349 . S
C1370 C1368 1.327 . S
C1370 C1389 1.429 . S
C1370 H1394 0.950 . S
C1371 C1388 1.574 . S
C1371 C1390 1.368 . S
C1371 H1395 0.949 . S
H1372 C1376 0.949 . S
C1373 C1374 1.349 . S
C1373 C1375 1.327 . S
C1373 H1396 0.950 . S
C1374 C1373 1.349 . S
C1374 C1386 1.349 . S
C1375 C1373 1.327 . S
C1375 C1391 1.429 . S
C1375 H1397 0.950 . S
C1376 H1372 0.949 . S
C1376 C1384 1.574 . S
C1376 C1392 1.368 . S
H1377 C1385 0.950 . S
H1378 C1383 0.950 . S
H1379 C1384 0.949 . S
H1380 C1386 0.950 . S
H1381 C1387 0.950 . S
H1382 C1388 0.949 . S
C1383 H1378 0.950 . S
C1383 C1385 1.327 . S
C1383 C1389 1.429 . S
C1384 C1376 1.574 . S
C1384 H1379 0.949 . S
C1384 C1390 1.368 . S
C1385 C1369 1.349 . S
C1385 H1377 0.950 . S
C1385 C1383 1.327 . S
C1386 C1374 1.349 . S
C1386 H1380 0.950 . S
C1386 C1387 1.327 . S
C1387 H1381 0.950 . S
C1387 C1386 1.327 . S
C1387 C1391 1.429 . S
C1388 C1371 1.574 . S
C1388 H1382 0.949 . S
C1388 C1392 1.368 . S
C1389 C1370 1.429 . S
C1389 C1383 1.429 . S
C1389 C1390 1.523 . S
C1390 C1371 1.368 . S
C1390 C1384 1.368 . S
C1390 C1389 1.523 . S
C1391 C1375 1.429 . S
C1391 C1387 1.429 . S
C1391 C1392 1.523 . S
C1392 C1376 1.368 . S
C1392 C1388 1.368 . S
C1392 C1391 1.523 . S
H1393 C1368 0.950 . S
H1394 C1370 0.950 . S
H1395 C1371 0.949 . S
H1396 C1373 0.950 . S
H1397 C1375 0.950 . S
C1398 C1399 1.349 . S
C1398 C1400 1.327 . S
C1398 H1423 0.950 . S
C1399 C1398 1.349 . S
C1399 C1415 1.349 . S
C1400 C1398 1.327 . S
C1400 C1419 1.429 . S
C1400 H1424 0.950 . S
C1401 C1418 1.574 . S
C1401 C1420 1.368 . S
C1401 H1425 0.949 . S
H1402 C1406 0.949 . S
C1403 C1404 1.349 . S
C1403 C1405 1.327 . S
C1403 H1426 0.950 . S
C1404 C1403 1.349 . S
C1404 C1416 1.349 . S
C1405 C1403 1.327 . S
C1405 C1421 1.429 . S
C1405 H1427 0.950 . S
C1406 H1402 0.949 . S
C1406 C1414 1.574 . S
C1406 C1422 1.368 . S
H1407 C1415 0.950 . S
H1408 C1413 0.950 . S
H1409 C1414 0.949 . S
H1410 C1416 0.950 . S
H1411 C1417 0.950 . S
H1412 C1418 0.949 . S
C1413 H1408 0.950 . S
C1413 C1415 1.327 . S
C1413 C1419 1.429 . S
C1414 C1406 1.574 . S
C1414 H1409 0.949 . S
C1414 C1420 1.368 . S
C1415 C1399 1.349 . S
C1415 H1407 0.950 . S
C1415 C1413 1.327 . S
C1416 C1404 1.349 . S
C1416 H1410 0.950 . S
C1416 C1417 1.327 . S
C1417 H1411 0.950 . S
C1417 C1416 1.327 . S
C1417 C1421 1.429 . S
C1418 C1401 1.574 . S
C1418 H1412 0.949 . S
C1418 C1422 1.368 . S
C1419 C1400 1.429 . S
C1419 C1413 1.429 . S
C1419 C1420 1.523 . S
C1420 C1401 1.368 . S
C1420 C1414 1.368 . S
C1420 C1419 1.523 . S
C1421 C1405 1.429 . S
C1421 C1417 1.429 . S
C1421 C1422 1.523 . S
C1422 C1406 1.368 . S
C1422 C1418 1.368 . S
C1422 C1421 1.523 . S
H1423 C1398 0.950 . S
H1424 C1400 0.950 . S
H1425 C1401 0.949 . S
H1426 C1403 0.950 . S
H1427 C1405 0.950 . S
C1428 C1429 1.349 . S
C1428 C1430 1.327 . S
C1428 H1453 0.950 . S
C1429 C1428 1.349 . S
C1429 C1445 1.349 . S
C1430 C1428 1.327 . S
C1430 C1449 1.429 . S
C1430 H1454 0.950 . S
C1431 C1448 1.574 . S
C1431 C1450 1.368 . S
C1431 H1455 0.949 . S
H1432 C1436 0.949 . S
C1433 C1434 1.349 . S
C1433 C1435 1.327 . S
C1433 H1456 0.950 . S
C1434 C1433 1.349 . S
C1434 C1446 1.349 . S
C1435 C1433 1.327 . S
C1435 C1451 1.429 . S
C1435 H1457 0.950 . S
C1436 H1432 0.949 . S
C1436 C1444 1.574 . S
C1436 C1452 1.368 . S
H1437 C1445 0.950 . S
H1438 C1443 0.950 . S
H1439 C1444 0.949 . S
H1440 C1446 0.950 . S
H1441 C1447 0.950 . S
H1442 C1448 0.949 . S
C1443 H1438 0.950 . S
C1443 C1445 1.327 . S
C1443 C1449 1.429 . S
C1444 C1436 1.574 . S
C1444 H1439 0.949 . S
C1444 C1450 1.368 . S
C1445 C1429 1.349 . S
C1445 H1437 0.950 . S
C1445 C1443 1.327 . S
C1446 C1434 1.349 . S
C1446 H1440 0.950 . S
C1446 C1447 1.327 . S
C1447 H1441 0.950 . S
C1447 C1446 1.327 . S
C1447 C1451 1.429 . S
C1448 C1431 1.574 . S
C1448 H1442 0.949 . S
C1448 C1452 1.368 . S
C1449 C1430 1.429 . S
C1449 C1443 1.429 . S
C1449 C1450 1.523 . S
C1450 C1431 1.368 . S
C1450 C1444 1.368 . S
C1450 C1449 1.523 . S
C1451 C1435 1.429 . S
C1451 C1447 1.429 . S
C1451 C1452 1.523 . S
C1452 C1436 1.368 . S
C1452 C1448 1.368 . S
C1452 C1451 1.523 . S
H1453 C1428 0.950 . S
H1454 C1430 0.950 . S
H1455 C1431 0.949 . S
H1456 C1433 0.950 . S
H1457 C1435 0.950 . S
C1458 C1459 1.349 . S
C1458 C1460 1.327 . S
C1458 H1483 0.950 . S
C1459 C1458 1.349 . S
C1459 C1475 1.349 . S
C1460 C1458 1.327 . S
C1460 C1479 1.429 . S
C1460 H1484 0.950 . S
C1461 C1478 1.574 . S
C1461 C1480 1.368 . S
C1461 H1485 0.949 . S
H1462 C1466 0.949 . S
C1463 C1464 1.349 . S
C1463 C1465 1.327 . S
C1463 H1486 0.950 . S
C1464 C1463 1.349 . S
C1464 C1476 1.349 . S
C1465 C1463 1.327 . S
C1465 C1481 1.429 . S
C1465 H1487 0.950 . S
C1466 H1462 0.949 . S
C1466 C1474 1.574 . S
C1466 C1482 1.368 . S
H1467 C1475 0.950 . S
H1468 C1473 0.950 . S
H1469 C1474 0.949 . S
H1470 C1476 0.950 . S
H1471 C1477 0.950 . S
H1472 C1478 0.949 . S
C1473 H1468 0.950 . S
C1473 C1475 1.327 . S
C1473 C1479 1.429 . S
C1474 C1466 1.574 . S
C1474 H1469 0.949 . S
C1474 C1480 1.368 . S
C1475 C1459 1.349 . S
C1475 H1467 0.950 . S
C1475 C1473 1.327 . S
C1476 C1464 1.349 . S
C1476 H1470 0.950 . S
C1476 C1477 1.327 . S
C1477 H1471 0.950 . S
C1477 C1476 1.327 . S
C1477 C1481 1.429 . S
C1478 C1461 1.574 . S
C1478 H1472 0.949 . S
C1478 C1482 1.368 . S
C1479 C1460 1.429 . S
C1479 C1473 1.429 . S
C1479 C1480 1.523 . S
C1480 C1461 1.368 . S
C1480 C1474 1.368 . S
C1480 C1479 1.523 . S
C1481 C1465 1.429 . S
C1481 C1477 1.429 . S
C1481 C1482 1.523 . S
C1482 C1466 1.368 . S
C1482 C1478 1.368 . S
C1482 C1481 1.523 . S
H1483 C1458 0.950 . S
H1484 C1460 0.950 . S
H1485 C1461 0.949 . S
H1486 C1463 0.950 . S
H1487 C1465 0.950 . S
C1488 C1489 1.349 . S
C1488 C1490 1.327 . S
C1488 H1513 0.950 . S
C1489 C1488 1.349 . S
C1489 C1505 1.349 1_545 S
C1490 C1488 1.327 . S
C1490 C1509 1.429 . S
C1490 H1514 0.950 . S
C1491 C1508 1.574 . S
C1491 C1510 1.368 1_565 S
C1491 H1515 0.949 . S
H1492 C1496 0.949 . S
C1493 C1494 1.349 1_565 S
C1493 C1495 1.327 . S
C1493 H1516 0.950 . S
C1494 C1493 1.349 1_545 S
C1494 C1506 1.349 . S
C1495 C1493 1.327 . S
C1495 C1511 1.429 1_565 S
C1495 H1517 0.950 . S
C1496 H1492 0.949 . S
C1496 C1504 1.574 . S
C1496 C1512 1.368 . S
H1497 C1505 0.950 . S
H1498 C1503 0.950 . S
H1499 C1504 0.949 . S
H1500 C1506 0.950 . S
H1501 C1507 0.950 . S
H1502 C1508 0.949 . S
C1503 H1498 0.950 . S
C1503 C1505 1.327 . S
C1503 C1509 1.429 1_565 S
C1504 C1496 1.574 . S
C1504 H1499 0.949 . S
C1504 C1510 1.368 . S
C1505 C1489 1.349 1_565 S
C1505 H1497 0.950 . S
C1505 C1503 1.327 . S
C1506 C1494 1.349 . S
C1506 H1500 0.950 . S
C1506 C1507 1.327 . S
C1507 H1501 0.950 . S
C1507 C1506 1.327 . S
C1507 C1511 1.429 . S
C1508 C1491 1.574 . S
C1508 H1502 0.949 . S
C1508 C1512 1.368 1_565 S
C1509 C1490 1.429 . S
C1509 C1503 1.429 1_545 S
C1509 C1510 1.523 . S
C1510 C1491 1.368 1_545 S
C1510 C1504 1.368 . S
C1510 C1509 1.523 . S
C1511 C1495 1.429 1_545 S
C1511 C1507 1.429 . S
C1511 C1512 1.523 . S
C1512 C1496 1.368 . S
C1512 C1508 1.368 1_545 S
C1512 C1511 1.523 . S
H1513 C1488 0.950 . S
H1514 C1490 0.950 . S
H1515 C1491 0.949 . S
H1516 C1493 0.950 . S
H1517 C1495 0.950 . S
C1518 C1519 1.349 . S
C1518 C1520 1.327 . S
C1518 H1543 0.950 . S
C1519 C1518 1.349 . S
C1519 C1535 1.349 . S
C1520 C1518 1.327 . S
C1520 C1539 1.429 . S
C1520 H1544 0.950 . S
C1521 C1538 1.574 . S
C1521 C1540 1.368 . S
C1521 H1545 0.949 . S
H1522 C1526 0.949 . S
C1523 C1524 1.349 . S
C1523 C1525 1.327 . S
C1523 H1546 0.950 . S
C1524 C1523 1.349 . S
C1524 C1536 1.349 . S
C1525 C1523 1.327 . S
C1525 C1541 1.429 . S
C1525 H1547 0.950 . S
C1526 H1522 0.949 . S
C1526 C1534 1.574 . S
C1526 C1542 1.368 . S
H1527 C1535 0.950 . S
H1528 C1533 0.950 . S
H1529 C1534 0.949 . S
H1530 C1536 0.950 . S
H1531 C1537 0.950 . S
H1532 C1538 0.949 . S
C1533 H1528 0.950 . S
C1533 C1535 1.327 . S
C1533 C1539 1.429 . S
C1534 C1526 1.574 . S
C1534 H1529 0.949 . S
C1534 C1540 1.368 . S
C1535 C1519 1.349 . S
C1535 H1527 0.950 . S
C1535 C1533 1.327 . S
C1536 C1524 1.349 . S
C1536 H1530 0.950 . S
C1536 C1537 1.327 . S
C1537 H1531 0.950 . S
C1537 C1536 1.327 . S
C1537 C1541 1.429 . S
C1538 C1521 1.574 . S
C1538 H1532 0.949 . S
C1538 C1542 1.368 . S
C1539 C1520 1.429 . S
C1539 C1533 1.429 . S
C1539 C1540 1.523 . S
C1540 C1521 1.368 . S
C1540 C1534 1.368 . S
C1540 C1539 1.523 . S
C1541 C1525 1.429 . S
C1541 C1537 1.429 . S
C1541 C1542 1.523 . S
C1542 C1526 1.368 . S
C1542 C1538 1.368 . S
C1542 C1541 1.523 . S
H1543 C1518 0.950 . S
H1544 C1520 0.950 . S
H1545 C1521 0.949 . S
H1546 C1523 0.950 . S
H1547 C1525 0.950 . S
C1548 C1549 1.349 . S
C1548 C1550 1.327 . S
C1548 H1573 0.950 . S
C1549 C1548 1.349 . S
C1549 C1565 1.349 . S
C1550 C1548 1.327 . S
C1550 C1569 1.429 . S
C1550 H1574 0.950 . S
C1551 C1568 1.574 . S
C1551 C1570 1.368 . S
C1551 H1575 0.949 . S
H1552 C1556 0.949 . S
C1553 C1554 1.349 . S
C1553 C1555 1.327 . S
C1553 H1576 0.950 . S
C1554 C1553 1.349 . S
C1554 C1566 1.349 . S
C1555 C1553 1.327 . S
C1555 C1571 1.429 . S
C1555 H1577 0.950 . S
C1556 H1552 0.949 . S
C1556 C1564 1.574 . S
C1556 C1572 1.368 . S
H1557 C1565 0.950 . S
H1558 C1563 0.950 . S
H1559 C1564 0.949 . S
H1560 C1566 0.950 . S
H1561 C1567 0.950 . S
H1562 C1568 0.949 . S
C1563 H1558 0.950 . S
C1563 C1565 1.327 . S
C1563 C1569 1.429 . S
C1564 C1556 1.574 . S
C1564 H1559 0.949 . S
C1564 C1570 1.368 . S
C1565 C1549 1.349 . S
C1565 H1557 0.950 . S
C1565 C1563 1.327 . S
C1566 C1554 1.349 . S
C1566 H1560 0.950 . S
C1566 C1567 1.327 . S
C1567 H1561 0.950 . S
C1567 C1566 1.327 . S
C1567 C1571 1.429 . S
C1568 C1551 1.574 . S
C1568 H1562 0.949 . S
C1568 C1572 1.368 . S
C1569 C1550 1.429 . S
C1569 C1563 1.429 . S
C1569 C1570 1.523 . S
C1570 C1551 1.368 . S
C1570 C1564 1.368 . S
C1570 C1569 1.523 . S
C1571 C1555 1.429 . S
C1571 C1567 1.429 . S
C1571 C1572 1.523 . S
C1572 C1556 1.368 . S
C1572 C1568 1.368 . S
C1572 C1571 1.523 . S
H1573 C1548 0.950 . S
H1574 C1550 0.950 . S
H1575 C1551 0.949 . S
H1576 C1553 0.950 . S
H1577 C1555 0.950 . S
C1578 C1579 1.349 . S
C1578 C1580 1.327 . S
C1578 H1603 0.950 . S
C1579 C1578 1.349 . S
C1579 C1595 1.349 1_455 S
C1580 C1578 1.327 . S
C1580 C1599 1.429 . S
C1580 H1604 0.950 . S
C1581 C1598 1.574 . S
C1581 C1600 1.368 1_655 S
C1581 H1605 0.949 . S
H1582 C1586 0.949 . S
C1583 C1584 1.349 1_655 S
C1583 C1585 1.327 . S
C1583 H1606 0.950 . S
C1584 C1583 1.349 1_455 S
C1584 C1596 1.349 . S
C1585 C1583 1.327 . S
C1585 C1601 1.429 1_655 S
C1585 H1607 0.950 . S
C1586 H1582 0.949 . S
C1586 C1594 1.574 . S
C1586 C1602 1.368 . S
H1587 C1595 0.950 . S
H1588 C1593 0.950 . S
H1589 C1594 0.949 . S
H1590 C1596 0.950 . S
H1591 C1597 0.950 . S
H1592 C1598 0.949 . S
C1593 H1588 0.950 . S
C1593 C1595 1.327 . S
C1593 C1599 1.429 1_655 S
C1594 C1586 1.574 . S
C1594 H1589 0.949 . S
C1594 C1600 1.368 . S
C1595 C1579 1.349 1_655 S
C1595 H1587 0.950 . S
C1595 C1593 1.327 . S
C1596 C1584 1.349 . S
C1596 H1590 0.950 . S
C1596 C1597 1.327 . S
C1597 H1591 0.950 . S
C1597 C1596 1.327 . S
C1597 C1601 1.429 . S
C1598 C1581 1.574 . S
C1598 H1592 0.949 . S
C1598 C1602 1.368 1_655 S
C1599 C1580 1.429 . S
C1599 C1593 1.429 1_455 S
C1599 C1600 1.523 . S
C1600 C1581 1.368 1_455 S
C1600 C1594 1.368 . S
C1600 C1599 1.523 . S
C1601 C1585 1.429 1_455 S
C1601 C1597 1.429 . S
C1601 C1602 1.523 . S
C1602 C1586 1.368 . S
C1602 C1598 1.368 1_455 S
C1602 C1601 1.523 . S
H1603 C1578 0.950 . S
H1604 C1580 0.950 . S
H1605 C1581 0.949 . S
H1606 C1583 0.950 . S
H1607 C1585 0.950 . S
C1608 C1609 1.349 . S
C1608 C1610 1.327 . S
C1608 H1633 0.950 . S
C1609 C1608 1.349 . S
C1609 C1625 1.349 1_565 S
C1610 C1608 1.327 . S
C1610 C1629 1.429 . S
C1610 H1634 0.950 . S
C1611 C1628 1.574 . S
C1611 C1630 1.368 1_545 S
C1611 H1635 0.949 . S
H1612 C1616 0.949 . S
C1613 C1614 1.349 1_545 S
C1613 C1615 1.327 . S
C1613 H1636 0.950 . S
C1614 C1613 1.349 1_565 S
C1614 C1626 1.349 . S
C1615 C1613 1.327 . S
C1615 C1631 1.429 1_545 S
C1615 H1637 0.950 . S
C1616 H1612 0.949 . S
C1616 C1624 1.574 . S
C1616 C1632 1.368 . S
H1617 C1625 0.950 . S
H1618 C1623 0.950 . S
H1619 C1624 0.949 . S
H1620 C1626 0.950 . S
H1621 C1627 0.950 . S
H1622 C1628 0.949 . S
C1623 H1618 0.950 . S
C1623 C1625 1.327 . S
C1623 C1629 1.429 1_545 S
C1624 C1616 1.574 . S
C1624 H1619 0.949 . S
C1624 C1630 1.368 . S
C1625 C1609 1.349 1_545 S
C1625 H1617 0.950 . S
C1625 C1623 1.327 . S
C1626 C1614 1.349 . S
C1626 H1620 0.950 . S
C1626 C1627 1.327 . S
C1627 H1621 0.950 . S
C1627 C1626 1.327 . S
C1627 C1631 1.429 . S
C1628 C1611 1.574 . S
C1628 H1622 0.949 . S
C1628 C1632 1.368 1_545 S
C1629 C1610 1.429 . S
C1629 C1623 1.429 1_565 S
C1629 C1630 1.523 . S
C1630 C1611 1.368 1_565 S
C1630 C1624 1.368 . S
C1630 C1629 1.523 . S
C1631 C1615 1.429 1_565 S
C1631 C1627 1.429 . S
C1631 C1632 1.523 . S
C1632 C1616 1.368 . S
C1632 C1628 1.368 1_565 S
C1632 C1631 1.523 . S
H1633 C1608 0.950 . S
H1634 C1610 0.950 . S
H1635 C1611 0.949 . S
H1636 C1613 0.950 . S
H1637 C1615 0.950 . S
C1638 C1639 1.349 . S
C1638 C1640 1.327 . S
C1638 H1663 0.950 . S
C1639 C1638 1.349 . S
C1639 C1655 1.349 . S
C1640 C1638 1.327 . S
C1640 C1659 1.429 . S
C1640 H1664 0.950 . S
C1641 C1658 1.574 . S
C1641 C1660 1.368 . S
C1641 H1665 0.949 . S
H1642 C1646 0.949 . S
C1643 C1644 1.349 . S
C1643 C1645 1.327 . S
C1643 H1666 0.950 . S
C1644 C1643 1.349 . S
C1644 C1656 1.349 . S
C1645 C1643 1.327 . S
C1645 C1661 1.429 . S
C1645 H1667 0.950 . S
C1646 H1642 0.949 . S
C1646 C1654 1.574 . S
C1646 C1662 1.368 . S
H1647 C1655 0.950 . S
H1648 C1653 0.950 . S
H1649 C1654 0.949 . S
H1650 C1656 0.950 . S
H1651 C1657 0.950 . S
H1652 C1658 0.949 . S
C1653 H1648 0.950 . S
C1653 C1655 1.327 . S
C1653 C1659 1.429 . S
C1654 C1646 1.574 . S
C1654 H1649 0.949 . S
C1654 C1660 1.368 . S
C1655 C1639 1.349 . S
C1655 H1647 0.950 . S
C1655 C1653 1.327 . S
C1656 C1644 1.349 . S
C1656 H1650 0.950 . S
C1656 C1657 1.327 . S
C1657 H1651 0.950 . S
C1657 C1656 1.327 . S
C1657 C1661 1.429 . S
C1658 C1641 1.574 . S
C1658 H1652 0.949 . S
C1658 C1662 1.368 . S
C1659 C1640 1.429 . S
C1659 C1653 1.429 . S
C1659 C1660 1.523 . S
C1660 C1641 1.368 . S
C1660 C1654 1.368 . S
C1660 C1659 1.523 . S
C1661 C1645 1.429 . S
C1661 C1657 1.429 . S
C1661 C1662 1.523 . S
C1662 C1646 1.368 . S
C1662 C1658 1.368 . S
C1662 C1661 1.523 . S
H1663 C1638 0.950 . S
H1664 C1640 0.950 . S
H1665 C1641 0.949 . S
H1666 C1643 0.950 . S
H1667 C1645 0.950 . S
C1668 C1669 1.349 . S
C1668 C1670 1.327 . S
C1668 H1693 0.950 . S
C1669 C1668 1.349 . S
C1669 C1685 1.349 . S
C1670 C1668 1.327 . S
C1670 C1689 1.429 . S
C1670 H1694 0.950 . S
C1671 C1688 1.574 . S
C1671 C1690 1.368 . S
C1671 H1695 0.949 . S
H1672 C1676 0.949 . S
C1673 C1674 1.349 . S
C1673 C1675 1.327 . S
C1673 H1696 0.950 . S
C1674 C1673 1.349 . S
C1674 C1686 1.349 . S
C1675 C1673 1.327 . S
C1675 C1691 1.429 . S
C1675 H1697 0.950 . S
C1676 H1672 0.949 . S
C1676 C1684 1.574 . S
C1676 C1692 1.368 . S
H1677 C1685 0.950 . S
H1678 C1683 0.950 . S
H1679 C1684 0.949 . S
H1680 C1686 0.950 . S
H1681 C1687 0.950 . S
H1682 C1688 0.949 . S
C1683 H1678 0.950 . S
C1683 C1685 1.327 . S
C1683 C1689 1.429 . S
C1684 C1676 1.574 . S
C1684 H1679 0.949 . S
C1684 C1690 1.368 . S
C1685 C1669 1.349 . S
C1685 H1677 0.950 . S
C1685 C1683 1.327 . S
C1686 C1674 1.349 . S
C1686 H1680 0.950 . S
C1686 C1687 1.327 . S
C1687 H1681 0.950 . S
C1687 C1686 1.327 . S
C1687 C1691 1.429 . S
C1688 C1671 1.574 . S
C1688 H1682 0.949 . S
C1688 C1692 1.368 . S
C1689 C1670 1.429 . S
C1689 C1683 1.429 . S
C1689 C1690 1.523 . S
C1690 C1671 1.368 . S
C1690 C1684 1.368 . S
C1690 C1689 1.523 . S
C1691 C1675 1.429 . S
C1691 C1687 1.429 . S
C1691 C1692 1.523 . S
C1692 C1676 1.368 . S
C1692 C1688 1.368 . S
C1692 C1691 1.523 . S
H1693 C1668 0.950 . S
H1694 C1670 0.950 . S
H1695 C1671 0.949 . S
H1696 C1673 0.950 . S
H1697 C1675 0.950 . S
C1698 C1699 1.349 . S
C1698 C1700 1.327 . S
C1698 H1723 0.950 . S
C1699 C1698 1.349 . S
C1699 C1715 1.349 1_655 S
C1700 C1698 1.327 . S
C1700 C1719 1.429 . S
C1700 H1724 0.950 . S
C1701 C1718 1.574 . S
C1701 C1720 1.368 1_455 S
C1701 H1725 0.949 . S
H1702 C1706 0.949 . S
C1703 C1704 1.349 1_455 S
C1703 C1705 1.327 . S
C1703 H1726 0.950 . S
C1704 C1703 1.349 1_655 S
C1704 C1716 1.349 . S
C1705 C1703 1.327 . S
C1705 C1721 1.429 1_455 S
C1705 H1727 0.950 . S
C1706 H1702 0.949 . S
C1706 C1714 1.574 . S
C1706 C1722 1.368 . S
H1707 C1715 0.950 . S
H1708 C1713 0.950 . S
H1709 C1714 0.949 . S
H1710 C1716 0.950 . S
H1711 C1717 0.950 . S
H1712 C1718 0.949 . S
C1713 H1708 0.950 . S
C1713 C1715 1.327 . S
C1713 C1719 1.429 1_455 S
C1714 C1706 1.574 . S
C1714 H1709 0.949 . S
C1714 C1720 1.368 . S
C1715 C1699 1.349 1_455 S
C1715 H1707 0.950 . S
C1715 C1713 1.327 . S
C1716 C1704 1.349 . S
C1716 H1710 0.950 . S
C1716 C1717 1.327 . S
C1717 H1711 0.950 . S
C1717 C1716 1.327 . S
C1717 C1721 1.429 . S
C1718 C1701 1.574 . S
C1718 H1712 0.949 . S
C1718 C1722 1.368 1_455 S
C1719 C1700 1.429 . S
C1719 C1713 1.429 1_655 S
C1719 C1720 1.523 . S
C1720 C1701 1.368 1_655 S
C1720 C1714 1.368 . S
C1720 C1719 1.523 . S
C1721 C1705 1.429 1_655 S
C1721 C1717 1.429 . S
C1721 C1722 1.523 . S
C1722 C1706 1.368 . S
C1722 C1718 1.368 1_655 S
C1722 C1721 1.523 . S
H1723 C1698 0.950 . S
H1724 C1700 0.950 . S
H1725 C1701 0.949 . S
H1726 C1703 0.950 . S
H1727 C1705 0.950 . S
C529 C282 0.566 1_545 S
C534 C18 0.566 1_565 S
C559 C51 0.566 . S
C564 C315 0.566 . S
C589 C348 0.566 . S
C594 C84 0.566 . S
C619 C381 0.566 1_455 S
C624 C117 0.566 1_655 S
C649 C150 0.566 1_545 S
C654 C414 0.566 1_565 S
C679 C183 0.566 . S
C684 C447 0.566 . S
C709 C216 0.566 . S
C714 C480 0.566 . S
C739 C249 0.566 1_455 S
C744 C513 0.566 1_655 S
C769 C7 1.688 . S
C774 N508 1.752 . S
C799 C40 1.688 . S
C804 N409 1.752 . S
C829 C73 1.688 . S
C834 N442 1.752 . S
C859 N475 1.752 . S
C864 C106 1.688 . S
C889 C139 1.688 . S
C894 N310 1.752 . S
C919 C172 1.688 . S
C924 N343 1.752 . S
C949 N376 1.752 . S
C954 C205 1.688 . S
C979 C238 1.688 . S
C984 N277 1.752 . S
C1009 N244 1.752 . S
C1014 C271 1.688 . S
C1039 N145 1.752 . S
C1044 C304 1.688 . S
C1069 N178 1.752 . S
C1074 C337 1.688 . S
C1099 C370 1.688 . S
C1104 N211 1.752 . S
C1129 N46 1.752 . S
C1134 C403 1.688 . S
C1159 C436 1.688 . S
C1164 N79 1.752 . S
C1189 N112 1.752 . S
C1194 C469 1.688 . S
C1219 N13 1.752 . S
C1224 C502 1.688 . S
C1249 N233 0.625 . S
C1254 N2 0.625 . S
C1279 N134 0.625 . S
C1284 N35 0.625 . S
C1309 N68 0.625 . S
C1314 N167 0.625 . S
C1339 N200 0.625 . S
C1344 N101 0.625 . S
C1369 N497 0.625 . S
C1374 N266 0.625 . S
C1399 N299 0.625 . S
C1404 N398 0.625 . S
C1429 N332 0.625 . S
C1434 N431 0.625 . S
C1459 N365 0.625 . S
C1464 N464 0.625 . S
C1489 C21 0.896 . S
C1494 C417 0.896 . S
C1519 C54 0.896 . S
C1524 C450 0.896 . S
C1549 C87 0.896 . S
C1554 C483 0.896 . S
C1579 C120 0.896 . S
C1584 C516 0.896 . S
C1609 C153 0.896 . S
C1614 C285 0.896 . S
C1639 C186 0.896 . S
C1644 C318 0.896 . S
C1669 C219 0.896 . S
C1674 C351 0.896 . S
C1699 C384 0.896 . S
C1704 C252 0.896 . S
