# Generated by pormake.
# Topology wke, (5)-cn, num edge types: 1
# Building blocks:
#     Node 0, Type 0, BuildingBlock: XOMCOT_clean_sbu_1, # of connection points: 5
#     Node 1, Type 0, BuildingBlock: XOMCOT_clean_sbu_1, # of connection points: 5
#     Node 2, Type 0, BuildingBlock: XOMCOT_clean_sbu_1, # of connection points: 5
#     Node 3, Type 0, BuildingBlock: XOMCOT_clean_sbu_1, # of connection points: 5
#     Node 4, Type 0, BuildingBlock: XOMCOT_clean_sbu_1, # of connection points: 5
#     Node 5, Type 0, BuildingBlock: XOMCOT_clean_sbu_1, # of connection points: 5
#     Node 6, Type 0, BuildingBlock: XOMCOT_clean_sbu_1, # of connection points: 5
#     Node 7, Type 0, BuildingBlock: XOMCOT_clean_sbu_1, # of connection points: 5
#     Node 8, Type 0, BuildingBlock: XOMCOT_clean_sbu_1, # of connection points: 5
#     Node 9, Type 0, BuildingBlock: XOMCOT_clean_sbu_1, # of connection points: 5
#     Node 10, Type 0, BuildingBlock: XOMCOT_clean_sbu_1, # of connection points: 5
#     Node 11, Type 0, BuildingBlock: XOMCOT_clean_sbu_1, # of connection points: 5
#     Edge 12, Type (0, 0), BuildingBlock: AJUNOK_clean_linker_0, # of connection points: 2
#     Edge 13, Type (0, 0), BuildingBlock: AJUNOK_clean_linker_0, # of connection points: 2
#     Edge 14, Type (0, 0), BuildingBlock: AJUNOK_clean_linker_0, # of connection points: 2
#     Edge 15, Type (0, 0), BuildingBlock: AJUNOK_clean_linker_0, # of connection points: 2
#     Edge 16, Type (0, 0), BuildingBlock: AJUNOK_clean_linker_0, # of connection points: 2
#     Edge 17, Type (0, 0), BuildingBlock: AJUNOK_clean_linker_0, # of connection points: 2
#     Edge 18, Type (0, 0), BuildingBlock: AJUNOK_clean_linker_0, # of connection points: 2
#     Edge 19, Type (0, 0), BuildingBlock: AJUNOK_clean_linker_0, # of connection points: 2
#     Edge 20, Type (0, 0), BuildingBlock: AJUNOK_clean_linker_0, # of connection points: 2
#     Edge 21, Type (0, 0), BuildingBlock: AJUNOK_clean_linker_0, # of connection points: 2
#     Edge 22, Type (0, 0), BuildingBlock: AJUNOK_clean_linker_0, # of connection points: 2
#     Edge 23, Type (0, 0), BuildingBlock: AJUNOK_clean_linker_0, # of connection points: 2
#     Edge 24, Type (0, 0), BuildingBlock: AJUNOK_clean_linker_0, # of connection points: 2
#     Edge 25, Type (0, 0), BuildingBlock: AJUNOK_clean_linker_0, # of connection points: 2
#     Edge 26, Type (0, 0), BuildingBlock: AJUNOK_clean_linker_0, # of connection points: 2
#     Edge 27, Type (0, 0), BuildingBlock: AJUNOK_clean_linker_0, # of connection points: 2
#     Edge 28, Type (0, 0), BuildingBlock: AJUNOK_clean_linker_0, # of connection points: 2
#     Edge 29, Type (0, 0), BuildingBlock: AJUNOK_clean_linker_0, # of connection points: 2
#     Edge 30, Type (0, 0), BuildingBlock: AJUNOK_clean_linker_0, # of connection points: 2
#     Edge 31, Type (0, 0), BuildingBlock: AJUNOK_clean_linker_0, # of connection points: 2
#     Edge 32, Type (0, 0), BuildingBlock: AJUNOK_clean_linker_0, # of connection points: 2
#     Edge 33, Type (0, 0), BuildingBlock: AJUNOK_clean_linker_0, # of connection points: 2
#     Edge 34, Type (0, 0), BuildingBlock: AJUNOK_clean_linker_0, # of connection points: 2
#     Edge 35, Type (0, 0), BuildingBlock: AJUNOK_clean_linker_0, # of connection points: 2
#     Edge 36, Type (0, 0), BuildingBlock: AJUNOK_clean_linker_0, # of connection points: 2
#     Edge 37, Type (0, 0), BuildingBlock: AJUNOK_clean_linker_0, # of connection points: 2
#     Edge 38, Type (0, 0), BuildingBlock: AJUNOK_clean_linker_0, # of connection points: 2
#     Edge 39, Type (0, 0), BuildingBlock: AJUNOK_clean_linker_0, # of connection points: 2
#     Edge 40, Type (0, 0), BuildingBlock: AJUNOK_clean_linker_0, # of connection points: 2
#     Edge 41, Type (0, 0), BuildingBlock: AJUNOK_clean_linker_0, # of connection points: 2
# Relax obj value: 0.165
# Max RMSD: 0.153
# Mean RMSD: 0.153
data_MOF--net-wke--node1-XOMCOT_clean_sbu_1--edge1-AJUNOK_clean_linker_0
_symmetry_space_group_name_H-M    P1
_symmetry_Int_Tables_number       1
_symmetry_cell_setting            triclinic
loop_
_symmetry_equiv_pos_as_xyz
'x, y, z'
_cell_length_a     53.528495
_cell_length_b     53.489311
_cell_length_c     13.426749
_cell_angle_alpha  90.012551
_cell_angle_beta   89.896835
_cell_angle_gamma 120.04061
loop_
_atom_site_label
_atom_site_type_symbol
_atom_site_fract_x
_atom_site_fract_y
_atom_site_fract_z
_atom_type_partial_charge
C0 C 0.16532 0.45302 0.48052 0.0
C1 C 0.16704 0.45554 0.58298 0.0
N2 N 0.14004 0.44149 0.62093 0.0
N3 N 0.13741 0.4373 0.45387 0.0
C4 C 0.12266 0.43097 0.54069 0.0
H5 H 0.18328 0.4613 0.42901 0.0
Co6 Co 0.12284 0.42458 0.32606 0.0
C7 C 0.05912 0.38517 0.36874 0.0
O8 O 0.05221 0.39445 0.28853 0.0
N9 N 0.10861 0.41157 0.19551 0.0
C10 C 0.08897 0.38298 0.06325 0.0
C11 C 0.09077 0.38405 0.16579 0.0
C12 C 0.11816 0.4265 0.10899 0.0
N13 N 0.10628 0.40977 0.02839 0.0
O14 O 0.13913 0.39919 0.3273 0.0
H15 H 0.08086 0.36559 0.21506 0.0
H16 H 0.13494 0.44879 0.10344 0.0
O17 O 0.08585 0.39451 0.38723 0.0
C18 C 0.16142 0.40941 0.27077 0.0
O19 O 0.16896 0.43345 0.22208 0.0
N20 N 0.11107 0.4525 0.32159 0.0
C21 C 0.10563 0.50183 0.30136 0.0
C22 C 0.08687 0.47884 0.36389 0.0
C23 C 0.09005 0.45438 0.3735 0.0
C24 C 0.13064 0.47553 0.26743 0.0
C25 C 0.12766 0.49963 0.25275 0.0
H26 H 0.07647 0.43784 0.42597 0.0
H27 H 0.14931 0.4755 0.23705 0.0
H28 H 0.09959 0.41792 0.54524 0.0
H29 H 0.18672 0.46634 0.62604 0.0
H30 H 0.07732 0.36384 0.01775 0.0
H31 H 0.07062 0.48011 0.40812 0.0
H32 H 0.14309 0.5167 0.20491 0.0
C33 C 0.70161 0.15024 0.97447 0.0
C34 C 0.70143 0.15166 0.07705 0.0
N35 N 0.71011 0.13383 0.11396 0.0
N36 N 0.71006 0.13135 0.94698 0.0
C37 C 0.71583 0.12237 0.03368 0.0
H38 H 0.69499 0.16147 0.92349 0.0
Co39 Co 0.70998 0.11735 0.81931 0.0
C40 C 0.68665 0.05314 0.86066 0.0
O41 O 0.67434 0.04487 0.77304 0.0
N42 N 0.71059 0.1035 0.68947 0.0
C43 C 0.72402 0.08698 0.55932 0.0
C44 C 0.72342 0.08832 0.66185 0.0
C45 C 0.70426 0.11165 0.60191 0.0
N46 N 0.71182 0.10166 0.5218 0.0
O47 O 0.75147 0.13305 0.829 0.0
H48 H 0.73313 0.08001 0.71292 0.0
H49 H 0.69673 0.12684 0.59568 0.0
O50 O 0.70097 0.0801 0.88181 0.0
C51 C 0.76474 0.15532 0.77287 0.0
O52 O 0.74933 0.16292 0.71808 0.0
N53 N 0.67046 0.10591 0.80663 0.0
C54 C 0.61601 0.10076 0.77997 0.0
C55 C 0.61931 0.08096 0.83976 0.0
C56 C 0.64679 0.08394 0.8524 0.0
C57 C 0.66772 0.12609 0.75364 0.0
C58 C 0.64088 0.12338 0.73611 0.0
H59 H 0.64895 0.06944 0.90267 0.0
H60 H 0.68684 0.14506 0.72661 0.0
H61 H 0.72292 0.10669 0.03843 0.0
H62 H 0.69493 0.16442 0.12096 0.0
H63 H 0.73362 0.0769 0.51587 0.0
H64 H 0.60117 0.06403 0.87988 0.0
H65 H 0.63988 0.13948 0.69015 0.0
C66 C 0.57217 0.71829 0.47905 0.0
C67 C 0.56977 0.71773 0.58146 0.0
N68 N 0.58198 0.70299 0.61923 0.0
N69 N 0.58602 0.70417 0.45203 0.0
C70 C 0.59123 0.69472 0.53871 0.0
H71 H 0.56548 0.72942 0.42789 0.0
Co72 Co 0.59913 0.70275 0.32412 0.0
C73 C 0.64203 0.68243 0.36532 0.0
O74 O 0.6357 0.66801 0.28112 0.0
N75 N 0.61242 0.70194 0.1936 0.0
C76 C 0.64117 0.7144 0.06019 0.0
C77 C 0.64021 0.71515 0.16274 0.0
C78 C 0.59701 0.69399 0.10778 0.0
N79 N 0.61393 0.70093 0.0263 0.0
O80 O 0.62376 0.74465 0.32627 0.0
H81 H 0.65867 0.72628 0.21134 0.0
H82 H 0.57402 0.68546 0.10353 0.0
O83 O 0.62973 0.69711 0.386 0.0
C84 C 0.6153 0.75764 0.26676 0.0
O85 O 0.59299 0.74197 0.20931 0.0
N86 N 0.57225 0.66276 0.31923 0.0
C87 C 0.52591 0.60679 0.29221 0.0
C88 C 0.54975 0.61163 0.34997 0.0
C89 C 0.57275 0.63995 0.36331 0.0
C90 C 0.54809 0.65838 0.27046 0.0
C91 C 0.52505 0.63065 0.25384 0.0
H92 H 0.59029 0.64323 0.41099 0.0
H93 H 0.54678 0.67677 0.24386 0.0
H94 H 0.60288 0.68318 0.54288 0.0
H95 H 0.56057 0.72823 0.62473 0.0
H96 H 0.66032 0.72462 1.01392 0.0
H97 H 0.55057 0.59374 0.38433 0.0
H98 H 0.50642 0.6279 0.21283 0.0
C99 C 0.86857 0.55399 0.98338 0.0
C100 C 0.86694 0.55236 0.08591 0.0
N101 N 0.88558 0.57863 0.12305 0.0
N102 N 0.88834 0.5811 0.9563 0.0
C103 C 0.89773 0.59571 0.04298 0.0
H104 H 0.85693 0.5363 0.93203 0.0
Co105 Co 0.90245 0.59436 0.82872 0.0
C106 C 0.96617 0.63084 0.86414 0.0
O107 O 0.97074 0.62067 0.78126 0.0
N108 N 0.9164 0.60829 0.69793 0.0
C109 C 0.93499 0.63828 0.56821 0.0
C110 C 0.93348 0.6362 0.67071 0.0
C111 C 0.90721 0.59415 0.61001 0.0
N112 N 0.91851 0.61165 0.53037 0.0
O113 O 0.8874 0.62069 0.83617 0.0
H114 H 0.94315 0.65416 0.72204 0.0
H115 H 0.89048 0.57198 0.60281 0.0
O116 O 0.94013 0.62293 0.88903 0.0
C117 C 0.86492 0.6113 0.7813 0.0
O118 O 0.8567 0.5875 0.73017 0.0
N119 N 0.9133 0.56558 0.81885 0.0
C120 C 0.91761 0.51553 0.79816 0.0
C121 C 0.93554 0.53759 0.86487 0.0
C122 C 0.93285 0.56236 0.87491 0.0
C123 C 0.89472 0.54353 0.75918 0.0
C124 C 0.89763 0.51945 0.74286 0.0
H125 H 0.94543 0.578 0.93131 0.0
H126 H 0.87646 0.54392 0.72728 0.0
H127 H 0.91405 0.61824 0.04784 0.0
H128 H 0.85349 0.53322 0.12961 0.0
H129 H 0.94652 0.65793 0.52503 0.0
H130 H 0.95069 0.53525 0.91168 0.0
H131 H 0.88353 0.50365 0.68901 0.0
C132 C 0.32448 0.86709 0.4715 0.0
C133 C 0.3239 0.86488 0.57395 0.0
N134 N 0.3153 0.88268 0.61195 0.0
N135 N 0.31657 0.88644 0.44486 0.0
C136 C 0.3102 0.89477 0.532 0.0
H137 H 0.33128 0.85607 0.42015 0.0
Co138 Co 0.31777 0.9015 0.31759 0.0
C139 C 0.34189 0.966 0.36531 0.0
O140 O 0.35281 0.97529 0.27631 0.0
N141 N 0.31814 0.91616 0.1878 0.0
C142 C 0.30516 0.93284 0.05699 0.0
C143 C 0.30605 0.93197 0.15966 0.0
C144 C 0.32369 0.90717 0.10032 0.0
N145 N 0.31636 0.91718 0.01975 0.0
O146 O 0.27654 0.88705 0.32611 0.0
H147 H 0.29679 0.94084 0.21047 0.0
H148 H 0.33021 0.89119 0.09469 0.0
O149 O 0.32802 0.93882 0.38341 0.0
C150 C 0.26362 0.86471 0.27026 0.0
O151 O 0.27936 0.85668 0.21924 0.0
N152 N 0.35699 0.91168 0.30519 0.0
C153 C 0.41045 0.91449 0.27913 0.0
C154 C 0.40812 0.93521 0.33698 0.0
C155 C 0.38117 0.93352 0.34873 0.0
C156 C 0.35891 0.8911 0.25175 0.0
C157 C 0.38534 0.89297 0.23306 0.0
H158 H 0.37989 0.94908 0.39587 0.0
H159 H 0.33947 0.87257 0.22457 0.0
H160 H 0.30341 0.91068 0.53734 0.0
H161 H 0.32997 0.85166 0.61704 0.0
H162 H 0.29588 0.94318 1.01338 0.0
H163 H 0.42672 0.95208 0.37526 0.0
H164 H 0.38571 0.87713 0.18399 0.0
C165 C 0.46746 0.32499 0.95919 0.0
C166 C 0.46904 0.32511 0.06174 0.0
N167 N 0.4424 0.31577 0.09894 0.0
N168 N 0.43998 0.31587 0.93195 0.0
C169 C 0.42516 0.30964 0.01875 0.0
H170 H 0.4854 0.33226 0.90803 0.0
Co171 Co 0.42623 0.31635 0.80447 0.0
C172 C 0.3854 0.33924 0.84734 0.0
O173 O 0.39109 0.35311 0.76212 0.0
N174 N 0.41186 0.31606 0.67447 0.0
C175 C 0.38171 0.30264 0.54501 0.0
C176 C 0.38381 0.30341 0.64751 0.0
C177 C 0.42617 0.32209 0.5864 0.0
N178 N 0.40852 0.31457 0.50681 0.0
O179 O 0.40114 0.27468 0.81132 0.0
H180 H 0.36585 0.29384 0.699 0.0
H181 H 0.44878 0.32928 0.57917 0.0
O182 O 0.39723 0.32411 0.86753 0.0
C183 C 0.41131 0.26254 0.75503 0.0
O184 O 0.43498 0.27905 0.70436 0.0
N185 N 0.45377 0.35622 0.79471 0.0
C186 C 0.50361 0.41085 0.7791 0.0
C187 C 0.48048 0.40653 0.84087 0.0
C188 C 0.45571 0.37893 0.84808 0.0
C189 C 0.47647 0.36007 0.73777 0.0
C190 C 0.50058 0.38721 0.72418 0.0
H191 H 0.43917 0.37571 0.90095 0.0
H192 H 0.47655 0.34156 0.7062 0.0
H193 H 0.40228 0.30199 0.02361 0.0
H194 H 0.4884 0.33216 0.10542 0.0
H195 H 0.36198 0.29308 0.50205 0.0
H196 H 0.48201 0.42393 0.8865 0.0
H197 H 0.51721 0.3892 0.67344 0.0
C198 C 0.57738 0.85825 0.06214 0.0
C199 C 0.57655 0.85613 0.95966 0.0
N200 N 0.58496 0.88243 0.92132 0.0
N201 N 0.58679 0.88589 0.08844 0.0
C202 C 0.5906 0.89994 1.00069 0.0
H203 H 0.57343 0.84116 0.1139 0.0
Co204 Co 0.59945 0.90125 0.21652 0.0
C205 C 0.63863 0.96472 0.17201 0.0
O206 O 0.63032 0.97186 0.25414 0.0
N207 N 0.61281 0.91641 0.34723 0.0
C208 C 0.64335 0.93303 0.47568 0.0
C209 C 0.64094 0.93167 0.37341 0.0
C210 C 0.59862 0.90872 0.43605 0.0
N211 N 0.61666 0.91845 0.51486 0.0
O212 O 0.62546 0.88559 0.2157 0.0
H213 H 0.65877 0.93946 0.32152 0.0
H214 H 0.57583 0.89384 0.44438 0.0
O215 O 0.62866 0.93793 0.15254 0.0
C216 C 0.61666 0.86417 0.27579 0.0
O217 O 0.59361 0.85715 0.3299 0.0
N218 N 0.57107 0.91227 0.22089 0.0
C219 C 0.5201 0.91482 0.23838 0.0
C220 C 0.54296 0.93447 0.17716 0.0
C221 C 0.56836 0.93283 0.16925 0.0
C222 C 0.54868 0.89255 0.27693 0.0
C223 C 0.52397 0.89442 0.29139 0.0
H224 H 0.58497 0.9472 0.11835 0.0
H225 H 0.54983 0.87472 0.30971 0.0
H226 H 0.59932 0.92296 0.99432 0.0
H227 H 0.57177 0.83713 0.9166 0.0
H228 H 0.66321 0.9425 0.51793 0.0
H229 H 0.54092 0.95034 0.1333 0.0
H230 H 0.50782 0.87941 0.3427 0.0
C231 C 0.69653 0.55706 0.57354 0.0
C232 C 0.69719 0.5562 0.47088 0.0
N233 N 0.70895 0.58341 0.43596 0.0
N234 N 0.70733 0.58467 0.60316 0.0
C235 C 0.71523 0.60019 0.51769 0.0
H236 H 0.68748 0.53861 0.62291 0.0
Co237 Co 0.70715 0.59866 0.73094 0.0
C238 C 0.68487 0.64004 0.68557 0.0
O239 O 0.67132 0.6356 0.77109 0.0
N240 N 0.7078 0.61342 0.86084 0.0
C241 C 0.72225 0.6444 0.98822 0.0
C242 C 0.72046 0.64163 0.88597 0.0
C243 C 0.70266 0.59965 0.94984 0.0
N244 N 0.71124 0.61787 0.02816 0.0
O245 O 0.74875 0.62376 0.72267 0.0
H246 H 0.72939 0.6593 0.83327 0.0
H247 H 0.69517 0.57697 0.95849 0.0
O248 O 0.69933 0.62742 0.66726 0.0
C249 C 0.76109 0.61387 0.77903 0.0
O250 O 0.7448 0.59028 0.83041 0.0
N251 N 0.66737 0.57123 0.74234 0.0
C252 C 0.61298 0.52116 0.75898 0.0
C253 C 0.61704 0.54421 0.69732 0.0
C254 C 0.64452 0.56913 0.68971 0.0
C255 C 0.66371 0.54872 0.79997 0.0
C256 C 0.6367 0.52448 0.81387 0.0
H257 H 0.64757 0.58563 0.63699 0.0
H258 H 0.6823 0.54886 0.83151 0.0
H259 H 0.72391 0.6233 0.51498 0.0
H260 H 0.68886 0.53697 0.42532 0.0
H261 H 0.73172 0.66445 0.02949 0.0
H262 H 0.59954 0.5425 0.652 0.0
H263 H 0.63486 0.50793 0.86464 0.0
C264 C 0.15651 0.69818 0.05541 0.0
C265 C 0.15912 0.69905 0.95311 0.0
N266 N 0.14185 0.70826 0.91483 0.0
N267 N 0.13746 0.70652 0.08174 0.0
C268 C 0.12973 0.71348 0.99465 0.0
H269 H 0.16705 0.69092 0.10689 0.0
Co270 Co 0.12241 0.70527 0.20902 0.0
C271 C 0.05802 0.68041 0.16446 0.0
O272 O 0.0498 0.6683 0.25253 0.0
N273 N 0.10798 0.70497 0.33915 0.0
C274 C 0.09156 0.71811 0.47051 0.0
C275 C 0.09202 0.71686 0.36782 0.0
C276 C 0.11746 0.69988 0.42625 0.0
N277 N 0.10761 0.7073 0.50712 0.0
O278 O 0.1372 0.74663 0.20186 0.0
H279 H 0.08276 0.72577 0.31729 0.0
H280 H 0.13365 0.69363 0.43126 0.0
O281 O 0.08504 0.69554 0.14416 0.0
C282 C 0.15954 0.75931 0.2576 0.0
O283 O 0.16788 0.74336 0.30561 0.0
N284 N 0.11167 0.66579 0.22011 0.0
C285 C 0.10589 0.61111 0.24959 0.0
C286 C 0.08675 0.61463 0.18717 0.0
C287 C 0.09 0.64218 0.1734 0.0
C288 C 0.13147 0.66292 0.27478 0.0
C289 C 0.12839 0.63595 0.29385 0.0
H290 H 0.07583 0.64435 0.12192 0.0
H291 H 0.15037 0.68196 0.30223 0.0
H292 H 0.11429 0.72085 0.9893 0.0
H293 H 0.17221 0.69275 0.91026 0.0
H294 H 0.0812 0.72731 0.51453 0.0
H295 H 0.07006 0.59659 0.14621 0.0
H296 H 0.14407 0.63484 0.34164 0.0
C297 C 0.46902 0.15745 0.54735 0.0
C298 C 0.47088 0.15911 0.44468 0.0
N299 N 0.44653 0.13693 0.40731 0.0
N300 N 0.44357 0.13441 0.57379 0.0
C301 C 0.43022 0.12273 0.48679 0.0
H302 H 0.48539 0.17168 0.5994 0.0
Co303 Co 0.4308 0.12073 0.70179 0.0
C304 C 0.39376 0.0566 0.6687 0.0
O305 O 0.40473 0.05208 0.74953 0.0
N306 N 0.41763 0.10744 0.83289 0.0
C307 C 0.3887 0.08755 0.96438 0.0
C308 C 0.39017 0.08899 0.86192 0.0
C309 C 0.43201 0.11791 0.91965 0.0
N310 N 0.41511 0.1059 0.99988 0.0
O311 O 0.40468 0.13605 0.69589 0.0
H312 H 0.37199 0.07818 0.81205 0.0
H313 H 0.45403 0.13519 0.92559 0.0
O314 O 0.4015 0.08268 0.64434 0.0
C315 C 0.41458 0.15894 0.74908 0.0
O316 O 0.43885 0.16758 0.7974 0.0
N317 N 0.45931 0.10957 0.70987 0.0
C318 C 0.50803 0.10313 0.73134 0.0
C319 C 0.4858 0.08571 0.66444 0.0
C320 C 0.46175 0.08951 0.65391 0.0
C321 C 0.48187 0.12818 0.7677 0.0
C322 C 0.5056 0.12462 0.78302 0.0
H323 H 0.44594 0.07719 0.59767 0.0
H324 H 0.48206 0.1468 0.79927 0.0
H325 H 0.40884 0.10421 0.48095 0.0
H326 H 0.48899 0.17482 0.40102 0.0
H327 H 0.36953 0.07521 1.00926 0.0
H328 H 0.48743 0.07014 0.61749 0.0
H329 H 0.52229 0.13925 0.83347 0.0
C330 C 0.30273 0.44976 0.0493 0.0
C331 C 0.30196 0.45112 0.94691 0.0
N332 N 0.31971 0.44253 0.90859 0.0
N333 N 0.3204 0.43973 0.07571 0.0
C334 C 0.33092 0.43615 0.98821 0.0
H335 H 0.28964 0.45383 0.10088 0.0
Co336 Co 0.32224 0.42654 0.20357 0.0
C337 C 0.34164 0.38307 0.16123 0.0
O338 O 0.35511 0.38854 0.24713 0.0
N339 N 0.32325 0.41297 0.33401 0.0
C340 C 0.30714 0.38353 0.46557 0.0
C341 C 0.30768 0.38508 0.36314 0.0
C342 C 0.33192 0.42791 0.421 0.0
N343 N 0.3225 0.41049 0.50174 0.0
O344 O 0.2802 0.40197 0.20307 0.0
H345 H 0.29551 0.36713 0.31325 0.0
H346 H 0.34226 0.45112 0.42638 0.0
O347 O 0.32766 0.396 0.13952 0.0
C348 C 0.26764 0.41051 0.26441 0.0
O349 O 0.28372 0.43283 0.32141 0.0
N350 N 0.36225 0.45325 0.20745 0.0
C351 C 0.41841 0.49956 0.2313 0.0
C352 C 0.41321 0.47534 0.17476 0.0
C353 C 0.38483 0.4524 0.16293 0.0
C354 C 0.36697 0.47747 0.25687 0.0
C355 C 0.39481 0.50052 0.2718 0.0
H356 H 0.38132 0.43461 0.11602 0.0
H357 H 0.34877 0.47883 0.28536 0.0
H358 H 0.34494 0.4271 0.9823 0.0
H359 H 0.28825 0.45654 0.90379 0.0
H360 H 0.29484 0.36428 0.51016 0.0
H361 H 0.43088 0.4742 0.13993 0.0
H362 H 0.39782 0.51925 0.31294 0.0
C363 C 0.87448 0.32202 0.5709 0.0
C364 C 0.87222 0.32041 0.46844 0.0
N365 N 0.88987 0.31126 0.43308 0.0
N366 N 0.89376 0.31428 0.5999 0.0
C367 C 0.90237 0.30746 0.51442 0.0
H368 H 0.86352 0.32931 0.62058 0.0
Co369 Co 0.90781 0.31485 0.72759 0.0
C370 C 0.97222 0.33873 0.68534 0.0
O371 O 0.98091 0.35088 0.77306 0.0
N372 N 0.92165 0.31447 0.8572 0.0
C373 C 0.9373 0.29969 0.986 0.0
C374 C 0.93718 0.30192 0.88371 0.0
C375 C 0.91214 0.31907 0.94508 0.0
N376 N 0.9211 0.31011 0.02403 0.0
O377 O 0.89263 0.27342 0.71888 0.0
H378 H 0.9462 0.29307 0.8318 0.0
H379 H 0.89741 0.32714 0.95218 0.0
O380 O 0.94521 0.32452 0.66527 0.0
C381 C 0.86985 0.26085 0.77299 0.0
O382 O 0.86172 0.27697 0.82112 0.0
N383 N 0.91852 0.3542 0.73983 0.0
C384 C 0.92077 0.40756 0.76053 0.0
C385 C 0.94141 0.40508 0.70265 0.0
C386 C 0.93988 0.3781 0.69296 0.0
C387 C 0.8981 0.35631 0.79361 0.0
C388 C 0.89967 0.38273 0.80935 0.0
H389 H 0.95492 0.3764 0.6439 0.0
H390 H 0.87966 0.33697 0.82202 0.0
H391 H 0.91793 0.3002 0.51147 0.0
H392 H 0.8596 0.32683 0.42354 0.0
H393 H 0.94687 0.28944 0.0286 0.0
H394 H 0.95788 0.42351 0.66219 0.0
H395 H 0.88374 0.38331 0.85753 0.0
C396 C 1.00837 0.36491 0.43267 0.0
C397 C 0.03642 0.36928 0.44678 0.0
C398 C 0.98756 0.354 0.50895 0.0
C399 C 0.9937 0.34694 0.60312 0.0
H400 H 1.0026 0.37097 0.36317 0.0
H401 H 0.96692 0.3525 0.4956 0.0
S402 S 0.06227 0.35084 0.6771 0.0
N403 N 0.06792 0.36252 0.56082 0.0
N404 N 0.02912 0.34324 0.70487 0.0
C405 C 0.02115 0.3501 0.6177 0.0
C406 C 0.04232 0.36079 0.53937 0.0
C407 C 0.67421 0.03776 0.03942 0.0
C408 C 0.67848 0.0312 0.94154 0.0
C409 C 0.66261 0.01644 0.114 0.0
C410 C 0.65495 0.98751 0.09471 0.0
H411 H 0.6784 0.05923 0.0577 0.0
H412 H 0.6587 0.02261 0.18666 0.0
S413 S 0.6659 0.96004 0.85362 0.0
N414 N 0.6765 0.99429 0.83121 0.0
N415 N 0.65595 0.95451 0.97177 0.0
C416 C 0.66093 0.98111 0.99853 0.0
C417 C 0.67226 1.0028 0.922 0.0
C418 C 0.67489 0.64372 0.50508 0.0
C419 C 0.67815 0.65438 0.6029 0.0
C420 C 0.66469 0.65405 0.42808 0.0
C421 C 0.65752 0.67575 0.44484 0.0
H422 H 0.67875 0.62613 0.4886 0.0
H423 H 0.66135 0.64397 0.3556 0.0
S424 S 0.6672 0.71448 0.68436 0.0
N425 N 0.67624 0.68988 0.7104 0.0
N426 N 0.65859 0.71041 0.56504 0.0
C427 C 0.66277 0.6881 0.54094 0.0
C428 C 0.67258 0.67709 0.61999 0.0
C429 C 1.00762 0.66514 0.10556 0.0
C430 C 0.03592 0.67136 0.08351 0.0
C431 C 0.98553 0.65344 0.03334 0.0
C432 C 0.99059 0.64694 0.93606 0.0
H433 H 1.00233 0.66887 0.17997 0.0
H434 H 0.96416 0.64869 0.05525 0.0
S435 S 0.06077 0.65843 0.84055 0.0
N436 N 0.06747 0.66964 0.95698 0.0
N437 N 0.02657 0.64825 0.82192 0.0
C438 C 0.01901 0.6537 0.91261 0.0
C439 C 0.04144 0.66569 0.98596 0.0
C440 C 0.36654 0.0366 0.50675 0.0
C441 C 0.37679 0.03208 0.59789 0.0
C442 C 0.35412 0.01475 0.43377 0.0
C443 C 0.35104 0.98729 0.44895 0.0
H444 H 0.36878 0.05741 0.49013 0.0
H445 H 0.34744 0.01963 0.3638 0.0
S446 S 0.37278 0.96349 0.67627 0.0
N447 N 0.38141 0.99708 0.70042 0.0
N448 N 0.3584 0.95658 0.56406 0.0
C449 C 0.3599 0.98203 0.54144 0.0
C450 C 0.37264 1.00423 0.6155 0.0
C451 C 0.37933 0.34804 0.02745 0.0
C452 C 0.37054 0.34626 0.92769 0.0
C453 C 0.36868 0.3585 0.10276 0.0
C454 C 0.34859 0.36757 0.08224 0.0
H455 H 0.39577 0.34282 0.04713 0.0
H456 H 0.37728 0.36052 0.17716 0.0
S457 S 0.31546 0.36327 0.83498 0.0
N458 N 0.33867 0.35208 0.81362 0.0
N459 N 0.31775 0.37058 0.95525 0.0
C460 C 0.33819 0.3641 0.98368 0.0
C461 C 0.34946 0.35387 0.90655 0.0
C462 C 0.13019 0.58162 0.26919 0.0
C463 C 0.10439 0.58254 0.26329 0.0
C464 C 0.13013 0.55575 0.28456 0.0
C465 C 0.10425 0.52906 0.29124 0.0
H466 H 0.15094 0.6011 0.26106 0.0
H467 H 0.15083 0.5569 0.29117 0.0
S468 S 0.0304 0.51896 0.28036 0.0
N469 N 0.05193 0.55419 0.26928 0.0
N470 N 0.0518 0.50512 0.28973 0.0
C471 C 0.07813 0.52942 0.2849 0.0
C472 C 0.0782 0.55612 0.27206 0.0
C473 C 0.56172 0.12664 0.75303 0.0
C474 C 0.53489 0.10113 0.74221 0.0
C475 C 0.58726 0.12602 0.76747 0.0
C476 C 0.58769 0.0999 0.76864 0.0
H477 H 0.56324 0.14759 0.74993 0.0
H478 H 0.60691 0.14647 0.77823 0.0
S479 S 0.52352 0.02666 0.74172 0.0
N480 N 0.51025 0.04863 0.73589 0.0
N481 N 0.55872 0.04758 0.75551 0.0
C482 C 0.56111 0.07408 0.75672 0.0
C483 C 0.53475 0.07468 0.74444 0.0
C484 C 0.48439 0.56069 0.35684 0.0
C485 C 0.501 0.57735 0.27569 0.0
C486 C 0.45818 0.53489 0.34183 0.0
C487 C 0.44795 0.52461 0.24523 0.0
H488 H 0.49098 0.56836 0.43224 0.0
H489 H 0.44541 0.52327 0.40624 0.0
S490 S 0.48455 0.55931 1.00835 0.0
N491 N 0.50619 0.58112 0.09571 0.0
N492 N 0.45721 0.53245 0.06758 0.0
C493 C 0.46508 0.54038 0.16371 0.0
C494 C 0.49152 0.56682 0.17894 0.0
C495 C 0.9446 0.48784 0.78924 0.0
C496 C 0.91825 0.48785 0.78995 0.0
C497 C 0.94542 0.46202 0.77826 0.0
C498 C 0.91993 0.43515 0.7668 0.0
H499 H 0.96481 0.50796 0.79633 0.0
H500 H 0.96617 0.46312 0.78011 0.0
S501 S 0.84523 0.42319 0.76239 0.0
N502 N 0.86587 0.45807 0.783 0.0
N503 N 0.86761 0.41062 0.751 0.0
C504 C 0.8935 0.43501 0.76532 0.0
C505 C 0.89261 0.461 0.77988 0.0
C506 C 0.49115 0.94046 0.24891 0.0
C507 C 0.49195 0.91452 0.24493 0.0
C508 C 0.46492 0.94038 0.26029 0.0
C509 C 0.43836 0.91436 0.26952 0.0
H510 H 0.51097 0.96105 0.24455 0.0
H511 H 0.4655 0.9609 0.26113 0.0
S512 S 0.42846 0.84037 0.26346 0.0
N513 N 0.46326 0.86198 0.24438 0.0
N514 N 0.41503 0.8619 0.27878 0.0
C515 C 0.43899 0.8883 0.26705 0.0
C516 C 0.46543 0.88837 0.25141 0.0
C517 C 0.53206 0.46561 0.77254 0.0
C518 C 0.53156 0.439 0.77616 0.0
C519 C 0.55828 0.49206 0.76576 0.0
C520 C 0.58506 0.49298 0.76177 0.0
H521 H 0.51204 0.46602 0.77386 0.0
H522 H 0.55756 0.51193 0.76477 0.0
S523 S 0.59574 0.42942 0.76834 0.0
N524 N 0.56063 0.41564 0.78055 0.0
N525 N 0.60906 0.4645 0.75649 0.0
C526 C 0.58473 0.46644 0.76362 0.0
C527 C 0.55827 0.43976 0.77384 0.0
C528 C 0.15065 0.4339 0.7945 0.0
C529 C 0.13161 0.43513 0.7247 0.0
C530 C 0.14229 0.42575 0.8938 0.0
C531 C 0.11446 0.41806 0.92664 0.0
H532 H 0.17198 0.43859 0.77204 0.0
H533 H 0.15746 0.42494 0.94509 0.0
S534 S 0.05705 0.41985 0.77972 0.0
N535 N 0.08413 0.43021 0.70057 0.0
N536 N 0.06831 0.4133 0.88577 0.0
C537 C 0.09532 0.41949 0.85934 0.0
C538 C 0.10391 0.42842 0.75874 0.0
C539 C 0.73295 0.11364 0.35192 0.0
C540 C 0.71062 0.10881 0.41867 0.0
C541 C 0.73271 0.12193 0.25271 0.0
C542 C 0.71029 0.12592 0.21666 0.0
H543 H 0.75103 0.11156 0.37701 0.0
H544 H 0.75041 0.12566 0.20408 0.0
S545 S 0.64509 0.11275 0.35734 0.0
N546 N 0.66428 0.1063 0.43869 0.0
N547 N 0.66408 0.12218 0.25314 0.0
C548 C 0.68754 0.12054 0.28183 0.0
C549 C 0.68765 0.11191 0.38249 0.0
C550 C 0.5925 0.72298 0.79068 0.0
C551 C 0.58836 0.70102 0.723 0.0
C552 C 0.60062 0.72267 0.88988 0.0
C553 C 0.60509 0.70055 0.92512 0.0
H554 H 0.59021 0.74101 0.76643 0.0
H555 H 0.60385 0.74004 0.93931 0.0
S556 S 0.59598 0.63728 0.78326 0.0
N557 N 0.58801 0.65552 0.70247 0.0
N558 N 0.6043 0.65592 0.88807 0.0
C559 C 0.60078 0.67834 0.8599 0.0
C560 C 0.59217 0.67833 0.75907 0.0
C561 C 0.90785 0.62193 0.36052 0.0
C562 C 0.91124 0.60356 0.42728 0.0
C563 C 0.89928 0.61358 0.26146 0.0
C564 C 0.89362 0.5865 0.22569 0.0
H565 H 0.91126 0.64265 0.38554 0.0
H566 H 0.89667 0.62823 0.21271 0.0
S567 S 0.90272 0.53199 0.36683 0.0
N568 N 0.91064 0.55812 0.44789 0.0
N569 N 0.89433 0.5424 0.26252 0.0
C570 C 0.8976 0.56825 0.29095 0.0
C571 C 0.90647 0.57679 0.39144 0.0
C572 C 0.29416 0.89633 0.75155 0.0
C573 C 0.31545 0.89058 0.71517 0.0
C574 C 0.29468 0.90528 0.85051 0.0
C575 C 0.3167 0.90911 0.91688 0.0
H576 H 0.27679 0.89361 0.70325 0.0
H577 H 0.27744 0.90877 0.87558 0.0
S578 S 0.37965 0.90061 0.85462 0.0
N579 N 0.36039 0.89154 0.75135 0.0
N580 N 0.36169 0.90881 0.93585 0.0
C581 C 0.33853 0.90416 0.88046 0.0
C582 C 0.33782 0.89475 0.78021 0.0
C583 C 0.39937 0.29307 0.33764 0.0
C584 C 0.41678 0.31562 0.40359 0.0
C585 C 0.40792 0.29318 0.23844 0.0
C586 C 0.43427 0.31571 0.20164 0.0
H587 H 0.37929 0.27493 0.3634 0.0
H588 H 0.39403 0.27531 0.19042 0.0
S589 S 0.48596 0.38146 0.3403 0.0
N590 N 0.4604 0.36224 0.42221 0.0
N591 N 0.47651 0.36227 0.23672 0.0
C592 C 0.45151 0.33869 0.26608 0.0
C593 C 0.44275 0.33868 0.3667 0.0
C594 C 0.58823 0.91388 0.66672 0.0
C595 C 0.60916 0.90978 0.61749 0.0
C596 C 0.58058 0.90524 0.76664 0.0
C597 C 0.59292 0.89136 0.81927 0.0
H598 H 0.57802 0.92412 0.62787 0.0
H599 H 0.56467 0.90902 0.80269 0.0
S600 S 0.64852 0.87548 0.72427 0.0
N601 N 0.64215 0.89118 0.62952 0.0
N602 N 0.62722 0.87431 0.81551 0.0
C603 C 0.61367 0.88699 0.7706 0.0
C604 C 0.62192 0.89635 0.67015 0.0
C605 C 0.68749 0.57547 0.26771 0.0
C606 C 0.71026 0.59229 0.33351 0.0
C607 C 0.68787 0.58417 0.16878 0.0
C608 C 0.71102 0.61005 0.13145 0.0
H609 H 0.66899 0.55564 0.29341 0.0
H610 H 0.66975 0.57066 0.12115 0.0
S611 S 0.77721 0.66043 0.27081 0.0
N612 N 0.75732 0.63518 0.35285 0.0
N613 N 0.75822 0.65142 0.16686 0.0
C614 C 0.73414 0.62686 0.19609 0.0
C615 C 0.7337 0.61801 0.29701 0.0
C616 C 0.12002 0.72935 0.67585 0.0
C617 C 0.11591 0.70714 0.60969 0.0
C618 C 0.12891 0.72984 0.77483 0.0
C619 C 0.13429 0.70831 0.81139 0.0
H620 H 0.11673 0.7467 0.65064 0.0
H621 H 0.13178 0.7473 0.82309 0.0
S622 S 0.12354 0.6437 0.67204 0.0
N623 N 0.11572 0.66188 0.59071 0.0
N624 N 0.13272 0.66301 0.77531 0.0
C625 C 0.1299 0.68581 0.74636 0.0
C626 C 0.12061 0.68517 0.64608 0.0
C627 C 0.4372 0.14255 0.13224 0.0
C628 C 0.42321 0.11347 0.10205 0.0
C629 C 0.44517 0.1502 0.23204 0.0
C630 C 0.43949 0.129 0.30442 0.0
H631 H 0.44155 0.15935 0.07849 0.0
H632 H 0.45531 0.17272 0.25322 0.0
S633 S 0.40764 0.05046 0.25872 0.0
N634 N 0.40652 0.06388 0.14914 0.0
N635 N 0.42194 0.07811 0.33641 0.0
C636 C 0.42647 0.09997 0.27398 0.0
C637 C 0.41819 0.09224 0.17279 0.0
C638 C 0.29546 0.41913 0.751 0.0
C639 C 0.32106 0.43529 0.8058 0.0
C640 C 0.29612 0.41092 0.65205 0.0
C641 C 0.3224 0.41911 0.60346 0.0
H642 H 0.27475 0.4123 0.78573 0.0
H643 H 0.27595 0.39827 0.6127 0.0
S644 S 0.39535 0.46168 0.71279 0.0
N645 N 0.37336 0.459 0.80407 0.0
N646 N 0.37456 0.44438 0.61668 0.0
C647 C 0.34812 0.43554 0.65668 0.0
C648 C 0.34745 0.44336 0.75828 0.0
C649 C 0.92521 0.31692 0.30293 0.0
C650 C 0.89684 0.3094 0.33022 0.0
C651 C 0.9329 0.31676 0.20307 0.0
C652 C 0.91252 0.30905 0.12651 0.0
H653 H 0.94181 0.32359 0.35878 0.0
H654 H 0.95509 0.32333 0.18528 0.0
S655 S 0.83443 0.28303 0.15877 0.0
N656 N 0.84768 0.29102 0.27275 0.0
N657 N 0.86208 0.29058 0.08522 0.0
C658 C 0.88383 0.30031 0.15277 0.0
C659 C 0.87601 0.30052 0.25449 0.0
C660 C 0.19554 0.39774 0.35752 0.0
C661 C 0.18196 0.39843 0.26902 0.0
C662 C 0.22224 0.39855 0.3551 0.0
C663 C 0.23604 0.39951 0.26426 0.0
H664 H 0.18707 0.3996 0.42877 0.0
H665 H 0.23325 0.40067 0.42497 0.0
S666 S 0.20711 0.39739 1.01211 0.0
N667 N 0.18267 0.39709 0.08827 0.0
N668 N 0.23226 0.39768 0.08404 0.0
C669 C 0.22116 0.39713 0.17561 0.0
C670 C 0.19428 0.39688 0.178 0.0
C671 C 0.83752 0.2144 0.68577 0.0
C672 C 0.84989 0.22916 0.77484 0.0
C673 C 0.81105 0.18819 0.68655 0.0
C674 C 0.79635 0.17556 0.77633 0.0
H675 H 0.84665 0.22457 0.61484 0.0
H676 H 0.80083 0.17898 0.61587 0.0
S677 S 0.82205 0.20368 0.03009 0.0
N678 N 0.84719 0.22773 0.95556 0.0
N679 N 0.79794 0.17828 0.9567 0.0
C680 C 0.81009 0.18856 0.86605 0.0
C681 C 0.83675 0.21545 0.86529 0.0
C682 C 0.62814 0.8306 0.18324 0.0
C683 C 0.62735 0.84336 0.27377 0.0
C684 C 0.62725 0.80384 0.18177 0.0
C685 C 0.62619 0.78921 0.2706 0.0
H686 H 0.62643 0.83977 0.11336 0.0
H687 H 0.62519 0.79348 0.11048 0.0
S688 S 0.62809 0.81577 0.52673 0.0
N689 N 0.62857 0.84097 0.45426 0.0
N690 N 0.62777 0.79125 0.4511 0.0
C691 C 0.62847 0.80325 0.36122 0.0
C692 C 0.62881 0.83019 0.36282 0.0
C693 C 0.83229 0.62421 0.69145 0.0
C694 C 0.84531 0.6234 0.78182 0.0
C695 C 0.80653 0.62525 0.69001 0.0
C696 C 0.79261 0.62493 0.77912 0.0
H697 H 0.8408 0.62159 0.62136 0.0
H698 H 0.79595 0.62315 0.61923 0.0
S699 S 0.81969 0.62695 0.0349 0.0
N700 N 0.8441 0.62598 0.96199 0.0
N701 N 0.79541 0.62721 0.95973 0.0
C702 C 0.80681 0.62686 0.86954 0.0
C703 C 0.83328 0.62632 0.87088 0.0
C704 C 0.21838 0.83268 0.17818 0.0
C705 C 0.23195 0.8449 0.26974 0.0
C706 C 0.19211 0.80633 0.17416 0.0
C707 C 0.17883 0.79106 0.26171 0.0
H708 H 0.22946 0.84225 0.10885 0.0
H709 H 0.18396 0.79643 0.1022 0.0
S710 S 0.20323 0.81558 0.52017 0.0
N711 N 0.22811 0.84142 0.44976 0.0
N712 N 0.17918 0.7917 0.44262 0.0
C713 C 0.19068 0.80444 0.35367 0.0
C714 C 0.21715 0.83146 0.35768 0.0
C715 C 0.40033 0.21702 0.84284 0.0
C716 C 0.40047 0.23102 0.7542 0.0
C717 C 0.40155 0.19134 0.84052 0.0
C718 C 0.40234 0.17845 0.7497 0.0
H719 H 0.4024 0.2275 0.9139 0.0
H720 H 0.40431 0.18279 0.91022 0.0
S721 S 0.39874 0.20444 0.4976 0.0
N722 N 0.39828 0.22852 0.57356 0.0
N723 N 0.39981 0.17996 0.56968 0.0
C724 C 0.39936 0.19059 0.66115 0.0
C725 C 0.39864 0.21699 0.66337 0.0
loop_
_geom_bond_atom_site_label_1
_geom_bond_atom_site_label_2
_geom_bond_distance
_geom_bond_site_symmetry_2
_ccdc_geom_bond_type
C0 C1 1.351 . S
C0 N3 1.368 . S
C0 H5 0.931 . S
C1 C0 1.351 . S
C1 N2 1.373 . S
C1 H29 0.930 . S
N2 C1 1.373 . S
N2 C4 1.340 . S
N3 C0 1.368 . S
N3 C4 1.321 . S
N3 Co6 2.135 . S
C4 N2 1.340 . S
C4 N3 1.321 . S
C4 H28 0.930 . S
H5 C0 0.931 . S
Co6 N3 2.135 . S
Co6 N9 2.121 . S
Co6 O14 2.055 . S
Co6 O17 2.039 . S
Co6 N20 2.140 . S
C7 O8 1.227 . S
C7 O17 1.265 . S
O8 C7 1.227 . S
N9 Co6 2.121 . S
N9 C11 1.375 . S
N9 C12 1.313 . S
C10 C11 1.338 . S
C10 N13 1.377 . S
C10 H30 0.930 . S
C11 N9 1.375 . S
C11 C10 1.338 . S
C11 H15 0.931 . S
C12 N9 1.313 . S
C12 N13 1.344 . S
C12 H16 0.930 . S
N13 C10 1.377 . S
N13 C12 1.344 . S
O14 Co6 2.055 . S
O14 C18 1.253 . S
H15 C11 0.931 . S
H16 C12 0.930 . S
O17 Co6 2.039 . S
O17 C7 1.265 . S
C18 O14 1.253 . S
C18 O19 1.227 . S
O19 C18 1.227 . S
N20 Co6 2.140 . S
N20 C23 1.346 . S
N20 C24 1.345 . S
C21 C22 1.387 . S
C21 C25 1.391 . S
C22 C21 1.387 . S
C22 C23 1.369 . S
C22 H31 0.929 . S
C23 N20 1.346 . S
C23 C22 1.369 . S
C23 H26 0.928 . S
C24 N20 1.345 . S
C24 C25 1.371 . S
C24 H27 0.931 . S
C25 C21 1.391 . S
C25 C24 1.371 . S
C25 H32 0.930 . S
H26 C23 0.928 . S
H27 C24 0.931 . S
H28 C4 0.930 . S
H29 C1 0.930 . S
H30 C10 0.930 . S
H31 C22 0.929 . S
H32 C25 0.930 . S
C33 C34 1.351 . S
C33 N36 1.368 1_554 S
C33 H38 0.931 1_554 S
C34 C33 1.351 . S
C34 N35 1.373 . S
C34 H62 0.930 . S
N35 C34 1.373 . S
N35 C37 1.340 . S
N36 C33 1.368 1_556 S
N36 C37 1.321 1_556 S
N36 Co39 2.135 . S
C37 N35 1.340 . S
C37 N36 1.321 1_554 S
C37 H61 0.930 . S
H38 C33 0.931 1_556 S
Co39 N36 2.135 . S
Co39 N42 2.121 . S
Co39 O47 2.055 . S
Co39 O50 2.039 . S
Co39 N53 2.140 . S
C40 O41 1.227 . S
C40 O50 1.265 . S
O41 C40 1.227 . S
N42 Co39 2.121 . S
N42 C44 1.375 . S
N42 C45 1.313 . S
C43 C44 1.338 . S
C43 N46 1.377 . S
C43 H63 0.930 . S
C44 N42 1.375 . S
C44 C43 1.338 . S
C44 H48 0.931 . S
C45 N42 1.313 . S
C45 N46 1.344 . S
C45 H49 0.930 . S
N46 C43 1.377 . S
N46 C45 1.344 . S
O47 Co39 2.055 . S
O47 C51 1.253 . S
H48 C44 0.931 . S
H49 C45 0.930 . S
O50 Co39 2.039 . S
O50 C40 1.265 . S
C51 O47 1.253 . S
C51 O52 1.227 . S
O52 C51 1.227 . S
N53 Co39 2.140 . S
N53 C56 1.346 . S
N53 C57 1.345 . S
C54 C55 1.387 . S
C54 C58 1.391 . S
C55 C54 1.387 . S
C55 C56 1.369 . S
C55 H64 0.929 . S
C56 N53 1.346 . S
C56 C55 1.369 . S
C56 H59 0.928 . S
C57 N53 1.345 . S
C57 C58 1.371 . S
C57 H60 0.931 . S
C58 C54 1.391 . S
C58 C57 1.371 . S
C58 H65 0.930 . S
H59 C56 0.928 . S
H60 C57 0.931 . S
H61 C37 0.930 . S
H62 C34 0.930 . S
H63 C43 0.930 . S
H64 C55 0.929 . S
H65 C58 0.930 . S
C66 C67 1.351 . S
C66 N69 1.368 . S
C66 H71 0.931 . S
C67 C66 1.351 . S
C67 N68 1.373 . S
C67 H95 0.930 . S
N68 C67 1.373 . S
N68 C70 1.340 . S
N69 C66 1.368 . S
N69 C70 1.321 . S
N69 Co72 2.135 . S
C70 N68 1.340 . S
C70 N69 1.321 . S
C70 H94 0.930 . S
H71 C66 0.931 . S
Co72 N69 2.135 . S
Co72 N75 2.121 . S
Co72 O80 2.055 . S
Co72 O83 2.039 . S
Co72 N86 2.140 . S
C73 O74 1.227 . S
C73 O83 1.265 . S
O74 C73 1.227 . S
N75 Co72 2.121 . S
N75 C77 1.375 . S
N75 C78 1.313 . S
C76 C77 1.338 . S
C76 N79 1.377 . S
C76 H96 0.930 . S
C77 N75 1.375 . S
C77 C76 1.338 . S
C77 H81 0.931 . S
C78 N75 1.313 . S
C78 N79 1.344 . S
C78 H82 0.930 . S
N79 C76 1.377 . S
N79 C78 1.344 . S
O80 Co72 2.055 . S
O80 C84 1.253 . S
H81 C77 0.931 . S
H82 C78 0.930 . S
O83 Co72 2.039 . S
O83 C73 1.265 . S
C84 O80 1.253 . S
C84 O85 1.227 . S
O85 C84 1.227 . S
N86 Co72 2.140 . S
N86 C89 1.346 . S
N86 C90 1.345 . S
C87 C88 1.387 . S
C87 C91 1.391 . S
C88 C87 1.387 . S
C88 C89 1.369 . S
C88 H97 0.929 . S
C89 N86 1.346 . S
C89 C88 1.369 . S
C89 H92 0.928 . S
C90 N86 1.345 . S
C90 C91 1.371 . S
C90 H93 0.931 . S
C91 C87 1.391 . S
C91 C90 1.371 . S
C91 H98 0.930 . S
H92 C89 0.928 . S
H93 C90 0.931 . S
H94 C70 0.930 . S
H95 C67 0.930 . S
H96 C76 0.930 . S
H97 C88 0.929 . S
H98 C91 0.930 . S
C99 C100 1.351 . S
C99 N102 1.368 1_554 S
C99 H104 0.931 1_554 S
C100 C99 1.351 . S
C100 N101 1.373 . S
C100 H128 0.930 . S
N101 C100 1.373 . S
N101 C103 1.340 . S
N102 C99 1.368 1_556 S
N102 C103 1.321 1_556 S
N102 Co105 2.135 . S
C103 N101 1.340 . S
C103 N102 1.321 1_554 S
C103 H127 0.930 . S
H104 C99 0.931 1_556 S
Co105 N102 2.135 . S
Co105 N108 2.121 . S
Co105 O113 2.055 . S
Co105 O116 2.039 . S
Co105 N119 2.140 . S
C106 O107 1.227 . S
C106 O116 1.265 . S
O107 C106 1.227 . S
N108 Co105 2.121 . S
N108 C110 1.375 . S
N108 C111 1.313 . S
C109 C110 1.338 . S
C109 N112 1.377 . S
C109 H129 0.930 . S
C110 N108 1.375 . S
C110 C109 1.338 . S
C110 H114 0.931 . S
C111 N108 1.313 . S
C111 N112 1.344 . S
C111 H115 0.930 . S
N112 C109 1.377 . S
N112 C111 1.344 . S
O113 Co105 2.055 . S
O113 C117 1.253 . S
H114 C110 0.931 . S
H115 C111 0.930 . S
O116 Co105 2.039 . S
O116 C106 1.265 . S
C117 O113 1.253 . S
C117 O118 1.227 . S
O118 C117 1.227 . S
N119 Co105 2.140 . S
N119 C122 1.346 . S
N119 C123 1.345 . S
C120 C121 1.387 . S
C120 C124 1.391 . S
C121 C120 1.387 . S
C121 C122 1.369 . S
C121 H130 0.929 . S
C122 N119 1.346 . S
C122 C121 1.369 . S
C122 H125 0.928 . S
C123 N119 1.345 . S
C123 C124 1.371 . S
C123 H126 0.931 . S
C124 C120 1.391 . S
C124 C123 1.371 . S
C124 H131 0.930 . S
H125 C122 0.928 . S
H126 C123 0.931 . S
H127 C103 0.930 . S
H128 C100 0.930 . S
H129 C109 0.930 . S
H130 C121 0.929 . S
H131 C124 0.930 . S
C132 C133 1.351 . S
C132 N135 1.368 . S
C132 H137 0.931 . S
C133 C132 1.351 . S
C133 N134 1.373 . S
C133 H161 0.930 . S
N134 C133 1.373 . S
N134 C136 1.340 . S
N135 C132 1.368 . S
N135 C136 1.321 . S
N135 Co138 2.135 . S
C136 N134 1.340 . S
C136 N135 1.321 . S
C136 H160 0.930 . S
H137 C132 0.931 . S
Co138 N135 2.135 . S
Co138 N141 2.121 . S
Co138 O146 2.055 . S
Co138 O149 2.039 . S
Co138 N152 2.140 . S
C139 O140 1.227 . S
C139 O149 1.265 . S
O140 C139 1.227 . S
N141 Co138 2.121 . S
N141 C143 1.375 . S
N141 C144 1.313 . S
C142 C143 1.338 . S
C142 N145 1.377 . S
C142 H162 0.930 . S
C143 N141 1.375 . S
C143 C142 1.338 . S
C143 H147 0.931 . S
C144 N141 1.313 . S
C144 N145 1.344 . S
C144 H148 0.930 . S
N145 C142 1.377 . S
N145 C144 1.344 . S
O146 Co138 2.055 . S
O146 C150 1.253 . S
H147 C143 0.931 . S
H148 C144 0.930 . S
O149 Co138 2.039 . S
O149 C139 1.265 . S
C150 O146 1.253 . S
C150 O151 1.227 . S
O151 C150 1.227 . S
N152 Co138 2.140 . S
N152 C155 1.346 . S
N152 C156 1.345 . S
C153 C154 1.387 . S
C153 C157 1.391 . S
C154 C153 1.387 . S
C154 C155 1.369 . S
C154 H163 0.929 . S
C155 N152 1.346 . S
C155 C154 1.369 . S
C155 H158 0.928 . S
C156 N152 1.345 . S
C156 C157 1.371 . S
C156 H159 0.931 . S
C157 C153 1.391 . S
C157 C156 1.371 . S
C157 H164 0.930 . S
H158 C155 0.928 . S
H159 C156 0.931 . S
H160 C136 0.930 . S
H161 C133 0.930 . S
H162 C142 0.930 . S
H163 C154 0.929 . S
H164 C157 0.930 . S
C165 C166 1.351 . S
C165 N168 1.368 1_554 S
C165 H170 0.931 1_554 S
C166 C165 1.351 . S
C166 N167 1.373 . S
C166 H194 0.930 . S
N167 C166 1.373 . S
N167 C169 1.340 . S
N168 C165 1.368 1_556 S
N168 C169 1.321 1_556 S
N168 Co171 2.135 . S
C169 N167 1.340 . S
C169 N168 1.321 1_554 S
C169 H193 0.930 . S
H170 C165 0.931 1_556 S
Co171 N168 2.135 . S
Co171 N174 2.121 . S
Co171 O179 2.055 . S
Co171 O182 2.039 . S
Co171 N185 2.140 . S
C172 O173 1.227 . S
C172 O182 1.265 . S
O173 C172 1.227 . S
N174 Co171 2.121 . S
N174 C176 1.375 . S
N174 C177 1.313 . S
C175 C176 1.338 . S
C175 N178 1.377 . S
C175 H195 0.930 . S
C176 N174 1.375 . S
C176 C175 1.338 . S
C176 H180 0.931 . S
C177 N174 1.313 . S
C177 N178 1.344 . S
C177 H181 0.930 . S
N178 C175 1.377 . S
N178 C177 1.344 . S
O179 Co171 2.055 . S
O179 C183 1.253 . S
H180 C176 0.931 . S
H181 C177 0.930 . S
O182 Co171 2.039 . S
O182 C172 1.265 . S
C183 O179 1.253 . S
C183 O184 1.227 . S
O184 C183 1.227 . S
N185 Co171 2.140 . S
N185 C188 1.346 . S
N185 C189 1.345 . S
C186 C187 1.387 . S
C186 C190 1.391 . S
C187 C186 1.387 . S
C187 C188 1.369 . S
C187 H196 0.929 . S
C188 N185 1.346 . S
C188 C187 1.369 . S
C188 H191 0.928 . S
C189 N185 1.345 . S
C189 C190 1.371 . S
C189 H192 0.931 . S
C190 C186 1.391 . S
C190 C189 1.371 . S
C190 H197 0.930 . S
H191 C188 0.928 . S
H192 C189 0.931 . S
H193 C169 0.930 . S
H194 C166 0.930 . S
H195 C175 0.930 . S
H196 C187 0.929 . S
H197 C190 0.930 . S
C198 C199 1.351 . S
C198 N201 1.368 1_556 S
C198 H203 0.931 1_556 S
C199 C198 1.351 . S
C199 N200 1.373 . S
C199 H227 0.930 . S
N200 C199 1.373 . S
N200 C202 1.340 . S
N201 C198 1.368 1_554 S
N201 C202 1.321 1_554 S
N201 Co204 2.135 . S
C202 N200 1.340 . S
C202 N201 1.321 1_556 S
C202 H226 0.930 . S
H203 C198 0.931 1_554 S
Co204 N201 2.135 . S
Co204 N207 2.121 . S
Co204 O212 2.055 . S
Co204 O215 2.039 . S
Co204 N218 2.140 . S
C205 O206 1.227 . S
C205 O215 1.265 . S
O206 C205 1.227 . S
N207 Co204 2.121 . S
N207 C209 1.375 . S
N207 C210 1.313 . S
C208 C209 1.338 . S
C208 N211 1.377 . S
C208 H228 0.930 . S
C209 N207 1.375 . S
C209 C208 1.338 . S
C209 H213 0.931 . S
C210 N207 1.313 . S
C210 N211 1.344 . S
C210 H214 0.930 . S
N211 C208 1.377 . S
N211 C210 1.344 . S
O212 Co204 2.055 . S
O212 C216 1.253 . S
H213 C209 0.931 . S
H214 C210 0.930 . S
O215 Co204 2.039 . S
O215 C205 1.265 . S
C216 O212 1.253 . S
C216 O217 1.227 . S
O217 C216 1.227 . S
N218 Co204 2.140 . S
N218 C221 1.346 . S
N218 C222 1.345 . S
C219 C220 1.387 . S
C219 C223 1.391 . S
C220 C219 1.387 . S
C220 C221 1.369 . S
C220 H229 0.929 . S
C221 N218 1.346 . S
C221 C220 1.369 . S
C221 H224 0.928 . S
C222 N218 1.345 . S
C222 C223 1.371 . S
C222 H225 0.931 . S
C223 C219 1.391 . S
C223 C222 1.371 . S
C223 H230 0.930 . S
H224 C221 0.928 . S
H225 C222 0.931 . S
H226 C202 0.930 . S
H227 C199 0.930 . S
H228 C208 0.930 . S
H229 C220 0.929 . S
H230 C223 0.930 . S
C231 C232 1.351 . S
C231 N234 1.368 . S
C231 H236 0.931 . S
C232 C231 1.351 . S
C232 N233 1.373 . S
C232 H260 0.930 . S
N233 C232 1.373 . S
N233 C235 1.340 . S
N234 C231 1.368 . S
N234 C235 1.321 . S
N234 Co237 2.135 . S
C235 N233 1.340 . S
C235 N234 1.321 . S
C235 H259 0.930 . S
H236 C231 0.931 . S
Co237 N234 2.135 . S
Co237 N240 2.121 . S
Co237 O245 2.055 . S
Co237 O248 2.039 . S
Co237 N251 2.140 . S
C238 O239 1.227 . S
C238 O248 1.265 . S
O239 C238 1.227 . S
N240 Co237 2.121 . S
N240 C242 1.375 . S
N240 C243 1.313 . S
C241 C242 1.338 . S
C241 N244 1.377 . S
C241 H261 0.930 . S
C242 N240 1.375 . S
C242 C241 1.338 . S
C242 H246 0.931 . S
C243 N240 1.313 . S
C243 N244 1.344 . S
C243 H247 0.930 . S
N244 C241 1.377 . S
N244 C243 1.344 . S
O245 Co237 2.055 . S
O245 C249 1.253 . S
H246 C242 0.931 . S
H247 C243 0.930 . S
O248 Co237 2.039 . S
O248 C238 1.265 . S
C249 O245 1.253 . S
C249 O250 1.227 . S
O250 C249 1.227 . S
N251 Co237 2.140 . S
N251 C254 1.346 . S
N251 C255 1.345 . S
C252 C253 1.387 . S
C252 C256 1.391 . S
C253 C252 1.387 . S
C253 C254 1.369 . S
C253 H262 0.929 . S
C254 N251 1.346 . S
C254 C253 1.369 . S
C254 H257 0.928 . S
C255 N251 1.345 . S
C255 C256 1.371 . S
C255 H258 0.931 . S
C256 C252 1.391 . S
C256 C255 1.371 . S
C256 H263 0.930 . S
H257 C254 0.928 . S
H258 C255 0.931 . S
H259 C235 0.930 . S
H260 C232 0.930 . S
H261 C241 0.930 . S
H262 C253 0.929 . S
H263 C256 0.930 . S
C264 C265 1.351 . S
C264 N267 1.368 1_556 S
C264 H269 0.931 1_556 S
C265 C264 1.351 . S
C265 N266 1.373 . S
C265 H293 0.930 . S
N266 C265 1.373 . S
N266 C268 1.340 . S
N267 C264 1.368 1_554 S
N267 C268 1.321 1_554 S
N267 Co270 2.135 . S
C268 N266 1.340 . S
C268 N267 1.321 1_556 S
C268 H292 0.930 . S
H269 C264 0.931 1_554 S
Co270 N267 2.135 . S
Co270 N273 2.121 . S
Co270 O278 2.055 . S
Co270 O281 2.039 . S
Co270 N284 2.140 . S
C271 O272 1.227 . S
C271 O281 1.265 . S
O272 C271 1.227 . S
N273 Co270 2.121 . S
N273 C275 1.375 . S
N273 C276 1.313 . S
C274 C275 1.338 . S
C274 N277 1.377 . S
C274 H294 0.930 . S
C275 N273 1.375 . S
C275 C274 1.338 . S
C275 H279 0.931 . S
C276 N273 1.313 . S
C276 N277 1.344 . S
C276 H280 0.930 . S
N277 C274 1.377 . S
N277 C276 1.344 . S
O278 Co270 2.055 . S
O278 C282 1.253 . S
H279 C275 0.931 . S
H280 C276 0.930 . S
O281 Co270 2.039 . S
O281 C271 1.265 . S
C282 O278 1.253 . S
C282 O283 1.227 . S
O283 C282 1.227 . S
N284 Co270 2.140 . S
N284 C287 1.346 . S
N284 C288 1.345 . S
C285 C286 1.387 . S
C285 C289 1.391 . S
C286 C285 1.387 . S
C286 C287 1.369 . S
C286 H295 0.929 . S
C287 N284 1.346 . S
C287 C286 1.369 . S
C287 H290 0.928 . S
C288 N284 1.345 . S
C288 C289 1.371 . S
C288 H291 0.931 . S
C289 C285 1.391 . S
C289 C288 1.371 . S
C289 H296 0.930 . S
H290 C287 0.928 . S
H291 C288 0.931 . S
H292 C268 0.930 . S
H293 C265 0.930 . S
H294 C274 0.930 . S
H295 C286 0.929 . S
H296 C289 0.930 . S
C297 C298 1.351 . S
C297 N300 1.368 . S
C297 H302 0.931 . S
C298 C297 1.351 . S
C298 N299 1.373 . S
C298 H326 0.930 . S
N299 C298 1.373 . S
N299 C301 1.340 . S
N300 C297 1.368 . S
N300 C301 1.321 . S
N300 Co303 2.135 . S
C301 N299 1.340 . S
C301 N300 1.321 . S
C301 H325 0.930 . S
H302 C297 0.931 . S
Co303 N300 2.135 . S
Co303 N306 2.121 . S
Co303 O311 2.055 . S
Co303 O314 2.039 . S
Co303 N317 2.140 . S
C304 O305 1.227 . S
C304 O314 1.265 . S
O305 C304 1.227 . S
N306 Co303 2.121 . S
N306 C308 1.375 . S
N306 C309 1.313 . S
C307 C308 1.338 . S
C307 N310 1.377 . S
C307 H327 0.930 . S
C308 N306 1.375 . S
C308 C307 1.338 . S
C308 H312 0.931 . S
C309 N306 1.313 . S
C309 N310 1.344 . S
C309 H313 0.930 . S
N310 C307 1.377 . S
N310 C309 1.344 . S
O311 Co303 2.055 . S
O311 C315 1.253 . S
H312 C308 0.931 . S
H313 C309 0.930 . S
O314 Co303 2.039 . S
O314 C304 1.265 . S
C315 O311 1.253 . S
C315 O316 1.227 . S
O316 C315 1.227 . S
N317 Co303 2.140 . S
N317 C320 1.346 . S
N317 C321 1.345 . S
C318 C319 1.387 . S
C318 C322 1.391 . S
C319 C318 1.387 . S
C319 C320 1.369 . S
C319 H328 0.929 . S
C320 N317 1.346 . S
C320 C319 1.369 . S
C320 H323 0.928 . S
C321 N317 1.345 . S
C321 C322 1.371 . S
C321 H324 0.931 . S
C322 C318 1.391 . S
C322 C321 1.371 . S
C322 H329 0.930 . S
H323 C320 0.928 . S
H324 C321 0.931 . S
H325 C301 0.930 . S
H326 C298 0.930 . S
H327 C307 0.930 . S
H328 C319 0.929 . S
H329 C322 0.930 . S
C330 C331 1.351 . S
C330 N333 1.368 1_556 S
C330 H335 0.931 1_556 S
C331 C330 1.351 . S
C331 N332 1.373 . S
C331 H359 0.930 . S
N332 C331 1.373 . S
N332 C334 1.340 . S
N333 C330 1.368 1_554 S
N333 C334 1.321 1_554 S
N333 Co336 2.135 . S
C334 N332 1.340 . S
C334 N333 1.321 1_556 S
C334 H358 0.930 . S
H335 C330 0.931 1_554 S
Co336 N333 2.135 . S
Co336 N339 2.121 . S
Co336 O344 2.055 . S
Co336 O347 2.039 . S
Co336 N350 2.140 . S
C337 O338 1.227 . S
C337 O347 1.265 . S
O338 C337 1.227 . S
N339 Co336 2.121 . S
N339 C341 1.375 . S
N339 C342 1.313 . S
C340 C341 1.338 . S
C340 N343 1.377 . S
C340 H360 0.930 . S
C341 N339 1.375 . S
C341 C340 1.338 . S
C341 H345 0.931 . S
C342 N339 1.313 . S
C342 N343 1.344 . S
C342 H346 0.930 . S
N343 C340 1.377 . S
N343 C342 1.344 . S
O344 Co336 2.055 . S
O344 C348 1.253 . S
H345 C341 0.931 . S
H346 C342 0.930 . S
O347 Co336 2.039 . S
O347 C337 1.265 . S
C348 O344 1.253 . S
C348 O349 1.227 . S
O349 C348 1.227 . S
N350 Co336 2.140 . S
N350 C353 1.346 . S
N350 C354 1.345 . S
C351 C352 1.387 . S
C351 C355 1.391 . S
C352 C351 1.387 . S
C352 C353 1.369 . S
C352 H361 0.929 . S
C353 N350 1.346 . S
C353 C352 1.369 . S
C353 H356 0.928 . S
C354 N350 1.345 . S
C354 C355 1.371 . S
C354 H357 0.931 . S
C355 C351 1.391 . S
C355 C354 1.371 . S
C355 H362 0.930 . S
H356 C353 0.928 . S
H357 C354 0.931 . S
H358 C334 0.930 . S
H359 C331 0.930 . S
H360 C340 0.930 . S
H361 C352 0.929 . S
H362 C355 0.930 . S
C363 C364 1.351 . S
C363 N366 1.368 . S
C363 H368 0.931 . S
C364 C363 1.351 . S
C364 N365 1.373 . S
C364 H392 0.930 . S
N365 C364 1.373 . S
N365 C367 1.340 . S
N366 C363 1.368 . S
N366 C367 1.321 . S
N366 Co369 2.135 . S
C367 N365 1.340 . S
C367 N366 1.321 . S
C367 H391 0.930 . S
H368 C363 0.931 . S
Co369 N366 2.135 . S
Co369 N372 2.121 . S
Co369 O377 2.055 . S
Co369 O380 2.039 . S
Co369 N383 2.140 . S
C370 O371 1.227 . S
C370 O380 1.265 . S
O371 C370 1.227 . S
N372 Co369 2.121 . S
N372 C374 1.375 . S
N372 C375 1.313 . S
C373 C374 1.338 . S
C373 N376 1.377 . S
C373 H393 0.930 . S
C374 N372 1.375 . S
C374 C373 1.338 . S
C374 H378 0.931 . S
C375 N372 1.313 . S
C375 N376 1.344 . S
C375 H379 0.930 . S
N376 C373 1.377 . S
N376 C375 1.344 . S
O377 Co369 2.055 . S
O377 C381 1.253 . S
H378 C374 0.931 . S
H379 C375 0.930 . S
O380 Co369 2.039 . S
O380 C370 1.265 . S
C381 O377 1.253 . S
C381 O382 1.227 . S
O382 C381 1.227 . S
N383 Co369 2.140 . S
N383 C386 1.346 . S
N383 C387 1.345 . S
C384 C385 1.387 . S
C384 C388 1.391 . S
C385 C384 1.387 . S
C385 C386 1.369 . S
C385 H394 0.929 . S
C386 N383 1.346 . S
C386 C385 1.369 . S
C386 H389 0.928 . S
C387 N383 1.345 . S
C387 C388 1.371 . S
C387 H390 0.931 . S
C388 C384 1.391 . S
C388 C387 1.371 . S
C388 H395 0.930 . S
H389 C386 0.928 . S
H390 C387 0.931 . S
H391 C367 0.930 . S
H392 C364 0.930 . S
H393 C373 0.930 . S
H394 C385 0.929 . S
H395 C388 0.930 . S
C396 C397 1.414 . S
C396 C398 1.390 1_455 S
C396 H400 0.925 . S
C397 C396 1.414 . S
C397 C406 1.429 . S
C398 C396 1.390 1_655 S
C398 C399 1.363 . S
C398 H401 0.929 . S
C399 C398 1.363 . S
C399 C405 1.443 . S
H400 C396 0.925 . S
H401 C398 0.929 . S
S402 N403 1.613 . S
S402 N404 1.610 . S
N403 S402 1.613 . S
N403 C406 1.350 . S
N404 S402 1.610 . S
N404 C405 1.345 1_455 S
C405 C399 1.443 . S
C405 N404 1.345 1_655 S
C405 C406 1.424 1_655 S
C406 C397 1.429 . S
C406 N403 1.350 . S
C406 C405 1.424 1_455 S
C407 C408 1.369 1_554 S
C407 C409 1.419 . S
C407 H411 0.930 . S
C408 C407 1.369 1_556 S
C408 C417 1.429 1_545 S
C409 C407 1.419 . S
C409 C410 1.363 1_545 S
C409 H412 0.929 . S
C410 C409 1.363 1_565 S
C410 C416 1.428 1_554 S
H411 C407 0.930 . S
H412 C409 0.929 . S
S413 N414 1.613 . S
S413 N415 1.610 . S
N414 S413 1.613 . S
N414 C417 1.350 . S
N415 S413 1.610 . S
N415 C416 1.351 . S
C416 C410 1.428 1_556 S
C416 N415 1.351 . S
C416 C417 1.434 . S
C417 C408 1.429 1_565 S
C417 N414 1.350 . S
C417 C416 1.434 . S
C418 C419 1.369 . S
C418 C420 1.419 . S
C418 H422 0.930 . S
C419 C418 1.369 . S
C419 C428 1.429 . S
C420 C418 1.419 . S
C420 C421 1.363 . S
C420 H423 0.929 . S
C421 C420 1.363 . S
C421 C427 1.428 . S
H422 C418 0.930 . S
H423 C420 0.929 . S
S424 N425 1.613 . S
S424 N426 1.610 . S
N425 S424 1.613 . S
N425 C428 1.350 . S
N426 S424 1.610 . S
N426 C427 1.351 . S
C427 C421 1.428 . S
C427 N426 1.351 . S
C427 C428 1.434 . S
C428 C419 1.429 . S
C428 N425 1.350 . S
C428 C427 1.434 . S
C429 C430 1.369 . S
C429 C431 1.419 1_454 S
C429 H433 0.930 . S
C430 C429 1.369 . S
C430 C439 1.429 1_554 S
C431 C429 1.419 1_656 S
C431 C432 1.362 . S
C431 H434 0.929 1_556 S
C432 C431 1.362 . S
C432 C438 1.428 . S
H433 C429 0.930 . S
H434 C431 0.929 1_554 S
S435 N436 1.613 . S
S435 N437 1.610 . S
N436 S435 1.613 . S
N436 C439 1.350 . S
N437 S435 1.610 . S
N437 C438 1.351 1_455 S
C438 C432 1.428 . S
C438 N437 1.351 1_655 S
C438 C439 1.434 1_655 S
C439 C430 1.429 1_556 S
C439 N436 1.350 . S
C439 C438 1.434 1_455 S
C440 C441 1.369 . S
C440 C442 1.419 . S
C440 H444 0.930 . S
C441 C440 1.369 . S
C441 C450 1.429 1_545 S
C442 C440 1.419 . S
C442 C443 1.363 1_545 S
C442 H445 0.929 . S
C443 C442 1.363 1_565 S
C443 C449 1.428 . S
H444 C440 0.930 . S
H445 C442 0.929 . S
S446 N447 1.613 . S
S446 N448 1.610 . S
N447 S446 1.613 . S
N447 C450 1.350 . S
N448 S446 1.610 . S
N448 C449 1.351 . S
C449 C443 1.428 . S
C449 N448 1.351 . S
C449 C450 1.434 . S
C450 C441 1.429 1_565 S
C450 N447 1.350 . S
C450 C449 1.434 . S
C451 C452 1.369 1_554 S
C451 C453 1.419 . S
C451 H455 0.930 . S
C452 C451 1.369 1_556 S
C452 C461 1.429 . S
C453 C451 1.419 . S
C453 C454 1.363 . S
C453 H456 0.929 . S
C454 C453 1.363 . S
C454 C460 1.428 1_554 S
H455 C451 0.930 . S
H456 C453 0.929 . S
S457 N458 1.613 . S
S457 N459 1.610 . S
N458 S457 1.613 . S
N458 C461 1.350 . S
N459 S457 1.610 . S
N459 C460 1.351 . S
C460 C454 1.428 1_556 S
C460 N459 1.351 . S
C460 C461 1.434 . S
C461 C452 1.429 . S
C461 N458 1.350 . S
C461 C460 1.434 . S
C462 C463 1.369 . S
C462 C464 1.419 . S
C462 H466 0.930 . S
C463 C462 1.369 . S
C463 C472 1.429 . S
C464 C462 1.419 . S
C464 C465 1.363 . S
C464 H467 0.929 . S
C465 C464 1.363 . S
C465 C471 1.428 . S
H466 C462 0.930 . S
H467 C464 0.929 . S
S468 N469 1.613 . S
S468 N470 1.610 . S
N469 S468 1.613 . S
N469 C472 1.350 . S
N470 S468 1.610 . S
N470 C471 1.351 . S
C471 C465 1.428 . S
C471 N470 1.351 . S
C471 C472 1.434 . S
C472 C463 1.429 . S
C472 N469 1.350 . S
C472 C471 1.434 . S
C473 C474 1.369 . S
C473 C475 1.419 . S
C473 H477 0.930 . S
C474 C473 1.369 . S
C474 C483 1.429 . S
C475 C473 1.419 . S
C475 C476 1.363 . S
C475 H478 0.929 . S
C476 C475 1.363 . S
C476 C482 1.428 . S
H477 C473 0.930 . S
H478 C475 0.929 . S
S479 N480 1.613 . S
S479 N481 1.610 . S
N480 S479 1.613 . S
N480 C483 1.350 . S
N481 S479 1.610 . S
N481 C482 1.351 . S
C482 C476 1.428 . S
C482 N481 1.351 . S
C482 C483 1.434 . S
C483 C474 1.429 . S
C483 N480 1.350 . S
C483 C482 1.434 . S
C484 C485 1.369 . S
C484 C486 1.419 . S
C484 H488 0.930 . S
C485 C484 1.369 . S
C485 C494 1.429 . S
C486 C484 1.419 . S
C486 C487 1.363 . S
C486 H489 0.929 . S
C487 C486 1.363 . S
C487 C493 1.428 . S
H488 C484 0.930 . S
H489 C486 0.929 . S
S490 N491 1.613 . S
S490 N492 1.610 . S
N491 S490 1.613 . S
N491 C494 1.350 . S
N492 S490 1.610 . S
N492 C493 1.351 . S
C493 C487 1.428 . S
C493 N492 1.351 . S
C493 C494 1.434 . S
C494 C485 1.429 . S
C494 N491 1.350 . S
C494 C493 1.434 . S
C495 C496 1.369 . S
C495 C497 1.419 . S
C495 H499 0.930 . S
C496 C495 1.369 . S
C496 C505 1.429 . S
C497 C495 1.419 . S
C497 C498 1.363 . S
C497 H500 0.929 . S
C498 C497 1.363 . S
C498 C504 1.428 . S
H499 C495 0.930 . S
H500 C497 0.929 . S
S501 N502 1.613 . S
S501 N503 1.610 . S
N502 S501 1.613 . S
N502 C505 1.350 . S
N503 S501 1.610 . S
N503 C504 1.351 . S
C504 C498 1.428 . S
C504 N503 1.351 . S
C504 C505 1.434 . S
C505 C496 1.429 . S
C505 N502 1.350 . S
C505 C504 1.434 . S
C506 C507 1.369 . S
C506 C508 1.419 . S
C506 H510 0.930 . S
C507 C506 1.369 . S
C507 C516 1.429 . S
C508 C506 1.419 . S
C508 C509 1.363 . S
C508 H511 0.929 . S
C509 C508 1.363 . S
C509 C515 1.428 . S
H510 C506 0.930 . S
H511 C508 0.929 . S
S512 N513 1.613 . S
S512 N514 1.610 . S
N513 S512 1.613 . S
N513 C516 1.350 . S
N514 S512 1.610 . S
N514 C515 1.351 . S
C515 C509 1.428 . S
C515 N514 1.351 . S
C515 C516 1.434 . S
C516 C507 1.429 . S
C516 N513 1.350 . S
C516 C515 1.434 . S
C517 C518 1.369 . S
C517 C519 1.419 . S
C517 H521 0.930 . S
C518 C517 1.369 . S
C518 C527 1.429 . S
C519 C517 1.419 . S
C519 C520 1.363 . S
C519 H522 0.929 . S
C520 C519 1.363 . S
C520 C526 1.428 . S
H521 C517 0.930 . S
H522 C519 0.929 . S
S523 N524 1.613 . S
S523 N525 1.610 . S
N524 S523 1.613 . S
N524 C527 1.350 . S
N525 S523 1.610 . S
N525 C526 1.351 . S
C526 C520 1.428 . S
C526 N525 1.351 . S
C526 C527 1.434 . S
C527 C518 1.429 . S
C527 N524 1.350 . S
C527 C526 1.434 . S
C528 C529 1.369 . S
C528 C530 1.419 . S
C528 H532 0.930 . S
C529 C528 1.369 . S
C529 C538 1.429 . S
C530 C528 1.419 . S
C530 C531 1.363 . S
C530 H533 0.929 . S
C531 C530 1.363 . S
C531 C537 1.428 . S
H532 C528 0.930 . S
H533 C530 0.929 . S
S534 N535 1.613 . S
S534 N536 1.610 . S
N535 S534 1.613 . S
N535 C538 1.350 . S
N536 S534 1.610 . S
N536 C537 1.351 . S
C537 C531 1.428 . S
C537 N536 1.351 . S
C537 C538 1.434 . S
C538 C529 1.429 . S
C538 N535 1.350 . S
C538 C537 1.434 . S
C539 C540 1.369 . S
C539 C541 1.419 . S
C539 H543 0.930 . S
C540 C539 1.369 . S
C540 C549 1.429 . S
C541 C539 1.419 . S
C541 C542 1.363 . S
C541 H544 0.929 . S
C542 C541 1.363 . S
C542 C548 1.428 . S
H543 C539 0.930 . S
H544 C541 0.929 . S
S545 N546 1.613 . S
S545 N547 1.610 . S
N546 S545 1.613 . S
N546 C549 1.350 . S
N547 S545 1.610 . S
N547 C548 1.351 . S
C548 C542 1.428 . S
C548 N547 1.351 . S
C548 C549 1.434 . S
C549 C540 1.429 . S
C549 N546 1.350 . S
C549 C548 1.434 . S
C550 C551 1.369 . S
C550 C552 1.419 . S
C550 H554 0.930 . S
C551 C550 1.369 . S
C551 C560 1.429 . S
C552 C550 1.419 . S
C552 C553 1.363 . S
C552 H555 0.929 . S
C553 C552 1.363 . S
C553 C559 1.428 . S
H554 C550 0.930 . S
H555 C552 0.929 . S
S556 N557 1.613 . S
S556 N558 1.610 . S
N557 S556 1.613 . S
N557 C560 1.350 . S
N558 S556 1.610 . S
N558 C559 1.351 . S
C559 C553 1.428 . S
C559 N558 1.351 . S
C559 C560 1.434 . S
C560 C551 1.429 . S
C560 N557 1.350 . S
C560 C559 1.434 . S
C561 C562 1.369 . S
C561 C563 1.419 . S
C561 H565 0.930 . S
C562 C561 1.369 . S
C562 C571 1.429 . S
C563 C561 1.419 . S
C563 C564 1.363 . S
C563 H566 0.929 . S
C564 C563 1.363 . S
C564 C570 1.428 . S
H565 C561 0.930 . S
H566 C563 0.929 . S
S567 N568 1.613 . S
S567 N569 1.610 . S
N568 S567 1.613 . S
N568 C571 1.350 . S
N569 S567 1.610 . S
N569 C570 1.351 . S
C570 C564 1.428 . S
C570 N569 1.351 . S
C570 C571 1.434 . S
C571 C562 1.429 . S
C571 N568 1.350 . S
C571 C570 1.434 . S
C572 C573 1.369 . S
C572 C574 1.419 . S
C572 H576 0.930 . S
C573 C572 1.369 . S
C573 C582 1.429 . S
C574 C572 1.419 . S
C574 C575 1.363 . S
C574 H577 0.929 . S
C575 C574 1.363 . S
C575 C581 1.428 . S
H576 C572 0.930 . S
H577 C574 0.929 . S
S578 N579 1.613 . S
S578 N580 1.610 . S
N579 S578 1.613 . S
N579 C582 1.350 . S
N580 S578 1.610 . S
N580 C581 1.351 . S
C581 C575 1.428 . S
C581 N580 1.351 . S
C581 C582 1.434 . S
C582 C573 1.429 . S
C582 N579 1.350 . S
C582 C581 1.434 . S
C583 C584 1.369 . S
C583 C585 1.419 . S
C583 H587 0.930 . S
C584 C583 1.369 . S
C584 C593 1.429 . S
C585 C583 1.419 . S
C585 C586 1.363 . S
C585 H588 0.929 . S
C586 C585 1.363 . S
C586 C592 1.428 . S
H587 C583 0.930 . S
H588 C585 0.929 . S
S589 N590 1.613 . S
S589 N591 1.610 . S
N590 S589 1.613 . S
N590 C593 1.350 . S
N591 S589 1.610 . S
N591 C592 1.351 . S
C592 C586 1.428 . S
C592 N591 1.351 . S
C592 C593 1.434 . S
C593 C584 1.429 . S
C593 N590 1.350 . S
C593 C592 1.434 . S
C594 C595 1.369 . S
C594 C596 1.419 . S
C594 H598 0.930 . S
C595 C594 1.369 . S
C595 C604 1.429 . S
C596 C594 1.419 . S
C596 C597 1.363 . S
C596 H599 0.929 . S
C597 C596 1.363 . S
C597 C603 1.428 . S
H598 C594 0.930 . S
H599 C596 0.929 . S
S600 N601 1.613 . S
S600 N602 1.610 . S
N601 S600 1.613 . S
N601 C604 1.350 . S
N602 S600 1.610 . S
N602 C603 1.351 . S
C603 C597 1.428 . S
C603 N602 1.351 . S
C603 C604 1.434 . S
C604 C595 1.429 . S
C604 N601 1.350 . S
C604 C603 1.434 . S
C605 C606 1.369 . S
C605 C607 1.419 . S
C605 H609 0.930 . S
C606 C605 1.369 . S
C606 C615 1.429 . S
C607 C605 1.419 . S
C607 C608 1.363 . S
C607 H610 0.929 . S
C608 C607 1.363 . S
C608 C614 1.428 . S
H609 C605 0.930 . S
H610 C607 0.929 . S
S611 N612 1.613 . S
S611 N613 1.610 . S
N612 S611 1.613 . S
N612 C615 1.350 . S
N613 S611 1.610 . S
N613 C614 1.351 . S
C614 C608 1.428 . S
C614 N613 1.351 . S
C614 C615 1.434 . S
C615 C606 1.429 . S
C615 N612 1.350 . S
C615 C614 1.434 . S
C616 C617 1.369 . S
C616 C618 1.419 . S
C616 H620 0.930 . S
C617 C616 1.369 . S
C617 C626 1.429 . S
C618 C616 1.419 . S
C618 C619 1.363 . S
C618 H621 0.929 . S
C619 C618 1.363 . S
C619 C625 1.428 . S
H620 C616 0.930 . S
H621 C618 0.929 . S
S622 N623 1.613 . S
S622 N624 1.610 . S
N623 S622 1.613 . S
N623 C626 1.350 . S
N624 S622 1.610 . S
N624 C625 1.351 . S
C625 C619 1.428 . S
C625 N624 1.351 . S
C625 C626 1.434 . S
C626 C617 1.429 . S
C626 N623 1.350 . S
C626 C625 1.434 . S
C627 C628 1.369 . S
C627 C629 1.419 . S
C627 H631 0.930 . S
C628 C627 1.369 . S
C628 C637 1.429 . S
C629 C627 1.419 . S
C629 C630 1.363 . S
C629 H632 0.929 . S
C630 C629 1.363 . S
C630 C636 1.428 . S
H631 C627 0.930 . S
H632 C629 0.929 . S
S633 N634 1.613 . S
S633 N635 1.610 . S
N634 S633 1.613 . S
N634 C637 1.350 . S
N635 S633 1.610 . S
N635 C636 1.351 . S
C636 C630 1.428 . S
C636 N635 1.351 . S
C636 C637 1.434 . S
C637 C628 1.429 . S
C637 N634 1.350 . S
C637 C636 1.434 . S
C638 C639 1.369 . S
C638 C640 1.419 . S
C638 H642 0.930 . S
C639 C638 1.369 . S
C639 C648 1.429 . S
C640 C638 1.419 . S
C640 C641 1.363 . S
C640 H643 0.929 . S
C641 C640 1.363 . S
C641 C647 1.428 . S
H642 C638 0.930 . S
H643 C640 0.929 . S
S644 N645 1.613 . S
S644 N646 1.610 . S
N645 S644 1.613 . S
N645 C648 1.350 . S
N646 S644 1.610 . S
N646 C647 1.351 . S
C647 C641 1.428 . S
C647 N646 1.351 . S
C647 C648 1.434 . S
C648 C639 1.429 . S
C648 N645 1.350 . S
C648 C647 1.434 . S
C649 C650 1.369 . S
C649 C651 1.419 . S
C649 H653 0.930 . S
C650 C649 1.369 . S
C650 C659 1.429 . S
C651 C649 1.419 . S
C651 C652 1.363 . S
C651 H654 0.929 . S
C652 C651 1.363 . S
C652 C658 1.428 . S
H653 C649 0.930 . S
H654 C651 0.929 . S
S655 N656 1.613 . S
S655 N657 1.610 . S
N656 S655 1.613 . S
N656 C659 1.350 . S
N657 S655 1.610 . S
N657 C658 1.351 . S
C658 C652 1.428 . S
C658 N657 1.351 . S
C658 C659 1.434 . S
C659 C650 1.429 . S
C659 N656 1.350 . S
C659 C658 1.434 . S
C660 C661 1.369 . S
C660 C662 1.419 . S
C660 H664 0.930 . S
C661 C660 1.369 . S
C661 C670 1.429 . S
C662 C660 1.419 . S
C662 C663 1.363 . S
C662 H665 0.929 . S
C663 C662 1.363 . S
C663 C669 1.428 . S
H664 C660 0.930 . S
H665 C662 0.929 . S
S666 N667 1.613 . S
S666 N668 1.610 . S
N667 S666 1.613 . S
N667 C670 1.350 . S
N668 S666 1.610 . S
N668 C669 1.351 . S
C669 C663 1.428 . S
C669 N668 1.351 . S
C669 C670 1.434 . S
C670 C661 1.429 . S
C670 N667 1.350 . S
C670 C669 1.434 . S
C671 C672 1.369 . S
C671 C673 1.419 . S
C671 H675 0.930 . S
C672 C671 1.369 . S
C672 C681 1.429 . S
C673 C671 1.419 . S
C673 C674 1.363 . S
C673 H676 0.929 . S
C674 C673 1.363 . S
C674 C680 1.428 . S
H675 C671 0.930 . S
H676 C673 0.929 . S
S677 N678 1.613 . S
S677 N679 1.610 . S
N678 S677 1.613 . S
N678 C681 1.350 . S
N679 S677 1.610 . S
N679 C680 1.351 . S
C680 C674 1.428 . S
C680 N679 1.351 . S
C680 C681 1.434 . S
C681 C672 1.429 . S
C681 N678 1.350 . S
C681 C680 1.434 . S
C682 C683 1.369 . S
C682 C684 1.419 . S
C682 H686 0.930 . S
C683 C682 1.369 . S
C683 C692 1.429 . S
C684 C682 1.419 . S
C684 C685 1.363 . S
C684 H687 0.929 . S
C685 C684 1.363 . S
C685 C691 1.428 . S
H686 C682 0.930 . S
H687 C684 0.929 . S
S688 N689 1.613 . S
S688 N690 1.610 . S
N689 S688 1.613 . S
N689 C692 1.350 . S
N690 S688 1.610 . S
N690 C691 1.351 . S
C691 C685 1.428 . S
C691 N690 1.351 . S
C691 C692 1.434 . S
C692 C683 1.429 . S
C692 N689 1.350 . S
C692 C691 1.434 . S
C693 C694 1.369 . S
C693 C695 1.419 . S
C693 H697 0.930 . S
C694 C693 1.369 . S
C694 C703 1.429 . S
C695 C693 1.419 . S
C695 C696 1.363 . S
C695 H698 0.929 . S
C696 C695 1.363 . S
C696 C702 1.428 . S
H697 C693 0.930 . S
H698 C695 0.929 . S
S699 N700 1.613 . S
S699 N701 1.610 . S
N700 S699 1.613 . S
N700 C703 1.350 . S
N701 S699 1.610 . S
N701 C702 1.351 . S
C702 C696 1.428 . S
C702 N701 1.351 . S
C702 C703 1.434 . S
C703 C694 1.429 . S
C703 N700 1.350 . S
C703 C702 1.434 . S
C704 C705 1.369 . S
C704 C706 1.419 . S
C704 H708 0.930 . S
C705 C704 1.369 . S
C705 C714 1.429 . S
C706 C704 1.419 . S
C706 C707 1.363 . S
C706 H709 0.929 . S
C707 C706 1.363 . S
C707 C713 1.428 . S
H708 C704 0.930 . S
H709 C706 0.929 . S
S710 N711 1.613 . S
S710 N712 1.610 . S
N711 S710 1.613 . S
N711 C714 1.350 . S
N712 S710 1.610 . S
N712 C713 1.351 . S
C713 C707 1.428 . S
C713 N712 1.351 . S
C713 C714 1.434 . S
C714 C705 1.429 . S
C714 N711 1.350 . S
C714 C713 1.434 . S
C715 C716 1.369 . S
C715 C717 1.419 . S
C715 H719 0.930 . S
C716 C715 1.369 . S
C716 C725 1.429 . S
C717 C715 1.419 . S
C717 C718 1.363 . S
C717 H720 0.929 . S
C718 C717 1.363 . S
C718 C724 1.428 . S
H719 C715 0.930 . S
H720 C717 0.929 . S
S721 N722 1.613 . S
S721 N723 1.610 . S
N722 S721 1.613 . S
N722 C725 1.350 . S
N723 S721 1.610 . S
N723 C724 1.351 . S
C724 C718 1.428 . S
C724 N723 1.351 . S
C724 C725 1.434 . S
C725 C716 1.429 . S
C725 N722 1.350 . S
C725 C724 1.434 . S
C397 C7 1.381 . S
C399 C370 1.383 . S
C408 C40 1.383 . S
C410 C205 1.375 . S
C419 C238 1.384 . S
C421 C73 1.377 . S
C430 C271 1.372 . S
C432 C106 1.380 . S
C441 C304 1.379 . S
C443 C139 1.374 . S
C452 C172 1.381 . S
C454 C337 1.373 . S
C463 C285 1.611 . S
C465 C21 1.612 . S
C474 C318 1.612 . S
C476 C54 1.611 . S
C485 C87 1.611 . S
C487 C351 1.614 . S
C496 C120 1.614 . S
C498 C384 1.610 . S
C507 C219 1.614 . S
C509 C153 1.612 . S
C518 C186 1.614 . S
C520 C252 1.611 . S
C529 N2 1.387 . S
C531 N13 1.382 1_556 S
C540 N46 1.381 . S
C542 N35 1.386 . S
C551 N68 1.387 . S
C553 N79 1.383 1_556 S
C562 N112 1.381 . S
C564 N101 1.386 . S
C573 N134 1.385 . S
C575 N145 1.384 1_556 S
C584 N178 1.381 . S
C586 N167 1.387 . S
C595 N211 1.387 . S
C597 N200 1.382 . S
C606 N233 1.380 . S
C608 N244 1.388 1_554 S
C617 N277 1.382 . S
C619 N266 1.386 . S
C628 N310 1.385 1_554 S
C630 N299 1.384 . S
C639 N332 1.387 . S
C641 N343 1.382 . S
C650 N365 1.381 . S
C652 N376 1.387 1_554 S
C661 C18 1.365 . S
C663 C348 1.366 . S
C672 C381 1.368 . S
C674 C51 1.369 . S
C683 C216 1.365 . S
C685 C84 1.366 . S
C694 C117 1.366 . S
C696 C249 1.366 . S
C705 C150 1.367 . S
C707 C282 1.367 . S
C716 C183 1.365 . S
C718 C315 1.366 . S
