# Generated by pormake.
# Topology vbb, (4)-cn, num edge types: 1
# Building blocks:
#     Node 0, Type 0, BuildingBlock: NAWXER_clean_sbu_0, # of connection points: 4
#     Node 1, Type 0, BuildingBlock: NAWXER_clean_sbu_0, # of connection points: 4
#     Node 2, Type 0, BuildingBlock: NAWXER_clean_sbu_0, # of connection points: 4
#     Node 3, Type 0, BuildingBlock: NAWXER_clean_sbu_0, # of connection points: 4
#     Node 4, Type 0, BuildingBlock: NAWXER_clean_sbu_0, # of connection points: 4
#     Node 5, Type 0, BuildingBlock: NAWXER_clean_sbu_0, # of connection points: 4
#     Node 6, Type 0, BuildingBlock: NAWXER_clean_sbu_0, # of connection points: 4
#     Node 7, Type 0, BuildingBlock: NAWXER_clean_sbu_0, # of connection points: 4
#     Node 8, Type 0, BuildingBlock: NAWXER_clean_sbu_0, # of connection points: 4
#     Node 9, Type 0, BuildingBlock: NAWXER_clean_sbu_0, # of connection points: 4
#     Node 10, Type 0, BuildingBlock: NAWXER_clean_sbu_0, # of connection points: 4
#     Node 11, Type 0, BuildingBlock: NAWXER_clean_sbu_0, # of connection points: 4
#     Node 12, Type 0, BuildingBlock: NAWXER_clean_sbu_0, # of connection points: 4
#     Node 13, Type 0, BuildingBlock: NAWXER_clean_sbu_0, # of connection points: 4
#     Node 14, Type 0, BuildingBlock: NAWXER_clean_sbu_0, # of connection points: 4
#     Node 15, Type 0, BuildingBlock: NAWXER_clean_sbu_0, # of connection points: 4
#     Node 16, Type 0, BuildingBlock: NAWXER_clean_sbu_0, # of connection points: 4
#     Node 17, Type 0, BuildingBlock: NAWXER_clean_sbu_0, # of connection points: 4
#     Node 18, Type 0, BuildingBlock: NAWXER_clean_sbu_0, # of connection points: 4
#     Node 19, Type 0, BuildingBlock: NAWXER_clean_sbu_0, # of connection points: 4
#     Node 20, Type 0, BuildingBlock: NAWXER_clean_sbu_0, # of connection points: 4
#     Node 21, Type 0, BuildingBlock: NAWXER_clean_sbu_0, # of connection points: 4
#     Node 22, Type 0, BuildingBlock: NAWXER_clean_sbu_0, # of connection points: 4
#     Node 23, Type 0, BuildingBlock: NAWXER_clean_sbu_0, # of connection points: 4
#     Node 24, Type 0, BuildingBlock: NAWXER_clean_sbu_0, # of connection points: 4
#     Node 25, Type 0, BuildingBlock: NAWXER_clean_sbu_0, # of connection points: 4
#     Node 26, Type 0, BuildingBlock: NAWXER_clean_sbu_0, # of connection points: 4
#     Node 27, Type 0, BuildingBlock: NAWXER_clean_sbu_0, # of connection points: 4
#     Node 28, Type 0, BuildingBlock: NAWXER_clean_sbu_0, # of connection points: 4
#     Node 29, Type 0, BuildingBlock: NAWXER_clean_sbu_0, # of connection points: 4
#     Node 30, Type 0, BuildingBlock: NAWXER_clean_sbu_0, # of connection points: 4
#     Node 31, Type 0, BuildingBlock: NAWXER_clean_sbu_0, # of connection points: 4
#     Edge 32, Type (0, 0), BuildingBlock: KIFKEQ_clean_linker_1, # of connection points: 2
#     Edge 33, Type (0, 0), BuildingBlock: KIFKEQ_clean_linker_1, # of connection points: 2
#     Edge 34, Type (0, 0), BuildingBlock: KIFKEQ_clean_linker_1, # of connection points: 2
#     Edge 35, Type (0, 0), BuildingBlock: KIFKEQ_clean_linker_1, # of connection points: 2
#     Edge 36, Type (0, 0), BuildingBlock: KIFKEQ_clean_linker_1, # of connection points: 2
#     Edge 37, Type (0, 0), BuildingBlock: KIFKEQ_clean_linker_1, # of connection points: 2
#     Edge 38, Type (0, 0), BuildingBlock: KIFKEQ_clean_linker_1, # of connection points: 2
#     Edge 39, Type (0, 0), BuildingBlock: KIFKEQ_clean_linker_1, # of connection points: 2
#     Edge 40, Type (0, 0), BuildingBlock: KIFKEQ_clean_linker_1, # of connection points: 2
#     Edge 41, Type (0, 0), BuildingBlock: KIFKEQ_clean_linker_1, # of connection points: 2
#     Edge 42, Type (0, 0), BuildingBlock: KIFKEQ_clean_linker_1, # of connection points: 2
#     Edge 43, Type (0, 0), BuildingBlock: KIFKEQ_clean_linker_1, # of connection points: 2
#     Edge 44, Type (0, 0), BuildingBlock: KIFKEQ_clean_linker_1, # of connection points: 2
#     Edge 45, Type (0, 0), BuildingBlock: KIFKEQ_clean_linker_1, # of connection points: 2
#     Edge 46, Type (0, 0), BuildingBlock: KIFKEQ_clean_linker_1, # of connection points: 2
#     Edge 47, Type (0, 0), BuildingBlock: KIFKEQ_clean_linker_1, # of connection points: 2
#     Edge 48, Type (0, 0), BuildingBlock: KIFKEQ_clean_linker_1, # of connection points: 2
#     Edge 49, Type (0, 0), BuildingBlock: KIFKEQ_clean_linker_1, # of connection points: 2
#     Edge 50, Type (0, 0), BuildingBlock: KIFKEQ_clean_linker_1, # of connection points: 2
#     Edge 51, Type (0, 0), BuildingBlock: KIFKEQ_clean_linker_1, # of connection points: 2
#     Edge 52, Type (0, 0), BuildingBlock: KIFKEQ_clean_linker_1, # of connection points: 2
#     Edge 53, Type (0, 0), BuildingBlock: KIFKEQ_clean_linker_1, # of connection points: 2
#     Edge 54, Type (0, 0), BuildingBlock: KIFKEQ_clean_linker_1, # of connection points: 2
#     Edge 55, Type (0, 0), BuildingBlock: KIFKEQ_clean_linker_1, # of connection points: 2
#     Edge 56, Type (0, 0), BuildingBlock: KIFKEQ_clean_linker_1, # of connection points: 2
#     Edge 57, Type (0, 0), BuildingBlock: KIFKEQ_clean_linker_1, # of connection points: 2
#     Edge 58, Type (0, 0), BuildingBlock: KIFKEQ_clean_linker_1, # of connection points: 2
#     Edge 59, Type (0, 0), BuildingBlock: KIFKEQ_clean_linker_1, # of connection points: 2
#     Edge 60, Type (0, 0), BuildingBlock: KIFKEQ_clean_linker_1, # of connection points: 2
#     Edge 61, Type (0, 0), BuildingBlock: KIFKEQ_clean_linker_1, # of connection points: 2
#     Edge 62, Type (0, 0), BuildingBlock: KIFKEQ_clean_linker_1, # of connection points: 2
#     Edge 63, Type (0, 0), BuildingBlock: KIFKEQ_clean_linker_1, # of connection points: 2
#     Edge 64, Type (0, 0), BuildingBlock: KIFKEQ_clean_linker_1, # of connection points: 2
#     Edge 65, Type (0, 0), BuildingBlock: KIFKEQ_clean_linker_1, # of connection points: 2
#     Edge 66, Type (0, 0), BuildingBlock: KIFKEQ_clean_linker_1, # of connection points: 2
#     Edge 67, Type (0, 0), BuildingBlock: KIFKEQ_clean_linker_1, # of connection points: 2
#     Edge 68, Type (0, 0), BuildingBlock: KIFKEQ_clean_linker_1, # of connection points: 2
#     Edge 69, Type (0, 0), BuildingBlock: KIFKEQ_clean_linker_1, # of connection points: 2
#     Edge 70, Type (0, 0), BuildingBlock: KIFKEQ_clean_linker_1, # of connection points: 2
#     Edge 71, Type (0, 0), BuildingBlock: KIFKEQ_clean_linker_1, # of connection points: 2
#     Edge 72, Type (0, 0), BuildingBlock: KIFKEQ_clean_linker_1, # of connection points: 2
#     Edge 73, Type (0, 0), BuildingBlock: KIFKEQ_clean_linker_1, # of connection points: 2
#     Edge 74, Type (0, 0), BuildingBlock: KIFKEQ_clean_linker_1, # of connection points: 2
#     Edge 75, Type (0, 0), BuildingBlock: KIFKEQ_clean_linker_1, # of connection points: 2
#     Edge 76, Type (0, 0), BuildingBlock: KIFKEQ_clean_linker_1, # of connection points: 2
#     Edge 77, Type (0, 0), BuildingBlock: KIFKEQ_clean_linker_1, # of connection points: 2
#     Edge 78, Type (0, 0), BuildingBlock: KIFKEQ_clean_linker_1, # of connection points: 2
#     Edge 79, Type (0, 0), BuildingBlock: KIFKEQ_clean_linker_1, # of connection points: 2
#     Edge 80, Type (0, 0), BuildingBlock: KIFKEQ_clean_linker_1, # of connection points: 2
#     Edge 81, Type (0, 0), BuildingBlock: KIFKEQ_clean_linker_1, # of connection points: 2
#     Edge 82, Type (0, 0), BuildingBlock: KIFKEQ_clean_linker_1, # of connection points: 2
#     Edge 83, Type (0, 0), BuildingBlock: KIFKEQ_clean_linker_1, # of connection points: 2
#     Edge 84, Type (0, 0), BuildingBlock: KIFKEQ_clean_linker_1, # of connection points: 2
#     Edge 85, Type (0, 0), BuildingBlock: KIFKEQ_clean_linker_1, # of connection points: 2
#     Edge 86, Type (0, 0), BuildingBlock: KIFKEQ_clean_linker_1, # of connection points: 2
#     Edge 87, Type (0, 0), BuildingBlock: KIFKEQ_clean_linker_1, # of connection points: 2
#     Edge 88, Type (0, 0), BuildingBlock: KIFKEQ_clean_linker_1, # of connection points: 2
#     Edge 89, Type (0, 0), BuildingBlock: KIFKEQ_clean_linker_1, # of connection points: 2
#     Edge 90, Type (0, 0), BuildingBlock: KIFKEQ_clean_linker_1, # of connection points: 2
#     Edge 91, Type (0, 0), BuildingBlock: KIFKEQ_clean_linker_1, # of connection points: 2
#     Edge 92, Type (0, 0), BuildingBlock: KIFKEQ_clean_linker_1, # of connection points: 2
#     Edge 93, Type (0, 0), BuildingBlock: KIFKEQ_clean_linker_1, # of connection points: 2
#     Edge 94, Type (0, 0), BuildingBlock: KIFKEQ_clean_linker_1, # of connection points: 2
#     Edge 95, Type (0, 0), BuildingBlock: KIFKEQ_clean_linker_1, # of connection points: 2
# Relax obj value: 0.012
# Max RMSD: 0.099
# Mean RMSD: 0.097
data_MOF--net-vbb--node1-NAWXER_clean_sbu_0--edge1-KIFKEQ_clean_linker_1
_symmetry_space_group_name_H-M    P1
_symmetry_Int_Tables_number       1
_symmetry_cell_setting            triclinic
loop_
_symmetry_equiv_pos_as_xyz
'x, y, z'
_cell_length_a     55.290786
_cell_length_b     23.58458
_cell_length_c     117.15785
_cell_angle_alpha  89.915272
_cell_angle_beta   89.996075
_cell_angle_gamma 89.988596
loop_
_atom_site_label
_atom_site_type_symbol
_atom_site_fract_x
_atom_site_fract_y
_atom_site_fract_z
_atom_type_partial_charge
C0 C 0.54997 0.03517 0.07509 0.0
C1 C 0.46752 0.95559 0.07609 0.0
O2 O 0.53281 0.06969 0.07277 0.0
Zn3 Zn 0.49481 0.07279 0.07105 0.0
O4 O 0.54509 0.98326 0.07714 0.0
Zn5 Zn 0.50982 0.98886 0.07544 0.0
O6 O 0.50574 0.0041 0.05785 0.0
O7 O 0.49105 0.08972 0.05469 0.0
O8 O 0.48665 0.92684 0.078 0.0
O9 O 0.46925 0.00802 0.07345 0.0
O10 O 0.48578 0.12342 0.0838 0.0
O11 O 0.5017 0.04178 0.08929 0.0
C12 C 0.49865 0.04234 0.05086 0.0
C13 C 0.49288 0.09028 0.09175 0.0
C14 C 0.71797 0.20445 0.07624 0.0
C15 C 0.79949 0.28944 0.07528 0.0
O16 O 0.73532 0.17086 0.07375 0.0
Zn17 Zn 0.77301 0.16994 0.07136 0.0
O18 O 0.72246 0.25669 0.07809 0.0
Zn19 Zn 0.75767 0.25347 0.07576 0.0
O20 O 0.76072 0.23731 0.05815 0.0
O21 O 0.77578 0.15208 0.05499 0.0
O22 O 0.78027 0.31733 0.07751 0.0
O23 O 0.79805 0.23667 0.07292 0.0
O24 O 0.78381 0.12136 0.08414 0.0
O25 O 0.76873 0.2035 0.08964 0.0
C26 C 0.76767 0.19905 0.05116 0.0
C27 C 0.77839 0.15586 0.09213 0.0
C28 C 0.50103 0.19741 0.21731 0.0
C29 C 0.49276 0.14928 0.17657 0.0
O30 O 0.50819 0.23525 0.21025 0.0
Zn31 Zn 0.51071 0.25085 0.19258 0.0
O32 O 0.49201 0.15126 0.21357 0.0
Zn33 Zn 0.49543 0.16762 0.19719 0.0
O34 O 0.5335 0.16984 0.19512 0.0
O35 O 0.54581 0.25591 0.19042 0.0
O36 O 0.48572 0.11675 0.18462 0.0
O37 O 0.50192 0.19764 0.17886 0.0
O38 O 0.48758 0.31341 0.19029 0.0
O39 O 0.4701 0.23265 0.19498 0.0
C40 C 0.55064 0.20403 0.19255 0.0
C41 C 0.46843 0.28507 0.19237 0.0
C42 C 0.71878 0.03567 0.19179 0.0
C43 C 0.80008 0.95029 0.1941 0.0
O44 O 0.73603 0.06942 0.19437 0.0
Zn45 Zn 0.77371 0.07023 0.19711 0.0
O46 O 0.72333 0.98329 0.19013 0.0
Zn47 Zn 0.75832 0.98668 0.19295 0.0
O48 O 0.75972 0.00571 0.21053 0.0
O49 O 0.77611 0.08989 0.21337 0.0
O50 O 0.78091 0.92229 0.19186 0.0
O51 O 0.79863 0.00335 0.19615 0.0
O52 O 0.78509 0.11746 0.18429 0.0
O53 O 0.77022 0.03487 0.17893 0.0
C54 C 0.76666 0.04469 0.21737 0.0
C55 C 0.78009 0.08219 0.17638 0.0
C56 C 0.5146 0.94772 0.96701 0.0
C57 C 0.52924 0.91083 0.92611 0.0
O58 O 0.52432 0.90268 0.9631 0.0
Zn59 Zn 0.52243 0.92257 0.94682 0.0
O60 O 0.50786 0.98673 0.96011 0.0
Zn61 Zn 0.50703 0.00612 0.94254 0.0
O62 O 0.47209 0.00927 0.93949 0.0
O63 O 0.48479 0.92321 0.94387 0.0
O64 O 0.51925 0.95805 0.92862 0.0
O65 O 0.53421 0.87558 0.93406 0.0
O66 O 0.54732 0.98958 0.94601 0.0
O67 O 0.52965 0.07059 0.9416 0.0
C68 C 0.46756 0.95686 0.94116 0.0
C69 C 0.54878 0.04268 0.94397 0.0
C70 C 0.21879 0.69964 0.94423 0.0
C71 C 0.29986 0.78618 0.94152 0.0
O72 O 0.23803 0.67191 0.94197 0.0
Zn73 Zn 0.26046 0.7367 0.94289 0.0
O74 O 0.2201 0.75282 0.94618 0.0
Zn75 Zn 0.24486 0.82014 0.94694 0.0
O76 O 0.23317 0.8666 0.93405 0.0
O77 O 0.24838 0.78415 0.92881 0.0
O78 O 0.28257 0.81984 0.94411 0.0
O79 O 0.29541 0.73369 0.93995 0.0
O80 O 0.25928 0.7566 0.96044 0.0
O81 O 0.24256 0.84055 0.96316 0.0
C82 C 0.23834 0.8312 0.92619 0.0
C83 C 0.25228 0.79578 0.96722 0.0
C84 C 0.51725 0.79258 0.8012 0.0
C85 C 0.52936 0.83608 0.84203 0.0
O86 O 0.52531 0.83971 0.80495 0.0
Zn87 Zn 0.52318 0.82183 0.82134 0.0
O88 O 0.51071 0.75416 0.80827 0.0
Zn89 Zn 0.5084 0.73798 0.82591 0.0
O90 O 0.47331 0.73394 0.8286 0.0
O91 O 0.48558 0.82004 0.82405 0.0
O92 O 0.51984 0.78818 0.83966 0.0
O93 O 0.53419 0.87082 0.83398 0.0
O94 O 0.54862 0.75576 0.82277 0.0
O95 O 0.53134 0.67465 0.82751 0.0
C96 C 0.46849 0.78603 0.82674 0.0
C97 C 0.55037 0.70303 0.82516 0.0
C98 C 0.23906 0.90449 0.84199 0.0
C99 C 0.25159 0.94802 0.80114 0.0
O100 O 0.23424 0.8698 0.83394 0.0
Zn101 Zn 0.24549 0.91868 0.82129 0.0
O102 O 0.24873 0.95225 0.83961 0.0
Zn103 Zn 0.26041 0.00231 0.82586 0.0
O104 O 0.23764 0.06595 0.8274 0.0
O105 O 0.22019 0.98512 0.82264 0.0
O106 O 0.25819 0.9863 0.80821 0.0
O107 O 0.24341 0.90097 0.8049 0.0
O108 O 0.28308 0.91995 0.82407 0.0
O109 O 0.29548 0.0059 0.82859 0.0
C110 C 0.21856 0.03787 0.82501 0.0
C111 C 0.30021 0.95376 0.82677 0.0
C112 C 0.50375 0.54169 0.55159 0.0
C113 C 0.49033 0.58091 0.59248 0.0
O114 O 0.50983 0.50222 0.55851 0.0
Zn115 Zn 0.51164 0.48417 0.57605 0.0
O116 O 0.4959 0.58861 0.55552 0.0
Zn117 Zn 0.49718 0.56849 0.57185 0.0
O118 O 0.53462 0.56653 0.57524 0.0
O119 O 0.54668 0.47897 0.57875 0.0
O120 O 0.48559 0.61618 0.58451 0.0
O121 O 0.49995 0.53317 0.59003 0.0
O122 O 0.48864 0.42089 0.57728 0.0
O123 O 0.47146 0.5025 0.5728 0.0
C124 C 0.5515 0.53159 0.57774 0.0
C125 C 0.46966 0.4495 0.57495 0.0
C126 C 0.7645 0.69492 0.5514 0.0
C127 C 0.77935 0.66141 0.5924 0.0
O128 O 0.758 0.73482 0.5581 0.0
Zn129 Zn 0.75732 0.75574 0.57555 0.0
O130 O 0.77392 0.65 0.55552 0.0
Zn131 Zn 0.77233 0.67164 0.57172 0.0
O132 O 0.73478 0.6729 0.57514 0.0
O133 O 0.72241 0.76041 0.57848 0.0
O134 O 0.78424 0.62561 0.58457 0.0
O135 O 0.76943 0.70862 0.58976 0.0
O136 O 0.78011 0.81988 0.57622 0.0
O137 O 0.79759 0.73817 0.57223 0.0
C138 C 0.71778 0.70762 0.57759 0.0
C139 C 0.79919 0.79145 0.57403 0.0
C140 C 0.5023 0.6954 0.71739 0.0
C141 C 0.48845 0.65635 0.67653 0.0
O142 O 0.50912 0.73417 0.71046 0.0
Zn143 Zn 0.51024 0.75266 0.69285 0.0
O144 O 0.49278 0.65008 0.71351 0.0
Zn145 Zn 0.49497 0.66918 0.69721 0.0
O146 O 0.53265 0.67008 0.69435 0.0
O147 O 0.54517 0.75617 0.68989 0.0
O148 O 0.48351 0.62136 0.68452 0.0
O149 O 0.49828 0.70383 0.67897 0.0
O150 O 0.48758 0.8169 0.69169 0.0
O151 O 0.46994 0.73589 0.69614 0.0
C152 C 0.54981 0.70388 0.69163 0.0
C153 C 0.46844 0.78888 0.694 0.0
C154 C 0.71808 0.53635 0.69194 0.0
C155 C 0.79981 0.45286 0.69339 0.0
O156 O 0.73518 0.57033 0.69461 0.0
Zn157 Zn 0.77284 0.57187 0.69726 0.0
O158 O 0.72289 0.48429 0.69008 0.0
Zn159 Zn 0.75795 0.4883 0.69272 0.0
O160 O 0.76039 0.50422 0.71038 0.0
O161 O 0.77512 0.58967 0.71362 0.0
O162 O 0.7807 0.42482 0.69104 0.0
O163 O 0.79822 0.50558 0.69579 0.0
O164 O 0.7838 0.62109 0.68462 0.0
O165 O 0.7693 0.53868 0.67894 0.0
C166 C 0.76704 0.54261 0.71741 0.0
C167 C 0.77884 0.58658 0.67656 0.0
C168 C 0.5187 0.44898 0.46755 0.0
C169 C 0.52642 0.40094 0.4268 0.0
O170 O 0.52765 0.40288 0.46374 0.0
Zn171 Zn 0.52395 0.41945 0.44741 0.0
O172 O 0.51141 0.48693 0.46054 0.0
Zn173 Zn 0.50865 0.50257 0.44286 0.0
O174 O 0.47355 0.50784 0.44079 0.0
O175 O 0.48583 0.42169 0.44544 0.0
O176 O 0.51727 0.44933 0.42909 0.0
O177 O 0.53354 0.36851 0.43485 0.0
O178 O 0.54929 0.48445 0.44513 0.0
O179 O 0.53169 0.56518 0.44051 0.0
C180 C 0.46869 0.45598 0.44291 0.0
C181 C 0.55089 0.53688 0.44251 0.0
C182 C 0.25255 0.29456 0.46725 0.0
C183 C 0.23925 0.33448 0.42635 0.0
O184 O 0.24296 0.3398 0.46334 0.0
Zn185 Zn 0.24549 0.32105 0.44706 0.0
O186 O 0.25964 0.25607 0.46034 0.0
Zn187 Zn 0.26116 0.23815 0.4427 0.0
O188 O 0.29615 0.2353 0.43992 0.0
O189 O 0.28324 0.32105 0.44436 0.0
O190 O 0.24926 0.28714 0.42879 0.0
O191 O 0.23399 0.36899 0.43436 0.0
O192 O 0.22077 0.25369 0.44592 0.0
O193 O 0.23888 0.17338 0.4414 0.0
C194 C 0.30058 0.28761 0.44171 0.0
C195 C 0.21958 0.20072 0.44374 0.0
C196 C 0.51646 0.29342 0.30116 0.0
C197 C 0.52487 0.33739 0.34212 0.0
O198 O 0.52389 0.34076 0.30507 0.0
Zn199 Zn 0.52151 0.32191 0.32144 0.0
O200 O 0.51007 0.25431 0.30809 0.0
Zn201 Zn 0.50702 0.23734 0.32561 0.0
O202 O 0.47179 0.23087 0.32758 0.0
O203 O 0.4837 0.31866 0.32411 0.0
O204 O 0.51593 0.28903 0.33961 0.0
O205 O 0.53148 0.37124 0.33419 0.0
O206 O 0.54748 0.25722 0.32316 0.0
O207 O 0.53053 0.1754 0.32759 0.0
C208 C 0.46681 0.28337 0.3264 0.0
C209 C 0.54949 0.20451 0.32552 0.0
C210 C 0.29999 0.45752 0.32723 0.0
C211 C 0.21849 0.54133 0.324 0.0
O212 O 0.29531 0.51023 0.32824 0.0
Zn213 Zn 0.26036 0.50552 0.32543 0.0
O214 O 0.28298 0.42281 0.3248 0.0
Zn215 Zn 0.24537 0.42157 0.32151 0.0
O216 O 0.24367 0.40035 0.3053 0.0
O217 O 0.25955 0.48514 0.30795 0.0
O218 O 0.22008 0.4881 0.32214 0.0
O219 O 0.23758 0.56965 0.32622 0.0
O220 O 0.24844 0.45787 0.33961 0.0
O221 O 0.23366 0.37501 0.33432 0.0
C222 C 0.25304 0.44541 0.30121 0.0
C223 C 0.23859 0.4105 0.3422 0.0
C224 C 0.98857 0.08305 0.59208 0.0
C225 C 1.00285 0.04511 0.55118 0.0
O226 O 0.99847 0.03567 0.58962 0.0
Zn227 Zn 0.01062 0.98731 0.5757 0.0
O228 O 0.98368 0.1182 0.58411 0.0
Zn229 Zn 0.99531 0.07084 0.57137 0.0
O230 O 0.97034 0.00396 0.57226 0.0
O231 O 0.98793 0.92291 0.57671 0.0
O232 O 0.99327 0.09034 0.55508 0.0
O233 O 0.00964 0.00623 0.5581 0.0
O234 O 0.04562 0.98417 0.5787 0.0
O235 O 0.03296 0.07017 0.57427 0.0
C236 C 0.96881 0.95089 0.57432 0.0
C237 C 0.05019 0.03652 0.57698 0.0
C238 C 0.27916 0.15759 0.59219 0.0
C239 C 0.26713 0.19948 0.55126 0.0
O240 O 0.26951 0.20527 0.58973 0.0
Zn241 Zn 0.25805 0.25487 0.57586 0.0
O242 O 0.28422 0.1228 0.5842 0.0
Zn243 Zn 0.27307 0.17114 0.57146 0.0
O244 O 0.29835 0.2377 0.57272 0.0
O245 O 0.28084 0.31863 0.57735 0.0
O246 O 0.2753 0.1526 0.55511 0.0
O247 O 0.26046 0.23807 0.55824 0.0
O248 O 0.22291 0.25844 0.5785 0.0
O249 O 0.23542 0.17238 0.57412 0.0
C250 C 0.29995 0.29056 0.57499 0.0
C251 C 0.21823 0.20623 0.57673 0.0
C252 C 0.05072 0.20828 0.69172 0.0
C253 C 0.96905 0.29216 0.69317 0.0
O254 O 0.03356 0.17433 0.69434 0.0
Zn255 Zn 0.9959 0.1729 0.69693 0.0
O256 O 0.046 0.26044 0.68989 0.0
Zn257 Zn 0.0109 0.25654 0.69248 0.0
O258 O 1.00836 0.23999 0.71013 0.0
O259 O 0.99354 0.1545 0.71329 0.0
O260 O 0.98818 0.32021 0.69084 0.0
O261 O 0.97061 0.23935 0.69552 0.0
O262 O 0.98493 0.12426 0.68423 0.0
O263 O 0.99961 0.20669 0.67863 0.0
C264 C 1.00165 0.20139 0.71713 0.0
C265 C 0.99003 0.15892 0.67621 0.0
C266 C 0.21856 0.03831 0.69145 0.0
C267 C 0.29944 0.95098 0.69413 0.0
O268 O 0.23586 0.07171 0.69415 0.0
Zn269 Zn 0.27352 0.07157 0.69706 0.0
O270 O 0.22298 0.98589 0.68977 0.0
Zn271 Zn 0.25789 0.98846 0.69278 0.0
O272 O 0.259 0.00722 0.71038 0.0
O273 O 0.27571 0.09095 0.71334 0.0
O274 O 0.2802 0.92352 0.69176 0.0
O275 O 0.29819 0.00406 0.6962 0.0
O276 O 0.28541 0.11868 0.68431 0.0
O277 O 0.2703 0.0365 0.67885 0.0
C278 C 0.26599 0.04593 0.71727 0.0
C279 C 0.28043 0.08361 0.67636 0.0
C280 C 0.02879 0.90645 0.42632 0.0
C281 C 0.01799 0.94965 0.46727 0.0
O282 O 0.03394 0.87171 0.43433 0.0
Zn283 Zn 0.02339 0.92062 0.44707 0.0
O284 O 0.01939 0.95438 0.42877 0.0
Zn285 Zn 1.00849 0.00456 0.44263 0.0
O286 O 0.03142 0.0678 0.44091 0.0
O287 O 0.04881 0.9866 0.4455 0.0
O288 O 0.01128 0.98817 0.46026 0.0
O289 O 0.02594 0.90255 0.46345 0.0
O290 O 0.98572 0.92262 0.44463 0.0
O291 O 0.97331 0.00877 0.4402 0.0
C292 C 0.05051 0.03936 0.44313 0.0
C293 C 0.96856 0.95666 0.44207 0.0
C294 C 0.75127 0.79006 0.46738 0.0
C295 C 0.73975 0.83489 0.42654 0.0
O296 O 0.74297 0.83698 0.46361 0.0
Zn297 Zn 0.74565 0.81979 0.44723 0.0
O298 O 0.75829 0.75213 0.46033 0.0
Zn299 Zn 0.76116 0.737 0.44264 0.0
O300 O 0.79626 0.73437 0.44011 0.0
O301 O 0.78335 0.81986 0.44469 0.0
O302 O 0.74963 0.78732 0.42888 0.0
O303 O 0.73445 0.86895 0.43463 0.0
O304 O 0.72076 0.75255 0.44563 0.0
O305 O 0.73892 0.6727 0.44077 0.0
C306 C 0.8007 0.78655 0.44203 0.0
C307 C 0.71959 0.69987 0.44313 0.0
C308 C 0.96664 0.78181 0.3273 0.0
C309 C 0.04854 0.69929 0.32457 0.0
O310 O 0.97139 0.72915 0.32835 0.0
Zn311 Zn 1.00651 0.73392 0.32569 0.0
O312 O 0.98359 0.81656 0.32481 0.0
Zn313 Zn 0.02103 0.81832 0.32147 0.0
O314 O 0.02249 0.83797 0.3051 0.0
O315 O 1.00846 0.75177 0.30816 0.0
O316 O 0.04668 0.75229 0.32245 0.0
O317 O 0.02959 0.67059 0.32691 0.0
O318 O 0.01819 0.78287 0.33967 0.0
O319 O 0.03256 0.86589 0.33418 0.0
C320 C 0.01465 0.79096 0.3012 0.0
C321 C 0.02781 0.83057 0.34214 0.0
C322 C 0.71929 0.04578 0.32504 0.0
C323 C 0.80072 0.96068 0.32748 0.0
O324 O 0.73845 0.07369 0.32736 0.0
Zn325 Zn 0.76107 0.00962 0.32601 0.0
O326 O 0.72076 0.99278 0.32287 0.0
Zn327 Zn 0.74606 0.9259 0.32182 0.0
O328 O 0.73441 0.87834 0.33452 0.0
O329 O 0.7493 0.96077 0.34002 0.0
O330 O 0.78358 0.92642 0.32503 0.0
O331 O 0.79622 0.01342 0.32856 0.0
O332 O 0.75878 0.99215 0.30845 0.0
O333 O 0.74429 0.90631 0.30549 0.0
C334 C 0.73943 0.9133 0.34249 0.0
C335 C 0.75231 0.9531 0.30154 0.0
C336 C 0.96861 0.45045 0.07518 0.0
C337 C 0.0502 0.53477 0.07654 0.0
O338 O 0.97013 0.50318 0.07275 0.0
Zn339 Zn 0.99536 0.56969 0.07124 0.0
O340 O 0.98776 0.4225 0.07752 0.0
Zn341 Zn 0.01043 0.48617 0.07581 0.0
O342 O 0.99897 0.53627 0.08958 0.0
O343 O 0.98433 0.61864 0.0839 0.0
O344 O 0.04554 0.48264 0.07842 0.0
O345 O 0.03299 0.56851 0.07387 0.0
O346 O 0.99301 0.58744 0.05485 0.0
O347 O 1.00787 0.50211 0.05814 0.0
C348 C 0.98932 0.58404 0.09195 0.0
C349 C 1.00114 0.54042 0.05109 0.0
C350 C 0.29862 0.79399 0.07528 0.0
C351 C 0.21774 0.70632 0.07683 0.0
O352 O 0.29754 0.74122 0.07285 0.0
Zn353 Zn 0.27277 0.67358 0.07146 0.0
O354 O 0.27928 0.82095 0.07771 0.0
Zn355 Zn 0.25717 0.7563 0.07601 0.0
O356 O 0.26912 0.70666 0.0898 0.0
O357 O 0.28432 0.62499 0.08408 0.0
O358 O 0.2221 0.7586 0.07868 0.0
O359 O 0.23512 0.67314 0.07415 0.0
O360 O 0.27517 0.65578 0.0551 0.0
O361 O 0.25974 0.74058 0.05833 0.0
C362 C 0.27916 0.65928 0.09215 0.0
C363 C 0.2667 0.70246 0.05131 0.0
C364 C 0.05071 0.7047 0.19166 0.0
C365 C 0.96943 0.79048 0.19376 0.0
O366 O 0.0334 0.67106 0.19423 0.0
Zn367 Zn 0.99568 0.67045 0.19689 0.0
O368 O 0.04623 0.75711 0.18995 0.0
Zn369 Zn 0.0112 0.754 0.1927 0.0
O370 O 0.00956 0.73504 0.21029 0.0
O371 O 0.99303 0.65098 0.21316 0.0
O372 O 0.98862 0.81848 0.19153 0.0
O373 O 0.97087 0.73742 0.19583 0.0
O374 O 0.98433 0.62341 0.18404 0.0
O375 O 0.99949 0.70578 0.17868 0.0
C376 C 1.00246 0.69618 0.21714 0.0
C377 C 0.98959 0.65855 0.17612 0.0
C378 C 0.29947 0.4468 0.19302 0.0
C379 C 0.21826 0.53301 0.19177 0.0
O380 O 0.29823 0.49956 0.19543 0.0
Zn381 Zn 0.27328 0.56672 0.19691 0.0
O382 O 0.28018 0.41943 0.19069 0.0
Zn383 Zn 0.25785 0.48366 0.19245 0.0
O384 O 0.2693 0.5335 0.17861 0.0
O385 O 0.28443 0.61538 0.18422 0.0
O386 O 0.22274 0.48078 0.18992 0.0
O387 O 0.23559 0.56646 0.19438 0.0
O388 O 0.27589 0.58463 0.21326 0.0
O389 O 0.26066 0.49958 0.21011 0.0
C390 C 0.27913 0.58103 0.17619 0.0
C391 C 0.26762 0.53784 0.2171 0.0
C392 C 0.02965 0.40603 0.92628 0.0
C393 C 0.01559 0.44419 0.96718 0.0
O394 O 0.03453 0.3709 0.93425 0.0
Zn395 Zn 0.02299 0.41845 0.94698 0.0
O396 O 0.01982 0.45349 0.92875 0.0
Zn397 Zn 1.00782 0.50203 0.94268 0.0
O398 O 0.03053 0.56623 0.94162 0.0
O399 O 0.04809 0.4851 0.94604 0.0
O400 O 1.00881 0.48316 0.96028 0.0
O401 O 0.02509 0.39892 0.96327 0.0
O402 O 0.9853 0.41956 0.94408 0.0
O403 O 0.97291 0.50581 0.93967 0.0
C404 C 0.04964 0.53814 0.94395 0.0
C405 C 0.96819 0.45353 0.94137 0.0
C406 C 0.73812 0.33486 0.92643 0.0
C407 C 0.75256 0.2958 0.96727 0.0
O408 O 0.73335 0.36989 0.93441 0.0
Zn409 Zn 0.74498 0.32201 0.9471 0.0
O410 O 0.74795 0.28733 0.92886 0.0
Zn411 Zn 0.76008 0.23846 0.94274 0.0
O412 O 0.73733 0.17436 0.94169 0.0
O413 O 0.71984 0.25544 0.94618 0.0
O414 O 0.75925 0.25696 0.96035 0.0
O415 O 0.74305 0.34118 0.96339 0.0
O416 O 0.78263 0.32089 0.94413 0.0
O417 O 0.79498 0.23474 0.93966 0.0
C418 C 0.71825 0.20245 0.94407 0.0
C419 C 0.79972 0.28698 0.94138 0.0
C420 C 0.04945 0.1993 0.8245 0.0
C421 C 0.96834 0.28543 0.82692 0.0
O422 O 0.03021 0.17165 0.82681 0.0
Zn423 Zn 1.0078 0.23631 0.82568 0.0
O424 O 0.04814 0.25237 0.82241 0.0
Zn425 Zn 0.02329 0.31956 0.82143 0.0
O426 O 0.03488 0.36685 0.83418 0.0
O427 O 0.01983 0.28455 0.83965 0.0
O428 O 0.98557 0.31913 0.82425 0.0
O429 O 0.97289 0.23307 0.82862 0.0
O430 O 1.00905 0.25525 0.80807 0.0
O431 O 0.02562 0.33922 0.80516 0.0
C432 C 0.02979 0.33181 0.84214 0.0
C433 C 0.01602 0.29418 0.8012 0.0
C434 C 0.71959 0.54233 0.82459 0.0
C435 C 0.8005 0.45525 0.82714 0.0
O436 O 0.73886 0.56973 0.82694 0.0
Zn437 Zn 0.76114 0.50482 0.82586 0.0
O438 O 0.7208 0.48925 0.82251 0.0
Zn439 Zn 0.7455 0.42176 0.82162 0.0
O440 O 0.7337 0.37462 0.83438 0.0
O441 O 0.74895 0.45668 0.83983 0.0
O442 O 0.78322 0.42173 0.82447 0.0
O443 O 0.79605 0.50766 0.82881 0.0
O444 O 0.75992 0.48594 0.80826 0.0
O445 O 0.7432 0.40215 0.80537 0.0
C446 C 0.73884 0.40956 0.84233 0.0
C447 C 0.75289 0.44713 0.8014 0.0
H448 H 0.52696 0.06512 0.1071 0.0
H449 H 0.45733 0.14655 0.10394 0.0
H450 H 0.52517 0.07444 0.12766 0.0
H451 H 0.45563 0.15675 0.12493 0.0
H452 H 0.45574 0.09939 0.16429 0.0
H453 H 0.45418 0.08888 0.14331 0.0
H454 H 0.52657 0.15661 0.14089 0.0
H455 H 0.52815 0.16634 0.16147 0.0
C456 C 0.51136 0.08584 0.11084 0.0
C457 C 0.49237 0.10559 0.10394 0.0
C458 C 0.51032 0.091 0.12263 0.0
C459 C 0.49023 0.11605 0.1279 0.0
C460 C 0.47122 0.13673 0.12105 0.0
C461 C 0.47236 0.13186 0.10909 0.0
C462 C 0.47139 0.11068 0.15921 0.0
C463 C 0.49217 0.13297 0.16445 0.0
C464 C 0.47037 0.10569 0.14726 0.0
C465 C 0.49022 0.12227 0.14049 0.0
C466 C 0.51105 0.14323 0.14585 0.0
C467 C 0.51198 0.14856 0.15765 0.0
H468 H 0.79667 0.18058 0.16614 0.0
H469 H 0.77545 0.00794 0.15887 0.0
H470 H 0.80183 0.19757 0.14563 0.0
H471 H 0.77977 0.02525 0.13867 0.0
H472 H 0.79891 0.06068 0.1021 0.0
H473 H 0.80514 0.04378 0.12257 0.0
H474 H 0.7744 0.20808 0.13005 0.0
H475 H 0.76888 0.22537 0.10997 0.0
C476 C 0.79326 0.1463 0.16021 0.0
C477 C 0.78529 0.09332 0.16416 0.0
C478 C 0.79613 0.15595 0.14846 0.0
C479 C 0.79105 0.1128 0.14047 0.0
C480 C 0.78416 0.05926 0.14452 0.0
C481 C 0.78137 0.04965 0.15617 0.0
C482 C 0.7937 0.09316 0.10814 0.0
C483 C 0.78318 0.144 0.10436 0.0
C484 C 0.79724 0.0836 0.11986 0.0
C485 C 0.79032 0.12471 0.12799 0.0
C486 C 0.78041 0.17591 0.12411 0.0
C487 C 0.77694 0.18542 0.1125 0.0
H488 H 0.54722 0.9342 0.8519 0.0
H489 H 0.52344 0.764 0.85984 0.0
H490 H 0.55317 0.95193 0.87234 0.0
H491 H 0.52854 0.78205 0.87991 0.0
H492 H 0.54875 0.81492 0.9161 0.0
H493 H 0.55477 0.7982 0.89565 0.0
H494 H 0.52709 0.96571 0.88827 0.0
H495 H 0.52194 0.98289 0.90839 0.0
C496 C 0.54337 0.90065 0.85795 0.0
C497 C 0.53455 0.84809 0.85421 0.0
C498 C 0.54672 0.9107 0.86966 0.0
C499 C 0.54128 0.86838 0.87781 0.0
C500 C 0.53333 0.81536 0.87395 0.0
C501 C 0.53007 0.80535 0.86236 0.0
C502 C 0.54425 0.84822 0.91009 0.0
C503 C 0.53456 0.8998 0.91391 0.0
C504 C 0.54763 0.83873 0.89838 0.0
C505 C 0.54131 0.88061 0.89028 0.0
C506 C 0.53253 0.9328 0.8942 0.0
C507 C 0.52927 0.94229 0.90581 0.0
H508 H 0.24421 0.97713 0.85971 0.0
H509 H 0.22156 0.80602 0.85194 0.0
H510 H 0.23897 0.95926 0.87979 0.0
H511 H 0.21547 0.78845 0.87238 0.0
H512 H 0.24641 0.75913 0.90858 0.0
H513 H 0.24144 0.7758 0.88842 0.0
H514 H 0.21268 0.94253 0.89549 0.0
H515 H 0.21848 0.92634 0.91598 0.0
C516 C 0.2378 0.9356 0.86227 0.0
C517 C 0.23369 0.89257 0.85416 0.0
C518 C 0.23446 0.9257 0.87387 0.0
C519 C 0.2268 0.87248 0.87777 0.0
C520 C 0.2217 0.82985 0.86967 0.0
C521 C 0.22512 0.8398 0.85795 0.0
C522 C 0.23888 0.79945 0.90592 0.0
C523 C 0.2332 0.84188 0.91395 0.0
C524 C 0.23573 0.80863 0.89428 0.0
C525 C 0.22669 0.86046 0.89026 0.0
C526 C 0.22002 0.90227 0.89829 0.0
C527 C 0.22328 0.8931 0.91003 0.0
H528 H 0.49798 0.50989 0.61034 0.0
H529 H 0.4705 0.67692 0.60231 0.0
H530 H 0.49232 0.5275 0.63041 0.0
H531 H 0.46402 0.69409 0.62272 0.0
H532 H 0.49411 0.72918 0.65881 0.0
H533 H 0.48958 0.71116 0.63869 0.0
H534 H 0.46549 0.54067 0.64608 0.0
H535 H 0.47089 0.55833 0.66655 0.0
C536 C 0.49042 0.55038 0.61284 0.0
C537 C 0.48503 0.59243 0.60467 0.0
C538 C 0.48686 0.56011 0.62442 0.0
C539 C 0.47769 0.61213 0.62824 0.0
C540 C 0.47142 0.65368 0.62007 0.0
C541 C 0.47508 0.64394 0.60838 0.0
C542 C 0.4877 0.68772 0.65623 0.0
C543 C 0.48326 0.64475 0.66434 0.0
C544 C 0.48478 0.67772 0.64462 0.0
C545 C 0.47722 0.62449 0.6407 0.0
C546 C 0.47169 0.58203 0.64881 0.0
C547 C 0.4747 0.59207 0.66053 0.0
H548 H 0.7723 0.51527 0.65873 0.0
H549 H 0.79701 0.68459 0.66669 0.0
H550 H 0.77746 0.53358 0.63866 0.0
H551 H 0.80298 0.70259 0.64625 0.0
H552 H 0.77227 0.73421 0.61 0.0
H553 H 0.77713 0.7172 0.63018 0.0
H554 H 0.80417 0.54895 0.62306 0.0
H555 H 0.79846 0.5655 0.60258 0.0
C556 C 0.77913 0.55648 0.65622 0.0
C557 C 0.7839 0.59887 0.66438 0.0
C558 C 0.78242 0.56663 0.64463 0.0
C559 C 0.79069 0.61946 0.64078 0.0
C560 C 0.79631 0.66151 0.64893 0.0
C561 C 0.79295 0.65129 0.66063 0.0
C562 C 0.7794 0.6935 0.61266 0.0
C563 C 0.7846 0.65075 0.60463 0.0
C564 C 0.78249 0.6841 0.6243 0.0
C565 C 0.79097 0.63171 0.6283 0.0
C566 C 0.79724 0.58962 0.62027 0.0
C567 C 0.79404 0.59902 0.60854 0.0
H568 H 0.56317 0.34942 0.41462 0.0
H569 H 0.49119 0.41884 0.41163 0.0
H570 H 0.5646 0.33733 0.39366 0.0
H571 H 0.49262 0.40717 0.39107 0.0
H572 H 0.49186 0.3096 0.35783 0.0
H573 H 0.49415 0.32042 0.37837 0.0
H574 H 0.5626 0.40684 0.37495 0.0
H575 H 0.56035 0.39551 0.35399 0.0
C576 C 0.54759 0.36099 0.40952 0.0
C577 C 0.52697 0.38443 0.41469 0.0
C578 C 0.54855 0.35505 0.39758 0.0
C579 C 0.52876 0.37171 0.39079 0.0
C580 C 0.50809 0.39386 0.39608 0.0
C581 C 0.50725 0.40028 0.40785 0.0
C582 C 0.50737 0.33136 0.36141 0.0
C583 C 0.52587 0.3521 0.35433 0.0
C584 C 0.50869 0.33737 0.37318 0.0
C585 C 0.5286 0.36411 0.37824 0.0
C586 C 0.54717 0.3855 0.37122 0.0
C587 C 0.54572 0.37991 0.35928 0.0
H588 H 0.22011 0.31367 0.35228 0.0
H589 H 0.24529 0.48299 0.35988 0.0
H590 H 0.21454 0.29634 0.37274 0.0
H591 H 0.24054 0.46526 0.38004 0.0
H592 H 0.22044 0.43165 0.41646 0.0
H593 H 0.21454 0.44956 0.39602 0.0
H594 H 0.24121 0.28151 0.38843 0.0
H595 H 0.24631 0.26324 0.40852 0.0
C596 C 0.22434 0.34716 0.35827 0.0
C597 C 0.23345 0.39931 0.35442 0.0
C598 C 0.22122 0.33731 0.37 0.0
C599 C 0.22721 0.37939 0.37808 0.0
C600 C 0.23539 0.43214 0.37413 0.0
C601 C 0.23842 0.44198 0.3625 0.0
C602 C 0.22476 0.39851 0.4104 0.0
C603 C 0.23412 0.34639 0.41415 0.0
C604 C 0.22145 0.40869 0.39869 0.0
C605 C 0.22744 0.36694 0.39054 0.0
C606 C 0.23599 0.31434 0.3944 0.0
C607 C 0.23923 0.3042 0.406 0.0
H608 H 0.97135 0.18123 0.60213 0.0
H609 H 0.99375 0.00967 0.60975 0.0
H610 H 0.96605 0.19875 0.6226 0.0
H611 H 0.98931 0.02753 0.6299 0.0
H612 H 0.97014 0.06285 0.66638 0.0
H613 H 0.96391 0.04536 0.64595 0.0
H614 H 0.99308 0.21104 0.63822 0.0
H615 H 0.99854 0.22892 0.65828 0.0
C616 C 0.975 0.1473 0.60812 0.0
C617 C 0.98332 0.09446 0.60428 0.0
C618 C 0.97205 0.15725 0.61985 0.0
C619 C 0.9774 0.11458 0.62794 0.0
C620 C 0.98468 0.06117 0.62399 0.0
C621 C 0.98754 0.05124 0.61236 0.0
C622 C 0.97498 0.09553 0.66029 0.0
C623 C 0.98507 0.1469 0.664 0.0
C624 C 0.97146 0.08562 0.64859 0.0
C625 C 0.97799 0.12689 0.6404 0.0
C626 C 0.98739 0.17868 0.64421 0.0
C627 C 0.99084 0.18855 0.6558 0.0
H628 H 0.27059 0.22784 0.61003 0.0
H629 H 0.29935 0.06196 0.60213 0.0
H630 H 0.27617 0.21043 0.6301 0.0
H631 H 0.30571 0.04495 0.62258 0.0
H632 H 0.27571 0.00969 0.6588 0.0
H633 H 0.28034 0.02712 0.63864 0.0
H634 H 0.3032 0.19874 0.64574 0.0
H635 H 0.29768 0.18165 0.66622 0.0
C636 C 0.2784 0.18762 0.61255 0.0
C637 C 0.28422 0.14587 0.60441 0.0
C638 C 0.28192 0.17802 0.62415 0.0
C639 C 0.29146 0.12642 0.62802 0.0
C640 C 0.29806 0.08507 0.61989 0.0
C641 C 0.29446 0.0947 0.60818 0.0
C642 C 0.28187 0.05127 0.65615 0.0
C643 C 0.28589 0.09473 0.66417 0.0
C644 C 0.28485 0.06094 0.64451 0.0
C645 C 0.29205 0.11434 0.6405 0.0
C646 C 0.29725 0.15724 0.64853 0.0
C647 C 0.29418 0.14754 0.66027 0.0
H648 H 0.04602 0.92793 0.35212 0.0
H649 H 0.02159 0.75806 0.35989 0.0
H650 H 0.05188 0.94521 0.37257 0.0
H651 H 0.02662 0.77573 0.38001 0.0
H652 H 0.04736 0.80926 0.41634 0.0
H653 H 0.05281 0.79159 0.39587 0.0
H654 H 0.02554 0.95933 0.38838 0.0
H655 H 0.02087 0.97736 0.40848 0.0
C656 C 0.04201 0.89434 0.35814 0.0
C657 C 0.03303 0.84202 0.35434 0.0
C658 C 0.0453 0.90415 0.36986 0.0
C659 C 0.03962 0.86185 0.37797 0.0
C660 C 0.03155 0.80901 0.37407 0.0
C661 C 0.02835 0.79922 0.36246 0.0
C662 C 0.04279 0.84235 0.4103 0.0
C663 C 0.03343 0.89434 0.41409 0.0
C664 C 0.04585 0.83233 0.39857 0.0
C665 C 0.03959 0.87411 0.39044 0.0
C666 C 0.03098 0.92651 0.39433 0.0
C667 C 0.02799 0.9365 0.40594 0.0
H668 H 0.72106 0.93257 0.41676 0.0
H669 H 0.74681 0.76427 0.40863 0.0
H670 H 0.71517 0.95102 0.39633 0.0
H671 H 0.74171 0.78305 0.38857 0.0
H672 H 0.72085 0.81614 0.35244 0.0
H673 H 0.71512 0.79833 0.37288 0.0
H674 H 0.74121 0.96694 0.38039 0.0
H675 H 0.74611 0.98515 0.36027 0.0
C676 C 0.72536 0.89959 0.41067 0.0
C677 C 0.73469 0.84734 0.41436 0.0
C678 C 0.72204 0.91006 0.39897 0.0
C679 C 0.728 0.86846 0.39077 0.0
C680 C 0.73652 0.81576 0.39457 0.0
C681 C 0.73976 0.80534 0.40616 0.0
C682 C 0.72506 0.84944 0.35847 0.0
C683 C 0.73425 0.90165 0.35469 0.0
C684 C 0.72185 0.83933 0.37018 0.0
C685 C 0.72781 0.8812 0.37832 0.0
C686 C 0.73607 0.93399 0.37444 0.0
C687 C 0.73919 0.94408 0.36282 0.0
H688 H 0.99803 0.72987 0.15839 0.0
H689 H 0.96963 0.56331 0.16605 0.0
H690 H 0.99291 0.71287 0.13825 0.0
H691 H 0.96372 0.54678 0.14559 0.0
H692 H 0.99463 0.51142 0.10972 0.0
H693 H 0.9898 0.52949 0.12981 0.0
H694 H 0.96652 0.70053 0.12234 0.0
H695 H 0.97218 0.68274 0.10189 0.0
C696 C 0.99038 0.68961 0.1558 0.0
C697 C 0.98457 0.64749 0.16389 0.0
C698 C 0.98714 0.68025 0.14417 0.0
C699 C 0.9779 0.62853 0.14023 0.0
C700 C 0.97119 0.58695 0.14832 0.0
C701 C 0.97452 0.59632 0.16005 0.0
C702 C 0.98836 0.55303 0.11226 0.0
C703 C 0.98418 0.59606 0.10414 0.0
C704 C 0.98526 0.56307 0.12387 0.0
C705 C 0.97778 0.61641 0.12776 0.0
C706 C 0.97262 0.65904 0.11964 0.0
C707 C 0.97579 0.64895 0.10792 0.0
H708 H 0.27102 0.51078 0.15831 0.0
H709 H 0.29869 0.6775 0.16633 0.0
H710 H 0.27618 0.52907 0.13823 0.0
H711 H 0.30464 0.6954 0.14589 0.0
H712 H 0.27367 0.73142 0.10995 0.0
H713 H 0.27864 0.71286 0.13004 0.0
H714 H 0.30274 0.54269 0.12244 0.0
H715 H 0.29693 0.56093 0.102 0.0
C716 C 0.27851 0.55138 0.15581 0.0
C717 C 0.28411 0.59313 0.16399 0.0
C718 C 0.28178 0.56149 0.14421 0.0
C719 C 0.29086 0.61361 0.14038 0.0
C720 C 0.29732 0.6549 0.14855 0.0
C721 C 0.29397 0.64475 0.16025 0.0
C722 C 0.28016 0.68991 0.11247 0.0
C723 C 0.2845 0.64721 0.10432 0.0
C724 C 0.28334 0.6796 0.12407 0.0
C725 C 0.29105 0.62631 0.12792 0.0
C726 C 0.29644 0.58411 0.11976 0.0
C727 C 0.29319 0.59446 0.10806 0.0
H728 H 0.02286 0.25967 0.85988 0.0
H729 H 0.04868 0.42843 0.85214 0.0
H730 H 0.02788 0.27713 0.88 0.0
H731 H 0.05454 0.44549 0.8726 0.0
H732 H 0.02327 0.47841 0.90853 0.0
H733 H 0.02835 0.4608 0.88842 0.0
H734 H 0.05405 0.29165 0.89586 0.0
H735 H 0.04814 0.30888 0.91631 0.0
C736 C 0.02993 0.30052 0.86245 0.0
C737 C 0.03501 0.34309 0.85435 0.0
C738 C 0.03312 0.31019 0.87407 0.0
C739 C 0.0416 0.36267 0.87798 0.0
C740 C 0.04765 0.40471 0.86988 0.0
C741 C 0.04437 0.39503 0.85816 0.0
C742 C 0.03014 0.43734 0.90597 0.0
C743 C 0.03493 0.39461 0.91408 0.0
C744 C 0.03337 0.42759 0.89436 0.0
C745 C 0.04159 0.37485 0.89046 0.0
C746 C 0.04737 0.33263 0.89857 0.0
C747 C 0.04405 0.34241 0.91029 0.0
H748 H 0.74336 0.26194 0.90874 0.0
H749 H 0.72046 0.43295 0.91644 0.0
H750 H 0.73843 0.27988 0.88863 0.0
H751 H 0.71465 0.45055 0.89599 0.0
H752 H 0.74656 0.4809 0.86008 0.0
H753 H 0.74113 0.46354 0.88018 0.0
H754 H 0.71262 0.29701 0.87275 0.0
H755 H 0.71888 0.31392 0.8523 0.0
C756 C 0.73694 0.30342 0.90616 0.0
C757 C 0.73271 0.34645 0.91425 0.0
C758 C 0.73379 0.31338 0.89455 0.0
C759 C 0.72619 0.36664 0.89062 0.0
C760 C 0.72087 0.40916 0.89872 0.0
C761 C 0.72412 0.39917 0.91044 0.0
C762 C 0.739 0.44048 0.86264 0.0
C763 C 0.7335 0.39834 0.85453 0.0
C764 C 0.73557 0.43089 0.87425 0.0
C765 C 0.72644 0.37894 0.87815 0.0
C766 C 0.72 0.33736 0.87003 0.0
C767 C 0.72353 0.34696 0.85832 0.0
H768 H 0.34035 0.74957 0.0671 0.0
H769 H 0.312 0.89751 0.08426 0.0
H770 H 0.38087 0.78755 0.06841 0.0
H771 H 0.35316 0.93556 0.08573 0.0
H772 H 0.42499 0.01067 0.0728 0.0
H773 H 0.38441 0.97287 0.07335 0.0
H774 H 0.41283 0.80766 0.08201 0.0
H775 H 0.45409 0.84559 0.08122 0.0
C776 C 0.34275 0.79032 0.0712 0.0
C777 C 0.32286 0.8206 0.07559 0.0
C778 C 0.36612 0.81177 0.07205 0.0
C779 C 0.37035 0.86417 0.0773 0.0
C780 C 0.35047 0.89504 0.08159 0.0
C781 C 0.3269 0.87345 0.08073 0.0
C782 C 0.42277 0.96619 0.07487 0.0
C783 C 0.44292 0.93097 0.07688 0.0
C784 C 0.39934 0.94472 0.07528 0.0
C785 C 0.39532 0.88736 0.07774 0.0
C786 C 0.41538 0.85206 0.07997 0.0
C787 C 0.43899 0.87368 0.07955 0.0
H788 H 0.84164 0.23888 0.06927 0.0
H789 H 0.81299 0.39702 0.08213 0.0
H790 H 0.88218 0.27671 0.07007 0.0
H791 H 0.85425 0.43501 0.08308 0.0
H792 H 0.92655 0.50082 0.06891 0.0
H793 H 0.88594 0.46319 0.06978 0.0
H794 H 0.9137 0.30565 0.08334 0.0
H795 H 0.95497 0.34338 0.08231 0.0
C796 C 0.84395 0.28184 0.07233 0.0
C797 C 0.82394 0.31505 0.07562 0.0
C798 C 0.86736 0.30327 0.07289 0.0
C799 C 0.87152 0.3586 0.07673 0.0
C800 C 0.85158 0.39217 0.08002 0.0
C801 C 0.82797 0.37056 0.07947 0.0
C802 C 0.92417 0.45806 0.0721 0.0
C803 C 0.94413 0.42497 0.07552 0.0
C804 C 0.90073 0.43676 0.0727 0.0
C805 C 0.89651 0.3817 0.07671 0.0
C806 C 0.91641 0.34827 0.08013 0.0
C807 C 0.94004 0.36973 0.07954 0.0
H808 H 0.45498 0.39421 0.18651 0.0
H809 H 0.42598 0.23151 0.19668 0.0
H810 H 0.41374 0.43226 0.18565 0.0
H811 H 0.38543 0.26944 0.19604 0.0
H812 H 0.31285 0.34179 0.18473 0.0
H813 H 0.35403 0.30373 0.18336 0.0
H814 H 0.38196 0.45563 0.19916 0.0
H815 H 0.34144 0.4936 0.20037 0.0
C816 C 0.43992 0.36669 0.18856 0.0
C817 C 0.44387 0.31 0.19171 0.0
C818 C 0.41631 0.38837 0.18809 0.0
C819 C 0.39628 0.35371 0.19075 0.0
C820 C 0.40033 0.29701 0.19375 0.0
C821 C 0.42375 0.27549 0.19422 0.0
C822 C 0.32781 0.36676 0.18794 0.0
C823 C 0.32381 0.42062 0.19265 0.0
C824 C 0.35138 0.34514 0.18714 0.0
C825 C 0.37132 0.37701 0.19105 0.0
C826 C 0.36716 0.43055 0.19583 0.0
C827 C 0.34378 0.45201 0.19662 0.0
H828 H 0.84187 0.00033 0.20077 0.0
H829 H 0.81391 0.84317 0.18713 0.0
H830 H 0.88257 0.96312 0.19998 0.0
H831 H 0.85528 0.80579 0.18623 0.0
H832 H 0.9276 0.73971 0.20016 0.0
H833 H 0.88695 0.77709 0.19958 0.0
H834 H 0.91423 0.93596 0.18646 0.0
H835 H 0.9556 0.89838 0.18716 0.0
C836 C 0.84437 0.95769 0.19756 0.0
C837 C 0.82452 0.92461 0.19401 0.0
C838 C 0.86785 0.93665 0.19701 0.0
C839 C 0.87223 0.88183 0.19294 0.0
C840 C 0.85244 0.84826 0.18946 0.0
C841 C 0.82876 0.86949 0.18999 0.0
C842 C 0.92512 0.78272 0.19713 0.0
C843 C 0.94498 0.81616 0.19371 0.0
C844 C 0.90166 0.80388 0.1967 0.0
C845 C 0.89729 0.85918 0.19287 0.0
C846 C 0.91707 0.8931 0.18951 0.0
C847 C 0.94075 0.87175 0.18992 0.0
H848 H 0.7043 0.09481 0.93747 0.0
H849 H 0.67645 0.25331 0.95053 0.0
H850 H 0.66292 0.05743 0.93677 0.0
H851 H 0.63574 0.21609 0.94995 0.0
H852 H 0.56269 0.15026 0.93722 0.0
H853 H 0.60405 0.18783 0.93656 0.0
H854 H 0.63118 0.02992 0.9502 0.0
H855 H 0.59051 0.99253 0.95077 0.0
C856 C 0.68947 0.12145 0.94024 0.0
C857 C 0.69376 0.17693 0.94405 0.0
C858 C 0.66579 0.10019 0.93984 0.0
C859 C 0.64602 0.1341 0.94322 0.0
C860 C 0.65043 0.18931 0.94707 0.0
C861 C 0.67393 0.21037 0.94749 0.0
C862 C 0.5775 0.12385 0.94012 0.0
C863 C 0.57322 0.06849 0.94403 0.0
C864 C 0.60117 0.1452 0.93973 0.0
C865 C 0.62093 0.11153 0.94323 0.0
C866 C 0.61651 0.0565 0.94722 0.0
C867 C 0.59303 0.03534 0.94763 0.0
H868 H 0.20517 0.59225 0.93733 0.0
H869 H 0.17697 0.74884 0.95113 0.0
H870 H 0.16389 0.55424 0.93655 0.0
H871 H 0.13637 0.71102 0.95047 0.0
H872 H 0.06345 0.64628 0.93755 0.0
H873 H 0.10477 0.68407 0.93696 0.0
H874 H 0.13217 0.52474 0.9498 0.0
H875 H 0.09152 0.4871 0.95027 0.0
C876 C 0.19029 0.6183 0.94026 0.0
C877 C 0.19443 0.67349 0.94427 0.0
C878 C 0.16666 0.5967 0.93981 0.0
C879 C 0.14682 0.62995 0.94335 0.0
C880 C 0.15111 0.68478 0.94745 0.0
C881 C 0.17454 0.70618 0.94792 0.0
C882 C 0.07831 0.61957 0.94027 0.0
C883 C 0.07411 0.56379 0.94395 0.0
C884 C 0.10196 0.64107 0.93993 0.0
C885 C 0.12178 0.60712 0.94325 0.0
C886 C 0.11744 0.55159 0.94696 0.0
C887 C 0.09398 0.53028 0.94732 0.0
H888 H 0.59248 0.7562 0.81997 0.0
H889 H 0.56422 0.59411 0.83099 0.0
H890 H 0.63314 0.71878 0.82042 0.0
H891 H 0.60557 0.55655 0.83158 0.0
H892 H 0.67793 0.49516 0.81698 0.0
H893 H 0.63732 0.5329 0.8179 0.0
H894 H 0.6647 0.68606 0.8334 0.0
H895 H 0.70597 0.64817 0.83237 0.0
C896 C 0.5949 0.71244 0.82255 0.0
C897 C 0.57495 0.678 0.82541 0.0
C898 C 0.61837 0.69123 0.8229 0.0
C899 C 0.62266 0.6349 0.8261 0.0
C900 C 0.6028 0.60018 0.829 0.0
C901 C 0.57913 0.62156 0.82867 0.0
C902 C 0.67545 0.537 0.8206 0.0
C903 C 0.69529 0.56872 0.82462 0.0
C904 C 0.65203 0.55833 0.82121 0.0
C905 C 0.64769 0.61209 0.82584 0.0
C906 C 0.6675 0.64444 0.82974 0.0
C907 C 0.69112 0.62292 0.82913 0.0
H908 H 0.09134 0.24805 0.81755 0.0
H909 H 0.06297 0.09238 0.83178 0.0
H910 H 0.13193 0.21017 0.81842 0.0
H911 H 0.10422 0.05434 0.83276 0.0
H912 H 0.17654 0.98626 0.81914 0.0
H913 H 0.13592 0.02393 0.81964 0.0
H914 H 0.16347 0.18381 0.83201 0.0
H915 H 0.20479 0.146 0.83137 0.0
C916 C 0.09373 0.2056 0.82091 0.0
C917 C 0.0738 0.17315 0.8246 0.0
C918 C 0.11715 0.18417 0.8215 0.0
C919 C 0.12138 0.12959 0.82577 0.0
C920 C 0.1015 0.09661 0.82938 0.0
C921 C 0.07789 0.11822 0.8288 0.0
C922 C 0.17412 0.02955 0.82199 0.0
C923 C 0.19405 0.06325 0.82519 0.0
C924 C 0.15067 0.05088 0.82237 0.0
C925 C 0.14639 0.10662 0.82594 0.0
C926 C 0.16624 0.14066 0.82915 0.0
C927 C 0.18988 0.11914 0.82878 0.0
H928 H 0.45556 0.34202 0.58158 0.0
H929 H 0.42783 0.50106 0.56864 0.0
H930 H 0.41418 0.30491 0.58235 0.0
H931 H 0.38706 0.46402 0.56927 0.0
H932 H 0.31387 0.398 0.58177 0.0
H933 H 0.35523 0.43555 0.58249 0.0
H934 H 0.38247 0.27736 0.5691 0.0
H935 H 0.34181 0.23996 0.56852 0.0
C936 C 0.44075 0.36884 0.57884 0.0
C937 C 0.44508 0.42438 0.57505 0.0
C938 C 0.41705 0.34772 0.57929 0.0
C939 C 0.39728 0.38176 0.57594 0.0
C940 C 0.40174 0.43708 0.57212 0.0
C941 C 0.42526 0.45806 0.57167 0.0
C942 C 0.32872 0.37149 0.57896 0.0
C943 C 0.32445 0.31607 0.5751 0.0
C944 C 0.35239 0.39286 0.57937 0.0
C945 C 0.37218 0.35916 0.57593 0.0
C946 C 0.36778 0.30402 0.57203 0.0
C947 C 0.3443 0.28282 0.57162 0.0
H948 H 0.81321 0.89919 0.58049 0.0
H949 H 0.84093 0.7405 0.56747 0.0
H950 H 0.8546 0.9364 0.5812 0.0
H951 H 0.8817 0.77758 0.56806 0.0
H952 H 0.95477 0.84313 0.58094 0.0
H953 H 0.91339 0.80559 0.58145 0.0
H954 H 0.88647 0.96399 0.56793 0.0
H955 H 0.92715 0.00134 0.56753 0.0
C956 C 0.82802 0.87249 0.57771 0.0
C957 C 0.82369 0.81697 0.57394 0.0
C958 C 0.85171 0.89365 0.57812 0.0
C959 C 0.87148 0.85965 0.57477 0.0
C960 C 0.86702 0.80445 0.57092 0.0
C961 C 0.8435 0.78346 0.5705 0.0
C962 C 0.94 0.86966 0.57804 0.0
C963 C 0.94435 0.92515 0.57422 0.0
C964 C 0.91631 0.84831 0.57834 0.0
C965 C 0.8966 0.88212 0.57482 0.0
C966 C 0.90109 0.93727 0.57093 0.0
C967 C 0.92458 0.95842 0.57061 0.0
H968 H 0.42636 0.73734 0.69983 0.0
H969 H 0.45482 0.89751 0.68783 0.0
H970 H 0.38576 0.77515 0.69928 0.0
H971 H 0.41353 0.93549 0.68716 0.0
H972 H 0.34116 -0.0009 0.70143 0.0
H973 H 0.38175 0.96117 0.70072 0.0
H974 H 0.35432 0.80616 0.686 0.0
H975 H 0.31306 0.84428 0.68681 0.0
C976 C 0.424 0.78077 0.69703 0.0
C977 C 0.44397 0.81453 0.69389 0.0
C978 C 0.40056 0.80219 0.69662 0.0
C979 C 0.39635 0.85806 0.69309 0.0
C980 C 0.41625 0.89221 0.68998 0.0
C981 C 0.43988 0.8706 0.69037 0.0
C982 C 0.34361 0.95682 0.69802 0.0
C983 C 0.32376 0.92464 0.69417 0.0
C984 C 0.36703 0.93536 0.69753 0.0
C985 C 0.37134 0.88101 0.69319 0.0
C986 C 0.35153 0.84825 0.68944 0.0
C987 C 0.32792 0.86991 0.68992 0.0
H988 H 0.81348 0.34564 0.68643 0.0
H989 H 0.84187 0.50348 0.69954 0.0
H990 H 0.85477 0.30791 0.68545 0.0
H991 H 0.8825 0.46585 0.69872 0.0
H992 H 0.95537 0.39961 0.68628 0.0
H993 H 0.91409 0.43747 0.68541 0.0
H994 H 0.88643 0.27931 0.69871 0.0
H995 H 0.92704 0.24157 0.69942 0.0
C996 C 0.82842 0.37208 0.68915 0.0
C997 C 0.82431 0.42744 0.69307 0.0
C998 C 0.85205 0.35061 0.68859 0.0
C999 C 0.87194 0.38415 0.69194 0.0
C1000 C 0.86771 0.43933 0.69586 0.0
C1001 C 0.84427 0.46063 0.69643 0.0
C1002 C 0.94045 0.37316 0.68902 0.0
C1003 C 0.94457 0.31769 0.69292 0.0
C1004 C 0.91682 0.3947 0.68853 0.0
C1005 C 0.89695 0.36112 0.69191 0.0
C1006 C 0.9012 0.30586 0.69581 0.0
C1007 C 0.92464 0.28449 0.69632 0.0
H1008 H 0.56413 0.64621 0.43671 0.0
H1009 H 0.59346 0.48343 0.44663 0.0
H1010 H 0.6053 0.68457 0.4358 0.0
H1011 H 0.63395 0.52168 0.44595 0.0
H1012 H 0.70637 0.59501 0.43472 0.0
H1013 H 0.66526 0.55664 0.43331 0.0
H1014 H 0.63708 0.70789 0.44928 0.0
H1015 H 0.67754 0.74618 0.45051 0.0
C1016 C 0.57925 0.61873 0.4387 0.0
C1017 C 0.57542 0.56194 0.44179 0.0
C1018 C 0.60282 0.64059 0.4382 0.0
C1019 C 0.62293 0.60603 0.44078 0.0
C1020 C 0.61899 0.5492 0.44372 0.0
C1021 C 0.59561 0.52749 0.44421 0.0
C1022 C 0.69138 0.61978 0.43795 0.0
C1023 C 0.69529 0.67355 0.44272 0.0
C1024 C 0.66784 0.59798 0.43713 0.0
C1025 C 0.64785 0.62956 0.44109 0.0
C1026 C 0.65192 0.68302 0.44591 0.0
C1027 C 0.67527 0.70467 0.44672 0.0
H1028 H 0.06419 0.14841 0.43733 0.0
H1029 H 0.09274 0.98613 0.44807 0.0
H1030 H 0.1055 0.18616 0.43666 0.0
H1031 H 0.13336 0.02375 0.44757 0.0
H1032 H 0.20609 0.09508 0.4358 0.0
H1033 H 0.16486 0.05702 0.43468 0.0
H1034 H 0.13724 0.20976 0.45027 0.0
H1035 H 0.1778 0.24768 0.45126 0.0
C1036 C 0.07916 0.12094 0.43957 0.0
C1037 C 0.07507 0.06441 0.44278 0.0
C1038 C 0.1028 0.14245 0.43919 0.0
C1039 C 0.12273 0.10776 0.44201 0.0
C1040 C 0.11854 0.0513 0.44514 0.0
C1041 C 0.09509 0.02996 0.44553 0.0
C1042 C 0.19119 0.12021 0.43903 0.0
C1043 C 0.19528 0.17433 0.44359 0.0
C1044 C 0.1676 0.0986 0.43837 0.0
C1045 C 0.14774 0.13075 0.44228 0.0
C1046 C 0.15199 0.18446 0.44695 0.0
C1047 C 0.17539 0.2059 0.4476 0.0
H1048 H 0.70543 0.15173 0.33268 0.0
H1049 H 0.67754 -0.0026 0.3178 0.0
H1050 H 0.66412 0.18924 0.33374 0.0
H1051 H 0.63686 0.03483 0.31869 0.0
H1052 H 0.56361 0.09589 0.33139 0.0
H1053 H 0.60502 0.05881 0.33206 0.0
H1054 H 0.63234 0.22155 0.32106 0.0
H1055 H 0.59158 0.25856 0.3206 0.0
C1056 C 0.6906 0.12608 0.32956 0.0
C1057 C 0.69485 0.07164 0.32518 0.0
C1058 C 0.66694 0.14742 0.33017 0.0
C1059 C 0.64713 0.11471 0.32639 0.0
C1060 C 0.65154 0.06064 0.32191 0.0
C1061 C 0.67502 0.03945 0.32131 0.0
C1062 C 0.57849 0.1236 0.32914 0.0
C1063 C 0.57419 0.18005 0.32592 0.0
C1064 C 0.6022 0.10246 0.3295 0.0
C1065 C 0.62203 0.13738 0.32664 0.0
C1066 C 0.61762 0.19378 0.3235 0.0
C1067 C 0.59409 0.21479 0.32315 0.0
H1068 H 0.20442 0.64848 0.33085 0.0
H1069 H 0.17683 0.49121 0.31712 0.0
H1070 H 0.16302 0.68562 0.33166 0.0
H1071 H 0.13606 0.52823 0.31779 0.0
H1072 H 0.0629 0.59126 0.33079 0.0
H1073 H 0.10437 0.55433 0.33124 0.0
H1074 H 0.13102 0.71483 0.31865 0.0
H1075 H 0.09022 0.75165 0.31835 0.0
C1076 C 0.18964 0.6221 0.32793 0.0
C1077 C 0.194 0.56696 0.32394 0.0
C1078 C 0.16593 0.64322 0.3284 0.0
C1079 C 0.1462 0.60957 0.32489 0.0
C1080 C 0.15071 0.5548 0.3208 0.0
C1081 C 0.17423 0.53384 0.32032 0.0
C1082 C 0.07764 0.61844 0.3281 0.0
C1083 C 0.07316 0.6743 0.32454 0.0
C1084 C 0.10138 0.5974 0.32835 0.0
C1085 C 0.12104 0.63188 0.32505 0.0
C1086 C 0.11643 0.68752 0.32147 0.0
C1087 C 0.09288 0.70839 0.3212 0.0
H1088 H 0.50321 0.93843 0.04123 0.0
H1089 H 0.49636 0.1158 0.03253 0.0
H1090 H 0.50652 0.91431 0.02121 0.0
H1091 H 0.50048 0.09168 0.0123 0.0
H1092 H 0.48439 0.0239 0.97685 0.0
H1093 H 0.48002 0.04683 0.9969 0.0
H1094 H 0.53328 0.91935 1.00538 0.0
H1095 H 0.5371 0.89509 0.98515 0.0
C1096 C 0.50254 0.9725 0.03502 0.0
C1097 C 0.49957 0.02922 0.0385 0.0
C1098 C 0.50464 0.95855 0.02351 0.0
C1099 C 0.50402 0.00092 0.01509 0.0
C1100 C 0.50079 0.05777 0.01854 0.0
C1101 C 0.49848 0.07175 0.03013 0.0
C1102 C 0.49514 0.00046 0.98298 0.0
C1103 C 0.51116 0.95763 0.97939 0.0
C1104 C 0.49276 0.01406 0.9945 0.0
C1105 C 0.50645 0.98553 1.0028 0.0
C1106 C 0.52224 0.94193 0.99924 0.0
C1107 C 0.52448 0.92793 0.98766 0.0
H1108 H 0.76232 0.30278 0.04149 0.0
H1109 H 0.77011 0.12573 0.03282 0.0
H1110 H 0.75913 0.32712 0.02149 0.0
H1111 H 0.76604 0.15005 0.01258 0.0
H1112 H 0.78252 0.21904 0.97717 0.0
H1113 H 0.78644 0.19528 0.99722 0.0
H1114 H 0.73295 0.32238 1.00556 0.0
H1115 H 0.72965 0.34755 0.98535 0.0
C1116 C 0.76317 0.26879 0.0353 0.0
C1117 C 0.7664 0.21212 0.03878 0.0
C1118 C 0.76114 0.28287 0.02378 0.0
C1119 C 0.76209 0.24069 0.01536 0.0
C1120 C 0.76549 0.18384 0.01882 0.0
C1121 C 0.76775 0.16973 0.03041 0.0
C1122 C 0.77164 0.24223 0.98327 0.0
C1123 C 0.75573 0.28527 0.97966 0.0
C1124 C 0.77375 0.22813 0.9948 0.0
C1125 C 0.75987 0.25634 1.00306 0.0
C1126 C 0.74415 0.30007 0.99946 0.0
C1127 C 0.74221 0.31459 0.98788 0.0
H1128 H 0.52889 0.27868 0.22707 0.0
H1129 H 0.47891 0.14423 0.2355 0.0
H1130 H 0.5327 0.30269 0.24708 0.0
H1131 H 0.48209 0.16962 0.25569 0.0
H1132 H 0.51303 0.18988 0.29132 0.0
H1133 H 0.50926 0.16657 0.2713 0.0
H1134 H 0.51214 0.34479 0.26273 0.0
H1135 H 0.51676 0.36817 0.28299 0.0
C1136 C 0.51855 0.25433 0.23321 0.0
C1137 C 0.50356 0.20942 0.22967 0.0
C1138 C 0.52061 0.26855 0.24472 0.0
C1139 C 0.5076 0.23855 0.25305 0.0
C1140 C 0.49264 0.19331 0.24953 0.0
C1141 C 0.49074 0.17871 0.23796 0.0
C1142 C 0.51288 0.22434 0.28519 0.0
C1143 C 0.51513 0.28106 0.28877 0.0
C1144 C 0.5105 0.21084 0.27367 0.0
C1145 C 0.51012 0.25365 0.26535 0.0
C1146 C 0.5126 0.31057 0.2689 0.0
C1147 C 0.5152 0.32412 0.2805 0.0
H1148 H 0.73717 0.96788 0.22756 0.0
H1149 H 0.78989 0.09741 0.23524 0.0
H1150 H 0.73369 0.94511 0.24768 0.0
H1151 H 0.78705 0.07325 0.25551 0.0
H1152 H 0.75795 0.05602 0.29156 0.0
H1153 H 0.76113 0.07885 0.27149 0.0
H1154 H 0.75424 0.90114 0.26312 0.0
H1155 H 0.75016 0.87833 0.28343 0.0
C1156 C 0.74812 0.99149 0.23357 0.0
C1157 C 0.76384 0.03456 0.22979 0.0
C1158 C 0.74627 0.97796 0.24513 0.0
C1159 C 0.76023 0.0068 0.25327 0.0
C1160 C 0.77579 0.05047 0.24951 0.0
C1161 C 0.77748 0.06442 0.23789 0.0
C1162 C 0.75713 0.02155 0.28548 0.0
C1163 C 0.75386 0.96516 0.28913 0.0
C1164 C 0.75915 0.03477 0.27392 0.0
C1165 C 0.75817 0.99198 0.26562 0.0
C1166 C 0.75481 0.93539 0.26925 0.0
C1167 C 0.75255 0.92214 0.28089 0.0
H1168 H 0.28305 0.72204 0.97745 0.0
H1169 H 0.2282 0.84677 0.98505 0.0
H1170 H 0.28664 0.69931 0.99757 0.0
H1171 H 0.23116 0.82258 1.00532 0.0
H1172 H 0.25949 0.80553 0.04157 0.0
H1173 H 0.25644 0.82935 0.02152 0.0
H1174 H 0.26638 0.65289 0.01276 0.0
H1175 H 0.27035 0.62921 0.03302 0.0
C1176 C 0.27167 0.74462 0.98345 0.0
C1177 C 0.25529 0.78626 0.97964 0.0
C1178 C 0.27359 0.7311 0.99501 0.0
C1179 C 0.25903 0.75848 1.00312 0.0
C1180 C 0.24287 0.80093 0.99934 0.0
C1181 C 0.24112 0.81489 0.98773 0.0
C1182 C 0.26102 0.77157 0.03539 0.0
C1183 C 0.26513 0.71528 0.03892 0.0
C1184 C 0.25908 0.78534 0.02385 0.0
C1185 C 0.26098 0.74319 0.01546 0.0
C1186 C 0.26512 0.6867 0.01897 0.0
C1187 C 0.26731 0.67294 0.03058 0.0
H1188 H 0.53233 0.77168 0.72731 0.0
H1189 H 0.47895 0.6442 0.73544 0.0
H1190 H 0.536 0.79562 0.74735 0.0
H1191 H 0.482 0.66956 0.75563 0.0
H1192 H 0.51121 0.68894 0.79163 0.0
H1193 H 0.50793 0.66453 0.77165 0.0
H1194 H 0.51553 0.84137 0.76258 0.0
H1195 H 0.51969 0.86576 0.7828 0.0
C1196 C 0.52128 0.74876 0.7334 0.0
C1197 C 0.5053 0.70596 0.72977 0.0
C1198 C 0.52325 0.76297 0.74492 0.0
C1199 C 0.50915 0.7351 0.75315 0.0
C1200 C 0.49336 0.69161 0.74955 0.0
C1201 C 0.49156 0.67697 0.73798 0.0
C1202 C 0.51217 0.72288 0.78541 0.0
C1203 C 0.51566 0.77949 0.78884 0.0
C1204 C 0.5101 0.70875 0.7739 0.0
C1205 C 0.51125 0.75084 0.76545 0.0
C1206 C 0.51483 0.80764 0.76885 0.0
C1207 C 0.51713 0.82179 0.78044 0.0
H1208 H 0.28986 0.09622 0.73524 0.0
H1209 H 0.23552 0.97082 0.7273 0.0
H1210 H 0.28697 0.0707 0.75544 0.0
H1211 H 0.23201 0.94673 0.74736 0.0
H1212 H 0.24846 0.8753 0.78273 0.0
H1213 H 0.25245 0.89994 0.7625 0.0
H1214 H 0.26145 0.07626 0.77158 0.0
H1215 H 0.25835 0.05158 0.79157 0.0
C1216 C 0.27707 0.0639 0.73782 0.0
C1217 C 0.26301 0.03551 0.72967 0.0
C1218 C 0.27536 0.04917 0.7494 0.0
C1219 C 0.25937 0.00616 0.75307 0.0
C1220 C 0.24494 0.97896 0.74488 0.0
C1221 C 0.2468 0.99326 0.73336 0.0
C1222 C 0.2513 0.9192 0.78037 0.0
C1223 C 0.2532 0.96126 0.78878 0.0
C1224 C 0.2535 0.9335 0.76878 0.0
C1225 C 0.2574 0.99024 0.76537 0.0
C1226 C 0.25901 0.03208 0.77383 0.0
C1227 C 0.25704 0.0178 0.78534 0.0
H1228 H 0.49077 0.52949 0.47754 0.0
H1229 H 0.54155 0.396 0.48554 0.0
H1230 H 0.48739 0.55289 0.49761 0.0
H1231 H 0.53885 0.42086 0.50577 0.0
H1232 H 0.50857 0.43883 0.54158 0.0
H1233 H 0.51234 0.41652 0.52152 0.0
H1234 H 0.50781 0.59491 0.51325 0.0
H1235 H 0.50311 0.61723 0.53355 0.0
C1236 C 0.50138 0.50525 0.48361 0.0
C1237 C 0.51646 0.46074 0.47993 0.0
C1238 C 0.49958 0.51912 0.49514 0.0
C1239 C 0.51295 0.48921 0.50336 0.0
C1240 C 0.52802 0.44445 0.4997 0.0
C1241 C 0.52965 0.43015 0.48811 0.0
C1242 C 0.50839 0.47355 0.53551 0.0
C1243 C 0.5056 0.52999 0.53919 0.0
C1244 C 0.51076 0.46063 0.52397 0.0
C1245 C 0.51063 0.50377 0.51571 0.0
C1246 C 0.50774 0.56042 0.51936 0.0
C1247 C 0.50512 0.57338 0.53098 0.0
H1248 H 0.73354 0.76806 0.54114 0.0
H1249 H 0.78852 0.64357 0.53359 0.0
H1250 H 0.73011 0.791 0.52102 0.0
H1251 H 0.78572 0.66795 0.51332 0.0
H1252 H 0.75815 0.68653 0.47698 0.0
H1253 H 0.76073 0.66186 0.497 0.0
H1254 H 0.75074 0.838 0.50601 0.0
H1255 H 0.74727 0.86256 0.48577 0.0
C1256 C 0.74496 0.74553 0.53515 0.0
C1257 C 0.76136 0.70397 0.53897 0.0
C1258 C 0.74314 0.75917 0.5236 0.0
C1259 C 0.75782 0.73201 0.5155 0.0
C1260 C 0.77393 0.68947 0.51929 0.0
C1261 C 0.77558 0.67537 0.5309 0.0
C1262 C 0.75651 0.72025 0.4832 0.0
C1263 C 0.75254 0.77671 0.47975 0.0
C1264 C 0.75817 0.70598 0.49473 0.0
C1265 C 0.75612 0.74779 0.50318 0.0
C1266 C 0.75211 0.80444 0.49975 0.0
C1267 C 0.75021 0.8187 0.48815 0.0
H1268 H 0.78322 0.52227 0.79127 0.0
H1269 H 0.72908 0.39611 0.7835 0.0
H1270 H 0.78672 0.54566 0.77118 0.0
H1271 H 0.73197 0.42093 0.76326 0.0
H1272 H 0.76055 0.43919 0.7271 0.0
H1273 H 0.75752 0.41506 0.74713 0.0
H1274 H 0.7662 0.59175 0.75599 0.0
H1275 H 0.77012 0.61582 0.73573 0.0
C1276 C 0.77197 0.49952 0.78525 0.0
C1277 C 0.75583 0.45726 0.78899 0.0
C1278 C 0.77384 0.51341 0.7737 0.0
C1279 C 0.75947 0.48579 0.76555 0.0
C1280 C 0.74353 0.44279 0.76927 0.0
C1281 C 0.74183 0.42846 0.78087 0.0
C1282 C 0.7618 0.47315 0.73329 0.0
C1283 C 0.76553 0.52963 0.72979 0.0
C1284 C 0.75988 0.45919 0.74482 0.0
C1285 C 0.76142 0.50132 0.75323 0.0
C1286 C 0.76521 0.55798 0.74975 0.0
C1287 C 0.76737 0.57195 0.73815 0.0
H1288 H 0.22912 0.34604 0.48522 0.0
H1289 H 0.28227 0.21776 0.4773 0.0
H1290 H 0.23206 0.32107 0.50545 0.0
H1291 H 0.28584 0.19421 0.49738 0.0
H1292 H 0.26958 0.1256 0.53302 0.0
H1293 H 0.26544 0.14923 0.51274 0.0
H1294 H 0.25797 0.32644 0.52144 0.0
H1295 H 0.26121 0.30277 0.54147 0.0
C1296 C 0.24165 0.31314 0.48781 0.0
C1297 C 0.25537 0.28387 0.47965 0.0
C1298 C 0.24339 0.29874 0.4994 0.0
C1299 C 0.2591 0.25519 0.50309 0.0
C1300 C 0.27314 0.22694 0.49489 0.0
C1301 C 0.27124 0.24091 0.48335 0.0
C1302 C 0.26705 0.16948 0.53055 0.0
C1303 C 0.26559 0.2121 0.53887 0.0
C1304 C 0.26476 0.1832 0.51894 0.0
C1305 C 0.26121 0.23989 0.51541 0.0
C1306 C 0.26009 0.2823 0.52378 0.0
C1307 C 0.26215 0.2686 0.53532 0.0
H1308 H 0.22963 0.39303 0.28334 0.0
H1309 H 0.28353 0.51988 0.29102 0.0
H1310 H 0.23276 0.41688 0.26305 0.0
H1311 H 0.28729 0.54229 0.27089 0.0
H1312 H 0.27077 0.61139 0.23535 0.0
H1313 H 0.26688 0.58776 0.25563 0.0
H1314 H 0.25832 0.41083 0.24693 0.0
H1315 H 0.2613 0.43456 0.22688 0.0
C1316 C 0.24239 0.42529 0.28068 0.0
C1317 C 0.25623 0.45463 0.28878 0.0
C1318 C 0.24424 0.43907 0.26906 0.0
C1319 C 0.26016 0.48203 0.2653 0.0
C1320 C 0.27441 0.51008 0.27344 0.0
C1321 C 0.2724 0.49675 0.285 0.0
C1322 C 0.26807 0.56756 0.23781 0.0
C1323 C 0.26623 0.52506 0.22949 0.0
C1324 C 0.26592 0.55384 0.24943 0.0
C1325 C 0.26216 0.49724 0.25296 0.0
C1326 C 0.26065 0.45492 0.24459 0.0
C1327 C 0.26255 0.46864 0.23304 0.0
H1328 H 0.02022 0.87602 0.4856 0.0
H1329 H 0.01262 0.05326 0.47694 0.0
H1330 H 0.0161 0.90002 0.50585 0.0
H1331 H 0.00937 0.07727 0.49695 0.0
H1332 H 0.97994 0.09729 0.53311 0.0
H1333 H 0.98319 0.07244 0.51289 0.0
H1334 H 0.03655 0.94488 0.5212 0.0
H1335 H 0.0327 0.96835 0.54126 0.0
C1336 C 0.01788 0.92 0.48801 0.0
C1337 C 0.01662 0.96253 0.47965 0.0
C1338 C 0.01559 0.93393 0.49961 0.0
C1339 C 0.01224 0.99073 0.50307 0.0
C1340 C 0.01135 0.03305 0.49465 0.0
C1341 C 0.01341 0.01916 0.48313 0.0
C1342 C 0.99246 0.06429 0.53057 0.0
C1343 C 1.00597 0.03477 0.53879 0.0
C1344 C 0.99438 0.04995 0.51899 0.0
C1345 C 0.01004 0.0062 0.51538 0.0
C1346 C 0.0239 0.97777 0.52363 0.0
C1347 C 0.02183 0.9917 0.53516 0.0
H1348 H 0.99889 0.12739 0.73537 0.0
H1349 H 1.00778 0.30453 0.72692 0.0
H1350 H 1.00288 0.15068 0.75565 0.0
H1351 H 0.01087 0.3279 0.74697 0.0
H1352 H 0.0395 0.34622 0.78328 0.0
H1353 H 0.03655 0.32202 0.76303 0.0
H1354 H 0.98248 0.19556 0.77097 0.0
H1355 H 0.98607 0.21833 0.79107 0.0
C1356 C 1.00149 0.17121 0.73783 0.0
C1357 C 1.00313 0.2139 0.72951 0.0
C1358 C 1.0037 0.18474 0.74945 0.0
C1359 C 1.00734 0.24132 0.75299 0.0
C1360 C 1.00865 0.28382 0.74462 0.0
C1361 C 1.00669 0.2703 0.73307 0.0
C1362 C 0.0269 0.3136 0.78066 0.0
C1363 C 0.01311 0.28417 0.78879 0.0
C1364 C 0.02515 0.29963 0.76905 0.0
C1365 C 0.00937 0.25638 0.76533 0.0
C1366 C 0.99523 0.22805 0.77349 0.0
C1367 C 0.99715 0.24158 0.78504 0.0
H1368 H 0.03199 0.77255 0.22739 0.0
H1369 H 0.97838 0.64473 0.23494 0.0
H1370 H 0.03476 0.79629 0.24748 0.0
H1371 H 0.98052 0.66988 0.25517 0.0
H1372 H 1.0085 0.68793 0.2914 0.0
H1373 H 1.00578 0.66441 0.27137 0.0
H1374 H 0.0138 0.84155 0.26264 0.0
H1375 H 0.01742 0.86509 0.28294 0.0
C1376 C 0.0207 0.74951 0.23336 0.0
C1377 C 1.00494 0.70663 0.22956 0.0
C1378 C 0.02214 0.76362 0.2449 0.0
C1379 C 1.00772 0.73557 0.25299 0.0
C1380 C 0.99212 0.69206 0.24921 0.0
C1381 C 0.99085 0.67753 0.23762 0.0
C1382 C 0.00965 0.72217 0.28525 0.0
C1383 C 0.01313 0.77861 0.28881 0.0
C1384 C 1.0079 0.70853 0.27371 0.0
C1385 C 0.00936 0.75093 0.26533 0.0
C1386 C 0.01286 0.80759 0.26885 0.0
C1387 C 0.01485 0.82126 0.28048 0.0
H1388 H 0.98549 0.52014 0.97719 0.0
H1389 H 0.039 0.39272 0.98519 0.0
H1390 H 0.98187 0.54373 0.99725 0.0
H1391 H 0.03601 0.41773 1.0054 0.0
H1392 H 1.00728 0.43685 0.04148 0.0
H1393 H 0.01035 0.41256 0.02148 0.0
H1394 H 1.0023 0.58937 0.01247 0.0
H1395 H 0.99833 0.6136 0.03271 0.0
C1396 C 0.99658 0.49715 0.98325 0.0
C1397 C 0.01258 0.45448 0.97958 0.0
C1398 C 0.99464 0.51116 0.99478 0.0
C1399 C 1.0088 0.48322 1.00299 0.0
C1400 C 0.0246 0.43983 0.99934 0.0
C1401 C 0.02636 0.42539 0.98776 0.0
C1402 C 1.00617 0.4708 0.03527 0.0
C1403 C 1.00261 0.52736 0.03872 0.0
C1404 C 1.00812 0.45674 0.02375 0.0
C1405 C 1.00678 0.49885 0.0153 0.0
C1406 C 1.00314 0.5556 0.01873 0.0
C1407 C 1.00094 0.56967 0.03033 0.0
H1408 H 0.59154 0.98305 0.08288 0.0
H1409 H 0.56484 0.14004 0.06856 0.0
H1410 H 0.63198 0.02489 0.0843 0.0
H1411 H 0.6049 0.1809 0.06974 0.0
H1412 H 0.67531 0.25785 0.08219 0.0
H1413 H 0.63482 0.21576 0.08287 0.0
H1414 H 0.66444 0.05497 0.07208 0.0
H1415 H 0.70449 0.09606 0.07168 0.0
C1416 C 0.5943 0.02617 0.07997 0.0
C1417 C 0.57494 0.05802 0.07561 0.0
C1418 C 0.61745 0.05023 0.08078 0.0
C1419 C 0.62168 0.10653 0.0772 0.0
C1420 C 0.60227 0.138 0.0728 0.0
C1421 C 0.57927 0.11416 0.07203 0.0
C1422 C 0.67312 0.21353 0.08001 0.0
C1423 C 0.69317 0.18056 0.07685 0.0
C1424 C 0.64994 0.18937 0.08037 0.0
C1425 C 0.64636 0.13183 0.07754 0.0
C1426 C 0.6665 0.09901 0.07451 0.0
C1427 C 0.68952 0.12296 0.07418 0.0
H1428 H 0.59204 0.2558 0.1845 0.0
H1429 H 0.56558 0.09906 0.19902 0.0
H1430 H 0.63249 0.21409 0.18304 0.0
H1431 H 0.60568 0.05835 0.19782 0.0
H1432 H 0.67634 0.98157 0.18579 0.0
H1433 H 0.63579 0.0232 0.18487 0.0
H1434 H 0.66497 0.18504 0.19526 0.0
H1435 H 0.70509 0.14441 0.19588 0.0
C1436 C 0.59486 0.21273 0.18743 0.0
C1437 C 0.57556 0.18096 0.19188 0.0
C1438 C 0.61802 0.18875 0.18661 0.0
C1439 C 0.62234 0.13262 0.19026 0.0
C1440 C 0.60298 0.10114 0.19471 0.0
C1441 C 0.57996 0.1249 0.19549 0.0
C1442 C 0.67404 0.02605 0.18781 0.0
C1443 C 0.69398 0.05942 0.19094 0.0
C1444 C 0.65082 0.04994 0.18732 0.0
C1445 C 0.64709 0.10762 0.18999 0.0
C1446 C 0.66713 0.14087 0.19296 0.0
C1447 C 0.69021 0.11719 0.19341 0.0
H1448 H 0.45359 0.84914 0.94608 0.0
H1449 H 0.42551 0.00954 0.93407 0.0
H1450 H 0.41359 0.80812 0.94514 0.0
H1451 H 0.3851 0.96747 0.9328 0.0
H1452 H 0.31388 0.89384 0.94643 0.0
H1453 H 0.35387 0.93501 0.94529 0.0
H1454 H 0.38214 0.77589 0.93281 0.0
H1455 H 0.34179 0.73371 0.93428 0.0
C1456 C 0.43889 0.8757 0.94312 0.0
C1457 C 0.44282 0.93293 0.94019 0.0
C1458 C 0.41588 0.85178 0.94248 0.0
C1459 C 0.39604 0.8842 0.93885 0.0
C1460 C 0.39994 0.94135 0.93576 0.0
C1461 C 0.42309 0.96551 0.93645 0.0
C1462 C 0.32854 0.86737 0.9434 0.0
C1463 C 0.32459 0.81017 0.94049 0.0
C1464 C 0.35153 0.89137 0.94264 0.0
C1465 C 0.3713 0.85904 0.93891 0.0
C1466 C 0.36736 0.80193 0.93585 0.0
C1467 C 0.34424 0.7777 0.93666 0.0
H1468 H 0.42671 0.73283 0.83402 0.0
H1469 H 0.45399 0.89293 0.82145 0.0
H1470 H 0.38616 0.77424 0.83533 0.0
H1471 H 0.41386 0.93331 0.82247 0.0
H1472 H 0.34214 0.00705 0.83378 0.0
H1473 H 0.38266 0.96552 0.83506 0.0
H1474 H 0.3546 0.80577 0.82284 0.0
H1475 H 0.31448 0.84628 0.82185 0.0
C1476 C 0.42408 0.77663 0.83151 0.0
C1477 C 0.44362 0.80934 0.82761 0.0
C1478 C 0.40086 0.80041 0.83224 0.0
C1479 C 0.39672 0.85732 0.82904 0.0
C1480 C 0.41636 0.88984 0.82522 0.0
C1481 C 0.43943 0.86628 0.82454 0.0
C1482 C 0.34467 0.96307 0.83142 0.0
C1483 C 0.32504 0.93023 0.82769 0.0
C1484 C 0.36788 0.93922 0.83212 0.0
C1485 C 0.37192 0.88212 0.82907 0.0
C1486 C 0.35218 0.84942 0.82546 0.0
C1487 C 0.32911 0.87305 0.82479 0.0
H1488 H 0.70616 0.60194 0.58477 0.0
H1489 H 0.67396 0.75995 0.57403 0.0
H1490 H 0.66642 0.5587 0.58604 0.0
H1491 H 0.63396 0.71596 0.57475 0.0
H1492 H 0.56331 0.63677 0.58502 0.0
H1493 H 0.60309 0.67978 0.58622 0.0
H1494 H 0.6353 0.52286 0.57467 0.0
H1495 H 0.59524 0.47905 0.57402 0.0
C1496 C 0.69049 0.62748 0.58266 0.0
C1497 C 0.69317 0.68436 0.57926 0.0
C1498 C 0.66766 0.60244 0.58329 0.0
C1499 C 0.64683 0.63332 0.58037 0.0
C1500 C 0.64949 0.69083 0.57721 0.0
C1501 C 0.67242 0.71621 0.57677 0.0
C1502 C 0.57894 0.61125 0.58284 0.0
C1503 C 0.57617 0.55453 0.57938 0.0
C1504 C 0.60179 0.63616 0.58343 0.0
C1505 C 0.62256 0.60534 0.5804 0.0
C1506 C 0.61982 0.54795 0.57721 0.0
C1507 C 0.59686 0.52267 0.5768 0.0
H1508 H 0.56393 0.59592 0.69628 0.0
H1509 H 0.59183 0.75751 0.68484 0.0
H1510 H 0.60408 0.55549 0.69538 0.0
H1511 H 0.63237 0.71608 0.68364 0.0
H1512 H 0.70342 0.64279 0.69744 0.0
H1513 H 0.66328 0.68314 0.69633 0.0
H1514 H 0.63594 0.52486 0.68301 0.0
H1515 H 0.67647 0.48348 0.68442 0.0
C1516 C 0.57862 0.62288 0.69346 0.0
C1517 C 0.57461 0.68027 0.69068 0.0
C1518 C 0.60171 0.59931 0.69285 0.0
C1519 C 0.62152 0.63228 0.6894 0.0
C1520 C 0.61753 0.68957 0.68645 0.0
C1521 C 0.59431 0.71335 0.68711 0.0
C1522 C 0.68894 0.61632 0.69424 0.0
C1523 C 0.69321 0.55961 0.69106 0.0
C1524 C 0.66587 0.63986 0.6935 0.0
C1525 C 0.64633 0.60754 0.68952 0.0
C1526 C 0.65056 0.55086 0.68623 0.0
C1527 C 0.67377 0.52709 0.68701 0.0
H1528 H 0.42733 0.50807 0.4349 0.0
H1529 H 0.45366 0.35105 0.44935 0.0
H1530 H 0.38687 0.46653 0.43337 0.0
H1531 H 0.41355 0.31048 0.44809 0.0
H1532 H 0.34312 0.23394 0.43574 0.0
H1533 H 0.38364 0.27569 0.43499 0.0
H1534 H 0.35423 0.43713 0.4455 0.0
H1535 H 0.31411 0.39634 0.44596 0.0
C1536 C 0.42448 0.46498 0.43781 0.0
C1537 C 0.44375 0.43306 0.44225 0.0
C1538 C 0.40132 0.44111 0.43695 0.0
C1539 C 0.39695 0.38492 0.44055 0.0
C1540 C 0.41627 0.35333 0.44501 0.0
C1541 C 0.43931 0.37698 0.44583 0.0
C1542 C 0.34535 0.27836 0.43782 0.0
C1543 C 0.32534 0.31156 0.44094 0.0
C1544 C 0.36856 0.30231 0.43744 0.0
C1545 C 0.37222 0.35991 0.44019 0.0
C1546 C 0.35211 0.39303 0.44314 0.0
C1547 C 0.32904 0.36927 0.4435 0.0
H1548 H 0.45472 0.38823 0.3337 0.0
H1549 H 0.42316 0.23052 0.32248 0.0
H1550 H 0.41486 0.43062 0.33504 0.0
H1551 H 0.38296 0.27379 0.32327 0.0
H1552 H 0.31205 0.35142 0.33401 0.0
H1553 H 0.35193 0.30852 0.33487 0.0
H1554 H 0.38368 0.46697 0.32382 0.0
H1555 H 0.34358 0.51055 0.32352 0.0
C1556 C 0.43916 0.36262 0.33146 0.0
C1557 C 0.44206 0.30607 0.32792 0.0
C1558 C 0.41625 0.38717 0.33214 0.0
C1559 C 0.39553 0.35618 0.32913 0.0
C1560 C 0.39841 0.29899 0.3258 0.0
C1561 C 0.42144 0.27404 0.3253 0.0
C1562 C 0.3276 0.37728 0.33187 0.0
C1563 C 0.3247 0.43439 0.32867 0.0
C1564 C 0.35051 0.35245 0.33225 0.0
C1565 C 0.37118 0.38377 0.32928 0.0
C1566 C 0.36829 0.44147 0.32632 0.0
C1567 C 0.3453 0.46663 0.32611 0.0
H1568 H 0.06415 0.14447 0.57222 0.0
H1569 H 0.09233 0.98353 0.58387 0.0
H1570 H 0.1042 0.18539 0.57311 0.0
H1571 H 0.13278 0.02546 0.58508 0.0
H1572 H 0.2039 0.09921 0.57147 0.0
H1573 H 0.16385 0.05837 0.57254 0.0
H1574 H 0.13589 0.21702 0.5854 0.0
H1575 H 0.17633 0.25888 0.58402 0.0
C1576 C 0.07888 0.11775 0.57509 0.0
C1577 C 0.07496 0.0604 0.57792 0.0
C1578 C 0.10192 0.14161 0.5757 0.0
C1579 C 0.1218 0.109 0.57921 0.0
C1580 C 0.11791 0.05173 0.58221 0.0
C1581 C 0.09473 0.02765 0.58156 0.0
C1582 C 0.1893 0.12567 0.57456 0.0
C1583 C 0.19339 0.18262 0.57762 0.0
C1584 C 0.16627 0.10184 0.57528 0.0
C1585 C 0.14657 0.1341 0.57912 0.0
C1586 C 0.15062 0.19103 0.58229 0.0
C1587 C 0.17379 0.21508 0.58153 0.0
H1588 H 0.20485 0.14667 0.69596 0.0
H1589 H 0.17636 0.9855 0.68471 0.0
H1590 H 0.16482 0.18783 0.69507 0.0
H1591 H 0.13596 0.02764 0.6835 0.0
H1592 H 0.06522 0.10179 0.69732 0.0
H1593 H 0.10527 0.06102 0.69621 0.0
H1594 H 0.1329 0.21896 0.68277 0.0
H1595 H 0.09244 0.26079 0.68418 0.0
C1596 C 0.19005 0.11996 0.69318 0.0
C1597 C 0.19386 0.06247 0.69046 0.0
C1598 C 0.16704 0.14395 0.69257 0.0
C1599 C 0.1471 0.11129 0.68919 0.0
C1600 C 0.15089 0.05392 0.68628 0.0
C1601 C 0.17403 0.02972 0.68693 0.0
C1602 C 0.07975 0.1281 0.69409 0.0
C1603 C 0.07557 0.18484 0.69087 0.0
C1604 C 0.10277 0.10432 0.69335 0.0
C1605 C 0.12236 0.13639 0.68933 0.0
C1606 C 0.11824 0.19313 0.68601 0.0
C1607 C 0.09507 0.21716 0.6868 0.0
H1608 H 0.92656 0.00969 0.43499 0.0
H1609 H 0.95425 0.84984 0.4475 0.0
H1610 H 0.88606 0.96791 0.43379 0.0
H1611 H 0.91419 0.80911 0.44657 0.0
H1612 H 0.84286 0.7344 0.43503 0.0
H1613 H 0.88322 0.77674 0.43386 0.0
H1614 H 0.85452 0.93549 0.4463 0.0
H1615 H 0.81452 0.89411 0.44718 0.0
C1616 C 0.92403 0.96589 0.43751 0.0
C1617 C 0.94368 0.93331 0.44134 0.0
C1618 C 0.90084 0.9419 0.43685 0.0
C1619 C 0.89686 0.88492 0.44004 0.0
C1620 C 0.91659 0.85261 0.44382 0.0
C1621 C 0.93962 0.87637 0.44445 0.0
C1622 C 0.84522 0.77832 0.43748 0.0
C1623 C 0.82544 0.81063 0.44123 0.0
C1624 C 0.86833 0.80264 0.43683 0.0
C1625 C 0.87214 0.8597 0.43997 0.0
C1626 C 0.85227 0.89188 0.44362 0.0
C1627 C 0.82928 0.86777 0.44422 0.0
H1628 H 0.95505 0.88703 0.33463 0.0
H1629 H 0.92277 0.73001 0.32349 0.0
H1630 H 0.91539 0.93065 0.33583 0.0
H1631 H 0.88282 0.77444 0.32412 0.0
H1632 H 0.81212 0.85436 0.33434 0.0
H1633 H 0.85173 0.8104 0.33546 0.0
H1634 H 0.88458 0.96771 0.32447 0.0
H1635 H 0.84469 0.01242 0.3239 0.0
C1636 C 0.93937 0.8618 0.33241 0.0
C1637 C 0.94201 0.80508 0.32893 0.0
C1638 C 0.91658 0.88706 0.33299 0.0
C1639 C 0.89573 0.85663 0.32993 0.0
C1640 C 0.89835 0.79925 0.3267 0.0
C1641 C 0.92125 0.7736 0.3263 0.0
C1642 C 0.82785 0.87974 0.33225 0.0
C1643 C 0.8253 0.93687 0.329 0.0
C1644 C 0.85061 0.85429 0.3328 0.0
C1645 C 0.87152 0.88497 0.32993 0.0
C1646 C 0.86899 0.94269 0.32689 0.0
C1647 C 0.84613 0.96849 0.32653 0.0
H1648 H 0.20413 0.59838 0.07189 0.0
H1649 H 0.17548 0.75837 0.08374 0.0
H1650 H 0.16417 0.55677 0.07276 0.0
H1651 H 0.13517 0.71578 0.08491 0.0
H1652 H 0.06438 0.64173 0.07113 0.0
H1653 H 0.10436 0.68286 0.07218 0.0
H1654 H 0.13253 0.52453 0.08519 0.0
H1655 H 0.09214 0.48235 0.08385 0.0
C1656 C 0.18931 0.62473 0.07479 0.0
C1657 C 0.19305 0.68202 0.07769 0.0
C1658 C 0.16635 0.60049 0.07539 0.0
C1659 C 0.1464 0.63268 0.07894 0.0
C1660 C 0.15011 0.68986 0.08201 0.0
C1661 C 0.1732 0.71432 0.08137 0.0
C1662 C 0.07901 0.6154 0.07425 0.0
C1663 C 0.075 0.55846 0.07737 0.0
C1664 C 0.10199 0.63938 0.07495 0.0
C1665 C 0.12171 0.6073 0.07883 0.0
C1666 C 0.11776 0.55036 0.08205 0.0
C1667 C 0.09463 0.52615 0.08131 0.0
H1668 H 0.06449 0.59677 0.19651 0.0
H1669 H 0.09294 0.75743 0.18485 0.0
H1670 H 0.10446 0.55547 0.19562 0.0
H1671 H 0.13332 0.71511 0.18366 0.0
H1672 H 0.20427 0.64 0.19725 0.0
H1673 H 0.16431 0.6815 0.19626 0.0
H1674 H 0.13594 0.52381 0.18314 0.0
H1675 H 0.17626 0.48129 0.18444 0.0
C1676 C 0.07927 0.62334 0.19365 0.0
C1677 C 0.07546 0.68071 0.1908 0.0
C1678 C 0.10225 0.59927 0.19304 0.0
C1679 C 0.12217 0.63169 0.18952 0.0
C1680 C 0.1184 0.68901 0.18653 0.0
C1681 C 0.09527 0.71331 0.18718 0.0
C1682 C 0.18959 0.61391 0.19412 0.0
C1683 C 0.19351 0.55703 0.19097 0.0
C1684 C 0.16663 0.63811 0.19345 0.0
C1685 C 0.14685 0.60628 0.18957 0.0
C1686 C 0.15074 0.54944 0.18629 0.0
C1687 C 0.17383 0.52502 0.18701 0.0
H1688 H 0.84146 0.23347 0.93419 0.0
H1689 H 0.8142 0.39432 0.94628 0.0
H1690 H 0.88204 0.27458 0.93282 0.0
H1691 H 0.85439 0.43441 0.94524 0.0
H1692 H 0.92645 0.50711 0.93418 0.0
H1693 H 0.88588 0.46601 0.93281 0.0
H1694 H 0.91352 0.30605 0.94526 0.0
H1695 H 0.9537 0.34615 0.94631 0.0
C1696 C 0.8441 0.27739 0.93657 0.0
C1697 C 0.82456 0.31037 0.94036 0.0
C1698 C 0.86734 0.301 0.93582 0.0
C1699 C 0.87153 0.358 0.9389 0.0
C1700 C 0.85187 0.39084 0.94258 0.0
C1701 C 0.82876 0.36746 0.94328 0.0
C1702 C 0.92381 0.46316 0.93657 0.0
C1703 C 0.94335 0.43015 0.94038 0.0
C1704 C 0.90057 0.43956 0.93582 0.0
C1705 C 0.89639 0.38253 0.93891 0.0
C1706 C 0.91604 0.34965 0.9426 0.0
C1707 C 0.93915 0.37303 0.9433 0.0
H1708 H 0.92651 0.23275 0.83424 0.0
H1709 H 0.95413 0.3928 0.82181 0.0
H1710 H 0.88609 0.2746 0.83564 0.0
H1711 H 0.91407 0.43363 0.8229 0.0
H1712 H 0.84251 0.50795 0.83417 0.0
H1713 H 0.88294 0.46599 0.83545 0.0
H1714 H 0.85453 0.3065 0.82325 0.0
H1715 H 0.81447 0.34745 0.8223 0.0
C1716 C 0.92398 0.27665 0.83178 0.0
C1717 C 0.94358 0.30921 0.82789 0.0
C1718 C 0.90082 0.30068 0.83256 0.0
C1719 C 0.89679 0.35768 0.8294 0.0
C1720 C 0.91649 0.39008 0.82561 0.0
C1721 C 0.93952 0.36628 0.82489 0.0
C1722 C 0.84495 0.46391 0.83182 0.0
C1723 C 0.82524 0.43128 0.8281 0.0
C1724 C 0.86811 0.43983 0.83251 0.0
C1725 C 0.87203 0.38269 0.82946 0.0
C1726 C 0.8522 0.35018 0.82587 0.0
C1727 C 0.82918 0.37404 0.82523 0.0
loop_
_geom_bond_atom_site_label_1
_geom_bond_atom_site_label_2
_geom_bond_distance
_geom_bond_site_symmetry_2
_ccdc_geom_bond_type
C0 O2 1.247 . S
C0 O4 1.258 . S
C1 O8 1.247 . S
C1 O9 1.258 1_565 S
O2 C0 1.247 . S
O2 Zn3 2.028 . S
Zn3 O2 2.028 . S
Zn3 O7 2.035 . S
Zn3 O9 2.035 . S
Zn3 O10 2.028 . S
O4 C0 1.258 . S
O4 Zn5 2.035 1_545 S
Zn5 O4 2.035 1_565 S
Zn5 O6 2.028 . S
Zn5 O8 2.028 . S
Zn5 O11 2.035 . S
O6 Zn5 2.028 . S
O6 C12 1.247 . S
O7 Zn3 2.035 . S
O7 C12 1.258 1_545 S
O8 C1 1.247 . S
O8 Zn5 2.028 . S
O9 C1 1.258 1_545 S
O9 Zn3 2.035 . S
O10 Zn3 2.028 . S
O10 C13 1.247 . S
O11 Zn5 2.035 . S
O11 C13 1.258 1_565 S
C12 O6 1.247 . S
C12 O7 1.258 1_565 S
C13 O10 1.247 . S
C13 O11 1.258 1_545 S
C14 O16 1.247 . S
C14 O18 1.258 . S
C15 O22 1.247 . S
C15 O23 1.258 . S
O16 C14 1.247 . S
O16 Zn17 2.028 . S
Zn17 O16 2.028 . S
Zn17 O21 2.035 . S
Zn17 O23 2.035 . S
Zn17 O24 2.028 . S
O18 C14 1.258 . S
O18 Zn19 2.035 . S
Zn19 O18 2.035 . S
Zn19 O20 2.028 . S
Zn19 O22 2.028 . S
Zn19 O25 2.035 . S
O20 Zn19 2.028 . S
O20 C26 1.247 . S
O21 Zn17 2.035 . S
O21 C26 1.258 . S
O22 C15 1.247 . S
O22 Zn19 2.028 . S
O23 C15 1.258 . S
O23 Zn17 2.035 . S
O24 Zn17 2.028 . S
O24 C27 1.247 . S
O25 Zn19 2.035 . S
O25 C27 1.258 . S
C26 O20 1.247 . S
C26 O21 1.258 . S
C27 O24 1.247 . S
C27 O25 1.258 . S
C28 O30 1.247 . S
C28 O32 1.258 . S
C29 O36 1.247 . S
C29 O37 1.258 . S
O30 C28 1.247 . S
O30 Zn31 2.028 . S
Zn31 O30 2.028 . S
Zn31 O35 2.035 . S
Zn31 O37 2.035 . S
Zn31 O38 2.028 . S
O32 C28 1.258 . S
O32 Zn33 2.035 . S
Zn33 O32 2.035 . S
Zn33 O34 2.028 . S
Zn33 O36 2.028 . S
Zn33 O39 2.035 . S
O34 Zn33 2.028 . S
O34 C40 1.247 . S
O35 Zn31 2.035 . S
O35 C40 1.258 . S
O36 C29 1.247 . S
O36 Zn33 2.028 . S
O37 C29 1.258 . S
O37 Zn31 2.035 . S
O38 Zn31 2.028 . S
O38 C41 1.247 . S
O39 Zn33 2.035 . S
O39 C41 1.258 . S
C40 O34 1.247 . S
C40 O35 1.258 . S
C41 O38 1.247 . S
C41 O39 1.258 . S
C42 O44 1.247 . S
C42 O46 1.258 . S
C43 O50 1.247 . S
C43 O51 1.258 1_565 S
O44 C42 1.247 . S
O44 Zn45 2.028 . S
Zn45 O44 2.028 . S
Zn45 O49 2.035 . S
Zn45 O51 2.035 . S
Zn45 O52 2.028 . S
O46 C42 1.258 . S
O46 Zn47 2.035 1_545 S
Zn47 O46 2.035 1_565 S
Zn47 O48 2.028 . S
Zn47 O50 2.028 . S
Zn47 O53 2.035 . S
O48 Zn47 2.028 . S
O48 C54 1.247 . S
O49 Zn45 2.035 . S
O49 C54 1.258 1_545 S
O50 C43 1.247 . S
O50 Zn47 2.028 . S
O51 C43 1.258 1_545 S
O51 Zn45 2.035 . S
O52 Zn45 2.028 . S
O52 C55 1.247 . S
O53 Zn47 2.035 . S
O53 C55 1.258 1_565 S
C54 O48 1.247 . S
C54 O49 1.258 1_565 S
C55 O52 1.247 . S
C55 O53 1.258 1_545 S
C56 O58 1.247 1_545 S
C56 O60 1.258 . S
C57 O64 1.247 1_565 S
C57 O65 1.258 . S
O58 C56 1.247 1_565 S
O58 Zn59 2.028 . S
Zn59 O58 2.028 . S
Zn59 O63 2.035 . S
Zn59 O65 2.035 . S
Zn59 O66 2.028 . S
O60 C56 1.258 . S
O60 Zn61 2.035 . S
Zn61 O60 2.035 . S
Zn61 O62 2.028 1_545 S
Zn61 O64 2.028 . S
Zn61 O67 2.035 . S
O62 Zn61 2.028 1_565 S
O62 C68 1.247 . S
O63 Zn59 2.035 . S
O63 C68 1.258 . S
O64 C57 1.247 1_545 S
O64 Zn61 2.028 . S
O65 C57 1.258 . S
O65 Zn59 2.035 . S
O66 Zn59 2.028 . S
O66 C69 1.247 1_565 S
O67 Zn61 2.035 . S
O67 C69 1.258 . S
C68 O62 1.247 . S
C68 O63 1.258 . S
C69 O66 1.247 1_545 S
C69 O67 1.258 . S
C70 O72 1.247 . S
C70 O74 1.258 . S
C71 O78 1.247 . S
C71 O79 1.258 . S
O72 C70 1.247 . S
O72 Zn73 2.028 . S
Zn73 O72 2.028 . S
Zn73 O77 2.035 . S
Zn73 O79 2.035 . S
Zn73 O80 2.028 . S
O74 C70 1.258 . S
O74 Zn75 2.035 . S
Zn75 O74 2.035 . S
Zn75 O76 2.028 . S
Zn75 O78 2.028 . S
Zn75 O81 2.035 . S
O76 Zn75 2.028 . S
O76 C82 1.247 . S
O77 Zn73 2.035 . S
O77 C82 1.258 . S
O78 C71 1.247 . S
O78 Zn75 2.028 . S
O79 C71 1.258 . S
O79 Zn73 2.035 . S
O80 Zn73 2.028 . S
O80 C83 1.247 . S
O81 Zn75 2.035 . S
O81 C83 1.258 . S
C82 O76 1.247 . S
C82 O77 1.258 . S
C83 O80 1.247 . S
C83 O81 1.258 . S
C84 O86 1.247 . S
C84 O88 1.258 . S
C85 O92 1.247 . S
C85 O93 1.258 . S
O86 C84 1.247 . S
O86 Zn87 2.028 . S
Zn87 O86 2.028 . S
Zn87 O91 2.035 . S
Zn87 O93 2.035 . S
Zn87 O94 2.028 . S
O88 C84 1.258 . S
O88 Zn89 2.035 . S
Zn89 O88 2.035 . S
Zn89 O90 2.028 . S
Zn89 O92 2.028 . S
Zn89 O95 2.035 . S
O90 Zn89 2.028 . S
O90 C96 1.247 . S
O91 Zn87 2.035 . S
O91 C96 1.258 . S
O92 C85 1.247 . S
O92 Zn89 2.028 . S
O93 C85 1.258 . S
O93 Zn87 2.035 . S
O94 Zn87 2.028 . S
O94 C97 1.247 . S
O95 Zn89 2.035 . S
O95 C97 1.258 . S
C96 O90 1.247 . S
C96 O91 1.258 . S
C97 O94 1.247 . S
C97 O95 1.258 . S
C98 O100 1.247 . S
C98 O102 1.258 1_565 S
C99 O106 1.247 . S
C99 O107 1.258 1_545 S
O100 C98 1.247 . S
O100 Zn101 2.028 . S
Zn101 O100 2.028 . S
Zn101 O105 2.035 . S
Zn101 O107 2.035 . S
Zn101 O108 2.028 . S
O102 C98 1.258 1_545 S
O102 Zn103 2.035 . S
Zn103 O102 2.035 . S
Zn103 O104 2.028 . S
Zn103 O106 2.028 . S
Zn103 O109 2.035 1_545 S
O104 Zn103 2.028 . S
O104 C110 1.247 . S
O105 Zn101 2.035 . S
O105 C110 1.258 1_565 S
O106 C99 1.247 . S
O106 Zn103 2.028 . S
O107 C99 1.258 1_565 S
O107 Zn101 2.035 . S
O108 Zn101 2.028 . S
O108 C111 1.247 . S
O109 Zn103 2.035 1_565 S
O109 C111 1.258 . S
C110 O104 1.247 . S
C110 O105 1.258 1_545 S
C111 O108 1.247 . S
C111 O109 1.258 . S
C112 O114 1.247 . S
C112 O116 1.258 . S
C113 O120 1.247 . S
C113 O121 1.258 . S
O114 C112 1.247 . S
O114 Zn115 2.028 . S
Zn115 O114 2.028 . S
Zn115 O119 2.035 . S
Zn115 O121 2.035 . S
Zn115 O122 2.028 . S
O116 C112 1.258 . S
O116 Zn117 2.035 . S
Zn117 O116 2.035 . S
Zn117 O118 2.028 . S
Zn117 O120 2.028 . S
Zn117 O123 2.035 . S
O118 Zn117 2.028 . S
O118 C124 1.247 . S
O119 Zn115 2.035 . S
O119 C124 1.258 . S
O120 C113 1.247 . S
O120 Zn117 2.028 . S
O121 C113 1.258 . S
O121 Zn115 2.035 . S
O122 Zn115 2.028 . S
O122 C125 1.247 . S
O123 Zn117 2.035 . S
O123 C125 1.258 . S
C124 O118 1.247 . S
C124 O119 1.258 . S
C125 O122 1.247 . S
C125 O123 1.258 . S
C126 O128 1.247 . S
C126 O130 1.258 . S
C127 O134 1.247 . S
C127 O135 1.258 . S
O128 C126 1.247 . S
O128 Zn129 2.028 . S
Zn129 O128 2.028 . S
Zn129 O133 2.035 . S
Zn129 O135 2.035 . S
Zn129 O136 2.028 . S
O130 C126 1.258 . S
O130 Zn131 2.035 . S
Zn131 O130 2.035 . S
Zn131 O132 2.028 . S
Zn131 O134 2.028 . S
Zn131 O137 2.035 . S
O132 Zn131 2.028 . S
O132 C138 1.247 . S
O133 Zn129 2.035 . S
O133 C138 1.258 . S
O134 C127 1.247 . S
O134 Zn131 2.028 . S
O135 C127 1.258 . S
O135 Zn129 2.035 . S
O136 Zn129 2.028 . S
O136 C139 1.247 . S
O137 Zn131 2.035 . S
O137 C139 1.258 . S
C138 O132 1.247 . S
C138 O133 1.258 . S
C139 O136 1.247 . S
C139 O137 1.258 . S
C140 O142 1.247 . S
C140 O144 1.258 . S
C141 O148 1.247 . S
C141 O149 1.258 . S
O142 C140 1.247 . S
O142 Zn143 2.028 . S
Zn143 O142 2.028 . S
Zn143 O147 2.035 . S
Zn143 O149 2.035 . S
Zn143 O150 2.028 . S
O144 C140 1.258 . S
O144 Zn145 2.035 . S
Zn145 O144 2.035 . S
Zn145 O146 2.028 . S
Zn145 O148 2.028 . S
Zn145 O151 2.035 . S
O146 Zn145 2.028 . S
O146 C152 1.247 . S
O147 Zn143 2.035 . S
O147 C152 1.258 . S
O148 C141 1.247 . S
O148 Zn145 2.028 . S
O149 C141 1.258 . S
O149 Zn143 2.035 . S
O150 Zn143 2.028 . S
O150 C153 1.247 . S
O151 Zn145 2.035 . S
O151 C153 1.258 . S
C152 O146 1.247 . S
C152 O147 1.258 . S
C153 O150 1.247 . S
C153 O151 1.258 . S
C154 O156 1.247 . S
C154 O158 1.258 . S
C155 O162 1.247 . S
C155 O163 1.258 . S
O156 C154 1.247 . S
O156 Zn157 2.028 . S
Zn157 O156 2.028 . S
Zn157 O161 2.035 . S
Zn157 O163 2.035 . S
Zn157 O164 2.028 . S
O158 C154 1.258 . S
O158 Zn159 2.035 . S
Zn159 O158 2.035 . S
Zn159 O160 2.028 . S
Zn159 O162 2.028 . S
Zn159 O165 2.035 . S
O160 Zn159 2.028 . S
O160 C166 1.247 . S
O161 Zn157 2.035 . S
O161 C166 1.258 . S
O162 C155 1.247 . S
O162 Zn159 2.028 . S
O163 C155 1.258 . S
O163 Zn157 2.035 . S
O164 Zn157 2.028 . S
O164 C167 1.247 . S
O165 Zn159 2.035 . S
O165 C167 1.258 . S
C166 O160 1.247 . S
C166 O161 1.258 . S
C167 O164 1.247 . S
C167 O165 1.258 . S
C168 O170 1.247 . S
C168 O172 1.258 . S
C169 O176 1.247 . S
C169 O177 1.258 . S
O170 C168 1.247 . S
O170 Zn171 2.028 . S
Zn171 O170 2.028 . S
Zn171 O175 2.035 . S
Zn171 O177 2.035 . S
Zn171 O178 2.028 . S
O172 C168 1.258 . S
O172 Zn173 2.035 . S
Zn173 O172 2.035 . S
Zn173 O174 2.028 . S
Zn173 O176 2.028 . S
Zn173 O179 2.035 . S
O174 Zn173 2.028 . S
O174 C180 1.247 . S
O175 Zn171 2.035 . S
O175 C180 1.258 . S
O176 C169 1.247 . S
O176 Zn173 2.028 . S
O177 C169 1.258 . S
O177 Zn171 2.035 . S
O178 Zn171 2.028 . S
O178 C181 1.247 . S
O179 Zn173 2.035 . S
O179 C181 1.258 . S
C180 O174 1.247 . S
C180 O175 1.258 . S
C181 O178 1.247 . S
C181 O179 1.258 . S
C182 O184 1.247 . S
C182 O186 1.258 . S
C183 O190 1.247 . S
C183 O191 1.258 . S
O184 C182 1.247 . S
O184 Zn185 2.028 . S
Zn185 O184 2.028 . S
Zn185 O189 2.035 . S
Zn185 O191 2.035 . S
Zn185 O192 2.028 . S
O186 C182 1.258 . S
O186 Zn187 2.035 . S
Zn187 O186 2.035 . S
Zn187 O188 2.028 . S
Zn187 O190 2.028 . S
Zn187 O193 2.035 . S
O188 Zn187 2.028 . S
O188 C194 1.247 . S
O189 Zn185 2.035 . S
O189 C194 1.258 . S
O190 C183 1.247 . S
O190 Zn187 2.028 . S
O191 C183 1.258 . S
O191 Zn185 2.035 . S
O192 Zn185 2.028 . S
O192 C195 1.247 . S
O193 Zn187 2.035 . S
O193 C195 1.258 . S
C194 O188 1.247 . S
C194 O189 1.258 . S
C195 O192 1.247 . S
C195 O193 1.258 . S
C196 O198 1.247 . S
C196 O200 1.258 . S
C197 O204 1.247 . S
C197 O205 1.258 . S
O198 C196 1.247 . S
O198 Zn199 2.028 . S
Zn199 O198 2.028 . S
Zn199 O203 2.035 . S
Zn199 O205 2.035 . S
Zn199 O206 2.028 . S
O200 C196 1.258 . S
O200 Zn201 2.035 . S
Zn201 O200 2.035 . S
Zn201 O202 2.028 . S
Zn201 O204 2.028 . S
Zn201 O207 2.035 . S
O202 Zn201 2.028 . S
O202 C208 1.247 . S
O203 Zn199 2.035 . S
O203 C208 1.258 . S
O204 C197 1.247 . S
O204 Zn201 2.028 . S
O205 C197 1.258 . S
O205 Zn199 2.035 . S
O206 Zn199 2.028 . S
O206 C209 1.247 . S
O207 Zn201 2.035 . S
O207 C209 1.258 . S
C208 O202 1.247 . S
C208 O203 1.258 . S
C209 O206 1.247 . S
C209 O207 1.258 . S
C210 O212 1.247 . S
C210 O214 1.258 . S
C211 O218 1.247 . S
C211 O219 1.258 . S
O212 C210 1.247 . S
O212 Zn213 2.028 . S
Zn213 O212 2.028 . S
Zn213 O217 2.035 . S
Zn213 O219 2.035 . S
Zn213 O220 2.028 . S
O214 C210 1.258 . S
O214 Zn215 2.035 . S
Zn215 O214 2.035 . S
Zn215 O216 2.028 . S
Zn215 O218 2.028 . S
Zn215 O221 2.035 . S
O216 Zn215 2.028 . S
O216 C222 1.247 . S
O217 Zn213 2.035 . S
O217 C222 1.258 . S
O218 C211 1.247 . S
O218 Zn215 2.028 . S
O219 C211 1.258 . S
O219 Zn213 2.035 . S
O220 Zn213 2.028 . S
O220 C223 1.247 . S
O221 Zn215 2.035 . S
O221 C223 1.258 . S
C222 O216 1.247 . S
C222 O217 1.258 . S
C223 O220 1.247 . S
C223 O221 1.258 . S
C224 O226 1.246 1_545 S
C224 O228 1.259 1_455 S
C225 O232 1.249 1_565 S
C225 O233 1.255 1_655 S
O226 C224 1.246 1_565 S
O226 Zn227 2.028 . S
Zn227 O226 2.028 . S
Zn227 O231 2.035 1_455 S
Zn227 O233 2.035 . S
Zn227 O234 2.028 1_565 S
O228 C224 1.259 1_655 S
O228 Zn229 2.035 . S
Zn229 O228 2.035 . S
Zn229 O230 2.028 . S
Zn229 O232 2.028 . S
Zn229 O235 2.035 1_655 S
O230 Zn229 2.028 . S
O230 C236 1.247 1_545 S
O231 Zn227 2.035 1_655 S
O231 C236 1.258 . S
O232 C225 1.249 1_545 S
O232 Zn229 2.028 . S
O233 C225 1.255 1_455 S
O233 Zn227 2.035 . S
O234 Zn227 2.028 1_545 S
O234 C237 1.247 . S
O235 Zn229 2.035 1_455 S
O235 C237 1.258 . S
C236 O230 1.247 1_565 S
C236 O231 1.258 . S
C237 O234 1.247 . S
C237 O235 1.258 . S
C238 O240 1.247 . S
C238 O242 1.258 . S
C239 O246 1.247 . S
C239 O247 1.258 . S
O240 C238 1.247 . S
O240 Zn241 2.028 . S
Zn241 O240 2.028 . S
Zn241 O245 2.035 . S
Zn241 O247 2.035 . S
Zn241 O248 2.028 . S
O242 C238 1.258 . S
O242 Zn243 2.035 . S
Zn243 O242 2.035 . S
Zn243 O244 2.028 . S
Zn243 O246 2.028 . S
Zn243 O249 2.035 . S
O244 Zn243 2.028 . S
O244 C250 1.247 . S
O245 Zn241 2.035 . S
O245 C250 1.258 . S
O246 C239 1.247 . S
O246 Zn243 2.028 . S
O247 C239 1.258 . S
O247 Zn241 2.035 . S
O248 Zn241 2.028 . S
O248 C251 1.247 . S
O249 Zn243 2.035 . S
O249 C251 1.258 . S
C250 O244 1.247 . S
C250 O245 1.258 . S
C251 O248 1.247 . S
C251 O249 1.258 . S
C252 O254 1.247 . S
C252 O256 1.258 . S
C253 O260 1.247 . S
C253 O261 1.258 . S
O254 C252 1.247 . S
O254 Zn255 2.028 1_455 S
Zn255 O254 2.028 1_655 S
Zn255 O259 2.035 . S
Zn255 O261 2.035 . S
Zn255 O262 2.028 . S
O256 C252 1.258 . S
O256 Zn257 2.035 . S
Zn257 O256 2.035 . S
Zn257 O258 2.028 . S
Zn257 O260 2.028 1_455 S
Zn257 O263 2.035 . S
O258 Zn257 2.028 . S
O258 C264 1.245 1_455 S
O259 Zn255 2.035 . S
O259 C264 1.260 . S
O260 C253 1.247 . S
O260 Zn257 2.028 1_655 S
O261 C253 1.258 . S
O261 Zn255 2.035 . S
O262 Zn255 2.028 . S
O262 C265 1.245 . S
O263 Zn257 2.035 . S
O263 C265 1.260 1_455 S
C264 O258 1.245 1_655 S
C264 O259 1.260 . S
C265 O262 1.245 . S
C265 O263 1.260 1_655 S
C266 O268 1.247 . S
C266 O270 1.258 . S
C267 O274 1.247 . S
C267 O275 1.258 1_565 S
O268 C266 1.247 . S
O268 Zn269 2.028 . S
Zn269 O268 2.028 . S
Zn269 O273 2.035 . S
Zn269 O275 2.035 . S
Zn269 O276 2.028 . S
O270 C266 1.258 . S
O270 Zn271 2.035 1_545 S
Zn271 O270 2.035 1_565 S
Zn271 O272 2.028 . S
Zn271 O274 2.028 . S
Zn271 O277 2.035 . S
O272 Zn271 2.028 . S
O272 C278 1.247 . S
O273 Zn269 2.035 . S
O273 C278 1.258 1_545 S
O274 C267 1.247 . S
O274 Zn271 2.028 . S
O275 C267 1.258 1_545 S
O275 Zn269 2.035 . S
O276 Zn269 2.028 . S
O276 C279 1.247 . S
O277 Zn271 2.035 . S
O277 C279 1.258 1_565 S
C278 O272 1.247 . S
C278 O273 1.258 1_565 S
C279 O276 1.247 . S
C279 O277 1.258 1_545 S
C280 O282 1.245 . S
C280 O284 1.259 1_465 S
C281 O288 1.245 1_455 S
C281 O289 1.259 1_545 S
O282 C280 1.245 . S
O282 Zn283 2.028 . S
Zn283 O282 2.028 . S
Zn283 O287 2.035 . S
Zn283 O289 2.035 . S
Zn283 O290 2.028 1_455 S
O284 C280 1.259 1_645 S
O284 Zn285 2.035 . S
Zn285 O284 2.035 . S
Zn285 O286 2.028 1_655 S
Zn285 O288 2.028 . S
Zn285 O291 2.035 1_545 S
O286 Zn285 2.028 1_455 S
O286 C292 1.247 . S
O287 Zn283 2.035 . S
O287 C292 1.258 1_565 S
O288 C281 1.245 1_655 S
O288 Zn285 2.028 . S
O289 C281 1.259 1_565 S
O289 Zn283 2.035 . S
O290 Zn283 2.028 1_655 S
O290 C293 1.247 . S
O291 Zn285 2.035 1_565 S
O291 C293 1.258 . S
C292 O286 1.247 . S
C292 O287 1.258 1_545 S
C293 O290 1.247 . S
C293 O291 1.258 . S
C294 O296 1.247 . S
C294 O298 1.258 . S
C295 O302 1.247 . S
C295 O303 1.258 . S
O296 C294 1.247 . S
O296 Zn297 2.028 . S
Zn297 O296 2.028 . S
Zn297 O301 2.035 . S
Zn297 O303 2.035 . S
Zn297 O304 2.028 . S
O298 C294 1.258 . S
O298 Zn299 2.035 . S
Zn299 O298 2.035 . S
Zn299 O300 2.028 . S
Zn299 O302 2.028 . S
Zn299 O305 2.035 . S
O300 Zn299 2.028 . S
O300 C306 1.247 . S
O301 Zn297 2.035 . S
O301 C306 1.258 . S
O302 C295 1.247 . S
O302 Zn299 2.028 . S
O303 C295 1.258 . S
O303 Zn297 2.035 . S
O304 Zn297 2.028 . S
O304 C307 1.247 . S
O305 Zn299 2.035 . S
O305 C307 1.258 . S
C306 O300 1.247 . S
C306 O301 1.258 . S
C307 O304 1.247 . S
C307 O305 1.258 . S
C308 O310 1.247 . S
C308 O312 1.258 . S
C309 O316 1.247 . S
C309 O317 1.258 . S
O310 C308 1.247 . S
O310 Zn311 2.028 . S
Zn311 O310 2.028 . S
Zn311 O315 2.035 . S
Zn311 O317 2.035 1_655 S
Zn311 O318 2.028 . S
O312 C308 1.258 . S
O312 Zn313 2.035 1_655 S
Zn313 O312 2.035 1_455 S
Zn313 O314 2.028 . S
Zn313 O316 2.028 . S
Zn313 O319 2.035 . S
O314 Zn313 2.028 . S
O314 C320 1.249 . S
O315 Zn311 2.035 . S
O315 C320 1.255 1_655 S
O316 C309 1.247 . S
O316 Zn313 2.028 . S
O317 C309 1.258 . S
O317 Zn311 2.035 1_455 S
O318 Zn311 2.028 . S
O318 C321 1.246 . S
O319 Zn313 2.035 . S
O319 C321 1.259 1_455 S
C320 O314 1.249 . S
C320 O315 1.255 1_455 S
C321 O318 1.246 . S
C321 O319 1.259 1_655 S
C322 O324 1.247 . S
C322 O326 1.258 1_545 S
C323 O330 1.247 . S
C323 O331 1.258 . S
O324 C322 1.247 . S
O324 Zn325 2.028 . S
Zn325 O324 2.028 . S
Zn325 O329 2.035 . S
Zn325 O331 2.035 1_545 S
Zn325 O332 2.028 . S
O326 C322 1.258 1_565 S
O326 Zn327 2.035 . S
Zn327 O326 2.035 . S
Zn327 O328 2.028 . S
Zn327 O330 2.028 . S
Zn327 O333 2.035 . S
O328 Zn327 2.028 . S
O328 C334 1.247 . S
O329 Zn325 2.035 . S
O329 C334 1.258 1_545 S
O330 C323 1.247 . S
O330 Zn327 2.028 . S
O331 C323 1.258 . S
O331 Zn325 2.035 1_565 S
O332 Zn325 2.028 . S
O332 C335 1.247 . S
O333 Zn327 2.035 . S
O333 C335 1.258 1_565 S
C334 O328 1.247 . S
C334 O329 1.258 1_565 S
C335 O332 1.247 . S
C335 O333 1.258 1_545 S
C336 O338 1.247 . S
C336 O340 1.258 . S
C337 O344 1.247 . S
C337 O345 1.258 . S
O338 C336 1.247 . S
O338 Zn339 2.028 . S
Zn339 O338 2.028 . S
Zn339 O343 2.035 . S
Zn339 O345 2.035 1_655 S
Zn339 O346 2.028 . S
O340 C336 1.258 . S
O340 Zn341 2.035 1_655 S
Zn341 O340 2.035 1_455 S
Zn341 O342 2.028 . S
Zn341 O344 2.028 . S
Zn341 O347 2.035 . S
O342 Zn341 2.028 . S
O342 C348 1.246 . S
O343 Zn339 2.035 . S
O343 C348 1.259 1_655 S
O344 C337 1.247 . S
O344 Zn341 2.028 . S
O345 C337 1.258 . S
O345 Zn339 2.035 1_455 S
O346 Zn339 2.028 . S
O346 C349 1.249 . S
O347 Zn341 2.035 . S
O347 C349 1.255 1_455 S
C348 O342 1.246 . S
C348 O343 1.259 1_455 S
C349 O346 1.249 . S
C349 O347 1.255 1_655 S
C350 O352 1.247 . S
C350 O354 1.258 . S
C351 O358 1.247 . S
C351 O359 1.258 . S
O352 C350 1.247 . S
O352 Zn353 2.028 . S
Zn353 O352 2.028 . S
Zn353 O357 2.035 . S
Zn353 O359 2.035 . S
Zn353 O360 2.028 . S
O354 C350 1.258 . S
O354 Zn355 2.035 . S
Zn355 O354 2.035 . S
Zn355 O356 2.028 . S
Zn355 O358 2.028 . S
Zn355 O361 2.035 . S
O356 Zn355 2.028 . S
O356 C362 1.247 . S
O357 Zn353 2.035 . S
O357 C362 1.258 . S
O358 C351 1.247 . S
O358 Zn355 2.028 . S
O359 C351 1.258 . S
O359 Zn353 2.035 . S
O360 Zn353 2.028 . S
O360 C363 1.247 . S
O361 Zn355 2.035 . S
O361 C363 1.258 . S
C362 O356 1.247 . S
C362 O357 1.258 . S
C363 O360 1.247 . S
C363 O361 1.258 . S
C364 O366 1.247 . S
C364 O368 1.258 . S
C365 O372 1.247 . S
C365 O373 1.258 . S
O366 C364 1.247 . S
O366 Zn367 2.028 1_455 S
Zn367 O366 2.028 1_655 S
Zn367 O371 2.035 . S
Zn367 O373 2.035 . S
Zn367 O374 2.028 . S
O368 C364 1.258 . S
O368 Zn369 2.035 . S
Zn369 O368 2.035 . S
Zn369 O370 2.028 . S
Zn369 O372 2.028 1_455 S
Zn369 O375 2.035 . S
O370 Zn369 2.028 . S
O370 C376 1.245 1_455 S
O371 Zn367 2.035 . S
O371 C376 1.259 . S
O372 C365 1.247 . S
O372 Zn369 2.028 1_655 S
O373 C365 1.258 . S
O373 Zn367 2.035 . S
O374 Zn367 2.028 . S
O374 C377 1.245 . S
O375 Zn369 2.035 . S
O375 C377 1.259 1_455 S
C376 O370 1.245 1_655 S
C376 O371 1.259 . S
C377 O374 1.245 . S
C377 O375 1.259 1_655 S
C378 O380 1.247 . S
C378 O382 1.258 . S
C379 O386 1.247 . S
C379 O387 1.258 . S
O380 C378 1.247 . S
O380 Zn381 2.028 . S
Zn381 O380 2.028 . S
Zn381 O385 2.035 . S
Zn381 O387 2.035 . S
Zn381 O388 2.028 . S
O382 C378 1.258 . S
O382 Zn383 2.035 . S
Zn383 O382 2.035 . S
Zn383 O384 2.028 . S
Zn383 O386 2.028 . S
Zn383 O389 2.035 . S
O384 Zn383 2.028 . S
O384 C390 1.247 . S
O385 Zn381 2.035 . S
O385 C390 1.258 . S
O386 C379 1.247 . S
O386 Zn383 2.028 . S
O387 C379 1.258 . S
O387 Zn381 2.035 . S
O388 Zn381 2.028 . S
O388 C391 1.247 . S
O389 Zn383 2.035 . S
O389 C391 1.258 . S
C390 O384 1.247 . S
C390 O385 1.258 . S
C391 O388 1.247 . S
C391 O389 1.258 . S
C392 O394 1.245 . S
C392 O396 1.259 1_455 S
C393 O400 1.245 1_455 S
C393 O401 1.259 . S
O394 C392 1.245 . S
O394 Zn395 2.028 . S
Zn395 O394 2.028 . S
Zn395 O399 2.035 . S
Zn395 O401 2.035 . S
Zn395 O402 2.028 1_455 S
O396 C392 1.259 1_655 S
O396 Zn397 2.035 . S
Zn397 O396 2.035 . S
Zn397 O398 2.028 1_655 S
Zn397 O400 2.028 . S
Zn397 O403 2.035 . S
O398 Zn397 2.028 1_455 S
O398 C404 1.247 . S
O399 Zn395 2.035 . S
O399 C404 1.258 . S
O400 C393 1.245 1_655 S
O400 Zn397 2.028 . S
O401 C393 1.259 . S
O401 Zn395 2.035 . S
O402 Zn395 2.028 1_655 S
O402 C405 1.247 . S
O403 Zn397 2.035 . S
O403 C405 1.258 . S
C404 O398 1.247 . S
C404 O399 1.258 . S
C405 O402 1.247 . S
C405 O403 1.258 . S
C406 O408 1.247 . S
C406 O410 1.258 . S
C407 O414 1.247 . S
C407 O415 1.258 . S
O408 C406 1.247 . S
O408 Zn409 2.028 . S
Zn409 O408 2.028 . S
Zn409 O413 2.035 . S
Zn409 O415 2.035 . S
Zn409 O416 2.028 . S
O410 C406 1.258 . S
O410 Zn411 2.035 . S
Zn411 O410 2.035 . S
Zn411 O412 2.028 . S
Zn411 O414 2.028 . S
Zn411 O417 2.035 . S
O412 Zn411 2.028 . S
O412 C418 1.247 . S
O413 Zn409 2.035 . S
O413 C418 1.258 . S
O414 C407 1.247 . S
O414 Zn411 2.028 . S
O415 C407 1.258 . S
O415 Zn409 2.035 . S
O416 Zn409 2.028 . S
O416 C419 1.247 . S
O417 Zn411 2.035 . S
O417 C419 1.258 . S
C418 O412 1.247 . S
C418 O413 1.258 . S
C419 O416 1.247 . S
C419 O417 1.258 . S
C420 O422 1.247 . S
C420 O424 1.258 . S
C421 O428 1.247 . S
C421 O429 1.258 . S
O422 C420 1.247 . S
O422 Zn423 2.028 1_455 S
Zn423 O422 2.028 1_655 S
Zn423 O427 2.035 . S
Zn423 O429 2.035 . S
Zn423 O430 2.028 . S
O424 C420 1.258 . S
O424 Zn425 2.035 . S
Zn425 O424 2.035 . S
Zn425 O426 2.028 . S
Zn425 O428 2.028 1_455 S
Zn425 O431 2.035 . S
O426 Zn425 2.028 . S
O426 C432 1.245 . S
O427 Zn423 2.035 . S
O427 C432 1.259 1_655 S
O428 C421 1.247 . S
O428 Zn425 2.028 1_655 S
O429 C421 1.258 . S
O429 Zn423 2.035 . S
O430 Zn423 2.028 . S
O430 C433 1.245 1_655 S
O431 Zn425 2.035 . S
O431 C433 1.259 . S
C432 O426 1.245 . S
C432 O427 1.259 1_455 S
C433 O430 1.245 1_455 S
C433 O431 1.259 . S
C434 O436 1.247 . S
C434 O438 1.258 . S
C435 O442 1.247 . S
C435 O443 1.258 . S
O436 C434 1.247 . S
O436 Zn437 2.028 . S
Zn437 O436 2.028 . S
Zn437 O441 2.035 . S
Zn437 O443 2.035 . S
Zn437 O444 2.028 . S
O438 C434 1.258 . S
O438 Zn439 2.035 . S
Zn439 O438 2.035 . S
Zn439 O440 2.028 . S
Zn439 O442 2.028 . S
Zn439 O445 2.035 . S
O440 Zn439 2.028 . S
O440 C446 1.247 . S
O441 Zn437 2.035 . S
O441 C446 1.258 . S
O442 C435 1.247 . S
O442 Zn439 2.028 . S
O443 C435 1.258 . S
O443 Zn437 2.035 . S
O444 Zn437 2.028 . S
O444 C447 1.247 . S
O445 Zn439 2.035 . S
O445 C447 1.258 . S
C446 O440 1.247 . S
C446 O441 1.258 . S
C447 O444 1.247 . S
C447 O445 1.258 . S
H448 C456 0.950 . S
H449 C461 0.950 . S
H450 C458 0.950 . S
H451 C460 0.950 . S
H452 C462 0.950 . S
H453 C464 0.950 . S
H454 C466 0.950 . S
H455 C467 0.950 . S
C456 H448 0.950 . S
C456 C457 1.386 . S
C456 C458 1.391 . S
C457 C456 1.386 . S
C457 C461 1.393 . S
C458 H450 0.950 . S
C458 C456 1.391 . S
C458 C459 1.400 . S
C459 C458 1.400 . S
C459 C460 1.398 . S
C459 C465 1.491 . S
C460 H451 0.950 . S
C460 C459 1.398 . S
C460 C461 1.391 . S
C461 H449 0.950 . S
C461 C457 1.393 . S
C461 C460 1.391 . S
C462 H452 0.950 . S
C462 C463 1.386 . S
C462 C464 1.391 . S
C463 C462 1.386 . S
C463 C467 1.393 . S
C464 H453 0.950 . S
C464 C462 1.391 . S
C464 C465 1.400 . S
C465 C459 1.491 . S
C465 C464 1.400 . S
C465 C466 1.398 . S
C466 H454 0.950 . S
C466 C465 1.398 . S
C466 C467 1.391 . S
C467 H455 0.950 . S
C467 C463 1.393 . S
C467 C466 1.391 . S
H468 C476 0.950 . S
H469 C481 0.950 . S
H470 C478 0.950 . S
H471 C480 0.950 . S
H472 C482 0.950 . S
H473 C484 0.950 . S
H474 C486 0.950 . S
H475 C487 0.950 . S
C476 H468 0.950 . S
C476 C477 1.386 . S
C476 C478 1.391 . S
C477 C476 1.386 . S
C477 C481 1.393 . S
C478 H470 0.950 . S
C478 C476 1.391 . S
C478 C479 1.400 . S
C479 C478 1.400 . S
C479 C480 1.398 . S
C479 C485 1.491 . S
C480 H471 0.950 . S
C480 C479 1.398 . S
C480 C481 1.391 . S
C481 H469 0.950 . S
C481 C477 1.393 . S
C481 C480 1.391 . S
C482 H472 0.950 . S
C482 C483 1.386 . S
C482 C484 1.391 . S
C483 C482 1.386 . S
C483 C487 1.393 . S
C484 H473 0.950 . S
C484 C482 1.391 . S
C484 C485 1.400 . S
C485 C479 1.491 . S
C485 C484 1.400 . S
C485 C486 1.398 . S
C486 H474 0.950 . S
C486 C485 1.398 . S
C486 C487 1.391 . S
C487 H475 0.950 . S
C487 C483 1.393 . S
C487 C486 1.391 . S
H488 C496 0.950 . S
H489 C501 0.950 . S
H490 C498 0.950 . S
H491 C500 0.950 . S
H492 C502 0.950 . S
H493 C504 0.950 . S
H494 C506 0.950 . S
H495 C507 0.950 . S
C496 H488 0.950 . S
C496 C497 1.386 . S
C496 C498 1.391 . S
C497 C496 1.386 . S
C497 C501 1.393 . S
C498 H490 0.950 . S
C498 C496 1.391 . S
C498 C499 1.400 . S
C499 C498 1.400 . S
C499 C500 1.398 . S
C499 C505 1.491 . S
C500 H491 0.950 . S
C500 C499 1.398 . S
C500 C501 1.391 . S
C501 H489 0.950 . S
C501 C497 1.393 . S
C501 C500 1.391 . S
C502 H492 0.950 . S
C502 C503 1.386 . S
C502 C504 1.391 . S
C503 C502 1.386 . S
C503 C507 1.393 . S
C504 H493 0.950 . S
C504 C502 1.391 . S
C504 C505 1.400 . S
C505 C499 1.491 . S
C505 C504 1.400 . S
C505 C506 1.398 . S
C506 H494 0.950 . S
C506 C505 1.398 . S
C506 C507 1.391 . S
C507 H495 0.950 . S
C507 C503 1.393 . S
C507 C506 1.391 . S
H508 C516 0.950 . S
H509 C521 0.950 . S
H510 C518 0.950 . S
H511 C520 0.950 . S
H512 C522 0.950 . S
H513 C524 0.950 . S
H514 C526 0.950 . S
H515 C527 0.950 . S
C516 H508 0.950 . S
C516 C517 1.386 . S
C516 C518 1.391 . S
C517 C516 1.386 . S
C517 C521 1.393 . S
C518 H510 0.950 . S
C518 C516 1.391 . S
C518 C519 1.400 . S
C519 C518 1.400 . S
C519 C520 1.398 . S
C519 C525 1.491 . S
C520 H511 0.950 . S
C520 C519 1.398 . S
C520 C521 1.391 . S
C521 H509 0.950 . S
C521 C517 1.393 . S
C521 C520 1.391 . S
C522 H512 0.950 . S
C522 C523 1.386 . S
C522 C524 1.391 . S
C523 C522 1.386 . S
C523 C527 1.393 . S
C524 H513 0.950 . S
C524 C522 1.391 . S
C524 C525 1.400 . S
C525 C519 1.491 . S
C525 C524 1.400 . S
C525 C526 1.398 . S
C526 H514 0.950 . S
C526 C525 1.398 . S
C526 C527 1.391 . S
C527 H515 0.950 . S
C527 C523 1.393 . S
C527 C526 1.391 . S
H528 C536 0.950 . S
H529 C541 0.950 . S
H530 C538 0.950 . S
H531 C540 0.950 . S
H532 C542 0.950 . S
H533 C544 0.950 . S
H534 C546 0.950 . S
H535 C547 0.950 . S
C536 H528 0.950 . S
C536 C537 1.386 . S
C536 C538 1.391 . S
C537 C536 1.386 . S
C537 C541 1.393 . S
C538 H530 0.950 . S
C538 C536 1.391 . S
C538 C539 1.400 . S
C539 C538 1.400 . S
C539 C540 1.398 . S
C539 C545 1.491 . S
C540 H531 0.950 . S
C540 C539 1.398 . S
C540 C541 1.391 . S
C541 H529 0.950 . S
C541 C537 1.393 . S
C541 C540 1.391 . S
C542 H532 0.950 . S
C542 C543 1.386 . S
C542 C544 1.391 . S
C543 C542 1.386 . S
C543 C547 1.393 . S
C544 H533 0.950 . S
C544 C542 1.391 . S
C544 C545 1.400 . S
C545 C539 1.491 . S
C545 C544 1.400 . S
C545 C546 1.398 . S
C546 H534 0.950 . S
C546 C545 1.398 . S
C546 C547 1.391 . S
C547 H535 0.950 . S
C547 C543 1.393 . S
C547 C546 1.391 . S
H548 C556 0.950 . S
H549 C561 0.950 . S
H550 C558 0.950 . S
H551 C560 0.950 . S
H552 C562 0.950 . S
H553 C564 0.950 . S
H554 C566 0.950 . S
H555 C567 0.950 . S
C556 H548 0.950 . S
C556 C557 1.386 . S
C556 C558 1.391 . S
C557 C556 1.386 . S
C557 C561 1.393 . S
C558 H550 0.950 . S
C558 C556 1.391 . S
C558 C559 1.400 . S
C559 C558 1.400 . S
C559 C560 1.398 . S
C559 C565 1.491 . S
C560 H551 0.950 . S
C560 C559 1.398 . S
C560 C561 1.391 . S
C561 H549 0.950 . S
C561 C557 1.393 . S
C561 C560 1.391 . S
C562 H552 0.950 . S
C562 C563 1.386 . S
C562 C564 1.391 . S
C563 C562 1.386 . S
C563 C567 1.393 . S
C564 H553 0.950 . S
C564 C562 1.391 . S
C564 C565 1.400 . S
C565 C559 1.491 . S
C565 C564 1.400 . S
C565 C566 1.398 . S
C566 H554 0.950 . S
C566 C565 1.398 . S
C566 C567 1.391 . S
C567 H555 0.950 . S
C567 C563 1.393 . S
C567 C566 1.391 . S
H568 C576 0.950 . S
H569 C581 0.950 . S
H570 C578 0.950 . S
H571 C580 0.950 . S
H572 C582 0.950 . S
H573 C584 0.950 . S
H574 C586 0.950 . S
H575 C587 0.950 . S
C576 H568 0.950 . S
C576 C577 1.386 . S
C576 C578 1.391 . S
C577 C576 1.386 . S
C577 C581 1.393 . S
C578 H570 0.950 . S
C578 C576 1.391 . S
C578 C579 1.400 . S
C579 C578 1.400 . S
C579 C580 1.398 . S
C579 C585 1.491 . S
C580 H571 0.950 . S
C580 C579 1.398 . S
C580 C581 1.391 . S
C581 H569 0.950 . S
C581 C577 1.393 . S
C581 C580 1.391 . S
C582 H572 0.950 . S
C582 C583 1.386 . S
C582 C584 1.391 . S
C583 C582 1.386 . S
C583 C587 1.393 . S
C584 H573 0.950 . S
C584 C582 1.391 . S
C584 C585 1.400 . S
C585 C579 1.491 . S
C585 C584 1.400 . S
C585 C586 1.398 . S
C586 H574 0.950 . S
C586 C585 1.398 . S
C586 C587 1.391 . S
C587 H575 0.950 . S
C587 C583 1.393 . S
C587 C586 1.391 . S
H588 C596 0.950 . S
H589 C601 0.950 . S
H590 C598 0.950 . S
H591 C600 0.950 . S
H592 C602 0.950 . S
H593 C604 0.950 . S
H594 C606 0.950 . S
H595 C607 0.950 . S
C596 H588 0.950 . S
C596 C597 1.386 . S
C596 C598 1.391 . S
C597 C596 1.386 . S
C597 C601 1.393 . S
C598 H590 0.950 . S
C598 C596 1.391 . S
C598 C599 1.400 . S
C599 C598 1.400 . S
C599 C600 1.398 . S
C599 C605 1.491 . S
C600 H591 0.950 . S
C600 C599 1.398 . S
C600 C601 1.391 . S
C601 H589 0.950 . S
C601 C597 1.393 . S
C601 C600 1.391 . S
C602 H592 0.950 . S
C602 C603 1.386 . S
C602 C604 1.391 . S
C603 C602 1.386 . S
C603 C607 1.393 . S
C604 H593 0.950 . S
C604 C602 1.391 . S
C604 C605 1.400 . S
C605 C599 1.491 . S
C605 C604 1.400 . S
C605 C606 1.398 . S
C606 H594 0.950 . S
C606 C605 1.398 . S
C606 C607 1.391 . S
C607 H595 0.950 . S
C607 C603 1.393 . S
C607 C606 1.391 . S
H608 C616 0.950 . S
H609 C621 0.950 1_565 S
H610 C618 0.950 . S
H611 C620 0.950 . S
H612 C622 0.950 . S
H613 C624 0.950 . S
H614 C626 0.950 . S
H615 C627 0.950 . S
C616 H608 0.950 . S
C616 C617 1.379 1_655 S
C616 C618 1.391 . S
C617 C616 1.379 1_455 S
C617 C621 1.400 . S
C618 H610 0.950 . S
C618 C616 1.391 . S
C618 C619 1.400 1_655 S
C619 C618 1.400 1_455 S
C619 C620 1.398 . S
C619 C625 1.491 . S
C620 H611 0.950 . S
C620 C619 1.398 . S
C620 C621 1.391 . S
C621 H609 0.950 1_545 S
C621 C617 1.400 . S
C621 C620 1.391 . S
C622 H612 0.950 . S
C622 C623 1.386 . S
C622 C624 1.391 . S
C623 C622 1.386 . S
C623 C627 1.393 1_455 S
C624 H613 0.950 . S
C624 C622 1.391 . S
C624 C625 1.400 . S
C625 C619 1.491 . S
C625 C624 1.400 . S
C625 C626 1.398 1_455 S
C626 H614 0.950 . S
C626 C625 1.398 1_655 S
C626 C627 1.391 . S
C627 H615 0.950 . S
C627 C623 1.393 1_655 S
C627 C626 1.391 . S
H628 C636 0.950 . S
H629 C641 0.950 . S
H630 C638 0.950 . S
H631 C640 0.950 . S
H632 C642 0.950 . S
H633 C644 0.950 . S
H634 C646 0.950 . S
H635 C647 0.950 . S
C636 H628 0.950 . S
C636 C637 1.386 . S
C636 C638 1.391 . S
C637 C636 1.386 . S
C637 C641 1.393 . S
C638 H630 0.950 . S
C638 C636 1.391 . S
C638 C639 1.400 . S
C639 C638 1.400 . S
C639 C640 1.398 . S
C639 C645 1.491 . S
C640 H631 0.950 . S
C640 C639 1.398 . S
C640 C641 1.391 . S
C641 H629 0.950 . S
C641 C637 1.393 . S
C641 C640 1.391 . S
C642 H632 0.950 . S
C642 C643 1.386 . S
C642 C644 1.391 . S
C643 C642 1.386 . S
C643 C647 1.393 . S
C644 H633 0.950 . S
C644 C642 1.391 . S
C644 C645 1.400 . S
C645 C639 1.491 . S
C645 C644 1.400 . S
C645 C646 1.398 . S
C646 H634 0.950 . S
C646 C645 1.398 . S
C646 C647 1.391 . S
C647 H635 0.950 . S
C647 C643 1.393 . S
C647 C646 1.391 . S
H648 C656 0.950 . S
H649 C661 0.950 . S
H650 C658 0.950 . S
H651 C660 0.950 . S
H652 C662 0.950 . S
H653 C664 0.950 . S
H654 C666 0.950 . S
H655 C667 0.950 . S
C656 H648 0.950 . S
C656 C657 1.386 . S
C656 C658 1.391 . S
C657 C656 1.386 . S
C657 C661 1.393 1_655 S
C658 H650 0.950 . S
C658 C656 1.391 . S
C658 C659 1.400 . S
C659 C658 1.400 . S
C659 C660 1.398 1_655 S
C659 C665 1.491 . S
C660 H651 0.950 . S
C660 C659 1.398 1_455 S
C660 C661 1.391 . S
C661 H649 0.950 . S
C661 C657 1.393 1_455 S
C661 C660 1.391 . S
C662 H652 0.950 . S
C662 C663 1.386 1_455 S
C662 C664 1.391 . S
C663 C662 1.386 1_655 S
C663 C667 1.393 . S
C664 H653 0.950 . S
C664 C662 1.391 . S
C664 C665 1.400 1_455 S
C665 C659 1.491 . S
C665 C664 1.400 1_655 S
C665 C666 1.398 . S
C666 H654 0.950 . S
C666 C665 1.398 . S
C666 C667 1.391 . S
C667 H655 0.950 . S
C667 C663 1.393 . S
C667 C666 1.391 . S
H668 C676 0.950 . S
H669 C681 0.950 . S
H670 C678 0.950 . S
H671 C680 0.950 . S
H672 C682 0.950 . S
H673 C684 0.950 . S
H674 C686 0.950 . S
H675 C687 0.950 1_545 S
C676 H668 0.950 . S
C676 C677 1.386 . S
C676 C678 1.391 . S
C677 C676 1.386 . S
C677 C681 1.393 . S
C678 H670 0.950 . S
C678 C676 1.391 . S
C678 C679 1.400 . S
C679 C678 1.400 . S
C679 C680 1.398 . S
C679 C685 1.491 . S
C680 H671 0.950 . S
C680 C679 1.398 . S
C680 C681 1.391 . S
C681 H669 0.950 . S
C681 C677 1.393 . S
C681 C680 1.391 . S
C682 H672 0.950 . S
C682 C683 1.386 . S
C682 C684 1.391 . S
C683 C682 1.386 . S
C683 C687 1.393 . S
C684 H673 0.950 . S
C684 C682 1.391 . S
C684 C685 1.400 . S
C685 C679 1.491 . S
C685 C684 1.400 . S
C685 C686 1.398 . S
C686 H674 0.950 . S
C686 C685 1.398 . S
C686 C687 1.391 . S
C687 H675 0.950 1_565 S
C687 C683 1.393 . S
C687 C686 1.391 . S
H688 C696 0.950 . S
H689 C701 0.950 . S
H690 C698 0.950 . S
H691 C700 0.950 . S
H692 C702 0.950 . S
H693 C704 0.950 . S
H694 C706 0.950 . S
H695 C707 0.950 . S
C696 H688 0.950 . S
C696 C697 1.386 . S
C696 C698 1.391 . S
C697 C696 1.386 . S
C697 C701 1.393 1_455 S
C698 H690 0.950 . S
C698 C696 1.391 . S
C698 C699 1.400 . S
C699 C698 1.400 . S
C699 C700 1.398 1_455 S
C699 C705 1.491 . S
C700 H691 0.950 . S
C700 C699 1.398 1_655 S
C700 C701 1.391 . S
C701 H689 0.950 . S
C701 C697 1.393 1_655 S
C701 C700 1.391 . S
C702 H692 0.950 . S
C702 C703 1.386 1_655 S
C702 C704 1.391 . S
C703 C702 1.386 1_455 S
C703 C707 1.393 . S
C704 H693 0.950 . S
C704 C702 1.391 . S
C704 C705 1.400 1_655 S
C705 C699 1.491 . S
C705 C704 1.400 1_455 S
C705 C706 1.398 . S
C706 H694 0.950 . S
C706 C705 1.398 . S
C706 C707 1.391 . S
C707 H695 0.950 . S
C707 C703 1.393 . S
C707 C706 1.391 . S
H708 C716 0.950 . S
H709 C721 0.950 . S
H710 C718 0.950 . S
H711 C720 0.950 . S
H712 C722 0.950 . S
H713 C724 0.950 . S
H714 C726 0.950 . S
H715 C727 0.950 . S
C716 H708 0.950 . S
C716 C717 1.386 . S
C716 C718 1.391 . S
C717 C716 1.386 . S
C717 C721 1.393 . S
C718 H710 0.950 . S
C718 C716 1.391 . S
C718 C719 1.400 . S
C719 C718 1.400 . S
C719 C720 1.398 . S
C719 C725 1.491 . S
C720 H711 0.950 . S
C720 C719 1.398 . S
C720 C721 1.391 . S
C721 H709 0.950 . S
C721 C717 1.393 . S
C721 C720 1.391 . S
C722 H712 0.950 . S
C722 C723 1.386 . S
C722 C724 1.391 . S
C723 C722 1.386 . S
C723 C727 1.393 . S
C724 H713 0.950 . S
C724 C722 1.391 . S
C724 C725 1.400 . S
C725 C719 1.491 . S
C725 C724 1.400 . S
C725 C726 1.398 . S
C726 H714 0.950 . S
C726 C725 1.398 . S
C726 C727 1.391 . S
C727 H715 0.950 . S
C727 C723 1.393 . S
C727 C726 1.391 . S
H728 C736 0.952 . S
H729 C741 0.950 . S
H730 C738 0.951 . S
H731 C740 0.950 . S
H732 C742 0.950 . S
H733 C744 0.950 . S
H734 C746 0.950 . S
H735 C747 0.951 . S
C736 H728 0.952 . S
C736 C737 1.384 1_455 S
C736 C738 1.391 . S
C737 C736 1.384 1_655 S
C737 C741 1.394 . S
C738 H730 0.951 . S
C738 C736 1.391 . S
C738 C739 1.399 1_455 S
C739 C738 1.399 1_655 S
C739 C740 1.398 . S
C739 C745 1.491 . S
C740 H731 0.950 . S
C740 C739 1.398 . S
C740 C741 1.391 . S
C741 H729 0.950 . S
C741 C737 1.394 . S
C741 C740 1.391 . S
C742 H732 0.950 . S
C742 C743 1.386 . S
C742 C744 1.391 . S
C743 C742 1.386 . S
C743 C747 1.393 . S
C744 H733 0.950 . S
C744 C742 1.391 . S
C744 C745 1.400 . S
C745 C739 1.491 . S
C745 C744 1.400 . S
C745 C746 1.398 . S
C746 H734 0.950 . S
C746 C745 1.398 . S
C746 C747 1.391 . S
C747 H735 0.951 . S
C747 C743 1.393 . S
C747 C746 1.391 . S
H748 C756 0.950 . S
H749 C761 0.950 . S
H750 C758 0.950 . S
H751 C760 0.950 . S
H752 C762 0.950 . S
H753 C764 0.950 . S
H754 C766 0.950 . S
H755 C767 0.950 . S
C756 H748 0.950 . S
C756 C757 1.386 . S
C756 C758 1.391 . S
C757 C756 1.386 . S
C757 C761 1.393 . S
C758 H750 0.950 . S
C758 C756 1.391 . S
C758 C759 1.400 . S
C759 C758 1.400 . S
C759 C760 1.398 . S
C759 C765 1.491 . S
C760 H751 0.950 . S
C760 C759 1.398 . S
C760 C761 1.391 . S
C761 H749 0.950 . S
C761 C757 1.393 . S
C761 C760 1.391 . S
C762 H752 0.950 . S
C762 C763 1.386 . S
C762 C764 1.391 . S
C763 C762 1.386 . S
C763 C767 1.393 . S
C764 H753 0.950 . S
C764 C762 1.391 . S
C764 C765 1.400 . S
C765 C759 1.491 . S
C765 C764 1.400 . S
C765 C766 1.398 . S
C766 H754 0.950 . S
C766 C765 1.398 . S
C766 C767 1.391 . S
C767 H755 0.950 . S
C767 C763 1.393 . S
C767 C766 1.391 . S
H768 C776 0.950 . S
H769 C781 0.950 . S
H770 C778 0.950 . S
H771 C780 0.950 . S
H772 C782 0.950 . S
H773 C784 0.950 . S
H774 C786 0.950 . S
H775 C787 0.950 . S
C776 H768 0.950 . S
C776 C777 1.386 . S
C776 C778 1.391 . S
C777 C776 1.386 . S
C777 C781 1.393 . S
C778 H770 0.950 . S
C778 C776 1.391 . S
C778 C779 1.400 . S
C779 C778 1.400 . S
C779 C780 1.398 . S
C779 C785 1.491 . S
C780 H771 0.950 . S
C780 C779 1.398 . S
C780 C781 1.391 . S
C781 H769 0.950 . S
C781 C777 1.393 . S
C781 C780 1.391 . S
C782 H772 0.950 . S
C782 C783 1.386 . S
C782 C784 1.391 . S
C783 C782 1.386 . S
C783 C787 1.393 . S
C784 H773 0.950 . S
C784 C782 1.391 . S
C784 C785 1.400 . S
C785 C779 1.491 . S
C785 C784 1.400 . S
C785 C786 1.398 . S
C786 H774 0.950 . S
C786 C785 1.398 . S
C786 C787 1.391 . S
C787 H775 0.950 . S
C787 C783 1.393 . S
C787 C786 1.391 . S
H788 C796 0.950 . S
H789 C801 0.950 . S
H790 C798 0.950 . S
H791 C800 0.950 . S
H792 C802 0.950 . S
H793 C804 0.950 . S
H794 C806 0.950 . S
H795 C807 0.950 . S
C796 H788 0.950 . S
C796 C797 1.386 . S
C796 C798 1.391 . S
C797 C796 1.386 . S
C797 C801 1.393 . S
C798 H790 0.950 . S
C798 C796 1.391 . S
C798 C799 1.400 . S
C799 C798 1.400 . S
C799 C800 1.398 . S
C799 C805 1.491 . S
C800 H791 0.950 . S
C800 C799 1.398 . S
C800 C801 1.391 . S
C801 H789 0.950 . S
C801 C797 1.393 . S
C801 C800 1.391 . S
C802 H792 0.950 . S
C802 C803 1.386 . S
C802 C804 1.391 . S
C803 C802 1.386 . S
C803 C807 1.393 . S
C804 H793 0.950 . S
C804 C802 1.391 . S
C804 C805 1.400 . S
C805 C799 1.491 . S
C805 C804 1.400 . S
C805 C806 1.398 . S
C806 H794 0.950 . S
C806 C805 1.398 . S
C806 C807 1.391 . S
C807 H795 0.950 . S
C807 C803 1.393 . S
C807 C806 1.391 . S
H808 C816 0.950 . S
H809 C821 0.950 . S
H810 C818 0.950 . S
H811 C820 0.950 . S
H812 C822 0.950 . S
H813 C824 0.950 . S
H814 C826 0.950 . S
H815 C827 0.950 . S
C816 H808 0.950 . S
C816 C817 1.386 . S
C816 C818 1.391 . S
C817 C816 1.386 . S
C817 C821 1.393 . S
C818 H810 0.950 . S
C818 C816 1.391 . S
C818 C819 1.400 . S
C819 C818 1.400 . S
C819 C820 1.398 . S
C819 C825 1.491 . S
C820 H811 0.950 . S
C820 C819 1.398 . S
C820 C821 1.391 . S
C821 H809 0.950 . S
C821 C817 1.393 . S
C821 C820 1.391 . S
C822 H812 0.950 . S
C822 C823 1.386 . S
C822 C824 1.391 . S
C823 C822 1.386 . S
C823 C827 1.393 . S
C824 H813 0.950 . S
C824 C822 1.391 . S
C824 C825 1.400 . S
C825 C819 1.491 . S
C825 C824 1.400 . S
C825 C826 1.398 . S
C826 H814 0.950 . S
C826 C825 1.398 . S
C826 C827 1.391 . S
C827 H815 0.950 . S
C827 C823 1.393 . S
C827 C826 1.391 . S
H828 C836 0.950 . S
H829 C841 0.950 . S
H830 C838 0.950 . S
H831 C840 0.950 . S
H832 C842 0.950 . S
H833 C844 0.950 . S
H834 C846 0.950 . S
H835 C847 0.950 . S
C836 H828 0.950 . S
C836 C837 1.386 . S
C836 C838 1.391 . S
C837 C836 1.386 . S
C837 C841 1.393 . S
C838 H830 0.950 . S
C838 C836 1.391 . S
C838 C839 1.400 . S
C839 C838 1.400 . S
C839 C840 1.398 . S
C839 C845 1.491 . S
C840 H831 0.950 . S
C840 C839 1.398 . S
C840 C841 1.391 . S
C841 H829 0.950 . S
C841 C837 1.393 . S
C841 C840 1.391 . S
C842 H832 0.950 . S
C842 C843 1.386 . S
C842 C844 1.391 . S
C843 C842 1.386 . S
C843 C847 1.393 . S
C844 H833 0.950 . S
C844 C842 1.391 . S
C844 C845 1.400 . S
C845 C839 1.491 . S
C845 C844 1.400 . S
C845 C846 1.398 . S
C846 H834 0.950 . S
C846 C845 1.398 . S
C846 C847 1.391 . S
C847 H835 0.950 . S
C847 C843 1.393 . S
C847 C846 1.391 . S
H848 C856 0.950 . S
H849 C861 0.950 . S
H850 C858 0.950 . S
H851 C860 0.950 . S
H852 C862 0.950 . S
H853 C864 0.950 . S
H854 C866 0.950 . S
H855 C867 0.950 1_565 S
C856 H848 0.950 . S
C856 C857 1.386 . S
C856 C858 1.391 . S
C857 C856 1.386 . S
C857 C861 1.393 . S
C858 H850 0.950 . S
C858 C856 1.391 . S
C858 C859 1.400 . S
C859 C858 1.400 . S
C859 C860 1.398 . S
C859 C865 1.491 . S
C860 H851 0.950 . S
C860 C859 1.398 . S
C860 C861 1.391 . S
C861 H849 0.950 . S
C861 C857 1.393 . S
C861 C860 1.391 . S
C862 H852 0.950 . S
C862 C863 1.386 . S
C862 C864 1.391 . S
C863 C862 1.386 . S
C863 C867 1.393 . S
C864 H853 0.950 . S
C864 C862 1.391 . S
C864 C865 1.400 . S
C865 C859 1.491 . S
C865 C864 1.400 . S
C865 C866 1.398 . S
C866 H854 0.950 . S
C866 C865 1.398 . S
C866 C867 1.391 . S
C867 H855 0.950 1_545 S
C867 C863 1.393 . S
C867 C866 1.391 . S
H868 C876 0.950 . S
H869 C881 0.950 . S
H870 C878 0.950 . S
H871 C880 0.950 . S
H872 C882 0.950 . S
H873 C884 0.950 . S
H874 C886 0.950 . S
H875 C887 0.950 . S
C876 H868 0.950 . S
C876 C877 1.386 . S
C876 C878 1.391 . S
C877 C876 1.386 . S
C877 C881 1.393 . S
C878 H870 0.950 . S
C878 C876 1.391 . S
C878 C879 1.400 . S
C879 C878 1.400 . S
C879 C880 1.398 . S
C879 C885 1.491 . S
C880 H871 0.950 . S
C880 C879 1.398 . S
C880 C881 1.391 . S
C881 H869 0.950 . S
C881 C877 1.393 . S
C881 C880 1.391 . S
C882 H872 0.950 . S
C882 C883 1.386 . S
C882 C884 1.391 . S
C883 C882 1.386 . S
C883 C887 1.393 . S
C884 H873 0.950 . S
C884 C882 1.391 . S
C884 C885 1.400 . S
C885 C879 1.491 . S
C885 C884 1.400 . S
C885 C886 1.398 . S
C886 H874 0.950 . S
C886 C885 1.398 . S
C886 C887 1.391 . S
C887 H875 0.950 . S
C887 C883 1.393 . S
C887 C886 1.391 . S
H888 C896 0.950 . S
H889 C901 0.950 . S
H890 C898 0.950 . S
H891 C900 0.950 . S
H892 C902 0.950 . S
H893 C904 0.950 . S
H894 C906 0.950 . S
H895 C907 0.950 . S
C896 H888 0.950 . S
C896 C897 1.386 . S
C896 C898 1.391 . S
C897 C896 1.386 . S
C897 C901 1.393 . S
C898 H890 0.950 . S
C898 C896 1.391 . S
C898 C899 1.400 . S
C899 C898 1.400 . S
C899 C900 1.398 . S
C899 C905 1.491 . S
C900 H891 0.950 . S
C900 C899 1.398 . S
C900 C901 1.391 . S
C901 H889 0.950 . S
C901 C897 1.393 . S
C901 C900 1.391 . S
C902 H892 0.950 . S
C902 C903 1.386 . S
C902 C904 1.391 . S
C903 C902 1.386 . S
C903 C907 1.393 . S
C904 H893 0.950 . S
C904 C902 1.391 . S
C904 C905 1.400 . S
C905 C899 1.491 . S
C905 C904 1.400 . S
C905 C906 1.398 . S
C906 H894 0.950 . S
C906 C905 1.398 . S
C906 C907 1.391 . S
C907 H895 0.950 . S
C907 C903 1.393 . S
C907 C906 1.391 . S
H908 C916 0.950 . S
H909 C921 0.950 . S
H910 C918 0.950 . S
H911 C920 0.950 . S
H912 C922 0.950 1_565 S
H913 C924 0.950 . S
H914 C926 0.950 . S
H915 C927 0.950 . S
C916 H908 0.950 . S
C916 C917 1.386 . S
C916 C918 1.391 . S
C917 C916 1.386 . S
C917 C921 1.393 . S
C918 H910 0.950 . S
C918 C916 1.391 . S
C918 C919 1.400 . S
C919 C918 1.400 . S
C919 C920 1.398 . S
C919 C925 1.491 . S
C920 H911 0.950 . S
C920 C919 1.398 . S
C920 C921 1.391 . S
C921 H909 0.950 . S
C921 C917 1.393 . S
C921 C920 1.391 . S
C922 H912 0.950 1_545 S
C922 C923 1.386 . S
C922 C924 1.391 . S
C923 C922 1.386 . S
C923 C927 1.393 . S
C924 H913 0.950 . S
C924 C922 1.391 . S
C924 C925 1.400 . S
C925 C919 1.491 . S
C925 C924 1.400 . S
C925 C926 1.398 . S
C926 H914 0.950 . S
C926 C925 1.398 . S
C926 C927 1.391 . S
C927 H915 0.950 . S
C927 C923 1.393 . S
C927 C926 1.391 . S
H928 C936 0.950 . S
H929 C941 0.950 . S
H930 C938 0.950 . S
H931 C940 0.950 . S
H932 C942 0.950 . S
H933 C944 0.950 . S
H934 C946 0.950 . S
H935 C947 0.950 . S
C936 H928 0.950 . S
C936 C937 1.386 . S
C936 C938 1.391 . S
C937 C936 1.386 . S
C937 C941 1.393 . S
C938 H930 0.950 . S
C938 C936 1.391 . S
C938 C939 1.400 . S
C939 C938 1.400 . S
C939 C940 1.398 . S
C939 C945 1.491 . S
C940 H931 0.950 . S
C940 C939 1.398 . S
C940 C941 1.391 . S
C941 H929 0.950 . S
C941 C937 1.393 . S
C941 C940 1.391 . S
C942 H932 0.950 . S
C942 C943 1.386 . S
C942 C944 1.391 . S
C943 C942 1.386 . S
C943 C947 1.393 . S
C944 H933 0.950 . S
C944 C942 1.391 . S
C944 C945 1.400 . S
C945 C939 1.491 . S
C945 C944 1.400 . S
C945 C946 1.398 . S
C946 H934 0.950 . S
C946 C945 1.398 . S
C946 C947 1.391 . S
C947 H935 0.950 . S
C947 C943 1.393 . S
C947 C946 1.391 . S
H948 C956 0.950 . S
H949 C961 0.950 . S
H950 C958 0.950 . S
H951 C960 0.950 . S
H952 C962 0.950 . S
H953 C964 0.950 . S
H954 C966 0.950 . S
H955 C967 0.950 . S
C956 H948 0.950 . S
C956 C957 1.386 . S
C956 C958 1.391 . S
C957 C956 1.386 . S
C957 C961 1.393 . S
C958 H950 0.950 . S
C958 C956 1.391 . S
C958 C959 1.400 . S
C959 C958 1.400 . S
C959 C960 1.398 . S
C959 C965 1.491 . S
C960 H951 0.950 . S
C960 C959 1.398 . S
C960 C961 1.391 . S
C961 H949 0.950 . S
C961 C957 1.393 . S
C961 C960 1.391 . S
C962 H952 0.950 . S
C962 C963 1.386 . S
C962 C964 1.391 . S
C963 C962 1.386 . S
C963 C967 1.393 . S
C964 H953 0.950 . S
C964 C962 1.391 . S
C964 C965 1.400 . S
C965 C959 1.491 . S
C965 C964 1.400 . S
C965 C966 1.398 . S
C966 H954 0.950 . S
C966 C965 1.398 . S
C966 C967 1.391 . S
C967 H955 0.950 . S
C967 C963 1.393 . S
C967 C966 1.391 . S
H968 C976 0.950 . S
H969 C981 0.950 . S
H970 C978 0.950 . S
H971 C980 0.950 . S
H972 C982 0.950 . S
H973 C984 0.950 . S
H974 C986 0.950 . S
H975 C987 0.950 . S
C976 H968 0.950 . S
C976 C977 1.386 . S
C976 C978 1.391 . S
C977 C976 1.386 . S
C977 C981 1.393 . S
C978 H970 0.950 . S
C978 C976 1.391 . S
C978 C979 1.400 . S
C979 C978 1.400 . S
C979 C980 1.398 . S
C979 C985 1.491 . S
C980 H971 0.950 . S
C980 C979 1.398 . S
C980 C981 1.391 . S
C981 H969 0.950 . S
C981 C977 1.393 . S
C981 C980 1.391 . S
C982 H972 0.950 . S
C982 C983 1.386 . S
C982 C984 1.391 . S
C983 C982 1.386 . S
C983 C987 1.393 . S
C984 H973 0.950 . S
C984 C982 1.391 . S
C984 C985 1.400 . S
C985 C979 1.491 . S
C985 C984 1.400 . S
C985 C986 1.398 . S
C986 H974 0.950 . S
C986 C985 1.398 . S
C986 C987 1.391 . S
C987 H975 0.950 . S
C987 C983 1.393 . S
C987 C986 1.391 . S
H988 C996 0.950 . S
H989 C1001 0.950 . S
H990 C998 0.950 . S
H991 C1000 0.950 . S
H992 C1002 0.950 . S
H993 C1004 0.950 . S
H994 C1006 0.950 . S
H995 C1007 0.950 . S
C996 H988 0.950 . S
C996 C997 1.386 . S
C996 C998 1.391 . S
C997 C996 1.386 . S
C997 C1001 1.393 . S
C998 H990 0.950 . S
C998 C996 1.391 . S
C998 C999 1.400 . S
C999 C998 1.400 . S
C999 C1000 1.398 . S
C999 C1005 1.491 . S
C1000 H991 0.950 . S
C1000 C999 1.398 . S
C1000 C1001 1.391 . S
C1001 H989 0.950 . S
C1001 C997 1.393 . S
C1001 C1000 1.391 . S
C1002 H992 0.950 . S
C1002 C1003 1.386 . S
C1002 C1004 1.391 . S
C1003 C1002 1.386 . S
C1003 C1007 1.393 . S
C1004 H993 0.950 . S
C1004 C1002 1.391 . S
C1004 C1005 1.400 . S
C1005 C999 1.491 . S
C1005 C1004 1.400 . S
C1005 C1006 1.398 . S
C1006 H994 0.950 . S
C1006 C1005 1.398 . S
C1006 C1007 1.391 . S
C1007 H995 0.950 . S
C1007 C1003 1.393 . S
C1007 C1006 1.391 . S
H1008 C1016 0.950 . S
H1009 C1021 0.950 . S
H1010 C1018 0.950 . S
H1011 C1020 0.950 . S
H1012 C1022 0.950 . S
H1013 C1024 0.950 . S
H1014 C1026 0.950 . S
H1015 C1027 0.950 . S
C1016 H1008 0.950 . S
C1016 C1017 1.386 . S
C1016 C1018 1.391 . S
C1017 C1016 1.386 . S
C1017 C1021 1.393 . S
C1018 H1010 0.950 . S
C1018 C1016 1.391 . S
C1018 C1019 1.400 . S
C1019 C1018 1.400 . S
C1019 C1020 1.398 . S
C1019 C1025 1.491 . S
C1020 H1011 0.950 . S
C1020 C1019 1.398 . S
C1020 C1021 1.391 . S
C1021 H1009 0.950 . S
C1021 C1017 1.393 . S
C1021 C1020 1.391 . S
C1022 H1012 0.950 . S
C1022 C1023 1.386 . S
C1022 C1024 1.391 . S
C1023 C1022 1.386 . S
C1023 C1027 1.393 . S
C1024 H1013 0.950 . S
C1024 C1022 1.391 . S
C1024 C1025 1.400 . S
C1025 C1019 1.491 . S
C1025 C1024 1.400 . S
C1025 C1026 1.398 . S
C1026 H1014 0.950 . S
C1026 C1025 1.398 . S
C1026 C1027 1.391 . S
C1027 H1015 0.950 . S
C1027 C1023 1.393 . S
C1027 C1026 1.391 . S
H1028 C1036 0.950 . S
H1029 C1041 0.943 1_565 S
H1030 C1038 0.950 . S
H1031 C1040 0.950 . S
H1032 C1042 0.950 . S
H1033 C1044 0.950 . S
H1034 C1046 0.950 . S
H1035 C1047 0.950 . S
C1036 H1028 0.950 . S
C1036 C1037 1.386 . S
C1036 C1038 1.391 . S
C1037 C1036 1.386 . S
C1037 C1041 1.393 . S
C1038 H1030 0.950 . S
C1038 C1036 1.391 . S
C1038 C1039 1.400 . S
C1039 C1038 1.400 . S
C1039 C1040 1.398 . S
C1039 C1045 1.491 . S
C1040 H1031 0.950 . S
C1040 C1039 1.398 . S
C1040 C1041 1.391 . S
C1041 H1029 0.943 1_545 S
C1041 C1037 1.393 . S
C1041 C1040 1.391 . S
C1042 H1032 0.950 . S
C1042 C1043 1.386 . S
C1042 C1044 1.391 . S
C1043 C1042 1.386 . S
C1043 C1047 1.393 . S
C1044 H1033 0.950 . S
C1044 C1042 1.391 . S
C1044 C1045 1.400 . S
C1045 C1039 1.491 . S
C1045 C1044 1.400 . S
C1045 C1046 1.398 . S
C1046 H1034 0.950 . S
C1046 C1045 1.398 . S
C1046 C1047 1.391 . S
C1047 H1035 0.950 . S
C1047 C1043 1.393 . S
C1047 C1046 1.391 . S
H1048 C1056 0.950 . S
H1049 C1061 0.950 1_565 S
H1050 C1058 0.950 . S
H1051 C1060 0.950 . S
H1052 C1062 0.950 . S
H1053 C1064 0.950 . S
H1054 C1066 0.950 . S
H1055 C1067 0.950 . S
C1056 H1048 0.950 . S
C1056 C1057 1.386 . S
C1056 C1058 1.391 . S
C1057 C1056 1.386 . S
C1057 C1061 1.393 . S
C1058 H1050 0.950 . S
C1058 C1056 1.391 . S
C1058 C1059 1.400 . S
C1059 C1058 1.400 . S
C1059 C1060 1.398 . S
C1059 C1065 1.491 . S
C1060 H1051 0.950 . S
C1060 C1059 1.398 . S
C1060 C1061 1.391 . S
C1061 H1049 0.950 1_545 S
C1061 C1057 1.393 . S
C1061 C1060 1.391 . S
C1062 H1052 0.950 . S
C1062 C1063 1.386 . S
C1062 C1064 1.391 . S
C1063 C1062 1.386 . S
C1063 C1067 1.393 . S
C1064 H1053 0.950 . S
C1064 C1062 1.391 . S
C1064 C1065 1.400 . S
C1065 C1059 1.491 . S
C1065 C1064 1.400 . S
C1065 C1066 1.398 . S
C1066 H1054 0.950 . S
C1066 C1065 1.398 . S
C1066 C1067 1.391 . S
C1067 H1055 0.950 . S
C1067 C1063 1.393 . S
C1067 C1066 1.391 . S
H1068 C1076 0.950 . S
H1069 C1081 0.950 . S
H1070 C1078 0.950 . S
H1071 C1080 0.950 . S
H1072 C1082 0.950 . S
H1073 C1084 0.950 . S
H1074 C1086 0.950 . S
H1075 C1087 0.950 . S
C1076 H1068 0.950 . S
C1076 C1077 1.386 . S
C1076 C1078 1.391 . S
C1077 C1076 1.386 . S
C1077 C1081 1.393 . S
C1078 H1070 0.950 . S
C1078 C1076 1.391 . S
C1078 C1079 1.400 . S
C1079 C1078 1.400 . S
C1079 C1080 1.398 . S
C1079 C1085 1.491 . S
C1080 H1071 0.950 . S
C1080 C1079 1.398 . S
C1080 C1081 1.391 . S
C1081 H1069 0.950 . S
C1081 C1077 1.393 . S
C1081 C1080 1.391 . S
C1082 H1072 0.950 . S
C1082 C1083 1.386 . S
C1082 C1084 1.391 . S
C1083 C1082 1.386 . S
C1083 C1087 1.393 . S
C1084 H1073 0.950 . S
C1084 C1082 1.391 . S
C1084 C1085 1.400 . S
C1085 C1079 1.491 . S
C1085 C1084 1.400 . S
C1085 C1086 1.398 . S
C1086 H1074 0.950 . S
C1086 C1085 1.398 . S
C1086 C1087 1.391 . S
C1087 H1075 0.950 . S
C1087 C1083 1.393 . S
C1087 C1086 1.391 . S
H1088 C1096 0.950 . S
H1089 C1101 0.950 . S
H1090 C1098 0.950 . S
H1091 C1100 0.950 . S
H1092 C1102 0.950 . S
H1093 C1104 0.950 . S
H1094 C1106 0.950 . S
H1095 C1107 0.950 . S
C1096 H1088 0.950 . S
C1096 C1097 1.386 . S
C1096 C1098 1.391 . S
C1097 C1096 1.386 . S
C1097 C1101 1.393 1_565 S
C1098 H1090 0.950 . S
C1098 C1096 1.391 . S
C1098 C1099 1.400 . S
C1099 C1098 1.400 . S
C1099 C1100 1.398 1_565 S
C1099 C1105 1.491 1_564 S
C1100 H1091 0.950 . S
C1100 C1099 1.398 1_545 S
C1100 C1101 1.391 . S
C1101 H1089 0.950 . S
C1101 C1097 1.393 1_545 S
C1101 C1100 1.391 . S
C1102 H1092 0.950 . S
C1102 C1103 1.386 . S
C1102 C1104 1.391 . S
C1103 C1102 1.386 . S
C1103 C1107 1.393 1_545 S
C1104 H1093 0.950 . S
C1104 C1102 1.391 . S
C1104 C1105 1.400 . S
C1105 C1099 1.491 1_546 S
C1105 C1104 1.400 . S
C1105 C1106 1.398 1_545 S
C1106 H1094 0.950 . S
C1106 C1105 1.398 1_565 S
C1106 C1107 1.391 . S
C1107 H1095 0.950 . S
C1107 C1103 1.393 1_565 S
C1107 C1106 1.391 . S
H1108 C1116 0.950 . S
H1109 C1121 0.950 . S
H1110 C1118 0.950 . S
H1111 C1120 0.950 . S
H1112 C1122 0.950 . S
H1113 C1124 0.950 . S
H1114 C1126 0.950 . S
H1115 C1127 0.950 . S
C1116 H1108 0.950 . S
C1116 C1117 1.386 . S
C1116 C1118 1.391 . S
C1117 C1116 1.386 . S
C1117 C1121 1.393 . S
C1118 H1110 0.950 . S
C1118 C1116 1.391 . S
C1118 C1119 1.400 . S
C1119 C1118 1.400 . S
C1119 C1120 1.398 . S
C1119 C1125 1.491 1_554 S
C1120 H1111 0.950 . S
C1120 C1119 1.398 . S
C1120 C1121 1.391 . S
C1121 H1109 0.950 . S
C1121 C1117 1.393 . S
C1121 C1120 1.391 . S
C1122 H1112 0.950 . S
C1122 C1123 1.386 . S
C1122 C1124 1.391 . S
C1123 C1122 1.386 . S
C1123 C1127 1.393 . S
C1124 H1113 0.950 . S
C1124 C1122 1.391 . S
C1124 C1125 1.400 . S
C1125 C1119 1.491 1_556 S
C1125 C1124 1.400 . S
C1125 C1126 1.398 . S
C1126 H1114 0.950 . S
C1126 C1125 1.398 . S
C1126 C1127 1.391 . S
C1127 H1115 0.950 . S
C1127 C1123 1.393 . S
C1127 C1126 1.391 . S
H1128 C1136 0.950 . S
H1129 C1141 0.950 . S
H1130 C1138 0.950 . S
H1131 C1140 0.950 . S
H1132 C1142 0.950 . S
H1133 C1144 0.950 . S
H1134 C1146 0.950 . S
H1135 C1147 0.950 . S
C1136 H1128 0.950 . S
C1136 C1137 1.386 . S
C1136 C1138 1.391 . S
C1137 C1136 1.386 . S
C1137 C1141 1.393 . S
C1138 H1130 0.950 . S
C1138 C1136 1.391 . S
C1138 C1139 1.400 . S
C1139 C1138 1.400 . S
C1139 C1140 1.398 . S
C1139 C1145 1.491 . S
C1140 H1131 0.950 . S
C1140 C1139 1.398 . S
C1140 C1141 1.391 . S
C1141 H1129 0.950 . S
C1141 C1137 1.393 . S
C1141 C1140 1.391 . S
C1142 H1132 0.950 . S
C1142 C1143 1.386 . S
C1142 C1144 1.391 . S
C1143 C1142 1.386 . S
C1143 C1147 1.393 . S
C1144 H1133 0.950 . S
C1144 C1142 1.391 . S
C1144 C1145 1.400 . S
C1145 C1139 1.491 . S
C1145 C1144 1.400 . S
C1145 C1146 1.398 . S
C1146 H1134 0.950 . S
C1146 C1145 1.398 . S
C1146 C1147 1.391 . S
C1147 H1135 0.950 . S
C1147 C1143 1.393 . S
C1147 C1146 1.391 . S
H1148 C1156 0.950 . S
H1149 C1161 0.950 . S
H1150 C1158 0.950 . S
H1151 C1160 0.950 . S
H1152 C1162 0.950 . S
H1153 C1164 0.950 . S
H1154 C1166 0.950 . S
H1155 C1167 0.950 . S
C1156 H1148 0.950 . S
C1156 C1157 1.386 . S
C1156 C1158 1.391 . S
C1157 C1156 1.386 . S
C1157 C1161 1.393 1_565 S
C1158 H1150 0.950 . S
C1158 C1156 1.391 . S
C1158 C1159 1.400 1_565 S
C1159 C1158 1.400 1_545 S
C1159 C1160 1.398 . S
C1159 C1165 1.491 . S
C1160 H1151 0.950 . S
C1160 C1159 1.398 . S
C1160 C1161 1.391 . S
C1161 H1149 0.950 . S
C1161 C1157 1.393 1_545 S
C1161 C1160 1.391 . S
C1162 H1152 0.950 . S
C1162 C1163 1.386 . S
C1162 C1164 1.391 . S
C1163 C1162 1.386 . S
C1163 C1167 1.393 1_545 S
C1164 H1153 0.950 . S
C1164 C1162 1.391 . S
C1164 C1165 1.400 . S
C1165 C1159 1.491 . S
C1165 C1164 1.400 . S
C1165 C1166 1.398 1_545 S
C1166 H1154 0.950 . S
C1166 C1165 1.398 1_565 S
C1166 C1167 1.391 . S
C1167 H1155 0.950 . S
C1167 C1163 1.393 1_565 S
C1167 C1166 1.391 . S
H1168 C1176 0.950 . S
H1169 C1181 0.950 . S
H1170 C1178 0.950 . S
H1171 C1180 0.950 . S
H1172 C1182 0.950 . S
H1173 C1184 0.950 . S
H1174 C1186 0.950 . S
H1175 C1187 0.950 . S
C1176 H1168 0.950 . S
C1176 C1177 1.386 . S
C1176 C1178 1.391 . S
C1177 C1176 1.386 . S
C1177 C1181 1.393 . S
C1178 H1170 0.950 . S
C1178 C1176 1.391 . S
C1178 C1179 1.400 . S
C1179 C1178 1.400 . S
C1179 C1180 1.398 . S
C1179 C1185 1.491 1_556 S
C1180 H1171 0.950 . S
C1180 C1179 1.398 . S
C1180 C1181 1.391 . S
C1181 H1169 0.950 . S
C1181 C1177 1.393 . S
C1181 C1180 1.391 . S
C1182 H1172 0.950 . S
C1182 C1183 1.386 . S
C1182 C1184 1.391 . S
C1183 C1182 1.386 . S
C1183 C1187 1.393 . S
C1184 H1173 0.950 . S
C1184 C1182 1.391 . S
C1184 C1185 1.400 . S
C1185 C1179 1.491 1_554 S
C1185 C1184 1.400 . S
C1185 C1186 1.398 . S
C1186 H1174 0.950 . S
C1186 C1185 1.398 . S
C1186 C1187 1.391 . S
C1187 H1175 0.950 . S
C1187 C1183 1.393 . S
C1187 C1186 1.391 . S
H1188 C1196 0.950 . S
H1189 C1201 0.950 . S
H1190 C1198 0.950 . S
H1191 C1200 0.950 . S
H1192 C1202 0.950 . S
H1193 C1204 0.950 . S
H1194 C1206 0.950 . S
H1195 C1207 0.950 . S
C1196 H1188 0.950 . S
C1196 C1197 1.386 . S
C1196 C1198 1.391 . S
C1197 C1196 1.386 . S
C1197 C1201 1.393 . S
C1198 H1190 0.950 . S
C1198 C1196 1.391 . S
C1198 C1199 1.400 . S
C1199 C1198 1.400 . S
C1199 C1200 1.398 . S
C1199 C1205 1.491 . S
C1200 H1191 0.950 . S
C1200 C1199 1.398 . S
C1200 C1201 1.391 . S
C1201 H1189 0.950 . S
C1201 C1197 1.393 . S
C1201 C1200 1.391 . S
C1202 H1192 0.950 . S
C1202 C1203 1.386 . S
C1202 C1204 1.391 . S
C1203 C1202 1.386 . S
C1203 C1207 1.393 . S
C1204 H1193 0.950 . S
C1204 C1202 1.391 . S
C1204 C1205 1.400 . S
C1205 C1199 1.491 . S
C1205 C1204 1.400 . S
C1205 C1206 1.398 . S
C1206 H1194 0.950 . S
C1206 C1205 1.398 . S
C1206 C1207 1.391 . S
C1207 H1195 0.950 . S
C1207 C1203 1.393 . S
C1207 C1206 1.391 . S
H1208 C1216 0.950 . S
H1209 C1221 0.950 . S
H1210 C1218 0.949 1_545 S
H1211 C1220 0.950 . S
H1212 C1222 0.949 1_565 S
H1213 C1224 0.950 . S
H1214 C1226 0.950 . S
H1215 C1227 0.950 . S
C1216 H1208 0.950 . S
C1216 C1217 1.386 . S
C1216 C1218 1.392 . S
C1217 C1216 1.386 . S
C1217 C1221 1.393 . S
C1218 H1210 0.949 1_565 S
C1218 C1216 1.392 . S
C1218 C1219 1.401 . S
C1219 C1218 1.401 . S
C1219 C1220 1.398 . S
C1219 C1225 1.491 . S
C1220 H1211 0.950 . S
C1220 C1219 1.398 . S
C1220 C1221 1.391 . S
C1221 H1209 0.950 . S
C1221 C1217 1.393 . S
C1221 C1220 1.391 . S
C1222 H1212 0.949 1_545 S
C1222 C1223 1.386 . S
C1222 C1224 1.391 1_545 S
C1223 C1222 1.386 . S
C1223 C1227 1.393 . S
C1224 H1213 0.950 . S
C1224 C1222 1.391 1_565 S
C1224 C1225 1.400 . S
C1225 C1219 1.491 . S
C1225 C1224 1.400 . S
C1225 C1226 1.398 1_565 S
C1226 H1214 0.950 . S
C1226 C1225 1.398 1_545 S
C1226 C1227 1.391 . S
C1227 H1215 0.950 . S
C1227 C1223 1.393 . S
C1227 C1226 1.391 . S
H1228 C1236 0.950 . S
H1229 C1241 0.950 . S
H1230 C1238 0.950 . S
H1231 C1240 0.950 . S
H1232 C1242 0.950 . S
H1233 C1244 0.950 . S
H1234 C1246 0.950 . S
H1235 C1247 0.950 . S
C1236 H1228 0.950 . S
C1236 C1237 1.386 . S
C1236 C1238 1.391 . S
C1237 C1236 1.386 . S
C1237 C1241 1.393 . S
C1238 H1230 0.950 . S
C1238 C1236 1.391 . S
C1238 C1239 1.400 . S
C1239 C1238 1.400 . S
C1239 C1240 1.398 . S
C1239 C1245 1.491 . S
C1240 H1231 0.950 . S
C1240 C1239 1.398 . S
C1240 C1241 1.391 . S
C1241 H1229 0.950 . S
C1241 C1237 1.393 . S
C1241 C1240 1.391 . S
C1242 H1232 0.950 . S
C1242 C1243 1.386 . S
C1242 C1244 1.391 . S
C1243 C1242 1.386 . S
C1243 C1247 1.393 . S
C1244 H1233 0.950 . S
C1244 C1242 1.391 . S
C1244 C1245 1.400 . S
C1245 C1239 1.491 . S
C1245 C1244 1.400 . S
C1245 C1246 1.398 . S
C1246 H1234 0.950 . S
C1246 C1245 1.398 . S
C1246 C1247 1.391 . S
C1247 H1235 0.950 . S
C1247 C1243 1.393 . S
C1247 C1246 1.391 . S
H1248 C1256 0.950 . S
H1249 C1261 0.950 . S
H1250 C1258 0.950 . S
H1251 C1260 0.950 . S
H1252 C1262 0.950 . S
H1253 C1264 0.950 . S
H1254 C1266 0.950 . S
H1255 C1267 0.950 . S
C1256 H1248 0.950 . S
C1256 C1257 1.386 . S
C1256 C1258 1.391 . S
C1257 C1256 1.386 . S
C1257 C1261 1.393 . S
C1258 H1250 0.950 . S
C1258 C1256 1.391 . S
C1258 C1259 1.400 . S
C1259 C1258 1.400 . S
C1259 C1260 1.398 . S
C1259 C1265 1.491 . S
C1260 H1251 0.950 . S
C1260 C1259 1.398 . S
C1260 C1261 1.391 . S
C1261 H1249 0.950 . S
C1261 C1257 1.393 . S
C1261 C1260 1.391 . S
C1262 H1252 0.950 . S
C1262 C1263 1.386 . S
C1262 C1264 1.391 . S
C1263 C1262 1.386 . S
C1263 C1267 1.393 . S
C1264 H1253 0.950 . S
C1264 C1262 1.391 . S
C1264 C1265 1.400 . S
C1265 C1259 1.491 . S
C1265 C1264 1.400 . S
C1265 C1266 1.398 . S
C1266 H1254 0.950 . S
C1266 C1265 1.398 . S
C1266 C1267 1.391 . S
C1267 H1255 0.950 . S
C1267 C1263 1.393 . S
C1267 C1266 1.391 . S
H1268 C1276 0.950 . S
H1269 C1281 0.950 . S
H1270 C1278 0.950 . S
H1271 C1280 0.950 . S
H1272 C1282 0.950 . S
H1273 C1284 0.950 . S
H1274 C1286 0.950 . S
H1275 C1287 0.950 . S
C1276 H1268 0.950 . S
C1276 C1277 1.386 . S
C1276 C1278 1.391 . S
C1277 C1276 1.386 . S
C1277 C1281 1.393 . S
C1278 H1270 0.950 . S
C1278 C1276 1.391 . S
C1278 C1279 1.400 . S
C1279 C1278 1.400 . S
C1279 C1280 1.398 . S
C1279 C1285 1.491 . S
C1280 H1271 0.950 . S
C1280 C1279 1.398 . S
C1280 C1281 1.391 . S
C1281 H1269 0.950 . S
C1281 C1277 1.393 . S
C1281 C1280 1.391 . S
C1282 H1272 0.950 . S
C1282 C1283 1.386 . S
C1282 C1284 1.391 . S
C1283 C1282 1.386 . S
C1283 C1287 1.393 . S
C1284 H1273 0.950 . S
C1284 C1282 1.391 . S
C1284 C1285 1.400 . S
C1285 C1279 1.491 . S
C1285 C1284 1.400 . S
C1285 C1286 1.398 . S
C1286 H1274 0.950 . S
C1286 C1285 1.398 . S
C1286 C1287 1.391 . S
C1287 H1275 0.950 . S
C1287 C1283 1.393 . S
C1287 C1286 1.391 . S
H1288 C1296 0.950 . S
H1289 C1301 0.950 . S
H1290 C1298 0.950 . S
H1291 C1300 0.950 . S
H1292 C1302 0.950 . S
H1293 C1304 0.950 . S
H1294 C1306 0.950 . S
H1295 C1307 0.950 . S
C1296 H1288 0.950 . S
C1296 C1297 1.386 . S
C1296 C1298 1.391 . S
C1297 C1296 1.386 . S
C1297 C1301 1.393 . S
C1298 H1290 0.950 . S
C1298 C1296 1.391 . S
C1298 C1299 1.400 . S
C1299 C1298 1.400 . S
C1299 C1300 1.398 . S
C1299 C1305 1.491 . S
C1300 H1291 0.950 . S
C1300 C1299 1.398 . S
C1300 C1301 1.391 . S
C1301 H1289 0.950 . S
C1301 C1297 1.393 . S
C1301 C1300 1.391 . S
C1302 H1292 0.950 . S
C1302 C1303 1.386 . S
C1302 C1304 1.391 . S
C1303 C1302 1.386 . S
C1303 C1307 1.393 . S
C1304 H1293 0.950 . S
C1304 C1302 1.391 . S
C1304 C1305 1.400 . S
C1305 C1299 1.491 . S
C1305 C1304 1.400 . S
C1305 C1306 1.398 . S
C1306 H1294 0.950 . S
C1306 C1305 1.398 . S
C1306 C1307 1.391 . S
C1307 H1295 0.950 . S
C1307 C1303 1.393 . S
C1307 C1306 1.391 . S
H1308 C1316 0.950 . S
H1309 C1321 0.950 . S
H1310 C1318 0.950 . S
H1311 C1320 0.950 . S
H1312 C1322 0.950 . S
H1313 C1324 0.950 . S
H1314 C1326 0.950 . S
H1315 C1327 0.950 . S
C1316 H1308 0.950 . S
C1316 C1317 1.386 . S
C1316 C1318 1.391 . S
C1317 C1316 1.386 . S
C1317 C1321 1.393 . S
C1318 H1310 0.950 . S
C1318 C1316 1.391 . S
C1318 C1319 1.400 . S
C1319 C1318 1.400 . S
C1319 C1320 1.398 . S
C1319 C1325 1.491 . S
C1320 H1311 0.950 . S
C1320 C1319 1.398 . S
C1320 C1321 1.391 . S
C1321 H1309 0.950 . S
C1321 C1317 1.393 . S
C1321 C1320 1.391 . S
C1322 H1312 0.950 . S
C1322 C1323 1.386 . S
C1322 C1324 1.391 . S
C1323 C1322 1.386 . S
C1323 C1327 1.393 . S
C1324 H1313 0.950 . S
C1324 C1322 1.391 . S
C1324 C1325 1.400 . S
C1325 C1319 1.491 . S
C1325 C1324 1.400 . S
C1325 C1326 1.398 . S
C1326 H1314 0.950 . S
C1326 C1325 1.398 . S
C1326 C1327 1.391 . S
C1327 H1315 0.950 . S
C1327 C1323 1.393 . S
C1327 C1326 1.391 . S
H1328 C1336 0.950 . S
H1329 C1341 0.950 . S
H1330 C1338 0.950 . S
H1331 C1340 0.950 . S
H1332 C1342 0.950 . S
H1333 C1344 0.950 . S
H1334 C1346 0.950 . S
H1335 C1347 0.950 . S
C1336 H1328 0.950 . S
C1336 C1337 1.386 1_665 S
C1336 C1338 1.391 . S
C1337 C1336 1.386 1_445 S
C1337 C1341 1.393 . S
C1338 H1330 0.950 . S
C1338 C1336 1.391 . S
C1338 C1339 1.375 1_665 S
C1339 C1338 1.375 1_445 S
C1339 C1340 1.425 . S
C1339 C1345 1.489 1_445 S
C1340 H1331 0.950 . S
C1340 C1339 1.425 . S
C1340 C1341 1.391 . S
C1341 H1329 0.950 . S
C1341 C1337 1.393 . S
C1341 C1340 1.391 . S
C1342 H1332 0.950 . S
C1342 C1343 1.386 1_445 S
C1342 C1344 1.391 . S
C1343 C1342 1.386 1_665 S
C1343 C1347 1.393 . S
C1344 H1333 0.950 . S
C1344 C1342 1.391 . S
C1344 C1345 1.383 1_445 S
C1345 C1339 1.489 1_665 S
C1345 C1344 1.383 1_665 S
C1345 C1346 1.416 . S
C1346 H1334 0.950 . S
C1346 C1345 1.416 . S
C1346 C1347 1.391 . S
C1347 H1335 0.950 . S
C1347 C1343 1.393 . S
C1347 C1346 1.391 . S
H1348 C1356 0.950 . S
H1349 C1361 0.950 . S
H1350 C1358 0.950 . S
H1351 C1360 0.950 . S
H1352 C1362 0.950 . S
H1353 C1364 0.950 . S
H1354 C1366 0.950 . S
H1355 C1367 0.950 . S
C1356 H1348 0.950 . S
C1356 C1357 1.360 1_455 S
C1356 C1358 1.391 . S
C1357 C1356 1.360 1_655 S
C1357 C1361 1.418 . S
C1358 H1350 0.950 . S
C1358 C1356 1.391 . S
C1358 C1359 1.401 1_455 S
C1359 C1358 1.401 1_655 S
C1359 C1360 1.398 . S
C1359 C1365 1.491 . S
C1360 H1351 0.950 . S
C1360 C1359 1.398 . S
C1360 C1361 1.391 . S
C1361 H1349 0.950 . S
C1361 C1357 1.418 . S
C1361 C1360 1.391 . S
C1362 H1352 0.950 . S
C1362 C1363 1.367 1_655 S
C1362 C1364 1.391 . S
C1363 C1362 1.367 1_455 S
C1363 C1367 1.411 . S
C1364 H1353 0.950 . S
C1364 C1362 1.391 . S
C1364 C1365 1.401 . S
C1365 C1359 1.491 . S
C1365 C1364 1.401 . S
C1365 C1366 1.398 1_655 S
C1366 H1354 0.950 . S
C1366 C1365 1.398 1_455 S
C1366 C1367 1.391 . S
C1367 H1355 0.950 . S
C1367 C1363 1.411 . S
C1367 C1366 1.391 . S
H1368 C1376 0.950 . S
H1369 C1381 0.950 . S
H1370 C1378 0.950 . S
H1371 C1380 0.950 . S
H1372 C1382 0.950 . S
H1373 C1384 0.950 . S
H1374 C1386 0.950 . S
H1375 C1387 0.950 . S
C1376 H1368 0.950 . S
C1376 C1377 1.386 . S
C1376 C1378 1.391 . S
C1377 C1376 1.386 . S
C1377 C1381 1.393 1_655 S
C1378 H1370 0.950 . S
C1378 C1376 1.391 . S
C1378 C1379 1.419 . S
C1379 C1378 1.419 . S
C1379 C1380 1.382 1_655 S
C1379 C1385 1.489 1_655 S
C1380 H1371 0.950 . S
C1380 C1379 1.382 1_455 S
C1380 C1381 1.391 . S
C1381 H1369 0.950 . S
C1381 C1377 1.393 1_455 S
C1381 C1380 1.391 . S
C1382 H1372 0.950 . S
C1382 C1383 1.386 . S
C1382 C1384 1.391 . S
C1383 C1382 1.386 . S
C1383 C1387 1.393 1_455 S
C1384 H1373 0.950 . S
C1384 C1382 1.391 . S
C1384 C1385 1.413 . S
C1385 C1379 1.489 1_455 S
C1385 C1384 1.413 . S
C1385 C1386 1.387 1_455 S
C1386 H1374 0.950 . S
C1386 C1385 1.387 1_655 S
C1386 C1387 1.391 . S
C1387 H1375 0.950 . S
C1387 C1383 1.393 1_655 S
C1387 C1386 1.391 . S
H1388 C1396 0.950 . S
H1389 C1401 0.950 . S
H1390 C1398 0.950 . S
H1391 C1400 0.950 . S
H1392 C1402 0.950 . S
H1393 C1404 0.950 . S
H1394 C1406 0.950 . S
H1395 C1407 0.950 . S
C1396 H1388 0.950 . S
C1396 C1397 1.395 . S
C1396 C1398 1.391 . S
C1397 C1396 1.395 . S
C1397 C1401 1.383 1_455 S
C1398 H1390 0.950 . S
C1398 C1396 1.391 . S
C1398 C1399 1.401 1_455 S
C1399 C1398 1.401 1_655 S
C1399 C1400 1.397 . S
C1399 C1405 1.491 1_656 S
C1400 H1391 0.950 . S
C1400 C1399 1.397 . S
C1400 C1401 1.391 . S
C1401 H1389 0.950 . S
C1401 C1397 1.383 1_655 S
C1401 C1400 1.391 . S
C1402 H1392 0.950 . S
C1402 C1403 1.391 . S
C1402 C1404 1.391 . S
C1403 C1402 1.391 . S
C1403 C1407 1.387 1_655 S
C1404 H1393 0.950 . S
C1404 C1402 1.391 . S
C1404 C1405 1.397 1_655 S
C1405 C1399 1.491 1_454 S
C1405 C1404 1.397 1_455 S
C1405 C1406 1.402 . S
C1406 H1394 0.950 . S
C1406 C1405 1.402 . S
C1406 C1407 1.391 . S
C1407 H1395 0.950 . S
C1407 C1403 1.387 1_455 S
C1407 C1406 1.391 . S
H1408 C1416 0.950 . S
H1409 C1421 0.950 . S
H1410 C1418 0.950 . S
H1411 C1420 0.950 . S
H1412 C1422 0.950 . S
H1413 C1424 0.950 . S
H1414 C1426 0.950 . S
H1415 C1427 0.950 . S
C1416 H1408 0.950 . S
C1416 C1417 1.386 . S
C1416 C1418 1.391 . S
C1417 C1416 1.386 . S
C1417 C1421 1.393 . S
C1418 H1410 0.950 . S
C1418 C1416 1.391 . S
C1418 C1419 1.400 . S
C1419 C1418 1.400 . S
C1419 C1420 1.398 . S
C1419 C1425 1.491 . S
C1420 H1411 0.950 . S
C1420 C1419 1.398 . S
C1420 C1421 1.391 . S
C1421 H1409 0.950 . S
C1421 C1417 1.393 . S
C1421 C1420 1.391 . S
C1422 H1412 0.950 . S
C1422 C1423 1.386 . S
C1422 C1424 1.391 . S
C1423 C1422 1.386 . S
C1423 C1427 1.393 . S
C1424 H1413 0.950 . S
C1424 C1422 1.391 . S
C1424 C1425 1.400 . S
C1425 C1419 1.491 . S
C1425 C1424 1.400 . S
C1425 C1426 1.398 . S
C1426 H1414 0.950 . S
C1426 C1425 1.398 . S
C1426 C1427 1.391 . S
C1427 H1415 0.950 . S
C1427 C1423 1.393 . S
C1427 C1426 1.391 . S
H1428 C1436 0.950 . S
H1429 C1441 0.950 . S
H1430 C1438 0.950 . S
H1431 C1440 0.950 . S
H1432 C1442 0.960 . S
H1433 C1444 0.950 . S
H1434 C1446 0.950 . S
H1435 C1447 0.950 . S
C1436 H1428 0.950 . S
C1436 C1437 1.386 . S
C1436 C1438 1.391 . S
C1437 C1436 1.386 . S
C1437 C1441 1.393 . S
C1438 H1430 0.950 . S
C1438 C1436 1.391 . S
C1438 C1439 1.400 . S
C1439 C1438 1.400 . S
C1439 C1440 1.398 . S
C1439 C1445 1.491 . S
C1440 H1431 0.950 . S
C1440 C1439 1.398 . S
C1440 C1441 1.391 . S
C1441 H1429 0.950 . S
C1441 C1437 1.393 . S
C1441 C1440 1.391 . S
C1442 H1432 0.960 . S
C1442 C1443 1.386 . S
C1442 C1444 1.391 . S
C1443 C1442 1.386 . S
C1443 C1447 1.393 . S
C1444 H1433 0.950 . S
C1444 C1442 1.391 . S
C1444 C1445 1.400 . S
C1445 C1439 1.491 . S
C1445 C1444 1.400 . S
C1445 C1446 1.398 . S
C1446 H1434 0.950 . S
C1446 C1445 1.398 . S
C1446 C1447 1.391 . S
C1447 H1435 0.950 . S
C1447 C1443 1.393 . S
C1447 C1446 1.391 . S
H1448 C1456 0.950 . S
H1449 C1461 0.950 . S
H1450 C1458 0.950 . S
H1451 C1460 0.950 . S
H1452 C1462 0.950 . S
H1453 C1464 0.950 . S
H1454 C1466 0.950 . S
H1455 C1467 0.950 . S
C1456 H1448 0.950 . S
C1456 C1457 1.386 . S
C1456 C1458 1.391 . S
C1457 C1456 1.386 . S
C1457 C1461 1.393 . S
C1458 H1450 0.950 . S
C1458 C1456 1.391 . S
C1458 C1459 1.400 . S
C1459 C1458 1.400 . S
C1459 C1460 1.398 . S
C1459 C1465 1.491 . S
C1460 H1451 0.950 . S
C1460 C1459 1.398 . S
C1460 C1461 1.391 . S
C1461 H1449 0.950 . S
C1461 C1457 1.393 . S
C1461 C1460 1.391 . S
C1462 H1452 0.950 . S
C1462 C1463 1.386 . S
C1462 C1464 1.391 . S
C1463 C1462 1.386 . S
C1463 C1467 1.393 . S
C1464 H1453 0.950 . S
C1464 C1462 1.391 . S
C1464 C1465 1.400 . S
C1465 C1459 1.491 . S
C1465 C1464 1.400 . S
C1465 C1466 1.398 . S
C1466 H1454 0.950 . S
C1466 C1465 1.398 . S
C1466 C1467 1.391 . S
C1467 H1455 0.950 . S
C1467 C1463 1.393 . S
C1467 C1466 1.391 . S
H1468 C1476 0.950 . S
H1469 C1481 0.950 . S
H1470 C1478 0.950 . S
H1471 C1480 0.950 . S
H1472 C1482 0.950 . S
H1473 C1484 0.950 . S
H1474 C1486 0.950 . S
H1475 C1487 0.950 . S
C1476 H1468 0.950 . S
C1476 C1477 1.386 . S
C1476 C1478 1.391 . S
C1477 C1476 1.386 . S
C1477 C1481 1.393 . S
C1478 H1470 0.950 . S
C1478 C1476 1.391 . S
C1478 C1479 1.400 . S
C1479 C1478 1.400 . S
C1479 C1480 1.398 . S
C1479 C1485 1.491 . S
C1480 H1471 0.950 . S
C1480 C1479 1.398 . S
C1480 C1481 1.391 . S
C1481 H1469 0.950 . S
C1481 C1477 1.393 . S
C1481 C1480 1.391 . S
C1482 H1472 0.950 . S
C1482 C1483 1.386 . S
C1482 C1484 1.391 . S
C1483 C1482 1.386 . S
C1483 C1487 1.393 . S
C1484 H1473 0.950 . S
C1484 C1482 1.391 . S
C1484 C1485 1.400 . S
C1485 C1479 1.491 . S
C1485 C1484 1.400 . S
C1485 C1486 1.398 . S
C1486 H1474 0.950 . S
C1486 C1485 1.398 . S
C1486 C1487 1.391 . S
C1487 H1475 0.950 . S
C1487 C1483 1.393 . S
C1487 C1486 1.391 . S
H1488 C1496 0.950 . S
H1489 C1501 0.950 . S
H1490 C1498 0.950 . S
H1491 C1500 0.950 . S
H1492 C1502 0.950 . S
H1493 C1504 0.950 . S
H1494 C1506 0.950 . S
H1495 C1507 0.950 . S
C1496 H1488 0.950 . S
C1496 C1497 1.386 . S
C1496 C1498 1.391 . S
C1497 C1496 1.386 . S
C1497 C1501 1.393 . S
C1498 H1490 0.950 . S
C1498 C1496 1.391 . S
C1498 C1499 1.400 . S
C1499 C1498 1.400 . S
C1499 C1500 1.398 . S
C1499 C1505 1.491 . S
C1500 H1491 0.950 . S
C1500 C1499 1.398 . S
C1500 C1501 1.391 . S
C1501 H1489 0.950 . S
C1501 C1497 1.393 . S
C1501 C1500 1.391 . S
C1502 H1492 0.950 . S
C1502 C1503 1.386 . S
C1502 C1504 1.391 . S
C1503 C1502 1.386 . S
C1503 C1507 1.393 . S
C1504 H1493 0.950 . S
C1504 C1502 1.391 . S
C1504 C1505 1.400 . S
C1505 C1499 1.491 . S
C1505 C1504 1.400 . S
C1505 C1506 1.398 . S
C1506 H1494 0.950 . S
C1506 C1505 1.398 . S
C1506 C1507 1.391 . S
C1507 H1495 0.950 . S
C1507 C1503 1.393 . S
C1507 C1506 1.391 . S
H1508 C1516 0.950 . S
H1509 C1521 0.950 . S
H1510 C1518 0.950 . S
H1511 C1520 0.950 . S
H1512 C1522 0.950 . S
H1513 C1524 0.950 . S
H1514 C1526 0.950 . S
H1515 C1527 0.950 . S
C1516 H1508 0.950 . S
C1516 C1517 1.386 . S
C1516 C1518 1.391 . S
C1517 C1516 1.386 . S
C1517 C1521 1.393 . S
C1518 H1510 0.950 . S
C1518 C1516 1.391 . S
C1518 C1519 1.400 . S
C1519 C1518 1.400 . S
C1519 C1520 1.398 . S
C1519 C1525 1.491 . S
C1520 H1511 0.950 . S
C1520 C1519 1.398 . S
C1520 C1521 1.391 . S
C1521 H1509 0.950 . S
C1521 C1517 1.393 . S
C1521 C1520 1.391 . S
C1522 H1512 0.950 . S
C1522 C1523 1.386 . S
C1522 C1524 1.391 . S
C1523 C1522 1.386 . S
C1523 C1527 1.393 . S
C1524 H1513 0.950 . S
C1524 C1522 1.391 . S
C1524 C1525 1.400 . S
C1525 C1519 1.491 . S
C1525 C1524 1.400 . S
C1525 C1526 1.398 . S
C1526 H1514 0.950 . S
C1526 C1525 1.398 . S
C1526 C1527 1.391 . S
C1527 H1515 0.950 . S
C1527 C1523 1.393 . S
C1527 C1526 1.391 . S
H1528 C1536 0.950 . S
H1529 C1541 0.950 . S
H1530 C1538 0.950 . S
H1531 C1540 0.950 . S
H1532 C1542 0.950 . S
H1533 C1544 0.950 . S
H1534 C1546 0.950 . S
H1535 C1547 0.950 . S
C1536 H1528 0.950 . S
C1536 C1537 1.386 . S
C1536 C1538 1.391 . S
C1537 C1536 1.386 . S
C1537 C1541 1.393 . S
C1538 H1530 0.950 . S
C1538 C1536 1.391 . S
C1538 C1539 1.400 . S
C1539 C1538 1.400 . S
C1539 C1540 1.398 . S
C1539 C1545 1.491 . S
C1540 H1531 0.950 . S
C1540 C1539 1.398 . S
C1540 C1541 1.391 . S
C1541 H1529 0.950 . S
C1541 C1537 1.393 . S
C1541 C1540 1.391 . S
C1542 H1532 0.950 . S
C1542 C1543 1.386 . S
C1542 C1544 1.391 . S
C1543 C1542 1.386 . S
C1543 C1547 1.393 . S
C1544 H1533 0.950 . S
C1544 C1542 1.391 . S
C1544 C1545 1.400 . S
C1545 C1539 1.491 . S
C1545 C1544 1.400 . S
C1545 C1546 1.398 . S
C1546 H1534 0.950 . S
C1546 C1545 1.398 . S
C1546 C1547 1.391 . S
C1547 H1535 0.950 . S
C1547 C1543 1.393 . S
C1547 C1546 1.391 . S
H1548 C1556 0.950 . S
H1549 C1561 0.950 . S
H1550 C1558 0.950 . S
H1551 C1560 0.950 . S
H1552 C1562 0.950 . S
H1553 C1564 0.950 . S
H1554 C1566 0.950 . S
H1555 C1567 0.950 . S
C1556 H1548 0.950 . S
C1556 C1557 1.386 . S
C1556 C1558 1.391 . S
C1557 C1556 1.386 . S
C1557 C1561 1.393 . S
C1558 H1550 0.950 . S
C1558 C1556 1.391 . S
C1558 C1559 1.400 . S
C1559 C1558 1.400 . S
C1559 C1560 1.398 . S
C1559 C1565 1.491 . S
C1560 H1551 0.950 . S
C1560 C1559 1.398 . S
C1560 C1561 1.391 . S
C1561 H1549 0.950 . S
C1561 C1557 1.393 . S
C1561 C1560 1.391 . S
C1562 H1552 0.950 . S
C1562 C1563 1.386 . S
C1562 C1564 1.391 . S
C1563 C1562 1.386 . S
C1563 C1567 1.393 . S
C1564 H1553 0.950 . S
C1564 C1562 1.391 . S
C1564 C1565 1.400 . S
C1565 C1559 1.491 . S
C1565 C1564 1.400 . S
C1565 C1566 1.398 . S
C1566 H1554 0.950 . S
C1566 C1565 1.398 . S
C1566 C1567 1.391 . S
C1567 H1555 0.950 . S
C1567 C1563 1.393 . S
C1567 C1566 1.391 . S
H1568 C1576 0.950 . S
H1569 C1581 0.950 . S
H1570 C1578 0.950 . S
H1571 C1580 0.950 . S
H1572 C1582 0.950 . S
H1573 C1584 0.950 . S
H1574 C1586 0.950 . S
H1575 C1587 0.950 . S
C1576 H1568 0.950 . S
C1576 C1577 1.386 . S
C1576 C1578 1.391 . S
C1577 C1576 1.386 . S
C1577 C1581 1.393 . S
C1578 H1570 0.950 . S
C1578 C1576 1.391 . S
C1578 C1579 1.400 . S
C1579 C1578 1.400 . S
C1579 C1580 1.398 . S
C1579 C1585 1.491 . S
C1580 H1571 0.950 . S
C1580 C1579 1.398 . S
C1580 C1581 1.391 . S
C1581 H1569 0.950 . S
C1581 C1577 1.393 . S
C1581 C1580 1.391 . S
C1582 H1572 0.950 . S
C1582 C1583 1.386 . S
C1582 C1584 1.391 . S
C1583 C1582 1.386 . S
C1583 C1587 1.393 . S
C1584 H1573 0.950 . S
C1584 C1582 1.391 . S
C1584 C1585 1.400 . S
C1585 C1579 1.491 . S
C1585 C1584 1.400 . S
C1585 C1586 1.398 . S
C1586 H1574 0.950 . S
C1586 C1585 1.398 . S
C1586 C1587 1.391 . S
C1587 H1575 0.950 . S
C1587 C1583 1.393 . S
C1587 C1586 1.391 . S
H1588 C1596 0.950 . S
H1589 C1601 0.950 . S
H1590 C1598 0.950 . S
H1591 C1600 0.950 . S
H1592 C1602 0.950 . S
H1593 C1604 0.950 . S
H1594 C1606 0.950 . S
H1595 C1607 0.950 . S
C1596 H1588 0.950 . S
C1596 C1597 1.386 . S
C1596 C1598 1.391 . S
C1597 C1596 1.386 . S
C1597 C1601 1.393 . S
C1598 H1590 0.950 . S
C1598 C1596 1.391 . S
C1598 C1599 1.400 . S
C1599 C1598 1.400 . S
C1599 C1600 1.398 . S
C1599 C1605 1.491 . S
C1600 H1591 0.950 . S
C1600 C1599 1.398 . S
C1600 C1601 1.391 . S
C1601 H1589 0.950 . S
C1601 C1597 1.393 . S
C1601 C1600 1.391 . S
C1602 H1592 0.950 . S
C1602 C1603 1.386 . S
C1602 C1604 1.391 . S
C1603 C1602 1.386 . S
C1603 C1607 1.393 . S
C1604 H1593 0.950 . S
C1604 C1602 1.391 . S
C1604 C1605 1.400 . S
C1605 C1599 1.491 . S
C1605 C1604 1.400 . S
C1605 C1606 1.398 . S
C1606 H1594 0.950 . S
C1606 C1605 1.398 . S
C1606 C1607 1.391 . S
C1607 H1595 0.950 . S
C1607 C1603 1.393 . S
C1607 C1606 1.391 . S
H1608 C1616 0.950 . S
H1609 C1621 0.950 . S
H1610 C1618 0.950 . S
H1611 C1620 0.950 . S
H1612 C1622 0.950 . S
H1613 C1624 0.950 . S
H1614 C1626 0.950 . S
H1615 C1627 0.950 . S
C1616 H1608 0.950 . S
C1616 C1617 1.386 . S
C1616 C1618 1.391 . S
C1617 C1616 1.386 . S
C1617 C1621 1.393 . S
C1618 H1610 0.950 . S
C1618 C1616 1.391 . S
C1618 C1619 1.400 . S
C1619 C1618 1.400 . S
C1619 C1620 1.398 . S
C1619 C1625 1.491 . S
C1620 H1611 0.950 . S
C1620 C1619 1.398 . S
C1620 C1621 1.391 . S
C1621 H1609 0.950 . S
C1621 C1617 1.393 . S
C1621 C1620 1.391 . S
C1622 H1612 0.950 . S
C1622 C1623 1.386 . S
C1622 C1624 1.391 . S
C1623 C1622 1.386 . S
C1623 C1627 1.393 . S
C1624 H1613 0.950 . S
C1624 C1622 1.391 . S
C1624 C1625 1.400 . S
C1625 C1619 1.491 . S
C1625 C1624 1.400 . S
C1625 C1626 1.398 . S
C1626 H1614 0.950 . S
C1626 C1625 1.398 . S
C1626 C1627 1.391 . S
C1627 H1615 0.950 . S
C1627 C1623 1.393 . S
C1627 C1626 1.391 . S
H1628 C1636 0.950 . S
H1629 C1641 0.950 . S
H1630 C1638 0.950 . S
H1631 C1640 0.950 . S
H1632 C1642 0.950 . S
H1633 C1644 0.950 . S
H1634 C1646 0.950 . S
H1635 C1647 0.950 . S
C1636 H1628 0.950 . S
C1636 C1637 1.386 . S
C1636 C1638 1.391 . S
C1637 C1636 1.386 . S
C1637 C1641 1.393 . S
C1638 H1630 0.950 . S
C1638 C1636 1.391 . S
C1638 C1639 1.400 . S
C1639 C1638 1.400 . S
C1639 C1640 1.398 . S
C1639 C1645 1.491 . S
C1640 H1631 0.950 . S
C1640 C1639 1.398 . S
C1640 C1641 1.391 . S
C1641 H1629 0.950 . S
C1641 C1637 1.393 . S
C1641 C1640 1.391 . S
C1642 H1632 0.950 . S
C1642 C1643 1.386 . S
C1642 C1644 1.391 . S
C1643 C1642 1.386 . S
C1643 C1647 1.393 . S
C1644 H1633 0.950 . S
C1644 C1642 1.391 . S
C1644 C1645 1.400 . S
C1645 C1639 1.491 . S
C1645 C1644 1.400 . S
C1645 C1646 1.398 . S
C1646 H1634 0.950 . S
C1646 C1645 1.398 . S
C1646 C1647 1.391 . S
C1647 H1635 0.950 . S
C1647 C1643 1.393 . S
C1647 C1646 1.391 . S
H1648 C1656 0.950 . S
H1649 C1661 0.950 . S
H1650 C1658 0.950 . S
H1651 C1660 0.950 . S
H1652 C1662 0.950 . S
H1653 C1664 0.950 . S
H1654 C1666 0.950 . S
H1655 C1667 0.950 . S
C1656 H1648 0.950 . S
C1656 C1657 1.386 . S
C1656 C1658 1.391 . S
C1657 C1656 1.386 . S
C1657 C1661 1.393 . S
C1658 H1650 0.950 . S
C1658 C1656 1.391 . S
C1658 C1659 1.400 . S
C1659 C1658 1.400 . S
C1659 C1660 1.398 . S
C1659 C1665 1.491 . S
C1660 H1651 0.950 . S
C1660 C1659 1.398 . S
C1660 C1661 1.391 . S
C1661 H1649 0.950 . S
C1661 C1657 1.393 . S
C1661 C1660 1.391 . S
C1662 H1652 0.950 . S
C1662 C1663 1.386 . S
C1662 C1664 1.391 . S
C1663 C1662 1.386 . S
C1663 C1667 1.393 . S
C1664 H1653 0.950 . S
C1664 C1662 1.391 . S
C1664 C1665 1.400 . S
C1665 C1659 1.491 . S
C1665 C1664 1.400 . S
C1665 C1666 1.398 . S
C1666 H1654 0.950 . S
C1666 C1665 1.398 . S
C1666 C1667 1.391 . S
C1667 H1655 0.950 . S
C1667 C1663 1.393 . S
C1667 C1666 1.391 . S
H1668 C1676 0.950 . S
H1669 C1681 0.950 . S
H1670 C1678 0.950 . S
H1671 C1680 0.950 . S
H1672 C1682 0.950 . S
H1673 C1684 0.950 . S
H1674 C1686 0.950 . S
H1675 C1687 0.950 . S
C1676 H1668 0.950 . S
C1676 C1677 1.386 . S
C1676 C1678 1.391 . S
C1677 C1676 1.386 . S
C1677 C1681 1.393 . S
C1678 H1670 0.950 . S
C1678 C1676 1.391 . S
C1678 C1679 1.400 . S
C1679 C1678 1.400 . S
C1679 C1680 1.398 . S
C1679 C1685 1.491 . S
C1680 H1671 0.950 . S
C1680 C1679 1.398 . S
C1680 C1681 1.391 . S
C1681 H1669 0.950 . S
C1681 C1677 1.393 . S
C1681 C1680 1.391 . S
C1682 H1672 0.950 . S
C1682 C1683 1.386 . S
C1682 C1684 1.391 . S
C1683 C1682 1.386 . S
C1683 C1687 1.393 . S
C1684 H1673 0.950 . S
C1684 C1682 1.391 . S
C1684 C1685 1.400 . S
C1685 C1679 1.491 . S
C1685 C1684 1.400 . S
C1685 C1686 1.398 . S
C1686 H1674 0.950 . S
C1686 C1685 1.398 . S
C1686 C1687 1.391 . S
C1687 H1675 0.950 . S
C1687 C1683 1.393 . S
C1687 C1686 1.391 . S
H1688 C1696 0.950 . S
H1689 C1701 0.950 . S
H1690 C1698 0.950 . S
H1691 C1700 0.950 . S
H1692 C1702 0.950 . S
H1693 C1704 0.950 . S
H1694 C1706 0.950 . S
H1695 C1707 0.950 . S
C1696 H1688 0.950 . S
C1696 C1697 1.386 . S
C1696 C1698 1.391 . S
C1697 C1696 1.386 . S
C1697 C1701 1.393 . S
C1698 H1690 0.950 . S
C1698 C1696 1.391 . S
C1698 C1699 1.400 . S
C1699 C1698 1.400 . S
C1699 C1700 1.398 . S
C1699 C1705 1.491 . S
C1700 H1691 0.950 . S
C1700 C1699 1.398 . S
C1700 C1701 1.391 . S
C1701 H1689 0.950 . S
C1701 C1697 1.393 . S
C1701 C1700 1.391 . S
C1702 H1692 0.950 . S
C1702 C1703 1.386 . S
C1702 C1704 1.391 . S
C1703 C1702 1.386 . S
C1703 C1707 1.393 . S
C1704 H1693 0.950 . S
C1704 C1702 1.391 . S
C1704 C1705 1.400 . S
C1705 C1699 1.491 . S
C1705 C1704 1.400 . S
C1705 C1706 1.398 . S
C1706 H1694 0.950 . S
C1706 C1705 1.398 . S
C1706 C1707 1.391 . S
C1707 H1695 0.950 . S
C1707 C1703 1.393 . S
C1707 C1706 1.391 . S
H1708 C1716 0.950 . S
H1709 C1721 0.950 . S
H1710 C1718 0.950 . S
H1711 C1720 0.950 . S
H1712 C1722 0.950 . S
H1713 C1724 0.950 . S
H1714 C1726 0.950 . S
H1715 C1727 0.950 . S
C1716 H1708 0.950 . S
C1716 C1717 1.386 . S
C1716 C1718 1.391 . S
C1717 C1716 1.386 . S
C1717 C1721 1.393 . S
C1718 H1710 0.950 . S
C1718 C1716 1.391 . S
C1718 C1719 1.400 . S
C1719 C1718 1.400 . S
C1719 C1720 1.398 . S
C1719 C1725 1.491 . S
C1720 H1711 0.950 . S
C1720 C1719 1.398 . S
C1720 C1721 1.391 . S
C1721 H1709 0.950 . S
C1721 C1717 1.393 . S
C1721 C1720 1.391 . S
C1722 H1712 0.950 . S
C1722 C1723 1.386 . S
C1722 C1724 1.391 . S
C1723 C1722 1.386 . S
C1723 C1727 1.393 . S
C1724 H1713 0.950 . S
C1724 C1722 1.391 . S
C1724 C1725 1.400 . S
C1725 C1719 1.491 . S
C1725 C1724 1.400 . S
C1725 C1726 1.398 . S
C1726 H1714 0.950 . S
C1726 C1725 1.398 . S
C1726 C1727 1.391 . S
C1727 H1715 0.950 . S
C1727 C1723 1.393 . S
C1727 C1726 1.391 . S
C457 C13 1.595 . S
C463 C29 1.594 . S
C477 C55 1.586 . S
C483 C27 1.589 . S
C497 C85 1.604 . S
C503 C57 1.604 . S
C517 C98 1.586 . S
C523 C82 1.588 . S
C537 C113 1.603 . S
C543 C141 1.598 . S
C557 C167 1.590 . S
C563 C127 1.586 . S
C577 C169 1.597 . S
C583 C197 1.595 . S
C597 C223 1.598 . S
C603 C183 1.596 . S
C617 C224 1.584 . S
C623 C265 1.588 1_455 S
C637 C238 1.594 . S
C643 C279 1.591 . S
C657 C321 1.589 . S
C663 C280 1.587 1_655 S
C677 C295 1.600 . S
C683 C334 1.594 . S
C697 C377 1.581 1_455 S
C703 C348 1.580 . S
C717 C390 1.595 . S
C723 C362 1.592 . S
C737 C432 1.580 1_655 S
C743 C392 1.586 1_655 S
C757 C406 1.593 . S
C763 C446 1.599 . S
C777 C350 1.711 . S
C783 C1 1.707 . S
C797 C15 1.706 . S
C803 C336 1.699 . S
C817 C41 1.707 . S
C823 C378 1.712 . S
C837 C43 1.706 . S
C843 C365 1.698 . S
C857 C418 1.713 . S
C863 C69 1.708 . S
C877 C70 1.709 . S
C883 C404 1.699 . S
C897 C97 1.708 . S
C903 C434 1.711 . S
C917 C420 1.703 . S
C923 C110 1.703 . S
C937 C125 1.708 . S
C943 C250 1.713 . S
C957 C139 1.706 . S
C963 C236 1.704 . S
C977 C153 1.712 . S
C983 C267 1.708 . S
C997 C155 1.703 . S
C1003 C253 1.701 . S
C1017 C181 1.713 . S
C1023 C307 1.708 . S
C1037 C292 1.709 . S
C1043 C195 1.701 . S
C1057 C322 1.712 . S
C1063 C209 1.709 . S
C1077 C211 1.709 . S
C1083 C309 1.699 . S
C1097 C12 1.602 . S
C1103 C56 1.601 . S
C1117 C26 1.592 . S
C1123 C407 1.591 . S
C1137 C28 1.607 . S
C1143 C196 1.606 . S
C1157 C54 1.591 . S
C1163 C335 1.590 . S
C1177 C83 1.589 . S
C1183 C363 1.587 . S
C1197 C140 1.595 . S
C1203 C84 1.594 . S
C1217 C278 1.588 . S
C1223 C99 1.588 . S
C1237 C168 1.597 . S
C1243 C112 1.598 . S
C1257 C126 1.602 . S
C1263 C294 1.601 . S
C1277 C447 1.590 . S
C1283 C166 1.590 . S
C1297 C182 1.597 . S
C1303 C239 1.597 . S
C1317 C222 1.592 . S
C1323 C391 1.591 . S
C1337 C281 1.583 . S
C1343 C225 1.582 . S
C1357 C264 1.589 . S
C1363 C433 1.589 . S
C1377 C376 1.584 . S
C1383 C320 1.582 . S
C1397 C393 1.586 . S
C1403 C349 1.585 . S
C1417 C0 1.306 . S
C1423 C14 1.309 . S
C1437 C40 1.301 . S
C1443 C42 1.308 . S
C1457 C68 1.303 . S
C1463 C71 1.309 . S
C1477 C96 1.309 . S
C1483 C111 1.304 . S
C1497 C138 1.303 . S
C1503 C124 1.301 . S
C1517 C152 1.304 . S
C1523 C154 1.301 . S
C1537 C180 1.309 . S
C1543 C194 1.302 . S
C1557 C208 1.301 . S
C1563 C210 1.302 . S
C1577 C237 1.314 . S
C1583 C251 1.313 . S
C1597 C266 1.311 . S
C1603 C252 1.312 . S
C1617 C293 1.316 . S
C1623 C306 1.315 . S
C1637 C308 1.307 . S
C1643 C323 1.315 . S
C1657 C351 1.315 . S
C1663 C337 1.313 . S
C1677 C364 1.312 . S
C1683 C379 1.312 . S
C1697 C419 1.315 . S
C1703 C405 1.314 . S
C1717 C421 1.313 . S
C1723 C435 1.312 . S
