# Generated by pormake.
# Topology sxb, (6)-cn, num edge types: 1
# Building blocks:
#     Node 0, Type 0, BuildingBlock: BETGAK_clean_sbu_0, # of connection points: 6
#     Node 1, Type 0, BuildingBlock: BETGAK_clean_sbu_0, # of connection points: 6
#     Node 2, Type 0, BuildingBlock: BETGAK_clean_sbu_0, # of connection points: 6
#     Node 3, Type 0, BuildingBlock: BETGAK_clean_sbu_0, # of connection points: 6
#     Edge 4, Type (0, 0), BuildingBlock: KIFKEQ_clean_linker_1, # of connection points: 2
#     Edge 5, Type (0, 0), BuildingBlock: KIFKEQ_clean_linker_1, # of connection points: 2
#     Edge 6, Type (0, 0), BuildingBlock: KIFKEQ_clean_linker_1, # of connection points: 2
#     Edge 7, Type (0, 0), BuildingBlock: KIFKEQ_clean_linker_1, # of connection points: 2
#     Edge 8, Type (0, 0), BuildingBlock: KIFKEQ_clean_linker_1, # of connection points: 2
#     Edge 9, Type (0, 0), BuildingBlock: KIFKEQ_clean_linker_1, # of connection points: 2
#     Edge 10, Type (0, 0), BuildingBlock: KIFKEQ_clean_linker_1, # of connection points: 2
#     Edge 11, Type (0, 0), BuildingBlock: KIFKEQ_clean_linker_1, # of connection points: 2
#     Edge 12, Type (0, 0), BuildingBlock: KIFKEQ_clean_linker_1, # of connection points: 2
#     Edge 13, Type (0, 0), BuildingBlock: KIFKEQ_clean_linker_1, # of connection points: 2
#     Edge 14, Type (0, 0), BuildingBlock: KIFKEQ_clean_linker_1, # of connection points: 2
#     Edge 15, Type (0, 0), BuildingBlock: KIFKEQ_clean_linker_1, # of connection points: 2
# Relax obj value: 0.421
# Max RMSD: 0.122
# Mean RMSD: 0.082
data_MOF--net-sxb--node1-BETGAK_clean_sbu_0--edge1-KIFKEQ_clean_linker_1
_symmetry_space_group_name_H-M    P1
_symmetry_Int_Tables_number       1
_symmetry_cell_setting            triclinic
loop_
_symmetry_equiv_pos_as_xyz
'x, y, z'
_cell_length_a     16.562704
_cell_length_b     35.066759
_cell_length_c     30.026809
_cell_angle_alpha  92.315637
_cell_angle_beta   92.923044
_cell_angle_gamma 66.151413
loop_
_atom_site_label
_atom_site_type_symbol
_atom_site_fract_x
_atom_site_fract_y
_atom_site_fract_z
_atom_type_partial_charge
La0 La 1.02316 1.08695 0.96038 0.0
La1 La 0.18385 0.09186 0.96283 0.0
C2 C 0.86794 0.10033 0.98066 0.0
C3 C 0.82741 0.11613 0.02363 0.0
C4 C 0.74483 0.11672 0.0321 0.0
C5 C 0.71453 0.12416 0.07548 0.0
C6 C 0.76717 0.13044 0.11111 0.0
C7 C 0.8475 0.13237 0.10192 0.0
C8 C 0.87673 0.12581 0.05832 0.0
C9 C 1.0828 1.07884 0.87782 0.0
C10 C 1.0288 0.17652 0.95933 0.0
C11 C 0.34389 1.07942 0.96247 0.0
C12 C 0.4081 1.05675 0.99772 0.0
C13 C 0.38053 1.03815 0.03113 0.0
C14 C 0.43227 1.02422 0.07008 0.0
C15 C 0.51296 1.02822 0.076 0.0
C16 C 0.54322 1.0442 0.04108 0.0
C17 C 0.49078 1.05864 1.00229 0.0
C18 C 0.12175 0.09832 0.04495 0.0
C19 C 0.18218 1.00034 0.96149 0.0
O20 O 0.88756 0.12629 0.95833 0.0
O21 O 0.93354 1.06386 0.98238 0.0
O22 O 1.03786 1.05971 0.89276 0.0
O23 O 1.08861 0.10392 0.908 0.0
O24 O 0.99316 0.15377 0.97821 0.0
O25 O 0.10597 0.15615 0.94109 0.0
O26 O 0.28261 0.11436 0.97628 0.0
O27 O 0.3103 1.05732 0.93818 0.0
O28 O 0.16076 0.12011 0.03037 0.0
O29 O 0.11975 1.07329 0.01409 0.0
O30 O 0.22559 1.02329 0.95196 0.0
O31 O 1.09827 1.01969 0.97145 0.0
H32 H 0.70615 0.10912 1.00581 0.0
H33 H 0.65316 0.12148 0.08166 0.0
H34 H 0.88969 0.13663 0.1287 0.0
H35 H 0.94025 0.12587 0.05206 0.0
H36 H 0.31634 1.03673 0.02831 0.0
H37 H 0.40724 1.01231 0.09646 0.0
H38 H 0.60446 1.04846 0.04511 0.0
H39 H 0.51252 1.07333 0.97716 0.0
La40 La 0.1383 1.04321 0.46573 0.0
La41 La 1.05574 0.1298 0.45512 0.0
C42 C 0.18678 0.97053 0.49449 0.0
C43 C 0.14134 0.95139 0.52045 0.0
C44 C 0.16164 0.90877 0.51495 0.0
C45 C 0.10884 0.89161 0.53361 0.0
C46 C 1.03478 0.91702 0.55784 0.0
C47 C 1.01836 0.95919 0.56579 0.0
C48 C 1.07126 0.97629 0.54717 0.0
C49 C 0.12873 1.06421 0.3809 0.0
C50 C 0.92219 1.0862 0.45829 0.0
C51 C 1.00913 0.20416 0.43222 0.0
C52 C 1.03966 0.23644 0.44873 0.0
C53 C 1.01664 0.2554 0.49111 0.0
C54 C 1.05893 0.27962 0.51025 0.0
C55 C 0.12472 0.28533 0.48733 0.0
C56 C 0.1427 0.26915 0.44363 0.0
C57 C 1.10031 0.245 0.42443 0.0
C58 C 1.06711 0.10927 0.54046 0.0
C59 C 0.27439 1.08642 0.46156 0.0
O60 O 0.15329 0.98124 0.45427 0.0
O61 O 0.20423 0.9999 0.51524 0.0
O62 O 0.19467 1.03437 0.39994 0.0
O63 O 1.0685 1.08026 0.40878 0.0
O64 O 0.99417 1.05534 0.47529 0.0
O65 O 0.93418 0.11772 0.44088 0.0
O66 O 0.9671 0.19232 0.46053 0.0
O67 O 1.06682 0.17229 0.41089 0.0
O68 O 1.00271 0.13981 0.52188 0.0
O69 O 0.12592 0.09298 0.512 0.0
O70 O 0.20025 0.12095 0.45537 0.0
O71 O 0.26584 1.05097 0.46808 0.0
H72 H 0.21539 0.88925 0.49431 0.0
H73 H 0.12241 0.85913 0.52635 0.0
H74 H 0.96212 0.97936 0.58454 0.0
H75 H 1.05487 1.00935 0.55192 0.0
H76 H 0.96934 0.24985 0.51059 0.0
H77 H 1.04377 0.29182 0.54394 0.0
H78 H 0.19189 0.27395 0.4249 0.0
H79 H 0.11825 0.23131 0.39148 0.0
La80 La 0.52372 0.58333 0.96631 0.0
La81 La 0.68312 0.59109 0.97063 0.0
C82 C 0.38575 0.58021 0.99272 0.0
C83 C 0.34827 0.59418 0.0368 0.0
C84 C 0.33008 0.56613 0.06209 0.0
C85 C 0.31442 0.57402 0.10738 0.0
C86 C 0.31615 0.61031 0.12843 0.0
C87 C 0.33149 0.63915 0.10281 0.0
C88 C 0.34861 0.63089 0.05745 0.0
C89 C 0.58674 0.57411 0.88438 0.0
C90 C 0.50957 0.67601 0.96415 0.0
C91 C 0.81704 0.60767 0.97927 0.0
C92 C 0.87729 0.59971 0.01881 0.0
C93 C 0.90087 0.56286 0.04282 0.0
C94 C 0.93471 0.56046 0.08676 0.0
C95 C 0.94492 0.59496 0.10745 0.0
C96 C 0.92558 0.63093 0.08252 0.0
C97 C 0.89223 0.63324 0.03865 0.0
C98 C 0.63958 0.57297 0.04974 0.0
C99 C 0.69764 0.50053 0.95982 0.0
O100 O 0.38441 0.60869 0.96541 0.0
O101 O 0.46281 0.549 0.99503 0.0
O102 O 0.53985 0.55573 0.89885 0.0
O103 O 0.59164 0.59947 0.91446 0.0
O104 O 0.46569 0.65232 0.96906 0.0
O105 O 0.59633 0.65788 0.96007 0.0
O106 O 0.7375 0.63433 0.98764 0.0
O107 O 0.81624 0.57554 0.95575 0.0
O108 O 0.71563 0.55582 0.03274 0.0
O109 O 0.59007 0.59912 0.02225 0.0
O110 O 0.73259 0.52564 0.94592 0.0
O111 O 0.61861 0.51786 0.9771 0.0
H112 H 0.33118 0.53729 0.04712 0.0
H113 H 0.29929 0.55193 0.12579 0.0
H114 H 0.33147 0.6677 0.118 0.0
H115 H 0.36476 0.6526 0.039 0.0
H116 H 0.88909 0.53664 0.02851 0.0
H117 H 0.95038 0.53213 0.10495 0.0
H118 H 0.93571 0.65752 0.09704 0.0
H119 H 0.87331 0.66215 0.02106 0.0
La120 La 0.6418 0.53968 0.47341 0.0
La121 La 0.55874 0.62584 0.46196 0.0
C122 C 0.69015 0.46705 0.50223 0.0
C123 C 0.64403 0.44823 0.52818 0.0
C124 C 0.6629 0.40577 0.52249 0.0
C125 C 0.60898 0.38913 0.54098 0.0
C126 C 0.53524 0.41492 0.56519 0.0
C127 C 0.52043 0.45687 0.57345 0.0
C128 C 0.57444 0.47344 0.55502 0.0
C129 C 0.63378 0.56027 0.3886 0.0
C130 C 0.42555 0.5823 0.46543 0.0
C131 C 0.51214 0.7 0.4383 0.0
C132 C 0.54318 0.73234 0.45383 0.0
C133 C 0.52424 0.75064 0.49675 0.0
C134 C 0.56662 0.77539 0.51434 0.0
C135 C 0.62858 0.78222 0.48936 0.0
C136 C 0.64273 0.76645 0.44534 0.0
C137 C 0.60011 0.74183 0.42766 0.0
C138 C 0.56966 0.60594 0.54749 0.0
C139 C 0.77754 0.5829 0.46916 0.0
O140 O 0.65712 0.47765 0.46191 0.0
O141 O 0.70769 0.49641 0.52294 0.0
O142 O 0.7007 0.53158 0.40842 0.0
O143 O 0.5723 0.57588 0.41585 0.0
O144 O 0.49755 0.5517 0.48281 0.0
O145 O 0.43746 0.61367 0.44768 0.0
O146 O 0.47071 0.68849 0.46725 0.0
O147 O 0.56924 0.66791 0.41698 0.0
O148 O 0.50489 0.63614 0.52863 0.0
O149 O 0.62876 0.58969 0.51922 0.0
O150 O 0.70325 0.61723 0.46227 0.0
O151 O 0.76914 0.54754 0.47632 0.0
H152 H 0.71627 0.38601 0.50176 0.0
H153 H 0.62131 0.35681 0.53351 0.0
H154 H 0.46443 0.47732 0.59218 0.0
H155 H 0.55912 0.50639 0.55993 0.0
H156 H 0.48 0.74429 0.51772 0.0
H157 H 0.55459 0.78721 0.54834 0.0
H158 H 0.68899 0.77205 0.4251 0.0
H159 H 0.61492 0.72859 0.39431 0.0
H160 H 0.57873 0.73616 0.96513 0.0
H161 H 0.329 0.72495 0.96129 0.0
H162 H 0.50214 0.81188 0.96545 0.0
H163 H 0.25151 0.80069 0.95958 0.0
H164 H 0.12303 0.9418 0.98985 0.0
H165 H 0.19964 0.86596 0.99121 0.0
H166 H 0.42487 0.87395 0.93253 0.0
H167 H 0.34929 0.94967 0.93321 0.0
C168 C 0.50719 0.74971 0.96388 0.0
C169 C 0.46106 0.72348 0.96312 0.0
C170 C 0.46239 0.79381 0.96374 0.0
C171 C 0.36885 0.81411 0.96237 0.0
C172 C 0.32293 0.78759 0.96141 0.0
C173 C 0.36786 0.74348 0.96201 0.0
C174 C 0.189 0.92746 0.97724 0.0
C175 C 0.22902 0.95279 0.96145 0.0
C176 C 0.23351 0.88331 0.97769 0.0
C177 C 0.32019 0.86212 0.96197 0.0
C178 C 0.35962 0.88777 0.9459 0.0
C179 C 0.31542 0.93188 0.94588 0.0
H180 H 0.87339 0.45203 0.94074 0.0
H181 H 0.63581 0.44019 0.97567 0.0
H182 H 0.95296 0.37616 0.94126 0.0
H183 H 0.71319 0.36464 0.97436 0.0
H184 H 0.88133 0.22821 1.00452 0.0
H185 H 0.80594 0.30389 1.00502 0.0
H186 H 0.99187 0.30981 0.91263 0.0
H187 H 1.06932 0.23389 0.91399 0.0
C188 C 0.8375 0.43333 0.94813 0.0
C189 C 0.74733 0.45312 0.95824 0.0
C190 C 0.88345 0.3892 0.94821 0.0
C191 C 0.84129 0.3626 0.95805 0.0
C192 C 0.75053 0.38276 0.96757 0.0
C193 C 0.70505 0.42677 0.96792 0.0
C194 C 0.90658 0.24553 0.98431 0.0
C195 C 0.98233 0.22405 0.95927 0.0
C196 C 0.86231 0.2896 0.98421 0.0
C197 C 0.89075 0.31465 0.95859 0.0
C198 C 0.96696 0.29291 0.93352 0.0
C199 C 1.0118 0.24875 0.93402 0.0
H200 H 1.07089 0.35684 0.53906 0.0
H201 H 0.30303 0.25696 0.48812 0.0
H202 H 0.16436 0.38905 0.57541 0.0
H203 H 0.39547 0.2894 0.52303 0.0
H204 H 0.55818 0.33991 0.59942 0.0
H205 H 0.45069 0.30837 0.59406 0.0
H206 H 0.25146 0.42395 0.54479 0.0
H207 H 0.35799 0.45534 0.5504 0.0
C208 C 0.14181 0.34171 0.53593 0.0
C209 C 0.1798 0.30487 0.5102 0.0
C210 C 0.19512 0.36007 0.55667 0.0
C211 C 0.28715 0.3416 0.55229 0.0
C212 C 0.32497 0.30401 0.52776 0.0
C213 C 0.27189 0.28585 0.50698 0.0
C214 C 0.49067 0.35882 0.58874 0.0
C215 C 0.46678 0.39975 0.5746 0.0
C216 C 0.4293 0.34083 0.58562 0.0
C217 C 0.34338 0.36346 0.56809 0.0
C218 C 0.31704 0.40577 0.5586 0.0
C219 C 0.37827 0.42378 0.56184 0.0
H220 H 1.06197 0.84157 0.59239 0.0
H221 H 0.8568 0.95599 0.54423 0.0
H222 H 0.95666 0.80879 0.58862 0.0
H223 H 0.7523 0.92338 0.54043 0.0
H224 H 0.57585 0.85381 0.54084 0.0
H225 H 0.66936 0.88739 0.57419 0.0
H226 H 0.89853 0.78943 0.51809 0.0
H227 H 0.80608 0.7557 0.48598 0.0
C228 C 0.99391 0.85999 0.58221 0.0
C229 C 0.96792 0.90102 0.56789 0.0
C230 C 0.93378 0.84129 0.58002 0.0
C231 C 0.84693 0.86333 0.56338 0.0
C232 C 0.81868 0.90568 0.55359 0.0
C233 C 0.87871 0.92439 0.55581 0.0
C234 C 0.64639 0.83937 0.53621 0.0
C235 C 0.68377 0.80261 0.5103 0.0
C236 C 0.69971 0.8585 0.55524 0.0
C237 C 0.79118 0.84085 0.54899 0.0
C238 C 0.82852 0.80339 0.5242 0.0
C239 C 0.77539 0.78449 0.50507 0.0
H240 H 0.68869 0.98653 0.0969 0.0
H241 H 0.43922 1.05904 0.15614 0.0
H242 H 0.76505 1.00619 0.15788 0.0
H243 H 0.51567 1.07873 0.21821 0.0
H244 H 0.87477 1.07663 0.17344 0.0
H245 H 0.81693 1.03768 0.2178 0.0
H246 H 0.55418 0.13287 0.19737 0.0
H247 H 0.61186 0.17159 0.15363 0.0
C248 C 0.65055 1.00517 0.1242 0.0
C249 C 0.55817 1.02327 0.12056 0.0
C250 C 0.6943 1.01639 0.15984 0.0
C251 C 0.64576 1.04722 0.19129 0.0
C252 C 0.55478 1.05685 0.1932 0.0
C253 C 0.51079 1.04557 0.15747 0.0
C254 C 0.80532 0.09059 0.18086 0.0
C255 C 0.74625 0.12527 0.1572 0.0
C256 C 0.77193 1.06818 0.20647 0.0
C257 C 0.68004 1.07942 0.20568 0.0
C258 C 0.6252 0.12107 0.19517 0.0
C259 C 0.6581 0.14364 0.16974 0.0
H260 H 0.32729 0.15291 0.45005 0.0
H261 H 0.44251 1.02107 0.47267 0.0
H262 H 0.47516 0.15299 0.44991 0.0
H263 H 0.59023 1.02062 0.47178 0.0
H264 H 0.86521 1.02745 0.49266 0.0
H265 H 0.71719 1.02782 0.49415 0.0
H266 H 0.61014 0.14483 0.42611 0.0
H267 H 0.75794 0.14447 0.42555 0.0
C268 C 0.38372 0.1236 0.45491 0.0
C269 C 0.36899 1.087 0.46141 0.0
C270 C 0.47082 0.12348 0.45459 0.0
C271 C 0.55008 1.08674 0.46076 0.0
C272 C 0.53466 1.05022 0.46734 0.0
C273 C 0.44772 1.05037 0.46762 0.0
C274 C 0.81054 1.05344 0.47786 0.0
C275 C 0.82745 1.08589 0.4589 0.0
C276 C 0.72341 1.05367 0.47848 0.0
C277 C 0.64626 1.08641 0.46023 0.0
C278 C 0.66385 0.11882 0.44133 0.0
C279 C 0.75088 0.11854 0.4407 0.0
H280 H 1.08625 0.53124 0.14471 0.0
H281 H 0.88834 0.65351 0.17527 0.0
H282 H 0.1804 0.53897 0.20462 0.0
H283 H 0.98294 0.6616 0.2365 0.0
H284 H 0.37369 0.5603 0.20204 0.0
H285 H 0.26796 0.55967 0.25512 0.0
H286 H 1.08951 0.68245 0.21416 0.0
H287 H 0.19371 0.68318 0.16172 0.0
C288 C 1.06122 0.55919 0.16559 0.0
C289 C 0.98289 0.59293 0.15351 0.0
C290 C 0.11538 0.56383 0.2006 0.0
C291 C 1.09314 0.60292 0.22282 0.0
C292 C 1.00509 0.63228 0.21792 0.0
C293 C 0.95103 0.62783 0.18258 0.0
C294 C 0.31347 0.58803 0.2061 0.0
C295 C 0.2877 0.62014 0.17498 0.0
C296 C 0.2528 0.58787 0.23678 0.0
C297 C 0.1652 0.61789 0.2329 0.0
C298 C 0.153 0.65619 0.21407 0.0
C299 C 0.21325 0.65682 0.18355 0.0
H300 H 0.26175 0.63999 0.43165 0.0
H301 H 0.36817 0.52409 0.50089 0.0
H302 H 0.11391 0.64046 0.43228 0.0
H303 H 0.22004 0.52459 0.50247 0.0
H304 H 0.94544 0.51777 0.48148 0.0
H305 H 1.09322 0.51719 0.48046 0.0
H306 H 0.97859 0.6491 0.45593 0.0
H307 H 0.83062 0.64914 0.45621 0.0
C308 C 0.25449 0.61434 0.4473 0.0
C309 C 0.33084 0.58197 0.46608 0.0
C310 C 0.16742 0.61468 0.44796 0.0
C311 C 0.14955 0.58263 0.4675 0.0
C312 C 0.22648 0.55016 0.48631 0.0
C313 C 0.31367 0.54986 0.48564 0.0
C314 C 0.95075 0.54695 0.47583 0.0
C315 C 0.87211 0.58349 0.46894 0.0
C316 C 1.03773 0.54672 0.47546 0.0
C317 C 1.0533 0.58306 0.46811 0.0
C318 C 0.97413 0.61972 0.46124 0.0
C319 C 0.88697 0.61991 0.46165 0.0
H320 H 1.0078 0.13006 0.33286 0.0
H321 H 0.2273 1.01119 0.31652 0.0
H322 H 0.99734 0.13915 0.25151 0.0
H323 H 0.21545 1.01972 0.23578 0.0
H324 H 0.11261 1.03225 0.08813 0.0
H325 H 0.10645 1.02462 0.16878 0.0
H326 H 1.09845 0.14821 0.19228 0.0
H327 H 0.10673 0.15537 0.11197 0.0
C328 C 1.05327 0.10576 0.31197 0.0
C329 C 0.11846 1.06993 0.3314 0.0
C330 C 1.04746 0.11098 0.26535 0.0
C331 C 0.10533 1.08006 0.23687 0.0
C332 C 0.16917 1.04397 0.25642 0.0
C333 C 0.17623 1.0392 0.30289 0.0
C334 C 0.10907 1.05785 0.1105 0.0
C335 C 0.11101 0.09428 0.09354 0.0
C336 C 0.10576 1.05346 0.15677 0.0
C337 C 1.10222 1.08576 0.18726 0.0
C338 C 1.10064 0.12279 0.16997 0.0
C339 C 0.10588 0.12679 0.12389 0.0
H340 H 1.0944 1.02119 0.8119 0.0
H341 H 1.09135 0.14412 0.83271 0.0
H342 H 1.09937 1.02745 0.73114 0.0
H343 H 1.09397 0.15087 0.75169 0.0
H344 H 0.97105 0.16325 0.6048 0.0
H345 H 0.98388 0.15556 0.68563 0.0
H346 H 0.19917 1.03514 0.67041 0.0
H347 H 0.18829 1.04354 0.58911 0.0
C348 C 1.09539 1.04949 0.79923 0.0
C349 C 1.09245 1.08214 0.82892 0.0
C350 C 1.09857 1.05301 0.75288 0.0
C351 C 1.09685 0.0897 0.73464 0.0
C352 C 1.09494 0.12223 0.76443 0.0
C353 C 1.09385 0.1183 0.81094 0.0
C354 C 1.02177 0.13519 0.61854 0.0
C355 C 1.07855 0.10396 0.59008 0.0
C356 C 1.02932 0.13089 0.66508 0.0
C357 C 1.09261 0.09476 0.68484 0.0
C358 C 0.1494 1.06335 0.65645 0.0
C359 C 0.14325 1.06814 0.60975 0.0
H360 H 0.76795 0.53445 0.33164 0.0
H361 H 0.48457 0.59886 0.33336 0.0
H362 H 0.76231 0.53923 0.25113 0.0
H363 H 0.47781 0.60235 0.25145 0.0
H364 H 0.51547 0.63143 0.10361 0.0
H365 H 0.50713 0.63039 0.18507 0.0
H366 H 0.72699 0.50988 0.18682 0.0
H367 H 0.73584 0.51177 0.10653 0.0
C368 C 0.70401 0.54949 0.31468 0.0
C369 C 0.62678 0.56594 0.33916 0.0
C370 C 0.70053 0.55192 0.2681 0.0
C371 C 0.61938 0.57038 0.24387 0.0
C372 C 0.54173 0.58791 0.26851 0.0
C373 C 0.54544 0.58583 0.31558 0.0
C374 C 0.56096 0.60455 0.12154 0.0
C375 C 0.62639 0.57171 0.09849 0.0
C376 C 0.55648 0.60392 0.16839 0.0
C377 C 0.6176 0.57042 0.19339 0.0
C378 C 0.68039 0.53696 0.16958 0.0
C379 C 0.68506 0.53777 0.12317 0.0
H380 H 0.4709 0.65893 0.61184 0.0
H381 H 0.69305 0.54096 0.59591 0.0
H382 H 0.48411 0.65091 0.69268 0.0
H383 H 0.70426 0.53217 0.67713 0.0
H384 H 0.60056 0.51627 0.81836 0.0
H385 H 0.60484 0.52296 0.73761 0.0
H386 H 0.59511 0.64711 0.75863 0.0
H387 H 0.59328 0.63993 0.8396 0.0
C388 C 0.52271 0.63118 0.62553 0.0
C389 C 0.58079 0.60052 0.59704 0.0
C390 C 0.53047 0.62669 0.67205 0.0
C391 C 0.59529 0.59092 0.69167 0.0
C392 C 0.65332 0.56007 0.66323 0.0
C393 C 0.64693 0.56508 0.6166 0.0
C394 C 0.60054 0.5448 0.80579 0.0
C395 C 0.59662 0.57753 0.83557 0.0
C396 C 0.60326 0.54858 0.75946 0.0
C397 C 0.60004 0.58562 0.74139 0.0
C398 C 0.59723 0.61821 0.77126 0.0
C399 C 0.59664 0.61403 0.81774 0.0
loop_
_geom_bond_atom_site_label_1
_geom_bond_atom_site_label_2
_geom_bond_distance
_geom_bond_site_symmetry_2
_ccdc_geom_bond_type
La0 C2 2.928 1_565 S
La0 O20 2.521 . S
La0 O21 2.628 1_566 S
La0 O22 2.554 . S
La0 O23 2.757 1_655 S
La0 O24 2.470 1_565 S
La0 O29 2.482 1_566 S
La0 O31 2.503 1_655 S
La1 C11 2.929 . S
La1 O23 2.482 1_544 S
La1 O25 2.503 1_455 S
La1 O26 2.521 . S
La1 O27 2.628 1_544 S
La1 O28 2.554 . S
La1 O29 2.757 1_455 S
La1 O30 2.470 1_545 S
C2 La0 2.928 1_545 S
C2 C3 1.503 . S
C2 O20 1.259 1_545 S
C2 O21 1.244 1_556 S
C3 C2 1.503 . S
C3 C4 1.394 . S
C3 C8 1.373 1_556 S
C4 C3 1.394 . S
C4 C5 1.380 . S
C4 H32 0.930 1_545 S
C5 C4 1.380 . S
C5 C6 1.376 . S
C5 H33 0.930 . S
C6 C5 1.376 . S
C6 C7 1.370 1_556 S
C7 C6 1.370 1_554 S
C7 C8 1.396 . S
C7 H34 0.929 . S
C8 C3 1.373 1_554 S
C8 C7 1.396 . S
C8 H35 0.929 . S
C9 O22 1.240 . S
C9 O23 1.289 1_655 S
C10 O24 1.258 . S
C10 O25 1.256 1_556 S
C11 La1 2.929 . S
C11 C12 1.503 1_545 S
C11 O26 1.262 . S
C11 O27 1.242 1_544 S
C12 C11 1.503 1_565 S
C12 C13 1.394 . S
C12 C17 1.373 1_554 S
C13 C12 1.394 . S
C13 C14 1.380 . S
C13 H36 0.930 1_565 S
C14 C13 1.380 . S
C14 C15 1.376 . S
C14 H37 0.930 . S
C15 C14 1.376 . S
C15 C16 1.370 1_554 S
C16 C15 1.370 1_556 S
C16 C17 1.396 . S
C16 H38 0.929 . S
C17 C12 1.373 1_556 S
C17 C16 1.396 . S
C17 H39 0.929 . S
C18 O28 1.240 . S
C18 O29 1.289 1_455 S
C19 O30 1.258 . S
C19 O31 1.256 1_554 S
O20 La0 2.521 . S
O20 C2 1.259 1_565 S
O21 La0 2.628 1_544 S
O21 C2 1.244 1_554 S
O22 La0 2.554 . S
O22 C9 1.240 . S
O23 La0 2.757 1_455 S
O23 La1 2.482 1_566 S
O23 C9 1.289 1_455 S
O24 La0 2.470 1_545 S
O24 C10 1.258 . S
O25 La1 2.503 1_655 S
O25 C10 1.256 1_554 S
O26 La1 2.521 . S
O26 C11 1.262 . S
O27 La1 2.628 1_566 S
O27 C11 1.242 1_566 S
O28 La1 2.554 . S
O28 C18 1.240 . S
O29 La0 2.482 1_544 S
O29 La1 2.757 1_655 S
O29 C18 1.289 1_655 S
O30 La1 2.470 1_565 S
O30 C19 1.258 . S
O31 La0 2.503 1_455 S
O31 C19 1.256 1_556 S
H32 C4 0.930 1_565 S
H33 C5 0.930 . S
H34 C7 0.929 . S
H35 C8 0.929 . S
H36 C13 0.930 1_545 S
H37 C14 0.930 . S
H38 C16 0.929 . S
H39 C17 0.929 . S
La40 C42 2.928 1_455 S
La40 O60 2.521 1_455 S
La40 O61 2.628 1_455 S
La40 O62 2.554 . S
La40 O63 2.757 1_565 S
La40 O64 2.470 1_455 S
La40 O69 2.482 1_455 S
La40 O71 2.503 . S
La41 C51 2.928 1_655 S
La41 O63 2.482 1_655 S
La41 O65 2.503 . S
La41 O66 2.521 1_655 S
La41 O67 2.628 1_655 S
La41 O68 2.554 . S
La41 O69 2.757 1_545 S
La41 O70 2.470 1_655 S
C42 La40 2.928 1_655 S
C42 C43 1.503 . S
C42 O60 1.261 . S
C42 O61 1.243 . S
C43 C42 1.503 . S
C43 C44 1.394 . S
C43 C48 1.373 . S
C44 C43 1.394 . S
C44 C45 1.380 . S
C44 H72 0.930 . S
C45 C44 1.380 . S
C45 C46 1.376 . S
C45 H73 0.930 . S
C46 C45 1.376 . S
C46 C47 1.370 . S
C47 C46 1.370 . S
C47 C48 1.396 . S
C47 H74 0.929 . S
C48 C43 1.373 . S
C48 C47 1.396 . S
C48 H75 0.929 . S
C49 O62 1.240 . S
C49 O63 1.289 1_565 S
C50 O64 1.258 1_545 S
C50 O65 1.256 . S
C51 La41 2.928 1_455 S
C51 C52 1.503 . S
C51 O66 1.261 . S
C51 O67 1.243 . S
C52 C51 1.503 . S
C52 C53 1.394 . S
C52 C57 1.373 . S
C53 C52 1.394 . S
C53 C54 1.380 . S
C53 H76 0.930 . S
C54 C53 1.380 . S
C54 C55 1.376 . S
C54 H77 0.930 . S
C55 C54 1.376 . S
C55 C56 1.370 . S
C56 C55 1.370 . S
C56 C57 1.396 . S
C56 H78 0.929 . S
C57 C52 1.373 . S
C57 C56 1.396 . S
C57 H79 0.929 . S
C58 O68 1.240 . S
C58 O69 1.289 1_545 S
C59 O70 1.258 1_565 S
C59 O71 1.256 . S
O60 La40 2.521 1_655 S
O60 C42 1.261 . S
O61 La40 2.628 1_655 S
O61 C42 1.243 . S
O62 La40 2.554 . S
O62 C49 1.240 . S
O63 La40 2.757 1_545 S
O63 La41 2.482 1_455 S
O63 C49 1.289 1_545 S
O64 La40 2.470 1_655 S
O64 C50 1.258 1_565 S
O65 La41 2.503 . S
O65 C50 1.256 . S
O66 La41 2.521 1_455 S
O66 C51 1.261 . S
O67 La41 2.628 1_455 S
O67 C51 1.243 . S
O68 La41 2.554 . S
O68 C58 1.240 . S
O69 La40 2.482 1_655 S
O69 La41 2.757 1_565 S
O69 C58 1.289 1_565 S
O70 La41 2.470 1_455 S
O70 C59 1.258 1_545 S
O71 La40 2.503 . S
O71 C59 1.256 . S
H72 C44 0.930 . S
H73 C45 0.930 . S
H74 C47 0.929 . S
H75 C48 0.929 . S
H76 C53 0.930 . S
H77 C54 0.930 . S
H78 C56 0.929 . S
H79 C57 0.929 . S
La80 C82 2.928 . S
La80 O100 2.521 . S
La80 O101 2.628 1_556 S
La80 O102 2.554 . S
La80 O103 2.757 . S
La80 O104 2.470 . S
La80 O109 2.482 1_556 S
La80 O111 2.503 . S
La81 C91 2.928 . S
La81 O103 2.482 1_554 S
La81 O105 2.503 . S
La81 O106 2.521 . S
La81 O107 2.628 1_554 S
La81 O108 2.554 . S
La81 O109 2.757 . S
La81 O110 2.470 . S
C82 La80 2.928 . S
C82 C83 1.503 . S
C82 O100 1.261 . S
C82 O101 1.243 1_556 S
C83 C82 1.503 . S
C83 C84 1.394 . S
C83 C88 1.373 1_556 S
C84 C83 1.394 . S
C84 C85 1.380 . S
C84 H112 0.930 . S
C85 C84 1.380 . S
C85 C86 1.376 . S
C85 H113 0.930 . S
C86 C85 1.376 . S
C86 C87 1.370 1_556 S
C87 C86 1.370 1_554 S
C87 C88 1.396 . S
C87 H114 0.929 . S
C88 C83 1.373 1_554 S
C88 C87 1.396 . S
C88 H115 0.929 . S
C89 O102 1.240 . S
C89 O103 1.289 . S
C90 O104 1.258 . S
C90 O105 1.256 1_556 S
C91 La81 2.928 . S
C91 C92 1.503 . S
C91 O106 1.261 . S
C91 O107 1.243 1_554 S
C92 C91 1.503 . S
C92 C93 1.394 . S
C92 C97 1.373 1_554 S
C93 C92 1.394 . S
C93 C94 1.380 . S
C93 H116 0.930 . S
C94 C93 1.380 . S
C94 C95 1.376 . S
C94 H117 0.930 . S
C95 C94 1.376 . S
C95 C96 1.370 1_554 S
C96 C95 1.370 1_556 S
C96 C97 1.396 . S
C96 H118 0.929 . S
C97 C92 1.373 1_556 S
C97 C96 1.396 . S
C97 H119 0.929 . S
C98 O108 1.240 . S
C98 O109 1.289 . S
C99 O110 1.258 . S
C99 O111 1.256 1_554 S
O100 La80 2.521 . S
O100 C82 1.261 . S
O101 La80 2.628 1_554 S
O101 C82 1.243 1_554 S
O102 La80 2.554 . S
O102 C89 1.240 . S
O103 La80 2.757 . S
O103 La81 2.482 1_556 S
O103 C89 1.289 . S
O104 La80 2.470 . S
O104 C90 1.258 . S
O105 La81 2.503 . S
O105 C90 1.256 1_554 S
O106 La81 2.521 . S
O106 C91 1.261 . S
O107 La81 2.628 1_556 S
O107 C91 1.243 1_556 S
O108 La81 2.554 . S
O108 C98 1.240 . S
O109 La80 2.482 1_554 S
O109 La81 2.757 . S
O109 C98 1.289 . S
O110 La81 2.470 . S
O110 C99 1.258 . S
O111 La80 2.503 . S
O111 C99 1.256 1_556 S
H112 C84 0.930 . S
H113 C85 0.930 . S
H114 C87 0.929 . S
H115 C88 0.929 . S
H116 C93 0.930 . S
H117 C94 0.930 . S
H118 C96 0.929 . S
H119 C97 0.929 . S
La120 C122 2.928 . S
La120 O140 2.521 . S
La120 O141 2.628 . S
La120 O142 2.554 . S
La120 O143 2.757 . S
La120 O144 2.470 . S
La120 O149 2.482 . S
La120 O151 2.503 . S
La121 C131 2.928 . S
La121 O143 2.482 . S
La121 O145 2.503 . S
La121 O146 2.521 . S
La121 O147 2.628 . S
La121 O148 2.554 . S
La121 O149 2.757 . S
La121 O150 2.470 . S
C122 La120 2.928 . S
C122 C123 1.503 . S
C122 O140 1.261 . S
C122 O141 1.243 . S
C123 C122 1.503 . S
C123 C124 1.394 . S
C123 C128 1.373 . S
C124 C123 1.394 . S
C124 C125 1.380 . S
C124 H152 0.930 . S
C125 C124 1.380 . S
C125 C126 1.376 . S
C125 H153 0.930 . S
C126 C125 1.376 . S
C126 C127 1.370 . S
C127 C126 1.370 . S
C127 C128 1.396 . S
C127 H154 0.929 . S
C128 C123 1.373 . S
C128 C127 1.396 . S
C128 H155 0.929 . S
C129 O142 1.240 . S
C129 O143 1.289 . S
C130 O144 1.258 . S
C130 O145 1.256 . S
C131 La121 2.928 . S
C131 C132 1.503 . S
C131 O146 1.261 . S
C131 O147 1.243 . S
C132 C131 1.503 . S
C132 C133 1.394 . S
C132 C137 1.373 . S
C133 C132 1.394 . S
C133 C134 1.380 . S
C133 H156 0.930 . S
C134 C133 1.380 . S
C134 C135 1.376 . S
C134 H157 0.930 . S
C135 C134 1.376 . S
C135 C136 1.370 . S
C136 C135 1.370 . S
C136 C137 1.396 . S
C136 H158 0.929 . S
C137 C132 1.373 . S
C137 C136 1.396 . S
C137 H159 0.929 . S
C138 O148 1.240 . S
C138 O149 1.289 . S
C139 O150 1.258 . S
C139 O151 1.256 . S
O140 La120 2.521 . S
O140 C122 1.261 . S
O141 La120 2.628 . S
O141 C122 1.243 . S
O142 La120 2.554 . S
O142 C129 1.240 . S
O143 La120 2.757 . S
O143 La121 2.482 . S
O143 C129 1.289 . S
O144 La120 2.470 . S
O144 C130 1.258 . S
O145 La121 2.503 . S
O145 C130 1.256 . S
O146 La121 2.521 . S
O146 C131 1.261 . S
O147 La121 2.628 . S
O147 C131 1.243 . S
O148 La121 2.554 . S
O148 C138 1.240 . S
O149 La120 2.482 . S
O149 La121 2.757 . S
O149 C138 1.289 . S
O150 La121 2.470 . S
O150 C139 1.258 . S
O151 La120 2.503 . S
O151 C139 1.256 . S
H152 C124 0.930 . S
H153 C125 0.930 . S
H154 C127 0.929 . S
H155 C128 0.929 . S
H156 C133 0.930 . S
H157 C134 0.930 . S
H158 C136 0.929 . S
H159 C137 0.929 . S
H160 C168 0.950 . S
H161 C173 0.950 . S
H162 C170 0.950 . S
H163 C172 0.950 . S
H164 C174 0.950 . S
H165 C176 0.950 . S
H166 C178 0.950 . S
H167 C179 0.950 . S
C168 H160 0.950 . S
C168 C169 1.382 1_556 S
C168 C170 1.391 . S
C169 C168 1.382 1_554 S
C169 C173 1.396 . S
C170 H162 0.950 . S
C170 C168 1.391 . S
C170 C171 1.402 . S
C171 C170 1.402 . S
C171 C172 1.396 1_556 S
C171 C177 1.490 1_556 S
C172 H163 0.950 . S
C172 C171 1.396 1_554 S
C172 C173 1.391 . S
C173 H161 0.950 . S
C173 C169 1.396 . S
C173 C172 1.391 . S
C174 H164 0.950 . S
C174 C175 1.386 1_554 S
C174 C176 1.391 . S
C175 C174 1.386 1_556 S
C175 C179 1.392 . S
C176 H165 0.950 . S
C176 C174 1.391 . S
C176 C177 1.406 . S
C177 C171 1.490 1_554 S
C177 C176 1.406 . S
C177 C178 1.393 1_554 S
C178 H166 0.950 . S
C178 C177 1.393 1_556 S
C178 C179 1.391 . S
C179 H167 0.950 . S
C179 C175 1.392 . S
C179 C178 1.391 . S
H180 C188 0.950 . S
H181 C193 0.950 . S
H182 C190 0.950 . S
H183 C192 0.950 . S
H184 C194 0.950 . S
H185 C196 0.950 . S
H186 C198 0.950 . S
H187 C199 0.950 . S
C188 H180 0.950 . S
C188 C189 1.384 . S
C188 C190 1.391 . S
C189 C188 1.384 . S
C189 C193 1.394 1_554 S
C190 H182 0.950 . S
C190 C188 1.391 . S
C190 C191 1.405 . S
C191 C190 1.405 . S
C191 C192 1.394 1_554 S
C191 C197 1.490 1_554 S
C192 H183 0.950 . S
C192 C191 1.394 1_556 S
C192 C193 1.391 . S
C193 H181 0.950 . S
C193 C189 1.394 1_556 S
C193 C192 1.391 . S
C194 H184 0.950 . S
C194 C195 1.384 1_556 S
C194 C196 1.391 . S
C195 C194 1.384 1_554 S
C195 C199 1.394 . S
C196 H185 0.950 . S
C196 C194 1.391 . S
C196 C197 1.402 . S
C197 C191 1.490 1_556 S
C197 C196 1.402 . S
C197 C198 1.396 1_556 S
C198 H186 0.950 . S
C198 C197 1.396 1_554 S
C198 C199 1.391 . S
C199 H187 0.950 . S
C199 C195 1.394 . S
C199 C198 1.391 . S
H200 C208 0.950 . S
H201 C213 0.950 . S
H202 C210 0.950 . S
H203 C212 0.950 . S
H204 C214 0.950 . S
H205 C216 0.950 . S
H206 C218 0.950 . S
H207 C219 0.950 . S
C208 H200 0.950 . S
C208 C209 1.386 . S
C208 C210 1.391 . S
C209 C208 1.386 . S
C209 C213 1.393 . S
C210 H202 0.950 . S
C210 C208 1.391 . S
C210 C211 1.400 . S
C211 C210 1.400 . S
C211 C212 1.398 . S
C211 C217 1.491 . S
C212 H203 0.950 . S
C212 C211 1.398 . S
C212 C213 1.391 . S
C213 H201 0.950 . S
C213 C209 1.393 . S
C213 C212 1.391 . S
C214 H204 0.950 . S
C214 C215 1.386 . S
C214 C216 1.391 . S
C215 C214 1.386 . S
C215 C219 1.393 . S
C216 H205 0.950 . S
C216 C214 1.391 . S
C216 C217 1.400 . S
C217 C211 1.491 . S
C217 C216 1.400 . S
C217 C218 1.398 . S
C218 H206 0.950 . S
C218 C217 1.398 . S
C218 C219 1.391 . S
C219 H207 0.950 . S
C219 C215 1.393 . S
C219 C218 1.391 . S
H220 C228 0.950 . S
H221 C233 0.950 . S
H222 C230 0.950 . S
H223 C232 0.950 . S
H224 C234 0.950 . S
H225 C236 0.950 . S
H226 C238 0.950 . S
H227 C239 0.950 . S
C228 H220 0.950 . S
C228 C229 1.386 . S
C228 C230 1.391 . S
C229 C228 1.386 . S
C229 C233 1.393 . S
C230 H222 0.950 . S
C230 C228 1.391 . S
C230 C231 1.400 . S
C231 C230 1.400 . S
C231 C232 1.398 . S
C231 C237 1.491 . S
C232 H223 0.950 . S
C232 C231 1.398 . S
C232 C233 1.391 . S
C233 H221 0.950 . S
C233 C229 1.393 . S
C233 C232 1.391 . S
C234 H224 0.950 . S
C234 C235 1.386 . S
C234 C236 1.391 . S
C235 C234 1.386 . S
C235 C239 1.393 . S
C236 H225 0.950 . S
C236 C234 1.391 . S
C236 C237 1.400 . S
C237 C231 1.491 . S
C237 C236 1.400 . S
C237 C238 1.398 . S
C238 H226 0.950 . S
C238 C237 1.398 . S
C238 C239 1.391 . S
C239 H227 0.950 . S
C239 C235 1.393 . S
C239 C238 1.391 . S
H240 C248 0.950 . S
H241 C253 0.950 . S
H242 C250 0.950 1_545 S
H243 C252 0.950 . S
H244 C254 0.950 . S
H245 C256 0.950 1_565 S
H246 C258 0.950 . S
H247 C259 0.950 . S
C248 H240 0.950 . S
C248 C249 1.386 1_556 S
C248 C250 1.391 . S
C249 C248 1.386 1_554 S
C249 C253 1.393 . S
C250 H242 0.950 1_565 S
C250 C248 1.391 . S
C250 C251 1.400 1_556 S
C251 C250 1.400 1_554 S
C251 C252 1.398 . S
C251 C257 1.491 1_564 S
C252 H243 0.950 . S
C252 C251 1.398 . S
C252 C253 1.391 . S
C253 H241 0.950 . S
C253 C249 1.393 . S
C253 C252 1.391 . S
C254 H244 0.950 . S
C254 C255 1.386 1_554 S
C254 C256 1.391 . S
C255 C254 1.386 1_556 S
C255 C259 1.393 . S
C256 H245 0.950 1_545 S
C256 C254 1.391 . S
C256 C257 1.400 1_554 S
C257 C251 1.491 1_546 S
C257 C256 1.400 1_556 S
C257 C258 1.398 . S
C258 H246 0.950 . S
C258 C257 1.398 . S
C258 C259 1.391 . S
C259 H247 0.950 . S
C259 C255 1.393 . S
C259 C258 1.391 . S
H260 C268 0.950 . S
H261 C273 0.950 . S
H262 C270 0.950 . S
H263 C272 0.950 . S
H264 C274 0.950 . S
H265 C276 0.950 . S
H266 C278 0.950 . S
H267 C279 0.950 . S
C268 H260 0.950 . S
C268 C269 1.386 1_545 S
C268 C270 1.391 . S
C269 C268 1.386 1_565 S
C269 C273 1.393 . S
C270 H262 0.950 . S
C270 C268 1.391 . S
C270 C271 1.402 . S
C271 C270 1.402 . S
C271 C272 1.396 1_545 S
C271 C277 1.490 . S
C272 H263 0.950 . S
C272 C271 1.396 1_565 S
C272 C273 1.391 . S
C273 H261 0.950 . S
C273 C269 1.393 . S
C273 C272 1.391 . S
C274 H264 0.950 . S
C274 C275 1.386 1_565 S
C274 C276 1.391 . S
C275 C274 1.386 1_545 S
C275 C279 1.393 . S
C276 H265 0.950 . S
C276 C274 1.391 . S
C276 C277 1.397 1_565 S
C277 C271 1.490 . S
C277 C276 1.397 1_545 S
C277 C278 1.403 . S
C278 H266 0.950 . S
C278 C277 1.403 . S
C278 C279 1.391 . S
C279 H267 0.950 . S
C279 C275 1.393 . S
C279 C278 1.391 . S
H280 C288 0.950 . S
H281 C293 0.950 . S
H282 C290 0.950 . S
H283 C292 0.950 . S
H284 C294 0.950 . S
H285 C296 0.950 . S
H286 C298 0.950 . S
H287 C299 0.950 . S
C288 H280 0.950 . S
C288 C289 1.386 1_556 S
C288 C290 1.391 . S
C289 C288 1.386 1_554 S
C289 C293 1.393 . S
C290 H282 0.950 . S
C290 C288 1.391 . S
C290 C291 1.387 1_556 S
C291 C290 1.387 1_554 S
C291 C292 1.414 . S
C291 C297 1.488 1_654 S
C292 H283 0.950 . S
C292 C291 1.414 . S
C292 C293 1.391 . S
C293 H281 0.950 . S
C293 C289 1.393 . S
C293 C292 1.391 . S
C294 H284 0.950 . S
C294 C295 1.386 1_554 S
C294 C296 1.391 . S
C295 C294 1.386 1_556 S
C295 C299 1.393 . S
C296 H285 0.950 . S
C296 C294 1.391 . S
C296 C297 1.391 1_554 S
C297 C291 1.488 1_456 S
C297 C296 1.391 1_556 S
C297 C298 1.409 . S
C298 H286 0.950 . S
C298 C297 1.409 . S
C298 C299 1.391 . S
C299 H287 0.950 . S
C299 C295 1.393 . S
C299 C298 1.391 . S
H300 C308 0.950 . S
H301 C313 0.950 . S
H302 C310 0.950 . S
H303 C312 0.950 . S
H304 C314 0.950 . S
H305 C316 0.950 . S
H306 C318 0.950 . S
H307 C319 0.950 . S
C308 H300 0.950 . S
C308 C309 1.386 . S
C308 C310 1.391 . S
C309 C308 1.386 . S
C309 C313 1.393 . S
C310 H302 0.950 . S
C310 C308 1.391 . S
C310 C311 1.400 . S
C311 C310 1.400 . S
C311 C312 1.398 . S
C311 C317 1.491 1_455 S
C312 H303 0.950 . S
C312 C311 1.398 . S
C312 C313 1.391 . S
C313 H301 0.950 . S
C313 C309 1.393 . S
C313 C312 1.391 . S
C314 H304 0.950 . S
C314 C315 1.386 . S
C314 C316 1.391 . S
C315 C314 1.386 . S
C315 C319 1.393 . S
C316 H305 0.950 . S
C316 C314 1.391 . S
C316 C317 1.400 . S
C317 C311 1.491 1_655 S
C317 C316 1.400 . S
C317 C318 1.398 . S
C318 H306 0.950 . S
C318 C317 1.398 . S
C318 C319 1.391 . S
C319 H307 0.950 . S
C319 C315 1.393 . S
C319 C318 1.391 . S
H320 C328 0.950 . S
H321 C333 0.950 . S
H322 C330 0.950 . S
H323 C332 0.951 . S
H324 C334 0.950 . S
H325 C336 0.950 . S
H326 C338 0.950 . S
H327 C339 0.950 . S
C328 H320 0.950 . S
C328 C329 1.415 . S
C328 C330 1.391 . S
C329 C328 1.415 . S
C329 C333 1.366 1_445 S
C330 H322 0.950 . S
C330 C328 1.391 . S
C330 C331 1.399 1_455 S
C331 C330 1.399 1_655 S
C331 C332 1.397 1_545 S
C331 C337 1.490 . S
C332 H323 0.951 . S
C332 C331 1.397 1_565 S
C332 C333 1.392 . S
C333 H321 0.950 . S
C333 C329 1.366 1_665 S
C333 C332 1.392 . S
C334 H324 0.950 . S
C334 C335 1.386 1_565 S
C334 C336 1.391 . S
C335 C334 1.386 1_545 S
C335 C339 1.393 . S
C336 H325 0.950 . S
C336 C334 1.391 . S
C336 C337 1.400 1_565 S
C337 C331 1.490 . S
C337 C336 1.400 1_545 S
C337 C338 1.398 . S
C338 H326 0.950 . S
C338 C337 1.398 . S
C338 C339 1.391 . S
C339 H327 0.950 . S
C339 C335 1.393 . S
C339 C338 1.391 . S
H340 C348 0.950 . S
H341 C353 0.950 . S
H342 C350 0.950 . S
H343 C352 0.950 . S
H344 C354 0.950 . S
H345 C356 0.950 . S
H346 C358 0.950 . S
H347 C359 0.950 . S
C348 H340 0.950 . S
C348 C349 1.415 1_455 S
C348 C350 1.391 . S
C349 C348 1.415 1_655 S
C349 C353 1.363 1_565 S
C350 H342 0.950 . S
C350 C348 1.391 . S
C350 C351 1.399 . S
C351 C350 1.399 . S
C351 C352 1.398 1_465 S
C351 C357 1.491 . S
C352 H343 0.950 . S
C352 C351 1.398 1_645 S
C352 C353 1.391 . S
C353 H341 0.950 . S
C353 C349 1.363 1_545 S
C353 C352 1.391 . S
C354 H344 0.950 . S
C354 C355 1.386 1_645 S
C354 C356 1.391 . S
C355 C354 1.386 1_465 S
C355 C359 1.393 . S
C356 H345 0.950 . S
C356 C354 1.391 . S
C356 C357 1.400 1_645 S
C357 C351 1.491 . S
C357 C356 1.400 1_465 S
C357 C358 1.398 . S
C358 H346 0.950 . S
C358 C357 1.398 . S
C358 C359 1.391 . S
C359 H347 0.950 . S
C359 C355 1.393 . S
C359 C358 1.391 . S
H360 C368 0.950 . S
H361 C373 0.950 . S
H362 C370 0.950 . S
H363 C372 0.950 . S
H364 C374 0.950 . S
H365 C376 0.950 . S
H366 C378 0.950 . S
H367 C379 0.950 . S
C368 H360 0.950 . S
C368 C369 1.386 . S
C368 C370 1.391 . S
C369 C368 1.386 . S
C369 C373 1.393 . S
C370 H362 0.950 . S
C370 C368 1.391 . S
C370 C371 1.400 . S
C371 C370 1.400 . S
C371 C372 1.398 . S
C371 C377 1.491 . S
C372 H363 0.950 . S
C372 C371 1.398 . S
C372 C373 1.391 . S
C373 H361 0.950 . S
C373 C369 1.393 . S
C373 C372 1.391 . S
C374 H364 0.950 . S
C374 C375 1.386 . S
C374 C376 1.391 . S
C375 C374 1.386 . S
C375 C379 1.393 . S
C376 H365 0.950 . S
C376 C374 1.391 . S
C376 C377 1.400 . S
C377 C371 1.491 . S
C377 C376 1.400 . S
C377 C378 1.398 . S
C378 H366 0.950 . S
C378 C377 1.398 . S
C378 C379 1.391 . S
C379 H367 0.950 . S
C379 C375 1.393 . S
C379 C378 1.391 . S
H380 C388 0.950 . S
H381 C393 0.950 . S
H382 C390 0.950 . S
H383 C392 0.950 . S
H384 C394 0.950 . S
H385 C396 0.950 . S
H386 C398 0.950 . S
H387 C399 0.950 . S
C388 H380 0.950 . S
C388 C389 1.386 . S
C388 C390 1.391 . S
C389 C388 1.386 . S
C389 C393 1.393 . S
C390 H382 0.950 . S
C390 C388 1.391 . S
C390 C391 1.400 . S
C391 C390 1.400 . S
C391 C392 1.398 . S
C391 C397 1.491 . S
C392 H383 0.950 . S
C392 C391 1.398 . S
C392 C393 1.391 . S
C393 H381 0.950 . S
C393 C389 1.393 . S
C393 C392 1.391 . S
C394 H384 0.950 . S
C394 C395 1.386 . S
C394 C396 1.391 . S
C395 C394 1.386 . S
C395 C399 1.393 . S
C396 H385 0.950 . S
C396 C394 1.391 . S
C396 C397 1.400 . S
C397 C391 1.491 . S
C397 C396 1.400 . S
C397 C398 1.398 . S
C398 H386 0.950 . S
C398 C397 1.398 . S
C398 C399 1.391 . S
C399 H387 0.950 . S
C399 C395 1.393 . S
C399 C398 1.391 . S
C169 C90 3.599 1_554 S
C175 C19 3.599 1_556 S
C189 C99 3.594 . S
C195 C10 3.594 1_554 S
C209 C55 0.139 . S
C215 C126 0.139 . S
C229 C46 0.205 . S
C235 C135 0.205 . S
C249 C15 0.965 . S
C255 C6 0.965 . S
C269 C59 4.898 . S
C275 C50 4.898 . S
C289 C95 0.949 . S
C295 C86 0.949 . S
C309 C130 4.900 . S
C315 C139 4.900 . S
C329 C49 1.434 1_545 S
C335 C18 1.458 1_655 S
C349 C9 1.450 . S
C355 C58 1.453 1_465 S
C369 C129 1.437 . S
C375 C98 1.439 . S
C389 C138 1.452 . S
C395 C89 1.466 . S
