# Generated by pormake.
# Topology tfs, (6)-cn, num edge types: 1
# Building blocks:
#     Node 0, Type 0, BuildingBlock: BETDIP_clean_sbu_0, # of connection points: 6
#     Node 1, Type 0, BuildingBlock: BETDIP_clean_sbu_0, # of connection points: 6
#     Node 2, Type 0, BuildingBlock: BETDIP_clean_sbu_0, # of connection points: 6
#     Node 3, Type 0, BuildingBlock: BETDIP_clean_sbu_0, # of connection points: 6
#     Node 4, Type 0, BuildingBlock: BETDIP_clean_sbu_0, # of connection points: 6
#     Node 5, Type 0, BuildingBlock: BETDIP_clean_sbu_0, # of connection points: 6
#     Edge 6, Type (0, 0), BuildingBlock: MIFKUJ_clean_linker_0, # of connection points: 2
#     Edge 7, Type (0, 0), BuildingBlock: MIFKUJ_clean_linker_0, # of connection points: 2
#     Edge 8, Type (0, 0), BuildingBlock: MIFKUJ_clean_linker_0, # of connection points: 2
#     Edge 9, Type (0, 0), BuildingBlock: MIFKUJ_clean_linker_0, # of connection points: 2
#     Edge 10, Type (0, 0), BuildingBlock: MIFKUJ_clean_linker_0, # of connection points: 2
#     Edge 11, Type (0, 0), BuildingBlock: MIFKUJ_clean_linker_0, # of connection points: 2
#     Edge 12, Type (0, 0), BuildingBlock: MIFKUJ_clean_linker_0, # of connection points: 2
#     Edge 13, Type (0, 0), BuildingBlock: MIFKUJ_clean_linker_0, # of connection points: 2
#     Edge 14, Type (0, 0), BuildingBlock: MIFKUJ_clean_linker_0, # of connection points: 2
#     Edge 15, Type (0, 0), BuildingBlock: MIFKUJ_clean_linker_0, # of connection points: 2
#     Edge 16, Type (0, 0), BuildingBlock: MIFKUJ_clean_linker_0, # of connection points: 2
#     Edge 17, Type (0, 0), BuildingBlock: MIFKUJ_clean_linker_0, # of connection points: 2
#     Edge 18, Type (0, 0), BuildingBlock: MIFKUJ_clean_linker_0, # of connection points: 2
#     Edge 19, Type (0, 0), BuildingBlock: MIFKUJ_clean_linker_0, # of connection points: 2
#     Edge 20, Type (0, 0), BuildingBlock: MIFKUJ_clean_linker_0, # of connection points: 2
#     Edge 21, Type (0, 0), BuildingBlock: MIFKUJ_clean_linker_0, # of connection points: 2
#     Edge 22, Type (0, 0), BuildingBlock: MIFKUJ_clean_linker_0, # of connection points: 2
#     Edge 23, Type (0, 0), BuildingBlock: MIFKUJ_clean_linker_0, # of connection points: 2
# Relax obj value: 0.556
# Max RMSD: 0.297
# Mean RMSD: 0.297
data_MOF--net-tfs--node1-BETDIP_clean_sbu_0--edge1-MIFKUJ_clean_linker_0
_symmetry_space_group_name_H-M    P1
_symmetry_Int_Tables_number       1
_symmetry_cell_setting            triclinic
loop_
_symmetry_equiv_pos_as_xyz
'x, y, z'
_cell_length_a     67.173469
_cell_length_b     67.065657
_cell_length_c     18.836928
_cell_angle_alpha  89.956478
_cell_angle_beta   89.987925
_cell_angle_gamma 120.05871
loop_
_atom_site_label
_atom_site_type_symbol
_atom_site_fract_x
_atom_site_fract_y
_atom_site_fract_z
_atom_type_partial_charge
Tb0 Tb 0.18527 0.43474 0.0334 0.0
Tb1 Tb 0.20649 0.40581 0.99798 0.0
C2 C 0.17435 0.46251 0.08603 0.0
C3 C 0.18007 0.48656 0.07486 0.0
C4 C 0.16483 0.49354 0.09945 0.0
C5 C 0.16947 0.51608 0.08829 0.0
C6 C 0.18952 0.53218 0.05228 0.0
C7 C 0.2049 0.52516 0.0281 0.0
C8 C 0.20016 0.5025 0.039 0.0
C9 C 0.18474 0.42509 0.89635 0.0
C10 C 0.23861 0.45926 1.00239 0.0
C11 C 0.21913 0.37967 0.94196 0.0
C12 C 0.22324 0.36047 0.95774 0.0
C13 C 0.22601 0.34859 0.90096 0.0
C14 C 0.23333 0.33268 0.91288 0.0
C15 C 0.23805 0.32825 0.98211 0.0
C16 C 0.23435 0.33957 0.03932 0.0
C17 C 0.22705 0.35557 0.02724 0.0
C18 C 0.20648 0.41447 0.13574 0.0
C19 C 0.15256 0.38241 0.02526 0.0
O20 O 0.19067 0.45928 0.11142 0.0
O21 O 0.16297 0.44816 0.03476 0.0
O22 O 0.20052 0.42941 0.93991 0.0
O23 O 0.1697 0.42877 0.9272 0.0
O24 O 0.2219 0.46011 0.03655 0.0
O25 O 0.23485 0.44011 0.97037 0.0
O26 O 0.19791 0.37545 0.94075 0.0
O27 O 0.23297 0.39925 0.97265 0.0
O28 O 0.1911 0.41081 0.09137 0.0
O29 O 0.22105 0.41006 0.10517 0.0
O30 O 0.16901 0.38154 0.98857 0.0
O31 O 0.15702 0.4011 0.06119 0.0
H32 H 0.14925 0.48149 0.12724 0.0
H33 H 0.15743 0.52098 0.10854 0.0
H34 H 0.22039 0.53705 0.99967 0.0
H35 H 0.21207 0.49739 0.01907 0.0
H36 H 0.22341 0.35232 0.84687 0.0
H37 H 0.23629 0.32465 0.86736 0.0
H38 H 0.23747 0.33638 0.0934 0.0
H39 H 0.22508 0.36462 0.07186 0.0
Tb40 Tb 0.75047 0.18684 0.03825 0.0
Tb41 Tb 0.80038 0.2093 1.0019 0.0
C42 C 0.71192 0.17637 0.09006 0.0
C43 C 0.695 0.18385 0.07698 0.0
C44 C 0.68102 0.18353 0.13272 0.0
C45 C 0.66443 0.18995 0.12078 0.0
C46 C 0.66143 0.19665 0.05267 0.0
C47 C 0.6758 0.19741 0.99718 0.0
C48 C 0.69255 0.1912 1.00932 0.0
C49 C 0.7594 0.18666 0.90082 0.0
C50 C 0.77807 0.24014 1.00659 0.0
C51 C 0.83928 0.22286 0.94584 0.0
C52 C 0.86225 0.22592 0.95969 0.0
C53 C 0.87658 0.22887 0.90181 0.0
C54 C 0.89966 0.2354 0.91237 0.0
C55 C 0.90895 0.23914 0.98129 0.0
C56 C 0.8942 0.23514 0.0395 0.0
C57 C 0.87106 0.22862 0.02879 0.0
C58 C 0.79168 0.20883 0.13999 0.0
C59 C 0.77096 0.15516 0.0293 0.0
O60 O 0.73147 0.19178 0.118 0.0
O61 O 0.71475 0.16487 0.03881 0.0
O62 O 0.77054 0.20264 0.94419 0.0
O63 O 0.74117 0.17094 0.93236 0.0
O64 O 0.76127 0.22338 0.04295 0.0
O65 O 0.79325 0.23665 0.97243 0.0
O66 O 0.82193 0.2019 0.93907 0.0
O67 O 0.83384 0.23601 0.9822 0.0
O68 O 0.78042 0.19328 0.09563 0.0
O69 O 0.81026 0.22418 0.10913 0.0
O70 O 0.78808 0.17197 0.99282 0.0
O71 O 0.75639 0.15898 0.06564 0.0
H72 H 0.68275 0.17805 0.18535 0.0
H73 H 0.65351 0.18906 0.16444 0.0
H74 H 0.67407 0.20279 0.94441 0.0
H75 H 0.7034 0.1919 0.9657 0.0
H76 H 0.87016 0.22709 0.84804 0.0
H77 H 0.91046 0.23858 0.86621 0.0
H78 H 0.90064 0.2375 0.09333 0.0
H79 H 0.86028 0.22646 0.07427 0.0
Tb80 Tb 0.56227 0.75299 0.03609 0.0
Tb81 Tb 0.59803 0.8013 1.00118 0.0
C82 C 0.5305 0.71643 0.08957 0.0
C83 C 0.50647 0.69924 0.07287 0.0
C84 C 0.49058 0.68913 0.12834 0.0
C85 C 0.46819 0.67138 0.11448 0.0
C86 C 0.46133 0.66332 0.04481 0.0
C87 C 0.47712 0.6739 0.98903 0.0
C88 C 0.49946 0.69178 1.00286 0.0
C89 C 0.57074 0.76092 0.8982 0.0
C90 C 0.54826 0.79201 0.0204 0.0
C91 C 0.63143 0.83723 0.94997 0.0
C92 C 0.64237 0.86245 0.95257 0.0
C93 C 0.66451 0.87569 0.92433 0.0
C94 C 0.67588 0.8997 0.92786 0.0
C95 C 0.66529 0.91099 0.95968 0.0
C96 C 0.64294 0.89758 0.98774 0.0
C97 C 0.63157 0.87346 0.98429 0.0
C98 C 0.58785 0.79329 0.13765 0.0
C99 C 0.61103 0.76255 0.01844 0.0
O100 O 0.53465 0.73697 0.10814 0.0
O101 O 0.54613 0.71722 0.04644 0.0
O102 O 0.5703 0.77441 0.94347 0.0
O103 O 0.56382 0.74124 0.92842 0.0
O104 O 0.5429 0.77117 0.04275 0.0
O105 O 0.56882 0.80673 0.99455 0.0
O106 O 0.6326 0.82722 1.0081 0.0
O107 O 0.61125 0.82592 0.91951 0.0
O108 O 0.58959 0.78 0.09416 0.0
O109 O 0.5938 0.8127 0.10632 0.0
O110 O 0.61385 0.78008 0.97893 0.0
O111 O 0.59317 0.75219 0.06108 0.0
H112 H 0.49567 0.6946 0.18268 0.0
H113 H 0.45648 0.66344 0.15864 0.0
H114 H 0.47223 0.66823 0.93475 0.0
H115 H 0.51138 0.69945 0.95902 0.0
H116 H 0.67316 0.86743 0.90016 0.0
H117 H 0.69319 0.90938 0.90693 0.0
H118 H 0.63419 0.90571 0.01202 0.0
H119 H 0.61446 0.86344 1.00658 0.0
Tb120 Tb 0.81385 0.56269 0.03962 0.0
Tb121 Tb 0.80028 0.59718 1.00244 0.0
C122 C 0.81811 0.53098 0.09518 0.0
C123 C 0.80836 0.5062 0.08175 0.0
C124 C 0.80317 0.4911 0.13914 0.0
C125 C 0.79556 0.46781 0.12737 0.0
C126 C 0.79323 0.45922 0.05782 0.0
C127 C 0.79745 0.47426 1.00038 0.0
C128 C 0.80484 0.49751 0.01224 0.0
C129 C 0.81327 0.56967 0.90111 0.0
C130 C 0.76041 0.5473 0.02661 0.0
C131 C 0.796 0.62919 0.94867 0.0
C132 C 0.78 0.63805 0.9512 0.0
C133 C 0.78036 0.65225 0.89613 0.0
C134 C 0.76645 0.66222 0.89946 0.0
C135 C 0.75197 0.65821 0.95821 0.0
C136 C 0.75129 0.64348 0.01265 0.0
C137 C 0.76518 0.63344 1.00911 0.0
C138 C 0.79938 0.58862 0.13988 0.0
C139 C 0.8526 0.61181 0.0177 0.0
O140 O 0.80382 0.53733 0.11883 0.0
O141 O 0.83197 0.54493 0.04641 0.0
O142 O 0.79935 0.56912 0.94669 0.0
O143 O 0.82692 0.56399 0.93172 0.0
O144 O 0.77633 0.54257 0.04846 0.0
O145 O 0.76573 0.56752 0.9991 0.0
O146 O 0.8074 0.63127 1.00708 0.0
O147 O 0.78852 0.60915 0.91828 0.0
O148 O 0.81426 0.59034 0.09579 0.0
O149 O 0.78517 0.59346 0.10832 0.0
O150 O 0.83735 0.61387 0.97873 0.0
O151 O 0.84581 0.59404 0.0606 0.0
H152 H 0.80546 0.49744 0.19315 0.0
H153 H 0.79193 0.45661 0.17285 0.0
H154 H 0.79599 0.46834 0.94616 0.0
H155 H 0.80844 0.50881 0.96701 0.0
H156 H 0.79166 0.6559 0.85092 0.0
H157 H 0.76708 0.67312 0.85604 0.0
H158 H 0.7405 0.64019 0.05891 0.0
H159 H 0.76469 0.62249 0.05217 0.0
Tb160 Tb 0.25378 0.81602 0.02079 0.0
Tb161 Tb 0.20419 0.7952 0.98192 0.0
C162 C 0.29156 0.82764 0.08015 0.0
C163 C 0.31047 0.82277 0.07255 0.0
C164 C 0.32369 0.82446 0.13213 0.0
C165 C 0.34288 0.82171 0.12524 0.0
C166 C 0.34928 0.81747 0.05834 0.0
C167 C 0.33566 0.81524 0.9989 0.0
C168 C 0.31631 0.81773 1.00601 0.0
C169 C 0.24591 0.81503 0.88214 0.0
C170 C 0.2243 0.76213 0.99572 0.0
C171 C 0.16625 0.78289 0.92124 0.0
C172 C 0.14317 0.77907 0.9367 0.0
C173 C 0.12791 0.77446 0.88027 0.0
C174 C 0.10474 0.7669 0.89343 0.0
C175 C 0.09639 0.76375 0.96347 0.0
C176 C 0.11208 0.76961 0.02 0.0
C177 C 0.1353 0.77719 1.00671 0.0
C178 C 0.21183 0.79658 0.12073 0.0
C179 C 0.23546 0.84944 1.0008 0.0
O180 O 0.27188 0.81073 0.10284 0.0
O181 O 0.28907 0.83907 0.02796 0.0
O182 O 0.23384 0.79989 0.92694 0.0
O183 O 0.26456 0.83019 0.91316 0.0
O184 O 0.24241 0.7792 0.02711 0.0
O185 O 0.20905 0.76578 0.96257 0.0
O186 O 0.18336 0.8041 0.9214 0.0
O187 O 0.17154 0.76882 0.95264 0.0
O188 O 0.22399 0.81147 0.07544 0.0
O189 O 0.19295 0.78174 0.09005 0.0
O190 O 0.2177 0.83256 0.96706 0.0
O191 O 0.24946 0.84539 0.03917 0.0
H192 H 0.31947 0.82847 0.18372 0.0
H193 H 0.35315 0.82367 0.17183 0.0
H194 H 0.34006 0.8117 0.94692 0.0
H195 H 0.3062 0.81621 0.95937 0.0
H196 H 0.13369 0.77564 0.8259 0.0
H197 H 0.09315 0.76228 0.84863 0.0
H198 H 0.10627 0.76767 0.07453 0.0
H199 H 0.14689 0.78066 0.05097 0.0
Tb200 Tb 0.43759 0.25274 0.03313 0.0
Tb201 Tb 0.4097 0.20267 0.99634 0.0
C202 C 0.46436 0.29167 0.08584 0.0
C203 C 0.48816 0.31076 0.07487 0.0
C204 C 0.50726 0.3076 0.08121 0.0
C205 C 0.52959 0.32625 0.07235 0.0
C206 C 0.53323 0.34834 0.05647 0.0
C207 C 0.51407 0.35135 0.04954 0.0
C208 C 0.49181 0.33279 0.05894 0.0
C209 C 0.42911 0.24386 0.89542 0.0
C210 C 0.4631 0.22471 1.00499 0.0
C211 C 0.38511 0.16408 0.93755 0.0
C212 C 0.36471 0.14097 0.94548 0.0
C213 C 0.35579 0.12736 0.88456 0.0
C214 C 0.33962 0.10391 0.89035 0.0
C215 C 0.33196 0.0936 0.95731 0.0
C216 C 0.33983 0.10759 0.01827 0.0
C217 C 0.35621 0.13111 0.01244 0.0
C218 C 0.41755 0.21112 0.13443 0.0
C219 C 0.38491 0.23194 0.0247 0.0
O220 O 0.46156 0.27231 0.1119 0.0
O221 O 0.44981 0.28828 0.03481 0.0
O222 O 0.43347 0.23254 0.93952 0.0
O223 O 0.43191 0.26225 0.92641 0.0
O224 O 0.46345 0.24204 0.03929 0.0
O225 O 0.44437 0.20944 0.97102 0.0
O226 O 0.38215 0.18174 0.92764 0.0
O227 O 0.40237 0.1689 0.97969 0.0
O228 O 0.41374 0.2227 0.08983 0.0
O229 O 0.41382 0.19233 0.10381 0.0
O230 O 0.38423 0.21445 0.98938 0.0
O231 O 0.40363 0.24672 0.05953 0.0
H232 H 0.50501 0.2908 0.09324 0.0
H233 H 0.54402 0.32336 0.07746 0.0
H234 H 0.5163 0.3682 0.03832 0.0
H235 H 0.47738 0.33569 0.05422 0.0
H236 H 0.36221 0.1346 0.83246 0.0
H237 H 0.33369 0.09364 0.84244 0.0
H238 H 0.33433 0.10009 0.07058 0.0
H239 H 0.36302 0.14129 0.06021 0.0
H240 H 0.37808 0.26013 0.11281 0.0
H241 H 0.34757 0.26956 0.10852 0.0
H242 H 0.31542 0.22164 0.93612 0.0
H243 H 0.34638 0.21223 0.93952 0.0
H244 H 0.31862 0.26212 0.90622 0.0
H245 H 0.29038 0.21053 0.10049 0.0
H246 H 0.29128 0.19303 0.2147 0.0
H247 H 0.30908 0.25616 0.32261 0.0
H248 H 0.3087 0.27421 0.20887 0.0
H249 H 0.22779 0.28806 0.91276 0.0
H250 H 0.24744 0.2658 0.92297 0.0
H251 H 0.29089 0.31156 0.08747 0.0
H252 H 0.27169 0.33417 0.07678 0.0
H253 H 0.27677 0.26614 0.11782 0.0
H254 H 0.30986 0.31844 0.91861 0.0
H255 H 0.30847 0.3353 0.80361 0.0
H256 H 0.28023 0.26893 0.70467 0.0
H257 H 0.28117 0.25161 0.8194 0.0
C258 C 0.36443 0.25134 0.07434 0.0
C259 C 0.36475 0.23544 0.0263 0.0
C260 C 0.34684 0.25667 0.07232 0.0
C261 C 0.329 0.24619 0.02246 0.0
C262 C 0.32895 0.22991 0.97526 0.0
C263 C 0.34659 0.22446 0.97746 0.0
C264 C 0.31151 0.25362 0.0171 0.0
C265 C 0.30906 0.26247 0.95217 0.0
C266 C 0.29927 0.25448 0.07724 0.0
C267 C 0.29964 0.24377 0.14593 0.0
C268 C 0.29468 0.22076 0.14846 0.0
C269 C 0.29505 0.21072 0.21316 0.0
C270 C 0.30019 0.22346 0.27586 0.0
C271 C 0.30502 0.24629 0.27399 0.0
C272 C 0.30473 0.25643 0.2094 0.0
C273 C 0.24152 0.29343 0.95116 0.0
C274 C 0.24822 0.3131 0.99352 0.0
C275 C 0.2527 0.28061 0.95709 0.0
C276 C 0.27084 0.28714 1.00543 0.0
C277 C 0.27691 0.30614 0.04987 0.0
C278 C 0.26581 0.31902 0.04385 0.0
C279 C 0.28432 0.275 1.00744 0.0
C280 C 0.28604 0.26537 0.07173 0.0
C281 C 0.29579 0.27327 0.94668 0.0
C282 C 0.29533 0.28369 0.8777 0.0
C283 C 0.30318 0.30741 0.87244 0.0
C284 C 0.3025 0.31705 0.8073 0.0
C285 C 0.2942 0.30318 0.74692 0.0
C286 C 0.28662 0.27965 0.75151 0.0
C287 C 0.28722 0.26991 0.81657 0.0
H288 H 0.29369 0.31068 0.69653 0.0
H289 H 0.30047 0.21567 0.3259 0.0
H290 H 0.13343 0.34349 0.94152 0.0
H291 H 0.09279 0.3132 0.93653 0.0
H292 H 0.0771 0.34683 0.10459 0.0
H293 H 0.11737 0.37668 0.1107 0.0
H294 H 0.05335 0.30137 0.12259 0.0
H295 H 0.06919 0.35469 0.928 0.0
H296 H 0.08947 0.3756 0.81944 0.0
H297 H 0.06689 0.31138 0.71169 0.0
H298 H 0.04674 0.29008 0.82004 0.0
H299 H 0.93734 0.27183 0.07707 0.0
H300 H 0.97903 0.29 0.08722 0.0
H301 H 0.9799 0.24726 0.91774 0.0
H302 H 0.93801 0.22868 0.90782 0.0
H303 H 0.01172 0.2917 0.89626 0.0
H304 H 0.99099 0.23854 0.08785 0.0
H305 H 0.97071 0.21818 0.19698 0.0
H306 H 0.00222 0.28216 0.31115 0.0
H307 H 0.02244 0.30298 0.20244 0.0
C308 C 0.12135 0.34422 0.97803 0.0
C309 C 0.12865 0.36264 0.02602 0.0
C310 C 0.09811 0.32697 0.9749 0.0
C311 C 0.08179 0.32789 0.01955 0.0
C312 C 0.08929 0.34571 0.06951 0.0
C313 C 0.11239 0.36288 0.07263 0.0
C314 C 0.0567 0.31122 0.0125 0.0
C315 C 0.04423 0.29931 0.07316 0.0
C316 C 0.04482 0.30802 0.94761 0.0
C317 C 0.0567 0.32081 0.88231 0.0
C318 C 0.06869 0.34504 0.88129 0.0
C319 C 0.08014 0.35696 0.8198 0.0
C320 C 0.07953 0.34483 0.75877 0.0
C321 C 0.06739 0.32075 0.75905 0.0
C322 C 0.05595 0.30875 0.82047 0.0
C323 C 0.94626 0.26585 0.04298 0.0
C324 C 0.93419 0.24871 0.99166 0.0
C325 C 0.97018 0.27635 0.04872 0.0
C326 C 0.98266 0.26992 1.00358 0.0
C327 C 0.97068 0.25256 0.95309 0.0
C328 C 0.94671 0.242 0.94738 0.0
C329 C 0.00826 0.28225 1.00683 0.0
C330 C 0.02083 0.29339 0.94545 0.0
C331 C 0.02022 0.2848 0.07115 0.0
C332 C 0.00811 0.27234 0.13677 0.0
C333 C 0.99347 0.2483 0.13607 0.0
C334 C 0.982 0.23667 0.1979 0.0
C335 C 0.98514 0.24887 0.26092 0.0
C336 C 0.99979 0.27273 0.26228 0.0
C337 C 0.01129 0.28445 0.20058 0.0
H338 H 0.97625 0.23983 0.30873 0.0
H339 H 0.08842 0.35409 0.71123 0.0
H340 H 0.78524 0.13557 0.92855 0.0
H341 H 0.77236 0.09443 0.91564 0.0
H342 H 0.73424 0.08009 0.11142 0.0
H343 H 0.74702 0.12093 0.12471 0.0
H344 H 0.75478 0.0534 0.09576 0.0
H345 H 0.70795 0.07584 0.95852 0.0
H346 H 0.70263 0.09944 0.86827 0.0
H347 H 0.73077 0.07496 0.70849 0.0
H348 H 0.73661 0.0515 0.79817 0.0
H349 H 0.66615 0.93772 0.07121 0.0
H350 H 0.68803 0.97967 0.08078 0.0
H351 H 0.7156 0.98425 0.8707 0.0
H352 H 0.69297 0.94238 0.85944 0.0
H353 H 0.70451 0.01643 0.88709 0.0
H354 H 0.7479 0.9909 0.02069 0.0
H355 H 0.75472 0.96828 0.1107 0.0
H356 H 0.73467 0.99879 0.27576 0.0
H357 H 0.72741 0.02137 0.18662 0.0
C358 C 0.77457 0.12369 0.96961 0.0
C359 C 0.76692 0.1314 0.0272 0.0
C360 C 0.76714 0.10021 0.96202 0.0
C361 C 0.75208 0.08419 0.0121 0.0
C362 C 0.74579 0.09213 0.07208 0.0
C363 C 0.75303 0.11548 0.07938 0.0
C364 C 0.74107 0.05904 0.99947 0.0
C365 C 0.74372 0.04526 0.05033 0.0
C366 C 0.72703 0.04853 0.93939 0.0
C367 C 0.72294 0.06212 0.88515 0.0
C368 C 0.71311 0.07559 0.90421 0.0
C369 C 0.71001 0.08894 0.85318 0.0
C370 C 0.71642 0.08875 0.78272 0.0
C371 C 0.72585 0.07512 0.76311 0.0
C372 C 0.72906 0.0618 0.81401 0.0
C373 C 0.6766 0.94764 0.02661 0.0
C374 C 0.67786 0.93661 0.9647 0.0
C375 C 0.68936 0.97164 0.03252 0.0
C376 C 0.70384 0.98513 0.977 0.0
C377 C 0.70471 0.97422 0.91448 0.0
C378 C 0.69188 0.95024 0.90839 0.0
C379 C 0.71792 0.0106 0.984 0.0
C380 C 0.7158 0.02448 0.93212 0.0
C381 C 0.73255 0.02121 0.04302 0.0
C382 C 0.73693 0.00768 0.09687 0.0
C383 C 0.74478 0.99266 0.07613 0.0
C384 C 0.74875 0.97986 0.12701 0.0
C385 C 0.74508 0.98206 0.19889 0.0
C386 C 0.73748 0.99709 0.22006 0.0
C387 C 0.73346 0.00991 0.16938 0.0
H388 H 0.74817 0.97214 0.2382 0.0
H389 H 0.71404 0.09913 0.74331 0.0
H390 H 0.76492 0.70264 0.92242 0.0
H391 H 0.74209 0.72166 0.93017 0.0
H392 H 0.68521 0.65951 0.01593 0.0
H393 H 0.70763 0.64004 1.00555 0.0
H394 H 0.67058 0.67773 0.91824 0.0
H395 H 0.71972 0.70571 0.12228 0.0
H396 H 0.75654 0.72391 0.18717 0.0
H397 H 0.77926 0.7865 0.0694 0.0
H398 H 0.74268 0.76856 1.00306 0.0
H399 H 0.60537 0.72232 0.07183 0.0
H400 H 0.63094 0.70657 0.05843 0.0
H401 H 0.67884 0.76682 0.94032 0.0
H402 H 0.65313 0.78276 0.95283 0.0
H403 H 0.69899 0.75129 0.04904 0.0
H404 H 0.64829 0.72281 0.84846 0.0
H405 H 0.61053 0.70429 0.78904 0.0
H406 H 0.58999 0.64197 0.90608 0.0
H407 H 0.62752 0.66026 0.96715 0.0
C408 C 0.74746 0.69291 0.94218 0.0
C409 C 0.73809 0.66979 0.96331 0.0
C410 C 0.73453 0.7039 0.94734 0.0
C411 C 0.71205 0.6921 0.97446 0.0
C412 C 0.70256 0.66897 0.99508 0.0
C413 C 0.71546 0.65793 0.98969 0.0
C414 C 0.69831 0.70376 0.98064 0.0
C415 C 0.67671 0.69367 0.94751 0.0
C416 C 0.70654 0.72487 0.01741 0.0
C417 C 0.72856 0.7357 0.05715 0.0
C418 C 0.73265 0.72329 0.10977 0.0
C419 C 0.75346 0.73357 0.1469 0.0
C420 C 0.77026 0.75633 0.13227 0.0
C421 C 0.76625 0.76887 0.08059 0.0
C422 C 0.74548 0.75865 0.04324 0.0
C423 C 0.62139 0.73234 0.04332 0.0
C424 C 0.6272 0.75376 0.0131 0.0
C425 C 0.63594 0.72327 0.03561 0.0
C426 C 0.65663 0.73548 0.99798 0.0
C427 C 0.66288 0.75717 0.96945 0.0
C428 C 0.64816 0.76618 0.97644 0.0
C429 C 0.67131 0.72511 0.98722 0.0
C430 C 0.69302 0.73543 0.01944 0.0
C431 C 0.66315 0.70413 0.95008 0.0
C432 C 0.64065 0.69298 0.91285 0.0
C433 C 0.63566 0.70522 0.86197 0.0
C434 C 0.61431 0.69475 0.82791 0.0
C435 C 0.59785 0.67199 0.84388 0.0
C436 C 0.60275 0.65962 0.89381 0.0
C437 C 0.62407 0.67002 0.92812 0.0
H438 H 0.58133 0.66391 0.81747 0.0
H439 H 0.78635 0.76426 0.1611 0.0
H440 H 0.07155 0.73063 0.06235 0.0
H441 H 0.02984 0.70794 0.0742 0.0
H442 H 0.02211 0.74683 0.90484 0.0
H443 H 0.06404 0.77021 0.89397 0.0
H444 H 0.99001 0.73631 0.0126 0.0
H445 H 0.01769 0.69681 0.86669 0.0
H446 H 0.04238 0.68054 0.83656 0.0
H447 H 0.01621 0.63514 0.01627 0.0
H448 H 0.99161 0.65141 0.04811 0.0
H449 H 0.87341 0.65022 0.93275 0.0
H450 H 0.91451 0.67862 0.92539 0.0
H451 H 0.92866 0.64166 0.08652 0.0
H452 H 0.88783 0.61316 0.09362 0.0
H453 H 0.95742 0.65231 0.97686 0.0
H454 H 0.92995 0.69224 0.12361 0.0
H455 H 0.90535 0.70867 0.1534 0.0
H456 H 0.93074 0.75304 0.97122 0.0
H457 H 0.95527 0.73664 0.93978 0.0
C458 C 0.06107 0.73483 0.02882 0.0
C459 C 0.07118 0.75218 0.97686 0.0
C460 C 0.03718 0.72167 0.03524 0.0
C461 C 0.02288 0.72543 0.98956 0.0
C462 C 0.03285 0.74356 0.94033 0.0
C463 C 0.0568 0.75677 0.93385 0.0
C464 C 0.99766 0.70938 0.9901 0.0
C465 C 0.98282 0.71798 1.00392 0.0
C466 C 0.98833 0.68544 0.97948 0.0
C467 C 0.00296 0.67548 0.96014 0.0
C468 C 0.01733 0.68348 0.90008 0.0
C469 C 0.03129 0.67424 0.88265 0.0
C470 C 0.03091 0.65685 0.92457 0.0
C471 C 0.01651 0.64863 0.9839 0.0
C472 C 0.00254 0.65784 1.00163 0.0
C473 C 0.88527 0.64819 0.9668 0.0
C474 C 0.87733 0.6294 0.01375 0.0
C475 C 0.90874 0.6645 0.96274 0.0
C476 C 0.92465 0.66237 1.00581 0.0
C477 C 0.91671 0.64366 0.05276 0.0
C478 C 0.89332 0.62738 0.0568 0.0
C479 C 0.94968 0.67911 1.00075 0.0
C480 C 0.96454 0.67064 0.98556 0.0
C481 C 0.95893 0.70312 1.00999 0.0
C482 C 0.94426 0.71304 0.02892 0.0
C483 C 0.93014 0.70537 0.08956 0.0
C484 C 0.91624 0.71469 0.10681 0.0
C485 C 0.91643 0.73184 0.06412 0.0
C486 C 0.93058 0.73973 1.00418 0.0
C487 C 0.9445 0.73044 0.98665 0.0
H488 H 0.90566 0.73904 0.07757 0.0
H489 H 0.04173 0.64972 0.91099 0.0
H490 H 0.20666 0.86744 0.01213 0.0
H491 H 0.21808 0.90852 0.01162 0.0
H492 H 0.28827 0.92637 0.96842 0.0
H493 H 0.27713 0.88584 0.97401 0.0
H494 H 0.29013 0.95319 0.06163 0.0
H495 H 0.24744 0.92813 0.84101 0.0
H496 H 0.21323 0.90458 0.767 0.0
H497 H 0.17508 0.92909 0.88508 0.0
H498 H 0.209 0.95257 0.96033 0.0
H499 H 0.33924 0.06168 0.89213 0.0
H500 H 0.31745 0.01981 0.90555 0.0
H501 H 0.27077 0.02565 0.04949 0.0
H502 H 0.29284 0.06792 0.03711 0.0
H503 H 0.25248 0.98765 0.92108 0.0
H504 H 0.29926 0.01565 0.13495 0.0
H505 H 0.33576 0.04023 0.19776 0.0
H506 H 0.36853 0.01026 0.07766 0.0
H507 H 0.33229 0.98577 0.01333 0.0
C508 C 0.22444 0.88026 1.00208 0.0
C509 C 0.24106 0.87361 0.9934 0.0
C510 C 0.23099 0.90373 1.00147 0.0
C511 C 0.25411 0.92078 0.98967 0.0
C512 C 0.27041 0.91379 0.97856 0.0
C513 C 0.26402 0.89057 0.98134 0.0
C514 C 0.26197 0.94596 0.99106 0.0
C515 C 0.28181 0.96056 0.03047 0.0
C516 C 0.25098 0.95589 0.95221 0.0
C517 C 0.23066 0.94188 0.90677 0.0
C518 C 0.2317 0.92837 0.85146 0.0
C519 C 0.21238 0.91505 0.80926 0.0
C520 C 0.19197 0.91528 0.82147 0.0
C521 C 0.19088 0.92889 0.87577 0.0
C522 C 0.21015 0.94221 0.91817 0.0
C523 C 0.32415 0.05408 0.9259 0.0
C524 C 0.31769 0.0681 0.96335 0.0
C525 C 0.31176 0.03016 0.93357 0.0
C526 C 0.29247 0.01967 0.97818 0.0
C527 C 0.28554 0.03347 0.01445 0.0
C528 C 0.29822 0.05755 1.00771 0.0
C529 C 0.28077 0.99441 0.98965 0.0
C530 C 0.26036 0.97998 0.95287 0.0
C531 C 0.29143 0.98455 0.02965 0.0
C532 C 0.31313 0.99904 0.06895 0.0
C533 C 0.3143 0.01445 0.12152 0.0
C534 C 0.33493 0.02834 0.15747 0.0
C535 C 0.35446 0.02685 0.1416 0.0
C536 C 0.35339 0.01141 0.08987 0.0
C537 C 0.33281 0.99751 0.05371 0.0
H538 H 0.37042 0.03762 0.16948 0.0
H539 H 0.17703 0.90496 0.78877 0.0
H540 H 0.25595 0.74975 0.03451 0.0
H541 H 0.25085 0.71098 0.03825 0.0
H542 H 0.18142 0.68275 0.96143 0.0
H543 H 0.18639 0.72148 0.95713 0.0
H544 H 0.18464 0.65937 0.07896 0.0
H545 H 0.22147 0.68586 0.8522 0.0
H546 H 0.25174 0.71274 0.77044 0.0
H547 H 0.3022 0.70417 0.88511 0.0
H548 H 0.27226 0.67746 0.96823 0.0
H549 H 0.1591 0.54573 0.01036 0.0
H550 H 0.16604 0.58491 0.9964 0.0
H551 H 0.23727 0.61212 0.05262 0.0
H552 H 0.23044 0.57282 0.06626 0.0
H553 H 0.23382 0.63647 0.94606 0.0
H554 H 0.19838 0.6109 0.17318 0.0
H555 H 0.16909 0.58474 0.25868 0.0
H556 H 0.11737 0.59257 0.14907 0.0
H557 H 0.1463 0.61853 0.06224 0.0
C558 C 0.23962 0.73532 0.01802 0.0
C559 C 0.22158 0.73875 0.99541 0.0
C560 C 0.23677 0.71317 0.01998 0.0
C561 C 0.21579 0.69397 0.99979 0.0
C562 C 0.19776 0.69732 0.97718 0.0
C563 C 0.20067 0.71949 0.97449 0.0
C564 C 0.21242 0.67032 1.00417 0.0
C565 C 0.19517 0.65425 0.0491 0.0
C566 C 0.22665 0.66387 0.96698 0.0
C567 C 0.24466 0.67984 0.91688 0.0
C568 C 0.23905 0.68985 0.86036 0.0
C569 C 0.25614 0.70503 0.81369 0.0
C570 C 0.27889 0.71021 0.82269 0.0
C571 C 0.28457 0.70016 0.87827 0.0
C572 C 0.26755 0.68499 0.92514 0.0
C573 C 0.17624 0.56004 0.02005 0.0
C574 C 0.19416 0.55611 0.04021 0.0
C575 C 0.18019 0.58246 0.01198 0.0
C576 C 0.20209 0.60154 0.02469 0.0
C577 C 0.22021 0.5977 0.04269 0.0
C578 C 0.21629 0.57522 0.05038 0.0
C579 C 0.20588 0.6254 0.02052 0.0
C580 C 0.22326 0.64155 0.97586 0.0
C581 C 0.19191 0.63203 0.05855 0.0
C582 C 0.17447 0.61648 0.1108 0.0
C583 C 0.18073 0.6069 0.16698 0.0
C584 C 0.16419 0.59213 0.21574 0.0
C585 C 0.14137 0.58695 0.20921 0.0
C586 C 0.13505 0.59657 0.154 0.0
C587 C 0.15151 0.61133 0.10503 0.0
H588 H 0.1286 0.57551 0.24702 0.0
H589 H 0.29209 0.72196 0.7865 0.0
H590 H 0.47243 0.19747 0.91856 0.0
H591 H 0.50723 0.19444 0.91668 0.0
H592 H 0.53638 0.24491 0.08413 0.0
H593 H 0.50202 0.24857 0.08464 0.0
H594 H 0.56857 0.25272 0.99257 0.0
H595 H 0.51105 0.18537 0.11472 0.0
H596 H 0.47349 0.14997 0.12996 0.0
H597 H 0.48703 0.11986 0.9485 0.0
H598 H 0.52457 0.15522 0.93164 0.0
H599 H 0.65021 0.224 0.13085 0.0
H600 H 0.61773 0.23044 0.11251 0.0
H601 H 0.5978 0.18732 0.92629 0.0
H602 H 0.63023 0.18082 0.94441 0.0
H603 H 0.5615 0.17584 0.02 0.0
H604 H 0.62056 0.24329 0.90368 0.0
H605 H 0.65852 0.27849 0.89366 0.0
H606 H 0.64253 0.30806 0.07139 0.0
H607 H 0.60449 0.27295 0.08274 0.0
C608 C 0.48627 0.20797 0.95484 0.0
C609 C 0.48436 0.22315 1.00207 0.0
C610 C 0.50616 0.20617 0.9539 0.0
C611 C 0.52436 0.21916 1.00112 0.0
C612 C 0.52264 0.23469 0.04719 0.0
C613 C 0.5029 0.2367 0.04757 0.0
C614 C 0.54496 0.21627 1.00389 0.0
C615 C 0.56698 0.23591 0.99925 0.0
C616 C 0.54302 0.19433 0.0113 0.0
C617 C 0.5205 0.17303 0.02147 0.0
C618 C 0.50594 0.17126 0.07777 0.0
C619 C 0.48467 0.1512 0.08674 0.0
C620 C 0.47785 0.13271 0.0401 0.0
C621 C 0.49232 0.13422 0.98451 0.0
C622 C 0.5136 0.15426 0.97524 0.0
C623 C 0.63893 0.21597 0.08589 0.0
C624 C 0.64271 0.20186 0.03916 0.0
C625 C 0.62049 0.21978 0.0752 0.0
C626 C 0.60538 0.2094 0.0179 0.0
C627 C 0.60926 0.19551 0.97076 0.0
C628 C 0.62786 0.19193 0.98093 0.0
C629 C 0.58496 0.21225 1.00907 0.0
C630 C 0.56301 0.1926 0.01277 0.0
C631 C 0.58698 0.23417 1.00152 0.0
C632 C 0.60974 0.25542 0.99438 0.0
C633 C 0.62518 0.25725 0.94087 0.0
C634 C 0.64669 0.27721 0.93483 0.0
C635 C 0.65295 0.29548 0.98195 0.0
C636 C 0.63766 0.29388 0.03495 0.0
C637 C 0.61609 0.27398 0.04108 0.0
H638 H 0.66966 0.31087 0.97738 0.0
H639 H 0.46137 0.11719 0.04714 0.0
H640 H 0.4201 0.65531 0.09826 0.0
H641 H 0.38231 0.62095 0.08246 0.0
H642 H 0.41237 0.59147 0.94579 0.0
H643 H 0.45016 0.62596 0.9607 0.0
H644 H 0.37144 0.58273 0.8952 0.0
H645 H 0.40073 0.57554 0.12071 0.0
H646 H 0.41715 0.58815 0.24037 0.0
H647 H 0.35775 0.59197 0.30383 0.0
H648 H 0.34111 0.57969 0.1842 0.0
H649 H 0.2772 0.46606 0.93046 0.0
H650 H 0.31512 0.50115 0.92838 0.0
H651 H 0.28923 0.53547 0.06124 0.0
H652 H 0.25161 0.50073 0.06412 0.0
H653 H 0.32889 0.54082 0.11154 0.0
H654 H 0.29963 0.54844 0.88693 0.0
H655 H 0.28358 0.53739 0.76629 0.0
H656 H 0.34251 0.53302 0.70092 0.0
H657 H 0.35878 0.54373 0.82153 0.0
C658 C 0.41863 0.64152 0.06473 0.0
C659 C 0.43812 0.64326 0.03114 0.0
C660 C 0.39704 0.6219 0.05573 0.0
C661 C 0.39457 0.60344 0.01394 0.0
C662 C 0.41386 0.60547 0.97836 0.0
C663 C 0.43544 0.62519 0.98685 0.0
C664 C 0.37204 0.58175 1.00944 0.0
C665 C 0.36226 0.57336 0.94242 0.0
C666 C 0.35989 0.56973 0.07111 0.0
C667 C 0.36976 0.57688 0.14331 0.0
C668 C 0.39123 0.57921 0.16005 0.0
C669 C 0.40057 0.58628 0.22789 0.0
C670 C 0.38852 0.5909 0.27962 0.0
C671 C 0.36707 0.5884 0.26368 0.0
C672 C 0.35767 0.58137 0.1959 0.0
C673 C 0.27958 0.48113 0.9589 0.0
C674 C 0.26138 0.48053 0.99769 0.0
C675 C 0.30122 0.50119 0.95737 0.0
C676 C 0.30498 0.52095 0.99455 0.0
C677 C 0.28674 0.52043 0.03236 0.0
C678 C 0.26519 0.5005 0.03378 0.0
C679 C 0.3281 0.54191 0.99734 0.0
C680 C 0.33807 0.55011 0.06421 0.0
C681 C 0.34035 0.5537 0.93554 0.0
C682 C 0.33032 0.54666 0.8635 0.0
C683 C 0.30905 0.54487 0.84708 0.0
C684 C 0.29996 0.53876 0.77862 0.0
C685 C 0.31205 0.53458 0.72595 0.0
C686 C 0.3332 0.53634 0.74174 0.0
C687 C 0.34236 0.54242 0.81014 0.0
H688 H 0.30501 0.52992 0.67293 0.0
H689 H 0.39579 0.59638 0.3321 0.0
H690 H 0.80908 0.43522 0.1333 0.0
H691 H 0.80336 0.39712 0.10862 0.0
H692 H 0.76144 0.39091 0.92733 0.0
H693 H 0.7664 0.42893 0.95308 0.0
H694 H 0.74396 0.35021 1.00085 0.0
H695 H 0.81542 0.40494 0.89896 0.0
H696 H 0.85368 0.43995 0.8949 0.0
H697 H 0.87724 0.41297 0.06107 0.0
H698 H 0.83899 0.37794 0.0669 0.0
H699 H 0.80012 0.2739 0.90632 0.0
H700 H 0.79937 0.30996 0.89512 0.0
H701 H 0.75657 0.29227 0.082 0.0
H702 H 0.75654 0.25609 0.09177 0.0
H703 H 0.81493 0.34524 0.97627 0.0
H704 H 0.72182 0.31434 0.07992 0.0
H705 H 0.68367 0.27914 0.07555 0.0
H706 H 0.70275 0.25805 0.88444 0.0
H707 H 0.74086 0.29328 0.88687 0.0
C708 C 0.79819 0.42564 0.08908 0.0
C709 C 0.78818 0.43522 0.04528 0.0
C710 C 0.79516 0.40391 0.07457 0.0
C711 C 0.78229 0.39136 0.0155 0.0
C712 C 0.77155 0.4004 0.97297 0.0
C713 C 0.77455 0.4222 0.98753 0.0
C714 C 0.78097 0.36924 0.99732 0.0
C715 C 0.75941 0.34904 0.995 0.0
C716 C 0.80115 0.3679 0.9873 0.0
C717 C 0.82428 0.38886 0.98362 0.0
C718 C 0.82871 0.40653 0.93495 0.0
C719 C 0.8504 0.42638 0.9323 0.0
C720 C 0.86787 0.42869 0.97777 0.0
C721 C 0.86369 0.41115 0.02589 0.0
C722 C 0.84201 0.39128 0.02882 0.0
C723 C 0.79049 0.27773 0.94475 0.0
C724 C 0.77835 0.26219 0.99979 0.0
C725 C 0.79002 0.29827 0.93822 0.0
C726 C 0.77754 0.30365 0.98693 0.0
C727 C 0.76574 0.28824 0.04249 0.0
C728 C 0.76592 0.26763 0.04839 0.0
C729 C 0.77793 0.32594 0.98284 0.0
C730 C 0.79938 0.34627 0.98092 0.0
C731 C 0.75758 0.32734 0.98718 0.0
C732 C 0.73433 0.30644 0.98393 0.0
C733 C 0.71784 0.3023 0.03664 0.0
C734 C 0.69624 0.28229 0.03463 0.0
C735 C 0.69085 0.26632 0.97997 0.0
C736 C 0.70699 0.2704 0.92693 0.0
C737 C 0.7286 0.29038 0.92863 0.0
H738 H 0.67412 0.25086 0.97848 0.0
H739 H 0.88465 0.44407 0.97565 0.0
H740 H 0.38316 0.83905 0.95937 0.0
H741 H 0.41912 0.83835 0.94938 0.0
H742 H 0.39926 0.79225 0.129 0.0
H743 H 0.36354 0.79336 0.14008 0.0
H744 H 0.44217 0.82436 0.14215 0.0
H745 H 0.39652 0.77392 0.9532 0.0
H746 H 0.37286 0.76294 0.84465 0.0
H747 H 0.42919 0.81688 0.72879 0.0
H748 H 0.4531 0.82838 0.83697 0.0
H749 H 0.50951 0.77194 0.10086 0.0
H750 H 0.47852 0.78079 0.10358 0.0
H751 H 0.51448 0.83496 0.94993 0.0
H752 H 0.54595 0.82625 0.94706 0.0
H753 H 0.46678 0.80382 0.91876 0.0
H754 H 0.51346 0.85091 0.11014 0.0
H755 H 0.53637 0.85922 0.21966 0.0
H756 H 0.47679 0.80852 0.33232 0.0
H757 H 0.45359 0.79965 0.22318 0.0
C758 C 0.3864 0.82859 0.99623 0.0
C759 C 0.37055 0.81619 0.05037 0.0
C760 C 0.40694 0.8282 0.99049 0.0
C761 C 0.41182 0.81506 0.038 0.0
C762 C 0.39592 0.80258 0.09188 0.0
C763 C 0.37552 0.80319 0.09814 0.0
C764 C 0.43361 0.81454 0.03258 0.0
C765 C 0.44741 0.81968 0.0934 0.0
C766 C 0.44085 0.80908 0.96846 0.0
C767 C 0.4265 0.80219 0.90338 0.0
C768 C 0.4038 0.78356 0.90472 0.0
C769 C 0.39035 0.77722 0.84324 0.0
C770 C 0.39949 0.78925 0.77992 0.0
C771 C 0.42212 0.80761 0.77791 0.0
C772 C 0.43563 0.81404 0.83928 0.0
C773 C 0.51095 0.78581 0.06773 0.0
C774 C 0.53018 0.79839 0.02363 0.0
C775 C 0.49325 0.7909 0.06963 0.0
C776 C 0.49431 0.8086 0.02731 0.0
C777 C 0.51344 0.82127 0.98312 0.0
C778 C 0.5314 0.81635 0.98179 0.0
C779 C 0.47493 0.81318 0.02858 0.0
C780 C 0.46162 0.80881 0.9671 0.0
C781 C 0.46797 0.81905 0.09228 0.0
C782 C 0.48182 0.82451 0.15828 0.0
C783 C 0.50528 0.84141 0.15813 0.0
C784 C 0.51831 0.84624 0.22017 0.0
C785 C 0.50805 0.83438 0.28288 0.0
C786 C 0.48472 0.8177 0.2837 0.0
C787 C 0.47161 0.81278 0.22178 0.0
H788 H 0.51818 0.83813 0.33085 0.0
H789 H 0.38906 0.78431 0.73236 0.0
H790 H 0.74176 0.51297 0.12406 0.0
H791 H 0.7027 0.48016 0.1273 0.0
H792 H 0.6854 0.50613 0.94171 0.0
H793 H 0.72442 0.53975 0.94033 0.0
H794 H 0.65034 0.48804 0.03081 0.0
H795 H 0.70016 0.46261 0.93315 0.0
H796 H 0.73455 0.45828 0.93378 0.0
H797 H 0.71127 0.41861 0.12585 0.0
H798 H 0.67694 0.42299 0.12704 0.0
H799 H 0.54929 0.382 0.95469 0.0
H800 H 0.58763 0.41605 0.94586 0.0
H801 H 0.60884 0.39421 0.13249 0.0
H802 H 0.5706 0.35996 0.14093 0.0
H803 H 0.64193 0.4102 0.03645 0.0
H804 H 0.59365 0.43677 0.13835 0.0
H805 H 0.56002 0.44227 0.14355 0.0
H806 H 0.58063 0.48002 0.94747 0.0
H807 H 0.61423 0.47447 0.94062 0.0
C808 C 0.72958 0.51179 0.08423 0.0
C809 C 0.73616 0.52875 0.03142 0.0
C810 C 0.70728 0.49295 0.0859 0.0
C811 C 0.69127 0.49026 0.03345 0.0
C812 C 0.69751 0.50771 0.98236 0.0
C813 C 0.71977 0.5269 0.98158 0.0
C814 C 0.6683 0.46897 0.03121 0.0
C815 C 0.64851 0.47102 0.03087 0.0
C816 C 0.66586 0.4467 0.03273 0.0
C817 C 0.68604 0.44327 0.03042 0.0
C818 C 0.7024 0.453 0.97559 0.0
C819 C 0.72189 0.45056 0.97567 0.0
C820 C 0.7251 0.43824 0.02994 0.0
C821 C 0.70876 0.42817 0.08392 0.0
C822 C 0.68927 0.4306 0.08419 0.0
C823 C 0.56213 0.38448 0.99387 0.0
C824 C 0.55688 0.36837 0.04879 0.0
C825 C 0.58403 0.40396 0.98882 0.0
C826 C 0.60104 0.40793 0.03923 0.0
C827 C 0.59601 0.39155 0.09301 0.0
C828 C 0.57416 0.37195 0.09772 0.0
C829 C 0.62397 0.42927 0.03662 0.0
C830 C 0.64376 0.42721 0.0359 0.0
C831 C 0.62641 0.45152 0.03431 0.0
C832 C 0.60632 0.45501 0.03862 0.0
C833 C 0.59092 0.44611 0.0961 0.0
C834 C 0.57188 0.44925 0.09938 0.0
C835 C 0.56816 0.46144 0.04578 0.0
C836 C 0.58351 0.47056 0.9889 0.0
C837 C 0.60257 0.46744 0.98531 0.0
H838 H 0.5534 0.46385 0.04841 0.0
H839 H 0.74025 0.43648 0.03023 0.0
H840 H 0.2139 0.41471 0.82565 0.0
H841 H 0.21694 0.41126 0.69711 0.0
H842 H 0.16226 0.42635 0.66394 0.0
H843 H 0.15849 0.4287 0.79245 0.0
H844 H 0.15722 0.39431 0.57526 0.0
H845 H 0.22255 0.46794 0.64534 0.0
H846 H 0.25712 0.49163 0.71788 0.0
H847 H 0.28901 0.45494 0.63387 0.0
H848 H 0.25452 0.43082 0.56162 0.0
H849 H 0.17561 0.42199 0.20877 0.0
H850 H 0.17204 0.42383 0.33775 0.0
H851 H 0.22861 0.41137 0.36723 0.0
H852 H 0.23285 0.4106 0.2385 0.0
H853 H 0.23291 0.4416 0.45821 0.0
H854 H 0.1698 0.36834 0.38946 0.0
H855 H 0.1352 0.34176 0.32129 0.0
H856 H 0.09945 0.37475 0.4044 0.0
H857 H 0.13397 0.40175 0.47232 0.0
C858 C 0.20248 0.41718 0.79081 0.0
C859 C 0.18612 0.4222 0.81892 0.0
C860 C 0.2043 0.41534 0.71727 0.0
C861 C 0.19021 0.4191 0.67027 0.0
C862 C 0.17343 0.4235 0.69872 0.0
C863 C 0.17134 0.42492 0.77224 0.0
C864 C 0.19309 0.41886 0.59161 0.0
C865 C 0.17373 0.4049 0.54965 0.0
C866 C 0.21473 0.43213 0.55788 0.0
C867 C 0.23589 0.44746 0.59854 0.0
C868 C 0.23694 0.46493 0.64238 0.0
C869 C 0.2565 0.47841 0.68352 0.0
C870 C 0.27519 0.47471 0.68072 0.0
C871 C 0.27449 0.45773 0.63611 0.0
C872 C 0.25496 0.44418 0.595 0.0
C873 C 0.18734 0.41978 0.24288 0.0
C874 C 0.20445 0.41607 0.21359 0.0
C875 C 0.1852 0.42066 0.31669 0.0
C876 C 0.19977 0.4173 0.36279 0.0
C877 C 0.2171 0.41397 0.33323 0.0
C878 C 0.21947 0.41345 0.25952 0.0
C879 C 0.19699 0.41716 0.44164 0.0
C880 C 0.21637 0.43105 0.48367 0.0
C881 C 0.17542 0.4036 0.47551 0.0
C882 C 0.15455 0.38721 0.43543 0.0
C883 C 0.15461 0.37001 0.39286 0.0
C884 C 0.13501 0.35487 0.35429 0.0
C885 C 0.11516 0.35661 0.35835 0.0
C886 C 0.11485 0.37345 0.40122 0.0
C887 C 0.13442 0.38866 0.43981 0.0
H888 H 0.10002 0.34488 0.3284 0.0
H889 H 0.29022 0.48494 0.71315 0.0
H890 H 0.79602 0.22015 0.82751 0.0
H891 H 0.80176 0.22352 0.69867 0.0
H892 H 0.73736 0.16028 0.6699 0.0
H893 H 0.73191 0.15656 0.79884 0.0
H894 H 0.76823 0.16135 0.5812 0.0
H895 H 0.74296 0.21457 0.64442 0.0
H896 H 0.74444 0.24681 0.71178 0.0
H897 H 0.81214 0.29245 0.63053 0.0
H898 H 0.81119 0.26039 0.56347 0.0
H899 H 0.75513 0.17489 0.21281 0.0
H900 H 0.74939 0.1711 0.34168 0.0
H901 H 0.81391 0.2341 0.37171 0.0
H902 H 0.81938 0.23822 0.24286 0.0
H903 H 0.78281 0.23311 0.45977 0.0
H904 H 0.80812 0.17991 0.39689 0.0
H905 H 0.80684 0.14758 0.33061 0.0
H906 H 0.73911 0.10192 0.41162 0.0
H907 H 0.73986 0.13406 0.47763 0.0
C908 C 0.78314 0.20694 0.79365 0.0
C909 C 0.7634 0.18822 0.82315 0.0
C910 C 0.78637 0.20893 0.71994 0.0
C911 C 0.76977 0.1924 0.67411 0.0
C912 C 0.75036 0.17334 0.70384 0.0
C913 C 0.74722 0.17126 0.77758 0.0
C914 C 0.77244 0.19512 0.59533 0.0
C915 C 0.77112 0.17694 0.55464 0.0
C916 C 0.77667 0.21562 0.56036 0.0
C917 C 0.77708 0.23503 0.59941 0.0
C918 C 0.7582 0.23145 0.6412 0.0
C919 C 0.75895 0.24969 0.67932 0.0
C920 C 0.77839 0.27165 0.67559 0.0
C921 C 0.7971 0.27543 0.63345 0.0
C922 C 0.79646 0.25723 0.59531 0.0
C923 C 0.76803 0.18796 0.24695 0.0
C924 C 0.78778 0.20678 0.21779 0.0
C925 C 0.76481 0.18573 0.32068 0.0
C926 C 0.78139 0.20212 0.36686 0.0
C927 C 0.80088 0.22118 0.3375 0.0
C928 C 0.80403 0.22348 0.26379 0.0
C929 C 0.7786 0.19934 0.44561 0.0
C930 C 0.7799 0.21752 0.48631 0.0
C931 C 0.77433 0.17884 0.48058 0.0
C932 C 0.77396 0.15944 0.44165 0.0
C933 C 0.79289 0.163 0.40021 0.0
C934 C 0.79227 0.14471 0.36273 0.0
C935 C 0.77288 0.12272 0.36674 0.0
C936 C 0.7541 0.11897 0.40847 0.0
C937 C 0.75463 0.13721 0.44598 0.0
H938 H 0.77242 0.10859 0.33763 0.0
H939 H 0.77895 0.28574 0.70525 0.0
H940 H 0.57739 0.79907 0.82488 0.0
H941 H 0.58035 0.80489 0.69598 0.0
H942 H 0.57151 0.7371 0.6672 0.0
H943 H 0.5692 0.73152 0.79601 0.0
H944 H 0.60406 0.76663 0.58131 0.0
H945 H 0.52711 0.74874 0.63885 0.0
H946 H 0.49764 0.75355 0.70212 0.0
H947 H 0.52654 0.82226 0.61979 0.0
H948 H 0.55639 0.81798 0.55679 0.0
H949 H 0.57933 0.75478 0.21224 0.0
H950 H 0.57584 0.74928 0.34127 0.0
H951 H 0.58588 0.81763 0.36724 0.0
H952 H 0.58901 0.82303 0.23827 0.0
H953 H 0.55287 0.78821 0.45449 0.0
H954 H 0.62975 0.80623 0.3973 0.0
H955 H 0.65938 0.80166 0.33418 0.0
H956 H 0.63075 0.73292 0.41613 0.0
H957 H 0.60073 0.73697 0.47899 0.0
C958 C 0.57627 0.78551 0.79103 0.0
C959 C 0.57306 0.76484 0.82049 0.0
C960 C 0.57776 0.78876 0.71727 0.0
C961 C 0.57582 0.7713 0.67148 0.0
C962 C 0.57301 0.75081 0.70115 0.0
C963 C 0.57161 0.74761 0.77482 0.0
C964 C 0.57668 0.77428 0.59275 0.0
C965 C 0.59264 0.77105 0.55358 0.0
C966 C 0.56217 0.78058 0.55633 0.0
C967 C 0.54412 0.78312 0.59367 0.0
C968 C 0.52728 0.76494 0.63464 0.0
C969 C 0.51049 0.76756 0.6704 0.0
C970 C 0.51025 0.78822 0.66514 0.0
C971 C 0.52676 0.80628 0.6239 0.0
C972 C 0.54361 0.80376 0.58811 0.0
C973 C 0.58071 0.76859 0.24552 0.0
C974 C 0.58465 0.78942 0.21527 0.0
C975 C 0.57881 0.76547 0.3193 0.0
C976 C 0.58097 0.78318 0.36433 0.0
C977 C 0.58423 0.80374 0.33384 0.0
C978 C 0.58609 0.80684 0.2601 0.0
C979 C 0.58018 0.78046 0.44312 0.0
C980 C 0.56426 0.78377 0.48227 0.0
C981 C 0.59473 0.77425 0.47958 0.0
C982 C 0.61286 0.77183 0.44227 0.0
C983 C 0.62967 0.79008 0.40145 0.0
C984 C 0.64655 0.78759 0.36578 0.0
C985 C 0.64691 0.76699 0.37099 0.0
C986 C 0.63043 0.74886 0.41206 0.0
C987 C 0.61349 0.75125 0.44777 0.0
H988 H 0.65999 0.76509 0.34332 0.0
H989 H 0.49725 0.79022 0.69289 0.0
H990 H 0.84224 0.57022 0.7991 0.0
H991 H 0.8394 0.57314 0.67042 0.0
H992 H 0.77756 0.57679 0.69798 0.0
H993 H 0.78014 0.57343 0.82704 0.0
H994 H 0.77274 0.54842 0.58983 0.0
H995 H 0.82899 0.62492 0.65929 0.0
H996 H 0.86427 0.65456 0.71809 0.0
H997 H 0.90504 0.63596 0.58846 0.0
H998 H 0.86994 0.60595 0.52963 0.0
H999 H 0.76976 0.58768 0.24053 0.0
H1000 H 0.77186 0.58417 0.36934 0.0
H1001 H 0.83329 0.57962 0.34416 0.0
H1002 H 0.83135 0.58336 0.21506 0.0
H1003 H 0.83811 0.6086 0.45118 0.0
H1004 H 0.78164 0.53206 0.38154 0.0
H1005 H 0.74628 0.50269 0.32241 0.0
H1006 H 0.70582 0.52163 0.45217 0.0
H1007 H 0.74099 0.5514 0.5113 0.0
C1008 C 0.82805 0.57168 0.77775 0.0
C1009 C 0.81151 0.57177 0.82323 0.0
C1010 C 0.82648 0.57344 0.70411 0.0
C1011 C 0.80841 0.57548 0.67418 0.0
C1012 C 0.7917 0.57531 0.7196 0.0
C1013 C 0.79327 0.57354 0.7934 0.0
C1014 C 0.80699 0.57772 0.59563 0.0
C1015 C 0.78692 0.56179 0.5597 0.0
C1016 C 0.82565 0.59484 0.55573 0.0
C1017 C 0.84681 0.61303 0.59051 0.0
C1018 C 0.84546 0.62704 0.64367 0.0
C1019 C 0.86543 0.64392 0.67697 0.0
C1020 C 0.88688 0.6471 0.65715 0.0
C1021 C 0.88841 0.63346 0.60383 0.0
C1022 C 0.86848 0.61651 0.57045 0.0
C1023 C 0.78368 0.58586 0.26244 0.0
C1024 C 0.8004 0.5858 0.2177 0.0
C1025 C 0.78483 0.58378 0.33613 0.0
C1026 C 0.80264 0.58144 0.36675 0.0
C1027 C 0.81939 0.58142 0.32199 0.0
C1028 C 0.81823 0.58347 0.24819 0.0
C1029 C 0.8039 0.57927 0.44537 0.0
C1030 C 0.82393 0.59523 0.48131 0.0
C1031 C 0.7852 0.5622 0.48525 0.0
C1032 C 0.76398 0.54412 0.4504 0.0
C1033 C 0.76522 0.53008 0.39713 0.0
C1034 C 0.74521 0.51334 0.36364 0.0
C1035 C 0.72382 0.51033 0.3834 0.0
C1036 C 0.7224 0.524 0.43685 0.0
C1037 C 0.74237 0.5408 0.47041 0.0
H1038 H 0.70835 0.49737 0.35739 0.0
H1039 H 0.90231 0.66018 0.683 0.0
H1040 H 0.24783 0.83099 0.1945 0.0
H1041 H 0.25352 0.83424 0.3235 0.0
H1042 H 0.19046 0.7696 0.35161 0.0
H1043 H 0.18451 0.76659 0.22295 0.0
H1044 H 0.19242 0.79918 0.44674 0.0
H1045 H 0.24447 0.77469 0.36699 0.0
H1046 H 0.27607 0.77621 0.29605 0.0
H1047 H 0.32311 0.84252 0.38386 0.0
H1048 H 0.29171 0.84157 0.45452 0.0
H1049 H 0.21022 0.78041 0.80836 0.0
H1050 H 0.2045 0.77712 0.67943 0.0
H1051 H 0.26685 0.8424 0.65133 0.0
H1052 H 0.27285 0.84545 0.78004 0.0
H1053 H 0.26516 0.81238 0.55641 0.0
H1054 H 0.21234 0.83636 0.63659 0.0
H1055 H 0.18064 0.83358 0.71004 0.0
H1056 H 0.13474 0.76687 0.62249 0.0
H1057 H 0.16626 0.76912 0.54921 0.0
C1058 C 0.23521 0.81748 0.22827 0.0
C1059 C 0.21572 0.79854 0.19861 0.0
C1060 C 0.23851 0.81929 0.30207 0.0
C1061 C 0.22254 0.80205 0.34775 0.0
C1062 C 0.20303 0.78316 0.31789 0.0
C1063 C 0.19969 0.78141 0.24422 0.0
C1064 C 0.22601 0.80369 0.42649 0.0
C1065 C 0.20824 0.80179 0.47063 0.0
C1066 C 0.24677 0.8075 0.45819 0.0
C1067 C 0.26568 0.80815 0.41559 0.0
C1068 C 0.26151 0.78969 0.37074 0.0
C1069 C 0.27939 0.79043 0.33064 0.0
C1070 C 0.30157 0.80945 0.33543 0.0
C1071 C 0.30592 0.8278 0.38021 0.0
C1072 C 0.28809 0.82716 0.42032 0.0
C1073 C 0.22268 0.79405 0.77462 0.0
C1074 C 0.24199 0.81319 0.80429 0.0
C1075 C 0.21936 0.79222 0.70086 0.0
C1076 C 0.23512 0.80963 0.65524 0.0
C1077 C 0.25444 0.82871 0.68507 0.0
C1078 C 0.25782 0.8305 0.75874 0.0
C1079 C 0.23161 0.80795 0.57653 0.0
C1080 C 0.24936 0.80982 0.53244 0.0
C1081 C 0.2108 0.80401 0.54491 0.0
C1082 C 0.19171 0.80283 0.58785 0.0
C1083 C 0.19552 0.82105 0.63327 0.0
C1084 C 0.17758 0.81957 0.67486 0.0
C1085 C 0.1557 0.80004 0.67105 0.0
C1086 C 0.1517 0.78198 0.62543 0.0
C1087 C 0.16958 0.78336 0.5838 0.0
H1088 H 0.14184 0.79893 0.70331 0.0
H1089 H 0.31542 0.80994 0.30465 0.0
H1090 H 0.42295 0.20582 0.82311 0.0
H1091 H 0.42029 0.19986 0.69431 0.0
H1092 H 0.4283 0.26728 0.66368 0.0
H1093 H 0.43008 0.27287 0.79236 0.0
H1094 H 0.39762 0.23905 0.57533 0.0
H1095 H 0.47353 0.25527 0.6387 0.0
H1096 H 0.50205 0.24978 0.70528 0.0
H1097 H 0.47254 0.18088 0.62441 0.0
H1098 H 0.44363 0.18585 0.5581 0.0
H1099 H 0.42378 0.24923 0.20667 0.0
H1100 H 0.42635 0.25519 0.33541 0.0
H1101 H 0.41734 0.18738 0.36644 0.0
H1102 H 0.41578 0.18183 0.23776 0.0
H1103 H 0.44851 0.21588 0.45451 0.0
H1104 H 0.37242 0.20073 0.38957 0.0
H1105 H 0.34533 0.2079 0.32086 0.0
H1106 H 0.37672 0.27669 0.40369 0.0
H1107 H 0.40417 0.27004 0.47217 0.0
C1108 C 0.42406 0.21931 0.78879 0.0
C1109 C 0.42689 0.23987 0.81772 0.0
C1110 C 0.42267 0.21596 0.71509 0.0
C1111 C 0.42453 0.23329 0.66871 0.0
C1112 C 0.42687 0.25364 0.69794 0.0
C1113 C 0.42798 0.25687 0.77159 0.0
C1114 C 0.42422 0.2304 0.5899 0.0
C1115 C 0.40895 0.23422 0.54897 0.0
C1116 C 0.43871 0.22377 0.555 0.0
C1117 C 0.45629 0.22086 0.59398 0.0
C1118 C 0.47305 0.2389 0.63544 0.0
C1119 C 0.48928 0.23589 0.6731 0.0
C1120 C 0.48907 0.21498 0.66923 0.0
C1121 C 0.47266 0.19706 0.62745 0.0
C1122 C 0.45636 0.19997 0.58976 0.0
C1123 C 0.42247 0.23567 0.24103 0.0
C1124 C 0.41947 0.21503 0.21218 0.0
C1125 C 0.42377 0.239 0.31473 0.0
C1126 C 0.42159 0.22156 0.3612 0.0
C1127 C 0.419 0.2011 0.33208 0.0
C1128 C 0.41802 0.1979 0.25844 0.0
C1129 C 0.42187 0.22447 0.43999 0.0
C1130 C 0.43715 0.22065 0.48092 0.0
C1131 C 0.40749 0.23125 0.47482 0.0
C1132 C 0.39047 0.23495 0.43551 0.0
C1133 C 0.37358 0.2174 0.39296 0.0
C1134 C 0.35817 0.22137 0.35404 0.0
C1135 C 0.35938 0.24276 0.35773 0.0
C1136 C 0.37584 0.26015 0.40081 0.0
C1137 C 0.3913 0.25628 0.43975 0.0
H1138 H 0.34759 0.2459 0.32719 0.0
H1139 H 0.50164 0.21267 0.6985 0.0
loop_
_geom_bond_atom_site_label_1
_geom_bond_atom_site_label_2
_geom_bond_distance
_geom_bond_site_symmetry_2
_ccdc_geom_bond_type
Tb0 C2 2.809 1_556 S
Tb0 O20 2.484 1_556 S
Tb0 O21 2.440 . S
Tb0 O22 2.658 . S
Tb0 O23 2.409 . S
Tb0 O24 2.378 . S
Tb0 O28 2.325 1_556 S
Tb0 O31 2.341 . S
Tb1 C11 2.809 1_554 S
Tb1 O22 2.325 1_554 S
Tb1 O25 2.341 . S
Tb1 O26 2.484 1_554 S
Tb1 O27 2.440 . S
Tb1 O28 2.658 . S
Tb1 O29 2.409 . S
Tb1 O30 2.378 . S
C2 Tb0 2.809 1_554 S
C2 C3 1.514 . S
C2 O20 1.248 . S
C2 O21 1.266 1_554 S
C3 C2 1.514 . S
C3 C4 1.359 . S
C3 C8 1.348 1_554 S
C4 C3 1.359 . S
C4 C5 1.380 . S
C4 H32 0.929 . S
C5 C4 1.380 . S
C5 C6 1.347 . S
C5 H33 0.931 . S
C6 C5 1.347 . S
C6 C7 1.369 1_554 S
C7 C6 1.369 1_556 S
C7 C8 1.408 . S
C7 H34 0.930 . S
C8 C3 1.348 1_556 S
C8 C7 1.408 . S
C8 H35 0.930 . S
C9 O22 1.281 . S
C9 O23 1.254 . S
C10 O24 1.236 . S
C10 O25 1.266 1_556 S
C11 Tb1 2.809 1_556 S
C11 C12 1.514 . S
C11 O26 1.248 . S
C11 O27 1.266 1_556 S
C12 C11 1.514 . S
C12 C13 1.359 . S
C12 C17 1.348 1_556 S
C13 C12 1.359 . S
C13 C14 1.380 . S
C13 H36 0.929 . S
C14 C13 1.380 . S
C14 C15 1.347 . S
C14 H37 0.931 . S
C15 C14 1.347 . S
C15 C16 1.369 1_556 S
C16 C15 1.369 1_554 S
C16 C17 1.408 . S
C16 H38 0.930 . S
C17 C12 1.348 1_554 S
C17 C16 1.408 . S
C17 H39 0.930 . S
C18 O28 1.281 . S
C18 O29 1.254 . S
C19 O30 1.236 . S
C19 O31 1.266 1_554 S
O20 Tb0 2.484 1_554 S
O20 C2 1.248 . S
O21 Tb0 2.440 . S
O21 C2 1.266 1_556 S
O22 Tb0 2.658 . S
O22 Tb1 2.325 1_556 S
O22 C9 1.281 . S
O23 Tb0 2.409 . S
O23 C9 1.254 . S
O24 Tb0 2.378 . S
O24 C10 1.236 . S
O25 Tb1 2.341 . S
O25 C10 1.266 1_554 S
O26 Tb1 2.484 1_556 S
O26 C11 1.248 . S
O27 Tb1 2.440 . S
O27 C11 1.266 1_554 S
O28 Tb0 2.325 1_554 S
O28 Tb1 2.658 . S
O28 C18 1.281 . S
O29 Tb1 2.409 . S
O29 C18 1.254 . S
O30 Tb1 2.378 . S
O30 C19 1.236 . S
O31 Tb0 2.341 . S
O31 C19 1.266 1_556 S
H32 C4 0.929 . S
H33 C5 0.931 . S
H34 C7 0.930 . S
H35 C8 0.930 . S
H36 C13 0.929 . S
H37 C14 0.931 . S
H38 C16 0.930 . S
H39 C17 0.930 . S
Tb40 C42 2.809 1_556 S
Tb40 O60 2.484 1_556 S
Tb40 O61 2.440 . S
Tb40 O62 2.658 . S
Tb40 O63 2.409 . S
Tb40 O64 2.378 . S
Tb40 O68 2.325 1_556 S
Tb40 O71 2.341 . S
Tb41 C51 2.809 1_554 S
Tb41 O62 2.325 1_554 S
Tb41 O65 2.341 . S
Tb41 O66 2.484 1_554 S
Tb41 O67 2.440 . S
Tb41 O68 2.658 . S
Tb41 O69 2.409 . S
Tb41 O70 2.378 . S
C42 Tb40 2.809 1_554 S
C42 C43 1.514 . S
C42 O60 1.248 . S
C42 O61 1.266 1_554 S
C43 C42 1.514 . S
C43 C44 1.359 . S
C43 C48 1.348 1_554 S
C44 C43 1.359 . S
C44 C45 1.380 . S
C44 H72 0.929 . S
C45 C44 1.380 . S
C45 C46 1.347 . S
C45 H73 0.931 . S
C46 C45 1.347 . S
C46 C47 1.369 1_554 S
C47 C46 1.369 1_556 S
C47 C48 1.408 . S
C47 H74 0.930 . S
C48 C43 1.348 1_556 S
C48 C47 1.408 . S
C48 H75 0.930 . S
C49 O62 1.281 . S
C49 O63 1.254 . S
C50 O64 1.236 . S
C50 O65 1.266 1_556 S
C51 Tb41 2.809 1_556 S
C51 C52 1.514 . S
C51 O66 1.248 . S
C51 O67 1.266 1_556 S
C52 C51 1.514 . S
C52 C53 1.359 . S
C52 C57 1.348 1_556 S
C53 C52 1.359 . S
C53 C54 1.380 . S
C53 H76 0.929 . S
C54 C53 1.380 . S
C54 C55 1.347 . S
C54 H77 0.931 . S
C55 C54 1.347 . S
C55 C56 1.369 1_556 S
C56 C55 1.369 1_554 S
C56 C57 1.408 . S
C56 H78 0.930 . S
C57 C52 1.348 1_554 S
C57 C56 1.408 . S
C57 H79 0.930 . S
C58 O68 1.281 . S
C58 O69 1.254 . S
C59 O70 1.236 . S
C59 O71 1.266 1_554 S
O60 Tb40 2.484 1_554 S
O60 C42 1.248 . S
O61 Tb40 2.440 . S
O61 C42 1.266 1_556 S
O62 Tb40 2.658 . S
O62 Tb41 2.325 1_556 S
O62 C49 1.281 . S
O63 Tb40 2.409 . S
O63 C49 1.254 . S
O64 Tb40 2.378 . S
O64 C50 1.236 . S
O65 Tb41 2.341 . S
O65 C50 1.266 1_554 S
O66 Tb41 2.484 1_556 S
O66 C51 1.248 . S
O67 Tb41 2.440 . S
O67 C51 1.266 1_554 S
O68 Tb40 2.325 1_554 S
O68 Tb41 2.658 . S
O68 C58 1.281 . S
O69 Tb41 2.409 . S
O69 C58 1.254 . S
O70 Tb41 2.378 . S
O70 C59 1.236 . S
O71 Tb40 2.341 . S
O71 C59 1.266 1_556 S
H72 C44 0.929 . S
H73 C45 0.931 . S
H74 C47 0.930 . S
H75 C48 0.930 . S
H76 C53 0.929 . S
H77 C54 0.931 . S
H78 C56 0.930 . S
H79 C57 0.930 . S
Tb80 C82 2.809 1_556 S
Tb80 O100 2.484 1_556 S
Tb80 O101 2.440 . S
Tb80 O102 2.658 . S
Tb80 O103 2.409 . S
Tb80 O104 2.378 . S
Tb80 O108 2.325 1_556 S
Tb80 O111 2.341 . S
Tb81 C91 2.809 1_554 S
Tb81 O102 2.325 1_554 S
Tb81 O105 2.341 . S
Tb81 O106 2.484 1_554 S
Tb81 O107 2.440 . S
Tb81 O108 2.658 . S
Tb81 O109 2.409 . S
Tb81 O110 2.378 . S
C82 Tb80 2.809 1_554 S
C82 C83 1.514 . S
C82 O100 1.248 . S
C82 O101 1.266 1_554 S
C83 C82 1.514 . S
C83 C84 1.359 . S
C83 C88 1.348 1_554 S
C84 C83 1.359 . S
C84 C85 1.380 . S
C84 H112 0.929 . S
C85 C84 1.380 . S
C85 C86 1.347 . S
C85 H113 0.931 . S
C86 C85 1.347 . S
C86 C87 1.369 1_554 S
C87 C86 1.369 1_556 S
C87 C88 1.408 . S
C87 H114 0.930 . S
C88 C83 1.348 1_556 S
C88 C87 1.408 . S
C88 H115 0.930 . S
C89 O102 1.281 . S
C89 O103 1.254 . S
C90 O104 1.236 . S
C90 O105 1.266 1_556 S
C91 Tb81 2.809 1_556 S
C91 C92 1.514 . S
C91 O106 1.248 . S
C91 O107 1.266 1_556 S
C92 C91 1.514 . S
C92 C93 1.359 . S
C92 C97 1.348 1_556 S
C93 C92 1.359 . S
C93 C94 1.380 . S
C93 H116 0.929 . S
C94 C93 1.380 . S
C94 C95 1.347 . S
C94 H117 0.931 . S
C95 C94 1.347 . S
C95 C96 1.369 1_556 S
C96 C95 1.369 1_554 S
C96 C97 1.408 . S
C96 H118 0.930 . S
C97 C92 1.348 1_554 S
C97 C96 1.408 . S
C97 H119 0.930 . S
C98 O108 1.281 . S
C98 O109 1.254 . S
C99 O110 1.236 . S
C99 O111 1.266 1_554 S
O100 Tb80 2.484 1_554 S
O100 C82 1.248 . S
O101 Tb80 2.440 . S
O101 C82 1.266 1_556 S
O102 Tb80 2.658 . S
O102 Tb81 2.325 1_556 S
O102 C89 1.281 . S
O103 Tb80 2.409 . S
O103 C89 1.254 . S
O104 Tb80 2.378 . S
O104 C90 1.236 . S
O105 Tb81 2.341 . S
O105 C90 1.266 1_554 S
O106 Tb81 2.484 1_556 S
O106 C91 1.248 . S
O107 Tb81 2.440 . S
O107 C91 1.266 1_554 S
O108 Tb80 2.325 1_554 S
O108 Tb81 2.658 . S
O108 C98 1.281 . S
O109 Tb81 2.409 . S
O109 C98 1.254 . S
O110 Tb81 2.378 . S
O110 C99 1.236 . S
O111 Tb80 2.341 . S
O111 C99 1.266 1_556 S
H112 C84 0.929 . S
H113 C85 0.931 . S
H114 C87 0.930 . S
H115 C88 0.930 . S
H116 C93 0.929 . S
H117 C94 0.931 . S
H118 C96 0.930 . S
H119 C97 0.930 . S
Tb120 C122 2.809 1_556 S
Tb120 O140 2.484 1_556 S
Tb120 O141 2.440 . S
Tb120 O142 2.658 . S
Tb120 O143 2.409 . S
Tb120 O144 2.378 . S
Tb120 O148 2.325 1_556 S
Tb120 O151 2.341 . S
Tb121 C131 2.809 1_554 S
Tb121 O142 2.325 1_554 S
Tb121 O145 2.341 . S
Tb121 O146 2.484 1_554 S
Tb121 O147 2.440 . S
Tb121 O148 2.658 . S
Tb121 O149 2.409 . S
Tb121 O150 2.378 . S
C122 Tb120 2.809 1_554 S
C122 C123 1.514 . S
C122 O140 1.248 . S
C122 O141 1.266 1_554 S
C123 C122 1.514 . S
C123 C124 1.359 . S
C123 C128 1.348 1_554 S
C124 C123 1.359 . S
C124 C125 1.380 . S
C124 H152 0.929 . S
C125 C124 1.380 . S
C125 C126 1.347 . S
C125 H153 0.931 . S
C126 C125 1.347 . S
C126 C127 1.369 1_554 S
C127 C126 1.369 1_556 S
C127 C128 1.408 . S
C127 H154 0.930 . S
C128 C123 1.348 1_556 S
C128 C127 1.408 . S
C128 H155 0.930 . S
C129 O142 1.281 . S
C129 O143 1.254 . S
C130 O144 1.236 . S
C130 O145 1.266 1_556 S
C131 Tb121 2.809 1_556 S
C131 C132 1.514 . S
C131 O146 1.248 . S
C131 O147 1.266 1_556 S
C132 C131 1.514 . S
C132 C133 1.359 . S
C132 C137 1.348 1_556 S
C133 C132 1.359 . S
C133 C134 1.380 . S
C133 H156 0.929 . S
C134 C133 1.380 . S
C134 C135 1.347 . S
C134 H157 0.931 . S
C135 C134 1.347 . S
C135 C136 1.369 1_556 S
C136 C135 1.369 1_554 S
C136 C137 1.408 . S
C136 H158 0.930 . S
C137 C132 1.348 1_554 S
C137 C136 1.408 . S
C137 H159 0.930 . S
C138 O148 1.281 . S
C138 O149 1.254 . S
C139 O150 1.236 . S
C139 O151 1.266 1_554 S
O140 Tb120 2.484 1_554 S
O140 C122 1.248 . S
O141 Tb120 2.440 . S
O141 C122 1.266 1_556 S
O142 Tb120 2.658 . S
O142 Tb121 2.325 1_556 S
O142 C129 1.281 . S
O143 Tb120 2.409 . S
O143 C129 1.254 . S
O144 Tb120 2.378 . S
O144 C130 1.236 . S
O145 Tb121 2.341 . S
O145 C130 1.266 1_554 S
O146 Tb121 2.484 1_556 S
O146 C131 1.248 . S
O147 Tb121 2.440 . S
O147 C131 1.266 1_554 S
O148 Tb120 2.325 1_554 S
O148 Tb121 2.658 . S
O148 C138 1.281 . S
O149 Tb121 2.409 . S
O149 C138 1.254 . S
O150 Tb121 2.378 . S
O150 C139 1.236 . S
O151 Tb120 2.341 . S
O151 C139 1.266 1_556 S
H152 C124 0.929 . S
H153 C125 0.931 . S
H154 C127 0.930 . S
H155 C128 0.930 . S
H156 C133 0.929 . S
H157 C134 0.931 . S
H158 C136 0.930 . S
H159 C137 0.930 . S
Tb160 C162 2.809 1_556 S
Tb160 O180 2.484 1_556 S
Tb160 O181 2.440 . S
Tb160 O182 2.658 . S
Tb160 O183 2.409 . S
Tb160 O184 2.378 . S
Tb160 O188 2.325 1_556 S
Tb160 O191 2.341 . S
Tb161 C171 2.809 1_554 S
Tb161 O182 2.325 1_554 S
Tb161 O185 2.341 . S
Tb161 O186 2.484 1_554 S
Tb161 O187 2.440 . S
Tb161 O188 2.658 . S
Tb161 O189 2.409 . S
Tb161 O190 2.378 . S
C162 Tb160 2.809 1_554 S
C162 C163 1.514 . S
C162 O180 1.248 . S
C162 O181 1.266 1_554 S
C163 C162 1.514 . S
C163 C164 1.359 . S
C163 C168 1.348 1_554 S
C164 C163 1.359 . S
C164 C165 1.380 . S
C164 H192 0.929 . S
C165 C164 1.380 . S
C165 C166 1.347 . S
C165 H193 0.931 . S
C166 C165 1.347 . S
C166 C167 1.369 1_554 S
C167 C166 1.369 1_556 S
C167 C168 1.408 . S
C167 H194 0.930 . S
C168 C163 1.348 1_556 S
C168 C167 1.408 . S
C168 H195 0.930 . S
C169 O182 1.281 . S
C169 O183 1.254 . S
C170 O184 1.236 . S
C170 O185 1.266 1_556 S
C171 Tb161 2.809 1_556 S
C171 C172 1.514 . S
C171 O186 1.248 . S
C171 O187 1.266 1_556 S
C172 C171 1.514 . S
C172 C173 1.359 . S
C172 C177 1.348 1_556 S
C173 C172 1.359 . S
C173 C174 1.380 . S
C173 H196 0.929 . S
C174 C173 1.380 . S
C174 C175 1.347 . S
C174 H197 0.931 . S
C175 C174 1.347 . S
C175 C176 1.369 1_556 S
C176 C175 1.369 1_554 S
C176 C177 1.408 . S
C176 H198 0.930 . S
C177 C172 1.348 1_554 S
C177 C176 1.408 . S
C177 H199 0.930 . S
C178 O188 1.281 . S
C178 O189 1.254 . S
C179 O190 1.236 . S
C179 O191 1.266 1_554 S
O180 Tb160 2.484 1_554 S
O180 C162 1.248 . S
O181 Tb160 2.440 . S
O181 C162 1.266 1_556 S
O182 Tb160 2.658 . S
O182 Tb161 2.325 1_556 S
O182 C169 1.281 . S
O183 Tb160 2.409 . S
O183 C169 1.254 . S
O184 Tb160 2.378 . S
O184 C170 1.236 . S
O185 Tb161 2.341 . S
O185 C170 1.266 1_554 S
O186 Tb161 2.484 1_556 S
O186 C171 1.248 . S
O187 Tb161 2.440 . S
O187 C171 1.266 1_554 S
O188 Tb160 2.325 1_554 S
O188 Tb161 2.658 . S
O188 C178 1.281 . S
O189 Tb161 2.409 . S
O189 C178 1.254 . S
O190 Tb161 2.378 . S
O190 C179 1.236 . S
O191 Tb160 2.341 . S
O191 C179 1.266 1_556 S
H192 C164 0.929 . S
H193 C165 0.931 . S
H194 C167 0.930 . S
H195 C168 0.930 . S
H196 C173 0.929 . S
H197 C174 0.931 . S
H198 C176 0.930 . S
H199 C177 0.930 . S
Tb200 C202 2.809 1_556 S
Tb200 O220 2.484 1_556 S
Tb200 O221 2.440 . S
Tb200 O222 2.658 . S
Tb200 O223 2.409 . S
Tb200 O224 2.378 . S
Tb200 O228 2.325 1_556 S
Tb200 O231 2.341 . S
Tb201 C211 2.809 1_554 S
Tb201 O222 2.325 1_554 S
Tb201 O225 2.341 . S
Tb201 O226 2.484 1_554 S
Tb201 O227 2.440 . S
Tb201 O228 2.658 . S
Tb201 O229 2.409 . S
Tb201 O230 2.378 . S
C202 Tb200 2.809 1_554 S
C202 C203 1.514 . S
C202 O220 1.248 . S
C202 O221 1.266 1_554 S
C203 C202 1.514 . S
C203 C204 1.359 . S
C203 C208 1.348 1_554 S
C204 C203 1.359 . S
C204 C205 1.380 . S
C204 H232 0.929 . S
C205 C204 1.380 . S
C205 C206 1.347 . S
C205 H233 0.931 . S
C206 C205 1.347 . S
C206 C207 1.369 1_554 S
C207 C206 1.369 1_556 S
C207 C208 1.408 . S
C207 H234 0.930 . S
C208 C203 1.348 1_556 S
C208 C207 1.408 . S
C208 H235 0.930 . S
C209 O222 1.281 . S
C209 O223 1.254 . S
C210 O224 1.236 . S
C210 O225 1.266 1_556 S
C211 Tb201 2.809 1_556 S
C211 C212 1.514 . S
C211 O226 1.248 . S
C211 O227 1.266 1_556 S
C212 C211 1.514 . S
C212 C213 1.359 . S
C212 C217 1.348 1_556 S
C213 C212 1.359 . S
C213 C214 1.380 . S
C213 H236 0.929 . S
C214 C213 1.380 . S
C214 C215 1.347 . S
C214 H237 0.931 . S
C215 C214 1.347 . S
C215 C216 1.369 1_556 S
C216 C215 1.369 1_554 S
C216 C217 1.408 . S
C216 H238 0.930 . S
C217 C212 1.348 1_554 S
C217 C216 1.408 . S
C217 H239 0.930 . S
C218 O228 1.281 . S
C218 O229 1.254 . S
C219 O230 1.236 . S
C219 O231 1.266 1_554 S
O220 Tb200 2.484 1_554 S
O220 C202 1.248 . S
O221 Tb200 2.440 . S
O221 C202 1.266 1_556 S
O222 Tb200 2.658 . S
O222 Tb201 2.325 1_556 S
O222 C209 1.281 . S
O223 Tb200 2.409 . S
O223 C209 1.254 . S
O224 Tb200 2.378 . S
O224 C210 1.236 . S
O225 Tb201 2.341 . S
O225 C210 1.266 1_554 S
O226 Tb201 2.484 1_556 S
O226 C211 1.248 . S
O227 Tb201 2.440 . S
O227 C211 1.266 1_554 S
O228 Tb200 2.325 1_554 S
O228 Tb201 2.658 . S
O228 C218 1.281 . S
O229 Tb201 2.409 . S
O229 C218 1.254 . S
O230 Tb201 2.378 . S
O230 C219 1.236 . S
O231 Tb200 2.341 . S
O231 C219 1.266 1_556 S
H232 C204 0.929 . S
H233 C205 0.931 . S
H234 C207 0.930 . S
H235 C208 0.930 . S
H236 C213 0.929 . S
H237 C214 0.931 . S
H238 C216 0.930 . S
H239 C217 0.930 . S
H240 C258 0.951 . S
H241 C260 0.951 . S
H242 C262 0.950 . S
H243 C263 0.950 . S
H244 C265 0.950 . S
H245 C268 0.950 . S
H246 C269 0.950 . S
H247 C271 0.950 . S
H248 C272 0.950 . S
H249 C273 0.951 . S
H250 C275 0.951 . S
H251 C277 0.950 . S
H252 C278 0.950 . S
H253 C280 0.950 . S
H254 C283 0.950 . S
H255 C284 0.950 . S
H256 C286 0.950 . S
H257 C287 0.950 . S
C258 H240 0.951 . S
C258 C259 1.366 1_554 S
C258 C260 1.388 . S
C259 C258 1.366 1_556 S
C259 C263 1.385 . S
C260 H241 0.951 . S
C260 C258 1.388 . S
C260 C261 1.366 1_554 S
C261 C260 1.366 1_556 S
C261 C262 1.414 . S
C261 C264 1.499 . S
C262 H242 0.950 . S
C262 C261 1.414 . S
C262 C263 1.374 . S
C263 H243 0.950 . S
C263 C259 1.385 . S
C263 C262 1.374 . S
C264 C261 1.499 . S
C264 C265 1.373 . S
C264 C266 1.389 1_556 S
C265 H244 0.950 . S
C265 C264 1.373 . S
C265 C281 1.377 . S
C266 C264 1.389 1_554 S
C266 C267 1.524 . S
C266 C280 1.377 . S
C267 C266 1.524 . S
C267 C268 1.397 . S
C267 C272 1.363 . S
C268 H245 0.950 . S
C268 C267 1.397 . S
C268 C269 1.334 . S
C269 H246 0.950 . S
C269 C268 1.334 . S
C269 C270 1.287 . S
C270 C269 1.287 . S
C270 C271 1.524 . S
C270 H289 0.913 . S
C271 H247 0.950 . S
C271 C270 1.524 . S
C271 C272 1.415 . S
C272 H248 0.950 . S
C272 C267 1.363 . S
C272 C271 1.415 . S
C273 H249 0.951 . S
C273 C274 1.366 . S
C273 C275 1.388 . S
C274 C273 1.366 . S
C274 C278 1.385 . S
C275 H250 0.951 . S
C275 C273 1.388 . S
C275 C276 1.366 . S
C276 C275 1.366 . S
C276 C277 1.414 . S
C276 C279 1.499 . S
C277 H251 0.950 . S
C277 C276 1.414 . S
C277 C278 1.374 . S
C278 H252 0.950 . S
C278 C274 1.385 . S
C278 C277 1.374 . S
C279 C276 1.499 . S
C279 C280 1.373 1_556 S
C279 C281 1.389 . S
C280 H253 0.950 . S
C280 C266 1.377 . S
C280 C279 1.373 1_554 S
C281 C265 1.377 . S
C281 C279 1.389 . S
C281 C282 1.524 . S
C282 C281 1.524 . S
C282 C283 1.397 . S
C282 C287 1.363 . S
C283 H254 0.950 . S
C283 C282 1.397 . S
C283 C284 1.334 . S
C284 H255 0.950 . S
C284 C283 1.334 . S
C284 C285 1.287 . S
C285 C284 1.287 . S
C285 C286 1.524 . S
C285 H288 0.999 . S
C286 H256 0.950 . S
C286 C285 1.524 . S
C286 C287 1.415 . S
C287 H257 0.950 . S
C287 C282 1.363 . S
C287 C286 1.415 . S
H288 C285 0.999 . S
H289 C270 0.913 . S
H290 C308 0.951 . S
H291 C310 0.951 . S
H292 C312 0.950 . S
H293 C313 0.950 . S
H294 C315 0.950 . S
H295 C318 0.950 . S
H296 C319 0.950 . S
H297 C321 0.950 . S
H298 C322 0.950 . S
H299 C323 0.951 . S
H300 C325 0.951 . S
H301 C327 0.950 . S
H302 C328 0.950 . S
H303 C330 0.950 . S
H304 C333 0.950 . S
H305 C334 0.950 1_655 S
H306 C336 0.950 . S
H307 C337 0.950 . S
C308 H290 0.951 . S
C308 C309 1.365 . S
C308 C310 1.388 . S
C309 C308 1.365 . S
C309 C313 1.386 1_556 S
C310 H291 0.951 . S
C310 C308 1.388 . S
C310 C311 1.366 . S
C311 C310 1.366 . S
C311 C312 1.414 1_556 S
C311 C314 1.499 . S
C312 H292 0.950 . S
C312 C311 1.414 1_554 S
C312 C313 1.374 . S
C313 H293 0.950 . S
C313 C309 1.386 1_554 S
C313 C312 1.374 . S
C314 C311 1.499 . S
C314 C315 1.373 1_556 S
C314 C316 1.389 . S
C315 H294 0.950 . S
C315 C314 1.373 1_554 S
C315 C331 1.377 . S
C316 C314 1.389 . S
C316 C317 1.524 . S
C316 C330 1.377 . S
C317 C316 1.524 . S
C317 C318 1.397 . S
C317 C322 1.363 . S
C318 H295 0.950 . S
C318 C317 1.397 . S
C318 C319 1.334 . S
C319 H296 0.950 . S
C319 C318 1.334 . S
C319 C320 1.287 . S
C320 C319 1.287 . S
C320 C321 1.524 . S
C320 H339 0.913 . S
C321 H297 0.950 . S
C321 C320 1.524 . S
C321 C322 1.415 . S
C322 H298 0.950 . S
C322 C317 1.363 . S
C322 C321 1.415 . S
C323 H299 0.951 . S
C323 C324 1.366 1_554 S
C323 C325 1.388 . S
C324 C323 1.366 1_556 S
C324 C328 1.385 . S
C325 H300 0.951 . S
C325 C323 1.388 . S
C325 C326 1.366 1_554 S
C326 C325 1.366 1_556 S
C326 C327 1.414 . S
C326 C329 1.499 1_655 S
C327 H301 0.950 . S
C327 C326 1.414 . S
C327 C328 1.374 . S
C328 H302 0.950 . S
C328 C324 1.385 . S
C328 C327 1.374 . S
C329 C326 1.499 1_455 S
C329 C330 1.373 . S
C329 C331 1.389 1_556 S
C330 H303 0.950 . S
C330 C316 1.377 . S
C330 C329 1.373 . S
C331 C315 1.377 . S
C331 C329 1.389 1_554 S
C331 C332 1.524 . S
C332 C331 1.524 . S
C332 C333 1.397 . S
C332 C337 1.363 . S
C333 H304 0.950 . S
C333 C332 1.397 . S
C333 C334 1.334 . S
C334 H305 0.950 1_455 S
C334 C333 1.334 . S
C334 C335 1.287 . S
C335 C334 1.287 . S
C335 C336 1.524 . S
C335 H338 0.999 1_455 S
C336 H306 0.950 . S
C336 C335 1.524 . S
C336 C337 1.415 . S
C337 H307 0.950 . S
C337 C332 1.363 . S
C337 C336 1.415 . S
H338 C335 0.999 1_655 S
H339 C320 0.913 . S
H340 C358 0.951 . S
H341 C360 0.951 . S
H342 C362 0.950 . S
H343 C363 0.950 . S
H344 C365 0.950 . S
H345 C368 0.950 . S
H346 C369 0.950 . S
H347 C371 0.950 . S
H348 C372 0.950 . S
H349 C373 0.951 . S
H350 C375 0.951 . S
H351 C377 0.950 . S
H352 C378 0.950 . S
H353 C380 0.950 . S
H354 C383 0.950 1_556 S
H355 C384 0.950 . S
H356 C386 0.950 . S
H357 C387 0.950 . S
C358 H340 0.951 . S
C358 C359 1.365 . S
C358 C360 1.388 . S
C359 C358 1.365 . S
C359 C363 1.385 1_556 S
C360 H341 0.951 . S
C360 C358 1.388 . S
C360 C361 1.366 . S
C361 C360 1.366 . S
C361 C362 1.414 1_556 S
C361 C364 1.499 . S
C362 H342 0.950 . S
C362 C361 1.414 1_554 S
C362 C363 1.374 . S
C363 H343 0.950 . S
C363 C359 1.385 1_554 S
C363 C362 1.374 . S
C364 C361 1.499 . S
C364 C365 1.373 1_556 S
C364 C366 1.389 . S
C365 H344 0.950 . S
C365 C364 1.373 1_554 S
C365 C381 1.377 . S
C366 C364 1.389 . S
C366 C367 1.524 . S
C366 C380 1.377 . S
C367 C366 1.524 . S
C367 C368 1.397 . S
C367 C372 1.363 . S
C368 H345 0.950 . S
C368 C367 1.397 . S
C368 C369 1.334 . S
C369 H346 0.950 . S
C369 C368 1.334 . S
C369 C370 1.287 . S
C370 C369 1.287 . S
C370 C371 1.524 . S
C370 H389 0.913 . S
C371 H347 0.950 . S
C371 C370 1.524 . S
C371 C372 1.415 . S
C372 H348 0.950 . S
C372 C367 1.363 . S
C372 C371 1.415 . S
C373 H349 0.951 . S
C373 C374 1.366 1_554 S
C373 C375 1.388 . S
C374 C373 1.366 1_556 S
C374 C378 1.385 . S
C375 H350 0.951 . S
C375 C373 1.388 . S
C375 C376 1.366 1_554 S
C376 C375 1.366 1_556 S
C376 C377 1.414 . S
C376 C379 1.499 1_565 S
C377 H351 0.950 . S
C377 C376 1.414 . S
C377 C378 1.374 . S
C378 H352 0.950 . S
C378 C374 1.385 . S
C378 C377 1.374 . S
C379 C376 1.499 1_545 S
C379 C380 1.373 . S
C379 C381 1.389 1_556 S
C380 H353 0.950 . S
C380 C366 1.377 . S
C380 C379 1.373 . S
C381 C365 1.377 . S
C381 C379 1.389 1_554 S
C381 C382 1.524 . S
C382 C381 1.524 . S
C382 C383 1.397 . S
C382 C387 1.363 . S
C383 H354 0.950 1_554 S
C383 C382 1.397 . S
C383 C384 1.334 . S
C384 H355 0.950 . S
C384 C383 1.334 . S
C384 C385 1.287 . S
C385 C384 1.287 . S
C385 C386 1.524 . S
C385 H388 0.999 . S
C386 H356 0.950 . S
C386 C385 1.524 . S
C386 C387 1.415 . S
C387 H357 0.950 . S
C387 C382 1.363 . S
C387 C386 1.415 . S
H388 C385 0.999 . S
H389 C370 0.913 . S
H390 C408 0.951 . S
H391 C410 0.951 . S
H392 C412 0.950 . S
H393 C413 0.950 . S
H394 C415 0.950 . S
H395 C418 0.950 . S
H396 C419 0.950 . S
H397 C421 0.950 . S
H398 C422 0.950 . S
H399 C423 0.951 . S
H400 C425 0.951 . S
H401 C427 0.950 . S
H402 C428 0.950 . S
H403 C430 0.950 . S
H404 C433 0.950 . S
H405 C434 0.950 . S
H406 C436 0.950 . S
H407 C437 0.950 . S
C408 H390 0.951 . S
C408 C409 1.366 . S
C408 C410 1.388 . S
C409 C408 1.366 . S
C409 C413 1.385 . S
C410 H391 0.951 . S
C410 C408 1.388 . S
C410 C411 1.366 . S
C411 C410 1.366 . S
C411 C412 1.414 . S
C411 C414 1.499 . S
C412 H392 0.950 . S
C412 C411 1.414 . S
C412 C413 1.374 . S
C413 H393 0.950 . S
C413 C409 1.385 . S
C413 C412 1.374 . S
C414 C411 1.499 . S
C414 C415 1.373 . S
C414 C416 1.389 1_556 S
C415 H394 0.950 . S
C415 C414 1.373 . S
C415 C431 1.377 . S
C416 C414 1.389 1_554 S
C416 C417 1.524 . S
C416 C430 1.377 . S
C417 C416 1.524 . S
C417 C418 1.397 . S
C417 C422 1.363 . S
C418 H395 0.950 . S
C418 C417 1.397 . S
C418 C419 1.334 . S
C419 H396 0.950 . S
C419 C418 1.334 . S
C419 C420 1.287 . S
C420 C419 1.287 . S
C420 C421 1.524 . S
C420 H439 0.913 . S
C421 H397 0.950 . S
C421 C420 1.524 . S
C421 C422 1.415 . S
C422 H398 0.950 . S
C422 C417 1.363 . S
C422 C421 1.415 . S
C423 H399 0.951 . S
C423 C424 1.366 1_556 S
C423 C425 1.388 . S
C424 C423 1.366 1_554 S
C424 C428 1.384 . S
C425 H400 0.951 . S
C425 C423 1.388 . S
C425 C426 1.366 . S
C426 C425 1.366 . S
C426 C427 1.414 1_556 S
C426 C429 1.499 . S
C427 H401 0.950 . S
C427 C426 1.414 1_554 S
C427 C428 1.374 . S
C428 H402 0.950 . S
C428 C424 1.384 . S
C428 C427 1.374 . S
C429 C426 1.499 . S
C429 C430 1.373 1_556 S
C429 C431 1.389 . S
C430 H403 0.950 . S
C430 C416 1.377 . S
C430 C429 1.373 1_554 S
C431 C415 1.377 . S
C431 C429 1.389 . S
C431 C432 1.524 . S
C432 C431 1.524 . S
C432 C433 1.397 . S
C432 C437 1.363 . S
C433 H404 0.950 . S
C433 C432 1.397 . S
C433 C434 1.334 . S
C434 H405 0.950 . S
C434 C433 1.334 . S
C434 C435 1.287 . S
C435 C434 1.287 . S
C435 C436 1.524 . S
C435 H438 0.999 . S
C436 H406 0.950 . S
C436 C435 1.524 . S
C436 C437 1.415 . S
C437 H407 0.950 . S
C437 C432 1.363 . S
C437 C436 1.415 . S
H438 C435 0.999 . S
H439 C420 0.913 . S
H440 C458 0.951 1_554 S
H441 C460 0.952 . S
H442 C462 0.950 . S
H443 C463 0.950 . S
H444 C465 0.950 . S
H445 C468 0.950 . S
H446 C469 0.950 . S
H447 C471 0.963 . S
H448 C472 0.950 . S
H449 C473 0.951 . S
H450 C475 0.951 . S
H451 C477 0.950 . S
H452 C478 0.950 . S
H453 C480 0.950 . S
H454 C483 0.950 . S
H455 C484 0.950 . S
H456 C486 0.950 . S
H457 C487 0.950 . S
C458 H440 0.951 1_556 S
C458 C459 1.366 . S
C458 C460 1.388 1_556 S
C459 C458 1.366 . S
C459 C463 1.385 . S
C460 H441 0.952 . S
C460 C458 1.388 1_554 S
C460 C461 1.364 1_554 S
C461 C460 1.364 1_556 S
C461 C462 1.414 . S
C461 C464 1.499 1_455 S
C462 H442 0.950 . S
C462 C461 1.414 . S
C462 C463 1.374 . S
C463 H443 0.950 . S
C463 C459 1.385 . S
C463 C462 1.374 . S
C464 C461 1.499 1_655 S
C464 C465 1.373 1_556 S
C464 C466 1.389 . S
C465 H444 0.950 . S
C465 C464 1.373 1_554 S
C465 C481 1.377 . S
C466 C464 1.389 . S
C466 C467 1.524 . S
C466 C480 1.377 . S
C467 C466 1.524 . S
C467 C468 1.397 . S
C467 C472 1.363 . S
C468 H445 0.950 . S
C468 C467 1.397 . S
C468 C469 1.334 1_655 S
C469 H446 0.950 . S
C469 C468 1.334 1_455 S
C469 C470 1.287 . S
C470 C469 1.287 . S
C470 C471 1.528 . S
C470 H489 0.913 . S
C471 H447 0.963 . S
C471 C470 1.528 . S
C471 C472 1.396 1_455 S
C472 H448 0.950 . S
C472 C467 1.363 . S
C472 C471 1.396 1_655 S
C473 H449 0.951 . S
C473 C474 1.366 . S
C473 C475 1.388 . S
C474 C473 1.366 . S
C474 C478 1.384 1_556 S
C475 H450 0.951 . S
C475 C473 1.388 . S
C475 C476 1.366 . S
C476 C475 1.366 . S
C476 C477 1.414 1_556 S
C476 C479 1.499 . S
C477 H451 0.950 . S
C477 C476 1.414 1_554 S
C477 C478 1.374 . S
C478 H452 0.950 . S
C478 C474 1.384 1_554 S
C478 C477 1.374 . S
C479 C476 1.499 . S
C479 C480 1.373 . S
C479 C481 1.389 1_556 S
C480 H453 0.950 . S
C480 C466 1.377 . S
C480 C479 1.373 . S
C481 C465 1.377 . S
C481 C479 1.389 1_554 S
C481 C482 1.524 . S
C482 C481 1.524 . S
C482 C483 1.397 . S
C482 C487 1.363 . S
C483 H454 0.950 . S
C483 C482 1.397 . S
C483 C484 1.334 . S
C484 H455 0.950 . S
C484 C483 1.334 . S
C484 C485 1.287 . S
C485 C484 1.287 . S
C485 C486 1.524 . S
C485 H488 0.999 . S
C486 H456 0.950 . S
C486 C485 1.524 . S
C486 C487 1.415 . S
C487 H457 0.950 . S
C487 C482 1.363 . S
C487 C486 1.415 . S
H488 C485 0.999 . S
H489 C470 0.913 . S
H490 C508 0.951 . S
H491 C510 0.951 . S
H492 C512 0.950 . S
H493 C513 0.950 . S
H494 C515 0.950 . S
H495 C518 0.950 . S
H496 C519 0.950 . S
H497 C521 0.950 . S
H498 C522 0.950 . S
H499 C523 0.951 . S
H500 C525 0.951 . S
H501 C527 0.950 . S
H502 C528 0.950 . S
H503 C530 0.950 . S
H504 C533 0.950 . S
H505 C534 0.950 . S
H506 C536 0.950 . S
H507 C537 0.950 . S
C508 H490 0.951 . S
C508 C509 1.366 1_554 S
C508 C510 1.388 . S
C509 C508 1.366 1_556 S
C509 C513 1.384 . S
C510 H491 0.951 . S
C510 C508 1.388 . S
C510 C511 1.366 1_554 S
C511 C510 1.366 1_556 S
C511 C512 1.414 . S
C511 C514 1.499 . S
C512 H492 0.950 . S
C512 C511 1.414 . S
C512 C513 1.374 . S
C513 H493 0.950 . S
C513 C509 1.384 . S
C513 C512 1.374 . S
C514 C511 1.499 . S
C514 C515 1.373 . S
C514 C516 1.389 . S
C515 H494 0.950 . S
C515 C514 1.373 . S
C515 C531 1.377 . S
C516 C514 1.389 . S
C516 C517 1.524 . S
C516 C530 1.377 . S
C517 C516 1.524 . S
C517 C518 1.397 . S
C517 C522 1.363 1_556 S
C518 H495 0.950 . S
C518 C517 1.397 . S
C518 C519 1.334 . S
C519 H496 0.950 . S
C519 C518 1.334 . S
C519 C520 1.287 . S
C520 C519 1.287 . S
C520 C521 1.524 1_556 S
C520 H539 0.913 . S
C521 H497 0.950 . S
C521 C520 1.524 1_554 S
C521 C522 1.415 . S
C522 H498 0.950 . S
C522 C517 1.363 1_554 S
C522 C521 1.415 . S
C523 H499 0.951 . S
C523 C524 1.366 . S
C523 C525 1.388 . S
C524 C523 1.366 . S
C524 C528 1.385 1_556 S
C525 H500 0.951 . S
C525 C523 1.388 . S
C525 C526 1.366 . S
C526 C525 1.366 . S
C526 C527 1.414 1_556 S
C526 C529 1.499 1_545 S
C527 H501 0.950 . S
C527 C526 1.414 1_554 S
C527 C528 1.374 . S
C528 H502 0.950 . S
C528 C524 1.385 1_554 S
C528 C527 1.374 . S
C529 C526 1.499 1_565 S
C529 C530 1.373 . S
C529 C531 1.389 . S
C530 H503 0.950 . S
C530 C516 1.377 . S
C530 C529 1.373 . S
C531 C515 1.377 . S
C531 C529 1.389 . S
C531 C532 1.524 . S
C532 C531 1.524 . S
C532 C533 1.397 1_566 S
C532 C537 1.363 . S
C533 H504 0.950 . S
C533 C532 1.397 1_544 S
C533 C534 1.334 . S
C534 H505 0.950 . S
C534 C533 1.334 . S
C534 C535 1.287 . S
C535 C534 1.287 . S
C535 C536 1.524 1_554 S
C535 H538 0.999 . S
C536 H506 0.950 . S
C536 C535 1.524 1_556 S
C536 C537 1.415 1_545 S
C537 H507 0.950 . S
C537 C532 1.363 . S
C537 C536 1.415 1_565 S
H538 C535 0.999 . S
H539 C520 0.913 . S
H540 C558 0.951 . S
H541 C560 0.951 . S
H542 C562 0.950 . S
H543 C563 0.950 . S
H544 C565 0.950 . S
H545 C568 0.950 . S
H546 C569 0.950 . S
H547 C571 0.950 . S
H548 C572 0.950 . S
H549 C573 0.951 . S
H550 C575 0.951 . S
H551 C577 0.950 . S
H552 C578 0.950 . S
H553 C580 0.950 . S
H554 C583 0.950 . S
H555 C584 0.950 . S
H556 C586 0.950 . S
H557 C587 0.950 . S
C558 H540 0.951 . S
C558 C559 1.366 1_556 S
C558 C560 1.388 . S
C559 C558 1.366 1_554 S
C559 C563 1.385 . S
C560 H541 0.951 . S
C560 C558 1.388 . S
C560 C561 1.366 1_556 S
C561 C560 1.366 1_554 S
C561 C562 1.414 . S
C561 C564 1.499 . S
C562 H542 0.950 . S
C562 C561 1.414 . S
C562 C563 1.374 . S
C563 H543 0.950 . S
C563 C559 1.385 . S
C563 C562 1.374 . S
C564 C561 1.499 . S
C564 C565 1.373 . S
C564 C566 1.389 1_554 S
C565 H544 0.950 . S
C565 C564 1.373 . S
C565 C581 1.377 . S
C566 C564 1.389 1_556 S
C566 C567 1.524 . S
C566 C580 1.377 . S
C567 C566 1.524 . S
C567 C568 1.397 . S
C567 C572 1.363 . S
C568 H545 0.950 . S
C568 C567 1.397 . S
C568 C569 1.334 . S
C569 H546 0.950 . S
C569 C568 1.334 . S
C569 C570 1.287 . S
C570 C569 1.287 . S
C570 C571 1.524 . S
C570 H589 0.913 . S
C571 H547 0.950 . S
C571 C570 1.524 . S
C571 C572 1.415 . S
C572 H548 0.950 . S
C572 C567 1.363 . S
C572 C571 1.415 . S
C573 H549 0.951 . S
C573 C574 1.366 . S
C573 C575 1.388 . S
C574 C573 1.366 . S
C574 C578 1.385 1_554 S
C575 H550 0.951 . S
C575 C573 1.388 . S
C575 C576 1.366 . S
C576 C575 1.366 . S
C576 C577 1.414 1_554 S
C576 C579 1.499 . S
C577 H551 0.950 . S
C577 C576 1.414 1_556 S
C577 C578 1.374 . S
C578 H552 0.950 . S
C578 C574 1.385 1_556 S
C578 C577 1.374 . S
C579 C576 1.499 . S
C579 C580 1.373 1_554 S
C579 C581 1.389 . S
C580 H553 0.950 . S
C580 C566 1.377 . S
C580 C579 1.373 1_556 S
C581 C565 1.377 . S
C581 C579 1.389 . S
C581 C582 1.524 . S
C582 C581 1.524 . S
C582 C583 1.397 . S
C582 C587 1.363 . S
C583 H554 0.950 . S
C583 C582 1.397 . S
C583 C584 1.334 . S
C584 H555 0.950 . S
C584 C583 1.334 . S
C584 C585 1.287 . S
C585 C584 1.287 . S
C585 C586 1.524 . S
C585 H588 0.999 . S
C586 H556 0.950 . S
C586 C585 1.524 . S
C586 C587 1.415 . S
C587 H557 0.950 . S
C587 C582 1.363 . S
C587 C586 1.415 . S
H588 C585 0.999 . S
H589 C570 0.913 . S
H590 C608 0.951 . S
H591 C610 0.951 . S
H592 C612 0.950 . S
H593 C613 0.950 . S
H594 C615 0.950 . S
H595 C618 0.950 . S
H596 C619 0.950 1_554 S
H597 C621 0.950 . S
H598 C622 0.950 . S
H599 C623 0.951 . S
H600 C625 0.951 . S
H601 C627 0.950 . S
H602 C628 0.950 . S
H603 C630 0.950 . S
H604 C633 0.950 1_556 S
H605 C634 0.950 . S
H606 C636 0.950 . S
H607 C637 0.950 . S
C608 H590 0.951 . S
C608 C609 1.366 1_556 S
C608 C610 1.388 . S
C609 C608 1.366 1_554 S
C609 C613 1.385 . S
C610 H591 0.951 . S
C610 C608 1.388 . S
C610 C611 1.366 1_556 S
C611 C610 1.366 1_554 S
C611 C612 1.414 . S
C611 C614 1.499 . S
C612 H592 0.950 . S
C612 C611 1.414 . S
C612 C613 1.374 . S
C613 H593 0.950 . S
C613 C609 1.385 . S
C613 C612 1.374 . S
C614 C611 1.499 . S
C614 C615 1.373 . S
C614 C616 1.389 1_554 S
C615 H594 0.950 . S
C615 C614 1.373 . S
C615 C631 1.377 . S
C616 C614 1.389 1_556 S
C616 C617 1.524 . S
C616 C630 1.377 . S
C617 C616 1.524 . S
C617 C618 1.397 1_556 S
C617 C622 1.363 . S
C618 H595 0.950 . S
C618 C617 1.397 1_554 S
C618 C619 1.334 1_554 S
C619 H596 0.950 1_556 S
C619 C618 1.334 1_556 S
C619 C620 1.287 . S
C620 C619 1.287 . S
C620 C621 1.524 . S
C620 H639 0.913 . S
C621 H597 0.950 . S
C621 C620 1.524 . S
C621 C622 1.415 . S
C622 H598 0.950 . S
C622 C617 1.363 . S
C622 C621 1.415 . S
C623 H599 0.951 . S
C623 C624 1.366 . S
C623 C625 1.388 . S
C624 C623 1.366 . S
C624 C628 1.385 1_554 S
C625 H600 0.951 . S
C625 C623 1.388 . S
C625 C626 1.366 . S
C626 C625 1.366 . S
C626 C627 1.414 1_554 S
C626 C629 1.499 . S
C627 H601 0.950 . S
C627 C626 1.414 1_556 S
C627 C628 1.374 . S
C628 H602 0.950 . S
C628 C624 1.385 1_556 S
C628 C627 1.374 . S
C629 C626 1.499 . S
C629 C630 1.373 1_554 S
C629 C631 1.389 . S
C630 H603 0.950 . S
C630 C616 1.377 . S
C630 C629 1.373 1_556 S
C631 C615 1.377 . S
C631 C629 1.389 . S
C631 C632 1.524 . S
C632 C631 1.524 . S
C632 C633 1.397 . S
C632 C637 1.363 . S
C633 H604 0.950 1_554 S
C633 C632 1.397 . S
C633 C634 1.334 . S
C634 H605 0.950 . S
C634 C633 1.334 . S
C634 C635 1.287 . S
C635 C634 1.287 . S
C635 C636 1.524 . S
C635 H638 0.999 . S
C636 H606 0.950 . S
C636 C635 1.524 . S
C636 C637 1.415 . S
C637 H607 0.950 . S
C637 C632 1.363 . S
C637 C636 1.415 . S
H638 C635 0.999 . S
H639 C620 0.913 . S
H640 C658 0.951 . S
H641 C660 0.951 . S
H642 C662 0.950 . S
H643 C663 0.950 . S
H644 C665 0.950 . S
H645 C668 0.950 . S
H646 C669 0.950 . S
H647 C671 0.950 . S
H648 C672 0.950 . S
H649 C673 0.951 . S
H650 C675 0.951 . S
H651 C677 0.950 . S
H652 C678 0.950 . S
H653 C680 0.950 . S
H654 C683 0.950 . S
H655 C684 0.950 . S
H656 C686 0.950 . S
H657 C687 0.950 . S
C658 H640 0.951 . S
C658 C659 1.366 . S
C658 C660 1.388 . S
C659 C658 1.366 . S
C659 C663 1.385 . S
C660 H641 0.951 . S
C660 C658 1.388 . S
C660 C661 1.366 . S
C661 C660 1.366 . S
C661 C662 1.414 . S
C661 C664 1.499 . S
C662 H642 0.950 . S
C662 C661 1.414 . S
C662 C663 1.374 . S
C663 H643 0.950 . S
C663 C659 1.385 . S
C663 C662 1.374 . S
C664 C661 1.499 . S
C664 C665 1.373 1_554 S
C664 C666 1.389 . S
C665 H644 0.950 . S
C665 C664 1.373 1_556 S
C665 C681 1.377 . S
C666 C664 1.389 . S
C666 C667 1.524 . S
C666 C680 1.377 . S
C667 C666 1.524 . S
C667 C668 1.397 . S
C667 C672 1.363 . S
C668 H645 0.950 . S
C668 C667 1.397 . S
C668 C669 1.334 . S
C669 H646 0.950 . S
C669 C668 1.334 . S
C669 C670 1.287 . S
C670 C669 1.287 . S
C670 C671 1.524 . S
C670 H689 0.913 . S
C671 H647 0.950 . S
C671 C670 1.524 . S
C671 C672 1.415 . S
C672 H648 0.950 . S
C672 C667 1.363 . S
C672 C671 1.415 . S
C673 H649 0.951 . S
C673 C674 1.366 . S
C673 C675 1.388 . S
C674 C673 1.366 . S
C674 C678 1.385 1_554 S
C675 H650 0.951 . S
C675 C673 1.388 . S
C675 C676 1.366 . S
C676 C675 1.366 . S
C676 C677 1.414 1_554 S
C676 C679 1.499 . S
C677 H651 0.950 . S
C677 C676 1.414 1_556 S
C677 C678 1.374 . S
C678 H652 0.950 . S
C678 C674 1.385 1_556 S
C678 C677 1.374 . S
C679 C676 1.499 . S
C679 C680 1.373 . S
C679 C681 1.389 1_554 S
C680 H653 0.950 . S
C680 C666 1.377 . S
C680 C679 1.373 . S
C681 C665 1.377 . S
C681 C679 1.389 1_556 S
C681 C682 1.524 . S
C682 C681 1.524 . S
C682 C683 1.397 . S
C682 C687 1.363 . S
C683 H654 0.950 . S
C683 C682 1.397 . S
C683 C684 1.334 . S
C684 H655 0.950 . S
C684 C683 1.334 . S
C684 C685 1.287 . S
C685 C684 1.287 . S
C685 C686 1.524 . S
C685 H688 0.999 . S
C686 H656 0.950 . S
C686 C685 1.524 . S
C686 C687 1.415 . S
C687 H657 0.950 . S
C687 C682 1.363 . S
C687 C686 1.415 . S
H688 C685 0.999 . S
H689 C670 0.913 . S
H690 C708 0.951 . S
H691 C710 0.951 . S
H692 C712 0.950 . S
H693 C713 0.950 . S
H694 C715 0.950 . S
H695 C718 0.950 1_556 S
H696 C719 0.950 . S
H697 C721 0.950 . S
H698 C722 0.950 . S
H699 C723 0.951 . S
H700 C725 0.951 . S
H701 C727 0.950 . S
H702 C728 0.950 . S
H703 C730 0.950 . S
H704 C733 0.950 1_554 S
H705 C734 0.950 . S
H706 C736 0.950 . S
H707 C737 0.950 . S
C708 H690 0.951 . S
C708 C709 1.366 . S
C708 C710 1.388 . S
C709 C708 1.366 . S
C709 C713 1.385 1_554 S
C710 H691 0.951 . S
C710 C708 1.388 . S
C710 C711 1.366 . S
C711 C710 1.366 . S
C711 C712 1.414 1_554 S
C711 C714 1.499 . S
C712 H692 0.950 . S
C712 C711 1.414 1_556 S
C712 C713 1.374 . S
C713 H693 0.950 . S
C713 C709 1.385 1_556 S
C713 C712 1.374 . S
C714 C711 1.499 . S
C714 C715 1.373 1_554 S
C714 C716 1.389 . S
C715 H694 0.950 . S
C715 C714 1.373 1_556 S
C715 C731 1.377 . S
C716 C714 1.389 . S
C716 C717 1.524 . S
C716 C730 1.377 . S
C717 C716 1.524 . S
C717 C718 1.397 . S
C717 C722 1.363 . S
C718 H695 0.950 1_554 S
C718 C717 1.397 . S
C718 C719 1.334 . S
C719 H696 0.950 . S
C719 C718 1.334 . S
C719 C720 1.287 . S
C720 C719 1.287 . S
C720 C721 1.524 . S
C720 H739 0.913 . S
C721 H697 0.950 . S
C721 C720 1.524 . S
C721 C722 1.415 . S
C722 H698 0.950 . S
C722 C717 1.363 . S
C722 C721 1.415 . S
C723 H699 0.951 . S
C723 C724 1.366 1_556 S
C723 C725 1.388 . S
C724 C723 1.366 1_554 S
C724 C728 1.385 . S
C725 H700 0.951 . S
C725 C723 1.388 . S
C725 C726 1.366 1_556 S
C726 C725 1.366 1_554 S
C726 C727 1.414 . S
C726 C729 1.499 . S
C727 H701 0.950 . S
C727 C726 1.414 . S
C727 C728 1.374 . S
C728 H702 0.950 . S
C728 C724 1.385 . S
C728 C727 1.374 . S
C729 C726 1.499 . S
C729 C730 1.373 . S
C729 C731 1.389 1_554 S
C730 H703 0.950 . S
C730 C716 1.377 . S
C730 C729 1.373 . S
C731 C715 1.377 . S
C731 C729 1.389 1_556 S
C731 C732 1.524 . S
C732 C731 1.524 . S
C732 C733 1.397 . S
C732 C737 1.363 . S
C733 H704 0.950 1_556 S
C733 C732 1.397 . S
C733 C734 1.334 . S
C734 H705 0.950 . S
C734 C733 1.334 . S
C734 C735 1.287 . S
C735 C734 1.287 . S
C735 C736 1.524 . S
C735 H738 0.999 . S
C736 H706 0.950 . S
C736 C735 1.524 . S
C736 C737 1.415 . S
C737 H707 0.950 . S
C737 C732 1.363 . S
C737 C736 1.415 . S
H738 C735 0.999 . S
H739 C720 0.913 . S
H740 C758 0.951 . S
H741 C760 0.951 . S
H742 C762 0.950 . S
H743 C763 0.950 . S
H744 C765 0.950 . S
H745 C768 0.950 . S
H746 C769 0.950 . S
H747 C771 0.950 . S
H748 C772 0.950 . S
H749 C773 0.951 . S
H750 C775 0.951 . S
H751 C777 0.950 . S
H752 C778 0.950 . S
H753 C780 0.950 . S
H754 C783 0.950 . S
H755 C784 0.950 . S
H756 C786 0.950 . S
H757 C787 0.950 . S
C758 H740 0.951 . S
C758 C759 1.366 1_556 S
C758 C760 1.388 . S
C759 C758 1.366 1_554 S
C759 C763 1.385 . S
C760 H741 0.951 . S
C760 C758 1.388 . S
C760 C761 1.366 1_556 S
C761 C760 1.366 1_554 S
C761 C762 1.414 . S
C761 C764 1.499 . S
C762 H742 0.950 . S
C762 C761 1.414 . S
C762 C763 1.374 . S
C763 H743 0.950 . S
C763 C759 1.385 . S
C763 C762 1.374 . S
C764 C761 1.499 . S
C764 C765 1.373 . S
C764 C766 1.389 1_554 S
C765 H744 0.950 . S
C765 C764 1.373 . S
C765 C781 1.377 . S
C766 C764 1.389 1_556 S
C766 C767 1.524 . S
C766 C780 1.377 . S
C767 C766 1.524 . S
C767 C768 1.397 . S
C767 C772 1.363 . S
C768 H745 0.950 . S
C768 C767 1.397 . S
C768 C769 1.334 . S
C769 H746 0.950 . S
C769 C768 1.334 . S
C769 C770 1.287 . S
C770 C769 1.287 . S
C770 C771 1.524 . S
C770 H789 0.913 . S
C771 H747 0.950 . S
C771 C770 1.524 . S
C771 C772 1.415 . S
C772 H748 0.950 . S
C772 C767 1.363 . S
C772 C771 1.415 . S
C773 H749 0.951 . S
C773 C774 1.376 . S
C773 C775 1.388 . S
C774 C773 1.376 . S
C774 C778 1.375 1_554 S
C775 H750 0.951 . S
C775 C773 1.388 . S
C775 C776 1.366 . S
C776 C775 1.366 . S
C776 C777 1.414 1_554 S
C776 C779 1.499 . S
C777 H751 0.950 . S
C777 C776 1.414 1_556 S
C777 C778 1.374 . S
C778 H752 0.950 . S
C778 C774 1.375 1_556 S
C778 C777 1.374 . S
C779 C776 1.499 . S
C779 C780 1.373 1_554 S
C779 C781 1.389 . S
C780 H753 0.950 . S
C780 C766 1.377 . S
C780 C779 1.373 1_556 S
C781 C765 1.377 . S
C781 C779 1.389 . S
C781 C782 1.524 . S
C782 C781 1.524 . S
C782 C783 1.397 . S
C782 C787 1.363 . S
C783 H754 0.950 . S
C783 C782 1.397 . S
C783 C784 1.334 . S
C784 H755 0.950 . S
C784 C783 1.334 . S
C784 C785 1.287 . S
C785 C784 1.287 . S
C785 C786 1.524 . S
C785 H788 0.999 . S
C786 H756 0.950 . S
C786 C785 1.524 . S
C786 C787 1.415 . S
C787 H757 0.950 . S
C787 C782 1.363 . S
C787 C786 1.415 . S
H788 C785 0.999 . S
H789 C770 0.913 . S
H790 C808 0.951 . S
H791 C810 0.951 . S
H792 C812 0.950 . S
H793 C813 0.950 . S
H794 C815 0.950 . S
H795 C818 0.950 . S
H796 C819 0.950 . S
H797 C821 0.950 . S
H798 C822 0.950 . S
H799 C823 0.951 . S
H800 C825 0.951 . S
H801 C827 0.950 . S
H802 C828 0.950 . S
H803 C830 0.950 . S
H804 C833 0.950 . S
H805 C834 0.950 . S
H806 C836 0.950 . S
H807 C837 0.950 . S
C808 H790 0.951 . S
C808 C809 1.379 . S
C808 C810 1.388 . S
C809 C808 1.379 . S
C809 C813 1.372 1_554 S
C810 H791 0.951 . S
C810 C808 1.388 . S
C810 C811 1.366 . S
C811 C810 1.366 . S
C811 C812 1.414 1_554 S
C811 C814 1.499 . S
C812 H792 0.950 . S
C812 C811 1.414 1_556 S
C812 C813 1.374 . S
C813 H793 0.950 . S
C813 C809 1.372 1_556 S
C813 C812 1.374 . S
C814 C811 1.499 . S
C814 C815 1.373 1_554 S
C814 C816 1.389 . S
C815 H794 0.950 . S
C815 C814 1.373 1_556 S
C815 C831 1.377 . S
C816 C814 1.389 . S
C816 C817 1.524 . S
C816 C830 1.377 . S
C817 C816 1.524 . S
C817 C818 1.397 . S
C817 C822 1.363 . S
C818 H795 0.950 . S
C818 C817 1.397 . S
C818 C819 1.334 . S
C819 H796 0.950 . S
C819 C818 1.334 . S
C819 C820 1.287 . S
C820 C819 1.287 . S
C820 C821 1.524 . S
C820 H839 0.913 . S
C821 H797 0.950 . S
C821 C820 1.524 . S
C821 C822 1.415 . S
C822 H798 0.950 . S
C822 C817 1.363 . S
C822 C821 1.415 . S
C823 H799 0.951 . S
C823 C824 1.366 1_556 S
C823 C825 1.388 . S
C824 C823 1.366 1_554 S
C824 C828 1.385 . S
C825 H800 0.951 . S
C825 C823 1.388 . S
C825 C826 1.366 1_556 S
C826 C825 1.366 1_554 S
C826 C827 1.414 . S
C826 C829 1.499 . S
C827 H801 0.950 . S
C827 C826 1.414 . S
C827 C828 1.374 . S
C828 H802 0.950 . S
C828 C824 1.385 . S
C828 C827 1.374 . S
C829 C826 1.499 . S
C829 C830 1.373 . S
C829 C831 1.389 1_554 S
C830 H803 0.950 . S
C830 C816 1.377 . S
C830 C829 1.373 . S
C831 C815 1.377 . S
C831 C829 1.389 1_556 S
C831 C832 1.524 . S
C832 C831 1.524 . S
C832 C833 1.397 . S
C832 C837 1.363 . S
C833 H804 0.950 . S
C833 C832 1.397 . S
C833 C834 1.334 . S
C834 H805 0.950 . S
C834 C833 1.334 . S
C834 C835 1.287 . S
C835 C834 1.287 . S
C835 C836 1.524 . S
C835 H838 0.999 . S
C836 H806 0.950 . S
C836 C835 1.524 . S
C836 C837 1.415 . S
C837 H807 0.950 . S
C837 C832 1.363 . S
C837 C836 1.415 . S
H838 C835 0.999 . S
H839 C820 0.913 . S
H840 C858 0.951 . S
H841 C860 0.951 . S
H842 C862 0.950 . S
H843 C863 0.950 . S
H844 C865 0.950 . S
H845 C868 0.950 . S
H846 C869 0.950 . S
H847 C871 0.950 . S
H848 C872 0.950 . S
H849 C873 0.951 . S
H850 C875 0.951 . S
H851 C877 0.950 . S
H852 C878 0.950 . S
H853 C880 0.950 . S
H854 C883 0.950 . S
H855 C884 0.950 . S
H856 C886 0.950 . S
H857 C887 0.950 . S
C858 H840 0.951 . S
C858 C859 1.366 . S
C858 C860 1.388 . S
C859 C858 1.366 . S
C859 C863 1.385 . S
C860 H841 0.951 . S
C860 C858 1.388 . S
C860 C861 1.366 . S
C861 C860 1.366 . S
C861 C862 1.414 . S
C861 C864 1.499 . S
C862 H842 0.950 . S
C862 C861 1.414 . S
C862 C863 1.374 . S
C863 H843 0.950 . S
C863 C859 1.385 . S
C863 C862 1.374 . S
C864 C861 1.499 . S
C864 C865 1.373 . S
C864 C866 1.389 . S
C865 H844 0.950 . S
C865 C864 1.373 . S
C865 C881 1.377 . S
C866 C864 1.389 . S
C866 C867 1.524 . S
C866 C880 1.377 . S
C867 C866 1.524 . S
C867 C868 1.397 . S
C867 C872 1.363 . S
C868 H845 0.950 . S
C868 C867 1.397 . S
C868 C869 1.334 . S
C869 H846 0.950 . S
C869 C868 1.334 . S
C869 C870 1.287 . S
C870 C869 1.287 . S
C870 C871 1.524 . S
C870 H889 0.913 . S
C871 H847 0.950 . S
C871 C870 1.524 . S
C871 C872 1.415 . S
C872 H848 0.950 . S
C872 C867 1.363 . S
C872 C871 1.415 . S
C873 H849 0.951 . S
C873 C874 1.366 . S
C873 C875 1.388 . S
C874 C873 1.366 . S
C874 C878 1.385 . S
C875 H850 0.951 . S
C875 C873 1.388 . S
C875 C876 1.366 . S
C876 C875 1.366 . S
C876 C877 1.414 . S
C876 C879 1.499 . S
C877 H851 0.950 . S
C877 C876 1.414 . S
C877 C878 1.374 . S
C878 H852 0.950 . S
C878 C874 1.385 . S
C878 C877 1.374 . S
C879 C876 1.499 . S
C879 C880 1.373 . S
C879 C881 1.389 . S
C880 H853 0.950 . S
C880 C866 1.377 . S
C880 C879 1.373 . S
C881 C865 1.377 . S
C881 C879 1.389 . S
C881 C882 1.524 . S
C882 C881 1.524 . S
C882 C883 1.397 . S
C882 C887 1.363 . S
C883 H854 0.950 . S
C883 C882 1.397 . S
C883 C884 1.334 . S
C884 H855 0.950 . S
C884 C883 1.334 . S
C884 C885 1.287 . S
C885 C884 1.287 . S
C885 C886 1.524 . S
C885 H888 0.999 . S
C886 H856 0.950 . S
C886 C885 1.524 . S
C886 C887 1.415 . S
C887 H857 0.950 . S
C887 C882 1.363 . S
C887 C886 1.415 . S
H888 C885 0.999 . S
H889 C870 0.913 . S
H890 C908 0.951 . S
H891 C910 0.951 . S
H892 C912 0.950 . S
H893 C913 0.950 . S
H894 C915 0.950 . S
H895 C918 0.950 . S
H896 C919 0.950 . S
H897 C921 0.950 . S
H898 C922 0.950 . S
H899 C923 0.951 . S
H900 C925 0.951 . S
H901 C927 0.950 . S
H902 C928 0.950 . S
H903 C930 0.950 . S
H904 C933 0.950 . S
H905 C934 0.950 . S
H906 C936 0.950 . S
H907 C937 0.950 . S
C908 H890 0.951 . S
C908 C909 1.366 . S
C908 C910 1.388 . S
C909 C908 1.366 . S
C909 C913 1.385 . S
C910 H891 0.951 . S
C910 C908 1.388 . S
C910 C911 1.366 . S
C911 C910 1.366 . S
C911 C912 1.414 . S
C911 C914 1.499 . S
C912 H892 0.950 . S
C912 C911 1.414 . S
C912 C913 1.374 . S
C913 H893 0.950 . S
C913 C909 1.385 . S
C913 C912 1.374 . S
C914 C911 1.499 . S
C914 C915 1.373 . S
C914 C916 1.389 . S
C915 H894 0.950 . S
C915 C914 1.373 . S
C915 C931 1.377 . S
C916 C914 1.389 . S
C916 C917 1.524 . S
C916 C930 1.377 . S
C917 C916 1.524 . S
C917 C918 1.397 . S
C917 C922 1.363 . S
C918 H895 0.950 . S
C918 C917 1.397 . S
C918 C919 1.334 . S
C919 H896 0.950 . S
C919 C918 1.334 . S
C919 C920 1.287 . S
C920 C919 1.287 . S
C920 C921 1.524 . S
C920 H939 0.913 . S
C921 H897 0.950 . S
C921 C920 1.524 . S
C921 C922 1.415 . S
C922 H898 0.950 . S
C922 C917 1.363 . S
C922 C921 1.415 . S
C923 H899 0.951 . S
C923 C924 1.366 . S
C923 C925 1.388 . S
C924 C923 1.366 . S
C924 C928 1.385 . S
C925 H900 0.951 . S
C925 C923 1.388 . S
C925 C926 1.366 . S
C926 C925 1.366 . S
C926 C927 1.414 . S
C926 C929 1.499 . S
C927 H901 0.950 . S
C927 C926 1.414 . S
C927 C928 1.374 . S
C928 H902 0.950 . S
C928 C924 1.385 . S
C928 C927 1.374 . S
C929 C926 1.499 . S
C929 C930 1.373 . S
C929 C931 1.389 . S
C930 H903 0.950 . S
C930 C916 1.377 . S
C930 C929 1.373 . S
C931 C915 1.377 . S
C931 C929 1.389 . S
C931 C932 1.524 . S
C932 C931 1.524 . S
C932 C933 1.397 . S
C932 C937 1.363 . S
C933 H904 0.950 . S
C933 C932 1.397 . S
C933 C934 1.334 . S
C934 H905 0.950 . S
C934 C933 1.334 . S
C934 C935 1.287 . S
C935 C934 1.287 . S
C935 C936 1.524 . S
C935 H938 0.999 . S
C936 H906 0.950 . S
C936 C935 1.524 . S
C936 C937 1.415 . S
C937 H907 0.950 . S
C937 C932 1.363 . S
C937 C936 1.415 . S
H938 C935 0.999 . S
H939 C920 0.913 . S
H940 C958 0.951 . S
H941 C960 0.951 . S
H942 C962 0.950 . S
H943 C963 0.950 . S
H944 C965 0.950 . S
H945 C968 0.950 . S
H946 C969 0.950 . S
H947 C971 0.950 . S
H948 C972 0.950 . S
H949 C973 0.951 . S
H950 C975 0.951 . S
H951 C977 0.950 . S
H952 C978 0.950 . S
H953 C980 0.950 . S
H954 C983 0.950 . S
H955 C984 0.950 . S
H956 C986 0.950 . S
H957 C987 0.950 . S
C958 H940 0.951 . S
C958 C959 1.366 . S
C958 C960 1.388 . S
C959 C958 1.366 . S
C959 C963 1.385 . S
C960 H941 0.951 . S
C960 C958 1.388 . S
C960 C961 1.366 . S
C961 C960 1.366 . S
C961 C962 1.414 . S
C961 C964 1.499 . S
C962 H942 0.950 . S
C962 C961 1.414 . S
C962 C963 1.374 . S
C963 H943 0.950 . S
C963 C959 1.385 . S
C963 C962 1.374 . S
C964 C961 1.499 . S
C964 C965 1.373 . S
C964 C966 1.389 . S
C965 H944 0.950 . S
C965 C964 1.373 . S
C965 C981 1.377 . S
C966 C964 1.389 . S
C966 C967 1.524 . S
C966 C980 1.377 . S
C967 C966 1.524 . S
C967 C968 1.397 . S
C967 C972 1.363 . S
C968 H945 0.950 . S
C968 C967 1.397 . S
C968 C969 1.334 . S
C969 H946 0.950 . S
C969 C968 1.334 . S
C969 C970 1.287 . S
C970 C969 1.287 . S
C970 C971 1.524 . S
C970 H989 0.913 . S
C971 H947 0.950 . S
C971 C970 1.524 . S
C971 C972 1.415 . S
C972 H948 0.950 . S
C972 C967 1.363 . S
C972 C971 1.415 . S
C973 H949 0.951 . S
C973 C974 1.366 . S
C973 C975 1.388 . S
C974 C973 1.366 . S
C974 C978 1.385 . S
C975 H950 0.951 . S
C975 C973 1.388 . S
C975 C976 1.366 . S
C976 C975 1.366 . S
C976 C977 1.414 . S
C976 C979 1.499 . S
C977 H951 0.950 . S
C977 C976 1.414 . S
C977 C978 1.374 . S
C978 H952 0.950 . S
C978 C974 1.385 . S
C978 C977 1.374 . S
C979 C976 1.499 . S
C979 C980 1.373 . S
C979 C981 1.389 . S
C980 H953 0.950 . S
C980 C966 1.377 . S
C980 C979 1.373 . S
C981 C965 1.377 . S
C981 C979 1.389 . S
C981 C982 1.524 . S
C982 C981 1.524 . S
C982 C983 1.397 . S
C982 C987 1.363 . S
C983 H954 0.950 . S
C983 C982 1.397 . S
C983 C984 1.334 . S
C984 H955 0.950 . S
C984 C983 1.334 . S
C984 C985 1.287 . S
C985 C984 1.287 . S
C985 C986 1.524 . S
C985 H988 0.999 . S
C986 H956 0.950 . S
C986 C985 1.524 . S
C986 C987 1.415 . S
C987 H957 0.950 . S
C987 C982 1.363 . S
C987 C986 1.415 . S
H988 C985 0.999 . S
H989 C970 0.913 . S
H990 C1008 0.951 . S
H991 C1010 0.951 . S
H992 C1012 0.950 . S
H993 C1013 0.950 . S
H994 C1015 0.950 . S
H995 C1018 0.950 . S
H996 C1019 0.950 . S
H997 C1021 0.950 . S
H998 C1022 0.950 . S
H999 C1023 0.951 . S
H1000 C1025 0.951 . S
H1001 C1027 0.950 . S
H1002 C1028 0.950 . S
H1003 C1030 0.950 . S
H1004 C1033 0.950 . S
H1005 C1034 0.950 . S
H1006 C1036 0.950 . S
H1007 C1037 0.950 . S
C1008 H990 0.951 . S
C1008 C1009 1.366 . S
C1008 C1010 1.388 . S
C1009 C1008 1.366 . S
C1009 C1013 1.385 . S
C1010 H991 0.951 . S
C1010 C1008 1.388 . S
C1010 C1011 1.366 . S
C1011 C1010 1.366 . S
C1011 C1012 1.414 . S
C1011 C1014 1.499 . S
C1012 H992 0.950 . S
C1012 C1011 1.414 . S
C1012 C1013 1.374 . S
C1013 H993 0.950 . S
C1013 C1009 1.385 . S
C1013 C1012 1.374 . S
C1014 C1011 1.499 . S
C1014 C1015 1.373 . S
C1014 C1016 1.389 . S
C1015 H994 0.950 . S
C1015 C1014 1.373 . S
C1015 C1031 1.377 . S
C1016 C1014 1.389 . S
C1016 C1017 1.524 . S
C1016 C1030 1.377 . S
C1017 C1016 1.524 . S
C1017 C1018 1.397 . S
C1017 C1022 1.363 . S
C1018 H995 0.950 . S
C1018 C1017 1.397 . S
C1018 C1019 1.334 . S
C1019 H996 0.950 . S
C1019 C1018 1.334 . S
C1019 C1020 1.287 . S
C1020 C1019 1.287 . S
C1020 C1021 1.524 . S
C1020 H1039 0.913 . S
C1021 H997 0.950 . S
C1021 C1020 1.524 . S
C1021 C1022 1.415 . S
C1022 H998 0.950 . S
C1022 C1017 1.363 . S
C1022 C1021 1.415 . S
C1023 H999 0.951 . S
C1023 C1024 1.366 . S
C1023 C1025 1.388 . S
C1024 C1023 1.366 . S
C1024 C1028 1.385 . S
C1025 H1000 0.951 . S
C1025 C1023 1.388 . S
C1025 C1026 1.366 . S
C1026 C1025 1.366 . S
C1026 C1027 1.414 . S
C1026 C1029 1.499 . S
C1027 H1001 0.950 . S
C1027 C1026 1.414 . S
C1027 C1028 1.374 . S
C1028 H1002 0.950 . S
C1028 C1024 1.385 . S
C1028 C1027 1.374 . S
C1029 C1026 1.499 . S
C1029 C1030 1.373 . S
C1029 C1031 1.389 . S
C1030 H1003 0.950 . S
C1030 C1016 1.377 . S
C1030 C1029 1.373 . S
C1031 C1015 1.377 . S
C1031 C1029 1.389 . S
C1031 C1032 1.524 . S
C1032 C1031 1.524 . S
C1032 C1033 1.397 . S
C1032 C1037 1.363 . S
C1033 H1004 0.950 . S
C1033 C1032 1.397 . S
C1033 C1034 1.334 . S
C1034 H1005 0.950 . S
C1034 C1033 1.334 . S
C1034 C1035 1.287 . S
C1035 C1034 1.287 . S
C1035 C1036 1.524 . S
C1035 H1038 0.999 . S
C1036 H1006 0.950 . S
C1036 C1035 1.524 . S
C1036 C1037 1.415 . S
C1037 H1007 0.950 . S
C1037 C1032 1.363 . S
C1037 C1036 1.415 . S
H1038 C1035 0.999 . S
H1039 C1020 0.913 . S
H1040 C1058 0.951 . S
H1041 C1060 0.951 . S
H1042 C1062 0.950 . S
H1043 C1063 0.950 . S
H1044 C1065 0.950 . S
H1045 C1068 0.950 . S
H1046 C1069 0.950 . S
H1047 C1071 0.950 . S
H1048 C1072 0.950 . S
H1049 C1073 0.951 . S
H1050 C1075 0.951 . S
H1051 C1077 0.950 . S
H1052 C1078 0.950 . S
H1053 C1080 0.950 . S
H1054 C1083 0.950 . S
H1055 C1084 0.950 . S
H1056 C1086 0.950 . S
H1057 C1087 0.950 . S
C1058 H1040 0.951 . S
C1058 C1059 1.366 . S
C1058 C1060 1.388 . S
C1059 C1058 1.366 . S
C1059 C1063 1.385 . S
C1060 H1041 0.951 . S
C1060 C1058 1.388 . S
C1060 C1061 1.366 . S
C1061 C1060 1.366 . S
C1061 C1062 1.414 . S
C1061 C1064 1.499 . S
C1062 H1042 0.950 . S
C1062 C1061 1.414 . S
C1062 C1063 1.374 . S
C1063 H1043 0.950 . S
C1063 C1059 1.385 . S
C1063 C1062 1.374 . S
C1064 C1061 1.499 . S
C1064 C1065 1.373 . S
C1064 C1066 1.389 . S
C1065 H1044 0.950 . S
C1065 C1064 1.373 . S
C1065 C1081 1.377 . S
C1066 C1064 1.389 . S
C1066 C1067 1.524 . S
C1066 C1080 1.377 . S
C1067 C1066 1.524 . S
C1067 C1068 1.397 . S
C1067 C1072 1.363 . S
C1068 H1045 0.950 . S
C1068 C1067 1.397 . S
C1068 C1069 1.334 . S
C1069 H1046 0.950 . S
C1069 C1068 1.334 . S
C1069 C1070 1.287 . S
C1070 C1069 1.287 . S
C1070 C1071 1.524 . S
C1070 H1089 0.913 . S
C1071 H1047 0.950 . S
C1071 C1070 1.524 . S
C1071 C1072 1.415 . S
C1072 H1048 0.950 . S
C1072 C1067 1.363 . S
C1072 C1071 1.415 . S
C1073 H1049 0.951 . S
C1073 C1074 1.366 . S
C1073 C1075 1.388 . S
C1074 C1073 1.366 . S
C1074 C1078 1.385 . S
C1075 H1050 0.951 . S
C1075 C1073 1.388 . S
C1075 C1076 1.366 . S
C1076 C1075 1.366 . S
C1076 C1077 1.414 . S
C1076 C1079 1.499 . S
C1077 H1051 0.950 . S
C1077 C1076 1.414 . S
C1077 C1078 1.374 . S
C1078 H1052 0.950 . S
C1078 C1074 1.385 . S
C1078 C1077 1.374 . S
C1079 C1076 1.499 . S
C1079 C1080 1.373 . S
C1079 C1081 1.389 . S
C1080 H1053 0.950 . S
C1080 C1066 1.377 . S
C1080 C1079 1.373 . S
C1081 C1065 1.377 . S
C1081 C1079 1.389 . S
C1081 C1082 1.524 . S
C1082 C1081 1.524 . S
C1082 C1083 1.397 . S
C1082 C1087 1.363 . S
C1083 H1054 0.950 . S
C1083 C1082 1.397 . S
C1083 C1084 1.334 . S
C1084 H1055 0.950 . S
C1084 C1083 1.334 . S
C1084 C1085 1.287 . S
C1085 C1084 1.287 . S
C1085 C1086 1.524 . S
C1085 H1088 0.999 . S
C1086 H1056 0.950 . S
C1086 C1085 1.524 . S
C1086 C1087 1.415 . S
C1087 H1057 0.950 . S
C1087 C1082 1.363 . S
C1087 C1086 1.415 . S
H1088 C1085 0.999 . S
H1089 C1070 0.913 . S
H1090 C1108 0.951 . S
H1091 C1110 0.951 . S
H1092 C1112 0.950 . S
H1093 C1113 0.950 . S
H1094 C1115 0.950 . S
H1095 C1118 0.950 . S
H1096 C1119 0.950 . S
H1097 C1121 0.950 . S
H1098 C1122 0.950 . S
H1099 C1123 0.951 . S
H1100 C1125 0.951 . S
H1101 C1127 0.950 . S
H1102 C1128 0.950 . S
H1103 C1130 0.950 . S
H1104 C1133 0.950 . S
H1105 C1134 0.950 . S
H1106 C1136 0.950 . S
H1107 C1137 0.950 . S
C1108 H1090 0.951 . S
C1108 C1109 1.366 . S
C1108 C1110 1.388 . S
C1109 C1108 1.366 . S
C1109 C1113 1.385 . S
C1110 H1091 0.951 . S
C1110 C1108 1.388 . S
C1110 C1111 1.366 . S
C1111 C1110 1.366 . S
C1111 C1112 1.414 . S
C1111 C1114 1.499 . S
C1112 H1092 0.950 . S
C1112 C1111 1.414 . S
C1112 C1113 1.374 . S
C1113 H1093 0.950 . S
C1113 C1109 1.385 . S
C1113 C1112 1.374 . S
C1114 C1111 1.499 . S
C1114 C1115 1.373 . S
C1114 C1116 1.389 . S
C1115 H1094 0.950 . S
C1115 C1114 1.373 . S
C1115 C1131 1.377 . S
C1116 C1114 1.389 . S
C1116 C1117 1.524 . S
C1116 C1130 1.377 . S
C1117 C1116 1.524 . S
C1117 C1118 1.397 . S
C1117 C1122 1.363 . S
C1118 H1095 0.950 . S
C1118 C1117 1.397 . S
C1118 C1119 1.334 . S
C1119 H1096 0.950 . S
C1119 C1118 1.334 . S
C1119 C1120 1.287 . S
C1120 C1119 1.287 . S
C1120 C1121 1.524 . S
C1120 H1139 0.913 . S
C1121 H1097 0.950 . S
C1121 C1120 1.524 . S
C1121 C1122 1.415 . S
C1122 H1098 0.950 . S
C1122 C1117 1.363 . S
C1122 C1121 1.415 . S
C1123 H1099 0.951 . S
C1123 C1124 1.366 . S
C1123 C1125 1.388 . S
C1124 C1123 1.366 . S
C1124 C1128 1.385 . S
C1125 H1100 0.951 . S
C1125 C1123 1.388 . S
C1125 C1126 1.366 . S
C1126 C1125 1.366 . S
C1126 C1127 1.414 . S
C1126 C1129 1.499 . S
C1127 H1101 0.950 . S
C1127 C1126 1.414 . S
C1127 C1128 1.374 . S
C1128 H1102 0.950 . S
C1128 C1124 1.385 . S
C1128 C1127 1.374 . S
C1129 C1126 1.499 . S
C1129 C1130 1.373 . S
C1129 C1131 1.389 . S
C1130 H1103 0.950 . S
C1130 C1116 1.377 . S
C1130 C1129 1.373 . S
C1131 C1115 1.377 . S
C1131 C1129 1.389 . S
C1131 C1132 1.524 . S
C1132 C1131 1.524 . S
C1132 C1133 1.397 . S
C1132 C1137 1.363 . S
C1133 H1104 0.950 . S
C1133 C1132 1.397 . S
C1133 C1134 1.334 . S
C1134 H1105 0.950 . S
C1134 C1133 1.334 . S
C1134 C1135 1.287 . S
C1135 C1134 1.287 . S
C1135 C1136 1.524 . S
C1135 H1138 0.999 . S
C1136 H1106 0.950 . S
C1136 C1135 1.524 . S
C1136 C1137 1.415 . S
C1137 H1107 0.950 . S
C1137 C1132 1.363 . S
C1137 C1136 1.415 . S
H1138 C1135 0.999 . S
H1139 C1120 0.913 . S
C259 C219 1.615 1_556 S
C274 C15 1.491 . S
C309 C19 1.616 1_556 S
C324 C55 1.491 . S
C359 C59 1.616 1_556 S
C374 C95 1.490 . S
C409 C135 1.491 . S
C424 C99 1.615 . S
C459 C175 1.491 . S
C474 C139 1.615 1_556 S
C509 C179 1.615 1_556 S
C524 C215 1.492 . S
C559 C170 2.027 1_554 S
C574 C6 2.028 . S
C609 C210 2.027 1_554 S
C624 C46 2.028 . S
C659 C86 2.028 . S
C674 C10 2.027 1_554 S
C709 C126 2.028 . S
C724 C50 2.027 1_554 S
C759 C166 2.028 . S
C774 C90 2.025 1_554 S
C809 C130 2.025 1_554 S
C824 C206 2.028 . S
C859 C9 1.441 . S
C874 C18 1.441 . S
C909 C49 1.441 . S
C924 C58 1.441 . S
C959 C89 1.441 . S
C974 C98 1.441 . S
C1009 C129 1.442 . S
C1024 C138 1.442 . S
C1059 C178 1.442 . S
C1074 C169 1.442 . S
C1109 C209 1.442 . S
C1124 C218 1.442 . S
