# Generated by pormake.
# Topology xfk, (7)-cn, num edge types: 1
# Building blocks:
#     Node 0, Type 0, BuildingBlock: HICVOG_clean_sbu_0, # of connection points: 7
#     Node 1, Type 0, BuildingBlock: HICVOG_clean_sbu_0, # of connection points: 7
#     Node 2, Type 0, BuildingBlock: HICVOG_clean_sbu_0, # of connection points: 7
#     Node 3, Type 0, BuildingBlock: HICVOG_clean_sbu_0, # of connection points: 7
#     Node 4, Type 0, BuildingBlock: HICVOG_clean_sbu_0, # of connection points: 7
#     Node 5, Type 0, BuildingBlock: HICVOG_clean_sbu_0, # of connection points: 7
#     Node 6, Type 0, BuildingBlock: HICVOG_clean_sbu_0, # of connection points: 7
#     Node 7, Type 0, BuildingBlock: HICVOG_clean_sbu_0, # of connection points: 7
#     Node 8, Type 0, BuildingBlock: HICVOG_clean_sbu_0, # of connection points: 7
#     Node 9, Type 0, BuildingBlock: HICVOG_clean_sbu_0, # of connection points: 7
#     Node 10, Type 0, BuildingBlock: HICVOG_clean_sbu_0, # of connection points: 7
#     Node 11, Type 0, BuildingBlock: HICVOG_clean_sbu_0, # of connection points: 7
#     Node 12, Type 0, BuildingBlock: HICVOG_clean_sbu_0, # of connection points: 7
#     Node 13, Type 0, BuildingBlock: HICVOG_clean_sbu_0, # of connection points: 7
#     Node 14, Type 0, BuildingBlock: HICVOG_clean_sbu_0, # of connection points: 7
#     Node 15, Type 0, BuildingBlock: HICVOG_clean_sbu_0, # of connection points: 7
#     Edge 16, Type (0, 0), BuildingBlock: ZUJKAS_clean_linker_0, # of connection points: 2
#     Edge 17, Type (0, 0), BuildingBlock: ZUJKAS_clean_linker_0, # of connection points: 2
#     Edge 18, Type (0, 0), BuildingBlock: ZUJKAS_clean_linker_0, # of connection points: 2
#     Edge 19, Type (0, 0), BuildingBlock: ZUJKAS_clean_linker_0, # of connection points: 2
#     Edge 20, Type (0, 0), BuildingBlock: ZUJKAS_clean_linker_0, # of connection points: 2
#     Edge 21, Type (0, 0), BuildingBlock: ZUJKAS_clean_linker_0, # of connection points: 2
#     Edge 22, Type (0, 0), BuildingBlock: ZUJKAS_clean_linker_0, # of connection points: 2
#     Edge 23, Type (0, 0), BuildingBlock: ZUJKAS_clean_linker_0, # of connection points: 2
#     Edge 24, Type (0, 0), BuildingBlock: ZUJKAS_clean_linker_0, # of connection points: 2
#     Edge 25, Type (0, 0), BuildingBlock: ZUJKAS_clean_linker_0, # of connection points: 2
#     Edge 26, Type (0, 0), BuildingBlock: ZUJKAS_clean_linker_0, # of connection points: 2
#     Edge 27, Type (0, 0), BuildingBlock: ZUJKAS_clean_linker_0, # of connection points: 2
#     Edge 28, Type (0, 0), BuildingBlock: ZUJKAS_clean_linker_0, # of connection points: 2
#     Edge 29, Type (0, 0), BuildingBlock: ZUJKAS_clean_linker_0, # of connection points: 2
#     Edge 30, Type (0, 0), BuildingBlock: ZUJKAS_clean_linker_0, # of connection points: 2
#     Edge 31, Type (0, 0), BuildingBlock: ZUJKAS_clean_linker_0, # of connection points: 2
#     Edge 32, Type (0, 0), BuildingBlock: ZUJKAS_clean_linker_0, # of connection points: 2
#     Edge 33, Type (0, 0), BuildingBlock: ZUJKAS_clean_linker_0, # of connection points: 2
#     Edge 34, Type (0, 0), BuildingBlock: ZUJKAS_clean_linker_0, # of connection points: 2
#     Edge 35, Type (0, 0), BuildingBlock: ZUJKAS_clean_linker_0, # of connection points: 2
#     Edge 36, Type (0, 0), BuildingBlock: ZUJKAS_clean_linker_0, # of connection points: 2
#     Edge 37, Type (0, 0), BuildingBlock: ZUJKAS_clean_linker_0, # of connection points: 2
#     Edge 38, Type (0, 0), BuildingBlock: ZUJKAS_clean_linker_0, # of connection points: 2
#     Edge 39, Type (0, 0), BuildingBlock: ZUJKAS_clean_linker_0, # of connection points: 2
#     Edge 40, Type (0, 0), BuildingBlock: ZUJKAS_clean_linker_0, # of connection points: 2
#     Edge 41, Type (0, 0), BuildingBlock: ZUJKAS_clean_linker_0, # of connection points: 2
#     Edge 42, Type (0, 0), BuildingBlock: ZUJKAS_clean_linker_0, # of connection points: 2
#     Edge 43, Type (0, 0), BuildingBlock: ZUJKAS_clean_linker_0, # of connection points: 2
#     Edge 44, Type (0, 0), BuildingBlock: ZUJKAS_clean_linker_0, # of connection points: 2
#     Edge 45, Type (0, 0), BuildingBlock: ZUJKAS_clean_linker_0, # of connection points: 2
#     Edge 46, Type (0, 0), BuildingBlock: ZUJKAS_clean_linker_0, # of connection points: 2
#     Edge 47, Type (0, 0), BuildingBlock: ZUJKAS_clean_linker_0, # of connection points: 2
#     Edge 48, Type (0, 0), BuildingBlock: ZUJKAS_clean_linker_0, # of connection points: 2
#     Edge 49, Type (0, 0), BuildingBlock: ZUJKAS_clean_linker_0, # of connection points: 2
#     Edge 50, Type (0, 0), BuildingBlock: ZUJKAS_clean_linker_0, # of connection points: 2
#     Edge 51, Type (0, 0), BuildingBlock: ZUJKAS_clean_linker_0, # of connection points: 2
#     Edge 52, Type (0, 0), BuildingBlock: ZUJKAS_clean_linker_0, # of connection points: 2
#     Edge 53, Type (0, 0), BuildingBlock: ZUJKAS_clean_linker_0, # of connection points: 2
#     Edge 54, Type (0, 0), BuildingBlock: ZUJKAS_clean_linker_0, # of connection points: 2
#     Edge 55, Type (0, 0), BuildingBlock: ZUJKAS_clean_linker_0, # of connection points: 2
#     Edge 56, Type (0, 0), BuildingBlock: ZUJKAS_clean_linker_0, # of connection points: 2
#     Edge 57, Type (0, 0), BuildingBlock: ZUJKAS_clean_linker_0, # of connection points: 2
#     Edge 58, Type (0, 0), BuildingBlock: ZUJKAS_clean_linker_0, # of connection points: 2
#     Edge 59, Type (0, 0), BuildingBlock: ZUJKAS_clean_linker_0, # of connection points: 2
#     Edge 60, Type (0, 0), BuildingBlock: ZUJKAS_clean_linker_0, # of connection points: 2
#     Edge 61, Type (0, 0), BuildingBlock: ZUJKAS_clean_linker_0, # of connection points: 2
#     Edge 62, Type (0, 0), BuildingBlock: ZUJKAS_clean_linker_0, # of connection points: 2
#     Edge 63, Type (0, 0), BuildingBlock: ZUJKAS_clean_linker_0, # of connection points: 2
#     Edge 64, Type (0, 0), BuildingBlock: ZUJKAS_clean_linker_0, # of connection points: 2
#     Edge 65, Type (0, 0), BuildingBlock: ZUJKAS_clean_linker_0, # of connection points: 2
#     Edge 66, Type (0, 0), BuildingBlock: ZUJKAS_clean_linker_0, # of connection points: 2
#     Edge 67, Type (0, 0), BuildingBlock: ZUJKAS_clean_linker_0, # of connection points: 2
#     Edge 68, Type (0, 0), BuildingBlock: ZUJKAS_clean_linker_0, # of connection points: 2
#     Edge 69, Type (0, 0), BuildingBlock: ZUJKAS_clean_linker_0, # of connection points: 2
#     Edge 70, Type (0, 0), BuildingBlock: ZUJKAS_clean_linker_0, # of connection points: 2
#     Edge 71, Type (0, 0), BuildingBlock: ZUJKAS_clean_linker_0, # of connection points: 2
# Relax obj value: 0.431
# Max RMSD: 0.275
# Mean RMSD: 0.275
data_MOF--net-xfk--node1-HICVOG_clean_sbu_0--edge1-ZUJKAS_clean_linker_0
_symmetry_space_group_name_H-M    P1
_symmetry_Int_Tables_number       1
_symmetry_cell_setting            triclinic
loop_
_symmetry_equiv_pos_as_xyz
'x, y, z'
_cell_length_a     47.580144
_cell_length_b     47.706036
_cell_length_c     51.560804
_cell_angle_alpha  90.100901
_cell_angle_beta   89.993207
_cell_angle_gamma 90.008578
loop_
_atom_site_label
_atom_site_type_symbol
_atom_site_fract_x
_atom_site_fract_y
_atom_site_fract_z
_atom_type_partial_charge
Zn0 Zn 0.35033 0.09366 0.10525 0.0
C1 C 0.33092 0.09392 1.0292 0.0
N2 N 0.35247 0.11025 1.02237 0.0
C3 C 0.36419 0.11811 0.04487 0.0
N4 N 0.34981 0.10508 0.06577 0.0
N5 N 0.32843 0.09122 0.05511 0.0
C6 C 0.27102 0.04195 0.03971 0.0
O7 O 0.29225 0.02907 0.05082 0.0
O8 O 0.35841 0.12927 0.1241 0.0
Zn9 Zn 0.29243 0.08128 0.07325 0.0
N10 N 0.38352 0.07093 0.10822 0.0
C11 C 0.41961 0.04435 0.08792 0.0
C12 C 0.39464 0.05942 0.08637 0.0
C13 C 0.39586 0.06734 0.13177 0.0
N14 N 0.43235 0.04135 0.11128 0.0
C15 C 0.42107 0.05231 0.13335 0.0
O16 O 0.28739 0.05125 0.10207 0.0
C17 C 0.29659 0.05222 0.12522 0.0
O18 O 0.31811 0.06847 0.12937 0.0
H19 H 0.38439 0.06212 0.06785 0.0
H20 H 0.38658 0.07683 0.14883 0.0
C21 C 0.24968 0.11522 0.09532 0.0
C22 C 0.23841 0.13841 0.10867 0.0
C23 C 0.28349 0.15987 0.10817 0.0
C24 C 0.29443 0.13688 0.09496 0.0
N25 N 0.27735 0.11501 0.0888 0.0
N26 N 0.25586 0.16015 0.11461 0.0
H27 H 0.23679 0.09753 0.08979 0.0
C28 C 0.38146 0.14146 0.11883 0.0
O29 O 0.39904 0.12953 0.10256 0.0
O30 O 0.26586 0.06718 0.04604 0.0
H31 H 0.31637 0.13649 0.08998 0.0
H32 H 0.42894 0.03529 0.07071 0.0
H33 H 0.29684 0.1774 0.11327 0.0
Zn34 Zn 0.07296 0.71084 0.95815 0.0
C35 C 0.08509 0.73503 1.03205 0.0
N36 N 0.10066 0.71294 0.03874 0.0
C37 C 0.10391 0.69829 1.01672 0.0
N38 N 0.08913 0.7118 0.99625 0.0
N39 N 0.07831 0.73496 1.00669 0.0
C40 C 0.03076 0.79376 1.02347 0.0
O41 O 1.01663 0.77156 1.01581 0.0
O42 O 0.10297 0.69194 0.93755 0.0
Zn43 Zn 0.06563 0.76923 0.98738 0.0
N44 N 0.0413 0.6863 0.95986 0.0
C45 C 0.99727 0.67459 0.97871 0.0
C46 C 0.02247 0.68949 0.97945 0.0
C47 C 0.03609 0.66895 0.93955 0.0
N48 N 0.992 0.65721 0.9584 0.0
C49 C 1.01082 0.65389 0.93872 0.0
O50 O 0.03182 0.77118 0.96151 0.0
C51 C 0.03509 0.76493 0.93767 0.0
O52 O 0.0536 0.7456 0.93275 0.0
H53 H 0.02665 0.70409 0.99505 0.0
H54 H 0.05113 0.66764 0.92386 0.0
C55 C 0.10225 0.81113 0.96685 0.0
C56 C 0.12383 0.82148 0.95094 0.0
C57 C 0.13447 0.77509 0.93767 0.0
C58 C 0.11337 0.7649 0.95385 0.0
N59 N 0.09741 0.78309 0.96783 0.0
N60 N 0.13923 0.80311 0.93657 0.0
H61 H 0.08915 0.82518 0.97807 0.0
C62 C 0.10699 0.69449 0.91335 0.0
O63 O 0.08969 0.70984 0.89951 0.0
O64 O 0.05491 0.79822 1.01387 0.0
H65 H 0.1095 0.74272 0.95493 0.0
H66 H 0.9819 0.677 0.99402 0.0
H67 H 0.14704 0.76086 0.92616 0.0
Zn68 Zn 0.73514 0.95235 0.07275 0.0
C69 C 0.66622 0.90957 0.04436 0.0
N70 N 0.67715 0.91856 1.02187 0.0
C71 C 0.69809 0.93561 1.02876 0.0
N72 N 0.7009 0.93776 0.05466 0.0
N73 N 0.68062 0.92245 0.06542 0.0
C74 C 0.64757 0.88653 0.11839 0.0
O75 O 0.63048 0.89964 0.1025 0.0
O76 O 0.7601 0.96995 0.04607 0.0
Zn77 Zn 0.68233 0.93253 0.10538 0.0
N78 N 0.7545 0.92066 0.08768 0.0
C79 C 0.75351 0.876 0.10805 0.0
C80 C 0.73963 0.89806 0.09597 0.0
C81 C 0.78281 0.92211 0.09095 0.0
N82 N 0.78177 0.87732 0.11118 0.0
C83 C 0.79703 0.89981 0.10302 0.0
O84 O 0.71707 0.954 0.12978 0.0
C85 C 0.73308 0.97559 0.12537 0.0
O86 O 0.7355 0.98274 0.10171 0.0
H87 H 0.71721 0.89715 0.09343 0.0
H88 H 0.79392 0.94027 0.08375 0.0
C89 C 0.64087 0.96219 0.13414 0.0
C90 C 0.62039 0.98296 0.13803 0.0
C91 C 0.62404 0.99563 0.09356 0.0
C92 C 0.64434 0.97503 0.08985 0.0
N93 N 0.65225 0.95875 0.11016 0.0
N94 N 0.61263 0.99911 0.11745 0.0
H95 H 0.64829 0.9493 0.14996 0.0
C96 C 0.75293 0.99467 0.0398 0.0
O97 O 0.73025 1.00557 0.05032 0.0
O98 O 0.67137 0.89729 0.1235 0.0
H99 H 0.65405 0.97238 0.07105 0.0
H100 H 0.74195 0.85789 0.11481 0.0
H101 H 0.61751 1.00887 0.07766 0.0
Zn102 Zn 0.9728 0.3288 0.95776 0.0
C103 C 0.96341 0.30511 0.0326 0.0
N104 N 0.94988 0.32847 0.03938 0.0
C105 C 0.94607 0.34236 1.01712 0.0
N106 N 0.95898 0.32739 0.99646 0.0
N107 N 0.96836 0.30358 1.00687 0.0
C108 C 1.01169 0.24436 1.0237 0.0
O109 O 0.02556 0.26597 1.01442 0.0
O110 O 0.93842 0.33887 0.9384 0.0
Zn111 Zn 0.97506 0.267 0.98819 0.0
N112 N 0.99663 0.36088 0.95587 0.0
C113 C 0.03336 0.38919 0.97264 0.0
C114 C 1.01613 0.36569 0.97454 0.0
C115 C 0.99368 0.37823 0.93523 0.0
N116 N 0.0299 0.40704 0.9524 0.0
C117 C 1.01035 0.40244 0.93351 0.0
O118 O 1.00409 0.25951 0.95859 0.0
C119 C 1.00867 0.2717 0.93706 0.0
O120 O 0.99745 0.29632 0.93405 0.0
H121 H 0.01825 0.35135 0.99066 0.0
H122 H 0.97843 0.3729 0.92055 0.0
C123 C 0.93305 0.2276 0.97236 0.0
C124 C 0.90819 0.21927 0.9599 0.0
C125 C 0.89728 0.26684 0.9515 0.0
C126 C 0.92182 0.27503 0.96417 0.0
N127 N 0.93943 0.2553 0.97396 0.0
N128 N 0.89104 0.23917 0.9496 0.0
H129 H 0.94737 0.21227 0.9804 0.0
C130 C 0.92873 0.32791 0.91787 0.0
O131 O 0.943 0.30812 0.90599 0.0
O132 O 0.9873 0.23923 1.01493 0.0
H133 H 0.92694 0.2969 0.96599 0.0
H134 H 0.0491 0.39345 0.98727 0.0
H135 H 0.88321 0.28232 0.94339 0.0
Zn136 Zn 0.27789 0.47581 0.23665 0.0
C137 C 0.35347 0.44625 0.26497 0.0
N138 N 0.34017 0.45139 0.28735 0.0
C139 C 0.31697 0.46523 0.28063 0.0
N140 N 0.31488 0.46898 0.25476 0.0
N141 N 0.3383 0.45868 0.24417 0.0
C142 C 0.37471 0.42691 0.19175 0.0
O143 O 0.39034 0.43929 0.20937 0.0
O144 O 0.25096 0.4897 0.26358 0.0
Zn145 Zn 0.33923 0.4719 0.2051 0.0
N146 N 0.26568 0.43996 0.22337 0.0
C147 C 0.27803 0.39827 0.20077 0.0
C148 C 0.28549 0.42391 0.2116 0.0
C149 C 0.23844 0.43145 0.22479 0.0
N150 N 0.25091 0.38972 0.20212 0.0
C151 C 0.23064 0.40552 0.21376 0.0
O152 O 0.30601 0.49555 0.18125 0.0
C153 C 0.28189 0.50779 0.18472 0.0
O154 O 0.27027 0.50428 0.2067 0.0
H155 H 0.3069 0.43104 0.21057 0.0
H156 H 0.2234 0.44465 0.23467 0.0
C157 C 0.38518 0.49883 0.18112 0.0
C158 C 0.40428 0.52068 0.17704 0.0
C159 C 0.38966 0.5417 0.21654 0.0
C160 C 0.37076 0.51977 0.22058 0.0
N161 N 0.36895 0.49885 0.20277 0.0
N162 N 0.40595 0.54169 0.19488 0.0
H163 H 0.38266 0.48233 0.16688 0.0
C164 C 0.25645 0.51488 0.26979 0.0
O165 O 0.27765 0.52751 0.25836 0.0
O166 O 0.35148 0.438 0.18527 0.0
H167 H 0.35704 0.51981 0.23732 0.0
H168 H 0.29362 0.38527 0.19135 0.0
H169 H 0.39125 0.55869 0.23038 0.0
Zn170 Zn 0.44694 0.67003 0.85124 0.0
C171 C 0.45105 0.68937 0.77481 0.0
N172 N 0.43621 0.66695 0.76742 0.0
C173 C 0.42814 0.65483 0.78967 0.0
N174 N 0.43953 0.66986 0.81098 0.0
N175 N 0.45237 0.6921 0.80081 0.0
C176 C 0.49699 0.75442 0.78771 0.0
O177 O 0.51059 0.73279 0.79727 0.0
O178 O 0.4082 0.66928 0.86624 0.0
Zn179 Zn 0.45704 0.72908 0.81895 0.0
N180 N 0.46348 0.63408 0.85864 0.0
C181 C 0.48395 0.59178 0.84325 0.0
C182 C 0.47338 0.61846 0.83854 0.0
C183 C 0.46431 0.62442 0.88346 0.0
N184 N 0.48442 0.58194 0.86789 0.0
C185 C 0.475 0.59751 0.88829 0.0
O186 O 0.48417 0.7364 0.84998 0.0
C187 C 0.48698 0.72463 0.87195 0.0
O188 O 0.47405 0.70083 0.8751 0.0
H189 H 0.47286 0.62652 0.81899 0.0
H190 H 0.45616 0.63731 0.89902 0.0
C191 C 0.41778 0.76777 0.83972 0.0
C192 C 0.39175 0.77718 0.84944 0.0
C193 C 0.3724 0.73211 0.84097 0.0
C194 C 0.39808 0.72316 0.83109 0.0
N195 N 0.42034 0.74103 0.8309 0.0
N196 N 0.36984 0.75878 0.84977 0.0
H197 H 0.43584 0.78142 0.83843 0.0
C198 C 0.39328 0.64861 0.85896 0.0
O199 O 0.40499 0.62858 0.84521 0.0
O200 O 0.47117 0.75744 0.7933 0.0
H201 H 0.40006 0.70216 0.82368 0.0
H202 H 0.49168 0.57895 0.82747 0.0
H203 H 0.35451 0.71811 0.84134 0.0
Zn204 Zn 0.70652 0.5645 0.20446 0.0
C205 C 0.72668 0.57032 0.28011 0.0
N206 N 0.70451 0.58597 0.28658 0.0
C207 C 0.69181 0.59166 0.26399 0.0
N208 N 0.70642 0.57813 0.2434 0.0
N209 N 0.72865 0.56598 0.25437 0.0
C210 C 0.78693 0.51815 0.27251 0.0
O211 O 0.76468 0.50452 0.26416 0.0
O212 O 0.69025 0.59671 0.18466 0.0
Zn213 Zn 0.76449 0.55507 0.23646 0.0
N214 N 0.67981 0.53445 0.20306 0.0
C215 C 0.66204 0.49139 0.21921 0.0
C216 C 0.67952 0.51464 0.22193 0.0
C217 C 0.66375 0.53192 0.18145 0.0
N218 N 0.64566 0.48899 0.19774 0.0
C219 C 0.64601 0.50858 0.17851 0.0
O220 O 0.76879 0.52381 0.20847 0.0
C221 C 0.76178 0.52658 0.18476 0.0
O222 O 0.74143 0.54403 0.17997 0.0
H223 H 0.6931 0.51671 0.23865 0.0
H224 H 0.66476 0.5483 0.16707 0.0
C225 C 0.80764 0.59347 0.22194 0.0
C226 C 0.81927 0.61573 0.20779 0.0
C227 C 0.77415 0.62647 0.19107 0.0
C228 C 0.76268 0.60441 0.20525 0.0
N229 N 0.77965 0.58816 0.22015 0.0
N230 N 0.80217 0.63156 0.19255 0.0
H231 H 0.82078 0.58005 0.23372 0.0
C232 C 0.66583 0.60514 0.19093 0.0
O233 O 0.65172 0.59144 0.20878 0.0
O234 O 0.79187 0.54244 0.26361 0.0
H235 H 0.74054 0.59997 0.20399 0.0
H236 H 0.66147 0.47536 0.23401 0.0
H237 H 0.76093 0.63937 0.17889 0.0
Zn238 Zn 0.584 0.35828 0.85311 0.0
C239 C 0.57869 0.34098 0.77664 0.0
N240 N 0.59375 0.3633 0.76943 0.0
C241 C 0.60255 0.37478 0.79177 0.0
N242 N 0.5913 0.35951 0.81295 0.0
N243 N 0.57787 0.33773 0.80258 0.0
C244 C 0.53346 0.27527 0.78859 0.0
O245 O 0.51902 0.29575 0.79926 0.0
O246 O 0.62222 0.35863 0.86771 0.0
Zn247 Zn 0.57252 0.30077 0.82041 0.0
N248 N 0.56807 0.39427 0.8608 0.0
C249 C 0.54312 0.4341 0.84561 0.0
C250 C 0.55373 0.40732 0.84149 0.0
C251 C 0.57179 0.4066 0.88438 0.0
N252 N 0.54717 0.44664 0.86892 0.0
C253 C 0.56115 0.43365 0.88859 0.0
O254 O 0.54399 0.2937 0.85045 0.0
C255 C 0.54275 0.30435 0.87307 0.0
O256 O 0.55721 0.32714 0.87688 0.0
H257 H 0.55076 0.39708 0.82298 0.0
H258 H 0.58343 0.39571 0.89932 0.0
C259 C 0.61114 0.26135 0.84164 0.0
C260 C 0.63728 0.25144 0.85067 0.0
C261 C 0.65727 0.29606 0.84167 0.0
C262 C 0.63154 0.30546 0.83237 0.0
N263 N 0.60887 0.28811 0.83281 0.0
N264 N 0.65954 0.26942 0.85045 0.0
H265 H 0.59284 0.24796 0.8407 0.0
C266 C 0.63132 0.34773 0.88845 0.0
O267 O 0.61397 0.3346 0.90408 0.0
O268 O 0.55937 0.27298 0.79399 0.0
H269 H 0.6299 0.32638 0.82478 0.0
H270 H 0.53184 0.44492 0.8304 0.0
H271 H 0.67549 0.30961 0.84147 0.0
Zn272 Zn 0.84462 0.59105 0.6013 0.0
C273 C 0.82494 0.59621 0.52593 0.0
N274 N 0.84618 0.61298 0.51923 0.0
C275 C 0.85931 0.6189 0.54161 0.0
N276 N 0.84574 0.60461 0.56233 0.0
N277 N 0.82405 0.59133 0.55162 0.0
C278 C 0.76641 0.53973 0.53655 0.0
O279 O 0.78815 0.52607 0.5459 0.0
O280 O 0.86246 0.62271 0.6203 0.0
Zn281 Zn 0.78985 0.57799 0.57061 0.0
N282 N 0.8688 0.55908 0.60235 0.0
C283 C 0.88092 0.51453 0.58489 0.0
C284 C 0.86826 0.5407 0.58218 0.0
C285 C 0.88151 0.5525 0.62511 0.0
N286 N 0.89334 0.50777 0.60774 0.0
C287 C 0.894 0.5261 0.62799 0.0
O288 O 0.78875 0.54577 0.59792 0.0
C289 C 0.79178 0.55225 0.62171 0.0
O290 O 0.80864 0.57313 0.62632 0.0
H291 H 0.85711 0.54586 0.56456 0.0
H292 H 0.88074 0.5672 0.64111 0.0
C293 C 0.74572 0.60956 0.59323 0.0
C294 C 0.73341 0.63172 0.60717 0.0
C295 C 0.77827 0.65319 0.61097 0.0
C296 C 0.79027 0.63125 0.59697 0.0
N297 N 0.77378 0.60989 0.58839 0.0
N298 N 0.7502 0.65302 0.61558 0.0
H299 H 0.73326 0.5924 0.58575 0.0
C300 C 0.85192 0.63416 0.64026 0.0
O301 O 0.83006 0.62253 0.65148 0.0
O302 O 0.76202 0.56469 0.54408 0.0
H303 H 0.81253 0.63125 0.59322 0.0
H304 H 0.88045 0.49952 0.56915 0.0
H305 H 0.79114 0.6703 0.618 0.0
Zn306 Zn 0.5696 0.20587 0.45778 0.0
C307 C 0.57919 0.23064 0.53205 0.0
N308 N 0.59444 0.20846 0.53916 0.0
C309 C 0.59855 0.19402 0.51717 0.0
N310 N 0.5845 0.20763 0.49635 0.0
N311 N 0.57363 0.23094 0.50643 0.0
C312 C 0.53086 0.29385 0.52072 0.0
O313 O 0.51544 0.27286 0.5123 0.0
O314 O 0.60148 0.18823 0.43859 0.0
Zn315 Zn 0.56549 0.26619 0.48657 0.0
N316 N 0.53896 0.17984 0.4592 0.0
C317 C 0.49637 0.16544 0.47914 0.0
C318 C 0.52 0.18264 0.47871 0.0
C319 C 0.53524 0.16085 0.43988 0.0
N320 N 0.49274 0.1462 0.46001 0.0
C321 C 0.51146 0.14338 0.44016 0.0
O322 O 0.53401 0.27173 0.45895 0.0
C323 C 0.53428 0.26217 0.43588 0.0
O324 O 0.54932 0.23977 0.43196 0.0
H325 H 0.52307 0.19837 0.49358 0.0
H326 H 0.55099 0.15928 0.42483 0.0
C327 C 0.60501 0.30447 0.46551 0.0
C328 C 0.62941 0.31277 0.45223 0.0
C329 C 0.64162 0.26494 0.44636 0.0
C330 C 0.61743 0.25688 0.4596 0.0
N331 N 0.59968 0.27677 0.469 0.0
N332 N 0.64714 0.29261 0.44314 0.0
H333 H 0.59061 0.3197 0.47358 0.0
C334 C 0.61081 0.16533 0.44776 0.0
O335 O 0.5964 0.15251 0.46595 0.0
O336 O 0.5559 0.2962 0.5125 0.0
H337 H 0.61292 0.23498 0.4623 0.0
H338 H 0.48103 0.16732 0.49454 0.0
H339 H 0.656 0.24934 0.43885 0.0
Zn340 Zn 0.23633 0.45532 0.56916 0.0
C341 C 0.1671 0.41148 0.5426 0.0
N342 N 0.17702 0.42033 0.51969 0.0
C343 C 0.19815 0.43754 0.52573 0.0
N344 N 0.20198 0.43996 0.55155 0.0
N345 N 0.1823 0.42453 0.56305 0.0
C346 C 0.17545 0.39558 0.64542 0.0
O347 O 0.18599 0.41496 0.66071 0.0
O348 O 0.26008 0.47396 0.54232 0.0
Zn349 Zn 0.18638 0.4344 0.60281 0.0
N350 N 0.2568 0.42378 0.58322 0.0
C351 C 0.25696 0.37885 0.60312 0.0
C352 C 0.2425 0.40079 0.59148 0.0
C353 C 0.28515 0.42567 0.58605 0.0
N354 N 0.28522 0.38064 0.60584 0.0
C355 C 0.29996 0.40347 0.59767 0.0
O356 O 0.22291 0.45363 0.62609 0.0
C357 C 0.23695 0.47655 0.62189 0.0
O358 O 0.23666 0.48536 0.5986 0.0
H359 H 0.22005 0.39949 0.58935 0.0
H360 H 0.29581 0.44413 0.57892 0.0
C361 C 0.14088 0.46195 0.62859 0.0
C362 C 0.12445 0.4855 0.63493 0.0
C363 C 0.14553 0.5103 0.59993 0.0
C364 C 0.16197 0.48704 0.59408 0.0
N365 N 0.1593 0.46342 0.60852 0.0
N366 N 0.12732 0.509 0.62014 0.0
H367 H 0.13939 0.44263 0.63928 0.0
C368 C 0.25002 0.49649 0.53311 0.0
O369 O 0.22544 0.50532 0.54141 0.0
O370 O 0.17383 0.4 0.62121 0.0
H371 H 0.1773 0.48794 0.57861 0.0
H372 H 0.24584 0.36048 0.6099 0.0
H373 H 0.14742 0.52935 0.58872 0.0
Zn374 Zn 0.47376 0.76756 0.4839 0.0
C375 C 0.43807 0.83927 0.51417 0.0
N376 N 0.44178 0.82473 0.53612 0.0
C377 C 0.45692 0.80247 0.52914 0.0
N378 N 0.46297 0.80227 0.50359 0.0
N379 N 0.45223 0.82558 0.4934 0.0
C380 C 0.42514 0.86728 0.44246 0.0
O381 O 0.43734 0.88076 0.46163 0.0
O382 O 0.48356 0.73822 0.51027 0.0
Zn383 Zn 0.4674 0.82734 0.45491 0.0
N384 N 0.44074 0.75535 0.46508 0.0
C385 C 0.40124 0.76681 0.43891 0.0
C386 C 0.42455 0.77499 0.4533 0.0
C387 C 0.43432 0.72764 0.46335 0.0
N388 N 0.39456 0.73924 0.43746 0.0
C389 C 0.41026 0.71922 0.44945 0.0
O390 O 0.48813 0.79314 0.42951 0.0
C391 C 0.50528 0.77247 0.43408 0.0
O392 O 0.50701 0.76447 0.45758 0.0
H393 H 0.42967 0.79682 0.45502 0.0
H394 H 0.44791 0.71259 0.47269 0.0
C395 C 0.50054 0.87326 0.43728 0.0
C396 C 0.52403 0.89112 0.43742 0.0
C397 C 0.54044 0.86852 0.47561 0.0
C398 C 0.51709 0.85093 0.47532 0.0
N399 N 0.49761 0.85381 0.45627 0.0
N400 N 0.54328 0.8882 0.45681 0.0
H401 H 0.48442 0.87485 0.4226 0.0
C402 C 0.50769 0.74207 0.52015 0.0
O403 O 0.52263 0.76368 0.51243 0.0
O404 O 0.43561 0.84425 0.43467 0.0
H405 H 0.51462 0.83486 0.48991 0.0
H406 H 0.38829 0.78226 0.42928 0.0
H407 H 0.55618 0.86659 0.49064 0.0
Zn408 Zn 0.77798 0.98508 0.74127 0.0
C409 C 0.85096 0.9481 0.76844 0.0
N410 N 0.83914 0.95471 0.79121 0.0
C411 C 0.81659 0.96993 0.78505 0.0
N412 N 0.81359 0.97318 0.7592 0.0
N413 N 0.83545 0.96063 0.74795 0.0
C414 C 0.8428 0.92815 0.66834 0.0
O415 O 0.82619 0.94273 0.65313 0.0
O416 O 0.75177 1.00018 0.76828 0.0
Zn417 Zn 0.83416 0.97153 0.70839 0.0
N418 N 0.76128 0.95149 0.72684 0.0
C419 C 0.7672 0.90843 0.70421 0.0
C420 C 0.77847 0.93256 0.71519 0.0
C421 C 0.73305 0.94715 0.72817 0.0
N422 N 0.73913 0.90391 0.70576 0.0
C423 C 0.72147 0.92245 0.71758 0.0
O424 O 0.79881 0.99116 0.68387 0.0
C425 C 0.78034 1.01064 0.68853 0.0
O426 O 0.77519 1.01564 0.71235 0.0
H427 H 0.80075 0.93616 0.7144 0.0
H428 H 0.72004 0.96293 0.73723 0.0
C429 C 0.87804 1.00072 0.68283 0.0
C430 C 0.89483 0.02421 0.67766 0.0
C431 C 0.87798 0.04579 0.71616 0.0
C432 C 0.8613 0.0224 0.72118 0.0
N433 N 0.86169 1.00042 0.7044 0.0
N434 N 0.89427 0.04621 0.69453 0.0
H435 H 0.87718 0.98325 0.66943 0.0
C436 C 0.75893 0.02311 0.7789 0.0
O437 O 0.78245 0.0352 0.77159 0.0
O438 O 0.84862 0.93728 0.69081 0.0
H439 H 0.84745 0.02208 0.73782 0.0
H440 H 0.78065 0.89327 0.69474 0.0
H441 H 0.87778 0.0636 0.72917 0.0
Zn442 Zn 0.94263 0.17255 0.35565 0.0
C443 C 0.94644 0.187 0.27846 0.0
N444 N 0.92998 0.16539 0.2721 0.0
C445 C 0.92114 0.15499 0.29482 0.0
N446 N 0.9336 0.17029 0.31552 0.0
N447 N 0.94836 0.19073 0.30434 0.0
C448 C 1.00228 0.24552 0.28731 0.0
O449 O 1.01389 0.22186 0.29477 0.0
O450 O 0.90634 0.16393 0.37337 0.0
Zn451 Zn 0.96171 0.22575 0.32226 0.0
N452 N 0.96665 0.14107 0.36212 0.0
C453 C 1.0016 0.10909 0.34776 0.0
C454 C 0.98254 0.13048 0.34253 0.0
C455 C 0.969 0.13128 0.38677 0.0
N456 N 1.00398 0.0993 0.37235 0.0
C457 C 0.98816 0.10974 0.39218 0.0
O458 O 0.99263 0.22692 0.35071 0.0
C459 C 0.98647 0.22361 0.37452 0.0
O460 O 0.96555 0.20685 0.37933 0.0
H461 H 0.98079 0.13892 0.32315 0.0
H462 H 0.95661 0.14076 0.40199 0.0
C463 C 0.92946 0.2723 0.34087 0.0
C464 C 0.90662 0.28552 0.35332 0.0
C465 C 0.885 0.24096 0.35873 0.0
C466 C 0.90741 0.22821 0.34609 0.0
N467 N 0.92933 0.244 0.33765 0.0
N468 N 0.88509 0.26914 0.36194 0.0
H469 H 0.94705 0.28408 0.33333 0.0
C470 C 0.90056 0.16949 0.39684 0.0
O471 O 0.9193 0.18214 0.41146 0.0
O472 O 0.97818 0.25196 0.29606 0.0
H473 H 0.90728 0.20594 0.34312 0.0
H474 H 1.01453 0.10044 0.33246 0.0
H475 H 0.86752 0.22859 0.36576 0.0
Zn476 Zn 0.20302 0.06203 0.70583 0.0
C477 C 0.22447 0.06672 0.78177 0.0
N478 N 0.20228 0.08224 0.78831 0.0
C479 C 0.1894 0.08787 0.76584 0.0
N480 N 0.20384 0.07434 0.74515 0.0
N481 N 0.2262 0.06225 0.75598 0.0
C482 C 0.27879 1.01045 0.77383 0.0
O483 O 0.25528 0.99959 0.76496 0.0
O484 O 0.1893 0.0966 0.68791 0.0
Zn485 Zn 0.26131 0.04957 0.73782 0.0
N486 N 0.17419 0.03415 0.70313 0.0
C487 C 0.15391 0.99134 0.71713 0.0
C488 C 0.17308 1.01306 0.72073 0.0
C489 C 0.15725 0.03441 0.68195 0.0
N490 N 0.13673 0.9917 0.6961 0.0
C491 C 0.13778 1.01264 0.67814 0.0
O492 O 0.26408 0.0193 0.7089 0.0
C493 C 0.25706 0.02277 0.68529 0.0
O494 O 0.23707 0.04075 0.68086 0.0
H495 H 0.1873 1.01295 0.73709 0.0
H496 H 0.15903 0.05173 0.66862 0.0
C497 C 0.30638 0.08661 0.72404 0.0
C498 C 0.31858 0.10839 0.70967 0.0
C499 C 0.27376 0.12045 0.69308 0.0
C500 C 0.26171 0.09885 0.70741 0.0
N501 N 0.27824 0.08215 0.72231 0.0
N502 N 0.30191 0.12466 0.69444 0.0
H503 H 0.31915 0.07291 0.73589 0.0
C504 C 0.16619 0.10663 0.69613 0.0
O505 O 0.15128 0.09207 0.71279 0.0
O506 O 0.28708 0.03375 0.76475 0.0
H507 H 0.23947 0.09501 0.70621 0.0
H508 H 0.15268 0.9743 0.73091 0.0
H509 H 0.26088 0.13368 0.68089 0.0
Zn510 Zn 0.07836 0.79631 0.32372 0.0
C511 C 0.11359 0.86878 0.29512 0.0
N512 N 0.1071 0.85584 0.27279 0.0
C513 C 0.09155 0.83386 0.27981 0.0
N514 N 0.08801 0.83227 0.30568 0.0
N515 N 0.10059 0.85454 0.31616 0.0
C516 C 0.139 0.88381 0.36965 0.0
O517 O 0.12819 0.90192 0.35328 0.0
O518 O 0.06513 0.76886 0.29683 0.0
Zn519 Zn 0.08913 0.85541 0.35575 0.0
N520 N 0.11205 0.78161 0.33931 0.0
C521 C 0.15513 0.78782 0.36206 0.0
C522 C 0.13269 0.79891 0.34801 0.0
C523 C 0.11331 0.75354 0.34341 0.0
N524 N 0.1563 0.75977 0.36634 0.0
C525 C 0.13603 0.74224 0.35717 0.0
O526 O 0.06239 0.82373 0.37921 0.0
C527 C 0.04726 0.8014 0.3751 0.0
O528 O 0.04815 0.79107 0.35236 0.0
H529 H 0.1316 0.82108 0.34436 0.0
H530 H 0.09652 0.74025 0.33633 0.0
C531 C 0.06399 0.89981 0.38405 0.0
C532 C 0.05043 0.92565 0.38714 0.0
C533 C 0.04531 0.92907 0.34144 0.0
C534 C 0.05892 0.90344 0.33844 0.0
N535 N 0.06826 0.88956 0.35976 0.0
N536 N 0.04158 0.93965 0.36564 0.0
H537 H 0.07187 0.88834 0.40062 0.0
C538 C 0.03961 0.7725 0.29047 0.0
O539 O 0.02584 0.79374 0.30061 0.0
O540 O 0.12535 0.86163 0.37493 0.0
H541 H 0.06226 0.89489 0.31927 0.0
H542 H 0.17155 0.80138 0.36939 0.0
H543 H 0.03796 0.94058 0.32471 0.0
H544 H 0.59961 0.03181 0.15642 0.0
H545 H 0.56705 0.03813 0.19173 0.0
H546 H 0.57701 0.95127 0.21342 0.0
H547 H 0.60888 0.94447 0.17681 0.0
H548 H 0.5264 0.95878 0.20519 0.0
H549 H 0.55 0.04844 0.26521 0.0
H550 H 0.56077 0.06014 0.23386 0.0
H551 H 0.5779 0.03012 0.24842 0.0
C552 C 0.59552 1.01417 0.16908 0.0
C553 C 0.60647 0.98757 0.16342 0.0
C554 C 0.57725 0.01795 0.18985 0.0
C555 C 0.56957 0.99526 0.20574 0.0
C556 C 0.58267 0.9692 0.20166 0.0
H557 H 0.40075 0.03301 0.1799 0.0
H558 H 0.4293 0.018 0.21731 0.0
C559 C 0.60095 0.96533 0.18063 0.0
C560 C 0.54294 0.99746 0.22076 0.0
H561 H 0.50314 0.0537 0.23758 0.0
C562 C 0.52128 0.9789 0.21378 0.0
C563 C 0.53566 0.02265 0.23361 0.0
C564 C 0.55754 0.04118 0.24595 0.0
C565 C 0.49337 0.98821 0.21271 0.0
C566 C 0.4876 0.01662 0.21843 0.0
C567 C 0.50787 0.03231 0.2319 0.0
C568 C 0.46866 0.03202 0.20077 0.0
C569 C 0.47146 0.96938 0.20071 0.0
C570 C 0.48122 0.04574 0.17966 0.0
C571 C 0.46523 0.05377 0.15839 0.0
C572 C 0.43627 0.0487 0.15796 0.0
C573 C 0.42313 0.03719 0.17996 0.0
C574 C 0.43934 0.02867 0.20127 0.0
H575 H 0.47813 0.94707 0.20078 0.0
H576 H 0.45132 0.97124 0.21144 0.0
H577 H 0.46771 0.97581 0.18031 0.0
H578 H 0.50385 0.04826 0.17871 0.0
H579 H 0.47573 0.06274 0.1417 0.0
H580 H 0.04625 0.44426 0.91978 0.0
H581 H 0.03523 0.48605 0.89501 0.0
H582 H 0.95433 0.45167 0.87491 0.0
H583 H 0.96416 0.41052 0.90078 0.0
H584 H 1.01507 0.50427 0.84554 0.0
H585 H 0.93433 0.51549 0.92368 0.0
H586 H 0.96019 0.48801 0.92517 0.0
H587 H 0.93218 0.48623 0.90183 0.0
C588 C 0.02625 0.4452 0.90979 0.0
C589 C 1.00596 0.42408 0.91312 0.0
C590 C 0.02014 0.46904 0.89528 0.0
C591 C 0.9937 0.47219 0.88363 0.0
C592 C 0.97467 0.4498 0.88417 0.0
H593 H 0.96041 0.64323 0.91564 0.0
H594 H 0.94901 0.60376 0.8871 0.0
C595 C 0.98056 0.42606 0.89904 0.0
C596 C 0.98465 0.50073 0.87633 0.0
H597 H 0.95214 0.5558 0.90555 0.0
C598 C 1.00057 0.51556 0.85799 0.0
C599 C 0.96511 0.51536 0.89204 0.0
C600 C 0.94694 0.50062 0.91184 0.0
C601 C 1.00016 0.54496 0.8574 0.0
C602 C 0.98407 0.55962 0.87609 0.0
C603 C 0.96495 0.54467 0.89152 0.0
C604 C 0.99173 0.58821 0.885 0.0
C605 C 0.01843 0.55995 0.83799 0.0
C606 C 0.01969 0.59344 0.89237 0.0
C607 C 0.02623 0.61607 0.90838 0.0
C608 C 1.00486 0.63368 0.91771 0.0
C609 C 0.97722 0.62976 0.90887 0.0
C610 C 0.97075 0.60737 0.8924 0.0
H611 H 0.01722 0.54931 0.81883 0.0
H612 H 1.01218 0.58223 0.83563 0.0
H613 H 0.04067 0.55899 0.84441 0.0
H614 H 0.03621 0.57862 0.88785 0.0
H615 H 0.04767 0.61829 0.91513 0.0
H616 H 0.41705 0.56389 0.14456 0.0
H617 H 0.45513 0.56529 0.11259 0.0
H618 H 0.47443 0.47873 0.12975 0.0
H619 H 0.43545 0.47693 0.15983 0.0
H620 H 0.50331 0.56492 0.1262 0.0
H621 H 0.50304 0.47741 0.05939 0.0
H622 H 0.47092 0.48795 0.07535 0.0
H623 H 0.49339 0.46127 0.08933 0.0
C624 C 0.42889 0.54496 0.14062 0.0
C625 C 0.42357 0.52038 0.15469 0.0
C626 C 0.45054 0.54568 0.12227 0.0
C627 C 0.46784 0.5221 0.11841 0.0
C628 C 0.4611 0.49702 0.13136 0.0
H629 H 0.59807 0.47764 0.17687 0.0
H630 H 0.55971 0.48186 0.14615 0.0
C631 C 0.43897 0.49608 0.14903 0.0
C632 C 0.49641 0.52523 0.10698 0.0
H633 H 0.54884 0.48147 0.0873 0.0
C634 C 0.51309 0.54735 0.11637 0.0
C635 C 0.50961 0.50314 0.09322 0.0
C636 C 0.49304 0.48138 0.07852 0.0
C637 C 0.54239 0.54508 0.11711 0.0
C638 C 0.55508 0.51996 0.10847 0.0
C639 C 0.53892 0.5003 0.09477 0.0
C640 C 0.58147 0.51065 0.12074 0.0
C641 C 0.5591 0.56771 0.13063 0.0
C642 C 0.60704 0.52413 0.11575 0.0
C643 C 0.62922 0.52179 0.13343 0.0
C644 C 0.62587 0.50626 0.15652 0.0
C645 C 0.60132 0.49024 0.15969 0.0
C646 C 0.57936 0.49244 0.14196 0.0
H647 H 0.5461 0.5864 0.13529 0.0
H648 H 0.56805 0.55942 0.14897 0.0
H649 H 0.57682 0.57448 0.11812 0.0
H650 H 0.60914 0.538 0.09925 0.0
H651 H 0.64832 0.53327 0.12944 0.0
H652 H 0.57213 0.48848 0.89468 0.0
H653 H 0.56618 0.51622 0.93325 0.0
H654 H 0.55139 0.44116 0.97812 0.0
H655 H 0.55661 0.41304 0.93846 0.0
H656 H 0.51084 0.47212 0.98756 0.0
H657 H 0.59296 0.54765 0.99833 0.0
H658 H 0.59224 0.54489 0.9638 0.0
H659 H 0.60054 0.51427 0.98312 0.0
C660 C 0.56848 0.47775 0.91289 0.0
C661 C 0.56447 0.4487 0.91348 0.0
C662 C 0.5656 0.49366 0.93531 0.0
C663 C 0.55867 0.48098 0.95914 0.0
C664 C 0.55697 0.45154 0.96018 0.0
H665 H 0.48952 0.62358 0.93429 0.0
H666 H 0.50263 0.60007 0.97482 0.0
C667 C 0.55996 0.43547 0.9375 0.0
C668 C 0.54652 0.49904 0.97994 0.0
H669 H 0.5444 0.56991 0.97983 0.0
C670 C 0.5186 0.49348 0.98725 0.0
C671 C 0.55651 0.52675 0.98314 0.0
C672 C 0.5874 0.53348 0.982 0.0
C673 C 0.49917 0.51556 0.98875 0.0
C674 C 0.50804 0.54265 0.98121 0.0
C675 C 0.5369 0.54873 0.98296 0.0
C676 C 0.49164 0.55843 0.96137 0.0
C677 C 0.4687 0.50907 0.99382 0.0
C678 C 0.47994 0.54325 0.94054 0.0
C679 C 0.47256 0.55656 0.91759 0.0
C680 C 0.47669 0.58543 0.91465 0.0
C681 C 0.48598 0.60124 0.93607 0.0
C682 C 0.49349 0.5878 0.95927 0.0
H683 H 0.46682 0.49706 1.01218 0.0
H684 H 0.45583 0.52843 0.9953 0.0
H685 H 0.46029 0.49553 0.97809 0.0
H686 H 0.47892 0.52059 0.94082 0.0
H687 H 0.46527 0.54389 0.90147 0.0
H688 H 0.88962 0.47728 0.65494 0.0
H689 H 0.9216 0.46053 0.68872 0.0
H690 H 0.96546 0.53986 0.68615 0.0
H691 H 0.93242 0.55697 0.65425 0.0
H692 H 0.96921 0.44932 0.67744 0.0
H693 H 0.9868 0.52171 0.75653 0.0
H694 H 0.95442 0.52313 0.73826 0.0
H695 H 0.9843 0.5446 0.72928 0.0
C696 C 0.90544 0.4914 0.66255 0.0
C697 C 0.90885 0.51826 0.65195 0.0
C698 C 0.92364 0.48191 0.68193 0.0
C699 C 0.94617 0.49878 0.69027 0.0
C700 C 0.94795 0.5265 0.68101 0.0
H701 H 0.08228 0.52297 0.64262 0.0
H702 H 0.04285 0.51933 0.67201 0.0
C703 C 0.92923 0.53625 0.66231 0.0
C704 C 0.97155 0.48587 0.70217 0.0
H705 H 0.03202 0.51052 0.72907 0.0
C706 C 0.98251 0.46187 0.68996 0.0
C707 C 0.98901 0.50103 0.71944 0.0
C708 C 0.97769 0.52382 0.73679 0.0
C709 C 1.01144 0.4566 0.68989 0.0
C710 C 0.02956 0.47597 0.70218 0.0
C711 C 0.01811 0.49632 0.71879 0.0
C712 C 0.0574 0.48141 0.69065 0.0
C713 C 0.02265 0.43309 0.67321 0.0
C714 C 0.07936 0.46194 0.69218 0.0
C715 C 0.10221 0.46388 0.67516 0.0
C716 C 0.10316 0.48516 0.65613 0.0
C717 C 0.08224 0.50597 0.65651 0.0
C718 C 0.05968 0.5041 0.67356 0.0
H719 H 1.00569 0.41892 0.66627 0.0
H720 H 0.03363 0.4419 0.65605 0.0
H721 H 0.03804 0.42046 0.68436 0.0
H722 H 0.07809 0.44446 0.7055 0.0
H723 H 0.11843 0.44812 0.67659 0.0
H724 H 0.5032 0.89519 0.38711 0.0
H725 H 0.50289 0.93702 0.35984 0.0
H726 H 0.55215 0.98088 0.41729 0.0
H727 H 0.5525 0.93968 0.44447 0.0
H728 H 0.4776 0.98318 0.3726 0.0
H729 H 0.58608 1.01349 0.35391 0.0
H730 H 0.577 0.97788 0.3625 0.0
H731 H 0.58516 1.00347 0.3873 0.0
C732 C 0.51417 0.91366 0.39388 0.0
C733 C 0.52721 0.91428 0.41845 0.0
C734 C 0.51431 0.93744 0.37801 0.0
C735 C 0.52783 0.96203 0.38625 0.0
C736 C 0.54232 0.96198 0.40998 0.0
H737 H 0.48291 0.09489 0.44705 0.0
H738 H 0.48206 0.05424 0.41906 0.0
C739 C 0.5422 0.93836 0.42577 0.0
C740 C 0.52259 0.98927 0.37336 0.0
H741 H 0.55502 0.05268 0.37187 0.0
C742 C 0.49459 0.99827 0.37123 0.0
C743 C 0.54445 1.00899 0.37001 0.0
C744 C 0.57482 1.00023 0.36823 0.0
C745 C 0.48809 0.02691 0.37116 0.0
C746 C 0.51008 0.04658 0.37411 0.0
C747 C 0.53797 0.03762 0.37082 0.0
C748 C 0.50539 0.07359 0.38767 0.0
C749 C 0.45766 0.03568 0.37058 0.0
C750 C 0.51875 0.09828 0.37954 0.0
C751 C 0.51963 0.12171 0.3959 0.0
C752 C 0.50744 0.12066 0.42081 0.0
C753 C 0.49254 0.09653 0.42808 0.0
C754 C 0.49173 0.07324 0.41183 0.0
H755 H 0.44587 0.02273 0.35634 0.0
H756 H 0.44806 0.03198 0.3899 0.0
H757 H 0.45526 0.05815 0.36543 0.0
H758 H 0.52954 0.09901 0.36105 0.0
H759 H 0.5305 0.14026 0.38921 0.0
H760 H 0.90583 0.06857 0.64599 0.0
H761 H 0.94409 0.07244 0.61444 0.0
H762 H 0.96645 0.98614 0.62917 0.0
H763 H 0.92764 0.98194 0.65919 0.0
H764 H 0.99252 0.07274 0.62938 0.0
H765 H 0.99498 0.98898 0.55838 0.0
H766 H 0.96247 0.99814 0.57444 0.0
H767 H 0.98531 0.97131 0.58758 0.0
C768 C 0.91837 0.05021 0.64164 0.0
C769 C 0.91396 0.02504 0.65513 0.0
C770 C 0.94011 0.05235 0.6235 0.0
C771 C 0.95829 0.02958 0.6191 0.0
C772 C 0.95242 1.00385 0.63127 0.0
H773 H 0.08923 0.98276 0.67495 0.0
H774 H 0.05054 0.98971 0.64509 0.0
C775 C 0.93032 1.00152 0.64887 0.0
C776 C 0.9868 0.03415 0.60803 0.0
H777 H 0.04044 0.99302 0.58643 0.0
C778 C 1.00284 0.05606 0.61871 0.0
C779 C 1.00063 1.01326 0.59326 0.0
C780 C 0.98469 0.99187 0.57755 0.0
C781 C 0.03219 0.05443 0.6196 0.0
C782 C 0.04556 0.03023 0.6097 0.0
C783 C 0.03 1.0111 0.59481 0.0
C784 C 0.072 0.02066 0.62172 0.0
C785 C 0.04824 0.07651 0.6345 0.0
C786 C 0.09744 0.03471 0.61763 0.0
C787 C 0.11986 0.0308 0.63482 0.0
C788 C 0.11691 1.01307 0.65659 0.0
C789 C 0.09228 0.99698 0.65884 0.0
C790 C 0.07009 1.00075 0.6416 0.0
H791 H 0.03479 0.09462 0.63997 0.0
H792 H 0.05709 0.06726 0.65249 0.0
H793 H 0.06601 0.08437 0.62262 0.0
H794 H 0.09936 0.04994 0.60217 0.0
H795 H 0.13891 0.04256 0.63141 0.0
H796 H 0.03087 0.90097 0.43191 0.0
H797 H 1.01592 0.92554 0.47167 0.0
H798 H 0.04522 1.00361 0.43921 0.0
H799 H 0.05978 0.97945 0.39997 0.0
H800 H 0.05131 0.99787 0.49772 0.0
H801 H 0.94402 0.97455 0.46209 0.0
H802 H 0.9689 0.94751 0.47065 0.0
H803 H 0.97176 0.96516 0.43996 0.0
C804 C 0.03482 0.92325 0.43376 0.0
C805 C 0.04613 0.93851 0.41286 0.0
C806 C 0.02634 0.93719 0.45644 0.0
C807 C 0.02949 0.96638 0.45844 0.0
C808 C 0.04288 0.98103 0.4383 0.0
H809 H 0.03546 0.08796 0.41306 0.0
H810 H 0.03918 0.05849 0.45084 0.0
C811 C 0.0509 0.96729 0.41571 0.0
C812 C 1.01416 0.98334 0.47789 0.0
H813 H 0.95697 0.02306 0.46488 0.0
C814 C 0.03 1.003 0.49199 0.0
C815 C 0.98569 0.98952 0.47262 0.0
C816 C 0.96639 0.96799 0.46076 0.0
C817 C 0.02093 0.03096 0.49357 0.0
C818 C 0.99623 0.03876 0.48013 0.0
C819 C 0.97697 0.01757 0.47358 0.0
C820 C 0.99596 0.06423 0.46347 0.0
C821 C 0.03984 0.05246 0.50593 0.0
C822 C 0.97068 0.07822 0.45783 0.0
C823 C 0.96837 0.09479 0.4355 0.0
C824 C 0.99137 0.09764 0.4185 0.0
C825 C 0.01726 0.08588 0.42555 0.0
C826 C 0.01954 0.0694 0.44769 0.0
H827 H 0.04618 0.04522 0.52554 0.0
H828 H 0.05935 0.0547 0.49431 0.0
H829 H 0.02937 0.07319 0.50765 0.0
H830 H 0.95211 0.07448 0.46947 0.0
H831 H 0.94802 0.10346 0.43064 0.0
H832 H 0.34698 0.17429 0.14826 0.0
H833 H 0.35472 0.22297 0.16108 0.0
H834 H 0.43657 0.22142 0.12512 0.0
H835 H 0.42887 0.17277 0.11179 0.0
H836 H 0.39729 0.2487 0.19073 0.0
H837 H 0.39567 0.2862 0.08851 0.0
H838 H 0.3843 0.25147 0.09751 0.0
H839 H 0.42112 0.25958 0.09599 0.0
C840 C 0.36675 0.18419 0.14328 0.0
C841 C 0.38723 0.16981 0.12884 0.0
C842 C 0.37114 0.21196 0.15065 0.0
C843 C 0.39603 0.22578 0.1437 0.0
C844 C 0.41704 0.21117 0.13026 0.0
H845 H 0.42209 0.39681 0.20265 0.0
H846 H 0.43224 0.34841 0.18996 0.0
C847 C 0.41263 0.18338 0.12277 0.0
C848 C 0.39915 0.25587 0.14958 0.0
H849 H 0.40025 0.32036 0.12114 0.0
C850 C 0.3983 0.26443 0.17559 0.0
C851 C 0.40023 0.27616 0.12964 0.0
C852 C 0.40017 0.26804 0.10132 0.0
C853 C 0.39757 0.29291 0.18225 0.0
C854 C 0.3982 0.3132 0.16229 0.0
C855 C 0.39999 0.30464 0.13631 0.0
C856 C 0.39395 0.34323 0.16783 0.0
C857 C 0.39467 0.30101 0.21045 0.0
C858 C 0.36965 0.35655 0.15867 0.0
C859 C 0.36391 0.38419 0.16564 0.0
C860 C 0.38241 0.39894 0.18192 0.0
C861 C 0.40737 0.38592 0.19018 0.0
C862 C 0.41314 0.35826 0.18309 0.0
H863 H 0.38919 0.28278 0.22284 0.0
H864 H 0.41489 0.30977 0.21747 0.0
H865 H 0.37826 0.31735 0.21293 0.0
H866 H 0.35463 0.34524 0.14681 0.0
H867 H 0.34452 0.39364 0.15895 0.0
H868 H 0.12504 0.6982 0.86292 0.0
H869 H 0.17081 0.68352 0.84579 0.0
H870 H 0.19337 0.6512 0.92108 0.0
H871 H 0.14782 0.66491 0.93802 0.0
H872 H 0.21981 0.70378 0.86141 0.0
H873 H 0.22163 0.58938 0.87567 0.0
H874 H 0.18945 0.60939 0.87711 0.0
H875 H 0.21172 0.60639 0.90528 0.0
C876 C 0.13954 0.68738 0.87562 0.0
C877 C 0.13286 0.68281 0.90183 0.0
C878 C 0.16564 0.67901 0.86582 0.0
C879 C 0.18532 0.66587 0.88206 0.0
C880 C 0.17826 0.66055 0.90798 0.0
H881 H 0.36238 0.68369 0.88967 0.0
H882 H 0.31117 0.68669 0.89225 0.0
C883 C 0.15224 0.6687 0.91771 0.0
C884 C 0.21443 0.66076 0.8732 0.0
H885 H 0.26728 0.61265 0.87634 0.0
C886 C 0.23006 0.68369 0.86413 0.0
C887 C 0.2277 0.63446 0.87631 0.0
C888 C 0.2116 0.60848 0.88385 0.0
C889 C 0.25903 0.68148 0.85976 0.0
C890 C 0.27275 0.6559 0.86536 0.0
C891 C 0.25682 0.63246 0.87268 0.0
C892 C 0.30368 0.65331 0.86455 0.0
C893 C 0.27465 0.70668 0.8495 0.0
C894 C 0.31636 0.63262 0.84917 0.0
C895 C 0.34556 0.63045 0.84814 0.0
C896 C 0.36256 0.64906 0.86237 0.0
C897 C 0.34981 0.6692 0.87838 0.0
C898 C 0.32059 0.67114 0.87963 0.0
H899 H 0.2605 0.72062 0.83823 0.0
H900 H 0.28305 0.71901 0.86603 0.0
H901 H 0.2925 0.70036 0.8369 0.0
H902 H 0.30367 0.61849 0.83759 0.0
H903 H 0.35477 0.61468 0.83562 0.0
H904 H 0.67955 0.85306 0.14932 0.0
H905 H 0.6703 0.80461 0.16152 0.0
H906 H 0.59048 0.80759 0.12195 0.0
H907 H 0.59979 0.85614 0.10915 0.0
H908 H 0.62649 0.77933 0.18908 0.0
H909 H 0.63168 0.7423 0.0866 0.0
H910 H 0.64291 0.77695 0.09608 0.0
H911 H 0.60612 0.7689 0.09395 0.0
C912 C 0.65989 0.84356 0.14338 0.0
C913 C 0.64052 0.85833 0.12807 0.0
C914 C 0.65461 0.81589 0.15043 0.0
C915 C 0.62989 0.80248 0.14233 0.0
C916 C 0.60988 0.81749 0.12802 0.0
H917 H 0.61497 0.62959 0.20095 0.0
H918 H 0.59934 0.67628 0.18759 0.0
C919 C 0.6152 0.84523 0.12085 0.0
C920 C 0.62627 0.77234 0.14785 0.0
H921 H 0.62903 0.70801 0.11898 0.0
C922 C 0.62651 0.76364 0.17381 0.0
C923 C 0.62645 0.75211 0.12777 0.0
C924 C 0.62696 0.76037 0.09951 0.0
C925 C 0.62854 0.7352 0.18031 0.0
C926 C 0.62978 0.71501 0.1602 0.0
C927 C 0.62794 0.72363 0.13426 0.0
C928 C 0.63694 0.68548 0.16559 0.0
C929 C 0.63124 0.72718 0.20852 0.0
C930 C 0.66265 0.67481 0.15663 0.0
C931 C 0.67152 0.64816 0.16399 0.0
C932 C 0.65482 0.63171 0.18049 0.0
C933 C 0.6284 0.64188 0.18838 0.0
C934 C 0.61948 0.66856 0.18088 0.0
H935 H 0.63464 0.7457 0.22123 0.0
H936 H 0.61169 0.71656 0.21492 0.0
H937 H 0.64899 0.71237 0.21132 0.0
H938 H 0.67639 0.68758 0.14476 0.0
H939 H 0.69192 0.6409 0.1575 0.0
H940 H 0.66012 0.32772 0.93073 0.0
H941 H 0.71133 0.32697 0.93664 0.0
H942 H 0.72205 0.3661 0.8619 0.0
H943 H 0.67156 0.36801 0.85632 0.0
H944 H 0.75056 0.30082 0.90793 0.0
H945 H 0.77083 0.41489 0.9061 0.0
H946 H 0.73593 0.40061 0.90952 0.0
H947 H 0.75173 0.40393 0.87791 0.0
C948 C 0.67346 0.33653 0.9158 0.0
C949 C 0.66182 0.3481 0.8932 0.0
C950 C 0.70262 0.33602 0.91914 0.0
C951 C 0.72037 0.34701 0.89991 0.0
C952 C 0.70872 0.35833 0.87732 0.0
H953 H 0.89691 0.30407 0.87924 0.0
H954 H 0.84608 0.30942 0.87308 0.0
C955 C 0.67978 0.35922 0.87414 0.0
C956 C 0.75118 0.34559 0.90259 0.0
H957 H 0.81056 0.38519 0.89796 0.0
C958 C 0.76373 0.31927 0.90605 0.0
C959 C 0.7682 0.36977 0.90034 0.0
C960 C 0.75594 0.3989 0.89855 0.0
C961 C 0.79302 0.31639 0.90688 0.0
C962 C 0.81003 0.34039 0.90321 0.0
C963 C 0.79742 0.36675 0.90018 0.0
C964 C 0.84095 0.33904 0.90462 0.0
C965 C 0.80537 0.28784 0.91226 0.0
C966 C 0.85494 0.3552 0.92326 0.0
C967 C 0.88381 0.35273 0.92638 0.0
C968 C 0.89927 0.33378 0.91107 0.0
C969 C 0.8855 0.31868 0.89142 0.0
C970 C 0.85648 0.32146 0.88809 0.0
H971 H 0.78972 0.27354 0.92123 0.0
H972 H 0.81235 0.27823 0.89374 0.0
H973 H 0.82384 0.2894 0.92535 0.0
H974 H 0.84337 0.36906 0.93607 0.0
H975 H 0.89377 0.36485 0.94161 0.0
H976 H 0.83102 0.66774 0.67878 0.0
H977 H 0.83655 0.71858 0.68235 0.0
H978 H 0.89454 0.71775 0.61805 0.0
H979 H 0.88988 0.66702 0.61479 0.0
H980 H 0.90943 0.75618 0.655 0.0
H981 H 0.79705 0.76669 0.62827 0.0
H982 H 0.80235 0.74629 0.65706 0.0
H983 H 0.81559 0.73376 0.62646 0.0
C984 C 0.84545 0.67829 0.6658 0.0
C985 C 0.85963 0.66342 0.64624 0.0
C986 C 0.84841 0.70733 0.66773 0.0
C987 C 0.86528 0.7219 0.64993 0.0
C988 C 0.88119 0.70688 0.63177 0.0
H989 H 0.83245 0.89939 0.62319 0.0
H990 H 0.8423 0.8498 0.61464 0.0
C991 C 0.87847 0.67785 0.62998 0.0
C992 C 0.86476 0.75282 0.64895 0.0
H993 H 0.82038 0.80831 0.64171 0.0
C994 C 0.89002 0.76764 0.65197 0.0
C995 C 0.83955 0.76761 0.64407 0.0
C996 C 0.81215 0.75279 0.63849 0.0
C997 C 0.89052 0.79703 0.65138 0.0
C998 C 0.86497 0.81184 0.6483 0.0
C999 C 0.83994 0.79694 0.64423 0.0
C1000 C 0.86311 0.84261 0.65138 0.0
C1001 C 0.9184 0.81184 0.65397 0.0
C1002 C 0.87194 0.85503 0.67463 0.0
C1003 C 0.86659 0.88324 0.67944 0.0
C1004 C 0.8518 0.89953 0.66127 0.0
C1005 C 0.84384 0.88737 0.63755 0.0
C1006 C 0.84945 0.85908 0.63266 0.0
H1007 H 0.93585 0.7986 0.64654 0.0
H1008 H 0.9185 0.83208 0.64337 0.0
H1009 H 0.92259 0.81608 0.67479 0.0
H1010 H 0.88179 0.84262 0.68967 0.0
H1011 H 0.87298 0.8919 0.69796 0.0
H1012 H 0.8808 0.17634 0.44641 0.0
H1013 H 0.83312 0.16681 0.46211 0.0
H1014 H 0.80939 0.13803 0.38582 0.0
H1015 H 0.85674 0.14684 0.37019 0.0
H1016 H 0.78665 0.19214 0.44513 0.0
H1017 H 0.77439 0.07826 0.43031 0.0
H1018 H 0.80835 0.09521 0.43018 0.0
H1019 H 0.78703 0.09459 0.40129 0.0
C1020 C 0.8655 0.16758 0.43312 0.0
C1021 C 0.8725 0.1624 0.40707 0.0
C1022 C 0.83835 0.16206 0.44213 0.0
C1023 C 0.8179 0.15117 0.42526 0.0
C1024 C 0.82504 0.14559 0.39939 0.0
H1025 H 0.64588 0.18624 0.41075 0.0
H1026 H 0.69667 0.17959 0.40798 0.0
C1027 C 0.85209 0.15097 0.39041 0.0
C1028 C 0.78825 0.14874 0.4335 0.0
H1029 H 0.73111 0.10567 0.42949 0.0
C1030 C 0.77464 0.17306 0.44226 0.0
C1031 C 0.77265 0.12373 0.43014 0.0
C1032 C 0.78648 0.09642 0.42274 0.0
C1033 C 0.74551 0.17357 0.44593 0.0
C1034 C 0.72963 0.14931 0.44016 0.0
C1035 C 0.74338 0.12441 0.43328 0.0
C1036 C 0.69868 0.15015 0.43981 0.0
C1037 C 0.73187 0.20029 0.45531 0.0
C1038 C 0.68299 0.13454 0.45768 0.0
C1039 C 0.65389 0.13804 0.45912 0.0
C1040 C 0.6402 0.15725 0.44273 0.0
C1041 C 0.65585 0.17144 0.42374 0.0
C1042 C 0.68485 0.16781 0.42224 0.0
H1043 H 0.7471 0.2139 0.46575 0.0
H1044 H 0.7238 0.21218 0.43839 0.0
H1045 H 0.71391 0.19575 0.46842 0.0
H1046 H 0.69339 0.12067 0.47125 0.0
H1047 H 0.64241 0.12683 0.47399 0.0
H1048 H 0.12666 0.1386 0.72066 0.0
H1049 H 0.12085 0.18939 0.71758 0.0
H1050 H 0.18398 0.19228 0.65757 0.0
H1051 H 0.19049 0.14166 0.66098 0.0
H1052 H 0.19408 0.22833 0.69915 0.0
H1053 H 0.08477 0.23952 0.66204 0.0
H1054 H 0.08937 0.21791 0.69027 0.0
H1055 H 0.10404 0.207 0.65981 0.0
C1056 C 0.13889 0.14997 0.70641 0.0
C1057 C 0.15913 0.13619 0.69111 0.0
C1058 C 0.13548 0.17897 0.70467 0.0
C1059 C 0.15191 0.19448 0.6873 0.0
C1060 C 0.17115 0.18059 0.67114 0.0
H1061 H 0.15523 0.35131 0.61792 0.0
H1062 H 0.14581 0.30421 0.63351 0.0
C1063 C 0.17477 0.15169 0.67304 0.0
C1064 C 0.15088 0.22538 0.68708 0.0
H1065 H 0.11002 0.28111 0.67011 0.0
C1066 C 0.17564 0.23997 0.69307 0.0
C1067 C 0.12667 0.2403 0.67933 0.0
C1068 C 0.09971 0.22549 0.6723 0.0
C1069 C 0.17739 0.26908 0.69014 0.0
C1070 C 0.15344 0.28399 0.68159 0.0
C1071 C 0.12822 0.26955 0.67686 0.0
C1072 C 0.1555 0.31361 0.6736 0.0
C1073 C 0.20533 0.28331 0.69463 0.0
C1074 C 0.16334 0.33473 0.69116 0.0
C1075 C 0.16913 0.36179 0.68223 0.0
C1076 C 0.16687 0.36804 0.65568 0.0
C1077 C 0.15744 0.34716 0.63847 0.0
C1078 C 0.15186 0.32023 0.64736 0.0
H1079 H 0.22275 0.26801 0.69691 0.0
H1080 H 0.2105 0.29751 0.67827 0.0
H1081 H 0.20417 0.29611 0.71259 0.0
H1082 H 0.16579 0.33006 0.71158 0.0
H1083 H 0.17603 0.37755 0.69597 0.0
H1084 H 0.17 0.84791 0.39938 0.0
H1085 H 0.21882 0.85354 0.41302 0.0
H1086 H 0.22159 0.935 0.37691 0.0
H1087 H 0.17293 0.9293 0.36267 0.0
H1088 H 0.26555 0.90285 0.36281 0.0
H1089 H 0.2543 0.90067 0.46954 0.0
H1090 H 0.23773 0.87104 0.4545 0.0
H1091 H 0.22473 0.90579 0.4481 0.0
C1092 C 0.18085 0.86719 0.39465 0.0
C1093 C 0.1676 0.88817 0.37997 0.0
C1094 C 0.2087 0.87047 0.40261 0.0
C1095 C 0.22367 0.89489 0.39634 0.0
C1096 C 0.21033 0.91608 0.3821 0.0
H1097 H 0.39401 0.9121 0.45887 0.0
H1098 H 0.3459 0.92394 0.44622 0.0
C1099 C 0.18253 0.91278 0.37401 0.0
C1100 C 0.25386 0.89724 0.40286 0.0
H1101 H 0.30043 0.89047 0.45272 0.0
C1102 C 0.27318 0.90058 0.38252 0.0
C1103 C 0.26376 0.89482 0.42861 0.0
C1104 C 0.24401 0.89319 0.45146 0.0
C1105 C 0.30222 0.90003 0.38709 0.0
C1106 C 0.3121 0.89543 0.41259 0.0
C1107 C 0.2928 0.89365 0.43311 0.0
C1108 C 0.34216 0.89033 0.41819 0.0
C1109 C 0.32199 0.90407 0.36453 0.0
C1110 C 0.35602 0.86764 0.40648 0.0
C1111 C 0.38349 0.8609 0.41355 0.0
C1112 C 0.39752 0.87658 0.43267 0.0
C1113 C 0.38384 0.89973 0.44394 0.0
C1114 C 0.35634 0.90648 0.43681 0.0
H1115 H 0.31197 0.91649 0.34884 0.0
H1116 H 0.34162 0.9148 0.37065 0.0
H1117 H 0.32761 0.88328 0.35634 0.0
H1118 H 0.34523 0.85447 0.39255 0.0
H1119 H 0.39333 0.8428 0.40466 0.0
H1120 H 0.24206 0.03064 0.12393 0.0
H1121 H 0.21468 1.00409 0.15542 0.0
H1122 H 0.28529 1.00467 0.20755 0.0
H1123 H 0.3121 0.03309 0.17643 0.0
H1124 H 0.20651 0.96019 0.17551 0.0
H1125 H 0.23762 1.01389 0.26566 0.0
H1126 H 0.24737 0.02751 0.23444 0.0
H1127 H 0.26764 0.99978 0.2493 0.0
C1128 C 0.25206 0.02557 0.14219 0.0
C1129 C 0.28006 0.03508 0.14673 0.0
C1130 C 0.23594 1.00977 0.16072 0.0
C1131 C 0.2464 1.00166 0.18549 0.0
C1132 C 0.27479 1.01072 0.18988 0.0
H1133 H 0.17215 0.87584 0.30309 0.0
H1134 H 0.20381 0.90709 0.27845 0.0
C1135 C 0.29082 0.02715 0.17143 0.0
C1136 C 0.2279 0.9836 0.20538 0.0
H1137 H 0.2124 0.97151 0.27076 0.0
C1138 C 0.20809 0.96336 0.19626 0.0
C1139 C 0.22837 0.98613 0.23328 0.0
C1140 C 0.24613 1.00816 0.2463 0.0
C1141 C 0.19024 0.94661 0.21292 0.0
C1142 C 0.19115 0.94885 0.24061 0.0
C1143 C 0.21099 0.96876 0.24993 0.0
C1144 C 0.17138 0.93138 0.25948 0.0
C1145 C 0.17044 0.92595 0.20046 0.0
C1146 C 0.14165 0.93414 0.2593 0.0
C1147 C 0.12332 0.91675 0.27458 0.0
C1148 C 0.13296 0.89501 0.29138 0.0
C1149 C 0.16287 0.89286 0.29219 0.0
C1150 C 0.18139 0.9107 0.2772 0.0
H1151 H 0.17571 0.92209 0.17977 0.0
H1152 H 0.17079 0.90566 0.21099 0.0
H1153 H 0.14871 0.93432 0.20145 0.0
H1154 H 0.13221 0.9494 0.24646 0.0
H1155 H 0.10091 0.91894 0.27153 0.0
H1156 H 0.99307 0.80548 0.94427 0.0
H1157 H 0.96579 0.83287 0.91315 0.0
H1158 H 1.00961 0.79261 0.85038 0.0
H1159 H 0.03646 0.76441 0.88178 0.0
H1160 H 0.96852 0.87164 0.88158 0.0
H1161 H 0.9389 0.78748 0.81375 0.0
H1162 H 0.95585 0.78002 0.8442 0.0
H1163 H 0.97629 0.79076 0.81646 0.0
C1164 C 0.99702 0.80191 0.92386 0.0
C1165 C 0.0176 0.78163 0.91652 0.0
C1166 C 0.98104 0.81816 0.90554 0.0
C1167 C 0.98408 0.81557 0.87817 0.0
C1168 C 1.00497 0.79546 0.87073 0.0
H1169 H 0.90732 0.95812 0.78044 0.0
H1170 H 0.93916 0.92764 0.80485 0.0
C1171 C 0.02099 0.77903 0.88916 0.0
C1172 C 0.96614 0.83419 0.8584 0.0
H1173 H 0.92894 0.83378 0.80001 0.0
C1174 C 0.96009 0.86287 0.86381 0.0
C1175 C 0.95366 0.82428 0.83466 0.0
C1176 C 0.95619 0.79392 0.82696 0.0
C1177 C 0.94339 0.88088 0.84725 0.0
C1178 C 0.93183 0.8713 0.82302 0.0
C1179 C 0.93746 0.84249 0.81777 0.0
C1180 C 0.91342 0.89014 0.80384 0.0
C1181 C 0.93742 0.91011 0.85692 0.0
C1182 C 0.88825 0.88039 0.79181 0.0
C1183 C 0.87015 0.89812 0.77641 0.0
C1184 C 0.87593 0.92693 0.77111 0.0
C1185 C 0.90184 0.93617 0.78211 0.0
C1186 C 0.92002 0.91848 0.7974 0.0
H1187 H 0.93917 0.91144 0.87838 0.0
H1188 H 0.95309 0.92476 0.84858 0.0
H1189 H 0.91604 0.91712 0.85128 0.0
H1190 H 0.88146 0.85911 0.79551 0.0
H1191 H 0.8501 0.88962 0.77032 0.0
H1192 H 0.86238 0.15764 0.29369 0.0
H1193 H 0.83045 0.12753 0.2688 0.0
H1194 H 0.89754 0.0688 0.25636 0.0
H1195 H 0.9294 0.09932 0.28093 0.0
H1196 H 0.87309 0.06914 0.21288 0.0
H1197 H 0.78022 0.06349 0.2762 0.0
H1198 H 0.78931 0.09909 0.26899 0.0
H1199 H 0.81314 0.07763 0.28755 0.0
C1200 C 0.87018 0.13746 0.2873 0.0
C1201 C 0.89902 0.13091 0.29187 0.0
C1202 C 0.85152 0.11992 0.2722 0.0
C1203 C 0.86022 0.09443 0.26002 0.0
C1204 C 0.88888 0.08761 0.26498 0.0
H1205 H 0.73761 0.97014 0.18111 0.0
H1206 H 0.76674 0.99701 0.21225 0.0
C1207 C 0.90741 0.10513 0.28011 0.0
C1208 C 0.84073 0.07612 0.24129 0.0
H1209 H 0.77346 0.04832 0.23262 0.0
C1210 C 0.85133 0.06482 0.21764 0.0
C1211 C 0.81183 0.06895 0.24619 0.0
C1212 C 0.79796 0.07763 0.2712 0.0
C1213 C 0.83491 0.04819 0.19964 0.0
C1214 C 0.80572 0.04194 0.20402 0.0
C1215 C 0.79524 0.05263 0.22796 0.0
C1216 C 0.78633 0.02478 0.18434 0.0
C1217 C 0.84983 0.03664 0.17615 0.0
C1218 C 0.78568 0.0304 0.15725 0.0
C1219 C 0.7687 1.01483 0.1392 0.0
C1220 C 0.75062 0.99233 0.14654 0.0
C1221 C 0.75074 0.98684 0.17372 0.0
C1222 C 0.7678 1.00263 0.19194 0.0
H1223 H 0.87277 0.03455 0.17965 0.0
H1224 H 0.84143 0.01578 0.17053 0.0
H1225 H 0.84698 0.05128 0.15967 0.0
H1226 H 0.79827 0.0474 0.14969 0.0
H1227 H 0.7699 0.0207 0.11895 0.0
H1228 H 0.18437 0.14639 0.75906 0.0
H1229 H 0.15369 0.17823 0.78407 0.0
H1230 H 0.10768 0.1074 0.81281 0.0
H1231 H 0.13777 0.07593 0.78749 0.0
H1232 H 0.09355 0.19243 0.79123 0.0
H1233 H 0.13126 0.1435 0.88171 0.0
H1234 H 0.14826 0.13743 0.85091 0.0
H1235 H 0.11631 0.11927 0.85885 0.0
C1236 C 0.1667 0.13739 0.76934 0.0
C1237 C 0.16344 0.10764 0.76917 0.0
C1238 C 0.14917 0.156 0.78455 0.0
C1239 C 0.12773 0.1462 0.80162 0.0
C1240 C 0.12372 0.11668 0.80068 0.0
H1241 H 0.02326 0.21502 0.93482 0.0
H1242 H 0.04967 0.18777 0.90305 0.0
C1243 C 0.14084 0.09828 0.78517 0.0
C1244 C 0.11069 0.16595 0.82088 0.0
H1245 H 0.09491 0.17661 0.88604 0.0
C1246 C 0.09411 0.18879 0.81196 0.0
C1247 C 0.11024 0.16234 0.84847 0.0
C1248 C 0.1276 0.13952 0.86074 0.0
C1249 C 0.07727 0.20653 0.8288 0.0
C1250 C 0.07701 0.20316 0.85659 0.0
C1251 C 0.09397 0.1804 0.86536 0.0
C1252 C 0.05929 0.22173 0.87667 0.0
C1253 C 0.05876 0.228 0.81593 0.0
C1254 C 0.05439 0.2513 0.87441 0.0
C1255 C 0.03815 0.2674 0.89298 0.0
C1256 C 0.02619 0.25534 0.91569 0.0
C1257 C 0.03156 0.22605 0.91815 0.0
C1258 C 0.04725 0.20998 0.89948 0.0
H1259 H 0.05397 0.22213 0.79554 0.0
H1260 H 0.03857 0.23053 0.82646 0.0
H1261 H 0.06988 0.24844 0.81551 0.0
H1262 H 0.06361 0.26259 0.8584 0.0
H1263 H 0.03544 0.28963 0.88966 0.0
H1264 H 0.16157 0.68775 1.00877 0.0
H1265 H 0.19151 0.65485 0.03296 0.0
H1266 H 0.11761 0.6178 0.06634 0.0
H1267 H 0.08824 0.6493 0.04108 0.0
H1268 H 0.20895 0.64451 0.07681 0.0
H1269 H 0.15126 0.54581 0.06447 0.0
H1270 H 0.1427 0.57616 0.04542 0.0
H1271 H 0.12813 0.57175 0.07758 0.0
C1272 C 0.15137 0.67127 1.01969 0.0
C1273 C 0.12137 0.67075 1.02044 0.0
C1274 C 0.16896 0.65249 0.03462 0.0
C1275 C 0.15809 0.63194 0.05211 0.0
C1276 C 0.12811 0.63143 0.05274 0.0
H1277 H 0.22517 0.52293 0.18288 0.0
H1278 H 0.19816 0.55094 0.15188 0.0
C1279 C 0.11067 0.64985 0.03755 0.0
C1280 C 0.17748 0.61281 0.0703 0.0
H1281 H 0.18299 0.54735 0.10016 0.0
C1282 C 0.20297 0.62318 0.08136 0.0
C1283 C 0.17145 0.58421 0.0774 0.0
C1284 C 0.1471 0.56871 0.06539 0.0
C1285 C 0.22089 0.60722 0.09872 0.0
C1286 C 0.21428 0.57907 0.10636 0.0
C1287 C 0.18899 0.56861 0.09528 0.0
C1288 C 0.23244 0.56068 0.12594 0.0
C1289 C 0.24672 0.6213 0.10946 0.0
C1290 C 0.26182 0.55502 0.12302 0.0
C1291 C 0.27776 0.53797 0.14106 0.0
C1292 C 0.26558 0.52571 0.16361 0.0
C1293 C 0.23627 0.53145 0.16635 0.0
C1294 C 0.22034 0.54788 0.14816 0.0
H1295 H 0.2457 0.64446 0.10742 0.0
H1296 H 0.24964 0.61608 0.13027 0.0
H1297 H 0.26544 0.61375 0.09868 0.0
H1298 H 0.2727 0.5635 0.10637 0.0
H1299 H 0.29992 0.53473 0.13736 0.0
H1300 H 0.66448 0.85038 0.0488 0.0
H1301 H 0.63431 0.81806 1.02369 0.0
H1302 H 0.58405 0.88766 0.99877 0.0
H1303 H 0.61351 0.91954 1.02429 0.0
H1304 H 0.57171 0.80334 1.01841 0.0
H1305 H 0.60911 0.85303 0.92803 0.0
H1306 H 0.62711 0.85769 0.95857 0.0
H1307 H 0.59532 0.87668 0.95205 0.0
C1308 C 0.64601 0.85889 0.03942 0.0
C1309 C 0.64135 0.88842 0.04072 0.0
C1310 C 0.62876 0.84005 1.02413 0.0
C1311 C 0.60617 0.84945 1.00814 0.0
C1312 C 0.60091 0.8787 1.01014 0.0
H1313 H 0.50261 0.78099 0.87409 0.0
H1314 H 0.52898 0.80805 0.90598 0.0
C1315 C 0.61774 0.89729 1.02573 0.0
C1316 C 0.58918 0.82969 0.98884 0.0
H1317 H 0.5736 0.81918 0.92363 0.0
C1318 C 0.57239 0.80697 0.99768 0.0
C1319 C 0.58879 0.83336 0.96126 0.0
C1320 C 0.60614 0.85631 0.94919 0.0
C1321 C 0.55547 0.78935 0.98078 0.0
C1322 C 0.55536 0.79268 0.95297 0.0
C1323 C 0.57252 0.81536 0.94429 0.0
C1324 C 0.53756 0.7742 0.9328 0.0
C1325 C 0.53669 0.76808 0.99363 0.0
C1326 C 0.532 0.74474 0.93522 0.0
C1327 C 0.51569 0.72877 0.91657 0.0
C1328 C 0.50436 0.74081 0.89358 0.0
C1329 C 0.51041 0.76997 0.89096 0.0
C1330 C 0.5261 0.78593 0.90972 0.0
H1331 H 0.53189 0.77403 1.014 0.0
H1332 H 0.51651 0.76575 0.98306 0.0
H1333 H 0.5476 0.74754 0.99411 0.0
H1334 H 0.54076 0.7334 0.95141 0.0
H1335 H 0.5125 0.70663 0.92005 0.0
H1336 H 0.81446 0.50094 0.18864 0.0
H1337 H 0.84263 0.47462 0.15744 0.0
H1338 H 0.77713 0.48416 0.10061 0.0
H1339 H 0.74972 0.51227 0.13158 0.0
H1340 H 0.84921 0.43157 0.13491 0.0
H1341 H 0.83062 0.49434 0.04707 0.0
H1342 H 0.81903 0.50624 0.0784 0.0
H1343 H 0.79821 0.48148 0.06003 0.0
C1344 C 0.80584 0.49794 0.16941 0.0
C1345 C 0.77909 0.50983 0.16351 0.0
C1346 C 0.82239 0.48228 0.15105 0.0
C1347 C 0.8136 0.47675 0.12512 0.0
C1348 C 0.78643 0.48818 0.11934 0.0
H1349 H 0.88849 0.35204 1.00679 0.0
H1350 H 0.85694 0.38375 1.03108 0.0
C1351 C 0.77002 0.50443 0.13766 0.0
C1352 C 0.83244 0.4588 0.10539 0.0
H1353 H 0.85282 0.45046 0.04064 0.0
C1354 C 0.84974 0.43638 0.11441 0.0
C1355 C 0.83468 0.46348 0.07783 0.0
C1356 C 0.81992 0.48783 0.06524 0.0
C1357 C 0.8677 0.41954 0.09789 0.0
C1358 C 0.86941 0.4239 0.07047 0.0
C1359 C 0.85212 0.44604 0.06124 0.0
C1360 C 0.88936 0.4063 0.05187 0.0
C1361 C 0.88483 0.39652 0.1101 0.0
C1362 C 0.91913 0.40794 0.05328 0.0
C1363 C 0.93749 0.3903 0.03821 0.0
C1364 C 0.92783 0.36942 1.02043 0.0
C1365 C 0.89791 0.36844 1.01844 0.0
C1366 C 0.8794 0.38651 0.03324 0.0
H1367 H 0.8783 0.39227 0.1304 0.0
H1368 H 0.88294 0.37689 0.09862 0.0
H1369 H 0.90732 0.40271 0.11016 0.0
H1370 H 0.92851 0.4224 0.06698 0.0
H1371 H 0.9598 0.39148 0.04225 0.0
H1372 H 0.36029 0.17615 0.04074 0.0
H1373 H 0.39047 0.20734 1.01513 0.0
H1374 H 0.45227 0.14195 1.00954 0.0
H1375 H 0.42141 0.1106 0.03415 0.0
H1376 H 0.43499 0.2355 1.0101 0.0
H1377 H 0.45549 0.15499 0.93608 0.0
H1378 H 0.43163 0.14873 0.9625 0.0
H1379 H 0.46904 0.14436 0.96691 0.0
C1380 C 0.38091 0.16855 0.03531 0.0
C1381 C 0.38812 0.14034 0.04166 0.0
C1382 C 0.39838 0.18666 1.0197 0.0
C1383 C 0.42438 0.17792 1.00856 0.0
C1384 C 0.43239 0.15026 1.01614 0.0
H1385 H 0.53924 0.3102 0.92873 0.0
H1386 H 0.51322 0.28185 0.96059 0.0
C1387 C 0.41477 0.13212 1.03157 0.0
C1388 C 0.44218 0.19713 0.98918 0.0
H1389 H 0.48181 0.19674 0.93228 0.0
C1390 C 0.44508 0.22658 0.99316 0.0
C1391 C 0.45572 0.18729 0.96591 0.0
C1392 C 0.45262 0.15722 0.95737 0.0
C1393 C 0.46043 0.2452 0.97597 0.0
C1394 C 0.47496 0.23513 0.95329 0.0
C1395 C 0.47171 0.20575 0.94918 0.0
C1396 C 0.49223 0.2541 0.93326 0.0
C1397 C 0.45972 0.27606 0.98213 0.0
C1398 C 0.4915 0.24906 0.90604 0.0
C1399 C 0.50711 0.26536 0.88752 0.0
C1400 C 0.52488 0.28831 0.89441 0.0
C1401 C 0.52586 0.29352 0.92162 0.0
C1402 C 0.51032 0.27694 0.94031 0.0
H1403 H 0.44118 0.28159 0.99421 0.0
H1404 H 0.47882 0.28171 0.99332 0.0
H1405 H 0.45905 0.28886 0.96419 0.0
H1406 H 0.47846 0.23225 0.89869 0.0
H1407 H 0.50516 0.25966 0.86726 0.0
H1408 H 0.59405 0.43053 0.77812 0.0
H1409 H 0.62549 0.46113 0.75337 0.0
H1410 H 0.69302 0.40263 0.76446 0.0
H1411 H 0.66142 0.37229 0.78977 0.0
H1412 H 0.71867 0.45136 0.76045 0.0
H1413 H 0.64348 0.45717 0.67959 0.0
H1414 H 0.629 0.47191 0.70864 0.0
H1415 H 0.63727 0.43503 0.70725 0.0
C1416 C 0.61596 0.42459 0.77669 0.0
C1417 C 0.6246 0.39882 0.78817 0.0
C1418 C 0.6342 0.44205 0.7613 0.0
C1419 C 0.66258 0.43487 0.75536 0.0
C1420 C 0.67175 0.4098 0.76783 0.0
H1421 H 0.75313 0.50849 0.61535 0.0
H1422 H 0.72464 0.48229 0.64646 0.0
C1423 C 0.6534 0.39232 0.78325 0.0
C1424 C 0.68197 0.45262 0.73618 0.0
H1425 H 0.68328 0.4867 0.67641 0.0
C1426 C 0.71051 0.45897 0.74216 0.0
C1427 C 0.67307 0.46299 0.71132 0.0
C1428 C 0.64417 0.45623 0.70111 0.0
C1429 C 0.72909 0.47486 0.72534 0.0
C1430 C 0.71987 0.48606 0.70088 0.0
C1431 C 0.69148 0.47923 0.69474 0.0
C1432 C 0.73899 0.50346 0.68116 0.0
C1433 C 0.75912 0.47852 0.73392 0.0
C1434 C 0.75777 0.52558 0.68849 0.0
C1435 C 0.77472 0.54109 0.67008 0.0
C1436 C 0.77411 0.53578 0.64288 0.0
C1437 C 0.75515 0.51393 0.63566 0.0
C1438 C 0.73828 0.49856 0.65393 0.0
H1439 H 0.76542 0.46212 0.74805 0.0
H1440 H 0.77376 0.47769 0.71717 0.0
H1441 H 0.76139 0.49917 0.74362 0.0
H1442 H 0.75915 0.53152 0.70868 0.0
H1443 H 0.78827 0.55756 0.67734 0.0
H1444 H 0.36147 0.3882 0.25565 0.0
H1445 H 0.39242 0.35642 0.28043 0.0
H1446 H 0.43351 0.42755 0.31457 0.0
H1447 H 0.40334 0.45898 0.28942 0.0
H1448 H 0.4552 0.34652 0.28964 0.0
H1449 H 0.40624 0.38468 0.38023 0.0
H1450 H 0.39054 0.3907 0.34884 0.0
H1451 H 0.41988 0.41152 0.35928 0.0
C1452 C 0.37819 0.39739 0.26708 0.0
C1453 C 0.38004 0.42724 0.26849 0.0
C1454 C 0.39585 0.37877 0.28216 0.0
C1455 C 0.416 0.38857 0.30058 0.0
C1456 C 0.41859 0.41824 0.30126 0.0
H1457 H 0.51428 0.31725 0.43669 0.0
H1458 H 0.48831 0.34487 0.40496 0.0
C1459 C 0.4014 0.43667 0.2859 0.0
C1460 C 0.43311 0.36865 0.31962 0.0
H1461 H 0.44435 0.35382 0.38485 0.0
C1462 C 0.45254 0.34826 0.31046 0.0
C1463 C 0.43097 0.3699 0.34732 0.0
C1464 C 0.41068 0.39015 0.3597 0.0
C1465 C 0.46959 0.3307 0.32725 0.0
C1466 C 0.46719 0.33158 0.35515 0.0
C1467 C 0.44741 0.35192 0.36411 0.0
C1468 C 0.4849 0.31293 0.37519 0.0
C1469 C 0.49118 0.31227 0.31436 0.0
C1470 C 0.49318 0.28433 0.37106 0.0
C1471 C 0.50925 0.26814 0.38966 0.0
C1472 C 0.51761 0.27897 0.41423 0.0
C1473 C 0.50888 0.30721 0.41852 0.0
C1474 C 0.49341 0.32346 0.39985 0.0
H1475 H 0.49707 0.32037 0.29491 0.0
H1476 H 0.51058 0.31069 0.32621 0.0
H1477 H 0.48222 0.29101 0.31156 0.0
H1478 H 0.48676 0.27379 0.3535 0.0
H1479 H 0.51457 0.24669 0.38485 0.0
H1480 H 0.26854 0.5258 0.61667 0.0
H1481 H 0.29783 0.55179 0.64742 0.0
H1482 H 0.27706 0.49239 0.70702 0.0
H1483 H 0.24802 0.4659 0.67588 0.0
H1484 H 0.2958 0.58247 0.68725 0.0
H1485 H 0.35622 0.49368 0.72638 0.0
H1486 H 0.3331 0.48962 0.69896 0.0
H1487 H 0.31921 0.48944 0.7315 0.0
C1488 C 0.27001 0.51784 0.63627 0.0
C1489 C 0.25509 0.49289 0.64282 0.0
C1490 C 0.28721 0.53319 0.65435 0.0
C1491 C 0.29127 0.52481 0.68056 0.0
C1492 C 0.27604 0.49997 0.68731 0.0
H1493 H 0.3691 0.6555 0.79192 0.0
H1494 H 0.33631 0.62528 0.76791 0.0
C1495 C 0.2587 0.48455 0.66913 0.0
C1496 C 0.31062 0.54224 0.70007 0.0
H1497 H 0.36222 0.53716 0.74791 0.0
C1498 C 0.31015 0.5721 0.70042 0.0
C1499 C 0.3306 0.53029 0.71782 0.0
C1500 C 0.33514 0.49905 0.71857 0.0
C1501 C 0.32761 0.5893 0.71709 0.0
C1502 C 0.34694 0.57735 0.73544 0.0
C1503 C 0.34775 0.54749 0.73482 0.0
C1504 C 0.36697 0.59504 0.75414 0.0
C1505 C 0.32572 0.62063 0.71385 0.0
C1506 C 0.39593 0.58851 0.75756 0.0
C1507 C 0.41488 0.60572 0.77251 0.0
C1508 C 0.40645 0.63049 0.78597 0.0
C1509 C 0.37719 0.6363 0.78354 0.0
C1510 C 0.35815 0.61907 0.76859 0.0
H1511 H 0.31743 0.62638 0.69443 0.0
H1512 H 0.31107 0.62925 0.72858 0.0
H1513 H 0.34657 0.63073 0.71636 0.0
H1514 H 0.40459 0.57064 0.74736 0.0
H1515 H 0.43703 0.60055 0.77196 0.0
H1516 H 0.69112 0.65005 0.26551 0.0
H1517 H 0.65935 0.6801 0.29076 0.0
H1518 H 0.60333 0.61036 0.30102 0.0
H1519 H 0.63573 0.5803 0.27664 0.0
H1520 H 0.61235 0.70472 0.296 0.0
H1521 H 0.60235 0.62708 0.37414 0.0
H1522 H 0.62556 0.62146 0.34708 0.0
H1523 H 0.58855 0.61359 0.34433 0.0
C1524 C 0.67136 0.64113 0.27187 0.0
C1525 C 0.66627 0.61212 0.26686 0.0
C1526 C 0.653 0.65863 0.28729 0.0
C1527 C 0.6282 0.64845 0.29962 0.0
C1528 C 0.62221 0.61987 0.29341 0.0
H1529 H 0.50521 0.77446 0.37814 0.0
H1530 H 0.53219 0.74652 0.34657 0.0
C1531 C 0.64069 0.6024 0.27813 0.0
C1532 C 0.60958 0.66715 0.31884 0.0
H1533 H 0.57266 0.6666 0.37728 0.0
C1534 C 0.60384 0.69595 0.31371 0.0
C1535 C 0.59799 0.65753 0.34303 0.0
C1536 C 0.60413 0.62836 0.35269 0.0
C1537 C 0.58758 0.71411 0.33067 0.0
C1538 C 0.57503 0.70414 0.35435 0.0
C1539 C 0.58114 0.67545 0.3596 0.0
C1540 C 0.55697 0.72265 0.37421 0.0
C1541 C 0.58513 0.74449 0.32313 0.0
C1542 C 0.55945 0.71948 0.40158 0.0
C1543 C 0.5433 0.7355 0.41998 0.0
C1544 C 0.52314 0.75623 0.41279 0.0
C1545 C 0.52035 0.7595 0.38544 0.0
C1546 C 0.53648 0.74321 0.36691 0.0
H1547 H 0.60251 0.75095 0.31004 0.0
H1548 H 0.5651 0.7477 0.31252 0.0
H1549 H 0.58539 0.75836 0.34043 0.0
H1550 H 0.57437 0.70444 0.40913 0.0
H1551 H 0.54679 0.73141 0.44038 0.0
H1552 H 0.77753 1.00539 0.63285 0.0
H1553 H 0.74907 0.03163 0.60121 0.0
H1554 H 0.71527 0.08213 0.66292 0.0
H1555 H 0.74277 0.05543 0.69434 0.0
H1556 H 0.67467 0.08018 0.6337 0.0
H1557 H 0.75589 0.09837 0.55963 0.0
H1558 H 0.75032 0.0617 0.56499 0.0
H1559 H 0.76437 0.08332 0.59066 0.0
C1560 C 0.76429 0.02219 0.63993 0.0
C1561 C 0.7635 0.02761 0.66711 0.0
C1562 C 0.74773 0.03786 0.62133 0.0
C1563 C 0.72933 0.06042 0.62837 0.0
C1564 C 0.72857 0.06551 0.65559 0.0
H1565 H 0.65714 0.19026 0.51554 0.0
H1566 H 0.68719 0.15873 0.541 0.0
C1567 C 0.7449 0.04985 0.67408 0.0
C1568 C 0.71059 0.07806 0.60845 0.0
H1569 H 0.70937 0.11043 0.54775 0.0
C1570 C 0.68276 0.08656 0.61497 0.0
C1571 C 0.71964 0.08791 0.58342 0.0
C1572 C 0.74924 0.08266 0.57428 0.0
C1573 C 0.66475 0.1032 0.59835 0.0
C1574 C 0.67336 0.1121 0.57291 0.0
C1575 C 0.70136 0.104 0.56649 0.0
C1576 C 0.65446 0.1303 0.5536 0.0
C1577 C 0.63672 0.11207 0.60923 0.0
C1578 C 0.62519 0.12554 0.5494 0.0
C1579 C 0.6077 0.1438 0.534 0.0
C1580 C 0.61801 0.16784 0.52067 0.0
C1581 C 0.64761 0.17163 0.52368 0.0
C1582 C 0.66515 0.15346 0.53918 0.0
H1583 H 0.63686 0.11211 0.63078 0.0
H1584 H 0.6308 0.13336 0.60254 0.0
H1585 H 0.62038 0.09696 0.60286 0.0
H1586 H 0.6152 0.10788 0.55871 0.0
H1587 H 0.58526 0.13999 0.53403 0.0
H1588 H 0.17128 0.35322 0.53914 0.0
H1589 H 0.14044 0.32132 0.51478 0.0
H1590 H 0.07967 0.38733 0.50707 0.0
H1591 H 0.1103 0.41873 0.53176 0.0
H1592 H 0.12343 0.3152 0.46851 0.0
H1593 H 0.0214 0.33108 0.51633 0.0
H1594 H 0.03571 0.36373 0.5054 0.0
H1595 H 0.05356 0.34409 0.53033 0.0
C1596 C 0.15053 0.36067 0.53394 0.0
C1597 C 0.14335 0.38897 0.54005 0.0
C1598 C 0.13276 0.34221 0.51892 0.0
C1599 C 0.10629 0.35051 0.50846 0.0
C1600 C 0.09881 0.37862 0.51495 0.0
H1601 H 0.98142 0.2281 0.43026 0.0
H1602 H 1.00897 0.25666 0.46131 0.0
C1603 C 0.11664 0.39702 0.52992 0.0
C1604 C 0.08796 0.33083 0.48994 0.0
H1605 H 0.01981 0.30909 0.47482 0.0
C1606 C 0.10076 0.31416 0.47029 0.0
C1607 C 0.05789 0.32776 0.49116 0.0
C1608 C 0.04131 0.34235 0.51208 0.0
C1609 C 0.08544 0.29616 0.45258 0.0
C1610 C 0.05528 0.294 0.45306 0.0
C1611 C 0.04249 0.3101 0.47314 0.0
C1612 C 0.03719 0.27557 0.43332 0.0
C1613 C 0.10242 0.27875 0.43386 0.0
C1614 C 0.04204 0.27562 0.40608 0.0
C1615 C 0.02607 0.25896 0.38808 0.0
C1616 C 1.00364 0.24086 0.39558 0.0
C1617 C 0.99828 0.241 0.42279 0.0
C1618 C 1.01437 0.25785 0.44095 0.0
H1619 H 0.12395 0.27484 0.44136 0.0
H1620 H 0.09226 0.25822 0.43 0.0
H1621 H 0.10453 0.29027 0.41529 0.0
H1622 H 0.05817 0.28914 0.39826 0.0
H1623 H 0.03143 0.2606 0.36773 0.0
H1624 H 0.2434 1.00512 0.63303 0.0
H1625 H 0.27152 0.97704 0.60207 0.0
H1626 H 0.34019 0.9766 0.65626 0.0
H1627 H 0.31175 1.00237 0.68737 0.0
H1628 H 0.31215 0.97396 0.5717 0.0
H1629 H 0.35304 0.89964 0.64336 0.0
H1630 H 0.32661 0.92483 0.65207 0.0
H1631 H 0.3635 0.93421 0.65263 0.0
C1632 C 0.2644 0.99886 0.63864 0.0
C1633 C 0.27435 1.00643 0.66378 0.0
C1634 C 0.28095 0.98241 0.62052 0.0
C1635 C 0.30875 0.97253 0.62603 0.0
C1636 C 0.31885 0.98143 0.65072 0.0
H1637 H 0.45243 0.88632 0.54197 0.0
H1638 H 0.42144 0.91704 0.56712 0.0
C1639 C 0.30223 0.99711 0.66892 0.0
C1640 C 0.32709 0.95392 0.60649 0.0
H1641 H 0.3776 0.90093 0.60318 0.0
C1642 C 0.32611 0.9579 0.57906 0.0
C1643 C 0.34593 0.93183 0.61434 0.0
C1644 C 0.34712 0.92213 0.64213 0.0
C1645 C 0.34299 0.94214 0.56062 0.0
C1646 C 0.36259 0.92109 0.56874 0.0
C1647 C 0.36344 0.91691 0.59598 0.0
C1648 C 0.38235 0.90361 0.54985 0.0
C1649 C 0.34014 0.94872 0.5322 0.0
C1650 C 0.37235 0.88513 0.53008 0.0
C1651 C 0.3907 0.867 0.51517 0.0
C1652 C 0.42052 0.86667 0.51822 0.0
C1653 C 0.43027 0.88625 0.53717 0.0
C1654 C 0.41205 0.90378 0.55243 0.0
H1655 H 0.32856 0.9686 0.52886 0.0
H1656 H 0.36117 0.95021 0.52295 0.0
H1657 H 0.3285 0.93148 0.5225 0.0
H1658 H 0.34991 0.8833 0.5271 0.0
H1659 H 0.38114 0.85161 0.50248 0.0
H1660 H 0.0303 0.74546 0.37552 0.0
H1661 H 1.0026 0.71808 0.40648 0.0
H1662 H 0.99379 0.79084 0.45495 0.0
H1663 H 0.02255 0.8184 0.42406 0.0
H1664 H 1.00929 0.703 0.46044 0.0
H1665 H 0.91053 0.76346 0.4522 0.0
H1666 H 0.93823 0.76619 0.42835 0.0
H1667 H 0.94179 0.78334 0.45917 0.0
C1668 C 0.0227 0.7561 0.3927 0.0
C1669 C 0.02951 0.78501 0.3963 0.0
C1670 C 1.00646 0.73995 0.41086 0.0
C1671 C 0.99485 0.75146 0.4339 0.0
C1672 C 1.00148 0.78046 0.43768 0.0
H1673 H 0.86646 0.67735 0.54873 0.0
H1674 H 0.8989 0.70838 0.52505 0.0
C1675 C 0.01846 0.79658 0.41969 0.0
C1676 C 0.97665 0.73306 0.45342 0.0
H1677 H 0.91053 0.72598 0.48172 0.0
C1678 C 0.98768 0.70834 0.4649 0.0
C1679 C 0.9481 0.73889 0.46052 0.0
C1680 C 0.93367 0.76425 0.4494 0.0
C1681 C 0.9722 0.6906 0.48268 0.0
C1682 C 0.94313 0.6957 0.48912 0.0
C1683 C 0.93221 0.72067 0.47765 0.0
C1684 C 0.92412 0.67585 0.50702 0.0
C1685 C 0.98831 0.66712 0.49533 0.0
C1686 C 0.92602 0.64602 0.50682 0.0
C1687 C 0.90792 0.62804 0.52177 0.0
C1688 C 0.88587 0.63797 0.53812 0.0
C1689 C 0.88383 0.66782 0.53841 0.0
C1690 C 0.90237 0.686 0.52376 0.0
H1691 H 1.01105 0.67222 0.49676 0.0
H1692 H 0.98043 0.66269 0.51516 0.0
H1693 H 0.98645 0.64794 0.48326 0.0
H1694 H 0.94058 0.63594 0.49374 0.0
H1695 H 0.90974 0.60566 0.51864 0.0
H1696 H 0.27766 0.08404 0.79333 0.0
H1697 H 0.30151 0.07672 0.83494 0.0
H1698 H 0.23339 0.02311 0.85953 0.0
H1699 H 0.2113 0.02842 0.81737 0.0
H1700 H 0.28278 0.09654 0.87512 0.0
H1701 H 0.2922 0.98445 0.8973 0.0
H1702 H 0.2846 0.99648 0.86492 0.0
H1703 H 0.2566 0.99102 0.88805 0.0
C1704 C 0.26885 0.06938 0.80715 0.0
C1705 C 0.2432 0.05608 0.80202 0.0
C1706 C 0.28222 0.06542 0.83104 0.0
C1707 C 0.26943 0.04919 0.8506 0.0
C1708 C 0.24441 0.03488 0.84478 0.0
H1709 H 0.28141 0.11097 1.0081 0.0
H1710 H 0.26307 0.09583 0.96585 0.0
C1711 C 0.23161 0.03809 0.82065 0.0
C1712 C 0.27893 0.05158 0.87807 0.0
H1713 H 0.28558 1.01532 0.93489 0.0
C1714 C 0.28397 0.07858 0.88794 0.0
C1715 C 0.2807 0.02834 0.8951 0.0
C1716 C 0.27853 0.99848 0.88562 0.0
C1717 C 0.29009 0.08311 0.91417 0.0
C1718 C 0.28936 0.06021 0.93162 0.0
C1719 C 0.28518 0.03304 0.92174 0.0
C1720 C 0.295 0.06408 0.95978 0.0
C1721 C 0.29796 0.11245 0.92257 0.0
C1722 C 0.31699 0.04923 0.9716 0.0
C1723 C 0.32653 0.057 0.99619 0.0
C1724 C 0.31424 0.07969 1.0093 0.0
C1725 C 0.29083 0.09309 0.99847 0.0
C1726 C 0.28076 0.08477 0.97416 0.0
H1727 H 0.306 0.12505 0.90604 0.0
H1728 H 0.27907 0.12328 0.93024 0.0
H1729 H 0.31436 0.11216 0.93789 0.0
H1730 H 0.32823 0.03308 0.96105 0.0
H1731 H 0.34505 0.04686 1.004 0.0
H1732 H 0.03465 0.73057 0.0551 0.0
H1733 H 0.02182 0.75014 0.09745 0.0
H1734 H 0.09957 0.79672 0.09877 0.0
H1735 H 0.11183 0.77776 0.05614 0.0
H1736 H 0.05125 0.73791 0.13903 0.0
H1737 H 0.04856 0.85338 0.13096 0.0
H1738 H 0.04614 0.83063 0.10299 0.0
H1739 H 0.07984 0.8392 0.11678 0.0
C1740 C 0.04818 0.74618 0.06391 0.0
C1741 C 0.0737 0.75356 0.0521 0.0
C1742 C 0.04103 0.75709 0.08819 0.0
C1743 C 0.05952 0.77521 0.10123 0.0
C1744 C 0.08448 0.78356 0.08882 0.0
H1745 H 0.11517 0.79023 0.25428 0.0
H1746 H 0.10009 0.77252 0.21186 0.0
C1747 C 0.09152 0.77276 0.06445 0.0
C1748 C 0.05516 0.78168 0.12914 0.0
H1749 H 0.05902 0.83464 0.17356 0.0
C1750 C 0.05236 0.75914 0.1465 0.0
C1751 C 0.05625 0.80934 0.13901 0.0
C1752 C 0.05756 0.83452 0.12141 0.0
C1753 C 0.05249 0.76341 0.17343 0.0
C1754 C 0.05584 0.79082 0.18327 0.0
C1755 C 0.05675 0.81354 0.16598 0.0
C1756 C 0.06132 0.79628 0.21114 0.0
C1757 C 0.04953 0.73856 0.1912 0.0
C1758 C 0.0441 0.81473 0.22517 0.0
C1759 C 0.0526 0.82457 0.2495 0.0
C1760 C 0.07839 0.81604 0.26011 0.0
C1761 C 0.09478 0.79631 0.24681 0.0
C1762 C 0.08621 0.78632 0.22256 0.0
H1763 H 0.03909 0.72064 0.18133 0.0
H1764 H 0.07066 0.73162 0.19762 0.0
H1765 H 0.03716 0.74437 0.20861 0.0
H1766 H 0.02495 0.82282 0.21663 0.0
H1767 H 0.0401 0.84047 0.25913 0.0
H1768 H 0.82766 1.00787 0.82192 0.0
H1769 H 0.80465 1.01087 0.86415 0.0
H1770 H 0.73956 0.95494 0.83718 0.0
H1771 H 0.76399 0.95026 0.79543 0.0
H1772 H 0.75811 0.02311 0.8883 0.0
H1773 H 0.77437 0.90811 0.89206 0.0
H1774 H 0.78705 0.92915 0.86561 0.0
H1775 H 0.7508 0.91816 0.86663 0.0
C1776 C 0.80791 0.99698 0.8248 0.0
C1777 C 0.79732 0.97912 0.80549 0.0
C1778 C 0.79478 0.99867 0.84893 0.0
C1779 C 0.77087 0.98242 0.85414 0.0
C1780 C 0.75852 0.96694 0.83385 0.0
H1781 H 0.6812 0.97935 1.00021 0.0
H1782 H 0.70134 0.99454 0.95904 0.0
C1783 C 0.77215 0.96462 0.80989 0.0
C1784 C 0.76162 0.97867 0.88145 0.0
H1785 H 0.7508 0.92853 0.9274 0.0
C1786 C 0.75653 1.00244 0.89691 0.0
C1787 C 0.76061 0.95176 0.893 0.0
C1788 C 0.7688 0.92539 0.87857 0.0
C1789 C 0.7501 0.99999 0.92345 0.0
C1790 C 0.74752 0.97295 0.93457 0.0
C1791 C 0.75277 0.9493 0.91906 0.0
C1792 C 0.73824 0.96809 0.96177 0.0
C1793 C 0.74695 0.02645 0.93927 0.0
C1794 C 0.75214 0.94814 0.97727 0.0
C1795 C 0.7402 0.93895 1.00053 0.0
C1796 C 0.71464 0.95022 1.00904 0.0
C1797 C 0.70149 0.97117 0.99437 0.0
C1798 C 0.71309 0.97995 0.97087 0.0
H1799 H 0.76039 0.0435 0.93144 0.0
H1800 H 0.72483 0.0337 0.93821 0.0
H1801 H 0.75256 0.02307 0.95992 0.0
H1802 H 0.77152 0.93856 0.9707 0.0
H1803 H 0.75019 0.92214 1.01121 0.0
H1804 H 0.93921 0.25546 0.04636 0.0
H1805 H 0.94589 0.23171 0.08815 0.0
H1806 H 1.01149 0.29059 0.10772 0.0
H1807 H 1.00629 0.31265 0.06533 0.0
H1808 H 0.02183 0.24449 0.13162 0.0
H1809 H 0.90965 0.27068 0.14705 0.0
H1810 H 0.91416 0.24594 0.12122 0.0
H1811 H 0.92829 0.28088 0.11822 0.0
C1812 C 0.95591 0.26231 0.05918 0.0
C1813 C 0.9726 0.28546 0.05264 0.0
C1814 C 0.95942 0.24914 0.0832 0.0
C1815 C 0.97842 0.26009 0.10154 0.0
C1816 C 0.99654 0.28184 0.09408 0.0
H1817 H 0.93339 0.2402 0.26353 0.0
H1818 H 0.94722 0.26241 0.22262 0.0
C1819 C 0.99363 0.29441 0.06983 0.0
C1820 C 0.97716 0.25159 0.12927 0.0
H1821 H 0.93185 0.24477 0.18008 0.0
C1822 C 1.00217 0.24467 0.14229 0.0
C1823 C 0.95173 0.25289 0.14354 0.0
C1824 C 0.92453 0.26331 0.13188 0.0
C1825 C 1.00234 0.23857 0.16899 0.0
C1826 C 0.97656 0.23793 0.18277 0.0
C1827 C 0.95169 0.24517 0.16973 0.0
C1828 C 0.97414 0.22822 0.21015 0.0
C1829 C 0.03028 0.23374 0.18209 0.0
C1830 C 0.98563 0.20232 0.21751 0.0
C1831 C 0.97873 0.19039 0.24137 0.0
C1832 C 0.95983 0.20382 0.25816 0.0
C1833 C 0.94885 0.23002 0.2513 0.0
C1834 C 0.95651 0.24246 0.22777 0.0
H1835 H 0.04716 0.24612 0.17259 0.0
H1836 H 0.02963 0.23948 0.20296 0.0
H1837 H 0.03608 0.21128 0.18028 0.0
H1838 H 0.99831 0.19025 0.20412 0.0
H1839 H 0.98655 0.16963 0.24588 0.0
H1840 H 0.26668 0.44181 0.29325 0.0
H1841 H 0.24266 0.44732 0.33499 0.0
H1842 H 0.30347 0.5101 0.35741 0.0
H1843 H 0.32557 0.50626 0.31499 0.0
H1844 H 0.26418 0.4319 0.3758 0.0
H1845 H 0.2396 0.54307 0.3929 0.0
H1846 H 0.25123 0.53089 0.36161 0.0
H1847 H 0.27641 0.53999 0.38639 0.0
C1848 C 0.27368 0.45795 0.30658 0.0
C1849 C 0.29723 0.47435 0.30071 0.0
C1850 C 0.2603 0.46086 0.33059 0.0
C1851 C 0.27104 0.47931 0.34955 0.0
C1852 C 0.29396 0.49647 0.34308 0.0
H1853 H 0.25166 0.42556 0.51034 0.0
H1854 H 0.2735 0.44024 0.46934 0.0
C1855 C 0.30671 0.49421 0.3188 0.0
C1856 C 0.26156 0.47704 0.37702 0.0
H1857 H 0.24558 0.51446 0.43171 0.0
C1858 C 0.25963 0.45006 0.38778 0.0
C1859 C 0.25587 0.5006 0.39301 0.0
C1860 C 0.25563 0.53018 0.38271 0.0
C1861 C 0.25198 0.44586 0.41369 0.0
C1862 C 0.24762 0.46938 0.42998 0.0
C1863 C 0.24954 0.49643 0.41938 0.0
C1864 C 0.23835 0.46603 0.45731 0.0
C1865 C 0.2477 0.41611 0.42294 0.0
C1866 C 0.2126 0.47761 0.46514 0.0
C1867 C 0.20075 0.47008 0.48887 0.0
C1868 C 0.21451 0.45106 0.50522 0.0
C1869 C 0.24102 0.44072 0.49819 0.0
C1870 C 0.25323 0.44879 0.47467 0.0
H1871 H 0.24431 0.4014 0.40649 0.0
H1872 H 0.26672 0.40906 0.43352 0.0
H1873 H 0.22935 0.41458 0.43615 0.0
H1874 H 0.20074 0.49097 0.45217 0.0
H1875 H 0.17998 0.47779 0.49375 0.0
H1876 H 0.43 0.75845 0.55099 0.0
H1877 H 0.44064 0.73882 0.59382 0.0
H1878 H 0.51747 0.78674 0.59648 0.0
H1879 H 0.50652 0.80669 0.55385 0.0
H1880 H 0.48453 0.71049 0.61853 0.0
H1881 H 0.4718 0.81894 0.65662 0.0
H1882 H 0.46293 0.80954 0.62374 0.0
H1883 H 0.49906 0.81435 0.6329 0.0
C1884 C 0.44972 0.76376 0.56028 0.0
C1885 C 0.46781 0.78347 0.54901 0.0
C1886 C 0.4557 0.75277 0.58481 0.0
C1887 C 0.47955 0.7618 0.59856 0.0
C1888 C 0.4987 0.7799 0.58642 0.0
H1889 H 0.50314 0.68952 0.75403 0.0
H1890 H 0.51626 0.71049 0.71227 0.0
C1891 C 0.49269 0.79091 0.56193 0.0
C1892 C 0.48249 0.75469 0.62644 0.0
H1893 H 0.47913 0.78333 0.68723 0.0
C1894 C 0.48378 0.72639 0.63359 0.0
C1895 C 0.48111 0.77555 0.64602 0.0
C1896 C 0.47842 0.80629 0.63956 0.0
C1897 C 0.48304 0.71828 0.65977 0.0
C1898 C 0.48128 0.73913 0.67934 0.0
C1899 C 0.48078 0.76746 0.6722 0.0
C1900 C 0.4765 0.73171 0.70693 0.0
C1901 C 0.48266 0.68742 0.66617 0.0
C1902 C 0.45066 0.73841 0.71861 0.0
C1903 C 0.44342 0.7269 0.74261 0.0
C1904 C 0.46208 0.70892 0.75543 0.0
C1905 C 0.48873 0.70391 0.74471 0.0
C1906 C 0.49605 0.71553 0.72074 0.0
H1907 H 0.47909 0.67421 0.64871 0.0
H1908 H 0.50318 0.68138 0.67471 0.0
H1909 H 0.46599 0.68273 0.68061 0.0
H1910 H 0.43527 0.75088 0.7083 0.0
H1911 H 0.42249 0.73038 0.75024 0.0
H1912 H 0.77317 0.59398 0.30108 0.0
H1913 H 0.79213 0.58306 0.34409 0.0
H1914 H 0.73711 0.5114 0.34912 0.0
H1915 H 0.71824 0.52237 0.30608 0.0
H1916 H 0.72795 0.5522 0.38701 0.0
H1917 H 0.84069 0.52412 0.38218 0.0
H1918 H 0.8317 0.55342 0.36193 0.0
H1919 H 0.81684 0.51953 0.35523 0.0
C1920 C 0.7663 0.57509 0.31085 0.0
C1921 C 0.74482 0.55859 0.30023 0.0
C1922 C 0.77706 0.56885 0.3354 0.0
C1923 C 0.76612 0.54631 0.34972 0.0
C1924 C 0.74601 0.5287 0.33828 0.0
H1925 H 0.83015 0.54308 0.50874 0.0
H1926 H 0.81175 0.52439 0.46776 0.0
C1927 C 0.73539 0.53486 0.3137 0.0
C1928 C 0.77154 0.54473 0.37795 0.0
H1929 H 0.82449 0.54441 0.42239 0.0
C1930 C 0.74898 0.54988 0.39485 0.0
C1931 C 0.79883 0.54134 0.38815 0.0
C1932 C 0.8234 0.53401 0.37097 0.0
C1933 C 0.75329 0.55373 0.42152 0.0
C1934 C 0.78096 0.55268 0.4315 0.0
C1935 C 0.80326 0.5455 0.41481 0.0
C1936 C 0.78773 0.56157 0.45842 0.0
C1937 C 0.72815 0.55966 0.43849 0.0
C1938 C 0.7798 0.58837 0.46717 0.0
C1939 C 0.78977 0.59871 0.49079 0.0
C1940 C 0.80785 0.58248 0.50604 0.0
C1941 C 0.81528 0.55546 0.49771 0.0
C1942 C 0.80509 0.54497 0.47419 0.0
H1943 H 0.70906 0.54896 0.43096 0.0
H1944 H 0.73181 0.55286 0.45874 0.0
H1945 H 0.72382 0.58251 0.43844 0.0
H1946 H 0.76735 0.60205 0.45501 0.0
H1947 H 0.78483 0.62006 0.49636 0.0
H1948 H 0.52747 0.23107 0.55321 0.0
H1949 H 0.51444 0.25285 0.59462 0.0
H1950 H 0.59623 0.29176 0.59866 0.0
H1951 H 0.6087 0.27076 0.55695 0.0
H1952 H 0.53915 0.2401 0.63821 0.0
H1953 H 0.55021 0.35462 0.62576 0.0
H1954 H 0.54754 0.33091 0.59851 0.0
H1955 H 0.58078 0.33657 0.61439 0.0
C1956 C 0.542 0.2455 0.56239 0.0
C1957 C 0.56863 0.25025 0.55158 0.0
C1958 C 0.53472 0.25764 0.58615 0.0
C1959 C 0.55414 0.27437 0.59964 0.0
C1960 C 0.58044 0.27986 0.58828 0.0
H1961 H 0.6026 0.29572 0.75383 0.0
H1962 H 0.58892 0.27607 0.71168 0.0
C1963 C 0.58762 0.26787 0.56445 0.0
C1964 C 0.54874 0.28262 0.62698 0.0
H1965 H 0.55565 0.33701 0.66958 0.0
C1966 C 0.5422 0.26143 0.64496 0.0
C1967 C 0.55238 0.31046 0.63588 0.0
C1968 C 0.55782 0.33446 0.61754 0.0
C1969 C 0.54103 0.26704 0.67166 0.0
C1970 C 0.54681 0.29437 0.68061 0.0
C1971 C 0.55152 0.31593 0.66262 0.0
C1972 C 0.55086 0.30068 0.70847 0.0
C1973 C 0.53406 0.24374 0.69026 0.0
C1974 C 0.53343 0.32016 0.721 0.0
C1975 C 0.54102 0.33098 0.74521 0.0
C1976 C 0.56614 0.32252 0.75712 0.0
C1977 C 0.5827 0.30182 0.74532 0.0
C1978 C 0.57494 0.29074 0.72124 0.0
H1979 H 0.52471 0.22533 0.68023 0.0
H1980 H 0.5535 0.23685 0.70028 0.0
H1981 H 0.51909 0.25137 0.7052 0.0
H1982 H 0.51495 0.32828 0.71132 0.0
H1983 H 0.52844 0.34757 0.75368 0.0
H1984 H 0.1369 0.85377 0.90904 0.0
H1985 H 0.1543 0.90222 0.90939 0.0
H1986 H 0.14687 0.90393 0.99285 0.0
H1987 H 0.12813 0.85649 0.99236 0.0
H1988 H 0.13328 0.95301 0.97362 0.0
H1989 H 0.23355 0.91828 0.92765 0.0
H1990 H 0.20221 0.91443 0.90866 0.0
H1991 H 0.20699 0.89356 0.93735 0.0
C1992 C 0.13859 0.86481 0.92735 0.0
C1993 C 0.13122 0.85149 0.95067 0.0
C1994 C 0.1487 0.89236 0.92755 0.0
C1995 C 0.15254 0.90653 0.95118 0.0
C1996 C 0.14405 0.89352 0.97433 0.0
H1997 H 0.27312 0.9867 1.02784 0.0
H1998 H 0.24301 0.96079 0.9984 0.0
C1999 C 0.13332 0.86636 0.97407 0.0
C2000 C 0.16742 0.93383 0.95277 0.0
H2001 H 0.23309 0.96199 0.94743 0.0
C2002 C 0.15497 0.95529 0.96749 0.0
C2003 C 0.19559 0.93693 0.94431 0.0
C2004 C 0.21052 0.91459 0.92875 0.0
C2005 C 0.17083 0.97797 0.97678 0.0
C2006 C 0.19965 0.97976 0.97017 0.0
C2007 C 0.21106 0.96029 0.95266 0.0
C2008 C 0.21947 0.99707 0.98551 0.0
C2009 C 0.15727 0.99814 0.9956 0.0
C2010 C 0.21667 0.02628 0.98779 0.0
C2011 C 0.23357 0.04118 1.00528 0.0
C2012 C 0.25388 0.0271 1.02021 0.0
C2013 C 0.25757 0.99816 1.01677 0.0
C2014 C 0.24046 0.98332 0.99976 0.0
H2015 H 0.13569 0.99156 1.00114 0.0
H2016 H 0.17006 0.99999 1.01353 0.0
H2017 H 0.15587 0.01919 0.98658 0.0
H2018 H 0.20108 0.03743 0.97653 0.0
H2019 H 0.23055 0.06358 1.00729 0.0
H2020 H 0.04504 0.84832 0.03411 0.0
H2021 H 0.01924 0.88104 0.06227 0.0
H2022 H 0.96346 0.81404 0.08487 0.0
H2023 H 0.98875 0.78173 0.05699 0.0
H2024 H 0.96479 0.89257 0.05223 0.0
H2025 H 0.97135 0.85538 0.15261 0.0
H2026 H 0.99665 0.84503 0.12827 0.0
H2027 H 0.96423 0.82591 0.13208 0.0
C2028 C 0.02768 0.84054 0.04563 0.0
C2029 C 0.01856 0.81264 0.04311 0.0
C2030 C 1.01309 0.85919 0.06176 0.0
C2031 C 0.98969 0.84991 0.07599 0.0
C2032 C 0.98186 0.82159 0.07466 0.0
H2033 H 0.83005 0.85367 0.10524 0.0
H2034 H 0.88099 0.85123 0.10536 0.0
C2035 C 0.99608 0.80318 0.05835 0.0
C2036 C 0.96987 0.86997 0.08803 0.0
H2037 H 0.92383 0.87222 0.13857 0.0
C2038 C 0.95644 0.88914 0.07154 0.0
C2039 C 0.95925 0.86575 0.11332 0.0
C2040 C 0.97392 0.84707 0.13261 0.0
C2041 C 0.93037 0.90084 0.07818 0.0
C2042 C 0.9179 0.89348 0.10213 0.0
C2043 C 0.93325 0.8775 0.12005 0.0
C2044 C 0.88723 0.89617 0.10604 0.0
C2045 C 0.91497 0.91825 0.05832 0.0
C2046 C 0.87378 0.92231 0.10703 0.0
C2047 C 0.84438 0.92382 0.10678 0.0
C2048 C 0.82809 0.89915 0.10556 0.0
C2049 C 0.84182 0.87309 0.10605 0.0
C2050 C 0.87102 0.87164 0.10622 0.0
H2051 H 0.927 0.92046 0.03997 0.0
H2052 H 0.89429 0.90862 0.0538 0.0
H2053 H 0.91107 0.93952 0.06627 0.0
H2054 H 0.88596 0.94148 0.10737 0.0
H2055 H 0.83456 0.94427 0.10734 0.0
H2056 H 0.79545 0.97673 1.0078 0.0
H2057 H 0.82513 1.00574 0.97976 0.0
H2058 H 0.77991 0.07944 1.0048 0.0
H2059 H 0.74914 0.05053 1.0311 0.0
H2060 H 0.79201 0.08364 0.95578 0.0
H2061 H 0.88856 0.04995 1.00836 0.0
H2062 H 0.86994 0.02308 0.99108 0.0
H2063 H 0.85401 0.03958 1.01883 0.0
C2064 C 0.79164 0.99908 1.00695 0.0
C2065 C 0.77011 1.01141 1.02178 0.0
C2066 C 0.80877 1.01565 0.99111 0.0
C2067 C 0.80525 0.04488 0.99065 0.0
C2068 C 0.78311 0.05695 1.0048 0.0
H2069 H 0.90544 0.18338 1.00043 0.0
H2070 H 0.88377 0.13709 1.001 0.0
C2071 C 0.76559 0.04039 1.01999 0.0
C2072 C 0.82526 0.06368 0.97713 0.0
H2073 H 0.89243 0.08836 0.9809 0.0
C2074 C 0.8141 0.08453 0.96094 0.0
C2075 C 0.85414 0.06453 0.98371 0.0
C2076 C 0.86744 0.04325 1.00156 0.0
C2077 C 0.83009 0.1079 0.95359 0.0
C2078 C 0.85859 0.10959 0.96145 0.0
C2079 C 0.87054 0.08714 0.97515 0.0
C2080 C 0.87485 0.13609 0.95974 0.0
C2081 C 0.81543 0.13153 0.93957 0.0
C2082 C 0.8779 0.1507 0.93627 0.0
C2083 C 0.88951 0.17764 0.93613 0.0
C2084 C 0.89935 0.18974 0.95925 0.0
C2085 C 0.89821 0.17433 0.98233 0.0
C2086 C 0.88584 0.14787 0.98261 0.0
H2087 H 0.79219 0.12914 0.93982 0.0
H2088 H 0.82073 0.15208 0.94845 0.0
H2089 H 0.82224 0.13177 0.919 0.0
H2090 H 0.87051 0.14172 0.91823 0.0
H2091 H 0.89044 0.18919 0.91808 0.0
H2092 H 0.05863 0.2561 0.05147 0.0
H2093 H 0.08212 0.2263 0.08287 0.0
H2094 H 1.01555 0.16529 0.07639 0.0
H2095 H 0.99179 0.19516 0.04439 0.0
H2096 H 0.06774 0.19881 0.131 0.0
H2097 H 0.08604 0.12441 0.0489 0.0
H2098 H 0.07269 0.15915 0.04285 0.0
H2099 H 0.05071 0.13343 0.05812 0.0
C2100 C 0.04878 0.23647 0.05681 0.0
C2101 C 0.02383 0.22754 0.04488 0.0
C2102 C 0.06206 0.21961 0.07504 0.0
C2103 C 0.05075 0.19345 0.08167 0.0
C2104 C 0.02476 0.18528 0.07125 0.0
H2105 H 0.19897 0.09608 0.11621 0.0
H2106 H 0.1481 0.10176 0.11987 0.0
C2107 C 1.01132 0.20228 0.05293 0.0
C2108 C 0.06882 0.17379 0.09618 0.0
H2109 H 0.11876 0.12492 0.08234 0.0
C2110 C 0.07833 0.18188 0.12085 0.0
C2111 C 0.08221 0.15134 0.08315 0.0
C2112 C 0.07256 0.14142 0.05678 0.0
C2113 C 0.10305 0.17055 0.13128 0.0
C2114 C 0.11871 0.15112 0.1164 0.0
C2115 C 0.10697 0.14015 0.09357 0.0
C2116 C 0.14929 0.14709 0.12037 0.0
C2117 C 0.1132 0.18102 0.15723 0.0
C2118 C 0.16693 0.17065 0.11982 0.0
C2119 C 0.1959 0.16755 0.11726 0.0
C2120 C 0.20798 0.14078 0.11484 0.0
C2121 C 0.19045 0.11708 0.11706 0.0
C2122 C 0.16133 0.12024 0.11961 0.0
H2123 H 0.09514 0.18484 0.17044 0.0
H2124 H 0.12783 0.16594 0.16652 0.0
H2125 H 0.12422 0.20133 0.15459 0.0
H2126 H 0.1582 0.19161 0.11956 0.0
H2127 H 0.20863 0.1863 0.1157 0.0
H2128 H 0.21647 0.49358 0.30301 0.0
H2129 H 0.18987 0.51954 0.33607 0.0
H2130 H 0.23269 0.5956 0.31382 0.0
H2131 H 0.26002 0.56983 0.28218 0.0
H2132 H 0.22785 0.59204 0.36532 0.0
H2133 H 0.12411 0.56885 0.31967 0.0
H2134 H 0.14485 0.54024 0.33175 0.0
H2135 H 0.15646 0.55938 0.30375 0.0
C2136 C 0.22027 0.51581 0.30541 0.0
C2137 C 0.24022 0.52973 0.28992 0.0
C2138 C 0.20495 0.53062 0.32418 0.0
C2139 C 0.20901 0.5596 0.32722 0.0
C2140 C 0.22928 0.57322 0.312 0.0
H2141 H 0.13191 0.70311 0.31941 0.0
H2142 H 0.14428 0.65378 0.32221 0.0
C2143 C 0.24481 0.55847 0.29372 0.0
C2144 C 0.19156 0.577 0.34478 0.0
H2145 H 0.12738 0.60866 0.3455 0.0
C2146 C 0.20566 0.5954 0.36158 0.0
C2147 C 0.16246 0.58072 0.34037 0.0
C2148 C 0.14594 0.56138 0.32289 0.0
C2149 C 0.19287 0.62011 0.3704 0.0
C2150 C 0.16459 0.62558 0.36337 0.0
C2151 C 0.14922 0.60471 0.35032 0.0
C2152 C 0.15295 0.65447 0.36354 0.0
C2153 C 0.21084 0.64137 0.38446 0.0
C2154 C 0.15286 0.67134 0.38592 0.0
C2155 C 0.1467 0.69997 0.38408 0.0
C2156 C 0.13934 0.71174 0.36008 0.0
C2157 C 0.13733 0.69445 0.33817 0.0
C2158 C 0.14432 0.66619 0.33984 0.0
H2159 H 0.23334 0.63516 0.38509 0.0
H2160 H 0.20941 0.66216 0.37493 0.0
H2161 H 0.20342 0.64352 0.40476 0.0
H2162 H 0.1585 0.66267 0.40458 0.0
H2163 H 0.14807 0.71299 0.40127 0.0
H2164 H 0.69222 0.88576 0.68749 0.0
H2165 H 0.6454 0.86722 0.69487 0.0
H2166 H 0.63441 0.92387 0.75935 0.0
H2167 H 0.68186 0.94154 0.75314 0.0
H2168 H 0.62483 0.87264 0.77362 0.0
H2169 H 0.56564 0.88916 0.68306 0.0
H2170 H 0.59862 0.87269 0.67609 0.0
H2171 H 0.59805 0.90746 0.68987 0.0
C2172 C 0.67977 0.89471 0.70302 0.0
C2173 C 0.69113 0.91519 0.71968 0.0
C2174 C 0.6527 0.88433 0.70695 0.0
C2175 C 0.63609 0.89446 0.72739 0.0
C2176 C 0.64672 0.91594 0.74325 0.0
H2177 H 0.48075 0.80837 0.7771 0.0
H2178 H 0.51073 0.84604 0.76006 0.0
C2179 C 0.67397 0.92619 0.73951 0.0
C2180 C 0.60994 0.87943 0.73463 0.0
H2181 H 0.55095 0.84891 0.70929 0.0
C2182 C 0.60833 0.86813 0.75971 0.0
C2183 C 0.58825 0.87354 0.71658 0.0
C2184 C 0.5876 0.88665 0.69 0.0
C2185 C 0.58675 0.84968 0.76665 0.0
C2186 C 0.56648 0.84201 0.74795 0.0
C2187 C 0.56686 0.85459 0.72341 0.0
C2188 C 0.54651 0.81908 0.75329 0.0
C2189 C 0.58645 0.83748 0.79364 0.0
C2190 C 0.55651 0.79148 0.75409 0.0
C2191 C 0.53965 0.7701 0.76388 0.0
C2192 C 0.51246 0.77597 0.77299 0.0
C2193 C 0.50168 0.80328 0.7703 0.0
C2194 C 0.5187 0.82478 0.76057 0.0
H2195 H 0.59987 0.84967 0.80721 0.0
H2196 H 0.56469 0.83684 0.80143 0.0
H2197 H 0.59448 0.81565 0.79292 0.0
H2198 H 0.57792 0.78676 0.7484 0.0
H2199 H 0.54838 0.74919 0.76536 0.0
H2200 H 0.84053 0.534 0.28559 0.0
H2201 H 0.87417 0.50713 0.31179 0.0
H2202 H 0.80988 0.44583 0.32792 0.0
H2203 H 0.77636 0.47243 0.30214 0.0
H2204 H 0.8475 0.45792 0.37093 0.0
H2205 H 0.90288 0.43332 0.27811 0.0
H2206 H 0.89843 0.46934 0.28766 0.0
H2207 H 0.86841 0.44905 0.27809 0.0
C2208 C 0.83351 0.51505 0.29513 0.0
C2209 C 0.80606 0.50487 0.29133 0.0
C2210 C 0.85273 0.49976 0.31004 0.0
C2211 C 0.84457 0.47431 0.32139 0.0
C2212 C 0.81659 0.4654 0.31923 0.0
H2213 H 0.85902 0.31528 0.36269 0.0
H2214 H 0.85253 0.36552 0.362 0.0
C2215 C 0.79752 0.48049 0.3043 0.0
C2216 C 0.86528 0.45472 0.33262 0.0
H2217 H 0.90957 0.40282 0.31275 0.0
C2218 C 0.86181 0.44636 0.3585 0.0
C2219 C 0.88422 0.43996 0.31645 0.0
C2220 C 0.88883 0.44817 0.2885 0.0
C2221 C 0.87466 0.42192 0.36785 0.0
C2222 C 0.89084 0.40531 0.35069 0.0
C2223 C 0.89693 0.41547 0.3258 0.0
C2224 C 0.89646 0.3753 0.35589 0.0
C2225 C 0.86938 0.41325 0.39552 0.0
C2226 C 0.92339 0.36385 0.35259 0.0
C2227 C 0.92727 0.33475 0.35279 0.0
C2228 C 0.90412 0.31655 0.35582 0.0
C2229 C 0.87744 0.32836 0.36027 0.0
C2230 C 0.87366 0.35729 0.36017 0.0
H2231 H 0.86743 0.43193 0.40829 0.0
H2232 H 0.84923 0.40158 0.39659 0.0
H2233 H 0.88646 0.39962 0.40299 0.0
H2234 H 0.94126 0.37741 0.34909 0.0
H2235 H 0.94834 0.32678 0.35013 0.0
H2236 H 0.47838 0.2745 0.77522 0.0
H2237 H 0.45328 0.23815 0.7518 0.0
H2238 H 0.53086 0.19309 0.73977 0.0
H2239 H 0.55627 0.22935 0.76413 0.0
H2240 H 0.45669 0.21824 0.70361 0.0
H2241 H 0.48348 0.13377 0.77395 0.0
H2242 H 0.49136 0.17006 0.78044 0.0
H2243 H 0.51212 0.15066 0.7575 0.0
C2244 C 0.49023 0.25696 0.76755 0.0
C2245 C 0.51922 0.25456 0.7719 0.0
C2246 C 0.47584 0.2362 0.75405 0.0
C2247 C 0.49009 0.21263 0.74441 0.0
C2248 C 0.51933 0.21071 0.74764 0.0
H2249 H 0.35572 0.11484 0.6701 0.0
H2250 H 0.40396 0.13275 0.6731 0.0
C2251 C 0.53382 0.23154 0.76136 0.0
C2252 C 0.47341 0.19001 0.73215 0.0
H2253 H 0.44769 0.12458 0.74426 0.0
C2254 C 0.45496 0.19752 0.71212 0.0
C2255 C 0.47152 0.16296 0.74321 0.0
C2256 C 0.49051 0.15377 0.76505 0.0
C2257 C 0.4326 0.18007 0.70487 0.0
C2258 C 0.4296 0.15363 0.71708 0.0
C2259 C 0.44994 0.14491 0.73509 0.0
C2260 C 0.40327 0.13711 0.71492 0.0
C2261 C 0.41109 0.19142 0.68606 0.0
C2262 C 0.38778 0.13137 0.73753 0.0
C2263 C 0.36079 0.12012 0.73588 0.0
C2264 C 0.34869 0.11491 0.71158 0.0
C2265 C 0.36468 0.11903 0.68903 0.0
C2266 C 0.39207 0.12947 0.69072 0.0
H2267 H 0.41375 0.21426 0.68262 0.0
H2268 H 0.41339 0.18062 0.66711 0.0
H2269 H 0.38943 0.18784 0.69333 0.0
H2270 H 0.39594 0.137 0.75645 0.0
H2271 H 0.34873 0.11723 0.7535 0.0
H2272 H 0.68204 0.33438 0.4517 0.0
H2273 H 0.69568 0.38355 0.45307 0.0
H2274 H 0.60865 0.40817 0.44754 0.0
H2275 H 0.59469 0.35877 0.44641 0.0
H2276 H 0.68737 0.43059 0.4216 0.0
H2277 H 0.63282 0.44123 0.517 0.0
H2278 H 0.63821 0.40752 0.50198 0.0
H2279 H 0.61208 0.43102 0.48944 0.0
C2280 C 0.66578 0.3502 0.4504 0.0
C2281 C 0.63726 0.34266 0.44971 0.0
C2282 C 0.67361 0.37832 0.4511 0.0
C2283 C 0.65313 0.39946 0.4509 0.0
C2284 C 0.62472 0.39212 0.44833 0.0
H2285 H 0.71287 0.55459 0.5226 0.0
H2286 H 0.68081 0.52803 0.49445 0.0
C2287 C 0.6168 0.36389 0.44785 0.0
C2288 C 0.66192 0.42865 0.45612 0.0
H2289 H 0.66496 0.47579 0.50577 0.0
C2290 C 0.68195 0.44091 0.43969 0.0
C2291 C 0.65454 0.44224 0.47958 0.0
C2292 C 0.63336 0.4299 0.49816 0.0
C2293 C 0.69664 0.46507 0.44719 0.0
C2294 C 0.69124 0.47702 0.47181 0.0
C2295 C 0.66913 0.4665 0.48694 0.0
C2296 C 0.71142 0.49619 0.48455 0.0
C2297 C 0.71893 0.47647 0.42928 0.0
C2298 C 0.7392 0.48717 0.48817 0.0
C2299 C 0.75725 0.50194 0.50443 0.0
C2300 C 0.74794 0.52611 0.51738 0.0
C2301 C 0.72055 0.53598 0.51286 0.0
C2302 C 0.70228 0.52091 0.49675 0.0
H2303 H 0.71216 0.4746 0.40872 0.0
H2304 H 0.72384 0.49871 0.43349 0.0
H2305 H 0.73842 0.46393 0.43152 0.0
H2306 H 0.74652 0.46775 0.47959 0.0
H2307 H 0.77831 0.49394 0.50742 0.0
H2308 H 0.33704 0.44845 0.60146 0.0
H2309 H 0.38849 0.44622 0.60164 0.0
H2310 H 0.38448 0.35592 0.5999 0.0
H2311 H 0.33357 0.35779 0.59961 0.0
H2312 H 0.42632 0.37765 0.63389 0.0
H2313 H 0.43131 0.42505 0.53502 0.0
H2314 H 0.41462 0.44396 0.56103 0.0
H2315 H 0.39833 0.41301 0.54814 0.0
C2316 C 0.34708 0.42811 0.60096 0.0
C2317 C 0.33106 0.40325 0.59986 0.0
C2318 C 0.37651 0.42692 0.6013 0.0
C2319 C 0.39025 0.40092 0.60053 0.0
C2320 C 0.37429 0.37622 0.60063 0.0
H2321 H 0.48716 0.28458 0.55303 0.0
H2322 H 0.46309 0.31837 0.58032 0.0
C2323 C 0.3451 0.37736 0.60037 0.0
C2324 C 0.421 0.39843 0.59715 0.0
H2325 H 0.46821 0.39598 0.54755 0.0
C2326 C 0.436 0.38255 0.61539 0.0
C2327 C 0.43381 0.40532 0.57323 0.0
C2328 C 0.41884 0.42274 0.55311 0.0
C2329 C 0.46177 0.37017 0.60893 0.0
C2330 C 0.47255 0.37374 0.58361 0.0
C2331 C 0.4597 0.39303 0.56687 0.0
C2332 C 0.49146 0.35268 0.57181 0.0
C2333 C 0.47582 0.35127 0.62841 0.0
C2334 C 0.51559 0.36063 0.55795 0.0
C2335 C 0.5296 0.34107 0.54228 0.0
C2336 C 0.51908 0.31366 0.53977 0.0
C2337 C 0.49564 0.3056 0.55446 0.0
C2338 C 0.48209 0.32484 0.57041 0.0
H2339 H 0.47314 0.35964 0.64838 0.0
H2340 H 0.4658 0.33027 0.62776 0.0
H2341 H 0.49855 0.34885 0.6243 0.0
H2342 H 0.52288 0.38213 0.55847 0.0
H2343 H 0.54767 0.34778 0.53111 0.0
H2344 H 0.23003 0.53858 0.50268 0.0
H2345 H 0.25746 0.57023 0.47544 0.0
H2346 H 0.33241 0.52267 0.49205 0.0
H2347 H 0.30501 0.49057 0.51891 0.0
H2348 H 0.29778 0.60024 0.50048 0.0
H2349 H 0.3446 0.54535 0.41613 0.0
H2350 H 0.31386 0.53251 0.43297 0.0
H2351 H 0.34837 0.52643 0.44602 0.0
C2352 C 0.25225 0.53452 0.50009 0.0
C2353 C 0.26558 0.51261 0.51344 0.0
C2354 C 0.26782 0.55244 0.48432 0.0
C2355 C 0.29693 0.54877 0.48172 0.0
C2356 C 0.30989 0.52561 0.49343 0.0
H2357 H 0.41932 0.67747 0.48561 0.0
H2358 H 0.39445 0.63312 0.48874 0.0
C2359 C 0.29426 0.5075 0.50905 0.0
C2360 C 0.31431 0.57196 0.47163 0.0
H2361 H 0.36736 0.58825 0.42961 0.0
C2362 C 0.31266 0.59771 0.4847 0.0
C2363 C 0.33366 0.5686 0.45104 0.0
C2364 C 0.3351 0.54181 0.43554 0.0
C2365 C 0.33051 0.6199 0.47841 0.0
C2366 C 0.35095 0.61608 0.45886 0.0
C2367 C 0.35197 0.59079 0.44495 0.0
C2368 C 0.37119 0.63861 0.45311 0.0
C2369 C 0.32763 0.64723 0.49303 0.0
C2370 C 0.36726 0.6556 0.43132 0.0
C2371 C 0.38166 0.68101 0.42928 0.0
C2372 C 0.40015 0.68979 0.44902 0.0
C2373 C 0.40564 0.67148 0.46979 0.0
C2374 C 0.39132 0.64605 0.47173 0.0
H2375 H 0.30727 0.64865 0.50351 0.0
H2376 H 0.34481 0.6489 0.50751 0.0
H2377 H 0.32935 0.66535 0.47964 0.0
H2378 H 0.35169 0.65015 0.41683 0.0
H2379 H 0.37714 0.69446 0.41289 0.0
H2380 H 0.49005 0.68912 0.53316 0.0
H2381 H 0.51315 0.65685 0.56359 0.0
H2382 H 0.57237 0.72177 0.58394 0.0
H2383 H 0.54991 0.75358 0.5537 0.0
H2384 H 0.56854 0.64284 0.55463 0.0
H2385 H 0.5598 0.68445 0.65385 0.0
H2386 H 0.53427 0.69191 0.62882 0.0
H2387 H 0.5659 0.71248 0.63141 0.0
C2388 C 0.50763 0.69658 0.5446 0.0
C2389 C 0.51856 0.72364 0.54075 0.0
C2390 C 0.52062 0.67824 0.56208 0.0
C2391 C 0.54419 0.68704 0.57633 0.0
C2392 C 0.55381 0.71468 0.57366 0.0
H2393 H 0.70236 0.67914 0.61087 0.0
H2394 H 0.65146 0.68341 0.61087 0.0
C2395 C 0.54123 0.73273 0.556 0.0
C2396 C 0.5626 0.66669 0.58965 0.0
H2397 H 0.60633 0.66493 0.64191 0.0
C2398 C 0.57616 0.64665 0.57415 0.0
C2399 C 0.57221 0.67147 0.61519 0.0
C2400 C 0.55703 0.69107 0.63336 0.0
C2401 C 0.6016 0.63451 0.58201 0.0
C2402 C 0.61325 0.64231 0.60625 0.0
C2403 C 0.59759 0.65931 0.62318 0.0
C2404 C 0.64362 0.6387 0.6114 0.0
C2405 C 0.61733 0.61612 0.56306 0.0
C2406 C 0.65614 0.61213 0.61268 0.0
C2407 C 0.68545 0.60959 0.61239 0.0
C2408 C 0.70258 0.63365 0.61097 0.0
C2409 C 0.68985 0.66019 0.61176 0.0
C2410 C 0.66069 0.66267 0.61187 0.0
H2411 H 0.60624 0.61408 0.54419 0.0
H2412 H 0.63862 0.62478 0.55939 0.0
H2413 H 0.61983 0.59484 0.57137 0.0
H2414 H 0.64331 0.59339 0.61291 0.0
H2415 H 0.69458 0.58881 0.61277 0.0
H2416 H 0.77217 0.06768 0.80948 0.0
H2417 H 0.74134 0.09275 0.83904 0.0
H2418 H 0.67564 0.03216 0.82524 0.0
H2419 H 0.70653 1.00695 0.79514 0.0
H2420 H 0.65921 0.08382 0.81381 0.0
H2421 H 0.70767 0.08811 0.91033 0.0
H2422 H 0.73412 0.09501 0.88647 0.0
H2423 H 0.71671 0.06141 0.88685 0.0
C2424 C 0.75136 0.05934 0.81307 0.0
C2425 C 0.74153 0.03575 0.79953 0.0
C2426 C 0.73386 0.07344 0.83038 0.0
C2427 C 0.70625 0.06415 0.83466 0.0
C2428 C 0.69696 0.03954 0.8224 0.0
H2429 H 0.59866 0.21012 0.86537 0.0
H2430 H 0.60804 0.16004 0.8701 0.0
C2431 C 0.71455 0.02532 0.80507 0.0
C2432 C 0.68609 0.08341 0.8474 0.0
H2433 H 0.68462 0.13233 0.89562 0.0
C2434 C 0.66392 0.09375 0.83225 0.0
C2435 C 0.69196 0.09607 0.8716 0.0
C2436 C 0.71375 0.08428 0.88982 0.0
C2437 C 0.6502 0.11877 0.83882 0.0
C2438 C 0.65874 0.13349 0.86133 0.0
C2439 C 0.67837 0.1212 0.87818 0.0
C2440 C 0.65285 0.16381 0.86402 0.0
C2441 C 0.62901 0.13083 0.82009 0.0
C2442 C 0.67508 0.18262 0.86028 0.0
C2443 C 0.66987 0.21112 0.85727 0.0
C2444 C 0.64222 0.2216 0.85783 0.0
C2445 C 0.62012 0.20292 0.86368 0.0
C2446 C 0.62542 0.17421 0.8667 0.0
H2447 H 0.62617 0.11747 0.80261 0.0
H2448 H 0.60835 0.13291 0.82987 0.0
H2449 H 0.63572 0.15203 0.81373 0.0
H2450 H 0.69643 0.17503 0.85814 0.0
H2451 H 0.68757 0.22467 0.85313 0.0
H2452 H 0.21474 0.35098 0.21099 0.0
H2453 H 0.16773 0.33143 0.21393 0.0
H2454 H 0.13304 0.41446 0.22205 0.0
H2455 H 0.18017 0.43453 0.21877 0.0
H2456 H 0.11514 0.37756 0.25976 0.0
H2457 H 0.1023 0.32919 0.16317 0.0
H2458 H 0.13518 0.31949 0.17758 0.0
H2459 H 0.12852 0.35568 0.16976 0.0
C2460 C 0.19719 0.36527 0.21304 0.0
C2461 C 0.2015 0.39437 0.21498 0.0
C2462 C 0.17023 0.354 0.21451 0.0
C2463 C 0.14686 0.37152 0.21769 0.0
C2464 C 0.15085 0.40061 0.21938 0.0
H2465 H 0.98741 0.2988 0.27308 0.0
H2466 H 0.01707 0.33329 0.25093 0.0
C2467 C 0.17792 0.412 0.21784 0.0
C2468 C 0.11884 0.35886 0.22191 0.0
H2469 H 0.07539 0.30799 0.19821 0.0
C2470 C 0.1059 0.36294 0.24605 0.0
C2471 C 0.10685 0.33993 0.2039 0.0
C2472 C 0.1188 0.33604 0.17705 0.0
C2473 C 0.08274 0.34671 0.25361 0.0
C2474 C 0.07207 0.32624 0.23631 0.0
C2475 C 0.08372 0.32363 0.21144 0.0
C2476 C 0.05187 0.30477 0.2452 0.0
C2477 C 0.07129 0.35008 0.28075 0.0
C2478 C 0.06111 0.27703 0.24801 0.0
C2479 C 0.04431 0.25735 0.26058 0.0
C2480 C 0.01794 0.26509 0.27053 0.0
C2481 C 1.00782 0.29234 0.26594 0.0
C2482 C 0.02471 0.31207 0.25334 0.0
H2483 H 0.08444 0.36426 0.29282 0.0
H2484 H 0.04978 0.35901 0.2798 0.0
H2485 H 0.06992 0.32942 0.29055 0.0
H2486 H 0.08196 0.27096 0.24168 0.0
H2487 H 0.0525 0.2364 0.26343 0.0
H2488 H 0.32812 0.02683 0.79704 0.0
H2489 H 0.35666 0.99946 0.82752 0.0
H2490 H 0.29397 0.93412 0.82698 0.0
H2491 H 0.26528 0.96134 0.79726 0.0
H2492 H 0.31921 0.94259 0.8762 0.0
H2493 H 0.39832 0.93196 0.79672 0.0
H2494 H 0.38958 0.96641 0.80837 0.0
H2495 H 0.364 0.94649 0.79057 0.0
C2496 C 0.32033 1.00676 0.80371 0.0
C2497 C 0.29482 0.99585 0.79424 0.0
C2498 C 0.33662 0.99122 0.82113 0.0
C2499 C 0.32764 0.96457 0.8291 0.0
C2500 C 0.30132 0.95462 0.82102 0.0
H2501 H 0.34127 0.8034 0.85371 0.0
H2502 H 0.33216 0.85292 0.85922 0.0
C2503 C 0.28505 0.97011 0.80381 0.0
C2504 C 0.34649 0.94503 0.84293 0.0
H2505 H 0.39827 0.89806 0.82897 0.0
C2506 C 0.33713 0.93339 0.86637 0.0
C2507 C 0.37013 0.9333 0.83027 0.0
C2508 C 0.3812 0.945 0.80506 0.0
C2509 C 0.34884 0.9085 0.87595 0.0
C2510 C 0.37006 0.89487 0.86147 0.0
C2511 C 0.38178 0.90842 0.8399 0.0
C2512 C 0.37579 0.86454 0.86441 0.0
C2513 C 0.33707 0.89606 0.90052 0.0
C2514 C 0.40341 0.85436 0.86573 0.0
C2515 C 0.40883 0.82574 0.86239 0.0
C2516 C 0.3867 0.80688 0.85712 0.0
C2517 C 0.35896 0.81709 0.85754 0.0
C2518 C 0.35361 0.84554 0.861 0.0
H2519 H 0.33078 0.91286 0.91429 0.0
H2520 H 0.31795 0.88374 0.8958 0.0
H2521 H 0.3525 0.88206 0.91016 0.0
H2522 H 0.42085 0.86871 0.86826 0.0
H2523 H 0.43043 0.8188 0.86326 0.0
H2524 H 0.85535 0.6268 0.16822 0.0
H2525 H 0.90416 0.64286 0.17157 0.0
H2526 H 0.89815 0.63934 0.2551 0.0
H2527 H 0.85035 0.62155 0.25162 0.0
H2528 H 0.92177 0.68804 0.18816 0.0
H2529 H 0.97459 0.61051 0.24907 0.0
H2530 H 0.94073 0.60336 0.23475 0.0
H2531 H 0.94335 0.62041 0.26602 0.0
C2532 C 0.86488 0.62879 0.18722 0.0
C2533 C 0.84935 0.62274 0.20966 0.0
C2534 C 0.89272 0.63794 0.18914 0.0
C2535 C 0.90525 0.64181 0.21358 0.0
C2536 C 0.88963 0.63543 0.23598 0.0
H2537 H 0.98685 0.77765 0.27125 0.0
H2538 H 0.96052 0.74362 0.2462 0.0
C2539 C 0.86213 0.62554 0.23402 0.0
C2540 C 0.93287 0.65615 0.21608 0.0
H2541 H 0.98946 0.66001 0.25643 0.0
C2542 C 0.93698 0.68138 0.20255 0.0
C2543 C 0.9536 0.64725 0.23396 0.0
C2544 C 0.95291 0.61869 0.24645 0.0
C2545 C 0.95937 0.6993 0.20863 0.0
C2546 C 0.97725 0.69246 0.22959 0.0
C2547 C 0.97519 0.66581 0.24095 0.0
C2548 C 0.99484 0.71398 0.24258 0.0
C2549 C 0.96284 0.72589 0.19314 0.0
C2550 C 0.02282 0.70847 0.24964 0.0
C2551 C 0.03794 0.72792 0.26448 0.0
C2552 C 0.02512 0.75296 0.27275 0.0
C2553 C 0.99738 0.7586 0.26518 0.0
C2554 C 0.98235 0.73925 0.25049 0.0
H2555 H 0.95757 0.72214 0.17242 0.0
H2556 H 0.94802 0.742 0.20052 0.0
H2557 H 0.98458 0.73424 0.19431 0.0
H2558 H 0.03282 0.68901 0.24395 0.0
H2559 H 0.05933 0.72303 0.27003 0.0
loop_
_geom_bond_atom_site_label_1
_geom_bond_atom_site_label_2
_geom_bond_distance
_geom_bond_site_symmetry_2
_ccdc_geom_bond_type
Zn0 N4 2.020 . S
Zn0 O8 2.019 . S
Zn0 N10 2.119 . S
Zn0 O18 1.975 . S
C1 N2 1.334 1_554 S
C1 N5 1.336 . S
N2 C1 1.334 1_556 S
N2 C3 1.334 1_556 S
C3 N2 1.334 1_554 S
C3 N4 1.336 . S
N4 Zn0 2.020 . S
N4 C3 1.336 . S
N4 N5 1.354 . S
N5 C1 1.336 . S
N5 N4 1.354 . S
N5 Zn9 2.020 . S
C6 O7 1.244 . S
C6 O30 1.257 . S
O7 C6 1.244 . S
O8 Zn0 2.019 . S
O8 C28 1.257 . S
Zn9 N5 2.020 . S
Zn9 O16 1.975 . S
Zn9 N25 2.119 . S
Zn9 O30 2.019 . S
N10 Zn0 2.119 . S
N10 C12 1.334 . S
N10 C13 1.328 . S
C11 C12 1.391 . S
C11 N14 1.329 . S
C11 H32 0.930 . S
C12 N10 1.334 . S
C12 C11 1.391 . S
C12 H19 0.930 . S
C13 N10 1.328 . S
C13 C15 1.392 . S
C13 H20 0.930 . S
N14 C11 1.329 . S
N14 C15 1.331 . S
C15 C13 1.392 . S
C15 N14 1.331 . S
O16 Zn9 1.975 . S
O16 C17 1.252 . S
C17 O16 1.252 . S
C17 O18 1.252 . S
O18 Zn0 1.975 . S
O18 C17 1.252 . S
H19 C12 0.930 . S
H20 C13 0.930 . S
C21 C22 1.392 . S
C21 N25 1.328 . S
C21 H27 0.930 . S
C22 C21 1.392 . S
C22 N26 1.331 . S
C23 C24 1.391 . S
C23 N26 1.329 . S
C23 H33 0.930 . S
C24 C23 1.391 . S
C24 N25 1.334 . S
C24 H31 0.930 . S
N25 Zn9 2.119 . S
N25 C21 1.328 . S
N25 C24 1.334 . S
N26 C22 1.331 . S
N26 C23 1.329 . S
H27 C21 0.930 . S
C28 O8 1.257 . S
C28 O29 1.244 . S
O29 C28 1.244 . S
O30 C6 1.257 . S
O30 Zn9 2.019 . S
H31 C24 0.930 . S
H32 C11 0.930 . S
H33 C23 0.930 . S
Zn34 N38 2.020 . S
Zn34 O42 2.019 . S
Zn34 N44 2.119 . S
Zn34 O52 1.975 . S
C35 N36 1.334 1_556 S
C35 N39 1.336 . S
N36 C35 1.334 1_554 S
N36 C37 1.334 1_554 S
C37 N36 1.334 1_556 S
C37 N38 1.336 . S
N38 Zn34 2.020 . S
N38 C37 1.336 . S
N38 N39 1.354 . S
N39 C35 1.336 . S
N39 N38 1.354 . S
N39 Zn43 2.020 . S
C40 O41 1.244 . S
C40 O64 1.257 . S
O41 C40 1.244 . S
O42 Zn34 2.019 . S
O42 C62 1.257 . S
Zn43 N39 2.020 . S
Zn43 O50 1.975 . S
Zn43 N59 2.119 . S
Zn43 O64 2.019 . S
N44 Zn34 2.119 . S
N44 C46 1.334 . S
N44 C47 1.328 . S
C45 C46 1.391 . S
C45 N48 1.329 . S
C45 H66 0.930 . S
C46 N44 1.334 . S
C46 C45 1.391 . S
C46 H53 0.930 . S
C47 N44 1.328 . S
C47 C49 1.392 . S
C47 H54 0.930 . S
N48 C45 1.329 . S
N48 C49 1.331 . S
C49 C47 1.392 . S
C49 N48 1.331 . S
O50 Zn43 1.975 . S
O50 C51 1.252 . S
C51 O50 1.252 . S
C51 O52 1.252 . S
O52 Zn34 1.975 . S
O52 C51 1.252 . S
H53 C46 0.930 . S
H54 C47 0.930 . S
C55 C56 1.392 . S
C55 N59 1.328 . S
C55 H61 0.930 . S
C56 C55 1.392 . S
C56 N60 1.331 . S
C57 C58 1.391 . S
C57 N60 1.329 . S
C57 H67 0.930 . S
C58 C57 1.391 . S
C58 N59 1.334 . S
C58 H65 0.930 . S
N59 Zn43 2.119 . S
N59 C55 1.328 . S
N59 C58 1.334 . S
N60 C56 1.331 . S
N60 C57 1.329 . S
H61 C55 0.930 . S
C62 O42 1.257 . S
C62 O63 1.244 . S
O63 C62 1.244 . S
O64 C40 1.257 . S
O64 Zn43 2.019 . S
H65 C58 0.930 . S
H66 C45 0.930 . S
H67 C57 0.930 . S
Zn68 N72 2.020 . S
Zn68 O76 2.019 . S
Zn68 N78 2.119 . S
Zn68 O86 1.975 . S
C69 N70 1.334 1_554 S
C69 N73 1.336 . S
N70 C69 1.334 1_556 S
N70 C71 1.334 1_556 S
C71 N70 1.334 1_554 S
C71 N72 1.336 . S
N72 Zn68 2.020 . S
N72 C71 1.336 . S
N72 N73 1.354 . S
N73 C69 1.336 . S
N73 N72 1.354 . S
N73 Zn77 2.020 . S
C74 O75 1.244 . S
C74 O98 1.257 . S
O75 C74 1.244 . S
O76 Zn68 2.019 . S
O76 C96 1.257 . S
Zn77 N73 2.020 . S
Zn77 O84 1.975 . S
Zn77 N93 2.119 . S
Zn77 O98 2.019 . S
N78 Zn68 2.119 . S
N78 C80 1.334 . S
N78 C81 1.328 . S
C79 C80 1.391 . S
C79 N82 1.329 . S
C79 H100 0.930 . S
C80 N78 1.334 . S
C80 C79 1.391 . S
C80 H87 0.930 . S
C81 N78 1.328 . S
C81 C83 1.392 . S
C81 H88 0.930 . S
N82 C79 1.329 . S
N82 C83 1.331 . S
C83 C81 1.392 . S
C83 N82 1.331 . S
O84 Zn77 1.975 . S
O84 C85 1.252 . S
C85 O84 1.252 . S
C85 O86 1.252 . S
O86 Zn68 1.975 . S
O86 C85 1.252 . S
H87 C80 0.930 . S
H88 C81 0.930 . S
C89 C90 1.392 . S
C89 N93 1.328 . S
C89 H95 0.930 . S
C90 C89 1.392 . S
C90 N94 1.331 . S
C91 C92 1.391 . S
C91 N94 1.329 . S
C91 H101 0.930 . S
C92 C91 1.391 . S
C92 N93 1.334 . S
C92 H99 0.930 . S
N93 Zn77 2.119 . S
N93 C89 1.328 . S
N93 C92 1.334 . S
N94 C90 1.331 . S
N94 C91 1.329 . S
H95 C89 0.930 . S
C96 O76 1.257 . S
C96 O97 1.244 . S
O97 C96 1.244 . S
O98 C74 1.257 . S
O98 Zn77 2.019 . S
H99 C92 0.930 . S
H100 C79 0.930 . S
H101 C91 0.930 . S
Zn102 N106 2.020 . S
Zn102 O110 2.019 . S
Zn102 N112 2.119 . S
Zn102 O120 1.975 . S
C103 N104 1.334 1_556 S
C103 N107 1.336 . S
N104 C103 1.334 1_554 S
N104 C105 1.334 1_554 S
C105 N104 1.334 1_556 S
C105 N106 1.336 . S
N106 Zn102 2.020 . S
N106 C105 1.336 . S
N106 N107 1.354 . S
N107 C103 1.336 . S
N107 N106 1.354 . S
N107 Zn111 2.020 . S
C108 O109 1.244 . S
C108 O132 1.257 . S
O109 C108 1.244 . S
O110 Zn102 2.019 . S
O110 C130 1.257 . S
Zn111 N107 2.020 . S
Zn111 O118 1.975 . S
Zn111 N127 2.119 . S
Zn111 O132 2.019 . S
N112 Zn102 2.119 . S
N112 C114 1.334 . S
N112 C115 1.328 . S
C113 C114 1.391 . S
C113 N116 1.329 . S
C113 H134 0.930 . S
C114 N112 1.334 . S
C114 C113 1.391 . S
C114 H121 0.930 . S
C115 N112 1.328 . S
C115 C117 1.392 . S
C115 H122 0.930 . S
N116 C113 1.329 . S
N116 C117 1.331 . S
C117 C115 1.392 . S
C117 N116 1.331 . S
O118 Zn111 1.975 . S
O118 C119 1.252 . S
C119 O118 1.252 . S
C119 O120 1.252 . S
O120 Zn102 1.975 . S
O120 C119 1.252 . S
H121 C114 0.930 . S
H122 C115 0.930 . S
C123 C124 1.392 . S
C123 N127 1.328 . S
C123 H129 0.930 . S
C124 C123 1.392 . S
C124 N128 1.331 . S
C125 C126 1.391 . S
C125 N128 1.329 . S
C125 H135 0.930 . S
C126 C125 1.391 . S
C126 N127 1.334 . S
C126 H133 0.930 . S
N127 Zn111 2.119 . S
N127 C123 1.328 . S
N127 C126 1.334 . S
N128 C124 1.331 . S
N128 C125 1.329 . S
H129 C123 0.930 . S
C130 O110 1.257 . S
C130 O131 1.244 . S
O131 C130 1.244 . S
O132 C108 1.257 . S
O132 Zn111 2.019 . S
H133 C126 0.930 . S
H134 C113 0.930 . S
H135 C125 0.930 . S
Zn136 N140 2.020 . S
Zn136 O144 2.019 . S
Zn136 N146 2.119 . S
Zn136 O154 1.975 . S
C137 N138 1.334 . S
C137 N141 1.336 . S
N138 C137 1.334 . S
N138 C139 1.334 . S
C139 N138 1.334 . S
C139 N140 1.336 . S
N140 Zn136 2.020 . S
N140 C139 1.336 . S
N140 N141 1.354 . S
N141 C137 1.336 . S
N141 N140 1.354 . S
N141 Zn145 2.020 . S
C142 O143 1.244 . S
C142 O166 1.257 . S
O143 C142 1.244 . S
O144 Zn136 2.019 . S
O144 C164 1.257 . S
Zn145 N141 2.020 . S
Zn145 O152 1.975 . S
Zn145 N161 2.119 . S
Zn145 O166 2.019 . S
N146 Zn136 2.119 . S
N146 C148 1.334 . S
N146 C149 1.328 . S
C147 C148 1.391 . S
C147 N150 1.329 . S
C147 H168 0.930 . S
C148 N146 1.334 . S
C148 C147 1.391 . S
C148 H155 0.930 . S
C149 N146 1.328 . S
C149 C151 1.392 . S
C149 H156 0.930 . S
N150 C147 1.329 . S
N150 C151 1.331 . S
C151 C149 1.392 . S
C151 N150 1.331 . S
O152 Zn145 1.975 . S
O152 C153 1.252 . S
C153 O152 1.252 . S
C153 O154 1.252 . S
O154 Zn136 1.975 . S
O154 C153 1.252 . S
H155 C148 0.930 . S
H156 C149 0.930 . S
C157 C158 1.392 . S
C157 N161 1.328 . S
C157 H163 0.930 . S
C158 C157 1.392 . S
C158 N162 1.331 . S
C159 C160 1.391 . S
C159 N162 1.329 . S
C159 H169 0.930 . S
C160 C159 1.391 . S
C160 N161 1.334 . S
C160 H167 0.930 . S
N161 Zn145 2.119 . S
N161 C157 1.328 . S
N161 C160 1.334 . S
N162 C158 1.331 . S
N162 C159 1.329 . S
H163 C157 0.930 . S
C164 O144 1.257 . S
C164 O165 1.244 . S
O165 C164 1.244 . S
O166 C142 1.257 . S
O166 Zn145 2.019 . S
H167 C160 0.930 . S
H168 C147 0.930 . S
H169 C159 0.930 . S
Zn170 N174 2.020 . S
Zn170 O178 2.019 . S
Zn170 N180 2.119 . S
Zn170 O188 1.975 . S
C171 N172 1.334 . S
C171 N175 1.336 . S
N172 C171 1.334 . S
N172 C173 1.334 . S
C173 N172 1.334 . S
C173 N174 1.336 . S
N174 Zn170 2.020 . S
N174 C173 1.336 . S
N174 N175 1.354 . S
N175 C171 1.336 . S
N175 N174 1.354 . S
N175 Zn179 2.020 . S
C176 O177 1.244 . S
C176 O200 1.257 . S
O177 C176 1.244 . S
O178 Zn170 2.019 . S
O178 C198 1.257 . S
Zn179 N175 2.020 . S
Zn179 O186 1.975 . S
Zn179 N195 2.119 . S
Zn179 O200 2.019 . S
N180 Zn170 2.119 . S
N180 C182 1.334 . S
N180 C183 1.328 . S
C181 C182 1.391 . S
C181 N184 1.329 . S
C181 H202 0.930 . S
C182 N180 1.334 . S
C182 C181 1.391 . S
C182 H189 0.930 . S
C183 N180 1.328 . S
C183 C185 1.392 . S
C183 H190 0.930 . S
N184 C181 1.329 . S
N184 C185 1.331 . S
C185 C183 1.392 . S
C185 N184 1.331 . S
O186 Zn179 1.975 . S
O186 C187 1.252 . S
C187 O186 1.252 . S
C187 O188 1.252 . S
O188 Zn170 1.975 . S
O188 C187 1.252 . S
H189 C182 0.930 . S
H190 C183 0.930 . S
C191 C192 1.392 . S
C191 N195 1.328 . S
C191 H197 0.930 . S
C192 C191 1.392 . S
C192 N196 1.331 . S
C193 C194 1.391 . S
C193 N196 1.329 . S
C193 H203 0.930 . S
C194 C193 1.391 . S
C194 N195 1.334 . S
C194 H201 0.930 . S
N195 Zn179 2.119 . S
N195 C191 1.328 . S
N195 C194 1.334 . S
N196 C192 1.331 . S
N196 C193 1.329 . S
H197 C191 0.930 . S
C198 O178 1.257 . S
C198 O199 1.244 . S
O199 C198 1.244 . S
O200 C176 1.257 . S
O200 Zn179 2.019 . S
H201 C194 0.930 . S
H202 C181 0.930 . S
H203 C193 0.930 . S
Zn204 N208 2.020 . S
Zn204 O212 2.019 . S
Zn204 N214 2.119 . S
Zn204 O222 1.975 . S
C205 N206 1.334 . S
C205 N209 1.336 . S
N206 C205 1.334 . S
N206 C207 1.334 . S
C207 N206 1.334 . S
C207 N208 1.336 . S
N208 Zn204 2.020 . S
N208 C207 1.336 . S
N208 N209 1.354 . S
N209 C205 1.336 . S
N209 N208 1.354 . S
N209 Zn213 2.020 . S
C210 O211 1.244 . S
C210 O234 1.257 . S
O211 C210 1.244 . S
O212 Zn204 2.019 . S
O212 C232 1.257 . S
Zn213 N209 2.020 . S
Zn213 O220 1.975 . S
Zn213 N229 2.119 . S
Zn213 O234 2.019 . S
N214 Zn204 2.119 . S
N214 C216 1.334 . S
N214 C217 1.328 . S
C215 C216 1.391 . S
C215 N218 1.329 . S
C215 H236 0.930 . S
C216 N214 1.334 . S
C216 C215 1.391 . S
C216 H223 0.930 . S
C217 N214 1.328 . S
C217 C219 1.392 . S
C217 H224 0.930 . S
N218 C215 1.329 . S
N218 C219 1.331 . S
C219 C217 1.392 . S
C219 N218 1.331 . S
O220 Zn213 1.975 . S
O220 C221 1.252 . S
C221 O220 1.252 . S
C221 O222 1.252 . S
O222 Zn204 1.975 . S
O222 C221 1.252 . S
H223 C216 0.930 . S
H224 C217 0.930 . S
C225 C226 1.392 . S
C225 N229 1.328 . S
C225 H231 0.930 . S
C226 C225 1.392 . S
C226 N230 1.331 . S
C227 C228 1.391 . S
C227 N230 1.329 . S
C227 H237 0.930 . S
C228 C227 1.391 . S
C228 N229 1.334 . S
C228 H235 0.930 . S
N229 Zn213 2.119 . S
N229 C225 1.328 . S
N229 C228 1.334 . S
N230 C226 1.331 . S
N230 C227 1.329 . S
H231 C225 0.930 . S
C232 O212 1.257 . S
C232 O233 1.244 . S
O233 C232 1.244 . S
O234 C210 1.257 . S
O234 Zn213 2.019 . S
H235 C228 0.930 . S
H236 C215 0.930 . S
H237 C227 0.930 . S
Zn238 N242 2.020 . S
Zn238 O246 2.019 . S
Zn238 N248 2.119 . S
Zn238 O256 1.975 . S
C239 N240 1.334 . S
C239 N243 1.336 . S
N240 C239 1.334 . S
N240 C241 1.334 . S
C241 N240 1.334 . S
C241 N242 1.336 . S
N242 Zn238 2.020 . S
N242 C241 1.336 . S
N242 N243 1.354 . S
N243 C239 1.336 . S
N243 N242 1.354 . S
N243 Zn247 2.020 . S
C244 O245 1.244 . S
C244 O268 1.257 . S
O245 C244 1.244 . S
O246 Zn238 2.019 . S
O246 C266 1.257 . S
Zn247 N243 2.020 . S
Zn247 O254 1.975 . S
Zn247 N263 2.119 . S
Zn247 O268 2.019 . S
N248 Zn238 2.119 . S
N248 C250 1.334 . S
N248 C251 1.328 . S
C249 C250 1.391 . S
C249 N252 1.329 . S
C249 H270 0.930 . S
C250 N248 1.334 . S
C250 C249 1.391 . S
C250 H257 0.930 . S
C251 N248 1.328 . S
C251 C253 1.392 . S
C251 H258 0.930 . S
N252 C249 1.329 . S
N252 C253 1.331 . S
C253 C251 1.392 . S
C253 N252 1.331 . S
O254 Zn247 1.975 . S
O254 C255 1.252 . S
C255 O254 1.252 . S
C255 O256 1.252 . S
O256 Zn238 1.975 . S
O256 C255 1.252 . S
H257 C250 0.930 . S
H258 C251 0.930 . S
C259 C260 1.392 . S
C259 N263 1.328 . S
C259 H265 0.930 . S
C260 C259 1.392 . S
C260 N264 1.331 . S
C261 C262 1.391 . S
C261 N264 1.329 . S
C261 H271 0.930 . S
C262 C261 1.391 . S
C262 N263 1.334 . S
C262 H269 0.930 . S
N263 Zn247 2.119 . S
N263 C259 1.328 . S
N263 C262 1.334 . S
N264 C260 1.331 . S
N264 C261 1.329 . S
H265 C259 0.930 . S
C266 O246 1.257 . S
C266 O267 1.244 . S
O267 C266 1.244 . S
O268 C244 1.257 . S
O268 Zn247 2.019 . S
H269 C262 0.930 . S
H270 C249 0.930 . S
H271 C261 0.930 . S
Zn272 N276 2.020 . S
Zn272 O280 2.019 . S
Zn272 N282 2.119 . S
Zn272 O290 1.975 . S
C273 N274 1.334 . S
C273 N277 1.336 . S
N274 C273 1.334 . S
N274 C275 1.334 . S
C275 N274 1.334 . S
C275 N276 1.336 . S
N276 Zn272 2.020 . S
N276 C275 1.336 . S
N276 N277 1.354 . S
N277 C273 1.336 . S
N277 N276 1.354 . S
N277 Zn281 2.020 . S
C278 O279 1.244 . S
C278 O302 1.257 . S
O279 C278 1.244 . S
O280 Zn272 2.019 . S
O280 C300 1.257 . S
Zn281 N277 2.020 . S
Zn281 O288 1.975 . S
Zn281 N297 2.119 . S
Zn281 O302 2.019 . S
N282 Zn272 2.119 . S
N282 C284 1.334 . S
N282 C285 1.328 . S
C283 C284 1.391 . S
C283 N286 1.329 . S
C283 H304 0.930 . S
C284 N282 1.334 . S
C284 C283 1.391 . S
C284 H291 0.930 . S
C285 N282 1.328 . S
C285 C287 1.392 . S
C285 H292 0.930 . S
N286 C283 1.329 . S
N286 C287 1.331 . S
C287 C285 1.392 . S
C287 N286 1.331 . S
O288 Zn281 1.975 . S
O288 C289 1.252 . S
C289 O288 1.252 . S
C289 O290 1.252 . S
O290 Zn272 1.975 . S
O290 C289 1.252 . S
H291 C284 0.930 . S
H292 C285 0.930 . S
C293 C294 1.392 . S
C293 N297 1.328 . S
C293 H299 0.930 . S
C294 C293 1.392 . S
C294 N298 1.331 . S
C295 C296 1.391 . S
C295 N298 1.329 . S
C295 H305 0.930 . S
C296 C295 1.391 . S
C296 N297 1.334 . S
C296 H303 0.930 . S
N297 Zn281 2.119 . S
N297 C293 1.328 . S
N297 C296 1.334 . S
N298 C294 1.331 . S
N298 C295 1.329 . S
H299 C293 0.930 . S
C300 O280 1.257 . S
C300 O301 1.244 . S
O301 C300 1.244 . S
O302 C278 1.257 . S
O302 Zn281 2.019 . S
H303 C296 0.930 . S
H304 C283 0.930 . S
H305 C295 0.930 . S
Zn306 N310 2.020 . S
Zn306 O314 2.019 . S
Zn306 N316 2.119 . S
Zn306 O324 1.975 . S
C307 N308 1.334 . S
C307 N311 1.336 . S
N308 C307 1.334 . S
N308 C309 1.334 . S
C309 N308 1.334 . S
C309 N310 1.336 . S
N310 Zn306 2.020 . S
N310 C309 1.336 . S
N310 N311 1.354 . S
N311 C307 1.336 . S
N311 N310 1.354 . S
N311 Zn315 2.020 . S
C312 O313 1.244 . S
C312 O336 1.257 . S
O313 C312 1.244 . S
O314 Zn306 2.019 . S
O314 C334 1.257 . S
Zn315 N311 2.020 . S
Zn315 O322 1.975 . S
Zn315 N331 2.119 . S
Zn315 O336 2.019 . S
N316 Zn306 2.119 . S
N316 C318 1.334 . S
N316 C319 1.328 . S
C317 C318 1.391 . S
C317 N320 1.329 . S
C317 H338 0.930 . S
C318 N316 1.334 . S
C318 C317 1.391 . S
C318 H325 0.930 . S
C319 N316 1.328 . S
C319 C321 1.392 . S
C319 H326 0.930 . S
N320 C317 1.329 . S
N320 C321 1.331 . S
C321 C319 1.392 . S
C321 N320 1.331 . S
O322 Zn315 1.975 . S
O322 C323 1.252 . S
C323 O322 1.252 . S
C323 O324 1.252 . S
O324 Zn306 1.975 . S
O324 C323 1.252 . S
H325 C318 0.930 . S
H326 C319 0.930 . S
C327 C328 1.392 . S
C327 N331 1.328 . S
C327 H333 0.930 . S
C328 C327 1.392 . S
C328 N332 1.331 . S
C329 C330 1.391 . S
C329 N332 1.329 . S
C329 H339 0.930 . S
C330 C329 1.391 . S
C330 N331 1.334 . S
C330 H337 0.930 . S
N331 Zn315 2.119 . S
N331 C327 1.328 . S
N331 C330 1.334 . S
N332 C328 1.331 . S
N332 C329 1.329 . S
H333 C327 0.930 . S
C334 O314 1.257 . S
C334 O335 1.244 . S
O335 C334 1.244 . S
O336 C312 1.257 . S
O336 Zn315 2.019 . S
H337 C330 0.930 . S
H338 C317 0.930 . S
H339 C329 0.930 . S
Zn340 N344 2.020 . S
Zn340 O348 2.019 . S
Zn340 N350 2.119 . S
Zn340 O358 1.975 . S
C341 N342 1.334 . S
C341 N345 1.336 . S
N342 C341 1.334 . S
N342 C343 1.334 . S
C343 N342 1.334 . S
C343 N344 1.336 . S
N344 Zn340 2.020 . S
N344 C343 1.336 . S
N344 N345 1.354 . S
N345 C341 1.336 . S
N345 N344 1.354 . S
N345 Zn349 2.020 . S
C346 O347 1.244 . S
C346 O370 1.257 . S
O347 C346 1.244 . S
O348 Zn340 2.019 . S
O348 C368 1.257 . S
Zn349 N345 2.020 . S
Zn349 O356 1.975 . S
Zn349 N365 2.119 . S
Zn349 O370 2.019 . S
N350 Zn340 2.119 . S
N350 C352 1.334 . S
N350 C353 1.328 . S
C351 C352 1.391 . S
C351 N354 1.329 . S
C351 H372 0.930 . S
C352 N350 1.334 . S
C352 C351 1.391 . S
C352 H359 0.930 . S
C353 N350 1.328 . S
C353 C355 1.392 . S
C353 H360 0.930 . S
N354 C351 1.329 . S
N354 C355 1.331 . S
C355 C353 1.392 . S
C355 N354 1.331 . S
O356 Zn349 1.975 . S
O356 C357 1.252 . S
C357 O356 1.252 . S
C357 O358 1.252 . S
O358 Zn340 1.975 . S
O358 C357 1.252 . S
H359 C352 0.930 . S
H360 C353 0.930 . S
C361 C362 1.392 . S
C361 N365 1.328 . S
C361 H367 0.930 . S
C362 C361 1.392 . S
C362 N366 1.331 . S
C363 C364 1.391 . S
C363 N366 1.329 . S
C363 H373 0.930 . S
C364 C363 1.391 . S
C364 N365 1.334 . S
C364 H371 0.930 . S
N365 Zn349 2.119 . S
N365 C361 1.328 . S
N365 C364 1.334 . S
N366 C362 1.331 . S
N366 C363 1.329 . S
H367 C361 0.930 . S
C368 O348 1.257 . S
C368 O369 1.244 . S
O369 C368 1.244 . S
O370 C346 1.257 . S
O370 Zn349 2.019 . S
H371 C364 0.930 . S
H372 C351 0.930 . S
H373 C363 0.930 . S
Zn374 N378 2.020 . S
Zn374 O382 2.019 . S
Zn374 N384 2.119 . S
Zn374 O392 1.975 . S
C375 N376 1.334 . S
C375 N379 1.336 . S
N376 C375 1.334 . S
N376 C377 1.334 . S
C377 N376 1.334 . S
C377 N378 1.336 . S
N378 Zn374 2.020 . S
N378 C377 1.336 . S
N378 N379 1.354 . S
N379 C375 1.336 . S
N379 N378 1.354 . S
N379 Zn383 2.020 . S
C380 O381 1.244 . S
C380 O404 1.257 . S
O381 C380 1.244 . S
O382 Zn374 2.019 . S
O382 C402 1.257 . S
Zn383 N379 2.020 . S
Zn383 O390 1.975 . S
Zn383 N399 2.119 . S
Zn383 O404 2.019 . S
N384 Zn374 2.119 . S
N384 C386 1.334 . S
N384 C387 1.328 . S
C385 C386 1.391 . S
C385 N388 1.329 . S
C385 H406 0.930 . S
C386 N384 1.334 . S
C386 C385 1.391 . S
C386 H393 0.930 . S
C387 N384 1.328 . S
C387 C389 1.392 . S
C387 H394 0.930 . S
N388 C385 1.329 . S
N388 C389 1.331 . S
C389 C387 1.392 . S
C389 N388 1.331 . S
O390 Zn383 1.975 . S
O390 C391 1.252 . S
C391 O390 1.252 . S
C391 O392 1.252 . S
O392 Zn374 1.975 . S
O392 C391 1.252 . S
H393 C386 0.930 . S
H394 C387 0.930 . S
C395 C396 1.392 . S
C395 N399 1.328 . S
C395 H401 0.930 . S
C396 C395 1.392 . S
C396 N400 1.331 . S
C397 C398 1.391 . S
C397 N400 1.329 . S
C397 H407 0.930 . S
C398 C397 1.391 . S
C398 N399 1.334 . S
C398 H405 0.930 . S
N399 Zn383 2.119 . S
N399 C395 1.328 . S
N399 C398 1.334 . S
N400 C396 1.331 . S
N400 C397 1.329 . S
H401 C395 0.930 . S
C402 O382 1.257 . S
C402 O403 1.244 . S
O403 C402 1.244 . S
O404 C380 1.257 . S
O404 Zn383 2.019 . S
H405 C398 0.930 . S
H406 C385 0.930 . S
H407 C397 0.930 . S
Zn408 N412 2.020 . S
Zn408 O416 2.019 . S
Zn408 N418 2.119 . S
Zn408 O426 1.975 . S
C409 N410 1.334 . S
C409 N413 1.336 . S
N410 C409 1.334 . S
N410 C411 1.334 . S
C411 N410 1.334 . S
C411 N412 1.336 . S
N412 Zn408 2.020 . S
N412 C411 1.336 . S
N412 N413 1.354 . S
N413 C409 1.336 . S
N413 N412 1.354 . S
N413 Zn417 2.020 . S
C414 O415 1.244 . S
C414 O438 1.257 . S
O415 C414 1.244 . S
O416 Zn408 2.019 . S
O416 C436 1.257 . S
Zn417 N413 2.020 . S
Zn417 O424 1.975 . S
Zn417 N433 2.119 . S
Zn417 O438 2.019 . S
N418 Zn408 2.119 . S
N418 C420 1.334 . S
N418 C421 1.328 . S
C419 C420 1.391 . S
C419 N422 1.329 . S
C419 H440 0.930 . S
C420 N418 1.334 . S
C420 C419 1.391 . S
C420 H427 0.930 . S
C421 N418 1.328 . S
C421 C423 1.392 . S
C421 H428 0.930 . S
N422 C419 1.329 . S
N422 C423 1.331 . S
C423 C421 1.392 . S
C423 N422 1.331 . S
O424 Zn417 1.975 . S
O424 C425 1.252 . S
C425 O424 1.252 . S
C425 O426 1.252 . S
O426 Zn408 1.975 . S
O426 C425 1.252 . S
H427 C420 0.930 . S
H428 C421 0.930 . S
C429 C430 1.392 . S
C429 N433 1.328 . S
C429 H435 0.930 . S
C430 C429 1.392 . S
C430 N434 1.331 . S
C431 C432 1.391 . S
C431 N434 1.329 . S
C431 H441 0.930 . S
C432 C431 1.391 . S
C432 N433 1.334 . S
C432 H439 0.930 . S
N433 Zn417 2.119 . S
N433 C429 1.328 . S
N433 C432 1.334 . S
N434 C430 1.331 . S
N434 C431 1.329 . S
H435 C429 0.930 . S
C436 O416 1.257 . S
C436 O437 1.244 . S
O437 C436 1.244 . S
O438 C414 1.257 . S
O438 Zn417 2.019 . S
H439 C432 0.930 . S
H440 C419 0.930 . S
H441 C431 0.930 . S
Zn442 N446 2.020 . S
Zn442 O450 2.019 . S
Zn442 N452 2.119 . S
Zn442 O460 1.975 . S
C443 N444 1.334 . S
C443 N447 1.336 . S
N444 C443 1.334 . S
N444 C445 1.334 . S
C445 N444 1.334 . S
C445 N446 1.336 . S
N446 Zn442 2.020 . S
N446 C445 1.336 . S
N446 N447 1.354 . S
N447 C443 1.336 . S
N447 N446 1.354 . S
N447 Zn451 2.020 . S
C448 O449 1.244 . S
C448 O472 1.257 . S
O449 C448 1.244 . S
O450 Zn442 2.019 . S
O450 C470 1.257 . S
Zn451 N447 2.020 . S
Zn451 O458 1.975 . S
Zn451 N467 2.119 . S
Zn451 O472 2.019 . S
N452 Zn442 2.119 . S
N452 C454 1.334 . S
N452 C455 1.328 . S
C453 C454 1.391 . S
C453 N456 1.329 . S
C453 H474 0.930 . S
C454 N452 1.334 . S
C454 C453 1.391 . S
C454 H461 0.930 . S
C455 N452 1.328 . S
C455 C457 1.392 . S
C455 H462 0.930 . S
N456 C453 1.329 . S
N456 C457 1.331 . S
C457 C455 1.392 . S
C457 N456 1.331 . S
O458 Zn451 1.975 . S
O458 C459 1.252 . S
C459 O458 1.252 . S
C459 O460 1.252 . S
O460 Zn442 1.975 . S
O460 C459 1.252 . S
H461 C454 0.930 . S
H462 C455 0.930 . S
C463 C464 1.392 . S
C463 N467 1.328 . S
C463 H469 0.930 . S
C464 C463 1.392 . S
C464 N468 1.331 . S
C465 C466 1.391 . S
C465 N468 1.329 . S
C465 H475 0.930 . S
C466 C465 1.391 . S
C466 N467 1.334 . S
C466 H473 0.930 . S
N467 Zn451 2.119 . S
N467 C463 1.328 . S
N467 C466 1.334 . S
N468 C464 1.331 . S
N468 C465 1.329 . S
H469 C463 0.930 . S
C470 O450 1.257 . S
C470 O471 1.244 . S
O471 C470 1.244 . S
O472 C448 1.257 . S
O472 Zn451 2.019 . S
H473 C466 0.930 . S
H474 C453 0.930 . S
H475 C465 0.930 . S
Zn476 N480 2.020 . S
Zn476 O484 2.019 . S
Zn476 N486 2.119 . S
Zn476 O494 1.975 . S
C477 N478 1.334 . S
C477 N481 1.336 . S
N478 C477 1.334 . S
N478 C479 1.334 . S
C479 N478 1.334 . S
C479 N480 1.336 . S
N480 Zn476 2.020 . S
N480 C479 1.336 . S
N480 N481 1.354 . S
N481 C477 1.336 . S
N481 N480 1.354 . S
N481 Zn485 2.020 . S
C482 O483 1.244 . S
C482 O506 1.257 . S
O483 C482 1.244 . S
O484 Zn476 2.019 . S
O484 C504 1.257 . S
Zn485 N481 2.020 . S
Zn485 O492 1.975 . S
Zn485 N501 2.119 . S
Zn485 O506 2.019 . S
N486 Zn476 2.119 . S
N486 C488 1.334 . S
N486 C489 1.328 . S
C487 C488 1.391 . S
C487 N490 1.329 . S
C487 H508 0.930 . S
C488 N486 1.334 . S
C488 C487 1.391 . S
C488 H495 0.930 . S
C489 N486 1.328 . S
C489 C491 1.392 . S
C489 H496 0.930 . S
N490 C487 1.329 . S
N490 C491 1.331 . S
C491 C489 1.392 . S
C491 N490 1.331 . S
O492 Zn485 1.975 . S
O492 C493 1.252 . S
C493 O492 1.252 . S
C493 O494 1.252 . S
O494 Zn476 1.975 . S
O494 C493 1.252 . S
H495 C488 0.930 . S
H496 C489 0.930 . S
C497 C498 1.392 . S
C497 N501 1.328 . S
C497 H503 0.930 . S
C498 C497 1.392 . S
C498 N502 1.331 . S
C499 C500 1.391 . S
C499 N502 1.329 . S
C499 H509 0.930 . S
C500 C499 1.391 . S
C500 N501 1.334 . S
C500 H507 0.930 . S
N501 Zn485 2.119 . S
N501 C497 1.328 . S
N501 C500 1.334 . S
N502 C498 1.331 . S
N502 C499 1.329 . S
H503 C497 0.930 . S
C504 O484 1.257 . S
C504 O505 1.244 . S
O505 C504 1.244 . S
O506 C482 1.257 . S
O506 Zn485 2.019 . S
H507 C500 0.930 . S
H508 C487 0.930 . S
H509 C499 0.930 . S
Zn510 N514 2.020 . S
Zn510 O518 2.019 . S
Zn510 N520 2.119 . S
Zn510 O528 1.975 . S
C511 N512 1.334 . S
C511 N515 1.336 . S
N512 C511 1.334 . S
N512 C513 1.334 . S
C513 N512 1.334 . S
C513 N514 1.336 . S
N514 Zn510 2.020 . S
N514 C513 1.336 . S
N514 N515 1.354 . S
N515 C511 1.336 . S
N515 N514 1.354 . S
N515 Zn519 2.020 . S
C516 O517 1.244 . S
C516 O540 1.257 . S
O517 C516 1.244 . S
O518 Zn510 2.019 . S
O518 C538 1.257 . S
Zn519 N515 2.020 . S
Zn519 O526 1.975 . S
Zn519 N535 2.119 . S
Zn519 O540 2.019 . S
N520 Zn510 2.119 . S
N520 C522 1.334 . S
N520 C523 1.328 . S
C521 C522 1.391 . S
C521 N524 1.329 . S
C521 H542 0.930 . S
C522 N520 1.334 . S
C522 C521 1.391 . S
C522 H529 0.930 . S
C523 N520 1.328 . S
C523 C525 1.392 . S
C523 H530 0.930 . S
N524 C521 1.329 . S
N524 C525 1.331 . S
C525 C523 1.392 . S
C525 N524 1.331 . S
O526 Zn519 1.975 . S
O526 C527 1.252 . S
C527 O526 1.252 . S
C527 O528 1.252 . S
O528 Zn510 1.975 . S
O528 C527 1.252 . S
H529 C522 0.930 . S
H530 C523 0.930 . S
C531 C532 1.392 . S
C531 N535 1.328 . S
C531 H537 0.930 . S
C532 C531 1.392 . S
C532 N536 1.331 . S
C533 C534 1.391 . S
C533 N536 1.329 . S
C533 H543 0.930 . S
C534 C533 1.391 . S
C534 N535 1.334 . S
C534 H541 0.930 . S
N535 Zn519 2.119 . S
N535 C531 1.328 . S
N535 C534 1.334 . S
N536 C532 1.331 . S
N536 C533 1.329 . S
H537 C531 0.930 . S
C538 O518 1.257 . S
C538 O539 1.244 . S
O539 C538 1.244 . S
O540 C516 1.257 . S
O540 Zn519 2.019 . S
H541 C534 0.930 . S
H542 C521 0.930 . S
H543 C533 0.930 . S
H544 C552 0.929 . S
H545 C554 0.930 1_545 S
H546 C556 0.930 . S
H547 C559 0.929 . S
H548 C562 0.930 . S
H549 C564 0.960 . S
H550 C564 0.960 . S
H551 C564 0.960 . S
C552 H544 0.929 . S
C552 C553 1.377 . S
C552 C554 1.384 . S
C553 C552 1.377 . S
C553 C559 1.390 . S
C554 H545 0.930 1_565 S
C554 C552 1.384 . S
C554 C555 1.372 . S
C555 C554 1.372 . S
C555 C556 1.400 . S
C555 C560 1.490 . S
C556 H546 0.930 . S
C556 C555 1.400 . S
C556 C559 1.386 . S
H557 C573 0.930 . S
H558 C574 0.931 1_565 S
C559 H547 0.929 . S
C559 C553 1.390 . S
C559 C556 1.386 . S
C560 C555 1.490 . S
C560 C562 1.395 . S
C560 C563 1.403 . S
H561 C567 0.930 . S
C562 H548 0.930 . S
C562 C560 1.395 . S
C562 C565 1.403 1_565 S
C563 C560 1.403 . S
C563 C564 1.524 . S
C563 C567 1.400 1_565 S
C564 H549 0.960 . S
C564 H550 0.960 . S
C564 H551 0.960 . S
C564 C563 1.524 . S
C565 C562 1.403 1_545 S
C565 C566 1.392 . S
C565 C569 1.495 . S
C566 C565 1.392 . S
C566 C567 1.385 . S
C566 C568 1.478 . S
C567 H561 0.930 . S
C567 C563 1.400 1_545 S
C567 C566 1.385 . S
C568 C566 1.478 . S
C568 C570 1.381 . S
C568 C574 1.383 . S
C569 C565 1.495 . S
C569 H575 0.959 . S
C569 H576 0.961 . S
C569 H577 0.960 . S
C570 C568 1.381 . S
C570 C571 1.394 . S
C570 H578 0.930 . S
C571 C570 1.394 . S
C571 C572 1.383 . S
C571 H579 0.929 . S
C572 C571 1.383 . S
C572 C573 1.377 . S
C573 H557 0.930 . S
C573 C572 1.377 . S
C573 C574 1.379 . S
C574 H558 0.931 1_545 S
C574 C568 1.383 . S
C574 C573 1.379 . S
H575 C569 0.959 . S
H576 C569 0.961 . S
H577 C569 0.960 . S
H578 C570 0.930 . S
H579 C571 0.929 . S
H580 C588 0.929 . S
H581 C590 0.930 1_455 S
H582 C592 0.930 . S
H583 C595 0.929 . S
H584 C598 0.930 . S
H585 C600 0.960 . S
H586 C600 0.960 . S
H587 C600 0.960 . S
C588 H580 0.929 . S
C588 C589 1.377 . S
C588 C590 1.384 . S
C589 C588 1.377 . S
C589 C595 1.390 . S
C590 H581 0.930 1_655 S
C590 C588 1.384 . S
C590 C591 1.372 . S
C591 C590 1.372 . S
C591 C592 1.400 . S
C591 C596 1.490 . S
C592 H582 0.930 . S
C592 C591 1.400 . S
C592 C595 1.386 . S
H593 C609 0.930 . S
H594 C610 0.931 . S
C595 H583 0.929 . S
C595 C589 1.390 . S
C595 C592 1.386 . S
C596 C591 1.490 . S
C596 C598 1.395 1_655 S
C596 C599 1.403 . S
H597 C603 0.930 . S
C598 H584 0.930 . S
C598 C596 1.395 1_455 S
C598 C601 1.403 . S
C599 C596 1.403 . S
C599 C600 1.524 . S
C599 C603 1.400 . S
C600 H585 0.960 . S
C600 H586 0.960 . S
C600 H587 0.960 . S
C600 C599 1.524 . S
C601 C598 1.403 . S
C601 C602 1.392 . S
C601 C605 1.495 . S
C602 C601 1.392 . S
C602 C603 1.385 1_455 S
C602 C604 1.478 . S
C603 H597 0.930 . S
C603 C599 1.400 . S
C603 C602 1.385 1_655 S
C604 C602 1.478 . S
C604 C606 1.381 . S
C604 C610 1.383 . S
C605 C601 1.495 . S
C605 H611 0.959 . S
C605 H612 0.961 . S
C605 H613 0.960 . S
C606 C604 1.381 . S
C606 C607 1.394 . S
C606 H614 0.930 . S
C607 C606 1.394 . S
C607 C608 1.383 . S
C607 H615 0.929 . S
C608 C607 1.383 . S
C608 C609 1.377 . S
C609 H593 0.930 . S
C609 C608 1.377 . S
C609 C610 1.379 . S
C610 H594 0.931 . S
C610 C604 1.383 . S
C610 C609 1.379 . S
H611 C605 0.959 . S
H612 C605 0.961 . S
H613 C605 0.960 . S
H614 C606 0.930 . S
H615 C607 0.929 . S
H616 C624 0.929 . S
H617 C626 0.930 . S
H618 C628 0.930 . S
H619 C631 0.929 . S
H620 C634 0.930 . S
H621 C636 0.960 . S
H622 C636 0.960 . S
H623 C636 0.960 . S
C624 H616 0.929 . S
C624 C625 1.377 . S
C624 C626 1.384 . S
C625 C624 1.377 . S
C625 C631 1.390 . S
C626 H617 0.930 . S
C626 C624 1.384 . S
C626 C627 1.372 . S
C627 C626 1.372 . S
C627 C628 1.400 . S
C627 C632 1.490 . S
C628 H618 0.930 . S
C628 C627 1.400 . S
C628 C631 1.386 . S
H629 C645 0.930 . S
H630 C646 0.931 . S
C631 H619 0.929 . S
C631 C625 1.390 . S
C631 C628 1.386 . S
C632 C627 1.490 . S
C632 C634 1.395 . S
C632 C635 1.403 . S
H633 C639 0.930 . S
C634 H620 0.930 . S
C634 C632 1.395 . S
C634 C637 1.403 . S
C635 C632 1.403 . S
C635 C636 1.524 . S
C635 C639 1.400 . S
C636 H621 0.960 . S
C636 H622 0.960 . S
C636 H623 0.960 . S
C636 C635 1.524 . S
C637 C634 1.403 . S
C637 C638 1.392 . S
C637 C641 1.495 . S
C638 C637 1.392 . S
C638 C639 1.385 . S
C638 C640 1.478 . S
C639 H633 0.930 . S
C639 C635 1.400 . S
C639 C638 1.385 . S
C640 C638 1.478 . S
C640 C642 1.381 . S
C640 C646 1.383 . S
C641 C637 1.495 . S
C641 H647 0.959 . S
C641 H648 0.961 . S
C641 H649 0.960 . S
C642 C640 1.381 . S
C642 C643 1.394 . S
C642 H650 0.930 . S
C643 C642 1.394 . S
C643 C644 1.383 . S
C643 H651 0.929 . S
C644 C643 1.383 . S
C644 C645 1.377 . S
C645 H629 0.930 . S
C645 C644 1.377 . S
C645 C646 1.379 . S
C646 H630 0.931 . S
C646 C640 1.383 . S
C646 C645 1.379 . S
H647 C641 0.959 . S
H648 C641 0.961 . S
H649 C641 0.960 . S
H650 C642 0.930 . S
H651 C643 0.929 . S
H652 C660 0.929 . S
H653 C662 0.930 . S
H654 C664 0.930 . S
H655 C667 0.929 . S
H656 C670 0.930 . S
H657 C672 0.960 . S
H658 C672 0.960 . S
H659 C672 0.960 . S
C660 H652 0.929 . S
C660 C661 1.377 . S
C660 C662 1.384 . S
C661 C660 1.377 . S
C661 C667 1.390 . S
C662 H653 0.930 . S
C662 C660 1.384 . S
C662 C663 1.372 . S
C663 C662 1.372 . S
C663 C664 1.400 . S
C663 C668 1.490 . S
C664 H654 0.930 . S
C664 C663 1.400 . S
C664 C667 1.386 . S
H665 C681 0.930 . S
H666 C682 0.931 . S
C667 H655 0.929 . S
C667 C661 1.390 . S
C667 C664 1.386 . S
C668 C663 1.490 . S
C668 C670 1.395 . S
C668 C671 1.403 . S
H669 C675 0.930 . S
C670 H656 0.930 . S
C670 C668 1.395 . S
C670 C673 1.403 . S
C671 C668 1.403 . S
C671 C672 1.524 . S
C671 C675 1.400 . S
C672 H657 0.960 . S
C672 H658 0.960 . S
C672 H659 0.960 . S
C672 C671 1.524 . S
C673 C670 1.403 . S
C673 C674 1.392 . S
C673 C677 1.495 . S
C674 C673 1.392 . S
C674 C675 1.385 . S
C674 C676 1.478 . S
C675 H669 0.930 . S
C675 C671 1.400 . S
C675 C674 1.385 . S
C676 C674 1.478 . S
C676 C678 1.381 . S
C676 C682 1.383 . S
C677 C673 1.495 . S
C677 H683 0.959 . S
C677 H684 0.961 . S
C677 H685 0.960 . S
C678 C676 1.381 . S
C678 C679 1.394 . S
C678 H686 0.930 . S
C679 C678 1.394 . S
C679 C680 1.383 . S
C679 H687 0.929 . S
C680 C679 1.383 . S
C680 C681 1.377 . S
C681 H665 0.930 . S
C681 C680 1.377 . S
C681 C682 1.379 . S
C682 H666 0.931 . S
C682 C676 1.383 . S
C682 C681 1.379 . S
H683 C677 0.959 . S
H684 C677 0.961 . S
H685 C677 0.960 . S
H686 C678 0.930 . S
H687 C679 0.929 . S
H688 C696 0.929 . S
H689 C698 0.930 . S
H690 C700 0.930 . S
H691 C703 0.929 . S
H692 C706 0.930 . S
H693 C708 0.960 1_455 S
H694 C708 0.960 . S
H695 C708 0.960 . S
C696 H688 0.929 . S
C696 C697 1.377 . S
C696 C698 1.384 . S
C697 C696 1.377 . S
C697 C703 1.390 . S
C698 H689 0.930 . S
C698 C696 1.384 . S
C698 C699 1.372 . S
C699 C698 1.372 . S
C699 C700 1.400 . S
C699 C704 1.490 . S
C700 H690 0.930 . S
C700 C699 1.400 . S
C700 C703 1.386 . S
H701 C717 0.930 . S
H702 C718 0.931 . S
C703 H691 0.929 . S
C703 C697 1.390 . S
C703 C700 1.386 . S
C704 C699 1.490 . S
C704 C706 1.395 . S
C704 C707 1.403 . S
H705 C711 0.930 . S
C706 H692 0.930 . S
C706 C704 1.395 . S
C706 C709 1.403 1_655 S
C707 C704 1.403 . S
C707 C708 1.524 . S
C707 C711 1.400 1_655 S
C708 H693 0.960 1_655 S
C708 H694 0.960 . S
C708 H695 0.960 . S
C708 C707 1.524 . S
C709 C706 1.403 1_455 S
C709 C710 1.392 . S
C709 C713 1.495 . S
C710 C709 1.392 . S
C710 C711 1.385 . S
C710 C712 1.478 . S
C711 H705 0.930 . S
C711 C707 1.400 1_455 S
C711 C710 1.385 . S
C712 C710 1.478 . S
C712 C714 1.381 . S
C712 C718 1.383 . S
C713 C709 1.495 . S
C713 H719 0.959 1_455 S
C713 H720 0.961 . S
C713 H721 0.960 . S
C714 C712 1.381 . S
C714 C715 1.394 . S
C714 H722 0.930 . S
C715 C714 1.394 . S
C715 C716 1.383 . S
C715 H723 0.929 . S
C716 C715 1.383 . S
C716 C717 1.377 . S
C717 H701 0.930 . S
C717 C716 1.377 . S
C717 C718 1.379 . S
C718 H702 0.931 . S
C718 C712 1.383 . S
C718 C717 1.379 . S
H719 C713 0.959 1_655 S
H720 C713 0.961 . S
H721 C713 0.960 . S
H722 C714 0.930 . S
H723 C715 0.929 . S
H724 C732 0.929 . S
H725 C734 0.930 . S
H726 C736 0.930 . S
H727 C739 0.929 . S
H728 C742 0.930 . S
H729 C744 0.960 . S
H730 C744 0.960 . S
H731 C744 0.960 . S
C732 H724 0.929 . S
C732 C733 1.377 . S
C732 C734 1.384 . S
C733 C732 1.377 . S
C733 C739 1.390 . S
C734 H725 0.930 . S
C734 C732 1.384 . S
C734 C735 1.372 . S
C735 C734 1.372 . S
C735 C736 1.400 . S
C735 C740 1.490 . S
C736 H726 0.930 . S
C736 C735 1.400 . S
C736 C739 1.386 . S
H737 C753 0.930 . S
H738 C754 0.931 . S
C739 H727 0.929 . S
C739 C733 1.390 . S
C739 C736 1.386 . S
C740 C735 1.490 . S
C740 C742 1.395 . S
C740 C743 1.403 . S
H741 C747 0.930 . S
C742 H728 0.930 . S
C742 C740 1.395 . S
C742 C745 1.403 1_565 S
C743 C740 1.403 . S
C743 C744 1.524 . S
C743 C747 1.400 1_565 S
C744 H729 0.960 . S
C744 H730 0.960 . S
C744 H731 0.960 . S
C744 C743 1.524 . S
C745 C742 1.403 1_545 S
C745 C746 1.392 . S
C745 C749 1.495 . S
C746 C745 1.392 . S
C746 C747 1.385 . S
C746 C748 1.478 . S
C747 H741 0.930 . S
C747 C743 1.400 1_545 S
C747 C746 1.385 . S
C748 C746 1.478 . S
C748 C750 1.381 . S
C748 C754 1.383 . S
C749 C745 1.495 . S
C749 H755 0.959 . S
C749 H756 0.961 . S
C749 H757 0.960 . S
C750 C748 1.381 . S
C750 C751 1.394 . S
C750 H758 0.930 . S
C751 C750 1.394 . S
C751 C752 1.383 . S
C751 H759 0.929 . S
C752 C751 1.383 . S
C752 C753 1.377 . S
C753 H737 0.930 . S
C753 C752 1.377 . S
C753 C754 1.379 . S
C754 H738 0.931 . S
C754 C748 1.383 . S
C754 C753 1.379 . S
H755 C749 0.959 . S
H756 C749 0.961 . S
H757 C749 0.960 . S
H758 C750 0.930 . S
H759 C751 0.929 . S
H760 C768 0.929 . S
H761 C770 0.930 . S
H762 C772 0.930 . S
H763 C775 0.929 . S
H764 C778 0.930 . S
H765 C780 0.995 . S
H766 C780 0.942 1_655 S
H767 C780 0.947 1_655 S
C768 H760 0.929 . S
C768 C769 1.377 . S
C768 C770 1.384 . S
C769 C768 1.377 . S
C769 C775 1.390 . S
C770 H761 0.930 . S
C770 C768 1.384 . S
C770 C771 1.372 . S
C771 C770 1.372 . S
C771 C772 1.400 . S
C771 C776 1.490 . S
C772 H762 0.930 . S
C772 C771 1.400 . S
C772 C775 1.386 . S
H773 C789 0.930 . S
H774 C790 0.931 . S
C775 H763 0.929 . S
C775 C769 1.390 . S
C775 C772 1.386 . S
C776 C771 1.490 . S
C776 C778 1.395 1_565 S
C776 C779 1.441 . S
H777 C783 0.930 . S
C778 H764 0.930 . S
C778 C776 1.395 1_545 S
C778 C781 1.403 . S
C779 C776 1.441 . S
C779 C780 1.521 1_655 S
C779 C783 1.363 1_655 S
C780 H765 0.995 . S
C780 H766 0.942 1_455 S
C780 H767 0.947 1_455 S
C780 C779 1.521 1_455 S
C781 C778 1.403 . S
C781 C782 1.392 1_655 S
C781 C785 1.495 . S
C782 C781 1.392 1_455 S
C782 C783 1.385 1_545 S
C782 C784 1.478 . S
C783 H777 0.930 . S
C783 C779 1.363 1_455 S
C783 C782 1.385 1_565 S
C784 C782 1.478 . S
C784 C786 1.381 . S
C784 C790 1.383 . S
C785 C781 1.495 . S
C785 H791 0.959 . S
C785 H792 0.961 1_655 S
C785 H793 0.960 1_655 S
C786 C784 1.381 . S
C786 C787 1.394 . S
C786 H794 0.930 . S
C787 C786 1.394 . S
C787 C788 1.383 . S
C787 H795 0.929 . S
C788 C787 1.383 . S
C788 C789 1.377 . S
C789 H773 0.930 . S
C789 C788 1.377 . S
C789 C790 1.379 . S
C790 H774 0.931 . S
C790 C784 1.383 . S
C790 C789 1.379 . S
H791 C785 0.959 . S
H792 C785 0.961 1_455 S
H793 C785 0.960 1_455 S
H794 C786 0.930 . S
H795 C787 0.929 . S
H796 C804 0.929 . S
H797 C806 0.930 . S
H798 C808 0.930 . S
H799 C811 0.929 . S
H800 C814 0.930 . S
H801 C816 0.960 . S
H802 C816 0.960 . S
H803 C816 0.960 1_455 S
C804 H796 0.929 . S
C804 C805 1.377 . S
C804 C806 1.384 . S
C805 C804 1.377 . S
C805 C811 1.390 . S
C806 H797 0.930 . S
C806 C804 1.384 . S
C806 C807 1.372 . S
C807 C806 1.372 . S
C807 C808 1.400 . S
C807 C812 1.490 . S
C808 H798 0.930 . S
C808 C807 1.400 . S
C808 C811 1.386 . S
H809 C825 0.930 . S
H810 C826 0.931 . S
C811 H799 0.929 . S
C811 C805 1.390 . S
C811 C808 1.386 . S
C812 C807 1.490 . S
C812 C814 1.395 . S
C812 C815 1.403 1_455 S
H813 C819 0.930 . S
C814 H800 0.930 . S
C814 C812 1.395 . S
C814 C817 1.403 1_565 S
C815 C812 1.403 1_655 S
C815 C816 1.524 . S
C815 C819 1.400 1_565 S
C816 H801 0.960 . S
C816 H802 0.960 . S
C816 H803 0.960 1_655 S
C816 C815 1.524 . S
C817 C814 1.403 1_545 S
C817 C818 1.392 1_455 S
C817 C821 1.495 . S
C818 C817 1.392 1_655 S
C818 C819 1.385 . S
C818 C820 1.478 . S
C819 H813 0.930 . S
C819 C815 1.400 1_545 S
C819 C818 1.385 . S
C820 C818 1.478 . S
C820 C822 1.381 . S
C820 C826 1.383 . S
C821 C817 1.495 . S
C821 H827 0.959 . S
C821 H828 0.961 . S
C821 H829 0.960 1_455 S
C822 C820 1.381 . S
C822 C823 1.394 . S
C822 H830 0.930 . S
C823 C822 1.394 . S
C823 C824 1.383 . S
C823 H831 0.929 . S
C824 C823 1.383 . S
C824 C825 1.377 . S
C825 H809 0.930 . S
C825 C824 1.377 . S
C825 C826 1.379 . S
C826 H810 0.931 . S
C826 C820 1.383 . S
C826 C825 1.379 . S
H827 C821 0.959 . S
H828 C821 0.961 . S
H829 C821 0.960 1_655 S
H830 C822 0.930 . S
H831 C823 0.929 . S
H832 C840 0.929 . S
H833 C842 0.930 . S
H834 C844 0.930 . S
H835 C847 0.929 . S
H836 C850 0.930 . S
H837 C852 0.960 . S
H838 C852 0.960 . S
H839 C852 0.960 . S
C840 H832 0.929 . S
C840 C841 1.377 . S
C840 C842 1.384 . S
C841 C840 1.377 . S
C841 C847 1.390 . S
C842 H833 0.930 . S
C842 C840 1.384 . S
C842 C843 1.372 . S
C843 C842 1.372 . S
C843 C844 1.400 . S
C843 C848 1.490 . S
C844 H834 0.930 . S
C844 C843 1.400 . S
C844 C847 1.386 . S
H845 C861 0.930 . S
H846 C862 0.931 . S
C847 H835 0.929 . S
C847 C841 1.390 . S
C847 C844 1.386 . S
C848 C843 1.490 . S
C848 C850 1.395 . S
C848 C851 1.403 . S
H849 C855 0.930 . S
C850 H836 0.930 . S
C850 C848 1.395 . S
C850 C853 1.403 . S
C851 C848 1.403 . S
C851 C852 1.524 . S
C851 C855 1.400 . S
C852 H837 0.960 . S
C852 H838 0.960 . S
C852 H839 0.960 . S
C852 C851 1.524 . S
C853 C850 1.403 . S
C853 C854 1.392 . S
C853 C857 1.495 . S
C854 C853 1.392 . S
C854 C855 1.385 . S
C854 C856 1.478 . S
C855 H849 0.930 . S
C855 C851 1.400 . S
C855 C854 1.385 . S
C856 C854 1.478 . S
C856 C858 1.381 . S
C856 C862 1.383 . S
C857 C853 1.495 . S
C857 H863 0.959 . S
C857 H864 0.961 . S
C857 H865 0.960 . S
C858 C856 1.381 . S
C858 C859 1.394 . S
C858 H866 0.930 . S
C859 C858 1.394 . S
C859 C860 1.383 . S
C859 H867 0.929 . S
C860 C859 1.383 . S
C860 C861 1.377 . S
C861 H845 0.930 . S
C861 C860 1.377 . S
C861 C862 1.379 . S
C862 H846 0.931 . S
C862 C856 1.383 . S
C862 C861 1.379 . S
H863 C857 0.959 . S
H864 C857 0.961 . S
H865 C857 0.960 . S
H866 C858 0.930 . S
H867 C859 0.929 . S
H868 C876 0.929 . S
H869 C878 0.930 . S
H870 C880 0.930 . S
H871 C883 0.929 . S
H872 C886 0.930 . S
H873 C888 0.960 . S
H874 C888 0.960 . S
H875 C888 0.960 . S
C876 H868 0.929 . S
C876 C877 1.377 . S
C876 C878 1.384 . S
C877 C876 1.377 . S
C877 C883 1.390 . S
C878 H869 0.930 . S
C878 C876 1.384 . S
C878 C879 1.372 . S
C879 C878 1.372 . S
C879 C880 1.400 . S
C879 C884 1.490 . S
C880 H870 0.930 . S
C880 C879 1.400 . S
C880 C883 1.386 . S
H881 C897 0.930 . S
H882 C898 0.931 . S
C883 H871 0.929 . S
C883 C877 1.390 . S
C883 C880 1.386 . S
C884 C879 1.490 . S
C884 C886 1.395 . S
C884 C887 1.403 . S
H885 C891 0.930 . S
C886 H872 0.930 . S
C886 C884 1.395 . S
C886 C889 1.403 . S
C887 C884 1.403 . S
C887 C888 1.524 . S
C887 C891 1.400 . S
C888 H873 0.960 . S
C888 H874 0.960 . S
C888 H875 0.960 . S
C888 C887 1.524 . S
C889 C886 1.403 . S
C889 C890 1.392 . S
C889 C893 1.495 . S
C890 C889 1.392 . S
C890 C891 1.385 . S
C890 C892 1.478 . S
C891 H885 0.930 . S
C891 C887 1.400 . S
C891 C890 1.385 . S
C892 C890 1.478 . S
C892 C894 1.381 . S
C892 C898 1.383 . S
C893 C889 1.495 . S
C893 H899 0.959 . S
C893 H900 0.961 . S
C893 H901 0.960 . S
C894 C892 1.381 . S
C894 C895 1.394 . S
C894 H902 0.930 . S
C895 C894 1.394 . S
C895 C896 1.383 . S
C895 H903 0.929 . S
C896 C895 1.383 . S
C896 C897 1.377 . S
C897 H881 0.930 . S
C897 C896 1.377 . S
C897 C898 1.379 . S
C898 H882 0.931 . S
C898 C892 1.383 . S
C898 C897 1.379 . S
H899 C893 0.959 . S
H900 C893 0.961 . S
H901 C893 0.960 . S
H902 C894 0.930 . S
H903 C895 0.929 . S
H904 C912 0.929 . S
H905 C914 0.930 . S
H906 C916 0.930 . S
H907 C919 0.929 . S
H908 C922 0.930 . S
H909 C924 0.960 . S
H910 C924 0.960 . S
H911 C924 0.960 . S
C912 H904 0.929 . S
C912 C913 1.377 . S
C912 C914 1.384 . S
C913 C912 1.377 . S
C913 C919 1.390 . S
C914 H905 0.930 . S
C914 C912 1.384 . S
C914 C915 1.372 . S
C915 C914 1.372 . S
C915 C916 1.400 . S
C915 C920 1.490 . S
C916 H906 0.930 . S
C916 C915 1.400 . S
C916 C919 1.386 . S
H917 C933 0.930 . S
H918 C934 0.931 . S
C919 H907 0.929 . S
C919 C913 1.390 . S
C919 C916 1.386 . S
C920 C915 1.490 . S
C920 C922 1.395 . S
C920 C923 1.403 . S
H921 C927 0.930 . S
C922 H908 0.930 . S
C922 C920 1.395 . S
C922 C925 1.403 . S
C923 C920 1.403 . S
C923 C924 1.524 . S
C923 C927 1.400 . S
C924 H909 0.960 . S
C924 H910 0.960 . S
C924 H911 0.960 . S
C924 C923 1.524 . S
C925 C922 1.403 . S
C925 C926 1.392 . S
C925 C929 1.495 . S
C926 C925 1.392 . S
C926 C927 1.385 . S
C926 C928 1.478 . S
C927 H921 0.930 . S
C927 C923 1.400 . S
C927 C926 1.385 . S
C928 C926 1.478 . S
C928 C930 1.381 . S
C928 C934 1.383 . S
C929 C925 1.495 . S
C929 H935 0.959 . S
C929 H936 0.961 . S
C929 H937 0.960 . S
C930 C928 1.381 . S
C930 C931 1.394 . S
C930 H938 0.930 . S
C931 C930 1.394 . S
C931 C932 1.383 . S
C931 H939 0.929 . S
C932 C931 1.383 . S
C932 C933 1.377 . S
C933 H917 0.930 . S
C933 C932 1.377 . S
C933 C934 1.379 . S
C934 H918 0.931 . S
C934 C928 1.383 . S
C934 C933 1.379 . S
H935 C929 0.959 . S
H936 C929 0.961 . S
H937 C929 0.960 . S
H938 C930 0.930 . S
H939 C931 0.929 . S
H940 C948 0.929 . S
H941 C950 0.930 . S
H942 C952 0.930 . S
H943 C955 0.929 . S
H944 C958 0.930 . S
H945 C960 0.960 . S
H946 C960 0.960 . S
H947 C960 0.960 . S
C948 H940 0.929 . S
C948 C949 1.377 . S
C948 C950 1.384 . S
C949 C948 1.377 . S
C949 C955 1.390 . S
C950 H941 0.930 . S
C950 C948 1.384 . S
C950 C951 1.372 . S
C951 C950 1.372 . S
C951 C952 1.400 . S
C951 C956 1.490 . S
C952 H942 0.930 . S
C952 C951 1.400 . S
C952 C955 1.386 . S
H953 C969 0.930 . S
H954 C970 0.931 . S
C955 H943 0.929 . S
C955 C949 1.390 . S
C955 C952 1.386 . S
C956 C951 1.490 . S
C956 C958 1.395 . S
C956 C959 1.403 . S
H957 C963 0.930 . S
C958 H944 0.930 . S
C958 C956 1.395 . S
C958 C961 1.403 . S
C959 C956 1.403 . S
C959 C960 1.524 . S
C959 C963 1.400 . S
C960 H945 0.960 . S
C960 H946 0.960 . S
C960 H947 0.960 . S
C960 C959 1.524 . S
C961 C958 1.403 . S
C961 C962 1.392 . S
C961 C965 1.495 . S
C962 C961 1.392 . S
C962 C963 1.385 . S
C962 C964 1.478 . S
C963 H957 0.930 . S
C963 C959 1.400 . S
C963 C962 1.385 . S
C964 C962 1.478 . S
C964 C966 1.381 . S
C964 C970 1.383 . S
C965 C961 1.495 . S
C965 H971 0.959 . S
C965 H972 0.961 . S
C965 H973 0.960 . S
C966 C964 1.381 . S
C966 C967 1.394 . S
C966 H974 0.930 . S
C967 C966 1.394 . S
C967 C968 1.383 . S
C967 H975 0.929 . S
C968 C967 1.383 . S
C968 C969 1.377 . S
C969 H953 0.930 . S
C969 C968 1.377 . S
C969 C970 1.379 . S
C970 H954 0.931 . S
C970 C964 1.383 . S
C970 C969 1.379 . S
H971 C965 0.959 . S
H972 C965 0.961 . S
H973 C965 0.960 . S
H974 C966 0.930 . S
H975 C967 0.929 . S
H976 C984 0.929 . S
H977 C986 0.930 . S
H978 C988 0.930 . S
H979 C991 0.929 . S
H980 C994 0.930 . S
H981 C996 0.960 . S
H982 C996 0.960 . S
H983 C996 0.960 . S
C984 H976 0.929 . S
C984 C985 1.377 . S
C984 C986 1.384 . S
C985 C984 1.377 . S
C985 C991 1.390 . S
C986 H977 0.930 . S
C986 C984 1.384 . S
C986 C987 1.372 . S
C987 C986 1.372 . S
C987 C988 1.400 . S
C987 C992 1.490 . S
C988 H978 0.930 . S
C988 C987 1.400 . S
C988 C991 1.386 . S
H989 C1005 0.930 . S
H990 C1006 0.931 . S
C991 H979 0.929 . S
C991 C985 1.390 . S
C991 C988 1.386 . S
C992 C987 1.490 . S
C992 C994 1.395 . S
C992 C995 1.403 . S
H993 C999 0.930 . S
C994 H980 0.930 . S
C994 C992 1.395 . S
C994 C997 1.403 . S
C995 C992 1.403 . S
C995 C996 1.524 . S
C995 C999 1.400 . S
C996 H981 0.960 . S
C996 H982 0.960 . S
C996 H983 0.960 . S
C996 C995 1.524 . S
C997 C994 1.403 . S
C997 C998 1.392 . S
C997 C1001 1.495 . S
C998 C997 1.392 . S
C998 C999 1.385 . S
C998 C1000 1.478 . S
C999 H993 0.930 . S
C999 C995 1.400 . S
C999 C998 1.385 . S
C1000 C998 1.478 . S
C1000 C1002 1.381 . S
C1000 C1006 1.383 . S
C1001 C997 1.495 . S
C1001 H1007 0.959 . S
C1001 H1008 0.961 . S
C1001 H1009 0.960 . S
C1002 C1000 1.381 . S
C1002 C1003 1.394 . S
C1002 H1010 0.930 . S
C1003 C1002 1.394 . S
C1003 C1004 1.383 . S
C1003 H1011 0.929 . S
C1004 C1003 1.383 . S
C1004 C1005 1.377 . S
C1005 H989 0.930 . S
C1005 C1004 1.377 . S
C1005 C1006 1.379 . S
C1006 H990 0.931 . S
C1006 C1000 1.383 . S
C1006 C1005 1.379 . S
H1007 C1001 0.959 . S
H1008 C1001 0.961 . S
H1009 C1001 0.960 . S
H1010 C1002 0.930 . S
H1011 C1003 0.929 . S
H1012 C1020 0.929 . S
H1013 C1022 0.930 . S
H1014 C1024 0.930 . S
H1015 C1027 0.929 . S
H1016 C1030 0.930 . S
H1017 C1032 0.960 . S
H1018 C1032 0.960 . S
H1019 C1032 0.960 . S
C1020 H1012 0.929 . S
C1020 C1021 1.377 . S
C1020 C1022 1.384 . S
C1021 C1020 1.377 . S
C1021 C1027 1.390 . S
C1022 H1013 0.930 . S
C1022 C1020 1.384 . S
C1022 C1023 1.372 . S
C1023 C1022 1.372 . S
C1023 C1024 1.400 . S
C1023 C1028 1.490 . S
C1024 H1014 0.930 . S
C1024 C1023 1.400 . S
C1024 C1027 1.386 . S
H1025 C1041 0.930 . S
H1026 C1042 0.931 . S
C1027 H1015 0.929 . S
C1027 C1021 1.390 . S
C1027 C1024 1.386 . S
C1028 C1023 1.490 . S
C1028 C1030 1.395 . S
C1028 C1031 1.403 . S
H1029 C1035 0.930 . S
C1030 H1016 0.930 . S
C1030 C1028 1.395 . S
C1030 C1033 1.403 . S
C1031 C1028 1.403 . S
C1031 C1032 1.524 . S
C1031 C1035 1.400 . S
C1032 H1017 0.960 . S
C1032 H1018 0.960 . S
C1032 H1019 0.960 . S
C1032 C1031 1.524 . S
C1033 C1030 1.403 . S
C1033 C1034 1.392 . S
C1033 C1037 1.495 . S
C1034 C1033 1.392 . S
C1034 C1035 1.385 . S
C1034 C1036 1.478 . S
C1035 H1029 0.930 . S
C1035 C1031 1.400 . S
C1035 C1034 1.385 . S
C1036 C1034 1.478 . S
C1036 C1038 1.381 . S
C1036 C1042 1.383 . S
C1037 C1033 1.495 . S
C1037 H1043 0.959 . S
C1037 H1044 0.961 . S
C1037 H1045 0.960 . S
C1038 C1036 1.381 . S
C1038 C1039 1.394 . S
C1038 H1046 0.930 . S
C1039 C1038 1.394 . S
C1039 C1040 1.383 . S
C1039 H1047 0.929 . S
C1040 C1039 1.383 . S
C1040 C1041 1.377 . S
C1041 H1025 0.930 . S
C1041 C1040 1.377 . S
C1041 C1042 1.379 . S
C1042 H1026 0.931 . S
C1042 C1036 1.383 . S
C1042 C1041 1.379 . S
H1043 C1037 0.959 . S
H1044 C1037 0.961 . S
H1045 C1037 0.960 . S
H1046 C1038 0.930 . S
H1047 C1039 0.929 . S
H1048 C1056 0.929 . S
H1049 C1058 0.930 . S
H1050 C1060 0.930 . S
H1051 C1063 0.929 . S
H1052 C1066 0.930 . S
H1053 C1068 0.960 . S
H1054 C1068 0.960 . S
H1055 C1068 0.960 . S
C1056 H1048 0.929 . S
C1056 C1057 1.377 . S
C1056 C1058 1.384 . S
C1057 C1056 1.377 . S
C1057 C1063 1.390 . S
C1058 H1049 0.930 . S
C1058 C1056 1.384 . S
C1058 C1059 1.372 . S
C1059 C1058 1.372 . S
C1059 C1060 1.400 . S
C1059 C1064 1.490 . S
C1060 H1050 0.930 . S
C1060 C1059 1.400 . S
C1060 C1063 1.386 . S
H1061 C1077 0.930 . S
H1062 C1078 0.931 . S
C1063 H1051 0.929 . S
C1063 C1057 1.390 . S
C1063 C1060 1.386 . S
C1064 C1059 1.490 . S
C1064 C1066 1.395 . S
C1064 C1067 1.403 . S
H1065 C1071 0.930 . S
C1066 H1052 0.930 . S
C1066 C1064 1.395 . S
C1066 C1069 1.403 . S
C1067 C1064 1.403 . S
C1067 C1068 1.524 . S
C1067 C1071 1.400 . S
C1068 H1053 0.960 . S
C1068 H1054 0.960 . S
C1068 H1055 0.960 . S
C1068 C1067 1.524 . S
C1069 C1066 1.403 . S
C1069 C1070 1.392 . S
C1069 C1073 1.495 . S
C1070 C1069 1.392 . S
C1070 C1071 1.385 . S
C1070 C1072 1.478 . S
C1071 H1065 0.930 . S
C1071 C1067 1.400 . S
C1071 C1070 1.385 . S
C1072 C1070 1.478 . S
C1072 C1074 1.381 . S
C1072 C1078 1.383 . S
C1073 C1069 1.495 . S
C1073 H1079 0.959 . S
C1073 H1080 0.961 . S
C1073 H1081 0.960 . S
C1074 C1072 1.381 . S
C1074 C1075 1.394 . S
C1074 H1082 0.930 . S
C1075 C1074 1.394 . S
C1075 C1076 1.383 . S
C1075 H1083 0.929 . S
C1076 C1075 1.383 . S
C1076 C1077 1.377 . S
C1077 H1061 0.930 . S
C1077 C1076 1.377 . S
C1077 C1078 1.379 . S
C1078 H1062 0.931 . S
C1078 C1072 1.383 . S
C1078 C1077 1.379 . S
H1079 C1073 0.959 . S
H1080 C1073 0.961 . S
H1081 C1073 0.960 . S
H1082 C1074 0.930 . S
H1083 C1075 0.929 . S
H1084 C1092 0.929 . S
H1085 C1094 0.930 . S
H1086 C1096 0.930 . S
H1087 C1099 0.929 . S
H1088 C1102 0.930 . S
H1089 C1104 0.960 . S
H1090 C1104 0.960 . S
H1091 C1104 0.960 . S
C1092 H1084 0.929 . S
C1092 C1093 1.377 . S
C1092 C1094 1.384 . S
C1093 C1092 1.377 . S
C1093 C1099 1.390 . S
C1094 H1085 0.930 . S
C1094 C1092 1.384 . S
C1094 C1095 1.372 . S
C1095 C1094 1.372 . S
C1095 C1096 1.400 . S
C1095 C1100 1.490 . S
C1096 H1086 0.930 . S
C1096 C1095 1.400 . S
C1096 C1099 1.386 . S
H1097 C1113 0.930 . S
H1098 C1114 0.931 . S
C1099 H1087 0.929 . S
C1099 C1093 1.390 . S
C1099 C1096 1.386 . S
C1100 C1095 1.490 . S
C1100 C1102 1.395 . S
C1100 C1103 1.403 . S
H1101 C1107 0.930 . S
C1102 H1088 0.930 . S
C1102 C1100 1.395 . S
C1102 C1105 1.403 . S
C1103 C1100 1.403 . S
C1103 C1104 1.524 . S
C1103 C1107 1.400 . S
C1104 H1089 0.960 . S
C1104 H1090 0.960 . S
C1104 H1091 0.960 . S
C1104 C1103 1.524 . S
C1105 C1102 1.403 . S
C1105 C1106 1.392 . S
C1105 C1109 1.495 . S
C1106 C1105 1.392 . S
C1106 C1107 1.385 . S
C1106 C1108 1.478 . S
C1107 H1101 0.930 . S
C1107 C1103 1.400 . S
C1107 C1106 1.385 . S
C1108 C1106 1.478 . S
C1108 C1110 1.381 . S
C1108 C1114 1.383 . S
C1109 C1105 1.495 . S
C1109 H1115 0.959 . S
C1109 H1116 0.961 . S
C1109 H1117 0.960 . S
C1110 C1108 1.381 . S
C1110 C1111 1.394 . S
C1110 H1118 0.930 . S
C1111 C1110 1.394 . S
C1111 C1112 1.383 . S
C1111 H1119 0.929 . S
C1112 C1111 1.383 . S
C1112 C1113 1.377 . S
C1113 H1097 0.930 . S
C1113 C1112 1.377 . S
C1113 C1114 1.379 . S
C1114 H1098 0.931 . S
C1114 C1108 1.383 . S
C1114 C1113 1.379 . S
H1115 C1109 0.959 . S
H1116 C1109 0.961 . S
H1117 C1109 0.960 . S
H1118 C1110 0.930 . S
H1119 C1111 0.929 . S
H1120 C1128 0.929 . S
H1121 C1130 0.930 . S
H1122 C1132 0.930 . S
H1123 C1135 0.929 . S
H1124 C1138 0.930 . S
H1125 C1140 0.960 . S
H1126 C1140 0.960 1_545 S
H1127 C1140 0.960 . S
C1128 H1120 0.929 . S
C1128 C1129 1.377 . S
C1128 C1130 1.384 . S
C1129 C1128 1.377 . S
C1129 C1135 1.390 . S
C1130 H1121 0.930 . S
C1130 C1128 1.384 . S
C1130 C1131 1.372 1_545 S
C1131 C1130 1.372 1_565 S
C1131 C1132 1.400 . S
C1131 C1136 1.490 . S
C1132 H1122 0.930 . S
C1132 C1131 1.400 . S
C1132 C1135 1.386 1_565 S
H1133 C1149 0.930 . S
H1134 C1150 0.931 . S
C1135 H1123 0.929 . S
C1135 C1129 1.390 . S
C1135 C1132 1.386 1_545 S
C1136 C1131 1.490 . S
C1136 C1138 1.395 . S
C1136 C1139 1.403 . S
H1137 C1143 0.930 . S
C1138 H1124 0.930 . S
C1138 C1136 1.395 . S
C1138 C1141 1.403 . S
C1139 C1136 1.403 . S
C1139 C1140 1.524 . S
C1139 C1143 1.400 . S
C1140 H1125 0.960 . S
C1140 H1126 0.960 1_565 S
C1140 H1127 0.960 . S
C1140 C1139 1.524 . S
C1141 C1138 1.403 . S
C1141 C1142 1.392 . S
C1141 C1145 1.495 . S
C1142 C1141 1.392 . S
C1142 C1143 1.385 . S
C1142 C1144 1.478 . S
C1143 H1137 0.930 . S
C1143 C1139 1.400 . S
C1143 C1142 1.385 . S
C1144 C1142 1.478 . S
C1144 C1146 1.381 . S
C1144 C1150 1.383 . S
C1145 C1141 1.495 . S
C1145 H1151 0.959 . S
C1145 H1152 0.961 . S
C1145 H1153 0.960 . S
C1146 C1144 1.381 . S
C1146 C1147 1.394 . S
C1146 H1154 0.930 . S
C1147 C1146 1.394 . S
C1147 C1148 1.383 . S
C1147 H1155 0.929 . S
C1148 C1147 1.383 . S
C1148 C1149 1.377 . S
C1149 H1133 0.930 . S
C1149 C1148 1.377 . S
C1149 C1150 1.379 . S
C1150 H1134 0.931 . S
C1150 C1144 1.383 . S
C1150 C1149 1.379 . S
H1151 C1145 0.959 . S
H1152 C1145 0.961 . S
H1153 C1145 0.960 . S
H1154 C1146 0.930 . S
H1155 C1147 0.929 . S
H1156 C1164 0.929 1_655 S
H1157 C1166 0.930 . S
H1158 C1168 0.930 . S
H1159 C1171 0.929 . S
H1160 C1174 0.930 . S
H1161 C1176 0.960 . S
H1162 C1176 0.960 . S
H1163 C1176 0.960 . S
C1164 H1156 0.929 1_455 S
C1164 C1165 1.377 . S
C1164 C1166 1.384 1_455 S
C1165 C1164 1.377 . S
C1165 C1171 1.390 . S
C1166 H1157 0.930 . S
C1166 C1164 1.384 1_655 S
C1166 C1167 1.372 . S
C1167 C1166 1.372 . S
C1167 C1168 1.400 1_655 S
C1167 C1172 1.490 . S
C1168 H1158 0.930 . S
C1168 C1167 1.400 1_455 S
C1168 C1171 1.386 . S
H1169 C1185 0.930 . S
H1170 C1186 0.931 . S
C1171 H1159 0.929 . S
C1171 C1165 1.390 . S
C1171 C1168 1.386 . S
C1172 C1167 1.490 . S
C1172 C1174 1.395 . S
C1172 C1175 1.403 . S
H1173 C1179 0.930 . S
C1174 H1160 0.930 . S
C1174 C1172 1.395 . S
C1174 C1177 1.403 . S
C1175 C1172 1.403 . S
C1175 C1176 1.524 . S
C1175 C1179 1.400 . S
C1176 H1161 0.960 . S
C1176 H1162 0.960 . S
C1176 H1163 0.960 . S
C1176 C1175 1.524 . S
C1177 C1174 1.403 . S
C1177 C1178 1.392 . S
C1177 C1181 1.495 . S
C1178 C1177 1.392 . S
C1178 C1179 1.385 . S
C1178 C1180 1.478 . S
C1179 H1173 0.930 . S
C1179 C1175 1.400 . S
C1179 C1178 1.385 . S
C1180 C1178 1.478 . S
C1180 C1182 1.381 . S
C1180 C1186 1.383 . S
C1181 C1177 1.495 . S
C1181 H1187 0.959 . S
C1181 H1188 0.961 . S
C1181 H1189 0.960 . S
C1182 C1180 1.381 . S
C1182 C1183 1.394 . S
C1182 H1190 0.930 . S
C1183 C1182 1.394 . S
C1183 C1184 1.383 . S
C1183 H1191 0.929 . S
C1184 C1183 1.383 . S
C1184 C1185 1.377 . S
C1185 H1169 0.930 . S
C1185 C1184 1.377 . S
C1185 C1186 1.379 . S
C1186 H1170 0.931 . S
C1186 C1180 1.383 . S
C1186 C1185 1.379 . S
H1187 C1181 0.959 . S
H1188 C1181 0.961 . S
H1189 C1181 0.960 . S
H1190 C1182 0.930 . S
H1191 C1183 0.929 . S
H1192 C1200 0.929 . S
H1193 C1202 0.930 . S
H1194 C1204 0.930 . S
H1195 C1207 0.929 . S
H1196 C1210 0.930 . S
H1197 C1212 0.960 . S
H1198 C1212 0.960 . S
H1199 C1212 0.960 . S
C1200 H1192 0.929 . S
C1200 C1201 1.377 . S
C1200 C1202 1.384 . S
C1201 C1200 1.377 . S
C1201 C1207 1.390 . S
C1202 H1193 0.930 . S
C1202 C1200 1.384 . S
C1202 C1203 1.372 . S
C1203 C1202 1.372 . S
C1203 C1204 1.400 . S
C1203 C1208 1.490 . S
C1204 H1194 0.930 . S
C1204 C1203 1.400 . S
C1204 C1207 1.386 . S
H1205 C1221 0.930 . S
H1206 C1222 0.931 . S
C1207 H1195 0.929 . S
C1207 C1201 1.390 . S
C1207 C1204 1.386 . S
C1208 C1203 1.490 . S
C1208 C1210 1.395 . S
C1208 C1211 1.403 . S
H1209 C1215 0.930 . S
C1210 H1196 0.930 . S
C1210 C1208 1.395 . S
C1210 C1213 1.403 . S
C1211 C1208 1.403 . S
C1211 C1212 1.524 . S
C1211 C1215 1.400 . S
C1212 H1197 0.960 . S
C1212 H1198 0.960 . S
C1212 H1199 0.960 . S
C1212 C1211 1.524 . S
C1213 C1210 1.403 . S
C1213 C1214 1.392 . S
C1213 C1217 1.495 . S
C1214 C1213 1.392 . S
C1214 C1215 1.385 . S
C1214 C1216 1.478 . S
C1215 H1209 0.930 . S
C1215 C1211 1.400 . S
C1215 C1214 1.385 . S
C1216 C1214 1.478 . S
C1216 C1218 1.381 . S
C1216 C1222 1.383 1_545 S
C1217 C1213 1.495 . S
C1217 H1223 0.959 . S
C1217 H1224 0.961 . S
C1217 H1225 0.960 . S
C1218 C1216 1.381 . S
C1218 C1219 1.421 . S
C1218 H1226 0.930 . S
C1219 C1218 1.421 . S
C1219 C1220 1.347 1_545 S
C1219 H1227 0.940 . S
C1220 C1219 1.347 1_565 S
C1220 C1221 1.377 . S
C1221 H1205 0.930 . S
C1221 C1220 1.377 . S
C1221 C1222 1.379 . S
C1222 H1206 0.931 . S
C1222 C1216 1.383 1_565 S
C1222 C1221 1.379 . S
H1223 C1217 0.959 . S
H1224 C1217 0.961 . S
H1225 C1217 0.960 . S
H1226 C1218 0.930 . S
H1227 C1219 0.940 . S
H1228 C1236 0.929 . S
H1229 C1238 0.930 . S
H1230 C1240 0.930 . S
H1231 C1243 0.929 . S
H1232 C1246 0.930 . S
H1233 C1248 0.960 . S
H1234 C1248 0.960 . S
H1235 C1248 0.960 . S
C1236 H1228 0.929 . S
C1236 C1237 1.377 . S
C1236 C1238 1.384 . S
C1237 C1236 1.377 . S
C1237 C1243 1.390 . S
C1238 H1229 0.930 . S
C1238 C1236 1.384 . S
C1238 C1239 1.372 . S
C1239 C1238 1.372 . S
C1239 C1240 1.400 . S
C1239 C1244 1.490 . S
C1240 H1230 0.930 . S
C1240 C1239 1.400 . S
C1240 C1243 1.386 . S
H1241 C1257 0.930 . S
H1242 C1258 0.931 . S
C1243 H1231 0.929 . S
C1243 C1237 1.390 . S
C1243 C1240 1.386 . S
C1244 C1239 1.490 . S
C1244 C1246 1.395 . S
C1244 C1247 1.403 . S
H1245 C1251 0.930 . S
C1246 H1232 0.930 . S
C1246 C1244 1.395 . S
C1246 C1249 1.403 . S
C1247 C1244 1.403 . S
C1247 C1248 1.524 . S
C1247 C1251 1.400 . S
C1248 H1233 0.960 . S
C1248 H1234 0.960 . S
C1248 H1235 0.960 . S
C1248 C1247 1.524 . S
C1249 C1246 1.403 . S
C1249 C1250 1.392 . S
C1249 C1253 1.495 . S
C1250 C1249 1.392 . S
C1250 C1251 1.385 . S
C1250 C1252 1.478 . S
C1251 H1245 0.930 . S
C1251 C1247 1.400 . S
C1251 C1250 1.385 . S
C1252 C1250 1.478 . S
C1252 C1254 1.381 . S
C1252 C1258 1.383 1_455 S
C1253 C1249 1.495 . S
C1253 H1259 0.959 . S
C1253 H1260 0.961 . S
C1253 H1261 0.960 . S
C1254 C1252 1.381 . S
C1254 C1255 1.394 1_455 S
C1254 H1262 0.930 . S
C1255 C1254 1.394 1_655 S
C1255 C1256 1.383 . S
C1255 H1263 0.929 1_655 S
C1256 C1255 1.383 . S
C1256 C1257 1.377 . S
C1257 H1241 0.930 . S
C1257 C1256 1.377 . S
C1257 C1258 1.379 . S
C1258 H1242 0.931 . S
C1258 C1252 1.383 1_655 S
C1258 C1257 1.379 . S
H1259 C1253 0.959 . S
H1260 C1253 0.961 . S
H1261 C1253 0.960 . S
H1262 C1254 0.930 . S
H1263 C1255 0.929 1_455 S
H1264 C1272 0.929 1_556 S
H1265 C1274 0.930 . S
H1266 C1276 0.930 . S
H1267 C1279 0.929 . S
H1268 C1282 0.930 . S
H1269 C1284 0.960 . S
H1270 C1284 0.960 . S
H1271 C1284 0.960 . S
C1272 H1264 0.929 1_554 S
C1272 C1273 1.377 . S
C1272 C1274 1.384 . S
C1273 C1272 1.377 . S
C1273 C1279 1.390 . S
C1274 H1265 0.930 . S
C1274 C1272 1.384 . S
C1274 C1275 1.372 . S
C1275 C1274 1.372 . S
C1275 C1276 1.400 . S
C1275 C1280 1.490 . S
C1276 H1266 0.930 . S
C1276 C1275 1.400 . S
C1276 C1279 1.386 . S
H1277 C1293 0.930 . S
H1278 C1294 0.931 . S
C1279 H1267 0.929 . S
C1279 C1273 1.390 . S
C1279 C1276 1.386 . S
C1280 C1275 1.490 . S
C1280 C1282 1.395 . S
C1280 C1283 1.403 . S
H1281 C1287 0.930 . S
C1282 H1268 0.930 . S
C1282 C1280 1.395 . S
C1282 C1285 1.403 . S
C1283 C1280 1.403 . S
C1283 C1284 1.524 . S
C1283 C1287 1.400 . S
C1284 H1269 0.960 . S
C1284 H1270 0.960 . S
C1284 H1271 0.960 . S
C1284 C1283 1.524 . S
C1285 C1282 1.403 . S
C1285 C1286 1.392 . S
C1285 C1289 1.495 . S
C1286 C1285 1.392 . S
C1286 C1287 1.385 . S
C1286 C1288 1.478 . S
C1287 H1281 0.930 . S
C1287 C1283 1.400 . S
C1287 C1286 1.385 . S
C1288 C1286 1.478 . S
C1288 C1290 1.381 . S
C1288 C1294 1.383 . S
C1289 C1285 1.495 . S
C1289 H1295 0.959 . S
C1289 H1296 0.961 . S
C1289 H1297 0.960 . S
C1290 C1288 1.381 . S
C1290 C1291 1.394 . S
C1290 H1298 0.930 . S
C1291 C1290 1.394 . S
C1291 C1292 1.383 . S
C1291 H1299 0.929 . S
C1292 C1291 1.383 . S
C1292 C1293 1.377 . S
C1293 H1277 0.930 . S
C1293 C1292 1.377 . S
C1293 C1294 1.379 . S
C1294 H1278 0.931 . S
C1294 C1288 1.383 . S
C1294 C1293 1.379 . S
H1295 C1289 0.959 . S
H1296 C1289 0.961 . S
H1297 C1289 0.960 . S
H1298 C1290 0.930 . S
H1299 C1291 0.929 . S
H1300 C1308 0.911 1_554 S
H1301 C1310 0.930 . S
H1302 C1312 0.930 . S
H1303 C1315 0.929 . S
H1304 C1318 0.930 . S
H1305 C1320 0.960 . S
H1306 C1320 0.960 . S
H1307 C1320 0.960 . S
C1308 H1300 0.911 1_556 S
C1308 C1309 1.377 . S
C1308 C1310 1.384 . S
C1309 C1308 1.377 . S
C1309 C1315 1.390 . S
C1310 H1301 0.930 . S
C1310 C1308 1.384 . S
C1310 C1311 1.372 . S
C1311 C1310 1.372 . S
C1311 C1312 1.400 . S
C1311 C1316 1.490 . S
C1312 H1302 0.930 . S
C1312 C1311 1.400 . S
C1312 C1315 1.386 . S
H1313 C1329 0.930 . S
H1314 C1330 0.931 . S
C1315 H1303 0.929 . S
C1315 C1309 1.390 . S
C1315 C1312 1.386 . S
C1316 C1311 1.490 . S
C1316 C1318 1.395 . S
C1316 C1319 1.403 . S
H1317 C1323 0.930 . S
C1318 H1304 0.930 . S
C1318 C1316 1.395 . S
C1318 C1321 1.403 . S
C1319 C1316 1.403 . S
C1319 C1320 1.524 . S
C1319 C1323 1.400 . S
C1320 H1305 0.960 . S
C1320 H1306 0.960 . S
C1320 H1307 0.960 . S
C1320 C1319 1.524 . S
C1321 C1318 1.403 . S
C1321 C1322 1.392 . S
C1321 C1325 1.495 . S
C1322 C1321 1.392 . S
C1322 C1323 1.385 . S
C1322 C1324 1.478 . S
C1323 H1317 0.930 . S
C1323 C1319 1.400 . S
C1323 C1322 1.385 . S
C1324 C1322 1.478 . S
C1324 C1326 1.381 . S
C1324 C1330 1.383 . S
C1325 C1321 1.495 . S
C1325 H1331 0.959 . S
C1325 H1332 0.961 . S
C1325 H1333 0.960 . S
C1326 C1324 1.381 . S
C1326 C1327 1.394 . S
C1326 H1334 0.930 . S
C1327 C1326 1.394 . S
C1327 C1328 1.383 . S
C1327 H1335 0.929 . S
C1328 C1327 1.383 . S
C1328 C1329 1.377 . S
C1329 H1313 0.930 . S
C1329 C1328 1.377 . S
C1329 C1330 1.379 . S
C1330 H1314 0.931 . S
C1330 C1324 1.383 . S
C1330 C1329 1.379 . S
H1331 C1325 0.959 . S
H1332 C1325 0.961 . S
H1333 C1325 0.960 . S
H1334 C1326 0.930 . S
H1335 C1327 0.929 . S
H1336 C1344 0.929 . S
H1337 C1346 0.930 . S
H1338 C1348 0.930 . S
H1339 C1351 0.929 . S
H1340 C1354 0.930 . S
H1341 C1356 0.960 . S
H1342 C1356 0.960 . S
H1343 C1356 0.960 . S
C1344 H1336 0.929 . S
C1344 C1345 1.377 . S
C1344 C1346 1.384 . S
C1345 C1344 1.377 . S
C1345 C1351 1.390 . S
C1346 H1337 0.930 . S
C1346 C1344 1.384 . S
C1346 C1347 1.372 . S
C1347 C1346 1.372 . S
C1347 C1348 1.400 . S
C1347 C1352 1.490 . S
C1348 H1338 0.930 . S
C1348 C1347 1.400 . S
C1348 C1351 1.386 . S
H1349 C1365 0.930 1_556 S
H1350 C1366 0.931 . S
C1351 H1339 0.929 . S
C1351 C1345 1.390 . S
C1351 C1348 1.386 . S
C1352 C1347 1.490 . S
C1352 C1354 1.395 . S
C1352 C1355 1.403 . S
H1353 C1359 0.930 . S
C1354 H1340 0.930 . S
C1354 C1352 1.395 . S
C1354 C1357 1.403 . S
C1355 C1352 1.403 . S
C1355 C1356 1.524 . S
C1355 C1359 1.400 . S
C1356 H1341 0.960 . S
C1356 H1342 0.960 . S
C1356 H1343 0.960 . S
C1356 C1355 1.524 . S
C1357 C1354 1.403 . S
C1357 C1358 1.392 . S
C1357 C1361 1.495 . S
C1358 C1357 1.392 . S
C1358 C1359 1.385 . S
C1358 C1360 1.478 . S
C1359 H1353 0.930 . S
C1359 C1355 1.400 . S
C1359 C1358 1.385 . S
C1360 C1358 1.478 . S
C1360 C1362 1.381 . S
C1360 C1366 1.383 . S
C1361 C1357 1.495 . S
C1361 H1367 0.959 . S
C1361 H1368 0.961 . S
C1361 H1369 0.960 . S
C1362 C1360 1.381 . S
C1362 C1363 1.394 . S
C1362 H1370 0.930 . S
C1363 C1362 1.394 . S
C1363 C1364 1.383 . S
C1363 H1371 0.929 . S
C1364 C1363 1.383 . S
C1364 C1365 1.377 . S
C1365 H1349 0.930 1_554 S
C1365 C1364 1.377 . S
C1365 C1366 1.379 . S
C1366 H1350 0.931 . S
C1366 C1360 1.383 . S
C1366 C1365 1.379 . S
H1367 C1361 0.959 . S
H1368 C1361 0.961 . S
H1369 C1361 0.960 . S
H1370 C1362 0.930 . S
H1371 C1363 0.929 . S
H1372 C1380 0.929 . S
H1373 C1382 0.930 . S
H1374 C1384 0.930 . S
H1375 C1387 0.929 . S
H1376 C1390 0.930 . S
H1377 C1392 0.960 . S
H1378 C1392 0.960 . S
H1379 C1392 0.960 . S
C1380 H1372 0.929 . S
C1380 C1381 1.377 . S
C1380 C1382 1.384 . S
C1381 C1380 1.377 . S
C1381 C1387 1.390 1_556 S
C1382 H1373 0.930 . S
C1382 C1380 1.384 . S
C1382 C1383 1.372 . S
C1383 C1382 1.372 . S
C1383 C1384 1.400 . S
C1383 C1388 1.490 . S
C1384 H1374 0.930 . S
C1384 C1383 1.400 . S
C1384 C1387 1.386 1_556 S
H1385 C1401 0.930 . S
H1386 C1402 0.931 . S
C1387 H1375 0.929 . S
C1387 C1381 1.390 1_554 S
C1387 C1384 1.386 1_554 S
C1388 C1383 1.490 . S
C1388 C1390 1.395 . S
C1388 C1391 1.403 . S
H1389 C1395 0.930 . S
C1390 H1376 0.930 . S
C1390 C1388 1.395 . S
C1390 C1393 1.403 . S
C1391 C1388 1.403 . S
C1391 C1392 1.524 . S
C1391 C1395 1.400 . S
C1392 H1377 0.960 . S
C1392 H1378 0.960 . S
C1392 H1379 0.960 . S
C1392 C1391 1.524 . S
C1393 C1390 1.403 . S
C1393 C1394 1.392 . S
C1393 C1397 1.495 . S
C1394 C1393 1.392 . S
C1394 C1395 1.385 . S
C1394 C1396 1.478 . S
C1395 H1389 0.930 . S
C1395 C1391 1.400 . S
C1395 C1394 1.385 . S
C1396 C1394 1.478 . S
C1396 C1398 1.381 . S
C1396 C1402 1.383 . S
C1397 C1393 1.495 . S
C1397 H1403 0.959 . S
C1397 H1404 0.961 . S
C1397 H1405 0.960 . S
C1398 C1396 1.381 . S
C1398 C1399 1.394 . S
C1398 H1406 0.930 . S
C1399 C1398 1.394 . S
C1399 C1400 1.383 . S
C1399 H1407 0.929 . S
C1400 C1399 1.383 . S
C1400 C1401 1.377 . S
C1401 H1385 0.930 . S
C1401 C1400 1.377 . S
C1401 C1402 1.379 . S
C1402 H1386 0.931 . S
C1402 C1396 1.383 . S
C1402 C1401 1.379 . S
H1403 C1397 0.959 . S
H1404 C1397 0.961 . S
H1405 C1397 0.960 . S
H1406 C1398 0.930 . S
H1407 C1399 0.929 . S
H1408 C1416 0.929 . S
H1409 C1418 0.930 . S
H1410 C1420 0.930 . S
H1411 C1423 0.929 . S
H1412 C1426 0.930 . S
H1413 C1428 0.960 . S
H1414 C1428 0.960 . S
H1415 C1428 0.960 . S
C1416 H1408 0.929 . S
C1416 C1417 1.377 . S
C1416 C1418 1.384 . S
C1417 C1416 1.377 . S
C1417 C1423 1.390 . S
C1418 H1409 0.930 . S
C1418 C1416 1.384 . S
C1418 C1419 1.372 . S
C1419 C1418 1.372 . S
C1419 C1420 1.400 . S
C1419 C1424 1.490 . S
C1420 H1410 0.930 . S
C1420 C1419 1.400 . S
C1420 C1423 1.386 . S
H1421 C1437 0.930 . S
H1422 C1438 0.931 . S
C1423 H1411 0.929 . S
C1423 C1417 1.390 . S
C1423 C1420 1.386 . S
C1424 C1419 1.490 . S
C1424 C1426 1.395 . S
C1424 C1427 1.403 . S
H1425 C1431 0.930 . S
C1426 H1412 0.930 . S
C1426 C1424 1.395 . S
C1426 C1429 1.403 . S
C1427 C1424 1.403 . S
C1427 C1428 1.524 . S
C1427 C1431 1.400 . S
C1428 H1413 0.960 . S
C1428 H1414 0.960 . S
C1428 H1415 0.960 . S
C1428 C1427 1.524 . S
C1429 C1426 1.403 . S
C1429 C1430 1.392 . S
C1429 C1433 1.495 . S
C1430 C1429 1.392 . S
C1430 C1431 1.385 . S
C1430 C1432 1.478 . S
C1431 H1425 0.930 . S
C1431 C1427 1.400 . S
C1431 C1430 1.385 . S
C1432 C1430 1.478 . S
C1432 C1434 1.381 . S
C1432 C1438 1.383 . S
C1433 C1429 1.495 . S
C1433 H1439 0.959 . S
C1433 H1440 0.961 . S
C1433 H1441 0.960 . S
C1434 C1432 1.381 . S
C1434 C1435 1.394 . S
C1434 H1442 0.930 . S
C1435 C1434 1.394 . S
C1435 C1436 1.383 . S
C1435 H1443 0.929 . S
C1436 C1435 1.383 . S
C1436 C1437 1.377 . S
C1437 H1421 0.930 . S
C1437 C1436 1.377 . S
C1437 C1438 1.379 . S
C1438 H1422 0.931 . S
C1438 C1432 1.383 . S
C1438 C1437 1.379 . S
H1439 C1433 0.959 . S
H1440 C1433 0.961 . S
H1441 C1433 0.960 . S
H1442 C1434 0.930 . S
H1443 C1435 0.929 . S
H1444 C1452 0.929 . S
H1445 C1454 0.930 . S
H1446 C1456 0.930 . S
H1447 C1459 0.929 . S
H1448 C1462 0.930 . S
H1449 C1464 0.960 . S
H1450 C1464 0.960 . S
H1451 C1464 0.960 . S
C1452 H1444 0.929 . S
C1452 C1453 1.377 . S
C1452 C1454 1.384 . S
C1453 C1452 1.377 . S
C1453 C1459 1.390 . S
C1454 H1445 0.930 . S
C1454 C1452 1.384 . S
C1454 C1455 1.372 . S
C1455 C1454 1.372 . S
C1455 C1456 1.400 . S
C1455 C1460 1.490 . S
C1456 H1446 0.930 . S
C1456 C1455 1.400 . S
C1456 C1459 1.386 . S
H1457 C1473 0.930 . S
H1458 C1474 0.931 . S
C1459 H1447 0.929 . S
C1459 C1453 1.390 . S
C1459 C1456 1.386 . S
C1460 C1455 1.490 . S
C1460 C1462 1.395 . S
C1460 C1463 1.403 . S
H1461 C1467 0.930 . S
C1462 H1448 0.930 . S
C1462 C1460 1.395 . S
C1462 C1465 1.403 . S
C1463 C1460 1.403 . S
C1463 C1464 1.524 . S
C1463 C1467 1.400 . S
C1464 H1449 0.960 . S
C1464 H1450 0.960 . S
C1464 H1451 0.960 . S
C1464 C1463 1.524 . S
C1465 C1462 1.403 . S
C1465 C1466 1.392 . S
C1465 C1469 1.495 . S
C1466 C1465 1.392 . S
C1466 C1467 1.385 . S
C1466 C1468 1.478 . S
C1467 H1461 0.930 . S
C1467 C1463 1.400 . S
C1467 C1466 1.385 . S
C1468 C1466 1.478 . S
C1468 C1470 1.381 . S
C1468 C1474 1.383 . S
C1469 C1465 1.495 . S
C1469 H1475 0.959 . S
C1469 H1476 0.961 . S
C1469 H1477 0.960 . S
C1470 C1468 1.381 . S
C1470 C1471 1.394 . S
C1470 H1478 0.930 . S
C1471 C1470 1.394 . S
C1471 C1472 1.383 . S
C1471 H1479 0.929 . S
C1472 C1471 1.383 . S
C1472 C1473 1.377 . S
C1473 H1457 0.930 . S
C1473 C1472 1.377 . S
C1473 C1474 1.379 . S
C1474 H1458 0.931 . S
C1474 C1468 1.383 . S
C1474 C1473 1.379 . S
H1475 C1469 0.959 . S
H1476 C1469 0.961 . S
H1477 C1469 0.960 . S
H1478 C1470 0.930 . S
H1479 C1471 0.929 . S
H1480 C1488 0.929 . S
H1481 C1490 0.930 . S
H1482 C1492 0.930 . S
H1483 C1495 0.929 . S
H1484 C1498 0.930 . S
H1485 C1500 0.960 . S
H1486 C1500 0.960 . S
H1487 C1500 0.960 . S
C1488 H1480 0.929 . S
C1488 C1489 1.377 . S
C1488 C1490 1.384 . S
C1489 C1488 1.377 . S
C1489 C1495 1.390 . S
C1490 H1481 0.930 . S
C1490 C1488 1.384 . S
C1490 C1491 1.372 . S
C1491 C1490 1.372 . S
C1491 C1492 1.400 . S
C1491 C1496 1.490 . S
C1492 H1482 0.930 . S
C1492 C1491 1.400 . S
C1492 C1495 1.386 . S
H1493 C1509 0.930 . S
H1494 C1510 0.931 . S
C1495 H1483 0.929 . S
C1495 C1489 1.390 . S
C1495 C1492 1.386 . S
C1496 C1491 1.490 . S
C1496 C1498 1.395 . S
C1496 C1499 1.403 . S
H1497 C1503 0.930 . S
C1498 H1484 0.930 . S
C1498 C1496 1.395 . S
C1498 C1501 1.403 . S
C1499 C1496 1.403 . S
C1499 C1500 1.524 . S
C1499 C1503 1.400 . S
C1500 H1485 0.960 . S
C1500 H1486 0.960 . S
C1500 H1487 0.960 . S
C1500 C1499 1.524 . S
C1501 C1498 1.403 . S
C1501 C1502 1.392 . S
C1501 C1505 1.495 . S
C1502 C1501 1.392 . S
C1502 C1503 1.385 . S
C1502 C1504 1.478 . S
C1503 H1497 0.930 . S
C1503 C1499 1.400 . S
C1503 C1502 1.385 . S
C1504 C1502 1.478 . S
C1504 C1506 1.381 . S
C1504 C1510 1.383 . S
C1505 C1501 1.495 . S
C1505 H1511 0.959 . S
C1505 H1512 0.961 . S
C1505 H1513 0.960 . S
C1506 C1504 1.381 . S
C1506 C1507 1.394 . S
C1506 H1514 0.930 . S
C1507 C1506 1.394 . S
C1507 C1508 1.383 . S
C1507 H1515 0.929 . S
C1508 C1507 1.383 . S
C1508 C1509 1.377 . S
C1509 H1493 0.930 . S
C1509 C1508 1.377 . S
C1509 C1510 1.379 . S
C1510 H1494 0.931 . S
C1510 C1504 1.383 . S
C1510 C1509 1.379 . S
H1511 C1505 0.959 . S
H1512 C1505 0.961 . S
H1513 C1505 0.960 . S
H1514 C1506 0.930 . S
H1515 C1507 0.929 . S
H1516 C1524 0.929 . S
H1517 C1526 0.930 . S
H1518 C1528 0.930 . S
H1519 C1531 0.929 . S
H1520 C1534 0.930 . S
H1521 C1536 0.960 . S
H1522 C1536 0.960 . S
H1523 C1536 0.960 . S
C1524 H1516 0.929 . S
C1524 C1525 1.377 . S
C1524 C1526 1.384 . S
C1525 C1524 1.377 . S
C1525 C1531 1.390 . S
C1526 H1517 0.930 . S
C1526 C1524 1.384 . S
C1526 C1527 1.372 . S
C1527 C1526 1.372 . S
C1527 C1528 1.400 . S
C1527 C1532 1.490 . S
C1528 H1518 0.930 . S
C1528 C1527 1.400 . S
C1528 C1531 1.386 . S
H1529 C1545 0.930 . S
H1530 C1546 0.931 . S
C1531 H1519 0.929 . S
C1531 C1525 1.390 . S
C1531 C1528 1.386 . S
C1532 C1527 1.490 . S
C1532 C1534 1.395 . S
C1532 C1535 1.403 . S
H1533 C1539 0.930 . S
C1534 H1520 0.930 . S
C1534 C1532 1.395 . S
C1534 C1537 1.403 . S
C1535 C1532 1.403 . S
C1535 C1536 1.524 . S
C1535 C1539 1.400 . S
C1536 H1521 0.960 . S
C1536 H1522 0.960 . S
C1536 H1523 0.960 . S
C1536 C1535 1.524 . S
C1537 C1534 1.403 . S
C1537 C1538 1.392 . S
C1537 C1541 1.495 . S
C1538 C1537 1.392 . S
C1538 C1539 1.385 . S
C1538 C1540 1.478 . S
C1539 H1533 0.930 . S
C1539 C1535 1.400 . S
C1539 C1538 1.385 . S
C1540 C1538 1.478 . S
C1540 C1542 1.381 . S
C1540 C1546 1.383 . S
C1541 C1537 1.495 . S
C1541 H1547 0.959 . S
C1541 H1548 0.961 . S
C1541 H1549 0.960 . S
C1542 C1540 1.381 . S
C1542 C1543 1.394 . S
C1542 H1550 0.930 . S
C1543 C1542 1.394 . S
C1543 C1544 1.383 . S
C1543 H1551 0.929 . S
C1544 C1543 1.383 . S
C1544 C1545 1.377 . S
C1545 H1529 0.930 . S
C1545 C1544 1.377 . S
C1545 C1546 1.379 . S
C1546 H1530 0.931 . S
C1546 C1540 1.383 . S
C1546 C1545 1.379 . S
H1547 C1541 0.959 . S
H1548 C1541 0.961 . S
H1549 C1541 0.960 . S
H1550 C1542 0.930 . S
H1551 C1543 0.929 . S
H1552 C1560 0.929 . S
H1553 C1562 0.930 . S
H1554 C1564 0.930 . S
H1555 C1567 0.936 . S
H1556 C1570 0.930 . S
H1557 C1572 0.960 . S
H1558 C1572 0.960 . S
H1559 C1572 0.960 . S
C1560 H1552 0.929 . S
C1560 C1561 1.377 . S
C1560 C1562 1.384 . S
C1561 C1560 1.377 . S
C1561 C1567 1.369 1_565 S
C1562 H1553 0.930 . S
C1562 C1560 1.384 . S
C1562 C1563 1.372 1_565 S
C1563 C1562 1.372 1_545 S
C1563 C1564 1.400 . S
C1563 C1568 1.490 . S
C1564 H1554 0.930 . S
C1564 C1563 1.400 . S
C1564 C1567 1.400 . S
H1565 C1581 0.930 . S
H1566 C1582 0.931 . S
C1567 H1555 0.936 . S
C1567 C1561 1.369 1_545 S
C1567 C1564 1.400 . S
C1568 C1563 1.490 . S
C1568 C1570 1.395 . S
C1568 C1571 1.403 . S
H1569 C1575 0.930 . S
C1570 H1556 0.930 . S
C1570 C1568 1.395 . S
C1570 C1573 1.403 . S
C1571 C1568 1.403 . S
C1571 C1572 1.524 . S
C1571 C1575 1.400 . S
C1572 H1557 0.960 . S
C1572 H1558 0.960 . S
C1572 H1559 0.960 . S
C1572 C1571 1.524 . S
C1573 C1570 1.403 . S
C1573 C1574 1.392 . S
C1573 C1577 1.495 . S
C1574 C1573 1.392 . S
C1574 C1575 1.385 . S
C1574 C1576 1.478 . S
C1575 H1569 0.930 . S
C1575 C1571 1.400 . S
C1575 C1574 1.385 . S
C1576 C1574 1.478 . S
C1576 C1578 1.381 . S
C1576 C1582 1.383 . S
C1577 C1573 1.495 . S
C1577 H1583 0.959 . S
C1577 H1584 0.961 . S
C1577 H1585 0.960 . S
C1578 C1576 1.381 . S
C1578 C1579 1.394 . S
C1578 H1586 0.930 . S
C1579 C1578 1.394 . S
C1579 C1580 1.383 . S
C1579 H1587 0.929 . S
C1580 C1579 1.383 . S
C1580 C1581 1.377 . S
C1581 H1565 0.930 . S
C1581 C1580 1.377 . S
C1581 C1582 1.379 . S
C1582 H1566 0.931 . S
C1582 C1576 1.383 . S
C1582 C1581 1.379 . S
H1583 C1577 0.959 . S
H1584 C1577 0.961 . S
H1585 C1577 0.960 . S
H1586 C1578 0.930 . S
H1587 C1579 0.929 . S
H1588 C1596 0.929 . S
H1589 C1598 0.930 . S
H1590 C1600 0.930 . S
H1591 C1603 0.929 . S
H1592 C1606 0.930 . S
H1593 C1608 0.960 . S
H1594 C1608 0.960 . S
H1595 C1608 0.960 . S
C1596 H1588 0.929 . S
C1596 C1597 1.377 . S
C1596 C1598 1.384 . S
C1597 C1596 1.377 . S
C1597 C1603 1.390 . S
C1598 H1589 0.930 . S
C1598 C1596 1.384 . S
C1598 C1599 1.372 . S
C1599 C1598 1.372 . S
C1599 C1600 1.400 . S
C1599 C1604 1.490 . S
C1600 H1590 0.930 . S
C1600 C1599 1.400 . S
C1600 C1603 1.386 . S
H1601 C1617 0.930 . S
H1602 C1618 0.931 . S
C1603 H1591 0.929 . S
C1603 C1597 1.390 . S
C1603 C1600 1.386 . S
C1604 C1599 1.490 . S
C1604 C1606 1.395 . S
C1604 C1607 1.403 . S
H1605 C1611 0.930 . S
C1606 H1592 0.930 . S
C1606 C1604 1.395 . S
C1606 C1609 1.403 . S
C1607 C1604 1.403 . S
C1607 C1608 1.524 . S
C1607 C1611 1.400 . S
C1608 H1593 0.960 . S
C1608 H1594 0.960 . S
C1608 H1595 0.960 . S
C1608 C1607 1.524 . S
C1609 C1606 1.403 . S
C1609 C1610 1.392 . S
C1609 C1613 1.495 . S
C1610 C1609 1.392 . S
C1610 C1611 1.385 . S
C1610 C1612 1.478 . S
C1611 H1605 0.930 . S
C1611 C1607 1.400 . S
C1611 C1610 1.385 . S
C1612 C1610 1.478 . S
C1612 C1614 1.381 . S
C1612 C1618 1.383 1_455 S
C1613 C1609 1.495 . S
C1613 H1619 0.959 . S
C1613 H1620 0.961 . S
C1613 H1621 0.960 . S
C1614 C1612 1.381 . S
C1614 C1615 1.394 1_455 S
C1614 H1622 0.930 . S
C1615 C1614 1.394 1_655 S
C1615 C1616 1.383 . S
C1615 H1623 0.929 . S
C1616 C1615 1.383 . S
C1616 C1617 1.377 . S
C1617 H1601 0.930 . S
C1617 C1616 1.377 . S
C1617 C1618 1.379 . S
C1618 H1602 0.931 . S
C1618 C1612 1.383 1_655 S
C1618 C1617 1.379 . S
H1619 C1613 0.959 . S
H1620 C1613 0.961 . S
H1621 C1613 0.960 . S
H1622 C1614 0.930 . S
H1623 C1615 0.929 . S
H1624 C1632 0.929 . S
H1625 C1634 0.930 . S
H1626 C1636 0.930 . S
H1627 C1639 0.929 . S
H1628 C1642 0.930 . S
H1629 C1644 0.960 . S
H1630 C1644 0.960 . S
H1631 C1644 0.960 . S
C1632 H1624 0.929 . S
C1632 C1633 1.377 . S
C1632 C1634 1.384 1_545 S
C1633 C1632 1.377 . S
C1633 C1639 1.390 . S
C1634 H1625 0.930 . S
C1634 C1632 1.384 1_565 S
C1634 C1635 1.372 . S
C1635 C1634 1.372 . S
C1635 C1636 1.400 1_565 S
C1635 C1640 1.490 . S
C1636 H1626 0.930 . S
C1636 C1635 1.400 1_545 S
C1636 C1639 1.386 . S
H1637 C1653 0.930 . S
H1638 C1654 0.931 . S
C1639 H1627 0.929 . S
C1639 C1633 1.390 . S
C1639 C1636 1.386 . S
C1640 C1635 1.490 . S
C1640 C1642 1.395 . S
C1640 C1643 1.403 . S
H1641 C1647 0.930 . S
C1642 H1628 0.930 . S
C1642 C1640 1.395 . S
C1642 C1645 1.403 . S
C1643 C1640 1.403 . S
C1643 C1644 1.524 . S
C1643 C1647 1.400 . S
C1644 H1629 0.960 . S
C1644 H1630 0.960 . S
C1644 H1631 0.960 . S
C1644 C1643 1.524 . S
C1645 C1642 1.403 . S
C1645 C1646 1.392 . S
C1645 C1649 1.495 . S
C1646 C1645 1.392 . S
C1646 C1647 1.385 . S
C1646 C1648 1.478 . S
C1647 H1641 0.930 . S
C1647 C1643 1.400 . S
C1647 C1646 1.385 . S
C1648 C1646 1.478 . S
C1648 C1650 1.381 . S
C1648 C1654 1.383 . S
C1649 C1645 1.495 . S
C1649 H1655 0.959 . S
C1649 H1656 0.961 . S
C1649 H1657 0.960 . S
C1650 C1648 1.381 . S
C1650 C1651 1.394 . S
C1650 H1658 0.930 . S
C1651 C1650 1.394 . S
C1651 C1652 1.383 . S
C1651 H1659 0.929 . S
C1652 C1651 1.383 . S
C1652 C1653 1.377 . S
C1653 H1637 0.930 . S
C1653 C1652 1.377 . S
C1653 C1654 1.379 . S
C1654 H1638 0.931 . S
C1654 C1648 1.383 . S
C1654 C1653 1.379 . S
H1655 C1649 0.959 . S
H1656 C1649 0.961 . S
H1657 C1649 0.960 . S
H1658 C1650 0.930 . S
H1659 C1651 0.929 . S
H1660 C1668 0.929 . S
H1661 C1670 0.930 . S
H1662 C1672 0.930 . S
H1663 C1675 0.929 . S
H1664 C1678 0.930 . S
H1665 C1680 0.960 . S
H1666 C1680 0.960 . S
H1667 C1680 0.960 . S
C1668 H1660 0.929 . S
C1668 C1669 1.377 . S
C1668 C1670 1.384 . S
C1669 C1668 1.377 . S
C1669 C1675 1.390 . S
C1670 H1661 0.930 . S
C1670 C1668 1.384 . S
C1670 C1671 1.372 1_455 S
C1671 C1670 1.372 1_655 S
C1671 C1672 1.400 . S
C1671 C1676 1.490 . S
C1672 H1662 0.930 . S
C1672 C1671 1.400 . S
C1672 C1675 1.386 1_655 S
H1673 C1689 0.930 . S
H1674 C1690 0.931 . S
C1675 H1663 0.929 . S
C1675 C1669 1.390 . S
C1675 C1672 1.386 1_455 S
C1676 C1671 1.490 . S
C1676 C1678 1.395 . S
C1676 C1679 1.403 . S
H1677 C1683 0.930 . S
C1678 H1664 0.930 . S
C1678 C1676 1.395 . S
C1678 C1681 1.403 . S
C1679 C1676 1.403 . S
C1679 C1680 1.524 . S
C1679 C1683 1.400 . S
C1680 H1665 0.960 . S
C1680 H1666 0.960 . S
C1680 H1667 0.960 . S
C1680 C1679 1.524 . S
C1681 C1678 1.403 . S
C1681 C1682 1.392 . S
C1681 C1685 1.495 . S
C1682 C1681 1.392 . S
C1682 C1683 1.385 . S
C1682 C1684 1.478 . S
C1683 H1677 0.930 . S
C1683 C1679 1.400 . S
C1683 C1682 1.385 . S
C1684 C1682 1.478 . S
C1684 C1686 1.381 . S
C1684 C1690 1.383 . S
C1685 C1681 1.495 . S
C1685 H1691 0.959 . S
C1685 H1692 0.961 . S
C1685 H1693 0.960 . S
C1686 C1684 1.381 . S
C1686 C1687 1.394 . S
C1686 H1694 0.930 . S
C1687 C1686 1.394 . S
C1687 C1688 1.383 . S
C1687 H1695 0.929 . S
C1688 C1687 1.383 . S
C1688 C1689 1.377 . S
C1689 H1673 0.930 . S
C1689 C1688 1.377 . S
C1689 C1690 1.379 . S
C1690 H1674 0.931 . S
C1690 C1684 1.383 . S
C1690 C1689 1.379 . S
H1691 C1685 0.959 . S
H1692 C1685 0.961 . S
H1693 C1685 0.960 . S
H1694 C1686 0.930 . S
H1695 C1687 0.929 . S
H1696 C1704 0.929 . S
H1697 C1706 0.930 . S
H1698 C1708 0.930 . S
H1699 C1711 0.929 . S
H1700 C1714 0.930 . S
H1701 C1716 0.960 . S
H1702 C1716 0.960 . S
H1703 C1716 0.960 . S
C1704 H1696 0.929 . S
C1704 C1705 1.377 . S
C1704 C1706 1.384 . S
C1705 C1704 1.377 . S
C1705 C1711 1.390 . S
C1706 H1697 0.930 . S
C1706 C1704 1.384 . S
C1706 C1707 1.372 . S
C1707 C1706 1.372 . S
C1707 C1708 1.400 . S
C1707 C1712 1.490 . S
C1708 H1698 0.930 . S
C1708 C1707 1.400 . S
C1708 C1711 1.386 . S
H1709 C1725 0.930 . S
H1710 C1726 0.931 . S
C1711 H1699 0.929 . S
C1711 C1705 1.390 . S
C1711 C1708 1.386 . S
C1712 C1707 1.490 . S
C1712 C1714 1.395 . S
C1712 C1715 1.403 . S
H1713 C1719 0.930 . S
C1714 H1700 0.930 . S
C1714 C1712 1.395 . S
C1714 C1717 1.403 . S
C1715 C1712 1.403 . S
C1715 C1716 1.524 . S
C1715 C1719 1.400 . S
C1716 H1701 0.960 . S
C1716 H1702 0.960 . S
C1716 H1703 0.960 . S
C1716 C1715 1.524 . S
C1717 C1714 1.403 . S
C1717 C1718 1.392 . S
C1717 C1721 1.495 . S
C1718 C1717 1.392 . S
C1718 C1719 1.385 . S
C1718 C1720 1.478 . S
C1719 H1713 0.930 . S
C1719 C1715 1.400 . S
C1719 C1718 1.385 . S
C1720 C1718 1.478 . S
C1720 C1722 1.381 . S
C1720 C1726 1.383 . S
C1721 C1717 1.495 . S
C1721 H1727 0.959 . S
C1721 H1728 0.961 . S
C1721 H1729 0.960 . S
C1722 C1720 1.381 . S
C1722 C1723 1.394 . S
C1722 H1730 0.930 . S
C1723 C1722 1.394 . S
C1723 C1724 1.383 . S
C1723 H1731 0.929 . S
C1724 C1723 1.383 . S
C1724 C1725 1.377 . S
C1725 H1709 0.930 . S
C1725 C1724 1.377 . S
C1725 C1726 1.379 . S
C1726 H1710 0.931 . S
C1726 C1720 1.383 . S
C1726 C1725 1.379 . S
H1727 C1721 0.959 . S
H1728 C1721 0.961 . S
H1729 C1721 0.960 . S
H1730 C1722 0.930 . S
H1731 C1723 0.929 . S
H1732 C1740 0.929 . S
H1733 C1742 0.930 . S
H1734 C1744 0.930 . S
H1735 C1747 0.929 . S
H1736 C1750 0.930 . S
H1737 C1752 0.960 . S
H1738 C1752 0.960 . S
H1739 C1752 0.960 . S
C1740 H1732 0.929 . S
C1740 C1741 1.377 . S
C1740 C1742 1.384 . S
C1741 C1740 1.377 . S
C1741 C1747 1.390 . S
C1742 H1733 0.930 . S
C1742 C1740 1.384 . S
C1742 C1743 1.372 . S
C1743 C1742 1.372 . S
C1743 C1744 1.400 . S
C1743 C1748 1.490 . S
C1744 H1734 0.930 . S
C1744 C1743 1.400 . S
C1744 C1747 1.386 . S
H1745 C1761 0.930 . S
H1746 C1762 0.931 . S
C1747 H1735 0.929 . S
C1747 C1741 1.390 . S
C1747 C1744 1.386 . S
C1748 C1743 1.490 . S
C1748 C1750 1.395 . S
C1748 C1751 1.403 . S
H1749 C1755 0.930 . S
C1750 H1736 0.930 . S
C1750 C1748 1.395 . S
C1750 C1753 1.403 . S
C1751 C1748 1.403 . S
C1751 C1752 1.524 . S
C1751 C1755 1.400 . S
C1752 H1737 0.960 . S
C1752 H1738 0.960 . S
C1752 H1739 0.960 . S
C1752 C1751 1.524 . S
C1753 C1750 1.403 . S
C1753 C1754 1.392 . S
C1753 C1757 1.495 . S
C1754 C1753 1.392 . S
C1754 C1755 1.385 . S
C1754 C1756 1.478 . S
C1755 H1749 0.930 . S
C1755 C1751 1.400 . S
C1755 C1754 1.385 . S
C1756 C1754 1.478 . S
C1756 C1758 1.381 . S
C1756 C1762 1.383 . S
C1757 C1753 1.495 . S
C1757 H1763 0.959 . S
C1757 H1764 0.961 . S
C1757 H1765 0.960 . S
C1758 C1756 1.381 . S
C1758 C1759 1.394 . S
C1758 H1766 0.930 . S
C1759 C1758 1.394 . S
C1759 C1760 1.383 . S
C1759 H1767 0.929 . S
C1760 C1759 1.383 . S
C1760 C1761 1.377 . S
C1761 H1745 0.930 . S
C1761 C1760 1.377 . S
C1761 C1762 1.379 . S
C1762 H1746 0.931 . S
C1762 C1756 1.383 . S
C1762 C1761 1.379 . S
H1763 C1757 0.959 . S
H1764 C1757 0.961 . S
H1765 C1757 0.960 . S
H1766 C1758 0.930 . S
H1767 C1759 0.929 . S
H1768 C1776 0.929 . S
H1769 C1778 0.930 . S
H1770 C1780 0.930 . S
H1771 C1783 0.929 . S
H1772 C1786 0.930 . S
H1773 C1788 0.960 . S
H1774 C1788 0.960 . S
H1775 C1788 0.960 . S
C1776 H1768 0.929 . S
C1776 C1777 1.377 . S
C1776 C1778 1.384 . S
C1777 C1776 1.377 . S
C1777 C1783 1.390 . S
C1778 H1769 0.930 . S
C1778 C1776 1.384 . S
C1778 C1779 1.372 . S
C1779 C1778 1.372 . S
C1779 C1780 1.400 . S
C1779 C1784 1.490 . S
C1780 H1770 0.930 . S
C1780 C1779 1.400 . S
C1780 C1783 1.386 . S
H1781 C1797 0.930 . S
H1782 C1798 0.931 . S
C1783 H1771 0.929 . S
C1783 C1777 1.390 . S
C1783 C1780 1.386 . S
C1784 C1779 1.490 . S
C1784 C1786 1.395 . S
C1784 C1787 1.403 . S
H1785 C1791 0.930 . S
C1786 H1772 0.930 . S
C1786 C1784 1.395 . S
C1786 C1789 1.403 . S
C1787 C1784 1.403 . S
C1787 C1788 1.524 . S
C1787 C1791 1.400 . S
C1788 H1773 0.960 . S
C1788 H1774 0.960 . S
C1788 H1775 0.960 . S
C1788 C1787 1.524 . S
C1789 C1786 1.403 . S
C1789 C1790 1.392 . S
C1789 C1793 1.495 . S
C1790 C1789 1.392 . S
C1790 C1791 1.385 . S
C1790 C1792 1.478 . S
C1791 H1785 0.930 . S
C1791 C1787 1.400 . S
C1791 C1790 1.385 . S
C1792 C1790 1.478 . S
C1792 C1794 1.381 . S
C1792 C1798 1.383 . S
C1793 C1789 1.495 . S
C1793 H1799 0.959 . S
C1793 H1800 0.961 . S
C1793 H1801 0.960 . S
C1794 C1792 1.381 . S
C1794 C1795 1.394 . S
C1794 H1802 0.930 . S
C1795 C1794 1.394 . S
C1795 C1796 1.383 . S
C1795 H1803 0.929 . S
C1796 C1795 1.383 . S
C1796 C1797 1.377 . S
C1797 H1781 0.930 . S
C1797 C1796 1.377 . S
C1797 C1798 1.379 . S
C1798 H1782 0.931 . S
C1798 C1792 1.383 . S
C1798 C1797 1.379 . S
H1799 C1793 0.959 . S
H1800 C1793 0.961 . S
H1801 C1793 0.960 . S
H1802 C1794 0.930 . S
H1803 C1795 0.929 . S
H1804 C1812 0.929 . S
H1805 C1814 0.930 . S
H1806 C1816 0.930 . S
H1807 C1819 0.929 . S
H1808 C1822 0.930 . S
H1809 C1824 0.960 . S
H1810 C1824 0.960 . S
H1811 C1824 0.960 . S
C1812 H1804 0.929 . S
C1812 C1813 1.377 . S
C1812 C1814 1.384 . S
C1813 C1812 1.377 . S
C1813 C1819 1.390 . S
C1814 H1805 0.930 . S
C1814 C1812 1.384 . S
C1814 C1815 1.372 . S
C1815 C1814 1.372 . S
C1815 C1816 1.400 . S
C1815 C1820 1.490 . S
C1816 H1806 0.930 . S
C1816 C1815 1.400 . S
C1816 C1819 1.386 . S
H1817 C1833 0.930 . S
H1818 C1834 0.931 . S
C1819 H1807 0.929 . S
C1819 C1813 1.390 . S
C1819 C1816 1.386 . S
C1820 C1815 1.490 . S
C1820 C1822 1.395 . S
C1820 C1823 1.403 . S
H1821 C1827 0.930 . S
C1822 H1808 0.930 . S
C1822 C1820 1.395 . S
C1822 C1825 1.403 . S
C1823 C1820 1.403 . S
C1823 C1824 1.524 . S
C1823 C1827 1.400 . S
C1824 H1809 0.960 . S
C1824 H1810 0.960 . S
C1824 H1811 0.960 . S
C1824 C1823 1.524 . S
C1825 C1822 1.403 . S
C1825 C1826 1.392 . S
C1825 C1829 1.495 . S
C1826 C1825 1.392 . S
C1826 C1827 1.385 . S
C1826 C1828 1.478 . S
C1827 H1821 0.930 . S
C1827 C1823 1.400 . S
C1827 C1826 1.385 . S
C1828 C1826 1.478 . S
C1828 C1830 1.381 . S
C1828 C1834 1.383 . S
C1829 C1825 1.495 . S
C1829 H1835 0.959 . S
C1829 H1836 0.961 . S
C1829 H1837 0.960 . S
C1830 C1828 1.381 . S
C1830 C1831 1.394 . S
C1830 H1838 0.930 . S
C1831 C1830 1.394 . S
C1831 C1832 1.383 . S
C1831 H1839 0.929 . S
C1832 C1831 1.383 . S
C1832 C1833 1.377 . S
C1833 H1817 0.930 . S
C1833 C1832 1.377 . S
C1833 C1834 1.379 . S
C1834 H1818 0.931 . S
C1834 C1828 1.383 . S
C1834 C1833 1.379 . S
H1835 C1829 0.959 . S
H1836 C1829 0.961 . S
H1837 C1829 0.960 . S
H1838 C1830 0.930 . S
H1839 C1831 0.929 . S
H1840 C1848 0.929 . S
H1841 C1850 0.930 . S
H1842 C1852 0.930 . S
H1843 C1855 0.929 . S
H1844 C1858 0.930 . S
H1845 C1860 0.960 . S
H1846 C1860 0.960 . S
H1847 C1860 0.960 . S
C1848 H1840 0.929 . S
C1848 C1849 1.377 . S
C1848 C1850 1.384 . S
C1849 C1848 1.377 . S
C1849 C1855 1.390 . S
C1850 H1841 0.930 . S
C1850 C1848 1.384 . S
C1850 C1851 1.372 . S
C1851 C1850 1.372 . S
C1851 C1852 1.400 . S
C1851 C1856 1.490 . S
C1852 H1842 0.930 . S
C1852 C1851 1.400 . S
C1852 C1855 1.386 . S
H1853 C1869 0.930 . S
H1854 C1870 0.931 . S
C1855 H1843 0.929 . S
C1855 C1849 1.390 . S
C1855 C1852 1.386 . S
C1856 C1851 1.490 . S
C1856 C1858 1.395 . S
C1856 C1859 1.403 . S
H1857 C1863 0.930 . S
C1858 H1844 0.930 . S
C1858 C1856 1.395 . S
C1858 C1861 1.403 . S
C1859 C1856 1.403 . S
C1859 C1860 1.524 . S
C1859 C1863 1.400 . S
C1860 H1845 0.960 . S
C1860 H1846 0.960 . S
C1860 H1847 0.960 . S
C1860 C1859 1.524 . S
C1861 C1858 1.403 . S
C1861 C1862 1.392 . S
C1861 C1865 1.495 . S
C1862 C1861 1.392 . S
C1862 C1863 1.385 . S
C1862 C1864 1.478 . S
C1863 H1857 0.930 . S
C1863 C1859 1.400 . S
C1863 C1862 1.385 . S
C1864 C1862 1.478 . S
C1864 C1866 1.381 . S
C1864 C1870 1.383 . S
C1865 C1861 1.495 . S
C1865 H1871 0.959 . S
C1865 H1872 0.961 . S
C1865 H1873 0.960 . S
C1866 C1864 1.381 . S
C1866 C1867 1.394 . S
C1866 H1874 0.930 . S
C1867 C1866 1.394 . S
C1867 C1868 1.383 . S
C1867 H1875 0.929 . S
C1868 C1867 1.383 . S
C1868 C1869 1.377 . S
C1869 H1853 0.930 . S
C1869 C1868 1.377 . S
C1869 C1870 1.379 . S
C1870 H1854 0.931 . S
C1870 C1864 1.383 . S
C1870 C1869 1.379 . S
H1871 C1865 0.959 . S
H1872 C1865 0.961 . S
H1873 C1865 0.960 . S
H1874 C1866 0.930 . S
H1875 C1867 0.929 . S
H1876 C1884 0.929 . S
H1877 C1886 0.930 . S
H1878 C1888 0.930 . S
H1879 C1891 0.929 . S
H1880 C1894 0.930 . S
H1881 C1896 0.960 . S
H1882 C1896 0.960 . S
H1883 C1896 0.960 . S
C1884 H1876 0.929 . S
C1884 C1885 1.377 . S
C1884 C1886 1.384 . S
C1885 C1884 1.377 . S
C1885 C1891 1.390 . S
C1886 H1877 0.930 . S
C1886 C1884 1.384 . S
C1886 C1887 1.372 . S
C1887 C1886 1.372 . S
C1887 C1888 1.400 . S
C1887 C1892 1.490 . S
C1888 H1878 0.930 . S
C1888 C1887 1.400 . S
C1888 C1891 1.386 . S
H1889 C1905 0.930 . S
H1890 C1906 0.931 . S
C1891 H1879 0.929 . S
C1891 C1885 1.390 . S
C1891 C1888 1.386 . S
C1892 C1887 1.490 . S
C1892 C1894 1.395 . S
C1892 C1895 1.403 . S
H1893 C1899 0.930 . S
C1894 H1880 0.930 . S
C1894 C1892 1.395 . S
C1894 C1897 1.403 . S
C1895 C1892 1.403 . S
C1895 C1896 1.524 . S
C1895 C1899 1.400 . S
C1896 H1881 0.960 . S
C1896 H1882 0.960 . S
C1896 H1883 0.960 . S
C1896 C1895 1.524 . S
C1897 C1894 1.403 . S
C1897 C1898 1.392 . S
C1897 C1901 1.495 . S
C1898 C1897 1.392 . S
C1898 C1899 1.385 . S
C1898 C1900 1.478 . S
C1899 H1893 0.930 . S
C1899 C1895 1.400 . S
C1899 C1898 1.385 . S
C1900 C1898 1.478 . S
C1900 C1902 1.381 . S
C1900 C1906 1.383 . S
C1901 C1897 1.495 . S
C1901 H1907 0.959 . S
C1901 H1908 0.961 . S
C1901 H1909 0.960 . S
C1902 C1900 1.381 . S
C1902 C1903 1.394 . S
C1902 H1910 0.930 . S
C1903 C1902 1.394 . S
C1903 C1904 1.383 . S
C1903 H1911 0.929 . S
C1904 C1903 1.383 . S
C1904 C1905 1.377 . S
C1905 H1889 0.930 . S
C1905 C1904 1.377 . S
C1905 C1906 1.379 . S
C1906 H1890 0.931 . S
C1906 C1900 1.383 . S
C1906 C1905 1.379 . S
H1907 C1901 0.959 . S
H1908 C1901 0.961 . S
H1909 C1901 0.960 . S
H1910 C1902 0.930 . S
H1911 C1903 0.929 . S
H1912 C1920 0.929 . S
H1913 C1922 0.930 . S
H1914 C1924 0.930 . S
H1915 C1927 0.929 . S
H1916 C1930 0.930 . S
H1917 C1932 0.960 . S
H1918 C1932 0.960 . S
H1919 C1932 0.960 . S
C1920 H1912 0.929 . S
C1920 C1921 1.377 . S
C1920 C1922 1.384 . S
C1921 C1920 1.377 . S
C1921 C1927 1.390 . S
C1922 H1913 0.930 . S
C1922 C1920 1.384 . S
C1922 C1923 1.372 . S
C1923 C1922 1.372 . S
C1923 C1924 1.400 . S
C1923 C1928 1.490 . S
C1924 H1914 0.930 . S
C1924 C1923 1.400 . S
C1924 C1927 1.386 . S
H1925 C1941 0.930 . S
H1926 C1942 0.931 . S
C1927 H1915 0.929 . S
C1927 C1921 1.390 . S
C1927 C1924 1.386 . S
C1928 C1923 1.490 . S
C1928 C1930 1.395 . S
C1928 C1931 1.403 . S
H1929 C1935 0.930 . S
C1930 H1916 0.930 . S
C1930 C1928 1.395 . S
C1930 C1933 1.403 . S
C1931 C1928 1.403 . S
C1931 C1932 1.524 . S
C1931 C1935 1.400 . S
C1932 H1917 0.960 . S
C1932 H1918 0.960 . S
C1932 H1919 0.960 . S
C1932 C1931 1.524 . S
C1933 C1930 1.403 . S
C1933 C1934 1.392 . S
C1933 C1937 1.495 . S
C1934 C1933 1.392 . S
C1934 C1935 1.385 . S
C1934 C1936 1.478 . S
C1935 H1929 0.930 . S
C1935 C1931 1.400 . S
C1935 C1934 1.385 . S
C1936 C1934 1.478 . S
C1936 C1938 1.381 . S
C1936 C1942 1.383 . S
C1937 C1933 1.495 . S
C1937 H1943 0.959 . S
C1937 H1944 0.961 . S
C1937 H1945 0.960 . S
C1938 C1936 1.381 . S
C1938 C1939 1.394 . S
C1938 H1946 0.930 . S
C1939 C1938 1.394 . S
C1939 C1940 1.383 . S
C1939 H1947 0.929 . S
C1940 C1939 1.383 . S
C1940 C1941 1.377 . S
C1941 H1925 0.930 . S
C1941 C1940 1.377 . S
C1941 C1942 1.379 . S
C1942 H1926 0.931 . S
C1942 C1936 1.383 . S
C1942 C1941 1.379 . S
H1943 C1937 0.959 . S
H1944 C1937 0.961 . S
H1945 C1937 0.960 . S
H1946 C1938 0.930 . S
H1947 C1939 0.929 . S
H1948 C1956 0.929 . S
H1949 C1958 0.930 . S
H1950 C1960 0.930 . S
H1951 C1963 0.929 . S
H1952 C1966 0.930 . S
H1953 C1968 0.960 . S
H1954 C1968 0.960 . S
H1955 C1968 0.960 . S
C1956 H1948 0.929 . S
C1956 C1957 1.377 . S
C1956 C1958 1.384 . S
C1957 C1956 1.377 . S
C1957 C1963 1.390 . S
C1958 H1949 0.930 . S
C1958 C1956 1.384 . S
C1958 C1959 1.372 . S
C1959 C1958 1.372 . S
C1959 C1960 1.400 . S
C1959 C1964 1.490 . S
C1960 H1950 0.930 . S
C1960 C1959 1.400 . S
C1960 C1963 1.386 . S
H1961 C1977 0.930 . S
H1962 C1978 0.931 . S
C1963 H1951 0.929 . S
C1963 C1957 1.390 . S
C1963 C1960 1.386 . S
C1964 C1959 1.490 . S
C1964 C1966 1.395 . S
C1964 C1967 1.403 . S
H1965 C1971 0.930 . S
C1966 H1952 0.930 . S
C1966 C1964 1.395 . S
C1966 C1969 1.403 . S
C1967 C1964 1.403 . S
C1967 C1968 1.524 . S
C1967 C1971 1.400 . S
C1968 H1953 0.960 . S
C1968 H1954 0.960 . S
C1968 H1955 0.960 . S
C1968 C1967 1.524 . S
C1969 C1966 1.403 . S
C1969 C1970 1.392 . S
C1969 C1973 1.495 . S
C1970 C1969 1.392 . S
C1970 C1971 1.385 . S
C1970 C1972 1.478 . S
C1971 H1965 0.930 . S
C1971 C1967 1.400 . S
C1971 C1970 1.385 . S
C1972 C1970 1.478 . S
C1972 C1974 1.381 . S
C1972 C1978 1.383 . S
C1973 C1969 1.495 . S
C1973 H1979 0.959 . S
C1973 H1980 0.961 . S
C1973 H1981 0.960 . S
C1974 C1972 1.381 . S
C1974 C1975 1.394 . S
C1974 H1982 0.930 . S
C1975 C1974 1.394 . S
C1975 C1976 1.383 . S
C1975 H1983 0.929 . S
C1976 C1975 1.383 . S
C1976 C1977 1.377 . S
C1977 H1961 0.930 . S
C1977 C1976 1.377 . S
C1977 C1978 1.379 . S
C1978 H1962 0.931 . S
C1978 C1972 1.383 . S
C1978 C1977 1.379 . S
H1979 C1973 0.959 . S
H1980 C1973 0.961 . S
H1981 C1973 0.960 . S
H1982 C1974 0.930 . S
H1983 C1975 0.929 . S
H1984 C1992 0.929 . S
H1985 C1994 0.930 . S
H1986 C1996 0.929 1_554 S
H1987 C1999 0.929 . S
H1988 C2002 0.930 . S
H1989 C2004 0.960 . S
H1990 C2004 0.960 . S
H1991 C2004 0.960 . S
C1992 H1984 0.929 . S
C1992 C1993 1.377 . S
C1992 C1994 1.384 . S
C1993 C1992 1.377 . S
C1993 C1999 1.390 . S
C1994 H1985 0.930 . S
C1994 C1992 1.384 . S
C1994 C1995 1.372 . S
C1995 C1994 1.372 . S
C1995 C1996 1.400 . S
C1995 C2000 1.490 . S
C1996 H1986 0.929 1_556 S
C1996 C1995 1.400 . S
C1996 C1999 1.386 . S
H1997 C2013 0.930 . S
H1998 C2014 0.931 . S
C1999 H1987 0.929 . S
C1999 C1993 1.390 . S
C1999 C1996 1.386 . S
C2000 C1995 1.490 . S
C2000 C2002 1.395 . S
C2000 C2003 1.403 . S
H2001 C2007 0.930 . S
C2002 H1988 0.930 . S
C2002 C2000 1.395 . S
C2002 C2005 1.403 . S
C2003 C2000 1.403 . S
C2003 C2004 1.524 . S
C2003 C2007 1.400 . S
C2004 H1989 0.960 . S
C2004 H1990 0.960 . S
C2004 H1991 0.960 . S
C2004 C2003 1.524 . S
C2005 C2002 1.403 . S
C2005 C2006 1.392 . S
C2005 C2009 1.495 1_556 S
C2006 C2005 1.392 . S
C2006 C2007 1.385 . S
C2006 C2008 1.478 1_556 S
C2007 H2001 0.930 . S
C2007 C2003 1.400 . S
C2007 C2006 1.385 . S
C2008 C2006 1.478 1_554 S
C2008 C2010 1.381 1_554 S
C2008 C2014 1.383 . S
C2009 C2005 1.495 1_554 S
C2009 H2015 0.959 . S
C2009 H2016 0.961 . S
C2009 H2017 0.960 1_554 S
C2010 C2008 1.381 1_556 S
C2010 C2011 1.403 1_565 S
C2010 H2018 0.930 . S
C2011 C2010 1.403 1_545 S
C2011 C2012 1.356 1_556 S
C2011 H2019 0.948 . S
C2012 C2011 1.356 1_554 S
C2012 C2013 1.377 1_545 S
C2013 H1997 0.930 . S
C2013 C2012 1.377 1_565 S
C2013 C2014 1.379 . S
C2014 H1998 0.931 . S
C2014 C2008 1.383 . S
C2014 C2013 1.379 . S
H2015 C2009 0.959 . S
H2016 C2009 0.961 . S
H2017 C2009 0.960 1_556 S
H2018 C2010 0.930 . S
H2019 C2011 0.948 . S
H2020 C2028 0.925 1_455 S
H2021 C2030 0.930 . S
H2022 C2032 0.930 . S
H2023 C2035 0.929 . S
H2024 C2038 0.930 . S
H2025 C2040 0.960 . S
H2026 C2040 0.960 . S
H2027 C2040 0.960 . S
C2028 H2020 0.925 1_655 S
C2028 C2029 1.376 1_655 S
C2028 C2030 1.389 . S
C2029 C2028 1.376 1_455 S
C2029 C2035 1.390 1_456 S
C2030 H2021 0.930 . S
C2030 C2028 1.389 . S
C2030 C2031 1.372 . S
C2031 C2030 1.372 . S
C2031 C2032 1.400 1_556 S
C2031 C2036 1.483 1_556 S
C2032 H2022 0.930 . S
C2032 C2031 1.400 1_554 S
C2032 C2035 1.386 . S
H2033 C2049 0.930 . S
H2034 C2050 0.931 . S
C2035 H2023 0.929 . S
C2035 C2029 1.390 1_654 S
C2035 C2032 1.386 . S
C2036 C2031 1.483 1_554 S
C2036 C2038 1.375 1_554 S
C2036 C2039 1.429 . S
H2037 C2043 0.930 . S
C2038 H2024 0.930 . S
C2038 C2036 1.375 1_556 S
C2038 C2041 1.403 . S
C2039 C2036 1.429 . S
C2039 C2040 1.524 . S
C2039 C2043 1.400 . S
C2040 H2025 0.960 . S
C2040 H2026 0.960 . S
C2040 H2027 0.960 . S
C2040 C2039 1.524 . S
C2041 C2038 1.403 . S
C2041 C2042 1.392 1_556 S
C2041 C2045 1.495 . S
C2042 C2041 1.392 1_554 S
C2042 C2043 1.385 . S
C2042 C2044 1.478 . S
C2043 H2037 0.930 . S
C2043 C2039 1.400 . S
C2043 C2042 1.385 . S
C2044 C2042 1.478 . S
C2044 C2046 1.381 . S
C2044 C2050 1.383 . S
C2045 C2041 1.495 . S
C2045 H2051 0.959 . S
C2045 H2052 0.961 . S
C2045 H2053 0.960 . S
C2046 C2044 1.381 . S
C2046 C2047 1.394 . S
C2046 H2054 0.930 1_554 S
C2047 C2046 1.394 . S
C2047 C2048 1.383 . S
C2047 H2055 0.929 . S
C2048 C2047 1.383 . S
C2048 C2049 1.377 . S
C2049 H2033 0.930 . S
C2049 C2048 1.377 . S
C2049 C2050 1.379 . S
C2050 H2034 0.931 . S
C2050 C2044 1.383 . S
C2050 C2049 1.379 . S
H2051 C2045 0.959 . S
H2052 C2045 0.961 . S
H2053 C2045 0.960 . S
H2054 C2046 0.930 1_556 S
H2055 C2047 0.929 . S
H2056 C2064 0.929 . S
H2057 C2066 0.930 . S
H2058 C2068 0.930 . S
H2059 C2071 0.929 . S
H2060 C2074 0.930 . S
H2061 C2076 0.960 . S
H2062 C2076 0.960 . S
H2063 C2076 0.960 . S
C2064 H2056 0.929 . S
C2064 C2065 1.377 1_556 S
C2064 C2066 1.384 1_565 S
C2065 C2064 1.377 1_554 S
C2065 C2071 1.390 1_565 S
C2066 H2057 0.930 . S
C2066 C2064 1.384 1_545 S
C2066 C2067 1.372 1_556 S
C2067 C2066 1.372 1_554 S
C2067 C2068 1.400 . S
C2067 C2072 1.490 1_554 S
C2068 H2058 0.930 . S
C2068 C2067 1.400 . S
C2068 C2071 1.386 . S
H2069 C2085 0.930 . S
H2070 C2086 0.931 1_554 S
C2071 H2059 0.929 . S
C2071 C2065 1.390 1_545 S
C2071 C2068 1.386 . S
C2072 C2067 1.490 1_556 S
C2072 C2074 1.395 . S
C2072 C2075 1.403 1_556 S
H2073 C2079 0.930 1_554 S
C2074 H2060 0.930 . S
C2074 C2072 1.395 . S
C2074 C2077 1.403 . S
C2075 C2072 1.403 1_554 S
C2075 C2076 1.524 . S
C2075 C2079 1.400 1_554 S
C2076 H2061 0.960 . S
C2076 H2062 0.960 . S
C2076 H2063 0.960 . S
C2076 C2075 1.524 . S
C2077 C2074 1.403 . S
C2077 C2078 1.392 . S
C2077 C2081 1.495 . S
C2078 C2077 1.392 . S
C2078 C2079 1.385 . S
C2078 C2080 1.478 . S
C2079 H2073 0.930 1_556 S
C2079 C2075 1.400 1_556 S
C2079 C2078 1.385 . S
C2080 C2078 1.478 . S
C2080 C2082 1.381 . S
C2080 C2086 1.383 . S
C2081 C2077 1.495 . S
C2081 H2087 0.959 . S
C2081 H2088 0.961 . S
C2081 H2089 0.960 . S
C2082 C2080 1.381 . S
C2082 C2083 1.394 . S
C2082 H2090 0.930 . S
C2083 C2082 1.394 . S
C2083 C2084 1.383 . S
C2083 H2091 0.929 . S
C2084 C2083 1.383 . S
C2084 C2085 1.377 . S
C2085 H2069 0.930 . S
C2085 C2084 1.377 . S
C2085 C2086 1.379 . S
C2086 H2070 0.931 1_556 S
C2086 C2080 1.383 . S
C2086 C2085 1.379 . S
H2087 C2081 0.959 . S
H2088 C2081 0.961 . S
H2089 C2081 0.960 . S
H2090 C2082 0.930 . S
H2091 C2083 0.929 . S
H2092 C2100 0.924 1_655 S
H2093 C2102 0.930 . S
H2094 C2104 0.930 . S
H2095 C2107 0.929 1_655 S
H2096 C2110 0.930 . S
H2097 C2112 0.960 . S
H2098 C2112 0.960 . S
H2099 C2112 0.960 . S
C2100 H2092 0.924 1_455 S
C2100 C2101 1.377 1_454 S
C2100 C2102 1.384 . S
C2101 C2100 1.377 1_656 S
C2101 C2107 1.390 1_655 S
C2102 H2093 0.930 . S
C2102 C2100 1.384 . S
C2102 C2103 1.372 1_554 S
C2103 C2102 1.372 1_556 S
C2103 C2104 1.400 . S
C2103 C2108 1.490 1_556 S
C2104 H2094 0.930 . S
C2104 C2103 1.400 . S
C2104 C2107 1.386 . S
H2105 C2121 0.930 . S
H2106 C2122 0.931 1_556 S
C2107 H2095 0.929 1_455 S
C2107 C2101 1.390 1_455 S
C2107 C2104 1.386 . S
C2108 C2103 1.490 1_554 S
C2108 C2110 1.395 . S
C2108 C2111 1.403 1_554 S
H2109 C2115 0.929 1_556 S
C2110 H2096 0.930 . S
C2110 C2108 1.395 . S
C2110 C2113 1.403 . S
C2111 C2108 1.403 1_556 S
C2111 C2112 1.524 . S
C2111 C2115 1.399 1_556 S
C2112 H2097 0.960 . S
C2112 H2098 0.960 . S
C2112 H2099 0.960 . S
C2112 C2111 1.524 . S
C2113 C2110 1.403 . S
C2113 C2114 1.392 . S
C2113 C2117 1.495 . S
C2114 C2113 1.392 . S
C2114 C2115 1.387 . S
C2114 C2116 1.478 . S
C2115 H2109 0.929 1_554 S
C2115 C2111 1.399 1_554 S
C2115 C2114 1.387 . S
C2116 C2114 1.478 . S
C2116 C2118 1.381 . S
C2116 C2122 1.383 . S
C2117 C2113 1.495 . S
C2117 H2123 0.959 . S
C2117 H2124 0.961 . S
C2117 H2125 0.960 . S
C2118 C2116 1.381 . S
C2118 C2119 1.394 . S
C2118 H2126 0.930 . S
C2119 C2118 1.394 . S
C2119 C2120 1.383 . S
C2119 H2127 0.929 . S
C2120 C2119 1.383 . S
C2120 C2121 1.377 . S
C2121 H2105 0.930 . S
C2121 C2120 1.377 . S
C2121 C2122 1.379 . S
C2122 H2106 0.931 1_554 S
C2122 C2116 1.383 . S
C2122 C2121 1.379 . S
H2123 C2117 0.959 . S
H2124 C2117 0.961 . S
H2125 C2117 0.960 . S
H2126 C2118 0.930 . S
H2127 C2119 0.929 . S
H2128 C2136 0.929 . S
H2129 C2138 0.930 . S
H2130 C2140 0.930 . S
H2131 C2143 0.929 . S
H2132 C2146 0.930 . S
H2133 C2148 0.960 . S
H2134 C2148 0.960 . S
H2135 C2148 0.960 . S
C2136 H2128 0.929 . S
C2136 C2137 1.377 . S
C2136 C2138 1.384 . S
C2137 C2136 1.377 . S
C2137 C2143 1.390 . S
C2138 H2129 0.930 . S
C2138 C2136 1.384 . S
C2138 C2139 1.372 . S
C2139 C2138 1.372 . S
C2139 C2140 1.400 . S
C2139 C2144 1.490 . S
C2140 H2130 0.930 . S
C2140 C2139 1.400 . S
C2140 C2143 1.386 . S
H2141 C2157 0.930 . S
H2142 C2158 0.931 . S
C2143 H2131 0.929 . S
C2143 C2137 1.390 . S
C2143 C2140 1.386 . S
C2144 C2139 1.490 . S
C2144 C2146 1.395 . S
C2144 C2147 1.403 . S
H2145 C2151 0.930 . S
C2146 H2132 0.930 . S
C2146 C2144 1.395 . S
C2146 C2149 1.403 . S
C2147 C2144 1.403 . S
C2147 C2148 1.524 . S
C2147 C2151 1.400 . S
C2148 H2133 0.960 . S
C2148 H2134 0.960 . S
C2148 H2135 0.960 . S
C2148 C2147 1.524 . S
C2149 C2146 1.403 . S
C2149 C2150 1.392 . S
C2149 C2153 1.495 . S
C2150 C2149 1.392 . S
C2150 C2151 1.385 . S
C2150 C2152 1.478 . S
C2151 H2145 0.930 . S
C2151 C2147 1.400 . S
C2151 C2150 1.385 . S
C2152 C2150 1.478 . S
C2152 C2154 1.381 . S
C2152 C2158 1.383 . S
C2153 C2149 1.495 . S
C2153 H2159 0.959 . S
C2153 H2160 0.961 . S
C2153 H2161 0.960 . S
C2154 C2152 1.381 . S
C2154 C2155 1.394 . S
C2154 H2162 0.930 . S
C2155 C2154 1.394 . S
C2155 C2156 1.383 . S
C2155 H2163 0.929 . S
C2156 C2155 1.383 . S
C2156 C2157 1.377 . S
C2157 H2141 0.930 . S
C2157 C2156 1.377 . S
C2157 C2158 1.379 . S
C2158 H2142 0.931 . S
C2158 C2152 1.383 . S
C2158 C2157 1.379 . S
H2159 C2153 0.959 . S
H2160 C2153 0.961 . S
H2161 C2153 0.960 . S
H2162 C2154 0.930 . S
H2163 C2155 0.929 . S
H2164 C2172 0.929 . S
H2165 C2174 0.930 . S
H2166 C2176 0.930 . S
H2167 C2179 0.929 . S
H2168 C2182 0.930 . S
H2169 C2184 0.960 . S
H2170 C2184 0.960 . S
H2171 C2184 0.960 . S
C2172 H2164 0.929 . S
C2172 C2173 1.377 . S
C2172 C2174 1.384 . S
C2173 C2172 1.377 . S
C2173 C2179 1.390 . S
C2174 H2165 0.930 . S
C2174 C2172 1.384 . S
C2174 C2175 1.372 . S
C2175 C2174 1.372 . S
C2175 C2176 1.400 . S
C2175 C2180 1.490 . S
C2176 H2166 0.930 . S
C2176 C2175 1.400 . S
C2176 C2179 1.386 . S
H2177 C2193 0.930 . S
H2178 C2194 0.931 . S
C2179 H2167 0.929 . S
C2179 C2173 1.390 . S
C2179 C2176 1.386 . S
C2180 C2175 1.490 . S
C2180 C2182 1.395 . S
C2180 C2183 1.403 . S
H2181 C2187 0.930 . S
C2182 H2168 0.930 . S
C2182 C2180 1.395 . S
C2182 C2185 1.403 . S
C2183 C2180 1.403 . S
C2183 C2184 1.524 . S
C2183 C2187 1.400 . S
C2184 H2169 0.960 . S
C2184 H2170 0.960 . S
C2184 H2171 0.960 . S
C2184 C2183 1.524 . S
C2185 C2182 1.403 . S
C2185 C2186 1.392 . S
C2185 C2189 1.495 . S
C2186 C2185 1.392 . S
C2186 C2187 1.385 . S
C2186 C2188 1.478 . S
C2187 H2181 0.930 . S
C2187 C2183 1.400 . S
C2187 C2186 1.385 . S
C2188 C2186 1.478 . S
C2188 C2190 1.381 . S
C2188 C2194 1.383 . S
C2189 C2185 1.495 . S
C2189 H2195 0.959 . S
C2189 H2196 0.961 . S
C2189 H2197 0.960 . S
C2190 C2188 1.381 . S
C2190 C2191 1.394 . S
C2190 H2198 0.930 . S
C2191 C2190 1.394 . S
C2191 C2192 1.383 . S
C2191 H2199 0.929 . S
C2192 C2191 1.383 . S
C2192 C2193 1.377 . S
C2193 H2177 0.930 . S
C2193 C2192 1.377 . S
C2193 C2194 1.379 . S
C2194 H2178 0.931 . S
C2194 C2188 1.383 . S
C2194 C2193 1.379 . S
H2195 C2189 0.959 . S
H2196 C2189 0.961 . S
H2197 C2189 0.960 . S
H2198 C2190 0.930 . S
H2199 C2191 0.929 . S
H2200 C2208 0.929 . S
H2201 C2210 0.930 . S
H2202 C2212 0.930 . S
H2203 C2215 0.929 . S
H2204 C2218 0.930 . S
H2205 C2220 0.960 . S
H2206 C2220 0.960 . S
H2207 C2220 0.960 . S
C2208 H2200 0.929 . S
C2208 C2209 1.377 . S
C2208 C2210 1.384 . S
C2209 C2208 1.377 . S
C2209 C2215 1.390 . S
C2210 H2201 0.930 . S
C2210 C2208 1.384 . S
C2210 C2211 1.372 . S
C2211 C2210 1.372 . S
C2211 C2212 1.400 . S
C2211 C2216 1.490 . S
C2212 H2202 0.930 . S
C2212 C2211 1.400 . S
C2212 C2215 1.386 . S
H2213 C2229 0.930 . S
H2214 C2230 0.931 . S
C2215 H2203 0.929 . S
C2215 C2209 1.390 . S
C2215 C2212 1.386 . S
C2216 C2211 1.490 . S
C2216 C2218 1.395 . S
C2216 C2219 1.403 . S
H2217 C2223 0.930 . S
C2218 H2204 0.930 . S
C2218 C2216 1.395 . S
C2218 C2221 1.403 . S
C2219 C2216 1.403 . S
C2219 C2220 1.524 . S
C2219 C2223 1.400 . S
C2220 H2205 0.960 . S
C2220 H2206 0.960 . S
C2220 H2207 0.960 . S
C2220 C2219 1.524 . S
C2221 C2218 1.403 . S
C2221 C2222 1.392 . S
C2221 C2225 1.495 . S
C2222 C2221 1.392 . S
C2222 C2223 1.385 . S
C2222 C2224 1.478 . S
C2223 H2217 0.930 . S
C2223 C2219 1.400 . S
C2223 C2222 1.385 . S
C2224 C2222 1.478 . S
C2224 C2226 1.381 . S
C2224 C2230 1.383 . S
C2225 C2221 1.495 . S
C2225 H2231 0.959 . S
C2225 H2232 0.961 . S
C2225 H2233 0.960 . S
C2226 C2224 1.381 . S
C2226 C2227 1.394 . S
C2226 H2234 0.930 . S
C2227 C2226 1.394 . S
C2227 C2228 1.383 . S
C2227 H2235 0.929 . S
C2228 C2227 1.383 . S
C2228 C2229 1.377 . S
C2229 H2213 0.930 . S
C2229 C2228 1.377 . S
C2229 C2230 1.379 . S
C2230 H2214 0.931 . S
C2230 C2224 1.383 . S
C2230 C2229 1.379 . S
H2231 C2225 0.959 . S
H2232 C2225 0.961 . S
H2233 C2225 0.960 . S
H2234 C2226 0.930 . S
H2235 C2227 0.929 . S
H2236 C2244 0.929 . S
H2237 C2246 0.930 . S
H2238 C2248 0.930 . S
H2239 C2251 0.929 . S
H2240 C2254 0.930 . S
H2241 C2256 0.960 . S
H2242 C2256 0.960 . S
H2243 C2256 0.960 . S
C2244 H2236 0.929 . S
C2244 C2245 1.377 . S
C2244 C2246 1.384 . S
C2245 C2244 1.377 . S
C2245 C2251 1.390 . S
C2246 H2237 0.930 . S
C2246 C2244 1.384 . S
C2246 C2247 1.372 . S
C2247 C2246 1.372 . S
C2247 C2248 1.400 . S
C2247 C2252 1.490 . S
C2248 H2238 0.930 . S
C2248 C2247 1.400 . S
C2248 C2251 1.386 . S
H2249 C2265 0.930 . S
H2250 C2266 0.931 . S
C2251 H2239 0.929 . S
C2251 C2245 1.390 . S
C2251 C2248 1.386 . S
C2252 C2247 1.490 . S
C2252 C2254 1.395 . S
C2252 C2255 1.403 . S
H2253 C2259 0.930 . S
C2254 H2240 0.930 . S
C2254 C2252 1.395 . S
C2254 C2257 1.403 . S
C2255 C2252 1.403 . S
C2255 C2256 1.524 . S
C2255 C2259 1.400 . S
C2256 H2241 0.960 . S
C2256 H2242 0.960 . S
C2256 H2243 0.960 . S
C2256 C2255 1.524 . S
C2257 C2254 1.403 . S
C2257 C2258 1.392 . S
C2257 C2261 1.495 . S
C2258 C2257 1.392 . S
C2258 C2259 1.385 . S
C2258 C2260 1.478 . S
C2259 H2253 0.930 . S
C2259 C2255 1.400 . S
C2259 C2258 1.385 . S
C2260 C2258 1.478 . S
C2260 C2262 1.381 . S
C2260 C2266 1.383 . S
C2261 C2257 1.495 . S
C2261 H2267 0.959 . S
C2261 H2268 0.961 . S
C2261 H2269 0.960 . S
C2262 C2260 1.381 . S
C2262 C2263 1.394 . S
C2262 H2270 0.930 . S
C2263 C2262 1.394 . S
C2263 C2264 1.383 . S
C2263 H2271 0.929 . S
C2264 C2263 1.383 . S
C2264 C2265 1.377 . S
C2265 H2249 0.930 . S
C2265 C2264 1.377 . S
C2265 C2266 1.379 . S
C2266 H2250 0.931 . S
C2266 C2260 1.383 . S
C2266 C2265 1.379 . S
H2267 C2261 0.959 . S
H2268 C2261 0.961 . S
H2269 C2261 0.960 . S
H2270 C2262 0.930 . S
H2271 C2263 0.929 . S
H2272 C2280 0.929 . S
H2273 C2282 0.930 . S
H2274 C2284 0.930 . S
H2275 C2287 0.929 . S
H2276 C2290 0.930 . S
H2277 C2292 0.960 . S
H2278 C2292 0.960 . S
H2279 C2292 0.960 . S
C2280 H2272 0.929 . S
C2280 C2281 1.377 . S
C2280 C2282 1.384 . S
C2281 C2280 1.377 . S
C2281 C2287 1.390 . S
C2282 H2273 0.930 . S
C2282 C2280 1.384 . S
C2282 C2283 1.372 . S
C2283 C2282 1.372 . S
C2283 C2284 1.400 . S
C2283 C2288 1.490 . S
C2284 H2274 0.930 . S
C2284 C2283 1.400 . S
C2284 C2287 1.386 . S
H2285 C2301 0.930 . S
H2286 C2302 0.931 . S
C2287 H2275 0.929 . S
C2287 C2281 1.390 . S
C2287 C2284 1.386 . S
C2288 C2283 1.490 . S
C2288 C2290 1.395 . S
C2288 C2291 1.403 . S
H2289 C2295 0.930 . S
C2290 H2276 0.930 . S
C2290 C2288 1.395 . S
C2290 C2293 1.403 . S
C2291 C2288 1.403 . S
C2291 C2292 1.524 . S
C2291 C2295 1.400 . S
C2292 H2277 0.960 . S
C2292 H2278 0.960 . S
C2292 H2279 0.960 . S
C2292 C2291 1.524 . S
C2293 C2290 1.403 . S
C2293 C2294 1.392 . S
C2293 C2297 1.495 . S
C2294 C2293 1.392 . S
C2294 C2295 1.385 . S
C2294 C2296 1.478 . S
C2295 H2289 0.930 . S
C2295 C2291 1.400 . S
C2295 C2294 1.385 . S
C2296 C2294 1.478 . S
C2296 C2298 1.381 . S
C2296 C2302 1.383 . S
C2297 C2293 1.495 . S
C2297 H2303 0.959 . S
C2297 H2304 0.961 . S
C2297 H2305 0.960 . S
C2298 C2296 1.381 . S
C2298 C2299 1.394 . S
C2298 H2306 0.930 . S
C2299 C2298 1.394 . S
C2299 C2300 1.383 . S
C2299 H2307 0.929 . S
C2300 C2299 1.383 . S
C2300 C2301 1.377 . S
C2301 H2285 0.930 . S
C2301 C2300 1.377 . S
C2301 C2302 1.379 . S
C2302 H2286 0.931 . S
C2302 C2296 1.383 . S
C2302 C2301 1.379 . S
H2303 C2297 0.959 . S
H2304 C2297 0.961 . S
H2305 C2297 0.960 . S
H2306 C2298 0.930 . S
H2307 C2299 0.929 . S
H2308 C2316 0.929 . S
H2309 C2318 0.930 . S
H2310 C2320 0.930 . S
H2311 C2323 0.929 . S
H2312 C2326 0.930 . S
H2313 C2328 0.960 . S
H2314 C2328 0.960 . S
H2315 C2328 0.960 . S
C2316 H2308 0.929 . S
C2316 C2317 1.377 . S
C2316 C2318 1.384 . S
C2317 C2316 1.377 . S
C2317 C2323 1.390 . S
C2318 H2309 0.930 . S
C2318 C2316 1.384 . S
C2318 C2319 1.372 . S
C2319 C2318 1.372 . S
C2319 C2320 1.400 . S
C2319 C2324 1.490 . S
C2320 H2310 0.930 . S
C2320 C2319 1.400 . S
C2320 C2323 1.386 . S
H2321 C2337 0.930 . S
H2322 C2338 0.931 . S
C2323 H2311 0.929 . S
C2323 C2317 1.390 . S
C2323 C2320 1.386 . S
C2324 C2319 1.490 . S
C2324 C2326 1.395 . S
C2324 C2327 1.403 . S
H2325 C2331 0.930 . S
C2326 H2312 0.930 . S
C2326 C2324 1.395 . S
C2326 C2329 1.403 . S
C2327 C2324 1.403 . S
C2327 C2328 1.524 . S
C2327 C2331 1.400 . S
C2328 H2313 0.960 . S
C2328 H2314 0.960 . S
C2328 H2315 0.960 . S
C2328 C2327 1.524 . S
C2329 C2326 1.403 . S
C2329 C2330 1.392 . S
C2329 C2333 1.495 . S
C2330 C2329 1.392 . S
C2330 C2331 1.385 . S
C2330 C2332 1.478 . S
C2331 H2325 0.930 . S
C2331 C2327 1.400 . S
C2331 C2330 1.385 . S
C2332 C2330 1.478 . S
C2332 C2334 1.381 . S
C2332 C2338 1.383 . S
C2333 C2329 1.495 . S
C2333 H2339 0.959 . S
C2333 H2340 0.961 . S
C2333 H2341 0.960 . S
C2334 C2332 1.381 . S
C2334 C2335 1.394 . S
C2334 H2342 0.930 . S
C2335 C2334 1.394 . S
C2335 C2336 1.383 . S
C2335 H2343 0.929 . S
C2336 C2335 1.383 . S
C2336 C2337 1.377 . S
C2337 H2321 0.930 . S
C2337 C2336 1.377 . S
C2337 C2338 1.379 . S
C2338 H2322 0.931 . S
C2338 C2332 1.383 . S
C2338 C2337 1.379 . S
H2339 C2333 0.959 . S
H2340 C2333 0.961 . S
H2341 C2333 0.960 . S
H2342 C2334 0.930 . S
H2343 C2335 0.929 . S
H2344 C2352 0.929 . S
H2345 C2354 0.930 . S
H2346 C2356 0.930 . S
H2347 C2359 0.929 . S
H2348 C2362 0.930 . S
H2349 C2364 0.960 . S
H2350 C2364 0.960 . S
H2351 C2364 0.960 . S
C2352 H2344 0.929 . S
C2352 C2353 1.377 . S
C2352 C2354 1.384 . S
C2353 C2352 1.377 . S
C2353 C2359 1.390 . S
C2354 H2345 0.930 . S
C2354 C2352 1.384 . S
C2354 C2355 1.372 . S
C2355 C2354 1.372 . S
C2355 C2356 1.400 . S
C2355 C2360 1.490 . S
C2356 H2346 0.930 . S
C2356 C2355 1.400 . S
C2356 C2359 1.386 . S
H2357 C2373 0.930 . S
H2358 C2374 0.931 . S
C2359 H2347 0.929 . S
C2359 C2353 1.390 . S
C2359 C2356 1.386 . S
C2360 C2355 1.490 . S
C2360 C2362 1.395 . S
C2360 C2363 1.403 . S
H2361 C2367 0.930 . S
C2362 H2348 0.930 . S
C2362 C2360 1.395 . S
C2362 C2365 1.403 . S
C2363 C2360 1.403 . S
C2363 C2364 1.524 . S
C2363 C2367 1.400 . S
C2364 H2349 0.960 . S
C2364 H2350 0.960 . S
C2364 H2351 0.960 . S
C2364 C2363 1.524 . S
C2365 C2362 1.403 . S
C2365 C2366 1.392 . S
C2365 C2369 1.495 . S
C2366 C2365 1.392 . S
C2366 C2367 1.385 . S
C2366 C2368 1.478 . S
C2367 H2361 0.930 . S
C2367 C2363 1.400 . S
C2367 C2366 1.385 . S
C2368 C2366 1.478 . S
C2368 C2370 1.381 . S
C2368 C2374 1.383 . S
C2369 C2365 1.495 . S
C2369 H2375 0.959 . S
C2369 H2376 0.961 . S
C2369 H2377 0.960 . S
C2370 C2368 1.381 . S
C2370 C2371 1.394 . S
C2370 H2378 0.930 . S
C2371 C2370 1.394 . S
C2371 C2372 1.383 . S
C2371 H2379 0.929 . S
C2372 C2371 1.383 . S
C2372 C2373 1.377 . S
C2373 H2357 0.930 . S
C2373 C2372 1.377 . S
C2373 C2374 1.379 . S
C2374 H2358 0.931 . S
C2374 C2368 1.383 . S
C2374 C2373 1.379 . S
H2375 C2369 0.959 . S
H2376 C2369 0.961 . S
H2377 C2369 0.960 . S
H2378 C2370 0.930 . S
H2379 C2371 0.929 . S
H2380 C2388 0.929 . S
H2381 C2390 0.930 . S
H2382 C2392 0.930 . S
H2383 C2395 0.929 . S
H2384 C2398 0.930 . S
H2385 C2400 0.960 . S
H2386 C2400 0.960 . S
H2387 C2400 0.960 . S
C2388 H2380 0.929 . S
C2388 C2389 1.377 . S
C2388 C2390 1.384 . S
C2389 C2388 1.377 . S
C2389 C2395 1.390 . S
C2390 H2381 0.930 . S
C2390 C2388 1.384 . S
C2390 C2391 1.372 . S
C2391 C2390 1.372 . S
C2391 C2392 1.400 . S
C2391 C2396 1.490 . S
C2392 H2382 0.930 . S
C2392 C2391 1.400 . S
C2392 C2395 1.386 . S
H2393 C2409 0.930 . S
H2394 C2410 0.931 . S
C2395 H2383 0.929 . S
C2395 C2389 1.390 . S
C2395 C2392 1.386 . S
C2396 C2391 1.490 . S
C2396 C2398 1.395 . S
C2396 C2399 1.403 . S
H2397 C2403 0.930 . S
C2398 H2384 0.930 . S
C2398 C2396 1.395 . S
C2398 C2401 1.403 . S
C2399 C2396 1.403 . S
C2399 C2400 1.524 . S
C2399 C2403 1.400 . S
C2400 H2385 0.960 . S
C2400 H2386 0.960 . S
C2400 H2387 0.960 . S
C2400 C2399 1.524 . S
C2401 C2398 1.403 . S
C2401 C2402 1.392 . S
C2401 C2405 1.495 . S
C2402 C2401 1.392 . S
C2402 C2403 1.385 . S
C2402 C2404 1.478 . S
C2403 H2397 0.930 . S
C2403 C2399 1.400 . S
C2403 C2402 1.385 . S
C2404 C2402 1.478 . S
C2404 C2406 1.381 . S
C2404 C2410 1.383 . S
C2405 C2401 1.495 . S
C2405 H2411 0.959 . S
C2405 H2412 0.961 . S
C2405 H2413 0.960 . S
C2406 C2404 1.381 . S
C2406 C2407 1.394 . S
C2406 H2414 0.930 . S
C2407 C2406 1.394 . S
C2407 C2408 1.383 . S
C2407 H2415 0.929 . S
C2408 C2407 1.383 . S
C2408 C2409 1.377 . S
C2409 H2393 0.930 . S
C2409 C2408 1.377 . S
C2409 C2410 1.379 . S
C2410 H2394 0.931 . S
C2410 C2404 1.383 . S
C2410 C2409 1.379 . S
H2411 C2405 0.959 . S
H2412 C2405 0.961 . S
H2413 C2405 0.960 . S
H2414 C2406 0.930 . S
H2415 C2407 0.929 . S
H2416 C2424 0.943 . S
H2417 C2426 0.930 . S
H2418 C2428 0.930 . S
H2419 C2431 0.929 1_565 S
H2420 C2434 0.930 . S
H2421 C2436 0.960 . S
H2422 C2436 0.960 . S
H2423 C2436 0.960 . S
C2424 H2416 0.943 . S
C2424 C2425 1.377 1_545 S
C2424 C2426 1.384 . S
C2425 C2424 1.377 1_565 S
C2425 C2431 1.390 1_565 S
C2426 H2417 0.930 . S
C2426 C2424 1.384 . S
C2426 C2427 1.372 . S
C2427 C2426 1.372 . S
C2427 C2428 1.400 . S
C2427 C2432 1.490 . S
C2428 H2418 0.930 . S
C2428 C2427 1.400 . S
C2428 C2431 1.386 . S
H2429 C2445 0.930 . S
H2430 C2446 0.931 . S
C2431 H2419 0.929 1_545 S
C2431 C2425 1.390 1_545 S
C2431 C2428 1.386 . S
C2432 C2427 1.490 . S
C2432 C2434 1.395 . S
C2432 C2435 1.403 . S
H2433 C2439 0.930 . S
C2434 H2420 0.930 . S
C2434 C2432 1.395 . S
C2434 C2437 1.403 . S
C2435 C2432 1.403 . S
C2435 C2436 1.524 . S
C2435 C2439 1.400 . S
C2436 H2421 0.960 . S
C2436 H2422 0.960 . S
C2436 H2423 0.960 . S
C2436 C2435 1.524 . S
C2437 C2434 1.403 . S
C2437 C2438 1.392 . S
C2437 C2441 1.495 . S
C2438 C2437 1.392 . S
C2438 C2439 1.385 . S
C2438 C2440 1.478 . S
C2439 H2433 0.930 . S
C2439 C2435 1.400 . S
C2439 C2438 1.385 . S
C2440 C2438 1.478 . S
C2440 C2442 1.381 . S
C2440 C2446 1.383 . S
C2441 C2437 1.495 . S
C2441 H2447 0.959 . S
C2441 H2448 0.961 . S
C2441 H2449 0.960 . S
C2442 C2440 1.381 . S
C2442 C2443 1.394 . S
C2442 H2450 0.930 . S
C2443 C2442 1.394 . S
C2443 C2444 1.383 . S
C2443 H2451 0.929 . S
C2444 C2443 1.383 . S
C2444 C2445 1.377 . S
C2445 H2429 0.930 . S
C2445 C2444 1.377 . S
C2445 C2446 1.379 . S
C2446 H2430 0.931 . S
C2446 C2440 1.383 . S
C2446 C2445 1.379 . S
H2447 C2441 0.959 . S
H2448 C2441 0.961 . S
H2449 C2441 0.960 . S
H2450 C2442 0.930 . S
H2451 C2443 0.929 . S
H2452 C2460 0.929 . S
H2453 C2462 0.930 . S
H2454 C2464 0.930 . S
H2455 C2467 0.929 . S
H2456 C2470 0.930 . S
H2457 C2472 0.960 . S
H2458 C2472 0.960 . S
H2459 C2472 0.960 . S
C2460 H2452 0.929 . S
C2460 C2461 1.377 . S
C2460 C2462 1.384 . S
C2461 C2460 1.377 . S
C2461 C2467 1.390 . S
C2462 H2453 0.930 . S
C2462 C2460 1.384 . S
C2462 C2463 1.372 . S
C2463 C2462 1.372 . S
C2463 C2464 1.400 . S
C2463 C2468 1.490 . S
C2464 H2454 0.930 . S
C2464 C2463 1.400 . S
C2464 C2467 1.386 . S
H2465 C2481 0.930 . S
H2466 C2482 0.931 . S
C2467 H2455 0.929 . S
C2467 C2461 1.390 . S
C2467 C2464 1.386 . S
C2468 C2463 1.490 . S
C2468 C2470 1.395 . S
C2468 C2471 1.403 . S
H2469 C2475 0.930 . S
C2470 H2456 0.930 . S
C2470 C2468 1.395 . S
C2470 C2473 1.403 . S
C2471 C2468 1.403 . S
C2471 C2472 1.524 . S
C2471 C2475 1.400 . S
C2472 H2457 0.960 . S
C2472 H2458 0.960 . S
C2472 H2459 0.960 . S
C2472 C2471 1.524 . S
C2473 C2470 1.403 . S
C2473 C2474 1.392 . S
C2473 C2477 1.495 . S
C2474 C2473 1.392 . S
C2474 C2475 1.385 . S
C2474 C2476 1.478 . S
C2475 H2469 0.930 . S
C2475 C2471 1.400 . S
C2475 C2474 1.385 . S
C2476 C2474 1.478 . S
C2476 C2478 1.381 . S
C2476 C2482 1.383 . S
C2477 C2473 1.495 . S
C2477 H2483 0.959 . S
C2477 H2484 0.961 . S
C2477 H2485 0.960 . S
C2478 C2476 1.381 . S
C2478 C2479 1.394 . S
C2478 H2486 0.930 . S
C2479 C2478 1.394 . S
C2479 C2480 1.383 1_455 S
C2479 H2487 0.929 1_455 S
C2480 C2479 1.383 1_655 S
C2480 C2481 1.377 1_655 S
C2481 H2465 0.930 . S
C2481 C2480 1.377 1_455 S
C2481 C2482 1.379 . S
C2482 H2466 0.931 . S
C2482 C2476 1.383 . S
C2482 C2481 1.379 . S
H2483 C2477 0.959 . S
H2484 C2477 0.961 . S
H2485 C2477 0.960 . S
H2486 C2478 0.930 . S
H2487 C2479 0.929 1_655 S
H2488 C2496 0.929 . S
H2489 C2498 0.930 . S
H2490 C2500 0.930 . S
H2491 C2503 0.929 . S
H2492 C2506 0.930 . S
H2493 C2508 0.960 . S
H2494 C2508 0.960 . S
H2495 C2508 0.960 . S
C2496 H2488 0.929 . S
C2496 C2497 1.377 . S
C2496 C2498 1.384 1_545 S
C2497 C2496 1.377 . S
C2497 C2503 1.390 1_545 S
C2498 H2489 0.930 . S
C2498 C2496 1.384 1_565 S
C2498 C2499 1.372 . S
C2499 C2498 1.372 . S
C2499 C2500 1.400 . S
C2499 C2504 1.490 . S
C2500 H2490 0.930 . S
C2500 C2499 1.400 . S
C2500 C2503 1.386 . S
H2501 C2517 0.930 . S
H2502 C2518 0.931 . S
C2503 H2491 0.929 . S
C2503 C2497 1.390 1_565 S
C2503 C2500 1.386 . S
C2504 C2499 1.490 . S
C2504 C2506 1.395 . S
C2504 C2507 1.403 . S
H2505 C2511 0.930 . S
C2506 H2492 0.930 . S
C2506 C2504 1.395 . S
C2506 C2509 1.403 . S
C2507 C2504 1.403 . S
C2507 C2508 1.524 . S
C2507 C2511 1.400 . S
C2508 H2493 0.960 . S
C2508 H2494 0.960 . S
C2508 H2495 0.960 . S
C2508 C2507 1.524 . S
C2509 C2506 1.403 . S
C2509 C2510 1.392 . S
C2509 C2513 1.495 . S
C2510 C2509 1.392 . S
C2510 C2511 1.385 . S
C2510 C2512 1.478 . S
C2511 H2505 0.930 . S
C2511 C2507 1.400 . S
C2511 C2510 1.385 . S
C2512 C2510 1.478 . S
C2512 C2514 1.381 . S
C2512 C2518 1.383 . S
C2513 C2509 1.495 . S
C2513 H2519 0.959 . S
C2513 H2520 0.961 . S
C2513 H2521 0.960 . S
C2514 C2512 1.381 . S
C2514 C2515 1.394 . S
C2514 H2522 0.930 . S
C2515 C2514 1.394 . S
C2515 C2516 1.383 . S
C2515 H2523 0.929 . S
C2516 C2515 1.383 . S
C2516 C2517 1.377 . S
C2517 H2501 0.930 . S
C2517 C2516 1.377 . S
C2517 C2518 1.379 . S
C2518 H2502 0.931 . S
C2518 C2512 1.383 . S
C2518 C2517 1.379 . S
H2519 C2513 0.959 . S
H2520 C2513 0.961 . S
H2521 C2513 0.960 . S
H2522 C2514 0.930 . S
H2523 C2515 0.929 . S
H2524 C2532 0.929 . S
H2525 C2534 0.930 . S
H2526 C2536 0.930 . S
H2527 C2539 0.929 . S
H2528 C2542 0.930 . S
H2529 C2544 0.960 . S
H2530 C2544 0.960 . S
H2531 C2544 0.960 . S
C2532 H2524 0.929 . S
C2532 C2533 1.377 . S
C2532 C2534 1.384 . S
C2533 C2532 1.377 . S
C2533 C2539 1.390 . S
C2534 H2525 0.930 . S
C2534 C2532 1.384 . S
C2534 C2535 1.372 . S
C2535 C2534 1.372 . S
C2535 C2536 1.400 . S
C2535 C2540 1.490 . S
C2536 H2526 0.930 . S
C2536 C2535 1.400 . S
C2536 C2539 1.386 . S
H2537 C2553 0.930 . S
H2538 C2554 0.931 . S
C2539 H2527 0.929 . S
C2539 C2533 1.390 . S
C2539 C2536 1.386 . S
C2540 C2535 1.490 . S
C2540 C2542 1.395 . S
C2540 C2543 1.403 . S
H2541 C2547 0.930 . S
C2542 H2528 0.930 . S
C2542 C2540 1.395 . S
C2542 C2545 1.403 . S
C2543 C2540 1.403 . S
C2543 C2544 1.524 . S
C2543 C2547 1.400 . S
C2544 H2529 0.960 . S
C2544 H2530 0.960 . S
C2544 H2531 0.960 . S
C2544 C2543 1.524 . S
C2545 C2542 1.403 . S
C2545 C2546 1.392 . S
C2545 C2549 1.495 . S
C2546 C2545 1.392 . S
C2546 C2547 1.385 . S
C2546 C2548 1.478 . S
C2547 H2541 0.930 . S
C2547 C2543 1.400 . S
C2547 C2546 1.385 . S
C2548 C2546 1.478 . S
C2548 C2550 1.381 . S
C2548 C2554 1.383 . S
C2549 C2545 1.495 . S
C2549 H2555 0.959 . S
C2549 H2556 0.961 . S
C2549 H2557 0.960 . S
C2550 C2548 1.381 . S
C2550 C2551 1.388 1_655 S
C2550 H2558 0.930 . S
C2551 C2550 1.388 1_455 S
C2551 C2552 1.385 . S
C2551 H2559 0.934 . S
C2552 C2551 1.385 . S
C2552 C2553 1.377 1_455 S
C2553 H2537 0.930 . S
C2553 C2552 1.377 1_655 S
C2553 C2554 1.379 . S
C2554 H2538 0.931 . S
C2554 C2548 1.383 . S
C2554 C2553 1.379 . S
H2555 C2549 0.959 . S
H2556 C2549 0.961 . S
H2557 C2549 0.960 . S
H2558 C2550 0.930 . S
H2559 C2551 0.934 . S
C553 C90 0.556 . S
C572 C15 0.508 . S
C589 C117 0.549 . S
C608 C49 0.657 . S
C625 C158 0.583 . S
C644 C219 0.643 . S
C661 C253 0.554 . S
C680 C185 0.656 . S
C697 C287 0.567 . S
C716 C362 0.561 . S
C733 C396 0.566 . S
C752 C321 0.498 . S
C769 C430 0.579 . S
C788 C491 0.621 . S
C805 C532 0.549 . S
C824 C457 0.587 . S
C841 C28 0.419 . S
C860 C142 0.353 . S
C877 C62 0.446 . S
C896 C198 0.349 . S
C913 C74 0.414 . S
C932 C232 0.346 . S
C949 C266 0.451 . S
C968 C130 0.352 . S
C985 C300 0.436 . S
C1004 C414 0.497 . S
C1021 C470 0.444 . S
C1040 C334 0.353 . S
C1057 C504 0.438 . S
C1076 C346 0.433 . S
C1093 C516 0.422 . S
C1112 C380 0.519 . S
C1129 C17 3.109 . S
C1148 C511 2.965 . S
C1165 C51 3.107 . S
C1184 C409 2.972 . S
C1201 C445 2.989 . S
C1220 C85 3.093 . S
C1237 C479 2.985 . S
C1256 C119 3.111 . S
C1273 C37 2.992 1_554 S
C1292 C153 3.095 . S
C1309 C69 2.986 1_556 S
C1328 C187 3.113 . S
C1345 C221 3.109 . S
C1364 C105 2.965 1_554 S
C1381 C3 2.984 1_556 S
C1400 C255 3.105 . S
C1417 C241 2.987 . S
C1436 C289 3.113 . S
C1453 C137 2.986 . S
C1472 C323 3.114 . S
C1489 C357 3.107 . S
C1508 C173 2.977 . S
C1525 C207 2.985 . S
C1544 C391 3.102 . S
C1561 C425 3.110 . S
C1580 C309 2.978 . S
C1597 C341 2.986 . S
C1616 C459 3.098 . S
C1633 C493 3.106 . S
C1652 C375 3.001 . S
C1669 C527 3.106 . S
C1688 C275 2.996 . S
C1705 C477 1.648 . S
C1724 C1 1.623 1_556 S
C1741 C35 1.647 1_554 S
C1760 C513 1.662 . S
C1777 C411 1.638 . S
C1796 C71 1.665 1_556 S
C1813 C103 1.641 1_554 S
C1832 C443 1.637 . S
C1849 C139 1.648 . S
C1868 C343 1.615 . S
C1885 C377 1.638 . S
C1904 C171 1.614 . S
C1921 C205 1.641 . S
C1940 C273 1.664 . S
C1957 C307 1.648 . S
C1976 C239 1.665 . S
C1993 C56 0.700 . S
C2012 C6 0.665 . S
C2029 C40 0.682 . S
C2048 C83 0.688 . S
C2065 C96 0.684 . S
C2084 C124 0.631 . S
C2101 C108 0.690 . S
C2120 C22 0.745 . S
C2137 C164 0.685 . S
C2156 C525 0.627 . S
C2173 C423 0.712 . S
C2192 C176 0.706 . S
C2209 C210 0.682 . S
C2228 C464 0.743 . S
C2245 C244 0.681 . S
C2264 C498 0.630 . S
C2281 C328 0.691 . S
C2300 C278 0.675 . S
C2317 C355 0.711 . S
C2336 C312 0.677 . S
C2353 C368 0.687 . S
C2372 C389 0.634 . S
C2389 C402 0.682 . S
C2408 C294 0.694 . S
C2425 C436 0.686 . S
C2444 C260 0.632 . S
C2461 C151 0.713 . S
C2480 C448 0.706 . S
C2497 C482 0.682 . S
C2516 C192 0.752 . S
C2533 C226 0.716 . S
C2552 C538 0.707 . S
