# Generated by pormake.
# Topology kag, (6)-cn, num edge types: 1
# Building blocks:
#     Node 0, Type 0, BuildingBlock: NUHQIS_clean_sbu_0, # of connection points: 6
#     Node 1, Type 0, BuildingBlock: NUHQIS_clean_sbu_0, # of connection points: 6
#     Node 2, Type 0, BuildingBlock: NUHQIS_clean_sbu_0, # of connection points: 6
#     Edge 3, Type (0, 0), BuildingBlock: FUNLAD_clean_linker_0, # of connection points: 2
#     Edge 4, Type (0, 0), BuildingBlock: FUNLAD_clean_linker_0, # of connection points: 2
#     Edge 5, Type (0, 0), BuildingBlock: FUNLAD_clean_linker_0, # of connection points: 2
#     Edge 6, Type (0, 0), BuildingBlock: FUNLAD_clean_linker_0, # of connection points: 2
#     Edge 7, Type (0, 0), BuildingBlock: FUNLAD_clean_linker_0, # of connection points: 2
#     Edge 8, Type (0, 0), BuildingBlock: FUNLAD_clean_linker_0, # of connection points: 2
#     Edge 9, Type (0, 0), BuildingBlock: FUNLAD_clean_linker_0, # of connection points: 2
#     Edge 10, Type (0, 0), BuildingBlock: FUNLAD_clean_linker_0, # of connection points: 2
#     Edge 11, Type (0, 0), BuildingBlock: FUNLAD_clean_linker_0, # of connection points: 2
# Relax obj value: 0.064
# Max RMSD: 0.175
# Mean RMSD: 0.101
data_MOF--net-kag--node1-NUHQIS_clean_sbu_0--edge1-FUNLAD_clean_linker_0
_symmetry_space_group_name_H-M    P1
_symmetry_Int_Tables_number       1
_symmetry_cell_setting            triclinic
loop_
_symmetry_equiv_pos_as_xyz
'x, y, z'
_cell_length_a     55.064192
_cell_length_b     35.832275
_cell_length_c     17.733797
_cell_angle_alpha  87.906793
_cell_angle_beta   96.911858
_cell_angle_gamma 122.51004
loop_
_atom_site_label
_atom_site_type_symbol
_atom_site_fract_x
_atom_site_fract_y
_atom_site_fract_z
_atom_type_partial_charge
Tb0 Tb 0.03908 0.51002 0.01638 0.0
Eu1 Eu 1.0258 0.58999 0.01448 0.0
C2 C 0.03513 0.54776 0.16645 0.0
C3 C 0.97479 0.487 0.00965 0.0
C4 C 0.07876 0.45338 0.00618 0.0
C5 C 0.10958 0.42408 0.03371 0.0
C6 C 0.08421 0.42274 0.04217 0.0
C7 C 0.09905 0.48551 0.96127 0.0
C8 C 0.12441 0.48673 0.95231 0.0
C9 C 0.13007 0.45607 0.98864 0.0
C10 C 0.05276 0.45294 0.01999 0.0
O11 O 0.04742 0.53974 0.90583 0.0
O12 O 1.01417 0.55953 0.89664 0.0
O13 O 0.07282 0.62443 -0.00406 0.0
O14 O 0.08091 0.57108 0.045 0.0
C15 C 1.03045 0.54985 0.86455 0.0
O16 O 1.01451 0.63351 0.95185 0.0
O17 O 1.01923 0.63532 0.07457 0.0
O18 O 0.0433 0.58545 0.13349 0.0
O19 O 1.02559 0.51152 0.12595 0.0
O20 O 0.99211 0.47595 0.987 0.0
O21 O 0.98455 0.52708 0.03564 0.0
C22 C 0.09046 0.61127 0.02072 0.0
O23 O 0.05605 0.47652 0.07897 0.0
O24 O 0.03824 0.45823 0.96142 0.0
C25 C 0.98202 0.64311 0.01145 0.0
C26 C 0.92794 0.63495 0.00971 0.0
C27 C 0.95082 0.67133 0.97681 0.0
C28 C 0.97764 0.67538 0.97781 0.0
C29 C 0.95909 0.60639 0.04315 0.0
C30 C 0.93238 0.6024 0.04247 0.0
C31 C 1.01032 0.64753 0.0128 0.0
H32 H 0.11339 0.40057 0.06399 0.0
H33 H 0.06902 0.39814 0.07798 0.0
H34 H 0.09539 0.50984 0.93366 0.0
H35 H 0.13949 0.51157 0.91667 0.0
H36 H 0.94821 0.69715 0.95169 0.0
H37 H 0.99501 0.70385 0.95276 0.0
H38 H 0.9619 0.58087 0.06885 0.0
H39 H 0.91511 0.57365 0.06728 0.0
Tb40 Tb 0.56707 0.0817 0.97432 0.0
Eu41 Eu 0.49571 1.02755 0.96421 0.0
C42 C 0.53584 0.0549 0.12203 0.0
C43 C 0.52959 0.97616 0.97558 0.0
C44 C 0.64988 0.16333 -0.00763 0.0
C45 C 0.69706 0.20307 0.06884 0.0
C46 C 0.66799 0.16807 0.0592 0.0
C47 C 0.66117 0.19546 0.93681 0.0
C48 C 0.69023 0.23036 0.94636 0.0
C49 C 0.70872 0.23383 0.01147 0.0
C50 C 0.62144 0.12142 0.97515 0.0
O51 O 0.54809 1.05009 0.86206 0.0
O52 O 0.50965 0.05784 0.85183 0.0
O53 O 0.5126 0.09823 -0.00312 0.0
O54 O 0.55755 0.13348 0.95491 0.0
C55 C 0.52852 0.05421 0.81981 0.0
O56 O 0.45305 0.98244 0.90153 0.0
O57 O 0.45666 1.01597 0.00582 0.0
O58 O 0.51234 1.02224 0.08354 0.0
O59 O 0.55699 0.08696 0.08734 0.0
O60 O 0.55399 1.0137 -0.003 0.0
O61 O 0.50533 0.97425 0.95185 0.0
C62 C 0.53607 0.1343 0.97853 0.0
O63 O 0.60764 0.09866 0.03158 0.0
O64 O 0.60381 0.12009 0.91765 0.0
C65 C 0.41114 0.94899 0.96823 0.0
C66 C 0.35344 0.8842 -0.00751 0.0
C67 C 0.36281 0.88779 0.92072 0.0
C68 C 0.39129 0.91993 0.90871 0.0
C69 C 0.4022 0.94416 0.0409 0.0
C70 C 0.37366 0.91205 0.05289 0.0
C71 C 0.4392 0.98771 0.95075 0.0
H72 H 0.71077 0.20459 0.11938 0.0
H73 H 0.66011 0.14347 0.10247 0.0
H74 H 0.64794 0.19259 0.88424 0.0
H75 H 0.69847 0.25392 0.90164 0.0
H76 H 0.34775 0.86726 0.87274 0.0
H77 H 0.39743 0.92334 0.85186 0.0
H78 H 0.41689 0.96619 0.08794 0.0
H79 H 0.36722 0.90971 0.10909 0.0
Tb80 Tb 0.49359 0.51937 0.98085 0.0
Eu81 Eu 0.56531 0.58209 -0.00562 0.0
C82 C 0.5259 0.54803 0.83582 0.0
C83 C 0.53044 0.47542 0.98444 0.0
C84 C 0.41468 0.48163 0.97044 0.0
C85 C 0.37357 0.47961 0.89688 0.0
C86 C 0.3977 0.47575 0.90067 0.0
C87 C 0.40709 0.49185 0.03618 0.0
C88 C 0.38295 0.49552 0.03241 0.0
C89 C 0.36569 0.48895 0.96292 0.0
C90 C 0.43878 0.47394 0.97561 0.0
O91 O 0.51149 0.51747 0.09658 0.0
O92 O 0.55108 0.58767 0.10432 0.0
O93 O 0.54975 0.62843 0.96582 0.0
O94 O 0.5038 0.58611 0.00218 0.0
C95 C 0.53147 0.55297 0.1373 0.0
O96 O 0.60684 0.60737 0.0644 0.0
O97 O 0.60594 0.62808 0.94812 0.0
O98 O 0.54897 0.55239 0.87587 0.0
O99 O 0.50514 0.54603 0.86909 0.0
O100 O 0.5066 0.47373 0.95633 0.0
O101 O 0.55356 0.51202 0.01535 0.0
C102 C 0.5257 0.62413 0.98239 0.0
O103 O 0.45251 0.48197 0.91626 0.0
O104 O 0.45662 0.48743 0.03811 0.0
C105 C 0.64693 0.62532 0.00067 0.0
C106 C 0.69545 0.61931 0.98809 0.0
C107 C 0.69521 0.64274 0.04962 0.0
C108 C 0.67125 0.64574 0.05569 0.0
C109 C 0.6469 0.60166 0.93914 0.0
C110 C 0.67103 0.59885 0.93275 0.0
C111 C 0.62209 0.6293 0.00953 0.0
H112 H 0.36055 0.4739 0.84259 0.0
H113 H 0.40271 0.46726 0.84918 0.0
H114 H 0.4195 0.49633 0.09104 0.0
H115 H 0.3777 0.5033 0.08418 0.0
H116 H 0.71378 0.65938 0.09265 0.0
H117 H 0.67173 0.6642 0.10353 0.0
H118 H 0.62828 0.58531 0.8962 0.0
H119 H 0.67042 0.5802 0.88506 0.0
C120 C 0.04673 0.53984 0.74484 0.0
C121 C 1.03035 0.55177 0.78089 0.0
C122 C 0.04706 0.54244 0.66603 0.0
C123 C 0.03091 0.55694 0.62142 0.0
C124 C 1.01477 0.56918 0.65759 0.0
C125 C 1.01434 0.5664 0.7363 0.0
C126 C 0.03118 0.56123 0.53769 0.0
C127 C 0.03657 0.53714 0.49384 0.0
C128 C 0.03627 0.54091 0.40996 0.0
C129 C 1.03019 0.50444 0.36597 0.0
C130 C 1.02976 0.50664 0.287 0.0
C131 C 0.03581 0.54566 0.25023 0.0
H132 H 0.04835 0.60949 0.40539 0.0
C133 C 0.04242 0.5825 0.29433 0.0
C134 C 0.04267 0.5802 0.37332 0.0
H135 H 0.04738 0.61318 0.2679 0.0
H136 H 0.05951 0.52877 0.7775 0.0
H137 H 0.06048 0.53397 0.64074 0.0
H138 H 1.00233 0.58081 0.62478 0.0
H139 H 1.00161 0.57609 0.76217 0.0
H140 H 1.02522 0.58343 0.51106 0.0
H141 H 0.03975 0.51185 0.51937 0.0
H142 H 1.02547 0.47393 0.39271 0.0
H143 H 1.02477 0.47771 0.25489 0.0
C144 C 0.51433 1.02557 0.24404 0.0
C145 C 0.538 0.05645 0.20621 0.0
C146 C 0.51611 1.02739 0.32331 0.0
C147 C 0.54164 0.06024 0.36671 0.0
C148 C 0.56544 0.09056 0.329 0.0
C149 C 0.56361 0.08892 0.24967 0.0
C150 C 0.54453 0.06291 0.45123 0.0
C151 C 0.52178 1.04827 0.49098 0.0
C152 C 0.5245 1.05091 0.57548 0.0
C153 C 0.50295 1.05108 0.61026 0.0
C154 C 0.50435 1.05255 0.68947 0.0
C155 C 0.52719 0.05329 0.73583 0.0
H156 H 0.56391 1.05007 0.59748 0.0
C157 C 0.54865 1.05272 0.70112 0.0
C158 C 0.54733 1.0515 0.62189 0.0
H159 H 0.56647 1.05302 0.73512 0.0
H160 H 0.49431 0.99991 0.21249 0.0
H161 H 0.4976 1.00252 0.35023 0.0
H162 H 0.58548 0.11592 0.36099 0.0
H163 H 0.58232 0.11308 0.22252 0.0
H164 H 0.56633 0.07951 0.48113 0.0
H165 H 0.50033 1.03562 0.46061 0.0
H166 H 0.48497 1.05024 0.57599 0.0
H167 H 0.48738 1.05276 0.71427 0.0
C168 C 0.54606 0.55009 0.71518 0.0
C169 C 0.52337 0.54563 0.7517 0.0
C170 C 0.54372 0.54752 0.63592 0.0
C171 C 0.51863 0.5406 0.59115 0.0
C172 C 0.4958 0.53545 0.62766 0.0
C173 C 0.49818 0.53819 0.70701 0.0
C174 C 0.51531 0.5374 0.50663 0.0
C175 C 0.53805 0.55778 0.46595 0.0
C176 C 0.53523 0.55573 0.38147 0.0
C177 C 0.55768 0.58993 0.34446 0.0
C178 C 0.55632 0.5891 0.26534 0.0
C179 C 0.5326 0.55365 0.2212 0.0
H180 H 0.4941 0.49246 0.3639 0.0
C181 C 0.5102 0.51907 0.25811 0.0
C182 C 0.51146 0.52007 0.33744 0.0
H183 H 0.49167 0.49118 0.22578 0.0
H184 H 0.56567 0.55541 0.74777 0.0
H185 H 0.56142 0.55019 0.61021 0.0
H186 H 0.47612 0.52965 0.59466 0.0
H187 H 0.48019 0.53426 0.73322 0.0
H188 H 0.4934 0.51972 0.47731 0.0
H189 H 0.55975 0.57896 0.49531 0.0
H190 H 0.57635 0.6176 0.37689 0.0
H191 H 0.57404 0.6162 0.23892 0.0
C192 C 0.18393 0.49836 0.97916 0.0
C193 C 0.15734 0.45766 0.98101 0.0
C194 C 0.20968 0.49963 0.9759 0.0
C195 C 0.20943 0.46016 0.9745 0.0
C196 C 0.18288 0.41963 0.97559 0.0
C197 C 0.15717 0.41832 0.97815 0.0
C198 C 0.23642 0.45979 0.97664 0.0
C199 C 0.26097 0.49248 0.95069 0.0
C200 C 0.28768 0.49115 0.95456 0.0
C201 C 0.30675 0.51244 0.89937 0.0
C202 C 0.33199 0.51164 0.90166 0.0
C203 C 0.33899 0.49019 0.96013 0.0
H204 H 0.28116 0.45439 0.05829 0.0
C205 C 0.32016 0.46959 0.01612 0.0
C206 C 0.29484 0.47006 0.01345 0.0
H207 H 0.32482 0.4526 0.06175 0.0
H208 H 0.18506 0.52937 0.98264 0.0
H209 H 0.22979 0.53159 0.97713 0.0
H210 H 0.18201 0.3887 0.97468 0.0
H211 H 0.13713 0.38632 0.97807 0.0
H212 H 0.23553 0.43031 -0.00202 0.0
H213 H 0.26122 0.52007 0.92245 0.0
H214 H 0.30195 0.52937 0.85387 0.0
H215 H 0.34621 0.52827 0.85818 0.0
C216 C 0.75543 0.27485 0.95357 0.0
C217 C 0.74041 0.26722 0.0169 0.0
C218 C 0.78545 0.30456 0.95906 0.0
C219 C 0.80121 0.32727 0.02828 0.0
C220 C 0.78612 0.32036 0.0911 0.0
C221 C 0.75609 0.29043 0.08571 0.0
C222 C 0.83311 0.35958 0.03618 0.0
C223 C 0.85095 0.35808 -0.00784 0.0
C224 C 0.88275 0.39124 -0.00108 0.0
C225 C 0.90107 0.37969 0.97289 0.0
C226 C 0.931 0.41048 0.97676 0.0
C227 C 0.94321 0.45368 0.00614 0.0
H228 H 0.88161 0.44542 0.04592 0.0
C229 C 0.92479 0.46527 0.03153 0.0
C230 C 0.89497 0.43458 0.02772 0.0
H231 H 0.93329 0.49829 0.05396 0.0
H232 H 0.74404 0.25723 0.89987 0.0
H233 H 0.79608 0.30994 0.90867 0.0
H234 H 0.79765 0.33785 0.14483 0.0
H235 H 0.74511 0.28561 0.1353 0.0
H236 H 0.8422 0.38434 0.08211 0.0
H237 H 0.84226 0.33075 0.95125 0.0
H238 H 0.89221 0.34668 0.94964 0.0
H239 H 0.9445 0.40046 0.95636 0.0
C240 C 0.50552 0.89374 0.95192 0.0
C241 C 0.5301 0.93497 0.97813 0.0
C242 C 0.50682 0.85562 0.95236 0.0
C243 C 0.53278 0.85791 0.97946 0.0
C244 C 0.55718 0.89912 0.00576 0.0
C245 C 0.55588 0.937 0.00534 0.0
C246 C 0.53602 0.81905 0.9793 0.0
C247 C 0.51376 0.7763 0.97279 0.0
C248 C 0.5177 0.73807 0.97492 0.0
C249 C 0.4949 0.69642 -0.00579 0.0
C250 C 0.49755 0.65965 -0.00313 0.0
C251 C 0.52307 0.66343 0.97968 0.0
H252 H 0.56092 0.77279 0.93908 0.0
C253 C 0.54579 0.70497 0.95931 0.0
C254 C 0.54313 0.74179 0.95669 0.0
H255 H 0.56565 0.7091 0.94494 0.0
H256 H 0.48536 0.89095 0.93006 0.0
H257 H 0.48763 0.82488 0.92991 0.0
H258 H 0.57751 0.90217 0.02671 0.0
H259 H 0.57534 0.96803 0.02598 0.0
H260 H 0.55802 0.82637 0.98847 0.0
H261 H 0.4917 0.76851 0.96971 0.0
H262 H 0.47495 0.69229 0.00788 0.0
H263 H 0.47948 0.62822 0.01239 0.0
C264 C 0.88669 0.64151 0.94807 0.0
C265 C 0.89978 0.63137 0.01168 0.0
C266 C 0.86034 0.63847 0.9507 0.0
C267 C 0.8465 0.62527 0.01726 0.0
C268 C 0.85975 0.61549 0.0808 0.0
C269 C 0.88592 0.61823 0.07799 0.0
C270 C 0.81912 0.62328 0.02446 0.0
C271 C 0.7995 0.61777 0.96513 0.0
C272 C 0.77228 0.61646 0.97264 0.0
C273 C 0.75751 0.62237 0.9076 0.0
C274 C 0.73234 0.62253 0.91211 0.0
C275 C 0.72127 0.61673 0.98196 0.0
H276 H 0.77033 0.60272 0.0933 0.0
C277 C 0.73553 0.60957 0.04665 0.0
C278 C 0.76058 0.60918 0.04212 0.0
H279 H 0.72718 0.60395 0.10099 0.0
H280 H 0.89677 0.65164 0.89605 0.0
H281 H 0.85134 0.64746 0.90108 0.0
H282 H 0.84981 0.60569 0.13309 0.0
H283 H 0.8956 0.61084 0.12841 0.0
H284 H 0.8152 0.62619 0.08175 0.0
H285 H 0.80356 0.61468 0.908 0.0
H286 H 0.76573 0.62763 0.85313 0.0
H287 H 0.72197 0.62831 0.86122 0.0
C288 C 0.13437 0.68646 0.00158 0.0
C289 C 0.12221 0.6419 0.02051 0.0
C290 C 0.16433 0.71449 -0.00079 0.0
C291 C 0.18273 0.69844 0.01576 0.0
C292 C 0.1705 0.65391 0.03424 0.0
C293 C 0.14069 0.62606 0.03702 0.0
C294 C 0.2145 0.72621 0.01111 0.0
C295 C 0.23036 0.77072 0.01885 0.0
C296 C 0.26216 0.7981 0.01419 0.0
C297 C 0.27855 0.84051 0.04924 0.0
C298 C 0.30827 0.8679 0.04393 0.0
C299 C 0.3223 0.85367 0.00269 0.0
H300 H 0.26431 0.75179 0.94351 0.0
C301 C 0.30594 0.81116 0.96773 0.0
C302 C 0.27621 0.7837 0.9732 0.0
H303 H 0.31608 0.79919 0.93557 0.0
H304 H 0.12075 0.69963 0.98789 0.0
H305 H 0.17277 0.74827 0.98258 0.0
H306 H 0.18405 0.6405 0.04655 0.0
H307 H 0.13216 0.59183 0.05111 0.0
H308 H 0.22535 0.70883 0.00462 0.0
H309 H 0.22005 0.7879 0.03246 0.0
H310 H 0.26829 0.85266 0.08052 0.0
H311 H 0.32008 0.90077 0.07034 0.0
C312 C 0.55147 0.42985 0.02786 0.0
C313 C 0.53173 0.43532 0.97826 0.0
C314 C 0.55299 0.39233 0.0209 0.0
C315 C 0.53515 0.35986 0.96324 0.0
C316 C 0.51578 0.36569 0.91305 0.0
C317 C 0.51378 0.40266 0.92108 0.0
C318 C 0.53681 0.32026 0.95287 0.0
C319 C 0.54102 0.29873 0.01176 0.0
C320 C 0.54031 0.2571 0.00179 0.0
C321 C 0.52673 0.22306 0.05281 0.0
C322 C 0.5253 0.18323 0.04469 0.0
C323 C 0.53829 0.17707 0.98683 0.0
H324 H 0.56447 0.27714 0.9044 0.0
C325 C 0.5527 0.21162 0.93698 0.0
C326 C 0.55339 0.25112 0.94378 0.0
H327 H 0.56289 0.20775 0.8919 0.0
H328 H 0.56568 0.4545 0.07232 0.0
H329 H 0.56854 0.38924 0.05963 0.0
H330 H 0.50193 0.34133 0.86787 0.0
H331 H 0.49857 0.40608 0.88145 0.0
H332 H 0.53222 0.30651 0.89553 0.0
H333 H 0.54252 0.30971 0.06942 0.0
H334 H 0.5167 0.22697 0.09831 0.0
H335 H 0.51426 0.15735 0.08435 0.0
loop_
_geom_bond_atom_site_label_1
_geom_bond_atom_site_label_2
_geom_bond_distance
_geom_bond_site_symmetry_2
_ccdc_geom_bond_type
Tb0 C10 2.825 . S
Tb0 O11 2.347 1_554 S
Tb0 O14 2.366 . S
Tb0 O19 2.418 . S
Tb0 O20 2.384 1_455 S
Tb0 O23 2.479 . S
Tb0 O24 2.471 1_554 S
Eu1 O12 2.418 . S
Eu1 O13 2.384 1_655 S
Eu1 O16 2.479 . S
Eu1 O17 2.471 1_556 S
Eu1 O18 2.347 1_556 S
Eu1 O21 2.366 . S
Eu1 C31 2.825 . S
C2 O18 1.259 1_455 S
C2 O19 1.265 . S
C3 O20 1.255 1_556 S
C3 O21 1.265 . S
C4 C6 1.380 . S
C4 C7 1.373 1_554 S
C4 C10 1.507 . S
C5 C6 1.384 . S
C5 C9 1.387 1_554 S
C5 H32 0.930 . S
C6 C4 1.380 . S
C6 C5 1.384 . S
C6 H33 0.931 . S
C7 C4 1.373 1_556 S
C7 C8 1.390 . S
C7 H34 0.930 . S
C8 C7 1.390 . S
C8 C9 1.391 . S
C8 H35 0.930 . S
C9 C5 1.387 1_556 S
C9 C8 1.391 . S
C10 Tb0 2.825 . S
C10 C4 1.507 . S
C10 O23 1.238 . S
C10 O24 1.247 1_554 S
O11 Tb0 2.347 1_556 S
O11 C15 1.259 1_455 S
O12 Eu1 2.418 . S
O12 C15 1.265 . S
O13 Eu1 2.384 1_455 S
O13 C22 1.255 1_556 S
O14 Tb0 2.366 . S
O14 C22 1.265 . S
C15 O11 1.259 1_655 S
C15 O12 1.265 . S
O16 Eu1 2.479 . S
O16 C31 1.238 . S
O17 Eu1 2.471 1_554 S
O17 C31 1.247 1_554 S
O18 Eu1 2.347 1_554 S
O18 C2 1.259 1_655 S
O19 Tb0 2.418 . S
O19 C2 1.265 . S
O20 Tb0 2.384 1_655 S
O20 C3 1.255 1_554 S
O21 Eu1 2.366 . S
O21 C3 1.265 . S
C22 O13 1.255 1_554 S
C22 O14 1.265 . S
O23 Tb0 2.479 . S
O23 C10 1.238 . S
O24 Tb0 2.471 1_556 S
O24 C10 1.247 1_556 S
C25 C28 1.378 1_554 S
C25 C29 1.376 . S
C25 C31 1.506 1_554 S
C26 C27 1.387 1_554 S
C26 C30 1.391 . S
C27 C26 1.387 1_556 S
C27 C28 1.384 . S
C27 H36 0.930 . S
C28 C25 1.378 1_556 S
C28 C27 1.384 . S
C28 H37 0.931 . S
C29 C25 1.376 . S
C29 C30 1.390 . S
C29 H38 0.930 . S
C30 C26 1.391 . S
C30 C29 1.390 . S
C30 H39 0.930 . S
C31 Eu1 2.825 . S
C31 O16 1.238 . S
C31 O17 1.247 1_556 S
C31 C25 1.506 1_556 S
H32 C5 0.930 . S
H33 C6 0.931 . S
H34 C7 0.930 . S
H35 C8 0.930 . S
H36 C27 0.930 . S
H37 C28 0.931 . S
H38 C29 0.930 . S
H39 C30 0.930 . S
Tb40 C50 2.825 . S
Tb40 O51 2.347 1_554 S
Tb40 O54 2.366 . S
Tb40 O59 2.418 . S
Tb40 O60 2.384 1_545 S
Tb40 O63 2.479 . S
Tb40 O64 2.471 1_554 S
Eu41 O52 2.418 . S
Eu41 O53 2.384 1_565 S
Eu41 O56 2.479 . S
Eu41 O57 2.471 1_556 S
Eu41 O58 2.347 1_556 S
Eu41 O61 2.366 . S
Eu41 C71 2.825 . S
C42 O58 1.259 1_545 S
C42 O59 1.265 . S
C43 O60 1.253 1_556 S
C43 O61 1.267 . S
C44 C46 1.380 . S
C44 C47 1.374 1_554 S
C44 C50 1.507 . S
C45 C46 1.384 . S
C45 C49 1.387 1_554 S
C45 H72 0.930 . S
C46 C44 1.380 . S
C46 C45 1.384 . S
C46 H73 0.931 . S
C47 C44 1.374 1_556 S
C47 C48 1.390 . S
C47 H74 0.930 . S
C48 C47 1.390 . S
C48 C49 1.391 . S
C48 H75 0.930 . S
C49 C45 1.387 1_556 S
C49 C48 1.391 . S
C50 Tb40 2.825 . S
C50 C44 1.507 . S
C50 O63 1.238 . S
C50 O64 1.247 1_554 S
O51 Tb40 2.347 1_556 S
O51 C55 1.259 1_545 S
O52 Eu41 2.418 . S
O52 C55 1.265 . S
O53 Eu41 2.384 1_545 S
O53 C62 1.255 1_556 S
O54 Tb40 2.366 . S
O54 C62 1.265 . S
C55 O51 1.259 1_565 S
C55 O52 1.265 . S
O56 Eu41 2.479 . S
O56 C71 1.238 . S
O57 Eu41 2.471 1_554 S
O57 C71 1.247 1_554 S
O58 Eu41 2.347 1_554 S
O58 C42 1.259 1_565 S
O59 Tb40 2.418 . S
O59 C42 1.265 . S
O60 Tb40 2.384 1_565 S
O60 C43 1.253 1_554 S
O61 Eu41 2.366 . S
O61 C43 1.267 . S
C62 O53 1.255 1_554 S
C62 O54 1.265 . S
O63 Tb40 2.479 . S
O63 C50 1.238 . S
O64 Tb40 2.471 1_556 S
O64 C50 1.247 1_556 S
C65 C68 1.380 . S
C65 C69 1.374 1_556 S
C65 C71 1.507 . S
C66 C67 1.387 1_554 S
C66 C70 1.391 . S
C67 C66 1.387 1_556 S
C67 C68 1.384 . S
C67 H76 0.930 . S
C68 C65 1.380 . S
C68 C67 1.384 . S
C68 H77 0.931 . S
C69 C65 1.374 1_554 S
C69 C70 1.390 . S
C69 H78 0.930 . S
C70 C66 1.391 . S
C70 C69 1.390 . S
C70 H79 0.930 . S
C71 Eu41 2.825 . S
C71 O56 1.238 . S
C71 O57 1.247 1_556 S
C71 C65 1.507 . S
H72 C45 0.930 . S
H73 C46 0.931 . S
H74 C47 0.930 . S
H75 C48 0.930 . S
H76 C67 0.930 . S
H77 C68 0.931 . S
H78 C69 0.930 . S
H79 C70 0.930 . S
Tb80 C90 2.825 . S
Tb80 O91 2.347 1_556 S
Tb80 O94 2.366 . S
Tb80 O99 2.418 . S
Tb80 O100 2.384 . S
Tb80 O103 2.479 . S
Tb80 O104 2.471 1_556 S
Eu81 O92 2.418 . S
Eu81 O93 2.384 . S
Eu81 O96 2.479 . S
Eu81 O97 2.471 1_554 S
Eu81 O98 2.347 1_554 S
Eu81 O101 2.366 . S
Eu81 C111 2.825 . S
C82 O98 1.259 . S
C82 O99 1.265 . S
C83 O100 1.255 1_554 S
C83 O101 1.265 . S
C84 C86 1.380 . S
C84 C87 1.374 1_556 S
C84 C90 1.507 . S
C85 C86 1.384 . S
C85 C89 1.387 1_556 S
C85 H112 0.930 . S
C86 C84 1.380 . S
C86 C85 1.384 . S
C86 H113 0.931 . S
C87 C84 1.374 1_554 S
C87 C88 1.390 . S
C87 H114 0.930 . S
C88 C87 1.390 . S
C88 C89 1.391 . S
C88 H115 0.930 . S
C89 C85 1.387 1_554 S
C89 C88 1.391 . S
C90 Tb80 2.825 . S
C90 C84 1.507 . S
C90 O103 1.238 . S
C90 O104 1.247 1_556 S
O91 Tb80 2.347 1_554 S
O91 C95 1.259 . S
O92 Eu81 2.418 . S
O92 C95 1.265 . S
O93 Eu81 2.384 . S
O93 C102 1.255 1_554 S
O94 Tb80 2.366 . S
O94 C102 1.265 . S
C95 O91 1.259 . S
C95 O92 1.265 . S
O96 Eu81 2.479 . S
O96 C111 1.238 . S
O97 Eu81 2.471 1_556 S
O97 C111 1.247 1_556 S
O98 Eu81 2.347 1_556 S
O98 C82 1.259 . S
O99 Tb80 2.418 . S
O99 C82 1.265 . S
O100 Tb80 2.384 . S
O100 C83 1.255 1_556 S
O101 Eu81 2.366 . S
O101 C83 1.265 . S
C102 O93 1.255 1_556 S
C102 O94 1.265 . S
O103 Tb80 2.479 . S
O103 C90 1.238 . S
O104 Tb80 2.471 1_554 S
O104 C90 1.247 1_554 S
C105 C108 1.380 . S
C105 C109 1.374 1_554 S
C105 C111 1.507 . S
C106 C107 1.387 1_556 S
C106 C110 1.391 . S
C107 C106 1.387 1_554 S
C107 C108 1.384 . S
C107 H116 0.930 . S
C108 C105 1.380 . S
C108 C107 1.384 . S
C108 H117 0.931 . S
C109 C105 1.374 1_556 S
C109 C110 1.390 . S
C109 H118 0.930 . S
C110 C106 1.391 . S
C110 C109 1.390 . S
C110 H119 0.930 . S
C111 Eu81 2.825 . S
C111 O96 1.238 . S
C111 O97 1.247 1_554 S
C111 C105 1.507 . S
H112 C85 0.930 . S
H113 C86 0.931 . S
H114 C87 0.930 . S
H115 C88 0.930 . S
H116 C107 0.930 . S
H117 C108 0.931 . S
H118 C109 0.930 . S
H119 C110 0.930 . S
C120 C121 1.384 . S
C120 C122 1.383 . S
C120 H136 0.951 . S
C121 C120 1.384 . S
C121 C125 1.385 1_655 S
C122 C120 1.383 . S
C122 C123 1.399 . S
C122 H137 0.951 . S
C123 C122 1.399 . S
C123 C124 1.379 1_655 S
C123 C126 1.480 1_655 S
C124 C123 1.379 1_455 S
C124 C125 1.367 . S
C124 H138 0.951 . S
C125 C121 1.385 1_455 S
C125 C124 1.367 . S
C125 H139 0.950 . S
C126 C123 1.480 1_455 S
C126 C127 1.297 1_455 S
C126 H140 0.950 . S
C127 C126 1.297 1_655 S
C127 C128 1.479 . S
C127 H141 0.950 . S
C128 C127 1.479 . S
C128 C129 1.375 . S
C128 C134 1.404 1_655 S
C129 C128 1.375 . S
C129 C130 1.369 . S
C129 H142 0.950 . S
C130 C129 1.369 . S
C130 C131 1.392 1_655 S
C130 H143 0.951 . S
C131 C130 1.392 1_455 S
C131 C133 1.378 . S
H132 C134 0.949 . S
C133 C131 1.378 . S
C133 C134 1.385 . S
C133 H135 0.950 . S
C134 C128 1.404 1_455 S
C134 H132 0.949 . S
C134 C133 1.385 . S
H135 C133 0.950 . S
H136 C120 0.951 . S
H137 C122 0.951 . S
H138 C124 0.951 . S
H139 C125 0.950 . S
H140 C126 0.950 . S
H141 C127 0.950 . S
H142 C129 0.950 . S
H143 C130 0.951 . S
C144 C145 1.386 1_545 S
C144 C146 1.383 . S
C144 H160 0.951 . S
C145 C144 1.386 1_565 S
C145 C149 1.383 . S
C146 C144 1.383 . S
C146 C147 1.402 1_545 S
C146 H161 0.951 . S
C147 C146 1.402 1_565 S
C147 C148 1.375 . S
C147 C150 1.481 . S
C148 C147 1.375 . S
C148 C149 1.367 . S
C148 H162 0.951 . S
C149 C145 1.383 . S
C149 C148 1.367 . S
C149 H163 0.950 . S
C150 C147 1.481 . S
C150 C151 1.297 . S
C150 H164 0.950 . S
C151 C150 1.297 . S
C151 C152 1.479 . S
C151 H165 0.950 1_565 S
C152 C151 1.479 . S
C152 C153 1.375 1_565 S
C152 C158 1.404 . S
C153 C152 1.375 1_545 S
C153 C154 1.369 . S
C153 H166 0.950 . S
C154 C153 1.369 . S
C154 C155 1.392 1_545 S
C154 H167 0.951 . S
C155 C154 1.392 1_565 S
C155 C157 1.384 . S
H156 C158 0.949 . S
C157 C155 1.384 . S
C157 C158 1.385 . S
C157 H159 0.950 . S
C158 C152 1.404 . S
C158 H156 0.949 . S
C158 C157 1.385 . S
H159 C157 0.950 . S
H160 C144 0.951 . S
H161 C146 0.951 . S
H162 C148 0.951 . S
H163 C149 0.950 . S
H164 C150 0.950 . S
H165 C151 0.950 1_545 S
H166 C153 0.950 . S
H167 C154 0.951 . S
C168 C169 1.386 . S
C168 C170 1.383 . S
C168 H184 0.951 . S
C169 C168 1.386 . S
C169 C173 1.383 . S
C170 C168 1.383 . S
C170 C171 1.402 . S
C170 H185 0.951 . S
C171 C170 1.402 . S
C171 C172 1.375 . S
C171 C174 1.481 . S
C172 C171 1.375 . S
C172 C173 1.367 . S
C172 H186 0.951 . S
C173 C169 1.383 . S
C173 C172 1.367 . S
C173 H187 0.950 . S
C174 C171 1.481 . S
C174 C175 1.297 . S
C174 H188 0.950 . S
C175 C174 1.297 . S
C175 C176 1.479 . S
C175 H189 0.950 . S
C176 C175 1.479 . S
C176 C177 1.375 . S
C176 C182 1.404 . S
C177 C176 1.375 . S
C177 C178 1.369 . S
C177 H190 0.950 . S
C178 C177 1.369 . S
C178 C179 1.392 . S
C178 H191 0.951 . S
C179 C178 1.392 . S
C179 C181 1.384 . S
H180 C182 0.949 . S
C181 C179 1.384 . S
C181 C182 1.385 . S
C181 H183 0.950 . S
C182 C176 1.404 . S
C182 H180 0.949 . S
C182 C181 1.385 . S
H183 C181 0.950 . S
H184 C168 0.951 . S
H185 C170 0.951 . S
H186 C172 0.951 . S
H187 C173 0.950 . S
H188 C174 0.950 . S
H189 C175 0.950 . S
H190 C177 0.950 . S
H191 C178 0.951 . S
C192 C193 1.386 . S
C192 C194 1.383 . S
C192 H208 0.951 . S
C193 C192 1.386 . S
C193 C197 1.383 1_556 S
C194 C192 1.383 . S
C194 C195 1.402 1_556 S
C194 H209 0.951 . S
C195 C194 1.402 1_554 S
C195 C196 1.375 . S
C195 C198 1.481 . S
C196 C195 1.375 . S
C196 C197 1.367 . S
C196 H210 0.951 . S
C197 C193 1.383 1_554 S
C197 C196 1.367 . S
C197 H211 0.950 . S
C198 C195 1.481 . S
C198 C199 1.297 . S
C198 H212 0.950 . S
C199 C198 1.297 . S
C199 C200 1.479 . S
C199 H213 0.950 . S
C200 C199 1.479 . S
C200 C201 1.375 1_554 S
C200 C206 1.404 . S
C201 C200 1.375 1_556 S
C201 C202 1.369 . S
C201 H214 0.950 . S
C202 C201 1.369 . S
C202 C203 1.392 1_556 S
C202 H215 0.951 . S
C203 C202 1.392 1_554 S
C203 C205 1.384 . S
H204 C206 0.949 . S
C205 C203 1.384 . S
C205 C206 1.385 . S
C205 H207 0.950 . S
C206 C200 1.404 . S
C206 H204 0.949 . S
C206 C205 1.385 . S
H207 C205 0.950 . S
H208 C192 0.951 . S
H209 C194 0.951 . S
H210 C196 0.951 . S
H211 C197 0.950 . S
H212 C198 0.950 . S
H213 C199 0.950 . S
H214 C201 0.950 . S
H215 C202 0.951 . S
C216 C217 1.386 . S
C216 C218 1.383 . S
C216 H232 0.951 . S
C217 C216 1.386 . S
C217 C221 1.383 1_556 S
C218 C216 1.383 . S
C218 C219 1.402 1_556 S
C218 H233 0.951 . S
C219 C218 1.402 1_554 S
C219 C220 1.375 . S
C219 C222 1.481 . S
C220 C219 1.375 . S
C220 C221 1.367 . S
C220 H234 0.951 . S
C221 C217 1.383 1_554 S
C221 C220 1.367 . S
C221 H235 0.950 . S
C222 C219 1.481 . S
C222 C223 1.297 1_554 S
C222 H236 0.950 . S
C223 C222 1.297 1_556 S
C223 C224 1.479 . S
C223 H237 0.950 . S
C224 C223 1.479 . S
C224 C225 1.375 . S
C224 C230 1.404 1_556 S
C225 C224 1.375 . S
C225 C226 1.369 . S
C225 H238 0.950 . S
C226 C225 1.369 . S
C226 C227 1.392 . S
C226 H239 0.951 . S
C227 C226 1.392 . S
C227 C229 1.384 1_556 S
H228 C230 0.949 . S
C229 C227 1.384 1_554 S
C229 C230 1.385 . S
C229 H231 0.950 . S
C230 C224 1.404 1_554 S
C230 H228 0.949 . S
C230 C229 1.385 . S
H231 C229 0.950 . S
H232 C216 0.951 . S
H233 C218 0.951 . S
H234 C220 0.951 . S
H235 C221 0.950 . S
H236 C222 0.950 . S
H237 C223 0.950 . S
H238 C225 0.950 . S
H239 C226 0.951 . S
C240 C241 1.386 1_554 S
C240 C242 1.383 . S
C240 H256 0.951 . S
C241 C240 1.386 1_556 S
C241 C245 1.383 . S
C242 C240 1.383 . S
C242 C243 1.402 1_554 S
C242 H257 0.951 . S
C243 C242 1.402 1_556 S
C243 C244 1.375 . S
C243 C246 1.481 . S
C244 C243 1.375 . S
C244 C245 1.367 . S
C244 H258 0.951 . S
C245 C241 1.383 . S
C245 C244 1.367 . S
C245 H259 0.950 . S
C246 C243 1.481 . S
C246 C247 1.297 . S
C246 H260 0.950 . S
C247 C246 1.297 . S
C247 C248 1.479 . S
C247 H261 0.950 1_556 S
C248 C247 1.479 . S
C248 C249 1.375 1_556 S
C248 C254 1.404 . S
C249 C248 1.375 1_554 S
C249 C250 1.369 . S
C249 H262 0.950 . S
C250 C249 1.369 . S
C250 C251 1.392 1_554 S
C250 H263 0.951 . S
C251 C250 1.392 1_556 S
C251 C253 1.384 . S
H252 C254 0.949 . S
C253 C251 1.384 . S
C253 C254 1.385 . S
C253 H255 0.950 . S
C254 C248 1.404 . S
C254 H252 0.949 . S
C254 C253 1.385 . S
H255 C253 0.950 . S
H256 C240 0.951 . S
H257 C242 0.951 . S
H258 C244 0.951 . S
H259 C245 0.950 . S
H260 C246 0.950 . S
H261 C247 0.950 1_554 S
H262 C249 0.950 . S
H263 C250 0.951 . S
C264 C265 1.386 1_556 S
C264 C266 1.383 . S
C264 H280 0.951 . S
C265 C264 1.386 1_554 S
C265 C269 1.383 . S
C266 C264 1.383 . S
C266 C267 1.402 1_556 S
C266 H281 0.951 . S
C267 C266 1.402 1_554 S
C267 C268 1.375 . S
C267 C270 1.481 . S
C268 C267 1.375 . S
C268 C269 1.367 . S
C268 H282 0.951 . S
C269 C265 1.383 . S
C269 C268 1.367 . S
C269 H283 0.950 . S
C270 C267 1.481 . S
C270 C271 1.297 1_554 S
C270 H284 0.950 . S
C271 C270 1.297 1_556 S
C271 C272 1.479 . S
C271 H285 0.950 . S
C272 C271 1.479 . S
C272 C273 1.375 . S
C272 C278 1.404 1_556 S
C273 C272 1.375 . S
C273 C274 1.369 . S
C273 H286 0.950 . S
C274 C273 1.369 . S
C274 C275 1.392 . S
C274 H287 0.951 . S
C275 C274 1.392 . S
C275 C277 1.384 1_556 S
H276 C278 0.949 . S
C277 C275 1.384 1_554 S
C277 C278 1.385 . S
C277 H279 0.950 . S
C278 C272 1.404 1_554 S
C278 H276 0.949 . S
C278 C277 1.385 . S
H279 C277 0.950 . S
H280 C264 0.951 . S
H281 C266 0.951 . S
H282 C268 0.951 . S
H283 C269 0.950 . S
H284 C270 0.950 . S
H285 C271 0.950 . S
H286 C273 0.950 . S
H287 C274 0.951 . S
C288 C289 1.386 . S
C288 C290 1.383 . S
C288 H304 0.951 . S
C289 C288 1.386 . S
C289 C293 1.383 1_554 S
C290 C288 1.383 . S
C290 C291 1.402 . S
C290 H305 0.951 . S
C291 C290 1.402 . S
C291 C292 1.375 1_554 S
C291 C294 1.481 . S
C292 C291 1.375 1_556 S
C292 C293 1.367 . S
C292 H306 0.951 . S
C293 C289 1.383 1_556 S
C293 C292 1.367 . S
C293 H307 0.950 . S
C294 C291 1.481 . S
C294 C295 1.297 . S
C294 H308 0.950 1_554 S
C295 C294 1.297 . S
C295 C296 1.479 . S
C295 H309 0.950 . S
C296 C295 1.479 . S
C296 C297 1.375 . S
C296 C302 1.404 1_554 S
C297 C296 1.375 . S
C297 C298 1.369 . S
C297 H310 0.950 . S
C298 C297 1.369 . S
C298 C299 1.392 . S
C298 H311 0.951 . S
C299 C298 1.392 . S
C299 C301 1.384 1_554 S
H300 C302 0.949 . S
C301 C299 1.384 1_556 S
C301 C302 1.385 . S
C301 H303 0.950 . S
C302 C296 1.404 1_556 S
C302 H300 0.949 . S
C302 C301 1.385 . S
H303 C301 0.950 . S
H304 C288 0.951 . S
H305 C290 0.951 . S
H306 C292 0.951 . S
H307 C293 0.950 . S
H308 C294 0.950 1_556 S
H309 C295 0.950 . S
H310 C297 0.950 . S
H311 C298 0.951 . S
C312 C313 1.386 . S
C312 C314 1.383 . S
C312 H328 0.951 . S
C313 C312 1.386 . S
C313 C317 1.383 1_554 S
C314 C312 1.383 . S
C314 C315 1.402 1_554 S
C314 H329 0.951 . S
C315 C314 1.402 1_556 S
C315 C316 1.375 . S
C315 C318 1.481 . S
C316 C315 1.375 . S
C316 C317 1.367 . S
C316 H330 0.951 . S
C317 C313 1.383 1_556 S
C317 C316 1.367 . S
C317 H331 0.950 . S
C318 C315 1.481 . S
C318 C319 1.297 1_556 S
C318 H332 0.950 . S
C319 C318 1.297 1_554 S
C319 C320 1.482 . S
C319 H333 0.950 . S
C320 C319 1.482 . S
C320 C321 1.387 . S
C320 C326 1.391 1_554 S
C321 C320 1.387 . S
C321 C322 1.369 . S
C321 H334 0.950 . S
C322 C321 1.369 . S
C322 C323 1.386 1_554 S
C322 H335 0.951 . S
C323 C322 1.386 1_556 S
C323 C325 1.390 . S
H324 C326 0.949 . S
C325 C323 1.390 . S
C325 C326 1.385 . S
C325 H327 0.950 . S
C326 C320 1.391 1_556 S
C326 H324 0.949 . S
C326 C325 1.385 . S
H327 C325 0.950 . S
H328 C312 0.951 . S
H329 C314 0.951 . S
H330 C316 0.951 . S
H331 C317 0.950 . S
H332 C318 0.950 . S
H333 C319 0.950 . S
H334 C321 0.950 . S
H335 C322 0.951 . S
C121 C15 1.448 . S
C131 C2 1.491 . S
C145 C42 1.470 1_565 S
C155 C55 1.411 . S
C169 C82 1.446 . S
C179 C95 1.449 . S
C193 C9 0.861 . S
C203 C89 0.914 . S
C217 C49 1.890 . S
C227 C3 1.914 . S
C241 C43 2.572 . S
C251 C102 2.588 . S
C265 C26 0.884 . S
C275 C106 0.913 . S
C289 C22 1.931 . S
C299 C66 1.900 . S
C313 C83 2.595 . S
C323 C62 2.546 1_556 S
