# Generated by pormake.
# Topology xbj, (5)-cn, num edge types: 1
# Building blocks:
#     Node 0, Type 0, BuildingBlock: BEQFEK_clean_sbu_0, # of connection points: 5
#     Node 1, Type 0, BuildingBlock: BEQFEK_clean_sbu_0, # of connection points: 5
#     Node 2, Type 0, BuildingBlock: BEQFEK_clean_sbu_0, # of connection points: 5
#     Node 3, Type 0, BuildingBlock: BEQFEK_clean_sbu_0, # of connection points: 5
#     Node 4, Type 0, BuildingBlock: BEQFEK_clean_sbu_0, # of connection points: 5
#     Node 5, Type 0, BuildingBlock: BEQFEK_clean_sbu_0, # of connection points: 5
#     Node 6, Type 0, BuildingBlock: BEQFEK_clean_sbu_0, # of connection points: 5
#     Node 7, Type 0, BuildingBlock: BEQFEK_clean_sbu_0, # of connection points: 5
#     Edge 8, Type (0, 0), BuildingBlock: XIVTED_clean_linker_0, # of connection points: 2
#     Edge 9, Type (0, 0), BuildingBlock: XIVTED_clean_linker_0, # of connection points: 2
#     Edge 10, Type (0, 0), BuildingBlock: XIVTED_clean_linker_0, # of connection points: 2
#     Edge 11, Type (0, 0), BuildingBlock: XIVTED_clean_linker_0, # of connection points: 2
#     Edge 12, Type (0, 0), BuildingBlock: XIVTED_clean_linker_0, # of connection points: 2
#     Edge 13, Type (0, 0), BuildingBlock: XIVTED_clean_linker_0, # of connection points: 2
#     Edge 14, Type (0, 0), BuildingBlock: XIVTED_clean_linker_0, # of connection points: 2
#     Edge 15, Type (0, 0), BuildingBlock: XIVTED_clean_linker_0, # of connection points: 2
#     Edge 16, Type (0, 0), BuildingBlock: XIVTED_clean_linker_0, # of connection points: 2
#     Edge 17, Type (0, 0), BuildingBlock: XIVTED_clean_linker_0, # of connection points: 2
#     Edge 18, Type (0, 0), BuildingBlock: XIVTED_clean_linker_0, # of connection points: 2
#     Edge 19, Type (0, 0), BuildingBlock: XIVTED_clean_linker_0, # of connection points: 2
#     Edge 20, Type (0, 0), BuildingBlock: XIVTED_clean_linker_0, # of connection points: 2
#     Edge 21, Type (0, 0), BuildingBlock: XIVTED_clean_linker_0, # of connection points: 2
#     Edge 22, Type (0, 0), BuildingBlock: XIVTED_clean_linker_0, # of connection points: 2
#     Edge 23, Type (0, 0), BuildingBlock: XIVTED_clean_linker_0, # of connection points: 2
#     Edge 24, Type (0, 0), BuildingBlock: XIVTED_clean_linker_0, # of connection points: 2
#     Edge 25, Type (0, 0), BuildingBlock: XIVTED_clean_linker_0, # of connection points: 2
#     Edge 26, Type (0, 0), BuildingBlock: XIVTED_clean_linker_0, # of connection points: 2
#     Edge 27, Type (0, 0), BuildingBlock: XIVTED_clean_linker_0, # of connection points: 2
# Relax obj value: 0.045
# Max RMSD: 0.114
# Mean RMSD: 0.111
data_MOF--net-xbj--node1-BEQFEK_clean_sbu_0--edge1-XIVTED_clean_linker_0
_symmetry_space_group_name_H-M    P1
_symmetry_Int_Tables_number       1
_symmetry_cell_setting            triclinic
loop_
_symmetry_equiv_pos_as_xyz
'x, y, z'
_cell_length_a     19.810686
_cell_length_b     19.811176
_cell_length_c     111.1288
_cell_angle_alpha  91.246111
_cell_angle_beta   91.227542
_cell_angle_gamma 90.003189
loop_
_atom_site_label
_atom_site_type_symbol
_atom_site_fract_x
_atom_site_fract_y
_atom_site_fract_z
_atom_type_partial_charge
Co0 Co 0.24161 0.81401 0.04474 0.0
Co1 Co 0.08286 0.80108 0.04237 0.0
C2 C 0.1544 0.93044 0.03754 0.0
O3 O 0.21207 0.90508 0.04004 0.0
O4 O 0.1002 0.89617 0.0383 0.0
C5 C 0.37914 0.86084 0.05083 0.0
O6 O 0.35353 0.9212 0.05274 0.0
C7 C 0.93352 0.81784 0.04528 0.0
C8 C 0.90085 0.71394 0.04044 0.0
C9 C 0.87649 0.77678 0.04392 0.0
N10 N 0.9885 0.78035 0.04277 0.0
N11 N 0.9683 0.71844 0.0399 0.0
C12 C 0.9358 0.89174 0.04833 0.0
H13 H 0.98384 0.91434 0.04553 0.0
H14 H 0.93203 0.89902 0.05822 0.0
H15 H 0.89291 0.91819 0.0439 0.0
C16 C 0.21264 0.7711 0.06941 0.0
N17 N 0.19289 0.78402 0.05803 0.0
N18 N 0.12681 0.77829 0.05703 0.0
C19 C 0.10238 0.76106 0.06774 0.0
C20 C 0.15582 0.75626 0.07596 0.0
C21 C 0.28347 0.78048 0.0741 0.0
H22 H 0.30046 0.83245 0.0722 0.0
H23 H 0.28798 0.77229 0.08392 0.0
H24 H 0.31722 0.74484 0.06928 0.0
O25 O 0.22809 0.7544 0.03042 0.0
O26 O 0.11674 0.74674 0.02877 0.0
H27 H 0.02078 0.73075 0.0792 0.0
H28 H 0.00156 0.79863 0.06903 0.0
C29 C 0.02904 0.75026 0.07008 0.0
H30 H 0.00796 0.71328 0.06339 0.0
H31 H 0.00076 0.67914 0.03751 0.0
O32 O 0.34027 0.81181 0.04794 0.0
C33 C 0.17518 0.73305 0.0249 0.0
Co34 Co 0.55815 0.75518 0.29224 0.0
Co35 Co 0.57293 0.59656 0.29008 0.0
C36 C 0.44121 0.66657 0.28519 0.0
O37 O 0.4662 0.72457 0.28776 0.0
O38 O 0.47659 0.61293 0.28591 0.0
C39 C 0.51251 0.89314 0.29814 0.0
O40 O 0.45271 0.86772 0.3002 0.0
C41 C 0.55753 0.4475 0.29329 0.0
C42 C 0.65982 0.41462 0.28822 0.0
C43 C 0.59805 0.39039 0.29185 0.0
N44 N 0.59425 0.50238 0.29066 0.0
N45 N 0.65524 0.48206 0.28766 0.0
C46 C 0.48464 0.44995 0.29651 0.0
H47 H 0.46138 0.4983 0.29388 0.0
H48 H 0.48049 0.44554 0.30641 0.0
H49 H 0.45659 0.40746 0.29206 0.0
C50 C 0.61265 0.72902 0.31658 0.0
N51 N 0.59321 0.70759 0.30548 0.0
N52 N 0.59943 0.64152 0.30467 0.0
C53 C 0.62335 0.61873 0.31528 0.0
C54 C 0.63269 0.67345 0.32316 0.0
C55 C 0.60611 0.80062 0.32099 0.0
H56 H 0.55421 0.81874 0.31899 0.0
H57 H 0.61632 0.80615 0.33081 0.0
H58 H 0.64169 0.83278 0.31609 0.0
O59 O 0.61354 0.74144 0.2779 0.0
O60 O 0.62392 0.63027 0.27639 0.0
H61 H 0.67333 0.52615 0.31089 0.0
H62 H 0.66105 0.53918 0.32676 0.0
C63 C 0.63799 0.54609 0.31769 0.0
H64 H 0.59048 0.51658 0.31684 0.0
H65 H 0.69376 0.51443 0.28515 0.0
O66 O 0.56066 0.85408 0.29524 0.0
C67 C 0.63502 0.68892 0.27245 0.0
Co68 Co 0.72094 0.30687 0.5415 0.0
Co69 Co 0.56281 0.29414 0.53764 0.0
C70 C 0.63811 0.41974 0.53155 0.0
O71 O 0.69437 0.39533 0.53516 0.0
O72 O 0.58313 0.38661 0.53223 0.0
C73 C 0.85839 0.35495 0.547 0.0
O74 O 0.83362 0.41644 0.54686 0.0
C75 C 0.41402 0.3153 0.54008 0.0
C76 C 0.37803 0.21283 0.53503 0.0
C77 C 0.35556 0.27614 0.5387 0.0
N78 N 0.46772 0.27622 0.53746 0.0
N79 N 0.44554 0.21525 0.53441 0.0
C80 C 0.4193 0.38871 0.5434 0.0
H81 H 0.46891 0.40924 0.54091 0.0
H82 H 0.41437 0.39529 0.55328 0.0
H83 H 0.37843 0.41752 0.53885 0.0
C84 C 0.68409 0.27247 0.56624 0.0
N85 N 0.6676 0.28347 0.55464 0.0
N86 N 0.60182 0.27739 0.55306 0.0
C87 C 0.57438 0.26151 0.56363 0.0
C88 C 0.62552 0.25813 0.57233 0.0
C89 C 0.75399 0.28078 0.57144 0.0
H90 H 0.78598 0.23859 0.56814 0.0
H91 H 0.77605 0.32853 0.56828 0.0
H92 H 0.75452 0.28165 0.58142 0.0
O93 O 0.71074 0.24136 0.52799 0.0
O94 O 0.59997 0.23304 0.52519 0.0
H95 H 0.48284 0.21121 0.55816 0.0
H96 H 0.49099 0.22591 0.57414 0.0
C97 C 0.5009 0.24753 0.56523 0.0
H98 H 0.47202 0.29512 0.56429 0.0
H99 H 0.47675 0.17497 0.53197 0.0
O100 O 0.81889 0.30471 0.54554 0.0
C101 C 0.65972 0.21761 0.52221 0.0
Co102 Co 0.08481 0.26104 0.79496 0.0
Co103 Co 0.09917 0.1026 0.79369 0.0
C104 C 0.98145 0.17352 0.7823 0.0
O105 O 0.0029 0.23113 0.78601 0.0
O106 O 0.0129 0.11925 0.78482 0.0
C107 C 0.03224 0.39851 0.7984 0.0
O108 O 0.97116 0.37313 0.79716 0.0
C109 C 0.07755 0.95407 0.79619 0.0
C110 C 0.18394 0.92059 0.79649 0.0
C111 C 0.1183 0.89681 0.79698 0.0
N112 N 0.11782 0.00857 0.79535 0.0
N113 N 0.18119 0.98792 0.79553 0.0
C114 C 0.0021 0.95712 0.79571 0.0
H115 H 0.98433 0.00543 0.79199 0.0
H116 H 0.9828 0.95336 0.80497 0.0
H117 H 0.98122 0.91456 0.79013 0.0
C118 C 0.10274 0.23576 0.82086 0.0
N119 N 0.09698 0.2137 0.80936 0.0
N120 N 0.10271 0.14754 0.80895 0.0
C121 C 0.11246 0.12528 0.82023 0.0
C122 C 0.11307 0.18056 0.82814 0.0
C123 C 0.09592 0.30824 0.82473 0.0
H124 H 0.04875 0.32911 0.82076 0.0
H125 H 0.09442 0.31446 0.83466 0.0
H126 H 0.13891 0.33744 0.82127 0.0
O127 O 0.16065 0.24698 0.78403 0.0
O128 O 0.17012 0.13562 0.7831 0.0
H129 H 0.171 0.03525 0.81849 0.0
H130 H 0.13376 0.04617 0.83302 0.0
C131 C 0.12547 0.05308 0.82323 0.0
H132 H 0.08205 0.02171 0.82003 0.0
H133 H 0.22273 0.01999 0.79497 0.0
O134 O 0.08314 0.35956 0.79804 0.0
C135 C 0.18848 0.19387 0.77987 0.0
Co136 Co 0.09787 0.30402 0.9491 0.0
Co137 Co 0.25628 0.29048 0.94992 0.0
C138 C 0.18704 0.42165 0.95542 0.0
O139 O 0.12869 0.39622 0.95337 0.0
O140 O 0.24064 0.38665 0.95426 0.0
C141 C 0.9595 0.34922 0.94388 0.0
O142 O 0.98438 0.40913 0.94173 0.0
C143 C 0.40491 0.30617 0.94641 0.0
C144 C 0.4369 0.20124 0.94975 0.0
C145 C 0.46145 0.26444 0.94704 0.0
N146 N 0.34982 0.26876 0.94859 0.0
N147 N 0.36958 0.20621 0.95055 0.0
C148 C 0.40353 0.38067 0.94448 0.0
H149 H 0.35697 0.40355 0.94802 0.0
H150 H 0.40488 0.39004 0.93468 0.0
H151 H 0.44802 0.40541 0.94893 0.0
C152 C 0.1181 0.25276 0.92432 0.0
N153 N 0.14199 0.26991 0.93539 0.0
N154 N 0.20817 0.26449 0.93564 0.0
C155 C 0.22865 0.2436 0.92469 0.0
C156 C 0.17223 0.23535 0.91716 0.0
C157 C 0.04567 0.26045 0.92047 0.0
H158 H 0.02936 0.31304 0.92239 0.0
H159 H 0.03731 0.24915 0.91074 0.0
H160 H 0.014 0.2264 0.92579 0.0
O161 O 0.11505 0.24828 0.96331 0.0
O162 O 0.22647 0.23925 0.96384 0.0
H163 H 0.32319 0.19421 0.92762 0.0
H164 H 0.30621 0.21356 0.91213 0.0
C165 C 0.30091 0.23218 0.92154 0.0
H166 H 0.32952 0.27998 0.9229 0.0
H167 H 0.33694 0.16691 0.95257 0.0
O168 O -0.00102 0.30129 0.94669 0.0
C169 C 0.16922 0.2274 0.96829 0.0
Co170 Co 0.04854 0.62685 0.19598 0.0
Co171 Co 0.06022 0.78565 0.19844 0.0
C172 C 0.93157 0.71315 0.2033 0.0
O173 O 0.95746 0.65581 0.20074 0.0
O174 O 0.96528 0.76774 0.20258 0.0
C175 C 0.00157 0.48952 0.18992 0.0
O176 O 0.94114 0.51529 0.18818 0.0
C177 C 0.04306 0.93509 0.19567 0.0
C178 C 0.14734 0.96764 0.20024 0.0
C179 C 0.08426 0.99207 0.19692 0.0
N180 N 0.08071 0.88006 0.19806 0.0
N181 N 0.14283 0.90021 0.20079 0.0
C182 C 0.96895 0.93288 0.19282 0.0
H183 H 0.9465 0.88502 0.19575 0.0
H184 H 0.96087 0.93622 0.18294 0.0
H185 H 0.94295 0.97602 0.19726 0.0
C186 C 0.09071 0.65645 0.1713 0.0
N187 N 0.07786 0.67597 0.1827 0.0
N188 N 0.08289 0.74209 0.18372 0.0
C189 C 0.09953 0.76681 0.17299 0.0
C190 C 0.10476 0.71347 0.16476 0.0
C191 C 0.08195 0.58555 0.1666 0.0
H192 H 0.11795 0.55212 0.17141 0.0
H193 H 0.03016 0.56808 0.16851 0.0
H194 H 0.09008 0.58118 0.15678 0.0
O195 O 0.10846 0.64043 0.21025 0.0
O196 O 0.11507 0.75181 0.21199 0.0
H197 H 0.14671 0.86163 0.17726 0.0
H198 H 0.12794 0.84889 0.16148 0.0
C199 C 0.10934 0.84028 0.17067 0.0
H200 H 0.06081 0.86726 0.17186 0.0
H201 H 0.1823 0.86769 0.20306 0.0
O202 O 0.05088 0.52825 0.1927 0.0
C203 C 0.12942 0.69341 0.21579 0.0
Co204 Co 0.62361 0.80004 0.44276 0.0
Co205 Co 0.78242 0.78293 0.44516 0.0
C206 C 0.71452 0.91252 0.45178 0.0
O207 O 0.65678 0.88846 0.44876 0.0
O208 O 0.76839 0.87784 0.45066 0.0
C209 C 0.48585 0.84572 0.44426 0.0
O210 O 0.51167 0.88955 0.45211 0.0
C211 C 0.92997 0.80117 0.44226 0.0
C212 C 0.96614 0.69714 0.44513 0.0
C213 C 0.98805 0.76161 0.44261 0.0
N214 N 0.87656 0.76163 0.44447 0.0
N215 N 0.89874 0.69966 0.44624 0.0
C216 C 0.92423 0.87403 0.43915 0.0
H217 H 0.87393 0.88425 0.43499 0.0
H218 H 0.96453 0.88844 0.43291 0.0
H219 H 0.92952 0.90535 0.44752 0.0
C220 C 0.65136 0.75591 0.41794 0.0
N221 N 0.67239 0.77094 0.42926 0.0
N222 N 0.7384 0.76407 0.43009 0.0
C223 C 0.76153 0.74408 0.41925 0.0
C224 C 0.70705 0.73798 0.41123 0.0
C225 C 0.5798 0.76345 0.41357 0.0
H226 H 0.55997 0.81311 0.41664 0.0
H227 H 0.57522 0.75984 0.40361 0.0
H228 H 0.54844 0.7236 0.41754 0.0
O229 O 0.63442 0.73718 0.45615 0.0
O230 O 0.74568 0.72642 0.45793 0.0
H231 H 0.85252 0.69008 0.42308 0.0
H232 H 0.84113 0.70996 0.40745 0.0
C233 C 0.83401 0.72892 0.41679 0.0
H234 H 0.86458 0.77527 0.4184 0.0
H235 H 0.86759 0.65882 0.44811 0.0
O236 O 0.52484 0.80409 0.43898 0.0
C237 C 0.68645 0.71334 0.46144 0.0
Co238 Co 0.57214 0.12098 0.69415 0.0
Co239 Co 0.58876 0.27997 0.69593 0.0
C240 C 0.47339 0.21119 0.70714 0.0
O241 O 0.49403 0.15371 0.70337 0.0
O242 O 0.50408 0.26562 0.70468 0.0
C243 C 0.52955 0.98381 0.69723 0.0
O244 O 0.49827 0.01005 0.70653 0.0
C245 C 0.56671 0.42768 0.69388 0.0
C246 C 0.67211 0.46339 0.69294 0.0
C247 C 0.60578 0.48554 0.69279 0.0
N248 N 0.6083 0.3741 0.69461 0.0
N249 N 0.67116 0.39602 0.69413 0.0
C250 C 0.49141 0.42232 0.69348 0.0
H251 H 0.47568 0.37197 0.68985 0.0
H252 H 0.46886 0.46254 0.68788 0.0
H253 H 0.47234 0.42808 0.70277 0.0
C254 C 0.57957 0.14989 0.66824 0.0
N255 N 0.58055 0.1701 0.67988 0.0
N256 N 0.58664 0.23624 0.68056 0.0
C257 C 0.58988 0.26028 0.66934 0.0
C258 C 0.58538 0.20638 0.66117 0.0
C259 C 0.56936 0.07821 0.66407 0.0
H260 H 0.52452 0.0571 0.66847 0.0
H261 H 0.56205 0.07389 0.65416 0.0
H262 H 0.61386 0.04786 0.66687 0.0
O263 O 0.65192 0.13199 0.705 0.0
O264 O 0.66115 0.2435 0.70631 0.0
H265 H 0.60631 0.3413 0.65684 0.0
H266 H 0.55678 0.36301 0.66985 0.0
C267 C 0.60033 0.33314 0.66659 0.0
H268 H 0.64646 0.35176 0.67139 0.0
H269 H 0.71353 0.36469 0.69446 0.0
O270 O 0.56289 0.02237 0.69054 0.0
C271 C 0.68054 0.18492 0.70933 0.0
H272 H 0.22186 0.66565 0.09022 0.0
H273 H 0.02937 0.78812 0.14939 0.0
H274 H 0.08002 0.83047 0.09135 0.0
H275 H 0.19614 0.64858 0.15049 0.0
H276 H 0.04322 0.79848 0.12774 0.0
H277 H 0.21059 0.65337 0.11206 0.0
C278 C 0.18858 0.69925 0.09511 0.0
C279 C 0.1514 0.74875 0.08908 0.0
C280 C 0.077 0.76563 0.13268 0.0
C281 C 0.1378 0.73497 0.11382 0.0
C282 C 0.06912 0.75986 0.14501 0.0
C283 C 0.11213 0.71798 0.15164 0.0
C284 C 0.12806 0.72884 0.12691 0.0
C285 C 0.16208 0.68139 0.1456 0.0
C286 C 0.18202 0.69222 0.10751 0.0
C287 C 0.10879 0.79109 0.0957 0.0
N288 N 0.16883 0.68768 0.13353 0.0
N289 N 0.10296 0.78309 0.10772 0.0
H290 H 0.78094 0.79477 0.39367 0.0
H291 H 0.57757 0.59933 0.34078 0.0
H292 H 0.63332 0.63995 0.39961 0.0
H293 H 0.7325 0.74645 0.33457 0.0
H294 H 0.60506 0.60565 0.36234 0.0
H295 H 0.77225 0.77038 0.37198 0.0
C296 C 0.74748 0.75493 0.39038 0.0
C297 C 0.70752 0.7194 0.39833 0.0
C298 C 0.63359 0.63613 0.35627 0.0
C299 C 0.69637 0.6919 0.37365 0.0
C300 C 0.61807 0.63225 0.34399 0.0
C301 C 0.6528 0.67261 0.336 0.0
C302 C 0.68382 0.68118 0.36057 0.0
C303 C 0.7043 0.71504 0.34053 0.0
C304 C 0.74225 0.7412 0.37803 0.0
C305 C 0.66443 0.66876 0.39369 0.0
N306 N 0.71797 0.71867 0.35256 0.0
N307 N 0.65955 0.65683 0.38163 0.0
H308 H 0.69381 0.16794 0.58626 0.0
H309 H 0.50448 0.2806 0.64648 0.0
H310 H 0.5412 0.32274 0.58776 0.0
H311 H 0.66898 0.13839 0.64596 0.0
H312 H 0.5119 0.2906 0.62464 0.0
H313 H 0.68142 0.15086 0.60791 0.0
C314 C 0.65777 0.19828 0.5912 0.0
C315 C 0.61838 0.24668 0.58531 0.0
C316 C 0.54631 0.25699 0.62926 0.0
C317 C 0.60348 0.22739 0.60991 0.0
C318 C 0.54205 0.25139 0.6417 0.0
C319 C 0.58656 0.20909 0.64793 0.0
C320 C 0.59545 0.21987 0.62304 0.0
C321 C 0.63379 0.17151 0.64141 0.0
C322 C 0.6505 0.18843 0.6035 0.0
C323 C 0.572 0.28446 0.592 0.0
N324 N 0.63728 0.178 0.62929 0.0
N325 N 0.56584 0.27406 0.60395 0.0
H326 H 0.24026 0.30079 0.89992 0.0
H327 H 0.04674 0.11083 0.8452 0.0
H328 H 0.09919 0.13865 0.90485 0.0
H329 H 0.20855 0.2528 0.84068 0.0
H330 H 0.06637 0.11771 0.86707 0.0
H331 H 0.23127 0.28168 0.87814 0.0
C332 C 0.20805 0.26055 0.89637 0.0
C333 C 0.17047 0.22106 0.90409 0.0
C334 C 0.09789 0.14703 0.8613 0.0
C335 C 0.15876 0.19963 0.87925 0.0
C336 C 0.08678 0.14294 0.84886 0.0
C337 C 0.12604 0.1815 0.84125 0.0
C338 C 0.14833 0.19036 0.86609 0.0
C339 C 0.17688 0.22284 0.84633 0.0
C340 C 0.20263 0.24981 0.88396 0.0
C341 C 0.12863 0.17027 0.89911 0.0
N342 N 0.18637 0.22649 0.85845 0.0
N343 N 0.12351 0.1612 0.88697 0.0
H344 H 0.29058 0.6896 0.01388 0.0
H345 H 0.08519 0.51223 0.95941 0.0
H346 H 0.07353 0.69399 0.00927 0.0
H347 H 0.29831 0.48124 0.96625 0.0
H348 H 0.08575 0.60101 0.97492 0.0
H349 H 0.29845 0.63089 0.99436 0.0
C350 C 0.2446 0.67819 0.00879 0.0
C351 C 0.18122 0.69592 0.01331 0.0
C352 C 0.13266 0.57554 0.97289 0.0
C353 C 0.19004 0.62991 0.99091 0.0
C354 C 0.13251 0.52514 0.96396 0.0
C355 C 0.19139 0.48789 0.96175 0.0
C356 C 0.19197 0.58852 0.97969 0.0
C357 C 0.25141 0.50776 0.96779 0.0
C358 C 0.2492 0.6451 -0.00238 0.0
C359 C 0.12343 0.68055 0.00624 0.0
N360 N 0.24987 0.55583 0.97668 0.0
N361 N 0.12926 0.64822 -0.00457 0.0
H362 H 0.67206 0.80547 0.26147 0.0
H363 H 0.84599 0.60762 0.20716 0.0
H364 H 0.67449 0.58837 0.25687 0.0
H365 H 0.87031 0.82162 0.21426 0.0
H366 H 0.76066 0.60428 0.22259 0.0
H367 H 0.72656 0.81542 0.24208 0.0
C368 C 0.68409 0.75988 0.2564 0.0
C369 C 0.6695 0.69591 0.26089 0.0
C370 C 0.78389 0.65219 0.22064 0.0
C371 C 0.73089 0.70712 0.23862 0.0
C372 C 0.83231 0.65428 0.21175 0.0
C373 C 0.8668 0.71465 0.20964 0.0
C374 C 0.77005 0.71078 0.22747 0.0
C375 C 0.84599 0.77366 0.21574 0.0
C376 C 0.71481 0.76567 0.2453 0.0
C377 C 0.68556 0.63869 0.25386 0.0
N378 N 0.79988 0.76999 0.22457 0.0
N379 N 0.71564 0.64568 0.2431 0.0
H380 H 0.78533 0.66959 0.47696 0.0
H381 H 0.53262 0.47839 0.51923 0.0
H382 H 0.56878 0.67113 0.47147 0.0
H383 H 0.74652 0.49967 0.52677 0.0
H384 H 0.54243 0.55834 0.50296 0.0
H385 H 0.77059 0.61237 0.4959 0.0
C386 C 0.73464 0.65756 0.47969 0.0
C387 C 0.67823 0.67477 0.47255 0.0
C388 C 0.58699 0.54632 0.5083 0.0
C389 C 0.66095 0.60978 0.49434 0.0
C390 C 0.58136 0.50101 0.51767 0.0
C391 C 0.63914 0.48107 0.52422 0.0
C392 C 0.65083 0.57147 0.50545 0.0
C393 C 0.70078 0.51258 0.52183 0.0
C394 C 0.72623 0.62539 0.49058 0.0
C395 C 0.61376 0.65847 0.47664 0.0
N396 N 0.7052 0.55528 0.51251 0.0
N397 N 0.60691 0.62658 0.48725 0.0
H398 H 0.90435 0.27856 0.77436 0.0
H399 H 0.72832 0.06978 0.71999 0.0
H400 H 0.93407 0.06397 0.76906 0.0
H401 H 0.7439 0.28732 0.72193 0.0
H402 H 0.79579 0.06385 0.73867 0.0
H403 H 0.83177 0.2791 0.75644 0.0
C404 C 0.89479 0.23126 0.76955 0.0
C405 C 0.92615 0.17126 0.77316 0.0
C406 C 0.78468 0.11274 0.73493 0.0
C407 C 0.84374 0.17187 0.75246 0.0
C408 C 0.74662 0.11621 0.72423 0.0
C409 C 0.7301 0.17918 0.71939 0.0
C410 C 0.80575 0.17265 0.74086 0.0
C411 C 0.75506 0.23763 0.72532 0.0
C412 C 0.85378 0.23177 0.75923 0.0
C413 C 0.91131 0.1115 0.76657 0.0
N414 N 0.7911 0.23291 0.73577 0.0
N415 N 0.87159 0.11342 0.75646 0.0
H416 H 0.23911 0.30893 0.77007 0.0
H417 H 0.39542 0.10638 0.71435 0.0
H418 H 0.24344 0.09139 0.76645 0.0
H419 H 0.43179 0.31904 0.72108 0.0
H420 H 0.32688 0.10377 0.73223 0.0
H421 H 0.30249 0.31634 0.75149 0.0
C422 C 0.25406 0.26272 0.76547 0.0
C423 C 0.23565 0.1994 0.76982 0.0
C424 C 0.34947 0.15114 0.72976 0.0
C425 C 0.30679 0.20773 0.74846 0.0
C426 C 0.3882 0.15285 0.71947 0.0
C427 C 0.42023 0.21285 0.71627 0.0
C428 C 0.34241 0.20985 0.73691 0.0
C429 C 0.40837 0.27156 0.72323 0.0
C430 C 0.28985 0.26707 0.75483 0.0
C431 C 0.25636 0.1413 0.76346 0.0
N432 N 0.37087 0.26845 0.73331 0.0
N433 N 0.29033 0.14693 0.75306 0.0
H434 H 0.16608 0.79481 0.23166 0.0
H435 H 0.37957 0.55617 0.2744 0.0
H436 H 0.17601 0.57829 0.2265 0.0
H437 H 0.35311 0.77019 0.28094 0.0
H438 H 0.29139 0.55972 0.25877 0.0
H439 H 0.2246 0.78423 0.251 0.0
C440 C 0.18078 0.74497 0.23457 0.0
C441 C 0.16684 0.6874 0.22736 0.0
C442 C 0.304 0.60564 0.26378 0.0
C443 C 0.23353 0.67489 0.24961 0.0
C444 C 0.35406 0.60359 0.27279 0.0
C445 C 0.37517 0.66339 0.27877 0.0
C446 C 0.27524 0.66791 0.26073 0.0
C447 C 0.33961 0.72309 0.27638 0.0
C448 C 0.21371 0.73892 0.24568 0.0
C449 C 0.1863 0.62412 0.2317 0.0
N450 N 0.29236 0.72409 0.26738 0.0
N451 N 0.21918 0.61961 0.24251 0.0
H452 H 0.81988 0.96461 0.46551 0.0
H453 H 0.56457 0.17647 0.50545 0.0
H454 H 0.61234 0.00319 0.45512 0.0
H455 H 0.77879 0.16829 0.5134 0.0
H456 H 0.58337 0.11681 0.48644 0.0
H457 H 0.80989 0.04761 0.48195 0.0
C458 C 0.77278 0.99179 0.46646 0.0
C459 C 0.71634 0.97571 0.45909 0.0
C460 C 0.62637 0.12822 0.49231 0.0
C461 C 0.70423 0.0694 0.47804 0.0
C462 C 0.61557 0.16172 0.50325 0.0
C463 C 0.67012 0.177 0.51109 0.0
C464 C 0.69215 0.10919 0.48921 0.0
C465 C 0.73517 0.15722 0.50766 0.0
C466 C 0.76695 0.03876 0.47593 0.0
C467 C 0.65678 0.01288 0.46073 0.0
N468 N 0.74434 0.12399 0.497 0.0
N469 N 0.65191 0.05702 0.47016 0.0
H470 H 0.04336 0.99455 0.02802 0.0
H471 H 0.27455 0.19148 0.9831 0.0
H472 H 0.2599 0.01323 0.03225 0.0
H473 H 0.05678 0.18692 0.98019 0.0
H474 H 0.26859 0.13732 0.00251 0.0
H475 H 0.04509 0.07989 0.01255 0.0
C476 C 0.0911 0.01775 0.02593 0.0
C477 C 0.15185 0.99522 0.03121 0.0
C478 C 0.22203 0.14847 -0.00233 0.0
C479 C 0.1542 0.0919 0.01335 0.0
C480 C 0.22542 0.17889 0.98652 0.0
C481 C 0.16609 0.19295 0.97992 0.0
C482 C 0.1589 0.13135 0.00224 0.0
C483 C 0.10386 0.17638 0.98491 0.0
C484 C 0.09207 0.06621 0.01702 0.0
C485 C 0.21196 0.02789 0.02824 0.0
N486 N 0.10193 0.14593 -0.00427 0.0
N487 N 0.21178 0.07356 0.01933 0.0
H488 H 0.77129 0.71457 0.03232 0.0
H489 H 0.47995 0.94905 0.05833 0.0
H490 H 0.8145 0.87314 0.05864 0.0
H491 H 0.44701 0.74823 0.04347 0.0
H492 H 0.60238 0.93075 0.05706 0.0
H493 H 0.65135 0.73541 0.03461 0.0
C494 C 0.75577 0.75418 0.03854 0.0
C495 C 0.80367 0.7929 0.04512 0.0
C496 C 0.56809 0.89075 0.05416 0.0
C497 C 0.66548 0.81707 0.04779 0.0
C498 C 0.49835 0.90112 0.05486 0.0
C499 C 0.45311 0.85019 0.05096 0.0
C500 C 0.59241 0.82949 0.04935 0.0
C501 C 0.47977 0.78902 0.04657 0.0
C502 C 0.68708 0.76595 0.03984 0.0
C503 C 0.78002 0.8435 0.05304 0.0
N504 N 0.54748 0.78067 0.0458 0.0
N505 N 0.71248 0.85432 0.05413 0.0
H506 H 0.65627 0.28536 0.27999 0.0
H507 H 0.42724 0.99428 0.30592 0.0
H508 H 0.50575 0.3282 0.30665 0.0
H509 H 0.62297 0.96057 0.2905 0.0
H510 H 0.44606 0.11666 0.3048 0.0
H511 H 0.6351 0.16544 0.28207 0.0
C512 C 0.61837 0.26977 0.28625 0.0
C513 C 0.58196 0.31758 0.29298 0.0
C514 C 0.48484 0.08221 0.30174 0.0
C515 C 0.55738 0.17939 0.2954 0.0
C516 C 0.47416 0.0125 0.30235 0.0
C517 C 0.52351 0.96706 0.29827 0.0
C518 C 0.54477 0.10631 0.29683 0.0
C519 C 0.58342 0.99349 0.29376 0.0
C520 C 0.60639 0.20108 0.28743 0.0
C521 C 0.53349 0.29383 0.30094 0.0
N522 N 0.59207 0.06118 0.29308 0.0
N523 N 0.52241 0.2263 0.3019 0.0
H524 H 0.29746 0.37757 0.55306 0.0
H525 H 0.92502 0.23674 0.54268 0.0
H526 H 0.24681 0.21125 0.52872 0.0
H527 H 0.96029 0.447 0.55179 0.0
H528 H 0.04632 0.21993 0.54119 0.0
H529 H 0.17716 0.39881 0.55566 0.0
C530 C 0.26175 0.34636 0.54803 0.0
C531 C 0.28315 0.29337 0.54039 0.0
C532 C 0.02756 0.26972 0.54356 0.0
C533 C 0.14508 0.31557 0.5439 0.0
C534 C 0.95826 0.27935 0.54449 0.0
C535 C 0.93229 0.34358 0.54728 0.0
C536 C 0.07165 0.32438 0.54558 0.0
C537 C 0.97813 0.39675 0.54954 0.0
C538 C 0.19281 0.35813 0.54968 0.0
C539 C 0.23328 0.25279 0.53468 0.0
N540 N 0.04579 0.386 0.54864 0.0
N541 N 0.1669 0.26453 0.53659 0.0
H542 H 0.00418 0.83623 0.80641 0.0
H543 H 0.15226 0.46545 0.79831 0.0
H544 H 0.19331 0.79044 0.78939 0.0
H545 H 0.93758 0.49986 0.80063 0.0
H546 H 0.17056 0.58675 0.79848 0.0
H547 H 0.98048 0.71525 0.80715 0.0
C548 C 0.04012 0.80136 0.8026 0.0
C549 C 0.10024 0.82419 0.79754 0.0
C550 C 0.11941 0.56786 0.79896 0.0
C551 C 0.07461 0.68559 0.79894 0.0
C552 C 0.10884 0.49849 0.79892 0.0
C553 C 0.04314 0.47231 0.79935 0.0
C554 C 0.06406 0.61183 0.79955 0.0
C555 C 0.98902 0.51791 0.8002 0.0
C556 C 0.0268 0.73211 0.80318 0.0
C557 C 0.14623 0.77563 0.79334 0.0
N558 N 0.00065 0.5857 0.80026 0.0
N559 N 0.13255 0.7089 0.79417 0.0
H560 H 0.89366 0.23644 0.95083 0.0
H561 H 0.52311 0.36104 0.93318 0.0
H562 H 0.85751 0.43396 0.9363 0.0
H563 H 0.56628 0.20284 0.95834 0.0
H564 H 0.64426 0.38393 0.93214 0.0
H565 H 0.77261 0.21737 0.95115 0.0
C566 C 0.86027 0.27585 0.94766 0.0
C567 C 0.88586 0.33712 0.94359 0.0
C568 C 0.62686 0.34466 0.93796 0.0
C569 C 0.74657 0.31535 0.94394 0.0
C570 C 0.55759 0.33201 0.93868 0.0
C571 C 0.53409 0.28098 0.94611 0.0
C572 C 0.67274 0.30509 0.94453 0.0
C573 C 0.58185 0.24283 0.95252 0.0
C574 C 0.79101 0.26495 0.94789 0.0
C575 C 0.83989 0.38614 0.93957 0.0
N576 N 0.64869 0.25561 0.95157 0.0
N577 N 0.77224 0.37418 0.93984 0.0
H578 H 0.1476 0.09729 0.20832 0.0
H579 H 0.91237 0.38898 0.18272 0.0
H580 H 0.98695 0.05404 0.18241 0.0
H581 H 0.11464 0.4213 0.19694 0.0
H582 H 0.93026 0.26651 0.18401 0.0
H583 H 0.12708 0.21723 0.20598 0.0
C584 C 0.10759 0.11281 0.20218 0.0
C585 C 0.06822 0.0649 0.19573 0.0
C586 C 0.97067 0.30067 0.18676 0.0
C587 C 0.04442 0.20311 0.193 0.0
C588 C 0.96054 0.37044 0.18604 0.0
C589 C 0.01199 0.41552 0.18977 0.0
C590 C 0.03223 0.27618 0.1914 0.0
C591 C 0.07344 0.38867 0.19398 0.0
C592 C 0.09601 0.1815 0.20084 0.0
C593 C 0.01713 0.08855 0.18791 0.0
N594 N 0.08156 0.32095 0.19477 0.0
N595 N 0.0065 0.1561 0.18679 0.0
H596 H 0.08511 0.68687 0.43173 0.0
H597 H 0.38812 0.92837 0.4536 0.0
H598 H 0.05438 0.87793 0.45013 0.0
H599 H 0.41423 0.75184 0.43071 0.0
H600 H 0.26573 0.91378 0.45178 0.0
H601 H 0.20542 0.71224 0.43066 0.0
C602 C 0.10364 0.7346 0.43542 0.0
C603 C 0.0595 0.78065 0.44091 0.0
C604 C 0.29821 0.87856 0.44708 0.0
C605 C 0.19761 0.80976 0.43989 0.0
C606 C 0.36818 0.88681 0.44812 0.0
C607 C 0.41166 0.84093 0.44238 0.0
C608 C 0.2714 0.82372 0.44032 0.0
C609 C 0.38278 0.78826 0.43535 0.0
C610 C 0.17235 0.74912 0.4348 0.0
C611 C 0.08624 0.84161 0.44559 0.0
N612 N 0.31457 0.78079 0.43461 0.0
N613 N 0.15368 0.85415 0.44506 0.0
H614 H 0.46125 0.8872 0.70941 0.0
H615 H 0.66331 0.58144 0.67926 0.0
H616 H 0.60099 0.91109 0.68053 0.0
H617 H 0.50316 0.55295 0.70434 0.0
H618 H 0.63751 0.70191 0.67903 0.0
H619 H 0.47165 0.76466 0.7071 0.0
C620 C 0.49376 0.86674 0.70252 0.0
C621 C 0.53078 0.90962 0.69522 0.0
C622 C 0.60733 0.6693 0.68447 0.0
C623 C 0.54318 0.76919 0.69258 0.0
C624 C 0.62211 0.60051 0.68462 0.0
C625 C 0.58493 0.55699 0.69174 0.0
C626 C 0.55563 0.69526 0.69168 0.0
C627 C 0.53221 0.58437 0.69853 0.0
C628 C 0.49959 0.79669 0.7012 0.0
C629 C 0.57179 0.8801 0.6864 0.0
N630 N 0.51952 0.65191 0.69841 0.0
N631 N 0.57732 0.81181 0.68541 0.0
loop_
_geom_bond_atom_site_label_1
_geom_bond_atom_site_label_2
_geom_bond_distance
_geom_bond_site_symmetry_2
_ccdc_geom_bond_type
Co0 O3 1.970 . S
Co0 N17 1.989 . S
Co0 O25 1.967 . S
Co0 O32 1.920 . S
Co1 O4 1.966 . S
Co1 N10 2.022 1_455 S
Co1 N18 1.993 . S
Co1 O26 1.941 . S
C2 O3 1.258 . S
C2 O4 1.263 . S
O3 Co0 1.970 . S
O3 C2 1.258 . S
O4 Co1 1.966 . S
O4 C2 1.263 . S
C5 O6 1.235 . S
C5 O32 1.289 . S
O6 C5 1.235 . S
C7 C9 1.400 . S
C7 N10 1.351 . S
C7 C12 1.501 . S
C8 C9 1.387 . S
C8 N11 1.341 . S
C9 C7 1.400 . S
C9 C8 1.387 . S
N10 Co1 2.022 1_655 S
N10 C7 1.351 . S
N10 N11 1.365 . S
N11 C8 1.341 . S
N11 N10 1.365 . S
N11 H31 0.862 . S
C12 C7 1.501 . S
C12 H13 0.961 . S
C12 H14 0.961 . S
C12 H15 0.960 . S
H13 C12 0.961 . S
H14 C12 0.961 . S
H15 C12 0.960 . S
C16 N17 1.342 . S
C16 C20 1.401 . S
C16 C21 1.499 . S
N17 Co0 1.989 . S
N17 C16 1.342 . S
N17 N18 1.388 . S
N18 Co1 1.993 . S
N18 N17 1.388 . S
N18 C19 1.346 . S
C19 N18 1.346 . S
C19 C20 1.396 . S
C19 C29 1.510 1_455 S
C20 C16 1.401 . S
C20 C19 1.396 . S
C21 C16 1.499 . S
C21 H22 0.959 . S
C21 H23 0.960 . S
C21 H24 0.961 . S
H22 C21 0.959 . S
H23 C21 0.960 . S
H24 C21 0.961 . S
O25 Co0 1.967 . S
O25 C33 1.258 . S
O26 Co1 1.941 . S
O26 C33 1.266 . S
H27 C29 0.959 . S
H28 C29 0.961 . S
C29 C19 1.510 1_655 S
C29 H27 0.959 . S
C29 H28 0.961 . S
C29 H30 0.960 . S
H30 C29 0.960 . S
H31 N11 0.862 . S
O32 Co0 1.920 . S
O32 C5 1.289 . S
C33 O25 1.258 . S
C33 O26 1.266 . S
Co34 O37 1.970 . S
Co34 N51 1.989 . S
Co34 O59 1.967 . S
Co34 O66 1.920 . S
Co35 O38 1.966 . S
Co35 N44 2.022 . S
Co35 N52 1.993 . S
Co35 O60 1.941 . S
C36 O37 1.258 . S
C36 O38 1.263 . S
O37 Co34 1.970 . S
O37 C36 1.258 . S
O38 Co35 1.966 . S
O38 C36 1.263 . S
C39 O40 1.235 . S
C39 O66 1.289 . S
O40 C39 1.235 . S
C41 C43 1.400 . S
C41 N44 1.351 . S
C41 C46 1.501 . S
C42 C43 1.387 . S
C42 N45 1.341 . S
C43 C41 1.400 . S
C43 C42 1.387 . S
N44 Co35 2.022 . S
N44 C41 1.351 . S
N44 N45 1.365 . S
N45 C42 1.341 . S
N45 N44 1.365 . S
N45 H65 0.862 . S
C46 C41 1.501 . S
C46 H47 0.961 . S
C46 H48 0.961 . S
C46 H49 0.960 . S
H47 C46 0.961 . S
H48 C46 0.961 . S
H49 C46 0.960 . S
C50 N51 1.342 . S
C50 C54 1.401 . S
C50 C55 1.499 . S
N51 Co34 1.989 . S
N51 C50 1.342 . S
N51 N52 1.388 . S
N52 Co35 1.993 . S
N52 N51 1.388 . S
N52 C53 1.346 . S
C53 N52 1.346 . S
C53 C54 1.396 . S
C53 C63 1.510 . S
C54 C50 1.401 . S
C54 C53 1.396 . S
C55 C50 1.499 . S
C55 H56 0.959 . S
C55 H57 0.960 . S
C55 H58 0.961 . S
H56 C55 0.959 . S
H57 C55 0.960 . S
H58 C55 0.961 . S
O59 Co34 1.967 . S
O59 C67 1.258 . S
O60 Co35 1.941 . S
O60 C67 1.266 . S
H61 C63 0.959 . S
H62 C63 0.961 . S
C63 C53 1.510 . S
C63 H61 0.959 . S
C63 H62 0.961 . S
C63 H64 0.960 . S
H64 C63 0.960 . S
H65 N45 0.862 . S
O66 Co34 1.920 . S
O66 C39 1.289 . S
C67 O59 1.258 . S
C67 O60 1.266 . S
Co68 O71 1.970 . S
Co68 N85 1.989 . S
Co68 O93 1.967 . S
Co68 O100 1.920 . S
Co69 O72 1.966 . S
Co69 N78 2.022 . S
Co69 N86 1.993 . S
Co69 O94 1.941 . S
C70 O71 1.258 . S
C70 O72 1.263 . S
O71 Co68 1.970 . S
O71 C70 1.258 . S
O72 Co69 1.966 . S
O72 C70 1.263 . S
C73 O74 1.235 . S
C73 O100 1.289 . S
O74 C73 1.235 . S
C75 C77 1.400 . S
C75 N78 1.351 . S
C75 C80 1.501 . S
C76 C77 1.387 . S
C76 N79 1.341 . S
C77 C75 1.400 . S
C77 C76 1.387 . S
N78 Co69 2.022 . S
N78 C75 1.351 . S
N78 N79 1.365 . S
N79 C76 1.341 . S
N79 N78 1.365 . S
N79 H99 0.862 . S
C80 C75 1.501 . S
C80 H81 0.961 . S
C80 H82 0.961 . S
C80 H83 0.960 . S
H81 C80 0.961 . S
H82 C80 0.961 . S
H83 C80 0.960 . S
C84 N85 1.342 . S
C84 C88 1.401 . S
C84 C89 1.499 . S
N85 Co68 1.989 . S
N85 C84 1.342 . S
N85 N86 1.388 . S
N86 Co69 1.993 . S
N86 N85 1.388 . S
N86 C87 1.346 . S
C87 N86 1.346 . S
C87 C88 1.396 . S
C87 C97 1.510 . S
C88 C84 1.401 . S
C88 C87 1.396 . S
C89 C84 1.499 . S
C89 H90 0.959 . S
C89 H91 0.960 . S
C89 H92 0.961 . S
H90 C89 0.959 . S
H91 C89 0.960 . S
H92 C89 0.961 . S
O93 Co68 1.967 . S
O93 C101 1.258 . S
O94 Co69 1.941 . S
O94 C101 1.266 . S
H95 C97 0.959 . S
H96 C97 0.961 . S
C97 C87 1.510 . S
C97 H95 0.959 . S
C97 H96 0.961 . S
C97 H98 0.960 . S
H98 C97 0.960 . S
H99 N79 0.862 . S
O100 Co68 1.920 . S
O100 C73 1.289 . S
C101 O93 1.258 . S
C101 O94 1.266 . S
Co102 O105 1.970 . S
Co102 N119 1.989 . S
Co102 O127 1.967 . S
Co102 O134 1.920 . S
Co103 O106 1.966 . S
Co103 N112 2.022 . S
Co103 N120 1.993 . S
Co103 O128 1.941 . S
C104 O105 1.258 . S
C104 O106 1.263 . S
O105 Co102 1.970 . S
O105 C104 1.258 . S
O106 Co103 1.966 . S
O106 C104 1.263 . S
C107 O108 1.235 . S
C107 O134 1.289 . S
O108 C107 1.235 . S
C109 C111 1.400 . S
C109 N112 1.351 1_565 S
C109 C114 1.503 1_455 S
C110 C111 1.387 . S
C110 N113 1.341 . S
C111 C109 1.400 . S
C111 C110 1.387 . S
N112 Co103 2.022 . S
N112 C109 1.351 1_545 S
N112 N113 1.365 1_545 S
N113 C110 1.341 . S
N113 N112 1.365 1_565 S
N113 H133 0.862 1_565 S
C114 C109 1.503 1_655 S
C114 H115 0.950 1_665 S
C114 H116 0.962 . S
C114 H117 0.967 . S
H115 C114 0.950 1_445 S
H116 C114 0.962 . S
H117 C114 0.967 . S
C118 N119 1.342 . S
C118 C122 1.401 . S
C118 C123 1.499 . S
N119 Co102 1.989 . S
N119 C118 1.342 . S
N119 N120 1.388 . S
N120 Co103 1.993 . S
N120 N119 1.388 . S
N120 C121 1.346 . S
C121 N120 1.346 . S
C121 C122 1.396 . S
C121 C131 1.510 . S
C122 C118 1.401 . S
C122 C121 1.396 . S
C123 C118 1.499 . S
C123 H124 0.959 . S
C123 H125 0.960 . S
C123 H126 0.961 . S
H124 C123 0.959 . S
H125 C123 0.960 . S
H126 C123 0.961 . S
O127 Co102 1.967 . S
O127 C135 1.258 . S
O128 Co103 1.941 . S
O128 C135 1.266 . S
H129 C131 0.959 . S
H130 C131 0.961 . S
C131 C121 1.510 . S
C131 H129 0.959 . S
C131 H130 0.961 . S
C131 H132 0.960 . S
H132 C131 0.960 . S
H133 N113 0.862 1_545 S
O134 Co102 1.920 . S
O134 C107 1.289 . S
C135 O127 1.258 . S
C135 O128 1.266 . S
Co136 O139 1.970 . S
Co136 N153 1.989 . S
Co136 O161 1.967 . S
Co136 O168 1.920 1_455 S
Co137 O140 1.966 . S
Co137 N146 2.022 . S
Co137 N154 1.993 . S
Co137 O162 1.941 . S
C138 O139 1.258 . S
C138 O140 1.263 . S
O139 Co136 1.970 . S
O139 C138 1.258 . S
O140 Co137 1.966 . S
O140 C138 1.263 . S
C141 O142 1.235 . S
C141 O168 1.289 . S
O142 C141 1.235 . S
C143 C145 1.400 . S
C143 N146 1.351 . S
C143 C148 1.501 . S
C144 C145 1.387 . S
C144 N147 1.341 . S
C145 C143 1.400 . S
C145 C144 1.387 . S
N146 Co137 2.022 . S
N146 C143 1.351 . S
N146 N147 1.365 . S
N147 C144 1.341 . S
N147 N146 1.365 . S
N147 H167 0.862 . S
C148 C143 1.501 . S
C148 H149 0.961 . S
C148 H150 0.961 . S
C148 H151 0.960 . S
H149 C148 0.961 . S
H150 C148 0.961 . S
H151 C148 0.960 . S
C152 N153 1.342 . S
C152 C156 1.401 . S
C152 C157 1.499 . S
N153 Co136 1.989 . S
N153 C152 1.342 . S
N153 N154 1.388 . S
N154 Co137 1.993 . S
N154 N153 1.388 . S
N154 C155 1.346 . S
C155 N154 1.346 . S
C155 C156 1.396 . S
C155 C165 1.510 . S
C156 C152 1.401 . S
C156 C155 1.396 . S
C157 C152 1.499 . S
C157 H158 0.959 . S
C157 H159 0.960 . S
C157 H160 0.961 . S
H158 C157 0.959 . S
H159 C157 0.960 . S
H160 C157 0.961 . S
O161 Co136 1.967 . S
O161 C169 1.258 . S
O162 Co137 1.941 . S
O162 C169 1.266 . S
H163 C165 0.959 . S
H164 C165 0.961 . S
C165 C155 1.510 . S
C165 H163 0.959 . S
C165 H164 0.961 . S
C165 H166 0.960 . S
H166 C165 0.960 . S
H167 N147 0.862 . S
O168 Co136 1.920 1_655 S
O168 C141 1.289 . S
C169 O161 1.258 . S
C169 O162 1.266 . S
Co170 O173 1.970 . S
Co170 N187 1.989 . S
Co170 O195 1.967 . S
Co170 O202 1.920 . S
Co171 O174 1.966 . S
Co171 N180 2.022 . S
Co171 N188 1.993 . S
Co171 O196 1.941 . S
C172 O173 1.258 . S
C172 O174 1.263 . S
O173 Co170 1.970 . S
O173 C172 1.258 . S
O174 Co171 1.966 . S
O174 C172 1.263 . S
C175 O176 1.235 . S
C175 O202 1.289 . S
O176 C175 1.235 . S
C177 C179 1.400 1_565 S
C177 N180 1.351 . S
C177 C182 1.501 1_455 S
C178 C179 1.387 . S
C178 N181 1.341 1_545 S
C179 C177 1.400 1_545 S
C179 C178 1.387 . S
N180 Co171 2.022 . S
N180 C177 1.351 . S
N180 N181 1.365 . S
N181 C178 1.341 1_565 S
N181 N180 1.365 . S
N181 H201 0.862 . S
C182 C177 1.501 1_655 S
C182 H183 0.961 . S
C182 H184 0.961 . S
C182 H185 0.960 . S
H183 C182 0.961 . S
H184 C182 0.961 . S
H185 C182 0.960 . S
C186 N187 1.342 . S
C186 C190 1.401 . S
C186 C191 1.499 . S
N187 Co170 1.989 . S
N187 C186 1.342 . S
N187 N188 1.388 . S
N188 Co171 1.993 . S
N188 N187 1.388 . S
N188 C189 1.346 . S
C189 N188 1.346 . S
C189 C190 1.396 . S
C189 C199 1.510 . S
C190 C186 1.401 . S
C190 C189 1.396 . S
C191 C186 1.499 . S
C191 H192 0.959 . S
C191 H193 0.960 . S
C191 H194 0.961 . S
H192 C191 0.959 . S
H193 C191 0.960 . S
H194 C191 0.961 . S
O195 Co170 1.967 . S
O195 C203 1.258 . S
O196 Co171 1.941 . S
O196 C203 1.266 . S
H197 C199 0.959 . S
H198 C199 0.961 . S
C199 C189 1.510 . S
C199 H197 0.959 . S
C199 H198 0.961 . S
C199 H200 0.960 . S
H200 C199 0.960 . S
H201 N181 0.862 . S
O202 Co170 1.920 . S
O202 C175 1.289 . S
C203 O195 1.258 . S
C203 O196 1.266 . S
Co204 O207 1.970 . S
Co204 N221 1.989 . S
Co204 O229 1.967 . S
Co204 O236 1.920 . S
Co205 O208 1.966 . S
Co205 N214 2.022 . S
Co205 N222 1.993 . S
Co205 O230 1.941 . S
C206 O207 1.258 . S
C206 O208 1.263 . S
O207 Co204 1.970 . S
O207 C206 1.258 . S
O208 Co205 1.966 . S
O208 C206 1.263 . S
C209 O210 1.235 . S
C209 O236 1.289 . S
O210 C209 1.235 . S
C211 C213 1.400 . S
C211 N214 1.351 . S
C211 C216 1.501 . S
C212 C213 1.387 . S
C212 N215 1.341 . S
C213 C211 1.400 . S
C213 C212 1.387 . S
N214 Co205 2.022 . S
N214 C211 1.351 . S
N214 N215 1.365 . S
N215 C212 1.341 . S
N215 N214 1.365 . S
N215 H235 0.862 . S
C216 C211 1.501 . S
C216 H217 0.961 . S
C216 H218 0.961 . S
C216 H219 0.960 . S
H217 C216 0.961 . S
H218 C216 0.961 . S
H219 C216 0.960 . S
C220 N221 1.342 . S
C220 C224 1.401 . S
C220 C225 1.499 . S
N221 Co204 1.989 . S
N221 C220 1.342 . S
N221 N222 1.388 . S
N222 Co205 1.993 . S
N222 N221 1.388 . S
N222 C223 1.346 . S
C223 N222 1.346 . S
C223 C224 1.396 . S
C223 C233 1.510 . S
C224 C220 1.401 . S
C224 C223 1.396 . S
C225 C220 1.499 . S
C225 H226 0.959 . S
C225 H227 0.960 . S
C225 H228 0.961 . S
H226 C225 0.959 . S
H227 C225 0.960 . S
H228 C225 0.961 . S
O229 Co204 1.967 . S
O229 C237 1.258 . S
O230 Co205 1.941 . S
O230 C237 1.266 . S
H231 C233 0.959 . S
H232 C233 0.961 . S
C233 C223 1.510 . S
C233 H231 0.959 . S
C233 H232 0.961 . S
C233 H234 0.960 . S
H234 C233 0.960 . S
H235 N215 0.862 . S
O236 Co204 1.920 . S
O236 C209 1.289 . S
C237 O229 1.258 . S
C237 O230 1.266 . S
Co238 O241 1.970 . S
Co238 N255 1.989 . S
Co238 O263 1.967 . S
Co238 O270 1.920 . S
Co239 O242 1.966 . S
Co239 N248 2.022 . S
Co239 N256 1.993 . S
Co239 O264 1.941 . S
C240 O241 1.258 . S
C240 O242 1.263 . S
O241 Co238 1.970 . S
O241 C240 1.258 . S
O242 Co239 1.966 . S
O242 C240 1.263 . S
C243 O244 1.235 . S
C243 O270 1.289 . S
O244 C243 1.235 . S
C245 C247 1.400 . S
C245 N248 1.351 . S
C245 C250 1.501 . S
C246 C247 1.387 . S
C246 N249 1.341 . S
C247 C245 1.400 . S
C247 C246 1.387 . S
N248 Co239 2.022 . S
N248 C245 1.351 . S
N248 N249 1.365 . S
N249 C246 1.341 . S
N249 N248 1.365 . S
N249 H269 0.862 . S
C250 C245 1.501 . S
C250 H251 0.961 . S
C250 H252 0.961 . S
C250 H253 0.960 . S
H251 C250 0.961 . S
H252 C250 0.961 . S
H253 C250 0.960 . S
C254 N255 1.342 . S
C254 C258 1.401 . S
C254 C259 1.499 . S
N255 Co238 1.989 . S
N255 C254 1.342 . S
N255 N256 1.388 . S
N256 Co239 1.993 . S
N256 N255 1.388 . S
N256 C257 1.346 . S
C257 N256 1.346 . S
C257 C258 1.396 . S
C257 C267 1.510 . S
C258 C254 1.401 . S
C258 C257 1.396 . S
C259 C254 1.499 . S
C259 H260 0.959 . S
C259 H261 0.960 . S
C259 H262 0.961 . S
H260 C259 0.959 . S
H261 C259 0.960 . S
H262 C259 0.961 . S
O263 Co238 1.967 . S
O263 C271 1.258 . S
O264 Co239 1.941 . S
O264 C271 1.266 . S
H265 C267 0.959 . S
H266 C267 0.961 . S
C267 C257 1.510 . S
C267 H265 0.959 . S
C267 H266 0.961 . S
C267 H268 0.960 . S
H268 C267 0.960 . S
H269 N249 0.862 . S
O270 Co238 1.920 . S
O270 C243 1.289 . S
C271 O263 1.258 . S
C271 O264 1.266 . S
H272 C278 0.930 . S
H273 C282 0.930 . S
H274 C287 0.929 . S
H275 C285 0.929 . S
H276 C280 0.929 . S
H277 C286 0.929 . S
C278 H272 0.930 . S
C278 C279 1.367 . S
C278 C286 1.378 . S
C279 C278 1.367 . S
C279 C287 1.433 . S
C280 H276 0.929 . S
C280 C282 1.378 . S
C280 C284 1.350 . S
C281 C284 1.463 . S
C281 C286 1.350 . S
C281 N289 1.427 . S
C282 H273 0.930 . S
C282 C280 1.378 . S
C282 C283 1.367 . S
C283 C282 1.367 . S
C283 C285 1.433 . S
C284 C280 1.350 . S
C284 C281 1.463 . S
C284 N288 1.427 . S
C285 H275 0.929 . S
C285 C283 1.433 . S
C285 N288 1.384 . S
C286 H277 0.929 . S
C286 C278 1.378 . S
C286 C281 1.350 . S
C287 H274 0.929 . S
C287 C279 1.433 . S
C287 N289 1.384 . S
N288 C284 1.427 . S
N288 C285 1.384 . S
N289 C281 1.427 . S
N289 C287 1.384 . S
H290 C296 0.930 . S
H291 C300 0.930 . S
H292 C305 0.929 . S
H293 C303 0.929 . S
H294 C298 0.929 . S
H295 C304 0.929 . S
C296 H290 0.930 . S
C296 C297 1.367 . S
C296 C304 1.378 . S
C297 C296 1.367 . S
C297 C305 1.433 . S
C298 H294 0.929 . S
C298 C300 1.378 . S
C298 C302 1.350 . S
C299 C302 1.463 . S
C299 C304 1.350 . S
C299 N307 1.427 . S
C300 H291 0.930 . S
C300 C298 1.378 . S
C300 C301 1.367 . S
C301 C300 1.367 . S
C301 C303 1.433 . S
C302 C298 1.350 . S
C302 C299 1.463 . S
C302 N306 1.427 . S
C303 H293 0.929 . S
C303 C301 1.433 . S
C303 N306 1.384 . S
C304 H295 0.929 . S
C304 C296 1.378 . S
C304 C299 1.350 . S
C305 H292 0.929 . S
C305 C297 1.433 . S
C305 N307 1.384 . S
N306 C302 1.427 . S
N306 C303 1.384 . S
N307 C299 1.427 . S
N307 C305 1.384 . S
H308 C314 0.930 . S
H309 C318 0.930 . S
H310 C323 0.929 . S
H311 C321 0.929 . S
H312 C316 0.929 . S
H313 C322 0.929 . S
C314 H308 0.930 . S
C314 C315 1.367 . S
C314 C322 1.378 . S
C315 C314 1.367 . S
C315 C323 1.433 . S
C316 H312 0.929 . S
C316 C318 1.378 . S
C316 C320 1.350 . S
C317 C320 1.463 . S
C317 C322 1.350 . S
C317 N325 1.427 . S
C318 H309 0.930 . S
C318 C316 1.378 . S
C318 C319 1.367 . S
C319 C318 1.367 . S
C319 C321 1.433 . S
C320 C316 1.350 . S
C320 C317 1.463 . S
C320 N324 1.427 . S
C321 H311 0.929 . S
C321 C319 1.433 . S
C321 N324 1.384 . S
C322 H313 0.929 . S
C322 C314 1.378 . S
C322 C317 1.350 . S
C323 H310 0.929 . S
C323 C315 1.433 . S
C323 N325 1.384 . S
N324 C320 1.427 . S
N324 C321 1.384 . S
N325 C317 1.427 . S
N325 C323 1.384 . S
H326 C332 0.930 . S
H327 C336 0.930 . S
H328 C341 0.929 . S
H329 C339 0.929 . S
H330 C334 0.929 . S
H331 C340 0.929 . S
C332 H326 0.930 . S
C332 C333 1.367 . S
C332 C340 1.378 . S
C333 C332 1.367 . S
C333 C341 1.433 . S
C334 H330 0.929 . S
C334 C336 1.378 . S
C334 C338 1.350 . S
C335 C338 1.463 . S
C335 C340 1.350 . S
C335 N343 1.427 . S
C336 H327 0.930 . S
C336 C334 1.378 . S
C336 C337 1.367 . S
C337 C336 1.367 . S
C337 C339 1.433 . S
C338 C334 1.350 . S
C338 C335 1.463 . S
C338 N342 1.427 . S
C339 H329 0.929 . S
C339 C337 1.433 . S
C339 N342 1.384 . S
C340 H331 0.929 . S
C340 C332 1.378 . S
C340 C335 1.350 . S
C341 H328 0.929 . S
C341 C333 1.433 . S
C341 N343 1.384 . S
N342 C338 1.427 . S
N342 C339 1.384 . S
N343 C335 1.427 . S
N343 C341 1.384 . S
H344 C350 0.930 . S
H345 C354 0.930 . S
H346 C359 0.929 . S
H347 C357 0.929 . S
H348 C352 0.929 1_554 S
H349 C358 0.929 1_556 S
C350 H344 0.930 . S
C350 C351 1.367 . S
C350 C358 1.378 . S
C351 C350 1.367 . S
C351 C359 1.433 . S
C352 H348 0.929 1_556 S
C352 C354 1.378 . S
C352 C356 1.350 . S
C353 C356 1.463 1_554 S
C353 C358 1.350 . S
C353 N361 1.427 . S
C354 H345 0.930 . S
C354 C352 1.378 . S
C354 C355 1.367 . S
C355 C354 1.367 . S
C355 C357 1.433 . S
C356 C352 1.350 . S
C356 C353 1.463 1_556 S
C356 N360 1.427 . S
C357 H347 0.929 . S
C357 C355 1.433 . S
C357 N360 1.384 . S
C358 H349 0.929 1_554 S
C358 C350 1.378 . S
C358 C353 1.350 . S
C359 H346 0.929 . S
C359 C351 1.433 . S
C359 N361 1.384 . S
N360 C356 1.427 . S
N360 C357 1.384 . S
N361 C353 1.427 . S
N361 C359 1.384 . S
H362 C368 0.930 . S
H363 C372 0.930 . S
H364 C377 0.929 . S
H365 C375 0.929 1_455 S
H366 C370 0.929 . S
H367 C376 0.929 . S
C368 H362 0.930 . S
C368 C369 1.367 . S
C368 C376 1.378 . S
C369 C368 1.367 . S
C369 C377 1.433 . S
C370 H366 0.929 . S
C370 C372 1.378 . S
C370 C374 1.350 . S
C371 C374 1.463 . S
C371 C376 1.350 . S
C371 N379 1.427 . S
C372 H363 0.930 . S
C372 C370 1.378 . S
C372 C373 1.367 . S
C373 C372 1.367 . S
C373 C375 1.433 . S
C374 C370 1.350 . S
C374 C371 1.463 . S
C374 N378 1.427 . S
C375 H365 0.929 1_655 S
C375 C373 1.433 . S
C375 N378 1.384 . S
C376 H367 0.929 . S
C376 C368 1.378 . S
C376 C371 1.350 . S
C377 H364 0.929 . S
C377 C369 1.433 . S
C377 N379 1.384 . S
N378 C374 1.427 . S
N378 C375 1.384 . S
N379 C371 1.427 . S
N379 C377 1.384 . S
H380 C386 0.930 . S
H381 C390 0.930 . S
H382 C395 0.929 . S
H383 C393 0.929 . S
H384 C388 0.929 . S
H385 C394 0.929 . S
C386 H380 0.930 . S
C386 C387 1.367 . S
C386 C394 1.378 . S
C387 C386 1.367 . S
C387 C395 1.433 . S
C388 H384 0.929 . S
C388 C390 1.378 . S
C388 C392 1.350 . S
C389 C392 1.463 . S
C389 C394 1.350 . S
C389 N397 1.427 . S
C390 H381 0.930 . S
C390 C388 1.378 . S
C390 C391 1.367 . S
C391 C390 1.367 . S
C391 C393 1.433 . S
C392 C388 1.350 . S
C392 C389 1.463 . S
C392 N396 1.427 . S
C393 H383 0.929 . S
C393 C391 1.433 . S
C393 N396 1.384 . S
C394 H385 0.929 . S
C394 C386 1.378 . S
C394 C389 1.350 . S
C395 H382 0.929 . S
C395 C387 1.433 . S
C395 N397 1.384 . S
N396 C392 1.427 . S
N396 C393 1.384 . S
N397 C389 1.427 . S
N397 C395 1.384 . S
H398 C404 0.930 1_455 S
H399 C408 0.930 . S
H400 C413 0.929 . S
H401 C411 0.929 . S
H402 C406 0.929 . S
H403 C412 0.929 . S
C404 H398 0.930 1_655 S
C404 C405 1.367 . S
C404 C412 1.378 . S
C405 C404 1.367 . S
C405 C413 1.433 . S
C406 H402 0.929 . S
C406 C408 1.378 . S
C406 C410 1.350 . S
C407 C410 1.463 . S
C407 C412 1.350 . S
C407 N415 1.427 . S
C408 H399 0.930 . S
C408 C406 1.378 . S
C408 C409 1.367 . S
C409 C408 1.367 . S
C409 C411 1.433 . S
C410 C406 1.350 . S
C410 C407 1.463 . S
C410 N414 1.427 . S
C411 H401 0.929 . S
C411 C409 1.433 . S
C411 N414 1.384 . S
C412 H403 0.929 . S
C412 C404 1.378 . S
C412 C407 1.350 . S
C413 H400 0.929 . S
C413 C405 1.433 . S
C413 N415 1.384 . S
N414 C410 1.427 . S
N414 C411 1.384 . S
N415 C407 1.427 . S
N415 C413 1.384 . S
H416 C422 0.930 . S
H417 C426 0.930 . S
H418 C431 0.929 . S
H419 C429 0.929 . S
H420 C424 0.929 . S
H421 C430 0.929 . S
C422 H416 0.930 . S
C422 C423 1.367 . S
C422 C430 1.378 . S
C423 C422 1.367 . S
C423 C431 1.433 . S
C424 H420 0.929 . S
C424 C426 1.378 . S
C424 C428 1.350 . S
C425 C428 1.463 . S
C425 C430 1.350 . S
C425 N433 1.427 . S
C426 H417 0.930 . S
C426 C424 1.378 . S
C426 C427 1.367 . S
C427 C426 1.367 . S
C427 C429 1.433 . S
C428 C424 1.350 . S
C428 C425 1.463 . S
C428 N432 1.427 . S
C429 H419 0.929 . S
C429 C427 1.433 . S
C429 N432 1.384 . S
C430 H421 0.929 . S
C430 C422 1.378 . S
C430 C425 1.350 . S
C431 H418 0.929 . S
C431 C423 1.433 . S
C431 N433 1.384 . S
N432 C428 1.427 . S
N432 C429 1.384 . S
N433 C425 1.427 . S
N433 C431 1.384 . S
H434 C440 0.930 . S
H435 C444 0.930 . S
H436 C449 0.929 . S
H437 C447 0.929 . S
H438 C442 0.929 . S
H439 C448 0.929 . S
C440 H434 0.930 . S
C440 C441 1.367 . S
C440 C448 1.378 . S
C441 C440 1.367 . S
C441 C449 1.433 . S
C442 H438 0.929 . S
C442 C444 1.378 . S
C442 C446 1.350 . S
C443 C446 1.463 . S
C443 C448 1.350 . S
C443 N451 1.427 . S
C444 H435 0.930 . S
C444 C442 1.378 . S
C444 C445 1.367 . S
C445 C444 1.367 . S
C445 C447 1.433 . S
C446 C442 1.350 . S
C446 C443 1.463 . S
C446 N450 1.427 . S
C447 H437 0.929 . S
C447 C445 1.433 . S
C447 N450 1.384 . S
C448 H439 0.929 . S
C448 C440 1.378 . S
C448 C443 1.350 . S
C449 H436 0.929 . S
C449 C441 1.433 . S
C449 N451 1.384 . S
N450 C446 1.427 . S
N450 C447 1.384 . S
N451 C443 1.427 . S
N451 C449 1.384 . S
H452 C458 0.930 . S
H453 C462 0.930 . S
H454 C467 0.929 . S
H455 C465 0.929 . S
H456 C460 0.929 . S
H457 C466 0.929 . S
C458 H452 0.930 . S
C458 C459 1.367 . S
C458 C466 1.378 . S
C459 C458 1.367 . S
C459 C467 1.433 . S
C460 H456 0.929 . S
C460 C462 1.378 . S
C460 C464 1.350 . S
C461 C464 1.463 1_565 S
C461 C466 1.350 . S
C461 N469 1.427 1_565 S
C462 H453 0.930 . S
C462 C460 1.378 . S
C462 C463 1.367 . S
C463 C462 1.367 . S
C463 C465 1.433 . S
C464 C460 1.350 . S
C464 C461 1.463 1_545 S
C464 N468 1.427 . S
C465 H455 0.929 . S
C465 C463 1.433 . S
C465 N468 1.384 . S
C466 H457 0.929 . S
C466 C458 1.378 . S
C466 C461 1.350 . S
C467 H454 0.929 . S
C467 C459 1.433 . S
C467 N469 1.384 1_565 S
N468 C464 1.427 . S
N468 C465 1.384 . S
N469 C461 1.427 1_545 S
N469 C467 1.384 1_545 S
H470 C476 0.930 . S
H471 C480 0.930 . S
H472 C485 0.929 . S
H473 C483 0.929 . S
H474 C478 0.929 1_554 S
H475 C484 0.929 1_556 S
C476 H470 0.930 . S
C476 C477 1.367 . S
C476 C484 1.378 . S
C477 C476 1.367 . S
C477 C485 1.433 . S
C478 H474 0.929 1_556 S
C478 C480 1.378 . S
C478 C482 1.350 . S
C479 C482 1.463 1_564 S
C479 C484 1.350 . S
C479 N487 1.427 1_565 S
C480 H471 0.930 . S
C480 C478 1.378 . S
C480 C481 1.367 . S
C481 C480 1.367 . S
C481 C483 1.433 . S
C482 C478 1.350 . S
C482 C479 1.463 1_546 S
C482 N486 1.427 . S
C483 H473 0.929 . S
C483 C481 1.433 . S
C483 N486 1.384 . S
C484 H475 0.929 1_554 S
C484 C476 1.378 . S
C484 C479 1.350 . S
C485 H472 0.929 . S
C485 C477 1.433 . S
C485 N487 1.384 1_565 S
N486 C482 1.427 . S
N486 C483 1.384 . S
N487 C479 1.427 1_545 S
N487 C485 1.384 1_545 S
H488 C494 0.930 . S
H489 C498 0.930 . S
H490 C503 0.929 . S
H491 C501 0.929 . S
H492 C496 0.929 . S
H493 C502 0.929 . S
C494 H488 0.930 . S
C494 C495 1.367 . S
C494 C502 1.378 . S
C495 C494 1.367 . S
C495 C503 1.433 . S
C496 H492 0.929 . S
C496 C498 1.378 . S
C496 C500 1.350 . S
C497 C500 1.463 . S
C497 C502 1.350 . S
C497 N505 1.427 . S
C498 H489 0.930 . S
C498 C496 1.378 . S
C498 C499 1.367 . S
C499 C498 1.367 . S
C499 C501 1.433 . S
C500 C496 1.350 . S
C500 C497 1.463 . S
C500 N504 1.427 . S
C501 H491 0.929 . S
C501 C499 1.433 . S
C501 N504 1.384 . S
C502 H493 0.929 . S
C502 C494 1.378 . S
C502 C497 1.350 . S
C503 H490 0.929 . S
C503 C495 1.433 . S
C503 N505 1.384 . S
N504 C500 1.427 . S
N504 C501 1.384 . S
N505 C497 1.427 . S
N505 C503 1.384 . S
H506 C512 0.930 . S
H507 C516 0.930 . S
H508 C521 0.929 . S
H509 C519 0.929 . S
H510 C514 0.929 . S
H511 C520 0.929 . S
C512 H506 0.930 . S
C512 C513 1.367 . S
C512 C520 1.378 . S
C513 C512 1.367 . S
C513 C521 1.433 . S
C514 H510 0.929 . S
C514 C516 1.378 . S
C514 C518 1.350 . S
C515 C518 1.463 . S
C515 C520 1.350 . S
C515 N523 1.427 . S
C516 H507 0.930 . S
C516 C514 1.378 . S
C516 C517 1.363 1_545 S
C517 C516 1.363 1_565 S
C517 C519 1.429 1_565 S
C518 C514 1.350 . S
C518 C515 1.463 . S
C518 N522 1.427 . S
C519 H509 0.929 . S
C519 C517 1.429 1_545 S
C519 N522 1.384 . S
C520 H511 0.929 . S
C520 C512 1.378 . S
C520 C515 1.350 . S
C521 H508 0.929 . S
C521 C513 1.433 . S
C521 N523 1.384 . S
N522 C518 1.427 . S
N522 C519 1.384 . S
N523 C515 1.427 . S
N523 C521 1.384 . S
H524 C530 0.930 . S
H525 C534 0.930 . S
H526 C539 0.929 . S
H527 C537 0.929 . S
H528 C532 0.929 . S
H529 C538 0.929 . S
C530 H524 0.930 . S
C530 C531 1.367 . S
C530 C538 1.378 . S
C531 C530 1.367 . S
C531 C539 1.433 . S
C532 H528 0.929 . S
C532 C534 1.378 1_455 S
C532 C536 1.350 . S
C533 C536 1.463 . S
C533 C538 1.350 . S
C533 N541 1.427 . S
C534 H525 0.930 . S
C534 C532 1.378 1_655 S
C534 C535 1.367 . S
C535 C534 1.367 . S
C535 C537 1.433 . S
C536 C532 1.350 . S
C536 C533 1.463 . S
C536 N540 1.427 . S
C537 H527 0.929 . S
C537 C535 1.433 . S
C537 N540 1.384 1_655 S
C538 H529 0.929 . S
C538 C530 1.378 . S
C538 C533 1.350 . S
C539 H526 0.929 . S
C539 C531 1.433 . S
C539 N541 1.384 . S
N540 C536 1.427 . S
N540 C537 1.384 1_455 S
N541 C533 1.427 . S
N541 C539 1.384 . S
H542 C548 0.930 1_655 S
H543 C552 0.930 . S
H544 C557 0.929 . S
H545 C555 0.929 1_655 S
H546 C550 0.929 . S
H547 C556 0.929 1_655 S
C548 H542 0.930 1_455 S
C548 C549 1.367 . S
C548 C556 1.378 . S
C549 C548 1.367 . S
C549 C557 1.433 . S
C550 H546 0.929 . S
C550 C552 1.378 . S
C550 C554 1.350 . S
C551 C554 1.463 . S
C551 C556 1.350 . S
C551 N559 1.427 . S
C552 H543 0.930 . S
C552 C550 1.378 . S
C552 C553 1.367 . S
C553 C552 1.367 . S
C553 C555 1.433 . S
C554 C550 1.350 . S
C554 C551 1.463 . S
C554 N558 1.427 . S
C555 H545 0.929 1_455 S
C555 C553 1.433 . S
C555 N558 1.384 . S
C556 H547 0.929 1_455 S
C556 C548 1.378 . S
C556 C551 1.350 . S
C557 H544 0.929 . S
C557 C549 1.433 . S
C557 N559 1.384 . S
N558 C554 1.427 . S
N558 C555 1.384 . S
N559 C551 1.427 . S
N559 C557 1.384 . S
H560 C566 0.930 . S
H561 C570 0.930 . S
H562 C575 0.929 . S
H563 C573 0.929 . S
H564 C568 0.929 . S
H565 C574 0.929 . S
C566 H560 0.930 . S
C566 C567 1.367 . S
C566 C574 1.378 . S
C567 C566 1.367 . S
C567 C575 1.433 . S
C568 H564 0.929 . S
C568 C570 1.378 . S
C568 C572 1.350 . S
C569 C572 1.463 . S
C569 C574 1.350 . S
C569 N577 1.427 . S
C570 H561 0.930 . S
C570 C568 1.378 . S
C570 C571 1.367 . S
C571 C570 1.367 . S
C571 C573 1.433 . S
C572 C568 1.350 . S
C572 C569 1.463 . S
C572 N576 1.427 . S
C573 H563 0.929 . S
C573 C571 1.433 . S
C573 N576 1.384 . S
C574 H565 0.929 . S
C574 C566 1.378 . S
C574 C569 1.350 . S
C575 H562 0.929 . S
C575 C567 1.433 . S
C575 N577 1.384 . S
N576 C572 1.427 . S
N576 C573 1.384 . S
N577 C569 1.427 . S
N577 C575 1.384 . S
H578 C584 0.930 . S
H579 C588 0.930 . S
H580 C593 0.929 . S
H581 C591 0.929 . S
H582 C586 0.929 . S
H583 C592 0.929 . S
C584 H578 0.930 . S
C584 C585 1.367 . S
C584 C592 1.378 . S
C585 C584 1.367 . S
C585 C593 1.433 . S
C586 H582 0.929 . S
C586 C588 1.378 . S
C586 C590 1.350 . S
C587 C590 1.463 . S
C587 C592 1.350 . S
C587 N595 1.427 . S
C588 H579 0.930 . S
C588 C586 1.378 . S
C588 C589 1.367 . S
C589 C588 1.367 . S
C589 C591 1.433 . S
C590 C586 1.350 . S
C590 C587 1.463 . S
C590 N594 1.427 . S
C591 H581 0.929 . S
C591 C589 1.433 . S
C591 N594 1.384 . S
C592 H583 0.929 . S
C592 C584 1.378 . S
C592 C587 1.350 . S
C593 H580 0.929 . S
C593 C585 1.433 . S
C593 N595 1.384 . S
N594 C590 1.427 . S
N594 C591 1.384 . S
N595 C587 1.427 . S
N595 C593 1.384 . S
H596 C602 0.930 . S
H597 C606 0.930 . S
H598 C611 0.929 . S
H599 C609 0.929 . S
H600 C604 0.929 . S
H601 C610 0.929 . S
C602 H596 0.930 . S
C602 C603 1.367 . S
C602 C610 1.378 . S
C603 C602 1.367 . S
C603 C611 1.433 . S
C604 H600 0.929 . S
C604 C606 1.378 . S
C604 C608 1.350 . S
C605 C608 1.463 . S
C605 C610 1.350 . S
C605 N613 1.427 . S
C606 H597 0.930 . S
C606 C604 1.378 . S
C606 C607 1.367 . S
C607 C606 1.367 . S
C607 C609 1.433 . S
C608 C604 1.350 . S
C608 C605 1.463 . S
C608 N612 1.427 . S
C609 H599 0.929 . S
C609 C607 1.433 . S
C609 N612 1.384 . S
C610 H601 0.929 . S
C610 C602 1.378 . S
C610 C605 1.350 . S
C611 H598 0.929 . S
C611 C603 1.433 . S
C611 N613 1.384 . S
N612 C608 1.427 . S
N612 C609 1.384 . S
N613 C605 1.427 . S
N613 C611 1.384 . S
H614 C620 0.930 . S
H615 C624 0.930 . S
H616 C629 0.929 . S
H617 C627 0.929 . S
H618 C622 0.929 . S
H619 C628 0.929 . S
C620 H614 0.930 . S
C620 C621 1.367 . S
C620 C628 1.378 . S
C621 C620 1.367 . S
C621 C629 1.433 . S
C622 H618 0.929 . S
C622 C624 1.378 . S
C622 C626 1.350 . S
C623 C626 1.463 . S
C623 C628 1.350 . S
C623 N631 1.427 . S
C624 H615 0.930 . S
C624 C622 1.378 . S
C624 C625 1.367 . S
C625 C624 1.367 . S
C625 C627 1.433 . S
C626 C622 1.350 . S
C626 C623 1.463 . S
C626 N630 1.427 . S
C627 H617 0.929 . S
C627 C625 1.433 . S
C627 N630 1.384 . S
C628 H619 0.929 . S
C628 C620 1.378 . S
C628 C623 1.350 . S
C629 H616 0.929 . S
C629 C621 1.433 . S
C629 N631 1.384 . S
N630 C626 1.427 . S
N630 C627 1.384 . S
N631 C623 1.427 . S
N631 C629 1.384 . S
C279 C20 1.460 . S
C283 C190 1.457 . S
C297 C224 1.478 . S
C301 C54 1.477 . S
C315 C88 1.462 . S
C319 C258 1.459 . S
C333 C156 1.477 . S
C337 C122 1.478 . S
C351 C33 1.160 . S
C355 C138 1.166 . S
C369 C67 1.164 . S
C373 C172 1.166 1_655 S
C387 C237 1.163 . S
C391 C70 1.167 . S
C405 C104 1.165 1_655 S
C409 C271 1.164 . S
C423 C135 1.161 . S
C427 C240 1.161 . S
C441 C203 1.168 . S
C445 C36 1.171 . S
C459 C206 1.167 . S
C463 C101 1.160 . S
C477 C2 1.161 . S
C481 C169 1.155 . S
C495 C9 1.468 . S
C499 C5 1.567 . S
C513 C43 1.464 . S
C517 C39 1.575 . S
C531 C77 1.481 . S
C535 C73 1.570 . S
C549 C111 1.482 . S
C553 C107 1.572 . S
C567 C141 1.572 . S
C571 C145 1.482 . S
C585 C179 1.468 . S
C589 C175 1.567 . S
C603 C213 1.472 1_455 S
C607 C209 1.570 . S
C621 C243 1.566 1_565 S
C625 C247 1.467 . S
