# Generated by pormake.
# Topology smc, (6)-cn, num edge types: 1
# Building blocks:
#     Node 0, Type 0, BuildingBlock: KUMBUR_clean_sbu_0, # of connection points: 6
#     Node 1, Type 0, BuildingBlock: KUMBUR_clean_sbu_0, # of connection points: 6
#     Node 2, Type 0, BuildingBlock: KUMBUR_clean_sbu_0, # of connection points: 6
#     Node 3, Type 0, BuildingBlock: KUMBUR_clean_sbu_0, # of connection points: 6
#     Node 4, Type 0, BuildingBlock: KUMBUR_clean_sbu_0, # of connection points: 6
#     Node 5, Type 0, BuildingBlock: KUMBUR_clean_sbu_0, # of connection points: 6
#     Node 6, Type 0, BuildingBlock: KUMBUR_clean_sbu_0, # of connection points: 6
#     Node 7, Type 0, BuildingBlock: KUMBUR_clean_sbu_0, # of connection points: 6
#     Node 8, Type 0, BuildingBlock: KUMBUR_clean_sbu_0, # of connection points: 6
#     Edge 9, Type (0, 0), BuildingBlock: ZUJKAS_clean_linker_0, # of connection points: 2
#     Edge 10, Type (0, 0), BuildingBlock: ZUJKAS_clean_linker_0, # of connection points: 2
#     Edge 11, Type (0, 0), BuildingBlock: ZUJKAS_clean_linker_0, # of connection points: 2
#     Edge 12, Type (0, 0), BuildingBlock: ZUJKAS_clean_linker_0, # of connection points: 2
#     Edge 13, Type (0, 0), BuildingBlock: ZUJKAS_clean_linker_0, # of connection points: 2
#     Edge 14, Type (0, 0), BuildingBlock: ZUJKAS_clean_linker_0, # of connection points: 2
#     Edge 15, Type (0, 0), BuildingBlock: ZUJKAS_clean_linker_0, # of connection points: 2
#     Edge 16, Type (0, 0), BuildingBlock: ZUJKAS_clean_linker_0, # of connection points: 2
#     Edge 17, Type (0, 0), BuildingBlock: ZUJKAS_clean_linker_0, # of connection points: 2
#     Edge 18, Type (0, 0), BuildingBlock: ZUJKAS_clean_linker_0, # of connection points: 2
#     Edge 19, Type (0, 0), BuildingBlock: ZUJKAS_clean_linker_0, # of connection points: 2
#     Edge 20, Type (0, 0), BuildingBlock: ZUJKAS_clean_linker_0, # of connection points: 2
#     Edge 21, Type (0, 0), BuildingBlock: ZUJKAS_clean_linker_0, # of connection points: 2
#     Edge 22, Type (0, 0), BuildingBlock: ZUJKAS_clean_linker_0, # of connection points: 2
#     Edge 23, Type (0, 0), BuildingBlock: ZUJKAS_clean_linker_0, # of connection points: 2
#     Edge 24, Type (0, 0), BuildingBlock: ZUJKAS_clean_linker_0, # of connection points: 2
#     Edge 25, Type (0, 0), BuildingBlock: ZUJKAS_clean_linker_0, # of connection points: 2
#     Edge 26, Type (0, 0), BuildingBlock: ZUJKAS_clean_linker_0, # of connection points: 2
#     Edge 27, Type (0, 0), BuildingBlock: ZUJKAS_clean_linker_0, # of connection points: 2
#     Edge 28, Type (0, 0), BuildingBlock: ZUJKAS_clean_linker_0, # of connection points: 2
#     Edge 29, Type (0, 0), BuildingBlock: ZUJKAS_clean_linker_0, # of connection points: 2
#     Edge 30, Type (0, 0), BuildingBlock: ZUJKAS_clean_linker_0, # of connection points: 2
#     Edge 31, Type (0, 0), BuildingBlock: ZUJKAS_clean_linker_0, # of connection points: 2
#     Edge 32, Type (0, 0), BuildingBlock: ZUJKAS_clean_linker_0, # of connection points: 2
#     Edge 33, Type (0, 0), BuildingBlock: ZUJKAS_clean_linker_0, # of connection points: 2
#     Edge 34, Type (0, 0), BuildingBlock: ZUJKAS_clean_linker_0, # of connection points: 2
#     Edge 35, Type (0, 0), BuildingBlock: ZUJKAS_clean_linker_0, # of connection points: 2
# Relax obj value: 0.108
# Max RMSD: 0.278
# Mean RMSD: 0.278
data_MOF--net-smc--node1-KUMBUR_clean_sbu_0--edge1-ZUJKAS_clean_linker_0
_symmetry_space_group_name_H-M    P1
_symmetry_Int_Tables_number       1
_symmetry_cell_setting            triclinic
loop_
_symmetry_equiv_pos_as_xyz
'x, y, z'
_cell_length_a     46.483127
_cell_length_b     46.508096
_cell_length_c     52.946754
_cell_angle_alpha  89.9412
_cell_angle_beta   90.028526
_cell_angle_gamma 119.94233
loop_
_atom_site_label
_atom_site_type_symbol
_atom_site_fract_x
_atom_site_fract_y
_atom_site_fract_z
_atom_type_partial_charge
Tb0 Tb 0.05543 0.49562 0.99731 0.0
C1 C 0.02463 0.36821 0.05146 0.0
C2 C 0.05908 0.35189 0.02855 0.0
C3 C 0.04789 0.33843 0.07316 0.0
C4 C 0.04021 0.36797 0.02946 0.0
C5 C 0.02758 0.35284 0.07347 0.0
C6 C 0.06362 0.33793 0.0507 0.0
C7 C 0.98803 0.36472 0.09359 0.0
N8 N 1.00549 0.38267 0.05093 0.0
C9 C 0.98587 0.37962 0.07123 0.0
C10 C 1.00942 0.35178 0.09487 0.0
Tb11 Tb 1.00577 0.40905 0.01404 0.0
N12 N 0.0349 0.38152 0.00852 0.0
C13 C 0.04502 0.37669 0.98545 0.0
C14 C 0.07172 0.34925 1.00525 0.0
C15 C 0.06403 0.36107 0.98353 0.0
H16 H 0.96937 0.38966 0.07051 0.0
H17 H 0.07282 0.35828 0.96527 0.0
H18 H 0.07841 0.32585 0.05048 0.0
H19 H 0.97324 0.36327 0.10983 0.0
H20 H 0.03937 0.38564 0.96842 0.0
H21 H 0.02428 0.54041 0.08179 0.0
H22 H 0.08639 0.33712 1.00371 0.0
H23 H 0.05457 0.51394 0.93626 0.0
H24 H 0.03972 0.50523 0.05835 0.0
H25 H 0.03848 0.54797 0.91083 0.0
H26 H 0.05087 0.32685 0.08996 0.0
H27 H 1.0103 0.57824 0.05923 0.0
H28 H 1.00154 0.59952 0.01813 0.0
H29 H 1.01106 0.34029 0.11221 0.0
H30 H 1.00323 0.59988 0.97178 0.0
N31 N 0.03539 0.52256 0.02188 0.0
C32 C 0.03422 0.52153 0.04775 0.0
C33 C 1.01704 0.56262 0.04856 0.0
C34 C 1.01749 0.56319 0.02217 0.0
C35 C 0.02507 0.54143 0.06136 0.0
C36 C 0.02704 0.54277 0.00919 0.0
H37 H 1.01643 0.58047 0.9317 0.0
N38 N 0.03829 0.52381 0.97123 0.0
C39 C 0.03492 0.54645 0.93109 0.0
C40 C 0.02812 0.54308 0.98307 0.0
C41 C 0.04351 0.52676 0.9456 0.0
C42 C 1.02263 0.56483 0.94294 0.0
C43 C 1.01975 0.56387 0.96924 0.0
O44 O 0.09972 0.52352 0.97699 0.0
O45 O 0.05549 0.44993 1.00422 0.0
O46 O 0.03565 0.43106 0.04725 0.0
O47 O 0.07057 0.48687 0.03609 0.0
O48 O 0.08034 0.47694 0.97313 0.0
O49 O 0.09347 0.54089 0.01293 0.0
O50 O 0.95371 0.38265 0.01894 0.0
O51 O 1.00669 0.45527 1.00574 0.0
O52 O 1.02171 0.4686 0.9651 0.0
O53 O 1.00777 0.41378 0.97291 0.0
O54 O 0.97721 0.42739 0.03478 0.0
O55 O 0.97679 0.36578 0.99251 0.0
C56 C 0.07495 0.45164 0.98663 0.0
C57 C 0.12589 0.58234 0.98176 0.0
C58 C 0.15933 0.64336 0.98463 0.0
C59 C 0.14574 0.61158 0.9961 0.0
C60 C 0.1523 0.64554 0.95918 0.0
C61 C 0.12112 0.58586 0.95592 0.0
C62 C 0.1335 0.61705 0.94496 0.0
C63 C 0.0597 0.46128 0.05235 0.0
C64 C 0.11206 0.54825 0.99284 0.0
C65 C 1.00976 0.58381 0.98208 0.0
C66 C 1.00886 0.58364 0.00848 0.0
C67 C 0.98621 0.45397 0.02196 0.0
C68 C 0.92727 0.32484 0.01245 0.0
C69 C 0.89258 0.3082 0.00809 0.0
C70 C 0.87169 0.27567 0.01752 0.0
C71 C 0.88637 0.26081 0.03186 0.0
C72 C 0.94092 0.3087 0.0261 0.0
C73 C 0.92057 0.27707 0.03589 0.0
C74 C 1.00934 0.43717 0.95788 0.0
C75 C 0.94899 0.35922 1.00332 0.0
H76 H 0.15105 0.60962 0.01575 0.0
H77 H 0.16234 0.66952 0.95003 0.0
H78 H 0.10839 0.56451 0.94378 0.0
H79 H 0.12914 0.61912 0.92513 0.0
H80 H 0.88211 0.32046 0.99714 0.0
H81 H 0.87142 0.23654 0.04028 0.0
H82 H 0.96734 0.32054 0.02928 0.0
H83 H 0.93137 0.26508 0.04675 0.0
Tb84 Tb 0.55654 0.56889 0.99834 0.0
C85 C 0.67912 0.65742 0.06054 0.0
C86 C 0.69859 0.7106 0.04042 0.0
C87 C 0.70787 0.70792 0.08536 0.0
C88 C 0.68172 0.67566 0.03932 0.0
C89 C 0.69275 0.67323 0.08372 0.0
C90 C 0.71083 0.72661 0.0637 0.0
C91 C 0.67804 0.61959 0.10113 0.0
N92 N 0.66406 0.62395 0.05812 0.0
C93 C 0.6649 0.60506 0.07769 0.0
C94 C 0.69149 0.65374 0.1043 0.0
Tb95 Tb 0.64077 0.60218 0.01944 0.0
N96 N 0.66968 0.65916 0.01726 0.0
C97 C 0.67696 0.67647 0.99506 0.0
C98 C 0.70371 0.72834 0.01795 0.0
C99 C 0.69348 0.71119 0.99511 0.0
H100 H 0.65453 0.57865 0.07551 0.0
H101 H 0.69825 0.72468 0.9775 0.0
H102 H 0.72348 0.75342 0.06501 0.0
H103 H 0.67776 0.60441 0.11674 0.0
H104 H 0.66944 0.66371 0.97719 0.0
H105 H 0.50638 0.48874 0.08053 0.0
H106 H 0.71657 0.75522 0.01793 0.0
H107 H 0.54095 0.55361 0.93724 0.0
H108 H 0.54259 0.54059 0.05881 0.0
H109 H 0.50676 0.50556 0.90992 0.0
H110 H 0.71812 0.72056 0.10308 0.0
H111 H 0.46947 0.43829 0.05618 0.0
H112 H 0.44772 0.41152 0.01423 0.0
H113 H 0.70162 0.66492 0.12248 0.0
H114 H 0.44858 0.4158 0.96794 0.0
N115 N 0.52734 0.52091 0.02161 0.0
C116 C 0.52685 0.51941 0.04748 0.0
C117 C 0.4856 0.46123 0.04631 0.0
C118 C 0.48583 0.46275 0.01996 0.0
C119 C 0.50629 0.48966 0.0601 0.0
C120 C 0.50752 0.49317 0.00799 0.0
H121 H 0.47139 0.45024 0.92892 0.0
N122 N 0.52913 0.52517 0.97107 0.0
C123 C 0.50742 0.50215 0.93009 0.0
C124 C 0.50852 0.49537 0.98191 0.0
C125 C 0.52736 0.52919 0.94558 0.0
C126 C 0.48741 0.47105 0.94089 0.0
C127 C 0.48714 0.46751 0.96713 0.0
O128 O 0.53176 0.58834 0.97745 0.0
O129 O 0.60187 0.6135 0.00807 0.0
O130 O 0.61625 0.60755 0.05217 0.0
O131 O 0.56265 0.59132 0.03744 0.0
O132 O 0.57842 0.61373 0.97544 0.0
O133 O 0.50976 0.5609 0.01134 0.0
O134 O 0.66528 0.57441 0.02305 0.0
O135 O 0.59517 0.55839 0.00786 0.0
O136 O 0.58572 0.5636 0.9668 0.0
O137 O 0.63947 0.60344 0.97825 0.0
O138 O 0.61952 0.55351 0.03806 0.0
O139 O 0.68646 0.61859 1.00074 0.0
C140 C 0.60224 0.63251 0.99054 0.0
C141 C 0.47264 0.55606 0.97772 0.0
C142 C 0.41138 0.5263 0.97654 0.0
C143 C 0.4416 0.54344 0.99029 0.0
C144 C 0.41271 0.52176 0.95044 0.0
C145 C 0.47254 0.55253 0.9513 0.0
C146 C 0.44297 0.53497 0.93797 0.0
C147 C 0.5864 0.60347 0.05533 0.0
C148 C 0.50514 0.57456 0.9914 0.0
C149 C 0.46525 0.43739 0.97898 0.0
C150 C 0.46467 0.43499 1.00534 0.0
C151 C 0.5943 0.53757 0.02355 0.0
C152 C 0.72373 0.60484 0.02096 0.0
C153 C 0.73878 0.58522 0.01698 0.0
C154 C 0.76925 0.59353 0.02879 0.0
C155 C 0.78446 0.62179 0.0443 0.0
C156 C 0.73986 0.63318 0.03623 0.0
C157 C 0.76997 0.64152 0.04783 0.0
C158 C 0.618 0.58269 0.96159 0.0
C159 C 0.69083 0.59506 0.00987 0.0
H160 H 0.44094 0.54707 0.01045 0.0
H161 H 0.3901 0.50895 0.93942 0.0
H162 H 0.49537 0.56372 0.9406 0.0
H163 H 0.44353 0.53216 0.91771 0.0
H164 H 0.72654 0.56328 1.00521 0.0
H165 H 0.80789 0.62885 0.05352 0.0
H166 H 0.72919 0.64889 0.03926 0.0
H167 H 0.78212 0.66336 0.05966 0.0
Tb168 Tb 0.48206 0.99397 0.99491 0.0
C169 C 0.39458 0.03172 0.05613 0.0
C170 C 0.34122 0.99873 0.03609 0.0
C171 C 0.34403 1.01405 0.08026 0.0
C172 C 0.3762 0.01553 0.03515 0.0
C173 C 0.37884 0.03201 0.07878 0.0
C174 C 0.32523 0.99724 0.05897 0.0
C175 C 0.43284 0.07057 0.09576 0.0
N176 N 0.42808 0.04913 0.05373 0.0
C177 C 0.44726 0.06963 0.07281 0.0
C178 C 0.3985 0.05135 0.09888 0.0
Tb179 Tb 0.44973 0.04594 0.01554 0.0
N180 N 0.39269 0.01865 0.01328 0.0
C181 C 0.37537 1.00803 0.9911 0.0
C182 C 0.32344 0.98533 0.01377 0.0
C183 C 0.34063 0.99054 0.9911 0.0
H184 H 0.4738 0.08473 0.07061 0.0
H185 H 0.32716 0.98124 0.97356 0.0
H186 H 0.29837 0.98423 0.06014 0.0
H187 H 0.44821 0.08622 0.11098 0.0
H188 H 0.38805 1.01207 0.97329 0.0
H189 H 0.56514 0.02348 0.07512 0.0
H190 H 0.29654 0.97212 0.01368 0.0
H191 H 0.49482 0.99245 0.93321 0.0
H192 H 0.5124 1.00765 0.0547 0.0
H193 H 0.54177 1.00521 0.90493 0.0
H194 H 0.33141 1.01374 0.09755 0.0
H195 H 0.61485 0.03763 0.04951 0.0
H196 H 0.6402 0.043 1.00691 0.0
H197 H 0.38738 0.05235 0.11659 0.0
H198 H 0.63398 0.0385 0.96077 0.0
N199 N 0.53087 1.01263 0.01701 0.0
C200 C 0.53326 1.01343 0.04283 0.0
C201 C 0.59151 0.03071 0.04021 0.0
C202 C 0.58903 0.02947 0.0139 0.0
C203 C 0.5635 0.02263 0.05471 0.0
C204 C 0.5581 0.02051 1.00268 0.0
H205 H 0.59786 0.0256 0.92264 0.0
N206 N 0.52455 1.00927 0.9665 0.0
C207 C 0.54595 1.00961 0.92501 0.0
C208 C 0.55483 0.01881 0.97664 0.0
C209 C 0.51951 1.00289 0.94111 0.0
C210 C 0.5775 0.02102 0.93508 0.0
C211 C 0.58212 0.02501 0.96121 0.0
O212 O 0.46222 0.9495 0.97441 0.0
O213 O 0.43793 0.99537 1.00544 0.0
O214 O 0.44531 0.01703 0.04892 0.0
O215 O 0.46081 0.97894 0.03439 0.0
O216 O 0.43632 0.97041 0.97315 0.0
O217 O 0.4898 0.95527 0.00839 0.0
O218 O 0.47735 0.09815 0.01952 0.0
O219 O 0.49311 0.04332 1.00394 0.0
O220 O 0.48796 0.02868 0.96348 0.0
O221 O 0.44757 0.0419 0.97436 0.0
O222 O 0.49873 0.07327 0.03372 0.0
O223 O 0.43539 0.07557 0.99489 0.0
C224 C 0.41825 0.97607 0.98859 0.0
C225 C 0.49437 0.92245 0.97521 0.0
C226 C 0.52433 0.89115 0.97481 0.0
C227 C 0.50718 0.90448 0.9882 0.0
C228 C 0.52871 0.89629 0.94863 0.0
C229 C 0.49772 0.92521 0.94874 0.0
C230 C 0.5153 0.91292 0.93574 0.0
C231 C 0.44976 0.99141 0.05242 0.0
C232 C 0.47598 0.93677 0.98858 0.0
C233 C 0.61281 0.03371 0.97232 0.0
C234 C 0.61632 0.03619 0.9986 0.0
C235 C 0.51422 0.06328 0.0194 0.0
C236 C 0.44682 0.12595 0.01492 0.0
C237 C 0.46704 0.16081 0.01239 0.0
C238 C 0.45688 0.18242 0.02271 0.0
C239 C 0.42612 0.16847 0.03526 0.0
C240 C 0.41623 0.11301 0.02742 0.0
C241 C 0.40603 0.13414 0.0375 0.0
C242 C 0.4682 0.04089 0.95772 0.0
C243 C 0.45791 0.10327 1.00497 0.0
H244 H 0.50371 0.90076 0.00841 0.0
H245 H 0.54156 0.88628 0.9379 0.0
H246 H 0.48641 0.93654 0.93779 0.0
H247 H 0.518 0.91576 0.91544 0.0
H248 H 0.49075 0.17102 1.00282 0.0
H249 H 0.41729 0.18417 0.04309 0.0
H250 H 0.4001 0.08653 0.02934 0.0
H251 H 0.38236 0.12384 0.0471 0.0
Tb252 Tb 0.7191 0.83233 0.33352 0.0
C253 C 0.69375 0.70772 0.39151 0.0
C254 C 0.73068 0.69298 0.37049 0.0
C255 C 0.71758 0.67967 0.41493 0.0
C256 C 0.71072 0.70792 0.37017 0.0
C257 C 0.69635 0.69303 0.41404 0.0
C258 C 0.73472 0.67963 0.39316 0.0
C259 C 0.65485 0.70347 0.43232 0.0
N260 N 0.67376 0.72115 0.38986 0.0
C261 C 0.6531 0.71774 0.40951 0.0
C262 C 0.67697 0.69154 0.43474 0.0
Tb263 Tb 0.67411 0.74591 0.35214 0.0
N264 N 0.70591 0.72089 0.34869 0.0
C265 C 0.71774 0.71652 0.32622 0.0
C266 C 0.74496 0.69084 0.34785 0.0
C267 C 0.73788 0.70206 0.32554 0.0
H268 H 0.63586 0.72681 0.40791 0.0
H269 H 0.74796 0.69961 0.30776 0.0
H270 H 0.75027 0.66839 0.39386 0.0
H271 H 0.63911 0.70165 0.44801 0.0
H272 H 0.7125 0.72481 0.3087 0.0
H273 H 0.68522 0.87459 0.41823 0.0
H274 H 0.76048 0.67957 0.34726 0.0
H275 H 0.71263 0.8475 0.2723 0.0
H276 H 0.70661 0.84447 0.39482 0.0
H277 H 0.68729 0.8733 0.24704 0.0
H278 H 0.72024 0.66859 0.43213 0.0
H279 H 0.66174 0.90467 0.3957 0.0
H280 H 0.64747 0.92128 0.35476 0.0
H281 H 0.67826 0.68049 0.45242 0.0
H282 H 0.64719 0.92013 0.30839 0.0
N283 N 0.69623 0.85674 0.35825 0.0
C284 C 0.69699 0.85734 0.38414 0.0
C285 C 0.67142 0.89148 0.38504 0.0
C286 C 0.67068 0.89105 0.35868 0.0
C287 C 0.68463 0.87454 0.3978 0.0
C288 C 0.68353 0.87338 0.34564 0.0
H289 H 0.66057 0.9012 0.26823 0.0
N290 N 0.69554 0.8552 0.30772 0.0
C291 C 0.6852 0.87263 0.26741 0.0
C292 C 0.68281 0.87224 0.31959 0.0
C293 C 0.69857 0.85698 0.28186 0.0
C294 C 0.67041 0.88856 0.27944 0.0
C295 C 0.66979 0.88922 0.3058 0.0
O296 O 0.75981 0.8661 0.31142 0.0
O297 O 0.72245 0.78862 0.34133 0.0
O298 O 0.70284 0.76995 0.38528 0.0
O299 O 0.73617 0.82527 0.3722 0.0
O300 O 0.74771 0.81657 0.3107 0.0
O301 O 0.75705 0.87629 0.35052 0.0
O302 O 0.62182 0.71868 0.35523 0.0
O303 O 0.67187 0.79006 0.34219 0.0
O304 O 0.6888 0.80178 0.30071 0.0
O305 O 0.677 0.74832 0.31114 0.0
O306 O 0.64341 0.76263 0.3718 0.0
O307 O 0.64741 0.70077 0.33231 0.0
C308 C 0.74308 0.79157 0.32426 0.0
C309 C 0.78315 0.92332 0.32292 0.0
C310 C 0.81716 0.98375 0.32967 0.0
C311 C 0.80864 0.95078 0.33627 0.0
C312 C 0.79981 0.98875 0.31006 0.0
C313 C 0.76786 0.92989 0.30258 0.0
C314 C 0.77557 0.96206 0.29655 0.0
C315 C 0.72641 0.80067 0.38933 0.0
C316 C 0.77306 0.8881 0.3294 0.0
C317 C 0.65719 0.90691 0.31867 0.0
C318 C 0.65748 0.90769 0.34506 0.0
C319 C 0.65086 0.78816 0.35808 0.0
C320 C 0.59676 0.66066 0.35148 0.0
C321 C 0.56203 0.645 0.34782 0.0
C322 C 0.54072 0.61284 0.35754 0.0
C323 C 0.5549 0.59709 0.37133 0.0
C324 C 0.61003 0.64409 0.36509 0.0
C325 C 0.58917 0.61259 0.37501 0.0
C326 C 0.67743 0.77 0.29488 0.0
C327 C 0.61877 0.69437 0.34137 0.0
H328 H 0.82173 0.94661 0.35148 0.0
H329 H 0.80583 1.01361 0.30461 0.0
H330 H 0.75035 0.91035 0.2908 0.0
H331 H 0.76309 0.96635 0.28097 0.0
H332 H 0.55177 0.65766 0.33712 0.0
H333 H 0.53943 0.57279 0.37958 0.0
H334 H 0.6365 0.65545 0.36806 0.0
H335 H 0.59963 0.6001 0.38565 0.0
Tb336 Tb 0.22644 0.89527 0.33089 0.0
C337 C 0.35688 1.00099 0.38106 0.0
C338 C 0.36999 0.05102 0.35811 0.0
C339 C 0.38832 0.05466 0.40158 0.0
C340 C 0.35469 0.01613 0.35938 0.0
C341 C 0.37415 0.02002 0.40233 0.0
C342 C 0.38622 0.07015 0.3795 0.0
C343 C 0.36365 0.96934 0.42287 0.0
N344 N 0.34237 0.96742 0.38111 0.0
C345 C 0.34675 0.95155 0.40131 0.0
C346 C 0.37704 1.00368 0.42352 0.0
Tb347 Tb 0.31425 0.94027 0.34507 0.0
N348 N 0.33897 0.99673 0.33913 0.0
C349 C 0.34043 1.01116 0.31628 0.0
C350 C 0.36933 0.06564 0.33521 0.0
C351 C 0.35493 0.04562 0.3141 0.0
H352 H 0.33681 0.92509 0.40118 0.0
H353 H 0.35498 0.05669 0.29609 0.0
H354 H 0.39787 0.09695 0.37896 0.0
H355 H 0.36639 0.95654 0.43896 0.0
H356 H 0.32964 0.99638 0.29964 0.0
H357 H 0.18913 0.82693 0.41929 0.0
H358 H 0.38067 0.09233 0.33345 0.0
H359 H 0.20928 0.8686 0.27062 0.0
H360 H 0.22096 0.87573 0.3933 0.0
H361 H 0.18176 0.81534 0.24823 0.0
H362 H 0.40144 0.06972 0.4178 0.0
H363 H 0.15432 0.77224 0.39955 0.0
H364 H 0.13635 0.73764 0.36029 0.0
H365 H 0.3901 0.01739 0.44025 0.0
H366 H 0.1369 0.7342 0.31403 0.0
N367 N 0.20422 0.85039 0.35795 0.0
C368 C 0.20583 0.8527 0.38378 0.0
C369 C 0.16844 0.79385 0.38771 0.0
C370 C 0.16807 0.7911 0.36143 0.0
C371 C 0.18791 0.82468 0.39892 0.0
C372 C 0.18616 0.82019 0.34687 0.0
H373 H 0.15454 0.76281 0.27225 0.0
N374 N 0.20283 0.84692 0.3074 0.0
C375 C 0.1833 0.81573 0.26863 0.0
C376 C 0.18616 0.8183 0.32082 0.0
C377 C 0.19968 0.84594 0.2815 0.0
C378 C 0.16783 0.78618 0.28225 0.0
C379 C 0.16831 0.78721 0.30863 0.0
O380 O 0.1907 0.89881 0.30853 0.0
O381 O 0.26983 0.9435 0.3356 0.0
O382 O 0.29272 0.94915 0.37811 0.0
O383 O 0.23561 0.92174 0.36883 0.0
O384 O 0.23887 0.9372 0.30604 0.0
O385 O 0.18341 0.89083 0.34844 0.0
O386 O 0.34229 0.91601 0.34759 0.0
O387 O 0.27006 0.89229 0.33861 0.0
O388 O 0.25555 0.89209 0.29834 0.0
O389 O 0.30765 0.93822 0.3043 0.0
O390 O 0.30039 0.8952 0.36732 0.0
O391 O 0.35714 0.95714 0.32249 0.0
C392 C 0.26464 0.95909 0.31806 0.0
C393 C 0.1344 0.86741 0.32282 0.0
C394 C 0.0745 0.84687 0.3277 0.0
C395 C 0.10805 0.87155 0.33222 0.0
C396 C 0.06773 0.81829 0.31413 0.0
C397 C 0.12616 0.839 0.30843 0.0
C398 C 0.09338 0.81453 0.30447 0.0
C399 C 0.2618 0.94012 0.38403 0.0
C400 C 0.17015 0.89273 0.32723 0.0
C401 C 0.15072 0.75822 0.32307 0.0
C402 C 0.15032 0.7602 0.34939 0.0
C403 C 0.27391 0.87519 0.35531 0.0
C404 C 0.39966 0.94932 0.3407 0.0
C405 C 0.41437 0.9291 0.33954 0.0
C406 C 0.44677 0.94059 0.34894 0.0
C407 C 0.46423 0.97274 0.35921 0.0
C408 C 0.41778 0.9813 0.35098 0.0
C409 C 0.44985 0.99288 0.36013 0.0
C410 C 0.28555 0.91433 0.28988 0.0
C411 C 0.36503 0.93621 0.33213 0.0
H412 H 0.11352 0.89367 0.34276 0.0
H413 H 0.04234 0.79915 0.3104 0.0
H414 H 0.14482 0.83563 0.29965 0.0
H415 H 0.08784 0.79275 0.29347 0.0
H416 H 0.40035 0.90425 0.33184 0.0
H417 H 0.48925 0.98252 0.36632 0.0
H418 H 0.40716 0.99733 0.35201 0.0
H419 H 0.46364 0.01759 0.36802 0.0
Tb420 Tb 0.15336 0.33035 0.33349 0.0
C421 C 0.06268 0.36088 0.39435 0.0
C422 C 1.01085 0.32813 0.37227 0.0
C423 C 1.01068 0.33688 0.41752 0.0
C424 C 0.04583 0.34666 0.3724 0.0
C425 C 0.04539 0.35715 0.41707 0.0
C426 C 0.9934 0.32237 0.39511 0.0
C427 C 0.09748 0.39699 0.43612 0.0
N428 N 0.09608 0.38043 0.39295 0.0
C429 C 0.11344 0.39995 0.41306 0.0
C430 C 0.0634 0.37497 0.43829 0.0
Tb431 Tb 0.12054 0.38133 0.35503 0.0
N432 N 0.06371 0.35318 0.35082 0.0
C433 C 0.04776 0.34481 0.32799 0.0
C434 C 0.99454 0.31713 0.34909 0.0
C435 C 1.01307 0.32615 0.32681 0.0
H436 H 0.13986 0.41676 0.4116 0.0
H437 H 1.00069 0.31861 0.30871 0.0
H438 H 0.96655 0.30777 0.39549 0.0
H439 H 0.1115 0.41161 0.45221 0.0
H440 H 0.06157 0.35131 0.31055 0.0
H441 H 0.21765 0.33394 0.42087 0.0
H442 H 0.96769 0.30273 0.34813 0.0
H443 H 0.18541 0.35625 0.27413 0.0
H444 H 0.16997 0.3182 0.39468 0.0
H445 H 0.2391 0.38698 0.25461 0.0
H446 H 0.99691 0.33325 0.43487 0.0
H447 H 0.27399 0.36532 0.40305 0.0
H448 H 0.31011 0.39101 0.36567 0.0
H449 H 0.05107 0.37278 0.45614 0.0
H450 H 0.31585 0.40503 0.32068 0.0
N451 N 0.19703 0.34463 0.36151 0.0
C452 C 0.19352 0.33419 0.3862 0.0
C453 C 0.25272 0.35959 0.39126 0.0
C454 C 0.25655 0.36857 0.36585 0.0
C455 C 0.22104 0.34216 0.40141 0.0
C456 C 0.228 0.36077 0.35125 0.0
H457 H 0.28981 0.40439 0.27953 0.0
N458 N 0.20348 0.36153 0.31236 0.0
C459 C 0.2374 0.38306 0.27484 0.0
C460 C 0.23133 0.36962 0.32603 0.0
C461 C 0.20644 0.3667 0.28662 0.0
C462 C 0.2659 0.39256 0.28891 0.0
C463 C 0.26318 0.38547 0.31468 0.0
O464 O 0.15212 0.29686 0.30619 0.0
O465 O 0.10894 0.33125 0.34377 0.0
O466 O 0.11888 0.35318 0.38819 0.0
O467 O 0.12641 0.3111 0.37091 0.0
O468 O 0.10628 0.3027 0.31367 0.0
O469 O 0.1543 0.2872 0.34539 0.0
O470 O 0.14738 0.43299 0.36196 0.0
O471 O 0.16459 0.38028 0.34193 0.0
O472 O 0.14495 0.35234 0.29893 0.0
O473 O 0.12127 0.38293 0.31394 0.0
O474 O 0.16865 0.40672 0.374 0.0
O475 O 0.10664 0.41244 0.33611 0.0
C476 C 0.08867 0.31057 0.32778 0.0
C477 C 0.18273 0.27001 0.31689 0.0
C478 C 0.20545 0.23221 0.31779 0.0
C479 C 0.18024 0.23953 0.32448 0.0
C480 C 0.23328 0.25579 0.30434 0.0
C481 C 0.21056 0.29233 0.30268 0.0
C482 C 0.23578 0.28559 0.29689 0.0
C483 C 0.11896 0.325 0.39028 0.0
C484 C 0.156 0.27808 0.32248 0.0
C485 C 0.29136 0.39303 0.32915 0.0
C486 C 0.28809 0.3849 0.35472 0.0
C487 C 0.18495 0.39901 0.3585 0.0
C488 C 0.11779 0.46176 0.35745 0.0
C489 C 0.13655 0.4963 0.35288 0.0
C490 C 0.12576 0.51787 0.36216 0.0
C491 C 0.09631 0.50419 0.37649 0.0
C492 C 0.08841 0.44897 0.37154 0.0
C493 C 0.07789 0.47011 0.38109 0.0
C494 C 0.13224 0.3721 0.29538 0.0
C495 C 0.1289 0.43931 0.34727 0.0
H496 H 0.1586 0.22143 0.33481 0.0
H497 H 0.25289 0.25078 0.29911 0.0
H498 H 0.21273 0.31481 0.2954 0.0
H499 H 0.25706 0.30331 0.28606 0.0
H500 H 0.15907 0.50618 0.34175 0.0
H501 H 0.08757 0.5199 0.38441 0.0
H502 H 0.07349 0.42262 0.37508 0.0
H503 H 0.05528 0.46002 0.39208 0.0
Tb504 Tb 0.38789 0.16138 0.66374 0.0
C505 C 0.35702 0.03725 0.72355 0.0
C506 C 0.39138 0.01942 0.70226 0.0
C507 C 0.37855 1.00696 0.7468 0.0
C508 C 0.37292 0.03598 0.70205 0.0
C509 C 0.35881 0.022 0.74604 0.0
C510 C 0.39496 1.00581 0.72495 0.0
C511 C 0.31855 0.03431 0.76428 0.0
N512 N 0.33791 0.05164 0.72187 0.0
C513 C 0.31743 0.0489 0.74145 0.0
C514 C 0.33974 0.02128 0.76674 0.0
Tb515 Tb 0.33863 0.07619 0.68405 0.0
N516 N 0.36801 0.04863 0.68046 0.0
C517 C 0.37829 0.04258 0.65787 0.0
C518 C 0.40437 0.01575 0.67947 0.0
C519 C 0.39723 0.02682 0.6571 0.0
H520 H 0.30093 0.05885 0.73975 0.0
H521 H 0.40623 0.02316 0.63923 0.0
H522 H 0.40932 0.99329 0.72556 0.0
H523 H 0.30303 0.03308 0.77995 0.0
H524 H 0.37292 0.05069 0.64031 0.0
H525 H 0.35557 0.20895 0.74639 0.0
H526 H 0.41879 1.00328 0.6788 0.0
H527 H 0.38648 0.17757 0.60238 0.0
H528 H 0.37658 0.1774 0.72451 0.0
H529 H 0.36597 0.20676 0.57555 0.0
H530 H 0.38053 0.99535 0.76396 0.0
H531 H 0.33363 0.23932 0.72232 0.0
H532 H 0.32121 0.25565 0.68052 0.0
H533 H 0.34044 1.00984 0.78439 0.0
H534 H 0.32288 0.25407 0.63419 0.0
N535 N 0.36734 0.18897 0.6873 0.0
C536 C 0.36759 0.19031 0.71318 0.0
C537 C 0.3432 0.22554 0.71233 0.0
C538 C 0.34335 0.22466 0.68598 0.0
C539 C 0.35552 0.20841 0.72596 0.0
C540 C 0.35596 0.20618 0.67384 0.0
H541 H 0.33924 0.23581 0.59498 0.0
N542 N 0.36864 0.1869 0.63673 0.0
C543 C 0.36256 0.20599 0.59581 0.0
C544 C 0.35643 0.20491 0.64777 0.0
C545 C 0.37367 0.18901 0.6111 0.0
C546 C 0.34767 0.22247 0.60685 0.0
C547 C 0.34502 0.22265 0.63313 0.0
O548 O 0.43147 0.18874 0.64249 0.0
O549 O 0.38833 0.11648 0.67352 0.0
O550 O 0.367 0.10121 0.71737 0.0
O551 O 0.4043 0.15493 0.70269 0.0
O552 O 0.41315 0.1413 0.64159 0.0
O553 O 0.42577 0.20789 0.67775 0.0
O554 O 0.28642 0.0509 0.68829 0.0
O555 O 0.33912 0.12137 0.67284 0.0
O556 O 0.35546 0.13189 0.63152 0.0
O557 O 0.34065 0.0778 0.64287 0.0
O558 O 0.3102 0.09593 0.70303 0.0
O559 O 0.30954 0.03103 0.6647 0.0
C560 C 0.408 0.11721 0.65648 0.0
C561 C 0.45736 0.24778 0.64543 0.0
C562 C 0.49066 0.30901 0.64636 0.0
C563 C 0.47812 0.2778 0.65866 0.0
C564 C 0.48185 0.30968 0.62109 0.0
C565 C 0.45107 0.24988 0.61968 0.0
C566 C 0.4625 0.28041 0.60788 0.0
C567 C 0.39232 0.1314 0.72073 0.0
C568 C 0.444 0.21431 0.65754 0.0
C569 C 0.332 0.24057 0.64513 0.0
C570 C 0.33116 0.24156 0.6715 0.0
C571 C 0.31871 0.12116 0.68866 0.0
C572 C 0.25898 0.99258 0.68497 0.0
C573 C 0.22415 0.97804 0.68226 0.0
C574 C 0.20233 0.94671 0.69312 0.0
C575 C 0.21611 0.93022 0.7064 0.0
C576 C 0.27178 0.97535 0.69827 0.0
C577 C 0.25045 0.94441 0.70888 0.0
C578 C 0.34234 0.09972 0.62621 0.0
C579 C 0.28166 0.02596 0.67443 0.0
H580 H 0.48465 0.2769 0.67817 0.0
H581 H 0.4911 0.33305 0.61117 0.0
H582 H 0.43789 0.22792 0.60825 0.0
H583 H 0.45694 0.28137 0.58814 0.0
H584 H 0.21411 0.99133 0.67213 0.0
H585 H 0.20028 0.906 0.71466 0.0
H586 H 0.29828 0.98577 0.70047 0.0
H587 H 0.26061 0.93131 0.71908 0.0
Tb588 Tb 0.88887 0.22937 0.66586 0.0
C589 C 1.01448 0.32424 0.7233 0.0
C590 C 0.02922 0.37644 0.70325 0.0
C591 C 0.0431 0.37538 0.74739 0.0
C592 C 1.0141 0.34157 0.70242 0.0
C593 C 0.02975 0.34087 0.74588 0.0
C594 C 0.04283 0.39317 0.72607 0.0
C595 C 1.02063 0.28864 0.76259 0.0
N596 N 1.00142 0.29102 0.7209 0.0
C597 C 1.00578 0.27332 0.73973 0.0
C598 C 0.03212 0.32246 0.76586 0.0
Tb599 Tb 0.97529 0.26744 0.68343 0.0
N600 N 1.00122 0.32441 0.68074 0.0
C601 C 1.00579 0.34121 0.65852 0.0
C602 C 0.03142 0.39346 0.6809 0.0
C603 C 1.02023 0.37579 0.65834 0.0
H604 H 0.99681 0.24713 0.7375 0.0
H605 H 1.02271 0.38877 0.64078 0.0
H606 H 0.0542 0.41992 0.72719 0.0
H607 H 0.02312 0.27433 0.77769 0.0
H608 H 0.99739 0.32816 0.64085 0.0
H609 H 0.84439 0.14535 0.74624 0.0
H610 H 0.04277 0.42024 0.6807 0.0
H611 H 0.8719 0.2157 0.60433 0.0
H612 H 0.87578 0.19911 0.72569 0.0
H613 H 0.84088 0.16759 0.57628 0.0
H614 H 0.0546 0.38864 0.76466 0.0
H615 H 0.81279 0.09454 0.7208 0.0
H616 H 0.79492 0.06818 0.67827 0.0
H617 H 0.04366 0.33428 0.78356 0.0
H618 H 0.79483 0.07405 0.63215 0.0
N619 N 0.86247 0.18025 0.68807 0.0
C620 C 0.86209 0.1778 0.71388 0.0
C621 C 0.82641 0.11838 0.71145 0.0
C622 C 0.82643 0.12085 0.68515 0.0
C623 C 0.84421 0.147 0.72585 0.0
C624 C 0.84468 0.1525 0.67386 0.0
H625 H 0.81189 0.11084 0.59403 0.0
N626 N 0.86278 0.18648 0.63759 0.0
C627 C 0.84219 0.16381 0.59632 0.0
C628 C 0.84504 0.15572 0.64784 0.0
C629 C 0.85995 0.19096 0.61229 0.0
C630 C 0.8258 0.13187 0.60642 0.0
C631 C 0.82657 0.12751 0.6325 0.0
O632 O 0.86133 0.24763 0.64732 0.0
O633 O 0.93336 0.27528 0.6751 0.0
O634 O 0.95146 0.26964 0.71785 0.0
O635 O 0.89618 0.25032 0.70556 0.0
O636 O 0.90708 0.27451 0.64374 0.0
O637 O 0.8417 0.21796 0.68064 0.0
O638 O 1.00344 0.24323 0.68644 0.0
O639 O 0.93018 0.22218 0.67345 0.0
O640 O 0.91749 0.22542 0.63334 0.0
O641 O 0.97047 0.26865 0.64242 0.0
O642 O 0.95837 0.21915 0.70167 0.0
O643 O 1.01801 0.28372 0.66082 0.0
C644 C 0.93126 0.29384 0.6584 0.0
C645 C 0.80237 0.2136 0.64895 0.0
C646 C 0.74099 0.18482 0.64901 0.0
C647 C 0.77178 0.20154 0.66217 0.0
C648 C 0.74143 0.18036 0.62279 0.0
C649 C 0.80128 0.20982 0.62253 0.0
C650 C 0.77123 0.19287 0.60975 0.0
C651 C 0.92089 0.2629 0.72268 0.0
C652 C 0.83543 0.23221 0.6619 0.0
C653 C 0.80889 0.09598 0.64365 0.0
C654 C 0.80884 0.09265 0.66991 0.0
C655 C 0.93206 0.20214 0.68848 0.0
C656 C 0.06098 0.27671 0.67886 0.0
C657 C 0.07756 0.25842 0.67531 0.0
C658 C 0.11121 0.27188 0.68253 0.0
C659 C 0.12754 0.30352 0.69376 0.0
C660 C 0.0781 0.30816 0.69012 0.0
C661 C 0.11108 0.32136 0.69756 0.0
C662 C 0.9486 0.24692 0.62646 0.0
C663 C 0.02604 0.26304 0.6707 0.0
H664 H 0.77194 0.20529 0.68237 0.0
H665 H 0.71852 0.1681 0.61209 0.0
H666 H 0.8237 0.22061 0.61139 0.0
H667 H 0.77105 0.19004 0.58945 0.0
H668 H 0.06451 0.23414 0.66656 0.0
H669 H 0.15309 0.31441 0.69993 0.0
H670 H 0.06603 0.32265 0.69306 0.0
H671 H 0.12402 0.34562 0.70628 0.0
Tb672 Tb 0.82285 0.66824 0.66674 0.0
C673 C 0.72145 0.69174 0.72387 0.0
C674 C 0.67037 0.65604 0.70176 0.0
C675 C 0.66897 0.66733 0.74644 0.0
C676 C 0.70527 0.67574 0.7021 0.0
C677 C 0.70359 0.68824 0.74625 0.0
C678 C 0.65236 0.65128 0.72419 0.0
C679 C 0.75516 0.72808 0.7659 0.0
N680 N 0.75493 0.71145 0.72288 0.0
C681 C 0.77176 0.73081 0.74321 0.0
C682 C 0.72099 0.70633 0.76756 0.0
Tb683 Tb 0.78035 0.71241 0.68532 0.0
N684 N 0.72364 0.68112 0.68089 0.0
C685 C 0.70811 0.66998 0.65811 0.0
C686 C 0.65459 0.64267 0.67876 0.0
C687 C 0.67353 0.65023 0.65676 0.0
H688 H 0.79817 0.74766 0.74226 0.0
H689 H 0.66153 0.64079 0.63873 0.0
H690 H 0.62556 0.63593 0.72439 0.0
H691 H 0.76875 0.74273 0.78212 0.0
H692 H 0.72214 0.67552 0.64083 0.0
H693 H 0.90154 0.7033 0.74998 0.0
H694 H 0.62782 0.6274 0.67765 0.0
H695 H 0.84229 0.67148 0.6055 0.0
H696 H 0.84908 0.68014 0.72743 0.0
H697 H 0.89257 0.69697 0.57912 0.0
H698 H 0.65477 0.66402 0.7635 0.0
H699 H 0.95452 0.72914 0.72652 0.0
H700 H 0.98415 0.74475 0.68503 0.0
H701 H 0.70821 0.70425 0.78516 0.0
H702 H 0.98174 0.74445 0.63867 0.0
N703 N 0.87082 0.6921 0.69056 0.0
C704 C 0.8714 0.69089 0.71642 0.0
C705 C 0.93128 0.71877 0.71627 0.0
C706 C 0.93076 0.71978 0.68992 0.0
C707 C 0.90145 0.7042 0.72955 0.0
C708 C 0.89981 0.706 0.67744 0.0
H709 H 0.94788 0.7277 0.5991 0.0
N710 N 0.86825 0.69181 0.6401 0.0
C711 C 0.89464 0.70041 0.59939 0.0
C712 C 0.89849 0.70646 0.6514 0.0
C713 C 0.86615 0.68663 0.61442 0.0
C714 C 0.92578 0.7176 0.61074 0.0
C715 C 0.92805 0.71991 0.63705 0.0
O716 O 0.81751 0.62776 0.64501 0.0
O717 O 0.77551 0.66455 0.67418 0.0
O718 O 0.7739 0.68176 0.71761 0.0
O719 O 0.79967 0.65144 0.70562 0.0
O720 O 0.77852 0.63928 0.64383 0.0
O721 O 0.82813 0.6303 0.68454 0.0
O722 O 0.8035 0.76433 0.69053 0.0
O723 O 0.82725 0.71523 0.67605 0.0
O724 O 0.82309 0.69908 0.63416 0.0
O725 O 0.78094 0.71032 0.64431 0.0
O726 O 0.82722 0.74312 0.70559 0.0
O727 O 0.76378 0.73968 0.66402 0.0
C728 C 0.75796 0.64391 0.65712 0.0
C729 C 0.84997 0.60361 0.65865 0.0
C730 C 0.8703 0.56394 0.66272 0.0
C731 C 0.84609 0.57323 0.66811 0.0
C732 C 0.89825 0.58528 0.64835 0.0
C733 C 0.87801 0.62363 0.64381 0.0
C734 C 0.902 0.61484 0.63897 0.0
C735 C 0.78302 0.65968 0.72217 0.0
C736 C 0.82485 0.61417 0.66365 0.0
C737 C 0.95884 0.73395 0.64938 0.0
C738 C 0.9602 0.73395 0.67576 0.0
C739 C 0.84591 0.7362 0.69218 0.0
C740 C 0.77046 0.78893 0.68307 0.0
C741 C 0.78859 0.82367 0.67922 0.0
C742 C 0.7753 0.84393 0.68661 0.0
C743 C 0.7439 0.82875 0.69828 0.0
C744 C 0.73925 0.77467 0.69474 0.0
C745 C 0.72616 0.79451 0.70234 0.0
C746 C 0.80271 0.71049 0.6283 0.0
C747 C 0.78419 0.76785 0.67469 0.0
H748 H 0.82441 0.5569 0.67921 0.0
H749 H 0.91704 0.57872 0.64402 0.0
H750 H 0.88148 0.64598 0.63548 0.0
H751 H 0.92345 0.63088 0.62756 0.0
H752 H 0.81265 0.83477 0.67009 0.0
H753 H 0.73313 0.84346 0.70461 0.0
H754 H 0.72491 0.74817 0.69789 0.0
H755 H 0.70209 0.78328 0.7114 0.0
H756 H 0.35871 0.46325 0.97676 0.0
H757 H 0.30029 0.44631 0.98399 0.0
H758 H 0.32905 0.54587 0.00722 0.0
H759 H 0.38772 0.56292 0.99992 0.0
H760 H 0.26106 0.44923 0.02508 0.0
H761 H 0.2698 0.52918 0.944 0.0
H762 H 0.30148 0.51861 0.95069 0.0
H763 H 0.29911 0.54983 0.96904 0.0
C764 C 0.35265 0.48127 0.98421 0.0
C765 C 0.37789 0.5144 0.98791 0.0
C766 C 0.31919 0.47159 0.98822 0.0
C767 C 0.31005 0.49488 0.99572 0.0
C768 C 0.33536 0.52749 1.00112 0.0
H769 H 0.11262 0.46367 0.02919 0.0
H770 H 0.16756 0.46963 0.03265 0.0
C771 C 0.36896 0.53715 0.99728 0.0
C772 C 0.27419 0.48563 0.99565 0.0
H773 H 0.21837 0.50108 0.96508 0.0
C774 C 0.25174 0.46066 0.01204 0.0
C775 C 0.26173 0.49996 0.97828 0.0
C776 C 0.28412 0.52568 0.95932 0.0
C777 C 0.21747 0.45012 0.01179 0.0
C778 C 0.20517 0.46496 0.99474 0.0
C779 C 0.22761 0.48963 0.97818 0.0
C780 C 0.16935 0.45591 0.9939 0.0
C781 C 0.19461 0.42269 0.02944 0.0
C782 C 0.15137 0.44577 0.97113 0.0
C783 C 0.11936 0.44167 0.96941 0.0
C784 C 0.10435 0.44729 0.99044 0.0
C785 C 0.12208 0.45664 0.01329 0.0
C786 C 0.15403 0.46069 0.01509 0.0
H787 H 0.20587 0.40782 0.03604 0.0
H788 H 0.18963 0.43372 0.04627 0.0
H789 H 0.1705 0.40584 0.02019 0.0
H790 H 0.16261 0.44222 0.95438 0.0
H791 H 0.10687 0.43554 0.95128 0.0
H792 H 0.48782 0.83124 0.99851 0.0
H793 H 0.50546 0.7904 0.00743 0.0
H794 H 0.60522 0.8615 0.98467 0.0
H795 H 0.58763 0.9021 0.97572 0.0
H796 H 0.53147 0.76731 0.96934 0.0
H797 H 0.62048 0.82058 0.04885 0.0
H798 H 0.59054 0.83338 0.04162 0.0
H799 H 0.62798 0.84902 0.02337 0.0
C800 C 0.51376 0.83852 0.99638 0.0
C801 C 0.53642 0.87004 0.98676 0.0
C802 C 0.52379 0.81506 1.00122 0.0
C803 C 0.55679 0.82281 0.99688 0.0
C804 C 0.57981 0.85495 0.98861 0.0
H805 H 0.62525 0.68419 0.95761 0.0
H806 H 0.61721 0.7325 0.95995 0.0
C807 C 0.56973 0.87822 0.98354 0.0
C808 C 0.56638 0.7965 0.9983 0.0
H809 H 0.61996 0.77578 0.02653 0.0
C810 C 0.55071 0.76914 0.98195 0.0
C811 C 0.59148 0.79871 0.01475 0.0
C812 C 0.60845 0.82683 0.03332 0.0
C813 C 0.55977 0.74441 0.98127 0.0
C814 C 0.58544 0.74703 0.99723 0.0
C815 C 0.60067 0.77398 0.014 0.0
C816 C 0.59554 0.72111 0.99732 0.0
C817 C 0.54154 0.71535 0.96361 0.0
C818 C 0.5872 0.69922 0.01783 0.0
C819 C 0.59184 0.67169 0.01646 0.0
C820 C 0.60589 0.66583 0.99495 0.0
C821 C 0.61547 0.68858 0.97483 0.0
C822 C 0.61059 0.71604 0.97606 0.0
H823 H 0.51849 0.71376 0.95605 0.0
H824 H 0.5579 0.71809 0.94744 0.0
H825 H 0.53495 0.69171 0.97338 0.0
H826 H 0.57501 0.70217 0.03425 0.0
H827 H 0.58172 0.65357 0.03134 0.0
H828 H 0.37565 0.93343 0.95411 0.0
H829 H 0.32702 0.8792 0.96144 0.0
H830 H 0.33522 0.89825 0.04157 0.0
H831 H 0.38444 0.95295 0.03414 0.0
H832 H 0.32898 0.83814 0.03163 0.0
H833 H 0.23181 0.8467 0.97821 0.0
H834 H 0.26749 0.85862 0.95869 0.0
H835 H 0.27083 0.88293 0.9862 0.0
C836 C 0.3666 0.92653 0.97328 0.0
C837 C 0.38421 0.94756 0.99353 0.0
C838 C 0.33861 0.89537 0.97747 0.0
C839 C 0.32702 0.88432 1.00207 0.0
C840 C 0.34354 0.90599 0.02237 0.0
H841 H 0.14525 0.68803 1.00653 0.0
H842 H 0.18488 0.7464 0.01616 0.0
C843 C 0.37168 0.9374 0.01812 0.0
C844 C 0.29959 0.84925 1.00628 0.0
H845 H 0.22299 0.79131 0.98434 0.0
C846 C 0.30557 0.82805 0.02161 0.0
C847 C 0.26863 0.83581 0.99366 0.0
C848 C 0.25917 0.85733 0.9785 0.0
C849 C 0.28241 0.79378 0.02354 0.0
C850 C 0.25258 0.77986 0.00929 0.0
C851 C 0.24588 0.80145 0.99506 0.0
C852 C 0.22873 0.74307 0.00774 0.0
C853 C 0.2903 0.77294 0.04093 0.0
C854 C 0.23977 0.72104 1.00051 0.0
C855 C 0.21706 0.68747 0.99558 0.0
C856 C 0.18269 0.67503 0.99756 0.0
C857 C 0.1716 0.69664 1.00563 0.0
C858 C 0.19432 0.73017 0.0108 0.0
H859 H 0.30643 0.788 0.0568 0.0
H860 H 0.26741 0.75175 0.04887 0.0
H861 H 0.30403 0.76307 0.03024 0.0
H862 H 0.26588 0.73016 0.99714 0.0
H863 H 0.22628 0.67175 0.98846 0.0
H864 H 0.48858 0.22052 0.98084 0.0
H865 H 0.51678 0.28137 0.97711 0.0
H866 H 0.49889 0.28856 0.0561 0.0
H867 H 0.47127 0.22826 0.05997 0.0
H868 H 0.48876 0.32156 0.98642 0.0
H869 H 0.59675 0.35851 0.04905 0.0
H870 H 0.57226 0.3169 0.03684 0.0
H871 H 0.55822 0.32985 0.06391 0.0
C872 C 0.49132 0.23516 0.99751 0.0
C873 C 0.4776 0.21943 0.0207 0.0
C874 C 0.50725 0.26995 0.99532 0.0
C875 C 0.51034 0.28977 0.01638 0.0
C876 C 0.49743 0.27407 0.03965 0.0
H877 H 0.5755 0.49109 0.06015 0.0
H878 H 0.55491 0.43167 0.05577 0.0
C879 C 0.48136 0.23945 0.04179 0.0
C880 C 0.52493 0.32656 0.01398 0.0
H881 H 0.58284 0.40043 0.03981 0.0
C882 C 0.5096 0.3389 0.99787 0.0
C883 C 0.55221 0.34932 0.02878 0.0
C884 C 0.57105 0.33805 0.04543 0.0
C885 C 0.51944 0.37293 0.99723 0.0
C886 C 0.54593 0.39571 0.01285 0.0
C887 C 0.56219 0.38334 0.0281 0.0
C888 C 0.55634 0.43198 0.01485 0.0
C889 C 0.50009 0.38359 0.98068 0.0
C890 C 0.56374 0.45258 0.99342 0.0
C891 C 0.57451 0.48663 0.99599 0.0
C892 C 0.57884 0.50101 0.02005 0.0
C893 C 0.57189 0.48061 0.04137 0.0
C894 C 0.56034 0.44658 0.03883 0.0
H895 H 0.4747 0.36275 0.97672 0.0
H896 H 0.49799 0.40385 0.98966 0.0
H897 H 0.51312 0.3926 0.96235 0.0
H898 H 0.56206 0.44263 0.97468 0.0
H899 H 0.5806 0.50189 0.9792 0.0
H900 H 0.54865 0.08791 0.97494 0.0
H901 H 0.60798 0.12783 0.97009 0.0
H902 H 0.62141 0.12408 0.05052 0.0
H903 H 0.56173 0.08744 0.05544 0.0
H904 H 0.65604 0.18195 0.03932 0.0
H905 H 0.68454 0.11752 0.96412 0.0
H906 H 0.65677 0.13098 0.95295 0.0
H907 H 0.64375 0.10021 0.97752 0.0
C908 C 0.56447 0.0954 0.99148 0.0
C909 C 0.55071 0.08386 0.01553 0.0
C910 C 0.59861 0.11814 0.98872 0.0
C911 C 0.62009 0.12877 0.00981 0.0
C912 C 0.60598 0.1167 0.03377 0.0
H913 H 0.83155 0.20863 0.00993 0.0
H914 H 0.77146 0.17674 0.0073 0.0
C915 C 0.57177 0.09531 0.03662 0.0
C916 C 0.6568 0.1533 0.00758 0.0
H917 H 0.72782 0.17123 0.97538 0.0
C918 C 0.6716 0.17923 0.02539 0.0
C919 C 0.67775 0.15064 0.9893 0.0
C920 C 0.66495 0.12317 0.97003 0.0
C921 C 0.70618 0.2012 0.0262 0.0
C922 C 0.72696 0.1985 0.00789 0.0
C923 C 0.71214 0.17352 0.98947 0.0
C924 C 0.76419 0.2192 0.00868 0.0
C925 C 0.72009 0.226 0.04751 0.0
C926 C 0.7809 0.25413 0.0098 0.0
C927 C 0.81572 0.27267 0.01211 0.0
C928 C 0.83479 0.25678 0.0129 0.0
C929 C 0.81798 0.22195 0.01031 0.0
C930 C 0.78335 0.20352 0.00845 0.0
H931 H 0.70235 0.21885 0.06351 0.0
H932 H 0.74366 0.22852 0.05474 0.0
H933 H 0.72509 0.25058 0.04055 0.0
H934 H 0.76706 0.26715 0.00915 0.0
H935 H 0.82751 0.29936 0.01394 0.0
H936 H 0.96783 0.4767 0.98011 0.0
H937 H 0.93059 0.50006 0.97896 0.0
H938 H 0.91608 0.48561 0.05942 0.0
H939 H 0.95426 0.46383 0.06067 0.0
H940 H 0.86542 0.47329 0.99117 0.0
H941 H 0.93837 0.58014 0.05412 0.0
H942 H 0.95403 0.55415 0.04275 0.0
H943 H 0.92696 0.54163 0.06971 0.0
C944 C 0.95734 0.47936 0.99759 0.0
C945 C 0.96501 0.46964 0.02064 0.0
C946 C 0.93571 0.49236 0.99691 0.0
C947 C 0.9209 0.49542 0.0192 0.0
C948 C 0.92782 0.48462 0.04204 0.0
H949 H 0.78776 0.56525 0.06562 0.0
H950 H 0.82161 0.53876 0.06145 0.0
C951 C 0.94956 0.47195 0.04273 0.0
C952 C 0.89753 0.50894 0.01871 0.0
H953 H 0.88246 0.56667 0.04621 0.0
C954 C 0.8693 0.4939 1.00306 0.0
C955 C 0.9022 0.53573 0.03428 0.0
C956 C 0.9322 0.55405 0.05101 0.0
C957 C 0.84528 0.50409 1.00323 0.0
C958 C 0.84994 0.53073 0.019 0.0
C959 C 0.8785 0.54611 0.03422 0.0
C960 C 0.82562 0.54299 0.0207 0.0
C961 C 0.81457 0.48531 0.98723 0.0
C962 C 0.81563 0.55368 0.9992 0.0
C963 C 0.79558 0.56832 1.00158 0.0
C964 C 0.7857 0.57322 0.02554 0.0
C965 C 0.79497 0.56178 0.04691 0.0
C966 C 0.81446 0.54673 0.04452 0.0
H967 H 0.8099 0.46006 0.98252 0.0
H968 H 0.79232 0.48296 0.99692 0.0
H969 H 0.81799 0.49887 0.96922 0.0
H970 H 0.82443 0.55201 0.98064 0.0
H971 H 0.78924 0.57736 0.98482 0.0
H972 H 0.78131 0.80807 0.36674 0.0
H973 H 0.83668 0.8156 0.37134 0.0
H974 H 0.83288 0.78407 0.29429 0.0
H975 H 0.7761 0.77463 0.29038 0.0
H976 H 0.8656 0.76163 0.32585 0.0
H977 H 0.91471 0.89633 0.33958 0.0
H978 H 0.88386 0.87092 0.36241 0.0
H979 H 0.87261 0.86847 0.32964 0.0
C980 C 0.79113 0.80051 0.35143 0.0
C981 C 0.77328 0.78887 0.32878 0.0
C982 C 0.8235 0.80598 0.35371 0.0
C983 C 0.83941 0.80099 0.33304 0.0
C984 C 0.82128 0.78816 0.31057 0.0
H985 H 0.05164 0.88484 0.30607 0.0
H986 H 0.99467 0.87503 0.30893 0.0
C987 C 0.78873 0.78255 0.30839 0.0
C988 C 0.87536 0.81087 0.33444 0.0
H989 H 0.95305 0.87716 0.34503 0.0
C990 C 0.88469 0.78688 0.33007 0.0
C991 C 0.90051 0.84401 0.33948 0.0
C992 C 0.89255 0.87152 0.3428 0.0
C993 C 0.9182 0.79489 0.331 0.0
C994 C 0.94325 0.82776 0.33696 0.0
C995 C 0.93396 0.85189 0.34089 0.0
C996 C 0.97924 0.83767 0.33819 0.0
C997 C 0.92649 0.76815 0.32492 0.0
C998 C 0.99029 0.82152 0.35471 0.0
C999 C 1.02288 0.8273 0.35318 0.0
C1000 C 0.04536 0.84984 0.33545 0.0
C1001 C 0.03514 0.86798 0.32034 0.0
C1002 C 1.00242 0.86204 0.32177 0.0
H1003 H 0.90615 0.74733 0.3143 0.0
H1004 H 0.94965 0.77823 0.31361 0.0
H1005 H 0.93025 0.75796 0.34278 0.0
H1006 H 0.97325 0.80322 0.36799 0.0
H1007 H 0.0299 0.81252 0.3647 0.0
H1008 H 0.19198 0.18353 0.28408 0.0
H1009 H 0.20406 0.13816 0.28846 0.0
H1010 H 0.23037 0.16443 0.36652 0.0
H1011 H 0.21816 0.21 0.36208 0.0
H1012 H 0.26904 0.151 0.30202 0.0
H1013 H 0.17295 0.06124 0.36802 0.0
H1014 H 0.16741 0.09144 0.35041 0.0
H1015 H 0.19441 0.10417 0.37734 0.0
C1016 C 0.19907 0.17876 0.30244 0.0
C1017 C 0.20339 0.19978 0.3229 0.0
C1018 C 0.20634 0.15307 0.30486 0.0
C1019 C 0.21808 0.14771 0.32782 0.0
C1020 C 0.22088 0.16767 0.34871 0.0
H1021 H 0.27785 0.99861 0.36011 0.0
H1022 H 0.27137 0.04762 0.36423 0.0
C1023 C 0.21366 0.19355 0.34624 0.0
C1024 C 0.23013 0.12333 0.32895 0.0
H1025 H 0.21398 0.04907 0.3544 0.0
C1026 C 0.25704 0.12877 0.31356 0.0
C1027 C 0.21488 0.09453 0.34424 0.0
C1028 C 0.18566 0.08717 0.36087 0.0
C1029 C 0.26872 0.10608 0.31273 0.0
C1030 C 0.25263 0.07656 0.32722 0.0
C1031 C 0.22637 0.07161 0.34324 0.0
C1032 C 0.26094 0.04948 0.32459 0.0
C1033 C 0.29839 0.1141 0.29639 0.0
C1034 C 0.25814 0.03451 0.30098 0.0
C1035 C 0.26212 1.00669 0.29876 0.0
C1036 C 0.26882 0.99293 0.32008 0.0
C1037 C 0.27312 1.00877 0.34346 0.0
C1038 C 0.2691 0.03667 0.34577 0.0
H1039 H 0.31433 0.1413 0.29365 0.0
H1040 H 0.31369 0.10425 0.30471 0.0
H1041 H 0.28968 0.1027 0.2775 0.0
H1042 H 0.25126 0.04333 0.28439 0.0
H1043 H 0.25823 0.99483 0.28049 0.0
H1044 H 0.04464 0.26907 0.29363 0.0
H1045 H 0.99527 0.21537 0.30144 0.0
H1046 H 1.00551 0.23497 0.38147 0.0
H1047 H 0.05481 0.28937 0.37347 0.0
H1048 H 1.00096 0.17323 0.36776 0.0
H1049 H 0.89995 0.18554 0.32328 0.0
H1050 H 0.93541 0.19916 0.30307 0.0
H1051 H 0.93923 0.22104 0.33201 0.0
C1052 C 0.03581 0.26244 0.31286 0.0
C1053 C 0.05407 0.28341 0.33298 0.0
C1054 C 1.00754 0.2316 0.31733 0.0
C1055 C 0.9966 0.22079 0.34207 0.0
C1056 C 1.01353 0.24252 0.36219 0.0
H1057 H 0.81257 0.02994 0.3581 0.0
H1058 H 0.85666 0.08711 0.36589 0.0
C1059 C 0.04178 0.27369 0.35764 0.0
C1060 C 0.9693 0.18591 0.34658 0.0
H1061 H 0.88962 0.13008 0.32936 0.0
C1062 C 0.97644 0.16388 0.3597 0.0
C1063 C 0.93717 0.17356 0.33626 0.0
C1064 C 0.92731 0.19612 0.32308 0.0
C1065 C 0.95286 0.12976 0.36182 0.0
C1066 C 0.9213 0.11706 0.35027 0.0
C1067 C 0.91378 0.13945 0.33808 0.0
C1068 C 0.8959 0.08073 0.34982 0.0
C1069 C 0.96208 0.1077 0.37645 0.0
C1070 C 0.90317 0.05737 0.33906 0.0
C1071 C 0.87793 0.02436 0.33501 0.0
C1072 C 0.84484 1.01407 0.34146 0.0
C1073 C 0.83793 0.03694 0.35345 0.0
C1074 C 0.86312 0.06979 0.35762 0.0
H1075 H 0.98183 0.12209 0.39054 0.0
H1076 H 0.94025 0.08763 0.3864 0.0
H1077 H 0.9718 0.09613 0.36317 0.0
H1078 H 0.92794 0.06509 0.33227 0.0
H1079 H 0.88383 1.00764 0.32503 0.0
H1080 H 0.2538 0.8328 0.31446 0.0
H1081 H 0.23129 0.77258 0.31486 0.0
H1082 H 0.25111 0.7768 0.39481 0.0
H1083 H 0.26989 0.83615 0.39475 0.0
H1084 H 0.25173 0.7328 0.32296 0.0
H1085 H 0.16015 0.70572 0.39893 0.0
H1086 H 0.18682 0.74724 0.38795 0.0
H1087 H 0.20156 0.72929 0.41103 0.0
C1088 C 0.25216 0.82057 0.33225 0.0
C1089 C 0.26149 0.8388 0.35485 0.0
C1090 C 0.23984 0.78613 0.33244 0.0
C1091 C 0.23795 0.76931 0.35511 0.0
C1092 C 0.25032 0.78834 0.37727 0.0
H1093 H 0.19356 0.56084 0.36337 0.0
H1094 H 0.22305 0.62165 0.35979 0.0
C1095 C 0.26145 0.82248 0.3772 0.0
C1096 C 0.22338 0.73218 0.35541 0.0
H1097 H 0.16768 0.6609 0.38607 0.0
C1098 C 0.23323 0.71721 0.33674 0.0
C1099 C 0.19924 0.71121 0.37341 0.0
C1100 C 0.18614 0.72419 0.39381 0.0
C1101 C 0.2196 0.68246 0.33549 0.0
C1102 C 0.19564 0.66188 0.3535 0.0
C1103 C 0.18605 0.67666 0.37224 0.0
C1104 C 0.17883 0.62483 0.35285 0.0
C1105 C 0.23032 0.66792 0.31456 0.0
C1106 C 0.14422 0.60623 0.34999 0.0
C1107 C 0.12738 0.57161 0.35202 0.0
C1108 C 0.14461 0.55451 0.35721 0.0
C1109 C 0.17948 0.57308 0.35918 0.0
C1110 C 0.1964 0.6079 0.35711 0.0
H1111 H 0.24393 0.68632 0.2994 0.0
H1112 H 0.24699 0.65947 0.32242 0.0
H1113 H 0.20851 0.64606 0.30611 0.0
H1114 H 0.13006 0.61861 0.34663 0.0
H1115 H 0.10064 0.55822 0.34989 0.0
H1116 H 0.2164 0.43641 0.31654 0.0
H1117 H 0.27494 0.47946 0.31268 0.0
H1118 H 0.29306 0.4566 0.3881 0.0
H1119 H 0.23398 0.41693 0.39282 0.0
H1120 H 0.32665 0.51605 0.38485 0.0
H1121 H 0.35158 0.47512 0.29317 0.0
H1122 H 0.32419 0.49163 0.28996 0.0
H1123 H 0.31126 0.45402 0.3074 0.0
C1124 C 0.23312 0.44056 0.33214 0.0
C1125 C 0.22094 0.42249 0.35469 0.0
C1126 C 0.26681 0.46504 0.32989 0.0
C1127 C 0.28946 0.471 0.34972 0.0
C1128 C 0.27676 0.45292 0.37231 0.0
H1129 H 0.49927 0.54719 0.34654 0.0
H1130 H 0.43886 0.51703 0.34373 0.0
C1131 C 0.24291 0.42981 0.37498 0.0
C1132 C 0.326 0.49639 0.34782 0.0
H1133 H 0.39599 0.52274 0.31163 0.0
C1134 C 0.34161 0.51714 0.36878 0.0
C1135 C 0.34619 0.49914 0.32669 0.0
C1136 C 0.33251 0.47865 0.30311 0.0
C1137 C 0.37625 0.53864 0.36986 0.0
C1138 C 0.39623 0.5405 0.34907 0.0
C1139 C 0.38073 0.52117 0.32765 0.0
C1140 C 0.43337 0.56002 0.34991 0.0
C1141 C 0.39127 0.5581 0.39375 0.0
C1142 C 0.45084 0.59457 0.35378 0.0
C1143 C 0.4857 0.61201 0.35561 0.0
C1144 C 0.50385 0.59527 0.35357 0.0
C1145 C 0.48624 0.56089 0.34877 0.0
C1146 C 0.45157 0.54357 0.34697 0.0
H1147 H 0.37356 0.54858 0.40983 0.0
H1148 H 0.41395 0.55729 0.3991 0.0
H1149 H 0.39839 0.58442 0.39057 0.0
H1150 H 0.43754 0.60806 0.35557 0.0
H1151 H 0.49832 0.63842 0.35932 0.0
H1152 H 0.48101 0.93079 0.3868 0.0
H1153 H 0.51107 0.90009 0.38506 0.0
H1154 H 0.47903 0.87192 0.30817 0.0
H1155 H 0.44885 0.90281 0.30974 0.0
H1156 H 0.48571 0.82922 0.37171 0.0
H1157 H 0.58374 0.91888 0.30677 0.0
H1158 H 0.55753 0.92972 0.32478 0.0
H1159 H 0.54114 0.90325 0.29771 0.0
C1160 C 0.4803 0.91804 0.3695 0.0
C1161 C 0.46271 0.91951 0.34833 0.0
C1162 C 0.4974 0.90038 0.36858 0.0
C1163 C 0.49767 0.88402 0.34641 0.0
C1164 C 0.47947 0.88465 0.3254 0.0
H1165 H 0.62627 0.79907 0.31411 0.0
H1166 H 0.58637 0.81883 0.3098 0.0
C1167 C 0.46202 0.9021 0.32639 0.0
C1168 C 0.51761 0.86696 0.34537 0.0
H1169 H 0.5884 0.87345 0.32056 0.0
C1170 C 0.5082 0.83888 0.36053 0.0
C1171 C 0.54667 0.87922 0.33051 0.0
C1172 C 0.55817 0.90953 0.31407 0.0
C1173 C 0.52724 0.82298 0.36148 0.0
C1174 C 0.55733 0.83624 0.34758 0.0
C1175 C 0.56594 0.8636 0.33168 0.0
C1176 C 0.58084 0.82311 0.35005 0.0
C1177 C 0.51434 0.7917 0.37698 0.0
C1178 C 0.59149 0.81907 0.374 0.0
C1179 C 0.61386 0.80733 0.37642 0.0
C1180 C 0.62741 0.80084 0.35497 0.0
C1181 C 0.61684 0.8047 0.33097 0.0
C1182 C 0.59393 0.81589 0.32853 0.0
H1183 H 0.48679 0.77834 0.37809 0.0
H1184 H 0.52215 0.77459 0.36901 0.0
H1185 H 0.52397 0.79829 0.39655 0.0
H1186 H 0.58289 0.82543 0.39094 0.0
H1187 H 0.6213 0.80418 0.39514 0.0
H1188 H 0.72047 0.22004 0.6785 0.0
H1189 H 0.66287 0.20448 0.68873 0.0
H1190 H 0.62852 0.1086 0.65468 0.0
H1191 H 0.68569 0.12366 0.64526 0.0
H1192 H 0.61624 0.19279 0.65574 0.0
H1193 H 0.56825 0.07995 0.71413 0.0
H1194 H 0.61206 0.1066 0.70832 0.0
H1195 H 0.58635 0.0753 0.68567 0.0
C1196 C 0.70072 0.19518 0.67417 0.0
C1197 C 0.70781 0.17308 0.66118 0.0
C1198 C 0.66766 0.18636 0.67977 0.0
C1199 C 0.64092 0.15513 0.67272 0.0
C1200 C 0.64831 0.13249 0.66097 0.0
H1201 H 0.44953 0.11654 0.62119 0.0
H1202 H 0.50478 0.12373 0.62753 0.0
C1203 C 0.68119 0.14124 0.65544 0.0
C1204 C 0.60549 0.14754 0.67476 0.0
H1205 H 0.52684 0.08707 0.69145 0.0
C1206 C 0.59689 0.16985 0.66392 0.0
C1207 C 0.57981 0.11782 0.68566 0.0
C1208 C 0.58716 0.09376 0.69934 0.0
C1209 C 0.56367 0.16272 0.66264 0.0
C1210 C 0.5378 0.13196 0.67187 0.0
C1211 C 0.5464 0.11033 0.68387 0.0
C1212 C 0.5019 0.12184 0.66832 0.0
C1213 C 0.55665 0.18836 0.65127 0.0
C1214 C 0.4805 0.11567 0.689 0.0
C1215 C 0.44834 0.1109 0.68533 0.0
C1216 C 0.43707 0.11235 0.66092 0.0
C1217 C 0.45751 0.11561 0.64025 0.0
C1218 C 0.48934 0.12011 0.64388 0.0
H1219 H 0.57873 0.21365 0.6523 0.0
H1220 H 0.55007 0.18244 0.63105 0.0
H1221 H 0.5356 0.18861 0.66099 0.0
H1222 H 0.48924 0.11625 0.70807 0.0
H1223 H 0.43312 0.10789 0.70162 0.0
H1224 H 0.94075 0.32717 0.70392 0.0
H1225 H 0.93115 0.37394 0.71154 0.0
H1226 H 0.91928 0.38172 0.63156 0.0
H1227 H 0.9285 0.3351 0.62393 0.0
H1228 H 0.96294 0.44679 0.67865 0.0
H1229 H 0.82723 0.35662 0.67675 0.0
H1230 H 0.85704 0.34516 0.68757 0.0
H1231 H 0.85355 0.35124 0.65453 0.0
C1232 C 0.93684 0.33931 0.68796 0.0
C1233 C 0.93497 0.3271 0.66333 0.0
C1234 C 0.93129 0.36603 0.69233 0.0
C1235 C 0.924 0.38102 0.67212 0.0
C1236 C 0.92462 0.37042 0.64745 0.0
H1237 H 0.84478 0.50712 0.63548 0.0
H1238 H 0.85649 0.46168 0.64146 0.0
C1239 C 0.93007 0.34385 0.64311 0.0
C1240 C 0.91306 0.40583 0.67641 0.0
H1241 H 0.84356 0.41351 0.6761 0.0
C1242 C 0.93686 0.43958 0.67855 0.0
C1243 C 0.87903 0.39638 0.67593 0.0
C1244 C 0.85253 0.36039 0.67368 0.0
C1245 C 0.92757 0.46421 0.67935 0.0
C1246 C 0.89341 0.45482 0.67848 0.0
C1247 C 0.86966 0.42088 0.67693 0.0
C1248 C 0.88206 0.47986 0.6771 0.0
C1249 C 0.95457 0.50017 0.6798 0.0
C1250 C 0.89085 0.50445 0.69573 0.0
C1251 C 0.88391 0.53038 0.69235 0.0
C1252 C 0.86746 0.5319 0.67053 0.0
C1253 C 0.85666 0.50609 0.6528 0.0
C1254 C 0.86371 0.48029 0.6561 0.0
H1255 H 0.97908 0.50334 0.67437 0.0
H1256 H 0.94861 0.51523 0.66681 0.0
H1257 H 0.95683 0.51007 0.6992 0.0
H1258 H 0.90431 0.5044 0.7124 0.0
H1259 H 0.89323 0.55036 0.70601 0.0
H1260 H 0.73592 0.604 0.69886 0.0
H1261 H 0.68764 0.54851 0.70235 0.0
H1262 H 0.6593 0.55678 0.62636 0.0
H1263 H 0.70764 0.6129 0.62322 0.0
H1264 H 0.61849 0.51869 0.69716 0.0
H1265 H 0.67188 0.47617 0.62221 0.0
H1266 H 0.69516 0.51633 0.63698 0.0
H1267 H 0.66548 0.50958 0.6126 0.0
C1268 C 0.71837 0.59502 0.68355 0.0
C1269 C 0.72479 0.61387 0.66136 0.0
C1270 C 0.69101 0.56273 0.68529 0.0
C1271 C 0.66977 0.54802 0.66455 0.0
C1272 C 0.67542 0.56722 0.64259 0.0
H1273 H 0.48257 0.36261 0.65323 0.0
H1274 H 0.52599 0.41997 0.66106 0.0
C1275 C 0.70284 0.59953 0.64091 0.0
C1276 C 0.64337 0.51205 0.66533 0.0
H1277 H 0.61781 0.43726 0.6364 0.0
C1278 C 0.61838 0.50091 0.68387 0.0
C1279 C 0.64345 0.48843 0.64844 0.0
C1280 C 0.67058 0.49806 0.62908 0.0
C1281 C 0.59313 0.46727 0.68545 0.0
C1282 C 0.59251 0.44394 0.6679 0.0
C1283 C 0.618 0.45495 0.64982 0.0
C1284 C 0.5651 0.40835 0.66715 0.0
C1285 C 0.56758 0.45695 0.70615 0.0
C1286 C 0.5721 0.38218 0.66836 0.0
C1287 C 0.54705 0.34911 0.6641 0.0
C1288 C 0.5145 0.34153 0.65822 0.0
C1289 C 0.50724 0.36754 0.65819 0.0
C1290 C 0.53215 0.40045 0.66263 0.0
H1291 H 0.5769 0.47468 0.7222 0.0
H1292 H 0.54508 0.45645 0.69855 0.0
H1293 H 0.56029 0.43178 0.71333 0.0
H1294 H 0.59728 0.38747 0.67166 0.0
H1295 H 0.55363 0.32982 0.66368 0.0
H1296 H 0.84149 0.88887 0.69501 0.0
H1297 H 0.86933 0.94971 0.69252 0.0
H1298 H 0.77844 0.94305 0.66618 0.0
H1299 H 0.75054 0.88258 0.66888 0.0
H1300 H 0.88069 0.99507 0.65456 0.0
H1301 H 0.79882 1.00207 0.7274 0.0
H1302 H 0.79971 0.96441 0.72115 0.0
H1303 H 0.77648 0.97659 0.70095 0.0
C1304 C 0.82755 0.90037 0.68842 0.0
C1305 C 0.7936 0.88075 0.68252 0.0
C1306 C 0.84347 0.9352 0.68707 0.0
C1307 C 0.82583 0.95119 0.67977 0.0
C1308 C 0.79243 0.93153 0.67261 0.0
H1309 H 0.91284 0.1646 0.64487 0.0
H1310 H 0.88755 0.104 0.64144 0.0
C1311 C 0.7765 0.89685 0.67411 0.0
C1312 C 0.84192 0.98827 0.68025 0.0
H1313 H 0.83485 0.052 0.70591 0.0
C1314 C 0.87069 1.00751 0.66582 0.0
C1315 C 0.82919 1.00474 0.69514 0.0
C1316 C 0.79956 0.98595 0.71224 0.0
C1317 C 0.88678 0.04252 0.66568 0.0
C1318 C 0.87353 0.05888 0.6801 0.0
C1319 C 0.8449 0.03961 0.69463 0.0
C1320 C 0.88969 0.09591 0.68154 0.0
C1321 C 0.91831 0.06165 0.65061 0.0
C1322 C 0.89904 0.11176 0.70514 0.0
C1323 C 0.91289 0.14619 0.7071 0.0
C1324 C 0.91706 0.16562 0.68562 0.0
C1325 C 0.90887 0.15009 0.66184 0.0
C1326 C 0.89488 0.11549 0.65985 0.0
H1327 H 0.92972 0.04621 0.64608 0.0
H1328 H 0.91256 0.06979 0.63254 0.0
H1329 H 0.93675 0.08406 0.66101 0.0
H1330 H 0.89554 0.09743 0.72216 0.0
H1331 H 0.91973 0.15761 0.72559 0.0
H1332 H 0.89025 0.76568 0.72999 0.0
H1333 H 0.94971 0.80529 0.727 0.0
H1334 H 0.94233 0.80339 0.64572 0.0
H1335 H 0.88274 0.76253 0.64882 0.0
H1336 H 0.99586 0.80239 0.65802 0.0
H1337 H 0.99679 0.90184 0.71486 0.0
H1338 H 0.97952 0.86434 0.73297 0.0
H1339 H 0.95864 0.86611 0.70477 0.0
C1340 C 0.90137 0.77372 0.71149 0.0
C1341 C 0.88207 0.7603 0.68966 0.0
C1342 C 0.93537 0.79676 0.70976 0.0
C1343 C 0.95081 0.80819 0.68613 0.0
C1344 C 0.93127 0.79525 0.66422 0.0
H1345 H 0.16467 0.9411 0.6511 0.0
H1346 H 0.1038 0.91007 0.64728 0.0
C1347 C 0.89721 0.77177 0.66597 0.0
C1348 C 0.98743 0.83246 0.68449 0.0
H1349 H 0.04969 0.90457 0.70991 0.0
C1350 C 1.00747 0.82473 0.6693 0.0
C1351 C 1.003 0.8624 0.69861 0.0
C1352 C 0.98328 0.87433 0.71347 0.0
C1353 C 0.04237 0.84463 0.66914 0.0
C1354 C 0.05793 0.87365 0.68417 0.0
C1355 C 0.03791 0.88218 0.69857 0.0
C1356 C 0.09491 0.89437 0.68638 0.0
C1357 C 0.0624 0.83364 0.65366 0.0
C1358 C 0.1103 0.89696 0.70975 0.0
C1359 C 0.14497 0.91471 0.71198 0.0
C1360 C 0.16531 0.93068 0.69093 0.0
C1361 C 0.14984 0.92922 0.66771 0.0
C1362 C 0.11502 0.91117 0.66544 0.0
H1363 H 0.0472 0.80755 0.64715 0.0
H1364 H 0.07238 0.84979 0.63676 0.0
H1365 H 0.08375 0.83596 0.66473 0.0
H1366 H 0.09546 0.88452 0.72624 0.0
H1367 H 0.15591 0.91566 0.73024 0.0
H1368 H 0.28849 0.13619 0.72573 0.0
H1369 H 0.25136 0.15911 0.72188 0.0
H1370 H 0.26124 0.16098 0.6408 0.0
H1371 H 0.29763 0.1369 0.6447 0.0
H1372 H 0.26323 0.21742 0.70356 0.0
H1373 H 0.16174 0.11722 0.6479 0.0
H1374 H 0.19413 0.11238 0.66257 0.0
H1375 H 0.20177 0.13448 0.63319 0.0
C1376 C 0.28266 0.14144 0.70708 0.0
C1377 C 0.29681 0.13577 0.68558 0.0
C1378 C 0.26142 0.15457 0.70487 0.0
C1379 C 0.25316 0.16172 0.68104 0.0
C1380 C 0.26667 0.15527 0.65941 0.0
H1381 H 0.17392 0.29624 0.66365 0.0
H1382 H 0.20728 0.26907 0.66191 0.0
C1383 C 0.2879 0.14197 0.66164 0.0
C1384 C 0.2313 0.17684 0.67923 0.0
H1385 H 0.15858 0.16617 0.6542 0.0
C1386 C 0.24038 0.20617 0.69272 0.0
C1387 C 0.2011 0.16202 0.66545 0.0
C1388 C 0.18886 0.12962 0.65164 0.0
C1389 C 0.22045 0.22112 0.69272 0.0
C1390 C 0.19074 0.20688 0.67834 0.0
C1391 C 0.18143 0.17736 0.66503 0.0
C1392 C 0.16908 0.22228 0.67716 0.0
C1393 C 0.23112 0.25163 0.70873 0.0
C1394 C 0.13568 0.20464 0.685 0.0
C1395 C 0.11627 0.22013 0.68575 0.0
C1396 C 0.12989 0.25364 0.67873 0.0
C1397 C 0.1628 0.27064 0.66971 0.0
C1398 C 0.18201 0.25513 0.66879 0.0
H1399 H 0.24853 0.25361 0.72392 0.0
H1400 H 0.24415 0.27405 0.69666 0.0
H1401 H 0.20941 0.25153 0.71756 0.0
H1402 H 0.12492 0.17918 0.69135 0.0
H1403 H 0.09109 0.2063 0.69283 0.0
H1404 H 0.11837 0.42087 0.28285 0.0
H1405 H 0.11091 0.43843 0.24139 0.0
H1406 H 0.13225 0.36743 0.20657 0.0
H1407 H 0.13885 0.3487 0.24852 0.0
H1408 H 0.15212 0.46617 0.20183 0.0
H1409 H 0.04562 0.34515 0.17251 0.0
H1410 H 0.06083 0.35329 0.20456 0.0
H1411 H 0.08221 0.34349 0.18079 0.0
C1412 C 0.12138 0.40864 0.26651 0.0
C1413 C 0.12913 0.38305 0.26934 0.0
C1414 C 0.11723 0.41898 0.24264 0.0
C1415 C 0.12051 0.40412 0.22063 0.0
C1416 C 0.12889 0.37897 0.22319 0.0
H1417 H 0.08959 0.42577 0.06212 0.0
H1418 H 0.10707 0.4154 0.10262 0.0
C1419 C 0.13305 0.36848 0.24726 0.0
C1420 C 0.11494 0.41518 0.19531 0.0
H1421 H 0.06661 0.3881 0.14219 0.0
C1422 C 0.13341 0.44905 0.1888 0.0
C1423 C 0.09035 0.39308 0.17823 0.0
C1424 C 0.06836 0.35679 0.18439 0.0
C1425 C 0.12843 0.46119 0.1657 0.0
C1426 C 0.10392 0.43906 0.14863 0.0
C1427 C 0.08545 0.40522 0.15516 0.0
C1428 C 0.09763 0.4498 0.12345 0.0
C1429 C 0.15003 0.49751 0.15955 0.0
C1430 C 0.08729 0.47355 0.1211 0.0
C1431 C 0.07774 0.48014 0.09742 0.0
C1432 C 0.07832 0.46302 0.07573 0.0
C1433 C 0.08982 0.44027 0.07817 0.0
C1434 C 0.09943 0.43389 0.10153 0.0
H1435 H 0.1728 0.50937 0.17138 0.0
H1436 H 0.15744 0.50106 0.13935 0.0
H1437 H 0.13587 0.51049 0.16317 0.0
H1438 H 0.08492 0.48573 0.13773 0.0
H1439 H 0.06791 0.49687 0.09641 0.0
H1440 H 0.62872 0.70756 0.28364 0.0
H1441 H 0.60941 0.68188 0.24245 0.0
H1442 H 0.67517 0.7751 0.20625 0.0
H1443 H 0.69544 0.80095 0.24779 0.0
H1444 H 0.5788 0.69361 0.20265 0.0
H1445 H 0.70168 0.71258 0.17307 0.0
H1446 H 0.69305 0.71892 0.20518 0.0
H1447 H 0.70146 0.74987 0.1815 0.0
C1448 C 0.63918 0.72282 0.26698 0.0
C1449 C 0.66385 0.7565 0.26924 0.0
C1450 C 0.6279 0.708 0.24333 0.0
C1451 C 0.64106 0.72622 0.22105 0.0
C1452 C 0.66493 0.76022 0.2231 0.0
H1453 H 0.62085 0.66902 0.06369 0.0
H1454 H 0.63034 0.6982 0.10346 0.0
C1455 C 0.67622 0.7752 0.24695 0.0
C1456 C 0.63019 0.70904 0.19597 0.0
H1457 H 0.6583 0.68791 0.14339 0.0
C1458 C 0.59622 0.69245 0.18966 0.0
C1459 C 0.65272 0.70708 0.17901 0.0
C1460 C 0.68922 0.72276 0.18503 0.0
C1461 C 0.58435 0.67466 0.16682 0.0
C1462 C 0.60691 0.67273 0.14988 0.0
C1463 C 0.64086 0.68928 0.15624 0.0
C1464 C 0.59646 0.65486 0.12503 0.0
C1465 C 0.54786 0.65871 0.16081 0.0
C1466 C 0.57334 0.62056 0.12332 0.0
C1467 C 0.56713 0.6037 0.10001 0.0
C1468 C 0.58392 0.62088 0.07805 0.0
C1469 C 0.60622 0.65523 0.07986 0.0
C1470 C 0.6122 0.67196 0.10284 0.0
H1471 H 0.53553 0.66953 0.17222 0.0
H1472 H 0.5439 0.66152 0.14048 0.0
H1473 H 0.53564 0.63182 0.16516 0.0
H1474 H 0.56142 0.60646 0.14018 0.0
H1475 H 0.55095 0.57705 0.09951 0.0
H1476 H 0.41026 0.92428 0.06227 0.0
H1477 H 0.37706 0.89983 0.10088 0.0
H1478 H 0.42568 0.99608 0.13624 0.0
H1479 H 0.45871 0.02026 0.0982 0.0
H1480 H 0.39599 0.90534 0.1589 0.0
H1481 H 0.32176 0.9632 0.13016 0.0
H1482 H 0.34766 0.95649 0.10826 0.0
H1483 H 0.36589 0.99084 0.12988 0.0
C1484 C 0.41473 0.9399 0.07865 0.0
C1485 C 0.43713 0.97427 0.07713 0.0
C1486 C 0.39551 0.92597 0.10064 0.0
C1487 C 0.39851 0.94619 0.12142 0.0
C1488 C 0.42263 0.97996 0.12047 0.0
H1489 H 0.33009 0.9672 0.26248 0.0
H1490 H 0.35233 0.96832 0.22078 0.0
C1491 C 0.44164 0.99376 0.09868 0.0
C1492 C 0.37495 0.93347 0.14331 0.0
H1493 H 0.31664 0.94571 0.17319 0.0
C1494 C 0.37807 0.91347 0.1618 0.0
C1495 C 0.35146 0.94397 0.14716 0.0
C1496 C 0.34615 0.96456 0.12772 0.0
C1497 C 0.35978 0.90551 0.18462 0.0
C1498 C 0.33766 0.91766 0.189 0.0
C1499 C 0.33344 0.93624 0.16992 0.0
C1500 C 0.32234 0.91556 0.21434 0.0
C1501 C 0.36562 0.88584 0.20456 0.0
C1502 C 0.29727 0.88547 0.22473 0.0
C1503 C 0.28399 0.88475 0.24889 0.0
C1504 C 0.29583 0.91407 0.26315 0.0
C1505 C 0.32038 0.94404 0.2523 0.0
C1506 C 0.33324 0.94478 0.2283 0.0
H1507 H 0.3855 0.88041 0.19913 0.0
H1508 H 0.37253 0.89965 0.22271 0.0
H1509 H 0.34235 0.86199 0.20777 0.0
H1510 H 0.28811 0.86258 0.21423 0.0
H1511 H 0.26533 0.86121 0.2567 0.0
H1512 H 0.50952 0.05109 0.91628 0.0
H1513 H 0.50778 0.07399 0.87467 0.0
H1514 H 0.42502 0.08418 0.89931 0.0
H1515 H 0.42608 0.06122 0.94014 0.0
H1516 H 0.45251 0.05078 0.83879 0.0
H1517 H 0.49167 0.17768 0.8725 0.0
H1518 H 0.49857 0.1487 0.8906 0.0
H1519 H 0.45858 0.14598 0.8909 0.0
C1520 C 0.4908 0.05792 0.91279 0.0
C1521 C 0.46796 0.05405 0.93185 0.0
C1522 C 0.48994 0.07123 0.88898 0.0
C1523 C 0.46661 0.08145 0.8839 0.0
C1524 C 0.44372 0.07723 0.90279 0.0
H1525 H 0.36337 0.11224 0.76654 0.0
H1526 H 0.38758 0.1042 0.80499 0.0
C1527 C 0.44436 0.06382 0.92629 0.0
C1528 C 0.46494 0.09569 0.85889 0.0
H1529 H 0.46285 0.16207 0.83262 0.0
C1530 C 0.45564 0.07543 0.83731 0.0
C1531 C 0.46884 0.12788 0.85679 0.0
C1532 C 0.48028 0.15147 0.87887 0.0
C1533 C 0.44827 0.08573 0.81429 0.0
C1534 C 0.45036 0.1171 0.81265 0.0
C1535 C 0.46125 0.13803 0.83381 0.0
C1536 C 0.43743 0.12652 0.79013 0.0
C1537 C 0.4363 0.06226 0.79216 0.0
C1538 C 0.45764 0.14297 0.76914 0.0
C1539 C 0.44377 0.14795 0.74699 0.0
C1540 C 0.40944 0.1362 0.74546 0.0
C1541 C 0.38988 0.12161 0.76709 0.0
C1542 C 0.40366 0.11685 0.7891 0.0
H1543 H 0.43888 0.04006 0.79547 0.0
H1544 H 0.40975 0.05397 0.78874 0.0
H1545 H 0.45026 0.07516 0.77484 0.0
H1546 H 0.4838 0.15065 0.76951 0.0
H1547 H 0.45943 0.1588 0.73057 0.0
H1548 H 0.04184 0.45406 0.91227 0.0
H1549 H 1.02054 0.4254 0.87178 0.0
H1550 H 0.9239 0.36535 0.90542 0.0
H1551 H 0.94581 0.39272 0.946 0.0
H1552 H 0.93726 0.32671 0.88194 0.0
H1553 H 0.96751 0.42908 0.81509 0.0
H1554 H 1.004 0.43496 0.83113 0.0
H1555 H 0.97109 0.43544 0.8488 0.0
C1556 C 1.01582 0.43547 0.91071 0.0
C1557 C 0.99531 0.4261 0.93216 0.0
C1558 C 1.00352 0.419 0.88748 0.0
C1559 C 0.97024 0.39323 0.88505 0.0
C1560 C 0.94958 0.38499 0.90644 0.0
H1561 H 0.89062 0.29922 0.73563 0.0
H1562 H 0.89842 0.32968 0.77551 0.0
C1563 C 0.96202 0.40092 0.92966 0.0
C1564 C 0.95757 0.37273 0.86127 0.0
H1565 H 0.95482 0.37677 0.79666 0.0
C1566 C 0.94085 0.33789 0.86338 0.0
C1567 C 0.96148 0.38671 0.83677 0.0
C1568 C 0.97667 0.42358 0.83281 0.0
C1569 C 0.92892 0.31699 0.84207 0.0
C1570 C 0.93474 0.33098 0.8175 0.0
C1571 C 0.95051 0.36576 0.81533 0.0
C1572 C 0.92663 0.3101 0.794 0.0
C1573 C 0.9098 0.27995 0.84631 0.0
C1574 C 0.93911 0.28833 0.79101 0.0
C1575 C 0.93402 0.27051 0.76859 0.0
C1576 C 0.91688 0.27428 0.7481 0.0
C1577 C 0.90325 0.29511 0.75121 0.0
C1578 C 0.90822 0.31296 0.7739 0.0
H1579 H 0.89696 0.27375 0.86488 0.0
H1580 H 0.89101 0.267 0.8313 0.0
H1581 H 0.92734 0.2703 0.8464 0.0
H1582 H 0.9541 0.28606 0.80567 0.0
H1583 H 0.94505 0.25489 0.7668 0.0
H1584 H 0.71763 0.62539 0.73185 0.0
H1585 H 0.69032 0.60536 0.77235 0.0
H1586 H 0.78452 0.6324 0.80678 0.0
H1587 H 0.81231 0.65247 0.76555 0.0
H1588 H 0.68628 0.55838 0.8092 0.0
H1589 H 0.75044 0.68827 0.84447 0.0
H1590 H 0.74963 0.67829 0.81145 0.0
H1591 H 0.77688 0.67329 0.83276 0.0
C1592 C 0.7325 0.62573 0.74773 0.0
C1593 C 0.76713 0.63964 0.7452 0.0
C1594 C 0.71677 0.61453 0.77104 0.0
C1595 C 0.73522 0.6175 0.79277 0.0
C1596 C 0.7697 0.62997 0.79028 0.0
H1597 H 0.68215 0.60127 0.95117 0.0
H1598 H 0.7086 0.60687 0.9106 0.0
C1599 C 0.78556 0.64099 0.76665 0.0
C1600 C 0.71835 0.61 0.81796 0.0
H1601 H 0.71323 0.64698 0.87227 0.0
C1602 C 0.69233 0.57769 0.82309 0.0
C1603 C 0.72569 0.63528 0.83592 0.0
C1604 C 0.75196 0.67082 0.83094 0.0
C1605 C 0.67404 0.56987 0.84583 0.0
C1606 C 0.68143 0.59517 0.86383 0.0
C1607 C 0.70744 0.62748 0.85861 0.0
C1608 C 0.66365 0.58879 0.88865 0.0
C1609 C 0.64738 0.53445 0.85057 0.0
C1610 C 0.62909 0.57616 0.89027 0.0
C1611 C 0.61353 0.57272 0.91386 0.0
C1612 C 0.63229 0.58225 0.9363 0.0
C1613 C 0.66668 0.59401 0.93446 0.0
C1614 C 0.68204 0.59726 0.91112 0.0
H1615 H 0.65041 0.51684 0.83822 0.0
H1616 H 0.64754 0.52738 0.87058 0.0
H1617 H 0.62276 0.53183 0.8465 0.0
H1618 H 0.61425 0.56992 0.87325 0.0
H1619 H 0.58719 0.56381 0.91431 0.0
H1620 H 0.73486 0.83702 0.43302 0.0
H1621 H 0.75532 0.82872 0.47391 0.0
H1622 H 0.77906 0.7596 0.43873 0.0
H1623 H 0.75896 0.7677 0.39863 0.0
H1624 H 0.72831 0.76734 0.49878 0.0
H1625 H 0.86171 0.81388 0.48102 0.0
H1626 H 0.83703 0.82483 0.46115 0.0
H1627 H 0.83532 0.78558 0.45719 0.0
C1628 C 0.74585 0.82128 0.43386 0.0
C1629 C 0.74642 0.80404 0.41226 0.0
C1630 C 0.75717 0.81618 0.4573 0.0
C1631 C 0.76946 0.79397 0.45945 0.0
C1632 C 0.77084 0.77765 0.43765 0.0
H1633 H 0.81345 0.69198 0.58071 0.0
H1634 H 0.80699 0.71308 0.53958 0.0
C1635 C 0.75942 0.78251 0.41454 0.0
C1636 C 0.77764 0.78485 0.48454 0.0
H1637 H 0.83788 0.77759 0.51656 0.0
C1638 C 0.75244 0.77007 0.50278 0.0
C1639 C 0.80891 0.78766 0.48972 0.0
C1640 C 0.83739 0.80412 0.47133 0.0
C1641 C 0.75735 0.75753 0.52564 0.0
C1642 C 0.78861 0.76034 0.53084 0.0
C1643 C 0.81389 0.77522 0.51265 0.0
C1644 C 0.79563 0.74915 0.55551 0.0
C1645 C 0.72856 0.74044 0.54373 0.0
C1646 C 0.79278 0.76314 0.57814 0.0
C1647 C 0.79652 0.75122 0.60145 0.0
C1648 C 0.80358 0.72512 0.60298 0.0
C1649 C 0.80828 0.71221 0.58031 0.0
C1650 C 0.80435 0.72415 0.55677 0.0
H1651 H 0.70438 0.73181 0.53408 0.0
H1652 H 0.72824 0.71878 0.55289 0.0
H1653 H 0.73096 0.75817 0.55871 0.0
H1654 H 0.78703 0.78302 0.57783 0.0
H1655 H 0.79334 0.76229 0.61842 0.0
H1656 H 0.21733 0.91291 0.4244 0.0
H1657 H 0.22254 0.93916 0.46606 0.0
H1658 H 0.3065 0.02934 0.43877 0.0
H1659 H 0.30175 1.0038 0.39819 0.0
H1660 H 0.28204 0.96626 0.49733 0.0
H1661 H 0.25135 0.06396 0.47431 0.0
H1662 H 0.23891 0.02802 0.45451 0.0
H1663 H 0.28053 0.06267 0.4528 0.0
C1664 C 0.23621 0.93859 0.42711 0.0
C1665 C 0.25884 0.9562 0.40762 0.0
C1666 C 0.23937 0.95355 0.451 0.0
C1667 C 0.26471 0.98654 0.45558 0.0
C1668 C 0.28631 1.00425 0.43579 0.0
H1669 H 0.36346 0.12779 0.57853 0.0
H1670 H 0.34276 0.1002 0.53747 0.0
C1671 C 0.28348 0.98937 0.41237 0.0
C1672 C 0.27112 1.00219 0.48126 0.0
H1673 H 0.28235 0.0717 0.51236 0.0
C1674 C 0.28148 0.98896 0.50077 0.0
C1675 C 0.2712 0.0323 0.4857 0.0
C1676 C 0.25962 0.04747 0.4658 0.0
C1677 C 0.29287 1.00542 0.52413 0.0
C1678 C 0.29318 0.03571 0.52856 0.0
C1679 C 0.28231 0.04866 0.50915 0.0
C1680 C 0.30432 0.05387 0.5533 0.0
C1681 C 0.30584 0.99081 0.54346 0.0
C1682 C 0.28897 0.03778 0.57592 0.0
C1683 C 0.30079 0.05345 0.59925 0.0
C1684 C 0.32802 0.08599 0.6008 0.0
C1685 C 0.34232 0.10293 0.57813 0.0
C1686 C 0.33058 0.08701 0.55461 0.0
H1687 H 0.31324 0.97382 0.53461 0.0
H1688 H 0.32758 1.01054 0.55371 0.0
H1689 H 0.28601 0.97622 0.5574 0.0
H1690 H 0.26805 1.01272 0.5756 0.0
H1691 H 0.28874 0.03973 0.61624 0.0
H1692 H 1.00385 0.29725 0.60472 0.0
H1693 H 0.02799 0.29935 0.56377 0.0
H1694 H 0.947 0.20172 0.54646 0.0
H1695 H 0.9221 0.19939 0.58812 0.0
H1696 H 0.05014 0.25825 0.54635 0.0
H1697 H 0.95357 0.25404 0.48183 0.0
H1698 H 0.95458 0.26318 0.51507 0.0
H1699 H 0.94009 0.22137 0.50488 0.0
C1700 C 0.99073 0.27611 0.59232 0.0
C1701 C 0.96079 0.24807 0.60002 0.0
C1702 C 1.00478 0.27742 0.56872 0.0
C1703 C 0.98952 0.25083 0.55175 0.0
C1704 C 0.95919 0.22286 0.55896 0.0
H1705 H 0.07511 0.25803 0.39899 0.0
H1706 H 0.04206 0.234 0.4377 0.0
C1707 C 0.94491 0.22153 0.58284 0.0
C1708 C 1.00676 0.25275 0.52724 0.0
H1709 H 1.00246 0.26071 0.46313 0.0
C1710 C 0.03941 0.25829 0.52816 0.0
C1711 C 0.99302 0.25277 0.50332 0.0
C1712 C 0.95848 0.24775 0.50101 0.0
C1713 C 0.05891 0.26497 0.50621 0.0
C1714 C 0.04575 0.26652 0.48246 0.0
C1715 C 1.01259 0.25941 0.48127 0.0
C1716 C 0.06729 0.2794 0.45942 0.0
C1717 C 0.09387 0.27117 0.5087 0.0
C1718 C 0.09297 0.31258 0.45879 0.0
C1719 C 0.11159 0.32623 0.43681 0.0
C1720 C 0.10517 0.30722 0.41468 0.0
C1721 C 0.08082 0.27337 0.41567 0.0
C1722 C 0.06169 0.25971 0.43774 0.0
H1723 H 0.09713 0.2601 0.52632 0.0
H1724 H 0.10062 0.26087 0.4923 0.0
H1725 H 0.11137 0.29832 0.50935 0.0
H1726 H 0.09778 0.32844 0.47507 0.0
H1727 H 0.13019 0.35233 0.43679 0.0
loop_
_geom_bond_atom_site_label_1
_geom_bond_atom_site_label_2
_geom_bond_distance
_geom_bond_site_symmetry_2
_ccdc_geom_bond_type
Tb0 N31 2.660 1_556 S
Tb0 N38 2.600 . S
Tb0 O44 2.546 . S
Tb0 O45 2.610 1_556 S
Tb0 O47 2.320 1_556 S
Tb0 O48 2.552 . S
Tb0 O49 2.413 1_556 S
Tb0 O51 2.362 1_456 S
Tb0 O52 2.421 . S
Tb0 C64 2.833 . S
C1 C4 1.432 . S
C1 C5 1.414 . S
C1 N8 1.359 . S
C2 C4 1.417 1_556 S
C2 C6 1.432 1_556 S
C2 C14 1.410 . S
C3 C5 1.444 . S
C3 C6 1.317 . S
C3 H26 0.929 . S
C4 C1 1.432 . S
C4 C2 1.417 1_554 S
C4 N12 1.360 1_554 S
C5 C1 1.414 . S
C5 C3 1.444 . S
C5 C10 1.385 . S
C6 C2 1.432 1_554 S
C6 C3 1.317 . S
C6 H18 0.930 . S
C7 C9 1.383 1_455 S
C7 C10 1.383 . S
C7 H19 0.927 1_455 S
N8 C1 1.359 . S
N8 C9 1.327 1_455 S
N8 Tb11 2.600 1_455 S
C9 C7 1.383 1_655 S
C9 N8 1.327 1_655 S
C9 H16 0.930 . S
C10 C5 1.385 . S
C10 C7 1.383 . S
C10 H29 0.930 . S
Tb11 N8 2.600 1_655 S
Tb11 N12 2.660 1_654 S
Tb11 O45 2.362 1_655 S
Tb11 O46 2.421 1_655 S
Tb11 O50 2.546 . S
Tb11 O51 2.610 . S
Tb11 O53 2.320 1_554 S
Tb11 O54 2.552 . S
Tb11 O55 2.413 1_554 S
Tb11 C75 2.833 . S
N12 C4 1.360 1_556 S
N12 Tb11 2.660 1_456 S
N12 C13 1.305 . S
C13 N12 1.305 . S
C13 C15 1.407 . S
C13 H20 0.930 . S
C14 C2 1.410 . S
C14 C15 1.345 . S
C14 H22 0.930 . S
C15 C13 1.407 . S
C15 C14 1.345 . S
C15 H17 0.930 . S
H16 C9 0.930 . S
H17 C15 0.930 . S
H18 C6 0.930 . S
H19 C7 0.927 1_655 S
H20 C13 0.930 . S
H21 C35 0.930 . S
H22 C14 0.930 . S
H23 C41 0.930 . S
H24 C32 0.930 1_455 S
H25 C39 0.931 . S
H26 C3 0.929 . S
H27 C33 0.930 . S
H28 C66 0.930 . S
H29 C10 0.930 . S
H30 C65 0.929 . S
N31 Tb0 2.660 1_554 S
N31 C32 1.305 1_455 S
N31 C36 1.354 1_454 S
C32 H24 0.930 1_655 S
C32 N31 1.305 1_655 S
C32 C35 1.407 . S
C33 H27 0.930 . S
C33 C34 1.410 . S
C33 C35 1.345 . S
C34 C33 1.410 . S
C34 C36 1.412 1_554 S
C34 C66 1.432 1_554 S
C35 H21 0.930 . S
C35 C32 1.407 . S
C35 C33 1.345 . S
C36 N31 1.354 1_656 S
C36 C34 1.412 1_556 S
C36 C40 1.442 1_655 S
H37 C42 0.930 1_655 S
N38 Tb0 2.600 . S
N38 C40 1.359 . S
N38 C41 1.327 . S
C39 H25 0.931 . S
C39 C41 1.392 . S
C39 C42 1.370 . S
C40 C36 1.442 1_455 S
C40 N38 1.359 . S
C40 C43 1.414 1_455 S
C41 H23 0.930 . S
C41 N38 1.327 . S
C41 C39 1.392 . S
C42 H37 0.930 1_455 S
C42 C39 1.370 . S
C42 C43 1.385 1_455 S
C43 C40 1.414 1_655 S
C43 C42 1.385 1_655 S
C43 C65 1.444 . S
O44 Tb0 2.546 . S
O44 C64 1.251 . S
O45 Tb0 2.610 1_554 S
O45 Tb11 2.362 1_455 S
O45 C56 1.276 1_554 S
O46 Tb11 2.421 1_455 S
O46 C63 1.262 . S
O47 Tb0 2.320 1_554 S
O47 C63 1.260 . S
O48 Tb0 2.552 . S
O48 C56 1.258 . S
O49 Tb0 2.413 1_554 S
O49 C64 1.256 1_554 S
O50 Tb11 2.546 . S
O50 C75 1.251 . S
O51 Tb0 2.362 1_654 S
O51 Tb11 2.610 . S
O51 C67 1.283 . S
O52 Tb0 2.421 . S
O52 C74 1.262 1_455 S
O53 Tb11 2.320 1_556 S
O53 C74 1.260 . S
O54 Tb11 2.552 . S
O54 C67 1.243 . S
O55 Tb11 2.413 1_556 S
O55 C75 1.256 1_556 S
C56 O45 1.276 1_556 S
C56 O48 1.258 . S
C57 C59 1.382 1_556 S
C57 C61 1.393 . S
C57 C64 1.500 . S
C58 C59 1.400 . S
C58 C60 1.384 1_554 S
C59 C57 1.382 1_554 S
C59 C58 1.400 . S
C59 H76 0.930 . S
C60 C58 1.384 1_556 S
C60 C62 1.392 . S
C60 H77 0.931 . S
C61 C57 1.393 . S
C61 C62 1.401 . S
C61 H78 0.930 . S
C62 C60 1.392 . S
C62 C61 1.401 . S
C62 H79 0.930 . S
C63 O46 1.262 . S
C63 O47 1.260 . S
C64 Tb0 2.833 . S
C64 O44 1.251 . S
C64 O49 1.256 1_556 S
C64 C57 1.500 . S
C65 H30 0.929 . S
C65 C43 1.444 . S
C65 C66 1.317 . S
C66 H28 0.930 . S
C66 C34 1.432 1_556 S
C66 C65 1.317 . S
C67 O51 1.283 . S
C67 O54 1.243 . S
C68 C69 1.382 1_554 S
C68 C72 1.393 . S
C68 C75 1.500 . S
C69 C68 1.382 1_556 S
C69 C70 1.402 . S
C69 H80 0.930 . S
C70 C69 1.402 . S
C70 C71 1.357 1_556 S
C71 C70 1.357 1_554 S
C71 C73 1.392 . S
C71 H81 0.931 . S
C72 C68 1.393 . S
C72 C73 1.401 . S
C72 H82 0.930 . S
C73 C71 1.392 . S
C73 C72 1.401 . S
C73 H83 0.930 . S
C74 O52 1.262 1_655 S
C74 O53 1.260 . S
C75 Tb11 2.833 . S
C75 O50 1.251 . S
C75 O55 1.256 1_554 S
C75 C68 1.500 . S
H76 C59 0.930 . S
H77 C60 0.931 . S
H78 C61 0.930 . S
H79 C62 0.930 . S
H80 C69 0.930 . S
H81 C71 0.931 . S
H82 C72 0.930 . S
H83 C73 0.930 . S
Tb84 N115 2.660 1_556 S
Tb84 N122 2.600 . S
Tb84 O128 2.546 . S
Tb84 O129 2.610 1_556 S
Tb84 O131 2.320 1_556 S
Tb84 O132 2.552 . S
Tb84 O133 2.413 1_556 S
Tb84 O135 2.362 1_556 S
Tb84 O136 2.421 . S
Tb84 C148 2.833 . S
C85 C88 1.432 . S
C85 C89 1.414 . S
C85 N92 1.359 . S
C86 C88 1.417 1_556 S
C86 C90 1.432 1_556 S
C86 C98 1.410 . S
C87 C89 1.444 . S
C87 C90 1.317 . S
C87 H110 0.929 . S
C88 C85 1.432 . S
C88 C86 1.417 1_554 S
C88 N96 1.360 1_554 S
C89 C85 1.414 . S
C89 C87 1.444 . S
C89 C94 1.385 . S
C90 C86 1.432 1_554 S
C90 C87 1.317 . S
C90 H102 0.930 . S
C91 C93 1.392 . S
C91 C94 1.370 . S
C91 H103 0.931 . S
N92 C85 1.359 . S
N92 C93 1.327 . S
N92 Tb95 2.600 . S
C93 C91 1.392 . S
C93 N92 1.327 . S
C93 H100 0.930 . S
C94 C89 1.385 . S
C94 C91 1.370 . S
C94 H113 0.930 . S
Tb95 N92 2.600 . S
Tb95 N96 2.660 1_554 S
Tb95 O129 2.362 . S
Tb95 O130 2.421 . S
Tb95 O134 2.546 . S
Tb95 O135 2.610 . S
Tb95 O137 2.320 1_554 S
Tb95 O138 2.552 . S
Tb95 O139 2.413 1_554 S
Tb95 C159 2.833 . S
N96 C88 1.360 1_556 S
N96 Tb95 2.660 1_556 S
N96 C97 1.305 . S
C97 N96 1.305 . S
C97 C99 1.407 . S
C97 H104 0.930 . S
C98 C86 1.410 . S
C98 C99 1.345 . S
C98 H106 0.930 . S
C99 C97 1.407 . S
C99 C98 1.345 . S
C99 H101 0.930 . S
H100 C93 0.930 . S
H101 C99 0.930 . S
H102 C90 0.930 . S
H103 C91 0.931 . S
H104 C97 0.930 . S
H105 C119 0.930 . S
H106 C98 0.930 . S
H107 C125 0.930 . S
H108 C116 0.930 . S
H109 C123 0.931 . S
H110 C87 0.929 . S
H111 C117 0.930 . S
H112 C150 0.929 . S
H113 C94 0.930 . S
H114 C149 0.929 . S
N115 Tb84 2.660 1_554 S
N115 C116 1.305 . S
N115 C120 1.354 1_554 S
C116 H108 0.930 . S
C116 N115 1.305 . S
C116 C119 1.407 . S
C117 H111 0.930 . S
C117 C118 1.410 . S
C117 C119 1.345 . S
C118 C117 1.410 . S
C118 C120 1.413 1_554 S
C118 C150 1.432 1_554 S
C119 H105 0.930 . S
C119 C116 1.407 . S
C119 C117 1.345 . S
C120 N115 1.354 1_556 S
C120 C118 1.413 1_556 S
C120 C124 1.442 . S
H121 C126 0.930 . S
N122 Tb84 2.600 . S
N122 C124 1.359 . S
N122 C125 1.327 . S
C123 H109 0.931 . S
C123 C125 1.392 . S
C123 C126 1.370 . S
C124 C120 1.442 . S
C124 N122 1.359 . S
C124 C127 1.414 . S
C125 H107 0.930 . S
C125 N122 1.327 . S
C125 C123 1.392 . S
C126 H121 0.930 . S
C126 C123 1.370 . S
C126 C127 1.385 . S
C127 C124 1.414 . S
C127 C126 1.385 . S
C127 C149 1.444 . S
O128 Tb84 2.546 . S
O128 C148 1.251 . S
O129 Tb84 2.610 1_554 S
O129 Tb95 2.362 . S
O129 C140 1.276 1_554 S
O130 Tb95 2.421 . S
O130 C147 1.262 . S
O131 Tb84 2.320 1_554 S
O131 C147 1.260 . S
O132 Tb84 2.552 . S
O132 C140 1.258 . S
O133 Tb84 2.413 1_554 S
O133 C148 1.256 1_554 S
O134 Tb95 2.546 . S
O134 C159 1.251 . S
O135 Tb84 2.362 1_554 S
O135 Tb95 2.610 . S
O135 C151 1.283 . S
O136 Tb84 2.421 . S
O136 C158 1.262 . S
O137 Tb95 2.320 1_556 S
O137 C158 1.260 . S
O138 Tb95 2.552 . S
O138 C151 1.243 . S
O139 Tb95 2.413 1_556 S
O139 C159 1.256 1_556 S
C140 O129 1.276 1_556 S
C140 O132 1.258 . S
C141 C143 1.382 1_556 S
C141 C145 1.393 . S
C141 C148 1.500 . S
C142 C143 1.400 . S
C142 C144 1.384 1_554 S
C143 C141 1.382 1_554 S
C143 C142 1.400 . S
C143 H160 0.930 . S
C144 C142 1.384 1_556 S
C144 C146 1.392 . S
C144 H161 0.931 . S
C145 C141 1.393 . S
C145 C146 1.401 . S
C145 H162 0.930 . S
C146 C144 1.392 . S
C146 C145 1.401 . S
C146 H163 0.930 . S
C147 O130 1.262 . S
C147 O131 1.260 . S
C148 Tb84 2.833 . S
C148 O128 1.251 . S
C148 O133 1.256 1_556 S
C148 C141 1.500 . S
C149 H114 0.929 . S
C149 C127 1.444 . S
C149 C150 1.317 . S
C150 H112 0.929 . S
C150 C118 1.432 1_556 S
C150 C149 1.317 . S
C151 O135 1.283 . S
C151 O138 1.243 . S
C152 C153 1.382 1_554 S
C152 C156 1.393 . S
C152 C159 1.500 . S
C153 C152 1.382 1_556 S
C153 C154 1.402 . S
C153 H164 0.930 . S
C154 C153 1.402 . S
C154 C155 1.357 1_556 S
C155 C154 1.357 1_554 S
C155 C157 1.392 . S
C155 H165 0.931 . S
C156 C152 1.393 . S
C156 C157 1.401 . S
C156 H166 0.930 . S
C157 C155 1.392 . S
C157 C156 1.401 . S
C157 H167 0.930 . S
C158 O136 1.262 . S
C158 O137 1.260 . S
C159 Tb95 2.833 . S
C159 O134 1.251 . S
C159 O139 1.256 1_554 S
C159 C152 1.500 . S
H160 C143 0.930 . S
H161 C144 0.931 . S
H162 C145 0.930 . S
H163 C146 0.930 . S
H164 C153 0.930 . S
H165 C155 0.931 . S
H166 C156 0.930 . S
H167 C157 0.930 . S
Tb168 N199 2.660 1_566 S
Tb168 N206 2.601 1_565 S
Tb168 O212 2.546 . S
Tb168 O213 2.610 1_556 S
Tb168 O215 2.320 1_556 S
Tb168 O216 2.552 . S
Tb168 O217 2.413 1_556 S
Tb168 O219 2.362 1_566 S
Tb168 O220 2.421 1_565 S
Tb168 C232 2.833 . S
C169 C172 1.428 1_545 S
C169 C173 1.419 1_545 S
C169 N176 1.357 . S
C170 C172 1.417 1_556 S
C170 C174 1.432 1_556 S
C170 C182 1.410 . S
C171 C173 1.444 . S
C171 C174 1.317 . S
C171 H194 0.929 . S
C172 C169 1.428 1_565 S
C172 C170 1.417 1_554 S
C172 N180 1.360 1_564 S
C173 C169 1.419 1_565 S
C173 C171 1.444 . S
C173 C178 1.381 1_565 S
C174 C170 1.432 1_554 S
C174 C171 1.317 . S
C174 H186 0.930 . S
C175 C177 1.392 . S
C175 C178 1.368 . S
C175 H187 0.931 . S
N176 C169 1.357 . S
N176 C177 1.327 . S
N176 Tb179 2.600 . S
C177 C175 1.392 . S
C177 N176 1.327 . S
C177 H184 0.930 . S
C178 C173 1.381 1_545 S
C178 C175 1.368 . S
C178 H197 0.935 1_545 S
Tb179 N176 2.600 . S
Tb179 N180 2.660 1_554 S
Tb179 O213 2.362 1_545 S
Tb179 O214 2.421 . S
Tb179 O218 2.546 . S
Tb179 O219 2.610 . S
Tb179 O221 2.320 1_554 S
Tb179 O222 2.552 . S
Tb179 O223 2.413 1_554 S
Tb179 C243 2.833 . S
N180 C172 1.360 1_546 S
N180 Tb179 2.660 1_556 S
N180 C181 1.305 1_545 S
C181 N180 1.305 1_565 S
C181 C183 1.407 . S
C181 H188 0.930 1_565 S
C182 C170 1.410 . S
C182 C183 1.345 . S
C182 H190 0.930 . S
C183 C181 1.407 . S
C183 C182 1.345 . S
C183 H185 0.930 . S
H184 C177 0.930 . S
H185 C183 0.930 . S
H186 C174 0.930 . S
H187 C175 0.931 . S
H188 C181 0.930 1_545 S
H189 C203 0.930 . S
H190 C182 0.930 . S
H191 C209 0.930 . S
H192 C200 0.930 . S
H193 C207 0.935 . S
H194 C171 0.929 . S
H195 C201 0.930 . S
H196 C234 0.930 . S
H197 C178 0.935 1_565 S
H198 C233 0.929 . S
N199 Tb168 2.660 1_544 S
N199 C200 1.305 . S
N199 C204 1.354 1_554 S
C200 H192 0.930 . S
C200 N199 1.305 . S
C200 C203 1.407 . S
C201 H195 0.930 . S
C201 C202 1.410 . S
C201 C203 1.345 . S
C202 C201 1.410 . S
C202 C204 1.412 1_554 S
C202 C234 1.432 1_554 S
C203 H189 0.930 . S
C203 C200 1.407 . S
C203 C201 1.345 . S
C204 N199 1.354 1_556 S
C204 C202 1.412 1_556 S
C204 C208 1.442 . S
H205 C210 0.930 . S
N206 Tb168 2.601 1_545 S
N206 C208 1.358 . S
N206 C209 1.326 1_545 S
C207 H193 0.935 . S
C207 C209 1.387 . S
C207 C210 1.371 1_565 S
C208 C204 1.442 . S
C208 N206 1.358 . S
C208 C211 1.414 . S
C209 H191 0.930 . S
C209 N206 1.326 1_565 S
C209 C207 1.387 . S
C210 H205 0.930 . S
C210 C207 1.371 1_545 S
C210 C211 1.385 . S
C211 C208 1.414 . S
C211 C210 1.385 . S
C211 C233 1.444 . S
O212 Tb168 2.546 . S
O212 C232 1.251 . S
O213 Tb168 2.610 1_554 S
O213 Tb179 2.362 1_565 S
O213 C224 1.276 1_554 S
O214 Tb179 2.421 . S
O214 C231 1.262 1_545 S
O215 Tb168 2.320 1_554 S
O215 C231 1.260 . S
O216 Tb168 2.552 . S
O216 C224 1.258 . S
O217 Tb168 2.413 1_554 S
O217 C232 1.256 1_554 S
O218 Tb179 2.546 . S
O218 C243 1.251 . S
O219 Tb168 2.362 1_544 S
O219 Tb179 2.610 . S
O219 C235 1.283 . S
O220 Tb168 2.421 1_545 S
O220 C242 1.262 . S
O221 Tb179 2.320 1_556 S
O221 C242 1.260 . S
O222 Tb179 2.552 . S
O222 C235 1.243 . S
O223 Tb179 2.413 1_556 S
O223 C243 1.256 1_556 S
C224 O213 1.276 1_556 S
C224 O216 1.258 . S
C225 C227 1.382 1_556 S
C225 C229 1.393 . S
C225 C232 1.500 . S
C226 C227 1.400 . S
C226 C228 1.384 1_554 S
C227 C225 1.382 1_554 S
C227 C226 1.400 . S
C227 H244 0.930 . S
C228 C226 1.384 1_556 S
C228 C230 1.392 . S
C228 H245 0.931 . S
C229 C225 1.393 . S
C229 C230 1.401 . S
C229 H246 0.930 . S
C230 C228 1.392 . S
C230 C229 1.401 . S
C230 H247 0.930 . S
C231 O214 1.262 1_565 S
C231 O215 1.260 . S
C232 Tb168 2.833 . S
C232 O212 1.251 . S
C232 O217 1.256 1_556 S
C232 C225 1.500 . S
C233 H198 0.929 . S
C233 C211 1.444 . S
C233 C234 1.317 . S
C234 H196 0.930 . S
C234 C202 1.432 1_556 S
C234 C233 1.317 . S
C235 O219 1.283 . S
C235 O222 1.243 . S
C236 C237 1.382 1_554 S
C236 C240 1.393 . S
C236 C243 1.500 . S
C237 C236 1.382 1_556 S
C237 C238 1.402 . S
C237 H248 0.930 . S
C238 C237 1.402 . S
C238 C239 1.357 1_556 S
C239 C238 1.357 1_554 S
C239 C241 1.392 . S
C239 H249 0.931 . S
C240 C236 1.393 . S
C240 C241 1.401 . S
C240 H250 0.930 . S
C241 C239 1.392 . S
C241 C240 1.401 . S
C241 H251 0.930 . S
C242 O220 1.262 . S
C242 O221 1.260 . S
C243 Tb179 2.833 . S
C243 O218 1.251 . S
C243 O223 1.256 1_554 S
C243 C236 1.500 . S
H244 C227 0.930 . S
H245 C228 0.931 . S
H246 C229 0.930 . S
H247 C230 0.930 . S
H248 C237 0.930 . S
H249 C239 0.931 . S
H250 C240 0.930 . S
H251 C241 0.930 . S
Tb252 N283 2.660 . S
Tb252 N290 2.600 . S
Tb252 O296 2.546 . S
Tb252 O297 2.610 . S
Tb252 O299 2.320 . S
Tb252 O300 2.552 . S
Tb252 O301 2.413 . S
Tb252 O303 2.362 . S
Tb252 O304 2.421 . S
Tb252 C316 2.833 . S
C253 C256 1.432 . S
C253 C257 1.414 . S
C253 N260 1.359 . S
C254 C256 1.417 . S
C254 C258 1.432 . S
C254 C266 1.410 . S
C255 C257 1.444 . S
C255 C258 1.317 . S
C255 H278 0.929 . S
C256 C253 1.432 . S
C256 C254 1.417 . S
C256 N264 1.360 . S
C257 C253 1.414 . S
C257 C255 1.444 . S
C257 C262 1.385 . S
C258 C254 1.432 . S
C258 C255 1.317 . S
C258 H270 0.930 . S
C259 C261 1.392 . S
C259 C262 1.370 . S
C259 H271 0.931 . S
N260 C253 1.359 . S
N260 C261 1.327 . S
N260 Tb263 2.600 . S
C261 C259 1.392 . S
C261 N260 1.327 . S
C261 H268 0.930 . S
C262 C257 1.385 . S
C262 C259 1.370 . S
C262 H281 0.930 . S
Tb263 N260 2.600 . S
Tb263 N264 2.660 . S
Tb263 O297 2.362 . S
Tb263 O298 2.421 . S
Tb263 O302 2.546 . S
Tb263 O303 2.610 . S
Tb263 O305 2.320 . S
Tb263 O306 2.552 . S
Tb263 O307 2.413 . S
Tb263 C327 2.833 . S
N264 C256 1.360 . S
N264 Tb263 2.660 . S
N264 C265 1.305 . S
C265 N264 1.305 . S
C265 C267 1.407 . S
C265 H272 0.930 . S
C266 C254 1.410 . S
C266 C267 1.345 . S
C266 H274 0.930 . S
C267 C265 1.407 . S
C267 C266 1.345 . S
C267 H269 0.930 . S
H268 C261 0.930 . S
H269 C267 0.930 . S
H270 C258 0.930 . S
H271 C259 0.931 . S
H272 C265 0.930 . S
H273 C287 0.930 . S
H274 C266 0.930 . S
H275 C293 0.930 . S
H276 C284 0.930 . S
H277 C291 0.931 . S
H278 C255 0.929 . S
H279 C285 0.930 . S
H280 C318 0.930 . S
H281 C262 0.930 . S
H282 C317 0.929 . S
N283 Tb252 2.660 . S
N283 C284 1.305 . S
N283 C288 1.360 . S
C284 H276 0.930 . S
C284 N283 1.305 . S
C284 C287 1.407 . S
C285 H279 0.930 . S
C285 C286 1.410 . S
C285 C287 1.345 . S
C286 C285 1.410 . S
C286 C288 1.417 . S
C286 C318 1.432 . S
C287 H273 0.930 . S
C287 C284 1.407 . S
C287 C285 1.345 . S
C288 N283 1.360 . S
C288 C286 1.417 . S
C288 C292 1.432 . S
H289 C294 0.930 . S
N290 Tb252 2.600 . S
N290 C292 1.359 . S
N290 C293 1.327 . S
C291 H277 0.931 . S
C291 C293 1.392 . S
C291 C294 1.370 . S
C292 C288 1.432 . S
C292 N290 1.359 . S
C292 C295 1.414 . S
C293 H275 0.930 . S
C293 N290 1.327 . S
C293 C291 1.392 . S
C294 H289 0.930 . S
C294 C291 1.370 . S
C294 C295 1.385 . S
C295 C292 1.414 . S
C295 C294 1.385 . S
C295 C317 1.444 . S
O296 Tb252 2.546 . S
O296 C316 1.251 . S
O297 Tb252 2.610 . S
O297 Tb263 2.362 . S
O297 C308 1.283 . S
O298 Tb263 2.421 . S
O298 C315 1.262 . S
O299 Tb252 2.320 . S
O299 C315 1.260 . S
O300 Tb252 2.552 . S
O300 C308 1.243 . S
O301 Tb252 2.413 . S
O301 C316 1.256 . S
O302 Tb263 2.546 . S
O302 C327 1.251 . S
O303 Tb252 2.362 . S
O303 Tb263 2.610 . S
O303 C319 1.283 . S
O304 Tb252 2.421 . S
O304 C326 1.262 . S
O305 Tb263 2.320 . S
O305 C326 1.260 . S
O306 Tb263 2.552 . S
O306 C319 1.243 . S
O307 Tb263 2.413 . S
O307 C327 1.256 . S
C308 O297 1.283 . S
C308 O300 1.243 . S
C309 C311 1.382 . S
C309 C313 1.393 . S
C309 C316 1.500 . S
C310 C311 1.400 . S
C310 C312 1.384 1_565 S
C311 C309 1.382 . S
C311 C310 1.400 . S
C311 H328 0.930 . S
C312 C310 1.384 1_545 S
C312 C314 1.392 1_545 S
C312 H329 0.931 . S
C313 C309 1.393 . S
C313 C314 1.401 . S
C313 H330 0.930 . S
C314 C312 1.392 1_565 S
C314 C313 1.401 . S
C314 H331 0.930 1_565 S
C315 O298 1.262 . S
C315 O299 1.260 . S
C316 Tb252 2.833 . S
C316 O296 1.251 . S
C316 O301 1.256 . S
C316 C309 1.500 . S
C317 H282 0.929 . S
C317 C295 1.444 . S
C317 C318 1.317 . S
C318 H280 0.930 . S
C318 C286 1.432 . S
C318 C317 1.317 . S
C319 O303 1.283 . S
C319 O306 1.243 . S
C320 C321 1.382 . S
C320 C324 1.393 . S
C320 C327 1.500 . S
C321 C320 1.382 . S
C321 C322 1.400 . S
C321 H332 0.930 . S
C322 C321 1.400 . S
C322 C323 1.384 . S
C323 C322 1.384 . S
C323 C325 1.392 . S
C323 H333 0.931 . S
C324 C320 1.393 . S
C324 C325 1.401 . S
C324 H334 0.930 . S
C325 C323 1.392 . S
C325 C324 1.401 . S
C325 H335 0.930 . S
C326 O304 1.262 . S
C326 O305 1.260 . S
C327 Tb263 2.833 . S
C327 O302 1.251 . S
C327 O307 1.256 . S
C327 C320 1.500 . S
H328 C311 0.930 . S
H329 C312 0.931 . S
H330 C313 0.930 . S
H331 C314 0.930 1_545 S
H332 C321 0.930 . S
H333 C323 0.931 . S
H334 C324 0.930 . S
H335 C325 0.930 . S
Tb336 N367 2.660 . S
Tb336 N374 2.600 . S
Tb336 O380 2.546 . S
Tb336 O381 2.610 . S
Tb336 O383 2.320 . S
Tb336 O384 2.552 . S
Tb336 O385 2.413 . S
Tb336 O387 2.362 . S
Tb336 O388 2.421 . S
Tb336 C400 2.833 . S
C337 C340 1.432 . S
C337 C341 1.414 . S
C337 N344 1.359 . S
C338 C340 1.417 1_545 S
C338 C342 1.432 . S
C338 C350 1.410 . S
C339 C341 1.444 1_545 S
C339 C342 1.317 . S
C339 H362 0.929 . S
C340 C337 1.432 . S
C340 C338 1.417 1_565 S
C340 N348 1.360 . S
C341 C337 1.414 . S
C341 C339 1.444 1_565 S
C341 C346 1.385 . S
C342 C338 1.432 . S
C342 C339 1.317 . S
C342 H354 0.930 . S
C343 C345 1.392 . S
C343 C346 1.370 . S
C343 H355 0.931 . S
N344 C337 1.359 . S
N344 C345 1.327 . S
N344 Tb347 2.600 . S
C345 C343 1.392 . S
C345 N344 1.327 . S
C345 H352 0.930 . S
C346 C341 1.385 . S
C346 C343 1.370 . S
C346 H365 0.930 1_565 S
Tb347 N344 2.600 . S
Tb347 N348 2.660 . S
Tb347 O381 2.362 . S
Tb347 O382 2.421 . S
Tb347 O386 2.546 . S
Tb347 O387 2.610 . S
Tb347 O389 2.320 . S
Tb347 O390 2.552 . S
Tb347 O391 2.413 . S
Tb347 C411 2.833 . S
N348 C340 1.360 . S
N348 Tb347 2.660 . S
N348 C349 1.305 . S
C349 N348 1.305 . S
C349 C351 1.407 . S
C349 H356 0.930 . S
C350 C338 1.410 . S
C350 C351 1.345 1_545 S
C350 H358 0.930 . S
C351 C349 1.407 . S
C351 C350 1.345 1_565 S
C351 H353 0.930 . S
H352 C345 0.930 . S
H353 C351 0.930 . S
H354 C342 0.930 . S
H355 C343 0.931 . S
H356 C349 0.930 . S
H357 C371 0.930 . S
H358 C350 0.930 . S
H359 C377 0.930 . S
H360 C368 0.930 . S
H361 C375 0.931 . S
H362 C339 0.929 . S
H363 C369 0.930 . S
H364 C402 0.930 . S
H365 C346 0.930 1_545 S
H366 C401 0.929 . S
N367 Tb336 2.660 . S
N367 C368 1.305 . S
N367 C372 1.360 . S
C368 H360 0.930 . S
C368 N367 1.305 . S
C368 C371 1.407 . S
C369 H363 0.930 . S
C369 C370 1.410 . S
C369 C371 1.345 . S
C370 C369 1.410 . S
C370 C372 1.417 . S
C370 C402 1.432 . S
C371 H357 0.930 . S
C371 C368 1.407 . S
C371 C369 1.345 . S
C372 N367 1.360 . S
C372 C370 1.417 . S
C372 C376 1.432 . S
H373 C378 0.930 . S
N374 Tb336 2.600 . S
N374 C376 1.359 . S
N374 C377 1.327 . S
C375 H361 0.931 . S
C375 C377 1.392 . S
C375 C378 1.370 . S
C376 C372 1.432 . S
C376 N374 1.359 . S
C376 C379 1.414 . S
C377 H359 0.930 . S
C377 N374 1.327 . S
C377 C375 1.392 . S
C378 H373 0.930 . S
C378 C375 1.370 . S
C378 C379 1.385 . S
C379 C376 1.414 . S
C379 C378 1.385 . S
C379 C401 1.444 . S
O380 Tb336 2.546 . S
O380 C400 1.251 . S
O381 Tb336 2.610 . S
O381 Tb347 2.362 . S
O381 C392 1.283 . S
O382 Tb347 2.421 . S
O382 C399 1.262 . S
O383 Tb336 2.320 . S
O383 C399 1.260 . S
O384 Tb336 2.552 . S
O384 C392 1.243 . S
O385 Tb336 2.413 . S
O385 C400 1.256 . S
O386 Tb347 2.546 . S
O386 C411 1.251 . S
O387 Tb336 2.362 . S
O387 Tb347 2.610 . S
O387 C403 1.283 . S
O388 Tb336 2.421 . S
O388 C410 1.262 . S
O389 Tb347 2.320 . S
O389 C410 1.260 . S
O390 Tb347 2.552 . S
O390 C403 1.243 . S
O391 Tb347 2.413 . S
O391 C411 1.256 . S
C392 O381 1.283 . S
C392 O384 1.243 . S
C393 C395 1.382 . S
C393 C397 1.393 . S
C393 C400 1.500 . S
C394 C395 1.400 . S
C394 C396 1.384 . S
C395 C393 1.382 . S
C395 C394 1.400 . S
C395 H412 0.930 . S
C396 C394 1.384 . S
C396 C398 1.392 . S
C396 H413 0.931 1_455 S
C397 C393 1.393 . S
C397 C398 1.401 . S
C397 H414 0.930 . S
C398 C396 1.392 . S
C398 C397 1.401 . S
C398 H415 0.930 . S
C399 O382 1.262 . S
C399 O383 1.260 . S
C400 Tb336 2.833 . S
C400 O380 1.251 . S
C400 O385 1.256 . S
C400 C393 1.500 . S
C401 H366 0.929 . S
C401 C379 1.444 . S
C401 C402 1.317 . S
C402 H364 0.930 . S
C402 C370 1.432 . S
C402 C401 1.317 . S
C403 O387 1.283 . S
C403 O390 1.243 . S
C404 C405 1.382 . S
C404 C408 1.393 . S
C404 C411 1.500 . S
C405 C404 1.382 . S
C405 C406 1.400 . S
C405 H416 0.930 . S
C406 C405 1.400 . S
C406 C407 1.384 . S
C407 C406 1.384 . S
C407 C409 1.392 . S
C407 H417 0.931 . S
C408 C404 1.393 . S
C408 C409 1.401 . S
C408 H418 0.930 . S
C409 C407 1.392 . S
C409 C408 1.401 . S
C409 H419 0.930 . S
C410 O388 1.262 . S
C410 O389 1.260 . S
C411 Tb347 2.833 . S
C411 O386 1.251 . S
C411 O391 1.256 . S
C411 C404 1.500 . S
H412 C395 0.930 . S
H413 C396 0.931 1_655 S
H414 C397 0.930 . S
H415 C398 0.930 . S
H416 C405 0.930 . S
H417 C407 0.931 . S
H418 C408 0.930 . S
H419 C409 0.930 . S
Tb420 N451 2.660 . S
Tb420 N458 2.600 . S
Tb420 O464 2.546 . S
Tb420 O465 2.610 . S
Tb420 O467 2.320 . S
Tb420 O468 2.552 . S
Tb420 O469 2.413 . S
Tb420 O471 2.362 . S
Tb420 O472 2.421 . S
Tb420 C484 2.833 . S
C421 C424 1.432 . S
C421 C425 1.414 . S
C421 N428 1.359 . S
C422 C424 1.417 . S
C422 C426 1.432 1_455 S
C422 C434 1.410 . S
C423 C425 1.444 1_655 S
C423 C426 1.317 . S
C423 H446 0.929 . S
C424 C421 1.432 . S
C424 C422 1.417 . S
C424 N432 1.360 . S
C425 C421 1.414 . S
C425 C423 1.444 1_455 S
C425 C430 1.385 . S
C426 C422 1.432 1_655 S
C426 C423 1.317 . S
C426 H438 0.930 . S
C427 C429 1.392 . S
C427 C430 1.370 . S
C427 H439 0.931 . S
N428 C421 1.359 . S
N428 C429 1.327 . S
N428 Tb431 2.600 . S
C429 C427 1.392 . S
C429 N428 1.327 . S
C429 H436 0.930 . S
C430 C425 1.385 . S
C430 C427 1.370 . S
C430 H449 0.930 . S
Tb431 N428 2.600 . S
Tb431 N432 2.660 . S
Tb431 O465 2.362 . S
Tb431 O466 2.421 . S
Tb431 O470 2.546 . S
Tb431 O471 2.610 . S
Tb431 O473 2.320 . S
Tb431 O474 2.552 . S
Tb431 O475 2.413 . S
Tb431 C495 2.833 . S
N432 C424 1.360 . S
N432 Tb431 2.660 . S
N432 C433 1.305 . S
C433 N432 1.305 . S
C433 C435 1.407 . S
C433 H440 0.930 . S
C434 C422 1.410 . S
C434 C435 1.345 . S
C434 H442 0.930 1_455 S
C435 C433 1.407 . S
C435 C434 1.345 . S
C435 H437 0.930 . S
H436 C429 0.930 . S
H437 C435 0.930 . S
H438 C426 0.930 . S
H439 C427 0.931 . S
H440 C433 0.930 . S
H441 C455 0.930 . S
H442 C434 0.930 1_655 S
H443 C461 0.930 . S
H444 C452 0.930 . S
H445 C459 0.931 . S
H446 C423 0.929 . S
H447 C453 0.930 . S
H448 C486 0.930 . S
H449 C430 0.930 . S
H450 C485 0.929 . S
N451 Tb420 2.660 . S
N451 C452 1.305 . S
N451 C456 1.360 . S
C452 H444 0.930 . S
C452 N451 1.305 . S
C452 C455 1.407 . S
C453 H447 0.930 . S
C453 C454 1.410 . S
C453 C455 1.345 . S
C454 C453 1.410 . S
C454 C456 1.417 . S
C454 C486 1.432 . S
C455 H441 0.930 . S
C455 C452 1.407 . S
C455 C453 1.345 . S
C456 N451 1.360 . S
C456 C454 1.417 . S
C456 C460 1.432 . S
H457 C462 0.930 . S
N458 Tb420 2.600 . S
N458 C460 1.359 . S
N458 C461 1.327 . S
C459 H445 0.931 . S
C459 C461 1.392 . S
C459 C462 1.370 . S
C460 C456 1.432 . S
C460 N458 1.359 . S
C460 C463 1.414 . S
C461 H443 0.930 . S
C461 N458 1.327 . S
C461 C459 1.392 . S
C462 H457 0.930 . S
C462 C459 1.370 . S
C462 C463 1.385 . S
C463 C460 1.414 . S
C463 C462 1.385 . S
C463 C485 1.444 . S
O464 Tb420 2.546 . S
O464 C484 1.251 . S
O465 Tb420 2.610 . S
O465 Tb431 2.362 . S
O465 C476 1.283 . S
O466 Tb431 2.421 . S
O466 C483 1.262 . S
O467 Tb420 2.320 . S
O467 C483 1.260 . S
O468 Tb420 2.552 . S
O468 C476 1.243 . S
O469 Tb420 2.413 . S
O469 C484 1.256 . S
O470 Tb431 2.546 . S
O470 C495 1.251 . S
O471 Tb420 2.362 . S
O471 Tb431 2.610 . S
O471 C487 1.283 . S
O472 Tb420 2.421 . S
O472 C494 1.262 . S
O473 Tb431 2.320 . S
O473 C494 1.260 . S
O474 Tb431 2.552 . S
O474 C487 1.243 . S
O475 Tb431 2.413 . S
O475 C495 1.256 . S
C476 O465 1.283 . S
C476 O468 1.243 . S
C477 C479 1.382 . S
C477 C481 1.393 . S
C477 C484 1.500 . S
C478 C479 1.400 . S
C478 C480 1.384 . S
C479 C477 1.382 . S
C479 C478 1.400 . S
C479 H496 0.930 . S
C480 C478 1.384 . S
C480 C482 1.392 . S
C480 H497 0.931 . S
C481 C477 1.393 . S
C481 C482 1.401 . S
C481 H498 0.930 . S
C482 C480 1.392 . S
C482 C481 1.401 . S
C482 H499 0.930 . S
C483 O466 1.262 . S
C483 O467 1.260 . S
C484 Tb420 2.833 . S
C484 O464 1.251 . S
C484 O469 1.256 . S
C484 C477 1.500 . S
C485 H450 0.929 . S
C485 C463 1.444 . S
C485 C486 1.317 . S
C486 H448 0.930 . S
C486 C454 1.432 . S
C486 C485 1.317 . S
C487 O471 1.283 . S
C487 O474 1.243 . S
C488 C489 1.382 . S
C488 C492 1.393 . S
C488 C495 1.500 . S
C489 C488 1.382 . S
C489 C490 1.400 . S
C489 H500 0.930 . S
C490 C489 1.400 . S
C490 C491 1.384 . S
C491 C490 1.384 . S
C491 C493 1.392 . S
C491 H501 0.931 . S
C492 C488 1.393 . S
C492 C493 1.401 . S
C492 H502 0.930 . S
C493 C491 1.392 . S
C493 C492 1.401 . S
C493 H503 0.930 . S
C494 O472 1.262 . S
C494 O473 1.260 . S
C495 Tb431 2.833 . S
C495 O470 1.251 . S
C495 O475 1.256 . S
C495 C488 1.500 . S
H496 C479 0.930 . S
H497 C480 0.931 . S
H498 C481 0.930 . S
H499 C482 0.930 . S
H500 C489 0.930 . S
H501 C491 0.931 . S
H502 C492 0.930 . S
H503 C493 0.930 . S
Tb504 N535 2.660 . S
Tb504 N542 2.600 . S
Tb504 O548 2.546 . S
Tb504 O549 2.610 . S
Tb504 O551 2.320 . S
Tb504 O552 2.552 . S
Tb504 O553 2.413 . S
Tb504 O555 2.362 . S
Tb504 O556 2.421 . S
Tb504 C568 2.833 . S
C505 C508 1.432 . S
C505 C509 1.414 . S
C505 N512 1.359 . S
C506 C508 1.417 . S
C506 C510 1.432 . S
C506 C518 1.410 . S
C507 C509 1.444 . S
C507 C510 1.317 . S
C507 H530 0.929 1_545 S
C508 C505 1.432 . S
C508 C506 1.417 . S
C508 N516 1.360 . S
C509 C505 1.414 . S
C509 C507 1.444 . S
C509 C514 1.385 . S
C510 C506 1.432 . S
C510 C507 1.317 . S
C510 H522 0.930 . S
C511 C513 1.392 . S
C511 C514 1.370 . S
C511 H523 0.931 . S
N512 C505 1.359 . S
N512 C513 1.327 . S
N512 Tb515 2.600 . S
C513 C511 1.392 . S
C513 N512 1.327 . S
C513 H520 0.930 . S
C514 C509 1.385 . S
C514 C511 1.370 . S
C514 H533 0.930 . S
Tb515 N512 2.600 . S
Tb515 N516 2.660 . S
Tb515 O549 2.362 . S
Tb515 O550 2.421 . S
Tb515 O554 2.546 . S
Tb515 O555 2.610 . S
Tb515 O557 2.320 . S
Tb515 O558 2.552 . S
Tb515 O559 2.413 . S
Tb515 C579 2.833 . S
N516 C508 1.360 . S
N516 Tb515 2.660 . S
N516 C517 1.305 . S
C517 N516 1.305 . S
C517 C519 1.407 . S
C517 H524 0.930 . S
C518 C506 1.410 . S
C518 C519 1.345 . S
C518 H526 0.930 . S
C519 C517 1.407 . S
C519 C518 1.345 . S
C519 H521 0.930 . S
H520 C513 0.930 . S
H521 C519 0.930 . S
H522 C510 0.930 . S
H523 C511 0.931 . S
H524 C517 0.930 . S
H525 C539 0.930 . S
H526 C518 0.930 . S
H527 C545 0.930 . S
H528 C536 0.930 . S
H529 C543 0.931 . S
H530 C507 0.929 1_565 S
H531 C537 0.930 . S
H532 C570 0.930 . S
H533 C514 0.930 . S
H534 C569 0.929 . S
N535 Tb504 2.660 . S
N535 C536 1.305 . S
N535 C540 1.360 . S
C536 H528 0.930 . S
C536 N535 1.305 . S
C536 C539 1.407 . S
C537 H531 0.930 . S
C537 C538 1.410 . S
C537 C539 1.345 . S
C538 C537 1.410 . S
C538 C540 1.417 . S
C538 C570 1.432 . S
C539 H525 0.930 . S
C539 C536 1.407 . S
C539 C537 1.345 . S
C540 N535 1.360 . S
C540 C538 1.417 . S
C540 C544 1.432 . S
H541 C546 0.930 . S
N542 Tb504 2.600 . S
N542 C544 1.359 . S
N542 C545 1.327 . S
C543 H529 0.931 . S
C543 C545 1.392 . S
C543 C546 1.370 . S
C544 C540 1.432 . S
C544 N542 1.359 . S
C544 C547 1.414 . S
C545 H527 0.930 . S
C545 N542 1.327 . S
C545 C543 1.392 . S
C546 H541 0.930 . S
C546 C543 1.370 . S
C546 C547 1.385 . S
C547 C544 1.414 . S
C547 C546 1.385 . S
C547 C569 1.444 . S
O548 Tb504 2.546 . S
O548 C568 1.251 . S
O549 Tb504 2.610 . S
O549 Tb515 2.362 . S
O549 C560 1.283 . S
O550 Tb515 2.421 . S
O550 C567 1.262 . S
O551 Tb504 2.320 . S
O551 C567 1.260 . S
O552 Tb504 2.552 . S
O552 C560 1.243 . S
O553 Tb504 2.413 . S
O553 C568 1.256 . S
O554 Tb515 2.546 . S
O554 C579 1.251 . S
O555 Tb504 2.362 . S
O555 Tb515 2.610 . S
O555 C571 1.283 . S
O556 Tb504 2.421 . S
O556 C578 1.262 . S
O557 Tb515 2.320 . S
O557 C578 1.260 . S
O558 Tb515 2.552 . S
O558 C571 1.243 . S
O559 Tb515 2.413 . S
O559 C579 1.256 . S
C560 O549 1.283 . S
C560 O552 1.243 . S
C561 C563 1.382 . S
C561 C565 1.393 . S
C561 C568 1.500 . S
C562 C563 1.400 . S
C562 C564 1.384 . S
C563 C561 1.382 . S
C563 C562 1.400 . S
C563 H580 0.930 . S
C564 C562 1.384 . S
C564 C566 1.392 . S
C564 H581 0.931 . S
C565 C561 1.393 . S
C565 C566 1.401 . S
C565 H582 0.930 . S
C566 C564 1.392 . S
C566 C565 1.401 . S
C566 H583 0.930 . S
C567 O550 1.262 . S
C567 O551 1.260 . S
C568 Tb504 2.833 . S
C568 O548 1.251 . S
C568 O553 1.256 . S
C568 C561 1.500 . S
C569 H534 0.929 . S
C569 C547 1.444 . S
C569 C570 1.317 . S
C570 H532 0.930 . S
C570 C538 1.432 . S
C570 C569 1.317 . S
C571 O555 1.283 . S
C571 O558 1.243 . S
C572 C573 1.382 1_545 S
C572 C576 1.393 1_545 S
C572 C579 1.500 . S
C573 C572 1.382 1_565 S
C573 C574 1.400 . S
C573 H584 0.930 1_565 S
C574 C573 1.400 . S
C574 C575 1.384 . S
C575 C574 1.384 . S
C575 C577 1.392 . S
C575 H585 0.931 . S
C576 C572 1.393 1_565 S
C576 C577 1.401 . S
C576 H586 0.930 . S
C577 C575 1.392 . S
C577 C576 1.401 . S
C577 H587 0.930 . S
C578 O556 1.262 . S
C578 O557 1.260 . S
C579 Tb515 2.833 . S
C579 O554 1.251 . S
C579 O559 1.256 . S
C579 C572 1.500 . S
H580 C563 0.930 . S
H581 C564 0.931 . S
H582 C565 0.930 . S
H583 C566 0.930 . S
H584 C573 0.930 1_545 S
H585 C575 0.931 . S
H586 C576 0.930 . S
H587 C577 0.930 . S
Tb588 N619 2.660 . S
Tb588 N626 2.600 . S
Tb588 O632 2.546 . S
Tb588 O633 2.610 . S
Tb588 O635 2.320 . S
Tb588 O636 2.552 . S
Tb588 O637 2.413 . S
Tb588 O639 2.362 . S
Tb588 O640 2.421 . S
Tb588 C652 2.833 . S
C589 C592 1.432 . S
C589 C593 1.414 . S
C589 N596 1.359 . S
C590 C592 1.417 . S
C590 C594 1.425 1_655 S
C590 C602 1.410 . S
C591 C593 1.444 1_455 S
C591 C594 1.325 . S
C591 H614 0.929 . S
C592 C589 1.432 . S
C592 C590 1.417 . S
C592 N600 1.360 . S
C593 C589 1.414 . S
C593 C591 1.444 1_655 S
C593 C598 1.385 . S
C594 C590 1.425 1_455 S
C594 C591 1.325 . S
C594 H606 0.931 . S
C595 C597 1.392 . S
C595 C598 1.370 . S
C595 H607 0.931 . S
N596 C589 1.359 . S
N596 C597 1.327 . S
N596 Tb599 2.600 . S
C597 C595 1.392 . S
C597 N596 1.327 . S
C597 H604 0.930 . S
C598 C593 1.385 . S
C598 C595 1.370 . S
C598 H617 0.930 1_655 S
Tb599 N596 2.600 . S
Tb599 N600 2.660 . S
Tb599 O633 2.362 . S
Tb599 O634 2.421 . S
Tb599 O638 2.546 . S
Tb599 O639 2.610 . S
Tb599 O641 2.320 . S
Tb599 O642 2.552 . S
Tb599 O643 2.413 . S
Tb599 C663 2.833 . S
N600 C592 1.360 . S
N600 Tb599 2.660 . S
N600 C601 1.305 . S
C601 N600 1.305 . S
C601 C603 1.407 . S
C601 H608 0.930 . S
C602 C590 1.410 . S
C602 C603 1.345 . S
C602 H610 0.930 . S
C603 C601 1.407 . S
C603 C602 1.345 . S
C603 H605 0.930 . S
H604 C597 0.930 . S
H605 C603 0.930 . S
H606 C594 0.931 . S
H607 C595 0.931 . S
H608 C601 0.930 . S
H609 C623 0.930 . S
H610 C602 0.930 . S
H611 C629 0.930 . S
H612 C620 0.930 . S
H613 C627 0.931 . S
H614 C591 0.929 . S
H615 C621 0.930 . S
H616 C654 0.930 . S
H617 C598 0.930 1_455 S
H618 C653 0.929 . S
N619 Tb588 2.660 . S
N619 C620 1.305 . S
N619 C624 1.360 . S
C620 H612 0.930 . S
C620 N619 1.305 . S
C620 C623 1.407 . S
C621 H615 0.930 . S
C621 C622 1.410 . S
C621 C623 1.345 . S
C622 C621 1.410 . S
C622 C624 1.417 . S
C622 C654 1.432 . S
C623 H609 0.930 . S
C623 C620 1.407 . S
C623 C621 1.345 . S
C624 N619 1.360 . S
C624 C622 1.417 . S
C624 C628 1.432 . S
H625 C630 0.930 . S
N626 Tb588 2.600 . S
N626 C628 1.359 . S
N626 C629 1.327 . S
C627 H613 0.931 . S
C627 C629 1.392 . S
C627 C630 1.370 . S
C628 C624 1.432 . S
C628 N626 1.359 . S
C628 C631 1.414 . S
C629 H611 0.930 . S
C629 N626 1.327 . S
C629 C627 1.392 . S
C630 H625 0.930 . S
C630 C627 1.370 . S
C630 C631 1.385 . S
C631 C628 1.414 . S
C631 C630 1.385 . S
C631 C653 1.444 . S
O632 Tb588 2.546 . S
O632 C652 1.251 . S
O633 Tb588 2.610 . S
O633 Tb599 2.362 . S
O633 C644 1.283 . S
O634 Tb599 2.421 . S
O634 C651 1.262 . S
O635 Tb588 2.320 . S
O635 C651 1.260 . S
O636 Tb588 2.552 . S
O636 C644 1.243 . S
O637 Tb588 2.413 . S
O637 C652 1.256 . S
O638 Tb599 2.546 . S
O638 C663 1.251 . S
O639 Tb588 2.362 . S
O639 Tb599 2.610 . S
O639 C655 1.283 . S
O640 Tb588 2.421 . S
O640 C662 1.262 . S
O641 Tb599 2.320 . S
O641 C662 1.260 . S
O642 Tb599 2.552 . S
O642 C655 1.243 . S
O643 Tb599 2.413 . S
O643 C663 1.256 . S
C644 O633 1.283 . S
C644 O636 1.243 . S
C645 C647 1.382 . S
C645 C649 1.393 . S
C645 C652 1.500 . S
C646 C647 1.400 . S
C646 C648 1.384 . S
C647 C645 1.382 . S
C647 C646 1.400 . S
C647 H664 0.930 . S
C648 C646 1.384 . S
C648 C650 1.392 . S
C648 H665 0.931 . S
C649 C645 1.393 . S
C649 C650 1.401 . S
C649 H666 0.930 . S
C650 C648 1.392 . S
C650 C649 1.401 . S
C650 H667 0.930 . S
C651 O634 1.262 . S
C651 O635 1.260 . S
C652 Tb588 2.833 . S
C652 O632 1.251 . S
C652 O637 1.256 . S
C652 C645 1.500 . S
C653 H618 0.929 . S
C653 C631 1.444 . S
C653 C654 1.317 . S
C654 H616 0.930 . S
C654 C622 1.432 . S
C654 C653 1.317 . S
C655 O639 1.283 . S
C655 O642 1.243 . S
C656 C657 1.382 . S
C656 C660 1.393 . S
C656 C663 1.500 1_455 S
C657 C656 1.382 . S
C657 C658 1.400 . S
C657 H668 0.930 . S
C658 C657 1.400 . S
C658 C659 1.384 . S
C659 C658 1.384 . S
C659 C661 1.392 . S
C659 H669 0.931 . S
C660 C656 1.393 . S
C660 C661 1.401 . S
C660 H670 0.930 . S
C661 C659 1.392 . S
C661 C660 1.401 . S
C661 H671 0.930 . S
C662 O640 1.262 . S
C662 O641 1.260 . S
C663 Tb599 2.833 . S
C663 O638 1.251 . S
C663 O643 1.256 . S
C663 C656 1.500 1_655 S
H664 C647 0.930 . S
H665 C648 0.931 . S
H666 C649 0.930 . S
H667 C650 0.930 . S
H668 C657 0.930 . S
H669 C659 0.931 . S
H670 C660 0.930 . S
H671 C661 0.930 . S
Tb672 N703 2.660 . S
Tb672 N710 2.600 . S
Tb672 O716 2.546 . S
Tb672 O717 2.610 . S
Tb672 O719 2.320 . S
Tb672 O720 2.552 . S
Tb672 O721 2.413 . S
Tb672 O723 2.362 . S
Tb672 O724 2.421 . S
Tb672 C736 2.833 . S
C673 C676 1.432 . S
C673 C677 1.414 . S
C673 N680 1.359 . S
C674 C676 1.417 . S
C674 C678 1.432 . S
C674 C686 1.410 . S
C675 C677 1.444 . S
C675 C678 1.317 . S
C675 H698 0.929 . S
C676 C673 1.432 . S
C676 C674 1.417 . S
C676 N684 1.360 . S
C677 C673 1.414 . S
C677 C675 1.444 . S
C677 C682 1.385 . S
C678 C674 1.432 . S
C678 C675 1.317 . S
C678 H690 0.930 . S
C679 C681 1.392 . S
C679 C682 1.370 . S
C679 H691 0.931 . S
N680 C673 1.359 . S
N680 C681 1.327 . S
N680 Tb683 2.600 . S
C681 C679 1.392 . S
C681 N680 1.327 . S
C681 H688 0.930 . S
C682 C677 1.385 . S
C682 C679 1.370 . S
C682 H701 0.930 . S
Tb683 N680 2.600 . S
Tb683 N684 2.660 . S
Tb683 O717 2.362 . S
Tb683 O718 2.421 . S
Tb683 O722 2.546 . S
Tb683 O723 2.610 . S
Tb683 O725 2.320 . S
Tb683 O726 2.552 . S
Tb683 O727 2.413 . S
Tb683 C747 2.833 . S
N684 C676 1.360 . S
N684 Tb683 2.660 . S
N684 C685 1.305 . S
C685 N684 1.305 . S
C685 C687 1.407 . S
C685 H692 0.930 . S
C686 C674 1.410 . S
C686 C687 1.345 . S
C686 H694 0.930 . S
C687 C685 1.407 . S
C687 C686 1.345 . S
C687 H689 0.930 . S
H688 C681 0.930 . S
H689 C687 0.930 . S
H690 C678 0.930 . S
H691 C679 0.931 . S
H692 C685 0.930 . S
H693 C707 0.930 . S
H694 C686 0.930 . S
H695 C713 0.930 . S
H696 C704 0.930 . S
H697 C711 0.931 . S
H698 C675 0.929 . S
H699 C705 0.930 . S
H700 C738 0.930 . S
H701 C682 0.930 . S
H702 C737 0.929 . S
N703 Tb672 2.660 . S
N703 C704 1.305 . S
N703 C708 1.360 . S
C704 H696 0.930 . S
C704 N703 1.305 . S
C704 C707 1.407 . S
C705 H699 0.930 . S
C705 C706 1.410 . S
C705 C707 1.345 . S
C706 C705 1.410 . S
C706 C708 1.417 . S
C706 C738 1.432 . S
C707 H693 0.930 . S
C707 C704 1.407 . S
C707 C705 1.345 . S
C708 N703 1.360 . S
C708 C706 1.417 . S
C708 C712 1.432 . S
H709 C714 0.930 . S
N710 Tb672 2.600 . S
N710 C712 1.359 . S
N710 C713 1.327 . S
C711 H697 0.931 . S
C711 C713 1.392 . S
C711 C714 1.370 . S
C712 C708 1.432 . S
C712 N710 1.359 . S
C712 C715 1.414 . S
C713 H695 0.930 . S
C713 N710 1.327 . S
C713 C711 1.392 . S
C714 H709 0.930 . S
C714 C711 1.370 . S
C714 C715 1.385 . S
C715 C712 1.414 . S
C715 C714 1.385 . S
C715 C737 1.444 . S
O716 Tb672 2.546 . S
O716 C736 1.251 . S
O717 Tb672 2.610 . S
O717 Tb683 2.362 . S
O717 C728 1.283 . S
O718 Tb683 2.421 . S
O718 C735 1.262 . S
O719 Tb672 2.320 . S
O719 C735 1.260 . S
O720 Tb672 2.552 . S
O720 C728 1.243 . S
O721 Tb672 2.413 . S
O721 C736 1.256 . S
O722 Tb683 2.546 . S
O722 C747 1.251 . S
O723 Tb672 2.362 . S
O723 Tb683 2.610 . S
O723 C739 1.283 . S
O724 Tb672 2.421 . S
O724 C746 1.262 . S
O725 Tb683 2.320 . S
O725 C746 1.260 . S
O726 Tb683 2.552 . S
O726 C739 1.243 . S
O727 Tb683 2.413 . S
O727 C747 1.256 . S
C728 O717 1.283 . S
C728 O720 1.243 . S
C729 C731 1.382 . S
C729 C733 1.393 . S
C729 C736 1.500 . S
C730 C731 1.400 . S
C730 C732 1.384 . S
C731 C729 1.382 . S
C731 C730 1.400 . S
C731 H748 0.930 . S
C732 C730 1.384 . S
C732 C734 1.392 . S
C732 H749 0.931 . S
C733 C729 1.393 . S
C733 C734 1.401 . S
C733 H750 0.930 . S
C734 C732 1.392 . S
C734 C733 1.401 . S
C734 H751 0.930 . S
C735 O718 1.262 . S
C735 O719 1.260 . S
C736 Tb672 2.833 . S
C736 O716 1.251 . S
C736 O721 1.256 . S
C736 C729 1.500 . S
C737 H702 0.929 . S
C737 C715 1.444 . S
C737 C738 1.317 . S
C738 H700 0.930 . S
C738 C706 1.432 . S
C738 C737 1.317 . S
C739 O723 1.283 . S
C739 O726 1.243 . S
C740 C741 1.382 . S
C740 C744 1.393 . S
C740 C747 1.500 . S
C741 C740 1.382 . S
C741 C742 1.400 . S
C741 H752 0.930 . S
C742 C741 1.400 . S
C742 C743 1.384 . S
C743 C742 1.384 . S
C743 C745 1.392 . S
C743 H753 0.931 . S
C744 C740 1.393 . S
C744 C745 1.401 . S
C744 H754 0.930 . S
C745 C743 1.392 . S
C745 C744 1.401 . S
C745 H755 0.930 . S
C746 O724 1.262 . S
C746 O725 1.260 . S
C747 Tb683 2.833 . S
C747 O722 1.251 . S
C747 O727 1.256 . S
C747 C740 1.500 . S
H748 C731 0.930 . S
H749 C732 0.931 . S
H750 C733 0.930 . S
H751 C734 0.930 . S
H752 C741 0.930 . S
H753 C743 0.931 . S
H754 C744 0.930 . S
H755 C745 0.930 . S
H756 C764 0.929 . S
H757 C766 0.930 . S
H758 C768 0.930 . S
H759 C771 0.929 . S
H760 C774 0.930 . S
H761 C776 0.960 . S
H762 C776 0.960 . S
H763 C776 0.960 . S
C764 H756 0.929 . S
C764 C765 1.377 . S
C764 C766 1.384 . S
C765 C764 1.377 . S
C765 C771 1.390 . S
C766 H757 0.930 . S
C766 C764 1.384 . S
C766 C767 1.372 . S
C767 C766 1.372 . S
C767 C768 1.400 . S
C767 C772 1.490 . S
C768 H758 0.930 . S
C768 C767 1.400 . S
C768 C771 1.386 . S
H769 C785 0.930 . S
H770 C786 0.931 . S
C771 H759 0.929 . S
C771 C765 1.390 . S
C771 C768 1.386 . S
C772 C767 1.490 . S
C772 C774 1.395 . S
C772 C775 1.403 1_554 S
H773 C779 0.930 . S
C774 H760 0.930 . S
C774 C772 1.395 . S
C774 C777 1.403 . S
C775 C772 1.403 1_556 S
C775 C776 1.524 . S
C775 C779 1.400 . S
C776 H761 0.960 . S
C776 H762 0.960 . S
C776 H763 0.960 . S
C776 C775 1.524 . S
C777 C774 1.403 . S
C777 C778 1.392 . S
C777 C781 1.495 . S
C778 C777 1.392 . S
C778 C779 1.385 1_554 S
C778 C780 1.478 . S
C779 H773 0.930 . S
C779 C775 1.400 . S
C779 C778 1.385 1_556 S
C780 C778 1.478 . S
C780 C782 1.381 . S
C780 C786 1.383 . S
C781 C777 1.495 . S
C781 H787 0.959 . S
C781 H788 0.961 . S
C781 H789 0.960 . S
C782 C780 1.381 . S
C782 C783 1.394 . S
C782 H790 0.930 . S
C783 C782 1.394 . S
C783 C784 1.383 . S
C783 H791 0.929 . S
C784 C783 1.383 . S
C784 C785 1.377 . S
C785 H769 0.930 . S
C785 C784 1.377 . S
C785 C786 1.379 . S
C786 H770 0.931 . S
C786 C780 1.383 . S
C786 C785 1.379 . S
H787 C781 0.959 . S
H788 C781 0.961 . S
H789 C781 0.960 . S
H790 C782 0.930 . S
H791 C783 0.929 . S
H792 C800 0.929 . S
H793 C802 0.930 . S
H794 C804 0.930 . S
H795 C807 0.929 . S
H796 C810 0.930 . S
H797 C812 0.960 . S
H798 C812 0.960 . S
H799 C812 0.960 . S
C800 H792 0.929 . S
C800 C801 1.377 . S
C800 C802 1.384 . S
C801 C800 1.377 . S
C801 C807 1.390 1_554 S
C802 H793 0.930 . S
C802 C800 1.384 . S
C802 C803 1.372 . S
C803 C802 1.372 . S
C803 C804 1.400 1_554 S
C803 C808 1.490 . S
C804 H794 0.930 . S
C804 C803 1.400 1_556 S
C804 C807 1.386 . S
H805 C821 0.930 . S
H806 C822 0.931 . S
C807 H795 0.929 . S
C807 C801 1.390 1_556 S
C807 C804 1.386 . S
C808 C803 1.490 . S
C808 C810 1.395 . S
C808 C811 1.403 . S
H809 C815 0.930 . S
C810 H796 0.930 . S
C810 C808 1.395 . S
C810 C813 1.403 . S
C811 C808 1.403 . S
C811 C812 1.524 . S
C811 C815 1.400 . S
C812 H797 0.960 . S
C812 H798 0.960 . S
C812 H799 0.960 . S
C812 C811 1.524 . S
C813 C810 1.403 . S
C813 C814 1.392 . S
C813 C817 1.495 1_554 S
C814 C813 1.392 . S
C814 C815 1.385 . S
C814 C816 1.478 . S
C815 H809 0.930 . S
C815 C811 1.400 . S
C815 C814 1.385 . S
C816 C814 1.478 . S
C816 C818 1.381 . S
C816 C822 1.383 1_554 S
C817 C813 1.495 1_556 S
C817 H823 0.959 . S
C817 H824 0.961 . S
C817 H825 0.960 1_556 S
C818 C816 1.381 . S
C818 C819 1.394 . S
C818 H826 0.930 . S
C819 C818 1.394 . S
C819 C820 1.383 . S
C819 H827 0.929 . S
C820 C819 1.383 . S
C820 C821 1.377 1_554 S
C821 H805 0.930 . S
C821 C820 1.377 1_556 S
C821 C822 1.379 . S
C822 H806 0.931 . S
C822 C816 1.383 1_556 S
C822 C821 1.379 . S
H823 C817 0.959 . S
H824 C817 0.961 . S
H825 C817 0.960 1_554 S
H826 C818 0.930 . S
H827 C819 0.929 . S
H828 C836 0.929 . S
H829 C838 0.930 . S
H830 C840 0.930 . S
H831 C843 0.929 . S
H832 C846 0.930 . S
H833 C848 0.960 . S
H834 C848 0.960 . S
H835 C848 0.960 . S
C836 H828 0.929 . S
C836 C837 1.377 1_556 S
C836 C838 1.384 . S
C837 C836 1.377 1_554 S
C837 C843 1.390 . S
C838 H829 0.930 . S
C838 C836 1.384 . S
C838 C839 1.372 1_556 S
C839 C838 1.372 1_554 S
C839 C840 1.400 . S
C839 C844 1.490 . S
C840 H830 0.930 . S
C840 C839 1.400 . S
C840 C843 1.386 . S
H841 C857 0.930 . S
H842 C858 0.931 . S
C843 H831 0.929 . S
C843 C837 1.390 . S
C843 C840 1.386 . S
C844 C839 1.490 . S
C844 C846 1.395 . S
C844 C847 1.403 1_554 S
H845 C851 0.930 . S
C846 H832 0.930 . S
C846 C844 1.395 . S
C846 C849 1.403 . S
C847 C844 1.403 1_556 S
C847 C848 1.524 . S
C847 C851 1.400 . S
C848 H833 0.960 . S
C848 H834 0.960 . S
C848 H835 0.960 . S
C848 C847 1.524 . S
C849 C846 1.403 . S
C849 C850 1.392 . S
C849 C853 1.495 . S
C850 C849 1.392 . S
C850 C851 1.385 1_554 S
C850 C852 1.478 . S
C851 H845 0.930 . S
C851 C847 1.400 . S
C851 C850 1.385 1_556 S
C852 C850 1.478 . S
C852 C854 1.381 . S
C852 C858 1.383 . S
C853 C849 1.495 . S
C853 H859 0.959 . S
C853 H860 0.961 . S
C853 H861 0.960 . S
C854 C852 1.381 . S
C854 C855 1.394 . S
C854 H862 0.931 1_554 S
C855 C854 1.394 . S
C855 C856 1.383 . S
C855 H863 0.935 . S
C856 C855 1.383 . S
C856 C857 1.377 . S
C857 H841 0.930 . S
C857 C856 1.377 . S
C857 C858 1.379 . S
C858 H842 0.931 . S
C858 C852 1.383 . S
C858 C857 1.379 . S
H859 C853 0.959 . S
H860 C853 0.961 . S
H861 C853 0.960 . S
H862 C854 0.931 1_556 S
H863 C855 0.935 . S
H864 C872 0.929 . S
H865 C874 0.930 . S
H866 C876 0.930 . S
H867 C879 0.929 . S
H868 C882 0.930 . S
H869 C884 0.960 . S
H870 C884 0.960 . S
H871 C884 0.960 . S
C872 H864 0.929 . S
C872 C873 1.377 . S
C872 C874 1.384 . S
C873 C872 1.377 . S
C873 C879 1.390 1_556 S
C874 H865 0.930 . S
C874 C872 1.384 . S
C874 C875 1.372 . S
C875 C874 1.372 . S
C875 C876 1.400 1_556 S
C875 C880 1.490 . S
C876 H866 0.930 . S
C876 C875 1.400 1_554 S
C876 C879 1.386 . S
H877 C893 0.930 . S
H878 C894 0.931 . S
C879 H867 0.929 . S
C879 C873 1.390 1_554 S
C879 C876 1.386 . S
C880 C875 1.490 . S
C880 C882 1.395 . S
C880 C883 1.403 1_556 S
H881 C887 0.930 . S
C882 H868 0.930 . S
C882 C880 1.395 . S
C882 C885 1.403 . S
C883 C880 1.403 1_554 S
C883 C884 1.524 . S
C883 C887 1.400 . S
C884 H869 0.960 . S
C884 H870 0.960 . S
C884 H871 0.960 . S
C884 C883 1.524 . S
C885 C882 1.403 . S
C885 C886 1.392 . S
C885 C889 1.495 . S
C886 C885 1.392 . S
C886 C887 1.385 1_556 S
C886 C888 1.478 . S
C887 H881 0.930 . S
C887 C883 1.400 . S
C887 C886 1.385 1_554 S
C888 C886 1.478 . S
C888 C890 1.381 . S
C888 C894 1.383 1_556 S
C889 C885 1.495 . S
C889 H895 0.959 . S
C889 H896 0.961 . S
C889 H897 0.960 . S
C890 C888 1.381 . S
C890 C891 1.394 . S
C890 H898 0.930 . S
C891 C890 1.394 . S
C891 C892 1.348 1_556 S
C891 H899 0.929 . S
C892 C891 1.348 1_554 S
C892 C893 1.407 . S
C893 H877 0.930 . S
C893 C892 1.407 . S
C893 C894 1.379 . S
C894 H878 0.931 . S
C894 C888 1.383 1_554 S
C894 C893 1.379 . S
H895 C889 0.959 . S
H896 C889 0.961 . S
H897 C889 0.960 . S
H898 C890 0.930 . S
H899 C891 0.929 . S
H900 C908 0.929 . S
H901 C910 0.930 . S
H902 C912 0.930 . S
H903 C915 0.929 . S
H904 C918 0.930 . S
H905 C920 0.960 . S
H906 C920 0.960 . S
H907 C920 0.960 . S
C908 H900 0.929 . S
C908 C909 1.377 1_556 S
C908 C910 1.384 . S
C909 C908 1.377 1_554 S
C909 C915 1.390 . S
C910 H901 0.930 . S
C910 C908 1.384 . S
C910 C911 1.372 . S
C911 C910 1.372 . S
C911 C912 1.400 1_556 S
C911 C916 1.490 . S
C912 H902 0.930 . S
C912 C911 1.400 1_554 S
C912 C915 1.386 . S
H913 C929 0.930 . S
H914 C930 0.931 . S
C915 H903 0.929 . S
C915 C909 1.390 . S
C915 C912 1.386 . S
C916 C911 1.490 . S
C916 C918 1.395 1_556 S
C916 C919 1.403 . S
H917 C923 0.930 . S
C918 H904 0.930 . S
C918 C916 1.395 1_554 S
C918 C921 1.403 . S
C919 C916 1.403 . S
C919 C920 1.524 . S
C919 C923 1.400 . S
C920 H905 0.960 . S
C920 H906 0.960 . S
C920 H907 0.960 . S
C920 C919 1.524 . S
C921 C918 1.403 . S
C921 C922 1.392 1_554 S
C921 C925 1.495 . S
C922 C921 1.392 1_556 S
C922 C923 1.385 . S
C922 C924 1.478 . S
C923 H917 0.930 . S
C923 C919 1.400 . S
C923 C922 1.385 . S
C924 C922 1.478 . S
C924 C926 1.381 . S
C924 C930 1.383 1_556 S
C925 C921 1.495 . S
C925 H931 0.959 . S
C925 H932 0.961 . S
C925 H933 0.960 . S
C926 C924 1.381 . S
C926 C927 1.394 . S
C926 H934 0.930 . S
C927 C926 1.394 . S
C927 C928 1.383 . S
C927 H935 0.929 . S
C928 C927 1.383 . S
C928 C929 1.377 1_556 S
C929 H913 0.930 . S
C929 C928 1.377 1_554 S
C929 C930 1.379 . S
C930 H914 0.931 . S
C930 C924 1.383 1_554 S
C930 C929 1.379 . S
H931 C925 0.959 . S
H932 C925 0.961 . S
H933 C925 0.960 . S
H934 C926 0.930 . S
H935 C927 0.929 . S
H936 C944 0.929 . S
H937 C946 0.930 . S
H938 C948 0.930 . S
H939 C951 0.929 . S
H940 C954 0.930 . S
H941 C956 0.960 . S
H942 C956 0.960 . S
H943 C956 0.960 . S
C944 H936 0.929 . S
C944 C945 1.377 1_556 S
C944 C946 1.384 . S
C945 C944 1.377 1_554 S
C945 C951 1.390 . S
C946 H937 0.930 . S
C946 C944 1.384 . S
C946 C947 1.372 . S
C947 C946 1.372 . S
C947 C948 1.400 1_556 S
C947 C952 1.490 . S
C948 H938 0.930 . S
C948 C947 1.400 1_554 S
C948 C951 1.386 . S
H949 C965 0.930 . S
H950 C966 0.931 . S
C951 H939 0.929 . S
C951 C945 1.390 . S
C951 C948 1.386 . S
C952 C947 1.490 . S
C952 C954 1.395 . S
C952 C955 1.403 1_556 S
H953 C959 0.930 . S
C954 H940 0.930 . S
C954 C952 1.395 . S
C954 C957 1.403 . S
C955 C952 1.403 1_554 S
C955 C956 1.524 . S
C955 C959 1.400 . S
C956 H941 0.960 . S
C956 H942 0.960 . S
C956 H943 0.960 . S
C956 C955 1.524 . S
C957 C954 1.403 . S
C957 C958 1.392 . S
C957 C961 1.495 . S
C958 C957 1.392 . S
C958 C959 1.385 1_556 S
C958 C960 1.478 . S
C959 H953 0.930 . S
C959 C955 1.400 . S
C959 C958 1.385 1_554 S
C960 C958 1.478 . S
C960 C962 1.381 . S
C960 C966 1.383 1_556 S
C961 C957 1.495 . S
C961 H967 0.959 . S
C961 H968 0.961 . S
C961 H969 0.960 . S
C962 C960 1.381 . S
C962 C963 1.394 . S
C962 H970 0.930 . S
C963 C962 1.394 . S
C963 C964 1.383 . S
C963 H971 0.929 . S
C964 C963 1.383 . S
C964 C965 1.377 1_556 S
C965 H949 0.930 . S
C965 C964 1.377 1_554 S
C965 C966 1.379 . S
C966 H950 0.931 . S
C966 C960 1.383 1_554 S
C966 C965 1.379 . S
H967 C961 0.959 . S
H968 C961 0.961 . S
H969 C961 0.960 . S
H970 C962 0.930 . S
H971 C963 0.929 . S
H972 C980 0.929 . S
H973 C982 0.930 . S
H974 C984 0.930 . S
H975 C987 0.929 . S
H976 C990 0.930 . S
H977 C992 0.960 . S
H978 C992 0.960 . S
H979 C992 0.960 . S
C980 H972 0.929 . S
C980 C981 1.377 . S
C980 C982 1.384 . S
C981 C980 1.377 . S
C981 C987 1.390 . S
C982 H973 0.930 . S
C982 C980 1.384 . S
C982 C983 1.372 . S
C983 C982 1.372 . S
C983 C984 1.400 . S
C983 C988 1.490 . S
C984 H974 0.930 . S
C984 C983 1.400 . S
C984 C987 1.386 . S
H985 C1001 0.930 . S
H986 C1002 0.931 . S
C987 H975 0.929 . S
C987 C981 1.390 . S
C987 C984 1.386 . S
C988 C983 1.490 . S
C988 C990 1.395 . S
C988 C991 1.403 . S
H989 C995 0.930 . S
C990 H976 0.930 . S
C990 C988 1.395 . S
C990 C993 1.403 . S
C991 C988 1.403 . S
C991 C992 1.524 . S
C991 C995 1.400 . S
C992 H977 0.960 . S
C992 H978 0.960 . S
C992 H979 0.960 . S
C992 C991 1.524 . S
C993 C990 1.403 . S
C993 C994 1.392 . S
C993 C997 1.495 . S
C994 C993 1.392 . S
C994 C995 1.385 . S
C994 C996 1.478 . S
C995 H989 0.930 . S
C995 C991 1.400 . S
C995 C994 1.385 . S
C996 C994 1.478 . S
C996 C998 1.381 . S
C996 C1002 1.383 . S
C997 C993 1.495 . S
C997 H1003 0.959 . S
C997 H1004 0.961 . S
C997 H1005 0.960 . S
C998 C996 1.381 . S
C998 C999 1.394 . S
C998 H1006 0.930 . S
C999 C998 1.394 . S
C999 C1000 1.383 1_655 S
C999 H1007 0.948 . S
C1000 C999 1.383 1_455 S
C1000 C1001 1.377 . S
C1001 H985 0.930 . S
C1001 C1000 1.377 . S
C1001 C1002 1.379 1_455 S
C1002 H986 0.931 . S
C1002 C996 1.383 . S
C1002 C1001 1.379 1_655 S
H1003 C997 0.959 . S
H1004 C997 0.961 . S
H1005 C997 0.960 . S
H1006 C998 0.930 . S
H1007 C999 0.948 . S
H1008 C1016 0.929 . S
H1009 C1018 0.930 . S
H1010 C1020 0.930 . S
H1011 C1023 0.929 . S
H1012 C1026 0.930 . S
H1013 C1028 0.960 . S
H1014 C1028 0.960 . S
H1015 C1028 0.960 . S
C1016 H1008 0.929 . S
C1016 C1017 1.377 . S
C1016 C1018 1.384 . S
C1017 C1016 1.377 . S
C1017 C1023 1.390 . S
C1018 H1009 0.930 . S
C1018 C1016 1.384 . S
C1018 C1019 1.372 . S
C1019 C1018 1.372 . S
C1019 C1020 1.400 . S
C1019 C1024 1.490 . S
C1020 H1010 0.930 . S
C1020 C1019 1.400 . S
C1020 C1023 1.386 . S
H1021 C1037 0.930 . S
H1022 C1038 0.931 . S
C1023 H1011 0.929 . S
C1023 C1017 1.390 . S
C1023 C1020 1.386 . S
C1024 C1019 1.490 . S
C1024 C1026 1.395 . S
C1024 C1027 1.403 . S
H1025 C1031 0.930 . S
C1026 H1012 0.930 . S
C1026 C1024 1.395 . S
C1026 C1029 1.403 . S
C1027 C1024 1.403 . S
C1027 C1028 1.524 . S
C1027 C1031 1.400 . S
C1028 H1013 0.960 . S
C1028 H1014 0.960 . S
C1028 H1015 0.960 . S
C1028 C1027 1.524 . S
C1029 C1026 1.403 . S
C1029 C1030 1.392 . S
C1029 C1033 1.495 . S
C1030 C1029 1.392 . S
C1030 C1031 1.385 . S
C1030 C1032 1.478 1_545 S
C1031 H1025 0.930 . S
C1031 C1027 1.400 . S
C1031 C1030 1.385 . S
C1032 C1030 1.478 1_565 S
C1032 C1034 1.381 . S
C1032 C1038 1.383 1_565 S
C1033 C1029 1.495 . S
C1033 H1039 0.959 . S
C1033 H1040 0.961 . S
C1033 H1041 0.960 1_545 S
C1034 C1032 1.381 . S
C1034 C1035 1.394 . S
C1034 H1042 0.930 . S
C1035 C1034 1.394 . S
C1035 C1036 1.383 . S
C1035 H1043 0.929 . S
C1036 C1035 1.383 . S
C1036 C1037 1.377 . S
C1037 H1021 0.930 . S
C1037 C1036 1.377 . S
C1037 C1038 1.379 1_565 S
C1038 H1022 0.931 . S
C1038 C1032 1.383 1_545 S
C1038 C1037 1.379 1_545 S
H1039 C1033 0.959 . S
H1040 C1033 0.961 . S
H1041 C1033 0.960 1_565 S
H1042 C1034 0.930 . S
H1043 C1035 0.929 . S
H1044 C1052 0.929 . S
H1045 C1054 0.930 . S
H1046 C1056 0.930 1_655 S
H1047 C1059 0.929 . S
H1048 C1062 0.928 1_455 S
H1049 C1064 0.960 . S
H1050 C1064 0.960 . S
H1051 C1064 0.960 . S
C1052 H1044 0.929 . S
C1052 C1053 1.377 . S
C1052 C1054 1.384 . S
C1053 C1052 1.377 . S
C1053 C1059 1.390 . S
C1054 H1045 0.930 . S
C1054 C1052 1.384 . S
C1054 C1055 1.372 . S
C1055 C1054 1.372 . S
C1055 C1056 1.400 . S
C1055 C1060 1.490 1_455 S
C1056 H1046 0.930 1_455 S
C1056 C1055 1.400 . S
C1056 C1059 1.386 . S
H1057 C1073 0.930 . S
H1058 C1074 0.931 . S
C1059 H1047 0.929 . S
C1059 C1053 1.390 . S
C1059 C1056 1.386 . S
C1060 C1055 1.490 1_655 S
C1060 C1062 1.396 . S
C1060 C1063 1.403 . S
H1061 C1067 0.930 . S
C1062 H1048 0.928 1_655 S
C1062 C1060 1.396 . S
C1062 C1065 1.404 . S
C1063 C1060 1.403 . S
C1063 C1064 1.524 . S
C1063 C1067 1.400 . S
C1064 H1049 0.960 . S
C1064 H1050 0.960 . S
C1064 H1051 0.960 . S
C1064 C1063 1.524 . S
C1065 C1062 1.404 . S
C1065 C1066 1.392 . S
C1065 C1069 1.495 . S
C1066 C1065 1.392 . S
C1066 C1067 1.385 . S
C1066 C1068 1.478 . S
C1067 H1061 0.930 . S
C1067 C1063 1.400 . S
C1067 C1066 1.385 . S
C1068 C1066 1.478 . S
C1068 C1070 1.381 . S
C1068 C1074 1.383 . S
C1069 C1065 1.495 . S
C1069 H1075 0.959 1_655 S
C1069 H1076 0.961 . S
C1069 H1077 0.960 . S
C1070 C1068 1.381 . S
C1070 C1071 1.394 . S
C1070 H1078 0.930 . S
C1071 C1070 1.394 . S
C1071 C1072 1.393 1_545 S
C1071 H1079 0.929 1_545 S
C1072 C1071 1.393 1_565 S
C1072 C1073 1.343 1_565 S
C1073 H1057 0.930 . S
C1073 C1072 1.343 1_545 S
C1073 C1074 1.379 . S
C1074 H1058 0.931 . S
C1074 C1068 1.383 . S
C1074 C1073 1.379 . S
H1075 C1069 0.959 1_455 S
H1076 C1069 0.961 . S
H1077 C1069 0.960 . S
H1078 C1070 0.930 . S
H1079 C1071 0.929 1_565 S
H1080 C1088 0.929 . S
H1081 C1090 0.930 . S
H1082 C1092 0.930 . S
H1083 C1095 0.929 . S
H1084 C1098 0.930 . S
H1085 C1100 0.960 . S
H1086 C1100 0.960 . S
H1087 C1100 0.960 . S
C1088 H1080 0.929 . S
C1088 C1089 1.377 . S
C1088 C1090 1.384 . S
C1089 C1088 1.377 . S
C1089 C1095 1.390 . S
C1090 H1081 0.930 . S
C1090 C1088 1.384 . S
C1090 C1091 1.372 . S
C1091 C1090 1.372 . S
C1091 C1092 1.400 . S
C1091 C1096 1.490 . S
C1092 H1082 0.930 . S
C1092 C1091 1.400 . S
C1092 C1095 1.386 . S
H1093 C1109 0.930 . S
H1094 C1110 0.931 . S
C1095 H1083 0.929 . S
C1095 C1089 1.390 . S
C1095 C1092 1.386 . S
C1096 C1091 1.490 . S
C1096 C1098 1.395 . S
C1096 C1099 1.403 . S
H1097 C1103 0.930 . S
C1098 H1084 0.930 . S
C1098 C1096 1.395 . S
C1098 C1101 1.403 . S
C1099 C1096 1.403 . S
C1099 C1100 1.524 . S
C1099 C1103 1.400 . S
C1100 H1085 0.960 . S
C1100 H1086 0.960 . S
C1100 H1087 0.960 . S
C1100 C1099 1.524 . S
C1101 C1098 1.403 . S
C1101 C1102 1.392 . S
C1101 C1105 1.495 . S
C1102 C1101 1.392 . S
C1102 C1103 1.385 . S
C1102 C1104 1.478 . S
C1103 H1097 0.930 . S
C1103 C1099 1.400 . S
C1103 C1102 1.385 . S
C1104 C1102 1.478 . S
C1104 C1106 1.381 . S
C1104 C1110 1.383 . S
C1105 C1101 1.495 . S
C1105 H1111 0.959 . S
C1105 H1112 0.961 . S
C1105 H1113 0.960 . S
C1106 C1104 1.381 . S
C1106 C1107 1.394 . S
C1106 H1114 0.930 . S
C1107 C1106 1.394 . S
C1107 C1108 1.383 . S
C1107 H1115 0.929 . S
C1108 C1107 1.383 . S
C1108 C1109 1.377 . S
C1109 H1093 0.930 . S
C1109 C1108 1.377 . S
C1109 C1110 1.379 . S
C1110 H1094 0.931 . S
C1110 C1104 1.383 . S
C1110 C1109 1.379 . S
H1111 C1105 0.959 . S
H1112 C1105 0.961 . S
H1113 C1105 0.960 . S
H1114 C1106 0.930 . S
H1115 C1107 0.929 . S
H1116 C1124 0.929 . S
H1117 C1126 0.930 . S
H1118 C1128 0.930 . S
H1119 C1131 0.929 . S
H1120 C1134 0.930 . S
H1121 C1136 0.960 . S
H1122 C1136 0.960 . S
H1123 C1136 0.960 . S
C1124 H1116 0.929 . S
C1124 C1125 1.377 . S
C1124 C1126 1.384 . S
C1125 C1124 1.377 . S
C1125 C1131 1.390 . S
C1126 H1117 0.930 . S
C1126 C1124 1.384 . S
C1126 C1127 1.372 . S
C1127 C1126 1.372 . S
C1127 C1128 1.400 . S
C1127 C1132 1.490 . S
C1128 H1118 0.930 . S
C1128 C1127 1.400 . S
C1128 C1131 1.386 . S
H1129 C1145 0.930 . S
H1130 C1146 0.931 . S
C1131 H1119 0.929 . S
C1131 C1125 1.390 . S
C1131 C1128 1.386 . S
C1132 C1127 1.490 . S
C1132 C1134 1.395 . S
C1132 C1135 1.403 . S
H1133 C1139 0.930 . S
C1134 H1120 0.930 . S
C1134 C1132 1.395 . S
C1134 C1137 1.403 . S
C1135 C1132 1.403 . S
C1135 C1136 1.524 . S
C1135 C1139 1.400 . S
C1136 H1121 0.960 . S
C1136 H1122 0.960 . S
C1136 H1123 0.960 . S
C1136 C1135 1.524 . S
C1137 C1134 1.403 . S
C1137 C1138 1.392 . S
C1137 C1141 1.495 . S
C1138 C1137 1.392 . S
C1138 C1139 1.385 . S
C1138 C1140 1.478 . S
C1139 H1133 0.930 . S
C1139 C1135 1.400 . S
C1139 C1138 1.385 . S
C1140 C1138 1.478 . S
C1140 C1142 1.381 . S
C1140 C1146 1.383 . S
C1141 C1137 1.495 . S
C1141 H1147 0.959 . S
C1141 H1148 0.961 . S
C1141 H1149 0.960 . S
C1142 C1140 1.381 . S
C1142 C1143 1.394 . S
C1142 H1150 0.930 . S
C1143 C1142 1.394 . S
C1143 C1144 1.383 . S
C1143 H1151 0.929 . S
C1144 C1143 1.383 . S
C1144 C1145 1.377 . S
C1145 H1129 0.930 . S
C1145 C1144 1.377 . S
C1145 C1146 1.379 . S
C1146 H1130 0.931 . S
C1146 C1140 1.383 . S
C1146 C1145 1.379 . S
H1147 C1141 0.959 . S
H1148 C1141 0.961 . S
H1149 C1141 0.960 . S
H1150 C1142 0.930 . S
H1151 C1143 0.929 . S
H1152 C1160 0.929 . S
H1153 C1162 0.930 . S
H1154 C1164 0.930 . S
H1155 C1167 0.929 . S
H1156 C1170 0.930 . S
H1157 C1172 0.960 . S
H1158 C1172 0.960 . S
H1159 C1172 0.960 . S
C1160 H1152 0.929 . S
C1160 C1161 1.377 . S
C1160 C1162 1.384 . S
C1161 C1160 1.377 . S
C1161 C1167 1.390 . S
C1162 H1153 0.930 . S
C1162 C1160 1.384 . S
C1162 C1163 1.372 . S
C1163 C1162 1.372 . S
C1163 C1164 1.400 . S
C1163 C1168 1.490 . S
C1164 H1154 0.930 . S
C1164 C1163 1.400 . S
C1164 C1167 1.386 . S
H1165 C1181 0.930 . S
H1166 C1182 0.931 . S
C1167 H1155 0.929 . S
C1167 C1161 1.390 . S
C1167 C1164 1.386 . S
C1168 C1163 1.490 . S
C1168 C1170 1.395 . S
C1168 C1171 1.403 . S
H1169 C1175 0.930 . S
C1170 H1156 0.930 . S
C1170 C1168 1.395 . S
C1170 C1173 1.403 . S
C1171 C1168 1.403 . S
C1171 C1172 1.524 . S
C1171 C1175 1.400 . S
C1172 H1157 0.960 . S
C1172 H1158 0.960 . S
C1172 H1159 0.960 . S
C1172 C1171 1.524 . S
C1173 C1170 1.403 . S
C1173 C1174 1.392 . S
C1173 C1177 1.495 . S
C1174 C1173 1.392 . S
C1174 C1175 1.385 . S
C1174 C1176 1.478 . S
C1175 H1169 0.930 . S
C1175 C1171 1.400 . S
C1175 C1174 1.385 . S
C1176 C1174 1.478 . S
C1176 C1178 1.381 . S
C1176 C1182 1.383 . S
C1177 C1173 1.495 . S
C1177 H1183 0.959 . S
C1177 H1184 0.961 . S
C1177 H1185 0.960 . S
C1178 C1176 1.381 . S
C1178 C1179 1.394 . S
C1178 H1186 0.930 . S
C1179 C1178 1.394 . S
C1179 C1180 1.383 . S
C1179 H1187 0.929 . S
C1180 C1179 1.383 . S
C1180 C1181 1.377 . S
C1181 H1165 0.930 . S
C1181 C1180 1.377 . S
C1181 C1182 1.379 . S
C1182 H1166 0.931 . S
C1182 C1176 1.383 . S
C1182 C1181 1.379 . S
H1183 C1177 0.959 . S
H1184 C1177 0.961 . S
H1185 C1177 0.960 . S
H1186 C1178 0.930 . S
H1187 C1179 0.929 . S
H1188 C1196 0.929 . S
H1189 C1198 0.930 . S
H1190 C1200 0.930 . S
H1191 C1203 0.929 . S
H1192 C1206 0.930 . S
H1193 C1208 0.960 . S
H1194 C1208 0.960 . S
H1195 C1208 0.960 . S
C1196 H1188 0.929 . S
C1196 C1197 1.377 . S
C1196 C1198 1.384 . S
C1197 C1196 1.377 . S
C1197 C1203 1.390 . S
C1198 H1189 0.930 . S
C1198 C1196 1.384 . S
C1198 C1199 1.372 . S
C1199 C1198 1.372 . S
C1199 C1200 1.400 . S
C1199 C1204 1.490 . S
C1200 H1190 0.930 . S
C1200 C1199 1.400 . S
C1200 C1203 1.386 . S
H1201 C1217 0.930 . S
H1202 C1218 0.931 . S
C1203 H1191 0.929 . S
C1203 C1197 1.390 . S
C1203 C1200 1.386 . S
C1204 C1199 1.490 . S
C1204 C1206 1.395 . S
C1204 C1207 1.403 . S
H1205 C1211 0.930 . S
C1206 H1192 0.930 . S
C1206 C1204 1.395 . S
C1206 C1209 1.403 . S
C1207 C1204 1.403 . S
C1207 C1208 1.524 . S
C1207 C1211 1.400 . S
C1208 H1193 0.960 . S
C1208 H1194 0.960 . S
C1208 H1195 0.960 . S
C1208 C1207 1.524 . S
C1209 C1206 1.403 . S
C1209 C1210 1.392 . S
C1209 C1213 1.495 . S
C1210 C1209 1.392 . S
C1210 C1211 1.385 . S
C1210 C1212 1.478 . S
C1211 H1205 0.930 . S
C1211 C1207 1.400 . S
C1211 C1210 1.385 . S
C1212 C1210 1.478 . S
C1212 C1214 1.381 . S
C1212 C1218 1.383 . S
C1213 C1209 1.495 . S
C1213 H1219 0.959 . S
C1213 H1220 0.961 . S
C1213 H1221 0.960 . S
C1214 C1212 1.381 . S
C1214 C1215 1.394 . S
C1214 H1222 0.930 . S
C1215 C1214 1.394 . S
C1215 C1216 1.383 . S
C1215 H1223 0.929 . S
C1216 C1215 1.383 . S
C1216 C1217 1.377 . S
C1217 H1201 0.930 . S
C1217 C1216 1.377 . S
C1217 C1218 1.379 . S
C1218 H1202 0.931 . S
C1218 C1212 1.383 . S
C1218 C1217 1.379 . S
H1219 C1213 0.959 . S
H1220 C1213 0.961 . S
H1221 C1213 0.960 . S
H1222 C1214 0.930 . S
H1223 C1215 0.929 . S
H1224 C1232 0.929 . S
H1225 C1234 0.930 . S
H1226 C1236 0.930 . S
H1227 C1239 0.929 . S
H1228 C1242 0.930 . S
H1229 C1244 0.960 . S
H1230 C1244 0.960 . S
H1231 C1244 0.960 . S
C1232 H1224 0.929 . S
C1232 C1233 1.377 . S
C1232 C1234 1.384 . S
C1233 C1232 1.377 . S
C1233 C1239 1.390 . S
C1234 H1225 0.930 . S
C1234 C1232 1.384 . S
C1234 C1235 1.372 . S
C1235 C1234 1.372 . S
C1235 C1236 1.400 . S
C1235 C1240 1.490 . S
C1236 H1226 0.930 . S
C1236 C1235 1.400 . S
C1236 C1239 1.386 . S
H1237 C1253 0.930 . S
H1238 C1254 0.931 . S
C1239 H1227 0.929 . S
C1239 C1233 1.390 . S
C1239 C1236 1.386 . S
C1240 C1235 1.490 . S
C1240 C1242 1.395 . S
C1240 C1243 1.403 . S
H1241 C1247 0.930 . S
C1242 H1228 0.930 . S
C1242 C1240 1.395 . S
C1242 C1245 1.403 . S
C1243 C1240 1.403 . S
C1243 C1244 1.524 . S
C1243 C1247 1.400 . S
C1244 H1229 0.960 . S
C1244 H1230 0.960 . S
C1244 H1231 0.960 . S
C1244 C1243 1.524 . S
C1245 C1242 1.403 . S
C1245 C1246 1.392 . S
C1245 C1249 1.495 . S
C1246 C1245 1.392 . S
C1246 C1247 1.385 . S
C1246 C1248 1.478 . S
C1247 H1241 0.930 . S
C1247 C1243 1.400 . S
C1247 C1246 1.385 . S
C1248 C1246 1.478 . S
C1248 C1250 1.381 . S
C1248 C1254 1.383 . S
C1249 C1245 1.495 . S
C1249 H1255 0.959 . S
C1249 H1256 0.961 . S
C1249 H1257 0.960 . S
C1250 C1248 1.381 . S
C1250 C1251 1.394 . S
C1250 H1258 0.930 . S
C1251 C1250 1.394 . S
C1251 C1252 1.383 . S
C1251 H1259 0.929 . S
C1252 C1251 1.383 . S
C1252 C1253 1.377 . S
C1253 H1237 0.930 . S
C1253 C1252 1.377 . S
C1253 C1254 1.379 . S
C1254 H1238 0.931 . S
C1254 C1248 1.383 . S
C1254 C1253 1.379 . S
H1255 C1249 0.959 . S
H1256 C1249 0.961 . S
H1257 C1249 0.960 . S
H1258 C1250 0.930 . S
H1259 C1251 0.929 . S
H1260 C1268 0.929 . S
H1261 C1270 0.930 . S
H1262 C1272 0.930 . S
H1263 C1275 0.929 . S
H1264 C1278 0.930 . S
H1265 C1280 0.960 . S
H1266 C1280 0.960 . S
H1267 C1280 0.960 . S
C1268 H1260 0.929 . S
C1268 C1269 1.377 . S
C1268 C1270 1.384 . S
C1269 C1268 1.377 . S
C1269 C1275 1.390 . S
C1270 H1261 0.930 . S
C1270 C1268 1.384 . S
C1270 C1271 1.372 . S
C1271 C1270 1.372 . S
C1271 C1272 1.400 . S
C1271 C1276 1.490 . S
C1272 H1262 0.930 . S
C1272 C1271 1.400 . S
C1272 C1275 1.386 . S
H1273 C1289 0.930 . S
H1274 C1290 0.931 . S
C1275 H1263 0.929 . S
C1275 C1269 1.390 . S
C1275 C1272 1.386 . S
C1276 C1271 1.490 . S
C1276 C1278 1.395 . S
C1276 C1279 1.403 . S
H1277 C1283 0.930 . S
C1278 H1264 0.930 . S
C1278 C1276 1.395 . S
C1278 C1281 1.403 . S
C1279 C1276 1.403 . S
C1279 C1280 1.524 . S
C1279 C1283 1.400 . S
C1280 H1265 0.960 . S
C1280 H1266 0.960 . S
C1280 H1267 0.960 . S
C1280 C1279 1.524 . S
C1281 C1278 1.403 . S
C1281 C1282 1.392 . S
C1281 C1285 1.495 . S
C1282 C1281 1.392 . S
C1282 C1283 1.385 . S
C1282 C1284 1.478 . S
C1283 H1277 0.930 . S
C1283 C1279 1.400 . S
C1283 C1282 1.385 . S
C1284 C1282 1.478 . S
C1284 C1286 1.381 . S
C1284 C1290 1.383 . S
C1285 C1281 1.495 . S
C1285 H1291 0.959 . S
C1285 H1292 0.961 . S
C1285 H1293 0.960 . S
C1286 C1284 1.381 . S
C1286 C1287 1.394 . S
C1286 H1294 0.930 . S
C1287 C1286 1.394 . S
C1287 C1288 1.383 . S
C1287 H1295 0.929 . S
C1288 C1287 1.383 . S
C1288 C1289 1.377 . S
C1289 H1273 0.930 . S
C1289 C1288 1.377 . S
C1289 C1290 1.379 . S
C1290 H1274 0.931 . S
C1290 C1284 1.383 . S
C1290 C1289 1.379 . S
H1291 C1285 0.959 . S
H1292 C1285 0.961 . S
H1293 C1285 0.960 . S
H1294 C1286 0.930 . S
H1295 C1287 0.929 . S
H1296 C1304 0.929 . S
H1297 C1306 0.930 . S
H1298 C1308 0.930 . S
H1299 C1311 0.929 . S
H1300 C1314 0.930 . S
H1301 C1316 0.960 . S
H1302 C1316 0.960 . S
H1303 C1316 0.960 . S
C1304 H1296 0.929 . S
C1304 C1305 1.377 . S
C1304 C1306 1.384 . S
C1305 C1304 1.377 . S
C1305 C1311 1.390 . S
C1306 H1297 0.930 . S
C1306 C1304 1.384 . S
C1306 C1307 1.372 . S
C1307 C1306 1.372 . S
C1307 C1308 1.400 . S
C1307 C1312 1.490 . S
C1308 H1298 0.930 . S
C1308 C1307 1.400 . S
C1308 C1311 1.386 . S
H1309 C1325 0.930 . S
H1310 C1326 0.931 . S
C1311 H1299 0.929 . S
C1311 C1305 1.390 . S
C1311 C1308 1.386 . S
C1312 C1307 1.490 . S
C1312 C1314 1.395 . S
C1312 C1315 1.403 . S
H1313 C1319 0.930 . S
C1314 H1300 0.930 . S
C1314 C1312 1.395 . S
C1314 C1317 1.403 1_565 S
C1315 C1312 1.403 . S
C1315 C1316 1.524 . S
C1315 C1319 1.400 1_565 S
C1316 H1301 0.960 . S
C1316 H1302 0.960 . S
C1316 H1303 0.960 . S
C1316 C1315 1.524 . S
C1317 C1314 1.403 1_545 S
C1317 C1318 1.392 . S
C1317 C1321 1.495 . S
C1318 C1317 1.392 . S
C1318 C1319 1.385 . S
C1318 C1320 1.478 . S
C1319 H1313 0.930 . S
C1319 C1315 1.400 1_545 S
C1319 C1318 1.385 . S
C1320 C1318 1.478 . S
C1320 C1322 1.381 . S
C1320 C1326 1.383 . S
C1321 C1317 1.495 . S
C1321 H1327 0.959 . S
C1321 H1328 0.961 . S
C1321 H1329 0.960 . S
C1322 C1320 1.381 . S
C1322 C1323 1.394 . S
C1322 H1330 0.930 . S
C1323 C1322 1.394 . S
C1323 C1324 1.383 . S
C1323 H1331 0.929 . S
C1324 C1323 1.383 . S
C1324 C1325 1.377 . S
C1325 H1309 0.930 . S
C1325 C1324 1.377 . S
C1325 C1326 1.379 . S
C1326 H1310 0.931 . S
C1326 C1320 1.383 . S
C1326 C1325 1.379 . S
H1327 C1321 0.959 . S
H1328 C1321 0.961 . S
H1329 C1321 0.960 . S
H1330 C1322 0.930 . S
H1331 C1323 0.929 . S
H1332 C1340 0.929 . S
H1333 C1342 0.930 . S
H1334 C1344 0.930 . S
H1335 C1347 0.929 . S
H1336 C1350 0.930 . S
H1337 C1352 0.960 . S
H1338 C1352 0.960 . S
H1339 C1352 0.960 . S
C1340 H1332 0.929 . S
C1340 C1341 1.377 . S
C1340 C1342 1.384 . S
C1341 C1340 1.377 . S
C1341 C1347 1.390 . S
C1342 H1333 0.930 . S
C1342 C1340 1.384 . S
C1342 C1343 1.372 . S
C1343 C1342 1.372 . S
C1343 C1344 1.400 . S
C1343 C1348 1.490 . S
C1344 H1334 0.930 . S
C1344 C1343 1.400 . S
C1344 C1347 1.386 . S
H1345 C1361 0.930 . S
H1346 C1362 0.931 . S
C1347 H1335 0.929 . S
C1347 C1341 1.390 . S
C1347 C1344 1.386 . S
C1348 C1343 1.490 . S
C1348 C1350 1.395 1_655 S
C1348 C1351 1.398 . S
H1349 C1355 0.930 . S
C1350 H1336 0.930 . S
C1350 C1348 1.395 1_455 S
C1350 C1353 1.403 . S
C1351 C1348 1.398 . S
C1351 C1352 1.539 . S
C1351 C1355 1.388 1_655 S
C1352 H1337 0.960 . S
C1352 H1338 0.960 . S
C1352 H1339 0.960 . S
C1352 C1351 1.539 . S
C1353 C1350 1.403 . S
C1353 C1354 1.392 . S
C1353 C1357 1.495 . S
C1354 C1353 1.392 . S
C1354 C1355 1.385 . S
C1354 C1356 1.478 . S
C1355 H1349 0.930 . S
C1355 C1351 1.388 1_455 S
C1355 C1354 1.385 . S
C1356 C1354 1.478 . S
C1356 C1358 1.381 . S
C1356 C1362 1.383 . S
C1357 C1353 1.495 . S
C1357 H1363 0.959 . S
C1357 H1364 0.961 . S
C1357 H1365 0.960 . S
C1358 C1356 1.381 . S
C1358 C1359 1.394 . S
C1358 H1366 0.930 . S
C1359 C1358 1.394 . S
C1359 C1360 1.383 . S
C1359 H1367 0.929 . S
C1360 C1359 1.383 . S
C1360 C1361 1.377 . S
C1361 H1345 0.930 . S
C1361 C1360 1.377 . S
C1361 C1362 1.379 . S
C1362 H1346 0.931 . S
C1362 C1356 1.383 . S
C1362 C1361 1.379 . S
H1363 C1357 0.959 . S
H1364 C1357 0.961 . S
H1365 C1357 0.960 . S
H1366 C1358 0.930 . S
H1367 C1359 0.929 . S
H1368 C1376 0.929 . S
H1369 C1378 0.930 . S
H1370 C1380 0.930 . S
H1371 C1383 0.929 . S
H1372 C1386 0.930 . S
H1373 C1388 0.960 . S
H1374 C1388 0.960 . S
H1375 C1388 0.960 . S
C1376 H1368 0.929 . S
C1376 C1377 1.377 . S
C1376 C1378 1.384 . S
C1377 C1376 1.377 . S
C1377 C1383 1.390 . S
C1378 H1369 0.930 . S
C1378 C1376 1.384 . S
C1378 C1379 1.372 . S
C1379 C1378 1.372 . S
C1379 C1380 1.400 . S
C1379 C1384 1.490 . S
C1380 H1370 0.930 . S
C1380 C1379 1.400 . S
C1380 C1383 1.386 . S
H1381 C1397 0.930 . S
H1382 C1398 0.931 . S
C1383 H1371 0.929 . S
C1383 C1377 1.390 . S
C1383 C1380 1.386 . S
C1384 C1379 1.490 . S
C1384 C1386 1.395 . S
C1384 C1387 1.403 . S
H1385 C1391 0.930 . S
C1386 H1372 0.930 . S
C1386 C1384 1.395 . S
C1386 C1389 1.403 . S
C1387 C1384 1.403 . S
C1387 C1388 1.524 . S
C1387 C1391 1.400 . S
C1388 H1373 0.960 . S
C1388 H1374 0.960 . S
C1388 H1375 0.960 . S
C1388 C1387 1.524 . S
C1389 C1386 1.403 . S
C1389 C1390 1.392 . S
C1389 C1393 1.495 . S
C1390 C1389 1.392 . S
C1390 C1391 1.385 . S
C1390 C1392 1.478 . S
C1391 H1385 0.930 . S
C1391 C1387 1.400 . S
C1391 C1390 1.385 . S
C1392 C1390 1.478 . S
C1392 C1394 1.381 . S
C1392 C1398 1.383 . S
C1393 C1389 1.495 . S
C1393 H1399 0.959 . S
C1393 H1400 0.961 . S
C1393 H1401 0.960 . S
C1394 C1392 1.381 . S
C1394 C1395 1.394 . S
C1394 H1402 0.930 . S
C1395 C1394 1.394 . S
C1395 C1396 1.383 . S
C1395 H1403 0.929 . S
C1396 C1395 1.383 . S
C1396 C1397 1.377 . S
C1397 H1381 0.930 . S
C1397 C1396 1.377 . S
C1397 C1398 1.379 . S
C1398 H1382 0.931 . S
C1398 C1392 1.383 . S
C1398 C1397 1.379 . S
H1399 C1393 0.959 . S
H1400 C1393 0.961 . S
H1401 C1393 0.960 . S
H1402 C1394 0.930 . S
H1403 C1395 0.929 . S
H1404 C1412 0.929 . S
H1405 C1414 0.930 . S
H1406 C1416 0.930 . S
H1407 C1419 0.929 . S
H1408 C1422 0.930 . S
H1409 C1424 0.960 . S
H1410 C1424 0.960 . S
H1411 C1424 0.960 . S
C1412 H1404 0.929 . S
C1412 C1413 1.377 . S
C1412 C1414 1.384 . S
C1413 C1412 1.377 . S
C1413 C1419 1.390 . S
C1414 H1405 0.930 . S
C1414 C1412 1.384 . S
C1414 C1415 1.372 . S
C1415 C1414 1.372 . S
C1415 C1416 1.400 . S
C1415 C1420 1.490 . S
C1416 H1406 0.930 . S
C1416 C1415 1.400 . S
C1416 C1419 1.386 . S
H1417 C1433 0.930 . S
H1418 C1434 0.931 . S
C1419 H1407 0.929 . S
C1419 C1413 1.390 . S
C1419 C1416 1.386 . S
C1420 C1415 1.490 . S
C1420 C1422 1.395 . S
C1420 C1423 1.403 . S
H1421 C1427 0.930 . S
C1422 H1408 0.930 . S
C1422 C1420 1.395 . S
C1422 C1425 1.403 . S
C1423 C1420 1.403 . S
C1423 C1424 1.524 . S
C1423 C1427 1.400 . S
C1424 H1409 0.960 . S
C1424 H1410 0.960 . S
C1424 H1411 0.960 . S
C1424 C1423 1.524 . S
C1425 C1422 1.403 . S
C1425 C1426 1.392 . S
C1425 C1429 1.495 . S
C1426 C1425 1.392 . S
C1426 C1427 1.385 . S
C1426 C1428 1.478 . S
C1427 H1421 0.930 . S
C1427 C1423 1.400 . S
C1427 C1426 1.385 . S
C1428 C1426 1.478 . S
C1428 C1430 1.381 . S
C1428 C1434 1.383 . S
C1429 C1425 1.495 . S
C1429 H1435 0.959 . S
C1429 H1436 0.961 . S
C1429 H1437 0.960 . S
C1430 C1428 1.381 . S
C1430 C1431 1.394 . S
C1430 H1438 0.930 . S
C1431 C1430 1.394 . S
C1431 C1432 1.383 . S
C1431 H1439 0.929 . S
C1432 C1431 1.383 . S
C1432 C1433 1.377 . S
C1433 H1417 0.930 . S
C1433 C1432 1.377 . S
C1433 C1434 1.379 . S
C1434 H1418 0.931 . S
C1434 C1428 1.383 . S
C1434 C1433 1.379 . S
H1435 C1429 0.959 . S
H1436 C1429 0.961 . S
H1437 C1429 0.960 . S
H1438 C1430 0.930 . S
H1439 C1431 0.929 . S
H1440 C1448 0.929 . S
H1441 C1450 0.930 . S
H1442 C1452 0.930 . S
H1443 C1455 0.929 . S
H1444 C1458 0.930 . S
H1445 C1460 0.960 . S
H1446 C1460 0.960 . S
H1447 C1460 0.960 . S
C1448 H1440 0.929 . S
C1448 C1449 1.377 . S
C1448 C1450 1.384 . S
C1449 C1448 1.377 . S
C1449 C1455 1.390 . S
C1450 H1441 0.930 . S
C1450 C1448 1.384 . S
C1450 C1451 1.372 . S
C1451 C1450 1.372 . S
C1451 C1452 1.400 . S
C1451 C1456 1.490 . S
C1452 H1442 0.930 . S
C1452 C1451 1.400 . S
C1452 C1455 1.386 . S
H1453 C1469 0.930 . S
H1454 C1470 0.931 . S
C1455 H1443 0.929 . S
C1455 C1449 1.390 . S
C1455 C1452 1.386 . S
C1456 C1451 1.490 . S
C1456 C1458 1.395 . S
C1456 C1459 1.403 . S
H1457 C1463 0.930 . S
C1458 H1444 0.930 . S
C1458 C1456 1.395 . S
C1458 C1461 1.403 . S
C1459 C1456 1.403 . S
C1459 C1460 1.524 . S
C1459 C1463 1.400 . S
C1460 H1445 0.960 . S
C1460 H1446 0.960 . S
C1460 H1447 0.960 . S
C1460 C1459 1.524 . S
C1461 C1458 1.403 . S
C1461 C1462 1.392 . S
C1461 C1465 1.495 . S
C1462 C1461 1.392 . S
C1462 C1463 1.385 . S
C1462 C1464 1.478 . S
C1463 H1457 0.930 . S
C1463 C1459 1.400 . S
C1463 C1462 1.385 . S
C1464 C1462 1.478 . S
C1464 C1466 1.381 . S
C1464 C1470 1.383 . S
C1465 C1461 1.495 . S
C1465 H1471 0.959 . S
C1465 H1472 0.961 . S
C1465 H1473 0.960 . S
C1466 C1464 1.381 . S
C1466 C1467 1.394 . S
C1466 H1474 0.930 . S
C1467 C1466 1.394 . S
C1467 C1468 1.383 . S
C1467 H1475 0.929 . S
C1468 C1467 1.383 . S
C1468 C1469 1.377 . S
C1469 H1453 0.930 . S
C1469 C1468 1.377 . S
C1469 C1470 1.379 . S
C1470 H1454 0.931 . S
C1470 C1464 1.383 . S
C1470 C1469 1.379 . S
H1471 C1465 0.959 . S
H1472 C1465 0.961 . S
H1473 C1465 0.960 . S
H1474 C1466 0.930 . S
H1475 C1467 0.929 . S
H1476 C1484 0.929 . S
H1477 C1486 0.930 . S
H1478 C1488 0.930 . S
H1479 C1491 0.892 1_545 S
H1480 C1494 0.930 . S
H1481 C1496 0.960 . S
H1482 C1496 0.960 . S
H1483 C1496 0.960 . S
C1484 H1476 0.929 . S
C1484 C1485 1.377 . S
C1484 C1486 1.384 . S
C1485 C1484 1.377 . S
C1485 C1491 1.390 . S
C1486 H1477 0.930 . S
C1486 C1484 1.384 . S
C1486 C1487 1.372 . S
C1487 C1486 1.372 . S
C1487 C1488 1.400 . S
C1487 C1492 1.490 . S
C1488 H1478 0.930 . S
C1488 C1487 1.400 . S
C1488 C1491 1.386 . S
H1489 C1505 0.930 . S
H1490 C1506 0.931 . S
C1491 H1479 0.892 1_565 S
C1491 C1485 1.390 . S
C1491 C1488 1.386 . S
C1492 C1487 1.490 . S
C1492 C1494 1.395 . S
C1492 C1495 1.403 . S
H1493 C1499 0.930 . S
C1494 H1480 0.930 . S
C1494 C1492 1.395 . S
C1494 C1497 1.403 . S
C1495 C1492 1.403 . S
C1495 C1496 1.524 . S
C1495 C1499 1.400 . S
C1496 H1481 0.960 . S
C1496 H1482 0.960 . S
C1496 H1483 0.960 . S
C1496 C1495 1.524 . S
C1497 C1494 1.403 . S
C1497 C1498 1.392 . S
C1497 C1501 1.495 . S
C1498 C1497 1.392 . S
C1498 C1499 1.385 . S
C1498 C1500 1.478 . S
C1499 H1493 0.930 . S
C1499 C1495 1.400 . S
C1499 C1498 1.385 . S
C1500 C1498 1.478 . S
C1500 C1502 1.381 . S
C1500 C1506 1.383 . S
C1501 C1497 1.495 . S
C1501 H1507 0.959 . S
C1501 H1508 0.961 . S
C1501 H1509 0.960 . S
C1502 C1500 1.381 . S
C1502 C1503 1.394 . S
C1502 H1510 0.930 . S
C1503 C1502 1.394 . S
C1503 C1504 1.383 . S
C1503 H1511 0.929 . S
C1504 C1503 1.383 . S
C1504 C1505 1.377 . S
C1505 H1489 0.930 . S
C1505 C1504 1.377 . S
C1505 C1506 1.379 . S
C1506 H1490 0.931 . S
C1506 C1500 1.383 . S
C1506 C1505 1.379 . S
H1507 C1501 0.959 . S
H1508 C1501 0.961 . S
H1509 C1501 0.960 . S
H1510 C1502 0.930 . S
H1511 C1503 0.929 . S
H1512 C1520 0.929 . S
H1513 C1522 0.930 . S
H1514 C1524 0.930 . S
H1515 C1527 0.929 . S
H1516 C1530 0.930 . S
H1517 C1532 0.960 . S
H1518 C1532 0.960 . S
H1519 C1532 0.960 . S
C1520 H1512 0.929 . S
C1520 C1521 1.377 . S
C1520 C1522 1.384 . S
C1521 C1520 1.377 . S
C1521 C1527 1.390 . S
C1522 H1513 0.930 . S
C1522 C1520 1.384 . S
C1522 C1523 1.372 . S
C1523 C1522 1.372 . S
C1523 C1524 1.400 . S
C1523 C1528 1.490 . S
C1524 H1514 0.930 . S
C1524 C1523 1.400 . S
C1524 C1527 1.386 . S
H1525 C1541 0.930 . S
H1526 C1542 0.931 . S
C1527 H1515 0.929 . S
C1527 C1521 1.390 . S
C1527 C1524 1.386 . S
C1528 C1523 1.490 . S
C1528 C1530 1.395 . S
C1528 C1531 1.403 . S
H1529 C1535 0.930 . S
C1530 H1516 0.930 . S
C1530 C1528 1.395 . S
C1530 C1533 1.403 . S
C1531 C1528 1.403 . S
C1531 C1532 1.524 . S
C1531 C1535 1.400 . S
C1532 H1517 0.960 . S
C1532 H1518 0.960 . S
C1532 H1519 0.960 . S
C1532 C1531 1.524 . S
C1533 C1530 1.403 . S
C1533 C1534 1.392 . S
C1533 C1537 1.495 . S
C1534 C1533 1.392 . S
C1534 C1535 1.385 . S
C1534 C1536 1.478 . S
C1535 H1529 0.930 . S
C1535 C1531 1.400 . S
C1535 C1534 1.385 . S
C1536 C1534 1.478 . S
C1536 C1538 1.381 . S
C1536 C1542 1.383 . S
C1537 C1533 1.495 . S
C1537 H1543 0.959 . S
C1537 H1544 0.961 . S
C1537 H1545 0.960 . S
C1538 C1536 1.381 . S
C1538 C1539 1.394 . S
C1538 H1546 0.930 . S
C1539 C1538 1.394 . S
C1539 C1540 1.383 . S
C1539 H1547 0.929 . S
C1540 C1539 1.383 . S
C1540 C1541 1.377 . S
C1541 H1525 0.930 . S
C1541 C1540 1.377 . S
C1541 C1542 1.379 . S
C1542 H1526 0.931 . S
C1542 C1536 1.383 . S
C1542 C1541 1.379 . S
H1543 C1537 0.959 . S
H1544 C1537 0.961 . S
H1545 C1537 0.960 . S
H1546 C1538 0.930 . S
H1547 C1539 0.929 . S
H1548 C1556 0.929 . S
H1549 C1558 0.930 . S
H1550 C1560 0.930 . S
H1551 C1563 0.929 . S
H1552 C1566 0.930 . S
H1553 C1568 0.960 . S
H1554 C1568 0.960 . S
H1555 C1568 0.960 . S
C1556 H1548 0.929 . S
C1556 C1557 1.377 . S
C1556 C1558 1.384 . S
C1557 C1556 1.377 . S
C1557 C1563 1.390 . S
C1558 H1549 0.930 . S
C1558 C1556 1.384 . S
C1558 C1559 1.372 . S
C1559 C1558 1.372 . S
C1559 C1560 1.400 . S
C1559 C1564 1.490 . S
C1560 H1550 0.930 . S
C1560 C1559 1.400 . S
C1560 C1563 1.386 . S
H1561 C1577 0.930 . S
H1562 C1578 0.931 . S
C1563 H1551 0.929 . S
C1563 C1557 1.390 . S
C1563 C1560 1.386 . S
C1564 C1559 1.490 . S
C1564 C1566 1.395 . S
C1564 C1567 1.403 . S
H1565 C1571 0.930 . S
C1566 H1552 0.930 . S
C1566 C1564 1.395 . S
C1566 C1569 1.403 . S
C1567 C1564 1.403 . S
C1567 C1568 1.524 . S
C1567 C1571 1.400 . S
C1568 H1553 0.960 . S
C1568 H1554 0.960 . S
C1568 H1555 0.960 . S
C1568 C1567 1.524 . S
C1569 C1566 1.403 . S
C1569 C1570 1.392 . S
C1569 C1573 1.495 . S
C1570 C1569 1.392 . S
C1570 C1571 1.385 . S
C1570 C1572 1.478 . S
C1571 H1565 0.930 . S
C1571 C1567 1.400 . S
C1571 C1570 1.385 . S
C1572 C1570 1.478 . S
C1572 C1574 1.381 . S
C1572 C1578 1.383 . S
C1573 C1569 1.495 . S
C1573 H1579 0.959 . S
C1573 H1580 0.961 . S
C1573 H1581 0.960 . S
C1574 C1572 1.381 . S
C1574 C1575 1.394 . S
C1574 H1582 0.930 . S
C1575 C1574 1.394 . S
C1575 C1576 1.383 . S
C1575 H1583 0.929 . S
C1576 C1575 1.383 . S
C1576 C1577 1.377 . S
C1577 H1561 0.930 . S
C1577 C1576 1.377 . S
C1577 C1578 1.379 . S
C1578 H1562 0.931 . S
C1578 C1572 1.383 . S
C1578 C1577 1.379 . S
H1579 C1573 0.959 . S
H1580 C1573 0.961 . S
H1581 C1573 0.960 . S
H1582 C1574 0.930 . S
H1583 C1575 0.929 . S
H1584 C1592 0.929 . S
H1585 C1594 0.930 . S
H1586 C1596 0.930 . S
H1587 C1599 0.929 . S
H1588 C1602 0.930 . S
H1589 C1604 0.960 . S
H1590 C1604 0.960 . S
H1591 C1604 0.960 . S
C1592 H1584 0.929 . S
C1592 C1593 1.377 . S
C1592 C1594 1.384 . S
C1593 C1592 1.377 . S
C1593 C1599 1.390 . S
C1594 H1585 0.930 . S
C1594 C1592 1.384 . S
C1594 C1595 1.372 . S
C1595 C1594 1.372 . S
C1595 C1596 1.400 . S
C1595 C1600 1.490 . S
C1596 H1586 0.930 . S
C1596 C1595 1.400 . S
C1596 C1599 1.386 . S
H1597 C1613 0.930 . S
H1598 C1614 0.931 . S
C1599 H1587 0.929 . S
C1599 C1593 1.390 . S
C1599 C1596 1.386 . S
C1600 C1595 1.490 . S
C1600 C1602 1.395 . S
C1600 C1603 1.403 . S
H1601 C1607 0.930 . S
C1602 H1588 0.930 . S
C1602 C1600 1.395 . S
C1602 C1605 1.403 . S
C1603 C1600 1.403 . S
C1603 C1604 1.524 . S
C1603 C1607 1.400 . S
C1604 H1589 0.960 . S
C1604 H1590 0.960 . S
C1604 H1591 0.960 . S
C1604 C1603 1.524 . S
C1605 C1602 1.403 . S
C1605 C1606 1.392 . S
C1605 C1609 1.495 . S
C1606 C1605 1.392 . S
C1606 C1607 1.385 . S
C1606 C1608 1.478 . S
C1607 H1601 0.930 . S
C1607 C1603 1.400 . S
C1607 C1606 1.385 . S
C1608 C1606 1.478 . S
C1608 C1610 1.381 . S
C1608 C1614 1.383 . S
C1609 C1605 1.495 . S
C1609 H1615 0.959 . S
C1609 H1616 0.961 . S
C1609 H1617 0.960 . S
C1610 C1608 1.381 . S
C1610 C1611 1.394 . S
C1610 H1618 0.930 . S
C1611 C1610 1.394 . S
C1611 C1612 1.383 . S
C1611 H1619 0.929 . S
C1612 C1611 1.383 . S
C1612 C1613 1.377 . S
C1613 H1597 0.930 . S
C1613 C1612 1.377 . S
C1613 C1614 1.379 . S
C1614 H1598 0.931 . S
C1614 C1608 1.383 . S
C1614 C1613 1.379 . S
H1615 C1609 0.959 . S
H1616 C1609 0.961 . S
H1617 C1609 0.960 . S
H1618 C1610 0.930 . S
H1619 C1611 0.929 . S
H1620 C1628 0.929 . S
H1621 C1630 0.930 . S
H1622 C1632 0.930 . S
H1623 C1635 0.929 . S
H1624 C1638 0.930 . S
H1625 C1640 0.960 . S
H1626 C1640 0.960 . S
H1627 C1640 0.960 . S
C1628 H1620 0.929 . S
C1628 C1629 1.377 . S
C1628 C1630 1.384 . S
C1629 C1628 1.377 . S
C1629 C1635 1.390 . S
C1630 H1621 0.930 . S
C1630 C1628 1.384 . S
C1630 C1631 1.372 . S
C1631 C1630 1.372 . S
C1631 C1632 1.400 . S
C1631 C1636 1.490 . S
C1632 H1622 0.930 . S
C1632 C1631 1.400 . S
C1632 C1635 1.386 . S
H1633 C1649 0.930 . S
H1634 C1650 0.931 . S
C1635 H1623 0.929 . S
C1635 C1629 1.390 . S
C1635 C1632 1.386 . S
C1636 C1631 1.490 . S
C1636 C1638 1.395 . S
C1636 C1639 1.403 . S
H1637 C1643 0.930 . S
C1638 H1624 0.930 . S
C1638 C1636 1.395 . S
C1638 C1641 1.403 . S
C1639 C1636 1.403 . S
C1639 C1640 1.524 . S
C1639 C1643 1.400 . S
C1640 H1625 0.960 . S
C1640 H1626 0.960 . S
C1640 H1627 0.960 . S
C1640 C1639 1.524 . S
C1641 C1638 1.403 . S
C1641 C1642 1.392 . S
C1641 C1645 1.495 . S
C1642 C1641 1.392 . S
C1642 C1643 1.385 . S
C1642 C1644 1.478 . S
C1643 H1637 0.930 . S
C1643 C1639 1.400 . S
C1643 C1642 1.385 . S
C1644 C1642 1.478 . S
C1644 C1646 1.381 . S
C1644 C1650 1.383 . S
C1645 C1641 1.495 . S
C1645 H1651 0.959 . S
C1645 H1652 0.961 . S
C1645 H1653 0.960 . S
C1646 C1644 1.381 . S
C1646 C1647 1.394 . S
C1646 H1654 0.930 . S
C1647 C1646 1.394 . S
C1647 C1648 1.383 . S
C1647 H1655 0.929 . S
C1648 C1647 1.383 . S
C1648 C1649 1.377 . S
C1649 H1633 0.930 . S
C1649 C1648 1.377 . S
C1649 C1650 1.379 . S
C1650 H1634 0.931 . S
C1650 C1644 1.383 . S
C1650 C1649 1.379 . S
H1651 C1645 0.959 . S
H1652 C1645 0.961 . S
H1653 C1645 0.960 . S
H1654 C1646 0.930 . S
H1655 C1647 0.929 . S
H1656 C1664 0.929 . S
H1657 C1666 0.930 . S
H1658 C1668 0.930 . S
H1659 C1671 0.929 . S
H1660 C1674 0.930 . S
H1661 C1676 0.960 . S
H1662 C1676 0.960 . S
H1663 C1676 0.960 . S
C1664 H1656 0.929 . S
C1664 C1665 1.377 . S
C1664 C1666 1.384 . S
C1665 C1664 1.377 . S
C1665 C1671 1.390 . S
C1666 H1657 0.930 . S
C1666 C1664 1.384 . S
C1666 C1667 1.372 . S
C1667 C1666 1.372 . S
C1667 C1668 1.400 . S
C1667 C1672 1.490 . S
C1668 H1658 0.930 . S
C1668 C1667 1.400 . S
C1668 C1671 1.386 . S
H1669 C1685 0.930 . S
H1670 C1686 0.931 . S
C1671 H1659 0.929 . S
C1671 C1665 1.390 . S
C1671 C1668 1.386 . S
C1672 C1667 1.490 . S
C1672 C1674 1.395 . S
C1672 C1675 1.403 1_565 S
H1673 C1679 0.930 . S
C1674 H1660 0.930 . S
C1674 C1672 1.395 . S
C1674 C1677 1.403 . S
C1675 C1672 1.403 1_545 S
C1675 C1676 1.524 . S
C1675 C1679 1.400 . S
C1676 H1661 0.960 . S
C1676 H1662 0.960 . S
C1676 H1663 0.960 . S
C1676 C1675 1.524 . S
C1677 C1674 1.403 . S
C1677 C1678 1.392 1_565 S
C1677 C1681 1.495 . S
C1678 C1677 1.392 1_545 S
C1678 C1679 1.385 . S
C1678 C1680 1.478 . S
C1679 H1673 0.930 . S
C1679 C1675 1.400 . S
C1679 C1678 1.385 . S
C1680 C1678 1.478 . S
C1680 C1682 1.381 . S
C1680 C1686 1.383 . S
C1681 C1677 1.495 . S
C1681 H1687 0.959 . S
C1681 H1688 0.961 . S
C1681 H1689 0.960 . S
C1682 C1680 1.381 . S
C1682 C1683 1.394 . S
C1682 H1690 0.930 . S
C1683 C1682 1.394 . S
C1683 C1684 1.383 . S
C1683 H1691 0.929 . S
C1684 C1683 1.383 . S
C1684 C1685 1.377 . S
C1685 H1669 0.930 . S
C1685 C1684 1.377 . S
C1685 C1686 1.379 . S
C1686 H1670 0.931 . S
C1686 C1680 1.383 . S
C1686 C1685 1.379 . S
H1687 C1681 0.959 . S
H1688 C1681 0.961 . S
H1689 C1681 0.960 . S
H1690 C1682 0.930 . S
H1691 C1683 0.929 . S
H1692 C1700 0.929 . S
H1693 C1702 0.930 . S
H1694 C1704 0.930 . S
H1695 C1707 0.929 . S
H1696 C1710 0.930 . S
H1697 C1712 0.960 . S
H1698 C1712 0.960 . S
H1699 C1712 0.960 . S
C1700 H1692 0.929 . S
C1700 C1701 1.377 . S
C1700 C1702 1.384 . S
C1701 C1700 1.377 . S
C1701 C1707 1.390 . S
C1702 H1693 0.930 . S
C1702 C1700 1.384 . S
C1702 C1703 1.372 . S
C1703 C1702 1.372 . S
C1703 C1704 1.400 . S
C1703 C1708 1.490 . S
C1704 H1694 0.930 . S
C1704 C1703 1.400 . S
C1704 C1707 1.386 . S
H1705 C1721 0.930 . S
H1706 C1722 0.931 . S
C1707 H1695 0.929 . S
C1707 C1701 1.390 . S
C1707 C1704 1.386 . S
C1708 C1703 1.490 . S
C1708 C1710 1.395 1_655 S
C1708 C1711 1.403 . S
H1709 C1715 0.930 . S
C1710 H1696 0.930 . S
C1710 C1708 1.395 1_455 S
C1710 C1713 1.403 . S
C1711 C1708 1.403 . S
C1711 C1712 1.524 . S
C1711 C1715 1.400 1_655 S
C1712 H1697 0.960 . S
C1712 H1698 0.960 . S
C1712 H1699 0.960 . S
C1712 C1711 1.524 . S
C1713 C1710 1.403 . S
C1713 C1714 1.392 . S
C1713 C1717 1.495 . S
C1714 C1713 1.392 . S
C1714 C1715 1.385 . S
C1714 C1716 1.478 . S
C1715 H1709 0.930 . S
C1715 C1711 1.400 1_455 S
C1715 C1714 1.385 . S
C1716 C1714 1.478 . S
C1716 C1718 1.381 . S
C1716 C1722 1.383 . S
C1717 C1713 1.495 . S
C1717 H1723 0.959 . S
C1717 H1724 0.961 . S
C1717 H1725 0.960 . S
C1718 C1716 1.381 . S
C1718 C1719 1.394 . S
C1718 H1726 0.930 . S
C1719 C1718 1.394 . S
C1719 C1720 1.383 . S
C1719 H1727 0.929 . S
C1720 C1719 1.383 . S
C1720 C1721 1.377 . S
C1721 H1705 0.930 . S
C1721 C1720 1.377 . S
C1721 C1722 1.379 . S
C1722 H1706 0.931 . S
C1722 C1716 1.383 . S
C1722 C1721 1.379 . S
H1723 C1717 0.959 . S
H1724 C1717 0.961 . S
H1725 C1717 0.960 . S
H1726 C1718 0.930 . S
H1727 C1719 0.929 . S
C765 C142 1.146 . S
C784 C56 1.328 1_554 S
C801 C226 1.168 . S
C820 C140 1.268 1_554 S
C837 C224 1.306 1_554 S
C856 C58 1.218 . S
C873 C238 1.144 . S
C892 C151 1.288 . S
C909 C235 1.260 . S
C928 C70 1.120 . S
C945 C67 1.263 . S
C964 C154 1.182 . S
C981 C308 1.316 . S
C1000 C394 1.108 . S
C1017 C478 1.172 . S
C1036 C392 1.296 . S
C1053 C476 1.312 . S
C1072 C310 1.223 . S
C1089 C403 1.263 . S
C1108 C490 1.177 . S
C1125 C487 1.258 . S
C1144 C322 1.084 . S
C1161 C406 1.111 . S
C1180 C319 1.233 . S
C1197 C646 1.172 . S
C1216 C560 1.286 . S
C1233 C644 1.313 . S
C1252 C730 1.127 . S
C1269 C728 1.307 . S
C1288 C562 1.211 . S
C1305 C742 1.112 . S
C1324 C655 1.247 . S
C1341 C739 1.255 . S
C1360 C574 1.099 . S
C1377 C571 1.256 . S
C1396 C658 1.066 . S
C1413 C494 2.620 . S
C1432 C63 2.697 . S
C1449 C326 2.621 . S
C1468 C147 2.697 . S
C1485 C231 2.687 . S
C1504 C410 2.621 . S
C1521 C242 2.628 . S
C1540 C567 2.669 . S
C1557 C74 2.623 . S
C1576 C651 2.681 . S
C1593 C735 2.683 . S
C1612 C158 2.634 . S
C1629 C315 2.689 . S
C1648 C746 2.605 . S
C1665 C399 2.689 . S
C1684 C578 2.605 . S
C1701 C662 2.620 . S
C1720 C483 2.693 . S
