# Generated by pormake.
# Topology unl, (4)-cn, num edge types: 1
# Building blocks:
#     Node 0, Type 0, BuildingBlock: QUQFOY_clean_sbu_3, # of connection points: 4
#     Node 1, Type 0, BuildingBlock: QUQFOY_clean_sbu_3, # of connection points: 4
#     Node 2, Type 0, BuildingBlock: QUQFOY_clean_sbu_3, # of connection points: 4
#     Node 3, Type 0, BuildingBlock: QUQFOY_clean_sbu_3, # of connection points: 4
#     Node 4, Type 0, BuildingBlock: QUQFOY_clean_sbu_3, # of connection points: 4
#     Node 5, Type 0, BuildingBlock: QUQFOY_clean_sbu_3, # of connection points: 4
#     Node 6, Type 0, BuildingBlock: QUQFOY_clean_sbu_3, # of connection points: 4
#     Node 7, Type 0, BuildingBlock: QUQFOY_clean_sbu_3, # of connection points: 4
#     Node 8, Type 0, BuildingBlock: QUQFOY_clean_sbu_3, # of connection points: 4
#     Node 9, Type 0, BuildingBlock: QUQFOY_clean_sbu_3, # of connection points: 4
#     Node 10, Type 0, BuildingBlock: QUQFOY_clean_sbu_3, # of connection points: 4
#     Node 11, Type 0, BuildingBlock: QUQFOY_clean_sbu_3, # of connection points: 4
#     Node 12, Type 0, BuildingBlock: QUQFOY_clean_sbu_3, # of connection points: 4
#     Node 13, Type 0, BuildingBlock: QUQFOY_clean_sbu_3, # of connection points: 4
#     Node 14, Type 0, BuildingBlock: QUQFOY_clean_sbu_3, # of connection points: 4
#     Node 15, Type 0, BuildingBlock: QUQFOY_clean_sbu_3, # of connection points: 4
#     Node 16, Type 0, BuildingBlock: QUQFOY_clean_sbu_3, # of connection points: 4
#     Node 17, Type 0, BuildingBlock: QUQFOY_clean_sbu_3, # of connection points: 4
#     Node 18, Type 0, BuildingBlock: QUQFOY_clean_sbu_3, # of connection points: 4
#     Node 19, Type 0, BuildingBlock: QUQFOY_clean_sbu_3, # of connection points: 4
#     Node 20, Type 0, BuildingBlock: QUQFOY_clean_sbu_3, # of connection points: 4
#     Node 21, Type 0, BuildingBlock: QUQFOY_clean_sbu_3, # of connection points: 4
#     Node 22, Type 0, BuildingBlock: QUQFOY_clean_sbu_3, # of connection points: 4
#     Node 23, Type 0, BuildingBlock: QUQFOY_clean_sbu_3, # of connection points: 4
#     Node 24, Type 0, BuildingBlock: QUQFOY_clean_sbu_3, # of connection points: 4
#     Node 25, Type 0, BuildingBlock: QUQFOY_clean_sbu_3, # of connection points: 4
#     Node 26, Type 0, BuildingBlock: QUQFOY_clean_sbu_3, # of connection points: 4
#     Node 27, Type 0, BuildingBlock: QUQFOY_clean_sbu_3, # of connection points: 4
#     Node 28, Type 0, BuildingBlock: QUQFOY_clean_sbu_3, # of connection points: 4
#     Node 29, Type 0, BuildingBlock: QUQFOY_clean_sbu_3, # of connection points: 4
#     Node 30, Type 0, BuildingBlock: QUQFOY_clean_sbu_3, # of connection points: 4
#     Node 31, Type 0, BuildingBlock: QUQFOY_clean_sbu_3, # of connection points: 4
#     Node 32, Type 0, BuildingBlock: QUQFOY_clean_sbu_3, # of connection points: 4
#     Node 33, Type 0, BuildingBlock: QUQFOY_clean_sbu_3, # of connection points: 4
#     Node 34, Type 0, BuildingBlock: QUQFOY_clean_sbu_3, # of connection points: 4
#     Node 35, Type 0, BuildingBlock: QUQFOY_clean_sbu_3, # of connection points: 4
#     Edge 36, Type (0, 0), BuildingBlock: UVAHIK_clean_linker_0, # of connection points: 2
#     Edge 37, Type (0, 0), BuildingBlock: UVAHIK_clean_linker_0, # of connection points: 2
#     Edge 38, Type (0, 0), BuildingBlock: UVAHIK_clean_linker_0, # of connection points: 2
#     Edge 39, Type (0, 0), BuildingBlock: UVAHIK_clean_linker_0, # of connection points: 2
#     Edge 40, Type (0, 0), BuildingBlock: UVAHIK_clean_linker_0, # of connection points: 2
#     Edge 41, Type (0, 0), BuildingBlock: UVAHIK_clean_linker_0, # of connection points: 2
#     Edge 42, Type (0, 0), BuildingBlock: UVAHIK_clean_linker_0, # of connection points: 2
#     Edge 43, Type (0, 0), BuildingBlock: UVAHIK_clean_linker_0, # of connection points: 2
#     Edge 44, Type (0, 0), BuildingBlock: UVAHIK_clean_linker_0, # of connection points: 2
#     Edge 45, Type (0, 0), BuildingBlock: UVAHIK_clean_linker_0, # of connection points: 2
#     Edge 46, Type (0, 0), BuildingBlock: UVAHIK_clean_linker_0, # of connection points: 2
#     Edge 47, Type (0, 0), BuildingBlock: UVAHIK_clean_linker_0, # of connection points: 2
#     Edge 48, Type (0, 0), BuildingBlock: UVAHIK_clean_linker_0, # of connection points: 2
#     Edge 49, Type (0, 0), BuildingBlock: UVAHIK_clean_linker_0, # of connection points: 2
#     Edge 50, Type (0, 0), BuildingBlock: UVAHIK_clean_linker_0, # of connection points: 2
#     Edge 51, Type (0, 0), BuildingBlock: UVAHIK_clean_linker_0, # of connection points: 2
#     Edge 52, Type (0, 0), BuildingBlock: UVAHIK_clean_linker_0, # of connection points: 2
#     Edge 53, Type (0, 0), BuildingBlock: UVAHIK_clean_linker_0, # of connection points: 2
#     Edge 54, Type (0, 0), BuildingBlock: UVAHIK_clean_linker_0, # of connection points: 2
#     Edge 55, Type (0, 0), BuildingBlock: UVAHIK_clean_linker_0, # of connection points: 2
#     Edge 56, Type (0, 0), BuildingBlock: UVAHIK_clean_linker_0, # of connection points: 2
#     Edge 57, Type (0, 0), BuildingBlock: UVAHIK_clean_linker_0, # of connection points: 2
#     Edge 58, Type (0, 0), BuildingBlock: UVAHIK_clean_linker_0, # of connection points: 2
#     Edge 59, Type (0, 0), BuildingBlock: UVAHIK_clean_linker_0, # of connection points: 2
#     Edge 60, Type (0, 0), BuildingBlock: UVAHIK_clean_linker_0, # of connection points: 2
#     Edge 61, Type (0, 0), BuildingBlock: UVAHIK_clean_linker_0, # of connection points: 2
#     Edge 62, Type (0, 0), BuildingBlock: UVAHIK_clean_linker_0, # of connection points: 2
#     Edge 63, Type (0, 0), BuildingBlock: UVAHIK_clean_linker_0, # of connection points: 2
#     Edge 64, Type (0, 0), BuildingBlock: UVAHIK_clean_linker_0, # of connection points: 2
#     Edge 65, Type (0, 0), BuildingBlock: UVAHIK_clean_linker_0, # of connection points: 2
#     Edge 66, Type (0, 0), BuildingBlock: UVAHIK_clean_linker_0, # of connection points: 2
#     Edge 67, Type (0, 0), BuildingBlock: UVAHIK_clean_linker_0, # of connection points: 2
#     Edge 68, Type (0, 0), BuildingBlock: UVAHIK_clean_linker_0, # of connection points: 2
#     Edge 69, Type (0, 0), BuildingBlock: UVAHIK_clean_linker_0, # of connection points: 2
#     Edge 70, Type (0, 0), BuildingBlock: UVAHIK_clean_linker_0, # of connection points: 2
#     Edge 71, Type (0, 0), BuildingBlock: UVAHIK_clean_linker_0, # of connection points: 2
#     Edge 72, Type (0, 0), BuildingBlock: UVAHIK_clean_linker_0, # of connection points: 2
#     Edge 73, Type (0, 0), BuildingBlock: UVAHIK_clean_linker_0, # of connection points: 2
#     Edge 74, Type (0, 0), BuildingBlock: UVAHIK_clean_linker_0, # of connection points: 2
#     Edge 75, Type (0, 0), BuildingBlock: UVAHIK_clean_linker_0, # of connection points: 2
#     Edge 76, Type (0, 0), BuildingBlock: UVAHIK_clean_linker_0, # of connection points: 2
#     Edge 77, Type (0, 0), BuildingBlock: UVAHIK_clean_linker_0, # of connection points: 2
#     Edge 78, Type (0, 0), BuildingBlock: UVAHIK_clean_linker_0, # of connection points: 2
#     Edge 79, Type (0, 0), BuildingBlock: UVAHIK_clean_linker_0, # of connection points: 2
#     Edge 80, Type (0, 0), BuildingBlock: UVAHIK_clean_linker_0, # of connection points: 2
#     Edge 81, Type (0, 0), BuildingBlock: UVAHIK_clean_linker_0, # of connection points: 2
#     Edge 82, Type (0, 0), BuildingBlock: UVAHIK_clean_linker_0, # of connection points: 2
#     Edge 83, Type (0, 0), BuildingBlock: UVAHIK_clean_linker_0, # of connection points: 2
#     Edge 84, Type (0, 0), BuildingBlock: UVAHIK_clean_linker_0, # of connection points: 2
#     Edge 85, Type (0, 0), BuildingBlock: UVAHIK_clean_linker_0, # of connection points: 2
#     Edge 86, Type (0, 0), BuildingBlock: UVAHIK_clean_linker_0, # of connection points: 2
#     Edge 87, Type (0, 0), BuildingBlock: UVAHIK_clean_linker_0, # of connection points: 2
#     Edge 88, Type (0, 0), BuildingBlock: UVAHIK_clean_linker_0, # of connection points: 2
#     Edge 89, Type (0, 0), BuildingBlock: UVAHIK_clean_linker_0, # of connection points: 2
#     Edge 90, Type (0, 0), BuildingBlock: UVAHIK_clean_linker_0, # of connection points: 2
#     Edge 91, Type (0, 0), BuildingBlock: UVAHIK_clean_linker_0, # of connection points: 2
#     Edge 92, Type (0, 0), BuildingBlock: UVAHIK_clean_linker_0, # of connection points: 2
#     Edge 93, Type (0, 0), BuildingBlock: UVAHIK_clean_linker_0, # of connection points: 2
#     Edge 94, Type (0, 0), BuildingBlock: UVAHIK_clean_linker_0, # of connection points: 2
#     Edge 95, Type (0, 0), BuildingBlock: UVAHIK_clean_linker_0, # of connection points: 2
#     Edge 96, Type (0, 0), BuildingBlock: UVAHIK_clean_linker_0, # of connection points: 2
#     Edge 97, Type (0, 0), BuildingBlock: UVAHIK_clean_linker_0, # of connection points: 2
#     Edge 98, Type (0, 0), BuildingBlock: UVAHIK_clean_linker_0, # of connection points: 2
#     Edge 99, Type (0, 0), BuildingBlock: UVAHIK_clean_linker_0, # of connection points: 2
#     Edge 100, Type (0, 0), BuildingBlock: UVAHIK_clean_linker_0, # of connection points: 2
#     Edge 101, Type (0, 0), BuildingBlock: UVAHIK_clean_linker_0, # of connection points: 2
#     Edge 102, Type (0, 0), BuildingBlock: UVAHIK_clean_linker_0, # of connection points: 2
#     Edge 103, Type (0, 0), BuildingBlock: UVAHIK_clean_linker_0, # of connection points: 2
#     Edge 104, Type (0, 0), BuildingBlock: UVAHIK_clean_linker_0, # of connection points: 2
#     Edge 105, Type (0, 0), BuildingBlock: UVAHIK_clean_linker_0, # of connection points: 2
#     Edge 106, Type (0, 0), BuildingBlock: UVAHIK_clean_linker_0, # of connection points: 2
#     Edge 107, Type (0, 0), BuildingBlock: UVAHIK_clean_linker_0, # of connection points: 2
# Relax obj value: 0.040
# Max RMSD: 0.120
# Mean RMSD: 0.119
data_MOF--net-unl--node1-QUQFOY_clean_sbu_3--edge1-UVAHIK_clean_linker_0
_symmetry_space_group_name_H-M    P1
_symmetry_Int_Tables_number       1
_symmetry_cell_setting            triclinic
loop_
_symmetry_equiv_pos_as_xyz
'x, y, z'
_cell_length_a     89.24012
_cell_length_b     89.002377
_cell_length_c     56.150963
_cell_angle_alpha  90.063238
_cell_angle_beta   89.9018
_cell_angle_gamma 120.26119
loop_
_atom_site_label
_atom_site_type_symbol
_atom_site_fract_x
_atom_site_fract_y
_atom_site_fract_z
_atom_type_partial_charge
C0 C 0.14768 0.0609 0.06422 0.0
O1 O 0.13445 0.06006 0.07404 0.0
Cd2 Cd 0.13426 0.08447 0.09238 0.0
O3 O 0.16242 0.07482 0.06539 0.0
Cd4 Cd 0.17537 0.10398 0.08506 0.0
C5 C 0.15278 0.11503 0.04757 0.0
O6 O 0.15697 0.09705 0.12087 0.0
O7 O 0.17305 0.12423 0.11199 0.0
O8 O 0.198 0.09945 0.10198 0.0
C9 C 0.16245 0.11283 0.12634 0.0
O10 O 0.13983 0.10557 0.06089 0.0
C11 C 0.21076 0.11364 0.09463 0.0
O12 O 0.16744 0.11607 0.05073 0.0
O13 O 0.20717 0.12317 0.0818 0.0
C14 C 0.87927 0.0738 0.06322 0.0
O15 O 0.8784 0.06012 0.07159 0.0
Cd16 Cd 0.85383 0.03669 0.0915 0.0
O17 O 0.86647 0.07631 0.06546 0.0
Cd18 Cd 0.83676 0.06038 0.08352 0.0
C19 C 0.82412 0.02568 0.04657 0.0
O20 O 0.84282 0.04863 0.11962 0.0
O21 O 0.81587 0.03841 0.11086 0.0
O22 O 0.84175 0.08799 0.09983 0.0
C23 C 0.82701 0.03893 0.12532 0.0
O24 O 0.83231 0.02122 0.06075 0.0
C25 C 0.82781 0.08676 0.09209 0.0
O26 O 0.82468 0.04023 0.04888 0.0
O27 O 0.81825 0.07355 0.07926 0.0
C28 C 0.86492 0.79394 0.0619 0.0
O29 O 0.87707 0.80713 0.07229 0.0
Cd30 Cd 0.90187 0.80754 0.09013 0.0
O31 O 0.86443 0.77937 0.06231 0.0
Cd32 Cd 0.88088 0.7666 0.08106 0.0
C33 C 0.91457 0.79064 0.044 0.0
O34 O 0.89233 0.78424 0.11761 0.0
O35 O 0.90382 0.76895 0.10694 0.0
O36 O 0.85375 0.74357 0.09781 0.0
C37 C 0.9029 0.77901 0.12211 0.0
O38 O 0.91783 0.80313 0.05813 0.0
C39 C 0.85516 0.73093 0.09006 0.0
O40 O 0.90093 0.77575 0.04647 0.0
O41 O 0.86829 0.73477 0.07703 0.0
C42 C 0.04611 0.16304 0.37539 0.0
O43 O 0.04376 0.14968 0.36404 0.0
Cd44 Cd 0.0678 0.14714 0.34999 0.0
O45 O 0.06115 0.17659 0.37638 0.0
Cd46 Cd 0.09065 0.18788 0.3582 0.0
C47 C 0.09567 0.16275 0.39868 0.0
O48 O 0.08441 0.16974 0.32216 0.0
O49 O 0.11107 0.18403 0.33404 0.0
O50 O 0.08749 0.21088 0.33981 0.0
C51 C 0.10017 0.17412 0.31865 0.0
O52 O 0.08476 0.15029 0.38567 0.0
C53 C 0.10151 0.22355 0.34765 0.0
O54 O 0.10048 0.17853 0.39355 0.0
O55 O 0.11052 0.21978 0.36132 0.0
C56 C 0.78004 0.87656 0.37579 0.0
O57 O 0.79312 0.88922 0.36591 0.0
Cd58 Cd 0.7938 0.91449 0.35021 0.0
O59 O 0.76539 0.87586 0.37588 0.0
Cd60 Cd 0.75239 0.89309 0.35926 0.0
C61 C 0.77688 0.92471 0.39926 0.0
O62 O 0.77025 0.9055 0.32333 0.0
O63 O 0.75459 0.9165 0.33419 0.0
O64 O 0.72956 0.86627 0.34141 0.0
C65 C 0.765 0.9161 0.31917 0.0
O66 O 0.78949 0.92746 0.38576 0.0
C67 C 0.71685 0.86728 0.34967 0.0
O68 O 0.76141 0.91264 0.39464 0.0
O69 O 0.72054 0.88005 0.36343 0.0
C70 C 0.06393 0.89399 0.37509 0.0
O71 O 0.05164 0.8948 0.36497 0.0
Cd72 Cd 0.02698 0.87018 0.34682 0.0
O73 O 0.06456 0.88 0.37443 0.0
Cd74 Cd 0.04823 0.85059 0.35565 0.0
C75 C 0.0142 0.8401 0.39243 0.0
O76 O 0.03706 0.85702 0.31923 0.0
O77 O 0.0257 0.82997 0.32892 0.0
O78 O 0.07558 0.8552 0.33933 0.0
C79 C 0.02665 0.84118 0.31415 0.0
O80 O 0.01094 0.84936 0.37846 0.0
C81 C 0.07422 0.84118 0.34708 0.0
O82 O 0.02792 0.83913 0.38996 0.0
O83 O 0.06096 0.83162 0.35983 0.0
C84 C 0.7793 0.89276 0.87605 0.0
O85 O 0.79256 0.89404 0.86571 0.0
Cd86 Cd 0.7933 0.86988 0.84741 0.0
O87 O 0.76483 0.8785 0.87546 0.0
Cd88 Cd 0.75237 0.84922 0.85643 0.0
C89 C 0.77662 0.8398 0.89311 0.0
O90 O 0.77007 0.85619 0.81992 0.0
O91 O 0.75496 0.82907 0.82963 0.0
O92 O 0.72928 0.85319 0.84023 0.0
C93 C 0.76499 0.84044 0.8148 0.0
O94 O 0.78906 0.8493 0.87905 0.0
C95 C 0.71672 0.83888 0.84763 0.0
O96 O 0.7617 0.83831 0.89074 0.0
O97 O 0.72062 0.82947 0.86024 0.0
C98 C 0.04919 0.87672 0.874 0.0
O99 O 0.04799 0.88838 0.86261 0.0
Cd100 Cd 0.07285 0.91342 0.84566 0.0
O101 O 0.06353 0.87685 0.87462 0.0
Cd102 Cd 0.09299 0.89376 0.85623 0.0
C103 C 0.10135 0.92684 0.89324 0.0
O104 O 0.08789 0.90502 0.81873 0.0
O105 O 0.11401 0.91827 0.83255 0.0
O106 O 0.08932 0.86694 0.83915 0.0
C107 C 0.10373 0.91655 0.81583 0.0
O108 O 0.09228 0.92976 0.87847 0.0
C109 C 0.10331 0.86845 0.84713 0.0
O110 O 0.10294 0.91342 0.89121 0.0
O111 O 0.11244 0.88154 0.86041 0.0
C112 C 0.06705 0.162 0.8761 0.0
O113 O 0.05615 0.14862 0.86463 0.0
Cd114 Cd 0.03002 0.1463 0.8491 0.0
O115 O 0.06568 0.17559 0.87653 0.0
Cd116 Cd 0.04781 0.18687 0.85766 0.0
C117 C 0.017 0.16145 0.89744 0.0
O118 O 0.03653 0.16903 0.82125 0.0
O119 O 0.02383 0.183 0.83295 0.0
O120 O 0.07431 0.21017 0.84 0.0
C121 C 0.0252 0.17339 0.81745 0.0
O122 O 0.01556 0.14911 0.88431 0.0
C123 C 0.07269 0.22268 0.84773 0.0
O124 O 0.02811 0.17727 0.89263 0.0
O125 O 0.05964 0.21868 0.86104 0.0
C126 C 0.88093 0.7919 0.56346 0.0
O127 O 0.88307 0.80519 0.57477 0.0
Cd128 Cd 0.85879 0.80715 0.58917 0.0
O129 O 0.86605 0.77811 0.56276 0.0
Cd130 Cd 0.83669 0.76633 0.58171 0.0
C131 C 0.83041 0.79054 0.54114 0.0
O132 O 0.84296 0.78469 0.61752 0.0
O133 O 0.81621 0.76986 0.6062 0.0
O134 O 0.84033 0.74359 0.60015 0.0
C135 C 0.82716 0.78001 0.62136 0.0
O136 O 0.84132 0.80329 0.55375 0.0
C137 C 0.82632 0.73081 0.59247 0.0
O138 O 0.82598 0.77492 0.54658 0.0
O139 O 0.81716 0.7344 0.57887 0.0
C140 C 0.14752 0.0764 0.56287 0.0
O141 O 0.1348 0.06286 0.57182 0.0
Cd142 Cd 0.13626 0.0393 0.59033 0.0
O143 O 0.1628 0.07868 0.56407 0.0
Cd144 Cd 0.17652 0.06243 0.58108 0.0
C145 C 0.15387 0.02855 0.54354 0.0
O146 O 0.15957 0.05007 0.61792 0.0
O147 O 0.17432 0.03857 0.60516 0.0
O148 O 0.19929 0.08941 0.59878 0.0
C149 C 0.16491 0.03946 0.62139 0.0
O150 O 0.14153 0.02405 0.55838 0.0
C151 C 0.21202 0.08847 0.59045 0.0
O152 O 0.16802 0.04307 0.54557 0.0
O153 O 0.20836 0.07572 0.57667 0.0
C154 C 0.86583 0.0626 0.56305 0.0
O155 O 0.87946 0.06321 0.57097 0.0
Cd156 Cd 0.90336 0.0876 0.59049 0.0
O157 O 0.86363 0.07561 0.56557 0.0
Cd158 Cd 0.88003 0.10535 0.58367 0.0
C159 C 0.91432 0.1179 0.54609 0.0
O160 O 0.89207 0.0989 0.61912 0.0
O161 O 0.90226 0.12601 0.61088 0.0
O162 O 0.85276 0.10058 0.6007 0.0
C163 C 0.90196 0.1147 0.62488 0.0
O164 O 0.91862 0.10933 0.55982 0.0
C165 C 0.85399 0.11457 0.59304 0.0
O166 O 0.89995 0.1176 0.54885 0.0
O167 O 0.86708 0.12412 0.58003 0.0
C168 C 0.81441 0.39268 0.40034 0.0
O169 O 0.8013 0.38982 0.41268 0.0
Cd170 Cd 0.79849 0.41324 0.42889 0.0
O171 O 0.82768 0.40794 0.39928 0.0
Cd172 Cd 0.83901 0.4373 0.41805 0.0
C173 C 0.81202 0.44145 0.38019 0.0
O174 O 0.82193 0.43027 0.45512 0.0
O175 O 0.83531 0.45716 0.44377 0.0
O176 O 0.8625 0.43417 0.43435 0.0
C177 C 0.82597 0.44592 0.45922 0.0
O178 O 0.80034 0.43032 0.39397 0.0
C179 C 0.87488 0.44851 0.42677 0.0
O180 O 0.82805 0.44679 0.3839 0.0
O181 O 0.87074 0.45769 0.41404 0.0
C182 C 0.54663 0.41638 0.39929 0.0
O183 O 0.5494 0.40573 0.41075 0.0
Cd184 Cd 0.52586 0.37925 0.42646 0.0
O185 O 0.5315 0.41456 0.39898 0.0
Cd186 Cd 0.50238 0.39624 0.41818 0.0
C187 C 0.49723 0.36553 0.37852 0.0
O188 O 0.50958 0.38548 0.45439 0.0
O189 O 0.48266 0.37226 0.44359 0.0
O190 O 0.50573 0.42276 0.43573 0.0
C191 C 0.49394 0.37391 0.45867 0.0
O192 O 0.50848 0.36462 0.39141 0.0
C193 C 0.49148 0.42095 0.42833 0.0
O194 O 0.49211 0.37624 0.38344 0.0
O195 O 0.48226 0.40776 0.41526 0.0
C196 C 0.53364 0.12884 0.39554 0.0
O197 O 0.54737 0.14142 0.40428 0.0
Cd198 Cd 0.57017 0.13969 0.42459 0.0
O199 O 0.53057 0.11326 0.39761 0.0
Cd200 Cd 0.54543 0.0986 0.41596 0.0
C201 C 0.58051 0.1204 0.37948 0.0
O202 O 0.55755 0.11636 0.45208 0.0
O203 O 0.56704 0.09907 0.4431 0.0
O204 O 0.51761 0.07628 0.43227 0.0
C205 C 0.56698 0.10997 0.45758 0.0
O206 O 0.58518 0.13309 0.3938 0.0
C207 C 0.51837 0.06333 0.42431 0.0
O208 O 0.56576 0.10651 0.38156 0.0
O209 O 0.53142 0.06671 0.41137 0.0
C210 C 0.71075 0.49712 0.70806 0.0
O211 O 0.70811 0.48396 0.69595 0.0
Cd212 Cd 0.73178 0.48095 0.68152 0.0
O213 O 0.72596 0.51038 0.70961 0.0
Cd214 Cd 0.75549 0.5216 0.69157 0.0
C215 C 0.75934 0.4951 0.73079 0.0
O216 O 0.74916 0.50409 0.65494 0.0
O217 O 0.77577 0.51774 0.6671 0.0
O218 O 0.75261 0.54495 0.67396 0.0
C219 C 0.76485 0.50815 0.65152 0.0
O220 O 0.74831 0.48317 0.71722 0.0
C221 C 0.7667 0.55745 0.68194 0.0
O222 O 0.76474 0.51112 0.72645 0.0
O223 O 0.77562 0.55344 0.6954 0.0
C224 C 0.44788 0.2109 0.70839 0.0
O225 O 0.46101 0.22367 0.69878 0.0
Cd226 Cd 0.46178 0.24899 0.68311 0.0
O227 O 0.43318 0.21012 0.70825 0.0
Cd228 Cd 0.42026 0.22742 0.69162 0.0
C229 C 0.44447 0.25894 0.73195 0.0
O230 O 0.43841 0.24002 0.65594 0.0
O231 O 0.42256 0.25087 0.66654 0.0
O232 O 0.3974 0.20072 0.67349 0.0
C233 C 0.43313 0.25059 0.65169 0.0
O234 O 0.45719 0.2618 0.71861 0.0
C235 C 0.38471 0.20178 0.68174 0.0
O236 O 0.42906 0.24685 0.72712 0.0
O237 O 0.38843 0.21449 0.69563 0.0
C238 C 0.72818 0.2244 0.7107 0.0
O239 O 0.71512 0.2246 0.7021 0.0
Cd240 Cd 0.69094 0.20022 0.68278 0.0
O241 O 0.72954 0.21087 0.70863 0.0
Cd242 Cd 0.71293 0.18135 0.69029 0.0
C243 C 0.67876 0.16984 0.72748 0.0
O244 O 0.70143 0.18793 0.65432 0.0
O245 O 0.69049 0.16083 0.66345 0.0
O246 O 0.74014 0.18589 0.6735 0.0
C247 C 0.69126 0.17209 0.64894 0.0
O248 O 0.67502 0.17881 0.71365 0.0
C249 C 0.73877 0.17183 0.68114 0.0
O250 O 0.69281 0.16951 0.7249 0.0
O251 O 0.7256 0.16232 0.69406 0.0
C252 C 0.44669 0.2298 0.20651 0.0
O253 O 0.45926 0.23105 0.19431 0.0
Cd254 Cd 0.46001 0.2066 0.17827 0.0
O255 O 0.43259 0.21521 0.20815 0.0
Cd256 Cd 0.41987 0.18504 0.19089 0.0
C257 C 0.44641 0.18012 0.22859 0.0
O258 O 0.43578 0.18999 0.15308 0.0
O259 O 0.4232 0.16391 0.16728 0.0
O260 O 0.39639 0.18805 0.17422 0.0
C261 C 0.43168 0.17419 0.15042 0.0
O262 O 0.45806 0.19017 0.2139 0.0
C263 C 0.384 0.17408 0.18271 0.0
O264 O 0.43054 0.17577 0.22558 0.0
O265 O 0.38817 0.16523 0.1961 0.0
C266 C 0.71467 0.20815 0.21061 0.0
O267 O 0.71353 0.22007 0.19988 0.0
Cd268 Cd 0.73823 0.24518 0.18273 0.0
O269 O 0.72894 0.20811 0.21066 0.0
Cd270 Cd 0.75828 0.22526 0.19198 0.0
C271 C 0.76754 0.25841 0.2292 0.0
O272 O 0.75284 0.23682 0.15497 0.0
O273 O 0.77909 0.24987 0.16827 0.0
O274 O 0.75479 0.1987 0.17421 0.0
C275 C 0.76866 0.24833 0.15188 0.0
O276 O 0.75838 0.26151 0.21488 0.0
C277 C 0.76879 0.2002 0.18215 0.0
O278 O 0.76888 0.24485 0.22695 0.0
O279 O 0.77783 0.21315 0.19568 0.0
C280 C 0.7252 0.49307 0.21247 0.0
O281 O 0.71141 0.48043 0.20394 0.0
Cd282 Cd 0.68883 0.4821 0.1829 0.0
O283 O 0.72843 0.50866 0.20975 0.0
Cd284 Cd 0.71359 0.52301 0.19029 0.0
C285 C 0.67842 0.50217 0.22665 0.0
O286 O 0.70153 0.5048 0.15439 0.0
O287 O 0.69202 0.52217 0.16274 0.0
O288 O 0.74137 0.54534 0.17376 0.0
C289 C 0.6922 0.51122 0.14848 0.0
O290 O 0.67366 0.48922 0.2128 0.0
C291 C 0.74042 0.55828 0.18132 0.0
O292 O 0.69324 0.51592 0.22442 0.0
O293 O 0.72733 0.5549 0.19415 0.0
C294 C 0.54608 0.12344 0.89795 0.0
O295 O 0.54857 0.13665 0.90978 0.0
Cd296 Cd 0.52429 0.13896 0.92307 0.0
O297 O 0.53093 0.11008 0.89661 0.0
Cd298 Cd 0.50163 0.09917 0.91536 0.0
C299 C 0.49657 0.12358 0.87427 0.0
O300 O 0.50745 0.11699 0.95171 0.0
O301 O 0.48135 0.10441 0.93774 0.0
O302 O 0.50444 0.07625 0.93466 0.0
C303 C 0.4918 0.11331 0.9542 0.0
O304 O 0.50754 0.1361 0.88715 0.0
C305 C 0.4904 0.06356 0.9269 0.0
O306 O 0.49169 0.10784 0.87966 0.0
O307 O 0.48152 0.06727 0.91291 0.0
C308 C 0.81032 0.40796 0.89857 0.0
O309 O 0.79781 0.39536 0.90941 0.0
Cd310 Cd 0.79892 0.37187 0.9286 0.0
O311 O 0.82533 0.40949 0.89856 0.0
Cd312 Cd 0.83901 0.39343 0.91648 0.0
C313 C 0.8144 0.35867 0.88135 0.0
O314 O 0.82316 0.38232 0.95445 0.0
O315 O 0.83699 0.36999 0.94107 0.0
O316 O 0.86224 0.42064 0.93275 0.0
C317 C 0.82818 0.37142 0.95772 0.0
O318 O 0.80256 0.35566 0.89648 0.0
C319 C 0.87474 0.41937 0.92423 0.0
O320 O 0.8292 0.37258 0.88253 0.0
O321 O 0.87072 0.4063 0.91092 0.0
C322 C 0.53115 0.39651 0.89695 0.0
O323 O 0.54479 0.39728 0.90515 0.0
Cd324 Cd 0.5685 0.42195 0.9245 0.0
O325 O 0.52883 0.40946 0.89914 0.0
Cd326 Cd 0.54493 0.43931 0.91698 0.0
C327 C 0.57927 0.45184 0.87955 0.0
O328 O 0.55719 0.43348 0.95277 0.0
O329 O 0.56724 0.46042 0.94362 0.0
O330 O 0.51763 0.43443 0.93407 0.0
C331 C 0.56704 0.44939 0.95805 0.0
O332 O 0.58365 0.44345 0.89353 0.0
C333 C 0.51865 0.44825 0.92608 0.0
O334 O 0.56484 0.45143 0.88212 0.0
O335 O 0.53162 0.45773 0.91285 0.0
C336 C 0.47857 0.73074 0.72932 0.0
O337 O 0.46612 0.73204 0.73804 0.0
Cd338 Cd 0.46808 0.75661 0.75874 0.0
O339 O 0.49419 0.74317 0.73162 0.0
Cd340 Cd 0.50905 0.77277 0.75046 0.0
C341 C 0.48789 0.78668 0.71413 0.0
O342 O 0.49113 0.76681 0.78646 0.0
O343 O 0.50868 0.7938 0.77819 0.0
O344 O 0.53121 0.7671 0.76647 0.0
C345 C 0.49764 0.78264 0.79239 0.0
O346 O 0.47511 0.77859 0.72829 0.0
C347 C 0.54418 0.78102 0.75881 0.0
O348 O 0.50161 0.78567 0.71629 0.0
O349 O 0.54087 0.79084 0.74616 0.0
C350 C 0.21393 0.74141 0.73275 0.0
O351 O 0.21361 0.72835 0.74243 0.0
Cd352 Cd 0.18933 0.70489 0.76255 0.0
O353 O 0.20072 0.74335 0.73396 0.0
Cd354 Cd 0.17098 0.72751 0.75217 0.0
C355 C 0.15939 0.69214 0.71699 0.0
O356 O 0.17709 0.71654 0.78902 0.0
O357 O 0.15015 0.70582 0.77969 0.0
O358 O 0.17585 0.75524 0.76773 0.0
C359 C 0.16125 0.7066 0.79443 0.0
O360 O 0.16847 0.68896 0.73138 0.0
C361 C 0.16195 0.75394 0.75977 0.0
O362 O 0.15883 0.70618 0.7187 0.0
O363 O 0.15241 0.74062 0.7471 0.0
C364 C 0.19145 0.45819 0.73232 0.0
O365 O 0.20225 0.47117 0.74448 0.0
Cd366 Cd 0.22782 0.47271 0.76108 0.0
O367 O 0.19261 0.44449 0.73128 0.0
Cd368 Cd 0.21015 0.43301 0.75057 0.0
C369 C 0.24279 0.45866 0.7137 0.0
O370 O 0.22084 0.44957 0.78822 0.0
O371 O 0.23499 0.43775 0.77412 0.0
O372 O 0.18375 0.40945 0.76795 0.0
C373 C 0.23286 0.44601 0.79093 0.0
O374 O 0.24444 0.47056 0.72795 0.0
C375 C 0.18549 0.39705 0.76003 0.0
O376 O 0.23031 0.44304 0.71618 0.0
O377 O 0.19857 0.40123 0.7467 0.0
C378 C 0.37886 0.82684 0.04119 0.0
O379 O 0.37831 0.81383 0.03098 0.0
Cd380 Cd 0.403 0.81355 0.01498 0.0
O381 O 0.39293 0.84153 0.04141 0.0
Cd382 Cd 0.42318 0.85491 0.02463 0.0
C383 C 0.43031 0.83032 0.06395 0.0
O384 O 0.41773 0.83737 -0.01166 0.0
O385 O 0.44446 0.85319 -0.00078 0.0
O386 O 0.41885 0.87752 0.00734 0.0
C387 C 0.43364 0.84284 -0.01589 0.0
O388 O 0.4203 0.81777 0.05037 0.0
C389 C 0.43255 0.89038 0.01557 0.0
O390 O 0.43386 0.84586 0.05964 0.0
O391 O 0.44184 0.88687 0.02904 0.0
C392 C 0.11045 0.54277 0.04514 0.0
O393 O 0.12368 0.55522 0.03522 0.0
Cd394 Cd 0.12408 0.58006 0.01742 0.0
O395 O 0.09577 0.54195 0.04426 0.0
Cd396 Cd 0.08294 0.55822 0.0249 0.0
C397 C 0.10572 0.59191 0.0626 0.0
O398 O 0.10132 0.57025 -0.01088 0.0
O399 O 0.08544 0.58124 -0.00111 0.0
O400 O 0.06025 0.53114 0.0073 0.0
C401 C 0.09598 0.58069 -0.01575 0.0
O402 O 0.11864 0.59544 0.04927 0.0
C403 C 0.04752 0.5324 0.01491 0.0
O404 O 0.09097 0.57825 0.05937 0.0
O405 O 0.05115 0.54537 0.02821 0.0
C406 C 0.39448 0.55965 0.04346 0.0
O407 O 0.38129 0.55957 0.03483 0.0
Cd408 Cd 0.35705 0.53502 0.01626 0.0
O409 O 0.39594 0.54615 0.04184 0.0
Cd410 Cd 0.37863 0.5163 0.02428 0.0
C411 C 0.34534 0.50583 0.06232 0.0
O412 O 0.36682 0.522 -0.01209 0.0
O413 O 0.3543 0.49538 -9e-05 0.0
O414 O 0.40517 0.51995 0.00633 0.0
C415 C 0.35568 0.50615 -0.01593 0.0
O416 O 0.34132 0.51427 0.04792 0.0
C417 C 0.4038 0.50598 0.01429 0.0
O418 O 0.35944 0.50557 0.05988 0.0
O419 O 0.39092 0.49686 0.02785 0.0
C420 C 0.11108 0.55932 0.54469 0.0
O421 O 0.12443 0.55963 0.53613 0.0
Cd422 Cd 0.12438 0.53544 0.51658 0.0
O423 O 0.09616 0.54575 0.54245 0.0
Cd424 Cd 0.08328 0.51635 0.52377 0.0
C425 C 0.10585 0.50487 0.56105 0.0
O426 O 0.10169 0.52313 0.48799 0.0
O427 O 0.08528 0.49597 0.49681 0.0
O428 O 0.06078 0.52107 0.50688 0.0
C429 C 0.096 0.50732 0.48249 0.0
O430 O 0.11867 0.51394 0.54732 0.0
C431 C 0.04794 0.50697 0.51428 0.0
O432 O 0.09142 0.50444 0.5584 0.0
O433 O 0.05141 0.49734 0.5271 0.0
C434 C 0.37632 0.53997 0.54035 0.0
O435 O 0.37427 0.55075 0.52805 0.0
Cd436 Cd 0.39859 0.57676 0.5128 0.0
O437 O 0.39129 0.54149 0.54193 0.0
Cd438 Cd 0.42106 0.55967 0.52442 0.0
C439 C 0.42532 0.59059 0.56276 0.0
O440 O 0.41598 0.57066 0.48669 0.0
O441 O 0.44184 0.58466 0.50142 0.0
O442 O 0.41814 0.53329 0.50712 0.0
C443 C 0.4317 0.58269 0.48439 0.0
O444 O 0.41489 0.59172 0.5484 0.0
C445 C 0.43207 0.53489 0.51546 0.0
O446 O 0.43014 0.57946 0.55935 0.0
O447 O 0.44094 0.54792 0.52897 0.0
C448 C 0.40182 0.83074 0.54206 0.0
O449 O 0.39136 0.81748 0.53005 0.0
Cd450 Cd 0.36446 0.81442 0.51671 0.0
O451 O 0.39962 0.8438 0.54357 0.0
Cd452 Cd 0.38066 0.85398 0.525 0.0
C453 C 0.35126 0.8287 0.56582 0.0
O454 O 0.36905 0.83635 0.48838 0.0
O455 O 0.35488 0.84806 0.50287 0.0
O456 O 0.40619 0.87746 0.50583 0.0
C457 C 0.35676 0.83956 0.48615 0.0
O458 O 0.35005 0.81646 0.55266 0.0
C459 C 0.40442 0.88985 0.51367 0.0
O460 O 0.36193 0.84458 0.56073 0.0
O461 O 0.39171 0.88573 0.52771 0.0
C462 C 0.21167 0.4603 0.23199 0.0
O463 O 0.21258 0.47344 0.24232 0.0
Cd464 Cd 0.188 0.47352 0.26025 0.0
O465 O 0.19763 0.44563 0.23247 0.0
Cd466 Cd 0.16828 0.43239 0.25111 0.0
C467 C 0.15836 0.45619 0.21417 0.0
O468 O 0.17432 0.45006 0.28753 0.0
O469 O 0.14746 0.43431 0.27716 0.0
O470 O 0.1729 0.40978 0.2678 0.0
C471 C 0.15845 0.44463 0.29214 0.0
O472 O 0.16754 0.46873 0.2283 0.0
C473 C 0.15898 0.39693 0.26002 0.0
O474 O 0.15724 0.44139 0.21658 0.0
O475 O 0.14947 0.40046 0.24706 0.0
C476 C 0.48135 0.74451 0.23207 0.0
O477 O 0.46847 0.73226 0.24286 0.0
Cd478 Cd 0.46792 0.70703 0.25818 0.0
O479 O 0.49584 0.74488 0.23136 0.0
Cd480 Cd 0.50863 0.72762 0.2487 0.0
C481 C 0.48417 0.69639 0.2087 0.0
O482 O 0.49133 0.71547 0.28517 0.0
O483 O 0.50514 0.70299 0.27225 0.0
O484 O 0.5315 0.75416 0.26703 0.0
C485 C 0.49579 0.70414 0.28835 0.0
O486 O 0.47168 0.69378 0.22238 0.0
C487 C 0.54419 0.75308 0.25887 0.0
O488 O 0.4997 0.70836 0.21319 0.0
O489 O 0.5405 0.74038 0.24496 0.0
C490 C 0.19335 0.72717 0.23115 0.0
O491 O 0.20432 0.72477 0.24231 0.0
Cd492 Cd 0.23072 0.74894 0.25682 0.0
O493 O 0.19489 0.74222 0.23071 0.0
Cd494 Cd 0.21335 0.77154 0.24962 0.0
C495 C 0.2432 0.77719 0.20856 0.0
O496 O 0.22503 0.7652 0.28567 0.0
O497 O 0.23868 0.79164 0.27265 0.0
O498 O 0.18749 0.76871 0.26864 0.0
C499 C 0.23701 0.78088 0.28869 0.0
O500 O 0.2448 0.76624 0.22129 0.0
C501 C 0.18913 0.78286 0.26093 0.0
O502 O 0.23222 0.78181 0.21402 0.0
O503 O 0.20194 0.7918 0.24714 0.0
C504 C 0.15631 0.04833 0.03054 0.0
C505 C 0.14566 0.04583 0.05033 0.0
C506 C 0.15329 0.03427 0.01603 0.0
C507 C 0.11844 -0.0112 0.00169 0.0
H508 H 0.15483 -0.01042 0.96292 0.0
C509 C 0.11033 0.93373 0.93612 0.0
C510 C 0.10984 0.93936 0.91291 0.0
C511 C 0.11642 0.94565 0.95506 0.0
C512 C 0.14462 -0.01086 -0.0261 0.0
H513 H 0.12414 0.02655 0.07125 0.0
H514 H 0.11949 0.00192 0.04694 0.0
H515 H 0.16226 0.01212 -0.00699 0.0
H516 H 0.11614 0.96186 0.89105 0.0
H517 H 0.1274 -0.01731 0.92398 0.0
H518 H 0.10093 0.9656 -0.01743 0.0
C519 C 0.12968 0.01478 0.0418 0.0
C520 C 0.14878 0.00216 -0.00906 0.0
C521 C 0.13243 0.0289 0.05593 0.0
C522 C 0.11633 0.95717 0.90879 0.0
C523 C 0.12281 0.96908 0.92754 0.0
C524 C 0.11437 0.97561 -0.01496 0.0
C525 C 0.13979 0.01727 0.02126 0.0
C526 C 0.1357 0.00244 0.00475 0.0
C527 C 0.12256 0.96338 0.95086 0.0
C528 C 0.12737 0.97586 -0.02926 0.0
H529 H 0.16652 0.06126 0.02567 0.0
H530 H 0.16121 0.03693 0.00025 0.0
H531 H 0.10787 -0.01139 0.01145 0.0
H532 H 0.10526 0.92006 0.93977 0.0
H533 H 0.11604 0.94101 -0.02699 0.0
C534 C 0.89688 0.10207 0.04101 0.0
C535 C 0.89507 0.08647 0.04995 0.0
C536 C 0.91152 0.1135 0.02759 0.0
C537 C 0.95629 0.12311 0.0121 0.0
H538 H 0.94965 0.14351 0.95499 0.0
C539 C 0.0 0.14084 0.92995 0.0
C540 C 0.00557 0.15686 0.91857 0.0
C541 C -0.01181 0.13549 0.94875 0.0
C542 C 0.95176 0.13816 -0.02889 0.0
H543 H 0.9074 0.07081 0.05187 0.0
H544 H 0.93249 0.09036 0.02826 0.0
H545 H 0.9255 0.12783 -0.0173 0.0
H546 H 0.00328 0.17996 0.91815 0.0
H547 H -0.01799 0.17026 0.9509 0.0
H548 H -0.01773 0.13263 -0.00025 0.0
C549 C 0.92288 0.09406 0.03197 0.0
C550 C 0.93793 0.12918 -0.01297 0.0
C551 C 0.90835 0.08273 0.04542 0.0
C552 C -0.00073 0.1676 0.9267 0.0
C553 C -0.01293 0.16202 0.9453 0.0
C554 C -0.03 0.13189 -0.00392 0.0
C555 C 0.92467 0.10959 0.02276 0.0
C556 C 0.93988 0.12111 0.00742 0.0
C557 C -0.01861 0.14586 0.95641 0.0
C558 C -0.03224 0.13913 -0.02487 0.0
H559 H 0.88693 0.1054 0.0442 0.0
H560 H 0.91252 0.12541 0.02101 0.0
H561 H 0.95845 0.1175 0.02791 0.0
H562 H 0.00467 0.13231 0.92414 0.0
H563 H -0.01607 0.12291 0.9568 0.0
C564 C 0.79028 0.8232 0.90801 0.0
C565 C 0.7801 0.83083 0.91258 0.0
C566 C 0.79562 0.8166 0.92662 0.0
C567 C 0.81138 0.8261 -0.01517 0.0
H568 H 0.80172 0.77863 -0.00957 0.0
C569 C 0.84757 0.80852 0.0544 0.0
C570 C 0.85177 0.79579 0.04819 0.0
C571 C 0.83602 0.81105 0.0405 0.0
C572 C 0.8048 0.79201 -0.01099 0.0
H573 H 0.76727 0.83734 0.94006 0.0
H574 H 0.77735 0.82639 -0.027 0.0
H575 H 0.78636 0.78585 0.96077 0.0
H576 H 0.84708 0.77565 0.02264 0.0
H577 H 0.82783 0.78065 -0.00235 0.0
H578 H 0.83074 0.8328 0.01146 0.0
C579 C 0.78076 0.82518 0.95486 0.0
C580 C 0.79578 0.79604 -0.0278 0.0
C581 C 0.77496 0.83135 0.93609 0.0
C582 C 0.84397 0.78546 0.028 0.0
C583 C 0.83278 0.78829 0.01373 0.0
C584 C 0.82072 0.8222 0.00123 0.0
C585 C 0.79128 0.81793 0.95024 0.0
C586 C 0.79912 0.81314 0.96986 0.0
C587 C 0.82873 0.80126 0.0196 0.0
C588 C 0.81775 0.80512 0.00341 0.0
H589 H 0.79443 0.82268 0.89003 0.0
H590 H 0.80383 0.81118 0.92269 0.0
H591 H 0.81435 0.83945 -0.01695 0.0
H592 H 0.85324 0.81656 0.07003 0.0
H593 H 0.83296 0.82083 0.04614 0.0
C594 C 0.92002 0.12627 0.50298 0.0
C595 C 0.92619 0.12767 0.52634 0.0
C596 C 0.93171 0.13293 0.48384 0.0
C597 C -0.02336 0.16337 0.46643 0.0
H598 H -0.02747 0.12729 0.42369 0.0
C599 C 0.03451 0.17205 0.4098 0.0
C600 C 0.03147 0.16232 0.38884 0.0
C601 C 0.02064 0.16982 0.42405 0.0
C602 C -0.02624 0.13773 0.43492 0.0
H603 H 0.94924 0.13797 0.54826 0.0
H604 H -0.0304 0.15025 0.51501 0.0
H605 H 0.94977 0.1207 0.45264 0.0
H606 H 0.01152 0.14345 0.36555 0.0
H607 H -0.01266 0.14028 0.3895 0.0
H608 H 0.00048 0.18053 0.44875 0.0
C609 C 0.95581 0.14382 0.51141 0.0
C610 C 0.96067 0.13387 0.45162 0.0
C611 C 0.94417 0.13677 0.5304 0.0
C612 C 0.01427 0.15098 0.38178 0.0
C613 C 0.00039 0.14906 0.3957 0.0
C614 C -0.01042 0.16738 0.44936 0.0
C615 C 0.94971 0.14152 0.48791 0.0
C616 C 0.96218 0.14652 0.4679 0.0
C617 C 0.00334 0.15809 0.41741 0.0
C618 C -0.01141 0.15449 0.43375 0.0
H619 H 0.90621 0.11915 0.4994 0.0
H620 H 0.92672 0.13098 0.46584 0.0
H621 H -0.02194 0.17337 0.47879 0.0
H622 H 0.04763 0.18079 0.41581 0.0
H623 H 0.02362 0.17683 0.44074 0.0
C624 C 0.79901 0.86531 0.39053 0.0
C625 C 0.78236 0.86322 0.38852 0.0
C626 C 0.80173 0.85373 0.40397 0.0
C627 C 0.78254 0.82183 0.45315 0.0
H628 H 0.82025 0.81387 0.43695 0.0
C629 C 0.80557 0.78372 0.5135 0.0
C630 C 0.82305 0.79439 0.52 0.0
C631 C 0.79844 0.78877 0.49503 0.0
C632 C 0.80958 0.81585 0.44158 0.0
H633 H 0.75537 0.84685 0.3986 0.0
H634 H 0.76008 0.8263 0.4217 0.0
H635 H 0.8112 0.82842 0.4085 0.0
H636 H 0.84692 0.81822 0.51172 0.0
H637 H 0.83469 0.82663 0.47909 0.0
H638 H 0.78112 0.80924 0.48638 0.0
C639 C 0.7711 0.83717 0.41319 0.0
C640 C 0.80446 0.82432 0.42539 0.0
C641 C 0.76838 0.84889 0.39981 0.0
C642 C 0.83341 0.80975 0.50711 0.0
C643 C 0.82643 0.81454 0.48838 0.0
C644 C 0.78751 0.81309 0.46921 0.0
C645 C 0.78788 0.83955 0.41566 0.0
C646 C 0.79131 0.82802 0.43129 0.0
C647 C 0.80883 0.80428 0.48241 0.0
C648 C 0.80144 0.81054 0.46387 0.0
H649 H 0.81013 0.87622 0.38224 0.0
H650 H 0.8149 0.8563 0.40579 0.0
H651 H 0.77246 0.82453 0.45845 0.0
H652 H 0.79728 0.77188 0.52328 0.0
H653 H 0.78481 0.78066 0.49074 0.0
C654 C 0.08557 0.90692 0.40821 0.0
C655 C 0.07717 0.90921 0.38862 0.0
C656 C 0.097 0.92114 0.4222 0.0
C657 C 0.10884 0.96706 0.43553 0.0
H658 H 0.14484 0.96614 0.47299 0.0
C659 C 0.15403 0.02276 0.49987 0.0
C660 C 0.15103 0.0167 0.52346 0.0
C661 C 0.14816 0.01092 0.48085 0.0
C662 C 0.13494 0.96662 0.46242 0.0
H663 H 0.07484 0.9283 0.36755 0.0
H664 H 0.09549 0.95321 0.39097 0.0
H665 H 0.12876 0.94328 0.44372 0.0
H666 H 0.14055 -0.00622 0.54578 0.0
H667 H 0.13105 0.97317 0.51261 0.0
H668 H 0.11539 -0.00937 0.45416 0.0
C669 C 0.09274 0.94039 0.39635 0.0
C670 C 0.12553 0.95341 0.44583 0.0
C671 C 0.08098 0.92611 0.38273 0.0
C672 C 0.14307 -0.00125 0.52772 0.0
C673 C 0.13767 -0.01302 0.50879 0.0
C674 C 0.11854 -0.01954 0.4517 0.0
C675 C 0.10068 0.93812 0.41663 0.0
C676 C 0.11201 0.95316 0.43253 0.0
C677 C 0.1397 -0.00709 0.48521 0.0
C678 C 0.1314 -0.01984 0.46566 0.0
H679 H 0.08279 0.89403 0.4133 0.0
H680 H 0.10248 0.91864 0.43784 0.0
H681 H 0.0984 0.96731 0.42614 0.0
H682 H 0.15995 0.03654 0.49617 0.0
H683 H 0.14981 0.01576 0.46278 0.0
C684 C 0.805 -0.00416 0.03079 0.0
C685 C 0.81468 0.01384 0.02664 0.0
C686 C 0.79837 -0.01584 0.01177 0.0
C687 C 0.81027 -0.02155 0.95375 0.0
H688 H 0.76299 0.94038 0.94697 0.0
C689 C 0.79364 0.9248 0.88382 0.0
C690 C 0.78094 0.90772 0.88981 0.0
C691 C 0.79596 0.93886 0.89774 0.0
C692 C 0.77632 0.95077 0.94872 0.0
H693 H 0.82473 0.03383 -0.0005 0.0
H694 H 0.81365 0.01322 0.96596 0.0
H695 H 0.76978 0.96293 -0.02326 0.0
H696 H 0.76058 0.89198 0.91497 0.0
H697 H 0.76519 0.91623 0.94001 0.0
H698 H 0.81728 0.96589 0.92731 0.0
C699 C 0.81089 0.00826 -0.01599 0.0
C700 C 0.78012 0.96379 0.96562 0.0
C701 C 0.81712 0.02001 0.00313 0.0
C702 C 0.7704 0.90502 0.90979 0.0
C703 C 0.77299 0.91903 0.92408 0.0
C704 C 0.80658 0.96523 0.93727 0.0
C705 C 0.80171 -0.00977 -0.01178 0.0
C706 C 0.79716 -0.02235 0.96842 0.0
C707 C 0.78594 0.93619 0.91843 0.0
C708 C 0.78957 0.95103 0.93468 0.0
H709 H 0.80303 -0.00922 0.04877 0.0
H710 H 0.79147 0.97032 0.01547 0.0
H711 H 0.82358 -0.01113 0.95586 0.0
H712 H 0.80184 0.9273 0.86835 0.0
H713 H 0.80573 0.95182 0.89228 0.0
C714 C 0.92119 0.7885 0.00106 0.0
C715 C 0.92695 0.79396 0.02445 0.0
C716 C 0.93314 0.794 -0.0178 0.0
C717 C -0.02249 0.8088 0.96524 0.0
H718 H -0.02437 0.84244 0.92348 0.0
C719 C 0.03657 0.85638 0.90863 0.0
C720 C 0.03409 0.86357 0.88781 0.0
C721 C 0.02245 0.84531 0.92302 0.0
C722 C -0.02377 0.83276 0.93443 0.0
H723 H 0.94959 0.80857 0.04671 0.0
H724 H -0.02954 0.81746 0.01394 0.0
H725 H 0.95248 0.82655 0.9522 0.0
H726 H 0.01479 0.86405 0.865 0.0
H727 H -0.00993 0.84396 0.88918 0.0
H728 H 0.001 0.8146 0.94745 0.0
C729 C 0.95676 0.80923 0.01014 0.0
C730 C 0.96293 0.82372 0.951 0.0
C731 C 0.94484 0.80419 0.02883 0.0
C732 C 0.01712 0.85885 0.88111 0.0
C733 C 0.00294 0.84742 0.89516 0.0
C734 C -0.00938 0.81751 0.94827 0.0
C735 C 0.951 0.80454 -0.01337 0.0
C736 C -0.03634 0.81197 0.96687 0.0
C737 C 0.00539 0.84077 0.91667 0.0
C738 C -0.00956 0.83 0.93299 0.0
H739 H 0.90745 0.78075 -0.00276 0.0
H740 H 0.92845 0.7903 0.96415 0.0
H741 H -0.02169 0.79976 -0.02266 0.0
H742 H 0.04952 0.8599 0.91437 0.0
H743 H 0.02508 0.84085 0.93956 0.0
C744 C 0.08441 0.14789 0.88685 0.0
C745 C 0.08054 0.1612 0.89058 0.0
C746 C 0.09568 0.14595 0.90217 0.0
C747 C 0.10904 0.15285 0.96398 0.0
H748 H 0.14526 0.14365 0.94394 0.0
C749 C 0.14626 0.13761 0.03386 0.0
C750 C 0.1503 0.12471 0.02825 0.0
C751 C 0.14088 0.14483 0.0161 0.0
C752 C 0.13508 0.14601 0.94988 0.0
H753 H 0.08595 0.18328 0.91291 0.0
H754 H 0.10536 0.17965 0.93992 0.0
H755 H 0.1299 0.15091 0.91424 0.0
H756 H 0.15222 0.10933 -0.0001 0.0
H757 H 0.1421 0.12132 0.96884 0.0
H758 H 0.11329 0.14706 -0.00073 0.0
C759 C 0.09971 0.17079 0.92504 0.0
C760 C 0.12636 0.15027 0.93284 0.0
C761 C 0.08867 0.1729 0.9095 0.0
C762 C 0.14942 0.11949 0.00449 0.0
C763 C 0.14364 0.12643 -0.01327 0.0
C764 C 0.11751 0.14831 -0.01906 0.0
C765 C 0.10311 0.15712 0.92176 0.0
C766 C 0.11321 0.15367 0.93973 0.0
C767 C 0.13886 0.13891 -0.00761 0.0
C768 C 0.13062 0.14474 -0.02581 0.0
H769 H 0.07841 0.13869 0.8724 0.0
H770 H 0.09798 0.13524 0.8993 0.0
H771 H 0.09876 0.1551 0.96977 0.0
H772 H 0.14682 0.14176 0.05215 0.0
H773 H 0.13786 0.15475 0.02116 0.0
C774 C 0.91279 0.80432 0.55677 0.0
C775 C 0.8956 0.793 0.54964 0.0
C776 C 0.92669 0.80669 0.5425 0.0
C777 C 0.93758 0.78982 0.48731 0.0
H778 H -0.02254 0.83653 0.48606 0.0
C779 C -0.01611 0.82316 0.40755 0.0
C780 C 0.00176 0.83073 0.41187 0.0
C781 C -0.02804 0.81597 0.42619 0.0
C782 C -0.03348 0.82336 0.48649 0.0
H783 H 0.87947 0.77504 0.52219 0.0
H784 H 0.9035 0.77981 0.49667 0.0
H785 H 0.95457 0.82918 0.51514 0.0
H786 H 0.0212 0.83652 0.43892 0.0
H787 H 0.0002 0.82454 0.47194 0.0
H788 H 0.94919 0.78467 0.45719 0.0
C789 C 0.90647 0.78644 0.51366 0.0
C790 C 0.95336 0.81905 0.50326 0.0
C791 C 0.8926 0.78374 0.52825 0.0
C792 C 0.00748 0.83062 0.43513 0.0
C793 C -0.00448 0.82385 0.45396 0.0
C794 C 0.95057 0.7943 0.47016 0.0
C795 C 0.92377 0.79817 0.52037 0.0
C796 C 0.93853 0.80226 0.50377 0.0
C797 C -0.02232 0.81663 0.44962 0.0
C798 C -0.03495 0.81116 0.46947 0.0
H799 H 0.91549 0.8115 0.57331 0.0
H800 H 0.93972 0.81542 0.54879 0.0
H801 H 0.92668 0.77665 0.48736 0.0
H802 H -0.02084 0.82309 0.38977 0.0
H803 H 0.95828 0.8106 0.42245 0.0
C804 C 0.11978 0.16915 0.42755 0.0
C805 C 0.10259 0.15838 0.41986 0.0
C806 C 0.12656 0.1637 0.44601 0.0
C807 C 0.11401 0.13395 0.49716 0.0
H808 H 0.15422 0.12977 0.48244 0.0
C809 C 0.12715 0.08537 0.54632 0.0
C810 C 0.14426 0.08906 0.54999 0.0
C811 C 0.12378 0.09659 0.53304 0.0
C812 C 0.14321 0.13116 0.48715 0.0
H813 H 0.07884 0.13394 0.4261 0.0
H814 H 0.09045 0.12477 0.45858 0.0
H815 H 0.14539 0.14519 0.45501 0.0
H816 H 0.1713 0.1078 0.54295 0.0
H817 H 0.16542 0.12764 0.52011 0.0
H818 H 0.11163 0.11991 0.52913 0.0
C819 C 0.09876 0.13727 0.45027 0.0
C820 C 0.13815 0.13999 0.47138 0.0
C821 C 0.09214 0.14249 0.43159 0.0
C822 C 0.15796 0.10452 0.54042 0.0
C823 C 0.15458 0.11585 0.5272 0.0
C824 C 0.11917 0.12534 0.51305 0.0
C825 C 0.1161 0.14764 0.45743 0.0
C826 C 0.1232 0.14101 0.4759 0.0
C827 C 0.13741 0.11196 0.52316 0.0
C828 C 0.13349 0.1233 0.5079 0.0
H829 H 0.12814 0.18141 0.41871 0.0
H830 H 0.13998 0.17194 0.45123 0.0
H831 H 0.10255 0.13473 0.50122 0.0
H832 H 0.11624 0.07356 0.55326 0.0
H833 H 0.11038 0.0929 0.52995 0.0
C834 C 0.85585 0.033 0.54603 0.0
C835 C 0.85277 0.04679 0.55013 0.0
C836 C 0.8441 0.0184 0.53302 0.0
C837 C 0.80912 0.00377 0.48827 0.0
H838 H 0.80388 0.95876 0.50271 0.0
C839 C 0.77027 0.94223 0.42834 0.0
C840 C 0.78088 0.93564 0.42081 0.0
C841 C 0.77567 0.95439 0.44701 0.0
C842 C 0.80509 0.97121 0.49857 0.0
H843 H 0.83459 0.05581 0.54404 0.0
H844 H 0.81388 0.03012 0.52153 0.0
H845 H 0.81954 -0.0171 0.53029 0.0
H846 H 0.8049 0.93586 0.42752 0.0
H847 H 0.81396 0.95648 0.46035 0.0
H848 H 0.79482 -0.00806 0.45628 0.0
C849 C 0.82558 0.03075 0.52816 0.0
C850 C 0.81418 -0.0149 0.51426 0.0
C851 C 0.83741 0.04545 0.54117 0.0
C852 C 0.79648 0.94075 0.43293 0.0
C853 C 0.80164 0.9525 0.4518 0.0
C854 C 0.79984 -0.01023 0.47266 0.0
C855 C 0.82882 0.01706 0.52381 0.0
C856 C 0.81687 0.00174 0.50892 0.0
C857 C 0.79149 0.95971 0.45878 0.0
C858 C 0.79824 0.97351 0.4773 0.0
H859 H 0.86755 0.03357 0.55251 0.0
H860 H 0.84729 0.00835 0.52965 0.0
H861 H 0.81099 0.01637 0.48346 0.0
H862 H 0.75825 0.93857 0.41915 0.0
H863 H 0.76762 0.95978 0.45207 0.0
C864 C 0.78821 0.28859 0.24197 0.0
C865 C 0.77693 0.27118 0.24815 0.0
C866 C 0.79531 0.30144 0.2595 0.0
C867 C 0.79943 0.30886 0.32573 0.0
H868 H 0.80393 0.35289 0.307 0.0
C869 C 0.80111 0.36099 0.39029 0.0
C870 C 0.81364 0.37844 0.38564 0.0
C871 C 0.79908 0.34773 0.37487 0.0
C872 C 0.80294 0.34074 0.31243 0.0
H873 H 0.76437 0.25333 0.27732 0.0
H874 H 0.77601 0.27586 0.3081 0.0
H875 H 0.79562 0.33008 0.27759 0.0
H876 H 0.83425 0.39555 0.36154 0.0
H877 H 0.83039 0.37239 0.33433 0.0
H878 H 0.80581 0.31953 0.36108 0.0
C879 C 0.77997 0.27965 0.28983 0.0
C880 C 0.79827 0.32762 0.29551 0.0
C881 C 0.77323 0.26669 0.27223 0.0
C882 C 0.8245 0.38225 0.36567 0.0
C883 C 0.82225 0.36902 0.35003 0.0
C884 C 0.80378 0.32194 0.34279 0.0
C885 C 0.7908 0.2973 0.28364 0.0
C886 C 0.79644 0.31145 0.30183 0.0
C887 C 0.80933 0.35168 0.35427 0.0
C888 C 0.80558 0.338 0.33627 0.0
H889 H 0.79128 0.2923 0.22344 0.0
H890 H 0.80404 0.31472 0.25395 0.0
H891 H 0.79841 0.29675 0.33132 0.0
H892 H 0.79258 0.35762 0.40557 0.0
H893 H 0.78896 0.33448 0.37848 0.0
C894 C 0.55696 0.43797 0.36578 0.0
C895 C 0.56079 0.43013 0.38472 0.0
C896 C 0.57005 0.44927 0.35016 0.0
C897 C 0.61719 0.47716 0.34192 0.0
H898 H 0.60743 0.46303 0.27583 0.0
C899 C 0.67107 0.50056 0.26985 0.0
C900 C 0.66648 0.50047 0.24596 0.0
C901 C 0.65842 0.495 0.28778 0.0
C902 C 0.61036 0.46757 0.29404 0.0
H903 H 0.58153 0.42883 0.40291 0.0
H904 H 0.60441 0.44885 0.37587 0.0
H905 H 0.58495 0.44829 0.30556 0.0
H906 H 0.64561 0.49576 0.22204 0.0
H907 H 0.62383 0.48733 0.25323 0.0
H908 H 0.64258 0.49658 0.33044 0.0
C909 C 0.59126 0.44612 0.37304 0.0
C910 C 0.59741 0.45897 0.31115 0.0
C911 C 0.57814 0.43458 0.38843 0.0
C912 C 0.64941 0.49591 0.2404 0.0
C913 C 0.63689 0.49082 0.2583 0.0
C914 C 0.63011 0.48602 0.32471 0.0
C915 C 0.58727 0.45323 0.35341 0.0
C916 C 0.60074 0.4635 0.33528 0.0
C917 C 0.641 0.48954 0.28216 0.0
C918 C 0.62696 0.4812 0.30051 0.0
H919 H 0.54375 0.43481 0.36239 0.0
H920 H 0.56664 0.45466 0.33524 0.0
H921 H 0.62006 0.48096 0.36043 0.0
H922 H 0.68414 0.50377 0.27446 0.0
H923 H 0.66217 0.49408 0.3058 0.0
C924 C 0.52681 0.14992 0.37588 0.0
C925 C 0.52182 0.13261 0.38146 0.0
C926 C 0.51668 0.15366 0.36087 0.0
C927 C 0.4736 0.13808 0.33571 0.0
H928 H 0.49947 0.16898 0.28368 0.0
C929 C 0.44198 0.15698 0.25835 0.0
C930 C 0.452 0.17395 0.24935 0.0
C931 C 0.4489 0.15079 0.2757 0.0
C932 C 0.49203 0.16055 0.29827 0.0
H933 H 0.50172 0.10568 0.3764 0.0
H934 H 0.48381 0.11235 0.35025 0.0
H935 H 0.51426 0.16032 0.31192 0.0
H936 H 0.47642 0.19815 0.2527 0.0
H937 H 0.48808 0.18777 0.28333 0.0
H938 H 0.45139 0.13869 0.32225 0.0
C939 C 0.4957 0.12294 0.35752 0.0
C940 C 0.50053 0.15551 0.31439 0.0
C941 C 0.50599 0.11915 0.3724 0.0
C942 C 0.46852 0.1849 0.25899 0.0
C943 C 0.47526 0.17887 0.27645 0.0
C944 C 0.46506 0.14331 0.31963 0.0
C945 C 0.50118 0.14023 0.3512 0.0
C946 C 0.49152 0.14446 0.33349 0.0
C947 C 0.46585 0.16156 0.28445 0.0
C948 C 0.47428 0.1549 0.30095 0.0
H949 H 0.53885 0.16064 0.38256 0.0
H950 H 0.52111 0.16712 0.35652 0.0
H951 H 0.46635 0.12951 0.35029 0.0
H952 H 0.42922 0.14826 0.25116 0.0
H953 H 0.44127 0.13739 0.28147 0.0
C954 C 0.585 0.46027 0.83644 0.0
C955 C 0.59117 0.46155 0.85978 0.0
C956 C 0.59669 0.46696 0.8173 0.0
C957 C 0.64176 0.49732 0.80017 0.0
H958 H 0.63718 0.4616 0.75632 0.0
C959 C 0.69936 0.50585 0.74303 0.0
C960 C 0.69621 0.49646 0.72173 0.0
C961 C 0.68556 0.50363 0.75742 0.0
C962 C 0.63855 0.47195 0.76788 0.0
H963 H 0.61422 0.47167 0.88166 0.0
H964 H 0.63458 0.48396 0.84843 0.0
H965 H 0.61446 0.45492 0.78541 0.0
H966 H 0.67614 0.4782 0.69802 0.0
H967 H 0.65208 0.47505 0.72228 0.0
H968 H 0.66571 0.51447 0.78269 0.0
C969 C 0.62079 0.47761 0.84484 0.0
C970 C 0.62548 0.46804 0.78465 0.0
C971 C 0.60915 0.47054 0.86382 0.0
C972 C 0.67897 0.48547 0.7145 0.0
C973 C 0.66516 0.48356 0.72859 0.0
C974 C 0.65468 0.50138 0.78305 0.0
C975 C 0.61469 0.47545 0.82135 0.0
C976 C 0.62716 0.48055 0.80131 0.0
C977 C 0.66822 0.49224 0.75061 0.0
C978 C 0.65352 0.48861 0.76703 0.0
H979 H 0.57119 0.45324 0.83287 0.0
H980 H 0.5917 0.46512 0.79931 0.0
H981 H 0.64332 0.50721 0.8128 0.0
H982 H 0.71251 0.51431 0.74917 0.0
H983 H 0.6886 0.51036 0.77434 0.0
C984 C 0.43611 0.18304 0.73198 0.0
C985 C 0.45017 0.19755 0.7211 0.0
C986 C 0.4388 0.17129 0.74536 0.0
C987 C 0.47234 0.15881 0.75836 0.0
H988 H 0.44802 0.14282 0.81856 0.0
C989 C 0.50011 0.14333 0.84065 0.0
C990 C 0.48957 0.12777 0.85304 0.0
C991 C 0.49342 0.14836 0.82183 0.0
C992 C 0.45469 0.14694 0.80161 0.0
H993 H 0.47803 0.21084 0.71556 0.0
H994 H 0.48272 0.19088 0.73913 0.0
H995 H 0.43961 0.15826 0.79054 0.0
H996 H 0.46378 0.10518 0.85534 0.0
H997 H 0.45183 0.11437 0.82265 0.0
H998 H 0.48814 0.14846 0.77025 0.0
C999 C 0.46954 0.18818 0.73697 0.0
C1000 C 0.44986 0.15576 0.78549 0.0
C1001 C 0.46685 0.19979 0.72353 0.0
C1002 C 0.47221 0.11717 0.84595 0.0
C1003 C 0.46537 0.12245 0.8274 0.0
C1004 C 0.47731 0.15026 0.77461 0.0
C1005 C 0.4556 0.17382 0.74826 0.0
C1006 C 0.45896 0.16226 0.76391 0.0
C1007 C 0.47593 0.13815 0.81526 0.0
C1008 C 0.46882 0.14461 0.79662 0.0
H1009 H 0.42308 0.18088 0.73044 0.0
H1010 H 0.42771 0.16028 0.75354 0.0
H1011 H 0.47934 0.16314 0.74168 0.0
H1012 H 0.51355 0.15175 0.8457 0.0
H1013 H 0.50181 0.16059 0.81291 0.0
C1014 C 0.79664 0.32851 0.86563 0.0
C1015 C 0.81038 0.34562 0.86228 0.0
C1016 C 0.79163 0.31621 0.84747 0.0
C1017 C 0.79064 0.31222 0.78287 0.0
H1018 H 0.77542 0.26403 0.79747 0.0
C1019 C 0.73999 0.25467 0.72671 0.0
C1020 C 0.74143 0.23971 0.72425 0.0
C1021 C 0.75162 0.26855 0.74101 0.0
C1022 C 0.77984 0.27745 0.7929 0.0
H1023 H 0.82991 0.36315 0.8373 0.0
H1024 H 0.82092 0.34152 0.80514 0.0
H1025 H 0.79062 0.28635 0.82759 0.0
H1026 H 0.75673 0.22799 0.73424 0.0
H1027 H 0.77704 0.25225 0.75913 0.0
H1028 H 0.77951 0.30323 0.7483 0.0
C1029 C 0.81409 0.33772 0.82201 0.0
C1030 C 0.78842 0.29023 0.81027 0.0
C1031 C 0.8193 0.35006 0.84042 0.0
C1032 C 0.75516 0.23925 0.73582 0.0
C1033 C 0.76678 0.25313 0.75018 0.0
C1034 C 0.78197 0.2994 0.76549 0.0
C1035 C 0.80011 0.32069 0.82534 0.0
C1036 C 0.79352 0.30769 0.80568 0.0
C1037 C 0.76498 0.26784 0.75326 0.0
C1038 C 0.7761 0.2818 0.7705 0.0
H1039 H 0.78953 0.3246 0.88228 0.0
H1040 H 0.78067 0.30331 0.85056 0.0
H1041 H 0.79433 0.32555 0.77882 0.0
H1042 H 0.72961 0.25552 0.71805 0.0
H1043 H 0.7497 0.27956 0.74319 0.0
C1044 C 0.47284 0.34525 0.3514 0.0
C1045 C 0.4905 0.35393 0.35755 0.0
C1046 C 0.46648 0.33232 0.33368 0.0
C1047 C 0.47906 0.30298 0.30345 0.0
H1048 H 0.44146 0.29309 0.25998 0.0
C1049 C 0.46587 0.26 0.22184 0.0
C1050 C 0.44929 0.24506 0.22067 0.0
C1051 C 0.4692 0.27354 0.23744 0.0
C1052 C 0.4519 0.2957 0.27216 0.0
H1053 H 0.51554 0.35697 0.34889 0.0
H1054 H 0.50478 0.33536 0.31743 0.0
H1055 H 0.45087 0.31682 0.28906 0.0
H1056 H 0.42293 0.23318 0.23411 0.0
H1057 H 0.42881 0.25723 0.26124 0.0
H1058 H 0.48048 0.28232 0.28613 0.0
C1059 C 0.49557 0.33772 0.32686 0.0
C1060 C 0.45727 0.30923 0.28885 0.0
C1061 C 0.50181 0.35028 0.34476 0.0
C1062 C 0.43586 0.24447 0.23461 0.0
C1063 C 0.43918 0.25822 0.25007 0.0
C1064 C 0.4739 0.28975 0.28664 0.0
C1065 C 0.47774 0.32807 0.32163 0.0
C1066 C 0.47114 0.31323 0.30447 0.0
C1067 C 0.45602 0.27264 0.25207 0.0
C1068 C 0.46045 0.2861 0.27063 0.0
H1069 H 0.46385 0.3478 0.36109 0.0
H1070 H 0.45267 0.32518 0.33017 0.0
H1071 H 0.48934 0.30516 0.31566 0.0
H1072 H 0.47654 0.26101 0.21136 0.0
H1073 H 0.48227 0.2846 0.23851 0.0
C1074 C 0.70196 0.18691 0.24432 0.0
C1075 C 0.69955 0.19475 0.22414 0.0
C1076 C 0.6878 0.17549 0.25841 0.0
C1077 C 0.6417 0.16299 0.27066 0.0
H1078 H 0.64328 0.12832 0.31065 0.0
C1079 C 0.58634 0.11911 0.33606 0.0
C1080 C 0.59235 0.12265 0.35965 0.0
C1081 C 0.59819 0.12456 0.31708 0.0
C1082 C 0.64262 0.13785 0.29939 0.0
H1083 H 0.68033 0.19605 0.20214 0.0
H1084 H 0.65556 0.17541 0.22577 0.0
H1085 H 0.66609 0.14402 0.28119 0.0
H1086 H 0.61518 0.13364 0.38205 0.0
H1087 H 0.63578 0.14242 0.34899 0.0
H1088 H 0.61803 0.15648 0.28882 0.0
C1089 C 0.6684 0.1786 0.2315 0.0
C1090 C 0.65579 0.14703 0.28266 0.0
C1091 C 0.68261 0.19035 0.21776 0.0
C1092 C 0.61025 0.1307 0.364 0.0
C1093 C 0.62202 0.13569 0.34512 0.0
C1094 C 0.62835 0.15351 0.28698 0.0
C1095 C 0.67078 0.17127 0.25239 0.0
C1096 C 0.65579 0.16009 0.26844 0.0
C1097 C 0.61614 0.13316 0.32149 0.0
C1098 C 0.62888 0.14114 0.30185 0.0
H1099 H 0.71488 0.19015 0.2498 0.0
H1100 H 0.69038 0.17049 0.27449 0.0
H1101 H 0.64125 0.17309 0.26054 0.0
H1102 H 0.57261 0.11311 0.33228 0.0
H1103 H 0.59338 0.12251 0.29898 0.0
C1104 C 0.78977 0.43701 0.35008 0.0
C1105 C 0.8063 0.44787 0.35979 0.0
C1106 C 0.78303 0.44318 0.33282 0.0
C1107 C 0.79336 0.47885 0.28984 0.0
H1108 H 0.74416 0.46192 0.29733 0.0
C1109 C 0.75274 0.50285 0.23595 0.0
C1110 C 0.73689 0.48936 0.22699 0.0
C1111 C 0.76293 0.49912 0.25115 0.0
C1112 C 0.75789 0.46671 0.29493 0.0
H1113 H 0.82907 0.4736 0.35825 0.0
H1114 H 0.81703 0.48468 0.32824 0.0
H1115 H 0.75887 0.45325 0.32571 0.0
H1116 H 0.71968 0.46135 0.22647 0.0
H1117 H 0.73725 0.45499 0.25302 0.0
H1118 H 0.79215 0.4926 0.25907 0.0
C1119 C 0.80939 0.47125 0.33386 0.0
C1120 C 0.76635 0.46168 0.31113 0.0
C1121 C 0.81629 0.46493 0.35105 0.0
C1122 C 0.73174 0.47209 0.23305 0.0
C1123 C 0.74178 0.46842 0.24837 0.0
C1124 C 0.78486 0.48408 0.27367 0.0
C1125 C 0.79246 0.46054 0.32502 0.0
C1126 C 0.7841 0.46729 0.30852 0.0
C1127 C 0.75732 0.48188 0.2579 0.0
C1128 C 0.76695 0.47772 0.2758 0.0
H1129 H 0.78186 0.42369 0.35612 0.0
H1130 H 0.77022 0.43434 0.32587 0.0
H1131 H 0.80703 0.48343 0.28728 0.0
H1132 H 0.75712 0.51629 0.23159 0.0
H1133 H 0.77485 0.50974 0.25829 0.0
C1134 C 0.55759 0.11493 0.8629 0.0
C1135 C 0.56067 0.12417 0.88432 0.0
C1136 C 0.57144 0.1173 0.84851 0.0
C1137 C 0.61854 0.1491 0.83854 0.0
H1138 H 0.61385 0.11438 0.79271 0.0
C1139 C 0.67243 0.16077 0.77034 0.0
C1140 C 0.66654 0.16021 0.747 0.0
C1141 C 0.66055 0.15401 0.78927 0.0
C1142 C 0.61538 0.12412 0.80561 0.0
H1143 H 0.58064 0.14229 0.90825 0.0
H1144 H 0.60479 0.14564 0.88402 0.0
H1145 H 0.59133 0.1068 0.82273 0.0
H1146 H 0.64375 0.15134 0.72487 0.0
H1147 H 0.62304 0.1389 0.75772 0.0
H1148 H 0.64275 0.16628 0.82138 0.0
C1149 C 0.59173 0.13717 0.87759 0.0
C1150 C 0.60239 0.11988 0.82268 0.0
C1151 C 0.57787 0.13513 0.89167 0.0
C1152 C 0.64861 0.15191 0.74272 0.0
C1153 C 0.63677 0.14475 0.76147 0.0
C1154 C 0.63168 0.15318 0.82183 0.0
C1155 C 0.58876 0.12867 0.85544 0.0
C1156 C 0.60352 0.13246 0.83902 0.0
C1157 C 0.64263 0.14615 0.78498 0.0
C1158 C 0.63003 0.14086 0.80487 0.0
H1159 H 0.54445 0.1065 0.85666 0.0
H1160 H 0.56844 0.1107 0.83149 0.0
H1161 H 0.6199 0.15933 0.85035 0.0
H1162 H 0.6862 0.16725 0.7741 0.0
H1163 H 0.66536 0.15526 0.80729 0.0
C1164 C 0.82043 0.43467 0.87287 0.0
C1165 C 0.80693 0.42004 0.88441 0.0
C1166 C 0.81675 0.445 0.85784 0.0
C1167 C 0.78252 0.44075 0.81868 0.0
H1168 H 0.80341 0.49091 0.82154 0.0
C1169 C 0.75437 0.47394 0.76293 0.0
C1170 C 0.76568 0.48973 0.75159 0.0
C1171 C 0.76042 0.46723 0.78043 0.0
C1172 C 0.79762 0.47693 0.8203 0.0
H1173 H 0.77903 0.40528 0.8898 0.0
H1174 H 0.77272 0.42304 0.86348 0.0
H1175 H 0.81265 0.47602 0.84962 0.0
H1176 H 0.7921 0.51129 0.75036 0.0
H1177 H 0.80295 0.49925 0.78067 0.0
H1178 H 0.76783 0.44139 0.78923 0.0
C1179 C 0.78611 0.42651 0.86602 0.0
C1180 C 0.80289 0.46843 0.83641 0.0
C1181 C 0.78977 0.41636 0.88118 0.0
C1182 C 0.7831 0.49911 0.7589 0.0
C1183 C 0.78928 0.49219 0.77626 0.0
C1184 C 0.77743 0.44919 0.80249 0.0
C1185 C 0.7995 0.44073 0.85387 0.0
C1186 C 0.79511 0.45021 0.83602 0.0
C1187 C 0.77807 0.4759 0.78677 0.0
C1188 C 0.78458 0.46735 0.80337 0.0
H1189 H 0.83379 0.43791 0.87501 0.0
H1190 H 0.8273 0.45589 0.84863 0.0
H1191 H 0.77656 0.42674 0.81764 0.0
H1192 H 0.74082 0.46655 0.75791 0.0
H1193 H 0.75123 0.45499 0.78868 0.0
C1194 C 0.50291 0.3791 0.87479 0.0
C1195 C 0.51828 0.38063 0.88398 0.0
C1196 C 0.49129 0.36437 0.86164 0.0
C1197 C 0.48062 0.31895 0.84751 0.0
H1198 H 0.46137 0.32572 0.78937 0.0
C1199 C 0.46385 0.27502 0.76581 0.0
C1200 C 0.44827 0.26978 0.75356 0.0
C1201 C 0.46879 0.28667 0.78477 0.0
C1202 C 0.46637 0.32356 0.80579 0.0
H1203 H 0.53333 0.36769 0.88667 0.0
H1204 H 0.51345 0.34243 0.86356 0.0
H1205 H 0.47712 0.35008 0.8168 0.0
H1206 H 0.42546 0.27241 0.75176 0.0
H1207 H 0.43445 0.29345 0.78484 0.0
H1208 H 0.47071 0.29271 0.83574 0.0
C1209 C 0.51008 0.35235 0.86685 0.0
C1210 C 0.4754 0.33752 0.82154 0.0
C1211 C 0.5216 0.36698 0.88 0.0
C1212 C 0.43748 0.27616 0.76104 0.0
C1213 C 0.44266 0.28823 0.7798 0.0
C1214 C 0.47178 0.30511 0.83167 0.0
C1215 C 0.49479 0.35084 0.85737 0.0
C1216 C 0.4831 0.33552 0.84228 0.0
C1217 C 0.45845 0.29367 0.79172 0.0
C1218 C 0.46497 0.30739 0.81034 0.0
H1219 H 0.4999 0.38934 0.87756 0.0
H1220 H 0.47958 0.3636 0.85483 0.0
H1221 H 0.48594 0.31677 0.86359 0.0
H1222 H 0.47241 0.27029 0.76044 0.0
H1223 H 0.4811 0.29075 0.79343 0.0
C1224 C 0.44855 0.60953 0.59231 0.0
C1225 C 0.43163 0.60262 0.58335 0.0
C1226 C 0.45491 0.62282 0.60952 0.0
C1227 C 0.44589 0.65682 0.63188 0.0
H1228 H 0.47674 0.66208 0.68382 0.0
C1229 C 0.45728 0.70288 0.70939 0.0
C1230 C 0.4746 0.71507 0.71507 0.0
C1231 C 0.45335 0.6889 0.69431 0.0
C1232 C 0.46824 0.6608 0.66925 0.0
H1233 H 0.40772 0.60316 0.58666 0.0
H1234 H 0.41841 0.62555 0.61704 0.0
H1235 H 0.46718 0.63764 0.65592 0.0
H1236 H 0.50134 0.72159 0.71008 0.0
H1237 H 0.49432 0.69683 0.68381 0.0
H1238 H 0.44655 0.6796 0.64541 0.0
C1239 C 0.42712 0.62142 0.61022 0.0
C1240 C 0.46278 0.64685 0.65326 0.0
C1241 C 0.42092 0.60845 0.59291 0.0
C1242 C 0.48786 0.71249 0.706 0.0
C1243 C 0.48387 0.6983 0.69105 0.0
C1244 C 0.45115 0.67053 0.64791 0.0
C1245 C 0.44438 0.62925 0.61819 0.0
C1246 C 0.45126 0.64451 0.63461 0.0
C1247 C 0.46658 0.6866 0.68466 0.0
C1248 C 0.46214 0.67254 0.66698 0.0
H1249 H 0.4571 0.60529 0.5852 0.0
H1250 H 0.46826 0.62852 0.61526 0.0
H1251 H 0.43751 0.65585 0.61731 0.0
H1252 H 0.4467 0.70435 0.71606 0.0
H1253 H 0.43989 0.67995 0.68992 0.0
C1254 C 0.33447 0.80803 0.59845 0.0
C1255 C 0.33988 0.824 0.58701 0.0
C1256 C 0.32262 0.80259 0.61723 0.0
C1257 C 0.28585 0.80478 0.63919 0.0
H1258 H 0.29292 0.78512 0.69673 0.0
C1259 C 0.2311 0.76922 0.7094 0.0
C1260 C 0.2296 0.75396 0.71915 0.0
C1261 C 0.24566 0.78054 0.69575 0.0
C1262 C 0.29063 0.79042 0.6807 0.0
H1263 H 0.33724 0.8469 0.58645 0.0
H1264 H 0.31593 0.83704 0.61911 0.0
H1265 H 0.31665 0.80004 0.66839 0.0
H1266 H 0.24234 0.73874 0.72219 0.0
H1267 H 0.26723 0.75801 0.69812 0.0
H1268 H 0.25956 0.79433 0.65072 0.0
C1269 C 0.32115 0.82892 0.6136 0.0
C1270 C 0.3043 0.79909 0.66458 0.0
C1271 C 0.33338 0.83458 0.59505 0.0
C1272 C 0.24306 0.75041 0.71514 0.0
C1273 C 0.25748 0.7616 0.70142 0.0
C1274 C 0.27206 0.79588 0.65519 0.0
C1275 C 0.31561 0.81281 0.62476 0.0
C1276 C 0.30194 0.80601 0.64341 0.0
C1277 C 0.25901 0.77681 0.69144 0.0
C1278 C 0.27415 0.78818 0.67588 0.0
H1279 H 0.33929 0.79961 0.59268 0.0
H1280 H 0.31848 0.79005 0.62535 0.0
H1281 H 0.28365 0.80988 0.62289 0.0
H1282 H 0.221 0.7724 0.71219 0.0
H1283 H 0.24644 0.7922 0.68859 0.0
C1284 C 0.11782 0.4868 0.57616 0.0
C1285 C 0.1084 0.49527 0.58056 0.0
C1286 C 0.12263 0.4798 0.59488 0.0
C1287 C 0.13697 0.48889 0.65488 0.0
H1288 H 0.13023 0.44234 0.65664 0.0
C1289 C 0.17231 0.47083 0.72516 0.0
C1290 C 0.1781 0.45945 0.71821 0.0
C1291 C 0.16076 0.47309 0.71086 0.0
C1292 C 0.13247 0.45547 0.65633 0.0
H1293 H 0.0963 0.50279 0.60786 0.0
H1294 H 0.10537 0.49107 0.64099 0.0
H1295 H 0.11523 0.44976 0.62668 0.0
H1296 H 0.17617 0.44134 0.69094 0.0
H1297 H 0.15688 0.44591 0.66537 0.0
H1298 H 0.15516 0.49521 0.68309 0.0
C1299 C 0.10865 0.48955 0.6229 0.0
C1300 C 0.12368 0.45962 0.6393 0.0
C1301 C 0.1034 0.49615 0.60401 0.0
C1302 C 0.17182 0.4501 0.69688 0.0
C1303 C 0.16062 0.45267 0.68226 0.0
C1304 C 0.14608 0.48489 0.67154 0.0
C1305 C 0.11852 0.48153 0.61848 0.0
C1306 C 0.126 0.47641 0.63827 0.0
C1307 C 0.15505 0.46438 0.68887 0.0
C1308 C 0.14418 0.46817 0.67235 0.0
H1309 H 0.12187 0.486 0.55823 0.0
H1310 H 0.13034 0.47381 0.59103 0.0
H1311 H 0.13918 0.50202 0.6542 0.0
H1312 H 0.17678 0.47808 0.74165 0.0
H1313 H 0.15648 0.48184 0.71704 0.0
C1314 C 0.34868 0.80768 0.0565 0.0
C1315 C 0.36325 0.82443 0.05413 0.0
C1316 C 0.33442 0.80491 0.07011 0.0
C1317 C 0.32201 0.82445 0.11909 0.0
H1318 H 0.27612 0.78614 0.10405 0.0
C1319 C 0.2612 0.80176 0.18028 0.0
C1320 C 0.25438 0.78434 0.18726 0.0
C1321 C 0.27328 0.80871 0.16159 0.0
C1322 C 0.28883 0.79698 0.10836 0.0
H1323 H 0.37392 0.85154 0.0637 0.0
H1324 H 0.34875 0.84678 0.08708 0.0
H1325 H 0.29956 0.79506 0.07524 0.0
H1326 H 0.2542 0.76038 0.17959 0.0
H1327 H 0.27469 0.77231 0.14657 0.0
H1328 H 0.31106 0.82619 0.15235 0.0
C1329 C 0.34855 0.8357 0.07875 0.0
C1330 C 0.30233 0.80202 0.09196 0.0
C1331 C 0.36295 0.83846 0.06522 0.0
C1332 C 0.25927 0.77385 0.17464 0.0
C1333 C 0.27094 0.78065 0.15568 0.0
C1334 C 0.3084 0.81956 0.13535 0.0
C1335 C 0.33415 0.81883 0.08161 0.0
C1336 C 0.31927 0.8154 0.09744 0.0
C1337 C 0.27829 0.7982 0.14921 0.0
C1338 C 0.29183 0.80542 0.13043 0.0
H1339 H 0.34844 0.79652 0.04836 0.0
H1340 H 0.32382 0.79169 0.07222 0.0
H1341 H 0.33486 0.83471 0.12408 0.0
H1342 H 0.25771 0.81014 0.18985 0.0
H1343 H 0.2788 0.8223 0.15691 0.0
C1344 C 0.12526 0.52566 0.05265 0.0
C1345 C 0.11241 0.52966 0.05885 0.0
C1346 C 0.12799 0.51424 0.0666 0.0
C1347 C 0.10951 0.48308 0.11836 0.0
H1348 H 0.15708 0.49338 0.12399 0.0
C1349 C 0.1411 0.46911 0.19926 0.0
C1350 C 0.14925 0.4594 0.19466 0.0
C1351 C 0.13431 0.47424 0.18065 0.0
C1352 C 0.1437 0.4902 0.1223 0.0
H1353 H 0.09225 0.52473 0.08439 0.0
H1354 H 0.0976 0.50569 0.1095 0.0
H1355 H 0.15002 0.50947 0.09557 0.0
H1356 H 0.15648 0.44719 0.16714 0.0
H1357 H 0.14518 0.4569 0.13421 0.0
H1358 H 0.10372 0.46473 0.14671 0.0
C1359 C 0.10518 0.51071 0.09339 0.0
C1360 C 0.13956 0.49936 0.1059 0.0
C1361 C 0.10215 0.52177 0.07906 0.0
C1362 C 0.1501 0.45452 0.17113 0.0
C1363 C 0.14372 0.46011 0.15236 0.0
C1364 C 0.11378 0.47424 0.13519 0.0
C1365 C 0.1183 0.5069 0.08755 0.0
C1366 C 0.12242 0.49611 0.10382 0.0
C1367 C 0.13595 0.47017 0.15701 0.0
C1368 C 0.13093 0.47784 0.13741 0.0
H1369 H 0.13325 0.53141 0.037 0.0
H1370 H 0.13786 0.51133 0.06096 0.0
H1371 H 0.0961 0.47979 0.11704 0.0
H1372 H 0.14033 0.47306 0.21727 0.0
H1373 H 0.12849 0.4821 0.18462 0.0
C1374 C 0.46443 0.68045 0.17508 0.0
C1375 C 0.48 0.68542 0.18718 0.0
C1376 C 0.45921 0.66876 0.15613 0.0
C1377 C 0.46034 0.63128 0.1351 0.0
H1378 H 0.44215 0.63919 0.07677 0.0
C1379 C 0.42269 0.57614 0.066 0.0
C1380 C 0.40776 0.57534 0.05636 0.0
C1381 C 0.43462 0.59068 0.07919 0.0
C1382 C 0.44706 0.63669 0.093 0.0
H1383 H 0.50247 0.68221 0.18881 0.0
H1384 H 0.49295 0.66106 0.15581 0.0
H1385 H 0.45773 0.66303 0.10483 0.0
H1386 H 0.39385 0.5894 0.0529 0.0
H1387 H 0.41423 0.61432 0.07611 0.0
H1388 H 0.44877 0.60468 0.12407 0.0
C1389 C 0.485 0.66656 0.16091 0.0
C1390 C 0.45612 0.65041 0.10896 0.0
C1391 C 0.49048 0.67868 0.17963 0.0
C1392 C 0.40522 0.58954 0.05992 0.0
C1393 C 0.41705 0.60397 0.07313 0.0
C1394 C 0.45106 0.61745 0.11925 0.0
C1395 C 0.46924 0.66143 0.1491 0.0
C1396 C 0.46245 0.64774 0.13045 0.0
C1397 C 0.43188 0.60475 0.08308 0.0
C1398 C 0.44384 0.61986 0.09831 0.0
H1399 H 0.45612 0.68546 0.18052 0.0
H1400 H 0.44694 0.66493 0.14752 0.0
H1401 H 0.46496 0.62884 0.15166 0.0
H1402 H 0.42509 0.56546 0.06356 0.0
H1403 H 0.44597 0.59087 0.08636 0.0
C1404 C 0.12951 0.58944 0.56127 0.0
C1405 C 0.11307 0.5745 0.55844 0.0
C1406 C 0.13167 0.60318 0.57576 0.0
C1407 C 0.11177 0.61166 0.62749 0.0
H1408 H 0.14601 0.65982 0.61443 0.0
C1409 C 0.14566 0.68394 0.6762 0.0
C1410 C 0.14985 0.67921 0.698 0.0
C1411 C 0.13835 0.67175 0.65764 0.0
C1412 C 0.13619 0.64648 0.6182 0.0
H1413 H 0.08587 0.56269 0.568 0.0
H1414 H 0.08966 0.58672 0.5932 0.0
H1415 H 0.13867 0.63779 0.58357 0.0
H1416 H 0.14887 0.6578 0.7178 0.0
H1417 H 0.13612 0.63675 0.68584 0.0
H1418 H 0.10954 0.62026 0.66224 0.0
C1419 C 0.10092 0.58769 0.5844 0.0
C1420 C 0.13213 0.63382 0.60062 0.0
C1421 C 0.09874 0.57394 0.56985 0.0
C1422 C 0.1459 0.66193 0.70119 0.0
C1423 C 0.13844 0.64978 0.6829 0.0
C1424 C 0.11586 0.62428 0.64505 0.0
C1425 C 0.11746 0.60237 0.58784 0.0
C1426 C 0.12018 0.61618 0.60526 0.0
C1427 C 0.13482 0.65456 0.66076 0.0
C1428 C 0.12846 0.64177 0.64085 0.0
H1429 H 0.14084 0.59036 0.55275 0.0
H1430 H 0.14463 0.61416 0.57821 0.0
H1431 H 0.10259 0.59821 0.63178 0.0
H1432 H 0.1486 0.69717 0.67319 0.0
H1433 H 0.13563 0.6758 0.6408 0.0
C1434 C 0.27127 0.47966 0.69519 0.0
C1435 C 0.25592 0.46336 0.69453 0.0
C1436 C 0.28383 0.4845 0.67746 0.0
C1437 C 0.29019 0.47715 0.61523 0.0
H1438 H 0.33875 0.50236 0.63324 0.0
C1439 C 0.34501 0.5248 0.55268 0.0
C1440 C 0.36152 0.5265 0.55444 0.0
C1441 C 0.33156 0.51368 0.56794 0.0
C1442 C 0.32529 0.49512 0.62781 0.0
H1443 H 0.2418 0.43935 0.67454 0.0
H1444 H 0.26386 0.44799 0.64315 0.0
H1445 H 0.31652 0.48916 0.66391 0.0
H1446 H 0.37651 0.51707 0.57289 0.0
H1447 H 0.353 0.49761 0.59946 0.0
H1448 H 0.299 0.48345 0.57911 0.0
C1449 C 0.26606 0.45695 0.65759 0.0
C1450 C 0.31253 0.4877 0.64544 0.0
C1451 C 0.25348 0.45198 0.67559 0.0
C1452 C 0.364 0.51617 0.5711 0.0
C1453 C 0.35054 0.50507 0.58643 0.0
C1454 C 0.30298 0.48467 0.59755 0.0
C1455 C 0.28141 0.47326 0.65844 0.0
C1456 C 0.29483 0.479 0.63942 0.0
C1457 C 0.33427 0.50399 0.5854 0.0
C1458 C 0.32068 0.49407 0.60368 0.0
H1459 H 0.27367 0.48878 0.70948 0.0
H1460 H 0.29536 0.49726 0.67846 0.0
H1461 H 0.27667 0.47058 0.61003 0.0
H1462 H 0.34259 0.53251 0.54002 0.0
H1463 H 0.31927 0.51332 0.56677 0.0
C1464 C 0.47709 0.8056 0.69836 0.0
C1465 C 0.48594 0.7965 0.69436 0.0
C1466 C 0.47258 0.81263 0.67933 0.0
C1467 C 0.45828 0.8027 0.61912 0.0
H1468 H 0.4643 0.84896 0.6169 0.0
C1469 C 0.42222 0.81953 0.54861 0.0
C1470 C 0.41582 0.83037 0.55573 0.0
C1471 C 0.43416 0.8178 0.56278 0.0
C1472 C 0.46229 0.83591 0.61733 0.0
H1473 H 0.49745 0.78798 0.66747 0.0
H1474 H 0.48896 0.7998 0.63387 0.0
H1475 H 0.47944 0.84194 0.64714 0.0
H1476 H 0.41718 0.84821 0.58305 0.0
H1477 H 0.43722 0.8446 0.60834 0.0
H1478 H 0.44019 0.79607 0.59071 0.0
C1479 C 0.48585 0.80175 0.65185 0.0
C1480 C 0.47115 0.83199 0.63453 0.0
C1481 C 0.49078 0.7951 0.67102 0.0
C1482 C 0.42198 0.83985 0.57699 0.0
C1483 C 0.43361 0.83782 0.59145 0.0
C1484 C 0.44913 0.80648 0.60226 0.0
C1485 C 0.47645 0.81032 0.65585 0.0
C1486 C 0.46904 0.81528 0.63577 0.0
C1487 C 0.43968 0.82654 0.58477 0.0
C1488 C 0.45076 0.82308 0.60131 0.0
H1489 H 0.47318 0.80682 0.7162 0.0
H1490 H 0.46522 0.81903 0.6829 0.0
H1491 H 0.45622 0.78963 0.61994 0.0
H1492 H 0.41785 0.81219 0.53217 0.0
H1493 H 0.43883 0.80938 0.55656 0.0
C1494 C 0.2437 0.47532 0.22432 0.0
C1495 C 0.22679 0.4623 0.21834 0.0
C1496 C 0.25788 0.47788 0.21054 0.0
C1497 C 0.27045 0.45834 0.16014 0.0
H1498 H 0.30793 0.50594 0.15255 0.0
C1499 C 0.31545 0.48739 0.07809 0.0
C1500 C 0.3334 0.49676 0.08231 0.0
C1501 C 0.30374 0.48088 0.09706 0.0
C1502 C 0.29768 0.49255 0.1548 0.0
H1503 H 0.21147 0.44166 0.19331 0.0
H1504 H 0.2359 0.44668 0.16851 0.0
H1505 H 0.28483 0.49943 0.18094 0.0
H1506 H 0.35328 0.50645 0.1095 0.0
H1507 H 0.33261 0.49561 0.14299 0.0
H1508 H 0.28288 0.45192 0.13239 0.0
C1509 C 0.23849 0.45455 0.18434 0.0
C1510 C 0.28441 0.48874 0.17118 0.0
C1511 C 0.22438 0.45171 0.19849 0.0
C1512 C 0.33949 0.49909 0.10584 0.0
C1513 C 0.32771 0.49299 0.12492 0.0
C1514 C 0.28353 0.46226 0.14334 0.0
C1515 C 0.25549 0.46779 0.19 0.0
C1516 C 0.27042 0.47159 0.17391 0.0
C1517 C 0.30974 0.48404 0.12063 0.0
C1518 C 0.29715 0.47942 0.14038 0.0
H1519 H 0.24598 0.48357 0.2397 0.0
H1520 H 0.27071 0.4879 0.21599 0.0
H1521 H 0.26025 0.44492 0.16202 0.0
H1522 H 0.31047 0.4855 0.06009 0.0
H1523 H 0.28995 0.47415 0.09333 0.0
C1524 C 0.49226 0.77075 0.20515 0.0
C1525 C 0.47876 0.75737 0.2185 0.0
C1526 C 0.48894 0.78139 0.19019 0.0
C1527 C 0.45404 0.77825 0.15414 0.0
H1528 H 0.47739 0.82863 0.15288 0.0
C1529 C 0.42588 0.81127 0.09848 0.0
C1530 C 0.43715 0.82607 0.08523 0.0
C1531 C 0.43225 0.80505 0.11621 0.0
C1532 C 0.47089 0.81457 0.1528 0.0
H1533 H 0.4514 0.74536 0.22745 0.0
H1534 H 0.44571 0.76362 0.20127 0.0
H1535 H 0.48686 0.81397 0.18109 0.0
H1536 H 0.46385 0.84649 0.08069 0.0
H1537 H 0.47525 0.83526 0.11144 0.0
H1538 H 0.43838 0.7785 0.12574 0.0
C1539 C 0.45881 0.76586 0.20231 0.0
C1540 C 0.4763 0.80621 0.16897 0.0
C1541 C 0.46212 0.75542 0.21736 0.0
C1542 C 0.4549 0.83509 0.09082 0.0
C1543 C 0.46139 0.82864 0.1084 0.0
C1544 C 0.44881 0.78652 0.13789 0.0
C1545 C 0.47205 0.77867 0.18817 0.0
C1546 C 0.46764 0.78795 0.17008 0.0
C1547 C 0.45016 0.81319 0.12078 0.0
C1548 C 0.45683 0.80478 0.13734 0.0
H1549 H 0.50523 0.77265 0.20565 0.0
H1550 H 0.49937 0.79118 0.17942 0.0
H1551 H 0.44737 0.76416 0.15429 0.0
H1552 H 0.4121 0.80418 0.09467 0.0
H1553 H 0.42309 0.79351 0.12591 0.0
C1554 C 0.17127 0.71606 0.1983 0.0
C1555 C 0.17958 0.71268 0.21706 0.0
C1556 C 0.15994 0.70265 0.18309 0.0
C1557 C 0.13311 0.65504 0.17624 0.0
H1558 H 0.14499 0.66437 0.10938 0.0
C1559 C 0.10979 0.60026 0.10553 0.0
C1560 C 0.10826 0.60421 0.08182 0.0
C1561 C 0.11565 0.61323 0.12306 0.0
C1562 C 0.14111 0.66155 0.12786 0.0
H1563 H 0.18173 0.69238 0.23533 0.0
H1564 H 0.16172 0.66897 0.20902 0.0
H1565 H 0.15988 0.68747 0.13836 0.0
H1566 H 0.11073 0.62428 0.0578 0.0
H1567 H 0.1199 0.64666 0.08843 0.0
H1568 H 0.11425 0.62912 0.16579 0.0
C1569 C 0.16407 0.682 0.20601 0.0
C1570 C 0.14977 0.67485 0.14452 0.0
C1571 C 0.1756 0.69544 0.22099 0.0
C1572 C 0.11177 0.62098 0.07606 0.0
C1573 C 0.11726 0.63384 0.0936 0.0
C1574 C 0.12422 0.64175 0.15951 0.0
C1575 C 0.15645 0.68554 0.18655 0.0
C1576 C 0.14605 0.6717 0.1689 0.0
C1577 C 0.1199 0.63034 0.11721 0.0
C1578 C 0.12826 0.64474 0.13507 0.0
H1579 H 0.17406 0.72918 0.19475 0.0
H1580 H 0.15416 0.70572 0.16832 0.0
H1581 H 0.1299 0.65228 0.19494 0.0
H1582 H 0.10742 0.58744 0.11022 0.0
H1583 H 0.11768 0.60999 0.14088 0.0
C1584 C 0.12316 0.17576 0.29158 0.0
C1585 C 0.10564 0.16731 0.29843 0.0
C1586 C 0.12867 0.16911 0.27319 0.0
C1587 C 0.11261 0.13765 0.22249 0.0
H1588 H 0.15874 0.14379 0.22694 0.0
C1589 C 0.13978 0.10586 0.15769 0.0
C1590 C 0.15574 0.11778 0.14719 0.0
C1591 C 0.13311 0.11099 0.17661 0.0
C1592 C 0.14584 0.14201 0.22547 0.0
H1593 H 0.08012 0.14528 0.29137 0.0
H1594 H 0.0898 0.13323 0.25979 0.0
H1595 H 0.14792 0.15419 0.25902 0.0
H1596 H 0.17738 0.14425 0.14856 0.0
H1597 H 0.16597 0.15302 0.18203 0.0
H1598 H 0.11054 0.125 0.18907 0.0
C1599 C 0.09927 0.14527 0.26817 0.0
C1600 C 0.13965 0.14809 0.24376 0.0
C1601 C 0.09369 0.15213 0.28635 0.0
C1602 C 0.16505 0.13479 0.15628 0.0
C1603 C 0.15856 0.1398 0.17547 0.0
C1604 C 0.11872 0.13129 0.20437 0.0
C1605 C 0.11688 0.15362 0.26143 0.0
C1606 C 0.12305 0.14628 0.24238 0.0
C1607 C 0.14247 0.12801 0.18568 0.0
C1608 C 0.13549 0.13364 0.20555 0.0
H1609 H 0.13265 0.1876 0.3004 0.0
H1610 H 0.14223 0.17623 0.26816 0.0
H1611 H 0.09987 0.13618 0.22055 0.0
H1612 H 0.13229 0.0927 0.15096 0.0
H1613 H 0.1207 0.10165 0.18427 0.0
C1614 C 0.78709 0.93212 0.28722 0.0
C1615 C 0.7717 0.92844 0.29896 0.0
C1616 C 0.79377 0.94445 0.26889 0.0
C1617 C 0.79005 -0.01886 0.24307 0.0
H1618 H 0.81403 0.97521 0.18946 0.0
C1619 C 0.80467 0.01986 0.15517 0.0
C1620 C 0.82169 0.02736 0.14634 0.0
C1621 C 0.79935 0.00843 0.1745 0.0
C1622 C 0.80748 0.97708 0.20445 0.0
H1623 H 0.75095 0.93436 0.30026 0.0
H1624 H 0.76209 0.95521 0.26774 0.0
H1625 H 0.80281 0.95355 0.22122 0.0
H1626 H 0.84649 0.02875 0.15079 0.0
H1627 H 0.83702 0.00838 0.18435 0.0
H1628 H 0.79421 0.00437 0.22567 0.0
C1629 C 0.76944 0.94914 0.27314 0.0
C1630 C 0.8011 0.96472 0.22273 0.0
C1631 C 0.76293 0.93704 0.29169 0.0
C1632 C 0.83331 0.02322 0.15728 0.0
C1633 C 0.82788 0.01151 0.17637 0.0
C1634 C 0.79618 -0.00667 0.22461 0.0
C1635 C 0.78507 0.9532 0.26163 0.0
C1636 C 0.79222 0.96653 0.24228 0.0
C1637 C 0.81085 0.00401 0.18514 0.0
C1638 C 0.80491 -0.00861 0.2051 0.0
H1639 H 0.79419 0.92577 0.29257 0.0
H1640 H 0.80595 0.94736 0.26077 0.0
H1641 H 0.78369 -0.01671 0.25804 0.0
H1642 H 0.79544 0.02282 0.14711 0.0
H1643 H 0.78612 0.00274 0.18083 0.0
C1644 C 0.91875 0.80119 0.15406 0.0
C1645 C 0.91493 0.78563 0.1426 0.0
C1646 C 0.9311 0.80795 0.17232 0.0
C1647 C -0.03231 0.80406 0.19777 0.0
H1648 H 0.96289 0.8291 0.25102 0.0
C1649 C 0.00689 0.81875 0.28493 0.0
C1650 C 0.01494 0.83596 0.29334 0.0
C1651 C -0.0047 0.8135 0.26586 0.0
C1652 C -0.03556 0.82226 0.23612 0.0
H1653 H 0.92048 0.76458 0.14184 0.0
H1654 H 0.94132 0.77583 0.17425 0.0
H1655 H 0.94089 0.81774 0.21976 0.0
H1656 H 0.01712 0.86114 0.28844 0.0
H1657 H -0.00356 0.85178 0.25531 0.0
H1658 H -0.0091 0.80806 0.21476 0.0
C1659 C 0.93539 0.78328 0.16867 0.0
C1660 C 0.95188 0.81578 0.21813 0.0
C1661 C 0.92329 0.7767 0.15019 0.0
C1662 C 0.01117 0.84783 0.28225 0.0
C1663 C -0.00071 0.84246 0.26343 0.0
C1664 C -0.01995 0.81028 0.21594 0.0
C1665 C 0.93971 0.79915 0.17976 0.0
C1666 C 0.95326 0.80648 0.19875 0.0
C1667 C -0.00874 0.82524 0.25506 0.0
C1668 C -0.02149 0.81936 0.23533 0.0
H1669 H 0.91257 0.80841 0.14846 0.0
H1670 H 0.93418 0.8203 0.18017 0.0
H1671 H -0.03048 0.79741 0.18289 0.0
H1672 H 0.00955 0.80932 0.29312 0.0
H1673 H -0.0108 0.80012 0.25985 0.0
C1674 C 0.80426 0.77798 0.64893 0.0
C1675 C 0.82168 0.78673 0.64166 0.0
C1676 C 0.79872 0.78454 0.66741 0.0
C1677 C 0.81481 0.81647 0.71757 0.0
H1678 H 0.76813 0.80903 0.71427 0.0
C1679 C 0.78724 0.84767 0.78273 0.0
C1680 C 0.77161 0.83554 0.79378 0.0
C1681 C 0.79387 0.84261 0.76367 0.0
C1682 C 0.78118 0.81118 0.71541 0.0
H1683 H 0.84703 0.80923 0.64804 0.0
H1684 H 0.83729 0.82112 0.67975 0.0
H1685 H 0.77895 0.79878 0.68199 0.0
H1686 H 0.75048 0.8088 0.79326 0.0
H1687 H 0.76179 0.80015 0.75952 0.0
H1688 H 0.81701 0.82933 0.75085 0.0
C1689 C 0.82793 0.80891 0.67166 0.0
C1690 C 0.78738 0.80519 0.69701 0.0
C1691 C 0.83353 0.80215 0.65339 0.0
C1692 C 0.76256 0.81841 0.7851 0.0
C1693 C 0.76899 0.81347 0.76577 0.0
C1694 C 0.80868 0.82274 0.73579 0.0
C1695 C 0.8104 0.80024 0.67883 0.0
C1696 C 0.80419 0.80748 0.69798 0.0
C1697 C 0.78477 0.82547 0.75502 0.0
C1698 C 0.79173 0.81992 0.73502 0.0
H1699 H 0.79485 0.76597 0.64038 0.0
H1700 H 0.78524 0.77718 0.67278 0.0
H1701 H 0.82771 0.81831 0.7192 0.0
H1702 H 0.79453 0.86094 0.78914 0.0
H1703 H 0.80603 0.85211 0.75559 0.0
C1704 C 0.16294 0.01392 0.6429 0.0
C1705 C 0.1587 0.02711 0.64164 0.0
C1706 C 0.15676 0.0019 0.66154 0.0
C1707 C 0.12289 -0.01674 0.7085 0.0
H1708 H 0.15293 0.96775 0.73483 0.0
C1709 C 0.12689 0.94266 0.79459 0.0
C1710 C 0.1097 0.92873 0.79539 0.0
C1711 C 0.13259 0.9545 0.77574 0.0
C1712 C 0.14439 0.97202 0.72785 0.0
H1713 H 0.14474 0.03811 0.65913 0.0
H1714 H 0.13423 0.01733 0.69205 0.0
H1715 H 0.1636 -0.01078 0.70309 0.0
H1716 H 0.08503 0.91623 0.7769 0.0
H1717 H 0.0951 0.93673 0.74363 0.0
H1718 H 0.10386 0.96641 0.73384 0.0
C1719 C 0.14208 0.01608 0.67834 0.0
C1720 C 0.15045 -0.0158 0.70939 0.0
C1721 C 0.14821 0.02808 0.65957 0.0
C1722 C 0.09835 0.92685 0.77681 0.0
C1723 C 0.10409 0.93868 0.75784 0.0
C1724 C 0.11684 0.97111 0.72707 0.0
C1725 C 0.14627 0.00281 0.67954 0.0
C1726 C 0.13979 -0.01003 0.69943 0.0
C1727 C 0.1213 0.95267 0.75708 0.0
C1728 C 0.12753 0.96536 0.73701 0.0
H1729 H 0.17091 0.01273 0.6293 0.0
H1730 H 0.16002 -0.00829 0.66162 0.0
H1731 H 0.11424 -0.01275 0.70109 0.0
H1732 H 0.13595 0.94456 0.80868 0.0
H1733 H 0.14583 0.96526 0.77601 0.0
C1734 C 0.92206 0.13687 0.65411 0.0
C1735 C 0.91414 0.11984 0.64516 0.0
C1736 C 0.93422 0.14212 0.67248 0.0
C1737 C 0.95149 0.12512 0.71935 0.0
H1738 H -0.01053 0.1729 0.7193 0.0
C1739 C 0.01055 0.15217 0.784 0.0
C1740 C 0.01355 0.16712 0.79653 0.0
C1741 C -0.00117 0.14593 0.76495 0.0
C1742 C -0.02108 0.15952 0.71953 0.0
H1743 H 0.91269 0.09489 0.64846 0.0
H1744 H 0.93437 0.10417 0.67995 0.0
H1745 H -0.03178 0.16273 0.68727 0.0
H1746 H 0.00698 0.18746 0.79865 0.0
H1747 H -0.01306 0.17683 0.76503 0.0
H1748 H 0.96266 0.12198 0.75146 0.0
C1749 C 0.9309 0.11341 0.67328 0.0
C1750 C -0.03338 0.15369 0.70128 0.0
C1751 C 0.9185 0.10808 0.65513 0.0
C1752 C 0.00491 0.17589 0.78936 0.0
C1753 C -0.00651 0.16986 0.77007 0.0
C1754 C -0.03601 0.1309 0.7374 0.0
C1755 C 0.93903 0.13056 0.68212 0.0
C1756 C 0.95256 0.13648 0.7011 0.0
C1757 C -0.00977 0.15476 0.7578 0.0
C1758 C -0.02232 0.14822 0.73782 0.0
H1759 H 0.91884 0.14619 0.64692 0.0
H1760 H 0.93978 0.15528 0.67917 0.0
H1761 H 0.94077 0.11186 0.72008 0.0
H1762 H 0.01698 0.14512 0.78922 0.0
H1763 H -0.00344 0.13429 0.75569 0.0
C1764 C 0.7876 0.50967 0.62413 0.0
C1765 C 0.77016 0.50123 0.63129 0.0
C1766 C 0.79299 0.50286 0.6058 0.0
C1767 C 0.77653 0.47056 0.55602 0.0
H1768 H 0.82303 0.47755 0.55955 0.0
C1769 C 0.80409 0.43864 0.49184 0.0
C1770 C 0.8194 0.45086 0.48022 0.0
C1771 C 0.79749 0.44375 0.51087 0.0
C1772 C 0.81001 0.4755 0.55838 0.0
H1773 H 0.74462 0.47902 0.62489 0.0
H1774 H 0.75409 0.46665 0.5935 0.0
H1775 H 0.81239 0.48817 0.59161 0.0
H1776 H 0.84002 0.47785 0.47971 0.0
H1777 H 0.82879 0.4866 0.51343 0.0
H1778 H 0.77418 0.4574 0.52295 0.0
C1779 C 0.7636 0.47884 0.60152 0.0
C1780 C 0.80392 0.48172 0.57663 0.0
C1781 C 0.75814 0.48587 0.6196 0.0
C1782 C 0.82818 0.46816 0.48831 0.0
C1783 C 0.8218 0.47316 0.50762 0.0
C1784 C 0.78253 0.46403 0.53798 0.0
C1785 C 0.78115 0.48718 0.59446 0.0
C1786 C 0.7872 0.47964 0.57553 0.0
C1787 C 0.80632 0.46106 0.51892 0.0
C1788 C 0.79942 0.4667 0.53885 0.0
H1789 H 0.79713 0.52163 0.63266 0.0
H1790 H 0.80649 0.50999 0.60051 0.0
H1791 H 0.76368 0.46886 0.55429 0.0
H1792 H 0.79702 0.42524 0.48587 0.0
H1793 H 0.78555 0.43419 0.51938 0.0
C1794 C 0.4557 0.26719 0.62052 0.0
C1795 C 0.43996 0.26303 0.63162 0.0
C1796 C 0.4625 0.27968 0.60238 0.0
C1797 C 0.458 0.31581 0.57607 0.0
H1798 H 0.48376 0.31133 0.52355 0.0
C1799 C 0.47175 0.35356 0.48765 0.0
C1800 C 0.48902 0.36232 0.47963 0.0
C1801 C 0.4668 0.34221 0.50702 0.0
C1802 C 0.47672 0.3128 0.53825 0.0
H1803 H 0.4187 0.26821 0.63194 0.0
H1804 H 0.43003 0.28927 0.59971 0.0
H1805 H 0.47266 0.28951 0.55516 0.0
H1806 H 0.51466 0.36598 0.48548 0.0
H1807 H 0.50582 0.34563 0.51912 0.0
H1808 H 0.46147 0.33871 0.55844 0.0
C1809 C 0.43757 0.28351 0.60549 0.0
C1810 C 0.4704 0.30034 0.55645 0.0
C1811 C 0.43096 0.27128 0.62387 0.0
C1812 C 0.50127 0.35947 0.49137 0.0
C1813 C 0.49622 0.34779 0.51048 0.0
C1814 C 0.46405 0.32805 0.55768 0.0
C1815 C 0.45357 0.28809 0.59467 0.0
C1816 C 0.46082 0.3016 0.57555 0.0
C1817 C 0.47894 0.3391 0.51849 0.0
C1818 C 0.47338 0.32661 0.53855 0.0
H1819 H 0.46298 0.26112 0.62626 0.0
H1820 H 0.47495 0.28298 0.59479 0.0
H1821 H 0.45113 0.31757 0.59072 0.0
H1822 H 0.46203 0.35552 0.47897 0.0
H1823 H 0.45337 0.33558 0.51276 0.0
C1824 C 0.58696 0.10725 0.48606 0.0
C1825 C 0.57914 0.11658 0.47793 0.0
C1826 C 0.59918 0.11382 0.5044 0.0
C1827 C 0.61672 0.14712 0.55275 0.0
H1828 H 0.65493 0.13812 0.55002 0.0
C1829 C 0.6759 0.17878 0.61689 0.0
C1830 C 0.67958 0.16688 0.62809 0.0
C1831 C 0.66405 0.17342 0.59803 0.0
C1832 C 0.6443 0.14069 0.55103 0.0
H1833 H 0.5779 0.14009 0.48272 0.0
H1834 H 0.59965 0.15189 0.51422 0.0
H1835 H 0.63338 0.12738 0.51835 0.0
H1836 H 0.67407 0.14021 0.62801 0.0
H1837 H 0.65373 0.131 0.59477 0.0
H1838 H 0.62806 0.16081 0.58529 0.0
C1839 C 0.59607 0.13927 0.50687 0.0
C1840 C 0.63185 0.13443 0.53297 0.0
C1841 C 0.58363 0.13254 0.48873 0.0
C1842 C 0.67148 0.14966 0.61975 0.0
C1843 C 0.65989 0.1444 0.60067 0.0
C1844 C 0.62935 0.1536 0.57065 0.0
C1845 C 0.60412 0.13006 0.51484 0.0
C1846 C 0.61773 0.13734 0.53373 0.0
C1847 C 0.65593 0.15617 0.58977 0.0
C1848 C 0.64314 0.15026 0.57009 0.0
H1849 H 0.58364 0.09482 0.47821 0.0
H1850 H 0.60471 0.10611 0.5104 0.0
H1851 H 0.60596 0.14945 0.55418 0.0
H1852 H 0.6819 0.19212 0.62302 0.0
H1853 H 0.66127 0.18276 0.58984 0.0
C1854 C 0.46889 0.11646 -0.02452 0.0
C1855 C 0.48606 0.11985 -0.02551 0.0
C1856 C 0.46332 0.12264 -0.0056 0.0
C1857 C 0.45192 0.12808 0.04277 0.0
H1858 H 0.48181 0.17408 0.06896 0.0
C1859 C 0.43427 0.151 0.12884 0.0
C1860 C 0.43789 0.16829 0.12995 0.0
C1861 C 0.44036 0.14536 0.10989 0.0
C1862 C 0.47324 0.16126 0.06172 0.0
H1863 H 0.51086 0.13241 -0.00736 0.0
H1864 H 0.50105 0.143 0.02597 0.0
H1865 H 0.49205 0.16386 0.03579 0.0
H1866 H 0.45071 0.19322 0.11192 0.0
H1867 H 0.46114 0.18329 0.07855 0.0
H1868 H 0.43296 0.12559 0.06823 0.0
C1869 C 0.49195 0.13575 0.01189 0.0
C1870 C 0.4792 0.15531 0.0429 0.0
C1871 C 0.49756 0.1296 -0.00712 0.0
C1872 C 0.44772 0.17982 0.1116 0.0
C1873 C 0.45379 0.17415 0.09257 0.0
C1874 C 0.44596 0.13403 0.06152 0.0
C1875 C 0.47474 0.13231 0.0129 0.0
C1876 C 0.4686 0.13865 0.03316 0.0
C1877 C 0.45019 0.15684 0.09149 0.0
C1878 C 0.45654 0.15068 0.07128 0.0
H1879 H 0.45971 0.10909 0.96155 0.0
H1880 H 0.45007 0.11998 -0.00565 0.0
H1881 H 0.44346 0.1151 0.03594 0.0
H1882 H 0.42682 0.14179 0.14274 0.0
H1883 H 0.43756 0.13202 0.10987 0.0
C1884 C 0.82632 0.34602 -0.0206 0.0
C1885 C 0.82223 0.35932 -0.02175 0.0
C1886 C 0.82035 0.33417 -0.00177 0.0
C1887 C 0.78715 0.31601 0.04599 0.0
H1888 H 0.81724 0.30017 0.07119 0.0
C1889 C 0.79165 0.27466 0.13084 0.0
C1890 C 0.77446 0.26073 0.1317 0.0
C1891 C 0.79722 0.2867 0.11225 0.0
C1892 C 0.80869 0.30454 0.06454 0.0
H1893 H 0.80876 0.3707 -0.00387 0.0
H1894 H 0.7986 0.35016 0.02938 0.0
H1895 H 0.8277 0.32172 0.03956 0.0
H1896 H 0.74965 0.24847 0.1136 0.0
H1897 H 0.75948 0.26932 0.08075 0.0
H1898 H 0.76831 0.29914 0.07153 0.0
C1899 C 0.80619 0.34873 0.01545 0.0
C1900 C 0.81463 0.31677 0.04615 0.0
C1901 C 0.81211 0.36058 -0.00351 0.0
C1902 C 0.76297 0.25907 0.11345 0.0
C1903 C 0.76858 0.2711 0.09473 0.0
C1904 C 0.78122 0.30381 0.0645 0.0
C1905 C 0.81022 0.33535 0.01653 0.0
C1906 C 0.80393 0.32262 0.03655 0.0
C1907 C 0.78579 0.28508 0.0939 0.0
C1908 C 0.79193 0.29792 0.07401 0.0
H1909 H 0.834 0.34461 0.96557 0.0
H1910 H 0.82348 0.32388 -0.00179 0.0
H1911 H 0.77848 0.32007 0.03888 0.0
H1912 H 0.80082 0.2764 0.14469 0.0
H1913 H 0.81047 0.29744 0.11247 0.0
C1914 C 0.58339 0.44325 -0.01078 0.0
C1915 C 0.57933 0.45494 -0.02175 0.0
C1916 C 0.5959 0.44893 0.00726 0.0
C1917 C 0.63261 0.48961 0.03275 0.0
H1918 H 0.62798 0.45953 0.08558 0.0
C1919 C 0.67299 0.51435 0.11902 0.0
C1920 C 0.68046 0.5048 0.12767 0.0
C1921 C 0.66129 0.50805 0.10004 0.0
C1922 C 0.6295 0.468 0.0708 0.0
H1923 H 0.58471 0.48155 -0.02186 0.0
H1924 H 0.60591 0.49129 0.01013 0.0
H1925 H 0.60579 0.44886 0.05461 0.0
H1926 H 0.68155 0.48117 0.1232 0.0
H1927 H 0.66077 0.46998 0.0902 0.0
H1928 H 0.65604 0.50892 0.04949 0.0
C1929 C 0.59997 0.47788 0.00434 0.0
C1930 C 0.61682 0.46189 0.05298 0.0
C1931 C 0.58768 0.47227 -0.01389 0.0
C1932 C 0.67605 0.48884 0.11685 0.0
C1933 C 0.6641 0.48239 0.09809 0.0
C1934 C 0.64513 0.49578 0.05072 0.0
C1935 C 0.60447 0.46637 0.01496 0.0
C1936 C 0.61814 0.47265 0.03376 0.0
C1937 C 0.6566 0.49194 0.08953 0.0
C1938 C 0.64367 0.48507 0.06997 0.0
H1939 H 0.57725 0.42983 -0.01658 0.0
H1940 H 0.59912 0.43971 0.01475 0.0
H1941 H 0.63437 0.49816 0.01799 0.0
H1942 H 0.67614 0.52669 0.12698 0.0
H1943 H 0.65561 0.51561 0.09392 0.0
C1944 C 0.4568 0.84563 0.95629 0.0
C1945 C 0.43935 0.83654 0.96357 0.0
C1946 C 0.46244 0.83954 0.93734 0.0
C1947 C 0.45336 0.80016 0.90573 0.0
H1948 H 0.48099 0.83154 0.85507 0.0
C1949 C 0.47488 0.77647 0.82324 0.0
C1950 C 0.49102 0.78803 0.81291 0.0
C1951 C 0.46816 0.78204 0.84156 0.0
C1952 C 0.47355 0.82263 0.86924 0.0
H1953 H 0.41413 0.8139 0.95678 0.0
H1954 H 0.42414 0.80303 0.92385 0.0
H1955 H 0.47002 0.84198 0.88692 0.0
H1956 H 0.51305 0.81425 0.81422 0.0
H1957 H 0.50176 0.82375 0.84675 0.0
H1958 H 0.45733 0.78095 0.88866 0.0
C1959 C 0.43337 0.81494 0.93277 0.0
C1960 C 0.46716 0.82863 0.8874 0.0
C1961 C 0.42764 0.82121 0.95149 0.0
C1962 C 0.5005 0.80509 0.82169 0.0
C1963 C 0.49392 0.81057 0.84023 0.0
C1964 C 0.45998 0.79421 0.88776 0.0
C1965 C 0.45082 0.82407 0.92552 0.0
C1966 C 0.45705 0.81747 0.90585 0.0
C1967 C 0.47753 0.79922 0.85021 0.0
C1968 C 0.47024 0.8054 0.86929 0.0
H1969 H 0.46612 0.85748 0.96525 0.0
H1970 H 0.47599 0.84675 0.93222 0.0
H1971 H 0.44573 0.79134 0.9199 0.0
H1972 H 0.46722 0.76327 0.81671 0.0
H1973 H 0.45541 0.77295 0.8485 0.0
C1974 C 0.13874 0.68713 0.82376 0.0
C1975 C 0.15587 0.69489 0.81531 0.0
C1976 C 0.13327 0.67542 0.84276 0.0
C1977 C 0.14132 0.64382 0.87209 0.0
H1978 H 0.11603 0.64857 0.92496 0.0
C1979 C 0.11877 0.597 0.95319 0.0
C1980 C 0.10303 0.59305 0.96412 0.0
C1981 C 0.12592 0.60964 0.93527 0.0
C1982 C 0.12282 0.64684 0.91018 0.0
H1983 H 0.18074 0.69651 0.82014 0.0
H1984 H 0.17102 0.67566 0.85317 0.0
H1985 H 0.12726 0.67041 0.89357 0.0
H1986 H 0.0821 0.59873 0.96427 0.0
H1987 H 0.09407 0.62012 0.93247 0.0
H1988 H 0.13637 0.61994 0.88808 0.0
C1989 C 0.16191 0.67879 0.84512 0.0
C1990 C 0.12936 0.65946 0.89229 0.0
C1991 C 0.16748 0.69078 0.82635 0.0
C1992 C 0.09435 0.60162 0.95633 0.0
C1993 C 0.10132 0.61403 0.93822 0.0
C1994 C 0.13454 0.63102 0.88981 0.0
C1995 C 0.14474 0.671 0.85347 0.0
C1996 C 0.13859 0.65803 0.87301 0.0
C1997 C 0.11735 0.61845 0.92767 0.0
C1998 C 0.12507 0.63228 0.90903 0.0
H1999 H 0.12951 0.69005 0.8156 0.0
H2000 H 0.11994 0.6695 0.84874 0.0
H2001 H 0.14826 0.64234 0.85727 0.0
H2002 H 0.12581 0.59068 0.95894 0.0
H2003 H 0.13836 0.61279 0.92782 0.0
C2004 C 0.32889 0.48378 0.96314 0.0
C2005 C 0.34327 0.50075 0.96398 0.0
C2006 C 0.31681 0.47874 0.94467 0.0
C2007 C 0.31173 0.48878 0.88299 0.0
H2008 H 0.26247 0.46213 0.89712 0.0
C2009 C 0.26009 0.45135 0.81105 0.0
C2010 C 0.24508 0.45275 0.81126 0.0
C2011 C 0.27198 0.45805 0.82976 0.0
C2012 C 0.27617 0.46967 0.89292 0.0
H2013 H 0.35636 0.52567 0.94596 0.0
H2014 H 0.33534 0.51675 0.91343 0.0
H2015 H 0.28351 0.47243 0.92969 0.0
H2016 H 0.2307 0.46213 0.83143 0.0
H2017 H 0.25146 0.47366 0.86442 0.0
H2018 H 0.30441 0.48587 0.84622 0.0
C2019 C 0.33342 0.50739 0.92715 0.0
C2020 C 0.28822 0.47543 0.91153 0.0
C2021 C 0.34542 0.51251 0.94579 0.0
C2022 C 0.24214 0.46085 0.83076 0.0
C2023 C 0.25398 0.4674 0.84966 0.0
C2024 C 0.2997 0.48286 0.86438 0.0
C2025 C 0.31893 0.49048 0.92648 0.0
C2026 C 0.30613 0.48496 0.90676 0.0
C2027 C 0.26909 0.46616 0.84926 0.0
C2028 C 0.28179 0.47314 0.86912 0.0
H2029 H 0.32684 0.4744 -0.02313 0.0
H2030 H 0.30591 0.46555 0.94447 0.0
H2031 H 0.32544 0.496 0.87875 0.0
H2032 H 0.26276 0.44518 0.79631 0.0
H2033 H 0.28337 0.45669 0.82909 0.0
C2034 C 0.09337 0.48511 0.45296 0.0
C2035 C 0.10266 0.50221 0.46173 0.0
C2036 C 0.09984 0.47992 0.43397 0.0
C2037 C 0.13983 0.48856 0.40507 0.0
H2038 H 0.11022 0.46382 0.3515 0.0
C2039 C 0.16478 0.46704 0.32373 0.0
C2040 C 0.15299 0.45141 0.3124 0.0
C2041 C 0.15915 0.47396 0.34175 0.0
C2042 C 0.11862 0.47045 0.36647 0.0
H2043 H 0.12605 0.5273 0.45752 0.0
H2044 H 0.13759 0.51805 0.4245 0.0
H2045 H 0.09936 0.47463 0.38303 0.0
H2046 H 0.12625 0.43041 0.31164 0.0
H2047 H 0.1166 0.44196 0.34361 0.0
H2048 H 0.15888 0.48387 0.38911 0.0
C2049 C 0.12522 0.50876 0.43229 0.0
C2050 C 0.1124 0.47676 0.38444 0.0
C2051 C 0.11857 0.51406 0.45105 0.0
C2052 C 0.13561 0.44258 0.31989 0.0
C2053 C 0.13005 0.44932 0.33811 0.0
C2054 C 0.14599 0.48201 0.38726 0.0
C2055 C 0.1159 0.49163 0.42359 0.0
C2056 C 0.1229 0.48578 0.40397 0.0
C2057 C 0.14166 0.46525 0.34906 0.0
C2058 C 0.13541 0.47274 0.36779 0.0
H2059 H 0.08107 0.4757 0.46082 0.0
H2060 H 0.09245 0.46661 0.42771 0.0
H2061 H 0.14813 0.49535 0.42007 0.0
H2062 H 0.17824 0.4742 0.31821 0.0
H2063 H 0.16846 0.48634 0.34952 0.0
C2064 C 0.42665 0.59258 0.44479 0.0
C2065 C 0.4378 0.59473 0.46379 0.0
C2066 C 0.43259 0.60419 0.42555 0.0
C2067 C 0.47318 0.63698 0.39571 0.0
H2068 H 0.44361 0.65234 0.3673 0.0
C2069 C 0.47855 0.69296 0.32614 0.0
C2070 C 0.48906 0.69171 0.3085 0.0
C2071 C 0.47202 0.68098 0.34491 0.0
C2072 C 0.45208 0.64829 0.37515 0.0
H2073 H 0.46388 0.61082 0.47755 0.0
H2074 H 0.47409 0.6311 0.44436 0.0
H2075 H 0.43275 0.63182 0.40044 0.0
H2076 H 0.50088 0.67685 0.29666 0.0
H2077 H 0.48934 0.65589 0.32908 0.0
H2078 H 0.49267 0.65377 0.37095 0.0
C2079 C 0.46087 0.62031 0.44401 0.0
C2080 C 0.44577 0.63634 0.39396 0.0
C2081 C 0.45497 0.60872 0.46314 0.0
C2082 C 0.49289 0.67824 0.31003 0.0
C2083 C 0.48634 0.66626 0.32871 0.0
C2084 C 0.47949 0.64894 0.37698 0.0
C2085 C 0.44979 0.61819 0.42492 0.0
C2086 C 0.45627 0.63058 0.40453 0.0
C2087 C 0.47584 0.66748 0.34643 0.0
C2088 C 0.46904 0.65476 0.36645 0.0
H2089 H 0.41336 0.58192 0.44475 0.0
H2090 H 0.42376 0.60205 0.41103 0.0
H2091 H 0.48156 0.63268 0.40319 0.0
H2092 H 0.47537 0.7032 0.32548 0.0
H2093 H 0.46417 0.68246 0.35841 0.0
C2094 C 0.34666 0.8237 0.4471 0.0
C2095 C 0.34455 0.833 0.46579 0.0
C2096 C 0.335 0.8176 0.42796 0.0
C2097 C 0.30293 0.79812 0.39634 0.0
H2098 H 0.28626 0.82781 0.37204 0.0
C2099 C 0.24738 0.77443 0.32688 0.0
C2100 C 0.2492 0.78631 0.30905 0.0
C2101 C 0.25903 0.77976 0.34599 0.0
C2102 C 0.29087 0.81939 0.37845 0.0
H2103 H 0.32844 0.84299 0.47918 0.0
H2104 H 0.3081 0.83222 0.44615 0.0
H2105 H 0.3069 0.83793 0.40471 0.0
H2106 H 0.2648 0.81305 0.29717 0.0
H2107 H 0.28516 0.82223 0.33014 0.0
H2108 H 0.28713 0.77974 0.3696 0.0
C2109 C 0.31889 0.82987 0.44597 0.0
C2110 C 0.30257 0.82511 0.39742 0.0
C2111 C 0.33051 0.83597 0.465 0.0
C2112 C 0.26295 0.80358 0.31067 0.0
C2113 C 0.27459 0.80888 0.32968 0.0
C2114 C 0.29121 0.79238 0.3773 0.0
C2115 C 0.32101 0.82068 0.42713 0.0
C2116 C 0.30873 0.81455 0.40666 0.0
C2117 C 0.27276 0.79708 0.34765 0.0
C2118 C 0.28505 0.80297 0.3681 0.0
H2119 H 0.35735 0.8212 0.44718 0.0
H2120 H 0.33713 0.81073 0.41363 0.0
H2121 H 0.30728 0.78958 0.40315 0.0
H2122 H 0.23691 0.76104 0.32615 0.0
H2123 H 0.25713 0.77038 0.35965 0.0
C2124 C 0.24267 0.13565 0.09578 0.0
C2125 C 0.22879 0.11919 0.10206 0.0
C2126 C 0.25939 0.14137 0.10452 0.0
C2127 C 0.28706 0.12597 0.13228 0.0
H2128 H 0.31408 0.17374 0.1539 0.0
C2129 C 0.35215 0.15159 0.18276 0.0
C2130 C 0.36575 0.16807 0.17596 0.0
C2131 C 0.33521 0.14554 0.17461 0.0
C2132 C 0.30678 0.1604 0.14776 0.0
H2133 H 0.22171 0.09568 0.12205 0.0
H2134 H 0.25076 0.10566 0.13732 0.0
H2135 H 0.28539 0.16329 0.13689 0.0
H2136 H 0.37209 0.19126 0.15562 0.0
H2137 H 0.34274 0.18075 0.14141 0.0
H2138 H 0.30849 0.1231 0.14312 0.0
C2139 C 0.24881 0.11412 0.12549 0.0
C2140 C 0.29033 0.15442 0.13793 0.0
C2141 C 0.23211 0.10842 0.11679 0.0
C2142 C 0.36194 0.17851 0.16129 0.0
C2143 C 0.34505 0.17251 0.15321 0.0
C2144 C 0.30353 0.13196 0.14212 0.0
C2145 C 0.26264 0.13075 0.11972 0.0
C2146 C 0.28026 0.13714 0.12999 0.0
C2147 C 0.33147 0.15588 0.15954 0.0
C2148 C 0.31364 0.14928 0.14991 0.0
H2149 H 0.24057 0.14426 0.08446 0.0
H2150 H 0.26978 0.15414 0.0994 0.0
H2151 H 0.27977 0.11264 0.1261 0.0
H2152 H 0.35464 0.14322 0.19402 0.0
H2153 H 0.32503 0.13276 0.18009 0.0
C2154 C 0.76412 0.17386 0.15967 0.0
C2155 C 0.7746 0.18794 0.17471 0.0
C2156 C 0.76996 0.16295 0.15108 0.0
C2157 C 0.81019 0.16182 0.13951 0.0
H2158 H 0.77862 0.11217 0.13344 0.0
C2159 C 0.83321 0.11358 0.11405 0.0
C2160 C 0.82248 0.09946 0.09921 0.0
C2161 C 0.82763 0.12471 0.12264 0.0
C2162 C 0.78756 0.12604 0.13471 0.0
H2163 H 0.79937 0.20137 0.19289 0.0
H2164 H 0.80953 0.18219 0.17809 0.0
H2165 H 0.76835 0.13046 0.15078 0.0
H2166 H 0.79762 0.08627 0.08123 0.0
H2167 H 0.78794 0.10582 0.09598 0.0
H2168 H 0.8294 0.15738 0.12343 0.0
C2169 C 0.79685 0.17973 0.17269 0.0
C2170 C 0.78168 0.13654 0.14472 0.0
C2171 C 0.79097 0.19065 0.18134 0.0
C2172 C 0.8062 0.09701 0.09265 0.0
C2173 C 0.8006 0.10813 0.10128 0.0
C2174 C 0.81608 0.15131 0.1295 0.0
C2175 C 0.78647 0.16583 0.15727 0.0
C2176 C 0.7929 0.15458 0.14722 0.0
C2177 C 0.81115 0.122 0.11664 0.0
C2178 C 0.80483 0.13328 0.12692 0.0
H2179 H 0.75146 0.17141 0.15412 0.0
H2180 H 0.76169 0.15253 0.13904 0.0
H2181 H 0.81911 0.17569 0.14079 0.0
H2182 H 0.84581 0.11583 0.11952 0.0
H2183 H 0.83603 0.13512 0.1346 0.0
C2184 C 0.76726 0.57946 0.15908 0.0
C2185 C 0.75327 0.57631 0.17395 0.0
C2186 C 0.77849 0.59616 0.15024 0.0
C2187 C 0.78029 0.63779 0.13745 0.0
H2188 H 0.82976 0.65577 0.13155 0.0
C2189 C 0.82851 0.70925 0.11208 0.0
C2190 C 0.84265 0.71277 0.0973 0.0
C2191 C 0.81745 0.69245 0.12066 0.0
C2192 C 0.81594 0.65086 0.13276 0.0
H2193 H 0.74042 0.58838 0.19172 0.0
H2194 H 0.76013 0.61757 0.17652 0.0
H2195 H 0.81127 0.62715 0.14914 0.0
H2196 H 0.856 0.70123 0.07952 0.0
H2197 H 0.83655 0.6718 0.09427 0.0
H2198 H 0.78493 0.66147 0.12107 0.0
C2199 C 0.76227 0.60706 0.1714 0.0
C2200 C 0.80534 0.63445 0.14292 0.0
C2201 C 0.75105 0.59035 0.18029 0.0
C2202 C 0.84523 0.69897 0.09087 0.0
C2203 C 0.83416 0.68213 0.0995 0.0
C2204 C 0.79088 0.65418 0.12728 0.0
C2205 C 0.776 0.61014 0.156 0.0
C2206 C 0.78737 0.62771 0.14546 0.0
C2207 C 0.82023 0.67869 0.11471 0.0
C2208 C 0.80886 0.66097 0.12485 0.0
H2209 H 0.76932 0.56894 0.15378 0.0
H2210 H 0.7888 0.59799 0.13827 0.0
H2211 H 0.76648 0.63289 0.13869 0.0
H2212 H 0.82615 0.71957 0.11747 0.0
H2213 H 0.807 0.69036 0.13254 0.0
C2214 C 0.16462 0.37567 0.2817 0.0
C2215 C 0.15374 0.37885 0.26707 0.0
C2216 C 0.15926 0.3589 0.29003 0.0
C2217 C 0.12753 0.31223 0.27957 0.0
H2218 H 0.13738 0.30718 0.34538 0.0
C2219 C 0.09676 0.24505 0.32509 0.0
C2220 C 0.10732 0.24166 0.34008 0.0
C2221 C 0.10251 0.26183 0.31651 0.0
C2222 C 0.1347 0.30835 0.32689 0.0
H2223 H 0.12879 0.36678 0.24935 0.0
H2224 H 0.11936 0.33748 0.26398 0.0
H2225 H 0.14732 0.33611 0.32918 0.0
H2226 H 0.13215 0.25337 0.35809 0.0
H2227 H 0.14227 0.28271 0.34297 0.0
H2228 H 0.11489 0.28448 0.27728 0.0
C2229 C 0.13214 0.34796 0.26885 0.0
C2230 C 0.1404 0.32496 0.31757 0.0
C2231 C 0.13751 0.36477 0.2605 0.0
C2232 C 0.12367 0.25555 0.34665 0.0
C2233 C 0.12944 0.27238 0.33803 0.0
C2234 C 0.12183 0.29562 0.28888 0.0
C2235 C 0.14286 0.34485 0.28397 0.0
C2236 C 0.13688 0.32713 0.29379 0.0
C2237 C 0.119 0.2757 0.32263 0.0
C2238 C 0.12528 0.29345 0.31269 0.0
H2239 H 0.17724 0.3862 0.28704 0.0
H2240 H 0.16799 0.35696 0.30127 0.0
H2241 H 0.12481 0.3134 0.26109 0.0
H2242 H 0.08406 0.23469 0.31974 0.0
H2243 H 0.09398 0.26394 0.30507 0.0
C2244 C 0.56559 0.77928 0.28198 0.0
C2245 C 0.56225 0.76552 0.26647 0.0
C2246 C 0.58231 0.79033 0.29069 0.0
C2247 C 0.62415 0.79227 0.30145 0.0
H2248 H 0.64159 0.84165 0.30925 0.0
C2249 C 0.69543 0.84092 0.32683 0.0
C2250 C 0.69878 0.85472 0.34227 0.0
C2251 C 0.67869 0.82982 0.31821 0.0
C2252 C 0.63684 0.82785 0.3075 0.0
H2253 H 0.57403 0.75283 0.24757 0.0
H2254 H 0.60332 0.77226 0.26257 0.0
H2255 H 0.61298 0.82318 0.29191 0.0
H2256 H 0.68699 0.86741 0.36117 0.0
H2257 H 0.65768 0.84788 0.34634 0.0
H2258 H 0.64801 0.79694 0.31704 0.0
C2259 C 0.59291 0.77435 0.26825 0.0
C2260 C 0.62043 0.81725 0.29749 0.0
C2261 C 0.57614 0.76329 0.25949 0.0
C2262 C 0.68487 0.85692 0.3493 0.0
C2263 C 0.66809 0.8458 0.34063 0.0
C2264 C 0.64056 0.80287 0.31147 0.0
C2265 C 0.59618 0.78793 0.28415 0.0
C2266 C 0.61385 0.79931 0.29432 0.0
C2267 C 0.66481 0.83221 0.32478 0.0
C2268 C 0.64714 0.82081 0.31463 0.0
H2269 H 0.55519 0.78136 0.2878 0.0
H2270 H 0.58427 0.80049 0.30309 0.0
H2271 H 0.6194 0.77847 0.29969 0.0
H2272 H 0.70584 0.83887 0.32097 0.0
H2273 H 0.67673 0.81964 0.30585 0.0
C2274 C 0.16303 0.77833 0.28374 0.0
C2275 C 0.17706 0.78882 0.26864 0.0
C2276 C 0.15212 0.78418 0.29226 0.0
C2277 C 0.13827 0.81646 0.28129 0.0
H2278 H 0.12298 0.8068 0.34706 0.0
C2279 C 0.10122 0.84673 0.32569 0.0
C2280 C 0.08697 0.83587 0.34024 0.0
C2281 C 0.11255 0.8413 0.31757 0.0
C2282 C 0.12697 0.80946 0.32859 0.0
H2283 H 0.19047 0.81364 0.25041 0.0
H2284 H 0.17149 0.82394 0.26541 0.0
H2285 H 0.14186 0.79675 0.33122 0.0
H2286 H 0.07369 0.81087 0.35806 0.0
H2287 H 0.09345 0.80133 0.3438 0.0
H2288 H 0.12336 0.82915 0.27866 0.0
C2289 C 0.16882 0.81109 0.27048 0.0
C2290 C 0.13781 0.80368 0.31948 0.0
C2291 C 0.17975 0.80522 0.26193 0.0
C2292 C 0.08457 0.81958 0.34695 0.0
C2293 C 0.09594 0.81414 0.33882 0.0
C2294 C 0.12744 0.82224 0.29041 0.0
C2295 C 0.15495 0.8007 0.28595 0.0
C2296 C 0.14357 0.80706 0.29568 0.0
C2297 C 0.10996 0.82485 0.32377 0.0
C2298 C 0.12163 0.8188 0.31418 0.0
H2299 H 0.16052 0.7656 0.2892 0.0
H2300 H 0.14141 0.77569 0.30375 0.0
H2301 H 0.14222 0.81908 0.2628 0.0
H2302 H 0.1035 0.85939 0.32024 0.0
H2303 H 0.12337 0.85002 0.30638 0.0
C2304 C 0.68488 0.81649 0.84649 0.0
C2305 C 0.6986 0.8331 0.84043 0.0
C2306 C 0.66809 0.81062 0.83785 0.0
C2307 C 0.64503 0.8185 0.78893 0.0
H2308 H 0.6043 0.79176 0.82826 0.0
C2309 C 0.57624 0.80239 0.75959 0.0
C2310 C 0.56215 0.78605 0.76584 0.0
C2311 C 0.59293 0.80772 0.76812 0.0
C2312 C 0.61552 0.79901 0.81691 0.0
H2313 H 0.70529 0.85676 0.82107 0.0
H2314 H 0.6761 0.84665 0.80633 0.0
H2315 H 0.63306 0.80195 0.84495 0.0
H2316 H 0.55467 0.76229 0.78541 0.0
H2317 H 0.58376 0.77144 0.79993 0.0
H2318 H 0.62752 0.81557 0.76089 0.0
C2319 C 0.67832 0.838 0.8174 0.0
C2320 C 0.63203 0.80488 0.82652 0.0
C2321 C 0.69505 0.84386 0.82604 0.0
C2322 C 0.56522 0.77499 0.7803 0.0
C2323 C 0.58189 0.7803 0.7888 0.0
C2324 C 0.62853 0.81262 0.77932 0.0
C2325 C 0.66465 0.82122 0.82291 0.0
C2326 C 0.64701 0.81477 0.81269 0.0
C2327 C 0.59594 0.79683 0.7831 0.0
C2328 C 0.61354 0.80283 0.79319 0.0
H2329 H 0.68717 0.80785 0.85746 0.0
H2330 H 0.65791 0.79758 0.84232 0.0
H2331 H 0.65626 0.8258 0.77761 0.0
H2332 H 0.57432 0.81127 0.74859 0.0
H2333 H 0.60339 0.8206 0.76353 0.0
C2334 C 0.1403 0.76418 0.76006 0.0
C2335 C 0.15664 0.76674 0.76652 0.0
C2336 C 0.13476 0.77544 0.7684 0.0
C2337 C 0.14284 0.80681 0.81711 0.0
H2338 H 0.11652 0.82074 0.77727 0.0
C2339 C 0.12548 0.85886 0.84635 0.0
C2340 C 0.10905 0.85608 0.83991 0.0
C2341 C 0.1313 0.84788 0.83778 0.0
C2342 C 0.12368 0.81681 0.78875 0.0
H2343 H 0.18018 0.78348 0.78621 0.0
H2344 H 0.17066 0.80319 0.8004 0.0
H2345 H 0.12678 0.80216 0.76085 0.0
H2346 H 0.08568 0.83924 0.81995 0.0
H2347 H 0.09569 0.82003 0.80538 0.0
H2348 H 0.13971 0.82144 0.84502 0.0
C2349 C 0.16196 0.79232 0.78927 0.0
C2350 C 0.12958 0.80616 0.7793 0.0
C2351 C 0.16749 0.78108 0.78095 0.0
C2352 C 0.09844 0.84182 0.8252 0.0
C2353 C 0.10424 0.83087 0.81666 0.0
C2354 C 0.13693 0.81747 0.82656 0.0
C2355 C 0.14543 0.78952 0.7834 0.0
C2356 C 0.13924 0.801 0.79335 0.0
C2357 C 0.12083 0.83387 0.82256 0.0
C2358 C 0.12724 0.82258 0.81253 0.0
H2359 H 0.13159 0.75322 0.74907 0.0
H2360 H 0.1219 0.7728 0.76366 0.0
H2361 H 0.14998 0.80287 0.82859 0.0
H2362 H 0.13401 0.86976 0.85757 0.0
H2363 H 0.14421 0.85067 0.84256 0.0
C2364 C 0.17621 0.36522 0.76075 0.0
C2365 C 0.1733 0.3788 0.76726 0.0
C2366 C 0.16531 0.34828 0.76921 0.0
C2367 C 0.13425 0.32439 0.81808 0.0
H2368 H 0.12045 0.2841 0.77787 0.0
C2369 C 0.0822 0.25455 0.84681 0.0
C2370 C 0.08496 0.24088 0.84034 0.0
C2371 C 0.09319 0.27145 0.83829 0.0
C2372 C 0.12435 0.2952 0.78945 0.0
H2373 H 0.15635 0.38509 0.78727 0.0
H2374 H 0.13731 0.35565 0.80167 0.0
H2375 H 0.13896 0.31317 0.76166 0.0
H2376 H 0.10173 0.23436 0.8203 0.0
H2377 H 0.12094 0.26374 0.8058 0.0
H2378 H 0.11964 0.30643 0.84586 0.0
C2379 C 0.14817 0.35809 0.79041 0.0
C2380 C 0.13497 0.31189 0.78013 0.0
C2381 C 0.15904 0.37497 0.78197 0.0
C2382 C 0.09916 0.24456 0.82558 0.0
C2383 C 0.11013 0.26141 0.81709 0.0
C2384 C 0.12364 0.3077 0.8274 0.0
C2385 C 0.15127 0.34455 0.7844 0.0
C2386 C 0.14004 0.32672 0.7943 0.0
C2387 C 0.10719 0.27506 0.82309 0.0
C2388 C 0.11853 0.29287 0.81321 0.0
H2389 H 0.18712 0.36774 0.74952 0.0
H2390 H 0.16817 0.33821 0.76436 0.0
H2391 H 0.13814 0.33549 0.82966 0.0
H2392 H 0.07135 0.25215 0.85806 0.0
H2393 H 0.09044 0.2816 0.84313 0.0
C2394 C 0.83128 0.70948 0.61521 0.0
C2395 C 0.82065 0.71275 0.60017 0.0
C2396 C 0.82561 0.69274 0.62392 0.0
C2397 C 0.78559 0.65087 0.63582 0.0
H2398 H 0.81722 0.63316 0.64146 0.0
C2399 C 0.76218 0.57928 0.65986 0.0
C2400 C 0.77265 0.57566 0.6747 0.0
C2401 C 0.76804 0.59614 0.65152 0.0
C2402 C 0.80827 0.63799 0.64032 0.0
H2403 H 0.79582 0.70086 0.58215 0.0
H2404 H 0.78596 0.67156 0.59718 0.0
H2405 H 0.82744 0.66192 0.62441 0.0
H2406 H 0.79745 0.58708 0.69276 0.0
H2407 H 0.80766 0.61664 0.6784 0.0
H2408 H 0.76642 0.62696 0.65173 0.0
C2409 C 0.79862 0.68202 0.60247 0.0
C2410 C 0.81412 0.65448 0.63048 0.0
C2411 C 0.80432 0.69879 0.5937 0.0
C2412 C 0.78905 0.58942 0.68136 0.0
C2413 C 0.79496 0.60633 0.67297 0.0
C2414 C 0.77974 0.63439 0.64568 0.0
C2415 C 0.80914 0.67881 0.61788 0.0
C2416 C 0.80285 0.66113 0.62805 0.0
C2417 C 0.78457 0.60988 0.65778 0.0
C2418 C 0.79098 0.6277 0.64801 0.0
H2419 H 0.84392 0.71993 0.62062 0.0
H2420 H 0.83398 0.69082 0.63593 0.0
H2421 H 0.77663 0.65568 0.63465 0.0
H2422 H 0.74949 0.569 0.65428 0.0
H2423 H 0.75977 0.59829 0.63963 0.0
C2424 C 0.23345 0.11474 0.61345 0.0
C2425 C 0.23009 0.10102 0.59786 0.0
C2426 C 0.25019 0.12576 0.62216 0.0
C2427 C 0.29192 0.12745 0.6328 0.0
H2428 H 0.30958 0.17682 0.64121 0.0
C2429 C 0.36324 0.17563 0.65858 0.0
C2430 C 0.36663 0.18935 0.67421 0.0
C2431 C 0.34649 0.16466 0.64986 0.0
C2432 C 0.30477 0.16302 0.63929 0.0
H2433 H 0.24186 0.0884 0.57876 0.0
H2434 H 0.27116 0.10777 0.59373 0.0
H2435 H 0.28097 0.15857 0.62375 0.0
H2436 H 0.35493 0.20204 0.69331 0.0
H2437 H 0.32562 0.18275 0.6783 0.0
H2438 H 0.31571 0.1319 0.64835 0.0
C2439 C 0.26076 0.10986 0.5995 0.0
C2440 C 0.28836 0.15255 0.6292 0.0
C2441 C 0.24399 0.09883 0.59074 0.0
C2442 C 0.35277 0.1916 0.6813 0.0
C2443 C 0.336 0.18063 0.67253 0.0
C2444 C 0.30833 0.13792 0.64289 0.0
C2445 C 0.26404 0.12336 0.61553 0.0
C2446 C 0.2817 0.13461 0.62581 0.0
C2447 C 0.33267 0.16711 0.6565 0.0
C2448 C 0.31499 0.15586 0.64626 0.0
H2449 H 0.22305 0.11678 0.61938 0.0
H2450 H 0.25215 0.13587 0.63465 0.0
H2451 H 0.28711 0.11365 0.63088 0.0
H2452 H 0.3736 0.17354 0.65267 0.0
H2453 H 0.3445 0.15454 0.63736 0.0
C2454 C 0.8272 0.10905 0.61501 0.0
C2455 C 0.84134 0.11991 0.60029 0.0
C2456 C 0.81601 0.11454 0.62353 0.0
C2457 C 0.80181 0.14669 0.61347 0.0
H2458 H 0.78681 0.13665 0.67931 0.0
C2459 C 0.76556 0.17724 0.65931 0.0
C2460 C 0.75137 0.1664 0.67396 0.0
C2461 C 0.7767 0.17168 0.65082 0.0
C2462 C 0.79072 0.13941 0.66082 0.0
H2463 H 0.85456 0.14495 0.58259 0.0
H2464 H 0.83507 0.1546 0.59755 0.0
H2465 H 0.80552 0.12658 0.66287 0.0
H2466 H 0.738 0.14133 0.69158 0.0
H2467 H 0.75742 0.13157 0.67667 0.0
H2468 H 0.78702 0.15953 0.61142 0.0
C2469 C 0.83255 0.14175 0.60235 0.0
C2470 C 0.80145 0.13362 0.65136 0.0
C2471 C 0.84376 0.13624 0.59382 0.0
C2472 C 0.74884 0.15002 0.6804 0.0
C2473 C 0.76001 0.14445 0.6719 0.0
C2474 C 0.79109 0.15249 0.62292 0.0
C2475 C 0.81864 0.13105 0.61756 0.0
C2476 C 0.80714 0.13717 0.62755 0.0
C2477 C 0.77396 0.15513 0.65674 0.0
C2478 C 0.78541 0.14894 0.64674 0.0
H2479 H 0.82491 0.09636 0.62029 0.0
H2480 H 0.80527 0.10583 0.63483 0.0
H2481 H 0.80572 0.14945 0.59497 0.0
H2482 H 0.76793 0.18996 0.65406 0.0
H2483 H 0.78748 0.18037 0.63956 0.0
C2484 C 0.02676 0.51273 0.49271 0.0
C2485 C 0.02995 0.50168 0.50701 0.0
C2486 C 0.01006 0.50734 0.48423 0.0
C2487 C -0.03647 0.47489 0.49391 0.0
H2488 H 0.95863 0.486 0.42865 0.0
C2489 C 0.8968 0.44374 0.44793 0.0
C2490 C 0.89308 0.45449 0.43381 0.0
C2491 C 0.9136 0.44966 0.45636 0.0
C2492 C 0.95976 0.48295 0.44698 0.0
H2493 H 0.01796 0.47636 0.52394 0.0
H2494 H -0.01116 0.46688 0.50904 0.0
H2495 H -0.01251 0.49608 0.44493 0.0
H2496 H 0.90424 0.47981 0.41704 0.0
H2497 H 0.93365 0.49021 0.43183 0.0
H2498 H 0.93582 0.4617 0.49594 0.0
C2499 C -0.00077 0.47982 0.50456 0.0
C2500 C -0.02367 0.48874 0.45635 0.0
C2501 C 0.01595 0.48523 0.51306 0.0
C2502 C 0.90668 0.47118 0.42781 0.0
C2503 C 0.92354 0.47712 0.43626 0.0
C2504 C 0.94698 0.46908 0.48453 0.0
C2505 C -0.0039 0.49074 0.48981 0.0
C2506 C -0.02156 0.48476 0.47993 0.0
C2507 C 0.92716 0.4665 0.45092 0.0
C2508 C 0.94486 0.47297 0.46091 0.0
H2509 H 0.03722 0.52552 0.48775 0.0
H2510 H 0.00811 0.51623 0.47329 0.0
H2511 H -0.03536 0.47181 0.51224 0.0
H2512 H 0.88667 0.43077 0.45283 0.0
H2513 H 0.91595 0.44099 0.46719 0.0
C2514 C 0.42736 0.5082 0.49393 0.0
C2515 C 0.43792 0.52254 0.50854 0.0
C2516 C 0.43314 0.49714 0.48584 0.0
C2517 C 0.47325 0.49579 0.47456 0.0
H2518 H 0.44166 0.44604 0.47003 0.0
C2519 C 0.49639 0.44755 0.45037 0.0
C2520 C 0.48569 0.43324 0.43578 0.0
C2521 C 0.49067 0.45858 0.45885 0.0
C2522 C 0.4506 0.45993 0.47087 0.0
H2523 H 0.46276 0.5363 0.52646 0.0
H2524 H 0.47285 0.51684 0.51248 0.0
H2525 H 0.43151 0.46462 0.48677 0.0
H2526 H 0.46068 0.41954 0.41829 0.0
H2527 H 0.45073 0.43895 0.43288 0.0
H2528 H 0.49232 0.4911 0.45861 0.0
C2529 C 0.46013 0.51429 0.50707 0.0
C2530 C 0.44479 0.47059 0.48055 0.0
C2531 C 0.45431 0.52537 0.51524 0.0
C2532 C 0.46923 0.43043 0.4295 0.0
C2533 C 0.46349 0.44148 0.43803 0.0
C2534 C 0.47906 0.48512 0.46487 0.0
C2535 C 0.44967 0.50011 0.49209 0.0
C2536 C 0.45602 0.48868 0.48248 0.0
C2537 C 0.47409 0.45562 0.45298 0.0
C2538 C 0.46781 0.46704 0.46288 0.0
H2539 H 0.41467 0.50565 0.48835 0.0
H2540 H 0.42481 0.4865 0.47411 0.0
H2541 H 0.48218 0.50968 0.47539 0.0
H2542 H 0.50913 0.45009 0.45563 0.0
H2543 H 0.49911 0.46919 0.47053 0.0
C2544 C 0.49135 0.04216 0.44621 0.0
C2545 C 0.5053 0.04527 0.43127 0.0
C2546 C 0.47986 0.02539 0.45461 0.0
C2547 C 0.46462 -0.02133 0.44403 0.0
H2548 H 0.45059 0.97364 0.51032 0.0
C2549 C 0.43009 0.91176 0.49028 0.0
C2550 C 0.41623 0.90802 0.50575 0.0
C2551 C 0.44067 0.92857 0.48142 0.0
C2552 C 0.4542 0.97481 0.49171 0.0
H2553 H 0.51785 0.03309 0.41303 0.0
H2554 H 0.49786 0.00384 0.42775 0.0
H2555 H 0.46919 0.0026 0.49378 0.0
H2556 H 0.4028 0.91916 0.52433 0.0
H2557 H 0.42126 0.94858 0.50875 0.0
H2558 H 0.44971 0.95089 0.44198 0.0
C2559 C 0.4957 0.01434 0.43282 0.0
C2560 C 0.46487 -0.00857 0.48219 0.0
C2561 C 0.50721 0.03113 0.42442 0.0
C2562 C 0.4134 0.92161 0.51252 0.0
C2563 C 0.42402 0.93848 0.50362 0.0
C2564 C 0.45396 0.96206 0.45354 0.0
C2565 C 0.48201 0.01129 0.44829 0.0
C2566 C 0.47029 -0.00641 0.45824 0.0
C2567 C 0.43768 0.94213 0.48774 0.0
C2568 C 0.44869 0.95989 0.47755 0.0
H2569 H 0.48946 0.05274 0.4518 0.0
H2570 H 0.46931 0.02349 0.46613 0.0
H2571 H 0.46828 -0.02017 0.42544 0.0
H2572 H 0.43271 0.90164 0.48477 0.0
H2573 H 0.45125 0.93094 0.46962 0.0
C2574 C 0.46822 0.03157 0.92805 0.0
C2575 C 0.48449 0.0455 0.93481 0.0
C2576 C 0.4624 0.01477 0.93683 0.0
C2577 C 0.46961 -0.00835 -0.01347 0.0
H2578 H 0.44481 0.95116 0.94603 0.0
C2579 C 0.45392 0.92258 0.01539 0.0
C2580 C 0.43782 0.90845 0.00848 0.0
C2581 C 0.45933 0.93938 0.00699 0.0
C2582 C 0.45153 0.96231 0.95769 0.0
H2583 H 0.50756 0.05259 0.9557 0.0
H2584 H 0.49755 0.0234 -0.02934 0.0
H2585 H 0.45477 -0.01994 0.92973 0.0
H2586 H 0.41456 0.90104 -0.01213 0.0
H2587 H 0.42386 0.93026 -0.02642 0.0
H2588 H 0.4664 0.97389 0.01448 0.0
C2589 C 0.48912 0.02544 0.95894 0.0
C2590 C 0.45725 -0.0211 0.94832 0.0
C2591 C 0.49492 0.04219 0.95019 0.0
C2592 C 0.42708 0.91159 -0.00652 0.0
C2593 C 0.43248 0.92836 -0.01489 0.0
C2594 C 0.46389 0.97505 -0.00409 0.0
C2595 C 0.47272 0.01153 0.95259 0.0
C2596 C 0.46641 -0.0062 0.96259 0.0
C2597 C 0.44876 0.94245 -0.00851 0.0
C2598 C 0.45478 0.96016 -0.01839 0.0
H2599 H 0.45985 0.03369 0.9163 0.0
H2600 H 0.44964 0.00441 0.9317 0.0
H2601 H 0.47636 0.0028 -0.00182 0.0
H2602 H 0.46253 0.9206 0.02684 0.0
H2603 H 0.47201 0.94989 0.01213 0.0
C2604 C 0.90661 0.42927 0.92418 0.0
C2605 C 0.89295 0.43191 0.93104 0.0
C2606 C 0.92349 0.44027 0.93259 0.0
C2607 C 0.95178 0.48344 0.96073 0.0
H2608 H -0.02162 0.46242 -0.01819 0.0
C2609 C 0.01567 0.52242 0.01367 0.0
C2610 C 0.0295 0.51993 0.00724 0.0
C2611 C -0.00103 0.51147 0.00469 0.0
C2612 C -0.02879 0.46854 -0.0242 0.0
H2613 H 0.88645 0.44846 0.95168 0.0
H2614 H 0.91572 0.4675 0.96634 0.0
H2615 H 0.94978 0.44423 0.96428 0.0
H2616 H 0.0365 0.50371 -0.0133 0.0
H2617 H 0.00748 0.48472 -0.02898 0.0
H2618 H -0.02681 0.50773 -0.0277 0.0
C2619 C 0.9135 0.45706 0.95432 0.0
C2620 C 0.95481 0.4581 0.96567 0.0
C2621 C 0.89665 0.44607 0.94596 0.0
C2622 C 0.02614 0.50598 -0.00791 0.0
C2623 C 0.00946 0.49503 -0.01684 0.0
C2624 C -0.03183 0.49386 -0.02913 0.0
C2625 C 0.92711 0.45419 0.948 0.0
C2626 C 0.94485 0.4654 0.95805 0.0
C2627 C -0.00431 0.49774 -0.01091 0.0
C2628 C -0.0219 0.48656 -0.02142 0.0
H2629 H 0.90421 0.41848 0.91272 0.0
H2630 H 0.93371 0.43782 0.92709 0.0
H2631 H 0.9446 0.48956 0.95476 0.0
H2632 H 0.0178 0.53303 0.02531 0.0
H2633 H -0.01138 0.51378 0.00993 0.0
C2634 C 0.50811 0.46967 0.92631 0.0
C2635 C 0.50591 0.4535 0.93321 0.0
C2636 C 0.49687 0.47516 0.93478 0.0
C2637 C 0.45372 0.4593 0.96297 0.0
H2638 H 0.47383 0.50729 -0.01675 0.0
C2639 C 0.4137 0.48401 0.01381 0.0
C2640 C 0.41616 0.50029 0.00691 0.0
C2641 C 0.42476 0.47828 0.00535 0.0
C2642 C 0.46796 0.49389 -0.02254 0.0
H2643 H 0.4899 0.43026 0.95402 0.0
H2644 H 0.47041 0.43984 0.96881 0.0
H2645 H 0.49243 0.49725 0.96638 0.0
H2646 H 0.43239 0.52341 -0.014 0.0
H2647 H 0.45152 0.51342 -0.02878 0.0
H2648 H 0.42924 0.45595 -0.02595 0.0
C2649 C 0.48071 0.44825 0.9567 0.0
C2650 C 0.47864 0.48813 0.96772 0.0
C2651 C 0.49195 0.44278 0.94828 0.0
C2652 C 0.43013 0.51082 -0.00825 0.0
C2653 C 0.44118 0.50512 -0.01666 0.0
C2654 C 0.44304 0.46506 -0.02729 0.0
C2655 C 0.48314 0.4646 0.95031 0.0
C2656 C 0.47167 0.47077 0.96031 0.0
C2657 C 0.43856 0.48871 -0.01016 0.0
C2658 C 0.45001 0.48244 -0.01995 0.0
H2659 H 0.51871 0.47824 0.91471 0.0
H2660 H 0.49897 0.48772 0.92919 0.0
H2661 H 0.44786 0.4459 0.95718 0.0
H2662 H 0.40306 0.47558 0.02547 0.0
H2663 H 0.42249 0.46567 0.01098 0.0
loop_
_geom_bond_atom_site_label_1
_geom_bond_atom_site_label_2
_geom_bond_distance
_geom_bond_site_symmetry_2
_ccdc_geom_bond_type
C0 O1 1.306 . S
C0 O3 1.160 . S
O1 C0 1.306 . S
O1 Cd2 2.228 . S
Cd2 O1 2.228 . S
Cd2 O6 2.273 . S
Cd2 O10 2.277 . S
O3 C0 1.160 . S
O3 Cd4 2.203 . S
Cd4 O3 2.203 . S
Cd4 O6 2.411 . S
Cd4 O7 2.333 . S
Cd4 O8 2.352 . S
Cd4 O12 2.277 . S
Cd4 O13 2.356 . S
C5 O10 1.209 . S
C5 O12 1.226 . S
O6 Cd2 2.273 . S
O6 Cd4 2.411 . S
O6 C9 1.320 . S
O7 Cd4 2.333 . S
O7 C9 1.214 . S
O8 Cd4 2.352 . S
O8 C11 1.258 . S
C9 O6 1.320 . S
C9 O7 1.214 . S
O10 Cd2 2.277 . S
O10 C5 1.209 . S
C11 O8 1.258 . S
C11 O13 1.282 . S
O12 Cd4 2.277 . S
O12 C5 1.226 . S
O13 Cd4 2.356 . S
O13 C11 1.282 . S
C14 O15 1.306 . S
C14 O17 1.160 . S
O15 C14 1.306 . S
O15 Cd16 2.228 . S
Cd16 O15 2.228 . S
Cd16 O20 2.273 . S
Cd16 O24 2.277 . S
O17 C14 1.160 . S
O17 Cd18 2.203 . S
Cd18 O17 2.203 . S
Cd18 O20 2.411 . S
Cd18 O21 2.333 . S
Cd18 O22 2.352 . S
Cd18 O26 2.277 . S
Cd18 O27 2.356 . S
C19 O24 1.209 . S
C19 O26 1.226 . S
O20 Cd16 2.273 . S
O20 Cd18 2.411 . S
O20 C23 1.320 . S
O21 Cd18 2.333 . S
O21 C23 1.214 . S
O22 Cd18 2.352 . S
O22 C25 1.258 . S
C23 O20 1.320 . S
C23 O21 1.214 . S
O24 Cd16 2.277 . S
O24 C19 1.209 . S
C25 O22 1.258 . S
C25 O27 1.282 . S
O26 Cd18 2.277 . S
O26 C19 1.226 . S
O27 Cd18 2.356 . S
O27 C25 1.282 . S
C28 O29 1.306 . S
C28 O31 1.160 . S
O29 C28 1.306 . S
O29 Cd30 2.228 . S
Cd30 O29 2.228 . S
Cd30 O34 2.273 . S
Cd30 O38 2.277 . S
O31 C28 1.160 . S
O31 Cd32 2.203 . S
Cd32 O31 2.203 . S
Cd32 O34 2.411 . S
Cd32 O35 2.333 . S
Cd32 O36 2.352 . S
Cd32 O40 2.277 . S
Cd32 O41 2.356 . S
C33 O38 1.209 . S
C33 O40 1.226 . S
O34 Cd30 2.273 . S
O34 Cd32 2.411 . S
O34 C37 1.320 . S
O35 Cd32 2.333 . S
O35 C37 1.214 . S
O36 Cd32 2.352 . S
O36 C39 1.258 . S
C37 O34 1.320 . S
C37 O35 1.214 . S
O38 Cd30 2.277 . S
O38 C33 1.209 . S
C39 O36 1.258 . S
C39 O41 1.282 . S
O40 Cd32 2.277 . S
O40 C33 1.226 . S
O41 Cd32 2.356 . S
O41 C39 1.282 . S
C42 O43 1.306 . S
C42 O45 1.160 . S
O43 C42 1.306 . S
O43 Cd44 2.228 . S
Cd44 O43 2.228 . S
Cd44 O48 2.273 . S
Cd44 O52 2.277 . S
O45 C42 1.160 . S
O45 Cd46 2.203 . S
Cd46 O45 2.203 . S
Cd46 O48 2.411 . S
Cd46 O49 2.333 . S
Cd46 O50 2.352 . S
Cd46 O54 2.277 . S
Cd46 O55 2.356 . S
C47 O52 1.209 . S
C47 O54 1.226 . S
O48 Cd44 2.273 . S
O48 Cd46 2.411 . S
O48 C51 1.320 . S
O49 Cd46 2.333 . S
O49 C51 1.214 . S
O50 Cd46 2.352 . S
O50 C53 1.258 . S
C51 O48 1.320 . S
C51 O49 1.214 . S
O52 Cd44 2.277 . S
O52 C47 1.209 . S
C53 O50 1.258 . S
C53 O55 1.282 . S
O54 Cd46 2.277 . S
O54 C47 1.226 . S
O55 Cd46 2.356 . S
O55 C53 1.282 . S
C56 O57 1.306 . S
C56 O59 1.160 . S
O57 C56 1.306 . S
O57 Cd58 2.228 . S
Cd58 O57 2.228 . S
Cd58 O62 2.273 . S
Cd58 O66 2.277 . S
O59 C56 1.160 . S
O59 Cd60 2.203 . S
Cd60 O59 2.203 . S
Cd60 O62 2.411 . S
Cd60 O63 2.333 . S
Cd60 O64 2.352 . S
Cd60 O68 2.277 . S
Cd60 O69 2.356 . S
C61 O66 1.209 . S
C61 O68 1.226 . S
O62 Cd58 2.273 . S
O62 Cd60 2.411 . S
O62 C65 1.320 . S
O63 Cd60 2.333 . S
O63 C65 1.214 . S
O64 Cd60 2.352 . S
O64 C67 1.258 . S
C65 O62 1.320 . S
C65 O63 1.214 . S
O66 Cd58 2.277 . S
O66 C61 1.209 . S
C67 O64 1.258 . S
C67 O69 1.282 . S
O68 Cd60 2.277 . S
O68 C61 1.226 . S
O69 Cd60 2.356 . S
O69 C67 1.282 . S
C70 O71 1.306 . S
C70 O73 1.160 . S
O71 C70 1.306 . S
O71 Cd72 2.228 . S
Cd72 O71 2.228 . S
Cd72 O76 2.273 . S
Cd72 O80 2.277 . S
O73 C70 1.160 . S
O73 Cd74 2.203 . S
Cd74 O73 2.203 . S
Cd74 O76 2.411 . S
Cd74 O77 2.333 . S
Cd74 O78 2.352 . S
Cd74 O82 2.277 . S
Cd74 O83 2.356 . S
C75 O80 1.209 . S
C75 O82 1.226 . S
O76 Cd72 2.273 . S
O76 Cd74 2.411 . S
O76 C79 1.320 . S
O77 Cd74 2.333 . S
O77 C79 1.214 . S
O78 Cd74 2.352 . S
O78 C81 1.258 . S
C79 O76 1.320 . S
C79 O77 1.214 . S
O80 Cd72 2.277 . S
O80 C75 1.209 . S
C81 O78 1.258 . S
C81 O83 1.282 . S
O82 Cd74 2.277 . S
O82 C75 1.226 . S
O83 Cd74 2.356 . S
O83 C81 1.282 . S
C84 O85 1.306 . S
C84 O87 1.160 . S
O85 C84 1.306 . S
O85 Cd86 2.228 . S
Cd86 O85 2.228 . S
Cd86 O90 2.273 . S
Cd86 O94 2.277 . S
O87 C84 1.160 . S
O87 Cd88 2.203 . S
Cd88 O87 2.203 . S
Cd88 O90 2.411 . S
Cd88 O91 2.333 . S
Cd88 O92 2.352 . S
Cd88 O96 2.277 . S
Cd88 O97 2.356 . S
C89 O94 1.209 . S
C89 O96 1.226 . S
O90 Cd86 2.273 . S
O90 Cd88 2.411 . S
O90 C93 1.320 . S
O91 Cd88 2.333 . S
O91 C93 1.214 . S
O92 Cd88 2.352 . S
O92 C95 1.258 . S
C93 O90 1.320 . S
C93 O91 1.214 . S
O94 Cd86 2.277 . S
O94 C89 1.209 . S
C95 O92 1.258 . S
C95 O97 1.282 . S
O96 Cd88 2.277 . S
O96 C89 1.226 . S
O97 Cd88 2.356 . S
O97 C95 1.282 . S
C98 O99 1.306 . S
C98 O101 1.160 . S
O99 C98 1.306 . S
O99 Cd100 2.228 . S
Cd100 O99 2.228 . S
Cd100 O104 2.273 . S
Cd100 O108 2.277 . S
O101 C98 1.160 . S
O101 Cd102 2.203 . S
Cd102 O101 2.203 . S
Cd102 O104 2.411 . S
Cd102 O105 2.333 . S
Cd102 O106 2.352 . S
Cd102 O110 2.277 . S
Cd102 O111 2.356 . S
C103 O108 1.209 . S
C103 O110 1.226 . S
O104 Cd100 2.273 . S
O104 Cd102 2.411 . S
O104 C107 1.320 . S
O105 Cd102 2.333 . S
O105 C107 1.214 . S
O106 Cd102 2.352 . S
O106 C109 1.258 . S
C107 O104 1.320 . S
C107 O105 1.214 . S
O108 Cd100 2.277 . S
O108 C103 1.209 . S
C109 O106 1.258 . S
C109 O111 1.282 . S
O110 Cd102 2.277 . S
O110 C103 1.226 . S
O111 Cd102 2.356 . S
O111 C109 1.282 . S
C112 O113 1.306 . S
C112 O115 1.160 . S
O113 C112 1.306 . S
O113 Cd114 2.228 . S
Cd114 O113 2.228 . S
Cd114 O118 2.273 . S
Cd114 O122 2.277 . S
O115 C112 1.160 . S
O115 Cd116 2.203 . S
Cd116 O115 2.203 . S
Cd116 O118 2.411 . S
Cd116 O119 2.333 . S
Cd116 O120 2.352 . S
Cd116 O124 2.277 . S
Cd116 O125 2.356 . S
C117 O122 1.209 . S
C117 O124 1.226 . S
O118 Cd114 2.273 . S
O118 Cd116 2.411 . S
O118 C121 1.320 . S
O119 Cd116 2.333 . S
O119 C121 1.214 . S
O120 Cd116 2.352 . S
O120 C123 1.258 . S
C121 O118 1.320 . S
C121 O119 1.214 . S
O122 Cd114 2.277 . S
O122 C117 1.209 . S
C123 O120 1.258 . S
C123 O125 1.282 . S
O124 Cd116 2.277 . S
O124 C117 1.226 . S
O125 Cd116 2.356 . S
O125 C123 1.282 . S
C126 O127 1.306 . S
C126 O129 1.160 . S
O127 C126 1.306 . S
O127 Cd128 2.228 . S
Cd128 O127 2.228 . S
Cd128 O132 2.273 . S
Cd128 O136 2.277 . S
O129 C126 1.160 . S
O129 Cd130 2.203 . S
Cd130 O129 2.203 . S
Cd130 O132 2.411 . S
Cd130 O133 2.333 . S
Cd130 O134 2.352 . S
Cd130 O138 2.277 . S
Cd130 O139 2.356 . S
C131 O136 1.209 . S
C131 O138 1.226 . S
O132 Cd128 2.273 . S
O132 Cd130 2.411 . S
O132 C135 1.320 . S
O133 Cd130 2.333 . S
O133 C135 1.214 . S
O134 Cd130 2.352 . S
O134 C137 1.258 . S
C135 O132 1.320 . S
C135 O133 1.214 . S
O136 Cd128 2.277 . S
O136 C131 1.209 . S
C137 O134 1.258 . S
C137 O139 1.282 . S
O138 Cd130 2.277 . S
O138 C131 1.226 . S
O139 Cd130 2.356 . S
O139 C137 1.282 . S
C140 O141 1.306 . S
C140 O143 1.160 . S
O141 C140 1.306 . S
O141 Cd142 2.228 . S
Cd142 O141 2.228 . S
Cd142 O146 2.273 . S
Cd142 O150 2.277 . S
O143 C140 1.160 . S
O143 Cd144 2.203 . S
Cd144 O143 2.203 . S
Cd144 O146 2.411 . S
Cd144 O147 2.333 . S
Cd144 O148 2.352 . S
Cd144 O152 2.277 . S
Cd144 O153 2.356 . S
C145 O150 1.209 . S
C145 O152 1.226 . S
O146 Cd142 2.273 . S
O146 Cd144 2.411 . S
O146 C149 1.320 . S
O147 Cd144 2.333 . S
O147 C149 1.214 . S
O148 Cd144 2.352 . S
O148 C151 1.258 . S
C149 O146 1.320 . S
C149 O147 1.214 . S
O150 Cd142 2.277 . S
O150 C145 1.209 . S
C151 O148 1.258 . S
C151 O153 1.282 . S
O152 Cd144 2.277 . S
O152 C145 1.226 . S
O153 Cd144 2.356 . S
O153 C151 1.282 . S
C154 O155 1.306 . S
C154 O157 1.160 . S
O155 C154 1.306 . S
O155 Cd156 2.228 . S
Cd156 O155 2.228 . S
Cd156 O160 2.273 . S
Cd156 O164 2.277 . S
O157 C154 1.160 . S
O157 Cd158 2.203 . S
Cd158 O157 2.203 . S
Cd158 O160 2.411 . S
Cd158 O161 2.333 . S
Cd158 O162 2.352 . S
Cd158 O166 2.277 . S
Cd158 O167 2.356 . S
C159 O164 1.209 . S
C159 O166 1.226 . S
O160 Cd156 2.273 . S
O160 Cd158 2.411 . S
O160 C163 1.320 . S
O161 Cd158 2.333 . S
O161 C163 1.214 . S
O162 Cd158 2.352 . S
O162 C165 1.258 . S
C163 O160 1.320 . S
C163 O161 1.214 . S
O164 Cd156 2.277 . S
O164 C159 1.209 . S
C165 O162 1.258 . S
C165 O167 1.282 . S
O166 Cd158 2.277 . S
O166 C159 1.226 . S
O167 Cd158 2.356 . S
O167 C165 1.282 . S
C168 O169 1.306 . S
C168 O171 1.160 . S
O169 C168 1.306 . S
O169 Cd170 2.228 . S
Cd170 O169 2.228 . S
Cd170 O174 2.273 . S
Cd170 O178 2.277 . S
O171 C168 1.160 . S
O171 Cd172 2.203 . S
Cd172 O171 2.203 . S
Cd172 O174 2.411 . S
Cd172 O175 2.333 . S
Cd172 O176 2.352 . S
Cd172 O180 2.277 . S
Cd172 O181 2.356 . S
C173 O178 1.209 . S
C173 O180 1.226 . S
O174 Cd170 2.273 . S
O174 Cd172 2.411 . S
O174 C177 1.320 . S
O175 Cd172 2.333 . S
O175 C177 1.214 . S
O176 Cd172 2.352 . S
O176 C179 1.258 . S
C177 O174 1.320 . S
C177 O175 1.214 . S
O178 Cd170 2.277 . S
O178 C173 1.209 . S
C179 O176 1.258 . S
C179 O181 1.282 . S
O180 Cd172 2.277 . S
O180 C173 1.226 . S
O181 Cd172 2.356 . S
O181 C179 1.282 . S
C182 O183 1.306 . S
C182 O185 1.160 . S
O183 C182 1.306 . S
O183 Cd184 2.228 . S
Cd184 O183 2.228 . S
Cd184 O188 2.273 . S
Cd184 O192 2.277 . S
O185 C182 1.160 . S
O185 Cd186 2.203 . S
Cd186 O185 2.203 . S
Cd186 O188 2.411 . S
Cd186 O189 2.333 . S
Cd186 O190 2.352 . S
Cd186 O194 2.277 . S
Cd186 O195 2.356 . S
C187 O192 1.209 . S
C187 O194 1.226 . S
O188 Cd184 2.273 . S
O188 Cd186 2.411 . S
O188 C191 1.320 . S
O189 Cd186 2.333 . S
O189 C191 1.214 . S
O190 Cd186 2.352 . S
O190 C193 1.258 . S
C191 O188 1.320 . S
C191 O189 1.214 . S
O192 Cd184 2.277 . S
O192 C187 1.209 . S
C193 O190 1.258 . S
C193 O195 1.282 . S
O194 Cd186 2.277 . S
O194 C187 1.226 . S
O195 Cd186 2.356 . S
O195 C193 1.282 . S
C196 O197 1.306 . S
C196 O199 1.160 . S
O197 C196 1.306 . S
O197 Cd198 2.228 . S
Cd198 O197 2.228 . S
Cd198 O202 2.273 . S
Cd198 O206 2.277 . S
O199 C196 1.160 . S
O199 Cd200 2.203 . S
Cd200 O199 2.203 . S
Cd200 O202 2.411 . S
Cd200 O203 2.333 . S
Cd200 O204 2.352 . S
Cd200 O208 2.277 . S
Cd200 O209 2.356 . S
C201 O206 1.209 . S
C201 O208 1.226 . S
O202 Cd198 2.273 . S
O202 Cd200 2.411 . S
O202 C205 1.320 . S
O203 Cd200 2.333 . S
O203 C205 1.214 . S
O204 Cd200 2.352 . S
O204 C207 1.258 . S
C205 O202 1.320 . S
C205 O203 1.214 . S
O206 Cd198 2.277 . S
O206 C201 1.209 . S
C207 O204 1.258 . S
C207 O209 1.282 . S
O208 Cd200 2.277 . S
O208 C201 1.226 . S
O209 Cd200 2.356 . S
O209 C207 1.282 . S
C210 O211 1.306 . S
C210 O213 1.160 . S
O211 C210 1.306 . S
O211 Cd212 2.228 . S
Cd212 O211 2.228 . S
Cd212 O216 2.273 . S
Cd212 O220 2.277 . S
O213 C210 1.160 . S
O213 Cd214 2.203 . S
Cd214 O213 2.203 . S
Cd214 O216 2.411 . S
Cd214 O217 2.333 . S
Cd214 O218 2.352 . S
Cd214 O222 2.277 . S
Cd214 O223 2.356 . S
C215 O220 1.209 . S
C215 O222 1.226 . S
O216 Cd212 2.273 . S
O216 Cd214 2.411 . S
O216 C219 1.320 . S
O217 Cd214 2.333 . S
O217 C219 1.214 . S
O218 Cd214 2.352 . S
O218 C221 1.258 . S
C219 O216 1.320 . S
C219 O217 1.214 . S
O220 Cd212 2.277 . S
O220 C215 1.209 . S
C221 O218 1.258 . S
C221 O223 1.282 . S
O222 Cd214 2.277 . S
O222 C215 1.226 . S
O223 Cd214 2.356 . S
O223 C221 1.282 . S
C224 O225 1.306 . S
C224 O227 1.160 . S
O225 C224 1.306 . S
O225 Cd226 2.228 . S
Cd226 O225 2.228 . S
Cd226 O230 2.273 . S
Cd226 O234 2.277 . S
O227 C224 1.160 . S
O227 Cd228 2.203 . S
Cd228 O227 2.203 . S
Cd228 O230 2.411 . S
Cd228 O231 2.333 . S
Cd228 O232 2.352 . S
Cd228 O236 2.277 . S
Cd228 O237 2.356 . S
C229 O234 1.209 . S
C229 O236 1.226 . S
O230 Cd226 2.273 . S
O230 Cd228 2.411 . S
O230 C233 1.320 . S
O231 Cd228 2.333 . S
O231 C233 1.214 . S
O232 Cd228 2.352 . S
O232 C235 1.258 . S
C233 O230 1.320 . S
C233 O231 1.214 . S
O234 Cd226 2.277 . S
O234 C229 1.209 . S
C235 O232 1.258 . S
C235 O237 1.282 . S
O236 Cd228 2.277 . S
O236 C229 1.226 . S
O237 Cd228 2.356 . S
O237 C235 1.282 . S
C238 O239 1.306 . S
C238 O241 1.160 . S
O239 C238 1.306 . S
O239 Cd240 2.228 . S
Cd240 O239 2.228 . S
Cd240 O244 2.273 . S
Cd240 O248 2.277 . S
O241 C238 1.160 . S
O241 Cd242 2.203 . S
Cd242 O241 2.203 . S
Cd242 O244 2.411 . S
Cd242 O245 2.333 . S
Cd242 O246 2.352 . S
Cd242 O250 2.277 . S
Cd242 O251 2.356 . S
C243 O248 1.209 . S
C243 O250 1.226 . S
O244 Cd240 2.273 . S
O244 Cd242 2.411 . S
O244 C247 1.320 . S
O245 Cd242 2.333 . S
O245 C247 1.214 . S
O246 Cd242 2.352 . S
O246 C249 1.258 . S
C247 O244 1.320 . S
C247 O245 1.214 . S
O248 Cd240 2.277 . S
O248 C243 1.209 . S
C249 O246 1.258 . S
C249 O251 1.282 . S
O250 Cd242 2.277 . S
O250 C243 1.226 . S
O251 Cd242 2.356 . S
O251 C249 1.282 . S
C252 O253 1.306 . S
C252 O255 1.160 . S
O253 C252 1.306 . S
O253 Cd254 2.228 . S
Cd254 O253 2.228 . S
Cd254 O258 2.273 . S
Cd254 O262 2.277 . S
O255 C252 1.160 . S
O255 Cd256 2.203 . S
Cd256 O255 2.203 . S
Cd256 O258 2.411 . S
Cd256 O259 2.333 . S
Cd256 O260 2.352 . S
Cd256 O264 2.277 . S
Cd256 O265 2.356 . S
C257 O262 1.209 . S
C257 O264 1.226 . S
O258 Cd254 2.273 . S
O258 Cd256 2.411 . S
O258 C261 1.320 . S
O259 Cd256 2.333 . S
O259 C261 1.214 . S
O260 Cd256 2.352 . S
O260 C263 1.258 . S
C261 O258 1.320 . S
C261 O259 1.214 . S
O262 Cd254 2.277 . S
O262 C257 1.209 . S
C263 O260 1.258 . S
C263 O265 1.282 . S
O264 Cd256 2.277 . S
O264 C257 1.226 . S
O265 Cd256 2.356 . S
O265 C263 1.282 . S
C266 O267 1.306 . S
C266 O269 1.160 . S
O267 C266 1.306 . S
O267 Cd268 2.228 . S
Cd268 O267 2.228 . S
Cd268 O272 2.273 . S
Cd268 O276 2.277 . S
O269 C266 1.160 . S
O269 Cd270 2.203 . S
Cd270 O269 2.203 . S
Cd270 O272 2.411 . S
Cd270 O273 2.333 . S
Cd270 O274 2.352 . S
Cd270 O278 2.277 . S
Cd270 O279 2.356 . S
C271 O276 1.209 . S
C271 O278 1.226 . S
O272 Cd268 2.273 . S
O272 Cd270 2.411 . S
O272 C275 1.320 . S
O273 Cd270 2.333 . S
O273 C275 1.214 . S
O274 Cd270 2.352 . S
O274 C277 1.258 . S
C275 O272 1.320 . S
C275 O273 1.214 . S
O276 Cd268 2.277 . S
O276 C271 1.209 . S
C277 O274 1.258 . S
C277 O279 1.282 . S
O278 Cd270 2.277 . S
O278 C271 1.226 . S
O279 Cd270 2.356 . S
O279 C277 1.282 . S
C280 O281 1.306 . S
C280 O283 1.160 . S
O281 C280 1.306 . S
O281 Cd282 2.228 . S
Cd282 O281 2.228 . S
Cd282 O286 2.273 . S
Cd282 O290 2.277 . S
O283 C280 1.160 . S
O283 Cd284 2.203 . S
Cd284 O283 2.203 . S
Cd284 O286 2.411 . S
Cd284 O287 2.333 . S
Cd284 O288 2.352 . S
Cd284 O292 2.277 . S
Cd284 O293 2.356 . S
C285 O290 1.209 . S
C285 O292 1.226 . S
O286 Cd282 2.273 . S
O286 Cd284 2.411 . S
O286 C289 1.320 . S
O287 Cd284 2.333 . S
O287 C289 1.214 . S
O288 Cd284 2.352 . S
O288 C291 1.258 . S
C289 O286 1.320 . S
C289 O287 1.214 . S
O290 Cd282 2.277 . S
O290 C285 1.209 . S
C291 O288 1.258 . S
C291 O293 1.282 . S
O292 Cd284 2.277 . S
O292 C285 1.226 . S
O293 Cd284 2.356 . S
O293 C291 1.282 . S
C294 O295 1.306 . S
C294 O297 1.160 . S
O295 C294 1.306 . S
O295 Cd296 2.228 . S
Cd296 O295 2.228 . S
Cd296 O300 2.273 . S
Cd296 O304 2.277 . S
O297 C294 1.160 . S
O297 Cd298 2.203 . S
Cd298 O297 2.203 . S
Cd298 O300 2.411 . S
Cd298 O301 2.333 . S
Cd298 O302 2.352 . S
Cd298 O306 2.277 . S
Cd298 O307 2.356 . S
C299 O304 1.209 . S
C299 O306 1.226 . S
O300 Cd296 2.273 . S
O300 Cd298 2.411 . S
O300 C303 1.320 . S
O301 Cd298 2.333 . S
O301 C303 1.214 . S
O302 Cd298 2.352 . S
O302 C305 1.258 . S
C303 O300 1.320 . S
C303 O301 1.214 . S
O304 Cd296 2.277 . S
O304 C299 1.209 . S
C305 O302 1.258 . S
C305 O307 1.282 . S
O306 Cd298 2.277 . S
O306 C299 1.226 . S
O307 Cd298 2.356 . S
O307 C305 1.282 . S
C308 O309 1.306 . S
C308 O311 1.160 . S
O309 C308 1.306 . S
O309 Cd310 2.228 . S
Cd310 O309 2.228 . S
Cd310 O314 2.273 . S
Cd310 O318 2.277 . S
O311 C308 1.160 . S
O311 Cd312 2.203 . S
Cd312 O311 2.203 . S
Cd312 O314 2.411 . S
Cd312 O315 2.333 . S
Cd312 O316 2.352 . S
Cd312 O320 2.277 . S
Cd312 O321 2.356 . S
C313 O318 1.209 . S
C313 O320 1.226 . S
O314 Cd310 2.273 . S
O314 Cd312 2.411 . S
O314 C317 1.320 . S
O315 Cd312 2.333 . S
O315 C317 1.214 . S
O316 Cd312 2.352 . S
O316 C319 1.258 . S
C317 O314 1.320 . S
C317 O315 1.214 . S
O318 Cd310 2.277 . S
O318 C313 1.209 . S
C319 O316 1.258 . S
C319 O321 1.282 . S
O320 Cd312 2.277 . S
O320 C313 1.226 . S
O321 Cd312 2.356 . S
O321 C319 1.282 . S
C322 O323 1.306 . S
C322 O325 1.160 . S
O323 C322 1.306 . S
O323 Cd324 2.228 . S
Cd324 O323 2.228 . S
Cd324 O328 2.273 . S
Cd324 O332 2.277 . S
O325 C322 1.160 . S
O325 Cd326 2.203 . S
Cd326 O325 2.203 . S
Cd326 O328 2.411 . S
Cd326 O329 2.333 . S
Cd326 O330 2.352 . S
Cd326 O334 2.277 . S
Cd326 O335 2.356 . S
C327 O332 1.209 . S
C327 O334 1.226 . S
O328 Cd324 2.273 . S
O328 Cd326 2.411 . S
O328 C331 1.320 . S
O329 Cd326 2.333 . S
O329 C331 1.214 . S
O330 Cd326 2.352 . S
O330 C333 1.258 . S
C331 O328 1.320 . S
C331 O329 1.214 . S
O332 Cd324 2.277 . S
O332 C327 1.209 . S
C333 O330 1.258 . S
C333 O335 1.282 . S
O334 Cd326 2.277 . S
O334 C327 1.226 . S
O335 Cd326 2.356 . S
O335 C333 1.282 . S
C336 O337 1.306 . S
C336 O339 1.160 . S
O337 C336 1.306 . S
O337 Cd338 2.228 . S
Cd338 O337 2.228 . S
Cd338 O342 2.273 . S
Cd338 O346 2.277 . S
O339 C336 1.160 . S
O339 Cd340 2.203 . S
Cd340 O339 2.203 . S
Cd340 O342 2.411 . S
Cd340 O343 2.333 . S
Cd340 O344 2.352 . S
Cd340 O348 2.277 . S
Cd340 O349 2.356 . S
C341 O346 1.209 . S
C341 O348 1.226 . S
O342 Cd338 2.273 . S
O342 Cd340 2.411 . S
O342 C345 1.320 . S
O343 Cd340 2.333 . S
O343 C345 1.214 . S
O344 Cd340 2.352 . S
O344 C347 1.258 . S
C345 O342 1.320 . S
C345 O343 1.214 . S
O346 Cd338 2.277 . S
O346 C341 1.209 . S
C347 O344 1.258 . S
C347 O349 1.282 . S
O348 Cd340 2.277 . S
O348 C341 1.226 . S
O349 Cd340 2.356 . S
O349 C347 1.282 . S
C350 O351 1.306 . S
C350 O353 1.160 . S
O351 C350 1.306 . S
O351 Cd352 2.228 . S
Cd352 O351 2.228 . S
Cd352 O356 2.273 . S
Cd352 O360 2.277 . S
O353 C350 1.160 . S
O353 Cd354 2.203 . S
Cd354 O353 2.203 . S
Cd354 O356 2.411 . S
Cd354 O357 2.333 . S
Cd354 O358 2.352 . S
Cd354 O362 2.277 . S
Cd354 O363 2.356 . S
C355 O360 1.209 . S
C355 O362 1.226 . S
O356 Cd352 2.273 . S
O356 Cd354 2.411 . S
O356 C359 1.320 . S
O357 Cd354 2.333 . S
O357 C359 1.214 . S
O358 Cd354 2.352 . S
O358 C361 1.258 . S
C359 O356 1.320 . S
C359 O357 1.214 . S
O360 Cd352 2.277 . S
O360 C355 1.209 . S
C361 O358 1.258 . S
C361 O363 1.282 . S
O362 Cd354 2.277 . S
O362 C355 1.226 . S
O363 Cd354 2.356 . S
O363 C361 1.282 . S
C364 O365 1.306 . S
C364 O367 1.160 . S
O365 C364 1.306 . S
O365 Cd366 2.228 . S
Cd366 O365 2.228 . S
Cd366 O370 2.273 . S
Cd366 O374 2.277 . S
O367 C364 1.160 . S
O367 Cd368 2.203 . S
Cd368 O367 2.203 . S
Cd368 O370 2.411 . S
Cd368 O371 2.333 . S
Cd368 O372 2.352 . S
Cd368 O376 2.277 . S
Cd368 O377 2.356 . S
C369 O374 1.209 . S
C369 O376 1.226 . S
O370 Cd366 2.273 . S
O370 Cd368 2.411 . S
O370 C373 1.320 . S
O371 Cd368 2.333 . S
O371 C373 1.214 . S
O372 Cd368 2.352 . S
O372 C375 1.258 . S
C373 O370 1.320 . S
C373 O371 1.214 . S
O374 Cd366 2.277 . S
O374 C369 1.209 . S
C375 O372 1.258 . S
C375 O377 1.282 . S
O376 Cd368 2.277 . S
O376 C369 1.226 . S
O377 Cd368 2.356 . S
O377 C375 1.282 . S
C378 O379 1.306 . S
C378 O381 1.160 . S
O379 C378 1.306 . S
O379 Cd380 2.228 . S
Cd380 O379 2.228 . S
Cd380 O384 2.273 . S
Cd380 O388 2.277 . S
O381 C378 1.160 . S
O381 Cd382 2.203 . S
Cd382 O381 2.203 . S
Cd382 O384 2.411 . S
Cd382 O385 2.333 . S
Cd382 O386 2.352 . S
Cd382 O390 2.277 . S
Cd382 O391 2.356 . S
C383 O388 1.209 . S
C383 O390 1.226 . S
O384 Cd380 2.273 . S
O384 Cd382 2.411 . S
O384 C387 1.320 . S
O385 Cd382 2.333 . S
O385 C387 1.214 . S
O386 Cd382 2.352 . S
O386 C389 1.258 . S
C387 O384 1.320 . S
C387 O385 1.214 . S
O388 Cd380 2.277 . S
O388 C383 1.209 . S
C389 O386 1.258 . S
C389 O391 1.282 . S
O390 Cd382 2.277 . S
O390 C383 1.226 . S
O391 Cd382 2.356 . S
O391 C389 1.282 . S
C392 O393 1.306 . S
C392 O395 1.160 . S
O393 C392 1.306 . S
O393 Cd394 2.228 . S
Cd394 O393 2.228 . S
Cd394 O398 2.273 . S
Cd394 O402 2.277 . S
O395 C392 1.160 . S
O395 Cd396 2.203 . S
Cd396 O395 2.203 . S
Cd396 O398 2.411 . S
Cd396 O399 2.333 . S
Cd396 O400 2.352 . S
Cd396 O404 2.277 . S
Cd396 O405 2.356 . S
C397 O402 1.209 . S
C397 O404 1.226 . S
O398 Cd394 2.273 . S
O398 Cd396 2.411 . S
O398 C401 1.320 . S
O399 Cd396 2.333 . S
O399 C401 1.214 . S
O400 Cd396 2.352 . S
O400 C403 1.258 . S
C401 O398 1.320 . S
C401 O399 1.214 . S
O402 Cd394 2.277 . S
O402 C397 1.209 . S
C403 O400 1.258 . S
C403 O405 1.282 . S
O404 Cd396 2.277 . S
O404 C397 1.226 . S
O405 Cd396 2.356 . S
O405 C403 1.282 . S
C406 O407 1.306 . S
C406 O409 1.160 . S
O407 C406 1.306 . S
O407 Cd408 2.228 . S
Cd408 O407 2.228 . S
Cd408 O412 2.273 . S
Cd408 O416 2.277 . S
O409 C406 1.160 . S
O409 Cd410 2.203 . S
Cd410 O409 2.203 . S
Cd410 O412 2.411 . S
Cd410 O413 2.333 . S
Cd410 O414 2.352 . S
Cd410 O418 2.277 . S
Cd410 O419 2.356 . S
C411 O416 1.209 . S
C411 O418 1.226 . S
O412 Cd408 2.273 . S
O412 Cd410 2.411 . S
O412 C415 1.320 . S
O413 Cd410 2.333 . S
O413 C415 1.214 . S
O414 Cd410 2.352 . S
O414 C417 1.258 . S
C415 O412 1.320 . S
C415 O413 1.214 . S
O416 Cd408 2.277 . S
O416 C411 1.209 . S
C417 O414 1.258 . S
C417 O419 1.282 . S
O418 Cd410 2.277 . S
O418 C411 1.226 . S
O419 Cd410 2.356 . S
O419 C417 1.282 . S
C420 O421 1.306 . S
C420 O423 1.160 . S
O421 C420 1.306 . S
O421 Cd422 2.228 . S
Cd422 O421 2.228 . S
Cd422 O426 2.273 . S
Cd422 O430 2.277 . S
O423 C420 1.160 . S
O423 Cd424 2.203 . S
Cd424 O423 2.203 . S
Cd424 O426 2.411 . S
Cd424 O427 2.333 . S
Cd424 O428 2.352 . S
Cd424 O432 2.277 . S
Cd424 O433 2.356 . S
C425 O430 1.209 . S
C425 O432 1.226 . S
O426 Cd422 2.273 . S
O426 Cd424 2.411 . S
O426 C429 1.320 . S
O427 Cd424 2.333 . S
O427 C429 1.214 . S
O428 Cd424 2.352 . S
O428 C431 1.258 . S
C429 O426 1.320 . S
C429 O427 1.214 . S
O430 Cd422 2.277 . S
O430 C425 1.209 . S
C431 O428 1.258 . S
C431 O433 1.282 . S
O432 Cd424 2.277 . S
O432 C425 1.226 . S
O433 Cd424 2.356 . S
O433 C431 1.282 . S
C434 O435 1.306 . S
C434 O437 1.160 . S
O435 C434 1.306 . S
O435 Cd436 2.228 . S
Cd436 O435 2.228 . S
Cd436 O440 2.273 . S
Cd436 O444 2.277 . S
O437 C434 1.160 . S
O437 Cd438 2.203 . S
Cd438 O437 2.203 . S
Cd438 O440 2.411 . S
Cd438 O441 2.333 . S
Cd438 O442 2.352 . S
Cd438 O446 2.277 . S
Cd438 O447 2.356 . S
C439 O444 1.209 . S
C439 O446 1.226 . S
O440 Cd436 2.273 . S
O440 Cd438 2.411 . S
O440 C443 1.320 . S
O441 Cd438 2.333 . S
O441 C443 1.214 . S
O442 Cd438 2.352 . S
O442 C445 1.258 . S
C443 O440 1.320 . S
C443 O441 1.214 . S
O444 Cd436 2.277 . S
O444 C439 1.209 . S
C445 O442 1.258 . S
C445 O447 1.282 . S
O446 Cd438 2.277 . S
O446 C439 1.226 . S
O447 Cd438 2.356 . S
O447 C445 1.282 . S
C448 O449 1.306 . S
C448 O451 1.160 . S
O449 C448 1.306 . S
O449 Cd450 2.228 . S
Cd450 O449 2.228 . S
Cd450 O454 2.273 . S
Cd450 O458 2.277 . S
O451 C448 1.160 . S
O451 Cd452 2.203 . S
Cd452 O451 2.203 . S
Cd452 O454 2.411 . S
Cd452 O455 2.333 . S
Cd452 O456 2.352 . S
Cd452 O460 2.277 . S
Cd452 O461 2.356 . S
C453 O458 1.209 . S
C453 O460 1.226 . S
O454 Cd450 2.273 . S
O454 Cd452 2.411 . S
O454 C457 1.320 . S
O455 Cd452 2.333 . S
O455 C457 1.214 . S
O456 Cd452 2.352 . S
O456 C459 1.258 . S
C457 O454 1.320 . S
C457 O455 1.214 . S
O458 Cd450 2.277 . S
O458 C453 1.209 . S
C459 O456 1.258 . S
C459 O461 1.282 . S
O460 Cd452 2.277 . S
O460 C453 1.226 . S
O461 Cd452 2.356 . S
O461 C459 1.282 . S
C462 O463 1.306 . S
C462 O465 1.160 . S
O463 C462 1.306 . S
O463 Cd464 2.228 . S
Cd464 O463 2.228 . S
Cd464 O468 2.273 . S
Cd464 O472 2.277 . S
O465 C462 1.160 . S
O465 Cd466 2.203 . S
Cd466 O465 2.203 . S
Cd466 O468 2.411 . S
Cd466 O469 2.333 . S
Cd466 O470 2.352 . S
Cd466 O474 2.277 . S
Cd466 O475 2.356 . S
C467 O472 1.209 . S
C467 O474 1.226 . S
O468 Cd464 2.273 . S
O468 Cd466 2.411 . S
O468 C471 1.320 . S
O469 Cd466 2.333 . S
O469 C471 1.214 . S
O470 Cd466 2.352 . S
O470 C473 1.258 . S
C471 O468 1.320 . S
C471 O469 1.214 . S
O472 Cd464 2.277 . S
O472 C467 1.209 . S
C473 O470 1.258 . S
C473 O475 1.282 . S
O474 Cd466 2.277 . S
O474 C467 1.226 . S
O475 Cd466 2.356 . S
O475 C473 1.282 . S
C476 O477 1.306 . S
C476 O479 1.160 . S
O477 C476 1.306 . S
O477 Cd478 2.228 . S
Cd478 O477 2.228 . S
Cd478 O482 2.273 . S
Cd478 O486 2.277 . S
O479 C476 1.160 . S
O479 Cd480 2.203 . S
Cd480 O479 2.203 . S
Cd480 O482 2.411 . S
Cd480 O483 2.333 . S
Cd480 O484 2.352 . S
Cd480 O488 2.277 . S
Cd480 O489 2.356 . S
C481 O486 1.209 . S
C481 O488 1.226 . S
O482 Cd478 2.273 . S
O482 Cd480 2.411 . S
O482 C485 1.320 . S
O483 Cd480 2.333 . S
O483 C485 1.214 . S
O484 Cd480 2.352 . S
O484 C487 1.258 . S
C485 O482 1.320 . S
C485 O483 1.214 . S
O486 Cd478 2.277 . S
O486 C481 1.209 . S
C487 O484 1.258 . S
C487 O489 1.282 . S
O488 Cd480 2.277 . S
O488 C481 1.226 . S
O489 Cd480 2.356 . S
O489 C487 1.282 . S
C490 O491 1.306 . S
C490 O493 1.160 . S
O491 C490 1.306 . S
O491 Cd492 2.228 . S
Cd492 O491 2.228 . S
Cd492 O496 2.273 . S
Cd492 O500 2.277 . S
O493 C490 1.160 . S
O493 Cd494 2.203 . S
Cd494 O493 2.203 . S
Cd494 O496 2.411 . S
Cd494 O497 2.333 . S
Cd494 O498 2.352 . S
Cd494 O502 2.277 . S
Cd494 O503 2.356 . S
C495 O500 1.209 . S
C495 O502 1.226 . S
O496 Cd492 2.273 . S
O496 Cd494 2.411 . S
O496 C499 1.320 . S
O497 Cd494 2.333 . S
O497 C499 1.214 . S
O498 Cd494 2.352 . S
O498 C501 1.258 . S
C499 O496 1.320 . S
C499 O497 1.214 . S
O500 Cd492 2.277 . S
O500 C495 1.209 . S
C501 O498 1.258 . S
C501 O503 1.282 . S
O502 Cd494 2.277 . S
O502 C495 1.226 . S
O503 Cd494 2.356 . S
O503 C501 1.282 . S
C504 C505 1.349 . S
C504 C506 1.327 . S
C504 H529 0.950 . S
C505 C504 1.349 . S
C505 C521 1.349 . S
C506 C504 1.327 . S
C506 C525 1.429 . S
C506 H530 0.950 . S
C507 C524 1.574 . S
C507 C526 1.368 . S
C507 H531 0.949 . S
H508 C512 0.949 . S
C509 C510 1.349 . S
C509 C511 1.327 . S
C509 H532 0.950 . S
C510 C509 1.349 . S
C510 C522 1.349 . S
C511 C509 1.327 . S
C511 C527 1.429 . S
C511 H533 0.950 . S
C512 H508 0.949 . S
C512 C520 1.574 1_556 S
C512 C528 1.368 . S
H513 C521 0.950 . S
H514 C519 0.950 . S
H515 C520 0.949 . S
H516 C522 0.950 . S
H517 C523 0.950 1_545 S
H518 C524 0.949 . S
C519 H514 0.950 . S
C519 C521 1.327 . S
C519 C525 1.429 . S
C520 C512 1.574 1_554 S
C520 H515 0.949 . S
C520 C526 1.368 . S
C521 C505 1.349 . S
C521 H513 0.950 . S
C521 C519 1.327 . S
C522 C510 1.349 . S
C522 H516 0.950 . S
C522 C523 1.327 . S
C523 H517 0.950 1_565 S
C523 C522 1.327 . S
C523 C527 1.429 . S
C524 C507 1.574 . S
C524 H518 0.949 . S
C524 C528 1.368 1_554 S
C525 C506 1.429 . S
C525 C519 1.429 . S
C525 C526 1.523 . S
C526 C507 1.368 . S
C526 C520 1.368 . S
C526 C525 1.523 . S
C527 C511 1.429 . S
C527 C523 1.429 . S
C527 C528 1.523 1_565 S
C528 C512 1.368 . S
C528 C524 1.368 1_556 S
C528 C527 1.523 1_545 S
H529 C504 0.950 . S
H530 C506 0.950 . S
H531 C507 0.949 . S
H532 C509 0.950 . S
H533 C511 0.950 . S
C534 C535 1.349 . S
C534 C536 1.327 . S
C534 H559 0.950 . S
C535 C534 1.349 . S
C535 C551 1.349 . S
C536 C534 1.327 . S
C536 C555 1.429 . S
C536 H560 0.950 . S
C537 C554 1.574 1_554 S
C537 C556 1.368 . S
C537 H561 0.945 1_554 S
H538 C542 0.949 . S
C539 C540 1.349 . S
C539 C541 1.327 . S
C539 H562 0.950 . S
C540 C539 1.349 . S
C540 C552 1.349 . S
C541 C539 1.327 . S
C541 C557 1.429 . S
C541 H563 0.947 1_455 S
C542 H538 0.949 . S
C542 C550 1.574 . S
C542 C558 1.368 1_554 S
H543 C551 0.950 . S
H544 C549 0.950 . S
H545 C550 0.949 . S
H546 C552 0.950 . S
H547 C553 0.950 . S
H548 C554 0.949 . S
C549 H544 0.950 . S
C549 C551 1.327 . S
C549 C555 1.429 . S
C550 C542 1.574 . S
C550 H545 0.949 . S
C550 C556 1.368 . S
C551 C535 1.349 . S
C551 H543 0.950 . S
C551 C549 1.327 . S
C552 C540 1.349 . S
C552 H546 0.950 . S
C552 C553 1.327 . S
C553 H547 0.950 . S
C553 C552 1.327 . S
C553 C557 1.429 . S
C554 C537 1.574 1_556 S
C554 H548 0.949 . S
C554 C558 1.368 . S
C555 C536 1.429 . S
C555 C549 1.429 . S
C555 C556 1.523 . S
C556 C537 1.368 . S
C556 C550 1.368 . S
C556 C555 1.523 . S
C557 C541 1.429 . S
C557 C553 1.429 . S
C557 C558 1.523 1_455 S
C558 C542 1.368 1_556 S
C558 C554 1.368 . S
C558 C557 1.523 1_655 S
H559 C534 0.950 . S
H560 C536 0.950 . S
H561 C537 0.945 1_556 S
H562 C539 0.950 . S
H563 C541 0.947 1_655 S
C564 C565 1.349 . S
C564 C566 1.327 . S
C564 H589 0.950 . S
C565 C564 1.349 . S
C565 C581 1.349 . S
C566 C564 1.327 . S
C566 C585 1.429 . S
C566 H590 0.950 . S
C567 C584 1.574 . S
C567 C586 1.368 1_554 S
C567 H591 0.949 . S
H568 C572 0.949 . S
C569 C570 1.349 . S
C569 C571 1.327 . S
C569 H592 0.950 . S
C570 C569 1.349 . S
C570 C582 1.349 . S
C571 C569 1.327 . S
C571 C587 1.429 . S
C571 H593 0.950 . S
C572 H568 0.949 . S
C572 C580 1.574 . S
C572 C588 1.368 1_556 S
H573 C581 0.950 . S
H574 C579 0.950 . S
H575 C580 0.949 . S
H576 C582 0.950 . S
H577 C583 0.950 . S
H578 C584 0.949 . S
C579 H574 0.950 . S
C579 C581 1.327 . S
C579 C585 1.429 . S
C580 C572 1.574 . S
C580 H575 0.949 . S
C580 C586 1.368 . S
C581 C565 1.349 . S
C581 H573 0.950 . S
C581 C579 1.327 . S
C582 C570 1.349 . S
C582 H576 0.950 . S
C582 C583 1.327 . S
C583 H577 0.950 . S
C583 C582 1.327 . S
C583 C587 1.429 . S
C584 C567 1.574 . S
C584 H578 0.949 . S
C584 C588 1.368 . S
C585 C566 1.429 . S
C585 C579 1.429 . S
C585 C586 1.523 . S
C586 C567 1.368 1_556 S
C586 C580 1.368 . S
C586 C585 1.523 . S
C587 C571 1.429 . S
C587 C583 1.429 . S
C587 C588 1.523 . S
C588 C572 1.368 1_554 S
C588 C584 1.368 . S
C588 C587 1.523 . S
H589 C564 0.950 . S
H590 C566 0.950 . S
H591 C567 0.949 . S
H592 C569 0.950 . S
H593 C571 0.950 . S
C594 C595 1.349 . S
C594 C596 1.327 . S
C594 H619 0.950 . S
C595 C594 1.349 . S
C595 C611 1.349 . S
C596 C594 1.327 . S
C596 C615 1.429 . S
C596 H620 0.950 . S
C597 C614 1.574 . S
C597 C616 1.368 . S
C597 H621 0.949 . S
H598 C602 0.949 . S
C599 C600 1.349 . S
C599 C601 1.327 . S
C599 H622 0.950 . S
C600 C599 1.349 . S
C600 C612 1.349 . S
C601 C599 1.327 . S
C601 C617 1.429 . S
C601 H623 0.950 . S
C602 H598 0.949 . S
C602 C610 1.574 . S
C602 C618 1.368 . S
H603 C611 0.950 . S
H604 C609 0.915 1_455 S
H605 C610 0.949 1_655 S
H606 C612 0.950 . S
H607 C613 0.950 . S
H608 C614 0.949 . S
C609 H604 0.915 1_655 S
C609 C611 1.363 . S
C609 C615 1.428 . S
C610 C602 1.574 . S
C610 H605 0.949 1_455 S
C610 C616 1.368 . S
C611 C595 1.349 . S
C611 H603 0.950 . S
C611 C609 1.363 . S
C612 C600 1.349 . S
C612 H606 0.950 . S
C612 C613 1.327 . S
C613 H607 0.950 . S
C613 C612 1.327 . S
C613 C617 1.429 . S
C614 C597 1.574 . S
C614 H608 0.949 . S
C614 C618 1.368 . S
C615 C596 1.429 . S
C615 C609 1.428 . S
C615 C616 1.523 1_655 S
C616 C597 1.368 . S
C616 C610 1.368 . S
C616 C615 1.523 1_455 S
C617 C601 1.429 . S
C617 C613 1.429 . S
C617 C618 1.523 . S
C618 C602 1.368 . S
C618 C614 1.368 . S
C618 C617 1.523 . S
H619 C594 0.950 . S
H620 C596 0.950 . S
H621 C597 0.949 . S
H622 C599 0.950 . S
H623 C601 0.950 . S
C624 C625 1.349 . S
C624 C626 1.327 . S
C624 H649 0.950 . S
C625 C624 1.349 . S
C625 C641 1.349 . S
C626 C624 1.327 . S
C626 C645 1.429 . S
C626 H650 0.950 . S
C627 C644 1.574 . S
C627 C646 1.368 . S
C627 H651 0.949 . S
H628 C632 0.949 . S
C629 C630 1.349 . S
C629 C631 1.327 . S
C629 H652 0.950 . S
C630 C629 1.349 . S
C630 C642 1.349 . S
C631 C629 1.327 . S
C631 C647 1.429 . S
C631 H653 0.950 . S
C632 H628 0.949 . S
C632 C640 1.574 . S
C632 C648 1.368 . S
H633 C641 0.950 . S
H634 C639 0.950 . S
H635 C640 0.949 . S
H636 C642 0.950 . S
H637 C643 0.950 . S
H638 C644 0.949 . S
C639 H634 0.950 . S
C639 C641 1.327 . S
C639 C645 1.429 . S
C640 C632 1.574 . S
C640 H635 0.949 . S
C640 C646 1.368 . S
C641 C625 1.349 . S
C641 H633 0.950 . S
C641 C639 1.327 . S
C642 C630 1.349 . S
C642 H636 0.950 . S
C642 C643 1.327 . S
C643 H637 0.950 . S
C643 C642 1.327 . S
C643 C647 1.429 . S
C644 C627 1.574 . S
C644 H638 0.949 . S
C644 C648 1.368 . S
C645 C626 1.429 . S
C645 C639 1.429 . S
C645 C646 1.523 . S
C646 C627 1.368 . S
C646 C640 1.368 . S
C646 C645 1.523 . S
C647 C631 1.429 . S
C647 C643 1.429 . S
C647 C648 1.523 . S
C648 C632 1.368 . S
C648 C644 1.368 . S
C648 C647 1.523 . S
H649 C624 0.950 . S
H650 C626 0.950 . S
H651 C627 0.949 . S
H652 C629 0.950 . S
H653 C631 0.950 . S
C654 C655 1.349 . S
C654 C656 1.327 . S
C654 H679 0.950 . S
C655 C654 1.349 . S
C655 C671 1.349 . S
C656 C654 1.327 . S
C656 C675 1.429 . S
C656 H680 0.950 . S
C657 C674 1.574 . S
C657 C676 1.368 . S
C657 H681 0.949 . S
H658 C662 0.949 . S
C659 C660 1.349 . S
C659 C661 1.327 . S
C659 H682 0.950 . S
C660 C659 1.349 . S
C660 C672 1.349 . S
C661 C659 1.327 . S
C661 C677 1.429 . S
C661 H683 0.950 . S
C662 H658 0.949 . S
C662 C670 1.574 . S
C662 C678 1.368 . S
H663 C671 0.950 . S
H664 C669 0.950 . S
H665 C670 0.949 . S
H666 C672 0.950 . S
H667 C673 0.950 1_565 S
H668 C674 0.949 1_545 S
C669 H664 0.950 . S
C669 C671 1.327 . S
C669 C675 1.429 . S
C670 C662 1.574 . S
C670 H665 0.949 . S
C670 C676 1.368 . S
C671 C655 1.349 . S
C671 H663 0.950 . S
C671 C669 1.327 . S
C672 C660 1.349 . S
C672 H666 0.950 . S
C672 C673 1.327 . S
C673 H667 0.950 1_545 S
C673 C672 1.327 . S
C673 C677 1.429 . S
C674 C657 1.574 . S
C674 H668 0.949 1_565 S
C674 C678 1.368 . S
C675 C656 1.429 . S
C675 C669 1.429 . S
C675 C676 1.523 . S
C676 C657 1.368 . S
C676 C670 1.368 . S
C676 C675 1.523 . S
C677 C661 1.429 . S
C677 C673 1.429 . S
C677 C678 1.523 1_545 S
C678 C662 1.368 . S
C678 C674 1.368 . S
C678 C677 1.523 1_565 S
H679 C654 0.950 . S
H680 C656 0.950 . S
H681 C657 0.949 . S
H682 C659 0.950 . S
H683 C661 0.950 . S
C684 C685 1.349 . S
C684 C686 1.370 . S
C684 H709 0.950 . S
C685 C684 1.349 . S
C685 C701 1.349 . S
C686 C684 1.370 . S
C686 C705 1.422 . S
C686 H710 0.915 1_545 S
C687 C704 1.574 . S
C687 C706 1.368 1_556 S
C687 H711 0.949 1_565 S
H688 C692 0.949 . S
C689 C690 1.349 . S
C689 C691 1.327 . S
C689 H712 0.950 . S
C690 C689 1.349 . S
C690 C702 1.349 . S
C691 C689 1.327 . S
C691 C707 1.429 . S
C691 H713 0.950 . S
C692 H688 0.949 . S
C692 C700 1.574 . S
C692 C708 1.368 1_554 S
H693 C701 0.950 . S
H694 C699 0.950 . S
H695 C700 0.949 . S
H696 C702 0.950 . S
H697 C703 0.950 . S
H698 C704 0.949 . S
C699 H694 0.950 . S
C699 C701 1.327 . S
C699 C705 1.429 . S
C700 C692 1.574 . S
C700 H695 0.949 . S
C700 C706 1.368 . S
C701 C685 1.349 . S
C701 H693 0.950 . S
C701 C699 1.327 . S
C702 C690 1.349 . S
C702 H696 0.950 . S
C702 C703 1.327 . S
C703 H697 0.950 . S
C703 C702 1.327 . S
C703 C707 1.429 . S
C704 C687 1.574 . S
C704 H698 0.949 . S
C704 C708 1.368 . S
C705 C686 1.422 . S
C705 C699 1.429 . S
C705 C706 1.523 1_545 S
C706 C687 1.368 1_554 S
C706 C700 1.368 . S
C706 C705 1.523 1_565 S
C707 C691 1.429 . S
C707 C703 1.429 . S
C707 C708 1.523 . S
C708 C692 1.368 1_556 S
C708 C704 1.368 . S
C708 C707 1.523 . S
H709 C684 0.950 . S
H710 C686 0.915 1_565 S
H711 C687 0.949 1_545 S
H712 C689 0.950 . S
H713 C691 0.950 . S
C714 C715 1.349 . S
C714 C716 1.327 . S
C714 H739 0.950 . S
C715 C714 1.349 . S
C715 C731 1.349 . S
C716 C714 1.327 . S
C716 C735 1.429 . S
C716 H740 0.961 . S
C717 C734 1.574 . S
C717 C736 1.368 . S
C717 H741 0.949 . S
H718 C722 0.949 . S
C719 C720 1.349 . S
C719 C721 1.327 . S
C719 H742 0.950 . S
C720 C719 1.349 . S
C720 C732 1.349 . S
C721 C719 1.327 . S
C721 C737 1.429 . S
C721 H743 0.950 . S
C722 H718 0.949 . S
C722 C730 1.574 . S
C722 C738 1.368 . S
H723 C731 0.950 . S
H724 C729 0.913 1_455 S
H725 C730 0.949 1_655 S
H726 C732 0.950 . S
H727 C733 0.950 . S
H728 C734 0.949 . S
C729 H724 0.913 1_655 S
C729 C731 1.354 . S
C729 C735 1.439 . S
C730 C722 1.574 . S
C730 H725 0.949 1_455 S
C730 C736 1.368 1_556 S
C731 C715 1.349 . S
C731 H723 0.950 . S
C731 C729 1.354 . S
C732 C720 1.349 . S
C732 H726 0.950 . S
C732 C733 1.327 . S
C733 H727 0.950 . S
C733 C732 1.327 . S
C733 C737 1.429 . S
C734 C717 1.574 . S
C734 H728 0.949 . S
C734 C738 1.368 1_554 S
C735 C716 1.429 . S
C735 C729 1.439 . S
C735 C736 1.523 1_655 S
C736 C717 1.368 . S
C736 C730 1.368 1_554 S
C736 C735 1.523 1_455 S
C737 C721 1.429 . S
C737 C733 1.429 . S
C737 C738 1.523 . S
C738 C722 1.368 . S
C738 C734 1.368 1_556 S
C738 C737 1.523 . S
H739 C714 0.950 . S
H740 C716 0.961 . S
H741 C717 0.949 . S
H742 C719 0.950 . S
H743 C721 0.950 . S
C744 C745 1.349 . S
C744 C746 1.327 . S
C744 H769 0.950 . S
C745 C744 1.349 . S
C745 C761 1.349 . S
C746 C744 1.327 . S
C746 C765 1.429 . S
C746 H770 0.950 . S
C747 C764 1.574 . S
C747 C766 1.368 1_554 S
C747 H771 0.949 . S
H748 C752 0.949 . S
C749 C750 1.349 . S
C749 C751 1.327 . S
C749 H772 0.950 . S
C750 C749 1.349 . S
C750 C762 1.349 . S
C751 C749 1.327 . S
C751 C767 1.429 . S
C751 H773 0.950 . S
C752 H748 0.949 . S
C752 C760 1.574 . S
C752 C768 1.368 1_556 S
H753 C761 0.950 . S
H754 C759 0.950 . S
H755 C760 0.949 . S
H756 C762 0.950 . S
H757 C763 0.950 1_556 S
H758 C764 0.949 . S
C759 H754 0.950 . S
C759 C761 1.327 . S
C759 C765 1.429 . S
C760 C752 1.574 . S
C760 H755 0.949 . S
C760 C766 1.368 . S
C761 C745 1.349 . S
C761 H753 0.950 . S
C761 C759 1.327 . S
C762 C750 1.349 . S
C762 H756 0.950 . S
C762 C763 1.327 . S
C763 H757 0.950 1_554 S
C763 C762 1.327 . S
C763 C767 1.429 . S
C764 C747 1.574 . S
C764 H758 0.949 . S
C764 C768 1.368 . S
C765 C746 1.429 . S
C765 C759 1.429 . S
C765 C766 1.523 . S
C766 C747 1.368 1_556 S
C766 C760 1.368 . S
C766 C765 1.523 . S
C767 C751 1.429 . S
C767 C763 1.429 . S
C767 C768 1.523 . S
C768 C752 1.368 1_554 S
C768 C764 1.368 . S
C768 C767 1.523 . S
H769 C744 0.950 . S
H770 C746 0.950 . S
H771 C747 0.949 . S
H772 C749 0.950 . S
H773 C751 0.950 . S
C774 C775 1.349 . S
C774 C776 1.327 . S
C774 H799 0.950 . S
C775 C774 1.349 . S
C775 C791 1.349 . S
C776 C774 1.327 . S
C776 C795 1.429 . S
C776 H800 0.950 . S
C777 C794 1.574 . S
C777 C796 1.368 . S
C777 H801 0.949 . S
H778 C782 0.919 1_455 S
C779 C780 1.349 . S
C779 C781 1.327 . S
C779 H802 0.950 . S
C780 C779 1.349 . S
C780 C792 1.349 . S
C781 C779 1.327 . S
C781 C797 1.429 . S
C781 H803 0.950 1_455 S
C782 H778 0.919 1_655 S
C782 C790 1.574 . S
C782 C798 1.368 . S
H783 C791 0.950 . S
H784 C789 0.950 . S
H785 C790 0.949 . S
H786 C792 0.950 . S
H787 C793 0.950 . S
H788 C794 0.949 . S
C789 H784 0.950 . S
C789 C791 1.327 . S
C789 C795 1.429 . S
C790 C782 1.574 . S
C790 H785 0.949 . S
C790 C796 1.368 . S
C791 C775 1.349 . S
C791 H783 0.950 . S
C791 C789 1.327 . S
C792 C780 1.349 . S
C792 H786 0.950 . S
C792 C793 1.327 . S
C793 H787 0.950 . S
C793 C792 1.327 . S
C793 C797 1.429 . S
C794 C777 1.574 . S
C794 H788 0.949 . S
C794 C798 1.368 . S
C795 C776 1.429 . S
C795 C789 1.429 . S
C795 C796 1.523 . S
C796 C777 1.368 . S
C796 C790 1.368 . S
C796 C795 1.523 . S
C797 C781 1.429 . S
C797 C793 1.429 . S
C797 C798 1.523 1_455 S
C798 C782 1.368 . S
C798 C794 1.368 . S
C798 C797 1.523 1_655 S
H799 C774 0.950 . S
H800 C776 0.950 . S
H801 C777 0.949 . S
H802 C779 0.950 . S
H803 C781 0.950 1_655 S
C804 C805 1.349 . S
C804 C806 1.327 . S
C804 H829 0.950 . S
C805 C804 1.349 . S
C805 C821 1.349 . S
C806 C804 1.327 . S
C806 C825 1.429 . S
C806 H830 0.950 . S
C807 C824 1.574 . S
C807 C826 1.368 . S
C807 H831 0.949 . S
H808 C812 0.949 . S
C809 C810 1.349 . S
C809 C811 1.327 . S
C809 H832 0.950 . S
C810 C809 1.349 . S
C810 C822 1.349 . S
C811 C809 1.327 . S
C811 C827 1.429 . S
C811 H833 0.950 . S
C812 H808 0.949 . S
C812 C820 1.574 . S
C812 C828 1.368 . S
H813 C821 0.950 . S
H814 C819 0.950 . S
H815 C820 0.949 . S
H816 C822 0.950 . S
H817 C823 0.950 . S
H818 C824 0.949 . S
C819 H814 0.950 . S
C819 C821 1.327 . S
C819 C825 1.429 . S
C820 C812 1.574 . S
C820 H815 0.949 . S
C820 C826 1.368 . S
C821 C805 1.349 . S
C821 H813 0.950 . S
C821 C819 1.327 . S
C822 C810 1.349 . S
C822 H816 0.950 . S
C822 C823 1.327 . S
C823 H817 0.950 . S
C823 C822 1.327 . S
C823 C827 1.429 . S
C824 C807 1.574 . S
C824 H818 0.949 . S
C824 C828 1.368 . S
C825 C806 1.429 . S
C825 C819 1.429 . S
C825 C826 1.523 . S
C826 C807 1.368 . S
C826 C820 1.368 . S
C826 C825 1.523 . S
C827 C811 1.429 . S
C827 C823 1.429 . S
C827 C828 1.523 . S
C828 C812 1.368 . S
C828 C824 1.368 . S
C828 C827 1.523 . S
H829 C804 0.950 . S
H830 C806 0.950 . S
H831 C807 0.949 . S
H832 C809 0.950 . S
H833 C811 0.950 . S
C834 C835 1.349 . S
C834 C836 1.327 . S
C834 H859 0.950 . S
C835 C834 1.349 . S
C835 C851 1.349 . S
C836 C834 1.327 . S
C836 C855 1.429 . S
C836 H860 0.950 . S
C837 C854 1.574 . S
C837 C856 1.368 . S
C837 H861 0.949 . S
H838 C842 0.949 . S
C839 C840 1.349 . S
C839 C841 1.327 . S
C839 H862 0.950 . S
C840 C839 1.349 . S
C840 C852 1.349 . S
C841 C839 1.327 . S
C841 C857 1.429 . S
C841 H863 0.950 1_565 S
C842 H838 0.949 . S
C842 C850 1.574 . S
C842 C858 1.368 . S
H843 C851 0.950 . S
H844 C849 0.950 . S
H845 C850 0.949 . S
H846 C852 0.950 . S
H847 C853 0.950 . S
H848 C854 0.949 . S
C849 H844 0.950 . S
C849 C851 1.327 . S
C849 C855 1.429 . S
C850 C842 1.574 . S
C850 H845 0.949 . S
C850 C856 1.368 . S
C851 C835 1.349 . S
C851 H843 0.950 . S
C851 C849 1.327 . S
C852 C840 1.349 . S
C852 H846 0.950 . S
C852 C853 1.327 . S
C853 H847 0.950 . S
C853 C852 1.327 . S
C853 C857 1.429 . S
C854 C837 1.574 . S
C854 H848 0.949 . S
C854 C858 1.368 . S
C855 C836 1.429 . S
C855 C849 1.429 . S
C855 C856 1.523 . S
C856 C837 1.368 . S
C856 C850 1.368 . S
C856 C855 1.523 . S
C857 C841 1.429 . S
C857 C853 1.429 . S
C857 C858 1.523 1_565 S
C858 C842 1.368 . S
C858 C854 1.368 . S
C858 C857 1.523 1_545 S
H859 C834 0.950 . S
H860 C836 0.950 . S
H861 C837 0.949 . S
H862 C839 0.950 . S
H863 C841 0.950 1_545 S
C864 C865 1.349 . S
C864 C866 1.327 . S
C864 H889 0.950 . S
C865 C864 1.349 . S
C865 C881 1.349 . S
C866 C864 1.327 . S
C866 C885 1.429 . S
C866 H890 0.950 . S
C867 C884 1.574 . S
C867 C886 1.368 . S
C867 H891 0.949 . S
H868 C872 0.949 . S
C869 C870 1.349 . S
C869 C871 1.327 . S
C869 H892 0.950 . S
C870 C869 1.349 . S
C870 C882 1.349 . S
C871 C869 1.327 . S
C871 C887 1.429 . S
C871 H893 0.950 . S
C872 H868 0.949 . S
C872 C880 1.574 . S
C872 C888 1.368 . S
H873 C881 0.950 . S
H874 C879 0.950 . S
H875 C880 0.949 . S
H876 C882 0.950 . S
H877 C883 0.950 . S
H878 C884 0.949 . S
C879 H874 0.950 . S
C879 C881 1.327 . S
C879 C885 1.429 . S
C880 C872 1.574 . S
C880 H875 0.949 . S
C880 C886 1.368 . S
C881 C865 1.349 . S
C881 H873 0.950 . S
C881 C879 1.327 . S
C882 C870 1.349 . S
C882 H876 0.950 . S
C882 C883 1.327 . S
C883 H877 0.950 . S
C883 C882 1.327 . S
C883 C887 1.429 . S
C884 C867 1.574 . S
C884 H878 0.949 . S
C884 C888 1.368 . S
C885 C866 1.429 . S
C885 C879 1.429 . S
C885 C886 1.523 . S
C886 C867 1.368 . S
C886 C880 1.368 . S
C886 C885 1.523 . S
C887 C871 1.429 . S
C887 C883 1.429 . S
C887 C888 1.523 . S
C888 C872 1.368 . S
C888 C884 1.368 . S
C888 C887 1.523 . S
H889 C864 0.950 . S
H890 C866 0.950 . S
H891 C867 0.949 . S
H892 C869 0.950 . S
H893 C871 0.950 . S
C894 C895 1.349 . S
C894 C896 1.327 . S
C894 H919 0.950 . S
C895 C894 1.349 . S
C895 C911 1.349 . S
C896 C894 1.327 . S
C896 C915 1.429 . S
C896 H920 0.950 . S
C897 C914 1.574 . S
C897 C916 1.368 . S
C897 H921 0.949 . S
H898 C902 0.949 . S
C899 C900 1.349 . S
C899 C901 1.327 . S
C899 H922 0.950 . S
C900 C899 1.349 . S
C900 C912 1.349 . S
C901 C899 1.327 . S
C901 C917 1.429 . S
C901 H923 0.950 . S
C902 H898 0.949 . S
C902 C910 1.574 . S
C902 C918 1.368 . S
H903 C911 0.950 . S
H904 C909 0.950 . S
H905 C910 0.949 . S
H906 C912 0.950 . S
H907 C913 0.950 . S
H908 C914 0.949 . S
C909 H904 0.950 . S
C909 C911 1.327 . S
C909 C915 1.429 . S
C910 C902 1.574 . S
C910 H905 0.949 . S
C910 C916 1.368 . S
C911 C895 1.349 . S
C911 H903 0.950 . S
C911 C909 1.327 . S
C912 C900 1.349 . S
C912 H906 0.950 . S
C912 C913 1.327 . S
C913 H907 0.950 . S
C913 C912 1.327 . S
C913 C917 1.429 . S
C914 C897 1.574 . S
C914 H908 0.949 . S
C914 C918 1.368 . S
C915 C896 1.429 . S
C915 C909 1.429 . S
C915 C916 1.523 . S
C916 C897 1.368 . S
C916 C910 1.368 . S
C916 C915 1.523 . S
C917 C901 1.429 . S
C917 C913 1.429 . S
C917 C918 1.523 . S
C918 C902 1.368 . S
C918 C914 1.368 . S
C918 C917 1.523 . S
H919 C894 0.950 . S
H920 C896 0.950 . S
H921 C897 0.949 . S
H922 C899 0.950 . S
H923 C901 0.950 . S
C924 C925 1.349 . S
C924 C926 1.327 . S
C924 H949 0.950 . S
C925 C924 1.349 . S
C925 C941 1.349 . S
C926 C924 1.327 . S
C926 C945 1.429 . S
C926 H950 0.950 . S
C927 C944 1.574 . S
C927 C946 1.368 . S
C927 H951 0.949 . S
H928 C932 0.949 . S
C929 C930 1.349 . S
C929 C931 1.327 . S
C929 H952 0.950 . S
C930 C929 1.349 . S
C930 C942 1.349 . S
C931 C929 1.327 . S
C931 C947 1.429 . S
C931 H953 0.950 . S
C932 H928 0.949 . S
C932 C940 1.574 . S
C932 C948 1.368 . S
H933 C941 0.950 . S
H934 C939 0.950 . S
H935 C940 0.949 . S
H936 C942 0.950 . S
H937 C943 0.950 . S
H938 C944 0.949 . S
C939 H934 0.950 . S
C939 C941 1.327 . S
C939 C945 1.429 . S
C940 C932 1.574 . S
C940 H935 0.949 . S
C940 C946 1.368 . S
C941 C925 1.349 . S
C941 H933 0.950 . S
C941 C939 1.327 . S
C942 C930 1.349 . S
C942 H936 0.950 . S
C942 C943 1.327 . S
C943 H937 0.950 . S
C943 C942 1.327 . S
C943 C947 1.429 . S
C944 C927 1.574 . S
C944 H938 0.949 . S
C944 C948 1.368 . S
C945 C926 1.429 . S
C945 C939 1.429 . S
C945 C946 1.523 . S
C946 C927 1.368 . S
C946 C940 1.368 . S
C946 C945 1.523 . S
C947 C931 1.429 . S
C947 C943 1.429 . S
C947 C948 1.523 . S
C948 C932 1.368 . S
C948 C944 1.368 . S
C948 C947 1.523 . S
H949 C924 0.950 . S
H950 C926 0.950 . S
H951 C927 0.949 . S
H952 C929 0.950 . S
H953 C931 0.950 . S
C954 C955 1.349 . S
C954 C956 1.327 . S
C954 H979 0.950 . S
C955 C954 1.349 . S
C955 C971 1.349 . S
C956 C954 1.327 . S
C956 C975 1.429 . S
C956 H980 0.950 . S
C957 C974 1.574 . S
C957 C976 1.368 . S
C957 H981 0.949 . S
H958 C962 0.949 . S
C959 C960 1.349 . S
C959 C961 1.327 . S
C959 H982 0.950 . S
C960 C959 1.349 . S
C960 C972 1.349 . S
C961 C959 1.327 . S
C961 C977 1.429 . S
C961 H983 0.950 . S
C962 H958 0.949 . S
C962 C970 1.574 . S
C962 C978 1.368 . S
H963 C971 0.950 . S
H964 C969 0.950 . S
H965 C970 0.949 . S
H966 C972 0.950 . S
H967 C973 0.950 . S
H968 C974 0.949 . S
C969 H964 0.950 . S
C969 C971 1.327 . S
C969 C975 1.429 . S
C970 C962 1.574 . S
C970 H965 0.949 . S
C970 C976 1.368 . S
C971 C955 1.349 . S
C971 H963 0.950 . S
C971 C969 1.327 . S
C972 C960 1.349 . S
C972 H966 0.950 . S
C972 C973 1.327 . S
C973 H967 0.950 . S
C973 C972 1.327 . S
C973 C977 1.429 . S
C974 C957 1.574 . S
C974 H968 0.949 . S
C974 C978 1.368 . S
C975 C956 1.429 . S
C975 C969 1.429 . S
C975 C976 1.523 . S
C976 C957 1.368 . S
C976 C970 1.368 . S
C976 C975 1.523 . S
C977 C961 1.429 . S
C977 C973 1.429 . S
C977 C978 1.523 . S
C978 C962 1.368 . S
C978 C974 1.368 . S
C978 C977 1.523 . S
H979 C954 0.950 . S
H980 C956 0.950 . S
H981 C957 0.949 . S
H982 C959 0.950 . S
H983 C961 0.950 . S
C984 C985 1.349 . S
C984 C986 1.327 . S
C984 H1009 0.950 . S
C985 C984 1.349 . S
C985 C1001 1.349 . S
C986 C984 1.327 . S
C986 C1005 1.429 . S
C986 H1010 0.950 . S
C987 C1004 1.574 . S
C987 C1006 1.368 . S
C987 H1011 0.949 . S
H988 C992 0.949 . S
C989 C990 1.349 . S
C989 C991 1.327 . S
C989 H1012 0.950 . S
C990 C989 1.349 . S
C990 C1002 1.349 . S
C991 C989 1.327 . S
C991 C1007 1.429 . S
C991 H1013 0.950 . S
C992 H988 0.949 . S
C992 C1000 1.574 . S
C992 C1008 1.368 . S
H993 C1001 0.950 . S
H994 C999 0.950 . S
H995 C1000 0.949 . S
H996 C1002 0.950 . S
H997 C1003 0.950 . S
H998 C1004 0.949 . S
C999 H994 0.950 . S
C999 C1001 1.327 . S
C999 C1005 1.429 . S
C1000 C992 1.574 . S
C1000 H995 0.949 . S
C1000 C1006 1.368 . S
C1001 C985 1.349 . S
C1001 H993 0.950 . S
C1001 C999 1.327 . S
C1002 C990 1.349 . S
C1002 H996 0.950 . S
C1002 C1003 1.327 . S
C1003 H997 0.950 . S
C1003 C1002 1.327 . S
C1003 C1007 1.429 . S
C1004 C987 1.574 . S
C1004 H998 0.949 . S
C1004 C1008 1.368 . S
C1005 C986 1.429 . S
C1005 C999 1.429 . S
C1005 C1006 1.523 . S
C1006 C987 1.368 . S
C1006 C1000 1.368 . S
C1006 C1005 1.523 . S
C1007 C991 1.429 . S
C1007 C1003 1.429 . S
C1007 C1008 1.523 . S
C1008 C992 1.368 . S
C1008 C1004 1.368 . S
C1008 C1007 1.523 . S
H1009 C984 0.950 . S
H1010 C986 0.950 . S
H1011 C987 0.949 . S
H1012 C989 0.950 . S
H1013 C991 0.950 . S
C1014 C1015 1.349 . S
C1014 C1016 1.327 . S
C1014 H1039 0.950 . S
C1015 C1014 1.349 . S
C1015 C1031 1.349 . S
C1016 C1014 1.327 . S
C1016 C1035 1.429 . S
C1016 H1040 0.950 . S
C1017 C1034 1.574 . S
C1017 C1036 1.368 . S
C1017 H1041 0.949 . S
H1018 C1022 0.949 . S
C1019 C1020 1.349 . S
C1019 C1021 1.327 . S
C1019 H1042 0.950 . S
C1020 C1019 1.349 . S
C1020 C1032 1.349 . S
C1021 C1019 1.327 . S
C1021 C1037 1.429 . S
C1021 H1043 0.950 . S
C1022 H1018 0.949 . S
C1022 C1030 1.574 . S
C1022 C1038 1.368 . S
H1023 C1031 0.950 . S
H1024 C1029 0.950 . S
H1025 C1030 0.949 . S
H1026 C1032 0.950 . S
H1027 C1033 0.950 . S
H1028 C1034 0.949 . S
C1029 H1024 0.950 . S
C1029 C1031 1.327 . S
C1029 C1035 1.429 . S
C1030 C1022 1.574 . S
C1030 H1025 0.949 . S
C1030 C1036 1.368 . S
C1031 C1015 1.349 . S
C1031 H1023 0.950 . S
C1031 C1029 1.327 . S
C1032 C1020 1.349 . S
C1032 H1026 0.950 . S
C1032 C1033 1.327 . S
C1033 H1027 0.950 . S
C1033 C1032 1.327 . S
C1033 C1037 1.429 . S
C1034 C1017 1.574 . S
C1034 H1028 0.949 . S
C1034 C1038 1.368 . S
C1035 C1016 1.429 . S
C1035 C1029 1.429 . S
C1035 C1036 1.523 . S
C1036 C1017 1.368 . S
C1036 C1030 1.368 . S
C1036 C1035 1.523 . S
C1037 C1021 1.429 . S
C1037 C1033 1.429 . S
C1037 C1038 1.523 . S
C1038 C1022 1.368 . S
C1038 C1034 1.368 . S
C1038 C1037 1.523 . S
H1039 C1014 0.950 . S
H1040 C1016 0.950 . S
H1041 C1017 0.949 . S
H1042 C1019 0.950 . S
H1043 C1021 0.950 . S
C1044 C1045 1.349 . S
C1044 C1046 1.327 . S
C1044 H1069 0.950 . S
C1045 C1044 1.349 . S
C1045 C1061 1.349 . S
C1046 C1044 1.327 . S
C1046 C1065 1.429 . S
C1046 H1070 0.950 . S
C1047 C1064 1.574 . S
C1047 C1066 1.368 . S
C1047 H1071 0.949 . S
H1048 C1052 0.949 . S
C1049 C1050 1.349 . S
C1049 C1051 1.327 . S
C1049 H1072 0.950 . S
C1050 C1049 1.349 . S
C1050 C1062 1.349 . S
C1051 C1049 1.327 . S
C1051 C1067 1.429 . S
C1051 H1073 0.950 . S
C1052 H1048 0.949 . S
C1052 C1060 1.574 . S
C1052 C1068 1.368 . S
H1053 C1061 0.950 . S
H1054 C1059 0.950 . S
H1055 C1060 0.949 . S
H1056 C1062 0.950 . S
H1057 C1063 0.950 . S
H1058 C1064 0.949 . S
C1059 H1054 0.950 . S
C1059 C1061 1.327 . S
C1059 C1065 1.429 . S
C1060 C1052 1.574 . S
C1060 H1055 0.949 . S
C1060 C1066 1.368 . S
C1061 C1045 1.349 . S
C1061 H1053 0.950 . S
C1061 C1059 1.327 . S
C1062 C1050 1.349 . S
C1062 H1056 0.950 . S
C1062 C1063 1.327 . S
C1063 H1057 0.950 . S
C1063 C1062 1.327 . S
C1063 C1067 1.429 . S
C1064 C1047 1.574 . S
C1064 H1058 0.949 . S
C1064 C1068 1.368 . S
C1065 C1046 1.429 . S
C1065 C1059 1.429 . S
C1065 C1066 1.523 . S
C1066 C1047 1.368 . S
C1066 C1060 1.368 . S
C1066 C1065 1.523 . S
C1067 C1051 1.429 . S
C1067 C1063 1.429 . S
C1067 C1068 1.523 . S
C1068 C1052 1.368 . S
C1068 C1064 1.368 . S
C1068 C1067 1.523 . S
H1069 C1044 0.950 . S
H1070 C1046 0.950 . S
H1071 C1047 0.949 . S
H1072 C1049 0.950 . S
H1073 C1051 0.950 . S
C1074 C1075 1.349 . S
C1074 C1076 1.327 . S
C1074 H1099 0.950 . S
C1075 C1074 1.349 . S
C1075 C1091 1.349 . S
C1076 C1074 1.327 . S
C1076 C1095 1.429 . S
C1076 H1100 0.950 . S
C1077 C1094 1.574 . S
C1077 C1096 1.368 . S
C1077 H1101 0.949 . S
H1078 C1082 0.949 . S
C1079 C1080 1.349 . S
C1079 C1081 1.327 . S
C1079 H1102 0.950 . S
C1080 C1079 1.349 . S
C1080 C1092 1.349 . S
C1081 C1079 1.327 . S
C1081 C1097 1.429 . S
C1081 H1103 0.950 . S
C1082 H1078 0.949 . S
C1082 C1090 1.574 . S
C1082 C1098 1.368 . S
H1083 C1091 0.950 . S
H1084 C1089 0.950 . S
H1085 C1090 0.949 . S
H1086 C1092 0.950 . S
H1087 C1093 0.950 . S
H1088 C1094 0.949 . S
C1089 H1084 0.950 . S
C1089 C1091 1.327 . S
C1089 C1095 1.429 . S
C1090 C1082 1.574 . S
C1090 H1085 0.949 . S
C1090 C1096 1.368 . S
C1091 C1075 1.349 . S
C1091 H1083 0.950 . S
C1091 C1089 1.327 . S
C1092 C1080 1.349 . S
C1092 H1086 0.950 . S
C1092 C1093 1.327 . S
C1093 H1087 0.950 . S
C1093 C1092 1.327 . S
C1093 C1097 1.429 . S
C1094 C1077 1.574 . S
C1094 H1088 0.949 . S
C1094 C1098 1.368 . S
C1095 C1076 1.429 . S
C1095 C1089 1.429 . S
C1095 C1096 1.523 . S
C1096 C1077 1.368 . S
C1096 C1090 1.368 . S
C1096 C1095 1.523 . S
C1097 C1081 1.429 . S
C1097 C1093 1.429 . S
C1097 C1098 1.523 . S
C1098 C1082 1.368 . S
C1098 C1094 1.368 . S
C1098 C1097 1.523 . S
H1099 C1074 0.950 . S
H1100 C1076 0.950 . S
H1101 C1077 0.949 . S
H1102 C1079 0.950 . S
H1103 C1081 0.950 . S
C1104 C1105 1.349 . S
C1104 C1106 1.327 . S
C1104 H1129 0.950 . S
C1105 C1104 1.349 . S
C1105 C1121 1.349 . S
C1106 C1104 1.327 . S
C1106 C1125 1.429 . S
C1106 H1130 0.950 . S
C1107 C1124 1.574 . S
C1107 C1126 1.368 . S
C1107 H1131 0.949 . S
H1108 C1112 0.949 . S
C1109 C1110 1.349 . S
C1109 C1111 1.327 . S
C1109 H1132 0.950 . S
C1110 C1109 1.349 . S
C1110 C1122 1.349 . S
C1111 C1109 1.327 . S
C1111 C1127 1.429 . S
C1111 H1133 0.950 . S
C1112 H1108 0.949 . S
C1112 C1120 1.574 . S
C1112 C1128 1.368 . S
H1113 C1121 0.950 . S
H1114 C1119 0.950 . S
H1115 C1120 0.949 . S
H1116 C1122 0.950 . S
H1117 C1123 0.950 . S
H1118 C1124 0.949 . S
C1119 H1114 0.950 . S
C1119 C1121 1.327 . S
C1119 C1125 1.429 . S
C1120 C1112 1.574 . S
C1120 H1115 0.949 . S
C1120 C1126 1.368 . S
C1121 C1105 1.349 . S
C1121 H1113 0.950 . S
C1121 C1119 1.327 . S
C1122 C1110 1.349 . S
C1122 H1116 0.950 . S
C1122 C1123 1.327 . S
C1123 H1117 0.950 . S
C1123 C1122 1.327 . S
C1123 C1127 1.429 . S
C1124 C1107 1.574 . S
C1124 H1118 0.949 . S
C1124 C1128 1.368 . S
C1125 C1106 1.429 . S
C1125 C1119 1.429 . S
C1125 C1126 1.523 . S
C1126 C1107 1.368 . S
C1126 C1120 1.368 . S
C1126 C1125 1.523 . S
C1127 C1111 1.429 . S
C1127 C1123 1.429 . S
C1127 C1128 1.523 . S
C1128 C1112 1.368 . S
C1128 C1124 1.368 . S
C1128 C1127 1.523 . S
H1129 C1104 0.950 . S
H1130 C1106 0.950 . S
H1131 C1107 0.949 . S
H1132 C1109 0.950 . S
H1133 C1111 0.950 . S
C1134 C1135 1.349 . S
C1134 C1136 1.327 . S
C1134 H1159 0.950 . S
C1135 C1134 1.349 . S
C1135 C1151 1.349 . S
C1136 C1134 1.327 . S
C1136 C1155 1.429 . S
C1136 H1160 0.950 . S
C1137 C1154 1.574 . S
C1137 C1156 1.368 . S
C1137 H1161 0.949 . S
H1138 C1142 0.949 . S
C1139 C1140 1.349 . S
C1139 C1141 1.327 . S
C1139 H1162 0.950 . S
C1140 C1139 1.349 . S
C1140 C1152 1.349 . S
C1141 C1139 1.327 . S
C1141 C1157 1.429 . S
C1141 H1163 0.950 . S
C1142 H1138 0.949 . S
C1142 C1150 1.574 . S
C1142 C1158 1.368 . S
H1143 C1151 0.950 . S
H1144 C1149 0.950 . S
H1145 C1150 0.949 . S
H1146 C1152 0.950 . S
H1147 C1153 0.950 . S
H1148 C1154 0.949 . S
C1149 H1144 0.950 . S
C1149 C1151 1.327 . S
C1149 C1155 1.429 . S
C1150 C1142 1.574 . S
C1150 H1145 0.949 . S
C1150 C1156 1.368 . S
C1151 C1135 1.349 . S
C1151 H1143 0.950 . S
C1151 C1149 1.327 . S
C1152 C1140 1.349 . S
C1152 H1146 0.950 . S
C1152 C1153 1.327 . S
C1153 H1147 0.950 . S
C1153 C1152 1.327 . S
C1153 C1157 1.429 . S
C1154 C1137 1.574 . S
C1154 H1148 0.949 . S
C1154 C1158 1.368 . S
C1155 C1136 1.429 . S
C1155 C1149 1.429 . S
C1155 C1156 1.523 . S
C1156 C1137 1.368 . S
C1156 C1150 1.368 . S
C1156 C1155 1.523 . S
C1157 C1141 1.429 . S
C1157 C1153 1.429 . S
C1157 C1158 1.523 . S
C1158 C1142 1.368 . S
C1158 C1154 1.368 . S
C1158 C1157 1.523 . S
H1159 C1134 0.950 . S
H1160 C1136 0.950 . S
H1161 C1137 0.949 . S
H1162 C1139 0.950 . S
H1163 C1141 0.950 . S
C1164 C1165 1.349 . S
C1164 C1166 1.327 . S
C1164 H1189 0.950 . S
C1165 C1164 1.349 . S
C1165 C1181 1.349 . S
C1166 C1164 1.327 . S
C1166 C1185 1.429 . S
C1166 H1190 0.950 . S
C1167 C1184 1.574 . S
C1167 C1186 1.368 . S
C1167 H1191 0.949 . S
H1168 C1172 0.949 . S
C1169 C1170 1.349 . S
C1169 C1171 1.327 . S
C1169 H1192 0.950 . S
C1170 C1169 1.349 . S
C1170 C1182 1.349 . S
C1171 C1169 1.327 . S
C1171 C1187 1.429 . S
C1171 H1193 0.950 . S
C1172 H1168 0.949 . S
C1172 C1180 1.574 . S
C1172 C1188 1.368 . S
H1173 C1181 0.950 . S
H1174 C1179 0.950 . S
H1175 C1180 0.949 . S
H1176 C1182 0.950 . S
H1177 C1183 0.950 . S
H1178 C1184 0.949 . S
C1179 H1174 0.950 . S
C1179 C1181 1.327 . S
C1179 C1185 1.429 . S
C1180 C1172 1.574 . S
C1180 H1175 0.949 . S
C1180 C1186 1.368 . S
C1181 C1165 1.349 . S
C1181 H1173 0.950 . S
C1181 C1179 1.327 . S
C1182 C1170 1.349 . S
C1182 H1176 0.950 . S
C1182 C1183 1.327 . S
C1183 H1177 0.950 . S
C1183 C1182 1.327 . S
C1183 C1187 1.429 . S
C1184 C1167 1.574 . S
C1184 H1178 0.949 . S
C1184 C1188 1.368 . S
C1185 C1166 1.429 . S
C1185 C1179 1.429 . S
C1185 C1186 1.523 . S
C1186 C1167 1.368 . S
C1186 C1180 1.368 . S
C1186 C1185 1.523 . S
C1187 C1171 1.429 . S
C1187 C1183 1.429 . S
C1187 C1188 1.523 . S
C1188 C1172 1.368 . S
C1188 C1184 1.368 . S
C1188 C1187 1.523 . S
H1189 C1164 0.950 . S
H1190 C1166 0.950 . S
H1191 C1167 0.949 . S
H1192 C1169 0.950 . S
H1193 C1171 0.950 . S
C1194 C1195 1.349 . S
C1194 C1196 1.327 . S
C1194 H1219 0.950 . S
C1195 C1194 1.349 . S
C1195 C1211 1.349 . S
C1196 C1194 1.327 . S
C1196 C1215 1.429 . S
C1196 H1220 0.950 . S
C1197 C1214 1.574 . S
C1197 C1216 1.368 . S
C1197 H1221 0.949 . S
H1198 C1202 0.949 . S
C1199 C1200 1.349 . S
C1199 C1201 1.327 . S
C1199 H1222 0.950 . S
C1200 C1199 1.349 . S
C1200 C1212 1.349 . S
C1201 C1199 1.327 . S
C1201 C1217 1.429 . S
C1201 H1223 0.950 . S
C1202 H1198 0.949 . S
C1202 C1210 1.574 . S
C1202 C1218 1.368 . S
H1203 C1211 0.950 . S
H1204 C1209 0.950 . S
H1205 C1210 0.949 . S
H1206 C1212 0.950 . S
H1207 C1213 0.950 . S
H1208 C1214 0.949 . S
C1209 H1204 0.950 . S
C1209 C1211 1.327 . S
C1209 C1215 1.429 . S
C1210 C1202 1.574 . S
C1210 H1205 0.949 . S
C1210 C1216 1.368 . S
C1211 C1195 1.349 . S
C1211 H1203 0.950 . S
C1211 C1209 1.327 . S
C1212 C1200 1.349 . S
C1212 H1206 0.950 . S
C1212 C1213 1.327 . S
C1213 H1207 0.950 . S
C1213 C1212 1.327 . S
C1213 C1217 1.429 . S
C1214 C1197 1.574 . S
C1214 H1208 0.949 . S
C1214 C1218 1.368 . S
C1215 C1196 1.429 . S
C1215 C1209 1.429 . S
C1215 C1216 1.523 . S
C1216 C1197 1.368 . S
C1216 C1210 1.368 . S
C1216 C1215 1.523 . S
C1217 C1201 1.429 . S
C1217 C1213 1.429 . S
C1217 C1218 1.523 . S
C1218 C1202 1.368 . S
C1218 C1214 1.368 . S
C1218 C1217 1.523 . S
H1219 C1194 0.950 . S
H1220 C1196 0.950 . S
H1221 C1197 0.949 . S
H1222 C1199 0.950 . S
H1223 C1201 0.950 . S
C1224 C1225 1.349 . S
C1224 C1226 1.327 . S
C1224 H1249 0.950 . S
C1225 C1224 1.349 . S
C1225 C1241 1.349 . S
C1226 C1224 1.327 . S
C1226 C1245 1.429 . S
C1226 H1250 0.950 . S
C1227 C1244 1.574 . S
C1227 C1246 1.368 . S
C1227 H1251 0.949 . S
H1228 C1232 0.949 . S
C1229 C1230 1.349 . S
C1229 C1231 1.327 . S
C1229 H1252 0.950 . S
C1230 C1229 1.349 . S
C1230 C1242 1.349 . S
C1231 C1229 1.327 . S
C1231 C1247 1.429 . S
C1231 H1253 0.950 . S
C1232 H1228 0.949 . S
C1232 C1240 1.574 . S
C1232 C1248 1.368 . S
H1233 C1241 0.950 . S
H1234 C1239 0.950 . S
H1235 C1240 0.949 . S
H1236 C1242 0.950 . S
H1237 C1243 0.950 . S
H1238 C1244 0.949 . S
C1239 H1234 0.950 . S
C1239 C1241 1.327 . S
C1239 C1245 1.429 . S
C1240 C1232 1.574 . S
C1240 H1235 0.949 . S
C1240 C1246 1.368 . S
C1241 C1225 1.349 . S
C1241 H1233 0.950 . S
C1241 C1239 1.327 . S
C1242 C1230 1.349 . S
C1242 H1236 0.950 . S
C1242 C1243 1.327 . S
C1243 H1237 0.950 . S
C1243 C1242 1.327 . S
C1243 C1247 1.429 . S
C1244 C1227 1.574 . S
C1244 H1238 0.949 . S
C1244 C1248 1.368 . S
C1245 C1226 1.429 . S
C1245 C1239 1.429 . S
C1245 C1246 1.523 . S
C1246 C1227 1.368 . S
C1246 C1240 1.368 . S
C1246 C1245 1.523 . S
C1247 C1231 1.429 . S
C1247 C1243 1.429 . S
C1247 C1248 1.523 . S
C1248 C1232 1.368 . S
C1248 C1244 1.368 . S
C1248 C1247 1.523 . S
H1249 C1224 0.950 . S
H1250 C1226 0.950 . S
H1251 C1227 0.949 . S
H1252 C1229 0.950 . S
H1253 C1231 0.950 . S
C1254 C1255 1.349 . S
C1254 C1256 1.327 . S
C1254 H1279 0.950 . S
C1255 C1254 1.349 . S
C1255 C1271 1.349 . S
C1256 C1254 1.327 . S
C1256 C1275 1.429 . S
C1256 H1280 0.950 . S
C1257 C1274 1.574 . S
C1257 C1276 1.368 . S
C1257 H1281 0.949 . S
H1258 C1262 0.949 . S
C1259 C1260 1.349 . S
C1259 C1261 1.327 . S
C1259 H1282 0.950 . S
C1260 C1259 1.349 . S
C1260 C1272 1.349 . S
C1261 C1259 1.327 . S
C1261 C1277 1.429 . S
C1261 H1283 0.950 . S
C1262 H1258 0.949 . S
C1262 C1270 1.574 . S
C1262 C1278 1.368 . S
H1263 C1271 0.950 . S
H1264 C1269 0.950 . S
H1265 C1270 0.949 . S
H1266 C1272 0.950 . S
H1267 C1273 0.950 . S
H1268 C1274 0.949 . S
C1269 H1264 0.950 . S
C1269 C1271 1.327 . S
C1269 C1275 1.429 . S
C1270 C1262 1.574 . S
C1270 H1265 0.949 . S
C1270 C1276 1.368 . S
C1271 C1255 1.349 . S
C1271 H1263 0.950 . S
C1271 C1269 1.327 . S
C1272 C1260 1.349 . S
C1272 H1266 0.950 . S
C1272 C1273 1.327 . S
C1273 H1267 0.950 . S
C1273 C1272 1.327 . S
C1273 C1277 1.429 . S
C1274 C1257 1.574 . S
C1274 H1268 0.949 . S
C1274 C1278 1.368 . S
C1275 C1256 1.429 . S
C1275 C1269 1.429 . S
C1275 C1276 1.523 . S
C1276 C1257 1.368 . S
C1276 C1270 1.368 . S
C1276 C1275 1.523 . S
C1277 C1261 1.429 . S
C1277 C1273 1.429 . S
C1277 C1278 1.523 . S
C1278 C1262 1.368 . S
C1278 C1274 1.368 . S
C1278 C1277 1.523 . S
H1279 C1254 0.950 . S
H1280 C1256 0.950 . S
H1281 C1257 0.949 . S
H1282 C1259 0.950 . S
H1283 C1261 0.950 . S
C1284 C1285 1.349 . S
C1284 C1286 1.327 . S
C1284 H1309 0.950 . S
C1285 C1284 1.349 . S
C1285 C1301 1.349 . S
C1286 C1284 1.327 . S
C1286 C1305 1.429 . S
C1286 H1310 0.950 . S
C1287 C1304 1.574 . S
C1287 C1306 1.368 . S
C1287 H1311 0.949 . S
H1288 C1292 0.949 . S
C1289 C1290 1.349 . S
C1289 C1291 1.327 . S
C1289 H1312 0.950 . S
C1290 C1289 1.349 . S
C1290 C1302 1.349 . S
C1291 C1289 1.327 . S
C1291 C1307 1.429 . S
C1291 H1313 0.950 . S
C1292 H1288 0.949 . S
C1292 C1300 1.574 . S
C1292 C1308 1.368 . S
H1293 C1301 0.950 . S
H1294 C1299 0.950 . S
H1295 C1300 0.949 . S
H1296 C1302 0.950 . S
H1297 C1303 0.950 . S
H1298 C1304 0.949 . S
C1299 H1294 0.950 . S
C1299 C1301 1.327 . S
C1299 C1305 1.429 . S
C1300 C1292 1.574 . S
C1300 H1295 0.949 . S
C1300 C1306 1.368 . S
C1301 C1285 1.349 . S
C1301 H1293 0.950 . S
C1301 C1299 1.327 . S
C1302 C1290 1.349 . S
C1302 H1296 0.950 . S
C1302 C1303 1.327 . S
C1303 H1297 0.950 . S
C1303 C1302 1.327 . S
C1303 C1307 1.429 . S
C1304 C1287 1.574 . S
C1304 H1298 0.949 . S
C1304 C1308 1.368 . S
C1305 C1286 1.429 . S
C1305 C1299 1.429 . S
C1305 C1306 1.523 . S
C1306 C1287 1.368 . S
C1306 C1300 1.368 . S
C1306 C1305 1.523 . S
C1307 C1291 1.429 . S
C1307 C1303 1.429 . S
C1307 C1308 1.523 . S
C1308 C1292 1.368 . S
C1308 C1304 1.368 . S
C1308 C1307 1.523 . S
H1309 C1284 0.950 . S
H1310 C1286 0.950 . S
H1311 C1287 0.949 . S
H1312 C1289 0.950 . S
H1313 C1291 0.950 . S
C1314 C1315 1.349 . S
C1314 C1316 1.327 . S
C1314 H1339 0.950 . S
C1315 C1314 1.349 . S
C1315 C1331 1.349 . S
C1316 C1314 1.327 . S
C1316 C1335 1.429 . S
C1316 H1340 0.950 . S
C1317 C1334 1.574 . S
C1317 C1336 1.368 . S
C1317 H1341 0.949 . S
H1318 C1322 0.949 . S
C1319 C1320 1.349 . S
C1319 C1321 1.327 . S
C1319 H1342 0.950 . S
C1320 C1319 1.349 . S
C1320 C1332 1.349 . S
C1321 C1319 1.327 . S
C1321 C1337 1.429 . S
C1321 H1343 0.950 . S
C1322 H1318 0.949 . S
C1322 C1330 1.574 . S
C1322 C1338 1.368 . S
H1323 C1331 0.950 . S
H1324 C1329 0.950 . S
H1325 C1330 0.949 . S
H1326 C1332 0.950 . S
H1327 C1333 0.950 . S
H1328 C1334 0.949 . S
C1329 H1324 0.950 . S
C1329 C1331 1.327 . S
C1329 C1335 1.429 . S
C1330 C1322 1.574 . S
C1330 H1325 0.949 . S
C1330 C1336 1.368 . S
C1331 C1315 1.349 . S
C1331 H1323 0.950 . S
C1331 C1329 1.327 . S
C1332 C1320 1.349 . S
C1332 H1326 0.950 . S
C1332 C1333 1.327 . S
C1333 H1327 0.950 . S
C1333 C1332 1.327 . S
C1333 C1337 1.429 . S
C1334 C1317 1.574 . S
C1334 H1328 0.949 . S
C1334 C1338 1.368 . S
C1335 C1316 1.429 . S
C1335 C1329 1.429 . S
C1335 C1336 1.523 . S
C1336 C1317 1.368 . S
C1336 C1330 1.368 . S
C1336 C1335 1.523 . S
C1337 C1321 1.429 . S
C1337 C1333 1.429 . S
C1337 C1338 1.523 . S
C1338 C1322 1.368 . S
C1338 C1334 1.368 . S
C1338 C1337 1.523 . S
H1339 C1314 0.950 . S
H1340 C1316 0.950 . S
H1341 C1317 0.949 . S
H1342 C1319 0.950 . S
H1343 C1321 0.950 . S
C1344 C1345 1.349 . S
C1344 C1346 1.327 . S
C1344 H1369 0.950 . S
C1345 C1344 1.349 . S
C1345 C1361 1.349 . S
C1346 C1344 1.327 . S
C1346 C1365 1.429 . S
C1346 H1370 0.950 . S
C1347 C1364 1.574 . S
C1347 C1366 1.368 . S
C1347 H1371 0.949 . S
H1348 C1352 0.949 . S
C1349 C1350 1.349 . S
C1349 C1351 1.327 . S
C1349 H1372 0.950 . S
C1350 C1349 1.349 . S
C1350 C1362 1.349 . S
C1351 C1349 1.327 . S
C1351 C1367 1.429 . S
C1351 H1373 0.950 . S
C1352 H1348 0.949 . S
C1352 C1360 1.574 . S
C1352 C1368 1.368 . S
H1353 C1361 0.950 . S
H1354 C1359 0.950 . S
H1355 C1360 0.949 . S
H1356 C1362 0.950 . S
H1357 C1363 0.950 . S
H1358 C1364 0.949 . S
C1359 H1354 0.950 . S
C1359 C1361 1.327 . S
C1359 C1365 1.429 . S
C1360 C1352 1.574 . S
C1360 H1355 0.949 . S
C1360 C1366 1.368 . S
C1361 C1345 1.349 . S
C1361 H1353 0.950 . S
C1361 C1359 1.327 . S
C1362 C1350 1.349 . S
C1362 H1356 0.950 . S
C1362 C1363 1.327 . S
C1363 H1357 0.950 . S
C1363 C1362 1.327 . S
C1363 C1367 1.429 . S
C1364 C1347 1.574 . S
C1364 H1358 0.949 . S
C1364 C1368 1.368 . S
C1365 C1346 1.429 . S
C1365 C1359 1.429 . S
C1365 C1366 1.523 . S
C1366 C1347 1.368 . S
C1366 C1360 1.368 . S
C1366 C1365 1.523 . S
C1367 C1351 1.429 . S
C1367 C1363 1.429 . S
C1367 C1368 1.523 . S
C1368 C1352 1.368 . S
C1368 C1364 1.368 . S
C1368 C1367 1.523 . S
H1369 C1344 0.950 . S
H1370 C1346 0.950 . S
H1371 C1347 0.949 . S
H1372 C1349 0.950 . S
H1373 C1351 0.950 . S
C1374 C1375 1.349 . S
C1374 C1376 1.327 . S
C1374 H1399 0.950 . S
C1375 C1374 1.349 . S
C1375 C1391 1.349 . S
C1376 C1374 1.327 . S
C1376 C1395 1.429 . S
C1376 H1400 0.950 . S
C1377 C1394 1.574 . S
C1377 C1396 1.368 . S
C1377 H1401 0.949 . S
H1378 C1382 0.949 . S
C1379 C1380 1.349 . S
C1379 C1381 1.327 . S
C1379 H1402 0.950 . S
C1380 C1379 1.349 . S
C1380 C1392 1.349 . S
C1381 C1379 1.327 . S
C1381 C1397 1.429 . S
C1381 H1403 0.950 . S
C1382 H1378 0.949 . S
C1382 C1390 1.574 . S
C1382 C1398 1.368 . S
H1383 C1391 0.950 . S
H1384 C1389 0.950 . S
H1385 C1390 0.949 . S
H1386 C1392 0.950 . S
H1387 C1393 0.950 . S
H1388 C1394 0.949 . S
C1389 H1384 0.950 . S
C1389 C1391 1.327 . S
C1389 C1395 1.429 . S
C1390 C1382 1.574 . S
C1390 H1385 0.949 . S
C1390 C1396 1.368 . S
C1391 C1375 1.349 . S
C1391 H1383 0.950 . S
C1391 C1389 1.327 . S
C1392 C1380 1.349 . S
C1392 H1386 0.950 . S
C1392 C1393 1.327 . S
C1393 H1387 0.950 . S
C1393 C1392 1.327 . S
C1393 C1397 1.429 . S
C1394 C1377 1.574 . S
C1394 H1388 0.949 . S
C1394 C1398 1.368 . S
C1395 C1376 1.429 . S
C1395 C1389 1.429 . S
C1395 C1396 1.523 . S
C1396 C1377 1.368 . S
C1396 C1390 1.368 . S
C1396 C1395 1.523 . S
C1397 C1381 1.429 . S
C1397 C1393 1.429 . S
C1397 C1398 1.523 . S
C1398 C1382 1.368 . S
C1398 C1394 1.368 . S
C1398 C1397 1.523 . S
H1399 C1374 0.950 . S
H1400 C1376 0.950 . S
H1401 C1377 0.949 . S
H1402 C1379 0.950 . S
H1403 C1381 0.950 . S
C1404 C1405 1.349 . S
C1404 C1406 1.327 . S
C1404 H1429 0.950 . S
C1405 C1404 1.349 . S
C1405 C1421 1.349 . S
C1406 C1404 1.327 . S
C1406 C1425 1.429 . S
C1406 H1430 0.950 . S
C1407 C1424 1.574 . S
C1407 C1426 1.368 . S
C1407 H1431 0.949 . S
H1408 C1412 0.949 . S
C1409 C1410 1.349 . S
C1409 C1411 1.327 . S
C1409 H1432 0.950 . S
C1410 C1409 1.349 . S
C1410 C1422 1.349 . S
C1411 C1409 1.327 . S
C1411 C1427 1.429 . S
C1411 H1433 0.950 . S
C1412 H1408 0.949 . S
C1412 C1420 1.574 . S
C1412 C1428 1.368 . S
H1413 C1421 0.950 . S
H1414 C1419 0.950 . S
H1415 C1420 0.949 . S
H1416 C1422 0.950 . S
H1417 C1423 0.950 . S
H1418 C1424 0.949 . S
C1419 H1414 0.950 . S
C1419 C1421 1.327 . S
C1419 C1425 1.429 . S
C1420 C1412 1.574 . S
C1420 H1415 0.949 . S
C1420 C1426 1.368 . S
C1421 C1405 1.349 . S
C1421 H1413 0.950 . S
C1421 C1419 1.327 . S
C1422 C1410 1.349 . S
C1422 H1416 0.950 . S
C1422 C1423 1.327 . S
C1423 H1417 0.950 . S
C1423 C1422 1.327 . S
C1423 C1427 1.429 . S
C1424 C1407 1.574 . S
C1424 H1418 0.949 . S
C1424 C1428 1.368 . S
C1425 C1406 1.429 . S
C1425 C1419 1.429 . S
C1425 C1426 1.523 . S
C1426 C1407 1.368 . S
C1426 C1420 1.368 . S
C1426 C1425 1.523 . S
C1427 C1411 1.429 . S
C1427 C1423 1.429 . S
C1427 C1428 1.523 . S
C1428 C1412 1.368 . S
C1428 C1424 1.368 . S
C1428 C1427 1.523 . S
H1429 C1404 0.950 . S
H1430 C1406 0.950 . S
H1431 C1407 0.949 . S
H1432 C1409 0.950 . S
H1433 C1411 0.950 . S
C1434 C1435 1.349 . S
C1434 C1436 1.327 . S
C1434 H1459 0.950 . S
C1435 C1434 1.349 . S
C1435 C1451 1.349 . S
C1436 C1434 1.327 . S
C1436 C1455 1.429 . S
C1436 H1460 0.950 . S
C1437 C1454 1.574 . S
C1437 C1456 1.368 . S
C1437 H1461 0.949 . S
H1438 C1442 0.949 . S
C1439 C1440 1.349 . S
C1439 C1441 1.327 . S
C1439 H1462 0.950 . S
C1440 C1439 1.349 . S
C1440 C1452 1.349 . S
C1441 C1439 1.327 . S
C1441 C1457 1.429 . S
C1441 H1463 0.950 . S
C1442 H1438 0.949 . S
C1442 C1450 1.574 . S
C1442 C1458 1.368 . S
H1443 C1451 0.950 . S
H1444 C1449 0.950 . S
H1445 C1450 0.949 . S
H1446 C1452 0.950 . S
H1447 C1453 0.950 . S
H1448 C1454 0.949 . S
C1449 H1444 0.950 . S
C1449 C1451 1.327 . S
C1449 C1455 1.429 . S
C1450 C1442 1.574 . S
C1450 H1445 0.949 . S
C1450 C1456 1.368 . S
C1451 C1435 1.349 . S
C1451 H1443 0.950 . S
C1451 C1449 1.327 . S
C1452 C1440 1.349 . S
C1452 H1446 0.950 . S
C1452 C1453 1.327 . S
C1453 H1447 0.950 . S
C1453 C1452 1.327 . S
C1453 C1457 1.429 . S
C1454 C1437 1.574 . S
C1454 H1448 0.949 . S
C1454 C1458 1.368 . S
C1455 C1436 1.429 . S
C1455 C1449 1.429 . S
C1455 C1456 1.523 . S
C1456 C1437 1.368 . S
C1456 C1450 1.368 . S
C1456 C1455 1.523 . S
C1457 C1441 1.429 . S
C1457 C1453 1.429 . S
C1457 C1458 1.523 . S
C1458 C1442 1.368 . S
C1458 C1454 1.368 . S
C1458 C1457 1.523 . S
H1459 C1434 0.950 . S
H1460 C1436 0.950 . S
H1461 C1437 0.949 . S
H1462 C1439 0.950 . S
H1463 C1441 0.950 . S
C1464 C1465 1.349 . S
C1464 C1466 1.327 . S
C1464 H1489 0.950 . S
C1465 C1464 1.349 . S
C1465 C1481 1.349 . S
C1466 C1464 1.327 . S
C1466 C1485 1.429 . S
C1466 H1490 0.950 . S
C1467 C1484 1.574 . S
C1467 C1486 1.368 . S
C1467 H1491 0.949 . S
H1468 C1472 0.949 . S
C1469 C1470 1.349 . S
C1469 C1471 1.327 . S
C1469 H1492 0.950 . S
C1470 C1469 1.349 . S
C1470 C1482 1.349 . S
C1471 C1469 1.327 . S
C1471 C1487 1.429 . S
C1471 H1493 0.950 . S
C1472 H1468 0.949 . S
C1472 C1480 1.574 . S
C1472 C1488 1.368 . S
H1473 C1481 0.950 . S
H1474 C1479 0.950 . S
H1475 C1480 0.949 . S
H1476 C1482 0.950 . S
H1477 C1483 0.950 . S
H1478 C1484 0.949 . S
C1479 H1474 0.950 . S
C1479 C1481 1.327 . S
C1479 C1485 1.429 . S
C1480 C1472 1.574 . S
C1480 H1475 0.949 . S
C1480 C1486 1.368 . S
C1481 C1465 1.349 . S
C1481 H1473 0.950 . S
C1481 C1479 1.327 . S
C1482 C1470 1.349 . S
C1482 H1476 0.950 . S
C1482 C1483 1.327 . S
C1483 H1477 0.950 . S
C1483 C1482 1.327 . S
C1483 C1487 1.429 . S
C1484 C1467 1.574 . S
C1484 H1478 0.949 . S
C1484 C1488 1.368 . S
C1485 C1466 1.429 . S
C1485 C1479 1.429 . S
C1485 C1486 1.523 . S
C1486 C1467 1.368 . S
C1486 C1480 1.368 . S
C1486 C1485 1.523 . S
C1487 C1471 1.429 . S
C1487 C1483 1.429 . S
C1487 C1488 1.523 . S
C1488 C1472 1.368 . S
C1488 C1484 1.368 . S
C1488 C1487 1.523 . S
H1489 C1464 0.950 . S
H1490 C1466 0.950 . S
H1491 C1467 0.949 . S
H1492 C1469 0.950 . S
H1493 C1471 0.950 . S
C1494 C1495 1.349 . S
C1494 C1496 1.327 . S
C1494 H1519 0.950 . S
C1495 C1494 1.349 . S
C1495 C1511 1.349 . S
C1496 C1494 1.327 . S
C1496 C1515 1.429 . S
C1496 H1520 0.950 . S
C1497 C1514 1.574 . S
C1497 C1516 1.368 . S
C1497 H1521 0.949 . S
H1498 C1502 0.949 . S
C1499 C1500 1.349 . S
C1499 C1501 1.327 . S
C1499 H1522 0.950 . S
C1500 C1499 1.349 . S
C1500 C1512 1.349 . S
C1501 C1499 1.327 . S
C1501 C1517 1.429 . S
C1501 H1523 0.950 . S
C1502 H1498 0.949 . S
C1502 C1510 1.574 . S
C1502 C1518 1.368 . S
H1503 C1511 0.950 . S
H1504 C1509 0.950 . S
H1505 C1510 0.949 . S
H1506 C1512 0.950 . S
H1507 C1513 0.950 . S
H1508 C1514 0.949 . S
C1509 H1504 0.950 . S
C1509 C1511 1.327 . S
C1509 C1515 1.429 . S
C1510 C1502 1.574 . S
C1510 H1505 0.949 . S
C1510 C1516 1.368 . S
C1511 C1495 1.349 . S
C1511 H1503 0.950 . S
C1511 C1509 1.327 . S
C1512 C1500 1.349 . S
C1512 H1506 0.950 . S
C1512 C1513 1.327 . S
C1513 H1507 0.950 . S
C1513 C1512 1.327 . S
C1513 C1517 1.429 . S
C1514 C1497 1.574 . S
C1514 H1508 0.949 . S
C1514 C1518 1.368 . S
C1515 C1496 1.429 . S
C1515 C1509 1.429 . S
C1515 C1516 1.523 . S
C1516 C1497 1.368 . S
C1516 C1510 1.368 . S
C1516 C1515 1.523 . S
C1517 C1501 1.429 . S
C1517 C1513 1.429 . S
C1517 C1518 1.523 . S
C1518 C1502 1.368 . S
C1518 C1514 1.368 . S
C1518 C1517 1.523 . S
H1519 C1494 0.950 . S
H1520 C1496 0.950 . S
H1521 C1497 0.949 . S
H1522 C1499 0.950 . S
H1523 C1501 0.950 . S
C1524 C1525 1.349 . S
C1524 C1526 1.327 . S
C1524 H1549 0.950 . S
C1525 C1524 1.349 . S
C1525 C1541 1.349 . S
C1526 C1524 1.327 . S
C1526 C1545 1.429 . S
C1526 H1550 0.950 . S
C1527 C1544 1.574 . S
C1527 C1546 1.368 . S
C1527 H1551 0.949 . S
H1528 C1532 0.949 . S
C1529 C1530 1.349 . S
C1529 C1531 1.327 . S
C1529 H1552 0.950 . S
C1530 C1529 1.349 . S
C1530 C1542 1.349 . S
C1531 C1529 1.327 . S
C1531 C1547 1.429 . S
C1531 H1553 0.950 . S
C1532 H1528 0.949 . S
C1532 C1540 1.574 . S
C1532 C1548 1.368 . S
H1533 C1541 0.950 . S
H1534 C1539 0.950 . S
H1535 C1540 0.949 . S
H1536 C1542 0.950 . S
H1537 C1543 0.950 . S
H1538 C1544 0.949 . S
C1539 H1534 0.950 . S
C1539 C1541 1.327 . S
C1539 C1545 1.429 . S
C1540 C1532 1.574 . S
C1540 H1535 0.949 . S
C1540 C1546 1.368 . S
C1541 C1525 1.349 . S
C1541 H1533 0.950 . S
C1541 C1539 1.327 . S
C1542 C1530 1.349 . S
C1542 H1536 0.950 . S
C1542 C1543 1.327 . S
C1543 H1537 0.950 . S
C1543 C1542 1.327 . S
C1543 C1547 1.429 . S
C1544 C1527 1.574 . S
C1544 H1538 0.949 . S
C1544 C1548 1.368 . S
C1545 C1526 1.429 . S
C1545 C1539 1.429 . S
C1545 C1546 1.523 . S
C1546 C1527 1.368 . S
C1546 C1540 1.368 . S
C1546 C1545 1.523 . S
C1547 C1531 1.429 . S
C1547 C1543 1.429 . S
C1547 C1548 1.523 . S
C1548 C1532 1.368 . S
C1548 C1544 1.368 . S
C1548 C1547 1.523 . S
H1549 C1524 0.950 . S
H1550 C1526 0.950 . S
H1551 C1527 0.949 . S
H1552 C1529 0.950 . S
H1553 C1531 0.950 . S
C1554 C1555 1.349 . S
C1554 C1556 1.327 . S
C1554 H1579 0.950 . S
C1555 C1554 1.349 . S
C1555 C1571 1.349 . S
C1556 C1554 1.327 . S
C1556 C1575 1.429 . S
C1556 H1580 0.950 . S
C1557 C1574 1.574 . S
C1557 C1576 1.368 . S
C1557 H1581 0.949 . S
H1558 C1562 0.949 . S
C1559 C1560 1.349 . S
C1559 C1561 1.327 . S
C1559 H1582 0.950 . S
C1560 C1559 1.349 . S
C1560 C1572 1.349 . S
C1561 C1559 1.327 . S
C1561 C1577 1.429 . S
C1561 H1583 0.950 . S
C1562 H1558 0.949 . S
C1562 C1570 1.574 . S
C1562 C1578 1.368 . S
H1563 C1571 0.950 . S
H1564 C1569 0.950 . S
H1565 C1570 0.949 . S
H1566 C1572 0.950 . S
H1567 C1573 0.950 . S
H1568 C1574 0.949 . S
C1569 H1564 0.950 . S
C1569 C1571 1.327 . S
C1569 C1575 1.429 . S
C1570 C1562 1.574 . S
C1570 H1565 0.949 . S
C1570 C1576 1.368 . S
C1571 C1555 1.349 . S
C1571 H1563 0.950 . S
C1571 C1569 1.327 . S
C1572 C1560 1.349 . S
C1572 H1566 0.950 . S
C1572 C1573 1.327 . S
C1573 H1567 0.950 . S
C1573 C1572 1.327 . S
C1573 C1577 1.429 . S
C1574 C1557 1.574 . S
C1574 H1568 0.949 . S
C1574 C1578 1.368 . S
C1575 C1556 1.429 . S
C1575 C1569 1.429 . S
C1575 C1576 1.523 . S
C1576 C1557 1.368 . S
C1576 C1570 1.368 . S
C1576 C1575 1.523 . S
C1577 C1561 1.429 . S
C1577 C1573 1.429 . S
C1577 C1578 1.523 . S
C1578 C1562 1.368 . S
C1578 C1574 1.368 . S
C1578 C1577 1.523 . S
H1579 C1554 0.950 . S
H1580 C1556 0.950 . S
H1581 C1557 0.949 . S
H1582 C1559 0.950 . S
H1583 C1561 0.950 . S
C1584 C1585 1.349 . S
C1584 C1586 1.327 . S
C1584 H1609 0.950 . S
C1585 C1584 1.349 . S
C1585 C1601 1.349 . S
C1586 C1584 1.327 . S
C1586 C1605 1.429 . S
C1586 H1610 0.950 . S
C1587 C1604 1.574 . S
C1587 C1606 1.368 . S
C1587 H1611 0.949 . S
H1588 C1592 0.949 . S
C1589 C1590 1.349 . S
C1589 C1591 1.327 . S
C1589 H1612 0.950 . S
C1590 C1589 1.349 . S
C1590 C1602 1.349 . S
C1591 C1589 1.327 . S
C1591 C1607 1.429 . S
C1591 H1613 0.950 . S
C1592 H1588 0.949 . S
C1592 C1600 1.574 . S
C1592 C1608 1.368 . S
H1593 C1601 0.950 . S
H1594 C1599 0.950 . S
H1595 C1600 0.949 . S
H1596 C1602 0.950 . S
H1597 C1603 0.950 . S
H1598 C1604 0.949 . S
C1599 H1594 0.950 . S
C1599 C1601 1.327 . S
C1599 C1605 1.429 . S
C1600 C1592 1.574 . S
C1600 H1595 0.949 . S
C1600 C1606 1.368 . S
C1601 C1585 1.349 . S
C1601 H1593 0.950 . S
C1601 C1599 1.327 . S
C1602 C1590 1.349 . S
C1602 H1596 0.950 . S
C1602 C1603 1.327 . S
C1603 H1597 0.950 . S
C1603 C1602 1.327 . S
C1603 C1607 1.429 . S
C1604 C1587 1.574 . S
C1604 H1598 0.949 . S
C1604 C1608 1.368 . S
C1605 C1586 1.429 . S
C1605 C1599 1.429 . S
C1605 C1606 1.523 . S
C1606 C1587 1.368 . S
C1606 C1600 1.368 . S
C1606 C1605 1.523 . S
C1607 C1591 1.429 . S
C1607 C1603 1.429 . S
C1607 C1608 1.523 . S
C1608 C1592 1.368 . S
C1608 C1604 1.368 . S
C1608 C1607 1.523 . S
H1609 C1584 0.950 . S
H1610 C1586 0.950 . S
H1611 C1587 0.949 . S
H1612 C1589 0.950 . S
H1613 C1591 0.950 . S
C1614 C1615 1.349 . S
C1614 C1616 1.327 . S
C1614 H1639 0.950 . S
C1615 C1614 1.349 . S
C1615 C1631 1.349 . S
C1616 C1614 1.327 . S
C1616 C1635 1.429 . S
C1616 H1640 0.950 . S
C1617 C1634 1.574 1_565 S
C1617 C1636 1.368 . S
C1617 H1641 0.949 . S
H1618 C1622 0.949 . S
C1619 C1620 1.349 . S
C1619 C1621 1.327 . S
C1619 H1642 0.950 . S
C1620 C1619 1.349 . S
C1620 C1632 1.349 . S
C1621 C1619 1.327 . S
C1621 C1637 1.429 . S
C1621 H1643 0.950 . S
C1622 H1618 0.949 . S
C1622 C1630 1.574 1_545 S
C1622 C1638 1.368 . S
H1623 C1631 0.950 . S
H1624 C1629 0.950 . S
H1625 C1630 0.949 . S
H1626 C1632 0.950 . S
H1627 C1633 0.950 . S
H1628 C1634 0.949 . S
C1629 H1624 0.950 . S
C1629 C1631 1.327 . S
C1629 C1635 1.429 . S
C1630 C1622 1.574 1_565 S
C1630 H1625 0.949 . S
C1630 C1636 1.368 . S
C1631 C1615 1.349 . S
C1631 H1623 0.950 . S
C1631 C1629 1.327 . S
C1632 C1620 1.349 . S
C1632 H1626 0.950 . S
C1632 C1633 1.327 . S
C1633 H1627 0.950 . S
C1633 C1632 1.327 . S
C1633 C1637 1.429 . S
C1634 C1617 1.574 1_545 S
C1634 H1628 0.949 . S
C1634 C1638 1.368 . S
C1635 C1616 1.429 . S
C1635 C1629 1.429 . S
C1635 C1636 1.523 . S
C1636 C1617 1.368 . S
C1636 C1630 1.368 . S
C1636 C1635 1.523 . S
C1637 C1621 1.429 . S
C1637 C1633 1.429 . S
C1637 C1638 1.523 . S
C1638 C1622 1.368 . S
C1638 C1634 1.368 . S
C1638 C1637 1.523 . S
H1639 C1614 0.950 . S
H1640 C1616 0.950 . S
H1641 C1617 0.949 . S
H1642 C1619 0.950 . S
H1643 C1621 0.950 . S
C1644 C1645 1.349 . S
C1644 C1646 1.327 . S
C1644 H1669 0.950 . S
C1645 C1644 1.349 . S
C1645 C1661 1.349 . S
C1646 C1644 1.327 . S
C1646 C1665 1.429 . S
C1646 H1670 0.950 . S
C1647 C1664 1.574 1_655 S
C1647 C1666 1.368 . S
C1647 H1671 0.949 . S
H1648 C1652 0.949 . S
C1649 C1650 1.349 . S
C1649 C1651 1.327 . S
C1649 H1672 0.950 . S
C1650 C1649 1.349 . S
C1650 C1662 1.349 . S
C1651 C1649 1.327 . S
C1651 C1667 1.429 . S
C1651 H1673 0.950 . S
C1652 H1648 0.949 . S
C1652 C1660 1.574 1_455 S
C1652 C1668 1.368 . S
H1653 C1661 0.950 . S
H1654 C1659 0.950 . S
H1655 C1660 0.949 . S
H1656 C1662 0.950 . S
H1657 C1663 0.950 . S
H1658 C1664 0.949 . S
C1659 H1654 0.950 . S
C1659 C1661 1.327 . S
C1659 C1665 1.429 . S
C1660 C1652 1.574 1_655 S
C1660 H1655 0.949 . S
C1660 C1666 1.368 . S
C1661 C1645 1.349 . S
C1661 H1653 0.950 . S
C1661 C1659 1.327 . S
C1662 C1650 1.349 . S
C1662 H1656 0.950 . S
C1662 C1663 1.327 . S
C1663 H1657 0.950 . S
C1663 C1662 1.327 . S
C1663 C1667 1.429 . S
C1664 C1647 1.574 1_455 S
C1664 H1658 0.949 . S
C1664 C1668 1.368 . S
C1665 C1646 1.429 . S
C1665 C1659 1.429 . S
C1665 C1666 1.523 . S
C1666 C1647 1.368 . S
C1666 C1660 1.368 . S
C1666 C1665 1.523 . S
C1667 C1651 1.429 . S
C1667 C1663 1.429 . S
C1667 C1668 1.523 . S
C1668 C1652 1.368 . S
C1668 C1664 1.368 . S
C1668 C1667 1.523 . S
H1669 C1644 0.950 . S
H1670 C1646 0.950 . S
H1671 C1647 0.949 . S
H1672 C1649 0.950 . S
H1673 C1651 0.950 . S
C1674 C1675 1.349 . S
C1674 C1676 1.327 . S
C1674 H1699 0.950 . S
C1675 C1674 1.349 . S
C1675 C1691 1.349 . S
C1676 C1674 1.327 . S
C1676 C1695 1.429 . S
C1676 H1700 0.950 . S
C1677 C1694 1.574 . S
C1677 C1696 1.368 . S
C1677 H1701 0.949 . S
H1678 C1682 0.949 . S
C1679 C1680 1.349 . S
C1679 C1681 1.327 . S
C1679 H1702 0.950 . S
C1680 C1679 1.349 . S
C1680 C1692 1.349 . S
C1681 C1679 1.327 . S
C1681 C1697 1.429 . S
C1681 H1703 0.950 . S
C1682 H1678 0.949 . S
C1682 C1690 1.574 . S
C1682 C1698 1.368 . S
H1683 C1691 0.950 . S
H1684 C1689 0.950 . S
H1685 C1690 0.949 . S
H1686 C1692 0.950 . S
H1687 C1693 0.950 . S
H1688 C1694 0.949 . S
C1689 H1684 0.950 . S
C1689 C1691 1.327 . S
C1689 C1695 1.429 . S
C1690 C1682 1.574 . S
C1690 H1685 0.949 . S
C1690 C1696 1.368 . S
C1691 C1675 1.349 . S
C1691 H1683 0.950 . S
C1691 C1689 1.327 . S
C1692 C1680 1.349 . S
C1692 H1686 0.950 . S
C1692 C1693 1.327 . S
C1693 H1687 0.950 . S
C1693 C1692 1.327 . S
C1693 C1697 1.429 . S
C1694 C1677 1.574 . S
C1694 H1688 0.949 . S
C1694 C1698 1.368 . S
C1695 C1676 1.429 . S
C1695 C1689 1.429 . S
C1695 C1696 1.523 . S
C1696 C1677 1.368 . S
C1696 C1690 1.368 . S
C1696 C1695 1.523 . S
C1697 C1681 1.429 . S
C1697 C1693 1.429 . S
C1697 C1698 1.523 . S
C1698 C1682 1.368 . S
C1698 C1694 1.368 . S
C1698 C1697 1.523 . S
H1699 C1674 0.950 . S
H1700 C1676 0.950 . S
H1701 C1677 0.949 . S
H1702 C1679 0.950 . S
H1703 C1681 0.950 . S
C1704 C1705 1.349 . S
C1704 C1706 1.327 . S
C1704 H1729 0.950 . S
C1705 C1704 1.349 . S
C1705 C1721 1.349 . S
C1706 C1704 1.327 . S
C1706 C1725 1.429 . S
C1706 H1730 0.950 . S
C1707 C1724 1.574 . S
C1707 C1726 1.368 . S
C1707 H1731 0.949 . S
H1708 C1712 0.949 . S
C1709 C1710 1.349 . S
C1709 C1711 1.327 . S
C1709 H1732 0.950 . S
C1710 C1709 1.349 . S
C1710 C1722 1.349 . S
C1711 C1709 1.327 . S
C1711 C1727 1.429 . S
C1711 H1733 0.950 . S
C1712 H1708 0.949 . S
C1712 C1720 1.574 . S
C1712 C1728 1.368 . S
H1713 C1721 0.950 . S
H1714 C1719 0.950 . S
H1715 C1720 0.949 . S
H1716 C1722 0.950 . S
H1717 C1723 0.950 . S
H1718 C1724 0.949 . S
C1719 H1714 0.950 . S
C1719 C1721 1.327 . S
C1719 C1725 1.429 . S
C1720 C1712 1.574 . S
C1720 H1715 0.949 . S
C1720 C1726 1.368 1_565 S
C1721 C1705 1.349 . S
C1721 H1713 0.950 . S
C1721 C1719 1.327 . S
C1722 C1710 1.349 . S
C1722 H1716 0.950 . S
C1722 C1723 1.327 . S
C1723 H1717 0.950 . S
C1723 C1722 1.327 . S
C1723 C1727 1.429 . S
C1724 C1707 1.574 . S
C1724 H1718 0.949 . S
C1724 C1728 1.368 1_545 S
C1725 C1706 1.429 . S
C1725 C1719 1.429 . S
C1725 C1726 1.523 . S
C1726 C1707 1.368 . S
C1726 C1720 1.368 1_545 S
C1726 C1725 1.523 . S
C1727 C1711 1.429 . S
C1727 C1723 1.429 . S
C1727 C1728 1.523 . S
C1728 C1712 1.368 . S
C1728 C1724 1.368 1_565 S
C1728 C1727 1.523 . S
H1729 C1704 0.950 . S
H1730 C1706 0.950 . S
H1731 C1707 0.949 . S
H1732 C1709 0.950 . S
H1733 C1711 0.950 . S
C1734 C1735 1.349 . S
C1734 C1736 1.327 . S
C1734 H1759 0.950 . S
C1735 C1734 1.349 . S
C1735 C1751 1.349 . S
C1736 C1734 1.327 . S
C1736 C1755 1.429 . S
C1736 H1760 0.950 . S
C1737 C1754 1.543 1_655 S
C1737 C1756 1.420 . S
C1737 H1761 0.932 . S
H1738 C1742 0.932 . S
C1739 C1740 1.349 . S
C1739 C1741 1.327 . S
C1739 H1762 0.950 . S
C1740 C1739 1.349 . S
C1740 C1752 1.349 . S
C1741 C1739 1.327 . S
C1741 C1757 1.429 . S
C1741 H1763 0.950 . S
C1742 H1738 0.932 . S
C1742 C1750 1.543 1_455 S
C1742 C1758 1.421 . S
H1743 C1751 0.950 . S
H1744 C1749 0.950 . S
H1745 C1750 0.949 . S
H1746 C1752 0.950 . S
H1747 C1753 0.950 . S
H1748 C1754 0.949 . S
C1749 H1744 0.950 . S
C1749 C1751 1.327 . S
C1749 C1755 1.429 . S
C1750 C1742 1.543 1_655 S
C1750 H1745 0.949 . S
C1750 C1756 1.368 . S
C1751 C1735 1.349 . S
C1751 H1743 0.950 . S
C1751 C1749 1.327 . S
C1752 C1740 1.349 . S
C1752 H1746 0.950 . S
C1752 C1753 1.327 . S
C1753 H1747 0.950 . S
C1753 C1752 1.327 . S
C1753 C1757 1.429 . S
C1754 C1737 1.543 1_455 S
C1754 H1748 0.949 . S
C1754 C1758 1.368 . S
C1755 C1736 1.429 . S
C1755 C1749 1.429 . S
C1755 C1756 1.523 . S
C1756 C1737 1.420 . S
C1756 C1750 1.368 . S
C1756 C1755 1.523 . S
C1757 C1741 1.429 . S
C1757 C1753 1.429 . S
C1757 C1758 1.523 . S
C1758 C1742 1.421 . S
C1758 C1754 1.368 . S
C1758 C1757 1.523 . S
H1759 C1734 0.950 . S
H1760 C1736 0.950 . S
H1761 C1737 0.932 . S
H1762 C1739 0.950 . S
H1763 C1741 0.950 . S
C1764 C1765 1.349 . S
C1764 C1766 1.327 . S
C1764 H1789 0.950 . S
C1765 C1764 1.349 . S
C1765 C1781 1.349 . S
C1766 C1764 1.327 . S
C1766 C1785 1.429 . S
C1766 H1790 0.950 . S
C1767 C1784 1.574 . S
C1767 C1786 1.368 . S
C1767 H1791 0.949 . S
H1768 C1772 0.949 . S
C1769 C1770 1.349 . S
C1769 C1771 1.327 . S
C1769 H1792 0.950 . S
C1770 C1769 1.349 . S
C1770 C1782 1.349 . S
C1771 C1769 1.327 . S
C1771 C1787 1.429 . S
C1771 H1793 0.950 . S
C1772 H1768 0.949 . S
C1772 C1780 1.574 . S
C1772 C1788 1.368 . S
H1773 C1781 0.950 . S
H1774 C1779 0.950 . S
H1775 C1780 0.949 . S
H1776 C1782 0.950 . S
H1777 C1783 0.950 . S
H1778 C1784 0.949 . S
C1779 H1774 0.950 . S
C1779 C1781 1.327 . S
C1779 C1785 1.429 . S
C1780 C1772 1.574 . S
C1780 H1775 0.949 . S
C1780 C1786 1.368 . S
C1781 C1765 1.349 . S
C1781 H1773 0.950 . S
C1781 C1779 1.327 . S
C1782 C1770 1.349 . S
C1782 H1776 0.950 . S
C1782 C1783 1.327 . S
C1783 H1777 0.950 . S
C1783 C1782 1.327 . S
C1783 C1787 1.429 . S
C1784 C1767 1.574 . S
C1784 H1778 0.949 . S
C1784 C1788 1.368 . S
C1785 C1766 1.429 . S
C1785 C1779 1.429 . S
C1785 C1786 1.523 . S
C1786 C1767 1.368 . S
C1786 C1780 1.368 . S
C1786 C1785 1.523 . S
C1787 C1771 1.429 . S
C1787 C1783 1.429 . S
C1787 C1788 1.523 . S
C1788 C1772 1.368 . S
C1788 C1784 1.368 . S
C1788 C1787 1.523 . S
H1789 C1764 0.950 . S
H1790 C1766 0.950 . S
H1791 C1767 0.949 . S
H1792 C1769 0.950 . S
H1793 C1771 0.950 . S
C1794 C1795 1.349 . S
C1794 C1796 1.327 . S
C1794 H1819 0.950 . S
C1795 C1794 1.349 . S
C1795 C1811 1.349 . S
C1796 C1794 1.327 . S
C1796 C1815 1.429 . S
C1796 H1820 0.950 . S
C1797 C1814 1.574 . S
C1797 C1816 1.368 . S
C1797 H1821 0.949 . S
H1798 C1802 0.949 . S
C1799 C1800 1.349 . S
C1799 C1801 1.327 . S
C1799 H1822 0.950 . S
C1800 C1799 1.349 . S
C1800 C1812 1.349 . S
C1801 C1799 1.327 . S
C1801 C1817 1.429 . S
C1801 H1823 0.950 . S
C1802 H1798 0.949 . S
C1802 C1810 1.574 . S
C1802 C1818 1.368 . S
H1803 C1811 0.950 . S
H1804 C1809 0.950 . S
H1805 C1810 0.949 . S
H1806 C1812 0.950 . S
H1807 C1813 0.950 . S
H1808 C1814 0.949 . S
C1809 H1804 0.950 . S
C1809 C1811 1.327 . S
C1809 C1815 1.429 . S
C1810 C1802 1.574 . S
C1810 H1805 0.949 . S
C1810 C1816 1.368 . S
C1811 C1795 1.349 . S
C1811 H1803 0.950 . S
C1811 C1809 1.327 . S
C1812 C1800 1.349 . S
C1812 H1806 0.950 . S
C1812 C1813 1.327 . S
C1813 H1807 0.950 . S
C1813 C1812 1.327 . S
C1813 C1817 1.429 . S
C1814 C1797 1.574 . S
C1814 H1808 0.949 . S
C1814 C1818 1.368 . S
C1815 C1796 1.429 . S
C1815 C1809 1.429 . S
C1815 C1816 1.523 . S
C1816 C1797 1.368 . S
C1816 C1810 1.368 . S
C1816 C1815 1.523 . S
C1817 C1801 1.429 . S
C1817 C1813 1.429 . S
C1817 C1818 1.523 . S
C1818 C1802 1.368 . S
C1818 C1814 1.368 . S
C1818 C1817 1.523 . S
H1819 C1794 0.950 . S
H1820 C1796 0.950 . S
H1821 C1797 0.949 . S
H1822 C1799 0.950 . S
H1823 C1801 0.950 . S
C1824 C1825 1.349 . S
C1824 C1826 1.327 . S
C1824 H1849 0.950 . S
C1825 C1824 1.349 . S
C1825 C1841 1.349 . S
C1826 C1824 1.327 . S
C1826 C1845 1.429 . S
C1826 H1850 0.950 . S
C1827 C1844 1.574 . S
C1827 C1846 1.368 . S
C1827 H1851 0.949 . S
H1828 C1832 0.949 . S
C1829 C1830 1.349 . S
C1829 C1831 1.327 . S
C1829 H1852 0.950 . S
C1830 C1829 1.349 . S
C1830 C1842 1.349 . S
C1831 C1829 1.327 . S
C1831 C1847 1.429 . S
C1831 H1853 0.950 . S
C1832 H1828 0.949 . S
C1832 C1840 1.574 . S
C1832 C1848 1.368 . S
H1833 C1841 0.950 . S
H1834 C1839 0.950 . S
H1835 C1840 0.949 . S
H1836 C1842 0.950 . S
H1837 C1843 0.950 . S
H1838 C1844 0.949 . S
C1839 H1834 0.950 . S
C1839 C1841 1.327 . S
C1839 C1845 1.429 . S
C1840 C1832 1.574 . S
C1840 H1835 0.949 . S
C1840 C1846 1.368 . S
C1841 C1825 1.349 . S
C1841 H1833 0.950 . S
C1841 C1839 1.327 . S
C1842 C1830 1.349 . S
C1842 H1836 0.950 . S
C1842 C1843 1.327 . S
C1843 H1837 0.950 . S
C1843 C1842 1.327 . S
C1843 C1847 1.429 . S
C1844 C1827 1.574 . S
C1844 H1838 0.949 . S
C1844 C1848 1.368 . S
C1845 C1826 1.429 . S
C1845 C1839 1.429 . S
C1845 C1846 1.523 . S
C1846 C1827 1.368 . S
C1846 C1840 1.368 . S
C1846 C1845 1.523 . S
C1847 C1831 1.429 . S
C1847 C1843 1.429 . S
C1847 C1848 1.523 . S
C1848 C1832 1.368 . S
C1848 C1844 1.368 . S
C1848 C1847 1.523 . S
H1849 C1824 0.950 . S
H1850 C1826 0.950 . S
H1851 C1827 0.949 . S
H1852 C1829 0.950 . S
H1853 C1831 0.950 . S
C1854 C1855 1.349 . S
C1854 C1856 1.327 1_556 S
C1854 H1879 0.950 . S
C1855 C1854 1.349 . S
C1855 C1871 1.343 1_556 S
C1856 C1854 1.327 1_554 S
C1856 C1875 1.429 . S
C1856 H1880 0.950 . S
C1857 C1874 1.574 . S
C1857 C1876 1.368 . S
C1857 H1881 0.949 . S
H1858 C1862 0.949 . S
C1859 C1860 1.349 . S
C1859 C1861 1.327 . S
C1859 H1882 0.950 . S
C1860 C1859 1.349 . S
C1860 C1872 1.349 . S
C1861 C1859 1.327 . S
C1861 C1877 1.429 . S
C1861 H1883 0.950 . S
C1862 H1858 0.949 . S
C1862 C1870 1.574 . S
C1862 C1878 1.368 . S
H1863 C1871 0.950 . S
H1864 C1869 0.950 . S
H1865 C1870 0.949 . S
H1866 C1872 0.950 . S
H1867 C1873 0.950 . S
H1868 C1874 0.949 . S
C1869 H1864 0.950 . S
C1869 C1871 1.327 . S
C1869 C1875 1.429 . S
C1870 C1862 1.574 . S
C1870 H1865 0.949 . S
C1870 C1876 1.368 . S
C1871 C1855 1.343 1_554 S
C1871 H1863 0.950 . S
C1871 C1869 1.327 . S
C1872 C1860 1.349 . S
C1872 H1866 0.950 . S
C1872 C1873 1.327 . S
C1873 H1867 0.950 . S
C1873 C1872 1.327 . S
C1873 C1877 1.429 . S
C1874 C1857 1.574 . S
C1874 H1868 0.949 . S
C1874 C1878 1.368 . S
C1875 C1856 1.429 . S
C1875 C1869 1.429 . S
C1875 C1876 1.523 . S
C1876 C1857 1.368 . S
C1876 C1870 1.368 . S
C1876 C1875 1.523 . S
C1877 C1861 1.429 . S
C1877 C1873 1.429 . S
C1877 C1878 1.523 . S
C1878 C1862 1.368 . S
C1878 C1874 1.368 . S
C1878 C1877 1.523 . S
H1879 C1854 0.950 . S
H1880 C1856 0.950 . S
H1881 C1857 0.949 . S
H1882 C1859 0.950 . S
H1883 C1861 0.950 . S
C1884 C1885 1.350 . S
C1884 C1886 1.327 1_556 S
C1884 H1909 0.950 . S
C1885 C1884 1.350 . S
C1885 C1901 1.343 1_556 S
C1886 C1884 1.327 1_554 S
C1886 C1905 1.429 . S
C1886 H1910 0.950 . S
C1887 C1904 1.574 . S
C1887 C1906 1.368 . S
C1887 H1911 0.949 . S
H1888 C1892 0.949 . S
C1889 C1890 1.349 . S
C1889 C1891 1.327 . S
C1889 H1912 0.950 . S
C1890 C1889 1.349 . S
C1890 C1902 1.349 . S
C1891 C1889 1.327 . S
C1891 C1907 1.429 . S
C1891 H1913 0.950 . S
C1892 H1888 0.949 . S
C1892 C1900 1.574 . S
C1892 C1908 1.368 . S
H1893 C1901 0.950 . S
H1894 C1899 0.950 . S
H1895 C1900 0.949 . S
H1896 C1902 0.950 . S
H1897 C1903 0.950 . S
H1898 C1904 0.949 . S
C1899 H1894 0.950 . S
C1899 C1901 1.327 . S
C1899 C1905 1.429 . S
C1900 C1892 1.574 . S
C1900 H1895 0.949 . S
C1900 C1906 1.368 . S
C1901 C1885 1.343 1_554 S
C1901 H1893 0.950 . S
C1901 C1899 1.327 . S
C1902 C1890 1.349 . S
C1902 H1896 0.950 . S
C1902 C1903 1.327 . S
C1903 H1897 0.950 . S
C1903 C1902 1.327 . S
C1903 C1907 1.429 . S
C1904 C1887 1.574 . S
C1904 H1898 0.949 . S
C1904 C1908 1.368 . S
C1905 C1886 1.429 . S
C1905 C1899 1.429 . S
C1905 C1906 1.523 . S
C1906 C1887 1.368 . S
C1906 C1900 1.368 . S
C1906 C1905 1.523 . S
C1907 C1891 1.429 . S
C1907 C1903 1.429 . S
C1907 C1908 1.523 . S
C1908 C1892 1.368 . S
C1908 C1904 1.368 . S
C1908 C1907 1.523 . S
H1909 C1884 0.950 . S
H1910 C1886 0.950 . S
H1911 C1887 0.949 . S
H1912 C1889 0.950 . S
H1913 C1891 0.950 . S
C1914 C1915 1.347 1_554 S
C1914 C1916 1.327 . S
C1914 H1939 0.950 1_554 S
C1915 C1914 1.347 1_556 S
C1915 C1931 1.346 1_556 S
C1916 C1914 1.327 . S
C1916 C1935 1.429 . S
C1916 H1940 0.950 . S
C1917 C1934 1.574 . S
C1917 C1936 1.368 . S
C1917 H1941 0.949 . S
H1918 C1922 0.949 . S
C1919 C1920 1.349 . S
C1919 C1921 1.327 . S
C1919 H1942 0.950 . S
C1920 C1919 1.349 . S
C1920 C1932 1.349 . S
C1921 C1919 1.327 . S
C1921 C1937 1.429 . S
C1921 H1943 0.950 . S
C1922 H1918 0.949 . S
C1922 C1930 1.574 . S
C1922 C1938 1.368 . S
H1923 C1931 0.950 . S
H1924 C1929 0.950 . S
H1925 C1930 0.949 . S
H1926 C1932 0.950 . S
H1927 C1933 0.950 . S
H1928 C1934 0.949 . S
C1929 H1924 0.950 . S
C1929 C1931 1.327 . S
C1929 C1935 1.429 . S
C1930 C1922 1.574 . S
C1930 H1925 0.949 . S
C1930 C1936 1.368 . S
C1931 C1915 1.346 1_554 S
C1931 H1923 0.950 . S
C1931 C1929 1.327 . S
C1932 C1920 1.349 . S
C1932 H1926 0.950 . S
C1932 C1933 1.327 . S
C1933 H1927 0.950 . S
C1933 C1932 1.327 . S
C1933 C1937 1.429 . S
C1934 C1917 1.574 . S
C1934 H1928 0.949 . S
C1934 C1938 1.368 . S
C1935 C1916 1.429 . S
C1935 C1929 1.429 . S
C1935 C1936 1.523 . S
C1936 C1917 1.368 . S
C1936 C1930 1.368 . S
C1936 C1935 1.523 . S
C1937 C1921 1.429 . S
C1937 C1933 1.429 . S
C1937 C1938 1.523 . S
C1938 C1922 1.368 . S
C1938 C1934 1.368 . S
C1938 C1937 1.523 . S
H1939 C1914 0.950 1_556 S
H1940 C1916 0.950 . S
H1941 C1917 0.949 . S
H1942 C1919 0.950 . S
H1943 C1921 0.950 . S
C1944 C1945 1.349 1_556 S
C1944 C1946 1.335 . S
C1944 H1969 0.942 1_556 S
C1945 C1944 1.349 1_554 S
C1945 C1961 1.344 1_554 S
C1946 C1944 1.335 . S
C1946 C1965 1.429 . S
C1946 H1970 0.950 . S
C1947 C1964 1.574 . S
C1947 C1966 1.368 . S
C1947 H1971 0.949 . S
H1948 C1952 0.949 . S
C1949 C1950 1.349 . S
C1949 C1951 1.327 . S
C1949 H1972 0.950 . S
C1950 C1949 1.349 . S
C1950 C1962 1.349 . S
C1951 C1949 1.327 . S
C1951 C1967 1.429 . S
C1951 H1973 0.950 . S
C1952 H1948 0.949 . S
C1952 C1960 1.574 . S
C1952 C1968 1.368 . S
H1953 C1961 0.950 . S
H1954 C1959 0.950 . S
H1955 C1960 0.949 . S
H1956 C1962 0.950 . S
H1957 C1963 0.950 . S
H1958 C1964 0.949 . S
C1959 H1954 0.950 . S
C1959 C1961 1.327 . S
C1959 C1965 1.429 . S
C1960 C1952 1.574 . S
C1960 H1955 0.949 . S
C1960 C1966 1.368 . S
C1961 C1945 1.344 1_556 S
C1961 H1953 0.950 . S
C1961 C1959 1.327 . S
C1962 C1950 1.349 . S
C1962 H1956 0.950 . S
C1962 C1963 1.327 . S
C1963 H1957 0.950 . S
C1963 C1962 1.327 . S
C1963 C1967 1.429 . S
C1964 C1947 1.574 . S
C1964 H1958 0.949 . S
C1964 C1968 1.368 . S
C1965 C1946 1.429 . S
C1965 C1959 1.429 . S
C1965 C1966 1.523 . S
C1966 C1947 1.368 . S
C1966 C1960 1.368 . S
C1966 C1965 1.523 . S
C1967 C1951 1.429 . S
C1967 C1963 1.429 . S
C1967 C1968 1.523 . S
C1968 C1952 1.368 . S
C1968 C1964 1.368 . S
C1968 C1967 1.523 . S
H1969 C1944 0.942 1_554 S
H1970 C1946 0.950 . S
H1971 C1947 0.949 . S
H1972 C1949 0.950 . S
H1973 C1951 0.950 . S
C1974 C1975 1.349 . S
C1974 C1976 1.327 . S
C1974 H1999 0.950 . S
C1975 C1974 1.349 . S
C1975 C1991 1.349 . S
C1976 C1974 1.327 . S
C1976 C1995 1.429 . S
C1976 H2000 0.950 . S
C1977 C1994 1.574 . S
C1977 C1996 1.368 . S
C1977 H2001 0.949 . S
H1978 C1982 0.949 . S
C1979 C1980 1.348 1_556 S
C1979 C1981 1.348 . S
C1979 H2002 0.930 1_556 S
C1980 C1979 1.348 1_554 S
C1980 C1992 1.344 1_554 S
C1981 C1979 1.348 . S
C1981 C1997 1.429 . S
C1981 H2003 0.950 . S
C1982 H1978 0.949 . S
C1982 C1990 1.574 . S
C1982 C1998 1.368 . S
H1983 C1991 0.950 . S
H1984 C1989 0.950 . S
H1985 C1990 0.949 . S
H1986 C1992 0.950 . S
H1987 C1993 0.950 . S
H1988 C1994 0.949 . S
C1989 H1984 0.950 . S
C1989 C1991 1.327 . S
C1989 C1995 1.429 . S
C1990 C1982 1.574 . S
C1990 H1985 0.949 . S
C1990 C1996 1.368 . S
C1991 C1975 1.349 . S
C1991 H1983 0.950 . S
C1991 C1989 1.327 . S
C1992 C1980 1.344 1_556 S
C1992 H1986 0.950 . S
C1992 C1993 1.327 . S
C1993 H1987 0.950 . S
C1993 C1992 1.327 . S
C1993 C1997 1.429 . S
C1994 C1977 1.574 . S
C1994 H1988 0.949 . S
C1994 C1998 1.368 . S
C1995 C1976 1.429 . S
C1995 C1989 1.429 . S
C1995 C1996 1.523 . S
C1996 C1977 1.368 . S
C1996 C1990 1.368 . S
C1996 C1995 1.523 . S
C1997 C1981 1.429 . S
C1997 C1993 1.429 . S
C1997 C1998 1.523 . S
C1998 C1982 1.368 . S
C1998 C1994 1.368 . S
C1998 C1997 1.523 . S
H1999 C1974 0.950 . S
H2000 C1976 0.950 . S
H2001 C1977 0.949 . S
H2002 C1979 0.930 1_554 S
H2003 C1981 0.950 . S
C2004 C2005 1.350 . S
C2004 C2006 1.327 1_554 S
C2004 H2029 0.950 . S
C2005 C2004 1.350 . S
C2005 C2021 1.343 1_554 S
C2006 C2004 1.327 1_556 S
C2006 C2025 1.429 . S
C2006 H2030 0.950 . S
C2007 C2024 1.574 . S
C2007 C2026 1.368 . S
C2007 H2031 0.949 . S
H2008 C2012 0.949 . S
C2009 C2010 1.349 . S
C2009 C2011 1.327 . S
C2009 H2032 0.950 . S
C2010 C2009 1.349 . S
C2010 C2022 1.349 . S
C2011 C2009 1.327 . S
C2011 C2027 1.429 . S
C2011 H2033 0.950 . S
C2012 H2008 0.949 . S
C2012 C2020 1.574 . S
C2012 C2028 1.368 . S
H2013 C2021 0.950 . S
H2014 C2019 0.950 . S
H2015 C2020 0.949 . S
H2016 C2022 0.950 . S
H2017 C2023 0.950 . S
H2018 C2024 0.949 . S
C2019 H2014 0.950 . S
C2019 C2021 1.327 . S
C2019 C2025 1.429 . S
C2020 C2012 1.574 . S
C2020 H2015 0.949 . S
C2020 C2026 1.368 . S
C2021 C2005 1.343 1_556 S
C2021 H2013 0.950 . S
C2021 C2019 1.327 . S
C2022 C2010 1.349 . S
C2022 H2016 0.950 . S
C2022 C2023 1.327 . S
C2023 H2017 0.950 . S
C2023 C2022 1.327 . S
C2023 C2027 1.429 . S
C2024 C2007 1.574 . S
C2024 H2018 0.949 . S
C2024 C2028 1.368 . S
C2025 C2006 1.429 . S
C2025 C2019 1.429 . S
C2025 C2026 1.523 . S
C2026 C2007 1.368 . S
C2026 C2020 1.368 . S
C2026 C2025 1.523 . S
C2027 C2011 1.429 . S
C2027 C2023 1.429 . S
C2027 C2028 1.523 . S
C2028 C2012 1.368 . S
C2028 C2024 1.368 . S
C2028 C2027 1.523 . S
H2029 C2004 0.950 . S
H2030 C2006 0.950 . S
H2031 C2007 0.949 . S
H2032 C2009 0.950 . S
H2033 C2011 0.950 . S
C2034 C2035 1.349 . S
C2034 C2036 1.327 . S
C2034 H2059 0.950 . S
C2035 C2034 1.349 . S
C2035 C2051 1.349 . S
C2036 C2034 1.327 . S
C2036 C2055 1.429 . S
C2036 H2060 0.950 . S
C2037 C2054 1.574 . S
C2037 C2056 1.368 . S
C2037 H2061 0.949 . S
H2038 C2042 0.949 . S
C2039 C2040 1.349 . S
C2039 C2041 1.327 . S
C2039 H2062 0.950 . S
C2040 C2039 1.349 . S
C2040 C2052 1.349 . S
C2041 C2039 1.327 . S
C2041 C2057 1.429 . S
C2041 H2063 0.950 . S
C2042 H2038 0.949 . S
C2042 C2050 1.574 . S
C2042 C2058 1.368 . S
H2043 C2051 0.950 . S
H2044 C2049 0.950 . S
H2045 C2050 0.949 . S
H2046 C2052 0.950 . S
H2047 C2053 0.950 . S
H2048 C2054 0.949 . S
C2049 H2044 0.950 . S
C2049 C2051 1.327 . S
C2049 C2055 1.429 . S
C2050 C2042 1.574 . S
C2050 H2045 0.949 . S
C2050 C2056 1.368 . S
C2051 C2035 1.349 . S
C2051 H2043 0.950 . S
C2051 C2049 1.327 . S
C2052 C2040 1.349 . S
C2052 H2046 0.950 . S
C2052 C2053 1.327 . S
C2053 H2047 0.950 . S
C2053 C2052 1.327 . S
C2053 C2057 1.429 . S
C2054 C2037 1.574 . S
C2054 H2048 0.949 . S
C2054 C2058 1.368 . S
C2055 C2036 1.429 . S
C2055 C2049 1.429 . S
C2055 C2056 1.523 . S
C2056 C2037 1.368 . S
C2056 C2050 1.368 . S
C2056 C2055 1.523 . S
C2057 C2041 1.429 . S
C2057 C2053 1.429 . S
C2057 C2058 1.523 . S
C2058 C2042 1.368 . S
C2058 C2054 1.368 . S
C2058 C2057 1.523 . S
H2059 C2034 0.950 . S
H2060 C2036 0.950 . S
H2061 C2037 0.949 . S
H2062 C2039 0.950 . S
H2063 C2041 0.950 . S
C2064 C2065 1.349 . S
C2064 C2066 1.327 . S
C2064 H2089 0.950 . S
C2065 C2064 1.349 . S
C2065 C2081 1.349 . S
C2066 C2064 1.327 . S
C2066 C2085 1.429 . S
C2066 H2090 0.950 . S
C2067 C2084 1.574 . S
C2067 C2086 1.368 . S
C2067 H2091 0.949 . S
H2068 C2072 0.949 . S
C2069 C2070 1.349 . S
C2069 C2071 1.327 . S
C2069 H2092 0.950 . S
C2070 C2069 1.349 . S
C2070 C2082 1.349 . S
C2071 C2069 1.327 . S
C2071 C2087 1.429 . S
C2071 H2093 0.950 . S
C2072 H2068 0.949 . S
C2072 C2080 1.574 . S
C2072 C2088 1.368 . S
H2073 C2081 0.950 . S
H2074 C2079 0.950 . S
H2075 C2080 0.949 . S
H2076 C2082 0.950 . S
H2077 C2083 0.950 . S
H2078 C2084 0.949 . S
C2079 H2074 0.950 . S
C2079 C2081 1.327 . S
C2079 C2085 1.429 . S
C2080 C2072 1.574 . S
C2080 H2075 0.949 . S
C2080 C2086 1.368 . S
C2081 C2065 1.349 . S
C2081 H2073 0.950 . S
C2081 C2079 1.327 . S
C2082 C2070 1.349 . S
C2082 H2076 0.950 . S
C2082 C2083 1.327 . S
C2083 H2077 0.950 . S
C2083 C2082 1.327 . S
C2083 C2087 1.429 . S
C2084 C2067 1.574 . S
C2084 H2078 0.949 . S
C2084 C2088 1.368 . S
C2085 C2066 1.429 . S
C2085 C2079 1.429 . S
C2085 C2086 1.523 . S
C2086 C2067 1.368 . S
C2086 C2080 1.368 . S
C2086 C2085 1.523 . S
C2087 C2071 1.429 . S
C2087 C2083 1.429 . S
C2087 C2088 1.523 . S
C2088 C2072 1.368 . S
C2088 C2084 1.368 . S
C2088 C2087 1.523 . S
H2089 C2064 0.950 . S
H2090 C2066 0.950 . S
H2091 C2067 0.949 . S
H2092 C2069 0.950 . S
H2093 C2071 0.950 . S
C2094 C2095 1.349 . S
C2094 C2096 1.327 . S
C2094 H2119 0.950 . S
C2095 C2094 1.349 . S
C2095 C2111 1.349 . S
C2096 C2094 1.327 . S
C2096 C2115 1.429 . S
C2096 H2120 0.950 . S
C2097 C2114 1.574 . S
C2097 C2116 1.368 . S
C2097 H2121 0.949 . S
H2098 C2102 0.949 . S
C2099 C2100 1.349 . S
C2099 C2101 1.327 . S
C2099 H2122 0.950 . S
C2100 C2099 1.349 . S
C2100 C2112 1.349 . S
C2101 C2099 1.327 . S
C2101 C2117 1.429 . S
C2101 H2123 0.950 . S
C2102 H2098 0.949 . S
C2102 C2110 1.574 . S
C2102 C2118 1.368 . S
H2103 C2111 0.950 . S
H2104 C2109 0.950 . S
H2105 C2110 0.949 . S
H2106 C2112 0.950 . S
H2107 C2113 0.950 . S
H2108 C2114 0.949 . S
C2109 H2104 0.950 . S
C2109 C2111 1.327 . S
C2109 C2115 1.429 . S
C2110 C2102 1.574 . S
C2110 H2105 0.949 . S
C2110 C2116 1.368 . S
C2111 C2095 1.349 . S
C2111 H2103 0.950 . S
C2111 C2109 1.327 . S
C2112 C2100 1.349 . S
C2112 H2106 0.950 . S
C2112 C2113 1.327 . S
C2113 H2107 0.950 . S
C2113 C2112 1.327 . S
C2113 C2117 1.429 . S
C2114 C2097 1.574 . S
C2114 H2108 0.949 . S
C2114 C2118 1.368 . S
C2115 C2096 1.429 . S
C2115 C2109 1.429 . S
C2115 C2116 1.523 . S
C2116 C2097 1.368 . S
C2116 C2110 1.368 . S
C2116 C2115 1.523 . S
C2117 C2101 1.429 . S
C2117 C2113 1.429 . S
C2117 C2118 1.523 . S
C2118 C2102 1.368 . S
C2118 C2114 1.368 . S
C2118 C2117 1.523 . S
H2119 C2094 0.950 . S
H2120 C2096 0.950 . S
H2121 C2097 0.949 . S
H2122 C2099 0.950 . S
H2123 C2101 0.950 . S
C2124 C2125 1.349 . S
C2124 C2126 1.327 . S
C2124 H2149 0.950 . S
C2125 C2124 1.349 . S
C2125 C2141 1.349 . S
C2126 C2124 1.327 . S
C2126 C2145 1.429 . S
C2126 H2150 0.950 . S
C2127 C2144 1.574 . S
C2127 C2146 1.368 . S
C2127 H2151 0.949 . S
H2128 C2132 0.949 . S
C2129 C2130 1.349 . S
C2129 C2131 1.327 . S
C2129 H2152 0.950 . S
C2130 C2129 1.349 . S
C2130 C2142 1.349 . S
C2131 C2129 1.327 . S
C2131 C2147 1.429 . S
C2131 H2153 0.950 . S
C2132 H2128 0.949 . S
C2132 C2140 1.574 . S
C2132 C2148 1.368 . S
H2133 C2141 0.950 . S
H2134 C2139 0.950 . S
H2135 C2140 0.949 . S
H2136 C2142 0.950 . S
H2137 C2143 0.950 . S
H2138 C2144 0.949 . S
C2139 H2134 0.950 . S
C2139 C2141 1.327 . S
C2139 C2145 1.429 . S
C2140 C2132 1.574 . S
C2140 H2135 0.949 . S
C2140 C2146 1.368 . S
C2141 C2125 1.349 . S
C2141 H2133 0.950 . S
C2141 C2139 1.327 . S
C2142 C2130 1.349 . S
C2142 H2136 0.950 . S
C2142 C2143 1.327 . S
C2143 H2137 0.950 . S
C2143 C2142 1.327 . S
C2143 C2147 1.429 . S
C2144 C2127 1.574 . S
C2144 H2138 0.949 . S
C2144 C2148 1.368 . S
C2145 C2126 1.429 . S
C2145 C2139 1.429 . S
C2145 C2146 1.523 . S
C2146 C2127 1.368 . S
C2146 C2140 1.368 . S
C2146 C2145 1.523 . S
C2147 C2131 1.429 . S
C2147 C2143 1.429 . S
C2147 C2148 1.523 . S
C2148 C2132 1.368 . S
C2148 C2144 1.368 . S
C2148 C2147 1.523 . S
H2149 C2124 0.950 . S
H2150 C2126 0.950 . S
H2151 C2127 0.949 . S
H2152 C2129 0.950 . S
H2153 C2131 0.950 . S
C2154 C2155 1.349 . S
C2154 C2156 1.327 . S
C2154 H2179 0.950 . S
C2155 C2154 1.349 . S
C2155 C2171 1.349 . S
C2156 C2154 1.327 . S
C2156 C2175 1.429 . S
C2156 H2180 0.950 . S
C2157 C2174 1.574 . S
C2157 C2176 1.368 . S
C2157 H2181 0.949 . S
H2158 C2162 0.949 . S
C2159 C2160 1.349 . S
C2159 C2161 1.327 . S
C2159 H2182 0.950 . S
C2160 C2159 1.349 . S
C2160 C2172 1.349 . S
C2161 C2159 1.327 . S
C2161 C2177 1.429 . S
C2161 H2183 0.950 . S
C2162 H2158 0.949 . S
C2162 C2170 1.574 . S
C2162 C2178 1.368 . S
H2163 C2171 0.950 . S
H2164 C2169 0.950 . S
H2165 C2170 0.949 . S
H2166 C2172 0.950 . S
H2167 C2173 0.950 . S
H2168 C2174 0.949 . S
C2169 H2164 0.950 . S
C2169 C2171 1.327 . S
C2169 C2175 1.429 . S
C2170 C2162 1.574 . S
C2170 H2165 0.949 . S
C2170 C2176 1.368 . S
C2171 C2155 1.349 . S
C2171 H2163 0.950 . S
C2171 C2169 1.327 . S
C2172 C2160 1.349 . S
C2172 H2166 0.950 . S
C2172 C2173 1.327 . S
C2173 H2167 0.950 . S
C2173 C2172 1.327 . S
C2173 C2177 1.429 . S
C2174 C2157 1.574 . S
C2174 H2168 0.949 . S
C2174 C2178 1.368 . S
C2175 C2156 1.429 . S
C2175 C2169 1.429 . S
C2175 C2176 1.523 . S
C2176 C2157 1.368 . S
C2176 C2170 1.368 . S
C2176 C2175 1.523 . S
C2177 C2161 1.429 . S
C2177 C2173 1.429 . S
C2177 C2178 1.523 . S
C2178 C2162 1.368 . S
C2178 C2174 1.368 . S
C2178 C2177 1.523 . S
H2179 C2154 0.950 . S
H2180 C2156 0.950 . S
H2181 C2157 0.949 . S
H2182 C2159 0.950 . S
H2183 C2161 0.950 . S
C2184 C2185 1.349 . S
C2184 C2186 1.327 . S
C2184 H2209 0.950 . S
C2185 C2184 1.349 . S
C2185 C2201 1.349 . S
C2186 C2184 1.327 . S
C2186 C2205 1.429 . S
C2186 H2210 0.950 . S
C2187 C2204 1.574 . S
C2187 C2206 1.368 . S
C2187 H2211 0.949 . S
H2188 C2192 0.949 . S
C2189 C2190 1.349 . S
C2189 C2191 1.327 . S
C2189 H2212 0.950 . S
C2190 C2189 1.349 . S
C2190 C2202 1.349 . S
C2191 C2189 1.327 . S
C2191 C2207 1.429 . S
C2191 H2213 0.950 . S
C2192 H2188 0.949 . S
C2192 C2200 1.574 . S
C2192 C2208 1.368 . S
H2193 C2201 0.950 . S
H2194 C2199 0.950 . S
H2195 C2200 0.949 . S
H2196 C2202 0.950 . S
H2197 C2203 0.950 . S
H2198 C2204 0.949 . S
C2199 H2194 0.950 . S
C2199 C2201 1.327 . S
C2199 C2205 1.429 . S
C2200 C2192 1.574 . S
C2200 H2195 0.949 . S
C2200 C2206 1.368 . S
C2201 C2185 1.349 . S
C2201 H2193 0.950 . S
C2201 C2199 1.327 . S
C2202 C2190 1.349 . S
C2202 H2196 0.950 . S
C2202 C2203 1.327 . S
C2203 H2197 0.950 . S
C2203 C2202 1.327 . S
C2203 C2207 1.429 . S
C2204 C2187 1.574 . S
C2204 H2198 0.949 . S
C2204 C2208 1.368 . S
C2205 C2186 1.429 . S
C2205 C2199 1.429 . S
C2205 C2206 1.523 . S
C2206 C2187 1.368 . S
C2206 C2200 1.368 . S
C2206 C2205 1.523 . S
C2207 C2191 1.429 . S
C2207 C2203 1.429 . S
C2207 C2208 1.523 . S
C2208 C2192 1.368 . S
C2208 C2204 1.368 . S
C2208 C2207 1.523 . S
H2209 C2184 0.950 . S
H2210 C2186 0.950 . S
H2211 C2187 0.949 . S
H2212 C2189 0.950 . S
H2213 C2191 0.950 . S
C2214 C2215 1.349 . S
C2214 C2216 1.327 . S
C2214 H2239 0.950 . S
C2215 C2214 1.349 . S
C2215 C2231 1.349 . S
C2216 C2214 1.327 . S
C2216 C2235 1.429 . S
C2216 H2240 0.950 . S
C2217 C2234 1.574 . S
C2217 C2236 1.368 . S
C2217 H2241 0.949 . S
H2218 C2222 0.949 . S
C2219 C2220 1.349 . S
C2219 C2221 1.327 . S
C2219 H2242 0.950 . S
C2220 C2219 1.349 . S
C2220 C2232 1.349 . S
C2221 C2219 1.327 . S
C2221 C2237 1.429 . S
C2221 H2243 0.950 . S
C2222 H2218 0.949 . S
C2222 C2230 1.574 . S
C2222 C2238 1.368 . S
H2223 C2231 0.950 . S
H2224 C2229 0.950 . S
H2225 C2230 0.949 . S
H2226 C2232 0.950 . S
H2227 C2233 0.950 . S
H2228 C2234 0.949 . S
C2229 H2224 0.950 . S
C2229 C2231 1.327 . S
C2229 C2235 1.429 . S
C2230 C2222 1.574 . S
C2230 H2225 0.949 . S
C2230 C2236 1.368 . S
C2231 C2215 1.349 . S
C2231 H2223 0.950 . S
C2231 C2229 1.327 . S
C2232 C2220 1.349 . S
C2232 H2226 0.950 . S
C2232 C2233 1.327 . S
C2233 H2227 0.950 . S
C2233 C2232 1.327 . S
C2233 C2237 1.429 . S
C2234 C2217 1.574 . S
C2234 H2228 0.949 . S
C2234 C2238 1.368 . S
C2235 C2216 1.429 . S
C2235 C2229 1.429 . S
C2235 C2236 1.523 . S
C2236 C2217 1.368 . S
C2236 C2230 1.368 . S
C2236 C2235 1.523 . S
C2237 C2221 1.429 . S
C2237 C2233 1.429 . S
C2237 C2238 1.523 . S
C2238 C2222 1.368 . S
C2238 C2234 1.368 . S
C2238 C2237 1.523 . S
H2239 C2214 0.950 . S
H2240 C2216 0.950 . S
H2241 C2217 0.949 . S
H2242 C2219 0.950 . S
H2243 C2221 0.950 . S
C2244 C2245 1.349 . S
C2244 C2246 1.327 . S
C2244 H2269 0.950 . S
C2245 C2244 1.349 . S
C2245 C2261 1.349 . S
C2246 C2244 1.327 . S
C2246 C2265 1.429 . S
C2246 H2270 0.950 . S
C2247 C2264 1.574 . S
C2247 C2266 1.368 . S
C2247 H2271 0.949 . S
H2248 C2252 0.949 . S
C2249 C2250 1.349 . S
C2249 C2251 1.327 . S
C2249 H2272 0.950 . S
C2250 C2249 1.349 . S
C2250 C2262 1.349 . S
C2251 C2249 1.327 . S
C2251 C2267 1.429 . S
C2251 H2273 0.950 . S
C2252 H2248 0.949 . S
C2252 C2260 1.574 . S
C2252 C2268 1.368 . S
H2253 C2261 0.950 . S
H2254 C2259 0.950 . S
H2255 C2260 0.949 . S
H2256 C2262 0.950 . S
H2257 C2263 0.950 . S
H2258 C2264 0.949 . S
C2259 H2254 0.950 . S
C2259 C2261 1.327 . S
C2259 C2265 1.429 . S
C2260 C2252 1.574 . S
C2260 H2255 0.949 . S
C2260 C2266 1.368 . S
C2261 C2245 1.349 . S
C2261 H2253 0.950 . S
C2261 C2259 1.327 . S
C2262 C2250 1.349 . S
C2262 H2256 0.950 . S
C2262 C2263 1.327 . S
C2263 H2257 0.950 . S
C2263 C2262 1.327 . S
C2263 C2267 1.429 . S
C2264 C2247 1.574 . S
C2264 H2258 0.949 . S
C2264 C2268 1.368 . S
C2265 C2246 1.429 . S
C2265 C2259 1.429 . S
C2265 C2266 1.523 . S
C2266 C2247 1.368 . S
C2266 C2260 1.368 . S
C2266 C2265 1.523 . S
C2267 C2251 1.429 . S
C2267 C2263 1.429 . S
C2267 C2268 1.523 . S
C2268 C2252 1.368 . S
C2268 C2264 1.368 . S
C2268 C2267 1.523 . S
H2269 C2244 0.950 . S
H2270 C2246 0.950 . S
H2271 C2247 0.949 . S
H2272 C2249 0.950 . S
H2273 C2251 0.950 . S
C2274 C2275 1.349 . S
C2274 C2276 1.327 . S
C2274 H2299 0.950 . S
C2275 C2274 1.349 . S
C2275 C2291 1.349 . S
C2276 C2274 1.327 . S
C2276 C2295 1.429 . S
C2276 H2300 0.950 . S
C2277 C2294 1.574 . S
C2277 C2296 1.368 . S
C2277 H2301 0.949 . S
H2278 C2282 0.949 . S
C2279 C2280 1.349 . S
C2279 C2281 1.327 . S
C2279 H2302 0.950 . S
C2280 C2279 1.349 . S
C2280 C2292 1.349 . S
C2281 C2279 1.327 . S
C2281 C2297 1.429 . S
C2281 H2303 0.950 . S
C2282 H2278 0.949 . S
C2282 C2290 1.574 . S
C2282 C2298 1.368 . S
H2283 C2291 0.950 . S
H2284 C2289 0.950 . S
H2285 C2290 0.949 . S
H2286 C2292 0.950 . S
H2287 C2293 0.950 . S
H2288 C2294 0.949 . S
C2289 H2284 0.950 . S
C2289 C2291 1.327 . S
C2289 C2295 1.429 . S
C2290 C2282 1.574 . S
C2290 H2285 0.949 . S
C2290 C2296 1.368 . S
C2291 C2275 1.349 . S
C2291 H2283 0.950 . S
C2291 C2289 1.327 . S
C2292 C2280 1.349 . S
C2292 H2286 0.950 . S
C2292 C2293 1.327 . S
C2293 H2287 0.950 . S
C2293 C2292 1.327 . S
C2293 C2297 1.429 . S
C2294 C2277 1.574 . S
C2294 H2288 0.949 . S
C2294 C2298 1.368 . S
C2295 C2276 1.429 . S
C2295 C2289 1.429 . S
C2295 C2296 1.523 . S
C2296 C2277 1.368 . S
C2296 C2290 1.368 . S
C2296 C2295 1.523 . S
C2297 C2281 1.429 . S
C2297 C2293 1.429 . S
C2297 C2298 1.523 . S
C2298 C2282 1.368 . S
C2298 C2294 1.368 . S
C2298 C2297 1.523 . S
H2299 C2274 0.950 . S
H2300 C2276 0.950 . S
H2301 C2277 0.949 . S
H2302 C2279 0.950 . S
H2303 C2281 0.950 . S
C2304 C2305 1.349 . S
C2304 C2306 1.327 . S
C2304 H2329 0.950 . S
C2305 C2304 1.349 . S
C2305 C2321 1.349 . S
C2306 C2304 1.327 . S
C2306 C2325 1.429 . S
C2306 H2330 0.950 . S
C2307 C2324 1.574 . S
C2307 C2326 1.368 . S
C2307 H2331 0.949 . S
H2308 C2312 0.949 . S
C2309 C2310 1.349 . S
C2309 C2311 1.327 . S
C2309 H2332 0.950 . S
C2310 C2309 1.349 . S
C2310 C2322 1.349 . S
C2311 C2309 1.327 . S
C2311 C2327 1.429 . S
C2311 H2333 0.950 . S
C2312 H2308 0.949 . S
C2312 C2320 1.574 . S
C2312 C2328 1.368 . S
H2313 C2321 0.950 . S
H2314 C2319 0.950 . S
H2315 C2320 0.949 . S
H2316 C2322 0.950 . S
H2317 C2323 0.950 . S
H2318 C2324 0.949 . S
C2319 H2314 0.950 . S
C2319 C2321 1.327 . S
C2319 C2325 1.429 . S
C2320 C2312 1.574 . S
C2320 H2315 0.949 . S
C2320 C2326 1.368 . S
C2321 C2305 1.349 . S
C2321 H2313 0.950 . S
C2321 C2319 1.327 . S
C2322 C2310 1.349 . S
C2322 H2316 0.950 . S
C2322 C2323 1.327 . S
C2323 H2317 0.950 . S
C2323 C2322 1.327 . S
C2323 C2327 1.429 . S
C2324 C2307 1.574 . S
C2324 H2318 0.949 . S
C2324 C2328 1.368 . S
C2325 C2306 1.429 . S
C2325 C2319 1.429 . S
C2325 C2326 1.523 . S
C2326 C2307 1.368 . S
C2326 C2320 1.368 . S
C2326 C2325 1.523 . S
C2327 C2311 1.429 . S
C2327 C2323 1.429 . S
C2327 C2328 1.523 . S
C2328 C2312 1.368 . S
C2328 C2324 1.368 . S
C2328 C2327 1.523 . S
H2329 C2304 0.950 . S
H2330 C2306 0.950 . S
H2331 C2307 0.949 . S
H2332 C2309 0.950 . S
H2333 C2311 0.950 . S
C2334 C2335 1.349 . S
C2334 C2336 1.327 . S
C2334 H2359 0.950 . S
C2335 C2334 1.349 . S
C2335 C2351 1.349 . S
C2336 C2334 1.327 . S
C2336 C2355 1.429 . S
C2336 H2360 0.950 . S
C2337 C2354 1.574 . S
C2337 C2356 1.368 . S
C2337 H2361 0.949 . S
H2338 C2342 0.949 . S
C2339 C2340 1.349 . S
C2339 C2341 1.327 . S
C2339 H2362 0.950 . S
C2340 C2339 1.349 . S
C2340 C2352 1.349 . S
C2341 C2339 1.327 . S
C2341 C2357 1.429 . S
C2341 H2363 0.950 . S
C2342 H2338 0.949 . S
C2342 C2350 1.574 . S
C2342 C2358 1.368 . S
H2343 C2351 0.950 . S
H2344 C2349 0.950 . S
H2345 C2350 0.949 . S
H2346 C2352 0.950 . S
H2347 C2353 0.950 . S
H2348 C2354 0.949 . S
C2349 H2344 0.950 . S
C2349 C2351 1.327 . S
C2349 C2355 1.429 . S
C2350 C2342 1.574 . S
C2350 H2345 0.949 . S
C2350 C2356 1.368 . S
C2351 C2335 1.349 . S
C2351 H2343 0.950 . S
C2351 C2349 1.327 . S
C2352 C2340 1.349 . S
C2352 H2346 0.950 . S
C2352 C2353 1.327 . S
C2353 H2347 0.950 . S
C2353 C2352 1.327 . S
C2353 C2357 1.429 . S
C2354 C2337 1.574 . S
C2354 H2348 0.949 . S
C2354 C2358 1.368 . S
C2355 C2336 1.429 . S
C2355 C2349 1.429 . S
C2355 C2356 1.523 . S
C2356 C2337 1.368 . S
C2356 C2350 1.368 . S
C2356 C2355 1.523 . S
C2357 C2341 1.429 . S
C2357 C2353 1.429 . S
C2357 C2358 1.523 . S
C2358 C2342 1.368 . S
C2358 C2354 1.368 . S
C2358 C2357 1.523 . S
H2359 C2334 0.950 . S
H2360 C2336 0.950 . S
H2361 C2337 0.949 . S
H2362 C2339 0.950 . S
H2363 C2341 0.950 . S
C2364 C2365 1.349 . S
C2364 C2366 1.327 . S
C2364 H2389 0.950 . S
C2365 C2364 1.349 . S
C2365 C2381 1.349 . S
C2366 C2364 1.327 . S
C2366 C2385 1.429 . S
C2366 H2390 0.950 . S
C2367 C2384 1.574 . S
C2367 C2386 1.368 . S
C2367 H2391 0.949 . S
H2368 C2372 0.949 . S
C2369 C2370 1.349 . S
C2369 C2371 1.327 . S
C2369 H2392 0.950 . S
C2370 C2369 1.349 . S
C2370 C2382 1.349 . S
C2371 C2369 1.327 . S
C2371 C2387 1.429 . S
C2371 H2393 0.950 . S
C2372 H2368 0.949 . S
C2372 C2380 1.574 . S
C2372 C2388 1.368 . S
H2373 C2381 0.950 . S
H2374 C2379 0.950 . S
H2375 C2380 0.949 . S
H2376 C2382 0.950 . S
H2377 C2383 0.950 . S
H2378 C2384 0.949 . S
C2379 H2374 0.950 . S
C2379 C2381 1.327 . S
C2379 C2385 1.429 . S
C2380 C2372 1.574 . S
C2380 H2375 0.949 . S
C2380 C2386 1.368 . S
C2381 C2365 1.349 . S
C2381 H2373 0.950 . S
C2381 C2379 1.327 . S
C2382 C2370 1.349 . S
C2382 H2376 0.950 . S
C2382 C2383 1.327 . S
C2383 H2377 0.950 . S
C2383 C2382 1.327 . S
C2383 C2387 1.429 . S
C2384 C2367 1.574 . S
C2384 H2378 0.949 . S
C2384 C2388 1.368 . S
C2385 C2366 1.429 . S
C2385 C2379 1.429 . S
C2385 C2386 1.523 . S
C2386 C2367 1.368 . S
C2386 C2380 1.368 . S
C2386 C2385 1.523 . S
C2387 C2371 1.429 . S
C2387 C2383 1.429 . S
C2387 C2388 1.523 . S
C2388 C2372 1.368 . S
C2388 C2384 1.368 . S
C2388 C2387 1.523 . S
H2389 C2364 0.950 . S
H2390 C2366 0.950 . S
H2391 C2367 0.949 . S
H2392 C2369 0.950 . S
H2393 C2371 0.950 . S
C2394 C2395 1.349 . S
C2394 C2396 1.327 . S
C2394 H2419 0.950 . S
C2395 C2394 1.349 . S
C2395 C2411 1.349 . S
C2396 C2394 1.327 . S
C2396 C2415 1.429 . S
C2396 H2420 0.950 . S
C2397 C2414 1.574 . S
C2397 C2416 1.368 . S
C2397 H2421 0.949 . S
H2398 C2402 0.949 . S
C2399 C2400 1.349 . S
C2399 C2401 1.327 . S
C2399 H2422 0.950 . S
C2400 C2399 1.349 . S
C2400 C2412 1.349 . S
C2401 C2399 1.327 . S
C2401 C2417 1.429 . S
C2401 H2423 0.950 . S
C2402 H2398 0.949 . S
C2402 C2410 1.574 . S
C2402 C2418 1.368 . S
H2403 C2411 0.950 . S
H2404 C2409 0.950 . S
H2405 C2410 0.949 . S
H2406 C2412 0.950 . S
H2407 C2413 0.950 . S
H2408 C2414 0.949 . S
C2409 H2404 0.950 . S
C2409 C2411 1.327 . S
C2409 C2415 1.429 . S
C2410 C2402 1.574 . S
C2410 H2405 0.949 . S
C2410 C2416 1.368 . S
C2411 C2395 1.349 . S
C2411 H2403 0.950 . S
C2411 C2409 1.327 . S
C2412 C2400 1.349 . S
C2412 H2406 0.950 . S
C2412 C2413 1.327 . S
C2413 H2407 0.950 . S
C2413 C2412 1.327 . S
C2413 C2417 1.429 . S
C2414 C2397 1.574 . S
C2414 H2408 0.949 . S
C2414 C2418 1.368 . S
C2415 C2396 1.429 . S
C2415 C2409 1.429 . S
C2415 C2416 1.523 . S
C2416 C2397 1.368 . S
C2416 C2410 1.368 . S
C2416 C2415 1.523 . S
C2417 C2401 1.429 . S
C2417 C2413 1.429 . S
C2417 C2418 1.523 . S
C2418 C2402 1.368 . S
C2418 C2414 1.368 . S
C2418 C2417 1.523 . S
H2419 C2394 0.950 . S
H2420 C2396 0.950 . S
H2421 C2397 0.949 . S
H2422 C2399 0.950 . S
H2423 C2401 0.950 . S
C2424 C2425 1.349 . S
C2424 C2426 1.327 . S
C2424 H2449 0.950 . S
C2425 C2424 1.349 . S
C2425 C2441 1.349 . S
C2426 C2424 1.327 . S
C2426 C2445 1.429 . S
C2426 H2450 0.950 . S
C2427 C2444 1.574 . S
C2427 C2446 1.368 . S
C2427 H2451 0.949 . S
H2428 C2432 0.949 . S
C2429 C2430 1.349 . S
C2429 C2431 1.327 . S
C2429 H2452 0.950 . S
C2430 C2429 1.349 . S
C2430 C2442 1.349 . S
C2431 C2429 1.327 . S
C2431 C2447 1.429 . S
C2431 H2453 0.950 . S
C2432 H2428 0.949 . S
C2432 C2440 1.574 . S
C2432 C2448 1.368 . S
H2433 C2441 0.950 . S
H2434 C2439 0.950 . S
H2435 C2440 0.949 . S
H2436 C2442 0.950 . S
H2437 C2443 0.950 . S
H2438 C2444 0.949 . S
C2439 H2434 0.950 . S
C2439 C2441 1.327 . S
C2439 C2445 1.429 . S
C2440 C2432 1.574 . S
C2440 H2435 0.949 . S
C2440 C2446 1.368 . S
C2441 C2425 1.349 . S
C2441 H2433 0.950 . S
C2441 C2439 1.327 . S
C2442 C2430 1.349 . S
C2442 H2436 0.950 . S
C2442 C2443 1.327 . S
C2443 H2437 0.950 . S
C2443 C2442 1.327 . S
C2443 C2447 1.429 . S
C2444 C2427 1.574 . S
C2444 H2438 0.949 . S
C2444 C2448 1.368 . S
C2445 C2426 1.429 . S
C2445 C2439 1.429 . S
C2445 C2446 1.523 . S
C2446 C2427 1.368 . S
C2446 C2440 1.368 . S
C2446 C2445 1.523 . S
C2447 C2431 1.429 . S
C2447 C2443 1.429 . S
C2447 C2448 1.523 . S
C2448 C2432 1.368 . S
C2448 C2444 1.368 . S
C2448 C2447 1.523 . S
H2449 C2424 0.950 . S
H2450 C2426 0.950 . S
H2451 C2427 0.949 . S
H2452 C2429 0.950 . S
H2453 C2431 0.950 . S
C2454 C2455 1.349 . S
C2454 C2456 1.327 . S
C2454 H2479 0.950 . S
C2455 C2454 1.349 . S
C2455 C2471 1.349 . S
C2456 C2454 1.327 . S
C2456 C2475 1.429 . S
C2456 H2480 0.950 . S
C2457 C2474 1.574 . S
C2457 C2476 1.368 . S
C2457 H2481 0.949 . S
H2458 C2462 0.949 . S
C2459 C2460 1.349 . S
C2459 C2461 1.327 . S
C2459 H2482 0.950 . S
C2460 C2459 1.349 . S
C2460 C2472 1.349 . S
C2461 C2459 1.327 . S
C2461 C2477 1.429 . S
C2461 H2483 0.950 . S
C2462 H2458 0.949 . S
C2462 C2470 1.574 . S
C2462 C2478 1.368 . S
H2463 C2471 0.950 . S
H2464 C2469 0.950 . S
H2465 C2470 0.949 . S
H2466 C2472 0.950 . S
H2467 C2473 0.950 . S
H2468 C2474 0.949 . S
C2469 H2464 0.950 . S
C2469 C2471 1.327 . S
C2469 C2475 1.429 . S
C2470 C2462 1.574 . S
C2470 H2465 0.949 . S
C2470 C2476 1.368 . S
C2471 C2455 1.349 . S
C2471 H2463 0.950 . S
C2471 C2469 1.327 . S
C2472 C2460 1.349 . S
C2472 H2466 0.950 . S
C2472 C2473 1.327 . S
C2473 H2467 0.950 . S
C2473 C2472 1.327 . S
C2473 C2477 1.429 . S
C2474 C2457 1.574 . S
C2474 H2468 0.949 . S
C2474 C2478 1.368 . S
C2475 C2456 1.429 . S
C2475 C2469 1.429 . S
C2475 C2476 1.523 . S
C2476 C2457 1.368 . S
C2476 C2470 1.368 . S
C2476 C2475 1.523 . S
C2477 C2461 1.429 . S
C2477 C2473 1.429 . S
C2477 C2478 1.523 . S
C2478 C2462 1.368 . S
C2478 C2474 1.368 . S
C2478 C2477 1.523 . S
H2479 C2454 0.950 . S
H2480 C2456 0.950 . S
H2481 C2457 0.949 . S
H2482 C2459 0.950 . S
H2483 C2461 0.950 . S
C2484 C2485 1.349 . S
C2484 C2486 1.327 . S
C2484 H2509 0.950 . S
C2485 C2484 1.349 . S
C2485 C2501 1.349 . S
C2486 C2484 1.327 . S
C2486 C2505 1.429 . S
C2486 H2510 0.950 . S
C2487 C2504 1.574 1_455 S
C2487 C2506 1.368 . S
C2487 H2511 0.949 . S
H2488 C2492 0.949 . S
C2489 C2490 1.349 . S
C2489 C2491 1.327 . S
C2489 H2512 0.950 . S
C2490 C2489 1.349 . S
C2490 C2502 1.349 . S
C2491 C2489 1.327 . S
C2491 C2507 1.429 . S
C2491 H2513 0.950 . S
C2492 H2488 0.949 . S
C2492 C2500 1.574 1_655 S
C2492 C2508 1.368 . S
H2493 C2501 0.950 . S
H2494 C2499 0.950 . S
H2495 C2500 0.949 . S
H2496 C2502 0.950 . S
H2497 C2503 0.950 . S
H2498 C2504 0.949 . S
C2499 H2494 0.950 . S
C2499 C2501 1.327 . S
C2499 C2505 1.429 . S
C2500 C2492 1.574 1_455 S
C2500 H2495 0.949 . S
C2500 C2506 1.368 . S
C2501 C2485 1.349 . S
C2501 H2493 0.950 . S
C2501 C2499 1.327 . S
C2502 C2490 1.349 . S
C2502 H2496 0.950 . S
C2502 C2503 1.327 . S
C2503 H2497 0.950 . S
C2503 C2502 1.327 . S
C2503 C2507 1.429 . S
C2504 C2487 1.574 1_655 S
C2504 H2498 0.949 . S
C2504 C2508 1.368 . S
C2505 C2486 1.429 . S
C2505 C2499 1.429 . S
C2505 C2506 1.523 . S
C2506 C2487 1.368 . S
C2506 C2500 1.368 . S
C2506 C2505 1.523 . S
C2507 C2491 1.429 . S
C2507 C2503 1.429 . S
C2507 C2508 1.523 . S
C2508 C2492 1.368 . S
C2508 C2504 1.368 . S
C2508 C2507 1.523 . S
H2509 C2484 0.950 . S
H2510 C2486 0.950 . S
H2511 C2487 0.949 . S
H2512 C2489 0.950 . S
H2513 C2491 0.950 . S
C2514 C2515 1.349 . S
C2514 C2516 1.327 . S
C2514 H2539 0.950 . S
C2515 C2514 1.349 . S
C2515 C2531 1.349 . S
C2516 C2514 1.327 . S
C2516 C2535 1.429 . S
C2516 H2540 0.950 . S
C2517 C2534 1.574 . S
C2517 C2536 1.368 . S
C2517 H2541 0.949 . S
H2518 C2522 0.949 . S
C2519 C2520 1.349 . S
C2519 C2521 1.327 . S
C2519 H2542 0.950 . S
C2520 C2519 1.349 . S
C2520 C2532 1.349 . S
C2521 C2519 1.327 . S
C2521 C2537 1.429 . S
C2521 H2543 0.950 . S
C2522 H2518 0.949 . S
C2522 C2530 1.574 . S
C2522 C2538 1.368 . S
H2523 C2531 0.950 . S
H2524 C2529 0.950 . S
H2525 C2530 0.949 . S
H2526 C2532 0.950 . S
H2527 C2533 0.950 . S
H2528 C2534 0.949 . S
C2529 H2524 0.950 . S
C2529 C2531 1.327 . S
C2529 C2535 1.429 . S
C2530 C2522 1.574 . S
C2530 H2525 0.949 . S
C2530 C2536 1.368 . S
C2531 C2515 1.349 . S
C2531 H2523 0.950 . S
C2531 C2529 1.327 . S
C2532 C2520 1.349 . S
C2532 H2526 0.950 . S
C2532 C2533 1.327 . S
C2533 H2527 0.950 . S
C2533 C2532 1.327 . S
C2533 C2537 1.429 . S
C2534 C2517 1.574 . S
C2534 H2528 0.949 . S
C2534 C2538 1.368 . S
C2535 C2516 1.429 . S
C2535 C2529 1.429 . S
C2535 C2536 1.523 . S
C2536 C2517 1.368 . S
C2536 C2530 1.368 . S
C2536 C2535 1.523 . S
C2537 C2521 1.429 . S
C2537 C2533 1.429 . S
C2537 C2538 1.523 . S
C2538 C2522 1.368 . S
C2538 C2534 1.368 . S
C2538 C2537 1.523 . S
H2539 C2514 0.950 . S
H2540 C2516 0.950 . S
H2541 C2517 0.949 . S
H2542 C2519 0.950 . S
H2543 C2521 0.950 . S
C2544 C2545 1.349 . S
C2544 C2546 1.327 . S
C2544 H2569 0.950 . S
C2545 C2544 1.349 . S
C2545 C2561 1.349 . S
C2546 C2544 1.327 . S
C2546 C2565 1.429 . S
C2546 H2570 0.950 . S
C2547 C2564 1.574 1_545 S
C2547 C2566 1.368 . S
C2547 H2571 0.949 . S
H2548 C2552 0.949 . S
C2549 C2550 1.349 . S
C2549 C2551 1.327 . S
C2549 H2572 0.950 . S
C2550 C2549 1.349 . S
C2550 C2562 1.349 . S
C2551 C2549 1.327 . S
C2551 C2567 1.429 . S
C2551 H2573 0.950 . S
C2552 H2548 0.949 . S
C2552 C2560 1.574 1_565 S
C2552 C2568 1.368 . S
H2553 C2561 0.950 . S
H2554 C2559 0.950 . S
H2555 C2560 0.949 . S
H2556 C2562 0.950 . S
H2557 C2563 0.950 . S
H2558 C2564 0.949 . S
C2559 H2554 0.950 . S
C2559 C2561 1.327 . S
C2559 C2565 1.429 . S
C2560 C2552 1.574 1_545 S
C2560 H2555 0.949 . S
C2560 C2566 1.368 . S
C2561 C2545 1.349 . S
C2561 H2553 0.950 . S
C2561 C2559 1.327 . S
C2562 C2550 1.349 . S
C2562 H2556 0.950 . S
C2562 C2563 1.327 . S
C2563 H2557 0.950 . S
C2563 C2562 1.327 . S
C2563 C2567 1.429 . S
C2564 C2547 1.574 1_565 S
C2564 H2558 0.949 . S
C2564 C2568 1.368 . S
C2565 C2546 1.429 . S
C2565 C2559 1.429 . S
C2565 C2566 1.523 . S
C2566 C2547 1.368 . S
C2566 C2560 1.368 . S
C2566 C2565 1.523 . S
C2567 C2551 1.429 . S
C2567 C2563 1.429 . S
C2567 C2568 1.523 . S
C2568 C2552 1.368 . S
C2568 C2564 1.368 . S
C2568 C2567 1.523 . S
H2569 C2544 0.950 . S
H2570 C2546 0.950 . S
H2571 C2547 0.949 . S
H2572 C2549 0.950 . S
H2573 C2551 0.950 . S
C2574 C2575 1.349 . S
C2574 C2576 1.327 . S
C2574 H2599 0.950 . S
C2575 C2574 1.349 . S
C2575 C2591 1.349 . S
C2576 C2574 1.327 . S
C2576 C2595 1.429 . S
C2576 H2600 0.950 . S
C2577 C2594 1.574 1_545 S
C2577 C2596 1.368 1_554 S
C2577 H2601 0.949 . S
H2578 C2582 0.949 . S
C2579 C2580 1.349 . S
C2579 C2581 1.327 . S
C2579 H2602 0.950 . S
C2580 C2579 1.349 . S
C2580 C2592 1.349 . S
C2581 C2579 1.327 . S
C2581 C2597 1.429 . S
C2581 H2603 0.950 . S
C2582 H2578 0.949 . S
C2582 C2590 1.574 1_565 S
C2582 C2598 1.368 1_556 S
H2583 C2591 0.950 . S
H2584 C2589 0.950 1_554 S
H2585 C2590 0.949 . S
H2586 C2592 0.950 . S
H2587 C2593 0.950 1_556 S
H2588 C2594 0.949 . S
C2589 H2584 0.950 1_556 S
C2589 C2591 1.327 . S
C2589 C2595 1.429 . S
C2590 C2582 1.574 1_545 S
C2590 H2585 0.949 . S
C2590 C2596 1.368 . S
C2591 C2575 1.349 . S
C2591 H2583 0.950 . S
C2591 C2589 1.327 . S
C2592 C2580 1.349 . S
C2592 H2586 0.950 . S
C2592 C2593 1.327 . S
C2593 H2587 0.950 1_554 S
C2593 C2592 1.327 . S
C2593 C2597 1.429 . S
C2594 C2577 1.574 1_565 S
C2594 H2588 0.949 . S
C2594 C2598 1.368 . S
C2595 C2576 1.429 . S
C2595 C2589 1.429 . S
C2595 C2596 1.523 . S
C2596 C2577 1.368 1_556 S
C2596 C2590 1.368 . S
C2596 C2595 1.523 . S
C2597 C2581 1.429 . S
C2597 C2593 1.429 . S
C2597 C2598 1.523 . S
C2598 C2582 1.368 1_554 S
C2598 C2594 1.368 . S
C2598 C2597 1.523 . S
H2599 C2574 0.950 . S
H2600 C2576 0.950 . S
H2601 C2577 0.949 . S
H2602 C2579 0.950 . S
H2603 C2581 0.950 . S
C2604 C2605 1.349 . S
C2604 C2606 1.327 . S
C2604 H2629 0.950 . S
C2605 C2604 1.349 . S
C2605 C2621 1.349 . S
C2606 C2604 1.327 . S
C2606 C2625 1.429 . S
C2606 H2630 0.950 1_556 S
C2607 C2624 1.574 1_655 S
C2607 C2626 1.368 . S
C2607 H2631 0.949 . S
H2608 C2612 0.949 . S
C2609 C2610 1.349 . S
C2609 C2611 1.327 . S
C2609 H2632 0.950 . S
C2610 C2609 1.349 . S
C2610 C2622 1.349 . S
C2611 C2609 1.327 . S
C2611 C2627 1.429 . S
C2611 H2633 0.950 1_554 S
C2612 H2608 0.949 . S
C2612 C2620 1.574 1_455 S
C2612 C2628 1.368 . S
H2613 C2621 0.950 . S
H2614 C2619 0.950 . S
H2615 C2620 0.949 . S
H2616 C2622 0.950 . S
H2617 C2623 0.950 . S
H2618 C2624 0.949 . S
C2619 H2614 0.950 . S
C2619 C2621 1.327 . S
C2619 C2625 1.429 . S
C2620 C2612 1.574 1_655 S
C2620 H2615 0.949 . S
C2620 C2626 1.368 1_554 S
C2621 C2605 1.349 . S
C2621 H2613 0.950 . S
C2621 C2619 1.327 . S
C2622 C2610 1.349 . S
C2622 H2616 0.950 . S
C2622 C2623 1.327 . S
C2623 H2617 0.950 . S
C2623 C2622 1.327 . S
C2623 C2627 1.429 . S
C2624 C2607 1.574 1_455 S
C2624 H2618 0.949 . S
C2624 C2628 1.368 1_556 S
C2625 C2606 1.429 . S
C2625 C2619 1.429 . S
C2625 C2626 1.523 . S
C2626 C2607 1.368 . S
C2626 C2620 1.368 1_556 S
C2626 C2625 1.523 . S
C2627 C2611 1.429 . S
C2627 C2623 1.429 . S
C2627 C2628 1.523 . S
C2628 C2612 1.368 . S
C2628 C2624 1.368 1_554 S
C2628 C2627 1.523 . S
H2629 C2604 0.950 . S
H2630 C2606 0.950 1_554 S
H2631 C2607 0.949 . S
H2632 C2609 0.950 . S
H2633 C2611 0.950 1_556 S
C2634 C2635 1.349 . S
C2634 C2636 1.327 . S
C2634 H2659 0.950 . S
C2635 C2634 1.349 . S
C2635 C2651 1.349 . S
C2636 C2634 1.327 . S
C2636 C2655 1.429 . S
C2636 H2660 0.950 . S
C2637 C2654 1.574 1_556 S
C2637 C2656 1.368 . S
C2637 H2661 0.949 . S
H2638 C2642 0.949 . S
C2639 C2640 1.349 . S
C2639 C2641 1.327 . S
C2639 H2662 0.950 . S
C2640 C2639 1.349 . S
C2640 C2652 1.349 . S
C2641 C2639 1.327 . S
C2641 C2657 1.429 . S
C2641 H2663 0.950 . S
C2642 H2638 0.949 . S
C2642 C2650 1.574 1_554 S
C2642 C2658 1.368 . S
H2643 C2651 0.950 . S
H2644 C2649 0.950 . S
H2645 C2650 0.949 . S
H2646 C2652 0.950 . S
H2647 C2653 0.950 . S
H2648 C2654 0.949 . S
C2649 H2644 0.950 . S
C2649 C2651 1.327 . S
C2649 C2655 1.429 . S
C2650 C2642 1.574 1_556 S
C2650 H2645 0.949 . S
C2650 C2656 1.368 . S
C2651 C2635 1.349 . S
C2651 H2643 0.950 . S
C2651 C2649 1.327 . S
C2652 C2640 1.349 . S
C2652 H2646 0.950 . S
C2652 C2653 1.327 . S
C2653 H2647 0.950 . S
C2653 C2652 1.327 . S
C2653 C2657 1.429 . S
C2654 C2637 1.574 1_554 S
C2654 H2648 0.949 . S
C2654 C2658 1.368 . S
C2655 C2636 1.429 . S
C2655 C2649 1.429 . S
C2655 C2656 1.523 . S
C2656 C2637 1.368 . S
C2656 C2650 1.368 . S
C2656 C2655 1.523 . S
C2657 C2641 1.429 . S
C2657 C2653 1.429 . S
C2657 C2658 1.523 . S
C2658 C2642 1.368 . S
C2658 C2654 1.368 . S
C2658 C2657 1.523 . S
H2659 C2634 0.950 . S
H2660 C2636 0.950 . S
H2661 C2637 0.949 . S
H2662 C2639 0.950 . S
H2663 C2641 0.950 . S
C505 C0 1.254 . S
C510 C103 1.253 . S
C535 C14 1.254 . S
C540 C117 1.253 . S
C565 C89 1.253 . S
C570 C28 1.254 . S
C595 C159 1.253 . S
C600 C42 1.254 . S
C625 C56 1.254 . S
C630 C131 1.253 . S
C655 C70 1.254 . S
C660 C145 1.253 . S
C685 C19 1.253 . S
C690 C84 1.254 . S
C715 C33 1.253 . S
C720 C98 1.254 . S
C745 C112 1.254 . S
C750 C5 1.253 . S
C775 C126 1.254 . S
C780 C75 1.253 . S
C805 C47 1.253 . S
C810 C140 1.254 . S
C835 C154 1.254 . S
C840 C61 1.253 . S
C865 C271 1.253 . S
C870 C168 1.254 . S
C895 C182 1.254 . S
C900 C285 1.253 . S
C925 C196 1.254 . S
C930 C257 1.253 . S
C955 C327 1.253 . S
C960 C210 1.254 . S
C985 C224 1.254 . S
C990 C299 1.253 . S
C1015 C313 1.253 . S
C1020 C238 1.254 . S
C1045 C187 1.253 . S
C1050 C252 1.254 . S
C1075 C266 1.254 . S
C1080 C201 1.253 . S
C1105 C173 1.253 . S
C1110 C280 1.254 . S
C1135 C294 1.254 . S
C1140 C243 1.253 . S
C1165 C308 1.254 . S
C1170 C215 1.253 . S
C1195 C322 1.254 . S
C1200 C229 1.253 . S
C1225 C439 1.253 . S
C1230 C336 1.254 . S
C1255 C453 1.253 . S
C1260 C350 1.254 . S
C1285 C425 1.253 . S
C1290 C364 1.254 . S
C1315 C378 1.254 . S
C1320 C495 1.253 . S
C1345 C392 1.254 . S
C1350 C467 1.253 . S
C1375 C481 1.253 . S
C1380 C406 1.254 . S
C1405 C420 1.254 . S
C1410 C355 1.253 . S
C1435 C369 1.253 . S
C1440 C434 1.254 . S
C1465 C341 1.253 . S
C1470 C448 1.254 . S
C1495 C462 1.254 . S
C1500 C411 1.253 . S
C1525 C476 1.254 . S
C1530 C383 1.253 . S
C1555 C490 1.254 . S
C1560 C397 1.253 . S
C1585 C51 1.287 . S
C1590 C9 1.287 . S
C1615 C65 1.287 . S
C1620 C23 1.287 . S
C1645 C37 1.287 . S
C1650 C79 1.287 . S
C1675 C135 1.287 . S
C1680 C93 1.287 . S
C1705 C149 1.287 . S
C1710 C107 1.287 . S
C1735 C163 1.287 . S
C1740 C121 1.287 . S
C1765 C219 1.287 . S
C1770 C177 1.287 . S
C1795 C233 1.287 . S
C1800 C191 1.287 . S
C1825 C205 1.288 . S
C1830 C247 1.288 . S
C1855 C303 1.293 . S
C1860 C261 1.287 . S
C1885 C317 1.293 . S
C1890 C275 1.288 . S
C1915 C331 1.292 . S
C1920 C289 1.287 . S
C1945 C387 1.293 . S
C1950 C345 1.287 . S
C1975 C359 1.288 . S
C1980 C401 1.293 . S
C2005 C415 1.292 . S
C2010 C373 1.287 . S
C2035 C429 1.287 . S
C2040 C471 1.287 . S
C2065 C443 1.287 . S
C2070 C485 1.287 . S
C2095 C457 1.288 . S
C2100 C499 1.288 . S
C2125 C11 1.403 . S
C2130 C263 1.403 . S
C2155 C277 1.403 . S
C2160 C25 1.403 . S
C2185 C291 1.403 . S
C2190 C39 1.403 . S
C2215 C473 1.403 . S
C2220 C53 1.403 . S
C2245 C487 1.403 . S
C2250 C67 1.403 . S
C2275 C501 1.403 . S
C2280 C81 1.403 . S
C2305 C95 1.403 . S
C2310 C347 1.403 . S
C2335 C361 1.403 . S
C2340 C109 1.403 . S
C2365 C375 1.403 . S
C2370 C123 1.403 . S
C2395 C137 1.403 . S
C2400 C221 1.403 . S
C2425 C151 1.403 . S
C2430 C235 1.403 . S
C2455 C165 1.403 . S
C2460 C249 1.403 . S
C2485 C431 1.403 . S
C2490 C179 1.403 . S
C2515 C445 1.404 . S
C2520 C193 1.404 . S
C2545 C207 1.403 . S
C2550 C459 1.403 . S
C2575 C305 1.403 . S
C2580 C389 1.403 . S
C2605 C319 1.403 . S
C2610 C403 1.403 . S
C2635 C333 1.403 . S
C2640 C417 1.403 . S
