# Generated by pormake.
# Topology smd, (6)-cn, num edge types: 1
# Building blocks:
#     Node 0, Type 0, BuildingBlock: MIFKUJ_clean_sbu_0, # of connection points: 6
#     Node 1, Type 0, BuildingBlock: MIFKUJ_clean_sbu_0, # of connection points: 6
#     Node 2, Type 0, BuildingBlock: MIFKUJ_clean_sbu_0, # of connection points: 6
#     Node 3, Type 0, BuildingBlock: MIFKUJ_clean_sbu_0, # of connection points: 6
#     Node 4, Type 0, BuildingBlock: MIFKUJ_clean_sbu_0, # of connection points: 6
#     Node 5, Type 0, BuildingBlock: MIFKUJ_clean_sbu_0, # of connection points: 6
#     Node 6, Type 0, BuildingBlock: MIFKUJ_clean_sbu_0, # of connection points: 6
#     Node 7, Type 0, BuildingBlock: MIFKUJ_clean_sbu_0, # of connection points: 6
#     Node 8, Type 0, BuildingBlock: MIFKUJ_clean_sbu_0, # of connection points: 6
#     Node 9, Type 0, BuildingBlock: MIFKUJ_clean_sbu_0, # of connection points: 6
#     Node 10, Type 0, BuildingBlock: MIFKUJ_clean_sbu_0, # of connection points: 6
#     Node 11, Type 0, BuildingBlock: MIFKUJ_clean_sbu_0, # of connection points: 6
#     Node 12, Type 0, BuildingBlock: MIFKUJ_clean_sbu_0, # of connection points: 6
#     Node 13, Type 0, BuildingBlock: MIFKUJ_clean_sbu_0, # of connection points: 6
#     Node 14, Type 0, BuildingBlock: MIFKUJ_clean_sbu_0, # of connection points: 6
#     Node 15, Type 0, BuildingBlock: MIFKUJ_clean_sbu_0, # of connection points: 6
#     Node 16, Type 0, BuildingBlock: MIFKUJ_clean_sbu_0, # of connection points: 6
#     Node 17, Type 0, BuildingBlock: MIFKUJ_clean_sbu_0, # of connection points: 6
#     Edge 18, Type (0, 0), BuildingBlock: XUDNAN_clean_linker_2, # of connection points: 2
#     Edge 19, Type (0, 0), BuildingBlock: XUDNAN_clean_linker_2, # of connection points: 2
#     Edge 20, Type (0, 0), BuildingBlock: XUDNAN_clean_linker_2, # of connection points: 2
#     Edge 21, Type (0, 0), BuildingBlock: XUDNAN_clean_linker_2, # of connection points: 2
#     Edge 22, Type (0, 0), BuildingBlock: XUDNAN_clean_linker_2, # of connection points: 2
#     Edge 23, Type (0, 0), BuildingBlock: XUDNAN_clean_linker_2, # of connection points: 2
#     Edge 24, Type (0, 0), BuildingBlock: XUDNAN_clean_linker_2, # of connection points: 2
#     Edge 25, Type (0, 0), BuildingBlock: XUDNAN_clean_linker_2, # of connection points: 2
#     Edge 26, Type (0, 0), BuildingBlock: XUDNAN_clean_linker_2, # of connection points: 2
#     Edge 27, Type (0, 0), BuildingBlock: XUDNAN_clean_linker_2, # of connection points: 2
#     Edge 28, Type (0, 0), BuildingBlock: XUDNAN_clean_linker_2, # of connection points: 2
#     Edge 29, Type (0, 0), BuildingBlock: XUDNAN_clean_linker_2, # of connection points: 2
#     Edge 30, Type (0, 0), BuildingBlock: XUDNAN_clean_linker_2, # of connection points: 2
#     Edge 31, Type (0, 0), BuildingBlock: XUDNAN_clean_linker_2, # of connection points: 2
#     Edge 32, Type (0, 0), BuildingBlock: XUDNAN_clean_linker_2, # of connection points: 2
#     Edge 33, Type (0, 0), BuildingBlock: XUDNAN_clean_linker_2, # of connection points: 2
#     Edge 34, Type (0, 0), BuildingBlock: XUDNAN_clean_linker_2, # of connection points: 2
#     Edge 35, Type (0, 0), BuildingBlock: XUDNAN_clean_linker_2, # of connection points: 2
#     Edge 36, Type (0, 0), BuildingBlock: XUDNAN_clean_linker_2, # of connection points: 2
#     Edge 37, Type (0, 0), BuildingBlock: XUDNAN_clean_linker_2, # of connection points: 2
#     Edge 38, Type (0, 0), BuildingBlock: XUDNAN_clean_linker_2, # of connection points: 2
#     Edge 39, Type (0, 0), BuildingBlock: XUDNAN_clean_linker_2, # of connection points: 2
#     Edge 40, Type (0, 0), BuildingBlock: XUDNAN_clean_linker_2, # of connection points: 2
#     Edge 41, Type (0, 0), BuildingBlock: XUDNAN_clean_linker_2, # of connection points: 2
#     Edge 42, Type (0, 0), BuildingBlock: XUDNAN_clean_linker_2, # of connection points: 2
#     Edge 43, Type (0, 0), BuildingBlock: XUDNAN_clean_linker_2, # of connection points: 2
#     Edge 44, Type (0, 0), BuildingBlock: XUDNAN_clean_linker_2, # of connection points: 2
#     Edge 45, Type (0, 0), BuildingBlock: XUDNAN_clean_linker_2, # of connection points: 2
#     Edge 46, Type (0, 0), BuildingBlock: XUDNAN_clean_linker_2, # of connection points: 2
#     Edge 47, Type (0, 0), BuildingBlock: XUDNAN_clean_linker_2, # of connection points: 2
#     Edge 48, Type (0, 0), BuildingBlock: XUDNAN_clean_linker_2, # of connection points: 2
#     Edge 49, Type (0, 0), BuildingBlock: XUDNAN_clean_linker_2, # of connection points: 2
#     Edge 50, Type (0, 0), BuildingBlock: XUDNAN_clean_linker_2, # of connection points: 2
#     Edge 51, Type (0, 0), BuildingBlock: XUDNAN_clean_linker_2, # of connection points: 2
#     Edge 52, Type (0, 0), BuildingBlock: XUDNAN_clean_linker_2, # of connection points: 2
#     Edge 53, Type (0, 0), BuildingBlock: XUDNAN_clean_linker_2, # of connection points: 2
#     Edge 54, Type (0, 0), BuildingBlock: XUDNAN_clean_linker_2, # of connection points: 2
#     Edge 55, Type (0, 0), BuildingBlock: XUDNAN_clean_linker_2, # of connection points: 2
#     Edge 56, Type (0, 0), BuildingBlock: XUDNAN_clean_linker_2, # of connection points: 2
#     Edge 57, Type (0, 0), BuildingBlock: XUDNAN_clean_linker_2, # of connection points: 2
#     Edge 58, Type (0, 0), BuildingBlock: XUDNAN_clean_linker_2, # of connection points: 2
#     Edge 59, Type (0, 0), BuildingBlock: XUDNAN_clean_linker_2, # of connection points: 2
#     Edge 60, Type (0, 0), BuildingBlock: XUDNAN_clean_linker_2, # of connection points: 2
#     Edge 61, Type (0, 0), BuildingBlock: XUDNAN_clean_linker_2, # of connection points: 2
#     Edge 62, Type (0, 0), BuildingBlock: XUDNAN_clean_linker_2, # of connection points: 2
#     Edge 63, Type (0, 0), BuildingBlock: XUDNAN_clean_linker_2, # of connection points: 2
#     Edge 64, Type (0, 0), BuildingBlock: XUDNAN_clean_linker_2, # of connection points: 2
#     Edge 65, Type (0, 0), BuildingBlock: XUDNAN_clean_linker_2, # of connection points: 2
#     Edge 66, Type (0, 0), BuildingBlock: XUDNAN_clean_linker_2, # of connection points: 2
#     Edge 67, Type (0, 0), BuildingBlock: XUDNAN_clean_linker_2, # of connection points: 2
#     Edge 68, Type (0, 0), BuildingBlock: XUDNAN_clean_linker_2, # of connection points: 2
#     Edge 69, Type (0, 0), BuildingBlock: XUDNAN_clean_linker_2, # of connection points: 2
#     Edge 70, Type (0, 0), BuildingBlock: XUDNAN_clean_linker_2, # of connection points: 2
#     Edge 71, Type (0, 0), BuildingBlock: XUDNAN_clean_linker_2, # of connection points: 2
# Relax obj value: 0.198
# Max RMSD: 0.244
# Mean RMSD: 0.244
data_MOF--net-smd--node1-MIFKUJ_clean_sbu_0--edge1-XUDNAN_clean_linker_2
_symmetry_space_group_name_H-M    P1
_symmetry_Int_Tables_number       1
_symmetry_cell_setting            triclinic
loop_
_symmetry_equiv_pos_as_xyz
'x, y, z'
_cell_length_a     71.49175
_cell_length_b     71.447865
_cell_length_c     18.293348
_cell_angle_alpha  89.977132
_cell_angle_beta   90.000877
_cell_angle_gamma 119.97488
loop_
_atom_site_label
_atom_site_type_symbol
_atom_site_fract_x
_atom_site_fract_y
_atom_site_fract_z
_atom_type_partial_charge
Zn0 Zn 0.01679 0.24883 0.57466 0.0
Zn1 Zn 0.03671 0.23924 0.38189 0.0
C2 C 0.99765 0.27056 0.64916 0.0
O3 O 0.01749 0.28689 0.64502 0.0
C4 C 0.0615 0.22925 0.48504 0.0
O5 O 0.04483 0.22362 0.52812 0.0
O6 O 0.03531 0.24924 0.65886 0.0
O7 O 0.00076 0.21995 0.52619 0.0
O8 O 0.00854 0.21335 0.4148 0.0
C9 C 0.02481 0.23651 0.71109 0.0
O10 O 0.00405 0.22306 0.70233 0.0
O11 O 0.99335 0.25239 0.62284 0.0
C12 C 0.0549 0.24924 0.23691 0.0
O13 O 0.07199 0.26335 0.27351 0.0
O14 O 0.03771 0.23676 0.27187 0.0
O15 O 0.04154 0.2693 0.39864 0.0
O16 O 0.03165 0.2746 0.50841 0.0
O17 O 0.06164 0.23675 0.42194 0.0
C18 C 0.99699 0.20733 0.47236 0.0
C19 C 0.03991 0.2815 0.44572 0.0
Zn20 Zn 0.78775 0.79378 0.57918 0.0
Zn21 Zn 0.80243 0.81944 0.38692 0.0
C22 C 0.76932 0.74751 0.59816 0.0
O23 O 0.76606 0.74703 0.52733 0.0
C24 C 0.79756 0.85572 0.41827 0.0
O25 O 0.78517 0.84826 0.36021 0.0
O26 O 0.79124 0.81339 0.66499 0.0
O27 O 0.81593 0.80009 0.53366 0.0
O28 O 0.8246 0.81165 0.41931 0.0
C29 C 0.80945 0.82374 0.69694 0.0
O30 O 0.82645 0.8247 0.66577 0.0
O31 O 0.77835 0.76558 0.6311 0.0
C32 C 0.79448 0.82166 0.22908 0.0
O33 O 0.77405 0.8097 0.247 0.0
O34 O 0.80883 0.82767 0.27884 0.0
O35 O 0.7711 0.7965 0.39516 0.0
O36 O 0.76259 0.78661 0.5116 0.0
O37 O 0.80691 0.84576 0.44189 0.0
C38 C 0.82873 0.80557 0.47948 0.0
C39 C 0.75722 0.78653 0.44513 0.0
Zn40 Zn 0.23583 0.01412 0.60035 0.0
Zn41 Zn 0.19883 0.99884 0.41705 0.0
C42 C 0.28253 0.04219 0.60945 0.0
O43 O 0.28226 0.03722 0.54017 0.0
C44 C 0.16312 0.95748 0.44251 0.0
O45 O 0.17194 0.95383 0.38527 0.0
O46 O 0.21777 0.99941 0.69133 0.0
O47 O 0.22751 0.03382 0.54963 0.0
O48 O 0.20754 0.0291 0.4511 0.0
C49 C 0.20662 0.00659 0.72203 0.0
O50 O 0.20407 0.02139 0.68823 0.0
O51 O 0.26486 0.03431 0.64448 0.0
C52 C 0.20407 0.99548 0.25772 0.0
O53 O 0.22081 0.99382 0.2779 0.0
O54 O 0.19259 0.99768 0.30668 0.0
O55 O 0.22107 0.98959 0.43141 0.0
O56 O 0.24089 0.99488 0.53149 0.0
O57 O 0.17174 0.97657 0.46796 0.0
C58 C 0.21902 0.04076 0.50392 0.0
C59 C 0.2351 0.98733 0.46716 0.0
Zn60 Zn 0.99199 0.79228 0.66733 0.0
Zn61 Zn 0.0075 0.78142 0.4752 0.0
C62 C 0.95791 0.80271 0.64459 0.0
O63 O 0.96128 0.80819 0.71387 0.0
C64 C 0.03925 0.7674 0.44625 0.0
O65 O 0.04017 0.76572 0.51752 0.0
O66 O 0.98975 0.79558 0.77731 0.0
O67 O 0.98471 0.76131 0.65496 0.0
O68 O 0.99012 0.75549 0.53949 0.0
C69 C 0.9735 0.7816 0.81336 0.0
O70 O 0.95769 0.76538 0.77816 0.0
O71 O 0.96929 0.79593 0.61337 0.0
C72 C 0.00112 0.79634 0.3405 0.0
O73 O 0.02218 0.80795 0.3484 0.0
O74 O 0.98994 0.7843 0.39331 0.0
O75 O 0.02778 0.80975 0.52329 0.0
O76 O 0.0215 0.81628 0.63677 0.0
O77 O 0.02694 0.77368 0.41929 0.0
C78 C 0.98302 0.74862 0.60345 0.0
C79 C 0.03313 0.82183 0.57942 0.0
Zn80 Zn 0.22722 0.21734 0.6384 0.0
Zn81 Zn 0.23523 0.23878 0.45441 0.0
C82 C 0.21793 0.17652 0.56611 0.0
O83 O 0.19826 0.17304 0.55593 0.0
C84 C 0.25933 0.28116 0.38278 0.0
O85 O 0.26908 0.27262 0.34642 0.0
O86 O 0.22484 0.21306 0.74707 0.0
O87 O 0.25353 0.24628 0.62409 0.0
O88 O 0.26016 0.24006 0.51184 0.0
C89 C 0.23622 0.20703 0.78235 0.0
O90 O 0.24976 0.20298 0.74671 0.0
O91 O 0.23196 0.194 0.59608 0.0
C92 C 0.22307 0.2256 0.30618 0.0
O93 O 0.21277 0.23636 0.31521 0.0
O94 O 0.23333 0.22374 0.35976 0.0
O95 O 0.20504 0.22772 0.49508 0.0
O96 O 0.19961 0.21521 0.60833 0.0
O97 O 0.24497 0.2698 0.42971 0.0
C98 C 0.26681 0.24802 0.57499 0.0
C99 C 0.19286 0.21966 0.55053 0.0
Zn100 Zn 0.82779 0.03678 0.64465 0.0
Zn101 Zn 0.79346 0.01961 0.45784 0.0
C102 C 0.87288 0.06989 0.62465 0.0
O103 O 0.87485 0.06565 0.69316 0.0
C104 C 0.74698 0.99261 0.42838 0.0
O105 O 0.74431 0.9998 0.49137 0.0
O106 O 0.8318 0.0382 0.75603 0.0
O107 O 0.80439 0.0439 0.62734 0.0
O108 O 0.78519 0.03701 0.52531 0.0
C109 C 0.83589 0.05511 0.79195 0.0
O110 O 0.83873 0.07226 0.75597 0.0
O111 O 0.85467 0.05936 0.59319 0.0
C112 C 0.81329 0.02543 0.31946 0.0
O113 O 0.80362 0.00436 0.32782 0.0
O114 O 0.81294 0.03684 0.37257 0.0
O115 O 0.80299 1.00041 0.50707 0.0
O116 O 0.82105 0.00723 0.61174 0.0
O117 O 0.76596 0.9987 0.40573 0.0
C118 C 0.78991 0.04478 0.5897 0.0
C119 C 0.8118 0.99506 0.55709 0.0
Zn120 Zn 0.68405 0.57109 0.9032 0.0
Zn121 Zn 0.6944 0.55666 0.72103 0.0
C122 C 0.66645 0.59771 0.95916 0.0
O123 O 0.68128 0.60357 0.01014 0.0
C124 C 0.71726 0.53573 0.75445 0.0
O125 O 0.70036 0.52102 0.71856 0.0
O126 O 0.69306 0.56949 0.00619 0.0
O127 O 0.66336 0.54048 0.86954 0.0
O128 O 0.66612 0.53244 0.75446 0.0
C129 C 0.69247 0.55267 0.03184 0.0
O130 O 0.6869 0.53598 0.98884 0.0
O131 O 0.66524 0.58471 0.90938 0.0
C132 C 0.70341 0.56617 0.56512 0.0
O133 O 0.71133 0.58639 0.58507 0.0
O134 O 0.69562 0.55136 0.61324 0.0
O135 O 0.69837 0.58636 0.73156 0.0
O136 O 0.71047 0.59192 0.84467 0.0
O137 O 0.71862 0.55389 0.76693 0.0
C138 C 0.65666 0.52741 0.81593 0.0
C139 C 0.70844 0.59922 0.78363 0.0
Zn140 Zn 0.46714 0.13797 0.89236 0.0
Zn141 Zn 0.47467 0.15005 0.71953 0.0
C142 C 0.44391 0.09474 0.94525 0.0
O143 O 0.43343 0.10285 0.97965 0.0
C144 C 0.46928 0.18568 0.7554 0.0
O145 O 0.4569 0.17809 0.69734 0.0
O146 O 0.46808 0.14823 0.9962 0.0
O147 O 0.49863 0.15409 0.85645 0.0
O148 O 0.49462 0.13964 0.7479 0.0
C149 C 0.4844 0.15176 0.03435 0.0
O150 O 0.49959 0.14906 0.00456 0.0
O151 O 0.45942 0.10688 0.90303 0.0
C152 C 0.46703 0.1533 0.56345 0.0
O153 O 0.44646 0.14211 0.58059 0.0
O154 O 0.48117 0.15855 0.61336 0.0
O155 O 0.44425 0.12714 0.72821 0.0
O156 O 0.44073 0.1363 0.84055 0.0
O157 O 0.47931 0.17623 0.77759 0.0
C158 C 0.50543 0.14673 0.80611 0.0
C159 C 0.43242 0.12715 0.77978 0.0
Zn160 Zn 0.88549 0.33812 0.91294 0.0
Zn161 Zn 0.87753 0.34053 0.74383 0.0
C162 C 0.93074 0.35863 0.94963 0.0
O163 O 0.92376 0.3421 0.99444 0.0
C164 C 0.83209 0.31536 0.78726 0.0
O165 O 0.83201 0.33336 0.77361 0.0
O166 O 0.87837 0.32763 0.0171 0.0
O167 O 0.86822 0.35325 0.89197 0.0
O168 O 0.88099 0.36815 0.78424 0.0
C169 C 0.88112 0.34092 0.06789 0.0
O170 O 0.88838 0.3613 0.05114 0.0
O171 O 0.91723 0.3607 0.91012 0.0
C172 C 0.87035 0.32295 0.60193 0.0
O173 O 0.86648 0.30611 0.64195 0.0
O174 O 0.87551 0.34071 0.63381 0.0
O175 O 0.90225 0.33575 0.76496 0.0
O176 O 0.88335 0.31322 0.85247 0.0
O177 O 0.84942 0.31472 0.77911 0.0
C178 C 0.87236 0.36801 0.84504 0.0
C179 C 0.89783 0.31929 0.80343 0.0
Zn180 Zn 0.67227 0.13902 0.99033 0.0
Zn181 Zn 0.68077 0.12963 0.80969 0.0
C182 C 0.63754 0.14782 0.96345 0.0
O183 O 0.64618 0.1608 0.01962 0.0
C184 C 0.69778 0.10414 0.7415 0.0
O185 O 0.68065 0.09683 0.69942 0.0
O186 O 0.66948 0.14093 0.09898 0.0
O187 O 0.67373 0.11193 0.97399 0.0
O188 O 0.65612 0.10666 0.87093 0.0
C189 C 0.65219 0.12833 0.13302 0.0
O190 O 0.63535 0.11394 0.09608 0.0
O191 O 0.64594 0.13683 0.94104 0.0
C192 C 0.6802 0.1409 0.65968 0.0
O193 O 0.70116 0.15216 0.67049 0.0
O194 O 0.66797 0.1303 0.71261 0.0
O195 O 0.7006 0.16087 0.84229 0.0
O196 O 0.69794 0.16654 0.96003 0.0
O197 O 0.7008 0.11784 0.79118 0.0
C198 C 0.65993 0.09913 0.92837 0.0
C199 C 0.70667 0.17321 0.89795 0.0
Zn200 Zn 0.88594 0.54388 0.94926 0.0
Zn201 Zn 0.89502 0.55096 0.7719 0.0
C202 C 0.86279 0.49848 0.93058 0.0
O203 O 0.84927 0.50135 0.97122 0.0
C204 C 0.90998 0.5986 0.78194 0.0
O205 O 0.91247 0.59802 0.85286 0.0
O206 O 0.87986 0.53851 0.05799 0.0
O207 O 0.91698 0.56566 0.93615 0.0
O208 O 0.92087 0.55377 0.82883 0.0
C209 C 0.89405 0.54621 0.10823 0.0
O210 O 0.91426 0.5597 0.09096 0.0
O211 O 0.88016 0.51499 0.90949 0.0
C212 C 0.8786 0.52451 0.63961 0.0
O213 O 0.86068 0.51375 0.67736 0.0
O214 O 0.89531 0.53943 0.67084 0.0
O215 O 0.86376 0.53454 0.8071 0.0
O216 O 0.86503 0.55204 0.90759 0.0
O217 O 0.90255 0.58132 0.74471 0.0
C218 C 0.92893 0.56423 0.88777 0.0
C219 C 0.85495 0.54156 0.8512 0.0
Zn220 Zn 0.48411 0.35968 0.9981 0.0
Zn221 Zn 0.45913 0.34644 0.80539 0.0
C222 C 0.52895 0.39332 0.97663 0.0
O223 O 0.53106 0.38941 0.04536 0.0
C224 C 0.41293 0.31946 0.78367 0.0
O225 O 0.41207 0.32239 0.85422 0.0
O226 O 0.4897 0.36168 0.10774 0.0
O227 O 0.46094 0.36784 0.9869 0.0
O228 O 0.45182 0.36475 0.86949 0.0
C229 C 0.49266 0.37825 0.14339 0.0
O230 O 0.49283 0.39433 0.10789 0.0
O231 O 0.51076 0.38233 0.94523 0.0
C232 C 0.47982 0.35157 0.6704 0.0
O233 O 0.46956 0.33048 0.67879 0.0
O234 O 0.47958 0.36317 0.72285 0.0
O235 O 0.46584 0.32511 0.85271 0.0
O236 O 0.47787 0.32986 0.96695 0.0
O237 O 0.4312 0.32785 0.75217 0.0
C238 C 0.45141 0.37116 0.93398 0.0
C239 C 0.4718 0.31877 0.90837 0.0
Zn240 Zn 0.34686 0.91231 0.1928 0.0
Zn241 Zn 0.3697 0.89497 0.01166 0.0
C242 C 0.32749 0.93354 0.27123 0.0
O243 O 0.34598 0.94255 0.30645 0.0
C244 C 0.39434 0.87361 0.01171 0.0
O245 O 0.37922 0.86132 0.96484 0.0
O246 O 0.35959 0.91002 0.28913 0.0
O247 O 0.33018 0.88245 0.14877 0.0
O248 O 0.34129 0.87199 0.05174 0.0
C249 C 0.34592 0.89465 0.32897 0.0
O250 O 0.32631 0.88227 0.30368 0.0
O251 O 0.32433 0.92024 0.21998 0.0
C252 C 0.37693 0.90425 0.85296 0.0
O253 O 0.39221 0.92369 0.87169 0.0
O254 O 0.36614 0.89054 0.90241 0.0
O255 O 0.37911 0.92611 0.03189 0.0
O256 O 0.36828 0.93688 0.12913 0.0
O257 O 0.39345 0.88917 0.04185 0.0
C258 C 0.32759 0.86822 0.10192 0.0
C259 C 0.37928 0.94097 0.0706 0.0
Zn260 Zn 0.11853 0.45893 0.13215 0.0
Zn261 Zn 0.1326 0.48755 0.94126 0.0
C262 C 0.09332 0.4256 0.23128 0.0
O263 O 0.08532 0.43849 0.23983 0.0
C264 C 0.14302 0.52582 0.0381 0.0
O265 O 0.15954 0.5251 0.06629 0.0
O266 O 0.12159 0.47905 0.2167 0.0
O267 O 0.14768 0.46681 0.08993 0.0
O268 O 0.15631 0.48291 0.98131 0.0
C269 C 0.1397 0.48928 0.24948 0.0
O270 O 0.1567 0.48993 0.21952 0.0
O271 O 0.10847 0.43071 0.18534 0.0
C272 C 0.12544 0.4894 0.78258 0.0
O273 O 0.10497 0.4784 0.80082 0.0
O274 O 0.13973 0.49513 0.83251 0.0
O275 O 0.10208 0.46266 0.94689 0.0
O276 O 0.09364 0.45084 0.06163 0.0
O277 O 0.13157 0.51236 0.989 0.0
C278 C 0.16083 0.47524 0.03699 0.0
C279 C 0.08828 0.45126 0.99545 0.0
Zn280 Zn 0.56647 0.68144 0.19654 0.0
Zn281 Zn 0.53385 0.66565 0.00839 0.0
C282 C 0.61312 0.70831 0.22035 0.0
O283 O 0.61479 0.70647 0.14952 0.0
C284 C 0.49967 0.64244 0.11782 0.0
O285 O 0.51084 0.65952 0.15913 0.0
O286 O 0.54643 0.66555 0.28246 0.0
O287 O 0.55994 0.70323 0.15058 0.0
O288 O 0.54172 0.6954 0.04597 0.0
C289 C 0.5386 0.67558 0.31694 0.0
O290 O 0.54087 0.69351 0.2888 0.0
O291 O 0.59453 0.69943 0.24969 0.0
C292 C 0.53303 0.65714 0.84884 0.0
O293 O 0.54267 0.64631 0.86735 0.0
O294 O 0.52786 0.6662 0.89869 0.0
O295 O 0.55664 0.657 0.01899 0.0
O296 O 0.57312 0.66334 0.12712 0.0
O297 O 0.50637 0.64207 0.05379 0.0
C298 C 0.5514 0.70826 0.09878 0.0
C299 C 0.56983 0.65566 0.06253 0.0
Zn300 Zn 0.3218 0.47787 0.2924 0.0
Zn301 Zn 0.34458 0.46207 0.11178 0.0
C302 C 0.29787 0.48362 0.17506 0.0
O303 O 0.31379 0.48507 0.13506 0.0
C304 C 0.3731 0.44343 0.10738 0.0
O305 O 0.3687 0.43964 0.17737 0.0
O306 O 0.3209 0.48284 0.40282 0.0
O307 O 0.31455 0.44723 0.27824 0.0
O308 O 0.3252 0.43709 0.17902 0.0
C309 C 0.31956 0.4695 0.45183 0.0
O310 O 0.31847 0.45134 0.43167 0.0
O311 O 0.2982 0.4811 0.24374 0.0
C312 C 0.3357 0.48166 0.98596 0.0
O313 O 0.34983 0.49967 0.01817 0.0
O314 O 0.32968 0.46373 0.01832 0.0
O315 O 0.36326 0.49168 0.1578 0.0
O316 O 0.3512 0.50058 0.2567 0.0
O317 O 0.36526 0.45316 0.07144 0.0
C318 C 0.31517 0.43276 0.23975 0.0
C319 C 0.36557 0.50503 0.20807 0.0
Zn320 Zn 0.56337 0.88853 0.23002 0.0
Zn321 Zn 0.57601 0.90006 0.06293 0.0
C322 C 0.56877 0.8506 0.21536 0.0
O323 O 0.58005 0.85794 0.27576 0.0
C324 C 0.59969 0.94649 0.05607 0.0
O325 O 0.61605 0.94298 0.05488 0.0
O326 O 0.55666 0.88352 0.33781 0.0
O327 O 0.59345 0.91278 0.22137 0.0
O328 O 0.60092 0.90081 0.12097 0.0
C329 C 0.57115 0.88816 0.38609 0.0
O330 O 0.59135 0.89622 0.3657 0.0
O331 O 0.56058 0.86105 0.18636 0.0
C332 C 0.56265 0.89387 0.9195 0.0
O333 O 0.54888 0.89793 0.95354 0.0
O334 O 0.57795 0.89411 0.95587 0.0
O335 O 0.54446 0.87866 0.08723 0.0
O336 O 0.54125 0.89434 0.18549 0.0
O337 O 0.58061 0.93049 0.06217 0.0
C338 C 0.60699 0.91112 0.18117 0.0
C339 C 0.53329 0.88403 0.12673 0.0
Zn340 Zn 0.15499 0.69702 0.2539 0.0
Zn341 Zn 0.12456 0.68418 0.06275 0.0
C342 C 0.19987 0.73123 0.24024 0.0
O343 O 0.20041 0.728 0.31065 0.0
C344 C 0.0789 0.65432 0.05064 0.0
O345 O 0.07942 0.658 0.12118 0.0
O346 O 0.15897 0.69853 0.36441 0.0
O347 O 0.13232 0.70601 0.23826 0.0
O348 O 0.11805 0.70275 0.12734 0.0
C349 C 0.16064 0.71468 0.39957 0.0
O350 O 0.16055 0.73049 0.36315 0.0
O351 O 0.18261 0.71949 0.20457 0.0
C352 C 0.14498 0.68858 0.92705 0.0
O353 O 0.13476 0.66751 0.93601 0.0
O354 O 0.14469 0.7003 0.97895 0.0
O355 O 0.13193 0.66481 0.11758 0.0
O356 O 0.14787 0.6668 0.22288 0.0
O357 O 0.09632 0.66385 0.01408 0.0
C358 C 0.12032 0.70892 0.19357 0.0
C359 C 0.13865 0.6566 0.16483 0.0
H360 H 0.09652 0.3894 0.20379 0.0
H361 H 0.07055 0.41673 0.35801 0.0
H362 H 0.05526 0.38336 0.43134 0.0
H363 H 0.05097 0.33588 0.20766 0.0
H364 H 0.06671 0.3226 0.20057 0.0
H365 H 0.07676 0.34911 0.16193 0.0
H366 H 0.11182 0.36343 0.23823 0.0
H367 H 0.10187 0.33693 0.27702 0.0
H368 H 0.11 0.35992 0.33608 0.0
H369 H 0.04231 0.34716 0.48689 0.0
H370 H 0.03133 0.30965 0.51953 0.0
H371 H 0.0646 0.3049 0.32782 0.0
C372 C 0.08779 0.3884 0.25336 0.0
C373 C 0.08478 0.40568 0.27543 0.0
C374 C 0.07301 0.40368 0.34003 0.0
C375 C 0.06431 0.38482 0.38219 0.0
C376 C 0.06739 0.36802 0.35871 0.0
C377 C 0.07874 0.36953 0.29572 0.0
C378 C 0.07888 0.34869 0.2814 0.0
C379 C 0.06766 0.33847 0.20858 0.0
C380 C 0.10202 0.35248 0.28332 0.0
C381 C 0.06578 0.33526 0.34606 0.0
C382 C 0.05948 0.34682 0.39016 0.0
C383 C 0.04719 0.33793 0.45294 0.0
C384 C 0.04108 0.3166 0.47112 0.0
C385 C 0.04712 0.30427 0.42647 0.0
C386 C 0.05968 0.31384 0.36311 0.0
H387 H 0.73946 0.77505 0.30772 0.0
H388 H 0.72243 0.77003 0.53765 0.0
H389 H 0.68381 0.74999 0.50474 0.0
H390 H 0.69662 0.78271 0.23946 0.0
H391 H 0.69232 0.76665 0.15858 0.0
H392 H 0.71867 0.78071 0.20007 0.0
H393 H 0.719 0.74472 0.21046 0.0
H394 H 0.69266 0.73052 0.16896 0.0
H395 H 0.69717 0.72208 0.25688 0.0
H396 H 0.64713 0.73087 0.44713 0.0
H397 H 0.61478 0.71273 0.3691 0.0
H398 H 0.65564 0.72978 0.17649 0.0
C399 C 0.72765 0.76989 0.35121 0.0
C400 C 0.73403 0.77428 0.4253 0.0
C401 C 0.71798 0.76688 0.48052 0.0
C402 C 0.69599 0.75553 0.46238 0.0
C403 C 0.69029 0.75159 0.38885 0.0
C404 C 0.70564 0.75843 0.33414 0.0
C405 C 0.6952 0.75175 0.25943 0.0
C406 C 0.70105 0.77164 0.21159 0.0
C407 C 0.70138 0.73635 0.22174 0.0
C408 C 0.67156 0.74015 0.28071 0.0
C409 C 0.66911 0.7403 0.35561 0.0
C410 C 0.64884 0.73061 0.38841 0.0
C411 C 0.63055 0.72037 0.34353 0.0
C412 C 0.63264 0.71981 0.26659 0.0
C413 C 0.65348 0.72992 0.23503 0.0
H414 H 0.27386 0.98994 0.50029 0.0
H415 H 0.21893 0.9588 0.35348 0.0
H416 H 0.23631 0.94117 0.28908 0.0
H417 H 0.31406 0.00095 0.36613 0.0
H418 H 0.33104 0.99581 0.42589 0.0
H419 H 0.31385 0.00515 0.46324 0.0
H420 H 0.29623 0.97205 0.54986 0.0
H421 H 0.31344 0.96264 0.51304 0.0
H422 H 0.28454 0.94521 0.51213 0.0
H423 H 0.2599 0.92763 0.23858 0.0
H424 H 0.28828 0.91914 0.20507 0.0
H425 H 0.32815 0.95944 0.38342 0.0
C426 C 0.26536 0.97919 0.45522 0.0
C427 C 0.24503 0.97576 0.43189 0.0
C428 C 0.23458 0.9618 0.372 0.0
C429 C 0.24428 0.95165 0.33521 0.0
C430 C 0.26445 0.95561 0.35886 0.0
C431 C 0.27488 0.96902 0.41749 0.0
C432 C 0.29679 0.97109 0.43021 0.0
C433 C 0.31501 0.99465 0.42078 0.0
C434 C 0.2978 0.96221 0.50579 0.0
C435 C 0.29706 0.95684 0.36936 0.0
C436 C 0.2782 0.948 0.32909 0.0
C437 C 0.27473 0.93441 0.2698 0.0
C438 C 0.29096 0.9297 0.25116 0.0
C439 C 0.31046 0.93862 0.2915 0.0
C440 C 0.31345 0.95236 0.35139 0.0
H441 H 0.32352 0.05839 0.55523 0.0
H442 H 0.28832 0.05783 0.74942 0.0
H443 H 0.32282 0.0806 0.81354 0.0
H444 H 0.36507 0.05444 0.64803 0.0
H445 H 0.38607 0.07197 0.58558 0.0
H446 H 0.3586 0.05648 0.55417 0.0
H447 H 0.36007 0.09164 0.50947 0.0
H448 H 0.38755 0.10723 0.54084 0.0
H449 H 0.36752 0.11359 0.57274 0.0
H450 H 0.36146 0.10275 0.85768 0.0
H451 H 0.40097 0.12202 0.87796 0.0
H452 H 0.4103 0.10756 0.65482 0.0
C453 C 0.32303 0.06319 0.61103 0.0
C454 C 0.30321 0.05636 0.64719 0.0
C455 C 0.30331 0.06286 0.72051 0.0
C456 C 0.32283 0.07583 0.7574 0.0
C457 C 0.34209 0.08217 0.72027 0.0
C458 C 0.34233 0.07606 0.64869 0.0
C459 C 0.36516 0.08445 0.62177 0.0
C460 C 0.36894 0.06572 0.60121 0.0
C461 C 0.37038 0.10017 0.55741 0.0
C462 C 0.37772 0.09612 0.68949 0.0
C463 C 0.36419 0.09473 0.7457 0.0
C464 C 0.37222 0.10402 0.81391 0.0
C465 C 0.39467 0.11494 0.82493 0.0
C466 C 0.40878 0.11639 0.76803 0.0
C467 C 0.40004 0.10688 0.6995 0.0
H468 H 0.93893 0.33653 0.7529 0.0
H469 H 0.88428 0.27652 0.82831 0.0
H470 H 0.90439 0.25737 0.80117 0.0
H471 H 0.95423 0.31544 0.60572 0.0
H472 H 0.98285 0.33274 0.6193 0.0
H473 H 0.96442 0.34162 0.64738 0.0
H474 H 0.97982 0.34799 0.77906 0.0
H475 H 0.99841 0.33924 0.7513 0.0
H476 H 0.98038 0.32625 0.8271 0.0
H477 H 0.92955 0.2445 0.75512 0.0
H478 H 0.95874 0.2394 0.70383 0.0
H479 H 0.99748 0.30844 0.66619 0.0
C480 C 0.93122 0.31936 0.76397 0.0
C481 C 0.91002 0.3079 0.79204 0.0
C482 C 0.90055 0.28554 0.80685 0.0
C483 C 0.91182 0.27457 0.79148 0.0
C484 C 0.93265 0.28633 0.76278 0.0
C485 C 0.94235 0.30831 0.7503 0.0
C486 C 0.96486 0.31729 0.71937 0.0
C487 C 0.96668 0.32736 0.64344 0.0
C488 C 0.98187 0.33366 0.77238 0.0
C489 C 0.96615 0.29684 0.71448 0.0
C490 C 0.9474 0.27912 0.73953 0.0
C491 C 0.94441 0.2583 0.73638 0.0
C492 C 0.96102 0.25555 0.70691 0.0
C493 C 0.98041 0.27355 0.68169 0.0
C494 C 0.98298 0.29442 0.68615 0.0
H495 H 0.74611 0.70596 0.54707 0.0
H496 H 0.77645 0.74321 0.74287 0.0
H497 H 0.76434 0.70937 0.81199 0.0
H498 H 0.6994 0.66363 0.63605 0.0
H499 H 0.698 0.64262 0.57778 0.0
H500 H 0.7094 0.66979 0.54358 0.0
H501 H 0.74467 0.6699 0.50969 0.0
H502 H 0.73335 0.64272 0.5438 0.0
H503 H 0.75876 0.6638 0.57899 0.0
H504 H 0.7488 0.67126 0.85983 0.0
H505 H 0.73082 0.63191 0.88245 0.0
H506 H 0.71028 0.62001 0.65554 0.0
C507 C 0.75029 0.70704 0.60441 0.0
C508 C 0.76227 0.72725 0.63948 0.0
C509 C 0.76729 0.72791 0.71476 0.0
C510 C 0.76049 0.70878 0.75452 0.0
C511 C 0.74866 0.68913 0.71828 0.0
C512 C 0.74357 0.68813 0.64494 0.0
C513 C 0.73044 0.66498 0.61907 0.0
C514 C 0.70798 0.65997 0.59258 0.0
C515 C 0.74253 0.66007 0.55937 0.0
C516 C 0.72896 0.65311 0.68927 0.0
C517 C 0.73959 0.66728 0.74588 0.0
C518 C 0.74044 0.66 0.81586 0.0
C519 C 0.7302 0.63763 0.82816 0.0
C520 C 0.71922 0.62282 0.77075 0.0
C521 C 0.7186 0.63081 0.70062 0.0
H522 H 0.97235 0.72736 0.7361 0.0
H523 H 0.96755 0.71639 0.50152 0.0
H524 H 0.94699 0.67711 0.52266 0.0
H525 H 0.98001 0.68246 0.78154 0.0
H526 H 0.96455 0.67601 0.86488 0.0
H527 H 0.97848 0.7034 0.83156 0.0
H528 H 0.94256 0.70402 0.83312 0.0
H529 H 0.92847 0.67657 0.86598 0.0
H530 H 0.91958 0.68363 0.78363 0.0
H531 H 0.92654 0.63931 0.56793 0.0
H532 H 0.91004 0.60483 0.63468 0.0
H533 H 0.92891 0.6397 0.84079 0.0
C534 C 0.96697 0.7167 0.68918 0.0
C535 C 0.97153 0.72501 0.61708 0.0
C536 C 0.96435 0.71047 0.55724 0.0
C537 C 0.95254 0.68811 0.56864 0.0
C538 C 0.94818 0.68048 0.64019 0.0
C539 C 0.95536 0.69426 0.69954 0.0
C540 C 0.94907 0.6817 0.77081 0.0
C541 C 0.96923 0.68616 0.81477 0.0
C542 C 0.93402 0.68678 0.81604 0.0
C543 C 0.93721 0.65871 0.74207 0.0
C544 C 0.93675 0.65846 0.66655 0.0
C545 C 0.92682 0.63926 0.62707 0.0
C546 C 0.91744 0.61974 0.66567 0.0
C547 C 0.91818 0.61948 0.74314 0.0
C548 C 0.92801 0.63931 0.78168 0.0
H549 H 0.28624 0.26244 0.70872 0.0
H550 H 0.30003 0.25653 0.48131 0.0
H551 H 0.33878 0.27314 0.51084 0.0
H552 H 0.33319 0.31386 0.7412 0.0
H553 H 0.33705 0.30737 0.83318 0.0
H554 H 0.31036 0.29466 0.79429 0.0
H555 H 0.30571 0.25695 0.8215 0.0
H556 H 0.33242 0.26956 0.86036 0.0
H557 H 0.32533 0.25037 0.78691 0.0
H558 H 0.37604 0.29095 0.56449 0.0
H559 H 0.40934 0.30914 0.63828 0.0
H560 H 0.37117 0.30321 0.83078 0.0
C561 C 0.29738 0.26464 0.66503 0.0
C562 C 0.29007 0.25818 0.59265 0.0
C563 C 0.30522 0.26131 0.5372 0.0
C564 C 0.32727 0.27072 0.55341 0.0
C565 C 0.3339 0.27684 0.62532 0.0
C566 C 0.31942 0.27395 0.68023 0.0
C567 C 0.33077 0.28216 0.75286 0.0
C568 C 0.32766 0.30061 0.78207 0.0
C569 C 0.3231 0.26365 0.80869 0.0
C570 C 0.35394 0.29029 0.73007 0.0
C571 C 0.35538 0.28702 0.65633 0.0
C572 C 0.37513 0.29354 0.62234 0.0
C573 C 0.39395 0.30387 0.66475 0.0
C574 C 0.39288 0.30758 0.74036 0.0
C575 C 0.37254 0.30051 0.77326 0.0
H576 H 0.69965 0.07956 0.62886 0.0
H577 H 0.73188 0.11225 0.82956 0.0
H578 H 0.75867 0.10055 0.81172 0.0
H579 H 0.70747 0.0336 0.64945 0.0
H580 H 0.71225 0.03201 0.55351 0.0
H581 H 0.69529 0.04265 0.58221 0.0
H582 H 0.71932 0.07787 0.50991 0.0
H583 H 0.73638 0.06735 0.48111 0.0
H584 H 0.74793 0.09295 0.52783 0.0
H585 H 0.78171 0.08536 0.77355 0.0
H586 H 0.80023 0.06799 0.71645 0.0
H587 H 0.75388 0.04554 0.53815 0.0
C588 C 0.7123 0.08419 0.66921 0.0
C589 C 0.71364 0.09681 0.73075 0.0
C590 C 0.73052 0.10263 0.78199 0.0
C591 C 0.74581 0.09604 0.77239 0.0
C592 C 0.74408 0.08371 0.71112 0.0
C593 C 0.72781 0.07785 0.66026 0.0
C594 C 0.72989 0.06474 0.59877 0.0
C595 C 0.71004 0.04189 0.59585 0.0
C596 C 0.73361 0.07643 0.52505 0.0
C597 C 0.74987 0.06416 0.62321 0.0
C598 C 0.75769 0.07517 0.68829 0.0
C599 C 0.77579 0.07674 0.72248 0.0
C600 C 0.7862 0.06678 0.68945 0.0
C601 C 0.77862 0.05542 0.6225 0.0
C602 C 0.76019 0.05419 0.589 0.0
H603 H 0.62395 0.9342 0.30626 0.0
H604 H 0.64158 0.91177 0.11166 0.0
H605 H 0.67947 0.92944 0.15518 0.0
H606 H 0.67132 0.98556 0.31787 0.0
H607 H 0.67228 0.98546 0.41633 0.0
H608 H 0.64676 0.97079 0.36989 0.0
H609 H 0.639 0.9357 0.43729 0.0
H610 H 0.66451 0.95025 0.48404 0.0
H611 H 0.65828 0.9265 0.43148 0.0
H612 H 0.71563 0.95045 0.22004 0.0
H613 H 0.74688 0.97287 0.29967 0.0
H614 H 0.70456 0.98046 0.45202 0.0
C615 C 0.63566 0.93281 0.27267 0.0
C616 C 0.62975 0.92149 0.20557 0.0
C617 C 0.64573 0.92031 0.1633 0.0
C618 C 0.66725 0.93027 0.18764 0.0
C619 C 0.67242 0.94121 0.25436 0.0
C620 C 0.65702 0.94247 0.29621 0.0
C621 C 0.66657 0.95528 0.3655 0.0
C622 C 0.66409 0.97547 0.36746 0.0
C623 C 0.65649 0.94108 0.43358 0.0
C624 C 0.6899 0.96127 0.35608 0.0
C625 C 0.693 0.95301 0.29174 0.0
C626 C 0.71336 0.9569 0.27065 0.0
C627 C 0.731 0.96967 0.31626 0.0
C628 C 0.72816 0.97839 0.38223 0.0
C629 C 0.70727 0.97393 0.4023 0.0
H630 H 0.06599 0.75134 0.4831 0.0
H631 H 0.04054 0.76939 0.29718 0.0
H632 H 0.05972 0.75775 0.21351 0.0
H633 H 0.11905 0.76796 0.40336 0.0
H634 H 0.12056 0.7456 0.44255 0.0
H635 H 0.10568 0.75632 0.48876 0.0
H636 H 0.07159 0.71825 0.48942 0.0
H637 H 0.08637 0.70746 0.44318 0.0
H638 H 0.06162 0.70389 0.40439 0.0
H639 H 0.07969 0.74245 0.14967 0.0
H640 H 0.10023 0.72515 0.10896 0.0
H641 H 0.11356 0.71738 0.3353 0.0
C642 C 0.06462 0.75304 0.42482 0.0
C643 C 0.05172 0.76128 0.39681 0.0
C644 C 0.05028 0.76313 0.32011 0.0
C645 C 0.06114 0.75658 0.27201 0.0
C646 C 0.0735 0.74833 0.30131 0.0
C647 C 0.07544 0.74662 0.37584 0.0
C648 C 0.08935 0.73662 0.3926 0.0
C649 C 0.10988 0.75259 0.43428 0.0
C650 C 0.07646 0.71529 0.43488 0.0
C651 C 0.09463 0.73273 0.3158 0.0
C652 C 0.08534 0.73965 0.26412 0.0
C653 C 0.08722 0.73713 0.18955 0.0
C654 C 0.09888 0.7272 0.16701 0.0
C655 C 0.10861 0.71995 0.21884 0.0
C656 C 0.10652 0.72293 0.29426 0.0
H657 H 0.32016 0.39845 0.19656 0.0
H658 H 0.2844 0.41619 0.34624 0.0
H659 H 0.26609 0.37937 0.3968 0.0
H660 H 0.27681 0.34358 0.16167 0.0
H661 H 0.29453 0.33243 0.15949 0.0
H662 H 0.30447 0.36009 0.13272 0.0
H663 H 0.33519 0.37277 0.22818 0.0
H664 H 0.32533 0.34517 0.25543 0.0
H665 H 0.32854 0.36502 0.32259 0.0
H666 H 0.252 0.34119 0.43287 0.0
H667 H 0.24304 0.30357 0.45341 0.0
H668 H 0.28805 0.31003 0.28225 0.0
C669 C 0.30833 0.39451 0.23947 0.0
C670 C 0.30373 0.41025 0.26735 0.0
C671 C 0.28831 0.4045 0.32414 0.0
C672 C 0.27775 0.38358 0.35317 0.0
C673 C 0.28279 0.36855 0.32507 0.0
C674 C 0.29769 0.37367 0.26958 0.0
C675 C 0.30044 0.35449 0.25089 0.0
C676 C 0.29365 0.34722 0.17148 0.0
C677 C 0.32376 0.35968 0.26515 0.0
C678 C 0.2848 0.33788 0.30475 0.0
C679 C 0.27476 0.34638 0.3467 0.0
C680 C 0.25971 0.33431 0.40036 0.0
C681 C 0.25474 0.31293 0.4116 0.0
C682 C 0.26484 0.3038 0.36955 0.0
C683 C 0.28006 0.31652 0.31537 0.0
H684 H 0.96258 0.36566 0.04783 0.0
H685 H 0.95175 0.38638 0.83676 0.0
H686 H 0.99096 0.41156 0.82441 0.0
H687 H 0.00425 0.41825 0.10662 0.0
H688 H 0.01964 0.40816 0.15328 0.0
H689 H 0.9908 0.39137 0.14466 0.0
H690 H 0.99593 0.36151 0.08364 0.0
H691 H 0.02479 0.37826 0.09183 0.0
H692 H 0.01278 0.36794 0.00366 0.0
H693 H 0.03116 0.43416 0.8345 0.0
H694 H 0.06954 0.45419 0.86861 0.0
H695 H 0.05442 0.4196 0.07503 0.0
C696 C 0.96848 0.37547 0.99895 0.0
C697 C 0.95414 0.37408 0.94316 0.0
C698 C 0.96243 0.3873 0.88033 0.0
C699 C 0.98468 0.40156 0.87269 0.0
C700 C 0.99837 0.40254 0.92867 0.0
C701 C 0.9906 0.38999 0.99085 0.0
C702 C 0.00874 0.39463 0.04382 0.0
C703 C 0.00567 0.40364 0.11638 0.0
C704 C 0.01067 0.37438 0.05645 0.0
C705 C 0.02793 0.41172 1.00156 0.0
C706 C 0.02157 0.41591 0.93512 0.0
C707 C 0.03634 0.43102 0.88638 0.0
C708 C 0.05819 0.44227 0.90621 0.0
C709 C 0.06515 0.4385 0.97441 0.0
C710 C 0.0497 0.42293 0.02251 0.0
H711 H 0.66266 0.62384 0.06198 0.0
H712 H 0.63399 0.58836 0.86161 0.0
H713 H 0.6064 0.59937 0.86708 0.0
H714 H 0.61304 0.61082 0.15119 0.0
H715 H 0.62333 0.63698 0.1931 0.0
H716 H 0.64134 0.62687 0.17307 0.0
H717 H 0.66563 0.66124 0.09714 0.0
H718 H 0.64774 0.6715 0.11723 0.0
H719 H 0.65391 0.66879 0.02365 0.0
H720 H 0.58133 0.61303 0.89546 0.0
H721 H 0.56088 0.62969 0.94274 0.0
H722 H 0.60583 0.65707 0.12388 0.0
C723 C 0.65067 0.61849 0.019 0.0
C724 C 0.65051 0.60521 0.96134 0.0
C725 C 0.63447 0.59852 0.90634 0.0
C726 C 0.6187 0.60468 0.90896 0.0
C727 C 0.61918 0.61756 0.9668 0.0
C728 C 0.63477 0.62452 0.02069 0.0
C729 C 0.63144 0.63816 0.07711 0.0
C730 C 0.62702 0.62757 0.15311 0.0
C731 C 0.65083 0.66129 0.07884 0.0
C732 C 0.6115 0.63769 0.04648 0.0
C733 C 0.60473 0.62569 0.98289 0.0
C734 C 0.58658 0.62265 0.94483 0.0
C735 C 0.57512 0.6323 0.97198 0.0
C736 C 0.58185 0.64498 0.03645 0.0
C737 C 0.60024 0.64752 0.0744 0.0
H738 H 0.4134 0.06549 0.03913 0.0
H739 H 0.4603 0.07212 0.87527 0.0
H740 H 0.44953 0.03373 0.89212 0.0
H741 H 0.42097 0.02954 0.15909 0.0
H742 H 0.39279 0.01394 0.18305 0.0
H743 H 0.40442 0.04203 0.15891 0.0
H744 H 0.37548 0.03185 0.05797 0.0
H745 H 0.36375 0.00375 0.08187 0.0
H746 H 0.37223 0.01239 0.98917 0.0
H747 H 0.43296 0.99444 0.92427 0.0
H748 H 0.41203 0.95706 0.97018 0.0
H749 H 0.37625 0.97619 0.11431 0.0
C750 C 0.42146 0.05891 0.00684 0.0
C751 C 0.43769 0.07181 0.95577 0.0
C752 C 0.44784 0.06256 0.91473 0.0
C753 C 0.44184 0.04077 0.92394 0.0
C754 C 0.42576 0.02851 0.97464 0.0
C755 C 0.41575 0.03725 0.01556 0.0
C756 C 0.39881 0.02053 0.0659 0.0
C757 C 0.40461 0.02689 0.14651 0.0
C758 C 0.37623 0.01692 0.0476 0.0
C759 C 0.40071 0.00095 0.04643 0.0
C760 C 0.41636 0.00592 0.99371 0.0
C761 C 0.42071 0.99037 0.9657 0.0
C762 C 0.40866 0.96916 0.99194 0.0
C763 C 0.39245 0.96365 0.04573 0.0
C764 C 0.38863 0.97989 0.07362 0.0
H765 H 0.67199 0.07408 0.00556 0.0
H766 H 0.61792 0.07186 0.89027 0.0
H767 H 0.59552 0.033 0.91977 0.0
H768 H 0.66284 0.02333 0.94022 0.0
H769 H 0.67122 0.01622 0.02365 0.0
H770 H 0.68222 0.04419 0.99938 0.0
H771 H 0.66957 0.05132 0.1238 0.0
H772 H 0.65841 0.0233 0.14828 0.0
H773 H 0.64154 0.03543 0.14949 0.0
H774 H 0.57911 0.99424 0.96156 0.0
H775 H 0.57125 0.95775 0.99918 0.0
H776 H 0.63688 0.98483 0.07913 0.0
C777 C 0.65535 0.06543 0.98737 0.0
C778 C 0.64656 0.07595 0.94634 0.0
C779 C 0.62491 0.06406 0.92189 0.0
C780 C 0.61205 0.04204 0.93876 0.0
C781 C 0.62119 0.0321 0.97923 0.0
C782 C 0.64244 0.04334 0.00233 0.0
C783 C 0.6489 0.0285 0.03976 0.0
C784 C 0.66738 0.02803 0.99825 0.0
C785 C 0.65496 0.03503 0.12011 0.0
C786 C 0.62802 0.00713 0.03367 0.0
C787 C 0.6121 0.00961 0.99988 0.0
C788 C 0.59145 0.99211 0.98804 0.0
C789 C 0.58711 0.97147 0.00989 0.0
C790 C 0.60347 0.96849 0.04189 0.0
C791 C 0.62407 0.98663 0.05464 0.0
H792 H 0.03808 0.63692 0.10699 0.0
H793 H 0.07308 0.6384 0.9111 0.0
H794 H 0.03853 0.61415 0.84932 0.0
H795 H 0.99548 0.58097 0.0932 0.0
H796 H 0.97489 0.58646 0.12559 0.0
H797 H 0.00242 0.60306 0.15539 0.0
H798 H 0.00215 0.63726 0.10935 0.0
H799 H 0.97464 0.62076 0.07957 0.0
H800 H 0.99501 0.63851 0.01568 0.0
H801 H 0.99994 0.59018 0.80825 0.0
H802 H 0.9604 0.5696 0.78983 0.0
H803 H 0.95108 0.58481 0.01193 0.0
C804 C 0.03852 0.63201 0.05131 0.0
C805 C 0.05828 0.63949 0.01395 0.0
C806 C 0.05812 0.63288 0.94081 0.0
C807 C 0.03859 0.61905 0.90532 0.0
C808 C 0.01938 0.61206 0.94365 0.0
C809 C 0.0192 0.61838 0.01495 0.0
C810 C 0.99638 0.60931 0.04304 0.0
C811 C 0.99205 0.59404 0.10815 0.0
C812 C 0.99178 0.62755 0.06305 0.0
C813 C 0.98374 0.59702 0.97626 0.0
C814 C 0.99725 0.59863 0.91967 0.0
C815 C 0.98919 0.58876 0.85228 0.0
C816 C 0.96671 0.57708 0.84238 0.0
C817 C 0.95259 0.57552 0.89943 0.0
C818 C 0.96136 0.58558 0.96722 0.0
H819 H 0.39363 0.42302 0.16693 0.0
H820 H 0.38056 0.44436 0.9605 0.0
H821 H 0.39932 0.42841 0.89486 0.0
H822 H 0.44729 0.43301 0.11815 0.0
H823 H 0.44411 0.40953 0.16594 0.0
H824 H 0.43003 0.42304 0.19736 0.0
H825 H 0.39367 0.38706 0.18865 0.0
H826 H 0.40762 0.37346 0.15692 0.0
H827 H 0.386 0.37251 0.10331 0.0
H828 H 0.41772 0.40875 0.85078 0.0
H829 H 0.43678 0.38848 0.83108 0.0
H830 H 0.43923 0.38068 0.06586 0.0
C831 C 0.39486 0.42449 0.10798 0.0
C832 C 0.38558 0.43496 0.06894 0.0
C833 C 0.38754 0.43649 0.99176 0.0
C834 C 0.39814 0.42744 0.95387 0.0
C835 C 0.40686 0.41704 0.99386 0.0
C836 C 0.40555 0.41568 0.0692 0.0
C837 C 0.4163 0.40352 0.09871 0.0
C838 C 0.43558 0.41815 0.14794 0.0
C839 C 0.39992 0.38291 0.13928 0.0
C840 C 0.4237 0.39815 0.02808 0.0
C841 C 0.41797 0.40602 0.96834 0.0
C842 C 0.42245 0.40264 0.89713 0.0
C843 C 0.43324 0.39102 0.88655 0.0
C844 C 0.4396 0.38301 0.94688 0.0
C845 C 0.43473 0.3867 0.0186 0.0
H846 H 0.09838 0.23918 0.4086 0.0
H847 H 0.06503 0.21128 0.61287 0.0
H848 H 0.09423 0.20425 0.64902 0.0
H849 H 0.1183 0.20238 0.37892 0.0
H850 H 0.14385 0.22282 0.34239 0.0
H851 H 0.1202 0.22545 0.33188 0.0
H852 H 0.14007 0.26308 0.39378 0.0
H853 H 0.16382 0.26065 0.40396 0.0
H854 H 0.15195 0.26578 0.48287 0.0
H855 H 0.12702 0.20038 0.66315 0.0
H856 H 0.16208 0.20166 0.65756 0.0
H857 H 0.17417 0.23223 0.44405 0.0
C858 C 0.09719 0.2316 0.46098 0.0
C859 C 0.07937 0.22573 0.50786 0.0
C860 C 0.0785 0.2159 0.57601 0.0
C861 C 0.09497 0.21178 0.59694 0.0
C862 C 0.1122 0.21759 0.54915 0.0
C863 C 0.11349 0.22739 0.48278 0.0
C864 C 0.13397 0.23247 0.44221 0.0
C865 C 0.12876 0.22003 0.36955 0.0
C866 C 0.1483 0.25695 0.43003 0.0
C867 C 0.14407 0.22409 0.49639 0.0
C868 C 0.13118 0.21546 0.55747 0.0
C869 C 0.13725 0.20707 0.61556 0.0
C870 C 0.15721 0.20785 0.61176 0.0
C871 C 0.17094 0.21704 0.55035 0.0
C872 C 0.16404 0.22498 0.49157 0.0
H873 H 0.79251 0.96427 0.45025 0.0
H874 H 0.83003 0.97842 0.65011 0.0
H875 H 0.82975 0.94385 0.63823 0.0
H876 H 0.75896 0.90688 0.48076 0.0
H877 H 0.75869 0.90018 0.38563 0.0
H878 H 0.76149 0.92582 0.41091 0.0
H879 H 0.79685 0.94568 0.33561 0.0
H880 H 0.79418 0.92012 0.31007 0.0
H881 H 0.81852 0.94033 0.35401 0.0
H882 H 0.82622 0.90809 0.60236 0.0
H883 H 0.81945 0.87385 0.54568 0.0
H884 H 0.78399 0.88327 0.37047 0.0
C885 C 0.80061 0.96012 0.49182 0.0
C886 C 0.81129 0.97412 0.55117 0.0
C887 C 0.82171 0.96799 0.60417 0.0
C888 C 0.82164 0.94838 0.59794 0.0
C889 C 0.81103 0.93504 0.53858 0.0
C890 C 0.80067 0.94064 0.48658 0.0
C891 C 0.79069 0.92362 0.4275 0.0
C892 C 0.76599 0.91353 0.42617 0.0
C893 C 0.80066 0.933 0.35237 0.0
C894 C 0.79718 0.90762 0.45408 0.0
C895 C 0.80889 0.91446 0.51825 0.0
C896 C 0.817 0.90253 0.55228 0.0
C897 C 0.81309 0.88312 0.51963 0.0
C898 C 0.80116 0.87586 0.45373 0.0
C899 C 0.79305 0.88829 0.42105 0.0
H900 H 0.06353 0.83762 0.47057 0.0
H901 H 0.04757 0.85495 0.67955 0.0
H902 H 0.07936 0.89159 0.66846 0.0
H903 H 0.12166 0.86766 0.49326 0.0
H904 H 0.12651 0.87529 0.39824 0.0
H905 H 0.10295 0.85034 0.42447 0.0
H906 H 0.07858 0.86223 0.35799 0.0
H907 H 0.10202 0.88727 0.33194 0.0
H908 H 0.08045 0.88759 0.38187 0.0
H909 H 0.11216 0.9271 0.63086 0.0
H910 H 0.14412 0.9577 0.57297 0.0
H911 H 0.13834 0.91643 0.39012 0.0
C912 C 0.06674 0.84901 0.51445 0.0
C913 C 0.05299 0.84335 0.57598 0.0
C914 C 0.05788 0.85884 0.63199 0.0
C915 C 0.07588 0.87972 0.62609 0.0
C916 C 0.08889 0.88482 0.56411 0.0
C917 C 0.08461 0.86982 0.50962 0.0
C918 C 0.10088 0.87931 0.44814 0.0
C919 C 0.11376 0.86745 0.44063 0.0
C920 C 0.08982 0.87909 0.37573 0.0
C921 C 0.11493 0.90209 0.47618 0.0
C922 C 0.10776 0.90502 0.54305 0.0
C923 C 0.11798 0.92493 0.57872 0.0
C924 C 0.13607 0.94223 0.54532 0.0
C925 C 0.14377 0.93945 0.47713 0.0
C926 C 0.13296 0.91908 0.44243 0.0
H927 H 0.1926 0.13711 0.49917 0.0
H928 H 0.25506 0.17669 0.60223 0.0
H929 H 0.26268 0.14682 0.59105 0.0
H930 H 0.18014 0.08815 0.58346 0.0
H931 H 0.16768 0.07137 0.50456 0.0
H932 H 0.16759 0.09637 0.51485 0.0
H933 H 0.18593 0.10922 0.38838 0.0
H934 H 0.18595 0.08416 0.37741 0.0
H935 H 0.21086 0.10952 0.37011 0.0
H936 H 0.26205 0.11186 0.58178 0.0
H937 H 0.2545 0.07449 0.56499 0.0
H938 H 0.19336 0.05756 0.46186 0.0
C939 C 0.20802 0.13961 0.51827 0.0
C940 C 0.22321 0.15927 0.55169 0.0
C941 C 0.24317 0.16184 0.57626 0.0
C942 C 0.24766 0.14495 0.57025 0.0
C943 C 0.23218 0.12565 0.53861 0.0
C944 C 0.2129 0.12294 0.51197 0.0
C945 C 0.19885 0.10028 0.4822 0.0
C946 C 0.17729 0.08834 0.52377 0.0
C947 C 0.19519 0.10083 0.39961 0.0
C948 C 0.21303 0.09054 0.49819 0.0
C949 C 0.23217 0.10551 0.53083 0.0
C950 C 0.2473 0.10008 0.55515 0.0
C951 C 0.2428 0.07879 0.54574 0.0
C952 C 0.22343 0.0632 0.51163 0.0
C953 C 0.20845 0.06925 0.487 0.0
H954 H 0.90762 0.10457 0.68625 0.0
H955 H 0.87911 0.07621 0.47681 0.0
H956 H 0.90905 0.10748 0.41351 0.0
H957 H 0.92293 0.15812 0.63697 0.0
H958 H 0.94754 0.17028 0.68957 0.0
H959 H 0.92505 0.14479 0.71764 0.0
H960 H 0.94945 0.1275 0.71504 0.0
H961 H 0.97204 0.15299 0.68715 0.0
H962 H 0.96411 0.12913 0.63283 0.0
H963 H 0.94212 0.14253 0.37364 0.0
H964 H 0.97387 0.1793 0.36116 0.0
H965 H 0.97883 0.18493 0.59747 0.0
C966 C 0.90786 0.10475 0.62704 0.0
C967 C 0.89122 0.08789 0.58632 0.0
C968 C 0.8918 0.08896 0.50896 0.0
C969 C 0.90875 0.1066 0.4726 0.0
C970 C 0.92482 0.1231 0.5145 0.0
C971 C 0.9244 0.12236 0.59007 0.0
C972 C 0.94269 0.14275 0.62269 0.0
C973 C 0.93403 0.15468 0.66945 0.0
C974 C 0.95798 0.13779 0.66703 0.0
C975 C 0.95341 0.15516 0.55377 0.0
C976 C 0.94312 0.1435 0.4918 0.0
C977 C 0.95029 0.1518 0.42183 0.0
C978 C 0.96832 0.17265 0.41524 0.0
C979 C 0.97868 0.18501 0.47829 0.0
C980 C 0.97113 0.17598 0.54819 0.0
H981 H 0.9235 0.80409 0.70284 0.0
H982 H 0.95249 0.80268 0.49602 0.0
H983 H 0.92271 0.80358 0.42998 0.0
H984 H 0.86879 0.76899 0.64758 0.0
H985 H 0.85829 0.78314 0.69955 0.0
H986 H 0.88229 0.78321 0.72986 0.0
H987 H 0.90316 0.82511 0.73034 0.0
H988 H 0.8792 0.82515 0.70015 0.0
H989 H 0.90388 0.83951 0.64846 0.0
H990 H 0.88981 0.80544 0.38709 0.0
H991 H 0.85573 0.80607 0.37124 0.0
H992 H 0.84789 0.80418 0.60694 0.0
C993 C 0.9237 0.80414 0.64364 0.0
C994 C 0.94038 0.8035 0.60449 0.0
C995 C 0.93986 0.80321 0.52705 0.0
C996 C 0.92305 0.80375 0.48913 0.0
C997 C 0.9068 0.80433 0.52953 0.0
C998 C 0.90693 0.80434 0.60511 0.0
C999 C 0.88727 0.80426 0.6359 0.0
C1000 C 0.87334 0.78367 0.68086 0.0
C1001 C 0.89377 0.82473 0.68138 0.0
C1002 C 0.87607 0.80432 0.5659 0.0
C1003 C 0.88761 0.80454 0.50504 0.0
C1004 C 0.88059 0.80515 0.4344 0.0
C1005 C 0.86124 0.80553 0.42594 0.0
C1006 C 0.84906 0.80504 0.48778 0.0
C1007 C 0.85667 0.80437 0.55846 0.0
H1008 H 0.83562 0.56522 0.88789 0.0
H1009 H 0.82346 0.5054 0.78546 0.0
H1010 H 0.78598 0.49627 0.75929 0.0
H1011 H 0.7815 0.54517 0.96669 0.0
H1012 H 0.78119 0.56971 0.94649 0.0
H1013 H 0.80644 0.57064 0.96432 0.0
H1014 H 0.82137 0.58976 0.84007 0.0
H1015 H 0.7962 0.58889 0.8219 0.0
H1016 H 0.80664 0.57732 0.75742 0.0
H1017 H 0.75063 0.49411 0.74 0.0
H1018 H 0.72 0.50009 0.72018 0.0
H1019 H 0.75509 0.56229 0.82907 0.0
C1020 C 0.82489 0.55004 0.86115 0.0
C1021 C 0.8323 0.53589 0.83925 0.0
C1022 C 0.81805 0.51642 0.80272 0.0
C1023 C 0.79673 0.51105 0.78798 0.0
C1024 C 0.78996 0.52542 0.80947 0.0
C1025 C 0.8036 0.5446 0.84474 0.0
C1026 C 0.79268 0.55792 0.85643 0.0
C1027 C 0.79031 0.56104 0.93836 0.0
C1028 C 0.80495 0.57976 0.81656 0.0
C1029 C 0.7709 0.54335 0.82134 0.0
C1030 C 0.76963 0.52455 0.79574 0.0
C1031 C 0.75138 0.50872 0.76 0.0
C1032 C 0.73404 0.5123 0.74904 0.0
C1033 C 0.73511 0.53168 0.77293 0.0
C1034 C 0.75374 0.54729 0.81036 0.0
H1035 H 0.45555 0.28897 0.79802 0.0
H1036 H 0.48925 0.30217 0.00567 0.0
H1037 H 0.49178 0.26906 0.99117 0.0
H1038 H 0.42466 0.23072 0.81748 0.0
H1039 H 0.42675 0.22608 0.72175 0.0
H1040 H 0.427 0.25031 0.75054 0.0
H1041 H 0.46342 0.2735 0.68341 0.0
H1042 H 0.46333 0.24937 0.65469 0.0
H1043 H 0.48602 0.26989 0.7049 0.0
H1044 H 0.49212 0.23507 0.94964 0.0
H1045 H 0.48886 0.20276 0.88754 0.0
H1046 H 0.4545 0.21228 0.70897 0.0
C1047 C 0.46335 0.2849 0.84092 0.0
C1048 C 0.47222 0.29824 0.90304 0.0
C1049 C 0.48225 0.29219 0.9577 0.0
C1050 C 0.48381 0.27343 0.94986 0.0
C1051 C 0.47513 0.26082 0.88733 0.0
C1052 C 0.46495 0.26627 0.83416 0.0
C1053 C 0.45717 0.2503 0.77161 0.0
C1054 C 0.43243 0.23866 0.765 0.0
C1055 C 0.46815 0.26143 0.69941 0.0
C1056 C 0.46475 0.23507 0.79733 0.0
C1057 C 0.4751 0.24135 0.86412 0.0
C1058 C 0.48392 0.22996 0.89755 0.0
C1059 C 0.48205 0.21166 0.8618 0.0
C1060 C 0.47138 0.20495 0.79349 0.0
C1061 C 0.46263 0.21687 0.76132 0.0
H1062 H 0.74282 0.18993 0.8108 0.0
H1063 H 0.70928 0.20786 0.96877 0.0
H1064 H 0.73755 0.24621 0.95662 0.0
H1065 H 0.79638 0.22766 0.87734 0.0
H1066 H 0.80861 0.23346 0.78793 0.0
H1067 H 0.78525 0.20751 0.80633 0.0
H1068 H 0.76514 0.21284 0.69763 0.0
H1069 H 0.78844 0.2388 0.67886 0.0
H1070 H 0.76254 0.23666 0.69426 0.0
H1071 H 0.76837 0.28267 0.9228 0.0
H1072 H 0.80184 0.31465 0.87899 0.0
H1073 H 0.81746 0.27295 0.75254 0.0
C1074 C 0.74143 0.20199 0.84246 0.0
C1075 C 0.72382 0.19603 0.8903 0.0
C1076 C 0.72267 0.21214 0.93187 0.0
C1077 C 0.7386 0.23394 0.92516 0.0
C1078 C 0.7558 0.23932 0.87772 0.0
C1079 C 0.75752 0.2238 0.83789 0.0
C1080 C 0.77821 0.23386 0.79347 0.0
C1081 C 0.79298 0.2251 0.81775 0.0
C1082 C 0.77328 0.23033 0.71118 0.0
C1083 C 0.7877 0.25745 0.81403 0.0
C1084 C 0.77434 0.26025 0.8619 0.0
C1085 C 0.7791 0.28067 0.88602 0.0
C1086 C 0.79807 0.29871 0.86076 0.0
C1087 C 0.81223 0.29616 0.81319 0.0
C1088 C 0.80702 0.27526 0.78989 0.0
H1089 H 0.88585 0.48595 0.84211 0.0
H1090 H 0.83122 0.46098 0.99071 0.0
H1091 H 0.82665 0.42458 0.97978 0.0
H1092 H 0.86347 0.43761 0.7236 0.0
H1093 H 0.88948 0.43987 0.7096 0.0
H1094 H 0.8876 0.46379 0.72512 0.0
H1095 H 0.91415 0.47407 0.83393 0.0
H1096 H 0.916 0.45015 0.8191 0.0
H1097 H 0.90803 0.45502 0.90733 0.0
H1098 H 0.83027 0.39183 0.96359 0.0
H1099 H 0.84006 0.36404 0.93459 0.0
H1100 H 0.89104 0.40936 0.79141 0.0
C1101 C 0.87273 0.47276 0.87146 0.0
C1102 C 0.85892 0.47636 0.91739 0.0
C1103 C 0.84198 0.45866 0.95503 0.0
C1104 C 0.83925 0.43789 0.94928 0.0
C1105 C 0.85339 0.43496 0.90486 0.0
C1106 C 0.8696 0.45181 0.8657 0.0
C1107 C 0.88288 0.44431 0.8232 0.0
C1108 C 0.88072 0.44652 0.74047 0.0
C1109 C 0.90667 0.45662 0.84737 0.0
C1110 C 0.87193 0.42078 0.84616 0.0
C1111 C 0.85498 0.41576 0.8934 0.0
C1112 C 0.84327 0.39544 0.92571 0.0
C1113 C 0.84902 0.37981 0.90924 0.0
C1114 C 0.86616 0.3845 0.86032 0.0
C1115 C 0.87761 0.40522 0.828 0.0
H1116 H 0.56434 0.42778 0.03704 0.0
H1117 H 0.53448 0.39971 0.82868 0.0
H1118 H 0.5646 0.43049 0.76436 0.0
H1119 H 0.58174 0.48223 0.98709 0.0
H1120 H 0.60655 0.49347 0.03843 0.0
H1121 H 0.58341 0.4686 0.06766 0.0
H1122 H 0.60615 0.44952 0.06398 0.0
H1123 H 0.62937 0.47436 0.03488 0.0
H1124 H 0.62009 0.45019 0.98103 0.0
H1125 H 0.59803 0.46441 0.72321 0.0
H1126 H 0.63113 0.49986 0.70815 0.0
H1127 H 0.63792 0.50647 0.94407 0.0
C1128 C 0.56426 0.42797 0.97784 0.0
C1129 C 0.54721 0.41127 0.93772 0.0
C1130 C 0.54745 0.41232 0.86039 0.0
C1131 C 0.56449 0.42969 0.82345 0.0
C1132 C 0.58099 0.44596 0.86473 0.0
C1133 C 0.58093 0.44532 0.94024 0.0
C1134 C 0.60001 0.46534 0.97191 0.0
C1135 C 0.59247 0.47816 0.01904 0.0
C1136 C 0.61478 0.45949 0.01551 0.0
C1137 C 0.61083 0.47737 0.90242 0.0
C1138 C 0.59975 0.46584 0.84117 0.0
C1139 C 0.60681 0.47361 0.77078 0.0
C1140 C 0.62565 0.49374 0.76281 0.0
C1141 C 0.63705 0.50599 0.82491 0.0
C1142 C 0.62948 0.49759 0.89552 0.0
H1143 H 0.61186 0.16394 0.01015 0.0
H1144 H 0.61932 0.12726 0.83468 0.0
H1145 H 0.58699 0.12401 0.77392 0.0
H1146 H 0.55399 0.13317 0.01754 0.0
H1147 H 0.55086 0.15621 0.0365 0.0
H1148 H 0.57493 0.15619 0.06533 0.0
H1149 H 0.59839 0.19193 0.99479 0.0
H1150 H 0.57437 0.19203 0.96572 0.0
H1151 H 0.5935 0.19335 0.89881 0.0
H1152 H 0.55391 0.1246 0.73251 0.0
H1153 H 0.52142 0.12774 0.71514 0.0
H1154 H 0.53513 0.16376 0.91822 0.0
C1155 C 0.60677 0.15531 0.95877 0.0
C1156 C 0.61818 0.14592 0.927 0.0
C1157 C 0.61085 0.13458 0.86006 0.0
C1158 C 0.59253 0.13269 0.82505 0.0
C1159 C 0.58167 0.14213 0.85783 0.0
C1160 C 0.58843 0.15313 0.92334 0.0
C1161 C 0.57352 0.16132 0.94778 0.0
C1162 C 0.56269 0.15111 0.02113 0.0
C1163 C 0.58567 0.18613 0.95199 0.0
C1164 C 0.55732 0.15318 0.88577 0.0
C1165 C 0.56239 0.14224 0.83436 0.0
C1166 C 0.54977 0.13314 0.77237 0.0
C1167 C 0.53136 0.13506 0.76297 0.0
C1168 C 0.52562 0.14594 0.81543 0.0
C1169 C 0.53895 0.15524 0.87732 0.0
H1170 H 0.50828 0.90035 0.17848 0.0
H1171 H 0.5084 0.85453 0.02292 0.0
H1172 H 0.47189 0.84534 0.98201 0.0
H1173 H 0.45109 0.86982 0.22585 0.0
H1174 H 0.44841 0.89357 0.23067 0.0
H1175 H 0.47392 0.89544 0.25156 0.0
H1176 H 0.49271 0.92545 0.15385 0.0
H1177 H 0.46728 0.92369 0.13267 0.0
H1178 H 0.48273 0.92033 0.06126 0.0
H1179 H 0.43588 0.84179 0.95575 0.0
H1180 H 0.40362 0.84553 0.94096 0.0
H1181 H 0.4274 0.89461 0.11057 0.0
C1182 C 0.5005 0.88816 0.13653 0.0
C1183 C 0.5111 0.878 0.10437 0.0
C1184 C 0.50055 0.86245 0.04858 0.0
C1185 C 0.4798 0.85708 0.0251 0.0
C1186 C 0.46985 0.86748 0.05765 0.0
C1187 C 0.47988 0.88278 0.11187 0.0
C1188 C 0.46616 0.89247 0.13478 0.0
C1189 C 0.4595 0.88752 0.21551 0.0
C1190 C 0.47792 0.91693 0.11971 0.0
C1191 C 0.44695 0.88036 0.08452 0.0
C1192 C 0.4493 0.86586 0.04108 0.0
C1193 C 0.43382 0.85304 0.9896 0.0
C1194 C 0.41553 0.85528 0.98169 0.0
C1195 C 0.41297 0.87037 0.02455 0.0
C1196 C 0.42886 0.88291 0.07705 0.0
H1197 H 0.16387 0.63875 0.20218 0.0
H1198 H 0.10382 0.62462 0.09669 0.0
H1199 H 0.09713 0.58839 0.06394 0.0
H1200 H 0.17958 0.6143 0.06813 0.0
H1201 H 0.19146 0.60346 0.12977 0.0
H1202 H 0.19042 0.62729 0.15468 0.0
H1203 H 0.1702 0.60868 0.27413 0.0
H1204 H 0.17126 0.58478 0.2497 0.0
H1205 H 0.14567 0.58289 0.26941 0.0
H1206 H 0.09802 0.55546 0.03337 0.0
H1207 H 0.10676 0.52724 0.00332 0.0
H1208 H 0.16688 0.56198 0.1245 0.0
C1209 C 0.14909 0.62776 0.17382 0.0
C1210 C 0.13426 0.63436 0.15244 0.0
C1211 C 0.11537 0.61984 0.11362 0.0
C1212 C 0.11137 0.5992 0.09506 0.0
C1213 C 0.12646 0.5933 0.11533 0.0
C1214 C 0.14497 0.60706 0.15375 0.0
C1215 C 0.15936 0.59718 0.16273 0.0
C1216 C 0.18151 0.61141 0.12666 0.0
C1217 C 0.16176 0.59314 0.24382 0.0
C1218 C 0.14626 0.57604 0.12174 0.0
C1219 C 0.12722 0.57412 0.09592 0.0
C1220 C 0.11277 0.55664 0.0538 0.0
C1221 C 0.11797 0.54072 0.03677 0.0
C1222 C 0.13754 0.54237 0.06139 0.0
C1223 C 0.15173 0.56017 0.10534 0.0
H1224 H 0.47477 0.60339 0.04997 0.0
H1225 H 0.47915 0.63874 0.24833 0.0
H1226 H 0.44557 0.60729 0.29376 0.0
H1227 H 0.4173 0.57658 0.0305 0.0
H1228 H 0.41496 0.55167 0.99809 0.0
H1229 H 0.43936 0.57691 0.98154 0.0
H1230 H 0.46175 0.56197 0.0441 0.0
H1231 H 0.43741 0.53668 0.0609 0.0
H1232 H 0.45501 0.55144 0.13582 0.0
H1233 H 0.41106 0.57214 0.31627 0.0
H1234 H 0.37864 0.53587 0.31539 0.0
H1235 H 0.39732 0.52334 0.10305 0.0
C1236 C 0.46869 0.60458 0.10298 0.0
C1237 C 0.47957 0.6236 0.14547 0.0
C1238 C 0.4711 0.62438 0.2147 0.0
C1239 C 0.45203 0.60659 0.24099 0.0
C1240 C 0.44171 0.58811 0.19759 0.0
C1241 C 0.44979 0.58696 0.13018 0.0
C1242 C 0.43568 0.56521 0.09434 0.0
C1243 C 0.42627 0.56775 0.02184 0.0
C1244 C 0.44821 0.55311 0.08316 0.0
C1245 C 0.41829 0.55433 0.1519 0.0
C1246 C 0.42205 0.5678 0.211 0.0
C1247 C 0.408 0.56143 0.2704 0.0
C1248 C 0.38959 0.54077 0.26929 0.0
C1249 C 0.38538 0.52665 0.20926 0.0
C1250 C 0.40007 0.53361 0.15003 0.0
H1251 H 0.57039 0.73977 0.2038 0.0
H1252 H 0.5348 0.72508 0.99955 0.0
H1253 H 0.5361 0.76025 0.00541 0.0
H1254 H 0.54469 0.76563 0.29062 0.0
H1255 H 0.56888 0.78568 0.33576 0.0
H1256 H 0.56562 0.75962 0.31424 0.0
H1257 H 0.60173 0.77812 0.24261 0.0
H1258 H 0.60509 0.80424 0.26387 0.0
H1259 H 0.60549 0.79677 0.17003 0.0
H1260 H 0.54057 0.79686 0.03541 0.0
H1261 H 0.54792 0.83185 0.08701 0.0
H1262 H 0.58072 0.82243 0.27098 0.0
C1263 C 0.56293 0.74392 0.15999 0.0
C1264 C 0.5525 0.72958 0.10111 0.0
C1265 C 0.54291 0.73574 0.0452 0.0
C1266 C 0.54357 0.75571 0.04801 0.0
C1267 C 0.55391 0.76938 0.10697 0.0
C1268 C 0.56344 0.76375 0.16187 0.0
C1269 C 0.57327 0.78117 0.21984 0.0
C1270 C 0.56246 0.7725 0.29452 0.0
C1271 C 0.59785 0.79063 0.22431 0.0
C1272 C 0.56768 0.79746 0.18924 0.0
C1273 C 0.55654 0.7904 0.12406 0.0
C1274 C 0.54936 0.80257 0.08628 0.0
C1275 C 0.5536 0.82243 0.11607 0.0
C1276 C 0.56494 0.82994 0.183 0.0
C1277 C 0.57212 0.81725 0.21957 0.0
H1278 H 0.30438 0.84797 0.22446 0.0
H1279 H 0.30749 0.83911 0.99116 0.0
H1280 H 0.27513 0.80271 1.00039 0.0
H1281 H 0.28897 0.79356 0.27491 0.0
H1282 H 0.27163 0.79247 0.34832 0.0
H1283 H 0.29462 0.81793 0.32252 0.0
H1284 H 0.2697 0.83414 0.30271 0.0
H1285 H 0.24663 0.80878 0.32864 0.0
H1286 H 0.24693 0.82083 0.24175 0.0
H1287 H 0.24124 0.7678 0.03535 0.0
H1288 H 0.21025 0.73639 0.0944 0.0
H1289 H 0.23137 0.76769 0.30548 0.0
C1290 C 0.2982 0.83848 0.17521 0.0
C1291 C 0.30829 0.84645 0.107 0.0
C1292 C 0.29995 0.8333 0.044 0.0
C1293 C 0.28158 0.81265 0.04869 0.0
C1294 C 0.272 0.8053 0.11696 0.0
C1295 C 0.28019 0.81775 0.17917 0.0
C1296 C 0.26736 0.80598 0.24634 0.0
C1297 C 0.28149 0.80226 0.30124 0.0
C1298 C 0.25704 0.81816 0.28192 0.0
C1299 C 0.2505 0.78498 0.21219 0.0
C1300 C 0.25329 0.78493 0.13744 0.0
C1301 C 0.23904 0.76758 0.09394 0.0
C1302 C 0.2215 0.74985 0.12784 0.0
C1303 C 0.2186 0.74953 0.20449 0.0
C1304 C 0.23339 0.76731 0.24692 0.0
H1305 H 0.25969 0.47503 0.2392 0.0
H1306 H 0.29389 0.49257 0.03197 0.0
H1307 H 0.26253 0.49219 0.9735 0.0
H1308 H 0.20754 0.43837 0.16527 0.0
H1309 H 0.19319 0.44581 0.22922 0.0
H1310 H 0.21853 0.44803 0.25506 0.0
H1311 H 0.23386 0.48845 0.28674 0.0
H1312 H 0.20854 0.48635 0.26121 0.0
H1313 H 0.23325 0.50641 0.21871 0.0
H1314 H 0.22734 0.49019 0.93805 0.0
H1315 H 0.19101 0.48613 0.92805 0.0
H1316 H 0.17967 0.46875 0.15785 0.0
C1317 C 0.26067 0.47892 0.1816 0.0
C1318 C 0.27931 0.48394 0.14027 0.0
C1319 C 0.27981 0.48873 0.06485 0.0
C1320 C 0.26207 0.48854 0.03112 0.0
C1321 C 0.24391 0.48342 0.07344 0.0
C1322 C 0.24308 0.47865 0.147 0.0
C1323 C 0.22154 0.47332 0.18004 0.0
C1324 C 0.20949 0.44999 0.20909 0.0
C1325 C 0.22448 0.48961 0.24022 0.0
C1326 C 0.21039 0.47588 0.11363 0.0
C1327 C 0.22356 0.4818 0.05272 0.0
C1328 C 0.21686 0.48548 0.98535 0.0
C1329 C 0.19619 0.48314 0.98023 0.0
C1330 C 0.18239 0.47702 0.04201 0.0
C1331 C 0.18968 0.47326 0.10936 0.0
H1332 H 0.02161 0.22389 0.14357 0.0
H1333 H 0.08938 0.2733 0.14675 0.0
H1334 H 0.08995 0.2734 0.01178 0.0
H1335 H 0.02424 0.19457 0.98336 0.0
H1336 H 0.99827 0.18907 0.94971 0.0
H1337 H 0.00364 0.19178 0.04653 0.0
H1338 H 0.99334 0.22176 0.05321 0.0
H1339 H 0.98791 0.2191 0.95661 0.0
H1340 H 0.00692 0.24505 0.99447 0.0
H1341 H 0.08245 0.26976 0.87575 0.0
H1342 H 0.06723 0.26305 0.75073 0.0
H1343 H 0.0046 0.21586 0.83746 0.0
C1344 C 0.03666 0.23454 0.116 0.0
C1345 C 0.05547 0.24853 0.15592 0.0
C1346 C 0.07476 0.26238 0.1175 0.0
C1347 C 0.07527 0.26253 0.04076 0.0
C1348 C 0.05639 0.24867 0.0031 0.0
C1349 C 0.03745 0.23491 0.03949 0.0
C1350 C 0.01912 0.22238 0.98636 0.0
C1351 C 0.01084 0.198 0.99183 0.0
C1352 C 0.00075 0.22738 0.99839 0.0
C1353 C 0.03059 0.23151 0.91445 0.0
C1354 C 0.05211 0.24654 0.92508 0.0
C1355 C 0.06567 0.25785 0.86675 0.0
C1356 C 0.05689 0.25393 0.79591 0.0
C1357 C 0.03476 0.23887 0.7841 0.0
C1358 C 0.02164 0.22731 0.84431 0.0
H1359 H 0.76809 0.80764 0.10831 0.0
H1360 H 0.83499 0.84831 0.17331 0.0
H1361 H 0.84549 0.85642 0.04349 0.0
H1362 H 0.77849 0.78433 0.95579 0.0
H1363 H 0.75727 0.78342 0.89999 0.0
H1364 H 0.75483 0.78248 0.99797 0.0
H1365 H 0.74929 0.81565 0.99484 0.0
H1366 H 0.75183 0.81675 0.89668 0.0
H1367 H 0.76917 0.84019 0.95086 0.0
H1368 H 0.84911 0.85778 0.90642 0.0
H1369 H 0.84575 0.8514 0.77318 0.0
H1370 H 0.77645 0.81021 0.79702 0.0
C1371 C 0.78492 0.81852 0.09543 0.0
C1372 C 0.8007 0.82741 0.15127 0.0
C1373 C 0.82258 0.84133 0.13171 0.0
C1374 C 0.82869 0.8461 0.05805 0.0
C1375 C 0.81275 0.83691 0.00441 0.0
C1376 C 0.79131 0.82342 0.02219 0.0
C1377 C 0.77753 0.81455 0.95406 0.0
C1378 C 0.76639 0.78973 0.95184 0.0
C1379 C 0.76098 0.82225 0.94882 0.0
C1380 C 0.79464 0.82481 0.89511 0.0
C1381 C 0.81482 0.8378 0.92532 0.0
C1382 C 0.83335 0.84788 0.88214 0.0
C1383 C 0.83127 0.84418 0.80643 0.0
C1384 C 0.81082 0.83052 0.7744 0.0
C1385 C 0.79224 0.82114 0.81946 0.0
H1386 H 0.22381 0.98815 0.14102 0.0
H1387 H 0.17337 0.00281 0.19467 0.0
H1388 H 0.16645 0.00422 0.06289 0.0
H1389 H 0.24491 0.02301 0.98893 0.0
H1390 H 0.25049 0.00508 0.936 0.0
H1391 H 0.25046 0.00389 0.03425 0.0
H1392 H 0.22202 0.96311 0.02954 0.0
H1393 H 0.22191 0.9642 0.93112 0.0
H1394 H 0.19702 0.95433 0.98123 0.0
H1395 H 0.16705 0.0069 0.92483 0.0
H1396 H 0.17492 0.01033 0.79235 0.0
H1397 H 0.22404 0.99261 0.82839 0.0
C1398 C 0.21115 0.99146 0.12524 0.0
C1399 C 0.19913 0.99537 0.17854 0.0
C1400 C 0.18277 0.9997 0.15515 0.0
C1401 C 0.1787 0.00051 0.08031 0.0
C1402 C 0.19097 0.99675 0.02931 0.0
C1403 C 0.20679 0.99219 0.05083 0.0
C1404 C 0.21821 0.98949 0.98518 0.0
C1405 C 0.24245 0.00637 0.98617 0.0
C1406 C 0.21456 0.9664 0.98157 0.0
C1407 C 0.20666 0.99367 0.92325 0.0
C1408 C 0.19095 0.99776 0.94986 0.0
C1409 C 0.17909 0.00341 0.90341 0.0
C1410 C 0.18367 0.00531 0.82817 0.0
C1411 C 0.19986 0.00143 0.79972 0.0
C1412 C 0.21119 0.99515 0.84807 0.0
H1413 H 0.00626 0.80799 0.90719 0.0
H1414 H 0.93865 0.75826 0.90251 0.0
H1415 H 0.93734 0.75921 0.03725 0.0
H1416 H 0.02011 0.78761 0.06015 0.0
H1417 H 0.03903 0.8137 0.09735 0.0
H1418 H 0.03403 0.81064 1.00051 0.0
H1419 H 0.02387 0.84075 0.00322 0.0
H1420 H 0.02878 0.84384 0.1003 0.0
H1421 H 0.00302 0.8383 0.06454 0.0
H1422 H 0.94403 0.76384 0.17349 0.0
H1423 H 0.95868 0.77065 0.29925 0.0
H1424 H 0.02191 0.8171 0.21465 0.0
C1425 C 0.99108 0.79756 0.93439 0.0
C1426 C 0.97252 0.78315 0.89409 0.0
C1427 C 0.95308 0.76949 0.93204 0.0
C1428 C 0.95215 0.76996 0.00865 0.0
C1429 C 0.97078 0.78418 0.04679 0.0
C1430 C 0.9899 0.79772 0.01091 0.0
C1431 C 0.008 0.8104 0.06479 0.0
C1432 C 0.02637 0.80527 0.05511 0.0
C1433 C 0.01641 0.83477 0.05778 0.0
C1434 C 0.99619 0.80162 0.13649 0.0
C1435 C 0.97468 0.78669 0.12508 0.0
C1436 C 0.96081 0.77567 0.18309 0.0
C1437 C 0.96927 0.77967 0.25442 0.0
C1438 C 0.99143 0.79447 0.26712 0.0
C1439 C 0.00485 0.80584 0.20716 0.0
H1440 H 0.20619 0.23032 0.17768 0.0
H1441 H 0.24431 0.20397 0.26843 0.0
H1442 H 0.25008 0.1943 0.14424 0.0
H1443 H 0.1809 0.19057 0.02997 0.0
H1444 H 0.18216 0.21051 0.96666 0.0
H1445 H 0.17952 0.2136 0.06322 0.0
H1446 H 0.21375 0.25157 0.05929 0.0
H1447 H 0.21658 0.24856 0.96296 0.0
H1448 H 0.23861 0.25445 0.02413 0.0
H1449 H 0.25426 0.19034 0.00935 0.0
H1450 H 0.25544 0.1913 0.8743 0.0
H1451 H 0.21426 0.2199 0.8728 0.0
C1452 C 0.21543 0.22218 0.17169 0.0
C1453 C 0.22475 0.21787 0.23283 0.0
C1454 C 0.23695 0.20739 0.22242 0.0
C1455 C 0.24032 0.20182 0.1521 0.0
C1456 C 0.23127 0.20672 0.09287 0.0
C1457 C 0.21894 0.21651 0.102 0.0
C1458 C 0.21187 0.22096 0.02922 0.0
C1459 C 0.18715 0.20814 0.02185 0.0
C1460 C 0.22074 0.24533 0.01829 0.0
C1461 C 0.22249 0.21251 0.97766 0.0
C1462 C 0.23354 0.20429 0.01534 0.0
C1463 C 0.24544 0.1965 0.97924 0.0
C1464 C 0.24606 0.19716 0.90256 0.0
C1465 C 0.23485 0.20556 0.86297 0.0
C1466 C 0.22281 0.21316 0.90135 0.0
H1467 H 0.81206 0.00409 0.19344 0.0
H1468 H 0.83261 0.06822 0.27829 0.0
H1469 H 0.84275 0.08314 0.15314 0.0
H1470 H 0.85359 0.02041 0.0511 0.0
H1471 H 0.83515 0.00052 0.98728 0.0
H1472 H 0.83138 0.99535 0.08412 0.0
H1473 H 0.79234 0.98854 0.07325 0.0
H1474 H 0.79601 0.9938 0.97658 0.0
H1475 H 0.78786 0.00907 0.03349 0.0
H1476 H 0.84796 0.0905 0.01694 0.0
H1477 H 0.84853 0.08997 0.88209 0.0
H1478 H 0.82452 0.0209 0.88634 0.0
C1479 C 0.81906 0.02136 0.18617 0.0
C1480 C 0.82163 0.03501 0.24609 0.0
C1481 C 0.83059 0.05745 0.23356 0.0
C1482 C 0.83638 0.06606 0.16257 0.0
C1483 C 0.83319 0.05204 0.10463 0.0
C1484 C 0.82486 0.03018 0.11582 0.0
C1485 C 0.822 0.01839 0.04407 0.0
C1486 C 0.83639 0.00806 0.04151 0.0
C1487 C 0.79814 0.00145 0.03111 0.0
C1488 C 0.82972 0.03697 0.99041 0.0
C1489 C 0.8362 0.05626 0.02646 0.0
C1490 C 0.84313 0.07551 0.98832 0.0
C1491 C 0.84335 0.07502 0.91156 0.0
C1492 C 0.83667 0.05542 0.8733 0.0
C1493 C 0.82995 0.0362 0.91372 0.0
H1494 H 0.70417 0.58434 0.13537 0.0
H1495 H 0.68833 0.51765 0.10727 0.0
H1496 H 0.69127 0.51441 0.24061 0.0
H1497 H 0.74287 0.59733 0.2851 0.0
H1498 H 0.73435 0.61412 0.33106 0.0
H1499 H 0.73252 0.6116 0.23296 0.0
H1500 H 0.69176 0.59928 0.23967 0.0
H1501 H 0.69344 0.60166 0.33769 0.0
H1502 H 0.6742 0.57643 0.2959 0.0
H1503 H 0.69309 0.51758 0.37754 0.0
H1504 H 0.69507 0.52736 0.50791 0.0
H1505 H 0.71039 0.59218 0.44608 0.0
C1506 C 0.70162 0.56913 0.15703 0.0
C1507 C 0.69605 0.55125 0.11081 0.0
C1508 C 0.6927 0.5316 0.14151 0.0
C1509 C 0.69432 0.52959 0.2172 0.0
C1510 C 0.69947 0.54743 0.26129 0.0
C1511 C 0.70325 0.56688 0.2323 0.0
C1512 C 0.70774 0.58333 0.29177 0.0
C1513 C 0.73074 0.60274 0.28479 0.0
C1514 C 0.69077 0.59059 0.2912 0.0
C1515 C 0.70552 0.56998 0.35888 0.0
C1516 C 0.70079 0.54933 0.34014 0.0
C1517 C 0.69703 0.53377 0.39288 0.0
C1518 C 0.69812 0.53946 0.46675 0.0
C1519 C 0.70299 0.56055 0.48715 0.0
C1520 C 0.70688 0.576 0.43227 0.0
H1521 H 0.44117 0.14223 0.44139 0.0
H1522 H 0.50828 0.1756 0.51049 0.0
H1523 H 0.51982 0.18161 0.38163 0.0
H1524 H 0.44741 0.11457 0.29436 0.0
H1525 H 0.42858 0.11684 0.23466 0.0
H1526 H 0.42542 0.117 0.33219 0.0
H1527 H 0.4263 0.15362 0.32323 0.0
H1528 H 0.42942 0.15356 0.22546 0.0
H1529 H 0.44878 0.17619 0.27888 0.0
H1530 H 0.5242 0.18059 0.24715 0.0
H1531 H 0.52111 0.17366 0.11435 0.0
H1532 H 0.45132 0.14211 0.13068 0.0
C1533 C 0.4583 0.15114 0.42947 0.0
C1534 C 0.47382 0.15847 0.48616 0.0
C1535 C 0.49607 0.16986 0.46813 0.0
C1536 C 0.50281 0.1734 0.39505 0.0
C1537 C 0.48712 0.16564 0.34055 0.0
C1538 C 0.46532 0.1549 0.3567 0.0
C1539 C 0.45181 0.14721 0.28765 0.0
C1540 C 0.43747 0.12244 0.28722 0.0
C1541 C 0.43828 0.15831 0.27827 0.0
C1542 C 0.46944 0.15482 0.23037 0.0
C1543 C 0.48968 0.16549 0.2622 0.0
C1544 C 0.50848 0.17261 0.22138 0.0
C1545 C 0.50655 0.16855 0.1461 0.0
C1546 C 0.486 0.1576 0.11233 0.0
C1547 C 0.46724 0.15095 0.15492 0.0
H1548 H 0.88706 0.36568 0.18989 0.0
H1549 H 0.86585 0.29992 0.12066 0.0
H1550 H 0.85977 0.28809 0.24953 0.0
H1551 H 0.91567 0.36501 0.34837 0.0
H1552 H 0.908 0.38108 0.40306 0.0
H1553 H 0.9099 0.38427 0.30523 0.0
H1554 H 0.87041 0.37646 0.30019 0.0
H1555 H 0.86839 0.37327 0.39808 0.0
H1556 H 0.84919 0.3519 0.34003 0.0
H1557 H 0.85703 0.28359 0.38569 0.0
H1558 H 0.85779 0.28663 0.52 0.0
H1559 H 0.88072 0.35534 0.50103 0.0
C1560 C 0.88101 0.34875 0.2017 0.0
C1561 C 0.8769 0.33371 0.14506 0.0
C1562 C 0.86909 0.31174 0.16302 0.0
C1563 C 0.86557 0.30486 0.23608 0.0
C1564 C 0.86989 0.32012 0.29053 0.0
C1565 C 0.87741 0.3416 0.2743 0.0
C1566 C 0.88121 0.35481 0.34322 0.0
C1567 C 0.90512 0.37232 0.35037 0.0
C1568 C 0.86642 0.36469 0.34549 0.0
C1569 C 0.87484 0.33741 0.4008 0.0
C1570 C 0.8683 0.31752 0.36917 0.0
C1571 C 0.86203 0.29906 0.4111 0.0
C1572 C 0.86254 0.30097 0.48742 0.0
C1573 C 0.86928 0.32122 0.52118 0.0
C1574 C 0.87539 0.33962 0.47698 0.0
H1575 H 0.68598 0.15142 0.22635 0.0
H1576 H 0.61679 0.10713 0.22204 0.0
H1577 H 0.61598 0.10758 0.35709 0.0
H1578 H 0.69691 0.12767 0.37699 0.0
H1579 H 0.71775 0.15285 0.41444 0.0
H1580 H 0.71253 0.15042 0.3177 0.0
H1581 H 0.70654 0.18332 0.32202 0.0
H1582 H 0.71174 0.18585 0.41892 0.0
H1583 H 0.68688 0.18309 0.3843 0.0
H1584 H 0.62312 0.11144 0.49269 0.0
H1585 H 0.63774 0.11753 0.61816 0.0
H1586 H 0.70232 0.15894 0.53281 0.0
C1587 C 0.67059 0.14203 0.25366 0.0
C1588 C 0.65142 0.12932 0.21363 0.0
C1589 C 0.63167 0.11703 0.25158 0.0
C1590 C 0.63104 0.11723 0.32825 0.0
C1591 C 0.6503 0.12979 0.36602 0.0
C1592 C 0.6697 0.14195 0.32996 0.0
C1593 C 0.68828 0.15311 0.3832 0.0
C1594 C 0.70483 0.14555 0.37243 0.0
C1595 C 0.69898 0.17781 0.37671 0.0
C1596 C 0.67635 0.14511 0.45492 0.0
C1597 C 0.65443 0.13183 0.44393 0.0
C1598 C 0.64023 0.12194 0.50198 0.0
C1599 C 0.6487 0.1255 0.57306 0.0
C1600 C 0.67118 0.13875 0.58538 0.0
C1601 C 0.68506 0.14885 0.52537 0.0
H1602 H 0.91879 0.56321 0.23161 0.0
H1603 H 0.85571 0.5129 0.15844 0.0
H1604 H 0.84597 0.50022 0.28569 0.0
H1605 H 0.92642 0.53227 0.37333 0.0
H1606 H 0.93914 0.55475 0.43567 0.0
H1607 H 0.94155 0.55946 0.33846 0.0
H1608 H 0.92598 0.58517 0.35172 0.0
H1609 H 0.92371 0.58069 0.44895 0.0
H1610 H 0.90031 0.57562 0.39642 0.0
H1611 H 0.84281 0.49336 0.42108 0.0
H1612 H 0.84549 0.49445 0.55566 0.0
H1613 H 0.9105 0.54943 0.54095 0.0
C1614 C 0.90296 0.54947 0.24226 0.0
C1615 C 0.88804 0.53902 0.18493 0.0
C1616 C 0.86741 0.52122 0.20139 0.0
C1617 C 0.86176 0.51381 0.27348 0.0
C1618 C 0.87688 0.5244 0.32861 0.0
C1619 C 0.89699 0.54195 0.31399 0.0
C1620 C 0.90991 0.55104 0.3836 0.0
C1621 C 0.93047 0.54926 0.38268 0.0
C1622 C 0.91528 0.57452 0.39588 0.0
C1623 C 0.89386 0.53592 0.4397 0.0
C1624 C 0.87498 0.52057 0.40677 0.0
C1625 C 0.85755 0.50526 0.44747 0.0
C1626 C 0.85925 0.50598 0.52396 0.0
C1627 C 0.87822 0.52197 0.55907 0.0
C1628 C 0.89586 0.53684 0.51596 0.0
H1629 H 0.48533 0.34528 0.23765 0.0
H1630 H 0.50565 0.41355 0.23161 0.0
H1631 H 0.50832 0.41507 0.36627 0.0
H1632 H 0.4517 0.33289 0.3911 0.0
H1633 H 0.45798 0.31332 0.4285 0.0
H1634 H 0.45992 0.31818 0.33157 0.0
H1635 H 0.49971 0.32686 0.33361 0.0
H1636 H 0.49791 0.32208 0.43078 0.0
H1637 H 0.5187 0.34747 0.39436 0.0
H1638 H 0.50632 0.40856 0.50246 0.0
H1639 H 0.4981 0.39413 0.62846 0.0
H1640 H 0.47884 0.33012 0.54518 0.0
C1641 C 0.49071 0.36064 0.26453 0.0
C1642 C 0.49542 0.37933 0.22394 0.0
C1643 C 0.50201 0.39902 0.26142 0.0
C1644 C 0.50366 0.40007 0.33796 0.0
C1645 C 0.49868 0.3813 0.3764 0.0
C1646 C 0.49231 0.36194 0.34093 0.0
C1647 C 0.48634 0.34377 0.39511 0.0
C1648 C 0.46258 0.326 0.38602 0.0
C1649 C 0.50158 0.3345 0.38803 0.0
C1650 C 0.48993 0.35583 0.46654 0.0
C1651 C 0.49731 0.37751 0.45471 0.0
C1652 C 0.50075 0.39165 0.5124 0.0
C1653 C 0.49608 0.38331 0.58386 0.0
C1654 C 0.48789 0.36101 0.59695 0.0
C1655 C 0.48527 0.34728 0.53735 0.0
H1656 H 0.37578 0.9248 0.42334 0.0
H1657 H 0.32662 0.85718 0.4057 0.0
H1658 H 0.33144 0.85185 0.53598 0.0
H1659 H 0.41053 0.91776 0.55898 0.0
H1660 H 0.41655 0.94211 0.60744 0.0
H1661 H 0.41128 0.94012 0.51057 0.0
H1662 H 0.38098 0.94936 0.53208 0.0
H1663 H 0.38604 0.95122 0.62892 0.0
H1664 H 0.35933 0.93312 0.59448 0.0
H1665 H 0.33902 0.8543 0.66892 0.0
H1666 H 0.34904 0.86433 0.79765 0.0
H1667 H 0.39295 0.93062 0.73189 0.0
C1668 C 0.3665 0.90877 0.4466 0.0
C1669 C 0.35099 0.89134 0.40443 0.0
C1670 C 0.33865 0.87073 0.43707 0.0
C1671 C 0.3413 0.86752 0.51096 0.0
C1672 C 0.35631 0.88511 0.55161 0.0
C1673 C 0.36877 0.90533 0.52079 0.0
C1674 C 0.38248 0.92181 0.57834 0.0
C1675 C 0.40664 0.93099 0.5629 0.0
C1676 C 0.37686 0.93994 0.58376 0.0
C1677 C 0.37544 0.90775 0.64629 0.0
C1678 C 0.36049 0.88661 0.62932 0.0
C1679 C 0.35089 0.87075 0.6829 0.0
C1680 C 0.35664 0.87665 0.75596 0.0
C1681 C 0.37182 0.89826 0.77501 0.0
C1682 C 0.38145 0.91394 0.71912 0.0
H1683 H 0.09899 0.47415 0.66218 0.0
H1684 H 0.16589 0.51571 0.72538 0.0
H1685 H 0.17613 0.52313 0.59504 0.0
H1686 H 0.10967 0.45029 0.5101 0.0
H1687 H 0.08812 0.4488 0.45467 0.0
H1688 H 0.08594 0.44816 0.55273 0.0
H1689 H 0.07967 0.48089 0.54829 0.0
H1690 H 0.08203 0.48169 0.45009 0.0
H1691 H 0.09918 0.50541 0.50331 0.0
H1692 H 0.17942 0.52425 0.4577 0.0
H1693 H 0.17583 0.51764 0.32463 0.0
H1694 H 0.10675 0.47541 0.35031 0.0
C1695 C 0.11577 0.48504 0.64879 0.0
C1696 C 0.13163 0.49445 0.70432 0.0
C1697 C 0.15344 0.50834 0.68406 0.0
C1698 C 0.1594 0.51272 0.61009 0.0
C1699 C 0.14337 0.50311 0.55682 0.0
C1700 C 0.12201 0.48949 0.57524 0.0
C1701 C 0.10812 0.4802 0.50746 0.0
C1702 C 0.09734 0.4554 0.50619 0.0
C1703 C 0.09125 0.48749 0.50199 0.0
C1704 C 0.12505 0.49046 0.44796 0.0
C1705 C 0.14526 0.50377 0.47763 0.0
C1706 C 0.16364 0.51407 0.4339 0.0
C1707 C 0.16143 0.51024 0.35826 0.0
C1708 C 0.14099 0.49622 0.32675 0.0
C1709 C 0.12252 0.48662 0.37232 0.0
H1710 H 0.54597 0.64335 0.72863 0.0
H1711 H 0.51096 0.676 0.79099 0.0
H1712 H 0.50522 0.68064 0.66057 0.0
H1713 H 0.57367 0.67716 0.57954 0.0
H1714 H 0.57243 0.65592 0.52295 0.0
H1715 H 0.57209 0.6535 0.6209 0.0
H1716 H 0.53632 0.61691 0.61299 0.0
H1717 H 0.53649 0.61931 0.51486 0.0
H1718 H 0.51342 0.61557 0.56664 0.0
H1719 H 0.50551 0.68403 0.52372 0.0
H1720 H 0.5131 0.68736 0.39131 0.0
H1721 H 0.54774 0.65231 0.41684 0.0
C1722 C 0.53684 0.65122 0.71501 0.0
C1723 C 0.52882 0.65922 0.77039 0.0
C1724 C 0.51721 0.66968 0.74984 0.0
C1725 C 0.5138 0.67231 0.6758 0.0
C1726 C 0.52202 0.66435 0.6227 0.0
C1727 C 0.53332 0.65404 0.64135 0.0
C1728 C 0.5416 0.64815 0.57372 0.0
C1729 C 0.56642 0.65936 0.57433 0.0
C1730 C 0.53134 0.62352 0.56665 0.0
C1731 C 0.5336 0.65719 0.5141 0.0
C1732 C 0.52214 0.66626 0.54359 0.0
C1733 C 0.51423 0.67675 0.50001 0.0
C1734 C 0.5186 0.67854 0.42475 0.0
C1735 C 0.53081 0.6699 0.39343 0.0
C1736 C 0.53794 0.65864 0.43873 0.0
H1737 H 0.32308 0.44993 0.88137 0.0
H1738 H 0.33573 0.51532 0.91517 0.0
H1739 H 0.33051 0.51851 0.78313 0.0
H1740 H 0.35224 0.46075 0.7182 0.0
H1741 H 0.33419 0.43533 0.67498 0.0
H1742 H 0.33611 0.43707 0.77309 0.0
H1743 H 0.29485 0.42188 0.78256 0.0
H1744 H 0.29277 0.41992 0.68436 0.0
H1745 H 0.2827 0.43496 0.7333 0.0
H1746 H 0.32666 0.51558 0.64557 0.0
H1747 H 0.32459 0.50678 0.51407 0.0
H1748 H 0.31556 0.44369 0.56934 0.0
C1749 C 0.32414 0.46469 0.86129 0.0
C1750 C 0.32956 0.4823 0.90881 0.0
C1751 C 0.33146 0.50158 0.87992 0.0
C1752 C 0.32851 0.50353 0.80495 0.0
C1753 C 0.32376 0.4861 0.75923 0.0
C1754 C 0.32152 0.46701 0.78633 0.0
C1755 C 0.31799 0.45132 0.72486 0.0
C1756 C 0.33622 0.4458 0.72268 0.0
C1757 C 0.29575 0.43081 0.73169 0.0
C1758 C 0.31891 0.46467 0.65897 0.0
C1759 C 0.32204 0.4846 0.67997 0.0
C1760 C 0.32404 0.49994 0.62859 0.0
C1761 C 0.32287 0.4948 0.5539 0.0
C1762 C 0.31989 0.47454 0.531 0.0
C1763 C 0.31777 0.4593 0.58471 0.0
H1764 H 0.5935 0.90001 0.81687 0.0
H1765 H 0.52508 0.87696 0.84428 0.0
H1766 H 0.51958 0.87077 0.71166 0.0
H1767 H 0.59938 0.92923 0.65431 0.0
H1768 H 0.61844 0.9231 0.6118 0.0
H1769 H 0.61691 0.92372 0.70992 0.0
H1770 H 0.61028 0.88465 0.71711 0.0
H1771 H 0.61189 0.88395 0.61891 0.0
H1772 H 0.58837 0.86348 0.66596 0.0
H1773 H 0.52152 0.86896 0.57678 0.0
H1774 H 0.53101 0.87237 0.44605 0.0
H1775 H 0.59835 0.8975 0.50375 0.0
C1776 C 0.57734 0.89328 0.7949 0.0
C1777 C 0.55968 0.88884 0.8407 0.0
C1778 C 0.53882 0.88049 0.81004 0.0
C1779 C 0.53551 0.87683 0.73484 0.0
C1780 C 0.55325 0.88172 0.69087 0.0
C1781 C 0.57377 0.88978 0.71946 0.0
C1782 C 0.5902 0.895 0.65908 0.0
C1783 C 0.60723 0.9192 0.65878 0.0
C1784 C 0.6008 0.88093 0.66567 0.0
C1785 C 0.57571 0.88888 0.5924 0.0
C1786 C 0.55443 0.88105 0.61218 0.0
C1787 C 0.5381 0.87492 0.56046 0.0
C1788 C 0.54366 0.87695 0.48632 0.0
C1789 C 0.5654 0.88517 0.46456 0.0
C1790 C 0.58157 0.89105 0.51855 0.0
H1791 H 0.15322 0.68193 0.49507 0.0
H1792 H 0.17194 0.74979 0.48694 0.0
H1793 H 0.17365 0.75144 0.6217 0.0
H1794 H 0.11837 0.66894 0.64595 0.0
H1795 H 0.12498 0.64983 0.68523 0.0
H1796 H 0.12741 0.65458 0.58821 0.0
H1797 H 0.16746 0.66413 0.59376 0.0
H1798 H 0.16515 0.65948 0.69103 0.0
H1799 H 0.18578 0.68503 0.65507 0.0
H1800 H 0.17121 0.74518 0.75781 0.0
H1801 H 0.16266 0.73095 0.88392 0.0
H1802 H 0.145 0.66708 0.80309 0.0
C1803 C 0.15803 0.69723 0.52157 0.0
C1804 C 0.16261 0.71578 0.48034 0.0
C1805 C 0.16843 0.73538 0.51727 0.0
C1806 C 0.16954 0.7365 0.59386 0.0
C1807 C 0.16475 0.71789 0.63291 0.0
C1808 C 0.15904 0.69859 0.59804 0.0
C1809 C 0.15312 0.68056 0.65277 0.0
C1810 C 0.12958 0.66242 0.64242 0.0
C1811 C 0.16882 0.67179 0.64785 0.0
C1812 C 0.15602 0.69264 0.72377 0.0
C1813 C 0.16301 0.71421 0.71126 0.0
C1814 C 0.1659 0.72835 0.76832 0.0
C1815 C 0.16105 0.72012 0.83985 0.0
C1816 C 0.15321 0.69791 0.85363 0.0
C1817 C 0.15114 0.68418 0.79469 0.0
loop_
_geom_bond_atom_site_label_1
_geom_bond_atom_site_label_2
_geom_bond_distance
_geom_bond_site_symmetry_2
_ccdc_geom_bond_type
Zn0 O6 1.969 . S
Zn0 O7 1.965 . S
Zn0 O11 2.024 1_455 S
Zn0 O16 1.969 . S
Zn1 O8 1.969 . S
Zn1 O14 1.969 . S
Zn1 O15 1.965 . S
Zn1 O17 2.024 . S
C2 O3 1.229 . S
C2 O11 1.058 . S
O3 C2 1.229 . S
C4 O5 1.229 . S
C4 O17 1.058 . S
O5 C4 1.229 . S
O6 Zn0 1.969 . S
O6 C9 1.267 . S
O7 Zn0 1.965 . S
O7 C18 1.260 1_455 S
O8 Zn1 1.969 . S
O8 C18 1.258 1_455 S
C9 O6 1.267 . S
C9 O10 1.228 1_455 S
O10 C9 1.228 1_655 S
O11 Zn0 2.024 1_655 S
O11 C2 1.058 . S
C12 O13 1.228 . S
C12 O14 1.267 . S
O13 C12 1.228 . S
O14 Zn1 1.969 . S
O14 C12 1.267 . S
O15 Zn1 1.965 . S
O15 C19 1.260 . S
O16 Zn0 1.969 . S
O16 C19 1.258 . S
O17 Zn1 2.024 . S
O17 C4 1.058 . S
C18 O7 1.260 1_655 S
C18 O8 1.258 1_655 S
C19 O15 1.260 . S
C19 O16 1.258 . S
Zn20 O26 1.969 . S
Zn20 O27 1.965 . S
Zn20 O31 2.024 . S
Zn20 O36 1.969 . S
Zn21 O28 1.969 . S
Zn21 O34 1.969 . S
Zn21 O35 1.965 . S
Zn21 O37 2.024 . S
C22 O23 1.229 . S
C22 O31 1.058 . S
O23 C22 1.229 . S
C24 O25 1.229 . S
C24 O37 1.058 . S
O25 C24 1.229 . S
O26 Zn20 1.969 . S
O26 C29 1.267 . S
O27 Zn20 1.965 . S
O27 C38 1.260 . S
O28 Zn21 1.969 . S
O28 C38 1.258 . S
C29 O26 1.267 . S
C29 O30 1.228 . S
O30 C29 1.228 . S
O31 Zn20 2.024 . S
O31 C22 1.058 . S
C32 O33 1.228 . S
C32 O34 1.267 . S
O33 C32 1.228 . S
O34 Zn21 1.969 . S
O34 C32 1.267 . S
O35 Zn21 1.965 . S
O35 C39 1.260 . S
O36 Zn20 1.969 . S
O36 C39 1.258 . S
O37 Zn21 2.024 . S
O37 C24 1.058 . S
C38 O27 1.260 . S
C38 O28 1.258 . S
C39 O35 1.260 . S
C39 O36 1.258 . S
Zn40 O46 1.969 . S
Zn40 O47 1.965 . S
Zn40 O51 2.024 . S
Zn40 O56 1.969 . S
Zn41 O48 1.969 . S
Zn41 O54 1.969 . S
Zn41 O55 1.965 . S
Zn41 O57 2.024 1_545 S
C42 O43 1.229 . S
C42 O51 1.058 . S
O43 C42 1.229 . S
C44 O45 1.229 . S
C44 O57 1.058 . S
O45 C44 1.229 . S
O46 Zn40 1.969 . S
O46 C49 1.267 . S
O47 Zn40 1.965 . S
O47 C58 1.260 . S
O48 Zn41 1.969 . S
O48 C58 1.258 . S
C49 O46 1.267 . S
C49 O50 1.228 . S
O50 C49 1.228 . S
O51 Zn40 2.024 . S
O51 C42 1.058 . S
C52 O53 1.228 1_545 S
C52 O54 1.267 . S
O53 C52 1.228 1_565 S
O54 Zn41 1.969 . S
O54 C52 1.267 . S
O55 Zn41 1.965 . S
O55 C59 1.260 1_545 S
O56 Zn40 1.969 . S
O56 C59 1.258 1_545 S
O57 Zn41 2.024 1_565 S
O57 C44 1.058 . S
C58 O47 1.260 . S
C58 O48 1.258 . S
C59 O55 1.260 1_565 S
C59 O56 1.258 1_565 S
Zn60 O66 1.971 1_655 S
Zn60 O67 1.951 1_655 S
Zn60 O71 2.020 . S
Zn60 O76 1.971 1_655 S
Zn61 O68 1.969 1_455 S
Zn61 O74 1.969 . S
Zn61 O75 1.965 . S
Zn61 O77 2.024 . S
C62 O63 1.229 . S
C62 O71 1.058 . S
O63 C62 1.229 . S
C64 O65 1.229 . S
C64 O77 1.058 . S
O65 C64 1.229 . S
O66 Zn60 1.971 1_455 S
O66 C69 1.267 . S
O67 Zn60 1.951 1_455 S
O67 C78 1.257 1_455 S
O68 Zn61 1.969 1_655 S
O68 C78 1.258 . S
C69 O66 1.267 . S
C69 O70 1.228 1_455 S
O70 C69 1.228 1_655 S
O71 Zn60 2.020 . S
O71 C62 1.058 . S
C72 O73 1.228 . S
C72 O74 1.267 . S
O73 C72 1.228 . S
O74 Zn61 1.969 . S
O74 C72 1.267 . S
O75 Zn61 1.965 . S
O75 C79 1.260 . S
O76 Zn60 1.971 1_455 S
O76 C79 1.258 . S
O77 Zn61 2.024 . S
O77 C64 1.058 . S
C78 O67 1.257 1_655 S
C78 O68 1.258 . S
C79 O75 1.260 . S
C79 O76 1.258 . S
Zn80 O86 1.969 . S
Zn80 O87 1.965 . S
Zn80 O91 2.024 . S
Zn80 O96 1.969 . S
Zn81 O88 1.969 . S
Zn81 O94 1.969 . S
Zn81 O95 1.965 . S
Zn81 O97 2.024 . S
C82 O83 1.229 . S
C82 O91 1.058 . S
O83 C82 1.229 . S
C84 O85 1.229 . S
C84 O97 1.058 . S
O85 C84 1.229 . S
O86 Zn80 1.969 . S
O86 C89 1.267 . S
O87 Zn80 1.965 . S
O87 C98 1.260 . S
O88 Zn81 1.969 . S
O88 C98 1.258 . S
C89 O86 1.267 . S
C89 O90 1.228 . S
O90 C89 1.228 . S
O91 Zn80 2.024 . S
O91 C82 1.058 . S
C92 O93 1.228 . S
C92 O94 1.267 . S
O93 C92 1.228 . S
O94 Zn81 1.969 . S
O94 C92 1.267 . S
O95 Zn81 1.965 . S
O95 C99 1.260 . S
O96 Zn80 1.969 . S
O96 C99 1.258 . S
O97 Zn81 2.024 . S
O97 C84 1.058 . S
C98 O87 1.260 . S
C98 O88 1.258 . S
C99 O95 1.260 . S
C99 O96 1.258 . S
Zn100 O106 1.969 . S
Zn100 O107 1.965 . S
Zn100 O111 2.024 . S
Zn100 O116 1.969 . S
Zn101 O108 1.969 . S
Zn101 O114 1.969 . S
Zn101 O115 1.965 . S
Zn101 O117 2.024 1_545 S
C102 O103 1.229 . S
C102 O111 1.058 . S
O103 C102 1.229 . S
C104 O105 1.229 . S
C104 O117 1.058 . S
O105 C104 1.229 . S
O106 Zn100 1.969 . S
O106 C109 1.267 . S
O107 Zn100 1.965 . S
O107 C118 1.260 . S
O108 Zn101 1.969 . S
O108 C118 1.258 . S
C109 O106 1.267 . S
C109 O110 1.228 . S
O110 C109 1.228 . S
O111 Zn100 2.024 . S
O111 C102 1.058 . S
C112 O113 1.228 1_545 S
C112 O114 1.267 . S
O113 C112 1.228 1_565 S
O114 Zn101 1.969 . S
O114 C112 1.267 . S
O115 Zn101 1.965 . S
O115 C119 1.260 1_545 S
O116 Zn100 1.969 . S
O116 C119 1.258 1_545 S
O117 Zn101 2.024 1_565 S
O117 C104 1.058 . S
C118 O107 1.260 . S
C118 O108 1.258 . S
C119 O115 1.260 1_565 S
C119 O116 1.258 1_565 S
Zn120 O126 1.969 1_556 S
Zn120 O127 1.965 . S
Zn120 O131 2.024 . S
Zn120 O136 1.969 . S
Zn121 O128 1.969 . S
Zn121 O134 1.969 . S
Zn121 O135 1.965 . S
Zn121 O137 2.024 . S
C122 O123 1.229 1_556 S
C122 O131 1.058 . S
O123 C122 1.229 1_554 S
C124 O125 1.229 . S
C124 O137 1.058 . S
O125 C124 1.229 . S
O126 Zn120 1.969 1_554 S
O126 C129 1.267 . S
O127 Zn120 1.965 . S
O127 C138 1.260 . S
O128 Zn121 1.969 . S
O128 C138 1.258 . S
C129 O126 1.267 . S
C129 O130 1.228 . S
O130 C129 1.228 . S
O131 Zn120 2.024 . S
O131 C122 1.058 . S
C132 O133 1.228 . S
C132 O134 1.267 . S
O133 C132 1.228 . S
O134 Zn121 1.969 . S
O134 C132 1.267 . S
O135 Zn121 1.965 . S
O135 C139 1.260 . S
O136 Zn120 1.969 . S
O136 C139 1.258 . S
O137 Zn121 2.024 . S
O137 C124 1.058 . S
C138 O127 1.260 . S
C138 O128 1.258 . S
C139 O135 1.260 . S
C139 O136 1.258 . S
Zn140 O146 1.969 1_556 S
Zn140 O147 1.965 . S
Zn140 O151 2.024 . S
Zn140 O156 1.969 . S
Zn141 O148 1.969 . S
Zn141 O154 1.969 . S
Zn141 O155 1.965 . S
Zn141 O157 2.024 . S
C142 O143 1.229 1_556 S
C142 O151 1.058 . S
O143 C142 1.229 1_554 S
C144 O145 1.229 . S
C144 O157 1.058 . S
O145 C144 1.229 . S
O146 Zn140 1.969 1_554 S
O146 C149 1.267 . S
O147 Zn140 1.965 . S
O147 C158 1.260 . S
O148 Zn141 1.969 . S
O148 C158 1.258 . S
C149 O146 1.267 . S
C149 O150 1.228 . S
O150 C149 1.228 . S
O151 Zn140 2.024 . S
O151 C142 1.058 . S
C152 O153 1.228 . S
C152 O154 1.267 . S
O153 C152 1.228 . S
O154 Zn141 1.969 . S
O154 C152 1.267 . S
O155 Zn141 1.965 . S
O155 C159 1.260 . S
O156 Zn140 1.969 . S
O156 C159 1.258 . S
O157 Zn141 2.024 . S
O157 C144 1.058 . S
C158 O147 1.260 . S
C158 O148 1.258 . S
C159 O155 1.260 . S
C159 O156 1.258 . S
Zn160 O166 1.969 1_556 S
Zn160 O167 1.965 . S
Zn160 O171 2.024 . S
Zn160 O176 1.969 . S
Zn161 O168 1.969 . S
Zn161 O174 1.969 . S
Zn161 O175 1.965 . S
Zn161 O177 2.024 . S
C162 O163 1.229 1_556 S
C162 O171 1.058 . S
O163 C162 1.229 1_554 S
C164 O165 1.229 . S
C164 O177 1.058 . S
O165 C164 1.229 . S
O166 Zn160 1.969 1_554 S
O166 C169 1.267 . S
O167 Zn160 1.965 . S
O167 C178 1.260 . S
O168 Zn161 1.969 . S
O168 C178 1.258 . S
C169 O166 1.267 . S
C169 O170 1.228 . S
O170 C169 1.228 . S
O171 Zn160 2.024 . S
O171 C162 1.058 . S
C172 O173 1.228 . S
C172 O174 1.267 . S
O173 C172 1.228 . S
O174 Zn161 1.969 . S
O174 C172 1.267 . S
O175 Zn161 1.965 . S
O175 C179 1.260 . S
O176 Zn160 1.969 . S
O176 C179 1.258 . S
O177 Zn161 2.024 . S
O177 C164 1.058 . S
C178 O167 1.260 . S
C178 O168 1.258 . S
C179 O175 1.260 . S
C179 O176 1.258 . S
Zn180 O186 1.969 . S
Zn180 O187 1.965 . S
Zn180 O191 2.024 . S
Zn180 O196 1.969 . S
Zn181 O188 1.969 . S
Zn181 O194 1.969 . S
Zn181 O195 1.965 . S
Zn181 O197 2.024 . S
C182 O183 1.229 . S
C182 O191 1.058 . S
O183 C182 1.229 . S
C184 O185 1.229 . S
C184 O197 1.058 . S
O185 C184 1.229 . S
O186 Zn180 1.969 . S
O186 C189 1.267 1_556 S
O187 Zn180 1.965 . S
O187 C198 1.260 . S
O188 Zn181 1.969 . S
O188 C198 1.258 . S
C189 O186 1.267 1_554 S
C189 O190 1.228 . S
O190 C189 1.228 . S
O191 Zn180 2.024 . S
O191 C182 1.058 . S
C192 O193 1.228 . S
C192 O194 1.267 . S
O193 C192 1.228 . S
O194 Zn181 1.969 . S
O194 C192 1.267 . S
O195 Zn181 1.965 . S
O195 C199 1.260 . S
O196 Zn180 1.969 . S
O196 C199 1.258 . S
O197 Zn181 2.024 . S
O197 C184 1.058 . S
C198 O187 1.260 . S
C198 O188 1.258 . S
C199 O195 1.260 . S
C199 O196 1.258 . S
Zn200 O206 1.969 . S
Zn200 O207 1.965 . S
Zn200 O211 2.024 . S
Zn200 O216 1.969 . S
Zn201 O208 1.969 . S
Zn201 O214 1.969 . S
Zn201 O215 1.965 . S
Zn201 O217 2.024 . S
C202 O203 1.229 . S
C202 O211 1.058 . S
O203 C202 1.229 . S
C204 O205 1.229 . S
C204 O217 1.058 . S
O205 C204 1.229 . S
O206 Zn200 1.969 . S
O206 C209 1.267 1_556 S
O207 Zn200 1.965 . S
O207 C218 1.260 . S
O208 Zn201 1.969 . S
O208 C218 1.258 . S
C209 O206 1.267 1_554 S
C209 O210 1.228 . S
O210 C209 1.228 . S
O211 Zn200 2.024 . S
O211 C202 1.058 . S
C212 O213 1.228 . S
C212 O214 1.267 . S
O213 C212 1.228 . S
O214 Zn201 1.969 . S
O214 C212 1.267 . S
O215 Zn201 1.965 . S
O215 C219 1.260 . S
O216 Zn200 1.969 . S
O216 C219 1.258 . S
O217 Zn201 2.024 . S
O217 C204 1.058 . S
C218 O207 1.260 . S
C218 O208 1.258 . S
C219 O215 1.260 . S
C219 O216 1.258 . S
Zn220 O226 1.969 . S
Zn220 O227 1.965 . S
Zn220 O231 2.024 . S
Zn220 O236 1.969 . S
Zn221 O228 1.969 . S
Zn221 O234 1.969 . S
Zn221 O235 1.965 . S
Zn221 O237 2.024 . S
C222 O223 1.229 . S
C222 O231 1.058 . S
O223 C222 1.229 . S
C224 O225 1.229 . S
C224 O237 1.058 . S
O225 C224 1.229 . S
O226 Zn220 1.969 . S
O226 C229 1.267 1_556 S
O227 Zn220 1.965 . S
O227 C238 1.260 . S
O228 Zn221 1.969 . S
O228 C238 1.258 . S
C229 O226 1.267 1_554 S
C229 O230 1.228 . S
O230 C229 1.228 . S
O231 Zn220 2.024 . S
O231 C222 1.058 . S
C232 O233 1.228 . S
C232 O234 1.267 . S
O233 C232 1.228 . S
O234 Zn221 1.969 . S
O234 C232 1.267 . S
O235 Zn221 1.965 . S
O235 C239 1.260 . S
O236 Zn220 1.969 . S
O236 C239 1.258 . S
O237 Zn221 2.024 . S
O237 C224 1.058 . S
C238 O227 1.260 . S
C238 O228 1.258 . S
C239 O235 1.260 . S
C239 O236 1.258 . S
Zn240 O246 1.969 . S
Zn240 O247 1.965 . S
Zn240 O251 2.024 . S
Zn240 O256 1.969 . S
Zn241 O248 1.969 . S
Zn241 O254 1.969 . S
Zn241 O255 1.965 . S
Zn241 O257 2.024 . S
C242 O243 1.229 . S
C242 O251 1.058 . S
O243 C242 1.229 . S
C244 O245 1.229 . S
C244 O257 1.058 . S
O245 C244 1.229 . S
O246 Zn240 1.969 . S
O246 C249 1.267 . S
O247 Zn240 1.965 . S
O247 C258 1.260 . S
O248 Zn241 1.969 . S
O248 C258 1.258 . S
C249 O246 1.267 . S
C249 O250 1.228 . S
O250 C249 1.228 . S
O251 Zn240 2.024 . S
O251 C242 1.058 . S
C252 O253 1.228 . S
C252 O254 1.267 1_556 S
O253 C252 1.228 . S
O254 Zn241 1.969 . S
O254 C252 1.267 1_554 S
O255 Zn241 1.965 . S
O255 C259 1.260 . S
O256 Zn240 1.969 . S
O256 C259 1.258 . S
O257 Zn241 2.024 . S
O257 C244 1.058 . S
C258 O247 1.260 . S
C258 O248 1.258 . S
C259 O255 1.260 . S
C259 O256 1.258 . S
Zn260 O266 1.969 . S
Zn260 O267 1.965 . S
Zn260 O271 2.024 . S
Zn260 O276 1.969 . S
Zn261 O268 1.969 . S
Zn261 O274 1.969 . S
Zn261 O275 1.965 . S
Zn261 O277 2.024 . S
C262 O263 1.229 . S
C262 O271 1.058 . S
O263 C262 1.229 . S
C264 O265 1.229 . S
C264 O277 1.058 . S
O265 C264 1.229 . S
O266 Zn260 1.969 . S
O266 C269 1.267 . S
O267 Zn260 1.965 . S
O267 C278 1.260 . S
O268 Zn261 1.969 . S
O268 C278 1.258 . S
C269 O266 1.267 . S
C269 O270 1.228 . S
O270 C269 1.228 . S
O271 Zn260 2.024 . S
O271 C262 1.058 . S
C272 O273 1.228 . S
C272 O274 1.267 1_556 S
O273 C272 1.228 . S
O274 Zn261 1.969 . S
O274 C272 1.267 1_554 S
O275 Zn261 1.965 . S
O275 C279 1.260 . S
O276 Zn260 1.969 . S
O276 C279 1.258 . S
O277 Zn261 2.024 . S
O277 C264 1.058 . S
C278 O267 1.260 . S
C278 O268 1.258 . S
C279 O275 1.260 . S
C279 O276 1.258 . S
Zn280 O286 1.969 . S
Zn280 O287 1.965 . S
Zn280 O291 2.024 . S
Zn280 O296 1.969 . S
Zn281 O288 1.969 . S
Zn281 O294 1.969 . S
Zn281 O295 1.965 . S
Zn281 O297 2.024 . S
C282 O283 1.229 . S
C282 O291 1.058 . S
O283 C282 1.229 . S
C284 O285 1.229 . S
C284 O297 1.058 . S
O285 C284 1.229 . S
O286 Zn280 1.969 . S
O286 C289 1.267 . S
O287 Zn280 1.965 . S
O287 C298 1.260 . S
O288 Zn281 1.969 . S
O288 C298 1.258 . S
C289 O286 1.267 . S
C289 O290 1.228 . S
O290 C289 1.228 . S
O291 Zn280 2.024 . S
O291 C282 1.058 . S
C292 O293 1.228 . S
C292 O294 1.267 1_556 S
O293 C292 1.228 . S
O294 Zn281 1.969 . S
O294 C292 1.267 1_554 S
O295 Zn281 1.965 . S
O295 C299 1.260 . S
O296 Zn280 1.969 . S
O296 C299 1.258 . S
O297 Zn281 2.024 . S
O297 C284 1.058 . S
C298 O287 1.260 . S
C298 O288 1.258 . S
C299 O295 1.260 . S
C299 O296 1.258 . S
Zn300 O306 1.969 . S
Zn300 O307 1.965 . S
Zn300 O311 2.024 . S
Zn300 O316 1.969 . S
Zn301 O308 1.969 . S
Zn301 O314 1.969 1_554 S
Zn301 O315 1.965 . S
Zn301 O317 2.024 . S
C302 O303 1.229 . S
C302 O311 1.058 . S
O303 C302 1.229 . S
C304 O305 1.229 1_554 S
C304 O317 1.058 . S
O305 C304 1.229 1_556 S
O306 Zn300 1.969 . S
O306 C309 1.267 . S
O307 Zn300 1.965 . S
O307 C318 1.260 . S
O308 Zn301 1.969 . S
O308 C318 1.258 . S
C309 O306 1.267 . S
C309 O310 1.228 . S
O310 C309 1.228 . S
O311 Zn300 2.024 . S
O311 C302 1.058 . S
C312 O313 1.228 . S
C312 O314 1.267 . S
O313 C312 1.228 . S
O314 Zn301 1.969 1_556 S
O314 C312 1.267 . S
O315 Zn301 1.965 . S
O315 C319 1.260 . S
O316 Zn300 1.969 . S
O316 C319 1.258 . S
O317 Zn301 2.024 . S
O317 C304 1.058 . S
C318 O307 1.260 . S
C318 O308 1.258 . S
C319 O315 1.260 . S
C319 O316 1.258 . S
Zn320 O326 1.969 . S
Zn320 O327 1.965 . S
Zn320 O331 2.024 . S
Zn320 O336 1.969 . S
Zn321 O328 1.969 . S
Zn321 O334 1.969 1_554 S
Zn321 O335 1.965 . S
Zn321 O337 2.024 . S
C322 O323 1.229 . S
C322 O331 1.058 . S
O323 C322 1.229 . S
C324 O325 1.229 1_554 S
C324 O337 1.058 . S
O325 C324 1.229 1_556 S
O326 Zn320 1.969 . S
O326 C329 1.267 . S
O327 Zn320 1.965 . S
O327 C338 1.260 . S
O328 Zn321 1.969 . S
O328 C338 1.258 . S
C329 O326 1.267 . S
C329 O330 1.228 . S
O330 C329 1.228 . S
O331 Zn320 2.024 . S
O331 C322 1.058 . S
C332 O333 1.228 . S
C332 O334 1.267 . S
O333 C332 1.228 . S
O334 Zn321 1.969 1_556 S
O334 C332 1.267 . S
O335 Zn321 1.965 . S
O335 C339 1.260 . S
O336 Zn320 1.969 . S
O336 C339 1.258 . S
O337 Zn321 2.024 . S
O337 C324 1.058 . S
C338 O327 1.260 . S
C338 O328 1.258 . S
C339 O335 1.260 . S
C339 O336 1.258 . S
Zn340 O346 1.969 . S
Zn340 O347 1.965 . S
Zn340 O351 2.024 . S
Zn340 O356 1.969 . S
Zn341 O348 1.969 . S
Zn341 O354 1.969 1_554 S
Zn341 O355 1.965 . S
Zn341 O357 2.024 . S
C342 O343 1.229 . S
C342 O351 1.058 . S
O343 C342 1.229 . S
C344 O345 1.229 1_554 S
C344 O357 1.058 . S
O345 C344 1.229 1_556 S
O346 Zn340 1.969 . S
O346 C349 1.267 . S
O347 Zn340 1.965 . S
O347 C358 1.260 . S
O348 Zn341 1.969 . S
O348 C358 1.258 . S
C349 O346 1.267 . S
C349 O350 1.228 . S
O350 C349 1.228 . S
O351 Zn340 2.024 . S
O351 C342 1.058 . S
C352 O353 1.228 . S
C352 O354 1.267 . S
O353 C352 1.228 . S
O354 Zn341 1.969 1_556 S
O354 C352 1.267 . S
O355 Zn341 1.965 . S
O355 C359 1.260 . S
O356 Zn340 1.969 . S
O356 C359 1.258 . S
O357 Zn341 2.024 . S
O357 C344 1.058 . S
C358 O347 1.260 . S
C358 O348 1.258 . S
C359 O355 1.260 . S
C359 O356 1.258 . S
H360 C372 0.930 . S
H361 C374 0.930 . S
H362 C375 0.930 . S
H363 C379 0.959 . S
H364 C379 0.959 . S
H365 C379 0.961 . S
H366 C380 0.960 . S
H367 C380 0.961 . S
H368 C380 0.959 . S
H369 C383 0.929 . S
H370 C384 0.931 . S
H371 C386 0.930 . S
C372 H360 0.930 . S
C372 C373 1.399 . S
C372 C377 1.399 . S
C373 C372 1.399 . S
C373 C374 1.376 . S
C374 H361 0.930 . S
C374 C373 1.376 . S
C374 C375 1.388 . S
C375 H362 0.930 . S
C375 C374 1.388 . S
C375 C376 1.390 . S
C376 C375 1.390 . S
C376 C377 1.394 . S
C376 C382 1.465 . S
C377 C372 1.399 . S
C377 C376 1.394 . S
C377 C378 1.516 . S
C378 C377 1.516 . S
C378 C379 1.502 . S
C378 C380 1.561 . S
C378 C381 1.526 . S
C379 H363 0.959 . S
C379 H364 0.959 . S
C379 H365 0.961 . S
C379 C378 1.502 . S
C380 H366 0.960 . S
C380 H367 0.961 . S
C380 H368 0.959 . S
C380 C378 1.561 . S
C381 C378 1.526 . S
C381 C382 1.396 . S
C381 C386 1.390 . S
C382 C376 1.465 . S
C382 C381 1.396 . S
C382 C383 1.399 . S
C383 H369 0.929 . S
C383 C382 1.399 . S
C383 C384 1.385 . S
C384 H370 0.931 . S
C384 C383 1.385 . S
C384 C385 1.389 . S
C385 C384 1.389 . S
C385 C386 1.387 . S
C386 H371 0.930 . S
C386 C381 1.390 . S
C386 C385 1.387 . S
H387 C399 0.930 . S
H388 C401 0.930 . S
H389 C402 0.930 . S
H390 C406 0.959 . S
H391 C406 0.959 . S
H392 C406 0.961 . S
H393 C407 0.960 . S
H394 C407 0.961 . S
H395 C407 0.959 . S
H396 C410 0.929 . S
H397 C411 0.931 . S
H398 C413 0.930 . S
C399 H387 0.930 . S
C399 C400 1.399 . S
C399 C404 1.399 . S
C400 C399 1.399 . S
C400 C401 1.376 . S
C401 H388 0.930 . S
C401 C400 1.376 . S
C401 C402 1.388 . S
C402 H389 0.930 . S
C402 C401 1.388 . S
C402 C403 1.390 . S
C403 C402 1.390 . S
C403 C404 1.394 . S
C403 C409 1.465 . S
C404 C399 1.399 . S
C404 C403 1.394 . S
C404 C405 1.516 . S
C405 C404 1.516 . S
C405 C406 1.502 . S
C405 C407 1.561 . S
C405 C408 1.526 . S
C406 H390 0.959 . S
C406 H391 0.959 . S
C406 H392 0.961 . S
C406 C405 1.502 . S
C407 H393 0.960 . S
C407 H394 0.961 . S
C407 H395 0.959 . S
C407 C405 1.561 . S
C408 C405 1.526 . S
C408 C409 1.396 . S
C408 C413 1.390 . S
C409 C403 1.465 . S
C409 C408 1.396 . S
C409 C410 1.399 . S
C410 H396 0.929 . S
C410 C409 1.399 . S
C410 C411 1.385 . S
C411 H397 0.931 . S
C411 C410 1.385 . S
C411 C412 1.389 . S
C412 C411 1.389 . S
C412 C413 1.387 . S
C413 H398 0.930 . S
C413 C408 1.390 . S
C413 C412 1.387 . S
H414 C426 0.930 . S
H415 C428 0.930 . S
H416 C429 0.930 . S
H417 C433 0.959 . S
H418 C433 0.959 . S
H419 C433 0.961 . S
H420 C434 0.960 . S
H421 C434 0.961 . S
H422 C434 0.959 . S
H423 C437 0.929 . S
H424 C438 0.931 . S
H425 C440 0.930 . S
C426 H414 0.930 . S
C426 C427 1.399 . S
C426 C431 1.399 . S
C427 C426 1.399 . S
C427 C428 1.376 . S
C428 H415 0.930 . S
C428 C427 1.376 . S
C428 C429 1.388 . S
C429 H416 0.930 . S
C429 C428 1.388 . S
C429 C430 1.390 . S
C430 C429 1.390 . S
C430 C431 1.394 . S
C430 C436 1.465 . S
C431 C426 1.399 . S
C431 C430 1.394 . S
C431 C432 1.516 . S
C432 C431 1.516 . S
C432 C433 1.502 . S
C432 C434 1.561 . S
C432 C435 1.526 . S
C433 H417 0.959 . S
C433 H418 0.959 . S
C433 H419 0.961 . S
C433 C432 1.502 . S
C434 H420 0.960 . S
C434 H421 0.961 . S
C434 H422 0.959 . S
C434 C432 1.561 . S
C435 C432 1.526 . S
C435 C436 1.396 . S
C435 C440 1.390 . S
C436 C430 1.465 . S
C436 C435 1.396 . S
C436 C437 1.399 . S
C437 H423 0.929 . S
C437 C436 1.399 . S
C437 C438 1.385 . S
C438 H424 0.931 . S
C438 C437 1.385 . S
C438 C439 1.389 . S
C439 C438 1.389 . S
C439 C440 1.387 . S
C440 H425 0.930 . S
C440 C435 1.390 . S
C440 C439 1.387 . S
H441 C453 0.930 . S
H442 C455 0.930 . S
H443 C456 0.930 . S
H444 C460 0.959 . S
H445 C460 0.959 . S
H446 C460 0.961 . S
H447 C461 0.960 . S
H448 C461 0.961 . S
H449 C461 0.959 . S
H450 C464 0.929 . S
H451 C465 0.931 . S
H452 C467 0.930 . S
C453 H441 0.930 . S
C453 C454 1.399 . S
C453 C458 1.399 . S
C454 C453 1.399 . S
C454 C455 1.376 . S
C455 H442 0.930 . S
C455 C454 1.376 . S
C455 C456 1.388 . S
C456 H443 0.930 . S
C456 C455 1.388 . S
C456 C457 1.390 . S
C457 C456 1.390 . S
C457 C458 1.394 . S
C457 C463 1.465 . S
C458 C453 1.399 . S
C458 C457 1.394 . S
C458 C459 1.516 . S
C459 C458 1.516 . S
C459 C460 1.502 . S
C459 C461 1.561 . S
C459 C462 1.526 . S
C460 H444 0.959 . S
C460 H445 0.959 . S
C460 H446 0.961 . S
C460 C459 1.502 . S
C461 H447 0.960 . S
C461 H448 0.961 . S
C461 H449 0.959 . S
C461 C459 1.561 . S
C462 C459 1.526 . S
C462 C463 1.396 . S
C462 C467 1.390 . S
C463 C457 1.465 . S
C463 C462 1.396 . S
C463 C464 1.399 . S
C464 H450 0.929 . S
C464 C463 1.399 . S
C464 C465 1.385 . S
C465 H451 0.931 . S
C465 C464 1.385 . S
C465 C466 1.389 . S
C466 C465 1.389 . S
C466 C467 1.387 . S
C467 H452 0.930 . S
C467 C462 1.390 . S
C467 C466 1.387 . S
H468 C480 0.930 . S
H469 C482 0.930 . S
H470 C483 0.930 . S
H471 C487 0.959 . S
H472 C487 0.959 . S
H473 C487 0.961 . S
H474 C488 0.960 . S
H475 C488 0.961 . S
H476 C488 0.959 . S
H477 C491 0.929 . S
H478 C492 0.931 . S
H479 C494 0.930 . S
C480 H468 0.930 . S
C480 C481 1.399 . S
C480 C485 1.399 . S
C481 C480 1.399 . S
C481 C482 1.376 . S
C482 H469 0.930 . S
C482 C481 1.376 . S
C482 C483 1.388 . S
C483 H470 0.930 . S
C483 C482 1.388 . S
C483 C484 1.390 . S
C484 C483 1.390 . S
C484 C485 1.394 . S
C484 C490 1.465 . S
C485 C480 1.399 . S
C485 C484 1.394 . S
C485 C486 1.516 . S
C486 C485 1.516 . S
C486 C487 1.502 . S
C486 C488 1.561 . S
C486 C489 1.526 . S
C487 H471 0.959 . S
C487 H472 0.959 . S
C487 H473 0.961 . S
C487 C486 1.502 . S
C488 H474 0.960 . S
C488 H475 0.961 . S
C488 H476 0.959 . S
C488 C486 1.561 . S
C489 C486 1.526 . S
C489 C490 1.396 . S
C489 C494 1.390 . S
C490 C484 1.465 . S
C490 C489 1.396 . S
C490 C491 1.399 . S
C491 H477 0.929 . S
C491 C490 1.399 . S
C491 C492 1.385 . S
C492 H478 0.931 . S
C492 C491 1.385 . S
C492 C493 1.389 . S
C493 C492 1.389 . S
C493 C494 1.387 . S
C494 H479 0.930 . S
C494 C489 1.390 . S
C494 C493 1.387 . S
H495 C507 0.930 . S
H496 C509 0.930 . S
H497 C510 0.930 . S
H498 C514 0.959 . S
H499 C514 0.959 . S
H500 C514 0.961 . S
H501 C515 0.960 . S
H502 C515 0.961 . S
H503 C515 0.959 . S
H504 C518 0.929 . S
H505 C519 0.931 . S
H506 C521 0.930 . S
C507 H495 0.930 . S
C507 C508 1.399 . S
C507 C512 1.399 . S
C508 C507 1.399 . S
C508 C509 1.376 . S
C509 H496 0.930 . S
C509 C508 1.376 . S
C509 C510 1.388 . S
C510 H497 0.930 . S
C510 C509 1.388 . S
C510 C511 1.390 . S
C511 C510 1.390 . S
C511 C512 1.394 . S
C511 C517 1.465 . S
C512 C507 1.399 . S
C512 C511 1.394 . S
C512 C513 1.516 . S
C513 C512 1.516 . S
C513 C514 1.502 . S
C513 C515 1.561 . S
C513 C516 1.526 . S
C514 H498 0.959 . S
C514 H499 0.959 . S
C514 H500 0.961 . S
C514 C513 1.502 . S
C515 H501 0.960 . S
C515 H502 0.961 . S
C515 H503 0.959 . S
C515 C513 1.561 . S
C516 C513 1.526 . S
C516 C517 1.396 . S
C516 C521 1.390 . S
C517 C511 1.465 . S
C517 C516 1.396 . S
C517 C518 1.399 . S
C518 H504 0.929 . S
C518 C517 1.399 . S
C518 C519 1.385 . S
C519 H505 0.931 . S
C519 C518 1.385 . S
C519 C520 1.389 . S
C520 C519 1.389 . S
C520 C521 1.387 . S
C521 H506 0.930 . S
C521 C516 1.390 . S
C521 C520 1.387 . S
H522 C534 0.930 . S
H523 C536 0.930 . S
H524 C537 0.930 . S
H525 C541 0.959 . S
H526 C541 0.959 . S
H527 C541 0.961 . S
H528 C542 0.960 . S
H529 C542 0.961 . S
H530 C542 0.959 . S
H531 C545 0.929 . S
H532 C546 0.931 . S
H533 C548 0.930 . S
C534 H522 0.930 . S
C534 C535 1.399 . S
C534 C539 1.399 . S
C535 C534 1.399 . S
C535 C536 1.376 . S
C536 H523 0.930 . S
C536 C535 1.376 . S
C536 C537 1.388 . S
C537 H524 0.930 . S
C537 C536 1.388 . S
C537 C538 1.390 . S
C538 C537 1.390 . S
C538 C539 1.394 . S
C538 C544 1.465 . S
C539 C534 1.399 . S
C539 C538 1.394 . S
C539 C540 1.516 . S
C540 C539 1.516 . S
C540 C541 1.502 . S
C540 C542 1.561 . S
C540 C543 1.526 . S
C541 H525 0.959 . S
C541 H526 0.959 . S
C541 H527 0.961 . S
C541 C540 1.502 . S
C542 H528 0.960 . S
C542 H529 0.961 . S
C542 H530 0.959 . S
C542 C540 1.561 . S
C543 C540 1.526 . S
C543 C544 1.396 . S
C543 C548 1.390 . S
C544 C538 1.465 . S
C544 C543 1.396 . S
C544 C545 1.399 . S
C545 H531 0.929 . S
C545 C544 1.399 . S
C545 C546 1.385 . S
C546 H532 0.931 . S
C546 C545 1.385 . S
C546 C547 1.389 . S
C547 C546 1.389 . S
C547 C548 1.387 . S
C548 H533 0.930 . S
C548 C543 1.390 . S
C548 C547 1.387 . S
H549 C561 0.930 . S
H550 C563 0.930 . S
H551 C564 0.930 . S
H552 C568 0.959 . S
H553 C568 0.959 . S
H554 C568 0.961 . S
H555 C569 0.960 . S
H556 C569 0.961 . S
H557 C569 0.959 . S
H558 C572 0.929 . S
H559 C573 0.931 . S
H560 C575 0.930 . S
C561 H549 0.930 . S
C561 C562 1.399 . S
C561 C566 1.399 . S
C562 C561 1.399 . S
C562 C563 1.376 . S
C563 H550 0.930 . S
C563 C562 1.376 . S
C563 C564 1.388 . S
C564 H551 0.930 . S
C564 C563 1.388 . S
C564 C565 1.390 . S
C565 C564 1.390 . S
C565 C566 1.394 . S
C565 C571 1.465 . S
C566 C561 1.399 . S
C566 C565 1.394 . S
C566 C567 1.516 . S
C567 C566 1.516 . S
C567 C568 1.502 . S
C567 C569 1.561 . S
C567 C570 1.526 . S
C568 H552 0.959 . S
C568 H553 0.959 . S
C568 H554 0.961 . S
C568 C567 1.502 . S
C569 H555 0.960 . S
C569 H556 0.961 . S
C569 H557 0.959 . S
C569 C567 1.561 . S
C570 C567 1.526 . S
C570 C571 1.396 . S
C570 C575 1.390 . S
C571 C565 1.465 . S
C571 C570 1.396 . S
C571 C572 1.399 . S
C572 H558 0.929 . S
C572 C571 1.399 . S
C572 C573 1.385 . S
C573 H559 0.931 . S
C573 C572 1.385 . S
C573 C574 1.389 . S
C574 C573 1.389 . S
C574 C575 1.387 . S
C575 H560 0.930 . S
C575 C570 1.390 . S
C575 C574 1.387 . S
H576 C588 0.930 . S
H577 C590 0.930 . S
H578 C591 0.930 . S
H579 C595 0.959 . S
H580 C595 0.959 . S
H581 C595 0.961 . S
H582 C596 0.960 . S
H583 C596 0.961 . S
H584 C596 0.959 . S
H585 C599 0.929 . S
H586 C600 0.931 . S
H587 C602 0.930 . S
C588 H576 0.930 . S
C588 C589 1.399 . S
C588 C593 1.399 . S
C589 C588 1.399 . S
C589 C590 1.376 . S
C590 H577 0.930 . S
C590 C589 1.376 . S
C590 C591 1.388 . S
C591 H578 0.930 . S
C591 C590 1.388 . S
C591 C592 1.390 . S
C592 C591 1.390 . S
C592 C593 1.394 . S
C592 C598 1.465 . S
C593 C588 1.399 . S
C593 C592 1.394 . S
C593 C594 1.516 . S
C594 C593 1.516 . S
C594 C595 1.502 . S
C594 C596 1.561 . S
C594 C597 1.526 . S
C595 H579 0.959 . S
C595 H580 0.959 . S
C595 H581 0.961 . S
C595 C594 1.502 . S
C596 H582 0.960 . S
C596 H583 0.961 . S
C596 H584 0.959 . S
C596 C594 1.561 . S
C597 C594 1.526 . S
C597 C598 1.396 . S
C597 C602 1.390 . S
C598 C592 1.465 . S
C598 C597 1.396 . S
C598 C599 1.399 . S
C599 H585 0.929 . S
C599 C598 1.399 . S
C599 C600 1.385 . S
C600 H586 0.931 . S
C600 C599 1.385 . S
C600 C601 1.389 . S
C601 C600 1.389 . S
C601 C602 1.387 . S
C602 H587 0.930 . S
C602 C597 1.390 . S
C602 C601 1.387 . S
H603 C615 0.930 . S
H604 C617 0.930 . S
H605 C618 0.930 . S
H606 C622 0.959 . S
H607 C622 0.959 . S
H608 C622 0.961 . S
H609 C623 0.960 . S
H610 C623 0.961 . S
H611 C623 0.959 . S
H612 C626 0.929 . S
H613 C627 0.931 . S
H614 C629 0.930 . S
C615 H603 0.930 . S
C615 C616 1.399 . S
C615 C620 1.399 . S
C616 C615 1.399 . S
C616 C617 1.376 . S
C617 H604 0.930 . S
C617 C616 1.376 . S
C617 C618 1.388 . S
C618 H605 0.930 . S
C618 C617 1.388 . S
C618 C619 1.390 . S
C619 C618 1.390 . S
C619 C620 1.394 . S
C619 C625 1.465 . S
C620 C615 1.399 . S
C620 C619 1.394 . S
C620 C621 1.516 . S
C621 C620 1.516 . S
C621 C622 1.502 . S
C621 C623 1.561 . S
C621 C624 1.526 . S
C622 H606 0.959 . S
C622 H607 0.959 . S
C622 H608 0.961 . S
C622 C621 1.502 . S
C623 H609 0.960 . S
C623 H610 0.961 . S
C623 H611 0.959 . S
C623 C621 1.561 . S
C624 C621 1.526 . S
C624 C625 1.396 . S
C624 C629 1.390 . S
C625 C619 1.465 . S
C625 C624 1.396 . S
C625 C626 1.399 . S
C626 H612 0.929 . S
C626 C625 1.399 . S
C626 C627 1.385 . S
C627 H613 0.931 . S
C627 C626 1.385 . S
C627 C628 1.389 . S
C628 C627 1.389 . S
C628 C629 1.387 . S
C629 H614 0.930 . S
C629 C624 1.390 . S
C629 C628 1.387 . S
H630 C642 0.930 . S
H631 C644 0.930 . S
H632 C645 0.930 . S
H633 C649 0.959 . S
H634 C649 0.959 . S
H635 C649 0.961 . S
H636 C650 0.960 . S
H637 C650 0.961 . S
H638 C650 0.959 . S
H639 C653 0.929 . S
H640 C654 0.931 . S
H641 C656 0.930 . S
C642 H630 0.930 . S
C642 C643 1.399 . S
C642 C647 1.399 . S
C643 C642 1.399 . S
C643 C644 1.376 . S
C644 H631 0.930 . S
C644 C643 1.376 . S
C644 C645 1.388 . S
C645 H632 0.930 . S
C645 C644 1.388 . S
C645 C646 1.390 . S
C646 C645 1.390 . S
C646 C647 1.394 . S
C646 C652 1.465 . S
C647 C642 1.399 . S
C647 C646 1.394 . S
C647 C648 1.516 . S
C648 C647 1.516 . S
C648 C649 1.502 . S
C648 C650 1.561 . S
C648 C651 1.526 . S
C649 H633 0.959 . S
C649 H634 0.959 . S
C649 H635 0.961 . S
C649 C648 1.502 . S
C650 H636 0.960 . S
C650 H637 0.961 . S
C650 H638 0.959 . S
C650 C648 1.561 . S
C651 C648 1.526 . S
C651 C652 1.396 . S
C651 C656 1.390 . S
C652 C646 1.465 . S
C652 C651 1.396 . S
C652 C653 1.399 . S
C653 H639 0.929 . S
C653 C652 1.399 . S
C653 C654 1.385 . S
C654 H640 0.931 . S
C654 C653 1.385 . S
C654 C655 1.389 . S
C655 C654 1.389 . S
C655 C656 1.387 . S
C656 H641 0.930 . S
C656 C651 1.390 . S
C656 C655 1.387 . S
H657 C669 0.930 . S
H658 C671 0.930 . S
H659 C672 0.930 . S
H660 C676 0.959 . S
H661 C676 0.959 . S
H662 C676 0.961 . S
H663 C677 0.960 . S
H664 C677 0.961 . S
H665 C677 0.959 . S
H666 C680 0.929 . S
H667 C681 0.931 . S
H668 C683 0.930 . S
C669 H657 0.930 . S
C669 C670 1.399 . S
C669 C674 1.399 . S
C670 C669 1.399 . S
C670 C671 1.376 . S
C671 H658 0.930 . S
C671 C670 1.376 . S
C671 C672 1.388 . S
C672 H659 0.930 . S
C672 C671 1.388 . S
C672 C673 1.390 . S
C673 C672 1.390 . S
C673 C674 1.394 . S
C673 C679 1.465 . S
C674 C669 1.399 . S
C674 C673 1.394 . S
C674 C675 1.516 . S
C675 C674 1.516 . S
C675 C676 1.502 . S
C675 C677 1.561 . S
C675 C678 1.526 . S
C676 H660 0.959 . S
C676 H661 0.959 . S
C676 H662 0.961 . S
C676 C675 1.502 . S
C677 H663 0.960 . S
C677 H664 0.961 . S
C677 H665 0.959 . S
C677 C675 1.561 . S
C678 C675 1.526 . S
C678 C679 1.396 . S
C678 C683 1.390 . S
C679 C673 1.465 . S
C679 C678 1.396 . S
C679 C680 1.399 . S
C680 H666 0.929 . S
C680 C679 1.399 . S
C680 C681 1.385 . S
C681 H667 0.931 . S
C681 C680 1.385 . S
C681 C682 1.389 . S
C682 C681 1.389 . S
C682 C683 1.387 . S
C683 H668 0.930 . S
C683 C678 1.390 . S
C683 C682 1.387 . S
H684 C696 0.930 . S
H685 C698 0.930 . S
H686 C699 0.930 . S
H687 C703 0.959 1_556 S
H688 C703 0.959 . S
H689 C703 0.961 . S
H690 C704 0.960 . S
H691 C704 0.961 . S
H692 C704 0.959 . S
H693 C707 0.929 . S
H694 C708 0.931 . S
H695 C710 0.930 . S
C696 H684 0.930 . S
C696 C697 1.399 . S
C696 C701 1.399 1_655 S
C697 C696 1.399 . S
C697 C698 1.376 . S
C698 H685 0.930 . S
C698 C697 1.376 . S
C698 C699 1.388 . S
C699 H686 0.930 . S
C699 C698 1.388 . S
C699 C700 1.390 1_655 S
C700 C699 1.390 1_455 S
C700 C701 1.394 . S
C700 C706 1.465 . S
C701 C696 1.399 1_455 S
C701 C700 1.394 . S
C701 C702 1.516 . S
C702 C701 1.516 . S
C702 C703 1.502 . S
C702 C704 1.561 . S
C702 C705 1.526 . S
C703 H687 0.959 1_554 S
C703 H688 0.959 . S
C703 H689 0.961 . S
C703 C702 1.502 . S
C704 H690 0.960 . S
C704 H691 0.961 . S
C704 H692 0.959 . S
C704 C702 1.561 . S
C705 C702 1.526 . S
C705 C706 1.396 . S
C705 C710 1.390 . S
C706 C700 1.465 . S
C706 C705 1.396 . S
C706 C707 1.399 . S
C707 H693 0.929 . S
C707 C706 1.399 . S
C707 C708 1.385 . S
C708 H694 0.931 . S
C708 C707 1.385 . S
C708 C709 1.389 . S
C709 C708 1.389 . S
C709 C710 1.387 . S
C710 H695 0.930 . S
C710 C705 1.390 . S
C710 C709 1.387 . S
H711 C723 0.930 . S
H712 C725 0.930 . S
H713 C726 0.930 1_556 S
H714 C730 0.959 . S
H715 C730 0.959 . S
H716 C730 0.961 . S
H717 C731 0.960 . S
H718 C731 0.961 . S
H719 C731 0.959 . S
H720 C734 0.929 . S
H721 C735 0.931 . S
H722 C737 0.930 . S
C723 H711 0.930 . S
C723 C724 1.399 . S
C723 C728 1.399 . S
C724 C723 1.399 . S
C724 C725 1.376 1_554 S
C725 H712 0.930 . S
C725 C724 1.376 1_556 S
C725 C726 1.388 1_556 S
C726 H713 0.930 1_554 S
C726 C725 1.388 1_554 S
C726 C727 1.390 . S
C727 C726 1.390 . S
C727 C728 1.394 . S
C727 C733 1.465 . S
C728 C723 1.399 . S
C728 C727 1.394 . S
C728 C729 1.516 . S
C729 C728 1.516 . S
C729 C730 1.502 . S
C729 C731 1.561 . S
C729 C732 1.526 . S
C730 H714 0.959 . S
C730 H715 0.959 . S
C730 H716 0.961 . S
C730 C729 1.502 . S
C731 H717 0.960 . S
C731 H718 0.961 . S
C731 H719 0.959 . S
C731 C729 1.561 . S
C732 C729 1.526 . S
C732 C733 1.396 . S
C732 C737 1.390 . S
C733 C727 1.465 . S
C733 C732 1.396 . S
C733 C734 1.399 . S
C734 H720 0.929 . S
C734 C733 1.399 . S
C734 C735 1.385 . S
C735 H721 0.931 . S
C735 C734 1.385 . S
C735 C736 1.389 . S
C736 C735 1.389 . S
C736 C737 1.387 . S
C737 H722 0.930 . S
C737 C732 1.390 . S
C737 C736 1.387 . S
H738 C750 0.930 . S
H739 C752 0.930 . S
H740 C753 0.930 . S
H741 C757 0.959 . S
H742 C757 0.959 . S
H743 C757 0.961 . S
H744 C758 0.960 . S
H745 C758 0.961 . S
H746 C758 0.959 . S
H747 C761 0.941 . S
H748 C762 0.931 . S
H749 C764 0.930 . S
C750 H738 0.930 . S
C750 C751 1.399 1_554 S
C750 C755 1.399 . S
C751 C750 1.399 1_556 S
C751 C752 1.376 . S
C752 H739 0.930 . S
C752 C751 1.376 . S
C752 C753 1.388 . S
C753 H740 0.930 . S
C753 C752 1.388 . S
C753 C754 1.390 1_556 S
C754 C753 1.390 1_554 S
C754 C755 1.394 . S
C754 C760 1.465 1_545 S
C755 C750 1.399 . S
C755 C754 1.394 . S
C755 C756 1.516 . S
C756 C755 1.516 . S
C756 C757 1.502 . S
C756 C758 1.561 . S
C756 C759 1.526 1_545 S
C757 H741 0.959 . S
C757 H742 0.959 . S
C757 H743 0.961 . S
C757 C756 1.502 . S
C758 H744 0.960 . S
C758 H745 0.961 . S
C758 H746 0.959 . S
C758 C756 1.561 . S
C759 C756 1.526 1_565 S
C759 C760 1.396 . S
C759 C764 1.390 . S
C760 C754 1.465 1_565 S
C760 C759 1.396 . S
C760 C761 1.399 . S
C761 H747 0.941 . S
C761 C760 1.399 . S
C761 C762 1.385 . S
C762 H748 0.931 . S
C762 C761 1.385 . S
C762 C763 1.389 . S
C763 C762 1.389 . S
C763 C764 1.387 . S
C764 H749 0.930 . S
C764 C759 1.390 . S
C764 C763 1.387 . S
H765 C777 0.930 . S
H766 C779 0.930 . S
H767 C780 0.930 . S
H768 C784 0.949 1_556 S
H769 C784 0.972 . S
H770 C784 0.961 . S
H771 C785 0.960 . S
H772 C785 0.961 . S
H773 C785 0.959 . S
H774 C788 0.929 . S
H775 C789 0.931 . S
H776 C791 0.930 . S
C777 H765 0.930 . S
C777 C778 1.399 . S
C777 C782 1.399 . S
C778 C777 1.399 . S
C778 C779 1.376 . S
C779 H766 0.930 . S
C779 C778 1.376 . S
C779 C780 1.388 . S
C780 H767 0.930 . S
C780 C779 1.388 . S
C780 C781 1.390 . S
C781 C780 1.390 . S
C781 C782 1.394 . S
C781 C787 1.465 . S
C782 C777 1.399 . S
C782 C781 1.394 . S
C782 C783 1.516 . S
C783 C782 1.516 . S
C783 C784 1.498 1_556 S
C783 C785 1.561 1_556 S
C783 C786 1.526 . S
C784 H768 0.949 1_554 S
C784 H769 0.972 . S
C784 H770 0.961 . S
C784 C783 1.498 1_554 S
C785 H771 0.960 . S
C785 H772 0.961 . S
C785 H773 0.959 . S
C785 C783 1.561 1_554 S
C786 C783 1.526 . S
C786 C787 1.396 . S
C786 C791 1.390 1_546 S
C787 C781 1.465 . S
C787 C786 1.396 . S
C787 C788 1.399 1_545 S
C788 H774 0.929 . S
C788 C787 1.399 1_565 S
C788 C789 1.385 . S
C789 H775 0.931 . S
C789 C788 1.385 . S
C789 C790 1.389 . S
C790 C789 1.389 . S
C790 C791 1.387 1_556 S
C791 H776 0.930 . S
C791 C786 1.390 1_564 S
C791 C790 1.387 1_554 S
H792 C804 0.930 . S
H793 C806 0.930 . S
H794 C807 0.930 . S
H795 C811 0.959 . S
H796 C811 0.959 1_554 S
H797 C811 0.961 1_554 S
H798 C812 0.960 . S
H799 C812 0.961 . S
H800 C812 0.959 . S
H801 C815 0.929 . S
H802 C816 0.931 . S
H803 C818 0.930 . S
C804 H792 0.930 . S
C804 C805 1.399 1_554 S
C804 C809 1.399 1_554 S
C805 C804 1.399 1_556 S
C805 C806 1.376 . S
C806 H793 0.930 . S
C806 C805 1.376 . S
C806 C807 1.388 . S
C807 H794 0.930 . S
C807 C806 1.388 . S
C807 C808 1.390 . S
C808 C807 1.390 . S
C808 C809 1.394 . S
C808 C814 1.465 1_455 S
C809 C804 1.399 1_556 S
C809 C808 1.394 . S
C809 C810 1.516 1_455 S
C810 C809 1.516 1_655 S
C810 C811 1.502 . S
C810 C812 1.561 1_556 S
C810 C813 1.526 . S
C811 H795 0.959 . S
C811 H796 0.959 1_556 S
C811 H797 0.961 1_556 S
C811 C810 1.502 . S
C812 H798 0.960 . S
C812 H799 0.961 . S
C812 H800 0.959 . S
C812 C810 1.561 1_554 S
C813 C810 1.526 . S
C813 C814 1.396 . S
C813 C818 1.390 . S
C814 C808 1.465 1_655 S
C814 C813 1.396 . S
C814 C815 1.399 . S
C815 H801 0.929 . S
C815 C814 1.399 . S
C815 C816 1.385 . S
C816 H802 0.931 . S
C816 C815 1.385 . S
C816 C817 1.389 . S
C817 C816 1.389 . S
C817 C818 1.387 . S
C818 H803 0.930 . S
C818 C813 1.390 . S
C818 C817 1.387 . S
H819 C831 0.930 . S
H820 C833 0.930 . S
H821 C834 0.930 . S
H822 C838 0.959 . S
H823 C838 0.959 . S
H824 C838 0.961 . S
H825 C839 0.960 . S
H826 C839 0.961 . S
H827 C839 0.959 1_556 S
H828 C842 0.929 . S
H829 C843 0.931 . S
H830 C845 0.930 . S
C831 H819 0.930 . S
C831 C832 1.399 1_554 S
C831 C836 1.399 1_554 S
C832 C831 1.399 1_556 S
C832 C833 1.376 . S
C833 H820 0.930 . S
C833 C832 1.376 . S
C833 C834 1.388 . S
C834 H821 0.930 . S
C834 C833 1.388 . S
C834 C835 1.390 . S
C835 C834 1.390 . S
C835 C836 1.394 . S
C835 C841 1.465 . S
C836 C831 1.399 1_556 S
C836 C835 1.394 . S
C836 C837 1.516 . S
C837 C836 1.516 . S
C837 C838 1.502 1_556 S
C837 C839 1.561 1_556 S
C837 C840 1.526 . S
C838 H822 0.959 . S
C838 H823 0.959 . S
C838 H824 0.961 . S
C838 C837 1.502 1_554 S
C839 H825 0.960 . S
C839 H826 0.961 . S
C839 H827 0.959 1_554 S
C839 C837 1.561 1_554 S
C840 C837 1.526 . S
C840 C841 1.396 . S
C840 C845 1.390 . S
C841 C835 1.465 . S
C841 C840 1.396 . S
C841 C842 1.399 . S
C842 H828 0.929 . S
C842 C841 1.399 . S
C842 C843 1.385 . S
C843 H829 0.931 . S
C843 C842 1.385 . S
C843 C844 1.389 . S
C844 C843 1.389 . S
C844 C845 1.387 . S
C845 H830 0.930 . S
C845 C840 1.390 . S
C845 C844 1.387 . S
H846 C858 0.930 . S
H847 C860 0.930 . S
H848 C861 0.930 . S
H849 C865 0.959 . S
H850 C865 0.959 . S
H851 C865 0.961 . S
H852 C866 0.960 . S
H853 C866 0.961 . S
H854 C866 0.959 . S
H855 C869 0.929 . S
H856 C870 0.931 . S
H857 C872 0.930 . S
C858 H846 0.930 . S
C858 C859 1.399 . S
C858 C863 1.399 . S
C859 C858 1.399 . S
C859 C860 1.376 . S
C860 H847 0.930 . S
C860 C859 1.376 . S
C860 C861 1.388 . S
C861 H848 0.930 . S
C861 C860 1.388 . S
C861 C862 1.390 . S
C862 C861 1.390 . S
C862 C863 1.394 . S
C862 C868 1.465 . S
C863 C858 1.399 . S
C863 C862 1.394 . S
C863 C864 1.516 . S
C864 C863 1.516 . S
C864 C865 1.502 . S
C864 C866 1.561 . S
C864 C867 1.526 . S
C865 H849 0.959 . S
C865 H850 0.959 . S
C865 H851 0.961 . S
C865 C864 1.502 . S
C866 H852 0.960 . S
C866 H853 0.961 . S
C866 H854 0.959 . S
C866 C864 1.561 . S
C867 C864 1.526 . S
C867 C868 1.396 . S
C867 C872 1.390 . S
C868 C862 1.465 . S
C868 C867 1.396 . S
C868 C869 1.399 . S
C869 H855 0.929 . S
C869 C868 1.399 . S
C869 C870 1.385 . S
C870 H856 0.931 . S
C870 C869 1.385 . S
C870 C871 1.389 . S
C871 C870 1.389 . S
C871 C872 1.387 . S
C872 H857 0.930 . S
C872 C867 1.390 . S
C872 C871 1.387 . S
H873 C885 0.930 . S
H874 C887 0.930 . S
H875 C888 0.930 . S
H876 C892 0.959 . S
H877 C892 0.959 . S
H878 C892 0.961 . S
H879 C893 0.960 . S
H880 C893 0.961 . S
H881 C893 0.959 . S
H882 C896 0.929 . S
H883 C897 0.931 . S
H884 C899 0.930 . S
C885 H873 0.930 . S
C885 C886 1.399 . S
C885 C890 1.399 . S
C886 C885 1.399 . S
C886 C887 1.376 . S
C887 H874 0.930 . S
C887 C886 1.376 . S
C887 C888 1.388 . S
C888 H875 0.930 . S
C888 C887 1.388 . S
C888 C889 1.390 . S
C889 C888 1.390 . S
C889 C890 1.394 . S
C889 C895 1.465 . S
C890 C885 1.399 . S
C890 C889 1.394 . S
C890 C891 1.516 . S
C891 C890 1.516 . S
C891 C892 1.502 . S
C891 C893 1.561 . S
C891 C894 1.526 . S
C892 H876 0.959 . S
C892 H877 0.959 . S
C892 H878 0.961 . S
C892 C891 1.502 . S
C893 H879 0.960 . S
C893 H880 0.961 . S
C893 H881 0.959 . S
C893 C891 1.561 . S
C894 C891 1.526 . S
C894 C895 1.396 . S
C894 C899 1.390 . S
C895 C889 1.465 . S
C895 C894 1.396 . S
C895 C896 1.399 . S
C896 H882 0.929 . S
C896 C895 1.399 . S
C896 C897 1.385 . S
C897 H883 0.931 . S
C897 C896 1.385 . S
C897 C898 1.389 . S
C898 C897 1.389 . S
C898 C899 1.387 . S
C899 H884 0.930 . S
C899 C894 1.390 . S
C899 C898 1.387 . S
H900 C912 0.930 . S
H901 C914 0.930 . S
H902 C915 0.930 . S
H903 C919 0.959 . S
H904 C919 0.959 . S
H905 C919 0.961 . S
H906 C920 0.960 . S
H907 C920 0.961 . S
H908 C920 0.959 . S
H909 C923 0.929 . S
H910 C924 0.931 . S
H911 C926 0.930 . S
C912 H900 0.930 . S
C912 C913 1.399 . S
C912 C917 1.399 . S
C913 C912 1.399 . S
C913 C914 1.376 . S
C914 H901 0.930 . S
C914 C913 1.376 . S
C914 C915 1.388 . S
C915 H902 0.930 . S
C915 C914 1.388 . S
C915 C916 1.390 . S
C916 C915 1.390 . S
C916 C917 1.394 . S
C916 C922 1.465 . S
C917 C912 1.399 . S
C917 C916 1.394 . S
C917 C918 1.516 . S
C918 C917 1.516 . S
C918 C919 1.502 . S
C918 C920 1.561 . S
C918 C921 1.526 . S
C919 H903 0.959 . S
C919 H904 0.959 . S
C919 H905 0.961 . S
C919 C918 1.502 . S
C920 H906 0.960 . S
C920 H907 0.961 . S
C920 H908 0.959 . S
C920 C918 1.561 . S
C921 C918 1.526 . S
C921 C922 1.396 . S
C921 C926 1.390 . S
C922 C916 1.465 . S
C922 C921 1.396 . S
C922 C923 1.399 . S
C923 H909 0.929 . S
C923 C922 1.399 . S
C923 C924 1.385 . S
C924 H910 0.931 . S
C924 C923 1.385 . S
C924 C925 1.389 . S
C925 C924 1.389 . S
C925 C926 1.387 . S
C926 H911 0.930 . S
C926 C921 1.390 . S
C926 C925 1.387 . S
H927 C939 0.930 . S
H928 C941 0.930 . S
H929 C942 0.930 . S
H930 C946 0.959 . S
H931 C946 0.959 . S
H932 C946 0.961 . S
H933 C947 0.960 . S
H934 C947 0.961 . S
H935 C947 0.959 . S
H936 C950 0.929 . S
H937 C951 0.931 . S
H938 C953 0.930 . S
C939 H927 0.930 . S
C939 C940 1.399 . S
C939 C944 1.399 . S
C940 C939 1.399 . S
C940 C941 1.376 . S
C941 H928 0.930 . S
C941 C940 1.376 . S
C941 C942 1.388 . S
C942 H929 0.930 . S
C942 C941 1.388 . S
C942 C943 1.390 . S
C943 C942 1.390 . S
C943 C944 1.394 . S
C943 C949 1.465 . S
C944 C939 1.399 . S
C944 C943 1.394 . S
C944 C945 1.516 . S
C945 C944 1.516 . S
C945 C946 1.502 . S
C945 C947 1.561 . S
C945 C948 1.526 . S
C946 H930 0.959 . S
C946 H931 0.959 . S
C946 H932 0.961 . S
C946 C945 1.502 . S
C947 H933 0.960 . S
C947 H934 0.961 . S
C947 H935 0.959 . S
C947 C945 1.561 . S
C948 C945 1.526 . S
C948 C949 1.396 . S
C948 C953 1.390 . S
C949 C943 1.465 . S
C949 C948 1.396 . S
C949 C950 1.399 . S
C950 H936 0.929 . S
C950 C949 1.399 . S
C950 C951 1.385 . S
C951 H937 0.931 . S
C951 C950 1.385 . S
C951 C952 1.389 . S
C952 C951 1.389 . S
C952 C953 1.387 . S
C953 H938 0.930 . S
C953 C948 1.390 . S
C953 C952 1.387 . S
H954 C966 0.930 . S
H955 C968 0.930 . S
H956 C969 0.930 . S
H957 C973 0.959 . S
H958 C973 0.959 . S
H959 C973 0.961 . S
H960 C974 0.960 . S
H961 C974 0.961 . S
H962 C974 0.959 . S
H963 C977 0.929 . S
H964 C978 0.931 . S
H965 C980 0.930 . S
C966 H954 0.930 . S
C966 C967 1.399 . S
C966 C971 1.399 . S
C967 C966 1.399 . S
C967 C968 1.376 . S
C968 H955 0.930 . S
C968 C967 1.376 . S
C968 C969 1.388 . S
C969 H956 0.930 . S
C969 C968 1.388 . S
C969 C970 1.390 . S
C970 C969 1.390 . S
C970 C971 1.394 . S
C970 C976 1.465 . S
C971 C966 1.399 . S
C971 C970 1.394 . S
C971 C972 1.516 . S
C972 C971 1.516 . S
C972 C973 1.502 . S
C972 C974 1.561 . S
C972 C975 1.526 . S
C973 H957 0.959 . S
C973 H958 0.959 . S
C973 H959 0.961 . S
C973 C972 1.502 . S
C974 H960 0.960 . S
C974 H961 0.961 . S
C974 H962 0.959 . S
C974 C972 1.561 . S
C975 C972 1.526 . S
C975 C976 1.396 . S
C975 C980 1.390 . S
C976 C970 1.465 . S
C976 C975 1.396 . S
C976 C977 1.399 . S
C977 H963 0.929 . S
C977 C976 1.399 . S
C977 C978 1.385 . S
C978 H964 0.931 . S
C978 C977 1.385 . S
C978 C979 1.389 . S
C979 C978 1.389 . S
C979 C980 1.387 . S
C980 H965 0.930 . S
C980 C975 1.390 . S
C980 C979 1.387 . S
H981 C993 0.930 . S
H982 C995 0.930 . S
H983 C996 0.930 . S
H984 C1000 0.959 . S
H985 C1000 0.959 . S
H986 C1000 0.961 . S
H987 C1001 0.960 . S
H988 C1001 0.961 . S
H989 C1001 0.959 . S
H990 C1004 0.929 . S
H991 C1005 0.931 . S
H992 C1007 0.930 . S
C993 H981 0.930 . S
C993 C994 1.399 . S
C993 C998 1.399 . S
C994 C993 1.399 . S
C994 C995 1.376 . S
C995 H982 0.930 . S
C995 C994 1.376 . S
C995 C996 1.388 . S
C996 H983 0.930 . S
C996 C995 1.388 . S
C996 C997 1.390 . S
C997 C996 1.390 . S
C997 C998 1.394 . S
C997 C1003 1.465 . S
C998 C993 1.399 . S
C998 C997 1.394 . S
C998 C999 1.516 . S
C999 C998 1.516 . S
C999 C1000 1.502 . S
C999 C1001 1.561 . S
C999 C1002 1.526 . S
C1000 H984 0.959 . S
C1000 H985 0.959 . S
C1000 H986 0.961 . S
C1000 C999 1.502 . S
C1001 H987 0.960 . S
C1001 H988 0.961 . S
C1001 H989 0.959 . S
C1001 C999 1.561 . S
C1002 C999 1.526 . S
C1002 C1003 1.396 . S
C1002 C1007 1.390 . S
C1003 C997 1.465 . S
C1003 C1002 1.396 . S
C1003 C1004 1.399 . S
C1004 H990 0.929 . S
C1004 C1003 1.399 . S
C1004 C1005 1.385 . S
C1005 H991 0.931 . S
C1005 C1004 1.385 . S
C1005 C1006 1.389 . S
C1006 C1005 1.389 . S
C1006 C1007 1.387 . S
C1007 H992 0.930 . S
C1007 C1002 1.390 . S
C1007 C1006 1.387 . S
H1008 C1020 0.930 . S
H1009 C1022 0.930 . S
H1010 C1023 0.930 . S
H1011 C1027 0.959 . S
H1012 C1027 0.959 . S
H1013 C1027 0.961 . S
H1014 C1028 0.960 . S
H1015 C1028 0.961 . S
H1016 C1028 0.959 . S
H1017 C1031 0.929 . S
H1018 C1032 0.931 . S
H1019 C1034 0.930 . S
C1020 H1008 0.930 . S
C1020 C1021 1.399 . S
C1020 C1025 1.399 . S
C1021 C1020 1.399 . S
C1021 C1022 1.376 . S
C1022 H1009 0.930 . S
C1022 C1021 1.376 . S
C1022 C1023 1.388 . S
C1023 H1010 0.930 . S
C1023 C1022 1.388 . S
C1023 C1024 1.390 . S
C1024 C1023 1.390 . S
C1024 C1025 1.394 . S
C1024 C1030 1.465 . S
C1025 C1020 1.399 . S
C1025 C1024 1.394 . S
C1025 C1026 1.516 . S
C1026 C1025 1.516 . S
C1026 C1027 1.502 . S
C1026 C1028 1.561 . S
C1026 C1029 1.526 . S
C1027 H1011 0.959 . S
C1027 H1012 0.959 . S
C1027 H1013 0.961 . S
C1027 C1026 1.502 . S
C1028 H1014 0.960 . S
C1028 H1015 0.961 . S
C1028 H1016 0.959 . S
C1028 C1026 1.561 . S
C1029 C1026 1.526 . S
C1029 C1030 1.396 . S
C1029 C1034 1.390 . S
C1030 C1024 1.465 . S
C1030 C1029 1.396 . S
C1030 C1031 1.399 . S
C1031 H1017 0.929 . S
C1031 C1030 1.399 . S
C1031 C1032 1.385 . S
C1032 H1018 0.931 . S
C1032 C1031 1.385 . S
C1032 C1033 1.389 . S
C1033 C1032 1.389 . S
C1033 C1034 1.387 . S
C1034 H1019 0.930 . S
C1034 C1029 1.390 . S
C1034 C1033 1.387 . S
H1035 C1047 0.930 . S
H1036 C1049 0.930 . S
H1037 C1050 0.930 . S
H1038 C1054 0.959 . S
H1039 C1054 0.959 . S
H1040 C1054 0.961 . S
H1041 C1055 0.960 . S
H1042 C1055 0.961 . S
H1043 C1055 0.959 . S
H1044 C1058 0.929 . S
H1045 C1059 0.931 . S
H1046 C1061 0.930 . S
C1047 H1035 0.930 . S
C1047 C1048 1.399 . S
C1047 C1052 1.399 . S
C1048 C1047 1.399 . S
C1048 C1049 1.376 . S
C1049 H1036 0.930 . S
C1049 C1048 1.376 . S
C1049 C1050 1.388 . S
C1050 H1037 0.930 . S
C1050 C1049 1.388 . S
C1050 C1051 1.390 . S
C1051 C1050 1.390 . S
C1051 C1052 1.394 . S
C1051 C1057 1.465 . S
C1052 C1047 1.399 . S
C1052 C1051 1.394 . S
C1052 C1053 1.516 . S
C1053 C1052 1.516 . S
C1053 C1054 1.502 . S
C1053 C1055 1.561 . S
C1053 C1056 1.526 . S
C1054 H1038 0.959 . S
C1054 H1039 0.959 . S
C1054 H1040 0.961 . S
C1054 C1053 1.502 . S
C1055 H1041 0.960 . S
C1055 H1042 0.961 . S
C1055 H1043 0.959 . S
C1055 C1053 1.561 . S
C1056 C1053 1.526 . S
C1056 C1057 1.396 . S
C1056 C1061 1.390 . S
C1057 C1051 1.465 . S
C1057 C1056 1.396 . S
C1057 C1058 1.399 . S
C1058 H1044 0.929 . S
C1058 C1057 1.399 . S
C1058 C1059 1.385 . S
C1059 H1045 0.931 . S
C1059 C1058 1.385 . S
C1059 C1060 1.389 . S
C1060 C1059 1.389 . S
C1060 C1061 1.387 . S
C1061 H1046 0.930 . S
C1061 C1056 1.390 . S
C1061 C1060 1.387 . S
H1062 C1074 0.930 . S
H1063 C1076 0.930 . S
H1064 C1077 0.930 . S
H1065 C1081 0.959 . S
H1066 C1081 0.959 . S
H1067 C1081 0.961 . S
H1068 C1082 0.960 . S
H1069 C1082 0.961 . S
H1070 C1082 0.959 . S
H1071 C1085 0.929 . S
H1072 C1086 0.931 . S
H1073 C1088 0.930 . S
C1074 H1062 0.930 . S
C1074 C1075 1.399 . S
C1074 C1079 1.399 . S
C1075 C1074 1.399 . S
C1075 C1076 1.376 . S
C1076 H1063 0.930 . S
C1076 C1075 1.376 . S
C1076 C1077 1.388 . S
C1077 H1064 0.930 . S
C1077 C1076 1.388 . S
C1077 C1078 1.390 . S
C1078 C1077 1.390 . S
C1078 C1079 1.394 . S
C1078 C1084 1.465 . S
C1079 C1074 1.399 . S
C1079 C1078 1.394 . S
C1079 C1080 1.516 . S
C1080 C1079 1.516 . S
C1080 C1081 1.502 . S
C1080 C1082 1.561 . S
C1080 C1083 1.526 . S
C1081 H1065 0.959 . S
C1081 H1066 0.959 . S
C1081 H1067 0.961 . S
C1081 C1080 1.502 . S
C1082 H1068 0.960 . S
C1082 H1069 0.961 . S
C1082 H1070 0.959 . S
C1082 C1080 1.561 . S
C1083 C1080 1.526 . S
C1083 C1084 1.396 . S
C1083 C1088 1.390 . S
C1084 C1078 1.465 . S
C1084 C1083 1.396 . S
C1084 C1085 1.399 . S
C1085 H1071 0.929 . S
C1085 C1084 1.399 . S
C1085 C1086 1.385 . S
C1086 H1072 0.931 . S
C1086 C1085 1.385 . S
C1086 C1087 1.389 . S
C1087 C1086 1.389 . S
C1087 C1088 1.387 . S
C1088 H1073 0.930 . S
C1088 C1083 1.390 . S
C1088 C1087 1.387 . S
H1089 C1101 0.930 . S
H1090 C1103 0.930 . S
H1091 C1104 0.930 1_554 S
H1092 C1108 0.959 . S
H1093 C1108 0.959 . S
H1094 C1108 0.961 . S
H1095 C1109 0.960 . S
H1096 C1109 0.961 . S
H1097 C1109 0.959 . S
H1098 C1112 0.929 1_554 S
H1099 C1113 0.931 1_554 S
H1100 C1115 0.930 . S
C1101 H1089 0.930 . S
C1101 C1102 1.399 . S
C1101 C1106 1.399 . S
C1102 C1101 1.399 . S
C1102 C1103 1.376 . S
C1103 H1090 0.930 . S
C1103 C1102 1.376 . S
C1103 C1104 1.388 . S
C1104 H1091 0.930 1_556 S
C1104 C1103 1.388 . S
C1104 C1105 1.390 . S
C1105 C1104 1.390 . S
C1105 C1106 1.394 . S
C1105 C1111 1.465 . S
C1106 C1101 1.399 . S
C1106 C1105 1.394 . S
C1106 C1107 1.516 . S
C1107 C1106 1.516 . S
C1107 C1108 1.502 . S
C1107 C1109 1.561 . S
C1107 C1110 1.526 . S
C1108 H1092 0.959 . S
C1108 H1093 0.959 . S
C1108 H1094 0.961 . S
C1108 C1107 1.502 . S
C1109 H1095 0.960 . S
C1109 H1096 0.961 . S
C1109 H1097 0.959 . S
C1109 C1107 1.561 . S
C1110 C1107 1.526 . S
C1110 C1111 1.396 . S
C1110 C1115 1.390 . S
C1111 C1105 1.465 . S
C1111 C1110 1.396 . S
C1111 C1112 1.399 . S
C1112 H1098 0.929 1_556 S
C1112 C1111 1.399 . S
C1112 C1113 1.385 . S
C1113 H1099 0.931 1_556 S
C1113 C1112 1.385 . S
C1113 C1114 1.389 . S
C1114 C1113 1.389 . S
C1114 C1115 1.387 . S
C1115 H1100 0.930 . S
C1115 C1110 1.390 . S
C1115 C1114 1.387 . S
H1116 C1128 0.930 . S
H1117 C1130 0.930 . S
H1118 C1131 0.930 . S
H1119 C1135 0.959 1_556 S
H1120 C1135 0.959 . S
H1121 C1135 0.961 . S
H1122 C1136 0.960 . S
H1123 C1136 0.961 . S
H1124 C1136 0.959 . S
H1125 C1139 0.929 . S
H1126 C1140 0.931 . S
H1127 C1142 0.930 . S
C1128 H1116 0.930 . S
C1128 C1129 1.399 . S
C1128 C1133 1.399 . S
C1129 C1128 1.399 . S
C1129 C1130 1.376 . S
C1130 H1117 0.930 . S
C1130 C1129 1.376 . S
C1130 C1131 1.388 . S
C1131 H1118 0.930 . S
C1131 C1130 1.388 . S
C1131 C1132 1.390 . S
C1132 C1131 1.390 . S
C1132 C1133 1.394 . S
C1132 C1138 1.465 . S
C1133 C1128 1.399 . S
C1133 C1132 1.394 . S
C1133 C1134 1.516 . S
C1134 C1133 1.516 . S
C1134 C1135 1.502 1_556 S
C1134 C1136 1.561 1_556 S
C1134 C1137 1.526 . S
C1135 H1119 0.959 1_554 S
C1135 H1120 0.959 . S
C1135 H1121 0.961 . S
C1135 C1134 1.502 1_554 S
C1136 H1122 0.960 . S
C1136 H1123 0.961 . S
C1136 H1124 0.959 . S
C1136 C1134 1.561 1_554 S
C1137 C1134 1.526 . S
C1137 C1138 1.396 . S
C1137 C1142 1.390 . S
C1138 C1132 1.465 . S
C1138 C1137 1.396 . S
C1138 C1139 1.399 . S
C1139 H1125 0.929 . S
C1139 C1138 1.399 . S
C1139 C1140 1.385 . S
C1140 H1126 0.931 . S
C1140 C1139 1.385 . S
C1140 C1141 1.389 . S
C1141 C1140 1.389 . S
C1141 C1142 1.387 . S
C1142 H1127 0.930 . S
C1142 C1137 1.390 . S
C1142 C1141 1.387 . S
H1143 C1155 0.930 . S
H1144 C1157 0.930 . S
H1145 C1158 0.930 . S
H1146 C1162 0.959 1_554 S
H1147 C1162 0.956 1_554 S
H1148 C1162 0.961 . S
H1149 C1163 0.960 . S
H1150 C1163 0.961 . S
H1151 C1163 0.959 . S
H1152 C1166 0.929 . S
H1153 C1167 0.931 . S
H1154 C1169 0.930 . S
C1155 H1143 0.930 . S
C1155 C1156 1.399 . S
C1155 C1160 1.399 . S
C1156 C1155 1.399 . S
C1156 C1157 1.376 . S
C1157 H1144 0.930 . S
C1157 C1156 1.376 . S
C1157 C1158 1.388 . S
C1158 H1145 0.930 . S
C1158 C1157 1.388 . S
C1158 C1159 1.390 . S
C1159 C1158 1.390 . S
C1159 C1160 1.394 . S
C1159 C1165 1.465 . S
C1160 C1155 1.399 . S
C1160 C1159 1.394 . S
C1160 C1161 1.516 . S
C1161 C1160 1.516 . S
C1161 C1162 1.502 . S
C1161 C1163 1.561 . S
C1161 C1164 1.526 . S
C1162 H1146 0.959 1_556 S
C1162 H1147 0.956 1_556 S
C1162 H1148 0.961 . S
C1162 C1161 1.502 . S
C1163 H1149 0.960 . S
C1163 H1150 0.961 . S
C1163 H1151 0.959 . S
C1163 C1161 1.561 . S
C1164 C1161 1.526 . S
C1164 C1165 1.396 . S
C1164 C1169 1.390 . S
C1165 C1159 1.465 . S
C1165 C1164 1.396 . S
C1165 C1166 1.399 . S
C1166 H1152 0.929 . S
C1166 C1165 1.399 . S
C1166 C1167 1.385 . S
C1167 H1153 0.931 . S
C1167 C1166 1.385 . S
C1167 C1168 1.389 . S
C1168 C1167 1.389 . S
C1168 C1169 1.387 . S
C1169 H1154 0.930 . S
C1169 C1164 1.390 . S
C1169 C1168 1.387 . S
H1170 C1182 0.930 . S
H1171 C1184 0.930 . S
H1172 C1185 0.930 . S
H1173 C1189 0.959 . S
H1174 C1189 0.959 . S
H1175 C1189 0.961 . S
H1176 C1190 0.960 . S
H1177 C1190 0.961 . S
H1178 C1190 0.959 1_556 S
H1179 C1193 0.929 . S
H1180 C1194 0.931 . S
H1181 C1196 0.930 . S
C1182 H1170 0.930 . S
C1182 C1183 1.399 . S
C1182 C1187 1.399 . S
C1183 C1182 1.399 . S
C1183 C1184 1.376 . S
C1184 H1171 0.930 . S
C1184 C1183 1.376 . S
C1184 C1185 1.388 . S
C1185 H1172 0.930 . S
C1185 C1184 1.388 . S
C1185 C1186 1.390 . S
C1186 C1185 1.390 . S
C1186 C1187 1.394 . S
C1186 C1192 1.465 . S
C1187 C1182 1.399 . S
C1187 C1186 1.394 . S
C1187 C1188 1.516 . S
C1188 C1187 1.516 . S
C1188 C1189 1.502 . S
C1188 C1190 1.561 . S
C1188 C1191 1.526 . S
C1189 H1173 0.959 . S
C1189 H1174 0.959 . S
C1189 H1175 0.961 . S
C1189 C1188 1.502 . S
C1190 H1176 0.960 . S
C1190 H1177 0.961 . S
C1190 H1178 0.959 1_554 S
C1190 C1188 1.561 . S
C1191 C1188 1.526 . S
C1191 C1192 1.396 . S
C1191 C1196 1.390 . S
C1192 C1186 1.465 . S
C1192 C1191 1.396 . S
C1192 C1193 1.399 . S
C1193 H1179 0.929 . S
C1193 C1192 1.399 . S
C1193 C1194 1.385 . S
C1194 H1180 0.931 . S
C1194 C1193 1.385 . S
C1194 C1195 1.389 . S
C1195 C1194 1.389 . S
C1195 C1196 1.387 . S
C1196 H1181 0.930 . S
C1196 C1191 1.390 . S
C1196 C1195 1.387 . S
H1197 C1209 0.930 . S
H1198 C1211 0.930 . S
H1199 C1212 0.930 . S
H1200 C1216 0.959 . S
H1201 C1216 0.959 . S
H1202 C1216 0.961 . S
H1203 C1217 0.960 . S
H1204 C1217 0.961 . S
H1205 C1217 0.959 . S
H1206 C1220 0.929 . S
H1207 C1221 0.931 . S
H1208 C1223 0.930 . S
C1209 H1197 0.930 . S
C1209 C1210 1.399 . S
C1209 C1214 1.399 . S
C1210 C1209 1.399 . S
C1210 C1211 1.376 . S
C1211 H1198 0.930 . S
C1211 C1210 1.376 . S
C1211 C1212 1.388 . S
C1212 H1199 0.930 . S
C1212 C1211 1.388 . S
C1212 C1213 1.390 . S
C1213 C1212 1.390 . S
C1213 C1214 1.394 . S
C1213 C1219 1.465 . S
C1214 C1209 1.399 . S
C1214 C1213 1.394 . S
C1214 C1215 1.516 . S
C1215 C1214 1.516 . S
C1215 C1216 1.502 . S
C1215 C1217 1.561 . S
C1215 C1218 1.526 . S
C1216 H1200 0.959 . S
C1216 H1201 0.959 . S
C1216 H1202 0.961 . S
C1216 C1215 1.502 . S
C1217 H1203 0.960 . S
C1217 H1204 0.961 . S
C1217 H1205 0.959 . S
C1217 C1215 1.561 . S
C1218 C1215 1.526 . S
C1218 C1219 1.396 . S
C1218 C1223 1.390 . S
C1219 C1213 1.465 . S
C1219 C1218 1.396 . S
C1219 C1220 1.399 . S
C1220 H1206 0.929 . S
C1220 C1219 1.399 . S
C1220 C1221 1.385 . S
C1221 H1207 0.931 . S
C1221 C1220 1.385 . S
C1221 C1222 1.389 . S
C1222 C1221 1.389 . S
C1222 C1223 1.387 . S
C1223 H1208 0.930 . S
C1223 C1218 1.390 . S
C1223 C1222 1.387 . S
H1224 C1236 0.930 . S
H1225 C1238 0.930 . S
H1226 C1239 0.930 . S
H1227 C1243 0.959 . S
H1228 C1243 0.959 . S
H1229 C1243 0.961 . S
H1230 C1244 0.960 . S
H1231 C1244 0.961 . S
H1232 C1244 0.959 . S
H1233 C1247 0.929 1_556 S
H1234 C1248 0.928 1_556 S
H1235 C1250 0.930 . S
C1236 H1224 0.930 . S
C1236 C1237 1.399 . S
C1236 C1241 1.399 . S
C1237 C1236 1.399 . S
C1237 C1238 1.376 . S
C1238 H1225 0.930 . S
C1238 C1237 1.376 . S
C1238 C1239 1.388 . S
C1239 H1226 0.930 . S
C1239 C1238 1.388 . S
C1239 C1240 1.390 . S
C1240 C1239 1.390 . S
C1240 C1241 1.394 . S
C1240 C1246 1.465 . S
C1241 C1236 1.399 . S
C1241 C1240 1.394 . S
C1241 C1242 1.516 . S
C1242 C1241 1.516 . S
C1242 C1243 1.502 . S
C1242 C1244 1.561 . S
C1242 C1245 1.526 . S
C1243 H1227 0.959 . S
C1243 H1228 0.959 . S
C1243 H1229 0.961 . S
C1243 C1242 1.502 . S
C1244 H1230 0.960 . S
C1244 H1231 0.961 . S
C1244 H1232 0.959 . S
C1244 C1242 1.561 . S
C1245 C1242 1.526 . S
C1245 C1246 1.396 . S
C1245 C1250 1.390 . S
C1246 C1240 1.465 . S
C1246 C1245 1.396 . S
C1246 C1247 1.399 . S
C1247 H1233 0.929 1_554 S
C1247 C1246 1.399 . S
C1247 C1248 1.385 . S
C1248 H1234 0.928 1_554 S
C1248 C1247 1.385 . S
C1248 C1249 1.389 . S
C1249 C1248 1.389 . S
C1249 C1250 1.387 . S
C1250 H1235 0.930 . S
C1250 C1245 1.390 . S
C1250 C1249 1.387 . S
H1251 C1263 0.930 . S
H1252 C1265 0.930 . S
H1253 C1266 0.930 . S
H1254 C1270 0.959 . S
H1255 C1270 0.959 . S
H1256 C1270 0.961 . S
H1257 C1271 0.960 . S
H1258 C1271 0.961 . S
H1259 C1271 0.959 . S
H1260 C1274 0.929 . S
H1261 C1275 0.931 . S
H1262 C1277 0.930 . S
C1263 H1251 0.930 . S
C1263 C1264 1.399 . S
C1263 C1268 1.399 . S
C1264 C1263 1.399 . S
C1264 C1265 1.376 . S
C1265 H1252 0.930 . S
C1265 C1264 1.376 . S
C1265 C1266 1.388 . S
C1266 H1253 0.930 . S
C1266 C1265 1.388 . S
C1266 C1267 1.390 . S
C1267 C1266 1.390 . S
C1267 C1268 1.394 . S
C1267 C1273 1.465 . S
C1268 C1263 1.399 . S
C1268 C1267 1.394 . S
C1268 C1269 1.516 . S
C1269 C1268 1.516 . S
C1269 C1270 1.502 . S
C1269 C1271 1.561 . S
C1269 C1272 1.526 . S
C1270 H1254 0.959 . S
C1270 H1255 0.959 . S
C1270 H1256 0.961 . S
C1270 C1269 1.502 . S
C1271 H1257 0.960 . S
C1271 H1258 0.961 . S
C1271 H1259 0.959 . S
C1271 C1269 1.561 . S
C1272 C1269 1.526 . S
C1272 C1273 1.396 . S
C1272 C1277 1.390 . S
C1273 C1267 1.465 . S
C1273 C1272 1.396 . S
C1273 C1274 1.399 . S
C1274 H1260 0.929 . S
C1274 C1273 1.399 . S
C1274 C1275 1.385 . S
C1275 H1261 0.931 . S
C1275 C1274 1.385 . S
C1275 C1276 1.389 . S
C1276 C1275 1.389 . S
C1276 C1277 1.387 . S
C1277 H1262 0.930 . S
C1277 C1272 1.390 . S
C1277 C1276 1.387 . S
H1278 C1290 0.930 . S
H1279 C1292 0.930 . S
H1280 C1293 0.930 . S
H1281 C1297 0.959 . S
H1282 C1297 0.959 . S
H1283 C1297 0.961 . S
H1284 C1298 0.960 . S
H1285 C1298 0.961 . S
H1286 C1298 0.959 . S
H1287 C1301 0.929 . S
H1288 C1302 0.931 . S
H1289 C1304 0.930 . S
C1290 H1278 0.930 . S
C1290 C1291 1.399 . S
C1290 C1295 1.399 . S
C1291 C1290 1.399 . S
C1291 C1292 1.376 . S
C1292 H1279 0.930 . S
C1292 C1291 1.376 . S
C1292 C1293 1.388 . S
C1293 H1280 0.930 . S
C1293 C1292 1.388 . S
C1293 C1294 1.390 . S
C1294 C1293 1.390 . S
C1294 C1295 1.394 . S
C1294 C1300 1.465 . S
C1295 C1290 1.399 . S
C1295 C1294 1.394 . S
C1295 C1296 1.516 . S
C1296 C1295 1.516 . S
C1296 C1297 1.502 . S
C1296 C1298 1.561 . S
C1296 C1299 1.526 . S
C1297 H1281 0.959 . S
C1297 H1282 0.959 . S
C1297 H1283 0.961 . S
C1297 C1296 1.502 . S
C1298 H1284 0.960 . S
C1298 H1285 0.961 . S
C1298 H1286 0.959 . S
C1298 C1296 1.561 . S
C1299 C1296 1.526 . S
C1299 C1300 1.396 . S
C1299 C1304 1.390 . S
C1300 C1294 1.465 . S
C1300 C1299 1.396 . S
C1300 C1301 1.399 . S
C1301 H1287 0.929 . S
C1301 C1300 1.399 . S
C1301 C1302 1.385 . S
C1302 H1288 0.931 . S
C1302 C1301 1.385 . S
C1302 C1303 1.389 . S
C1303 C1302 1.389 . S
C1303 C1304 1.387 . S
C1304 H1289 0.930 . S
C1304 C1299 1.390 . S
C1304 C1303 1.387 . S
H1305 C1317 0.930 . S
H1306 C1319 0.930 . S
H1307 C1320 0.930 . S
H1308 C1324 0.959 . S
H1309 C1324 0.959 . S
H1310 C1324 0.961 . S
H1311 C1325 0.960 . S
H1312 C1325 0.961 . S
H1313 C1325 0.959 . S
H1314 C1328 0.929 . S
H1315 C1329 0.931 . S
H1316 C1331 0.930 . S
C1317 H1305 0.930 . S
C1317 C1318 1.399 . S
C1317 C1322 1.399 . S
C1318 C1317 1.399 . S
C1318 C1319 1.376 . S
C1319 H1306 0.930 . S
C1319 C1318 1.376 . S
C1319 C1320 1.388 . S
C1320 H1307 0.930 . S
C1320 C1319 1.388 . S
C1320 C1321 1.390 . S
C1321 C1320 1.390 . S
C1321 C1322 1.394 . S
C1321 C1327 1.465 . S
C1322 C1317 1.399 . S
C1322 C1321 1.394 . S
C1322 C1323 1.516 . S
C1323 C1322 1.516 . S
C1323 C1324 1.502 . S
C1323 C1325 1.561 . S
C1323 C1326 1.526 . S
C1324 H1308 0.959 . S
C1324 H1309 0.959 . S
C1324 H1310 0.961 . S
C1324 C1323 1.502 . S
C1325 H1311 0.960 . S
C1325 H1312 0.961 . S
C1325 H1313 0.959 . S
C1325 C1323 1.561 . S
C1326 C1323 1.526 . S
C1326 C1327 1.396 . S
C1326 C1331 1.390 . S
C1327 C1321 1.465 . S
C1327 C1326 1.396 . S
C1327 C1328 1.399 . S
C1328 H1314 0.929 . S
C1328 C1327 1.399 . S
C1328 C1329 1.385 . S
C1329 H1315 0.931 . S
C1329 C1328 1.385 . S
C1329 C1330 1.389 . S
C1330 C1329 1.389 . S
C1330 C1331 1.387 . S
C1331 H1316 0.930 . S
C1331 C1326 1.390 . S
C1331 C1330 1.387 . S
H1332 C1344 0.930 . S
H1333 C1346 0.930 . S
H1334 C1347 0.930 . S
H1335 C1351 0.959 . S
H1336 C1351 0.959 . S
H1337 C1351 0.961 . S
H1338 C1352 0.960 . S
H1339 C1352 0.961 . S
H1340 C1352 0.959 . S
H1341 C1355 0.929 . S
H1342 C1356 0.931 . S
H1343 C1358 0.930 . S
C1344 H1332 0.930 . S
C1344 C1345 1.399 . S
C1344 C1349 1.399 . S
C1345 C1344 1.399 . S
C1345 C1346 1.376 . S
C1346 H1333 0.930 . S
C1346 C1345 1.376 . S
C1346 C1347 1.388 . S
C1347 H1334 0.930 . S
C1347 C1346 1.388 . S
C1347 C1348 1.390 . S
C1348 C1347 1.390 . S
C1348 C1349 1.394 . S
C1348 C1354 1.465 . S
C1349 C1344 1.399 . S
C1349 C1348 1.394 . S
C1349 C1350 1.516 . S
C1350 C1349 1.516 . S
C1350 C1351 1.502 . S
C1350 C1352 1.561 1_455 S
C1350 C1353 1.526 1_554 S
C1351 H1335 0.959 . S
C1351 H1336 0.959 . S
C1351 H1337 0.961 . S
C1351 C1350 1.502 . S
C1352 H1338 0.960 . S
C1352 H1339 0.961 . S
C1352 H1340 0.959 . S
C1352 C1350 1.561 1_655 S
C1353 C1350 1.526 1_556 S
C1353 C1354 1.396 1_556 S
C1353 C1358 1.390 . S
C1354 C1348 1.465 . S
C1354 C1353 1.396 1_554 S
C1354 C1355 1.399 1_554 S
C1355 H1341 0.929 . S
C1355 C1354 1.399 1_556 S
C1355 C1356 1.385 . S
C1356 H1342 0.931 . S
C1356 C1355 1.385 . S
C1356 C1357 1.389 . S
C1357 C1356 1.389 . S
C1357 C1358 1.387 . S
C1358 H1343 0.930 . S
C1358 C1353 1.390 . S
C1358 C1357 1.387 . S
H1359 C1371 0.930 . S
H1360 C1373 0.930 . S
H1361 C1374 0.930 . S
H1362 C1378 0.959 . S
H1363 C1378 0.959 . S
H1364 C1378 0.961 . S
H1365 C1379 0.960 . S
H1366 C1379 0.960 1_556 S
H1367 C1379 0.959 . S
H1368 C1382 0.929 . S
H1369 C1383 0.931 . S
H1370 C1385 0.930 . S
C1371 H1359 0.930 . S
C1371 C1372 1.399 . S
C1371 C1376 1.399 . S
C1372 C1371 1.399 . S
C1372 C1373 1.376 . S
C1373 H1360 0.930 . S
C1373 C1372 1.376 . S
C1373 C1374 1.388 . S
C1374 H1361 0.930 . S
C1374 C1373 1.388 . S
C1374 C1375 1.390 . S
C1375 C1374 1.390 . S
C1375 C1376 1.394 . S
C1375 C1381 1.465 . S
C1376 C1371 1.399 . S
C1376 C1375 1.394 . S
C1376 C1377 1.516 . S
C1377 C1376 1.516 . S
C1377 C1378 1.502 . S
C1377 C1379 1.561 . S
C1377 C1380 1.526 1_554 S
C1378 H1362 0.959 . S
C1378 H1363 0.959 . S
C1378 H1364 0.961 . S
C1378 C1377 1.502 . S
C1379 H1365 0.960 . S
C1379 H1366 0.960 1_554 S
C1379 H1367 0.959 . S
C1379 C1377 1.561 . S
C1380 C1377 1.526 1_556 S
C1380 C1381 1.396 1_556 S
C1380 C1385 1.390 . S
C1381 C1375 1.465 . S
C1381 C1380 1.396 1_554 S
C1381 C1382 1.399 1_554 S
C1382 H1368 0.929 . S
C1382 C1381 1.399 1_556 S
C1382 C1383 1.385 . S
C1383 H1369 0.931 . S
C1383 C1382 1.385 . S
C1383 C1384 1.389 . S
C1384 C1383 1.389 . S
C1384 C1385 1.387 . S
C1385 H1370 0.930 . S
C1385 C1380 1.390 . S
C1385 C1384 1.387 . S
H1386 C1398 0.930 . S
H1387 C1400 0.930 . S
H1388 C1401 0.930 . S
H1389 C1405 0.959 . S
H1390 C1405 0.959 . S
H1391 C1405 0.961 . S
H1392 C1406 0.960 . S
H1393 C1406 0.961 . S
H1394 C1406 0.959 . S
H1395 C1409 0.929 . S
H1396 C1410 0.931 . S
H1397 C1412 0.930 1_565 S
C1398 H1386 0.930 . S
C1398 C1399 1.399 1_565 S
C1398 C1403 1.399 1_565 S
C1399 C1398 1.399 1_545 S
C1399 C1400 1.376 . S
C1400 H1387 0.930 . S
C1400 C1399 1.376 . S
C1400 C1401 1.388 . S
C1401 H1388 0.930 . S
C1401 C1400 1.388 . S
C1401 C1402 1.390 . S
C1402 C1401 1.390 . S
C1402 C1403 1.394 . S
C1402 C1408 1.465 . S
C1403 C1398 1.399 1_545 S
C1403 C1402 1.394 . S
C1403 C1404 1.516 1_545 S
C1404 C1403 1.516 1_565 S
C1404 C1405 1.502 . S
C1404 C1406 1.561 . S
C1404 C1407 1.526 1_564 S
C1405 H1389 0.959 . S
C1405 H1390 0.959 . S
C1405 H1391 0.961 . S
C1405 C1404 1.502 . S
C1406 H1392 0.960 . S
C1406 H1393 0.961 . S
C1406 H1394 0.959 . S
C1406 C1404 1.561 . S
C1407 C1404 1.526 1_546 S
C1407 C1408 1.396 1_556 S
C1407 C1412 1.390 . S
C1408 C1402 1.465 . S
C1408 C1407 1.396 1_554 S
C1408 C1409 1.399 1_554 S
C1409 H1395 0.929 . S
C1409 C1408 1.399 1_556 S
C1409 C1410 1.385 . S
C1410 H1396 0.931 . S
C1410 C1409 1.385 . S
C1410 C1411 1.389 . S
C1411 C1410 1.389 . S
C1411 C1412 1.387 . S
C1412 H1397 0.930 1_545 S
C1412 C1407 1.390 . S
C1412 C1411 1.387 . S
H1413 C1425 0.930 . S
H1414 C1427 0.930 . S
H1415 C1428 0.930 . S
H1416 C1432 0.959 . S
H1417 C1432 0.959 . S
H1418 C1432 0.961 . S
H1419 C1433 0.960 . S
H1420 C1433 0.961 . S
H1421 C1433 0.959 . S
H1422 C1436 0.929 . S
H1423 C1437 0.931 . S
H1424 C1439 0.930 . S
C1425 H1413 0.930 . S
C1425 C1426 1.399 . S
C1425 C1430 1.399 . S
C1426 C1425 1.399 . S
C1426 C1427 1.376 1_455 S
C1427 H1414 0.930 . S
C1427 C1426 1.376 1_655 S
C1427 C1428 1.388 . S
C1428 H1415 0.930 . S
C1428 C1427 1.388 . S
C1428 C1429 1.383 1_655 S
C1429 C1428 1.383 1_455 S
C1429 C1430 1.400 . S
C1429 C1435 1.468 . S
C1430 C1425 1.399 . S
C1430 C1429 1.400 . S
C1430 C1431 1.516 . S
C1431 C1430 1.516 . S
C1431 C1432 1.502 . S
C1431 C1433 1.561 . S
C1431 C1434 1.526 1_556 S
C1432 H1416 0.959 . S
C1432 H1417 0.959 . S
C1432 H1418 0.961 . S
C1432 C1431 1.502 . S
C1433 H1419 0.960 . S
C1433 H1420 0.961 . S
C1433 H1421 0.959 . S
C1433 C1431 1.561 . S
C1434 C1431 1.526 1_554 S
C1434 C1435 1.396 1_554 S
C1434 C1439 1.390 . S
C1435 C1429 1.468 . S
C1435 C1434 1.396 1_556 S
C1435 C1436 1.399 1_456 S
C1436 H1422 0.929 . S
C1436 C1435 1.399 1_654 S
C1436 C1437 1.385 . S
C1437 H1423 0.931 . S
C1437 C1436 1.385 . S
C1437 C1438 1.389 1_655 S
C1438 C1437 1.389 1_455 S
C1438 C1439 1.387 . S
C1439 H1424 0.930 . S
C1439 C1434 1.390 . S
C1439 C1438 1.387 . S
H1440 C1452 0.930 . S
H1441 C1454 0.930 . S
H1442 C1455 0.930 . S
H1443 C1459 0.959 . S
H1444 C1459 0.959 . S
H1445 C1459 0.961 . S
H1446 C1460 0.960 . S
H1447 C1460 0.961 . S
H1448 C1460 0.959 . S
H1449 C1463 0.929 . S
H1450 C1464 0.931 . S
H1451 C1466 0.930 . S
C1452 H1440 0.930 . S
C1452 C1453 1.399 . S
C1452 C1457 1.399 . S
C1453 C1452 1.399 . S
C1453 C1454 1.376 . S
C1454 H1441 0.930 . S
C1454 C1453 1.376 . S
C1454 C1455 1.388 . S
C1455 H1442 0.930 . S
C1455 C1454 1.388 . S
C1455 C1456 1.390 1_554 S
C1456 C1455 1.390 1_556 S
C1456 C1457 1.394 1_556 S
C1456 C1462 1.465 . S
C1457 C1452 1.399 . S
C1457 C1456 1.394 1_554 S
C1457 C1458 1.516 1_554 S
C1458 C1457 1.516 1_556 S
C1458 C1459 1.502 . S
C1458 C1460 1.561 . S
C1458 C1461 1.526 . S
C1459 H1443 0.959 . S
C1459 H1444 0.959 . S
C1459 H1445 0.961 . S
C1459 C1458 1.502 . S
C1460 H1446 0.960 . S
C1460 H1447 0.961 . S
C1460 H1448 0.959 . S
C1460 C1458 1.561 . S
C1461 C1458 1.526 . S
C1461 C1462 1.396 . S
C1461 C1466 1.390 . S
C1462 C1456 1.465 . S
C1462 C1461 1.396 . S
C1462 C1463 1.399 . S
C1463 H1449 0.929 . S
C1463 C1462 1.399 . S
C1463 C1464 1.385 . S
C1464 H1450 0.931 . S
C1464 C1463 1.385 . S
C1464 C1465 1.389 . S
C1465 C1464 1.389 . S
C1465 C1466 1.387 . S
C1466 H1451 0.930 . S
C1466 C1461 1.390 . S
C1466 C1465 1.387 . S
H1467 C1479 0.930 . S
H1468 C1481 0.930 . S
H1469 C1482 0.930 . S
H1470 C1486 0.959 . S
H1471 C1486 0.959 . S
H1472 C1486 0.961 . S
H1473 C1487 0.960 . S
H1474 C1487 0.961 . S
H1475 C1487 0.959 . S
H1476 C1490 0.929 . S
H1477 C1491 0.931 . S
H1478 C1493 0.930 1_565 S
C1479 H1467 0.930 . S
C1479 C1480 1.399 1_565 S
C1479 C1484 1.399 1_565 S
C1480 C1479 1.399 1_545 S
C1480 C1481 1.376 . S
C1481 H1468 0.930 . S
C1481 C1480 1.376 . S
C1481 C1482 1.388 . S
C1482 H1469 0.930 . S
C1482 C1481 1.388 . S
C1482 C1483 1.390 1_554 S
C1483 C1482 1.390 1_556 S
C1483 C1484 1.394 1_556 S
C1483 C1489 1.465 . S
C1484 C1479 1.399 1_545 S
C1484 C1483 1.394 1_554 S
C1484 C1485 1.516 1_544 S
C1485 C1484 1.516 1_566 S
C1485 C1486 1.502 . S
C1485 C1487 1.561 . S
C1485 C1488 1.526 1_565 S
C1486 H1470 0.959 . S
C1486 H1471 0.959 . S
C1486 H1472 0.961 . S
C1486 C1485 1.502 . S
C1487 H1473 0.960 . S
C1487 H1474 0.961 . S
C1487 H1475 0.959 . S
C1487 C1485 1.561 . S
C1488 C1485 1.526 1_545 S
C1488 C1489 1.396 . S
C1488 C1493 1.390 . S
C1489 C1483 1.465 . S
C1489 C1488 1.396 . S
C1489 C1490 1.399 . S
C1490 H1476 0.929 . S
C1490 C1489 1.399 . S
C1490 C1491 1.385 . S
C1491 H1477 0.931 . S
C1491 C1490 1.385 . S
C1491 C1492 1.389 . S
C1492 C1491 1.389 . S
C1492 C1493 1.387 . S
C1493 H1478 0.930 1_545 S
C1493 C1488 1.390 . S
C1493 C1492 1.387 . S
H1494 C1506 0.930 . S
H1495 C1508 0.930 . S
H1496 C1509 0.930 . S
H1497 C1513 0.959 . S
H1498 C1513 0.959 . S
H1499 C1513 0.961 . S
H1500 C1514 0.960 . S
H1501 C1514 0.961 . S
H1502 C1514 0.959 . S
H1503 C1517 0.929 . S
H1504 C1518 0.931 . S
H1505 C1520 0.930 . S
C1506 H1494 0.930 . S
C1506 C1507 1.399 . S
C1506 C1511 1.399 . S
C1507 C1506 1.399 . S
C1507 C1508 1.376 . S
C1508 H1495 0.930 . S
C1508 C1507 1.376 . S
C1508 C1509 1.388 . S
C1509 H1496 0.930 . S
C1509 C1508 1.388 . S
C1509 C1510 1.390 . S
C1510 C1509 1.390 . S
C1510 C1511 1.394 . S
C1510 C1516 1.465 . S
C1511 C1506 1.399 . S
C1511 C1510 1.394 . S
C1511 C1512 1.516 . S
C1512 C1511 1.516 . S
C1512 C1513 1.502 . S
C1512 C1514 1.561 . S
C1512 C1515 1.526 . S
C1513 H1497 0.959 . S
C1513 H1498 0.959 . S
C1513 H1499 0.961 . S
C1513 C1512 1.502 . S
C1514 H1500 0.960 . S
C1514 H1501 0.961 . S
C1514 H1502 0.959 . S
C1514 C1512 1.561 . S
C1515 C1512 1.526 . S
C1515 C1516 1.396 . S
C1515 C1520 1.390 . S
C1516 C1510 1.465 . S
C1516 C1515 1.396 . S
C1516 C1517 1.399 . S
C1517 H1503 0.929 . S
C1517 C1516 1.399 . S
C1517 C1518 1.385 . S
C1518 H1504 0.931 . S
C1518 C1517 1.385 . S
C1518 C1519 1.389 . S
C1519 C1518 1.389 . S
C1519 C1520 1.387 . S
C1520 H1505 0.930 . S
C1520 C1515 1.390 . S
C1520 C1519 1.387 . S
H1521 C1533 0.930 . S
H1522 C1535 0.930 . S
H1523 C1536 0.930 . S
H1524 C1540 0.959 . S
H1525 C1540 0.959 . S
H1526 C1540 0.961 . S
H1527 C1541 0.960 . S
H1528 C1541 0.961 . S
H1529 C1541 0.959 . S
H1530 C1544 0.929 . S
H1531 C1545 0.931 . S
H1532 C1547 0.930 . S
C1533 H1521 0.930 . S
C1533 C1534 1.399 . S
C1533 C1538 1.399 . S
C1534 C1533 1.399 . S
C1534 C1535 1.376 . S
C1535 H1522 0.930 . S
C1535 C1534 1.376 . S
C1535 C1536 1.388 . S
C1536 H1523 0.930 . S
C1536 C1535 1.388 . S
C1536 C1537 1.390 . S
C1537 C1536 1.390 . S
C1537 C1538 1.394 . S
C1537 C1543 1.465 . S
C1538 C1533 1.399 . S
C1538 C1537 1.394 . S
C1538 C1539 1.516 . S
C1539 C1538 1.516 . S
C1539 C1540 1.502 . S
C1539 C1541 1.561 . S
C1539 C1542 1.526 . S
C1540 H1524 0.959 . S
C1540 H1525 0.959 . S
C1540 H1526 0.961 . S
C1540 C1539 1.502 . S
C1541 H1527 0.960 . S
C1541 H1528 0.961 . S
C1541 H1529 0.959 . S
C1541 C1539 1.561 . S
C1542 C1539 1.526 . S
C1542 C1543 1.396 . S
C1542 C1547 1.390 . S
C1543 C1537 1.465 . S
C1543 C1542 1.396 . S
C1543 C1544 1.399 . S
C1544 H1530 0.929 . S
C1544 C1543 1.399 . S
C1544 C1545 1.385 . S
C1545 H1531 0.931 . S
C1545 C1544 1.385 . S
C1545 C1546 1.389 . S
C1546 C1545 1.389 . S
C1546 C1547 1.387 . S
C1547 H1532 0.930 . S
C1547 C1542 1.390 . S
C1547 C1546 1.387 . S
H1548 C1560 0.930 . S
H1549 C1562 0.930 . S
H1550 C1563 0.930 . S
H1551 C1567 0.959 . S
H1552 C1567 0.959 . S
H1553 C1567 0.961 . S
H1554 C1568 0.960 . S
H1555 C1568 0.961 . S
H1556 C1568 0.959 . S
H1557 C1571 0.929 . S
H1558 C1572 0.931 . S
H1559 C1574 0.930 . S
C1560 H1548 0.930 . S
C1560 C1561 1.399 . S
C1560 C1565 1.399 . S
C1561 C1560 1.399 . S
C1561 C1562 1.376 . S
C1562 H1549 0.930 . S
C1562 C1561 1.376 . S
C1562 C1563 1.388 . S
C1563 H1550 0.930 . S
C1563 C1562 1.388 . S
C1563 C1564 1.390 . S
C1564 C1563 1.390 . S
C1564 C1565 1.394 . S
C1564 C1570 1.465 . S
C1565 C1560 1.399 . S
C1565 C1564 1.394 . S
C1565 C1566 1.516 . S
C1566 C1565 1.516 . S
C1566 C1567 1.502 . S
C1566 C1568 1.561 . S
C1566 C1569 1.526 . S
C1567 H1551 0.959 . S
C1567 H1552 0.959 . S
C1567 H1553 0.961 . S
C1567 C1566 1.502 . S
C1568 H1554 0.960 . S
C1568 H1555 0.961 . S
C1568 H1556 0.959 . S
C1568 C1566 1.561 . S
C1569 C1566 1.526 . S
C1569 C1570 1.396 . S
C1569 C1574 1.390 . S
C1570 C1564 1.465 . S
C1570 C1569 1.396 . S
C1570 C1571 1.399 . S
C1571 H1557 0.929 . S
C1571 C1570 1.399 . S
C1571 C1572 1.385 . S
C1572 H1558 0.931 . S
C1572 C1571 1.385 . S
C1572 C1573 1.389 . S
C1573 C1572 1.389 . S
C1573 C1574 1.387 . S
C1574 H1559 0.930 . S
C1574 C1569 1.390 . S
C1574 C1573 1.387 . S
H1575 C1587 0.930 . S
H1576 C1589 0.930 . S
H1577 C1590 0.930 . S
H1578 C1594 0.959 . S
H1579 C1594 0.959 . S
H1580 C1594 0.961 . S
H1581 C1595 0.960 . S
H1582 C1595 0.961 . S
H1583 C1595 0.959 . S
H1584 C1598 0.929 . S
H1585 C1599 0.931 . S
H1586 C1601 0.930 . S
C1587 H1575 0.930 . S
C1587 C1588 1.399 . S
C1587 C1592 1.399 . S
C1588 C1587 1.399 . S
C1588 C1589 1.376 . S
C1589 H1576 0.930 . S
C1589 C1588 1.376 . S
C1589 C1590 1.388 . S
C1590 H1577 0.930 . S
C1590 C1589 1.388 . S
C1590 C1591 1.390 . S
C1591 C1590 1.390 . S
C1591 C1592 1.394 . S
C1591 C1597 1.465 . S
C1592 C1587 1.399 . S
C1592 C1591 1.394 . S
C1592 C1593 1.516 . S
C1593 C1592 1.516 . S
C1593 C1594 1.502 . S
C1593 C1595 1.561 . S
C1593 C1596 1.526 . S
C1594 H1578 0.959 . S
C1594 H1579 0.959 . S
C1594 H1580 0.961 . S
C1594 C1593 1.502 . S
C1595 H1581 0.960 . S
C1595 H1582 0.961 . S
C1595 H1583 0.959 . S
C1595 C1593 1.561 . S
C1596 C1593 1.526 . S
C1596 C1597 1.396 . S
C1596 C1601 1.390 . S
C1597 C1591 1.465 . S
C1597 C1596 1.396 . S
C1597 C1598 1.399 . S
C1598 H1584 0.929 . S
C1598 C1597 1.399 . S
C1598 C1599 1.385 . S
C1599 H1585 0.931 . S
C1599 C1598 1.385 . S
C1599 C1600 1.389 . S
C1600 C1599 1.389 . S
C1600 C1601 1.387 . S
C1601 H1586 0.930 . S
C1601 C1596 1.390 . S
C1601 C1600 1.387 . S
H1602 C1614 0.930 . S
H1603 C1616 0.930 . S
H1604 C1617 0.930 . S
H1605 C1621 0.959 . S
H1606 C1621 0.959 . S
H1607 C1621 0.961 . S
H1608 C1622 0.960 . S
H1609 C1622 0.961 . S
H1610 C1622 0.959 . S
H1611 C1625 0.929 . S
H1612 C1626 0.931 . S
H1613 C1628 0.930 . S
C1614 H1602 0.930 . S
C1614 C1615 1.399 . S
C1614 C1619 1.399 . S
C1615 C1614 1.399 . S
C1615 C1616 1.376 . S
C1616 H1603 0.930 . S
C1616 C1615 1.376 . S
C1616 C1617 1.388 . S
C1617 H1604 0.930 . S
C1617 C1616 1.388 . S
C1617 C1618 1.390 . S
C1618 C1617 1.390 . S
C1618 C1619 1.394 . S
C1618 C1624 1.465 . S
C1619 C1614 1.399 . S
C1619 C1618 1.394 . S
C1619 C1620 1.516 . S
C1620 C1619 1.516 . S
C1620 C1621 1.502 . S
C1620 C1622 1.561 . S
C1620 C1623 1.526 . S
C1621 H1605 0.959 . S
C1621 H1606 0.959 . S
C1621 H1607 0.961 . S
C1621 C1620 1.502 . S
C1622 H1608 0.960 . S
C1622 H1609 0.961 . S
C1622 H1610 0.959 . S
C1622 C1620 1.561 . S
C1623 C1620 1.526 . S
C1623 C1624 1.396 . S
C1623 C1628 1.390 . S
C1624 C1618 1.465 . S
C1624 C1623 1.396 . S
C1624 C1625 1.399 . S
C1625 H1611 0.929 . S
C1625 C1624 1.399 . S
C1625 C1626 1.385 . S
C1626 H1612 0.931 . S
C1626 C1625 1.385 . S
C1626 C1627 1.389 . S
C1627 C1626 1.389 . S
C1627 C1628 1.387 . S
C1628 H1613 0.930 . S
C1628 C1623 1.390 . S
C1628 C1627 1.387 . S
H1629 C1641 0.930 . S
H1630 C1643 0.930 . S
H1631 C1644 0.930 . S
H1632 C1648 0.959 . S
H1633 C1648 0.959 . S
H1634 C1648 0.961 . S
H1635 C1649 0.960 . S
H1636 C1649 0.961 . S
H1637 C1649 0.959 . S
H1638 C1652 0.929 . S
H1639 C1653 0.931 . S
H1640 C1655 0.930 . S
C1641 H1629 0.930 . S
C1641 C1642 1.399 . S
C1641 C1646 1.399 . S
C1642 C1641 1.399 . S
C1642 C1643 1.376 . S
C1643 H1630 0.930 . S
C1643 C1642 1.376 . S
C1643 C1644 1.388 . S
C1644 H1631 0.930 . S
C1644 C1643 1.388 . S
C1644 C1645 1.390 . S
C1645 C1644 1.390 . S
C1645 C1646 1.394 . S
C1645 C1651 1.465 . S
C1646 C1641 1.399 . S
C1646 C1645 1.394 . S
C1646 C1647 1.516 . S
C1647 C1646 1.516 . S
C1647 C1648 1.502 . S
C1647 C1649 1.561 . S
C1647 C1650 1.526 . S
C1648 H1632 0.959 . S
C1648 H1633 0.959 . S
C1648 H1634 0.961 . S
C1648 C1647 1.502 . S
C1649 H1635 0.960 . S
C1649 H1636 0.961 . S
C1649 H1637 0.959 . S
C1649 C1647 1.561 . S
C1650 C1647 1.526 . S
C1650 C1651 1.396 . S
C1650 C1655 1.390 . S
C1651 C1645 1.465 . S
C1651 C1650 1.396 . S
C1651 C1652 1.399 . S
C1652 H1638 0.929 . S
C1652 C1651 1.399 . S
C1652 C1653 1.385 . S
C1653 H1639 0.931 . S
C1653 C1652 1.385 . S
C1653 C1654 1.389 . S
C1654 C1653 1.389 . S
C1654 C1655 1.387 . S
C1655 H1640 0.930 . S
C1655 C1650 1.390 . S
C1655 C1654 1.387 . S
H1656 C1668 0.930 . S
H1657 C1670 0.930 . S
H1658 C1671 0.930 . S
H1659 C1675 0.959 . S
H1660 C1675 0.959 . S
H1661 C1675 0.961 . S
H1662 C1676 0.960 . S
H1663 C1676 0.961 . S
H1664 C1676 0.959 . S
H1665 C1679 0.929 . S
H1666 C1680 0.931 . S
H1667 C1682 0.930 . S
C1668 H1656 0.930 . S
C1668 C1669 1.399 . S
C1668 C1673 1.399 . S
C1669 C1668 1.399 . S
C1669 C1670 1.376 . S
C1670 H1657 0.930 . S
C1670 C1669 1.376 . S
C1670 C1671 1.388 . S
C1671 H1658 0.930 . S
C1671 C1670 1.388 . S
C1671 C1672 1.390 . S
C1672 C1671 1.390 . S
C1672 C1673 1.394 . S
C1672 C1678 1.465 . S
C1673 C1668 1.399 . S
C1673 C1672 1.394 . S
C1673 C1674 1.516 . S
C1674 C1673 1.516 . S
C1674 C1675 1.502 . S
C1674 C1676 1.561 . S
C1674 C1677 1.526 . S
C1675 H1659 0.959 . S
C1675 H1660 0.959 . S
C1675 H1661 0.961 . S
C1675 C1674 1.502 . S
C1676 H1662 0.960 . S
C1676 H1663 0.961 . S
C1676 H1664 0.959 . S
C1676 C1674 1.561 . S
C1677 C1674 1.526 . S
C1677 C1678 1.396 . S
C1677 C1682 1.390 . S
C1678 C1672 1.465 . S
C1678 C1677 1.396 . S
C1678 C1679 1.399 . S
C1679 H1665 0.929 . S
C1679 C1678 1.399 . S
C1679 C1680 1.385 . S
C1680 H1666 0.931 . S
C1680 C1679 1.385 . S
C1680 C1681 1.389 . S
C1681 C1680 1.389 . S
C1681 C1682 1.387 . S
C1682 H1667 0.930 . S
C1682 C1677 1.390 . S
C1682 C1681 1.387 . S
H1683 C1695 0.930 . S
H1684 C1697 0.930 . S
H1685 C1698 0.930 . S
H1686 C1702 0.959 . S
H1687 C1702 0.959 . S
H1688 C1702 0.961 . S
H1689 C1703 0.960 . S
H1690 C1703 0.961 . S
H1691 C1703 0.959 . S
H1692 C1706 0.929 . S
H1693 C1707 0.931 . S
H1694 C1709 0.930 . S
C1695 H1683 0.930 . S
C1695 C1696 1.399 . S
C1695 C1700 1.399 . S
C1696 C1695 1.399 . S
C1696 C1697 1.376 . S
C1697 H1684 0.930 . S
C1697 C1696 1.376 . S
C1697 C1698 1.388 . S
C1698 H1685 0.930 . S
C1698 C1697 1.388 . S
C1698 C1699 1.390 . S
C1699 C1698 1.390 . S
C1699 C1700 1.394 . S
C1699 C1705 1.465 . S
C1700 C1695 1.399 . S
C1700 C1699 1.394 . S
C1700 C1701 1.516 . S
C1701 C1700 1.516 . S
C1701 C1702 1.502 . S
C1701 C1703 1.561 . S
C1701 C1704 1.526 . S
C1702 H1686 0.959 . S
C1702 H1687 0.959 . S
C1702 H1688 0.961 . S
C1702 C1701 1.502 . S
C1703 H1689 0.960 . S
C1703 H1690 0.961 . S
C1703 H1691 0.959 . S
C1703 C1701 1.561 . S
C1704 C1701 1.526 . S
C1704 C1705 1.396 . S
C1704 C1709 1.390 . S
C1705 C1699 1.465 . S
C1705 C1704 1.396 . S
C1705 C1706 1.399 . S
C1706 H1692 0.929 . S
C1706 C1705 1.399 . S
C1706 C1707 1.385 . S
C1707 H1693 0.931 . S
C1707 C1706 1.385 . S
C1707 C1708 1.389 . S
C1708 C1707 1.389 . S
C1708 C1709 1.387 . S
C1709 H1694 0.930 . S
C1709 C1704 1.390 . S
C1709 C1708 1.387 . S
H1710 C1722 0.930 . S
H1711 C1724 0.930 . S
H1712 C1725 0.930 . S
H1713 C1729 0.959 . S
H1714 C1729 0.959 . S
H1715 C1729 0.961 . S
H1716 C1730 0.960 . S
H1717 C1730 0.961 . S
H1718 C1730 0.959 . S
H1719 C1733 0.929 . S
H1720 C1734 0.931 . S
H1721 C1736 0.930 . S
C1722 H1710 0.930 . S
C1722 C1723 1.399 . S
C1722 C1727 1.399 . S
C1723 C1722 1.399 . S
C1723 C1724 1.376 . S
C1724 H1711 0.930 . S
C1724 C1723 1.376 . S
C1724 C1725 1.388 . S
C1725 H1712 0.930 . S
C1725 C1724 1.388 . S
C1725 C1726 1.390 . S
C1726 C1725 1.390 . S
C1726 C1727 1.394 . S
C1726 C1732 1.465 . S
C1727 C1722 1.399 . S
C1727 C1726 1.394 . S
C1727 C1728 1.516 . S
C1728 C1727 1.516 . S
C1728 C1729 1.502 . S
C1728 C1730 1.561 . S
C1728 C1731 1.526 . S
C1729 H1713 0.959 . S
C1729 H1714 0.959 . S
C1729 H1715 0.961 . S
C1729 C1728 1.502 . S
C1730 H1716 0.960 . S
C1730 H1717 0.961 . S
C1730 H1718 0.959 . S
C1730 C1728 1.561 . S
C1731 C1728 1.526 . S
C1731 C1732 1.396 . S
C1731 C1736 1.390 . S
C1732 C1726 1.465 . S
C1732 C1731 1.396 . S
C1732 C1733 1.399 . S
C1733 H1719 0.929 . S
C1733 C1732 1.399 . S
C1733 C1734 1.385 . S
C1734 H1720 0.931 . S
C1734 C1733 1.385 . S
C1734 C1735 1.389 . S
C1735 C1734 1.389 . S
C1735 C1736 1.387 . S
C1736 H1721 0.930 . S
C1736 C1731 1.390 . S
C1736 C1735 1.387 . S
H1737 C1749 0.930 . S
H1738 C1751 0.930 . S
H1739 C1752 0.930 . S
H1740 C1756 0.959 . S
H1741 C1756 0.959 . S
H1742 C1756 0.961 . S
H1743 C1757 0.960 . S
H1744 C1757 0.961 . S
H1745 C1757 0.959 . S
H1746 C1760 0.929 . S
H1747 C1761 0.931 . S
H1748 C1763 0.930 . S
C1749 H1737 0.930 . S
C1749 C1750 1.399 . S
C1749 C1754 1.399 . S
C1750 C1749 1.399 . S
C1750 C1751 1.376 . S
C1751 H1738 0.930 . S
C1751 C1750 1.376 . S
C1751 C1752 1.388 . S
C1752 H1739 0.930 . S
C1752 C1751 1.388 . S
C1752 C1753 1.390 . S
C1753 C1752 1.390 . S
C1753 C1754 1.394 . S
C1753 C1759 1.465 . S
C1754 C1749 1.399 . S
C1754 C1753 1.394 . S
C1754 C1755 1.516 . S
C1755 C1754 1.516 . S
C1755 C1756 1.502 . S
C1755 C1757 1.561 . S
C1755 C1758 1.526 . S
C1756 H1740 0.959 . S
C1756 H1741 0.959 . S
C1756 H1742 0.961 . S
C1756 C1755 1.502 . S
C1757 H1743 0.960 . S
C1757 H1744 0.961 . S
C1757 H1745 0.959 . S
C1757 C1755 1.561 . S
C1758 C1755 1.526 . S
C1758 C1759 1.396 . S
C1758 C1763 1.390 . S
C1759 C1753 1.465 . S
C1759 C1758 1.396 . S
C1759 C1760 1.399 . S
C1760 H1746 0.929 . S
C1760 C1759 1.399 . S
C1760 C1761 1.385 . S
C1761 H1747 0.931 . S
C1761 C1760 1.385 . S
C1761 C1762 1.389 . S
C1762 C1761 1.389 . S
C1762 C1763 1.387 . S
C1763 H1748 0.930 . S
C1763 C1758 1.390 . S
C1763 C1762 1.387 . S
H1764 C1776 0.930 . S
H1765 C1778 0.930 . S
H1766 C1779 0.930 . S
H1767 C1783 0.959 . S
H1768 C1783 0.959 . S
H1769 C1783 0.961 . S
H1770 C1784 0.960 . S
H1771 C1784 0.961 . S
H1772 C1784 0.959 . S
H1773 C1787 0.929 . S
H1774 C1788 0.931 . S
H1775 C1790 0.930 . S
C1776 H1764 0.930 . S
C1776 C1777 1.399 . S
C1776 C1781 1.399 . S
C1777 C1776 1.399 . S
C1777 C1778 1.376 . S
C1778 H1765 0.930 . S
C1778 C1777 1.376 . S
C1778 C1779 1.388 . S
C1779 H1766 0.930 . S
C1779 C1778 1.388 . S
C1779 C1780 1.390 . S
C1780 C1779 1.390 . S
C1780 C1781 1.394 . S
C1780 C1786 1.465 . S
C1781 C1776 1.399 . S
C1781 C1780 1.394 . S
C1781 C1782 1.516 . S
C1782 C1781 1.516 . S
C1782 C1783 1.502 . S
C1782 C1784 1.561 . S
C1782 C1785 1.526 . S
C1783 H1767 0.959 . S
C1783 H1768 0.959 . S
C1783 H1769 0.961 . S
C1783 C1782 1.502 . S
C1784 H1770 0.960 . S
C1784 H1771 0.961 . S
C1784 H1772 0.959 . S
C1784 C1782 1.561 . S
C1785 C1782 1.526 . S
C1785 C1786 1.396 . S
C1785 C1790 1.390 . S
C1786 C1780 1.465 . S
C1786 C1785 1.396 . S
C1786 C1787 1.399 . S
C1787 H1773 0.929 . S
C1787 C1786 1.399 . S
C1787 C1788 1.385 . S
C1788 H1774 0.931 . S
C1788 C1787 1.385 . S
C1788 C1789 1.389 . S
C1789 C1788 1.389 . S
C1789 C1790 1.387 . S
C1790 H1775 0.930 . S
C1790 C1785 1.390 . S
C1790 C1789 1.387 . S
H1791 C1803 0.930 . S
H1792 C1805 0.930 . S
H1793 C1806 0.930 . S
H1794 C1810 0.959 . S
H1795 C1810 0.959 . S
H1796 C1810 0.961 . S
H1797 C1811 0.960 . S
H1798 C1811 0.961 . S
H1799 C1811 0.959 . S
H1800 C1814 0.929 . S
H1801 C1815 0.931 . S
H1802 C1817 0.930 . S
C1803 H1791 0.930 . S
C1803 C1804 1.399 . S
C1803 C1808 1.399 . S
C1804 C1803 1.399 . S
C1804 C1805 1.376 . S
C1805 H1792 0.930 . S
C1805 C1804 1.376 . S
C1805 C1806 1.388 . S
C1806 H1793 0.930 . S
C1806 C1805 1.388 . S
C1806 C1807 1.390 . S
C1807 C1806 1.390 . S
C1807 C1808 1.394 . S
C1807 C1813 1.465 . S
C1808 C1803 1.399 . S
C1808 C1807 1.394 . S
C1808 C1809 1.516 . S
C1809 C1808 1.516 . S
C1809 C1810 1.502 . S
C1809 C1811 1.561 . S
C1809 C1812 1.526 . S
C1810 H1794 0.959 . S
C1810 H1795 0.959 . S
C1810 H1796 0.961 . S
C1810 C1809 1.502 . S
C1811 H1797 0.960 . S
C1811 H1798 0.961 . S
C1811 H1799 0.959 . S
C1811 C1809 1.561 . S
C1812 C1809 1.526 . S
C1812 C1813 1.396 . S
C1812 C1817 1.390 . S
C1813 C1807 1.465 . S
C1813 C1812 1.396 . S
C1813 C1814 1.399 . S
C1814 H1800 0.929 . S
C1814 C1813 1.399 . S
C1814 C1815 1.385 . S
C1815 H1801 0.931 . S
C1815 C1814 1.385 . S
C1815 C1816 1.389 . S
C1816 C1815 1.389 . S
C1816 C1817 1.387 . S
C1817 H1802 0.930 . S
C1817 C1812 1.390 . S
C1817 C1816 1.387 . S
C373 C262 1.526 . S
C385 C19 1.674 . S
C400 C39 1.699 . S
C412 C282 1.592 . S
C427 C59 1.683 . S
C439 C242 1.618 . S
C454 C42 1.518 . S
C466 C159 1.666 . S
C481 C179 1.698 . S
C493 C2 1.606 . S
C508 C22 1.559 . S
C520 C139 1.692 . S
C535 C78 1.695 . S
C547 C204 1.537 . S
C562 C98 1.693 . S
C574 C224 1.530 . S
C589 C184 1.610 . S
C601 C118 1.646 . S
C616 C338 1.679 . S
C628 C104 1.515 . S
C643 C64 1.556 . S
C655 C358 1.699 . S
C670 C318 1.632 . S
C682 C84 1.564 . S
C697 C162 1.516 1_554 S
C709 C279 1.638 . S
C724 C122 1.544 1_554 S
C736 C299 1.633 . S
C751 C142 1.586 . S
C763 C259 1.647 . S
C778 C198 1.698 . S
C790 C324 1.546 1_556 S
C805 C344 1.516 1_556 S
C817 C218 1.654 . S
C832 C304 1.513 1_556 S
C844 C238 1.678 . S
C859 C4 1.643 . S
C871 C99 1.602 . S
C886 C119 1.606 . S
C898 C24 1.641 . S
C913 C79 1.606 . S
C925 C44 1.642 . S
C940 C82 1.588 . S
C952 C58 1.648 . S
C967 C102 1.640 . S
C979 C18 1.602 . S
C994 C62 1.643 . S
C1006 C38 1.600 . S
C1021 C219 1.638 . S
C1033 C124 1.612 . S
C1048 C239 1.606 . S
C1060 C144 1.642 . S
C1075 C199 1.627 . S
C1087 C164 1.626 . S
C1102 C202 1.585 . S
C1114 C178 1.648 . S
C1129 C222 1.640 . S
C1141 C138 1.602 . S
C1156 C182 1.628 . S
C1168 C158 1.616 . S
C1183 C339 1.631 . S
C1195 C244 1.621 . S
C1210 C359 1.623 . S
C1222 C264 1.603 . S
C1237 C284 1.612 . S
C1249 C319 1.638 . S
C1264 C298 1.602 . S
C1276 C322 1.641 . S
C1291 C258 1.611 . S
C1303 C342 1.633 . S
C1318 C302 1.608 . S
C1330 C278 1.627 . S
C1345 C12 1.399 . S
C1357 C9 1.380 . S
C1372 C32 1.405 . S
C1384 C29 1.364 . S
C1399 C52 1.395 . S
C1411 C49 1.371 . S
C1426 C69 1.367 . S
C1438 C72 1.399 . S
C1453 C92 1.409 . S
C1465 C89 1.363 . S
C1480 C112 1.394 . S
C1492 C109 1.372 . S
C1507 C129 1.364 . S
C1519 C132 1.404 . S
C1534 C152 1.403 . S
C1546 C149 1.365 . S
C1561 C169 1.408 . S
C1573 C172 1.363 . S
C1588 C189 1.362 . S
C1600 C192 1.407 . S
C1615 C209 1.387 . S
C1627 C212 1.392 . S
C1642 C229 1.363 . S
C1654 C232 1.409 . S
C1669 C249 1.366 . S
C1681 C252 1.401 . S
C1696 C272 1.409 . S
C1708 C269 1.363 . S
C1723 C292 1.386 . S
C1735 C289 1.379 . S
C1750 C312 1.400 . S
C1762 C309 1.378 . S
C1777 C332 1.362 . S
C1789 C329 1.407 . S
C1804 C349 1.368 . S
C1816 C352 1.407 . S
