# Generated by pormake.
# Topology whh, (6)-cn, num edge types: 1
# Building blocks:
#     Node 0, Type 0, BuildingBlock: MIFKUJ_clean_sbu_0, # of connection points: 6
#     Node 1, Type 0, BuildingBlock: MIFKUJ_clean_sbu_0, # of connection points: 6
#     Node 2, Type 0, BuildingBlock: MIFKUJ_clean_sbu_0, # of connection points: 6
#     Node 3, Type 0, BuildingBlock: MIFKUJ_clean_sbu_0, # of connection points: 6
#     Node 4, Type 0, BuildingBlock: MIFKUJ_clean_sbu_0, # of connection points: 6
#     Node 5, Type 0, BuildingBlock: MIFKUJ_clean_sbu_0, # of connection points: 6
#     Node 6, Type 0, BuildingBlock: MIFKUJ_clean_sbu_0, # of connection points: 6
#     Node 7, Type 0, BuildingBlock: MIFKUJ_clean_sbu_0, # of connection points: 6
#     Node 8, Type 0, BuildingBlock: MIFKUJ_clean_sbu_0, # of connection points: 6
#     Node 9, Type 0, BuildingBlock: MIFKUJ_clean_sbu_0, # of connection points: 6
#     Node 10, Type 0, BuildingBlock: MIFKUJ_clean_sbu_0, # of connection points: 6
#     Node 11, Type 0, BuildingBlock: MIFKUJ_clean_sbu_0, # of connection points: 6
#     Node 12, Type 0, BuildingBlock: MIFKUJ_clean_sbu_0, # of connection points: 6
#     Node 13, Type 0, BuildingBlock: MIFKUJ_clean_sbu_0, # of connection points: 6
#     Node 14, Type 0, BuildingBlock: MIFKUJ_clean_sbu_0, # of connection points: 6
#     Node 15, Type 0, BuildingBlock: MIFKUJ_clean_sbu_0, # of connection points: 6
#     Edge 16, Type (0, 0), BuildingBlock: CIFDUS_clean_linker_0, # of connection points: 2
#     Edge 17, Type (0, 0), BuildingBlock: CIFDUS_clean_linker_0, # of connection points: 2
#     Edge 18, Type (0, 0), BuildingBlock: CIFDUS_clean_linker_0, # of connection points: 2
#     Edge 19, Type (0, 0), BuildingBlock: CIFDUS_clean_linker_0, # of connection points: 2
#     Edge 20, Type (0, 0), BuildingBlock: CIFDUS_clean_linker_0, # of connection points: 2
#     Edge 21, Type (0, 0), BuildingBlock: CIFDUS_clean_linker_0, # of connection points: 2
#     Edge 22, Type (0, 0), BuildingBlock: CIFDUS_clean_linker_0, # of connection points: 2
#     Edge 23, Type (0, 0), BuildingBlock: CIFDUS_clean_linker_0, # of connection points: 2
#     Edge 24, Type (0, 0), BuildingBlock: CIFDUS_clean_linker_0, # of connection points: 2
#     Edge 25, Type (0, 0), BuildingBlock: CIFDUS_clean_linker_0, # of connection points: 2
#     Edge 26, Type (0, 0), BuildingBlock: CIFDUS_clean_linker_0, # of connection points: 2
#     Edge 27, Type (0, 0), BuildingBlock: CIFDUS_clean_linker_0, # of connection points: 2
#     Edge 28, Type (0, 0), BuildingBlock: CIFDUS_clean_linker_0, # of connection points: 2
#     Edge 29, Type (0, 0), BuildingBlock: CIFDUS_clean_linker_0, # of connection points: 2
#     Edge 30, Type (0, 0), BuildingBlock: CIFDUS_clean_linker_0, # of connection points: 2
#     Edge 31, Type (0, 0), BuildingBlock: CIFDUS_clean_linker_0, # of connection points: 2
#     Edge 32, Type (0, 0), BuildingBlock: CIFDUS_clean_linker_0, # of connection points: 2
#     Edge 33, Type (0, 0), BuildingBlock: CIFDUS_clean_linker_0, # of connection points: 2
#     Edge 34, Type (0, 0), BuildingBlock: CIFDUS_clean_linker_0, # of connection points: 2
#     Edge 35, Type (0, 0), BuildingBlock: CIFDUS_clean_linker_0, # of connection points: 2
#     Edge 36, Type (0, 0), BuildingBlock: CIFDUS_clean_linker_0, # of connection points: 2
#     Edge 37, Type (0, 0), BuildingBlock: CIFDUS_clean_linker_0, # of connection points: 2
#     Edge 38, Type (0, 0), BuildingBlock: CIFDUS_clean_linker_0, # of connection points: 2
#     Edge 39, Type (0, 0), BuildingBlock: CIFDUS_clean_linker_0, # of connection points: 2
#     Edge 40, Type (0, 0), BuildingBlock: CIFDUS_clean_linker_0, # of connection points: 2
#     Edge 41, Type (0, 0), BuildingBlock: CIFDUS_clean_linker_0, # of connection points: 2
#     Edge 42, Type (0, 0), BuildingBlock: CIFDUS_clean_linker_0, # of connection points: 2
#     Edge 43, Type (0, 0), BuildingBlock: CIFDUS_clean_linker_0, # of connection points: 2
#     Edge 44, Type (0, 0), BuildingBlock: CIFDUS_clean_linker_0, # of connection points: 2
#     Edge 45, Type (0, 0), BuildingBlock: CIFDUS_clean_linker_0, # of connection points: 2
#     Edge 46, Type (0, 0), BuildingBlock: CIFDUS_clean_linker_0, # of connection points: 2
#     Edge 47, Type (0, 0), BuildingBlock: CIFDUS_clean_linker_0, # of connection points: 2
#     Edge 48, Type (0, 0), BuildingBlock: CIFDUS_clean_linker_0, # of connection points: 2
#     Edge 49, Type (0, 0), BuildingBlock: CIFDUS_clean_linker_0, # of connection points: 2
#     Edge 50, Type (0, 0), BuildingBlock: CIFDUS_clean_linker_0, # of connection points: 2
#     Edge 51, Type (0, 0), BuildingBlock: CIFDUS_clean_linker_0, # of connection points: 2
#     Edge 52, Type (0, 0), BuildingBlock: CIFDUS_clean_linker_0, # of connection points: 2
#     Edge 53, Type (0, 0), BuildingBlock: CIFDUS_clean_linker_0, # of connection points: 2
#     Edge 54, Type (0, 0), BuildingBlock: CIFDUS_clean_linker_0, # of connection points: 2
#     Edge 55, Type (0, 0), BuildingBlock: CIFDUS_clean_linker_0, # of connection points: 2
#     Edge 56, Type (0, 0), BuildingBlock: CIFDUS_clean_linker_0, # of connection points: 2
#     Edge 57, Type (0, 0), BuildingBlock: CIFDUS_clean_linker_0, # of connection points: 2
#     Edge 58, Type (0, 0), BuildingBlock: CIFDUS_clean_linker_0, # of connection points: 2
#     Edge 59, Type (0, 0), BuildingBlock: CIFDUS_clean_linker_0, # of connection points: 2
#     Edge 60, Type (0, 0), BuildingBlock: CIFDUS_clean_linker_0, # of connection points: 2
#     Edge 61, Type (0, 0), BuildingBlock: CIFDUS_clean_linker_0, # of connection points: 2
#     Edge 62, Type (0, 0), BuildingBlock: CIFDUS_clean_linker_0, # of connection points: 2
#     Edge 63, Type (0, 0), BuildingBlock: CIFDUS_clean_linker_0, # of connection points: 2
# Relax obj value: 0.492
# Max RMSD: 0.316
# Mean RMSD: 0.293
data_MOF--net-whh--node1-MIFKUJ_clean_sbu_0--edge1-CIFDUS_clean_linker_0
_symmetry_space_group_name_H-M    P1
_symmetry_Int_Tables_number       1
_symmetry_cell_setting            triclinic
loop_
_symmetry_equiv_pos_as_xyz
'x, y, z'
_cell_length_a     33.481916
_cell_length_b     33.241137
_cell_length_c     36.791259
_cell_angle_alpha  92.159002
_cell_angle_beta   85.865251
_cell_angle_gamma 89.931773
loop_
_atom_site_label
_atom_site_type_symbol
_atom_site_fract_x
_atom_site_fract_y
_atom_site_fract_z
_atom_type_partial_charge
Zn0 Zn 0.07328 0.64972 0.08535 0.0
Zn1 Zn 0.99483 0.61382 0.09724 0.0
C2 C 0.04724 0.72556 0.05141 0.0
O3 O 0.08269 0.72886 0.03402 0.0
C4 C 0.0195 0.55352 0.1418 0.0
O5 O 0.98202 0.55932 0.15396 0.0
O6 O 0.13136 0.6656 0.08089 0.0
O7 O 0.05728 0.65008 0.14017 0.0
O8 O 0.99258 0.65885 0.13476 0.0
C9 C 0.14091 0.69949 0.09487 0.0
O10 O 0.11269 0.72297 0.11071 0.0
O11 O 0.03977 0.69585 0.07134 0.0
C12 C 0.94054 0.54954 0.08342 0.0
O13 O 0.97368 0.52835 0.07838 0.0
O14 O 0.94185 0.58652 0.09358 0.0
O15 O 0.00794 0.62994 0.04629 0.0
O16 O 0.06423 0.60003 0.05134 0.0
O17 O 0.03394 0.57365 0.11538 0.0
C18 C 0.02322 0.66377 0.15302 0.0
C19 C 0.03322 0.60398 0.03375 0.0
Zn20 Zn 0.83919 0.06812 0.1343 0.0
Zn21 Zn 0.87926 0.98443 0.13317 0.0
C22 C 0.7847 0.02713 0.0807 0.0
O23 O 0.80268 0.04463 0.0526 0.0
C24 C 0.95106 0.02799 0.16993 0.0
O25 O 0.97337 0.03733 0.14065 0.0
O26 O 0.81674 0.12443 0.14307 0.0
O27 O 0.84056 0.04474 0.18439 0.0
O28 O 0.82855 0.98244 0.16518 0.0
C29 C 0.79739 0.14332 0.12049 0.0
O30 O 0.7931 0.12688 0.088 0.0
O31 O 0.79627 0.03415 0.11243 0.0
C32 C 0.93752 0.93288 0.10307 0.0
O33 O 0.95379 0.96866 0.10165 0.0
O34 O 0.90241 0.92963 0.11842 0.0
O35 O 0.87414 0.00922 0.08523 0.0
O36 O 0.89192 0.06922 0.1022 0.0
O37 O 0.91803 0.00971 0.1671 0.0
C38 C 0.82403 0.01063 0.18962 0.0
C39 C 0.89585 0.03961 0.07945 0.0
Zn40 Zn 0.42528 0.84866 0.10737 0.0
Zn41 Zn 0.50837 0.87087 0.12012 0.0
C42 C 0.44825 0.78204 0.05427 0.0
O43 O 0.41288 0.78631 0.04155 0.0
C44 C 0.48757 0.94909 0.15378 0.0
O45 O 0.51341 0.96227 0.12841 0.0
O46 O 0.36733 0.83484 0.10233 0.0
O47 O 0.4349 0.83824 0.15982 0.0
O48 O 0.49593 0.81677 0.14348 0.0
C49 C 0.35567 0.79947 0.10964 0.0
O50 O 0.38164 0.77331 0.11995 0.0
O51 O 0.4593 0.80686 0.07861 0.0
C52 C 0.59032 0.88862 0.09457 0.0
O53 O 0.57716 0.87991 0.06245 0.0
O54 O 0.56712 0.88413 0.1231 0.0
O55 O 0.49586 0.88432 0.06864 0.0
O56 O 0.43557 0.90416 0.08793 0.0
O57 O 0.47991 0.9117 0.15435 0.0
C58 C 0.46426 0.81519 0.16489 0.0
C59 C 0.46684 0.90859 0.06678 0.0
Zn60 Zn 0.6304 0.5245 0.09726 0.0
Zn61 Zn 0.67318 0.44174 0.14393 0.0
C62 C 0.58606 0.49384 0.0432 0.0
O63 O 0.61026 0.51926 0.02627 0.0
C64 C 0.68981 0.44872 0.22183 0.0
O65 O 0.65267 0.43719 0.22908 0.0
O66 O 0.61013 0.57966 0.08642 0.0
O67 O 0.62854 0.52415 0.15144 0.0
O68 O 0.61624 0.45988 0.15926 0.0
C69 C 0.57271 0.58647 0.08706 0.0
O70 O 0.54736 0.55782 0.0962 0.0
O71 O 0.59224 0.48547 0.07571 0.0
C72 C 0.6867 0.35635 0.15235 0.0
O73 O 0.68569 0.36772 0.18692 0.0
O74 O 0.67904 0.38212 0.12904 0.0
O75 O 0.70672 0.47227 0.1066 0.0
O76 O 0.68485 0.52083 0.07388 0.0
O77 O 0.70344 0.45178 0.18888 0.0
C78 C 0.61042 0.49669 0.16894 0.0
C79 C 0.71279 0.49807 0.08221 0.0
Zn80 Zn 0.08054 0.83308 0.39179 0.0
Zn81 Zn 0.98979 0.86556 0.37804 0.0
C82 C 0.02964 0.7731 0.43893 0.0
O83 O 0.01796 0.79949 0.465 0.0
C84 C 0.03777 0.92876 0.33374 0.0
O85 O 0.07269 0.91412 0.34081 0.0
O86 O 0.13986 0.82183 0.39206 0.0
O87 O 0.06883 0.82978 0.33878 0.0
O88 O 0.00486 0.81425 0.34815 0.0
C89 C 0.15425 0.79769 0.41382 0.0
O90 O 0.13012 0.78082 0.43849 0.0
O91 O 0.05233 0.78383 0.41185 0.0
C92 C 0.9226 0.9074 0.40047 0.0
O93 O 0.95292 0.93113 0.40657 0.0
O94 O 0.9297 0.87285 0.38521 0.0
O95 O 0.00572 0.87312 0.42979 0.0
O96 O 0.06912 0.88674 0.41917 0.0
O97 O 0.00565 0.91272 0.34677 0.0
C98 C 0.03816 0.81063 0.32913 0.0
C99 C 0.03566 0.8947 0.43634 0.0
Zn100 Zn 0.66499 0.07569 0.42737 0.0
Zn101 Zn 0.58284 0.00572 0.38031 0.0
C102 C 0.7305 0.03906 0.46013 0.0
O103 O 0.72968 0.07316 0.47944 0.0
C104 C 0.5148 0.04241 0.34148 0.0
O105 O 0.48906 0.03896 0.3698 0.0
O106 O 0.6948 0.12812 0.42871 0.0
O107 O 0.65009 0.06133 0.3751 0.0
O108 O 0.63742 -0.00031 0.35528 0.0
C109 C 0.69145 0.15449 0.40504 0.0
O110 O 0.66645 0.14825 0.3795 0.0
O111 O 0.70376 0.0325 0.43794 0.0
C112 C 0.5262 0.94888 0.41103 0.0
O113 O 0.5041 0.98134 0.41743 0.0
O114 O 0.56099 0.95198 0.39517 0.0
O115 O 0.59477 0.04002 0.42244 0.0
O116 O 0.61634 0.07788 0.46539 0.0
O117 O 0.551 0.03155 0.34312 0.0
C118 C 0.66188 0.02888 0.35783 0.0
C119 C 0.58855 0.05627 0.45374 0.0
Zn120 Zn 0.4416 0.64835 0.39714 0.0
Zn121 Zn 0.51389 0.5961 0.36653 0.0
C122 C 0.4652 0.72078 0.43658 0.0
O123 O 0.43137 0.71586 0.45626 0.0
C124 C 0.45765 0.5296 0.34348 0.0
O125 O 0.42415 0.50963 0.34958 0.0
O126 O 0.38429 0.66542 0.411 0.0
O127 O 0.44773 0.64962 0.34087 0.0
O128 O 0.51325 0.64273 0.33364 0.0
C129 C 0.37185 0.69716 0.39708 0.0
O130 O 0.39644 0.71667 0.37458 0.0
O131 O 0.47635 0.69438 0.41209 0.0
C132 C 0.56873 0.53301 0.37316 0.0
O133 O 0.53849 0.52115 0.39482 0.0
O134 O 0.56433 0.56385 0.35445 0.0
O135 O 0.51823 0.61213 0.41916 0.0
O136 O 0.45447 0.59962 0.42761 0.0
O137 O 0.4641 0.56062 0.3635 0.0
C138 C 0.48091 0.65643 0.32287 0.0
C139 C 0.48981 0.59585 0.43778 0.0
Zn140 Zn 0.85555 0.42032 0.40394 0.0
Zn141 Zn 0.96075 0.46676 0.35816 0.0
C142 C 0.77542 0.44296 0.429 0.0
O143 O 0.78042 0.41427 0.45187 0.0
C144 C 0.03411 0.45051 0.31359 0.0
O145 O 0.05002 0.47595 0.33659 0.0
O146 O 0.83802 0.36278 0.40621 0.0
O147 O 0.88349 0.42863 0.35401 0.0
O148 O 0.91262 0.48156 0.3309 0.0
C149 C 0.83869 0.33997 0.43309 0.0
O150 O 0.85528 0.35272 0.46268 0.0
O151 O 0.80492 0.45339 0.40781 0.0
C152 C 0.96597 0.54602 0.39624 0.0
O153 O 0.92807 0.54035 0.40656 0.0
O154 O 0.98508 0.51873 0.37696 0.0
O155 O 0.93774 0.43013 0.39631 0.0
O156 O 0.89425 0.4367 0.4428 0.0
O157 O -0.00141 0.43838 0.32108 0.0
C158 C 0.88124 0.46028 0.33596 0.0
C159 C 0.93 0.44113 0.4293 0.0
Zn160 Zn 0.9901 0.38923 0.87594 0.0
Zn161 Zn 0.91001 0.34735 0.90267 0.0
C162 C 0.92521 0.44906 0.85541 0.0
O163 O 0.89517 0.42526 0.8644 0.0
C164 C 0.94804 0.2779 0.93317 0.0
O165 O 0.91481 0.27552 0.95426 0.0
O166 O 0.04783 0.40662 0.87345 0.0
O167 O 0.98009 0.3764 0.92821 0.0
O168 O 0.91974 0.40009 0.93226 0.0
C169 C 0.05397 0.44196 0.88653 0.0
O170 O 0.02318 0.46453 0.89833 0.0
O171 O 0.96094 0.43837 0.86001 0.0
C172 C 0.82983 0.31602 0.89614 0.0
O173 O 0.83504 0.33132 0.86377 0.0
O174 O 0.85664 0.32158 0.91863 0.0
O175 O 0.91424 0.34768 0.8473 0.0
O176 O 0.98033 0.34422 0.83927 0.0
O177 O 0.95214 0.30619 0.91107 0.0
C178 C 0.95453 0.40019 0.94393 0.0
C179 C 0.94586 0.33682 0.82801 0.0
Zn180 Zn 0.11369 0.00869 0.88577 0.0
Zn181 Zn 0.13772 0.92379 0.89867 0.0
C182 C 0.07829 0.00442 0.82176 0.0
O183 O 0.10389 0.03426 0.81936 0.0
C184 C 0.20348 0.94734 0.94543 0.0
O185 O 0.20098 0.91113 0.95851 0.0
O186 O 0.09672 0.06725 0.89225 0.0
O187 O 0.10405 0.99152 0.93778 0.0
O188 O 0.08177 0.93255 0.92208 0.0
C189 C 0.05993 0.06777 0.90395 0.0
O190 O 0.04057 0.03352 0.90592 0.0
O191 O 0.07491 0.98475 0.8508 0.0
C192 C 0.18617 0.85259 0.8895 0.0
O193 O 0.21207 0.87841 0.87542 0.0
O194 O 0.15183 0.86519 0.90197 0.0
O195 O 0.1474 0.93694 0.84601 0.0
O196 O 0.16824 0.99846 0.85888 0.0
O197 O 0.17871 0.95793 0.92304 0.0
C198 C 0.07856 0.96387 0.9428 0.0
C199 C 0.17041 0.96647 0.83846 0.0
Zn200 Zn 0.46425 0.12356 0.88746 0.0
Zn201 Zn 0.55418 0.15088 0.88897 0.0
C202 C 0.4909 0.04604 0.84563 0.0
O203 O 0.50063 0.02885 0.87531 0.0
C204 C 0.537 0.21773 0.9432 0.0
O205 O 0.57413 0.21442 0.95194 0.0
O206 O 0.40518 0.1137 0.89986 0.0
O207 O 0.49018 0.11302 0.93434 0.0
O208 O 0.55026 0.09575 0.91155 0.0
C209 C 0.39827 0.07999 0.91437 0.0
O210 O 0.42867 0.0565 0.91962 0.0
O211 O 0.47809 0.0821 0.84727 0.0
C212 C 0.63896 0.17101 0.90511 0.0
O213 O 0.63289 0.15313 0.93627 0.0
O214 O 0.61136 0.17107 0.88308 0.0
O215 O 0.53262 0.15889 0.83935 0.0
O216 O 0.47226 0.17665 0.86258 0.0
O217 O 0.52326 0.19207 0.92092 0.0
C218 C 0.52079 0.09052 0.93471 0.0
C219 C 0.50064 0.17951 0.83777 0.0
Zn220 Zn 0.32601 0.55899 0.86005 0.0
Zn221 Zn 0.36959 0.4765 0.88214 0.0
C222 C 0.30067 0.56022 0.78653 0.0
O223 O 0.31997 0.59458 0.7852 0.0
C224 C 0.37778 0.49689 0.95605 0.0
O225 O 0.35776 0.4632 0.96024 0.0
O226 O 0.3109 0.61734 0.869 0.0
O227 O 0.29542 0.52651 0.8992 0.0
O228 O 0.31328 0.46806 0.87369 0.0
C229 C 0.27462 0.62885 0.87361 0.0
O230 O 0.24603 0.60183 0.87364 0.0
O231 O 0.30015 0.54031 0.81529 0.0
C232 C 0.42371 0.4178 0.90644 0.0
O233 O 0.44685 0.44921 0.91097 0.0
O234 O 0.39002 0.42233 0.89334 0.0
O235 O 0.40211 0.49441 0.8395 0.0
O236 O 0.38596 0.559 0.84449 0.0
O237 O 0.37935 0.51274 0.9251 0.0
C238 C 0.28665 0.49051 0.8898 0.0
C239 C 0.409 0.53064 0.83163 0.0
Zn240 Zn 0.00795 0.13601 0.60202 0.0
Zn241 Zn 0.92097 0.15996 0.59106 0.0
C242 C -0.00111 0.06282 0.64181 0.0
O243 O 0.02367 0.04823 0.61521 0.0
C244 C 0.94152 0.22561 0.54009 0.0
O245 O 0.90647 0.22009 0.52681 0.0
O246 O 0.06738 0.12644 0.60073 0.0
O247 O 0.99172 0.11943 0.55225 0.0
O248 O 0.93149 0.10184 0.57194 0.0
C249 C 0.08925 0.12209 0.57113 0.0
O250 O 0.07382 0.1284 0.54002 0.0
O251 O 0.9853 0.09832 0.63976 0.0
C252 C 0.85028 0.20972 0.59707 0.0
O253 O 0.87669 0.23685 0.6061 0.0
O254 O 0.86201 0.17377 0.58911 0.0
O255 O 0.93459 0.17446 0.64284 0.0
O256 O -0.00406 0.19137 0.62363 0.0
O257 O 0.95363 0.20076 0.56235 0.0
C258 C 0.96331 0.09436 0.5518 0.0
C259 C 0.9658 0.19577 0.64657 0.0
Zn260 Zn 0.39535 0.00645 0.6173 0.0
Zn261 Zn 0.3318 0.93261 0.5971 0.0
C262 C 0.45631 0.94561 0.65044 0.0
O263 O 0.43559 0.9553 0.62362 0.0
C264 C 0.27897 0.97757 0.55269 0.0
O265 O 0.29163 0.95275 0.52566 0.0
O266 O 0.42564 0.05888 0.6124 0.0
O267 O 0.37135 0.99852 0.56995 0.0
O268 O 0.38257 0.93468 0.56373 0.0
C269 C 0.46275 0.05897 0.60214 0.0
O270 O 0.48221 0.02459 0.59786 0.0
O271 O 0.43523 0.95635 0.62439 0.0
C272 C 0.30453 0.85257 0.61379 0.0
O273 O 0.32342 0.85992 0.6434 0.0
O274 O 0.30507 0.87886 0.58956 0.0
O275 O 0.33564 0.94298 0.65185 0.0
O276 O 0.35233 0.00747 0.65823 0.0
O277 O 0.29255 0.97426 0.58378 0.0
C278 C 0.39037 0.96985 0.55314 0.0
C279 C 0.33486 0.97623 0.6705 0.0
Zn280 Zn 0.47277 0.3815 0.62696 0.0
Zn281 Zn 0.55968 0.35462 0.60579 0.0
C282 C 0.51088 0.46109 0.65405 0.0
O283 O 0.50797 0.47996 0.62364 0.0
C284 C 0.54126 0.27987 0.56408 0.0
O285 O 0.57805 0.28127 0.54918 0.0
O286 O 0.41324 0.3964 0.62961 0.0
O287 O 0.48928 0.38229 0.57305 0.0
O288 O 0.54864 0.40687 0.58012 0.0
C289 C 0.40758 0.42857 0.61288 0.0
O290 O 0.4389 0.44776 0.59899 0.0
O291 O 0.49898 0.42493 0.65667 0.0
C292 C 0.63108 0.30691 0.60883 0.0
O293 O 0.60494 0.28228 0.62435 0.0
O294 O 0.61894 0.34052 0.59813 0.0
O295 O 0.54551 0.35072 0.66023 0.0
O296 O 0.48327 0.33092 0.65439 0.0
O297 O 0.52792 0.30878 0.58507 0.0
C298 C 0.51675 0.40666 0.56333 0.0
C299 C 0.51533 0.32977 0.67116 0.0
Zn300 Zn 0.0527 0.50952 0.63562 0.0
Zn301 Zn 0.13879 0.58617 0.59132 0.0
C302 C 0.96915 0.51797 0.66468 0.0
O303 O 0.96053 0.49715 0.63523 0.0
C304 C 0.2161 0.55338 0.5647 0.0
O305 O 0.21658 0.58477 0.54404 0.0
O306 O 0.04552 0.45075 0.62039 0.0
O307 O 0.06681 0.54196 0.59147 0.0
O308 O 0.09899 0.57927 0.55166 0.0
C309 C 0.02853 0.44055 0.5916 0.0
O310 O 0.01558 0.46869 0.57132 0.0
O311 O 0.00506 0.52918 0.66781 0.0
C312 C 0.16671 0.66443 0.56654 0.0
O313 O 0.15425 0.65202 0.53499 0.0
O314 O 0.1615 0.64217 0.59381 0.0
O315 O 0.10856 0.57219 0.63829 0.0
O316 O 0.10078 0.51551 0.66582 0.0
O317 O 0.18501 0.54668 0.58538 0.0
C318 C 0.06817 0.55865 0.56108 0.0
C319 C 0.12189 0.54651 0.65908 0.0
H320 H 0.77968 0.45405 0.09084 0.0
H321 H 0.7393 0.56312 0.04447 0.0
H322 H 0.80786 0.58749 0.03808 0.0
H323 H 0.8773 0.58247 0.05462 0.0
H324 H 0.91843 0.4734 0.09976 0.0
H325 H 0.8514 0.44429 0.09779 0.0
C326 C 0.78597 0.48276 0.0786 0.0
C327 C 0.75433 0.50717 0.06906 0.0
C328 C 0.82539 0.49694 0.07551 0.0
C329 C 0.76303 0.5439 0.05249 0.0
C330 C 0.80221 0.55807 0.04908 0.0
C331 C 0.87148 0.55221 0.06371 0.0
C332 C 0.90196 0.53037 0.07825 0.0
C333 C 0.83324 0.53568 0.06209 0.0
C334 C 0.89492 0.49079 0.08893 0.0
C335 C 0.85673 0.47422 0.08781 0.0
H336 H 0.06187 0.80371 0.03591 0.0
H337 H 0.9686 0.72355 0.07552 0.0
H338 H 0.92496 0.7808 0.09311 0.0
H339 H 0.91594 0.8538 0.10327 0.0
H340 H 0.01025 0.93372 0.06522 0.0
H341 H 0.05045 0.87659 0.04092 0.0
C342 C 0.03169 0.79875 0.04762 0.0
C343 C 0.01867 0.75954 0.05471 0.0
C344 C 0.00705 0.83184 0.05856 0.0
C345 C 0.97948 0.75357 0.07004 0.0
C346 C 0.95452 0.78627 0.0803 0.0
C347 C 0.94517 0.85866 0.08948 0.0
C348 C 0.96027 0.89786 0.08667 0.0
C349 C 0.96847 0.82559 0.07578 0.0
C350 C -0.00194 0.90377 0.06833 0.0
C351 C 0.02114 0.87111 0.05426 0.0
H352 H 0.63718 0.92071 0.03963 0.0
H353 H 0.63053 0.90349 0.15566 0.0
H354 H 0.69114 0.94343 0.16106 0.0
H355 H 0.7435 0.98613 0.13358 0.0
H356 H 0.74931 0.00553 0.0179 0.0
H357 H 0.69136 0.96169 0.01166 0.0
C358 C 0.64925 0.92523 0.06605 0.0
C359 C 0.62931 0.9091 0.09721 0.0
C360 C 0.68368 0.9489 0.06907 0.0
C361 C 0.64522 0.91557 0.13126 0.0
C362 C 0.67982 0.93851 0.13438 0.0
C363 C 0.73228 0.98075 0.1069 0.0
C364 C 0.75063 0.99937 0.07625 0.0
C365 C 0.69886 0.95584 0.10358 0.0
C366 C 0.7357 0.99176 0.04195 0.0
C367 C 0.70257 0.96667 0.03837 0.0
H368 H 0.52488 0.76701 0.06887 0.0
H369 H 0.42009 0.71001 0.0287 0.0
H370 H 0.45054 0.64384 0.03382 0.0
H371 H 0.50343 0.60224 0.05673 0.0
H372 H 0.60877 0.65919 0.09557 0.0
H373 H 0.58138 0.72548 0.08433 0.0
C374 C 0.50902 0.74013 0.06055 0.0
C375 C 0.47011 0.7434 0.04885 0.0
C376 C 0.52642 0.70223 0.06407 0.0
C377 C 0.4501 0.70837 0.03778 0.0
C378 C 0.4673 0.67048 0.04107 0.0
C379 C 0.52046 0.6292 0.06245 0.0
C380 C 0.55769 0.62607 0.0775 0.0
C381 C 0.50482 0.66706 0.05539 0.0
C382 C 0.5799 0.66102 0.08417 0.0
C383 C 0.56427 0.69885 0.07776 0.0
H384 H 0.9022 0.96324 0.45285 0.0
H385 H 0.85166 0.88431 0.37276 0.0
H386 H 0.78573 0.91584 0.38703 0.0
H387 H 0.7447 0.97031 0.41825 0.0
H388 H 0.79672 0.04852 0.49848 0.0
H389 H 0.85995 0.01206 0.48866 0.0
C390 C 0.87665 0.95254 0.43884 0.0
C391 C 0.88173 0.92189 0.41154 0.0
C392 C 0.83926 0.97067 0.44722 0.0
C393 C 0.84838 0.90796 0.39384 0.0
C394 C 0.81081 0.92607 0.40192 0.0
C395 C 0.76964 0.97897 0.43405 0.0
C396 C 0.7661 0.01249 0.45875 0.0
C397 C 0.80617 0.9581 0.42799 0.0
C398 C 0.79865 0.02309 0.47914 0.0
C399 C 0.8349 0.00235 0.47345 0.0
H400 H 0.56446 0.87661 0.40266 0.0
H401 H 0.45278 0.93211 0.44394 0.0
H402 H 0.4261 0.8665 0.46038 0.0
H403 H 0.43249 0.79297 0.45845 0.0
H404 H 0.54226 0.73704 0.41308 0.0
H405 H 0.5719 0.80327 0.40323 0.0
C406 C 0.53434 0.87439 0.41538 0.0
C407 C 0.51064 0.90921 0.42195 0.0
C408 C 0.51887 0.83648 0.42409 0.0
C409 C 0.47167 0.90578 0.43849 0.0
C410 C 0.45637 0.86827 0.44794 0.0
C411 C 0.46319 0.79529 0.44714 0.0
C412 C 0.48523 0.76025 0.43658 0.0
C413 C 0.47947 0.83336 0.44034 0.0
C414 C 0.52476 0.76368 0.42143 0.0
C415 C 0.54161 0.80149 0.41562 0.0
H416 H 0.59269 0.48756 0.42704 0.0
H417 H 0.63546 0.54097 0.32646 0.0
H418 H 0.70371 0.51879 0.33546 0.0
H419 H 0.75135 0.48679 0.37337 0.0
H420 H 0.70789 0.43303 0.47361 0.0
H421 H 0.63974 0.45395 0.46376 0.0
C422 C 0.61681 0.49396 0.40681 0.0
C423 C 0.60904 0.51586 0.37611 0.0
C424 C 0.65592 0.48188 0.41253 0.0
C425 C 0.64074 0.52423 0.35037 0.0
C426 C 0.67975 0.51176 0.3556 0.0
C427 C 0.72702 0.47971 0.3931 0.0
C428 C 0.73477 0.45845 0.42425 0.0
C429 C 0.68777 0.49115 0.38691 0.0
C430 C 0.70281 0.44946 0.44948 0.0
C431 C 0.66379 0.46122 0.44378 0.0
H432 H 0.06095 0.70928 0.39874 0.0
H433 H 0.96581 0.74213 0.47982 0.0
H434 H 0.93875 0.67378 0.47537 0.0
H435 H 0.93974 0.60596 0.44513 0.0
H436 H 0.03606 0.57403 0.36477 0.0
H437 H 0.06508 0.64071 0.37246 0.0
C438 C 0.03438 0.70152 0.41563 0.0
C439 C 0.01514 0.73096 0.43926 0.0
C440 C 0.01909 0.66233 0.41293 0.0
C441 C 0.98113 0.72012 0.46133 0.0
C442 C 0.96558 0.68107 0.45869 0.0
C443 C 0.96721 0.61355 0.42948 0.0
C444 C 0.98537 0.58515 0.40405 0.0
C445 C 0.9839 0.65212 0.43407 0.0
C446 C 0.02132 0.59526 0.38443 0.0
C447 C 0.03792 0.63348 0.38871 0.0
H448 H 0.12337 0.3994 0.87889 0.0
H449 H 0.07626 0.51907 0.90304 0.0
H450 H 0.14391 0.54471 0.90896 0.0
H451 H 0.21703 0.53342 0.90498 0.0
H452 H 0.26295 0.41306 0.88151 0.0
H453 H 0.19534 0.38752 0.87832 0.0
C454 C 0.1279 0.4311 0.88534 0.0
C455 C 0.09494 0.45731 0.89 0.0
C456 C 0.16674 0.44558 0.88911 0.0
C457 C 0.10123 0.49824 0.89899 0.0
C458 C 0.1399 0.51296 0.90249 0.0
C459 C 0.21217 0.5016 0.89956 0.0
C460 C 0.24508 0.47539 0.89307 0.0
C461 C 0.17298 0.48694 0.89737 0.0
C462 C 0.23822 0.4341 0.88625 0.0
C463 C 0.19952 0.41935 0.88431 0.0
H464 H 0.9393 0.20418 0.96142 0.0
H465 H 0.02277 0.27691 0.89789 0.0
H466 H 0.06716 0.21883 0.88556 0.0
H467 H 0.07906 0.14557 0.88807 0.0
H468 H 0.99231 0.07327 0.94846 0.0
H469 H 0.95288 0.13279 0.96699 0.0
C470 C 0.9675 0.20754 0.94539 0.0
C471 C 0.97754 0.24467 0.93042 0.0
C472 C 0.99225 0.17387 0.93752 0.0
C473 C 0.01419 0.24848 0.90957 0.0
C474 C 0.03956 0.21527 0.90239 0.0
C475 C 0.05176 0.14307 0.90557 0.0
C476 C 0.03856 0.10507 0.91665 0.0
C477 C 0.0284 0.17751 0.91542 0.0
C478 C 0.00306 0.10214 0.93929 0.0
C479 C 0.98039 0.13619 0.94996 0.0
H480 H 0.21984 0.0207 0.91752 0.0
H481 H 0.26814 0.93042 0.98371 0.0
H482 H 0.33184 0.96617 0.98261 0.0
H483 H 0.37581 0.01861 0.95734 0.0
H484 H 0.32841 0.10791 0.88975 0.0
H485 H 0.26214 0.07698 0.89708 0.0
C486 C 0.24407 0.00908 0.93218 0.0
C487 C 0.23932 0.97256 0.95029 0.0
C488 C 0.28087 0.02936 0.93083 0.0
C489 C 0.27097 0.95826 0.96939 0.0
C490 C 0.30751 0.9786 0.96862 0.0
C491 C 0.35089 0.03158 0.94447 0.0
C492 C 0.35711 0.06517 0.92259 0.0
C493 C 0.31312 0.01345 0.94852 0.0
C494 C 0.32442 0.082 0.90661 0.0
C495 C 0.28658 0.06423 0.9107 0.0
H496 H 0.46272 0.23555 0.92411 0.0
H497 H 0.56324 0.2872 0.97622 0.0
H498 H 0.53491 0.35453 0.97202 0.0
H499 H 0.4866 0.39892 0.94557 0.0
H500 H 0.38837 0.34627 0.89068 0.0
H501 H 0.41127 0.2791 0.90349 0.0
C502 C 0.4782 0.26141 0.93515 0.0
C503 C 0.51545 0.25641 0.94975 0.0
C504 C 0.46265 0.29995 0.93132 0.0
C505 C 0.53466 0.29021 0.96453 0.0
C506 C 0.51869 0.32877 0.9618 0.0
C507 C 0.47015 0.37273 0.93657 0.0
C508 C 0.43634 0.37751 0.91657 0.0
C509 C 0.48362 0.33406 0.94382 0.0
C510 C 0.41478 0.34339 0.90575 0.0
C511 C 0.42777 0.30494 0.91313 0.0
H512 H 0.13138 0.08219 0.51505 0.0
H513 H 0.1358 0.11837 0.62862 0.0
H514 H 0.19702 0.07912 0.6319 0.0
H515 H 0.24572 0.03041 0.6041 0.0
H516 H 0.2398 0.99119 0.49139 0.0
H517 H 0.18273 0.03604 0.48614 0.0
C518 C 0.14617 0.08211 0.54033 0.0
C519 C 0.12911 0.10316 0.57156 0.0
C520 C 0.18078 0.05863 0.54227 0.0
C521 C 0.14832 0.10234 0.60423 0.0
C522 C 0.18324 0.07983 0.60616 0.0
C523 C 0.23224 0.03185 0.57824 0.0
C524 C 0.24684 0.00721 0.54825 0.0
C525 C 0.19917 0.05715 0.57559 0.0
C526 C 0.22906 0.00968 0.51495 0.0
C527 C 0.19641 0.0353 0.51193 0.0
H528 H 0.57227 0.20453 0.55354 0.0
H529 H 0.46128 0.26915 0.5788 0.0
H530 H 0.42686 0.20608 0.59218 0.0
H531 H 0.42947 0.13351 0.60123 0.0
H532 H 0.54111 0.06919 0.57841 0.0
H533 H 0.57413 0.13126 0.55978 0.0
C534 C 0.54036 0.2047 0.56114 0.0
C535 C 0.5193 0.2414 0.56505 0.0
C536 C 0.52107 0.1685 0.56999 0.0
C537 C 0.4781 0.24122 0.57552 0.0
C538 C 0.45848 0.20523 0.58344 0.0
C539 C 0.46105 0.13305 0.5923 0.0
C540 C 0.48287 0.09684 0.59172 0.0
C541 C 0.4799 0.16886 0.58169 0.0
C542 C 0.52369 0.09674 0.57965 0.0
C543 C 0.54258 0.1322 0.56876 0.0
H544 H 0.23055 0.49584 0.61365 0.0
H545 H 0.28482 0.55671 0.5209 0.0
H546 H 0.34785 0.52196 0.52714 0.0
H547 H 0.38852 0.47745 0.56033 0.0
H548 H 0.33621 0.4156 0.65302 0.0
H549 H 0.2712 0.44749 0.6453 0.0
C550 C 0.25602 0.5011 0.59453 0.0
C551 C 0.25291 0.52901 0.56686 0.0
C552 C 0.29251 0.48109 0.5984 0.0
C553 C 0.28632 0.53559 0.54248 0.0
C554 C 0.32245 0.51575 0.54604 0.0
C555 C 0.3629 0.47075 0.57886 0.0
C556 C 0.36722 0.44451 0.60744 0.0
C557 C 0.32602 0.48899 0.57417 0.0
C558 C 0.3336 0.4357 0.63081 0.0
C559 C 0.29653 0.45402 0.62643 0.0
H560 H 0.98368 0.41001 0.53819 0.0
H561 H 0.05634 0.37455 0.62402 0.0
H562 H 0.04012 0.30405 0.61162 0.0
H563 H 0.00144 0.25347 0.58006 0.0
H564 H 0.92417 0.28868 0.49768 0.0
H565 H 0.94713 0.35827 0.50431 0.0
C566 C -0.00371 0.38684 0.55398 0.0
C567 C 0.02099 0.39762 0.58222 0.0
C568 C 0.98621 0.34634 0.54716 0.0
C569 C 0.03706 0.36717 0.60233 0.0
C570 C 0.02787 0.32682 0.5952 0.0
C571 C 0.98994 0.27609 0.56308 0.0
C572 C 0.96087 0.26573 0.53853 0.0
C573 C 0.00193 0.31617 0.56815 0.0
C574 C 0.94652 0.29571 0.5168 0.0
C575 C 0.95942 0.33559 0.52078 0.0
H576 H 0.08308 0.69995 0.18835 0.0
H577 H 0.95518 0.68201 0.19592 0.0
H578 H 0.94847 0.72511 0.25131 0.0
H579 H 0.97864 0.76966 0.29667 0.0
H580 H 0.10636 0.78941 0.28756 0.0
H581 H 0.11325 0.74413 0.23379 0.0
C582 C 0.05377 0.70514 0.20231 0.0
C583 C 0.01971 0.68764 0.18801 0.0
C584 C 0.05 0.73064 0.23378 0.0
C585 C 0.98191 0.69511 0.20627 0.0
C586 C 0.97802 0.71983 0.23794 0.0
C587 C 0.008 0.76405 0.28298 0.0
C588 C 0.04187 0.78312 0.29624 0.0
C589 C 0.01181 0.7381 0.25177 0.0
C590 C 0.07967 0.77541 0.27799 0.0
C591 C 0.08371 0.74937 0.24722 0.0
H592 H 0.68815 0.96951 0.30922 0.0
H593 H 0.71914 0.08757 0.3511 0.0
H594 H 0.7744 0.09099 0.3042 0.0
H595 H 0.80961 0.06313 0.2478 0.0
H596 H 0.77681 0.94579 0.20531 0.0
H597 H 0.72665 0.93945 0.25612 0.0
C598 C 0.7072 0.99587 0.30843 0.0
C599 C 0.69894 0.0286 0.33324 0.0
C600 C 0.73842 0.99791 0.28106 0.0
C601 C 0.72438 0.06221 0.33202 0.0
C602 C 0.75597 0.06421 0.30515 0.0
C603 C 0.79176 0.03599 0.24982 0.0
C604 C 0.79673 0.00517 0.22253 0.0
C605 C 0.76255 0.0327 0.27892 0.0
C606 C 0.77357 0.97007 0.22579 0.0
C607 C 0.74477 0.96642 0.25483 0.0
H608 H 0.52082 0.76225 0.18508 0.0
H609 H 0.39941 0.80253 0.21254 0.0
H610 H 0.39292 0.75585 0.26218 0.0
H611 H 0.42211 0.70455 0.29921 0.0
H612 H 0.54414 0.66576 0.2728 0.0
H613 H 0.54961 0.7102 0.22148 0.0
C614 C 0.49292 0.76084 0.20188 0.0
C615 C 0.46078 0.78623 0.195 0.0
C616 C 0.48934 0.7339 0.23069 0.0
C617 C 0.42482 0.78367 0.21714 0.0
C618 C 0.42099 0.75684 0.2456 0.0
C619 C 0.4498 0.70555 0.28208 0.0
C620 C 0.48259 0.6816 0.29004 0.0
C621 C 0.45309 0.73191 0.2528 0.0
C622 C 0.51831 0.68367 0.26749 0.0
C623 C 0.52157 0.70926 0.23808 0.0
H624 H 0.75385 0.49767 0.22429 0.0
H625 H 0.68829 0.40703 0.2843 0.0
H626 H 0.74113 0.40421 0.32681 0.0
H627 H 0.80942 0.42176 0.34192 0.0
H628 H 0.87274 0.51609 0.28453 0.0
H629 H 0.81733 0.52294 0.24564 0.0
C630 C 0.75095 0.47774 0.24702 0.0
C631 C 0.71775 0.45209 0.25091 0.0
C632 C 0.78118 0.47655 0.2714 0.0
C633 C 0.71376 0.42691 0.28074 0.0
C634 C 0.74407 0.42508 0.30484 0.0
C635 C 0.81074 0.44456 0.32158 0.0
C636 C 0.84532 0.46825 0.31612 0.0
C637 C 0.77845 0.44892 0.29974 0.0
C638 C 0.84657 0.49737 0.28932 0.0
C639 C 0.81492 0.50129 0.26699 0.0
H640 H 0.90485 0.22186 0.69508 0.0
H641 H 0.03167 0.23558 0.66833 0.0
H642 H 0.03643 0.28143 0.72109 0.0
H643 H 0.00529 0.31572 0.77625 0.0
H644 H 0.87823 0.30339 0.80236 0.0
H645 H 0.87296 0.25933 0.74846 0.0
C646 C 0.93352 0.2349 0.70078 0.0
C647 C 0.96789 0.22485 0.67795 0.0
C648 C 0.93608 0.26159 0.73111 0.0
C649 C 0.00471 0.24252 0.6855 0.0
C650 C 0.00752 0.2688 0.71572 0.0
C651 C 0.97639 0.30359 0.77008 0.0
C652 C 0.9423 0.31274 0.79358 0.0
C653 C 0.97349 0.27825 0.73892 0.0
C654 C 0.90504 0.29695 0.78488 0.0
C655 C 0.90197 0.27157 0.75406 0.0
H656 H 0.28057 0.92216 0.69652 0.0
H657 H 0.33243 0.03751 0.72283 0.0
H658 H 0.28633 0.04484 0.77744 0.0
H659 H 0.22932 0.01937 0.81649 0.0
H660 H 0.1776 0.90437 0.78821 0.0
H661 H 0.22551 0.8963 0.73561 0.0
C662 C 0.28221 0.94877 0.71434 0.0
C663 C 0.30994 0.97923 0.70549 0.0
C664 C 0.25527 0.95309 0.74523 0.0
C665 C 0.3113 0.01361 0.72889 0.0
C666 C 0.28486 0.01788 0.76009 0.0
C667 C 0.2285 0.99262 0.79876 0.0
C668 C 0.19968 0.96266 0.80631 0.0
C669 C 0.2563 0.98804 0.76827 0.0
C670 C 0.19929 0.92802 0.78314 0.0
C671 C 0.22676 0.92327 0.753 0.0
H672 H 0.56026 0.21397 0.7952 0.0
H673 H 0.43166 0.20777 0.81223 0.0
H674 H 0.42455 0.25301 0.76214 0.0
H675 H 0.45496 0.29445 0.71305 0.0
H676 H 0.58366 0.30383 0.69911 0.0
H677 H 0.59052 0.25755 0.74815 0.0
C678 C 0.53067 0.22238 0.78785 0.0
C679 C 0.49656 0.20714 0.8073 0.0
C680 C 0.52678 0.24917 0.75949 0.0
C681 C 0.45845 0.21896 0.79775 0.0
C682 C 0.45435 0.24484 0.76904 0.0
C683 C 0.4845 0.28638 0.72076 0.0
C684 C 0.51871 0.30257 0.70212 0.0
C685 C 0.4883 0.26017 0.74966 0.0
C686 C 0.55674 0.29199 0.71284 0.0
C687 C 0.56074 0.26538 0.74092 0.0
H688 H 0.16291 0.49246 0.69584 0.0
H689 H 0.16949 0.61284 0.656 0.0
H690 H 0.23027 0.62535 0.68705 0.0
H691 H 0.2756 0.60557 0.73266 0.0
H692 H 0.26595 0.48697 0.77631 0.0
H693 H 0.21274 0.47018 0.73649 0.0
C694 C 0.17797 0.52122 0.69354 0.0
C695 C 0.16158 0.55172 0.6737 0.0
C696 C 0.21221 0.52868 0.71253 0.0
C697 C 0.18161 0.58872 0.67078 0.0
C698 C 0.21625 0.59604 0.68882 0.0
C699 C 0.26242 0.57578 0.73292 0.0
C700 C 0.27423 0.54782 0.75777 0.0
C701 C 0.231 0.56673 0.71079 0.0
C702 C 0.25697 0.50926 0.75773 0.0
C703 C 0.22647 0.49964 0.73504 0.0
H704 H 0.16952 0.77526 0.10298 0.0
H705 H 0.20723 0.65138 0.08617 0.0
H706 H 0.27714 0.67147 0.08936 0.0
H707 H 0.32732 0.72407 0.09863 0.0
H708 H 0.28997 0.84831 0.11222 0.0
H709 H 0.22006 0.82829 0.10852 0.0
C710 C 0.19307 0.75269 0.09996 0.0
C711 C 0.18326 0.71188 0.09465 0.0
C712 C 0.23318 0.76452 0.10134 0.0
C713 C 0.21406 0.683 0.09025 0.0
C714 C 0.25401 0.69444 0.0922 0.0
C715 C 0.30384 0.74673 0.10081 0.0
C716 C 0.31365 0.78754 0.10606 0.0
C717 C 0.26387 0.73507 0.09804 0.0
C718 C 0.28309 0.81668 0.10822 0.0
C719 C 0.24314 0.80526 0.10618 0.0
H720 H 0.75794 0.19419 0.07844 0.0
H721 H 0.79256 0.18011 0.18812 0.0
H722 H 0.75924 0.2432 0.2077 0.0
H723 H 0.72145 0.30276 0.19389 0.0
H724 H 0.68843 0.31928 0.08417 0.0
H725 H 0.71958 0.25459 0.06453 0.0
C726 C 0.75822 0.20494 0.10661 0.0
C727 C 0.77787 0.18236 0.13171 0.0
C728 C 0.73909 0.24155 0.11776 0.0
C729 C 0.77791 0.19684 0.16812 0.0
C730 C 0.75872 0.23291 0.17943 0.0
C731 C 0.72065 0.29215 0.16571 0.0
C732 C 0.70244 0.31583 0.14059 0.0
C733 C 0.73929 0.25549 0.15451 0.0
C734 C 0.70213 0.30164 0.10412 0.0
C735 C 0.72007 0.26471 0.09285 0.0
H736 H 0.33597 0.76038 0.36797 0.0
H737 H 0.31509 0.66847 0.4469 0.0
H738 H 0.24665 0.69321 0.46078 0.0
H739 H 0.19192 0.73906 0.44842 0.0
H740 H 0.21289 0.82985 0.3684 0.0
H741 H 0.28223 0.80745 0.35718 0.0
C742 C 0.31654 0.74575 0.38829 0.0
C743 C 0.33061 0.71244 0.40618 0.0
C744 C 0.2772 0.75989 0.3959 0.0
C745 C 0.30497 0.69399 0.43251 0.0
C746 C 0.26583 0.70814 0.4405 0.0
C747 C 0.21173 0.7542 0.42877 0.0
C748 C 0.1971 0.78602 0.40921 0.0
C749 C 0.25151 0.74082 0.42208 0.0
C750 C 0.22323 0.8052 0.38376 0.0
C751 C 0.26292 0.79237 0.37727 0.0
H752 H 0.78941 0.31417 0.382 0.0
H753 H 0.83588 0.28064 0.48313 0.0
H754 H 0.79428 0.22011 0.48341 0.0
H755 H 0.74375 0.17757 0.45531 0.0
H756 H 0.6966 0.21299 0.35499 0.0
H757 H 0.73946 0.2722 0.3542 0.0
C758 C 0.7908 0.29352 0.40401 0.0
C759 C 0.81588 0.30187 0.43244 0.0
C760 C 0.76647 0.25928 0.40427 0.0
C761 C 0.81692 0.27489 0.46087 0.0
C762 C 0.79307 0.24034 0.46108 0.0
C763 C 0.74282 0.19825 0.43328 0.0
C764 C 0.71691 0.19084 0.40526 0.0
C765 C 0.76752 0.2324 0.43303 0.0
C766 C 0.7161 0.21798 0.37696 0.0
C767 C 0.7407 0.25181 0.37641 0.0
H768 H 0.69433 0.1957 0.95243 0.0
H769 H 0.66413 0.20369 0.84076 0.0
H770 H 0.71955 0.24982 0.82874 0.0
H771 H 0.77563 0.28893 0.8498 0.0
H772 H 0.80695 0.28162 0.96111 0.0
H773 H 0.75183 0.23458 0.97344 0.0
C774 C 0.70014 0.2072 0.92538 0.0
C775 C 0.67504 0.1961 0.89755 0.0
C776 C 0.73197 0.23425 0.91866 0.0
C777 C 0.68286 0.21165 0.86273 0.0
C778 C 0.71452 0.23818 0.85581 0.0
C779 C 0.77037 0.27729 0.87686 0.0
C780 C 0.79531 0.28907 0.90453 0.0
C781 C 0.73899 0.24998 0.88362 0.0
C782 C 0.78813 0.27326 0.93932 0.0
C783 C 0.75669 0.24622 0.94636 0.0
H784 H 0.20196 0.6634 0.89248 0.0
H785 H 0.32533 0.69206 0.86212 0.0
H786 H 0.30891 0.76367 0.86487 0.0
H787 H 0.25934 0.81811 0.87431 0.0
H788 H 0.1362 0.78983 0.9059 0.0
H789 H 0.1528 0.71819 0.90437 0.0
C790 C 0.22528 0.68531 0.88655 0.0
C791 C 0.26477 0.67232 0.87695 0.0
C792 C 0.21569 0.72654 0.88834 0.0
C793 C 0.29468 0.70117 0.86961 0.0
C794 C 0.28532 0.74217 0.8711 0.0
C795 C 0.23612 0.7963 0.88092 0.0
C796 C 0.19655 0.80933 0.88998 0.0
C797 C 0.24589 0.75518 0.88017 0.0
C798 C 0.16691 0.78065 0.8988 0.0
C799 C 0.17635 0.73964 0.89787 0.0
H800 H 0.81909 0.28473 0.5928 0.0
H801 H 0.78532 0.15998 0.60085 0.0
H802 H 0.71454 0.17908 0.6047 0.0
H803 H 0.6623 0.23146 0.60821 0.0
H804 H 0.69592 0.35594 0.59746 0.0
H805 H 0.76672 0.3367 0.5921 0.0
C806 C 0.79623 0.26171 0.59534 0.0
C807 C 0.80746 0.22102 0.59697 0.0
C808 C 0.75559 0.27288 0.59714 0.0
C809 C 0.7775 0.1915 0.59962 0.0
C810 C 0.73701 0.20242 0.60193 0.0
C811 C 0.68512 0.25439 0.60467 0.0
C812 C 0.67387 0.29514 0.60366 0.0
C813 C 0.72572 0.24305 0.60115 0.0
C814 C 0.70378 0.3244 0.59842 0.0
C815 C 0.74427 0.31342 0.59543 0.0
H816 H 0.26436 0.82665 0.55536 0.0
H817 H 0.29129 0.79464 0.66367 0.0
H818 H 0.25028 0.73445 0.6588 0.0
H819 H 0.20657 0.69112 0.6243 0.0
H820 H 0.18019 0.7217 0.51555 0.0
H821 H 0.22115 0.78228 0.52015 0.0
C822 C 0.26134 0.80646 0.57787 0.0
C823 C 0.28088 0.81524 0.60986 0.0
C824 C 0.23766 0.77176 0.57491 0.0
C825 C 0.27669 0.78866 0.6387 0.0
C826 C 0.25313 0.75424 0.63601 0.0
C827 C 0.20951 0.71113 0.60164 0.0
C828 C 0.1901 0.70201 0.56971 0.0
C829 C 0.23336 0.74561 0.60435 0.0
C830 C 0.19467 0.72809 0.5405 0.0
C831 C 0.21814 0.76272 0.5431 0.0
H832 H 0.93083 0.47909 0.94726 0.0
H833 H 0.015 0.39687 0.98821 0.0
H834 H 0.05035 0.45291 0.01595 0.0
H835 H 0.05785 0.52545 0.02838 0.0
H836 H 0.97342 0.60795 0.98805 0.0
H837 H 0.93864 0.55203 0.95947 0.0
C838 C 0.9563 0.4735 0.963 0.0
C839 C 0.96997 0.43391 0.96609 0.0
C840 C 0.97725 0.50604 0.97814 0.0
C841 C 0.00371 0.42714 0.98577 0.0
C842 C 0.02424 0.45917 0.00128 0.0
C843 C 0.03244 0.53126 0.01263 0.0
C844 C 0.01837 0.57084 0.01032 0.0
C845 C 0.01168 0.49882 0.99721 0.0
C846 C 0.98494 0.57772 0.99022 0.0
C847 C 0.9647 0.54573 0.97419 0.0
H848 H 0.06252 0.02982 0.98781 0.0
H849 H 0.01253 0.91624 0.95292 0.0
H850 H 0.95017 0.9323 0.98907 0.0
H851 H 0.91006 0.97813 0.03007 0.0
H852 H 0.96039 0.09018 0.06818 0.0
H853 H 0.02202 0.07591 0.02969 0.0
C854 C 0.03811 0.0084 0.98829 0.0
C855 C 0.04226 0.97182 0.96757 0.0
C856 C 0.00219 0.01794 0.00898 0.0
C857 C 0.01025 0.94453 0.96854 0.0
C858 C 0.97444 0.95385 0.98896 0.0
C859 C 0.93432 -0.00025 0.02984 0.0
C860 C 0.93065 0.03512 0.05224 0.0
C861 C 0.97005 0.99054 0.00901 0.0
C862 C 0.96237 0.06276 0.05128 0.0
C863 C -0.00223 0.05436 0.02962 0.0
H864 H 0.46013 0.07115 0.98396 0.0
H865 H 0.57738 0.03128 0.94072 0.0
H866 H 0.57114 0.9714 0.97762 0.0
H867 H 0.53115 0.92929 0.02075 0.0
H868 H 0.41248 0.96867 0.06067 0.0
H869 H 0.42012 0.02913 0.02544 0.0
C870 C 0.48443 0.04941 0.98238 0.0
C871 C 0.51912 0.05578 0.95926 0.0
C872 C 0.48009 0.01456 0.0027 0.0
C873 C 0.55034 0.02731 0.95819 0.0
C874 C 0.54666 0.9929 0.97914 0.0
C875 C 0.50689 0.95101 0.02168 0.0
C876 C 0.47122 0.94421 0.04346 0.0
C877 C 0.51144 0.98596 0.0012 0.0
C878 C 0.4402 0.97285 0.0442 0.0
C879 C 0.4446 0.00763 0.02416 0.0
H880 H 0.54254 0.54789 0.01097 0.0
H881 H 0.53901 0.4268 0.04907 0.0
H882 H 0.47054 0.41891 0.02997 0.0
H883 H 0.41369 0.44577 -0.00047 0.0
H884 H 0.41783 0.56757 0.96259 0.0
H885 H 0.48371 0.57673 0.9861 0.0
C886 C 0.52686 0.51965 0.01485 0.0
C887 C 0.54587 0.48753 0.03044 0.0
C888 C 0.48742 0.51599 0.00503 0.0
C889 C 0.52496 0.45159 0.03649 0.0
C890 C 0.48584 0.44728 0.0259 0.0
C891 C 0.42844 0.47472 0.99758 0.0
C892 C 0.41099 0.50597 0.97923 0.0
C893 C 0.46687 0.47928 0.01001 0.0
C894 C 0.43071 0.54313 0.9766 0.0
C895 C 0.46854 0.54819 0.98959 0.0
H896 H 0.03136 0.06783 0.51327 0.0
H897 H 0.91109 0.03103 0.54658 0.0
H898 H 0.924 0.96491 0.51651 0.0
H899 H 0.96888 0.91827 0.47912 0.0
H900 H 0.08897 0.9559 0.44582 0.0
H901 H 0.07683 0.02073 0.4782 0.0
C902 C 0.00778 0.04554 0.51388 0.0
C903 C 0.97011 0.05474 0.53201 0.0
C904 C 0.01547 0.00758 0.49664 0.0
C905 C 0.94021 0.02507 0.53263 0.0
C906 C 0.94764 0.98716 0.51549 0.0
C907 C 0.99252 0.94054 0.47904 0.0
C908 C 0.02975 0.93215 0.45967 0.0
C909 C 0.9851 0.97815 0.49722 0.0
C910 C 0.06006 0.96136 0.46035 0.0
C911 C 0.05304 0.99862 0.47867 0.0
H912 H 0.41521 0.04173 0.52824 0.0
H913 H 0.45338 0.91828 0.53497 0.0
H914 H 0.51956 0.93531 0.50747 0.0
H915 H 0.56608 0.98514 0.48024 0.0
H916 H 0.52859 0.10866 0.47533 0.0
H917 H 0.46253 0.09201 0.50404 0.0
C918 C 0.43793 0.01845 0.52353 0.0
C919 C 0.42934 0.97878 0.53363 0.0
C920 C 0.47601 0.0286 0.50836 0.0
C921 C 0.45913 0.94901 0.52738 0.0
C922 C 0.49708 0.95881 0.51196 0.0
C923 C 0.54349 0.00838 0.4861 0.0
C924 C 0.55165 0.04794 0.47592 0.0
C925 C 0.50581 0.99847 0.50239 0.0
C926 C 0.52261 0.07805 0.48323 0.0
C927 C 0.48487 0.06842 0.49921 0.0
H928 H 0.56163 0.4729 0.54386 0.0
H929 H 0.45161 0.41117 0.52341 0.0
H930 H 0.43227 0.46516 0.48544 0.0
H931 H 0.44577 0.5304 0.45807 0.0
H932 H 0.557 0.59102 0.4752 0.0
H933 H 0.5764 0.5374 0.51423 0.0
C934 C 0.53365 0.47105 0.53077 0.0
C935 C 0.50812 0.43793 0.53687 0.0
C936 C 0.52257 0.50237 0.50857 0.0
C937 C 0.47196 0.43619 0.51948 0.0
C938 C 0.46067 0.46724 0.49779 0.0
C939 C 0.47399 0.5322 0.47077 0.0
C940 C 0.49956 0.56508 0.46415 0.0
C941 C 0.48549 0.50068 0.4924 0.0
C942 C 0.53652 0.56629 0.48013 0.0
C943 C 0.54776 0.5355 0.50232 0.0
H944 H 0.07935 0.52431 0.49402 0.0
H945 H 0.98829 0.56898 0.57404 0.0
H946 H 0.93607 0.53793 0.53908 0.0
H947 H 0.91741 0.49165 0.48929 0.0
H948 H 0.00988 0.44257 0.41237 0.0
H949 H 0.06048 0.48109 0.44272 0.0
C950 C 0.04795 0.52817 0.50304 0.0
C951 C 0.03729 0.54905 0.53602 0.0
C952 C 0.0185 0.50848 0.4839 0.0
C953 C -0.00323 0.5533 0.54828 0.0
C954 C 0.96708 0.53518 0.52858 0.0
C955 C 0.94863 0.48947 0.47925 0.0
C956 C 0.95989 0.46441 0.44866 0.0
C957 C 0.97773 0.51147 0.49704 0.0
C958 C 0.00046 0.46178 0.43587 0.0
C959 C 0.02943 0.4839 0.45308 0.0
H960 H 0.08875 0.5 0.27988 0.0
H961 H 0.01099 0.39953 0.25924 0.0
H962 H 0.00788 0.41865 0.19628 0.0
H963 H 0.00952 0.4755 0.15542 0.0
H964 H 0.08419 0.57773 0.17684 0.0
H965 H 0.10673 0.54635 0.23094 0.0
C966 C 0.07258 0.48122 0.26122 0.0
C967 C 0.04849 0.44961 0.27461 0.0
C968 C 0.06948 0.49347 0.22543 0.0
C969 C 0.02872 0.42485 0.24983 0.0
C970 C 0.0266 0.43599 0.21387 0.0
C971 C 0.03222 0.48984 0.17104 0.0
C972 C 0.04488 0.52883 0.16289 0.0
C973 C 0.04404 0.4721 0.2025 0.0
C974 C 0.07423 0.54755 0.18289 0.0
C975 C 0.08672 0.52979 0.21401 0.0
H976 H 0.97624 0.97971 0.32711 0.0
H977 H 0.09162 0.94426 0.2763 0.0
H978 H 0.07793 0.98069 0.22189 0.0
H979 H 0.02756 0.01077 0.18486 0.0
H980 H 0.91092 0.04201 0.2355 0.0
H981 H 0.93093 0.02005 0.29405 0.0
C982 C -0.00121 0.98076 0.30444 0.0
C983 C 0.03451 0.9587 0.30536 0.0
C984 C 0.99029 0.00086 0.27307 0.0
C985 C 0.06377 0.96084 0.27614 0.0
C986 C 0.05581 0.98143 0.24491 0.0
C987 C 0.00718 0.01424 0.20906 0.0
C988 C 0.96776 0.02769 0.20593 0.0
C989 C 0.0184 -5e-05 0.24243 0.0
C990 C 0.94138 0.0316 0.23734 0.0
C991 C 0.95269 0.01873 0.27074 0.0
H992 H 0.45066 0.00618 0.31468 0.0
H993 H 0.55001 0.08375 0.28581 0.0
H994 H 0.54335 0.06806 0.22112 0.0
H995 H 0.52066 0.0197 0.17531 0.0
H996 H 0.42701 0.93567 0.20547 0.0
H997 H 0.4194 0.96677 0.26673 0.0
C998 C 0.46958 0.02101 0.29409 0.0
C999 C 0.5009 0.04583 0.30473 0.0
C1000 C 0.46725 0.00973 0.25715 0.0
C1001 C 0.52571 0.0645 0.27801 0.0
C1002 C 0.52219 0.05516 0.24109 0.0
C1003 C 0.49771 0.00902 0.19492 0.0
C1004 C 0.47513 0.97485 0.18621 0.0
C1005 C 0.49483 0.0258 0.23059 0.0
C1006 C 0.44531 0.96152 0.2118 0.0
C1007 C 0.44102 0.9792 0.24689 0.0
H1008 H 0.50377 0.57631 0.29988 0.0
H1009 H 0.47441 0.45261 0.31903 0.0
H1010 H 0.51984 0.43076 0.26673 0.0
H1011 H 0.56679 0.44758 0.21469 0.0
H1012 H 0.59471 0.57248 0.19649 0.0
H1013 H 0.55136 0.59311 0.24963 0.0
C1014 C 0.50808 0.54464 0.29313 0.0
C1015 C 0.48659 0.51616 0.31353 0.0
C1016 C 0.5338 0.53254 0.26308 0.0
C1017 C 0.49103 0.47508 0.30368 0.0
C1018 C 0.51692 0.46262 0.27385 0.0
C1019 C 0.56346 0.47927 0.22244 0.0
C1020 C 0.58402 0.50833 0.20156 0.0
C1021 C 0.53827 0.49117 0.25316 0.0
C1022 C 0.5793 0.54934 0.21197 0.0
C1023 C 0.55451 0.5613 0.24242 0.0
H1024 H 0.97879 0.55596 0.73005 0.0
H1025 H 0.8986 0.47676 0.6751 0.0
H1026 H 0.86861 0.45591 0.73376 0.0
H1027 H 0.87837 0.44677 0.79858 0.0
H1028 H 0.96423 0.52033 0.85199 0.0
H1029 H 0.97802 0.55752 0.79652 0.0
C1030 C 0.95392 0.53505 0.73087 0.0
C1031 C 0.94196 0.51687 0.69825 0.0
C1032 C 0.93815 0.52175 0.76465 0.0
C1033 C 0.90899 0.49065 0.69978 0.0
C1034 C 0.89198 0.47845 0.7334 0.0
C1035 C 0.89865 0.4722 0.79851 0.0
C1036 C 0.92066 0.48062 0.829 0.0
C1037 C 0.90821 0.49175 0.76583 0.0
C1038 C 0.94717 0.51332 0.82864 0.0
C1039 C 0.95535 0.53426 0.79681 0.0
H1040 H 0.03893 0.9965 0.66141 0.0
H1041 H 0.95358 0.08722 0.70347 0.0
H1042 H 0.96454 0.06952 0.76565 0.0
H1043 H 0.00946 0.03941 0.80726 0.0
H1044 H 0.09782 0.95226 0.76528 0.0
H1045 H 0.07425 0.95667 0.70406 0.0
C1046 C 0.02182 0.01159 0.68411 0.0
C1047 C -0.00367 0.04391 0.67776 0.0
C1048 C 0.02918 0.00209 0.71993 0.0
C1049 C 0.97398 0.06273 0.70753 0.0
C1050 C 0.98034 0.05275 0.74319 0.0
C1051 C 0.02211 0.02005 0.78492 0.0
C1052 C 0.05482 0.99521 0.79047 0.0
C1053 C 0.00947 0.02409 0.74967 0.0
C1054 C 0.07201 0.97096 0.76147 0.0
C1055 C 0.0589 0.97395 0.72644 0.0
H1056 H 0.49336 0.92506 0.70858 0.0
H1057 H 0.42511 0.02185 0.66891 0.0
H1058 H 0.43145 0.06106 0.72491 0.0
H1059 H 0.45601 0.06799 0.78542 0.0
H1060 H 0.52278 0.97112 0.82764 0.0
H1061 H 0.51779 0.93188 0.7704 0.0
C1062 C 0.47986 0.95475 0.71234 0.0
C1063 C 0.45862 0.9704 0.68442 0.0
C1064 C 0.48363 0.97716 0.74507 0.0
C1065 C 0.44133 0.00885 0.68959 0.0
C1066 C 0.44511 0.03143 0.72181 0.0
C1067 C 0.46977 0.03839 0.78217 0.0
C1068 C 0.48992 0.02258 0.81074 0.0
C1069 C 0.46621 0.01589 0.74967 0.0
C1070 C 0.50716 0.98401 0.80605 0.0
C1071 C 0.50425 0.96156 0.77337 0.0
H1072 H 0.4788 0.49101 0.81693 0.0
H1073 H 0.40668 0.58603 0.77888 0.0
H1074 H 0.4428 0.5801 0.71877 0.0
H1075 H 0.48071 0.5349 0.6741 0.0
H1076 H 0.54817 0.43628 0.71205 0.0
H1077 H 0.52948 0.45742 0.77518 0.0
C1078 C 0.4721 0.51142 0.79582 0.0
C1079 C 0.43955 0.53808 0.80181 0.0
C1080 C 0.49198 0.50679 0.7611 0.0
C1081 C 0.43143 0.56496 0.7747 0.0
C1082 C 0.45184 0.56129 0.74019 0.0
C1083 C 0.49292 0.51935 0.69624 0.0
C1084 C 0.51508 0.48371 0.68868 0.0
C1085 C 0.48019 0.53041 0.73247 0.0
C1086 C 0.53071 0.46362 0.71745 0.0
C1087 C 0.51964 0.47542 0.75351 0.0
loop_
_geom_bond_atom_site_label_1
_geom_bond_atom_site_label_2
_geom_bond_distance
_geom_bond_site_symmetry_2
_ccdc_geom_bond_type
Zn0 O6 1.969 . S
Zn0 O7 1.965 . S
Zn0 O11 2.024 . S
Zn0 O16 1.969 . S
Zn1 O8 1.969 . S
Zn1 O14 1.969 1_455 S
Zn1 O15 1.965 . S
Zn1 O17 2.024 . S
C2 O3 1.229 . S
C2 O11 1.058 . S
O3 C2 1.229 . S
C4 O5 1.229 . S
C4 O17 1.058 . S
O5 C4 1.229 . S
O6 Zn0 1.969 . S
O6 C9 1.267 . S
O7 Zn0 1.965 . S
O7 C18 1.260 . S
O8 Zn1 1.969 . S
O8 C18 1.258 . S
C9 O6 1.267 . S
C9 O10 1.228 . S
O10 C9 1.228 . S
O11 Zn0 2.024 . S
O11 C2 1.058 . S
C12 O13 1.228 . S
C12 O14 1.267 . S
O13 C12 1.228 . S
O14 Zn1 1.969 1_655 S
O14 C12 1.267 . S
O15 Zn1 1.965 . S
O15 C19 1.260 . S
O16 Zn0 1.969 . S
O16 C19 1.258 . S
O17 Zn1 2.024 . S
O17 C4 1.058 . S
C18 O7 1.260 . S
C18 O8 1.258 . S
C19 O15 1.260 . S
C19 O16 1.258 . S
Zn20 O26 1.969 . S
Zn20 O27 1.965 . S
Zn20 O31 2.024 . S
Zn20 O36 1.969 . S
Zn21 O28 1.969 . S
Zn21 O34 1.969 1_545 S
Zn21 O35 1.965 . S
Zn21 O37 2.024 . S
C22 O23 1.229 . S
C22 O31 1.058 . S
O23 C22 1.229 . S
C24 O25 1.229 . S
C24 O37 1.058 . S
O25 C24 1.229 . S
O26 Zn20 1.969 . S
O26 C29 1.267 . S
O27 Zn20 1.965 . S
O27 C38 1.260 . S
O28 Zn21 1.969 . S
O28 C38 1.258 . S
C29 O26 1.267 . S
C29 O30 1.228 . S
O30 C29 1.228 . S
O31 Zn20 2.024 . S
O31 C22 1.058 . S
C32 O33 1.228 . S
C32 O34 1.267 . S
O33 C32 1.228 . S
O34 Zn21 1.969 1_565 S
O34 C32 1.267 . S
O35 Zn21 1.965 . S
O35 C39 1.260 . S
O36 Zn20 1.969 . S
O36 C39 1.258 . S
O37 Zn21 2.024 . S
O37 C24 1.058 . S
C38 O27 1.260 . S
C38 O28 1.258 . S
C39 O35 1.260 . S
C39 O36 1.258 . S
Zn40 O46 1.969 . S
Zn40 O47 1.965 . S
Zn40 O51 2.024 . S
Zn40 O56 1.969 . S
Zn41 O48 1.969 . S
Zn41 O54 1.969 . S
Zn41 O55 1.965 . S
Zn41 O57 2.024 . S
C42 O43 1.229 . S
C42 O51 1.058 . S
O43 C42 1.229 . S
C44 O45 1.229 . S
C44 O57 1.058 . S
O45 C44 1.229 . S
O46 Zn40 1.969 . S
O46 C49 1.267 . S
O47 Zn40 1.965 . S
O47 C58 1.260 . S
O48 Zn41 1.969 . S
O48 C58 1.258 . S
C49 O46 1.267 . S
C49 O50 1.228 . S
O50 C49 1.228 . S
O51 Zn40 2.024 . S
O51 C42 1.058 . S
C52 O53 1.228 . S
C52 O54 1.267 . S
O53 C52 1.228 . S
O54 Zn41 1.969 . S
O54 C52 1.267 . S
O55 Zn41 1.965 . S
O55 C59 1.260 . S
O56 Zn40 1.969 . S
O56 C59 1.258 . S
O57 Zn41 2.024 . S
O57 C44 1.058 . S
C58 O47 1.260 . S
C58 O48 1.258 . S
C59 O55 1.260 . S
C59 O56 1.258 . S
Zn60 O66 1.969 . S
Zn60 O67 1.965 . S
Zn60 O71 2.024 . S
Zn60 O76 1.969 . S
Zn61 O68 1.969 . S
Zn61 O74 1.969 . S
Zn61 O75 1.965 . S
Zn61 O77 2.024 . S
C62 O63 1.229 . S
C62 O71 1.058 . S
O63 C62 1.229 . S
C64 O65 1.229 . S
C64 O77 1.058 . S
O65 C64 1.229 . S
O66 Zn60 1.969 . S
O66 C69 1.267 . S
O67 Zn60 1.965 . S
O67 C78 1.260 . S
O68 Zn61 1.969 . S
O68 C78 1.258 . S
C69 O66 1.267 . S
C69 O70 1.228 . S
O70 C69 1.228 . S
O71 Zn60 2.024 . S
O71 C62 1.058 . S
C72 O73 1.228 . S
C72 O74 1.267 . S
O73 C72 1.228 . S
O74 Zn61 1.969 . S
O74 C72 1.267 . S
O75 Zn61 1.965 . S
O75 C79 1.260 . S
O76 Zn60 1.969 . S
O76 C79 1.258 . S
O77 Zn61 2.024 . S
O77 C64 1.058 . S
C78 O67 1.260 . S
C78 O68 1.258 . S
C79 O75 1.260 . S
C79 O76 1.258 . S
Zn80 O86 1.969 . S
Zn80 O87 1.965 . S
Zn80 O91 2.024 . S
Zn80 O96 1.969 . S
Zn81 O88 1.969 . S
Zn81 O94 1.969 1_455 S
Zn81 O95 1.965 . S
Zn81 O97 2.024 . S
C82 O83 1.229 . S
C82 O91 1.058 . S
O83 C82 1.229 . S
C84 O85 1.229 . S
C84 O97 1.058 . S
O85 C84 1.229 . S
O86 Zn80 1.969 . S
O86 C89 1.267 . S
O87 Zn80 1.965 . S
O87 C98 1.260 . S
O88 Zn81 1.969 . S
O88 C98 1.258 . S
C89 O86 1.267 . S
C89 O90 1.228 . S
O90 C89 1.228 . S
O91 Zn80 2.024 . S
O91 C82 1.058 . S
C92 O93 1.228 . S
C92 O94 1.267 . S
O93 C92 1.228 . S
O94 Zn81 1.969 1_655 S
O94 C92 1.267 . S
O95 Zn81 1.965 . S
O95 C99 1.260 . S
O96 Zn80 1.969 . S
O96 C99 1.258 . S
O97 Zn81 2.024 . S
O97 C84 1.058 . S
C98 O87 1.260 . S
C98 O88 1.258 . S
C99 O95 1.260 . S
C99 O96 1.258 . S
Zn100 O106 1.969 . S
Zn100 O107 1.965 . S
Zn100 O111 2.024 . S
Zn100 O116 1.969 . S
Zn101 O108 1.969 . S
Zn101 O114 1.969 1_545 S
Zn101 O115 1.965 . S
Zn101 O117 2.024 . S
C102 O103 1.229 . S
C102 O111 1.058 . S
O103 C102 1.229 . S
C104 O105 1.229 . S
C104 O117 1.058 . S
O105 C104 1.229 . S
O106 Zn100 1.969 . S
O106 C109 1.267 . S
O107 Zn100 1.965 . S
O107 C118 1.260 . S
O108 Zn101 1.969 . S
O108 C118 1.258 . S
C109 O106 1.267 . S
C109 O110 1.228 . S
O110 C109 1.228 . S
O111 Zn100 2.024 . S
O111 C102 1.058 . S
C112 O113 1.228 . S
C112 O114 1.267 . S
O113 C112 1.228 . S
O114 Zn101 1.969 1_565 S
O114 C112 1.267 . S
O115 Zn101 1.965 . S
O115 C119 1.260 . S
O116 Zn100 1.969 . S
O116 C119 1.258 . S
O117 Zn101 2.024 . S
O117 C104 1.058 . S
C118 O107 1.260 . S
C118 O108 1.258 . S
C119 O115 1.260 . S
C119 O116 1.258 . S
Zn120 O126 1.969 . S
Zn120 O127 1.965 . S
Zn120 O131 2.024 . S
Zn120 O136 1.969 . S
Zn121 O128 1.969 . S
Zn121 O134 1.969 . S
Zn121 O135 1.965 . S
Zn121 O137 2.024 . S
C122 O123 1.229 . S
C122 O131 1.058 . S
O123 C122 1.229 . S
C124 O125 1.229 . S
C124 O137 1.058 . S
O125 C124 1.229 . S
O126 Zn120 1.969 . S
O126 C129 1.267 . S
O127 Zn120 1.965 . S
O127 C138 1.260 . S
O128 Zn121 1.969 . S
O128 C138 1.258 . S
C129 O126 1.267 . S
C129 O130 1.228 . S
O130 C129 1.228 . S
O131 Zn120 2.024 . S
O131 C122 1.058 . S
C132 O133 1.228 . S
C132 O134 1.267 . S
O133 C132 1.228 . S
O134 Zn121 1.969 . S
O134 C132 1.267 . S
O135 Zn121 1.965 . S
O135 C139 1.260 . S
O136 Zn120 1.969 . S
O136 C139 1.258 . S
O137 Zn121 2.024 . S
O137 C124 1.058 . S
C138 O127 1.260 . S
C138 O128 1.258 . S
C139 O135 1.260 . S
C139 O136 1.258 . S
Zn140 O146 1.969 . S
Zn140 O147 1.965 . S
Zn140 O151 2.024 . S
Zn140 O156 1.969 . S
Zn141 O148 1.969 . S
Zn141 O154 1.969 . S
Zn141 O155 1.965 . S
Zn141 O157 2.024 . S
C142 O143 1.229 . S
C142 O151 1.058 . S
O143 C142 1.229 . S
C144 O145 1.229 1_455 S
C144 O157 1.058 1_455 S
O145 C144 1.229 1_655 S
O146 Zn140 1.969 . S
O146 C149 1.267 . S
O147 Zn140 1.965 . S
O147 C158 1.260 . S
O148 Zn141 1.969 . S
O148 C158 1.258 . S
C149 O146 1.267 . S
C149 O150 1.228 . S
O150 C149 1.228 . S
O151 Zn140 2.024 . S
O151 C142 1.058 . S
C152 O153 1.228 . S
C152 O154 1.267 . S
O153 C152 1.228 . S
O154 Zn141 1.969 . S
O154 C152 1.267 . S
O155 Zn141 1.965 . S
O155 C159 1.260 . S
O156 Zn140 1.969 . S
O156 C159 1.258 . S
O157 Zn141 2.024 . S
O157 C144 1.058 1_655 S
C158 O147 1.260 . S
C158 O148 1.258 . S
C159 O155 1.260 . S
C159 O156 1.258 . S
Zn160 O166 1.969 1_655 S
Zn160 O167 1.965 . S
Zn160 O171 2.024 . S
Zn160 O176 1.969 . S
Zn161 O168 1.969 . S
Zn161 O174 1.969 . S
Zn161 O175 1.965 . S
Zn161 O177 2.024 . S
C162 O163 1.229 . S
C162 O171 1.058 . S
O163 C162 1.229 . S
C164 O165 1.229 . S
C164 O177 1.058 . S
O165 C164 1.229 . S
O166 Zn160 1.969 1_455 S
O166 C169 1.267 . S
O167 Zn160 1.965 . S
O167 C178 1.260 . S
O168 Zn161 1.969 . S
O168 C178 1.258 . S
C169 O166 1.267 . S
C169 O170 1.228 . S
O170 C169 1.228 . S
O171 Zn160 2.024 . S
O171 C162 1.058 . S
C172 O173 1.228 . S
C172 O174 1.267 . S
O173 C172 1.228 . S
O174 Zn161 1.969 . S
O174 C172 1.267 . S
O175 Zn161 1.965 . S
O175 C179 1.260 . S
O176 Zn160 1.969 . S
O176 C179 1.258 . S
O177 Zn161 2.024 . S
O177 C164 1.058 . S
C178 O167 1.260 . S
C178 O168 1.258 . S
C179 O175 1.260 . S
C179 O176 1.258 . S
Zn180 O186 1.969 1_565 S
Zn180 O187 1.965 . S
Zn180 O191 2.024 . S
Zn180 O196 1.969 . S
Zn181 O188 1.969 . S
Zn181 O194 1.969 . S
Zn181 O195 1.965 . S
Zn181 O197 2.024 . S
C182 O183 1.229 . S
C182 O191 1.058 . S
O183 C182 1.229 . S
C184 O185 1.229 . S
C184 O197 1.058 . S
O185 C184 1.229 . S
O186 Zn180 1.969 1_545 S
O186 C189 1.267 . S
O187 Zn180 1.965 . S
O187 C198 1.260 . S
O188 Zn181 1.969 . S
O188 C198 1.258 . S
C189 O186 1.267 . S
C189 O190 1.228 . S
O190 C189 1.228 . S
O191 Zn180 2.024 . S
O191 C182 1.058 . S
C192 O193 1.228 . S
C192 O194 1.267 . S
O193 C192 1.228 . S
O194 Zn181 1.969 . S
O194 C192 1.267 . S
O195 Zn181 1.965 . S
O195 C199 1.260 . S
O196 Zn180 1.969 . S
O196 C199 1.258 . S
O197 Zn181 2.024 . S
O197 C184 1.058 . S
C198 O187 1.260 . S
C198 O188 1.258 . S
C199 O195 1.260 . S
C199 O196 1.258 . S
Zn200 O206 1.969 . S
Zn200 O207 1.965 . S
Zn200 O211 2.024 . S
Zn200 O216 1.969 . S
Zn201 O208 1.969 . S
Zn201 O214 1.969 . S
Zn201 O215 1.965 . S
Zn201 O217 2.024 . S
C202 O203 1.229 . S
C202 O211 1.058 . S
O203 C202 1.229 . S
C204 O205 1.229 . S
C204 O217 1.058 . S
O205 C204 1.229 . S
O206 Zn200 1.969 . S
O206 C209 1.267 . S
O207 Zn200 1.965 . S
O207 C218 1.260 . S
O208 Zn201 1.969 . S
O208 C218 1.258 . S
C209 O206 1.267 . S
C209 O210 1.228 . S
O210 C209 1.228 . S
O211 Zn200 2.024 . S
O211 C202 1.058 . S
C212 O213 1.228 . S
C212 O214 1.267 . S
O213 C212 1.228 . S
O214 Zn201 1.969 . S
O214 C212 1.267 . S
O215 Zn201 1.965 . S
O215 C219 1.260 . S
O216 Zn200 1.969 . S
O216 C219 1.258 . S
O217 Zn201 2.024 . S
O217 C204 1.058 . S
C218 O207 1.260 . S
C218 O208 1.258 . S
C219 O215 1.260 . S
C219 O216 1.258 . S
Zn220 O226 1.969 . S
Zn220 O227 1.965 . S
Zn220 O231 2.024 . S
Zn220 O236 1.969 . S
Zn221 O228 1.969 . S
Zn221 O234 1.969 . S
Zn221 O235 1.965 . S
Zn221 O237 2.024 . S
C222 O223 1.229 . S
C222 O231 1.058 . S
O223 C222 1.229 . S
C224 O225 1.229 . S
C224 O237 1.058 . S
O225 C224 1.229 . S
O226 Zn220 1.969 . S
O226 C229 1.267 . S
O227 Zn220 1.965 . S
O227 C238 1.260 . S
O228 Zn221 1.969 . S
O228 C238 1.258 . S
C229 O226 1.267 . S
C229 O230 1.228 . S
O230 C229 1.228 . S
O231 Zn220 2.024 . S
O231 C222 1.058 . S
C232 O233 1.228 . S
C232 O234 1.267 . S
O233 C232 1.228 . S
O234 Zn221 1.969 . S
O234 C232 1.267 . S
O235 Zn221 1.965 . S
O235 C239 1.260 . S
O236 Zn220 1.969 . S
O236 C239 1.258 . S
O237 Zn221 2.024 . S
O237 C224 1.058 . S
C238 O227 1.260 . S
C238 O228 1.258 . S
C239 O235 1.260 . S
C239 O236 1.258 . S
Zn240 O246 1.969 1_655 S
Zn240 O247 1.965 . S
Zn240 O251 2.024 . S
Zn240 O256 1.969 . S
Zn241 O248 1.969 . S
Zn241 O254 1.969 . S
Zn241 O255 1.965 . S
Zn241 O257 2.024 . S
C242 O243 1.229 . S
C242 O251 1.058 . S
O243 C242 1.229 . S
C244 O245 1.229 . S
C244 O257 1.058 . S
O245 C244 1.229 . S
O246 Zn240 1.969 1_455 S
O246 C249 1.267 . S
O247 Zn240 1.965 . S
O247 C258 1.260 . S
O248 Zn241 1.969 . S
O248 C258 1.258 . S
C249 O246 1.267 . S
C249 O250 1.228 . S
O250 C249 1.228 . S
O251 Zn240 2.024 . S
O251 C242 1.058 . S
C252 O253 1.228 . S
C252 O254 1.267 . S
O253 C252 1.228 . S
O254 Zn241 1.969 . S
O254 C252 1.267 . S
O255 Zn241 1.965 . S
O255 C259 1.260 . S
O256 Zn240 1.969 . S
O256 C259 1.258 . S
O257 Zn241 2.024 . S
O257 C244 1.058 . S
C258 O247 1.260 . S
C258 O248 1.258 . S
C259 O255 1.260 . S
C259 O256 1.258 . S
Zn260 O266 1.969 1_565 S
Zn260 O267 1.965 . S
Zn260 O271 2.024 . S
Zn260 O276 1.969 . S
Zn261 O268 1.969 . S
Zn261 O274 1.969 . S
Zn261 O275 1.965 . S
Zn261 O277 2.024 . S
C262 O263 1.229 . S
C262 O271 1.058 . S
O263 C262 1.229 . S
C264 O265 1.229 . S
C264 O277 1.058 . S
O265 C264 1.229 . S
O266 Zn260 1.969 1_545 S
O266 C269 1.267 . S
O267 Zn260 1.965 . S
O267 C278 1.260 . S
O268 Zn261 1.969 . S
O268 C278 1.258 . S
C269 O266 1.267 . S
C269 O270 1.228 . S
O270 C269 1.228 . S
O271 Zn260 2.024 . S
O271 C262 1.058 . S
C272 O273 1.228 . S
C272 O274 1.267 . S
O273 C272 1.228 . S
O274 Zn261 1.969 . S
O274 C272 1.267 . S
O275 Zn261 1.965 . S
O275 C279 1.260 . S
O276 Zn260 1.969 . S
O276 C279 1.258 . S
O277 Zn261 2.024 . S
O277 C264 1.058 . S
C278 O267 1.260 . S
C278 O268 1.258 . S
C279 O275 1.260 . S
C279 O276 1.258 . S
Zn280 O286 1.969 . S
Zn280 O287 1.965 . S
Zn280 O291 2.024 . S
Zn280 O296 1.969 . S
Zn281 O288 1.969 . S
Zn281 O294 1.969 . S
Zn281 O295 1.965 . S
Zn281 O297 2.024 . S
C282 O283 1.229 . S
C282 O291 1.058 . S
O283 C282 1.229 . S
C284 O285 1.229 . S
C284 O297 1.058 . S
O285 C284 1.229 . S
O286 Zn280 1.969 . S
O286 C289 1.267 . S
O287 Zn280 1.965 . S
O287 C298 1.260 . S
O288 Zn281 1.969 . S
O288 C298 1.258 . S
C289 O286 1.267 . S
C289 O290 1.228 . S
O290 C289 1.228 . S
O291 Zn280 2.024 . S
O291 C282 1.058 . S
C292 O293 1.228 . S
C292 O294 1.267 . S
O293 C292 1.228 . S
O294 Zn281 1.969 . S
O294 C292 1.267 . S
O295 Zn281 1.965 . S
O295 C299 1.260 . S
O296 Zn280 1.969 . S
O296 C299 1.258 . S
O297 Zn281 2.024 . S
O297 C284 1.058 . S
C298 O287 1.260 . S
C298 O288 1.258 . S
C299 O295 1.260 . S
C299 O296 1.258 . S
Zn300 O306 1.969 . S
Zn300 O307 1.965 . S
Zn300 O311 2.024 . S
Zn300 O316 1.969 . S
Zn301 O308 1.969 . S
Zn301 O314 1.969 . S
Zn301 O315 1.965 . S
Zn301 O317 2.024 . S
C302 O303 1.229 1_655 S
C302 O311 1.058 1_655 S
O303 C302 1.229 1_455 S
C304 O305 1.229 . S
C304 O317 1.058 . S
O305 C304 1.229 . S
O306 Zn300 1.969 . S
O306 C309 1.267 . S
O307 Zn300 1.965 . S
O307 C318 1.260 . S
O308 Zn301 1.969 . S
O308 C318 1.258 . S
C309 O306 1.267 . S
C309 O310 1.228 . S
O310 C309 1.228 . S
O311 Zn300 2.024 . S
O311 C302 1.058 1_455 S
C312 O313 1.228 . S
C312 O314 1.267 . S
O313 C312 1.228 . S
O314 Zn301 1.969 . S
O314 C312 1.267 . S
O315 Zn301 1.965 . S
O315 C319 1.260 . S
O316 Zn300 1.969 . S
O316 C319 1.258 . S
O317 Zn301 2.024 . S
O317 C304 1.058 . S
C318 O307 1.260 . S
C318 O308 1.258 . S
C319 O315 1.260 . S
C319 O316 1.258 . S
H320 C326 0.930 . S
H321 C329 0.930 . S
H322 C330 0.930 . S
H323 C331 0.930 . S
H324 C334 0.930 . S
H325 C335 0.930 . S
C326 H320 0.930 . S
C326 C327 1.355 . S
C326 C328 1.415 . S
C327 C326 1.355 . S
C327 C329 1.419 . S
C328 C326 1.415 . S
C328 C333 1.425 . S
C328 C335 1.409 . S
C329 H321 0.930 . S
C329 C327 1.419 . S
C329 C330 1.362 . S
C330 H322 0.930 . S
C330 C329 1.362 . S
C330 C333 1.409 . S
C331 H323 0.930 . S
C331 C332 1.355 . S
C331 C333 1.415 . S
C332 C331 1.355 . S
C332 C334 1.419 . S
C333 C328 1.425 . S
C333 C330 1.409 . S
C333 C331 1.415 . S
C334 H324 0.930 . S
C334 C332 1.419 . S
C334 C335 1.362 . S
C335 H325 0.930 . S
C335 C328 1.409 . S
C335 C334 1.362 . S
H336 C342 0.930 . S
H337 C345 0.930 . S
H338 C346 0.926 1_655 S
H339 C347 0.930 . S
H340 C350 0.930 . S
H341 C351 0.930 1_455 S
C342 H336 0.930 . S
C342 C343 1.355 . S
C342 C344 1.415 . S
C343 C342 1.355 . S
C343 C345 1.419 . S
C344 C342 1.415 . S
C344 C349 1.425 1_455 S
C344 C351 1.409 1_455 S
C345 H337 0.930 . S
C345 C343 1.419 . S
C345 C346 1.362 . S
C346 H338 0.926 1_455 S
C346 C345 1.362 . S
C346 C349 1.409 1_455 S
C347 H339 0.930 . S
C347 C348 1.355 . S
C347 C349 1.415 . S
C348 C347 1.355 . S
C348 C350 1.419 . S
C349 C344 1.425 1_655 S
C349 C346 1.409 1_655 S
C349 C347 1.415 . S
C350 H340 0.930 . S
C350 C348 1.419 . S
C350 C351 1.362 . S
C351 H341 0.930 1_655 S
C351 C344 1.409 1_655 S
C351 C350 1.362 . S
H352 C358 0.930 . S
H353 C361 0.930 . S
H354 C362 0.930 . S
H355 C363 0.930 1_565 S
H356 C366 0.930 . S
H357 C367 0.930 . S
C358 H352 0.930 . S
C358 C359 1.355 . S
C358 C360 1.415 . S
C359 C358 1.355 . S
C359 C361 1.419 . S
C360 C358 1.415 . S
C360 C365 1.425 . S
C360 C367 1.409 1_565 S
C361 H353 0.930 . S
C361 C359 1.419 . S
C361 C362 1.362 . S
C362 H354 0.930 . S
C362 C361 1.362 . S
C362 C365 1.409 . S
C363 H355 0.930 1_545 S
C363 C364 1.355 . S
C363 C365 1.415 1_545 S
C364 C363 1.355 . S
C364 C366 1.419 . S
C365 C360 1.425 . S
C365 C362 1.409 . S
C365 C363 1.415 1_565 S
C366 H356 0.930 . S
C366 C364 1.419 . S
C366 C367 1.362 . S
C367 H357 0.930 . S
C367 C360 1.409 1_545 S
C367 C366 1.362 . S
H368 C374 0.930 . S
H369 C377 0.930 . S
H370 C378 0.930 . S
H371 C379 0.930 . S
H372 C382 0.930 . S
H373 C383 0.930 . S
C374 H368 0.930 . S
C374 C375 1.355 . S
C374 C376 1.415 . S
C375 C374 1.355 . S
C375 C377 1.419 . S
C376 C374 1.415 . S
C376 C381 1.425 . S
C376 C383 1.409 . S
C377 H369 0.930 . S
C377 C375 1.419 . S
C377 C378 1.362 . S
C378 H370 0.930 . S
C378 C377 1.362 . S
C378 C381 1.409 . S
C379 H371 0.930 . S
C379 C380 1.355 . S
C379 C381 1.415 . S
C380 C379 1.355 . S
C380 C382 1.419 . S
C381 C376 1.425 . S
C381 C378 1.409 . S
C381 C379 1.415 . S
C382 H372 0.930 . S
C382 C380 1.419 . S
C382 C383 1.362 . S
C383 H373 0.930 . S
C383 C376 1.409 . S
C383 C382 1.362 . S
H384 C390 0.930 . S
H385 C393 0.930 . S
H386 C394 0.930 . S
H387 C395 0.930 . S
H388 C398 0.930 . S
H389 C399 0.930 . S
C390 H384 0.930 . S
C390 C391 1.355 . S
C390 C392 1.415 . S
C391 C390 1.355 . S
C391 C393 1.419 . S
C392 C390 1.415 . S
C392 C397 1.425 . S
C392 C399 1.409 1_565 S
C393 H385 0.930 . S
C393 C391 1.419 . S
C393 C394 1.362 . S
C394 H386 0.930 . S
C394 C393 1.362 . S
C394 C397 1.409 . S
C395 H387 0.930 . S
C395 C396 1.355 . S
C395 C397 1.415 1_545 S
C396 C395 1.355 . S
C396 C398 1.419 . S
C397 C392 1.425 . S
C397 C394 1.409 . S
C397 C395 1.415 1_565 S
C398 H388 0.930 . S
C398 C396 1.419 . S
C398 C399 1.362 . S
C399 H389 0.930 . S
C399 C392 1.409 1_545 S
C399 C398 1.362 . S
H400 C406 0.930 . S
H401 C409 0.930 . S
H402 C410 0.930 . S
H403 C411 0.930 . S
H404 C414 0.930 . S
H405 C415 0.930 . S
C406 H400 0.930 . S
C406 C407 1.355 . S
C406 C408 1.415 . S
C407 C406 1.355 . S
C407 C409 1.419 . S
C408 C406 1.415 . S
C408 C413 1.425 . S
C408 C415 1.409 . S
C409 H401 0.930 . S
C409 C407 1.419 . S
C409 C410 1.362 . S
C410 H402 0.930 . S
C410 C409 1.362 . S
C410 C413 1.409 . S
C411 H403 0.930 . S
C411 C412 1.355 . S
C411 C413 1.415 . S
C412 C411 1.355 . S
C412 C414 1.419 . S
C413 C408 1.425 . S
C413 C410 1.409 . S
C413 C411 1.415 . S
C414 H404 0.930 . S
C414 C412 1.419 . S
C414 C415 1.362 . S
C415 H405 0.930 . S
C415 C408 1.409 . S
C415 C414 1.362 . S
H416 C422 0.930 . S
H417 C425 0.930 . S
H418 C426 0.930 . S
H419 C427 0.930 . S
H420 C430 0.930 . S
H421 C431 0.930 . S
C422 H416 0.930 . S
C422 C423 1.355 . S
C422 C424 1.415 . S
C423 C422 1.355 . S
C423 C425 1.419 . S
C424 C422 1.415 . S
C424 C429 1.425 . S
C424 C431 1.409 . S
C425 H417 0.930 . S
C425 C423 1.419 . S
C425 C426 1.362 . S
C426 H418 0.930 . S
C426 C425 1.362 . S
C426 C429 1.409 . S
C427 H419 0.930 . S
C427 C428 1.355 . S
C427 C429 1.415 . S
C428 C427 1.355 . S
C428 C430 1.419 . S
C429 C424 1.425 . S
C429 C426 1.409 . S
C429 C427 1.415 . S
C430 H420 0.930 . S
C430 C428 1.419 . S
C430 C431 1.362 . S
C431 H421 0.930 . S
C431 C424 1.409 . S
C431 C430 1.362 . S
H432 C438 0.930 . S
H433 C441 0.930 . S
H434 C442 0.930 . S
H435 C443 0.930 . S
H436 C446 0.930 . S
H437 C447 0.930 . S
C438 H432 0.930 . S
C438 C439 1.355 . S
C438 C440 1.415 . S
C439 C438 1.355 . S
C439 C441 1.419 . S
C440 C438 1.415 . S
C440 C445 1.425 . S
C440 C447 1.409 . S
C441 H433 0.930 . S
C441 C439 1.419 . S
C441 C442 1.362 . S
C442 H434 0.930 . S
C442 C441 1.362 . S
C442 C445 1.409 . S
C443 H435 0.930 . S
C443 C444 1.355 . S
C443 C445 1.415 1_655 S
C444 C443 1.355 . S
C444 C446 1.419 . S
C445 C440 1.425 . S
C445 C442 1.409 . S
C445 C443 1.415 1_455 S
C446 H436 0.930 . S
C446 C444 1.419 . S
C446 C447 1.362 1_655 S
C447 H437 0.930 . S
C447 C440 1.409 . S
C447 C446 1.362 1_455 S
H448 C454 0.930 . S
H449 C457 0.930 . S
H450 C458 0.930 . S
H451 C459 0.930 . S
H452 C462 0.930 . S
H453 C463 0.930 . S
C454 H448 0.930 . S
C454 C455 1.355 . S
C454 C456 1.415 . S
C455 C454 1.355 . S
C455 C457 1.419 . S
C456 C454 1.415 . S
C456 C461 1.425 . S
C456 C463 1.409 . S
C457 H449 0.930 . S
C457 C455 1.419 . S
C457 C458 1.362 . S
C458 H450 0.930 . S
C458 C457 1.362 . S
C458 C461 1.409 . S
C459 H451 0.930 . S
C459 C460 1.355 . S
C459 C461 1.415 . S
C460 C459 1.355 . S
C460 C462 1.419 . S
C461 C456 1.425 . S
C461 C458 1.409 . S
C461 C459 1.415 . S
C462 H452 0.930 . S
C462 C460 1.419 . S
C462 C463 1.362 . S
C463 H453 0.930 . S
C463 C456 1.409 . S
C463 C462 1.362 . S
H464 C470 0.930 . S
H465 C473 0.930 . S
H466 C474 0.930 . S
H467 C475 0.930 . S
H468 C478 0.930 . S
H469 C479 0.930 . S
C470 H464 0.930 . S
C470 C471 1.355 . S
C470 C472 1.415 . S
C471 C470 1.355 . S
C471 C473 1.419 1_655 S
C472 C470 1.415 . S
C472 C477 1.425 1_655 S
C472 C479 1.409 . S
C473 H465 0.930 . S
C473 C471 1.419 1_455 S
C473 C474 1.362 . S
C474 H466 0.930 . S
C474 C473 1.362 . S
C474 C477 1.409 . S
C475 H467 0.930 . S
C475 C476 1.355 . S
C475 C477 1.415 . S
C476 C475 1.355 . S
C476 C478 1.419 1_455 S
C477 C472 1.425 1_455 S
C477 C474 1.409 . S
C477 C475 1.415 . S
C478 H468 0.930 . S
C478 C476 1.419 1_655 S
C478 C479 1.362 . S
C479 H469 0.930 . S
C479 C472 1.409 . S
C479 C478 1.362 . S
H480 C486 0.930 . S
H481 C489 0.930 . S
H482 C490 0.930 . S
H483 C491 0.930 . S
H484 C494 0.930 . S
H485 C495 0.930 . S
C486 H480 0.930 . S
C486 C487 1.355 1_545 S
C486 C488 1.415 . S
C487 C486 1.355 1_565 S
C487 C489 1.419 . S
C488 C486 1.415 . S
C488 C493 1.425 1_545 S
C488 C495 1.409 . S
C489 H481 0.930 . S
C489 C487 1.419 . S
C489 C490 1.362 . S
C490 H482 0.930 . S
C490 C489 1.362 . S
C490 C493 1.409 . S
C491 H483 0.930 . S
C491 C492 1.355 . S
C491 C493 1.415 1_545 S
C492 C491 1.355 . S
C492 C494 1.419 . S
C493 C488 1.425 1_565 S
C493 C490 1.409 . S
C493 C491 1.415 1_565 S
C494 H484 0.930 . S
C494 C492 1.419 . S
C494 C495 1.362 . S
C495 H485 0.930 . S
C495 C488 1.409 . S
C495 C494 1.362 . S
H496 C502 0.930 . S
H497 C505 0.930 . S
H498 C506 0.930 . S
H499 C507 0.930 . S
H500 C510 0.930 . S
H501 C511 0.930 . S
C502 H496 0.930 . S
C502 C503 1.355 . S
C502 C504 1.415 . S
C503 C502 1.355 . S
C503 C505 1.419 . S
C504 C502 1.415 . S
C504 C509 1.425 . S
C504 C511 1.409 . S
C505 H497 0.930 . S
C505 C503 1.419 . S
C505 C506 1.362 . S
C506 H498 0.930 . S
C506 C505 1.362 . S
C506 C509 1.409 . S
C507 H499 0.930 . S
C507 C508 1.355 . S
C507 C509 1.415 . S
C508 C507 1.355 . S
C508 C510 1.419 . S
C509 C504 1.425 . S
C509 C506 1.409 . S
C509 C507 1.415 . S
C510 H500 0.930 . S
C510 C508 1.419 . S
C510 C511 1.362 . S
C511 H501 0.930 . S
C511 C504 1.409 . S
C511 C510 1.362 . S
H512 C518 0.930 1_565 S
H513 C521 0.930 . S
H514 C522 0.930 . S
H515 C523 0.929 . S
H516 C526 0.930 . S
H517 C527 0.930 . S
C518 H512 0.930 1_545 S
C518 C519 1.355 . S
C518 C520 1.415 1_545 S
C519 C518 1.355 . S
C519 C521 1.419 . S
C520 C518 1.415 1_565 S
C520 C525 1.425 1_565 S
C520 C527 1.409 . S
C521 H513 0.930 . S
C521 C519 1.419 . S
C521 C522 1.362 . S
C522 H514 0.930 . S
C522 C521 1.362 . S
C522 C525 1.409 . S
C523 H515 0.929 . S
C523 C524 1.355 1_545 S
C523 C525 1.414 . S
C524 C523 1.355 1_565 S
C524 C526 1.419 . S
C525 C520 1.425 1_545 S
C525 C522 1.409 . S
C525 C523 1.414 . S
C526 H516 0.930 . S
C526 C524 1.419 . S
C526 C527 1.362 . S
C527 H517 0.930 . S
C527 C520 1.409 . S
C527 C526 1.362 . S
H528 C534 0.930 . S
H529 C537 0.930 . S
H530 C538 0.930 . S
H531 C539 0.930 . S
H532 C542 0.930 . S
H533 C543 0.930 . S
C534 H528 0.930 . S
C534 C535 1.355 . S
C534 C536 1.415 . S
C535 C534 1.355 . S
C535 C537 1.419 . S
C536 C534 1.415 . S
C536 C541 1.425 . S
C536 C543 1.409 . S
C537 H529 0.930 . S
C537 C535 1.419 . S
C537 C538 1.362 . S
C538 H530 0.930 . S
C538 C537 1.362 . S
C538 C541 1.409 . S
C539 H531 0.930 . S
C539 C540 1.355 . S
C539 C541 1.415 . S
C540 C539 1.355 . S
C540 C542 1.419 . S
C541 C536 1.425 . S
C541 C538 1.409 . S
C541 C539 1.415 . S
C542 H532 0.930 . S
C542 C540 1.419 . S
C542 C543 1.362 . S
C543 H533 0.930 . S
C543 C536 1.409 . S
C543 C542 1.362 . S
H544 C550 0.930 . S
H545 C553 0.930 . S
H546 C554 0.930 . S
H547 C555 0.930 . S
H548 C558 0.930 . S
H549 C559 0.930 . S
C550 H544 0.930 . S
C550 C551 1.355 . S
C550 C552 1.415 . S
C551 C550 1.355 . S
C551 C553 1.419 . S
C552 C550 1.415 . S
C552 C557 1.425 . S
C552 C559 1.409 . S
C553 H545 0.930 . S
C553 C551 1.419 . S
C553 C554 1.362 . S
C554 H546 0.930 . S
C554 C553 1.362 . S
C554 C557 1.409 . S
C555 H547 0.930 . S
C555 C556 1.355 . S
C555 C557 1.415 . S
C556 C555 1.355 . S
C556 C558 1.419 . S
C557 C552 1.425 . S
C557 C554 1.409 . S
C557 C555 1.415 . S
C558 H548 0.930 . S
C558 C556 1.419 . S
C558 C559 1.362 . S
C559 H549 0.930 . S
C559 C552 1.409 . S
C559 C558 1.362 . S
H560 C566 0.930 . S
H561 C569 0.930 . S
H562 C570 0.930 . S
H563 C571 0.930 . S
H564 C574 0.930 . S
H565 C575 0.930 . S
C566 H560 0.930 . S
C566 C567 1.355 . S
C566 C568 1.415 . S
C567 C566 1.355 . S
C567 C569 1.419 1_455 S
C568 C566 1.415 . S
C568 C573 1.425 1_455 S
C568 C575 1.409 . S
C569 H561 0.930 . S
C569 C567 1.419 1_655 S
C569 C570 1.362 . S
C570 H562 0.930 . S
C570 C569 1.362 . S
C570 C573 1.409 . S
C571 H563 0.930 . S
C571 C572 1.355 . S
C571 C573 1.415 . S
C572 C571 1.355 . S
C572 C574 1.419 . S
C573 C568 1.425 1_655 S
C573 C570 1.409 . S
C573 C571 1.415 . S
C574 H564 0.930 . S
C574 C572 1.419 . S
C574 C575 1.362 1_655 S
C575 H565 0.930 . S
C575 C568 1.409 . S
C575 C574 1.362 1_455 S
H576 C582 0.930 . S
H577 C585 0.930 1_655 S
H578 C586 0.930 1_655 S
H579 C587 0.930 . S
H580 C590 0.930 . S
H581 C591 0.930 . S
C582 H576 0.930 . S
C582 C583 1.355 . S
C582 C584 1.415 . S
C583 C582 1.355 . S
C583 C585 1.419 . S
C584 C582 1.415 . S
C584 C589 1.425 . S
C584 C591 1.409 . S
C585 H577 0.930 1_455 S
C585 C583 1.419 . S
C585 C586 1.362 . S
C586 H578 0.930 1_455 S
C586 C585 1.362 . S
C586 C589 1.409 . S
C587 H579 0.930 . S
C587 C588 1.355 . S
C587 C589 1.415 . S
C588 C587 1.355 . S
C588 C590 1.419 . S
C589 C584 1.425 . S
C589 C586 1.409 . S
C589 C587 1.415 . S
C590 H580 0.930 . S
C590 C588 1.419 . S
C590 C591 1.362 . S
C591 H581 0.930 . S
C591 C584 1.409 . S
C591 C590 1.362 . S
H592 C598 0.930 . S
H593 C601 0.930 . S
H594 C602 0.930 . S
H595 C603 0.930 . S
H596 C606 0.930 . S
H597 C607 0.930 . S
C598 H592 0.930 . S
C598 C599 1.355 . S
C598 C600 1.415 . S
C599 C598 1.355 . S
C599 C601 1.419 . S
C600 C598 1.415 . S
C600 C605 1.425 . S
C600 C607 1.409 . S
C601 H593 0.930 . S
C601 C599 1.419 . S
C601 C602 1.362 . S
C602 H594 0.930 . S
C602 C601 1.362 . S
C602 C605 1.409 . S
C603 H595 0.930 . S
C603 C604 1.355 . S
C603 C605 1.415 . S
C604 C603 1.355 . S
C604 C606 1.419 . S
C605 C600 1.425 . S
C605 C602 1.409 . S
C605 C603 1.415 . S
C606 H596 0.930 . S
C606 C604 1.419 . S
C606 C607 1.362 . S
C607 H597 0.930 . S
C607 C600 1.409 . S
C607 C606 1.362 . S
H608 C614 0.930 . S
H609 C617 0.930 . S
H610 C618 0.930 . S
H611 C619 0.930 . S
H612 C622 0.930 . S
H613 C623 0.930 . S
C614 H608 0.930 . S
C614 C615 1.355 . S
C614 C616 1.415 . S
C615 C614 1.355 . S
C615 C617 1.419 . S
C616 C614 1.415 . S
C616 C621 1.425 . S
C616 C623 1.409 . S
C617 H609 0.930 . S
C617 C615 1.419 . S
C617 C618 1.362 . S
C618 H610 0.930 . S
C618 C617 1.362 . S
C618 C621 1.409 . S
C619 H611 0.930 . S
C619 C620 1.355 . S
C619 C621 1.415 . S
C620 C619 1.355 . S
C620 C622 1.419 . S
C621 C616 1.425 . S
C621 C618 1.409 . S
C621 C619 1.415 . S
C622 H612 0.930 . S
C622 C620 1.419 . S
C622 C623 1.362 . S
C623 H613 0.930 . S
C623 C616 1.409 . S
C623 C622 1.362 . S
H624 C630 0.930 . S
H625 C633 0.930 . S
H626 C634 0.930 . S
H627 C635 0.930 . S
H628 C638 0.930 . S
H629 C639 0.930 . S
C630 H624 0.930 . S
C630 C631 1.355 . S
C630 C632 1.415 . S
C631 C630 1.355 . S
C631 C633 1.419 . S
C632 C630 1.415 . S
C632 C637 1.425 . S
C632 C639 1.409 . S
C633 H625 0.930 . S
C633 C631 1.419 . S
C633 C634 1.362 . S
C634 H626 0.930 . S
C634 C633 1.362 . S
C634 C637 1.409 . S
C635 H627 0.930 . S
C635 C636 1.355 . S
C635 C637 1.415 . S
C636 C635 1.355 . S
C636 C638 1.419 . S
C637 C632 1.425 . S
C637 C634 1.409 . S
C637 C635 1.415 . S
C638 H628 0.930 . S
C638 C636 1.419 . S
C638 C639 1.362 . S
C639 H629 0.930 . S
C639 C632 1.409 . S
C639 C638 1.362 . S
H640 C646 0.930 . S
H641 C649 0.930 . S
H642 C650 0.930 . S
H643 C651 0.930 . S
H644 C654 0.930 . S
H645 C655 0.930 . S
C646 H640 0.930 . S
C646 C647 1.355 . S
C646 C648 1.415 . S
C647 C646 1.355 . S
C647 C649 1.419 . S
C648 C646 1.415 . S
C648 C653 1.425 . S
C648 C655 1.409 . S
C649 H641 0.930 . S
C649 C647 1.419 . S
C649 C650 1.362 . S
C650 H642 0.930 . S
C650 C649 1.362 . S
C650 C653 1.409 . S
C651 H643 0.930 . S
C651 C652 1.355 . S
C651 C653 1.415 . S
C652 C651 1.355 . S
C652 C654 1.419 . S
C653 C648 1.425 . S
C653 C650 1.409 . S
C653 C651 1.415 . S
C654 H644 0.930 . S
C654 C652 1.419 . S
C654 C655 1.362 . S
C655 H645 0.930 . S
C655 C648 1.409 . S
C655 C654 1.362 . S
H656 C662 0.930 . S
H657 C665 0.930 . S
H658 C666 0.930 . S
H659 C667 0.930 . S
H660 C670 0.930 . S
H661 C671 0.930 . S
C662 H656 0.930 . S
C662 C663 1.355 . S
C662 C664 1.415 . S
C663 C662 1.355 . S
C663 C665 1.419 . S
C664 C662 1.415 . S
C664 C669 1.425 . S
C664 C671 1.409 . S
C665 H657 0.930 . S
C665 C663 1.419 . S
C665 C666 1.362 . S
C666 H658 0.930 . S
C666 C665 1.362 . S
C666 C669 1.409 . S
C667 H659 0.930 . S
C667 C668 1.355 . S
C667 C669 1.415 . S
C668 C667 1.355 . S
C668 C670 1.419 . S
C669 C664 1.425 . S
C669 C666 1.409 . S
C669 C667 1.415 . S
C670 H660 0.930 . S
C670 C668 1.419 . S
C670 C671 1.362 . S
C671 H661 0.930 . S
C671 C664 1.409 . S
C671 C670 1.362 . S
H672 C678 0.930 . S
H673 C681 0.930 . S
H674 C682 0.930 . S
H675 C683 0.930 . S
H676 C686 0.930 . S
H677 C687 0.930 . S
C678 H672 0.930 . S
C678 C679 1.355 . S
C678 C680 1.415 . S
C679 C678 1.355 . S
C679 C681 1.419 . S
C680 C678 1.415 . S
C680 C685 1.425 . S
C680 C687 1.409 . S
C681 H673 0.930 . S
C681 C679 1.419 . S
C681 C682 1.362 . S
C682 H674 0.930 . S
C682 C681 1.362 . S
C682 C685 1.409 . S
C683 H675 0.930 . S
C683 C684 1.355 . S
C683 C685 1.415 . S
C684 C683 1.355 . S
C684 C686 1.419 . S
C685 C680 1.425 . S
C685 C682 1.409 . S
C685 C683 1.415 . S
C686 H676 0.930 . S
C686 C684 1.419 . S
C686 C687 1.362 . S
C687 H677 0.930 . S
C687 C680 1.409 . S
C687 C686 1.362 . S
H688 C694 0.930 . S
H689 C697 0.930 . S
H690 C698 0.930 . S
H691 C699 0.930 . S
H692 C702 0.930 . S
H693 C703 0.930 . S
C694 H688 0.930 . S
C694 C695 1.355 . S
C694 C696 1.415 . S
C695 C694 1.355 . S
C695 C697 1.419 . S
C696 C694 1.415 . S
C696 C701 1.425 . S
C696 C703 1.409 . S
C697 H689 0.930 . S
C697 C695 1.419 . S
C697 C698 1.362 . S
C698 H690 0.930 . S
C698 C697 1.362 . S
C698 C701 1.409 . S
C699 H691 0.930 . S
C699 C700 1.355 . S
C699 C701 1.415 . S
C700 C699 1.355 . S
C700 C702 1.419 . S
C701 C696 1.425 . S
C701 C698 1.409 . S
C701 C699 1.415 . S
C702 H692 0.930 . S
C702 C700 1.419 . S
C702 C703 1.362 . S
C703 H693 0.930 . S
C703 C696 1.409 . S
C703 C702 1.362 . S
H704 C710 0.930 . S
H705 C713 0.930 . S
H706 C714 0.930 . S
H707 C715 0.930 . S
H708 C718 0.930 . S
H709 C719 0.930 . S
C710 H704 0.930 . S
C710 C711 1.355 . S
C710 C712 1.415 . S
C711 C710 1.355 . S
C711 C713 1.419 . S
C712 C710 1.415 . S
C712 C717 1.425 . S
C712 C719 1.409 . S
C713 H705 0.930 . S
C713 C711 1.419 . S
C713 C714 1.362 . S
C714 H706 0.930 . S
C714 C713 1.362 . S
C714 C717 1.409 . S
C715 H707 0.930 . S
C715 C716 1.355 . S
C715 C717 1.415 . S
C716 C715 1.355 . S
C716 C718 1.419 . S
C717 C712 1.425 . S
C717 C714 1.409 . S
C717 C715 1.415 . S
C718 H708 0.930 . S
C718 C716 1.419 . S
C718 C719 1.362 . S
C719 H709 0.930 . S
C719 C712 1.409 . S
C719 C718 1.362 . S
H720 C726 0.930 . S
H721 C729 0.930 . S
H722 C730 0.930 . S
H723 C731 0.930 . S
H724 C734 0.930 . S
H725 C735 0.930 . S
C726 H720 0.930 . S
C726 C727 1.355 . S
C726 C728 1.415 . S
C727 C726 1.355 . S
C727 C729 1.419 . S
C728 C726 1.415 . S
C728 C733 1.425 . S
C728 C735 1.409 . S
C729 H721 0.930 . S
C729 C727 1.419 . S
C729 C730 1.362 . S
C730 H722 0.930 . S
C730 C729 1.362 . S
C730 C733 1.409 . S
C731 H723 0.930 . S
C731 C732 1.355 . S
C731 C733 1.415 . S
C732 C731 1.355 . S
C732 C734 1.419 . S
C733 C728 1.425 . S
C733 C730 1.409 . S
C733 C731 1.415 . S
C734 H724 0.930 . S
C734 C732 1.419 . S
C734 C735 1.362 . S
C735 H725 0.930 . S
C735 C728 1.409 . S
C735 C734 1.362 . S
H736 C742 0.930 . S
H737 C745 0.930 . S
H738 C746 0.930 . S
H739 C747 0.930 . S
H740 C750 0.930 . S
H741 C751 0.930 . S
C742 H736 0.930 . S
C742 C743 1.355 . S
C742 C744 1.415 . S
C743 C742 1.355 . S
C743 C745 1.419 . S
C744 C742 1.415 . S
C744 C749 1.425 . S
C744 C751 1.409 . S
C745 H737 0.930 . S
C745 C743 1.419 . S
C745 C746 1.362 . S
C746 H738 0.930 . S
C746 C745 1.362 . S
C746 C749 1.409 . S
C747 H739 0.930 . S
C747 C748 1.355 . S
C747 C749 1.415 . S
C748 C747 1.355 . S
C748 C750 1.419 . S
C749 C744 1.425 . S
C749 C746 1.409 . S
C749 C747 1.415 . S
C750 H740 0.930 . S
C750 C748 1.419 . S
C750 C751 1.362 . S
C751 H741 0.930 . S
C751 C744 1.409 . S
C751 C750 1.362 . S
H752 C758 0.930 . S
H753 C761 0.930 . S
H754 C762 0.930 . S
H755 C763 0.930 . S
H756 C766 0.930 . S
H757 C767 0.930 . S
C758 H752 0.930 . S
C758 C759 1.355 . S
C758 C760 1.415 . S
C759 C758 1.355 . S
C759 C761 1.419 . S
C760 C758 1.415 . S
C760 C765 1.425 . S
C760 C767 1.409 . S
C761 H753 0.930 . S
C761 C759 1.419 . S
C761 C762 1.362 . S
C762 H754 0.930 . S
C762 C761 1.362 . S
C762 C765 1.409 . S
C763 H755 0.930 . S
C763 C764 1.355 . S
C763 C765 1.415 . S
C764 C763 1.355 . S
C764 C766 1.419 . S
C765 C760 1.425 . S
C765 C762 1.409 . S
C765 C763 1.415 . S
C766 H756 0.930 . S
C766 C764 1.419 . S
C766 C767 1.362 . S
C767 H757 0.930 . S
C767 C760 1.409 . S
C767 C766 1.362 . S
H768 C774 0.930 . S
H769 C777 0.930 . S
H770 C778 0.930 . S
H771 C779 0.930 . S
H772 C782 0.930 . S
H773 C783 0.930 . S
C774 H768 0.930 . S
C774 C775 1.355 . S
C774 C776 1.415 . S
C775 C774 1.355 . S
C775 C777 1.419 . S
C776 C774 1.415 . S
C776 C781 1.425 . S
C776 C783 1.409 . S
C777 H769 0.930 . S
C777 C775 1.419 . S
C777 C778 1.362 . S
C778 H770 0.930 . S
C778 C777 1.362 . S
C778 C781 1.409 . S
C779 H771 0.930 . S
C779 C780 1.355 . S
C779 C781 1.415 . S
C780 C779 1.355 . S
C780 C782 1.419 . S
C781 C776 1.425 . S
C781 C778 1.409 . S
C781 C779 1.415 . S
C782 H772 0.930 . S
C782 C780 1.419 . S
C782 C783 1.362 . S
C783 H773 0.930 . S
C783 C776 1.409 . S
C783 C782 1.362 . S
H784 C790 0.930 . S
H785 C793 0.930 . S
H786 C794 0.930 . S
H787 C795 0.930 . S
H788 C798 0.930 . S
H789 C799 0.930 . S
C790 H784 0.930 . S
C790 C791 1.355 . S
C790 C792 1.415 . S
C791 C790 1.355 . S
C791 C793 1.419 . S
C792 C790 1.415 . S
C792 C797 1.425 . S
C792 C799 1.409 . S
C793 H785 0.930 . S
C793 C791 1.419 . S
C793 C794 1.362 . S
C794 H786 0.930 . S
C794 C793 1.362 . S
C794 C797 1.409 . S
C795 H787 0.930 . S
C795 C796 1.355 . S
C795 C797 1.415 . S
C796 C795 1.355 . S
C796 C798 1.419 . S
C797 C792 1.425 . S
C797 C794 1.409 . S
C797 C795 1.415 . S
C798 H788 0.930 . S
C798 C796 1.419 . S
C798 C799 1.362 . S
C799 H789 0.930 . S
C799 C792 1.409 . S
C799 C798 1.362 . S
H800 C806 0.930 . S
H801 C809 0.930 . S
H802 C810 0.930 . S
H803 C811 0.930 . S
H804 C814 0.930 . S
H805 C815 0.930 . S
C806 H800 0.930 . S
C806 C807 1.355 . S
C806 C808 1.415 . S
C807 C806 1.355 . S
C807 C809 1.419 . S
C808 C806 1.415 . S
C808 C813 1.425 . S
C808 C815 1.409 . S
C809 H801 0.930 . S
C809 C807 1.419 . S
C809 C810 1.362 . S
C810 H802 0.930 . S
C810 C809 1.362 . S
C810 C813 1.409 . S
C811 H803 0.930 . S
C811 C812 1.355 . S
C811 C813 1.415 . S
C812 C811 1.355 . S
C812 C814 1.419 . S
C813 C808 1.425 . S
C813 C810 1.409 . S
C813 C811 1.415 . S
C814 H804 0.930 . S
C814 C812 1.419 . S
C814 C815 1.362 . S
C815 H805 0.930 . S
C815 C808 1.409 . S
C815 C814 1.362 . S
H816 C822 0.930 . S
H817 C825 0.930 . S
H818 C826 0.930 . S
H819 C827 0.930 . S
H820 C830 0.930 . S
H821 C831 0.930 . S
C822 H816 0.930 . S
C822 C823 1.355 . S
C822 C824 1.415 . S
C823 C822 1.355 . S
C823 C825 1.419 . S
C824 C822 1.415 . S
C824 C829 1.425 . S
C824 C831 1.409 . S
C825 H817 0.930 . S
C825 C823 1.419 . S
C825 C826 1.362 . S
C826 H818 0.930 . S
C826 C825 1.362 . S
C826 C829 1.409 . S
C827 H819 0.930 . S
C827 C828 1.355 . S
C827 C829 1.415 . S
C828 C827 1.355 . S
C828 C830 1.419 . S
C829 C824 1.425 . S
C829 C826 1.409 . S
C829 C827 1.415 . S
C830 H820 0.930 . S
C830 C828 1.419 . S
C830 C831 1.362 . S
C831 H821 0.930 . S
C831 C824 1.409 . S
C831 C830 1.362 . S
H832 C838 0.930 . S
H833 C841 0.930 . S
H834 C842 0.930 . S
H835 C843 0.930 . S
H836 C846 0.930 . S
H837 C847 0.930 . S
C838 H832 0.930 . S
C838 C839 1.355 . S
C838 C840 1.415 1_556 S
C839 C838 1.355 . S
C839 C841 1.419 1_655 S
C840 C838 1.415 1_554 S
C840 C845 1.425 1_654 S
C840 C847 1.409 . S
C841 H833 0.930 . S
C841 C839 1.419 1_455 S
C841 C842 1.362 . S
C842 H834 0.930 . S
C842 C841 1.362 . S
C842 C845 1.409 . S
C843 H835 0.930 . S
C843 C844 1.355 . S
C843 C845 1.415 1_554 S
C844 C843 1.355 . S
C844 C846 1.419 1_455 S
C845 C840 1.425 1_456 S
C845 C842 1.409 . S
C845 C843 1.415 1_556 S
C846 H836 0.930 . S
C846 C844 1.419 1_655 S
C846 C847 1.362 . S
C847 H837 0.930 . S
C847 C840 1.409 . S
C847 C846 1.362 . S
H848 C854 0.930 . S
H849 C857 0.930 . S
H850 C858 0.930 . S
H851 C859 0.930 . S
H852 C862 0.930 . S
H853 C863 0.930 . S
C854 H848 0.930 . S
C854 C855 1.355 1_545 S
C854 C856 1.415 . S
C855 C854 1.355 1_565 S
C855 C857 1.419 . S
C856 C854 1.415 . S
C856 C861 1.425 1_446 S
C856 C863 1.409 1_556 S
C857 H849 0.930 . S
C857 C855 1.419 . S
C857 C858 1.362 1_455 S
C858 H850 0.930 . S
C858 C857 1.362 1_655 S
C858 C861 1.409 1_556 S
C859 H851 0.930 . S
C859 C860 1.355 1_565 S
C859 C861 1.415 . S
C860 C859 1.355 1_545 S
C860 C862 1.419 . S
C861 C856 1.425 1_664 S
C861 C858 1.409 1_554 S
C861 C859 1.415 . S
C862 H852 0.930 . S
C862 C860 1.419 . S
C862 C863 1.362 1_655 S
C863 H853 0.930 . S
C863 C856 1.409 1_554 S
C863 C862 1.362 1_455 S
H864 C870 0.930 . S
H865 C873 0.930 . S
H866 C874 0.930 1_565 S
H867 C875 0.930 . S
H868 C878 0.930 . S
H869 C879 0.930 1_545 S
C870 H864 0.930 . S
C870 C871 1.355 . S
C870 C872 1.415 . S
C871 C870 1.355 . S
C871 C873 1.419 . S
C872 C870 1.415 . S
C872 C877 1.425 1_546 S
C872 C879 1.409 1_546 S
C873 H865 0.930 . S
C873 C871 1.419 . S
C873 C874 1.362 . S
C874 H866 0.930 1_545 S
C874 C873 1.362 . S
C874 C877 1.409 1_546 S
C875 H867 0.930 . S
C875 C876 1.355 . S
C875 C877 1.415 . S
C876 C875 1.355 . S
C876 C878 1.419 . S
C877 C872 1.425 1_564 S
C877 C874 1.409 1_564 S
C877 C875 1.415 . S
C878 H868 0.930 . S
C878 C876 1.419 . S
C878 C879 1.362 . S
C879 H869 0.930 1_565 S
C879 C872 1.409 1_564 S
C879 C878 1.362 . S
H880 C886 0.930 . S
H881 C889 0.930 . S
H882 C890 0.930 . S
H883 C891 0.930 . S
H884 C894 0.930 . S
H885 C895 0.930 . S
C886 H880 0.930 . S
C886 C887 1.355 . S
C886 C888 1.415 1_554 S
C887 C886 1.355 . S
C887 C889 1.419 . S
C888 C886 1.415 1_556 S
C888 C893 1.425 1_556 S
C888 C895 1.409 . S
C889 H881 0.930 . S
C889 C887 1.419 . S
C889 C890 1.362 . S
C890 H882 0.930 . S
C890 C889 1.362 . S
C890 C893 1.409 . S
C891 H883 0.930 . S
C891 C892 1.355 . S
C891 C893 1.415 1_556 S
C892 C891 1.355 . S
C892 C894 1.419 . S
C893 C888 1.425 1_554 S
C893 C890 1.409 . S
C893 C891 1.415 1_554 S
C894 H884 0.930 . S
C894 C892 1.419 . S
C894 C895 1.362 . S
C895 H885 0.930 . S
C895 C888 1.409 . S
C895 C894 1.362 . S
H896 C902 0.930 . S
H897 C905 0.930 . S
H898 C906 0.925 1_455 S
H899 C907 0.930 . S
H900 C910 0.930 . S
H901 C911 0.925 1_655 S
C902 H896 0.930 . S
C902 C903 1.355 . S
C902 C904 1.415 . S
C903 C902 1.355 . S
C903 C905 1.419 . S
C904 C902 1.415 . S
C904 C909 1.425 1_645 S
C904 C911 1.409 1_655 S
C905 H897 0.930 . S
C905 C903 1.419 . S
C905 C906 1.362 1_545 S
C906 H898 0.925 1_655 S
C906 C905 1.362 1_565 S
C906 C909 1.409 1_655 S
C907 H899 0.930 . S
C907 C908 1.355 . S
C907 C909 1.415 . S
C908 C907 1.355 . S
C908 C910 1.419 . S
C909 C904 1.425 1_465 S
C909 C906 1.409 1_455 S
C909 C907 1.415 . S
C910 H900 0.930 . S
C910 C908 1.419 . S
C910 C911 1.362 1_565 S
C911 H901 0.925 1_455 S
C911 C904 1.409 1_455 S
C911 C910 1.362 1_545 S
H912 C918 0.930 1_545 S
H913 C921 0.930 . S
H914 C922 0.930 . S
H915 C923 0.930 1_565 S
H916 C926 0.930 . S
H917 C927 0.930 . S
C918 H912 0.930 1_565 S
C918 C919 1.355 . S
C918 C920 1.415 1_565 S
C919 C918 1.355 . S
C919 C921 1.419 . S
C920 C918 1.415 1_545 S
C920 C925 1.425 1_545 S
C920 C927 1.409 . S
C921 H913 0.930 . S
C921 C919 1.419 . S
C921 C922 1.362 . S
C922 H914 0.930 . S
C922 C921 1.362 . S
C922 C925 1.409 . S
C923 H915 0.930 1_545 S
C923 C924 1.355 . S
C923 C925 1.415 1_545 S
C924 C923 1.355 . S
C924 C926 1.419 . S
C925 C920 1.425 1_565 S
C925 C922 1.409 . S
C925 C923 1.415 1_565 S
C926 H916 0.930 . S
C926 C924 1.419 . S
C926 C927 1.362 . S
C927 H917 0.930 . S
C927 C920 1.409 . S
C927 C926 1.362 . S
H928 C934 0.930 . S
H929 C937 0.930 . S
H930 C938 0.930 . S
H931 C939 0.930 . S
H932 C942 0.930 . S
H933 C943 0.930 . S
C934 H928 0.930 . S
C934 C935 1.355 . S
C934 C936 1.415 . S
C935 C934 1.355 . S
C935 C937 1.419 . S
C936 C934 1.415 . S
C936 C941 1.425 . S
C936 C943 1.409 . S
C937 H929 0.930 . S
C937 C935 1.419 . S
C937 C938 1.362 . S
C938 H930 0.930 . S
C938 C937 1.362 . S
C938 C941 1.409 . S
C939 H931 0.930 . S
C939 C940 1.355 . S
C939 C941 1.415 . S
C940 C939 1.355 . S
C940 C942 1.419 . S
C941 C936 1.425 . S
C941 C938 1.409 . S
C941 C939 1.415 . S
C942 H932 0.930 . S
C942 C940 1.419 . S
C942 C943 1.362 . S
C943 H933 0.930 . S
C943 C936 1.409 . S
C943 C942 1.362 . S
H944 C950 0.930 . S
H945 C953 0.930 . S
H946 C954 0.930 . S
H947 C955 0.930 . S
H948 C958 0.930 . S
H949 C959 0.930 . S
C950 H944 0.930 . S
C950 C951 1.355 . S
C950 C952 1.415 . S
C951 C950 1.355 . S
C951 C953 1.419 . S
C952 C950 1.415 . S
C952 C957 1.425 1_455 S
C952 C959 1.409 . S
C953 H945 0.930 . S
C953 C951 1.419 . S
C953 C954 1.362 1_455 S
C954 H946 0.930 . S
C954 C953 1.362 1_655 S
C954 C957 1.409 . S
C955 H947 0.930 . S
C955 C956 1.355 . S
C955 C957 1.415 . S
C956 C955 1.355 . S
C956 C958 1.419 . S
C957 C952 1.425 1_655 S
C957 C954 1.409 . S
C957 C955 1.415 . S
C958 H948 0.930 . S
C958 C956 1.419 . S
C958 C959 1.362 1_655 S
C959 H949 0.930 . S
C959 C952 1.409 . S
C959 C958 1.362 1_455 S
H960 C966 0.930 . S
H961 C969 0.930 . S
H962 C970 0.930 . S
H963 C971 0.930 . S
H964 C974 0.930 . S
H965 C975 0.930 . S
C966 H960 0.930 . S
C966 C967 1.355 . S
C966 C968 1.415 . S
C967 C966 1.355 . S
C967 C969 1.419 1_455 S
C968 C966 1.415 . S
C968 C973 1.425 . S
C968 C975 1.409 . S
C969 H961 0.930 . S
C969 C967 1.419 1_655 S
C969 C970 1.362 . S
C970 H962 0.930 . S
C970 C969 1.362 . S
C970 C973 1.409 1_655 S
C971 H963 0.930 . S
C971 C972 1.355 . S
C971 C973 1.415 . S
C972 C971 1.355 . S
C972 C974 1.419 . S
C973 C968 1.425 . S
C973 C970 1.409 1_455 S
C973 C971 1.415 . S
C974 H964 0.930 . S
C974 C972 1.419 . S
C974 C975 1.362 . S
C975 H965 0.930 . S
C975 C968 1.409 . S
C975 C974 1.362 . S
H976 C982 0.928 1_665 S
H977 C985 0.930 . S
H978 C986 0.930 . S
H979 C987 0.930 . S
H980 C990 0.930 . S
H981 C991 0.930 . S
C982 H976 0.928 1_445 S
C982 C983 1.350 1_545 S
C982 C984 1.421 . S
C983 C982 1.350 1_565 S
C983 C985 1.419 . S
C984 C982 1.421 . S
C984 C989 1.425 . S
C984 C991 1.409 1_455 S
C985 H977 0.930 . S
C985 C983 1.419 . S
C985 C986 1.362 1_565 S
C986 H978 0.930 . S
C986 C985 1.362 1_545 S
C986 C989 1.409 . S
C987 H979 0.930 . S
C987 C988 1.355 1_455 S
C987 C989 1.415 . S
C988 C987 1.355 1_655 S
C988 C990 1.419 . S
C989 C984 1.425 . S
C989 C986 1.409 . S
C989 C987 1.415 . S
C990 H980 0.930 . S
C990 C988 1.419 . S
C990 C991 1.362 . S
C991 H981 0.930 . S
C991 C984 1.409 1_655 S
C991 C990 1.362 . S
H992 C998 0.930 1_565 S
H993 C1001 0.930 . S
H994 C1002 0.930 . S
H995 C1003 0.930 . S
H996 C1006 0.930 . S
H997 C1007 0.930 . S
C998 H992 0.930 1_545 S
C998 C999 1.355 . S
C998 C1000 1.418 . S
C999 C998 1.355 . S
C999 C1001 1.419 . S
C1000 C998 1.418 . S
C1000 C1005 1.436 . S
C1000 C1007 1.396 1_545 S
C1001 H993 0.930 . S
C1001 C999 1.419 . S
C1001 C1002 1.362 . S
C1002 H994 0.930 . S
C1002 C1001 1.362 . S
C1002 C1005 1.409 . S
C1003 H995 0.930 . S
C1003 C1004 1.355 1_545 S
C1003 C1005 1.415 . S
C1004 C1003 1.355 1_565 S
C1004 C1006 1.419 . S
C1005 C1000 1.436 . S
C1005 C1002 1.409 . S
C1005 C1003 1.415 . S
C1006 H996 0.930 . S
C1006 C1004 1.419 . S
C1006 C1007 1.362 . S
C1007 H997 0.930 . S
C1007 C1000 1.396 1_565 S
C1007 C1006 1.362 . S
H1008 C1014 0.930 . S
H1009 C1017 0.930 . S
H1010 C1018 0.930 . S
H1011 C1019 0.930 . S
H1012 C1022 0.930 . S
H1013 C1023 0.930 . S
C1014 H1008 0.930 . S
C1014 C1015 1.355 . S
C1014 C1016 1.415 . S
C1015 C1014 1.355 . S
C1015 C1017 1.419 . S
C1016 C1014 1.415 . S
C1016 C1021 1.425 . S
C1016 C1023 1.409 . S
C1017 H1009 0.930 . S
C1017 C1015 1.419 . S
C1017 C1018 1.362 . S
C1018 H1010 0.930 . S
C1018 C1017 1.362 . S
C1018 C1021 1.409 . S
C1019 H1011 0.930 . S
C1019 C1020 1.355 . S
C1019 C1021 1.415 . S
C1020 C1019 1.355 . S
C1020 C1022 1.419 . S
C1021 C1016 1.425 . S
C1021 C1018 1.409 . S
C1021 C1019 1.415 . S
C1022 H1012 0.930 . S
C1022 C1020 1.419 . S
C1022 C1023 1.362 . S
C1023 H1013 0.930 . S
C1023 C1016 1.409 . S
C1023 C1022 1.362 . S
H1024 C1030 0.930 . S
H1025 C1033 0.930 . S
H1026 C1034 0.930 . S
H1027 C1035 0.930 . S
H1028 C1038 0.930 1_455 S
H1029 C1039 0.930 . S
C1030 H1024 0.930 . S
C1030 C1031 1.355 1_455 S
C1030 C1032 1.415 1_455 S
C1031 C1030 1.355 1_655 S
C1031 C1033 1.419 . S
C1032 C1030 1.415 1_655 S
C1032 C1037 1.425 . S
C1032 C1039 1.409 1_655 S
C1033 H1025 0.930 . S
C1033 C1031 1.419 . S
C1033 C1034 1.362 . S
C1034 H1026 0.930 . S
C1034 C1033 1.362 . S
C1034 C1037 1.409 . S
C1035 H1027 0.930 . S
C1035 C1036 1.355 . S
C1035 C1037 1.415 . S
C1036 C1035 1.355 . S
C1036 C1038 1.419 . S
C1037 C1032 1.425 . S
C1037 C1034 1.409 . S
C1037 C1035 1.415 . S
C1038 H1028 0.930 1_655 S
C1038 C1036 1.419 . S
C1038 C1039 1.362 1_655 S
C1039 H1029 0.930 . S
C1039 C1032 1.409 1_455 S
C1039 C1038 1.362 1_455 S
H1040 C1046 0.930 . S
H1041 C1049 0.930 . S
H1042 C1050 0.930 . S
H1043 C1051 0.930 1_545 S
H1044 C1054 0.930 . S
H1045 C1055 0.930 . S
C1046 H1040 0.930 . S
C1046 C1047 1.355 1_565 S
C1046 C1048 1.415 . S
C1047 C1046 1.355 1_545 S
C1047 C1049 1.419 . S
C1048 C1046 1.415 . S
C1048 C1053 1.425 . S
C1048 C1055 1.409 1_655 S
C1049 H1041 0.930 . S
C1049 C1047 1.419 . S
C1049 C1050 1.362 . S
C1050 H1042 0.930 . S
C1050 C1049 1.362 . S
C1050 C1053 1.409 1_545 S
C1051 H1043 0.930 1_565 S
C1051 C1052 1.342 1_655 S
C1051 C1053 1.415 . S
C1052 C1051 1.342 1_455 S
C1052 C1054 1.424 . S
C1053 C1048 1.425 . S
C1053 C1050 1.409 1_565 S
C1053 C1051 1.415 . S
C1054 H1044 0.930 . S
C1054 C1052 1.424 . S
C1054 C1055 1.362 . S
C1055 H1045 0.930 . S
C1055 C1048 1.409 1_455 S
C1055 C1054 1.362 . S
H1056 C1062 0.930 . S
H1057 C1065 0.930 1_545 S
H1058 C1066 0.930 . S
H1059 C1067 0.930 . S
H1060 C1070 0.930 . S
H1061 C1071 0.930 . S
C1062 H1056 0.930 . S
C1062 C1063 1.355 . S
C1062 C1064 1.415 . S
C1063 C1062 1.355 . S
C1063 C1065 1.419 . S
C1064 C1062 1.415 . S
C1064 C1069 1.425 1_565 S
C1064 C1071 1.409 . S
C1065 H1057 0.930 1_565 S
C1065 C1063 1.419 . S
C1065 C1066 1.362 1_565 S
C1066 H1058 0.930 . S
C1066 C1065 1.362 1_545 S
C1066 C1069 1.409 . S
C1067 H1059 0.930 . S
C1067 C1068 1.355 . S
C1067 C1069 1.415 . S
C1068 C1067 1.355 . S
C1068 C1070 1.419 1_545 S
C1069 C1064 1.425 1_545 S
C1069 C1066 1.409 . S
C1069 C1067 1.415 . S
C1070 H1060 0.930 . S
C1070 C1068 1.419 1_565 S
C1070 C1071 1.362 . S
C1071 H1061 0.930 . S
C1071 C1064 1.409 . S
C1071 C1070 1.362 . S
H1072 C1078 0.930 . S
H1073 C1081 0.930 . S
H1074 C1082 0.930 . S
H1075 C1083 0.930 . S
H1076 C1086 0.930 . S
H1077 C1087 0.930 . S
C1078 H1072 0.930 . S
C1078 C1079 1.355 . S
C1078 C1080 1.415 . S
C1079 C1078 1.355 . S
C1079 C1081 1.419 . S
C1080 C1078 1.415 . S
C1080 C1085 1.425 . S
C1080 C1087 1.409 . S
C1081 H1073 0.930 . S
C1081 C1079 1.419 . S
C1081 C1082 1.362 . S
C1082 H1074 0.930 . S
C1082 C1081 1.362 . S
C1082 C1085 1.409 . S
C1083 H1075 0.930 . S
C1083 C1084 1.355 . S
C1083 C1085 1.415 . S
C1084 C1083 1.355 . S
C1084 C1086 1.419 . S
C1085 C1080 1.425 . S
C1085 C1082 1.409 . S
C1085 C1083 1.415 . S
C1086 H1076 0.930 . S
C1086 C1084 1.419 . S
C1086 C1087 1.362 . S
C1087 H1077 0.930 . S
C1087 C1080 1.409 . S
C1087 C1086 1.362 . S
C327 C79 1.991 . S
C332 C12 2.014 . S
C343 C2 1.643 . S
C348 C32 1.695 . S
C359 C52 1.700 . S
C364 C22 1.672 . S
C375 C42 1.922 . S
C380 C69 1.951 . S
C391 C92 1.894 . S
C396 C102 1.860 . S
C407 C112 1.897 . S
C412 C122 1.898 . S
C423 C132 2.143 . S
C428 C142 2.086 . S
C439 C82 1.878 . S
C444 C152 1.901 . S
C455 C169 2.008 . S
C460 C238 1.982 . S
C471 C164 1.715 . S
C476 C189 1.699 . S
C487 C184 1.697 . S
C492 C209 1.746 . S
C503 C204 1.929 . S
C508 C232 1.961 . S
C519 C249 1.895 . S
C524 C264 1.858 . S
C535 C284 1.899 . S
C540 C269 1.897 . S
C551 C304 2.074 . S
C556 C289 2.146 . S
C567 C309 1.889 . S
C572 C244 1.876 . S
C583 C18 1.967 . S
C588 C98 1.966 . S
C599 C118 1.849 . S
C604 C38 1.850 . S
C615 C58 2.311 . S
C620 C138 2.313 . S
C631 C64 1.338 . S
C636 C158 1.380 . S
C647 C259 1.968 . S
C652 C179 1.971 . S
C663 C279 1.841 . S
C668 C199 1.842 . S
C679 C219 2.305 . S
C684 C299 2.310 . S
C695 C319 1.386 . S
C700 C222 1.329 . S
C711 C9 1.177 . S
C716 C49 1.177 . S
C727 C29 0.825 . S
C732 C72 0.843 . S
C743 C129 1.219 . S
C748 C89 1.220 . S
C759 C149 1.250 . S
C764 C109 1.250 . S
C775 C212 1.116 . S
C780 C172 1.111 . S
C791 C229 0.850 . S
C796 C192 0.862 . S
C807 C252 1.289 . S
C812 C292 1.289 . S
C823 C272 1.246 . S
C828 C312 1.246 . S
C839 C178 1.553 . S
C844 C19 1.553 . S
C855 C198 1.474 . S
C860 C39 1.474 . S
C871 C218 1.877 . S
C876 C59 1.877 . S
C887 C62 1.028 . S
C892 C224 1.028 . S
C903 C258 1.497 . S
C908 C99 1.497 . S
C919 C278 1.426 . S
C924 C119 1.426 . S
C935 C298 1.618 . S
C940 C139 1.618 . S
C951 C318 1.448 . S
C956 C159 1.448 . S
C967 C144 0.848 . S
C972 C4 1.038 . S
C983 C84 0.976 . S
C988 C24 0.909 . S
C999 C104 0.946 . S
C1004 C44 0.989 . S
C1015 C124 1.074 . S
C1020 C78 1.116 . S
C1031 C302 0.914 . S
C1036 C162 0.964 . S
C1047 C242 0.953 . S
C1052 C182 0.950 . S
C1063 C262 0.849 . S
C1068 C202 1.054 . S
C1079 C239 1.219 . S
C1084 C282 0.883 . S
