# Generated by pormake.
# Topology umm, (4)-cn, num edge types: 1
# Building blocks:
#     Node 0, Type 0, BuildingBlock: KUFVIS_clean_sbu_0, # of connection points: 4
#     Node 1, Type 0, BuildingBlock: KUFVIS_clean_sbu_0, # of connection points: 4
#     Node 2, Type 0, BuildingBlock: KUFVIS_clean_sbu_0, # of connection points: 4
#     Node 3, Type 0, BuildingBlock: KUFVIS_clean_sbu_0, # of connection points: 4
#     Node 4, Type 0, BuildingBlock: KUFVIS_clean_sbu_0, # of connection points: 4
#     Node 5, Type 0, BuildingBlock: KUFVIS_clean_sbu_0, # of connection points: 4
#     Node 6, Type 0, BuildingBlock: KUFVIS_clean_sbu_0, # of connection points: 4
#     Node 7, Type 0, BuildingBlock: KUFVIS_clean_sbu_0, # of connection points: 4
#     Node 8, Type 0, BuildingBlock: KUFVIS_clean_sbu_0, # of connection points: 4
#     Node 9, Type 0, BuildingBlock: KUFVIS_clean_sbu_0, # of connection points: 4
#     Node 10, Type 0, BuildingBlock: KUFVIS_clean_sbu_0, # of connection points: 4
#     Node 11, Type 0, BuildingBlock: KUFVIS_clean_sbu_0, # of connection points: 4
#     Edge 12, Type (0, 0), BuildingBlock: ZUJKAS_clean_linker_0, # of connection points: 2
#     Edge 13, Type (0, 0), BuildingBlock: ZUJKAS_clean_linker_0, # of connection points: 2
#     Edge 14, Type (0, 0), BuildingBlock: ZUJKAS_clean_linker_0, # of connection points: 2
#     Edge 15, Type (0, 0), BuildingBlock: ZUJKAS_clean_linker_0, # of connection points: 2
#     Edge 16, Type (0, 0), BuildingBlock: ZUJKAS_clean_linker_0, # of connection points: 2
#     Edge 17, Type (0, 0), BuildingBlock: ZUJKAS_clean_linker_0, # of connection points: 2
#     Edge 18, Type (0, 0), BuildingBlock: ZUJKAS_clean_linker_0, # of connection points: 2
#     Edge 19, Type (0, 0), BuildingBlock: ZUJKAS_clean_linker_0, # of connection points: 2
#     Edge 20, Type (0, 0), BuildingBlock: ZUJKAS_clean_linker_0, # of connection points: 2
#     Edge 21, Type (0, 0), BuildingBlock: ZUJKAS_clean_linker_0, # of connection points: 2
#     Edge 22, Type (0, 0), BuildingBlock: ZUJKAS_clean_linker_0, # of connection points: 2
#     Edge 23, Type (0, 0), BuildingBlock: ZUJKAS_clean_linker_0, # of connection points: 2
#     Edge 24, Type (0, 0), BuildingBlock: ZUJKAS_clean_linker_0, # of connection points: 2
#     Edge 25, Type (0, 0), BuildingBlock: ZUJKAS_clean_linker_0, # of connection points: 2
#     Edge 26, Type (0, 0), BuildingBlock: ZUJKAS_clean_linker_0, # of connection points: 2
#     Edge 27, Type (0, 0), BuildingBlock: ZUJKAS_clean_linker_0, # of connection points: 2
#     Edge 28, Type (0, 0), BuildingBlock: ZUJKAS_clean_linker_0, # of connection points: 2
#     Edge 29, Type (0, 0), BuildingBlock: ZUJKAS_clean_linker_0, # of connection points: 2
#     Edge 30, Type (0, 0), BuildingBlock: ZUJKAS_clean_linker_0, # of connection points: 2
#     Edge 31, Type (0, 0), BuildingBlock: ZUJKAS_clean_linker_0, # of connection points: 2
#     Edge 32, Type (0, 0), BuildingBlock: ZUJKAS_clean_linker_0, # of connection points: 2
#     Edge 33, Type (0, 0), BuildingBlock: ZUJKAS_clean_linker_0, # of connection points: 2
#     Edge 34, Type (0, 0), BuildingBlock: ZUJKAS_clean_linker_0, # of connection points: 2
#     Edge 35, Type (0, 0), BuildingBlock: ZUJKAS_clean_linker_0, # of connection points: 2
# Relax obj value: 0.168
# Max RMSD: 0.456
# Mean RMSD: 0.287
data_MOF--net-umm--node1-KUFVIS_clean_sbu_0--edge1-ZUJKAS_clean_linker_0
_symmetry_space_group_name_H-M    P1
_symmetry_Int_Tables_number       1
_symmetry_cell_setting            triclinic
loop_
_symmetry_equiv_pos_as_xyz
'x, y, z'
_cell_length_a     73.429143
_cell_length_b     66.050889
_cell_length_c     35.271693
_cell_angle_alpha  89.914039
_cell_angle_beta   89.983162
_cell_angle_gamma 116.759
loop_
_atom_site_label
_atom_site_type_symbol
_atom_site_fract_x
_atom_site_fract_y
_atom_site_fract_z
_atom_type_partial_charge
Mn0 Mn 0.39766 0.52658 0.05539 0.0
Mn1 Mn 0.43676 0.57833 0.06941 0.0
C2 C 0.41618 0.54761 0.00466 0.0
C3 C 0.36246 0.5062 0.0456 0.0
C4 C 0.4395 0.53436 0.08418 0.0
O5 O 0.39339 0.53401 0.10938 0.0
O6 O 0.41782 0.57016 0.11335 0.0
C7 C 0.41426 0.60589 0.06639 0.0
N8 N 0.42919 0.60103 0.05268 0.0
C9 C 0.43848 0.63016 0.00511 0.0
C10 C 0.4233 0.63558 0.0189 0.0
C11 C 0.41113 0.62337 0.04966 0.0
C12 C 0.44103 0.61271 0.02317 0.0
H13 H 0.40475 0.59643 0.08983 0.0
C14 C 0.40226 0.55295 0.12661 0.0
O15 O 0.37293 0.49594 0.05755 0.0
O16 O 0.37233 0.52778 0.04005 0.0
N17 N 0.45582 0.58819 0.02821 0.0
C18 C 0.46904 0.58005 0.01699 0.0
C19 C 0.48188 0.58996 0.98577 0.0
C20 C 0.48106 0.60815 0.96649 0.0
C21 C 0.46746 0.61636 0.97875 0.0
C22 C 0.45517 0.60596 0.01027 0.0
H23 H 0.46967 0.566 0.03153 0.0
O24 O 0.405 0.52593 0.00127 0.0
O25 O 0.4157 0.55627 0.03736 0.0
O26 O 0.42177 0.52053 0.07197 0.0
O27 O 0.44587 0.55583 0.08611 0.0
C28 C 0.46537 0.63419 0.96051 0.0
C29 C 0.45088 0.64108 0.97366 0.0
H30 H 0.42073 0.64893 0.00588 0.0
H31 H 0.39931 0.62737 0.06033 0.0
H32 H 0.49232 0.58351 0.97645 0.0
H33 H 0.49083 0.61558 0.94216 0.0
H34 H 0.47469 0.64257 0.9361 0.0
H35 H 0.44925 0.65462 0.95911 0.0
Mn36 Mn 0.85594 0.37885 0.39496 0.0
Mn37 Mn 0.86119 0.43226 0.39265 0.0
C38 C 0.86621 0.39945 0.33978 0.0
C39 C 0.83345 0.34022 0.38863 0.0
C40 C 0.89302 0.41991 0.42619 0.0
O41 O 0.84255 0.38131 0.44392 0.0
O42 O 0.84362 0.41562 0.43609 0.0
C43 C 0.81849 0.42137 0.37385 0.0
N44 N 0.83877 0.43256 0.36568 0.0
C45 C 0.83248 0.45077 0.31164 0.0
C46 C 0.81152 0.43952 0.31956 0.0
C47 C 0.8045 0.42468 0.3507 0.0
C48 C 0.84566 0.44662 0.33549 0.0
H49 H 0.81307 0.41002 0.39787 0.0
C50 C 0.83832 0.39713 0.45458 0.0
O51 O 0.85049 0.34676 0.40721 0.0
O52 O 0.82951 0.35602 0.3751 0.0
N53 N 0.8778 0.45077 0.35234 0.0
C54 C 0.89845 0.46007 0.34839 0.0
C55 C 0.90797 0.47545 0.31876 0.0
C56 C 0.89622 0.4814 0.29393 0.0
C57 C 0.875 0.47168 0.29864 0.0
C58 C 0.86637 0.45651 0.32875 0.0
H59 H 0.90763 0.4559 0.36779 0.0
O60 O 0.86853 0.38129 0.34435 0.0
O61 O 0.85679 0.40432 0.36682 0.0
O62 O 0.88442 0.39875 0.41778 0.0
O63 O 0.88505 0.43327 0.41969 0.0
C64 C 0.86207 0.47654 0.27478 0.0
C65 C 0.84081 0.46592 0.28104 0.0
H66 H 0.80069 0.44212 0.30187 0.0
H67 H 0.78835 0.41589 0.35693 0.0
H68 H 0.92436 0.4829 0.31532 0.0
H69 H 0.90368 0.49353 0.27147 0.0
H70 H 0.86831 0.48833 0.2514 0.0
H71 H 0.83101 0.46958 0.26223 0.0
Mn72 Mn 0.44456 0.84747 0.78103 0.0
Mn73 Mn 0.40416 0.85873 0.78689 0.0
C74 C 0.43391 0.85962 0.72838 0.0
C75 C 0.45692 0.82122 0.76974 0.0
C76 C 0.44655 0.89117 0.81431 0.0
O77 O 0.43161 0.83297 0.83104 0.0
O78 O 0.40411 0.83966 0.83068 0.0
C79 C 0.37153 0.81214 0.77478 0.0
N80 N 0.38108 0.83435 0.76423 0.0
C81 C 0.35804 0.82748 0.71187 0.0
C82 C 0.34786 0.80456 0.72234 0.0
C83 C 0.35465 0.79686 0.75391 0.0
C84 C 0.37467 0.84194 0.7339 0.0
H85 H 0.37678 0.80612 0.79887 0.0
C86 C 0.41506 0.83119 0.84568 0.0
O87 O 0.4679 0.83989 0.78797 0.0
O88 O 0.43875 0.81754 0.75975 0.0
N89 N 0.40223 0.87691 0.74624 0.0
C90 C 0.41411 0.89938 0.73921 0.0
C91 C 0.40961 0.90964 0.70811 0.0
C92 C 0.39288 0.89677 0.68476 0.0
C93 C 0.38067 0.87378 0.69296 0.0
C94 C 0.38578 0.86452 0.72455 0.0
H95 H 0.42704 0.90935 0.75696 0.0
O96 O 0.45216 0.8613 0.72986 0.0
O97 O 0.42216 0.85024 0.75739 0.0
O98 O 0.45545 0.87916 0.80482 0.0
O99 O 0.42748 0.88482 0.80958 0.0
C100 C 0.36382 0.8596 0.67067 0.0
C101 C 0.35254 0.83646 0.68008 0.0
H102 H 0.33492 0.79269 0.70618 0.0
H103 H 0.34694 0.77917 0.76205 0.0
H104 H 0.41909 0.92741 0.70201 0.0
H105 H 0.38959 0.90469 0.66055 0.0
H106 H 0.35954 0.86626 0.64599 0.0
H107 H 0.33975 0.82568 0.66248 0.0
Mn108 Mn 0.64794 0.48621 0.03375 0.0
Mn109 Mn 0.60037 0.44405 0.02017 0.0
C110 C 0.63302 0.48166 0.97519 0.0
C111 C 0.68295 0.49661 0.03415 0.0
C112 C 0.60865 0.48882 0.05655 0.0
O113 O 0.64318 0.46687 0.08091 0.0
O114 O 0.61186 0.43909 0.06833 0.0
C115 C 0.61266 0.40768 0.0072 0.0
N116 N 0.60289 0.41981 -0.00483 0.0
C117 C 0.59233 0.39821 0.9375 0.0
C118 C 0.60216 0.38536 0.94938 0.0
C119 C 0.61243 0.39017 0.98433 0.0
C120 C 0.59316 0.41549 0.96142 0.0
H121 H 0.62059 0.41137 0.03402 0.0
C122 C 0.62759 0.44854 0.08959 0.0
O123 O 0.67578 0.50868 0.05216 0.0
O124 O 0.66985 0.47865 0.01711 0.0
N125 N 0.58673 0.44611 0.97521 0.0
C126 C 0.5779 0.45998 0.9681 0.0
C127 C 0.56697 0.45738 0.93429 0.0
C128 C 0.5649 0.44028 0.90854 0.0
C129 C 0.57369 0.42584 0.91692 0.0
C130 C 0.58433 0.42919 0.95113 0.0
H131 H 0.57927 0.47301 0.98798 0.0
O132 O 0.6487 0.50046 0.98391 0.0
O133 O 0.62707 0.46548 0.00039 0.0
O134 O 0.62822 0.49834 0.05449 0.0
O135 O 0.59703 0.46879 0.04486 0.0
C136 C 0.57241 0.40834 0.89262 0.0
C137 C 0.58183 0.39462 0.90279 0.0
H138 H 0.60199 0.37183 0.93184 0.0
H139 H 0.62012 0.3804 -0.00638 0.0
H140 H 0.56013 0.4685 0.92814 0.0
H141 H 0.55649 0.43836 0.88248 0.0
H142 H 0.56431 0.40535 0.86593 0.0
H143 H 0.58088 0.38134 0.88373 0.0
Mn144 Mn 0.14155 0.6118 0.39654 0.0
Mn145 Mn 0.14067 0.56038 0.39109 0.0
C146 C 0.13702 0.59405 0.33881 0.0
C147 C 0.16174 0.65109 0.39613 0.0
C148 C 0.10479 0.56752 0.4191 0.0
O149 O 0.15293 0.60861 0.44748 0.0
O150 O 0.15452 0.57568 0.43855 0.0
C151 C 0.18496 0.57527 0.38235 0.0
N152 N 0.16557 0.56341 0.36917 0.0
C153 C 0.17726 0.55034 0.31512 0.0
C154 C 0.19735 0.56229 0.32824 0.0
C155 C 0.20122 0.57486 0.36195 0.0
C156 C 0.16169 0.55137 0.33667 0.0
H157 H 0.18799 0.58498 0.40821 0.0
C158 C 0.15785 0.59328 0.45825 0.0
O159 O 0.14344 0.64229 0.41043 0.0
O160 O 0.16817 0.6372 0.38304 0.0
N161 N 0.12783 0.54367 0.34636 0.0
C162 C 0.10771 0.53392 0.33674 0.0
C163 C 0.10133 0.52116 0.30326 0.0
C164 C 0.11565 0.51836 0.28025 0.0
C165 C 0.13623 0.52832 0.29098 0.0
C166 C 0.14168 0.54077 0.32474 0.0
H167 H 0.09662 0.53594 0.35438 0.0
O168 O 0.13205 0.61041 0.34326 0.0
O169 O 0.14499 0.58903 0.36799 0.0
O170 O 0.11246 0.58896 0.41326 0.0
O171 O 0.11439 0.55579 0.41293 0.0
C172 C 0.1516 0.52661 0.26929 0.0
C173 C 0.17211 0.53771 0.28124 0.0
H174 H 0.20994 0.56206 0.31253 0.0
H175 H 0.21669 0.58421 0.37216 0.0
H176 H 0.08541 0.51351 0.29518 0.0
H177 H 0.11068 0.5086 0.25436 0.0
H178 H 0.14786 0.51698 0.24318 0.0
H179 H 0.18382 0.53654 0.26404 0.0
Mn180 Mn 0.58479 0.16622 0.7512 0.0
Mn181 Mn 0.61731 0.14306 0.74959 0.0
C182 C 0.58572 0.14577 0.69939 0.0
C183 C 0.57887 0.19718 0.73696 0.0
C184 C 0.57672 0.12159 0.79072 0.0
O185 O 0.60377 0.1821 0.79472 0.0
O186 O 0.62474 0.16571 0.79135 0.0
C187 C 0.65411 0.18423 0.7261 0.0
N188 N 0.64049 0.16222 0.7199 0.0
C189 C 0.65805 0.16078 0.66313 0.0
C190 C 0.67235 0.18341 0.66903 0.0
C191 C 0.67034 0.19519 0.70062 0.0
C192 C 0.64223 0.15075 0.68952 0.0
H193 H 0.65258 0.19336 0.75028 0.0
C194 C 0.61882 0.17929 0.80681 0.0
O195 O 0.56759 0.18219 0.76184 0.0
O196 O 0.59399 0.19477 0.72272 0.0
N197 N 0.61212 0.12089 0.71086 0.0
C198 C 0.5967 0.09939 0.70868 0.0
C199 C 0.59627 0.08542 0.67837 0.0
C200 C 0.6118 0.09359 0.65092 0.0
C201 C 0.62763 0.11569 0.654 0.0
C202 C 0.6273 0.1288 0.68491 0.0
H203 H 0.58476 0.093 0.72977 0.0
O204 O 0.57001 0.14928 0.70578 0.0
O205 O 0.60087 0.155 0.72308 0.0
O206 O 0.57117 0.13697 0.78309 0.0
O207 O 0.59357 0.12232 0.77947 0.0
C208 C 0.64362 0.12531 0.62745 0.0
C209 C 0.65876 0.14787 0.63191 0.0
H210 H 0.68486 0.19193 0.64939 0.0
H211 H 0.68127 0.21268 0.70528 0.0
H212 H 0.58401 0.06838 0.67619 0.0
H213 H 0.61141 0.08275 0.62761 0.0
H214 H 0.64432 0.11555 0.60333 0.0
H215 H 0.67085 0.15515 0.61107 0.0
Mn216 Mn 0.42491 0.60652 0.55845 0.0
Mn217 Mn 0.38359 0.5565 0.57386 0.0
C218 C 0.41886 0.59065 0.61767 0.0
C219 C 0.43953 0.6459 0.55672 0.0
C220 C 0.42244 0.56039 0.53752 0.0
O221 O 0.40791 0.60279 0.51143 0.0
O222 O 0.3804 0.57003 0.52551 0.0
C223 C 0.35369 0.57447 0.58597 0.0
N224 N 0.36333 0.56235 0.59875 0.0
C225 C 0.34426 0.55337 0.65704 0.0
C226 C 0.33404 0.56565 0.64444 0.0
C227 C 0.33883 0.57631 0.60879 0.0
C228 C 0.35899 0.55222 0.63313 0.0
H229 H 0.35732 0.58267 0.55857 0.0
C230 C 0.39026 0.587 0.50367 0.0
O231 O 0.44796 0.63503 0.539 0.0
O232 O 0.42225 0.63389 0.57338 0.0
N233 N 0.38439 0.5414 0.61969 0.0
C234 C 0.39581 0.53043 0.62781 0.0
C235 C 0.39303 0.51905 0.66261 0.0
C236 C 0.37832 0.51874 0.68837 0.0
C237 C 0.36651 0.52984 0.67912 0.0
C238 C 0.37 0.54094 0.64407 0.0
H239 H 0.40703 0.53046 0.60797 0.0
O240 O 0.43685 0.60607 0.60843 0.0
O241 O 0.40457 0.58553 0.59235 0.0
O242 O 0.43252 0.58198 0.53943 0.0
O243 O 0.40403 0.54919 0.549 0.0
C244 C 0.35143 0.53033 0.70328 0.0
C245 C 0.34043 0.54224 0.69239 0.0
H246 H 0.32254 0.56707 0.66193 0.0
H247 H 0.33106 0.58588 0.59891 0.0
H248 H 0.40216 0.51047 0.6695 0.0
H249 H 0.3762 0.5099 0.71514 0.0
H250 H 0.34821 0.52169 0.73039 0.0
H251 H 0.32904 0.54271 0.71141 0.0
Mn252 Mn 0.88274 0.47297 0.90191 0.0
Mn253 Mn 0.89023 0.42637 0.89441 0.0
C254 C 0.89156 0.45889 0.95457 0.0
C255 C 0.85896 0.48705 0.9121 0.0
C256 C 0.92162 0.47338 0.87017 0.0
O257 O 0.8707 0.46019 0.85046 0.0
O258 O 0.87351 0.42762 0.85102 0.0
C259 C 0.84771 0.39127 0.90565 0.0
N260 N 0.86766 0.40097 0.91633 0.0
C261 C 0.86056 0.37389 0.96678 0.0
C262 C 0.83996 0.3635 0.95617 0.0
C263 C 0.8335 0.37227 0.92552 0.0
C264 C 0.87403 0.39271 0.94582 0.0
H265 H 0.84267 0.398 0.88219 0.0
C266 C 0.86745 0.44118 0.83594 0.0
O267 O 0.87637 0.49954 0.89574 0.0
O268 O 0.85545 0.46666 0.92116 0.0
N269 N 0.90598 0.42294 0.93491 0.0
C270 C 0.92615 0.43567 0.94284 0.0
C271 C 0.93488 0.42962 0.97352 0.0
C272 C 0.92286 0.41045 -0.00451 0.0
C273 C 0.9022 0.39747 0.98652 0.0
C274 C 0.89435 0.40429 0.95556 0.0
H275 H 0.93548 0.45041 0.92606 0.0
O276 O 0.89377 0.47949 0.95426 0.0
O277 O 0.88354 0.44686 0.92446 0.0
O278 O 0.91205 0.48449 0.88102 0.0
O279 O 0.91434 0.45181 0.87229 0.0
C280 C 0.88903 0.37823 0.00742 0.0
C281 C 0.86821 0.36651 -0.00232 0.0
H282 H 0.82894 0.34891 0.97153 0.0
H283 H 0.81761 0.36442 0.91728 0.0
H284 H 0.95084 0.43973 0.98026 0.0
H285 H 0.92962 0.40592 0.01927 0.0
H286 H 0.89471 0.37243 0.0313 0.0
H287 H 0.85817 0.35195 0.01434 0.0
Mn288 Mn 0.36902 0.85219 0.28168 0.0
Mn289 Mn 0.41236 0.84789 0.29816 0.0
C290 C 0.383 0.85957 0.3413 0.0
C291 C 0.33346 0.8325 0.27842 0.0
C292 C 0.41125 0.88809 0.25805 0.0
O293 O 0.3721 0.836 0.23518 0.0
O294 O 0.39879 0.82997 0.25229 0.0
C295 C 0.39417 0.79919 0.31814 0.0
N296 N 0.40632 0.82124 0.32735 0.0
C297 C 0.41487 0.8105 0.38745 0.0
C298 C 0.40257 0.78765 0.37851 0.0
C299 C 0.39213 0.78199 0.34374 0.0
C300 C 0.41632 0.82689 0.36081 0.0
H301 H 0.3861 0.79479 0.29147 0.0
C302 C 0.38439 0.82752 0.2294 0.0
O303 O 0.34324 0.85191 0.26126 0.0
O304 O 0.34425 0.82474 0.29663 0.0
N305 N 0.42719 0.8643 0.34171 0.0
C306 C 0.43785 0.88715 0.34654 0.0
C307 C 0.44891 0.89569 0.38014 0.0
C308 C 0.44908 0.88067 0.40819 0.0
C309 C 0.43819 0.85721 0.4024 0.0
C310 C 0.42754 0.8497 0.36826 0.0
H311 H 0.43789 0.89879 0.32499 0.0
O312 O 0.36954 0.86624 0.33173 0.0
O313 O 0.38723 0.84792 0.31614 0.0
O314 O 0.3922 0.8824 0.26224 0.0
O315 O 0.41983 0.87599 0.2689 0.0
C316 C 0.4373 0.84099 0.4293 0.0
C317 C 0.42556 0.81766 0.42192 0.0
H318 H 0.40092 0.77434 0.39821 0.0
H319 H 0.38253 0.7644 0.33672 0.0
H320 H 0.4573 0.91381 0.38439 0.0
H321 H 0.45761 0.88734 0.43408 0.0
H322 H 0.44542 0.84627 0.45593 0.0
H323 H 0.42478 0.80537 0.44303 0.0
Mn324 Mn 0.55969 0.41705 0.54664 0.0
Mn325 Mn 0.58618 0.47323 0.53091 0.0
C326 C 0.56649 0.44225 0.59573 0.0
C327 C 0.55947 0.38297 0.56412 0.0
C328 C 0.54143 0.44636 0.51219 0.0
O329 O 0.57259 0.41818 0.49515 0.0
O330 O 0.58971 0.45613 0.48748 0.0
C331 C 0.62768 0.4765 0.53502 0.0
N332 N 0.61354 0.48283 0.54798 0.0
C333 C 0.63663 0.50677 0.59561 0.0
C334 C 0.6515 0.50063 0.58257 0.0
C335 C 0.647 0.48543 0.55214 0.0
C336 C 0.61774 0.49753 0.57714 0.0
H337 H 0.62423 0.46464 0.5119 0.0
C338 C 0.58415 0.43576 0.47613 0.0
O339 O 0.54417 0.38308 0.54567 0.0
O340 O 0.5751 0.40232 0.56982 0.0
N341 N 0.58413 0.49156 0.57107 0.0
C342 C 0.56778 0.49484 0.58144 0.0
C343 C 0.56957 0.50912 0.61214 0.0
C344 C 0.58813 0.5199 0.63179 0.0
C345 C 0.6048 0.51643 0.62036 0.0
C346 C 0.60219 0.50222 0.58926 0.0
H347 H 0.55342 0.48643 0.56667 0.0
O348 O 0.5515 0.42203 0.59811 0.0
O349 O 0.57712 0.44706 0.56462 0.0
O350 O 0.53936 0.42699 0.52317 0.0
O351 O 0.55814 0.46462 0.51375 0.0
C352 C 0.62377 0.52612 0.6391 0.0
C353 C 0.63967 0.5213 0.62672 0.0
H354 H 0.66635 0.50732 0.59593 0.0
H355 H 0.65835 0.48051 0.54207 0.0
H356 H 0.55662 0.51168 0.62084 0.0
H357 H 0.58937 0.53068 0.65575 0.0
H358 H 0.62621 0.53709 0.66334 0.0
H359 H 0.65411 0.52865 0.64163 0.0
Mn360 Mn 0.1713 0.52913 0.90132 0.0
Mn361 Mn 0.16633 0.57739 0.90891 0.0
C362 C 0.16415 0.53954 0.95938 0.0
C363 C 0.19396 0.51304 0.90116 0.0
C364 C 0.13285 0.53322 0.87879 0.0
O365 O 0.1821 0.54496 0.85091 0.0
O366 O 0.18132 0.57809 0.8618 0.0
C367 C 0.20995 0.60898 0.92011 0.0
N368 N 0.19026 0.60007 0.9323 0.0
C369 C 0.19987 0.62446 0.98688 0.0
C370 C 0.22025 0.63401 0.97481 0.0
C371 C 0.22531 0.62616 0.94135 0.0
C372 C 0.18525 0.60728 0.96467 0.0
H373 H 0.21388 0.603 0.89437 0.0
C374 C 0.18573 0.56501 0.84113 0.0
O375 O 0.17596 0.50241 0.88594 0.0
O376 O 0.19871 0.53284 0.91522 0.0
N377 N 0.15216 0.57959 0.95304 0.0
C378 C 0.13182 0.56853 0.96084 0.0
C379 C 0.12425 0.57423 -0.00642 0.0
C380 C 0.13758 0.59154 0.0175 0.0
C381 C 0.15836 0.6031 0.00834 0.0
C382 C 0.16503 0.59665 0.97539 0.0
H383 H 0.12145 0.55539 0.94234 0.0
O384 O 0.1615 0.51904 0.95373 0.0
O385 O 0.17198 0.55377 0.93147 0.0
O386 O 0.14175 0.5206 0.88429 0.0
O387 O 0.14102 0.55451 0.88559 0.0
C388 C 0.17275 0.62072 0.03066 0.0
C389 C 0.19351 0.63126 0.02012 0.0
H390 H 0.23213 0.64731 -0.00894 0.0
H391 H 0.24101 0.63338 0.93191 0.0
H392 H 0.10816 0.56533 0.00031 0.0
H393 H 0.1317 0.59584 0.04278 0.0
H394 H 0.16804 0.62624 0.05611 0.0
H395 H 0.20445 0.6446 0.03775 0.0
Mn396 Mn 0.62548 0.1342 0.26049 0.0
Mn397 Mn 0.58209 0.1393 0.25042 0.0
C398 C 0.60408 0.12709 0.31128 0.0
C399 C 0.66045 0.15358 0.27404 0.0
C400 C 0.58639 0.09773 0.22521 0.0
O401 O 0.62929 0.15029 0.21017 0.0
O402 O 0.60106 0.15542 0.20788 0.0
C403 C 0.59943 0.18868 0.26402 0.0
N404 N 0.58593 0.16709 0.27351 0.0
C405 C 0.57289 0.18028 0.3255 0.0
C406 C 0.58655 0.20267 0.31608 0.0
C407 C 0.59989 0.20688 0.28523 0.0
C408 C 0.57303 0.16284 0.30315 0.0
H409 H 0.60984 0.19198 0.24053 0.0
C410 C 0.61818 0.15805 0.19428 0.0
O411 O 0.65308 0.13443 0.25572 0.0
O412 O 0.64773 0.16133 0.28291 0.0
N413 N 0.56235 0.12471 0.28949 0.0
C414 C 0.55044 0.10212 0.29538 0.0
C415 C 0.5365 0.09501 0.32563 0.0
C416 C 0.53482 0.11117 0.3493 0.0
C417 C 0.54694 0.13433 0.34222 0.0
C418 C 0.56043 0.14041 0.31143 0.0
H419 H 0.55169 0.0896 0.27736 0.0
O420 O 0.61807 0.12024 0.31135 0.0
O421 O 0.60377 0.13905 0.28212 0.0
O422 O 0.60475 0.10389 0.2366 0.0
O423 O 0.57711 0.11009 0.22755 0.0
C424 C 0.54639 0.1516 0.36485 0.0
C425 C 0.55937 0.17456 0.35653 0.0
H426 H 0.58704 0.21675 0.33251 0.0
H427 H 0.61055 0.22411 0.27792 0.0
H428 H 0.52715 0.07711 0.33082 0.0
H429 H 0.5242 0.10562 0.37284 0.0
H430 H 0.53616 0.14742 0.38892 0.0
H431 H 0.55894 0.18768 0.37435 0.0
H432 H 0.36825 0.52179 0.1636 0.0
H433 H 0.35468 0.5264 0.22457 0.0
H434 H 0.40353 0.5943 0.23356 0.0
H435 H 0.41701 0.5901 0.17272 0.0
H436 H 0.37464 0.5339 0.29107 0.0
H437 H 0.35498 0.604 0.2644 0.0
H438 H 0.35904 0.5881 0.22649 0.0
H439 H 0.38038 0.61129 0.24852 0.0
C440 C 0.37602 0.53778 0.17839 0.0
C441 C 0.3938 0.55554 0.16331 0.0
C442 C 0.36814 0.54042 0.21307 0.0
C443 C 0.37782 0.56087 0.23309 0.0
C444 C 0.39545 0.57863 0.218 0.0
H445 H 0.40876 0.61545 0.44404 0.0
H446 H 0.39881 0.60825 0.37768 0.0
C447 C 0.40331 0.57606 0.1834 0.0
C448 C 0.3712 0.56292 0.27184 0.0
H449 H 0.36374 0.59982 0.32983 0.0
C450 C 0.37162 0.54789 0.2995 0.0
C451 C 0.36719 0.58115 0.28261 0.0
C452 C 0.36515 0.59689 0.25379 0.0
C453 C 0.37002 0.55179 0.33808 0.0
C454 C 0.3676 0.57104 0.34904 0.0
C455 C 0.36565 0.58513 0.32124 0.0
C456 C 0.37036 0.57851 0.3889 0.0
C457 C 0.3726 0.5363 0.36685 0.0
C458 C 0.35701 0.56497 0.41716 0.0
C459 C 0.36271 0.56892 0.45522 0.0
C460 C 0.38184 0.58652 0.46542 0.0
C461 C 0.39406 0.60157 0.43721 0.0
C462 C 0.38837 0.59754 0.39921 0.0
H463 H 0.37703 0.52393 0.3535 0.0
H464 H 0.38441 0.54633 0.38803 0.0
H465 H 0.35801 0.52664 0.38218 0.0
H466 H 0.34287 0.55042 0.40963 0.0
H467 H 0.35274 0.55725 0.4763 0.0
H468 H 0.82022 0.42228 0.48241 0.0
H469 H 0.81407 0.427 0.54916 0.0
H470 H 0.8307 0.37432 0.57984 0.0
H471 H 0.83655 0.36915 0.51321 0.0
H472 H 0.79958 0.37676 0.62743 0.0
H473 H 0.86825 0.45983 0.60787 0.0
H474 H 0.84678 0.45463 0.57801 0.0
H475 H 0.8602 0.43781 0.57255 0.0
C476 C 0.82203 0.41125 0.50325 0.0
C477 C 0.82936 0.39571 0.49263 0.0
C478 C 0.8185 0.41398 0.54135 0.0
C479 C 0.82245 0.40141 0.56935 0.0
C480 C 0.82769 0.38428 0.55856 0.0
H481 H 0.85775 0.40232 0.79572 0.0
H482 H 0.8423 0.39266 0.73319 0.0
C483 C 0.83105 0.38137 0.52043 0.0
C484 C 0.82435 0.40834 0.60955 0.0
H485 H 0.85584 0.44983 0.66943 0.0
C486 C 0.81167 0.39287 0.63668 0.0
C487 C 0.84017 0.42938 0.62143 0.0
C488 C 0.85476 0.44636 0.5936 0.0
C489 C 0.81476 0.39765 0.6756 0.0
C490 C 0.83119 0.41823 0.68746 0.0
C491 C 0.84322 0.43411 0.66023 0.0
C492 C 0.83777 0.42272 0.72751 0.0
C493 C 0.80063 0.3805 0.70362 0.0
C494 C 0.84061 0.443 0.74502 0.0
C495 C 0.84977 0.4488 0.7807 0.0
C496 C 0.85639 0.43446 0.7994 0.0
C497 C 0.85292 0.41382 0.7822 0.0
C498 C 0.84381 0.40809 0.74656 0.0
H499 H 0.78533 0.37022 0.69102 0.0
H500 H 0.80701 0.36874 0.71166 0.0
H501 H 0.79885 0.38883 0.72972 0.0
H502 H 0.83624 0.45463 0.73058 0.0
H503 H 0.85211 0.46477 0.79315 0.0
H504 H 0.38298 0.82759 0.88938 0.0
H505 H 0.37584 0.81481 0.9549 0.0
H506 H 0.42519 0.79637 0.95286 0.0
H507 H 0.43287 0.80967 0.88728 0.0
H508 H 0.36708 0.77471 -0.0049 0.0
H509 H 0.44248 0.84512 0.03477 0.0
H510 H 0.43169 0.84299 0.98819 0.0
H511 H 0.44295 0.82485 0.00141 0.0
C512 C 0.39221 0.82057 0.90255 0.0
C513 C 0.40881 0.82014 0.88325 0.0
C514 C 0.38801 0.81314 0.94002 0.0
C515 C 0.40023 0.80506 0.95889 0.0
C516 C 0.41584 0.80299 0.93895 0.0
H517 H 0.40764 0.80709 0.20558 0.0
H518 H 0.40979 0.7945 0.14143 0.0
C519 C 0.42018 0.81058 0.90146 0.0
C520 C 0.39783 0.80124 0.0003 0.0
H521 H 0.42073 0.82479 0.08399 0.0
C522 C 0.37891 0.78537 0.01465 0.0
C523 C 0.41331 0.81519 0.02568 0.0
C524 C 0.43371 0.83312 0.01192 0.0
C525 C 0.37479 0.7837 0.05371 0.0
C526 C 0.38991 0.79849 0.07882 0.0
C527 C 0.40919 0.81341 0.06464 0.0
C528 C 0.38553 0.80104 0.11901 0.0
C529 C 0.35415 0.76652 0.06762 0.0
C530 C 0.3708 0.80833 0.1279 0.0
C531 C 0.36953 0.81558 0.16452 0.0
C532 C 0.38316 0.81595 0.19284 0.0
C533 C 0.39702 0.80724 0.18442 0.0
C534 C 0.39824 0.79995 0.14778 0.0
H535 H 0.3474 0.75175 0.04818 0.0
H536 H 0.3551 0.76039 0.09653 0.0
H537 H 0.3437 0.77449 0.06853 0.0
H538 H 0.36113 0.80981 0.10599 0.0
H539 H 0.35862 0.82209 0.16995 0.0
H540 H 0.59329 0.42507 0.13096 0.0
H541 H 0.59102 0.41713 0.19849 0.0
H542 H 0.65636 0.44233 0.20373 0.0
H543 H 0.65885 0.45189 0.13607 0.0
H544 H 0.5991 0.39343 0.24727 0.0
H545 H 0.65061 0.48429 0.27649 0.0
H546 H 0.64197 0.47414 0.22939 0.0
H547 H 0.66224 0.4698 0.2507 0.0
C548 C 0.60719 0.42862 0.14627 0.0
C549 C 0.62629 0.43946 0.12834 0.0
C550 C 0.60587 0.42403 0.18502 0.0
C551 C 0.62357 0.42976 0.20662 0.0
C552 C 0.64255 0.43857 0.18804 0.0
H553 H 0.59404 0.40247 0.45189 0.0
H554 H 0.60662 0.39906 0.38884 0.0
C555 C 0.64395 0.44382 0.14932 0.0
C556 C 0.62188 0.4283 0.24869 0.0
H557 H 0.6354 0.46101 0.32844 0.0
C558 C 0.60716 0.40816 0.26513 0.0
C559 C 0.63239 0.44755 0.27203 0.0
C560 C 0.64755 0.47022 0.25632 0.0
C561 C 0.60158 0.40718 0.30346 0.0
C562 C 0.61173 0.42662 0.32647 0.0
C563 C 0.62755 0.44617 0.31071 0.0
C564 C 0.60463 0.42833 0.36529 0.0
C565 C 0.58394 0.38587 0.31804 0.0
C566 C 0.59995 0.44627 0.37351 0.0
C567 C 0.59345 0.44862 0.40959 0.0
C568 C 0.59107 0.43283 0.43818 0.0
C569 C 0.59555 0.41472 0.43013 0.0
C570 C 0.60261 0.41269 0.39407 0.0
H571 H 0.57487 0.37465 0.29459 0.0
H572 H 0.58991 0.37622 0.33558 0.0
H573 H 0.5736 0.38997 0.3359 0.0
H574 H 0.60125 0.4585 0.35184 0.0
H575 H 0.58998 0.46266 0.41493 0.0
H576 H 0.16456 0.56118 0.49613 0.0
H577 H 0.17765 0.56333 0.56015 0.0
H578 H 0.18661 0.6323 0.5697 0.0
H579 H 0.17294 0.63016 0.50572 0.0
H580 H 0.21374 0.59089 0.59595 0.0
H581 H 0.14856 0.60109 0.65758 0.0
H582 H 0.14915 0.59367 0.6086 0.0
H583 H 0.16372 0.62249 0.62395 0.0
C584 C 0.1694 0.5769 0.51164 0.0
C585 C 0.16737 0.59539 0.49597 0.0
C586 C 0.17698 0.57811 0.54823 0.0
C587 C 0.18278 0.59783 0.56986 0.0
C588 C 0.18179 0.61675 0.55371 0.0
H589 H 0.20089 0.60822 0.81361 0.0
H590 H 0.20579 0.61975 0.74717 0.0
C591 C 0.174 0.6155 0.51715 0.0
C592 C 0.18852 0.59779 0.61005 0.0
H593 H 0.17221 0.59917 0.70007 0.0
C594 C 0.20482 0.59295 0.61879 0.0
C595 C 0.17678 0.60038 0.63973 0.0
C596 C 0.15847 0.6045 0.63217 0.0
C597 C 0.20943 0.59016 0.65649 0.0
C598 C 0.19733 0.59215 0.68597 0.0
C599 C 0.18154 0.59781 0.67731 0.0
C600 C 0.19934 0.58653 0.72584 0.0
C601 C 0.22699 0.58484 0.66445 0.0
C602 C 0.19483 0.56419 0.73588 0.0
C603 C 0.19196 0.55748 0.77391 0.0
C604 C 0.19333 0.57298 0.80238 0.0
C605 C 0.19945 0.59577 0.79235 0.0
C606 C 0.20234 0.60244 0.7544 0.0
H607 H 0.23819 0.59041 0.64078 0.0
H608 H 0.23495 0.59309 0.69104 0.0
H609 H 0.22107 0.56624 0.66782 0.0
H610 H 0.1921 0.55155 0.7142 0.0
H611 H 0.18727 0.53981 0.78063 0.0
H612 H 0.59742 0.17329 0.14669 0.0
H613 H 0.60651 0.18697 0.08164 0.0
H614 H 0.66309 0.18256 0.0923 0.0
H615 H 0.65417 0.16869 0.15721 0.0
H616 H 0.64296 0.22415 0.0456 0.0
H617 H 0.63003 0.13688 0.00711 0.0
H618 H 0.62134 0.14303 0.05147 0.0
H619 H 0.64787 0.15066 0.04468 0.0
C620 C 0.61195 0.17555 0.1355 0.0
C621 C 0.62488 0.16946 0.15702 0.0
C622 C 0.61715 0.18347 0.09836 0.0
C623 C 0.63533 0.18548 0.08215 0.0
C624 C 0.64888 0.18087 0.10427 0.0
H625 H 0.65348 0.18143 0.83965 0.0
H626 H 0.66325 0.18933 0.90619 0.0
C627 C 0.6437 0.1729 0.14136 0.0
C628 C 0.63892 0.18987 0.04105 0.0
H629 H 0.63761 0.16309 0.95788 0.0
C630 C 0.64205 0.21094 0.02633 0.0
C631 C 0.63781 0.17261 0.01614 0.0
C632 C 0.63395 0.14944 0.03042 0.0
C633 C 0.64367 0.21504 0.98705 0.0
C634 C 0.64164 0.19741 0.96204 0.0
C635 C 0.63931 0.17667 0.97702 0.0
C636 C 0.63943 0.19877 0.92043 0.0
C637 C 0.64738 0.23811 0.97279 0.0
C638 C 0.62338 0.20245 0.90588 0.0
C639 C 0.61785 0.19813 0.86777 0.0
C640 C 0.62802 0.1896 0.84364 0.0
C641 C 0.64517 0.18774 0.85753 0.0
C642 C 0.65081 0.19229 0.89558 0.0
H643 H 0.6561 0.25149 -0.00617 0.0
H644 H 0.65584 0.24234 0.94551 0.0
H645 H 0.6325 0.23831 0.96839 0.0
H646 H 0.61406 0.20696 0.92452 0.0
H647 H 0.60457 0.19977 0.85812 0.0
H648 H 0.34081 0.46547 0.00909 0.0
H649 H 0.30669 0.45233 0.9805 0.0
H650 H 0.30127 0.50862 0.03174 0.0
H651 H 0.33501 0.5217 0.0598 0.0
H652 H 0.26393 0.46619 0.03114 0.0
H653 H 0.30221 0.49138 0.89027 0.0
H654 H 0.30655 0.47133 0.91882 0.0
H655 H 0.31648 0.50027 0.93387 0.0
C656 C 0.33197 0.47451 0.0152 0.0
C657 C 0.34048 0.49459 0.03658 0.0
C658 C 0.31261 0.46715 -0.00141 0.0
C659 C 0.30156 0.47968 0.00363 0.0
C660 C 0.30949 0.49869 0.02744 0.0
H661 H 0.23492 0.53585 0.90772 0.0
H662 H 0.25844 0.52095 0.92674 0.0
C663 C 0.32878 0.50614 0.04349 0.0
C664 C 0.2829 0.47509 0.9814 0.0
H665 H 0.26883 0.48687 0.89499 0.0
C666 C 0.26471 0.46995 0.00107 0.0
C667 C 0.28407 0.48024 0.94223 0.0
C668 C 0.30334 0.48621 0.91983 0.0
C669 C 0.24819 0.4714 0.98328 0.0
C670 C 0.2499 0.47809 0.94478 0.0
C671 C 0.26752 0.48161 0.92442 0.0
C672 C 0.23563 0.48588 0.92773 0.0
C673 C 0.2297 0.46766 0.00658 0.0
C674 C 0.21503 0.47101 0.92058 0.0
C675 C 0.20145 0.47955 0.90926 0.0
C676 C 0.20832 0.50307 0.9054 0.0
C677 C 0.22914 0.51766 0.91063 0.0
C678 C 0.24263 0.50916 0.92145 0.0
H679 H 0.23136 0.46407 0.03682 0.0
H680 H 0.22694 0.48285 0.00507 0.0
H681 H 0.21606 0.45311 -0.00509 0.0
H682 H 0.20935 0.45295 0.92497 0.0
H683 H 0.18546 0.46794 0.90562 0.0
H684 H 0.7957 0.32398 0.35817 0.0
H685 H 0.77303 0.2854 0.33934 0.0
H686 H 0.81607 0.26286 0.38095 0.0
H687 H 0.8392 0.30202 0.40032 0.0
H688 H 0.78344 0.25818 0.2868 0.0
H689 H 0.75945 0.21899 0.4298 0.0
H690 H 0.77036 0.24932 0.42341 0.0
H691 H 0.78619 0.23525 0.41915 0.0
C692 C 0.80042 0.3109 0.36366 0.0
C693 C 0.81932 0.31613 0.38075 0.0
C694 C 0.78742 0.28881 0.35269 0.0
C695 C 0.79287 0.27127 0.35853 0.0
C696 C 0.81154 0.27616 0.37631 0.0
H697 H 0.69442 0.14848 0.2513 0.0
H698 H 0.73011 0.17211 0.27108 0.0
C699 C 0.82469 0.29849 0.38742 0.0
C700 C 0.7786 0.24814 0.34544 0.0
H701 H 0.73954 0.19912 0.37786 0.0
C702 C 0.7742 0.24488 0.30651 0.0
C703 C 0.76664 0.23088 0.37126 0.0
C704 C 0.77074 0.2336 0.41331 0.0
C705 C 0.75705 0.22576 0.29307 0.0
C706 C 0.74408 0.20939 0.31927 0.0
C707 C 0.74956 0.21166 0.35781 0.0
C708 C 0.72283 0.19325 0.30892 0.0
C709 C 0.75186 0.22427 0.25146 0.0
C710 C 0.707 0.19701 0.32406 0.0
C711 C 0.68694 0.1838 0.31284 0.0
C712 C 0.68202 0.16629 0.28618 0.0
C713 C 0.69776 0.16191 0.27173 0.0
C714 C 0.7181 0.1754 0.28295 0.0
H715 H 0.76298 0.23911 0.23518 0.0
H716 H 0.75168 0.2087 0.23931 0.0
H717 H 0.73641 0.22314 0.24764 0.0
H718 H 0.71024 0.21069 0.34398 0.0
H719 H 0.67525 0.18757 0.32496 0.0
H720 H 0.43663 0.77564 0.76393 0.0
H721 H 0.44661 0.75136 0.72598 0.0
H722 H 0.50484 0.80828 0.70292 0.0
H723 H 0.49503 0.83268 0.74196 0.0
H724 H 0.47784 0.78474 0.63712 0.0
H725 H 0.48998 0.726 0.73449 0.0
H726 H 0.46838 0.73069 0.74644 0.0
H727 H 0.49362 0.75387 0.74883 0.0
C728 C 0.45186 0.78276 0.75202 0.0
C729 C 0.46513 0.80593 0.756 0.0
C730 C 0.45755 0.7689 0.73035 0.0
C731 C 0.47648 0.77803 0.71181 0.0
C732 C 0.49025 0.80092 0.71736 0.0
H733 H 0.48033 0.67204 0.56717 0.0
H734 H 0.49607 0.70926 0.59834 0.0
C735 C 0.4847 0.81476 0.73982 0.0
C736 C 0.48015 0.76422 0.68262 0.0
H737 H 0.47895 0.71241 0.67104 0.0
C738 C 0.47875 0.76926 0.64436 0.0
C739 C 0.48141 0.74413 0.69214 0.0
C740 C 0.48362 0.73838 0.73272 0.0
C741 C 0.4767 0.75367 0.61566 0.0
C742 C 0.47606 0.73264 0.6256 0.0
C743 C 0.47939 0.72855 0.66345 0.0
C744 C 0.4684 0.71324 0.59902 0.0
C745 C 0.47403 0.75921 0.57521 0.0
C746 C 0.44784 0.70356 0.58809 0.0
C747 C 0.43882 0.68231 0.57085 0.0
C748 C 0.45026 0.67048 0.56383 0.0
C749 C 0.47127 0.68099 0.57176 0.0
C750 C 0.48024 0.70216 0.58975 0.0
H751 H 0.48097 0.77783 0.5705 0.0
H752 H 0.48094 0.7517 0.55513 0.0
H753 H 0.4575 0.75208 0.56879 0.0
H754 H 0.43835 0.71164 0.59553 0.0
H755 H 0.42257 0.67447 0.56527 0.0
H756 H 0.71575 0.53918 0.0373 0.0
H757 H 0.75149 0.54898 0.02106 0.0
H758 H 0.73504 0.47808 0.00619 0.0
H759 H 0.69971 0.46828 0.02181 0.0
H760 H 0.77435 0.50912 0.05206 0.0
H761 H 0.76677 0.53649 0.9057 0.0
H762 H 0.75743 0.54571 0.9462 0.0
H763 H 0.74448 0.51675 0.93117 0.0
C764 C 0.71992 0.52573 0.03128 0.0
C765 C 0.70496 0.50297 0.03072 0.0
C766 C 0.74025 0.53134 0.02178 0.0
C767 C 0.74581 0.51422 0.01214 0.0
C768 C 0.73105 0.49152 0.01341 0.0
H769 H 0.82043 0.46169 0.93706 0.0
H770 H 0.79655 0.47445 0.96208 0.0
C771 C 0.71086 0.48597 0.02238 0.0
C772 C 0.76661 0.51934 -0.00105 0.0
H773 H 0.79395 0.52748 0.91702 0.0
C774 C 0.77899 0.51385 0.02286 0.0
C775 C 0.77262 0.52549 0.96086 0.0
C776 C 0.75973 0.5315 0.93424 0.0
C777 C 0.79649 0.51286 0.00899 0.0
C778 C 0.8015 0.51702 0.97007 0.0
C779 C 0.79006 0.52427 0.94683 0.0
C780 C 0.81612 0.51006 0.95225 0.0
C781 C 0.80886 0.50605 0.03561 0.0
C782 C 0.83485 0.52585 0.93693 0.0
C783 C 0.84875 0.51854 0.92233 0.0
C784 C 0.84395 0.49536 0.92274 0.0
C785 C 0.82477 0.47969 0.93659 0.0
C786 C 0.81107 0.48694 0.95108 0.0
H787 H 0.80698 0.51004 0.06552 0.0
H788 H 0.80357 0.48749 0.03349 0.0
H789 H 0.82531 0.51474 0.02811 0.0
H790 H 0.83894 0.54378 0.93726 0.0
H791 H 0.8634 0.53101 0.91188 0.0
H792 H 0.20239 0.67314 0.40648 0.0
H793 H 0.22551 0.71181 0.3872 0.0
H794 H 0.17416 0.72294 0.35442 0.0
H795 H 0.15074 0.68403 0.37473 0.0
H796 H 0.20566 0.72998 0.2956 0.0
H797 H 0.23887 0.77669 0.42837 0.0
H798 H 0.23692 0.74858 0.42751 0.0
H799 H 0.2141 0.75225 0.42661 0.0
C800 C 0.19599 0.68407 0.39633 0.0
C801 C 0.17481 0.67572 0.39234 0.0
C802 C 0.20921 0.70617 0.38536 0.0
C803 C 0.20157 0.72031 0.36961 0.0
C804 C 0.18034 0.71235 0.36689 0.0
H805 H 0.30533 0.84788 0.29469 0.0
H806 H 0.26936 0.82407 0.31221 0.0
C807 C 0.167 0.69024 0.37869 0.0
C808 C 0.21609 0.74205 0.35202 0.0
H809 H 0.25979 0.78984 0.37213 0.0
C810 C 0.21715 0.74346 0.31229 0.0
C811 C 0.23101 0.75967 0.37376 0.0
C812 C 0.23012 0.7594 0.41647 0.0
C813 C 0.23376 0.76099 0.29386 0.0
C814 C 0.24966 0.77744 0.31572 0.0
C815 C 0.24763 0.77718 0.35534 0.0
C816 C 0.26986 0.79235 0.29891 0.0
C817 C 0.23478 0.76107 0.25117 0.0
C818 C 0.28187 0.78244 0.28503 0.0
C819 C 0.30228 0.79588 0.27563 0.0
C820 C 0.31105 0.81954 0.27932 0.0
C821 C 0.29877 0.82968 0.2909 0.0
C822 C 0.27831 0.81612 0.30113 0.0
H823 H 0.21931 0.75213 0.2385 0.0
H824 H 0.24241 0.77866 0.23993 0.0
H825 H 0.24372 0.75214 0.24207 0.0
H826 H 0.27581 0.76416 0.28371 0.0
H827 H 0.31153 0.78767 0.26722 0.0
H828 H 0.55635 0.21673 0.76961 0.0
H829 H 0.54979 0.24717 0.74221 0.0
H830 H 0.58272 0.24648 0.64122 0.0
H831 H 0.59003 0.21733 0.6688 0.0
H832 H 0.59551 0.28757 0.66477 0.0
H833 H 0.5109 0.24684 0.66139 0.0
H834 H 0.52143 0.24787 0.7077 0.0
H835 H 0.52512 0.23114 0.67111 0.0
C836 C 0.5621 0.22314 0.74158 0.0
C837 C 0.57392 0.2149 0.72157 0.0
C838 C 0.55819 0.24034 0.72578 0.0
C839 C 0.56561 0.249 0.68944 0.0
C840 C 0.57691 0.24021 0.66932 0.0
H841 H 0.5376 0.33828 0.54247 0.0
H842 H 0.53807 0.30499 0.57337 0.0
C843 C 0.58115 0.22356 0.68525 0.0
C844 C 0.56307 0.26821 0.67264 0.0
H845 H 0.52803 0.28577 0.64377 0.0
C846 C 0.58071 0.28709 0.66015 0.0
C847 C 0.54377 0.26749 0.66608 0.0
C848 C 0.52419 0.24717 0.67692 0.0
C849 C 0.57967 0.30509 0.64097 0.0
C850 C 0.56046 0.30484 0.63566 0.0
C851 C 0.54274 0.286 0.64811 0.0
C852 C 0.55878 0.32436 0.61811 0.0
C853 C 0.59921 0.32388 0.62569 0.0
C854 C 0.56978 0.34606 0.63352 0.0
C855 C 0.56998 0.3649 0.61547 0.0
C856 C 0.55865 0.36244 0.58223 0.0
C857 C 0.54665 0.34061 0.56781 0.0
C858 C 0.54684 0.32165 0.58553 0.0
H859 H 0.61097 0.31792 0.62082 0.0
H860 H 0.59661 0.33075 0.5986 0.0
H861 H 0.60547 0.33784 0.6467 0.0
H862 H 0.57851 0.3485 0.65932 0.0
H863 H 0.57894 0.38147 0.62786 0.0
H864 H 0.44489 0.50051 0.0491 0.0
H865 H 0.47494 0.49364 0.05374 0.0
H866 H 0.49893 0.54335 0.14297 0.0
H867 H 0.46934 0.55079 0.13743 0.0
H868 H 0.52662 0.55212 0.09039 0.0
H869 H 0.4946 0.46092 0.12559 0.0
H870 H 0.48313 0.4657 0.08385 0.0
H871 H 0.47971 0.47638 0.12888 0.0
C872 C 0.45626 0.5094 0.07053 0.0
C873 C 0.45472 0.52611 0.09301 0.0
C874 C 0.47348 0.50549 0.07317 0.0
C875 C 0.48923 0.51787 0.09891 0.0
C876 C 0.48707 0.53362 0.12283 0.0
H877 H 0.59047 0.4838 0.12489 0.0
H878 H 0.56311 0.49406 0.14016 0.0
C879 C 0.47007 0.53776 0.11981 0.0
C880 C 0.50877 0.5161 0.09853 0.0
H881 H 0.52883 0.47847 0.10164 0.0
C882 C 0.52709 0.53601 0.09332 0.0
C883 C 0.50954 0.4952 0.10281 0.0
C884 C 0.49071 0.47338 0.111 0.0
C885 C 0.54601 0.53554 0.09128 0.0
C886 C 0.54666 0.51448 0.09347 0.0
C887 C 0.52841 0.49464 0.09972 0.0
C888 C 0.56583 0.51235 0.08778 0.0
C889 C 0.5651 0.55766 0.08711 0.0
C890 C 0.57709 0.51999 0.054 0.0
C891 C 0.59306 0.51462 0.04579 0.0
C892 C 0.59792 0.50136 0.07103 0.0
C893 C 0.5874 0.49468 0.1056 0.0
C894 C 0.57159 0.50026 0.11403 0.0
H895 H 0.56295 0.57201 0.09893 0.0
H896 H 0.57829 0.55705 0.10154 0.0
H897 H 0.5688 0.56116 0.05656 0.0
H898 H 0.57265 0.52876 0.03276 0.0
H899 H 0.60042 0.51915 0.0183 0.0
H900 H 0.92364 0.40837 0.40995 0.0
H901 H 0.96033 0.43252 0.41866 0.0
H902 H 0.94735 0.48123 0.47915 0.0
H903 H 0.91089 0.45723 0.47087 0.0
H904 H 0.97891 0.47646 0.38786 0.0
H905 H 0.99318 0.47903 0.54258 0.0
H906 H 0.97088 0.45695 0.52059 0.0
H907 H 0.97196 0.48422 0.52992 0.0
C908 C 0.92861 0.42378 0.42638 0.0
C909 C 0.91438 0.43088 0.43976 0.0
C910 C 0.94956 0.43767 0.43105 0.0
C911 C 0.95658 0.45866 0.44967 0.0
C912 C 0.94234 0.46499 0.46522 0.0
H913 H 0.07292 0.57797 0.40728 0.0
H914 H 0.03648 0.55274 0.41751 0.0
C915 C 0.92147 0.45126 0.46035 0.0
C916 C 0.97853 0.47517 0.44886 0.0
H917 H 0.01923 0.50748 0.50502 0.0
C918 C 0.98777 0.48314 0.41347 0.0
C919 C 0.99003 0.48393 0.4823 0.0
C920 C 0.9811 0.47547 0.52102 0.0
C921 C 1.00812 0.49977 0.41059 0.0
C922 C 0.01949 0.50891 0.44403 0.0
C923 C 0.01036 0.50074 0.47945 0.0
C924 C 0.04136 0.52561 0.44247 0.0
C925 C 0.01743 0.50713 0.37176 0.0
C926 C 0.05611 0.51912 0.45465 0.0
C927 C 0.07679 0.53342 0.44891 0.0
C928 C 0.08321 0.55464 0.43113 0.0
C929 C 0.06847 0.56178 0.42114 0.0
C930 C 0.04767 0.54731 0.42667 0.0
H931 H 1.00791 0.49544 0.34919 0.0
H932 H 0.01894 0.52429 0.36553 0.0
H933 H 0.03289 0.50804 0.37063 0.0
H934 H 0.05159 0.50252 0.46706 0.0
H935 H 0.08776 0.52746 0.45724 0.0
H936 H 0.53631 0.10782 0.80826 0.0
H937 H 0.51176 0.07022 0.83061 0.0
H938 H 0.56 0.05015 0.83832 0.0
H939 H 0.58453 0.0875 0.81732 0.0
H940 H 0.50342 0.03314 0.79035 0.0
H941 H 0.52857 0.02065 0.932 0.0
H942 H 0.53767 0.04837 0.9106 0.0
H943 H 0.54939 0.03033 0.89909 0.0
C944 C 0.54178 0.09563 0.81584 0.0
C945 C 0.56238 0.10066 0.81061 0.0
C946 C 0.52773 0.07413 0.82858 0.0
C947 C 0.53405 0.05741 0.83655 0.0
C948 C 0.55478 0.06286 0.83334 0.0
H949 H 0.48832 0.91514 0.81711 0.0
H950 H 0.50829 0.95572 0.82957 0.0
C951 C 0.56879 0.08426 0.82081 0.0
C952 C 0.51891 0.03343 0.84235 0.0
H953 H 0.50911 0.98629 0.89545 0.0
C954 C 0.50433 0.02302 0.81384 0.0
C955 C 0.52021 0.02018 0.87287 0.0
C956 C 0.53469 0.03056 0.90554 0.0
C957 C 0.49181 0.99957 0.81387 0.0
C958 C 0.49379 0.98621 0.8434 0.0
C959 C 0.50777 0.99663 0.87275 0.0
C960 C 0.48211 0.96125 0.84271 0.0
C961 C 0.47721 0.98907 0.78133 0.0
C962 C 0.4609 0.9509 0.8474 0.0
C963 C 0.44945 0.92779 0.84025 0.0
C964 C 0.45902 0.91458 0.82826 0.0
C965 C 0.48044 0.92477 0.82614 0.0
C966 C 0.49189 0.94795 0.8333 0.0
H967 H 0.47978 1.00131 0.75788 0.0
H968 H 0.47872 0.97423 0.76992 0.0
H969 H 0.46133 0.98298 0.79162 0.0
H970 H 0.45314 0.96092 0.85496 0.0
H971 H 0.43301 0.92052 0.8426 0.0
H972 H 0.46209 0.56967 0.5478 0.0
H973 H 0.47843 0.54602 0.53036 0.0
H974 H 0.42278 0.49828 0.47668 0.0
H975 H 0.40599 0.52127 0.49646 0.0
H976 H 0.43634 0.47584 0.51452 0.0
H977 H 0.50226 0.53825 0.4355 0.0
H978 H 0.50236 0.54942 0.4817 0.0
H979 H 0.4815 0.54407 0.44965 0.0
C980 C 0.45347 0.55432 0.53174 0.0
C981 C 0.43285 0.54735 0.52323 0.0
C982 C 0.46286 0.54086 0.52148 0.0
C983 C 0.45206 0.52058 0.50124 0.0
C984 C 0.43151 0.51387 0.49206 0.0
H985 H 0.53329 0.46092 0.44519 0.0
H986 H 0.50732 0.47398 0.43425 0.0
C987 C 0.42195 0.52703 0.50327 0.0
C988 C 0.46179 0.50565 0.49241 0.0
H989 H 0.50685 0.50734 0.46435 0.0
C990 C 0.45161 0.48264 0.50276 0.0
C991 C 0.48143 0.51411 0.47589 0.0
C992 C 0.49235 0.53775 0.45965 0.0
C993 C 0.46103 0.46835 0.49942 0.0
C994 C 0.48159 0.47757 0.48719 0.0
C995 C 0.49124 0.50018 0.47446 0.0
C996 C 0.49403 0.465 0.49042 0.0
C997 C 0.44876 0.44359 0.50914 0.0
C998 C 0.49474 0.45468 0.52495 0.0
C999 C 0.50899 0.44638 0.5305 0.0
C1000 C 0.52322 0.44893 0.50213 0.0
C1001 C 0.52216 0.45845 0.46716 0.0
C1002 C 0.50746 0.46609 0.46111 0.0
H1003 H 0.43247 0.43758 0.50148 0.0
H1004 H 0.45457 0.43284 0.49432 0.0
H1005 H 0.44938 0.44127 0.5402 0.0
H1006 H 0.48523 0.45436 0.54861 0.0
H1007 H 0.51 0.43971 0.55809 0.0
H1008 H 0.1165 0.54599 0.82017 0.0
H1009 H 0.0804 0.53584 0.81047 0.0
H1010 H 0.06458 0.4896 0.90526 0.0
H1011 H 0.10067 0.49885 0.9135 0.0
H1012 H 0.03617 0.47287 0.85393 0.0
H1013 H 0.0527 0.56244 0.8758 0.0
H1014 H 0.06595 0.55914 0.83546 0.0
H1015 H 0.07176 0.55265 0.88222 0.0
C1016 C 0.1052 0.53312 0.8381 0.0
C1017 C 0.11126 0.52302 0.86733 0.0
C1018 C 0.08461 0.52762 0.83301 0.0
C1019 C 0.06977 0.51258 0.85801 0.0
C1020 C 0.07572 0.50142 0.88579 0.0
H1021 H 0.95203 0.50701 0.90942 0.0
H1022 H 0.98851 0.51771 0.90386 0.0
C1023 C 0.09631 0.50653 0.8903 0.0
C1024 C 0.04828 0.50918 0.85626 0.0
H1025 H 0.01899 0.53741 0.85653 0.0
C1026 C 0.03243 0.487 0.85451 0.0
C1027 C 0.04328 0.52757 0.85796 0.0
C1028 C 0.05931 0.55175 0.86339 0.0
C1029 C 0.01185 0.48267 0.85417 0.0
C1030 C 1.0069 0.50111 0.85389 0.0
C1031 C 0.02273 0.52329 0.85595 0.0
C1032 C 0.98537 0.49761 0.85356 0.0
C1033 C 0.99568 0.45831 0.85564 0.0
C1034 C 0.97159 0.48392 0.82588 0.0
C1035 C 0.95075 0.47759 0.82936 0.0
C1036 C 0.94338 0.48551 0.85978 0.0
C1037 C 0.95736 0.50102 0.88531 0.0
C1038 C 0.97819 0.50694 0.88233 0.0
H1039 H 1.00181 0.44694 0.86718 0.0
H1040 H 0.98254 0.45645 0.87344 0.0
H1041 H 0.99011 0.45247 0.82652 0.0
H1042 H 0.97679 0.47718 0.80261 0.0
H1043 H 0.94023 0.4655 0.80944 0.0
H1044 H 0.43362 0.89715 0.19364 0.0
H1045 H 0.46349 0.93279 0.17787 0.0
H1046 H 0.45192 0.96437 0.27583 0.0
H1047 H 0.42142 0.92901 0.29032 0.0
H1048 H 0.46688 0.99421 0.22081 0.0
H1049 H 0.51526 0.95008 0.23468 0.0
H1050 H 0.49677 0.9385 0.19755 0.0
H1051 H 0.48846 0.93655 0.24608 0.0
C1052 C 0.43708 0.91201 0.21087 0.0
C1053 C 0.42513 0.91055 0.24281 0.0
C1054 C 0.45435 0.93223 0.20231 0.0
C1055 C 0.46043 0.95109 0.22639 0.0
C1056 C 0.44768 0.95004 0.25693 0.0
H1057 H 0.58103 0.06008 0.26449 0.0
H1058 H 0.55079 0.02323 0.26106 0.0
C1059 C 0.43014 0.92993 0.26502 0.0
C1060 C 0.4805 0.9714 0.22111 0.0
H1061 H 0.53184 0.98835 0.21429 0.0
C1062 C 0.48106 0.9929 0.21929 0.0
C1063 C 0.49915 0.96982 0.22003 0.0
C1064 C 0.49996 0.94753 0.2251 0.0
C1065 C 0.4996 0.01277 0.21636 0.0
C1066 C 0.51817 0.0111 0.21363 0.0
C1067 C 0.51763 0.98962 0.21559 0.0
C1068 C 0.53831 0.03159 0.21119 0.0
C1069 C 0.4991 0.03536 0.21786 0.0
C1070 C 0.54211 0.04797 0.18285 0.0
C1071 C 0.55929 0.06906 0.185 0.0
C1072 C 0.57331 0.0739 0.21484 0.0
C1073 C 0.57069 0.05664 0.24077 0.0
C1074 C 0.55326 0.03566 0.23905 0.0
H1075 H 0.48469 0.03381 0.23061 0.0
H1076 H 0.51208 0.0479 0.23459 0.0
H1077 H 0.50013 0.04202 0.18863 0.0
H1078 H 0.53118 0.04497 0.16033 0.0
H1079 H 0.56089 0.08216 0.16484 0.0
H1080 H 0.43883 0.57268 0.65868 0.0
H1081 H 0.43856 0.56916 0.7278 0.0
H1082 H 0.39233 0.59242 0.73496 0.0
H1083 H 0.3922 0.59524 0.66564 0.0
H1084 H 0.44923 0.60562 0.77508 0.0
H1085 H 0.37064 0.53951 0.80845 0.0
H1086 H 0.38232 0.54201 0.7626 0.0
H1087 H 0.37244 0.56139 0.77612 0.0
C1088 C 0.42812 0.57622 0.67511 0.0
C1089 C 0.41511 0.58355 0.65724 0.0
C1090 C 0.42808 0.57441 0.71442 0.0
C1091 C 0.41536 0.58042 0.7364 0.0
C1092 C 0.40193 0.58721 0.71846 0.0
H1093 H 0.40501 0.57916 0.98131 0.0
H1094 H 0.4085 0.59439 0.91693 0.0
C1095 C 0.40178 0.58873 0.67899 0.0
C1096 C 0.41747 0.58128 0.77802 0.0
H1097 H 0.39201 0.55768 0.85975 0.0
C1098 C 0.4367 0.59523 0.79366 0.0
C1099 C 0.40105 0.56784 0.80206 0.0
C1100 C 0.38045 0.5517 0.78663 0.0
C1101 C 0.44005 0.59556 0.8328 0.0
C1102 C 0.42375 0.58172 0.85654 0.0
C1103 C 0.40437 0.56847 0.84117 0.0
C1104 C 0.42673 0.57844 0.8968 0.0
C1105 C 0.46097 0.6103 0.84861 0.0
C1106 C 0.43641 0.56509 0.9067 0.0
C1107 C 0.43434 0.55633 0.94328 0.0
C1108 C 0.42297 0.56127 0.97031 0.0
C1109 C 0.41441 0.5758 0.96105 0.0
C1110 C 0.41633 0.58442 0.92441 0.0
H1111 H 0.47083 0.62322 0.82777 0.0
H1112 H 0.45978 0.61901 0.87472 0.0
H1113 H 0.46842 0.59953 0.85639 0.0
H1114 H 0.44412 0.55996 0.8854 0.0
H1115 H 0.44063 0.54472 0.94988 0.0
H1116 H 0.90298 0.4157 0.30626 0.0
H1117 H 0.91099 0.42795 0.24012 0.0
H1118 H 0.8498 0.41983 0.22447 0.0
H1119 H 0.84177 0.40745 0.29067 0.0
H1120 H 0.88798 0.39809 0.17986 0.0
H1121 H 0.88642 0.48154 0.17271 0.0
H1122 H 0.89162 0.47046 0.21592 0.0
H1123 H 0.86599 0.45921 0.19826 0.0
C1124 C 0.8915 0.41723 0.28888 0.0
C1125 C 0.87199 0.41135 0.30347 0.0
C1126 C 0.89604 0.42412 0.25125 0.0
C1127 C 0.88104 0.42496 0.22767 0.0
C1128 C 0.86168 0.41972 0.24252 0.0
H1129 H 0.8626 0.42197 -0.01075 0.0
H1130 H 0.86269 0.41093 0.05557 0.0
C1131 C 0.85714 0.4128 0.28024 0.0
C1132 C 0.88498 0.42889 0.18668 0.0
H1133 H 0.88835 0.46488 0.11473 0.0
C1134 C 0.88824 0.41278 0.1656 0.0
C1135 C 0.88522 0.448 0.16833 0.0
C1136 C 0.88224 0.46594 0.18986 0.0
C1137 C 0.89137 0.41515 0.12631 0.0
C1138 C 0.89132 0.43411 0.10806 0.0
C1139 C 0.88843 0.4504 0.12915 0.0
C1140 C 0.89323 0.43706 0.06674 0.0
C1141 C 0.89445 0.39738 0.1044 0.0
C1142 C 0.91059 0.45496 0.0512 0.0
C1143 C 0.91065 0.46101 0.01331 0.0
C1144 C 0.89341 0.44914 -0.00933 0.0
C1145 C 0.87635 0.43068 0.00588 0.0
C1146 C 0.87635 0.42449 0.04368 0.0
H1147 H 0.8975 0.38579 0.12334 0.0
H1148 H 0.88048 0.38714 0.08775 0.0
H1149 H 0.90733 0.40549 0.08416 0.0
H1150 H 0.9236 0.465 0.06892 0.0
H1151 H 0.92374 0.47565 0.00217 0.0
H1152 H 0.40171 0.82937 0.68882 0.0
H1153 H 0.39245 0.8335 0.62349 0.0
H1154 H 0.4411 0.90183 0.62014 0.0
H1155 H 0.45045 0.8976 0.68547 0.0
H1156 H 0.38218 0.86557 0.58615 0.0
H1157 H 0.45495 0.86815 0.53518 0.0
H1158 H 0.44559 0.85973 0.58281 0.0
H1159 H 0.45761 0.88921 0.56986 0.0
C1160 C 0.40999 0.84545 0.67437 0.0
C1161 C 0.42638 0.86342 0.69208 0.0
C1162 C 0.40479 0.84776 0.63716 0.0
C1163 C 0.41622 0.8679 0.6171 0.0
C1164 C 0.43224 0.88611 0.63519 0.0
H1165 H 0.4008 0.89836 0.38172 0.0
H1166 H 0.40906 0.90198 0.44976 0.0
C1167 C 0.4375 0.88375 0.67234 0.0
C1168 C 0.4124 0.86904 0.57635 0.0
H1169 H 0.43331 0.87158 0.48908 0.0
C1170 C 0.39336 0.867 0.56487 0.0
C1171 C 0.42704 0.8707 0.54883 0.0
C1172 C 0.44739 0.87188 0.55962 0.0
C1173 C 0.38855 0.86646 0.5263 0.0
C1174 C 0.40316 0.86801 0.49898 0.0
C1175 C 0.42226 0.87042 0.51038 0.0
C1176 C 0.39847 0.866 0.45831 0.0
C1177 C 0.36785 0.86387 0.51474 0.0
C1178 C 0.38999 0.84461 0.44112 0.0
C1179 C 0.38545 0.84257 0.4025 0.0
C1180 C 0.38972 0.86195 0.38072 0.0
C1181 C 0.39794 0.88332 0.39807 0.0
C1182 C 0.40254 0.88538 0.43668 0.0
H1183 H 0.35839 0.86356 0.53953 0.0
H1184 H 0.36964 0.87808 0.49575 0.0
H1185 H 0.35967 0.84789 0.49853 0.0
H1186 H 0.38674 0.82952 0.45765 0.0
H1187 H 0.37836 0.82587 0.38976 0.0
H1188 H 0.6045 0.457 0.62354 0.0
H1189 H 0.61569 0.47 0.68815 0.0
H1190 H 0.55686 0.46662 0.71303 0.0
H1191 H 0.54564 0.45363 0.64804 0.0
H1192 H 0.61671 0.50545 0.73759 0.0
H1193 H 0.56175 0.41806 0.78165 0.0
H1194 H 0.56886 0.42564 0.73278 0.0
H1195 H 0.55118 0.43365 0.75547 0.0
C1196 C 0.59429 0.45997 0.64236 0.0
C1197 C 0.57442 0.4549 0.63088 0.0
C1198 C 0.60063 0.46724 0.67924 0.0
C1199 C 0.58701 0.46903 0.70528 0.0
C1200 C 0.56751 0.46519 0.69326 0.0
H1201 H 0.61876 0.50838 0.94172 0.0
H1202 H 0.60727 0.50645 0.87592 0.0
C1203 C 0.56115 0.45788 0.65631 0.0
C1204 C 0.59237 0.47186 0.74584 0.0
H1205 H 0.58162 0.44276 0.82937 0.0
C1206 C 0.60893 0.49191 0.75789 0.0
C1207 C 0.58241 0.45386 0.77182 0.0
C1208 C 0.56517 0.43149 0.7599 0.0
C1209 C 0.61587 0.49442 0.79548 0.0
C1210 C 0.60576 0.47648 0.82152 0.0
C1211 C 0.58916 0.45652 0.8094 0.0
C1212 C 0.61251 0.47768 0.86123 0.0
C1213 C 0.63438 0.51587 0.80662 0.0
C1214 C 0.61872 0.46178 0.87489 0.0
C1215 C 0.6249 0.46263 0.91252 0.0
C1216 C 0.62457 0.47914 0.937 0.0
C1217 C 0.61866 0.49522 0.92327 0.0
C1218 C 0.61233 0.49428 0.88576 0.0
H1219 H 0.64326 0.52535 0.78146 0.0
H1220 H 0.62939 0.52708 0.82228 0.0
H1221 H 0.64456 0.51206 0.82547 0.0
H1222 H 0.61896 0.44884 0.85632 0.0
H1223 H 0.63013 0.45061 0.92239 0.0
H1224 H 0.19101 0.57114 0.00664 0.0
H1225 H 0.18454 0.57901 0.07197 0.0
H1226 H 0.12169 0.52881 0.06171 0.0
H1227 H 0.12837 0.52056 -0.00313 0.0
H1228 H 0.1582 0.59409 0.09906 0.0
H1229 H 0.13885 0.50881 0.15767 0.0
H1230 H 0.15017 0.51772 0.11141 0.0
H1231 H 0.12326 0.5082 0.1181 0.0
C1232 C 0.17581 0.56204 0.01843 0.0
C1233 C 0.15999 0.54577 -0.00311 0.0
C1234 C 0.17215 0.56639 0.05562 0.0
C1235 C 0.1527 0.55426 0.07174 0.0
C1236 C 0.1369 0.538 0.05004 0.0
H1237 H 0.10626 0.57635 0.28766 0.0
H1238 H 0.10879 0.56585 0.22158 0.0
C1239 C 0.14063 0.53347 0.01305 0.0
C1240 C 0.14893 0.55886 0.11114 0.0
H1241 H 0.1332 0.53426 0.19795 0.0
C1242 C 0.1528 0.58104 0.12066 0.0
C1243 C 0.1419 0.54172 0.1393 0.0
C1244 C 0.13848 0.51783 0.13127 0.0
C1245 C 0.14986 0.58658 0.15767 0.0
C1246 C 0.14282 0.56947 0.1856 0.0
C1247 C 0.13863 0.54724 0.17618 0.0
C1248 C 0.14092 0.57479 0.22532 0.0
C1249 C 0.15445 0.61069 0.16699 0.0
C1250 C 0.15817 0.58314 0.24869 0.0
C1251 C 0.15671 0.58896 0.28611 0.0
C1252 C 0.13794 0.58613 0.30059 0.0
C1253 C 0.12074 0.57809 0.27703 0.0
C1254 C 0.12217 0.57215 0.23957 0.0
H1255 H 0.15835 0.62165 0.14135 0.0
H1256 H 0.14109 0.61103 0.18118 0.0
H1257 H 0.16746 0.61789 0.18707 0.0
H1258 H 0.17276 0.58538 0.23783 0.0
H1259 H 0.17028 0.59593 0.30361 0.0
H1260 H 0.55748 0.10797 0.66601 0.0
H1261 H 0.55593 0.09823 0.59858 0.0
H1262 H 0.61495 0.15509 0.58109 0.0
H1263 H 0.61626 0.16517 0.64822 0.0
H1264 H 0.55916 0.13271 0.54121 0.0
H1265 H 0.61621 0.09967 0.52324 0.0
H1266 H 0.60401 0.0989 0.56809 0.0
H1267 H 0.62419 0.12503 0.55112 0.0
C1268 C 0.57037 0.11788 0.64788 0.0
C1269 C 0.58729 0.13684 0.66225 0.0
C1270 C 0.56943 0.1124 0.60953 0.0
C1271 C 0.58538 0.12587 0.58514 0.0
C1272 C 0.60266 0.1443 0.59973 0.0
H1273 H 0.6038 0.16093 0.35391 0.0
H1274 H 0.59346 0.15785 0.42055 0.0
C1275 C 0.60351 0.1499 0.63804 0.0
C1276 C 0.58305 0.12228 0.54387 0.0
H1277 H 0.60411 0.10957 0.4672 0.0
C1278 C 0.56876 0.12734 0.52495 0.0
C1279 C 0.59557 0.11524 0.52304 0.0
C1280 C 0.6108 0.10921 0.54231 0.0
C1281 C 0.56726 0.12638 0.48528 0.0
C1282 C 0.58035 0.12018 0.46442 0.0
C1283 C 0.59406 0.11427 0.48347 0.0
C1284 C 0.58138 0.12132 0.42273 0.0
C1285 C 0.55201 0.13233 0.46585 0.0
C1286 C 0.57741 0.10174 0.40186 0.0
C1287 C 0.58315 0.10349 0.36387 0.0
C1288 C 0.59272 0.1248 0.34631 0.0
C1289 C 0.59568 0.14427 0.3666 0.0
C1290 C 0.58987 0.14252 0.4046 0.0
H1291 H 0.54006 0.13175 0.48578 0.0
H1292 H 0.56004 0.14976 0.45412 0.0
H1293 H 0.54458 0.12058 0.44191 0.0
H1294 H 0.57111 0.0853 0.41561 0.0
H1295 H 0.58123 0.08837 0.34881 0.0
loop_
_geom_bond_atom_site_label_1
_geom_bond_atom_site_label_2
_geom_bond_distance
_geom_bond_site_symmetry_2
_ccdc_geom_bond_type
Mn0 O5 2.095 . S
Mn0 O15 2.162 . S
Mn0 O16 2.297 . S
Mn0 O24 2.385 . S
Mn0 O25 2.209 . S
Mn0 O26 2.094 . S
Mn1 O6 2.121 . S
Mn1 N8 2.257 . S
Mn1 N17 2.282 . S
Mn1 O25 2.215 . S
Mn1 O27 2.117 . S
C2 O24 1.234 . S
C2 O25 1.283 . S
C3 O15 1.281 . S
C3 O16 1.236 . S
C4 O26 1.240 . S
C4 O27 1.264 . S
O5 Mn0 2.095 . S
O5 C14 1.250 . S
O6 Mn1 2.121 . S
O6 C14 1.258 . S
C7 N8 1.326 . S
C7 C11 1.460 . S
C7 H13 0.929 . S
N8 Mn1 2.257 . S
N8 C7 1.326 . S
N8 C12 1.362 . S
C9 C10 1.258 . S
C9 C12 1.431 . S
C9 C29 1.449 1_554 S
C10 C9 1.258 . S
C10 C11 1.477 . S
C10 H30 0.931 . S
C11 C7 1.460 . S
C11 C10 1.477 . S
C11 H31 0.930 . S
C12 N8 1.362 . S
C12 C9 1.431 . S
C12 C22 1.476 . S
H13 C7 0.929 . S
C14 O5 1.250 . S
C14 O6 1.258 . S
O15 Mn0 2.162 . S
O15 C3 1.281 . S
O16 Mn0 2.297 . S
O16 C3 1.236 . S
N17 Mn1 2.282 . S
N17 C18 1.328 1_554 S
N17 C22 1.318 . S
C18 N17 1.328 1_556 S
C18 C19 1.457 . S
C18 H23 0.929 1_556 S
C19 C18 1.457 . S
C19 C20 1.291 . S
C19 H32 0.931 . S
C20 C19 1.291 . S
C20 C21 1.373 . S
C20 H33 0.929 . S
C21 C20 1.373 . S
C21 C22 1.396 1_556 S
C21 C28 1.403 . S
C22 C12 1.476 . S
C22 N17 1.318 . S
C22 C21 1.396 1_554 S
H23 C18 0.929 1_554 S
O24 Mn0 2.385 . S
O24 C2 1.234 . S
O25 Mn0 2.209 . S
O25 Mn1 2.215 . S
O25 C2 1.283 . S
O26 Mn0 2.094 . S
O26 C4 1.240 . S
O27 Mn1 2.117 . S
O27 C4 1.264 . S
C28 C21 1.403 . S
C28 C29 1.399 . S
C28 H34 0.929 . S
C29 C9 1.449 1_556 S
C29 C28 1.399 . S
C29 H35 0.930 . S
H30 C10 0.931 . S
H31 C11 0.930 . S
H32 C19 0.931 . S
H33 C20 0.929 . S
H34 C28 0.929 . S
H35 C29 0.930 . S
Mn36 O41 2.095 . S
Mn36 O51 2.162 . S
Mn36 O52 2.297 . S
Mn36 O60 2.385 . S
Mn36 O61 2.209 . S
Mn36 O62 2.094 . S
Mn37 O42 2.121 . S
Mn37 N44 2.257 . S
Mn37 N53 2.282 . S
Mn37 O61 2.215 . S
Mn37 O63 2.117 . S
C38 O60 1.234 . S
C38 O61 1.283 . S
C39 O51 1.281 . S
C39 O52 1.236 . S
C40 O62 1.240 . S
C40 O63 1.264 . S
O41 Mn36 2.095 . S
O41 C50 1.250 . S
O42 Mn37 2.121 . S
O42 C50 1.258 . S
C43 N44 1.326 . S
C43 C47 1.460 . S
C43 H49 0.929 . S
N44 Mn37 2.257 . S
N44 C43 1.326 . S
N44 C48 1.362 . S
C45 C46 1.258 . S
C45 C48 1.431 . S
C45 C65 1.449 . S
C46 C45 1.258 . S
C46 C47 1.477 . S
C46 H66 0.931 . S
C47 C43 1.460 . S
C47 C46 1.477 . S
C47 H67 0.930 . S
C48 N44 1.362 . S
C48 C45 1.431 . S
C48 C58 1.476 . S
H49 C43 0.929 . S
C50 O41 1.250 . S
C50 O42 1.258 . S
O51 Mn36 2.162 . S
O51 C39 1.281 . S
O52 Mn36 2.297 . S
O52 C39 1.236 . S
N53 Mn37 2.282 . S
N53 C54 1.328 . S
N53 C58 1.318 . S
C54 N53 1.328 . S
C54 C55 1.457 . S
C54 H59 0.929 . S
C55 C54 1.457 . S
C55 C56 1.291 . S
C55 H68 0.931 . S
C56 C55 1.291 . S
C56 C57 1.373 . S
C56 H69 0.929 . S
C57 C56 1.373 . S
C57 C58 1.396 . S
C57 C64 1.403 . S
C58 C48 1.476 . S
C58 N53 1.318 . S
C58 C57 1.396 . S
H59 C54 0.929 . S
O60 Mn36 2.385 . S
O60 C38 1.234 . S
O61 Mn36 2.209 . S
O61 Mn37 2.215 . S
O61 C38 1.283 . S
O62 Mn36 2.094 . S
O62 C40 1.240 . S
O63 Mn37 2.117 . S
O63 C40 1.264 . S
C64 C57 1.403 . S
C64 C65 1.399 . S
C64 H70 0.929 . S
C65 C45 1.449 . S
C65 C64 1.399 . S
C65 H71 0.930 . S
H66 C46 0.931 . S
H67 C47 0.930 . S
H68 C55 0.931 . S
H69 C56 0.929 . S
H70 C64 0.929 . S
H71 C65 0.930 . S
Mn72 O77 2.095 . S
Mn72 O87 2.162 . S
Mn72 O88 2.297 . S
Mn72 O96 2.385 . S
Mn72 O97 2.209 . S
Mn72 O98 2.094 . S
Mn73 O78 2.121 . S
Mn73 N80 2.257 . S
Mn73 N89 2.282 . S
Mn73 O97 2.215 . S
Mn73 O99 2.117 . S
C74 O96 1.234 . S
C74 O97 1.283 . S
C75 O87 1.281 . S
C75 O88 1.236 . S
C76 O98 1.240 . S
C76 O99 1.264 . S
O77 Mn72 2.095 . S
O77 C86 1.250 . S
O78 Mn73 2.121 . S
O78 C86 1.258 . S
C79 N80 1.326 . S
C79 C83 1.460 . S
C79 H85 0.929 . S
N80 Mn73 2.257 . S
N80 C79 1.326 . S
N80 C84 1.362 . S
C81 C82 1.258 . S
C81 C84 1.431 . S
C81 C101 1.449 . S
C82 C81 1.258 . S
C82 C83 1.477 . S
C82 H102 0.931 . S
C83 C79 1.460 . S
C83 C82 1.477 . S
C83 H103 0.930 . S
C84 N80 1.362 . S
C84 C81 1.431 . S
C84 C94 1.476 . S
H85 C79 0.929 . S
C86 O77 1.250 . S
C86 O78 1.258 . S
O87 Mn72 2.162 . S
O87 C75 1.281 . S
O88 Mn72 2.297 . S
O88 C75 1.236 . S
N89 Mn73 2.282 . S
N89 C90 1.328 . S
N89 C94 1.318 . S
C90 N89 1.328 . S
C90 C91 1.457 . S
C90 H95 0.929 . S
C91 C90 1.457 . S
C91 C92 1.291 . S
C91 H104 0.931 . S
C92 C91 1.291 . S
C92 C93 1.373 . S
C92 H105 0.929 . S
C93 C92 1.373 . S
C93 C94 1.396 . S
C93 C100 1.403 . S
C94 C84 1.476 . S
C94 N89 1.318 . S
C94 C93 1.396 . S
H95 C90 0.929 . S
O96 Mn72 2.385 . S
O96 C74 1.234 . S
O97 Mn72 2.209 . S
O97 Mn73 2.215 . S
O97 C74 1.283 . S
O98 Mn72 2.094 . S
O98 C76 1.240 . S
O99 Mn73 2.117 . S
O99 C76 1.264 . S
C100 C93 1.403 . S
C100 C101 1.399 . S
C100 H106 0.929 . S
C101 C81 1.449 . S
C101 C100 1.399 . S
C101 H107 0.930 . S
H102 C82 0.931 . S
H103 C83 0.930 . S
H104 C91 0.931 . S
H105 C92 0.929 . S
H106 C100 0.929 . S
H107 C101 0.930 . S
Mn108 O113 2.095 . S
Mn108 O123 2.162 . S
Mn108 O124 2.297 . S
Mn108 O132 2.385 . S
Mn108 O133 2.209 . S
Mn108 O134 2.094 . S
Mn109 O114 2.121 . S
Mn109 N116 2.257 . S
Mn109 N125 2.282 . S
Mn109 O133 2.215 . S
Mn109 O135 2.117 . S
C110 O132 1.234 . S
C110 O133 1.283 . S
C111 O123 1.281 . S
C111 O124 1.236 . S
C112 O134 1.240 . S
C112 O135 1.264 . S
O113 Mn108 2.095 . S
O113 C122 1.250 . S
O114 Mn109 2.121 . S
O114 C122 1.258 . S
C115 N116 1.326 . S
C115 C119 1.460 . S
C115 H121 0.929 . S
N116 Mn109 2.257 . S
N116 C115 1.326 . S
N116 C120 1.362 . S
C117 C118 1.258 . S
C117 C120 1.431 . S
C117 C137 1.449 1_554 S
C118 C117 1.258 . S
C118 C119 1.477 . S
C118 H138 0.931 . S
C119 C115 1.460 . S
C119 C118 1.477 . S
C119 H139 0.930 . S
C120 N116 1.362 . S
C120 C117 1.431 . S
C120 C130 1.476 . S
H121 C115 0.929 . S
C122 O113 1.250 . S
C122 O114 1.258 . S
O123 Mn108 2.162 . S
O123 C111 1.281 . S
O124 Mn108 2.297 . S
O124 C111 1.236 . S
N125 Mn109 2.282 . S
N125 C126 1.328 1_554 S
N125 C130 1.318 . S
C126 N125 1.328 1_556 S
C126 C127 1.457 . S
C126 H131 0.929 1_556 S
C127 C126 1.457 . S
C127 C128 1.291 . S
C127 H140 0.931 . S
C128 C127 1.291 . S
C128 C129 1.373 . S
C128 H141 0.929 . S
C129 C128 1.373 . S
C129 C130 1.396 1_556 S
C129 C136 1.403 . S
C130 C120 1.476 . S
C130 N125 1.318 . S
C130 C129 1.396 1_554 S
H131 C126 0.929 1_554 S
O132 Mn108 2.385 . S
O132 C110 1.234 . S
O133 Mn108 2.209 . S
O133 Mn109 2.215 . S
O133 C110 1.283 . S
O134 Mn108 2.094 . S
O134 C112 1.240 . S
O135 Mn109 2.117 . S
O135 C112 1.264 . S
C136 C129 1.403 . S
C136 C137 1.399 . S
C136 H142 0.929 . S
C137 C117 1.449 1_556 S
C137 C136 1.399 . S
C137 H143 0.930 . S
H138 C118 0.931 . S
H139 C119 0.930 . S
H140 C127 0.931 . S
H141 C128 0.929 . S
H142 C136 0.929 . S
H143 C137 0.930 . S
Mn144 O149 2.095 . S
Mn144 O159 2.162 . S
Mn144 O160 2.297 . S
Mn144 O168 2.385 . S
Mn144 O169 2.209 . S
Mn144 O170 2.094 . S
Mn145 O150 2.121 . S
Mn145 N152 2.257 . S
Mn145 N161 2.282 . S
Mn145 O169 2.215 . S
Mn145 O171 2.117 . S
C146 O168 1.234 . S
C146 O169 1.283 . S
C147 O159 1.281 . S
C147 O160 1.236 . S
C148 O170 1.240 . S
C148 O171 1.264 . S
O149 Mn144 2.095 . S
O149 C158 1.250 . S
O150 Mn145 2.121 . S
O150 C158 1.258 . S
C151 N152 1.326 . S
C151 C155 1.460 . S
C151 H157 0.929 . S
N152 Mn145 2.257 . S
N152 C151 1.326 . S
N152 C156 1.362 . S
C153 C154 1.258 . S
C153 C156 1.431 . S
C153 C173 1.449 . S
C154 C153 1.258 . S
C154 C155 1.477 . S
C154 H174 0.931 . S
C155 C151 1.460 . S
C155 C154 1.477 . S
C155 H175 0.930 . S
C156 N152 1.362 . S
C156 C153 1.431 . S
C156 C166 1.476 . S
H157 C151 0.929 . S
C158 O149 1.250 . S
C158 O150 1.258 . S
O159 Mn144 2.162 . S
O159 C147 1.281 . S
O160 Mn144 2.297 . S
O160 C147 1.236 . S
N161 Mn145 2.282 . S
N161 C162 1.328 . S
N161 C166 1.318 . S
C162 N161 1.328 . S
C162 C163 1.457 . S
C162 H167 0.929 . S
C163 C162 1.457 . S
C163 C164 1.291 . S
C163 H176 0.931 . S
C164 C163 1.291 . S
C164 C165 1.373 . S
C164 H177 0.929 . S
C165 C164 1.373 . S
C165 C166 1.396 . S
C165 C172 1.403 . S
C166 C156 1.476 . S
C166 N161 1.318 . S
C166 C165 1.396 . S
H167 C162 0.929 . S
O168 Mn144 2.385 . S
O168 C146 1.234 . S
O169 Mn144 2.209 . S
O169 Mn145 2.215 . S
O169 C146 1.283 . S
O170 Mn144 2.094 . S
O170 C148 1.240 . S
O171 Mn145 2.117 . S
O171 C148 1.264 . S
C172 C165 1.403 . S
C172 C173 1.399 . S
C172 H178 0.929 . S
C173 C153 1.449 . S
C173 C172 1.399 . S
C173 H179 0.930 . S
H174 C154 0.931 . S
H175 C155 0.930 . S
H176 C163 0.931 . S
H177 C164 0.929 . S
H178 C172 0.929 . S
H179 C173 0.930 . S
Mn180 O185 2.095 . S
Mn180 O195 2.162 . S
Mn180 O196 2.297 . S
Mn180 O204 2.385 . S
Mn180 O205 2.209 . S
Mn180 O206 2.094 . S
Mn181 O186 2.121 . S
Mn181 N188 2.257 . S
Mn181 N197 2.282 . S
Mn181 O205 2.215 . S
Mn181 O207 2.117 . S
C182 O204 1.234 . S
C182 O205 1.283 . S
C183 O195 1.281 . S
C183 O196 1.236 . S
C184 O206 1.240 . S
C184 O207 1.264 . S
O185 Mn180 2.095 . S
O185 C194 1.250 . S
O186 Mn181 2.121 . S
O186 C194 1.258 . S
C187 N188 1.326 . S
C187 C191 1.460 . S
C187 H193 0.929 . S
N188 Mn181 2.257 . S
N188 C187 1.326 . S
N188 C192 1.362 . S
C189 C190 1.258 . S
C189 C192 1.431 . S
C189 C209 1.449 . S
C190 C189 1.258 . S
C190 C191 1.477 . S
C190 H210 0.931 . S
C191 C187 1.460 . S
C191 C190 1.477 . S
C191 H211 0.930 . S
C192 N188 1.362 . S
C192 C189 1.431 . S
C192 C202 1.476 . S
H193 C187 0.929 . S
C194 O185 1.250 . S
C194 O186 1.258 . S
O195 Mn180 2.162 . S
O195 C183 1.281 . S
O196 Mn180 2.297 . S
O196 C183 1.236 . S
N197 Mn181 2.282 . S
N197 C198 1.328 . S
N197 C202 1.318 . S
C198 N197 1.328 . S
C198 C199 1.457 . S
C198 H203 0.929 . S
C199 C198 1.457 . S
C199 C200 1.291 . S
C199 H212 0.931 . S
C200 C199 1.291 . S
C200 C201 1.373 . S
C200 H213 0.929 . S
C201 C200 1.373 . S
C201 C202 1.396 . S
C201 C208 1.403 . S
C202 C192 1.476 . S
C202 N197 1.318 . S
C202 C201 1.396 . S
H203 C198 0.929 . S
O204 Mn180 2.385 . S
O204 C182 1.234 . S
O205 Mn180 2.209 . S
O205 Mn181 2.215 . S
O205 C182 1.283 . S
O206 Mn180 2.094 . S
O206 C184 1.240 . S
O207 Mn181 2.117 . S
O207 C184 1.264 . S
C208 C201 1.403 . S
C208 C209 1.399 . S
C208 H214 0.929 . S
C209 C189 1.449 . S
C209 C208 1.399 . S
C209 H215 0.930 . S
H210 C190 0.931 . S
H211 C191 0.930 . S
H212 C199 0.931 . S
H213 C200 0.929 . S
H214 C208 0.929 . S
H215 C209 0.930 . S
Mn216 O221 2.095 . S
Mn216 O231 2.162 . S
Mn216 O232 2.297 . S
Mn216 O240 2.385 . S
Mn216 O241 2.209 . S
Mn216 O242 2.094 . S
Mn217 O222 2.121 . S
Mn217 N224 2.257 . S
Mn217 N233 2.282 . S
Mn217 O241 2.215 . S
Mn217 O243 2.117 . S
C218 O240 1.234 . S
C218 O241 1.283 . S
C219 O231 1.281 . S
C219 O232 1.236 . S
C220 O242 1.240 . S
C220 O243 1.264 . S
O221 Mn216 2.095 . S
O221 C230 1.250 . S
O222 Mn217 2.121 . S
O222 C230 1.258 . S
C223 N224 1.326 . S
C223 C227 1.460 . S
C223 H229 0.929 . S
N224 Mn217 2.257 . S
N224 C223 1.326 . S
N224 C228 1.362 . S
C225 C226 1.258 . S
C225 C228 1.431 . S
C225 C245 1.449 . S
C226 C225 1.258 . S
C226 C227 1.477 . S
C226 H246 0.931 . S
C227 C223 1.460 . S
C227 C226 1.477 . S
C227 H247 0.930 . S
C228 N224 1.362 . S
C228 C225 1.431 . S
C228 C238 1.476 . S
H229 C223 0.929 . S
C230 O221 1.250 . S
C230 O222 1.258 . S
O231 Mn216 2.162 . S
O231 C219 1.281 . S
O232 Mn216 2.297 . S
O232 C219 1.236 . S
N233 Mn217 2.282 . S
N233 C234 1.328 . S
N233 C238 1.318 . S
C234 N233 1.328 . S
C234 C235 1.457 . S
C234 H239 0.929 . S
C235 C234 1.457 . S
C235 C236 1.291 . S
C235 H248 0.931 . S
C236 C235 1.291 . S
C236 C237 1.373 . S
C236 H249 0.929 . S
C237 C236 1.373 . S
C237 C238 1.396 . S
C237 C244 1.403 . S
C238 C228 1.476 . S
C238 N233 1.318 . S
C238 C237 1.396 . S
H239 C234 0.929 . S
O240 Mn216 2.385 . S
O240 C218 1.234 . S
O241 Mn216 2.209 . S
O241 Mn217 2.215 . S
O241 C218 1.283 . S
O242 Mn216 2.094 . S
O242 C220 1.240 . S
O243 Mn217 2.117 . S
O243 C220 1.264 . S
C244 C237 1.403 . S
C244 C245 1.399 . S
C244 H250 0.929 . S
C245 C225 1.449 . S
C245 C244 1.399 . S
C245 H251 0.930 . S
H246 C226 0.931 . S
H247 C227 0.930 . S
H248 C235 0.931 . S
H249 C236 0.929 . S
H250 C244 0.929 . S
H251 C245 0.930 . S
Mn252 O257 2.095 . S
Mn252 O267 2.162 . S
Mn252 O268 2.297 . S
Mn252 O276 2.385 1_556 S
Mn252 O277 2.209 . S
Mn252 O278 2.094 . S
Mn253 O258 2.121 . S
Mn253 N260 2.257 . S
Mn253 N269 2.282 . S
Mn253 O277 2.215 . S
Mn253 O279 2.117 . S
C254 O276 1.234 1_556 S
C254 O277 1.283 . S
C255 O267 1.281 . S
C255 O268 1.236 . S
C256 O278 1.240 . S
C256 O279 1.264 . S
O257 Mn252 2.095 . S
O257 C266 1.250 . S
O258 Mn253 2.121 . S
O258 C266 1.258 . S
C259 N260 1.326 . S
C259 C263 1.460 . S
C259 H265 0.929 . S
N260 Mn253 2.257 . S
N260 C259 1.326 . S
N260 C264 1.362 . S
C261 C262 1.258 . S
C261 C264 1.431 . S
C261 C281 1.449 1_556 S
C262 C261 1.258 . S
C262 C263 1.477 . S
C262 H282 0.931 . S
C263 C259 1.460 . S
C263 C262 1.477 . S
C263 H283 0.930 . S
C264 N260 1.362 . S
C264 C261 1.431 . S
C264 C274 1.476 1_556 S
H265 C259 0.929 . S
C266 O257 1.250 . S
C266 O258 1.258 . S
O267 Mn252 2.162 . S
O267 C255 1.281 . S
O268 Mn252 2.297 . S
O268 C255 1.236 . S
N269 Mn253 2.282 . S
N269 C270 1.328 1_556 S
N269 C274 1.318 1_556 S
C270 N269 1.328 1_554 S
C270 C271 1.457 . S
C270 H275 0.929 . S
C271 C270 1.457 . S
C271 C272 1.291 . S
C271 H284 0.931 . S
C272 C271 1.291 . S
C272 C273 1.373 . S
C272 H285 0.929 . S
C273 C272 1.373 . S
C273 C274 1.396 . S
C273 C280 1.403 . S
C274 C264 1.476 1_554 S
C274 N269 1.318 1_554 S
C274 C273 1.396 . S
H275 C270 0.929 . S
O276 Mn252 2.385 1_554 S
O276 C254 1.234 1_554 S
O277 Mn252 2.209 . S
O277 Mn253 2.215 . S
O277 C254 1.283 . S
O278 Mn252 2.094 . S
O278 C256 1.240 . S
O279 Mn253 2.117 . S
O279 C256 1.264 . S
C280 C273 1.403 . S
C280 C281 1.399 . S
C280 H286 0.929 . S
C281 C261 1.449 1_554 S
C281 C280 1.399 . S
C281 H287 0.930 . S
H282 C262 0.931 . S
H283 C263 0.930 . S
H284 C271 0.931 . S
H285 C272 0.929 . S
H286 C280 0.929 . S
H287 C281 0.930 . S
Mn288 O293 2.095 . S
Mn288 O303 2.162 . S
Mn288 O304 2.297 . S
Mn288 O312 2.385 . S
Mn288 O313 2.209 . S
Mn288 O314 2.094 . S
Mn289 O294 2.121 . S
Mn289 N296 2.257 . S
Mn289 N305 2.282 . S
Mn289 O313 2.215 . S
Mn289 O315 2.117 . S
C290 O312 1.234 . S
C290 O313 1.283 . S
C291 O303 1.281 . S
C291 O304 1.236 . S
C292 O314 1.240 . S
C292 O315 1.264 . S
O293 Mn288 2.095 . S
O293 C302 1.250 . S
O294 Mn289 2.121 . S
O294 C302 1.258 . S
C295 N296 1.326 . S
C295 C299 1.460 . S
C295 H301 0.929 . S
N296 Mn289 2.257 . S
N296 C295 1.326 . S
N296 C300 1.362 . S
C297 C298 1.258 . S
C297 C300 1.431 . S
C297 C317 1.449 . S
C298 C297 1.258 . S
C298 C299 1.477 . S
C298 H318 0.931 . S
C299 C295 1.460 . S
C299 C298 1.477 . S
C299 H319 0.930 . S
C300 N296 1.362 . S
C300 C297 1.431 . S
C300 C310 1.476 . S
H301 C295 0.929 . S
C302 O293 1.250 . S
C302 O294 1.258 . S
O303 Mn288 2.162 . S
O303 C291 1.281 . S
O304 Mn288 2.297 . S
O304 C291 1.236 . S
N305 Mn289 2.282 . S
N305 C306 1.328 . S
N305 C310 1.318 . S
C306 N305 1.328 . S
C306 C307 1.457 . S
C306 H311 0.929 . S
C307 C306 1.457 . S
C307 C308 1.291 . S
C307 H320 0.931 . S
C308 C307 1.291 . S
C308 C309 1.373 . S
C308 H321 0.929 . S
C309 C308 1.373 . S
C309 C310 1.396 . S
C309 C316 1.403 . S
C310 C300 1.476 . S
C310 N305 1.318 . S
C310 C309 1.396 . S
H311 C306 0.929 . S
O312 Mn288 2.385 . S
O312 C290 1.234 . S
O313 Mn288 2.209 . S
O313 Mn289 2.215 . S
O313 C290 1.283 . S
O314 Mn288 2.094 . S
O314 C292 1.240 . S
O315 Mn289 2.117 . S
O315 C292 1.264 . S
C316 C309 1.403 . S
C316 C317 1.399 . S
C316 H322 0.929 . S
C317 C297 1.449 . S
C317 C316 1.399 . S
C317 H323 0.930 . S
H318 C298 0.931 . S
H319 C299 0.930 . S
H320 C307 0.931 . S
H321 C308 0.929 . S
H322 C316 0.929 . S
H323 C317 0.930 . S
Mn324 O329 2.095 . S
Mn324 O339 2.162 . S
Mn324 O340 2.297 . S
Mn324 O348 2.385 . S
Mn324 O349 2.209 . S
Mn324 O350 2.094 . S
Mn325 O330 2.121 . S
Mn325 N332 2.257 . S
Mn325 N341 2.282 . S
Mn325 O349 2.215 . S
Mn325 O351 2.117 . S
C326 O348 1.234 . S
C326 O349 1.283 . S
C327 O339 1.281 . S
C327 O340 1.236 . S
C328 O350 1.240 . S
C328 O351 1.264 . S
O329 Mn324 2.095 . S
O329 C338 1.250 . S
O330 Mn325 2.121 . S
O330 C338 1.258 . S
C331 N332 1.326 . S
C331 C335 1.460 . S
C331 H337 0.929 . S
N332 Mn325 2.257 . S
N332 C331 1.326 . S
N332 C336 1.362 . S
C333 C334 1.258 . S
C333 C336 1.431 . S
C333 C353 1.449 . S
C334 C333 1.258 . S
C334 C335 1.477 . S
C334 H354 0.931 . S
C335 C331 1.460 . S
C335 C334 1.477 . S
C335 H355 0.930 . S
C336 N332 1.362 . S
C336 C333 1.431 . S
C336 C346 1.476 . S
H337 C331 0.929 . S
C338 O329 1.250 . S
C338 O330 1.258 . S
O339 Mn324 2.162 . S
O339 C327 1.281 . S
O340 Mn324 2.297 . S
O340 C327 1.236 . S
N341 Mn325 2.282 . S
N341 C342 1.328 . S
N341 C346 1.318 . S
C342 N341 1.328 . S
C342 C343 1.457 . S
C342 H347 0.929 . S
C343 C342 1.457 . S
C343 C344 1.291 . S
C343 H356 0.931 . S
C344 C343 1.291 . S
C344 C345 1.373 . S
C344 H357 0.929 . S
C345 C344 1.373 . S
C345 C346 1.396 . S
C345 C352 1.403 . S
C346 C336 1.476 . S
C346 N341 1.318 . S
C346 C345 1.396 . S
H347 C342 0.929 . S
O348 Mn324 2.385 . S
O348 C326 1.234 . S
O349 Mn324 2.209 . S
O349 Mn325 2.215 . S
O349 C326 1.283 . S
O350 Mn324 2.094 . S
O350 C328 1.240 . S
O351 Mn325 2.117 . S
O351 C328 1.264 . S
C352 C345 1.403 . S
C352 C353 1.399 . S
C352 H358 0.929 . S
C353 C333 1.449 . S
C353 C352 1.399 . S
C353 H359 0.930 . S
H354 C334 0.931 . S
H355 C335 0.930 . S
H356 C343 0.931 . S
H357 C344 0.929 . S
H358 C352 0.929 . S
H359 C353 0.930 . S
Mn360 O365 2.095 . S
Mn360 O375 2.162 . S
Mn360 O376 2.297 . S
Mn360 O384 2.385 1_556 S
Mn360 O385 2.209 . S
Mn360 O386 2.094 . S
Mn361 O366 2.121 . S
Mn361 N368 2.257 . S
Mn361 N377 2.282 . S
Mn361 O385 2.215 . S
Mn361 O387 2.117 . S
C362 O384 1.234 1_556 S
C362 O385 1.283 . S
C363 O375 1.281 . S
C363 O376 1.236 . S
C364 O386 1.240 . S
C364 O387 1.264 . S
O365 Mn360 2.095 . S
O365 C374 1.250 . S
O366 Mn361 2.121 . S
O366 C374 1.258 . S
C367 N368 1.326 . S
C367 C371 1.460 . S
C367 H373 0.929 . S
N368 Mn361 2.257 . S
N368 C367 1.326 . S
N368 C372 1.362 . S
C369 C370 1.258 . S
C369 C372 1.431 . S
C369 C389 1.449 1_556 S
C370 C369 1.258 . S
C370 C371 1.477 . S
C370 H390 0.931 . S
C371 C367 1.460 . S
C371 C370 1.477 . S
C371 H391 0.930 . S
C372 N368 1.362 . S
C372 C369 1.431 . S
C372 C382 1.476 1_556 S
H373 C367 0.929 . S
C374 O365 1.250 . S
C374 O366 1.258 . S
O375 Mn360 2.162 . S
O375 C363 1.281 . S
O376 Mn360 2.297 . S
O376 C363 1.236 . S
N377 Mn361 2.282 . S
N377 C378 1.328 1_556 S
N377 C382 1.318 1_556 S
C378 N377 1.328 1_554 S
C378 C379 1.457 . S
C378 H383 0.929 . S
C379 C378 1.457 . S
C379 C380 1.291 . S
C379 H392 0.931 . S
C380 C379 1.291 . S
C380 C381 1.373 . S
C380 H393 0.929 . S
C381 C380 1.373 . S
C381 C382 1.396 . S
C381 C388 1.403 . S
C382 C372 1.476 1_554 S
C382 N377 1.318 1_554 S
C382 C381 1.396 . S
H383 C378 0.929 . S
O384 Mn360 2.385 1_554 S
O384 C362 1.234 1_554 S
O385 Mn360 2.209 . S
O385 Mn361 2.215 . S
O385 C362 1.283 . S
O386 Mn360 2.094 . S
O386 C364 1.240 . S
O387 Mn361 2.117 . S
O387 C364 1.264 . S
C388 C381 1.403 . S
C388 C389 1.399 . S
C388 H394 0.929 . S
C389 C369 1.449 1_554 S
C389 C388 1.399 . S
C389 H395 0.930 . S
H390 C370 0.931 . S
H391 C371 0.930 . S
H392 C379 0.931 . S
H393 C380 0.929 . S
H394 C388 0.929 . S
H395 C389 0.930 . S
Mn396 O401 2.095 . S
Mn396 O411 2.162 . S
Mn396 O412 2.297 . S
Mn396 O420 2.385 . S
Mn396 O421 2.209 . S
Mn396 O422 2.094 . S
Mn397 O402 2.121 . S
Mn397 N404 2.257 . S
Mn397 N413 2.282 . S
Mn397 O421 2.215 . S
Mn397 O423 2.117 . S
C398 O420 1.234 . S
C398 O421 1.283 . S
C399 O411 1.281 . S
C399 O412 1.236 . S
C400 O422 1.240 . S
C400 O423 1.264 . S
O401 Mn396 2.095 . S
O401 C410 1.250 . S
O402 Mn397 2.121 . S
O402 C410 1.258 . S
C403 N404 1.326 . S
C403 C407 1.460 . S
C403 H409 0.929 . S
N404 Mn397 2.257 . S
N404 C403 1.326 . S
N404 C408 1.362 . S
C405 C406 1.258 . S
C405 C408 1.431 . S
C405 C425 1.449 . S
C406 C405 1.258 . S
C406 C407 1.477 . S
C406 H426 0.931 . S
C407 C403 1.460 . S
C407 C406 1.477 . S
C407 H427 0.930 . S
C408 N404 1.362 . S
C408 C405 1.431 . S
C408 C418 1.476 . S
H409 C403 0.929 . S
C410 O401 1.250 . S
C410 O402 1.258 . S
O411 Mn396 2.162 . S
O411 C399 1.281 . S
O412 Mn396 2.297 . S
O412 C399 1.236 . S
N413 Mn397 2.282 . S
N413 C414 1.328 . S
N413 C418 1.318 . S
C414 N413 1.328 . S
C414 C415 1.457 . S
C414 H419 0.929 . S
C415 C414 1.457 . S
C415 C416 1.291 . S
C415 H428 0.931 . S
C416 C415 1.291 . S
C416 C417 1.373 . S
C416 H429 0.929 . S
C417 C416 1.373 . S
C417 C418 1.396 . S
C417 C424 1.403 . S
C418 C408 1.476 . S
C418 N413 1.318 . S
C418 C417 1.396 . S
H419 C414 0.929 . S
O420 Mn396 2.385 . S
O420 C398 1.234 . S
O421 Mn396 2.209 . S
O421 Mn397 2.215 . S
O421 C398 1.283 . S
O422 Mn396 2.094 . S
O422 C400 1.240 . S
O423 Mn397 2.117 . S
O423 C400 1.264 . S
C424 C417 1.403 . S
C424 C425 1.399 . S
C424 H430 0.929 . S
C425 C405 1.449 . S
C425 C424 1.399 . S
C425 H431 0.930 . S
H426 C406 0.931 . S
H427 C407 0.930 . S
H428 C415 0.931 . S
H429 C416 0.929 . S
H430 C424 0.929 . S
H431 C425 0.930 . S
H432 C440 0.929 . S
H433 C442 0.930 . S
H434 C444 0.930 . S
H435 C447 0.929 . S
H436 C450 0.930 . S
H437 C452 0.960 . S
H438 C452 0.960 . S
H439 C452 0.960 . S
C440 H432 0.929 . S
C440 C441 1.377 . S
C440 C442 1.384 . S
C441 C440 1.377 . S
C441 C447 1.390 . S
C442 H433 0.930 . S
C442 C440 1.384 . S
C442 C443 1.372 . S
C443 C442 1.372 . S
C443 C444 1.400 . S
C443 C448 1.490 . S
C444 H434 0.930 . S
C444 C443 1.400 . S
C444 C447 1.386 . S
H445 C461 0.930 . S
H446 C462 0.931 . S
C447 H435 0.929 . S
C447 C441 1.390 . S
C447 C444 1.386 . S
C448 C443 1.490 . S
C448 C450 1.395 . S
C448 C451 1.403 . S
H449 C455 0.930 . S
C450 H436 0.930 . S
C450 C448 1.395 . S
C450 C453 1.403 . S
C451 C448 1.403 . S
C451 C452 1.524 . S
C451 C455 1.400 . S
C452 H437 0.960 . S
C452 H438 0.960 . S
C452 H439 0.960 . S
C452 C451 1.524 . S
C453 C450 1.403 . S
C453 C454 1.392 . S
C453 C457 1.495 . S
C454 C453 1.392 . S
C454 C455 1.385 . S
C454 C456 1.478 . S
C455 H449 0.930 . S
C455 C451 1.400 . S
C455 C454 1.385 . S
C456 C454 1.478 . S
C456 C458 1.381 . S
C456 C462 1.383 . S
C457 C453 1.495 . S
C457 H463 0.959 . S
C457 H464 0.961 . S
C457 H465 0.960 . S
C458 C456 1.381 . S
C458 C459 1.394 . S
C458 H466 0.930 . S
C459 C458 1.394 . S
C459 C460 1.383 . S
C459 H467 0.929 . S
C460 C459 1.383 . S
C460 C461 1.377 . S
C461 H445 0.930 . S
C461 C460 1.377 . S
C461 C462 1.379 . S
C462 H446 0.931 . S
C462 C456 1.383 . S
C462 C461 1.379 . S
H463 C457 0.959 . S
H464 C457 0.961 . S
H465 C457 0.960 . S
H466 C458 0.930 . S
H467 C459 0.929 . S
H468 C476 0.929 . S
H469 C478 0.930 . S
H470 C480 0.930 . S
H471 C483 0.929 . S
H472 C486 0.930 . S
H473 C488 0.960 . S
H474 C488 0.960 . S
H475 C488 0.960 . S
C476 H468 0.929 . S
C476 C477 1.377 . S
C476 C478 1.384 . S
C477 C476 1.377 . S
C477 C483 1.390 . S
C478 H469 0.930 . S
C478 C476 1.384 . S
C478 C479 1.372 . S
C479 C478 1.372 . S
C479 C480 1.400 . S
C479 C484 1.490 . S
C480 H470 0.930 . S
C480 C479 1.400 . S
C480 C483 1.386 . S
H481 C497 0.930 . S
H482 C498 0.931 . S
C483 H471 0.929 . S
C483 C477 1.390 . S
C483 C480 1.386 . S
C484 C479 1.490 . S
C484 C486 1.395 . S
C484 C487 1.403 . S
H485 C491 0.930 . S
C486 H472 0.930 . S
C486 C484 1.395 . S
C486 C489 1.403 . S
C487 C484 1.403 . S
C487 C488 1.524 . S
C487 C491 1.400 . S
C488 H473 0.960 . S
C488 H474 0.960 . S
C488 H475 0.960 . S
C488 C487 1.524 . S
C489 C486 1.403 . S
C489 C490 1.392 . S
C489 C493 1.495 . S
C490 C489 1.392 . S
C490 C491 1.385 . S
C490 C492 1.478 . S
C491 H485 0.930 . S
C491 C487 1.400 . S
C491 C490 1.385 . S
C492 C490 1.478 . S
C492 C494 1.381 . S
C492 C498 1.383 . S
C493 C489 1.495 . S
C493 H499 0.959 . S
C493 H500 0.961 . S
C493 H501 0.960 . S
C494 C492 1.381 . S
C494 C495 1.394 . S
C494 H502 0.930 . S
C495 C494 1.394 . S
C495 C496 1.383 . S
C495 H503 0.929 . S
C496 C495 1.383 . S
C496 C497 1.377 . S
C497 H481 0.930 . S
C497 C496 1.377 . S
C497 C498 1.379 . S
C498 H482 0.931 . S
C498 C492 1.383 . S
C498 C497 1.379 . S
H499 C493 0.959 . S
H500 C493 0.961 . S
H501 C493 0.960 . S
H502 C494 0.930 . S
H503 C495 0.929 . S
H504 C512 0.929 . S
H505 C514 0.930 . S
H506 C516 0.930 . S
H507 C519 0.929 . S
H508 C522 0.930 . S
H509 C524 0.960 . S
H510 C524 0.960 . S
H511 C524 0.960 . S
C512 H504 0.929 . S
C512 C513 1.377 . S
C512 C514 1.384 . S
C513 C512 1.377 . S
C513 C519 1.390 . S
C514 H505 0.930 . S
C514 C512 1.384 . S
C514 C515 1.372 . S
C515 C514 1.372 . S
C515 C516 1.400 . S
C515 C520 1.490 . S
C516 H506 0.930 . S
C516 C515 1.400 . S
C516 C519 1.386 . S
H517 C533 0.930 . S
H518 C534 0.931 . S
C519 H507 0.929 . S
C519 C513 1.390 . S
C519 C516 1.386 . S
C520 C515 1.490 . S
C520 C522 1.395 . S
C520 C523 1.403 . S
H521 C527 0.930 . S
C522 H508 0.930 . S
C522 C520 1.395 . S
C522 C525 1.403 1_556 S
C523 C520 1.403 . S
C523 C524 1.524 . S
C523 C527 1.400 1_556 S
C524 H509 0.960 . S
C524 H510 0.960 . S
C524 H511 0.960 . S
C524 C523 1.524 . S
C525 C522 1.403 1_554 S
C525 C526 1.392 . S
C525 C529 1.495 . S
C526 C525 1.392 . S
C526 C527 1.385 . S
C526 C528 1.478 . S
C527 H521 0.930 . S
C527 C523 1.400 1_554 S
C527 C526 1.385 . S
C528 C526 1.478 . S
C528 C530 1.381 . S
C528 C534 1.383 . S
C529 C525 1.495 . S
C529 H535 0.959 1_554 S
C529 H536 0.961 . S
C529 H537 0.960 . S
C530 C528 1.381 . S
C530 C531 1.394 . S
C530 H538 0.930 . S
C531 C530 1.394 . S
C531 C532 1.383 . S
C531 H539 0.929 . S
C532 C531 1.383 . S
C532 C533 1.377 . S
C533 H517 0.930 . S
C533 C532 1.377 . S
C533 C534 1.379 . S
C534 H518 0.931 . S
C534 C528 1.383 . S
C534 C533 1.379 . S
H535 C529 0.959 1_556 S
H536 C529 0.961 . S
H537 C529 0.960 . S
H538 C530 0.930 . S
H539 C531 0.929 . S
H540 C548 0.929 . S
H541 C550 0.930 . S
H542 C552 0.930 . S
H543 C555 0.929 . S
H544 C558 0.930 . S
H545 C560 0.960 . S
H546 C560 0.960 . S
H547 C560 0.960 . S
C548 H540 0.929 . S
C548 C549 1.377 . S
C548 C550 1.384 . S
C549 C548 1.377 . S
C549 C555 1.390 . S
C550 H541 0.930 . S
C550 C548 1.384 . S
C550 C551 1.372 . S
C551 C550 1.372 . S
C551 C552 1.400 . S
C551 C556 1.490 . S
C552 H542 0.930 . S
C552 C551 1.400 . S
C552 C555 1.386 . S
H553 C569 0.930 . S
H554 C570 0.931 . S
C555 H543 0.929 . S
C555 C549 1.390 . S
C555 C552 1.386 . S
C556 C551 1.490 . S
C556 C558 1.395 . S
C556 C559 1.403 . S
H557 C563 0.930 . S
C558 H544 0.930 . S
C558 C556 1.395 . S
C558 C561 1.403 . S
C559 C556 1.403 . S
C559 C560 1.524 . S
C559 C563 1.400 . S
C560 H545 0.960 . S
C560 H546 0.960 . S
C560 H547 0.960 . S
C560 C559 1.524 . S
C561 C558 1.403 . S
C561 C562 1.392 . S
C561 C565 1.495 . S
C562 C561 1.392 . S
C562 C563 1.385 . S
C562 C564 1.478 . S
C563 H557 0.930 . S
C563 C559 1.400 . S
C563 C562 1.385 . S
C564 C562 1.478 . S
C564 C566 1.381 . S
C564 C570 1.383 . S
C565 C561 1.495 . S
C565 H571 0.959 . S
C565 H572 0.961 . S
C565 H573 0.960 . S
C566 C564 1.381 . S
C566 C567 1.394 . S
C566 H574 0.930 . S
C567 C566 1.394 . S
C567 C568 1.383 . S
C567 H575 0.929 . S
C568 C567 1.383 . S
C568 C569 1.377 . S
C569 H553 0.930 . S
C569 C568 1.377 . S
C569 C570 1.379 . S
C570 H554 0.931 . S
C570 C564 1.383 . S
C570 C569 1.379 . S
H571 C565 0.959 . S
H572 C565 0.961 . S
H573 C565 0.960 . S
H574 C566 0.930 . S
H575 C567 0.929 . S
H576 C584 0.929 . S
H577 C586 0.930 . S
H578 C588 0.930 . S
H579 C591 0.929 . S
H580 C594 0.930 . S
H581 C596 0.960 . S
H582 C596 0.960 . S
H583 C596 0.960 . S
C584 H576 0.929 . S
C584 C585 1.377 . S
C584 C586 1.384 . S
C585 C584 1.377 . S
C585 C591 1.390 . S
C586 H577 0.930 . S
C586 C584 1.384 . S
C586 C587 1.372 . S
C587 C586 1.372 . S
C587 C588 1.400 . S
C587 C592 1.490 . S
C588 H578 0.930 . S
C588 C587 1.400 . S
C588 C591 1.386 . S
H589 C605 0.930 . S
H590 C606 0.931 . S
C591 H579 0.929 . S
C591 C585 1.390 . S
C591 C588 1.386 . S
C592 C587 1.490 . S
C592 C594 1.395 . S
C592 C595 1.403 . S
H593 C599 0.930 . S
C594 H580 0.930 . S
C594 C592 1.395 . S
C594 C597 1.403 . S
C595 C592 1.403 . S
C595 C596 1.524 . S
C595 C599 1.400 . S
C596 H581 0.960 . S
C596 H582 0.960 . S
C596 H583 0.960 . S
C596 C595 1.524 . S
C597 C594 1.403 . S
C597 C598 1.392 . S
C597 C601 1.495 . S
C598 C597 1.392 . S
C598 C599 1.385 . S
C598 C600 1.478 . S
C599 H593 0.930 . S
C599 C595 1.400 . S
C599 C598 1.385 . S
C600 C598 1.478 . S
C600 C602 1.381 . S
C600 C606 1.383 . S
C601 C597 1.495 . S
C601 H607 0.959 . S
C601 H608 0.961 . S
C601 H609 0.960 . S
C602 C600 1.381 . S
C602 C603 1.394 . S
C602 H610 0.930 . S
C603 C602 1.394 . S
C603 C604 1.383 . S
C603 H611 0.929 . S
C604 C603 1.383 . S
C604 C605 1.377 . S
C605 H589 0.930 . S
C605 C604 1.377 . S
C605 C606 1.379 . S
C606 H590 0.931 . S
C606 C600 1.383 . S
C606 C605 1.379 . S
H607 C601 0.959 . S
H608 C601 0.961 . S
H609 C601 0.960 . S
H610 C602 0.930 . S
H611 C603 0.929 . S
H612 C620 0.929 . S
H613 C622 0.930 . S
H614 C624 0.930 . S
H615 C627 0.929 . S
H616 C630 0.930 . S
H617 C632 0.960 1_556 S
H618 C632 0.960 . S
H619 C632 0.960 . S
C620 H612 0.929 . S
C620 C621 1.377 . S
C620 C622 1.384 . S
C621 C620 1.377 . S
C621 C627 1.390 . S
C622 H613 0.930 . S
C622 C620 1.384 . S
C622 C623 1.372 . S
C623 C622 1.372 . S
C623 C624 1.400 . S
C623 C628 1.490 . S
C624 H614 0.930 . S
C624 C623 1.400 . S
C624 C627 1.386 . S
H625 C641 0.930 . S
H626 C642 0.931 . S
C627 H615 0.929 . S
C627 C621 1.390 . S
C627 C624 1.386 . S
C628 C623 1.490 . S
C628 C630 1.395 . S
C628 C631 1.403 . S
H629 C635 0.930 . S
C630 H616 0.930 . S
C630 C628 1.395 . S
C630 C633 1.403 1_554 S
C631 C628 1.403 . S
C631 C632 1.524 . S
C631 C635 1.400 1_554 S
C632 H617 0.960 1_554 S
C632 H618 0.960 . S
C632 H619 0.960 . S
C632 C631 1.524 . S
C633 C630 1.403 1_556 S
C633 C634 1.392 . S
C633 C637 1.495 . S
C634 C633 1.392 . S
C634 C635 1.385 . S
C634 C636 1.478 . S
C635 H629 0.930 . S
C635 C631 1.400 1_556 S
C635 C634 1.385 . S
C636 C634 1.478 . S
C636 C638 1.381 . S
C636 C642 1.383 . S
C637 C633 1.495 . S
C637 H643 0.959 . S
C637 H644 0.961 . S
C637 H645 0.960 . S
C638 C636 1.381 . S
C638 C639 1.394 . S
C638 H646 0.930 . S
C639 C638 1.394 . S
C639 C640 1.383 . S
C639 H647 0.929 . S
C640 C639 1.383 . S
C640 C641 1.377 . S
C641 H625 0.930 . S
C641 C640 1.377 . S
C641 C642 1.379 . S
C642 H626 0.931 . S
C642 C636 1.383 . S
C642 C641 1.379 . S
H643 C637 0.959 . S
H644 C637 0.961 . S
H645 C637 0.960 . S
H646 C638 0.930 . S
H647 C639 0.929 . S
H648 C656 0.929 . S
H649 C658 0.930 . S
H650 C660 0.930 . S
H651 C663 0.929 . S
H652 C666 0.930 . S
H653 C668 0.960 . S
H654 C668 0.960 . S
H655 C668 0.974 . S
C656 H648 0.929 . S
C656 C657 1.377 . S
C656 C658 1.384 . S
C657 C656 1.377 . S
C657 C663 1.390 . S
C658 H649 0.930 . S
C658 C656 1.384 . S
C658 C659 1.372 . S
C659 C658 1.372 . S
C659 C660 1.400 . S
C659 C664 1.490 . S
C660 H650 0.930 . S
C660 C659 1.400 . S
C660 C663 1.386 . S
H661 C677 0.930 . S
H662 C678 0.931 1_554 S
C663 H651 0.929 . S
C663 C657 1.390 . S
C663 C660 1.386 . S
C664 C659 1.490 . S
C664 C666 1.395 . S
C664 C667 1.403 1_554 S
H665 C671 0.930 . S
C666 H652 0.930 . S
C666 C664 1.395 . S
C666 C669 1.403 . S
C667 C664 1.403 1_556 S
C667 C668 1.524 . S
C667 C671 1.400 . S
C668 H653 0.960 . S
C668 H654 0.960 . S
C668 H655 0.974 . S
C668 C667 1.524 . S
C669 C666 1.403 . S
C669 C670 1.392 1_554 S
C669 C673 1.495 . S
C670 C669 1.392 1_556 S
C670 C671 1.385 . S
C670 C672 1.478 . S
C671 H665 0.930 . S
C671 C667 1.400 . S
C671 C670 1.385 . S
C672 C670 1.478 . S
C672 C674 1.381 . S
C672 C678 1.383 . S
C673 C669 1.495 . S
C673 H679 0.959 . S
C673 H680 0.961 . S
C673 H681 0.960 . S
C674 C672 1.381 . S
C674 C675 1.394 . S
C674 H682 0.930 . S
C675 C674 1.394 . S
C675 C676 1.383 . S
C675 H683 0.929 . S
C676 C675 1.383 . S
C676 C677 1.377 . S
C677 H661 0.930 . S
C677 C676 1.377 . S
C677 C678 1.379 . S
C678 H662 0.931 1_556 S
C678 C672 1.383 . S
C678 C677 1.379 . S
H679 C673 0.959 . S
H680 C673 0.961 . S
H681 C673 0.960 . S
H682 C674 0.930 . S
H683 C675 0.929 . S
H684 C692 0.929 . S
H685 C694 0.930 . S
H686 C696 0.930 . S
H687 C699 0.929 . S
H688 C702 0.930 . S
H689 C704 0.960 . S
H690 C704 0.960 . S
H691 C704 0.960 . S
C692 H684 0.929 . S
C692 C693 1.377 . S
C692 C694 1.384 . S
C693 C692 1.377 . S
C693 C699 1.390 . S
C694 H685 0.930 . S
C694 C692 1.384 . S
C694 C695 1.372 . S
C695 C694 1.372 . S
C695 C696 1.400 . S
C695 C700 1.490 . S
C696 H686 0.930 . S
C696 C695 1.400 . S
C696 C699 1.386 . S
H697 C713 0.930 . S
H698 C714 0.931 . S
C699 H687 0.929 . S
C699 C693 1.390 . S
C699 C696 1.386 . S
C700 C695 1.490 . S
C700 C702 1.395 . S
C700 C703 1.403 . S
H701 C707 0.930 . S
C702 H688 0.930 . S
C702 C700 1.395 . S
C702 C705 1.403 . S
C703 C700 1.403 . S
C703 C704 1.524 . S
C703 C707 1.400 . S
C704 H689 0.960 . S
C704 H690 0.960 . S
C704 H691 0.960 . S
C704 C703 1.524 . S
C705 C702 1.403 . S
C705 C706 1.392 . S
C705 C709 1.495 . S
C706 C705 1.392 . S
C706 C707 1.385 . S
C706 C708 1.478 . S
C707 H701 0.930 . S
C707 C703 1.400 . S
C707 C706 1.385 . S
C708 C706 1.478 . S
C708 C710 1.381 . S
C708 C714 1.383 . S
C709 C705 1.495 . S
C709 H715 0.959 . S
C709 H716 0.961 . S
C709 H717 0.960 . S
C710 C708 1.381 . S
C710 C711 1.394 . S
C710 H718 0.930 . S
C711 C710 1.394 . S
C711 C712 1.383 . S
C711 H719 0.929 . S
C712 C711 1.383 . S
C712 C713 1.377 . S
C713 H697 0.930 . S
C713 C712 1.377 . S
C713 C714 1.379 . S
C714 H698 0.931 . S
C714 C708 1.383 . S
C714 C713 1.379 . S
H715 C709 0.959 . S
H716 C709 0.961 . S
H717 C709 0.960 . S
H718 C710 0.930 . S
H719 C711 0.929 . S
H720 C728 0.929 . S
H721 C730 0.930 . S
H722 C732 0.930 . S
H723 C735 0.929 . S
H724 C738 0.930 . S
H725 C740 0.960 . S
H726 C740 0.960 . S
H727 C740 0.960 . S
C728 H720 0.929 . S
C728 C729 1.377 . S
C728 C730 1.384 . S
C729 C728 1.377 . S
C729 C735 1.390 . S
C730 H721 0.930 . S
C730 C728 1.384 . S
C730 C731 1.372 . S
C731 C730 1.372 . S
C731 C732 1.400 . S
C731 C736 1.490 . S
C732 H722 0.930 . S
C732 C731 1.400 . S
C732 C735 1.386 . S
H733 C749 0.930 . S
H734 C750 0.931 . S
C735 H723 0.929 . S
C735 C729 1.390 . S
C735 C732 1.386 . S
C736 C731 1.490 . S
C736 C738 1.395 . S
C736 C739 1.403 . S
H737 C743 0.930 . S
C738 H724 0.930 . S
C738 C736 1.395 . S
C738 C741 1.403 . S
C739 C736 1.403 . S
C739 C740 1.524 . S
C739 C743 1.400 . S
C740 H725 0.960 . S
C740 H726 0.960 . S
C740 H727 0.960 . S
C740 C739 1.524 . S
C741 C738 1.403 . S
C741 C742 1.392 . S
C741 C745 1.495 . S
C742 C741 1.392 . S
C742 C743 1.385 . S
C742 C744 1.478 . S
C743 H737 0.930 . S
C743 C739 1.400 . S
C743 C742 1.385 . S
C744 C742 1.478 . S
C744 C746 1.381 . S
C744 C750 1.383 . S
C745 C741 1.495 . S
C745 H751 0.959 . S
C745 H752 0.961 . S
C745 H753 0.960 . S
C746 C744 1.381 . S
C746 C747 1.394 . S
C746 H754 0.930 . S
C747 C746 1.394 . S
C747 C748 1.383 . S
C747 H755 0.929 . S
C748 C747 1.383 . S
C748 C749 1.377 . S
C749 H733 0.930 . S
C749 C748 1.377 . S
C749 C750 1.379 . S
C750 H734 0.931 . S
C750 C744 1.383 . S
C750 C749 1.379 . S
H751 C745 0.959 . S
H752 C745 0.961 . S
H753 C745 0.960 . S
H754 C746 0.930 . S
H755 C747 0.929 . S
H756 C764 0.929 . S
H757 C766 0.930 . S
H758 C768 0.930 . S
H759 C771 0.929 . S
H760 C774 0.930 . S
H761 C776 0.960 . S
H762 C776 0.960 . S
H763 C776 0.960 . S
C764 H756 0.929 . S
C764 C765 1.377 . S
C764 C766 1.384 . S
C765 C764 1.377 . S
C765 C771 1.390 . S
C766 H757 0.930 . S
C766 C764 1.384 . S
C766 C767 1.372 . S
C767 C766 1.372 . S
C767 C768 1.400 . S
C767 C772 1.490 . S
C768 H758 0.930 . S
C768 C767 1.400 . S
C768 C771 1.386 . S
H769 C785 0.930 . S
H770 C786 0.931 1_554 S
C771 H759 0.929 . S
C771 C765 1.390 . S
C771 C768 1.386 . S
C772 C767 1.490 . S
C772 C774 1.395 . S
C772 C775 1.403 1_554 S
H773 C779 0.930 . S
C774 H760 0.930 . S
C774 C772 1.395 . S
C774 C777 1.403 . S
C775 C772 1.403 1_556 S
C775 C776 1.524 . S
C775 C779 1.400 . S
C776 H761 0.960 . S
C776 H762 0.960 . S
C776 H763 0.960 . S
C776 C775 1.524 . S
C777 C774 1.403 . S
C777 C778 1.392 1_554 S
C777 C781 1.495 . S
C778 C777 1.392 1_556 S
C778 C779 1.385 . S
C778 C780 1.478 . S
C779 H773 0.930 . S
C779 C775 1.400 . S
C779 C778 1.385 . S
C780 C778 1.478 . S
C780 C782 1.381 . S
C780 C786 1.383 . S
C781 C777 1.495 . S
C781 H787 0.959 . S
C781 H788 0.961 . S
C781 H789 0.960 . S
C782 C780 1.381 . S
C782 C783 1.394 . S
C782 H790 0.930 . S
C783 C782 1.394 . S
C783 C784 1.383 . S
C783 H791 0.929 . S
C784 C783 1.383 . S
C784 C785 1.377 . S
C785 H769 0.930 . S
C785 C784 1.377 . S
C785 C786 1.379 . S
C786 H770 0.931 1_556 S
C786 C780 1.383 . S
C786 C785 1.379 . S
H787 C781 0.959 . S
H788 C781 0.961 . S
H789 C781 0.960 . S
H790 C782 0.930 . S
H791 C783 0.929 . S
H792 C800 0.929 . S
H793 C802 0.930 . S
H794 C804 0.930 . S
H795 C807 0.929 . S
H796 C810 0.930 . S
H797 C812 0.960 . S
H798 C812 0.960 . S
H799 C812 0.960 . S
C800 H792 0.929 . S
C800 C801 1.377 . S
C800 C802 1.384 . S
C801 C800 1.377 . S
C801 C807 1.390 . S
C802 H793 0.930 . S
C802 C800 1.384 . S
C802 C803 1.372 . S
C803 C802 1.372 . S
C803 C804 1.400 . S
C803 C808 1.490 . S
C804 H794 0.930 . S
C804 C803 1.400 . S
C804 C807 1.386 . S
H805 C821 0.930 . S
H806 C822 0.931 . S
C807 H795 0.929 . S
C807 C801 1.390 . S
C807 C804 1.386 . S
C808 C803 1.490 . S
C808 C810 1.395 . S
C808 C811 1.403 . S
H809 C815 0.930 . S
C810 H796 0.930 . S
C810 C808 1.395 . S
C810 C813 1.403 . S
C811 C808 1.403 . S
C811 C812 1.524 . S
C811 C815 1.400 . S
C812 H797 0.960 . S
C812 H798 0.960 . S
C812 H799 0.960 . S
C812 C811 1.524 . S
C813 C810 1.403 . S
C813 C814 1.392 . S
C813 C817 1.495 . S
C814 C813 1.392 . S
C814 C815 1.385 . S
C814 C816 1.478 . S
C815 H809 0.930 . S
C815 C811 1.400 . S
C815 C814 1.385 . S
C816 C814 1.478 . S
C816 C818 1.381 . S
C816 C822 1.383 . S
C817 C813 1.495 . S
C817 H823 0.959 . S
C817 H824 0.961 . S
C817 H825 0.960 . S
C818 C816 1.381 . S
C818 C819 1.394 . S
C818 H826 0.930 . S
C819 C818 1.394 . S
C819 C820 1.383 . S
C819 H827 0.929 . S
C820 C819 1.383 . S
C820 C821 1.377 . S
C821 H805 0.930 . S
C821 C820 1.377 . S
C821 C822 1.379 . S
C822 H806 0.931 . S
C822 C816 1.383 . S
C822 C821 1.379 . S
H823 C817 0.959 . S
H824 C817 0.961 . S
H825 C817 0.960 . S
H826 C818 0.930 . S
H827 C819 0.929 . S
H828 C836 0.929 . S
H829 C838 0.930 . S
H830 C840 0.930 . S
H831 C843 0.929 . S
H832 C846 0.930 . S
H833 C848 0.960 . S
H834 C848 0.960 . S
H835 C848 0.960 . S
C836 H828 0.929 . S
C836 C837 1.377 . S
C836 C838 1.384 . S
C837 C836 1.377 . S
C837 C843 1.390 . S
C838 H829 0.930 . S
C838 C836 1.384 . S
C838 C839 1.372 . S
C839 C838 1.372 . S
C839 C840 1.400 . S
C839 C844 1.490 . S
C840 H830 0.930 . S
C840 C839 1.400 . S
C840 C843 1.386 . S
H841 C857 0.930 . S
H842 C858 0.931 . S
C843 H831 0.929 . S
C843 C837 1.390 . S
C843 C840 1.386 . S
C844 C839 1.490 . S
C844 C846 1.395 . S
C844 C847 1.403 . S
H845 C851 0.930 . S
C846 H832 0.930 . S
C846 C844 1.395 . S
C846 C849 1.403 . S
C847 C844 1.403 . S
C847 C848 1.524 . S
C847 C851 1.400 . S
C848 H833 0.960 . S
C848 H834 0.960 . S
C848 H835 0.960 . S
C848 C847 1.524 . S
C849 C846 1.403 . S
C849 C850 1.392 . S
C849 C853 1.495 . S
C850 C849 1.392 . S
C850 C851 1.385 . S
C850 C852 1.478 . S
C851 H845 0.930 . S
C851 C847 1.400 . S
C851 C850 1.385 . S
C852 C850 1.478 . S
C852 C854 1.381 . S
C852 C858 1.383 . S
C853 C849 1.495 . S
C853 H859 0.959 . S
C853 H860 0.961 . S
C853 H861 0.960 . S
C854 C852 1.381 . S
C854 C855 1.394 . S
C854 H862 0.930 . S
C855 C854 1.394 . S
C855 C856 1.383 . S
C855 H863 0.929 . S
C856 C855 1.383 . S
C856 C857 1.377 . S
C857 H841 0.930 . S
C857 C856 1.377 . S
C857 C858 1.379 . S
C858 H842 0.931 . S
C858 C852 1.383 . S
C858 C857 1.379 . S
H859 C853 0.959 . S
H860 C853 0.961 . S
H861 C853 0.960 . S
H862 C854 0.930 . S
H863 C855 0.929 . S
H864 C872 0.929 . S
H865 C874 0.930 . S
H866 C876 0.930 . S
H867 C879 0.929 . S
H868 C882 0.930 . S
H869 C884 0.960 . S
H870 C884 0.960 . S
H871 C884 0.960 . S
C872 H864 0.929 . S
C872 C873 1.377 . S
C872 C874 1.384 . S
C873 C872 1.377 . S
C873 C879 1.390 . S
C874 H865 0.930 . S
C874 C872 1.384 . S
C874 C875 1.372 . S
C875 C874 1.372 . S
C875 C876 1.400 . S
C875 C880 1.490 . S
C876 H866 0.930 . S
C876 C875 1.400 . S
C876 C879 1.386 . S
H877 C893 0.930 . S
H878 C894 0.931 . S
C879 H867 0.929 . S
C879 C873 1.390 . S
C879 C876 1.386 . S
C880 C875 1.490 . S
C880 C882 1.395 . S
C880 C883 1.403 . S
H881 C887 0.930 . S
C882 H868 0.930 . S
C882 C880 1.395 . S
C882 C885 1.403 . S
C883 C880 1.403 . S
C883 C884 1.524 . S
C883 C887 1.400 . S
C884 H869 0.960 . S
C884 H870 0.960 . S
C884 H871 0.960 . S
C884 C883 1.524 . S
C885 C882 1.403 . S
C885 C886 1.392 . S
C885 C889 1.495 . S
C886 C885 1.392 . S
C886 C887 1.385 . S
C886 C888 1.478 . S
C887 H881 0.930 . S
C887 C883 1.400 . S
C887 C886 1.385 . S
C888 C886 1.478 . S
C888 C890 1.381 . S
C888 C894 1.383 . S
C889 C885 1.495 . S
C889 H895 0.959 . S
C889 H896 0.961 . S
C889 H897 0.960 . S
C890 C888 1.381 . S
C890 C891 1.394 . S
C890 H898 0.930 . S
C891 C890 1.394 . S
C891 C892 1.383 . S
C891 H899 0.929 . S
C892 C891 1.383 . S
C892 C893 1.377 . S
C893 H877 0.930 . S
C893 C892 1.377 . S
C893 C894 1.379 . S
C894 H878 0.931 . S
C894 C888 1.383 . S
C894 C893 1.379 . S
H895 C889 0.959 . S
H896 C889 0.961 . S
H897 C889 0.960 . S
H898 C890 0.930 . S
H899 C891 0.929 . S
H900 C908 0.929 . S
H901 C910 0.930 . S
H902 C912 0.930 . S
H903 C915 0.929 . S
H904 C918 0.930 . S
H905 C920 0.960 . S
H906 C920 0.960 . S
H907 C920 0.960 . S
C908 H900 0.929 . S
C908 C909 1.377 . S
C908 C910 1.384 . S
C909 C908 1.377 . S
C909 C915 1.390 . S
C910 H901 0.930 . S
C910 C908 1.384 . S
C910 C911 1.372 . S
C911 C910 1.372 . S
C911 C912 1.400 . S
C911 C916 1.490 . S
C912 H902 0.930 . S
C912 C911 1.400 . S
C912 C915 1.386 . S
H913 C929 0.930 . S
H914 C930 0.931 . S
C915 H903 0.929 . S
C915 C909 1.390 . S
C915 C912 1.386 . S
C916 C911 1.490 . S
C916 C918 1.395 . S
C916 C919 1.403 . S
H917 C923 0.930 . S
C918 H904 0.930 . S
C918 C916 1.395 . S
C918 C921 1.403 1_655 S
C919 C916 1.403 . S
C919 C920 1.524 . S
C919 C923 1.400 1_655 S
C920 H905 0.960 . S
C920 H906 0.960 . S
C920 H907 0.960 . S
C920 C919 1.524 . S
C921 C918 1.403 1_455 S
C921 C922 1.392 . S
C921 C925 1.495 . S
C922 C921 1.392 . S
C922 C923 1.385 . S
C922 C924 1.478 . S
C923 H917 0.930 . S
C923 C919 1.400 1_455 S
C923 C922 1.385 . S
C924 C922 1.478 . S
C924 C926 1.381 . S
C924 C930 1.383 . S
C925 C921 1.495 . S
C925 H931 0.959 . S
C925 H932 0.961 . S
C925 H933 0.960 . S
C926 C924 1.381 . S
C926 C927 1.394 . S
C926 H934 0.930 . S
C927 C926 1.394 . S
C927 C928 1.383 . S
C927 H935 0.929 . S
C928 C927 1.383 . S
C928 C929 1.377 . S
C929 H913 0.930 . S
C929 C928 1.377 . S
C929 C930 1.379 . S
C930 H914 0.931 . S
C930 C924 1.383 . S
C930 C929 1.379 . S
H931 C925 0.959 . S
H932 C925 0.961 . S
H933 C925 0.960 . S
H934 C926 0.930 . S
H935 C927 0.929 . S
H936 C944 0.929 . S
H937 C946 0.930 . S
H938 C948 0.930 . S
H939 C951 0.929 . S
H940 C954 0.930 . S
H941 C956 0.960 1_565 S
H942 C956 0.960 . S
H943 C956 0.960 . S
C944 H936 0.929 . S
C944 C945 1.377 . S
C944 C946 1.384 . S
C945 C944 1.377 . S
C945 C951 1.390 . S
C946 H937 0.930 . S
C946 C944 1.384 . S
C946 C947 1.372 . S
C947 C946 1.372 . S
C947 C948 1.400 . S
C947 C952 1.490 . S
C948 H938 0.930 . S
C948 C947 1.400 . S
C948 C951 1.386 . S
H949 C965 0.930 . S
H950 C966 0.931 . S
C951 H939 0.929 . S
C951 C945 1.390 . S
C951 C948 1.386 . S
C952 C947 1.490 . S
C952 C954 1.395 . S
C952 C955 1.403 . S
H953 C959 0.930 . S
C954 H940 0.930 . S
C954 C952 1.395 . S
C954 C957 1.403 1_545 S
C955 C952 1.403 . S
C955 C956 1.524 . S
C955 C959 1.400 1_545 S
C956 H941 0.960 1_545 S
C956 H942 0.960 . S
C956 H943 0.960 . S
C956 C955 1.524 . S
C957 C954 1.403 1_565 S
C957 C958 1.392 . S
C957 C961 1.495 . S
C958 C957 1.392 . S
C958 C959 1.385 . S
C958 C960 1.478 . S
C959 H953 0.930 . S
C959 C955 1.400 1_565 S
C959 C958 1.385 . S
C960 C958 1.478 . S
C960 C962 1.381 . S
C960 C966 1.383 . S
C961 C957 1.495 . S
C961 H967 0.959 1_565 S
C961 H968 0.961 . S
C961 H969 0.960 . S
C962 C960 1.381 . S
C962 C963 1.394 . S
C962 H970 0.930 . S
C963 C962 1.394 . S
C963 C964 1.383 . S
C963 H971 0.929 . S
C964 C963 1.383 . S
C964 C965 1.377 . S
C965 H949 0.930 . S
C965 C964 1.377 . S
C965 C966 1.379 . S
C966 H950 0.931 . S
C966 C960 1.383 . S
C966 C965 1.379 . S
H967 C961 0.959 1_545 S
H968 C961 0.961 . S
H969 C961 0.960 . S
H970 C962 0.930 . S
H971 C963 0.929 . S
H972 C980 0.929 . S
H973 C982 0.930 . S
H974 C984 0.930 . S
H975 C987 0.929 . S
H976 C990 0.930 . S
H977 C992 0.960 . S
H978 C992 0.960 . S
H979 C992 0.960 . S
C980 H972 0.929 . S
C980 C981 1.377 . S
C980 C982 1.384 . S
C981 C980 1.377 . S
C981 C987 1.390 . S
C982 H973 0.930 . S
C982 C980 1.384 . S
C982 C983 1.372 . S
C983 C982 1.372 . S
C983 C984 1.400 . S
C983 C988 1.490 . S
C984 H974 0.930 . S
C984 C983 1.400 . S
C984 C987 1.386 . S
H985 C1001 0.930 . S
H986 C1002 0.931 . S
C987 H975 0.929 . S
C987 C981 1.390 . S
C987 C984 1.386 . S
C988 C983 1.490 . S
C988 C990 1.395 . S
C988 C991 1.403 . S
H989 C995 0.930 . S
C990 H976 0.930 . S
C990 C988 1.395 . S
C990 C993 1.403 . S
C991 C988 1.403 . S
C991 C992 1.524 . S
C991 C995 1.400 . S
C992 H977 0.960 . S
C992 H978 0.960 . S
C992 H979 0.960 . S
C992 C991 1.524 . S
C993 C990 1.403 . S
C993 C994 1.392 . S
C993 C997 1.495 . S
C994 C993 1.392 . S
C994 C995 1.385 . S
C994 C996 1.478 . S
C995 H989 0.930 . S
C995 C991 1.400 . S
C995 C994 1.385 . S
C996 C994 1.478 . S
C996 C998 1.381 . S
C996 C1002 1.383 . S
C997 C993 1.495 . S
C997 H1003 0.959 . S
C997 H1004 0.961 . S
C997 H1005 0.960 . S
C998 C996 1.381 . S
C998 C999 1.394 . S
C998 H1006 0.930 . S
C999 C998 1.394 . S
C999 C1000 1.383 . S
C999 H1007 0.929 . S
C1000 C999 1.383 . S
C1000 C1001 1.377 . S
C1001 H985 0.930 . S
C1001 C1000 1.377 . S
C1001 C1002 1.379 . S
C1002 H986 0.931 . S
C1002 C996 1.383 . S
C1002 C1001 1.379 . S
H1003 C997 0.959 . S
H1004 C997 0.961 . S
H1005 C997 0.960 . S
H1006 C998 0.930 . S
H1007 C999 0.929 . S
H1008 C1016 0.929 . S
H1009 C1018 0.930 . S
H1010 C1020 0.930 . S
H1011 C1023 0.929 . S
H1012 C1026 0.930 . S
H1013 C1028 0.960 1_554 S
H1014 C1028 0.960 . S
H1015 C1028 0.960 1_554 S
C1016 H1008 0.929 . S
C1016 C1017 1.377 . S
C1016 C1018 1.384 . S
C1017 C1016 1.377 . S
C1017 C1023 1.390 . S
C1018 H1009 0.930 . S
C1018 C1016 1.384 . S
C1018 C1019 1.372 . S
C1019 C1018 1.372 . S
C1019 C1020 1.400 . S
C1019 C1024 1.490 . S
C1020 H1010 0.930 . S
C1020 C1019 1.400 . S
C1020 C1023 1.386 . S
H1021 C1037 0.930 . S
H1022 C1038 0.931 . S
C1023 H1011 0.929 . S
C1023 C1017 1.390 . S
C1023 C1020 1.386 . S
C1024 C1019 1.490 . S
C1024 C1026 1.395 . S
C1024 C1027 1.403 . S
H1025 C1031 0.930 . S
C1026 H1012 0.930 . S
C1026 C1024 1.395 . S
C1026 C1029 1.403 1_455 S
C1027 C1024 1.403 . S
C1027 C1028 1.524 . S
C1027 C1031 1.400 1_455 S
C1028 H1013 0.960 1_556 S
C1028 H1014 0.960 . S
C1028 H1015 0.960 1_556 S
C1028 C1027 1.524 . S
C1029 C1026 1.403 1_655 S
C1029 C1030 1.392 . S
C1029 C1033 1.495 . S
C1030 C1029 1.392 . S
C1030 C1031 1.385 . S
C1030 C1032 1.478 . S
C1031 H1025 0.930 . S
C1031 C1027 1.400 1_655 S
C1031 C1030 1.385 . S
C1032 C1030 1.478 . S
C1032 C1034 1.381 . S
C1032 C1038 1.383 . S
C1033 C1029 1.495 . S
C1033 H1039 0.959 . S
C1033 H1040 0.961 . S
C1033 H1041 0.960 . S
C1034 C1032 1.381 . S
C1034 C1035 1.394 . S
C1034 H1042 0.930 . S
C1035 C1034 1.394 . S
C1035 C1036 1.383 . S
C1035 H1043 0.929 . S
C1036 C1035 1.383 . S
C1036 C1037 1.377 . S
C1037 H1021 0.930 . S
C1037 C1036 1.377 . S
C1037 C1038 1.379 . S
C1038 H1022 0.931 . S
C1038 C1032 1.383 . S
C1038 C1037 1.379 . S
H1039 C1033 0.959 . S
H1040 C1033 0.961 . S
H1041 C1033 0.960 . S
H1042 C1034 0.930 . S
H1043 C1035 0.929 . S
H1044 C1052 0.929 . S
H1045 C1054 0.930 . S
H1046 C1056 0.930 . S
H1047 C1059 0.929 . S
H1048 C1062 0.930 . S
H1049 C1064 0.960 . S
H1050 C1064 0.960 . S
H1051 C1064 0.960 . S
C1052 H1044 0.929 . S
C1052 C1053 1.377 . S
C1052 C1054 1.384 . S
C1053 C1052 1.377 . S
C1053 C1059 1.390 . S
C1054 H1045 0.930 . S
C1054 C1052 1.384 . S
C1054 C1055 1.372 . S
C1055 C1054 1.372 . S
C1055 C1056 1.400 . S
C1055 C1060 1.490 . S
C1056 H1046 0.930 . S
C1056 C1055 1.400 . S
C1056 C1059 1.386 . S
H1057 C1073 0.930 . S
H1058 C1074 0.931 . S
C1059 H1047 0.929 . S
C1059 C1053 1.390 . S
C1059 C1056 1.386 . S
C1060 C1055 1.490 . S
C1060 C1062 1.395 1_565 S
C1060 C1063 1.403 . S
H1061 C1067 0.930 . S
C1062 H1048 0.930 . S
C1062 C1060 1.395 1_545 S
C1062 C1065 1.403 . S
C1063 C1060 1.403 . S
C1063 C1064 1.524 . S
C1063 C1067 1.400 . S
C1064 H1049 0.960 . S
C1064 H1050 0.960 . S
C1064 H1051 0.960 . S
C1064 C1063 1.524 . S
C1065 C1062 1.403 . S
C1065 C1066 1.392 . S
C1065 C1069 1.495 . S
C1066 C1065 1.392 . S
C1066 C1067 1.385 1_545 S
C1066 C1068 1.478 . S
C1067 H1061 0.930 . S
C1067 C1063 1.400 . S
C1067 C1066 1.385 1_565 S
C1068 C1066 1.478 . S
C1068 C1070 1.381 . S
C1068 C1074 1.383 . S
C1069 C1065 1.495 . S
C1069 H1075 0.959 . S
C1069 H1076 0.961 . S
C1069 H1077 0.960 . S
C1070 C1068 1.381 . S
C1070 C1071 1.394 . S
C1070 H1078 0.930 . S
C1071 C1070 1.394 . S
C1071 C1072 1.383 . S
C1071 H1079 0.929 . S
C1072 C1071 1.383 . S
C1072 C1073 1.377 . S
C1073 H1057 0.930 . S
C1073 C1072 1.377 . S
C1073 C1074 1.379 . S
C1074 H1058 0.931 . S
C1074 C1068 1.383 . S
C1074 C1073 1.379 . S
H1075 C1069 0.959 . S
H1076 C1069 0.961 . S
H1077 C1069 0.960 . S
H1078 C1070 0.930 . S
H1079 C1071 0.929 . S
H1080 C1088 0.929 . S
H1081 C1090 0.930 . S
H1082 C1092 0.930 . S
H1083 C1095 0.929 . S
H1084 C1098 0.930 . S
H1085 C1100 0.960 . S
H1086 C1100 0.960 . S
H1087 C1100 0.960 . S
C1088 H1080 0.929 . S
C1088 C1089 1.377 . S
C1088 C1090 1.384 . S
C1089 C1088 1.377 . S
C1089 C1095 1.390 . S
C1090 H1081 0.930 . S
C1090 C1088 1.384 . S
C1090 C1091 1.372 . S
C1091 C1090 1.372 . S
C1091 C1092 1.400 . S
C1091 C1096 1.490 . S
C1092 H1082 0.930 . S
C1092 C1091 1.400 . S
C1092 C1095 1.386 . S
H1093 C1109 0.930 . S
H1094 C1110 0.931 . S
C1095 H1083 0.929 . S
C1095 C1089 1.390 . S
C1095 C1092 1.386 . S
C1096 C1091 1.490 . S
C1096 C1098 1.395 . S
C1096 C1099 1.403 . S
H1097 C1103 0.930 . S
C1098 H1084 0.930 . S
C1098 C1096 1.395 . S
C1098 C1101 1.403 . S
C1099 C1096 1.403 . S
C1099 C1100 1.524 . S
C1099 C1103 1.400 . S
C1100 H1085 0.960 . S
C1100 H1086 0.960 . S
C1100 H1087 0.960 . S
C1100 C1099 1.524 . S
C1101 C1098 1.403 . S
C1101 C1102 1.392 . S
C1101 C1105 1.495 . S
C1102 C1101 1.392 . S
C1102 C1103 1.385 . S
C1102 C1104 1.478 . S
C1103 H1097 0.930 . S
C1103 C1099 1.400 . S
C1103 C1102 1.385 . S
C1104 C1102 1.478 . S
C1104 C1106 1.381 . S
C1104 C1110 1.383 . S
C1105 C1101 1.495 . S
C1105 H1111 0.959 . S
C1105 H1112 0.961 . S
C1105 H1113 0.960 . S
C1106 C1104 1.381 . S
C1106 C1107 1.394 . S
C1106 H1114 0.930 . S
C1107 C1106 1.394 . S
C1107 C1108 1.383 1_556 S
C1107 H1115 0.930 . S
C1108 C1107 1.383 1_554 S
C1108 C1109 1.377 1_554 S
C1109 H1093 0.930 . S
C1109 C1108 1.377 1_556 S
C1109 C1110 1.379 . S
C1110 H1094 0.931 . S
C1110 C1104 1.383 . S
C1110 C1109 1.379 . S
H1111 C1105 0.959 . S
H1112 C1105 0.961 . S
H1113 C1105 0.960 . S
H1114 C1106 0.930 . S
H1115 C1107 0.930 . S
H1116 C1124 0.929 . S
H1117 C1126 0.930 . S
H1118 C1128 0.930 . S
H1119 C1131 0.929 . S
H1120 C1134 0.930 . S
H1121 C1136 0.960 . S
H1122 C1136 0.960 . S
H1123 C1136 0.960 . S
C1124 H1116 0.929 . S
C1124 C1125 1.377 . S
C1124 C1126 1.384 . S
C1125 C1124 1.377 . S
C1125 C1131 1.390 . S
C1126 H1117 0.930 . S
C1126 C1124 1.384 . S
C1126 C1127 1.372 . S
C1127 C1126 1.372 . S
C1127 C1128 1.400 . S
C1127 C1132 1.490 . S
C1128 H1118 0.930 . S
C1128 C1127 1.400 . S
C1128 C1131 1.386 . S
H1129 C1145 0.930 . S
H1130 C1146 0.931 . S
C1131 H1119 0.929 . S
C1131 C1125 1.390 . S
C1131 C1128 1.386 . S
C1132 C1127 1.490 . S
C1132 C1134 1.395 . S
C1132 C1135 1.403 . S
H1133 C1139 0.930 . S
C1134 H1120 0.930 . S
C1134 C1132 1.395 . S
C1134 C1137 1.403 . S
C1135 C1132 1.403 . S
C1135 C1136 1.524 . S
C1135 C1139 1.400 . S
C1136 H1121 0.960 . S
C1136 H1122 0.960 . S
C1136 H1123 0.960 . S
C1136 C1135 1.524 . S
C1137 C1134 1.403 . S
C1137 C1138 1.392 . S
C1137 C1141 1.495 . S
C1138 C1137 1.392 . S
C1138 C1139 1.385 . S
C1138 C1140 1.478 . S
C1139 H1133 0.930 . S
C1139 C1135 1.400 . S
C1139 C1138 1.385 . S
C1140 C1138 1.478 . S
C1140 C1142 1.381 . S
C1140 C1146 1.383 . S
C1141 C1137 1.495 . S
C1141 H1147 0.959 . S
C1141 H1148 0.961 . S
C1141 H1149 0.960 . S
C1142 C1140 1.381 . S
C1142 C1143 1.394 . S
C1142 H1150 0.930 . S
C1143 C1142 1.394 . S
C1143 C1144 1.383 . S
C1143 H1151 0.929 . S
C1144 C1143 1.383 . S
C1144 C1145 1.377 . S
C1145 H1129 0.930 . S
C1145 C1144 1.377 . S
C1145 C1146 1.379 . S
C1146 H1130 0.931 . S
C1146 C1140 1.383 . S
C1146 C1145 1.379 . S
H1147 C1141 0.959 . S
H1148 C1141 0.961 . S
H1149 C1141 0.960 . S
H1150 C1142 0.930 . S
H1151 C1143 0.929 . S
H1152 C1160 0.929 . S
H1153 C1162 0.930 . S
H1154 C1164 0.930 . S
H1155 C1167 0.929 . S
H1156 C1170 0.930 . S
H1157 C1172 0.960 . S
H1158 C1172 0.960 . S
H1159 C1172 0.960 . S
C1160 H1152 0.929 . S
C1160 C1161 1.377 . S
C1160 C1162 1.384 . S
C1161 C1160 1.377 . S
C1161 C1167 1.390 . S
C1162 H1153 0.930 . S
C1162 C1160 1.384 . S
C1162 C1163 1.372 . S
C1163 C1162 1.372 . S
C1163 C1164 1.400 . S
C1163 C1168 1.490 . S
C1164 H1154 0.930 . S
C1164 C1163 1.400 . S
C1164 C1167 1.386 . S
H1165 C1181 0.930 . S
H1166 C1182 0.931 . S
C1167 H1155 0.929 . S
C1167 C1161 1.390 . S
C1167 C1164 1.386 . S
C1168 C1163 1.490 . S
C1168 C1170 1.395 . S
C1168 C1171 1.403 . S
H1169 C1175 0.930 . S
C1170 H1156 0.930 . S
C1170 C1168 1.395 . S
C1170 C1173 1.403 . S
C1171 C1168 1.403 . S
C1171 C1172 1.524 . S
C1171 C1175 1.400 . S
C1172 H1157 0.960 . S
C1172 H1158 0.960 . S
C1172 H1159 0.960 . S
C1172 C1171 1.524 . S
C1173 C1170 1.403 . S
C1173 C1174 1.392 . S
C1173 C1177 1.495 . S
C1174 C1173 1.392 . S
C1174 C1175 1.385 . S
C1174 C1176 1.478 . S
C1175 H1169 0.930 . S
C1175 C1171 1.400 . S
C1175 C1174 1.385 . S
C1176 C1174 1.478 . S
C1176 C1178 1.381 . S
C1176 C1182 1.383 . S
C1177 C1173 1.495 . S
C1177 H1183 0.959 . S
C1177 H1184 0.961 . S
C1177 H1185 0.960 . S
C1178 C1176 1.381 . S
C1178 C1179 1.394 . S
C1178 H1186 0.930 . S
C1179 C1178 1.394 . S
C1179 C1180 1.383 . S
C1179 H1187 0.929 . S
C1180 C1179 1.383 . S
C1180 C1181 1.377 . S
C1181 H1165 0.930 . S
C1181 C1180 1.377 . S
C1181 C1182 1.379 . S
C1182 H1166 0.931 . S
C1182 C1176 1.383 . S
C1182 C1181 1.379 . S
H1183 C1177 0.959 . S
H1184 C1177 0.961 . S
H1185 C1177 0.960 . S
H1186 C1178 0.930 . S
H1187 C1179 0.929 . S
H1188 C1196 0.929 . S
H1189 C1198 0.930 . S
H1190 C1200 0.930 . S
H1191 C1203 0.929 . S
H1192 C1206 0.930 . S
H1193 C1208 0.960 . S
H1194 C1208 0.960 . S
H1195 C1208 0.960 . S
C1196 H1188 0.929 . S
C1196 C1197 1.377 . S
C1196 C1198 1.384 . S
C1197 C1196 1.377 . S
C1197 C1203 1.390 . S
C1198 H1189 0.930 . S
C1198 C1196 1.384 . S
C1198 C1199 1.372 . S
C1199 C1198 1.372 . S
C1199 C1200 1.400 . S
C1199 C1204 1.490 . S
C1200 H1190 0.930 . S
C1200 C1199 1.400 . S
C1200 C1203 1.386 . S
H1201 C1217 0.930 . S
H1202 C1218 0.931 . S
C1203 H1191 0.929 . S
C1203 C1197 1.390 . S
C1203 C1200 1.386 . S
C1204 C1199 1.490 . S
C1204 C1206 1.395 . S
C1204 C1207 1.403 . S
H1205 C1211 0.930 . S
C1206 H1192 0.930 . S
C1206 C1204 1.395 . S
C1206 C1209 1.403 . S
C1207 C1204 1.403 . S
C1207 C1208 1.524 . S
C1207 C1211 1.400 . S
C1208 H1193 0.960 . S
C1208 H1194 0.960 . S
C1208 H1195 0.960 . S
C1208 C1207 1.524 . S
C1209 C1206 1.403 . S
C1209 C1210 1.392 . S
C1209 C1213 1.495 . S
C1210 C1209 1.392 . S
C1210 C1211 1.385 . S
C1210 C1212 1.478 . S
C1211 H1205 0.930 . S
C1211 C1207 1.400 . S
C1211 C1210 1.385 . S
C1212 C1210 1.478 . S
C1212 C1214 1.381 . S
C1212 C1218 1.383 . S
C1213 C1209 1.495 . S
C1213 H1219 0.959 . S
C1213 H1220 0.961 . S
C1213 H1221 0.960 . S
C1214 C1212 1.381 . S
C1214 C1215 1.394 . S
C1214 H1222 0.930 . S
C1215 C1214 1.394 . S
C1215 C1216 1.383 1_556 S
C1215 H1223 0.933 . S
C1216 C1215 1.383 1_554 S
C1216 C1217 1.377 1_554 S
C1217 H1201 0.930 . S
C1217 C1216 1.377 1_556 S
C1217 C1218 1.379 . S
C1218 H1202 0.931 . S
C1218 C1212 1.383 . S
C1218 C1217 1.379 . S
H1219 C1213 0.959 . S
H1220 C1213 0.961 . S
H1221 C1213 0.960 . S
H1222 C1214 0.930 . S
H1223 C1215 0.933 . S
H1224 C1232 0.929 . S
H1225 C1234 0.930 . S
H1226 C1236 0.930 . S
H1227 C1239 0.929 . S
H1228 C1242 0.930 . S
H1229 C1244 0.960 . S
H1230 C1244 0.960 . S
H1231 C1244 0.960 . S
C1232 H1224 0.929 . S
C1232 C1233 1.377 . S
C1232 C1234 1.384 . S
C1233 C1232 1.377 . S
C1233 C1239 1.390 . S
C1234 H1225 0.930 . S
C1234 C1232 1.384 . S
C1234 C1235 1.372 . S
C1235 C1234 1.372 . S
C1235 C1236 1.400 . S
C1235 C1240 1.490 . S
C1236 H1226 0.930 . S
C1236 C1235 1.400 . S
C1236 C1239 1.386 . S
H1237 C1253 0.930 . S
H1238 C1254 0.931 . S
C1239 H1227 0.929 . S
C1239 C1233 1.390 . S
C1239 C1236 1.386 . S
C1240 C1235 1.490 . S
C1240 C1242 1.395 . S
C1240 C1243 1.403 . S
H1241 C1247 0.930 . S
C1242 H1228 0.930 . S
C1242 C1240 1.395 . S
C1242 C1245 1.403 . S
C1243 C1240 1.403 . S
C1243 C1244 1.524 . S
C1243 C1247 1.400 . S
C1244 H1229 0.960 . S
C1244 H1230 0.960 . S
C1244 H1231 0.960 . S
C1244 C1243 1.524 . S
C1245 C1242 1.403 . S
C1245 C1246 1.392 . S
C1245 C1249 1.495 . S
C1246 C1245 1.392 . S
C1246 C1247 1.385 . S
C1246 C1248 1.478 . S
C1247 H1241 0.930 . S
C1247 C1243 1.400 . S
C1247 C1246 1.385 . S
C1248 C1246 1.478 . S
C1248 C1250 1.381 . S
C1248 C1254 1.383 . S
C1249 C1245 1.495 . S
C1249 H1255 0.959 . S
C1249 H1256 0.961 . S
C1249 H1257 0.960 . S
C1250 C1248 1.381 . S
C1250 C1251 1.394 . S
C1250 H1258 0.930 . S
C1251 C1250 1.394 . S
C1251 C1252 1.383 . S
C1251 H1259 0.929 . S
C1252 C1251 1.383 . S
C1252 C1253 1.377 . S
C1253 H1237 0.930 . S
C1253 C1252 1.377 . S
C1253 C1254 1.379 . S
C1254 H1238 0.931 . S
C1254 C1248 1.383 . S
C1254 C1253 1.379 . S
H1255 C1249 0.959 . S
H1256 C1249 0.961 . S
H1257 C1249 0.960 . S
H1258 C1250 0.930 . S
H1259 C1251 0.929 . S
H1260 C1268 0.929 . S
H1261 C1270 0.930 . S
H1262 C1272 0.930 . S
H1263 C1275 0.929 . S
H1264 C1278 0.930 . S
H1265 C1280 0.960 . S
H1266 C1280 0.960 . S
H1267 C1280 0.960 . S
C1268 H1260 0.929 . S
C1268 C1269 1.377 . S
C1268 C1270 1.384 . S
C1269 C1268 1.377 . S
C1269 C1275 1.390 . S
C1270 H1261 0.930 . S
C1270 C1268 1.384 . S
C1270 C1271 1.372 . S
C1271 C1270 1.372 . S
C1271 C1272 1.400 . S
C1271 C1276 1.490 . S
C1272 H1262 0.930 . S
C1272 C1271 1.400 . S
C1272 C1275 1.386 . S
H1273 C1289 0.930 . S
H1274 C1290 0.931 . S
C1275 H1263 0.929 . S
C1275 C1269 1.390 . S
C1275 C1272 1.386 . S
C1276 C1271 1.490 . S
C1276 C1278 1.395 . S
C1276 C1279 1.403 . S
H1277 C1283 0.930 . S
C1278 H1264 0.930 . S
C1278 C1276 1.395 . S
C1278 C1281 1.403 . S
C1279 C1276 1.403 . S
C1279 C1280 1.524 . S
C1279 C1283 1.400 . S
C1280 H1265 0.960 . S
C1280 H1266 0.960 . S
C1280 H1267 0.960 . S
C1280 C1279 1.524 . S
C1281 C1278 1.403 . S
C1281 C1282 1.392 . S
C1281 C1285 1.495 . S
C1282 C1281 1.392 . S
C1282 C1283 1.385 . S
C1282 C1284 1.478 . S
C1283 H1277 0.930 . S
C1283 C1279 1.400 . S
C1283 C1282 1.385 . S
C1284 C1282 1.478 . S
C1284 C1286 1.381 . S
C1284 C1290 1.383 . S
C1285 C1281 1.495 . S
C1285 H1291 0.959 . S
C1285 H1292 0.961 . S
C1285 H1293 0.960 . S
C1286 C1284 1.381 . S
C1286 C1287 1.394 . S
C1286 H1294 0.930 . S
C1287 C1286 1.394 . S
C1287 C1288 1.383 . S
C1287 H1295 0.929 . S
C1288 C1287 1.383 . S
C1288 C1289 1.377 . S
C1289 H1273 0.930 . S
C1289 C1288 1.377 . S
C1289 C1290 1.379 . S
C1290 H1274 0.931 . S
C1290 C1284 1.383 . S
C1290 C1289 1.379 . S
H1291 C1285 0.959 . S
H1292 C1285 0.961 . S
H1293 C1285 0.960 . S
H1294 C1286 0.930 . S
H1295 C1287 0.929 . S
C441 C14 1.409 . S
C460 C230 1.342 . S
C477 C50 1.306 . S
C496 C266 1.338 . S
C513 C86 1.371 . S
C532 C302 1.409 . S
C549 C122 1.401 . S
C568 C338 1.377 . S
C585 C158 1.304 . S
C604 C374 1.336 . S
C621 C410 1.401 . S
C640 C194 1.405 . S
C657 C3 1.432 . S
C676 C363 1.531 . S
C693 C39 1.541 . S
C712 C399 1.396 . S
C729 C75 1.618 . S
C748 C219 1.619 . S
C765 C111 1.434 . S
C784 C255 1.530 . S
C801 C147 1.541 . S
C820 C291 1.405 . S
C837 C183 1.617 . S
C856 C327 1.615 . S
C873 C4 2.147 . S
C892 C112 2.172 . S
C909 C40 1.321 . S
C928 C148 1.319 . S
C945 C184 1.110 . S
C964 C76 1.086 . S
C981 C220 1.111 . S
C1000 C328 1.128 . S
C1017 C364 1.310 . S
C1036 C256 1.299 . S
C1053 C292 2.143 . S
C1072 C400 2.109 . S
C1089 C218 0.533 . S
C1108 C2 0.603 . S
C1125 C38 0.534 . S
C1144 C254 0.634 1_554 S
C1161 C74 0.533 . S
C1180 C290 0.443 . S
C1197 C326 0.543 . S
C1216 C110 0.433 . S
C1233 C362 0.552 1_554 S
C1252 C146 0.450 . S
C1269 C182 0.545 . S
C1288 C398 0.592 . S
