# Generated by pormake.
# Topology qtz-e, (6)-cn, num edge types: 1
# Building blocks:
#     Node 0, Type 0, BuildingBlock: CUWYAW_clean_sbu_0, # of connection points: 6
#     Node 1, Type 0, BuildingBlock: CUWYAW_clean_sbu_0, # of connection points: 6
#     Node 2, Type 0, BuildingBlock: CUWYAW_clean_sbu_0, # of connection points: 6
#     Node 3, Type 0, BuildingBlock: CUWYAW_clean_sbu_0, # of connection points: 6
#     Node 4, Type 0, BuildingBlock: CUWYAW_clean_sbu_0, # of connection points: 6
#     Node 5, Type 0, BuildingBlock: CUWYAW_clean_sbu_0, # of connection points: 6
#     Edge 6, Type (0, 0), BuildingBlock: XUDNAN_clean_linker_2, # of connection points: 2
#     Edge 7, Type (0, 0), BuildingBlock: XUDNAN_clean_linker_2, # of connection points: 2
#     Edge 8, Type (0, 0), BuildingBlock: XUDNAN_clean_linker_2, # of connection points: 2
#     Edge 9, Type (0, 0), BuildingBlock: XUDNAN_clean_linker_2, # of connection points: 2
#     Edge 10, Type (0, 0), BuildingBlock: XUDNAN_clean_linker_2, # of connection points: 2
#     Edge 11, Type (0, 0), BuildingBlock: XUDNAN_clean_linker_2, # of connection points: 2
#     Edge 12, Type (0, 0), BuildingBlock: XUDNAN_clean_linker_2, # of connection points: 2
#     Edge 13, Type (0, 0), BuildingBlock: XUDNAN_clean_linker_2, # of connection points: 2
#     Edge 14, Type (0, 0), BuildingBlock: XUDNAN_clean_linker_2, # of connection points: 2
#     Edge 15, Type (0, 0), BuildingBlock: XUDNAN_clean_linker_2, # of connection points: 2
#     Edge 16, Type (0, 0), BuildingBlock: XUDNAN_clean_linker_2, # of connection points: 2
#     Edge 17, Type (0, 0), BuildingBlock: XUDNAN_clean_linker_2, # of connection points: 2
#     Edge 18, Type (0, 0), BuildingBlock: XUDNAN_clean_linker_2, # of connection points: 2
#     Edge 19, Type (0, 0), BuildingBlock: XUDNAN_clean_linker_2, # of connection points: 2
#     Edge 20, Type (0, 0), BuildingBlock: XUDNAN_clean_linker_2, # of connection points: 2
#     Edge 21, Type (0, 0), BuildingBlock: XUDNAN_clean_linker_2, # of connection points: 2
#     Edge 22, Type (0, 0), BuildingBlock: XUDNAN_clean_linker_2, # of connection points: 2
#     Edge 23, Type (0, 0), BuildingBlock: XUDNAN_clean_linker_2, # of connection points: 2
# Relax obj value: 0.135
# Max RMSD: 0.205
# Mean RMSD: 0.205
data_MOF--net-qtz-e--node1-CUWYAW_clean_sbu_0--edge1-XUDNAN_clean_linker_2
_symmetry_space_group_name_H-M    P1
_symmetry_Int_Tables_number       1
_symmetry_cell_setting            triclinic
loop_
_symmetry_equiv_pos_as_xyz
'x, y, z'
_cell_length_a     25.532397
_cell_length_b     25.517659
_cell_length_c     51.409464
_cell_angle_alpha  89.518208
_cell_angle_beta   90.442985
_cell_angle_gamma 120.20361
loop_
_atom_site_label
_atom_site_type_symbol
_atom_site_fract_x
_atom_site_fract_y
_atom_site_fract_z
_atom_type_partial_charge
C0 C 0.16632 0.24893 0.0318 0.0
Eu1 Eu 0.16217 0.34043 0.05152 0.0
C2 C 0.18132 0.23686 1.00533 0.0
C3 C 0.1346 0.19813 0.98832 0.0
C4 C 0.14755 0.18795 0.96307 0.0
C5 C 0.20765 0.21613 0.95406 0.0
C6 C 0.2545 0.25492 0.97103 0.0
C7 C 0.24155 0.26478 0.99641 0.0
C8 C 0.06264 0.35216 0.05337 0.0
C9 C 0.19184 0.4333 1.00251 0.0
C10 C 0.17178 0.56051 0.07576 0.0
Eu11 Eu 0.18227 0.46918 0.06033 0.0
C12 C 0.18169 0.59232 0.10088 0.0
C13 C 0.23715 0.64532 0.10583 0.0
C14 C 0.25007 0.67149 0.13048 0.0
C15 C 0.20758 0.64563 0.15066 0.0
C16 C 0.15056 0.595 0.14533 0.0
C17 C 0.13773 0.56854 0.12065 0.0
C18 C 0.28485 0.46499 0.05822 0.0
C19 C 0.15576 0.37379 0.11 0.0
O20 O 0.21052 0.29101 0.0457 0.0
O21 O 0.11619 0.25082 0.03375 0.0
O22 O 0.06526 0.30798 0.0649 0.0
O23 O 0.11153 0.38631 0.04196 0.0
O24 O 0.19814 0.3898 1.01339 0.0
O25 O 0.17658 0.46717 1.01629 0.0
O26 O 0.12642 0.50484 0.0746 0.0
O27 O 0.22014 0.56673 0.06424 0.0
O28 O 0.28177 0.51232 0.05142 0.0
O29 O 0.23621 0.42501 0.06855 0.0
O30 O 0.15592 0.42281 0.10073 0.0
O31 O 0.16528 0.33764 0.09491 0.0
H32 H 0.08775 0.17581 0.99451 0.0
H33 H 0.11023 0.15823 0.95049 0.0
H34 H 0.30134 0.27667 0.96489 0.0
H35 H 0.27887 0.29413 1.009 0.0
H36 H 0.27153 0.66545 0.09089 0.0
H37 H 0.29402 0.71119 0.13396 0.0
H38 H 0.117 0.57413 0.16054 0.0
H39 H 0.09421 0.52828 0.11742 0.0
C40 C 0.92865 0.20969 0.36777 0.0
Eu41 Eu 0.8281 0.18374 0.39108 0.0
C42 C 0.9514 0.22541 0.34051 0.0
C43 C 0.95174 0.18121 0.32453 0.0
C44 C 0.97499 0.19558 0.29927 0.0
C45 C -0.00071 0.25483 0.28921 0.0
C46 C -0.00278 0.29874 0.30485 0.0
C47 C 0.97385 0.28429 0.33023 0.0
C48 C 0.72424 0.07584 0.39322 0.0
C49 C 0.74402 0.19948 0.34613 0.0
C50 C 0.61052 0.16614 0.4257 0.0
Eu51 Eu 0.71254 0.18632 0.40586 0.0
C52 C 0.5961 0.18145 0.45104 0.0
C53 C 0.64323 0.22077 0.46762 0.0
C54 C 0.63028 0.23691 0.49154 0.0
C55 C 0.56992 0.21378 0.49935 0.0
C56 C 0.52273 0.17318 0.48291 0.0
C57 C 0.5358 0.1572 0.45885 0.0
C58 C 0.81341 0.29613 0.40324 0.0
C59 C 0.79232 0.1621 0.45093 0.0
O60 O 0.92149 0.24968 0.3807 0.0
O61 O 0.88489 0.15402 0.37213 0.0
O62 O 0.77528 0.08273 0.40196 0.0
O63 O 0.73129 0.12445 0.38394 0.0
O64 O 0.79837 0.21093 0.35378 0.0
O65 O 0.69809 0.17763 0.36253 0.0
O66 O 0.62876 0.12665 0.42636 0.0
O67 O 0.64411 0.21248 0.4106 0.0
O68 O 0.76007 0.28676 0.39739 0.0
O69 O 0.81068 0.24863 0.41205 0.0
O70 O 0.74038 0.15805 0.44361 0.0
O71 O 0.83815 0.17935 0.43457 0.0
H72 H 0.93468 0.13541 0.33168 0.0
H73 H 0.97462 0.16016 0.28767 0.0
H74 H 0.01571 0.34484 0.29786 0.0
H75 H 0.97451 0.31964 0.34194 0.0
H76 H 0.69012 0.23927 0.46197 0.0
H77 H 0.66756 0.26728 0.50399 0.0
H78 H 0.47581 0.15477 0.48843 0.0
H79 H 0.49898 0.12638 0.44629 0.0
C80 C 0.70863 0.9087 0.70551 0.0
Eu81 Eu 0.61095 0.81623 0.72466 0.0
C82 C 0.72214 0.94001 0.67978 0.0
C83 C 0.69001 0.90932 0.65724 0.0
C84 C 0.70367 0.93881 0.63295 0.0
C85 C 0.75039 -0.00038 0.63048 0.0
C86 C 0.78188 0.03036 0.6532 0.0
C87 C 0.76781 0.00097 0.67751 0.0
C88 C 0.58161 0.69948 0.7169 0.0
C89 C 0.51303 0.78401 0.67731 0.0
C90 C 0.37822 0.62187 0.74451 0.0
Eu91 Eu 0.47815 0.71944 0.73127 0.0
C92 C 0.35076 0.5933 0.76981 0.0
C93 C 0.32285 0.61687 0.78563 0.0
C94 C 0.2996 0.59105 0.80998 0.0
C95 C 0.30387 0.54121 0.81912 0.0
C96 C 0.33137 0.51745 0.80313 0.0
C97 C 0.35397 0.54285 0.77872 0.0
C98 C 0.50018 0.83242 0.73916 0.0
C99 C 0.57668 0.75637 0.78057 0.0
O100 O 0.67071 0.91457 0.72051 0.0
O101 O 0.69854 0.85313 0.70551 0.0
O102 O 0.62947 0.73818 0.7297 0.0
O103 O 0.55308 0.72468 0.70895 0.0
O104 O 0.56002 0.82605 0.69029 0.0
O105 O 0.47698 0.73037 0.68782 0.0
O106 O 0.42773 0.6219 0.73818 0.0
O107 O 0.38107 0.67331 0.73885 0.0
O108 O 0.45096 0.78975 0.72867 0.0
O109 O 0.53481 0.81319 0.74666 0.0
O110 O 0.524 0.71814 0.76941 0.0
O111 O 0.61874 0.80502 0.76805 0.0
H112 H 0.65473 0.86215 0.65832 0.0
H113 H 0.67871 0.91337 0.61598 0.0
H114 H 0.81753 0.07741 0.65222 0.0
H115 H 0.79306 0.02581 0.69455 0.0
H116 H 0.31913 0.65547 0.77932 0.0
H117 H 0.27777 0.60988 0.82151 0.0
H118 H 0.33632 0.47965 0.80958 0.0
H119 H 0.37462 0.52338 0.76691 0.0
C120 C 0.77468 0.69529 0.03362 0.0
Eu121 Eu 0.79147 0.61246 0.05578 0.0
C122 C 0.74935 0.7004 1.008 0.0
C123 C 0.78672 0.7244 0.98595 0.0
C124 C 0.76246 0.72704 0.96168 0.0
C125 C 0.70008 0.70574 0.9587 0.0
C126 C 0.66312 0.68338 0.98097 0.0
C127 C 0.68733 0.68077 1.00521 0.0
C128 C 0.89656 0.61117 0.05886 0.0
C129 C 0.76936 0.51634 1.00884 0.0
C130 C 0.7979 0.40377 0.08659 0.0
Eu131 Eu 0.78185 0.4894 0.06726 0.0
C132 C 0.78829 0.37868 0.11314 0.0
C133 C 0.81603 0.34612 0.12173 0.0
C134 C 0.80553 0.32185 0.14703 0.0
C135 C 0.76701 0.32981 0.16397 0.0
C136 C 0.74112 0.36427 0.15542 0.0
C137 C 0.75162 0.38838 0.1303 0.0
C138 C 0.67494 0.48344 0.06092 0.0
C139 C 0.80461 0.58605 0.11521 0.0
O140 O 0.7367 0.65565 0.05045 0.0
O141 O 0.82638 0.69613 0.03317 0.0
O142 O 0.89046 0.65421 0.06908 0.0
O143 O 0.84845 0.57314 0.04794 0.0
O144 O 0.75792 0.55768 1.01828 0.0
O145 O 0.79149 0.48971 0.02386 0.0
O146 O 0.84137 0.46002 0.08418 0.0
O147 O 0.74883 0.39328 0.074 0.0
O148 O 0.6853 0.44048 0.05453 0.0
O149 O 0.71966 0.52574 0.07284 0.0
O150 O 0.8008 0.53523 0.10685 0.0
O151 O 0.79835 0.62392 0.09945 0.0
H152 H 0.83479 0.74043 0.98732 0.0
H153 H 0.79241 0.74403 0.94507 0.0
H154 H 0.61512 0.66775 0.97974 0.0
H155 H 0.65718 0.66279 1.02174 0.0
H156 H 0.8452 0.33896 0.10884 0.0
H157 H 0.82621 0.29562 0.15309 0.0
H158 H 0.71246 0.37253 0.16816 0.0
H159 H 0.73058 0.41425 0.12419 0.0
C160 C 0.08781 0.79843 0.36107 0.0
Eu161 Eu 0.18698 0.80816 0.38064 0.0
C162 C 0.05248 0.774 0.33657 0.0
C163 C 0.08063 0.78824 0.31204 0.0
C164 C 0.04652 0.7634 0.28925 0.0
C165 C 0.98353 0.72324 0.29034 0.0
C166 C 0.9555 0.70989 0.31495 0.0
C167 C -0.01048 0.73491 0.3377 0.0
C168 C 0.2997 0.90624 0.38276 0.0
C169 C 0.25477 0.77791 0.33283 0.0
C170 C 0.3876 0.78705 0.41022 0.0
Eu171 Eu 0.29178 0.78394 0.39104 0.0
C172 C 0.40673 0.79004 0.43755 0.0
C173 C 0.3639 0.75607 0.4568 0.0
C174 C 0.3805 0.76343 0.483 0.0
C175 C 0.44015 0.80526 0.49058 0.0
C176 C 0.48318 0.83887 0.47127 0.0
C177 C 0.46657 0.83116 0.44495 0.0
C178 C 0.18259 0.68486 0.386 0.0
C179 C 0.23379 0.82497 0.43924 0.0
O180 O 0.08805 0.75866 0.37732 0.0
O181 O 0.14103 0.84773 0.35925 0.0
O182 O 0.25303 0.90613 0.39284 0.0
O183 O 0.28362 0.85651 0.37204 0.0
O184 O 0.20423 0.774 0.3419 0.0
O185 O 0.30181 0.79266 0.34813 0.0
O186 O 0.38746 0.8353 0.40158 0.0
O187 O 0.3392 0.73672 0.40309 0.0
O188 O 0.23206 0.68876 0.37741 0.0
O189 O 0.19279 0.73178 0.39826 0.0
O190 O 0.27631 0.81553 0.4297 0.0
O191 O 0.18819 0.81941 0.4246 0.0
H192 H 0.12915 0.81811 0.31043 0.0
H193 H 0.06971 0.77464 0.2708 0.0
H194 H 0.90701 0.68014 0.31669 0.0
H195 H 0.96654 0.72337 0.35629 0.0
H196 H 0.31703 0.72501 0.4517 0.0
H197 H 0.34602 0.73774 0.49739 0.0
H198 H 0.52964 0.87115 0.47649 0.0
H199 H 0.50009 0.85809 0.43041 0.0
C200 C 0.26684 0.07188 0.69102 0.0
Eu201 Eu 0.34048 0.17158 0.71594 0.0
C202 C 0.26555 0.04519 0.66509 0.0
C203 C 0.24723 0.0631 0.64236 0.0
C204 C 0.24684 0.03797 0.61807 0.0
C205 C 0.26517 -0.00538 0.61583 0.0
C206 C 0.28203 0.9758 0.63868 0.0
C207 C 0.282 0.00052 0.6629 0.0
C208 C 0.32892 0.27165 0.71492 0.0
C209 C 0.44671 0.25363 0.67494 0.0
C210 C 0.52607 0.3924 0.75444 0.0
Eu211 Eu 0.44996 0.28873 0.73324 0.0
C212 C 0.55854 0.41003 0.77976 0.0
C213 C 0.61752 0.41927 0.7819 0.0
C214 C 0.64634 0.43013 0.80609 0.0
C215 C 0.61717 0.43265 0.82872 0.0
C216 C 0.55932 0.42629 0.82648 0.0
C217 C 0.53027 0.41507 0.80225 0.0
C218 C 0.46862 0.19392 0.73502 0.0
C219 C 0.34213 0.20309 0.77539 0.0
O220 O 0.30728 0.07576 0.70794 0.0
O221 O 0.26075 0.11978 0.69135 0.0
O222 O 0.28759 0.2201 0.72446 0.0
O223 O 0.37333 0.26772 0.70741 0.0
O224 O 0.40884 0.19828 0.68339 0.0
O225 O 0.4616 0.30101 0.68985 0.0
O226 O 0.46729 0.36873 0.75502 0.0
O227 O 0.54236 0.36392 0.73829 0.0
O228 O 0.50995 0.24887 0.72957 0.0
O229 O 0.41971 0.1915 0.74128 0.0
O230 O 0.38877 0.25701 0.76918 0.0
O231 O 0.3183 0.15797 0.75851 0.0
H232 H 0.23362 0.09696 0.64324 0.0
H233 H 0.23392 0.05387 0.60095 0.0
H234 H 0.29519 0.94158 0.63791 0.0
H235 H 0.29516 0.98471 0.67996 0.0
H236 H 0.64099 0.41668 0.76493 0.0
H237 H 0.69138 0.43602 0.80712 0.0
H238 H 0.53562 0.42787 0.84357 0.0
H239 H 0.48507 0.40883 0.80129 0.0
H240 H 0.17122 0.75036 0.29295 0.0
H241 H 0.34748 0.77106 0.31057 0.0
H242 H 0.35401 0.74126 0.26605 0.0
H243 H 0.11518 0.62178 0.25305 0.0
H244 H 0.07949 0.64607 0.22925 0.0
H245 H 0.08879 0.67263 0.26222 0.0
H246 H 0.14971 0.78607 0.2464 0.0
H247 H 0.1346 0.75714 0.21367 0.0
H248 H 0.2113 0.8081 0.22418 0.0
H249 H 0.34181 0.70694 0.22069 0.0
H250 H 0.31121 0.67035 0.17587 0.0
H251 H 0.14305 0.6712 0.18626 0.0
C252 C 0.21137 0.74914 0.28736 0.0
C253 C 0.25876 0.76308 0.30539 0.0
C254 C 0.31051 0.76078 0.29725 0.0
C255 C 0.31478 0.74386 0.27193 0.0
C256 C 0.26726 0.72987 0.25478 0.0
C257 C 0.21677 0.73285 0.26192 0.0
C258 C 0.17239 0.71534 0.23935 0.0
C259 C 0.1103 0.66068 0.2464 0.0
C260 C 0.16658 0.76983 0.23036 0.0
C261 C 0.20471 0.69934 0.21898 0.0
C262 C 0.25989 0.70929 0.22825 0.0
C263 C 0.2989 0.69931 0.21309 0.0
C264 C 0.28128 0.67887 0.18763 0.0
C265 C 0.22504 0.66837 0.17758 0.0
C266 C 0.18615 0.67854 0.19354 0.0
H267 H 0.41576 0.16562 0.63833 0.0
H268 H 0.53221 0.35889 0.6513 0.0
H269 H 0.5739 0.37017 0.60701 0.0
H270 H 0.52091 0.14229 0.60333 0.0
H271 H 0.46546 0.08827 0.58108 0.0
H272 H 0.44303 0.09592 0.61327 0.0
H273 H 0.36171 0.11739 0.59389 0.0
H274 H 0.3832 0.10824 0.56171 0.0
H275 H 0.3833 0.17682 0.57005 0.0
H276 H 0.60532 0.35952 0.56208 0.0
H277 H 0.62381 0.32821 0.51942 0.0
H278 H 0.48661 0.14184 0.53611 0.0
C279 C 0.44993 0.21047 0.63191 0.0
C280 C 0.471 0.26146 0.64832 0.0
C281 C 0.5155 0.31925 0.63906 0.0
C282 C 0.53936 0.32608 0.61395 0.0
C283 C 0.51787 0.27474 0.59838 0.0
C284 C 0.47395 0.2181 0.60696 0.0
C285 C 0.45918 0.17001 0.58658 0.0
C286 C 0.47303 0.12129 0.59668 0.0
C287 C 0.39292 0.14146 0.5775 0.0
C288 C 0.50257 0.20833 0.56533 0.0
C289 C 0.53575 0.26863 0.57247 0.0
C290 C 0.57953 0.3125 0.55625 0.0
C291 C 0.58992 0.29423 0.53215 0.0
C292 C 0.55673 0.23262 0.5245 0.0
C293 C 0.51217 0.18934 0.5413 0.0
H294 H 0.23566 0.53666 0.97178 0.0
H295 H 0.16389 0.34222 0.96892 0.0
H296 H 0.18105 0.3486 0.92178 0.0
H297 H 0.17732 0.55181 0.9082 0.0
H298 H 0.24475 0.62243 0.90041 0.0
H299 H 0.22245 0.60261 0.93386 0.0
H300 H 0.32779 0.61593 0.94463 0.0
H301 H 0.35028 0.63555 0.91122 0.0
H302 H 0.35445 0.57386 0.92645 0.0
H303 H 0.20807 0.3749 0.87558 0.0
H304 H 0.2459 0.42063 0.83253 0.0
H305 H 0.3062 0.59925 0.86466 0.0
C306 C 0.22251 0.49549 0.96105 0.0
C307 C 0.19804 0.43895 0.97395 0.0
C308 C 0.18268 0.38607 0.95943 0.0
C309 C 0.19206 0.3891 0.9326 0.0
C310 C 0.21718 0.44543 0.92047 0.0
C311 C 0.23242 0.49778 0.9341 0.0
C312 C 0.26228 0.55283 0.91629 0.0
C313 C 0.22443 0.58426 0.91459 0.0
C314 C 0.32757 0.59714 0.92518 0.0
C315 C 0.26129 0.523 0.89071 0.0
C316 C 0.23471 0.46099 0.89363 0.0
C317 C 0.22906 0.42348 0.87299 0.0
C318 C 0.25124 0.45003 0.84863 0.0
C319 C 0.27939 0.51369 0.84507 0.0
C320 C 0.28421 0.55043 0.86653 0.0
H321 H 0.82956 0.24834 0.30743 0.0
H322 H 0.63774 0.17493 0.32238 0.0
H323 H 0.62284 0.19556 0.2768 0.0
H324 H 0.85041 0.36914 0.26632 0.0
H325 H 0.90196 0.36299 0.24447 0.0
H326 H 0.89723 0.33939 0.27787 0.0
H327 H 0.8744 0.23364 0.26292 0.0
H328 H 0.87833 0.25622 0.22937 0.0
H329 H 0.81142 0.19004 0.24131 0.0
H330 H 0.62894 0.22776 0.23066 0.0
H331 H 0.6554 0.27035 0.18638 0.0
H332 H 0.84357 0.32386 0.20079 0.0
C333 C 0.78426 0.23609 0.30109 0.0
C334 C 0.73471 0.20992 0.31853 0.0
C335 C 0.67635 0.19496 0.30944 0.0
C336 C 0.66741 0.20639 0.28355 0.0
C337 C 0.7172 0.23258 0.26697 0.0
C338 C 0.77449 0.24714 0.27529 0.0
C339 C 0.82052 0.27639 0.25358 0.0
C340 C 0.87044 0.34081 0.26101 0.0
C341 C 0.84776 0.2367 0.24637 0.0
C342 C 0.78025 0.27742 0.23194 0.0
C343 C 0.72078 0.25136 0.24011 0.0
C344 C 0.67527 0.24818 0.224 0.0
C345 C 0.69087 0.27289 0.19894 0.0
C346 C 0.7516 0.30087 0.19016 0.0
C347 C 0.7967 0.30233 0.20684 0.0
H348 H 0.44427 0.70533 0.63823 0.0
H349 H 0.56106 0.8964 0.65557 0.0
H350 H 0.55335 0.92258 0.6101 0.0
H351 H 0.50569 0.71028 0.57614 0.0
H352 H 0.43447 0.65706 0.56124 0.0
H353 H 0.4454 0.65295 0.59567 0.0
H354 H 0.3505 0.66173 0.60499 0.0
H355 H 0.33903 0.66548 0.57055 0.0
H356 H 0.3456 0.72466 0.5916 0.0
H357 H 0.53574 0.92846 0.5626 0.0
H358 H 0.51013 0.91303 0.5158 0.0
H359 H 0.40669 0.71843 0.5288 0.0
C360 C 0.46726 0.75267 0.63254 0.0
C361 C 0.50311 0.79874 0.65049 0.0
C362 C 0.53337 0.8602 0.64218 0.0
C363 C 0.52919 0.87566 0.61638 0.0
C364 C 0.49436 0.82922 0.59907 0.0
C365 C 0.46376 0.769 0.60674 0.0
C366 C 0.43155 0.72788 0.58388 0.0
C367 C 0.45575 0.6845 0.57895 0.0
C368 C 0.36257 0.69288 0.58801 0.0
C369 C 0.44939 0.77439 0.56222 0.0
C370 C 0.4853 0.83258 0.57144 0.0
C371 C 0.5078 0.88309 0.55509 0.0
C372 C 0.49338 0.87385 0.52852 0.0
C373 C 0.45662 0.81455 0.51861 0.0
C374 C 0.43444 0.76435 0.5358 0.0
H375 H 0.71498 0.55567 0.97375 0.0
H376 H 0.7898 0.43645 0.98141 0.0
H377 H 0.76096 0.40395 0.93584 0.0
H378 H 0.58693 0.45745 0.93569 0.0
H379 H 0.58934 0.51704 0.91572 0.0
H380 H 0.61868 0.53308 0.94844 0.0
H381 H 0.72311 0.618 0.93133 0.0
H382 H 0.69243 0.60287 0.89881 0.0
H383 H 0.76057 0.60082 0.90613 0.0
H384 H 0.72192 0.38283 0.8898 0.0
H385 H 0.6747 0.37364 0.84673 0.0
H386 H 0.6244 0.5059 0.86932 0.0
C387 C 0.7258 0.52304 0.96585 0.0
C388 C 0.75474 0.49859 0.9812 0.0
C389 C 0.76769 0.45581 0.97007 0.0
C390 C 0.75152 0.43712 0.94419 0.0
C391 C 0.7225 0.46167 0.92972 0.0
C392 C 0.70989 0.50381 0.94013 0.0
C393 C 0.67715 0.52226 0.92064 0.0
C394 C 0.61429 0.50648 0.93073 0.0
C395 C 0.7156 0.59001 0.9138 0.0
C396 C 0.67232 0.48306 0.89776 0.0
C397 C 0.69933 0.44894 0.90332 0.0
C398 C 0.7009 0.40952 0.88519 0.0
C399 C 0.67423 0.40486 0.86074 0.0
C400 C 0.64607 0.4392 0.85462 0.0
C401 C 0.64516 0.47873 0.87348 0.0
H402 H 0.3946 0.53494 0.08121 0.0
H403 H 0.2976 0.3888 0.02652 0.0
H404 H 0.39044 0.38386 1.01887 0.0
H405 H 0.53897 0.60867 0.04619 0.0
H406 H 0.58432 0.62872 0.0754 0.0
H407 H 0.51098 0.62292 0.07583 0.0
H408 H 0.47753 0.54507 0.11373 0.0
H409 H 0.55089 0.55116 0.11359 0.0
H410 H 0.48342 0.47801 0.11007 0.0
H411 H 0.49052 0.3926 1.01809 0.0
H412 H 0.59251 0.40879 0.02618 0.0
H413 H 0.62762 0.55028 0.08167 0.0
C414 C 0.39332 0.50186 0.06776 0.0
C415 C 0.33914 0.46065 0.05496 0.0
C416 C 0.33838 0.41855 0.0372 0.0
C417 C 0.39103 0.41635 0.03243 0.0
C418 C 0.44383 0.4571 0.04553 0.0
C419 C 0.44558 0.49893 0.06292 0.0
C420 C 0.50786 0.53558 0.07519 0.0
C421 C 0.53725 0.60297 0.0677 0.0
C422 C 0.50471 0.5269 0.10491 0.0
C423 C 0.54024 0.50652 0.06248 0.0
C424 C 0.50247 0.46216 0.04511 0.0
C425 C 0.52066 0.42727 0.03155 0.0
C426 C 0.57856 0.43672 0.03637 0.0
C427 C 0.6174 0.48043 0.05469 0.0
C428 C 0.59869 0.51684 0.06749 0.0
H429 H 0.08832 0.63311 0.42024 0.0
H430 H 0.14593 0.61481 0.3434 0.0
H431 H 0.05315 0.5151 0.33849 0.0
H432 H 0.03706 0.48516 0.43945 0.0
H433 H 0.9726 0.47481 0.45779 0.0
H434 H 0.03742 0.54951 0.45387 0.0
H435 H 0.96943 0.58838 0.43415 0.0
H436 H 0.90404 0.514 0.43847 0.0
H437 H 0.92109 0.54947 0.4068 0.0
H438 H 0.96092 0.41539 0.3432 0.0
H439 H 0.87201 0.31971 0.35718 0.0
H440 H 0.87605 0.39801 0.43215 0.0
C441 C 0.08004 0.60873 0.40212 0.0
C442 C 0.12324 0.63114 0.38204 0.0
C443 C 0.11268 0.59786 0.35887 0.0
C444 C 0.06025 0.54148 0.3559 0.0
C445 C 0.01942 0.51918 0.37642 0.0
C446 C 0.02833 0.55164 0.39906 0.0
C447 C 0.98024 0.51441 0.41904 0.0
C448 C 0.00855 0.50545 0.444 0.0
C449 C 0.94139 0.54328 0.42496 0.0
C450 C 0.94427 0.45553 0.40435 0.0
C451 C 0.96724 0.4598 0.37968 0.0
C452 C 0.94247 0.41132 0.36248 0.0
C453 C 0.89246 0.35694 0.37068 0.0
C454 C 0.8688 0.35142 0.39592 0.0
C455 C 0.89456 0.40124 0.41293 0.0
H456 H 0.39143 0.07193 0.7385 0.0
H457 H 0.58074 0.21101 0.7449 0.0
H458 H 0.60841 0.13258 0.75291 0.0
H459 H 0.39405 0.96242 0.78596 0.0
H460 H 0.34416 0.89832 0.76613 0.0
H461 H 0.33803 0.96567 0.76554 0.0
H462 H 0.35146 0.97244 0.71563 0.0
H463 H 0.35804 0.90559 0.71584 0.0
H464 H 0.41724 0.97493 0.70166 0.0
H465 H 0.61648 0.03896 0.75708 0.0
H466 H 0.60466 0.93685 0.75252 0.0
H467 H 0.41179 0.86077 0.73972 0.0
C468 C 0.43842 0.08568 0.74212 0.0
C469 C 0.48386 0.14707 0.74129 0.0
C470 C 0.54521 0.16385 0.74554 0.0
C471 C 0.56136 0.11978 0.75031 0.0
C472 C 0.51561 0.0593 0.75055 0.0
C473 C 0.45543 0.04218 0.74638 0.0
C474 C 0.41609 0.97421 0.74438 0.0
C475 C 0.37039 0.94866 0.76685 0.0
C476 C 0.38388 0.95573 0.71778 0.0
C477 C 0.46382 0.95611 0.74714 0.0
C478 C 0.5207 0.00551 0.75145 0.0
C479 C 0.57211 -0.0002 0.75381 0.0
C480 C 0.56517 0.94196 0.75109 0.0
C481 C 0.50766 0.89168 0.74537 0.0
C482 C 0.45642 0.89876 0.74393 0.0
H483 H 0.5215 0.61258 0.6812 0.0
H484 H 0.56752 0.63969 0.76316 0.0
H485 H 0.48792 0.53341 0.77233 0.0
H486 H 0.36425 0.51535 0.68577 0.0
H487 H 0.35877 0.46568 0.65984 0.0
H488 H 0.41829 0.54398 0.65957 0.0
H489 H 0.50102 0.51318 0.65724 0.0
H490 H 0.44147 0.43526 0.65573 0.0
H491 H 0.49938 0.45896 0.68043 0.0
H492 H 0.39317 0.42726 0.77245 0.0
H493 H 0.32737 0.31823 0.76244 0.0
H494 H 0.35396 0.35945 0.68015 0.0
C495 C 0.51571 0.59554 0.70098 0.0
C496 C 0.54962 0.63392 0.72153 0.0
C497 C 0.54161 0.61058 0.74718 0.0
C498 C 0.49593 0.55072 0.75259 0.0
C499 C 0.4601 0.51509 0.73199 0.0
C500 C 0.47195 0.53572 0.70656 0.0
C501 C 0.43212 0.48674 0.68757 0.0
C502 C 0.39093 0.50401 0.67229 0.0
C503 C 0.47078 0.47267 0.66918 0.0
C504 C 0.39581 0.43508 0.70624 0.0
C505 C 0.4103 0.45299 0.73185 0.0
C506 C 0.38219 0.41258 0.75246 0.0
C507 C 0.3441 0.35087 0.74663 0.0
C508 C 0.33651 0.33112 0.72055 0.0
C509 C 0.35893 0.37398 0.70021 0.0
H510 H 0.01995 0.40246 1.02041 0.0
H511 H 0.02063 0.35848 0.10185 0.0
H512 H -0.01123 0.43272 0.11352 0.0
H513 H 0.0854 0.55483 0.02671 0.0
H514 H 0.04082 0.56573 1.00221 0.0
H515 H 0.05347 0.50261 0.99997 0.0
H516 H 0.93756 0.42538 0.99912 0.0
H517 H 0.92489 0.48863 0.99927 0.0
H518 H 0.88993 0.42998 1.02364 0.0
H519 H 0.97286 0.52581 0.11557 0.0
H520 H 0.93733 0.59896 0.107 0.0
H521 H 0.95277 0.58091 0.02426 0.0
C522 C 0.01085 0.40664 0.04062 0.0
C523 C 0.0223 0.37507 0.06024 0.0
C524 C 0.01096 0.38185 0.08655 0.0
C525 C -0.00592 0.42474 0.09332 0.0
C526 C -0.01092 0.45981 0.07346 0.0
C527 C -0.00543 0.449 0.04758 0.0
C528 C -0.01259 0.49195 0.02965 0.0
C529 C 0.04522 0.53106 1.01371 0.0
C530 C 0.93163 0.45692 1.01189 0.0
C531 C 0.97782 0.5296 0.04935 0.0
C532 C 0.9802 0.51175 0.07461 0.0
C533 C 0.97069 0.53982 0.09585 0.0
C534 C 0.95179 0.58227 0.09088 0.0
C535 C 0.94304 0.59549 0.06496 0.0
C536 C 0.96023 0.57208 0.04421 0.0
H537 H 0.39392 0.94909 0.35089 0.0
H538 H 0.34706 0.94401 0.43195 0.0
H539 H 0.45191 0.97148 0.44474 0.0
H540 H 0.48069 0.88182 0.35773 0.0
H541 H 0.53665 0.92792 0.33381 0.0
H542 H 0.46058 0.91462 0.33104 0.0
H543 H 0.49941 0.03056 0.3309 0.0
H544 H 0.57552 0.04377 0.33173 0.0
H545 H 0.55112 0.07724 0.35606 0.0
H546 H 0.56136 -0.01011 0.44778 0.0
H547 H 0.6709 0.02889 0.44042 0.0
H548 H 0.64024 0.01751 0.35732 0.0
C549 C 0.40657 0.95648 0.37128 0.0
C550 C 0.36313 0.94496 0.39045 0.0
C551 C 0.38036 0.95359 0.417 0.0
C552 C 0.43942 0.96815 0.4244 0.0
C553 C 0.48005 0.97438 0.40489 0.0
C554 C 0.46471 0.97104 0.37884 0.0
C555 C 0.51551 0.97955 0.36137 0.0
C556 C 0.49721 0.92258 0.34504 0.0
C557 C 0.53666 0.03614 0.34402 0.0
C558 C 0.5624 0.98848 0.38153 0.0
C559 C 0.54113 0.98406 0.40659 0.0
C560 C 0.57833 -0.00644 0.42822 0.0
C561 C 0.64022 0.01445 0.42393 0.0
C562 C 0.66322 0.02554 0.39829 0.0
C563 C 0.62313 0.00807 0.37706 0.0
H564 H 0.36787 0.28832 0.8137 0.0
H565 H 0.2561 0.09605 0.79727 0.0
H566 H 0.21082 0.07939 0.84089 0.0
H567 H 0.39684 0.27273 0.88128 0.0
H568 H 0.39242 0.33767 0.8917 0.0
H569 H 0.41652 0.33503 0.85913 0.0
H570 H 0.33192 0.35238 0.84041 0.0
H571 H 0.30778 0.35525 0.87293 0.0
H572 H 0.25438 0.30213 0.84985 0.0
H573 H 0.177 0.08284 0.88601 0.0
H574 H 0.15684 0.10607 0.92998 0.0
H575 H 0.28919 0.29629 0.91781 0.0
C576 C 0.33404 0.24263 0.81929 0.0
C577 C 0.31574 0.19341 0.80193 0.0
C578 C 0.27098 0.13452 0.81007 0.0
C579 C 0.24493 0.12455 0.83487 0.0
C580 C 0.26381 0.17391 0.85141 0.0
C581 C 0.30725 0.23186 0.84401 0.0
C582 C 0.31892 0.27696 0.86557 0.0
C583 C 0.38511 0.30737 0.87498 0.0
C584 C 0.30224 0.32446 0.85665 0.0
C585 C 0.27551 0.23511 0.88629 0.0
C586 C 0.24412 0.17594 0.8776 0.0
C587 C 0.20116 0.12902 0.89301 0.0
C588 C 0.18976 0.14277 0.91794 0.0
C589 C 0.22111 0.20301 0.92743 0.0
C590 C 0.2648 0.2497 0.91128 0.0
H591 H -0.00387 0.32932 0.24975 0.0
H592 H 0.07459 0.21777 0.27024 0.0
H593 H 0.12514 0.24018 0.22784 0.0
H594 H 0.96823 0.28786 0.18282 0.0
H595 H -0.0106 0.36219 0.17041 0.0
H596 H 0.96017 0.34095 0.20291 0.0
H597 H 0.05513 0.43335 0.22179 0.0
H598 H 0.08488 0.45634 0.18939 0.0
H599 H 0.1292 0.44551 0.21404 0.0
H600 H 0.1643 0.26993 0.18334 0.0
H601 H 0.19061 0.30614 0.13824 0.0
H602 H 0.09141 0.40243 0.14503 0.0
C603 C 0.02439 0.3101 0.24537 0.0
C604 C 0.03054 0.27094 0.26339 0.0
C605 C 0.06779 0.24661 0.25672 0.0
C606 C 0.09727 0.25954 0.2327 0.0
C607 C 0.0898 0.29744 0.21536 0.0
C608 C 0.05455 0.3227 0.22125 0.0
C609 C 0.05383 0.36118 0.19853 0.0
C610 C -0.01095 0.33653 0.18805 0.0
C611 C 0.08247 0.42807 0.20642 0.0
C612 C 0.09339 0.35254 0.17896 0.0
C613 C 0.11366 0.31574 0.18931 0.0
C614 C 0.14909 0.29913 0.17504 0.0
C615 C 0.16374 0.31991 0.14937 0.0
C616 C 0.14341 0.35733 0.13802 0.0
C617 C 0.10835 0.37454 0.15323 0.0
H618 H 0.67606 -0.0072 0.58917 0.0
H619 H 0.8651 0.07531 0.6121 0.0
H620 H 0.89582 0.12591 0.56934 0.0
H621 H 0.69866 0.96707 0.52105 0.0
H622 H 0.64092 0.98265 0.5096 0.0
H623 H 0.63631 0.95237 0.54184 0.0
H624 H 0.62916 0.04382 0.56 0.0
H625 H 0.63682 0.07453 0.52767 0.0
H626 H 0.68909 0.11991 0.5529 0.0
H627 H 0.90687 0.16556 0.52334 0.0
H628 H 0.89681 0.19468 0.47839 0.0
H629 H 0.70097 0.08992 0.48526 0.0
C630 C 0.72394 0.0213 0.58518 0.0
C631 C 0.76808 0.0302 0.60431 0.0
C632 C 0.83022 0.06837 0.59815 0.0
C633 C 0.84823 0.09708 0.57376 0.0
C634 C 0.80374 0.0876 0.55548 0.0
C635 C 0.74282 0.05077 0.56087 0.0
C636 C 0.70427 0.04861 0.53772 0.0
C637 C 0.66786 0.98385 0.5269 0.0
C638 C 0.66237 0.0732 0.54502 0.0
C639 C 0.75301 0.0906 0.51868 0.0
C640 C 0.8101 0.1119 0.5292 0.0
C641 C 0.86235 0.14948 0.51499 0.0
C642 C 0.85621 0.16574 0.48941 0.0
C643 C 0.79823 0.14523 0.47824 0.0
C644 C 0.74603 0.10722 0.49327 0.0
H645 H 0.67693 0.81976 0.81371 0.0
H646 H 0.49941 0.65695 0.80908 0.0
H647 H 0.51303 0.62739 0.85288 0.0
H648 H 0.75 0.75025 0.84971 0.0
H649 H 0.79514 0.81558 0.86977 0.0
H650 H 0.77274 0.82517 0.83757 0.0
H651 H 0.72388 0.88404 0.85667 0.0
H652 H 0.74625 0.87469 0.88891 0.0
H653 H 0.66782 0.84942 0.88191 0.0
H654 H 0.54415 0.61334 0.897 0.0
H655 H 0.59069 0.61749 0.9395 0.0
H656 H 0.74806 0.78938 0.91783 0.0
C657 C 0.64095 0.778 0.82193 0.0
C658 C 0.58697 0.74107 0.80763 0.0
C659 C 0.54119 0.6866 0.81931 0.0
C660 C 0.54844 0.66905 0.84434 0.0
C661 C 0.6018 0.70614 0.85783 0.0
C662 C 0.64736 0.75954 0.8472 0.0
C663 C 0.6999 0.79084 0.86636 0.0
C664 C 0.75788 0.79574 0.85518 0.0
C665 C 0.71004 0.85346 0.87391 0.0
C666 C 0.67631 0.74683 0.88931 0.0
C667 C 0.6197 0.69822 0.88378 0.0
C668 C 0.58832 0.65146 0.90165 0.0
C669 C 0.61509 0.65453 0.92593 0.0
C670 C 0.67293 0.70409 0.93246 0.0
C671 C 0.70397 0.75065 0.91362 0.0
H672 H -0.00398 0.7723 0.24056 0.0
H673 H 0.88969 0.60632 0.2849 0.0
H674 H 0.82947 0.55658 0.24575 0.0
H675 H 0.87441 0.76042 0.1999 0.0
H676 H 0.92015 0.78861 0.17102 0.0
H677 H 0.95478 0.81244 0.20264 0.0
H678 H 0.02985 0.77549 0.19196 0.0
H679 H -0.0042 0.75195 0.16023 0.0
H680 H 0.00085 0.69836 0.18165 0.0
H681 H 0.78328 0.52254 0.2016 0.0
H682 H 0.75415 0.50678 0.1552 0.0
H683 H 0.88753 0.69422 0.13856 0.0
C684 C 0.96018 0.72545 0.24208 0.0
C685 C 0.94743 0.69371 0.26618 0.0
C686 C 0.8998 0.63239 0.26705 0.0
C687 C 0.86543 0.60346 0.24479 0.0
C688 C 0.87886 0.63612 0.22155 0.0
C689 C 0.92512 0.69572 0.21996 0.0
C690 C 0.93073 0.71985 0.19231 0.0
C691 C 0.91933 0.77352 0.19143 0.0
C692 C -0.00701 0.73745 0.18086 0.0
C693 C 0.88012 0.6646 0.17869 0.0
C694 C 0.85115 0.61675 0.196 0.0
C695 C 0.80512 0.55991 0.18796 0.0
C696 C 0.78875 0.5514 0.16156 0.0
C697 C 0.81752 0.59953 0.14337 0.0
C698 C 0.86342 0.65714 0.15217 0.0
H699 H 0.18611 0.96146 0.57334 0.0
H700 H 0.3548 0.97468 0.59907 0.0
H701 H 0.36165 0.93102 0.55769 0.0
H702 H 0.12722 0.82035 0.53894 0.0
H703 H 0.09555 0.84185 0.51228 0.0
H704 H 0.10282 0.87464 0.54395 0.0
H705 H 0.16511 0.98234 0.52417 0.0
H706 H 0.15769 0.94992 0.4924 0.0
H707 H 0.23181 0.0016 0.50538 0.0
H708 H 0.35028 0.884 0.51499 0.0
H709 H 0.32614 0.84231 0.4713 0.0
H710 H 0.16519 0.85978 0.46997 0.0
C711 C 0.22468 0.95554 0.57017 0.0
C712 C 0.26939 0.97063 0.58987 0.0
C713 C 0.31909 0.96211 0.58479 0.0
C714 C 0.32363 0.93763 0.5612 0.0
C715 C 0.27836 0.92206 0.54256 0.0
C716 C 0.23009 0.93109 0.54649 0.0
C717 C 0.1883 0.91063 0.52274 0.0
C718 C 0.1247 0.85879 0.52991 0.0
C719 C 0.18558 0.96433 0.51044 0.0
C720 C 0.22063 0.88844 0.50499 0.0
C721 C 0.2723 0.8955 0.51712 0.0
C722 C 0.31002 0.87841 0.50528 0.0
C723 C 0.29536 0.85419 0.48026 0.0
C724 C 0.2432 0.8469 0.4668 0.0
C725 C 0.20509 0.8642 0.47957 0.0
loop_
_geom_bond_atom_site_label_1
_geom_bond_atom_site_label_2
_geom_bond_distance
_geom_bond_site_symmetry_2
_ccdc_geom_bond_type
C0 Eu1 2.835 1_556 S
C0 C2 1.500 . S
C0 O20 1.257 . S
C0 O21 1.260 . S
Eu1 C0 2.835 1_554 S
Eu1 O20 2.473 1_554 S
Eu1 O21 2.480 1_554 S
Eu1 O22 2.430 . S
Eu1 O23 2.670 . S
Eu1 O24 2.394 1_554 S
Eu1 O29 2.355 . S
Eu1 O31 2.374 . S
C2 C0 1.500 . S
C2 C3 1.377 . S
C2 C7 1.377 . S
C3 C2 1.377 . S
C3 C4 1.395 . S
C3 H32 0.931 . S
C4 C3 1.395 . S
C4 C5 1.383 . S
C4 H33 0.931 . S
C5 C4 1.383 . S
C5 C6 1.394 . S
C6 C5 1.394 . S
C6 C7 1.378 . S
C6 H34 0.931 . S
C7 C2 1.377 . S
C7 C6 1.378 . S
C7 H35 0.931 . S
C8 O22 1.259 . S
C8 O23 1.270 . S
C9 O24 1.251 . S
C9 O25 1.251 1_556 S
C10 Eu11 2.835 . S
C10 C12 1.500 . S
C10 O26 1.257 . S
C10 O27 1.260 . S
Eu11 C10 2.835 . S
Eu11 O23 2.355 . S
Eu11 O25 2.374 . S
Eu11 O26 2.473 . S
Eu11 O27 2.480 . S
Eu11 O28 2.430 . S
Eu11 O29 2.670 . S
Eu11 O30 2.394 . S
C12 C10 1.500 . S
C12 C13 1.377 . S
C12 C17 1.377 . S
C13 C12 1.377 . S
C13 C14 1.395 . S
C13 H36 0.931 . S
C14 C13 1.395 . S
C14 C15 1.383 . S
C14 H37 0.931 . S
C15 C14 1.383 . S
C15 C16 1.394 . S
C16 C15 1.394 . S
C16 C17 1.378 . S
C16 H38 0.931 . S
C17 C12 1.377 . S
C17 C16 1.378 . S
C17 H39 0.931 . S
C18 O28 1.259 . S
C18 O29 1.270 . S
C19 O30 1.251 . S
C19 O31 1.251 . S
O20 C0 1.257 . S
O20 Eu1 2.473 1_556 S
O21 C0 1.260 . S
O21 Eu1 2.480 1_556 S
O22 Eu1 2.430 . S
O22 C8 1.259 . S
O23 Eu1 2.670 . S
O23 C8 1.270 . S
O23 Eu11 2.355 . S
O24 Eu1 2.394 1_556 S
O24 C9 1.251 . S
O25 C9 1.251 1_554 S
O25 Eu11 2.374 . S
O26 C10 1.257 . S
O26 Eu11 2.473 . S
O27 C10 1.260 . S
O27 Eu11 2.480 . S
O28 Eu11 2.430 . S
O28 C18 1.259 . S
O29 Eu1 2.355 . S
O29 Eu11 2.670 . S
O29 C18 1.270 . S
O30 Eu11 2.394 . S
O30 C19 1.251 . S
O31 Eu1 2.374 . S
O31 C19 1.251 . S
H32 C3 0.931 . S
H33 C4 0.931 . S
H34 C6 0.931 . S
H35 C7 0.931 . S
H36 C13 0.931 . S
H37 C14 0.931 . S
H38 C16 0.931 . S
H39 C17 0.931 . S
C40 Eu41 2.835 . S
C40 C42 1.500 . S
C40 O60 1.257 . S
C40 O61 1.260 . S
Eu41 C40 2.835 . S
Eu41 O60 2.473 . S
Eu41 O61 2.480 . S
Eu41 O62 2.430 . S
Eu41 O63 2.670 . S
Eu41 O64 2.394 . S
Eu41 O69 2.355 . S
Eu41 O71 2.374 . S
C42 C40 1.500 . S
C42 C43 1.377 . S
C42 C47 1.377 . S
C43 C42 1.377 . S
C43 C44 1.395 . S
C43 H72 0.931 . S
C44 C43 1.395 . S
C44 C45 1.383 . S
C44 H73 0.931 . S
C45 C44 1.383 . S
C45 C46 1.394 1_655 S
C46 C45 1.394 1_455 S
C46 C47 1.378 1_455 S
C46 H74 0.931 . S
C47 C42 1.377 . S
C47 C46 1.378 1_655 S
C47 H75 0.931 . S
C48 O62 1.259 . S
C48 O63 1.270 . S
C49 O64 1.251 . S
C49 O65 1.251 . S
C50 Eu51 2.835 . S
C50 C52 1.500 . S
C50 O66 1.257 . S
C50 O67 1.260 . S
Eu51 C50 2.835 . S
Eu51 O63 2.355 . S
Eu51 O65 2.374 . S
Eu51 O66 2.473 . S
Eu51 O67 2.480 . S
Eu51 O68 2.430 . S
Eu51 O69 2.670 . S
Eu51 O70 2.394 . S
C52 C50 1.500 . S
C52 C53 1.377 . S
C52 C57 1.377 . S
C53 C52 1.377 . S
C53 C54 1.395 . S
C53 H76 0.931 . S
C54 C53 1.395 . S
C54 C55 1.383 . S
C54 H77 0.931 . S
C55 C54 1.383 . S
C55 C56 1.394 . S
C56 C55 1.394 . S
C56 C57 1.378 . S
C56 H78 0.931 . S
C57 C52 1.377 . S
C57 C56 1.378 . S
C57 H79 0.931 . S
C58 O68 1.259 . S
C58 O69 1.270 . S
C59 O70 1.251 . S
C59 O71 1.251 . S
O60 C40 1.257 . S
O60 Eu41 2.473 . S
O61 C40 1.260 . S
O61 Eu41 2.480 . S
O62 Eu41 2.430 . S
O62 C48 1.259 . S
O63 Eu41 2.670 . S
O63 C48 1.270 . S
O63 Eu51 2.355 . S
O64 Eu41 2.394 . S
O64 C49 1.251 . S
O65 C49 1.251 . S
O65 Eu51 2.374 . S
O66 C50 1.257 . S
O66 Eu51 2.473 . S
O67 C50 1.260 . S
O67 Eu51 2.480 . S
O68 Eu51 2.430 . S
O68 C58 1.259 . S
O69 Eu41 2.355 . S
O69 Eu51 2.670 . S
O69 C58 1.270 . S
O70 Eu51 2.394 . S
O70 C59 1.251 . S
O71 Eu41 2.374 . S
O71 C59 1.251 . S
H72 C43 0.931 . S
H73 C44 0.931 . S
H74 C46 0.931 . S
H75 C47 0.931 . S
H76 C53 0.931 . S
H77 C54 0.931 . S
H78 C56 0.931 . S
H79 C57 0.931 . S
C80 Eu81 2.835 . S
C80 C82 1.500 . S
C80 O100 1.257 . S
C80 O101 1.260 . S
Eu81 C80 2.835 . S
Eu81 O100 2.473 . S
Eu81 O101 2.480 . S
Eu81 O102 2.430 . S
Eu81 O103 2.670 . S
Eu81 O104 2.394 . S
Eu81 O109 2.355 . S
Eu81 O111 2.374 . S
C82 C80 1.500 . S
C82 C83 1.377 . S
C82 C87 1.377 . S
C83 C82 1.377 . S
C83 C84 1.395 . S
C83 H112 0.931 . S
C84 C83 1.395 . S
C84 C85 1.383 . S
C84 H113 0.931 . S
C85 C84 1.383 . S
C85 C86 1.394 1_565 S
C86 C85 1.394 1_545 S
C86 C87 1.378 1_545 S
C86 H114 0.931 . S
C87 C82 1.377 . S
C87 C86 1.378 1_565 S
C87 H115 0.931 . S
C88 O102 1.259 . S
C88 O103 1.270 . S
C89 O104 1.251 . S
C89 O105 1.251 . S
C90 Eu91 2.835 . S
C90 C92 1.500 . S
C90 O106 1.257 . S
C90 O107 1.260 . S
Eu91 C90 2.835 . S
Eu91 O103 2.355 . S
Eu91 O105 2.374 . S
Eu91 O106 2.473 . S
Eu91 O107 2.480 . S
Eu91 O108 2.430 . S
Eu91 O109 2.670 . S
Eu91 O110 2.394 . S
C92 C90 1.500 . S
C92 C93 1.377 . S
C92 C97 1.377 . S
C93 C92 1.377 . S
C93 C94 1.395 . S
C93 H116 0.931 . S
C94 C93 1.395 . S
C94 C95 1.383 . S
C94 H117 0.931 . S
C95 C94 1.383 . S
C95 C96 1.394 . S
C96 C95 1.394 . S
C96 C97 1.378 . S
C96 H118 0.931 . S
C97 C92 1.377 . S
C97 C96 1.378 . S
C97 H119 0.931 . S
C98 O108 1.259 . S
C98 O109 1.270 . S
C99 O110 1.251 . S
C99 O111 1.251 . S
O100 C80 1.257 . S
O100 Eu81 2.473 . S
O101 C80 1.260 . S
O101 Eu81 2.480 . S
O102 Eu81 2.430 . S
O102 C88 1.259 . S
O103 Eu81 2.670 . S
O103 C88 1.270 . S
O103 Eu91 2.355 . S
O104 Eu81 2.394 . S
O104 C89 1.251 . S
O105 C89 1.251 . S
O105 Eu91 2.374 . S
O106 C90 1.257 . S
O106 Eu91 2.473 . S
O107 C90 1.260 . S
O107 Eu91 2.480 . S
O108 Eu91 2.430 . S
O108 C98 1.259 . S
O109 Eu81 2.355 . S
O109 Eu91 2.670 . S
O109 C98 1.270 . S
O110 Eu91 2.394 . S
O110 C99 1.251 . S
O111 Eu81 2.374 . S
O111 C99 1.251 . S
H112 C83 0.931 . S
H113 C84 0.931 . S
H114 C86 0.931 . S
H115 C87 0.931 . S
H116 C93 0.931 . S
H117 C94 0.931 . S
H118 C96 0.931 . S
H119 C97 0.931 . S
C120 Eu121 2.835 1_556 S
C120 C122 1.500 . S
C120 O140 1.257 . S
C120 O141 1.260 . S
Eu121 C120 2.835 1_554 S
Eu121 O140 2.473 1_554 S
Eu121 O141 2.480 1_554 S
Eu121 O142 2.430 . S
Eu121 O143 2.670 . S
Eu121 O144 2.394 1_554 S
Eu121 O149 2.355 . S
Eu121 O151 2.374 . S
C122 C120 1.500 . S
C122 C123 1.377 . S
C122 C127 1.377 . S
C123 C122 1.377 . S
C123 C124 1.395 . S
C123 H152 0.931 . S
C124 C123 1.395 . S
C124 C125 1.383 . S
C124 H153 0.931 . S
C125 C124 1.383 . S
C125 C126 1.394 . S
C126 C125 1.394 . S
C126 C127 1.378 . S
C126 H154 0.931 . S
C127 C122 1.377 . S
C127 C126 1.378 . S
C127 H155 0.931 . S
C128 O142 1.259 . S
C128 O143 1.270 . S
C129 O144 1.251 . S
C129 O145 1.251 1_556 S
C130 Eu131 2.835 . S
C130 C132 1.500 . S
C130 O146 1.257 . S
C130 O147 1.260 . S
Eu131 C130 2.835 . S
Eu131 O143 2.355 . S
Eu131 O145 2.374 . S
Eu131 O146 2.473 . S
Eu131 O147 2.480 . S
Eu131 O148 2.430 . S
Eu131 O149 2.670 . S
Eu131 O150 2.394 . S
C132 C130 1.500 . S
C132 C133 1.377 . S
C132 C137 1.377 . S
C133 C132 1.377 . S
C133 C134 1.395 . S
C133 H156 0.931 . S
C134 C133 1.395 . S
C134 C135 1.383 . S
C134 H157 0.931 . S
C135 C134 1.383 . S
C135 C136 1.394 . S
C136 C135 1.394 . S
C136 C137 1.378 . S
C136 H158 0.931 . S
C137 C132 1.377 . S
C137 C136 1.378 . S
C137 H159 0.931 . S
C138 O148 1.259 . S
C138 O149 1.270 . S
C139 O150 1.251 . S
C139 O151 1.251 . S
O140 C120 1.257 . S
O140 Eu121 2.473 1_556 S
O141 C120 1.260 . S
O141 Eu121 2.480 1_556 S
O142 Eu121 2.430 . S
O142 C128 1.259 . S
O143 Eu121 2.670 . S
O143 C128 1.270 . S
O143 Eu131 2.355 . S
O144 Eu121 2.394 1_556 S
O144 C129 1.251 . S
O145 C129 1.251 1_554 S
O145 Eu131 2.374 . S
O146 C130 1.257 . S
O146 Eu131 2.473 . S
O147 C130 1.260 . S
O147 Eu131 2.480 . S
O148 Eu131 2.430 . S
O148 C138 1.259 . S
O149 Eu121 2.355 . S
O149 Eu131 2.670 . S
O149 C138 1.270 . S
O150 Eu131 2.394 . S
O150 C139 1.251 . S
O151 Eu121 2.374 . S
O151 C139 1.251 . S
H152 C123 0.931 . S
H153 C124 0.931 . S
H154 C126 0.931 . S
H155 C127 0.931 . S
H156 C133 0.931 . S
H157 C134 0.931 . S
H158 C136 0.931 . S
H159 C137 0.931 . S
C160 Eu161 2.835 . S
C160 C162 1.500 . S
C160 O180 1.257 . S
C160 O181 1.260 . S
Eu161 C160 2.835 . S
Eu161 O180 2.473 . S
Eu161 O181 2.480 . S
Eu161 O182 2.430 . S
Eu161 O183 2.670 . S
Eu161 O184 2.394 . S
Eu161 O189 2.355 . S
Eu161 O191 2.374 . S
C162 C160 1.500 . S
C162 C163 1.377 . S
C162 C167 1.377 . S
C163 C162 1.377 . S
C163 C164 1.395 . S
C163 H192 0.931 . S
C164 C163 1.395 . S
C164 C165 1.383 . S
C164 H193 0.931 . S
C165 C164 1.383 . S
C165 C166 1.394 1_455 S
C166 C165 1.394 1_655 S
C166 C167 1.378 1_655 S
C166 H194 0.931 . S
C167 C162 1.377 . S
C167 C166 1.378 1_455 S
C167 H195 0.931 . S
C168 O182 1.259 . S
C168 O183 1.270 . S
C169 O184 1.251 . S
C169 O185 1.251 . S
C170 Eu171 2.835 . S
C170 C172 1.500 . S
C170 O186 1.257 . S
C170 O187 1.260 . S
Eu171 C170 2.835 . S
Eu171 O183 2.355 . S
Eu171 O185 2.374 . S
Eu171 O186 2.473 . S
Eu171 O187 2.480 . S
Eu171 O188 2.430 . S
Eu171 O189 2.670 . S
Eu171 O190 2.394 . S
C172 C170 1.500 . S
C172 C173 1.377 . S
C172 C177 1.377 . S
C173 C172 1.377 . S
C173 C174 1.395 . S
C173 H196 0.931 . S
C174 C173 1.395 . S
C174 C175 1.383 . S
C174 H197 0.931 . S
C175 C174 1.383 . S
C175 C176 1.394 . S
C176 C175 1.394 . S
C176 C177 1.378 . S
C176 H198 0.931 . S
C177 C172 1.377 . S
C177 C176 1.378 . S
C177 H199 0.931 . S
C178 O188 1.259 . S
C178 O189 1.270 . S
C179 O190 1.251 . S
C179 O191 1.251 . S
O180 C160 1.257 . S
O180 Eu161 2.473 . S
O181 C160 1.260 . S
O181 Eu161 2.480 . S
O182 Eu161 2.430 . S
O182 C168 1.259 . S
O183 Eu161 2.670 . S
O183 C168 1.270 . S
O183 Eu171 2.355 . S
O184 Eu161 2.394 . S
O184 C169 1.251 . S
O185 C169 1.251 . S
O185 Eu171 2.374 . S
O186 C170 1.257 . S
O186 Eu171 2.473 . S
O187 C170 1.260 . S
O187 Eu171 2.480 . S
O188 Eu171 2.430 . S
O188 C178 1.259 . S
O189 Eu161 2.355 . S
O189 Eu171 2.670 . S
O189 C178 1.270 . S
O190 Eu171 2.394 . S
O190 C179 1.251 . S
O191 Eu161 2.374 . S
O191 C179 1.251 . S
H192 C163 0.931 . S
H193 C164 0.931 . S
H194 C166 0.931 . S
H195 C167 0.931 . S
H196 C173 0.931 . S
H197 C174 0.931 . S
H198 C176 0.931 . S
H199 C177 0.931 . S
C200 Eu201 2.835 . S
C200 C202 1.500 . S
C200 O220 1.257 . S
C200 O221 1.260 . S
Eu201 C200 2.835 . S
Eu201 O220 2.473 . S
Eu201 O221 2.480 . S
Eu201 O222 2.430 . S
Eu201 O223 2.670 . S
Eu201 O224 2.394 . S
Eu201 O229 2.355 . S
Eu201 O231 2.374 . S
C202 C200 1.500 . S
C202 C203 1.377 . S
C202 C207 1.377 . S
C203 C202 1.377 . S
C203 C204 1.395 . S
C203 H232 0.931 . S
C204 C203 1.395 . S
C204 C205 1.383 . S
C204 H233 0.931 . S
C205 C204 1.383 . S
C205 C206 1.394 1_545 S
C206 C205 1.394 1_565 S
C206 C207 1.378 1_565 S
C206 H234 0.931 . S
C207 C202 1.377 . S
C207 C206 1.378 1_545 S
C207 H235 0.931 . S
C208 O222 1.259 . S
C208 O223 1.270 . S
C209 O224 1.251 . S
C209 O225 1.251 . S
C210 Eu211 2.835 . S
C210 C212 1.500 . S
C210 O226 1.257 . S
C210 O227 1.260 . S
Eu211 C210 2.835 . S
Eu211 O223 2.355 . S
Eu211 O225 2.374 . S
Eu211 O226 2.473 . S
Eu211 O227 2.480 . S
Eu211 O228 2.430 . S
Eu211 O229 2.670 . S
Eu211 O230 2.394 . S
C212 C210 1.500 . S
C212 C213 1.377 . S
C212 C217 1.377 . S
C213 C212 1.377 . S
C213 C214 1.395 . S
C213 H236 0.931 . S
C214 C213 1.395 . S
C214 C215 1.383 . S
C214 H237 0.931 . S
C215 C214 1.383 . S
C215 C216 1.394 . S
C216 C215 1.394 . S
C216 C217 1.378 . S
C216 H238 0.931 . S
C217 C212 1.377 . S
C217 C216 1.378 . S
C217 H239 0.931 . S
C218 O228 1.259 . S
C218 O229 1.270 . S
C219 O230 1.251 . S
C219 O231 1.251 . S
O220 C200 1.257 . S
O220 Eu201 2.473 . S
O221 C200 1.260 . S
O221 Eu201 2.480 . S
O222 Eu201 2.430 . S
O222 C208 1.259 . S
O223 Eu201 2.670 . S
O223 C208 1.270 . S
O223 Eu211 2.355 . S
O224 Eu201 2.394 . S
O224 C209 1.251 . S
O225 C209 1.251 . S
O225 Eu211 2.374 . S
O226 C210 1.257 . S
O226 Eu211 2.473 . S
O227 C210 1.260 . S
O227 Eu211 2.480 . S
O228 Eu211 2.430 . S
O228 C218 1.259 . S
O229 Eu201 2.355 . S
O229 Eu211 2.670 . S
O229 C218 1.270 . S
O230 Eu211 2.394 . S
O230 C219 1.251 . S
O231 Eu201 2.374 . S
O231 C219 1.251 . S
H232 C203 0.931 . S
H233 C204 0.931 . S
H234 C206 0.931 . S
H235 C207 0.931 . S
H236 C213 0.931 . S
H237 C214 0.931 . S
H238 C216 0.931 . S
H239 C217 0.931 . S
H240 C252 0.930 . S
H241 C254 0.930 . S
H242 C255 0.930 . S
H243 C259 0.959 . S
H244 C259 0.959 . S
H245 C259 0.961 . S
H246 C260 0.960 . S
H247 C260 0.961 . S
H248 C260 0.959 . S
H249 C263 0.929 . S
H250 C264 0.931 . S
H251 C266 0.930 . S
C252 H240 0.930 . S
C252 C253 1.399 . S
C252 C257 1.399 . S
C253 C252 1.399 . S
C253 C254 1.376 . S
C254 H241 0.930 . S
C254 C253 1.376 . S
C254 C255 1.388 . S
C255 H242 0.930 . S
C255 C254 1.388 . S
C255 C256 1.390 . S
C256 C255 1.390 . S
C256 C257 1.394 . S
C256 C262 1.465 . S
C257 C252 1.399 . S
C257 C256 1.394 . S
C257 C258 1.516 . S
C258 C257 1.516 . S
C258 C259 1.502 . S
C258 C260 1.561 . S
C258 C261 1.526 . S
C259 H243 0.959 . S
C259 H244 0.959 . S
C259 H245 0.961 . S
C259 C258 1.502 . S
C260 H246 0.960 . S
C260 H247 0.961 . S
C260 H248 0.959 . S
C260 C258 1.561 . S
C261 C258 1.526 . S
C261 C262 1.396 . S
C261 C266 1.390 . S
C262 C256 1.465 . S
C262 C261 1.396 . S
C262 C263 1.399 . S
C263 H249 0.929 . S
C263 C262 1.399 . S
C263 C264 1.385 . S
C264 H250 0.931 . S
C264 C263 1.385 . S
C264 C265 1.389 . S
C265 C264 1.389 . S
C265 C266 1.387 . S
C266 H251 0.930 . S
C266 C261 1.390 . S
C266 C265 1.387 . S
H267 C279 0.930 . S
H268 C281 0.930 . S
H269 C282 0.930 . S
H270 C286 0.959 . S
H271 C286 0.959 . S
H272 C286 0.961 . S
H273 C287 0.960 . S
H274 C287 0.961 . S
H275 C287 0.959 . S
H276 C290 0.929 . S
H277 C291 0.931 . S
H278 C293 0.930 . S
C279 H267 0.930 . S
C279 C280 1.399 . S
C279 C284 1.399 . S
C280 C279 1.399 . S
C280 C281 1.376 . S
C281 H268 0.930 . S
C281 C280 1.376 . S
C281 C282 1.388 . S
C282 H269 0.930 . S
C282 C281 1.388 . S
C282 C283 1.390 . S
C283 C282 1.390 . S
C283 C284 1.394 . S
C283 C289 1.465 . S
C284 C279 1.399 . S
C284 C283 1.394 . S
C284 C285 1.516 . S
C285 C284 1.516 . S
C285 C286 1.502 . S
C285 C287 1.561 . S
C285 C288 1.526 . S
C286 H270 0.959 . S
C286 H271 0.959 . S
C286 H272 0.961 . S
C286 C285 1.502 . S
C287 H273 0.960 . S
C287 H274 0.961 . S
C287 H275 0.959 . S
C287 C285 1.561 . S
C288 C285 1.526 . S
C288 C289 1.396 . S
C288 C293 1.390 . S
C289 C283 1.465 . S
C289 C288 1.396 . S
C289 C290 1.399 . S
C290 H276 0.929 . S
C290 C289 1.399 . S
C290 C291 1.385 . S
C291 H277 0.931 . S
C291 C290 1.385 . S
C291 C292 1.389 . S
C292 C291 1.389 . S
C292 C293 1.387 . S
C293 H278 0.930 . S
C293 C288 1.390 . S
C293 C292 1.387 . S
H294 C306 0.930 . S
H295 C308 0.930 . S
H296 C309 0.930 . S
H297 C313 0.959 . S
H298 C313 0.959 . S
H299 C313 0.961 . S
H300 C314 0.960 . S
H301 C314 0.961 . S
H302 C314 0.959 . S
H303 C317 0.929 . S
H304 C318 0.931 . S
H305 C320 0.930 . S
C306 H294 0.930 . S
C306 C307 1.399 . S
C306 C311 1.399 . S
C307 C306 1.399 . S
C307 C308 1.376 . S
C308 H295 0.930 . S
C308 C307 1.376 . S
C308 C309 1.388 . S
C309 H296 0.930 . S
C309 C308 1.388 . S
C309 C310 1.390 . S
C310 C309 1.390 . S
C310 C311 1.394 . S
C310 C316 1.465 . S
C311 C306 1.399 . S
C311 C310 1.394 . S
C311 C312 1.516 . S
C312 C311 1.516 . S
C312 C313 1.502 . S
C312 C314 1.561 . S
C312 C315 1.526 . S
C313 H297 0.959 . S
C313 H298 0.959 . S
C313 H299 0.961 . S
C313 C312 1.502 . S
C314 H300 0.960 . S
C314 H301 0.961 . S
C314 H302 0.959 . S
C314 C312 1.561 . S
C315 C312 1.526 . S
C315 C316 1.396 . S
C315 C320 1.390 . S
C316 C310 1.465 . S
C316 C315 1.396 . S
C316 C317 1.399 . S
C317 H303 0.929 . S
C317 C316 1.399 . S
C317 C318 1.385 . S
C318 H304 0.931 . S
C318 C317 1.385 . S
C318 C319 1.389 . S
C319 C318 1.389 . S
C319 C320 1.387 . S
C320 H305 0.930 . S
C320 C315 1.390 . S
C320 C319 1.387 . S
H321 C333 0.930 . S
H322 C335 0.930 . S
H323 C336 0.930 . S
H324 C340 0.959 . S
H325 C340 0.959 . S
H326 C340 0.961 . S
H327 C341 0.960 . S
H328 C341 0.961 . S
H329 C341 0.959 . S
H330 C344 0.929 . S
H331 C345 0.931 . S
H332 C347 0.930 . S
C333 H321 0.930 . S
C333 C334 1.399 . S
C333 C338 1.399 . S
C334 C333 1.399 . S
C334 C335 1.376 . S
C335 H322 0.930 . S
C335 C334 1.376 . S
C335 C336 1.388 . S
C336 H323 0.930 . S
C336 C335 1.388 . S
C336 C337 1.390 . S
C337 C336 1.390 . S
C337 C338 1.394 . S
C337 C343 1.465 . S
C338 C333 1.399 . S
C338 C337 1.394 . S
C338 C339 1.516 . S
C339 C338 1.516 . S
C339 C340 1.502 . S
C339 C341 1.561 . S
C339 C342 1.526 . S
C340 H324 0.959 . S
C340 H325 0.959 . S
C340 H326 0.961 . S
C340 C339 1.502 . S
C341 H327 0.960 . S
C341 H328 0.961 . S
C341 H329 0.959 . S
C341 C339 1.561 . S
C342 C339 1.526 . S
C342 C343 1.396 . S
C342 C347 1.390 . S
C343 C337 1.465 . S
C343 C342 1.396 . S
C343 C344 1.399 . S
C344 H330 0.929 . S
C344 C343 1.399 . S
C344 C345 1.385 . S
C345 H331 0.931 . S
C345 C344 1.385 . S
C345 C346 1.389 . S
C346 C345 1.389 . S
C346 C347 1.387 . S
C347 H332 0.930 . S
C347 C342 1.390 . S
C347 C346 1.387 . S
H348 C360 0.930 . S
H349 C362 0.930 . S
H350 C363 0.930 . S
H351 C367 0.959 . S
H352 C367 0.959 . S
H353 C367 0.961 . S
H354 C368 0.960 . S
H355 C368 0.961 . S
H356 C368 0.959 . S
H357 C371 0.929 . S
H358 C372 0.931 . S
H359 C374 0.930 . S
C360 H348 0.930 . S
C360 C361 1.399 . S
C360 C365 1.399 . S
C361 C360 1.399 . S
C361 C362 1.376 . S
C362 H349 0.930 . S
C362 C361 1.376 . S
C362 C363 1.388 . S
C363 H350 0.930 . S
C363 C362 1.388 . S
C363 C364 1.390 . S
C364 C363 1.390 . S
C364 C365 1.394 . S
C364 C370 1.465 . S
C365 C360 1.399 . S
C365 C364 1.394 . S
C365 C366 1.516 . S
C366 C365 1.516 . S
C366 C367 1.502 . S
C366 C368 1.561 . S
C366 C369 1.526 . S
C367 H351 0.959 . S
C367 H352 0.959 . S
C367 H353 0.961 . S
C367 C366 1.502 . S
C368 H354 0.960 . S
C368 H355 0.961 . S
C368 H356 0.959 . S
C368 C366 1.561 . S
C369 C366 1.526 . S
C369 C370 1.396 . S
C369 C374 1.390 . S
C370 C364 1.465 . S
C370 C369 1.396 . S
C370 C371 1.399 . S
C371 H357 0.929 . S
C371 C370 1.399 . S
C371 C372 1.385 . S
C372 H358 0.931 . S
C372 C371 1.385 . S
C372 C373 1.389 . S
C373 C372 1.389 . S
C373 C374 1.387 . S
C374 H359 0.930 . S
C374 C369 1.390 . S
C374 C373 1.387 . S
H375 C387 0.930 . S
H376 C389 0.930 . S
H377 C390 0.930 . S
H378 C394 0.959 . S
H379 C394 0.959 . S
H380 C394 0.961 . S
H381 C395 0.960 . S
H382 C395 0.961 . S
H383 C395 0.959 . S
H384 C398 0.929 . S
H385 C399 0.931 . S
H386 C401 0.930 . S
C387 H375 0.930 . S
C387 C388 1.399 . S
C387 C392 1.399 . S
C388 C387 1.399 . S
C388 C389 1.376 . S
C389 H376 0.930 . S
C389 C388 1.376 . S
C389 C390 1.388 . S
C390 H377 0.930 . S
C390 C389 1.388 . S
C390 C391 1.390 . S
C391 C390 1.390 . S
C391 C392 1.394 . S
C391 C397 1.465 . S
C392 C387 1.399 . S
C392 C391 1.394 . S
C392 C393 1.516 . S
C393 C392 1.516 . S
C393 C394 1.502 . S
C393 C395 1.561 . S
C393 C396 1.526 . S
C394 H378 0.959 . S
C394 H379 0.959 . S
C394 H380 0.961 . S
C394 C393 1.502 . S
C395 H381 0.960 . S
C395 H382 0.961 . S
C395 H383 0.959 . S
C395 C393 1.561 . S
C396 C393 1.526 . S
C396 C397 1.396 . S
C396 C401 1.390 . S
C397 C391 1.465 . S
C397 C396 1.396 . S
C397 C398 1.399 . S
C398 H384 0.929 . S
C398 C397 1.399 . S
C398 C399 1.385 . S
C399 H385 0.931 . S
C399 C398 1.385 . S
C399 C400 1.389 . S
C400 C399 1.389 . S
C400 C401 1.387 . S
C401 H386 0.930 . S
C401 C396 1.390 . S
C401 C400 1.387 . S
H402 C414 0.930 . S
H403 C416 0.930 . S
H404 C417 0.930 1_556 S
H405 C421 0.959 . S
H406 C421 0.959 . S
H407 C421 0.961 . S
H408 C422 0.960 . S
H409 C422 0.961 . S
H410 C422 0.959 . S
H411 C425 0.929 1_556 S
H412 C426 0.931 . S
H413 C428 0.930 . S
C414 H402 0.930 . S
C414 C415 1.399 . S
C414 C419 1.399 . S
C415 C414 1.399 . S
C415 C416 1.376 . S
C416 H403 0.930 . S
C416 C415 1.376 . S
C416 C417 1.388 . S
C417 H404 0.930 1_554 S
C417 C416 1.388 . S
C417 C418 1.390 . S
C418 C417 1.390 . S
C418 C419 1.394 . S
C418 C424 1.465 . S
C419 C414 1.399 . S
C419 C418 1.394 . S
C419 C420 1.516 . S
C420 C419 1.516 . S
C420 C421 1.502 . S
C420 C422 1.561 . S
C420 C423 1.526 . S
C421 H405 0.959 . S
C421 H406 0.959 . S
C421 H407 0.961 . S
C421 C420 1.502 . S
C422 H408 0.960 . S
C422 H409 0.961 . S
C422 H410 0.959 . S
C422 C420 1.561 . S
C423 C420 1.526 . S
C423 C424 1.396 . S
C423 C428 1.390 . S
C424 C418 1.465 . S
C424 C423 1.396 . S
C424 C425 1.399 . S
C425 H411 0.929 1_554 S
C425 C424 1.399 . S
C425 C426 1.385 . S
C426 H412 0.931 . S
C426 C425 1.385 . S
C426 C427 1.389 . S
C427 C426 1.389 . S
C427 C428 1.387 . S
C428 H413 0.930 . S
C428 C423 1.390 . S
C428 C427 1.387 . S
H429 C441 0.930 . S
H430 C443 0.930 . S
H431 C444 0.930 1_655 S
H432 C448 0.959 . S
H433 C448 0.959 . S
H434 C448 0.961 . S
H435 C449 0.960 . S
H436 C449 0.961 . S
H437 C449 0.959 . S
H438 C452 0.929 . S
H439 C453 0.931 . S
H440 C455 0.930 . S
C441 H429 0.930 . S
C441 C442 1.399 . S
C441 C446 1.399 . S
C442 C441 1.399 . S
C442 C443 1.376 . S
C443 H430 0.930 . S
C443 C442 1.376 . S
C443 C444 1.388 . S
C444 H431 0.930 1_455 S
C444 C443 1.388 . S
C444 C445 1.389 . S
C445 C444 1.389 . S
C445 C446 1.394 . S
C445 C451 1.466 1_455 S
C446 C441 1.399 . S
C446 C445 1.394 . S
C446 C447 1.516 . S
C447 C446 1.516 . S
C447 C448 1.502 . S
C447 C449 1.561 1_455 S
C447 C450 1.526 1_455 S
C448 H432 0.959 . S
C448 H433 0.959 . S
C448 H434 0.961 . S
C448 C447 1.502 . S
C449 H435 0.960 . S
C449 H436 0.961 . S
C449 H437 0.959 . S
C449 C447 1.561 1_655 S
C450 C447 1.526 1_655 S
C450 C451 1.396 . S
C450 C455 1.390 . S
C451 C445 1.466 1_655 S
C451 C450 1.396 . S
C451 C452 1.399 . S
C452 H438 0.929 . S
C452 C451 1.399 . S
C452 C453 1.385 . S
C453 H439 0.931 . S
C453 C452 1.385 . S
C453 C454 1.389 . S
C454 C453 1.389 . S
C454 C455 1.387 . S
C455 H440 0.930 . S
C455 C450 1.390 . S
C455 C454 1.387 . S
H456 C468 0.930 . S
H457 C470 0.930 . S
H458 C471 0.924 1_565 S
H459 C475 0.959 . S
H460 C475 0.959 . S
H461 C475 0.961 . S
H462 C476 0.960 . S
H463 C476 0.961 . S
H464 C476 0.959 . S
H465 C479 0.929 . S
H466 C480 0.931 . S
H467 C482 0.930 . S
C468 H456 0.930 . S
C468 C469 1.399 . S
C468 C473 1.399 . S
C469 C468 1.399 . S
C469 C470 1.376 . S
C470 H457 0.930 . S
C470 C469 1.376 . S
C470 C471 1.400 . S
C471 H458 0.924 1_545 S
C471 C470 1.400 . S
C471 C472 1.385 1_545 S
C472 C471 1.385 1_565 S
C472 C473 1.394 1_565 S
C472 C478 1.465 . S
C473 C468 1.399 . S
C473 C472 1.394 1_545 S
C473 C474 1.516 . S
C474 C473 1.516 . S
C474 C475 1.502 . S
C474 C476 1.561 1_545 S
C474 C477 1.526 1_545 S
C475 H459 0.959 . S
C475 H460 0.959 . S
C475 H461 0.961 . S
C475 C474 1.502 . S
C476 H462 0.960 . S
C476 H463 0.961 . S
C476 H464 0.959 . S
C476 C474 1.561 1_565 S
C477 C474 1.526 1_565 S
C477 C478 1.396 . S
C477 C482 1.390 . S
C478 C472 1.465 . S
C478 C477 1.396 . S
C478 C479 1.399 . S
C479 H465 0.929 . S
C479 C478 1.399 . S
C479 C480 1.385 . S
C480 H466 0.931 . S
C480 C479 1.385 . S
C480 C481 1.389 . S
C481 C480 1.389 . S
C481 C482 1.387 . S
C482 H467 0.930 . S
C482 C477 1.390 . S
C482 C481 1.387 . S
H483 C495 0.930 . S
H484 C497 0.930 . S
H485 C498 0.930 . S
H486 C502 0.959 . S
H487 C502 0.959 . S
H488 C502 0.961 . S
H489 C503 0.960 . S
H490 C503 0.961 . S
H491 C503 0.959 . S
H492 C506 0.929 . S
H493 C507 0.931 . S
H494 C509 0.930 . S
C495 H483 0.930 . S
C495 C496 1.399 . S
C495 C500 1.399 . S
C496 C495 1.399 . S
C496 C497 1.376 . S
C497 H484 0.930 . S
C497 C496 1.376 . S
C497 C498 1.388 . S
C498 H485 0.930 . S
C498 C497 1.388 . S
C498 C499 1.390 . S
C499 C498 1.390 . S
C499 C500 1.394 . S
C499 C505 1.465 . S
C500 C495 1.399 . S
C500 C499 1.394 . S
C500 C501 1.516 . S
C501 C500 1.516 . S
C501 C502 1.502 . S
C501 C503 1.561 . S
C501 C504 1.526 . S
C502 H486 0.959 . S
C502 H487 0.959 . S
C502 H488 0.961 . S
C502 C501 1.502 . S
C503 H489 0.960 . S
C503 H490 0.961 . S
C503 H491 0.959 . S
C503 C501 1.561 . S
C504 C501 1.526 . S
C504 C505 1.396 . S
C504 C509 1.390 . S
C505 C499 1.465 . S
C505 C504 1.396 . S
C505 C506 1.399 . S
C506 H492 0.929 . S
C506 C505 1.399 . S
C506 C507 1.385 . S
C507 H493 0.931 . S
C507 C506 1.385 . S
C507 C508 1.389 . S
C508 C507 1.389 . S
C508 C509 1.387 . S
C509 H494 0.930 . S
C509 C504 1.390 . S
C509 C508 1.387 . S
H510 C522 0.930 1_556 S
H511 C524 0.930 . S
H512 C525 0.930 . S
H513 C529 0.959 . S
H514 C529 0.959 . S
H515 C529 0.961 . S
H516 C530 0.960 . S
H517 C530 0.961 . S
H518 C530 0.959 . S
H519 C533 0.929 . S
H520 C534 0.931 . S
H521 C536 0.930 1_556 S
C522 H510 0.930 1_554 S
C522 C523 1.399 . S
C522 C527 1.399 . S
C523 C522 1.399 . S
C523 C524 1.376 . S
C524 H511 0.930 . S
C524 C523 1.376 . S
C524 C525 1.388 . S
C525 H512 0.930 . S
C525 C524 1.388 . S
C525 C526 1.390 . S
C526 C525 1.390 . S
C526 C527 1.394 . S
C526 C532 1.465 1_455 S
C527 C522 1.399 . S
C527 C526 1.394 . S
C527 C528 1.516 1_554 S
C528 C527 1.516 1_556 S
C528 C529 1.502 . S
C528 C530 1.561 1_455 S
C528 C531 1.526 1_456 S
C529 H513 0.959 . S
C529 H514 0.959 . S
C529 H515 0.961 . S
C529 C528 1.502 . S
C530 H516 0.960 . S
C530 H517 0.961 . S
C530 H518 0.959 . S
C530 C528 1.561 1_655 S
C531 C528 1.526 1_654 S
C531 C532 1.396 . S
C531 C536 1.390 . S
C532 C526 1.465 1_655 S
C532 C531 1.396 . S
C532 C533 1.399 . S
C533 H519 0.929 . S
C533 C532 1.399 . S
C533 C534 1.385 . S
C534 H520 0.931 . S
C534 C533 1.385 . S
C534 C535 1.389 . S
C535 C534 1.389 . S
C535 C536 1.387 . S
C536 H521 0.930 1_554 S
C536 C531 1.390 . S
C536 C535 1.387 . S
H537 C549 0.930 . S
H538 C551 0.930 . S
H539 C552 0.930 1_545 S
H540 C556 0.959 . S
H541 C556 0.959 . S
H542 C556 0.961 . S
H543 C557 0.960 . S
H544 C557 0.961 . S
H545 C557 0.959 . S
H546 C560 0.929 . S
H547 C561 0.931 . S
H548 C563 0.930 . S
C549 H537 0.930 . S
C549 C550 1.399 . S
C549 C554 1.399 . S
C550 C549 1.399 . S
C550 C551 1.376 . S
C551 H538 0.930 . S
C551 C550 1.376 . S
C551 C552 1.388 . S
C552 H539 0.930 1_565 S
C552 C551 1.388 . S
C552 C553 1.390 . S
C553 C552 1.390 . S
C553 C554 1.394 . S
C553 C559 1.465 1_565 S
C554 C549 1.399 . S
C554 C553 1.394 . S
C554 C555 1.516 . S
C555 C554 1.516 . S
C555 C556 1.502 . S
C555 C557 1.561 1_565 S
C555 C558 1.526 1_565 S
C556 H540 0.959 . S
C556 H541 0.959 . S
C556 H542 0.961 . S
C556 C555 1.502 . S
C557 H543 0.960 . S
C557 H544 0.961 . S
C557 H545 0.959 . S
C557 C555 1.561 1_545 S
C558 C555 1.526 1_545 S
C558 C559 1.396 . S
C558 C563 1.390 . S
C559 C553 1.465 1_545 S
C559 C558 1.396 . S
C559 C560 1.399 . S
C560 H546 0.929 . S
C560 C559 1.399 . S
C560 C561 1.385 . S
C561 H547 0.931 . S
C561 C560 1.385 . S
C561 C562 1.389 . S
C562 C561 1.389 . S
C562 C563 1.387 . S
C563 H548 0.930 . S
C563 C558 1.390 . S
C563 C562 1.387 . S
H564 C576 0.930 . S
H565 C578 0.930 . S
H566 C579 0.930 . S
H567 C583 0.959 . S
H568 C583 0.959 . S
H569 C583 0.961 . S
H570 C584 0.960 . S
H571 C584 0.961 . S
H572 C584 0.959 . S
H573 C587 0.929 . S
H574 C588 0.931 . S
H575 C590 0.930 . S
C576 H564 0.930 . S
C576 C577 1.399 . S
C576 C581 1.399 . S
C577 C576 1.399 . S
C577 C578 1.376 . S
C578 H565 0.930 . S
C578 C577 1.376 . S
C578 C579 1.388 . S
C579 H566 0.930 . S
C579 C578 1.388 . S
C579 C580 1.390 . S
C580 C579 1.390 . S
C580 C581 1.394 . S
C580 C586 1.465 . S
C581 C576 1.399 . S
C581 C580 1.394 . S
C581 C582 1.516 . S
C582 C581 1.516 . S
C582 C583 1.502 . S
C582 C584 1.561 . S
C582 C585 1.526 . S
C583 H567 0.959 . S
C583 H568 0.959 . S
C583 H569 0.961 . S
C583 C582 1.502 . S
C584 H570 0.960 . S
C584 H571 0.961 . S
C584 H572 0.959 . S
C584 C582 1.561 . S
C585 C582 1.526 . S
C585 C586 1.396 . S
C585 C590 1.390 . S
C586 C580 1.465 . S
C586 C585 1.396 . S
C586 C587 1.399 . S
C587 H573 0.929 . S
C587 C586 1.399 . S
C587 C588 1.385 . S
C588 H574 0.931 . S
C588 C587 1.385 . S
C588 C589 1.389 . S
C589 C588 1.389 . S
C589 C590 1.387 . S
C590 H575 0.930 . S
C590 C585 1.390 . S
C590 C589 1.387 . S
H591 C603 0.930 1_655 S
H592 C605 0.930 . S
H593 C606 0.930 . S
H594 C610 0.959 . S
H595 C610 0.959 . S
H596 C610 0.961 . S
H597 C611 0.960 . S
H598 C611 0.961 . S
H599 C611 0.959 . S
H600 C614 0.929 . S
H601 C615 0.931 . S
H602 C617 0.930 . S
C603 H591 0.930 1_455 S
C603 C604 1.399 . S
C603 C608 1.399 . S
C604 C603 1.399 . S
C604 C605 1.376 . S
C605 H592 0.930 . S
C605 C604 1.376 . S
C605 C606 1.388 . S
C606 H593 0.930 . S
C606 C605 1.388 . S
C606 C607 1.390 . S
C607 C606 1.390 . S
C607 C608 1.394 . S
C607 C613 1.465 . S
C608 C603 1.399 . S
C608 C607 1.394 . S
C608 C609 1.516 . S
C609 C608 1.516 . S
C609 C610 1.502 1_455 S
C609 C611 1.561 . S
C609 C612 1.526 . S
C610 H594 0.959 . S
C610 H595 0.959 . S
C610 H596 0.961 . S
C610 C609 1.502 1_655 S
C611 H597 0.960 . S
C611 H598 0.961 . S
C611 H599 0.959 . S
C611 C609 1.561 . S
C612 C609 1.526 . S
C612 C613 1.396 . S
C612 C617 1.390 . S
C613 C607 1.465 . S
C613 C612 1.396 . S
C613 C614 1.399 . S
C614 H600 0.929 . S
C614 C613 1.399 . S
C614 C615 1.385 . S
C615 H601 0.931 . S
C615 C614 1.385 . S
C615 C616 1.389 . S
C616 C615 1.389 . S
C616 C617 1.387 . S
C617 H602 0.930 . S
C617 C612 1.390 . S
C617 C616 1.387 . S
H618 C630 0.930 . S
H619 C632 0.930 . S
H620 C633 0.930 . S
H621 C637 0.959 1_545 S
H622 C637 0.959 . S
H623 C637 0.961 . S
H624 C638 0.960 . S
H625 C638 0.961 . S
H626 C638 0.959 . S
H627 C641 0.929 . S
H628 C642 0.931 . S
H629 C644 0.930 . S
C630 H618 0.930 . S
C630 C631 1.399 1_565 S
C630 C635 1.399 1_565 S
C631 C630 1.399 1_545 S
C631 C632 1.376 . S
C632 H619 0.930 . S
C632 C631 1.376 . S
C632 C633 1.388 . S
C633 H620 0.930 . S
C633 C632 1.388 . S
C633 C634 1.390 . S
C634 C633 1.390 . S
C634 C635 1.394 . S
C634 C640 1.465 . S
C635 C630 1.399 1_545 S
C635 C634 1.394 . S
C635 C636 1.516 . S
C636 C635 1.516 . S
C636 C637 1.502 1_545 S
C636 C638 1.561 1_545 S
C636 C639 1.526 . S
C637 H621 0.959 1_565 S
C637 H622 0.959 . S
C637 H623 0.961 . S
C637 C636 1.502 1_565 S
C638 H624 0.960 . S
C638 H625 0.961 . S
C638 H626 0.959 . S
C638 C636 1.561 1_565 S
C639 C636 1.526 . S
C639 C640 1.396 . S
C639 C644 1.390 . S
C640 C634 1.465 . S
C640 C639 1.396 . S
C640 C641 1.399 . S
C641 H627 0.929 . S
C641 C640 1.399 . S
C641 C642 1.385 . S
C642 H628 0.931 . S
C642 C641 1.385 . S
C642 C643 1.389 . S
C643 C642 1.389 . S
C643 C644 1.387 . S
C644 H629 0.930 . S
C644 C639 1.390 . S
C644 C643 1.387 . S
H645 C657 0.930 . S
H646 C659 0.930 . S
H647 C660 0.930 . S
H648 C664 0.959 . S
H649 C664 0.959 . S
H650 C664 0.961 . S
H651 C665 0.960 . S
H652 C665 0.961 . S
H653 C665 0.959 . S
H654 C668 0.929 . S
H655 C669 0.931 . S
H656 C671 0.930 . S
C657 H645 0.930 . S
C657 C658 1.399 . S
C657 C662 1.399 . S
C658 C657 1.399 . S
C658 C659 1.376 . S
C659 H646 0.930 . S
C659 C658 1.376 . S
C659 C660 1.388 . S
C660 H647 0.930 . S
C660 C659 1.388 . S
C660 C661 1.390 . S
C661 C660 1.390 . S
C661 C662 1.394 . S
C661 C667 1.465 . S
C662 C657 1.399 . S
C662 C661 1.394 . S
C662 C663 1.516 . S
C663 C662 1.516 . S
C663 C664 1.502 . S
C663 C665 1.561 . S
C663 C666 1.526 . S
C664 H648 0.959 . S
C664 H649 0.959 . S
C664 H650 0.961 . S
C664 C663 1.502 . S
C665 H651 0.960 . S
C665 H652 0.961 . S
C665 H653 0.959 . S
C665 C663 1.561 . S
C666 C663 1.526 . S
C666 C667 1.396 . S
C666 C671 1.390 . S
C667 C661 1.465 . S
C667 C666 1.396 . S
C667 C668 1.399 . S
C668 H654 0.929 . S
C668 C667 1.399 . S
C668 C669 1.385 . S
C669 H655 0.931 . S
C669 C668 1.385 . S
C669 C670 1.389 . S
C670 C669 1.389 . S
C670 C671 1.387 . S
C671 H656 0.930 . S
C671 C666 1.390 . S
C671 C670 1.387 . S
H672 C684 0.930 1_455 S
H673 C686 0.930 . S
H674 C687 0.930 . S
H675 C691 0.959 . S
H676 C691 0.959 . S
H677 C691 0.961 . S
H678 C692 0.960 . S
H679 C692 0.961 . S
H680 C692 0.959 . S
H681 C695 0.929 . S
H682 C696 0.931 . S
H683 C698 0.930 . S
C684 H672 0.930 1_655 S
C684 C685 1.399 . S
C684 C689 1.399 . S
C685 C684 1.399 . S
C685 C686 1.376 . S
C686 H673 0.930 . S
C686 C685 1.376 . S
C686 C687 1.388 . S
C687 H674 0.930 . S
C687 C686 1.388 . S
C687 C688 1.390 . S
C688 C687 1.390 . S
C688 C689 1.394 . S
C688 C694 1.465 . S
C689 C684 1.399 . S
C689 C688 1.394 . S
C689 C690 1.516 . S
C690 C689 1.516 . S
C690 C691 1.502 . S
C690 C692 1.561 1_655 S
C690 C693 1.526 . S
C691 H675 0.959 . S
C691 H676 0.959 . S
C691 H677 0.961 . S
C691 C690 1.502 . S
C692 H678 0.960 . S
C692 H679 0.961 . S
C692 H680 0.959 . S
C692 C690 1.561 1_455 S
C693 C690 1.526 . S
C693 C694 1.396 . S
C693 C698 1.390 . S
C694 C688 1.465 . S
C694 C693 1.396 . S
C694 C695 1.399 . S
C695 H681 0.929 . S
C695 C694 1.399 . S
C695 C696 1.385 . S
C696 H682 0.931 . S
C696 C695 1.385 . S
C696 C697 1.389 . S
C697 C696 1.389 . S
C697 C698 1.387 . S
C698 H683 0.930 . S
C698 C693 1.390 . S
C698 C697 1.387 . S
H699 C711 0.930 . S
H700 C713 0.930 . S
H701 C714 0.930 1_545 S
H702 C718 0.959 . S
H703 C718 0.959 . S
H704 C718 0.961 . S
H705 C719 0.960 . S
H706 C719 0.961 . S
H707 C719 0.959 . S
H708 C722 0.929 . S
H709 C723 0.931 . S
H710 C725 0.930 . S
C711 H699 0.930 . S
C711 C712 1.399 . S
C711 C716 1.399 . S
C712 C711 1.399 . S
C712 C713 1.376 1_565 S
C713 H700 0.930 . S
C713 C712 1.376 1_545 S
C713 C714 1.388 1_545 S
C714 H701 0.930 1_565 S
C714 C713 1.388 1_565 S
C714 C715 1.390 . S
C715 C714 1.390 . S
C715 C716 1.394 . S
C715 C721 1.465 . S
C716 C711 1.399 . S
C716 C715 1.394 . S
C716 C717 1.516 . S
C717 C716 1.516 . S
C717 C718 1.502 . S
C717 C719 1.561 . S
C717 C720 1.526 . S
C718 H702 0.959 . S
C718 H703 0.959 . S
C718 H704 0.961 . S
C718 C717 1.502 . S
C719 H705 0.960 . S
C719 H706 0.961 . S
C719 H707 0.959 . S
C719 C717 1.561 . S
C720 C717 1.526 . S
C720 C721 1.396 . S
C720 C725 1.390 . S
C721 C715 1.465 . S
C721 C720 1.396 . S
C721 C722 1.399 . S
C722 H708 0.929 . S
C722 C721 1.399 . S
C722 C723 1.385 . S
C723 H709 0.931 . S
C723 C722 1.385 . S
C723 C724 1.389 . S
C724 C723 1.389 . S
C724 C725 1.387 . S
C725 H710 0.930 . S
C725 C720 1.390 . S
C725 C724 1.387 . S
C253 C169 1.143 . S
C265 C15 1.125 . S
C280 C209 1.124 . S
C292 C55 1.144 . S
C307 C9 1.147 . S
C319 C95 1.155 . S
C334 C49 1.157 . S
C346 C135 1.143 . S
C361 C89 1.157 . S
C373 C175 1.142 . S
C388 C129 1.132 . S
C400 C215 1.129 . S
C415 C18 0.950 . S
C427 C138 0.859 . S
C442 C178 0.958 . S
C454 C58 0.848 . S
C469 C218 0.964 . S
C481 C98 0.840 . S
C496 C88 1.072 . S
C508 C208 1.068 . S
C523 C8 1.072 . S
C535 C128 1.070 . S
C550 C168 1.072 . S
C562 C48 1.069 . S
C577 C219 1.192 . S
C589 C5 1.204 . S
C604 C45 1.196 1_455 S
C616 C19 1.182 . S
C631 C85 1.155 1_545 S
C643 C59 1.181 . S
C658 C99 1.188 . S
C670 C125 1.134 . S
C685 C165 1.134 1_655 S
C697 C139 1.187 . S
C712 C205 1.136 1_565 S
C724 C179 1.197 . S
