# Generated by pormake.
# Topology unj, (4)-cn, num edge types: 1
# Building blocks:
#     Node 0, Type 0, BuildingBlock: UXUYUI_clean_sbu_0, # of connection points: 4
#     Node 1, Type 0, BuildingBlock: UXUYUI_clean_sbu_0, # of connection points: 4
#     Node 2, Type 0, BuildingBlock: UXUYUI_clean_sbu_0, # of connection points: 4
#     Node 3, Type 0, BuildingBlock: UXUYUI_clean_sbu_0, # of connection points: 4
#     Node 4, Type 0, BuildingBlock: UXUYUI_clean_sbu_0, # of connection points: 4
#     Node 5, Type 0, BuildingBlock: UXUYUI_clean_sbu_0, # of connection points: 4
#     Edge 6, Type (0, 0), BuildingBlock: EZIPEK_clean_linker_0, # of connection points: 2
#     Edge 7, Type (0, 0), BuildingBlock: EZIPEK_clean_linker_0, # of connection points: 2
#     Edge 8, Type (0, 0), BuildingBlock: EZIPEK_clean_linker_0, # of connection points: 2
#     Edge 9, Type (0, 0), BuildingBlock: EZIPEK_clean_linker_0, # of connection points: 2
#     Edge 10, Type (0, 0), BuildingBlock: EZIPEK_clean_linker_0, # of connection points: 2
#     Edge 11, Type (0, 0), BuildingBlock: EZIPEK_clean_linker_0, # of connection points: 2
#     Edge 12, Type (0, 0), BuildingBlock: EZIPEK_clean_linker_0, # of connection points: 2
#     Edge 13, Type (0, 0), BuildingBlock: EZIPEK_clean_linker_0, # of connection points: 2
#     Edge 14, Type (0, 0), BuildingBlock: EZIPEK_clean_linker_0, # of connection points: 2
#     Edge 15, Type (0, 0), BuildingBlock: EZIPEK_clean_linker_0, # of connection points: 2
#     Edge 16, Type (0, 0), BuildingBlock: EZIPEK_clean_linker_0, # of connection points: 2
#     Edge 17, Type (0, 0), BuildingBlock: EZIPEK_clean_linker_0, # of connection points: 2
# Relax obj value: 0.030
# Max RMSD: 0.052
# Mean RMSD: 0.052
data_MOF--net-unj--node1-UXUYUI_clean_sbu_0--edge1-EZIPEK_clean_linker_0
_symmetry_space_group_name_H-M    P1
_symmetry_Int_Tables_number       1
_symmetry_cell_setting            triclinic
loop_
_symmetry_equiv_pos_as_xyz
'x, y, z'
_cell_length_a     41.673403
_cell_length_b     41.733813
_cell_length_c     40.028502
_cell_angle_alpha  89.967451
_cell_angle_beta   90.071403
_cell_angle_gamma 120.0201
loop_
_atom_site_label
_atom_site_type_symbol
_atom_site_fract_x
_atom_site_fract_y
_atom_site_fract_z
_atom_type_partial_charge
Li0 Li 0.45459 0.20265 0.58105 0.0
Li1 Li 0.50488 0.24175 0.62246 0.0
Li2 Li 0.45782 0.2575 0.60503 0.0
Li3 Li 0.50462 0.26639 0.56669 0.0
C4 C 0.42069 0.20531 0.64872 0.0
N5 N 0.36159 0.19506 0.6877 0.0
C6 C 0.42688 0.2257 0.67811 0.0
C7 C 0.38443 0.17981 0.63911 0.0
C8 C 0.39663 0.22012 0.69746 0.0
C9 C 0.35493 0.17495 0.6592 0.0
C10 C 0.51712 0.19464 0.57983 0.0
C11 C 0.54464 0.16066 0.55674 0.0
N12 N 0.53068 0.13633 0.5826 0.0
C13 C 0.50303 0.16931 0.60618 0.0
C14 C 0.53807 0.19033 0.55488 0.0
C15 C 0.51021 0.14002 0.60714 0.0
C16 C 0.42533 0.14851 0.53031 0.0
N17 N 0.4265 0.15333 0.56399 0.0
C18 C 0.39101 0.08786 0.57255 0.0
C19 C 0.41004 0.12394 0.58517 0.0
C20 C 0.38944 0.08219 0.53793 0.0
C21 C 0.4068 0.11291 0.51664 0.0
H22 H 0.43913 0.17238 0.51412 0.0
H23 H 0.41211 0.12849 0.61187 0.0
C24 C 0.52269 0.22975 0.68846 0.0
N25 N 0.53607 0.24044 0.65698 0.0
C26 C 0.54556 0.22919 0.71376 0.0
C27 C 0.59532 0.2497 0.67362 0.0
C28 C 0.57153 0.25 0.64911 0.0
C29 C 0.58233 0.2394 0.70637 0.0
H30 H 0.49425 0.22158 0.69395 0.0
H31 H 0.58132 0.25797 0.62378 0.0
C32 C 0.42057 0.24401 0.54703 0.0
N33 N 0.35903 0.24763 0.5268 0.0
C34 C 0.42362 0.27822 0.53984 0.0
C35 C 0.38627 0.21162 0.54366 0.0
C36 C 0.39216 0.27947 0.52976 0.0
C37 C 0.35549 0.21403 0.53343 0.0
C38 C 0.53884 0.32565 0.60327 0.0
C39 C 0.53038 0.34914 0.58519 0.0
C40 C 0.57551 0.33783 0.61251 0.0
C41 C 0.55892 0.38427 0.5761 0.0
C42 C 0.60327 0.37318 0.60301 0.0
N43 N 0.59448 0.39544 0.5851 0.0
C44 C 0.44808 0.31123 0.63948 0.0
C45 C 0.39172 0.26252 0.61797 0.0
C46 C 0.42957 0.32831 0.65312 0.0
N47 N 0.42914 0.27905 0.62203 0.0
C48 C 0.37214 0.27882 0.63095 0.0
C49 C 0.39118 0.31212 0.64875 0.0
H50 H 0.47761 0.32354 0.64312 0.0
H51 H 0.37688 0.23649 0.60492 0.0
C52 C 0.52239 0.30656 0.50569 0.0
N53 N 0.53663 0.29623 0.53139 0.0
C54 C 0.54551 0.32933 0.48026 0.0
C55 C 0.59749 0.3301 0.50798 0.0
C56 C 0.57332 0.30712 0.53279 0.0
C57 C 0.5835 0.34144 0.48145 0.0
H58 H 0.49312 0.29724 0.50499 0.0
H59 H 0.58384 0.29826 0.5534 0.0
O60 O 0.4499 0.21092 0.62905 0.0
O61 O 0.50991 0.22316 0.57797 0.0
O62 O 0.45106 0.24216 0.5568 0.0
O63 O 0.51139 0.29075 0.61151 0.0
H64 H 0.45468 0.24622 0.68552 0.0
H65 H 0.37902 0.16436 0.61611 0.0
H66 H 0.401 0.23591 0.72012 0.0
H67 H 0.32673 0.15541 0.652 0.0
H68 H 0.56078 0.15695 0.53759 0.0
H69 H 0.48652 0.17207 0.62558 0.0
H70 H 0.54903 0.20966 0.53426 0.0
H71 H 0.49943 0.12018 0.62735 0.0
H72 H 0.37811 0.06461 0.58957 0.0
H73 H 0.40618 0.1093 0.48981 0.0
H74 H 0.53475 0.22091 0.73882 0.0
H75 H 0.62357 0.25759 0.6672 0.0
H76 H 0.4499 0.30356 0.54229 0.0
H77 H 0.38332 0.18491 0.54918 0.0
H78 H 0.39407 0.30577 0.52435 0.0
H79 H 0.32875 0.18921 0.53087 0.0
H80 H 0.50212 0.34019 0.57798 0.0
H81 H 0.58252 0.32011 0.62666 0.0
H82 H 0.55283 0.4026 0.56184 0.0
H83 H 0.63181 0.38288 0.6098 0.0
H84 H 0.44501 0.35391 0.66693 0.0
H85 H 0.34244 0.2655 0.62734 0.0
H86 H 0.53398 0.3376 0.45999 0.0
H87 H 0.62673 0.33899 0.50944 0.0
Li88 Li 0.27478 0.50307 0.78888 0.0
Li89 Li 0.26413 0.45351 0.74927 0.0
Li90 Li 0.24841 0.50328 0.73467 0.0
Li91 Li 0.20923 0.45336 0.77396 0.0
C92 C 0.33416 0.53362 0.74878 0.0
N93 N 0.40779 0.58514 0.76026 0.0
C94 C 0.3607 0.52252 0.75032 0.0
C95 C 0.34524 0.57105 0.75245 0.0
C96 C 0.39775 0.54895 0.75626 0.0
C97 C 0.38252 0.59664 0.75844 0.0
C98 C 0.24858 0.41873 0.81187 0.0
C99 C 0.21938 0.35278 0.82037 0.0
N100 N 0.24733 0.35822 0.8414 0.0
C101 C 0.27672 0.42369 0.83395 0.0
C102 C 0.21943 0.38302 0.80534 0.0
C103 C 0.27571 0.39275 0.84847 0.0
C104 C 0.29813 0.55696 0.8405 0.0
N105 N 0.30661 0.53356 0.82419 0.0
C106 C 0.36146 0.55451 0.85722 0.0
C107 C 0.33738 0.53171 0.83227 0.0
C108 C 0.3535 0.57912 0.8741 0.0
C109 C 0.32138 0.58018 0.86571 0.0
H110 H 0.27332 0.55764 0.83394 0.0
H111 H 0.34337 0.51266 0.8192 0.0
C112 C 0.27558 0.41099 0.70028 0.0
N113 N 0.2839 0.42382 0.73219 0.0
C114 C 0.29116 0.39116 0.68632 0.0
C115 C 0.32407 0.39854 0.73807 0.0
C116 C 0.3076 0.41791 0.75113 0.0
C117 C 0.31599 0.3851 0.70524 0.0
H118 H 0.25734 0.41671 0.68543 0.0
H119 H 0.31477 0.42933 0.77601 0.0
C120 C 0.21936 0.53345 0.77495 0.0
N121 N 0.19723 0.58494 0.76393 0.0
C122 C 0.18169 0.52233 0.77367 0.0
C123 C 0.24575 0.57089 0.77124 0.0
C124 C 0.17105 0.54874 0.76795 0.0
C125 C 0.23403 0.59646 0.76548 0.0
C126 C 0.19027 0.41939 0.71087 0.0
C127 C 0.16721 0.42489 0.6891 0.0
C128 C 0.18362 0.38353 0.71656 0.0
C129 C 0.1373 0.39431 0.67405 0.0
C130 C 0.15347 0.35367 0.70102 0.0
N131 N 0.13108 0.35963 0.68031 0.0
C132 C 0.27944 0.55653 0.68275 0.0
C133 C 0.21513 0.53265 0.69122 0.0
C134 C 0.27981 0.57949 0.65713 0.0
N135 N 0.24746 0.53389 0.69934 0.0
C136 C 0.21425 0.5552 0.66584 0.0
C137 C 0.24691 0.57894 0.64856 0.0
H138 H 0.30468 0.5567 0.68932 0.0
H139 H 0.18999 0.51417 0.7045 0.0
C140 C 0.15464 0.40964 0.82229 0.0
N141 N 0.15954 0.42333 0.79067 0.0
C142 C 0.11903 0.38942 0.83587 0.0
C143 C 0.09409 0.39821 0.78439 0.0
C144 C 0.13012 0.41792 0.77168 0.0
C145 C 0.08833 0.38389 0.81691 0.0
H146 H 0.17844 0.41494 0.83721 0.0
H147 H 0.13465 0.42999 0.74707 0.0
O148 O 0.2976 0.50799 0.74369 0.0
O149 O 0.24923 0.44875 0.79733 0.0
O150 O 0.2303 0.50784 0.77991 0.0
O151 O 0.21964 0.44905 0.72589 0.0
H152 H 0.35282 0.49382 0.74715 0.0
H153 H 0.32528 0.58027 0.75076 0.0
H154 H 0.41851 0.54067 0.75775 0.0
H155 H 0.39138 0.62563 0.76163 0.0
H156 H 0.19703 0.325 0.81544 0.0
H157 H 0.29923 0.45111 0.83968 0.0
H158 H 0.19682 0.37869 0.78922 0.0
H159 H 0.29747 0.39619 0.86539 0.0
H160 H 0.38602 0.55303 0.8633 0.0
H161 H 0.3145 0.59883 0.87846 0.0
H162 H 0.28456 0.38133 0.66081 0.0
H163 H 0.34341 0.39461 0.75319 0.0
H164 H 0.16085 0.49363 0.77691 0.0
H165 H 0.27496 0.58012 0.77273 0.0
H166 H 0.14198 0.54045 0.76668 0.0
H167 H 0.2542 0.62547 0.76228 0.0
H168 H 0.17218 0.45244 0.68402 0.0
H169 H 0.20182 0.3788 0.73242 0.0
H170 H 0.11907 0.39817 0.65736 0.0
H171 H 0.14798 0.32578 0.7053 0.0
H172 H 0.30541 0.59744 0.64409 0.0
H173 H 0.18841 0.55413 0.65968 0.0
H174 H 0.11551 0.37891 0.86115 0.0
H175 H 0.07099 0.39472 0.76924 0.0
Li176 Li 0.81832 0.2581 0.91594 0.0
Li177 Li 0.78147 0.26819 0.95344 0.0
Li178 Li 0.76715 0.20394 0.94243 0.0
Li179 Li 0.75547 0.24355 0.89853 0.0
C180 C 0.84497 0.25039 0.97393 0.0
N181 N 0.9139 0.26232 0.99282 0.0
C182 C 0.87395 0.28632 0.97999 0.0
C183 C 0.85094 0.22049 0.97779 0.0
C184 C 0.90864 0.2918 0.98937 0.0
C185 C 0.88601 0.2271 0.98734 0.0
C186 C 0.80479 0.32677 0.91387 0.0
C187 C 0.78588 0.37245 0.90779 0.0
N188 N 0.81661 0.39722 0.92488 0.0
C189 C 0.8364 0.35281 0.93102 0.0
C190 C 0.77944 0.3367 0.90191 0.0
C191 C 0.84178 0.38823 0.9365 0.0
C192 C 0.8822 0.31089 0.88141 0.0
N193 N 0.86796 0.27809 0.89797 0.0
C194 C 0.92376 0.27622 0.88829 0.0
C195 C 0.88779 0.26038 0.90112 0.0
C196 C 0.93914 0.31026 0.87157 0.0
C197 C 0.91787 0.32752 0.86793 0.0
H198 H 0.86582 0.32419 0.87854 0.0
H199 H 0.87578 0.23391 0.9135 0.0
C200 C 0.79994 0.30274 0.01723 0.0
N201 N 0.78062 0.29934 0.98874 0.0
C202 C 0.80023 0.325 0.04345 0.0
C203 C 0.76035 0.33956 1.01084 0.0
C204 C 0.76071 0.31693 0.98532 0.0
C205 C 0.78038 0.34377 0.0402 0.0
H206 H 0.81503 0.28804 0.01968 0.0
H207 H 0.74494 0.31331 0.96283 0.0
C208 C 0.7997 0.20436 0.87218 0.0
N209 N 0.8441 0.19171 0.82939 0.0
C210 C 0.81149 0.22372 0.84204 0.0
C211 C 0.81015 0.17833 0.88046 0.0
C212 C 0.83408 0.21703 0.8208 0.0
C213 C 0.83265 0.17235 0.85848 0.0
C214 C 0.70971 0.22607 0.96644 0.0
C215 C 0.71155 0.21616 0.99944 0.0
C216 C 0.68571 0.23912 0.95808 0.0
C217 C 0.68957 0.21989 0.02371 0.0
C218 C 0.6641 0.24235 0.98306 0.0
N219 N 0.66651 0.23281 0.01508 0.0
C220 C 0.75299 0.14971 0.99222 0.0
C221 C 0.72453 0.12578 0.93976 0.0
C222 C 0.73671 0.11401 1.00561 0.0
N223 N 0.7467 0.15489 0.95983 0.0
C224 C 0.70744 0.08962 0.95222 0.0
C225 C 0.71339 0.08353 0.98556 0.0
H226 H 0.77035 0.17338 1.00775 0.0
H227 H 0.71975 0.13074 0.9142 0.0
C228 C 0.73946 0.26408 0.83605 0.0
N229 N 0.72411 0.24134 0.86281 0.0
C230 C 0.71704 0.26381 0.80991 0.0
C231 C 0.66352 0.21634 0.83913 0.0
C232 C 0.68697 0.2175 0.86471 0.0
C233 C 0.67861 0.23984 0.81147 0.0
H234 H 0.76909 0.28273 0.83523 0.0
H235 H 0.67557 0.1996 0.88621 0.0
O236 O 0.81082 0.24448 0.96465 0.0
O237 O 0.79885 0.29183 0.90858 0.0
O238 O 0.7785 0.21127 0.89375 0.0
O239 O 0.73182 0.22364 0.94257 0.0
H240 H 0.86972 0.30973 0.97739 0.0
H241 H 0.82897 0.19252 0.97292 0.0
H242 H 0.93137 0.31948 0.99394 0.0
H243 H 0.8911 0.20425 0.99019 0.0
H244 H 0.76636 0.38043 0.89891 0.0
H245 H 0.85647 0.3457 0.94012 0.0
H246 H 0.75477 0.31689 0.88869 0.0
H247 H 0.86596 0.40856 0.94998 0.0
H248 H 0.93941 0.26208 0.89132 0.0
H249 H 0.9289 0.35373 0.85497 0.0
H250 H 0.81579 0.32762 0.06598 0.0
H251 H 0.74457 0.35356 1.00777 0.0
H252 H 0.80371 0.24406 0.8354 0.0
H253 H 0.80135 0.16326 0.9038 0.0
H254 H 0.84373 0.23205 0.79753 0.0
H255 H 0.84117 0.15246 0.86463 0.0
H256 H 0.7302 0.20627 1.00632 0.0
H257 H 0.6842 0.24719 0.93269 0.0
H258 H 0.69094 0.21265 0.04941 0.0
H259 H 0.64558 0.25264 0.97702 0.0
H260 H 0.74173 0.1102 0.03147 0.0
H261 H 0.68947 0.06667 0.93616 0.0
H262 H 0.72943 0.28225 0.78884 0.0
H263 H 0.63393 0.19753 0.84096 0.0
Li264 Li 0.56952 0.8133 0.08388 0.0
Li265 Li 0.52124 0.77503 0.12158 0.0
Li266 Li 0.57257 0.76076 0.10819 0.0
Li267 Li 0.52281 0.75166 0.06637 0.0
C268 C 0.60577 0.83605 0.14256 0.0
N269 N 0.66716 0.90047 0.16422 0.0
C270 C 0.60289 0.86726 0.14991 0.0
C271 C 0.63986 0.83755 0.14644 0.0
C272 C 0.63427 0.8996 0.16072 0.0
C273 C 0.67056 0.87038 0.15741 0.0
C274 C 0.49067 0.80401 0.08649 0.0
C275 C 0.42743 0.79036 0.09217 0.0
N276 N 0.43964 0.82371 0.10722 0.0
C277 C 0.50258 0.83821 0.10187 0.0
C278 C 0.45278 0.7799 0.08152 0.0
C279 C 0.47636 0.84763 0.11223 0.0
C280 C 0.58081 0.87592 0.04721 0.0
N281 N 0.59907 0.86323 0.06644 0.0
C282 C 0.65604 0.92038 0.05901 0.0
C283 C 0.63622 0.88446 0.07191 0.0
C284 C 0.63756 0.93426 0.03978 0.0
C285 C 0.59957 0.91151 0.03362 0.0
H286 H 0.55157 0.85832 0.04227 0.0
H287 H 0.65065 0.87357 0.08608 0.0
C288 C 0.50494 0.79798 0.18306 0.0
N289 N 0.48964 0.7736 0.15734 0.0
C290 C 0.48269 0.79858 0.20889 0.0
C291 C 0.42932 0.74863 0.18164 0.0
C292 C 0.45263 0.74882 0.15648 0.0
C293 C 0.44443 0.77383 0.2081 0.0
H294 H 0.53443 0.81703 0.18354 0.0
H295 H 0.44105 0.72952 0.13603 0.0
C296 C 0.60343 0.79658 0.03784 0.0
N297 N 0.65638 0.84323 0.99276 0.0
C298 C 0.59269 0.80579 1.00792 0.0
C299 C 0.64103 0.81082 0.04477 0.0
C300 C 0.61991 0.82953 0.98548 0.0
C301 C 0.66739 0.8344 0.02164 0.0
C302 C 0.49409 0.6901 0.1043 0.0
C303 C 0.50713 0.66513 0.10635 0.0
C304 C 0.45726 0.67737 0.09513 0.0
C305 C 0.48312 0.62782 0.09902 0.0
C306 C 0.43415 0.63987 0.08791 0.0
N307 N 0.44745 0.61608 0.09 0.0
C308 C 0.60206 0.73572 0.15877 0.0
C309 C 0.61879 0.72863 0.10379 0.0
C310 C 0.62114 0.71905 0.17216 0.0
N311 N 0.60123 0.74013 0.12516 0.0
C312 C 0.63819 0.71178 0.11613 0.0
C313 C 0.63928 0.70673 0.15068 0.0
H314 H 0.58757 0.74486 0.17511 0.0
H315 H 0.61725 0.73203 0.07716 0.0
C316 C 0.47251 0.73094 0.01185 0.0
N317 N 0.49461 0.72152 0.02929 0.0
C318 C 0.45026 0.70845 0.98583 0.0
C319 C 0.47504 0.66775 0.99522 0.0
C320 C 0.49696 0.69114 0.02095 0.0
C321 C 0.45112 0.67624 0.97765 0.0
H322 H 0.47204 0.75585 0.01821 0.0
H323 H 0.51541 0.68473 0.03467 0.0
O324 O 0.57535 0.80403 0.1321 0.0
O325 O 0.51595 0.7939 0.07709 0.0
O326 O 0.57726 0.77443 0.06058 0.0
O327 O 0.51733 0.72679 0.11108 0.0
H328 H 0.5768 0.86666 0.1471 0.0
H329 H 0.64273 0.81381 0.14074 0.0
H330 H 0.63246 0.92401 0.16631 0.0
H331 H 0.69713 0.87197 0.16038 0.0
H332 H 0.39802 0.77185 0.0887 0.0
H333 H 0.53174 0.8572 0.10595 0.0
H334 H 0.44294 0.75304 0.07022 0.0
H335 H 0.4852 0.87392 0.12433 0.0
H336 H 0.68547 0.93715 0.06392 0.0
H337 H 0.58459 0.92131 0.01858 0.0
H338 H 0.49511 0.81824 0.22915 0.0
H339 H 0.39985 0.72911 0.18048 0.0
H340 H 0.56365 0.79508 1.00234 0.0
H341 H 0.64975 0.8042 0.06799 0.0
H342 H 0.61206 0.83716 0.96234 0.0
H343 H 0.69661 0.84585 0.02675 0.0
H344 H 0.5355 0.67442 0.11346 0.0
H345 H 0.44689 0.69637 0.0927 0.0
H346 H 0.49286 0.60822 0.10046 0.0
H347 H 0.40571 0.62973 0.08045 0.0
H348 H 0.62139 0.71538 0.19893 0.0
H349 H 0.6518 0.70238 0.09895 0.0
H350 H 0.43229 0.71584 0.97243 0.0
H351 H 0.47645 0.64318 0.98924 0.0
Li352 Li 0.76491 0.56293 0.2494 0.0
Li353 Li 0.754 0.51352 0.28943 0.0
Li354 Li 0.81896 0.56351 0.27352 0.0
Li355 Li 0.78079 0.51346 0.23386 0.0
C356 C 0.77097 0.59344 0.30966 0.0
N357 N 0.75294 0.64476 0.33298 0.0
C358 C 0.73989 0.5822 0.32998 0.0
C359 C 0.7932 0.63086 0.30164 0.0
C360 C 0.73117 0.60854 0.34143 0.0
C361 C 0.78353 0.65636 0.31352 0.0
C362 C 0.69654 0.47867 0.24202 0.0
C363 C 0.65506 0.41288 0.23671 0.0
N364 N 0.62562 0.4185 0.23746 0.0
C365 C 0.66587 0.48382 0.2422 0.0
C366 C 0.69109 0.44294 0.2388 0.0
C367 C 0.63025 0.45305 0.24009 0.0
C368 C 0.75972 0.6137 0.2051 0.0
N369 N 0.74448 0.59218 0.23262 0.0
C370 C 0.69757 0.60929 0.23483 0.0
C371 C 0.71403 0.58976 0.24759 0.0
C372 C 0.71252 0.63134 0.20632 0.0
C373 C 0.7441 0.6337 0.19147 0.0
H374 H 0.78364 0.61487 0.19339 0.0
H375 H 0.7021 0.57215 0.26915 0.0
C376 C 0.73759 0.46931 0.34778 0.0
N377 N 0.72303 0.48288 0.32513 0.0
C378 C 0.7157 0.44631 0.3737 0.0
C379 C 0.6646 0.45279 0.35341 0.0
C380 C 0.68739 0.47548 0.32777 0.0
C381 C 0.67876 0.4378 0.37651 0.0
H382 H 0.76622 0.47627 0.34568 0.0
H383 H 0.67674 0.4875 0.3102 0.0
C384 C 0.84312 0.59324 0.21311 0.0
N385 N 0.91264 0.64429 0.18973 0.0
C386 C 0.86339 0.58164 0.19386 0.0
C387 C 0.85795 0.63086 0.22001 0.0
C388 C 0.89854 0.60786 0.18237 0.0
C389 C 0.89322 0.65622 0.20812 0.0
C390 C 0.80373 0.47943 0.28173 0.0
C391 C 0.83954 0.48459 0.28304 0.0
C392 C 0.77325 0.44364 0.2838 0.0
C393 C 0.84424 0.45378 0.28554 0.0
C394 C 0.77907 0.41354 0.28632 0.0
N395 N 0.81415 0.41918 0.28707 0.0
C396 C 0.87507 0.61607 0.31677 0.0
C397 C 0.89663 0.59036 0.27581 0.0
C398 C 0.91072 0.63646 0.33033 0.0
N399 N 0.86868 0.59348 0.29006 0.0
C400 C 0.93264 0.61019 0.28856 0.0
C401 C 0.93984 0.6333 0.3163 0.0
H402 H 0.85237 0.61775 0.32797 0.0
H403 H 0.89085 0.5719 0.25489 0.0
C404 C 0.75396 0.46994 0.17511 0.0
N405 N 0.78146 0.48279 0.1984 0.0
C406 C 0.75315 0.44716 0.14913 0.0
C407 C 0.80958 0.4521 0.17089 0.0
C408 C 0.80924 0.47468 0.1965 0.0
C409 C 0.78117 0.438 0.147 0.0
H410 H 0.73259 0.47736 0.17674 0.0
H411 H 0.83143 0.4861 0.2146 0.0
O412 O 0.77965 0.56797 0.29783 0.0
O413 O 0.73165 0.50855 0.24421 0.0
O414 O 0.8089 0.5679 0.22504 0.0
O415 O 0.79866 0.50933 0.27907 0.0
H416 H 0.72257 0.55343 0.33669 0.0
H417 H 0.81761 0.64011 0.28635 0.0
H418 H 0.70706 0.60019 0.357 0.0
H419 H 0.80035 0.68537 0.30731 0.0
H420 H 0.6505 0.38509 0.23431 0.0
H421 H 0.66945 0.51123 0.24419 0.0
H422 H 0.7144 0.43843 0.23741 0.0
H423 H 0.60629 0.45665 0.2405 0.0
H424 H 0.67311 0.60681 0.24676 0.0
H425 H 0.75615 0.65039 0.16933 0.0
H426 H 0.72743 0.43532 0.39138 0.0
H427 H 0.63623 0.44694 0.3552 0.0
H428 H 0.85225 0.55269 0.18805 0.0
H429 H 0.84243 0.64038 0.23442 0.0
H430 H 0.91464 0.59923 0.16764 0.0
H431 H 0.90514 0.6854 0.21348 0.0
H432 H 0.86349 0.51203 0.28196 0.0
H433 H 0.7454 0.43912 0.28401 0.0
H434 H 0.87181 0.4574 0.28631 0.0
H435 H 0.75568 0.38571 0.28786 0.0
H436 H 0.91544 0.65399 0.35186 0.0
H437 H 0.95454 0.60707 0.27728 0.0
H438 H 0.73101 0.43687 0.13085 0.0
H439 H 0.83178 0.44575 0.16964 0.0
Li440 Li 0.20912 0.75741 0.41669 0.0
Li441 Li 0.24646 0.74831 0.45435 0.0
Li442 Li 0.26056 0.81216 0.44224 0.0
Li443 Li 0.27181 0.77162 0.39909 0.0
C444 C 0.18375 0.76871 0.47356 0.0
N445 N 0.11632 0.7618 0.49052 0.0
C446 C 0.15309 0.73376 0.47964 0.0
C447 C 0.18021 0.80018 0.47644 0.0
C448 C 0.1192 0.73083 0.48803 0.0
C449 C 0.14587 0.7961 0.48502 0.0
C450 C 0.22219 0.68873 0.41745 0.0
C451 C 0.24079 0.64254 0.41574 0.0
N452 N 0.20996 0.61906 0.43336 0.0
C453 C 0.19051 0.66401 0.43527 0.0
C454 C 0.24746 0.67788 0.40742 0.0
C455 C 0.18491 0.62897 0.44319 0.0
C456 C 0.14386 0.70359 0.3842 0.0
N457 N 0.15937 0.73751 0.39891 0.0
C458 C 0.10495 0.74132 0.38714 0.0
C459 C 0.14078 0.75661 0.40026 0.0
C460 C 0.08833 0.7062 0.3723 0.0
C461 C 0.10815 0.68729 0.37077 0.0
H462 H 0.15927 0.68915 0.38273 0.0
H463 H 0.15372 0.78378 0.41141 0.0
C464 C 0.22593 0.71235 0.51745 0.0
N465 N 0.2476 0.71785 0.4902 0.0
C466 C 0.22534 0.69003 0.54378 0.0
C467 C 0.26981 0.67986 0.51388 0.0
C468 C 0.26948 0.70227 0.48812 0.0
C469 C 0.24743 0.67349 0.542 0.0
H470 H 0.20905 0.72525 0.51874 0.0
H471 H 0.28663 0.7071 0.4664 0.0
C472 C 0.22807 0.80849 0.36974 0.0
N473 N 0.18482 0.81684 0.3221 0.0
C474 C 0.21735 0.78661 0.34096 0.0
C475 C 0.21713 0.83485 0.3742 0.0
C476 C 0.19535 0.79115 0.31721 0.0
C477 C 0.19522 0.83863 0.34982 0.0
C478 C 0.3197 0.79039 0.46487 0.0
C479 C 0.31922 0.79914 0.49849 0.0
C480 C 0.34441 0.77912 0.45408 0.0
C481 C 0.34325 0.79604 0.52091 0.0
C482 C 0.36808 0.77649 0.47726 0.0
N483 N 0.36697 0.78488 0.50992 0.0
C484 C 0.28078 0.86683 0.49244 0.0
C485 C 0.2974 0.89057 0.43742 0.0
C486 C 0.29765 0.90266 0.50558 0.0
N487 N 0.28116 0.86149 0.45894 0.0
C488 C 0.31436 0.92689 0.44948 0.0
C489 C 0.3148 0.93309 0.48395 0.0
H490 H 0.26764 0.84321 0.50898 0.0
H491 H 0.29757 0.88552 0.41094 0.0
C492 C 0.28874 0.74676 0.33943 0.0
N493 N 0.30291 0.77337 0.36345 0.0
C494 C 0.31136 0.74683 0.31365 0.0
C495 C 0.36247 0.80225 0.33729 0.0
C496 C 0.3389 0.80103 0.36272 0.0
C497 C 0.34868 0.77475 0.31259 0.0
H498 H 0.25994 0.72525 0.34053 0.0
H499 H 0.34934 0.82192 0.38208 0.0
O500 O 0.21712 0.77214 0.46514 0.0
O501 O 0.22845 0.72339 0.40995 0.0
O502 O 0.24869 0.8037 0.39368 0.0
O503 O 0.29589 0.79253 0.44267 0.0
H504 H 0.15539 0.70915 0.47769 0.0
H505 H 0.20357 0.82742 0.4717 0.0
H506 H 0.09518 0.70394 0.49254 0.0
H507 H 0.14266 0.82019 0.48714 0.0
H508 H 0.26026 0.63387 0.40837 0.0
H509 H 0.17062 0.67192 0.44311 0.0
H510 H 0.2723 0.69673 0.39391 0.0
H511 H 0.16067 0.60968 0.4572 0.0
H512 H 0.09035 0.75665 0.38855 0.0
H513 H 0.09608 0.66019 0.3593 0.0
H514 H 0.20783 0.68564 0.56526 0.0
H515 H 0.28721 0.6675 0.51186 0.0
H516 H 0.2255 0.76598 0.33726 0.0
H517 H 0.22503 0.85182 0.39648 0.0
H518 H 0.18654 0.77419 0.29495 0.0
H519 H 0.18632 0.85874 0.35301 0.0
H520 H 0.30006 0.80761 0.50726 0.0
H521 H 0.34496 0.77202 0.42818 0.0
H522 H 0.34294 0.80239 0.54707 0.0
H523 H 0.3872 0.76761 0.46932 0.0
H524 H 0.29756 0.90665 0.53231 0.0
H525 H 0.32749 0.9499 0.43222 0.0
H526 H 0.3 0.72529 0.29483 0.0
H527 H 0.39119 0.82415 0.33703 0.0
C528 C 0.33241 0.02722 0.51457 0.0
C529 C 0.37028 0.04402 0.52397 0.0
C530 C 0.3724 0.98912 0.50501 0.0
C531 C 0.33395 0.97144 0.49753 0.0
N532 N 0.27607 0.9713 0.49816 0.0
N533 N 0.42574 0.0404 0.53177 0.0
C534 C 0.31358 0.98987 0.50313 0.0
C535 C 0.39013 0.02479 0.52018 0.0
N536 N 0.31472 0.04734 0.51596 0.0
N537 N 0.39206 0.972 0.49696 0.0
H538 H 0.44007 0.06697 0.54191 0.0
H539 H 0.44046 0.02637 0.53338 0.0
H540 H 0.37981 0.94538 0.48697 0.0
H541 H 0.42082 0.98486 0.49811 0.0
H542 H 0.28851 0.03843 0.50601 0.0
H543 H 0.32723 0.07429 0.52525 0.0
H544 H 0.2588 0.98141 0.5053 0.0
H545 H 0.26159 0.94443 0.48869 0.0
C546 C 0.34668 0.31404 0.69024 0.0
C547 C 0.37108 0.33022 0.66274 0.0
C548 C 0.36162 0.38368 0.66492 0.0
C549 C 0.33462 0.36593 0.69032 0.0
N550 N 0.2965 0.31132 0.72308 0.0
N551 N 0.39626 0.37682 0.61964 0.0
C552 C 0.32571 0.33023 0.70183 0.0
C553 C 0.37696 0.36403 0.64883 0.0
N554 N 0.34453 0.284 0.7061 0.0
N555 N 0.37373 0.41984 0.65703 0.0
H556 H 0.4076 0.36303 0.6069 0.0
H557 H 0.39806 0.39919 0.60644 0.0
H558 H 0.36361 0.43542 0.66852 0.0
H559 H 0.3962 0.43541 0.64135 0.0
H560 H 0.33034 0.27346 0.72845 0.0
H561 H 0.35962 0.27151 0.69854 0.0
H562 H 0.2862 0.2837 0.72955 0.0
H563 H 0.28037 0.32217 0.73194 0.0
C564 C 0.98605 0.31287 0.83021 0.0
C565 C 0.97766 0.32825 0.85822 0.0
C566 C 0.04095 0.38136 0.8575 0.0
C567 C 0.05031 0.36437 0.83149 0.0
N568 N 0.03374 0.31079 0.7972 0.0
N569 N 0.99902 0.37313 0.90281 0.0
C570 C 0.0234 0.32916 0.81902 0.0
C571 C 1.0057 0.36135 0.87313 0.0
N572 N 0.95818 0.28357 0.81352 0.0
N573 N 0.06514 0.41718 0.86639 0.0
H574 H 0.9737 0.35899 0.91529 0.0
H575 H 0.01958 0.39488 0.91662 0.0
H576 H 0.09102 0.43305 0.85523 0.0
H577 H 0.05819 0.43227 0.88259 0.0
H578 H 0.96204 0.27374 0.79085 0.0
H579 H 0.93046 0.27103 0.82077 0.0
H580 H 0.01627 0.28345 0.78997 0.0
H581 H 0.06087 0.32171 0.78864 0.0
C582 C 0.65026 0.99988 0.03947 0.0
C583 C 0.65773 0.97271 0.02631 0.0
C584 C 0.7047 0.0193 0.98907 0.0
C585 C 0.69439 0.04535 0.99972 0.0
N586 N 0.65259 0.05844 0.03067 0.0
N587 N 0.68757 0.9547 0.98476 0.0
C588 C 0.66584 0.0351 0.02375 0.0
C589 C 0.68377 0.9819 1.00004 0.0
N590 N 0.62919 0.99246 0.06765 0.0
N591 N 0.73522 0.03055 0.9693 0.0
H592 H 0.6726 0.92698 0.99192 0.0
H593 H 0.70312 0.95903 0.96315 0.0
H594 H 0.75139 0.05773 0.96096 0.0
H595 H 0.74643 0.0138 0.96365 0.0
H596 H 0.62607 0.01246 0.08044 0.0
H597 H 0.61759 0.96713 0.08011 0.0
H598 H 0.62914 0.05082 0.0452 0.0
H599 H 0.6629 0.08429 0.01941 0.0
C600 C 0.66096 0.63058 0.17296 0.0
C601 C 0.69429 0.65093 0.19145 0.0
C602 C 0.69354 0.70843 0.18019 0.0
C603 C 0.65851 0.68758 0.16438 0.0
N604 N 0.60597 0.62835 0.15004 0.0
N605 N 0.73986 0.7082 0.21687 0.0
C606 C 0.64142 0.6485 0.16191 0.0
C607 C 0.70997 0.68963 0.19619 0.0
N608 N 0.64854 0.59434 0.16513 0.0
N609 N 0.71154 0.74623 0.17911 0.0
H610 H 0.75279 0.69543 0.22879 0.0
H611 H 0.75009 0.73551 0.22432 0.0
H612 H 0.70025 0.76091 0.16782 0.0
H613 H 0.73882 0.76303 0.18695 0.0
H614 H 0.62676 0.57915 0.14865 0.0
H615 H 0.66199 0.58021 0.17287 0.0
H616 H 0.59046 0.59959 0.15113 0.0
H617 H 0.5908 0.64043 0.14153 0.0
C618 C 0.02037 0.65993 0.37665 0.0
C619 C 0.05 0.68886 0.35862 0.0
C620 C 1.00649 0.68447 0.31496 0.0
C621 C 0.97763 0.65308 0.33132 0.0
N622 N 0.95793 0.60733 0.3751 0.0
N623 N 0.0727 0.72591 0.30871 0.0
C624 C 0.98476 0.63987 0.36153 0.0
C625 C 0.04345 0.70048 0.32726 0.0
N626 N 0.02607 0.65225 0.40861 0.0
N627 N 0.99837 0.69951 0.28817 0.0
H628 H 0.10009 0.7385 0.31701 0.0
H629 H 0.07024 0.73248 0.2841 0.0
H630 H 0.97166 0.6884 0.27842 0.0
H631 H 0.01735 0.72462 0.27732 0.0
H632 H 1.00475 0.63426 0.42437 0.0
H633 H 0.05178 0.6663 0.42049 0.0
H634 H 0.96275 0.5941 0.3949 0.0
H635 H 0.93148 0.59182 0.36485 0.0
C636 C 0.62711 0.40509 0.45933 0.0
C637 C 0.6086 0.36613 0.45488 0.0
C638 C 0.63458 0.37424 0.39844 0.0
C639 C 0.65481 0.41309 0.40365 0.0
N640 N 0.67454 0.46568 0.44001 0.0
N641 N 0.59808 0.31298 0.42265 0.0
C642 C 0.65227 0.42858 0.43441 0.0
C643 C 0.6133 0.35051 0.42509 0.0
N644 N 0.61981 0.41959 0.48701 0.0
N645 N 0.63503 0.36015 0.3677 0.0
H646 H 0.58167 0.29473 0.44136 0.0
H647 H 0.60376 0.29996 0.40327 0.0
H648 H 0.65108 0.37657 0.34788 0.0
H649 H 0.61768 0.33263 0.36099 0.0
H650 H 0.62901 0.44763 0.4901 0.0
H651 H 0.60232 0.40324 0.50617 0.0
H652 H 0.67719 0.4782 0.46311 0.0
H653 H 0.69256 0.48385 0.42201 0.0
C654 C 0.22829 0.61032 0.56482 0.0
C655 C 0.24695 0.64925 0.56947 0.0
C656 C 0.2623 0.64167 0.62706 0.0
C657 C 0.24667 0.60313 0.62136 0.0
N658 N 0.21988 0.55129 0.58341 0.0
N659 N 0.28675 0.70278 0.60283 0.0
C660 C 0.23102 0.58756 0.58983 0.0
C661 C 0.26535 0.66518 0.60003 0.0
N662 N 0.20704 0.59501 0.53693 0.0
N663 N 0.2732 0.65562 0.65856 0.0
H664 H 0.28962 0.72091 0.58359 0.0
H665 H 0.30409 0.71591 0.62311 0.0
H666 H 0.27142 0.63927 0.67898 0.0
H667 H 0.28105 0.68273 0.66506 0.0
H668 H 0.18956 0.56666 0.53379 0.0
H669 H 0.20442 0.61078 0.51803 0.0
H670 H 0.21209 0.5394 0.55979 0.0
H671 H 0.22133 0.5337 0.60111 0.0
C672 C 0.64563 0.26873 0.78268 0.0
C673 C 0.65409 0.23977 0.78436 0.0
C674 C 0.61345 0.20924 0.73627 0.0
C675 C 0.6073 0.23961 0.73307 0.0
N676 N 0.6216 0.30088 0.74967 0.0
N677 N 0.65086 0.18534 0.76018 0.0
C678 C 0.62457 0.27013 0.75529 0.0
C679 C 0.6393 0.21077 0.76043 0.0
N680 N 0.65671 0.29421 0.80789 0.0
N681 N 0.59382 0.17852 0.71681 0.0
H682 H 0.66954 0.18545 0.77761 0.0
H683 H 0.64432 0.16594 0.74125 0.0
H684 H 0.57514 0.17666 0.69849 0.0
H685 H 0.59386 0.15383 0.72044 0.0
H686 H 0.64798 0.31352 0.81009 0.0
H687 H 0.67236 0.29424 0.82826 0.0
H688 H 0.63689 0.32563 0.76264 0.0
H689 H 0.60599 0.30272 0.73015 0.0
C690 C 0.37001 0.59396 0.93471 0.0
C691 C 0.3788 0.60379 0.90063 0.0
C692 C 0.43671 0.65934 0.91702 0.0
C693 C 0.42642 0.65107 0.95108 0.0
N694 N 0.38141 0.61352 0.9927 0.0
N695 N 0.41766 0.64772 0.85887 0.0
C696 C 0.39254 0.61915 0.96004 0.0
C697 C 0.41143 0.63702 0.89163 0.0
N698 N 0.34068 0.56007 0.94283 0.0
N699 N 0.47107 0.688 0.90903 0.0
H700 H 0.40008 0.63181 0.83954 0.0
H701 H 0.43867 0.67353 0.85097 0.0
H702 H 0.49007 0.70524 0.92696 0.0
H703 H 0.48193 0.69306 0.88496 0.0
H704 H 0.3352 0.54948 0.96701 0.0
H705 H 0.32327 0.54111 0.92496 0.0
H706 H 0.35519 0.59317 1.00045 0.0
H707 H 0.39744 0.63101 0.01202 0.0
C708 C 0.75579 0.35202 0.09485 0.0
C709 C 0.78057 0.3679 0.06758 0.0
C710 C 0.80364 0.42996 0.09109 0.0
C711 C 0.78091 0.41383 0.11959 0.0
N712 N 0.73911 0.35963 0.15118 0.0
N713 N 0.83144 0.42096 0.04131 0.0
C714 C 0.75798 0.37485 0.12218 0.0
C715 C 0.80546 0.40663 0.06613 0.0
N716 N 0.72954 0.31527 0.09416 0.0
N717 N 0.82266 0.4676 0.08748 0.0
H718 H 0.8331 0.40484 0.02222 0.0
H719 H 0.85305 0.44827 0.04086 0.0
H720 H 0.82241 0.48556 0.10545 0.0
H721 H 0.83644 0.48103 0.06569 0.0
H722 H 0.708 0.30281 0.11135 0.0
H723 H 0.72754 0.29757 0.07485 0.0
H724 H 0.72521 0.33135 0.15614 0.0
H725 H 0.73963 0.37548 0.17153 0.0
C726 C 0.39195 0.75433 0.29046 0.0
C727 C 0.37346 0.7748 0.28588 0.0
C728 C 0.40362 0.79676 0.23138 0.0
C729 C 0.42011 0.7743 0.23499 0.0
N730 N 0.42703 0.72835 0.26555 0.0
N731 N 0.35776 0.81204 0.25102 0.0
C732 C 0.41346 0.75214 0.2639 0.0
C733 C 0.37824 0.79511 0.25605 0.0
N734 N 0.3896 0.73771 0.32054 0.0
N735 N 0.4129 0.82022 0.20468 0.0
H736 H 0.33964 0.81221 0.26889 0.0
H737 H 0.35669 0.8238 0.22841 0.0
H738 H 0.43055 0.8214 0.18566 0.0
H739 H 0.40523 0.84032 0.20235 0.0
H740 H 0.40563 0.72591 0.32693 0.0
H741 H 0.37336 0.73792 0.34026 0.0
H742 H 0.41976 0.70836 0.28404 0.0
H743 H 0.44379 0.72679 0.24703 0.0
loop_
_geom_bond_atom_site_label_1
_geom_bond_atom_site_label_2
_geom_bond_distance
_geom_bond_site_symmetry_2
_ccdc_geom_bond_type
Li0 N17 1.990 . S
Li0 O60 1.956 . S
Li0 O61 1.970 . S
Li0 O62 1.961 . S
Li1 N25 1.990 . S
Li1 O60 1.970 . S
Li1 O61 1.956 . S
Li1 O63 1.961 . S
Li2 N47 1.990 . S
Li2 O60 1.961 . S
Li2 O62 1.956 . S
Li2 O63 1.970 . S
Li3 N53 1.990 . S
Li3 O61 1.961 . S
Li3 O62 1.970 . S
Li3 O63 1.956 . S
C4 C6 1.348 . S
C4 C7 1.356 . S
C4 O60 1.325 . S
N5 C8 1.314 . S
N5 C9 1.279 . S
C6 C4 1.348 . S
C6 C8 1.353 . S
C6 H64 0.929 . S
C7 C4 1.356 . S
C7 C9 1.358 . S
C7 H65 0.930 . S
C8 N5 1.314 . S
C8 C6 1.353 . S
C8 H66 0.930 . S
C9 N5 1.279 . S
C9 C7 1.358 . S
C9 H67 0.930 . S
C10 C13 1.348 . S
C10 C14 1.356 . S
C10 O61 1.325 . S
C11 N12 1.279 . S
C11 C14 1.358 . S
C11 H68 0.930 . S
N12 C11 1.279 . S
N12 C15 1.314 . S
C13 C10 1.348 . S
C13 C15 1.353 . S
C13 H69 0.929 . S
C14 C10 1.356 . S
C14 C11 1.358 . S
C14 H70 0.930 . S
C15 N12 1.314 . S
C15 C13 1.353 . S
C15 H71 0.930 . S
C16 N17 1.314 . S
C16 C21 1.353 . S
C16 H22 0.930 . S
N17 Li0 1.990 . S
N17 C16 1.314 . S
N17 C19 1.279 . S
C18 C19 1.358 . S
C18 C20 1.356 . S
C18 H72 0.930 . S
C19 N17 1.279 . S
C19 C18 1.358 . S
C19 H23 0.930 . S
C20 C18 1.356 . S
C20 C21 1.348 . S
C21 C16 1.353 . S
C21 C20 1.348 . S
C21 H73 0.929 . S
H22 C16 0.930 . S
H23 C19 0.930 . S
C24 N25 1.314 . S
C24 C26 1.353 . S
C24 H30 0.930 . S
N25 Li1 1.990 . S
N25 C24 1.314 . S
N25 C28 1.279 . S
C26 C24 1.353 . S
C26 C29 1.348 . S
C26 H74 0.929 . S
C27 C28 1.358 . S
C27 C29 1.356 . S
C27 H75 0.930 . S
C28 N25 1.279 . S
C28 C27 1.358 . S
C28 H31 0.930 . S
C29 C26 1.348 . S
C29 C27 1.356 . S
H30 C24 0.930 . S
H31 C28 0.930 . S
C32 C34 1.348 . S
C32 C35 1.356 . S
C32 O62 1.325 . S
N33 C36 1.314 . S
N33 C37 1.279 . S
C34 C32 1.348 . S
C34 C36 1.353 . S
C34 H76 0.929 . S
C35 C32 1.356 . S
C35 C37 1.358 . S
C35 H77 0.930 . S
C36 N33 1.314 . S
C36 C34 1.353 . S
C36 H78 0.930 . S
C37 N33 1.279 . S
C37 C35 1.358 . S
C37 H79 0.930 . S
C38 C39 1.348 . S
C38 C40 1.356 . S
C38 O63 1.325 . S
C39 C38 1.348 . S
C39 C41 1.353 . S
C39 H80 0.929 . S
C40 C38 1.356 . S
C40 C42 1.358 . S
C40 H81 0.930 . S
C41 C39 1.353 . S
C41 N43 1.314 . S
C41 H82 0.930 . S
C42 C40 1.358 . S
C42 N43 1.279 . S
C42 H83 0.930 . S
N43 C41 1.314 . S
N43 C42 1.279 . S
C44 C46 1.353 . S
C44 N47 1.314 . S
C44 H50 0.930 . S
C45 N47 1.279 . S
C45 C48 1.358 . S
C45 H51 0.930 . S
C46 C44 1.353 . S
C46 C49 1.348 . S
C46 H84 0.929 . S
N47 Li2 1.990 . S
N47 C44 1.314 . S
N47 C45 1.279 . S
C48 C45 1.358 . S
C48 C49 1.356 . S
C48 H85 0.930 . S
C49 C46 1.348 . S
C49 C48 1.356 . S
H50 C44 0.930 . S
H51 C45 0.930 . S
C52 N53 1.314 . S
C52 C54 1.353 . S
C52 H58 0.930 . S
N53 Li3 1.990 . S
N53 C52 1.314 . S
N53 C56 1.279 . S
C54 C52 1.353 . S
C54 C57 1.348 . S
C54 H86 0.929 . S
C55 C56 1.358 . S
C55 C57 1.356 . S
C55 H87 0.930 . S
C56 N53 1.279 . S
C56 C55 1.358 . S
C56 H59 0.930 . S
C57 C54 1.348 . S
C57 C55 1.356 . S
H58 C52 0.930 . S
H59 C56 0.930 . S
O60 Li0 1.956 . S
O60 Li1 1.970 . S
O60 Li2 1.961 . S
O60 C4 1.325 . S
O61 Li0 1.970 . S
O61 Li1 1.956 . S
O61 Li3 1.961 . S
O61 C10 1.325 . S
O62 Li0 1.961 . S
O62 Li2 1.956 . S
O62 Li3 1.970 . S
O62 C32 1.325 . S
O63 Li1 1.961 . S
O63 Li2 1.970 . S
O63 Li3 1.956 . S
O63 C38 1.325 . S
H64 C6 0.929 . S
H65 C7 0.930 . S
H66 C8 0.930 . S
H67 C9 0.930 . S
H68 C11 0.930 . S
H69 C13 0.929 . S
H70 C14 0.930 . S
H71 C15 0.930 . S
H72 C18 0.930 . S
H73 C21 0.929 . S
H74 C26 0.929 . S
H75 C27 0.930 . S
H76 C34 0.929 . S
H77 C35 0.930 . S
H78 C36 0.930 . S
H79 C37 0.930 . S
H80 C39 0.929 . S
H81 C40 0.930 . S
H82 C41 0.930 . S
H83 C42 0.930 . S
H84 C46 0.929 . S
H85 C48 0.930 . S
H86 C54 0.929 . S
H87 C55 0.930 . S
Li88 N105 1.990 . S
Li88 O148 1.956 . S
Li88 O149 1.970 . S
Li88 O150 1.961 . S
Li89 N113 1.990 . S
Li89 O148 1.970 . S
Li89 O149 1.956 . S
Li89 O151 1.961 . S
Li90 N135 1.990 . S
Li90 O148 1.961 . S
Li90 O150 1.956 . S
Li90 O151 1.970 . S
Li91 N141 1.990 . S
Li91 O149 1.961 . S
Li91 O150 1.970 . S
Li91 O151 1.956 . S
C92 C94 1.348 . S
C92 C95 1.356 . S
C92 O148 1.325 . S
N93 C96 1.314 . S
N93 C97 1.279 . S
C94 C92 1.348 . S
C94 C96 1.353 . S
C94 H152 0.929 . S
C95 C92 1.356 . S
C95 C97 1.358 . S
C95 H153 0.930 . S
C96 N93 1.314 . S
C96 C94 1.353 . S
C96 H154 0.930 . S
C97 N93 1.279 . S
C97 C95 1.358 . S
C97 H155 0.930 . S
C98 C101 1.348 . S
C98 C102 1.356 . S
C98 O149 1.325 . S
C99 N100 1.279 . S
C99 C102 1.358 . S
C99 H156 0.930 . S
N100 C99 1.279 . S
N100 C103 1.314 . S
C101 C98 1.348 . S
C101 C103 1.353 . S
C101 H157 0.929 . S
C102 C98 1.356 . S
C102 C99 1.358 . S
C102 H158 0.930 . S
C103 N100 1.314 . S
C103 C101 1.353 . S
C103 H159 0.930 . S
C104 N105 1.314 . S
C104 C109 1.353 . S
C104 H110 0.930 . S
N105 Li88 1.990 . S
N105 C104 1.314 . S
N105 C107 1.279 . S
C106 C107 1.358 . S
C106 C108 1.356 . S
C106 H160 0.930 . S
C107 N105 1.279 . S
C107 C106 1.358 . S
C107 H111 0.930 . S
C108 C106 1.356 . S
C108 C109 1.348 . S
C109 C104 1.353 . S
C109 C108 1.348 . S
C109 H161 0.929 . S
H110 C104 0.930 . S
H111 C107 0.930 . S
C112 N113 1.314 . S
C112 C114 1.353 . S
C112 H118 0.930 . S
N113 Li89 1.990 . S
N113 C112 1.314 . S
N113 C116 1.279 . S
C114 C112 1.353 . S
C114 C117 1.348 . S
C114 H162 0.929 . S
C115 C116 1.358 . S
C115 C117 1.356 . S
C115 H163 0.930 . S
C116 N113 1.279 . S
C116 C115 1.358 . S
C116 H119 0.930 . S
C117 C114 1.348 . S
C117 C115 1.356 . S
H118 C112 0.930 . S
H119 C116 0.930 . S
C120 C122 1.348 . S
C120 C123 1.356 . S
C120 O150 1.325 . S
N121 C124 1.314 . S
N121 C125 1.279 . S
C122 C120 1.348 . S
C122 C124 1.353 . S
C122 H164 0.929 . S
C123 C120 1.356 . S
C123 C125 1.358 . S
C123 H165 0.930 . S
C124 N121 1.314 . S
C124 C122 1.353 . S
C124 H166 0.930 . S
C125 N121 1.279 . S
C125 C123 1.358 . S
C125 H167 0.930 . S
C126 C127 1.348 . S
C126 C128 1.356 . S
C126 O151 1.325 . S
C127 C126 1.348 . S
C127 C129 1.353 . S
C127 H168 0.929 . S
C128 C126 1.356 . S
C128 C130 1.358 . S
C128 H169 0.930 . S
C129 C127 1.353 . S
C129 N131 1.314 . S
C129 H170 0.930 . S
C130 C128 1.358 . S
C130 N131 1.279 . S
C130 H171 0.930 . S
N131 C129 1.314 . S
N131 C130 1.279 . S
C132 C134 1.353 . S
C132 N135 1.314 . S
C132 H138 0.930 . S
C133 N135 1.279 . S
C133 C136 1.358 . S
C133 H139 0.930 . S
C134 C132 1.353 . S
C134 C137 1.348 . S
C134 H172 0.929 . S
N135 Li90 1.990 . S
N135 C132 1.314 . S
N135 C133 1.279 . S
C136 C133 1.358 . S
C136 C137 1.356 . S
C136 H173 0.930 . S
C137 C134 1.348 . S
C137 C136 1.356 . S
H138 C132 0.930 . S
H139 C133 0.930 . S
C140 N141 1.314 . S
C140 C142 1.353 . S
C140 H146 0.930 . S
N141 Li91 1.990 . S
N141 C140 1.314 . S
N141 C144 1.279 . S
C142 C140 1.353 . S
C142 C145 1.348 . S
C142 H174 0.929 . S
C143 C144 1.358 . S
C143 C145 1.356 . S
C143 H175 0.930 . S
C144 N141 1.279 . S
C144 C143 1.358 . S
C144 H147 0.930 . S
C145 C142 1.348 . S
C145 C143 1.356 . S
H146 C140 0.930 . S
H147 C144 0.930 . S
O148 Li88 1.956 . S
O148 Li89 1.970 . S
O148 Li90 1.961 . S
O148 C92 1.325 . S
O149 Li88 1.970 . S
O149 Li89 1.956 . S
O149 Li91 1.961 . S
O149 C98 1.325 . S
O150 Li88 1.961 . S
O150 Li90 1.956 . S
O150 Li91 1.970 . S
O150 C120 1.325 . S
O151 Li89 1.961 . S
O151 Li90 1.970 . S
O151 Li91 1.956 . S
O151 C126 1.325 . S
H152 C94 0.929 . S
H153 C95 0.930 . S
H154 C96 0.930 . S
H155 C97 0.930 . S
H156 C99 0.930 . S
H157 C101 0.929 . S
H158 C102 0.930 . S
H159 C103 0.930 . S
H160 C106 0.930 . S
H161 C109 0.929 . S
H162 C114 0.929 . S
H163 C115 0.930 . S
H164 C122 0.929 . S
H165 C123 0.930 . S
H166 C124 0.930 . S
H167 C125 0.930 . S
H168 C127 0.929 . S
H169 C128 0.930 . S
H170 C129 0.930 . S
H171 C130 0.930 . S
H172 C134 0.929 . S
H173 C136 0.930 . S
H174 C142 0.929 . S
H175 C143 0.930 . S
Li176 N193 1.990 . S
Li176 O236 1.956 . S
Li176 O237 1.970 . S
Li176 O238 1.961 . S
Li177 N201 1.990 . S
Li177 O236 1.970 . S
Li177 O237 1.956 . S
Li177 O239 1.961 . S
Li178 N223 1.990 . S
Li178 O236 1.961 . S
Li178 O238 1.956 . S
Li178 O239 1.970 . S
Li179 N229 1.990 . S
Li179 O237 1.961 . S
Li179 O238 1.970 . S
Li179 O239 1.956 . S
C180 C182 1.348 . S
C180 C183 1.356 . S
C180 O236 1.325 . S
N181 C184 1.314 . S
N181 C185 1.279 1_554 S
C182 C180 1.348 . S
C182 C184 1.353 1_556 S
C182 H240 0.929 . S
C183 C180 1.356 . S
C183 C185 1.358 . S
C183 H241 0.930 . S
C184 N181 1.314 . S
C184 C182 1.353 1_554 S
C184 H242 0.930 . S
C185 N181 1.279 1_556 S
C185 C183 1.358 . S
C185 H243 0.930 . S
C186 C189 1.348 . S
C186 C190 1.356 . S
C186 O237 1.325 . S
C187 N188 1.279 . S
C187 C190 1.358 . S
C187 H244 0.930 . S
N188 C187 1.279 . S
N188 C191 1.314 . S
C189 C186 1.348 . S
C189 C191 1.353 . S
C189 H245 0.929 . S
C190 C186 1.356 . S
C190 C187 1.358 . S
C190 H246 0.930 . S
C191 N188 1.314 . S
C191 C189 1.353 . S
C191 H247 0.930 . S
C192 N193 1.314 . S
C192 C197 1.353 . S
C192 H198 0.930 . S
N193 Li176 1.990 . S
N193 C192 1.314 . S
N193 C195 1.279 . S
C194 C195 1.358 . S
C194 C196 1.356 . S
C194 H248 0.930 . S
C195 N193 1.279 . S
C195 C194 1.358 . S
C195 H199 0.930 . S
C196 C194 1.356 . S
C196 C197 1.348 . S
C197 C192 1.353 . S
C197 C196 1.348 . S
C197 H249 0.929 . S
H198 C192 0.930 . S
H199 C195 0.930 . S
C200 N201 1.314 1_554 S
C200 C202 1.353 . S
C200 H206 0.930 . S
N201 Li177 1.990 . S
N201 C200 1.314 1_556 S
N201 C204 1.279 . S
C202 C200 1.353 . S
C202 C205 1.348 . S
C202 H250 0.929 . S
C203 C204 1.358 1_554 S
C203 C205 1.356 . S
C203 H251 0.930 . S
C204 N201 1.279 . S
C204 C203 1.358 1_556 S
C204 H207 0.930 . S
C205 C202 1.348 . S
C205 C203 1.356 . S
H206 C200 0.930 . S
H207 C204 0.930 . S
C208 C210 1.348 . S
C208 C211 1.356 . S
C208 O238 1.325 . S
N209 C212 1.314 . S
N209 C213 1.279 . S
C210 C208 1.348 . S
C210 C212 1.353 . S
C210 H252 0.929 . S
C211 C208 1.356 . S
C211 C213 1.358 . S
C211 H253 0.930 . S
C212 N209 1.314 . S
C212 C210 1.353 . S
C212 H254 0.930 . S
C213 N209 1.279 . S
C213 C211 1.358 . S
C213 H255 0.930 . S
C214 C215 1.348 . S
C214 C216 1.356 . S
C214 O239 1.325 . S
C215 C214 1.348 . S
C215 C217 1.353 . S
C215 H256 0.929 . S
C216 C214 1.356 . S
C216 C218 1.358 . S
C216 H257 0.930 . S
C217 C215 1.353 . S
C217 N219 1.314 . S
C217 H258 0.930 . S
C218 C216 1.358 . S
C218 N219 1.279 . S
C218 H259 0.930 . S
N219 C217 1.314 . S
N219 C218 1.279 . S
C220 C222 1.353 . S
C220 N223 1.314 . S
C220 H226 0.930 . S
C221 N223 1.279 . S
C221 C224 1.358 . S
C221 H227 0.930 . S
C222 C220 1.353 . S
C222 C225 1.348 . S
C222 H260 0.929 1_556 S
N223 Li178 1.990 . S
N223 C220 1.314 . S
N223 C221 1.279 . S
C224 C221 1.358 . S
C224 C225 1.356 . S
C224 H261 0.930 . S
C225 C222 1.348 . S
C225 C224 1.356 . S
H226 C220 0.930 . S
H227 C221 0.930 . S
C228 N229 1.314 . S
C228 C230 1.353 . S
C228 H234 0.930 . S
N229 Li179 1.990 . S
N229 C228 1.314 . S
N229 C232 1.279 . S
C230 C228 1.353 . S
C230 C233 1.348 . S
C230 H262 0.929 . S
C231 C232 1.358 . S
C231 C233 1.356 . S
C231 H263 0.930 . S
C232 N229 1.279 . S
C232 C231 1.358 . S
C232 H235 0.930 . S
C233 C230 1.348 . S
C233 C231 1.356 . S
H234 C228 0.930 . S
H235 C232 0.930 . S
O236 Li176 1.956 . S
O236 Li177 1.970 . S
O236 Li178 1.961 . S
O236 C180 1.325 . S
O237 Li176 1.970 . S
O237 Li177 1.956 . S
O237 Li179 1.961 . S
O237 C186 1.325 . S
O238 Li176 1.961 . S
O238 Li178 1.956 . S
O238 Li179 1.970 . S
O238 C208 1.325 . S
O239 Li177 1.961 . S
O239 Li178 1.970 . S
O239 Li179 1.956 . S
O239 C214 1.325 . S
H240 C182 0.929 . S
H241 C183 0.930 . S
H242 C184 0.930 . S
H243 C185 0.930 . S
H244 C187 0.930 . S
H245 C189 0.929 . S
H246 C190 0.930 . S
H247 C191 0.930 . S
H248 C194 0.930 . S
H249 C197 0.929 . S
H250 C202 0.929 . S
H251 C203 0.930 . S
H252 C210 0.929 . S
H253 C211 0.930 . S
H254 C212 0.930 . S
H255 C213 0.930 . S
H256 C215 0.929 . S
H257 C216 0.930 . S
H258 C217 0.930 . S
H259 C218 0.930 . S
H260 C222 0.929 1_554 S
H261 C224 0.930 . S
H262 C230 0.929 . S
H263 C231 0.930 . S
Li264 N281 1.990 . S
Li264 O324 1.956 . S
Li264 O325 1.970 . S
Li264 O326 1.961 . S
Li265 N289 1.990 . S
Li265 O324 1.970 . S
Li265 O325 1.956 . S
Li265 O327 1.961 . S
Li266 N311 1.990 . S
Li266 O324 1.961 . S
Li266 O326 1.956 . S
Li266 O327 1.970 . S
Li267 N317 1.990 . S
Li267 O325 1.961 . S
Li267 O326 1.970 . S
Li267 O327 1.956 . S
C268 C270 1.348 . S
C268 C271 1.356 . S
C268 O324 1.325 . S
N269 C272 1.314 . S
N269 C273 1.279 . S
C270 C268 1.348 . S
C270 C272 1.353 . S
C270 H328 0.929 . S
C271 C268 1.356 . S
C271 C273 1.358 . S
C271 H329 0.930 . S
C272 N269 1.314 . S
C272 C270 1.353 . S
C272 H330 0.930 . S
C273 N269 1.279 . S
C273 C271 1.358 . S
C273 H331 0.930 . S
C274 C277 1.348 . S
C274 C278 1.356 . S
C274 O325 1.325 . S
C275 N276 1.279 . S
C275 C278 1.358 . S
C275 H332 0.930 . S
N276 C275 1.279 . S
N276 C279 1.314 . S
C277 C274 1.348 . S
C277 C279 1.353 . S
C277 H333 0.929 . S
C278 C274 1.356 . S
C278 C275 1.358 . S
C278 H334 0.930 . S
C279 N276 1.314 . S
C279 C277 1.353 . S
C279 H335 0.930 . S
C280 N281 1.314 . S
C280 C285 1.353 . S
C280 H286 0.930 . S
N281 Li264 1.990 . S
N281 C280 1.314 . S
N281 C283 1.279 . S
C282 C283 1.358 . S
C282 C284 1.356 . S
C282 H336 0.930 . S
C283 N281 1.279 . S
C283 C282 1.358 . S
C283 H287 0.930 . S
C284 C282 1.356 . S
C284 C285 1.348 . S
C285 C280 1.353 . S
C285 C284 1.348 . S
C285 H337 0.929 1_554 S
H286 C280 0.930 . S
H287 C283 0.930 . S
C288 N289 1.314 . S
C288 C290 1.353 . S
C288 H294 0.930 . S
N289 Li265 1.990 . S
N289 C288 1.314 . S
N289 C292 1.279 . S
C290 C288 1.353 . S
C290 C293 1.348 . S
C290 H338 0.929 . S
C291 C292 1.358 . S
C291 C293 1.356 . S
C291 H339 0.930 . S
C292 N289 1.279 . S
C292 C291 1.358 . S
C292 H295 0.930 . S
C293 C290 1.348 . S
C293 C291 1.356 . S
H294 C288 0.930 . S
H295 C292 0.930 . S
C296 C298 1.348 . S
C296 C299 1.356 . S
C296 O326 1.325 . S
N297 C300 1.314 . S
N297 C301 1.279 1_556 S
C298 C296 1.348 . S
C298 C300 1.353 1_554 S
C298 H340 0.929 . S
C299 C296 1.356 . S
C299 C301 1.358 . S
C299 H341 0.930 . S
C300 N297 1.314 . S
C300 C298 1.353 1_556 S
C300 H342 0.930 . S
C301 N297 1.279 1_554 S
C301 C299 1.358 . S
C301 H343 0.930 . S
C302 C303 1.348 . S
C302 C304 1.356 . S
C302 O327 1.325 . S
C303 C302 1.348 . S
C303 C305 1.353 . S
C303 H344 0.929 . S
C304 C302 1.356 . S
C304 C306 1.358 . S
C304 H345 0.930 . S
C305 C303 1.353 . S
C305 N307 1.314 . S
C305 H346 0.930 . S
C306 C304 1.358 . S
C306 N307 1.279 . S
C306 H347 0.930 . S
N307 C305 1.314 . S
N307 C306 1.279 . S
C308 C310 1.353 . S
C308 N311 1.314 . S
C308 H314 0.930 . S
C309 N311 1.279 . S
C309 C312 1.358 . S
C309 H315 0.930 . S
C310 C308 1.353 . S
C310 C313 1.348 . S
C310 H348 0.929 . S
N311 Li266 1.990 . S
N311 C308 1.314 . S
N311 C309 1.279 . S
C312 C309 1.358 . S
C312 C313 1.356 . S
C312 H349 0.930 . S
C313 C310 1.348 . S
C313 C312 1.356 . S
H314 C308 0.930 . S
H315 C309 0.930 . S
C316 N317 1.314 1_556 S
C316 C318 1.353 . S
C316 H322 0.930 . S
N317 Li267 1.990 . S
N317 C316 1.314 1_554 S
N317 C320 1.279 . S
C318 C316 1.353 . S
C318 C321 1.348 . S
C318 H350 0.929 . S
C319 C320 1.358 1_556 S
C319 C321 1.356 . S
C319 H351 0.930 . S
C320 N317 1.279 . S
C320 C319 1.358 1_554 S
C320 H323 0.930 . S
C321 C318 1.348 . S
C321 C319 1.356 . S
H322 C316 0.930 . S
H323 C320 0.930 . S
O324 Li264 1.956 . S
O324 Li265 1.970 . S
O324 Li266 1.961 . S
O324 C268 1.325 . S
O325 Li264 1.970 . S
O325 Li265 1.956 . S
O325 Li267 1.961 . S
O325 C274 1.325 . S
O326 Li264 1.961 . S
O326 Li266 1.956 . S
O326 Li267 1.970 . S
O326 C296 1.325 . S
O327 Li265 1.961 . S
O327 Li266 1.970 . S
O327 Li267 1.956 . S
O327 C302 1.325 . S
H328 C270 0.929 . S
H329 C271 0.930 . S
H330 C272 0.930 . S
H331 C273 0.930 . S
H332 C275 0.930 . S
H333 C277 0.929 . S
H334 C278 0.930 . S
H335 C279 0.930 . S
H336 C282 0.930 . S
H337 C285 0.929 1_556 S
H338 C290 0.929 . S
H339 C291 0.930 . S
H340 C298 0.929 . S
H341 C299 0.930 . S
H342 C300 0.930 . S
H343 C301 0.930 . S
H344 C303 0.929 . S
H345 C304 0.930 . S
H346 C305 0.930 . S
H347 C306 0.930 . S
H348 C310 0.929 . S
H349 C312 0.930 . S
H350 C318 0.929 . S
H351 C319 0.930 . S
Li352 N369 1.990 . S
Li352 O412 1.956 . S
Li352 O413 1.970 . S
Li352 O414 1.961 . S
Li353 N377 1.990 . S
Li353 O412 1.970 . S
Li353 O413 1.956 . S
Li353 O415 1.961 . S
Li354 N399 1.990 . S
Li354 O412 1.961 . S
Li354 O414 1.956 . S
Li354 O415 1.970 . S
Li355 N405 1.990 . S
Li355 O413 1.961 . S
Li355 O414 1.970 . S
Li355 O415 1.956 . S
C356 C358 1.348 . S
C356 C359 1.356 . S
C356 O412 1.325 . S
N357 C360 1.314 . S
N357 C361 1.279 . S
C358 C356 1.348 . S
C358 C360 1.353 . S
C358 H416 0.929 . S
C359 C356 1.356 . S
C359 C361 1.358 . S
C359 H417 0.930 . S
C360 N357 1.314 . S
C360 C358 1.353 . S
C360 H418 0.930 . S
C361 N357 1.279 . S
C361 C359 1.358 . S
C361 H419 0.930 . S
C362 C365 1.348 . S
C362 C366 1.356 . S
C362 O413 1.325 . S
C363 N364 1.279 . S
C363 C366 1.358 . S
C363 H420 0.930 . S
N364 C363 1.279 . S
N364 C367 1.314 . S
C365 C362 1.348 . S
C365 C367 1.353 . S
C365 H421 0.929 . S
C366 C362 1.356 . S
C366 C363 1.358 . S
C366 H422 0.930 . S
C367 N364 1.314 . S
C367 C365 1.353 . S
C367 H423 0.930 . S
C368 N369 1.314 . S
C368 C373 1.353 . S
C368 H374 0.930 . S
N369 Li352 1.990 . S
N369 C368 1.314 . S
N369 C371 1.279 . S
C370 C371 1.358 . S
C370 C372 1.356 . S
C370 H424 0.930 . S
C371 N369 1.279 . S
C371 C370 1.358 . S
C371 H375 0.930 . S
C372 C370 1.356 . S
C372 C373 1.348 . S
C373 C368 1.353 . S
C373 C372 1.348 . S
C373 H425 0.929 . S
H374 C368 0.930 . S
H375 C371 0.930 . S
C376 N377 1.314 . S
C376 C378 1.353 . S
C376 H382 0.930 . S
N377 Li353 1.990 . S
N377 C376 1.314 . S
N377 C380 1.279 . S
C378 C376 1.353 . S
C378 C381 1.348 . S
C378 H426 0.929 . S
C379 C380 1.358 . S
C379 C381 1.356 . S
C379 H427 0.930 . S
C380 N377 1.279 . S
C380 C379 1.358 . S
C380 H383 0.930 . S
C381 C378 1.348 . S
C381 C379 1.356 . S
H382 C376 0.930 . S
H383 C380 0.930 . S
C384 C386 1.348 . S
C384 C387 1.356 . S
C384 O414 1.325 . S
N385 C388 1.314 . S
N385 C389 1.279 . S
C386 C384 1.348 . S
C386 C388 1.353 . S
C386 H428 0.929 . S
C387 C384 1.356 . S
C387 C389 1.358 . S
C387 H429 0.930 . S
C388 N385 1.314 . S
C388 C386 1.353 . S
C388 H430 0.930 . S
C389 N385 1.279 . S
C389 C387 1.358 . S
C389 H431 0.930 . S
C390 C391 1.348 . S
C390 C392 1.356 . S
C390 O415 1.325 . S
C391 C390 1.348 . S
C391 C393 1.353 . S
C391 H432 0.929 . S
C392 C390 1.356 . S
C392 C394 1.358 . S
C392 H433 0.930 . S
C393 C391 1.353 . S
C393 N395 1.314 . S
C393 H434 0.930 . S
C394 C392 1.358 . S
C394 N395 1.279 . S
C394 H435 0.930 . S
N395 C393 1.314 . S
N395 C394 1.279 . S
C396 C398 1.353 . S
C396 N399 1.314 . S
C396 H402 0.930 . S
C397 N399 1.279 . S
C397 C400 1.358 . S
C397 H403 0.930 . S
C398 C396 1.353 . S
C398 C401 1.348 . S
C398 H436 0.929 . S
N399 Li354 1.990 . S
N399 C396 1.314 . S
N399 C397 1.279 . S
C400 C397 1.358 . S
C400 C401 1.356 . S
C400 H437 0.930 . S
C401 C398 1.348 . S
C401 C400 1.356 . S
H402 C396 0.930 . S
H403 C397 0.930 . S
C404 N405 1.314 . S
C404 C406 1.353 . S
C404 H410 0.930 . S
N405 Li355 1.990 . S
N405 C404 1.314 . S
N405 C408 1.279 . S
C406 C404 1.353 . S
C406 C409 1.348 . S
C406 H438 0.929 . S
C407 C408 1.358 . S
C407 C409 1.356 . S
C407 H439 0.930 . S
C408 N405 1.279 . S
C408 C407 1.358 . S
C408 H411 0.930 . S
C409 C406 1.348 . S
C409 C407 1.356 . S
H410 C404 0.930 . S
H411 C408 0.930 . S
O412 Li352 1.956 . S
O412 Li353 1.970 . S
O412 Li354 1.961 . S
O412 C356 1.325 . S
O413 Li352 1.970 . S
O413 Li353 1.956 . S
O413 Li355 1.961 . S
O413 C362 1.325 . S
O414 Li352 1.961 . S
O414 Li354 1.956 . S
O414 Li355 1.970 . S
O414 C384 1.325 . S
O415 Li353 1.961 . S
O415 Li354 1.970 . S
O415 Li355 1.956 . S
O415 C390 1.325 . S
H416 C358 0.929 . S
H417 C359 0.930 . S
H418 C360 0.930 . S
H419 C361 0.930 . S
H420 C363 0.930 . S
H421 C365 0.929 . S
H422 C366 0.930 . S
H423 C367 0.930 . S
H424 C370 0.930 . S
H425 C373 0.929 . S
H426 C378 0.929 . S
H427 C379 0.930 . S
H428 C386 0.929 . S
H429 C387 0.930 . S
H430 C388 0.930 . S
H431 C389 0.930 . S
H432 C391 0.929 . S
H433 C392 0.930 . S
H434 C393 0.930 . S
H435 C394 0.930 . S
H436 C398 0.929 . S
H437 C400 0.930 . S
H438 C406 0.929 . S
H439 C407 0.930 . S
Li440 N457 1.990 . S
Li440 O500 1.956 . S
Li440 O501 1.970 . S
Li440 O502 1.961 . S
Li441 N465 1.990 . S
Li441 O500 1.970 . S
Li441 O501 1.956 . S
Li441 O503 1.961 . S
Li442 N487 1.990 . S
Li442 O500 1.961 . S
Li442 O502 1.956 . S
Li442 O503 1.970 . S
Li443 N493 1.990 . S
Li443 O501 1.961 . S
Li443 O502 1.970 . S
Li443 O503 1.956 . S
C444 C446 1.348 . S
C444 C447 1.356 . S
C444 O500 1.325 . S
N445 C448 1.314 . S
N445 C449 1.279 . S
C446 C444 1.348 . S
C446 C448 1.353 . S
C446 H504 0.929 . S
C447 C444 1.356 . S
C447 C449 1.358 . S
C447 H505 0.930 . S
C448 N445 1.314 . S
C448 C446 1.353 . S
C448 H506 0.930 . S
C449 N445 1.279 . S
C449 C447 1.358 . S
C449 H507 0.930 . S
C450 C453 1.348 . S
C450 C454 1.356 . S
C450 O501 1.325 . S
C451 N452 1.279 . S
C451 C454 1.358 . S
C451 H508 0.930 . S
N452 C451 1.279 . S
N452 C455 1.314 . S
C453 C450 1.348 . S
C453 C455 1.353 . S
C453 H509 0.929 . S
C454 C450 1.356 . S
C454 C451 1.358 . S
C454 H510 0.930 . S
C455 N452 1.314 . S
C455 C453 1.353 . S
C455 H511 0.930 . S
C456 N457 1.314 . S
C456 C461 1.353 . S
C456 H462 0.930 . S
N457 Li440 1.990 . S
N457 C456 1.314 . S
N457 C459 1.279 . S
C458 C459 1.358 . S
C458 C460 1.356 . S
C458 H512 0.930 . S
C459 N457 1.279 . S
C459 C458 1.358 . S
C459 H463 0.930 . S
C460 C458 1.356 . S
C460 C461 1.348 . S
C461 C456 1.353 . S
C461 C460 1.348 . S
C461 H513 0.929 . S
H462 C456 0.930 . S
H463 C459 0.930 . S
C464 N465 1.314 . S
C464 C466 1.353 . S
C464 H470 0.930 . S
N465 Li441 1.990 . S
N465 C464 1.314 . S
N465 C468 1.279 . S
C466 C464 1.353 . S
C466 C469 1.348 . S
C466 H514 0.929 . S
C467 C468 1.358 . S
C467 C469 1.356 . S
C467 H515 0.930 . S
C468 N465 1.279 . S
C468 C467 1.358 . S
C468 H471 0.930 . S
C469 C466 1.348 . S
C469 C467 1.356 . S
H470 C464 0.930 . S
H471 C468 0.930 . S
C472 C474 1.348 . S
C472 C475 1.356 . S
C472 O502 1.325 . S
N473 C476 1.314 . S
N473 C477 1.279 . S
C474 C472 1.348 . S
C474 C476 1.353 . S
C474 H516 0.929 . S
C475 C472 1.356 . S
C475 C477 1.358 . S
C475 H517 0.930 . S
C476 N473 1.314 . S
C476 C474 1.353 . S
C476 H518 0.930 . S
C477 N473 1.279 . S
C477 C475 1.358 . S
C477 H519 0.930 . S
C478 C479 1.348 . S
C478 C480 1.356 . S
C478 O503 1.325 . S
C479 C478 1.348 . S
C479 C481 1.353 . S
C479 H520 0.929 . S
C480 C478 1.356 . S
C480 C482 1.358 . S
C480 H521 0.930 . S
C481 C479 1.353 . S
C481 N483 1.314 . S
C481 H522 0.930 . S
C482 C480 1.358 . S
C482 N483 1.279 . S
C482 H523 0.930 . S
N483 C481 1.314 . S
N483 C482 1.279 . S
C484 C486 1.353 . S
C484 N487 1.314 . S
C484 H490 0.930 . S
C485 N487 1.279 . S
C485 C488 1.358 . S
C485 H491 0.930 . S
C486 C484 1.353 . S
C486 C489 1.348 . S
C486 H524 0.929 . S
N487 Li442 1.990 . S
N487 C484 1.314 . S
N487 C485 1.279 . S
C488 C485 1.358 . S
C488 C489 1.356 . S
C488 H525 0.930 . S
C489 C486 1.348 . S
C489 C488 1.356 . S
H490 C484 0.930 . S
H491 C485 0.930 . S
C492 N493 1.314 . S
C492 C494 1.353 . S
C492 H498 0.930 . S
N493 Li443 1.990 . S
N493 C492 1.314 . S
N493 C496 1.279 . S
C494 C492 1.353 . S
C494 C497 1.348 . S
C494 H526 0.929 . S
C495 C496 1.358 . S
C495 C497 1.356 . S
C495 H527 0.930 . S
C496 N493 1.279 . S
C496 C495 1.358 . S
C496 H499 0.930 . S
C497 C494 1.348 . S
C497 C495 1.356 . S
H498 C492 0.930 . S
H499 C496 0.930 . S
O500 Li440 1.956 . S
O500 Li441 1.970 . S
O500 Li442 1.961 . S
O500 C444 1.325 . S
O501 Li440 1.970 . S
O501 Li441 1.956 . S
O501 Li443 1.961 . S
O501 C450 1.325 . S
O502 Li440 1.961 . S
O502 Li442 1.956 . S
O502 Li443 1.970 . S
O502 C472 1.325 . S
O503 Li441 1.961 . S
O503 Li442 1.970 . S
O503 Li443 1.956 . S
O503 C478 1.325 . S
H504 C446 0.929 . S
H505 C447 0.930 . S
H506 C448 0.930 . S
H507 C449 0.930 . S
H508 C451 0.930 . S
H509 C453 0.929 . S
H510 C454 0.930 . S
H511 C455 0.930 . S
H512 C458 0.930 . S
H513 C461 0.929 . S
H514 C466 0.929 . S
H515 C467 0.930 . S
H516 C474 0.929 . S
H517 C475 0.930 . S
H518 C476 0.930 . S
H519 C477 0.930 . S
H520 C479 0.929 . S
H521 C480 0.930 . S
H522 C481 0.930 . S
H523 C482 0.930 . S
H524 C486 0.929 . S
H525 C488 0.930 . S
H526 C494 0.929 . S
H527 C495 0.930 . S
C528 C529 1.363 . S
C528 C534 1.379 1_545 S
C528 N536 1.356 . S
C529 C528 1.363 . S
C529 C535 1.363 . S
C530 C531 1.363 . S
C530 C535 1.379 1_565 S
C530 N537 1.356 . S
C531 C530 1.363 . S
C531 C534 1.363 . S
N532 C534 1.356 . S
N532 H544 0.984 . S
N532 H545 0.985 . S
N533 C535 1.356 . S
N533 H538 0.984 . S
N533 H539 0.985 . S
C534 C528 1.379 1_565 S
C534 C531 1.363 . S
C534 N532 1.356 . S
C535 C529 1.363 . S
C535 C530 1.379 1_545 S
C535 N533 1.356 . S
N536 C528 1.356 . S
N536 H542 0.984 . S
N536 H543 0.984 . S
N537 C530 1.356 . S
N537 H540 0.984 . S
N537 H541 0.985 . S
H538 N533 0.984 . S
H539 N533 0.985 . S
H540 N537 0.984 . S
H541 N537 0.985 . S
H542 N536 0.984 . S
H543 N536 0.984 . S
H544 N532 0.984 . S
H545 N532 0.985 . S
C546 C547 1.363 . S
C546 C552 1.379 . S
C546 N554 1.356 . S
C547 C546 1.363 . S
C547 C553 1.363 . S
C548 C549 1.363 . S
C548 C553 1.379 . S
C548 N555 1.356 . S
C549 C548 1.363 . S
C549 C552 1.363 . S
N550 C552 1.356 . S
N550 H562 0.984 . S
N550 H563 0.985 . S
N551 C553 1.356 . S
N551 H556 0.984 . S
N551 H557 0.985 . S
C552 C546 1.379 . S
C552 C549 1.363 . S
C552 N550 1.356 . S
C553 C547 1.363 . S
C553 C548 1.379 . S
C553 N551 1.356 . S
N554 C546 1.356 . S
N554 H560 0.984 . S
N554 H561 0.984 . S
N555 C548 1.356 . S
N555 H558 0.984 . S
N555 H559 0.985 . S
H556 N551 0.984 . S
H557 N551 0.985 . S
H558 N555 0.984 . S
H559 N555 0.985 . S
H560 N554 0.984 . S
H561 N554 0.984 . S
H562 N550 0.984 . S
H563 N550 0.985 . S
C564 C565 1.363 . S
C564 C570 1.379 1_655 S
C564 N572 1.356 . S
C565 C564 1.363 . S
C565 C571 1.363 . S
C566 C567 1.363 . S
C566 C571 1.379 1_455 S
C566 N573 1.356 . S
C567 C566 1.363 . S
C567 C570 1.363 . S
N568 C570 1.356 . S
N568 H580 0.984 . S
N568 H581 0.985 . S
N569 C571 1.356 . S
N569 H574 0.984 . S
N569 H575 0.985 . S
C570 C564 1.379 1_455 S
C570 C567 1.363 . S
C570 N568 1.356 . S
C571 C565 1.363 . S
C571 C566 1.379 1_655 S
C571 N569 1.356 . S
N572 C564 1.356 . S
N572 H578 0.984 . S
N572 H579 0.984 . S
N573 C566 1.356 . S
N573 H576 0.984 . S
N573 H577 0.985 . S
H574 N569 0.984 . S
H575 N569 0.985 . S
H576 N573 0.984 . S
H577 N573 0.985 . S
H578 N572 0.984 . S
H579 N572 0.984 . S
H580 N568 0.984 . S
H581 N568 0.985 . S
C582 C583 1.363 . S
C582 C588 1.379 1_565 S
C582 N590 1.356 . S
C583 C582 1.363 . S
C583 C589 1.363 1_554 S
C584 C585 1.363 . S
C584 C589 1.379 1_545 S
C584 N591 1.356 . S
C585 C584 1.363 . S
C585 C588 1.363 1_556 S
N586 C588 1.356 . S
N586 H598 0.984 . S
N586 H599 0.985 . S
N587 C589 1.356 . S
N587 H592 0.984 . S
N587 H593 0.985 . S
C588 C582 1.379 1_545 S
C588 C585 1.363 1_554 S
C588 N586 1.356 . S
C589 C583 1.363 1_556 S
C589 C584 1.379 1_565 S
C589 N587 1.356 . S
N590 C582 1.356 . S
N590 H596 0.984 . S
N590 H597 0.984 . S
N591 C584 1.356 . S
N591 H594 0.984 . S
N591 H595 0.985 . S
H592 N587 0.984 . S
H593 N587 0.985 . S
H594 N591 0.984 . S
H595 N591 0.985 . S
H596 N590 0.984 . S
H597 N590 0.984 . S
H598 N586 0.984 . S
H599 N586 0.985 . S
C600 C601 1.363 . S
C600 C606 1.379 . S
C600 N608 1.356 . S
C601 C600 1.363 . S
C601 C607 1.363 . S
C602 C603 1.363 . S
C602 C607 1.379 . S
C602 N609 1.356 . S
C603 C602 1.363 . S
C603 C606 1.363 . S
N604 C606 1.356 . S
N604 H616 0.984 . S
N604 H617 0.985 . S
N605 C607 1.356 . S
N605 H610 0.984 . S
N605 H611 0.985 . S
C606 C600 1.379 . S
C606 C603 1.363 . S
C606 N604 1.356 . S
C607 C601 1.363 . S
C607 C602 1.379 . S
C607 N605 1.356 . S
N608 C600 1.356 . S
N608 H614 0.984 . S
N608 H615 0.984 . S
N609 C602 1.356 . S
N609 H612 0.984 . S
N609 H613 0.985 . S
H610 N605 0.984 . S
H611 N605 0.985 . S
H612 N609 0.984 . S
H613 N609 0.985 . S
H614 N608 0.984 . S
H615 N608 0.984 . S
H616 N604 0.984 . S
H617 N604 0.985 . S
C618 C619 1.363 . S
C618 C624 1.379 1_455 S
C618 N626 1.356 . S
C619 C618 1.363 . S
C619 C625 1.363 . S
C620 C621 1.363 . S
C620 C625 1.379 1_655 S
C620 N627 1.356 . S
C621 C620 1.363 . S
C621 C624 1.363 . S
N622 C624 1.356 . S
N622 H634 0.984 . S
N622 H635 0.985 . S
N623 C625 1.356 . S
N623 H628 0.984 . S
N623 H629 0.985 . S
C624 C618 1.379 1_655 S
C624 C621 1.363 . S
C624 N622 1.356 . S
C625 C619 1.363 . S
C625 C620 1.379 1_455 S
C625 N623 1.356 . S
N626 C618 1.356 . S
N626 H632 0.984 . S
N626 H633 0.984 . S
N627 C620 1.356 . S
N627 H630 0.984 . S
N627 H631 0.985 . S
H628 N623 0.984 . S
H629 N623 0.985 . S
H630 N627 0.984 . S
H631 N627 0.985 . S
H632 N626 0.984 . S
H633 N626 0.984 . S
H634 N622 0.984 . S
H635 N622 0.985 . S
C636 C637 1.363 . S
C636 C642 1.379 . S
C636 N644 1.356 . S
C637 C636 1.363 . S
C637 C643 1.363 . S
C638 C639 1.363 . S
C638 C643 1.379 . S
C638 N645 1.356 . S
C639 C638 1.363 . S
C639 C642 1.363 . S
N640 C642 1.356 . S
N640 H652 0.984 . S
N640 H653 0.985 . S
N641 C643 1.356 . S
N641 H646 0.984 . S
N641 H647 0.985 . S
C642 C636 1.379 . S
C642 C639 1.363 . S
C642 N640 1.356 . S
C643 C637 1.363 . S
C643 C638 1.379 . S
C643 N641 1.356 . S
N644 C636 1.356 . S
N644 H650 0.984 . S
N644 H651 0.984 . S
N645 C638 1.356 . S
N645 H648 0.984 . S
N645 H649 0.985 . S
H646 N641 0.984 . S
H647 N641 0.985 . S
H648 N645 0.984 . S
H649 N645 0.985 . S
H650 N644 0.984 . S
H651 N644 0.984 . S
H652 N640 0.984 . S
H653 N640 0.985 . S
C654 C655 1.363 . S
C654 C660 1.379 . S
C654 N662 1.356 . S
C655 C654 1.363 . S
C655 C661 1.363 . S
C656 C657 1.363 . S
C656 C661 1.379 . S
C656 N663 1.356 . S
C657 C656 1.363 . S
C657 C660 1.363 . S
N658 C660 1.356 . S
N658 H670 0.984 . S
N658 H671 0.985 . S
N659 C661 1.356 . S
N659 H664 0.984 . S
N659 H665 0.985 . S
C660 C654 1.379 . S
C660 C657 1.363 . S
C660 N658 1.356 . S
C661 C655 1.363 . S
C661 C656 1.379 . S
C661 N659 1.356 . S
N662 C654 1.356 . S
N662 H668 0.984 . S
N662 H669 0.984 . S
N663 C656 1.356 . S
N663 H666 0.984 . S
N663 H667 0.985 . S
H664 N659 0.984 . S
H665 N659 0.985 . S
H666 N663 0.984 . S
H667 N663 0.985 . S
H668 N662 0.984 . S
H669 N662 0.984 . S
H670 N658 0.984 . S
H671 N658 0.985 . S
C672 C673 1.363 . S
C672 C678 1.379 . S
C672 N680 1.356 . S
C673 C672 1.363 . S
C673 C679 1.363 . S
C674 C675 1.363 . S
C674 C679 1.379 . S
C674 N681 1.356 . S
C675 C674 1.363 . S
C675 C678 1.363 . S
N676 C678 1.356 . S
N676 H688 0.984 . S
N676 H689 0.985 . S
N677 C679 1.356 . S
N677 H682 0.984 . S
N677 H683 0.985 . S
C678 C672 1.379 . S
C678 C675 1.363 . S
C678 N676 1.356 . S
C679 C673 1.363 . S
C679 C674 1.379 . S
C679 N677 1.356 . S
N680 C672 1.356 . S
N680 H686 0.984 . S
N680 H687 0.984 . S
N681 C674 1.356 . S
N681 H684 0.984 . S
N681 H685 0.985 . S
H682 N677 0.984 . S
H683 N677 0.985 . S
H684 N681 0.984 . S
H685 N681 0.985 . S
H686 N680 0.984 . S
H687 N680 0.984 . S
H688 N676 0.984 . S
H689 N676 0.985 . S
C690 C691 1.363 . S
C690 C696 1.379 . S
C690 N698 1.356 . S
C691 C690 1.363 . S
C691 C697 1.363 . S
C692 C693 1.363 . S
C692 C697 1.379 . S
C692 N699 1.356 . S
C693 C692 1.363 . S
C693 C696 1.363 . S
N694 C696 1.356 . S
N694 H706 0.984 . S
N694 H707 0.985 . S
N695 C697 1.356 . S
N695 H700 0.984 . S
N695 H701 0.985 . S
C696 C690 1.379 . S
C696 C693 1.363 . S
C696 N694 1.356 . S
C697 C691 1.363 . S
C697 C692 1.379 . S
C697 N695 1.356 . S
N698 C690 1.356 . S
N698 H704 0.984 . S
N698 H705 0.984 . S
N699 C692 1.356 . S
N699 H702 0.984 . S
N699 H703 0.985 . S
H700 N695 0.984 . S
H701 N695 0.985 . S
H702 N699 0.984 . S
H703 N699 0.985 . S
H704 N698 0.984 . S
H705 N698 0.984 . S
H706 N694 0.984 . S
H707 N694 0.985 . S
C708 C709 1.363 . S
C708 C714 1.379 . S
C708 N716 1.356 . S
C709 C708 1.363 . S
C709 C715 1.363 . S
C710 C711 1.363 . S
C710 C715 1.379 . S
C710 N717 1.356 . S
C711 C710 1.363 . S
C711 C714 1.363 . S
N712 C714 1.356 . S
N712 H724 0.984 . S
N712 H725 0.985 . S
N713 C715 1.356 . S
N713 H718 0.984 . S
N713 H719 0.985 . S
C714 C708 1.379 . S
C714 C711 1.363 . S
C714 N712 1.356 . S
C715 C709 1.363 . S
C715 C710 1.379 . S
C715 N713 1.356 . S
N716 C708 1.356 . S
N716 H722 0.984 . S
N716 H723 0.984 . S
N717 C710 1.356 . S
N717 H720 0.984 . S
N717 H721 0.985 . S
H718 N713 0.984 . S
H719 N713 0.985 . S
H720 N717 0.984 . S
H721 N717 0.985 . S
H722 N716 0.984 . S
H723 N716 0.984 . S
H724 N712 0.984 . S
H725 N712 0.985 . S
C726 C727 1.363 . S
C726 C732 1.379 . S
C726 N734 1.356 . S
C727 C726 1.363 . S
C727 C733 1.363 . S
C728 C729 1.363 . S
C728 C733 1.379 . S
C728 N735 1.356 . S
C729 C728 1.363 . S
C729 C732 1.363 . S
N730 C732 1.356 . S
N730 H742 0.984 . S
N730 H743 0.985 . S
N731 C733 1.356 . S
N731 H736 0.984 . S
N731 H737 0.985 . S
C732 C726 1.379 . S
C732 C729 1.363 . S
C732 N730 1.356 . S
C733 C727 1.363 . S
C733 C728 1.379 . S
C733 N731 1.356 . S
N734 C726 1.356 . S
N734 H740 0.984 . S
N734 H741 0.984 . S
N735 C728 1.356 . S
N735 H738 0.984 . S
N735 H739 0.985 . S
H736 N731 0.984 . S
H737 N731 0.985 . S
H738 N735 0.984 . S
H739 N735 0.985 . S
H740 N734 0.984 . S
H741 N734 0.984 . S
H742 N730 0.984 . S
H743 N730 0.985 . S
C529 C20 1.392 . S
C531 C489 1.392 . S
C547 C49 1.393 . S
C549 C117 1.393 . S
C565 C196 1.392 . S
C567 C145 1.392 . S
C583 C284 1.392 . S
C585 C225 1.392 . S
C601 C372 1.393 . S
C603 C313 1.393 . S
C619 C460 1.392 . S
C621 C401 1.392 . S
C637 C57 1.576 . S
C639 C381 1.576 . S
C655 C469 1.576 . S
C657 C137 1.576 . S
C673 C233 1.576 . S
C675 C29 1.576 . S
C691 C108 1.576 . S
C693 C321 1.576 . S
C709 C205 1.576 . S
C711 C409 1.576 . S
C727 C497 1.576 . S
C729 C293 1.576 . S
