# Generated by pormake.
# Topology can, (4)-cn, num edge types: 1
# Building blocks:
#     Node 0, Type 0, BuildingBlock: CEKHIL_clean_sbu_0, # of connection points: 4
#     Node 1, Type 0, BuildingBlock: CEKHIL_clean_sbu_0, # of connection points: 4
#     Node 2, Type 0, BuildingBlock: CEKHIL_clean_sbu_0, # of connection points: 4
#     Node 3, Type 0, BuildingBlock: CEKHIL_clean_sbu_0, # of connection points: 4
#     Node 4, Type 0, BuildingBlock: CEKHIL_clean_sbu_0, # of connection points: 4
#     Node 5, Type 0, BuildingBlock: CEKHIL_clean_sbu_0, # of connection points: 4
#     Node 6, Type 0, BuildingBlock: CEKHIL_clean_sbu_0, # of connection points: 4
#     Node 7, Type 0, BuildingBlock: CEKHIL_clean_sbu_0, # of connection points: 4
#     Node 8, Type 0, BuildingBlock: CEKHIL_clean_sbu_0, # of connection points: 4
#     Node 9, Type 0, BuildingBlock: CEKHIL_clean_sbu_0, # of connection points: 4
#     Node 10, Type 0, BuildingBlock: CEKHIL_clean_sbu_0, # of connection points: 4
#     Node 11, Type 0, BuildingBlock: CEKHIL_clean_sbu_0, # of connection points: 4
#     Edge 12, Type (0, 0), BuildingBlock: XUDNAN_clean_linker_2, # of connection points: 2
#     Edge 13, Type (0, 0), BuildingBlock: XUDNAN_clean_linker_2, # of connection points: 2
#     Edge 14, Type (0, 0), BuildingBlock: XUDNAN_clean_linker_2, # of connection points: 2
#     Edge 15, Type (0, 0), BuildingBlock: XUDNAN_clean_linker_2, # of connection points: 2
#     Edge 16, Type (0, 0), BuildingBlock: XUDNAN_clean_linker_2, # of connection points: 2
#     Edge 17, Type (0, 0), BuildingBlock: XUDNAN_clean_linker_2, # of connection points: 2
#     Edge 18, Type (0, 0), BuildingBlock: XUDNAN_clean_linker_2, # of connection points: 2
#     Edge 19, Type (0, 0), BuildingBlock: XUDNAN_clean_linker_2, # of connection points: 2
#     Edge 20, Type (0, 0), BuildingBlock: XUDNAN_clean_linker_2, # of connection points: 2
#     Edge 21, Type (0, 0), BuildingBlock: XUDNAN_clean_linker_2, # of connection points: 2
#     Edge 22, Type (0, 0), BuildingBlock: XUDNAN_clean_linker_2, # of connection points: 2
#     Edge 23, Type (0, 0), BuildingBlock: XUDNAN_clean_linker_2, # of connection points: 2
#     Edge 24, Type (0, 0), BuildingBlock: XUDNAN_clean_linker_2, # of connection points: 2
#     Edge 25, Type (0, 0), BuildingBlock: XUDNAN_clean_linker_2, # of connection points: 2
#     Edge 26, Type (0, 0), BuildingBlock: XUDNAN_clean_linker_2, # of connection points: 2
#     Edge 27, Type (0, 0), BuildingBlock: XUDNAN_clean_linker_2, # of connection points: 2
#     Edge 28, Type (0, 0), BuildingBlock: XUDNAN_clean_linker_2, # of connection points: 2
#     Edge 29, Type (0, 0), BuildingBlock: XUDNAN_clean_linker_2, # of connection points: 2
#     Edge 30, Type (0, 0), BuildingBlock: XUDNAN_clean_linker_2, # of connection points: 2
#     Edge 31, Type (0, 0), BuildingBlock: XUDNAN_clean_linker_2, # of connection points: 2
#     Edge 32, Type (0, 0), BuildingBlock: XUDNAN_clean_linker_2, # of connection points: 2
#     Edge 33, Type (0, 0), BuildingBlock: XUDNAN_clean_linker_2, # of connection points: 2
#     Edge 34, Type (0, 0), BuildingBlock: XUDNAN_clean_linker_2, # of connection points: 2
#     Edge 35, Type (0, 0), BuildingBlock: XUDNAN_clean_linker_2, # of connection points: 2
# Relax obj value: 0.060
# Max RMSD: 0.044
# Mean RMSD: 0.044
data_MOF--net-can--node1-CEKHIL_clean_sbu_0--edge1-XUDNAN_clean_linker_2
_symmetry_space_group_name_H-M    P1
_symmetry_Int_Tables_number       1
_symmetry_cell_setting            triclinic
loop_
_symmetry_equiv_pos_as_xyz
'x, y, z'
_cell_length_a     54.341451
_cell_length_b     54.447093
_cell_length_c     27.08941
_cell_angle_alpha  90.041816
_cell_angle_beta   89.972293
_cell_angle_gamma 119.98389
loop_
_atom_site_label
_atom_site_type_symbol
_atom_site_fract_x
_atom_site_fract_y
_atom_site_fract_z
_atom_type_partial_charge
Co0 Co 0.0687 0.39017 0.26456 0.0
O1 O 0.08052 0.36212 0.26468 0.0
O2 O 0.10549 0.40499 0.23256 0.0
C3 C 0.05623 0.3852 0.34538 0.0
O4 O 0.06447 0.42542 0.25964 0.0
Co5 Co 0.00633 0.3737 0.28798 0.0
O6 O 0.02132 0.41518 0.28733 0.0
C7 C 0.02028 0.35913 0.1908 0.0
C8 C 0.10382 0.38095 0.24361 0.0
C9 C 0.04604 0.43278 0.27129 0.0
O10 O 0.04715 0.37444 0.20004 0.0
O11 O 1.00105 0.35412 0.22294 0.0
O12 O 0.08256 0.40093 0.33211 0.0
O13 O 0.03878 0.37124 0.31016 0.0
Co14 Co 0.68008 0.06311 0.76406 0.0
O15 O 0.72131 0.08135 0.75865 0.0
O16 O 0.69496 0.09822 0.72848 0.0
C17 C 0.67729 0.05267 0.84529 0.0
O18 O 0.63874 0.05355 0.76423 0.0
Co19 Co 0.6397 1.00054 0.79352 0.0
O20 O 0.60933 0.01068 0.7963 0.0
C21 C 0.66345 0.01404 0.69237 0.0
C22 C 0.72015 0.10196 0.73653 0.0
C23 C 0.614 0.03436 0.77893 0.0
O24 O 0.6742 0.04085 0.70066 0.0
O25 O 0.65125 0.99517 0.72589 0.0
O26 O 0.68429 0.07809 0.83086 0.0
O27 O 0.67442 0.03506 0.81073 0.0
Co28 Co 0.61 0.67485 0.26448 0.0
O29 O 0.63193 0.71595 0.25868 0.0
O30 O 0.58875 0.68863 0.22886 0.0
C31 C 0.61801 0.67285 0.34582 0.0
O32 O 0.57912 0.6332 0.26532 0.0
Co33 Co 0.63459 0.63654 0.29518 0.0
O34 O 0.59425 0.60662 0.30387 0.0
C35 C 0.64414 0.65984 0.19364 0.0
C36 C 0.60967 0.71406 0.23704 0.0
C37 C 0.57467 0.60975 0.28451 0.0
O38 O 0.6271 0.66955 0.2014 0.0
O39 O 0.65135 0.64822 0.22745 0.0
O40 O 0.59887 0.67885 0.33117 0.0
O41 O 0.63313 0.67047 0.31134 0.0
Co42 Co 0.94217 0.6153 0.76561 0.0
O43 O 0.92971 0.64277 0.77 0.0
O44 O 0.90427 0.60007 0.73752 0.0
C45 C 0.95731 0.61979 0.84463 0.0
O46 O 0.94723 0.58064 0.75689 0.0
Co47 Co 1.00548 0.63328 0.77907 0.0
O48 O 0.99089 0.592 0.78312 0.0
C49 C 0.98664 0.64401 0.68357 0.0
C50 C 0.90599 0.62397 0.75005 0.0
C51 C 0.96614 0.57384 0.76808 0.0
O52 O 0.96079 0.63139 0.69944 0.0
O53 O 0.00776 0.6481 0.71036 0.0
O54 O 0.93067 0.60389 0.83346 0.0
O55 O 0.97365 0.63461 0.80859 0.0
Co56 Co 0.33438 0.94299 0.26125 0.0
O57 O 0.29451 0.9301 0.26982 0.0
O58 O 0.31148 0.90361 0.24065 0.0
C59 C 0.34833 0.964 0.33642 0.0
O60 O 0.37405 0.94858 0.2485 0.0
Co61 Co 0.37911 0.00772 0.26309 0.0
O62 O 0.40711 0.99455 0.25984 0.0
C63 C 0.34191 0.98272 0.17625 0.0
C64 C 0.28947 0.9056 0.25354 0.0
C65 C 0.40007 0.96888 0.25095 0.0
O66 O 0.33352 0.95737 0.19216 0.0
O67 O 0.35734 0.00505 0.20177 0.0
O68 O 0.33779 0.9368 0.33211 0.0
O69 O 0.34775 0.97677 0.29683 0.0
Co70 Co 0.3989 0.33052 0.76038 0.0
O71 O 0.37693 0.28929 0.76441 0.0
O72 O 0.41992 0.31417 0.73221 0.0
C73 C 0.39175 0.33895 0.83946 0.0
O74 O 0.42973 0.37177 0.75187 0.0
Co75 Co 0.37517 0.37096 0.77647 0.0
O76 O 0.41561 0.40163 0.77896 0.0
C77 C 0.36403 0.33956 0.68194 0.0
C78 C 0.39907 0.28962 0.74533 0.0
C79 C 0.43491 0.39685 0.76318 0.0
O80 O 0.38118 0.33059 0.69414 0.0
O81 O 0.35725 0.35365 0.71136 0.0
O82 O 0.41104 0.33239 0.82891 0.0
O83 O 0.37617 0.33842 0.80303 0.0
Co84 Co 0.61159 0.93726 0.24274 0.0
O85 O 0.63225 0.91657 0.2428 0.0
O86 O 0.5863 0.89786 0.25738 0.0
C87 C 0.63001 0.96108 0.17137 0.0
O88 O 0.58165 0.94955 0.24323 0.0
Co89 Co 0.63947 1.00278 0.24557 0.0
O90 O 0.60204 0.99515 0.22009 0.0
C91 C 0.63525 0.97136 0.33761 0.0
C92 C 0.60783 0.89402 0.25128 0.0
C93 C 0.58012 0.97115 0.2282 0.0
O94 O 0.62054 0.94732 0.31528 0.0
O95 O 0.64584 0.9953 0.31545 0.0
O96 O 0.60938 0.93494 0.17049 0.0
O97 O 0.64011 0.97108 0.21453 0.0
Co98 Co 0.68056 0.61933 0.74333 0.0
O99 O 0.72066 0.64677 0.74142 0.0
O100 O 0.70293 0.60126 0.75766 0.0
C101 C 0.66909 0.63294 0.67203 0.0
O102 O 0.64071 0.58437 0.74639 0.0
Co103 Co 0.63518 0.63839 0.74946 0.0
O104 O 0.6076 0.59758 0.74033 0.0
C105 C 0.66755 0.64084 0.83871 0.0
C106 C 0.72529 0.62607 0.75107 0.0
C107 C 0.61463 0.57853 0.7432 0.0
O108 O 0.67872 0.62786 0.81599 0.0
O109 O 0.65187 0.64892 0.81715 0.0
O110 O 0.67979 0.61628 0.67103 0.0
O111 O 0.66818 0.64267 0.71497 0.0
Co112 Co 0.07113 0.67901 0.245 0.0
O113 O 0.08323 0.71885 0.24116 0.0
O114 O 0.11087 0.70184 0.26379 0.0
C115 C 0.04869 0.66684 0.17084 0.0
O116 O 0.06675 0.63947 0.25109 0.0
Co117 Co 0.00677 0.6333 0.24514 0.0
O118 O 0.02108 0.60643 0.23763 0.0
C119 C 0.03247 0.66913 0.33289 0.0
C120 C 0.10824 0.72387 0.25465 0.0
C121 C 0.04696 0.61346 0.24478 0.0
O122 O 0.05772 0.67763 0.31594 0.0
O123 O 0.00988 0.65412 0.30773 0.0
O124 O 0.0761 0.67786 0.17303 0.0
O125 O 0.03656 0.66604 0.21214 0.0
Co126 Co 0.3993 0.06774 0.74378 0.0
O127 O 0.37769 0.08746 0.73938 0.0
O128 O 0.41989 0.10446 0.77408 0.0
C129 C 0.39393 0.05313 0.66445 0.0
O130 O 0.42986 0.05691 0.75315 0.0
Co131 Co 0.37522 0.00384 0.72922 0.0
O132 O 0.41525 0.01239 0.7287 0.0
C133 C 0.36599 0.02415 0.82453 0.0
C134 C 0.39931 0.10862 0.76091 0.0
C135 C 0.43468 0.03655 0.74357 0.0
O136 O 0.38076 0.04988 0.80896 0.0
O137 O 0.36033 1.00258 0.79772 0.0
O138 O 0.41256 0.0789 0.67682 0.0
O139 O 0.37718 0.03744 0.69952 0.0
Co140 Co 0.33049 0.38913 0.2403 0.0
O141 O 0.29077 0.36168 0.23114 0.0
O142 O 0.30681 0.4046 0.26195 0.0
C143 C 0.3445 0.38364 0.16449 0.0
O144 O 0.3695 0.42377 0.25355 0.0
Co145 Co 0.3774 0.37286 0.23673 0.0
O146 O 0.4033 0.41427 0.22861 0.0
C147 C 0.34362 0.36215 0.3283 0.0
C148 C 0.28516 0.38068 0.24794 0.0
C149 C 0.39555 0.43159 0.24322 0.0
O150 O 0.33014 0.37364 0.30867 0.0
O151 O 0.36214 0.35869 0.30481 0.0
O152 O 0.33388 0.4001 0.1709 0.0
O153 O 0.3445 0.36947 0.20273 0.0
Co154 Co 0.93935 0.32781 0.74299 0.0
O155 O 0.92192 0.2866 0.74015 0.0
O156 O 0.89949 0.31 0.75774 0.0
C157 C 0.96384 0.33739 0.67112 0.0
O158 O 0.94735 0.36863 0.74662 0.0
Co159 Co 1.00407 0.37061 0.74703 0.0
O160 O 0.99362 0.40032 0.73707 0.0
C161 C 0.97427 0.33918 0.83736 0.0
C162 C 0.89804 0.28586 0.74932 0.0
C163 C 0.96787 0.39428 0.74163 0.0
O164 O 0.94989 0.32851 0.81544 0.0
O165 O 0.99791 0.3544 0.81507 0.0
O166 O 0.93688 0.32903 0.67086 0.0
O167 O 0.97448 0.33748 0.71375 0.0
H168 H 0.04866 0.37929 0.1023 0.0
H169 H 0.96859 0.31476 0.1645 0.0
H170 H 0.94866 0.30058 0.08086 0.0
H171 H 0.01898 0.40096 0.00957 0.0
H172 H 0.04525 0.407 0.96326 0.0
H173 H 0.05448 0.41009 0.02764 0.0
H174 H 0.07083 0.37311 0.01684 0.0
H175 H 0.0619 0.37012 0.95222 0.0
H176 H 0.04672 0.33891 0.99058 0.0
H177 H 0.9356 0.29655 0.99034 0.0
H178 H 0.93192 0.30161 0.90009 0.0
H179 H 0.02044 0.36825 0.89752 0.0
C180 C 0.02721 0.36167 0.09827 0.0
C181 C 0.01029 0.34812 0.14012 0.0
C182 C 0.98204 0.32554 0.13311 0.0
C183 C 0.97047 0.31727 0.08567 0.0
C184 C 0.98736 0.33165 0.04526 0.0
C185 C 0.01523 0.35318 0.05102 0.0
C186 C 0.02828 0.36629 1.00167 0.0
C187 C 0.03726 0.39795 1.00049 0.0
C188 C 0.05342 0.36183 0.98962 0.0
C189 C 1.00332 0.34908 0.96758 0.0
C190 C 0.97989 0.32916 0.99327 0.0
C191 C 0.95396 0.31183 0.96969 0.0
C192 C 0.95201 0.31491 0.91846 0.0
C193 C 0.97587 0.33511 0.89137 0.0
C194 C 1.00181 0.35225 0.91668 0.0
H195 H 0.65517 0.01744 0.3989 0.0
H196 H 0.62575 0.92715 0.39937 0.0
H197 H 0.63362 0.92928 0.48969 0.0
H198 H 0.70978 0.03821 0.49271 0.0
H199 H 0.70266 0.06436 0.51939 0.0
H200 H 0.69633 0.05602 0.45461 0.0
H201 H 0.64414 0.04423 0.46502 0.0
H202 H 0.65034 0.05268 0.52969 0.0
H203 H 0.62194 0.01846 0.51048 0.0
H204 H 0.64334 0.9412 0.58021 0.0
H205 H 0.65099 0.96076 0.66431 0.0
H206 H 0.67343 0.04337 0.60451 0.0
C207 C 0.65063 0.99807 0.4177 0.0
C208 C 0.63999 0.97209 0.39177 0.0
C209 C 0.63393 0.94728 0.41826 0.0
C210 C 0.63847 0.94834 0.46953 0.0
C211 C 0.64901 0.97434 0.49374 0.0
C212 C 0.65485 0.99872 0.46867 0.0
C213 C 0.66454 0.0237 0.50351 0.0
C214 C 0.69515 0.04694 0.49185 0.0
C215 C 0.64401 0.03544 0.50209 0.0
C216 C 0.66295 0.00954 0.55242 0.0
C217 C 0.65422 0.98114 0.54587 0.0
C218 C 0.65028 0.96342 0.58568 0.0
C219 C 0.6547 0.97481 0.63343 0.0
C220 C 0.66285 0.0037 0.64129 0.0
C221 C 0.66755 0.02134 0.59994 0.0
H222 H 0.6265 0.67148 0.10538 0.0
H223 H 0.686 0.64843 0.16686 0.0
H224 H 0.70074 0.64388 0.08307 0.0
H225 H 0.60364 0.62328 0.00691 0.0
H226 H 0.60069 0.64652 0.96297 0.0
H227 H 0.59661 0.65062 0.02785 0.0
H228 H 0.63666 0.70321 0.02348 0.0
H229 H 0.64075 0.69929 0.95842 0.0
H230 H 0.67092 0.71183 0.99907 0.0
H231 H 0.70614 0.63761 0.99203 0.0
H232 H 0.70258 0.63193 0.90113 0.0
H233 H 0.64033 0.65979 0.89966 0.0
C234 C 0.64303 0.66605 0.10131 0.0
C235 C 0.65501 0.66034 0.14299 0.0
C236 C 0.67635 0.65288 0.13572 0.0
C237 C 0.68497 0.65027 0.08816 0.0
C238 C 0.67226 0.65535 0.04792 0.0
C239 C 0.65193 0.66333 0.05397 0.0
C240 C 0.64064 0.66623 0.00455 0.0
C241 C 0.6085 0.64542 1.00034 0.0
C242 C 0.64767 0.69697 0.99588 0.0
C243 C 0.65738 0.65812 0.97001 0.0
C244 C 0.6756 0.65202 0.99559 0.0
C245 C 0.69219 0.6427 0.97151 0.0
C246 C 0.68999 0.63946 0.91987 0.0
C247 C 0.67136 0.64556 0.89293 0.0
C248 C 0.65509 0.65524 0.91872 0.0
H249 H 0.0592 0.66662 0.41798 0.0
H250 H 0.99401 0.68341 0.36364 0.0
H251 H 0.978 0.68317 0.44879 0.0
H252 H 0.0178 0.61795 0.50622 0.0
H253 H 0.04479 0.62839 0.55301 0.0
H254 H 0.05475 0.6347 0.48896 0.0
H255 H 0.08771 0.68819 0.5067 0.0
H256 H 0.07818 0.68198 0.5711 0.0
H257 H 0.07355 0.70788 0.53726 0.0
H258 H 0.96382 0.67335 0.53696 0.0
H259 H 0.95538 0.65901 0.62466 0.0
H260 H 0.03019 0.64974 0.62412 0.0
C261 C 0.04238 0.67143 0.42435 0.0
C262 C 0.02805 0.67538 0.38429 0.0
C263 C 1.0054 0.68056 0.39386 0.0
C264 C 0.99612 0.68044 0.44211 0.0
C265 C 0.00976 0.67522 0.48071 0.0
C266 C 0.0327 0.67126 0.47265 0.0
C267 C 0.04192 0.66373 0.52052 0.0
C268 C 0.03966 0.63446 0.51694 0.0
C269 C 0.07213 0.68683 0.53474 0.0
C270 C 0.02004 0.66322 0.5561 0.0
C271 C 1.00175 0.66999 0.53233 0.0
C272 C 0.97838 0.66864 0.55632 0.0
C273 C 0.97363 0.6603 0.60604 0.0
C274 C 0.99228 0.65361 0.63143 0.0
C275 C 0.01591 0.65534 0.60603 0.0
H276 H 0.35608 0.97945 0.88457 0.0
H277 H 0.35461 0.0584 0.88257 0.0
H278 H 0.34105 0.05194 0.97065 0.0
H279 H 0.29754 0.94088 0.97465 0.0
H280 H 0.31545 0.92459 0.00442 0.0
H281 H 0.32106 0.93313 0.93961 0.0
H282 H 0.37536 0.96277 0.95439 0.0
H283 H 0.36992 0.9542 0.01904 0.0
H284 H 0.38896 0.99077 0.99974 0.0
H285 H 0.33194 0.03947 0.05954 0.0
H286 H 0.33178 0.02411 0.14509 0.0
H287 H 0.34023 0.95358 0.09166 0.0
C288 C 0.35221 0.99501 0.90239 0.0
C289 C 0.35602 0.01928 0.8765 0.0
C290 C 0.35166 0.03961 0.90155 0.0
C291 C 0.34378 0.03601 0.9515 0.0
C292 C 0.3405 0.01205 0.97608 0.0
C293 C 0.34474 0.99196 0.95253 0.0
C294 C 0.34282 0.96978 0.98879 0.0
C295 C 0.31772 0.94035 0.9761 0.0
C296 C 0.37093 0.96938 0.99059 0.0
C297 C 0.33753 0.98092 0.03665 0.0
C298 C 0.33576 0.00506 0.02813 0.0
C299 C 0.33291 0.02041 0.06659 0.0
C300 C 0.33283 0.01149 0.11508 0.0
C301 C 0.33568 0.98748 0.12502 0.0
C302 C 0.33724 0.97153 0.08514 0.0
H303 H 0.37632 0.34919 0.38853 0.0
H304 H 0.30072 0.35719 0.38897 0.0
H305 H 0.29494 0.34661 0.4783 0.0
H306 H 0.35227 0.29221 0.48163 0.0
H307 H 0.38704 0.30708 0.50903 0.0
H308 H 0.38354 0.31213 0.4442 0.0
H309 H 0.41401 0.36654 0.45564 0.0
H310 H 0.41766 0.36166 0.52034 0.0
H311 H 0.40354 0.38384 0.50097 0.0
H312 H 0.29945 0.33898 0.56827 0.0
H313 H 0.31494 0.33717 0.65293 0.0
H314 H 0.38807 0.33453 0.59512 0.0
C315 C 0.35817 0.34816 0.40707 0.0
C316 C 0.3388 0.35381 0.38135 0.0
C317 C 0.31577 0.35284 0.40757 0.0
C318 C 0.31225 0.34673 0.45834 0.0
C319 C 0.33192 0.3416 0.48253 0.0
C320 C 0.35446 0.34228 0.45779 0.0
C321 C 0.37384 0.33821 0.49314 0.0
C322 C 0.37418 0.31077 0.48128 0.0
C323 C 0.40404 0.36411 0.49248 0.0
C324 C 0.35906 0.33581 0.54192 0.0
C325 C 0.33471 0.33745 0.53474 0.0
C326 C 0.31829 0.33738 0.57423 0.0
C327 C 0.32732 0.33636 0.62226 0.0
C328 C 0.35265 0.33552 0.63081 0.0
C329 C 0.36832 0.33455 0.58987 0.0
H330 H 0.01188 0.65254 0.88153 0.0
H331 H 0.92566 0.59032 0.92367 0.0
H332 H 0.94077 0.59385 0.01012 0.0
H333 H 0.04748 0.62884 0.97001 0.0
H334 H 0.0757 0.66435 0.98294 0.0
H335 H 0.05878 0.65589 0.92325 0.0
H336 H 0.04699 0.69621 0.93325 0.0
H337 H 0.0638 0.70474 0.99296 0.0
H338 H 0.02747 0.69664 0.98677 0.0
H339 H 0.96334 0.60656 0.09196 0.0
H340 H 0.993 0.6264 0.16577 0.0
H341 H 0.06591 0.67935 0.07347 0.0
C342 C 0.99631 0.63944 0.90893 0.0
C343 C 0.96755 0.62116 0.89578 0.0
C344 C 0.94778 0.60448 0.93273 0.0
C345 C 0.95615 0.60629 0.98202 0.0
C346 C 0.98446 0.62472 0.99394 0.0
C347 C 1.00438 0.64088 0.95864 0.0
C348 C 0.03326 0.65962 0.98224 0.0
C349 C 0.0551 0.65169 0.96349 0.0
C350 C 0.04347 0.69117 0.97327 0.0
C351 C 0.0262 0.65183 0.03631 0.0
C352 C 0.99788 0.63162 0.0419 0.0
C353 C 0.98565 0.62209 0.08811 0.0
C354 C 1.00272 0.63358 0.12991 0.0
C355 C 0.03185 0.65422 0.12547 0.0
C356 C 0.04382 0.66324 0.07792 0.0
H357 H 0.33283 0.9466 0.43279 0.0
H358 H 0.39239 0.01781 0.34352 0.0
H359 H 0.41212 0.04666 0.41838 0.0
H360 H 0.31746 0.98763 0.51543 0.0
H361 H 0.31441 0.96722 0.56979 0.0
H362 H 0.30677 0.95062 0.50994 0.0
H363 H 0.34381 0.93472 0.5248 0.0
H364 H 0.35148 0.95118 0.58487 0.0
H365 H 0.37976 0.96079 0.54092 0.0
H366 H 0.42392 0.06877 0.50076 0.0
H367 H 0.42642 0.08381 0.58701 0.0
H368 H 0.35813 0.99964 0.62561 0.0
C369 C 0.35043 0.96807 0.42933 0.0
C370 C 0.36131 0.97991 0.38237 0.0
C371 C 0.38379 0.00829 0.37902 0.0
C372 C 0.39522 0.02485 0.4214 0.0
C373 C 0.38375 0.01285 0.46702 0.0
C374 C 0.36181 0.98518 0.47151 0.0
C375 C 0.35214 0.97844 0.52494 0.0
C376 C 0.32084 0.97052 0.53032 0.0
C377 C 0.3571 0.95488 0.54507 0.0
C378 C 0.37185 0.00674 0.54942 0.0
C379 C 0.39008 0.02608 0.51516 0.0
C380 C 0.40988 0.05381 0.52804 0.0
C381 C 0.41109 0.06215 0.57723 0.0
C382 C 0.39247 0.04295 0.61317 0.0
C383 C 0.37268 0.01478 0.59902 0.0
H384 H 0.35155 0.31257 0.9108 0.0
H385 H 0.42894 0.39075 0.87704 0.0
H386 H 0.42557 0.41104 0.95709 0.0
H387 H 0.31481 0.3426 0.97288 0.0
H388 H 0.29943 0.31535 0.01939 0.0
H389 H 0.30787 0.30726 0.95944 0.0
H390 H 0.33905 0.28923 1.00013 0.0
H391 H 0.33063 0.29719 0.06024 0.0
H392 H 0.3672 0.31217 0.04158 0.0
H393 H 0.41161 0.42368 0.03856 0.0
H394 H 0.39089 0.42602 0.11894 0.0
H395 H 0.32534 0.33806 0.10318 0.0
C396 C 0.36779 0.3339 0.92059 0.0
C397 C 0.39041 0.35031 0.88807 0.0
C398 C 0.41145 0.37802 0.90174 0.0
C399 C 0.40966 0.38966 0.94699 0.0
C400 C 0.38698 0.37303 0.97839 0.0
C401 C 0.36666 0.34557 0.96613 0.0
C402 C 0.34487 0.33191 0.00697 0.0
C403 C 0.31498 0.32381 0.98856 0.0
C404 C 0.34549 0.3061 0.0285 0.0
C405 C 0.35585 0.35606 0.04385 0.0
C406 C 0.37997 0.37973 0.02643 0.0
C407 C 0.39299 0.40515 0.05284 0.0
C408 C 0.38111 0.40634 0.09826 0.0
C409 C 0.35688 0.38213 0.11706 0.0
C410 C 0.3442 0.35669 0.08969 0.0
H411 H 0.94782 0.32651 0.5735 0.0
H412 H 0.021 0.37367 0.66855 0.0
H413 H 0.05185 0.39274 0.59552 0.0
H414 H 0.98453 0.30677 0.48578 0.0
H415 H 0.96576 0.30921 0.43289 0.0
H416 H 0.94888 0.30062 0.49256 0.0
H417 H 0.93985 0.34293 0.48564 0.0
H418 H 0.95676 0.35168 0.42596 0.0
H419 H 0.96932 0.378 0.47421 0.0
H420 H 0.07505 0.40636 0.51283 0.0
H421 H 0.0896 0.41144 0.42542 0.0
H422 H 1.00211 0.35394 0.38298 0.0
C423 C 0.9703 0.34107 0.5788 0.0
C424 C 0.98197 0.34883 0.62674 0.0
C425 C 0.01154 0.36749 0.63227 0.0
C426 C 0.02927 0.37852 0.59097 0.0
C427 C 0.01719 0.37039 0.54426 0.0
C428 C 0.98845 0.3519 0.53783 0.0
C429 C 0.9813 0.34534 0.48352 0.0
C430 C 0.96942 0.3136 0.47309 0.0
C431 C 0.96058 0.35508 0.46633 0.0
C432 C 0.01046 0.36321 0.46057 0.0
C433 C 0.0308 0.37761 0.49633 0.0
C434 C 0.05933 0.39521 0.48444 0.0
C435 C 0.06739 0.39797 0.43468 0.0
C436 C 0.04703 0.3831 0.39739 0.0
C437 C 0.01816 0.36564 0.41064 0.0
H438 H 0.64835 0.99872 0.88315 0.0
H439 H 0.69428 0.08742 0.92574 0.0
H440 H 0.68689 0.07347 0.01365 0.0
H441 H 0.59541 0.97627 0.98067 0.0
H442 H 0.59347 0.94251 0.9891 0.0
H443 H 0.60245 0.95947 0.92953 0.0
H444 H 0.6488 0.9569 0.92878 0.0
H445 H 0.64001 0.94003 0.98841 0.0
H446 H 0.67353 0.97211 0.97928 0.0
H447 H 0.67691 0.05 0.0963 0.0
H448 H 0.66177 0.01877 0.16907 0.0
H449 H 0.61945 0.94504 0.07366 0.0
C450 C 0.65682 0.01519 0.911 0.0
C451 C 0.67204 0.04417 0.89774 0.0
C452 C 0.68255 0.06512 0.93516 0.0
C453 C 0.67851 0.05739 0.98514 0.0
C454 C 0.66356 0.02864 0.99702 0.0
C455 C 0.65255 0.00785 0.9611 0.0
C456 C 0.63682 0.97851 0.98395 0.0
C457 C 0.60516 0.9633 0.96998 0.0
C458 C 0.65062 0.96085 0.96923 0.0
C459 C 0.64108 0.98605 0.03835 0.0
C460 C 0.65672 0.0151 0.04493 0.0
C461 C 0.66437 0.02725 0.09165 0.0
C462 C 0.65568 0.00928 0.13279 0.0
C463 C 0.63918 0.97946 0.12711 0.0
C464 C 0.63178 0.96776 0.07917 0.0
H465 H 0.64865 0.64969 0.38404 0.0
H466 H 0.5948 0.6841 0.42598 0.0
H467 H 0.60118 0.67652 0.51388 0.0
H468 H 0.62306 0.59496 0.47859 0.0
H469 H 0.65745 0.59837 0.48837 0.0
H470 H 0.64838 0.60619 0.42872 0.0
H471 H 0.69305 0.65625 0.4313 0.0
H472 H 0.70224 0.64862 0.49095 0.0
H473 H 0.69823 0.6793 0.48288 0.0
H474 H 0.6154 0.66764 0.59688 0.0
H475 H 0.63453 0.65585 0.66984 0.0
H476 H 0.6774 0.62495 0.57444 0.0
C477 C 0.63813 0.65556 0.41172 0.0
C478 C 0.6213 0.66759 0.39826 0.0
C479 C 0.60777 0.67484 0.43551 0.0
C480 C 0.61128 0.67063 0.4855 0.0
C481 C 0.62812 0.65886 0.49754 0.0
C482 C 0.64114 0.65118 0.46177 0.0
C483 C 0.65806 0.63885 0.4847 0.0
C484 C 0.64601 0.60774 0.46917 0.0
C485 C 0.68977 0.65683 0.47168 0.0
C486 C 0.65289 0.64121 0.53904 0.0
C487 C 0.63562 0.65288 0.54553 0.0
C488 C 0.6287 0.65822 0.59227 0.0
C489 C 0.63972 0.65148 0.63352 0.0
C490 C 0.65728 0.63928 0.62785 0.0
C491 C 0.66377 0.63395 0.57991 0.0
H492 H 0.00961 0.55639 0.24447 0.0
H493 H 0.09984 0.61768 0.25083 0.0
H494 H 0.11014 0.57822 0.25566 0.0
H495 H 0.01005 0.50796 0.33081 0.0
H496 H 0.98353 0.47705 0.29851 0.0
H497 H 0.9838 0.51013 0.29331 0.0
H498 H 0.98663 0.50789 0.19799 0.0
H499 H 0.98636 0.47477 0.20288 0.0
H500 H 0.01476 0.50414 0.17036 0.0
H501 H 0.10993 0.53072 0.25993 0.0
H502 H 0.09908 0.48084 0.26733 0.0
H503 H 0.00899 0.45244 0.26068 0.0
C504 C 0.03162 0.56172 0.24657 0.0
C505 C 0.05391 0.59027 0.24709 0.0
C506 C 0.08235 0.59602 0.25032 0.0
C507 C 0.08842 0.57373 0.25297 0.0
C508 C 0.06581 0.54583 0.25248 0.0
C509 C 0.03799 0.53991 0.24951 0.0
C510 C 0.01731 0.50836 0.25104 0.0
C511 C 0.99752 0.50042 0.2961 0.0
C512 C 1.00027 0.4982 0.20269 0.0
C513 C 0.03772 0.49729 0.25601 0.0
C514 C 0.06566 0.51905 0.25618 0.0
C515 C 0.08811 0.51358 0.25993 0.0
C516 C 0.08176 0.4852 0.26401 0.0
C517 C 0.05319 0.46272 0.26498 0.0
C518 C 0.03106 0.46908 0.26063 0.0
H519 H 0.45204 0.99709 0.75376 0.0
H520 H 0.48374 0.08774 0.74749 0.0
H521 H 0.53274 0.09684 0.75654 0.0
H522 H 0.50195 1.00086 0.84624 0.0
H523 H 0.50569 0.97261 0.81936 0.0
H524 H 0.47298 0.97306 0.81194 0.0
H525 H 0.47708 0.97084 0.71693 0.0
H526 H 0.50979 0.97037 0.72405 0.0
H527 H 0.50886 0.99713 0.68627 0.0
H528 H 0.57836 0.09624 0.76313 0.0
H529 H 0.61758 0.08606 0.77115 0.0
H530 H 0.55652 0.99588 0.77707 0.0
C531 C 0.46929 0.01885 0.75423 0.0
C532 C 0.46401 0.04171 0.74978 0.0
C533 C 0.48719 0.06988 0.75102 0.0
C534 C 0.51514 0.07528 0.75603 0.0
C535 C 0.5196 0.05231 0.76031 0.0
C536 C 0.49735 0.02466 0.75989 0.0
C537 C 0.50803 0.00388 0.76595 0.0
C538 C 0.49648 0.98659 0.81372 0.0
C539 C 0.50049 0.98441 0.72059 0.0
C540 C 0.53977 0.02418 0.76931 0.0
C541 C 0.54595 0.052 0.76571 0.0
C542 C 0.57378 0.07455 0.76634 0.0
C543 C 0.59593 0.06853 0.77077 0.0
C544 C 0.59017 0.04018 0.77498 0.0
C545 C 0.56163 0.01778 0.77447 0.0
H546 H 0.54954 0.56805 0.21532 0.0
H547 H 0.53462 0.5975 0.35458 0.0
H548 H 0.48532 0.55675 0.35611 0.0
H549 H 0.47751 0.5414 0.16532 0.0
H550 H 0.4768 0.51148 0.13542 0.0
H551 H 0.51008 0.54394 0.14372 0.0
H552 H 0.53066 0.51637 0.18938 0.0
H553 H 0.49756 0.48387 0.18099 0.0
H554 H 0.51206 0.49487 0.24213 0.0
H555 H 0.43797 0.51231 0.34271 0.0
H556 H 0.39765 0.46538 0.31947 0.0
H557 H 0.44428 0.46392 0.19062 0.0
C558 C 0.53571 0.56586 0.24586 0.0
C559 C 0.54549 0.58566 0.28484 0.0
C560 C 0.52718 0.58238 0.32445 0.0
C561 C 0.49923 0.55944 0.32546 0.0
C562 C 0.49004 0.54015 0.2864 0.0
C563 C 0.50776 0.54308 0.2474 0.0
C564 C 0.49307 0.51879 0.21113 0.0
C565 C 0.48913 0.52955 0.16092 0.0
C566 C 0.5093 0.50251 0.20563 0.0
C567 C 0.46478 0.50111 0.23684 0.0
C568 C 0.46315 0.51418 0.27949 0.0
C569 C 0.439 0.50192 0.30934 0.0
C570 C 0.41616 0.47536 0.29575 0.0
C571 C 0.41793 0.46111 0.25335 0.0
C572 C 0.44244 0.47437 0.22332 0.0
H573 H 1.00338 0.554 0.77575 0.0
H574 H 0.9147 0.52617 0.74638 0.0
H575 H 0.90511 0.47691 0.73628 0.0
H576 H 0.01053 0.50917 0.68784 0.0
H577 H 0.03385 0.50285 0.72634 0.0
H578 H 0.03329 0.53551 0.7321 0.0
H579 H 0.02221 0.52599 0.8255 0.0
H580 H 0.0228 0.49333 0.82007 0.0
H581 H 0.99194 0.4931 0.84507 0.0
H582 H 0.90557 0.4302 0.73083 0.0
H583 H 0.91617 0.39099 0.72794 0.0
H584 H 1.0049 0.45073 0.75848 0.0
C585 C 0.98184 0.53764 0.76734 0.0
C586 C 0.95975 0.54406 0.76203 0.0
C587 C 0.93198 0.52186 0.75066 0.0
C588 C 0.92635 0.49381 0.74491 0.0
C589 C 0.94872 0.48834 0.75039 0.0
C590 C 0.97592 0.50974 0.76121 0.0
C591 C 0.99643 0.49863 0.76471 0.0
C592 C 0.0199 0.51235 0.7254 0.0
C593 C 0.00908 0.50302 0.81694 0.0
C594 C 0.97661 0.46756 0.75398 0.0
C595 C 0.94912 0.46191 0.74617 0.0
C596 C 0.92705 0.43447 0.73669 0.0
C597 C 0.93328 0.41232 0.7352 0.0
C598 C 0.9614 0.41776 0.74268 0.0
C599 C 0.98324 0.44584 0.75205 0.0
H600 H 0.42784 0.94757 0.3058 0.0
H601 H 0.42518 0.98105 0.16215 0.0
H602 H 0.46922 0.9814 0.13812 0.0
H603 H 0.50079 0.9886 0.32277 0.0
H604 H 0.50573 0.96178 0.35257 0.0
H605 H 0.47199 0.96037 0.35667 0.0
H606 H 0.4467 0.9095 0.32064 0.0
H607 H 0.48037 0.91062 0.3169 0.0
H608 H 0.45852 0.90278 0.26262 0.0
H609 H 0.51656 0.98509 0.13411 0.0
H610 H 0.56279 0.98763 0.14747 0.0
H611 H 0.53463 0.94926 0.29171 0.0
C612 C 0.43611 0.95397 0.26878 0.0
C613 C 0.42303 0.96377 0.23526 0.0
C614 C 0.43479 0.97302 0.18777 0.0
C615 C 0.45978 0.97335 0.17392 0.0
C616 C 0.47269 0.96425 0.20801 0.0
C617 C 0.46112 0.9543 0.25422 0.0
C618 C 0.4804 0.9475 0.28476 0.0
C619 C 0.49031 0.96565 0.33197 0.0
C620 C 0.46561 0.91571 0.29694 0.0
C621 C 0.50486 0.95591 0.24899 0.0
C622 C 0.49993 0.96557 0.205 0.0
C623 C 0.52041 0.97696 0.16789 0.0
C624 C 0.54661 0.97847 0.17585 0.0
C625 C 0.55195 0.96827 0.22019 0.0
C626 C 0.53071 0.95656 0.257 0.0
H627 H 0.55972 0.5584 0.7723 0.0
H628 H 0.617 0.5309 0.71695 0.0
H629 H 0.5773 0.48116 0.71659 0.0
H630 H 0.51998 0.49801 0.85331 0.0
H631 H 0.48682 0.49714 0.84263 0.0
H632 H 0.51982 0.53025 0.8389 0.0
H633 H 0.50701 0.53797 0.7503 0.0
H634 H 0.47404 0.50487 0.75367 0.0
H635 H 0.49859 0.51108 0.70405 0.0
H636 H 0.53054 0.43461 0.71964 0.0
H637 H 0.48149 0.39491 0.72896 0.0
H638 H 0.45544 0.45332 0.78448 0.0
C639 C 0.56397 0.54195 0.76 0.0
C640 C 0.59143 0.54854 0.74424 0.0
C641 C 0.59615 0.52632 0.7292 0.0
C642 C 0.57373 0.49806 0.72879 0.0
C643 C 0.54686 0.49238 0.74422 0.0
C644 C 0.54202 0.51371 0.76004 0.0
C645 C 0.51138 0.50209 0.77551 0.0
C646 C 0.5094 0.50717 0.83087 0.0
C647 C 0.49691 0.51476 0.74398 0.0
C648 C 0.49943 0.47091 0.76463 0.0
C649 C 0.52024 0.46569 0.74684 0.0
C650 C 0.51415 0.43847 0.73377 0.0
C651 C 0.48614 0.41604 0.73916 0.0
C652 C 0.46444 0.42087 0.75744 0.0
C653 C 0.47139 0.44879 0.77035 0.0
H654 H 0.16107 0.4203 0.24163 0.0
H655 H 0.10127 0.32997 0.23456 0.0
H656 H 0.14113 0.32037 0.23426 0.0
H657 H 0.217 0.42042 0.16504 0.0
H658 H 0.24539 0.44664 0.20256 0.0
H659 H 0.21227 0.44655 0.19797 0.0
H660 H 0.20763 0.44363 0.29321 0.0
H661 H 0.24055 0.44336 0.29807 0.0
H662 H 0.20865 0.41517 0.32538 0.0
H663 H 0.1871 0.32028 0.23702 0.0
H664 H 0.23637 0.32964 0.24239 0.0
H665 H 0.26706 0.41995 0.25236 0.0
C666 C 0.15645 0.39856 0.23888 0.0
C667 C 0.12804 0.37585 0.2374 0.0
C668 C 0.12283 0.34766 0.2353 0.0
C669 C 0.14535 0.34201 0.23521 0.0
C670 C 0.17306 0.36476 0.23782 0.0
C671 C 0.17876 0.3925 0.2396 0.0
C672 C 0.2105 0.4129 0.24474 0.0
C673 C 0.22196 0.4328 0.1999 0.0
C674 C 0.21721 0.42975 0.29324 0.0
C675 C 0.22166 0.39229 0.24568 0.0
C676 C 0.19965 0.36465 0.24129 0.0
C677 C 0.20451 0.34184 0.24052 0.0
C678 C 0.23259 0.34737 0.24369 0.0
C679 C 0.25559 0.37548 0.24815 0.0
C680 C 0.24993 0.3982 0.24959 0.0
H681 H 0.88132 0.22956 0.77119 0.0
H682 H 0.8514 0.28382 0.71106 0.0
H683 H 0.80468 0.24205 0.69453 0.0
H684 H 0.84152 0.16872 0.68971 0.0
H685 H 0.83261 0.14264 0.7376 0.0
H686 H 0.86487 0.17645 0.74187 0.0
H687 H 0.84948 0.18508 0.82762 0.0
H688 H 0.81734 0.1512 0.82377 0.0
H689 H 0.81543 0.1829 0.83422 0.0
H690 H 0.76165 0.19552 0.68365 0.0
H691 H 0.72169 0.14675 0.68962 0.0
H692 H 0.77642 0.12099 0.76233 0.0
C693 C 0.86489 0.23248 0.75437 0.0
C694 C 0.87002 0.25995 0.74219 0.0
C695 C 0.84792 0.26304 0.72092 0.0
C696 C 0.82135 0.23941 0.71098 0.0
C697 C 0.81688 0.21267 0.72323 0.0
C698 C 0.83772 0.20896 0.74532 0.0
C699 C 0.82612 0.17786 0.75822 0.0
C700 C 0.84225 0.1657 0.73017 0.0
C701 C 0.82715 0.17404 0.81429 0.0
C702 C 0.79564 0.1649 0.73989 0.0
C703 C 0.79112 0.18546 0.71909 0.0
C704 C 0.76485 0.17919 0.69996 0.0
C705 C 0.74225 0.15132 0.70344 0.0
C706 C 0.74578 0.12992 0.72646 0.0
C707 C 0.77307 0.13677 0.74412 0.0
H708 H 0.64932 0.77115 0.24909 0.0
H709 H 0.56139 0.71351 0.20906 0.0
H710 H 0.55208 0.75327 0.20871 0.0
H711 H 0.63732 0.81497 0.32933 0.0
H712 H 0.66751 0.84802 0.31015 0.0
H713 H 0.66841 0.8155 0.30465 0.0
H714 H 0.67952 0.82467 0.21134 0.0
H715 H 0.6791 0.85746 0.21668 0.0
H716 H 0.65645 0.83111 0.17237 0.0
H717 H 0.55041 0.79737 0.2218 0.0
H718 H 0.55818 0.84548 0.23444 0.0
H719 H 0.64793 0.8768 0.25988 0.0
C720 C 0.62829 0.76704 0.23926 0.0
C721 C 0.60608 0.7391 0.22918 0.0
C722 C 0.57881 0.73462 0.21676 0.0
C723 C 0.57322 0.75709 0.21669 0.0
C724 C 0.59523 0.78413 0.22825 0.0
C725 C 0.6224 0.78945 0.23813 0.0
C726 C 0.64209 0.82077 0.24911 0.0
C727 C 0.65456 0.82505 0.30142 0.0
C728 C 0.66569 0.8343 0.21004 0.0
C729 C 0.62149 0.83193 0.24507 0.0
C730 C 0.59455 0.81024 0.23345 0.0
C731 C 0.57149 0.81465 0.23012 0.0
C732 C 0.57612 0.84207 0.23777 0.0
C733 C 0.60367 0.86497 0.24799 0.0
C734 C 0.62666 0.85976 0.25181 0.0
H735 H 0.84855 0.58495 0.74219 0.0
H736 H 0.90884 0.67522 0.74919 0.0
H737 H 0.86928 0.68516 0.74956 0.0
H738 H 0.7958 0.58957 0.66393 0.0
H739 H 0.76591 0.56167 0.69629 0.0
H740 H 0.79897 0.56155 0.69319 0.0
H741 H 0.79999 0.55937 0.7886 0.0
H742 H 0.76709 0.55976 0.79202 0.0
H743 H 0.79795 0.58615 0.82463 0.0
H744 H 0.82369 0.68567 0.7516 0.0
H745 H 0.77457 0.67676 0.75428 0.0
H746 H 0.74267 0.58608 0.74906 0.0
C747 C 0.85337 0.6068 0.74288 0.0
C748 C 0.88186 0.62935 0.74524 0.0
C749 C 0.88726 0.65762 0.74719 0.0
C750 C 0.8649 0.66349 0.74745 0.0
C751 C 0.83711 0.64086 0.74612 0.0
C752 C 0.83117 0.61307 0.74378 0.0
C753 C 0.79925 0.59276 0.74461 0.0
C754 C 0.7894 0.57536 0.69664 0.0
C755 C 0.79057 0.57337 0.79018 0.0
C756 C 0.78829 0.61351 0.74799 0.0
C757 C 0.81058 0.64114 0.74854 0.0
C758 C 0.80605 0.66412 0.75116 0.0
C759 C 0.77802 0.65883 0.75275 0.0
C760 C 0.7547 0.63074 0.75211 0.0
C761 C 0.76001 0.60779 0.75004 0.0
H762 H 0.27178 0.84833 0.24991 0.0
H763 H 0.24051 0.90769 0.25426 0.0
H764 H 0.19123 0.86777 0.25577 0.0
H765 H 0.21567 0.79504 0.17296 0.0
H766 H 0.21387 0.76551 0.20621 0.0
H767 H 0.2468 0.79874 0.20356 0.0
H768 H 0.24911 0.80021 0.29908 0.0
H769 H 0.21607 0.76708 0.30202 0.0
H770 H 0.21967 0.79781 0.33382 0.0
H771 H 0.14543 0.82185 0.25655 0.0
H772 H 0.1057 0.77253 0.25734 0.0
H773 H 0.16575 0.74198 0.25631 0.0
C774 C 0.25452 0.85287 0.25063 0.0
C775 C 0.26001 0.88118 0.25164 0.0
C776 C 0.23686 0.88623 0.2534 0.0
C777 C 0.20876 0.86368 0.25428 0.0
C778 C 0.20404 0.83607 0.25389 0.0
C779 C 0.22621 0.83049 0.25223 0.0
C780 C 0.21508 0.79874 0.25352 0.0
C781 C 0.22335 0.78893 0.20624 0.0
C782 C 0.22561 0.79048 0.29987 0.0
C783 C 0.18325 0.78741 0.25584 0.0
C784 C 0.17744 0.80939 0.25584 0.0
C785 C 0.14971 0.80446 0.25676 0.0
C786 C 0.12726 0.77633 0.25723 0.0
C787 C 0.13255 0.75335 0.2572 0.0
C788 C 0.161 0.75907 0.25693 0.0
H789 H 0.3596 0.23243 0.73065 0.0
H790 H 0.44793 0.29078 0.76659 0.0
H791 H 0.45604 0.25063 0.77876 0.0
H792 H 0.34782 0.17589 0.81347 0.0
H793 H 0.32721 0.14758 0.77065 0.0
H794 H 0.32737 0.18068 0.76596 0.0
H795 H 0.34384 0.18589 0.67497 0.0
H796 H 0.34343 0.15266 0.67923 0.0
H797 H 0.37532 0.18423 0.66011 0.0
H798 H 0.45464 0.20529 0.79161 0.0
H799 H 0.44614 0.1566 0.79167 0.0
H800 H 0.35988 0.12573 0.73996 0.0
C801 C 0.38061 0.2366 0.74082 0.0
C802 C 0.40317 0.26473 0.74776 0.0
C803 C 0.43044 0.26945 0.76068 0.0
C804 C 0.43521 0.24677 0.7681 0.0
C805 C 0.41266 0.21936 0.76143 0.0
C806 C 0.38606 0.21403 0.74692 0.0
C807 C 0.36625 0.18235 0.73935 0.0
C808 C 0.34064 0.17096 0.77446 0.0
C809 C 0.35664 0.17591 0.68519 0.0
C810 C 0.38583 0.17088 0.75279 0.0
C811 C 0.41234 0.19276 0.76605 0.0
C812 C 0.43407 0.18795 0.78085 0.0
C813 C 0.42893 0.1601 0.78094 0.0
C814 C 0.40238 0.13722 0.76565 0.0
C815 C 0.3804 0.14272 0.75186 0.0
loop_
_geom_bond_atom_site_label_1
_geom_bond_atom_site_label_2
_geom_bond_distance
_geom_bond_site_symmetry_2
_ccdc_geom_bond_type
Co0 O1 2.216 . S
Co0 O2 2.091 . S
Co0 O4 2.004 . S
Co0 O10 2.021 . S
Co0 O12 2.137 . S
Co0 O13 2.244 . S
O1 Co0 2.216 . S
O1 C8 1.247 . S
O2 Co0 2.091 . S
O2 C8 1.261 . S
C3 O12 1.247 . S
C3 O13 1.272 . S
O4 Co0 2.004 . S
O4 C9 1.259 . S
Co5 O6 2.061 1_655 S
Co5 O11 2.076 . S
Co5 O13 2.135 1_655 S
O6 Co5 2.061 1_455 S
O6 C9 1.235 . S
C7 O10 1.238 . S
C7 O11 1.204 1_455 S
C8 O1 1.247 . S
C8 O2 1.261 . S
C9 O4 1.259 . S
C9 O6 1.235 . S
O10 Co0 2.021 . S
O10 C7 1.238 . S
O11 Co5 2.076 . S
O11 C7 1.204 1_655 S
O12 Co0 2.137 . S
O12 C3 1.247 . S
O13 Co0 2.244 . S
O13 C3 1.272 . S
O13 Co5 2.135 1_455 S
Co14 O15 2.216 . S
Co14 O16 2.091 . S
Co14 O18 2.004 . S
Co14 O24 2.021 . S
Co14 O26 2.137 . S
Co14 O27 2.244 . S
O15 Co14 2.216 . S
O15 C22 1.247 . S
O16 Co14 2.091 . S
O16 C22 1.261 . S
C17 O26 1.247 . S
C17 O27 1.272 . S
O18 Co14 2.004 . S
O18 C23 1.259 . S
Co19 O20 2.061 1_565 S
Co19 O25 2.053 . S
Co19 O27 2.135 1_565 S
O20 Co19 2.061 1_545 S
O20 C23 1.235 . S
C21 O24 1.238 . S
C21 O25 1.209 1_545 S
C22 O15 1.247 . S
C22 O16 1.261 . S
C23 O18 1.259 . S
C23 O20 1.235 . S
O24 Co14 2.021 . S
O24 C21 1.238 . S
O25 Co19 2.053 . S
O25 C21 1.209 1_565 S
O26 Co14 2.137 . S
O26 C17 1.247 . S
O27 Co14 2.244 . S
O27 C17 1.272 . S
O27 Co19 2.135 1_545 S
Co28 O29 2.216 . S
Co28 O30 2.091 . S
Co28 O32 2.004 . S
Co28 O38 2.021 . S
Co28 O40 2.137 . S
Co28 O41 2.244 . S
O29 Co28 2.216 . S
O29 C36 1.247 . S
O30 Co28 2.091 . S
O30 C36 1.261 . S
C31 O40 1.247 . S
C31 O41 1.272 . S
O32 Co28 2.004 . S
O32 C37 1.259 . S
Co33 O34 2.061 . S
Co33 O39 2.052 . S
Co33 O41 2.135 . S
O34 Co33 2.061 . S
O34 C37 1.235 . S
C35 O38 1.238 . S
C35 O39 1.241 . S
C36 O29 1.247 . S
C36 O30 1.261 . S
C37 O32 1.259 . S
C37 O34 1.235 . S
O38 Co28 2.021 . S
O38 C35 1.238 . S
O39 Co33 2.052 . S
O39 C35 1.241 . S
O40 Co28 2.137 . S
O40 C31 1.247 . S
O41 Co28 2.244 . S
O41 C31 1.272 . S
O41 Co33 2.135 . S
Co42 O43 2.216 . S
Co42 O44 2.091 . S
Co42 O46 2.004 . S
Co42 O52 2.021 . S
Co42 O54 2.137 . S
Co42 O55 2.244 . S
O43 Co42 2.216 . S
O43 C50 1.247 . S
O44 Co42 2.091 . S
O44 C50 1.261 . S
C45 O54 1.247 . S
C45 O55 1.272 . S
O46 Co42 2.004 . S
O46 C51 1.259 . S
Co47 O48 2.061 1_455 S
Co47 O53 2.076 . S
Co47 O55 2.135 1_455 S
O48 Co47 2.061 1_655 S
O48 C51 1.235 . S
C49 O52 1.238 . S
C49 O53 1.204 1_655 S
C50 O43 1.247 . S
C50 O44 1.261 . S
C51 O46 1.259 . S
C51 O48 1.235 . S
O52 Co42 2.021 . S
O52 C49 1.238 . S
O53 Co47 2.076 . S
O53 C49 1.204 1_455 S
O54 Co42 2.137 . S
O54 C45 1.247 . S
O55 Co42 2.244 . S
O55 C45 1.272 . S
O55 Co47 2.135 1_655 S
Co56 O57 2.216 . S
Co56 O58 2.091 . S
Co56 O60 2.004 . S
Co56 O66 2.021 . S
Co56 O68 2.137 . S
Co56 O69 2.244 . S
O57 Co56 2.216 . S
O57 C64 1.247 . S
O58 Co56 2.091 . S
O58 C64 1.261 . S
C59 O68 1.247 . S
C59 O69 1.272 . S
O60 Co56 2.004 . S
O60 C65 1.259 . S
Co61 O62 2.061 1_545 S
Co61 O67 2.053 . S
Co61 O69 2.135 1_545 S
O62 Co61 2.061 1_565 S
O62 C65 1.235 . S
C63 O66 1.238 . S
C63 O67 1.209 1_565 S
C64 O57 1.247 . S
C64 O58 1.261 . S
C65 O60 1.259 . S
C65 O62 1.235 . S
O66 Co56 2.021 . S
O66 C63 1.238 . S
O67 Co61 2.053 . S
O67 C63 1.209 1_545 S
O68 Co56 2.137 . S
O68 C59 1.247 . S
O69 Co56 2.244 . S
O69 C59 1.272 . S
O69 Co61 2.135 1_565 S
Co70 O71 2.216 . S
Co70 O72 2.091 . S
Co70 O74 2.004 . S
Co70 O80 2.021 . S
Co70 O82 2.137 . S
Co70 O83 2.244 . S
O71 Co70 2.216 . S
O71 C78 1.247 . S
O72 Co70 2.091 . S
O72 C78 1.261 . S
C73 O82 1.247 . S
C73 O83 1.272 . S
O74 Co70 2.004 . S
O74 C79 1.259 . S
Co75 O76 2.061 . S
Co75 O81 2.052 . S
Co75 O83 2.135 . S
O76 Co75 2.061 . S
O76 C79 1.235 . S
C77 O80 1.238 . S
C77 O81 1.241 . S
C78 O71 1.247 . S
C78 O72 1.261 . S
C79 O74 1.259 . S
C79 O76 1.235 . S
O80 Co70 2.021 . S
O80 C77 1.238 . S
O81 Co75 2.052 . S
O81 C77 1.241 . S
O82 Co70 2.137 . S
O82 C73 1.247 . S
O83 Co70 2.244 . S
O83 C73 1.272 . S
O83 Co75 2.135 . S
Co84 O85 2.216 . S
Co84 O86 2.091 . S
Co84 O88 2.004 . S
Co84 O94 2.021 . S
Co84 O96 2.137 . S
Co84 O97 2.244 . S
O85 Co84 2.216 . S
O85 C92 1.247 . S
O86 Co84 2.091 . S
O86 C92 1.261 . S
C87 O96 1.247 . S
C87 O97 1.272 . S
O88 Co84 2.004 . S
O88 C93 1.259 . S
Co89 O90 2.061 1_545 S
Co89 O95 2.076 . S
Co89 O97 2.135 1_545 S
O90 Co89 2.061 1_565 S
O90 C93 1.235 . S
C91 O94 1.238 . S
C91 O95 1.204 1_565 S
C92 O85 1.247 . S
C92 O86 1.261 . S
C93 O88 1.259 . S
C93 O90 1.235 . S
O94 Co84 2.021 . S
O94 C91 1.238 . S
O95 Co89 2.076 . S
O95 C91 1.204 1_545 S
O96 Co84 2.137 . S
O96 C87 1.247 . S
O97 Co84 2.244 . S
O97 C87 1.272 . S
O97 Co89 2.135 1_565 S
Co98 O99 2.216 . S
Co98 O100 2.091 . S
Co98 O102 2.004 . S
Co98 O108 2.021 . S
Co98 O110 2.137 . S
Co98 O111 2.244 . S
O99 Co98 2.216 . S
O99 C106 1.247 . S
O100 Co98 2.091 . S
O100 C106 1.261 . S
C101 O110 1.247 . S
C101 O111 1.272 . S
O102 Co98 2.004 . S
O102 C107 1.259 . S
Co103 O104 2.061 . S
Co103 O109 2.052 . S
Co103 O111 2.135 . S
O104 Co103 2.061 . S
O104 C107 1.235 . S
C105 O108 1.238 . S
C105 O109 1.241 . S
C106 O99 1.247 . S
C106 O100 1.261 . S
C107 O102 1.259 . S
C107 O104 1.235 . S
O108 Co98 2.021 . S
O108 C105 1.238 . S
O109 Co103 2.052 . S
O109 C105 1.241 . S
O110 Co98 2.137 . S
O110 C101 1.247 . S
O111 Co98 2.244 . S
O111 C101 1.272 . S
O111 Co103 2.135 . S
Co112 O113 2.216 . S
Co112 O114 2.091 . S
Co112 O116 2.004 . S
Co112 O122 2.021 . S
Co112 O124 2.137 . S
Co112 O125 2.244 . S
O113 Co112 2.216 . S
O113 C120 1.247 . S
O114 Co112 2.091 . S
O114 C120 1.261 . S
C115 O124 1.247 . S
C115 O125 1.272 . S
O116 Co112 2.004 . S
O116 C121 1.259 . S
Co117 O118 2.061 1_655 S
Co117 O123 2.053 . S
Co117 O125 2.135 1_655 S
O118 Co117 2.061 1_455 S
O118 C121 1.235 . S
C119 O122 1.238 . S
C119 O123 1.209 1_455 S
C120 O113 1.247 . S
C120 O114 1.261 . S
C121 O116 1.259 . S
C121 O118 1.235 . S
O122 Co112 2.021 . S
O122 C119 1.238 . S
O123 Co117 2.053 . S
O123 C119 1.209 1_655 S
O124 Co112 2.137 . S
O124 C115 1.247 . S
O125 Co112 2.244 . S
O125 C115 1.272 . S
O125 Co117 2.135 1_455 S
Co126 O127 2.216 . S
Co126 O128 2.091 . S
Co126 O130 2.004 . S
Co126 O136 2.021 . S
Co126 O138 2.137 . S
Co126 O139 2.244 . S
O127 Co126 2.216 . S
O127 C134 1.247 . S
O128 Co126 2.091 . S
O128 C134 1.261 . S
C129 O138 1.247 . S
C129 O139 1.272 . S
O130 Co126 2.004 . S
O130 C135 1.259 . S
Co131 O132 2.061 1_565 S
Co131 O137 2.076 . S
Co131 O139 2.135 1_565 S
O132 Co131 2.061 1_545 S
O132 C135 1.235 . S
C133 O136 1.238 . S
C133 O137 1.204 1_545 S
C134 O127 1.247 . S
C134 O128 1.261 . S
C135 O130 1.259 . S
C135 O132 1.235 . S
O136 Co126 2.021 . S
O136 C133 1.238 . S
O137 Co131 2.076 . S
O137 C133 1.204 1_565 S
O138 Co126 2.137 . S
O138 C129 1.247 . S
O139 Co126 2.244 . S
O139 C129 1.272 . S
O139 Co131 2.135 1_545 S
Co140 O141 2.216 . S
Co140 O142 2.091 . S
Co140 O144 2.004 . S
Co140 O150 2.021 . S
Co140 O152 2.137 . S
Co140 O153 2.244 . S
O141 Co140 2.216 . S
O141 C148 1.247 . S
O142 Co140 2.091 . S
O142 C148 1.261 . S
C143 O152 1.247 . S
C143 O153 1.272 . S
O144 Co140 2.004 . S
O144 C149 1.259 . S
Co145 O146 2.061 . S
Co145 O151 2.052 . S
Co145 O153 2.135 . S
O146 Co145 2.061 . S
O146 C149 1.235 . S
C147 O150 1.238 . S
C147 O151 1.241 . S
C148 O141 1.247 . S
C148 O142 1.261 . S
C149 O144 1.259 . S
C149 O146 1.235 . S
O150 Co140 2.021 . S
O150 C147 1.238 . S
O151 Co145 2.052 . S
O151 C147 1.241 . S
O152 Co140 2.137 . S
O152 C143 1.247 . S
O153 Co140 2.244 . S
O153 C143 1.272 . S
O153 Co145 2.135 . S
Co154 O155 2.216 . S
Co154 O156 2.091 . S
Co154 O158 2.004 . S
Co154 O164 2.021 . S
Co154 O166 2.137 . S
Co154 O167 2.244 . S
O155 Co154 2.216 . S
O155 C162 1.247 . S
O156 Co154 2.091 . S
O156 C162 1.261 . S
C157 O166 1.247 . S
C157 O167 1.272 . S
O158 Co154 2.004 . S
O158 C163 1.259 . S
Co159 O160 2.061 1_455 S
Co159 O165 2.053 . S
Co159 O167 2.135 1_455 S
O160 Co159 2.061 1_655 S
O160 C163 1.235 . S
C161 O164 1.238 . S
C161 O165 1.209 1_655 S
C162 O155 1.247 . S
C162 O156 1.261 . S
C163 O158 1.259 . S
C163 O160 1.235 . S
O164 Co154 2.021 . S
O164 C161 1.238 . S
O165 Co159 2.053 . S
O165 C161 1.209 1_455 S
O166 Co154 2.137 . S
O166 C157 1.247 . S
O167 Co154 2.244 . S
O167 C157 1.272 . S
O167 Co159 2.135 1_655 S
H168 C180 0.930 . S
H169 C182 0.933 1_655 S
H170 C183 0.930 . S
H171 C187 0.962 1_655 S
H172 C187 0.959 . S
H173 C187 0.961 1_554 S
H174 C188 0.960 1_554 S
H175 C188 0.961 . S
H176 C188 0.959 . S
H177 C191 0.929 . S
H178 C192 0.931 . S
H179 C194 0.930 1_455 S
C180 H168 0.930 . S
C180 C181 1.399 . S
C180 C185 1.399 . S
C181 C180 1.399 . S
C181 C182 1.376 . S
C182 H169 0.933 1_455 S
C182 C181 1.376 . S
C182 C183 1.388 1_455 S
C183 H170 0.930 . S
C183 C182 1.388 1_655 S
C183 C184 1.386 . S
C184 C183 1.386 . S
C184 C185 1.393 1_655 S
C184 C190 1.472 1_554 S
C185 C180 1.399 . S
C185 C184 1.393 1_455 S
C185 C186 1.516 1_554 S
C186 C185 1.516 1_556 S
C186 C187 1.502 . S
C186 C188 1.561 . S
C186 C189 1.526 . S
C187 H171 0.962 1_455 S
C187 H172 0.959 . S
C187 H173 0.961 1_556 S
C187 C186 1.502 . S
C188 H174 0.960 1_556 S
C188 H175 0.961 . S
C188 H176 0.959 . S
C188 C186 1.561 . S
C189 C186 1.526 . S
C189 C190 1.396 1_455 S
C189 C194 1.390 1_455 S
C190 C184 1.472 1_556 S
C190 C189 1.396 1_655 S
C190 C191 1.399 . S
C191 H177 0.929 . S
C191 C190 1.399 . S
C191 C192 1.385 . S
C192 H178 0.931 . S
C192 C191 1.385 . S
C192 C193 1.389 . S
C193 C192 1.389 . S
C193 C194 1.387 . S
C194 H179 0.930 1_655 S
C194 C189 1.390 1_655 S
C194 C193 1.387 . S
H195 C207 0.930 . S
H196 C209 0.930 . S
H197 C210 0.930 . S
H198 C214 0.959 . S
H199 C214 0.959 . S
H200 C214 0.961 . S
H201 C215 0.960 . S
H202 C215 0.961 . S
H203 C215 0.959 . S
H204 C218 0.929 . S
H205 C219 0.931 . S
H206 C221 0.930 . S
C207 H195 0.930 . S
C207 C208 1.399 1_545 S
C207 C212 1.399 . S
C208 C207 1.399 1_565 S
C208 C209 1.376 . S
C209 H196 0.930 . S
C209 C208 1.376 . S
C209 C210 1.388 . S
C210 H197 0.930 . S
C210 C209 1.388 . S
C210 C211 1.390 . S
C211 C210 1.390 . S
C211 C212 1.394 1_565 S
C211 C217 1.465 . S
C212 C207 1.399 . S
C212 C211 1.394 1_545 S
C212 C213 1.516 . S
C213 C212 1.516 . S
C213 C214 1.502 . S
C213 C215 1.561 . S
C213 C216 1.526 . S
C214 H198 0.959 . S
C214 H199 0.959 . S
C214 H200 0.961 . S
C214 C213 1.502 . S
C215 H201 0.960 . S
C215 H202 0.961 . S
C215 H203 0.959 . S
C215 C213 1.561 . S
C216 C213 1.526 . S
C216 C217 1.396 1_545 S
C216 C221 1.390 . S
C217 C211 1.465 . S
C217 C216 1.396 1_565 S
C217 C218 1.399 . S
C218 H204 0.929 . S
C218 C217 1.399 . S
C218 C219 1.385 . S
C219 H205 0.931 . S
C219 C218 1.385 . S
C219 C220 1.389 1_565 S
C220 C219 1.389 1_545 S
C220 C221 1.387 . S
C221 H206 0.930 . S
C221 C216 1.390 . S
C221 C220 1.387 . S
H222 C234 0.930 . S
H223 C236 0.930 . S
H224 C237 0.930 . S
H225 C241 0.959 . S
H226 C241 0.959 . S
H227 C241 0.962 . S
H228 C242 0.960 1_554 S
H229 C242 0.961 . S
H230 C242 0.959 . S
H231 C245 0.929 . S
H232 C246 0.931 . S
H233 C248 0.930 . S
C234 H222 0.930 . S
C234 C235 1.399 . S
C234 C239 1.399 . S
C235 C234 1.399 . S
C235 C236 1.376 . S
C236 H223 0.930 . S
C236 C235 1.376 . S
C236 C237 1.388 . S
C237 H224 0.930 . S
C237 C236 1.388 . S
C237 C238 1.390 . S
C238 C237 1.390 . S
C238 C239 1.394 . S
C238 C244 1.465 1_554 S
C239 C234 1.399 . S
C239 C238 1.394 . S
C239 C240 1.516 1_554 S
C240 C239 1.516 1_556 S
C240 C241 1.502 . S
C240 C242 1.561 . S
C240 C243 1.526 . S
C241 H225 0.959 . S
C241 H226 0.959 . S
C241 H227 0.962 . S
C241 C240 1.502 . S
C242 H228 0.960 1_556 S
C242 H229 0.961 . S
C242 H230 0.959 . S
C242 C240 1.561 . S
C243 C240 1.526 . S
C243 C244 1.396 . S
C243 C248 1.390 . S
C244 C238 1.465 1_556 S
C244 C243 1.396 . S
C244 C245 1.399 . S
C245 H231 0.929 . S
C245 C244 1.399 . S
C245 C246 1.385 . S
C246 H232 0.931 . S
C246 C245 1.385 . S
C246 C247 1.389 . S
C247 C246 1.389 . S
C247 C248 1.387 . S
C248 H233 0.930 . S
C248 C243 1.390 . S
C248 C247 1.387 . S
H249 C261 0.930 . S
H250 C263 0.930 . S
H251 C264 0.954 . S
H252 C268 0.959 1_655 S
H253 C268 0.959 . S
H254 C268 0.961 . S
H255 C269 0.960 . S
H256 C269 0.961 . S
H257 C269 0.959 . S
H258 C272 0.929 . S
H259 C273 0.931 . S
H260 C275 0.930 . S
C261 H249 0.930 . S
C261 C262 1.399 . S
C261 C266 1.399 . S
C262 C261 1.399 . S
C262 C263 1.376 . S
C263 H250 0.930 . S
C263 C262 1.376 . S
C263 C264 1.378 1_455 S
C264 H251 0.954 . S
C264 C263 1.378 1_655 S
C264 C265 1.377 1_655 S
C265 C264 1.377 1_455 S
C265 C266 1.394 . S
C265 C271 1.465 1_455 S
C266 C261 1.399 . S
C266 C265 1.394 . S
C266 C267 1.516 . S
C267 C266 1.516 . S
C267 C268 1.502 . S
C267 C269 1.561 . S
C267 C270 1.539 . S
C268 H252 0.959 1_455 S
C268 H253 0.959 . S
C268 H254 0.961 . S
C268 C267 1.502 . S
C269 H255 0.960 . S
C269 H256 0.961 . S
C269 H257 0.959 . S
C269 C267 1.561 . S
C270 C267 1.539 . S
C270 C271 1.383 1_455 S
C270 C275 1.388 1_455 S
C271 C265 1.465 1_655 S
C271 C270 1.383 1_655 S
C271 C272 1.399 . S
C272 H258 0.929 . S
C272 C271 1.399 . S
C272 C273 1.385 . S
C273 H259 0.931 . S
C273 C272 1.385 . S
C273 C274 1.389 . S
C274 C273 1.389 . S
C274 C275 1.387 . S
C275 H260 0.930 . S
C275 C270 1.388 1_655 S
C275 C274 1.387 . S
H276 C288 0.930 . S
H277 C290 0.930 . S
H278 C291 0.930 . S
H279 C295 0.959 . S
H280 C295 0.959 1_554 S
H281 C295 0.961 . S
H282 C296 0.960 . S
H283 C296 0.961 . S
H284 C296 0.959 . S
H285 C299 0.929 . S
H286 C300 0.931 . S
H287 C302 0.930 . S
C288 H276 0.930 . S
C288 C289 1.399 1_565 S
C288 C293 1.399 . S
C289 C288 1.399 1_545 S
C289 C290 1.376 . S
C290 H277 0.930 . S
C290 C289 1.376 . S
C290 C291 1.388 . S
C291 H278 0.930 . S
C291 C290 1.388 . S
C291 C292 1.390 . S
C292 C291 1.390 . S
C292 C293 1.394 1_545 S
C292 C298 1.465 1_556 S
C293 C288 1.399 . S
C293 C292 1.394 1_565 S
C293 C294 1.516 . S
C294 C293 1.516 . S
C294 C295 1.502 . S
C294 C296 1.561 . S
C294 C297 1.526 1_556 S
C295 H279 0.959 . S
C295 H280 0.959 1_556 S
C295 H281 0.961 . S
C295 C294 1.502 . S
C296 H282 0.960 . S
C296 H283 0.961 . S
C296 H284 0.959 . S
C296 C294 1.561 . S
C297 C294 1.526 1_554 S
C297 C298 1.396 1_565 S
C297 C302 1.390 . S
C298 C292 1.465 1_554 S
C298 C297 1.396 1_545 S
C298 C299 1.399 . S
C299 H285 0.929 . S
C299 C298 1.399 . S
C299 C300 1.385 . S
C300 H286 0.931 . S
C300 C299 1.385 . S
C300 C301 1.389 1_545 S
C301 C300 1.389 1_565 S
C301 C302 1.387 . S
C302 H287 0.930 . S
C302 C297 1.390 . S
C302 C301 1.387 . S
H303 C315 0.930 . S
H304 C317 0.930 . S
H305 C318 0.930 . S
H306 C322 0.959 . S
H307 C322 0.959 . S
H308 C322 0.961 . S
H309 C323 0.960 . S
H310 C323 0.961 . S
H311 C323 0.959 . S
H312 C326 0.929 . S
H313 C327 0.931 . S
H314 C329 0.930 . S
C315 H303 0.930 . S
C315 C316 1.399 . S
C315 C320 1.399 . S
C316 C315 1.399 . S
C316 C317 1.376 . S
C317 H304 0.930 . S
C317 C316 1.376 . S
C317 C318 1.388 . S
C318 H305 0.930 . S
C318 C317 1.388 . S
C318 C319 1.390 . S
C319 C318 1.390 . S
C319 C320 1.394 . S
C319 C325 1.465 . S
C320 C315 1.399 . S
C320 C319 1.394 . S
C320 C321 1.516 . S
C321 C320 1.516 . S
C321 C322 1.502 . S
C321 C323 1.561 . S
C321 C324 1.526 . S
C322 H306 0.959 . S
C322 H307 0.959 . S
C322 H308 0.961 . S
C322 C321 1.502 . S
C323 H309 0.960 . S
C323 H310 0.961 . S
C323 H311 0.959 . S
C323 C321 1.561 . S
C324 C321 1.526 . S
C324 C325 1.396 . S
C324 C329 1.390 . S
C325 C319 1.465 . S
C325 C324 1.396 . S
C325 C326 1.399 . S
C326 H312 0.929 . S
C326 C325 1.399 . S
C326 C327 1.385 . S
C327 H313 0.931 . S
C327 C326 1.385 . S
C327 C328 1.389 . S
C328 C327 1.389 . S
C328 C329 1.387 . S
C329 H314 0.930 . S
C329 C324 1.390 . S
C329 C328 1.387 . S
H330 C342 0.930 . S
H331 C344 0.930 . S
H332 C345 0.930 . S
H333 C349 0.959 . S
H334 C349 0.944 1_554 S
H335 C349 0.961 . S
H336 C350 0.960 . S
H337 C350 0.961 1_554 S
H338 C350 0.954 1_654 S
H339 C353 0.929 . S
H340 C354 0.931 . S
H341 C356 0.930 . S
C342 H330 0.930 . S
C342 C343 1.399 1_455 S
C342 C347 1.399 . S
C343 C342 1.399 1_655 S
C343 C344 1.376 . S
C344 H331 0.930 . S
C344 C343 1.376 . S
C344 C345 1.388 . S
C345 H332 0.930 . S
C345 C344 1.388 . S
C345 C346 1.390 . S
C346 C345 1.390 . S
C346 C347 1.394 1_655 S
C346 C352 1.465 1_556 S
C347 C342 1.399 . S
C347 C346 1.394 1_455 S
C347 C348 1.516 . S
C348 C347 1.516 . S
C348 C349 1.502 . S
C348 C350 1.561 . S
C348 C351 1.526 1_556 S
C349 H333 0.959 . S
C349 H334 0.944 1_556 S
C349 H335 0.961 . S
C349 C348 1.502 . S
C350 H336 0.960 . S
C350 H337 0.961 1_556 S
C350 H338 0.954 1_456 S
C350 C348 1.561 . S
C351 C348 1.526 1_554 S
C351 C352 1.396 1_455 S
C351 C356 1.390 . S
C352 C346 1.465 1_554 S
C352 C351 1.396 1_655 S
C352 C353 1.399 . S
C353 H339 0.929 . S
C353 C352 1.399 . S
C353 C354 1.385 . S
C354 H340 0.931 . S
C354 C353 1.385 . S
C354 C355 1.389 1_655 S
C355 C354 1.389 1_455 S
C355 C356 1.387 . S
C356 H341 0.930 . S
C356 C351 1.390 . S
C356 C355 1.387 . S
H357 C369 0.930 . S
H358 C371 0.930 . S
H359 C372 0.930 . S
H360 C376 0.959 . S
H361 C376 0.959 . S
H362 C376 0.961 . S
H363 C377 0.960 . S
H364 C377 0.961 . S
H365 C377 0.959 . S
H366 C380 0.929 . S
H367 C381 0.931 . S
H368 C383 0.930 . S
C369 H357 0.930 . S
C369 C370 1.399 . S
C369 C374 1.399 . S
C370 C369 1.399 . S
C370 C371 1.376 1_565 S
C371 H358 0.930 . S
C371 C370 1.376 1_545 S
C371 C372 1.388 . S
C372 H359 0.930 . S
C372 C371 1.388 . S
C372 C373 1.390 . S
C373 C372 1.390 . S
C373 C374 1.394 1_545 S
C373 C379 1.465 . S
C374 C369 1.399 . S
C374 C373 1.394 1_565 S
C374 C375 1.516 . S
C375 C374 1.516 . S
C375 C376 1.502 . S
C375 C377 1.561 . S
C375 C378 1.526 . S
C376 H360 0.959 . S
C376 H361 0.959 . S
C376 H362 0.961 . S
C376 C375 1.502 . S
C377 H363 0.960 . S
C377 H364 0.961 . S
C377 H365 0.959 . S
C377 C375 1.561 . S
C378 C375 1.526 . S
C378 C379 1.396 1_565 S
C378 C383 1.390 . S
C379 C373 1.465 . S
C379 C378 1.396 1_545 S
C379 C380 1.399 . S
C380 H366 0.929 . S
C380 C379 1.399 . S
C380 C381 1.385 . S
C381 H367 0.931 . S
C381 C380 1.385 . S
C381 C382 1.389 . S
C382 C381 1.389 . S
C382 C383 1.387 1_545 S
C383 H368 0.930 . S
C383 C378 1.390 . S
C383 C382 1.387 1_565 S
H384 C396 0.930 . S
H385 C398 0.930 . S
H386 C399 0.930 . S
H387 C403 0.959 . S
H388 C403 0.959 1_554 S
H389 C403 0.961 . S
H390 C404 0.960 1_556 S
H391 C404 0.961 . S
H392 C404 0.959 . S
H393 C407 0.929 . S
H394 C408 0.931 . S
H395 C410 0.930 . S
C396 H384 0.930 . S
C396 C397 1.399 . S
C396 C401 1.399 . S
C397 C396 1.399 . S
C397 C398 1.376 . S
C398 H385 0.930 . S
C398 C397 1.376 . S
C398 C399 1.388 . S
C399 H386 0.930 . S
C399 C398 1.388 . S
C399 C400 1.390 . S
C400 C399 1.390 . S
C400 C401 1.394 . S
C400 C406 1.465 1_556 S
C401 C396 1.399 . S
C401 C400 1.394 . S
C401 C402 1.516 1_556 S
C402 C401 1.516 1_554 S
C402 C403 1.502 1_554 S
C402 C404 1.561 . S
C402 C405 1.526 . S
C403 H387 0.959 . S
C403 H388 0.959 1_556 S
C403 H389 0.961 . S
C403 C402 1.502 1_556 S
C404 H390 0.960 1_554 S
C404 H391 0.961 . S
C404 H392 0.959 . S
C404 C402 1.561 . S
C405 C402 1.526 . S
C405 C406 1.396 . S
C405 C410 1.390 . S
C406 C400 1.465 1_554 S
C406 C405 1.396 . S
C406 C407 1.399 . S
C407 H393 0.929 . S
C407 C406 1.399 . S
C407 C408 1.385 . S
C408 H394 0.931 . S
C408 C407 1.385 . S
C408 C409 1.389 . S
C409 C408 1.389 . S
C409 C410 1.387 . S
C410 H395 0.930 . S
C410 C405 1.390 . S
C410 C409 1.387 . S
H411 C423 0.930 . S
H412 C425 0.930 . S
H413 C426 0.930 . S
H414 C430 0.959 . S
H415 C430 0.959 . S
H416 C430 0.961 . S
H417 C431 0.960 . S
H418 C431 0.961 . S
H419 C431 0.959 . S
H420 C434 0.929 . S
H421 C435 0.931 . S
H422 C437 0.930 . S
C423 H411 0.930 . S
C423 C424 1.399 . S
C423 C428 1.399 . S
C424 C423 1.399 . S
C424 C425 1.376 . S
C425 H412 0.930 . S
C425 C424 1.376 . S
C425 C426 1.388 . S
C426 H413 0.930 . S
C426 C425 1.388 . S
C426 C427 1.390 . S
C427 C426 1.390 . S
C427 C428 1.394 . S
C427 C433 1.465 1_655 S
C428 C423 1.399 . S
C428 C427 1.394 . S
C428 C429 1.516 . S
C429 C428 1.516 . S
C429 C430 1.502 1_655 S
C429 C431 1.561 . S
C429 C432 1.526 1_655 S
C430 H414 0.959 . S
C430 H415 0.959 . S
C430 H416 0.961 . S
C430 C429 1.502 1_455 S
C431 H417 0.960 . S
C431 H418 0.961 . S
C431 H419 0.959 . S
C431 C429 1.561 . S
C432 C429 1.526 1_455 S
C432 C433 1.396 . S
C432 C437 1.390 . S
C433 C427 1.465 1_455 S
C433 C432 1.396 . S
C433 C434 1.399 . S
C434 H420 0.929 . S
C434 C433 1.399 . S
C434 C435 1.385 . S
C435 H421 0.931 . S
C435 C434 1.385 . S
C435 C436 1.389 . S
C436 C435 1.389 . S
C436 C437 1.387 . S
C437 H422 0.930 . S
C437 C432 1.390 . S
C437 C436 1.387 . S
H438 C450 0.930 . S
H439 C452 0.930 . S
H440 C453 0.930 . S
H441 C457 0.959 . S
H442 C457 0.959 1_554 S
H443 C457 0.961 . S
H444 C458 0.960 . S
H445 C458 0.961 . S
H446 C458 0.959 . S
H447 C461 0.929 . S
H448 C462 0.931 . S
H449 C464 0.930 . S
C450 H438 0.930 . S
C450 C451 1.399 1_565 S
C450 C455 1.399 . S
C451 C450 1.399 1_545 S
C451 C452 1.376 . S
C452 H439 0.930 . S
C452 C451 1.376 . S
C452 C453 1.388 . S
C453 H440 0.930 . S
C453 C452 1.388 . S
C453 C454 1.390 . S
C454 C453 1.390 . S
C454 C455 1.394 1_545 S
C454 C460 1.465 1_556 S
C455 C450 1.399 . S
C455 C454 1.394 1_565 S
C455 C456 1.516 . S
C456 C455 1.516 . S
C456 C457 1.502 . S
C456 C458 1.561 . S
C456 C459 1.526 1_556 S
C457 H441 0.959 . S
C457 H442 0.959 1_556 S
C457 H443 0.961 . S
C457 C456 1.502 . S
C458 H444 0.960 . S
C458 H445 0.961 . S
C458 H446 0.959 . S
C458 C456 1.561 . S
C459 C456 1.526 1_554 S
C459 C460 1.396 1_565 S
C459 C464 1.390 . S
C460 C454 1.465 1_554 S
C460 C459 1.396 1_545 S
C460 C461 1.399 . S
C461 H447 0.929 . S
C461 C460 1.399 . S
C461 C462 1.385 . S
C462 H448 0.931 . S
C462 C461 1.385 . S
C462 C463 1.389 1_545 S
C463 C462 1.389 1_565 S
C463 C464 1.387 . S
C464 H449 0.930 . S
C464 C459 1.390 . S
C464 C463 1.387 . S
H465 C477 0.930 . S
H466 C479 0.930 . S
H467 C480 0.930 . S
H468 C484 0.959 . S
H469 C484 0.959 . S
H470 C484 0.961 . S
H471 C485 0.960 . S
H472 C485 0.961 . S
H473 C485 0.959 . S
H474 C488 0.929 . S
H475 C489 0.931 . S
H476 C491 0.930 . S
C477 H465 0.930 . S
C477 C478 1.399 . S
C477 C482 1.399 . S
C478 C477 1.399 . S
C478 C479 1.376 . S
C479 H466 0.930 . S
C479 C478 1.376 . S
C479 C480 1.388 . S
C480 H467 0.930 . S
C480 C479 1.388 . S
C480 C481 1.390 . S
C481 C480 1.390 . S
C481 C482 1.394 . S
C481 C487 1.465 . S
C482 C477 1.399 . S
C482 C481 1.394 . S
C482 C483 1.516 . S
C483 C482 1.516 . S
C483 C484 1.502 . S
C483 C485 1.561 . S
C483 C486 1.526 . S
C484 H468 0.959 . S
C484 H469 0.959 . S
C484 H470 0.961 . S
C484 C483 1.502 . S
C485 H471 0.960 . S
C485 H472 0.961 . S
C485 H473 0.959 . S
C485 C483 1.561 . S
C486 C483 1.526 . S
C486 C487 1.396 . S
C486 C491 1.390 . S
C487 C481 1.465 . S
C487 C486 1.396 . S
C487 C488 1.399 . S
C488 H474 0.929 . S
C488 C487 1.399 . S
C488 C489 1.385 . S
C489 H475 0.931 . S
C489 C488 1.385 . S
C489 C490 1.389 . S
C490 C489 1.389 . S
C490 C491 1.387 . S
C491 H476 0.930 . S
C491 C486 1.390 . S
C491 C490 1.387 . S
H492 C504 0.930 . S
H493 C506 0.930 . S
H494 C507 0.930 . S
H495 C511 0.967 . S
H496 C511 0.955 . S
H497 C511 0.972 . S
H498 C512 0.960 . S
H499 C512 0.961 . S
H500 C512 0.959 . S
H501 C515 0.929 . S
H502 C516 0.931 . S
H503 C518 0.930 . S
C504 H492 0.930 . S
C504 C505 1.399 . S
C504 C509 1.399 . S
C505 C504 1.399 . S
C505 C506 1.376 . S
C506 H493 0.930 . S
C506 C505 1.376 . S
C506 C507 1.388 . S
C507 H494 0.930 . S
C507 C506 1.388 . S
C507 C508 1.390 . S
C508 C507 1.390 . S
C508 C509 1.394 . S
C508 C514 1.465 . S
C509 C504 1.399 . S
C509 C508 1.394 . S
C509 C510 1.516 . S
C510 C509 1.516 . S
C510 C511 1.487 1_455 S
C510 C512 1.561 . S
C510 C513 1.526 . S
C511 H495 0.967 . S
C511 H496 0.955 . S
C511 H497 0.972 . S
C511 C510 1.487 1_655 S
C512 H498 0.960 . S
C512 H499 0.961 . S
C512 H500 0.959 . S
C512 C510 1.561 . S
C513 C510 1.526 . S
C513 C514 1.396 . S
C513 C518 1.390 . S
C514 C508 1.465 . S
C514 C513 1.396 . S
C514 C515 1.399 . S
C515 H501 0.929 . S
C515 C514 1.399 . S
C515 C516 1.385 . S
C516 H502 0.931 . S
C516 C515 1.385 . S
C516 C517 1.389 . S
C517 C516 1.389 . S
C517 C518 1.387 . S
C518 H503 0.930 . S
C518 C513 1.390 . S
C518 C517 1.387 . S
H519 C531 0.930 . S
H520 C533 0.930 . S
H521 C534 0.930 . S
H522 C538 0.959 . S
H523 C538 0.959 1_565 S
H524 C538 0.961 1_565 S
H525 C539 0.960 . S
H526 C539 0.961 . S
H527 C539 0.959 . S
H528 C542 0.929 . S
H529 C543 0.931 . S
H530 C545 0.930 . S
C531 H519 0.930 . S
C531 C532 1.399 . S
C531 C536 1.399 . S
C532 C531 1.399 . S
C532 C533 1.376 . S
C533 H520 0.930 . S
C533 C532 1.376 . S
C533 C534 1.388 . S
C534 H521 0.930 . S
C534 C533 1.388 . S
C534 C535 1.390 . S
C535 C534 1.390 . S
C535 C536 1.394 . S
C535 C541 1.465 . S
C536 C531 1.399 . S
C536 C535 1.394 . S
C536 C537 1.516 . S
C537 C536 1.516 . S
C537 C538 1.502 . S
C537 C539 1.561 1_545 S
C537 C540 1.526 . S
C538 H522 0.959 . S
C538 H523 0.959 1_545 S
C538 H524 0.961 1_545 S
C538 C537 1.502 . S
C539 H525 0.960 . S
C539 H526 0.961 . S
C539 H527 0.959 . S
C539 C537 1.561 1_565 S
C540 C537 1.526 . S
C540 C541 1.396 . S
C540 C545 1.390 . S
C541 C535 1.465 . S
C541 C540 1.396 . S
C541 C542 1.399 . S
C542 H528 0.929 . S
C542 C541 1.399 . S
C542 C543 1.385 . S
C543 H529 0.931 . S
C543 C542 1.385 . S
C543 C544 1.389 . S
C544 C543 1.389 . S
C544 C545 1.387 . S
C545 H530 0.930 . S
C545 C540 1.390 . S
C545 C544 1.387 . S
H546 C558 0.930 . S
H547 C560 0.930 . S
H548 C561 0.930 . S
H549 C565 0.959 . S
H550 C565 0.959 . S
H551 C565 0.961 . S
H552 C566 0.960 . S
H553 C566 0.961 . S
H554 C566 0.959 . S
H555 C569 0.929 . S
H556 C570 0.931 . S
H557 C572 0.930 . S
C558 H546 0.930 . S
C558 C559 1.399 . S
C558 C563 1.399 . S
C559 C558 1.399 . S
C559 C560 1.376 . S
C560 H547 0.930 . S
C560 C559 1.376 . S
C560 C561 1.388 . S
C561 H548 0.930 . S
C561 C560 1.388 . S
C561 C562 1.390 . S
C562 C561 1.390 . S
C562 C563 1.394 . S
C562 C568 1.465 . S
C563 C558 1.399 . S
C563 C562 1.394 . S
C563 C564 1.516 . S
C564 C563 1.516 . S
C564 C565 1.502 . S
C564 C566 1.561 . S
C564 C567 1.526 . S
C565 H549 0.959 . S
C565 H550 0.959 . S
C565 H551 0.961 . S
C565 C564 1.502 . S
C566 H552 0.960 . S
C566 H553 0.961 . S
C566 H554 0.959 . S
C566 C564 1.561 . S
C567 C564 1.526 . S
C567 C568 1.396 . S
C567 C572 1.390 . S
C568 C562 1.465 . S
C568 C567 1.396 . S
C568 C569 1.399 . S
C569 H555 0.929 . S
C569 C568 1.399 . S
C569 C570 1.385 . S
C570 H556 0.931 . S
C570 C569 1.385 . S
C570 C571 1.389 . S
C571 C570 1.389 . S
C571 C572 1.387 . S
C572 H557 0.930 . S
C572 C567 1.390 . S
C572 C571 1.387 . S
H573 C585 0.930 . S
H574 C587 0.930 . S
H575 C588 0.930 . S
H576 C592 0.954 1_455 S
H577 C592 0.954 1_455 S
H578 C592 0.963 1_455 S
H579 C593 0.960 . S
H580 C593 0.961 . S
H581 C593 0.959 . S
H582 C596 0.929 . S
H583 C597 0.931 . S
H584 C599 0.930 . S
C585 H573 0.930 . S
C585 C586 1.399 . S
C585 C590 1.399 . S
C586 C585 1.399 . S
C586 C587 1.376 . S
C587 H574 0.930 . S
C587 C586 1.376 . S
C587 C588 1.388 . S
C588 H575 0.930 . S
C588 C587 1.388 . S
C588 C589 1.390 . S
C589 C588 1.390 . S
C589 C590 1.394 . S
C589 C595 1.465 . S
C590 C585 1.399 . S
C590 C589 1.394 . S
C590 C591 1.516 . S
C591 C590 1.516 . S
C591 C592 1.510 . S
C591 C593 1.561 . S
C591 C594 1.526 . S
C592 H576 0.954 1_655 S
C592 H577 0.954 1_655 S
C592 H578 0.963 1_655 S
C592 C591 1.510 . S
C593 H579 0.960 . S
C593 H580 0.961 . S
C593 H581 0.959 . S
C593 C591 1.561 . S
C594 C591 1.526 . S
C594 C595 1.396 . S
C594 C599 1.390 . S
C595 C589 1.465 . S
C595 C594 1.396 . S
C595 C596 1.399 . S
C596 H582 0.929 . S
C596 C595 1.399 . S
C596 C597 1.385 . S
C597 H583 0.931 . S
C597 C596 1.385 . S
C597 C598 1.389 . S
C598 C597 1.389 . S
C598 C599 1.387 . S
C599 H584 0.930 . S
C599 C594 1.390 . S
C599 C598 1.387 . S
H600 C612 0.930 . S
H601 C614 0.930 . S
H602 C615 0.930 . S
H603 C619 0.959 . S
H604 C619 0.959 . S
H605 C619 0.961 . S
H606 C620 0.960 . S
H607 C620 0.961 . S
H608 C620 0.959 . S
H609 C623 0.929 . S
H610 C624 0.931 . S
H611 C626 0.930 . S
C612 H600 0.930 . S
C612 C613 1.399 . S
C612 C617 1.399 . S
C613 C612 1.399 . S
C613 C614 1.376 . S
C614 H601 0.930 . S
C614 C613 1.376 . S
C614 C615 1.388 . S
C615 H602 0.930 . S
C615 C614 1.388 . S
C615 C616 1.390 . S
C616 C615 1.390 . S
C616 C617 1.394 . S
C616 C622 1.465 . S
C617 C612 1.399 . S
C617 C616 1.394 . S
C617 C618 1.516 . S
C618 C617 1.516 . S
C618 C619 1.502 . S
C618 C620 1.561 . S
C618 C621 1.526 . S
C619 H603 0.959 . S
C619 H604 0.959 . S
C619 H605 0.961 . S
C619 C618 1.502 . S
C620 H606 0.960 . S
C620 H607 0.961 . S
C620 H608 0.959 . S
C620 C618 1.561 . S
C621 C618 1.526 . S
C621 C622 1.396 . S
C621 C626 1.390 . S
C622 C616 1.465 . S
C622 C621 1.396 . S
C622 C623 1.399 . S
C623 H609 0.929 . S
C623 C622 1.399 . S
C623 C624 1.385 . S
C624 H610 0.931 . S
C624 C623 1.385 . S
C624 C625 1.389 . S
C625 C624 1.389 . S
C625 C626 1.387 . S
C626 H611 0.930 . S
C626 C621 1.390 . S
C626 C625 1.387 . S
H627 C639 0.930 . S
H628 C641 0.930 . S
H629 C642 0.930 . S
H630 C646 0.959 . S
H631 C646 0.959 . S
H632 C646 0.961 . S
H633 C647 0.960 . S
H634 C647 0.961 . S
H635 C647 0.959 . S
H636 C650 0.929 . S
H637 C651 0.931 . S
H638 C653 0.930 . S
C639 H627 0.930 . S
C639 C640 1.399 . S
C639 C644 1.399 . S
C640 C639 1.399 . S
C640 C641 1.376 . S
C641 H628 0.930 . S
C641 C640 1.376 . S
C641 C642 1.388 . S
C642 H629 0.930 . S
C642 C641 1.388 . S
C642 C643 1.390 . S
C643 C642 1.390 . S
C643 C644 1.394 . S
C643 C649 1.465 . S
C644 C639 1.399 . S
C644 C643 1.394 . S
C644 C645 1.516 . S
C645 C644 1.516 . S
C645 C646 1.502 . S
C645 C647 1.561 . S
C645 C648 1.526 . S
C646 H630 0.959 . S
C646 H631 0.959 . S
C646 H632 0.961 . S
C646 C645 1.502 . S
C647 H633 0.960 . S
C647 H634 0.961 . S
C647 H635 0.959 . S
C647 C645 1.561 . S
C648 C645 1.526 . S
C648 C649 1.396 . S
C648 C653 1.390 . S
C649 C643 1.465 . S
C649 C648 1.396 . S
C649 C650 1.399 . S
C650 H636 0.929 . S
C650 C649 1.399 . S
C650 C651 1.385 . S
C651 H637 0.931 . S
C651 C650 1.385 . S
C651 C652 1.389 . S
C652 C651 1.389 . S
C652 C653 1.387 . S
C653 H638 0.930 . S
C653 C648 1.390 . S
C653 C652 1.387 . S
H654 C666 0.930 . S
H655 C668 0.930 . S
H656 C669 0.930 . S
H657 C673 0.959 . S
H658 C673 0.959 . S
H659 C673 0.961 . S
H660 C674 0.960 . S
H661 C674 0.961 . S
H662 C674 0.959 . S
H663 C677 0.929 . S
H664 C678 0.931 . S
H665 C680 0.930 . S
C666 H654 0.930 . S
C666 C667 1.399 . S
C666 C671 1.399 . S
C667 C666 1.399 . S
C667 C668 1.376 . S
C668 H655 0.930 . S
C668 C667 1.376 . S
C668 C669 1.388 . S
C669 H656 0.930 . S
C669 C668 1.388 . S
C669 C670 1.390 . S
C670 C669 1.390 . S
C670 C671 1.394 . S
C670 C676 1.465 . S
C671 C666 1.399 . S
C671 C670 1.394 . S
C671 C672 1.516 . S
C672 C671 1.516 . S
C672 C673 1.502 . S
C672 C674 1.561 . S
C672 C675 1.526 . S
C673 H657 0.959 . S
C673 H658 0.959 . S
C673 H659 0.961 . S
C673 C672 1.502 . S
C674 H660 0.960 . S
C674 H661 0.961 . S
C674 H662 0.959 . S
C674 C672 1.561 . S
C675 C672 1.526 . S
C675 C676 1.396 . S
C675 C680 1.390 . S
C676 C670 1.465 . S
C676 C675 1.396 . S
C676 C677 1.399 . S
C677 H663 0.929 . S
C677 C676 1.399 . S
C677 C678 1.385 . S
C678 H664 0.931 . S
C678 C677 1.385 . S
C678 C679 1.389 . S
C679 C678 1.389 . S
C679 C680 1.387 . S
C680 H665 0.930 . S
C680 C675 1.390 . S
C680 C679 1.387 . S
H681 C693 0.930 . S
H682 C695 0.930 . S
H683 C696 0.930 . S
H684 C700 0.959 . S
H685 C700 0.959 . S
H686 C700 0.961 . S
H687 C701 0.960 . S
H688 C701 0.961 . S
H689 C701 0.959 . S
H690 C704 0.929 . S
H691 C705 0.931 . S
H692 C707 0.930 . S
C693 H681 0.930 . S
C693 C694 1.399 . S
C693 C698 1.399 . S
C694 C693 1.399 . S
C694 C695 1.376 . S
C695 H682 0.930 . S
C695 C694 1.376 . S
C695 C696 1.388 . S
C696 H683 0.930 . S
C696 C695 1.388 . S
C696 C697 1.390 . S
C697 C696 1.390 . S
C697 C698 1.394 . S
C697 C703 1.465 . S
C698 C693 1.399 . S
C698 C697 1.394 . S
C698 C699 1.516 . S
C699 C698 1.516 . S
C699 C700 1.502 . S
C699 C701 1.561 . S
C699 C702 1.526 . S
C700 H684 0.959 . S
C700 H685 0.959 . S
C700 H686 0.961 . S
C700 C699 1.502 . S
C701 H687 0.960 . S
C701 H688 0.961 . S
C701 H689 0.959 . S
C701 C699 1.561 . S
C702 C699 1.526 . S
C702 C703 1.396 . S
C702 C707 1.390 . S
C703 C697 1.465 . S
C703 C702 1.396 . S
C703 C704 1.399 . S
C704 H690 0.929 . S
C704 C703 1.399 . S
C704 C705 1.385 . S
C705 H691 0.931 . S
C705 C704 1.385 . S
C705 C706 1.389 . S
C706 C705 1.389 . S
C706 C707 1.387 . S
C707 H692 0.930 . S
C707 C702 1.390 . S
C707 C706 1.387 . S
H708 C720 0.930 . S
H709 C722 0.930 . S
H710 C723 0.930 . S
H711 C727 0.959 . S
H712 C727 0.959 . S
H713 C727 0.961 . S
H714 C728 0.960 . S
H715 C728 0.961 . S
H716 C728 0.959 . S
H717 C731 0.929 . S
H718 C732 0.931 . S
H719 C734 0.930 . S
C720 H708 0.930 . S
C720 C721 1.399 . S
C720 C725 1.399 . S
C721 C720 1.399 . S
C721 C722 1.376 . S
C722 H709 0.930 . S
C722 C721 1.376 . S
C722 C723 1.388 . S
C723 H710 0.930 . S
C723 C722 1.388 . S
C723 C724 1.390 . S
C724 C723 1.390 . S
C724 C725 1.394 . S
C724 C730 1.465 . S
C725 C720 1.399 . S
C725 C724 1.394 . S
C725 C726 1.516 . S
C726 C725 1.516 . S
C726 C727 1.502 . S
C726 C728 1.561 . S
C726 C729 1.526 . S
C727 H711 0.959 . S
C727 H712 0.959 . S
C727 H713 0.961 . S
C727 C726 1.502 . S
C728 H714 0.960 . S
C728 H715 0.961 . S
C728 H716 0.959 . S
C728 C726 1.561 . S
C729 C726 1.526 . S
C729 C730 1.396 . S
C729 C734 1.390 . S
C730 C724 1.465 . S
C730 C729 1.396 . S
C730 C731 1.399 . S
C731 H717 0.929 . S
C731 C730 1.399 . S
C731 C732 1.385 . S
C732 H718 0.931 . S
C732 C731 1.385 . S
C732 C733 1.389 . S
C733 C732 1.389 . S
C733 C734 1.387 . S
C734 H719 0.930 . S
C734 C729 1.390 . S
C734 C733 1.387 . S
H735 C747 0.930 . S
H736 C749 0.930 . S
H737 C750 0.930 . S
H738 C754 0.959 . S
H739 C754 0.959 . S
H740 C754 0.961 . S
H741 C755 0.960 . S
H742 C755 0.961 . S
H743 C755 0.959 . S
H744 C758 0.929 . S
H745 C759 0.931 . S
H746 C761 0.930 . S
C747 H735 0.930 . S
C747 C748 1.399 . S
C747 C752 1.399 . S
C748 C747 1.399 . S
C748 C749 1.376 . S
C749 H736 0.930 . S
C749 C748 1.376 . S
C749 C750 1.388 . S
C750 H737 0.930 . S
C750 C749 1.388 . S
C750 C751 1.390 . S
C751 C750 1.390 . S
C751 C752 1.394 . S
C751 C757 1.465 . S
C752 C747 1.399 . S
C752 C751 1.394 . S
C752 C753 1.516 . S
C753 C752 1.516 . S
C753 C754 1.502 . S
C753 C755 1.561 . S
C753 C756 1.526 . S
C754 H738 0.959 . S
C754 H739 0.959 . S
C754 H740 0.961 . S
C754 C753 1.502 . S
C755 H741 0.960 . S
C755 H742 0.961 . S
C755 H743 0.959 . S
C755 C753 1.561 . S
C756 C753 1.526 . S
C756 C757 1.396 . S
C756 C761 1.390 . S
C757 C751 1.465 . S
C757 C756 1.396 . S
C757 C758 1.399 . S
C758 H744 0.929 . S
C758 C757 1.399 . S
C758 C759 1.385 . S
C759 H745 0.931 . S
C759 C758 1.385 . S
C759 C760 1.389 . S
C760 C759 1.389 . S
C760 C761 1.387 . S
C761 H746 0.930 . S
C761 C756 1.390 . S
C761 C760 1.387 . S
H762 C774 0.930 . S
H763 C776 0.930 . S
H764 C777 0.930 . S
H765 C781 0.959 . S
H766 C781 0.959 . S
H767 C781 0.961 . S
H768 C782 0.960 . S
H769 C782 0.961 . S
H770 C782 0.959 . S
H771 C785 0.929 . S
H772 C786 0.931 . S
H773 C788 0.930 . S
C774 H762 0.930 . S
C774 C775 1.399 . S
C774 C779 1.399 . S
C775 C774 1.399 . S
C775 C776 1.376 . S
C776 H763 0.930 . S
C776 C775 1.376 . S
C776 C777 1.388 . S
C777 H764 0.930 . S
C777 C776 1.388 . S
C777 C778 1.390 . S
C778 C777 1.390 . S
C778 C779 1.394 . S
C778 C784 1.465 . S
C779 C774 1.399 . S
C779 C778 1.394 . S
C779 C780 1.516 . S
C780 C779 1.516 . S
C780 C781 1.502 . S
C780 C782 1.561 . S
C780 C783 1.526 . S
C781 H765 0.959 . S
C781 H766 0.959 . S
C781 H767 0.961 . S
C781 C780 1.502 . S
C782 H768 0.960 . S
C782 H769 0.961 . S
C782 H770 0.959 . S
C782 C780 1.561 . S
C783 C780 1.526 . S
C783 C784 1.396 . S
C783 C788 1.390 . S
C784 C778 1.465 . S
C784 C783 1.396 . S
C784 C785 1.399 . S
C785 H771 0.929 . S
C785 C784 1.399 . S
C785 C786 1.385 . S
C786 H772 0.931 . S
C786 C785 1.385 . S
C786 C787 1.389 . S
C787 C786 1.389 . S
C787 C788 1.387 . S
C788 H773 0.930 . S
C788 C783 1.390 . S
C788 C787 1.387 . S
H789 C801 0.930 . S
H790 C803 0.930 . S
H791 C804 0.930 . S
H792 C808 0.959 . S
H793 C808 0.959 . S
H794 C808 0.961 . S
H795 C809 0.960 . S
H796 C809 0.961 . S
H797 C809 0.959 . S
H798 C812 0.929 . S
H799 C813 0.931 . S
H800 C815 0.930 . S
C801 H789 0.930 . S
C801 C802 1.399 . S
C801 C806 1.399 . S
C802 C801 1.399 . S
C802 C803 1.376 . S
C803 H790 0.930 . S
C803 C802 1.376 . S
C803 C804 1.388 . S
C804 H791 0.930 . S
C804 C803 1.388 . S
C804 C805 1.390 . S
C805 C804 1.390 . S
C805 C806 1.394 . S
C805 C811 1.465 . S
C806 C801 1.399 . S
C806 C805 1.394 . S
C806 C807 1.516 . S
C807 C806 1.516 . S
C807 C808 1.502 . S
C807 C809 1.561 . S
C807 C810 1.526 . S
C808 H792 0.959 . S
C808 H793 0.959 . S
C808 H794 0.961 . S
C808 C807 1.502 . S
C809 H795 0.960 . S
C809 H796 0.961 . S
C809 H797 0.959 . S
C809 C807 1.561 . S
C810 C807 1.526 . S
C810 C811 1.396 . S
C810 C815 1.390 . S
C811 C805 1.465 . S
C811 C810 1.396 . S
C811 C812 1.399 . S
C812 H798 0.929 . S
C812 C811 1.399 . S
C812 C813 1.385 . S
C813 H799 0.931 . S
C813 C812 1.385 . S
C813 C814 1.389 . S
C814 C813 1.389 . S
C814 C815 1.387 . S
C815 H800 0.930 . S
C815 C810 1.390 . S
C815 C814 1.387 . S
C181 C7 1.346 . S
C193 C161 1.352 . S
C208 C91 1.307 . S
C220 C21 1.290 . S
C235 C35 1.297 . S
C247 C105 1.319 . S
C262 C119 1.349 . S
C274 C49 1.351 . S
C289 C133 1.307 . S
C301 C63 1.290 . S
C316 C147 1.290 . S
C328 C77 1.287 . S
C343 C45 1.275 . S
C355 C115 1.315 . S
C370 C59 1.303 . S
C382 C129 1.274 . S
C397 C73 1.280 . S
C409 C143 1.287 . S
C424 C157 1.278 . S
C436 C3 1.290 . S
C451 C17 1.304 . S
C463 C87 1.330 . S
C478 C31 1.313 . S
C490 C101 1.328 . S
C505 C121 1.666 . S
C517 C9 1.660 . S
C532 C135 1.660 . S
C544 C23 1.666 . S
C559 C37 1.642 . S
C571 C149 1.648 . S
C586 C51 1.666 . S
C598 C163 1.660 . S
C613 C65 1.654 . S
C625 C93 1.647 . S
C640 C107 1.642 . S
C652 C79 1.648 . S
C667 C8 1.626 . S
C679 C148 1.632 . S
C694 C162 1.602 . S
C706 C22 1.614 . S
C721 C36 1.601 . S
C733 C92 1.612 . S
C748 C50 1.623 . S
C760 C106 1.632 . S
C775 C64 1.631 . S
C787 C120 1.618 . S
C802 C78 1.602 . S
C814 C134 1.616 . S
