# Generated by pormake.
# Topology whk, (6)-cn, num edge types: 1
# Building blocks:
#     Node 0, Type 0, BuildingBlock: MIFKUJ_clean_sbu_0, # of connection points: 6
#     Node 1, Type 0, BuildingBlock: MIFKUJ_clean_sbu_0, # of connection points: 6
#     Node 2, Type 0, BuildingBlock: MIFKUJ_clean_sbu_0, # of connection points: 6
#     Node 3, Type 0, BuildingBlock: MIFKUJ_clean_sbu_0, # of connection points: 6
#     Node 4, Type 0, BuildingBlock: MIFKUJ_clean_sbu_0, # of connection points: 6
#     Node 5, Type 0, BuildingBlock: MIFKUJ_clean_sbu_0, # of connection points: 6
#     Node 6, Type 0, BuildingBlock: MIFKUJ_clean_sbu_0, # of connection points: 6
#     Node 7, Type 0, BuildingBlock: MIFKUJ_clean_sbu_0, # of connection points: 6
#     Node 8, Type 0, BuildingBlock: MIFKUJ_clean_sbu_0, # of connection points: 6
#     Node 9, Type 0, BuildingBlock: MIFKUJ_clean_sbu_0, # of connection points: 6
#     Node 10, Type 0, BuildingBlock: MIFKUJ_clean_sbu_0, # of connection points: 6
#     Node 11, Type 0, BuildingBlock: MIFKUJ_clean_sbu_0, # of connection points: 6
#     Node 12, Type 0, BuildingBlock: MIFKUJ_clean_sbu_0, # of connection points: 6
#     Node 13, Type 0, BuildingBlock: MIFKUJ_clean_sbu_0, # of connection points: 6
#     Node 14, Type 0, BuildingBlock: MIFKUJ_clean_sbu_0, # of connection points: 6
#     Node 15, Type 0, BuildingBlock: MIFKUJ_clean_sbu_0, # of connection points: 6
#     Edge 16, Type (0, 0), BuildingBlock: MIFKUJ_clean_linker_0, # of connection points: 2
#     Edge 17, Type (0, 0), BuildingBlock: MIFKUJ_clean_linker_0, # of connection points: 2
#     Edge 18, Type (0, 0), BuildingBlock: MIFKUJ_clean_linker_0, # of connection points: 2
#     Edge 19, Type (0, 0), BuildingBlock: MIFKUJ_clean_linker_0, # of connection points: 2
#     Edge 20, Type (0, 0), BuildingBlock: MIFKUJ_clean_linker_0, # of connection points: 2
#     Edge 21, Type (0, 0), BuildingBlock: MIFKUJ_clean_linker_0, # of connection points: 2
#     Edge 22, Type (0, 0), BuildingBlock: MIFKUJ_clean_linker_0, # of connection points: 2
#     Edge 23, Type (0, 0), BuildingBlock: MIFKUJ_clean_linker_0, # of connection points: 2
#     Edge 24, Type (0, 0), BuildingBlock: MIFKUJ_clean_linker_0, # of connection points: 2
#     Edge 25, Type (0, 0), BuildingBlock: MIFKUJ_clean_linker_0, # of connection points: 2
#     Edge 26, Type (0, 0), BuildingBlock: MIFKUJ_clean_linker_0, # of connection points: 2
#     Edge 27, Type (0, 0), BuildingBlock: MIFKUJ_clean_linker_0, # of connection points: 2
#     Edge 28, Type (0, 0), BuildingBlock: MIFKUJ_clean_linker_0, # of connection points: 2
#     Edge 29, Type (0, 0), BuildingBlock: MIFKUJ_clean_linker_0, # of connection points: 2
#     Edge 30, Type (0, 0), BuildingBlock: MIFKUJ_clean_linker_0, # of connection points: 2
#     Edge 31, Type (0, 0), BuildingBlock: MIFKUJ_clean_linker_0, # of connection points: 2
#     Edge 32, Type (0, 0), BuildingBlock: MIFKUJ_clean_linker_0, # of connection points: 2
#     Edge 33, Type (0, 0), BuildingBlock: MIFKUJ_clean_linker_0, # of connection points: 2
#     Edge 34, Type (0, 0), BuildingBlock: MIFKUJ_clean_linker_0, # of connection points: 2
#     Edge 35, Type (0, 0), BuildingBlock: MIFKUJ_clean_linker_0, # of connection points: 2
#     Edge 36, Type (0, 0), BuildingBlock: MIFKUJ_clean_linker_0, # of connection points: 2
#     Edge 37, Type (0, 0), BuildingBlock: MIFKUJ_clean_linker_0, # of connection points: 2
#     Edge 38, Type (0, 0), BuildingBlock: MIFKUJ_clean_linker_0, # of connection points: 2
#     Edge 39, Type (0, 0), BuildingBlock: MIFKUJ_clean_linker_0, # of connection points: 2
#     Edge 40, Type (0, 0), BuildingBlock: MIFKUJ_clean_linker_0, # of connection points: 2
#     Edge 41, Type (0, 0), BuildingBlock: MIFKUJ_clean_linker_0, # of connection points: 2
#     Edge 42, Type (0, 0), BuildingBlock: MIFKUJ_clean_linker_0, # of connection points: 2
#     Edge 43, Type (0, 0), BuildingBlock: MIFKUJ_clean_linker_0, # of connection points: 2
#     Edge 44, Type (0, 0), BuildingBlock: MIFKUJ_clean_linker_0, # of connection points: 2
#     Edge 45, Type (0, 0), BuildingBlock: MIFKUJ_clean_linker_0, # of connection points: 2
#     Edge 46, Type (0, 0), BuildingBlock: MIFKUJ_clean_linker_0, # of connection points: 2
#     Edge 47, Type (0, 0), BuildingBlock: MIFKUJ_clean_linker_0, # of connection points: 2
#     Edge 48, Type (0, 0), BuildingBlock: MIFKUJ_clean_linker_0, # of connection points: 2
#     Edge 49, Type (0, 0), BuildingBlock: MIFKUJ_clean_linker_0, # of connection points: 2
#     Edge 50, Type (0, 0), BuildingBlock: MIFKUJ_clean_linker_0, # of connection points: 2
#     Edge 51, Type (0, 0), BuildingBlock: MIFKUJ_clean_linker_0, # of connection points: 2
#     Edge 52, Type (0, 0), BuildingBlock: MIFKUJ_clean_linker_0, # of connection points: 2
#     Edge 53, Type (0, 0), BuildingBlock: MIFKUJ_clean_linker_0, # of connection points: 2
#     Edge 54, Type (0, 0), BuildingBlock: MIFKUJ_clean_linker_0, # of connection points: 2
#     Edge 55, Type (0, 0), BuildingBlock: MIFKUJ_clean_linker_0, # of connection points: 2
#     Edge 56, Type (0, 0), BuildingBlock: MIFKUJ_clean_linker_0, # of connection points: 2
#     Edge 57, Type (0, 0), BuildingBlock: MIFKUJ_clean_linker_0, # of connection points: 2
#     Edge 58, Type (0, 0), BuildingBlock: MIFKUJ_clean_linker_0, # of connection points: 2
#     Edge 59, Type (0, 0), BuildingBlock: MIFKUJ_clean_linker_0, # of connection points: 2
#     Edge 60, Type (0, 0), BuildingBlock: MIFKUJ_clean_linker_0, # of connection points: 2
#     Edge 61, Type (0, 0), BuildingBlock: MIFKUJ_clean_linker_0, # of connection points: 2
#     Edge 62, Type (0, 0), BuildingBlock: MIFKUJ_clean_linker_0, # of connection points: 2
#     Edge 63, Type (0, 0), BuildingBlock: MIFKUJ_clean_linker_0, # of connection points: 2
# Relax obj value: 0.388
# Max RMSD: 0.269
# Mean RMSD: 0.269
data_MOF--net-whk--node1-MIFKUJ_clean_sbu_0--edge1-MIFKUJ_clean_linker_0
_symmetry_space_group_name_H-M    P1
_symmetry_Int_Tables_number       1
_symmetry_cell_setting            triclinic
loop_
_symmetry_equiv_pos_as_xyz
'x, y, z'
_cell_length_a     50.66222
_cell_length_b     50.628361
_cell_length_c     56.82325
_cell_angle_alpha  90.0183
_cell_angle_beta   89.945878
_cell_angle_gamma 90.076172
loop_
_atom_site_label
_atom_site_type_symbol
_atom_site_fract_x
_atom_site_fract_y
_atom_site_fract_z
_atom_type_partial_charge
Zn0 Zn 0.50952 0.17011 0.40412 0.0
Zn1 Zn 0.58385 0.17532 0.40356 0.0
C2 C 0.47701 0.21375 0.40711 0.0
O3 O 0.4716 0.20017 0.42622 0.0
C4 C 0.61951 0.14156 0.42419 0.0
O5 O 0.62508 0.14073 0.4016 0.0
O6 O 0.47765 0.14692 0.41173 0.0
O7 O 0.52845 0.15087 0.377 0.0
O8 O 0.57227 0.15114 0.37831 0.0
C9 C 0.46501 0.13886 0.39373 0.0
O10 O 0.47378 0.14536 0.37274 0.0
O11 O 0.49376 0.20442 0.39262 0.0
C12 C 0.63052 0.20659 0.40405 0.0
O13 O 0.6229 0.21082 0.42584 0.0
O14 O 0.61554 0.19364 0.39034 0.0
O15 O 0.5578 0.20323 0.41248 0.0
O16 O 0.52915 0.18188 0.43419 0.0
O17 O 0.59934 0.15461 0.43083 0.0
C18 C 0.55082 0.1438 0.36892 0.0
C19 C 0.54597 0.20045 0.43194 0.0
Zn20 Zn 0.32892 0.51307 0.40724 0.0
Zn21 Zn 0.33359 0.58582 0.40571 0.0
C22 C 0.28549 0.47678 0.39608 0.0
O23 O 0.30414 0.45879 0.39552 0.0
C24 C 0.37884 0.60858 0.42806 0.0
O25 O 0.38818 0.60685 0.40654 0.0
O26 O 0.35014 0.48035 0.4156 0.0
O27 O 0.34649 0.52805 0.37732 0.0
O28 O 0.35426 0.57117 0.37926 0.0
C29 C 0.37349 0.47724 0.40777 0.0
O30 O 0.38473 0.49654 0.39601 0.0
O31 O 0.29179 0.50084 0.39933 0.0
C32 C 0.29492 0.62495 0.39072 0.0
O33 O 0.27727 0.60647 0.39474 0.0
O34 O 0.31926 0.6199 0.39351 0.0
O35 O 0.30203 0.56509 0.41632 0.0
O36 O 0.32266 0.53512 0.43703 0.0
O37 O 0.35648 0.5983 0.43267 0.0
C38 C 0.35661 0.54911 0.36898 0.0
C39 C 0.30361 0.55122 0.43476 0.0
Zn40 Zn 0.97675 0.34255 0.40762 0.0
Zn41 Zn 0.92905 0.31596 0.3904 0.0
C42 C 0.01217 0.30038 0.39893 0.0
O43 O 0.0235 0.31195 0.41699 0.0
C44 C 0.88857 0.35476 0.39838 0.0
O45 O 0.88363 0.34917 0.37623 0.0
O46 O 0.00903 0.36463 0.41606 0.0
O47 O 0.95569 0.36626 0.38538 0.0
O48 O 0.94848 0.33184 0.36321 0.0
C49 C 0.02244 0.37118 0.39798 0.0
O50 O 0.01383 0.3639 0.37715 0.0
O51 O 0.9914 0.31055 0.39024 0.0
C52 C 0.89927 0.26892 0.37597 0.0
O53 O 0.91882 0.25498 0.38465 0.0
O54 O 0.90058 0.29395 0.37623 0.0
O55 O 0.94815 0.29296 0.41356 0.0
O56 O 0.95862 0.32624 0.43664 0.0
O57 O 0.90839 0.344 0.40829 0.0
C58 C 0.9512 0.35661 0.36514 0.0
C59 C 0.95283 0.30185 0.43403 0.0
Zn60 Zn 0.15721 0.99937 0.39059 0.0
Zn61 Zn 0.17815 0.93317 0.38452 0.0
C62 C 0.20232 0.0302 0.39904 0.0
O63 O 0.18829 0.03355 0.41828 0.0
C64 C 0.14475 0.89298 0.4004 0.0
O65 O 0.15063 0.88566 0.37883 0.0
O66 O 0.13254 0.03002 0.39715 0.0
O67 O 0.14154 0.98072 0.36131 0.0
O68 O 0.15906 0.94111 0.35506 0.0
C69 C 0.13181 0.04681 0.38048 0.0
O70 O 0.14632 0.04253 0.36168 0.0
O71 O 0.19257 0.01638 0.38243 0.0
C72 C 0.21443 0.89451 0.39647 0.0
O73 O 0.20775 0.90384 0.4172 0.0
O74 O 0.2051 0.90538 0.37813 0.0
O75 O 0.19719 0.96377 0.39806 0.0
O76 O 0.16618 0.97883 0.42089 0.0
O77 O 0.15316 0.91526 0.40766 0.0
C78 C 0.14413 0.95995 0.34878 0.0
C79 C 0.18907 0.96881 0.4186 0.0
Zn80 Zn 0.00582 0.84067 0.09748 0.0
Zn81 Zn 0.07648 0.8229 0.10085 0.0
C82 C 0.97575 0.79395 0.09435 0.0
O83 O 0.96823 0.80715 0.07561 0.0
C84 C 0.11758 0.85529 0.08386 0.0
O85 O 0.12167 0.85529 0.10669 0.0
O86 O 0.97326 0.86304 0.09187 0.0
O87 O 0.02594 0.85969 0.12438 0.0
O88 O 0.06803 0.84765 0.12663 0.0
C89 C 0.95638 0.86273 0.10847 0.0
O90 O 0.9613 0.84843 0.12726 0.0
O91 O 0.99237 0.80463 0.10823 0.0
C92 C 0.11136 0.78093 0.09822 0.0
O93 O 0.10499 0.78427 0.07605 0.0
O94 O 0.10088 0.79571 0.11362 0.0
O95 O 0.04471 0.80442 0.08855 0.0
O96 O 0.02442 0.83243 0.06604 0.0
O97 O 0.09766 0.84276 0.07588 0.0
C98 C 0.0486 0.86101 0.13417 0.0
C99 C 0.03845 0.81175 0.06807 0.0
Zn100 Zn 0.65305 0.01083 0.10842 0.0
Zn101 Zn 0.66316 0.0858 0.10551 0.0
C102 C 0.69953 0.98276 0.10144 0.0
O103 O 0.68372 0.97375 0.08496 0.0
C104 C 0.62424 0.12061 0.0863 0.0
O105 O 0.61879 0.12281 0.10883 0.0
O106 O 0.63116 0.97698 0.10825 0.0
O107 O 0.63735 0.03456 0.13477 0.0
O108 O 0.6411 0.07852 0.13366 0.0
C109 C 0.63647 0.95982 0.12394 0.0
O110 O 0.65524 0.96489 0.13923 0.0
O111 O 0.69069 0.99985 0.11589 0.0
C112 C 0.70901 0.11409 0.09717 0.0
O113 O 0.7062 0.10079 0.0775 0.0
O114 O 0.6921 0.11099 0.11347 0.0
O115 O 0.68096 0.05293 0.09561 0.0
O116 O 0.65763 0.02574 0.07505 0.0
O117 O 0.64193 0.10424 0.07989 0.0
C118 C 0.63282 0.05747 0.14343 0.0
C119 C 0.67477 0.04402 0.07564 0.0
Zn120 Zn 0.48583 0.65837 0.11094 0.0
Zn121 Zn 0.414 0.67065 0.10814 0.0
C122 C 0.52113 0.70024 0.12931 0.0
O123 O 0.53845 0.68116 0.13161 0.0
C124 C 0.3739 0.6404 0.08823 0.0
O125 O 0.36663 0.64373 0.11024 0.0
O126 O 0.5183 0.63577 0.10592 0.0
O127 O 0.46363 0.6399 0.13671 0.0
O128 O 0.42037 0.64714 0.13531 0.0
C129 C 0.52739 0.6219 0.12272 0.0
O130 O 0.51529 0.62232 0.14318 0.0
O131 O 0.49792 0.69471 0.12227 0.0
C132 C 0.3777 0.70926 0.09927 0.0
O133 O 0.3895 0.70636 0.07883 0.0
O134 O 0.38633 0.69654 0.1169 0.0
O135 O 0.44493 0.69256 0.09888 0.0
O136 O 0.47005 0.6664 0.0785 0.0
O137 O 0.39634 0.64937 0.08184 0.0
C138 C 0.44034 0.63638 0.14472 0.0
C139 C 0.45512 0.68649 0.07934 0.0
Zn140 Zn 0.83563 0.48762 0.10926 0.0
Zn141 Zn 0.83478 0.41622 0.10945 0.0
C142 C 0.78752 0.51315 0.1018 0.0
O143 O 0.79981 0.51697 0.08171 0.0
C144 C 0.881 0.39308 0.09356 0.0
O145 O 0.88199 0.38912 0.1164 0.0
O146 O 0.85683 0.5208 0.10144 0.0
O147 O 0.85202 0.4708 0.13913 0.0
O148 O 0.84966 0.42707 0.13983 0.0
C149 C 0.87762 0.52738 0.1126 0.0
O150 O 0.88708 0.51128 0.12862 0.0
O151 O 0.79957 0.50113 0.11826 0.0
C152 C 0.81517 0.36863 0.09365 0.0
O153 O 0.81865 0.38172 0.07393 0.0
O154 O 0.8197 0.38005 0.11317 0.0
O155 O 0.80419 0.43725 0.09851 0.0
O156 O 0.8268 0.46682 0.07886 0.0
O157 O 0.86357 0.40882 0.08556 0.0
C158 C 0.85616 0.44875 0.14935 0.0
C159 C 0.80639 0.45227 0.08088 0.0
Zn160 Zn 0.41638 0.84201 0.60593 0.0
Zn161 Zn 0.49265 0.83594 0.60885 0.0
C162 C 0.37668 0.87565 0.58891 0.0
O163 O 0.37112 0.87406 0.61146 0.0
C164 C 0.51231 0.78632 0.59886 0.0
O165 O 0.5208 0.80175 0.58187 0.0
O166 O 0.38711 0.82127 0.62077 0.0
O167 O 0.44213 0.81669 0.59228 0.0
O168 O 0.47597 0.8361 0.57616 0.0
C169 C 0.38151 0.79743 0.61597 0.0
O170 O 0.39713 0.78389 0.60202 0.0
O171 O 0.39743 0.86422 0.58134 0.0
C172 C 0.5455 0.84679 0.623 0.0
O173 O 0.53837 0.82989 0.63937 0.0
O174 O 0.52906 0.85267 0.60691 0.0
O175 O 0.47451 0.85684 0.63558 0.0
O176 O 0.4314 0.86458 0.63121 0.0
O177 O 0.49863 0.79664 0.61533 0.0
C178 C 0.45459 0.82322 0.57387 0.0
C179 C 0.45303 0.86782 0.64214 0.0
Zn180 Zn 0.68199 0.42679 0.59967 0.0
Zn181 Zn 0.66505 0.48609 0.58905 0.0
C182 C 0.63394 0.39956 0.59147 0.0
O183 O 0.63871 0.39265 0.61335 0.0
C184 C 0.71155 0.51512 0.58186 0.0
O185 O 0.69829 0.51844 0.56222 0.0
O186 O 0.69854 0.39114 0.60387 0.0
O187 O 0.70688 0.44752 0.58007 0.0
O188 O 0.67473 0.46444 0.55916 0.0
C189 C 0.69771 0.37613 0.58594 0.0
O190 O 0.68892 0.38556 0.56589 0.0
O191 O 0.64832 0.41737 0.58212 0.0
C192 C 0.64406 0.5377 0.59451 0.0
O193 O 0.66137 0.53673 0.61168 0.0
O194 O 0.64172 0.51779 0.58092 0.0
O195 O 0.64563 0.46979 0.6178 0.0
O196 O 0.67448 0.44107 0.63136 0.0
O197 O 0.70093 0.50164 0.5983 0.0
C198 C 0.69808 0.45505 0.56033 0.0
C199 C 0.65428 0.45535 0.63447 0.0
Zn200 Zn 0.0691 0.68464 0.60477 0.0
Zn201 Zn 0.01667 0.66117 0.58889 0.0
C202 C 0.10476 0.64255 0.59381 0.0
O203 O 0.11131 0.6468 0.61586 0.0
C204 C 0.98437 0.70543 0.59006 0.0
O205 O 0.97945 0.69463 0.56949 0.0
O206 O 0.10061 0.70528 0.61525 0.0
O207 O 0.04841 0.70875 0.58459 0.0
O208 O 0.03712 0.67693 0.56042 0.0
C209 C 0.11592 0.71306 0.59895 0.0
O210 O 0.10925 0.70868 0.57695 0.0
O211 O 0.08524 0.6551 0.58522 0.0
C212 C 0.97129 0.63066 0.5964 0.0
O213 O 0.97965 0.63592 0.61778 0.0
O214 O 0.98465 0.63929 0.57898 0.0
O215 O 0.03556 0.63795 0.61361 0.0
O216 O 0.05127 0.67148 0.6335 0.0
O217 O 1.00029 0.69375 0.60391 0.0
C218 C 0.04432 0.70085 0.56375 0.0
C219 C 0.04375 0.64766 0.63294 0.0
Zn220 Zn 0.81764 0.07508 0.62014 0.0
Zn221 Zn 0.84003 0.00775 0.61689 0.0
C222 C 0.84515 0.11698 0.5994 0.0
O223 O 0.83908 0.12597 0.62041 0.0
C224 C 0.80121 0.97056 0.63838 0.0
O225 O 0.82152 0.95619 0.64482 0.0
O226 O 0.78984 0.1018 0.62832 0.0
O227 O 0.79907 0.04251 0.60945 0.0
O228 O 0.82917 0.02628 0.58625 0.0
C229 C 0.77542 0.10852 0.61105 0.0
O230 O 0.77841 0.09628 0.59087 0.0
O231 O 0.83896 0.09325 0.59427 0.0
C232 C 0.87909 0.96647 0.62378 0.0
O233 O 0.88214 0.97841 0.64412 0.0
O234 O 0.86282 0.97594 0.60896 0.0
O235 O 0.85795 0.02884 0.64365 0.0
O236 O 0.84102 0.06912 0.64762 0.0
O237 O 0.80513 0.99259 0.62823 0.0
C238 C 0.80616 0.0358 0.58898 0.0
C239 C 0.85652 0.05094 0.65443 0.0
Zn240 Zn 0.92319 0.16949 0.91007 0.0
Zn241 Zn 0.9961 0.15978 0.90939 0.0
C242 C 0.88677 0.13291 0.92818 0.0
O243 O 0.88273 0.13152 0.90538 0.0
C244 C 0.02127 0.20396 0.88261 0.0
O245 O 0.03032 0.18622 0.8678 0.0
O246 O 0.89519 0.19466 0.90069 0.0
O247 O 0.95378 0.19124 0.91991 0.0
O248 O 0.97924 0.16711 0.94171 0.0
C249 C 0.88389 0.20608 0.91781 0.0
O250 O 0.89185 0.20106 0.93933 0.0
O251 O 0.90567 0.14723 0.93568 0.0
C252 C 0.04038 0.12734 0.89639 0.0
O253 O 0.02697 0.12575 0.87668 0.0
O254 O 0.0307 0.14027 0.91356 0.0
O255 O 0.9753 0.14173 0.8822 0.0
O256 O 0.93185 0.14812 0.8822 0.0
O257 O 0.0066 0.19672 0.89957 0.0
C258 C 0.96271 0.18588 0.94006 0.0
C259 C 0.95251 0.13841 0.87302 0.0
Zn260 Zn 0.34381 0.91974 0.8972 0.0
Zn261 Zn 0.34832 0.99322 0.90491 0.0
C262 C 0.38119 0.88494 0.91441 0.0
O263 O 0.38114 0.88068 0.89159 0.0
C264 C 0.30765 0.03119 0.89106 0.0
O265 O 0.3274 0.04801 0.89026 0.0
O266 O 0.3232 0.88938 0.88429 0.0
O267 O 0.31806 0.94646 0.90818 0.0
O268 O 0.33863 0.97056 0.9339 0.0
C269 C 0.31445 0.87312 0.89941 0.0
O270 O 0.31809 0.87805 0.92188 0.0
O271 O 0.36701 0.90362 0.92249 0.0
C272 C 0.39211 0.03101 0.90674 0.0
O273 O 0.40403 0.01346 0.89345 0.0
O274 O 0.36925 0.02578 0.91485 0.0
O275 O 0.36751 0.97726 0.8757 0.0
O276 O 0.36628 0.93348 0.87186 0.0
O277 O 0.31235 0.00695 0.89519 0.0
C278 C 0.32145 0.95293 0.92941 0.0
C279 C 0.37385 0.95603 0.8649 0.0
Zn280 Zn 0.58026 0.3374 0.89331 0.0
Zn281 Zn 0.50978 0.34606 0.88979 0.0
C282 C 0.60907 0.37863 0.91367 0.0
O283 O 0.6177 0.37808 0.89186 0.0
C284 C 0.47648 0.30189 0.89379 0.0
O285 O 0.46773 0.31742 0.9106 0.0
O286 O 0.6128 0.31582 0.88985 0.0
O287 O 0.55177 0.3118 0.90062 0.0
O288 O 0.52669 0.33691 0.9219 0.0
C289 C 0.62406 0.30976 0.90905 0.0
O290 O 0.61333 0.31705 0.92907 0.0
O291 O 0.58969 0.36376 0.91917 0.0
C292 C 0.46566 0.37853 0.87749 0.0
O293 O 0.47449 0.37304 0.8563 0.0
O294 O 0.4781 0.36969 0.89525 0.0
O295 O 0.53085 0.36241 0.86155 0.0
O296 O 0.5741 0.35591 0.86354 0.0
O297 O 0.49485 0.3103 0.88041 0.0
C298 C 0.54151 0.31674 0.92034 0.0
C299 C 0.55407 0.36504 0.85298 0.0
Zn300 Zn 0.17114 0.58378 0.88413 0.0
Zn301 Zn 0.15691 0.51347 0.889 0.0
C302 C 0.13846 0.62475 0.90074 0.0
O303 O 0.13849 0.62895 0.87792 0.0
C304 C 0.20451 0.48748 0.89624 0.0
O305 O 0.19137 0.48327 0.91584 0.0
O306 O 0.19649 0.60957 0.87073 0.0
O307 O 0.19277 0.55464 0.89748 0.0
O308 O 0.16437 0.53412 0.91974 0.0
C309 C 0.21324 0.61878 0.88511 0.0
O310 O 0.21341 0.60986 0.90682 0.0
O311 O 0.15072 0.60469 0.90867 0.0
C312 C 0.13562 0.46435 0.87777 0.0
O313 O 0.14788 0.47145 0.85838 0.0
O314 O 0.13606 0.48001 0.89531 0.0
O315 O 0.13847 0.53066 0.86041 0.0
O316 O 0.14775 0.57337 0.85814 0.0
O317 O 0.19333 0.50042 0.87983 0.0
C318 C 0.18557 0.54749 0.91779 0.0
C319 C 0.13621 0.553 0.85025 0.0
H320 H 0.58534 0.10421 0.36014 0.0
H321 H 0.59389 0.08252 0.32253 0.0
H322 H 0.53042 0.12671 0.29078 0.0
H323 H 0.52083 0.14735 0.32897 0.0
H324 H 0.53323 0.08073 0.2702 0.0
H325 H 0.59613 0.14787 0.28851 0.0
H326 H 0.62901 0.17126 0.31282 0.0
H327 H 0.67916 0.10297 0.3116 0.0
H328 H 0.64636 0.07902 0.28758 0.0
H329 H 0.60072 0.09769 0.15698 0.0
H330 H 0.58137 0.10516 0.19592 0.0
H331 H 0.61441 0.03174 0.22035 0.0
H332 H 0.63316 0.02362 0.18105 0.0
H333 H 0.62644 0.08961 0.24437 0.0
H334 H 0.56043 0.02427 0.22248 0.0
H335 H 0.52662 0.00568 0.19603 0.0
H336 H 0.48191 0.07747 0.2009 0.0
H337 H 0.5157 0.09665 0.2271 0.0
C338 C 0.57283 0.10882 0.34524 0.0
C339 C 0.5526 0.12762 0.34734 0.0
C340 C 0.57783 0.09656 0.32371 0.0
C341 C 0.5634 0.1036 0.30357 0.0
C342 C 0.54199 0.12108 0.30599 0.0
C343 C 0.5365 0.13288 0.32779 0.0
C344 C 0.57207 0.09438 0.27987 0.0
C345 C 0.55359 0.08278 0.26458 0.0
C346 C 0.59867 0.09707 0.27234 0.0
C347 C 0.61866 0.11156 0.28645 0.0
C348 C 0.6141 0.13779 0.29353 0.0
C349 C 0.63272 0.15115 0.30726 0.0
C350 C 0.65612 0.13858 0.31381 0.0
C351 C 0.661 0.11266 0.30656 0.0
C352 C 0.64241 0.09919 0.29287 0.0
C353 C 0.60344 0.08287 0.17051 0.0
C354 C 0.61848 0.06008 0.16601 0.0
C355 C 0.59233 0.08715 0.1927 0.0
C356 C 0.59643 0.06897 0.21091 0.0
C357 C 0.61089 0.04587 0.2064 0.0
C358 C 0.62151 0.04124 0.18398 0.0
C359 C 0.58775 0.0756 0.23508 0.0
C360 C 0.60621 0.08714 0.25028 0.0
C361 C 0.5611 0.0735 0.24221 0.0
C362 C 0.54075 0.06199 0.22652 0.0
C363 C 0.54355 0.0362 0.21769 0.0
C364 C 0.52434 0.02553 0.2028 0.0
C365 C 0.50217 0.04041 0.19672 0.0
C366 C 0.49911 0.06598 0.20559 0.0
C367 C 0.51828 0.07675 0.22047 0.0
H368 H 0.48731 0.03211 0.1852 0.0
H369 H 0.6705 0.14895 0.32446 0.0
H370 H 0.47315 0.62937 0.18263 0.0
H371 H 0.46237 0.60731 0.21982 0.0
H372 H 0.38692 0.58371 0.19138 0.0
H373 H 0.39709 0.60685 0.15486 0.0
H374 H 0.37853 0.60299 0.23124 0.0
H375 H 0.44054 0.53909 0.20368 0.0
H376 H 0.48287 0.52281 0.18794 0.0
H377 H 0.52309 0.55157 0.24932 0.0
H378 H 0.48104 0.56836 0.26529 0.0
H379 H 0.34318 0.5223 0.32893 0.0
H380 H 0.3615 0.52946 0.28932 0.0
H381 H 0.41977 0.58245 0.31816 0.0
H382 H 0.40101 0.57614 0.3575 0.0
H383 H 0.43681 0.54436 0.27794 0.0
H384 H 0.37389 0.61283 0.30163 0.0
H385 H 0.33073 0.62717 0.31714 0.0
H386 H 0.29136 0.58612 0.26107 0.0
H387 H 0.33434 0.57115 0.24549 0.0
C388 C 0.45447 0.61909 0.18425 0.0
C389 C 0.4359 0.61996 0.16592 0.0
C390 C 0.44832 0.60636 0.20549 0.0
C391 C 0.4238 0.59363 0.20851 0.0
C392 C 0.40585 0.5935 0.18968 0.0
C393 C 0.41173 0.60668 0.16875 0.0
C394 C 0.4158 0.58233 0.23172 0.0
C395 C 0.3912 0.58975 0.24109 0.0
C396 C 0.43233 0.56539 0.24506 0.0
C397 C 0.45765 0.55519 0.23558 0.0
C398 C 0.45843 0.54211 0.21375 0.0
C399 C 0.48238 0.53277 0.2048 0.0
C400 C 0.50567 0.53622 0.21759 0.0
C401 C 0.50504 0.54894 0.23941 0.0
C402 C 0.48115 0.55835 0.24844 0.0
C403 C 0.36033 0.53489 0.32685 0.0
C404 C 0.37062 0.54878 0.34618 0.0
C405 C 0.37075 0.53898 0.30428 0.0
C406 C 0.39198 0.55647 0.30089 0.0
C407 C 0.40352 0.56875 0.32045 0.0
C408 C 0.39271 0.56522 0.34286 0.0
C409 C 0.39974 0.56495 0.2769 0.0
C410 C 0.42422 0.55723 0.26764 0.0
C411 C 0.38304 0.58134 0.26343 0.0
C412 C 0.35726 0.5906 0.27259 0.0
C413 C 0.35601 0.60665 0.29276 0.0
C414 C 0.33159 0.61493 0.30153 0.0
C415 C 0.30831 0.60749 0.29014 0.0
C416 C 0.30941 0.59182 0.26991 0.0
C417 C 0.33379 0.58343 0.2611 0.0
H418 H 0.28942 0.61392 0.29695 0.0
H419 H 0.52419 0.52898 0.21063 0.0
H420 H 0.94251 0.41021 0.36397 0.0
H421 H 0.93145 0.43712 0.32936 0.0
H422 H 0.9386 0.36826 0.2851 0.0
H423 H 0.94962 0.34148 0.31929 0.0
H424 H 0.96119 0.41214 0.26499 0.0
H425 H 0.87908 0.38793 0.30505 0.0
H426 H 0.84989 0.38772 0.33982 0.0
H427 H 0.84915 0.47254 0.3401 0.0
H428 H 0.87862 0.47321 0.30548 0.0
H429 H 0.87857 0.40578 0.16957 0.0
H430 H 0.89916 0.40217 0.20793 0.0
H431 H 0.88446 0.48473 0.22106 0.0
H432 H 0.86356 0.4887 0.182 0.0
H433 H 0.87042 0.44842 0.25961 0.0
H434 H 0.94453 0.47081 0.21244 0.0
H435 H 0.97336 0.46922 0.17749 0.0
H436 H 0.98941 0.38727 0.1905 0.0
H437 H 0.96035 0.38822 0.22532 0.0
C438 C 0.94204 0.40094 0.3468 0.0
C439 C 0.94677 0.37368 0.34437 0.0
C440 C 0.93565 0.4163 0.32708 0.0
C441 C 0.93407 0.40465 0.30468 0.0
C442 C 0.93978 0.37769 0.30219 0.0
C443 C 0.94594 0.36236 0.3218 0.0
C444 C 0.92507 0.4197 0.28376 0.0
C445 C 0.94143 0.42027 0.26384 0.0
C446 C 0.89957 0.43105 0.2825 0.0
C447 C 0.88126 0.43063 0.30286 0.0
C448 C 0.87277 0.40653 0.3126 0.0
C449 C 0.85619 0.40632 0.33229 0.0
C450 C 0.84774 0.4301 0.34224 0.0
C451 C 0.85574 0.45413 0.33242 0.0
C452 C 0.87237 0.45444 0.31276 0.0
C453 C 0.87963 0.42331 0.18046 0.0
C454 C 0.86932 0.44757 0.17266 0.0
C455 C 0.89155 0.42119 0.20243 0.0
C456 C 0.89351 0.44319 0.21727 0.0
C457 C 0.88318 0.46753 0.20978 0.0
C458 C 0.87137 0.46978 0.18748 0.0
C459 C 0.90622 0.43985 0.2406 0.0
C460 C 0.89055 0.44129 0.26095 0.0
C461 C 0.93238 0.43027 0.24229 0.0
C462 C 0.95018 0.4296 0.2215 0.0
C463 C 0.95409 0.4524 0.20779 0.0
C464 C 0.97049 0.45162 0.188 0.0
C465 C 0.9832 0.42816 0.18178 0.0
C466 C 0.97957 0.40544 0.19536 0.0
C467 C 0.96317 0.40611 0.21516 0.0
H468 H 0.99587 0.42759 0.16644 0.0
H469 H 0.83495 0.4299 0.35752 0.0
H470 H 0.15865 0.93042 0.3111 0.0
H471 H 0.13485 0.92376 0.27431 0.0
H472 H 0.07306 0.97572 0.29822 0.0
H473 H 0.09731 0.98312 0.33527 0.0
H474 H 0.05861 0.91993 0.27809 0.0
H475 H 0.10166 0.00128 0.25934 0.0
H476 H 0.13907 0.03243 0.25801 0.0
H477 H 0.18317 0.97782 0.21563 0.0
H478 H 0.14617 0.94614 0.21702 0.0
H479 H 0.01211 0.88899 0.16063 0.0
H480 H 0.02076 0.91521 0.19629 0.0
H481 H 0.10374 0.89722 0.19066 0.0
H482 H 0.09551 0.87178 0.15533 0.0
H483 H 0.09782 0.94724 0.20184 0.0
H484 H 0.06099 0.86321 0.22822 0.0
H485 H 0.02619 0.82921 0.23091 0.0
H486 H 0.97255 0.88644 0.25959 0.0
H487 H 0.007 0.92085 0.25681 0.0
C488 C 0.14007 0.94059 0.30858 0.0
C489 C 0.12985 0.95729 0.32613 0.0
C490 C 0.12651 0.93677 0.28751 0.0
C491 C 0.10223 0.94922 0.28358 0.0
C492 C 0.0918 0.96595 0.30098 0.0
C493 C 0.10571 0.97024 0.32202 0.0
C494 C 0.0881 0.944 0.2612 0.0
C495 C 0.0666 0.92651 0.26136 0.0
C496 C 0.09889 0.95222 0.23947 0.0
C497 C 0.12116 0.97128 0.23839 0.0
C498 C 0.1194 0.99582 0.24989 0.0
C499 C 0.14053 0.01359 0.24909 0.0
C500 C 0.16349 0.0071 0.23676 0.0
C501 C 0.16536 0.98283 0.22516 0.0
C502 C 0.1443 0.96497 0.22592 0.0
C503 C 0.0322 0.89085 0.16693 0.0
C504 C 0.05306 0.8781 0.15512 0.0
C505 C 0.03711 0.90576 0.18735 0.0
C506 C 0.06292 0.90811 0.19628 0.0
C507 C 0.08368 0.89588 0.18414 0.0
C508 C 0.07886 0.88112 0.16392 0.0
C509 C 0.0689 0.9223 0.21863 0.0
C510 C 0.08907 0.94139 0.21848 0.0
C511 C 0.05707 0.91528 0.24036 0.0
C512 C 0.03641 0.89465 0.242 0.0
C513 C 0.0417 0.86857 0.23492 0.0
C514 C 0.02206 0.84923 0.23649 0.0
C515 C 0.99714 0.85568 0.24533 0.0
C516 C 0.99184 0.88148 0.25268 0.0
C517 C 0.01141 0.90091 0.25111 0.0
H518 H 0.98196 0.84068 0.24654 0.0
H519 H 0.17983 0.02088 0.23617 0.0
H520 H 0.41259 0.9222 0.85237 0.0
H521 H 0.43255 0.91693 0.81353 0.0
H522 H 0.38966 0.98489 0.78857 0.0
H523 H 0.3699 0.99058 0.82787 0.0
H524 H 0.38107 0.93729 0.7628 0.0
H525 H 0.45388 0.98919 0.78983 0.0
H526 H 0.48914 0.00224 0.81736 0.0
H527 H 0.52579 0.92638 0.8091 0.0
H528 H 0.49053 0.91271 0.78178 0.0
H529 H 0.42526 0.91294 0.64871 0.0
H530 H 0.41844 0.93696 0.68547 0.0
H531 H 0.47089 0.88312 0.72115 0.0
H532 H 0.47895 0.85994 0.68386 0.0
H533 H 0.47547 0.92969 0.74045 0.0
H534 H 0.40184 0.87459 0.72016 0.0
H535 H 0.36632 0.8576 0.69462 0.0
H536 H 0.33058 0.93444 0.69305 0.0
H537 H 0.36613 0.95198 0.71832 0.0
C538 C 0.408 0.93649 0.83879 0.0
C539 C 0.38972 0.9568 0.84308 0.0
C540 C 0.41947 0.93349 0.81662 0.0
C541 C 0.41263 0.95052 0.79816 0.0
C542 C 0.39529 0.97162 0.80264 0.0
C543 C 0.38415 0.97496 0.82507 0.0
C544 C 0.42114 0.94403 0.77381 0.0
C545 C 0.40169 0.9363 0.75768 0.0
C546 C 0.44807 0.94166 0.76754 0.0
C547 C 0.46944 0.94987 0.78385 0.0
C548 C 0.46934 0.97521 0.79401 0.0
C549 C 0.48936 0.98274 0.80956 0.0
C550 C 0.50967 0.96514 0.815 0.0
C551 C 0.51005 0.93999 0.80487 0.0
C552 C 0.49006 0.93236 0.78932 0.0
C553 C 0.43575 0.90657 0.66431 0.0
C554 C 0.45241 0.88442 0.66354 0.0
C555 C 0.43172 0.92021 0.68536 0.0
C556 C 0.44346 0.91139 0.70632 0.0
C557 C 0.46143 0.89024 0.70528 0.0
C558 C 0.46603 0.87697 0.684 0.0
C559 C 0.43536 0.92285 0.72941 0.0
C560 C 0.45483 0.93122 0.74537 0.0
C561 C 0.40839 0.92524 0.73583 0.0
C562 C 0.38679 0.91466 0.72091 0.0
C563 C 0.38649 0.88789 0.71425 0.0
C564 C 0.36635 0.87816 0.69983 0.0
C565 C 0.34625 0.89495 0.69216 0.0
C566 C 0.34619 0.92147 0.69897 0.0
C567 C 0.36632 0.93132 0.71334 0.0
H568 H 0.33069 0.88738 0.68098 0.0
H569 H 0.52515 0.971 0.82705 0.0
H570 H 0.60139 0.37481 0.83209 0.0
H571 H 0.61035 0.39658 0.79505 0.0
H572 H 0.52704 0.40879 0.7842 0.0
H573 H 0.51759 0.38635 0.82181 0.0
H574 H 0.55338 0.39132 0.7434 0.0
H575 H 0.56364 0.46081 0.79881 0.0
H576 H 0.57853 0.4819 0.8356 0.0
H577 H 0.65935 0.46992 0.81551 0.0
H578 H 0.64497 0.44841 0.77875 0.0
H579 H 0.602 0.46615 0.64353 0.0
H580 H 0.57774 0.45762 0.68029 0.0
H581 H 0.64967 0.43092 0.71302 0.0
H582 H 0.6738 0.43902 0.67656 0.0
H583 H 0.61943 0.46381 0.74217 0.0
H584 H 0.60856 0.38724 0.6913 0.0
H585 H 0.59456 0.36559 0.65447 0.0
H586 H 0.51489 0.39134 0.66614 0.0
H587 H 0.52854 0.41355 0.70287 0.0
C588 C 0.58476 0.38207 0.82203 0.0
C589 C 0.55867 0.37884 0.83015 0.0
C590 C 0.59002 0.39469 0.80076 0.0
C591 C 0.56945 0.40474 0.78696 0.0
C592 C 0.54326 0.40132 0.79466 0.0
C593 C 0.5379 0.38858 0.81617 0.0
C594 C 0.57605 0.41846 0.76451 0.0
C595 C 0.56723 0.40768 0.74312 0.0
C596 C 0.59438 0.43963 0.76406 0.0
C597 C 0.60319 0.45291 0.78602 0.0
C598 C 0.58459 0.46255 0.80228 0.0
C599 C 0.59295 0.47459 0.82313 0.0
C600 C 0.61987 0.47723 0.82789 0.0
C601 C 0.6385 0.46789 0.81179 0.0
C602 C 0.63026 0.45581 0.79091 0.0
C603 C 0.61267 0.45881 0.65869 0.0
C604 C 0.63981 0.45317 0.65711 0.0
C605 C 0.59877 0.45384 0.67962 0.0
C606 C 0.61188 0.44351 0.69936 0.0
C607 C 0.63914 0.43892 0.69804 0.0
C608 C 0.6529 0.44349 0.67714 0.0
C609 C 0.59743 0.43612 0.7212 0.0
C610 C 0.60492 0.44804 0.74245 0.0
C611 C 0.5779 0.41607 0.72148 0.0
C612 C 0.56962 0.40234 0.69965 0.0
C613 C 0.58809 0.38846 0.68591 0.0
C614 C 0.58023 0.37607 0.66507 0.0
C615 C 0.55387 0.37716 0.65793 0.0
C616 C 0.53531 0.39057 0.67167 0.0
C617 C 0.5431 0.40306 0.69249 0.0
H618 H 0.54782 0.36757 0.64178 0.0
H619 H 0.6263 0.48654 0.84406 0.0
H620 H 0.05506 0.66466 0.67708 0.0
H621 H 0.06689 0.63832 0.7112 0.0
H622 H 0.05317 0.56684 0.67182 0.0
H623 H 0.0411 0.59333 0.63709 0.0
H624 H 0.03536 0.56735 0.72308 0.0
H625 H 0.11175 0.57942 0.67511 0.0
H626 H 0.14175 0.6048 0.64949 0.0
H627 H 0.15859 0.65809 0.70634 0.0
H628 H 0.12836 0.63323 0.73224 0.0
H629 H 0.11667 0.5139 0.82085 0.0
H630 H 0.09725 0.52014 0.78147 0.0
H631 H 0.10346 0.60456 0.78981 0.0
H632 H 0.12234 0.59872 0.82864 0.0
H633 H 0.12741 0.58495 0.74853 0.0
H634 H 0.04554 0.57663 0.79367 0.0
H635 H 0.01418 0.55238 0.81893 0.0
H636 H 0.0081 0.4911 0.76694 0.0
H637 H 0.03972 0.51486 0.74149 0.0
C638 C 0.05421 0.64335 0.6756 0.0
C639 C 0.04749 0.63111 0.65421 0.0
C640 C 0.06091 0.62831 0.6952 0.0
C641 C 0.06118 0.60067 0.69395 0.0
C642 C 0.05306 0.58818 0.6731 0.0
C643 C 0.04627 0.60333 0.6533 0.0
C644 C 0.07239 0.58564 0.71397 0.0
C645 C 0.05567 0.57052 0.72839 0.0
C646 C 0.09888 0.58985 0.72086 0.0
C647 C 0.11769 0.60449 0.70559 0.0
C648 C 0.12176 0.59662 0.68212 0.0
C649 C 0.1388 0.61092 0.66755 0.0
C650 C 0.15203 0.63309 0.67626 0.0
C651 C 0.14833 0.64091 0.69962 0.0
C652 C 0.13128 0.62668 0.71427 0.0
C653 C 0.11348 0.53376 0.81439 0.0
C654 C 0.12138 0.55578 0.82784 0.0
C655 C 0.10245 0.53728 0.7919 0.0
C656 C 0.09924 0.56283 0.78265 0.0
C657 C 0.10606 0.58468 0.79649 0.0
C658 C 0.11686 0.58124 0.81877 0.0
C659 C 0.09012 0.56755 0.7582 0.0
C660 C 0.10734 0.58089 0.74291 0.0
C661 C 0.06423 0.56149 0.75055 0.0
C662 C 0.04525 0.54731 0.76584 0.0
C663 C 0.03772 0.55785 0.78773 0.0
C664 C 0.01985 0.54423 0.80206 0.0
C665 C 0.00923 0.52016 0.79459 0.0
C666 C 0.01639 0.50971 0.77273 0.0
C667 C 0.03427 0.52325 0.75835 0.0
H668 H 0.9954 0.50966 0.8057 0.0
H669 H 0.16518 0.64417 0.66492 0.0
H670 H 0.85501 0.09408 0.68305 0.0
H671 H 0.88119 0.10309 0.71782 0.0
H672 H 0.92184 0.0289 0.70928 0.0
H673 H 0.89507 0.01934 0.67424 0.0
H674 H 0.90908 0.03712 0.7549 0.0
H675 H 0.95424 0.08616 0.69691 0.0
H676 H 0.95984 0.11583 0.66288 0.0
H677 H 0.92589 0.17976 0.70222 0.0
H678 H 0.91969 0.15039 0.73639 0.0
H679 H 0.98461 0.10074 0.85229 0.0
H680 H 0.97835 0.07985 0.81339 0.0
H681 H 0.90821 0.12639 0.80267 0.0
H682 H 0.9138 0.14661 0.84113 0.0
H683 H 0.95017 0.12556 0.76406 0.0
H684 H 0.89579 0.07055 0.8173 0.0
H685 H 0.89103 0.04024 0.85102 0.0
H686 H 0.94644 0.98675 0.81943 0.0
H687 H 0.95178 0.01699 0.78565 0.0
C688 C 0.86954 0.07959 0.68836 0.0
C689 C 0.87295 0.05598 0.67565 0.0
C690 C 0.88466 0.08489 0.70828 0.0
C691 C 0.90392 0.06696 0.71593 0.0
C692 C 0.90725 0.04314 0.70358 0.0
C693 C 0.89194 0.03772 0.68355 0.0
C694 C 0.91974 0.07332 0.73726 0.0
C695 C 0.91872 0.05616 0.75667 0.0
C696 C 0.93257 0.09807 0.73966 0.0
C697 C 0.93645 0.116 0.71923 0.0
C698 C 0.94784 0.10651 0.69829 0.0
C699 C 0.95112 0.12328 0.67896 0.0
C700 C 0.94321 0.14966 0.68039 0.0
C701 C 0.93203 0.15932 0.70116 0.0
C702 C 0.92868 0.14263 0.72053 0.0
C703 C 0.96789 0.10642 0.84158 0.0
C704 C 0.94966 0.12524 0.84985 0.0
C705 C 0.96433 0.09449 0.81946 0.0
C706 C 0.94284 0.10169 0.80523 0.0
C707 C 0.92493 0.12062 0.81338 0.0
C708 C 0.92812 0.13205 0.83547 0.0
C709 C 0.93832 0.08992 0.78172 0.0
C710 C 0.94141 0.10615 0.76193 0.0
C711 C 0.92777 0.06426 0.77893 0.0
C712 C 0.92448 0.04617 0.79917 0.0
C713 C 0.90717 0.05246 0.81768 0.0
C714 C 0.90431 0.03527 0.83677 0.0
C715 C 0.91851 0.01163 0.83741 0.0
C716 C 0.93552 0.0051 0.81894 0.0
C717 C 0.93847 0.02225 0.79983 0.0
H718 H 0.91626 0.99834 0.8522 0.0
H719 H 0.94576 0.16261 0.6654 0.0
H720 H 0.43319 0.13266 0.43265 0.0
H721 H 0.38964 0.11146 0.43417 0.0
H722 H 0.39703 0.08974 0.36102 0.0
H723 H 0.43997 0.11133 0.35927 0.0
H724 H 0.3514 0.11103 0.36766 0.0
H725 H 0.4011 0.04419 0.40736 0.0
H726 H 0.43059 0.025 0.43729 0.0
H727 H 0.37668 0.04797 0.4919 0.0
H728 H 0.34705 0.06772 0.46233 0.0
H729 H 0.2377 0.02734 0.36235 0.0
H730 H 0.28339 0.04345 0.36177 0.0
H731 H 0.27452 0.07217 0.4328 0.0
H732 H 0.22915 0.05613 0.43358 0.0
H733 H 0.32095 0.04609 0.4271 0.0
H734 H 0.27245 0.11443 0.38699 0.0
H735 H 0.24252 0.13216 0.35668 0.0
H736 H 0.2946 0.10455 0.30235 0.0
H737 H 0.32468 0.08632 0.33236 0.0
C738 C 0.42564 0.12305 0.417 0.0
C739 C 0.43998 0.12381 0.39581 0.0
C740 C 0.40077 0.11086 0.41789 0.0
C741 C 0.38999 0.09888 0.3977 0.0
C742 C 0.40476 0.09895 0.37679 0.0
C743 C 0.42939 0.11129 0.37584 0.0
C744 C 0.36275 0.08771 0.39775 0.0
C745 C 0.34495 0.09651 0.38048 0.0
C746 C 0.35398 0.0692 0.41476 0.0
C747 C 0.37201 0.05776 0.43263 0.0
C748 C 0.39568 0.04545 0.42577 0.0
C749 C 0.41239 0.03441 0.44267 0.0
C750 C 0.40557 0.03538 0.46649 0.0
C751 C 0.38199 0.04733 0.47345 0.0
C752 C 0.36522 0.05845 0.45663 0.0
C753 C 0.24546 0.03719 0.37779 0.0
C754 C 0.22969 0.04057 0.39794 0.0
C755 C 0.27157 0.04639 0.37744 0.0
C756 C 0.28235 0.05914 0.39722 0.0
C757 C 0.26667 0.06236 0.41736 0.0
C758 C 0.24064 0.05329 0.4177 0.0
C759 C 0.30987 0.06939 0.39702 0.0
C760 C 0.3276 0.0605 0.41427 0.0
C761 C 0.31867 0.08772 0.37996 0.0
C762 C 0.30067 0.09878 0.36191 0.0
C763 C 0.27741 0.11196 0.36858 0.0
C764 C 0.26044 0.12213 0.35146 0.0
C765 C 0.26661 0.11942 0.32761 0.0
C766 C 0.28982 0.10659 0.32083 0.0
C767 C 0.30685 0.09636 0.33789 0.0
H768 H 0.25345 0.1273 0.31438 0.0
H769 H 0.4185 0.02675 0.47954 0.0
H770 H 0.4164 0.46042 0.38296 0.0
H771 H 0.43531 0.41605 0.38204 0.0
H772 H 0.37933 0.39049 0.4345 0.0
H773 H 0.35986 0.43484 0.43526 0.0
H774 H 0.4347 0.37315 0.4411 0.0
H775 H 0.3649 0.37551 0.38277 0.0
H776 H 0.34201 0.39405 0.34826 0.0
H777 H 0.41146 0.38243 0.30614 0.0
H778 H 0.4349 0.36419 0.34054 0.0
H779 H 0.43814 0.23605 0.43338 0.0
H780 H 0.42179 0.28119 0.43155 0.0
H781 H 0.47272 0.29705 0.37235 0.0
H782 H 0.48922 0.25148 0.37394 0.0
H783 H 0.42313 0.32066 0.36796 0.0
H784 H 0.49165 0.31373 0.42368 0.0
H785 H 0.51502 0.29333 0.45682 0.0
H786 H 0.4523 0.31571 0.50361 0.0
H787 H 0.42757 0.3347 0.4703 0.0
C788 C 0.40826 0.44549 0.39453 0.0
C789 C 0.38655 0.45113 0.40914 0.0
C790 C 0.41907 0.42014 0.39391 0.0
C791 C 0.4086 0.40004 0.40809 0.0
C792 C 0.38766 0.40581 0.42343 0.0
C793 C 0.37654 0.4311 0.4238 0.0
C794 C 0.41869 0.37271 0.40605 0.0
C795 C 0.43194 0.36152 0.42526 0.0
C796 C 0.41588 0.35801 0.38501 0.0
C797 C 0.40174 0.36877 0.36429 0.0
C798 C 0.37537 0.37714 0.36621 0.0
C799 C 0.36228 0.38755 0.34666 0.0
C800 C 0.3753 0.38949 0.32504 0.0
C801 C 0.40142 0.38095 0.32291 0.0
C802 C 0.41461 0.37057 0.34242 0.0
C803 C 0.44574 0.24898 0.41978 0.0
C804 C 0.46525 0.24026 0.40398 0.0
C805 C 0.43633 0.27481 0.41878 0.0
C806 C 0.44636 0.29257 0.40208 0.0
C807 C 0.46481 0.28363 0.38543 0.0
C808 C 0.47426 0.25764 0.3864 0.0
C809 C 0.43867 0.32081 0.40321 0.0
C810 C 0.42601 0.33225 0.38382 0.0
C811 C 0.44238 0.33587 0.424 0.0
C812 C 0.45756 0.32539 0.44436 0.0
C813 C 0.48264 0.31407 0.44096 0.0
C814 C 0.49615 0.30272 0.45981 0.0
C815 C 0.48527 0.30337 0.4824 0.0
C816 C 0.46072 0.31522 0.48611 0.0
C817 C 0.44684 0.32613 0.46719 0.0
H818 H 0.49585 0.29467 0.497 0.0
H819 H 0.36513 0.39755 0.30992 0.0
H820 H 0.0471 0.39012 0.43781 0.0
H821 H 0.08999 0.41267 0.44006 0.0
H822 H 0.09858 0.40583 0.36477 0.0
H823 H 0.05589 0.38408 0.36233 0.0
H824 H 0.13811 0.3969 0.42967 0.0
H825 H 0.13217 0.45627 0.34202 0.0
H826 H 0.09855 0.47892 0.31804 0.0
H827 H 0.05 0.4894 0.3793 0.0
H828 H 0.08347 0.46716 0.40371 0.0
H829 H 0.26526 0.42742 0.38852 0.0
H830 H 0.21922 0.41343 0.39126 0.0
H831 H 0.19585 0.49356 0.40636 0.0
H832 H 0.2419 0.50784 0.40331 0.0
H833 H 0.16177 0.47146 0.37699 0.0
H834 H 0.19987 0.44822 0.45045 0.0
H835 H 0.23255 0.42842 0.47728 0.0
H836 H 0.21478 0.35136 0.44991 0.0
H837 H 0.18224 0.37074 0.42268 0.0
C838 C 0.05806 0.39366 0.42175 0.0
C839 C 0.04797 0.38541 0.39989 0.0
C840 C 0.08259 0.40648 0.42305 0.0
C841 C 0.09738 0.41133 0.40254 0.0
C842 C 0.08734 0.40292 0.38079 0.0
C843 C 0.0629 0.3903 0.37946 0.0
C844 C 0.12376 0.42428 0.40367 0.0
C845 C 0.14322 0.41329 0.41824 0.0
C846 C 0.13037 0.44609 0.38916 0.0
C847 C 0.11028 0.45986 0.37466 0.0
C848 C 0.11439 0.46353 0.35041 0.0
C849 C 0.09534 0.47627 0.33673 0.0
C850 C 0.07213 0.48553 0.34713 0.0
C851 C 0.06795 0.48215 0.37125 0.0
C852 C 0.08694 0.46944 0.38501 0.0
C853 C 0.25034 0.44214 0.39226 0.0
C854 C 0.25732 0.46874 0.39577 0.0
C855 C 0.22401 0.43407 0.39397 0.0
C856 C 0.2041 0.45235 0.39945 0.0
C857 C 0.21087 0.47907 0.40222 0.0
C858 C 0.23723 0.4872 0.40044 0.0
C859 C 0.17628 0.44344 0.40235 0.0
C860 C 0.15658 0.45521 0.38855 0.0
C861 C 0.1693 0.42276 0.41797 0.0
C862 C 0.18875 0.41097 0.4344 0.0
C863 C 0.20306 0.42707 0.45004 0.0
C864 C 0.22154 0.41592 0.46534 0.0
C865 C 0.22578 0.38866 0.46527 0.0
C866 C 0.21149 0.37248 0.44994 0.0
C867 C 0.193 0.38353 0.43458 0.0
H868 H 0.2401 0.38006 0.47712 0.0
H869 H 0.05739 0.49537 0.33651 0.0
H870 H 0.09383 0.05949 0.41326 0.0
H871 H 0.06685 0.0997 0.41472 0.0
H872 H 0.10677 0.12919 0.35295 0.0
H873 H 0.13295 0.08905 0.35098 0.0
H874 H 0.07811 0.14882 0.42124 0.0
H875 H 0.06891 0.16711 0.31983 0.0
H876 H 0.06397 0.1408 0.28357 0.0
H877 H 0.03106 0.07674 0.32352 0.0
H878 H 0.03543 0.10279 0.35997 0.0
H879 H 0.06207 0.28169 0.40211 0.0
H880 H 0.07685 0.23633 0.39625 0.0
H881 H 0.9985 0.21399 0.37412 0.0
H882 H 0.98372 0.25985 0.37931 0.0
H883 H 0.0361 0.18657 0.34986 0.0
H884 H 0.01538 0.20439 0.42929 0.0
H885 H 0.01621 0.23191 0.46501 0.0
H886 H 0.09979 0.2198 0.47134 0.0
H887 H 0.09963 0.19294 0.43511 0.0
C888 C 0.09669 0.07451 0.39993 0.0
C889 C 0.11542 0.07098 0.38193 0.0
C890 C 0.08128 0.09748 0.40078 0.0
C891 C 0.08437 0.11733 0.38368 0.0
C892 C 0.1034 0.11392 0.36596 0.0
C893 C 0.11854 0.09096 0.36497 0.0
C894 C 0.06873 0.1422 0.38471 0.0
C895 C 0.06874 0.15689 0.40567 0.0
C896 C 0.05573 0.15255 0.36462 0.0
C897 C 0.05268 0.13688 0.34268 0.0
C898 C 0.06047 0.14748 0.32087 0.0
C899 C 0.0578 0.13259 0.30028 0.0
C900 C 0.04727 0.10709 0.30125 0.0
C901 C 0.0393 0.09646 0.32281 0.0
C902 C 0.0419 0.11127 0.34344 0.0
C903 C 0.04811 0.26724 0.39554 0.0
C904 C 0.02172 0.2742 0.39136 0.0
C905 C 0.05655 0.24131 0.39226 0.0
C906 C 0.03862 0.22164 0.38531 0.0
C907 C 0.01262 0.22883 0.37962 0.0
C908 C 0.00422 0.25501 0.38256 0.0
C909 C 0.04678 0.19348 0.38597 0.0
C910 C 0.0452 0.17822 0.36544 0.0
C911 C 0.05754 0.1822 0.40666 0.0
C912 C 0.05752 0.19678 0.42936 0.0
C913 C 0.03397 0.20765 0.43824 0.0
C914 C 0.03434 0.22326 0.45851 0.0
C915 C 0.05808 0.2277 0.47038 0.0
C916 C 0.08144 0.21639 0.46208 0.0
C917 C 0.08123 0.201 0.44164 0.0
H918 H 0.05833 0.23979 0.48609 0.0
H919 H 0.04524 0.09559 0.28529 0.0
H920 H 0.91252 0.85653 0.13551 0.0
H921 H 0.87105 0.88061 0.1332 0.0
H922 H 0.90229 0.92783 0.07637 0.0
H923 H 0.94371 0.90289 0.078 0.0
H924 H 0.85758 0.92837 0.14051 0.0
H925 H 0.85293 0.94787 0.04066 0.0
H926 H 0.86814 0.92812 0.00334 0.0
H927 H 0.86965 0.85146 0.03564 0.0
H928 H 0.85405 0.87072 0.07303 0.0
H929 H 0.74245 0.00679 0.12184 0.0
H930 H 0.7883 0.99122 0.12154 0.0
H931 H 0.76421 0.92156 0.08327 0.0
H932 H 0.71895 0.93758 0.08261 0.0
H933 H 0.80753 0.93669 0.06595 0.0
H934 H 0.77673 0.92308 0.14544 0.0
H935 H 0.7581 0.93644 0.18376 0.0
H936 H 0.82255 0.99037 0.19412 0.0
H937 H 0.84139 0.97753 0.15571 0.0
C938 C 0.9106 0.872 0.12246 0.0
C939 C 0.93137 0.87772 0.10686 0.0
C940 C 0.88686 0.88587 0.12123 0.0
C941 C 0.88336 0.90599 0.10453 0.0
C942 C 0.90427 0.91209 0.08915 0.0
C943 C 0.92797 0.89788 0.09013 0.0
C944 C 0.85764 0.92015 0.10329 0.0
C945 C 0.84673 0.93031 0.12416 0.0
C946 C 0.84324 0.92258 0.08205 0.0
C947 C 0.85258 0.91079 0.05967 0.0
C948 C 0.8564 0.92679 0.03975 0.0
C949 C 0.8651 0.91569 0.01859 0.0
C950 C 0.86994 0.88856 0.01714 0.0
C951 C 0.86599 0.87248 0.03681 0.0
C952 C 0.85724 0.88348 0.05799 0.0
C953 C 0.74702 0.98812 0.11347 0.0
C954 C 0.7271 0.97329 0.10243 0.0
C955 C 0.77321 0.97921 0.1133 0.0
C956 C 0.77978 0.955 0.10263 0.0
C957 C 0.7598 0.94034 0.09153 0.0
C958 C 0.73384 0.94944 0.09131 0.0
C959 C 0.80718 0.94435 0.10328 0.0
C960 C 0.81852 0.93507 0.08226 0.0
C961 C 0.82155 0.94187 0.12453 0.0
C962 C 0.81029 0.94958 0.14761 0.0
C963 C 0.78682 0.93792 0.15583 0.0
C964 C 0.77624 0.94537 0.17757 0.0
C965 C 0.78909 0.9643 0.19133 0.0
C966 C 0.81259 0.97575 0.18342 0.0
C967 C 0.82323 0.96839 0.16167 0.0
H968 H 0.78088 0.97005 0.20816 0.0
H969 H 0.8767 0.88 1.00075 0.0
H970 H 0.56788 0.71868 0.14684 0.0
H971 H 0.58344 0.76432 0.14816 0.0
H972 H 0.50936 0.79084 0.1193 0.0
H973 H 0.49367 0.7451 0.11775 0.0
H974 H 0.55049 0.81232 0.09635 0.0
H975 H 0.52519 0.8028 0.17697 0.0
H976 H 0.52386 0.78151 0.21598 0.0
H977 H 0.60781 0.7906 0.22253 0.0
H978 H 0.60971 0.81163 0.18342 0.0
H979 H 0.58755 0.94752 0.10634 0.0
H980 H 0.56408 0.90536 0.10962 0.0
H981 H 0.63063 0.8719 0.14641 0.0
H982 H 0.65343 0.91429 0.14427 0.0
H983 H 0.58879 0.85559 0.16674 0.0
H984 H 0.61565 0.85549 0.08407 0.0
H985 H 0.61892 0.87469 0.04421 0.0
H986 H 0.53457 0.88268 0.04155 0.0
H987 H 0.53101 0.86402 0.08162 0.0
C988 C 0.55473 0.73422 0.14105 0.0
C989 C 0.52949 0.72819 0.13225 0.0
C990 C 0.56363 0.76036 0.14191 0.0
C991 C 0.54749 0.7811 0.13406 0.0
C992 C 0.52213 0.7752 0.12556 0.0
C993 C 0.51314 0.74903 0.12479 0.0
C994 C 0.55776 0.80868 0.13347 0.0
C995 C 0.55846 0.82195 0.1118 0.0
C996 C 0.56871 0.82109 0.15356 0.0
C997 C 0.5676 0.80862 0.17717 0.0
C998 C 0.5434 0.8001 0.18666 0.0
C999 C 0.54254 0.7881 0.2088 0.0
C1000 C 0.56574 0.78466 0.22171 0.0
C1001 C 0.58985 0.79327 0.21251 0.0
C1002 C 0.59082 0.80526 0.19037 0.0
C1003 C 0.59715 0.93112 0.11505 0.0
C1004 C 0.62234 0.9342 0.12499 0.0
C1005 C 0.58379 0.90694 0.11682 0.0
C1006 C 0.59569 0.88513 0.12793 0.0
C1007 C 0.6209 0.88831 0.13781 0.0
C1008 C 0.63398 0.91258 0.13649 0.0
C1009 C 0.58207 0.85901 0.1294 0.0
C1010 C 0.58069 0.84604 0.15125 0.0
C1011 C 0.5708 0.84667 0.10944 0.0
C1012 C 0.57302 0.85822 0.08562 0.0
C1013 C 0.59785 0.86142 0.07496 0.0
C1014 C 0.59976 0.87224 0.05238 0.0
C1015 C 0.57696 0.87984 0.04032 0.0
C1016 C 0.55221 0.87671 0.05086 0.0
C1017 C 0.55023 0.86597 0.07345 0.0
H1018 H 0.57848 0.88819 0.02284 0.0
H1019 H 0.56503 0.77536 0.23884 0.0
H1020 H 0.55298 0.59258 0.15592 0.0
H1021 H 0.59564 0.57057 0.15228 0.0
H1022 H 0.60117 0.59553 0.07988 0.0
H1023 H 0.55832 0.61757 0.08329 0.0
H1024 H 0.61788 0.54364 0.08653 0.0
H1025 H 0.63313 0.62944 0.12056 0.0
H1026 H 0.62612 0.66526 0.1493 0.0
H1027 H 0.65 0.61382 0.20544 0.0
H1028 H 0.65677 0.57756 0.17704 0.0
H1029 H 0.75548 0.53375 0.06804 0.0
H1030 H 0.70979 0.54803 0.07209 0.0
H1031 H 0.71057 0.52563 0.14533 0.0
H1032 H 0.75662 0.51143 0.14148 0.0
H1033 H 0.68981 0.57405 0.13929 0.0
H1034 H 0.67552 0.48858 0.10615 0.0
H1035 H 0.681 0.45163 0.07835 0.0
H1036 H 0.65578 0.50119 0.02137 0.0
H1037 H 0.64997 0.53847 0.04891 0.0
C1038 C 0.56314 0.59327 0.13914 0.0
C1039 C 0.55235 0.60705 0.11994 0.0
C1040 C 0.58754 0.58069 0.13712 0.0
C1041 C 0.60168 0.5817 0.1159 0.0
C1042 C 0.59056 0.59457 0.09642 0.0
C1043 C 0.56614 0.60723 0.09844 0.0
C1044 C 0.62861 0.57041 0.1144 0.0
C1045 C 0.63371 0.55046 0.09787 0.0
C1046 C 0.64903 0.57887 0.12963 0.0
C1047 C 0.64519 0.60071 0.14671 0.0
C1048 C 0.63669 0.62571 0.13906 0.0
C1049 C 0.63279 0.6461 0.15528 0.0
C1050 C 0.63754 0.6418 0.17919 0.0
C1051 C 0.64628 0.61711 0.18691 0.0
C1052 C 0.65017 0.59664 0.17076 0.0
C1053 C 0.74599 0.53181 0.08504 0.0
C1054 C 0.75974 0.52158 0.10449 0.0
C1055 C 0.71976 0.53979 0.08726 0.0
C1056 C 0.70667 0.53761 0.10893 0.0
C1057 C 0.7203 0.52739 0.12841 0.0
C1058 C 0.74659 0.5193 0.12619 0.0
C1059 C 0.67918 0.54726 0.11139 0.0
C1060 C 0.67398 0.56704 0.12805 0.0
C1061 C 0.65868 0.53856 0.09632 0.0
C1062 C 0.66249 0.51637 0.07958 0.0
C1063 C 0.67134 0.49167 0.08766 0.0
C1064 C 0.67444 0.47065 0.07196 0.0
C1065 C 0.66883 0.47407 0.04809 0.0
C1066 C 0.6601 0.49855 0.03987 0.0
C1067 C 0.65679 0.51962 0.05554 0.0
H1068 H 0.67108 0.4577 0.03602 0.0
H1069 H 0.63451 0.65761 0.19172 0.0
H1070 H 0.93512 0.76969 0.07164 0.0
H1071 H 0.91963 0.72437 0.07612 0.0
H1072 H 0.9781 0.71081 0.12987 0.0
H1073 H 0.99388 0.75646 0.12544 0.0
H1074 H 0.97614 0.67046 0.09672 0.0
H1075 H 0.91523 0.71741 0.14556 0.0
H1076 H 0.88315 0.75228 0.15541 0.0
H1077 H 0.83182 0.72509 0.10039 0.0
H1078 H 0.86379 0.69027 0.08997 0.0
H1079 H 0.92142 0.54755 0.13428 0.0
H1080 H 0.93905 0.59234 0.13155 0.0
H1081 H 0.87877 0.61235 0.08107 0.0
H1082 H 0.86073 0.56759 0.08396 0.0
H1083 H 0.88246 0.64952 0.11426 0.0
H1084 H 0.94344 0.60366 0.06444 0.0
H1085 H 0.97558 0.56915 0.05373 0.0
H1086 H 0.02667 0.59438 0.10965 0.0
H1087 H 0.99466 0.62884 0.12091 0.0
C1088 C 0.94466 0.75718 0.08454 0.0
C1089 C 0.96572 0.76675 0.09824 0.0
C1090 C 0.93569 0.73125 0.08712 0.0
C1091 C 0.94755 0.71423 0.10345 0.0
C1092 C 0.96862 0.72364 0.11719 0.0
C1093 C 0.97752 0.74975 0.11473 0.0
C1094 C 0.93811 0.68651 0.10568 0.0
C1095 C 0.95577 0.66583 0.10096 0.0
C1096 C 0.91136 0.6805 0.11059 0.0
C1097 C 0.89203 0.70137 0.11685 0.0
C1098 C 0.8972 0.71899 0.13543 0.0
C1099 C 0.87902 0.73873 0.14114 0.0
C1100 C 0.85549 0.74094 0.12849 0.0
C1101 C 0.85007 0.72337 0.11015 0.0
C1102 C 0.8682 0.70361 0.10435 0.0
C1103 C 0.91202 0.56137 0.12241 0.0
C1104 C 0.88963 0.55392 0.10933 0.0
C1105 C 0.92221 0.587 0.12081 0.0
C1106 C 0.91037 0.60574 0.10599 0.0
C1107 C 0.88825 0.59826 0.09265 0.0
C1108 C 0.87802 0.5726 0.09423 0.0
C1109 C 0.92043 0.63338 0.10511 0.0
C1110 C 0.90287 0.65408 0.1101 0.0
C1111 C 0.94725 0.63938 0.10037 0.0
C1112 C 0.96651 0.61865 0.09368 0.0
C1113 C 0.96142 0.6017 0.07459 0.0
C1114 C 0.97964 0.58218 0.06839 0.0
C1115 C 0.00312 0.57952 0.08104 0.0
C1116 C 0.00846 0.59643 0.09989 0.0
C1117 C 0.99029 0.61598 0.10618 0.0
H1118 H 0.0172 0.5644 0.07621 0.0
H1119 H 0.84143 0.75623 0.13294 0.0
H1120 H 0.78434 0.92631 0.6618 0.0
H1121 H 0.74048 0.90612 0.66045 0.0
H1122 H 0.71321 0.96913 0.61555 0.0
H1123 H 0.75663 0.98988 0.6175 0.0
H1124 H 0.67588 0.95702 0.64489 0.0
H1125 H 0.73213 0.90704 0.59369 0.0
H1126 H 0.77138 0.88094 0.58287 0.0
H1127 H 0.75081 0.82241 0.63441 0.0
H1128 H 0.71161 0.84835 0.64577 0.0
H1129 H 0.56375 0.8893 0.59775 0.0
H1130 H 0.60691 0.91096 0.60116 0.0
H1131 H 0.63007 0.85439 0.65394 0.0
H1132 H 0.58709 0.83274 0.65073 0.0
H1133 H 0.66909 0.86315 0.62047 0.0
H1134 H 0.61179 0.91418 0.67068 0.0
H1135 H 0.57227 0.94065 0.67988 0.0
H1136 H 0.59466 0.99765 0.62757 0.0
H1137 H 0.63414 0.97131 0.61783 0.0
C1138 C 0.76892 0.93602 0.65186 0.0
C1139 C 0.77407 0.95962 0.63965 0.0
C1140 C 0.74387 0.92436 0.65096 0.0
C1141 C 0.72362 0.93575 0.63745 0.0
C1142 C 0.72847 0.95986 0.62601 0.0
C1143 C 0.75338 0.97171 0.62715 0.0
C1144 C 0.69764 0.92229 0.63467 0.0
C1145 C 0.67444 0.93658 0.63927 0.0
C1146 C 0.69562 0.8955 0.62762 0.0
C1147 C 0.71908 0.87977 0.62074 0.0
C1148 C 0.73608 0.88869 0.60283 0.0
C1149 C 0.7583 0.87392 0.59658 0.0
C1150 C 0.76362 0.85007 0.60799 0.0
C1151 C 0.74668 0.84091 0.62562 0.0
C1152 C 0.72445 0.85563 0.63195 0.0
C1153 C 0.57808 0.8814 0.61 0.0
C1154 C 0.57194 0.85935 0.62403 0.0
C1155 C 0.60268 0.89386 0.612 0.0
C1156 C 0.62161 0.88441 0.62796 0.0
C1157 C 0.61575 0.86204 0.64155 0.0
C1158 C 0.59112 0.84974 0.63973 0.0
C1159 C 0.64749 0.89789 0.63071 0.0
C1160 C 0.67062 0.88358 0.62608 0.0
C1161 C 0.64943 0.92473 0.63745 0.0
C1162 C 0.62577 0.94063 0.64336 0.0
C1163 C 0.60817 0.93225 0.661 0.0
C1164 C 0.5858 0.94724 0.66634 0.0
C1165 C 0.58092 0.97078 0.65427 0.0
C1166 C 0.59844 0.9794 0.63688 0.0
C1167 C 0.62083 0.96445 0.63146 0.0
H1168 H 0.56359 0.98236 0.65843 0.0
H1169 H 0.78084 0.83865 0.60314 0.0
H1170 H 0.65582 0.58778 0.60773 0.0
H1171 H 0.62699 0.62624 0.60792 0.0
H1172 H 0.56421 0.57944 0.57789 0.0
H1173 H 0.59372 0.54098 0.57659 0.0
H1174 H 0.56108 0.62543 0.56008 0.0
H1175 H 0.56646 0.5959 0.63856 0.0
H1176 H 0.58724 0.58064 0.67534 0.0
H1177 H 0.62684 0.65523 0.68261 0.0
H1178 H 0.6066 0.67082 0.64569 0.0
H1179 H 0.49979 0.7472 0.63099 0.0
H1180 H 0.51335 0.70062 0.62973 0.0
H1181 H 0.55477 0.71508 0.56459 0.0
H1182 H 0.54065 0.76075 0.5653 0.0
H1183 H 0.55847 0.6794 0.63296 0.0
H1184 H 0.56141 0.66728 0.53103 0.0
H1185 H 0.53342 0.67722 0.4966 0.0
H1186 H 0.46455 0.67653 0.54062 0.0
H1187 H 0.49216 0.66769 0.5754 0.0
C1188 C 0.63594 0.58571 0.60097 0.0
C1189 C 0.62697 0.56131 0.5923 0.0
C1190 C 0.61934 0.6077 0.60128 0.0
C1191 C 0.59304 0.60569 0.59364 0.0
C1192 C 0.5843 0.58154 0.5841 0.0
C1193 C 0.60118 0.55956 0.58332 0.0
C1194 C 0.57494 0.62886 0.5958 0.0
C1195 C 0.56044 0.63711 0.57607 0.0
C1196 C 0.57295 0.64366 0.61695 0.0
C1197 C 0.58512 0.63447 0.63926 0.0
C1198 C 0.57972 0.609 0.64792 0.0
C1199 C 0.59139 0.6003 0.66881 0.0
C1200 C 0.60838 0.61694 0.68128 0.0
C1201 C 0.61368 0.64236 0.67292 0.0
C1202 C 0.60209 0.65115 0.65203 0.0
C1203 C 0.51151 0.74029 0.61629 0.0
C1204 C 0.51921 0.75779 0.59833 0.0
C1205 C 0.51925 0.71365 0.61555 0.0
C1206 C 0.53481 0.70404 0.59685 0.0
C1207 C 0.54217 0.72156 0.57887 0.0
C1208 C 0.53432 0.74794 0.57949 0.0
C1209 C 0.5456 0.67658 0.59693 0.0
C1210 C 0.55879 0.66752 0.61708 0.0
C1211 C 0.54538 0.66043 0.57654 0.0
C1212 C 0.52888 0.66697 0.55581 0.0
C1213 C 0.5403 0.66947 0.53336 0.0
C1214 C 0.52451 0.67512 0.51382 0.0
C1215 C 0.49722 0.67785 0.51646 0.0
C1216 C 0.4857 0.675 0.53866 0.0
C1217 C 0.50144 0.66987 0.55832 0.0
H1218 H 0.48497 0.682 0.50129 0.0
H1219 H 0.6174 0.61017 0.69744 0.0
H1220 H 0.94444 0.6027 0.62955 0.0
H1221 H 0.90147 0.58137 0.62598 0.0
H1222 H 0.89748 0.60445 0.55303 0.0
H1223 H 0.9408 0.62603 0.55648 0.0
H1224 H 0.85179 0.6161 0.57762 0.0
H1225 H 0.90796 0.54099 0.56692 0.0
H1226 H 0.94423 0.5105 0.57669 0.0
H1227 H 0.90646 0.49127 0.64217 0.0
H1228 H 0.87011 0.52194 0.63294 0.0
H1229 H 0.73933 0.5413 0.54813 0.0
H1230 H 0.78379 0.55926 0.5505 0.0
H1231 H 0.79011 0.53221 0.62224 0.0
H1232 H 0.74537 0.51359 0.61986 0.0
H1233 H 0.83491 0.5223 0.59809 0.0
H1234 H 0.77952 0.59742 0.60986 0.0
H1235 H 0.74325 0.62832 0.60116 0.0
H1236 H 0.77956 0.64824 0.53519 0.0
H1237 H 0.81588 0.61714 0.54333 0.0
C1238 C 0.93459 0.6031 0.61264 0.0
C1239 C 0.94608 0.6161 0.59328 0.0
C1240 C 0.91002 0.59076 0.61062 0.0
C1241 C 0.89629 0.59113 0.58921 0.0
C1242 C 0.90777 0.60387 0.56972 0.0
C1243 C 0.93256 0.61608 0.57168 0.0
C1244 C 0.8695 0.57916 0.58763 0.0
C1245 C 0.84816 0.59547 0.58168 0.0
C1246 C 0.86462 0.55247 0.59375 0.0
C1247 C 0.88643 0.53396 0.59933 0.0
C1248 C 0.90749 0.53043 0.5835 0.0
C1249 C 0.92804 0.51308 0.58892 0.0
C1250 C 0.92768 0.49901 0.61006 0.0
C1251 C 0.90673 0.50221 0.62581 0.0
C1252 C 0.88613 0.51955 0.62048 0.0
C1253 C 0.75004 0.53918 0.5645 0.0
C1254 C 0.73863 0.52616 0.5839 0.0
C1255 C 0.77552 0.54958 0.56583 0.0
C1256 C 0.79022 0.5475 0.58666 0.0
C1257 C 0.77911 0.53416 0.606 0.0
C1258 C 0.7535 0.52362 0.60466 0.0
C1259 C 0.81718 0.55922 0.58799 0.0
C1260 C 0.83854 0.5429 0.59395 0.0
C1261 C 0.82208 0.58598 0.58205 0.0
C1262 C 0.8003 0.60475 0.57711 0.0
C1263 C 0.77967 0.60823 0.59341 0.0
C1264 C 0.75912 0.62581 0.58859 0.0
C1265 C 0.75907 0.64018 0.56761 0.0
C1266 C 0.77961 0.63706 0.55142 0.0
C1267 C 0.80019 0.61947 0.55614 0.0
H1268 H 0.74314 0.65379 0.56392 0.0
H1269 H 0.94362 0.48558 0.61423 0.0
H1270 H 0.91707 0.94269 0.65049 0.0
H1271 H 0.93634 0.8989 0.64505 0.0
H1272 H 0.89045 0.88829 0.58185 0.0
H1273 H 0.87094 0.93208 0.58722 0.0
H1274 H 0.88648 0.84607 0.61102 0.0
H1275 H 0.95628 0.89857 0.57841 0.0
H1276 H 0.98955 0.93415 0.57765 0.0
H1277 H 0.02795 0.90038 0.63786 0.0
H1278 H 0.99468 0.86477 0.63916 0.0
H1279 H 0.94836 0.73293 0.56448 0.0
H1280 H 0.93176 0.77731 0.57156 0.0
H1281 H 0.97855 0.78259 0.63475 0.0
H1282 H 0.99566 0.7379 0.62761 0.0
H1283 H 0.9825 0.82731 0.60729 0.0
H1284 H 0.91314 0.77378 0.6389 0.0
H1285 H 0.88002 0.73806 0.63898 0.0
H1286 H 0.84066 0.77385 0.58022 0.0
H1287 H 0.87379 0.80959 0.57955 0.0
C1288 C 0.91125 0.93118 0.63529 0.0
C1289 C 0.89243 0.9409 0.6193 0.0
C1290 C 0.92238 0.90616 0.63216 0.0
C1291 C 0.91494 0.89035 0.61299 0.0
C1292 C 0.89648 0.90016 0.59678 0.0
C1293 C 0.88543 0.92525 0.59982 0.0
C1294 C 0.92545 0.8631 0.61047 0.0
C1295 C 0.90746 0.842 0.60989 0.0
C1296 C 0.95286 0.85772 0.60971 0.0
C1297 C 0.97282 0.87917 0.60904 0.0
C1298 C 0.97167 0.89887 0.59162 0.0
C1299 C 0.99056 0.91901 0.59106 0.0
C1300 C 0.01081 0.91957 0.60774 0.0
C1301 C 0.01223 0.89995 0.62498 0.0
C1302 C 0.99338 0.87977 0.62562 0.0
C1303 C 0.95505 0.74336 0.58001 0.0
C1304 C 0.97325 0.73178 0.59557 0.0
C1305 C 0.94545 0.76877 0.58405 0.0
C1306 C 0.95368 0.78318 0.60381 0.0
C1307 C 0.97188 0.77175 0.61943 0.0
C1308 C 0.98151 0.74619 0.61541 0.0
C1309 C 0.94351 0.81033 0.60771 0.0
C1310 C 0.96153 0.83139 0.60854 0.0
C1311 C 0.9161 0.81571 0.60868 0.0
C1312 C 0.8961 0.79425 0.60905 0.0
C1313 C 0.89756 0.77392 0.62587 0.0
C1314 C 0.87875 0.75369 0.62604 0.0
C1315 C 0.85828 0.75365 0.60958 0.0
C1316 C 0.85654 0.77388 0.59294 0.0
C1317 C 0.87531 0.79415 0.59267 0.0
H1318 H 0.84374 0.73797 0.60975 0.0
H1319 H 0.02542 0.93518 0.60728 0.0
H1320 H 0.07786 0.13539 0.93045 0.0
H1321 H 0.12363 0.11991 0.9303 0.0
H1322 H 0.10937 0.0782 0.86531 0.0
H1323 H 0.06393 0.09409 0.86503 0.0
H1324 H 0.14687 0.07391 0.93173 0.0
H1325 H 0.16317 0.08037 0.83056 0.0
H1326 H 0.1473 0.10676 0.79695 0.0
H1327 H 0.12852 0.17088 0.8435 0.0
H1328 H 0.14463 0.14503 0.87733 0.0
H1329 H 0.26212 0.00305 0.89863 0.0
H1330 H 0.21703 0.02019 0.90082 0.0
H1331 H 0.24565 0.09843 0.88505 0.0
H1332 H 0.29071 0.08153 0.88253 0.0
H1333 H 0.20228 0.08823 0.86084 0.0
H1334 H 0.23073 0.08003 0.93962 0.0
H1335 H 0.24719 0.06034 0.97638 0.0
H1336 H 0.17913 0.0099 0.97977 0.0
H1337 H 0.16283 0.02834 0.9424 0.0
C1338 C 0.08444 0.12278 0.91621 0.0
C1339 C 0.06732 0.11615 0.89765 0.0
C1340 C 0.1106 0.11394 0.91615 0.0
C1341 C 0.12009 0.09828 0.89757 0.0
C1342 C 0.1027 0.09076 0.87955 0.0
C1343 C 0.07666 0.09976 0.87949 0.0
C1344 C 0.14824 0.09009 0.89678 0.0
C1345 C 0.15901 0.07688 0.91621 0.0
C1346 C 0.16429 0.0948 0.8768 0.0
C1347 C 0.15487 0.11063 0.8565 0.0
C1348 C 0.15576 0.10014 0.83361 0.0
C1349 C 0.1467 0.115 0.81452 0.0
C1350 C 0.13683 0.14045 0.8181 0.0
C1351 C 0.13608 0.15113 0.84076 0.0
C1352 C 0.14515 0.13637 0.8599 0.0
C1353 C 0.25882 0.02387 0.8954 0.0
C1354 C 0.28007 0.04093 0.8904 0.0
C1355 C 0.23305 0.03365 0.89688 0.0
C1356 C 0.22802 0.06063 0.89348 0.0
C1357 C 0.24908 0.07755 0.88784 0.0
C1358 C 0.27484 0.06783 0.88639 0.0
C1359 C 0.20077 0.07121 0.89556 0.0
C1360 C 0.19017 0.08498 0.87633 0.0
C1361 C 0.18516 0.06761 0.91605 0.0
C1362 C 0.19572 0.05536 0.93789 0.0
C1363 C 0.21952 0.06433 0.94787 0.0
C1364 C 0.22881 0.05342 0.96889 0.0
C1365 C 0.21424 0.03386 0.98039 0.0
C1366 C 0.19038 0.0251 0.97086 0.0
C1367 C 0.18122 0.03562 0.94965 0.0
H1368 H 0.22143 0.02549 0.99669 0.0
H1369 H 0.12981 0.15191 0.8033 0.0
H1370 H 0.3708 0.07367 0.92967 0.0
H1371 H 0.38649 0.11936 0.92878 0.0
H1372 H 0.45394 0.09549 0.88764 0.0
H1373 H 0.43867 0.0497 0.88877 0.0
H1374 H 0.46709 0.1336 0.91992 0.0
H1375 H 0.39954 0.12003 0.86097 0.0
H1376 H 0.35535 0.10601 0.84768 0.0
H1377 H 0.31949 0.16326 0.89334 0.0
H1378 H 0.36348 0.17735 0.90718 0.0
H1379 H 0.49966 0.25947 0.87181 0.0
H1380 H 0.486 0.21301 0.87426 0.0
H1381 H 0.41845 0.23547 0.91592 0.0
H1382 H 0.43191 0.28171 0.91357 0.0
H1383 H 0.4057 0.19799 0.88346 0.0
H1384 H 0.47176 0.21344 0.94136 0.0
H1385 H 0.51509 0.22795 0.95602 0.0
H1386 H 0.55312 0.1673 0.91557 0.0
H1387 H 0.51002 0.15318 0.89972 0.0
C1388 C 0.3892 0.07803 0.92076 0.0
C1389 C 0.40333 0.05801 0.90909 0.0
C1390 C 0.3981 0.1042 0.92018 0.0
C1391 C 0.42115 0.11094 0.90776 0.0
C1392 C 0.43605 0.09079 0.89724 0.0
C1393 C 0.42723 0.0646 0.89786 0.0
C1394 C 0.42875 0.13909 0.90436 0.0
C1395 C 0.45383 0.14762 0.91168 0.0
C1396 C 0.41121 0.15753 0.89406 0.0
C1397 C 0.38479 0.14959 0.88525 0.0
C1398 C 0.38223 0.12955 0.86825 0.0
C1399 C 0.35722 0.12159 0.86062 0.0
C1400 C 0.33463 0.13369 0.86971 0.0
C1401 C 0.33701 0.15388 0.88635 0.0
C1402 C 0.36197 0.16188 0.89407 0.0
C1403 C 0.48168 0.25453 0.88117 0.0
C1404 C 0.46692 0.27425 0.89258 0.0
C1405 C 0.47399 0.22797 0.88268 0.0
C1406 C 0.45135 0.22074 0.8955 0.0
C1407 C 0.43599 0.24056 0.90597 0.0
C1408 C 0.44377 0.26699 0.90466 0.0
C1409 C 0.44412 0.19253 0.89889 0.0
C1410 C 0.41906 0.18398 0.8916 0.0
C1411 C 0.46162 0.17419 0.90941 0.0
C1412 C 0.48762 0.18245 0.91908 0.0
C1413 C 0.48936 0.20337 0.93534 0.0
C1414 C 0.5139 0.21151 0.94391 0.0
C1415 C 0.53686 0.19848 0.93684 0.0
C1416 C 0.53531 0.17738 0.92104 0.0
C1417 C 0.51083 0.16937 0.91216 0.0
H1418 H 0.55583 0.20473 0.94361 0.0
H1419 H 0.31528 0.12746 0.86382 0.0
H1420 H 0.43762 0.40462 0.84372 0.0
H1421 H 0.39447 0.42566 0.84775 0.0
H1422 H 0.39327 0.40609 0.9216 0.0
H1423 H 0.43651 0.38492 0.91774 0.0
H1424 H 0.34748 0.39195 0.89898 0.0
H1425 H 0.40237 0.46885 0.90514 0.0
H1426 H 0.4374 0.49984 0.89299 0.0
H1427 H 0.39611 0.51544 0.82853 0.0
H1428 H 0.36099 0.48425 0.84016 0.0
H1429 H 0.23408 0.46377 0.93009 0.0
H1430 H 0.27897 0.44729 0.92698 0.0
H1431 H 0.28261 0.47304 0.85469 0.0
H1432 H 0.23734 0.4899 0.85772 0.0
H1433 H 0.32758 0.48456 0.8767 0.0
H1434 H 0.27334 0.40723 0.86962 0.0
H1435 H 0.23801 0.37638 0.88138 0.0
H1436 H 0.278 0.36111 0.94655 0.0
H1437 H 0.31341 0.39217 0.93532 0.0
C1438 C 0.42831 0.40498 0.86089 0.0
C1439 C 0.44049 0.39305 0.88041 0.0
C1440 C 0.40368 0.41713 0.86317 0.0
C1441 C 0.39071 0.41756 0.885 0.0
C1442 C 0.40296 0.40599 0.9046 0.0
C1443 C 0.42771 0.394 0.90238 0.0
C1444 C 0.3638 0.42889 0.88705 0.0
C1445 C 0.34319 0.41232 0.89445 0.0
C1446 C 0.35809 0.45523 0.88046 0.0
C1447 C 0.37918 0.47401 0.87342 0.0
C1448 C 0.40087 0.47871 0.88828 0.0
C1449 C 0.42072 0.49635 0.88151 0.0
C1450 C 0.41902 0.50954 0.85997 0.0
C1451 C 0.39742 0.50518 0.84519 0.0
C1452 C 0.37752 0.48754 0.85188 0.0
C1453 C 0.24432 0.46593 0.91346 0.0
C1454 C 0.232 0.47791 0.89405 0.0
C1455 C 0.27008 0.45649 0.91174 0.0
C1456 C 0.28413 0.45863 0.89054 0.0
C1457 C 0.27213 0.4711 0.87122 0.0
C1458 C 0.24624 0.48063 0.87294 0.0
C1459 C 0.31123 0.44761 0.88861 0.0
C1460 C 0.33186 0.4642 0.88123 0.0
C1461 C 0.31698 0.4212 0.89506 0.0
C1462 C 0.29592 0.40218 0.9017 0.0
C1463 C 0.27453 0.3974 0.88651 0.0
C1464 C 0.25449 0.37987 0.89308 0.0
C1465 C 0.25573 0.36684 0.91472 0.0
C1466 C 0.27706 0.37124 0.9298 0.0
C1467 C 0.29714 0.38878 0.92333 0.0
H1468 H 0.24018 0.3533 0.91979 0.0
H1469 H 0.4344 0.5232 0.85476 0.0
H1470 H 0.10691 0.44307 0.91429 0.0
H1471 H 0.08514 0.3998 0.91543 0.0
H1472 H 0.11256 0.38359 0.84499 0.0
H1473 H 0.13379 0.42674 0.84354 0.0
H1474 H 0.06306 0.36871 0.84912 0.0
H1475 H 0.14245 0.35617 0.89366 0.0
H1476 H 0.17487 0.3655 0.92493 0.0
H1477 H 0.11569 0.35115 0.97758 0.0
H1478 H 0.08282 0.34205 0.94658 0.0
H1479 H 0.0502 0.22782 0.84769 0.0
H1480 H 0.06701 0.27323 0.84707 0.0
H1481 H 0.02962 0.28842 0.91391 0.0
H1482 H 0.01259 0.24328 0.91464 0.0
H1483 H 0.08234 0.30426 0.91254 0.0
H1484 H 0.00358 0.31439 0.86638 0.0
H1485 H 0.97276 0.3039 0.83414 0.0
H1486 H 0.03301 0.32152 0.7833 0.0
H1487 H 0.06433 0.33175 0.81526 0.0
C1488 C 0.10824 0.43029 0.89905 0.0
C1489 C 0.12214 0.43836 0.87886 0.0
C1490 C 0.09588 0.40552 0.89975 0.0
C1491 C 0.09741 0.3883 0.88036 0.0
C1492 C 0.11104 0.3965 0.86015 0.0
C1493 C 0.12327 0.4212 0.8594 0.0
C1494 C 0.08499 0.36166 0.88099 0.0
C1495 C 0.0675 0.35454 0.86288 0.0
C1496 C 0.0904 0.34327 0.89912 0.0
C1497 C 0.1101 0.34873 0.9178 0.0
C1498 C 0.13629 0.35522 0.9119 0.0
C1499 C 0.15476 0.36043 0.92957 0.0
C1500 C 0.14732 0.359 0.95323 0.0
C1501 C 0.12141 0.35229 0.95925 0.0
C1502 C 0.10286 0.34709 0.94163 0.0
C1503 C 0.04535 0.24088 0.86215 0.0
C1504 C 0.03006 0.23188 0.8812 0.0
C1505 C 0.05494 0.26683 0.86176 0.0
C1506 C 0.04952 0.28419 0.88044 0.0
C1507 C 0.03407 0.27534 0.89935 0.0
C1508 C 0.02427 0.24953 0.89965 0.0
C1509 C 0.06059 0.31135 0.88063 0.0
C1510 C 0.07783 0.31852 0.89888 0.0
C1511 C 0.05519 0.32967 0.86249 0.0
C1512 C 0.03638 0.32359 0.84323 0.0
C1513 C 0.01033 0.31581 0.84834 0.0
C1514 C 0.99276 0.30995 0.83011 0.0
C1515 C 0.00094 0.31198 0.80669 0.0
C1516 C 0.02671 0.31992 0.80145 0.0
C1517 C 0.04437 0.32578 0.81961 0.0
H1518 H 0.9873 0.30744 0.7926 0.0
H1519 H 0.16165 0.36303 0.96689 0.0
H1520 H 0.65713 0.18623 0.36647 0.0
H1521 H 0.70397 0.19079 0.35757 0.0
H1522 H 0.713 0.244 0.41642 0.0
H1523 H 0.66625 0.23862 0.42603 0.0
H1524 H 0.73382 0.22839 0.34479 0.0
H1525 H 0.77328 0.24017 0.44008 0.0
H1526 H 0.76491 0.22428 0.48042 0.0
H1527 H 0.72528 0.15592 0.45285 0.0
H1528 H 0.73348 0.17135 0.41239 0.0
H1529 H 0.85643 0.29232 0.35607 0.0
H1530 H 0.81181 0.27482 0.35424 0.0
H1531 H 0.83947 0.19975 0.38031 0.0
H1532 H 0.88438 0.21741 0.38273 0.0
H1533 H 0.80165 0.218 0.40694 0.0
H1534 H 0.81187 0.20532 0.32486 0.0
H1535 H 0.82401 0.21651 0.28403 0.0
H1536 H 0.76725 0.2794 0.28391 0.0
H1537 H 0.755 0.26885 0.32485 0.0
C1538 C 0.66902 0.19909 0.37743 0.0
C1539 C 0.65803 0.21205 0.39701 0.0
C1540 C 0.69585 0.2016 0.37235 0.0
C1541 C 0.71217 0.2173 0.38659 0.0
C1542 C 0.70098 0.23116 0.40557 0.0
C1543 C 0.6742 0.22832 0.41089 0.0
C1544 C 0.74079 0.21943 0.38137 0.0
C1545 C 0.74866 0.22598 0.35837 0.0
C1546 C 0.76026 0.21574 0.39892 0.0
C1547 C 0.7538 0.20704 0.4232 0.0
C1548 C 0.76264 0.22182 0.44265 0.0
C1549 C 0.75791 0.21291 0.46554 0.0
C1550 C 0.74443 0.1892 0.46924 0.0
C1551 C 0.7355 0.17442 0.45002 0.0
C1552 C 0.74012 0.18327 0.42708 0.0
C1553 C 0.8532 0.27187 0.36091 0.0
C1554 C 0.87386 0.25636 0.36993 0.0
C1555 C 0.82765 0.26182 0.35965 0.0
C1556 C 0.82229 0.23597 0.36713 0.0
C1557 C 0.84322 0.21978 0.37449 0.0
C1558 C 0.86886 0.22987 0.37581 0.0
C1559 C 0.79458 0.22752 0.37056 0.0
C1560 C 0.78683 0.21998 0.39327 0.0
C1561 C 0.77535 0.22991 0.35268 0.0
C1562 C 0.78261 0.23636 0.32801 0.0
C1563 C 0.8021 0.22166 0.3162 0.0
C1564 C 0.80898 0.22787 0.29301 0.0
C1565 C 0.79643 0.24867 0.2814 0.0
C1566 C 0.77695 0.26329 0.29293 0.0
C1567 C 0.76999 0.25717 0.31612 0.0
H1568 H 0.80179 0.25344 0.26345 0.0
H1569 H 0.74111 0.18225 0.487 0.0
H1570 H 0.32616 0.66656 0.37837 0.0
H1571 H 0.31369 0.71302 0.37673 0.0
H1572 H 0.23294 0.69212 0.39237 0.0
H1573 H 0.24513 0.64546 0.39347 0.0
H1574 H 0.2341 0.73109 0.36185 0.0
H1575 H 0.2731 0.71382 0.43629 0.0
H1576 H 0.30655 0.69713 0.4641 0.0
H1577 H 0.36384 0.7507 0.43523 0.0
H1578 H 0.33087 0.76711 0.40684 0.0
H1579 H 0.22713 0.86126 0.43232 0.0
H1580 H 0.24259 0.81592 0.4291 0.0
H1581 H 0.24847 0.82442 0.35369 0.0
H1582 H 0.23212 0.86971 0.35672 0.0
H1583 H 0.28389 0.79128 0.41466 0.0
H1584 H 0.2291 0.7667 0.32739 0.0
H1585 H 0.18984 0.78135 0.30531 0.0
H1586 H 0.15454 0.80948 0.36928 0.0
H1587 H 0.19345 0.79496 0.3917 0.0
C1588 C 0.30566 0.6718 0.38111 0.0
C1589 C 0.28667 0.6524 0.38635 0.0
C1590 C 0.29861 0.69836 0.38028 0.0
C1591 C 0.27254 0.70601 0.38495 0.0
C1592 C 0.25321 0.6866 0.3888 0.0
C1593 C 0.26021 0.65995 0.38942 0.0
C1594 C 0.26575 0.7343 0.38696 0.0
C1595 C 0.24504 0.74431 0.37329 0.0
C1596 C 0.27956 0.75132 0.40244 0.0
C1597 C 0.29963 0.74135 0.41923 0.0
C1598 C 0.29296 0.72169 0.43567 0.0
C1599 C 0.3118 0.71234 0.45155 0.0
C1600 C 0.33734 0.72278 0.45138 0.0
C1601 C 0.34408 0.74255 0.43529 0.0
C1602 C 0.32532 0.75186 0.41927 0.0
C1603 C 0.23201 0.85364 0.41507 0.0
C1604 C 0.22805 0.86891 0.39474 0.0
C1605 C 0.24088 0.8277 0.41326 0.0
C1606 C 0.24611 0.81664 0.39112 0.0
C1607 C 0.24394 0.83242 0.37091 0.0
C1608 C 0.23476 0.85832 0.37267 0.0
C1609 C 0.25252 0.78825 0.38922 0.0
C1610 C 0.27313 0.77818 0.40298 0.0
C1611 C 0.23787 0.77099 0.37456 0.0
C1612 C 0.21433 0.7799 0.3612 0.0
C1613 C 0.21293 0.77597 0.33675 0.0
C1614 C 0.19075 0.7843 0.32416 0.0
C1615 C 0.16975 0.79644 0.33587 0.0
C1616 C 0.17086 0.80021 0.36021 0.0
C1617 C 0.193 0.79195 0.37286 0.0
H1618 H 0.15259 0.80286 0.3261 0.0
H1619 H 0.35186 0.71562 0.4638 0.0
H1620 H 0.34336 0.71522 0.0632 0.0
H1621 H 0.29691 0.72625 0.06604 0.0
H1622 H 0.30572 0.74122 0.14043 0.0
H1623 H 0.3523 0.72872 0.13788 0.0
H1624 H 0.26623 0.71226 0.13549 0.0
H1625 H 0.29332 0.79032 0.09603 0.0
H1626 H 0.31366 0.8195 0.06642 0.0
H1627 H 0.26441 0.78595 0.0127 0.0
H1628 H 0.24407 0.75619 0.04187 0.0
H1629 H 0.14192 0.78346 0.1377 0.0
H1630 H 0.18629 0.76515 0.14179 0.0
H1631 H 0.17675 0.72291 0.07648 0.0
H1632 H 0.13243 0.74138 0.07202 0.0
H1633 H 0.2156 0.76505 0.07772 0.0
H1634 H 0.18891 0.6876 0.12023 0.0
H1635 H 0.1666 0.66326 0.15214 0.0
H1636 H 0.21428 0.70336 0.2034 0.0
H1637 H 0.23663 0.72823 0.17181 0.0
C1638 C 0.33558 0.72146 0.08008 0.0
C1639 C 0.35135 0.72112 0.10035 0.0
C1640 C 0.30895 0.72778 0.08167 0.0
C1641 C 0.29774 0.73466 0.10342 0.0
C1642 C 0.31388 0.7358 0.12348 0.0
C1643 C 0.34047 0.72885 0.122 0.0
C1644 C 0.26885 0.73833 0.10545 0.0
C1645 C 0.25528 0.72435 0.12314 0.0
C1646 C 0.25441 0.75355 0.08901 0.0
C1647 C 0.26733 0.77078 0.07117 0.0
C1648 C 0.2871 0.78883 0.07784 0.0
C1649 C 0.29857 0.80556 0.06114 0.0
C1650 C 0.29038 0.80453 0.03769 0.0
C1651 C 0.27075 0.78671 0.03087 0.0
C1652 C 0.25924 0.76991 0.04749 0.0
C1653 C 0.1489 0.76955 0.12462 0.0
C1654 C 0.13417 0.76438 0.10418 0.0
C1655 C 0.17419 0.75905 0.12704 0.0
C1656 C 0.18473 0.74313 0.10919 0.0
C1657 C 0.16888 0.73551 0.09019 0.0
C1658 C 0.14369 0.7461 0.08767 0.0
C1659 C 0.21343 0.73938 0.10775 0.0
C1660 C 0.22684 0.75332 0.09013 0.0
C1661 C 0.22768 0.72492 0.12464 0.0
C1662 C 0.21426 0.70997 0.14365 0.0
C1663 C 0.19446 0.69143 0.13832 0.0
C1664 C 0.18185 0.67748 0.15635 0.0
C1665 C 0.18897 0.68181 0.17979 0.0
C1666 C 0.20876 0.70004 0.18524 0.0
C1667 C 0.22143 0.71405 0.16727 0.0
H1668 H 0.17918 0.67099 0.19372 0.0
H1669 H 0.2992 0.81759 0.0248 0.0
H1670 H 0.82816 0.33371 0.05935 0.0
H1671 H 0.81941 0.28626 0.05873 0.0
H1672 H 0.77852 0.29276 0.12522 0.0
H1673 H 0.7885 0.34003 0.12643 0.0
H1674 H 0.80945 0.25188 0.12595 0.0
H1675 H 0.73925 0.27991 0.06793 0.0
H1676 H 0.72451 0.30199 0.03143 0.0
H1677 H 0.78683 0.26431 0.99281 0.0
H1678 H 0.80121 0.24122 0.02892 0.0
H1679 H 0.71426 0.15186 0.13109 0.0
H1680 H 0.74332 0.19022 0.13 0.0
H1681 H 0.77943 0.16106 0.06632 0.0
H1682 H 0.74987 0.12285 0.06688 0.0
H1683 H 0.76128 0.20915 0.06022 0.0
H1684 H 0.81603 0.16795 0.1166 0.0
H1685 H 0.82745 0.14332 0.15259 0.0
H1686 H 0.7954 0.20565 0.19511 0.0
H1687 H 0.78342 0.2305 0.1594 0.0
C1688 C 0.81714 0.32497 0.07373 0.0
C1689 C 0.8088 0.34039 0.09289 0.0
C1690 C 0.81202 0.29791 0.07329 0.0
C1691 C 0.79791 0.28602 0.09172 0.0
C1692 C 0.78949 0.30153 0.11082 0.0
C1693 C 0.7951 0.32848 0.1115 0.0
C1694 C 0.79226 0.25735 0.09161 0.0
C1695 C 0.79879 0.24251 0.11165 0.0
C1696 C 0.77959 0.2448 0.07248 0.0
C1697 C 0.77149 0.25921 0.05106 0.0
C1698 C 0.74982 0.27646 0.05165 0.0
C1699 C 0.74145 0.28901 0.03104 0.0
C1700 C 0.75491 0.28477 0.00989 0.0
C1701 C 0.77653 0.26768 0.00923 0.0
C1702 C 0.78465 0.25468 0.02968 0.0
C1703 C 0.72876 0.1533 0.11712 0.0
C1704 C 0.72952 0.13461 0.09888 0.0
C1705 C 0.74551 0.17514 0.11662 0.0
C1706 C 0.76354 0.17842 0.09806 0.0
C1707 C 0.76554 0.15887 0.08068 0.0
C1708 C 0.74864 0.13711 0.08106 0.0
C1709 C 0.77726 0.20395 0.0951 0.0
C1710 C 0.77244 0.21822 0.07438 0.0
C1711 C 0.7915 0.21589 0.11365 0.0
C1712 C 0.79872 0.20106 0.13526 0.0
C1713 C 0.81124 0.17634 0.13362 0.0
C1714 C 0.81785 0.16235 0.15398 0.0
C1715 C 0.81213 0.1729 0.17612 0.0
C1716 C 0.79983 0.1975 0.17795 0.0
C1717 C 0.79318 0.21158 0.15764 0.0
H1718 H 0.81726 0.16203 0.19186 0.0
H1719 H 0.74845 0.29459 0.99399 0.0
H1720 H 0.13736 0.72171 0.64248 0.0
H1721 H 0.18175 0.73797 0.65141 0.0
H1722 H 0.19804 0.74523 0.57715 0.0
H1723 H 0.1537 0.72949 0.56808 0.0
H1724 H 0.22899 0.71695 0.64025 0.0
H1725 H 0.23868 0.79682 0.56761 0.0
H1726 H 0.20991 0.82745 0.54571 0.0
H1727 H 0.15508 0.82846 0.60336 0.0
H1728 H 0.1837 0.79821 0.62577 0.0
H1729 H 0.3603 0.74926 0.60507 0.0
H1730 H 0.31422 0.73575 0.60947 0.0
H1731 H 0.29688 0.80901 0.64499 0.0
H1732 H 0.34283 0.82267 0.64074 0.0
H1733 H 0.26476 0.80044 0.60739 0.0
H1734 H 0.29357 0.75322 0.67527 0.0
H1735 H 0.32167 0.72276 0.69796 0.0
H1736 H 0.29874 0.6586 0.65293 0.0
H1737 H 0.27078 0.68876 0.62975 0.0
C1738 C 0.1503 0.72706 0.62807 0.0
C1739 C 0.142 0.72443 0.60457 0.0
C1740 C 0.17567 0.73621 0.6332 0.0
C1741 C 0.19306 0.74299 0.61495 0.0
C1742 C 0.18477 0.7405 0.59151 0.0
C1743 C 0.15943 0.73144 0.58636 0.0
C1744 C 0.22019 0.75201 0.62027 0.0
C1745 C 0.2368 0.73528 0.63322 0.0
C1746 C 0.23019 0.77611 0.61132 0.0
C1747 C 0.21325 0.79504 0.59829 0.0
C1748 C 0.22058 0.80373 0.57569 0.0
C1749 C 0.20428 0.821 0.56317 0.0
C1750 C 0.18063 0.82979 0.57311 0.0
C1751 C 0.17335 0.82153 0.59565 0.0
C1752 C 0.1896 0.80432 0.60827 0.0
C1753 C 0.34683 0.76222 0.6143 0.0
C1754 C 0.35517 0.78711 0.62234 0.0
C1755 C 0.32052 0.75446 0.61683 0.0
C1756 C 0.30219 0.77146 0.62748 0.0
C1757 C 0.31075 0.79569 0.63665 0.0
C1758 C 0.33705 0.8034 0.63424 0.0
C1759 C 0.27371 0.76511 0.62694 0.0
C1760 C 0.25687 0.78229 0.61473 0.0
C1761 C 0.26349 0.74156 0.63673 0.0
C1762 C 0.28022 0.72331 0.65066 0.0
C1763 C 0.29468 0.73266 0.67009 0.0
C1764 C 0.31055 0.71543 0.68306 0.0
C1765 C 0.31203 0.68877 0.67686 0.0
C1766 C 0.29759 0.67926 0.65771 0.0
C1767 C 0.28169 0.69641 0.64466 0.0
H1768 H 0.32433 0.67546 0.68693 0.0
H1769 H 0.16792 0.84298 0.56335 0.0
H1770 H 0.77922 0.14904 0.64257 0.0
H1771 H 0.75932 0.19269 0.639 0.0
H1772 H 0.7162 0.16677 0.57772 0.0
H1773 H 0.73654 0.12324 0.58091 0.0
H1774 H 0.73975 0.2096 0.56783 0.0
H1775 H 0.68473 0.18345 0.631 0.0
H1776 H 0.67298 0.16472 0.66966 0.0
H1777 H 0.7185 0.22489 0.7042 0.0
H1778 H 0.73084 0.24378 0.66573 0.0
H1779 H 0.67902 0.33635 0.55845 0.0
H1780 H 0.68672 0.28902 0.56298 0.0
H1781 H 0.73662 0.30445 0.62299 0.0
H1782 H 0.72833 0.35186 0.61892 0.0
H1783 H 0.70369 0.26528 0.63201 0.0
H1784 H 0.76123 0.28794 0.56579 0.0
H1785 H 0.77204 0.30392 0.52587 0.0
H1786 H 0.71735 0.24843 0.49606 0.0
H1787 H 0.70631 0.23208 0.53574 0.0
C1788 C 0.76493 0.15243 0.62874 0.0
C1789 C 0.75951 0.13282 0.61193 0.0
C1790 C 0.75349 0.17739 0.62673 0.0
C1791 C 0.73606 0.18299 0.60816 0.0
C1792 C 0.72953 0.1629 0.59218 0.0
C1793 C 0.74115 0.13805 0.59403 0.0
C1794 C 0.72694 0.21041 0.60402 0.0
C1795 C 0.73136 0.22161 0.58176 0.0
C1796 C 0.71625 0.22618 0.62222 0.0
C1797 C 0.70887 0.21492 0.64544 0.0
C1798 C 0.6924 0.19258 0.64683 0.0
C1799 C 0.68561 0.18195 0.66872 0.0
C1800 C 0.69503 0.19358 0.68937 0.0
C1801 C 0.71122 0.2159 0.68819 0.0
C1802 C 0.7181 0.2266 0.66634 0.0
C1803 C 0.69185 0.32965 0.57247 0.0
C1804 C 0.70335 0.34773 0.58821 0.0
C1805 C 0.69627 0.30261 0.575 0.0
C1806 C 0.71257 0.29322 0.5931 0.0
C1807 C 0.724 0.31129 0.60887 0.0
C1808 C 0.71932 0.33832 0.60652 0.0
C1809 C 0.71726 0.26456 0.59607 0.0
C1810 C 0.71186 0.25312 0.61807 0.0
C1811 C 0.72663 0.24845 0.57751 0.0
C1812 C 0.73271 0.259 0.55375 0.0
C1813 C 0.75126 0.2794 0.55074 0.0
C1814 C 0.75749 0.28846 0.52815 0.0
C1815 C 0.74524 0.27736 0.50847 0.0
C1816 C 0.72677 0.2571 0.51131 0.0
C1817 C 0.72058 0.24787 0.53383 0.0
H1818 H 0.75016 0.28436 0.49101 0.0
H1819 H 0.68974 0.18532 0.7063 0.0
H1820 H 0.85414 0.20913 0.87787 0.0
H1821 H 0.81041 0.229 0.87419 0.0
H1822 H 0.81576 0.25782 0.94554 0.0
H1823 H 0.85953 0.23807 0.94926 0.0
H1824 H 0.77241 0.22792 0.93804 0.0
H1825 H 0.81633 0.30023 0.89978 0.0
H1826 H 0.84546 0.32113 0.87039 0.0
H1827 H 0.79681 0.29115 0.81459 0.0
H1828 H 0.76757 0.26974 0.84364 0.0
H1829 H 0.65893 0.30762 0.94496 0.0
H1830 H 0.70313 0.28873 0.9446 0.0
H1831 H 0.69222 0.26454 0.8724 0.0
H1832 H 0.64779 0.28361 0.8727 0.0
H1833 H 0.73784 0.29012 0.8783 0.0
H1834 H 0.69239 0.21971 0.91696 0.0
H1835 H 0.66496 0.19639 0.94621 0.0
H1836 H 0.7174 0.22093 0.00139 0.0
H1837 H 0.74473 0.24486 0.97252 0.0
C1838 C 0.84624 0.22022 0.89257 0.0
C1839 C 0.8599 0.22171 0.91404 0.0
C1840 C 0.82132 0.23159 0.89042 0.0
C1841 C 0.80995 0.24476 0.90962 0.0
C1842 C 0.82425 0.24759 0.93058 0.0
C1843 C 0.84912 0.23624 0.93273 0.0
C1844 C 0.78213 0.25301 0.9088 0.0
C1845 C 0.76484 0.24185 0.92528 0.0
C1846 C 0.77234 0.27029 0.89139 0.0
C1847 C 0.7899 0.28316 0.87389 0.0
C1848 C 0.81197 0.29789 0.88124 0.0
C1849 C 0.82847 0.30987 0.86464 0.0
C1850 C 0.82303 0.30741 0.84064 0.0
C1851 C 0.80102 0.29301 0.83318 0.0
C1852 C 0.78446 0.28097 0.84971 0.0
C1853 C 0.66572 0.29774 0.92921 0.0
C1854 C 0.64993 0.2968 0.90897 0.0
C1855 C 0.69096 0.28699 0.92901 0.0
C1856 C 0.70072 0.27495 0.90857 0.0
C1857 C 0.68489 0.27369 0.88836 0.0
C1858 C 0.65961 0.28455 0.88855 0.0
C1859 C 0.72813 0.26536 0.90797 0.0
C1860 C 0.74534 0.27615 0.89113 0.0
C1861 C 0.73789 0.24764 0.92509 0.0
C1862 C 0.72055 0.23431 0.94258 0.0
C1863 C 0.69787 0.22047 0.93536 0.0
C1864 C 0.68237 0.20703 0.95187 0.0
C1865 C 0.68949 0.20707 0.97562 0.0
C1866 C 0.71193 0.22081 0.98298 0.0
C1867 C 0.72739 0.23437 0.96656 0.0
H1868 H 0.67754 0.19654 0.98834 0.0
H1869 H 0.83583 0.31671 0.82781 0.0
H1870 H 0.30352 0.85641 0.85458 0.0
H1871 H 0.28885 0.81217 0.84256 0.0
H1872 H 0.28619 0.7881 0.91528 0.0
H1873 H 0.30061 0.83196 0.9275 0.0
H1874 H 0.31853 0.75511 0.87816 0.0
H1875 H 0.23302 0.79608 0.89822 0.0
H1876 H 0.19895 0.83035 0.89311 0.0
H1877 H 0.19295 0.81107 0.8197 0.0
H1878 H 0.22732 0.77691 0.82436 0.0
H1879 H 0.24872 0.64461 0.91263 0.0
H1880 H 0.27004 0.6866 0.90439 0.0
H1881 H 0.23603 0.68722 0.83477 0.0
H1882 H 0.21396 0.64521 0.84312 0.0
H1883 H 0.22612 0.73224 0.85752 0.0
H1884 H 0.30523 0.68529 0.83913 0.0
H1885 H 0.33875 0.65043 0.84428 0.0
H1886 H 0.35651 0.67991 0.91335 0.0
H1887 H 0.32273 0.71456 0.90872 0.0
C1888 C 0.29962 0.84172 0.868 0.0
C1889 C 0.30339 0.84755 0.89198 0.0
C1890 C 0.29134 0.81655 0.86109 0.0
C1891 C 0.28696 0.79701 0.87808 0.0
C1892 C 0.28999 0.80296 0.90198 0.0
C1893 C 0.29803 0.82806 0.90891 0.0
C1894 C 0.2795 0.77004 0.87127 0.0
C1895 C 0.29837 0.75001 0.87357 0.0
C1896 C 0.25353 0.76375 0.86432 0.0
C1897 C 0.233 0.78428 0.86155 0.0
C1898 C 0.22467 0.79938 0.88094 0.0
C1899 C 0.20525 0.81872 0.87814 0.0
C1900 C 0.19387 0.82297 0.85607 0.0
C1901 C 0.20184 0.80782 0.83677 0.0
C1902 C 0.22128 0.78847 0.83947 0.0
C1903 C 0.24616 0.65336 0.89539 0.0
C1904 C 0.22949 0.64175 0.87861 0.0
C1905 C 0.25856 0.67729 0.89061 0.0
C1906 C 0.25485 0.68986 0.86885 0.0
C1907 C 0.23921 0.67773 0.85162 0.0
C1908 C 0.22667 0.65376 0.85642 0.0
C1909 C 0.26486 0.71699 0.86557 0.0
C1910 C 0.24652 0.73721 0.86134 0.0
C1911 C 0.29137 0.72347 0.87063 0.0
C1912 C 0.31178 0.70275 0.87346 0.0
C1913 C 0.31632 0.68432 0.8554 0.0
C1914 C 0.33531 0.66456 0.85824 0.0
C1915 C 0.34985 0.66303 0.87908 0.0
C1916 C 0.34537 0.68121 0.89715 0.0
C1917 C 0.3264 0.70099 0.89439 0.0
H1918 H 0.36452 0.6477 0.88126 0.0
H1919 H 0.17883 0.83793 0.85394 0.0
H1920 H 0.61216 0.13106 0.47135 0.0
H1921 H 0.64437 0.11196 0.49874 0.0
H1922 H 0.70208 0.10871 0.44285 0.0
H1923 H 0.66996 0.12661 0.41551 0.0
H1924 H 0.70473 0.06576 0.46484 0.0
H1925 H 0.70038 0.15571 0.48874 0.0
H1926 H 0.6841 0.19824 0.50393 0.0
H1927 H 0.66083 0.16069 0.56843 0.0
H1928 H 0.67717 0.11794 0.55362 0.0
H1929 H 0.81802 0.04853 0.54284 0.0
H1930 H 0.78662 0.0648 0.51302 0.0
H1931 H 0.72232 0.05274 0.56166 0.0
H1932 H 0.75315 0.03633 0.59104 0.0
H1933 H 0.72463 0.10389 0.54314 0.0
H1934 H 0.72751 0.0131 0.51687 0.0
H1935 H 0.74966 0.97281 0.5026 0.0
H1936 H 0.77866 0.01506 0.44236 0.0
H1937 H 0.75697 0.05572 0.45645 0.0
C1938 C 0.6317 0.12615 0.46497 0.0
C1939 C 0.63839 0.13008 0.44122 0.0
C1940 C 0.65019 0.11542 0.48066 0.0
C1941 C 0.67583 0.10902 0.47296 0.0
C1942 C 0.68245 0.11323 0.44927 0.0
C1943 C 0.66397 0.1235 0.43361 0.0
C1944 C 0.69574 0.0973 0.48916 0.0
C1945 C 0.70924 0.07441 0.48184 0.0
C1946 C 0.7015 0.10821 0.51157 0.0
C1947 C 0.68999 0.13354 0.51995 0.0
C1948 C 0.69167 0.15647 0.50607 0.0
C1949 C 0.68252 0.18065 0.51468 0.0
C1950 C 0.67157 0.18218 0.5372 0.0
C1951 C 0.66941 0.15948 0.55101 0.0
C1952 C 0.67869 0.13528 0.54253 0.0
C1953 C 0.79712 0.0488 0.54685 0.0
C1954 C 0.78803 0.04145 0.56928 0.0
C1955 C 0.77925 0.0582 0.52993 0.0
C1956 C 0.75219 0.06022 0.5353 0.0
C1957 C 0.74311 0.0516 0.55726 0.0
C1958 C 0.76077 0.04215 0.57398 0.0
C1959 C 0.73322 0.07258 0.51879 0.0
C1960 C 0.71995 0.09548 0.5261 0.0
C1961 C 0.72788 0.06195 0.49634 0.0
C1962 C 0.74087 0.03752 0.48785 0.0
C1963 C 0.73882 0.01386 0.50069 0.0
C1964 C 0.75124 0.99094 0.49261 0.0
C1965 C 0.76563 0.99139 0.47162 0.0
C1966 C 0.76755 0.01475 0.45864 0.0
C1967 C 0.75518 0.03773 0.46665 0.0
H1968 H 0.77523 0.97363 0.46539 0.0
H1969 H 0.66471 0.20096 0.54393 0.0
H1970 H 0.40743 0.80592 0.55821 0.0
H1971 H 0.39963 0.76944 0.53098 0.0
H1972 H 0.48275 0.76657 0.5148 0.0
H1973 H 0.49073 0.80331 0.54216 0.0
H1974 H 0.44686 0.7553 0.47526 0.0
H1975 H 0.46396 0.72949 0.55473 0.0
H1976 H 0.45815 0.73044 0.59773 0.0
H1977 H 0.37781 0.70485 0.59008 0.0
H1978 H 0.38282 0.70453 0.54693 0.0
H1979 H 0.42974 0.62662 0.42804 0.0
H1980 H 0.44818 0.66238 0.45197 0.0
H1981 H 0.37401 0.66945 0.48884 0.0
H1982 H 0.35593 0.63305 0.46575 0.0
H1983 H 0.41222 0.67731 0.51833 0.0
H1984 H 0.39276 0.70776 0.43995 0.0
H1985 H 0.39616 0.7094 0.39674 0.0
H1986 H 0.47892 0.72686 0.40206 0.0
H1987 H 0.47597 0.72519 0.44539 0.0
C1988 C 0.42396 0.798 0.54838 0.0
C1989 C 0.44973 0.80712 0.55262 0.0
C1990 C 0.41948 0.77715 0.53287 0.0
C1991 C 0.44069 0.76497 0.52131 0.0
C1992 C 0.46615 0.77566 0.52369 0.0
C1993 C 0.47067 0.79667 0.53928 0.0
C1994 C 0.43636 0.73946 0.50909 0.0
C1995 C 0.43975 0.73805 0.48466 0.0
C1996 C 0.42672 0.71716 0.52144 0.0
C1997 C 0.4237 0.71724 0.54749 0.0
C1998 C 0.44493 0.7244 0.56215 0.0
C1999 C 0.4418 0.72479 0.58659 0.0
C2000 C 0.41761 0.71782 0.59664 0.0
C2001 C 0.39652 0.71035 0.58227 0.0
C2002 C 0.39949 0.71007 0.55781 0.0
C2003 C 0.41756 0.63546 0.44159 0.0
C2004 C 0.39135 0.62706 0.44494 0.0
C2005 C 0.42806 0.65604 0.45514 0.0
C2006 C 0.41232 0.66909 0.47187 0.0
C2007 C 0.38658 0.65979 0.47604 0.0
C2008 C 0.37625 0.63891 0.46282 0.0
C2009 C 0.42192 0.69321 0.48424 0.0
C2010 C 0.41961 0.69439 0.50884 0.0
C2011 C 0.43232 0.71535 0.47199 0.0
C2012 C 0.43415 0.71616 0.44593 0.0
C2013 C 0.41168 0.71187 0.43192 0.0
C2014 C 0.41353 0.71281 0.4074 0.0
C2015 C 0.43776 0.71817 0.39665 0.0
C2016 C 0.46017 0.72267 0.41041 0.0
C2017 C 0.4584 0.72176 0.43496 0.0
H2018 H 0.43917 0.71888 0.37765 0.0
H2019 H 0.41521 0.71814 0.61557 0.0
H2020 H 0.84117 0.37474 0.38376 0.0
H2021 H 0.80727 0.39602 0.40768 0.0
H2022 H 0.8584 0.39205 0.46826 0.0
H2023 H 0.89216 0.3701 0.44454 0.0
H2024 H 0.81163 0.37403 0.47914 0.0
H2025 H 0.84323 0.45119 0.43814 0.0
H2026 H 0.85445 0.47771 0.40313 0.0
H2027 H 0.77397 0.4736 0.37979 0.0
H2028 H 0.76234 0.44667 0.41447 0.0
H2029 H 0.7513 0.45535 0.56029 0.0
H2030 H 0.78096 0.44245 0.52864 0.0
H2031 H 0.71481 0.43428 0.48152 0.0
H2032 H 0.68454 0.44727 0.5136 0.0
H2033 H 0.76489 0.4577 0.46109 0.0
H2034 H 0.73362 0.37986 0.5008 0.0
H2035 H 0.72216 0.35244 0.53509 0.0
H2036 H 0.80186 0.35799 0.56026 0.0
H2037 H 0.81385 0.38542 0.52594 0.0
C2038 C 0.84539 0.3787 0.4021 0.0
C2039 C 0.8694 0.37058 0.41225 0.0
C2040 C 0.82596 0.39101 0.41577 0.0
C2041 C 0.83023 0.39581 0.43981 0.0
C2042 C 0.85455 0.38851 0.44977 0.0
C2043 C 0.87391 0.37603 0.43616 0.0
C2044 C 0.80884 0.40675 0.45501 0.0
C2045 C 0.80171 0.3925 0.47523 0.0
C2046 C 0.79502 0.43033 0.44957 0.0
C2047 C 0.80196 0.44671 0.42881 0.0
C2048 C 0.82796 0.45577 0.42546 0.0
C2049 C 0.83439 0.4709 0.40568 0.0
C2050 C 0.81494 0.47732 0.38924 0.0
C2051 C 0.78902 0.46861 0.39254 0.0
C2052 C 0.78249 0.45343 0.41226 0.0
C2053 C 0.74296 0.45119 0.54312 0.0
C2054 C 0.7155 0.45197 0.53952 0.0
C2055 C 0.76001 0.44386 0.52503 0.0
C2056 C 0.75009 0.43704 0.50284 0.0
C2057 C 0.72284 0.43945 0.49857 0.0
C2058 C 0.70559 0.4469 0.51685 0.0
C2059 C 0.76833 0.42519 0.48526 0.0
C2060 C 0.7748 0.43917 0.46473 0.0
C2061 C 0.7816 0.40128 0.49026 0.0
C2062 C 0.77455 0.38488 0.51095 0.0
C2063 C 0.74865 0.37542 0.51376 0.0
C2064 C 0.74206 0.35985 0.5332 0.0
C2065 C 0.7612 0.3537 0.55001 0.0
C2066 C 0.78703 0.3629 0.54729 0.0
C2067 C 0.79376 0.37836 0.52779 0.0
H2068 H 0.75611 0.34155 0.565 0.0
H2069 H 0.81993 0.48909 0.37398 0.0
H2070 H 0.05055 0.75375 0.56754 0.0
H2071 H 0.06489 0.78486 0.53782 0.0
H2072 H 0.06569 0.72268 0.48592 0.0
H2073 H 0.05182 0.69069 0.51625 0.0
H2074 H 0.11056 0.75333 0.48412 0.0
H2075 H 0.01731 0.77015 0.48555 0.0
H2076 H 0.97468 0.77867 0.50509 0.0
H2077 H 0.00532 0.85076 0.5341 0.0
H2078 H 0.04827 0.8425 0.515 0.0
H2079 H 0.12753 0.84345 0.38979 0.0
H2080 H 0.10852 0.8106 0.4162 0.0
H2081 H 0.11218 0.86622 0.47358 0.0
H2082 H 0.13178 0.89934 0.44719 0.0
H2083 H 0.06351 0.83793 0.47061 0.0
H2084 H 0.15601 0.82119 0.47289 0.0
H2085 H 0.20047 0.81311 0.45686 0.0
H2086 H 0.17289 0.74216 0.4235 0.0
H2087 H 0.12808 0.75002 0.43911 0.0
C2088 C 0.05352 0.74652 0.54979 0.0
C2089 C 0.05 0.71961 0.54431 0.0
C2090 C 0.06163 0.7645 0.53273 0.0
C2091 C 0.06607 0.75629 0.50951 0.0
C2092 C 0.06225 0.7295 0.50372 0.0
C2093 C 0.05413 0.71128 0.52098 0.0
C2094 C 0.07556 0.77586 0.49184 0.0
C2095 C 0.09996 0.77154 0.48073 0.0
C2096 C 0.06222 0.80012 0.48809 0.0
C2097 C 0.03609 0.80562 0.49892 0.0
C2098 C 0.01499 0.78778 0.49615 0.0
C2099 C 0.99077 0.79256 0.50716 0.0
C2100 C 0.98731 0.81522 0.52086 0.0
C2101 C 0.00803 0.83322 0.52347 0.0
C2102 C 0.03231 0.82853 0.51252 0.0
C2103 C 0.12426 0.84884 0.408 0.0
C2104 C 0.13125 0.87407 0.41636 0.0
C2105 C 0.1134 0.82996 0.42308 0.0
C2106 C 0.10908 0.83589 0.44687 0.0
C2107 C 0.11533 0.86127 0.45524 0.0
C2108 C 0.12651 0.88016 0.44015 0.0
C2109 C 0.0984 0.81531 0.46292 0.0
C2110 C 0.07387 0.81953 0.47375 0.0
C2111 C 0.11172 0.79109 0.46659 0.0
C2112 C 0.1386 0.78634 0.457 0.0
C2113 C 0.15934 0.80399 0.46196 0.0
C2114 C 0.18463 0.79941 0.453 0.0
C2115 C 0.18952 0.7771 0.4392 0.0
C2116 C 0.16908 0.75939 0.43425 0.0
C2117 C 0.14373 0.7639 0.44316 0.0
H2118 H 0.20912 0.77356 0.4323 0.0
H2119 H 0.96857 0.81883 0.52944 0.0
H2120 H 0.28177 0.91779 0.92227 0.0
H2121 H 0.24928 0.90165 0.95011 0.0
H2122 H 0.28554 0.94741 0.00532 0.0
H2123 H 0.3192 0.96334 0.97733 0.0
H2124 H 0.26772 0.89506 0.01932 0.0
H2125 H 0.23589 0.9708 0.97643 0.0
H2126 H 0.22741 0.99449 0.93941 0.0
H2127 H 0.17124 0.93524 0.91903 0.0
H2128 H 0.18066 0.91018 0.95523 0.0
H2129 H 0.15961 0.88583 0.09646 0.0
H2130 H 0.19413 0.90386 0.07126 0.0
H2131 H 0.15533 0.87134 0.01023 0.0
H2132 H 0.12004 0.85382 0.03545 0.0
H2133 H 0.17508 0.91842 0.99995 0.0
H2134 H 0.2079 0.84051 0.03592 0.0
H2135 H 0.21655 0.81106 0.06944 0.0
H2136 H 0.2697 0.8682 0.09899 0.0
H2137 H 0.26066 0.89851 0.06596 0.0
C2138 C 0.28336 0.92416 0.94041 0.0
C2139 C 0.30326 0.94192 0.94751 0.0
C2140 C 0.26457 0.91491 0.95631 0.0
C2141 C 0.2647 0.92358 0.97971 0.0
C2142 C 0.28506 0.94051 0.98729 0.0
C2143 C 0.30419 0.94969 0.97127 0.0
C2144 C 0.24242 0.91622 0.99551 0.0
C2145 C 0.24752 0.90059 0.01537 0.0
C2146 C 0.21591 0.92255 0.98976 0.0
C2147 C 0.20921 0.93842 0.96855 0.0
C2148 C 0.22195 0.9626 0.96397 0.0
C2149 C 0.21708 0.97622 0.94303 0.0
C2150 C 0.19872 0.96644 0.92691 0.0
C2151 C 0.18542 0.94283 0.93156 0.0
C2152 C 0.19067 0.9288 0.95222 0.0
C2153 C 0.15822 0.88264 0.07765 0.0
C2154 C 0.13718 0.86803 0.06801 0.0
C2155 C 0.17811 0.89291 0.06325 0.0
C2156 C 0.17775 0.8885 0.03885 0.0
C2157 C 0.15618 0.87489 0.02901 0.0
C2158 C 0.13605 0.8648 0.04345 0.0
C2159 C 0.20034 0.89732 0.02387 0.0
C2160 C 0.19529 0.91313 0.0041 0.0
C2161 C 0.22683 0.89056 0.02929 0.0
C2162 C 0.2333 0.87196 0.04863 0.0
C2163 C 0.2213 0.8469 0.04964 0.0
C2164 C 0.22623 0.83006 0.06859 0.0
C2165 C 0.24352 0.8378 0.08644 0.0
C2166 C 0.25616 0.86231 0.08523 0.0
C2167 C 0.25111 0.87936 0.06641 0.0
H2168 H 0.24724 0.82473 0.10114 0.0
H2169 H 0.19478 0.97714 0.91081 0.0
H2170 H 0.58103 0.15189 0.09297 0.0
H2171 H 0.56433 0.18663 0.06709 0.0
H2172 H 0.6241 0.16753 0.01578 0.0
H2173 H 0.64088 0.13257 0.04157 0.0
H2174 H 0.62211 0.22083 0.02592 0.0
H2175 H 0.56107 0.1521 0.00498 0.0
H2176 H 0.52768 0.11749 0.01198 0.0
H2177 H 0.47599 0.17476 0.0433 0.0
H2178 H 0.50924 0.20966 0.03675 0.0
H2179 H 0.57664 0.27638 0.92058 0.0
H2180 H 0.58853 0.24727 0.95269 0.0
H2181 H 0.53281 0.28659 0.99805 0.0
H2182 H 0.52138 0.31717 0.96578 0.0
H2183 H 0.53048 0.22761 0.99593 0.0
H2184 H 0.58982 0.29747 0.01123 0.0
H2185 H 0.62372 0.33166 0.00479 0.0
H2186 H 0.67932 0.27219 0.98388 0.0
H2187 H 0.64542 0.23773 0.98938 0.0
C2188 C 0.59042 0.15481 0.07603 0.0
C2189 C 0.61231 0.13943 0.06934 0.0
C2190 C 0.5808 0.17468 0.06124 0.0
C2191 C 0.59293 0.1797 0.03948 0.0
C2192 C 0.61443 0.16401 0.03251 0.0
C2193 C 0.6239 0.14392 0.0472 0.0
C2194 C 0.584 0.20212 0.02453 0.0
C2195 C 0.60219 0.22213 0.01905 0.0
C2196 C 0.55767 0.2044 0.01645 0.0
C2197 C 0.53779 0.18341 0.02068 0.0
C2198 C 0.5427 0.15725 0.0136 0.0
C2199 C 0.52377 0.1376 0.01742 0.0
C2200 C 0.49977 0.1439 0.02816 0.0
C2201 C 0.49462 0.16989 0.03504 0.0
C2202 C 0.5135 0.18962 0.03127 0.0
C2203 C 0.56711 0.27936 0.93744 0.0
C2204 C 0.54837 0.29959 0.94067 0.0
C2205 C 0.57398 0.26256 0.95581 0.0
C2206 C 0.56182 0.26495 0.97781 0.0
C2207 C 0.54261 0.28463 0.98119 0.0
C2208 C 0.53613 0.30208 0.9628 0.0
C2209 C 0.56887 0.24581 0.99656 0.0
C2210 C 0.55038 0.2264 0.00283 0.0
C2211 C 0.59499 0.24402 0.00525 0.0
C2212 C 0.61498 0.26493 1.00059 0.0
C2213 C 0.60911 0.29168 0.00486 0.0
C2214 C 0.62837 0.31113 0.00146 0.0
C2215 C 0.6537 0.30409 0.99406 0.0
C2216 C 0.65973 0.27761 0.98972 0.0
C2217 C 0.64047 0.25812 0.99289 0.0
H2218 H 0.66863 0.31915 0.99158 0.0
H2219 H 0.48513 0.12866 0.03108 0.0
H2220 H 0.23827 0.55519 0.91494 0.0
H2221 H 0.26884 0.56732 0.94596 0.0
H2222 H 0.20598 0.56255 0.99705 0.0
H2223 H 0.1747 0.55062 0.9655 0.0
H2224 H 0.23481 0.60804 0.00165 0.0
H2225 H 0.25499 0.51603 0.99508 0.0
H2226 H 0.26665 0.4743 0.97523 0.0
H2227 H 0.33899 0.5088 0.95053 0.0
H2228 H 0.32757 0.5509 0.96983 0.0
H2229 H 0.32324 0.62526 0.09692 0.0
H2230 H 0.29099 0.60728 0.06952 0.0
H2231 H 0.34853 0.61054 0.01364 0.0
H2232 H 0.38127 0.62873 0.04119 0.0
H2233 H 0.32104 0.56371 0.01372 0.0
H2234 H 0.29953 0.65575 0.01428 0.0
H2235 H 0.28895 0.69909 0.03155 0.0
H2236 H 0.22093 0.66585 0.06569 0.0
H2237 H 0.23104 0.62224 0.04839 0.0
C2238 C 0.23083 0.5565 0.93279 0.0
C2239 C 0.20394 0.55208 0.93773 0.0
C2240 C 0.24848 0.56327 0.95058 0.0
C2241 C 0.23988 0.56561 0.97394 0.0
C2242 C 0.2131 0.56075 0.97914 0.0
C2243 C 0.19528 0.5538 0.96118 0.0
C2244 C 0.25884 0.57455 0.99235 0.0
C2245 C 0.25339 0.59797 0.00468 0.0
C2246 C 0.28358 0.562 0.99571 0.0
C2247 C 0.29034 0.53672 0.98385 0.0
C2248 C 0.27327 0.51482 0.98525 0.0
C2249 C 0.27986 0.49108 0.97411 0.0
C2250 C 0.30357 0.48891 0.96169 0.0
C2251 C 0.32066 0.51051 0.96022 0.0
C2252 C 0.31414 0.53431 0.97126 0.0
C2253 C 0.32922 0.62213 0.07883 0.0
C2254 C 0.35495 0.62846 0.07129 0.0
C2255 C 0.3106 0.61196 0.06313 0.0
C2256 C 0.31717 0.60782 0.03944 0.0
C2257 C 0.34298 0.61364 0.03184 0.0
C2258 C 0.36167 0.62404 0.04759 0.0
C2259 C 0.29704 0.5972 0.02281 0.0
C2260 C 0.30231 0.57354 0.01085 0.0
C2261 C 0.27226 0.60963 0.01958 0.0
C2262 C 0.26621 0.63568 0.03026 0.0
C2263 C 0.28244 0.65763 0.02563 0.0
C2264 C 0.27648 0.68227 0.03537 0.0
C2265 C 0.25437 0.68521 0.04987 0.0
C2266 C 0.23808 0.66353 0.0545 0.0
C2267 C 0.24386 0.63886 0.04466 0.0
H2268 H 0.24979 0.70429 0.05742 0.0
H2269 H 0.30881 0.47047 0.95328 0.0
H2270 H 0.92294 0.36171 0.10419 0.0
H2271 H 0.93966 0.32426 0.08153 0.0
H2272 H 0.8855 0.3426 0.02538 0.0
H2273 H 0.86862 0.38016 0.04799 0.0
H2274 H 0.88332 0.29019 0.03812 0.0
H2275 H 0.95053 0.35422 0.019 0.0
H2276 H 0.98503 0.38719 0.02774 0.0
H2277 H 0.02948 0.32866 0.06529 0.0
H2278 H 0.99505 0.29541 0.05704 0.0
H2279 H 0.9351 0.23147 0.93721 0.0
H2280 H 0.92396 0.26229 0.96818 0.0
H2281 H 0.96733 0.21551 0.01827 0.0
H2282 H 0.97777 0.18313 0.98705 0.0
H2283 H 0.97673 0.27696 0.0145 0.0
H2284 H 0.91197 0.21125 0.02865 0.0
H2285 H 0.87855 0.17818 0.01746 0.0
H2286 H 0.82954 0.2393 0.98891 0.0
H2287 H 0.86295 0.27278 0.99936 0.0
C2288 C 0.91496 0.35813 0.0868 0.0
C2289 C 0.89452 0.37401 0.07786 0.0
C2290 C 0.9245 0.33664 0.07389 0.0
C2291 C 0.91378 0.33055 0.05179 0.0
C2292 C 0.89399 0.34689 0.04245 0.0
C2293 C 0.88457 0.36855 0.05527 0.0
C2294 C 0.92258 0.30664 0.03877 0.0
C2295 C 0.90371 0.28737 0.03286 0.0
C2296 C 0.94937 0.30245 0.03267 0.0
C2297 C 0.97007 0.32242 0.03765 0.0
C2298 C 0.96754 0.34844 0.02931 0.0
C2299 C 0.98711 0.36717 0.03413 0.0
C2300 C 0.00939 0.36005 0.04713 0.0
C2301 C 0.01219 0.33416 0.05527 0.0
C2302 C 0.99266 0.31536 0.05051 0.0
C2303 C 0.94197 0.22719 0.95484 0.0
C2304 C 0.95681 0.20432 0.95971 0.0
C2305 C 0.93567 0.24506 0.97252 0.0
C2306 C 0.94457 0.24104 0.99549 0.0
C2307 C 0.96013 0.21877 1.00057 0.0
C2308 C 0.96603 0.20033 0.98279 0.0
C2309 C 0.93744 0.26084 0.0136 0.0
C2310 C 0.95648 0.27949 0.0203 0.0
C2311 C 0.91082 0.26444 0.02045 0.0
C2312 C 0.89021 0.24455 0.01457 0.0
C2313 C 0.8942 0.21767 0.01977 0.0
C2314 C 0.87523 0.19884 0.01359 0.0
C2315 C 0.85198 0.20664 0.00243 0.0
C2316 C 0.84756 0.23332 0.9976 0.0
C2317 C 0.86654 0.25224 0.00361 0.0
H2318 H 0.83745 0.19198 0.99754 0.0
H2319 H 0.02453 0.37457 0.05083 0.0
H2320 H 0.38171 0.88465 0.54132 0.0
H2321 H 0.34865 0.90373 0.51477 0.0
H2322 H 0.29527 0.91398 0.5732 0.0
H2323 H 0.32803 0.89515 0.59975 0.0
H2324 H 0.27075 0.89128 0.53508 0.0
H2325 H 0.3265 0.96625 0.55069 0.0
H2326 H 0.3681 0.99149 0.55263 0.0
H2327 H 0.37912 0.98151 0.47823 0.0
H2328 H 0.33779 0.95587 0.47589 0.0
H2329 H 0.17721 0.9655 0.46617 0.0
H2330 H 0.20767 0.95295 0.49807 0.0
H2331 H 0.27096 0.9457 0.44761 0.0
H2332 H 0.24133 0.95868 0.4163 0.0
H2333 H 0.28848 0.96953 0.48501 0.0
H2334 H 0.23644 0.89134 0.46913 0.0
H2335 H 0.19471 0.86637 0.4656 0.0
H2336 H 0.1773 0.88174 0.53825 0.0
H2337 H 0.2188 0.90688 0.54221 0.0
C2338 C 0.36302 0.89117 0.54853 0.0
C2339 C 0.3576 0.88844 0.57269 0.0
C2340 C 0.34414 0.90208 0.53335 0.0
C2341 C 0.31949 0.91037 0.54202 0.0
C2342 C 0.31411 0.90771 0.5661 0.0
C2343 C 0.33298 0.89703 0.58128 0.0
C2344 C 0.29909 0.92141 0.52598 0.0
C2345 C 0.2745 0.90861 0.52435 0.0
C2346 C 0.30408 0.94377 0.51171 0.0
C2347 C 0.32916 0.95888 0.51317 0.0
C2348 C 0.33793 0.96918 0.53478 0.0
C2349 C 0.36144 0.98363 0.53594 0.0
C2350 C 0.37628 0.98805 0.51558 0.0
C2351 C 0.36764 0.97805 0.494 0.0
C2352 C 0.34416 0.96357 0.49275 0.0
C2353 C 0.19768 0.96146 0.46204 0.0
C2354 C 0.20675 0.96287 0.43869 0.0
C2355 C 0.21502 0.95413 0.4802 0.0
C2356 C 0.2416 0.9481 0.47521 0.0
C2357 C 0.25064 0.95025 0.45199 0.0
C2358 C 0.23352 0.95757 0.43403 0.0
C2359 C 0.26034 0.93911 0.49371 0.0
C2360 C 0.28465 0.9523 0.49584 0.0
C2361 C 0.25523 0.9169 0.50815 0.0
C2362 C 0.23059 0.90122 0.50591 0.0
C2363 C 0.22367 0.88944 0.48433 0.0
C2364 C 0.2001 0.8752 0.48227 0.0
C2365 C 0.18341 0.87242 0.5017 0.0
C2366 C 0.1903 0.8838 0.52325 0.0
C2367 C 0.21384 0.89802 0.52542 0.0
H2368 H 0.16513 0.86149 0.50005 0.0
H2369 H 0.39444 0.99928 0.51651 0.0
H2370 H 0.63026 0.39883 0.54337 0.0
H2371 H 0.6086 0.36555 0.51903 0.0
H2372 H 0.5782 0.32745 0.58134 0.0
H2373 H 0.6003 0.36045 0.60586 0.0
H2374 H 0.59902 0.29174 0.55362 0.0
H2375 H 0.53713 0.3608 0.54251 0.0
H2376 H 0.5207 0.40552 0.5337 0.0
H2377 H 0.55251 0.40038 0.46379 0.0
H2378 H 0.5695 0.35578 0.47228 0.0
H2379 H 0.52775 0.2012 0.47793 0.0
H2380 H 0.5358 0.23565 0.50772 0.0
H2381 H 0.58063 0.28047 0.45701 0.0
H2382 H 0.57291 0.24662 0.42755 0.0
H2383 H 0.54669 0.31183 0.48223 0.0
H2384 H 0.61108 0.24331 0.49613 0.0
H2385 H 0.62397 0.19737 0.50461 0.0
H2386 H 0.58318 0.20082 0.57082 0.0
H2387 H 0.56935 0.24659 0.56239 0.0
C2388 C 0.61848 0.38374 0.55192 0.0
C2389 C 0.617 0.38238 0.5766 0.0
C2390 C 0.60607 0.36465 0.53795 0.0
C2391 C 0.59158 0.34397 0.54829 0.0
C2392 C 0.58929 0.34313 0.57291 0.0
C2393 C 0.60182 0.36214 0.58691 0.0
C2394 C 0.58021 0.3225 0.53341 0.0
C2395 C 0.58695 0.29611 0.53835 0.0
C2396 C 0.56473 0.32803 0.51328 0.0
C2397 C 0.55482 0.355 0.50813 0.0
C2398 C 0.54085 0.36929 0.52533 0.0
C2399 C 0.53139 0.39461 0.52038 0.0
C2400 C 0.53562 0.40581 0.49822 0.0
C2401 C 0.54928 0.39169 0.48096 0.0
C2402 C 0.55882 0.36638 0.48583 0.0
C2403 C 0.53924 0.21844 0.47317 0.0
C2404 C 0.5498 0.22098 0.45037 0.0
C2405 C 0.54384 0.23809 0.49019 0.0
C2406 C 0.55892 0.26061 0.4846 0.0
C2407 C 0.56891 0.26335 0.46174 0.0
C2408 C 0.56455 0.24379 0.44492 0.0
C2409 C 0.5653 0.28118 0.50244 0.0
C2410 C 0.55794 0.3074 0.49791 0.0
C2411 C 0.5798 0.27542 0.52308 0.0
C2412 C 0.58885 0.24824 0.52848 0.0
C2413 C 0.60466 0.23421 0.51241 0.0
C2414 C 0.61211 0.20819 0.51719 0.0
C2415 C 0.60429 0.19614 0.53819 0.0
C2416 C 0.58912 0.21015 0.55451 0.0
C2417 C 0.58143 0.23611 0.54972 0.0
H2418 H 0.61006 0.17599 0.54186 0.0
H2419 H 0.52825 0.42541 0.49442 0.0
H2420 H 0.25277 0.56449 0.42647 0.0
H2421 H 0.21836 0.57424 0.45506 0.0
H2422 H 0.27104 0.55323 0.51161 0.0
H2423 H 0.30577 0.54272 0.48268 0.0
H2424 H 0.2191 0.53801 0.52069 0.0
H2425 H 0.26446 0.61663 0.4977 0.0
H2426 H 0.28389 0.64784 0.4692 0.0
H2427 H 0.20735 0.66178 0.43936 0.0
H2428 H 0.18747 0.63032 0.46748 0.0
H2429 H 0.14876 0.61479 0.60653 0.0
H2430 H 0.18127 0.59411 0.58072 0.0
H2431 H 0.13423 0.61471 0.52024 0.0
H2432 H 0.10164 0.63567 0.54599 0.0
H2433 H 0.18497 0.62963 0.51473 0.0
H2434 H 0.13987 0.55043 0.53896 0.0
H2435 H 0.12165 0.51867 0.56759 0.0
H2436 H 0.199 0.50639 0.59637 0.0
H2437 H 0.21764 0.53836 0.5681 0.0
C2438 C 0.25702 0.56161 0.44497 0.0
C2439 C 0.28213 0.55324 0.45237 0.0
C2440 C 0.23729 0.56721 0.46131 0.0
C2441 C 0.24229 0.5651 0.48551 0.0
C2442 C 0.26681 0.55516 0.49301 0.0
C2443 C 0.28662 0.54918 0.47651 0.0
C2444 C 0.22246 0.57522 0.50262 0.0
C2445 C 0.21189 0.55814 0.51965 0.0
C2446 C 0.21281 0.60142 0.50108 0.0
C2447 C 0.22451 0.62097 0.4846 0.0
C2448 C 0.25178 0.62627 0.48501 0.0
C2449 C 0.26286 0.64399 0.46893 0.0
C2450 C 0.24685 0.65672 0.45249 0.0
C2451 C 0.2197 0.65187 0.45214 0.0
C2452 C 0.2085 0.63413 0.46816 0.0
C2453 C 0.14504 0.61455 0.58778 0.0
C2454 C 0.12254 0.62692 0.57836 0.0
C2455 C 0.16368 0.60264 0.57302 0.0
C2456 C 0.1602 0.60273 0.54851 0.0
C2457 C 0.13736 0.61439 0.5391 0.0
C2458 C 0.11867 0.62626 0.55386 0.0
C2459 C 0.18115 0.5923 0.53262 0.0
C2460 C 0.19211 0.60947 0.51585 0.0
C2461 C 0.19127 0.5663 0.53462 0.0
C2462 C 0.18011 0.54699 0.55156 0.0
C2463 C 0.15296 0.54112 0.55151 0.0
C2464 C 0.14257 0.52304 0.56765 0.0
C2465 C 0.15915 0.51057 0.58383 0.0
C2466 C 0.18618 0.51609 0.58385 0.0
C2467 C 0.19667 0.53417 0.56775 0.0
H2468 H 0.15106 0.49658 0.59631 0.0
H2469 H 0.25548 0.67033 0.44003 0.0
H2470 H 0.84974 0.17035 0.60264 0.0
H2471 H 0.86974 0.20082 0.57466 0.0
H2472 H 0.88862 0.13576 0.52869 0.0
H2473 H 0.86823 0.10482 0.55676 0.0
H2474 H 0.93109 0.17117 0.53625 0.0
H2475 H 0.84068 0.17526 0.51176 0.0
H2476 H 0.79254 0.18007 0.51687 0.0
H2477 H 0.80393 0.25736 0.54633 0.0
H2478 H 0.85204 0.25304 0.54133 0.0
H2479 H 0.96058 0.24889 0.4347 0.0
H2480 H 0.94606 0.2175 0.46462 0.0
H2481 H 0.92035 0.28202 0.50859 0.0
H2482 H 0.93501 0.31371 0.47849 0.0
H2483 H 0.88141 0.24622 0.50198 0.0
H2484 H 0.97173 0.24253 0.52597 0.0
H2485 H 0.01998 0.23658 0.52393 0.0
H2486 H 0.00931 0.15818 0.49672 0.0
H2487 H 0.96097 0.1637 0.49845 0.0
C2488 C 0.85811 0.16239 0.5866 0.0
C2489 C 0.85746 0.13507 0.58199 0.0
C2490 C 0.86942 0.17993 0.57053 0.0
C2491 C 0.8805 0.17063 0.5495 0.0
C2492 C 0.8801 0.14335 0.54481 0.0
C2493 C 0.86844 0.12572 0.56083 0.0
C2494 C 0.89306 0.18956 0.53289 0.0
C2495 C 0.92018 0.18732 0.52836 0.0
C2496 C 0.87895 0.2111 0.52326 0.0
C2497 C 0.84998 0.21374 0.52634 0.0
C2498 C 0.8329 0.19322 0.51945 0.0
C2499 C 0.80561 0.19589 0.52225 0.0
C2500 C 0.79515 0.21899 0.53192 0.0
C2501 C 0.81198 0.2395 0.53876 0.0
C2502 C 0.83927 0.23698 0.53589 0.0
C2503 C 0.95236 0.25644 0.45098 0.0
C2504 C 0.94883 0.28377 0.45423 0.0
C2505 C 0.94416 0.23844 0.46814 0.0
C2506 C 0.93206 0.24732 0.4889 0.0
C2507 C 0.92963 0.2747 0.4927 0.0
C2508 C 0.93818 0.29281 0.47559 0.0
C2509 C 0.91965 0.22798 0.50532 0.0
C2510 C 0.89244 0.23009 0.50978 0.0
C2511 C 0.93371 0.2063 0.51484 0.0
C2512 C 0.96271 0.2036 0.51221 0.0
C2513 C 0.97966 0.22415 0.51926 0.0
C2514 C 0.00702 0.22078 0.51833 0.0
C2515 C 0.01768 0.19693 0.51039 0.0
C2516 C 0.00101 0.17657 0.50301 0.0
C2517 C 0.97364 0.1798 0.50399 0.0
H2518 H 0.03886 0.19427 0.50987 0.0
H2519 H 0.77404 0.221 0.53407 0.0
H2520 H 0.85352 0.09223 0.91858 0.0
H2521 H 0.81763 0.07516 0.9429 0.0
H2522 H 0.8391 0.12911 0.99847 0.0
H2523 H 0.87534 0.14635 0.97406 0.0
H2524 H 0.81673 0.05133 0.98619 0.0
H2525 H 0.77624 0.148 0.02526 0.0
H2526 H 0.77723 0.19595 0.01783 0.0
H2527 H 0.78879 0.18168 0.94405 0.0
H2528 H 0.787 0.13365 0.95095 0.0
H2529 H 0.72643 0.03325 0.0801 0.0
H2530 H 0.76208 0.04617 0.05379 0.0
H2531 H 0.70516 0.07434 0.00327 0.0
H2532 H 0.66904 0.06189 0.03026 0.0
H2533 H 0.74411 0.11057 0.01148 0.0
H2534 H 0.74215 0.01662 0.99322 0.0
H2535 H 0.74158 0.96976 0.00519 0.0
H2536 H 0.81575 0.97994 0.04057 0.0
H2537 H 0.81675 0.02681 0.02884 0.0
C2538 C 0.85085 0.10028 0.93609 0.0
C2539 C 0.86733 0.1206 0.94439 0.0
C2540 C 0.8303 0.09047 0.94999 0.0
C2541 C 0.82544 0.101 0.97242 0.0
C2542 C 0.84232 0.12082 0.98112 0.0
C2543 C 0.86316 0.1305 0.96725 0.0
C2544 C 0.80233 0.09135 0.9862 0.0
C2545 C 0.80087 0.06433 0.99168 0.0
C2546 C 0.78155 0.10828 0.99344 0.0
C2547 C 0.78195 0.13716 0.98873 0.0
C2548 C 0.77885 0.1551 0.00744 0.0
C2549 C 0.77945 0.1823 0.00331 0.0
C2550 C 0.78318 0.19187 0.98051 0.0
C2551 C 0.78597 0.17425 0.96173 0.0
C2552 C 0.78514 0.147 0.96575 0.0
C2553 C 0.72146 0.04151 0.06309 0.0
C2554 C 0.69498 0.04621 0.05701 0.0
C2555 C 0.7419 0.04896 0.04806 0.0
C2556 C 0.7364 0.06102 0.02639 0.0
C2557 C 0.70987 0.06496 0.01987 0.0
C2558 C 0.68925 0.05752 0.03507 0.0
C2559 C 0.75854 0.0706 0.01134 0.0
C2560 C 0.75989 0.0976 0.00576 0.0
C2561 C 0.77942 0.05378 0.00427 0.0
C2562 C 0.7795 0.02523 0.01017 0.0
C2563 C 0.75837 0.00882 0.00349 0.0
C2564 C 0.75797 0.98226 0.01024 0.0
C2565 C 0.77863 0.97186 0.02362 0.0
C2566 C 0.79983 0.98796 0.03012 0.0
C2567 C 0.80037 0.0145 0.02335 0.0
H2568 H 0.77821 0.95134 0.02895 0.0
H2569 H 0.78405 0.21294 0.97745 0.0
H2570 H 0.40659 0.83973 0.90179 0.0
H2571 H 0.42432 0.80552 0.92746 0.0
H2572 H 0.40344 0.85179 0.98837 0.0
H2573 H 0.38524 0.88629 0.9627 0.0
H2574 H 0.45563 0.82707 0.9898 0.0
H2575 H 0.36338 0.80343 0.97719 0.0
H2576 H 0.32462 0.79521 0.95194 0.0
H2577 H 0.36788 0.73605 0.91389 0.0
H2578 H 0.4067 0.7437 0.93914 0.0
H2579 H 0.44448 0.73862 0.08303 0.0
H2580 H 0.4386 0.7707 0.05179 0.0
H2581 H 0.45559 0.71086 0.99991 0.0
H2582 H 0.46167 0.67809 0.03162 0.0
H2583 H 0.41002 0.74018 0.9899 0.0
H2584 H 0.5001 0.75878 0.00607 0.0
H2585 H 0.53988 0.76761 0.02981 0.0
H2586 H 0.50282 0.83623 0.05946 0.0
H2587 H 0.463 0.8279 0.03588 0.0
C2588 C 0.40596 0.84288 0.92064 0.0
C2589 C 0.39439 0.86576 0.9302 0.0
C2590 C 0.41607 0.82321 0.93527 0.0
C2591 C 0.41499 0.82604 0.95977 0.0
C2592 C 0.40443 0.84928 0.96946 0.0
C2593 C 0.39404 0.86894 0.95479 0.0
C2594 C 0.42384 0.80417 0.97519 0.0
C2595 C 0.44557 0.80814 0.99 0.0
C2596 C 0.41133 0.77919 0.97476 0.0
C2597 C 0.38789 0.7742 0.95992 0.0
C2598 C 0.36456 0.78869 0.96341 0.0
C2599 C 0.34258 0.78408 0.94916 0.0
C2600 C 0.34376 0.76509 0.93135 0.0
C2601 C 0.3669 0.75062 0.92778 0.0
C2602 C 0.38886 0.755 0.94212 0.0
C2603 C 0.44719 0.73216 0.06501 0.0
C2604 C 0.45347 0.70573 0.05978 0.0
C2605 C 0.44398 0.75065 0.04714 0.0
C2606 C 0.44691 0.74328 0.02353 0.0
C2607 C 0.45339 0.71696 0.01808 0.0
C2608 C 0.45694 0.69832 0.03614 0.0
C2609 C 0.44162 0.76316 0.00493 0.0
C2610 C 0.42044 0.75891 0.9895 0.0
C2611 C 0.4548 0.78784 0.00467 0.0
C2612 C 0.47856 0.7927 0.01924 0.0
C2613 C 0.50042 0.77568 0.01776 0.0
C2614 C 0.52303 0.78066 0.03112 0.0
C2615 C 0.524 0.80257 0.04604 0.0
C2616 C 0.50225 0.81941 0.04778 0.0
C2617 C 0.47966 0.81463 0.03436 0.0
H2618 H 0.54164 0.80653 0.05612 0.0
H2619 H 0.32673 0.76153 0.92038 0.0
H2620 H 0.7556 0.43867 0.08901 0.0
H2621 H 0.72066 0.43152 0.06048 0.0
H2622 H 0.77185 0.45848 0.0048 0.0
H2623 H 0.80749 0.46581 0.03366 0.0
H2624 H 0.7179 0.47541 1.00027 0.0
H2625 H 0.76562 0.39354 0.01242 0.0
H2626 H 0.78565 0.3593 0.03758 0.0
H2627 H 0.71015 0.34332 0.06888 0.0
H2628 H 0.68965 0.37747 0.04389 0.0
H2629 H 0.64903 0.41373 0.90652 0.0
H2630 H 0.6799 0.43121 0.93539 0.0
H2631 H 0.6367 0.39235 0.99097 0.0
H2632 H 0.60593 0.37411 0.96189 0.0
H2633 H 0.68666 0.38256 0.99582 0.0
H2634 H 0.63778 0.46156 0.98468 0.0
H2635 H 0.61595 0.49756 0.96295 0.0
H2636 H 0.69038 0.52085 0.93324 0.0
H2637 H 0.71262 0.48477 0.95458 0.0
C2638 C 0.75949 0.4434 0.07073 0.0
C2639 C 0.78453 0.45236 0.06352 0.0
C2640 C 0.73938 0.43934 0.05444 0.0
C2641 C 0.74376 0.44396 0.03046 0.0
C2642 C 0.76814 0.45461 0.02325 0.0
C2643 C 0.78845 0.45881 0.03971 0.0
C2644 C 0.7233 0.43586 0.01312 0.0
C2645 C 0.71138 0.45506 0.9989 0.0
C2646 C 0.71406 0.40945 0.01207 0.0
C2647 C 0.72616 0.3882 0.02642 0.0
C2648 C 0.75331 0.38276 0.02471 0.0
C2649 C 0.76475 0.3634 0.03896 0.0
C2650 C 0.74922 0.34936 0.05499 0.0
C2651 C 0.72216 0.35436 0.05656 0.0
C2652 C 0.71061 0.37361 0.04228 0.0
C2653 C 0.64576 0.40922 0.92493 0.0
C2654 C 0.62493 0.39251 0.93186 0.0
C2655 C 0.66343 0.4194 0.94149 0.0
C2656 C 0.66061 0.41338 0.96548 0.0
C2657 C 0.6393 0.39737 0.97259 0.0
C2658 C 0.62158 0.3871 0.95596 0.0
C2659 C 0.68107 0.42213 0.98272 0.0
C2660 C 0.69312 0.40297 0.99697 0.0
C2661 C 0.6901 0.44864 0.98401 0.0
C2662 C 0.67681 0.47027 0.97103 0.0
C2663 C 0.64945 0.47419 0.97333 0.0
C2664 C 0.63702 0.49466 0.96113 0.0
C2665 C 0.65175 0.51143 0.94667 0.0
C2666 C 0.67898 0.50782 0.94442 0.0
C2667 C 0.69152 0.48739 0.95659 0.0
H2668 H 0.64209 0.52727 0.93724 0.0
H2669 H 0.75808 0.33444 0.06606 0.0
H2670 H 0.05636 0.76151 0.06951 0.0
H2671 H 0.07417 0.73487 0.03771 0.0
H2672 H 0.05652 0.79677 0.98816 0.0
H2673 H 0.03972 0.82466 0.02058 0.0
H2674 H 0.03895 0.73772 0.97879 0.0
H2675 H 0.11191 0.79393 0.9938 0.0
H2676 H 0.14659 0.81779 0.01539 0.0
H2677 H 0.17974 0.74438 0.03846 0.0
H2678 H 0.14455 0.71991 0.0179 0.0
H2679 H 0.10786 0.66691 0.88859 0.0
H2680 H 0.09017 0.7013 0.91422 0.0
H2681 H 0.12365 0.66217 0.9746 0.0
H2682 H 0.14165 0.62762 0.94896 0.0
H2683 H 0.13409 0.7151 0.97464 0.0
H2684 H 0.05784 0.6596 0.96403 0.0
H2685 H 0.02434 0.63525 0.94121 0.0
H2686 H 0.99905 0.70755 0.90887 0.0
H2687 H 0.03266 0.7323 0.93128 0.0
C2688 C 0.05654 0.76981 0.05194 0.0
C2689 C 0.04728 0.79558 0.04772 0.0
C2690 C 0.06671 0.75443 0.03377 0.0
C2691 C 0.06713 0.76402 0.01071 0.0
C2692 C 0.05669 0.78921 0.00599 0.0
C2693 C 0.04702 0.80504 0.02444 0.0
C2694 C 0.07776 0.7468 0.99185 0.0
C2695 C 0.05983 0.73321 0.97745 0.0
C2696 C 0.10494 0.74039 0.99073 0.0
C2697 C 0.12514 0.75504 0.00459 0.0
C2698 C 0.12607 0.78281 0.00404 0.0
C2699 C 0.14586 0.79648 0.01613 0.0
C2700 C 0.16505 0.78264 0.0287 0.0
C2701 C 0.16456 0.75508 0.02909 0.0
C2702 C 0.14464 0.74129 0.01726 0.0
C2703 C 0.11133 0.66544 0.90734 0.0
C2704 C 0.12616 0.64444 0.91672 0.0
C2705 C 0.10112 0.68514 0.92199 0.0
C2706 C 0.10545 0.6843 0.94636 0.0
C2707 C 0.12007 0.66325 0.95583 0.0
C2708 C 0.13022 0.64343 0.94118 0.0
C2709 C 0.09525 0.70568 0.96189 0.0
C2710 C 0.11326 0.71987 0.97577 0.0
C2711 C 0.06817 0.7126 0.96261 0.0
C2712 C 0.04797 0.69776 0.94913 0.0
C2713 C 0.04529 0.67028 0.95189 0.0
C2714 C 0.02625 0.65641 0.93907 0.0
C2715 C 0.00963 0.66983 0.92354 0.0
C2716 C 0.01197 0.69717 0.92087 0.0
C2717 C 0.031 0.71113 0.93364 0.0
H2718 H 0.99489 0.65906 0.91363 0.0
H2719 H 0.18047 0.79326 0.0379 0.0
loop_
_geom_bond_atom_site_label_1
_geom_bond_atom_site_label_2
_geom_bond_distance
_geom_bond_site_symmetry_2
_ccdc_geom_bond_type
Zn0 O6 1.969 . S
Zn0 O7 1.965 . S
Zn0 O11 2.024 . S
Zn0 O16 1.969 . S
Zn1 O8 1.969 . S
Zn1 O14 1.969 . S
Zn1 O15 1.965 . S
Zn1 O17 2.024 . S
C2 O3 1.229 . S
C2 O11 1.058 . S
O3 C2 1.229 . S
C4 O5 1.229 . S
C4 O17 1.058 . S
O5 C4 1.229 . S
O6 Zn0 1.969 . S
O6 C9 1.267 . S
O7 Zn0 1.965 . S
O7 C18 1.260 . S
O8 Zn1 1.969 . S
O8 C18 1.258 . S
C9 O6 1.267 . S
C9 O10 1.228 . S
O10 C9 1.228 . S
O11 Zn0 2.024 . S
O11 C2 1.058 . S
C12 O13 1.228 . S
C12 O14 1.267 . S
O13 C12 1.228 . S
O14 Zn1 1.969 . S
O14 C12 1.267 . S
O15 Zn1 1.965 . S
O15 C19 1.260 . S
O16 Zn0 1.969 . S
O16 C19 1.258 . S
O17 Zn1 2.024 . S
O17 C4 1.058 . S
C18 O7 1.260 . S
C18 O8 1.258 . S
C19 O15 1.260 . S
C19 O16 1.258 . S
Zn20 O26 1.969 . S
Zn20 O27 1.965 . S
Zn20 O31 2.024 . S
Zn20 O36 1.969 . S
Zn21 O28 1.969 . S
Zn21 O34 1.969 . S
Zn21 O35 1.965 . S
Zn21 O37 2.024 . S
C22 O23 1.229 . S
C22 O31 1.058 . S
O23 C22 1.229 . S
C24 O25 1.229 . S
C24 O37 1.058 . S
O25 C24 1.229 . S
O26 Zn20 1.969 . S
O26 C29 1.267 . S
O27 Zn20 1.965 . S
O27 C38 1.260 . S
O28 Zn21 1.969 . S
O28 C38 1.258 . S
C29 O26 1.267 . S
C29 O30 1.228 . S
O30 C29 1.228 . S
O31 Zn20 2.024 . S
O31 C22 1.058 . S
C32 O33 1.228 . S
C32 O34 1.267 . S
O33 C32 1.228 . S
O34 Zn21 1.969 . S
O34 C32 1.267 . S
O35 Zn21 1.965 . S
O35 C39 1.260 . S
O36 Zn20 1.969 . S
O36 C39 1.258 . S
O37 Zn21 2.024 . S
O37 C24 1.058 . S
C38 O27 1.260 . S
C38 O28 1.258 . S
C39 O35 1.260 . S
C39 O36 1.258 . S
Zn40 O46 1.969 1_655 S
Zn40 O47 1.965 . S
Zn40 O51 2.024 . S
Zn40 O56 1.969 . S
Zn41 O48 1.969 . S
Zn41 O54 1.969 . S
Zn41 O55 1.965 . S
Zn41 O57 2.024 . S
C42 O43 1.229 . S
C42 O51 1.058 1_455 S
O43 C42 1.229 . S
C44 O45 1.229 . S
C44 O57 1.058 . S
O45 C44 1.229 . S
O46 Zn40 1.969 1_455 S
O46 C49 1.267 . S
O47 Zn40 1.965 . S
O47 C58 1.260 . S
O48 Zn41 1.969 . S
O48 C58 1.258 . S
C49 O46 1.267 . S
C49 O50 1.228 . S
O50 C49 1.228 . S
O51 Zn40 2.024 . S
O51 C42 1.058 1_655 S
C52 O53 1.228 . S
C52 O54 1.267 . S
O53 C52 1.228 . S
O54 Zn41 1.969 . S
O54 C52 1.267 . S
O55 Zn41 1.965 . S
O55 C59 1.260 . S
O56 Zn40 1.969 . S
O56 C59 1.258 . S
O57 Zn41 2.024 . S
O57 C44 1.058 . S
C58 O47 1.260 . S
C58 O48 1.258 . S
C59 O55 1.260 . S
C59 O56 1.258 . S
Zn60 O66 1.969 1_565 S
Zn60 O67 1.965 . S
Zn60 O71 2.024 . S
Zn60 O76 1.969 . S
Zn61 O68 1.969 . S
Zn61 O74 1.969 . S
Zn61 O75 1.965 . S
Zn61 O77 2.024 . S
C62 O63 1.229 . S
C62 O71 1.058 1_545 S
O63 C62 1.229 . S
C64 O65 1.229 . S
C64 O77 1.058 . S
O65 C64 1.229 . S
O66 Zn60 1.969 1_545 S
O66 C69 1.267 . S
O67 Zn60 1.965 . S
O67 C78 1.260 . S
O68 Zn61 1.969 . S
O68 C78 1.258 . S
C69 O66 1.267 . S
C69 O70 1.228 . S
O70 C69 1.228 . S
O71 Zn60 2.024 . S
O71 C62 1.058 1_565 S
C72 O73 1.228 . S
C72 O74 1.267 . S
O73 C72 1.228 . S
O74 Zn61 1.969 . S
O74 C72 1.267 . S
O75 Zn61 1.965 . S
O75 C79 1.260 . S
O76 Zn60 1.969 . S
O76 C79 1.258 . S
O77 Zn61 2.024 . S
O77 C64 1.058 . S
C78 O67 1.260 . S
C78 O68 1.258 . S
C79 O75 1.260 . S
C79 O76 1.258 . S
Zn80 O86 1.969 1_455 S
Zn80 O87 1.965 . S
Zn80 O91 2.024 . S
Zn80 O96 1.969 . S
Zn81 O88 1.969 . S
Zn81 O94 1.969 . S
Zn81 O95 1.965 . S
Zn81 O97 2.024 . S
C82 O83 1.229 . S
C82 O91 1.058 1_655 S
O83 C82 1.229 . S
C84 O85 1.229 . S
C84 O97 1.058 . S
O85 C84 1.229 . S
O86 Zn80 1.969 1_655 S
O86 C89 1.267 . S
O87 Zn80 1.965 . S
O87 C98 1.260 . S
O88 Zn81 1.969 . S
O88 C98 1.258 . S
C89 O86 1.267 . S
C89 O90 1.228 . S
O90 C89 1.228 . S
O91 Zn80 2.024 . S
O91 C82 1.058 1_455 S
C92 O93 1.228 . S
C92 O94 1.267 . S
O93 C92 1.228 . S
O94 Zn81 1.969 . S
O94 C92 1.267 . S
O95 Zn81 1.965 . S
O95 C99 1.260 . S
O96 Zn80 1.969 . S
O96 C99 1.258 . S
O97 Zn81 2.024 . S
O97 C84 1.058 . S
C98 O87 1.260 . S
C98 O88 1.258 . S
C99 O95 1.260 . S
C99 O96 1.258 . S
Zn100 O106 1.969 1_545 S
Zn100 O107 1.965 . S
Zn100 O111 2.024 . S
Zn100 O116 1.969 . S
Zn101 O108 1.969 . S
Zn101 O114 1.969 . S
Zn101 O115 1.965 . S
Zn101 O117 2.024 . S
C102 O103 1.229 . S
C102 O111 1.058 1_565 S
O103 C102 1.229 . S
C104 O105 1.229 . S
C104 O117 1.058 . S
O105 C104 1.229 . S
O106 Zn100 1.969 1_565 S
O106 C109 1.267 . S
O107 Zn100 1.965 . S
O107 C118 1.260 . S
O108 Zn101 1.969 . S
O108 C118 1.258 . S
C109 O106 1.267 . S
C109 O110 1.228 . S
O110 C109 1.228 . S
O111 Zn100 2.024 . S
O111 C102 1.058 1_545 S
C112 O113 1.228 . S
C112 O114 1.267 . S
O113 C112 1.228 . S
O114 Zn101 1.969 . S
O114 C112 1.267 . S
O115 Zn101 1.965 . S
O115 C119 1.260 . S
O116 Zn100 1.969 . S
O116 C119 1.258 . S
O117 Zn101 2.024 . S
O117 C104 1.058 . S
C118 O107 1.260 . S
C118 O108 1.258 . S
C119 O115 1.260 . S
C119 O116 1.258 . S
Zn120 O126 1.969 . S
Zn120 O127 1.965 . S
Zn120 O131 2.024 . S
Zn120 O136 1.969 . S
Zn121 O128 1.969 . S
Zn121 O134 1.969 . S
Zn121 O135 1.965 . S
Zn121 O137 2.024 . S
C122 O123 1.229 . S
C122 O131 1.058 . S
O123 C122 1.229 . S
C124 O125 1.229 . S
C124 O137 1.058 . S
O125 C124 1.229 . S
O126 Zn120 1.969 . S
O126 C129 1.267 . S
O127 Zn120 1.965 . S
O127 C138 1.260 . S
O128 Zn121 1.969 . S
O128 C138 1.258 . S
C129 O126 1.267 . S
C129 O130 1.228 . S
O130 C129 1.228 . S
O131 Zn120 2.024 . S
O131 C122 1.058 . S
C132 O133 1.228 . S
C132 O134 1.267 . S
O133 C132 1.228 . S
O134 Zn121 1.969 . S
O134 C132 1.267 . S
O135 Zn121 1.965 . S
O135 C139 1.260 . S
O136 Zn120 1.969 . S
O136 C139 1.258 . S
O137 Zn121 2.024 . S
O137 C124 1.058 . S
C138 O127 1.260 . S
C138 O128 1.258 . S
C139 O135 1.260 . S
C139 O136 1.258 . S
Zn140 O146 1.969 . S
Zn140 O147 1.965 . S
Zn140 O151 2.024 . S
Zn140 O156 1.969 . S
Zn141 O148 1.969 . S
Zn141 O154 1.969 . S
Zn141 O155 1.965 . S
Zn141 O157 2.024 . S
C142 O143 1.229 . S
C142 O151 1.058 . S
O143 C142 1.229 . S
C144 O145 1.229 . S
C144 O157 1.058 . S
O145 C144 1.229 . S
O146 Zn140 1.969 . S
O146 C149 1.267 . S
O147 Zn140 1.965 . S
O147 C158 1.260 . S
O148 Zn141 1.969 . S
O148 C158 1.258 . S
C149 O146 1.267 . S
C149 O150 1.228 . S
O150 C149 1.228 . S
O151 Zn140 2.024 . S
O151 C142 1.058 . S
C152 O153 1.228 . S
C152 O154 1.267 . S
O153 C152 1.228 . S
O154 Zn141 1.969 . S
O154 C152 1.267 . S
O155 Zn141 1.965 . S
O155 C159 1.260 . S
O156 Zn140 1.969 . S
O156 C159 1.258 . S
O157 Zn141 2.024 . S
O157 C144 1.058 . S
C158 O147 1.260 . S
C158 O148 1.258 . S
C159 O155 1.260 . S
C159 O156 1.258 . S
Zn160 O166 1.969 . S
Zn160 O167 1.965 . S
Zn160 O171 2.024 . S
Zn160 O176 1.969 . S
Zn161 O168 1.969 . S
Zn161 O174 1.969 . S
Zn161 O175 1.965 . S
Zn161 O177 2.024 . S
C162 O163 1.229 . S
C162 O171 1.058 . S
O163 C162 1.229 . S
C164 O165 1.229 . S
C164 O177 1.058 . S
O165 C164 1.229 . S
O166 Zn160 1.969 . S
O166 C169 1.267 . S
O167 Zn160 1.965 . S
O167 C178 1.260 . S
O168 Zn161 1.969 . S
O168 C178 1.258 . S
C169 O166 1.267 . S
C169 O170 1.228 . S
O170 C169 1.228 . S
O171 Zn160 2.024 . S
O171 C162 1.058 . S
C172 O173 1.228 . S
C172 O174 1.267 . S
O173 C172 1.228 . S
O174 Zn161 1.969 . S
O174 C172 1.267 . S
O175 Zn161 1.965 . S
O175 C179 1.260 . S
O176 Zn160 1.969 . S
O176 C179 1.258 . S
O177 Zn161 2.024 . S
O177 C164 1.058 . S
C178 O167 1.260 . S
C178 O168 1.258 . S
C179 O175 1.260 . S
C179 O176 1.258 . S
Zn180 O186 1.969 . S
Zn180 O187 1.965 . S
Zn180 O191 2.024 . S
Zn180 O196 1.969 . S
Zn181 O188 1.969 . S
Zn181 O194 1.969 . S
Zn181 O195 1.965 . S
Zn181 O197 2.024 . S
C182 O183 1.229 . S
C182 O191 1.058 . S
O183 C182 1.229 . S
C184 O185 1.229 . S
C184 O197 1.058 . S
O185 C184 1.229 . S
O186 Zn180 1.969 . S
O186 C189 1.267 . S
O187 Zn180 1.965 . S
O187 C198 1.260 . S
O188 Zn181 1.969 . S
O188 C198 1.258 . S
C189 O186 1.267 . S
C189 O190 1.228 . S
O190 C189 1.228 . S
O191 Zn180 2.024 . S
O191 C182 1.058 . S
C192 O193 1.228 . S
C192 O194 1.267 . S
O193 C192 1.228 . S
O194 Zn181 1.969 . S
O194 C192 1.267 . S
O195 Zn181 1.965 . S
O195 C199 1.260 . S
O196 Zn180 1.969 . S
O196 C199 1.258 . S
O197 Zn181 2.024 . S
O197 C184 1.058 . S
C198 O187 1.260 . S
C198 O188 1.258 . S
C199 O195 1.260 . S
C199 O196 1.258 . S
Zn200 O206 1.969 . S
Zn200 O207 1.965 . S
Zn200 O211 2.024 . S
Zn200 O216 1.969 . S
Zn201 O208 1.969 . S
Zn201 O214 1.969 1_455 S
Zn201 O215 1.965 . S
Zn201 O217 2.024 . S
C202 O203 1.229 . S
C202 O211 1.058 . S
O203 C202 1.229 . S
C204 O205 1.229 . S
C204 O217 1.058 1_655 S
O205 C204 1.229 . S
O206 Zn200 1.969 . S
O206 C209 1.267 . S
O207 Zn200 1.965 . S
O207 C218 1.260 . S
O208 Zn201 1.969 . S
O208 C218 1.258 . S
C209 O206 1.267 . S
C209 O210 1.228 . S
O210 C209 1.228 . S
O211 Zn200 2.024 . S
O211 C202 1.058 . S
C212 O213 1.228 . S
C212 O214 1.267 . S
O213 C212 1.228 . S
O214 Zn201 1.969 1_655 S
O214 C212 1.267 . S
O215 Zn201 1.965 . S
O215 C219 1.260 . S
O216 Zn200 1.969 . S
O216 C219 1.258 . S
O217 Zn201 2.024 . S
O217 C204 1.058 1_455 S
C218 O207 1.260 . S
C218 O208 1.258 . S
C219 O215 1.260 . S
C219 O216 1.258 . S
Zn220 O226 1.969 . S
Zn220 O227 1.965 . S
Zn220 O231 2.024 . S
Zn220 O236 1.969 . S
Zn221 O228 1.969 . S
Zn221 O234 1.969 1_545 S
Zn221 O235 1.965 . S
Zn221 O237 2.024 . S
C222 O223 1.229 . S
C222 O231 1.058 . S
O223 C222 1.229 . S
C224 O225 1.229 . S
C224 O237 1.058 1_565 S
O225 C224 1.229 . S
O226 Zn220 1.969 . S
O226 C229 1.267 . S
O227 Zn220 1.965 . S
O227 C238 1.260 . S
O228 Zn221 1.969 . S
O228 C238 1.258 . S
C229 O226 1.267 . S
C229 O230 1.228 . S
O230 C229 1.228 . S
O231 Zn220 2.024 . S
O231 C222 1.058 . S
C232 O233 1.228 . S
C232 O234 1.267 . S
O233 C232 1.228 . S
O234 Zn221 1.969 1_565 S
O234 C232 1.267 . S
O235 Zn221 1.965 . S
O235 C239 1.260 . S
O236 Zn220 1.969 . S
O236 C239 1.258 . S
O237 Zn221 2.024 . S
O237 C224 1.058 1_545 S
C238 O227 1.260 . S
C238 O228 1.258 . S
C239 O235 1.260 . S
C239 O236 1.258 . S
Zn240 O246 1.969 . S
Zn240 O247 1.965 . S
Zn240 O251 2.024 . S
Zn240 O256 1.969 . S
Zn241 O248 1.969 . S
Zn241 O254 1.969 1_655 S
Zn241 O255 1.965 . S
Zn241 O257 2.024 . S
C242 O243 1.229 . S
C242 O251 1.058 . S
O243 C242 1.229 . S
C244 O245 1.229 . S
C244 O257 1.058 1_455 S
O245 C244 1.229 . S
O246 Zn240 1.969 . S
O246 C249 1.267 . S
O247 Zn240 1.965 . S
O247 C258 1.260 . S
O248 Zn241 1.969 . S
O248 C258 1.258 . S
C249 O246 1.267 . S
C249 O250 1.228 . S
O250 C249 1.228 . S
O251 Zn240 2.024 . S
O251 C242 1.058 . S
C252 O253 1.228 . S
C252 O254 1.267 . S
O253 C252 1.228 . S
O254 Zn241 1.969 1_455 S
O254 C252 1.267 . S
O255 Zn241 1.965 . S
O255 C259 1.260 . S
O256 Zn240 1.969 . S
O256 C259 1.258 . S
O257 Zn241 2.024 . S
O257 C244 1.058 1_655 S
C258 O247 1.260 . S
C258 O248 1.258 . S
C259 O255 1.260 . S
C259 O256 1.258 . S
Zn260 O266 1.969 . S
Zn260 O267 1.965 . S
Zn260 O271 2.024 . S
Zn260 O276 1.969 . S
Zn261 O268 1.969 . S
Zn261 O274 1.969 1_565 S
Zn261 O275 1.965 . S
Zn261 O277 2.024 . S
C262 O263 1.229 . S
C262 O271 1.058 . S
O263 C262 1.229 . S
C264 O265 1.229 . S
C264 O277 1.058 1_545 S
O265 C264 1.229 . S
O266 Zn260 1.969 . S
O266 C269 1.267 . S
O267 Zn260 1.965 . S
O267 C278 1.260 . S
O268 Zn261 1.969 . S
O268 C278 1.258 . S
C269 O266 1.267 . S
C269 O270 1.228 . S
O270 C269 1.228 . S
O271 Zn260 2.024 . S
O271 C262 1.058 . S
C272 O273 1.228 . S
C272 O274 1.267 . S
O273 C272 1.228 . S
O274 Zn261 1.969 1_545 S
O274 C272 1.267 . S
O275 Zn261 1.965 . S
O275 C279 1.260 . S
O276 Zn260 1.969 . S
O276 C279 1.258 . S
O277 Zn261 2.024 . S
O277 C264 1.058 1_565 S
C278 O267 1.260 . S
C278 O268 1.258 . S
C279 O275 1.260 . S
C279 O276 1.258 . S
Zn280 O286 1.969 . S
Zn280 O287 1.965 . S
Zn280 O291 2.024 . S
Zn280 O296 1.969 . S
Zn281 O288 1.969 . S
Zn281 O294 1.969 . S
Zn281 O295 1.965 . S
Zn281 O297 2.024 . S
C282 O283 1.229 . S
C282 O291 1.058 . S
O283 C282 1.229 . S
C284 O285 1.229 . S
C284 O297 1.058 . S
O285 C284 1.229 . S
O286 Zn280 1.969 . S
O286 C289 1.267 . S
O287 Zn280 1.965 . S
O287 C298 1.260 . S
O288 Zn281 1.969 . S
O288 C298 1.258 . S
C289 O286 1.267 . S
C289 O290 1.228 . S
O290 C289 1.228 . S
O291 Zn280 2.024 . S
O291 C282 1.058 . S
C292 O293 1.228 . S
C292 O294 1.267 . S
O293 C292 1.228 . S
O294 Zn281 1.969 . S
O294 C292 1.267 . S
O295 Zn281 1.965 . S
O295 C299 1.260 . S
O296 Zn280 1.969 . S
O296 C299 1.258 . S
O297 Zn281 2.024 . S
O297 C284 1.058 . S
C298 O287 1.260 . S
C298 O288 1.258 . S
C299 O295 1.260 . S
C299 O296 1.258 . S
Zn300 O306 1.969 . S
Zn300 O307 1.965 . S
Zn300 O311 2.024 . S
Zn300 O316 1.969 . S
Zn301 O308 1.969 . S
Zn301 O314 1.969 . S
Zn301 O315 1.965 . S
Zn301 O317 2.024 . S
C302 O303 1.229 . S
C302 O311 1.058 . S
O303 C302 1.229 . S
C304 O305 1.229 . S
C304 O317 1.058 . S
O305 C304 1.229 . S
O306 Zn300 1.969 . S
O306 C309 1.267 . S
O307 Zn300 1.965 . S
O307 C318 1.260 . S
O308 Zn301 1.969 . S
O308 C318 1.258 . S
C309 O306 1.267 . S
C309 O310 1.228 . S
O310 C309 1.228 . S
O311 Zn300 2.024 . S
O311 C302 1.058 . S
C312 O313 1.228 . S
C312 O314 1.267 . S
O313 C312 1.228 . S
O314 Zn301 1.969 . S
O314 C312 1.267 . S
O315 Zn301 1.965 . S
O315 C319 1.260 . S
O316 Zn300 1.969 . S
O316 C319 1.258 . S
O317 Zn301 2.024 . S
O317 C304 1.058 . S
C318 O307 1.260 . S
C318 O308 1.258 . S
C319 O315 1.260 . S
C319 O316 1.258 . S
H320 C338 0.951 . S
H321 C340 0.951 . S
H322 C342 0.950 . S
H323 C343 0.950 . S
H324 C345 0.950 . S
H325 C348 0.950 . S
H326 C349 0.950 . S
H327 C351 0.950 . S
H328 C352 0.950 . S
H329 C353 0.951 . S
H330 C355 0.951 . S
H331 C357 0.950 . S
H332 C358 0.950 . S
H333 C360 0.950 . S
H334 C363 0.950 . S
H335 C364 0.950 . S
H336 C366 0.950 . S
H337 C367 0.950 . S
C338 H320 0.951 . S
C338 C339 1.366 . S
C338 C340 1.388 . S
C339 C338 1.366 . S
C339 C343 1.385 . S
C340 H321 0.951 . S
C340 C338 1.388 . S
C340 C341 1.366 . S
C341 C340 1.366 . S
C341 C342 1.414 . S
C341 C344 1.499 . S
C342 H322 0.950 . S
C342 C341 1.414 . S
C342 C343 1.374 . S
C343 H323 0.950 . S
C343 C339 1.385 . S
C343 C342 1.374 . S
C344 C341 1.499 . S
C344 C345 1.373 . S
C344 C346 1.389 . S
C345 H324 0.950 . S
C345 C344 1.373 . S
C345 C361 1.377 . S
C346 C344 1.389 . S
C346 C347 1.524 . S
C346 C360 1.377 . S
C347 C346 1.524 . S
C347 C348 1.397 . S
C347 C352 1.363 . S
C348 H325 0.950 . S
C348 C347 1.397 . S
C348 C349 1.334 . S
C349 H326 0.950 . S
C349 C348 1.334 . S
C349 C350 1.287 . S
C350 C349 1.287 . S
C350 C351 1.524 . S
C350 H369 0.913 . S
C351 H327 0.950 . S
C351 C350 1.524 . S
C351 C352 1.415 . S
C352 H328 0.950 . S
C352 C347 1.363 . S
C352 C351 1.415 . S
C353 H329 0.951 . S
C353 C354 1.366 . S
C353 C355 1.388 . S
C354 C353 1.366 . S
C354 C358 1.385 . S
C355 H330 0.951 . S
C355 C353 1.388 . S
C355 C356 1.366 . S
C356 C355 1.366 . S
C356 C357 1.414 . S
C356 C359 1.499 . S
C357 H331 0.950 . S
C357 C356 1.414 . S
C357 C358 1.374 . S
C358 H332 0.950 . S
C358 C354 1.385 . S
C358 C357 1.374 . S
C359 C356 1.499 . S
C359 C360 1.373 . S
C359 C361 1.389 . S
C360 H333 0.950 . S
C360 C346 1.377 . S
C360 C359 1.373 . S
C361 C345 1.377 . S
C361 C359 1.389 . S
C361 C362 1.524 . S
C362 C361 1.524 . S
C362 C363 1.397 . S
C362 C367 1.363 . S
C363 H334 0.950 . S
C363 C362 1.397 . S
C363 C364 1.334 . S
C364 H335 0.950 . S
C364 C363 1.334 . S
C364 C365 1.287 . S
C365 C364 1.287 . S
C365 C366 1.524 . S
C365 H368 0.999 . S
C366 H336 0.950 . S
C366 C365 1.524 . S
C366 C367 1.415 . S
C367 H337 0.950 . S
C367 C362 1.363 . S
C367 C366 1.415 . S
H368 C365 0.999 . S
H369 C350 0.913 . S
H370 C388 0.951 . S
H371 C390 0.951 . S
H372 C392 0.950 . S
H373 C393 0.950 . S
H374 C395 0.950 . S
H375 C398 0.950 . S
H376 C399 0.950 . S
H377 C401 0.950 . S
H378 C402 0.950 . S
H379 C403 0.951 . S
H380 C405 0.951 . S
H381 C407 0.950 . S
H382 C408 0.950 . S
H383 C410 0.950 . S
H384 C413 0.950 . S
H385 C414 0.950 . S
H386 C416 0.950 . S
H387 C417 0.950 . S
C388 H370 0.951 . S
C388 C389 1.366 . S
C388 C390 1.388 . S
C389 C388 1.366 . S
C389 C393 1.385 . S
C390 H371 0.951 . S
C390 C388 1.388 . S
C390 C391 1.366 . S
C391 C390 1.366 . S
C391 C392 1.414 . S
C391 C394 1.499 . S
C392 H372 0.950 . S
C392 C391 1.414 . S
C392 C393 1.374 . S
C393 H373 0.950 . S
C393 C389 1.385 . S
C393 C392 1.374 . S
C394 C391 1.499 . S
C394 C395 1.373 . S
C394 C396 1.389 . S
C395 H374 0.950 . S
C395 C394 1.373 . S
C395 C411 1.377 . S
C396 C394 1.389 . S
C396 C397 1.524 . S
C396 C410 1.377 . S
C397 C396 1.524 . S
C397 C398 1.397 . S
C397 C402 1.363 . S
C398 H375 0.950 . S
C398 C397 1.397 . S
C398 C399 1.334 . S
C399 H376 0.950 . S
C399 C398 1.334 . S
C399 C400 1.287 . S
C400 C399 1.287 . S
C400 C401 1.524 . S
C400 H419 0.913 . S
C401 H377 0.950 . S
C401 C400 1.524 . S
C401 C402 1.415 . S
C402 H378 0.950 . S
C402 C397 1.363 . S
C402 C401 1.415 . S
C403 H379 0.951 . S
C403 C404 1.366 . S
C403 C405 1.388 . S
C404 C403 1.366 . S
C404 C408 1.385 . S
C405 H380 0.951 . S
C405 C403 1.388 . S
C405 C406 1.366 . S
C406 C405 1.366 . S
C406 C407 1.414 . S
C406 C409 1.499 . S
C407 H381 0.950 . S
C407 C406 1.414 . S
C407 C408 1.374 . S
C408 H382 0.950 . S
C408 C404 1.385 . S
C408 C407 1.374 . S
C409 C406 1.499 . S
C409 C410 1.373 . S
C409 C411 1.389 . S
C410 H383 0.950 . S
C410 C396 1.377 . S
C410 C409 1.373 . S
C411 C395 1.377 . S
C411 C409 1.389 . S
C411 C412 1.524 . S
C412 C411 1.524 . S
C412 C413 1.397 . S
C412 C417 1.363 . S
C413 H384 0.950 . S
C413 C412 1.397 . S
C413 C414 1.334 . S
C414 H385 0.950 . S
C414 C413 1.334 . S
C414 C415 1.287 . S
C415 C414 1.287 . S
C415 C416 1.524 . S
C415 H418 0.999 . S
C416 H386 0.950 . S
C416 C415 1.524 . S
C416 C417 1.415 . S
C417 H387 0.950 . S
C417 C412 1.363 . S
C417 C416 1.415 . S
H418 C415 0.999 . S
H419 C400 0.913 . S
H420 C438 0.951 . S
H421 C440 0.951 . S
H422 C442 0.950 . S
H423 C443 0.950 . S
H424 C445 0.950 . S
H425 C448 0.950 . S
H426 C449 0.950 . S
H427 C451 0.950 . S
H428 C452 0.950 . S
H429 C453 0.951 . S
H430 C455 0.951 . S
H431 C457 0.950 . S
H432 C458 0.950 . S
H433 C460 0.950 . S
H434 C463 0.950 . S
H435 C464 0.950 . S
H436 C466 0.950 . S
H437 C467 0.950 . S
C438 H420 0.951 . S
C438 C439 1.366 . S
C438 C440 1.388 . S
C439 C438 1.366 . S
C439 C443 1.385 . S
C440 H421 0.951 . S
C440 C438 1.388 . S
C440 C441 1.366 . S
C441 C440 1.366 . S
C441 C442 1.414 . S
C441 C444 1.499 . S
C442 H422 0.950 . S
C442 C441 1.414 . S
C442 C443 1.374 . S
C443 H423 0.950 . S
C443 C439 1.385 . S
C443 C442 1.374 . S
C444 C441 1.499 . S
C444 C445 1.373 . S
C444 C446 1.389 . S
C445 H424 0.950 . S
C445 C444 1.373 . S
C445 C461 1.377 . S
C446 C444 1.389 . S
C446 C447 1.524 . S
C446 C460 1.377 . S
C447 C446 1.524 . S
C447 C448 1.397 . S
C447 C452 1.363 . S
C448 H425 0.950 . S
C448 C447 1.397 . S
C448 C449 1.334 . S
C449 H426 0.950 . S
C449 C448 1.334 . S
C449 C450 1.287 . S
C450 C449 1.287 . S
C450 C451 1.524 . S
C450 H469 0.913 . S
C451 H427 0.950 . S
C451 C450 1.524 . S
C451 C452 1.415 . S
C452 H428 0.950 . S
C452 C447 1.363 . S
C452 C451 1.415 . S
C453 H429 0.951 . S
C453 C454 1.366 . S
C453 C455 1.388 . S
C454 C453 1.366 . S
C454 C458 1.385 . S
C455 H430 0.951 . S
C455 C453 1.388 . S
C455 C456 1.366 . S
C456 C455 1.366 . S
C456 C457 1.414 . S
C456 C459 1.499 . S
C457 H431 0.950 . S
C457 C456 1.414 . S
C457 C458 1.374 . S
C458 H432 0.950 . S
C458 C454 1.385 . S
C458 C457 1.374 . S
C459 C456 1.499 . S
C459 C460 1.373 . S
C459 C461 1.389 . S
C460 H433 0.950 . S
C460 C446 1.377 . S
C460 C459 1.373 . S
C461 C445 1.377 . S
C461 C459 1.389 . S
C461 C462 1.524 . S
C462 C461 1.524 . S
C462 C463 1.397 . S
C462 C467 1.363 . S
C463 H434 0.950 . S
C463 C462 1.397 . S
C463 C464 1.334 . S
C464 H435 0.950 . S
C464 C463 1.334 . S
C464 C465 1.287 . S
C465 C464 1.287 . S
C465 C466 1.524 . S
C465 H468 0.999 . S
C466 H436 0.950 . S
C466 C465 1.524 . S
C466 C467 1.415 . S
C467 H437 0.950 . S
C467 C462 1.363 . S
C467 C466 1.415 . S
H468 C465 0.999 . S
H469 C450 0.913 . S
H470 C488 0.951 . S
H471 C490 0.951 . S
H472 C492 0.950 . S
H473 C493 0.950 . S
H474 C495 0.950 . S
H475 C498 0.950 . S
H476 C499 0.950 . S
H477 C501 0.950 . S
H478 C502 0.950 . S
H479 C503 0.951 . S
H480 C505 0.951 . S
H481 C507 0.950 . S
H482 C508 0.950 . S
H483 C510 0.950 . S
H484 C513 0.950 . S
H485 C514 0.950 . S
H486 C516 0.950 . S
H487 C517 0.950 . S
C488 H470 0.951 . S
C488 C489 1.366 . S
C488 C490 1.388 . S
C489 C488 1.366 . S
C489 C493 1.385 . S
C490 H471 0.951 . S
C490 C488 1.388 . S
C490 C491 1.366 . S
C491 C490 1.366 . S
C491 C492 1.414 . S
C491 C494 1.499 . S
C492 H472 0.950 . S
C492 C491 1.414 . S
C492 C493 1.374 . S
C493 H473 0.950 . S
C493 C489 1.385 . S
C493 C492 1.374 . S
C494 C491 1.499 . S
C494 C495 1.373 . S
C494 C496 1.389 . S
C495 H474 0.950 . S
C495 C494 1.373 . S
C495 C511 1.377 . S
C496 C494 1.389 . S
C496 C497 1.524 . S
C496 C510 1.377 . S
C497 C496 1.524 . S
C497 C498 1.397 . S
C497 C502 1.363 . S
C498 H475 0.950 . S
C498 C497 1.397 . S
C498 C499 1.334 . S
C499 H476 0.950 . S
C499 C498 1.334 . S
C499 C500 1.287 . S
C500 C499 1.287 . S
C500 C501 1.524 . S
C500 H519 0.913 . S
C501 H477 0.950 . S
C501 C500 1.524 . S
C501 C502 1.415 . S
C502 H478 0.950 . S
C502 C497 1.363 . S
C502 C501 1.415 . S
C503 H479 0.951 . S
C503 C504 1.366 . S
C503 C505 1.388 . S
C504 C503 1.366 . S
C504 C508 1.385 . S
C505 H480 0.951 . S
C505 C503 1.388 . S
C505 C506 1.366 . S
C506 C505 1.366 . S
C506 C507 1.414 . S
C506 C509 1.499 . S
C507 H481 0.950 . S
C507 C506 1.414 . S
C507 C508 1.374 . S
C508 H482 0.950 . S
C508 C504 1.385 . S
C508 C507 1.374 . S
C509 C506 1.499 . S
C509 C510 1.373 . S
C509 C511 1.389 . S
C510 H483 0.950 . S
C510 C496 1.377 . S
C510 C509 1.373 . S
C511 C495 1.377 . S
C511 C509 1.389 . S
C511 C512 1.524 . S
C512 C511 1.524 . S
C512 C513 1.397 . S
C512 C517 1.363 . S
C513 H484 0.950 . S
C513 C512 1.397 . S
C513 C514 1.334 . S
C514 H485 0.950 . S
C514 C513 1.334 . S
C514 C515 1.287 . S
C515 C514 1.287 . S
C515 C516 1.524 . S
C515 H518 0.999 . S
C516 H486 0.950 . S
C516 C515 1.524 . S
C516 C517 1.415 . S
C517 H487 0.950 . S
C517 C512 1.363 . S
C517 C516 1.415 . S
H518 C515 0.999 . S
H519 C500 0.913 . S
H520 C538 0.951 . S
H521 C540 0.951 . S
H522 C542 0.950 . S
H523 C543 0.950 . S
H524 C545 0.950 . S
H525 C548 0.950 . S
H526 C549 0.950 . S
H527 C551 0.950 . S
H528 C552 0.950 . S
H529 C553 0.951 . S
H530 C555 0.951 . S
H531 C557 0.950 . S
H532 C558 0.950 . S
H533 C560 0.950 . S
H534 C563 0.950 . S
H535 C564 0.950 . S
H536 C566 0.950 . S
H537 C567 0.950 . S
C538 H520 0.951 . S
C538 C539 1.366 . S
C538 C540 1.388 . S
C539 C538 1.366 . S
C539 C543 1.385 . S
C540 H521 0.951 . S
C540 C538 1.388 . S
C540 C541 1.366 . S
C541 C540 1.366 . S
C541 C542 1.414 . S
C541 C544 1.499 . S
C542 H522 0.950 . S
C542 C541 1.414 . S
C542 C543 1.374 . S
C543 H523 0.950 . S
C543 C539 1.385 . S
C543 C542 1.374 . S
C544 C541 1.499 . S
C544 C545 1.373 . S
C544 C546 1.389 . S
C545 H524 0.950 . S
C545 C544 1.373 . S
C545 C561 1.377 . S
C546 C544 1.389 . S
C546 C547 1.524 . S
C546 C560 1.377 . S
C547 C546 1.524 . S
C547 C548 1.397 . S
C547 C552 1.363 . S
C548 H525 0.950 . S
C548 C547 1.397 . S
C548 C549 1.334 . S
C549 H526 0.950 . S
C549 C548 1.334 . S
C549 C550 1.287 . S
C550 C549 1.287 . S
C550 C551 1.524 . S
C550 H569 0.913 . S
C551 H527 0.950 . S
C551 C550 1.524 . S
C551 C552 1.415 . S
C552 H528 0.950 . S
C552 C547 1.363 . S
C552 C551 1.415 . S
C553 H529 0.951 . S
C553 C554 1.366 . S
C553 C555 1.388 . S
C554 C553 1.366 . S
C554 C558 1.385 . S
C555 H530 0.951 . S
C555 C553 1.388 . S
C555 C556 1.366 . S
C556 C555 1.366 . S
C556 C557 1.414 . S
C556 C559 1.499 . S
C557 H531 0.950 . S
C557 C556 1.414 . S
C557 C558 1.374 . S
C558 H532 0.950 . S
C558 C554 1.385 . S
C558 C557 1.374 . S
C559 C556 1.499 . S
C559 C560 1.373 . S
C559 C561 1.389 . S
C560 H533 0.950 . S
C560 C546 1.377 . S
C560 C559 1.373 . S
C561 C545 1.377 . S
C561 C559 1.389 . S
C561 C562 1.524 . S
C562 C561 1.524 . S
C562 C563 1.397 . S
C562 C567 1.363 . S
C563 H534 0.950 . S
C563 C562 1.397 . S
C563 C564 1.334 . S
C564 H535 0.950 . S
C564 C563 1.334 . S
C564 C565 1.287 . S
C565 C564 1.287 . S
C565 C566 1.524 . S
C565 H568 0.999 . S
C566 H536 0.950 . S
C566 C565 1.524 . S
C566 C567 1.415 . S
C567 H537 0.950 . S
C567 C562 1.363 . S
C567 C566 1.415 . S
H568 C565 0.999 . S
H569 C550 0.913 . S
H570 C588 0.951 . S
H571 C590 0.951 . S
H572 C592 0.950 . S
H573 C593 0.950 . S
H574 C595 0.950 . S
H575 C598 0.950 . S
H576 C599 0.950 . S
H577 C601 0.950 . S
H578 C602 0.950 . S
H579 C603 0.951 . S
H580 C605 0.951 . S
H581 C607 0.950 . S
H582 C608 0.950 . S
H583 C610 0.950 . S
H584 C613 0.950 . S
H585 C614 0.950 . S
H586 C616 0.950 . S
H587 C617 0.950 . S
C588 H570 0.951 . S
C588 C589 1.366 . S
C588 C590 1.388 . S
C589 C588 1.366 . S
C589 C593 1.385 . S
C590 H571 0.951 . S
C590 C588 1.388 . S
C590 C591 1.366 . S
C591 C590 1.366 . S
C591 C592 1.414 . S
C591 C594 1.499 . S
C592 H572 0.950 . S
C592 C591 1.414 . S
C592 C593 1.374 . S
C593 H573 0.950 . S
C593 C589 1.385 . S
C593 C592 1.374 . S
C594 C591 1.499 . S
C594 C595 1.373 . S
C594 C596 1.389 . S
C595 H574 0.950 . S
C595 C594 1.373 . S
C595 C611 1.377 . S
C596 C594 1.389 . S
C596 C597 1.524 . S
C596 C610 1.377 . S
C597 C596 1.524 . S
C597 C598 1.397 . S
C597 C602 1.363 . S
C598 H575 0.950 . S
C598 C597 1.397 . S
C598 C599 1.334 . S
C599 H576 0.950 . S
C599 C598 1.334 . S
C599 C600 1.287 . S
C600 C599 1.287 . S
C600 C601 1.524 . S
C600 H619 0.913 . S
C601 H577 0.950 . S
C601 C600 1.524 . S
C601 C602 1.415 . S
C602 H578 0.950 . S
C602 C597 1.363 . S
C602 C601 1.415 . S
C603 H579 0.951 . S
C603 C604 1.366 . S
C603 C605 1.388 . S
C604 C603 1.366 . S
C604 C608 1.385 . S
C605 H580 0.951 . S
C605 C603 1.388 . S
C605 C606 1.366 . S
C606 C605 1.366 . S
C606 C607 1.414 . S
C606 C609 1.499 . S
C607 H581 0.950 . S
C607 C606 1.414 . S
C607 C608 1.374 . S
C608 H582 0.950 . S
C608 C604 1.385 . S
C608 C607 1.374 . S
C609 C606 1.499 . S
C609 C610 1.373 . S
C609 C611 1.389 . S
C610 H583 0.950 . S
C610 C596 1.377 . S
C610 C609 1.373 . S
C611 C595 1.377 . S
C611 C609 1.389 . S
C611 C612 1.524 . S
C612 C611 1.524 . S
C612 C613 1.397 . S
C612 C617 1.363 . S
C613 H584 0.950 . S
C613 C612 1.397 . S
C613 C614 1.334 . S
C614 H585 0.950 . S
C614 C613 1.334 . S
C614 C615 1.287 . S
C615 C614 1.287 . S
C615 C616 1.524 . S
C615 H618 0.999 . S
C616 H586 0.950 . S
C616 C615 1.524 . S
C616 C617 1.415 . S
C617 H587 0.950 . S
C617 C612 1.363 . S
C617 C616 1.415 . S
H618 C615 0.999 . S
H619 C600 0.913 . S
H620 C638 0.951 . S
H621 C640 0.951 . S
H622 C642 0.950 . S
H623 C643 0.950 . S
H624 C645 0.950 . S
H625 C648 0.950 . S
H626 C649 0.950 . S
H627 C651 0.950 . S
H628 C652 0.950 . S
H629 C653 0.951 . S
H630 C655 0.951 . S
H631 C657 0.950 . S
H632 C658 0.950 . S
H633 C660 0.950 . S
H634 C663 0.950 . S
H635 C664 0.950 . S
H636 C666 0.950 . S
H637 C667 0.950 . S
C638 H620 0.951 . S
C638 C639 1.366 . S
C638 C640 1.388 . S
C639 C638 1.366 . S
C639 C643 1.385 . S
C640 H621 0.951 . S
C640 C638 1.388 . S
C640 C641 1.366 . S
C641 C640 1.366 . S
C641 C642 1.414 . S
C641 C644 1.499 . S
C642 H622 0.950 . S
C642 C641 1.414 . S
C642 C643 1.374 . S
C643 H623 0.950 . S
C643 C639 1.385 . S
C643 C642 1.374 . S
C644 C641 1.499 . S
C644 C645 1.373 . S
C644 C646 1.389 . S
C645 H624 0.950 . S
C645 C644 1.373 . S
C645 C661 1.377 . S
C646 C644 1.389 . S
C646 C647 1.524 . S
C646 C660 1.377 . S
C647 C646 1.524 . S
C647 C648 1.397 . S
C647 C652 1.363 . S
C648 H625 0.950 . S
C648 C647 1.397 . S
C648 C649 1.334 . S
C649 H626 0.950 . S
C649 C648 1.334 . S
C649 C650 1.287 . S
C650 C649 1.287 . S
C650 C651 1.524 . S
C650 H669 0.913 . S
C651 H627 0.950 . S
C651 C650 1.524 . S
C651 C652 1.415 . S
C652 H628 0.950 . S
C652 C647 1.363 . S
C652 C651 1.415 . S
C653 H629 0.951 . S
C653 C654 1.366 . S
C653 C655 1.388 . S
C654 C653 1.366 . S
C654 C658 1.385 . S
C655 H630 0.951 . S
C655 C653 1.388 . S
C655 C656 1.366 . S
C656 C655 1.366 . S
C656 C657 1.414 . S
C656 C659 1.499 . S
C657 H631 0.950 . S
C657 C656 1.414 . S
C657 C658 1.374 . S
C658 H632 0.950 . S
C658 C654 1.385 . S
C658 C657 1.374 . S
C659 C656 1.499 . S
C659 C660 1.373 . S
C659 C661 1.389 . S
C660 H633 0.950 . S
C660 C646 1.377 . S
C660 C659 1.373 . S
C661 C645 1.377 . S
C661 C659 1.389 . S
C661 C662 1.524 . S
C662 C661 1.524 . S
C662 C663 1.397 . S
C662 C667 1.363 . S
C663 H634 0.950 . S
C663 C662 1.397 . S
C663 C664 1.334 . S
C664 H635 0.950 . S
C664 C663 1.334 . S
C664 C665 1.287 . S
C665 C664 1.287 . S
C665 C666 1.524 . S
C665 H668 0.999 . S
C666 H636 0.950 . S
C666 C665 1.524 . S
C666 C667 1.415 . S
C667 H637 0.950 . S
C667 C662 1.363 . S
C667 C666 1.415 . S
H668 C665 0.999 . S
H669 C650 0.913 . S
H670 C688 0.951 . S
H671 C690 0.951 . S
H672 C692 0.950 . S
H673 C693 0.950 . S
H674 C695 0.950 . S
H675 C698 0.950 . S
H676 C699 0.950 . S
H677 C701 0.950 . S
H678 C702 0.950 . S
H679 C703 0.951 . S
H680 C705 0.951 . S
H681 C707 0.950 . S
H682 C708 0.950 . S
H683 C710 0.950 . S
H684 C713 0.950 . S
H685 C714 0.950 . S
H686 C716 0.950 . S
H687 C717 0.950 . S
C688 H670 0.951 . S
C688 C689 1.366 . S
C688 C690 1.388 . S
C689 C688 1.366 . S
C689 C693 1.385 . S
C690 H671 0.951 . S
C690 C688 1.388 . S
C690 C691 1.366 . S
C691 C690 1.366 . S
C691 C692 1.414 . S
C691 C694 1.499 . S
C692 H672 0.950 . S
C692 C691 1.414 . S
C692 C693 1.374 . S
C693 H673 0.950 . S
C693 C689 1.385 . S
C693 C692 1.374 . S
C694 C691 1.499 . S
C694 C695 1.373 . S
C694 C696 1.389 . S
C695 H674 0.950 . S
C695 C694 1.373 . S
C695 C711 1.377 . S
C696 C694 1.389 . S
C696 C697 1.524 . S
C696 C710 1.377 . S
C697 C696 1.524 . S
C697 C698 1.397 . S
C697 C702 1.363 . S
C698 H675 0.950 . S
C698 C697 1.397 . S
C698 C699 1.334 . S
C699 H676 0.950 . S
C699 C698 1.334 . S
C699 C700 1.287 . S
C700 C699 1.287 . S
C700 C701 1.524 . S
C700 H719 0.913 . S
C701 H677 0.950 . S
C701 C700 1.524 . S
C701 C702 1.415 . S
C702 H678 0.950 . S
C702 C697 1.363 . S
C702 C701 1.415 . S
C703 H679 0.951 . S
C703 C704 1.366 . S
C703 C705 1.388 . S
C704 C703 1.366 . S
C704 C708 1.385 . S
C705 H680 0.951 . S
C705 C703 1.388 . S
C705 C706 1.366 . S
C706 C705 1.366 . S
C706 C707 1.414 . S
C706 C709 1.499 . S
C707 H681 0.950 . S
C707 C706 1.414 . S
C707 C708 1.374 . S
C708 H682 0.950 . S
C708 C704 1.385 . S
C708 C707 1.374 . S
C709 C706 1.499 . S
C709 C710 1.373 . S
C709 C711 1.389 . S
C710 H683 0.950 . S
C710 C696 1.377 . S
C710 C709 1.373 . S
C711 C695 1.377 . S
C711 C709 1.389 . S
C711 C712 1.524 . S
C712 C711 1.524 . S
C712 C713 1.397 . S
C712 C717 1.363 . S
C713 H684 0.950 . S
C713 C712 1.397 . S
C713 C714 1.334 . S
C714 H685 0.950 . S
C714 C713 1.334 . S
C714 C715 1.287 . S
C715 C714 1.287 . S
C715 C716 1.524 . S
C715 H718 0.999 . S
C716 H686 0.950 . S
C716 C715 1.524 . S
C716 C717 1.415 . S
C717 H687 0.950 . S
C717 C712 1.363 . S
C717 C716 1.415 . S
H718 C715 0.999 . S
H719 C700 0.913 . S
H720 C738 0.951 . S
H721 C740 0.951 . S
H722 C742 0.950 . S
H723 C743 0.950 . S
H724 C745 0.950 . S
H725 C748 0.950 . S
H726 C749 0.950 . S
H727 C751 0.950 . S
H728 C752 0.950 . S
H729 C753 0.951 . S
H730 C755 0.951 . S
H731 C757 0.950 . S
H732 C758 0.950 . S
H733 C760 0.950 . S
H734 C763 0.950 . S
H735 C764 0.950 . S
H736 C766 0.950 . S
H737 C767 0.950 . S
C738 H720 0.951 . S
C738 C739 1.366 . S
C738 C740 1.388 . S
C739 C738 1.366 . S
C739 C743 1.385 . S
C740 H721 0.951 . S
C740 C738 1.388 . S
C740 C741 1.366 . S
C741 C740 1.366 . S
C741 C742 1.414 . S
C741 C744 1.499 . S
C742 H722 0.950 . S
C742 C741 1.414 . S
C742 C743 1.374 . S
C743 H723 0.950 . S
C743 C739 1.385 . S
C743 C742 1.374 . S
C744 C741 1.499 . S
C744 C745 1.373 . S
C744 C746 1.389 . S
C745 H724 0.950 . S
C745 C744 1.373 . S
C745 C761 1.377 . S
C746 C744 1.389 . S
C746 C747 1.524 . S
C746 C760 1.377 . S
C747 C746 1.524 . S
C747 C748 1.397 . S
C747 C752 1.363 . S
C748 H725 0.950 . S
C748 C747 1.397 . S
C748 C749 1.334 . S
C749 H726 0.950 . S
C749 C748 1.334 . S
C749 C750 1.287 . S
C750 C749 1.287 . S
C750 C751 1.524 . S
C750 H769 0.913 . S
C751 H727 0.950 . S
C751 C750 1.524 . S
C751 C752 1.415 . S
C752 H728 0.950 . S
C752 C747 1.363 . S
C752 C751 1.415 . S
C753 H729 0.951 . S
C753 C754 1.366 . S
C753 C755 1.388 . S
C754 C753 1.366 . S
C754 C758 1.385 . S
C755 H730 0.951 . S
C755 C753 1.388 . S
C755 C756 1.366 . S
C756 C755 1.366 . S
C756 C757 1.414 . S
C756 C759 1.499 . S
C757 H731 0.950 . S
C757 C756 1.414 . S
C757 C758 1.374 . S
C758 H732 0.950 . S
C758 C754 1.385 . S
C758 C757 1.374 . S
C759 C756 1.499 . S
C759 C760 1.373 . S
C759 C761 1.389 . S
C760 H733 0.950 . S
C760 C746 1.377 . S
C760 C759 1.373 . S
C761 C745 1.377 . S
C761 C759 1.389 . S
C761 C762 1.524 . S
C762 C761 1.524 . S
C762 C763 1.397 . S
C762 C767 1.363 . S
C763 H734 0.950 . S
C763 C762 1.397 . S
C763 C764 1.334 . S
C764 H735 0.950 . S
C764 C763 1.334 . S
C764 C765 1.287 . S
C765 C764 1.287 . S
C765 C766 1.524 . S
C765 H768 0.999 . S
C766 H736 0.950 . S
C766 C765 1.524 . S
C766 C767 1.415 . S
C767 H737 0.950 . S
C767 C762 1.363 . S
C767 C766 1.415 . S
H768 C765 0.999 . S
H769 C750 0.913 . S
H770 C788 0.951 . S
H771 C790 0.951 . S
H772 C792 0.950 . S
H773 C793 0.950 . S
H774 C795 0.950 . S
H775 C798 0.950 . S
H776 C799 0.950 . S
H777 C801 0.950 . S
H778 C802 0.950 . S
H779 C803 0.951 . S
H780 C805 0.951 . S
H781 C807 0.950 . S
H782 C808 0.950 . S
H783 C810 0.950 . S
H784 C813 0.950 . S
H785 C814 0.950 . S
H786 C816 0.950 . S
H787 C817 0.950 . S
C788 H770 0.951 . S
C788 C789 1.366 . S
C788 C790 1.388 . S
C789 C788 1.366 . S
C789 C793 1.385 . S
C790 H771 0.951 . S
C790 C788 1.388 . S
C790 C791 1.366 . S
C791 C790 1.366 . S
C791 C792 1.414 . S
C791 C794 1.499 . S
C792 H772 0.950 . S
C792 C791 1.414 . S
C792 C793 1.374 . S
C793 H773 0.950 . S
C793 C789 1.385 . S
C793 C792 1.374 . S
C794 C791 1.499 . S
C794 C795 1.373 . S
C794 C796 1.389 . S
C795 H774 0.950 . S
C795 C794 1.373 . S
C795 C811 1.377 . S
C796 C794 1.389 . S
C796 C797 1.524 . S
C796 C810 1.377 . S
C797 C796 1.524 . S
C797 C798 1.397 . S
C797 C802 1.363 . S
C798 H775 0.950 . S
C798 C797 1.397 . S
C798 C799 1.334 . S
C799 H776 0.950 . S
C799 C798 1.334 . S
C799 C800 1.287 . S
C800 C799 1.287 . S
C800 C801 1.524 . S
C800 H819 0.913 . S
C801 H777 0.950 . S
C801 C800 1.524 . S
C801 C802 1.415 . S
C802 H778 0.950 . S
C802 C797 1.363 . S
C802 C801 1.415 . S
C803 H779 0.951 . S
C803 C804 1.366 . S
C803 C805 1.388 . S
C804 C803 1.366 . S
C804 C808 1.385 . S
C805 H780 0.951 . S
C805 C803 1.388 . S
C805 C806 1.366 . S
C806 C805 1.366 . S
C806 C807 1.414 . S
C806 C809 1.499 . S
C807 H781 0.950 . S
C807 C806 1.414 . S
C807 C808 1.374 . S
C808 H782 0.950 . S
C808 C804 1.385 . S
C808 C807 1.374 . S
C809 C806 1.499 . S
C809 C810 1.373 . S
C809 C811 1.389 . S
C810 H783 0.950 . S
C810 C796 1.377 . S
C810 C809 1.373 . S
C811 C795 1.377 . S
C811 C809 1.389 . S
C811 C812 1.524 . S
C812 C811 1.524 . S
C812 C813 1.397 . S
C812 C817 1.363 . S
C813 H784 0.950 . S
C813 C812 1.397 . S
C813 C814 1.334 . S
C814 H785 0.950 . S
C814 C813 1.334 . S
C814 C815 1.287 . S
C815 C814 1.287 . S
C815 C816 1.524 . S
C815 H818 0.999 . S
C816 H786 0.950 . S
C816 C815 1.524 . S
C816 C817 1.415 . S
C817 H787 0.950 . S
C817 C812 1.363 . S
C817 C816 1.415 . S
H818 C815 0.999 . S
H819 C800 0.913 . S
H820 C838 0.951 . S
H821 C840 0.951 . S
H822 C842 0.950 . S
H823 C843 0.950 . S
H824 C845 0.950 . S
H825 C848 0.950 . S
H826 C849 0.950 . S
H827 C851 0.950 . S
H828 C852 0.950 . S
H829 C853 0.951 . S
H830 C855 0.951 . S
H831 C857 0.950 . S
H832 C858 0.950 . S
H833 C860 0.950 . S
H834 C863 0.950 . S
H835 C864 0.950 . S
H836 C866 0.950 . S
H837 C867 0.950 . S
C838 H820 0.951 . S
C838 C839 1.366 . S
C838 C840 1.388 . S
C839 C838 1.366 . S
C839 C843 1.385 . S
C840 H821 0.951 . S
C840 C838 1.388 . S
C840 C841 1.366 . S
C841 C840 1.366 . S
C841 C842 1.414 . S
C841 C844 1.499 . S
C842 H822 0.950 . S
C842 C841 1.414 . S
C842 C843 1.374 . S
C843 H823 0.950 . S
C843 C839 1.385 . S
C843 C842 1.374 . S
C844 C841 1.499 . S
C844 C845 1.373 . S
C844 C846 1.389 . S
C845 H824 0.950 . S
C845 C844 1.373 . S
C845 C861 1.377 . S
C846 C844 1.389 . S
C846 C847 1.524 . S
C846 C860 1.377 . S
C847 C846 1.524 . S
C847 C848 1.397 . S
C847 C852 1.363 . S
C848 H825 0.950 . S
C848 C847 1.397 . S
C848 C849 1.334 . S
C849 H826 0.950 . S
C849 C848 1.334 . S
C849 C850 1.287 . S
C850 C849 1.287 . S
C850 C851 1.524 . S
C850 H869 0.913 . S
C851 H827 0.950 . S
C851 C850 1.524 . S
C851 C852 1.415 . S
C852 H828 0.950 . S
C852 C847 1.363 . S
C852 C851 1.415 . S
C853 H829 0.951 . S
C853 C854 1.366 . S
C853 C855 1.388 . S
C854 C853 1.366 . S
C854 C858 1.385 . S
C855 H830 0.951 . S
C855 C853 1.388 . S
C855 C856 1.366 . S
C856 C855 1.366 . S
C856 C857 1.414 . S
C856 C859 1.499 . S
C857 H831 0.950 . S
C857 C856 1.414 . S
C857 C858 1.374 . S
C858 H832 0.950 . S
C858 C854 1.385 . S
C858 C857 1.374 . S
C859 C856 1.499 . S
C859 C860 1.373 . S
C859 C861 1.389 . S
C860 H833 0.950 . S
C860 C846 1.377 . S
C860 C859 1.373 . S
C861 C845 1.377 . S
C861 C859 1.389 . S
C861 C862 1.524 . S
C862 C861 1.524 . S
C862 C863 1.397 . S
C862 C867 1.363 . S
C863 H834 0.950 . S
C863 C862 1.397 . S
C863 C864 1.334 . S
C864 H835 0.950 . S
C864 C863 1.334 . S
C864 C865 1.287 . S
C865 C864 1.287 . S
C865 C866 1.524 . S
C865 H868 0.999 . S
C866 H836 0.950 . S
C866 C865 1.524 . S
C866 C867 1.415 . S
C867 H837 0.950 . S
C867 C862 1.363 . S
C867 C866 1.415 . S
H868 C865 0.999 . S
H869 C850 0.913 . S
H870 C888 0.951 . S
H871 C890 0.951 . S
H872 C892 0.950 . S
H873 C893 0.950 . S
H874 C895 0.950 . S
H875 C898 0.950 . S
H876 C899 0.950 . S
H877 C901 0.950 . S
H878 C902 0.950 . S
H879 C903 0.951 . S
H880 C905 0.951 . S
H881 C907 0.950 . S
H882 C908 0.950 1_655 S
H883 C910 0.950 . S
H884 C913 0.950 . S
H885 C914 0.950 . S
H886 C916 0.950 . S
H887 C917 0.950 . S
C888 H870 0.951 . S
C888 C889 1.366 . S
C888 C890 1.388 . S
C889 C888 1.366 . S
C889 C893 1.385 . S
C890 H871 0.951 . S
C890 C888 1.388 . S
C890 C891 1.366 . S
C891 C890 1.366 . S
C891 C892 1.414 . S
C891 C894 1.499 . S
C892 H872 0.950 . S
C892 C891 1.414 . S
C892 C893 1.374 . S
C893 H873 0.950 . S
C893 C889 1.385 . S
C893 C892 1.374 . S
C894 C891 1.499 . S
C894 C895 1.373 . S
C894 C896 1.389 . S
C895 H874 0.950 . S
C895 C894 1.373 . S
C895 C911 1.377 . S
C896 C894 1.389 . S
C896 C897 1.524 . S
C896 C910 1.377 . S
C897 C896 1.524 . S
C897 C898 1.397 . S
C897 C902 1.363 . S
C898 H875 0.950 . S
C898 C897 1.397 . S
C898 C899 1.334 . S
C899 H876 0.950 . S
C899 C898 1.334 . S
C899 C900 1.287 . S
C900 C899 1.287 . S
C900 C901 1.524 . S
C900 H919 0.913 . S
C901 H877 0.950 . S
C901 C900 1.524 . S
C901 C902 1.415 . S
C902 H878 0.950 . S
C902 C897 1.363 . S
C902 C901 1.415 . S
C903 H879 0.951 . S
C903 C904 1.366 . S
C903 C905 1.388 . S
C904 C903 1.366 . S
C904 C908 1.385 . S
C905 H880 0.951 . S
C905 C903 1.388 . S
C905 C906 1.366 . S
C906 C905 1.366 . S
C906 C907 1.414 . S
C906 C909 1.499 . S
C907 H881 0.950 . S
C907 C906 1.414 . S
C907 C908 1.374 . S
C908 H882 0.950 1_455 S
C908 C904 1.385 . S
C908 C907 1.374 . S
C909 C906 1.499 . S
C909 C910 1.373 . S
C909 C911 1.389 . S
C910 H883 0.950 . S
C910 C896 1.377 . S
C910 C909 1.373 . S
C911 C895 1.377 . S
C911 C909 1.389 . S
C911 C912 1.524 . S
C912 C911 1.524 . S
C912 C913 1.397 . S
C912 C917 1.363 . S
C913 H884 0.950 . S
C913 C912 1.397 . S
C913 C914 1.334 . S
C914 H885 0.950 . S
C914 C913 1.334 . S
C914 C915 1.287 . S
C915 C914 1.287 . S
C915 C916 1.524 . S
C915 H918 0.999 . S
C916 H886 0.950 . S
C916 C915 1.524 . S
C916 C917 1.415 . S
C917 H887 0.950 . S
C917 C912 1.363 . S
C917 C916 1.415 . S
H918 C915 0.999 . S
H919 C900 0.913 . S
H920 C938 0.951 . S
H921 C940 0.951 . S
H922 C942 0.950 . S
H923 C943 0.950 . S
H924 C945 0.950 . S
H925 C948 0.950 . S
H926 C949 0.950 . S
H927 C951 0.950 . S
H928 C952 0.950 . S
H929 C953 0.951 1_545 S
H930 C955 0.951 . S
H931 C957 0.950 . S
H932 C958 0.950 . S
H933 C960 0.950 . S
H934 C963 0.950 . S
H935 C964 0.950 . S
H936 C966 0.950 . S
H937 C967 0.950 . S
C938 H920 0.951 . S
C938 C939 1.366 . S
C938 C940 1.388 . S
C939 C938 1.366 . S
C939 C943 1.385 . S
C940 H921 0.951 . S
C940 C938 1.388 . S
C940 C941 1.366 . S
C941 C940 1.366 . S
C941 C942 1.414 . S
C941 C944 1.499 . S
C942 H922 0.950 . S
C942 C941 1.414 . S
C942 C943 1.374 . S
C943 H923 0.950 . S
C943 C939 1.385 . S
C943 C942 1.374 . S
C944 C941 1.499 . S
C944 C945 1.373 . S
C944 C946 1.389 . S
C945 H924 0.950 . S
C945 C944 1.373 . S
C945 C961 1.377 . S
C946 C944 1.389 . S
C946 C947 1.524 . S
C946 C960 1.377 . S
C947 C946 1.524 . S
C947 C948 1.397 . S
C947 C952 1.363 . S
C948 H925 0.950 . S
C948 C947 1.397 . S
C948 C949 1.334 . S
C949 H926 0.950 . S
C949 C948 1.334 . S
C949 C950 1.287 . S
C950 C949 1.287 . S
C950 C951 1.524 . S
C950 H969 0.913 . S
C951 H927 0.950 . S
C951 C950 1.524 . S
C951 C952 1.415 . S
C952 H928 0.950 . S
C952 C947 1.363 . S
C952 C951 1.415 . S
C953 H929 0.951 1_565 S
C953 C954 1.366 . S
C953 C955 1.388 . S
C954 C953 1.366 . S
C954 C958 1.385 . S
C955 H930 0.951 . S
C955 C953 1.388 . S
C955 C956 1.366 . S
C956 C955 1.366 . S
C956 C957 1.414 . S
C956 C959 1.499 . S
C957 H931 0.950 . S
C957 C956 1.414 . S
C957 C958 1.374 . S
C958 H932 0.950 . S
C958 C954 1.385 . S
C958 C957 1.374 . S
C959 C956 1.499 . S
C959 C960 1.373 . S
C959 C961 1.389 . S
C960 H933 0.950 . S
C960 C946 1.377 . S
C960 C959 1.373 . S
C961 C945 1.377 . S
C961 C959 1.389 . S
C961 C962 1.524 . S
C962 C961 1.524 . S
C962 C963 1.397 . S
C962 C967 1.363 . S
C963 H934 0.950 . S
C963 C962 1.397 . S
C963 C964 1.334 . S
C964 H935 0.950 . S
C964 C963 1.334 . S
C964 C965 1.287 . S
C965 C964 1.287 . S
C965 C966 1.524 . S
C965 H968 0.999 . S
C966 H936 0.950 . S
C966 C965 1.524 . S
C966 C967 1.415 . S
C967 H937 0.950 . S
C967 C962 1.363 . S
C967 C966 1.415 . S
H968 C965 0.999 . S
H969 C950 0.913 . S
H970 C988 0.951 . S
H971 C990 0.951 . S
H972 C992 0.950 . S
H973 C993 0.950 . S
H974 C995 0.950 . S
H975 C998 0.950 . S
H976 C999 0.950 . S
H977 C1001 0.950 . S
H978 C1002 0.950 . S
H979 C1003 0.951 . S
H980 C1005 0.951 . S
H981 C1007 0.950 . S
H982 C1008 0.950 . S
H983 C1010 0.950 . S
H984 C1013 0.950 . S
H985 C1014 0.950 . S
H986 C1016 0.950 . S
H987 C1017 0.950 . S
C988 H970 0.951 . S
C988 C989 1.366 . S
C988 C990 1.388 . S
C989 C988 1.366 . S
C989 C993 1.385 . S
C990 H971 0.951 . S
C990 C988 1.388 . S
C990 C991 1.366 . S
C991 C990 1.366 . S
C991 C992 1.414 . S
C991 C994 1.499 . S
C992 H972 0.950 . S
C992 C991 1.414 . S
C992 C993 1.374 . S
C993 H973 0.950 . S
C993 C989 1.385 . S
C993 C992 1.374 . S
C994 C991 1.499 . S
C994 C995 1.373 . S
C994 C996 1.389 . S
C995 H974 0.950 . S
C995 C994 1.373 . S
C995 C1011 1.377 . S
C996 C994 1.389 . S
C996 C997 1.524 . S
C996 C1010 1.377 . S
C997 C996 1.524 . S
C997 C998 1.397 . S
C997 C1002 1.363 . S
C998 H975 0.950 . S
C998 C997 1.397 . S
C998 C999 1.334 . S
C999 H976 0.950 . S
C999 C998 1.334 . S
C999 C1000 1.287 . S
C1000 C999 1.287 . S
C1000 C1001 1.524 . S
C1000 H1019 0.913 . S
C1001 H977 0.950 . S
C1001 C1000 1.524 . S
C1001 C1002 1.415 . S
C1002 H978 0.950 . S
C1002 C997 1.363 . S
C1002 C1001 1.415 . S
C1003 H979 0.951 . S
C1003 C1004 1.366 . S
C1003 C1005 1.388 . S
C1004 C1003 1.366 . S
C1004 C1008 1.385 . S
C1005 H980 0.951 . S
C1005 C1003 1.388 . S
C1005 C1006 1.366 . S
C1006 C1005 1.366 . S
C1006 C1007 1.414 . S
C1006 C1009 1.499 . S
C1007 H981 0.950 . S
C1007 C1006 1.414 . S
C1007 C1008 1.374 . S
C1008 H982 0.950 . S
C1008 C1004 1.385 . S
C1008 C1007 1.374 . S
C1009 C1006 1.499 . S
C1009 C1010 1.373 . S
C1009 C1011 1.389 . S
C1010 H983 0.950 . S
C1010 C996 1.377 . S
C1010 C1009 1.373 . S
C1011 C995 1.377 . S
C1011 C1009 1.389 . S
C1011 C1012 1.524 . S
C1012 C1011 1.524 . S
C1012 C1013 1.397 . S
C1012 C1017 1.363 . S
C1013 H984 0.950 . S
C1013 C1012 1.397 . S
C1013 C1014 1.334 . S
C1014 H985 0.950 . S
C1014 C1013 1.334 . S
C1014 C1015 1.287 . S
C1015 C1014 1.287 . S
C1015 C1016 1.524 . S
C1015 H1018 0.999 . S
C1016 H986 0.950 . S
C1016 C1015 1.524 . S
C1016 C1017 1.415 . S
C1017 H987 0.950 . S
C1017 C1012 1.363 . S
C1017 C1016 1.415 . S
H1018 C1015 0.999 . S
H1019 C1000 0.913 . S
H1020 C1038 0.951 . S
H1021 C1040 0.951 . S
H1022 C1042 0.950 . S
H1023 C1043 0.950 . S
H1024 C1045 0.950 . S
H1025 C1048 0.950 . S
H1026 C1049 0.950 . S
H1027 C1051 0.950 . S
H1028 C1052 0.950 . S
H1029 C1053 0.951 . S
H1030 C1055 0.951 . S
H1031 C1057 0.950 . S
H1032 C1058 0.950 . S
H1033 C1060 0.950 . S
H1034 C1063 0.950 . S
H1035 C1064 0.950 . S
H1036 C1066 0.950 . S
H1037 C1067 0.950 . S
C1038 H1020 0.951 . S
C1038 C1039 1.366 . S
C1038 C1040 1.388 . S
C1039 C1038 1.366 . S
C1039 C1043 1.385 . S
C1040 H1021 0.951 . S
C1040 C1038 1.388 . S
C1040 C1041 1.366 . S
C1041 C1040 1.366 . S
C1041 C1042 1.414 . S
C1041 C1044 1.499 . S
C1042 H1022 0.950 . S
C1042 C1041 1.414 . S
C1042 C1043 1.374 . S
C1043 H1023 0.950 . S
C1043 C1039 1.385 . S
C1043 C1042 1.374 . S
C1044 C1041 1.499 . S
C1044 C1045 1.373 . S
C1044 C1046 1.389 . S
C1045 H1024 0.950 . S
C1045 C1044 1.373 . S
C1045 C1061 1.377 . S
C1046 C1044 1.389 . S
C1046 C1047 1.524 . S
C1046 C1060 1.377 . S
C1047 C1046 1.524 . S
C1047 C1048 1.397 . S
C1047 C1052 1.363 . S
C1048 H1025 0.950 . S
C1048 C1047 1.397 . S
C1048 C1049 1.334 . S
C1049 H1026 0.950 . S
C1049 C1048 1.334 . S
C1049 C1050 1.287 . S
C1050 C1049 1.287 . S
C1050 C1051 1.524 . S
C1050 H1069 0.913 . S
C1051 H1027 0.950 . S
C1051 C1050 1.524 . S
C1051 C1052 1.415 . S
C1052 H1028 0.950 . S
C1052 C1047 1.363 . S
C1052 C1051 1.415 . S
C1053 H1029 0.951 . S
C1053 C1054 1.366 . S
C1053 C1055 1.388 . S
C1054 C1053 1.366 . S
C1054 C1058 1.385 . S
C1055 H1030 0.951 . S
C1055 C1053 1.388 . S
C1055 C1056 1.366 . S
C1056 C1055 1.366 . S
C1056 C1057 1.414 . S
C1056 C1059 1.499 . S
C1057 H1031 0.950 . S
C1057 C1056 1.414 . S
C1057 C1058 1.374 . S
C1058 H1032 0.950 . S
C1058 C1054 1.385 . S
C1058 C1057 1.374 . S
C1059 C1056 1.499 . S
C1059 C1060 1.373 . S
C1059 C1061 1.389 . S
C1060 H1033 0.950 . S
C1060 C1046 1.377 . S
C1060 C1059 1.373 . S
C1061 C1045 1.377 . S
C1061 C1059 1.389 . S
C1061 C1062 1.524 . S
C1062 C1061 1.524 . S
C1062 C1063 1.397 . S
C1062 C1067 1.363 . S
C1063 H1034 0.950 . S
C1063 C1062 1.397 . S
C1063 C1064 1.334 . S
C1064 H1035 0.950 . S
C1064 C1063 1.334 . S
C1064 C1065 1.287 . S
C1065 C1064 1.287 . S
C1065 C1066 1.524 . S
C1065 H1068 0.999 . S
C1066 H1036 0.950 . S
C1066 C1065 1.524 . S
C1066 C1067 1.415 . S
C1067 H1037 0.950 . S
C1067 C1062 1.363 . S
C1067 C1066 1.415 . S
H1068 C1065 0.999 . S
H1069 C1050 0.913 . S
H1070 C1088 0.951 . S
H1071 C1090 0.951 . S
H1072 C1092 0.950 . S
H1073 C1093 0.950 1_455 S
H1074 C1095 0.950 . S
H1075 C1098 0.950 . S
H1076 C1099 0.950 . S
H1077 C1101 0.950 . S
H1078 C1102 0.950 . S
H1079 C1103 0.951 . S
H1080 C1105 0.951 . S
H1081 C1107 0.950 . S
H1082 C1108 0.950 . S
H1083 C1110 0.950 . S
H1084 C1113 0.950 . S
H1085 C1114 0.950 . S
H1086 C1116 0.950 1_455 S
H1087 C1117 0.950 . S
C1088 H1070 0.951 . S
C1088 C1089 1.366 . S
C1088 C1090 1.388 . S
C1089 C1088 1.366 . S
C1089 C1093 1.385 . S
C1090 H1071 0.951 . S
C1090 C1088 1.388 . S
C1090 C1091 1.366 . S
C1091 C1090 1.366 . S
C1091 C1092 1.414 . S
C1091 C1094 1.499 . S
C1092 H1072 0.950 . S
C1092 C1091 1.414 . S
C1092 C1093 1.374 . S
C1093 H1073 0.950 1_655 S
C1093 C1089 1.385 . S
C1093 C1092 1.374 . S
C1094 C1091 1.499 . S
C1094 C1095 1.373 . S
C1094 C1096 1.389 . S
C1095 H1074 0.950 . S
C1095 C1094 1.373 . S
C1095 C1111 1.377 . S
C1096 C1094 1.389 . S
C1096 C1097 1.524 . S
C1096 C1110 1.377 . S
C1097 C1096 1.524 . S
C1097 C1098 1.397 . S
C1097 C1102 1.363 . S
C1098 H1075 0.950 . S
C1098 C1097 1.397 . S
C1098 C1099 1.334 . S
C1099 H1076 0.950 . S
C1099 C1098 1.334 . S
C1099 C1100 1.287 . S
C1100 C1099 1.287 . S
C1100 C1101 1.524 . S
C1100 H1119 0.913 . S
C1101 H1077 0.950 . S
C1101 C1100 1.524 . S
C1101 C1102 1.415 . S
C1102 H1078 0.950 . S
C1102 C1097 1.363 . S
C1102 C1101 1.415 . S
C1103 H1079 0.951 . S
C1103 C1104 1.366 . S
C1103 C1105 1.388 . S
C1104 C1103 1.366 . S
C1104 C1108 1.385 . S
C1105 H1080 0.951 . S
C1105 C1103 1.388 . S
C1105 C1106 1.366 . S
C1106 C1105 1.366 . S
C1106 C1107 1.414 . S
C1106 C1109 1.499 . S
C1107 H1081 0.950 . S
C1107 C1106 1.414 . S
C1107 C1108 1.374 . S
C1108 H1082 0.950 . S
C1108 C1104 1.385 . S
C1108 C1107 1.374 . S
C1109 C1106 1.499 . S
C1109 C1110 1.373 . S
C1109 C1111 1.389 . S
C1110 H1083 0.950 . S
C1110 C1096 1.377 . S
C1110 C1109 1.373 . S
C1111 C1095 1.377 . S
C1111 C1109 1.389 . S
C1111 C1112 1.524 . S
C1112 C1111 1.524 . S
C1112 C1113 1.397 . S
C1112 C1117 1.363 . S
C1113 H1084 0.950 . S
C1113 C1112 1.397 . S
C1113 C1114 1.334 . S
C1114 H1085 0.950 . S
C1114 C1113 1.334 . S
C1114 C1115 1.287 . S
C1115 C1114 1.287 . S
C1115 C1116 1.524 . S
C1115 H1118 0.999 . S
C1116 H1086 0.950 1_655 S
C1116 C1115 1.524 . S
C1116 C1117 1.415 . S
C1117 H1087 0.950 . S
C1117 C1112 1.363 . S
C1117 C1116 1.415 . S
H1118 C1115 0.999 . S
H1119 C1100 0.913 . S
H1120 C1138 0.951 . S
H1121 C1140 0.951 . S
H1122 C1142 0.950 . S
H1123 C1143 0.950 1_545 S
H1124 C1145 0.950 . S
H1125 C1148 0.950 . S
H1126 C1149 0.950 . S
H1127 C1151 0.950 . S
H1128 C1152 0.950 . S
H1129 C1153 0.951 . S
H1130 C1155 0.951 . S
H1131 C1157 0.950 . S
H1132 C1158 0.950 . S
H1133 C1160 0.950 . S
H1134 C1163 0.950 . S
H1135 C1164 0.950 . S
H1136 C1166 0.950 1_545 S
H1137 C1167 0.950 . S
C1138 H1120 0.951 . S
C1138 C1139 1.366 . S
C1138 C1140 1.388 . S
C1139 C1138 1.366 . S
C1139 C1143 1.385 . S
C1140 H1121 0.951 . S
C1140 C1138 1.388 . S
C1140 C1141 1.366 . S
C1141 C1140 1.366 . S
C1141 C1142 1.414 . S
C1141 C1144 1.499 . S
C1142 H1122 0.950 . S
C1142 C1141 1.414 . S
C1142 C1143 1.374 . S
C1143 H1123 0.950 1_565 S
C1143 C1139 1.385 . S
C1143 C1142 1.374 . S
C1144 C1141 1.499 . S
C1144 C1145 1.373 . S
C1144 C1146 1.389 . S
C1145 H1124 0.950 . S
C1145 C1144 1.373 . S
C1145 C1161 1.377 . S
C1146 C1144 1.389 . S
C1146 C1147 1.524 . S
C1146 C1160 1.377 . S
C1147 C1146 1.524 . S
C1147 C1148 1.397 . S
C1147 C1152 1.363 . S
C1148 H1125 0.950 . S
C1148 C1147 1.397 . S
C1148 C1149 1.334 . S
C1149 H1126 0.950 . S
C1149 C1148 1.334 . S
C1149 C1150 1.287 . S
C1150 C1149 1.287 . S
C1150 C1151 1.524 . S
C1150 H1169 0.913 . S
C1151 H1127 0.950 . S
C1151 C1150 1.524 . S
C1151 C1152 1.415 . S
C1152 H1128 0.950 . S
C1152 C1147 1.363 . S
C1152 C1151 1.415 . S
C1153 H1129 0.951 . S
C1153 C1154 1.366 . S
C1153 C1155 1.388 . S
C1154 C1153 1.366 . S
C1154 C1158 1.385 . S
C1155 H1130 0.951 . S
C1155 C1153 1.388 . S
C1155 C1156 1.366 . S
C1156 C1155 1.366 . S
C1156 C1157 1.414 . S
C1156 C1159 1.499 . S
C1157 H1131 0.950 . S
C1157 C1156 1.414 . S
C1157 C1158 1.374 . S
C1158 H1132 0.950 . S
C1158 C1154 1.385 . S
C1158 C1157 1.374 . S
C1159 C1156 1.499 . S
C1159 C1160 1.373 . S
C1159 C1161 1.389 . S
C1160 H1133 0.950 . S
C1160 C1146 1.377 . S
C1160 C1159 1.373 . S
C1161 C1145 1.377 . S
C1161 C1159 1.389 . S
C1161 C1162 1.524 . S
C1162 C1161 1.524 . S
C1162 C1163 1.397 . S
C1162 C1167 1.363 . S
C1163 H1134 0.950 . S
C1163 C1162 1.397 . S
C1163 C1164 1.334 . S
C1164 H1135 0.950 . S
C1164 C1163 1.334 . S
C1164 C1165 1.287 . S
C1165 C1164 1.287 . S
C1165 C1166 1.524 . S
C1165 H1168 0.999 . S
C1166 H1136 0.950 1_565 S
C1166 C1165 1.524 . S
C1166 C1167 1.415 . S
C1167 H1137 0.950 . S
C1167 C1162 1.363 . S
C1167 C1166 1.415 . S
H1168 C1165 0.999 . S
H1169 C1150 0.913 . S
H1170 C1188 0.951 . S
H1171 C1190 0.951 . S
H1172 C1192 0.950 . S
H1173 C1193 0.950 . S
H1174 C1195 0.950 . S
H1175 C1198 0.950 . S
H1176 C1199 0.950 . S
H1177 C1201 0.950 . S
H1178 C1202 0.950 . S
H1179 C1203 0.951 . S
H1180 C1205 0.951 . S
H1181 C1207 0.950 . S
H1182 C1208 0.950 . S
H1183 C1210 0.950 . S
H1184 C1213 0.950 . S
H1185 C1214 0.950 . S
H1186 C1216 0.950 . S
H1187 C1217 0.950 . S
C1188 H1170 0.951 . S
C1188 C1189 1.366 . S
C1188 C1190 1.388 . S
C1189 C1188 1.366 . S
C1189 C1193 1.385 . S
C1190 H1171 0.951 . S
C1190 C1188 1.388 . S
C1190 C1191 1.366 . S
C1191 C1190 1.366 . S
C1191 C1192 1.414 . S
C1191 C1194 1.499 . S
C1192 H1172 0.950 . S
C1192 C1191 1.414 . S
C1192 C1193 1.374 . S
C1193 H1173 0.950 . S
C1193 C1189 1.385 . S
C1193 C1192 1.374 . S
C1194 C1191 1.499 . S
C1194 C1195 1.373 . S
C1194 C1196 1.389 . S
C1195 H1174 0.950 . S
C1195 C1194 1.373 . S
C1195 C1211 1.377 . S
C1196 C1194 1.389 . S
C1196 C1197 1.524 . S
C1196 C1210 1.377 . S
C1197 C1196 1.524 . S
C1197 C1198 1.397 . S
C1197 C1202 1.363 . S
C1198 H1175 0.950 . S
C1198 C1197 1.397 . S
C1198 C1199 1.334 . S
C1199 H1176 0.950 . S
C1199 C1198 1.334 . S
C1199 C1200 1.287 . S
C1200 C1199 1.287 . S
C1200 C1201 1.524 . S
C1200 H1219 0.913 . S
C1201 H1177 0.950 . S
C1201 C1200 1.524 . S
C1201 C1202 1.415 . S
C1202 H1178 0.950 . S
C1202 C1197 1.363 . S
C1202 C1201 1.415 . S
C1203 H1179 0.951 . S
C1203 C1204 1.366 . S
C1203 C1205 1.388 . S
C1204 C1203 1.366 . S
C1204 C1208 1.385 . S
C1205 H1180 0.951 . S
C1205 C1203 1.388 . S
C1205 C1206 1.366 . S
C1206 C1205 1.366 . S
C1206 C1207 1.414 . S
C1206 C1209 1.499 . S
C1207 H1181 0.950 . S
C1207 C1206 1.414 . S
C1207 C1208 1.374 . S
C1208 H1182 0.950 . S
C1208 C1204 1.385 . S
C1208 C1207 1.374 . S
C1209 C1206 1.499 . S
C1209 C1210 1.373 . S
C1209 C1211 1.389 . S
C1210 H1183 0.950 . S
C1210 C1196 1.377 . S
C1210 C1209 1.373 . S
C1211 C1195 1.377 . S
C1211 C1209 1.389 . S
C1211 C1212 1.524 . S
C1212 C1211 1.524 . S
C1212 C1213 1.397 . S
C1212 C1217 1.363 . S
C1213 H1184 0.950 . S
C1213 C1212 1.397 . S
C1213 C1214 1.334 . S
C1214 H1185 0.950 . S
C1214 C1213 1.334 . S
C1214 C1215 1.287 . S
C1215 C1214 1.287 . S
C1215 C1216 1.524 . S
C1215 H1218 0.999 . S
C1216 H1186 0.950 . S
C1216 C1215 1.524 . S
C1216 C1217 1.415 . S
C1217 H1187 0.950 . S
C1217 C1212 1.363 . S
C1217 C1216 1.415 . S
H1218 C1215 0.999 . S
H1219 C1200 0.913 . S
H1220 C1238 0.951 . S
H1221 C1240 0.951 . S
H1222 C1242 0.950 . S
H1223 C1243 0.950 . S
H1224 C1245 0.950 . S
H1225 C1248 0.950 . S
H1226 C1249 0.950 . S
H1227 C1251 0.950 . S
H1228 C1252 0.950 . S
H1229 C1253 0.951 . S
H1230 C1255 0.951 . S
H1231 C1257 0.950 . S
H1232 C1258 0.950 . S
H1233 C1260 0.950 . S
H1234 C1263 0.950 . S
H1235 C1264 0.950 . S
H1236 C1266 0.950 . S
H1237 C1267 0.950 . S
C1238 H1220 0.951 . S
C1238 C1239 1.366 . S
C1238 C1240 1.388 . S
C1239 C1238 1.366 . S
C1239 C1243 1.385 . S
C1240 H1221 0.951 . S
C1240 C1238 1.388 . S
C1240 C1241 1.366 . S
C1241 C1240 1.366 . S
C1241 C1242 1.414 . S
C1241 C1244 1.499 . S
C1242 H1222 0.950 . S
C1242 C1241 1.414 . S
C1242 C1243 1.374 . S
C1243 H1223 0.950 . S
C1243 C1239 1.385 . S
C1243 C1242 1.374 . S
C1244 C1241 1.499 . S
C1244 C1245 1.373 . S
C1244 C1246 1.389 . S
C1245 H1224 0.950 . S
C1245 C1244 1.373 . S
C1245 C1261 1.377 . S
C1246 C1244 1.389 . S
C1246 C1247 1.524 . S
C1246 C1260 1.377 . S
C1247 C1246 1.524 . S
C1247 C1248 1.397 . S
C1247 C1252 1.363 . S
C1248 H1225 0.950 . S
C1248 C1247 1.397 . S
C1248 C1249 1.334 . S
C1249 H1226 0.950 . S
C1249 C1248 1.334 . S
C1249 C1250 1.287 . S
C1250 C1249 1.287 . S
C1250 C1251 1.524 . S
C1250 H1269 0.913 . S
C1251 H1227 0.950 . S
C1251 C1250 1.524 . S
C1251 C1252 1.415 . S
C1252 H1228 0.950 . S
C1252 C1247 1.363 . S
C1252 C1251 1.415 . S
C1253 H1229 0.951 . S
C1253 C1254 1.366 . S
C1253 C1255 1.388 . S
C1254 C1253 1.366 . S
C1254 C1258 1.385 . S
C1255 H1230 0.951 . S
C1255 C1253 1.388 . S
C1255 C1256 1.366 . S
C1256 C1255 1.366 . S
C1256 C1257 1.414 . S
C1256 C1259 1.499 . S
C1257 H1231 0.950 . S
C1257 C1256 1.414 . S
C1257 C1258 1.374 . S
C1258 H1232 0.950 . S
C1258 C1254 1.385 . S
C1258 C1257 1.374 . S
C1259 C1256 1.499 . S
C1259 C1260 1.373 . S
C1259 C1261 1.389 . S
C1260 H1233 0.950 . S
C1260 C1246 1.377 . S
C1260 C1259 1.373 . S
C1261 C1245 1.377 . S
C1261 C1259 1.389 . S
C1261 C1262 1.524 . S
C1262 C1261 1.524 . S
C1262 C1263 1.397 . S
C1262 C1267 1.363 . S
C1263 H1234 0.950 . S
C1263 C1262 1.397 . S
C1263 C1264 1.334 . S
C1264 H1235 0.950 . S
C1264 C1263 1.334 . S
C1264 C1265 1.287 . S
C1265 C1264 1.287 . S
C1265 C1266 1.524 . S
C1265 H1268 0.999 . S
C1266 H1236 0.950 . S
C1266 C1265 1.524 . S
C1266 C1267 1.415 . S
C1267 H1237 0.950 . S
C1267 C1262 1.363 . S
C1267 C1266 1.415 . S
H1268 C1265 0.999 . S
H1269 C1250 0.913 . S
H1270 C1288 0.951 . S
H1271 C1290 0.951 . S
H1272 C1292 0.950 . S
H1273 C1293 0.950 . S
H1274 C1295 0.950 . S
H1275 C1298 0.950 . S
H1276 C1299 0.950 . S
H1277 C1301 0.950 . S
H1278 C1302 0.950 . S
H1279 C1303 0.951 . S
H1280 C1305 0.951 . S
H1281 C1307 0.950 . S
H1282 C1308 0.950 . S
H1283 C1310 0.950 . S
H1284 C1313 0.950 . S
H1285 C1314 0.950 . S
H1286 C1316 0.950 . S
H1287 C1317 0.950 . S
C1288 H1270 0.951 . S
C1288 C1289 1.366 . S
C1288 C1290 1.388 . S
C1289 C1288 1.366 . S
C1289 C1293 1.385 . S
C1290 H1271 0.951 . S
C1290 C1288 1.388 . S
C1290 C1291 1.366 . S
C1291 C1290 1.366 . S
C1291 C1292 1.414 . S
C1291 C1294 1.499 . S
C1292 H1272 0.950 . S
C1292 C1291 1.414 . S
C1292 C1293 1.374 . S
C1293 H1273 0.950 . S
C1293 C1289 1.385 . S
C1293 C1292 1.374 . S
C1294 C1291 1.499 . S
C1294 C1295 1.373 . S
C1294 C1296 1.389 . S
C1295 H1274 0.950 . S
C1295 C1294 1.373 . S
C1295 C1311 1.377 . S
C1296 C1294 1.389 . S
C1296 C1297 1.524 . S
C1296 C1310 1.377 . S
C1297 C1296 1.524 . S
C1297 C1298 1.397 . S
C1297 C1302 1.363 . S
C1298 H1275 0.950 . S
C1298 C1297 1.397 . S
C1298 C1299 1.334 . S
C1299 H1276 0.950 . S
C1299 C1298 1.334 . S
C1299 C1300 1.287 . S
C1300 C1299 1.287 . S
C1300 C1301 1.524 . S
C1300 H1319 0.913 . S
C1301 H1277 0.950 . S
C1301 C1300 1.524 . S
C1301 C1302 1.415 . S
C1302 H1278 0.950 . S
C1302 C1297 1.363 . S
C1302 C1301 1.415 . S
C1303 H1279 0.951 . S
C1303 C1304 1.366 . S
C1303 C1305 1.388 . S
C1304 C1303 1.366 . S
C1304 C1308 1.385 . S
C1305 H1280 0.951 . S
C1305 C1303 1.388 . S
C1305 C1306 1.366 . S
C1306 C1305 1.366 . S
C1306 C1307 1.414 . S
C1306 C1309 1.499 . S
C1307 H1281 0.950 . S
C1307 C1306 1.414 . S
C1307 C1308 1.374 . S
C1308 H1282 0.950 . S
C1308 C1304 1.385 . S
C1308 C1307 1.374 . S
C1309 C1306 1.499 . S
C1309 C1310 1.373 . S
C1309 C1311 1.389 . S
C1310 H1283 0.950 . S
C1310 C1296 1.377 . S
C1310 C1309 1.373 . S
C1311 C1295 1.377 . S
C1311 C1309 1.389 . S
C1311 C1312 1.524 . S
C1312 C1311 1.524 . S
C1312 C1313 1.397 . S
C1312 C1317 1.363 . S
C1313 H1284 0.950 . S
C1313 C1312 1.397 . S
C1313 C1314 1.334 . S
C1314 H1285 0.950 . S
C1314 C1313 1.334 . S
C1314 C1315 1.287 . S
C1315 C1314 1.287 . S
C1315 C1316 1.524 . S
C1315 H1318 0.999 . S
C1316 H1286 0.950 . S
C1316 C1315 1.524 . S
C1316 C1317 1.415 . S
C1317 H1287 0.950 . S
C1317 C1312 1.363 . S
C1317 C1316 1.415 . S
H1318 C1315 0.999 . S
H1319 C1300 0.913 . S
H1320 C1338 0.951 . S
H1321 C1340 0.951 . S
H1322 C1342 0.950 . S
H1323 C1343 0.950 . S
H1324 C1345 0.950 . S
H1325 C1348 0.950 . S
H1326 C1349 0.950 . S
H1327 C1351 0.950 . S
H1328 C1352 0.950 . S
H1329 C1353 0.951 1_565 S
H1330 C1355 0.951 . S
H1331 C1357 0.950 . S
H1332 C1358 0.950 . S
H1333 C1360 0.950 . S
H1334 C1363 0.950 . S
H1335 C1364 0.950 . S
H1336 C1366 0.950 . S
H1337 C1367 0.950 . S
C1338 H1320 0.951 . S
C1338 C1339 1.366 . S
C1338 C1340 1.388 . S
C1339 C1338 1.366 . S
C1339 C1343 1.385 . S
C1340 H1321 0.951 . S
C1340 C1338 1.388 . S
C1340 C1341 1.366 . S
C1341 C1340 1.366 . S
C1341 C1342 1.414 . S
C1341 C1344 1.499 . S
C1342 H1322 0.950 . S
C1342 C1341 1.414 . S
C1342 C1343 1.374 . S
C1343 H1323 0.950 . S
C1343 C1339 1.385 . S
C1343 C1342 1.374 . S
C1344 C1341 1.499 . S
C1344 C1345 1.373 . S
C1344 C1346 1.389 . S
C1345 H1324 0.950 . S
C1345 C1344 1.373 . S
C1345 C1361 1.377 . S
C1346 C1344 1.389 . S
C1346 C1347 1.524 . S
C1346 C1360 1.377 . S
C1347 C1346 1.524 . S
C1347 C1348 1.397 . S
C1347 C1352 1.363 . S
C1348 H1325 0.950 . S
C1348 C1347 1.397 . S
C1348 C1349 1.334 . S
C1349 H1326 0.950 . S
C1349 C1348 1.334 . S
C1349 C1350 1.287 . S
C1350 C1349 1.287 . S
C1350 C1351 1.524 . S
C1350 H1369 0.913 . S
C1351 H1327 0.950 . S
C1351 C1350 1.524 . S
C1351 C1352 1.415 . S
C1352 H1328 0.950 . S
C1352 C1347 1.363 . S
C1352 C1351 1.415 . S
C1353 H1329 0.951 1_545 S
C1353 C1354 1.366 . S
C1353 C1355 1.388 . S
C1354 C1353 1.366 . S
C1354 C1358 1.385 . S
C1355 H1330 0.951 . S
C1355 C1353 1.388 . S
C1355 C1356 1.366 . S
C1356 C1355 1.366 . S
C1356 C1357 1.414 . S
C1356 C1359 1.499 . S
C1357 H1331 0.950 . S
C1357 C1356 1.414 . S
C1357 C1358 1.374 . S
C1358 H1332 0.950 . S
C1358 C1354 1.385 . S
C1358 C1357 1.374 . S
C1359 C1356 1.499 . S
C1359 C1360 1.373 . S
C1359 C1361 1.389 . S
C1360 H1333 0.950 . S
C1360 C1346 1.377 . S
C1360 C1359 1.373 . S
C1361 C1345 1.377 . S
C1361 C1359 1.389 . S
C1361 C1362 1.524 . S
C1362 C1361 1.524 . S
C1362 C1363 1.397 . S
C1362 C1367 1.363 . S
C1363 H1334 0.950 . S
C1363 C1362 1.397 . S
C1363 C1364 1.334 . S
C1364 H1335 0.950 . S
C1364 C1363 1.334 . S
C1364 C1365 1.287 1_545 S
C1365 C1364 1.287 1_565 S
C1365 C1366 1.524 . S
C1365 H1368 0.999 . S
C1366 H1336 0.950 . S
C1366 C1365 1.524 . S
C1366 C1367 1.415 1_565 S
C1367 H1337 0.950 . S
C1367 C1362 1.363 . S
C1367 C1366 1.415 1_545 S
H1368 C1365 0.999 . S
H1369 C1350 0.913 . S
H1370 C1388 0.951 . S
H1371 C1390 0.951 . S
H1372 C1392 0.950 . S
H1373 C1393 0.950 . S
H1374 C1395 0.950 . S
H1375 C1398 0.950 . S
H1376 C1399 0.950 . S
H1377 C1401 0.950 . S
H1378 C1402 0.950 . S
H1379 C1403 0.951 . S
H1380 C1405 0.951 . S
H1381 C1407 0.950 . S
H1382 C1408 0.950 . S
H1383 C1410 0.950 . S
H1384 C1413 0.950 . S
H1385 C1414 0.950 . S
H1386 C1416 0.950 . S
H1387 C1417 0.950 . S
C1388 H1370 0.951 . S
C1388 C1389 1.366 . S
C1388 C1390 1.388 . S
C1389 C1388 1.366 . S
C1389 C1393 1.385 . S
C1390 H1371 0.951 . S
C1390 C1388 1.388 . S
C1390 C1391 1.366 . S
C1391 C1390 1.366 . S
C1391 C1392 1.414 . S
C1391 C1394 1.499 . S
C1392 H1372 0.950 . S
C1392 C1391 1.414 . S
C1392 C1393 1.374 . S
C1393 H1373 0.950 . S
C1393 C1389 1.385 . S
C1393 C1392 1.374 . S
C1394 C1391 1.499 . S
C1394 C1395 1.373 . S
C1394 C1396 1.389 . S
C1395 H1374 0.950 . S
C1395 C1394 1.373 . S
C1395 C1411 1.377 . S
C1396 C1394 1.389 . S
C1396 C1397 1.524 . S
C1396 C1410 1.377 . S
C1397 C1396 1.524 . S
C1397 C1398 1.397 . S
C1397 C1402 1.363 . S
C1398 H1375 0.950 . S
C1398 C1397 1.397 . S
C1398 C1399 1.334 . S
C1399 H1376 0.950 . S
C1399 C1398 1.334 . S
C1399 C1400 1.287 . S
C1400 C1399 1.287 . S
C1400 C1401 1.524 . S
C1400 H1419 0.913 . S
C1401 H1377 0.950 . S
C1401 C1400 1.524 . S
C1401 C1402 1.415 . S
C1402 H1378 0.950 . S
C1402 C1397 1.363 . S
C1402 C1401 1.415 . S
C1403 H1379 0.951 . S
C1403 C1404 1.366 . S
C1403 C1405 1.388 . S
C1404 C1403 1.366 . S
C1404 C1408 1.385 . S
C1405 H1380 0.951 . S
C1405 C1403 1.388 . S
C1405 C1406 1.366 . S
C1406 C1405 1.366 . S
C1406 C1407 1.414 . S
C1406 C1409 1.499 . S
C1407 H1381 0.950 . S
C1407 C1406 1.414 . S
C1407 C1408 1.374 . S
C1408 H1382 0.950 . S
C1408 C1404 1.385 . S
C1408 C1407 1.374 . S
C1409 C1406 1.499 . S
C1409 C1410 1.373 . S
C1409 C1411 1.389 . S
C1410 H1383 0.950 . S
C1410 C1396 1.377 . S
C1410 C1409 1.373 . S
C1411 C1395 1.377 . S
C1411 C1409 1.389 . S
C1411 C1412 1.524 . S
C1412 C1411 1.524 . S
C1412 C1413 1.397 . S
C1412 C1417 1.363 . S
C1413 H1384 0.950 . S
C1413 C1412 1.397 . S
C1413 C1414 1.334 . S
C1414 H1385 0.950 . S
C1414 C1413 1.334 . S
C1414 C1415 1.287 . S
C1415 C1414 1.287 . S
C1415 C1416 1.524 . S
C1415 H1418 0.999 . S
C1416 H1386 0.950 . S
C1416 C1415 1.524 . S
C1416 C1417 1.415 . S
C1417 H1387 0.950 . S
C1417 C1412 1.363 . S
C1417 C1416 1.415 . S
H1418 C1415 0.999 . S
H1419 C1400 0.913 . S
H1420 C1438 0.951 . S
H1421 C1440 0.951 . S
H1422 C1442 0.950 . S
H1423 C1443 0.950 . S
H1424 C1445 0.950 . S
H1425 C1448 0.950 . S
H1426 C1449 0.950 . S
H1427 C1451 0.950 . S
H1428 C1452 0.950 . S
H1429 C1453 0.951 . S
H1430 C1455 0.951 . S
H1431 C1457 0.950 . S
H1432 C1458 0.950 . S
H1433 C1460 0.950 . S
H1434 C1463 0.950 . S
H1435 C1464 0.950 . S
H1436 C1466 0.950 . S
H1437 C1467 0.950 . S
C1438 H1420 0.951 . S
C1438 C1439 1.366 . S
C1438 C1440 1.388 . S
C1439 C1438 1.366 . S
C1439 C1443 1.385 . S
C1440 H1421 0.951 . S
C1440 C1438 1.388 . S
C1440 C1441 1.366 . S
C1441 C1440 1.366 . S
C1441 C1442 1.414 . S
C1441 C1444 1.499 . S
C1442 H1422 0.950 . S
C1442 C1441 1.414 . S
C1442 C1443 1.374 . S
C1443 H1423 0.950 . S
C1443 C1439 1.385 . S
C1443 C1442 1.374 . S
C1444 C1441 1.499 . S
C1444 C1445 1.373 . S
C1444 C1446 1.389 . S
C1445 H1424 0.950 . S
C1445 C1444 1.373 . S
C1445 C1461 1.377 . S
C1446 C1444 1.389 . S
C1446 C1447 1.524 . S
C1446 C1460 1.377 . S
C1447 C1446 1.524 . S
C1447 C1448 1.397 . S
C1447 C1452 1.363 . S
C1448 H1425 0.950 . S
C1448 C1447 1.397 . S
C1448 C1449 1.334 . S
C1449 H1426 0.950 . S
C1449 C1448 1.334 . S
C1449 C1450 1.287 . S
C1450 C1449 1.287 . S
C1450 C1451 1.524 . S
C1450 H1469 0.913 . S
C1451 H1427 0.950 . S
C1451 C1450 1.524 . S
C1451 C1452 1.415 . S
C1452 H1428 0.950 . S
C1452 C1447 1.363 . S
C1452 C1451 1.415 . S
C1453 H1429 0.951 . S
C1453 C1454 1.366 . S
C1453 C1455 1.388 . S
C1454 C1453 1.366 . S
C1454 C1458 1.385 . S
C1455 H1430 0.951 . S
C1455 C1453 1.388 . S
C1455 C1456 1.366 . S
C1456 C1455 1.366 . S
C1456 C1457 1.414 . S
C1456 C1459 1.499 . S
C1457 H1431 0.950 . S
C1457 C1456 1.414 . S
C1457 C1458 1.374 . S
C1458 H1432 0.950 . S
C1458 C1454 1.385 . S
C1458 C1457 1.374 . S
C1459 C1456 1.499 . S
C1459 C1460 1.373 . S
C1459 C1461 1.389 . S
C1460 H1433 0.950 . S
C1460 C1446 1.377 . S
C1460 C1459 1.373 . S
C1461 C1445 1.377 . S
C1461 C1459 1.389 . S
C1461 C1462 1.524 . S
C1462 C1461 1.524 . S
C1462 C1463 1.397 . S
C1462 C1467 1.363 . S
C1463 H1434 0.950 . S
C1463 C1462 1.397 . S
C1463 C1464 1.334 . S
C1464 H1435 0.950 . S
C1464 C1463 1.334 . S
C1464 C1465 1.287 . S
C1465 C1464 1.287 . S
C1465 C1466 1.524 . S
C1465 H1468 0.999 . S
C1466 H1436 0.950 . S
C1466 C1465 1.524 . S
C1466 C1467 1.415 . S
C1467 H1437 0.950 . S
C1467 C1462 1.363 . S
C1467 C1466 1.415 . S
H1468 C1465 0.999 . S
H1469 C1450 0.913 . S
H1470 C1488 0.951 . S
H1471 C1490 0.951 . S
H1472 C1492 0.950 . S
H1473 C1493 0.950 . S
H1474 C1495 0.950 . S
H1475 C1498 0.950 . S
H1476 C1499 0.950 . S
H1477 C1501 0.950 . S
H1478 C1502 0.950 . S
H1479 C1503 0.951 . S
H1480 C1505 0.951 . S
H1481 C1507 0.950 . S
H1482 C1508 0.950 . S
H1483 C1510 0.950 . S
H1484 C1513 0.950 . S
H1485 C1514 0.980 . S
H1486 C1516 0.950 . S
H1487 C1517 0.950 . S
C1488 H1470 0.951 . S
C1488 C1489 1.366 . S
C1488 C1490 1.388 . S
C1489 C1488 1.366 . S
C1489 C1493 1.385 . S
C1490 H1471 0.951 . S
C1490 C1488 1.388 . S
C1490 C1491 1.366 . S
C1491 C1490 1.366 . S
C1491 C1492 1.414 . S
C1491 C1494 1.499 . S
C1492 H1472 0.950 . S
C1492 C1491 1.414 . S
C1492 C1493 1.374 . S
C1493 H1473 0.950 . S
C1493 C1489 1.385 . S
C1493 C1492 1.374 . S
C1494 C1491 1.499 . S
C1494 C1495 1.373 . S
C1494 C1496 1.389 . S
C1495 H1474 0.950 . S
C1495 C1494 1.373 . S
C1495 C1511 1.377 . S
C1496 C1494 1.389 . S
C1496 C1497 1.524 . S
C1496 C1510 1.377 . S
C1497 C1496 1.524 . S
C1497 C1498 1.397 . S
C1497 C1502 1.363 . S
C1498 H1475 0.950 . S
C1498 C1497 1.397 . S
C1498 C1499 1.334 . S
C1499 H1476 0.950 . S
C1499 C1498 1.334 . S
C1499 C1500 1.287 . S
C1500 C1499 1.287 . S
C1500 C1501 1.524 . S
C1500 H1519 0.913 . S
C1501 H1477 0.950 . S
C1501 C1500 1.524 . S
C1501 C1502 1.415 . S
C1502 H1478 0.950 . S
C1502 C1497 1.363 . S
C1502 C1501 1.415 . S
C1503 H1479 0.951 . S
C1503 C1504 1.366 . S
C1503 C1505 1.388 . S
C1504 C1503 1.366 . S
C1504 C1508 1.385 . S
C1505 H1480 0.951 . S
C1505 C1503 1.388 . S
C1505 C1506 1.366 . S
C1506 C1505 1.366 . S
C1506 C1507 1.414 . S
C1506 C1509 1.499 . S
C1507 H1481 0.950 . S
C1507 C1506 1.414 . S
C1507 C1508 1.374 . S
C1508 H1482 0.950 . S
C1508 C1504 1.385 . S
C1508 C1507 1.374 . S
C1509 C1506 1.499 . S
C1509 C1510 1.373 . S
C1509 C1511 1.389 . S
C1510 H1483 0.950 . S
C1510 C1496 1.377 . S
C1510 C1509 1.373 . S
C1511 C1495 1.377 . S
C1511 C1509 1.389 . S
C1511 C1512 1.524 . S
C1512 C1511 1.524 . S
C1512 C1513 1.397 . S
C1512 C1517 1.363 . S
C1513 H1484 0.950 . S
C1513 C1512 1.397 . S
C1513 C1514 1.313 1_455 S
C1514 H1485 0.980 . S
C1514 C1513 1.313 1_655 S
C1514 C1515 1.277 1_655 S
C1515 C1514 1.277 1_455 S
C1515 C1516 1.524 . S
C1515 H1518 0.999 1_455 S
C1516 H1486 0.950 . S
C1516 C1515 1.524 . S
C1516 C1517 1.415 . S
C1517 H1487 0.950 . S
C1517 C1512 1.363 . S
C1517 C1516 1.415 . S
H1518 C1515 0.999 1_655 S
H1519 C1500 0.913 . S
H1520 C1538 0.951 . S
H1521 C1540 0.951 . S
H1522 C1542 0.950 . S
H1523 C1543 0.950 . S
H1524 C1545 0.950 . S
H1525 C1548 0.950 . S
H1526 C1549 0.950 . S
H1527 C1551 0.950 . S
H1528 C1552 0.950 . S
H1529 C1553 0.951 . S
H1530 C1555 0.951 . S
H1531 C1557 0.950 . S
H1532 C1558 0.950 . S
H1533 C1560 0.950 . S
H1534 C1563 0.950 . S
H1535 C1564 0.950 . S
H1536 C1566 0.950 . S
H1537 C1567 0.950 . S
C1538 H1520 0.951 . S
C1538 C1539 1.366 . S
C1538 C1540 1.388 . S
C1539 C1538 1.366 . S
C1539 C1543 1.385 . S
C1540 H1521 0.951 . S
C1540 C1538 1.388 . S
C1540 C1541 1.366 . S
C1541 C1540 1.366 . S
C1541 C1542 1.414 . S
C1541 C1544 1.499 . S
C1542 H1522 0.950 . S
C1542 C1541 1.414 . S
C1542 C1543 1.374 . S
C1543 H1523 0.950 . S
C1543 C1539 1.385 . S
C1543 C1542 1.374 . S
C1544 C1541 1.499 . S
C1544 C1545 1.373 . S
C1544 C1546 1.389 . S
C1545 H1524 0.950 . S
C1545 C1544 1.373 . S
C1545 C1561 1.377 . S
C1546 C1544 1.389 . S
C1546 C1547 1.524 . S
C1546 C1560 1.377 . S
C1547 C1546 1.524 . S
C1547 C1548 1.397 . S
C1547 C1552 1.363 . S
C1548 H1525 0.950 . S
C1548 C1547 1.397 . S
C1548 C1549 1.334 . S
C1549 H1526 0.950 . S
C1549 C1548 1.334 . S
C1549 C1550 1.287 . S
C1550 C1549 1.287 . S
C1550 C1551 1.524 . S
C1550 H1569 0.913 . S
C1551 H1527 0.950 . S
C1551 C1550 1.524 . S
C1551 C1552 1.415 . S
C1552 H1528 0.950 . S
C1552 C1547 1.363 . S
C1552 C1551 1.415 . S
C1553 H1529 0.951 . S
C1553 C1554 1.366 . S
C1553 C1555 1.388 . S
C1554 C1553 1.366 . S
C1554 C1558 1.385 . S
C1555 H1530 0.951 . S
C1555 C1553 1.388 . S
C1555 C1556 1.366 . S
C1556 C1555 1.366 . S
C1556 C1557 1.414 . S
C1556 C1559 1.499 . S
C1557 H1531 0.950 . S
C1557 C1556 1.414 . S
C1557 C1558 1.374 . S
C1558 H1532 0.950 . S
C1558 C1554 1.385 . S
C1558 C1557 1.374 . S
C1559 C1556 1.499 . S
C1559 C1560 1.373 . S
C1559 C1561 1.389 . S
C1560 H1533 0.950 . S
C1560 C1546 1.377 . S
C1560 C1559 1.373 . S
C1561 C1545 1.377 . S
C1561 C1559 1.389 . S
C1561 C1562 1.524 . S
C1562 C1561 1.524 . S
C1562 C1563 1.397 . S
C1562 C1567 1.363 . S
C1563 H1534 0.950 . S
C1563 C1562 1.397 . S
C1563 C1564 1.334 . S
C1564 H1535 0.950 . S
C1564 C1563 1.334 . S
C1564 C1565 1.287 . S
C1565 C1564 1.287 . S
C1565 C1566 1.524 . S
C1565 H1568 0.999 . S
C1566 H1536 0.950 . S
C1566 C1565 1.524 . S
C1566 C1567 1.415 . S
C1567 H1537 0.950 . S
C1567 C1562 1.363 . S
C1567 C1566 1.415 . S
H1568 C1565 0.999 . S
H1569 C1550 0.913 . S
H1570 C1588 0.951 . S
H1571 C1590 0.951 . S
H1572 C1592 0.950 . S
H1573 C1593 0.950 . S
H1574 C1595 0.950 . S
H1575 C1598 0.950 . S
H1576 C1599 0.950 . S
H1577 C1601 0.950 . S
H1578 C1602 0.950 . S
H1579 C1603 0.951 . S
H1580 C1605 0.951 . S
H1581 C1607 0.950 . S
H1582 C1608 0.950 . S
H1583 C1610 0.950 . S
H1584 C1613 0.950 . S
H1585 C1614 0.950 . S
H1586 C1616 0.950 . S
H1587 C1617 0.950 . S
C1588 H1570 0.951 . S
C1588 C1589 1.366 . S
C1588 C1590 1.388 . S
C1589 C1588 1.366 . S
C1589 C1593 1.385 . S
C1590 H1571 0.951 . S
C1590 C1588 1.388 . S
C1590 C1591 1.366 . S
C1591 C1590 1.366 . S
C1591 C1592 1.414 . S
C1591 C1594 1.499 . S
C1592 H1572 0.950 . S
C1592 C1591 1.414 . S
C1592 C1593 1.374 . S
C1593 H1573 0.950 . S
C1593 C1589 1.385 . S
C1593 C1592 1.374 . S
C1594 C1591 1.499 . S
C1594 C1595 1.373 . S
C1594 C1596 1.389 . S
C1595 H1574 0.950 . S
C1595 C1594 1.373 . S
C1595 C1611 1.377 . S
C1596 C1594 1.389 . S
C1596 C1597 1.524 . S
C1596 C1610 1.377 . S
C1597 C1596 1.524 . S
C1597 C1598 1.397 . S
C1597 C1602 1.363 . S
C1598 H1575 0.950 . S
C1598 C1597 1.397 . S
C1598 C1599 1.334 . S
C1599 H1576 0.950 . S
C1599 C1598 1.334 . S
C1599 C1600 1.287 . S
C1600 C1599 1.287 . S
C1600 C1601 1.524 . S
C1600 H1619 0.913 . S
C1601 H1577 0.950 . S
C1601 C1600 1.524 . S
C1601 C1602 1.415 . S
C1602 H1578 0.950 . S
C1602 C1597 1.363 . S
C1602 C1601 1.415 . S
C1603 H1579 0.951 . S
C1603 C1604 1.366 . S
C1603 C1605 1.388 . S
C1604 C1603 1.366 . S
C1604 C1608 1.385 . S
C1605 H1580 0.951 . S
C1605 C1603 1.388 . S
C1605 C1606 1.366 . S
C1606 C1605 1.366 . S
C1606 C1607 1.414 . S
C1606 C1609 1.499 . S
C1607 H1581 0.950 . S
C1607 C1606 1.414 . S
C1607 C1608 1.374 . S
C1608 H1582 0.950 . S
C1608 C1604 1.385 . S
C1608 C1607 1.374 . S
C1609 C1606 1.499 . S
C1609 C1610 1.373 . S
C1609 C1611 1.389 . S
C1610 H1583 0.950 . S
C1610 C1596 1.377 . S
C1610 C1609 1.373 . S
C1611 C1595 1.377 . S
C1611 C1609 1.389 . S
C1611 C1612 1.524 . S
C1612 C1611 1.524 . S
C1612 C1613 1.397 . S
C1612 C1617 1.363 . S
C1613 H1584 0.950 . S
C1613 C1612 1.397 . S
C1613 C1614 1.334 . S
C1614 H1585 0.950 . S
C1614 C1613 1.334 . S
C1614 C1615 1.287 . S
C1615 C1614 1.287 . S
C1615 C1616 1.524 . S
C1615 H1618 0.999 . S
C1616 H1586 0.950 . S
C1616 C1615 1.524 . S
C1616 C1617 1.415 . S
C1617 H1587 0.950 . S
C1617 C1612 1.363 . S
C1617 C1616 1.415 . S
H1618 C1615 0.999 . S
H1619 C1600 0.913 . S
H1620 C1638 0.951 . S
H1621 C1640 0.951 . S
H1622 C1642 0.950 . S
H1623 C1643 0.950 . S
H1624 C1645 0.950 . S
H1625 C1648 0.950 . S
H1626 C1649 0.950 . S
H1627 C1651 0.950 . S
H1628 C1652 0.950 . S
H1629 C1653 0.951 . S
H1630 C1655 0.951 . S
H1631 C1657 0.950 . S
H1632 C1658 0.950 . S
H1633 C1660 0.950 . S
H1634 C1663 0.950 . S
H1635 C1664 0.950 . S
H1636 C1666 0.950 . S
H1637 C1667 0.950 . S
C1638 H1620 0.951 . S
C1638 C1639 1.366 . S
C1638 C1640 1.388 . S
C1639 C1638 1.366 . S
C1639 C1643 1.385 . S
C1640 H1621 0.951 . S
C1640 C1638 1.388 . S
C1640 C1641 1.366 . S
C1641 C1640 1.366 . S
C1641 C1642 1.414 . S
C1641 C1644 1.499 . S
C1642 H1622 0.950 . S
C1642 C1641 1.414 . S
C1642 C1643 1.374 . S
C1643 H1623 0.950 . S
C1643 C1639 1.385 . S
C1643 C1642 1.374 . S
C1644 C1641 1.499 . S
C1644 C1645 1.373 . S
C1644 C1646 1.389 . S
C1645 H1624 0.950 . S
C1645 C1644 1.373 . S
C1645 C1661 1.377 . S
C1646 C1644 1.389 . S
C1646 C1647 1.524 . S
C1646 C1660 1.377 . S
C1647 C1646 1.524 . S
C1647 C1648 1.397 . S
C1647 C1652 1.363 . S
C1648 H1625 0.950 . S
C1648 C1647 1.397 . S
C1648 C1649 1.334 . S
C1649 H1626 0.950 . S
C1649 C1648 1.334 . S
C1649 C1650 1.287 . S
C1650 C1649 1.287 . S
C1650 C1651 1.524 . S
C1650 H1669 0.913 . S
C1651 H1627 0.950 . S
C1651 C1650 1.524 . S
C1651 C1652 1.415 . S
C1652 H1628 0.950 . S
C1652 C1647 1.363 . S
C1652 C1651 1.415 . S
C1653 H1629 0.951 . S
C1653 C1654 1.366 . S
C1653 C1655 1.388 . S
C1654 C1653 1.366 . S
C1654 C1658 1.385 . S
C1655 H1630 0.951 . S
C1655 C1653 1.388 . S
C1655 C1656 1.366 . S
C1656 C1655 1.366 . S
C1656 C1657 1.414 . S
C1656 C1659 1.499 . S
C1657 H1631 0.950 . S
C1657 C1656 1.414 . S
C1657 C1658 1.374 . S
C1658 H1632 0.950 . S
C1658 C1654 1.385 . S
C1658 C1657 1.374 . S
C1659 C1656 1.499 . S
C1659 C1660 1.373 . S
C1659 C1661 1.389 . S
C1660 H1633 0.950 . S
C1660 C1646 1.377 . S
C1660 C1659 1.373 . S
C1661 C1645 1.377 . S
C1661 C1659 1.389 . S
C1661 C1662 1.524 . S
C1662 C1661 1.524 . S
C1662 C1663 1.397 . S
C1662 C1667 1.363 . S
C1663 H1634 0.950 . S
C1663 C1662 1.397 . S
C1663 C1664 1.334 . S
C1664 H1635 0.950 . S
C1664 C1663 1.334 . S
C1664 C1665 1.287 . S
C1665 C1664 1.287 . S
C1665 C1666 1.524 . S
C1665 H1668 0.999 . S
C1666 H1636 0.950 . S
C1666 C1665 1.524 . S
C1666 C1667 1.415 . S
C1667 H1637 0.950 . S
C1667 C1662 1.363 . S
C1667 C1666 1.415 . S
H1668 C1665 0.999 . S
H1669 C1650 0.913 . S
H1670 C1688 0.951 . S
H1671 C1690 0.951 . S
H1672 C1692 0.950 . S
H1673 C1693 0.950 . S
H1674 C1695 0.950 . S
H1675 C1698 0.950 . S
H1676 C1699 0.950 . S
H1677 C1701 0.950 . S
H1678 C1702 0.950 . S
H1679 C1703 0.951 . S
H1680 C1705 0.951 . S
H1681 C1707 0.950 . S
H1682 C1708 0.950 . S
H1683 C1710 0.950 . S
H1684 C1713 0.950 . S
H1685 C1714 0.950 . S
H1686 C1716 0.950 . S
H1687 C1717 0.950 . S
C1688 H1670 0.951 . S
C1688 C1689 1.366 . S
C1688 C1690 1.388 . S
C1689 C1688 1.366 . S
C1689 C1693 1.385 . S
C1690 H1671 0.951 . S
C1690 C1688 1.388 . S
C1690 C1691 1.366 . S
C1691 C1690 1.366 . S
C1691 C1692 1.414 . S
C1691 C1694 1.499 . S
C1692 H1672 0.950 . S
C1692 C1691 1.414 . S
C1692 C1693 1.374 . S
C1693 H1673 0.950 . S
C1693 C1689 1.385 . S
C1693 C1692 1.374 . S
C1694 C1691 1.499 . S
C1694 C1695 1.373 . S
C1694 C1696 1.389 . S
C1695 H1674 0.950 . S
C1695 C1694 1.373 . S
C1695 C1711 1.377 . S
C1696 C1694 1.389 . S
C1696 C1697 1.524 . S
C1696 C1710 1.377 . S
C1697 C1696 1.524 . S
C1697 C1698 1.397 . S
C1697 C1702 1.363 . S
C1698 H1675 0.950 . S
C1698 C1697 1.397 . S
C1698 C1699 1.334 . S
C1699 H1676 0.950 . S
C1699 C1698 1.334 . S
C1699 C1700 1.287 . S
C1700 C1699 1.287 . S
C1700 C1701 1.524 . S
C1700 H1719 0.913 . S
C1701 H1677 0.950 . S
C1701 C1700 1.524 . S
C1701 C1702 1.415 . S
C1702 H1678 0.950 . S
C1702 C1697 1.363 . S
C1702 C1701 1.415 . S
C1703 H1679 0.951 . S
C1703 C1704 1.366 . S
C1703 C1705 1.388 . S
C1704 C1703 1.366 . S
C1704 C1708 1.385 . S
C1705 H1680 0.951 . S
C1705 C1703 1.388 . S
C1705 C1706 1.366 . S
C1706 C1705 1.366 . S
C1706 C1707 1.414 . S
C1706 C1709 1.499 . S
C1707 H1681 0.950 . S
C1707 C1706 1.414 . S
C1707 C1708 1.374 . S
C1708 H1682 0.950 . S
C1708 C1704 1.385 . S
C1708 C1707 1.374 . S
C1709 C1706 1.499 . S
C1709 C1710 1.373 . S
C1709 C1711 1.389 . S
C1710 H1683 0.950 . S
C1710 C1696 1.377 . S
C1710 C1709 1.373 . S
C1711 C1695 1.377 . S
C1711 C1709 1.389 . S
C1711 C1712 1.524 . S
C1712 C1711 1.524 . S
C1712 C1713 1.397 . S
C1712 C1717 1.363 . S
C1713 H1684 0.950 . S
C1713 C1712 1.397 . S
C1713 C1714 1.334 . S
C1714 H1685 0.950 . S
C1714 C1713 1.334 . S
C1714 C1715 1.287 . S
C1715 C1714 1.287 . S
C1715 C1716 1.524 . S
C1715 H1718 0.999 . S
C1716 H1686 0.950 . S
C1716 C1715 1.524 . S
C1716 C1717 1.415 . S
C1717 H1687 0.950 . S
C1717 C1712 1.363 . S
C1717 C1716 1.415 . S
H1718 C1715 0.999 . S
H1719 C1700 0.913 . S
H1720 C1738 0.951 . S
H1721 C1740 0.951 . S
H1722 C1742 0.950 . S
H1723 C1743 0.950 . S
H1724 C1745 0.950 . S
H1725 C1748 0.950 . S
H1726 C1749 0.950 . S
H1727 C1751 0.950 . S
H1728 C1752 0.950 . S
H1729 C1753 0.951 . S
H1730 C1755 0.951 . S
H1731 C1757 0.950 . S
H1732 C1758 0.950 . S
H1733 C1760 0.950 . S
H1734 C1763 0.950 . S
H1735 C1764 0.950 . S
H1736 C1766 0.950 . S
H1737 C1767 0.950 . S
C1738 H1720 0.951 . S
C1738 C1739 1.366 . S
C1738 C1740 1.388 . S
C1739 C1738 1.366 . S
C1739 C1743 1.385 . S
C1740 H1721 0.951 . S
C1740 C1738 1.388 . S
C1740 C1741 1.366 . S
C1741 C1740 1.366 . S
C1741 C1742 1.414 . S
C1741 C1744 1.499 . S
C1742 H1722 0.950 . S
C1742 C1741 1.414 . S
C1742 C1743 1.374 . S
C1743 H1723 0.950 . S
C1743 C1739 1.385 . S
C1743 C1742 1.374 . S
C1744 C1741 1.499 . S
C1744 C1745 1.373 . S
C1744 C1746 1.389 . S
C1745 H1724 0.950 . S
C1745 C1744 1.373 . S
C1745 C1761 1.377 . S
C1746 C1744 1.389 . S
C1746 C1747 1.524 . S
C1746 C1760 1.377 . S
C1747 C1746 1.524 . S
C1747 C1748 1.397 . S
C1747 C1752 1.363 . S
C1748 H1725 0.950 . S
C1748 C1747 1.397 . S
C1748 C1749 1.334 . S
C1749 H1726 0.950 . S
C1749 C1748 1.334 . S
C1749 C1750 1.287 . S
C1750 C1749 1.287 . S
C1750 C1751 1.524 . S
C1750 H1769 0.913 . S
C1751 H1727 0.950 . S
C1751 C1750 1.524 . S
C1751 C1752 1.415 . S
C1752 H1728 0.950 . S
C1752 C1747 1.363 . S
C1752 C1751 1.415 . S
C1753 H1729 0.951 . S
C1753 C1754 1.366 . S
C1753 C1755 1.388 . S
C1754 C1753 1.366 . S
C1754 C1758 1.385 . S
C1755 H1730 0.951 . S
C1755 C1753 1.388 . S
C1755 C1756 1.366 . S
C1756 C1755 1.366 . S
C1756 C1757 1.414 . S
C1756 C1759 1.499 . S
C1757 H1731 0.950 . S
C1757 C1756 1.414 . S
C1757 C1758 1.374 . S
C1758 H1732 0.950 . S
C1758 C1754 1.385 . S
C1758 C1757 1.374 . S
C1759 C1756 1.499 . S
C1759 C1760 1.373 . S
C1759 C1761 1.389 . S
C1760 H1733 0.950 . S
C1760 C1746 1.377 . S
C1760 C1759 1.373 . S
C1761 C1745 1.377 . S
C1761 C1759 1.389 . S
C1761 C1762 1.524 . S
C1762 C1761 1.524 . S
C1762 C1763 1.397 . S
C1762 C1767 1.363 . S
C1763 H1734 0.950 . S
C1763 C1762 1.397 . S
C1763 C1764 1.334 . S
C1764 H1735 0.950 . S
C1764 C1763 1.334 . S
C1764 C1765 1.287 . S
C1765 C1764 1.287 . S
C1765 C1766 1.524 . S
C1765 H1768 0.999 . S
C1766 H1736 0.950 . S
C1766 C1765 1.524 . S
C1766 C1767 1.415 . S
C1767 H1737 0.950 . S
C1767 C1762 1.363 . S
C1767 C1766 1.415 . S
H1768 C1765 0.999 . S
H1769 C1750 0.913 . S
H1770 C1788 0.951 . S
H1771 C1790 0.951 . S
H1772 C1792 0.950 . S
H1773 C1793 0.950 . S
H1774 C1795 0.950 . S
H1775 C1798 0.950 . S
H1776 C1799 0.950 . S
H1777 C1801 0.950 . S
H1778 C1802 0.950 . S
H1779 C1803 0.951 . S
H1780 C1805 0.951 . S
H1781 C1807 0.950 . S
H1782 C1808 0.950 . S
H1783 C1810 0.950 . S
H1784 C1813 0.950 . S
H1785 C1814 0.950 . S
H1786 C1816 0.950 . S
H1787 C1817 0.950 . S
C1788 H1770 0.951 . S
C1788 C1789 1.366 . S
C1788 C1790 1.388 . S
C1789 C1788 1.366 . S
C1789 C1793 1.385 . S
C1790 H1771 0.951 . S
C1790 C1788 1.388 . S
C1790 C1791 1.366 . S
C1791 C1790 1.366 . S
C1791 C1792 1.414 . S
C1791 C1794 1.499 . S
C1792 H1772 0.950 . S
C1792 C1791 1.414 . S
C1792 C1793 1.374 . S
C1793 H1773 0.950 . S
C1793 C1789 1.385 . S
C1793 C1792 1.374 . S
C1794 C1791 1.499 . S
C1794 C1795 1.373 . S
C1794 C1796 1.389 . S
C1795 H1774 0.950 . S
C1795 C1794 1.373 . S
C1795 C1811 1.377 . S
C1796 C1794 1.389 . S
C1796 C1797 1.524 . S
C1796 C1810 1.377 . S
C1797 C1796 1.524 . S
C1797 C1798 1.397 . S
C1797 C1802 1.363 . S
C1798 H1775 0.950 . S
C1798 C1797 1.397 . S
C1798 C1799 1.334 . S
C1799 H1776 0.950 . S
C1799 C1798 1.334 . S
C1799 C1800 1.287 . S
C1800 C1799 1.287 . S
C1800 C1801 1.524 . S
C1800 H1819 0.913 . S
C1801 H1777 0.950 . S
C1801 C1800 1.524 . S
C1801 C1802 1.415 . S
C1802 H1778 0.950 . S
C1802 C1797 1.363 . S
C1802 C1801 1.415 . S
C1803 H1779 0.951 . S
C1803 C1804 1.366 . S
C1803 C1805 1.388 . S
C1804 C1803 1.366 . S
C1804 C1808 1.385 . S
C1805 H1780 0.951 . S
C1805 C1803 1.388 . S
C1805 C1806 1.366 . S
C1806 C1805 1.366 . S
C1806 C1807 1.414 . S
C1806 C1809 1.499 . S
C1807 H1781 0.950 . S
C1807 C1806 1.414 . S
C1807 C1808 1.374 . S
C1808 H1782 0.950 . S
C1808 C1804 1.385 . S
C1808 C1807 1.374 . S
C1809 C1806 1.499 . S
C1809 C1810 1.373 . S
C1809 C1811 1.389 . S
C1810 H1783 0.950 . S
C1810 C1796 1.377 . S
C1810 C1809 1.373 . S
C1811 C1795 1.377 . S
C1811 C1809 1.389 . S
C1811 C1812 1.524 . S
C1812 C1811 1.524 . S
C1812 C1813 1.397 . S
C1812 C1817 1.363 . S
C1813 H1784 0.950 . S
C1813 C1812 1.397 . S
C1813 C1814 1.334 . S
C1814 H1785 0.950 . S
C1814 C1813 1.334 . S
C1814 C1815 1.287 . S
C1815 C1814 1.287 . S
C1815 C1816 1.524 . S
C1815 H1818 0.999 . S
C1816 H1786 0.950 . S
C1816 C1815 1.524 . S
C1816 C1817 1.415 . S
C1817 H1787 0.950 . S
C1817 C1812 1.363 . S
C1817 C1816 1.415 . S
H1818 C1815 0.999 . S
H1819 C1800 0.913 . S
H1820 C1838 0.951 . S
H1821 C1840 0.951 . S
H1822 C1842 0.950 . S
H1823 C1843 0.950 . S
H1824 C1845 0.950 . S
H1825 C1848 0.950 . S
H1826 C1849 0.950 . S
H1827 C1851 0.950 . S
H1828 C1852 0.950 . S
H1829 C1853 0.951 . S
H1830 C1855 0.951 . S
H1831 C1857 0.950 . S
H1832 C1858 0.950 . S
H1833 C1860 0.950 . S
H1834 C1863 0.950 . S
H1835 C1864 0.950 . S
H1836 C1866 0.950 . S
H1837 C1867 0.950 . S
C1838 H1820 0.951 . S
C1838 C1839 1.366 . S
C1838 C1840 1.388 . S
C1839 C1838 1.366 . S
C1839 C1843 1.385 . S
C1840 H1821 0.951 . S
C1840 C1838 1.388 . S
C1840 C1841 1.366 . S
C1841 C1840 1.366 . S
C1841 C1842 1.414 . S
C1841 C1844 1.499 . S
C1842 H1822 0.950 . S
C1842 C1841 1.414 . S
C1842 C1843 1.374 . S
C1843 H1823 0.950 . S
C1843 C1839 1.385 . S
C1843 C1842 1.374 . S
C1844 C1841 1.499 . S
C1844 C1845 1.373 . S
C1844 C1846 1.389 . S
C1845 H1824 0.950 . S
C1845 C1844 1.373 . S
C1845 C1861 1.377 . S
C1846 C1844 1.389 . S
C1846 C1847 1.524 . S
C1846 C1860 1.377 . S
C1847 C1846 1.524 . S
C1847 C1848 1.397 . S
C1847 C1852 1.363 . S
C1848 H1825 0.950 . S
C1848 C1847 1.397 . S
C1848 C1849 1.334 . S
C1849 H1826 0.950 . S
C1849 C1848 1.334 . S
C1849 C1850 1.287 . S
C1850 C1849 1.287 . S
C1850 C1851 1.524 . S
C1850 H1869 0.913 . S
C1851 H1827 0.950 . S
C1851 C1850 1.524 . S
C1851 C1852 1.415 . S
C1852 H1828 0.950 . S
C1852 C1847 1.363 . S
C1852 C1851 1.415 . S
C1853 H1829 0.951 . S
C1853 C1854 1.366 . S
C1853 C1855 1.388 . S
C1854 C1853 1.366 . S
C1854 C1858 1.385 . S
C1855 H1830 0.951 . S
C1855 C1853 1.388 . S
C1855 C1856 1.366 . S
C1856 C1855 1.366 . S
C1856 C1857 1.414 . S
C1856 C1859 1.499 . S
C1857 H1831 0.950 . S
C1857 C1856 1.414 . S
C1857 C1858 1.374 . S
C1858 H1832 0.950 . S
C1858 C1854 1.385 . S
C1858 C1857 1.374 . S
C1859 C1856 1.499 . S
C1859 C1860 1.373 . S
C1859 C1861 1.389 . S
C1860 H1833 0.950 . S
C1860 C1846 1.377 . S
C1860 C1859 1.373 . S
C1861 C1845 1.377 . S
C1861 C1859 1.389 . S
C1861 C1862 1.524 . S
C1862 C1861 1.524 . S
C1862 C1863 1.397 . S
C1862 C1867 1.363 . S
C1863 H1834 0.950 . S
C1863 C1862 1.397 . S
C1863 C1864 1.334 . S
C1864 H1835 0.950 . S
C1864 C1863 1.334 . S
C1864 C1865 1.287 . S
C1865 C1864 1.287 . S
C1865 C1866 1.524 . S
C1865 H1868 0.999 . S
C1866 H1836 0.950 . S
C1866 C1865 1.524 . S
C1866 C1867 1.415 . S
C1867 H1837 0.950 . S
C1867 C1862 1.363 . S
C1867 C1866 1.415 . S
H1868 C1865 0.999 . S
H1869 C1850 0.913 . S
H1870 C1888 0.951 . S
H1871 C1890 0.951 . S
H1872 C1892 0.950 . S
H1873 C1893 0.950 . S
H1874 C1895 0.950 . S
H1875 C1898 0.950 . S
H1876 C1899 0.950 . S
H1877 C1901 0.950 . S
H1878 C1902 0.950 . S
H1879 C1903 0.951 . S
H1880 C1905 0.951 . S
H1881 C1907 0.950 . S
H1882 C1908 0.950 . S
H1883 C1910 0.950 . S
H1884 C1913 0.950 . S
H1885 C1914 0.950 . S
H1886 C1916 0.950 . S
H1887 C1917 0.950 . S
C1888 H1870 0.951 . S
C1888 C1889 1.366 . S
C1888 C1890 1.388 . S
C1889 C1888 1.366 . S
C1889 C1893 1.385 . S
C1890 H1871 0.951 . S
C1890 C1888 1.388 . S
C1890 C1891 1.366 . S
C1891 C1890 1.366 . S
C1891 C1892 1.414 . S
C1891 C1894 1.499 . S
C1892 H1872 0.950 . S
C1892 C1891 1.414 . S
C1892 C1893 1.374 . S
C1893 H1873 0.950 . S
C1893 C1889 1.385 . S
C1893 C1892 1.374 . S
C1894 C1891 1.499 . S
C1894 C1895 1.373 . S
C1894 C1896 1.389 . S
C1895 H1874 0.950 . S
C1895 C1894 1.373 . S
C1895 C1911 1.377 . S
C1896 C1894 1.389 . S
C1896 C1897 1.524 . S
C1896 C1910 1.377 . S
C1897 C1896 1.524 . S
C1897 C1898 1.397 . S
C1897 C1902 1.363 . S
C1898 H1875 0.950 . S
C1898 C1897 1.397 . S
C1898 C1899 1.334 . S
C1899 H1876 0.950 . S
C1899 C1898 1.334 . S
C1899 C1900 1.287 . S
C1900 C1899 1.287 . S
C1900 C1901 1.524 . S
C1900 H1919 0.913 . S
C1901 H1877 0.950 . S
C1901 C1900 1.524 . S
C1901 C1902 1.415 . S
C1902 H1878 0.950 . S
C1902 C1897 1.363 . S
C1902 C1901 1.415 . S
C1903 H1879 0.951 . S
C1903 C1904 1.366 . S
C1903 C1905 1.388 . S
C1904 C1903 1.366 . S
C1904 C1908 1.385 . S
C1905 H1880 0.951 . S
C1905 C1903 1.388 . S
C1905 C1906 1.366 . S
C1906 C1905 1.366 . S
C1906 C1907 1.414 . S
C1906 C1909 1.499 . S
C1907 H1881 0.950 . S
C1907 C1906 1.414 . S
C1907 C1908 1.374 . S
C1908 H1882 0.950 . S
C1908 C1904 1.385 . S
C1908 C1907 1.374 . S
C1909 C1906 1.499 . S
C1909 C1910 1.373 . S
C1909 C1911 1.389 . S
C1910 H1883 0.950 . S
C1910 C1896 1.377 . S
C1910 C1909 1.373 . S
C1911 C1895 1.377 . S
C1911 C1909 1.389 . S
C1911 C1912 1.524 . S
C1912 C1911 1.524 . S
C1912 C1913 1.397 . S
C1912 C1917 1.363 . S
C1913 H1884 0.950 . S
C1913 C1912 1.397 . S
C1913 C1914 1.334 . S
C1914 H1885 0.950 . S
C1914 C1913 1.334 . S
C1914 C1915 1.287 . S
C1915 C1914 1.287 . S
C1915 C1916 1.524 . S
C1915 H1918 0.999 . S
C1916 H1886 0.950 . S
C1916 C1915 1.524 . S
C1916 C1917 1.415 . S
C1917 H1887 0.950 . S
C1917 C1912 1.363 . S
C1917 C1916 1.415 . S
H1918 C1915 0.999 . S
H1919 C1900 0.913 . S
H1920 C1938 0.951 . S
H1921 C1940 0.951 . S
H1922 C1942 0.950 . S
H1923 C1943 0.950 . S
H1924 C1945 0.950 . S
H1925 C1948 0.950 . S
H1926 C1949 0.950 . S
H1927 C1951 0.950 . S
H1928 C1952 0.950 . S
H1929 C1953 0.951 . S
H1930 C1955 0.951 . S
H1931 C1957 0.950 . S
H1932 C1958 0.950 . S
H1933 C1960 0.950 . S
H1934 C1963 0.950 . S
H1935 C1964 0.950 1_565 S
H1936 C1966 0.950 . S
H1937 C1967 0.950 . S
C1938 H1920 0.951 . S
C1938 C1939 1.366 . S
C1938 C1940 1.388 . S
C1939 C1938 1.366 . S
C1939 C1943 1.385 . S
C1940 H1921 0.951 . S
C1940 C1938 1.388 . S
C1940 C1941 1.366 . S
C1941 C1940 1.366 . S
C1941 C1942 1.414 . S
C1941 C1944 1.499 . S
C1942 H1922 0.950 . S
C1942 C1941 1.414 . S
C1942 C1943 1.374 . S
C1943 H1923 0.950 . S
C1943 C1939 1.385 . S
C1943 C1942 1.374 . S
C1944 C1941 1.499 . S
C1944 C1945 1.373 . S
C1944 C1946 1.389 . S
C1945 H1924 0.950 . S
C1945 C1944 1.373 . S
C1945 C1961 1.377 . S
C1946 C1944 1.389 . S
C1946 C1947 1.524 . S
C1946 C1960 1.377 . S
C1947 C1946 1.524 . S
C1947 C1948 1.397 . S
C1947 C1952 1.363 . S
C1948 H1925 0.950 . S
C1948 C1947 1.397 . S
C1948 C1949 1.334 . S
C1949 H1926 0.950 . S
C1949 C1948 1.334 . S
C1949 C1950 1.287 . S
C1950 C1949 1.287 . S
C1950 C1951 1.524 . S
C1950 H1969 0.913 . S
C1951 H1927 0.950 . S
C1951 C1950 1.524 . S
C1951 C1952 1.415 . S
C1952 H1928 0.950 . S
C1952 C1947 1.363 . S
C1952 C1951 1.415 . S
C1953 H1929 0.951 . S
C1953 C1954 1.366 . S
C1953 C1955 1.388 . S
C1954 C1953 1.366 . S
C1954 C1958 1.385 . S
C1955 H1930 0.951 . S
C1955 C1953 1.388 . S
C1955 C1956 1.366 . S
C1956 C1955 1.366 . S
C1956 C1957 1.414 . S
C1956 C1959 1.499 . S
C1957 H1931 0.950 . S
C1957 C1956 1.414 . S
C1957 C1958 1.374 . S
C1958 H1932 0.950 . S
C1958 C1954 1.385 . S
C1958 C1957 1.374 . S
C1959 C1956 1.499 . S
C1959 C1960 1.373 . S
C1959 C1961 1.389 . S
C1960 H1933 0.950 . S
C1960 C1946 1.377 . S
C1960 C1959 1.373 . S
C1961 C1945 1.377 . S
C1961 C1959 1.389 . S
C1961 C1962 1.524 . S
C1962 C1961 1.524 . S
C1962 C1963 1.397 . S
C1962 C1967 1.363 . S
C1963 H1934 0.950 . S
C1963 C1962 1.397 . S
C1963 C1964 1.334 . S
C1964 H1935 0.950 1_545 S
C1964 C1963 1.334 . S
C1964 C1965 1.287 . S
C1965 C1964 1.287 . S
C1965 C1966 1.524 . S
C1965 H1968 0.999 1_545 S
C1966 H1936 0.950 . S
C1966 C1965 1.524 . S
C1966 C1967 1.415 . S
C1967 H1937 0.950 . S
C1967 C1962 1.363 . S
C1967 C1966 1.415 . S
H1968 C1965 0.999 1_565 S
H1969 C1950 0.913 . S
H1970 C1988 0.951 . S
H1971 C1990 0.951 . S
H1972 C1992 0.950 . S
H1973 C1993 0.950 . S
H1974 C1995 0.950 . S
H1975 C1998 0.950 . S
H1976 C1999 0.950 . S
H1977 C2001 0.950 . S
H1978 C2002 0.950 . S
H1979 C2003 0.951 . S
H1980 C2005 0.951 . S
H1981 C2007 0.950 . S
H1982 C2008 0.950 . S
H1983 C2010 0.950 . S
H1984 C2013 0.950 . S
H1985 C2014 0.950 . S
H1986 C2016 0.950 . S
H1987 C2017 0.950 . S
C1988 H1970 0.951 . S
C1988 C1989 1.366 . S
C1988 C1990 1.388 . S
C1989 C1988 1.366 . S
C1989 C1993 1.385 . S
C1990 H1971 0.951 . S
C1990 C1988 1.388 . S
C1990 C1991 1.366 . S
C1991 C1990 1.366 . S
C1991 C1992 1.414 . S
C1991 C1994 1.499 . S
C1992 H1972 0.950 . S
C1992 C1991 1.414 . S
C1992 C1993 1.374 . S
C1993 H1973 0.950 . S
C1993 C1989 1.385 . S
C1993 C1992 1.374 . S
C1994 C1991 1.499 . S
C1994 C1995 1.373 . S
C1994 C1996 1.389 . S
C1995 H1974 0.950 . S
C1995 C1994 1.373 . S
C1995 C2011 1.377 . S
C1996 C1994 1.389 . S
C1996 C1997 1.524 . S
C1996 C2010 1.377 . S
C1997 C1996 1.524 . S
C1997 C1998 1.397 . S
C1997 C2002 1.363 . S
C1998 H1975 0.950 . S
C1998 C1997 1.397 . S
C1998 C1999 1.334 . S
C1999 H1976 0.950 . S
C1999 C1998 1.334 . S
C1999 C2000 1.287 . S
C2000 C1999 1.287 . S
C2000 C2001 1.524 . S
C2000 H2019 0.913 . S
C2001 H1977 0.950 . S
C2001 C2000 1.524 . S
C2001 C2002 1.415 . S
C2002 H1978 0.950 . S
C2002 C1997 1.363 . S
C2002 C2001 1.415 . S
C2003 H1979 0.951 . S
C2003 C2004 1.366 . S
C2003 C2005 1.388 . S
C2004 C2003 1.366 . S
C2004 C2008 1.385 . S
C2005 H1980 0.951 . S
C2005 C2003 1.388 . S
C2005 C2006 1.366 . S
C2006 C2005 1.366 . S
C2006 C2007 1.414 . S
C2006 C2009 1.499 . S
C2007 H1981 0.950 . S
C2007 C2006 1.414 . S
C2007 C2008 1.374 . S
C2008 H1982 0.950 . S
C2008 C2004 1.385 . S
C2008 C2007 1.374 . S
C2009 C2006 1.499 . S
C2009 C2010 1.373 . S
C2009 C2011 1.389 . S
C2010 H1983 0.950 . S
C2010 C1996 1.377 . S
C2010 C2009 1.373 . S
C2011 C1995 1.377 . S
C2011 C2009 1.389 . S
C2011 C2012 1.524 . S
C2012 C2011 1.524 . S
C2012 C2013 1.397 . S
C2012 C2017 1.363 . S
C2013 H1984 0.950 . S
C2013 C2012 1.397 . S
C2013 C2014 1.334 . S
C2014 H1985 0.950 . S
C2014 C2013 1.334 . S
C2014 C2015 1.287 . S
C2015 C2014 1.287 . S
C2015 C2016 1.524 . S
C2015 H2018 0.999 . S
C2016 H1986 0.950 . S
C2016 C2015 1.524 . S
C2016 C2017 1.415 . S
C2017 H1987 0.950 . S
C2017 C2012 1.363 . S
C2017 C2016 1.415 . S
H2018 C2015 0.999 . S
H2019 C2000 0.913 . S
H2020 C2038 0.951 . S
H2021 C2040 0.951 . S
H2022 C2042 0.950 . S
H2023 C2043 0.950 . S
H2024 C2045 0.950 . S
H2025 C2048 0.950 . S
H2026 C2049 0.950 . S
H2027 C2051 0.950 . S
H2028 C2052 0.950 . S
H2029 C2053 0.951 . S
H2030 C2055 0.951 . S
H2031 C2057 0.950 . S
H2032 C2058 0.950 . S
H2033 C2060 0.950 . S
H2034 C2063 0.950 . S
H2035 C2064 0.950 . S
H2036 C2066 0.950 . S
H2037 C2067 0.950 . S
C2038 H2020 0.951 . S
C2038 C2039 1.366 . S
C2038 C2040 1.388 . S
C2039 C2038 1.366 . S
C2039 C2043 1.385 . S
C2040 H2021 0.951 . S
C2040 C2038 1.388 . S
C2040 C2041 1.366 . S
C2041 C2040 1.366 . S
C2041 C2042 1.414 . S
C2041 C2044 1.499 . S
C2042 H2022 0.950 . S
C2042 C2041 1.414 . S
C2042 C2043 1.374 . S
C2043 H2023 0.950 . S
C2043 C2039 1.385 . S
C2043 C2042 1.374 . S
C2044 C2041 1.499 . S
C2044 C2045 1.373 . S
C2044 C2046 1.389 . S
C2045 H2024 0.950 . S
C2045 C2044 1.373 . S
C2045 C2061 1.377 . S
C2046 C2044 1.389 . S
C2046 C2047 1.524 . S
C2046 C2060 1.377 . S
C2047 C2046 1.524 . S
C2047 C2048 1.397 . S
C2047 C2052 1.363 . S
C2048 H2025 0.950 . S
C2048 C2047 1.397 . S
C2048 C2049 1.334 . S
C2049 H2026 0.950 . S
C2049 C2048 1.334 . S
C2049 C2050 1.287 . S
C2050 C2049 1.287 . S
C2050 C2051 1.524 . S
C2050 H2069 0.913 . S
C2051 H2027 0.950 . S
C2051 C2050 1.524 . S
C2051 C2052 1.415 . S
C2052 H2028 0.950 . S
C2052 C2047 1.363 . S
C2052 C2051 1.415 . S
C2053 H2029 0.951 . S
C2053 C2054 1.366 . S
C2053 C2055 1.388 . S
C2054 C2053 1.366 . S
C2054 C2058 1.385 . S
C2055 H2030 0.951 . S
C2055 C2053 1.388 . S
C2055 C2056 1.366 . S
C2056 C2055 1.366 . S
C2056 C2057 1.414 . S
C2056 C2059 1.499 . S
C2057 H2031 0.950 . S
C2057 C2056 1.414 . S
C2057 C2058 1.374 . S
C2058 H2032 0.950 . S
C2058 C2054 1.385 . S
C2058 C2057 1.374 . S
C2059 C2056 1.499 . S
C2059 C2060 1.373 . S
C2059 C2061 1.389 . S
C2060 H2033 0.950 . S
C2060 C2046 1.377 . S
C2060 C2059 1.373 . S
C2061 C2045 1.377 . S
C2061 C2059 1.389 . S
C2061 C2062 1.524 . S
C2062 C2061 1.524 . S
C2062 C2063 1.397 . S
C2062 C2067 1.363 . S
C2063 H2034 0.950 . S
C2063 C2062 1.397 . S
C2063 C2064 1.334 . S
C2064 H2035 0.950 . S
C2064 C2063 1.334 . S
C2064 C2065 1.287 . S
C2065 C2064 1.287 . S
C2065 C2066 1.524 . S
C2065 H2068 0.999 . S
C2066 H2036 0.950 . S
C2066 C2065 1.524 . S
C2066 C2067 1.415 . S
C2067 H2037 0.950 . S
C2067 C2062 1.363 . S
C2067 C2066 1.415 . S
H2068 C2065 0.999 . S
H2069 C2050 0.913 . S
H2070 C2088 0.951 . S
H2071 C2090 0.951 . S
H2072 C2092 0.950 . S
H2073 C2093 0.950 . S
H2074 C2095 0.950 . S
H2075 C2098 0.950 . S
H2076 C2099 0.960 . S
H2077 C2101 0.950 . S
H2078 C2102 0.950 . S
H2079 C2103 0.951 . S
H2080 C2105 0.951 . S
H2081 C2107 0.950 . S
H2082 C2108 0.950 . S
H2083 C2110 0.950 . S
H2084 C2113 0.950 . S
H2085 C2114 0.950 . S
H2086 C2116 0.950 . S
H2087 C2117 0.950 . S
C2088 H2070 0.951 . S
C2088 C2089 1.366 . S
C2088 C2090 1.388 . S
C2089 C2088 1.366 . S
C2089 C2093 1.385 . S
C2090 H2071 0.951 . S
C2090 C2088 1.388 . S
C2090 C2091 1.366 . S
C2091 C2090 1.366 . S
C2091 C2092 1.414 . S
C2091 C2094 1.499 . S
C2092 H2072 0.950 . S
C2092 C2091 1.414 . S
C2092 C2093 1.374 . S
C2093 H2073 0.950 . S
C2093 C2089 1.385 . S
C2093 C2092 1.374 . S
C2094 C2091 1.499 . S
C2094 C2095 1.373 . S
C2094 C2096 1.389 . S
C2095 H2074 0.950 . S
C2095 C2094 1.373 . S
C2095 C2111 1.377 . S
C2096 C2094 1.389 . S
C2096 C2097 1.524 . S
C2096 C2110 1.377 . S
C2097 C2096 1.524 . S
C2097 C2098 1.397 . S
C2097 C2102 1.363 . S
C2098 H2075 0.950 . S
C2098 C2097 1.397 . S
C2098 C2099 1.309 1_455 S
C2099 H2076 0.960 . S
C2099 C2098 1.309 1_655 S
C2099 C2100 1.302 . S
C2100 C2099 1.302 . S
C2100 C2101 1.524 . S
C2100 H2119 0.913 . S
C2101 H2077 0.950 . S
C2101 C2100 1.524 . S
C2101 C2102 1.415 1_655 S
C2102 H2078 0.950 . S
C2102 C2097 1.363 . S
C2102 C2101 1.415 1_455 S
C2103 H2079 0.951 . S
C2103 C2104 1.366 . S
C2103 C2105 1.388 . S
C2104 C2103 1.366 . S
C2104 C2108 1.385 . S
C2105 H2080 0.951 . S
C2105 C2103 1.388 . S
C2105 C2106 1.366 . S
C2106 C2105 1.366 . S
C2106 C2107 1.414 . S
C2106 C2109 1.499 . S
C2107 H2081 0.950 . S
C2107 C2106 1.414 . S
C2107 C2108 1.374 . S
C2108 H2082 0.950 . S
C2108 C2104 1.385 . S
C2108 C2107 1.374 . S
C2109 C2106 1.499 . S
C2109 C2110 1.373 . S
C2109 C2111 1.389 . S
C2110 H2083 0.950 . S
C2110 C2096 1.377 . S
C2110 C2109 1.373 . S
C2111 C2095 1.377 . S
C2111 C2109 1.389 . S
C2111 C2112 1.524 . S
C2112 C2111 1.524 . S
C2112 C2113 1.397 . S
C2112 C2117 1.363 . S
C2113 H2084 0.950 . S
C2113 C2112 1.397 . S
C2113 C2114 1.334 . S
C2114 H2085 0.950 . S
C2114 C2113 1.334 . S
C2114 C2115 1.287 . S
C2115 C2114 1.287 . S
C2115 C2116 1.524 . S
C2115 H2118 0.999 . S
C2116 H2086 0.950 . S
C2116 C2115 1.524 . S
C2116 C2117 1.415 . S
C2117 H2087 0.950 . S
C2117 C2112 1.363 . S
C2117 C2116 1.415 . S
H2118 C2115 0.999 . S
H2119 C2100 0.913 . S
H2120 C2138 0.951 . S
H2121 C2140 0.951 . S
H2122 C2142 0.950 . S
H2123 C2143 0.950 . S
H2124 C2145 0.950 . S
H2125 C2148 0.950 . S
H2126 C2149 0.950 1_545 S
H2127 C2151 0.950 . S
H2128 C2152 0.950 . S
H2129 C2153 0.951 . S
H2130 C2155 0.951 . S
H2131 C2157 0.950 . S
H2132 C2158 0.950 . S
H2133 C2160 0.954 . S
H2134 C2163 0.950 . S
H2135 C2164 0.950 . S
H2136 C2166 0.950 . S
H2137 C2167 0.950 . S
C2138 H2120 0.951 . S
C2138 C2139 1.366 . S
C2138 C2140 1.388 . S
C2139 C2138 1.366 . S
C2139 C2143 1.385 . S
C2140 H2121 0.951 . S
C2140 C2138 1.388 . S
C2140 C2141 1.366 . S
C2141 C2140 1.366 . S
C2141 C2142 1.414 . S
C2141 C2144 1.499 . S
C2142 H2122 0.950 . S
C2142 C2141 1.414 . S
C2142 C2143 1.374 . S
C2143 H2123 0.950 . S
C2143 C2139 1.385 . S
C2143 C2142 1.374 . S
C2144 C2141 1.499 . S
C2144 C2145 1.373 1_556 S
C2144 C2146 1.389 . S
C2145 H2124 0.950 . S
C2145 C2144 1.373 1_554 S
C2145 C2161 1.377 . S
C2146 C2144 1.389 . S
C2146 C2147 1.524 . S
C2146 C2160 1.377 1_556 S
C2147 C2146 1.524 . S
C2147 C2148 1.397 . S
C2147 C2152 1.363 . S
C2148 H2125 0.950 . S
C2148 C2147 1.397 . S
C2148 C2149 1.334 . S
C2149 H2126 0.950 1_565 S
C2149 C2148 1.334 . S
C2149 C2150 1.287 . S
C2150 C2149 1.287 . S
C2150 C2151 1.524 . S
C2150 H2169 0.924 . S
C2151 H2127 0.950 . S
C2151 C2150 1.524 . S
C2151 C2152 1.415 . S
C2152 H2128 0.950 . S
C2152 C2147 1.363 . S
C2152 C2151 1.415 . S
C2153 H2129 0.951 . S
C2153 C2154 1.366 . S
C2153 C2155 1.388 . S
C2154 C2153 1.366 . S
C2154 C2158 1.385 . S
C2155 H2130 0.951 . S
C2155 C2153 1.388 . S
C2155 C2156 1.366 . S
C2156 C2155 1.366 . S
C2156 C2157 1.414 . S
C2156 C2159 1.499 . S
C2157 H2131 0.950 . S
C2157 C2156 1.414 . S
C2157 C2158 1.374 . S
C2158 H2132 0.950 . S
C2158 C2154 1.385 . S
C2158 C2157 1.374 . S
C2159 C2156 1.499 . S
C2159 C2160 1.373 . S
C2159 C2161 1.389 . S
C2160 H2133 0.954 . S
C2160 C2146 1.377 1_554 S
C2160 C2159 1.373 . S
C2161 C2145 1.377 . S
C2161 C2159 1.389 . S
C2161 C2162 1.524 . S
C2162 C2161 1.524 . S
C2162 C2163 1.397 . S
C2162 C2167 1.363 . S
C2163 H2134 0.950 . S
C2163 C2162 1.397 . S
C2163 C2164 1.334 . S
C2164 H2135 0.950 . S
C2164 C2163 1.334 . S
C2164 C2165 1.287 . S
C2165 C2164 1.287 . S
C2165 C2166 1.524 . S
C2165 H2168 0.999 . S
C2166 H2136 0.950 . S
C2166 C2165 1.524 . S
C2166 C2167 1.415 . S
C2167 H2137 0.950 . S
C2167 C2162 1.363 . S
C2167 C2166 1.415 . S
H2168 C2165 0.999 . S
H2169 C2150 0.924 . S
H2170 C2188 0.951 . S
H2171 C2190 0.951 . S
H2172 C2192 0.950 . S
H2173 C2193 0.950 . S
H2174 C2195 0.950 . S
H2175 C2198 0.950 . S
H2176 C2199 0.950 . S
H2177 C2201 0.950 . S
H2178 C2202 0.950 . S
H2179 C2203 0.951 . S
H2180 C2205 0.951 . S
H2181 C2207 0.950 . S
H2182 C2208 0.950 . S
H2183 C2210 0.950 . S
H2184 C2213 0.950 1_554 S
H2185 C2214 0.950 . S
H2186 C2216 0.950 . S
H2187 C2217 0.950 . S
C2188 H2170 0.951 . S
C2188 C2189 1.366 . S
C2188 C2190 1.388 . S
C2189 C2188 1.366 . S
C2189 C2193 1.385 . S
C2190 H2171 0.951 . S
C2190 C2188 1.388 . S
C2190 C2191 1.366 . S
C2191 C2190 1.366 . S
C2191 C2192 1.414 . S
C2191 C2194 1.499 . S
C2192 H2172 0.950 . S
C2192 C2191 1.414 . S
C2192 C2193 1.374 . S
C2193 H2173 0.950 . S
C2193 C2189 1.385 . S
C2193 C2192 1.374 . S
C2194 C2191 1.499 . S
C2194 C2195 1.373 . S
C2194 C2196 1.389 . S
C2195 H2174 0.950 . S
C2195 C2194 1.373 . S
C2195 C2211 1.377 1_554 S
C2196 C2194 1.389 . S
C2196 C2197 1.524 . S
C2196 C2210 1.377 1_554 S
C2197 C2196 1.524 . S
C2197 C2198 1.397 . S
C2197 C2202 1.363 . S
C2198 H2175 0.950 . S
C2198 C2197 1.397 . S
C2198 C2199 1.334 . S
C2199 H2176 0.950 . S
C2199 C2198 1.334 . S
C2199 C2200 1.287 . S
C2200 C2199 1.287 . S
C2200 C2201 1.524 . S
C2200 H2219 0.913 . S
C2201 H2177 0.950 . S
C2201 C2200 1.524 . S
C2201 C2202 1.415 . S
C2202 H2178 0.950 . S
C2202 C2197 1.363 . S
C2202 C2201 1.415 . S
C2203 H2179 0.951 . S
C2203 C2204 1.366 . S
C2203 C2205 1.388 . S
C2204 C2203 1.366 . S
C2204 C2208 1.385 . S
C2205 H2180 0.951 . S
C2205 C2203 1.388 . S
C2205 C2206 1.366 . S
C2206 C2205 1.366 . S
C2206 C2207 1.414 . S
C2206 C2209 1.499 . S
C2207 H2181 0.950 . S
C2207 C2206 1.414 . S
C2207 C2208 1.374 . S
C2208 H2182 0.950 . S
C2208 C2204 1.385 . S
C2208 C2207 1.374 . S
C2209 C2206 1.499 . S
C2209 C2210 1.373 . S
C2209 C2211 1.389 . S
C2210 H2183 0.950 . S
C2210 C2196 1.377 1_556 S
C2210 C2209 1.373 . S
C2211 C2195 1.377 1_556 S
C2211 C2209 1.389 . S
C2211 C2212 1.524 . S
C2212 C2211 1.524 . S
C2212 C2213 1.397 . S
C2212 C2217 1.363 . S
C2213 H2184 0.950 1_556 S
C2213 C2212 1.397 . S
C2213 C2214 1.334 . S
C2214 H2185 0.950 . S
C2214 C2213 1.334 . S
C2214 C2215 1.287 . S
C2215 C2214 1.287 . S
C2215 C2216 1.524 . S
C2215 H2218 0.999 . S
C2216 H2186 0.950 . S
C2216 C2215 1.524 . S
C2216 C2217 1.415 . S
C2217 H2187 0.950 . S
C2217 C2212 1.363 . S
C2217 C2216 1.415 . S
H2218 C2215 0.999 . S
H2219 C2200 0.913 . S
H2220 C2238 0.951 . S
H2221 C2240 0.951 . S
H2222 C2242 0.950 . S
H2223 C2243 0.950 . S
H2224 C2245 0.950 . S
H2225 C2248 0.950 . S
H2226 C2249 0.950 . S
H2227 C2251 0.950 . S
H2228 C2252 0.950 . S
H2229 C2253 0.951 . S
H2230 C2255 0.951 . S
H2231 C2257 0.950 . S
H2232 C2258 0.950 . S
H2233 C2260 0.950 . S
H2234 C2263 0.939 1_556 S
H2235 C2264 0.949 1_556 S
H2236 C2266 0.950 . S
H2237 C2267 0.950 . S
C2238 H2220 0.951 . S
C2238 C2239 1.366 . S
C2238 C2240 1.388 . S
C2239 C2238 1.366 . S
C2239 C2243 1.385 . S
C2240 H2221 0.951 . S
C2240 C2238 1.388 . S
C2240 C2241 1.366 . S
C2241 C2240 1.366 . S
C2241 C2242 1.414 . S
C2241 C2244 1.499 . S
C2242 H2222 0.950 . S
C2242 C2241 1.414 . S
C2242 C2243 1.374 . S
C2243 H2223 0.950 . S
C2243 C2239 1.385 . S
C2243 C2242 1.374 . S
C2244 C2241 1.499 . S
C2244 C2245 1.373 . S
C2244 C2246 1.389 1_556 S
C2245 H2224 0.950 . S
C2245 C2244 1.373 . S
C2245 C2261 1.377 1_556 S
C2246 C2244 1.389 1_554 S
C2246 C2247 1.526 . S
C2246 C2260 1.377 . S
C2247 C2246 1.526 . S
C2247 C2248 1.404 . S
C2247 C2252 1.358 1_554 S
C2248 H2225 0.950 . S
C2248 C2247 1.404 . S
C2248 C2249 1.334 . S
C2249 H2226 0.950 . S
C2249 C2248 1.334 . S
C2249 C2250 1.287 . S
C2250 C2249 1.287 . S
C2250 C2251 1.524 1_554 S
C2250 H2269 0.913 . S
C2251 H2227 0.950 . S
C2251 C2250 1.524 1_556 S
C2251 C2252 1.415 . S
C2252 H2228 0.950 . S
C2252 C2247 1.358 1_556 S
C2252 C2251 1.415 . S
C2253 H2229 0.951 . S
C2253 C2254 1.366 . S
C2253 C2255 1.388 . S
C2254 C2253 1.366 . S
C2254 C2258 1.385 . S
C2255 H2230 0.951 . S
C2255 C2253 1.388 . S
C2255 C2256 1.366 . S
C2256 C2255 1.366 . S
C2256 C2257 1.414 . S
C2256 C2259 1.499 . S
C2257 H2231 0.950 . S
C2257 C2256 1.414 . S
C2257 C2258 1.374 . S
C2258 H2232 0.950 . S
C2258 C2254 1.385 . S
C2258 C2257 1.374 . S
C2259 C2256 1.499 . S
C2259 C2260 1.373 . S
C2259 C2261 1.389 . S
C2260 H2233 0.950 . S
C2260 C2246 1.377 . S
C2260 C2259 1.373 . S
C2261 C2245 1.377 1_554 S
C2261 C2259 1.389 . S
C2261 C2262 1.524 . S
C2262 C2261 1.524 . S
C2262 C2263 1.397 . S
C2262 C2267 1.363 . S
C2263 H2234 0.939 1_554 S
C2263 C2262 1.397 . S
C2263 C2264 1.334 . S
C2264 H2235 0.949 1_554 S
C2264 C2263 1.334 . S
C2264 C2265 1.287 . S
C2265 C2264 1.287 . S
C2265 C2266 1.524 . S
C2265 H2268 0.999 . S
C2266 H2236 0.950 . S
C2266 C2265 1.524 . S
C2266 C2267 1.415 . S
C2267 H2237 0.950 . S
C2267 C2262 1.363 . S
C2267 C2266 1.415 . S
H2268 C2265 0.999 . S
H2269 C2250 0.913 . S
H2270 C2288 0.951 . S
H2271 C2290 0.951 . S
H2272 C2292 0.950 . S
H2273 C2293 0.950 . S
H2274 C2295 0.950 . S
H2275 C2298 0.950 . S
H2276 C2299 0.950 . S
H2277 C2301 0.950 . S
H2278 C2302 0.949 1_554 S
H2279 C2303 0.951 . S
H2280 C2305 0.951 . S
H2281 C2307 0.950 . S
H2282 C2308 0.950 . S
H2283 C2310 0.950 . S
H2284 C2313 0.950 . S
H2285 C2314 0.950 . S
H2286 C2316 0.950 . S
H2287 C2317 0.950 . S
C2288 H2270 0.951 . S
C2288 C2289 1.366 . S
C2288 C2290 1.388 . S
C2289 C2288 1.366 . S
C2289 C2293 1.385 . S
C2290 H2271 0.951 . S
C2290 C2288 1.388 . S
C2290 C2291 1.366 . S
C2291 C2290 1.366 . S
C2291 C2292 1.414 . S
C2291 C2294 1.499 . S
C2292 H2272 0.950 . S
C2292 C2291 1.414 . S
C2292 C2293 1.374 . S
C2293 H2273 0.950 . S
C2293 C2289 1.385 . S
C2293 C2292 1.374 . S
C2294 C2291 1.499 . S
C2294 C2295 1.373 . S
C2294 C2296 1.389 . S
C2295 H2274 0.950 . S
C2295 C2294 1.373 . S
C2295 C2311 1.377 . S
C2296 C2294 1.389 . S
C2296 C2297 1.524 . S
C2296 C2310 1.377 1_554 S
C2297 C2296 1.524 . S
C2297 C2298 1.397 1_554 S
C2297 C2302 1.363 1_554 S
C2298 H2275 0.950 . S
C2298 C2297 1.397 1_556 S
C2298 C2299 1.334 . S
C2299 H2276 0.950 . S
C2299 C2298 1.334 . S
C2299 C2300 1.287 . S
C2300 C2299 1.287 . S
C2300 C2301 1.524 . S
C2300 H2319 0.913 . S
C2301 H2277 0.950 . S
C2301 C2300 1.524 . S
C2301 C2302 1.417 . S
C2302 H2278 0.949 1_556 S
C2302 C2297 1.363 1_556 S
C2302 C2301 1.417 . S
C2303 H2279 0.951 . S
C2303 C2304 1.366 . S
C2303 C2305 1.388 . S
C2304 C2303 1.366 . S
C2304 C2308 1.385 . S
C2305 H2280 0.951 . S
C2305 C2303 1.388 . S
C2305 C2306 1.366 . S
C2306 C2305 1.366 . S
C2306 C2307 1.414 . S
C2306 C2309 1.499 . S
C2307 H2281 0.950 . S
C2307 C2306 1.414 . S
C2307 C2308 1.374 . S
C2308 H2282 0.950 . S
C2308 C2304 1.385 . S
C2308 C2307 1.374 . S
C2309 C2306 1.499 . S
C2309 C2310 1.373 . S
C2309 C2311 1.389 1_556 S
C2310 H2283 0.950 . S
C2310 C2296 1.377 1_556 S
C2310 C2309 1.373 . S
C2311 C2295 1.377 . S
C2311 C2309 1.389 1_554 S
C2311 C2312 1.524 . S
C2312 C2311 1.524 . S
C2312 C2313 1.397 . S
C2312 C2317 1.363 . S
C2313 H2284 0.950 . S
C2313 C2312 1.397 . S
C2313 C2314 1.334 . S
C2314 H2285 0.950 . S
C2314 C2313 1.334 . S
C2314 C2315 1.287 . S
C2315 C2314 1.287 . S
C2315 C2316 1.524 . S
C2315 H2318 0.999 . S
C2316 H2286 0.950 . S
C2316 C2315 1.524 . S
C2316 C2317 1.415 . S
C2317 H2287 0.950 . S
C2317 C2312 1.363 . S
C2317 C2316 1.415 . S
H2318 C2315 0.999 . S
H2319 C2300 0.913 . S
H2320 C2338 0.951 . S
H2321 C2340 0.951 . S
H2322 C2342 0.950 . S
H2323 C2343 0.950 . S
H2324 C2345 0.950 . S
H2325 C2348 0.950 . S
H2326 C2349 0.950 . S
H2327 C2351 0.950 . S
H2328 C2352 0.950 . S
H2329 C2353 0.951 . S
H2330 C2355 0.951 . S
H2331 C2357 0.950 . S
H2332 C2358 0.950 . S
H2333 C2360 0.950 . S
H2334 C2363 0.950 . S
H2335 C2364 0.950 . S
H2336 C2366 0.950 . S
H2337 C2367 0.950 . S
C2338 H2320 0.951 . S
C2338 C2339 1.366 . S
C2338 C2340 1.388 . S
C2339 C2338 1.366 . S
C2339 C2343 1.385 . S
C2340 H2321 0.951 . S
C2340 C2338 1.388 . S
C2340 C2341 1.366 . S
C2341 C2340 1.366 . S
C2341 C2342 1.414 . S
C2341 C2344 1.499 . S
C2342 H2322 0.950 . S
C2342 C2341 1.414 . S
C2342 C2343 1.374 . S
C2343 H2323 0.950 . S
C2343 C2339 1.385 . S
C2343 C2342 1.374 . S
C2344 C2341 1.499 . S
C2344 C2345 1.373 . S
C2344 C2346 1.389 . S
C2345 H2324 0.950 . S
C2345 C2344 1.373 . S
C2345 C2361 1.377 . S
C2346 C2344 1.389 . S
C2346 C2347 1.524 . S
C2346 C2360 1.377 . S
C2347 C2346 1.524 . S
C2347 C2348 1.397 . S
C2347 C2352 1.363 . S
C2348 H2325 0.950 . S
C2348 C2347 1.397 . S
C2348 C2349 1.334 . S
C2349 H2326 0.950 . S
C2349 C2348 1.334 . S
C2349 C2350 1.287 . S
C2350 C2349 1.287 . S
C2350 C2351 1.524 . S
C2350 H2369 0.913 . S
C2351 H2327 0.950 . S
C2351 C2350 1.524 . S
C2351 C2352 1.415 . S
C2352 H2328 0.950 . S
C2352 C2347 1.363 . S
C2352 C2351 1.415 . S
C2353 H2329 0.951 . S
C2353 C2354 1.366 . S
C2353 C2355 1.388 . S
C2354 C2353 1.366 . S
C2354 C2358 1.385 . S
C2355 H2330 0.951 . S
C2355 C2353 1.388 . S
C2355 C2356 1.366 . S
C2356 C2355 1.366 . S
C2356 C2357 1.414 . S
C2356 C2359 1.499 . S
C2357 H2331 0.950 . S
C2357 C2356 1.414 . S
C2357 C2358 1.374 . S
C2358 H2332 0.950 . S
C2358 C2354 1.385 . S
C2358 C2357 1.374 . S
C2359 C2356 1.499 . S
C2359 C2360 1.373 . S
C2359 C2361 1.389 . S
C2360 H2333 0.950 . S
C2360 C2346 1.377 . S
C2360 C2359 1.373 . S
C2361 C2345 1.377 . S
C2361 C2359 1.389 . S
C2361 C2362 1.524 . S
C2362 C2361 1.524 . S
C2362 C2363 1.397 . S
C2362 C2367 1.363 . S
C2363 H2334 0.950 . S
C2363 C2362 1.397 . S
C2363 C2364 1.334 . S
C2364 H2335 0.950 . S
C2364 C2363 1.334 . S
C2364 C2365 1.287 . S
C2365 C2364 1.287 . S
C2365 C2366 1.524 . S
C2365 H2368 0.999 . S
C2366 H2336 0.950 . S
C2366 C2365 1.524 . S
C2366 C2367 1.415 . S
C2367 H2337 0.950 . S
C2367 C2362 1.363 . S
C2367 C2366 1.415 . S
H2368 C2365 0.999 . S
H2369 C2350 0.913 . S
H2370 C2388 0.951 . S
H2371 C2390 0.951 . S
H2372 C2392 0.950 . S
H2373 C2393 0.950 . S
H2374 C2395 0.950 . S
H2375 C2398 0.950 . S
H2376 C2399 0.950 . S
H2377 C2401 0.950 . S
H2378 C2402 0.950 . S
H2379 C2403 0.951 . S
H2380 C2405 0.951 . S
H2381 C2407 0.950 . S
H2382 C2408 0.950 . S
H2383 C2410 0.950 . S
H2384 C2413 0.950 . S
H2385 C2414 0.950 . S
H2386 C2416 0.950 . S
H2387 C2417 0.950 . S
C2388 H2370 0.951 . S
C2388 C2389 1.366 . S
C2388 C2390 1.388 . S
C2389 C2388 1.366 . S
C2389 C2393 1.385 . S
C2390 H2371 0.951 . S
C2390 C2388 1.388 . S
C2390 C2391 1.366 . S
C2391 C2390 1.366 . S
C2391 C2392 1.414 . S
C2391 C2394 1.499 . S
C2392 H2372 0.950 . S
C2392 C2391 1.414 . S
C2392 C2393 1.374 . S
C2393 H2373 0.950 . S
C2393 C2389 1.385 . S
C2393 C2392 1.374 . S
C2394 C2391 1.499 . S
C2394 C2395 1.373 . S
C2394 C2396 1.389 . S
C2395 H2374 0.950 . S
C2395 C2394 1.373 . S
C2395 C2411 1.377 . S
C2396 C2394 1.389 . S
C2396 C2397 1.524 . S
C2396 C2410 1.377 . S
C2397 C2396 1.524 . S
C2397 C2398 1.397 . S
C2397 C2402 1.363 . S
C2398 H2375 0.950 . S
C2398 C2397 1.397 . S
C2398 C2399 1.334 . S
C2399 H2376 0.950 . S
C2399 C2398 1.334 . S
C2399 C2400 1.287 . S
C2400 C2399 1.287 . S
C2400 C2401 1.524 . S
C2400 H2419 0.913 . S
C2401 H2377 0.950 . S
C2401 C2400 1.524 . S
C2401 C2402 1.415 . S
C2402 H2378 0.950 . S
C2402 C2397 1.363 . S
C2402 C2401 1.415 . S
C2403 H2379 0.951 . S
C2403 C2404 1.366 . S
C2403 C2405 1.388 . S
C2404 C2403 1.366 . S
C2404 C2408 1.385 . S
C2405 H2380 0.951 . S
C2405 C2403 1.388 . S
C2405 C2406 1.366 . S
C2406 C2405 1.366 . S
C2406 C2407 1.414 . S
C2406 C2409 1.499 . S
C2407 H2381 0.950 . S
C2407 C2406 1.414 . S
C2407 C2408 1.374 . S
C2408 H2382 0.950 . S
C2408 C2404 1.385 . S
C2408 C2407 1.374 . S
C2409 C2406 1.499 . S
C2409 C2410 1.373 . S
C2409 C2411 1.389 . S
C2410 H2383 0.950 . S
C2410 C2396 1.377 . S
C2410 C2409 1.373 . S
C2411 C2395 1.377 . S
C2411 C2409 1.389 . S
C2411 C2412 1.524 . S
C2412 C2411 1.524 . S
C2412 C2413 1.397 . S
C2412 C2417 1.363 . S
C2413 H2384 0.950 . S
C2413 C2412 1.397 . S
C2413 C2414 1.334 . S
C2414 H2385 0.950 . S
C2414 C2413 1.334 . S
C2414 C2415 1.287 . S
C2415 C2414 1.287 . S
C2415 C2416 1.524 . S
C2415 H2418 0.999 . S
C2416 H2386 0.950 . S
C2416 C2415 1.524 . S
C2416 C2417 1.415 . S
C2417 H2387 0.950 . S
C2417 C2412 1.363 . S
C2417 C2416 1.415 . S
H2418 C2415 0.999 . S
H2419 C2400 0.913 . S
H2420 C2438 0.951 . S
H2421 C2440 0.951 . S
H2422 C2442 0.950 . S
H2423 C2443 0.950 . S
H2424 C2445 0.950 . S
H2425 C2448 0.950 . S
H2426 C2449 0.950 . S
H2427 C2451 0.950 . S
H2428 C2452 0.950 . S
H2429 C2453 0.951 . S
H2430 C2455 0.951 . S
H2431 C2457 0.950 . S
H2432 C2458 0.950 . S
H2433 C2460 0.950 . S
H2434 C2463 0.950 . S
H2435 C2464 0.950 . S
H2436 C2466 0.950 . S
H2437 C2467 0.950 . S
C2438 H2420 0.951 . S
C2438 C2439 1.366 . S
C2438 C2440 1.388 . S
C2439 C2438 1.366 . S
C2439 C2443 1.385 . S
C2440 H2421 0.951 . S
C2440 C2438 1.388 . S
C2440 C2441 1.366 . S
C2441 C2440 1.366 . S
C2441 C2442 1.414 . S
C2441 C2444 1.499 . S
C2442 H2422 0.950 . S
C2442 C2441 1.414 . S
C2442 C2443 1.374 . S
C2443 H2423 0.950 . S
C2443 C2439 1.385 . S
C2443 C2442 1.374 . S
C2444 C2441 1.499 . S
C2444 C2445 1.373 . S
C2444 C2446 1.389 . S
C2445 H2424 0.950 . S
C2445 C2444 1.373 . S
C2445 C2461 1.377 . S
C2446 C2444 1.389 . S
C2446 C2447 1.524 . S
C2446 C2460 1.377 . S
C2447 C2446 1.524 . S
C2447 C2448 1.397 . S
C2447 C2452 1.363 . S
C2448 H2425 0.950 . S
C2448 C2447 1.397 . S
C2448 C2449 1.334 . S
C2449 H2426 0.950 . S
C2449 C2448 1.334 . S
C2449 C2450 1.287 . S
C2450 C2449 1.287 . S
C2450 C2451 1.524 . S
C2450 H2469 0.913 . S
C2451 H2427 0.950 . S
C2451 C2450 1.524 . S
C2451 C2452 1.415 . S
C2452 H2428 0.950 . S
C2452 C2447 1.363 . S
C2452 C2451 1.415 . S
C2453 H2429 0.951 . S
C2453 C2454 1.366 . S
C2453 C2455 1.388 . S
C2454 C2453 1.366 . S
C2454 C2458 1.385 . S
C2455 H2430 0.951 . S
C2455 C2453 1.388 . S
C2455 C2456 1.366 . S
C2456 C2455 1.366 . S
C2456 C2457 1.414 . S
C2456 C2459 1.499 . S
C2457 H2431 0.950 . S
C2457 C2456 1.414 . S
C2457 C2458 1.374 . S
C2458 H2432 0.950 . S
C2458 C2454 1.385 . S
C2458 C2457 1.374 . S
C2459 C2456 1.499 . S
C2459 C2460 1.373 . S
C2459 C2461 1.389 . S
C2460 H2433 0.950 . S
C2460 C2446 1.377 . S
C2460 C2459 1.373 . S
C2461 C2445 1.377 . S
C2461 C2459 1.389 . S
C2461 C2462 1.524 . S
C2462 C2461 1.524 . S
C2462 C2463 1.397 . S
C2462 C2467 1.363 . S
C2463 H2434 0.950 . S
C2463 C2462 1.397 . S
C2463 C2464 1.334 . S
C2464 H2435 0.950 . S
C2464 C2463 1.334 . S
C2464 C2465 1.287 . S
C2465 C2464 1.287 . S
C2465 C2466 1.524 . S
C2465 H2468 0.999 . S
C2466 H2436 0.950 . S
C2466 C2465 1.524 . S
C2466 C2467 1.415 . S
C2467 H2437 0.950 . S
C2467 C2462 1.363 . S
C2467 C2466 1.415 . S
H2468 C2465 0.999 . S
H2469 C2450 0.913 . S
H2470 C2488 0.951 . S
H2471 C2490 0.951 . S
H2472 C2492 0.950 . S
H2473 C2493 0.950 . S
H2474 C2495 0.950 . S
H2475 C2498 0.950 . S
H2476 C2499 0.950 . S
H2477 C2501 0.950 . S
H2478 C2502 0.950 . S
H2479 C2503 0.951 . S
H2480 C2505 0.951 . S
H2481 C2507 0.950 . S
H2482 C2508 0.950 . S
H2483 C2510 0.950 . S
H2484 C2513 0.950 . S
H2485 C2514 0.950 . S
H2486 C2516 0.950 . S
H2487 C2517 0.950 . S
C2488 H2470 0.951 . S
C2488 C2489 1.366 . S
C2488 C2490 1.388 . S
C2489 C2488 1.366 . S
C2489 C2493 1.385 . S
C2490 H2471 0.951 . S
C2490 C2488 1.388 . S
C2490 C2491 1.366 . S
C2491 C2490 1.366 . S
C2491 C2492 1.414 . S
C2491 C2494 1.499 . S
C2492 H2472 0.950 . S
C2492 C2491 1.414 . S
C2492 C2493 1.374 . S
C2493 H2473 0.950 . S
C2493 C2489 1.385 . S
C2493 C2492 1.374 . S
C2494 C2491 1.499 . S
C2494 C2495 1.373 . S
C2494 C2496 1.389 . S
C2495 H2474 0.950 . S
C2495 C2494 1.373 . S
C2495 C2511 1.377 . S
C2496 C2494 1.389 . S
C2496 C2497 1.524 . S
C2496 C2510 1.377 . S
C2497 C2496 1.524 . S
C2497 C2498 1.397 . S
C2497 C2502 1.363 . S
C2498 H2475 0.950 . S
C2498 C2497 1.397 . S
C2498 C2499 1.334 . S
C2499 H2476 0.950 . S
C2499 C2498 1.334 . S
C2499 C2500 1.287 . S
C2500 C2499 1.287 . S
C2500 C2501 1.524 . S
C2500 H2519 0.913 . S
C2501 H2477 0.950 . S
C2501 C2500 1.524 . S
C2501 C2502 1.415 . S
C2502 H2478 0.950 . S
C2502 C2497 1.363 . S
C2502 C2501 1.415 . S
C2503 H2479 0.951 . S
C2503 C2504 1.366 . S
C2503 C2505 1.388 . S
C2504 C2503 1.366 . S
C2504 C2508 1.385 . S
C2505 H2480 0.951 . S
C2505 C2503 1.388 . S
C2505 C2506 1.366 . S
C2506 C2505 1.366 . S
C2506 C2507 1.414 . S
C2506 C2509 1.499 . S
C2507 H2481 0.950 . S
C2507 C2506 1.414 . S
C2507 C2508 1.374 . S
C2508 H2482 0.950 . S
C2508 C2504 1.385 . S
C2508 C2507 1.374 . S
C2509 C2506 1.499 . S
C2509 C2510 1.373 . S
C2509 C2511 1.389 . S
C2510 H2483 0.950 . S
C2510 C2496 1.377 . S
C2510 C2509 1.373 . S
C2511 C2495 1.377 . S
C2511 C2509 1.389 . S
C2511 C2512 1.524 . S
C2512 C2511 1.524 . S
C2512 C2513 1.397 . S
C2512 C2517 1.363 . S
C2513 H2484 0.950 . S
C2513 C2512 1.397 . S
C2513 C2514 1.334 1_655 S
C2514 H2485 0.950 . S
C2514 C2513 1.334 1_455 S
C2514 C2515 1.287 . S
C2515 C2514 1.287 . S
C2515 C2516 1.524 . S
C2515 H2518 0.999 . S
C2516 H2486 0.950 . S
C2516 C2515 1.524 . S
C2516 C2517 1.415 1_455 S
C2517 H2487 0.950 . S
C2517 C2512 1.363 . S
C2517 C2516 1.415 1_655 S
H2518 C2515 0.999 . S
H2519 C2500 0.913 . S
H2520 C2538 0.951 . S
H2521 C2540 0.951 . S
H2522 C2542 0.950 . S
H2523 C2543 0.950 . S
H2524 C2545 0.950 . S
H2525 C2548 0.950 . S
H2526 C2549 0.950 . S
H2527 C2551 0.950 . S
H2528 C2552 0.950 . S
H2529 C2553 0.951 . S
H2530 C2555 0.951 . S
H2531 C2557 0.950 . S
H2532 C2558 0.950 . S
H2533 C2560 0.950 . S
H2534 C2563 0.950 . S
H2535 C2564 0.950 1_565 S
H2536 C2566 0.950 . S
H2537 C2567 0.950 . S
C2538 H2520 0.951 . S
C2538 C2539 1.366 . S
C2538 C2540 1.388 . S
C2539 C2538 1.366 . S
C2539 C2543 1.385 . S
C2540 H2521 0.951 . S
C2540 C2538 1.388 . S
C2540 C2541 1.366 . S
C2541 C2540 1.366 . S
C2541 C2542 1.414 . S
C2541 C2544 1.499 . S
C2542 H2522 0.950 . S
C2542 C2541 1.414 . S
C2542 C2543 1.374 . S
C2543 H2523 0.950 . S
C2543 C2539 1.385 . S
C2543 C2542 1.374 . S
C2544 C2541 1.499 . S
C2544 C2545 1.373 . S
C2544 C2546 1.389 . S
C2545 H2524 0.950 . S
C2545 C2544 1.373 . S
C2545 C2561 1.377 1_556 S
C2546 C2544 1.389 . S
C2546 C2547 1.524 . S
C2546 C2560 1.377 . S
C2547 C2546 1.524 . S
C2547 C2548 1.397 . S
C2547 C2552 1.363 . S
C2548 H2525 0.950 . S
C2548 C2547 1.397 . S
C2548 C2549 1.334 . S
C2549 H2526 0.950 . S
C2549 C2548 1.334 . S
C2549 C2550 1.287 . S
C2550 C2549 1.287 . S
C2550 C2551 1.524 . S
C2550 H2569 0.913 . S
C2551 H2527 0.950 . S
C2551 C2550 1.524 . S
C2551 C2552 1.415 . S
C2552 H2528 0.950 . S
C2552 C2547 1.363 . S
C2552 C2551 1.415 . S
C2553 H2529 0.951 . S
C2553 C2554 1.366 . S
C2553 C2555 1.388 . S
C2554 C2553 1.366 . S
C2554 C2558 1.385 . S
C2555 H2530 0.951 . S
C2555 C2553 1.388 . S
C2555 C2556 1.366 . S
C2556 C2555 1.366 . S
C2556 C2557 1.414 . S
C2556 C2559 1.499 . S
C2557 H2531 0.950 . S
C2557 C2556 1.414 . S
C2557 C2558 1.374 . S
C2558 H2532 0.950 . S
C2558 C2554 1.385 . S
C2558 C2557 1.374 . S
C2559 C2556 1.499 . S
C2559 C2560 1.373 1_554 S
C2559 C2561 1.389 . S
C2560 H2533 0.950 . S
C2560 C2546 1.377 . S
C2560 C2559 1.373 1_556 S
C2561 C2545 1.377 1_554 S
C2561 C2559 1.389 . S
C2561 C2562 1.524 . S
C2562 C2561 1.524 . S
C2562 C2563 1.397 . S
C2562 C2567 1.363 . S
C2563 H2534 0.950 . S
C2563 C2562 1.397 . S
C2563 C2564 1.334 . S
C2564 H2535 0.950 1_545 S
C2564 C2563 1.334 . S
C2564 C2565 1.287 . S
C2565 C2564 1.287 . S
C2565 C2566 1.524 . S
C2565 H2568 0.999 1_545 S
C2566 H2536 0.950 . S
C2566 C2565 1.524 . S
C2566 C2567 1.415 . S
C2567 H2537 0.950 . S
C2567 C2562 1.363 . S
C2567 C2566 1.415 . S
H2568 C2565 0.999 1_565 S
H2569 C2550 0.913 . S
H2570 C2588 0.951 . S
H2571 C2590 0.951 . S
H2572 C2592 0.950 . S
H2573 C2593 0.950 . S
H2574 C2595 0.950 . S
H2575 C2598 0.950 . S
H2576 C2599 0.950 . S
H2577 C2601 0.950 . S
H2578 C2602 0.950 . S
H2579 C2603 0.951 . S
H2580 C2605 0.951 . S
H2581 C2607 0.950 . S
H2582 C2608 0.950 . S
H2583 C2610 0.950 . S
H2584 C2613 0.950 . S
H2585 C2614 0.950 . S
H2586 C2616 0.950 . S
H2587 C2617 0.950 . S
C2588 H2570 0.951 . S
C2588 C2589 1.366 . S
C2588 C2590 1.388 . S
C2589 C2588 1.366 . S
C2589 C2593 1.385 . S
C2590 H2571 0.951 . S
C2590 C2588 1.388 . S
C2590 C2591 1.366 . S
C2591 C2590 1.366 . S
C2591 C2592 1.414 . S
C2591 C2594 1.499 . S
C2592 H2572 0.950 . S
C2592 C2591 1.414 . S
C2592 C2593 1.374 . S
C2593 H2573 0.950 . S
C2593 C2589 1.385 . S
C2593 C2592 1.374 . S
C2594 C2591 1.499 . S
C2594 C2595 1.373 . S
C2594 C2596 1.389 . S
C2595 H2574 0.950 . S
C2595 C2594 1.373 . S
C2595 C2611 1.377 1_556 S
C2596 C2594 1.389 . S
C2596 C2597 1.524 . S
C2596 C2610 1.377 . S
C2597 C2596 1.524 . S
C2597 C2598 1.397 . S
C2597 C2602 1.363 . S
C2598 H2575 0.950 . S
C2598 C2597 1.397 . S
C2598 C2599 1.334 . S
C2599 H2576 0.950 . S
C2599 C2598 1.334 . S
C2599 C2600 1.287 . S
C2600 C2599 1.287 . S
C2600 C2601 1.524 . S
C2600 H2619 0.913 . S
C2601 H2577 0.950 . S
C2601 C2600 1.524 . S
C2601 C2602 1.415 . S
C2602 H2578 0.950 . S
C2602 C2597 1.363 . S
C2602 C2601 1.415 . S
C2603 H2579 0.951 . S
C2603 C2604 1.366 . S
C2603 C2605 1.388 . S
C2604 C2603 1.366 . S
C2604 C2608 1.385 . S
C2605 H2580 0.951 . S
C2605 C2603 1.388 . S
C2605 C2606 1.366 . S
C2606 C2605 1.366 . S
C2606 C2607 1.414 . S
C2606 C2609 1.499 . S
C2607 H2581 0.950 . S
C2607 C2606 1.414 . S
C2607 C2608 1.374 . S
C2608 H2582 0.950 . S
C2608 C2604 1.385 . S
C2608 C2607 1.374 . S
C2609 C2606 1.499 . S
C2609 C2610 1.373 1_554 S
C2609 C2611 1.389 . S
C2610 H2583 0.950 . S
C2610 C2596 1.377 . S
C2610 C2609 1.373 1_556 S
C2611 C2595 1.377 1_554 S
C2611 C2609 1.389 . S
C2611 C2612 1.524 . S
C2612 C2611 1.524 . S
C2612 C2613 1.397 . S
C2612 C2617 1.363 . S
C2613 H2584 0.950 . S
C2613 C2612 1.397 . S
C2613 C2614 1.334 . S
C2614 H2585 0.950 . S
C2614 C2613 1.334 . S
C2614 C2615 1.287 . S
C2615 C2614 1.287 . S
C2615 C2616 1.524 . S
C2615 H2618 0.999 . S
C2616 H2586 0.950 . S
C2616 C2615 1.524 . S
C2616 C2617 1.415 . S
C2617 H2587 0.950 . S
C2617 C2612 1.363 . S
C2617 C2616 1.415 . S
H2618 C2615 0.999 . S
H2619 C2600 0.913 . S
H2620 C2638 0.951 . S
H2621 C2640 0.951 . S
H2622 C2642 0.950 . S
H2623 C2643 0.950 . S
H2624 C2645 0.950 . S
H2625 C2648 0.950 . S
H2626 C2649 0.950 . S
H2627 C2651 0.950 . S
H2628 C2652 0.950 . S
H2629 C2653 0.951 . S
H2630 C2655 0.951 . S
H2631 C2657 0.950 . S
H2632 C2658 0.950 . S
H2633 C2660 0.951 1_554 S
H2634 C2663 0.950 . S
H2635 C2664 0.950 . S
H2636 C2666 0.950 . S
H2637 C2667 0.950 . S
C2638 H2620 0.951 . S
C2638 C2639 1.366 . S
C2638 C2640 1.388 . S
C2639 C2638 1.366 . S
C2639 C2643 1.385 . S
C2640 H2621 0.951 . S
C2640 C2638 1.388 . S
C2640 C2641 1.366 . S
C2641 C2640 1.366 . S
C2641 C2642 1.414 . S
C2641 C2644 1.499 . S
C2642 H2622 0.950 . S
C2642 C2641 1.414 . S
C2642 C2643 1.374 . S
C2643 H2623 0.950 . S
C2643 C2639 1.385 . S
C2643 C2642 1.374 . S
C2644 C2641 1.499 . S
C2644 C2645 1.373 1_554 S
C2644 C2646 1.389 . S
C2645 H2624 0.950 . S
C2645 C2644 1.373 1_556 S
C2645 C2661 1.377 . S
C2646 C2644 1.389 . S
C2646 C2647 1.524 . S
C2646 C2660 1.379 1_554 S
C2647 C2646 1.524 . S
C2647 C2648 1.397 . S
C2647 C2652 1.363 . S
C2648 H2625 0.950 . S
C2648 C2647 1.397 . S
C2648 C2649 1.334 . S
C2649 H2626 0.950 . S
C2649 C2648 1.334 . S
C2649 C2650 1.287 . S
C2650 C2649 1.287 . S
C2650 C2651 1.524 . S
C2650 H2669 0.913 . S
C2651 H2627 0.950 . S
C2651 C2650 1.524 . S
C2651 C2652 1.415 . S
C2652 H2628 0.950 . S
C2652 C2647 1.363 . S
C2652 C2651 1.415 . S
C2653 H2629 0.951 . S
C2653 C2654 1.366 . S
C2653 C2655 1.388 . S
C2654 C2653 1.366 . S
C2654 C2658 1.385 . S
C2655 H2630 0.951 . S
C2655 C2653 1.388 . S
C2655 C2656 1.366 . S
C2656 C2655 1.366 . S
C2656 C2657 1.414 . S
C2656 C2659 1.499 . S
C2657 H2631 0.950 . S
C2657 C2656 1.414 . S
C2657 C2658 1.374 . S
C2658 H2632 0.950 . S
C2658 C2654 1.385 . S
C2658 C2657 1.374 . S
C2659 C2656 1.499 . S
C2659 C2660 1.370 . S
C2659 C2661 1.389 . S
C2660 H2633 0.951 1_556 S
C2660 C2646 1.379 1_556 S
C2660 C2659 1.370 . S
C2661 C2645 1.377 . S
C2661 C2659 1.389 . S
C2661 C2662 1.524 . S
C2662 C2661 1.524 . S
C2662 C2663 1.397 . S
C2662 C2667 1.363 . S
C2663 H2634 0.950 . S
C2663 C2662 1.397 . S
C2663 C2664 1.334 . S
C2664 H2635 0.950 . S
C2664 C2663 1.334 . S
C2664 C2665 1.287 . S
C2665 C2664 1.287 . S
C2665 C2666 1.524 . S
C2665 H2668 0.999 . S
C2666 H2636 0.950 . S
C2666 C2665 1.524 . S
C2666 C2667 1.415 . S
C2667 H2637 0.950 . S
C2667 C2662 1.363 . S
C2667 C2666 1.415 . S
H2668 C2665 0.999 . S
H2669 C2650 0.913 . S
H2670 C2688 0.951 . S
H2671 C2690 0.951 . S
H2672 C2692 0.950 . S
H2673 C2693 0.950 . S
H2674 C2695 0.950 . S
H2675 C2698 0.950 . S
H2676 C2699 0.950 . S
H2677 C2701 0.950 . S
H2678 C2702 0.950 . S
H2679 C2703 0.951 . S
H2680 C2705 0.951 . S
H2681 C2707 0.950 . S
H2682 C2708 0.950 . S
H2683 C2710 0.950 . S
H2684 C2713 0.950 . S
H2685 C2714 0.950 . S
H2686 C2716 0.950 . S
H2687 C2717 0.950 . S
C2688 H2670 0.951 . S
C2688 C2689 1.366 . S
C2688 C2690 1.388 . S
C2689 C2688 1.366 . S
C2689 C2693 1.385 . S
C2690 H2671 0.951 . S
C2690 C2688 1.388 . S
C2690 C2691 1.366 . S
C2691 C2690 1.366 . S
C2691 C2692 1.414 . S
C2691 C2694 1.499 . S
C2692 H2672 0.950 . S
C2692 C2691 1.414 . S
C2692 C2693 1.374 . S
C2693 H2673 0.950 . S
C2693 C2689 1.385 . S
C2693 C2692 1.374 . S
C2694 C2691 1.499 . S
C2694 C2695 1.373 1_554 S
C2694 C2696 1.389 . S
C2695 H2674 0.950 . S
C2695 C2694 1.373 1_556 S
C2695 C2711 1.377 . S
C2696 C2694 1.389 . S
C2696 C2697 1.524 . S
C2696 C2710 1.377 1_554 S
C2697 C2696 1.524 . S
C2697 C2698 1.397 . S
C2697 C2702 1.363 . S
C2698 H2675 0.950 . S
C2698 C2697 1.397 . S
C2698 C2699 1.334 . S
C2699 H2676 0.950 . S
C2699 C2698 1.334 . S
C2699 C2700 1.287 . S
C2700 C2699 1.287 . S
C2700 C2701 1.524 . S
C2700 H2719 0.913 . S
C2701 H2677 0.950 . S
C2701 C2700 1.524 . S
C2701 C2702 1.415 . S
C2702 H2678 0.950 . S
C2702 C2697 1.363 . S
C2702 C2701 1.415 . S
C2703 H2679 0.951 . S
C2703 C2704 1.366 . S
C2703 C2705 1.388 . S
C2704 C2703 1.366 . S
C2704 C2708 1.385 . S
C2705 H2680 0.951 . S
C2705 C2703 1.388 . S
C2705 C2706 1.366 . S
C2706 C2705 1.366 . S
C2706 C2707 1.414 . S
C2706 C2709 1.499 . S
C2707 H2681 0.950 . S
C2707 C2706 1.414 . S
C2707 C2708 1.374 . S
C2708 H2682 0.950 . S
C2708 C2704 1.385 . S
C2708 C2707 1.374 . S
C2709 C2706 1.499 . S
C2709 C2710 1.373 . S
C2709 C2711 1.389 . S
C2710 H2683 0.950 . S
C2710 C2696 1.377 1_556 S
C2710 C2709 1.373 . S
C2711 C2695 1.377 . S
C2711 C2709 1.389 . S
C2711 C2712 1.524 . S
C2712 C2711 1.524 . S
C2712 C2713 1.397 . S
C2712 C2717 1.363 . S
C2713 H2684 0.950 . S
C2713 C2712 1.397 . S
C2713 C2714 1.334 . S
C2714 H2685 0.950 . S
C2714 C2713 1.334 . S
C2714 C2715 1.287 . S
C2715 C2714 1.287 . S
C2715 C2716 1.524 . S
C2715 H2718 0.990 1_455 S
C2716 H2686 0.950 . S
C2716 C2715 1.524 . S
C2716 C2717 1.415 . S
C2717 H2687 0.950 . S
C2717 C2712 1.363 . S
C2717 C2716 1.415 . S
H2718 C2715 0.990 1_655 S
H2719 C2700 0.913 . S
C339 C18 1.948 . S
C354 C118 1.947 . S
C389 C138 1.948 . S
C404 C38 1.948 . S
C439 C58 1.948 . S
C454 C158 1.948 . S
C489 C78 1.947 . S
C504 C98 1.948 . S
C539 C279 1.948 . S
C554 C179 1.948 . S
C589 C299 1.948 . S
C604 C199 1.948 . S
C639 C219 1.948 . S
C654 C319 1.948 . S
C689 C239 1.948 . S
C704 C259 1.948 . S
C739 C9 1.730 . S
C754 C62 1.630 . S
C789 C29 1.730 . S
C804 C2 1.630 . S
C839 C49 1.731 . S
C854 C22 1.631 . S
C889 C69 1.730 . S
C904 C42 1.630 . S
C939 C89 1.730 . S
C954 C102 1.629 . S
C989 C122 1.629 . S
C1004 C109 1.730 . S
C1039 C129 1.730 . S
C1054 C142 1.630 . S
C1089 C82 1.630 . S
C1104 C149 1.730 . S
C1139 C224 1.631 . S
C1154 C172 1.731 . S
C1189 C192 1.730 . S
C1204 C164 1.630 . S
C1239 C212 1.730 . S
C1254 C184 1.630 . S
C1289 C232 1.730 . S
C1304 C204 1.630 . S
C1339 C252 1.730 . S
C1354 C264 1.630 . S
C1389 C272 1.731 . S
C1404 C284 1.630 . S
C1439 C292 1.730 . S
C1454 C304 1.630 . S
C1489 C312 1.730 . S
C1504 C244 1.629 . S
C1539 C12 0.491 . S
C1554 C52 0.489 . S
C1589 C32 0.491 . S
C1604 C72 0.489 . S
C1639 C132 0.490 . S
C1654 C92 0.488 . S
C1689 C152 0.490 . S
C1704 C112 0.488 . S
C1739 C209 0.490 . S
C1754 C169 0.488 . S
C1789 C229 0.488 . S
C1804 C189 0.491 . S
C1839 C249 0.488 . S
C1854 C289 0.489 . S
C1889 C269 0.489 . S
C1904 C309 0.488 . S
C1939 C4 1.065 . S
C1954 C238 1.116 . S
C1989 C178 1.118 . S
C2004 C24 1.065 . S
C2039 C44 1.065 . S
C2054 C198 1.117 . S
C2089 C218 1.117 . S
C2104 C64 1.066 . S
C2139 C278 1.117 . S
C2154 C84 1.066 . S
C2189 C104 1.064 . S
C2204 C298 1.117 . S
C2239 C318 1.117 . S
C2254 C124 1.066 . S
C2289 C144 1.064 . S
C2304 C258 1.116 . S
C2339 C162 1.064 . S
C2354 C79 1.117 . S
C2389 C182 1.064 . S
C2404 C19 1.116 . S
C2439 C39 1.117 . S
C2454 C202 1.064 . S
C2489 C222 1.066 . S
C2504 C59 1.117 . S
C2539 C242 1.066 . S
C2554 C119 1.117 . S
C2589 C262 1.066 . S
C2604 C139 1.117 . S
C2639 C159 1.117 . S
C2654 C282 1.064 . S
C2689 C99 1.117 . S
C2704 C302 1.064 . S
