# Generated by pormake.
# Topology wji, (4)-cn, num edge types: 1
# Building blocks:
#     Node 0, Type 0, BuildingBlock: NAHDIM_clean_sbu_0, # of connection points: 4
#     Node 1, Type 0, BuildingBlock: NAHDIM_clean_sbu_0, # of connection points: 4
#     Node 2, Type 0, BuildingBlock: NAHDIM_clean_sbu_0, # of connection points: 4
#     Node 3, Type 0, BuildingBlock: NAHDIM_clean_sbu_0, # of connection points: 4
#     Node 4, Type 0, BuildingBlock: NAHDIM_clean_sbu_0, # of connection points: 4
#     Node 5, Type 0, BuildingBlock: NAHDIM_clean_sbu_0, # of connection points: 4
#     Node 6, Type 0, BuildingBlock: NAHDIM_clean_sbu_0, # of connection points: 4
#     Node 7, Type 0, BuildingBlock: NAHDIM_clean_sbu_0, # of connection points: 4
#     Node 8, Type 0, BuildingBlock: NAHDIM_clean_sbu_0, # of connection points: 4
#     Node 9, Type 0, BuildingBlock: NAHDIM_clean_sbu_0, # of connection points: 4
#     Node 10, Type 0, BuildingBlock: NAHDIM_clean_sbu_0, # of connection points: 4
#     Node 11, Type 0, BuildingBlock: NAHDIM_clean_sbu_0, # of connection points: 4
#     Edge 12, Type (0, 0), BuildingBlock: AJUNOK_clean_linker_0, # of connection points: 2
#     Edge 13, Type (0, 0), BuildingBlock: AJUNOK_clean_linker_0, # of connection points: 2
#     Edge 14, Type (0, 0), BuildingBlock: AJUNOK_clean_linker_0, # of connection points: 2
#     Edge 15, Type (0, 0), BuildingBlock: AJUNOK_clean_linker_0, # of connection points: 2
#     Edge 16, Type (0, 0), BuildingBlock: AJUNOK_clean_linker_0, # of connection points: 2
#     Edge 17, Type (0, 0), BuildingBlock: AJUNOK_clean_linker_0, # of connection points: 2
#     Edge 18, Type (0, 0), BuildingBlock: AJUNOK_clean_linker_0, # of connection points: 2
#     Edge 19, Type (0, 0), BuildingBlock: AJUNOK_clean_linker_0, # of connection points: 2
#     Edge 20, Type (0, 0), BuildingBlock: AJUNOK_clean_linker_0, # of connection points: 2
#     Edge 21, Type (0, 0), BuildingBlock: AJUNOK_clean_linker_0, # of connection points: 2
#     Edge 22, Type (0, 0), BuildingBlock: AJUNOK_clean_linker_0, # of connection points: 2
#     Edge 23, Type (0, 0), BuildingBlock: AJUNOK_clean_linker_0, # of connection points: 2
#     Edge 24, Type (0, 0), BuildingBlock: AJUNOK_clean_linker_0, # of connection points: 2
#     Edge 25, Type (0, 0), BuildingBlock: AJUNOK_clean_linker_0, # of connection points: 2
#     Edge 26, Type (0, 0), BuildingBlock: AJUNOK_clean_linker_0, # of connection points: 2
#     Edge 27, Type (0, 0), BuildingBlock: AJUNOK_clean_linker_0, # of connection points: 2
#     Edge 28, Type (0, 0), BuildingBlock: AJUNOK_clean_linker_0, # of connection points: 2
#     Edge 29, Type (0, 0), BuildingBlock: AJUNOK_clean_linker_0, # of connection points: 2
#     Edge 30, Type (0, 0), BuildingBlock: AJUNOK_clean_linker_0, # of connection points: 2
#     Edge 31, Type (0, 0), BuildingBlock: AJUNOK_clean_linker_0, # of connection points: 2
#     Edge 32, Type (0, 0), BuildingBlock: AJUNOK_clean_linker_0, # of connection points: 2
#     Edge 33, Type (0, 0), BuildingBlock: AJUNOK_clean_linker_0, # of connection points: 2
#     Edge 34, Type (0, 0), BuildingBlock: AJUNOK_clean_linker_0, # of connection points: 2
#     Edge 35, Type (0, 0), BuildingBlock: AJUNOK_clean_linker_0, # of connection points: 2
# Relax obj value: 0.149
# Max RMSD: 0.092
# Mean RMSD: 0.092
data_MOF--net-wji--node1-NAHDIM_clean_sbu_0--edge1-AJUNOK_clean_linker_0
_symmetry_space_group_name_H-M    P1
_symmetry_Int_Tables_number       1
_symmetry_cell_setting            triclinic
loop_
_symmetry_equiv_pos_as_xyz
'x, y, z'
_cell_length_a     42.964211
_cell_length_b     42.970842
_cell_length_c     17.09441
_cell_angle_alpha  89.951084
_cell_angle_beta   90.115549
_cell_angle_gamma 119.91991
loop_
_atom_site_label
_atom_site_type_symbol
_atom_site_fract_x
_atom_site_fract_y
_atom_site_fract_z
_atom_type_partial_charge
C0 C 0.40406 0.25723 0.51951 0.0
O1 O 0.41022 0.28369 0.56705 0.0
O2 O 0.45245 0.3463 0.40797 0.0
Zn3 Zn 0.40081 0.30699 0.41816 0.0
O4 O 0.37764 0.31881 0.50495 0.0
C5 C 0.39271 0.31753 0.25548 0.0
O6 O 0.42526 0.32197 0.25357 0.0
O7 O 0.39869 0.26026 0.44723 0.0
C8 C 0.37993 0.34921 0.51241 0.0
O9 O 0.39814 0.37444 0.46059 0.0
C10 C 0.47242 0.36582 0.46331 0.0
O11 O 0.45963 0.36018 0.53484 0.0
O12 O 0.37514 0.30716 0.319 0.0
C13 C 0.14907 0.41968 0.7032 0.0
O14 O 0.12945 0.42868 0.74605 0.0
O15 O 0.10295 0.4596 0.58732 0.0
Zn16 Zn 0.09478 0.40942 0.59619 0.0
O17 O 0.05788 0.38659 0.6796 0.0
C18 C 0.0419 0.35963 0.48557 0.0
O19 O 0.0229 0.34599 0.54935 0.0
O20 O 0.14006 0.41052 0.63225 0.0
C21 C 0.05209 0.35985 0.7214 0.0
O22 O 0.07137 0.34423 0.71045 0.0
C23 C 0.07455 0.46059 0.57154 0.0
O24 O 0.04448 0.43011 0.56117 0.0
O25 O 0.07435 0.38488 0.492 0.0
C26 C 0.72933 0.16063 0.84576 0.0
O27 O 0.70213 0.14201 0.89281 0.0
O28 O 0.63953 0.11169 0.72476 0.0
Zn29 Zn 0.68134 0.10409 0.74807 0.0
O30 O 0.66995 0.07355 0.84251 0.0
C31 C 0.67637 0.07447 0.59187 0.0
O32 O 0.67024 0.10014 0.56917 0.0
O33 O 0.72704 0.15039 0.7749 0.0
C34 C 0.64205 0.04305 0.84969 0.0
O35 O 0.61825 0.03063 0.79287 0.0
C36 C 0.61985 0.11297 0.77866 0.0
O37 O 0.62838 0.11167 0.85192 0.0
O38 O 0.68469 0.07347 0.6628 0.0
C39 C 0.59295 0.74024 0.01912 0.0
O40 O 0.59052 0.71483 0.06568 0.0
O41 O 0.53907 0.65108 0.90158 0.0
Zn42 Zn 0.59094 0.68976 0.90995 0.0
O43 O 0.61506 0.67619 0.99239 0.0
C44 C 0.63832 0.68435 0.79569 0.0
O45 O 0.65467 0.68189 0.85839 0.0
O46 O 0.59375 0.73617 0.94538 0.0
C47 C 0.6073 0.6443 0.00809 0.0
O48 O 0.583 0.61773 0.96577 0.0
C49 C 0.51831 0.63449 0.9584 0.0
O50 O 0.53042 0.64308 0.03032 0.0
O51 O 0.61276 0.69102 0.80393 0.0
C52 C 0.84012 0.57489 0.17618 0.0
O53 O 0.86136 0.56802 0.21908 0.0
O54 O 0.88887 0.53688 0.06449 0.0
Zn55 Zn 0.89507 0.58655 0.07325 0.0
O56 O 0.92952 0.61347 0.15898 0.0
C57 C 0.91203 0.59559 0.90956 0.0
O58 O 0.88666 0.56169 0.90835 0.0
O59 O 0.84812 0.58323 0.10451 0.0
C60 C 0.96299 0.62523 0.15402 0.0
O61 O 0.97611 0.61962 0.08963 0.0
C62 C 0.89691 0.5213 0.11742 0.0
O63 O 0.9092 0.53751 0.18487 0.0
O64 O 0.91799 0.61307 0.97298 0.0
C65 C 0.26276 0.83998 0.37238 0.0
O66 O 0.28755 0.86089 0.42265 0.0
O67 O 0.35244 0.88181 0.25372 0.0
Zn68 Zn 0.31293 0.89347 0.26877 0.0
O69 O 0.32751 0.92825 0.35692 0.0
C70 C 0.33161 0.95134 0.16287 0.0
O71 O 0.35361 0.96832 0.22106 0.0
O72 O 0.26712 0.84844 0.30012 0.0
C73 C 0.30838 0.94083 0.38277 0.0
O74 O 0.27762 0.93186 0.34855 0.0
C75 C 0.37065 0.88083 0.31145 0.0
O76 O 0.3623 0.886 0.3822 0.0
O77 O 0.30962 0.91781 0.16979 0.0
C78 C 0.71047 0.56498 0.30846 0.0
O79 O 0.6836 0.55707 0.26058 0.0
O80 O 0.6234 0.51882 0.44638 0.0
Zn81 Zn 0.66129 0.56905 0.41599 0.0
O82 O 0.64233 0.58326 0.32406 0.0
C83 C 0.6472 0.61514 0.51134 0.0
O84 O 0.62147 0.605 0.45913 0.0
O85 O 0.70729 0.57078 0.38036 0.0
C86 C 0.66125 0.61379 0.29255 0.0
O87 O 0.69264 0.63631 0.32318 0.0
C88 C 0.60649 0.49611 0.3926 0.0
O89 O 0.61552 0.50573 0.31953 0.0
O90 O 0.66887 0.60311 0.50584 0.0
C91 C 0.14106 0.70908 0.49301 0.0
O92 O 0.12742 0.67915 0.45249 0.0
O93 O 0.08842 0.621 0.58365 0.0
Zn94 Zn 0.07943 0.66278 0.57139 0.0
O95 O 0.05485 0.65657 0.46859 0.0
C96 C 0.01349 0.63948 0.65154 0.0
O97 O 0.00241 0.62053 0.5869 0.0
O98 O 0.12611 0.70918 0.55725 0.0
C99 C 0.04071 0.67463 0.44476 0.0
O100 O 0.03906 0.69803 0.49141 0.0
C101 C 0.06656 0.59164 0.55014 0.0
O102 O 0.03955 0.58992 0.51046 0.0
O103 O 0.04694 0.66164 0.65951 0.0
C104 C 0.41151 0.13631 0.6532 0.0
O105 O 0.42204 0.11799 0.61021 0.0
O106 O 0.4616 0.1001 0.77364 0.0
Zn107 Zn 0.40928 0.0857 0.76151 0.0
O108 O 0.3884 0.0492 0.67632 0.0
C109 C 0.36829 0.02795 0.86762 0.0
O110 O 0.36967 0.00995 0.80703 0.0
O111 O 0.40481 0.12831 0.7254 0.0
C112 C 0.35794 0.0394 0.64587 0.0
O113 O 0.33898 0.05375 0.67063 0.0
C114 C 0.47905 0.09657 0.71759 0.0
O115 O 0.46275 0.084 0.65036 0.0
O116 O 0.38325 0.06206 0.86296 0.0
C117 C 0.28032 0.42998 0.82665 0.0
O118 O 0.30702 0.44019 0.77729 0.0
O119 O 0.37005 0.479 0.95033 0.0
Zn120 Zn 0.33304 0.42784 0.92354 0.0
O121 O 0.3496 0.41424 0.82685 0.0
C122 C 0.3593 0.3908 0.01115 0.0
O123 O 0.3847 0.40829 0.95927 0.0
O124 O 0.28467 0.42325 0.89721 0.0
C125 C 0.33108 0.38274 0.79951 0.0
O126 O 0.30192 0.35947 0.83671 0.0
C127 C 0.38625 0.50112 0.89519 0.0
O128 O 0.3773 0.49027 0.82267 0.0
O129 O 0.33182 0.39475 0.00996 0.0
C130 C 0.8561 0.28301 0.98022 0.0
O131 O 0.87806 0.31011 0.93613 0.0
O132 O 0.8993 0.36971 0.11297 0.0
Zn133 Zn 0.90798 0.3283 0.09226 0.0
O134 O 0.94334 0.34199 0.00535 0.0
C135 C 0.96415 0.34344 0.19675 0.0
O136 O 0.97947 0.36939 0.14511 0.0
O137 O 0.86246 0.28432 0.05347 0.0
C138 C 0.95535 0.32151 0.98551 0.0
O139 O 0.94617 0.2922 0.02605 0.0
C140 C 0.89863 0.38875 0.05671 0.0
O141 O 0.90318 0.38081 0.98507 0.0
O142 O 0.93096 0.32043 0.18846 0.0
C143 C 0.58116 0.85965 0.14672 0.0
O144 O 0.5697 0.87579 0.09912 0.0
O145 O 0.52908 0.89327 0.29038 0.0
Zn146 Zn 0.5792 0.91048 0.25137 0.0
O147 O 0.58571 0.94029 0.15708 0.0
C148 C 0.61066 0.9458 0.40141 0.0
O149 O 0.58262 0.91838 0.4335 0.0
O150 O 0.5872 0.86957 0.21809 0.0
C151 C 0.61761 0.9598 0.13297 0.0
O152 O 0.64401 0.95931 0.17079 0.0
C153 C 0.50365 0.8824 0.24092 0.0
O154 O 0.51058 0.87995 0.1671 0.0
O155 O 0.61533 0.94578 0.32812 0.0
C156 C 0.39374 0.36282 0.06445 0.0
C157 C 0.36413 0.36829 0.07075 0.0
C158 C 0.40148 0.34467 0.12245 0.0
C159 C 0.38002 0.33114 0.18971 0.0
H160 H 0.41182 0.3734 0.01503 0.0
H161 H 0.42529 0.34235 0.11541 0.0
S162 S 0.29719 0.33511 0.23139 0.0
N163 N 0.31157 0.35625 0.14707 0.0
N164 N 0.3261 0.32212 0.25648 0.0
C165 C 0.3492 0.33473 0.19509 0.0
C166 C 0.34128 0.3533 0.13563 0.0
C167 C 0.9858 0.32908 0.40454 0.0
C168 C 0.02349 0.35096 0.40827 0.0
C169 C 0.96684 0.3253 0.33497 0.0
C170 C 0.98479 0.34333 0.26639 0.0
H171 H 0.9705 0.31594 0.45656 0.0
H172 H 0.9378 0.30947 0.33604 0.0
S173 S 0.0836 0.39889 0.24114 0.0
N174 N 0.07829 0.38729 0.3343 0.0
N175 N 0.04273 0.38021 0.20385 0.0
C176 C 0.0226 0.36325 0.26782 0.0
C177 C 0.04192 0.36702 0.33858 0.0
C178 C 0.6341 0.97708 0.52952 0.0
C179 C 0.63276 0.97898 0.44757 0.0
C180 C 0.65046 0.00829 0.57545 0.0
C181 C 0.66542 0.04263 0.5413 0.0
H182 H 0.62148 0.95125 0.55867 0.0
H183 H 0.64957 0.00533 0.63849 0.0
S184 S 0.67165 0.0626 0.32903 0.0
N185 N 0.65042 0.01833 0.33375 0.0
N186 N 0.68016 0.0768 0.42049 0.0
C187 C 0.66568 0.04501 0.45935 0.0
C188 C 0.64966 0.01325 0.41238 0.0
C189 C 0.66858 0.63954 0.64626 0.0
C190 C 0.64855 0.6374 0.57926 0.0
C191 C 0.66666 0.65659 0.71456 0.0
C192 C 0.64466 0.67227 0.71875 0.0
H193 H 0.68477 0.62668 0.64726 0.0
H194 H 0.68144 0.65607 0.76547 0.0
S195 S 0.59121 0.67897 0.55531 0.0
N196 N 0.60922 0.6561 0.51843 0.0
N197 N 0.60559 0.68802 0.64656 0.0
C198 C 0.62634 0.67239 0.65046 0.0
C199 C 0.62827 0.65497 0.5809 0.0
C200 C 0.95223 0.60267 0.70876 0.0
C201 C 0.98739 0.63201 0.71588 0.0
C202 C 0.92767 0.59225 0.77046 0.0
C203 C 0.93694 0.61085 0.84202 0.0
H204 H 0.94375 0.58668 0.65585 0.0
H205 H 0.90144 0.56872 0.7625 0.0
S206 S 0.02447 0.69171 0.88888 0.0
N207 N 0.02947 0.6811 0.79877 0.0
N208 N 0.98317 0.66172 0.91478 0.0
C209 C 0.97142 0.6414 0.84886 0.0
C210 C -0.00335 0.65188 0.78592 0.0
C211 C 0.36665 0.02704 0.01409 0.0
C212 C 0.35382 0.00883 0.9427 0.0
C213 C 0.35794 0.00829 0.08524 0.0
C214 C 0.33577 0.97064 0.08796 0.0
H215 H 0.385 0.05575 0.0149 0.0
H216 H 0.3697 0.02342 0.13833 0.0
S217 S 0.2911 0.91106 0.91784 0.0
N218 N 0.31484 0.95152 0.87947 0.0
N219 N 0.2983 0.91637 0.01306 0.0
C220 C 0.32081 0.95244 0.01734 0.0
C221 C 0.32992 0.97151 0.94481 0.0
C222 C 0.55959 0.4543 0.48687 0.0
C223 C 0.57451 0.46092 0.41128 0.0
C224 C 0.52722 0.42293 0.50382 0.0
C225 C 0.50844 0.39688 0.44591 0.0
H226 H 0.57234 0.474 0.53292 0.0
H227 H 0.51635 0.41969 0.56229 0.0
S228 S 0.53819 0.39926 0.24093 0.0
N229 N 0.56953 0.43726 0.27966 0.0
N230 N 0.50885 0.37843 0.31145 0.0
C231 C 0.52395 0.40235 0.37103 0.0
C232 C 0.5569 0.43431 0.35376 0.0
C233 C 0.04398 0.49472 0.53472 0.0
C234 C 0.07444 0.49495 0.56564 0.0
C235 C 0.04203 0.52614 0.52982 0.0
C236 C 0.07035 0.55926 0.55613 0.0
H237 H 0.02123 0.47 0.51391 0.0
H238 H 0.0178 0.52421 0.50568 0.0
S239 S 0.15649 0.57474 0.64133 0.0
N240 N 0.13395 0.53127 0.62236 0.0
N241 N 0.1302 0.59055 0.61347 0.0
C242 C 0.10116 0.56007 0.58692 0.0
C243 C 0.10326 0.52791 0.59148 0.0
C244 C 0.53101 0.11061 0.80584 0.0
C245 C 0.51632 0.10381 0.72995 0.0
C246 C 0.56491 0.11459 0.82042 0.0
C247 C 0.58569 0.11214 0.75972 0.0
H248 H 0.51588 0.11196 0.85503 0.0
H249 H 0.57452 0.11892 0.88025 0.0
S250 S 0.5608 0.09752 0.54921 0.0
N251 N 0.52618 0.09691 0.59234 0.0
N252 N 0.58984 0.10446 0.61973 0.0
C253 C 0.57194 0.10673 0.68298 0.0
C254 C 0.5373 0.10253 0.66814 0.0
C255 C 0.46422 0.57776 0.00287 0.0
C256 C 0.48245 0.60284 0.94303 0.0
C257 C 0.43237 0.54554 0.98761 0.0
C258 C 0.41744 0.53715 0.91191 0.0
H259 H 0.47527 0.58234 0.06149 0.0
H260 H 0.42009 0.52658 0.03511 0.0
S261 S 0.45212 0.596 0.73694 0.0
N262 N 0.48133 0.61865 0.80671 0.0
N263 N 0.42156 0.5583 0.77806 0.0
C264 C 0.43436 0.5629 0.85247 0.0
C265 C 0.46682 0.59566 0.868 0.0
C266 C 0.90312 0.43679 0.14678 0.0
C267 C 0.8954 0.421 0.072 0.0
C268 C 0.9029 0.46881 0.16118 0.0
C269 C 0.89464 0.4862 0.10158 0.0
H270 H 0.91035 0.42488 0.19425 0.0
H271 H 0.90979 0.48023 0.21939 0.0
S272 S 0.86949 0.45413 0.89686 0.0
N273 N 0.87722 0.424 0.93865 0.0
N274 N 0.87653 0.48389 0.96557 0.0
C275 C 0.88564 0.46997 0.0271 0.0
C276 C 0.88612 0.43749 0.01236 0.0
C277 C 0.41032 0.87023 0.22184 0.0
C278 C 0.40285 0.87727 0.29778 0.0
C279 C 0.44224 0.87033 0.20505 0.0
C280 C 0.46817 0.87763 0.26337 0.0
H281 H 0.3918 0.86545 0.1742 0.0
H282 H 0.447 0.86576 0.14506 0.0
S283 S 0.46032 0.89461 0.47348 0.0
N284 N 0.42301 0.8893 0.43333 0.0
N285 N 0.48304 0.88957 0.40165 0.0
C286 C 0.46035 0.88307 0.34044 0.0
C287 C 0.42771 0.88287 0.35764 0.0
C288 C 0.36681 0.40065 0.67629 0.0
C289 C 0.3418 0.37323 0.72525 0.0
C290 C 0.37813 0.39266 0.60629 0.0
C291 C 0.3652 0.35694 0.58302 0.0
H292 H 0.37788 0.42862 0.69213 0.0
H293 H 0.39785 0.41469 0.57126 0.0
S294 S 0.29826 0.27521 0.68869 0.0
N295 N 0.30354 0.30889 0.7443 0.0
N296 N 0.32497 0.29379 0.61289 0.0
C297 C 0.33966 0.32921 0.63065 0.0
C298 C 0.32791 0.33738 0.70169 0.0
C299 C 0.00139 0.31575 0.90779 0.0
C300 C 0.97859 0.33023 0.91617 0.0
C301 C 0.02456 0.32477 0.84361 0.0
C302 C 0.02554 0.34841 0.78542 0.0
H303 H 0.00195 0.29794 0.95195 0.0
H304 H 0.04233 0.31371 0.8406 0.0
S305 S 0.96805 0.3904 0.77596 0.0
N306 N 0.95641 0.36722 0.85817 0.0
N307 N -0.00046 0.38393 0.73742 0.0
C308 C 0.00183 0.362 0.79177 0.0
C309 C 0.97848 0.353 0.85721 0.0
C310 C 0.59672 0.97269 0.00737 0.0
C311 C 0.62458 0.98152 0.06162 0.0
C312 C 0.60267 0.99251 0.93856 0.0
C313 C 0.63658 0.02214 0.92202 0.0
H314 H 0.57014 0.95003 0.01764 0.0
H315 H 0.58041 0.98469 0.89849 0.0
S316 S 0.71835 0.05673 0.04624 0.0
N317 N 0.68717 0.02199 0.09491 0.0
N318 N 0.69849 0.05946 0.96591 0.0
C319 C 0.66466 0.03138 0.97612 0.0
C320 C 0.65864 0.01099 0.04582 0.0
C321 C 0.60778 0.60203 0.10756 0.0
C322 C 0.623 0.63716 0.07818 0.0
C323 C 0.62032 0.59486 0.17698 0.0
C324 C 0.64879 0.6225 0.21947 0.0
H325 H 0.58551 0.57987 0.07765 0.0
H326 H 0.60753 0.56733 0.19733 0.0
S327 S 0.6987 0.71909 0.16648 0.0
N328 N 0.66872 0.69993 0.09607 0.0
N329 N 0.69229 0.68632 0.2265 0.0
C330 C 0.66471 0.65769 0.19014 0.0
C331 C 0.65182 0.66505 0.11956 0.0
C332 C 0.99167 0.66681 0.35507 0.0
C333 C 0.02401 0.6669 0.36684 0.0
C334 C 0.97275 0.65442 0.28467 0.0
C335 C 0.98585 0.64225 0.22328 0.0
H336 H 0.98003 0.6747 0.40178 0.0
H337 H 0.94719 0.65352 0.27919 0.0
S338 S 0.07201 0.64182 0.22232 0.0
N339 N 0.07016 0.65702 0.30984 0.0
N340 N 0.03494 0.63425 0.1768 0.0
C341 C 0.01936 0.64439 0.23278 0.0
C342 C 0.03834 0.65654 0.30488 0.0
C343 C 0.30342 0.98424 0.47201 0.0
C344 C 0.32073 0.96498 0.45139 0.0
C345 C 0.31528 0.0079 0.53574 0.0
C346 C 0.34484 0.01311 0.58114 0.0
H347 H 0.28083 0.98145 0.43814 0.0
H348 H 0.30146 0.02258 0.54863 0.0
S349 S 0.39788 0.96705 0.55512 0.0
N350 N 0.36789 0.95135 0.48405 0.0
N351 N 0.39005 0.99562 0.6035 0.0
C352 C 0.3619 0.99338 0.56221 0.0
C353 C 0.34988 0.96937 0.49742 0.0
C354 C 0.40497 0.22085 0.63278 0.0
C355 C 0.40421 0.22511 0.55111 0.0
C356 C 0.40664 0.19178 0.66531 0.0
C357 C 0.40797 0.16589 0.61754 0.0
H358 H 0.40448 0.24027 0.67237 0.0
H359 H 0.40758 0.19001 0.72841 0.0
S360 S 0.40483 0.16343 0.40012 0.0
N361 N 0.40353 0.20005 0.42322 0.0
N362 N 0.40681 0.14548 0.48406 0.0
C363 C 0.40653 0.16937 0.53572 0.0
C364 C 0.40458 0.19891 0.5026 0.0
C365 C 0.23986 0.42541 0.71696 0.0
C366 C 0.24587 0.426 0.79817 0.0
C367 C 0.20827 0.42272 0.68695 0.0
C368 C 0.18151 0.42094 0.73684 0.0
H369 H 0.25975 0.42707 0.67573 0.0
H370 H 0.20517 0.42269 0.62404 0.0
S371 S 0.1832 0.41999 0.95417 0.0
N372 N 0.22175 0.42336 0.92809 0.0
N373 N 0.1624 0.41862 0.87181 0.0
C374 C 0.18684 0.42098 0.81827 0.0
C375 C 0.21896 0.42337 0.84889 0.0
C376 C 0.79657 0.22664 0.99178 0.0
C377 C 0.82447 0.25176 0.94431 0.0
C378 C 0.76605 0.19747 0.95903 0.0
C379 C 0.76223 0.19196 0.87742 0.0
H380 H 0.79805 0.22967 0.0548 0.0
H381 H 0.74532 0.17901 -0.00155 0.0
S382 S 0.82817 0.24936 0.72711 0.0
N383 N 0.84669 0.2688 0.81105 0.0
N384 N 0.78935 0.21387 0.74993 0.0
C385 C 0.79012 0.2166 0.8292 0.0
C386 C 0.82117 0.24651 0.86251 0.0
C387 C 0.58216 0.82245 0.03542 0.0
C388 C 0.58625 0.83014 0.11621 0.0
C389 C 0.5853 0.794 0.00427 0.0
C390 C 0.59245 0.77185 0.05262 0.0
H391 H 0.57612 0.83832 0.99549 0.0
H392 H 0.58129 0.78891 0.94198 0.0
S393 S 0.60773 0.78172 0.26759 0.0
N394 N 0.59948 0.81412 0.24349 0.0
N395 N 0.60537 0.76062 0.18523 0.0
C396 C 0.5975 0.77972 0.13334 0.0
C397 C 0.59443 0.80884 0.16503 0.0
C398 C 0.74906 0.56855 0.19556 0.0
C399 C 0.74406 0.56794 0.27717 0.0
C400 C 0.78028 0.5712 0.16343 0.0
C401 C 0.80767 0.57297 0.21152 0.0
H402 H 0.72875 0.56711 0.15573 0.0
H403 H 0.78272 0.57144 0.10034 0.0
S404 S 0.8083 0.57311 0.42908 0.0
N405 N 0.76956 0.56996 0.40543 0.0
N406 N 0.82812 0.57471 0.34537 0.0
C407 C 0.80316 0.57259 0.29333 0.0
C408 C 0.77144 0.57017 0.32605 0.0
C409 C 0.19366 0.77096 0.51078 0.0
C410 C 0.17159 0.74234 0.46094 0.0
C411 C 0.22288 0.80243 0.48132 0.0
C412 C 0.23085 0.80677 0.4007 0.0
H413 H 0.18866 0.76886 0.57318 0.0
H414 H 0.23932 0.82355 0.52231 0.0
S415 S 0.18001 0.74044 0.24484 0.0
N416 N 0.1589 0.72077 0.32648 0.0
N417 N 0.21352 0.78 0.2713 0.0
C418 C 0.20851 0.77863 0.35 0.0
C419 C 0.17901 0.7464 0.38008 0.0
loop_
_geom_bond_atom_site_label_1
_geom_bond_atom_site_label_2
_geom_bond_distance
_geom_bond_site_symmetry_2
_ccdc_geom_bond_type
C0 O1 1.160 . S
C0 O7 1.185 . S
O1 C0 1.160 . S
O2 Zn3 1.899 . S
O2 C10 1.284 . S
Zn3 O2 1.899 . S
Zn3 O4 2.032 . S
Zn3 O7 2.086 . S
Zn3 O12 1.977 . S
O4 Zn3 2.032 . S
O4 C8 1.278 . S
C5 O6 1.203 . S
C5 O12 1.267 . S
O6 C5 1.203 . S
O7 C0 1.185 . S
O7 Zn3 2.086 . S
C8 O4 1.278 . S
C8 O9 1.211 . S
O9 C8 1.211 . S
C10 O2 1.284 . S
C10 O11 1.273 . S
O11 C10 1.273 . S
O12 Zn3 1.977 . S
O12 C5 1.267 . S
C13 O14 1.160 . S
C13 O20 1.185 . S
O14 C13 1.160 . S
O15 Zn16 1.899 . S
O15 C23 1.284 . S
Zn16 O15 1.899 . S
Zn16 O17 2.032 . S
Zn16 O20 2.086 . S
Zn16 O25 1.977 . S
O17 Zn16 2.032 . S
O17 C21 1.278 . S
C18 O19 1.203 . S
C18 O25 1.267 . S
O19 C18 1.203 . S
O20 C13 1.185 . S
O20 Zn16 2.086 . S
C21 O17 1.278 . S
C21 O22 1.211 . S
O22 C21 1.211 . S
C23 O15 1.284 . S
C23 O24 1.273 . S
O24 C23 1.273 . S
O25 Zn16 1.977 . S
O25 C18 1.267 . S
C26 O27 1.160 . S
C26 O33 1.185 . S
O27 C26 1.160 . S
O28 Zn29 1.899 . S
O28 C36 1.284 . S
Zn29 O28 1.899 . S
Zn29 O30 2.032 . S
Zn29 O33 2.086 . S
Zn29 O38 1.977 . S
O30 Zn29 2.032 . S
O30 C34 1.278 . S
C31 O32 1.203 . S
C31 O38 1.267 . S
O32 C31 1.203 . S
O33 C26 1.185 . S
O33 Zn29 2.086 . S
C34 O30 1.278 . S
C34 O35 1.211 . S
O35 C34 1.211 . S
C36 O28 1.284 . S
C36 O37 1.273 . S
O37 C36 1.273 . S
O38 Zn29 1.977 . S
O38 C31 1.267 . S
C39 O40 1.160 1_556 S
C39 O46 1.185 . S
O40 C39 1.160 1_554 S
O41 Zn42 1.899 . S
O41 C49 1.284 . S
Zn42 O41 1.899 . S
Zn42 O43 2.032 1_556 S
Zn42 O46 2.086 . S
Zn42 O51 1.977 . S
O43 Zn42 2.032 1_554 S
O43 C47 1.278 . S
C44 O45 1.203 . S
C44 O51 1.267 . S
O45 C44 1.203 . S
O46 C39 1.185 . S
O46 Zn42 2.086 . S
C47 O43 1.278 . S
C47 O48 1.211 1_554 S
O48 C47 1.211 1_556 S
C49 O41 1.284 . S
C49 O50 1.273 . S
O50 C49 1.273 . S
O51 Zn42 1.977 . S
O51 C44 1.267 . S
C52 O53 1.160 . S
C52 O59 1.185 . S
O53 C52 1.160 . S
O54 Zn55 1.899 . S
O54 C62 1.284 . S
Zn55 O54 1.899 . S
Zn55 O56 2.032 . S
Zn55 O59 2.086 . S
Zn55 O64 1.977 . S
O56 Zn55 2.032 . S
O56 C60 1.278 . S
C57 O58 1.203 . S
C57 O64 1.267 1_556 S
O58 C57 1.203 . S
O59 C52 1.185 . S
O59 Zn55 2.086 . S
C60 O56 1.278 . S
C60 O61 1.211 . S
O61 C60 1.211 . S
C62 O54 1.284 . S
C62 O63 1.273 . S
O63 C62 1.273 . S
O64 Zn55 1.977 . S
O64 C57 1.267 1_554 S
C65 O66 1.160 . S
C65 O72 1.185 . S
O66 C65 1.160 . S
O67 Zn68 1.899 . S
O67 C75 1.284 . S
Zn68 O67 1.899 . S
Zn68 O69 2.032 . S
Zn68 O72 2.086 . S
Zn68 O77 1.977 . S
O69 Zn68 2.032 . S
O69 C73 1.278 . S
C70 O71 1.203 . S
C70 O77 1.267 . S
O71 C70 1.203 . S
O72 C65 1.185 . S
O72 Zn68 2.086 . S
C73 O69 1.278 . S
C73 O74 1.211 . S
O74 C73 1.211 . S
C75 O67 1.284 . S
C75 O76 1.273 . S
O76 C75 1.273 . S
O77 Zn68 1.977 . S
O77 C70 1.267 . S
C78 O79 1.160 . S
C78 O85 1.185 . S
O79 C78 1.160 . S
O80 Zn81 1.899 . S
O80 C88 1.284 . S
Zn81 O80 1.899 . S
Zn81 O82 2.032 . S
Zn81 O85 2.086 . S
Zn81 O90 1.977 . S
O82 Zn81 2.032 . S
O82 C86 1.278 . S
C83 O84 1.203 . S
C83 O90 1.267 . S
O84 C83 1.203 . S
O85 C78 1.185 . S
O85 Zn81 2.086 . S
C86 O82 1.278 . S
C86 O87 1.211 . S
O87 C86 1.211 . S
C88 O80 1.284 . S
C88 O89 1.273 . S
O89 C88 1.273 . S
O90 Zn81 1.977 . S
O90 C83 1.267 . S
C91 O92 1.160 . S
C91 O98 1.185 . S
O92 C91 1.160 . S
O93 Zn94 1.899 . S
O93 C101 1.284 . S
Zn94 O93 1.899 . S
Zn94 O95 2.032 . S
Zn94 O98 2.086 . S
Zn94 O103 1.977 . S
O95 Zn94 2.032 . S
O95 C99 1.278 . S
C96 O97 1.203 . S
C96 O103 1.267 . S
O97 C96 1.203 . S
O98 C91 1.185 . S
O98 Zn94 2.086 . S
C99 O95 1.278 . S
C99 O100 1.211 . S
O100 C99 1.211 . S
C101 O93 1.284 . S
C101 O102 1.273 . S
O102 C101 1.273 . S
O103 Zn94 1.977 . S
O103 C96 1.267 . S
C104 O105 1.160 . S
C104 O111 1.185 . S
O105 C104 1.160 . S
O106 Zn107 1.899 . S
O106 C114 1.284 . S
Zn107 O106 1.899 . S
Zn107 O108 2.032 . S
Zn107 O111 2.086 . S
Zn107 O116 1.977 . S
O108 Zn107 2.032 . S
O108 C112 1.278 . S
C109 O110 1.203 . S
C109 O116 1.267 . S
O110 C109 1.203 . S
O111 C104 1.185 . S
O111 Zn107 2.086 . S
C112 O108 1.278 . S
C112 O113 1.211 . S
O113 C112 1.211 . S
C114 O106 1.284 . S
C114 O115 1.273 . S
O115 C114 1.273 . S
O116 Zn107 1.977 . S
O116 C109 1.267 . S
C117 O118 1.160 . S
C117 O124 1.185 . S
O118 C117 1.160 . S
O119 Zn120 1.899 . S
O119 C127 1.284 . S
Zn120 O119 1.899 . S
Zn120 O121 2.032 . S
Zn120 O124 2.086 . S
Zn120 O129 1.977 . S
O121 Zn120 2.032 . S
O121 C125 1.278 . S
C122 O123 1.203 . S
C122 O129 1.267 1_554 S
O123 C122 1.203 . S
O124 C117 1.185 . S
O124 Zn120 2.086 . S
C125 O121 1.278 . S
C125 O126 1.211 . S
O126 C125 1.211 . S
C127 O119 1.284 . S
C127 O128 1.273 . S
O128 C127 1.273 . S
O129 Zn120 1.977 . S
O129 C122 1.267 1_556 S
C130 O131 1.160 1_554 S
C130 O137 1.185 . S
O131 C130 1.160 1_556 S
O132 Zn133 1.899 . S
O132 C140 1.284 . S
Zn133 O132 1.899 . S
Zn133 O134 2.032 1_554 S
Zn133 O137 2.086 . S
Zn133 O142 1.977 . S
O134 Zn133 2.032 1_556 S
O134 C138 1.278 . S
C135 O136 1.203 . S
C135 O142 1.267 . S
O136 C135 1.203 . S
O137 C130 1.185 . S
O137 Zn133 2.086 . S
C138 O134 1.278 . S
C138 O139 1.211 1_556 S
O139 C138 1.211 1_554 S
C140 O132 1.284 . S
C140 O141 1.273 . S
O141 C140 1.273 . S
O142 Zn133 1.977 . S
O142 C135 1.267 . S
C143 O144 1.160 . S
C143 O150 1.185 . S
O144 C143 1.160 . S
O145 Zn146 1.899 . S
O145 C153 1.284 . S
Zn146 O145 1.899 . S
Zn146 O147 2.032 . S
Zn146 O150 2.086 . S
Zn146 O155 1.977 . S
O147 Zn146 2.032 . S
O147 C151 1.278 . S
C148 O149 1.203 . S
C148 O155 1.267 . S
O149 C148 1.203 . S
O150 C143 1.185 . S
O150 Zn146 2.086 . S
C151 O147 1.278 . S
C151 O152 1.211 . S
O152 C151 1.211 . S
C153 O145 1.284 . S
C153 O154 1.273 . S
O154 C153 1.273 . S
O155 Zn146 1.977 . S
O155 C148 1.267 . S
C156 C157 1.369 . S
C156 C158 1.419 . S
C156 H160 0.930 . S
C157 C156 1.369 . S
C157 C166 1.429 . S
C158 C156 1.419 . S
C158 C159 1.363 . S
C158 H161 0.929 . S
C159 C158 1.363 . S
C159 C165 1.428 . S
H160 C156 0.930 . S
H161 C158 0.929 . S
S162 N163 1.613 . S
S162 N164 1.610 . S
N163 S162 1.613 . S
N163 C166 1.350 . S
N164 S162 1.610 . S
N164 C165 1.351 . S
C165 C159 1.428 . S
C165 N164 1.351 . S
C165 C166 1.434 . S
C166 C157 1.429 . S
C166 N163 1.350 . S
C166 C165 1.434 . S
C167 C168 1.369 1_655 S
C167 C169 1.419 . S
C167 H171 0.930 . S
C168 C167 1.369 1_455 S
C168 C177 1.429 . S
C169 C167 1.419 . S
C169 C170 1.363 . S
C169 H172 0.929 . S
C170 C169 1.363 . S
C170 C176 1.428 1_655 S
H171 C167 0.930 . S
H172 C169 0.929 . S
S173 N174 1.613 . S
S173 N175 1.610 . S
N174 S173 1.613 . S
N174 C177 1.350 . S
N175 S173 1.610 . S
N175 C176 1.351 . S
C176 C170 1.428 1_455 S
C176 N175 1.351 . S
C176 C177 1.434 . S
C177 C168 1.429 . S
C177 N174 1.350 . S
C177 C176 1.434 . S
C178 C179 1.369 . S
C178 C180 1.419 1_565 S
C178 H182 0.930 . S
C179 C178 1.369 . S
C179 C188 1.441 . S
C180 C178 1.419 1_545 S
C180 C181 1.363 . S
C180 H183 0.929 . S
C181 C180 1.363 . S
C181 C187 1.428 . S
H182 C178 0.930 . S
H183 C180 0.929 . S
S184 N185 1.613 . S
S184 N186 1.610 . S
N185 S184 1.613 . S
N185 C188 1.344 1_545 S
N186 S184 1.610 . S
N186 C187 1.351 . S
C187 C181 1.428 . S
C187 N186 1.351 . S
C187 C188 1.426 1_545 S
C188 C179 1.441 . S
C188 N185 1.344 1_565 S
C188 C187 1.426 1_565 S
C189 C190 1.369 . S
C189 C191 1.419 . S
C189 H193 0.930 . S
C190 C189 1.369 . S
C190 C199 1.429 . S
C191 C189 1.419 . S
C191 C192 1.363 . S
C191 H194 0.929 . S
C192 C191 1.363 . S
C192 C198 1.428 . S
H193 C189 0.930 . S
H194 C191 0.929 . S
S195 N196 1.613 . S
S195 N197 1.610 . S
N196 S195 1.613 . S
N196 C199 1.350 . S
N197 S195 1.610 . S
N197 C198 1.351 . S
C198 C192 1.428 . S
C198 N197 1.351 . S
C198 C199 1.434 . S
C199 C190 1.429 . S
C199 N196 1.350 . S
C199 C198 1.434 . S
C200 C201 1.369 1_655 S
C200 C202 1.419 . S
C200 H204 0.930 . S
C201 C200 1.369 1_455 S
C201 C210 1.429 . S
C202 C200 1.419 . S
C202 C203 1.363 . S
C202 H205 0.929 . S
C203 C202 1.363 . S
C203 C209 1.428 1_655 S
H204 C200 0.930 . S
H205 C202 0.929 . S
S206 N207 1.613 . S
S206 N208 1.610 . S
N207 S206 1.613 . S
N207 C210 1.350 . S
N208 S206 1.610 . S
N208 C209 1.351 . S
C209 C203 1.428 1_455 S
C209 N208 1.351 . S
C209 C210 1.434 . S
C210 C201 1.429 . S
C210 N207 1.350 . S
C210 C209 1.434 . S
C211 C212 1.369 1_554 S
C211 C213 1.419 . S
C211 H215 0.930 . S
C212 C211 1.369 1_556 S
C212 C221 1.429 1_545 S
C213 C211 1.419 . S
C213 C214 1.363 1_545 S
C213 H216 0.929 . S
C214 C213 1.363 1_565 S
C214 C220 1.428 1_554 S
H215 C211 0.930 . S
H216 C213 0.929 . S
S217 N218 1.613 . S
S217 N219 1.610 . S
N218 S217 1.613 . S
N218 C221 1.350 . S
N219 S217 1.610 . S
N219 C220 1.351 . S
C220 C214 1.428 1_556 S
C220 N219 1.351 . S
C220 C221 1.434 . S
C221 C212 1.429 1_565 S
C221 N218 1.350 . S
C221 C220 1.434 . S
C222 C223 1.369 . S
C222 C224 1.419 . S
C222 H226 0.930 . S
C223 C222 1.369 . S
C223 C232 1.429 . S
C224 C222 1.419 . S
C224 C225 1.363 . S
C224 H227 0.929 . S
C225 C224 1.363 . S
C225 C231 1.428 . S
H226 C222 0.930 . S
H227 C224 0.929 . S
S228 N229 1.613 . S
S228 N230 1.610 . S
N229 S228 1.613 . S
N229 C232 1.350 . S
N230 S228 1.610 . S
N230 C231 1.351 . S
C231 C225 1.428 . S
C231 N230 1.351 . S
C231 C232 1.434 . S
C232 C223 1.429 . S
C232 N229 1.350 . S
C232 C231 1.434 . S
C233 C234 1.369 . S
C233 C235 1.419 . S
C233 H237 0.930 . S
C234 C233 1.369 . S
C234 C243 1.429 . S
C235 C233 1.419 . S
C235 C236 1.363 . S
C235 H238 0.929 . S
C236 C235 1.363 . S
C236 C242 1.428 . S
H237 C233 0.930 . S
H238 C235 0.929 . S
S239 N240 1.613 . S
S239 N241 1.610 . S
N240 S239 1.613 . S
N240 C243 1.350 . S
N241 S239 1.610 . S
N241 C242 1.351 . S
C242 C236 1.428 . S
C242 N241 1.351 . S
C242 C243 1.434 . S
C243 C234 1.429 . S
C243 N240 1.350 . S
C243 C242 1.434 . S
C244 C245 1.369 . S
C244 C246 1.419 . S
C244 H248 0.930 . S
C245 C244 1.369 . S
C245 C254 1.429 . S
C246 C244 1.419 . S
C246 C247 1.363 . S
C246 H249 0.929 . S
C247 C246 1.363 . S
C247 C253 1.428 . S
H248 C244 0.930 . S
H249 C246 0.929 . S
S250 N251 1.613 . S
S250 N252 1.610 . S
N251 S250 1.613 . S
N251 C254 1.350 . S
N252 S250 1.610 . S
N252 C253 1.351 . S
C253 C247 1.428 . S
C253 N252 1.351 . S
C253 C254 1.434 . S
C254 C245 1.429 . S
C254 N251 1.350 . S
C254 C253 1.434 . S
C255 C256 1.369 . S
C255 C257 1.419 . S
C255 H259 0.930 . S
C256 C255 1.369 . S
C256 C265 1.429 . S
C257 C255 1.419 . S
C257 C258 1.363 . S
C257 H260 0.929 . S
C258 C257 1.363 . S
C258 C264 1.428 . S
H259 C255 0.930 . S
H260 C257 0.929 . S
S261 N262 1.613 . S
S261 N263 1.610 . S
N262 S261 1.613 . S
N262 C265 1.350 . S
N263 S261 1.610 . S
N263 C264 1.351 . S
C264 C258 1.428 . S
C264 N263 1.351 . S
C264 C265 1.434 . S
C265 C256 1.429 . S
C265 N262 1.350 . S
C265 C264 1.434 . S
C266 C267 1.369 . S
C266 C268 1.419 . S
C266 H270 0.930 . S
C267 C266 1.369 . S
C267 C276 1.429 . S
C268 C266 1.419 . S
C268 C269 1.363 . S
C268 H271 0.929 . S
C269 C268 1.363 . S
C269 C275 1.428 . S
H270 C266 0.930 . S
H271 C268 0.929 . S
S272 N273 1.613 . S
S272 N274 1.610 . S
N273 S272 1.613 . S
N273 C276 1.350 1_556 S
N274 S272 1.610 . S
N274 C275 1.351 1_556 S
C275 C269 1.428 . S
C275 N274 1.351 1_554 S
C275 C276 1.434 . S
C276 C267 1.429 . S
C276 N273 1.350 1_554 S
C276 C275 1.434 . S
C277 C278 1.369 . S
C277 C279 1.419 . S
C277 H281 0.930 . S
C278 C277 1.369 . S
C278 C287 1.429 . S
C279 C277 1.419 . S
C279 C280 1.363 . S
C279 H282 0.929 . S
C280 C279 1.363 . S
C280 C286 1.428 . S
H281 C277 0.930 . S
H282 C279 0.929 . S
S283 N284 1.613 . S
S283 N285 1.610 . S
N284 S283 1.613 . S
N284 C287 1.350 . S
N285 S283 1.610 . S
N285 C286 1.351 . S
C286 C280 1.428 . S
C286 N285 1.351 . S
C286 C287 1.434 . S
C287 C278 1.429 . S
C287 N284 1.350 . S
C287 C286 1.434 . S
C288 C289 1.369 . S
C288 C290 1.419 . S
C288 H292 0.930 . S
C289 C288 1.369 . S
C289 C298 1.429 . S
C290 C288 1.419 . S
C290 C291 1.363 . S
C290 H293 0.929 . S
C291 C290 1.363 . S
C291 C297 1.428 . S
H292 C288 0.930 . S
H293 C290 0.929 . S
S294 N295 1.613 . S
S294 N296 1.610 . S
N295 S294 1.613 . S
N295 C298 1.350 . S
N296 S294 1.610 . S
N296 C297 1.351 . S
C297 C291 1.428 . S
C297 N296 1.351 . S
C297 C298 1.434 . S
C298 C289 1.429 . S
C298 N295 1.350 . S
C298 C297 1.434 . S
C299 C300 1.369 . S
C299 C301 1.419 1_655 S
C299 H303 0.930 . S
C300 C299 1.369 . S
C300 C309 1.429 . S
C301 C299 1.419 1_455 S
C301 C302 1.363 . S
C301 H304 0.929 . S
C302 C301 1.363 . S
C302 C308 1.428 . S
H303 C299 0.930 . S
H304 C301 0.929 . S
S305 N306 1.613 . S
S305 N307 1.610 1_655 S
N306 S305 1.613 . S
N306 C309 1.350 . S
N307 S305 1.610 1_455 S
N307 C308 1.351 . S
C308 C302 1.428 . S
C308 N307 1.351 . S
C308 C309 1.434 1_455 S
C309 C300 1.429 . S
C309 N306 1.350 . S
C309 C308 1.434 1_655 S
C310 C311 1.369 . S
C310 C312 1.419 1_564 S
C310 H314 0.930 . S
C311 C310 1.369 . S
C311 C320 1.430 . S
C312 C310 1.419 1_546 S
C312 C313 1.363 . S
C312 H315 0.929 . S
C313 C312 1.363 . S
C313 C319 1.428 . S
H314 C310 0.930 . S
H315 C312 0.929 . S
S316 N317 1.613 . S
S316 N318 1.610 1_554 S
N317 S316 1.613 . S
N317 C320 1.353 1_545 S
N318 S316 1.610 1_556 S
N318 C319 1.351 . S
C319 C313 1.428 . S
C319 N318 1.351 . S
C319 C320 1.429 1_546 S
C320 C311 1.430 . S
C320 N317 1.353 1_565 S
C320 C319 1.429 1_564 S
C321 C322 1.369 . S
C321 C323 1.419 . S
C321 H325 0.930 . S
C322 C321 1.369 . S
C322 C331 1.429 . S
C323 C321 1.419 . S
C323 C324 1.363 . S
C323 H326 0.929 . S
C324 C323 1.363 . S
C324 C330 1.428 . S
H325 C321 0.930 . S
H326 C323 0.929 . S
S327 N328 1.613 . S
S327 N329 1.610 . S
N328 S327 1.613 . S
N328 C331 1.350 . S
N329 S327 1.610 . S
N329 C330 1.351 . S
C330 C324 1.428 . S
C330 N329 1.351 . S
C330 C331 1.434 . S
C331 C322 1.429 . S
C331 N328 1.350 . S
C331 C330 1.434 . S
C332 C333 1.369 1_655 S
C332 C334 1.419 . S
C332 H336 0.930 . S
C333 C332 1.369 1_455 S
C333 C342 1.429 . S
C334 C332 1.419 . S
C334 C335 1.363 . S
C334 H337 0.929 . S
C335 C334 1.363 . S
C335 C341 1.428 1_655 S
H336 C332 0.930 . S
H337 C334 0.929 . S
S338 N339 1.613 . S
S338 N340 1.610 . S
N339 S338 1.613 . S
N339 C342 1.350 . S
N340 S338 1.610 . S
N340 C341 1.351 . S
C341 C335 1.428 1_455 S
C341 N340 1.351 . S
C341 C342 1.434 . S
C342 C333 1.429 . S
C342 N339 1.350 . S
C342 C341 1.434 . S
C343 C344 1.369 1_545 S
C343 C345 1.419 . S
C343 H347 0.930 . S
C344 C343 1.369 1_565 S
C344 C353 1.429 . S
C345 C343 1.419 . S
C345 C346 1.363 . S
C345 H348 0.929 . S
C346 C345 1.363 . S
C346 C352 1.428 1_545 S
H347 C343 0.930 . S
H348 C345 0.929 . S
S349 N350 1.613 . S
S349 N351 1.610 . S
N350 S349 1.613 . S
N350 C353 1.350 . S
N351 S349 1.610 . S
N351 C352 1.351 . S
C352 C346 1.428 1_565 S
C352 N351 1.351 . S
C352 C353 1.434 . S
C353 C344 1.429 . S
C353 N350 1.350 . S
C353 C352 1.434 . S
C354 C355 1.369 . S
C354 C356 1.419 . S
C354 H358 0.930 . S
C355 C354 1.369 . S
C355 C364 1.429 . S
C356 C354 1.419 . S
C356 C357 1.363 . S
C356 H359 0.929 . S
C357 C356 1.363 . S
C357 C363 1.428 . S
H358 C354 0.930 . S
H359 C356 0.929 . S
S360 N361 1.613 . S
S360 N362 1.610 . S
N361 S360 1.613 . S
N361 C364 1.350 . S
N362 S360 1.610 . S
N362 C363 1.351 . S
C363 C357 1.428 . S
C363 N362 1.351 . S
C363 C364 1.434 . S
C364 C355 1.429 . S
C364 N361 1.350 . S
C364 C363 1.434 . S
C365 C366 1.369 . S
C365 C367 1.419 . S
C365 H369 0.930 . S
C366 C365 1.369 . S
C366 C375 1.429 . S
C367 C365 1.419 . S
C367 C368 1.363 . S
C367 H370 0.929 . S
C368 C367 1.363 . S
C368 C374 1.428 . S
H369 C365 0.930 . S
H370 C367 0.929 . S
S371 N372 1.613 . S
S371 N373 1.610 . S
N372 S371 1.613 . S
N372 C375 1.350 . S
N373 S371 1.610 . S
N373 C374 1.351 . S
C374 C368 1.428 . S
C374 N373 1.351 . S
C374 C375 1.434 . S
C375 C366 1.429 . S
C375 N372 1.350 . S
C375 C374 1.434 . S
C376 C377 1.369 . S
C376 C378 1.419 . S
C376 H380 0.930 1_556 S
C377 C376 1.369 . S
C377 C386 1.429 . S
C378 C376 1.419 . S
C378 C379 1.363 . S
C378 H381 0.929 . S
C379 C378 1.363 . S
C379 C385 1.428 . S
H380 C376 0.930 1_554 S
H381 C378 0.929 . S
S382 N383 1.613 . S
S382 N384 1.610 . S
N383 S382 1.613 . S
N383 C386 1.350 . S
N384 S382 1.610 . S
N384 C385 1.351 . S
C385 C379 1.428 . S
C385 N384 1.351 . S
C385 C386 1.434 . S
C386 C377 1.429 . S
C386 N383 1.350 . S
C386 C385 1.434 . S
C387 C388 1.369 . S
C387 C389 1.419 . S
C387 H391 0.930 . S
C388 C387 1.369 . S
C388 C397 1.429 . S
C389 C387 1.419 . S
C389 C390 1.363 . S
C389 H392 0.929 1_554 S
C390 C389 1.363 . S
C390 C396 1.428 . S
H391 C387 0.930 . S
H392 C389 0.929 1_556 S
S393 N394 1.613 . S
S393 N395 1.610 . S
N394 S393 1.613 . S
N394 C397 1.350 . S
N395 S393 1.610 . S
N395 C396 1.351 . S
C396 C390 1.428 . S
C396 N395 1.351 . S
C396 C397 1.434 . S
C397 C388 1.429 . S
C397 N394 1.350 . S
C397 C396 1.434 . S
C398 C399 1.369 . S
C398 C400 1.419 . S
C398 H402 0.930 . S
C399 C398 1.369 . S
C399 C408 1.429 . S
C400 C398 1.419 . S
C400 C401 1.363 . S
C400 H403 0.929 . S
C401 C400 1.363 . S
C401 C407 1.428 . S
H402 C398 0.930 . S
H403 C400 0.929 . S
S404 N405 1.613 . S
S404 N406 1.610 . S
N405 S404 1.613 . S
N405 C408 1.350 . S
N406 S404 1.610 . S
N406 C407 1.351 . S
C407 C401 1.428 . S
C407 N406 1.351 . S
C407 C408 1.434 . S
C408 C399 1.429 . S
C408 N405 1.350 . S
C408 C407 1.434 . S
C409 C410 1.369 . S
C409 C411 1.419 . S
C409 H413 0.930 . S
C410 C409 1.369 . S
C410 C419 1.429 . S
C411 C409 1.419 . S
C411 C412 1.363 . S
C411 H414 0.929 . S
C412 C411 1.363 . S
C412 C418 1.428 . S
H413 C409 0.930 . S
H414 C411 0.929 . S
S415 N416 1.613 . S
S415 N417 1.610 . S
N416 S415 1.613 . S
N416 C419 1.350 . S
N417 S415 1.610 . S
N417 C418 1.351 . S
C418 C412 1.428 . S
C418 N417 1.351 . S
C418 C419 1.434 . S
C419 C410 1.429 . S
C419 N416 1.350 . S
C419 C418 1.434 . S
C157 C122 1.415 . S
C159 C5 1.410 . S
C168 C18 1.412 . S
C170 C135 1.407 . S
C179 C148 1.404 . S
C181 C31 1.409 . S
C190 C83 1.408 . S
C192 C44 1.413 . S
C201 C96 1.415 . S
C203 C57 1.409 . S
C212 C109 1.405 . S
C214 C70 1.410 . S
C223 C88 1.456 . S
C225 C10 1.460 . S
C234 C23 1.459 . S
C236 C101 1.461 . S
C245 C114 1.454 . S
C247 C36 1.459 . S
C256 C49 1.461 . S
C258 C127 1.459 . S
C267 C140 1.457 . S
C269 C62 1.461 . S
C278 C75 1.454 . S
C280 C153 1.456 . S
C289 C125 1.140 . S
C291 C8 1.147 . S
C300 C138 1.145 . S
C302 C21 1.142 . S
C311 C151 1.142 . S
C313 C34 1.146 . S
C322 C47 1.146 . S
C324 C86 1.144 . S
C333 C99 1.148 . S
C335 C60 1.142 . S
C344 C73 1.147 . S
C346 C112 1.141 . S
C355 C0 1.424 . S
C357 C104 1.417 . S
C366 C117 1.424 . S
C368 C13 1.416 . S
C377 C130 1.413 1_556 S
C379 C26 1.419 . S
C388 C143 1.420 . S
C390 C39 1.414 1_554 S
C399 C78 1.423 . S
C401 C52 1.415 . S
C410 C91 1.413 . S
C412 C65 1.421 . S
