# Generated by pormake.
# Topology ilc, (8)-cn, num edge types: 1
# Building blocks:
#     Node 0, Type 0, BuildingBlock: HISSIN_clean_sbu_1, # of connection points: 8
#     Node 1, Type 0, BuildingBlock: HISSIN_clean_sbu_1, # of connection points: 8
#     Node 2, Type 0, BuildingBlock: HISSIN_clean_sbu_1, # of connection points: 8
#     Edge 3, Type (0, 0), BuildingBlock: TEMPAE_clean_linker_10, # of connection points: 2
#     Edge 4, Type (0, 0), BuildingBlock: TEMPAE_clean_linker_10, # of connection points: 2
#     Edge 5, Type (0, 0), BuildingBlock: TEMPAE_clean_linker_10, # of connection points: 2
#     Edge 6, Type (0, 0), BuildingBlock: TEMPAE_clean_linker_10, # of connection points: 2
#     Edge 7, Type (0, 0), BuildingBlock: TEMPAE_clean_linker_10, # of connection points: 2
#     Edge 8, Type (0, 0), BuildingBlock: TEMPAE_clean_linker_10, # of connection points: 2
#     Edge 9, Type (0, 0), BuildingBlock: TEMPAE_clean_linker_10, # of connection points: 2
#     Edge 10, Type (0, 0), BuildingBlock: TEMPAE_clean_linker_10, # of connection points: 2
#     Edge 11, Type (0, 0), BuildingBlock: TEMPAE_clean_linker_10, # of connection points: 2
#     Edge 12, Type (0, 0), BuildingBlock: TEMPAE_clean_linker_10, # of connection points: 2
#     Edge 13, Type (0, 0), BuildingBlock: TEMPAE_clean_linker_10, # of connection points: 2
#     Edge 14, Type (0, 0), BuildingBlock: TEMPAE_clean_linker_10, # of connection points: 2
# Relax obj value: 0.164
# Max RMSD: 0.202
# Mean RMSD: 0.202
data_MOF--net-ilc--node1-HISSIN_clean_sbu_1--edge1-TEMPAE_clean_linker_10
_symmetry_space_group_name_H-M    P1
_symmetry_Int_Tables_number       1
_symmetry_cell_setting            triclinic
loop_
_symmetry_equiv_pos_as_xyz
'x, y, z'
_cell_length_a     22.50084
_cell_length_b     31.13442
_cell_length_c     19.793583
_cell_angle_alpha  101.69061
_cell_angle_beta   73.719425
_cell_angle_gamma 141.5035
loop_
_atom_site_label
_atom_site_type_symbol
_atom_site_fract_x
_atom_site_fract_y
_atom_site_fract_z
_atom_type_partial_charge
Eu0 Eu 0.99437 1.00085 0.92048 0.0
C1 C 0.2258 0.11548 0.92926 0.0
O2 O 0.96427 0.92825 0.83353 0.0
C3 C 0.16718 0.99686 0.19666 0.0
C4 C 0.11787 0.93955 0.32314 0.0
C5 C 0.09913 0.98248 0.25306 0.0
C6 C 0.07386 0.95318 0.31585 0.0
C7 C 0.21206 0.9833 0.20422 0.0
C8 C 0.18821 0.95548 0.26833 0.0
Eu9 Eu 0.18406 0.09533 0.08554 0.0
O10 O 0.91568 0.94062 0.02346 0.0
O11 O 0.21176 0.17153 0.16284 0.0
O12 O 0.27755 0.14152 0.97636 0.0
O13 O 0.03256 0.03625 0.08169 0.0
C14 C 0.18666 0.19595 0.15265 0.0
O15 O 0.15009 0.17679 0.09687 0.0
O16 O 0.1223 0.99844 0.10291 0.0
C17 C 0.19439 0.02889 0.13136 0.0
C18 C 0.92832 0.87153 0.85118 0.0
O19 O 0.90778 0.85834 0.91827 0.0
O20 O 0.26303 0.09652 0.13079 0.0
O21 O 0.13327 0.07206 0.95654 0.0
C22 C 0.94942 0.0561 0.91575 0.0
O23 O 0.03303 0.08298 0.88273 0.0
C24 C 0.89759 0.0477 0.87209 0.0
C25 C 0.83055 0.0377 0.76366 0.0
C26 C 0.83664 0.98713 0.83438 0.0
C27 C 0.81222 0.9847 0.77499 0.0
C28 C 0.92063 0.10269 0.85813 0.0
C29 C 0.88512 0.09709 0.80423 0.0
C30 C 0.95135 0.96867 0.08174 0.0
O31 O 0.89541 1.00235 0.95621 0.0
H32 H 0.09932 0.91828 0.37277 0.0
H33 H 0.06667 0.99471 0.24844 0.0
H34 H 0.26648 0.99576 0.16143 0.0
H35 H 0.81143 0.03684 0.71854 0.0
H36 H 0.81954 0.94536 0.84562 0.0
H37 H 0.96976 0.15046 0.886 0.0
Eu38 Eu 0.55752 0.2616 0.25492 0.0
C39 C 0.78144 0.39874 0.25592 0.0
O40 O 0.54718 0.19818 0.16583 0.0
C41 C 0.87206 0.40063 0.51154 0.0
C42 C 0.9514 0.44354 0.62992 0.0
C43 C 0.91071 0.4602 0.54587 0.0
C44 C 0.94461 0.47959 0.60778 0.0
C45 C 0.87796 0.36418 0.53446 0.0
C46 C 0.92056 0.38681 0.59319 0.0
Eu47 Eu 0.76706 0.41655 0.41784 0.0
O48 O 0.48908 0.22195 0.36834 0.0
O49 O 0.81536 0.50453 0.48683 0.0
O50 O 0.831 0.448 0.30158 0.0
O51 O 0.6153 0.33373 0.39398 0.0
C52 C 0.76585 0.51452 0.50383 0.0
O53 O 0.68677 0.47316 0.47856 0.0
O54 O 0.73112 0.347 0.48205 0.0
C55 C 0.81656 0.37437 0.45749 0.0
C56 C 0.51632 0.14273 0.17921 0.0
O57 O 0.48919 0.12388 0.24521 0.0
O58 O 0.86701 0.41695 0.40345 0.0
O59 O 0.70466 0.33491 0.28033 0.0
C60 C 0.53137 0.32377 0.22698 0.0
O61 O 0.61601 0.3558 0.23194 0.0
C62 C 0.53204 0.34571 0.16708 0.0
C63 C 0.5319 0.3861 0.05371 0.0
C64 C 0.58493 0.35609 0.09962 0.0
C65 C 0.58955 0.38075 0.0441 0.0
C66 C 0.49294 0.36703 0.17891 0.0
C67 C 0.49494 0.38874 0.12155 0.0
C68 C 0.53909 0.26856 0.41596 0.0
O69 O 0.45942 0.25703 0.2414 0.0
H70 H 0.97353 0.45598 0.67937 0.0
H71 H 0.90562 0.48774 0.52788 0.0
H72 H 0.84841 0.31823 0.50751 0.0
H73 H 0.53612 0.40491 0.0097 0.0
H74 H 0.6284 0.35061 0.09186 0.0
H75 H 0.46635 0.37023 0.23208 0.0
Eu76 Eu 0.28545 0.60296 0.62105 0.0
C77 C 0.49974 0.73975 0.55609 0.0
O78 O 0.24362 0.51974 0.5484 0.0
C79 C 0.46912 0.65796 0.80852 0.0
C80 C 0.39661 0.57007 0.91253 0.0
C81 C 0.3803 0.62116 0.85567 0.0
C82 C 0.34465 0.57799 0.9087 0.0
C83 C 0.52637 0.65557 0.81852 0.0
C84 C 0.49008 0.61219 0.87212 0.0
Eu85 Eu 0.44399 0.73957 0.72078 0.0
O86 O 0.22441 0.56546 0.73351 0.0
O87 O 0.49568 0.83024 0.78502 0.0
O88 O 0.50059 0.7752 0.60632 0.0
O89 O 0.28748 0.66611 0.7779 0.0
C90 C 0.44329 0.8377 0.79843 0.0
O91 O 0.36664 0.7951 0.7695 0.0
O92 O 0.44065 0.66683 0.7095 0.0
C93 C 0.50228 0.70056 0.75143 0.0
C94 C 0.28557 0.53536 0.48124 0.0
O95 O 0.34788 0.59835 0.45792 0.0
O96 O 0.54081 0.76051 0.76919 0.0
O97 O 0.44246 0.67543 0.56884 0.0
C98 C 0.22567 0.63916 0.58714 0.0
O99 O 0.30723 0.6834 0.60995 0.0
C100 C 0.23292 0.65678 0.51931 0.0
C101 C 0.24627 0.68753 0.38858 0.0
C102 C 0.22057 0.61832 0.4602 0.0
C103 C 0.22583 0.63307 0.39559 0.0
C104 C 0.2516 0.71103 0.51257 0.0
C105 C 0.25952 0.72693 0.44639 0.0
C106 C 0.22152 0.59891 0.78358 0.0
O107 O 0.17136 0.57465 0.5949 0.0
H108 H 0.37121 0.53876 0.95521 0.0
H109 H 0.34154 0.62876 0.85333 0.0
H110 H 0.59873 0.6883 0.78669 0.0
H111 H 0.24992 0.69842 0.33782 0.0
H112 H 0.20432 0.57565 0.46447 0.0
H113 H 0.26025 0.74056 0.55799 0.0
C114 C 0.75979 0.92982 0.65985 0.0
C115 C 0.79967 0.94225 0.71466 0.0
C116 C 0.78856 0.92162 0.59118 0.0
C117 C 0.85199 0.92016 0.57838 0.0
C118 C 0.87956 0.92141 0.63523 0.0
C119 C 0.85238 0.93181 0.70275 0.0
C120 C 0.76089 0.92342 0.53192 0.0
C121 C 0.94502 0.91811 0.62537 0.0
C122 C 0.92198 0.87707 0.40716 0.0
C123 C 1.00926 0.94315 0.37725 0.0
C124 C 0.86638 0.86818 0.47122 0.0
C125 C 0.90044 0.92698 0.50593 0.0
C126 C 0.98891 0.99389 0.47556 0.0
C127 C 0.04189 1.00102 0.41096 0.0
C128 C 0.77565 0.79676 0.50429 0.0
C129 C 0.03167 0.05819 0.51374 0.0
H130 H 0.71461 0.93394 0.66891 0.0
H131 H 0.88274 0.93942 0.74398 0.0
H132 H 0.82032 0.9769 0.51018 0.0
H133 H 0.75059 0.89031 0.48895 0.0
H134 H 0.69405 0.90728 0.55041 0.0
H135 H 0.99492 0.95169 0.66325 0.0
H136 H 0.8986 0.8642 0.63611 0.0
H137 H 0.99023 0.93375 0.57174 0.0
H138 H 0.89883 0.83273 0.38136 0.0
H139 H 0.11118 0.05206 0.38821 0.0
H140 H 0.71736 0.78937 0.52973 0.0
H141 H 0.79267 0.79015 0.54576 0.0
H142 H 0.74806 0.75599 0.46524 0.0
H143 H 0.97772 0.05571 0.53006 0.0
H144 H 0.09818 0.1059 0.48091 0.0
H145 H 0.05103 0.06205 0.56228 0.0
C146 C 1.00388 0.55801 0.7103 0.0
C147 C 0.94675 0.52284 0.65872 0.0
C148 C 0.96978 0.56396 0.77783 0.0
C149 C 0.8774 0.53334 0.79241 0.0
C150 C 0.83487 0.51629 0.73643 0.0
C151 C 0.87016 0.51096 0.66933 0.0
C152 C 1.02357 0.59187 0.83582 0.0
C153 C 0.7414 0.49057 0.74938 0.0
C154 C 0.68449 0.39013 0.93168 0.0
C155 C 0.67296 0.42127 0.98458 0.0
C156 C 0.75407 0.42752 0.8696 0.0
C157 C 0.81266 0.49739 0.86108 0.0
C158 C 0.80389 0.5297 0.9161 0.0
C159 C 0.7346 0.49128 0.97743 0.0
C160 C 0.76074 0.39084 0.81163 0.0
C161 C 0.86197 0.60295 0.91013 0.0
H162 H 0.06684 0.57161 0.70159 0.0
H163 H 0.82741 0.48702 0.62935 0.0
H164 H 1.02213 0.6237 0.87126 0.0
H165 H 0.98661 0.54822 0.86785 0.0
H166 H 0.10049 0.62349 0.81466 0.0
H167 H 0.67862 0.43379 0.75883 0.0
H168 H 0.73579 0.51448 0.79623 0.0
H169 H 0.73604 0.50156 0.70284 0.0
H170 H 0.63626 0.33602 0.93747 0.0
H171 H 0.72583 0.51545 0.01916 0.0
H172 H 0.83763 0.42232 0.79182 0.0
H173 H 0.73286 0.3833 0.76687 0.0
H174 H 0.71762 0.33942 0.82942 0.0
H175 H 0.8935 0.63129 0.95789 0.0
H176 H 0.81214 0.60202 0.9081 0.0
H177 H 0.92166 0.63204 0.86305 0.0
C178 C 0.29969 0.61276 0.01159 0.0
C179 C 0.2744 0.55879 0.97305 0.0
C180 C 0.26997 0.6067 0.08482 0.0
C181 C 0.2119 0.54462 0.11982 0.0
C182 C 0.17614 0.48706 0.08041 0.0
C183 C 0.2071 0.49461 1.00696 0.0
C184 C 0.30741 0.66882 0.12511 0.0
C185 C 0.11343 0.41998 0.11601 0.0
C186 C 0.27571 0.59685 0.29793 0.0
C187 C 0.2062 0.59049 0.33478 0.0
C188 C 0.27106 0.57289 0.22918 0.0
C189 C 0.19612 0.54338 0.19757 0.0
C190 C 0.11908 0.52869 0.23884 0.0
C191 C 0.12528 0.55278 0.30717 0.0
C192 C 0.35218 0.58638 0.18799 0.0
C193 C 0.03433 0.49368 0.21013 0.0
H194 H 0.35183 0.66246 0.9857 0.0
H195 H 0.1877 0.45286 0.97701 0.0
H196 H 0.35882 0.68866 0.15639 0.0
H197 H 0.34595 0.71138 0.08975 0.0
H198 H 0.24613 0.65405 0.1624 0.0
H199 H 0.07734 0.37704 0.0785 0.0
H200 H 0.15957 0.42599 0.13848 0.0
H201 H 0.05682 0.40588 0.16002 0.0
H202 H 0.33765 0.62548 0.3204 0.0
H203 H 0.07057 0.54684 0.337 0.0
H204 H 0.40407 0.63212 0.15234 0.0
H205 H 0.32315 0.54186 0.15492 0.0
H206 H 0.39288 0.59665 0.2232 0.0
H207 H 0.03748 0.53073 0.20744 0.0
H208 H 0.96558 0.45066 0.24667 0.0
H209 H 0.03244 0.47282 0.15742 0.0
C210 C 0.19927 0.76961 0.45797 0.0
C211 C 0.27585 0.78127 0.4349 0.0
C212 C 0.2008 0.80826 0.42914 0.0
C213 C 0.2811 0.85992 0.37638 0.0
C214 C 0.36191 0.87528 0.35706 0.0
C215 C 0.35785 0.8353 0.38614 0.0
C216 C 0.11331 0.79038 0.45145 0.0
C217 C 0.44962 0.92998 0.30175 0.0
C218 C 0.21231 0.88794 0.25095 0.0
C219 C 0.2356 0.94328 0.28182 0.0
C220 C 0.23213 0.86269 0.27873 0.0
C221 C 0.27645 0.89385 0.33845 0.0
C222 C 0.30771 0.95357 0.36562 0.0
C223 C 0.28617 0.97722 0.33733 0.0
C224 C 0.19959 0.79979 0.24718 0.0
C225 C 0.35755 0.9896 0.4278 0.0
H226 H 0.13501 0.72684 0.4945 0.0
H227 H 0.41636 0.84344 0.36742 0.0
H228 H 0.13662 0.83773 0.46534 0.0
H229 H 0.07495 0.7669 0.40699 0.0
H230 H 0.061 0.75342 0.49713 0.0
H231 H 0.51587 0.95137 0.31022 0.0
H232 H 0.4365 0.9063 0.24927 0.0
H233 H 0.46389 0.97302 0.301 0.0
H234 H 0.1724 0.86138 0.20849 0.0
H235 H 0.30367 0.01989 0.36139 0.0
H236 H 0.13723 0.75502 0.28449 0.0
H237 H 0.25919 0.80827 0.23822 0.0
H238 H 0.17671 0.78658 0.19643 0.0
H239 H 0.30284 0.95858 0.4766 0.0
H240 H 0.39326 0.04182 0.43378 0.0
H241 H 0.41324 0.99461 0.42237 0.0
C242 C 0.334 0.50737 0.369 0.0
C243 C 0.26814 0.4846 0.43295 0.0
C244 C 0.3217 0.46085 0.32352 0.0
C245 C 0.23999 0.3894 0.34136 0.0
C246 C 0.17152 0.36588 0.40486 0.0
C247 C 0.18733 0.41389 0.45055 0.0
C248 C 0.39618 0.4884 0.25631 0.0
C249 C 0.08181 0.29008 0.42501 0.0
C250 C 0.16078 0.2627 0.19421 0.0
C251 C 0.19853 0.24402 0.20243 0.0
C252 C 0.17397 0.30999 0.23883 0.0
C253 C 0.22581 0.33926 0.29342 0.0
C254 C 0.2634 0.32023 0.30244 0.0
C255 C 0.24889 0.27257 0.25707 0.0
C256 C 0.13203 0.32842 0.22773 0.0
C257 C 0.31996 0.35088 0.35955 0.0
H258 H 0.39663 0.562 0.35495 0.0
H259 H 0.1358 0.39592 0.49969 0.0
H260 H 0.42166 0.46837 0.25135 0.0
H261 H 0.3622 0.47055 0.2107 0.0
H262 H 0.46043 0.54571 0.2536 0.0
H263 H 0.02664 0.27943 0.4671 0.0
H264 H 0.04763 0.25871 0.37901 0.0
H265 H 0.10274 0.27287 0.44418 0.0
H266 H 0.1214 0.24078 0.15232 0.0
H267 H 0.27806 0.25835 0.26389 0.0
H268 H 0.1909 0.38482 0.21777 0.0
H269 H 0.07993 0.31511 0.27602 0.0
H270 H 0.09372 0.30122 0.18277 0.0
H271 H 0.38514 0.40785 0.35211 0.0
H272 H 0.34412 0.33061 0.35987 0.0
H273 H 0.27444 0.33955 0.41179 0.0
C274 C 0.57352 0.81591 0.45461 0.0
C275 C 0.55738 0.76933 0.48382 0.0
C276 C 0.63105 0.84577 0.38688 0.0
C277 C 0.67496 0.82963 0.34806 0.0
C278 C 0.65431 0.77975 0.37599 0.0
C279 C 0.59458 0.74945 0.44296 0.0
C280 C 0.6455 0.89508 0.35748 0.0
C281 C 0.69711 0.75946 0.33571 0.0
C282 C 0.78169 0.86798 0.15098 0.0
C283 C 0.88135 0.93131 0.14971 0.0
C284 C 0.71309 0.83594 0.21485 0.0
C285 C 0.74503 0.86615 0.2794 0.0
C286 C 0.84525 0.92997 0.27833 0.0
C287 C 0.91187 0.96186 0.21378 0.0
C288 C 0.60638 0.77029 0.21292 0.0
C289 C 0.88231 0.96481 0.3455 0.0
H290 H 0.54186 0.82947 0.48501 0.0
H291 H 0.57959 0.71173 0.46441 0.0
H292 H 0.71896 0.94883 0.36152 0.0
H293 H 0.64078 0.88565 0.301 0.0
H294 H 0.59071 0.89057 0.38661 0.0
H295 H 0.67574 0.72097 0.3652 0.0
H296 H 0.67249 0.73705 0.2849 0.0
H297 H 0.77777 0.80588 0.32335 0.0
H298 H 0.75634 0.84407 0.10194 0.0
H299 H 0.98806 1.01122 0.21352 0.0
H300 H 0.56 0.76914 0.25413 0.0
H301 H 0.58461 0.72525 0.22296 0.0
H302 H 0.59094 0.76425 0.16096 0.0
H303 H 0.84889 0.97833 0.37445 0.0
H304 H 0.96277 1.01266 0.33603 0.0
H305 H 0.86036 0.92847 0.37943 0.0
C306 C 1.00749 0.38597 0.64875 0.0
C307 C 0.92572 0.34898 0.62182 0.0
C308 C 1.01077 0.35226 0.68223 0.0
C309 C 0.9299 0.27937 0.68974 0.0
C310 C 0.84751 0.24157 0.66203 0.0
C311 C 0.84651 0.27671 0.62829 0.0
C312 C 0.10027 0.39517 0.71077 0.0
C313 C 0.75972 0.1638 0.66881 0.0
C314 C 0.9589 0.17794 0.70992 0.0
C315 C 0.91504 0.15544 0.78075 0.0
C316 C 0.96786 0.22058 0.68064 0.0
C317 C 0.93271 0.24198 0.72315 0.0
C318 C 0.8954 0.22401 0.79615 0.0
C319 C 0.88685 0.18075 0.82418 0.0
C320 C 1.00992 0.23935 0.60311 0.0
C321 C 0.86168 0.24868 0.84393 0.0
H322 H 0.06914 0.44183 0.64421 0.0
H323 H 0.78231 0.24763 0.60899 0.0
H324 H 0.08531 0.39997 0.7684 0.0
H325 H 0.1198 0.37071 0.70184 0.0
H326 H 0.16408 0.44792 0.68638 0.0
H327 H 0.70111 0.14192 0.64511 0.0
H328 H 0.78138 0.14147 0.64264 0.0
H329 H 0.72991 0.14742 0.72523 0.0
H330 H 0.98184 0.15909 0.67631 0.0
H331 H 0.85386 0.16404 0.87902 0.0
H332 H 0.06553 0.29554 0.59425 0.0
H333 H 0.9509 0.21169 0.57547 0.0
H334 H 0.04385 0.22531 0.57914 0.0
H335 H 0.92355 0.30593 0.84385 0.0
H336 H 0.83215 0.2289 0.89901 0.0
H337 H 0.80467 0.23213 0.82407 0.0
C338 C 0.88062 0.61506 0.58076 0.0
C339 C 0.79741 0.57094 0.55188 0.0
C340 C 0.90918 0.66729 0.62732 0.0
C341 C 0.85339 0.67599 0.6457 0.0
C342 C 0.76985 0.63192 0.61623 0.0
C343 C 0.74307 0.58026 0.56993 0.0
C344 C 0.99851 0.71261 0.65742 0.0
C345 C 0.70744 0.63854 0.63468 0.0
C346 C 0.85319 0.75633 0.81936 0.0
C347 C 0.91162 0.8228 0.7979 0.0
C348 C 0.83707 0.70944 0.77087 0.0
C349 C 0.8785 0.72837 0.69841 0.0
C350 C 0.93919 0.7959 0.67652 0.0
C351 C 0.95588 0.84243 0.72659 0.0
C352 C 0.77475 0.6392 0.79724 0.0
C353 C 0.98614 0.81891 0.60013 0.0
H354 H 0.92332 0.60854 0.56739 0.0
H355 H 0.6786 0.54665 0.54826 0.0
H356 H 0.97726 0.7036 0.71523 0.0
H357 H 0.03769 0.70252 0.63428 0.0
H358 H 0.04935 0.76782 0.64794 0.0
H359 H 0.64668 0.60197 0.60566 0.0
H360 H 0.67621 0.62859 0.69202 0.0
H361 H 0.75258 0.69189 0.62258 0.0
H362 H 0.81932 0.74053 0.87443 0.0
H363 H 1.00452 0.89448 0.71006 0.0
H364 H 0.81485 0.6296 0.78013 0.0
H365 H 0.70846 0.59885 0.77409 0.0
H366 H 0.75285 0.6339 0.85553 0.0
H367 H 0.02768 0.81063 0.5797 0.0
H368 H 0.03629 0.87424 0.59201 0.0
H369 H 0.92902 0.78739 0.5686 0.0
C370 C 0.51586 0.29135 0.54327 0.0
C371 C 0.50428 0.24825 0.4915 0.0
C372 C 0.47017 0.26868 0.61415 0.0
C373 C 0.41454 0.20216 0.63437 0.0
C374 C 0.40703 0.15986 0.58265 0.0
C375 C 0.44992 0.18274 0.51165 0.0
C376 C 0.4777 0.31473 0.66674 0.0
C377 C 0.35202 0.08971 0.60144 0.0
C378 C 0.36919 0.17518 0.83015 0.0
C379 C 0.27099 0.1342 0.853 0.0
C380 C 0.41565 0.1957 0.75904 0.0
C381 C 0.36395 0.17701 0.70944 0.0
C382 C 0.26443 0.13502 0.73195 0.0
C383 C 0.21875 0.11296 0.80312 0.0
C384 C 0.51998 0.23698 0.73697 0.0
C385 C 0.20635 0.11406 0.68117 0.0
H386 H 0.55639 0.34152 0.52776 0.0
H387 H 0.44047 0.14912 0.47176 0.0
H388 H 0.50923 0.32534 0.7106 0.0
H389 H 0.52341 0.36482 0.64256 0.0
H390 H 0.40375 0.28808 0.68988 0.0
H391 H 0.35981 0.08898 0.654 0.0
H392 H 0.27345 0.05086 0.60263 0.0
H393 H 0.37765 0.07367 0.56192 0.0
H394 H 0.4101 0.19108 0.86796 0.0
H395 H 0.14257 0.07986 0.81968 0.0
H396 H 0.56801 0.28945 0.71838 0.0
H397 H 0.52647 0.21197 0.69243 0.0
H398 H 0.54711 0.24213 0.7807 0.0
H399 H 0.13334 0.08775 0.70828 0.0
H400 H 0.19609 0.07841 0.64233 0.0
H401 H 0.24637 0.16005 0.65147 0.0
C402 C 0.5857 0.50679 0.11975 0.0
C403 C 0.49389 0.43619 0.12742 0.0
C404 C 0.60772 0.55124 0.07881 0.0
C405 C 0.53271 0.52612 0.05209 0.0
C406 C 0.43556 0.45865 0.07249 0.0
C407 C 0.41815 0.41341 0.10679 0.0
C408 C 0.71295 0.62242 0.06014 0.0
C409 C 0.35089 0.43248 0.0536 0.0
C410 C 0.57098 0.64665 0.96632 0.0
C411 C 0.55004 0.61737 0.89983 0.0
C412 C 0.56943 0.6195 0.01637 0.0
C413 C 0.55506 0.56594 0.99726 0.0
C414 C 0.55159 0.54513 0.92618 0.0
C415 C 0.54629 0.5697 0.87865 0.0
C416 C 0.57332 0.64335 0.09115 0.0
C417 C 0.5467 0.49332 0.90175 0.0
H418 H 0.64477 0.52454 0.13533 0.0
H419 H 0.34789 0.35902 0.11096 0.0
H420 H 0.76123 0.61964 0.04633 0.0
H421 H 0.72815 0.64837 0.01574 0.0
H422 H 0.73318 0.65503 0.10706 0.0
H423 H 0.28031 0.38603 0.08596 0.0
H424 H 0.35903 0.47315 0.0613 0.0
H425 H 0.34844 0.41841 0.99747 0.0
H426 H 0.57323 0.68329 0.98275 0.0
H427 H 0.53019 0.54695 0.82739 0.0
H428 H 0.6417 0.67152 0.1045 0.0
H429 H 0.5114 0.59845 0.12842 0.0
H430 H 0.57084 0.67825 0.09906 0.0
H431 H 0.60176 0.50703 0.92104 0.0
H432 H 0.55924 0.49051 0.84347 0.0
H433 H 0.47403 0.4412 0.92355 0.0
C434 C 0.54743 0.93757 0.87934 0.0
C435 C 0.46384 0.88876 0.84976 0.0
C436 C 0.56329 0.98304 0.93073 0.0
C437 C 0.49352 0.97926 0.95375 0.0
C438 C 0.41003 0.93087 0.92312 0.0
C439 C 0.39653 0.88668 0.87155 0.0
C440 C 0.6535 0.03395 0.96167 0.0
C441 C 0.33345 0.92457 0.94603 0.0
C442 C 0.46933 0.03899 0.13643 0.0
C443 C 0.51305 0.10219 0.12125 0.0
C444 C 0.46467 0.99952 0.08277 0.0
C445 C 0.50504 0.02361 0.01174 0.0
C446 C 0.55112 0.08808 0.99614 0.0
C447 C 0.55405 0.12632 0.05091 0.0
C448 C 0.41403 0.93101 0.10219 0.0
C449 C 0.59565 0.1161 0.92139 0.0
H450 H 0.60009 0.93988 0.86288 0.0
H451 H 0.33156 0.84926 0.84934 0.0
H452 H 0.69047 0.08635 0.96112 0.0
H453 H 0.63259 0.01899 0.01744 0.0
H454 H 0.70589 0.03611 0.93277 0.0
H455 H 0.27389 0.88556 0.91588 0.0
H456 H 0.30122 0.90972 1.00281 0.0
H457 H 0.36707 0.97508 0.9392 0.0
H458 H 0.43754 0.01974 0.19047 0.0
H459 H 0.58861 0.17523 0.03849 0.0
H460 H 0.34398 0.88854 0.08372 0.0
H461 H 0.39856 0.92419 0.15989 0.0
H462 H 0.45894 0.92605 0.07625 0.0
H463 H 0.64135 0.17098 0.91897 0.0
H464 H 0.53682 0.08523 0.89191 0.0
H465 H 0.64095 0.11165 0.89418 0.0
C466 C 0.16484 0.59459 0.91218 0.0
C467 C 0.14432 0.56136 0.84782 0.0
C468 C 0.09371 0.56063 0.97427 0.0
C469 C 0.99765 0.49247 0.97167 0.0
C470 C 0.97594 0.45906 0.90612 0.0
C471 C 0.0503 0.49336 0.84523 0.0
C472 C 0.12328 0.59713 0.04298 0.0
C473 C 0.87438 0.38773 0.89973 0.0
C474 C 0.84273 0.38333 0.1412 0.0
C475 C 0.81945 0.4131 0.17935 0.0
C476 C 0.89834 0.40666 0.07235 0.0
C477 C 0.92293 0.45631 0.03855 0.0
C478 C 0.88569 0.47809 0.07375 0.0
C479 C 0.83895 0.45919 0.1451 0.0
C480 C 0.93424 0.38024 0.03902 0.0
C481 C 0.89505 0.52115 0.03602 0.0
H482 H 0.2379 0.64686 0.91435 0.0
H483 H 0.03407 0.46779 0.79519 0.0
H484 H 0.10364 0.564 0.08054 0.0
H485 H 0.20252 0.64756 0.03606 0.0
H486 H 0.08443 0.60711 0.06733 0.0
H487 H 0.86541 0.37546 0.84409 0.0
H488 H 0.85924 0.34879 0.92011 0.0
H489 H 0.81939 0.38239 0.93108 0.0
H490 H 0.82561 0.34644 0.16756 0.0
H491 H 0.81719 0.48002 0.17384 0.0
H492 H 1.00069 0.41557 0.99731 0.0
H493 H 0.87569 0.32929 0.01611 0.0
H494 H 0.94997 0.37156 0.07936 0.0
H495 H 0.97093 0.57486 0.02704 0.0
H496 H 0.84707 0.52269 0.0663 0.0
H497 H 0.87588 0.49965 0.9836 0.0
loop_
_geom_bond_atom_site_label_1
_geom_bond_atom_site_label_2
_geom_bond_distance
_geom_bond_site_symmetry_2
_ccdc_geom_bond_type
Eu0 O2 2.323 . S
Eu0 O10 2.328 1_556 S
Eu0 O21 2.316 1_655 S
Eu0 C22 2.837 . S
Eu0 O23 2.488 . S
Eu0 O31 2.461 . S
C1 O12 1.251 . S
C1 O21 1.237 1_545 S
O2 Eu0 2.323 . S
O2 C18 1.279 . S
C3 C5 1.383 . S
C3 C7 1.388 1_545 S
C3 C17 1.491 . S
C4 C6 1.403 . S
C4 C8 1.385 . S
C4 H32 0.931 . S
C5 C3 1.383 . S
C5 C6 1.393 1_545 S
C5 H33 0.930 . S
C6 C4 1.403 . S
C6 C5 1.393 1_565 S
C7 C3 1.388 1_565 S
C7 C8 1.394 . S
C7 H34 0.930 . S
C8 C4 1.385 . S
C8 C7 1.394 . S
Eu9 O11 2.323 . S
Eu9 O12 2.328 1_554 S
Eu9 O13 2.316 1_455 S
Eu9 O16 2.488 . S
Eu9 C17 2.837 . S
Eu9 O20 2.461 . S
O10 Eu0 2.328 1_554 S
O10 C30 1.251 . S
O11 Eu9 2.323 . S
O11 C14 1.279 . S
O12 C1 1.251 . S
O12 Eu9 2.328 1_556 S
O13 Eu9 2.316 1_655 S
O13 C30 1.237 1_545 S
C14 O11 1.279 . S
C14 O15 1.244 . S
O15 C14 1.244 . S
O16 Eu9 2.488 . S
O16 C17 1.271 . S
C17 C3 1.491 . S
C17 Eu9 2.837 . S
C17 O16 1.271 . S
C17 O20 1.261 . S
C18 O2 1.279 . S
C18 O19 1.244 . S
O19 C18 1.244 . S
O20 Eu9 2.461 . S
O20 C17 1.261 . S
O21 Eu0 2.316 1_455 S
O21 C1 1.237 1_565 S
C22 Eu0 2.837 . S
C22 O23 1.271 . S
C22 C24 1.491 . S
C22 O31 1.261 . S
O23 Eu0 2.488 . S
O23 C22 1.271 . S
C24 C22 1.491 . S
C24 C26 1.383 . S
C24 C28 1.388 1_565 S
C25 C27 1.403 . S
C25 C29 1.385 . S
C25 H35 0.931 . S
C26 C24 1.383 . S
C26 C27 1.393 1_565 S
C26 H36 0.930 . S
C27 C25 1.403 . S
C27 C26 1.393 1_545 S
C28 C24 1.388 1_545 S
C28 C29 1.394 . S
C28 H37 0.930 . S
C29 C25 1.385 . S
C29 C28 1.394 . S
C30 O10 1.251 . S
C30 O13 1.237 1_565 S
O31 Eu0 2.461 . S
O31 C22 1.261 . S
H32 C4 0.931 . S
H33 C5 0.930 . S
H34 C7 0.930 . S
H35 C25 0.931 . S
H36 C26 0.930 . S
H37 C28 0.930 . S
Eu38 O40 2.323 . S
Eu38 O48 2.328 . S
Eu38 O59 2.316 . S
Eu38 C60 2.837 . S
Eu38 O61 2.488 . S
Eu38 O69 2.461 . S
C39 O50 1.251 . S
C39 O59 1.237 . S
O40 Eu38 2.323 . S
O40 C56 1.279 . S
C41 C43 1.383 . S
C41 C45 1.388 . S
C41 C55 1.491 . S
C42 C44 1.403 . S
C42 C46 1.385 . S
C42 H70 0.931 . S
C43 C41 1.383 . S
C43 C44 1.393 . S
C43 H71 0.930 . S
C44 C42 1.403 . S
C44 C43 1.393 . S
C45 C41 1.388 . S
C45 C46 1.394 . S
C45 H72 0.930 . S
C46 C42 1.385 . S
C46 C45 1.394 . S
Eu47 O49 2.323 . S
Eu47 O50 2.328 . S
Eu47 O51 2.316 . S
Eu47 O54 2.488 . S
Eu47 C55 2.837 . S
Eu47 O58 2.461 . S
O48 Eu38 2.328 . S
O48 C68 1.251 . S
O49 Eu47 2.323 . S
O49 C52 1.279 . S
O50 C39 1.251 . S
O50 Eu47 2.328 . S
O51 Eu47 2.316 . S
O51 C68 1.237 . S
C52 O49 1.279 . S
C52 O53 1.244 . S
O53 C52 1.244 . S
O54 Eu47 2.488 . S
O54 C55 1.271 . S
C55 C41 1.491 . S
C55 Eu47 2.837 . S
C55 O54 1.271 . S
C55 O58 1.261 . S
C56 O40 1.279 . S
C56 O57 1.244 . S
O57 C56 1.244 . S
O58 Eu47 2.461 . S
O58 C55 1.261 . S
O59 Eu38 2.316 . S
O59 C39 1.237 . S
C60 Eu38 2.837 . S
C60 O61 1.271 . S
C60 C62 1.491 . S
C60 O69 1.261 . S
O61 Eu38 2.488 . S
O61 C60 1.271 . S
C62 C60 1.491 . S
C62 C64 1.383 . S
C62 C66 1.388 . S
C63 C65 1.403 . S
C63 C67 1.385 . S
C63 H73 0.931 . S
C64 C62 1.383 . S
C64 C65 1.393 . S
C64 H74 0.930 . S
C65 C63 1.403 . S
C65 C64 1.393 . S
C66 C62 1.388 . S
C66 C67 1.394 . S
C66 H75 0.930 . S
C67 C63 1.385 . S
C67 C66 1.394 . S
C68 O48 1.251 . S
C68 O51 1.237 . S
O69 Eu38 2.461 . S
O69 C60 1.261 . S
H70 C42 0.931 . S
H71 C43 0.930 . S
H72 C45 0.930 . S
H73 C63 0.931 . S
H74 C64 0.930 . S
H75 C66 0.930 . S
Eu76 O78 2.323 . S
Eu76 O86 2.328 . S
Eu76 O97 2.316 . S
Eu76 C98 2.837 . S
Eu76 O99 2.488 . S
Eu76 O107 2.461 . S
C77 O88 1.251 . S
C77 O97 1.237 . S
O78 Eu76 2.323 . S
O78 C94 1.279 . S
C79 C81 1.383 . S
C79 C83 1.388 . S
C79 C93 1.491 . S
C80 C82 1.403 . S
C80 C84 1.385 . S
C80 H108 0.931 . S
C81 C79 1.383 . S
C81 C82 1.393 . S
C81 H109 0.930 . S
C82 C80 1.403 . S
C82 C81 1.393 . S
C83 C79 1.388 . S
C83 C84 1.394 . S
C83 H110 0.930 . S
C84 C80 1.385 . S
C84 C83 1.394 . S
Eu85 O87 2.323 . S
Eu85 O88 2.328 . S
Eu85 O89 2.316 . S
Eu85 O92 2.488 . S
Eu85 C93 2.837 . S
Eu85 O96 2.461 . S
O86 Eu76 2.328 . S
O86 C106 1.251 . S
O87 Eu85 2.323 . S
O87 C90 1.279 . S
O88 C77 1.251 . S
O88 Eu85 2.328 . S
O89 Eu85 2.316 . S
O89 C106 1.237 . S
C90 O87 1.279 . S
C90 O91 1.244 . S
O91 C90 1.244 . S
O92 Eu85 2.488 . S
O92 C93 1.271 . S
C93 C79 1.491 . S
C93 Eu85 2.837 . S
C93 O92 1.271 . S
C93 O96 1.261 . S
C94 O78 1.279 . S
C94 O95 1.244 . S
O95 C94 1.244 . S
O96 Eu85 2.461 . S
O96 C93 1.261 . S
O97 Eu76 2.316 . S
O97 C77 1.237 . S
C98 Eu76 2.837 . S
C98 O99 1.271 . S
C98 C100 1.491 . S
C98 O107 1.261 . S
O99 Eu76 2.488 . S
O99 C98 1.271 . S
C100 C98 1.491 . S
C100 C102 1.383 . S
C100 C104 1.388 . S
C101 C103 1.403 . S
C101 C105 1.385 . S
C101 H111 0.931 . S
C102 C100 1.383 . S
C102 C103 1.393 . S
C102 H112 0.930 . S
C103 C101 1.403 . S
C103 C102 1.393 . S
C104 C100 1.388 . S
C104 C105 1.394 . S
C104 H113 0.930 . S
C105 C101 1.385 . S
C105 C104 1.394 . S
C106 O86 1.251 . S
C106 O89 1.237 . S
O107 Eu76 2.461 . S
O107 C98 1.261 . S
H108 C80 0.931 . S
H109 C81 0.930 . S
H110 C83 0.930 . S
H111 C101 0.931 . S
H112 C102 0.930 . S
H113 C104 0.930 . S
C114 C115 1.391 . S
C114 C116 1.394 . S
C114 H130 0.931 . S
C115 C114 1.391 . S
C115 C119 1.376 . S
C116 C114 1.394 . S
C116 C117 1.369 . S
C116 C120 1.531 . S
C117 C116 1.369 . S
C117 C118 1.410 1_655 S
C117 C125 1.503 1_655 S
C118 C117 1.410 1_455 S
C118 C119 1.392 1_455 S
C118 C121 1.511 . S
C119 C115 1.376 . S
C119 C118 1.392 1_655 S
C119 H131 0.929 . S
C120 C116 1.531 . S
C120 H132 0.960 . S
C120 H133 0.962 1_545 S
C120 H134 0.960 . S
C121 C118 1.511 . S
C121 H135 0.961 . S
C121 H136 0.961 . S
C121 H137 0.961 . S
C122 C123 1.370 . S
C122 C124 1.363 1_455 S
C122 H138 0.931 1_455 S
C123 C122 1.370 . S
C123 C127 1.408 1_565 S
C124 C122 1.363 1_655 S
C124 C125 1.370 1_665 S
C124 C128 1.524 . S
C125 C117 1.503 1_455 S
C125 C124 1.370 1_445 S
C125 C126 1.403 . S
C126 C125 1.403 . S
C126 C127 1.404 . S
C126 C129 1.539 . S
C127 C123 1.408 1_545 S
C127 C126 1.404 . S
C127 H139 0.930 . S
C128 C124 1.524 . S
C128 H140 0.956 . S
C128 H141 0.961 . S
C128 H142 0.961 . S
C129 C126 1.539 . S
C129 H143 0.958 . S
C129 H144 0.961 . S
C129 H145 0.960 . S
H130 C114 0.931 . S
H131 C119 0.929 . S
H132 C120 0.960 . S
H133 C120 0.962 1_565 S
H134 C120 0.960 . S
H135 C121 0.961 . S
H136 C121 0.961 . S
H137 C121 0.961 . S
H138 C122 0.931 1_655 S
H139 C127 0.930 . S
H140 C128 0.956 . S
H141 C128 0.961 . S
H142 C128 0.961 . S
H143 C129 0.958 . S
H144 C129 0.961 . S
H145 C129 0.960 . S
C146 C147 1.391 . S
C146 C148 1.394 . S
C146 H162 0.931 . S
C147 C146 1.391 . S
C147 C151 1.376 . S
C148 C146 1.394 . S
C148 C149 1.369 . S
C148 C152 1.531 . S
C149 C148 1.369 . S
C149 C150 1.410 . S
C149 C157 1.503 . S
C150 C149 1.410 . S
C150 C151 1.392 . S
C150 C153 1.511 . S
C151 C147 1.376 . S
C151 C150 1.392 . S
C151 H163 0.929 . S
C152 C148 1.531 . S
C152 H164 0.960 . S
C152 H165 0.962 . S
C152 H166 0.960 . S
C153 C150 1.511 . S
C153 H167 0.961 . S
C153 H168 0.961 . S
C153 H169 0.961 . S
C154 C155 1.370 . S
C154 C156 1.363 . S
C154 H170 0.931 1_556 S
C155 C154 1.370 . S
C155 C159 1.408 . S
C156 C154 1.363 . S
C156 C157 1.370 . S
C156 C160 1.524 . S
C157 C149 1.503 . S
C157 C156 1.370 . S
C157 C158 1.403 . S
C158 C157 1.403 . S
C158 C159 1.404 . S
C158 C161 1.539 . S
C159 C155 1.408 . S
C159 C158 1.404 . S
C159 H171 0.930 . S
C160 C156 1.524 . S
C160 H172 0.956 . S
C160 H173 0.961 . S
C160 H174 0.961 . S
C161 C158 1.539 . S
C161 H175 0.958 . S
C161 H176 0.961 . S
C161 H177 0.960 . S
H162 C146 0.931 . S
H163 C151 0.929 . S
H164 C152 0.960 . S
H165 C152 0.962 . S
H166 C152 0.960 . S
H167 C153 0.961 . S
H168 C153 0.961 . S
H169 C153 0.961 . S
H170 C154 0.931 1_554 S
H171 C159 0.930 . S
H172 C160 0.956 . S
H173 C160 0.961 . S
H174 C160 0.961 . S
H175 C161 0.958 . S
H176 C161 0.961 . S
H177 C161 0.960 . S
C178 C179 1.381 1_554 S
C178 C180 1.394 . S
C178 H194 0.931 . S
C179 C178 1.381 1_556 S
C179 C183 1.376 1_556 S
C180 C178 1.394 . S
C180 C181 1.369 . S
C180 C184 1.531 . S
C181 C180 1.369 . S
C181 C182 1.410 . S
C181 C189 1.503 . S
C182 C181 1.410 . S
C182 C183 1.392 . S
C182 C185 1.511 . S
C183 C179 1.376 1_554 S
C183 C182 1.392 . S
C183 H195 0.929 1_554 S
C184 C180 1.531 . S
C184 H196 0.960 . S
C184 H197 0.962 . S
C184 H198 0.960 . S
C185 C182 1.511 . S
C185 H199 0.961 . S
C185 H200 0.961 . S
C185 H201 0.961 . S
C186 C187 1.370 . S
C186 C188 1.363 . S
C186 H202 0.931 . S
C187 C186 1.370 . S
C187 C191 1.408 . S
C188 C186 1.363 . S
C188 C189 1.370 . S
C188 C192 1.524 . S
C189 C181 1.503 . S
C189 C188 1.370 . S
C189 C190 1.403 . S
C190 C189 1.403 . S
C190 C191 1.404 . S
C190 C193 1.539 . S
C191 C187 1.408 . S
C191 C190 1.404 . S
C191 H203 0.930 . S
C192 C188 1.524 . S
C192 H204 0.956 . S
C192 H205 0.961 . S
C192 H206 0.961 . S
C193 C190 1.539 . S
C193 H207 0.958 . S
C193 H208 0.961 . S
C193 H209 0.960 . S
H194 C178 0.931 . S
H195 C183 0.929 1_556 S
H196 C184 0.960 . S
H197 C184 0.962 . S
H198 C184 0.960 . S
H199 C185 0.961 . S
H200 C185 0.961 . S
H201 C185 0.961 . S
H202 C186 0.931 . S
H203 C191 0.930 . S
H204 C192 0.956 . S
H205 C192 0.961 . S
H206 C192 0.961 . S
H207 C193 0.958 . S
H208 C193 0.961 . S
H209 C193 0.960 . S
C210 C211 1.391 . S
C210 C212 1.394 . S
C210 H226 0.931 . S
C211 C210 1.391 . S
C211 C215 1.376 . S
C212 C210 1.394 . S
C212 C213 1.369 . S
C212 C216 1.531 . S
C213 C212 1.369 . S
C213 C214 1.410 . S
C213 C221 1.503 . S
C214 C213 1.410 . S
C214 C215 1.392 . S
C214 C217 1.511 . S
C215 C211 1.376 . S
C215 C214 1.392 . S
C215 H227 0.929 . S
C216 C212 1.531 . S
C216 H228 0.960 . S
C216 H229 0.962 1_455 S
C216 H230 0.960 . S
C217 C214 1.511 . S
C217 H231 0.961 . S
C217 H232 0.961 . S
C217 H233 0.961 . S
C218 C219 1.370 . S
C218 C220 1.363 . S
C218 H234 0.931 . S
C219 C218 1.370 . S
C219 C223 1.408 . S
C220 C218 1.363 . S
C220 C221 1.370 . S
C220 C224 1.524 . S
C221 C213 1.503 . S
C221 C220 1.370 . S
C221 C222 1.403 . S
C222 C221 1.403 . S
C222 C223 1.404 . S
C222 C225 1.539 . S
C223 C219 1.408 . S
C223 C222 1.404 . S
C223 H235 0.930 . S
C224 C220 1.524 . S
C224 H236 0.956 . S
C224 H237 0.961 . S
C224 H238 0.961 . S
C225 C222 1.539 . S
C225 H239 0.958 . S
C225 H240 0.961 1_565 S
C225 H241 0.960 . S
H226 C210 0.931 . S
H227 C215 0.929 . S
H228 C216 0.960 . S
H229 C216 0.962 1_655 S
H230 C216 0.960 . S
H231 C217 0.961 . S
H232 C217 0.961 . S
H233 C217 0.961 . S
H234 C218 0.931 . S
H235 C223 0.930 . S
H236 C224 0.956 . S
H237 C224 0.961 . S
H238 C224 0.961 . S
H239 C225 0.958 . S
H240 C225 0.961 1_545 S
H241 C225 0.960 . S
C242 C243 1.391 . S
C242 C244 1.394 . S
C242 H258 0.931 . S
C243 C242 1.391 . S
C243 C247 1.376 . S
C244 C242 1.394 . S
C244 C245 1.369 . S
C244 C248 1.531 . S
C245 C244 1.369 . S
C245 C246 1.410 . S
C245 C253 1.503 . S
C246 C245 1.410 . S
C246 C247 1.392 . S
C246 C249 1.511 . S
C247 C243 1.376 . S
C247 C246 1.392 . S
C247 H259 0.929 . S
C248 C244 1.531 . S
C248 H260 0.960 . S
C248 H261 0.962 . S
C248 H262 0.960 . S
C249 C246 1.511 . S
C249 H263 0.961 1_455 S
C249 H264 0.959 1_455 S
C249 H265 0.961 1_455 S
C250 C251 1.370 . S
C250 C252 1.363 . S
C250 H266 0.931 . S
C251 C250 1.370 . S
C251 C255 1.408 . S
C252 C250 1.363 . S
C252 C253 1.370 . S
C252 C256 1.524 . S
C253 C245 1.503 . S
C253 C252 1.370 . S
C253 C254 1.403 . S
C254 C253 1.403 . S
C254 C255 1.404 . S
C254 C257 1.539 . S
C255 C251 1.408 . S
C255 C254 1.404 . S
C255 H267 0.930 . S
C256 C252 1.524 . S
C256 H268 0.956 . S
C256 H269 0.961 . S
C256 H270 0.961 . S
C257 C254 1.539 . S
C257 H271 0.958 . S
C257 H272 0.961 . S
C257 H273 0.960 . S
H258 C242 0.931 . S
H259 C247 0.929 . S
H260 C248 0.960 . S
H261 C248 0.962 . S
H262 C248 0.960 . S
H263 C249 0.961 1_655 S
H264 C249 0.959 1_655 S
H265 C249 0.961 1_655 S
H266 C250 0.931 . S
H267 C255 0.930 . S
H268 C256 0.956 . S
H269 C256 0.961 . S
H270 C256 0.961 . S
H271 C257 0.958 . S
H272 C257 0.961 . S
H273 C257 0.960 . S
C274 C275 1.391 . S
C274 C276 1.394 . S
C274 H290 0.931 . S
C275 C274 1.391 . S
C275 C279 1.376 . S
C276 C274 1.394 . S
C276 C277 1.369 . S
C276 C280 1.531 . S
C277 C276 1.369 . S
C277 C278 1.410 . S
C277 C285 1.503 . S
C278 C277 1.410 . S
C278 C279 1.392 . S
C278 C281 1.511 . S
C279 C275 1.376 . S
C279 C278 1.392 . S
C279 H291 0.929 . S
C280 C276 1.531 . S
C280 H292 0.960 . S
C280 H293 0.962 . S
C280 H294 0.960 . S
C281 C278 1.511 . S
C281 H295 0.961 . S
C281 H296 0.961 . S
C281 H297 0.961 . S
C282 C283 1.370 . S
C282 C284 1.363 . S
C282 H298 0.931 . S
C283 C282 1.370 . S
C283 C287 1.408 . S
C284 C282 1.363 . S
C284 C285 1.370 . S
C284 C288 1.524 . S
C285 C277 1.503 . S
C285 C284 1.370 . S
C285 C286 1.403 . S
C286 C285 1.403 . S
C286 C287 1.404 . S
C286 C289 1.539 . S
C287 C283 1.408 . S
C287 C286 1.404 . S
C287 H299 0.930 . S
C288 C284 1.524 . S
C288 H300 0.956 . S
C288 H301 0.961 . S
C288 H302 0.961 . S
C289 C286 1.539 . S
C289 H303 0.958 . S
C289 H304 0.961 . S
C289 H305 0.960 . S
H290 C274 0.931 . S
H291 C279 0.929 . S
H292 C280 0.960 . S
H293 C280 0.962 . S
H294 C280 0.960 . S
H295 C281 0.961 . S
H296 C281 0.961 . S
H297 C281 0.961 . S
H298 C282 0.931 . S
H299 C287 0.930 . S
H300 C288 0.956 . S
H301 C288 0.961 . S
H302 C288 0.961 . S
H303 C289 0.958 . S
H304 C289 0.961 . S
H305 C289 0.960 . S
C306 C307 1.391 . S
C306 C308 1.394 . S
C306 H322 0.931 . S
C307 C306 1.391 . S
C307 C311 1.376 . S
C308 C306 1.394 . S
C308 C309 1.369 . S
C308 C312 1.531 . S
C309 C308 1.369 . S
C309 C310 1.410 . S
C309 C317 1.503 . S
C310 C309 1.410 . S
C310 C311 1.392 . S
C310 C313 1.511 . S
C311 C307 1.376 . S
C311 C310 1.392 . S
C311 H323 0.929 . S
C312 C308 1.531 . S
C312 H324 0.960 . S
C312 H325 0.962 1_655 S
C312 H326 0.960 . S
C313 C310 1.511 . S
C313 H327 0.961 . S
C313 H328 0.961 . S
C313 H329 0.961 . S
C314 C315 1.370 . S
C314 C316 1.363 . S
C314 H330 0.931 . S
C315 C314 1.370 . S
C315 C319 1.408 . S
C316 C314 1.363 . S
C316 C317 1.370 . S
C316 C320 1.524 . S
C317 C309 1.503 . S
C317 C316 1.370 . S
C317 C318 1.403 . S
C318 C317 1.403 . S
C318 C319 1.404 . S
C318 C321 1.539 . S
C319 C315 1.408 . S
C319 C318 1.404 . S
C319 H331 0.930 . S
C320 C316 1.524 . S
C320 H332 0.956 . S
C320 H333 0.961 . S
C320 H334 0.961 . S
C321 C318 1.539 . S
C321 H335 0.958 . S
C321 H336 0.961 . S
C321 H337 0.960 . S
H322 C306 0.931 . S
H323 C311 0.929 . S
H324 C312 0.960 . S
H325 C312 0.962 1_455 S
H326 C312 0.960 . S
H327 C313 0.961 . S
H328 C313 0.961 . S
H329 C313 0.961 . S
H330 C314 0.931 . S
H331 C319 0.930 . S
H332 C320 0.956 . S
H333 C320 0.961 . S
H334 C320 0.961 . S
H335 C321 0.958 . S
H336 C321 0.961 . S
H337 C321 0.960 . S
C338 C339 1.391 . S
C338 C340 1.394 . S
C338 H354 0.931 . S
C339 C338 1.391 . S
C339 C343 1.376 . S
C340 C338 1.394 . S
C340 C341 1.369 . S
C340 C344 1.531 . S
C341 C340 1.369 . S
C341 C342 1.410 . S
C341 C349 1.503 . S
C342 C341 1.410 . S
C342 C343 1.392 . S
C342 C345 1.511 . S
C343 C339 1.376 . S
C343 C342 1.392 . S
C343 H355 0.929 . S
C344 C340 1.531 . S
C344 H356 0.960 . S
C344 H357 0.962 1_655 S
C344 H358 0.960 1_655 S
C345 C342 1.511 . S
C345 H359 0.961 . S
C345 H360 0.961 . S
C345 H361 0.961 . S
C346 C347 1.370 . S
C346 C348 1.363 . S
C346 H362 0.931 . S
C347 C346 1.370 . S
C347 C351 1.408 . S
C348 C346 1.363 . S
C348 C349 1.370 . S
C348 C352 1.524 . S
C349 C341 1.503 . S
C349 C348 1.370 . S
C349 C350 1.403 . S
C350 C349 1.403 . S
C350 C351 1.404 . S
C350 C353 1.539 . S
C351 C347 1.408 . S
C351 C350 1.404 . S
C351 H363 0.930 . S
C352 C348 1.524 . S
C352 H364 0.956 . S
C352 H365 0.961 . S
C352 H366 0.961 . S
C353 C350 1.539 . S
C353 H367 0.958 . S
C353 H368 0.961 . S
C353 H369 0.960 . S
H354 C338 0.931 . S
H355 C343 0.929 . S
H356 C344 0.960 . S
H357 C344 0.962 1_455 S
H358 C344 0.960 1_455 S
H359 C345 0.961 . S
H360 C345 0.961 . S
H361 C345 0.961 . S
H362 C346 0.931 . S
H363 C351 0.930 . S
H364 C352 0.956 . S
H365 C352 0.961 . S
H366 C352 0.961 . S
H367 C353 0.958 . S
H368 C353 0.961 . S
H369 C353 0.960 . S
C370 C371 1.391 . S
C370 C372 1.394 . S
C370 H386 0.931 . S
C371 C370 1.391 . S
C371 C375 1.376 . S
C372 C370 1.394 . S
C372 C373 1.369 . S
C372 C376 1.531 . S
C373 C372 1.369 . S
C373 C374 1.410 . S
C373 C381 1.503 . S
C374 C373 1.410 . S
C374 C375 1.392 . S
C374 C377 1.511 . S
C375 C371 1.376 . S
C375 C374 1.392 . S
C375 H387 0.929 . S
C376 C372 1.531 . S
C376 H388 0.960 . S
C376 H389 0.962 . S
C376 H390 0.960 . S
C377 C374 1.511 . S
C377 H391 0.961 . S
C377 H392 0.961 . S
C377 H393 0.961 . S
C378 C379 1.370 . S
C378 C380 1.363 . S
C378 H394 0.931 . S
C379 C378 1.370 . S
C379 C383 1.408 . S
C380 C378 1.363 . S
C380 C381 1.370 . S
C380 C384 1.524 . S
C381 C373 1.503 . S
C381 C380 1.370 . S
C381 C382 1.403 . S
C382 C381 1.403 . S
C382 C383 1.404 . S
C382 C385 1.539 . S
C383 C379 1.408 . S
C383 C382 1.404 . S
C383 H395 0.930 . S
C384 C380 1.524 . S
C384 H396 0.956 . S
C384 H397 0.961 . S
C384 H398 0.961 . S
C385 C382 1.539 . S
C385 H399 0.958 . S
C385 H400 0.961 . S
C385 H401 0.960 . S
H386 C370 0.931 . S
H387 C375 0.929 . S
H388 C376 0.960 . S
H389 C376 0.962 . S
H390 C376 0.960 . S
H391 C377 0.961 . S
H392 C377 0.961 . S
H393 C377 0.961 . S
H394 C378 0.931 . S
H395 C383 0.930 . S
H396 C384 0.956 . S
H397 C384 0.961 . S
H398 C384 0.961 . S
H399 C385 0.958 . S
H400 C385 0.961 . S
H401 C385 0.960 . S
C402 C403 1.391 . S
C402 C404 1.394 . S
C402 H418 0.931 . S
C403 C402 1.391 . S
C403 C407 1.376 . S
C404 C402 1.394 . S
C404 C405 1.369 . S
C404 C408 1.531 1_554 S
C405 C404 1.369 . S
C405 C406 1.410 . S
C405 C413 1.503 1_554 S
C406 C405 1.410 . S
C406 C407 1.392 . S
C406 C409 1.511 . S
C407 C403 1.376 . S
C407 C406 1.392 . S
C407 H419 0.929 . S
C408 C404 1.531 1_556 S
C408 H420 0.960 . S
C408 H421 0.962 1_556 S
C408 H422 0.960 . S
C409 C406 1.511 . S
C409 H423 0.961 . S
C409 H424 0.961 . S
C409 H425 0.961 1_554 S
C410 C411 1.370 . S
C410 C412 1.363 1_556 S
C410 H426 0.931 . S
C411 C410 1.370 . S
C411 C415 1.408 . S
C412 C410 1.363 1_554 S
C412 C413 1.370 1_554 S
C412 C416 1.524 . S
C413 C405 1.503 1_556 S
C413 C412 1.370 1_556 S
C413 C414 1.403 . S
C414 C413 1.403 . S
C414 C415 1.404 . S
C414 C417 1.539 . S
C415 C411 1.408 . S
C415 C414 1.404 . S
C415 H427 0.930 . S
C416 C412 1.524 . S
C416 H428 0.956 . S
C416 H429 0.961 . S
C416 H430 0.961 . S
C417 C414 1.539 . S
C417 H431 0.958 . S
C417 H432 0.961 . S
C417 H433 0.960 . S
H418 C402 0.931 . S
H419 C407 0.929 . S
H420 C408 0.960 . S
H421 C408 0.962 1_554 S
H422 C408 0.960 . S
H423 C409 0.961 . S
H424 C409 0.961 . S
H425 C409 0.961 1_556 S
H426 C410 0.931 . S
H427 C415 0.930 . S
H428 C416 0.956 . S
H429 C416 0.961 . S
H430 C416 0.961 . S
H431 C417 0.958 . S
H432 C417 0.961 . S
H433 C417 0.960 . S
C434 C435 1.391 . S
C434 C436 1.394 . S
C434 H450 0.931 . S
C435 C434 1.391 . S
C435 C439 1.376 . S
C436 C434 1.394 . S
C436 C437 1.369 . S
C436 C440 1.531 1_565 S
C437 C436 1.369 . S
C437 C438 1.410 . S
C437 C445 1.503 1_566 S
C438 C437 1.410 . S
C438 C439 1.392 . S
C438 C441 1.511 1_556 S
C439 C435 1.376 . S
C439 C438 1.392 . S
C439 H451 0.929 . S
C440 C436 1.531 1_545 S
C440 H452 0.960 . S
C440 H453 0.962 . S
C440 H454 0.960 . S
C441 C438 1.511 1_554 S
C441 H455 0.961 . S
C441 H456 0.961 . S
C441 H457 0.961 1_554 S
C442 C443 1.370 . S
C442 C444 1.363 . S
C442 H458 0.931 . S
C443 C442 1.370 . S
C443 C447 1.408 . S
C444 C442 1.363 . S
C444 C445 1.370 . S
C444 C448 1.524 1_545 S
C445 C437 1.503 1_544 S
C445 C444 1.370 . S
C445 C446 1.403 . S
C446 C445 1.403 . S
C446 C447 1.404 . S
C446 C449 1.539 1_554 S
C447 C443 1.408 . S
C447 C446 1.404 . S
C447 H459 0.930 . S
C448 C444 1.524 1_565 S
C448 H460 0.956 . S
C448 H461 0.961 . S
C448 H462 0.961 . S
C449 C446 1.539 1_556 S
C449 H463 0.958 . S
C449 H464 0.961 . S
C449 H465 0.960 . S
H450 C434 0.931 . S
H451 C439 0.929 . S
H452 C440 0.960 . S
H453 C440 0.962 . S
H454 C440 0.960 . S
H455 C441 0.961 . S
H456 C441 0.961 . S
H457 C441 0.961 1_556 S
H458 C442 0.931 . S
H459 C447 0.930 . S
H460 C448 0.956 . S
H461 C448 0.961 . S
H462 C448 0.961 . S
H463 C449 0.958 . S
H464 C449 0.961 . S
H465 C449 0.960 . S
C466 C467 1.391 . S
C466 C468 1.394 . S
C466 H482 0.931 . S
C467 C466 1.391 . S
C467 C471 1.376 . S
C468 C466 1.394 . S
C468 C469 1.369 . S
C468 C472 1.531 1_556 S
C469 C468 1.369 . S
C469 C470 1.410 1_455 S
C469 C477 1.503 1_456 S
C470 C469 1.410 1_655 S
C470 C471 1.392 1_655 S
C470 C473 1.511 . S
C471 C467 1.376 . S
C471 C470 1.392 1_455 S
C471 H483 0.929 . S
C472 C468 1.531 1_554 S
C472 H484 0.960 . S
C472 H485 0.962 . S
C472 H486 0.960 . S
C473 C470 1.511 . S
C473 H487 0.961 . S
C473 H488 0.961 . S
C473 H489 0.961 . S
C474 C475 1.370 . S
C474 C476 1.363 . S
C474 H490 0.931 . S
C475 C474 1.370 . S
C475 C479 1.408 . S
C476 C474 1.363 . S
C476 C477 1.370 . S
C476 C480 1.524 1_655 S
C477 C469 1.503 1_654 S
C477 C476 1.370 . S
C477 C478 1.403 . S
C478 C477 1.403 . S
C478 C479 1.404 . S
C478 C481 1.539 . S
C479 C475 1.408 . S
C479 C478 1.404 . S
C479 H491 0.930 . S
C480 C476 1.524 1_455 S
C480 H492 0.956 . S
C480 H493 0.961 1_554 S
C480 H494 0.961 . S
C481 C478 1.539 . S
C481 H495 0.958 . S
C481 H496 0.961 . S
C481 H497 0.960 1_554 S
H482 C466 0.931 . S
H483 C471 0.929 . S
H484 C472 0.960 . S
H485 C472 0.962 . S
H486 C472 0.960 . S
H487 C473 0.961 . S
H488 C473 0.961 . S
H489 C473 0.961 . S
H490 C474 0.931 . S
H491 C479 0.930 . S
H492 C480 0.956 . S
H493 C480 0.961 1_556 S
H494 C480 0.961 . S
H495 C481 0.958 . S
H496 C481 0.961 . S
H497 C481 0.960 1_556 S
C115 C27 0.728 . S
C123 C6 0.745 . S
C147 C44 0.715 . S
C155 C65 0.750 1_556 S
C179 C82 0.723 . S
C187 C103 0.751 . S
C211 C105 2.447 . S
C219 C8 2.415 . S
C243 C94 1.292 . S
C251 C14 1.312 . S
C275 C77 1.580 . S
C283 C30 1.580 . S
C307 C46 2.399 . S
C315 C29 2.432 . S
C339 C52 1.305 . S
C347 C18 1.306 . S
C371 C68 1.565 . S
C379 C1 1.590 . S
C403 C67 2.390 . S
C411 C84 2.438 . S
C435 C90 1.287 . S
C443 C56 1.311 . S
C467 C106 1.590 . S
C475 C39 1.579 . S
