# Generated by pormake.
# Topology wlu, (5)-cn, num edge types: 1
# Building blocks:
#     Node 0, Type 0, BuildingBlock: XOMCOT_clean_sbu_1, # of connection points: 5
#     Node 1, Type 0, BuildingBlock: XOMCOT_clean_sbu_1, # of connection points: 5
#     Node 2, Type 0, BuildingBlock: XOMCOT_clean_sbu_1, # of connection points: 5
#     Node 3, Type 0, BuildingBlock: XOMCOT_clean_sbu_1, # of connection points: 5
#     Node 4, Type 0, BuildingBlock: XOMCOT_clean_sbu_1, # of connection points: 5
#     Node 5, Type 0, BuildingBlock: XOMCOT_clean_sbu_1, # of connection points: 5
#     Node 6, Type 0, BuildingBlock: XOMCOT_clean_sbu_1, # of connection points: 5
#     Node 7, Type 0, BuildingBlock: XOMCOT_clean_sbu_1, # of connection points: 5
#     Node 8, Type 0, BuildingBlock: XOMCOT_clean_sbu_1, # of connection points: 5
#     Node 9, Type 0, BuildingBlock: XOMCOT_clean_sbu_1, # of connection points: 5
#     Node 10, Type 0, BuildingBlock: XOMCOT_clean_sbu_1, # of connection points: 5
#     Node 11, Type 0, BuildingBlock: XOMCOT_clean_sbu_1, # of connection points: 5
#     Node 12, Type 0, BuildingBlock: XOMCOT_clean_sbu_1, # of connection points: 5
#     Node 13, Type 0, BuildingBlock: XOMCOT_clean_sbu_1, # of connection points: 5
#     Node 14, Type 0, BuildingBlock: XOMCOT_clean_sbu_1, # of connection points: 5
#     Node 15, Type 0, BuildingBlock: XOMCOT_clean_sbu_1, # of connection points: 5
#     Node 16, Type 0, BuildingBlock: XOMCOT_clean_sbu_1, # of connection points: 5
#     Node 17, Type 0, BuildingBlock: XOMCOT_clean_sbu_1, # of connection points: 5
#     Node 18, Type 0, BuildingBlock: XOMCOT_clean_sbu_1, # of connection points: 5
#     Node 19, Type 0, BuildingBlock: XOMCOT_clean_sbu_1, # of connection points: 5
#     Node 20, Type 0, BuildingBlock: XOMCOT_clean_sbu_1, # of connection points: 5
#     Node 21, Type 0, BuildingBlock: XOMCOT_clean_sbu_1, # of connection points: 5
#     Node 22, Type 0, BuildingBlock: XOMCOT_clean_sbu_1, # of connection points: 5
#     Node 23, Type 0, BuildingBlock: XOMCOT_clean_sbu_1, # of connection points: 5
#     Node 24, Type 0, BuildingBlock: XOMCOT_clean_sbu_1, # of connection points: 5
#     Node 25, Type 0, BuildingBlock: XOMCOT_clean_sbu_1, # of connection points: 5
#     Node 26, Type 0, BuildingBlock: XOMCOT_clean_sbu_1, # of connection points: 5
#     Node 27, Type 0, BuildingBlock: XOMCOT_clean_sbu_1, # of connection points: 5
#     Node 28, Type 0, BuildingBlock: XOMCOT_clean_sbu_1, # of connection points: 5
#     Node 29, Type 0, BuildingBlock: XOMCOT_clean_sbu_1, # of connection points: 5
#     Node 30, Type 0, BuildingBlock: XOMCOT_clean_sbu_1, # of connection points: 5
#     Node 31, Type 0, BuildingBlock: XOMCOT_clean_sbu_1, # of connection points: 5
#     Node 32, Type 0, BuildingBlock: XOMCOT_clean_sbu_1, # of connection points: 5
#     Node 33, Type 0, BuildingBlock: XOMCOT_clean_sbu_1, # of connection points: 5
#     Node 34, Type 0, BuildingBlock: XOMCOT_clean_sbu_1, # of connection points: 5
#     Node 35, Type 0, BuildingBlock: XOMCOT_clean_sbu_1, # of connection points: 5
#     Edge 36, Type (0, 0), BuildingBlock: EZIPEK_clean_linker_0, # of connection points: 2
#     Edge 37, Type (0, 0), BuildingBlock: EZIPEK_clean_linker_0, # of connection points: 2
#     Edge 38, Type (0, 0), BuildingBlock: EZIPEK_clean_linker_0, # of connection points: 2
#     Edge 39, Type (0, 0), BuildingBlock: EZIPEK_clean_linker_0, # of connection points: 2
#     Edge 40, Type (0, 0), BuildingBlock: EZIPEK_clean_linker_0, # of connection points: 2
#     Edge 41, Type (0, 0), BuildingBlock: EZIPEK_clean_linker_0, # of connection points: 2
#     Edge 42, Type (0, 0), BuildingBlock: EZIPEK_clean_linker_0, # of connection points: 2
#     Edge 43, Type (0, 0), BuildingBlock: EZIPEK_clean_linker_0, # of connection points: 2
#     Edge 44, Type (0, 0), BuildingBlock: EZIPEK_clean_linker_0, # of connection points: 2
#     Edge 45, Type (0, 0), BuildingBlock: EZIPEK_clean_linker_0, # of connection points: 2
#     Edge 46, Type (0, 0), BuildingBlock: EZIPEK_clean_linker_0, # of connection points: 2
#     Edge 47, Type (0, 0), BuildingBlock: EZIPEK_clean_linker_0, # of connection points: 2
#     Edge 48, Type (0, 0), BuildingBlock: EZIPEK_clean_linker_0, # of connection points: 2
#     Edge 49, Type (0, 0), BuildingBlock: EZIPEK_clean_linker_0, # of connection points: 2
#     Edge 50, Type (0, 0), BuildingBlock: EZIPEK_clean_linker_0, # of connection points: 2
#     Edge 51, Type (0, 0), BuildingBlock: EZIPEK_clean_linker_0, # of connection points: 2
#     Edge 52, Type (0, 0), BuildingBlock: EZIPEK_clean_linker_0, # of connection points: 2
#     Edge 53, Type (0, 0), BuildingBlock: EZIPEK_clean_linker_0, # of connection points: 2
#     Edge 54, Type (0, 0), BuildingBlock: EZIPEK_clean_linker_0, # of connection points: 2
#     Edge 55, Type (0, 0), BuildingBlock: EZIPEK_clean_linker_0, # of connection points: 2
#     Edge 56, Type (0, 0), BuildingBlock: EZIPEK_clean_linker_0, # of connection points: 2
#     Edge 57, Type (0, 0), BuildingBlock: EZIPEK_clean_linker_0, # of connection points: 2
#     Edge 58, Type (0, 0), BuildingBlock: EZIPEK_clean_linker_0, # of connection points: 2
#     Edge 59, Type (0, 0), BuildingBlock: EZIPEK_clean_linker_0, # of connection points: 2
#     Edge 60, Type (0, 0), BuildingBlock: EZIPEK_clean_linker_0, # of connection points: 2
#     Edge 61, Type (0, 0), BuildingBlock: EZIPEK_clean_linker_0, # of connection points: 2
#     Edge 62, Type (0, 0), BuildingBlock: EZIPEK_clean_linker_0, # of connection points: 2
#     Edge 63, Type (0, 0), BuildingBlock: EZIPEK_clean_linker_0, # of connection points: 2
#     Edge 64, Type (0, 0), BuildingBlock: EZIPEK_clean_linker_0, # of connection points: 2
#     Edge 65, Type (0, 0), BuildingBlock: EZIPEK_clean_linker_0, # of connection points: 2
#     Edge 66, Type (0, 0), BuildingBlock: EZIPEK_clean_linker_0, # of connection points: 2
#     Edge 67, Type (0, 0), BuildingBlock: EZIPEK_clean_linker_0, # of connection points: 2
#     Edge 68, Type (0, 0), BuildingBlock: EZIPEK_clean_linker_0, # of connection points: 2
#     Edge 69, Type (0, 0), BuildingBlock: EZIPEK_clean_linker_0, # of connection points: 2
#     Edge 70, Type (0, 0), BuildingBlock: EZIPEK_clean_linker_0, # of connection points: 2
#     Edge 71, Type (0, 0), BuildingBlock: EZIPEK_clean_linker_0, # of connection points: 2
#     Edge 72, Type (0, 0), BuildingBlock: EZIPEK_clean_linker_0, # of connection points: 2
#     Edge 73, Type (0, 0), BuildingBlock: EZIPEK_clean_linker_0, # of connection points: 2
#     Edge 74, Type (0, 0), BuildingBlock: EZIPEK_clean_linker_0, # of connection points: 2
#     Edge 75, Type (0, 0), BuildingBlock: EZIPEK_clean_linker_0, # of connection points: 2
#     Edge 76, Type (0, 0), BuildingBlock: EZIPEK_clean_linker_0, # of connection points: 2
#     Edge 77, Type (0, 0), BuildingBlock: EZIPEK_clean_linker_0, # of connection points: 2
#     Edge 78, Type (0, 0), BuildingBlock: EZIPEK_clean_linker_0, # of connection points: 2
#     Edge 79, Type (0, 0), BuildingBlock: EZIPEK_clean_linker_0, # of connection points: 2
#     Edge 80, Type (0, 0), BuildingBlock: EZIPEK_clean_linker_0, # of connection points: 2
#     Edge 81, Type (0, 0), BuildingBlock: EZIPEK_clean_linker_0, # of connection points: 2
#     Edge 82, Type (0, 0), BuildingBlock: EZIPEK_clean_linker_0, # of connection points: 2
#     Edge 83, Type (0, 0), BuildingBlock: EZIPEK_clean_linker_0, # of connection points: 2
#     Edge 84, Type (0, 0), BuildingBlock: EZIPEK_clean_linker_0, # of connection points: 2
#     Edge 85, Type (0, 0), BuildingBlock: EZIPEK_clean_linker_0, # of connection points: 2
#     Edge 86, Type (0, 0), BuildingBlock: EZIPEK_clean_linker_0, # of connection points: 2
#     Edge 87, Type (0, 0), BuildingBlock: EZIPEK_clean_linker_0, # of connection points: 2
#     Edge 88, Type (0, 0), BuildingBlock: EZIPEK_clean_linker_0, # of connection points: 2
#     Edge 89, Type (0, 0), BuildingBlock: EZIPEK_clean_linker_0, # of connection points: 2
#     Edge 90, Type (0, 0), BuildingBlock: EZIPEK_clean_linker_0, # of connection points: 2
#     Edge 91, Type (0, 0), BuildingBlock: EZIPEK_clean_linker_0, # of connection points: 2
#     Edge 92, Type (0, 0), BuildingBlock: EZIPEK_clean_linker_0, # of connection points: 2
#     Edge 93, Type (0, 0), BuildingBlock: EZIPEK_clean_linker_0, # of connection points: 2
#     Edge 94, Type (0, 0), BuildingBlock: EZIPEK_clean_linker_0, # of connection points: 2
#     Edge 95, Type (0, 0), BuildingBlock: EZIPEK_clean_linker_0, # of connection points: 2
#     Edge 96, Type (0, 0), BuildingBlock: EZIPEK_clean_linker_0, # of connection points: 2
#     Edge 97, Type (0, 0), BuildingBlock: EZIPEK_clean_linker_0, # of connection points: 2
#     Edge 98, Type (0, 0), BuildingBlock: EZIPEK_clean_linker_0, # of connection points: 2
#     Edge 99, Type (0, 0), BuildingBlock: EZIPEK_clean_linker_0, # of connection points: 2
#     Edge 100, Type (0, 0), BuildingBlock: EZIPEK_clean_linker_0, # of connection points: 2
#     Edge 101, Type (0, 0), BuildingBlock: EZIPEK_clean_linker_0, # of connection points: 2
#     Edge 102, Type (0, 0), BuildingBlock: EZIPEK_clean_linker_0, # of connection points: 2
#     Edge 103, Type (0, 0), BuildingBlock: EZIPEK_clean_linker_0, # of connection points: 2
#     Edge 104, Type (0, 0), BuildingBlock: EZIPEK_clean_linker_0, # of connection points: 2
#     Edge 105, Type (0, 0), BuildingBlock: EZIPEK_clean_linker_0, # of connection points: 2
#     Edge 106, Type (0, 0), BuildingBlock: EZIPEK_clean_linker_0, # of connection points: 2
#     Edge 107, Type (0, 0), BuildingBlock: EZIPEK_clean_linker_0, # of connection points: 2
#     Edge 108, Type (0, 0), BuildingBlock: EZIPEK_clean_linker_0, # of connection points: 2
#     Edge 109, Type (0, 0), BuildingBlock: EZIPEK_clean_linker_0, # of connection points: 2
#     Edge 110, Type (0, 0), BuildingBlock: EZIPEK_clean_linker_0, # of connection points: 2
#     Edge 111, Type (0, 0), BuildingBlock: EZIPEK_clean_linker_0, # of connection points: 2
#     Edge 112, Type (0, 0), BuildingBlock: EZIPEK_clean_linker_0, # of connection points: 2
#     Edge 113, Type (0, 0), BuildingBlock: EZIPEK_clean_linker_0, # of connection points: 2
#     Edge 114, Type (0, 0), BuildingBlock: EZIPEK_clean_linker_0, # of connection points: 2
#     Edge 115, Type (0, 0), BuildingBlock: EZIPEK_clean_linker_0, # of connection points: 2
#     Edge 116, Type (0, 0), BuildingBlock: EZIPEK_clean_linker_0, # of connection points: 2
#     Edge 117, Type (0, 0), BuildingBlock: EZIPEK_clean_linker_0, # of connection points: 2
#     Edge 118, Type (0, 0), BuildingBlock: EZIPEK_clean_linker_0, # of connection points: 2
#     Edge 119, Type (0, 0), BuildingBlock: EZIPEK_clean_linker_0, # of connection points: 2
#     Edge 120, Type (0, 0), BuildingBlock: EZIPEK_clean_linker_0, # of connection points: 2
#     Edge 121, Type (0, 0), BuildingBlock: EZIPEK_clean_linker_0, # of connection points: 2
#     Edge 122, Type (0, 0), BuildingBlock: EZIPEK_clean_linker_0, # of connection points: 2
#     Edge 123, Type (0, 0), BuildingBlock: EZIPEK_clean_linker_0, # of connection points: 2
#     Edge 124, Type (0, 0), BuildingBlock: EZIPEK_clean_linker_0, # of connection points: 2
#     Edge 125, Type (0, 0), BuildingBlock: EZIPEK_clean_linker_0, # of connection points: 2
# Relax obj value: 0.206
# Max RMSD: 0.162
# Mean RMSD: 0.162
data_MOF--net-wlu--node1-XOMCOT_clean_sbu_1--edge1-EZIPEK_clean_linker_0
_symmetry_space_group_name_H-M    P1
_symmetry_Int_Tables_number       1
_symmetry_cell_setting            triclinic
loop_
_symmetry_equiv_pos_as_xyz
'x, y, z'
_cell_length_a     52.498975
_cell_length_b     52.530331
_cell_length_c     39.412452
_cell_angle_alpha  89.945361
_cell_angle_beta   90.12386
_cell_angle_gamma 119.98419
loop_
_atom_site_label
_atom_site_type_symbol
_atom_site_fract_x
_atom_site_fract_y
_atom_site_fract_z
_atom_type_partial_charge
C0 C 0.23374 0.14646 0.10113 0.0
C1 C 0.21569 0.11653 0.09754 0.0
N2 N 0.23042 0.10633 0.0795 0.0
N3 N 0.25939 0.15478 0.08499 0.0
C4 C 0.25679 0.12977 0.07233 0.0
H5 H 0.22845 0.16131 0.11421 0.0
Co6 Co 0.29109 0.19258 0.08129 0.0
C7 C 0.30915 0.19879 1.00819 0.0
O8 O 0.3118 0.22501 1.00967 0.0
N9 N 0.32431 0.23086 0.07892 0.0
C10 C 0.37068 0.26631 0.06967 0.0
C11 C 0.35056 0.23702 0.0656 0.0
C12 C 0.32992 0.25657 0.09324 0.0
N13 N 0.35758 0.27843 0.0872 0.0
O14 O 0.31465 0.18057 0.10742 0.0
H15 H 0.35517 0.22104 0.05428 0.0
H16 H 0.31495 0.2594 0.10929 0.0
O17 O 0.3019 0.1828 0.03532 0.0
C18 C 0.31029 0.18288 0.13901 0.0
O19 O 0.29253 0.1927 0.14737 0.0
N20 N 0.26581 0.20384 0.0597 0.0
C21 C 0.22311 0.21567 0.0342 0.0
C22 C 0.22725 0.19381 1.01955 0.0
C23 C 0.24838 0.18791 0.03304 0.0
C24 C 0.25993 0.22322 0.07604 0.0
C25 C 0.23941 0.23025 0.06306 0.0
H26 H 0.25016 0.16991 1.02242 0.0
H27 H 0.26956 0.23188 0.10039 0.0
H28 H 0.27371 0.12871 0.0578 0.0
H29 H 0.19352 0.10331 0.10709 0.0
H30 H 0.39342 0.27763 0.06159 0.0
H31 H 0.21404 0.1812 0.9981 0.0
H32 H 0.23549 0.2461 0.07614 0.0
C33 C 0.86459 0.10223 0.09041 0.0
C34 C 0.89485 0.11648 0.08811 0.0
N35 N 0.90385 0.14246 0.07276 0.0
N36 N 0.85473 0.11912 0.07626 0.0
C37 C 0.8793 0.14362 0.06594 0.0
H38 H 0.8506 0.08076 0.10136 0.0
Co39 Co 0.81535 0.10924 0.07255 0.0
C40 C 0.83238 0.15727 1.01893 0.0
O41 O 0.84248 0.17951 0.04014 0.0
N42 N 0.77571 0.09923 0.06856 0.0
C43 C 0.73248 0.08906 0.04652 0.0
C44 C 0.76193 0.10091 0.04025 0.0
C45 C 0.75389 0.08574 0.09156 0.0
N46 N 0.72754 0.07954 0.0787 0.0
O47 O 0.82324 0.14256 0.10142 0.0
H48 H 0.77195 0.10842 1.01571 0.0
H49 H 0.75688 0.07887 0.11641 0.0
O50 O 0.82321 0.1313 0.02999 0.0
C51 C 0.82216 0.13554 0.13283 0.0
O52 O 0.81584 0.1086 0.14017 0.0
N53 N 0.80703 0.07519 0.04835 0.0
C54 C 0.794 0.02094 1.02137 0.0
C55 C 0.81159 0.04697 1.00325 0.0
C56 C 0.818 0.07408 1.01731 0.0
C57 C 0.79007 0.05005 0.06621 0.0
C58 C 0.78307 0.02267 0.05308 0.0
H59 H 0.83235 0.09406 1.00369 0.0
H60 H 0.78239 0.05133 0.09124 0.0
H61 H 0.87948 0.16201 0.05355 0.0
H62 H 0.90911 0.10839 0.09665 0.0
H63 H 0.71568 0.08596 0.02833 0.0
H64 H 0.82072 0.04633 0.97886 0.0
H65 H 0.76976 0.00302 0.06788 0.0
C66 C 0.91454 0.76706 0.08011 0.0
C67 C 0.9022 0.78473 0.07701 0.0
N68 N 0.87593 0.76893 0.06172 0.0
N69 N 0.89616 0.74049 0.06641 0.0
C70 C 0.87266 0.74222 0.05569 0.0
H71 H 0.93547 0.77309 0.09176 0.0
Co72 Co 0.90172 0.70834 0.06541 0.0
C73 C 0.88757 0.68667 0.99365 0.0
O74 O 0.91166 0.68488 0.99432 0.0
N75 N 0.90659 0.67504 0.06577 0.0
C76 C 0.89502 0.62814 0.06084 0.0
C77 C 0.88588 0.64811 0.05494 0.0
C78 C 0.92727 0.67031 0.0803 0.0
N79 N 0.92098 0.64219 0.07708 0.0
O80 O 0.86669 0.68669 0.09247 0.0
H81 H 0.86472 0.64296 0.04473 0.0
H82 H 0.94591 0.68642 0.09456 0.0
O83 O 0.87974 0.69498 1.02059 0.0
C84 C 0.87424 0.69127 0.1238 0.0
O85 O 0.90227 0.7077 0.13129 0.0
N86 N 0.93785 0.73177 0.04304 0.0
C87 C 0.99321 0.77371 1.0199 0.0
C88 C 0.96818 0.76677 1.00072 0.0
C89 C 0.94059 0.74627 1.0132 0.0
C90 C 0.96208 0.73971 0.06271 0.0
C91 C 0.99011 0.76009 0.05127 0.0
H92 H 0.92155 0.74344 0.99971 0.0
H93 H 0.95957 0.73203 0.0885 0.0
H94 H 0.85342 0.72426 0.04394 0.0
H95 H 0.91157 0.80728 0.0854 0.0
H96 H 0.88288 0.60483 0.05537 0.0
H97 H 0.96989 0.77811 0.97713 0.0
H98 H 0.00903 0.76628 0.06745 0.0
C99 C 0.14329 0.2284 0.45247 0.0
C100 C 0.11313 0.21194 0.45465 0.0
N101 N 0.10396 0.22704 0.47366 0.0
N102 N 0.1528 0.25356 0.47016 0.0
C103 C 0.12825 0.25221 0.48261 0.0
H104 H 0.15752 0.22222 0.43949 0.0
Co105 Co 0.19197 0.28176 0.47608 0.0
C106 C 0.18657 0.29746 0.55013 0.0
O107 O 0.19706 0.28145 0.56268 0.0
N108 N 0.23205 0.31061 0.48117 0.0
C109 C 0.27736 0.33741 0.50209 0.0
C110 C 0.24876 0.31746 0.50957 0.0
C111 C 0.25138 0.32688 0.45659 0.0
N112 N 0.27898 0.34325 0.46882 0.0
O113 O 0.18559 0.30787 0.44661 0.0
H114 H 0.24157 0.30738 0.53394 0.0
H115 H 0.24575 0.32586 0.43004 0.0
O116 O 0.18274 0.29809 0.51785 0.0
C117 C 0.18539 0.30142 0.41519 0.0
O118 O 0.19136 0.28067 0.40725 0.0
N119 N 0.1977 0.25411 0.50076 0.0
C120 C 0.20597 0.21 0.52823 0.0
C121 C 0.18157 0.21234 0.5376 0.0
C122 C 0.17746 0.23422 0.52293 0.0
C123 C 0.22053 0.2507 0.48999 0.0
C124 C 0.22542 0.22915 0.50393 0.0
H125 H 0.15818 0.23544 0.52978 0.0
H126 H 0.23487 0.26442 0.46997 0.0
H127 H 0.12813 0.26885 0.49865 0.0
H128 H 0.09907 0.19037 0.44391 0.0
H129 H 0.29583 0.34633 0.51948 0.0
H130 H 0.16576 0.19723 0.55574 0.0
H131 H 0.24396 0.22715 0.49546 0.0
C132 C 0.76654 0.90721 0.45509 0.0
C133 C 0.78207 0.89249 0.45333 0.0
N134 N 0.76468 0.86509 0.46511 0.0
N135 N 0.73976 0.88927 0.46856 0.0
C136 C 0.73902 0.86345 0.47338 0.0
H137 H 0.77451 0.92983 0.44789 0.0
Co138 Co 0.71058 0.89906 0.47662 0.0
C139 C 0.70585 0.86531 0.5447 0.0
O140 O 0.73117 0.86605 0.54343 0.0
N141 N 0.68114 0.90883 0.48433 0.0
C142 C 0.65299 0.92326 0.51069 0.0
C143 C 0.67163 0.91225 0.51498 0.0
C144 C 0.66793 0.91798 0.46182 0.0
N145 N 0.65077 0.92686 0.47729 0.0
O146 O 0.68351 0.8656 0.4488 0.0
H147 H 0.67901 0.90861 0.53919 0.0
H148 H 0.67234 0.92002 0.43495 0.0
O149 O 0.69778 0.87617 0.52046 0.0
C150 C 0.68997 0.87179 0.4173 0.0
O151 O 0.71169 0.89811 0.40966 0.0
N152 N 0.73812 0.9338 0.49934 0.0
C153 C 0.77962 0.98843 0.5252 0.0
C154 C 0.77883 0.9628 0.53656 0.0
C155 C 0.75801 0.93566 0.52301 0.0
C156 C 0.74 0.95891 0.48672 0.0
C157 C 0.76002 0.98638 0.49992 0.0
H158 H 0.75904 0.91655 0.53031 0.0
H159 H 0.72637 0.95779 0.46562 0.0
H160 H 0.7204 0.84404 0.48387 0.0
H161 H 0.80469 0.90147 0.44541 0.0
H162 H 0.64274 0.92928 0.53052 0.0
H163 H 0.79449 0.96387 0.55525 0.0
H164 H 0.7608 0.00594 0.48979 0.0
C165 C 0.09766 0.86281 0.47305 0.0
C166 C 0.11259 0.89299 0.47573 0.0
N167 N 0.14129 0.90199 0.47993 0.0
N168 N 0.11689 0.85295 0.47633 0.0
C169 C 0.1434 0.87752 0.47897 0.0
H170 H 0.07411 0.84896 0.47045 0.0
Co171 Co 0.10878 0.81405 0.47868 0.0
C172 C 0.15077 0.83759 0.54376 0.0
O173 O 0.16943 0.8653 0.53729 0.0
N174 N 0.10043 0.77506 0.48067 0.0
C175 C 0.08985 0.73102 0.50002 0.0
C176 C 0.10114 0.76009 0.50827 0.0
C177 C 0.08841 0.75453 0.456 0.0
N178 N 0.08181 0.72767 0.46726 0.0
O179 O 0.14267 0.82429 0.45022 0.0
H180 H 0.1075 0.76904 0.53351 0.0
H181 H 0.0829 0.75877 0.43095 0.0
O182 O 0.13081 0.82152 0.52219 0.0
C183 C 0.13521 0.82374 0.41908 0.0
O184 O 0.10783 0.81627 0.41229 0.0
N185 N 0.07408 0.80344 0.50254 0.0
C186 C 0.0192 0.79055 0.52682 0.0
C187 C 0.04454 0.80737 0.54638 0.0
C188 C 0.072 0.81367 0.53369 0.0
C189 C 0.04951 0.78669 0.48361 0.0
C190 C 0.0218 0.77978 0.49539 0.0
H191 H 0.09151 0.82791 0.54811 0.0
H192 H 0.05157 0.77964 0.45852 0.0
H193 H 0.16395 0.87758 0.48075 0.0
H194 H 0.103 0.90705 0.47675 0.0
H195 H 0.08606 0.71336 0.51718 0.0
H196 H 0.04316 0.81629 0.57063 0.0
H197 H 0.00263 0.76698 0.47959 0.0
C198 C 0.7704 0.86852 0.95662 0.0
C199 C 0.78443 0.89868 0.95949 0.0
N200 N 0.76713 0.90557 0.9778 0.0
N201 N 0.74452 0.85658 0.97327 0.0
C202 C 0.74306 0.87979 0.98579 0.0
H203 H 0.77856 0.85598 0.94345 0.0
Co204 Co 0.71743 0.81646 0.97667 0.0
C205 C 0.70206 0.81863 0.05181 0.0
O206 O 0.71889 0.8086 0.06303 0.0
N207 N 0.68936 0.77546 0.97966 0.0
C208 C 0.66463 0.72957 0.99952 0.0
C209 C 0.68385 0.75828 1.00742 0.0
C210 C 0.67288 0.75615 0.95494 0.0
N211 N 0.65782 0.72816 0.96656 0.0
O212 O 0.69057 0.82286 0.94884 0.0
H213 H 0.69447 0.76534 0.03156 0.0
H214 H 0.67267 0.76216 0.92874 0.0
O215 O 0.70082 0.82311 1.01982 0.0
C216 C 0.69691 0.82307 0.91739 0.0
O217 O 0.71755 0.81693 0.90941 0.0
N218 N 0.7461 0.81067 0.99923 0.0
C219 C 0.79106 0.80152 1.02252 0.0
C220 C 0.78844 0.82509 0.03488 0.0
C221 C 0.7661 0.82969 1.02229 0.0
C222 C 0.7499 0.78893 0.98549 0.0
C223 C 0.77176 0.78355 0.99731 0.0
H224 H 0.76475 0.84845 0.03121 0.0
H225 H 0.73621 0.77584 0.96467 0.0
H226 H 0.72491 0.87792 1.00067 0.0
H227 H 0.80573 0.91435 0.94927 0.0
H228 H 0.65693 0.71089 1.01641 0.0
H229 H 0.80371 0.83992 0.05369 0.0
H230 H 0.77394 0.7658 0.98642 0.0
C231 C 0.141 0.90818 0.95673 0.0
C232 C 0.11098 0.89047 0.95934 0.0
N233 N 0.10566 0.86629 0.97677 0.0
N234 N 0.15419 0.89509 0.97269 0.0
C235 C 0.13206 0.86949 0.98451 0.0
H236 H 0.15257 0.9294 0.94442 0.0
Co237 Co 0.1942 0.9101 0.97714 0.0
C238 C 0.19408 0.89256 0.05165 0.0
O239 O 0.2056 0.91962 0.06263 0.0
N240 N 0.23537 0.92543 0.98113 0.0
C241 C 0.28175 0.94979 0.99967 0.0
C242 C 0.25315 0.94113 1.00723 0.0
C243 C 0.25415 0.92527 0.95773 0.0
N244 N 0.28231 0.93983 0.96859 0.0
O245 O 0.1902 0.87777 0.94906 0.0
H246 H 0.24656 0.94813 0.02945 0.0
H247 H 0.24772 0.91589 0.93269 0.0
O248 O 0.18822 0.88657 1.01989 0.0
C249 C 0.18857 0.88269 0.91747 0.0
O250 O 0.19267 0.9086 0.9086 0.0
N251 N 0.19694 0.94277 1.00036 0.0
C252 C 0.20149 0.99375 0.02727 0.0
C253 C 0.17967 0.96623 0.03887 0.0
C254 C 0.17737 0.94086 1.02453 0.0
C255 C 0.21656 0.96946 0.98696 0.0
C256 C 0.21971 0.99531 1.00062 0.0
H257 H 0.16012 0.91965 0.0331 0.0
H258 H 0.23005 0.97076 0.96559 0.0
H259 H 0.1351 0.85366 0.99893 0.0
H260 H 0.09436 0.8951 0.94981 0.0
H261 H 0.30086 0.96322 1.01526 0.0
H262 H 0.1647 0.96444 0.05882 0.0
H263 H 0.23617 0.01634 0.99046 0.0
C264 C 0.09665 0.24082 0.96363 0.0
C265 C 0.11058 0.22471 0.96843 0.0
N266 N 0.13737 0.24281 0.98147 0.0
N267 N 0.11458 0.26872 0.97408 0.0
C268 C 0.1394 0.26926 0.98433 0.0
H269 H 0.07451 0.23254 0.95424 0.0
Co270 Co 0.10562 0.29883 0.97625 0.0
C271 C 0.15389 0.32963 0.03102 0.0
O272 O 0.17692 0.34262 1.01105 0.0
N273 N 0.09669 0.32929 0.97878 0.0
C274 C 0.08676 0.36264 1.00006 0.0
C275 C 0.09766 0.34434 1.00707 0.0
C276 C 0.08465 0.33863 0.95493 0.0
N277 N 0.07847 0.35892 0.96738 0.0
O278 O 0.13868 0.32253 0.94636 0.0
H279 H 0.10376 0.34085 0.03206 0.0
H280 H 0.07874 0.32939 0.92968 0.0
O281 O 0.12828 0.31364 1.01847 0.0
C282 C 0.13105 0.31457 0.91546 0.0
O283 O 0.10395 0.29365 0.90933 0.0
N284 N 0.07184 0.27442 1.00167 0.0
C285 C 0.01851 0.23245 0.02986 0.0
C286 C 0.04516 0.23996 0.04611 0.0
C287 C 0.07175 0.26113 0.03156 0.0
C288 C 0.04606 0.2674 0.98576 0.0
C289 C 0.01913 0.24675 0.99963 0.0
H290 H 0.09219 0.26577 0.04347 0.0
H291 H 0.04643 0.27716 0.96148 0.0
H292 H 0.15843 0.28835 0.9945 0.0
H293 H 0.10151 0.20146 0.96378 0.0
H294 H 0.08304 0.37595 1.01815 0.0
H295 H 0.0454 0.22896 0.06927 0.0
H296 H 0.99895 0.24118 0.98626 0.0
C297 C 0.86334 0.76725 0.57649 0.0
C298 C 0.89364 0.78252 0.57532 0.0
N299 N 0.9024 0.76528 0.56011 0.0
N300 N 0.85321 0.74063 0.562 0.0
C301 C 0.87763 0.74009 0.55236 0.0
H302 H 0.84951 0.77488 0.58753 0.0
Co303 Co 0.81381 0.71129 0.55969 0.0
C304 C 0.82921 0.67796 0.5084 0.0
O305 O 0.83961 0.66687 0.53071 0.0
N306 N 0.7741 0.68179 0.55734 0.0
C307 C 0.72995 0.64982 0.53662 0.0
C308 C 0.75899 0.66826 0.52881 0.0
C309 C 0.7536 0.67139 0.58217 0.0
N310 N 0.72666 0.65191 0.57007 0.0
O311 O 0.82239 0.68699 0.58899 0.0
H312 H 0.76807 0.67234 0.5035 0.0
H313 H 0.75805 0.67865 0.60829 0.0
O314 O 0.82048 0.69552 0.51785 0.0
C315 C 0.82312 0.69436 0.62012 0.0
O316 O 0.81724 0.71528 0.62741 0.0
N317 N 0.80522 0.7362 0.53445 0.0
C318 C 0.79265 0.77696 0.50539 0.0
C319 C 0.81125 0.76902 0.48877 0.0
C320 C 0.81735 0.74847 0.50384 0.0
C321 C 0.78716 0.7438 0.55081 0.0
C322 C 0.78032 0.76392 0.53656 0.0
H323 H 0.83254 0.74323 0.49154 0.0
H324 H 0.77853 0.73464 0.57554 0.0
H325 H 0.87756 0.7216 0.54041 0.0
H326 H 0.90813 0.80446 0.58485 0.0
H327 H 0.71236 0.63664 0.51902 0.0
H328 H 0.82152 0.77919 0.46492 0.0
H329 H 0.76625 0.76996 0.55023 0.0
C330 C 0.24099 0.09036 0.59816 0.0
C331 C 0.22267 0.10195 0.59471 0.0
N332 N 0.23739 0.12723 0.57729 0.0
N333 N 0.26678 0.10827 0.58262 0.0
C334 C 0.26401 0.1307 0.57038 0.0
H335 H 0.23587 0.07014 0.61098 0.0
Co336 Co 0.29899 0.10309 0.58005 0.0
C337 C 0.32011 0.11686 0.50826 0.0
O338 O 0.32496 0.09468 0.51054 0.0
N339 N 0.3327 0.09884 0.57904 0.0
C340 C 0.37993 0.11147 0.57326 0.0
C341 C 0.35964 0.12049 0.56924 0.0
C342 C 0.33775 0.07757 0.59087 0.0
N343 N 0.36599 0.08452 0.58702 0.0
O344 O 0.32097 0.13822 0.60725 0.0
H345 H 0.36438 0.14182 0.56009 0.0
H346 H 0.32181 0.05779 0.60342 0.0
O347 O 0.31096 0.12454 0.53469 0.0
C348 C 0.31633 0.13091 0.63865 0.0
O349 O 0.29998 0.10294 0.64631 0.0
N350 N 0.27496 0.06709 0.55709 0.0
C351 C 0.23224 0.01327 0.53025 0.0
C352 C 0.23752 0.0396 0.51541 0.0
C353 C 0.25865 0.06625 0.5295 0.0
C354 C 0.26802 0.04154 0.57346 0.0
C355 C 0.24761 0.01432 0.55976 0.0
H356 H 0.26099 0.08624 0.5188 0.0
H357 H 0.27642 0.0421 0.59853 0.0
H358 H 0.28105 0.14916 0.55656 0.0
H359 H 0.2004 0.09265 0.60403 0.0
H360 H 0.40319 0.12393 0.56754 0.0
H361 H 0.22494 0.03955 0.49356 0.0
H362 H 0.24264 0.99431 0.57309 0.0
C363 C 0.9025 0.1381 0.60137 0.0
C364 C 0.88574 0.1081 0.59795 0.0
N365 N 0.86458 0.10241 0.57501 0.0
N366 N 0.89192 0.1511 0.58059 0.0
C367 C 0.86868 0.12871 0.5648 0.0
H368 H 0.92162 0.14982 0.61747 0.0
Co369 Co 0.90924 0.19156 0.57631 0.0
C370 C 0.89483 0.1998 0.50362 0.0
O371 O 0.92256 0.21901 0.49828 0.0
N372 N 0.92774 0.2336 0.57299 0.0
C373 C 0.95981 0.28072 0.56137 0.0
C374 C 0.95196 0.2522 0.55477 0.0
C375 C 0.92143 0.25204 0.59049 0.0
N376 N 0.94077 0.28058 0.58394 0.0
O377 O 0.87803 0.18998 0.60415 0.0
H378 H 0.96394 0.24597 0.53769 0.0
H379 H 0.90351 0.245 0.60825 0.0
O380 O 0.88667 0.18716 0.53283 0.0
C381 C 0.88343 0.18859 0.63565 0.0
O382 O 0.9089 0.19124 0.64392 0.0
N383 N 0.94044 0.19156 0.55375 0.0
C384 C 0.99045 0.19519 0.52573 0.0
C385 C 0.96312 0.17835 0.50981 0.0
C386 C 0.93804 0.1762 0.52488 0.0
C387 C 0.96618 0.20476 0.57154 0.0
C388 C 0.99176 0.20757 0.55751 0.0
H389 H 0.91676 0.16229 0.51356 0.0
H390 H 0.96708 0.21454 0.59599 0.0
H391 H 0.85531 0.13148 0.54585 0.0
H392 H 0.88903 0.09173 0.61075 0.0
H393 H 0.97841 0.3002 0.5509 0.0
H394 H 0.96134 0.16737 0.48594 0.0
H395 H 0.01245 0.21982 0.57093 0.0
C396 C 0.90458 0.4782 0.43021 0.0
C397 C 0.8899 0.44794 0.42934 0.0
N398 N 0.90593 0.4397 0.41063 0.0
N399 N 0.92955 0.48876 0.41193 0.0
C400 C 0.92982 0.46469 0.4004 0.0
H401 H 0.89724 0.49174 0.44266 0.0
Co402 Co 0.956 0.52828 0.40388 0.0
C403 C 0.99415 0.52813 0.34737 0.0
O404 O 0.01761 0.5472 0.36424 0.0
N405 N 0.98249 0.56841 0.39586 0.0
C406 C 0.00557 0.61259 0.37138 0.0
C407 C 0.98637 0.58319 0.36641 0.0
C408 C 0.99936 0.58949 0.41848 0.0
N409 N 0.01362 0.61638 0.40412 0.0
O410 O 0.98498 0.52509 0.43199 0.0
H411 H 0.97489 0.57361 0.3431 0.0
H412 H 1.00027 0.58553 0.44514 0.0
O413 O 0.9688 0.51794 0.36103 0.0
C414 C 0.97878 0.52419 0.46365 0.0
O415 O 0.95609 0.52697 0.47211 0.0
N416 N 0.92655 0.53133 0.3805 0.0
C417 C 0.88171 0.53782 0.35176 0.0
C418 C 0.88847 0.51708 0.33873 0.0
C419 C 0.91081 0.51384 0.35389 0.0
C420 C 0.91943 0.5508 0.39415 0.0
C421 C 0.89729 0.55465 0.3799 0.0
H422 H 0.91535 0.49721 0.34442 0.0
H423 H 0.93112 0.56348 0.41627 0.0
H424 H 0.94675 0.46535 0.3842 0.0
H425 H 0.86883 0.43314 0.44072 0.0
H426 H 0.0121 0.63002 0.35291 0.0
H427 H 0.8764 0.50339 0.31733 0.0
H428 H 0.89228 0.57059 0.39077 0.0
C429 C 0.53009 0.43367 0.42324 0.0
C430 C 0.56011 0.44793 0.41825 0.0
N431 N 0.56742 0.47156 0.39863 0.0
N432 N 0.51888 0.44839 0.40673 0.0
C433 C 0.54221 0.47145 0.39207 0.0
H434 H 0.51728 0.41405 0.4382 0.0
Co435 Co 0.48019 0.44016 0.40647 0.0
C436 C 0.46871 0.45097 0.33478 0.0
O437 O 0.44256 0.42755 0.33809 0.0
N438 N 0.44114 0.43323 0.40706 0.0
C439 C 0.40499 0.4437 0.4015 0.0
C440 C 0.43444 0.45389 0.3971 0.0
C441 C 0.41539 0.41123 0.41928 0.0
N442 N 0.39318 0.41697 0.41569 0.0
O443 O 0.49205 0.47556 0.43286 0.0
H444 H 0.45019 0.47541 0.38763 0.0
H445 H 0.41263 0.39175 0.43171 0.0
O446 O 0.48643 0.45995 0.36046 0.0
C447 C 0.49085 0.46821 0.46417 0.0
O448 O 0.48218 0.44064 0.47137 0.0
N449 N 0.4693 0.40378 0.38536 0.0
C450 C 0.45765 0.34879 0.36202 0.0
C451 C 0.47638 0.37428 0.34388 0.0
C452 C 0.48245 0.40167 0.35642 0.0
C453 C 0.45326 0.37933 0.40471 0.0
C454 C 0.44631 0.35148 0.39303 0.0
H455 H 0.49846 0.42122 0.34329 0.0
H456 H 0.44729 0.38149 0.43024 0.0
H457 H 0.54094 0.48816 0.37731 0.0
H458 H 0.57536 0.44159 0.42821 0.0
H459 H 0.39332 0.45535 0.39598 0.0
H460 H 0.48668 0.37306 0.32062 0.0
H461 H 0.43314 0.33234 0.40864 0.0
C462 C 0.57219 0.09678 0.42691 0.0
C463 C 0.55827 0.11311 0.42523 0.0
N464 N 0.53324 0.09754 0.40748 0.0
N465 N 0.55603 0.07129 0.40994 0.0
C466 C 0.53228 0.07232 0.39858 0.0
H467 H 0.59284 0.10306 0.43948 0.0
Co468 Co 0.56493 0.04133 0.40525 0.0
C469 C 0.55202 0.02626 0.33159 0.0
O470 O 0.57878 0.0304 0.32918 0.0
N471 N 0.57311 0.01005 0.40233 0.0
C472 C 0.57033 0.96702 0.39118 0.0
C473 C 0.55976 0.98544 0.38299 0.0
C474 C 0.59014 0.00479 0.42381 0.0
N475 N 0.58948 0.97934 0.4168 0.0
O476 O 0.53071 0.016 0.43232 0.0
H477 H 0.54222 0.98 0.36519 0.0
H478 H 0.60203 0.01873 0.44507 0.0
O479 O 0.54244 0.02889 0.36075 0.0
C480 C 0.5372 0.0214 0.46386 0.0
O481 O 0.56414 0.04162 0.47196 0.0
N482 N 0.60047 0.06816 0.38225 0.0
C483 C 0.65364 0.11096 0.35407 0.0
C484 C 0.62702 0.10814 0.34304 0.0
C485 C 0.60071 0.08694 0.35793 0.0
C486 C 0.62655 0.0718 0.39412 0.0
C487 C 0.65329 0.09262 0.37995 0.0
H488 H 0.58049 0.086 0.35045 0.0
H489 H 0.62719 0.05974 0.41574 0.0
H490 H 0.5146 0.05498 0.38408 0.0
H491 H 0.56586 0.13467 0.43602 0.0
H492 H 0.5637 0.94573 0.38014 0.0
H493 H 0.62667 0.12277 0.32389 0.0
H494 H 0.67366 0.09515 0.39001 0.0
C495 C 0.78869 0.60702 0.78247 0.0
C496 C 0.76043 0.59219 0.79435 0.0
N497 N 0.75997 0.57664 0.82147 0.0
N498 N 0.80634 0.60101 0.80202 0.0
C499 C 0.78776 0.582 0.82558 0.0
H500 H 0.79558 0.62222 0.76157 0.0
Co501 Co 0.84786 0.61875 0.79818 0.0
C502 C 0.85808 0.66656 0.85189 0.0
O503 O 0.87029 0.68949 0.8317 0.0
N504 N 0.8885 0.6356 0.79322 0.0
C505 C 0.92826 0.63847 0.76989 0.0
C506 C 0.8984 0.62195 0.77268 0.0
C507 C 0.91312 0.66016 0.80377 0.0
N508 N 0.93771 0.66258 0.78935 0.0
O509 O 0.84821 0.64786 0.76717 0.0
H510 H 0.88452 0.60129 0.75995 0.0
H511 H 0.91311 0.67611 0.82106 0.0
O512 O 0.85121 0.64151 0.83936 0.0
C513 C 0.84935 0.64192 0.73579 0.0
O514 O 0.85344 0.61987 0.72837 0.0
N515 N 0.8483 0.58948 0.82518 0.0
C516 C 0.85985 0.54789 0.85425 0.0
C517 C 0.86863 0.57469 0.87057 0.0
C518 C 0.86341 0.59553 0.85515 0.0
C519 C 0.83824 0.56291 0.80978 0.0
C520 C 0.84399 0.54179 0.82378 0.0
H521 H 0.87342 0.61715 0.86629 0.0
H522 H 0.82736 0.55886 0.78542 0.0
H523 H 0.79447 0.57301 0.84616 0.0
H524 H 0.74186 0.59369 0.78481 0.0
H525 H 0.94214 0.63329 0.75452 0.0
H526 H 0.88129 0.58025 0.89387 0.0
H527 H 0.83719 0.52142 0.81031 0.0
C528 C 0.43033 0.23712 0.80424 0.0
C529 C 0.44517 0.22179 0.80784 0.0
N530 N 0.42688 0.19588 0.82264 0.0
N531 N 0.40292 0.22094 0.81688 0.0
C532 C 0.40146 0.19581 0.82774 0.0
H533 H 0.43897 0.25873 0.79318 0.0
Co534 Co 0.37424 0.23211 0.81764 0.0
C535 C 0.34007 0.18486 0.87107 0.0
O536 O 0.32723 0.16266 0.84989 0.0
N537 N 0.34542 0.24351 0.81883 0.0
C538 C 0.3152 0.25797 0.8395 0.0
C539 C 0.333 0.24664 0.84743 0.0
C540 C 0.335 0.25352 0.79376 0.0
N541 N 0.31655 0.26235 0.80586 0.0
O542 O 0.34959 0.19906 0.78855 0.0
H543 H 0.33763 0.24242 0.87288 0.0
H544 H 0.34165 0.25543 0.76749 0.0
O545 O 0.35796 0.21055 0.86006 0.0
C546 C 0.35782 0.20648 0.75774 0.0
O547 O 0.37892 0.23348 0.75166 0.0
N548 N 0.39969 0.26585 0.84202 0.0
C549 C 0.44099 0.31973 0.86919 0.0
C550 C 0.43151 0.29381 0.8879 0.0
C551 C 0.41078 0.26683 0.87368 0.0
C552 C 0.40888 0.2909 0.8236 0.0
C553 C 0.42942 0.31814 0.8368 0.0
H554 H 0.40427 0.24683 0.88772 0.0
H555 H 0.40049 0.28959 0.79819 0.0
H556 H 0.38227 0.17767 0.83906 0.0
H557 H 0.46764 0.2291 0.80049 0.0
H558 H 0.30311 0.26373 0.85715 0.0
H559 H 0.44041 0.29444 0.9129 0.0
H560 H 0.43655 0.33779 0.82168 0.0
C561 C 0.76326 0.19036 0.78502 0.0
C562 C 0.77328 0.21997 0.78859 0.0
N563 N 0.79688 0.23118 0.80914 0.0
N564 N 0.78043 0.18318 0.80354 0.0
C565 C 0.80094 0.20864 0.81772 0.0
H566 H 0.74435 0.17488 0.77042 0.0
Co567 Co 0.77497 0.14554 0.80813 0.0
C568 C 0.78644 0.14209 0.88246 0.0
O569 O 0.76194 0.11657 0.88277 0.0
N570 N 0.77005 0.10721 0.81105 0.0
C571 C 0.77688 0.06945 0.82314 0.0
C572 C 0.78643 0.09862 0.82915 0.0
C573 C 0.75243 0.08326 0.792 0.0
N574 N 0.75543 0.05989 0.79979 0.0
O575 O 0.81096 0.15793 0.78311 0.0
H576 H 0.8049 0.11271 0.84504 0.0
H577 H 0.73861 0.08302 0.77155 0.0
O578 O 0.79543 0.15632 0.8542 0.0
C579 C 0.80476 0.15644 0.75144 0.0
O580 O 0.77722 0.14663 0.74271 0.0
N581 N 0.73801 0.13377 0.82882 0.0
C582 C 0.68286 0.12176 0.85183 0.0
C583 C 0.70841 0.14459 0.86618 0.0
C584 C 0.73577 0.15057 0.85386 0.0
C585 C 0.71306 0.11262 0.81337 0.0
C586 C 0.68525 0.10572 0.82503 0.0
H587 H 0.75522 0.16943 0.86383 0.0
H588 H 0.71427 0.10226 0.79053 0.0
H589 H 0.81827 0.21064 0.83437 0.0
H590 H 0.76391 0.23227 0.77735 0.0
H591 H 0.78557 0.05646 0.83418 0.0
H592 H 0.7072 0.15815 0.88609 0.0
H593 H 0.66578 0.08885 0.81234 0.0
C594 C 0.43314 0.19538 0.29949 0.0
C595 C 0.44847 0.22556 0.30275 0.0
N596 N 0.43071 0.23366 0.31794 0.0
N597 N 0.40602 0.1847 0.31285 0.0
C598 C 0.40517 0.20868 0.32361 0.0
H599 H 0.44131 0.18199 0.28849 0.0
Co600 Co 0.37713 0.14519 0.31535 0.0
C601 C 0.34521 0.16006 0.37007 0.0
O602 O 0.33167 0.16914 0.34951 0.0
N603 N 0.34803 0.10526 0.31817 0.0
C604 C 0.3186 0.06099 0.3403 0.0
C605 C 0.33676 0.09022 0.34737 0.0
C606 C 0.33656 0.08448 0.29362 0.0
N607 N 0.3186 0.05745 0.30659 0.0
O608 O 0.35182 0.15345 0.28724 0.0
H609 H 0.34258 0.09949 0.37257 0.0
H610 H 0.3423 0.08873 0.26706 0.0
O611 O 0.3624 0.15168 0.35823 0.0
C612 C 0.35809 0.15294 0.25592 0.0
O613 O 0.37814 0.14586 0.2484 0.0
N614 N 0.40309 0.1371 0.33919 0.0
C615 C 0.44538 0.12565 0.3661 0.0
C616 C 0.43777 0.14433 0.38317 0.0
C617 C 0.41643 0.14982 0.36921 0.0
C618 C 0.41045 0.11908 0.32228 0.0
C619 C 0.43131 0.11277 0.3355 0.0
H620 H 0.4114 0.16502 0.38188 0.0
H621 H 0.40046 0.11002 0.29797 0.0
H622 H 0.38642 0.20808 0.33557 0.0
H623 H 0.47094 0.24036 0.2951 0.0
H624 H 0.30735 0.04343 0.35853 0.0
H625 H 0.44864 0.15493 0.40665 0.0
H626 H 0.43698 0.09854 0.32154 0.0
C627 C 0.80643 0.2445 0.30108 0.0
C628 C 0.77616 0.22913 0.30185 0.0
N629 N 0.76751 0.20105 0.30968 0.0
N630 N 0.81669 0.22625 0.30916 0.0
C631 C 0.79234 0.19971 0.31308 0.0
H632 H 0.82012 0.26776 0.29613 0.0
Co633 Co 0.85625 0.23668 0.31358 0.0
C634 C 0.83213 0.19954 0.38157 0.0
O635 O 0.80401 0.19091 0.37999 0.0
N636 N 0.89582 0.24719 0.31811 0.0
C637 C 0.94005 0.26403 0.34137 0.0
C638 C 0.91109 0.25515 0.3476 0.0
C639 C 0.91595 0.25106 0.29435 0.0
N640 N 0.94302 0.26149 0.3079 0.0
O641 O 0.84912 0.20362 0.28415 0.0
H642 H 0.90197 0.25555 0.37206 0.0
H643 H 0.91122 0.24729 0.26764 0.0
O644 O 0.84949 0.21466 0.35732 0.0
C645 C 0.84641 0.20961 0.2531 0.0
O646 O 0.84763 0.23477 0.2468 0.0
N647 N 0.86397 0.27069 0.33763 0.0
C648 C 0.87683 0.32448 0.3655 0.0
C649 C 0.85625 0.29816 0.38104 0.0
C650 C 0.84996 0.27133 0.36648 0.0
C651 C 0.88365 0.2962 0.322 0.0
C652 C 0.89065 0.32338 0.3357 0.0
H653 H 0.83301 0.25125 0.37748 0.0
H654 H 0.89374 0.2954 0.29842 0.0
H655 H 0.7927 0.1799 0.31962 0.0
H656 H 0.76167 0.23807 0.29865 0.0
H657 H 0.95775 0.27236 0.35978 0.0
H658 H 0.8447 0.29839 0.40367 0.0
H659 H 0.90626 0.34339 0.32281 0.0
C660 C 0.76097 0.57027 0.27774 0.0
C661 C 0.77368 0.55286 0.2807 0.0
N662 N 0.79868 0.56793 0.29865 0.0
N663 N 0.77784 0.59588 0.29421 0.0
C664 C 0.80084 0.5939 0.30635 0.0
H665 H 0.74047 0.56446 0.26509 0.0
Co666 Co 0.77057 0.62695 0.29947 0.0
C667 C 0.78274 0.64077 0.37372 0.0
O668 O 0.75703 0.63928 0.37533 0.0
N669 N 0.7644 0.65954 0.30318 0.0
C670 C 0.7697 0.70335 0.31611 0.0
C671 C 0.77937 0.68392 0.3226 0.0
C672 C 0.74756 0.66612 0.28298 0.0
N673 N 0.74964 0.69203 0.2912 0.0
O674 O 0.80547 0.65134 0.27318 0.0
H675 H 0.79726 0.68834 0.3395 0.0
H676 H 0.73468 0.65276 0.26182 0.0
O677 O 0.7921 0.63728 0.34477 0.0
C678 C 0.79818 0.64678 0.24176 0.0
O679 O 0.77052 0.62866 0.23397 0.0
N680 N 0.7343 0.60085 0.32151 0.0
C681 C 0.68044 0.55809 0.34816 0.0
C682 C 0.70654 0.55951 0.35854 0.0
C683 C 0.7332 0.58089 0.34468 0.0
C684 C 0.70863 0.59845 0.30994 0.0
C685 C 0.68153 0.57773 0.32352 0.0
H686 H 0.75307 0.58109 0.35229 0.0
H687 H 0.70854 0.61147 0.28907 0.0
H688 H 0.81855 0.61084 0.32121 0.0
H689 H 0.76506 0.53075 0.27108 0.0
H690 H 0.77746 0.7246 0.32786 0.0
H691 H 0.70629 0.54406 0.37696 0.0
H692 H 0.6615 0.5764 0.31409 0.0
C693 C 0.53019 0.09828 0.91441 0.0
C694 C 0.56014 0.11421 0.9093 0.0
N695 N 0.56811 0.09668 0.89331 0.0
N696 N 0.51963 0.07106 0.90137 0.0
C697 C 0.54333 0.07073 0.88884 0.0
H698 H 0.51699 0.10587 0.92717 0.0
Co699 Co 0.48139 0.03991 0.90291 0.0
C700 C 0.46776 0.01586 0.83199 0.0
O701 O 0.44097 0.01113 0.83668 0.0
N702 N 0.44288 0.00734 0.90536 0.0
C703 C 0.40753 0.96016 0.9034 0.0
C704 C 0.43679 0.97967 0.89789 0.0
C705 C 0.41697 0.00374 0.91671 0.0
N706 N 0.39529 0.97544 0.91541 0.0
O707 O 0.49494 0.0169 0.9278 0.0
H708 H 0.4528 0.97398 0.88908 0.0
H709 H 0.41365 0.02093 0.92669 0.0
O710 O 0.48653 0.02637 0.85657 0.0
C711 C 0.49834 0.02472 0.95907 0.0
O712 O 0.49422 0.04656 0.96771 0.0
N713 N 0.46868 0.0645 0.88303 0.0
C714 C 0.45495 0.10714 0.86227 0.0
C715 C 0.47188 0.09969 0.84158 0.0
C716 C 0.4791 0.07878 0.85282 0.0
C717 C 0.45426 0.0734 0.90445 0.0
C718 C 0.44633 0.09397 0.89421 0.0
H719 H 0.4941 0.07504 0.83779 0.0
H720 H 0.45023 0.06569 0.93035 0.0
H721 H 0.54257 0.0517 0.87719 0.0
H722 H 0.57497 0.13666 0.91703 0.0
H723 H 0.39625 0.93658 0.89984 0.0
H724 H 0.48011 0.11053 0.81741 0.0
H725 H 0.43455 0.10038 0.91155 0.0
C726 C 0.9055 0.44173 0.94299 0.0
C727 C 0.89095 0.45731 0.93927 0.0
N728 N 0.89982 0.47245 0.90999 0.0
N729 N 0.92383 0.4475 0.91649 0.0
C730 C 0.91969 0.46617 0.89669 0.0
H731 H 0.90279 0.427 0.96361 0.0
Co732 Co 0.94765 0.43099 0.90989 0.0
C733 C 0.96448 0.446 0.83562 0.0
O734 O 0.95262 0.41811 0.82809 0.0
N735 N 0.97198 0.41351 0.90297 0.0
C736 C 0.98711 0.38263 0.88571 0.0
C737 C 0.96683 0.39137 0.88121 0.0
C738 C 0.9962 0.41776 0.92025 0.0
N739 N 0.00546 0.39907 0.91038 0.0
O740 O 0.97833 0.46307 0.93717 0.0
H741 H 0.94825 0.38023 0.86438 0.0
H742 H 0.00622 0.43329 0.94056 0.0
O743 O 0.96371 0.45403 0.86629 0.0
C744 C 0.97487 0.45778 0.96923 0.0
O745 O 0.95468 0.43149 0.97924 0.0
N746 N 0.91556 0.39874 0.88893 0.0
C747 C 0.87034 0.34642 0.86315 0.0
C748 C 0.87728 0.37323 0.84789 0.0
C749 C 0.89967 0.3994 0.86181 0.0
C750 C 0.9062 0.37323 0.90658 0.0
C751 C 0.88413 0.34661 0.8936 0.0
H752 H 0.90484 0.41997 0.85026 0.0
H753 H 0.91729 0.37339 0.92982 0.0
H754 H 0.93075 0.47494 0.87282 0.0
H755 H 0.87481 0.45723 0.95638 0.0
H756 H 0.9871 0.36412 0.87361 0.0
H757 H 0.8661 0.37379 0.82502 0.0
H758 H 0.87854 0.32629 0.90659 0.0
C759 C 0.56601 0.47418 0.93447 0.0
C760 C 0.55124 0.44397 0.93178 0.0
N761 N 0.52747 0.43585 0.91202 0.0
N762 N 0.55155 0.48486 0.91638 0.0
C763 C 0.5281 0.46092 0.90302 0.0
H764 H 0.58579 0.4875 0.94905 0.0
Co765 Co 0.56093 0.52397 0.91297 0.0
C766 C 0.55349 0.5327 0.83914 0.0
O767 O 0.57752 0.55845 0.84185 0.0
N768 N 0.56925 0.5637 0.91017 0.0
C769 C 0.55987 0.60019 0.9005 0.0
C770 C 0.54931 0.57052 0.89778 0.0
C771 C 0.59139 0.58986 0.92165 0.0
N772 N 0.58624 0.61225 0.91575 0.0
O773 O 0.52464 0.51386 0.93592 0.0
H774 H 0.52791 0.55468 0.88802 0.0
H775 H 0.61051 0.59282 0.93522 0.0
O776 O 0.5433 0.51623 0.86568 0.0
C777 C 0.53109 0.51601 0.96761 0.0
O778 O 0.55847 0.525 0.97633 0.0
N779 N 0.59792 0.53306 0.89597 0.0
C780 C 0.65277 0.53628 0.88595 0.0
C781 C 0.62916 0.52145 0.86288 0.0
C782 C 0.60181 0.51902 0.86914 0.0
C783 C 0.62028 0.54775 0.91839 0.0
C784 C 0.64793 0.55085 0.91311 0.0
H785 H 0.58336 0.50436 0.85348 0.0
H786 H 0.61618 0.55535 0.94204 0.0
H787 H 0.51154 0.46174 0.88741 0.0
H788 H 0.5573 0.42909 0.94347 0.0
H789 H 0.54857 0.61187 0.89325 0.0
H790 H 0.6312 0.51125 0.84006 0.0
H791 H 0.66459 0.56441 0.9311 0.0
C792 C 0.57471 0.80803 0.75283 0.0
C793 C 0.5599 0.77778 0.75251 0.0
N794 N 0.57856 0.76906 0.74156 0.0
N795 N 0.60246 0.81832 0.74154 0.0
C796 C 0.60431 0.79389 0.73595 0.0
H797 H 0.56554 0.82147 0.76059 0.0
Co798 Co 0.6321 0.85778 0.73676 0.0
C799 C 0.63934 0.83082 0.6708 0.0
O800 O 0.61081 0.81336 0.6676 0.0
N801 N 0.66151 0.89706 0.73238 0.0
C802 C 0.69206 0.94041 0.70913 0.0
C803 C 0.67357 0.91107 0.70291 0.0
C804 C 0.67308 0.91839 0.75625 0.0
N805 N 0.69172 0.94496 0.74263 0.0
O806 O 0.6564 0.85031 0.76781 0.0
H807 H 0.66858 0.90091 0.67813 0.0
H808 H 0.66729 0.91478 0.78285 0.0
O809 O 0.64875 0.84833 0.69635 0.0
C810 C 0.64871 0.85048 0.79865 0.0
O811 O 0.62762 0.85644 0.80458 0.0
N812 N 0.6071 0.86612 0.71057 0.0
C813 C 0.56531 0.87884 0.68456 0.0
C814 C 0.58195 0.87183 0.66274 0.0
C815 C 0.60345 0.86637 0.67622 0.0
C816 C 0.59232 0.8747 0.73176 0.0
C817 C 0.57128 0.88111 0.71936 0.0
H818 H 0.61716 0.86303 0.65876 0.0
H819 H 0.59656 0.87599 0.75876 0.0
H820 H 0.62389 0.79417 0.7269 0.0
H821 H 0.53696 0.76329 0.7586 0.0
H822 H 0.70446 0.95728 0.6905 0.0
H823 H 0.5785 0.87084 0.63556 0.0
H824 H 0.55928 0.88711 0.73686 0.0
C825 C 0.19352 0.76264 0.76854 0.0
C826 C 0.22358 0.77575 0.76499 0.0
N827 N 0.2326 0.79975 0.74546 0.0
N828 N 0.18386 0.77831 0.75111 0.0
C829 C 0.20826 0.80097 0.7375 0.0
H830 H 0.1795 0.74288 0.78274 0.0
Co831 Co 0.14501 0.76974 0.74837 0.0
C832 C 0.14001 0.78132 0.67422 0.0
O833 O 0.1167 0.75493 0.6724 0.0
N834 N 0.10522 0.76158 0.74756 0.0
C835 C 0.06342 0.76079 0.73483 0.0
C836 C 0.09275 0.77325 0.72747 0.0
C837 C 0.08323 0.74424 0.76926 0.0
N838 N 0.05721 0.74222 0.76104 0.0
O839 O 0.15578 0.805 0.77388 0.0
H840 H 0.10396 0.79024 0.70885 0.0
H841 H 0.08613 0.73316 0.79081 0.0
O842 O 0.15329 0.79069 0.70298 0.0
C843 C 0.15497 0.79952 0.80566 0.0
O844 O 0.14591 0.77235 0.81523 0.0
N845 N 0.13518 0.73357 0.72662 0.0
C846 C 0.12488 0.67958 0.70114 0.0
C847 C 0.14727 0.7059 0.68762 0.0
C848 C 0.1523 0.73265 0.70102 0.0
C849 C 0.11454 0.70796 0.74127 0.0
C850 C 0.10843 0.68073 0.72834 0.0
H851 H 0.1706 0.75271 0.69139 0.0
H852 H 0.10376 0.70828 0.76421 0.0
H853 H 0.20827 0.81796 0.72193 0.0
H854 H 0.2377 0.76824 0.7756 0.0
H855 H 0.04777 0.765 0.72167 0.0
H856 H 0.16107 0.70575 0.66732 0.0
H857 H 0.09176 0.66073 0.7403 0.0
C858 C 0.23686 0.43542 0.74937 0.0
C859 C 0.22021 0.44904 0.7479 0.0
N860 N 0.1929 0.42906 0.73769 0.0
N861 N 0.22019 0.40714 0.73955 0.0
C862 C 0.19325 0.40374 0.7338 0.0
H863 H 0.25985 0.44567 0.75626 0.0
Co864 Co 0.23157 0.37862 0.73603 0.0
C865 C 0.19923 0.3698 0.6657 0.0
O866 O 0.19712 0.39365 0.66539 0.0
N867 N 0.24258 0.34948 0.73269 0.0
C868 C 0.25735 0.32015 0.71 0.0
C869 C 0.24639 0.33849 0.70328 0.0
C870 C 0.25159 0.33746 0.75702 0.0
N871 N 0.2607 0.31963 0.7437 0.0
O872 O 0.19758 0.35254 0.76344 0.0
H873 H 0.24297 0.34453 0.67817 0.0
H874 H 0.25285 0.34273 0.78372 0.0
O875 O 0.21042 0.36371 0.6914 0.0
C876 C 0.20463 0.3591 0.79477 0.0
O877 O 0.23183 0.37922 0.80196 0.0
N878 N 0.2669 0.40565 0.71382 0.0
C879 C 0.32225 0.44709 0.68921 0.0
C880 C 0.29662 0.44396 0.67417 0.0
C881 C 0.26909 0.42327 0.68719 0.0
C882 C 0.29181 0.40938 0.72938 0.0
C883 C 0.31965 0.42957 0.71716 0.0
H884 H 0.24981 0.42272 0.67724 0.0
H885 H 0.29021 0.39709 0.75203 0.0
H886 H 0.17442 0.38329 0.72565 0.0
H887 H 0.22783 0.47206 0.7525 0.0
H888 H 0.26367 0.30906 0.69155 0.0
H889 H 0.29795 0.45796 0.65326 0.0
H890 H 0.33904 0.43202 0.72995 0.0
C891 C 0.47247 0.90214 0.1121 0.0
C892 C 0.44235 0.88818 0.11534 0.0
N893 N 0.43592 0.90416 0.13661 0.0
N894 N 0.4848 0.92659 0.13149 0.0
C895 C 0.46189 0.92728 0.14609 0.0
H896 H 0.48473 0.89447 0.09749 0.0
Co897 Co 0.52507 0.95053 0.13788 0.0
C898 C 0.52561 0.97075 0.21032 0.0
O899 O 0.53919 0.95712 0.22116 0.0
N900 N 0.56667 0.97505 0.1444 0.0
C901 C 0.61255 0.99242 0.16365 0.0
C902 C 0.5835 0.97266 0.16903 0.0
C903 C 0.58661 0.99699 0.12442 0.0
N904 N 0.61447 0.00759 0.1356 0.0
O905 O 0.5241 0.97944 0.10728 0.0
H906 H 0.57596 0.9561 0.1885 0.0
H907 H 0.58119 0.00432 0.1014 0.0
O908 O 0.51851 0.96956 0.17882 0.0
C909 C 0.5238 0.9726 0.07591 0.0
O910 O 0.52685 0.94985 0.06869 0.0
N911 N 0.52496 0.91986 0.16277 0.0
C912 C 0.52909 0.87434 0.19318 0.0
C913 C 0.50881 0.88213 0.20522 0.0
C914 C 0.50658 0.90466 0.189 0.0
C915 C 0.54212 0.91004 0.14852 0.0
C916 C 0.54517 0.88786 0.16389 0.0
H917 H 0.49077 0.91048 0.19807 0.0
H918 H 0.55446 0.92037 0.12574 0.0
H919 H 0.46406 0.94379 0.16408 0.0
H920 H 0.42643 0.86763 0.10372 0.0
H921 H 0.63104 0.99426 0.17793 0.0
H922 H 0.49517 0.87114 0.22703 0.0
H923 H 0.56017 0.88149 0.15322 0.0
C924 C 0.10066 0.56843 0.13441 0.0
C925 C 0.11451 0.55216 0.13796 0.0
N926 N 0.09446 0.52512 0.14857 0.0
N927 N 0.0721 0.55181 0.14329 0.0
C928 C 0.06883 0.52513 0.15042 0.0
H929 H 0.11116 0.5912 0.12681 0.0
Co930 Co 0.04353 0.56332 0.14634 0.0
C931 C 0.03538 0.53075 0.21353 0.0
O932 O 0.06385 0.54111 0.2161 0.0
N933 N 0.0152 0.57484 0.14918 0.0
C934 C 0.98619 0.5902 0.17102 0.0
C935 C 0.00407 0.57883 0.17829 0.0
C936 C 0.00366 0.58392 0.12448 0.0
N937 N 0.98586 0.59328 0.1372 0.0
O938 O 0.01848 0.53108 0.11558 0.0
H939 H 0.00921 0.57461 0.20348 0.0
H940 H 0.0089 0.58466 0.09786 0.0
O941 O 0.02572 0.53824 0.18762 0.0
C942 C 0.0242 0.53815 0.08416 0.0
O943 O 0.04464 0.56506 0.07656 0.0
N944 N 0.06926 0.59705 0.17213 0.0
C945 C 0.1097 0.6524 0.19798 0.0
C946 C 0.09278 0.6289 0.21987 0.0
C947 C 0.07203 0.6016 0.20647 0.0
C948 C 0.08479 0.62008 0.15067 0.0
C949 C 0.10508 0.64789 0.16297 0.0
H950 H 0.05788 0.58493 0.22406 0.0
H951 H 0.08138 0.6167 0.12359 0.0
H952 H 0.04839 0.50642 0.15871 0.0
H953 H 0.13773 0.55997 0.13476 0.0
H954 H 0.97442 0.59597 0.18913 0.0
H955 H 0.09519 0.63184 0.24712 0.0
H956 H 0.11735 0.66569 0.14528 0.0
C957 C 0.42462 0.53069 0.12901 0.0
C958 C 0.43993 0.56093 0.13095 0.0
N959 N 0.46631 0.56905 0.14484 0.0
N960 N 0.44135 0.52015 0.142 0.0
C961 C 0.46675 0.54414 0.15118 0.0
H962 H 0.4026 0.51718 0.11915 0.0
Co963 Co 0.4308 0.48101 0.14559 0.0
C964 C 0.47915 0.49516 0.19747 0.0
O965 O 0.5004 0.50283 0.17528 0.0
N966 N 0.42 0.44146 0.14963 0.0
C967 C 0.40354 0.39752 0.17323 0.0
C968 C 0.41328 0.42662 0.17936 0.0
C969 C 0.41426 0.42086 0.1257 0.0
N970 N 0.40411 0.39398 0.13956 0.0
O971 O 0.46322 0.48843 0.11643 0.0
H972 H 0.41436 0.43613 0.20401 0.0
H973 H 0.4164 0.42513 0.09871 0.0
O974 O 0.45332 0.48803 0.18754 0.0
C975 C 0.45535 0.48739 0.08545 0.0
O976 O 0.42791 0.47994 0.07901 0.0
N977 N 0.39783 0.47382 0.17052 0.0
C978 C 0.34515 0.46202 0.19998 0.0
C979 C 0.37185 0.48048 0.21642 0.0
C980 C 0.39821 0.48629 0.20106 0.0
C981 C 0.37201 0.45616 0.15415 0.0
C982 C 0.34532 0.44978 0.16858 0.0
H983 H 0.41881 0.50124 0.21328 0.0
H984 H 0.37227 0.44721 0.12952 0.0
H985 H 0.48517 0.54356 0.1626 0.0
H986 H 0.43225 0.57575 0.12335 0.0
H987 H 0.396 0.38011 0.1919 0.0
H988 H 0.37225 0.49054 0.24053 0.0
H989 H 0.32498 0.4357 0.15521 0.0
C990 C 0.09947 0.52666 0.63467 0.0
C991 C 0.1166 0.55637 0.64102 0.0
N992 N 0.09915 0.5657 0.65436 0.0
N993 N 0.07157 0.51756 0.6444 0.0
C994 C 0.07207 0.54195 0.65607 0.0
H995 H 0.10685 0.5126 0.62371 0.0
Co996 Co 0.0391 0.48007 0.64151 0.0
C997 C 0.00937 0.47037 0.70874 0.0
O998 O 0.00545 0.44365 0.70815 0.0
N999 N 0.00536 0.44226 0.63774 0.0
C1000 C 0.95755 0.40899 0.63345 0.0
C1001 C 0.97776 0.43809 0.63884 0.0
C1002 C 1.00122 0.41521 0.63064 0.0
N1003 N 0.97247 0.3948 0.62805 0.0
O1004 O 0.02008 0.49507 0.61176 0.0
H1005 H 0.97265 0.45544 0.64224 0.0
H1006 H 0.01853 0.41024 0.62636 0.0
O1007 O 0.02234 0.48783 0.68374 0.0
C1008 C 0.02714 0.49449 0.58078 0.0
O1009 O 0.04584 0.48542 0.57423 0.0
N1010 N 0.06019 0.46561 0.66663 0.0
C1011 C 0.10102 0.45119 0.69288 0.0
C1012 C 0.09116 0.46674 0.71253 0.0
C1013 C 0.07108 0.47412 0.69873 0.0
C1014 C 0.07051 0.45139 0.64692 0.0
C1015 C 0.09024 0.44325 0.65977 0.0
H1016 H 0.06597 0.48824 0.71311 0.0
H1017 H 0.06462 0.44774 0.62035 0.0
H1018 H 0.05297 0.54241 0.66553 0.0
H1019 H 0.13991 0.57007 0.63619 0.0
H1020 H 0.93388 0.39917 0.63221 0.0
H1021 H 0.09994 0.47427 0.73775 0.0
H1022 H 0.09824 0.43221 0.6434 0.0
C1023 C 0.4785 0.57378 0.63145 0.0
C1024 C 0.44832 0.55955 0.6345 0.0
N1025 N 0.43943 0.53302 0.64835 0.0
N1026 N 0.48846 0.55633 0.64367 0.0
C1027 C 0.46401 0.53148 0.65353 0.0
H1028 H 0.49239 0.59559 0.62132 0.0
Co1029 Co 0.5278 0.56596 0.6455 0.0
C1030 C 0.51269 0.51843 0.69966 0.0
O1031 O 0.50323 0.49583 0.67908 0.0
N1032 N 0.56747 0.57579 0.64756 0.0
C1033 C 0.61185 0.58905 0.66854 0.0
C1034 C 0.58272 0.57806 0.67623 0.0
C1035 C 0.58799 0.58585 0.62274 0.0
N1036 N 0.61507 0.594 0.635 0.0
O1037 O 0.5186 0.53281 0.61626 0.0
H1038 H 0.57374 0.57367 0.70159 0.0
H1039 H 0.58355 0.58855 0.59657 0.0
O1040 O 0.52117 0.54403 0.68786 0.0
C1041 C 0.51938 0.5408 0.58533 0.0
O1042 O 0.5268 0.56825 0.57924 0.0
N1043 N 0.53698 0.59975 0.6703 0.0
C1044 C 0.55057 0.6535 0.69868 0.0
C1045 C 0.53192 0.62725 0.71578 0.0
C1046 C 0.52529 0.60037 0.70103 0.0
C1047 C 0.55502 0.62514 0.65344 0.0
C1048 C 0.56238 0.65231 0.66736 0.0
H1049 H 0.51006 0.58017 0.71372 0.0
H1050 H 0.56324 0.62422 0.62861 0.0
H1051 H 0.46405 0.51266 0.66449 0.0
H1052 H 0.43404 0.56807 0.62758 0.0
H1053 H 0.62956 0.59433 0.68631 0.0
H1054 H 0.52208 0.62756 0.73978 0.0
H1055 H 0.5765 0.67223 0.65335 0.0
C1056 C 0.43185 0.89591 0.62106 0.0
C1057 C 0.44803 0.88189 0.62332 0.0
N1058 N 0.47276 0.89948 0.64071 0.0
N1059 N 0.44644 0.92215 0.63693 0.0
C1060 C 0.47142 0.92375 0.6485 0.0
H1061 H 0.41069 0.8875 0.6088 0.0
Co1062 Co 0.43321 0.94892 0.64067 0.0
C1063 C 0.47978 0.98447 0.69379 0.0
O1064 O 0.5011 0.99933 0.67207 0.0
N1065 N 0.41987 0.97573 0.64517 0.0
C1066 C 0.40043 1.00058 0.66879 0.0
C1067 C 0.40945 0.98055 0.67439 0.0
C1068 C 0.41741 0.99351 0.62226 0.0
N1069 N 0.4054 0.00861 0.63603 0.0
O1070 O 0.4654 0.97635 0.61184 0.0
H1071 H 0.40814 0.96988 0.69832 0.0
H1072 H 0.42387 0.99519 0.59604 0.0
O1073 O 0.45456 0.96479 0.68326 0.0
C1074 C 0.46023 0.96833 0.58063 0.0
O1075 O 0.43559 0.94417 0.57328 0.0
N1076 N 0.40041 0.92103 0.66475 0.0
C1077 C 0.34768 0.88011 0.69454 0.0
C1078 C 0.37446 0.889 0.71124 0.0
C1079 C 0.40082 0.90953 0.69573 0.0
C1080 C 0.3746 0.9118 0.64782 0.0
C1081 C 0.34791 0.89149 0.66239 0.0
H1082 H 0.42142 0.9161 0.70853 0.0
H1083 H 0.37482 0.92064 0.62295 0.0
H1084 H 0.48835 0.94218 0.66239 0.0
H1085 H 0.44205 0.86039 0.61341 0.0
H1086 H 0.39083 0.00859 0.6872 0.0
H1087 H 0.3749 0.88017 0.73594 0.0
H1088 H 0.32758 0.88476 0.64875 0.0
C1089 C 0.18885 0.42556 0.26551 0.0
C1090 C 0.21894 0.44319 0.26348 0.0
N1091 N 0.22922 0.42908 0.24442 0.0
N1092 N 0.18053 0.40071 0.24762 0.0
C1093 C 0.20566 0.40342 0.23521 0.0
H1094 H 0.17397 0.43033 0.27939 0.0
Co1095 Co 0.14278 0.36914 0.24405 0.0
C1096 C 0.13556 0.35145 0.17055 0.0
O1097 O 0.10894 0.34775 0.17266 0.0
N1098 N 0.10435 0.33609 0.242 0.0
C1099 C 0.06822 0.2898 0.23395 0.0
C1100 C 0.09755 0.30958 0.22894 0.0
C1101 C 0.079 0.33112 0.25677 0.0
N1102 N 0.05677 0.30352 0.25158 0.0
O1103 O 0.15536 0.34548 0.26857 0.0
H1104 H 0.11312 0.30462 0.21717 0.0
H1105 H 0.07669 0.34653 0.27257 0.0
O1106 O 0.15193 0.35889 0.19742 0.0
C1107 C 0.15256 0.34873 0.30033 0.0
O1108 O 0.14103 0.36483 0.3095 0.0
N1109 N 0.13123 0.39458 0.22404 0.0
C1110 C 0.11885 0.4374 0.20092 0.0
C1111 C 0.13965 0.43279 0.18432 0.0
C1112 C 0.14601 0.41171 0.19677 0.0
C1113 C 0.11319 0.40112 0.24233 0.0
C1114 C 0.10584 0.42173 0.23061 0.0
H1115 H 0.16348 0.40978 0.18487 0.0
H1116 H 0.106 0.39195 0.26721 0.0
H1117 H 0.20679 0.38683 0.22007 0.0
H1118 H 0.23227 0.46451 0.27513 0.0
H1119 H 0.05644 0.26693 0.22637 0.0
H1120 H 0.15118 0.44568 0.16224 0.0
H1121 H 0.09102 0.42618 0.24518 0.0
C1122 C 0.56794 0.75656 0.25802 0.0
C1123 C 0.54912 0.7677 0.25817 0.0
N1124 N 0.56397 0.79531 0.24617 0.0
N1125 N 0.59422 0.77692 0.24529 0.0
C1126 C 0.59135 0.80065 0.23948 0.0
H1127 H 0.56242 0.73452 0.26523 0.0
Co1128 Co 0.62561 0.77056 0.23704 0.0
C1129 C 0.63189 0.80705 0.16948 0.0
O1130 O 0.60855 0.81007 0.1704 0.0
N1131 N 0.65685 0.76349 0.22943 0.0
C1132 C 0.68779 0.75264 0.20325 0.0
C1133 C 0.66855 0.76294 0.19906 0.0
C1134 C 0.66932 0.75333 0.25168 0.0
N1135 N 0.68816 0.74657 0.2363 0.0
O1136 O 0.65067 0.80433 0.26568 0.0
H1137 H 0.66235 0.76797 0.17489 0.0
H1138 H 0.66322 0.74901 0.2781 0.0
O1139 O 0.63722 0.79387 0.19364 0.0
C1140 C 0.64555 0.79716 0.29715 0.0
O1141 O 0.62661 0.76966 0.30459 0.0
N1142 N 0.60034 0.73625 0.21291 0.0
C1143 C 0.55827 0.68259 0.18605 0.0
C1144 C 0.56122 0.70878 0.17338 0.0
C1145 C 0.58226 0.73546 0.18752 0.0
C1146 C 0.5974 0.71079 0.22572 0.0
C1147 C 0.57671 0.68365 0.21232 0.0
H1148 H 0.5824 0.75514 0.17998 0.0
H1149 H 0.6102 0.71144 0.2475 0.0
H1150 H 0.60871 0.82131 0.22975 0.0
H1151 H 0.52602 0.75602 0.26475 0.0
H1152 H 0.69969 0.74873 0.18346 0.0
H1153 H 0.54648 0.70849 0.1539 0.0
H1154 H 0.5743 0.66362 0.22324 0.0
C1155 C 0.24035 0.80616 0.25726 0.0
C1156 C 0.22447 0.77588 0.25675 0.0
N1157 N 0.19751 0.76755 0.24429 0.0
N1158 N 0.22353 0.81679 0.24488 0.0
C1159 C 0.19721 0.79271 0.23848 0.0
H1160 H 0.26297 0.8196 0.26533 0.0
Co1161 Co 0.23454 0.85639 0.23971 0.0
C1162 C 0.20138 0.83164 0.16975 0.0
O1163 O 0.19826 0.80524 0.16996 0.0
N1164 N 0.24531 0.89628 0.23501 0.0
C1165 C 0.25888 0.93991 0.21174 0.0
C1166 C 0.24814 0.91058 0.20543 0.0
C1167 C 0.25467 0.91755 0.25898 0.0
N1168 N 0.26302 0.94419 0.24532 0.0
O1169 O 0.20102 0.84929 0.26743 0.0
H1170 H 0.24409 0.90079 0.18048 0.0
H1171 H 0.25661 0.91389 0.28565 0.0
O1172 O 0.21303 0.8491 0.19518 0.0
C1173 C 0.20833 0.84983 0.29867 0.0
O1174 O 0.23524 0.85574 0.30557 0.0
N1175 N 0.26924 0.86394 0.21683 0.0
C1176 C 0.32299 0.87652 0.18883 0.0
C1177 C 0.29675 0.85288 0.17671 0.0
C1178 C 0.27008 0.84672 0.19144 0.0
C1179 C 0.29486 0.88625 0.22979 0.0
C1180 C 0.32197 0.89324 0.21579 0.0
H1181 H 0.25039 0.82724 0.18376 0.0
H1182 H 0.29445 0.89843 0.25162 0.0
H1183 H 0.17827 0.79351 0.22899 0.0
H1184 H 0.23246 0.76111 0.26343 0.0
H1185 H 0.26445 0.95703 0.19308 0.0
H1186 H 0.29699 0.83889 0.15668 0.0
H1187 H 0.34201 0.91114 0.22634 0.0
C1188 C 0.34584 0.18151 0.93457 0.0
C1189 C 0.32904 0.18204 0.90656 0.0
C1190 C 0.29698 0.18957 0.94542 0.0
C1191 C 0.31322 0.1884 0.97401 0.0
N1192 N 0.3496 0.17722 0.99559 0.0
N1193 N 0.28458 0.17934 0.88583 0.0
C1194 C 0.33637 0.18216 0.96852 0.0
C1195 C 0.3032 0.18347 0.91227 0.0
N1196 N 0.37142 0.18138 0.92867 0.0
N1197 N 0.2764 0.19799 0.94939 0.0
H1198 H 0.2889 0.17622 0.86084 0.0
H1199 H 0.26361 0.17645 0.88902 0.0
H1200 H 0.26985 0.20157 0.97277 0.0
H1201 H 0.26728 0.2036 0.92925 0.0
H1202 H 0.38667 0.18462 0.94751 0.0
H1203 H 0.37822 0.17968 0.90433 0.0
H1204 H 0.36461 0.16986 0.99326 0.0
H1205 H 0.34379 0.17801 1.02063 0.0
C1206 C 0.84057 0.1577 0.95548 0.0
C1207 C 0.82493 0.16061 0.98317 0.0
C1208 C 0.78651 0.15615 0.94403 0.0
C1209 C 0.80216 0.15359 0.91584 0.0
N1210 N 0.8476 0.15891 0.89439 0.0
N1211 N 0.78701 0.17017 1.00265 0.0
C1212 C 0.83046 0.15686 0.92144 0.0
C1213 C 0.79943 0.16263 0.97693 0.0
N1214 N 0.86461 0.15483 0.96183 0.0
N1215 N 0.75844 0.15084 0.93999 0.0
H1216 H 0.79458 0.17348 0.0276 0.0
H1217 H 0.77064 0.17557 0.99873 0.0
H1218 H 0.74822 0.14726 0.91661 0.0
H1219 H 0.7444 0.14786 0.96014 0.0
H1220 H 0.87498 0.14901 0.94343 0.0
H1221 H 0.87327 0.15672 0.98617 0.0
H1222 H 0.86937 0.16389 0.89669 0.0
H1223 H 0.84104 0.15838 0.86934 0.0
C1224 C 0.84933 0.64606 0.91227 0.0
C1225 C 0.85618 0.67003 0.89019 0.0
C1226 C 0.86915 0.70153 0.94148 0.0
C1227 C 0.87094 0.67948 0.96068 0.0
N1228 N 0.86217 0.62973 0.9632 0.0
N1229 N 0.86382 0.71927 0.88635 0.0
C1230 C 0.86083 0.65147 0.94572 0.0
C1231 C 0.86345 0.69748 0.90559 0.0
N1232 N 0.82962 0.61809 0.90262 0.0
N1233 N 0.87206 0.72585 0.95759 0.0
H1234 H 0.85332 0.71517 0.86289 0.0
H1235 H 0.8736 0.74111 0.89404 0.0
H1236 H 0.87446 0.72853 0.98375 0.0
H1237 H 0.86913 0.74196 0.94588 0.0
H1238 H 0.82227 0.60002 0.91874 0.0
H1239 H 0.81723 0.61382 0.88066 0.0
H1240 H 0.85835 0.61024 0.95172 0.0
H1241 H 0.86863 0.63179 0.98847 0.0
C1242 C 0.20117 0.3477 0.57305 0.0
C1243 C 0.18258 0.3168 0.57486 0.0
C1244 C 0.16992 0.32179 0.63396 0.0
C1245 C 0.19218 0.35185 0.63383 0.0
N1246 N 0.23063 0.39324 0.6034 0.0
N1247 N 0.14741 0.27419 0.60583 0.0
C1248 C 0.20786 0.36488 0.60325 0.0
C1249 C 0.16617 0.30388 0.60496 0.0
N1250 N 0.21274 0.36079 0.54257 0.0
N1251 N 0.15191 0.31058 0.66156 0.0
H1252 H 0.1423 0.26104 0.5842 0.0
H1253 H 0.13756 0.26244 0.62784 0.0
H1254 H 0.15406 0.32313 0.68302 0.0
H1255 H 0.13349 0.28966 0.66238 0.0
H1256 H 0.22377 0.38345 0.53889 0.0
H1257 H 0.2088 0.34922 0.51996 0.0
H1258 H 0.24562 0.40257 0.58362 0.0
H1259 H 0.23617 0.40705 0.62426 0.0
C1260 C 0.6478 0.81771 0.61094 0.0
C1261 C 0.65911 0.83552 0.64057 0.0
C1262 C 0.70154 0.87161 0.60754 0.0
C1263 C 0.6888 0.8555 0.5772 0.0
N1264 N 0.64892 0.81376 0.54948 0.0
N1265 N 0.70413 0.87007 0.66869 0.0
C1266 C 0.66166 0.82866 0.57877 0.0
C1267 C 0.68815 0.85986 0.63945 0.0
N1268 N 0.6258 0.78918 0.61422 0.0
N1269 N 0.72587 0.89893 0.6059 0.0
H1270 H 0.69692 0.85904 0.69175 0.0
H1271 H 0.72621 0.88638 0.66919 0.0
H1272 H 0.73611 0.90865 0.58318 0.0
H1273 H 0.73398 0.91312 0.62662 0.0
H1274 H 0.61782 0.77419 0.59429 0.0
H1275 H 0.6185 0.77923 0.63786 0.0
H1276 H 0.62759 0.79598 0.54822 0.0
H1277 H 0.65895 0.8205 0.5258 0.0
C1278 C 0.1461 0.83705 0.60779 0.0
C1279 C 0.15147 0.82537 0.57784 0.0
C1280 C 0.15398 0.78755 0.61207 0.0
C1281 C 0.14921 0.79953 0.64233 0.0
N1282 N 0.14814 0.84029 0.66924 0.0
N1283 N 0.16783 0.79439 0.55257 0.0
C1284 C 0.14786 0.82587 0.64029 0.0
C1285 C 0.1576 0.80207 0.58036 0.0
N1286 N 0.13762 0.85771 0.60516 0.0
N1287 N 0.15453 0.76186 0.61341 0.0
H1288 H 0.17074 0.80451 0.52899 0.0
H1289 H 0.17586 0.77984 0.5535 0.0
H1290 H 0.15462 0.75178 0.63606 0.0
H1291 H 0.15352 0.74979 0.59199 0.0
H1292 H 0.12989 0.8645 0.62556 0.0
H1293 H 0.13577 0.86629 0.58203 0.0
H1294 H 0.15023 0.86107 0.66925 0.0
H1295 H 0.14931 0.83302 0.69344 0.0
C1296 C 0.6522 0.80429 0.07626 0.0
C1297 C 0.68325 0.82229 0.07767 0.0
C1298 C 0.67952 0.83536 0.13702 0.0
C1299 C 0.64914 0.814 0.13711 0.0
N1300 N 0.60641 0.77705 0.10688 0.0
N1301 N 0.72666 0.85706 0.10795 0.0
C1302 C 0.63534 0.7986 0.10658 0.0
C1303 C 0.69686 0.83866 0.10763 0.0
N1304 N 0.63864 0.79239 0.04602 0.0
N1305 N 0.69155 0.85295 0.16485 0.0
H1306 H 0.73943 0.86206 0.08603 0.0
H1307 H 0.73891 0.86688 0.12971 0.0
H1308 H 0.67941 0.85108 0.18657 0.0
H1309 H 0.71287 0.87073 0.1658 0.0
H1310 H 0.61599 0.78209 0.04242 0.0
H1311 H 0.64989 0.79501 1.02344 0.0
H1312 H 0.59634 0.76186 0.0874 0.0
H1313 H 0.59256 0.77289 0.12743 0.0
C1314 C 0.20719 0.85657 0.07685 0.0
C1315 C 0.18942 0.86984 0.07755 0.0
C1316 C 0.17466 0.85232 0.13636 0.0
C1317 C 0.1958 0.84302 0.1373 0.0
N1318 N 0.23377 0.83789 0.10869 0.0
N1319 N 0.15474 0.87921 0.10675 0.0
C1320 C 0.21209 0.84506 0.10743 0.0
C1321 C 0.1725 0.86709 0.10694 0.0
N1322 N 0.21977 0.85525 0.04704 0.0
N1323 N 0.15613 0.8463 0.1633 0.0
H1324 H 0.15064 0.88769 0.08476 0.0
H1325 H 0.14471 0.88166 0.12827 0.0
H1326 H 0.15712 0.83546 0.18504 0.0
H1327 H 0.13837 0.84991 0.16332 0.0
H1328 H 0.23009 0.84289 0.04384 0.0
H1329 H 0.21766 0.86426 1.02441 0.0
H1330 H 0.2493 0.84304 0.08964 0.0
H1331 H 0.23781 0.82856 0.12973 0.0
C1332 C 0.15464 0.31913 0.0938 0.0
C1333 C 0.15609 0.3383 0.06748 0.0
C1334 C 0.14657 0.36731 0.10881 0.0
C1335 C 0.14636 0.34908 0.13592 0.0
N1336 N 0.15587 0.31078 0.15437 0.0
N1337 N 0.16196 0.38519 0.0516 0.0
C1338 C 0.15253 0.32616 0.12848 0.0
C1339 C 0.15518 0.36401 0.07569 0.0
N1340 N 0.15435 0.29373 0.08554 0.0
N1341 N 0.13683 0.38674 0.1138 0.0
H1342 H 0.1674 0.38322 0.0267 0.0
H1343 H 0.16486 0.40587 0.05716 0.0
H1344 H 0.12957 0.3899 0.13693 0.0
H1345 H 0.13306 0.39767 0.09406 0.0
H1346 H 0.14979 0.27701 0.10285 0.0
H1347 H 0.15712 0.2887 0.0607 0.0
H1348 H 0.163 0.2957 0.1508 0.0
H1349 H 0.15388 0.31482 0.17981 0.0
C1350 C 0.83665 0.68384 0.44483 0.0
C1351 C 0.82178 0.66585 0.47323 0.0
C1352 C 0.78536 0.62834 0.43506 0.0
C1353 C 0.7997 0.64653 0.4064 0.0
N1354 N 0.84313 0.68819 0.38358 0.0
N1355 N 0.78547 0.6186 0.4952 0.0
C1356 C 0.82681 0.67313 0.41115 0.0
C1357 C 0.79746 0.63725 0.46819 0.0
N1358 N 0.85966 0.7116 0.45016 0.0
N1359 N 0.7592 0.60292 0.43084 0.0
H1360 H 0.79191 0.62474 0.52026 0.0
H1361 H 0.77039 0.59627 0.49276 0.0
H1362 H 0.75099 0.59405 0.40717 0.0
H1363 H 0.74502 0.59117 0.45059 0.0
H1364 H 0.86922 0.72735 0.43115 0.0
H1365 H 0.86831 0.71948 0.47424 0.0
H1366 H 0.86422 0.70631 0.38523 0.0
H1367 H 0.83682 0.68097 0.35878 0.0
C1368 C 0.34453 0.16025 0.46754 0.0
C1369 C 0.32295 0.13036 0.47373 0.0
C1370 C 0.31074 0.12434 0.41263 0.0
C1371 C 0.3353 0.15227 0.40595 0.0
N1372 N 0.37681 0.19683 0.42639 0.0
N1373 N 0.28879 0.0825 0.44973 0.0
C1374 C 0.35241 0.17038 0.43328 0.0
C1375 C 0.30679 0.11209 0.44566 0.0
N1376 N 0.35793 0.1788 0.49423 0.0
N1377 N 0.29124 0.10911 0.38719 0.0
H1378 H 0.28489 0.07182 0.47282 0.0
H1379 H 0.27979 0.06789 0.4295 0.0
H1380 H 0.29383 0.11679 0.36233 0.0
H1381 H 0.27109 0.09016 0.39143 0.0
H1382 H 0.37171 0.20137 0.49152 0.0
H1383 H 0.35357 0.17203 0.51944 0.0
H1384 H 0.39233 0.20968 0.44461 0.0
H1385 H 0.38237 0.20521 0.40181 0.0
C1386 C 0.85179 0.2011 0.47633 0.0
C1387 C 0.874 0.19326 0.47439 0.0
C1388 C 0.8635 0.18328 0.41306 0.0
C1389 C 0.84479 0.1955 0.41405 0.0
N1390 N 0.82398 0.21969 0.44683 0.0
N1391 N 0.90222 0.17823 0.43985 0.0
C1392 C 0.83929 0.20495 0.44582 0.0
C1393 C 0.88006 0.1846 0.44245 0.0
N1394 N 0.84298 0.20557 0.50727 0.0
N1395 N 0.86475 0.16946 0.38423 0.0
H1396 H 0.91343 0.17664 0.46075 0.0
H1397 H 0.91057 0.17605 0.41677 0.0
H1398 H 0.85257 0.16758 0.36248 0.0
H1399 H 0.87547 0.15734 0.38291 0.0
H1400 H 0.82453 0.20783 0.51058 0.0
H1401 H 0.85241 0.20446 0.53009 0.0
H1402 H 0.82272 0.23052 0.46832 0.0
H1403 H 0.8146 0.22359 0.42566 0.0
C1404 C 0.98314 0.523 0.28351 0.0
C1405 C 0.99787 0.51939 0.31208 0.0
C1406 C 0.02808 0.50902 0.27266 0.0
C1407 C 0.01692 0.51794 0.24504 0.0
N1408 N 0.97254 0.51464 0.22333 0.0
N1409 N 0.03033 0.50318 0.33378 0.0
C1410 C 0.99088 0.51912 0.25008 0.0
C1411 C 0.01892 0.51026 0.30652 0.0
N1412 N 0.96308 0.53197 0.28776 0.0
N1413 N 0.04606 0.49779 0.26593 0.0
H1414 H 0.02202 0.50116 0.35828 0.0
H1415 H 0.04796 0.49943 0.33251 0.0
H1416 H 0.05021 0.49384 0.24115 0.0
H1417 H 0.05456 0.48976 0.28418 0.0
H1418 H 0.95504 0.53898 0.2678 0.0
H1419 H 0.95581 0.53422 0.31131 0.0
H1420 H 0.95204 0.51303 0.2259 0.0
H1421 H 0.97582 0.50809 0.19956 0.0
C1422 C 0.48476 0.50464 0.26081 0.0
C1423 C 0.48248 0.48675 0.23268 0.0
C1424 C 0.47422 0.44673 0.27138 0.0
C1425 C 0.47733 0.46475 0.30007 0.0
N1426 N 0.49061 0.51283 0.32175 0.0
N1427 N 0.48152 0.44336 0.21121 0.0
C1428 C 0.48451 0.49445 0.29466 0.0
C1429 C 0.47953 0.45877 0.23808 0.0
N1430 N 0.48611 0.53096 0.25514 0.0
N1431 N 0.46481 0.41751 0.27547 0.0
H1432 H 0.4838 0.45048 0.18613 0.0
H1433 H 0.48337 0.42463 0.21393 0.0
H1434 H 0.46191 0.40745 0.29886 0.0
H1435 H 0.45772 0.40251 0.25551 0.0
H1436 H 0.48418 0.5436 0.27418 0.0
H1437 H 0.48751 0.53944 0.23082 0.0
H1438 H 0.49888 0.53535 0.31942 0.0
H1439 H 0.48955 0.50609 0.3468 0.0
C1440 C 0.50253 0.97409 0.26392 0.0
C1441 C 0.52097 0.98884 0.2359 0.0
C1442 C 0.54652 0.03355 0.27016 0.0
C1443 C 0.53376 0.01669 0.29989 0.0
N1444 N 0.4951 0.97254 0.32505 0.0
N1445 N 0.55845 0.03357 0.21061 0.0
C1446 C 0.50975 0.98761 0.29669 0.0
C1447 C 0.54175 0.01917 0.23823 0.0
N1448 N 0.47864 0.94686 0.25889 0.0
N1449 N 0.56355 0.06332 0.2729 0.0
H1450 H 0.55457 0.02376 0.18672 0.0
H1451 H 0.57664 0.05467 0.21157 0.0
H1452 H 0.56618 0.07396 0.29601 0.0
H1453 H 0.57219 0.07742 0.25221 0.0
H1454 H 0.46307 0.935 0.27741 0.0
H1455 H 0.47326 0.93726 0.23483 0.0
H1456 H 0.47967 0.95022 0.32536 0.0
H1457 H 0.4986 0.98265 0.34868 0.0
C1458 C 0.48606 0.98084 0.75712 0.0
C1459 C 0.48194 0.99551 0.72919 0.0
C1460 C 0.47085 0.02494 0.76845 0.0
C1461 C 0.47592 0.01109 0.79688 0.0
N1462 N 0.49271 0.97881 0.81797 0.0
N1463 N 0.47663 0.03569 0.70821 0.0
C1464 C 0.4852 0.99017 0.79108 0.0
C1465 C 0.47649 0.01896 0.73493 0.0
N1466 N 0.48978 0.95727 0.75113 0.0
N1467 N 0.45938 0.04302 0.77303 0.0
H1468 H 0.47918 0.0313 0.68304 0.0
H1469 H 0.47672 0.05543 0.71111 0.0
H1470 H 0.45607 0.04961 0.79659 0.0
H1471 H 0.45103 0.04995 0.75334 0.0
H1472 H 0.48938 0.94323 0.77003 0.0
H1473 H 0.49164 0.95072 0.72671 0.0
H1474 H 0.50257 0.96597 0.81542 0.0
H1475 H 0.49096 0.98378 0.84312 0.0
C1476 C 0.96904 0.4674 0.74547 0.0
C1477 C 0.99953 0.47938 0.73981 0.0
C1478 C 0.00816 0.4823 0.80126 0.0
C1479 C 0.97736 0.46694 0.80667 0.0
N1480 N 0.93015 0.45656 0.78612 0.0
N1481 N 0.04792 0.51107 0.76173 0.0
C1482 C 0.95837 0.46361 0.77935 0.0
C1483 C 0.01912 0.49118 0.76763 0.0
N1484 N 0.9503 0.4586 0.71844 0.0
N1485 N 0.02673 0.48681 0.82773 0.0
H1486 H 0.05516 0.51955 0.73746 0.0
H1487 H 0.06325 0.52172 0.781 0.0
H1488 H 0.0192 0.4813 0.85262 0.0
H1489 H 0.04919 0.4949 0.82469 0.0
H1490 H 0.92751 0.44635 0.72064 0.0
H1491 H 0.95806 0.46337 0.69362 0.0
H1492 H 0.91532 0.45526 0.76766 0.0
H1493 H 0.92293 0.45545 0.81098 0.0
C1494 C 0.51133 0.51775 0.79717 0.0
C1495 C 0.54018 0.52296 0.80431 0.0
C1496 C 0.54659 0.51669 0.7433 0.0
C1497 C 0.51987 0.516 0.73582 0.0
N1498 N 0.4772 0.5175 0.75499 0.0
N1499 N 0.58662 0.53036 0.78261 0.0
C1500 C 0.50222 0.51675 0.76263 0.0
C1501 C 0.55805 0.52299 0.77696 0.0
N1502 N 0.49271 0.51409 0.82324 0.0
N1503 N 0.56134 0.51156 0.71809 0.0
H1504 H 0.59608 0.53403 0.80652 0.0
H1505 H 0.6018 0.53502 0.76326 0.0
H1506 H 0.55452 0.50818 0.69282 0.0
H1507 H 0.57895 0.50813 0.7226 0.0
H1508 H 0.47056 0.50738 0.81983 0.0
H1509 H 0.49865 0.51541 0.84866 0.0
H1510 H 0.46515 0.52174 0.77276 0.0
H1511 H 0.46934 0.51553 0.73023 0.0
C1512 C 0.36874 0.35395 0.1022 0.0
C1513 C 0.39435 0.36635 0.12273 0.0
C1514 C 0.3949 0.32011 0.12104 0.0
C1515 C 0.37065 0.30843 0.09844 0.0
N1516 N 0.33865 0.31619 0.06145 0.0
N1517 N 0.43555 0.36395 0.14555 0.0
C1518 C 0.35884 0.32601 0.08712 0.0
C1519 C 0.40865 0.35022 0.13012 0.0
N1520 N 0.35299 0.36805 0.09868 0.0
N1521 N 0.40371 0.30206 0.13528 0.0
H1522 H 0.4463 0.38625 0.15178 0.0
H1523 H 0.44833 0.35407 0.14904 0.0
H1524 H 0.39321 0.27958 0.13035 0.0
H1525 H 0.41946 0.30878 0.15445 0.0
H1526 H 0.33251 0.3586 0.08684 0.0
H1527 H 0.35909 0.38813 0.11026 0.0
H1528 H 0.33119 0.32915 0.05 0.0
H1529 H 0.33155 0.29607 0.04938 0.0
C1530 C 0.68643 0.07451 0.11366 0.0
C1531 C 0.69902 0.06145 0.09341 0.0
C1532 C 0.65348 0.01394 0.09628 0.0
C1533 C 0.64153 0.02655 0.11833 0.0
N1534 N 0.64617 0.06742 0.15037 0.0
N1535 N 0.69674 0.01894 0.06773 0.0
C1536 C 0.65788 0.05656 0.12757 0.0
C1537 C 0.68307 0.03117 0.08522 0.0
N1538 N 0.70179 0.10417 0.11894 0.0
N1539 N 0.6363 0.98544 0.08606 0.0
H1540 H 0.71845 0.03118 0.05941 0.0
H1541 H 0.68754 0.99652 0.06332 0.0
H1542 H 0.61478 0.97218 0.0945 0.0
H1543 H 0.64247 0.97538 0.06769 0.0
H1544 H 0.69318 0.11583 0.13097 0.0
H1545 H 0.72303 0.11747 0.1096 0.0
H1546 H 0.65772 0.08832 0.16097 0.0
H1547 H 0.62487 0.05475 0.15983 0.0
C1548 C 0.92359 0.60551 0.11421 0.0
C1549 C 0.9373 0.62926 0.0911 0.0
C1550 C 0.984 0.63004 0.09908 0.0
C1551 C 0.96941 0.60432 0.11925 0.0
N1552 N 0.92389 0.56346 0.13878 0.0
N1553 N 0.97891 0.66001 0.0558 0.0
C1554 C 0.93869 0.59075 0.12452 0.0
C1555 C 0.96708 0.64031 0.08177 0.0
N1556 N 0.89688 0.59811 0.12783 0.0
N1557 N 0.01399 0.64553 0.09787 0.0
H1558 H 0.96675 0.6672 0.04193 0.0
H1559 H 0.99974 0.66685 0.04592 0.0
H1560 H 0.02713 0.63939 0.11144 0.0
H1561 H 0.02577 0.66597 0.08614 0.0
H1562 H 0.88714 0.5826 0.14711 0.0
H1563 H 0.88608 0.6098 0.12272 0.0
H1564 H 0.90104 0.55148 0.14066 0.0
H1565 H 0.93426 0.55158 0.14524 0.0
C1566 C 0.32161 0.39242 0.46095 0.0
C1567 C 0.30566 0.36259 0.45102 0.0
C1568 C 0.34573 0.37048 0.41297 0.0
C1569 C 0.36328 0.39895 0.42686 0.0
N1570 N 0.36969 0.43523 0.46856 0.0
N1571 N 0.3039 0.32173 0.42117 0.0
C1572 C 0.35164 0.40961 0.45191 0.0
C1573 C 0.31793 0.35118 0.42771 0.0
N1574 N 0.30783 0.40418 0.47903 0.0
N1575 N 0.35544 0.36222 0.38529 0.0
H1576 H 0.28384 0.30686 0.43215 0.0
H1577 H 0.31333 0.31178 0.40713 0.0
H1578 H 0.37546 0.37624 0.37356 0.0
H1579 H 0.34249 0.3427 0.37213 0.0
H1580 H 0.31756 0.4265 0.48464 0.0
H1581 H 0.28558 0.39197 0.48539 0.0
H1582 H 0.36294 0.44265 0.4893 0.0
H1583 H 0.39221 0.44754 0.46396 0.0
C1584 C 0.60436 0.92583 0.46367 0.0
C1585 C 0.63544 0.94032 0.46204 0.0
C1586 C 0.63612 0.98052 0.42977 0.0
C1587 C 0.60525 0.96706 0.4336 0.0
N1588 N 0.5606 0.93025 0.45971 0.0
N1589 N 0.68135 0.98425 0.45044 0.0
C1590 C 0.58952 0.94062 0.4522 0.0
C1591 C 0.6515 0.9685 0.44698 0.0
N1592 N 0.5891 0.89757 0.47523 0.0
N1593 N 0.65052 0.00415 0.40869 0.0
H1594 H 0.69304 0.97643 0.46411 0.0
H1595 H 0.6941 0.00604 0.44274 0.0
H1596 H 0.63976 0.01323 0.39542 0.0
H1597 H 0.67258 0.01313 0.40218 0.0
H1598 H 0.56628 0.88476 0.47414 0.0
H1599 H 0.5995 0.8861 0.48321 0.0
H1600 H 0.54849 0.91252 0.47583 0.0
H1601 H 0.54952 0.94121 0.45232 0.0
C1602 C 0.06185 0.6582 0.41977 0.0
C1603 C 0.0308 0.64417 0.42082 0.0
C1604 C 0.03347 0.68545 0.4526 0.0
C1605 C 0.06453 0.70006 0.45025 0.0
N1606 N 0.10874 0.70276 0.42971 0.0
N1607 N 0.9865 0.6448 0.4341 0.0
C1608 C 0.07887 0.68707 0.43323 0.0
C1609 C 0.01642 0.6579 0.43619 0.0
N1610 N 0.07477 0.64346 0.40637 0.0
N1611 N 0.02051 0.6978 0.47125 0.0
H1612 H 0.97352 0.62435 0.42269 0.0
H1613 H 0.97459 0.65475 0.44174 0.0
H1614 H 0.03249 0.71838 0.4827 0.0
H1615 H 0.9982 0.68717 0.47702 0.0
H1616 H 0.09727 0.65119 0.40691 0.0
H1617 H 0.06252 0.62237 0.39621 0.0
H1618 H 0.12079 0.69585 0.4154 0.0
H1619 H 0.12146 0.72383 0.43979 0.0
C1620 C 0.59264 0.6542 0.9507 0.0
C1621 C 0.60389 0.64245 0.92648 0.0
C1622 C 0.65081 0.689 0.92607 0.0
C1623 C 0.63885 0.70121 0.94874 0.0
N1624 N 0.59685 0.69798 0.97678 0.0
N1625 N 0.64116 0.65015 0.88587 0.0
C1626 C 0.60913 0.68454 0.95899 0.0
C1627 C 0.63227 0.66037 0.91252 0.0
N1628 N 0.56705 0.63599 0.96729 0.0
N1629 N 0.68018 0.70407 0.91897 0.0
H1630 H 0.62782 0.6294 0.8753 0.0
H1631 H 0.6605 0.66309 0.87245 0.0
H1632 H 0.69434 0.72495 0.92864 0.0
H1633 H 0.69083 0.69502 0.90559 0.0
H1634 H 0.55912 0.64275 0.98751 0.0
H1635 H 0.55523 0.61337 0.96311 0.0
H1636 H 0.57455 0.6878 0.98264 0.0
H1637 H 0.60862 0.72033 0.98275 0.0
C1638 C 0.32537 0.93343 0.96528 0.0
C1639 C 0.3085 0.94502 0.9512 0.0
C1640 C 0.34699 0.9721 0.90921 0.0
C1641 C 0.36545 0.96388 0.92648 0.0
N1642 N 0.37405 0.94025 0.97398 0.0
N1643 N 0.3042 0.97811 0.9124 0.0
C1644 C 0.35507 0.94521 0.95519 0.0
C1645 C 0.31939 0.96489 0.92357 0.0
N1646 N 0.31274 0.91108 0.9883 0.0
N1647 N 0.35581 0.98644 0.87887 0.0
H1648 H 0.28413 0.97363 0.92275 0.0
H1649 H 0.31255 0.99513 0.89474 0.0
H1650 H 0.37583 0.9916 0.86768 0.0
H1651 H 0.34228 0.99077 0.86346 0.0
H1652 H 0.32303 0.89989 0.99748 0.0
H1653 H 0.2908 0.90193 0.99566 0.0
H1654 H 0.36842 0.92916 0.9971 0.0
H1655 H 0.39629 0.9496 0.96808 0.0
C1656 C 0.03024 0.35562 0.96187 0.0
C1657 C 0.0602 0.36911 0.95236 0.0
C1658 C 0.0546 0.40433 0.91678 0.0
C1659 C 0.02508 0.39175 0.92769 0.0
N1660 N 0.98555 0.35852 0.96383 0.0
N1661 N 0.10225 0.40769 0.92418 0.0
C1662 C 0.0132 0.36836 0.95139 0.0
C1663 C 0.0728 0.39393 0.93072 0.0
N1664 N 0.01797 0.32999 0.97994 0.0
N1665 N 0.06474 0.42561 0.89237 0.0
H1666 H 0.11569 0.39993 0.93366 0.0
H1667 H 0.11363 0.42744 0.91103 0.0
H1668 H 0.0519 0.43403 0.88276 0.0
H1669 H 0.0851 0.43393 0.88062 0.0
H1670 H 0.9956 0.31735 0.98509 0.0
H1671 H 0.02992 0.31998 0.98753 0.0
H1672 H 0.97641 0.34343 0.98354 0.0
H1673 H 0.97246 0.36724 0.95616 0.0
C1674 C 0.65646 0.63911 0.61094 0.0
C1675 C 0.64272 0.60853 0.61738 0.0
C1676 C 0.68626 0.60774 0.59653 0.0
C1677 C 0.69913 0.63782 0.58793 0.0
N1678 N 0.69574 0.68158 0.5824 0.0
N1679 N 0.64226 0.56276 0.61357 0.0
C1680 C 0.68403 0.65341 0.59396 0.0
C1681 C 0.65705 0.59255 0.6094 0.0
N1682 N 0.64351 0.65452 0.62217 0.0
N1683 N 0.70242 0.59406 0.59292 0.0
H1684 H 0.62082 0.55134 0.62294 0.0
H1685 H 0.65023 0.54915 0.60568 0.0
H1686 H 0.72388 0.60495 0.58357 0.0
H1687 H 0.69555 0.57282 0.6013 0.0
H1688 H 0.65365 0.67734 0.62144 0.0
H1689 H 0.62323 0.64451 0.63449 0.0
H1690 H 0.68458 0.6933 0.58277 0.0
H1691 H 0.71606 0.69262 0.57023 0.0
C1692 C 0.37609 0.01897 0.59483 0.0
C1693 C 0.39846 0.02895 0.61984 0.0
C1694 C 0.39962 0.07601 0.6231 0.0
C1695 C 0.37847 0.06667 0.59673 0.0
N1696 N 0.35162 0.03243 0.55211 0.0
N1697 N 0.43637 0.06878 0.65189 0.0
C1698 C 0.36833 0.03909 0.58084 0.0
C1699 C 0.41183 0.05817 0.63202 0.0
N1700 N 0.36107 0.98997 0.58595 0.0
N1701 N 0.40671 0.10099 0.64089 0.0
H1702 H 0.44604 0.05618 0.65801 0.0
H1703 H 0.44866 0.0907 0.65933 0.0
H1704 H 0.39726 0.11396 0.63587 0.0
H1705 H 0.41985 0.10735 0.66257 0.0
H1706 H 0.34251 0.98088 0.57042 0.0
H1707 H 0.36558 0.97442 0.59643 0.0
H1708 H 0.3457 0.01373 0.53757 0.0
H1709 H 0.34611 0.0471 0.54106 0.0
C1710 C 0.94771 0.35458 0.58629 0.0
C1711 C 0.96041 0.36442 0.61883 0.0
C1712 C 0.95557 0.31644 0.63075 0.0
C1713 C 0.94262 0.30657 0.59837 0.0
N1714 N 0.9205 0.31309 0.54839 0.0
N1715 N 0.97078 0.3537 0.67468 0.0
C1716 C 0.93663 0.3247 0.57725 0.0
C1717 C 0.96246 0.3449 0.64197 0.0
N1718 N 0.94787 0.37421 0.56342 0.0
N1719 N 0.96276 0.29922 0.64983 0.0
H1720 H 0.97585 0.3745 0.68332 0.0
H1721 H 0.9703 0.33977 0.69379 0.0
H1722 H 0.95781 0.27823 0.64226 0.0
H1723 H 0.97511 0.30632 0.67206 0.0
H1724 H 0.9417 0.36914 0.53811 0.0
H1725 H 0.95633 0.39636 0.56909 0.0
H1726 H 0.91312 0.32423 0.53302 0.0
H1727 H 0.91229 0.29115 0.54154 0.0
C1728 C 0.97803 0.71483 0.78291 0.0
C1729 C 0.96829 0.68524 0.79222 0.0
C1730 C 0.01785 0.69337 0.78292 0.0
C1731 C 0.02816 0.7234 0.77525 0.0
N1732 N 0.02051 0.76426 0.77904 0.0
N1733 N 0.98153 0.6505 0.81336 0.0
C1734 C 0.0088 0.73459 0.7792 0.0
C1735 C 0.98936 0.67622 0.79691 0.0
N1736 N 0.95829 0.72354 0.77462 0.0
N1737 N 0.03349 0.68017 0.77362 0.0
H1738 H 0.9607 0.63785 0.82411 0.0
H1739 H 0.99659 0.64373 0.81934 0.0
H1740 H 0.05214 0.69045 0.75848 0.0
H1741 H 0.02554 0.65773 0.77672 0.0
H1742 H 0.96448 0.74389 0.76373 0.0
H1743 H 0.93565 0.70964 0.77555 0.0
H1744 H 0.00847 0.77475 0.78388 0.0
H1745 H 0.00847 0.77475 0.78388 0.0
C1746 C 0.31937 0.30733 0.78251 0.0
C1747 C 0.30312 0.27658 0.78805 0.0
C1748 C 0.25817 0.27516 0.76791 0.0
C1749 C 0.27473 0.30558 0.76066 0.0
N1750 N 0.32128 0.35019 0.75644 0.0
N1751 N 0.2584 0.23037 0.78333 0.0
C1752 C 0.30544 0.32158 0.76673 0.0
C1753 C 0.27282 0.26024 0.77993 0.0
N1754 N 0.34785 0.32289 0.79344 0.0
N1755 N 0.22835 0.26088 0.76375 0.0
H1756 H 0.2689 0.2192 0.79209 0.0
H1757 H 0.23684 0.21652 0.77548 0.0
H1758 H 0.21738 0.27155 0.75488 0.0
H1759 H 0.21431 0.23922 0.771 0.0
H1760 H 0.36018 0.34574 0.79352 0.0
H1761 H 0.35867 0.31287 0.80452 0.0
H1762 H 0.34415 0.36241 0.75682 0.0
H1763 H 0.31149 0.36123 0.74537 0.0
C1764 C 0.70852 0.01342 0.79143 0.0
C1765 C 0.73923 0.03066 0.78584 0.0
C1766 C 0.73874 0.98904 0.7574 0.0
C1767 C 0.70764 0.97304 0.75939 0.0
N1768 N 0.66238 0.97196 0.77282 0.0
N1769 N 0.78277 0.037 0.75807 0.0
C1770 C 0.69231 0.9857 0.77505 0.0
C1771 C 0.75418 0.01902 0.76736 0.0
N1772 N 0.69507 0.02316 0.81324 0.0
N1773 N 0.75347 0.97522 0.74674 0.0
H1774 H 0.79426 0.05936 0.7639 0.0
H1775 H 0.79405 0.03045 0.74183 0.0
H1776 H 0.74265 0.95297 0.74034 0.0
H1777 H 0.77628 0.98497 0.74752 0.0
H1778 H 0.67326 0.01032 0.82084 0.0
H1779 H 0.7065 0.04306 0.82622 0.0
H1780 H 0.65022 0.98157 0.78085 0.0
H1781 H 0.64989 0.95211 0.76007 0.0
C1782 C 0.27442 0.01493 0.28283 0.0
C1783 C 0.30503 0.02957 0.28938 0.0
C1784 C 0.30791 0.98769 0.26654 0.0
C1785 C 0.27702 0.97234 0.26193 0.0
N1786 N 0.23013 0.9692 0.26811 0.0
N1787 N 0.35059 0.02925 0.29206 0.0
C1788 C 0.26004 0.98542 0.27079 0.0
C1789 C 0.32174 0.01579 0.28239 0.0
N1790 N 0.25945 0.02969 0.28766 0.0
N1791 N 0.32397 0.97557 0.2549 0.0
H1792 H 0.36129 0.04997 0.30338 0.0
H1793 H 0.36339 0.01924 0.29099 0.0
H1794 H 0.31426 0.95476 0.24383 0.0
H1795 H 0.34685 0.9867 0.25418 0.0
H1796 H 0.23753 0.02145 0.28097 0.0
H1797 H 0.26974 0.05132 0.29647 0.0
H1798 H 0.21592 0.97623 0.27665 0.0
H1799 H 0.21934 0.94761 0.25915 0.0
C1800 C 0.00947 0.30283 0.25193 0.0
C1801 C 0.02709 0.29121 0.26373 0.0
C1802 C 0.98637 0.2559 0.29897 0.0
C1803 C 0.97029 0.27011 0.29067 0.0
N1804 N 0.96839 0.31026 0.26357 0.0
N1805 N 0.03435 0.25999 0.30256 0.0
C1806 C 0.98221 0.29434 0.26808 0.0
C1807 C 0.01604 0.26846 0.28824 0.0
N1808 N 0.01866 0.32156 0.22488 0.0
N1809 N 0.97299 0.23015 0.31672 0.0
H1810 H 0.05652 0.26959 0.29618 0.0
H1811 H 0.0283 0.24551 0.32296 0.0
H1812 H 0.95102 0.22024 0.32421 0.0
H1813 H 0.98268 0.21732 0.32106 0.0
H1814 H 0.00558 0.3287 0.21307 0.0
H1815 H 0.03834 0.32769 0.21222 0.0
H1816 H 0.97759 0.32991 0.25005 0.0
H1817 H 0.94893 0.30532 0.27595 0.0
C1818 C 0.74965 0.73288 0.26007 0.0
C1819 C 0.73392 0.70529 0.27649 0.0
C1820 C 0.68755 0.70384 0.26374 0.0
C1821 C 0.70351 0.73288 0.2509 0.0
N1822 N 0.74975 0.77699 0.24166 0.0
N1823 N 0.68845 0.66691 0.29974 0.0
C1824 C 0.73463 0.74797 0.25044 0.0
C1825 C 0.70296 0.69138 0.27994 0.0
N1826 N 0.7787 0.74407 0.25261 0.0
N1827 N 0.65785 0.68772 0.25904 0.0
H1828 H 0.69921 0.6577 0.31275 0.0
H1829 H 0.66624 0.65745 0.30582 0.0
H1830 H 0.64617 0.69581 0.24587 0.0
H1831 H 0.64539 0.66548 0.26505 0.0
H1832 H 0.79078 0.76282 0.23789 0.0
H1833 H 0.78996 0.73294 0.25838 0.0
H1834 H 0.7725 0.79 0.24381 0.0
H1835 H 0.73921 0.78869 0.2352 0.0
C1836 C 0.30451 0.14927 0.18749 0.0
C1837 C 0.32339 0.17388 0.167 0.0
C1838 C 0.36432 0.18603 0.2065 0.0
C1839 C 0.3452 0.16189 0.22758 0.0
N1840 N 0.29671 0.12191 0.2401 0.0
N1841 N 0.37003 0.21782 0.15869 0.0
C1842 C 0.31511 0.14399 0.21869 0.0
C1843 C 0.35305 0.19271 0.17684 0.0
N1844 N 0.27654 0.13048 0.17643 0.0
N1845 N 0.39342 0.20262 0.21492 0.0
H1846 H 0.36284 0.22284 0.13631 0.0
H1847 H 0.39059 0.23452 0.16648 0.0
H1848 H 0.40194 0.2005 0.23799 0.0
H1849 H 0.40945 0.21789 0.19879 0.0
H1850 H 0.26207 0.11069 0.1881 0.0
H1851 H 0.26823 0.13374 0.15382 0.0
H1852 H 0.274 0.10969 0.23722 0.0
H1853 H 0.30391 0.11666 0.26229 0.0
C1854 C 0.8073 0.14699 0.18898 0.0
C1855 C 0.82781 0.15634 0.16178 0.0
C1856 C 0.8608 0.20072 0.19464 0.0
C1857 C 0.84173 0.18963 0.22342 0.0
N1858 N 0.79842 0.14957 0.24885 0.0
N1859 N 0.87629 0.19036 0.14094 0.0
C1860 C 0.81559 0.16187 0.2209 0.0
C1861 C 0.8551 0.18282 0.16513 0.0
N1862 N 0.77917 0.12466 0.18371 0.0
N1863 N 0.88441 0.22861 0.19513 0.0
H1864 H 0.87304 0.1783 0.11881 0.0
H1865 H 0.89789 0.20733 0.14394 0.0
H1866 H 0.89096 0.24196 0.21652 0.0
H1867 H 0.89649 0.23931 0.17358 0.0
H1868 H 0.76222 0.11872 0.20112 0.0
H1869 H 0.77193 0.11434 0.16026 0.0
H1870 H 0.78082 0.1281 0.24942 0.0
H1871 H 0.80327 0.15973 0.27245 0.0
C1872 C 0.82374 0.63941 0.19226 0.0
C1873 C 0.81983 0.65911 0.21343 0.0
C1874 C 0.85031 0.69973 0.17455 0.0
C1875 C 0.85273 0.67964 0.15235 0.0
N1876 N 0.83924 0.62991 0.13794 0.0
N1877 N 0.82589 0.70708 0.22284 0.0
C1878 C 0.83854 0.6493 0.16053 0.0
C1879 C 0.83232 0.68909 0.20416 0.0
N1880 N 0.81415 0.61136 0.20324 0.0
N1881 N 0.86546 0.72914 0.16741 0.0
H1882 H 0.81357 0.70027 0.24512 0.0
H1883 H 0.83113 0.72814 0.21532 0.0
H1884 H 0.87694 0.7376 0.14482 0.0
H1885 H 0.86778 0.74533 0.18439 0.0
H1886 H 0.8187 0.59655 0.19102 0.0
H1887 H 0.80367 0.60359 0.22648 0.0
H1888 H 0.82682 0.60718 0.14045 0.0
H1889 H 0.85072 0.63644 0.11513 0.0
C1890 C 0.15219 0.29541 0.36605 0.0
C1891 C 0.17621 0.31452 0.38729 0.0
C1892 C 0.1858 0.35603 0.35005 0.0
C1893 C 0.16312 0.33645 0.32758 0.0
N1894 N 0.12707 0.28703 0.31185 0.0
N1895 N 0.21793 0.36251 0.39773 0.0
C1896 C 0.14718 0.30596 0.3348 0.0
C1897 C 0.19348 0.34475 0.37891 0.0
N1898 N 0.13316 0.26743 0.37673 0.0
N1899 N 0.19982 0.3856 0.34396 0.0
H1900 H 0.22343 0.35552 0.41987 0.0
H1901 H 0.2337 0.38369 0.39055 0.0
H1902 H 0.19663 0.39456 0.32185 0.0
H1903 H 0.21365 0.40141 0.36135 0.0
H1904 H 0.11349 0.25325 0.3645 0.0
H1905 H 0.13547 0.25931 0.39993 0.0
H1906 H 0.11701 0.26426 0.31369 0.0
H1907 H 0.12204 0.29402 0.28935 0.0
C1908 C 0.6765 0.82467 0.38561 0.0
C1909 C 0.67482 0.85073 0.38848 0.0
C1910 C 0.6549 0.84285 0.32995 0.0
C1911 C 0.65926 0.8184 0.32614 0.0
N1912 N 0.68054 0.79037 0.34802 0.0
N1913 N 0.66381 0.88572 0.36234 0.0
C1914 C 0.67176 0.81053 0.35343 0.0
C1915 C 0.66448 0.8601 0.36025 0.0
N1916 N 0.68241 0.81313 0.41357 0.0
N1917 N 0.64039 0.84894 0.30534 0.0
H1918 H 0.66716 0.89715 0.38497 0.0
H1919 H 0.66103 0.89626 0.34146 0.0
H1920 H 0.63438 0.83803 0.28223 0.0
H1921 H 0.63283 0.86372 0.30842 0.0
H1922 H 0.68089 0.79258 0.41377 0.0
H1923 H 0.68592 0.82255 0.43753 0.0
H1924 H 0.69258 0.78581 0.36557 0.0
H1925 H 0.67876 0.7807 0.32442 0.0
C1926 C 0.1609 0.8559 0.36856 0.0
C1927 C 0.15619 0.83203 0.38999 0.0
C1928 C 0.18145 0.81744 0.34837 0.0
C1929 C 0.18739 0.84209 0.32772 0.0
N1930 N 0.18624 0.88695 0.32004 0.0
N1931 N 0.16435 0.79175 0.40223 0.0
C1932 C 0.17786 0.8618 0.33822 0.0
C1933 C 0.16733 0.8134 0.38051 0.0
N1934 N 0.14894 0.8729 0.3772 0.0
N1935 N 0.18846 0.79725 0.33651 0.0
H1936 H 0.1531 0.7873 0.42519 0.0
H1937 H 0.17462 0.77938 0.39885 0.0
H1938 H 0.1986 0.79937 0.31317 0.0
H1939 H 0.18216 0.77719 0.34816 0.0
H1940 H 0.14803 0.88805 0.36094 0.0
H1941 H 0.13872 0.87109 0.40046 0.0
H1942 H 0.18341 0.90417 0.32833 0.0
H1943 H 0.19771 0.89148 0.29722 0.0
C1944 C 0.69118 0.8623 0.83818 0.0
C1945 C 0.66167 0.84296 0.82818 0.0
C1946 C 0.6535 0.81414 0.8808 0.0
C1947 C 0.68364 0.83204 0.8894 0.0
N1948 N 0.73159 0.87309 0.87648 0.0
N1949 N 0.61525 0.79891 0.83792 0.0
C1950 C 0.70255 0.85609 0.86807 0.0
C1951 C 0.64293 0.81857 0.84911 0.0
N1952 N 0.70792 0.88745 0.81999 0.0
N1953 N 0.63495 0.7929 0.90292 0.0
H1954 H 0.60682 0.80124 0.8149 0.0
H1955 H 0.60135 0.77902 0.8498 0.0
H1956 H 0.642 0.78838 0.9257 0.0
H1957 H 0.6122 0.78111 0.90018 0.0
H1958 H 0.72825 0.90446 0.82799 0.0
H1959 H 0.70075 0.89233 0.79753 0.0
H1960 H 0.74756 0.88812 0.86011 0.0
H1961 H 0.74003 0.87155 0.89983 0.0
C1962 C 0.19663 0.84666 0.88258 0.0
C1963 C 0.17912 0.85947 0.89061 0.0
C1964 C 0.14883 0.83678 0.83942 0.0
C1965 C 0.16534 0.82279 0.83234 0.0
N1966 N 0.20415 0.81298 0.84746 0.0
N1967 N 0.13522 0.86218 0.88046 0.0
C1968 C 0.189 0.82734 0.85408 0.0
C1969 C 0.15441 0.85339 0.86989 0.0
N1970 N 0.2212 0.85382 0.90141 0.0
N1971 N 0.12766 0.83409 0.81706 0.0
H1972 H 0.1379 0.87335 0.90314 0.0
H1973 H 0.11512 0.85588 0.86883 0.0
H1974 H 0.12187 0.82098 0.79541 0.0
H1975 H 0.11726 0.84651 0.81848 0.0
H1976 H 0.23723 0.84871 0.89449 0.0
H1977 H 0.22632 0.86603 0.92369 0.0
H1978 H 0.21886 0.81189 0.8643 0.0
H1979 H 0.20131 0.80114 0.8252 0.0
C1980 C 0.17828 0.36635 0.84409 0.0
C1981 C 0.18316 0.34682 0.82356 0.0
C1982 C 0.15772 0.30784 0.86626 0.0
C1983 C 0.15168 0.32695 0.88596 0.0
N1984 N 0.1523 0.37288 0.89128 0.0
N1985 N 0.17488 0.29815 0.81306 0.0
C1986 C 0.16106 0.35586 0.87431 0.0
C1987 C 0.17191 0.31724 0.83399 0.0
N1988 N 0.19042 0.39518 0.83478 0.0
N1989 N 0.15076 0.28095 0.87916 0.0
H1990 H 0.18598 0.3045 0.78996 0.0
H1991 H 0.1647 0.2756 0.8172 0.0
H1992 H 0.14064 0.27351 0.90267 0.0
H1993 H 0.15701 0.26691 0.86817 0.0
H1994 H 0.19129 0.41148 0.85056 0.0
H1995 H 0.2008 0.40321 0.81153 0.0
H1996 H 0.15498 0.39262 0.88197 0.0
H1997 H 0.14052 0.36637 0.91394 0.0
C1998 C 0.81812 0.63769 0.68489 0.0
C1999 C 0.8416 0.65588 0.70747 0.0
C2000 C 0.85475 0.69839 0.67031 0.0
C2001 C 0.83065 0.68042 0.64853 0.0
N2002 N 0.78658 0.63426 0.63787 0.0
N2003 N 0.88043 0.70401 0.72371 0.0
C2004 C 0.81173 0.65036 0.65641 0.0
C2005 C 0.85925 0.68643 0.70085 0.0
N2006 N 0.80171 0.60808 0.69064 0.0
N2007 N 0.87407 0.72674 0.66098 0.0
H2008 H 0.8856 0.6959 0.74518 0.0
H2009 H 0.89179 0.72685 0.72271 0.0
H2010 H 0.8716 0.73627 0.63893 0.0
H2011 H 0.89384 0.74026 0.67337 0.0
H2012 H 0.78772 0.59308 0.67266 0.0
H2013 H 0.80272 0.59804 0.713 0.0
H2014 H 0.76975 0.61351 0.64485 0.0
H2015 H 0.7813 0.6424 0.61651 0.0
C2016 C 0.3167 0.1737 0.71754 0.0
C2017 C 0.34621 0.18546 0.72859 0.0
C2018 C 0.35733 0.16635 0.67681 0.0
C2019 C 0.32733 0.15265 0.66709 0.0
N2020 N 0.27759 0.14067 0.67961 0.0
N2021 N 0.39365 0.18939 0.72155 0.0
C2022 C 0.30678 0.15557 0.68795 0.0
C2023 C 0.36628 0.18088 0.70886 0.0
N2024 N 0.29849 0.18099 0.7344 0.0
N2025 N 0.3773 0.16543 0.65539 0.0
H2026 H 0.40081 0.19956 0.74508 0.0
H2027 H 0.40832 0.18401 0.71047 0.0
H2028 H 0.3714 0.15424 0.63233 0.0
H2029 H 0.39995 0.17756 0.65907 0.0
H2030 H 0.27792 0.17623 0.72539 0.0
H2031 H 0.30473 0.19367 0.75643 0.0
H2032 H 0.261 0.13868 0.69572 0.0
H2033 H 0.2697 0.12898 0.65702 0.0
C2034 C 0.86982 0.20184 0.69169 0.0
C2035 C 0.86168 0.18232 0.66347 0.0
C2036 C 0.82049 0.14456 0.69663 0.0
C2037 C 0.82693 0.16477 0.72366 0.0
N2038 N 0.85546 0.21427 0.74495 0.0
N2039 N 0.82552 0.13704 0.63705 0.0
C2040 C 0.85111 0.19385 0.72078 0.0
C2041 C 0.83578 0.15437 0.66526 0.0
N2042 N 0.89554 0.22814 0.69069 0.0
N2043 N 0.80061 0.11544 0.70156 0.0
H2044 H 0.8362 0.1428 0.61375 0.0
H2045 H 0.80487 0.11817 0.63595 0.0
H2046 H 0.78996 0.10719 0.72467 0.0
H2047 H 0.79715 0.09908 0.68417 0.0
H2048 H 0.90478 0.24161 0.71179 0.0
H2049 H 0.90845 0.23598 0.66894 0.0
H2050 H 0.8705 0.2366 0.74243 0.0
H2051 H 0.84263 0.20931 0.76672 0.0
C2052 C 1.00094 0.48196 0.52445 0.0
C2053 C 0.01404 0.50232 0.55158 0.0
C2054 C 0.00571 0.53796 0.52 0.0
C2055 C 0.99483 0.51848 0.49158 0.0
N2056 N 0.9868 0.47356 0.46517 0.0
N2057 N 0.03336 0.55158 0.57277 0.0
C2058 C 0.99414 0.4911 0.49324 0.0
C2059 C 0.01756 0.53081 0.54875 0.0
N2060 N 0.99339 0.45323 0.52921 0.0
N2061 N 0.00446 0.56332 0.51984 0.0
H2062 H 0.04199 0.54719 0.59435 0.0
H2063 H 0.03991 0.57374 0.57009 0.0
H2064 H 0.99825 0.57076 0.49868 0.0
H2065 H 0.00804 0.57623 0.54132 0.0
H2066 H 0.98082 0.43654 0.51201 0.0
H2067 H 0.99695 0.44541 0.55203 0.0
H2068 H 0.9892 0.45507 0.46378 0.0
H2069 H 0.98067 0.47864 0.44217 0.0
C2070 C 0.48668 0.51588 0.53494 0.0
C2071 C 0.51074 0.5202 0.55581 0.0
C2072 C 0.52435 0.49477 0.51325 0.0
C2073 C 0.49958 0.48937 0.49311 0.0
N2074 N 0.45496 0.49121 0.48662 0.0
N2075 N 0.55101 0.51168 0.56671 0.0
C2076 C 0.48027 0.49917 0.50434 0.0
C2077 C 0.52908 0.5089 0.54553 0.0
N2078 N 0.46993 0.52793 0.5444 0.0
N2079 N 0.54383 0.487 0.50086 0.0
H2080 H 0.55578 0.52278 0.58982 0.0
H2081 H 0.56339 0.5015 0.56269 0.0
H2082 H 0.54093 0.47655 0.47753 0.0
H2083 H 0.56391 0.49268 0.51213 0.0
H2084 H 0.45473 0.52921 0.52856 0.0
H2085 H 0.47197 0.53779 0.56796 0.0
H2086 H 0.43797 0.49422 0.49539 0.0
H2087 H 0.45005 0.47988 0.46366 0.0
C2088 C 0.4888 0.00564 0.49411 0.0
C2089 C 0.51588 0.00583 0.49208 0.0
C2090 C 0.50928 0.98771 0.55102 0.0
C2091 C 0.48085 0.98469 0.55202 0.0
N2092 N 0.44198 0.98766 0.52231 0.0
N2093 N 0.54812 0.99006 0.51569 0.0
C2094 C 0.47014 0.99261 0.52283 0.0
C2095 C 0.52507 0.99499 0.51981 0.0
N2096 N 0.48141 0.01917 0.46953 0.0
N2097 N 0.52138 0.98357 0.57973 0.0
H2098 H 0.55922 0.99359 0.49271 0.0
H2099 H 0.55399 0.97934 0.53364 0.0
H2100 H 0.51045 0.97719 0.60286 0.0
H2101 H 0.5433 0.98887 0.58127 0.0
H2102 H 0.4638 0.02295 0.47164 0.0
H2103 H 0.49414 0.02881 0.44806 0.0
H2104 H 0.43161 0.98896 0.50036 0.0
H2105 H 0.42822 0.98061 0.54336 0.0
C2106 C 0.49029 0.98646 0.04431 0.0
C2107 C 0.51798 0.98779 0.04705 0.0
C2108 C 0.53043 0.00811 0.98875 0.0
C2109 C 0.50361 0.00843 0.98694 0.0
N2110 N 0.45724 0.99712 1.01178 0.0
N2111 N 0.56561 0.00226 1.02327 0.0
C2112 C 0.4834 0.99741 1.01449 0.0
C2113 C 0.53826 0.99909 1.01948 0.0
N2114 N 0.46994 0.97332 0.0695 0.0
N2115 N 0.54837 0.01626 0.96097 0.0
H2116 H 0.5721 0.99568 0.04497 0.0
H2117 H 0.58276 0.0133 1.00617 0.0
H2118 H 0.54388 0.02387 0.93861 0.0
H2119 H 0.56671 0.01369 0.9589 0.0
H2120 H 0.44838 0.96901 0.0682 0.0
H2121 H 0.47408 0.9654 0.09176 0.0
H2122 H 0.44305 0.9935 0.0319 0.0
H2123 H 0.44968 0.00108 0.98897 0.0
C2124 C 0.97942 0.5 1.00466 0.0
C2125 C 0.99028 0.48086 0.99602 0.0
C2126 C 0.02482 0.50107 0.04397 0.0
C2127 C 0.0108 0.51648 0.05573 0.0
N2128 N 0.97188 0.52767 0.04905 0.0
N2129 N 0.01928 0.45893 1.01317 0.0
C2130 C 0.98721 0.51506 0.03655 0.0
C2131 C 0.01179 0.48014 1.01735 0.0
N2132 N 0.96198 0.50412 0.98223 0.0
N2133 N 0.05133 0.50721 0.05713 0.0
H2134 H 0.00974 0.44261 0.99481 0.0
H2135 H 0.0328 0.45593 0.03019 0.0
H2136 H 0.06176 0.52246 0.07652 0.0
H2137 H 0.0641 0.49923 0.04637 0.0
H2138 H 0.95528 0.51955 0.98572 0.0
H2139 H 0.95697 0.4944 0.95835 0.0
H2140 H 0.95276 0.52516 0.03786 0.0
H2141 H 0.97669 0.53821 0.07252 0.0
C2142 C 0.48893 0.47832 0.04801 0.0
C2143 C 0.47622 0.49581 0.05637 0.0
C2144 C 0.49772 0.52557 1.00465 0.0
C2145 C 0.50896 0.50702 0.99535 0.0
N2146 N 0.51297 0.46398 1.00573 0.0
N2147 N 0.46706 0.5353 0.04234 0.0
C2148 C 0.50396 0.48295 1.01647 0.0
C2149 C 0.48013 0.51914 0.03447 0.0
N2150 N 0.48674 0.45733 0.07029 0.0
N2151 N 0.5052 0.55026 0.98593 0.0
H2152 H 0.45676 0.53355 0.0655 0.0
H2153 H 0.46551 0.5498 0.02562 0.0
H2154 H 0.51717 0.5551 0.96344 0.0
H2155 H 0.5011 0.56687 0.99341 0.0
H2156 H 0.4982 0.44602 0.06779 0.0
H2157 H 0.47487 0.45234 0.09282 0.0
H2158 H 0.50754 0.44424 1.01766 0.0
H2159 H 0.52407 0.4668 0.98296 0.0
C2160 C 0.20583 0.06768 0.03642 0.0
C2161 C 0.21989 0.07675 0.06832 0.0
C2162 C 0.22039 0.03067 0.07447 0.0
C2163 C 0.20561 0.02119 0.04284 0.0
N2164 N 0.17915 0.02764 0.99668 0.0
N2165 N 0.2356 0.06579 0.12072 0.0
C2166 C 0.19671 0.0388 1.0247 0.0
C2167 C 0.22552 0.05777 0.08834 0.0
N2168 N 0.20209 0.08714 1.01703 0.0
N2169 N 0.23074 0.01449 0.09041 0.0
H2170 H 0.23954 0.08566 0.13111 0.0
H2171 H 0.23766 0.05196 0.13806 0.0
H2172 H 0.22729 0.99441 0.08117 0.0
H2173 H 0.24447 0.02181 0.11155 0.0
H2174 H 0.19498 0.08325 0.99192 0.0
H2175 H 0.20785 0.10814 0.02558 0.0
H2176 H 0.16969 0.0383 0.98407 0.0
H2177 H 0.172 0.00647 0.98759 0.0
C2178 C 0.94553 0.16053 0.03301 0.0
C2179 C 0.93343 0.16401 0.06347 0.0
C2180 C 0.97711 0.21237 0.07253 0.0
C2181 C 0.98996 0.20826 0.04285 0.0
N2182 N 0.98918 0.17592 0.99887 0.0
N2183 N 0.939 0.18989 0.11548 0.0
C2184 C 0.97496 0.18154 1.02425 0.0
C2185 C 0.94971 0.18897 0.08426 0.0
N2186 N 0.92844 0.13754 1.012 0.0
N2187 N 0.99044 0.23898 0.08863 0.0
H2188 H 0.91903 0.17283 0.12445 0.0
H2189 H 0.95085 0.20613 0.13343 0.0
H2190 H 0.01048 0.25661 0.08076 0.0
H2191 H 0.98068 0.24432 0.10823 0.0
H2192 H 0.93472 0.13542 0.9876 0.0
H2193 H 0.90693 0.12163 1.0181 0.0
H2194 H 0.98042 0.15573 0.98657 0.0
H2195 H 0.01093 0.19057 0.99214 0.0
C2196 C 0.83947 0.80398 1.01382 0.0
C2197 C 0.81456 0.7959 0.03468 0.0
C2198 C 0.83244 0.77312 0.07549 0.0
C2199 C 0.85564 0.7787 0.05303 0.0
N2200 N 0.88029 0.79648 0.99978 0.0
N2201 N 0.78554 0.77082 0.08389 0.0
C2202 C 0.85897 0.79345 1.02193 0.0
C2203 C 0.81064 0.7801 0.06532 0.0
N2204 N 0.84469 0.82216 0.98667 0.0
N2205 N 0.83164 0.7614 0.10669 0.0
H2206 H 0.76937 0.77601 0.07754 0.0
H2207 H 0.7798 0.75654 0.10443 0.0
H2208 H 0.84708 0.75554 0.11421 0.0
H2209 H 0.81712 0.75932 0.12585 0.0
H2210 H 0.86385 0.83112 0.97229 0.0
H2211 H 0.83083 0.8303 0.98011 0.0
H2212 H 0.88209 0.80414 0.97505 0.0
H2213 H 0.89512 0.78932 1.00547 0.0
C2214 C 0.0307 0.22235 0.48337 0.0
C2215 C 0.01805 0.20071 0.50924 0.0
C2216 C 0.06243 0.19659 0.51149 0.0
C2217 C 0.07449 0.21724 0.48476 0.0
N2218 N 0.0692 0.24614 0.44117 0.0
N2219 N 0.01897 0.16316 0.5435 0.0
C2220 C 0.05825 0.22896 0.4694 0.0
C2221 C 0.03305 0.18651 0.52191 0.0
N2222 N 0.01705 0.2375 0.47332 0.0
N2223 N 0.07963 0.18768 0.52778 0.0
H2224 H 0.99736 0.15523 0.55148 0.0
H2225 H 0.0277 0.15011 0.55117 0.0
H2226 H 0.1013 0.19483 0.52067 0.0
H2227 H 0.07331 0.17507 0.54981 0.0
H2228 H 0.02672 0.25572 0.45737 0.0
H2229 H 0.99671 0.23315 0.48271 0.0
H2230 H 0.05731 0.25309 0.4265 0.0
H2231 H 0.08959 0.25155 0.4309 0.0
C2232 C 0.76807 0.79519 0.4647 0.0
C2233 C 0.78779 0.8007 0.49211 0.0
C2234 C 0.79171 0.84858 0.50182 0.0
C2235 C 0.77335 0.84382 0.47337 0.0
N2236 N 0.74785 0.81552 0.42433 0.0
N2237 N 0.82339 0.83495 0.53189 0.0
C2238 C 0.76269 0.81794 0.45373 0.0
C2239 C 0.80119 0.82818 0.50915 0.0
N2240 N 0.7537 0.76796 0.45009 0.0
N2241 N 0.7989 0.87194 0.52276 0.0
H2242 H 0.83113 0.82061 0.53766 0.0
H2243 H 0.83597 0.85572 0.54261 0.0
H2244 H 0.79193 0.88708 0.51841 0.0
H2245 H 0.80954 0.87487 0.54597 0.0
H2246 H 0.73679 0.76161 0.43246 0.0
H2247 H 0.75737 0.75094 0.45724 0.0
H2248 H 0.7416 0.79844 0.40703 0.0
H2249 H 0.74385 0.83207 0.41598 0.0
C2250 C 0.18269 0.96802 0.5361 0.0
C2251 C 0.2086 0.98477 0.51674 0.0
C2252 C 0.18813 0.94815 0.4711 0.0
C2253 C 0.16376 0.93024 0.49196 0.0
N2254 N 0.14099 0.91987 0.54707 0.0
N2255 N 0.23808 0.98915 0.46777 0.0
C2256 C 0.16189 0.93927 0.52526 0.0
C2257 C 0.21192 0.97443 0.48466 0.0
N2258 N 0.17741 0.97992 0.56419 0.0
N2259 N 0.18811 0.94017 0.43814 0.0
H2260 H 0.25606 0.0083 0.4771 0.0
H2261 H 0.24281 0.98119 0.44591 0.0
H2262 H 0.17084 0.92096 0.42788 0.0
H2263 H 0.20382 0.95353 0.42042 0.0
H2264 H 0.15747 0.96972 0.57717 0.0
H2265 H 0.19175 0.00125 0.57259 0.0
H2266 H 0.14055 0.92425 0.57277 0.0
H2267 H 0.12589 0.89828 0.54035 0.0
C2268 C 0.76634 0.97689 0.98309 0.0
C2269 C 0.78813 0.99184 1.00842 0.0
C2270 C 0.7942 0.94868 1.01503 0.0
C2271 C 0.77393 0.93457 0.9883 0.0
N2272 N 0.74361 0.93592 0.94353 0.0
N2273 N 0.8264 0.99419 0.04455 0.0
C2274 C 0.76081 0.94891 0.97135 0.0
C2275 C 0.80312 0.97835 1.02326 0.0
N2276 N 0.7503 0.989 0.97115 0.0
N2277 N 0.80413 0.93322 0.03322 0.0
H2278 H 0.83364 0.01602 0.05103 0.0
H2279 H 0.84009 0.98663 0.05353 0.0
H2280 H 0.79783 0.91142 0.0277 0.0
H2281 H 0.81656 0.94103 0.05532 0.0
H2282 H 0.73205 0.97793 0.95538 0.0
H2283 H 0.75402 0.00958 0.97885 0.0
H2284 H 0.73567 0.94629 0.92773 0.0
H2285 H 0.73902 0.91529 0.93482 0.0
C2286 C 0.03414 0.82584 1.02346 0.0
C2287 C 0.02234 0.79749 1.00877 0.0
C2288 C 0.06501 0.81532 0.9713 0.0
C2289 C 0.07759 0.84296 0.98764 0.0
N2290 N 0.07741 0.87353 0.03277 0.0
N2291 N 0.02757 0.7637 0.97204 0.0
C2292 C 0.06304 0.84795 1.01473 0.0
C2293 C 0.03806 0.79176 0.98355 0.0
N2294 N 0.01737 0.83185 0.04493 0.0
N2295 N 0.07863 0.81203 0.94355 0.0
H2296 H 0.00773 0.74599 0.98028 0.0
H2297 H 0.03939 0.75752 0.95621 0.0
H2298 H 0.09863 0.82894 0.93454 0.0
H2299 H 0.06932 0.79345 0.92815 0.0
H2300 H 0.02362 0.8529 0.05357 0.0
H2301 H 0.99607 0.81618 0.05206 0.0
H2302 H 0.06929 0.87738 0.05508 0.0
H2303 H 0.09874 0.89004 0.02697 0.0
C2304 C 0.17414 0.21318 0.03835 0.0
C2305 C 0.20067 0.2222 1.02026 0.0
C2306 C 0.18347 0.24175 0.97464 0.0
C2307 C 0.15829 0.23502 0.9941 0.0
N2308 N 0.13144 0.21889 0.04638 0.0
N2309 N 0.23267 0.24847 0.97342 0.0
C2310 C 0.1541 0.22197 0.02652 0.0
C2311 C 0.20591 0.23737 0.9889 0.0
N2312 N 0.16763 0.1954 0.06614 0.0
N2313 N 0.18551 0.25185 0.94228 0.0
H2314 H 0.24968 0.2458 0.98317 0.0
H2315 H 0.23891 0.26224 0.95234 0.0
H2316 H 0.16936 0.25539 0.93162 0.0
H2317 H 0.2018 0.25453 0.92525 0.0
H2318 H 0.14732 0.18568 0.07829 0.0
H2319 H 0.18162 0.18825 0.07539 0.0
H2320 H 0.12899 0.21255 0.07175 0.0
H2321 H 0.11634 0.225 0.03823 0.0
C2322 C 0.9449 0.75832 0.57122 0.0
C2323 C 0.93214 0.77242 0.55296 0.0
C2324 C 0.97818 0.80171 0.52191 0.0
C2325 C 0.99 0.78559 0.53779 0.0
N2326 N 0.98398 0.74646 0.5749 0.0
N2327 N 0.93437 0.80394 0.50752 0.0
C2328 C 0.97324 0.76338 0.56189 0.0
C2329 C 0.94824 0.79327 0.52746 0.0
N2330 N 0.93004 0.74059 0.59796 0.0
N2331 N 0.99577 0.82543 0.50205 0.0
H2332 H 0.91229 0.79772 0.51069 0.0
H2333 H 0.94388 0.81686 0.48611 0.0
H2334 H 0.01785 0.83229 0.49749 0.0
H2335 H 0.9893 0.83982 0.4925 0.0
H2336 H 0.93916 0.732 0.61474 0.0
H2337 H 0.9091 0.73623 0.60484 0.0
H2338 H 0.97159 0.72784 0.58967 0.0
H2339 H 0.00483 0.74988 0.56907 0.0
C2340 C 0.23308 0.1711 0.58693 0.0
C2341 C 0.22676 0.14637 0.56681 0.0
C2342 C 0.202 0.16065 0.52465 0.0
C2343 C 0.21102 0.18703 0.54302 0.0
N2344 N 0.23634 0.21877 0.59043 0.0
N2345 N 0.20752 0.11788 0.51601 0.0
C2346 C 0.22669 0.19257 0.57405 0.0
C2347 C 0.21162 0.14108 0.5356 0.0
N2348 N 0.24505 0.17373 0.61842 0.0
N2349 N 0.18396 0.15426 0.49705 0.0
H2350 H 0.21388 0.1029 0.5239 0.0
H2351 H 0.19952 0.11438 0.49126 0.0
H2352 H 0.17673 0.16831 0.48822 0.0
H2353 H 0.17433 0.13419 0.4844 0.0
H2354 H 0.24789 0.18971 0.636 0.0
H2355 H 0.25034 0.1584 0.62792 0.0
H2356 H 0.25052 0.22556 0.61116 0.0
H2357 H 0.2314 0.23469 0.58213 0.0
C2358 C 0.82728 0.03582 0.51875 0.0
C2359 C 0.8019 0.01764 0.53847 0.0
C2360 C 0.81771 0.05613 0.58181 0.0
C2361 C 0.84324 0.07391 0.56248 0.0
N2362 N 0.87491 0.08056 0.5155 0.0
N2363 N 0.77337 0.00878 0.58948 0.0
C2364 C 0.84867 0.06374 0.53164 0.0
C2365 C 0.79724 0.02731 0.5703 0.0
N2366 N 0.8307 0.02639 0.48764 0.0
N2367 N 0.81302 0.06734 0.61088 0.0
H2368 H 0.75728 0.98803 0.58118 0.0
H2369 H 0.76987 0.01315 0.61422 0.0
H2370 H 0.82832 0.088 0.62023 0.0
H2371 H 0.79378 0.0571 0.62505 0.0
H2372 H 0.84681 0.03963 0.47027 0.0
H2373 H 0.81651 0.00536 0.47831 0.0
H2374 H 0.88192 0.07364 0.49459 0.0
H2375 H 0.89081 0.10117 0.52441 0.0
C2376 C 0.87018 0.36846 0.36231 0.0
C2377 C 0.88278 0.35336 0.37894 0.0
C2378 C 0.90798 0.39427 0.41904 0.0
C2379 C 0.89763 0.41031 0.4004 0.0
N2380 N 0.87173 0.41488 0.35269 0.0
N2381 N 0.91565 0.35237 0.4211 0.0
C2382 C 0.87943 0.39796 0.3716 0.0
C2383 C 0.90214 0.36633 0.40693 0.0
N2384 N 0.84885 0.35428 0.33827 0.0
N2385 N 0.923 0.40578 0.4486 0.0
H2386 H 0.91155 0.33172 0.41315 0.0
H2387 H 0.93224 0.3619 0.43924 0.0
H2388 H 0.92765 0.42634 0.45761 0.0
H2389 H 0.92898 0.39433 0.46534 0.0
H2390 H 0.83672 0.36301 0.32759 0.0
H2391 H 0.84147 0.33262 0.33088 0.0
H2392 H 0.86119 0.40848 0.32927 0.0
H2393 H 0.87777 0.43639 0.35936 0.0
C2394 C 0.60732 0.48671 0.35699 0.0
C2395 C 0.59625 0.49273 0.38675 0.0
C2396 C 0.64136 0.54042 0.39289 0.0
C2397 C 0.65176 0.53519 0.36194 0.0
N2398 N 0.64492 0.50464 0.31323 0.0
N2399 N 0.6004 0.52528 0.43178 0.0
C2400 C 0.63483 0.50859 0.34364 0.0
C2401 C 0.61271 0.51959 0.40442 0.0
N2402 N 0.59136 0.45985 0.3418 0.0
N2403 N 0.65911 0.5651 0.41139 0.0
H2404 H 0.57979 0.50997 0.44114 0.0
H2405 H 0.6096 0.54549 0.44406 0.0
H2406 H 0.67984 0.58128 0.40316 0.0
H2407 H 0.65424 0.56892 0.43578 0.0
H2408 H 0.59896 0.45252 0.32185 0.0
H2409 H 0.57062 0.44401 0.3504 0.0
H2410 H 0.63262 0.48723 0.29681 0.0
H2411 H 0.6655 0.51965 0.30343 0.0
C2412 C 0.49618 0.13278 0.36106 0.0
C2413 C 0.46911 0.12056 0.37896 0.0
C2414 C 0.48694 0.09716 0.41899 0.0
C2415 C 0.51222 0.10638 0.39868 0.0
N2416 N 0.54031 0.13046 0.34898 0.0
N2417 N 0.43715 0.08856 0.4229 0.0
C2418 C 0.51672 0.12361 0.36934 0.0
C2419 C 0.46409 0.10218 0.40758 0.0
N2420 N 0.5025 0.15374 0.33681 0.0
N2421 N 0.48518 0.08403 0.44947 0.0
H2422 H 0.41989 0.09171 0.41528 0.0
H2423 H 0.43117 0.0725 0.44153 0.0
H2424 H 0.50182 0.08031 0.45822 0.0
H2425 H 0.46868 0.07914 0.46718 0.0
H2426 H 0.52293 0.16549 0.32512 0.0
H2427 H 0.48814 0.16132 0.33047 0.0
H2428 H 0.54329 0.14021 0.32522 0.0
H2429 H 0.55597 0.12444 0.35492 0.0
C2430 C 0.6856 0.52088 0.85444 0.0
C2431 C 0.68235 0.53827 0.87972 0.0
C2432 C 0.73399 0.57519 0.87412 0.0
C2433 C 0.73543 0.56144 0.84396 0.0
N2434 N 0.71436 0.51953 0.80693 0.0
N2435 N 0.71076 0.56471 0.92871 0.0
C2436 C 0.71189 0.5334 0.8349 0.0
C2437 C 0.70859 0.56074 0.89449 0.0
N2438 N 0.66491 0.49188 0.85169 0.0
N2439 N 0.75612 0.60251 0.88271 0.0
H2440 H 0.69439 0.54965 0.94485 0.0
H2441 H 0.73036 0.5796 0.94072 0.0
H2442 H 0.7745 0.61447 0.86739 0.0
H2443 H 0.75465 0.614 0.90349 0.0
H2444 H 0.66691 0.47726 0.8356 0.0
H2445 H 0.64722 0.48204 0.86853 0.0
H2446 H 0.69687 0.50051 0.79676 0.0
H2447 H 0.73388 0.52802 0.79312 0.0
C2448 C 0.42099 0.14648 0.81477 0.0
C2449 C 0.43363 0.17348 0.8326 0.0
C2450 C 0.46236 0.15817 0.86745 0.0
C2451 C 0.4479 0.13014 0.85155 0.0
N2452 N 0.41042 0.09591 0.81342 0.0
N2453 N 0.46198 0.20326 0.87962 0.0
C2454 C 0.42637 0.12381 0.82604 0.0
C2455 C 0.45314 0.17883 0.85999 0.0
N2456 N 0.40452 0.14294 0.78644 0.0
N2457 N 0.48555 0.16539 0.88881 0.0
H2458 H 0.45516 0.2185 0.875 0.0
H2459 H 0.47378 0.20703 0.90211 0.0
H2460 H 0.49317 0.15098 0.89462 0.0
H2461 H 0.49886 0.18647 0.89842 0.0
H2462 H 0.39718 0.1251 0.77004 0.0
H2463 H 0.40009 0.15912 0.77792 0.0
H2464 H 0.39235 0.08913 0.79742 0.0
H2465 H 0.4138 0.07879 0.82098 0.0
C2466 C 0.83995 0.28061 0.80356 0.0
C2467 C 0.81383 0.26098 0.82076 0.0
C2468 C 0.82187 0.29941 0.86157 0.0
C2469 C 0.84981 0.31796 0.84679 0.0
N2470 N 0.88731 0.32526 0.80614 0.0
N2471 N 0.78037 0.24985 0.86716 0.0
C2472 C 0.85931 0.30843 0.8182 0.0
C2473 C 0.80481 0.26993 0.85 0.0
N2474 N 0.84592 0.27255 0.773 0.0
N2475 N 0.81153 0.31023 0.88616 0.0
H2476 H 0.76724 0.22827 0.85872 0.0
H2477 H 0.77417 0.25389 0.89071 0.0
H2478 H 0.82349 0.33182 0.89495 0.0
H2479 H 0.79028 0.29872 0.89584 0.0
H2480 H 0.86318 0.28678 0.75736 0.0
H2481 H 0.83193 0.25217 0.76196 0.0
H2482 H 0.89651 0.31802 0.78784 0.0
H2483 H 0.90229 0.34575 0.81617 0.0
C2484 C 0.4556 0.27532 0.35757 0.0
C2485 C 0.43805 0.2628 0.32834 0.0
C2486 C 0.43208 0.30595 0.32186 0.0
C2487 C 0.45143 0.31944 0.34976 0.0
N2488 N 0.48586 0.31937 0.39039 0.0
N2489 N 0.41272 0.26686 0.27978 0.0
C2490 C 0.46442 0.30479 0.36658 0.0
C2491 C 0.42719 0.27836 0.30963 0.0
N2492 N 0.46292 0.25856 0.37733 0.0
N2493 N 0.41763 0.31903 0.30787 0.0
H2494 H 0.40869 0.24655 0.27062 0.0
H2495 H 0.4067 0.27823 0.26294 0.0
H2496 H 0.42071 0.33925 0.3161 0.0
H2497 H 0.40101 0.30896 0.28983 0.0
H2498 H 0.473 0.26522 0.40097 0.0
H2499 H 0.45665 0.23686 0.37131 0.0
H2500 H 0.49824 0.3109 0.40103 0.0
H2501 H 0.49314 0.34109 0.39742 0.0
C2502 C 0.72773 0.18122 0.35202 0.0
C2503 C 0.73854 0.17884 0.32 0.0
C2504 C 0.69375 0.13155 0.31 0.0
C2505 C 0.68218 0.13494 0.34115 0.0
N2506 N 0.68559 0.16519 0.38891 0.0
N2507 N 0.73167 0.15424 0.26673 0.0
C2508 C 0.69843 0.16048 0.3613 0.0
C2509 C 0.72144 0.15466 0.29843 0.0
N2510 N 0.74604 0.20263 0.37415 0.0
N2511 N 0.67865 0.10593 0.29212 0.0
H2512 H 0.75206 0.17084 0.2581 0.0
H2513 H 0.71941 0.13872 0.24828 0.0
H2514 H 0.6581 0.08887 0.29959 0.0
H2515 H 0.6871 0.10077 0.27104 0.0
H2516 H 0.74061 0.20363 0.39932 0.0
H2517 H 0.76778 0.21798 0.36829 0.0
H2518 H 0.69519 0.18483 0.40248 0.0
H2519 H 0.66415 0.15044 0.39659 0.0
C2520 C 0.84271 0.56322 0.29074 0.0
C2521 C 0.81786 0.55758 0.31033 0.0
C2522 C 0.83188 0.53372 0.35414 0.0
C2523 C 0.85834 0.54218 0.33626 0.0
N2524 N 0.89045 0.56551 0.28997 0.0
N2525 N 0.78897 0.53933 0.36101 0.0
C2526 C 0.86393 0.55686 0.3048 0.0
C2527 C 0.81239 0.54315 0.34209 0.0
N2528 N 0.84561 0.5745 0.25884 0.0
N2529 N 0.82518 0.51607 0.38207 0.0
H2530 H 0.77387 0.54523 0.35222 0.0
H2531 H 0.78534 0.53194 0.38599 0.0
H2532 H 0.83894 0.50855 0.39113 0.0
H2533 H 0.8051 0.50691 0.39463 0.0
H2534 H 0.8616 0.57687 0.24158 0.0
H2535 H 0.8304 0.57968 0.24871 0.0
H2536 H 0.89802 0.57807 0.26794 0.0
H2537 H 0.89802 0.57807 0.26794 0.0
C2538 C 0.61345 0.09519 0.90459 0.0
C2539 C 0.59726 0.10385 0.88357 0.0
C2540 C 0.63828 0.12688 0.84367 0.0
C2541 C 0.65357 0.11601 0.86319 0.0
N2542 N 0.65506 0.08731 0.91017 0.0
N2543 N 0.59177 0.1246 0.83174 0.0
C2544 C 0.64101 0.09951 0.89321 0.0
C2545 C 0.60903 0.11885 0.85272 0.0
N2546 N 0.60255 0.08343 0.93576 0.0
N2547 N 0.65205 0.1455 0.81709 0.0
H2548 H 0.57039 0.11926 0.83814 0.0
H2549 H 0.59772 0.13268 0.80717 0.0
H2550 H 0.67345 0.15179 0.80964 0.0
H2551 H 0.64322 0.15654 0.80403 0.0
H2552 H 0.61426 0.07903 0.95391 0.0
H2553 H 0.58234 0.08006 0.94446 0.0
H2554 H 0.64572 0.07256 0.93018 0.0
H2555 H 0.67548 0.09038 0.90278 0.0
C2556 C 0.9005 0.53793 0.87009 0.0
C2557 C 0.86988 0.52775 0.86748 0.0
C2558 C 0.85942 0.47946 0.88818 0.0
C2559 C 0.8897 0.49104 0.89542 0.0
N2560 N 0.93837 0.53315 0.8995 0.0
N2561 N 0.81996 0.49004 0.87956 0.0
C2562 C 0.91009 0.52082 0.88807 0.0
C2563 C 0.8492 0.4988 0.87805 0.0
N2564 N 0.92043 0.56338 0.85437 0.0
N2565 N 0.84064 0.44984 0.8896 0.0
H2566 H 0.81166 0.50376 0.87305 0.0
H2567 H 0.80436 0.47015 0.89027 0.0
H2568 H 0.84773 0.43498 0.89532 0.0
H2569 H 0.81883 0.43989 0.88157 0.0
H2570 H 0.94278 0.57028 0.85295 0.0
H2571 H 0.91431 0.57596 0.83963 0.0
H2572 H 0.95343 0.55556 0.89767 0.0
H2573 H 0.94583 0.52157 0.91398 0.0
C2574 C 0.49316 0.36115 0.87113 0.0
C2575 C 0.46372 0.34872 0.88265 0.0
C2576 C 0.47726 0.39299 0.91622 0.0
C2577 C 0.50592 0.40636 0.90226 0.0
N2578 N 0.54036 0.40544 0.86302 0.0
N2579 N 0.42655 0.3534 0.91323 0.0
C2580 C 0.51371 0.39098 0.87888 0.0
C2581 C 0.45543 0.36476 0.90455 0.0
N2582 N 0.50151 0.34425 0.85323 0.0
N2583 N 0.47125 0.40712 0.94129 0.0
H2584 H 0.41008 0.33251 0.90581 0.0
H2585 H 0.41851 0.3653 0.92592 0.0
H2586 H 0.48674 0.42798 0.94983 0.0
H2587 H 0.45186 0.39749 0.95527 0.0
H2588 H 0.52325 0.35106 0.847 0.0
H2589 H 0.48696 0.32236 0.84695 0.0
H2590 H 0.5464 0.39655 0.84311 0.0
H2591 H 0.55562 0.42744 0.86788 0.0
C2592 C 0.54305 0.69685 0.69526 0.0
C2593 C 0.55623 0.68235 0.71189 0.0
C2594 C 0.58202 0.72428 0.75052 0.0
C2595 C 0.57107 0.73975 0.7317 0.0
N2596 N 0.54599 0.74331 0.68236 0.0
N2597 N 0.59083 0.68312 0.75283 0.0
C2598 C 0.55282 0.72669 0.70305 0.0
C2599 C 0.57636 0.69624 0.739 0.0
N2600 N 0.52073 0.68187 0.67253 0.0
N2601 N 0.59733 0.73631 0.77974 0.0
H2602 H 0.58699 0.66248 0.74525 0.0
H2603 H 0.60802 0.69346 0.77015 0.0
H2604 H 0.60204 0.75699 0.78822 0.0
H2605 H 0.60347 0.72511 0.79668 0.0
H2606 H 0.50829 0.6904 0.66218 0.0
H2607 H 0.51277 0.65984 0.66639 0.0
H2608 H 0.53536 0.73594 0.65909 0.0
H2609 H 0.55347 0.7655 0.68685 0.0
C2610 C 0.30369 0.82945 0.69744 0.0
C2611 C 0.31915 0.85863 0.71014 0.0
C2612 C 0.27857 0.84741 0.74928 0.0
C2613 C 0.26207 0.81939 0.73409 0.0
N2614 N 0.25666 0.78456 0.69126 0.0
N2615 N 0.32052 0.89676 0.74556 0.0
C2616 C 0.27408 0.81057 0.70757 0.0
C2617 C 0.30646 0.86799 0.73556 0.0
N2618 N 0.31757 0.81969 0.67622 0.0
N2619 N 0.26761 0.85396 0.77724 0.0
H2620 H 0.34111 0.91239 0.73636 0.0
H2621 H 0.31102 0.90566 0.76122 0.0
H2622 H 0.2471 0.83924 0.78746 0.0
H2623 H 0.2796 0.87283 0.79179 0.0
H2624 H 0.3085 0.79787 0.66868 0.0
H2625 H 0.3393 0.83296 0.66839 0.0
H2626 H 0.26296 0.77809 0.66937 0.0
H2627 H 0.23484 0.77039 0.69816 0.0
C2628 C 0.11933 0.42555 0.73215 0.0
C2629 C 0.12485 0.44591 0.70549 0.0
C2630 C 0.1743 0.45277 0.69834 0.0
C2631 C 0.16986 0.43471 0.72698 0.0
N2632 N 0.14003 0.40707 0.7742 0.0
N2633 N 0.15987 0.48377 0.6683 0.0
C2634 C 0.14284 0.42197 0.74477 0.0
C2635 C 0.15303 0.46096 0.69006 0.0
N2636 N 0.09146 0.40892 0.74456 0.0
N2637 N 0.19826 0.46101 0.67811 0.0
H2638 H 0.14519 0.49099 0.66217 0.0
H2639 H 0.18102 0.49738 0.65902 0.0
H2640 H 0.21374 0.45451 0.68272 0.0
H2641 H 0.20115 0.47167 0.65494 0.0
H2642 H 0.08543 0.39164 0.76153 0.0
H2643 H 0.07373 0.41085 0.73584 0.0
H2644 H 0.12203 0.39969 0.79036 0.0
H2645 H 0.15694 0.40421 0.78381 0.0
C2646 C 0.36923 0.87374 0.19286 0.0
C2647 C 0.35175 0.88283 0.17469 0.0
C2648 C 0.38884 0.90332 0.12968 0.0
C2649 C 0.40729 0.89651 0.14921 0.0
N2650 N 0.41681 0.87712 0.19978 0.0
N2651 N 0.34559 0.90879 0.12778 0.0
C2652 C 0.39796 0.88226 0.18098 0.0
C2653 C 0.36168 0.89823 0.14351 0.0
N2654 N 0.3579 0.85611 0.22077 0.0
N2655 N 0.39728 0.91423 0.09766 0.0
H2656 H 0.32544 0.90518 0.13701 0.0
H2657 H 0.35298 0.92277 0.10689 0.0
H2658 H 0.41727 0.91846 0.08729 0.0
H2659 H 0.38381 0.9171 0.08053 0.0
H2660 H 0.36825 0.84628 0.23324 0.0
H2661 H 0.33692 0.84941 0.23018 0.0
H2662 H 0.41304 0.87005 0.22489 0.0
H2663 H 0.43721 0.88142 0.19067 0.0
C2664 C 0.08977 0.47599 0.1445 0.0
C2665 C 0.10022 0.50294 0.16197 0.0
C2666 C 0.12406 0.4875 0.20429 0.0
C2667 C 0.1119 0.45976 0.18803 0.0
N2668 N 0.07955 0.42557 0.14587 0.0
N2669 N 0.12226 0.53234 0.21182 0.0
C2670 C 0.09366 0.45339 0.15902 0.0
C2671 C 0.11597 0.50814 0.19285 0.0
N2672 N 0.07701 0.47254 0.11343 0.0
N2673 N 0.1441 0.49451 0.22989 0.0
H2674 H 0.1166 0.54787 0.20424 0.0
H2675 H 0.13075 0.53571 0.23635 0.0
H2676 H 0.15052 0.47993 0.23909 0.0
H2677 H 0.15615 0.51552 0.24016 0.0
H2678 H 0.0715 0.45473 0.09748 0.0
H2679 H 0.07416 0.48896 0.10254 0.0
H2680 H 0.06363 0.41874 0.12692 0.0
H2681 H 0.08204 0.4085 0.15575 0.0
C2682 C 0.53677 0.64147 0.14357 0.0
C2683 C 0.53395 0.65392 0.17429 0.0
C2684 C 0.48651 0.6099 0.18556 0.0
C2685 C 0.48863 0.59816 0.15415 0.0
N2686 N 0.51296 0.60297 0.10116 0.0
N2687 N 0.50436 0.65277 0.22172 0.0
C2688 C 0.51299 0.61409 0.13248 0.0
C2689 C 0.50825 0.63893 0.19451 0.0
N2690 N 0.56249 0.6554 0.12571 0.0
N2691 N 0.46411 0.59277 0.20723 0.0
H2692 H 0.51987 0.67405 0.22915 0.0
H2693 H 0.48482 0.64417 0.23535 0.0
H2694 H 0.44762 0.57153 0.20102 0.0
H2695 H 0.46298 0.59866 0.23216 0.0
H2696 H 0.56713 0.6462 0.10494 0.0
H2697 H 0.58016 0.67568 0.13293 0.0
H2698 H 0.52861 0.61446 0.08256 0.0
H2699 H 0.49589 0.58268 0.09294 0.0
C2700 C 0.1074 0.64094 0.65542 0.0
C2701 C 0.11973 0.65078 0.68822 0.0
C2702 C 0.11813 0.60394 0.69857 0.0
C2703 C 0.10749 0.59495 0.66523 0.0
N2704 N 0.09695 0.60603 0.60973 0.0
N2705 N 0.14247 0.64431 0.73831 0.0
C2706 C 0.10368 0.61389 0.64296 0.0
C2707 C 0.12672 0.63302 0.70908 0.0
N2708 N 0.09815 0.6568 0.63683 0.0
N2709 N 0.11928 0.58431 0.72036 0.0
H2710 H 0.14969 0.66574 0.74648 0.0
H2711 H 0.15065 0.63344 0.75287 0.0
H2712 H 0.11369 0.56307 0.71296 0.0
H2713 H 0.1237 0.58829 0.74619 0.0
H2714 H 0.08627 0.64926 0.61432 0.0
H2715 H 0.10026 0.67659 0.6452 0.0
H2716 H 0.09653 0.61994 0.59119 0.0
H2717 H 0.09424 0.5863 0.60019 0.0
C2718 C 0.36426 0.46518 0.64766 0.0
C2719 C 0.35195 0.46994 0.67741 0.0
C2720 C 0.39835 0.51543 0.68885 0.0
C2721 C 0.40992 0.51164 0.65812 0.0
N2722 N 0.40366 0.48565 0.60599 0.0
N2723 N 0.35519 0.50178 0.72332 0.0
C2724 C 0.39274 0.48725 0.63684 0.0
C2725 C 0.36843 0.49573 0.69718 0.0
N2726 N 0.34913 0.43918 0.63049 0.0
N2727 N 0.4164 0.53744 0.71049 0.0
H2728 H 0.33325 0.48796 0.73002 0.0
H2729 H 0.36508 0.52159 0.73654 0.0
H2730 H 0.43837 0.55224 0.70484 0.0
H2731 H 0.41042 0.53966 0.73501 0.0
H2732 H 0.35804 0.43304 0.61072 0.0
H2733 H 0.32813 0.4227 0.63748 0.0
H2734 H 0.39138 0.47015 0.58752 0.0
H2735 H 0.42468 0.50132 0.59798 0.0
C2736 C 0.54751 0.90708 0.64931 0.0
C2737 C 0.54121 0.88327 0.67142 0.0
C2738 C 0.48973 0.87118 0.67448 0.0
C2739 C 0.49557 0.89329 0.65025 0.0
N2740 N 0.52787 0.92757 0.60871 0.0
N2741 N 0.50487 0.83843 0.69855 0.0
C2742 C 0.52389 0.90986 0.63589 0.0
C2743 C 0.51184 0.86401 0.6821 0.0
N2744 N 0.57598 0.92771 0.64227 0.0
N2745 N 0.46344 0.85785 0.69115 0.0
H2746 H 0.52028 0.83191 0.70365 0.0
H2747 H 0.48334 0.82233 0.70406 0.0
H2748 H 0.44703 0.8631 0.68657 0.0
H2749 H 0.45903 0.84366 0.71159 0.0
H2750 H 0.58175 0.94699 0.62897 0.0
H2751 H 0.59396 0.92694 0.65234 0.0
H2752 H 0.54744 0.93831 0.59506 0.0
H2753 H 0.51049 0.92893 0.59776 0.0
C2754 C 0.2727 0.46055 0.20972 0.0
C2755 C 0.25927 0.4392 0.2355 0.0
C2756 C 0.30289 0.43387 0.23976 0.0
C2757 C 0.31675 0.45602 0.21468 0.0
N2758 N 0.31763 0.49448 0.18039 0.0
N2759 N 0.26228 0.40904 0.27927 0.0
C2760 C 0.30249 0.47068 0.20112 0.0
C2761 C 0.27467 0.42695 0.25185 0.0
N2762 N 0.25641 0.47008 0.19251 0.0
N2763 N 0.31621 0.41873 0.25096 0.0
H2764 H 0.24149 0.40355 0.28828 0.0
H2765 H 0.2733 0.4015 0.29458 0.0
H2766 H 0.33715 0.42362 0.24314 0.0
H2767 H 0.30591 0.4002 0.26637 0.0
H2768 H 0.26381 0.48329 0.17097 0.0
H2769 H 0.23447 0.4629 0.19831 0.0
H2770 H 0.3094 0.50784 0.17226 0.0
H2771 H 0.33952 0.50242 0.17357 0.0
C2772 C 0.53545 0.80638 0.20495 0.0
C2773 C 0.55183 0.8132 0.23549 0.0
C2774 C 0.551 0.8592 0.2405 0.0
C2775 C 0.53372 0.85187 0.21045 0.0
N2776 N 0.50376 0.81579 0.1686 0.0
N2777 N 0.57064 0.84242 0.28574 0.0
C2778 C 0.52403 0.82448 0.19418 0.0
C2779 C 0.55807 0.83849 0.25441 0.0
N2780 N 0.53222 0.78351 0.18534 0.0
N2781 N 0.56186 0.88643 0.2547 0.0
H2782 H 0.57599 0.82739 0.29611 0.0
H2783 H 0.57352 0.85902 0.30241 0.0
H2784 H 0.55699 0.90211 0.24542 0.0
H2785 H 0.57719 0.89423 0.27434 0.0
H2786 H 0.52334 0.7794 0.16097 0.0
H2787 H 0.54066 0.77001 0.19225 0.0
H2788 H 0.49377 0.79489 0.15784 0.0
H2789 H 0.49485 0.82858 0.16031 0.0
C2790 C 0.1242 0.6984 0.2324 0.0
C2791 C 0.13237 0.68168 0.21136 0.0
C2792 C 0.18277 0.72321 0.20924 0.0
C2793 C 0.17551 0.73843 0.23355 0.0
N2794 N 0.14048 0.73842 0.27273 0.0
N2795 N 0.17124 0.67593 0.1865 0.0
C2796 C 0.14651 0.72537 0.24647 0.0
C2797 C 0.16224 0.6934 0.20183 0.0
N2798 N 0.09517 0.6893 0.23771 0.0
N2799 N 0.2086 0.73768 0.19175 0.0
H2800 H 0.15709 0.65366 0.18164 0.0
H2801 H 0.1933 0.6828 0.18194 0.0
H2802 H 0.22331 0.76008 0.19472 0.0
H2803 H 0.21372 0.72826 0.17153 0.0
H2804 H 0.08803 0.70212 0.25007 0.0
H2805 H 0.07813 0.67023 0.22696 0.0
H2806 H 0.12045 0.72852 0.28552 0.0
H2807 H 0.1565 0.75796 0.28373 0.0
loop_
_geom_bond_atom_site_label_1
_geom_bond_atom_site_label_2
_geom_bond_distance
_geom_bond_site_symmetry_2
_ccdc_geom_bond_type
C0 C1 1.351 . S
C0 N3 1.368 . S
C0 H5 0.931 . S
C1 C0 1.351 . S
C1 N2 1.373 . S
C1 H29 0.930 . S
N2 C1 1.373 . S
N2 C4 1.340 . S
N3 C0 1.368 . S
N3 C4 1.321 . S
N3 Co6 2.135 . S
C4 N2 1.340 . S
C4 N3 1.321 . S
C4 H28 0.930 1_554 S
H5 C0 0.931 . S
Co6 N3 2.135 . S
Co6 N9 2.121 . S
Co6 O14 2.055 . S
Co6 O17 2.039 . S
Co6 N20 2.140 . S
C7 O8 1.227 . S
C7 O17 1.265 1_556 S
O8 C7 1.227 . S
N9 Co6 2.121 . S
N9 C11 1.375 . S
N9 C12 1.313 . S
C10 C11 1.338 . S
C10 N13 1.377 . S
C10 H30 0.930 . S
C11 N9 1.375 . S
C11 C10 1.338 . S
C11 H15 0.931 . S
C12 N9 1.313 . S
C12 N13 1.344 . S
C12 H16 0.930 . S
N13 C10 1.377 . S
N13 C12 1.344 . S
O14 Co6 2.055 . S
O14 C18 1.253 . S
H15 C11 0.931 . S
H16 C12 0.930 . S
O17 Co6 2.039 . S
O17 C7 1.265 1_554 S
C18 O14 1.253 . S
C18 O19 1.227 . S
O19 C18 1.227 . S
N20 Co6 2.140 . S
N20 C23 1.346 . S
N20 C24 1.345 . S
C21 C22 1.387 . S
C21 C25 1.391 . S
C22 C21 1.387 . S
C22 C23 1.369 . S
C22 H31 0.929 1_554 S
C23 N20 1.346 . S
C23 C22 1.369 . S
C23 H26 0.928 . S
C24 N20 1.345 . S
C24 C25 1.371 . S
C24 H27 0.931 . S
C25 C21 1.391 . S
C25 C24 1.371 . S
C25 H32 0.930 . S
H26 C23 0.928 . S
H27 C24 0.931 . S
H28 C4 0.930 1_556 S
H29 C1 0.930 . S
H30 C10 0.930 . S
H31 C22 0.929 1_556 S
H32 C25 0.930 . S
C33 C34 1.351 . S
C33 N36 1.368 . S
C33 H38 0.931 . S
C34 C33 1.351 . S
C34 N35 1.373 . S
C34 H62 0.930 . S
N35 C34 1.373 . S
N35 C37 1.340 . S
N36 C33 1.368 . S
N36 C37 1.321 . S
N36 Co39 2.135 . S
C37 N35 1.340 . S
C37 N36 1.321 . S
C37 H61 0.930 1_554 S
H38 C33 0.931 . S
Co39 N36 2.135 . S
Co39 N42 2.121 . S
Co39 O47 2.055 . S
Co39 O50 2.039 . S
Co39 N53 2.140 . S
C40 O41 1.227 . S
C40 O50 1.265 1_556 S
O41 C40 1.227 . S
N42 Co39 2.121 . S
N42 C44 1.375 . S
N42 C45 1.313 . S
C43 C44 1.338 . S
C43 N46 1.377 . S
C43 H63 0.930 . S
C44 N42 1.375 . S
C44 C43 1.338 . S
C44 H48 0.931 . S
C45 N42 1.313 . S
C45 N46 1.344 . S
C45 H49 0.930 . S
N46 C43 1.377 . S
N46 C45 1.344 . S
O47 Co39 2.055 . S
O47 C51 1.253 . S
H48 C44 0.931 . S
H49 C45 0.930 . S
O50 Co39 2.039 . S
O50 C40 1.265 1_554 S
C51 O47 1.253 . S
C51 O52 1.227 . S
O52 C51 1.227 . S
N53 Co39 2.140 . S
N53 C56 1.346 . S
N53 C57 1.345 . S
C54 C55 1.387 . S
C54 C58 1.391 . S
C55 C54 1.387 . S
C55 C56 1.369 . S
C55 H64 0.929 1_554 S
C56 N53 1.346 . S
C56 C55 1.369 . S
C56 H59 0.928 . S
C57 N53 1.345 . S
C57 C58 1.371 . S
C57 H60 0.931 . S
C58 C54 1.391 . S
C58 C57 1.371 . S
C58 H65 0.930 . S
H59 C56 0.928 . S
H60 C57 0.931 . S
H61 C37 0.930 1_556 S
H62 C34 0.930 . S
H63 C43 0.930 . S
H64 C55 0.929 1_556 S
H65 C58 0.930 . S
C66 C67 1.351 . S
C66 N69 1.368 . S
C66 H71 0.931 . S
C67 C66 1.351 . S
C67 N68 1.373 . S
C67 H95 0.930 . S
N68 C67 1.373 . S
N68 C70 1.340 . S
N69 C66 1.368 . S
N69 C70 1.321 . S
N69 Co72 2.135 . S
C70 N68 1.340 . S
C70 N69 1.321 . S
C70 H94 0.930 1_554 S
H71 C66 0.931 . S
Co72 N69 2.135 . S
Co72 N75 2.121 . S
Co72 O80 2.055 . S
Co72 O83 2.039 . S
Co72 N86 2.140 . S
C73 O74 1.227 . S
C73 O83 1.265 1_556 S
O74 C73 1.227 . S
N75 Co72 2.121 . S
N75 C77 1.375 . S
N75 C78 1.313 . S
C76 C77 1.338 . S
C76 N79 1.377 . S
C76 H96 0.930 . S
C77 N75 1.375 . S
C77 C76 1.338 . S
C77 H81 0.931 . S
C78 N75 1.313 . S
C78 N79 1.344 . S
C78 H82 0.930 . S
N79 C76 1.377 . S
N79 C78 1.344 . S
O80 Co72 2.055 . S
O80 C84 1.253 . S
H81 C77 0.931 . S
H82 C78 0.930 . S
O83 Co72 2.039 . S
O83 C73 1.265 1_554 S
C84 O80 1.253 . S
C84 O85 1.227 . S
O85 C84 1.227 . S
N86 Co72 2.140 . S
N86 C89 1.346 . S
N86 C90 1.345 . S
C87 C88 1.387 . S
C87 C91 1.391 . S
C88 C87 1.387 . S
C88 C89 1.369 . S
C88 H97 0.929 1_554 S
C89 N86 1.346 . S
C89 C88 1.369 . S
C89 H92 0.928 . S
C90 N86 1.345 . S
C90 C91 1.371 . S
C90 H93 0.931 . S
C91 C87 1.391 . S
C91 C90 1.371 . S
C91 H98 0.930 . S
H92 C89 0.928 . S
H93 C90 0.931 . S
H94 C70 0.930 1_556 S
H95 C67 0.930 . S
H96 C76 0.930 . S
H97 C88 0.929 1_556 S
H98 C91 0.930 . S
C99 C100 1.351 . S
C99 N102 1.368 . S
C99 H104 0.931 . S
C100 C99 1.351 . S
C100 N101 1.373 . S
C100 H128 0.930 . S
N101 C100 1.373 . S
N101 C103 1.340 . S
N102 C99 1.368 . S
N102 C103 1.321 . S
N102 Co105 2.135 . S
C103 N101 1.340 . S
C103 N102 1.321 . S
C103 H127 0.930 . S
H104 C99 0.931 . S
Co105 N102 2.135 . S
Co105 N108 2.121 . S
Co105 O113 2.055 . S
Co105 O116 2.039 . S
Co105 N119 2.140 . S
C106 O107 1.227 . S
C106 O116 1.265 . S
O107 C106 1.227 . S
N108 Co105 2.121 . S
N108 C110 1.375 . S
N108 C111 1.313 . S
C109 C110 1.338 . S
C109 N112 1.377 . S
C109 H129 0.930 . S
C110 N108 1.375 . S
C110 C109 1.338 . S
C110 H114 0.931 . S
C111 N108 1.313 . S
C111 N112 1.344 . S
C111 H115 0.930 . S
N112 C109 1.377 . S
N112 C111 1.344 . S
O113 Co105 2.055 . S
O113 C117 1.253 . S
H114 C110 0.931 . S
H115 C111 0.930 . S
O116 Co105 2.039 . S
O116 C106 1.265 . S
C117 O113 1.253 . S
C117 O118 1.227 . S
O118 C117 1.227 . S
N119 Co105 2.140 . S
N119 C122 1.346 . S
N119 C123 1.345 . S
C120 C121 1.387 . S
C120 C124 1.391 . S
C121 C120 1.387 . S
C121 C122 1.369 . S
C121 H130 0.929 . S
C122 N119 1.346 . S
C122 C121 1.369 . S
C122 H125 0.928 . S
C123 N119 1.345 . S
C123 C124 1.371 . S
C123 H126 0.931 . S
C124 C120 1.391 . S
C124 C123 1.371 . S
C124 H131 0.930 . S
H125 C122 0.928 . S
H126 C123 0.931 . S
H127 C103 0.930 . S
H128 C100 0.930 . S
H129 C109 0.930 . S
H130 C121 0.929 . S
H131 C124 0.930 . S
C132 C133 1.351 . S
C132 N135 1.368 . S
C132 H137 0.931 . S
C133 C132 1.351 . S
C133 N134 1.373 . S
C133 H161 0.930 . S
N134 C133 1.373 . S
N134 C136 1.340 . S
N135 C132 1.368 . S
N135 C136 1.321 . S
N135 Co138 2.135 . S
C136 N134 1.340 . S
C136 N135 1.321 . S
C136 H160 0.930 . S
H137 C132 0.931 . S
Co138 N135 2.135 . S
Co138 N141 2.121 . S
Co138 O146 2.055 . S
Co138 O149 2.039 . S
Co138 N152 2.140 . S
C139 O140 1.227 . S
C139 O149 1.265 . S
O140 C139 1.227 . S
N141 Co138 2.121 . S
N141 C143 1.375 . S
N141 C144 1.313 . S
C142 C143 1.338 . S
C142 N145 1.377 . S
C142 H162 0.930 . S
C143 N141 1.375 . S
C143 C142 1.338 . S
C143 H147 0.931 . S
C144 N141 1.313 . S
C144 N145 1.344 . S
C144 H148 0.930 . S
N145 C142 1.377 . S
N145 C144 1.344 . S
O146 Co138 2.055 . S
O146 C150 1.253 . S
H147 C143 0.931 . S
H148 C144 0.930 . S
O149 Co138 2.039 . S
O149 C139 1.265 . S
C150 O146 1.253 . S
C150 O151 1.227 . S
O151 C150 1.227 . S
N152 Co138 2.140 . S
N152 C155 1.346 . S
N152 C156 1.345 . S
C153 C154 1.387 . S
C153 C157 1.391 . S
C154 C153 1.387 . S
C154 C155 1.369 . S
C154 H163 0.929 . S
C155 N152 1.346 . S
C155 C154 1.369 . S
C155 H158 0.928 . S
C156 N152 1.345 . S
C156 C157 1.371 . S
C156 H159 0.931 . S
C157 C153 1.391 . S
C157 C156 1.371 . S
C157 H164 0.930 . S
H158 C155 0.928 . S
H159 C156 0.931 . S
H160 C136 0.930 . S
H161 C133 0.930 . S
H162 C142 0.930 . S
H163 C154 0.929 . S
H164 C157 0.930 . S
C165 C166 1.351 . S
C165 N168 1.368 . S
C165 H170 0.931 . S
C166 C165 1.351 . S
C166 N167 1.373 . S
C166 H194 0.930 . S
N167 C166 1.373 . S
N167 C169 1.340 . S
N168 C165 1.368 . S
N168 C169 1.321 . S
N168 Co171 2.135 . S
C169 N167 1.340 . S
C169 N168 1.321 . S
C169 H193 0.930 . S
H170 C165 0.931 . S
Co171 N168 2.135 . S
Co171 N174 2.121 . S
Co171 O179 2.055 . S
Co171 O182 2.039 . S
Co171 N185 2.140 . S
C172 O173 1.227 . S
C172 O182 1.265 . S
O173 C172 1.227 . S
N174 Co171 2.121 . S
N174 C176 1.375 . S
N174 C177 1.313 . S
C175 C176 1.338 . S
C175 N178 1.377 . S
C175 H195 0.930 . S
C176 N174 1.375 . S
C176 C175 1.338 . S
C176 H180 0.931 . S
C177 N174 1.313 . S
C177 N178 1.344 . S
C177 H181 0.930 . S
N178 C175 1.377 . S
N178 C177 1.344 . S
O179 Co171 2.055 . S
O179 C183 1.253 . S
H180 C176 0.931 . S
H181 C177 0.930 . S
O182 Co171 2.039 . S
O182 C172 1.265 . S
C183 O179 1.253 . S
C183 O184 1.227 . S
O184 C183 1.227 . S
N185 Co171 2.140 . S
N185 C188 1.346 . S
N185 C189 1.345 . S
C186 C187 1.387 . S
C186 C190 1.391 . S
C187 C186 1.387 . S
C187 C188 1.369 . S
C187 H196 0.929 . S
C188 N185 1.346 . S
C188 C187 1.369 . S
C188 H191 0.928 . S
C189 N185 1.345 . S
C189 C190 1.371 . S
C189 H192 0.931 . S
C190 C186 1.391 . S
C190 C189 1.371 . S
C190 H197 0.930 . S
H191 C188 0.928 . S
H192 C189 0.931 . S
H193 C169 0.930 . S
H194 C166 0.930 . S
H195 C175 0.930 . S
H196 C187 0.929 . S
H197 C190 0.930 . S
C198 C199 1.351 . S
C198 N201 1.368 . S
C198 H203 0.931 . S
C199 C198 1.351 . S
C199 N200 1.373 . S
C199 H227 0.930 . S
N200 C199 1.373 . S
N200 C202 1.340 . S
N201 C198 1.368 . S
N201 C202 1.321 . S
N201 Co204 2.135 . S
C202 N200 1.340 . S
C202 N201 1.321 . S
C202 H226 0.930 1_556 S
H203 C198 0.931 . S
Co204 N201 2.135 . S
Co204 N207 2.121 . S
Co204 O212 2.055 . S
Co204 O215 2.039 . S
Co204 N218 2.140 . S
C205 O206 1.227 . S
C205 O215 1.265 1_554 S
O206 C205 1.227 . S
N207 Co204 2.121 . S
N207 C209 1.375 . S
N207 C210 1.313 . S
C208 C209 1.338 . S
C208 N211 1.377 . S
C208 H228 0.930 . S
C209 N207 1.375 . S
C209 C208 1.338 . S
C209 H213 0.931 . S
C210 N207 1.313 . S
C210 N211 1.344 . S
C210 H214 0.930 . S
N211 C208 1.377 . S
N211 C210 1.344 . S
O212 Co204 2.055 . S
O212 C216 1.253 . S
H213 C209 0.931 . S
H214 C210 0.930 . S
O215 Co204 2.039 . S
O215 C205 1.265 1_556 S
C216 O212 1.253 . S
C216 O217 1.227 . S
O217 C216 1.227 . S
N218 Co204 2.140 . S
N218 C221 1.346 . S
N218 C222 1.345 . S
C219 C220 1.387 . S
C219 C223 1.391 . S
C220 C219 1.387 . S
C220 C221 1.369 . S
C220 H229 0.929 1_556 S
C221 N218 1.346 . S
C221 C220 1.369 . S
C221 H224 0.928 . S
C222 N218 1.345 . S
C222 C223 1.371 . S
C222 H225 0.931 . S
C223 C219 1.391 . S
C223 C222 1.371 . S
C223 H230 0.930 . S
H224 C221 0.928 . S
H225 C222 0.931 . S
H226 C202 0.930 1_554 S
H227 C199 0.930 . S
H228 C208 0.930 . S
H229 C220 0.929 1_554 S
H230 C223 0.930 . S
C231 C232 1.351 . S
C231 N234 1.368 . S
C231 H236 0.931 . S
C232 C231 1.351 . S
C232 N233 1.373 . S
C232 H260 0.930 . S
N233 C232 1.373 . S
N233 C235 1.340 . S
N234 C231 1.368 . S
N234 C235 1.321 . S
N234 Co237 2.135 . S
C235 N233 1.340 . S
C235 N234 1.321 . S
C235 H259 0.930 1_556 S
H236 C231 0.931 . S
Co237 N234 2.135 . S
Co237 N240 2.121 . S
Co237 O245 2.055 . S
Co237 O248 2.039 . S
Co237 N251 2.140 . S
C238 O239 1.227 . S
C238 O248 1.265 1_554 S
O239 C238 1.227 . S
N240 Co237 2.121 . S
N240 C242 1.375 . S
N240 C243 1.313 . S
C241 C242 1.338 . S
C241 N244 1.377 . S
C241 H261 0.930 . S
C242 N240 1.375 . S
C242 C241 1.338 . S
C242 H246 0.931 . S
C243 N240 1.313 . S
C243 N244 1.344 . S
C243 H247 0.930 . S
N244 C241 1.377 . S
N244 C243 1.344 . S
O245 Co237 2.055 . S
O245 C249 1.253 . S
H246 C242 0.931 . S
H247 C243 0.930 . S
O248 Co237 2.039 . S
O248 C238 1.265 1_556 S
C249 O245 1.253 . S
C249 O250 1.227 . S
O250 C249 1.227 . S
N251 Co237 2.140 . S
N251 C254 1.346 . S
N251 C255 1.345 . S
C252 C253 1.387 . S
C252 C256 1.391 . S
C253 C252 1.387 . S
C253 C254 1.369 . S
C253 H262 0.929 1_556 S
C254 N251 1.346 . S
C254 C253 1.369 . S
C254 H257 0.928 . S
C255 N251 1.345 . S
C255 C256 1.371 . S
C255 H258 0.931 . S
C256 C252 1.391 . S
C256 C255 1.371 . S
C256 H263 0.930 . S
H257 C254 0.928 . S
H258 C255 0.931 . S
H259 C235 0.930 1_554 S
H260 C232 0.930 . S
H261 C241 0.930 . S
H262 C253 0.929 1_554 S
H263 C256 0.930 . S
C264 C265 1.351 . S
C264 N267 1.368 . S
C264 H269 0.931 . S
C265 C264 1.351 . S
C265 N266 1.373 . S
C265 H293 0.930 . S
N266 C265 1.373 . S
N266 C268 1.340 . S
N267 C264 1.368 . S
N267 C268 1.321 . S
N267 Co270 2.135 . S
C268 N266 1.340 . S
C268 N267 1.321 . S
C268 H292 0.930 1_556 S
H269 C264 0.931 . S
Co270 N267 2.135 . S
Co270 N273 2.121 . S
Co270 O278 2.055 . S
Co270 O281 2.039 . S
Co270 N284 2.140 . S
C271 O272 1.227 . S
C271 O281 1.265 1_554 S
O272 C271 1.227 . S
N273 Co270 2.121 . S
N273 C275 1.375 . S
N273 C276 1.313 . S
C274 C275 1.338 . S
C274 N277 1.377 . S
C274 H294 0.930 . S
C275 N273 1.375 . S
C275 C274 1.338 . S
C275 H279 0.931 . S
C276 N273 1.313 . S
C276 N277 1.344 . S
C276 H280 0.930 . S
N277 C274 1.377 . S
N277 C276 1.344 . S
O278 Co270 2.055 . S
O278 C282 1.253 . S
H279 C275 0.931 . S
H280 C276 0.930 . S
O281 Co270 2.039 . S
O281 C271 1.265 1_556 S
C282 O278 1.253 . S
C282 O283 1.227 . S
O283 C282 1.227 . S
N284 Co270 2.140 . S
N284 C287 1.346 . S
N284 C288 1.345 . S
C285 C286 1.387 . S
C285 C289 1.391 . S
C286 C285 1.387 . S
C286 C287 1.369 . S
C286 H295 0.929 1_556 S
C287 N284 1.346 . S
C287 C286 1.369 . S
C287 H290 0.928 . S
C288 N284 1.345 . S
C288 C289 1.371 . S
C288 H291 0.931 . S
C289 C285 1.391 . S
C289 C288 1.371 . S
C289 H296 0.930 . S
H290 C287 0.928 . S
H291 C288 0.931 . S
H292 C268 0.930 1_554 S
H293 C265 0.930 . S
H294 C274 0.930 . S
H295 C286 0.929 1_554 S
H296 C289 0.930 . S
C297 C298 1.351 . S
C297 N300 1.368 . S
C297 H302 0.931 . S
C298 C297 1.351 . S
C298 N299 1.373 . S
C298 H326 0.930 . S
N299 C298 1.373 . S
N299 C301 1.340 . S
N300 C297 1.368 . S
N300 C301 1.321 . S
N300 Co303 2.135 . S
C301 N299 1.340 . S
C301 N300 1.321 . S
C301 H325 0.930 . S
H302 C297 0.931 . S
Co303 N300 2.135 . S
Co303 N306 2.121 . S
Co303 O311 2.055 . S
Co303 O314 2.039 . S
Co303 N317 2.140 . S
C304 O305 1.227 . S
C304 O314 1.265 . S
O305 C304 1.227 . S
N306 Co303 2.121 . S
N306 C308 1.375 . S
N306 C309 1.313 . S
C307 C308 1.338 . S
C307 N310 1.377 . S
C307 H327 0.930 . S
C308 N306 1.375 . S
C308 C307 1.338 . S
C308 H312 0.931 . S
C309 N306 1.313 . S
C309 N310 1.344 . S
C309 H313 0.930 . S
N310 C307 1.377 . S
N310 C309 1.344 . S
O311 Co303 2.055 . S
O311 C315 1.253 . S
H312 C308 0.931 . S
H313 C309 0.930 . S
O314 Co303 2.039 . S
O314 C304 1.265 . S
C315 O311 1.253 . S
C315 O316 1.227 . S
O316 C315 1.227 . S
N317 Co303 2.140 . S
N317 C320 1.346 . S
N317 C321 1.345 . S
C318 C319 1.387 . S
C318 C322 1.391 . S
C319 C318 1.387 . S
C319 C320 1.369 . S
C319 H328 0.929 . S
C320 N317 1.346 . S
C320 C319 1.369 . S
C320 H323 0.928 . S
C321 N317 1.345 . S
C321 C322 1.371 . S
C321 H324 0.931 . S
C322 C318 1.391 . S
C322 C321 1.371 . S
C322 H329 0.930 . S
H323 C320 0.928 . S
H324 C321 0.931 . S
H325 C301 0.930 . S
H326 C298 0.930 . S
H327 C307 0.930 . S
H328 C319 0.929 . S
H329 C322 0.930 . S
C330 C331 1.351 . S
C330 N333 1.368 . S
C330 H335 0.931 . S
C331 C330 1.351 . S
C331 N332 1.373 . S
C331 H359 0.930 . S
N332 C331 1.373 . S
N332 C334 1.340 . S
N333 C330 1.368 . S
N333 C334 1.321 . S
N333 Co336 2.135 . S
C334 N332 1.340 . S
C334 N333 1.321 . S
C334 H358 0.930 . S
H335 C330 0.931 . S
Co336 N333 2.135 . S
Co336 N339 2.121 . S
Co336 O344 2.055 . S
Co336 O347 2.039 . S
Co336 N350 2.140 . S
C337 O338 1.227 . S
C337 O347 1.265 . S
O338 C337 1.227 . S
N339 Co336 2.121 . S
N339 C341 1.375 . S
N339 C342 1.313 . S
C340 C341 1.338 . S
C340 N343 1.377 . S
C340 H360 0.930 . S
C341 N339 1.375 . S
C341 C340 1.338 . S
C341 H345 0.931 . S
C342 N339 1.313 . S
C342 N343 1.344 . S
C342 H346 0.930 . S
N343 C340 1.377 . S
N343 C342 1.344 . S
O344 Co336 2.055 . S
O344 C348 1.253 . S
H345 C341 0.931 . S
H346 C342 0.930 . S
O347 Co336 2.039 . S
O347 C337 1.265 . S
C348 O344 1.253 . S
C348 O349 1.227 . S
O349 C348 1.227 . S
N350 Co336 2.140 . S
N350 C353 1.346 . S
N350 C354 1.345 . S
C351 C352 1.387 . S
C351 C355 1.391 . S
C352 C351 1.387 . S
C352 C353 1.369 . S
C352 H361 0.929 . S
C353 N350 1.346 . S
C353 C352 1.369 . S
C353 H356 0.928 . S
C354 N350 1.345 . S
C354 C355 1.371 . S
C354 H357 0.931 . S
C355 C351 1.391 . S
C355 C354 1.371 . S
C355 H362 0.930 . S
H356 C353 0.928 . S
H357 C354 0.931 . S
H358 C334 0.930 . S
H359 C331 0.930 . S
H360 C340 0.930 . S
H361 C352 0.929 . S
H362 C355 0.930 . S
C363 C364 1.351 . S
C363 N366 1.368 . S
C363 H368 0.931 . S
C364 C363 1.351 . S
C364 N365 1.373 . S
C364 H392 0.930 . S
N365 C364 1.373 . S
N365 C367 1.340 . S
N366 C363 1.368 . S
N366 C367 1.321 . S
N366 Co369 2.135 . S
C367 N365 1.340 . S
C367 N366 1.321 . S
C367 H391 0.930 . S
H368 C363 0.931 . S
Co369 N366 2.135 . S
Co369 N372 2.121 . S
Co369 O377 2.055 . S
Co369 O380 2.039 . S
Co369 N383 2.140 . S
C370 O371 1.227 . S
C370 O380 1.265 . S
O371 C370 1.227 . S
N372 Co369 2.121 . S
N372 C374 1.375 . S
N372 C375 1.313 . S
C373 C374 1.338 . S
C373 N376 1.377 . S
C373 H393 0.930 . S
C374 N372 1.375 . S
C374 C373 1.338 . S
C374 H378 0.931 . S
C375 N372 1.313 . S
C375 N376 1.344 . S
C375 H379 0.930 . S
N376 C373 1.377 . S
N376 C375 1.344 . S
O377 Co369 2.055 . S
O377 C381 1.253 . S
H378 C374 0.931 . S
H379 C375 0.930 . S
O380 Co369 2.039 . S
O380 C370 1.265 . S
C381 O377 1.253 . S
C381 O382 1.227 . S
O382 C381 1.227 . S
N383 Co369 2.140 . S
N383 C386 1.346 . S
N383 C387 1.345 . S
C384 C385 1.387 . S
C384 C388 1.391 . S
C385 C384 1.387 . S
C385 C386 1.369 . S
C385 H394 0.929 . S
C386 N383 1.346 . S
C386 C385 1.369 . S
C386 H389 0.928 . S
C387 N383 1.345 . S
C387 C388 1.371 . S
C387 H390 0.931 . S
C388 C384 1.391 . S
C388 C387 1.371 . S
C388 H395 0.930 . S
H389 C386 0.928 . S
H390 C387 0.931 . S
H391 C367 0.930 . S
H392 C364 0.930 . S
H393 C373 0.930 . S
H394 C385 0.929 . S
H395 C388 0.930 . S
C396 C397 1.351 . S
C396 N399 1.368 . S
C396 H401 0.931 . S
C397 C396 1.351 . S
C397 N398 1.373 . S
C397 H425 0.930 . S
N398 C397 1.373 . S
N398 C400 1.340 . S
N399 C396 1.368 . S
N399 C400 1.321 . S
N399 Co402 2.135 . S
C400 N398 1.340 . S
C400 N399 1.321 . S
C400 H424 0.930 . S
H401 C396 0.931 . S
Co402 N399 2.135 . S
Co402 N405 2.121 . S
Co402 O410 2.055 . S
Co402 O413 2.039 . S
Co402 N416 2.140 . S
C403 O404 1.227 . S
C403 O413 1.265 . S
O404 C403 1.227 . S
N405 Co402 2.121 . S
N405 C407 1.375 . S
N405 C408 1.313 . S
C406 C407 1.338 . S
C406 N409 1.377 1_655 S
C406 H426 0.930 1_655 S
C407 N405 1.375 . S
C407 C406 1.338 . S
C407 H411 0.931 . S
C408 N405 1.313 . S
C408 N409 1.344 1_655 S
C408 H412 0.930 . S
N409 C406 1.377 1_455 S
N409 C408 1.344 1_455 S
O410 Co402 2.055 . S
O410 C414 1.253 . S
H411 C407 0.931 . S
H412 C408 0.930 . S
O413 Co402 2.039 . S
O413 C403 1.265 . S
C414 O410 1.253 . S
C414 O415 1.227 . S
O415 C414 1.227 . S
N416 Co402 2.140 . S
N416 C419 1.346 . S
N416 C420 1.345 . S
C417 C418 1.387 . S
C417 C421 1.391 . S
C418 C417 1.387 . S
C418 C419 1.369 . S
C418 H427 0.929 . S
C419 N416 1.346 . S
C419 C418 1.369 . S
C419 H422 0.928 . S
C420 N416 1.345 . S
C420 C421 1.371 . S
C420 H423 0.931 . S
C421 C417 1.391 . S
C421 C420 1.371 . S
C421 H428 0.930 . S
H422 C419 0.928 . S
H423 C420 0.931 . S
H424 C400 0.930 . S
H425 C397 0.930 . S
H426 C406 0.930 1_455 S
H427 C418 0.929 . S
H428 C421 0.930 . S
C429 C430 1.351 . S
C429 N432 1.368 . S
C429 H434 0.931 . S
C430 C429 1.351 . S
C430 N431 1.373 . S
C430 H458 0.930 . S
N431 C430 1.373 . S
N431 C433 1.340 . S
N432 C429 1.368 . S
N432 C433 1.321 . S
N432 Co435 2.135 . S
C433 N431 1.340 . S
C433 N432 1.321 . S
C433 H457 0.930 . S
H434 C429 0.931 . S
Co435 N432 2.135 . S
Co435 N438 2.121 . S
Co435 O443 2.055 . S
Co435 O446 2.039 . S
Co435 N449 2.140 . S
C436 O437 1.227 . S
C436 O446 1.265 . S
O437 C436 1.227 . S
N438 Co435 2.121 . S
N438 C440 1.375 . S
N438 C441 1.313 . S
C439 C440 1.338 . S
C439 N442 1.377 . S
C439 H459 0.930 . S
C440 N438 1.375 . S
C440 C439 1.338 . S
C440 H444 0.931 . S
C441 N438 1.313 . S
C441 N442 1.344 . S
C441 H445 0.930 . S
N442 C439 1.377 . S
N442 C441 1.344 . S
O443 Co435 2.055 . S
O443 C447 1.253 . S
H444 C440 0.931 . S
H445 C441 0.930 . S
O446 Co435 2.039 . S
O446 C436 1.265 . S
C447 O443 1.253 . S
C447 O448 1.227 . S
O448 C447 1.227 . S
N449 Co435 2.140 . S
N449 C452 1.346 . S
N449 C453 1.345 . S
C450 C451 1.387 . S
C450 C454 1.391 . S
C451 C450 1.387 . S
C451 C452 1.369 . S
C451 H460 0.929 . S
C452 N449 1.346 . S
C452 C451 1.369 . S
C452 H455 0.928 . S
C453 N449 1.345 . S
C453 C454 1.371 . S
C453 H456 0.931 . S
C454 C450 1.391 . S
C454 C453 1.371 . S
C454 H461 0.930 . S
H455 C452 0.928 . S
H456 C453 0.931 . S
H457 C433 0.930 . S
H458 C430 0.930 . S
H459 C439 0.930 . S
H460 C451 0.929 . S
H461 C454 0.930 . S
C462 C463 1.351 . S
C462 N465 1.368 . S
C462 H467 0.931 . S
C463 C462 1.351 . S
C463 N464 1.373 . S
C463 H491 0.930 . S
N464 C463 1.373 . S
N464 C466 1.340 . S
N465 C462 1.368 . S
N465 C466 1.321 . S
N465 Co468 2.135 . S
C466 N464 1.340 . S
C466 N465 1.321 . S
C466 H490 0.930 . S
H467 C462 0.931 . S
Co468 N465 2.135 . S
Co468 N471 2.121 . S
Co468 O476 2.055 . S
Co468 O479 2.039 . S
Co468 N482 2.140 . S
C469 O470 1.227 . S
C469 O479 1.265 . S
O470 C469 1.227 . S
N471 Co468 2.121 . S
N471 C473 1.375 . S
N471 C474 1.313 . S
C472 C473 1.338 . S
C472 N475 1.377 1_545 S
C472 H492 0.930 1_545 S
C473 N471 1.375 . S
C473 C472 1.338 . S
C473 H477 0.931 . S
C474 N471 1.313 . S
C474 N475 1.344 1_545 S
C474 H478 0.930 . S
N475 C472 1.377 1_565 S
N475 C474 1.344 1_565 S
O476 Co468 2.055 . S
O476 C480 1.253 . S
H477 C473 0.931 . S
H478 C474 0.930 . S
O479 Co468 2.039 . S
O479 C469 1.265 . S
C480 O476 1.253 . S
C480 O481 1.227 . S
O481 C480 1.227 . S
N482 Co468 2.140 . S
N482 C485 1.346 . S
N482 C486 1.345 . S
C483 C484 1.387 . S
C483 C487 1.391 . S
C484 C483 1.387 . S
C484 C485 1.369 . S
C484 H493 0.929 . S
C485 N482 1.346 . S
C485 C484 1.369 . S
C485 H488 0.928 . S
C486 N482 1.345 . S
C486 C487 1.371 . S
C486 H489 0.931 . S
C487 C483 1.391 . S
C487 C486 1.371 . S
C487 H494 0.930 . S
H488 C485 0.928 . S
H489 C486 0.931 . S
H490 C466 0.930 . S
H491 C463 0.930 . S
H492 C472 0.930 1_565 S
H493 C484 0.929 . S
H494 C487 0.930 . S
C495 C496 1.351 . S
C495 N498 1.368 . S
C495 H500 0.931 . S
C496 C495 1.351 . S
C496 N497 1.373 . S
C496 H524 0.930 . S
N497 C496 1.373 . S
N497 C499 1.340 . S
N498 C495 1.368 . S
N498 C499 1.321 . S
N498 Co501 2.135 . S
C499 N497 1.340 . S
C499 N498 1.321 . S
C499 H523 0.930 . S
H500 C495 0.931 . S
Co501 N498 2.135 . S
Co501 N504 2.121 . S
Co501 O509 2.055 . S
Co501 O512 2.039 . S
Co501 N515 2.140 . S
C502 O503 1.227 . S
C502 O512 1.265 . S
O503 C502 1.227 . S
N504 Co501 2.121 . S
N504 C506 1.375 . S
N504 C507 1.313 . S
C505 C506 1.338 . S
C505 N508 1.377 . S
C505 H525 0.930 . S
C506 N504 1.375 . S
C506 C505 1.338 . S
C506 H510 0.931 . S
C507 N504 1.313 . S
C507 N508 1.344 . S
C507 H511 0.930 . S
N508 C505 1.377 . S
N508 C507 1.344 . S
O509 Co501 2.055 . S
O509 C513 1.253 . S
H510 C506 0.931 . S
H511 C507 0.930 . S
O512 Co501 2.039 . S
O512 C502 1.265 . S
C513 O509 1.253 . S
C513 O514 1.227 . S
O514 C513 1.227 . S
N515 Co501 2.140 . S
N515 C518 1.346 . S
N515 C519 1.345 . S
C516 C517 1.387 . S
C516 C520 1.391 . S
C517 C516 1.387 . S
C517 C518 1.369 . S
C517 H526 0.929 . S
C518 N515 1.346 . S
C518 C517 1.369 . S
C518 H521 0.928 . S
C519 N515 1.345 . S
C519 C520 1.371 . S
C519 H522 0.931 . S
C520 C516 1.391 . S
C520 C519 1.371 . S
C520 H527 0.930 . S
H521 C518 0.928 . S
H522 C519 0.931 . S
H523 C499 0.930 . S
H524 C496 0.930 . S
H525 C505 0.930 . S
H526 C517 0.929 . S
H527 C520 0.930 . S
C528 C529 1.351 . S
C528 N531 1.368 . S
C528 H533 0.931 . S
C529 C528 1.351 . S
C529 N530 1.373 . S
C529 H557 0.930 . S
N530 C529 1.373 . S
N530 C532 1.340 . S
N531 C528 1.368 . S
N531 C532 1.321 . S
N531 Co534 2.135 . S
C532 N530 1.340 . S
C532 N531 1.321 . S
C532 H556 0.930 . S
H533 C528 0.931 . S
Co534 N531 2.135 . S
Co534 N537 2.121 . S
Co534 O542 2.055 . S
Co534 O545 2.039 . S
Co534 N548 2.140 . S
C535 O536 1.227 . S
C535 O545 1.265 . S
O536 C535 1.227 . S
N537 Co534 2.121 . S
N537 C539 1.375 . S
N537 C540 1.313 . S
C538 C539 1.338 . S
C538 N541 1.377 . S
C538 H558 0.930 . S
C539 N537 1.375 . S
C539 C538 1.338 . S
C539 H543 0.931 . S
C540 N537 1.313 . S
C540 N541 1.344 . S
C540 H544 0.930 . S
N541 C538 1.377 . S
N541 C540 1.344 . S
O542 Co534 2.055 . S
O542 C546 1.253 . S
H543 C539 0.931 . S
H544 C540 0.930 . S
O545 Co534 2.039 . S
O545 C535 1.265 . S
C546 O542 1.253 . S
C546 O547 1.227 . S
O547 C546 1.227 . S
N548 Co534 2.140 . S
N548 C551 1.346 . S
N548 C552 1.345 . S
C549 C550 1.387 . S
C549 C553 1.391 . S
C550 C549 1.387 . S
C550 C551 1.369 . S
C550 H559 0.929 . S
C551 N548 1.346 . S
C551 C550 1.369 . S
C551 H554 0.928 . S
C552 N548 1.345 . S
C552 C553 1.371 . S
C552 H555 0.931 . S
C553 C549 1.391 . S
C553 C552 1.371 . S
C553 H560 0.930 . S
H554 C551 0.928 . S
H555 C552 0.931 . S
H556 C532 0.930 . S
H557 C529 0.930 . S
H558 C538 0.930 . S
H559 C550 0.929 . S
H560 C553 0.930 . S
C561 C562 1.351 . S
C561 N564 1.368 . S
C561 H566 0.931 . S
C562 C561 1.351 . S
C562 N563 1.373 . S
C562 H590 0.930 . S
N563 C562 1.373 . S
N563 C565 1.340 . S
N564 C561 1.368 . S
N564 C565 1.321 . S
N564 Co567 2.135 . S
C565 N563 1.340 . S
C565 N564 1.321 . S
C565 H589 0.930 . S
H566 C561 0.931 . S
Co567 N564 2.135 . S
Co567 N570 2.121 . S
Co567 O575 2.055 . S
Co567 O578 2.039 . S
Co567 N581 2.140 . S
C568 O569 1.227 . S
C568 O578 1.265 . S
O569 C568 1.227 . S
N570 Co567 2.121 . S
N570 C572 1.375 . S
N570 C573 1.313 . S
C571 C572 1.338 . S
C571 N574 1.377 . S
C571 H591 0.930 . S
C572 N570 1.375 . S
C572 C571 1.338 . S
C572 H576 0.931 . S
C573 N570 1.313 . S
C573 N574 1.344 . S
C573 H577 0.930 . S
N574 C571 1.377 . S
N574 C573 1.344 . S
O575 Co567 2.055 . S
O575 C579 1.253 . S
H576 C572 0.931 . S
H577 C573 0.930 . S
O578 Co567 2.039 . S
O578 C568 1.265 . S
C579 O575 1.253 . S
C579 O580 1.227 . S
O580 C579 1.227 . S
N581 Co567 2.140 . S
N581 C584 1.346 . S
N581 C585 1.345 . S
C582 C583 1.387 . S
C582 C586 1.391 . S
C583 C582 1.387 . S
C583 C584 1.369 . S
C583 H592 0.929 . S
C584 N581 1.346 . S
C584 C583 1.369 . S
C584 H587 0.928 . S
C585 N581 1.345 . S
C585 C586 1.371 . S
C585 H588 0.931 . S
C586 C582 1.391 . S
C586 C585 1.371 . S
C586 H593 0.930 . S
H587 C584 0.928 . S
H588 C585 0.931 . S
H589 C565 0.930 . S
H590 C562 0.930 . S
H591 C571 0.930 . S
H592 C583 0.929 . S
H593 C586 0.930 . S
C594 C595 1.351 . S
C594 N597 1.368 . S
C594 H599 0.931 . S
C595 C594 1.351 . S
C595 N596 1.373 . S
C595 H623 0.930 . S
N596 C595 1.373 . S
N596 C598 1.340 . S
N597 C594 1.368 . S
N597 C598 1.321 . S
N597 Co600 2.135 . S
C598 N596 1.340 . S
C598 N597 1.321 . S
C598 H622 0.930 . S
H599 C594 0.931 . S
Co600 N597 2.135 . S
Co600 N603 2.121 . S
Co600 O608 2.055 . S
Co600 O611 2.039 . S
Co600 N614 2.140 . S
C601 O602 1.227 . S
C601 O611 1.265 . S
O602 C601 1.227 . S
N603 Co600 2.121 . S
N603 C605 1.375 . S
N603 C606 1.313 . S
C604 C605 1.338 . S
C604 N607 1.377 . S
C604 H624 0.930 . S
C605 N603 1.375 . S
C605 C604 1.338 . S
C605 H609 0.931 . S
C606 N603 1.313 . S
C606 N607 1.344 . S
C606 H610 0.930 . S
N607 C604 1.377 . S
N607 C606 1.344 . S
O608 Co600 2.055 . S
O608 C612 1.253 . S
H609 C605 0.931 . S
H610 C606 0.930 . S
O611 Co600 2.039 . S
O611 C601 1.265 . S
C612 O608 1.253 . S
C612 O613 1.227 . S
O613 C612 1.227 . S
N614 Co600 2.140 . S
N614 C617 1.346 . S
N614 C618 1.345 . S
C615 C616 1.387 . S
C615 C619 1.391 . S
C616 C615 1.387 . S
C616 C617 1.369 . S
C616 H625 0.929 . S
C617 N614 1.346 . S
C617 C616 1.369 . S
C617 H620 0.928 . S
C618 N614 1.345 . S
C618 C619 1.371 . S
C618 H621 0.931 . S
C619 C615 1.391 . S
C619 C618 1.371 . S
C619 H626 0.930 . S
H620 C617 0.928 . S
H621 C618 0.931 . S
H622 C598 0.930 . S
H623 C595 0.930 . S
H624 C604 0.930 . S
H625 C616 0.929 . S
H626 C619 0.930 . S
C627 C628 1.351 . S
C627 N630 1.368 . S
C627 H632 0.931 . S
C628 C627 1.351 . S
C628 N629 1.373 . S
C628 H656 0.930 . S
N629 C628 1.373 . S
N629 C631 1.340 . S
N630 C627 1.368 . S
N630 C631 1.321 . S
N630 Co633 2.135 . S
C631 N629 1.340 . S
C631 N630 1.321 . S
C631 H655 0.930 . S
H632 C627 0.931 . S
Co633 N630 2.135 . S
Co633 N636 2.121 . S
Co633 O641 2.055 . S
Co633 O644 2.039 . S
Co633 N647 2.140 . S
C634 O635 1.227 . S
C634 O644 1.265 . S
O635 C634 1.227 . S
N636 Co633 2.121 . S
N636 C638 1.375 . S
N636 C639 1.313 . S
C637 C638 1.338 . S
C637 N640 1.377 . S
C637 H657 0.930 . S
C638 N636 1.375 . S
C638 C637 1.338 . S
C638 H642 0.931 . S
C639 N636 1.313 . S
C639 N640 1.344 . S
C639 H643 0.930 . S
N640 C637 1.377 . S
N640 C639 1.344 . S
O641 Co633 2.055 . S
O641 C645 1.253 . S
H642 C638 0.931 . S
H643 C639 0.930 . S
O644 Co633 2.039 . S
O644 C634 1.265 . S
C645 O641 1.253 . S
C645 O646 1.227 . S
O646 C645 1.227 . S
N647 Co633 2.140 . S
N647 C650 1.346 . S
N647 C651 1.345 . S
C648 C649 1.387 . S
C648 C652 1.391 . S
C649 C648 1.387 . S
C649 C650 1.369 . S
C649 H658 0.929 . S
C650 N647 1.346 . S
C650 C649 1.369 . S
C650 H653 0.928 . S
C651 N647 1.345 . S
C651 C652 1.371 . S
C651 H654 0.931 . S
C652 C648 1.391 . S
C652 C651 1.371 . S
C652 H659 0.930 . S
H653 C650 0.928 . S
H654 C651 0.931 . S
H655 C631 0.930 . S
H656 C628 0.930 . S
H657 C637 0.930 . S
H658 C649 0.929 . S
H659 C652 0.930 . S
C660 C661 1.351 . S
C660 N663 1.368 . S
C660 H665 0.931 . S
C661 C660 1.351 . S
C661 N662 1.373 . S
C661 H689 0.930 . S
N662 C661 1.373 . S
N662 C664 1.340 . S
N663 C660 1.368 . S
N663 C664 1.321 . S
N663 Co666 2.135 . S
C664 N662 1.340 . S
C664 N663 1.321 . S
C664 H688 0.930 . S
H665 C660 0.931 . S
Co666 N663 2.135 . S
Co666 N669 2.121 . S
Co666 O674 2.055 . S
Co666 O677 2.039 . S
Co666 N680 2.140 . S
C667 O668 1.227 . S
C667 O677 1.265 . S
O668 C667 1.227 . S
N669 Co666 2.121 . S
N669 C671 1.375 . S
N669 C672 1.313 . S
C670 C671 1.338 . S
C670 N673 1.377 . S
C670 H690 0.930 . S
C671 N669 1.375 . S
C671 C670 1.338 . S
C671 H675 0.931 . S
C672 N669 1.313 . S
C672 N673 1.344 . S
C672 H676 0.930 . S
N673 C670 1.377 . S
N673 C672 1.344 . S
O674 Co666 2.055 . S
O674 C678 1.253 . S
H675 C671 0.931 . S
H676 C672 0.930 . S
O677 Co666 2.039 . S
O677 C667 1.265 . S
C678 O674 1.253 . S
C678 O679 1.227 . S
O679 C678 1.227 . S
N680 Co666 2.140 . S
N680 C683 1.346 . S
N680 C684 1.345 . S
C681 C682 1.387 . S
C681 C685 1.391 . S
C682 C681 1.387 . S
C682 C683 1.369 . S
C682 H691 0.929 . S
C683 N680 1.346 . S
C683 C682 1.369 . S
C683 H686 0.928 . S
C684 N680 1.345 . S
C684 C685 1.371 . S
C684 H687 0.931 . S
C685 C681 1.391 . S
C685 C684 1.371 . S
C685 H692 0.930 . S
H686 C683 0.928 . S
H687 C684 0.931 . S
H688 C664 0.930 . S
H689 C661 0.930 . S
H690 C670 0.930 . S
H691 C682 0.929 . S
H692 C685 0.930 . S
C693 C694 1.351 . S
C693 N696 1.368 . S
C693 H698 0.931 . S
C694 C693 1.351 . S
C694 N695 1.373 . S
C694 H722 0.930 . S
N695 C694 1.373 . S
N695 C697 1.340 . S
N696 C693 1.368 . S
N696 C697 1.321 . S
N696 Co699 2.135 . S
C697 N695 1.340 . S
C697 N696 1.321 . S
C697 H721 0.930 . S
H698 C693 0.931 . S
Co699 N696 2.135 . S
Co699 N702 2.121 . S
Co699 O707 2.055 . S
Co699 O710 2.039 . S
Co699 N713 2.140 . S
C700 O701 1.227 . S
C700 O710 1.265 . S
O701 C700 1.227 . S
N702 Co699 2.121 . S
N702 C704 1.375 . S
N702 C705 1.313 . S
C703 C704 1.338 . S
C703 N706 1.377 1_545 S
C703 H723 0.930 1_545 S
C704 N702 1.375 . S
C704 C703 1.338 . S
C704 H708 0.931 . S
C705 N702 1.313 . S
C705 N706 1.344 1_545 S
C705 H709 0.930 . S
N706 C703 1.377 1_565 S
N706 C705 1.344 1_565 S
O707 Co699 2.055 . S
O707 C711 1.253 . S
H708 C704 0.931 . S
H709 C705 0.930 . S
O710 Co699 2.039 . S
O710 C700 1.265 . S
C711 O707 1.253 . S
C711 O712 1.227 . S
O712 C711 1.227 . S
N713 Co699 2.140 . S
N713 C716 1.346 . S
N713 C717 1.345 . S
C714 C715 1.387 . S
C714 C718 1.391 . S
C715 C714 1.387 . S
C715 C716 1.369 . S
C715 H724 0.929 . S
C716 N713 1.346 . S
C716 C715 1.369 . S
C716 H719 0.928 . S
C717 N713 1.345 . S
C717 C718 1.371 . S
C717 H720 0.931 . S
C718 C714 1.391 . S
C718 C717 1.371 . S
C718 H725 0.930 . S
H719 C716 0.928 . S
H720 C717 0.931 . S
H721 C697 0.930 . S
H722 C694 0.930 . S
H723 C703 0.930 1_565 S
H724 C715 0.929 . S
H725 C718 0.930 . S
C726 C727 1.351 . S
C726 N729 1.368 . S
C726 H731 0.931 . S
C727 C726 1.351 . S
C727 N728 1.373 . S
C727 H755 0.930 . S
N728 C727 1.373 . S
N728 C730 1.340 . S
N729 C726 1.368 . S
N729 C730 1.321 . S
N729 Co732 2.135 . S
C730 N728 1.340 . S
C730 N729 1.321 . S
C730 H754 0.930 . S
H731 C726 0.931 . S
Co732 N729 2.135 . S
Co732 N735 2.121 . S
Co732 O740 2.055 . S
Co732 O743 2.039 . S
Co732 N746 2.140 . S
C733 O734 1.227 . S
C733 O743 1.265 . S
O734 C733 1.227 . S
N735 Co732 2.121 . S
N735 C737 1.375 . S
N735 C738 1.313 . S
C736 C737 1.338 . S
C736 N739 1.377 1_655 S
C736 H756 0.930 1_655 S
C737 N735 1.375 . S
C737 C736 1.338 . S
C737 H741 0.931 . S
C738 N735 1.313 . S
C738 N739 1.344 1_655 S
C738 H742 0.930 . S
N739 C736 1.377 1_455 S
N739 C738 1.344 1_455 S
O740 Co732 2.055 . S
O740 C744 1.253 . S
H741 C737 0.931 . S
H742 C738 0.930 . S
O743 Co732 2.039 . S
O743 C733 1.265 . S
C744 O740 1.253 . S
C744 O745 1.227 . S
O745 C744 1.227 . S
N746 Co732 2.140 . S
N746 C749 1.346 . S
N746 C750 1.345 . S
C747 C748 1.387 . S
C747 C751 1.391 . S
C748 C747 1.387 . S
C748 C749 1.369 . S
C748 H757 0.929 . S
C749 N746 1.346 . S
C749 C748 1.369 . S
C749 H752 0.928 . S
C750 N746 1.345 . S
C750 C751 1.371 . S
C750 H753 0.931 . S
C751 C747 1.391 . S
C751 C750 1.371 . S
C751 H758 0.930 . S
H752 C749 0.928 . S
H753 C750 0.931 . S
H754 C730 0.930 . S
H755 C727 0.930 . S
H756 C736 0.930 1_455 S
H757 C748 0.929 . S
H758 C751 0.930 . S
C759 C760 1.351 . S
C759 N762 1.368 . S
C759 H764 0.931 . S
C760 C759 1.351 . S
C760 N761 1.373 . S
C760 H788 0.930 . S
N761 C760 1.373 . S
N761 C763 1.340 . S
N762 C759 1.368 . S
N762 C763 1.321 . S
N762 Co765 2.135 . S
C763 N761 1.340 . S
C763 N762 1.321 . S
C763 H787 0.930 . S
H764 C759 0.931 . S
Co765 N762 2.135 . S
Co765 N768 2.121 . S
Co765 O773 2.055 . S
Co765 O776 2.039 . S
Co765 N779 2.140 . S
C766 O767 1.227 . S
C766 O776 1.265 . S
O767 C766 1.227 . S
N768 Co765 2.121 . S
N768 C770 1.375 . S
N768 C771 1.313 . S
C769 C770 1.338 . S
C769 N772 1.377 . S
C769 H789 0.930 . S
C770 N768 1.375 . S
C770 C769 1.338 . S
C770 H774 0.931 . S
C771 N768 1.313 . S
C771 N772 1.344 . S
C771 H775 0.930 . S
N772 C769 1.377 . S
N772 C771 1.344 . S
O773 Co765 2.055 . S
O773 C777 1.253 . S
H774 C770 0.931 . S
H775 C771 0.930 . S
O776 Co765 2.039 . S
O776 C766 1.265 . S
C777 O773 1.253 . S
C777 O778 1.227 . S
O778 C777 1.227 . S
N779 Co765 2.140 . S
N779 C782 1.346 . S
N779 C783 1.345 . S
C780 C781 1.387 . S
C780 C784 1.391 . S
C781 C780 1.387 . S
C781 C782 1.369 . S
C781 H790 0.929 . S
C782 N779 1.346 . S
C782 C781 1.369 . S
C782 H785 0.928 . S
C783 N779 1.345 . S
C783 C784 1.371 . S
C783 H786 0.931 . S
C784 C780 1.391 . S
C784 C783 1.371 . S
C784 H791 0.930 . S
H785 C782 0.928 . S
H786 C783 0.931 . S
H787 C763 0.930 . S
H788 C760 0.930 . S
H789 C769 0.930 . S
H790 C781 0.929 . S
H791 C784 0.930 . S
C792 C793 1.351 . S
C792 N795 1.368 . S
C792 H797 0.931 . S
C793 C792 1.351 . S
C793 N794 1.373 . S
C793 H821 0.930 . S
N794 C793 1.373 . S
N794 C796 1.340 . S
N795 C792 1.368 . S
N795 C796 1.321 . S
N795 Co798 2.135 . S
C796 N794 1.340 . S
C796 N795 1.321 . S
C796 H820 0.930 . S
H797 C792 0.931 . S
Co798 N795 2.135 . S
Co798 N801 2.121 . S
Co798 O806 2.055 . S
Co798 O809 2.039 . S
Co798 N812 2.140 . S
C799 O800 1.227 . S
C799 O809 1.265 . S
O800 C799 1.227 . S
N801 Co798 2.121 . S
N801 C803 1.375 . S
N801 C804 1.313 . S
C802 C803 1.338 . S
C802 N805 1.377 . S
C802 H822 0.930 . S
C803 N801 1.375 . S
C803 C802 1.338 . S
C803 H807 0.931 . S
C804 N801 1.313 . S
C804 N805 1.344 . S
C804 H808 0.930 . S
N805 C802 1.377 . S
N805 C804 1.344 . S
O806 Co798 2.055 . S
O806 C810 1.253 . S
H807 C803 0.931 . S
H808 C804 0.930 . S
O809 Co798 2.039 . S
O809 C799 1.265 . S
C810 O806 1.253 . S
C810 O811 1.227 . S
O811 C810 1.227 . S
N812 Co798 2.140 . S
N812 C815 1.346 . S
N812 C816 1.345 . S
C813 C814 1.387 . S
C813 C817 1.391 . S
C814 C813 1.387 . S
C814 C815 1.369 . S
C814 H823 0.929 . S
C815 N812 1.346 . S
C815 C814 1.369 . S
C815 H818 0.928 . S
C816 N812 1.345 . S
C816 C817 1.371 . S
C816 H819 0.931 . S
C817 C813 1.391 . S
C817 C816 1.371 . S
C817 H824 0.930 . S
H818 C815 0.928 . S
H819 C816 0.931 . S
H820 C796 0.930 . S
H821 C793 0.930 . S
H822 C802 0.930 . S
H823 C814 0.929 . S
H824 C817 0.930 . S
C825 C826 1.351 . S
C825 N828 1.368 . S
C825 H830 0.931 . S
C826 C825 1.351 . S
C826 N827 1.373 . S
C826 H854 0.930 . S
N827 C826 1.373 . S
N827 C829 1.340 . S
N828 C825 1.368 . S
N828 C829 1.321 . S
N828 Co831 2.135 . S
C829 N827 1.340 . S
C829 N828 1.321 . S
C829 H853 0.930 . S
H830 C825 0.931 . S
Co831 N828 2.135 . S
Co831 N834 2.121 . S
Co831 O839 2.055 . S
Co831 O842 2.039 . S
Co831 N845 2.140 . S
C832 O833 1.227 . S
C832 O842 1.265 . S
O833 C832 1.227 . S
N834 Co831 2.121 . S
N834 C836 1.375 . S
N834 C837 1.313 . S
C835 C836 1.338 . S
C835 N838 1.377 . S
C835 H855 0.930 . S
C836 N834 1.375 . S
C836 C835 1.338 . S
C836 H840 0.931 . S
C837 N834 1.313 . S
C837 N838 1.344 . S
C837 H841 0.930 . S
N838 C835 1.377 . S
N838 C837 1.344 . S
O839 Co831 2.055 . S
O839 C843 1.253 . S
H840 C836 0.931 . S
H841 C837 0.930 . S
O842 Co831 2.039 . S
O842 C832 1.265 . S
C843 O839 1.253 . S
C843 O844 1.227 . S
O844 C843 1.227 . S
N845 Co831 2.140 . S
N845 C848 1.346 . S
N845 C849 1.345 . S
C846 C847 1.387 . S
C846 C850 1.391 . S
C847 C846 1.387 . S
C847 C848 1.369 . S
C847 H856 0.929 . S
C848 N845 1.346 . S
C848 C847 1.369 . S
C848 H851 0.928 . S
C849 N845 1.345 . S
C849 C850 1.371 . S
C849 H852 0.931 . S
C850 C846 1.391 . S
C850 C849 1.371 . S
C850 H857 0.930 . S
H851 C848 0.928 . S
H852 C849 0.931 . S
H853 C829 0.930 . S
H854 C826 0.930 . S
H855 C835 0.930 . S
H856 C847 0.929 . S
H857 C850 0.930 . S
C858 C859 1.351 . S
C858 N861 1.368 . S
C858 H863 0.931 . S
C859 C858 1.351 . S
C859 N860 1.373 . S
C859 H887 0.930 . S
N860 C859 1.373 . S
N860 C862 1.340 . S
N861 C858 1.368 . S
N861 C862 1.321 . S
N861 Co864 2.135 . S
C862 N860 1.340 . S
C862 N861 1.321 . S
C862 H886 0.930 . S
H863 C858 0.931 . S
Co864 N861 2.135 . S
Co864 N867 2.121 . S
Co864 O872 2.055 . S
Co864 O875 2.039 . S
Co864 N878 2.140 . S
C865 O866 1.227 . S
C865 O875 1.265 . S
O866 C865 1.227 . S
N867 Co864 2.121 . S
N867 C869 1.375 . S
N867 C870 1.313 . S
C868 C869 1.338 . S
C868 N871 1.377 . S
C868 H888 0.930 . S
C869 N867 1.375 . S
C869 C868 1.338 . S
C869 H873 0.931 . S
C870 N867 1.313 . S
C870 N871 1.344 . S
C870 H874 0.930 . S
N871 C868 1.377 . S
N871 C870 1.344 . S
O872 Co864 2.055 . S
O872 C876 1.253 . S
H873 C869 0.931 . S
H874 C870 0.930 . S
O875 Co864 2.039 . S
O875 C865 1.265 . S
C876 O872 1.253 . S
C876 O877 1.227 . S
O877 C876 1.227 . S
N878 Co864 2.140 . S
N878 C881 1.346 . S
N878 C882 1.345 . S
C879 C880 1.387 . S
C879 C883 1.391 . S
C880 C879 1.387 . S
C880 C881 1.369 . S
C880 H889 0.929 . S
C881 N878 1.346 . S
C881 C880 1.369 . S
C881 H884 0.928 . S
C882 N878 1.345 . S
C882 C883 1.371 . S
C882 H885 0.931 . S
C883 C879 1.391 . S
C883 C882 1.371 . S
C883 H890 0.930 . S
H884 C881 0.928 . S
H885 C882 0.931 . S
H886 C862 0.930 . S
H887 C859 0.930 . S
H888 C868 0.930 . S
H889 C880 0.929 . S
H890 C883 0.930 . S
C891 C892 1.351 . S
C891 N894 1.368 . S
C891 H896 0.931 . S
C892 C891 1.351 . S
C892 N893 1.373 . S
C892 H920 0.930 . S
N893 C892 1.373 . S
N893 C895 1.340 . S
N894 C891 1.368 . S
N894 C895 1.321 . S
N894 Co897 2.135 . S
C895 N893 1.340 . S
C895 N894 1.321 . S
C895 H919 0.930 . S
H896 C891 0.931 . S
Co897 N894 2.135 . S
Co897 N900 2.121 . S
Co897 O905 2.055 . S
Co897 O908 2.039 . S
Co897 N911 2.140 . S
C898 O899 1.227 . S
C898 O908 1.265 . S
O899 C898 1.227 . S
N900 Co897 2.121 . S
N900 C902 1.375 . S
N900 C903 1.313 . S
C901 C902 1.338 . S
C901 N904 1.377 1_565 S
C901 H921 0.930 1_565 S
C902 N900 1.375 . S
C902 C901 1.338 . S
C902 H906 0.931 . S
C903 N900 1.313 . S
C903 N904 1.344 1_565 S
C903 H907 0.930 . S
N904 C901 1.377 1_545 S
N904 C903 1.344 1_545 S
O905 Co897 2.055 . S
O905 C909 1.253 . S
H906 C902 0.931 . S
H907 C903 0.930 . S
O908 Co897 2.039 . S
O908 C898 1.265 . S
C909 O905 1.253 . S
C909 O910 1.227 . S
O910 C909 1.227 . S
N911 Co897 2.140 . S
N911 C914 1.346 . S
N911 C915 1.345 . S
C912 C913 1.387 . S
C912 C916 1.391 . S
C913 C912 1.387 . S
C913 C914 1.369 . S
C913 H922 0.929 . S
C914 N911 1.346 . S
C914 C913 1.369 . S
C914 H917 0.928 . S
C915 N911 1.345 . S
C915 C916 1.371 . S
C915 H918 0.931 . S
C916 C912 1.391 . S
C916 C915 1.371 . S
C916 H923 0.930 . S
H917 C914 0.928 . S
H918 C915 0.931 . S
H919 C895 0.930 . S
H920 C892 0.930 . S
H921 C901 0.930 1_545 S
H922 C913 0.929 . S
H923 C916 0.930 . S
C924 C925 1.351 . S
C924 N927 1.368 . S
C924 H929 0.931 . S
C925 C924 1.351 . S
C925 N926 1.373 . S
C925 H953 0.930 . S
N926 C925 1.373 . S
N926 C928 1.340 . S
N927 C924 1.368 . S
N927 C928 1.321 . S
N927 Co930 2.135 . S
C928 N926 1.340 . S
C928 N927 1.321 . S
C928 H952 0.930 . S
H929 C924 0.931 . S
Co930 N927 2.135 . S
Co930 N933 2.121 . S
Co930 O938 2.055 . S
Co930 O941 2.039 . S
Co930 N944 2.140 . S
C931 O932 1.227 . S
C931 O941 1.265 . S
O932 C931 1.227 . S
N933 Co930 2.121 . S
N933 C935 1.375 . S
N933 C936 1.313 . S
C934 C935 1.338 . S
C934 N937 1.377 1_455 S
C934 H954 0.930 1_455 S
C935 N933 1.375 . S
C935 C934 1.338 . S
C935 H939 0.931 . S
C936 N933 1.313 . S
C936 N937 1.344 1_455 S
C936 H940 0.930 . S
N937 C934 1.377 1_655 S
N937 C936 1.344 1_655 S
O938 Co930 2.055 . S
O938 C942 1.253 . S
H939 C935 0.931 . S
H940 C936 0.930 . S
O941 Co930 2.039 . S
O941 C931 1.265 . S
C942 O938 1.253 . S
C942 O943 1.227 . S
O943 C942 1.227 . S
N944 Co930 2.140 . S
N944 C947 1.346 . S
N944 C948 1.345 . S
C945 C946 1.387 . S
C945 C949 1.391 . S
C946 C945 1.387 . S
C946 C947 1.369 . S
C946 H955 0.929 . S
C947 N944 1.346 . S
C947 C946 1.369 . S
C947 H950 0.928 . S
C948 N944 1.345 . S
C948 C949 1.371 . S
C948 H951 0.931 . S
C949 C945 1.391 . S
C949 C948 1.371 . S
C949 H956 0.930 . S
H950 C947 0.928 . S
H951 C948 0.931 . S
H952 C928 0.930 . S
H953 C925 0.930 . S
H954 C934 0.930 1_655 S
H955 C946 0.929 . S
H956 C949 0.930 . S
C957 C958 1.351 . S
C957 N960 1.368 . S
C957 H962 0.931 . S
C958 C957 1.351 . S
C958 N959 1.373 . S
C958 H986 0.930 . S
N959 C958 1.373 . S
N959 C961 1.340 . S
N960 C957 1.368 . S
N960 C961 1.321 . S
N960 Co963 2.135 . S
C961 N959 1.340 . S
C961 N960 1.321 . S
C961 H985 0.930 . S
H962 C957 0.931 . S
Co963 N960 2.135 . S
Co963 N966 2.121 . S
Co963 O971 2.055 . S
Co963 O974 2.039 . S
Co963 N977 2.140 . S
C964 O965 1.227 . S
C964 O974 1.265 . S
O965 C964 1.227 . S
N966 Co963 2.121 . S
N966 C968 1.375 . S
N966 C969 1.313 . S
C967 C968 1.338 . S
C967 N970 1.377 . S
C967 H987 0.930 . S
C968 N966 1.375 . S
C968 C967 1.338 . S
C968 H972 0.931 . S
C969 N966 1.313 . S
C969 N970 1.344 . S
C969 H973 0.930 . S
N970 C967 1.377 . S
N970 C969 1.344 . S
O971 Co963 2.055 . S
O971 C975 1.253 . S
H972 C968 0.931 . S
H973 C969 0.930 . S
O974 Co963 2.039 . S
O974 C964 1.265 . S
C975 O971 1.253 . S
C975 O976 1.227 . S
O976 C975 1.227 . S
N977 Co963 2.140 . S
N977 C980 1.346 . S
N977 C981 1.345 . S
C978 C979 1.387 . S
C978 C982 1.391 . S
C979 C978 1.387 . S
C979 C980 1.369 . S
C979 H988 0.929 . S
C980 N977 1.346 . S
C980 C979 1.369 . S
C980 H983 0.928 . S
C981 N977 1.345 . S
C981 C982 1.371 . S
C981 H984 0.931 . S
C982 C978 1.391 . S
C982 C981 1.371 . S
C982 H989 0.930 . S
H983 C980 0.928 . S
H984 C981 0.931 . S
H985 C961 0.930 . S
H986 C958 0.930 . S
H987 C967 0.930 . S
H988 C979 0.929 . S
H989 C982 0.930 . S
C990 C991 1.351 . S
C990 N993 1.368 . S
C990 H995 0.931 . S
C991 C990 1.351 . S
C991 N992 1.373 . S
C991 H1019 0.930 . S
N992 C991 1.373 . S
N992 C994 1.340 . S
N993 C990 1.368 . S
N993 C994 1.321 . S
N993 Co996 2.135 . S
C994 N992 1.340 . S
C994 N993 1.321 . S
C994 H1018 0.930 . S
H995 C990 0.931 . S
Co996 N993 2.135 . S
Co996 N999 2.121 . S
Co996 O1004 2.055 . S
Co996 O1007 2.039 . S
Co996 N1010 2.140 . S
C997 O998 1.227 . S
C997 O1007 1.265 . S
O998 C997 1.227 . S
N999 Co996 2.121 . S
N999 C1001 1.375 . S
N999 C1002 1.313 . S
C1000 C1001 1.338 . S
C1000 N1003 1.377 1_455 S
C1000 H1020 0.930 1_455 S
C1001 N999 1.375 . S
C1001 C1000 1.338 . S
C1001 H1005 0.931 . S
C1002 N999 1.313 . S
C1002 N1003 1.344 1_455 S
C1002 H1006 0.930 . S
N1003 C1000 1.377 1_655 S
N1003 C1002 1.344 1_655 S
O1004 Co996 2.055 . S
O1004 C1008 1.253 . S
H1005 C1001 0.931 . S
H1006 C1002 0.930 . S
O1007 Co996 2.039 . S
O1007 C997 1.265 . S
C1008 O1004 1.253 . S
C1008 O1009 1.227 . S
O1009 C1008 1.227 . S
N1010 Co996 2.140 . S
N1010 C1013 1.346 . S
N1010 C1014 1.345 . S
C1011 C1012 1.387 . S
C1011 C1015 1.391 . S
C1012 C1011 1.387 . S
C1012 C1013 1.369 . S
C1012 H1021 0.929 . S
C1013 N1010 1.346 . S
C1013 C1012 1.369 . S
C1013 H1016 0.928 . S
C1014 N1010 1.345 . S
C1014 C1015 1.371 . S
C1014 H1017 0.931 . S
C1015 C1011 1.391 . S
C1015 C1014 1.371 . S
C1015 H1022 0.930 . S
H1016 C1013 0.928 . S
H1017 C1014 0.931 . S
H1018 C994 0.930 . S
H1019 C991 0.930 . S
H1020 C1000 0.930 1_655 S
H1021 C1012 0.929 . S
H1022 C1015 0.930 . S
C1023 C1024 1.351 . S
C1023 N1026 1.368 . S
C1023 H1028 0.931 . S
C1024 C1023 1.351 . S
C1024 N1025 1.373 . S
C1024 H1052 0.930 . S
N1025 C1024 1.373 . S
N1025 C1027 1.340 . S
N1026 C1023 1.368 . S
N1026 C1027 1.321 . S
N1026 Co1029 2.135 . S
C1027 N1025 1.340 . S
C1027 N1026 1.321 . S
C1027 H1051 0.930 . S
H1028 C1023 0.931 . S
Co1029 N1026 2.135 . S
Co1029 N1032 2.121 . S
Co1029 O1037 2.055 . S
Co1029 O1040 2.039 . S
Co1029 N1043 2.140 . S
C1030 O1031 1.227 . S
C1030 O1040 1.265 . S
O1031 C1030 1.227 . S
N1032 Co1029 2.121 . S
N1032 C1034 1.375 . S
N1032 C1035 1.313 . S
C1033 C1034 1.338 . S
C1033 N1036 1.377 . S
C1033 H1053 0.930 . S
C1034 N1032 1.375 . S
C1034 C1033 1.338 . S
C1034 H1038 0.931 . S
C1035 N1032 1.313 . S
C1035 N1036 1.344 . S
C1035 H1039 0.930 . S
N1036 C1033 1.377 . S
N1036 C1035 1.344 . S
O1037 Co1029 2.055 . S
O1037 C1041 1.253 . S
H1038 C1034 0.931 . S
H1039 C1035 0.930 . S
O1040 Co1029 2.039 . S
O1040 C1030 1.265 . S
C1041 O1037 1.253 . S
C1041 O1042 1.227 . S
O1042 C1041 1.227 . S
N1043 Co1029 2.140 . S
N1043 C1046 1.346 . S
N1043 C1047 1.345 . S
C1044 C1045 1.387 . S
C1044 C1048 1.391 . S
C1045 C1044 1.387 . S
C1045 C1046 1.369 . S
C1045 H1054 0.929 . S
C1046 N1043 1.346 . S
C1046 C1045 1.369 . S
C1046 H1049 0.928 . S
C1047 N1043 1.345 . S
C1047 C1048 1.371 . S
C1047 H1050 0.931 . S
C1048 C1044 1.391 . S
C1048 C1047 1.371 . S
C1048 H1055 0.930 . S
H1049 C1046 0.928 . S
H1050 C1047 0.931 . S
H1051 C1027 0.930 . S
H1052 C1024 0.930 . S
H1053 C1033 0.930 . S
H1054 C1045 0.929 . S
H1055 C1048 0.930 . S
C1056 C1057 1.351 . S
C1056 N1059 1.368 . S
C1056 H1061 0.931 . S
C1057 C1056 1.351 . S
C1057 N1058 1.373 . S
C1057 H1085 0.930 . S
N1058 C1057 1.373 . S
N1058 C1060 1.340 . S
N1059 C1056 1.368 . S
N1059 C1060 1.321 . S
N1059 Co1062 2.135 . S
C1060 N1058 1.340 . S
C1060 N1059 1.321 . S
C1060 H1084 0.930 . S
H1061 C1056 0.931 . S
Co1062 N1059 2.135 . S
Co1062 N1065 2.121 . S
Co1062 O1070 2.055 . S
Co1062 O1073 2.039 . S
Co1062 N1076 2.140 . S
C1063 O1064 1.227 . S
C1063 O1073 1.265 . S
O1064 C1063 1.227 . S
N1065 Co1062 2.121 . S
N1065 C1067 1.375 . S
N1065 C1068 1.313 . S
C1066 C1067 1.338 . S
C1066 N1069 1.377 1_565 S
C1066 H1086 0.930 1_565 S
C1067 N1065 1.375 . S
C1067 C1066 1.338 . S
C1067 H1071 0.931 . S
C1068 N1065 1.313 . S
C1068 N1069 1.344 1_565 S
C1068 H1072 0.930 . S
N1069 C1066 1.377 1_545 S
N1069 C1068 1.344 1_545 S
O1070 Co1062 2.055 . S
O1070 C1074 1.253 . S
H1071 C1067 0.931 . S
H1072 C1068 0.930 . S
O1073 Co1062 2.039 . S
O1073 C1063 1.265 . S
C1074 O1070 1.253 . S
C1074 O1075 1.227 . S
O1075 C1074 1.227 . S
N1076 Co1062 2.140 . S
N1076 C1079 1.346 . S
N1076 C1080 1.345 . S
C1077 C1078 1.387 . S
C1077 C1081 1.391 . S
C1078 C1077 1.387 . S
C1078 C1079 1.369 . S
C1078 H1087 0.929 . S
C1079 N1076 1.346 . S
C1079 C1078 1.369 . S
C1079 H1082 0.928 . S
C1080 N1076 1.345 . S
C1080 C1081 1.371 . S
C1080 H1083 0.931 . S
C1081 C1077 1.391 . S
C1081 C1080 1.371 . S
C1081 H1088 0.930 . S
H1082 C1079 0.928 . S
H1083 C1080 0.931 . S
H1084 C1060 0.930 . S
H1085 C1057 0.930 . S
H1086 C1066 0.930 1_545 S
H1087 C1078 0.929 . S
H1088 C1081 0.930 . S
C1089 C1090 1.351 . S
C1089 N1092 1.368 . S
C1089 H1094 0.931 . S
C1090 C1089 1.351 . S
C1090 N1091 1.373 . S
C1090 H1118 0.930 . S
N1091 C1090 1.373 . S
N1091 C1093 1.340 . S
N1092 C1089 1.368 . S
N1092 C1093 1.321 . S
N1092 Co1095 2.135 . S
C1093 N1091 1.340 . S
C1093 N1092 1.321 . S
C1093 H1117 0.930 . S
H1094 C1089 0.931 . S
Co1095 N1092 2.135 . S
Co1095 N1098 2.121 . S
Co1095 O1103 2.055 . S
Co1095 O1106 2.039 . S
Co1095 N1109 2.140 . S
C1096 O1097 1.227 . S
C1096 O1106 1.265 . S
O1097 C1096 1.227 . S
N1098 Co1095 2.121 . S
N1098 C1100 1.375 . S
N1098 C1101 1.313 . S
C1099 C1100 1.338 . S
C1099 N1102 1.377 . S
C1099 H1119 0.930 . S
C1100 N1098 1.375 . S
C1100 C1099 1.338 . S
C1100 H1104 0.931 . S
C1101 N1098 1.313 . S
C1101 N1102 1.344 . S
C1101 H1105 0.930 . S
N1102 C1099 1.377 . S
N1102 C1101 1.344 . S
O1103 Co1095 2.055 . S
O1103 C1107 1.253 . S
H1104 C1100 0.931 . S
H1105 C1101 0.930 . S
O1106 Co1095 2.039 . S
O1106 C1096 1.265 . S
C1107 O1103 1.253 . S
C1107 O1108 1.227 . S
O1108 C1107 1.227 . S
N1109 Co1095 2.140 . S
N1109 C1112 1.346 . S
N1109 C1113 1.345 . S
C1110 C1111 1.387 . S
C1110 C1114 1.391 . S
C1111 C1110 1.387 . S
C1111 C1112 1.369 . S
C1111 H1120 0.929 . S
C1112 N1109 1.346 . S
C1112 C1111 1.369 . S
C1112 H1115 0.928 . S
C1113 N1109 1.345 . S
C1113 C1114 1.371 . S
C1113 H1116 0.931 . S
C1114 C1110 1.391 . S
C1114 C1113 1.371 . S
C1114 H1121 0.930 . S
H1115 C1112 0.928 . S
H1116 C1113 0.931 . S
H1117 C1093 0.930 . S
H1118 C1090 0.930 . S
H1119 C1099 0.930 . S
H1120 C1111 0.929 . S
H1121 C1114 0.930 . S
C1122 C1123 1.351 . S
C1122 N1125 1.368 . S
C1122 H1127 0.931 . S
C1123 C1122 1.351 . S
C1123 N1124 1.373 . S
C1123 H1151 0.930 . S
N1124 C1123 1.373 . S
N1124 C1126 1.340 . S
N1125 C1122 1.368 . S
N1125 C1126 1.321 . S
N1125 Co1128 2.135 . S
C1126 N1124 1.340 . S
C1126 N1125 1.321 . S
C1126 H1150 0.930 . S
H1127 C1122 0.931 . S
Co1128 N1125 2.135 . S
Co1128 N1131 2.121 . S
Co1128 O1136 2.055 . S
Co1128 O1139 2.039 . S
Co1128 N1142 2.140 . S
C1129 O1130 1.227 . S
C1129 O1139 1.265 . S
O1130 C1129 1.227 . S
N1131 Co1128 2.121 . S
N1131 C1133 1.375 . S
N1131 C1134 1.313 . S
C1132 C1133 1.338 . S
C1132 N1135 1.377 . S
C1132 H1152 0.930 . S
C1133 N1131 1.375 . S
C1133 C1132 1.338 . S
C1133 H1137 0.931 . S
C1134 N1131 1.313 . S
C1134 N1135 1.344 . S
C1134 H1138 0.930 . S
N1135 C1132 1.377 . S
N1135 C1134 1.344 . S
O1136 Co1128 2.055 . S
O1136 C1140 1.253 . S
H1137 C1133 0.931 . S
H1138 C1134 0.930 . S
O1139 Co1128 2.039 . S
O1139 C1129 1.265 . S
C1140 O1136 1.253 . S
C1140 O1141 1.227 . S
O1141 C1140 1.227 . S
N1142 Co1128 2.140 . S
N1142 C1145 1.346 . S
N1142 C1146 1.345 . S
C1143 C1144 1.387 . S
C1143 C1147 1.391 . S
C1144 C1143 1.387 . S
C1144 C1145 1.369 . S
C1144 H1153 0.929 . S
C1145 N1142 1.346 . S
C1145 C1144 1.369 . S
C1145 H1148 0.928 . S
C1146 N1142 1.345 . S
C1146 C1147 1.371 . S
C1146 H1149 0.931 . S
C1147 C1143 1.391 . S
C1147 C1146 1.371 . S
C1147 H1154 0.930 . S
H1148 C1145 0.928 . S
H1149 C1146 0.931 . S
H1150 C1126 0.930 . S
H1151 C1123 0.930 . S
H1152 C1132 0.930 . S
H1153 C1144 0.929 . S
H1154 C1147 0.930 . S
C1155 C1156 1.351 . S
C1155 N1158 1.368 . S
C1155 H1160 0.931 . S
C1156 C1155 1.351 . S
C1156 N1157 1.373 . S
C1156 H1184 0.930 . S
N1157 C1156 1.373 . S
N1157 C1159 1.340 . S
N1158 C1155 1.368 . S
N1158 C1159 1.321 . S
N1158 Co1161 2.135 . S
C1159 N1157 1.340 . S
C1159 N1158 1.321 . S
C1159 H1183 0.930 . S
H1160 C1155 0.931 . S
Co1161 N1158 2.135 . S
Co1161 N1164 2.121 . S
Co1161 O1169 2.055 . S
Co1161 O1172 2.039 . S
Co1161 N1175 2.140 . S
C1162 O1163 1.227 . S
C1162 O1172 1.265 . S
O1163 C1162 1.227 . S
N1164 Co1161 2.121 . S
N1164 C1166 1.375 . S
N1164 C1167 1.313 . S
C1165 C1166 1.338 . S
C1165 N1168 1.377 . S
C1165 H1185 0.930 . S
C1166 N1164 1.375 . S
C1166 C1165 1.338 . S
C1166 H1170 0.931 . S
C1167 N1164 1.313 . S
C1167 N1168 1.344 . S
C1167 H1171 0.930 . S
N1168 C1165 1.377 . S
N1168 C1167 1.344 . S
O1169 Co1161 2.055 . S
O1169 C1173 1.253 . S
H1170 C1166 0.931 . S
H1171 C1167 0.930 . S
O1172 Co1161 2.039 . S
O1172 C1162 1.265 . S
C1173 O1169 1.253 . S
C1173 O1174 1.227 . S
O1174 C1173 1.227 . S
N1175 Co1161 2.140 . S
N1175 C1178 1.346 . S
N1175 C1179 1.345 . S
C1176 C1177 1.387 . S
C1176 C1180 1.391 . S
C1177 C1176 1.387 . S
C1177 C1178 1.369 . S
C1177 H1186 0.929 . S
C1178 N1175 1.346 . S
C1178 C1177 1.369 . S
C1178 H1181 0.928 . S
C1179 N1175 1.345 . S
C1179 C1180 1.371 . S
C1179 H1182 0.931 . S
C1180 C1176 1.391 . S
C1180 C1179 1.371 . S
C1180 H1187 0.930 . S
H1181 C1178 0.928 . S
H1182 C1179 0.931 . S
H1183 C1159 0.930 . S
H1184 C1156 0.930 . S
H1185 C1165 0.930 . S
H1186 C1177 0.929 . S
H1187 C1180 0.930 . S
C1188 C1189 1.363 . S
C1188 C1194 1.379 . S
C1188 N1196 1.356 . S
C1189 C1188 1.363 . S
C1189 C1195 1.363 . S
C1190 C1191 1.363 . S
C1190 C1195 1.379 . S
C1190 N1197 1.356 . S
C1191 C1190 1.363 . S
C1191 C1194 1.363 . S
N1192 C1194 1.356 . S
N1192 H1204 0.984 . S
N1192 H1205 0.985 . S
N1193 C1195 1.356 . S
N1193 H1198 0.984 . S
N1193 H1199 0.985 . S
C1194 C1188 1.379 . S
C1194 C1191 1.363 . S
C1194 N1192 1.356 . S
C1195 C1189 1.363 . S
C1195 C1190 1.379 . S
C1195 N1193 1.356 . S
N1196 C1188 1.356 . S
N1196 H1202 0.984 . S
N1196 H1203 0.984 . S
N1197 C1190 1.356 . S
N1197 H1200 0.984 . S
N1197 H1201 0.985 . S
H1198 N1193 0.984 . S
H1199 N1193 0.985 . S
H1200 N1197 0.984 . S
H1201 N1197 0.985 . S
H1202 N1196 0.984 . S
H1203 N1196 0.984 . S
H1204 N1192 0.984 . S
H1205 N1192 0.985 . S
C1206 C1207 1.363 . S
C1206 C1212 1.379 . S
C1206 N1214 1.356 . S
C1207 C1206 1.363 . S
C1207 C1213 1.363 . S
C1208 C1209 1.363 . S
C1208 C1213 1.379 . S
C1208 N1215 1.356 . S
C1209 C1208 1.363 . S
C1209 C1212 1.363 . S
N1210 C1212 1.356 . S
N1210 H1222 0.984 . S
N1210 H1223 0.985 . S
N1211 C1213 1.356 . S
N1211 H1216 0.984 . S
N1211 H1217 0.985 . S
C1212 C1206 1.379 . S
C1212 C1209 1.363 . S
C1212 N1210 1.356 . S
C1213 C1207 1.363 . S
C1213 C1208 1.379 . S
C1213 N1211 1.356 . S
N1214 C1206 1.356 . S
N1214 H1220 0.984 . S
N1214 H1221 0.984 . S
N1215 C1208 1.356 . S
N1215 H1218 0.984 . S
N1215 H1219 0.985 . S
H1216 N1211 0.984 . S
H1217 N1211 0.985 . S
H1218 N1215 0.984 . S
H1219 N1215 0.985 . S
H1220 N1214 0.984 . S
H1221 N1214 0.984 . S
H1222 N1210 0.984 . S
H1223 N1210 0.985 . S
C1224 C1225 1.363 . S
C1224 C1230 1.379 . S
C1224 N1232 1.356 . S
C1225 C1224 1.363 . S
C1225 C1231 1.363 . S
C1226 C1227 1.363 . S
C1226 C1231 1.379 . S
C1226 N1233 1.356 . S
C1227 C1226 1.363 . S
C1227 C1230 1.363 . S
N1228 C1230 1.356 . S
N1228 H1240 0.984 . S
N1228 H1241 0.985 . S
N1229 C1231 1.356 . S
N1229 H1234 0.984 . S
N1229 H1235 0.985 . S
C1230 C1224 1.379 . S
C1230 C1227 1.363 . S
C1230 N1228 1.356 . S
C1231 C1225 1.363 . S
C1231 C1226 1.379 . S
C1231 N1229 1.356 . S
N1232 C1224 1.356 . S
N1232 H1238 0.984 . S
N1232 H1239 0.984 . S
N1233 C1226 1.356 . S
N1233 H1236 0.984 . S
N1233 H1237 0.985 . S
H1234 N1229 0.984 . S
H1235 N1229 0.985 . S
H1236 N1233 0.984 . S
H1237 N1233 0.985 . S
H1238 N1232 0.984 . S
H1239 N1232 0.984 . S
H1240 N1228 0.984 . S
H1241 N1228 0.985 . S
C1242 C1243 1.363 . S
C1242 C1248 1.379 . S
C1242 N1250 1.356 . S
C1243 C1242 1.363 . S
C1243 C1249 1.363 . S
C1244 C1245 1.363 . S
C1244 C1249 1.379 . S
C1244 N1251 1.356 . S
C1245 C1244 1.363 . S
C1245 C1248 1.363 . S
N1246 C1248 1.356 . S
N1246 H1258 0.984 . S
N1246 H1259 0.985 . S
N1247 C1249 1.356 . S
N1247 H1252 0.984 . S
N1247 H1253 0.985 . S
C1248 C1242 1.379 . S
C1248 C1245 1.363 . S
C1248 N1246 1.356 . S
C1249 C1243 1.363 . S
C1249 C1244 1.379 . S
C1249 N1247 1.356 . S
N1250 C1242 1.356 . S
N1250 H1256 0.984 . S
N1250 H1257 0.984 . S
N1251 C1244 1.356 . S
N1251 H1254 0.984 . S
N1251 H1255 0.985 . S
H1252 N1247 0.984 . S
H1253 N1247 0.985 . S
H1254 N1251 0.984 . S
H1255 N1251 0.985 . S
H1256 N1250 0.984 . S
H1257 N1250 0.984 . S
H1258 N1246 0.984 . S
H1259 N1246 0.985 . S
C1260 C1261 1.363 . S
C1260 C1266 1.379 . S
C1260 N1268 1.356 . S
C1261 C1260 1.363 . S
C1261 C1267 1.363 . S
C1262 C1263 1.363 . S
C1262 C1267 1.379 . S
C1262 N1269 1.356 . S
C1263 C1262 1.363 . S
C1263 C1266 1.363 . S
N1264 C1266 1.356 . S
N1264 H1276 0.984 . S
N1264 H1277 0.985 . S
N1265 C1267 1.356 . S
N1265 H1270 0.984 . S
N1265 H1271 0.985 . S
C1266 C1260 1.379 . S
C1266 C1263 1.363 . S
C1266 N1264 1.356 . S
C1267 C1261 1.363 . S
C1267 C1262 1.379 . S
C1267 N1265 1.356 . S
N1268 C1260 1.356 . S
N1268 H1274 0.984 . S
N1268 H1275 0.984 . S
N1269 C1262 1.356 . S
N1269 H1272 0.984 . S
N1269 H1273 0.985 . S
H1270 N1265 0.984 . S
H1271 N1265 0.985 . S
H1272 N1269 0.984 . S
H1273 N1269 0.985 . S
H1274 N1268 0.984 . S
H1275 N1268 0.984 . S
H1276 N1264 0.984 . S
H1277 N1264 0.985 . S
C1278 C1279 1.363 . S
C1278 C1284 1.379 . S
C1278 N1286 1.356 . S
C1279 C1278 1.363 . S
C1279 C1285 1.363 . S
C1280 C1281 1.363 . S
C1280 C1285 1.379 . S
C1280 N1287 1.356 . S
C1281 C1280 1.363 . S
C1281 C1284 1.363 . S
N1282 C1284 1.356 . S
N1282 H1294 0.984 . S
N1282 H1295 0.985 . S
N1283 C1285 1.356 . S
N1283 H1288 0.984 . S
N1283 H1289 0.985 . S
C1284 C1278 1.379 . S
C1284 C1281 1.363 . S
C1284 N1282 1.356 . S
C1285 C1279 1.363 . S
C1285 C1280 1.379 . S
C1285 N1283 1.356 . S
N1286 C1278 1.356 . S
N1286 H1292 0.984 . S
N1286 H1293 0.984 . S
N1287 C1280 1.356 . S
N1287 H1290 0.984 . S
N1287 H1291 0.985 . S
H1288 N1283 0.984 . S
H1289 N1283 0.985 . S
H1290 N1287 0.984 . S
H1291 N1287 0.985 . S
H1292 N1286 0.984 . S
H1293 N1286 0.984 . S
H1294 N1282 0.984 . S
H1295 N1282 0.985 . S
C1296 C1297 1.363 . S
C1296 C1302 1.379 . S
C1296 N1304 1.356 . S
C1297 C1296 1.363 . S
C1297 C1303 1.363 . S
C1298 C1299 1.363 . S
C1298 C1303 1.379 . S
C1298 N1305 1.356 . S
C1299 C1298 1.363 . S
C1299 C1302 1.363 . S
N1300 C1302 1.356 . S
N1300 H1312 0.984 . S
N1300 H1313 0.985 . S
N1301 C1303 1.356 . S
N1301 H1306 0.984 . S
N1301 H1307 0.985 . S
C1302 C1296 1.379 . S
C1302 C1299 1.363 . S
C1302 N1300 1.356 . S
C1303 C1297 1.363 . S
C1303 C1298 1.379 . S
C1303 N1301 1.356 . S
N1304 C1296 1.356 . S
N1304 H1310 0.984 . S
N1304 H1311 0.984 . S
N1305 C1298 1.356 . S
N1305 H1308 0.984 . S
N1305 H1309 0.985 . S
H1306 N1301 0.984 . S
H1307 N1301 0.985 . S
H1308 N1305 0.984 . S
H1309 N1305 0.985 . S
H1310 N1304 0.984 . S
H1311 N1304 0.984 . S
H1312 N1300 0.984 . S
H1313 N1300 0.985 . S
C1314 C1315 1.363 . S
C1314 C1320 1.379 . S
C1314 N1322 1.356 . S
C1315 C1314 1.363 . S
C1315 C1321 1.363 . S
C1316 C1317 1.363 . S
C1316 C1321 1.379 . S
C1316 N1323 1.356 . S
C1317 C1316 1.363 . S
C1317 C1320 1.363 . S
N1318 C1320 1.356 . S
N1318 H1330 0.984 . S
N1318 H1331 0.985 . S
N1319 C1321 1.356 . S
N1319 H1324 0.984 . S
N1319 H1325 0.985 . S
C1320 C1314 1.379 . S
C1320 C1317 1.363 . S
C1320 N1318 1.356 . S
C1321 C1315 1.363 . S
C1321 C1316 1.379 . S
C1321 N1319 1.356 . S
N1322 C1314 1.356 . S
N1322 H1328 0.984 . S
N1322 H1329 0.984 . S
N1323 C1316 1.356 . S
N1323 H1326 0.984 . S
N1323 H1327 0.985 . S
H1324 N1319 0.984 . S
H1325 N1319 0.985 . S
H1326 N1323 0.984 . S
H1327 N1323 0.985 . S
H1328 N1322 0.984 . S
H1329 N1322 0.984 . S
H1330 N1318 0.984 . S
H1331 N1318 0.985 . S
C1332 C1333 1.363 . S
C1332 C1338 1.379 . S
C1332 N1340 1.356 . S
C1333 C1332 1.363 . S
C1333 C1339 1.363 . S
C1334 C1335 1.363 . S
C1334 C1339 1.379 . S
C1334 N1341 1.356 . S
C1335 C1334 1.363 . S
C1335 C1338 1.363 . S
N1336 C1338 1.356 . S
N1336 H1348 0.984 . S
N1336 H1349 0.985 . S
N1337 C1339 1.356 . S
N1337 H1342 0.984 . S
N1337 H1343 0.985 . S
C1338 C1332 1.379 . S
C1338 C1335 1.363 . S
C1338 N1336 1.356 . S
C1339 C1333 1.363 . S
C1339 C1334 1.379 . S
C1339 N1337 1.356 . S
N1340 C1332 1.356 . S
N1340 H1346 0.984 . S
N1340 H1347 0.984 . S
N1341 C1334 1.356 . S
N1341 H1344 0.984 . S
N1341 H1345 0.985 . S
H1342 N1337 0.984 . S
H1343 N1337 0.985 . S
H1344 N1341 0.984 . S
H1345 N1341 0.985 . S
H1346 N1340 0.984 . S
H1347 N1340 0.984 . S
H1348 N1336 0.984 . S
H1349 N1336 0.985 . S
C1350 C1351 1.363 . S
C1350 C1356 1.379 . S
C1350 N1358 1.356 . S
C1351 C1350 1.363 . S
C1351 C1357 1.363 . S
C1352 C1353 1.363 . S
C1352 C1357 1.379 . S
C1352 N1359 1.356 . S
C1353 C1352 1.363 . S
C1353 C1356 1.363 . S
N1354 C1356 1.356 . S
N1354 H1366 0.984 . S
N1354 H1367 0.985 . S
N1355 C1357 1.356 . S
N1355 H1360 0.984 . S
N1355 H1361 0.985 . S
C1356 C1350 1.379 . S
C1356 C1353 1.363 . S
C1356 N1354 1.356 . S
C1357 C1351 1.363 . S
C1357 C1352 1.379 . S
C1357 N1355 1.356 . S
N1358 C1350 1.356 . S
N1358 H1364 0.984 . S
N1358 H1365 0.984 . S
N1359 C1352 1.356 . S
N1359 H1362 0.984 . S
N1359 H1363 0.985 . S
H1360 N1355 0.984 . S
H1361 N1355 0.985 . S
H1362 N1359 0.984 . S
H1363 N1359 0.985 . S
H1364 N1358 0.984 . S
H1365 N1358 0.984 . S
H1366 N1354 0.984 . S
H1367 N1354 0.985 . S
C1368 C1369 1.363 . S
C1368 C1374 1.379 . S
C1368 N1376 1.356 . S
C1369 C1368 1.363 . S
C1369 C1375 1.363 . S
C1370 C1371 1.363 . S
C1370 C1375 1.379 . S
C1370 N1377 1.356 . S
C1371 C1370 1.363 . S
C1371 C1374 1.363 . S
N1372 C1374 1.356 . S
N1372 H1384 0.984 . S
N1372 H1385 0.985 . S
N1373 C1375 1.356 . S
N1373 H1378 0.984 . S
N1373 H1379 0.985 . S
C1374 C1368 1.379 . S
C1374 C1371 1.363 . S
C1374 N1372 1.356 . S
C1375 C1369 1.363 . S
C1375 C1370 1.379 . S
C1375 N1373 1.356 . S
N1376 C1368 1.356 . S
N1376 H1382 0.984 . S
N1376 H1383 0.984 . S
N1377 C1370 1.356 . S
N1377 H1380 0.984 . S
N1377 H1381 0.985 . S
H1378 N1373 0.984 . S
H1379 N1373 0.985 . S
H1380 N1377 0.984 . S
H1381 N1377 0.985 . S
H1382 N1376 0.984 . S
H1383 N1376 0.984 . S
H1384 N1372 0.984 . S
H1385 N1372 0.985 . S
C1386 C1387 1.363 . S
C1386 C1392 1.379 . S
C1386 N1394 1.356 . S
C1387 C1386 1.363 . S
C1387 C1393 1.363 . S
C1388 C1389 1.363 . S
C1388 C1393 1.379 . S
C1388 N1395 1.356 . S
C1389 C1388 1.363 . S
C1389 C1392 1.363 . S
N1390 C1392 1.356 . S
N1390 H1402 0.984 . S
N1390 H1403 0.985 . S
N1391 C1393 1.356 . S
N1391 H1396 0.984 . S
N1391 H1397 0.985 . S
C1392 C1386 1.379 . S
C1392 C1389 1.363 . S
C1392 N1390 1.356 . S
C1393 C1387 1.363 . S
C1393 C1388 1.379 . S
C1393 N1391 1.356 . S
N1394 C1386 1.356 . S
N1394 H1400 0.984 . S
N1394 H1401 0.984 . S
N1395 C1388 1.356 . S
N1395 H1398 0.984 . S
N1395 H1399 0.985 . S
H1396 N1391 0.984 . S
H1397 N1391 0.985 . S
H1398 N1395 0.984 . S
H1399 N1395 0.985 . S
H1400 N1394 0.984 . S
H1401 N1394 0.984 . S
H1402 N1390 0.984 . S
H1403 N1390 0.985 . S
C1404 C1405 1.363 . S
C1404 C1410 1.385 . S
C1404 N1412 1.356 . S
C1405 C1404 1.363 . S
C1405 C1411 1.348 1_655 S
C1406 C1407 1.363 . S
C1406 C1411 1.385 . S
C1406 N1413 1.356 . S
C1407 C1406 1.363 . S
C1407 C1410 1.348 1_455 S
N1408 C1410 1.361 1_455 S
N1408 H1420 0.984 1_455 S
N1408 H1421 0.985 . S
N1409 C1411 1.361 1_655 S
N1409 H1414 0.984 . S
N1409 H1415 0.985 1_655 S
C1410 C1404 1.385 . S
C1410 C1407 1.348 1_655 S
C1410 N1408 1.361 1_655 S
C1411 C1405 1.348 1_455 S
C1411 C1406 1.385 . S
C1411 N1409 1.361 1_455 S
N1412 C1404 1.356 . S
N1412 H1418 0.984 . S
N1412 H1419 0.984 . S
N1413 C1406 1.356 . S
N1413 H1416 0.984 . S
N1413 H1417 0.985 . S
H1414 N1409 0.984 . S
H1415 N1409 0.985 1_455 S
H1416 N1413 0.984 . S
H1417 N1413 0.985 . S
H1418 N1412 0.984 . S
H1419 N1412 0.984 . S
H1420 N1408 0.984 1_655 S
H1421 N1408 0.985 . S
C1422 C1423 1.363 . S
C1422 C1428 1.379 . S
C1422 N1430 1.356 . S
C1423 C1422 1.363 . S
C1423 C1429 1.363 . S
C1424 C1425 1.363 . S
C1424 C1429 1.379 . S
C1424 N1431 1.356 . S
C1425 C1424 1.363 . S
C1425 C1428 1.363 . S
N1426 C1428 1.356 . S
N1426 H1438 0.984 . S
N1426 H1439 0.985 . S
N1427 C1429 1.356 . S
N1427 H1432 0.984 . S
N1427 H1433 0.985 . S
C1428 C1422 1.379 . S
C1428 C1425 1.363 . S
C1428 N1426 1.356 . S
C1429 C1423 1.363 . S
C1429 C1424 1.379 . S
C1429 N1427 1.356 . S
N1430 C1422 1.356 . S
N1430 H1436 0.984 . S
N1430 H1437 0.984 . S
N1431 C1424 1.356 . S
N1431 H1434 0.984 . S
N1431 H1435 0.985 . S
H1432 N1427 0.984 . S
H1433 N1427 0.985 . S
H1434 N1431 0.984 . S
H1435 N1431 0.985 . S
H1436 N1430 0.984 . S
H1437 N1430 0.984 . S
H1438 N1426 0.984 . S
H1439 N1426 0.985 . S
C1440 C1441 1.363 . S
C1440 C1446 1.379 . S
C1440 N1448 1.356 . S
C1441 C1440 1.363 . S
C1441 C1447 1.363 1_565 S
C1442 C1443 1.363 . S
C1442 C1447 1.379 . S
C1442 N1449 1.356 . S
C1443 C1442 1.363 . S
C1443 C1446 1.363 1_545 S
N1444 C1446 1.356 . S
N1444 H1456 0.984 . S
N1444 H1457 0.985 . S
N1445 C1447 1.356 . S
N1445 H1450 0.984 . S
N1445 H1451 0.985 . S
C1446 C1440 1.379 . S
C1446 C1443 1.363 1_565 S
C1446 N1444 1.356 . S
C1447 C1441 1.363 1_545 S
C1447 C1442 1.379 . S
C1447 N1445 1.356 . S
N1448 C1440 1.356 . S
N1448 H1454 0.984 . S
N1448 H1455 0.984 . S
N1449 C1442 1.356 . S
N1449 H1452 0.984 . S
N1449 H1453 0.985 . S
H1450 N1445 0.984 . S
H1451 N1445 0.985 . S
H1452 N1449 0.984 . S
H1453 N1449 0.985 . S
H1454 N1448 0.984 . S
H1455 N1448 0.984 . S
H1456 N1444 0.984 . S
H1457 N1444 0.985 . S
C1458 C1459 1.363 . S
C1458 C1464 1.379 . S
C1458 N1466 1.356 . S
C1459 C1458 1.363 . S
C1459 C1465 1.363 1_565 S
C1460 C1461 1.363 . S
C1460 C1465 1.379 . S
C1460 N1467 1.356 . S
C1461 C1460 1.363 . S
C1461 C1464 1.363 1_545 S
N1462 C1464 1.356 . S
N1462 H1474 0.984 . S
N1462 H1475 0.985 . S
N1463 C1465 1.356 . S
N1463 H1468 0.984 . S
N1463 H1469 0.985 . S
C1464 C1458 1.379 . S
C1464 C1461 1.363 1_565 S
C1464 N1462 1.356 . S
C1465 C1459 1.363 1_545 S
C1465 C1460 1.379 . S
C1465 N1463 1.356 . S
N1466 C1458 1.356 . S
N1466 H1472 0.984 . S
N1466 H1473 0.984 . S
N1467 C1460 1.356 . S
N1467 H1470 0.984 . S
N1467 H1471 0.985 . S
H1468 N1463 0.984 . S
H1469 N1463 0.985 . S
H1470 N1467 0.984 . S
H1471 N1467 0.985 . S
H1472 N1466 0.984 . S
H1473 N1466 0.984 . S
H1474 N1462 0.984 . S
H1475 N1462 0.985 . S
C1476 C1477 1.363 1_655 S
C1476 C1482 1.379 . S
C1476 N1484 1.356 . S
C1477 C1476 1.363 1_455 S
C1477 C1483 1.363 . S
C1478 C1479 1.363 1_455 S
C1478 C1483 1.379 . S
C1478 N1485 1.356 . S
C1479 C1478 1.363 1_655 S
C1479 C1482 1.363 . S
N1480 C1482 1.356 . S
N1480 H1492 0.984 . S
N1480 H1493 0.985 . S
N1481 C1483 1.356 . S
N1481 H1486 0.984 . S
N1481 H1487 0.985 . S
C1482 C1476 1.379 . S
C1482 C1479 1.363 . S
C1482 N1480 1.356 . S
C1483 C1477 1.363 . S
C1483 C1478 1.379 . S
C1483 N1481 1.356 . S
N1484 C1476 1.356 . S
N1484 H1490 0.984 . S
N1484 H1491 0.984 . S
N1485 C1478 1.356 . S
N1485 H1488 0.984 . S
N1485 H1489 0.985 . S
H1486 N1481 0.984 . S
H1487 N1481 0.985 . S
H1488 N1485 0.984 . S
H1489 N1485 0.985 . S
H1490 N1484 0.984 . S
H1491 N1484 0.984 . S
H1492 N1480 0.984 . S
H1493 N1480 0.985 . S
C1494 C1495 1.363 . S
C1494 C1500 1.379 . S
C1494 N1502 1.356 . S
C1495 C1494 1.363 . S
C1495 C1501 1.363 . S
C1496 C1497 1.363 . S
C1496 C1501 1.379 . S
C1496 N1503 1.356 . S
C1497 C1496 1.363 . S
C1497 C1500 1.363 . S
N1498 C1500 1.356 . S
N1498 H1510 0.984 . S
N1498 H1511 0.985 . S
N1499 C1501 1.356 . S
N1499 H1504 0.984 . S
N1499 H1505 0.985 . S
C1500 C1494 1.379 . S
C1500 C1497 1.363 . S
C1500 N1498 1.356 . S
C1501 C1495 1.363 . S
C1501 C1496 1.379 . S
C1501 N1499 1.356 . S
N1502 C1494 1.356 . S
N1502 H1508 0.984 . S
N1502 H1509 0.984 . S
N1503 C1496 1.356 . S
N1503 H1506 0.984 . S
N1503 H1507 0.985 . S
H1504 N1499 0.984 . S
H1505 N1499 0.985 . S
H1506 N1503 0.984 . S
H1507 N1503 0.985 . S
H1508 N1502 0.984 . S
H1509 N1502 0.984 . S
H1510 N1498 0.984 . S
H1511 N1498 0.985 . S
C1512 C1513 1.363 . S
C1512 C1518 1.379 . S
C1512 N1520 1.356 . S
C1513 C1512 1.363 . S
C1513 C1519 1.363 . S
C1514 C1515 1.363 . S
C1514 C1519 1.379 . S
C1514 N1521 1.356 . S
C1515 C1514 1.363 . S
C1515 C1518 1.363 . S
N1516 C1518 1.356 . S
N1516 H1528 0.984 . S
N1516 H1529 0.985 . S
N1517 C1519 1.356 . S
N1517 H1522 0.984 . S
N1517 H1523 0.985 . S
C1518 C1512 1.379 . S
C1518 C1515 1.363 . S
C1518 N1516 1.356 . S
C1519 C1513 1.363 . S
C1519 C1514 1.379 . S
C1519 N1517 1.356 . S
N1520 C1512 1.356 . S
N1520 H1526 0.984 . S
N1520 H1527 0.984 . S
N1521 C1514 1.356 . S
N1521 H1524 0.984 . S
N1521 H1525 0.985 . S
H1522 N1517 0.984 . S
H1523 N1517 0.985 . S
H1524 N1521 0.984 . S
H1525 N1521 0.985 . S
H1526 N1520 0.984 . S
H1527 N1520 0.984 . S
H1528 N1516 0.984 . S
H1529 N1516 0.985 . S
C1530 C1531 1.363 . S
C1530 C1536 1.379 . S
C1530 N1538 1.356 . S
C1531 C1530 1.363 . S
C1531 C1537 1.363 . S
C1532 C1533 1.363 . S
C1532 C1537 1.379 . S
C1532 N1539 1.356 1_545 S
C1533 C1532 1.363 . S
C1533 C1536 1.363 . S
N1534 C1536 1.356 . S
N1534 H1546 0.984 . S
N1534 H1547 0.985 . S
N1535 C1537 1.356 . S
N1535 H1540 0.984 . S
N1535 H1541 0.952 1_545 S
C1536 C1530 1.379 . S
C1536 C1533 1.363 . S
C1536 N1534 1.356 . S
C1537 C1531 1.363 . S
C1537 C1532 1.379 . S
C1537 N1535 1.356 . S
N1538 C1530 1.356 . S
N1538 H1544 0.984 . S
N1538 H1545 0.984 . S
N1539 C1532 1.356 1_565 S
N1539 H1542 0.984 . S
N1539 H1543 0.985 . S
H1540 N1535 0.984 . S
H1541 N1535 0.952 1_565 S
H1542 N1539 0.984 . S
H1543 N1539 0.985 . S
H1544 N1538 0.984 . S
H1545 N1538 0.984 . S
H1546 N1534 0.984 . S
H1547 N1534 0.985 . S
C1548 C1549 1.363 . S
C1548 C1554 1.379 . S
C1548 N1556 1.356 . S
C1549 C1548 1.363 . S
C1549 C1555 1.363 . S
C1550 C1551 1.363 . S
C1550 C1555 1.379 . S
C1550 N1557 1.356 1_655 S
C1551 C1550 1.363 . S
C1551 C1554 1.363 . S
N1552 C1554 1.356 . S
N1552 H1564 0.984 . S
N1552 H1565 0.985 . S
N1553 C1555 1.356 . S
N1553 H1558 0.984 . S
N1553 H1559 0.985 . S
C1554 C1548 1.379 . S
C1554 C1551 1.363 . S
C1554 N1552 1.356 . S
C1555 C1549 1.363 . S
C1555 C1550 1.379 . S
C1555 N1553 1.356 . S
N1556 C1548 1.356 . S
N1556 H1562 0.984 . S
N1556 H1563 0.984 . S
N1557 C1550 1.356 1_455 S
N1557 H1560 0.984 . S
N1557 H1561 0.985 . S
H1558 N1553 0.984 . S
H1559 N1553 0.985 . S
H1560 N1557 0.984 . S
H1561 N1557 0.985 . S
H1562 N1556 0.984 . S
H1563 N1556 0.984 . S
H1564 N1552 0.984 . S
H1565 N1552 0.985 . S
C1566 C1567 1.363 . S
C1566 C1572 1.379 . S
C1566 N1574 1.356 . S
C1567 C1566 1.363 . S
C1567 C1573 1.363 . S
C1568 C1569 1.363 . S
C1568 C1573 1.379 . S
C1568 N1575 1.356 . S
C1569 C1568 1.363 . S
C1569 C1572 1.363 . S
N1570 C1572 1.356 . S
N1570 H1582 0.984 . S
N1570 H1583 0.985 . S
N1571 C1573 1.356 . S
N1571 H1576 0.984 . S
N1571 H1577 0.985 . S
C1572 C1566 1.379 . S
C1572 C1569 1.363 . S
C1572 N1570 1.356 . S
C1573 C1567 1.363 . S
C1573 C1568 1.379 . S
C1573 N1571 1.356 . S
N1574 C1566 1.356 . S
N1574 H1580 0.984 . S
N1574 H1581 0.984 . S
N1575 C1568 1.356 . S
N1575 H1578 0.984 . S
N1575 H1579 0.985 . S
H1576 N1571 0.984 . S
H1577 N1571 0.985 . S
H1578 N1575 0.984 . S
H1579 N1575 0.985 . S
H1580 N1574 0.984 . S
H1581 N1574 0.984 . S
H1582 N1570 0.984 . S
H1583 N1570 0.985 . S
C1584 C1585 1.363 . S
C1584 C1590 1.379 . S
C1584 N1592 1.356 . S
C1585 C1584 1.363 . S
C1585 C1591 1.363 . S
C1586 C1587 1.363 . S
C1586 C1591 1.379 . S
C1586 N1593 1.356 1_565 S
C1587 C1586 1.363 . S
C1587 C1590 1.363 . S
N1588 C1590 1.356 . S
N1588 H1600 0.984 . S
N1588 H1601 0.985 . S
N1589 C1591 1.356 . S
N1589 H1594 0.984 . S
N1589 H1595 0.985 . S
C1590 C1584 1.379 . S
C1590 C1587 1.363 . S
C1590 N1588 1.356 . S
C1591 C1585 1.363 . S
C1591 C1586 1.379 . S
C1591 N1589 1.356 . S
N1592 C1584 1.356 . S
N1592 H1598 0.984 . S
N1592 H1599 0.984 . S
N1593 C1586 1.356 1_545 S
N1593 H1596 0.984 . S
N1593 H1597 0.985 . S
H1594 N1589 0.984 . S
H1595 N1589 0.985 . S
H1596 N1593 0.984 . S
H1597 N1593 0.985 . S
H1598 N1592 0.984 . S
H1599 N1592 0.984 . S
H1600 N1588 0.984 . S
H1601 N1588 0.985 . S
C1602 C1603 1.363 . S
C1602 C1608 1.379 . S
C1602 N1610 1.356 . S
C1603 C1602 1.363 . S
C1603 C1609 1.363 . S
C1604 C1605 1.363 . S
C1604 C1609 1.379 . S
C1604 N1611 1.356 . S
C1605 C1604 1.363 . S
C1605 C1608 1.363 . S
N1606 C1608 1.356 . S
N1606 H1618 0.984 . S
N1606 H1619 0.985 . S
N1607 C1609 1.356 1_655 S
N1607 H1612 0.984 . S
N1607 H1613 0.985 . S
C1608 C1602 1.379 . S
C1608 C1605 1.363 . S
C1608 N1606 1.356 . S
C1609 C1603 1.363 . S
C1609 C1604 1.379 . S
C1609 N1607 1.356 1_455 S
N1610 C1602 1.356 . S
N1610 H1616 0.984 . S
N1610 H1617 0.984 . S
N1611 C1604 1.356 . S
N1611 H1614 0.984 . S
N1611 H1615 0.985 . S
H1612 N1607 0.984 . S
H1613 N1607 0.985 . S
H1614 N1611 0.984 . S
H1615 N1611 0.985 . S
H1616 N1610 0.984 . S
H1617 N1610 0.984 . S
H1618 N1606 0.984 . S
H1619 N1606 0.985 . S
C1620 C1621 1.363 . S
C1620 C1626 1.379 . S
C1620 N1628 1.356 . S
C1621 C1620 1.363 . S
C1621 C1627 1.363 . S
C1622 C1623 1.363 . S
C1622 C1627 1.379 . S
C1622 N1629 1.356 . S
C1623 C1622 1.363 . S
C1623 C1626 1.363 . S
N1624 C1626 1.356 . S
N1624 H1636 0.984 . S
N1624 H1637 0.985 . S
N1625 C1627 1.356 . S
N1625 H1630 0.984 . S
N1625 H1631 0.985 . S
C1626 C1620 1.379 . S
C1626 C1623 1.363 . S
C1626 N1624 1.356 . S
C1627 C1621 1.363 . S
C1627 C1622 1.379 . S
C1627 N1625 1.356 . S
N1628 C1620 1.356 . S
N1628 H1634 0.984 . S
N1628 H1635 0.984 . S
N1629 C1622 1.356 . S
N1629 H1632 0.984 . S
N1629 H1633 0.985 . S
H1630 N1625 0.984 . S
H1631 N1625 0.985 . S
H1632 N1629 0.984 . S
H1633 N1629 0.985 . S
H1634 N1628 0.984 . S
H1635 N1628 0.984 . S
H1636 N1624 0.984 . S
H1637 N1624 0.985 . S
C1638 C1639 1.363 . S
C1638 C1644 1.379 . S
C1638 N1646 1.356 . S
C1639 C1638 1.363 . S
C1639 C1645 1.363 . S
C1640 C1641 1.363 . S
C1640 C1645 1.379 . S
C1640 N1647 1.356 1_565 S
C1641 C1640 1.363 . S
C1641 C1644 1.363 . S
N1642 C1644 1.356 . S
N1642 H1654 0.984 . S
N1642 H1655 0.985 . S
N1643 C1645 1.356 . S
N1643 H1648 0.984 . S
N1643 H1649 0.985 . S
C1644 C1638 1.379 . S
C1644 C1641 1.363 . S
C1644 N1642 1.356 . S
C1645 C1639 1.363 . S
C1645 C1640 1.379 . S
C1645 N1643 1.356 . S
N1646 C1638 1.356 . S
N1646 H1652 0.984 . S
N1646 H1653 0.984 . S
N1647 C1640 1.356 1_545 S
N1647 H1650 0.984 . S
N1647 H1651 0.985 . S
H1648 N1643 0.984 . S
H1649 N1643 0.985 . S
H1650 N1647 0.984 . S
H1651 N1647 0.985 . S
H1652 N1646 0.984 . S
H1653 N1646 0.984 . S
H1654 N1642 0.984 . S
H1655 N1642 0.985 . S
C1656 C1657 1.363 . S
C1656 C1662 1.379 . S
C1656 N1664 1.356 . S
C1657 C1656 1.363 . S
C1657 C1663 1.363 . S
C1658 C1659 1.363 . S
C1658 C1663 1.379 . S
C1658 N1665 1.356 . S
C1659 C1658 1.363 . S
C1659 C1662 1.363 . S
N1660 C1662 1.356 1_655 S
N1660 H1672 0.984 . S
N1660 H1673 0.985 . S
N1661 C1663 1.356 . S
N1661 H1666 0.984 . S
N1661 H1667 0.985 . S
C1662 C1656 1.379 . S
C1662 C1659 1.363 . S
C1662 N1660 1.356 1_455 S
C1663 C1657 1.363 . S
C1663 C1658 1.379 . S
C1663 N1661 1.356 . S
N1664 C1656 1.356 . S
N1664 H1670 0.984 . S
N1664 H1671 0.984 . S
N1665 C1658 1.356 . S
N1665 H1668 0.984 . S
N1665 H1669 0.985 . S
H1666 N1661 0.984 . S
H1667 N1661 0.985 . S
H1668 N1665 0.984 . S
H1669 N1665 0.985 . S
H1670 N1664 0.984 . S
H1671 N1664 0.984 . S
H1672 N1660 0.984 . S
H1673 N1660 0.985 . S
C1674 C1675 1.363 . S
C1674 C1680 1.379 . S
C1674 N1682 1.356 . S
C1675 C1674 1.363 . S
C1675 C1681 1.363 . S
C1676 C1677 1.363 . S
C1676 C1681 1.379 . S
C1676 N1683 1.356 . S
C1677 C1676 1.363 . S
C1677 C1680 1.363 . S
N1678 C1680 1.356 . S
N1678 H1690 0.984 . S
N1678 H1691 0.985 . S
N1679 C1681 1.356 . S
N1679 H1684 0.984 . S
N1679 H1685 0.985 . S
C1680 C1674 1.379 . S
C1680 C1677 1.363 . S
C1680 N1678 1.356 . S
C1681 C1675 1.363 . S
C1681 C1676 1.379 . S
C1681 N1679 1.356 . S
N1682 C1674 1.356 . S
N1682 H1688 0.984 . S
N1682 H1689 0.984 . S
N1683 C1676 1.356 . S
N1683 H1686 0.984 . S
N1683 H1687 0.985 . S
H1684 N1679 0.984 . S
H1685 N1679 0.985 . S
H1686 N1683 0.984 . S
H1687 N1683 0.985 . S
H1688 N1682 0.984 . S
H1689 N1682 0.984 . S
H1690 N1678 0.984 . S
H1691 N1678 0.985 . S
C1692 C1693 1.363 . S
C1692 C1698 1.379 . S
C1692 N1700 1.356 1_545 S
C1693 C1692 1.363 . S
C1693 C1699 1.363 . S
C1694 C1695 1.363 . S
C1694 C1699 1.379 . S
C1694 N1701 1.356 . S
C1695 C1694 1.363 . S
C1695 C1698 1.363 . S
N1696 C1698 1.356 . S
N1696 H1708 0.984 . S
N1696 H1709 0.985 . S
N1697 C1699 1.356 . S
N1697 H1702 0.984 . S
N1697 H1703 0.985 . S
C1698 C1692 1.379 . S
C1698 C1695 1.363 . S
C1698 N1696 1.356 . S
C1699 C1693 1.363 . S
C1699 C1694 1.379 . S
C1699 N1697 1.356 . S
N1700 C1692 1.356 1_565 S
N1700 H1706 0.984 . S
N1700 H1707 0.984 . S
N1701 C1694 1.356 . S
N1701 H1704 0.984 . S
N1701 H1705 0.985 . S
H1702 N1697 0.984 . S
H1703 N1697 0.985 . S
H1704 N1701 0.984 . S
H1705 N1701 0.985 . S
H1706 N1700 0.984 . S
H1707 N1700 0.984 . S
H1708 N1696 0.984 . S
H1709 N1696 0.985 . S
C1710 C1711 1.363 . S
C1710 C1716 1.379 . S
C1710 N1718 1.356 . S
C1711 C1710 1.363 . S
C1711 C1717 1.363 . S
C1712 C1713 1.363 . S
C1712 C1717 1.379 . S
C1712 N1719 1.356 . S
C1713 C1712 1.363 . S
C1713 C1716 1.363 . S
N1714 C1716 1.356 . S
N1714 H1726 0.984 . S
N1714 H1727 0.985 . S
N1715 C1717 1.356 1_455 S
N1715 H1720 0.984 . S
N1715 H1721 0.985 . S
C1716 C1710 1.379 . S
C1716 C1713 1.363 . S
C1716 N1714 1.356 . S
C1717 C1711 1.363 . S
C1717 C1712 1.379 . S
C1717 N1715 1.356 1_655 S
N1718 C1710 1.356 . S
N1718 H1724 0.984 . S
N1718 H1725 0.984 . S
N1719 C1712 1.356 . S
N1719 H1722 0.984 . S
N1719 H1723 0.985 . S
H1720 N1715 0.984 . S
H1721 N1715 0.985 . S
H1722 N1719 0.984 . S
H1723 N1719 0.985 . S
H1724 N1718 0.984 . S
H1725 N1718 0.984 . S
H1726 N1714 0.984 . S
H1727 N1714 0.985 . S
C1728 C1729 1.363 . S
C1728 C1734 1.379 1_655 S
C1728 N1736 1.356 . S
C1729 C1728 1.363 . S
C1729 C1735 1.363 . S
C1730 C1731 1.363 . S
C1730 C1735 1.379 1_455 S
C1730 N1737 1.356 . S
C1731 C1730 1.363 . S
C1731 C1734 1.363 . S
N1732 C1734 1.356 . S
N1732 H1744 0.984 . S
N1732 H1745 0.985 . S
N1733 C1735 1.356 . S
N1733 H1738 0.984 . S
N1733 H1739 0.985 . S
C1734 C1728 1.379 1_455 S
C1734 C1731 1.363 . S
C1734 N1732 1.356 . S
C1735 C1729 1.363 . S
C1735 C1730 1.379 1_655 S
C1735 N1733 1.356 . S
N1736 C1728 1.356 . S
N1736 H1742 0.984 . S
N1736 H1743 0.984 . S
N1737 C1730 1.356 . S
N1737 H1740 0.984 . S
N1737 H1741 0.985 . S
H1738 N1733 0.984 . S
H1739 N1733 0.985 . S
H1740 N1737 0.984 . S
H1741 N1737 0.985 . S
H1742 N1736 0.984 . S
H1743 N1736 0.984 . S
H1744 N1732 0.984 . S
H1745 N1732 0.985 . S
C1746 C1747 1.363 . S
C1746 C1752 1.379 . S
C1746 N1754 1.356 . S
C1747 C1746 1.363 . S
C1747 C1753 1.363 . S
C1748 C1749 1.363 . S
C1748 C1753 1.379 . S
C1748 N1755 1.356 . S
C1749 C1748 1.363 . S
C1749 C1752 1.363 . S
N1750 C1752 1.356 . S
N1750 H1762 0.984 . S
N1750 H1763 0.985 . S
N1751 C1753 1.356 . S
N1751 H1756 0.984 . S
N1751 H1757 0.985 . S
C1752 C1746 1.379 . S
C1752 C1749 1.363 . S
C1752 N1750 1.356 . S
C1753 C1747 1.363 . S
C1753 C1748 1.379 . S
C1753 N1751 1.356 . S
N1754 C1746 1.356 . S
N1754 H1760 0.984 . S
N1754 H1761 0.984 . S
N1755 C1748 1.356 . S
N1755 H1758 0.984 . S
N1755 H1759 0.985 . S
H1756 N1751 0.984 . S
H1757 N1751 0.985 . S
H1758 N1755 0.984 . S
H1759 N1755 0.985 . S
H1760 N1754 0.984 . S
H1761 N1754 0.984 . S
H1762 N1750 0.984 . S
H1763 N1750 0.985 . S
C1764 C1765 1.363 . S
C1764 C1770 1.379 1_545 S
C1764 N1772 1.356 . S
C1765 C1764 1.363 . S
C1765 C1771 1.363 . S
C1766 C1767 1.363 . S
C1766 C1771 1.379 1_565 S
C1766 N1773 1.356 . S
C1767 C1766 1.363 . S
C1767 C1770 1.363 . S
N1768 C1770 1.356 . S
N1768 H1780 0.984 . S
N1768 H1781 0.985 . S
N1769 C1771 1.356 . S
N1769 H1774 0.984 . S
N1769 H1775 0.985 . S
C1770 C1764 1.379 1_565 S
C1770 C1767 1.363 . S
C1770 N1768 1.356 . S
C1771 C1765 1.363 . S
C1771 C1766 1.379 1_545 S
C1771 N1769 1.356 . S
N1772 C1764 1.356 . S
N1772 H1778 0.984 . S
N1772 H1779 0.984 . S
N1773 C1766 1.356 . S
N1773 H1776 0.984 . S
N1773 H1777 0.985 . S
H1774 N1769 0.984 . S
H1775 N1769 0.985 . S
H1776 N1773 0.984 . S
H1777 N1773 0.985 . S
H1778 N1772 0.984 . S
H1779 N1772 0.984 . S
H1780 N1768 0.984 . S
H1781 N1768 0.985 . S
C1782 C1783 1.363 . S
C1782 C1788 1.379 1_545 S
C1782 N1790 1.356 . S
C1783 C1782 1.363 . S
C1783 C1789 1.363 . S
C1784 C1785 1.363 . S
C1784 C1789 1.379 1_565 S
C1784 N1791 1.356 . S
C1785 C1784 1.363 . S
C1785 C1788 1.363 . S
N1786 C1788 1.356 . S
N1786 H1798 0.984 . S
N1786 H1799 0.985 . S
N1787 C1789 1.356 . S
N1787 H1792 0.984 . S
N1787 H1793 0.985 . S
C1788 C1782 1.379 1_565 S
C1788 C1785 1.363 . S
C1788 N1786 1.356 . S
C1789 C1783 1.363 . S
C1789 C1784 1.379 1_545 S
C1789 N1787 1.356 . S
N1790 C1782 1.356 . S
N1790 H1796 0.984 . S
N1790 H1797 0.984 . S
N1791 C1784 1.356 . S
N1791 H1794 0.984 . S
N1791 H1795 0.985 . S
H1792 N1787 0.984 . S
H1793 N1787 0.985 . S
H1794 N1791 0.984 . S
H1795 N1791 0.985 . S
H1796 N1790 0.984 . S
H1797 N1790 0.984 . S
H1798 N1786 0.984 . S
H1799 N1786 0.985 . S
C1800 C1801 1.363 . S
C1800 C1806 1.379 1_455 S
C1800 N1808 1.356 . S
C1801 C1800 1.363 . S
C1801 C1807 1.363 . S
C1802 C1803 1.363 . S
C1802 C1807 1.379 1_655 S
C1802 N1809 1.356 . S
C1803 C1802 1.363 . S
C1803 C1806 1.363 . S
N1804 C1806 1.356 . S
N1804 H1816 0.984 . S
N1804 H1817 0.985 . S
N1805 C1807 1.356 . S
N1805 H1810 0.984 . S
N1805 H1811 0.985 . S
C1806 C1800 1.379 1_655 S
C1806 C1803 1.363 . S
C1806 N1804 1.356 . S
C1807 C1801 1.363 . S
C1807 C1802 1.379 1_455 S
C1807 N1805 1.356 . S
N1808 C1800 1.356 . S
N1808 H1814 0.984 . S
N1808 H1815 0.984 . S
N1809 C1802 1.356 . S
N1809 H1812 0.984 . S
N1809 H1813 0.985 . S
H1810 N1805 0.984 . S
H1811 N1805 0.985 . S
H1812 N1809 0.984 . S
H1813 N1809 0.985 . S
H1814 N1808 0.984 . S
H1815 N1808 0.984 . S
H1816 N1804 0.984 . S
H1817 N1804 0.985 . S
C1818 C1819 1.363 . S
C1818 C1824 1.379 . S
C1818 N1826 1.356 . S
C1819 C1818 1.363 . S
C1819 C1825 1.363 . S
C1820 C1821 1.363 . S
C1820 C1825 1.379 . S
C1820 N1827 1.356 . S
C1821 C1820 1.363 . S
C1821 C1824 1.363 . S
N1822 C1824 1.356 . S
N1822 H1834 0.984 . S
N1822 H1835 0.985 . S
N1823 C1825 1.356 . S
N1823 H1828 0.984 . S
N1823 H1829 0.985 . S
C1824 C1818 1.379 . S
C1824 C1821 1.363 . S
C1824 N1822 1.356 . S
C1825 C1819 1.363 . S
C1825 C1820 1.379 . S
C1825 N1823 1.356 . S
N1826 C1818 1.356 . S
N1826 H1832 0.984 . S
N1826 H1833 0.984 . S
N1827 C1820 1.356 . S
N1827 H1830 0.984 . S
N1827 H1831 0.985 . S
H1828 N1823 0.984 . S
H1829 N1823 0.985 . S
H1830 N1827 0.984 . S
H1831 N1827 0.985 . S
H1832 N1826 0.984 . S
H1833 N1826 0.984 . S
H1834 N1822 0.984 . S
H1835 N1822 0.985 . S
C1836 C1837 1.363 . S
C1836 C1842 1.379 . S
C1836 N1844 1.356 . S
C1837 C1836 1.363 . S
C1837 C1843 1.363 . S
C1838 C1839 1.363 . S
C1838 C1843 1.379 . S
C1838 N1845 1.356 . S
C1839 C1838 1.363 . S
C1839 C1842 1.363 . S
N1840 C1842 1.356 . S
N1840 H1852 0.984 . S
N1840 H1853 0.985 . S
N1841 C1843 1.356 . S
N1841 H1846 0.984 . S
N1841 H1847 0.985 . S
C1842 C1836 1.379 . S
C1842 C1839 1.363 . S
C1842 N1840 1.356 . S
C1843 C1837 1.363 . S
C1843 C1838 1.379 . S
C1843 N1841 1.356 . S
N1844 C1836 1.356 . S
N1844 H1850 0.984 . S
N1844 H1851 0.984 . S
N1845 C1838 1.356 . S
N1845 H1848 0.984 . S
N1845 H1849 0.985 . S
H1846 N1841 0.984 . S
H1847 N1841 0.985 . S
H1848 N1845 0.984 . S
H1849 N1845 0.985 . S
H1850 N1844 0.984 . S
H1851 N1844 0.984 . S
H1852 N1840 0.984 . S
H1853 N1840 0.985 . S
C1854 C1855 1.363 . S
C1854 C1860 1.379 . S
C1854 N1862 1.356 . S
C1855 C1854 1.363 . S
C1855 C1861 1.363 . S
C1856 C1857 1.363 . S
C1856 C1861 1.379 . S
C1856 N1863 1.356 . S
C1857 C1856 1.363 . S
C1857 C1860 1.363 . S
N1858 C1860 1.356 . S
N1858 H1870 0.984 . S
N1858 H1871 0.985 . S
N1859 C1861 1.356 . S
N1859 H1864 0.984 . S
N1859 H1865 0.985 . S
C1860 C1854 1.379 . S
C1860 C1857 1.363 . S
C1860 N1858 1.356 . S
C1861 C1855 1.363 . S
C1861 C1856 1.379 . S
C1861 N1859 1.356 . S
N1862 C1854 1.356 . S
N1862 H1868 0.984 . S
N1862 H1869 0.984 . S
N1863 C1856 1.356 . S
N1863 H1866 0.984 . S
N1863 H1867 0.985 . S
H1864 N1859 0.984 . S
H1865 N1859 0.985 . S
H1866 N1863 0.984 . S
H1867 N1863 0.985 . S
H1868 N1862 0.984 . S
H1869 N1862 0.984 . S
H1870 N1858 0.984 . S
H1871 N1858 0.985 . S
C1872 C1873 1.363 . S
C1872 C1878 1.379 . S
C1872 N1880 1.356 . S
C1873 C1872 1.363 . S
C1873 C1879 1.363 . S
C1874 C1875 1.363 . S
C1874 C1879 1.379 . S
C1874 N1881 1.356 . S
C1875 C1874 1.363 . S
C1875 C1878 1.363 . S
N1876 C1878 1.356 . S
N1876 H1888 0.984 . S
N1876 H1889 0.985 . S
N1877 C1879 1.356 . S
N1877 H1882 0.984 . S
N1877 H1883 0.985 . S
C1878 C1872 1.379 . S
C1878 C1875 1.363 . S
C1878 N1876 1.356 . S
C1879 C1873 1.363 . S
C1879 C1874 1.379 . S
C1879 N1877 1.356 . S
N1880 C1872 1.356 . S
N1880 H1886 0.984 . S
N1880 H1887 0.984 . S
N1881 C1874 1.356 . S
N1881 H1884 0.984 . S
N1881 H1885 0.985 . S
H1882 N1877 0.984 . S
H1883 N1877 0.985 . S
H1884 N1881 0.984 . S
H1885 N1881 0.985 . S
H1886 N1880 0.984 . S
H1887 N1880 0.984 . S
H1888 N1876 0.984 . S
H1889 N1876 0.985 . S
C1890 C1891 1.363 . S
C1890 C1896 1.379 . S
C1890 N1898 1.356 . S
C1891 C1890 1.363 . S
C1891 C1897 1.363 . S
C1892 C1893 1.363 . S
C1892 C1897 1.379 . S
C1892 N1899 1.356 . S
C1893 C1892 1.363 . S
C1893 C1896 1.363 . S
N1894 C1896 1.356 . S
N1894 H1906 0.984 . S
N1894 H1907 0.985 . S
N1895 C1897 1.356 . S
N1895 H1900 0.984 . S
N1895 H1901 0.985 . S
C1896 C1890 1.379 . S
C1896 C1893 1.363 . S
C1896 N1894 1.356 . S
C1897 C1891 1.363 . S
C1897 C1892 1.379 . S
C1897 N1895 1.356 . S
N1898 C1890 1.356 . S
N1898 H1904 0.984 . S
N1898 H1905 0.984 . S
N1899 C1892 1.356 . S
N1899 H1902 0.984 . S
N1899 H1903 0.985 . S
H1900 N1895 0.984 . S
H1901 N1895 0.985 . S
H1902 N1899 0.984 . S
H1903 N1899 0.985 . S
H1904 N1898 0.984 . S
H1905 N1898 0.984 . S
H1906 N1894 0.984 . S
H1907 N1894 0.985 . S
C1908 C1909 1.363 . S
C1908 C1914 1.379 . S
C1908 N1916 1.356 . S
C1909 C1908 1.363 . S
C1909 C1915 1.363 . S
C1910 C1911 1.363 . S
C1910 C1915 1.379 . S
C1910 N1917 1.356 . S
C1911 C1910 1.363 . S
C1911 C1914 1.363 . S
N1912 C1914 1.356 . S
N1912 H1924 0.984 . S
N1912 H1925 0.985 . S
N1913 C1915 1.356 . S
N1913 H1918 0.984 . S
N1913 H1919 0.985 . S
C1914 C1908 1.379 . S
C1914 C1911 1.363 . S
C1914 N1912 1.356 . S
C1915 C1909 1.363 . S
C1915 C1910 1.379 . S
C1915 N1913 1.356 . S
N1916 C1908 1.356 . S
N1916 H1922 0.984 . S
N1916 H1923 0.984 . S
N1917 C1910 1.356 . S
N1917 H1920 0.984 . S
N1917 H1921 0.985 . S
H1918 N1913 0.984 . S
H1919 N1913 0.985 . S
H1920 N1917 0.984 . S
H1921 N1917 0.985 . S
H1922 N1916 0.984 . S
H1923 N1916 0.984 . S
H1924 N1912 0.984 . S
H1925 N1912 0.985 . S
C1926 C1927 1.363 . S
C1926 C1932 1.379 . S
C1926 N1934 1.356 . S
C1927 C1926 1.363 . S
C1927 C1933 1.363 . S
C1928 C1929 1.363 . S
C1928 C1933 1.379 . S
C1928 N1935 1.356 . S
C1929 C1928 1.363 . S
C1929 C1932 1.363 . S
N1930 C1932 1.356 . S
N1930 H1942 0.984 . S
N1930 H1943 0.985 . S
N1931 C1933 1.356 . S
N1931 H1936 0.984 . S
N1931 H1937 0.985 . S
C1932 C1926 1.379 . S
C1932 C1929 1.363 . S
C1932 N1930 1.356 . S
C1933 C1927 1.363 . S
C1933 C1928 1.379 . S
C1933 N1931 1.356 . S
N1934 C1926 1.356 . S
N1934 H1940 0.984 . S
N1934 H1941 0.984 . S
N1935 C1928 1.356 . S
N1935 H1938 0.984 . S
N1935 H1939 0.985 . S
H1936 N1931 0.984 . S
H1937 N1931 0.985 . S
H1938 N1935 0.984 . S
H1939 N1935 0.985 . S
H1940 N1934 0.984 . S
H1941 N1934 0.984 . S
H1942 N1930 0.984 . S
H1943 N1930 0.985 . S
C1944 C1945 1.363 . S
C1944 C1950 1.379 . S
C1944 N1952 1.356 . S
C1945 C1944 1.363 . S
C1945 C1951 1.363 . S
C1946 C1947 1.363 . S
C1946 C1951 1.379 . S
C1946 N1953 1.356 . S
C1947 C1946 1.363 . S
C1947 C1950 1.363 . S
N1948 C1950 1.356 . S
N1948 H1960 0.984 . S
N1948 H1961 0.985 . S
N1949 C1951 1.356 . S
N1949 H1954 0.984 . S
N1949 H1955 0.985 . S
C1950 C1944 1.379 . S
C1950 C1947 1.363 . S
C1950 N1948 1.356 . S
C1951 C1945 1.363 . S
C1951 C1946 1.379 . S
C1951 N1949 1.356 . S
N1952 C1944 1.356 . S
N1952 H1958 0.984 . S
N1952 H1959 0.984 . S
N1953 C1946 1.356 . S
N1953 H1956 0.984 . S
N1953 H1957 0.985 . S
H1954 N1949 0.984 . S
H1955 N1949 0.985 . S
H1956 N1953 0.984 . S
H1957 N1953 0.985 . S
H1958 N1952 0.984 . S
H1959 N1952 0.984 . S
H1960 N1948 0.984 . S
H1961 N1948 0.985 . S
C1962 C1963 1.363 . S
C1962 C1968 1.379 . S
C1962 N1970 1.356 . S
C1963 C1962 1.363 . S
C1963 C1969 1.363 . S
C1964 C1965 1.363 . S
C1964 C1969 1.379 . S
C1964 N1971 1.356 . S
C1965 C1964 1.363 . S
C1965 C1968 1.363 . S
N1966 C1968 1.356 . S
N1966 H1978 0.984 . S
N1966 H1979 0.985 . S
N1967 C1969 1.356 . S
N1967 H1972 0.984 . S
N1967 H1973 0.985 . S
C1968 C1962 1.379 . S
C1968 C1965 1.363 . S
C1968 N1966 1.356 . S
C1969 C1963 1.363 . S
C1969 C1964 1.379 . S
C1969 N1967 1.356 . S
N1970 C1962 1.356 . S
N1970 H1976 0.984 . S
N1970 H1977 0.984 . S
N1971 C1964 1.356 . S
N1971 H1974 0.984 . S
N1971 H1975 0.985 . S
H1972 N1967 0.984 . S
H1973 N1967 0.985 . S
H1974 N1971 0.984 . S
H1975 N1971 0.985 . S
H1976 N1970 0.984 . S
H1977 N1970 0.984 . S
H1978 N1966 0.984 . S
H1979 N1966 0.985 . S
C1980 C1981 1.363 . S
C1980 C1986 1.379 . S
C1980 N1988 1.356 . S
C1981 C1980 1.363 . S
C1981 C1987 1.363 . S
C1982 C1983 1.363 . S
C1982 C1987 1.379 . S
C1982 N1989 1.356 . S
C1983 C1982 1.363 . S
C1983 C1986 1.363 . S
N1984 C1986 1.356 . S
N1984 H1996 0.984 . S
N1984 H1997 0.985 . S
N1985 C1987 1.356 . S
N1985 H1990 0.984 . S
N1985 H1991 0.985 . S
C1986 C1980 1.379 . S
C1986 C1983 1.363 . S
C1986 N1984 1.356 . S
C1987 C1981 1.363 . S
C1987 C1982 1.379 . S
C1987 N1985 1.356 . S
N1988 C1980 1.356 . S
N1988 H1994 0.984 . S
N1988 H1995 0.984 . S
N1989 C1982 1.356 . S
N1989 H1992 0.984 . S
N1989 H1993 0.985 . S
H1990 N1985 0.984 . S
H1991 N1985 0.985 . S
H1992 N1989 0.984 . S
H1993 N1989 0.985 . S
H1994 N1988 0.984 . S
H1995 N1988 0.984 . S
H1996 N1984 0.984 . S
H1997 N1984 0.985 . S
C1998 C1999 1.363 . S
C1998 C2004 1.379 . S
C1998 N2006 1.356 . S
C1999 C1998 1.363 . S
C1999 C2005 1.363 . S
C2000 C2001 1.363 . S
C2000 C2005 1.379 . S
C2000 N2007 1.356 . S
C2001 C2000 1.363 . S
C2001 C2004 1.363 . S
N2002 C2004 1.356 . S
N2002 H2014 0.984 . S
N2002 H2015 0.985 . S
N2003 C2005 1.356 . S
N2003 H2008 0.984 . S
N2003 H2009 0.985 . S
C2004 C1998 1.379 . S
C2004 C2001 1.363 . S
C2004 N2002 1.356 . S
C2005 C1999 1.363 . S
C2005 C2000 1.379 . S
C2005 N2003 1.356 . S
N2006 C1998 1.356 . S
N2006 H2012 0.984 . S
N2006 H2013 0.984 . S
N2007 C2000 1.356 . S
N2007 H2010 0.984 . S
N2007 H2011 0.985 . S
H2008 N2003 0.984 . S
H2009 N2003 0.985 . S
H2010 N2007 0.984 . S
H2011 N2007 0.985 . S
H2012 N2006 0.984 . S
H2013 N2006 0.984 . S
H2014 N2002 0.984 . S
H2015 N2002 0.985 . S
C2016 C2017 1.363 . S
C2016 C2022 1.379 . S
C2016 N2024 1.356 . S
C2017 C2016 1.363 . S
C2017 C2023 1.363 . S
C2018 C2019 1.363 . S
C2018 C2023 1.379 . S
C2018 N2025 1.356 . S
C2019 C2018 1.363 . S
C2019 C2022 1.363 . S
N2020 C2022 1.356 . S
N2020 H2032 0.984 . S
N2020 H2033 0.985 . S
N2021 C2023 1.356 . S
N2021 H2026 0.984 . S
N2021 H2027 0.985 . S
C2022 C2016 1.379 . S
C2022 C2019 1.363 . S
C2022 N2020 1.356 . S
C2023 C2017 1.363 . S
C2023 C2018 1.379 . S
C2023 N2021 1.356 . S
N2024 C2016 1.356 . S
N2024 H2030 0.984 . S
N2024 H2031 0.984 . S
N2025 C2018 1.356 . S
N2025 H2028 0.984 . S
N2025 H2029 0.985 . S
H2026 N2021 0.984 . S
H2027 N2021 0.985 . S
H2028 N2025 0.984 . S
H2029 N2025 0.985 . S
H2030 N2024 0.984 . S
H2031 N2024 0.984 . S
H2032 N2020 0.984 . S
H2033 N2020 0.985 . S
C2034 C2035 1.363 . S
C2034 C2040 1.379 . S
C2034 N2042 1.356 . S
C2035 C2034 1.363 . S
C2035 C2041 1.363 . S
C2036 C2037 1.363 . S
C2036 C2041 1.379 . S
C2036 N2043 1.356 . S
C2037 C2036 1.363 . S
C2037 C2040 1.363 . S
N2038 C2040 1.356 . S
N2038 H2050 0.984 . S
N2038 H2051 0.985 . S
N2039 C2041 1.356 . S
N2039 H2044 0.984 . S
N2039 H2045 0.985 . S
C2040 C2034 1.379 . S
C2040 C2037 1.363 . S
C2040 N2038 1.356 . S
C2041 C2035 1.363 . S
C2041 C2036 1.379 . S
C2041 N2039 1.356 . S
N2042 C2034 1.356 . S
N2042 H2048 0.984 . S
N2042 H2049 0.984 . S
N2043 C2036 1.356 . S
N2043 H2046 0.984 . S
N2043 H2047 0.985 . S
H2044 N2039 0.984 . S
H2045 N2039 0.985 . S
H2046 N2043 0.984 . S
H2047 N2043 0.985 . S
H2048 N2042 0.984 . S
H2049 N2042 0.984 . S
H2050 N2038 0.984 . S
H2051 N2038 0.985 . S
C2052 C2053 1.363 . S
C2052 C2058 1.379 1_455 S
C2052 N2060 1.356 . S
C2053 C2052 1.363 . S
C2053 C2059 1.363 . S
C2054 C2055 1.363 . S
C2054 C2059 1.379 1_655 S
C2054 N2061 1.356 . S
C2055 C2054 1.363 . S
C2055 C2058 1.363 . S
N2056 C2058 1.356 . S
N2056 H2068 0.984 . S
N2056 H2069 0.985 . S
N2057 C2059 1.356 . S
N2057 H2062 0.984 . S
N2057 H2063 0.985 . S
C2058 C2052 1.379 1_655 S
C2058 C2055 1.363 . S
C2058 N2056 1.356 . S
C2059 C2053 1.363 . S
C2059 C2054 1.379 1_455 S
C2059 N2057 1.356 . S
N2060 C2052 1.356 . S
N2060 H2066 0.984 . S
N2060 H2067 0.984 . S
N2061 C2054 1.356 . S
N2061 H2064 0.984 . S
N2061 H2065 0.985 . S
H2062 N2057 0.984 . S
H2063 N2057 0.985 . S
H2064 N2061 0.984 . S
H2065 N2061 0.985 . S
H2066 N2060 0.984 . S
H2067 N2060 0.984 . S
H2068 N2056 0.984 . S
H2069 N2056 0.985 . S
C2070 C2071 1.363 . S
C2070 C2076 1.379 . S
C2070 N2078 1.356 . S
C2071 C2070 1.363 . S
C2071 C2077 1.363 . S
C2072 C2073 1.363 . S
C2072 C2077 1.379 . S
C2072 N2079 1.356 . S
C2073 C2072 1.363 . S
C2073 C2076 1.363 . S
N2074 C2076 1.356 . S
N2074 H2086 0.984 . S
N2074 H2087 0.985 . S
N2075 C2077 1.356 . S
N2075 H2080 0.984 . S
N2075 H2081 0.985 . S
C2076 C2070 1.379 . S
C2076 C2073 1.363 . S
C2076 N2074 1.356 . S
C2077 C2071 1.363 . S
C2077 C2072 1.379 . S
C2077 N2075 1.356 . S
N2078 C2070 1.356 . S
N2078 H2084 0.984 . S
N2078 H2085 0.984 . S
N2079 C2072 1.356 . S
N2079 H2082 0.984 . S
N2079 H2083 0.985 . S
H2080 N2075 0.984 . S
H2081 N2075 0.985 . S
H2082 N2079 0.984 . S
H2083 N2079 0.985 . S
H2084 N2078 0.984 . S
H2085 N2078 0.984 . S
H2086 N2074 0.984 . S
H2087 N2074 0.985 . S
C2088 C2089 1.363 1_565 S
C2088 C2094 1.379 . S
C2088 N2096 1.356 . S
C2089 C2088 1.363 1_545 S
C2089 C2095 1.363 . S
C2090 C2091 1.363 1_545 S
C2090 C2095 1.379 . S
C2090 N2097 1.356 . S
C2091 C2090 1.363 1_565 S
C2091 C2094 1.363 . S
N2092 C2094 1.356 . S
N2092 H2104 0.984 . S
N2092 H2105 0.985 . S
N2093 C2095 1.356 . S
N2093 H2098 0.984 . S
N2093 H2099 0.985 . S
C2094 C2088 1.379 . S
C2094 C2091 1.363 . S
C2094 N2092 1.356 . S
C2095 C2089 1.363 . S
C2095 C2090 1.379 . S
C2095 N2093 1.356 . S
N2096 C2088 1.356 . S
N2096 H2102 0.984 . S
N2096 H2103 0.984 1_565 S
N2097 C2090 1.356 . S
N2097 H2100 0.984 1_545 S
N2097 H2101 0.985 . S
H2098 N2093 0.984 . S
H2099 N2093 0.985 . S
H2100 N2097 0.984 1_565 S
H2101 N2097 0.985 . S
H2102 N2096 0.984 . S
H2103 N2096 0.984 1_545 S
H2104 N2092 0.984 . S
H2105 N2092 0.985 . S
C2106 C2107 1.363 1_545 S
C2106 C2112 1.379 . S
C2106 N2114 1.356 . S
C2107 C2106 1.363 1_565 S
C2107 C2113 1.363 1_554 S
C2108 C2109 1.363 1_565 S
C2108 C2113 1.379 . S
C2108 N2115 1.356 . S
C2109 C2108 1.363 1_545 S
C2109 C2112 1.363 1_556 S
N2110 C2112 1.356 . S
N2110 H2122 0.984 . S
N2110 H2123 0.985 1_554 S
N2111 C2113 1.356 . S
N2111 H2116 0.984 1_556 S
N2111 H2117 0.985 . S
C2112 C2106 1.379 . S
C2112 C2109 1.363 1_554 S
C2112 N2110 1.356 . S
C2113 C2107 1.363 1_556 S
C2113 C2108 1.379 . S
C2113 N2111 1.356 . S
N2114 C2106 1.356 . S
N2114 H2120 0.984 . S
N2114 H2121 0.984 1_545 S
N2115 C2108 1.356 . S
N2115 H2118 0.984 1_565 S
N2115 H2119 0.985 . S
H2116 N2111 0.984 1_554 S
H2117 N2111 0.985 . S
H2118 N2115 0.984 1_545 S
H2119 N2115 0.985 . S
H2120 N2114 0.984 . S
H2121 N2114 0.984 1_565 S
H2122 N2110 0.984 . S
H2123 N2110 0.985 1_556 S
C2124 C2125 1.363 . S
C2124 C2130 1.379 1_655 S
C2124 N2132 1.356 . S
C2125 C2124 1.363 . S
C2125 C2131 1.363 1_556 S
C2126 C2127 1.363 . S
C2126 C2131 1.379 1_455 S
C2126 N2133 1.356 . S
C2127 C2126 1.363 . S
C2127 C2130 1.363 1_554 S
N2128 C2130 1.356 1_554 S
N2128 H2140 0.981 1_554 S
N2128 H2141 0.988 . S
N2129 C2131 1.356 1_556 S
N2129 H2134 0.988 . S
N2129 H2135 0.981 1_556 S
C2130 C2124 1.379 1_455 S
C2130 C2127 1.363 1_556 S
C2130 N2128 1.356 1_556 S
C2131 C2125 1.363 1_554 S
C2131 C2126 1.379 1_655 S
C2131 N2129 1.356 1_554 S
N2132 C2124 1.356 . S
N2132 H2138 0.984 . S
N2132 H2139 0.984 . S
N2133 C2126 1.356 . S
N2133 H2136 0.984 . S
N2133 H2137 0.985 . S
H2134 N2129 0.988 . S
H2135 N2129 0.981 1_554 S
H2136 N2133 0.984 . S
H2137 N2133 0.985 . S
H2138 N2132 0.984 . S
H2139 N2132 0.984 . S
H2140 N2128 0.981 1_556 S
H2141 N2128 0.988 . S
C2142 C2143 1.363 . S
C2142 C2148 1.379 1_554 S
C2142 N2150 1.356 . S
C2143 C2142 1.363 . S
C2143 C2149 1.363 . S
C2144 C2145 1.363 . S
C2144 C2149 1.379 1_556 S
C2144 N2151 1.356 . S
C2145 C2144 1.363 . S
C2145 C2148 1.363 . S
N2146 C2148 1.356 . S
N2146 H2158 0.984 . S
N2146 H2159 0.985 . S
N2147 C2149 1.356 . S
N2147 H2152 0.984 . S
N2147 H2153 0.985 . S
C2148 C2142 1.379 1_556 S
C2148 C2145 1.363 . S
C2148 N2146 1.356 . S
C2149 C2143 1.363 . S
C2149 C2144 1.379 1_554 S
C2149 N2147 1.356 . S
N2150 C2142 1.356 . S
N2150 H2156 0.984 . S
N2150 H2157 0.984 . S
N2151 C2144 1.356 . S
N2151 H2154 0.984 . S
N2151 H2155 0.985 . S
H2152 N2147 0.984 . S
H2153 N2147 0.985 . S
H2154 N2151 0.984 . S
H2155 N2151 0.985 . S
H2156 N2150 0.984 . S
H2157 N2150 0.984 . S
H2158 N2146 0.984 . S
H2159 N2146 0.985 . S
C2160 C2161 1.363 1_556 S
C2160 C2166 1.379 . S
C2160 N2168 1.356 . S
C2161 C2160 1.363 1_554 S
C2161 C2167 1.363 . S
C2162 C2163 1.363 1_554 S
C2162 C2167 1.379 . S
C2162 N2169 1.356 1_545 S
C2163 C2162 1.363 1_556 S
C2163 C2166 1.363 . S
N2164 C2166 1.356 . S
N2164 H2176 0.984 . S
N2164 H2177 1.020 . S
N2165 C2167 1.356 . S
N2165 H2170 0.984 . S
N2165 H2171 0.985 . S
C2166 C2160 1.379 . S
C2166 C2163 1.363 . S
C2166 N2164 1.356 . S
C2167 C2161 1.363 . S
C2167 C2162 1.379 . S
C2167 N2165 1.356 . S
N2168 C2160 1.356 . S
N2168 H2174 0.984 . S
N2168 H2175 0.984 . S
N2169 C2162 1.356 1_565 S
N2169 H2172 0.984 . S
N2169 H2173 0.985 . S
H2170 N2165 0.984 . S
H2171 N2165 0.985 . S
H2172 N2169 0.984 . S
H2173 N2169 0.985 . S
H2174 N2168 0.984 . S
H2175 N2168 0.984 . S
H2176 N2164 0.984 . S
H2177 N2164 1.020 . S
C2178 C2179 1.363 1_556 S
C2178 C2184 1.379 . S
C2178 N2186 1.356 . S
C2179 C2178 1.363 1_554 S
C2179 C2185 1.363 . S
C2180 C2181 1.363 1_554 S
C2180 C2185 1.379 . S
C2180 N2187 1.356 1_655 S
C2181 C2180 1.363 1_556 S
C2181 C2184 1.363 . S
N2182 C2184 1.356 . S
N2182 H2194 0.984 . S
N2182 H2195 1.025 . S
N2183 C2185 1.356 . S
N2183 H2188 0.984 . S
N2183 H2189 0.985 . S
C2184 C2178 1.379 . S
C2184 C2181 1.363 . S
C2184 N2182 1.356 . S
C2185 C2179 1.363 . S
C2185 C2180 1.379 . S
C2185 N2183 1.356 . S
N2186 C2178 1.356 . S
N2186 H2192 0.984 . S
N2186 H2193 0.984 . S
N2187 C2180 1.356 1_455 S
N2187 H2190 0.984 . S
N2187 H2191 0.985 . S
H2188 N2183 0.984 . S
H2189 N2183 0.985 . S
H2190 N2187 0.984 . S
H2191 N2187 0.985 . S
H2192 N2186 0.984 . S
H2193 N2186 0.984 . S
H2194 N2182 0.984 . S
H2195 N2182 1.025 . S
C2196 C2197 1.363 . S
C2196 C2202 1.379 1_556 S
C2196 N2204 1.356 . S
C2197 C2196 1.363 . S
C2197 C2203 1.363 . S
C2198 C2199 1.363 1_556 S
C2198 C2203 1.379 . S
C2198 N2205 1.356 . S
C2199 C2198 1.363 1_554 S
C2199 C2202 1.363 . S
N2200 C2202 1.356 . S
N2200 H2212 0.984 . S
N2200 H2213 0.985 . S
N2201 C2203 1.356 . S
N2201 H2206 0.984 . S
N2201 H2207 0.985 . S
C2202 C2196 1.379 1_554 S
C2202 C2199 1.363 . S
C2202 N2200 1.356 . S
C2203 C2197 1.363 . S
C2203 C2198 1.379 . S
C2203 N2201 1.356 . S
N2204 C2196 1.356 . S
N2204 H2210 0.984 1_556 S
N2204 H2211 0.984 . S
N2205 C2198 1.356 . S
N2205 H2208 0.984 . S
N2205 H2209 0.985 . S
H2206 N2201 0.984 . S
H2207 N2201 0.985 . S
H2208 N2205 0.984 . S
H2209 N2205 0.985 . S
H2210 N2204 0.984 1_554 S
H2211 N2204 0.984 . S
H2212 N2200 0.984 . S
H2213 N2200 0.985 . S
C2214 C2215 1.363 . S
C2214 C2220 1.379 . S
C2214 N2222 1.356 . S
C2215 C2214 1.363 . S
C2215 C2221 1.363 . S
C2216 C2217 1.363 . S
C2216 C2221 1.379 . S
C2216 N2223 1.356 . S
C2217 C2216 1.363 . S
C2217 C2220 1.363 . S
N2218 C2220 1.356 . S
N2218 H2230 0.984 . S
N2218 H2231 0.985 . S
N2219 C2221 1.356 1_655 S
N2219 H2224 0.984 . S
N2219 H2225 0.985 . S
C2220 C2214 1.379 . S
C2220 C2217 1.363 . S
C2220 N2218 1.356 . S
C2221 C2215 1.363 . S
C2221 C2216 1.379 . S
C2221 N2219 1.356 1_455 S
N2222 C2214 1.356 . S
N2222 H2228 0.984 . S
N2222 H2229 0.984 1_455 S
N2223 C2216 1.356 . S
N2223 H2226 0.984 . S
N2223 H2227 0.985 . S
H2224 N2219 0.984 . S
H2225 N2219 0.985 . S
H2226 N2223 0.984 . S
H2227 N2223 0.985 . S
H2228 N2222 0.984 . S
H2229 N2222 0.984 1_655 S
H2230 N2218 0.984 . S
H2231 N2218 0.985 . S
C2232 C2233 1.363 . S
C2232 C2238 1.379 . S
C2232 N2240 1.356 . S
C2233 C2232 1.363 . S
C2233 C2239 1.363 . S
C2234 C2235 1.363 . S
C2234 C2239 1.379 . S
C2234 N2241 1.356 . S
C2235 C2234 1.363 . S
C2235 C2238 1.363 . S
N2236 C2238 1.356 . S
N2236 H2248 0.984 . S
N2236 H2249 0.985 . S
N2237 C2239 1.356 . S
N2237 H2242 0.984 . S
N2237 H2243 0.985 . S
C2238 C2232 1.379 . S
C2238 C2235 1.363 . S
C2238 N2236 1.356 . S
C2239 C2233 1.363 . S
C2239 C2234 1.379 . S
C2239 N2237 1.356 . S
N2240 C2232 1.356 . S
N2240 H2246 0.984 . S
N2240 H2247 0.984 . S
N2241 C2234 1.356 . S
N2241 H2244 0.984 . S
N2241 H2245 0.985 . S
H2242 N2237 0.984 . S
H2243 N2237 0.985 . S
H2244 N2241 0.984 . S
H2245 N2241 0.985 . S
H2246 N2240 0.984 . S
H2247 N2240 0.984 . S
H2248 N2236 0.984 . S
H2249 N2236 0.985 . S
C2250 C2251 1.363 . S
C2250 C2256 1.379 . S
C2250 N2258 1.356 1_565 S
C2251 C2250 1.363 . S
C2251 C2257 1.363 . S
C2252 C2253 1.363 . S
C2252 C2257 1.379 . S
C2252 N2259 1.356 . S
C2253 C2252 1.363 . S
C2253 C2256 1.363 . S
N2254 C2256 1.356 . S
N2254 H2266 0.984 . S
N2254 H2267 0.985 . S
N2255 C2257 1.356 . S
N2255 H2260 0.984 1_565 S
N2255 H2261 0.985 . S
C2256 C2250 1.379 . S
C2256 C2253 1.363 . S
C2256 N2254 1.356 . S
C2257 C2251 1.363 . S
C2257 C2252 1.379 . S
C2257 N2255 1.356 . S
N2258 C2250 1.356 1_545 S
N2258 H2264 0.984 . S
N2258 H2265 0.984 . S
N2259 C2252 1.356 . S
N2259 H2262 0.984 . S
N2259 H2263 0.985 . S
H2260 N2255 0.984 1_545 S
H2261 N2255 0.985 . S
H2262 N2259 0.984 . S
H2263 N2259 0.985 . S
H2264 N2258 0.984 . S
H2265 N2258 0.984 . S
H2266 N2254 0.984 . S
H2267 N2254 0.985 . S
C2268 C2269 1.363 1_556 S
C2268 C2274 1.379 . S
C2268 N2276 1.356 1_565 S
C2269 C2268 1.363 1_554 S
C2269 C2275 1.363 . S
C2270 C2271 1.363 1_554 S
C2270 C2275 1.379 . S
C2270 N2277 1.356 . S
C2271 C2270 1.363 1_556 S
C2271 C2274 1.363 . S
N2272 C2274 1.356 . S
N2272 H2284 0.984 . S
N2272 H2285 0.985 . S
N2273 C2275 1.356 . S
N2273 H2278 0.984 . S
N2273 H2279 0.985 . S
C2274 C2268 1.379 . S
C2274 C2271 1.363 . S
C2274 N2272 1.356 . S
C2275 C2269 1.363 . S
C2275 C2270 1.379 . S
C2275 N2273 1.356 . S
N2276 C2268 1.356 1_545 S
N2276 H2282 0.984 . S
N2276 H2283 0.984 . S
N2277 C2270 1.356 . S
N2277 H2280 0.984 . S
N2277 H2281 0.985 . S
H2278 N2273 0.984 . S
H2279 N2273 0.985 . S
H2280 N2277 0.984 . S
H2281 N2277 0.985 . S
H2282 N2276 0.984 . S
H2283 N2276 0.984 . S
H2284 N2272 0.984 . S
H2285 N2272 0.985 . S
C2286 C2287 1.363 . S
C2286 C2292 1.379 1_554 S
C2286 N2294 1.356 1_454 S
C2287 C2286 1.363 . S
C2287 C2293 1.363 . S
C2288 C2289 1.363 1_554 S
C2288 C2293 1.379 . S
C2288 N2295 1.356 . S
C2289 C2288 1.363 1_556 S
C2289 C2292 1.363 . S
N2290 C2292 1.356 . S
N2290 H2302 0.984 . S
N2290 H2303 0.985 . S
N2291 C2293 1.356 . S
N2291 H2296 0.984 1_455 S
N2291 H2297 0.985 . S
C2292 C2286 1.379 1_556 S
C2292 C2289 1.363 . S
C2292 N2290 1.356 . S
C2293 C2287 1.363 . S
C2293 C2288 1.379 . S
C2293 N2291 1.356 . S
N2294 C2286 1.356 1_656 S
N2294 H2300 0.990 1_655 S
N2294 H2301 0.984 1_556 S
N2295 C2288 1.356 . S
N2295 H2298 0.984 . S
N2295 H2299 0.985 . S
H2296 N2291 0.984 1_655 S
H2297 N2291 0.985 . S
H2298 N2295 0.984 . S
H2299 N2295 0.985 . S
H2300 N2294 0.990 1_455 S
H2301 N2294 0.984 1_554 S
H2302 N2290 0.984 . S
H2303 N2290 0.985 . S
C2304 C2305 1.363 . S
C2304 C2310 1.379 . S
C2304 N2312 1.356 . S
C2305 C2304 1.363 . S
C2305 C2311 1.363 . S
C2306 C2307 1.363 . S
C2306 C2311 1.379 1_556 S
C2306 N2313 1.356 . S
C2307 C2306 1.363 . S
C2307 C2310 1.363 1_556 S
N2308 C2310 1.356 . S
N2308 H2320 0.984 . S
N2308 H2321 0.985 . S
N2309 C2311 1.356 . S
N2309 H2314 0.984 . S
N2309 H2315 0.985 1_554 S
C2310 C2304 1.379 . S
C2310 C2307 1.363 1_554 S
C2310 N2308 1.356 . S
C2311 C2305 1.363 . S
C2311 C2306 1.379 1_554 S
C2311 N2309 1.356 . S
N2312 C2304 1.356 . S
N2312 H2318 0.984 . S
N2312 H2319 0.984 . S
N2313 C2306 1.356 . S
N2313 H2316 0.984 . S
N2313 H2317 0.985 . S
H2314 N2309 0.984 . S
H2315 N2309 0.985 1_556 S
H2316 N2313 0.984 . S
H2317 N2313 0.985 . S
H2318 N2312 0.984 . S
H2319 N2312 0.984 . S
H2320 N2308 0.984 . S
H2321 N2308 0.985 . S
C2322 C2323 1.363 . S
C2322 C2328 1.379 . S
C2322 N2330 1.356 . S
C2323 C2322 1.363 . S
C2323 C2329 1.363 . S
C2324 C2325 1.363 . S
C2324 C2329 1.379 . S
C2324 N2331 1.356 1_655 S
C2325 C2324 1.363 . S
C2325 C2328 1.363 . S
N2326 C2328 1.356 . S
N2326 H2338 0.984 . S
N2326 H2339 0.985 1_655 S
N2327 C2329 1.356 . S
N2327 H2332 0.984 . S
N2327 H2333 0.985 . S
C2328 C2322 1.379 . S
C2328 C2325 1.363 . S
C2328 N2326 1.356 . S
C2329 C2323 1.363 . S
C2329 C2324 1.379 . S
C2329 N2327 1.356 . S
N2330 C2322 1.356 . S
N2330 H2336 0.984 . S
N2330 H2337 0.984 . S
N2331 C2324 1.356 1_455 S
N2331 H2334 0.984 . S
N2331 H2335 1.001 . S
H2332 N2327 0.984 . S
H2333 N2327 0.985 . S
H2334 N2331 0.984 . S
H2335 N2331 1.001 . S
H2336 N2330 0.984 . S
H2337 N2330 0.984 . S
H2338 N2326 0.984 . S
H2339 N2326 0.985 1_455 S
C2340 C2341 1.363 . S
C2340 C2346 1.379 . S
C2340 N2348 1.356 . S
C2341 C2340 1.363 . S
C2341 C2347 1.363 . S
C2342 C2343 1.363 . S
C2342 C2347 1.379 . S
C2342 N2349 1.356 . S
C2343 C2342 1.363 . S
C2343 C2346 1.363 . S
N2344 C2346 1.356 . S
N2344 H2356 0.984 . S
N2344 H2357 0.985 . S
N2345 C2347 1.356 . S
N2345 H2350 0.984 . S
N2345 H2351 0.985 . S
C2346 C2340 1.379 . S
C2346 C2343 1.363 . S
C2346 N2344 1.356 . S
C2347 C2341 1.363 . S
C2347 C2342 1.379 . S
C2347 N2345 1.356 . S
N2348 C2340 1.356 . S
N2348 H2354 0.984 . S
N2348 H2355 0.984 . S
N2349 C2342 1.356 . S
N2349 H2352 0.984 . S
N2349 H2353 0.985 . S
H2350 N2345 0.984 . S
H2351 N2345 0.985 . S
H2352 N2349 0.984 . S
H2353 N2349 0.985 . S
H2354 N2348 0.984 . S
H2355 N2348 0.984 . S
H2356 N2344 0.984 . S
H2357 N2344 0.985 . S
C2358 C2359 1.363 . S
C2358 C2364 1.379 . S
C2358 N2366 1.356 . S
C2359 C2358 1.363 . S
C2359 C2365 1.363 . S
C2360 C2361 1.363 . S
C2360 C2365 1.379 . S
C2360 N2367 1.356 . S
C2361 C2360 1.363 . S
C2361 C2364 1.363 . S
N2362 C2364 1.356 . S
N2362 H2374 0.984 . S
N2362 H2375 0.985 . S
N2363 C2365 1.356 1_565 S
N2363 H2368 0.984 . S
N2363 H2369 0.985 . S
C2364 C2358 1.379 . S
C2364 C2361 1.363 . S
C2364 N2362 1.356 . S
C2365 C2359 1.363 . S
C2365 C2360 1.379 . S
C2365 N2363 1.356 1_545 S
N2366 C2358 1.356 . S
N2366 H2372 0.984 . S
N2366 H2373 0.984 1_545 S
N2367 C2360 1.356 . S
N2367 H2370 0.984 . S
N2367 H2371 0.985 . S
H2368 N2363 0.984 . S
H2369 N2363 0.985 . S
H2370 N2367 0.984 . S
H2371 N2367 0.985 . S
H2372 N2366 0.984 . S
H2373 N2366 0.984 1_565 S
H2374 N2362 0.984 . S
H2375 N2362 0.985 . S
C2376 C2377 1.363 . S
C2376 C2382 1.379 . S
C2376 N2384 1.356 . S
C2377 C2376 1.363 . S
C2377 C2383 1.363 . S
C2378 C2379 1.363 . S
C2378 C2383 1.379 . S
C2378 N2385 1.356 . S
C2379 C2378 1.363 . S
C2379 C2382 1.363 . S
N2380 C2382 1.356 . S
N2380 H2392 0.984 . S
N2380 H2393 0.985 . S
N2381 C2383 1.356 . S
N2381 H2386 0.984 . S
N2381 H2387 0.985 . S
C2382 C2376 1.379 . S
C2382 C2379 1.363 . S
C2382 N2380 1.356 . S
C2383 C2377 1.363 . S
C2383 C2378 1.379 . S
C2383 N2381 1.356 . S
N2384 C2376 1.356 . S
N2384 H2390 0.984 . S
N2384 H2391 0.984 . S
N2385 C2378 1.356 . S
N2385 H2388 0.984 . S
N2385 H2389 0.985 . S
H2386 N2381 0.984 . S
H2387 N2381 0.985 . S
H2388 N2385 0.984 . S
H2389 N2385 0.985 . S
H2390 N2384 0.984 . S
H2391 N2384 0.984 . S
H2392 N2380 0.984 . S
H2393 N2380 0.985 . S
C2394 C2395 1.363 . S
C2394 C2400 1.379 . S
C2394 N2402 1.356 . S
C2395 C2394 1.363 . S
C2395 C2401 1.363 . S
C2396 C2397 1.363 . S
C2396 C2401 1.379 . S
C2396 N2403 1.356 . S
C2397 C2396 1.363 . S
C2397 C2400 1.363 . S
N2398 C2400 1.356 . S
N2398 H2410 0.984 . S
N2398 H2411 0.985 . S
N2399 C2401 1.356 . S
N2399 H2404 0.984 . S
N2399 H2405 0.985 . S
C2400 C2394 1.379 . S
C2400 C2397 1.363 . S
C2400 N2398 1.356 . S
C2401 C2395 1.363 . S
C2401 C2396 1.379 . S
C2401 N2399 1.356 . S
N2402 C2394 1.356 . S
N2402 H2408 0.984 . S
N2402 H2409 0.984 . S
N2403 C2396 1.356 . S
N2403 H2406 0.984 . S
N2403 H2407 0.985 . S
H2404 N2399 0.984 . S
H2405 N2399 0.985 . S
H2406 N2403 0.984 . S
H2407 N2403 0.985 . S
H2408 N2402 0.984 . S
H2409 N2402 0.984 . S
H2410 N2398 0.984 . S
H2411 N2398 0.985 . S
C2412 C2413 1.363 . S
C2412 C2418 1.379 . S
C2412 N2420 1.356 . S
C2413 C2412 1.363 . S
C2413 C2419 1.363 . S
C2414 C2415 1.363 . S
C2414 C2419 1.379 . S
C2414 N2421 1.356 . S
C2415 C2414 1.363 . S
C2415 C2418 1.363 . S
N2416 C2418 1.356 . S
N2416 H2428 0.984 . S
N2416 H2429 0.985 . S
N2417 C2419 1.356 . S
N2417 H2422 0.984 . S
N2417 H2423 0.985 . S
C2418 C2412 1.379 . S
C2418 C2415 1.363 . S
C2418 N2416 1.356 . S
C2419 C2413 1.363 . S
C2419 C2414 1.379 . S
C2419 N2417 1.356 . S
N2420 C2412 1.356 . S
N2420 H2426 0.984 . S
N2420 H2427 0.984 . S
N2421 C2414 1.356 . S
N2421 H2424 0.984 . S
N2421 H2425 0.985 . S
H2422 N2417 0.984 . S
H2423 N2417 0.985 . S
H2424 N2421 0.984 . S
H2425 N2421 0.985 . S
H2426 N2420 0.984 . S
H2427 N2420 0.984 . S
H2428 N2416 0.984 . S
H2429 N2416 0.985 . S
C2430 C2431 1.363 . S
C2430 C2436 1.379 . S
C2430 N2438 1.356 . S
C2431 C2430 1.363 . S
C2431 C2437 1.363 . S
C2432 C2433 1.363 . S
C2432 C2437 1.379 . S
C2432 N2439 1.356 . S
C2433 C2432 1.363 . S
C2433 C2436 1.363 . S
N2434 C2436 1.356 . S
N2434 H2446 0.984 . S
N2434 H2447 0.985 . S
N2435 C2437 1.356 . S
N2435 H2440 0.984 . S
N2435 H2441 0.985 . S
C2436 C2430 1.379 . S
C2436 C2433 1.363 . S
C2436 N2434 1.356 . S
C2437 C2431 1.363 . S
C2437 C2432 1.379 . S
C2437 N2435 1.356 . S
N2438 C2430 1.356 . S
N2438 H2444 0.984 . S
N2438 H2445 0.984 . S
N2439 C2432 1.356 . S
N2439 H2442 0.984 . S
N2439 H2443 0.985 . S
H2440 N2435 0.984 . S
H2441 N2435 0.985 . S
H2442 N2439 0.984 . S
H2443 N2439 0.985 . S
H2444 N2438 0.984 . S
H2445 N2438 0.984 . S
H2446 N2434 0.984 . S
H2447 N2434 0.985 . S
C2448 C2449 1.363 . S
C2448 C2454 1.379 . S
C2448 N2456 1.356 . S
C2449 C2448 1.363 . S
C2449 C2455 1.363 . S
C2450 C2451 1.363 . S
C2450 C2455 1.379 . S
C2450 N2457 1.356 . S
C2451 C2450 1.363 . S
C2451 C2454 1.363 . S
N2452 C2454 1.356 . S
N2452 H2464 0.984 . S
N2452 H2465 0.985 . S
N2453 C2455 1.356 . S
N2453 H2458 0.984 . S
N2453 H2459 0.985 . S
C2454 C2448 1.379 . S
C2454 C2451 1.363 . S
C2454 N2452 1.356 . S
C2455 C2449 1.363 . S
C2455 C2450 1.379 . S
C2455 N2453 1.356 . S
N2456 C2448 1.356 . S
N2456 H2462 0.984 . S
N2456 H2463 0.984 . S
N2457 C2450 1.356 . S
N2457 H2460 0.984 . S
N2457 H2461 0.985 . S
H2458 N2453 0.984 . S
H2459 N2453 0.985 . S
H2460 N2457 0.984 . S
H2461 N2457 0.985 . S
H2462 N2456 0.984 . S
H2463 N2456 0.984 . S
H2464 N2452 0.984 . S
H2465 N2452 0.985 . S
C2466 C2467 1.363 . S
C2466 C2472 1.379 . S
C2466 N2474 1.356 . S
C2467 C2466 1.363 . S
C2467 C2473 1.363 . S
C2468 C2469 1.363 . S
C2468 C2473 1.379 . S
C2468 N2475 1.356 . S
C2469 C2468 1.363 . S
C2469 C2472 1.363 . S
N2470 C2472 1.356 . S
N2470 H2482 0.984 . S
N2470 H2483 0.985 . S
N2471 C2473 1.356 . S
N2471 H2476 0.984 . S
N2471 H2477 0.985 . S
C2472 C2466 1.379 . S
C2472 C2469 1.363 . S
C2472 N2470 1.356 . S
C2473 C2467 1.363 . S
C2473 C2468 1.379 . S
C2473 N2471 1.356 . S
N2474 C2466 1.356 . S
N2474 H2480 0.984 . S
N2474 H2481 0.984 . S
N2475 C2468 1.356 . S
N2475 H2478 0.984 . S
N2475 H2479 0.985 . S
H2476 N2471 0.984 . S
H2477 N2471 0.985 . S
H2478 N2475 0.984 . S
H2479 N2475 0.985 . S
H2480 N2474 0.984 . S
H2481 N2474 0.984 . S
H2482 N2470 0.984 . S
H2483 N2470 0.985 . S
C2484 C2485 1.363 . S
C2484 C2490 1.379 . S
C2484 N2492 1.356 . S
C2485 C2484 1.363 . S
C2485 C2491 1.363 . S
C2486 C2487 1.363 . S
C2486 C2491 1.379 . S
C2486 N2493 1.356 . S
C2487 C2486 1.363 . S
C2487 C2490 1.363 . S
N2488 C2490 1.356 . S
N2488 H2500 0.984 . S
N2488 H2501 0.985 . S
N2489 C2491 1.356 . S
N2489 H2494 0.984 . S
N2489 H2495 0.985 . S
C2490 C2484 1.379 . S
C2490 C2487 1.363 . S
C2490 N2488 1.356 . S
C2491 C2485 1.363 . S
C2491 C2486 1.379 . S
C2491 N2489 1.356 . S
N2492 C2484 1.356 . S
N2492 H2498 0.984 . S
N2492 H2499 0.984 . S
N2493 C2486 1.356 . S
N2493 H2496 0.984 . S
N2493 H2497 0.985 . S
H2494 N2489 0.984 . S
H2495 N2489 0.985 . S
H2496 N2493 0.984 . S
H2497 N2493 0.985 . S
H2498 N2492 0.984 . S
H2499 N2492 0.984 . S
H2500 N2488 0.984 . S
H2501 N2488 0.985 . S
C2502 C2503 1.363 . S
C2502 C2508 1.379 . S
C2502 N2510 1.356 . S
C2503 C2502 1.363 . S
C2503 C2509 1.363 . S
C2504 C2505 1.363 . S
C2504 C2509 1.379 . S
C2504 N2511 1.356 . S
C2505 C2504 1.363 . S
C2505 C2508 1.363 . S
N2506 C2508 1.356 . S
N2506 H2518 0.984 . S
N2506 H2519 0.985 . S
N2507 C2509 1.356 . S
N2507 H2512 0.984 . S
N2507 H2513 0.985 . S
C2508 C2502 1.379 . S
C2508 C2505 1.363 . S
C2508 N2506 1.356 . S
C2509 C2503 1.363 . S
C2509 C2504 1.379 . S
C2509 N2507 1.356 . S
N2510 C2502 1.356 . S
N2510 H2516 0.984 . S
N2510 H2517 0.984 . S
N2511 C2504 1.356 . S
N2511 H2514 0.984 . S
N2511 H2515 0.985 . S
H2512 N2507 0.984 . S
H2513 N2507 0.985 . S
H2514 N2511 0.984 . S
H2515 N2511 0.985 . S
H2516 N2510 0.984 . S
H2517 N2510 0.984 . S
H2518 N2506 0.984 . S
H2519 N2506 0.985 . S
C2520 C2521 1.363 . S
C2520 C2526 1.379 . S
C2520 N2528 1.356 . S
C2521 C2520 1.363 . S
C2521 C2527 1.363 . S
C2522 C2523 1.363 . S
C2522 C2527 1.379 . S
C2522 N2529 1.356 . S
C2523 C2522 1.363 . S
C2523 C2526 1.363 . S
N2524 C2526 1.356 . S
N2524 H2536 0.984 . S
N2524 H2537 0.985 . S
N2525 C2527 1.356 . S
N2525 H2530 0.984 . S
N2525 H2531 0.985 . S
C2526 C2520 1.379 . S
C2526 C2523 1.363 . S
C2526 N2524 1.356 . S
C2527 C2521 1.363 . S
C2527 C2522 1.379 . S
C2527 N2525 1.356 . S
N2528 C2520 1.356 . S
N2528 H2534 0.984 . S
N2528 H2535 0.984 . S
N2529 C2522 1.356 . S
N2529 H2532 0.984 . S
N2529 H2533 0.985 . S
H2530 N2525 0.984 . S
H2531 N2525 0.985 . S
H2532 N2529 0.984 . S
H2533 N2529 0.985 . S
H2534 N2528 0.984 . S
H2535 N2528 0.984 . S
H2536 N2524 0.984 . S
H2537 N2524 0.985 . S
C2538 C2539 1.363 . S
C2538 C2544 1.379 . S
C2538 N2546 1.356 . S
C2539 C2538 1.363 . S
C2539 C2545 1.363 . S
C2540 C2541 1.363 . S
C2540 C2545 1.379 . S
C2540 N2547 1.356 . S
C2541 C2540 1.363 . S
C2541 C2544 1.363 . S
N2542 C2544 1.356 . S
N2542 H2554 0.984 . S
N2542 H2555 0.985 . S
N2543 C2545 1.356 . S
N2543 H2548 0.984 . S
N2543 H2549 0.985 . S
C2544 C2538 1.379 . S
C2544 C2541 1.363 . S
C2544 N2542 1.356 . S
C2545 C2539 1.363 . S
C2545 C2540 1.379 . S
C2545 N2543 1.356 . S
N2546 C2538 1.356 . S
N2546 H2552 0.984 . S
N2546 H2553 0.984 . S
N2547 C2540 1.356 . S
N2547 H2550 0.984 . S
N2547 H2551 0.985 . S
H2548 N2543 0.984 . S
H2549 N2543 0.985 . S
H2550 N2547 0.984 . S
H2551 N2547 0.985 . S
H2552 N2546 0.984 . S
H2553 N2546 0.984 . S
H2554 N2542 0.984 . S
H2555 N2542 0.985 . S
C2556 C2557 1.363 . S
C2556 C2562 1.379 . S
C2556 N2564 1.356 . S
C2557 C2556 1.363 . S
C2557 C2563 1.363 . S
C2558 C2559 1.363 . S
C2558 C2563 1.379 . S
C2558 N2565 1.356 . S
C2559 C2558 1.363 . S
C2559 C2562 1.363 . S
N2560 C2562 1.356 . S
N2560 H2572 0.984 . S
N2560 H2573 0.985 . S
N2561 C2563 1.356 . S
N2561 H2566 0.984 . S
N2561 H2567 0.985 . S
C2562 C2556 1.379 . S
C2562 C2559 1.363 . S
C2562 N2560 1.356 . S
C2563 C2557 1.363 . S
C2563 C2558 1.379 . S
C2563 N2561 1.356 . S
N2564 C2556 1.356 . S
N2564 H2570 0.984 . S
N2564 H2571 0.984 . S
N2565 C2558 1.356 . S
N2565 H2568 0.984 . S
N2565 H2569 0.985 . S
H2566 N2561 0.984 . S
H2567 N2561 0.985 . S
H2568 N2565 0.984 . S
H2569 N2565 0.985 . S
H2570 N2564 0.984 . S
H2571 N2564 0.984 . S
H2572 N2560 0.984 . S
H2573 N2560 0.985 . S
C2574 C2575 1.363 . S
C2574 C2580 1.379 . S
C2574 N2582 1.356 . S
C2575 C2574 1.363 . S
C2575 C2581 1.363 . S
C2576 C2577 1.363 . S
C2576 C2581 1.379 . S
C2576 N2583 1.356 . S
C2577 C2576 1.363 . S
C2577 C2580 1.363 . S
N2578 C2580 1.356 . S
N2578 H2590 0.984 . S
N2578 H2591 0.985 . S
N2579 C2581 1.356 . S
N2579 H2584 0.984 . S
N2579 H2585 0.985 . S
C2580 C2574 1.379 . S
C2580 C2577 1.363 . S
C2580 N2578 1.356 . S
C2581 C2575 1.363 . S
C2581 C2576 1.379 . S
C2581 N2579 1.356 . S
N2582 C2574 1.356 . S
N2582 H2588 0.984 . S
N2582 H2589 0.984 . S
N2583 C2576 1.356 . S
N2583 H2586 0.984 . S
N2583 H2587 0.985 . S
H2584 N2579 0.984 . S
H2585 N2579 0.985 . S
H2586 N2583 0.984 . S
H2587 N2583 0.985 . S
H2588 N2582 0.984 . S
H2589 N2582 0.984 . S
H2590 N2578 0.984 . S
H2591 N2578 0.985 . S
C2592 C2593 1.363 . S
C2592 C2598 1.379 . S
C2592 N2600 1.356 . S
C2593 C2592 1.363 . S
C2593 C2599 1.363 . S
C2594 C2595 1.363 . S
C2594 C2599 1.379 . S
C2594 N2601 1.356 . S
C2595 C2594 1.363 . S
C2595 C2598 1.363 . S
N2596 C2598 1.356 . S
N2596 H2608 0.984 . S
N2596 H2609 0.985 . S
N2597 C2599 1.356 . S
N2597 H2602 0.984 . S
N2597 H2603 0.985 . S
C2598 C2592 1.379 . S
C2598 C2595 1.363 . S
C2598 N2596 1.356 . S
C2599 C2593 1.363 . S
C2599 C2594 1.379 . S
C2599 N2597 1.356 . S
N2600 C2592 1.356 . S
N2600 H2606 0.984 . S
N2600 H2607 0.984 . S
N2601 C2594 1.356 . S
N2601 H2604 0.984 . S
N2601 H2605 0.985 . S
H2602 N2597 0.984 . S
H2603 N2597 0.985 . S
H2604 N2601 0.984 . S
H2605 N2601 0.985 . S
H2606 N2600 0.984 . S
H2607 N2600 0.984 . S
H2608 N2596 0.984 . S
H2609 N2596 0.985 . S
C2610 C2611 1.363 . S
C2610 C2616 1.379 . S
C2610 N2618 1.356 . S
C2611 C2610 1.363 . S
C2611 C2617 1.363 . S
C2612 C2613 1.363 . S
C2612 C2617 1.379 . S
C2612 N2619 1.356 . S
C2613 C2612 1.363 . S
C2613 C2616 1.363 . S
N2614 C2616 1.356 . S
N2614 H2626 0.984 . S
N2614 H2627 0.985 . S
N2615 C2617 1.356 . S
N2615 H2620 0.984 . S
N2615 H2621 0.985 . S
C2616 C2610 1.379 . S
C2616 C2613 1.363 . S
C2616 N2614 1.356 . S
C2617 C2611 1.363 . S
C2617 C2612 1.379 . S
C2617 N2615 1.356 . S
N2618 C2610 1.356 . S
N2618 H2624 0.984 . S
N2618 H2625 0.984 . S
N2619 C2612 1.356 . S
N2619 H2622 0.984 . S
N2619 H2623 0.985 . S
H2620 N2615 0.984 . S
H2621 N2615 0.985 . S
H2622 N2619 0.984 . S
H2623 N2619 0.985 . S
H2624 N2618 0.984 . S
H2625 N2618 0.984 . S
H2626 N2614 0.984 . S
H2627 N2614 0.985 . S
C2628 C2629 1.363 . S
C2628 C2634 1.379 . S
C2628 N2636 1.356 . S
C2629 C2628 1.363 . S
C2629 C2635 1.363 . S
C2630 C2631 1.363 . S
C2630 C2635 1.379 . S
C2630 N2637 1.356 . S
C2631 C2630 1.363 . S
C2631 C2634 1.363 . S
N2632 C2634 1.356 . S
N2632 H2644 0.984 . S
N2632 H2645 0.985 . S
N2633 C2635 1.356 . S
N2633 H2638 0.984 . S
N2633 H2639 0.985 . S
C2634 C2628 1.379 . S
C2634 C2631 1.363 . S
C2634 N2632 1.356 . S
C2635 C2629 1.363 . S
C2635 C2630 1.379 . S
C2635 N2633 1.356 . S
N2636 C2628 1.356 . S
N2636 H2642 0.984 . S
N2636 H2643 0.984 . S
N2637 C2630 1.356 . S
N2637 H2640 0.984 . S
N2637 H2641 0.985 . S
H2638 N2633 0.984 . S
H2639 N2633 0.985 . S
H2640 N2637 0.984 . S
H2641 N2637 0.985 . S
H2642 N2636 0.984 . S
H2643 N2636 0.984 . S
H2644 N2632 0.984 . S
H2645 N2632 0.985 . S
C2646 C2647 1.363 . S
C2646 C2652 1.379 . S
C2646 N2654 1.356 . S
C2647 C2646 1.363 . S
C2647 C2653 1.363 . S
C2648 C2649 1.363 . S
C2648 C2653 1.379 . S
C2648 N2655 1.356 . S
C2649 C2648 1.363 . S
C2649 C2652 1.363 . S
N2650 C2652 1.356 . S
N2650 H2662 0.984 . S
N2650 H2663 0.985 . S
N2651 C2653 1.356 . S
N2651 H2656 0.984 . S
N2651 H2657 0.985 . S
C2652 C2646 1.379 . S
C2652 C2649 1.363 . S
C2652 N2650 1.356 . S
C2653 C2647 1.363 . S
C2653 C2648 1.379 . S
C2653 N2651 1.356 . S
N2654 C2646 1.356 . S
N2654 H2660 0.984 . S
N2654 H2661 0.984 . S
N2655 C2648 1.356 . S
N2655 H2658 0.984 . S
N2655 H2659 0.985 . S
H2656 N2651 0.984 . S
H2657 N2651 0.985 . S
H2658 N2655 0.984 . S
H2659 N2655 0.985 . S
H2660 N2654 0.984 . S
H2661 N2654 0.984 . S
H2662 N2650 0.984 . S
H2663 N2650 0.985 . S
C2664 C2665 1.363 . S
C2664 C2670 1.379 . S
C2664 N2672 1.356 . S
C2665 C2664 1.363 . S
C2665 C2671 1.363 . S
C2666 C2667 1.363 . S
C2666 C2671 1.379 . S
C2666 N2673 1.356 . S
C2667 C2666 1.363 . S
C2667 C2670 1.363 . S
N2668 C2670 1.356 . S
N2668 H2680 0.984 . S
N2668 H2681 0.985 . S
N2669 C2671 1.356 . S
N2669 H2674 0.984 . S
N2669 H2675 0.985 . S
C2670 C2664 1.379 . S
C2670 C2667 1.363 . S
C2670 N2668 1.356 . S
C2671 C2665 1.363 . S
C2671 C2666 1.379 . S
C2671 N2669 1.356 . S
N2672 C2664 1.356 . S
N2672 H2678 0.984 . S
N2672 H2679 0.984 . S
N2673 C2666 1.356 . S
N2673 H2676 0.984 . S
N2673 H2677 0.985 . S
H2674 N2669 0.984 . S
H2675 N2669 0.985 . S
H2676 N2673 0.984 . S
H2677 N2673 0.985 . S
H2678 N2672 0.984 . S
H2679 N2672 0.984 . S
H2680 N2668 0.984 . S
H2681 N2668 0.985 . S
C2682 C2683 1.363 . S
C2682 C2688 1.379 . S
C2682 N2690 1.356 . S
C2683 C2682 1.363 . S
C2683 C2689 1.363 . S
C2684 C2685 1.363 . S
C2684 C2689 1.379 . S
C2684 N2691 1.356 . S
C2685 C2684 1.363 . S
C2685 C2688 1.363 . S
N2686 C2688 1.356 . S
N2686 H2698 0.984 . S
N2686 H2699 0.985 . S
N2687 C2689 1.356 . S
N2687 H2692 0.984 . S
N2687 H2693 0.985 . S
C2688 C2682 1.379 . S
C2688 C2685 1.363 . S
C2688 N2686 1.356 . S
C2689 C2683 1.363 . S
C2689 C2684 1.379 . S
C2689 N2687 1.356 . S
N2690 C2682 1.356 . S
N2690 H2696 0.984 . S
N2690 H2697 0.984 . S
N2691 C2684 1.356 . S
N2691 H2694 0.984 . S
N2691 H2695 0.985 . S
H2692 N2687 0.984 . S
H2693 N2687 0.985 . S
H2694 N2691 0.984 . S
H2695 N2691 0.985 . S
H2696 N2690 0.984 . S
H2697 N2690 0.984 . S
H2698 N2686 0.984 . S
H2699 N2686 0.985 . S
C2700 C2701 1.363 . S
C2700 C2706 1.379 . S
C2700 N2708 1.356 . S
C2701 C2700 1.363 . S
C2701 C2707 1.363 . S
C2702 C2703 1.363 . S
C2702 C2707 1.379 . S
C2702 N2709 1.356 . S
C2703 C2702 1.363 . S
C2703 C2706 1.363 . S
N2704 C2706 1.356 . S
N2704 H2716 0.984 . S
N2704 H2717 0.985 . S
N2705 C2707 1.356 . S
N2705 H2710 0.984 . S
N2705 H2711 0.985 . S
C2706 C2700 1.379 . S
C2706 C2703 1.363 . S
C2706 N2704 1.356 . S
C2707 C2701 1.363 . S
C2707 C2702 1.379 . S
C2707 N2705 1.356 . S
N2708 C2700 1.356 . S
N2708 H2714 0.984 . S
N2708 H2715 0.984 . S
N2709 C2702 1.356 . S
N2709 H2712 0.984 . S
N2709 H2713 0.985 . S
H2710 N2705 0.984 . S
H2711 N2705 0.985 . S
H2712 N2709 0.984 . S
H2713 N2709 0.985 . S
H2714 N2708 0.984 . S
H2715 N2708 0.984 . S
H2716 N2704 0.984 . S
H2717 N2704 0.985 . S
C2718 C2719 1.363 . S
C2718 C2724 1.379 . S
C2718 N2726 1.356 . S
C2719 C2718 1.363 . S
C2719 C2725 1.363 . S
C2720 C2721 1.363 . S
C2720 C2725 1.379 . S
C2720 N2727 1.356 . S
C2721 C2720 1.363 . S
C2721 C2724 1.363 . S
N2722 C2724 1.356 . S
N2722 H2734 0.984 . S
N2722 H2735 0.985 . S
N2723 C2725 1.356 . S
N2723 H2728 0.984 . S
N2723 H2729 0.985 . S
C2724 C2718 1.379 . S
C2724 C2721 1.363 . S
C2724 N2722 1.356 . S
C2725 C2719 1.363 . S
C2725 C2720 1.379 . S
C2725 N2723 1.356 . S
N2726 C2718 1.356 . S
N2726 H2732 0.984 . S
N2726 H2733 0.984 . S
N2727 C2720 1.356 . S
N2727 H2730 0.984 . S
N2727 H2731 0.985 . S
H2728 N2723 0.984 . S
H2729 N2723 0.985 . S
H2730 N2727 0.984 . S
H2731 N2727 0.985 . S
H2732 N2726 0.984 . S
H2733 N2726 0.984 . S
H2734 N2722 0.984 . S
H2735 N2722 0.985 . S
C2736 C2737 1.363 . S
C2736 C2742 1.379 . S
C2736 N2744 1.356 . S
C2737 C2736 1.363 . S
C2737 C2743 1.363 . S
C2738 C2739 1.363 . S
C2738 C2743 1.379 . S
C2738 N2745 1.356 . S
C2739 C2738 1.363 . S
C2739 C2742 1.363 . S
N2740 C2742 1.356 . S
N2740 H2752 0.984 . S
N2740 H2753 0.985 . S
N2741 C2743 1.356 . S
N2741 H2746 0.984 . S
N2741 H2747 0.985 . S
C2742 C2736 1.379 . S
C2742 C2739 1.363 . S
C2742 N2740 1.356 . S
C2743 C2737 1.363 . S
C2743 C2738 1.379 . S
C2743 N2741 1.356 . S
N2744 C2736 1.356 . S
N2744 H2750 0.984 . S
N2744 H2751 0.984 . S
N2745 C2738 1.356 . S
N2745 H2748 0.984 . S
N2745 H2749 0.985 . S
H2746 N2741 0.984 . S
H2747 N2741 0.985 . S
H2748 N2745 0.984 . S
H2749 N2745 0.985 . S
H2750 N2744 0.984 . S
H2751 N2744 0.984 . S
H2752 N2740 0.984 . S
H2753 N2740 0.985 . S
C2754 C2755 1.363 . S
C2754 C2760 1.379 . S
C2754 N2762 1.356 . S
C2755 C2754 1.363 . S
C2755 C2761 1.363 . S
C2756 C2757 1.363 . S
C2756 C2761 1.379 . S
C2756 N2763 1.356 . S
C2757 C2756 1.363 . S
C2757 C2760 1.363 . S
N2758 C2760 1.356 . S
N2758 H2770 0.984 . S
N2758 H2771 0.985 . S
N2759 C2761 1.356 . S
N2759 H2764 0.984 . S
N2759 H2765 0.985 . S
C2760 C2754 1.379 . S
C2760 C2757 1.363 . S
C2760 N2758 1.356 . S
C2761 C2755 1.363 . S
C2761 C2756 1.379 . S
C2761 N2759 1.356 . S
N2762 C2754 1.356 . S
N2762 H2768 0.984 . S
N2762 H2769 0.984 . S
N2763 C2756 1.356 . S
N2763 H2766 0.984 . S
N2763 H2767 0.985 . S
H2764 N2759 0.984 . S
H2765 N2759 0.985 . S
H2766 N2763 0.984 . S
H2767 N2763 0.985 . S
H2768 N2762 0.984 . S
H2769 N2762 0.984 . S
H2770 N2758 0.984 . S
H2771 N2758 0.985 . S
C2772 C2773 1.363 . S
C2772 C2778 1.379 . S
C2772 N2780 1.356 . S
C2773 C2772 1.363 . S
C2773 C2779 1.363 . S
C2774 C2775 1.363 . S
C2774 C2779 1.379 . S
C2774 N2781 1.356 . S
C2775 C2774 1.363 . S
C2775 C2778 1.363 . S
N2776 C2778 1.356 . S
N2776 H2788 0.984 . S
N2776 H2789 0.985 . S
N2777 C2779 1.356 . S
N2777 H2782 0.984 . S
N2777 H2783 0.985 . S
C2778 C2772 1.379 . S
C2778 C2775 1.363 . S
C2778 N2776 1.356 . S
C2779 C2773 1.363 . S
C2779 C2774 1.379 . S
C2779 N2777 1.356 . S
N2780 C2772 1.356 . S
N2780 H2786 0.984 . S
N2780 H2787 0.984 . S
N2781 C2774 1.356 . S
N2781 H2784 0.984 . S
N2781 H2785 0.985 . S
H2782 N2777 0.984 . S
H2783 N2777 0.985 . S
H2784 N2781 0.984 . S
H2785 N2781 0.985 . S
H2786 N2780 0.984 . S
H2787 N2780 0.984 . S
H2788 N2776 0.984 . S
H2789 N2776 0.985 . S
C2790 C2791 1.363 . S
C2790 C2796 1.379 . S
C2790 N2798 1.356 . S
C2791 C2790 1.363 . S
C2791 C2797 1.363 . S
C2792 C2793 1.363 . S
C2792 C2797 1.379 . S
C2792 N2799 1.356 . S
C2793 C2792 1.363 . S
C2793 C2796 1.363 . S
N2794 C2796 1.356 . S
N2794 H2806 0.984 . S
N2794 H2807 0.985 . S
N2795 C2797 1.356 . S
N2795 H2800 0.984 . S
N2795 H2801 0.985 . S
C2796 C2790 1.379 . S
C2796 C2793 1.363 . S
C2796 N2794 1.356 . S
C2797 C2791 1.363 . S
C2797 C2792 1.379 . S
C2797 N2795 1.356 . S
N2798 C2790 1.356 . S
N2798 H2804 0.984 . S
N2798 H2805 0.984 . S
N2799 C2792 1.356 . S
N2799 H2802 0.984 . S
N2799 H2803 0.985 . S
H2800 N2795 0.984 . S
H2801 N2795 0.985 . S
H2802 N2799 0.984 . S
H2803 N2799 0.985 . S
H2804 N2798 0.984 . S
H2805 N2798 0.984 . S
H2806 N2794 0.984 . S
H2807 N2794 0.985 . S
C1189 C535 1.416 . S
C1191 C7 1.416 . S
C1207 C40 1.416 . S
C1209 C568 1.416 . S
C1225 C502 1.416 . S
C1227 C73 1.416 . S
C1243 C106 1.416 . S
C1245 C865 1.416 . S
C1261 C799 1.416 . S
C1263 C139 1.416 . S
C1279 C172 1.416 . S
C1281 C832 1.416 . S
C1297 C205 1.416 . S
C1299 C1129 1.416 . S
C1315 C238 1.416 . S
C1317 C1162 1.416 . S
C1333 C271 1.416 . S
C1335 C1096 1.416 . S
C1351 C304 1.416 . S
C1353 C667 1.416 . S
C1369 C337 1.416 . S
C1371 C601 1.416 . S
C1387 C370 1.416 . S
C1389 C634 1.416 . S
C1405 C403 1.416 . S
C1407 C931 1.416 . S
C1423 C964 1.416 . S
C1425 C436 1.416 . S
C1441 C898 1.416 . S
C1443 C469 1.416 . S
C1459 C1063 1.416 . S
C1461 C700 1.416 . S
C1477 C997 1.416 . S
C1479 C733 1.416 . S
C1495 C766 1.416 . S
C1497 C1030 1.416 . S
C1513 N970 1.515 . S
C1515 N13 1.515 . S
C1531 N46 1.515 . S
C1533 N904 1.515 . S
C1549 N79 1.515 . S
C1551 N937 1.515 . S
C1567 N112 1.515 . S
C1569 N442 1.515 . S
C1585 N145 1.515 . S
C1587 N475 1.515 . S
C1603 N409 1.515 . S
C1605 N178 1.515 . S
C1621 N772 1.515 . S
C1623 N211 1.515 . S
C1639 N244 1.515 . S
C1641 N706 1.515 . S
C1657 N277 1.515 . S
C1659 N739 1.515 . S
C1675 N1036 1.515 . S
C1677 N310 1.515 . S
C1693 N1069 1.515 . S
C1695 N343 1.515 . S
C1711 N1003 1.515 . S
C1713 N376 1.515 . S
C1729 N508 1.515 . S
C1731 N838 1.515 . S
C1747 N541 1.515 . S
C1749 N871 1.515 . S
C1765 N574 1.515 . S
C1767 N805 1.515 . S
C1783 N607 1.515 . S
C1785 N1168 1.515 . S
C1801 N1102 1.515 . S
C1803 N640 1.515 . S
C1819 N673 1.515 . S
C1821 N1135 1.515 . S
C1837 C18 1.849 . S
C1839 C612 1.849 . S
C1855 C51 1.849 . S
C1857 C645 1.849 . S
C1873 C678 1.849 . S
C1875 C84 1.849 . S
C1891 C117 1.849 . S
C1893 C1107 1.849 . S
C1909 C150 1.849 . S
C1911 C1140 1.849 . S
C1927 C183 1.849 . S
C1929 C1173 1.849 . S
C1945 C810 1.849 . S
C1947 C216 1.849 . S
C1963 C249 1.849 . S
C1965 C843 1.849 . S
C1981 C876 1.849 . S
C1983 C282 1.849 . S
C1999 C513 1.849 . S
C2001 C315 1.849 . S
C2017 C546 1.849 . S
C2019 C348 1.849 . S
C2035 C381 1.849 . S
C2037 C579 1.849 . S
C2053 C1008 1.849 . S
C2055 C414 1.849 . S
C2071 C1041 1.849 . S
C2073 C447 1.849 . S
C2089 C480 1.849 . S
C2091 C1074 1.849 . S
C2107 C909 1.849 . S
C2109 C711 1.849 . S
C2125 C744 1.849 . S
C2127 C942 1.849 . S
C2143 C975 1.849 . S
C2145 C777 1.849 . S
C2161 N2 1.238 . S
C2163 C252 1.183 1_545 S
C2179 N35 1.238 . S
C2181 C285 1.183 1_655 S
C2197 C219 1.184 . S
C2199 N68 1.238 . S
C2215 C384 1.183 1_455 S
C2217 N101 1.238 . S
C2233 C318 1.184 . S
C2235 N134 1.238 . S
C2251 C351 1.183 1_565 S
C2253 N167 1.238 . S
C2269 C54 1.183 1_565 S
C2271 N200 1.238 . S
C2287 C87 1.183 1_455 S
C2289 N233 1.238 . S
C2305 C21 1.184 . S
C2307 N266 1.238 . S
C2323 N299 1.238 . S
C2325 C186 1.183 1_655 S
C2341 N332 1.238 . S
C2343 C120 1.184 . S
C2359 C153 1.183 1_545 S
C2361 N365 1.238 . S
C2377 C648 1.183 . S
C2379 N398 1.238 . S
C2395 N431 1.238 . S
C2397 C681 1.183 . S
C2413 C615 1.184 . S
C2415 N464 1.238 . S
C2431 C780 1.183 . S
C2433 N497 1.238 . S
C2449 N530 1.238 . S
C2451 C714 1.184 . S
C2467 N563 1.238 . S
C2469 C747 1.183 . S
C2485 N596 1.238 . S
C2487 C450 1.183 . S
C2503 N629 1.238 . S
C2505 C483 1.183 . S
C2521 N662 1.238 . S
C2523 C417 1.184 . S
C2539 N695 1.238 . S
C2541 C582 1.183 . S
C2557 C516 1.184 . S
C2559 N728 1.238 . S
C2575 C549 1.183 . S
C2577 N761 1.238 . S
C2593 C1044 1.183 . S
C2595 N794 1.238 . S
C2611 C1077 1.183 . S
C2613 N827 1.238 . S
C2629 C1011 1.184 . S
C2631 N860 1.238 . S
C2647 C1176 1.183 . S
C2649 N893 1.238 . S
C2665 N926 1.238 . S
C2667 C1110 1.184 . S
C2683 C1143 1.183 . S
C2685 N959 1.238 . S
C2701 C846 1.183 . S
C2703 N992 1.238 . S
C2719 C879 1.183 . S
C2721 N1025 1.238 . S
C2737 C813 1.184 . S
C2739 N1058 1.238 . S
C2755 N1091 1.238 . S
C2757 C978 1.183 . S
C2773 N1124 1.238 . S
C2775 C912 1.184 . S
C2791 C945 1.183 . S
C2793 N1157 1.238 . S
