# Generated by pormake.
# Topology msp, (4)-cn, num edge types: 1
# Building blocks:
#     Node 0, Type 0, BuildingBlock: NAWXER_clean_sbu_0, # of connection points: 4
#     Node 1, Type 0, BuildingBlock: NAWXER_clean_sbu_0, # of connection points: 4
#     Node 2, Type 0, BuildingBlock: NAWXER_clean_sbu_0, # of connection points: 4
#     Node 3, Type 0, BuildingBlock: NAWXER_clean_sbu_0, # of connection points: 4
#     Node 4, Type 0, BuildingBlock: NAWXER_clean_sbu_0, # of connection points: 4
#     Node 5, Type 0, BuildingBlock: NAWXER_clean_sbu_0, # of connection points: 4
#     Node 6, Type 0, BuildingBlock: NAWXER_clean_sbu_0, # of connection points: 4
#     Node 7, Type 0, BuildingBlock: NAWXER_clean_sbu_0, # of connection points: 4
#     Edge 8, Type (0, 0), BuildingBlock: AJUNOK_clean_linker_0, # of connection points: 2
#     Edge 9, Type (0, 0), BuildingBlock: AJUNOK_clean_linker_0, # of connection points: 2
#     Edge 10, Type (0, 0), BuildingBlock: AJUNOK_clean_linker_0, # of connection points: 2
#     Edge 11, Type (0, 0), BuildingBlock: AJUNOK_clean_linker_0, # of connection points: 2
#     Edge 12, Type (0, 0), BuildingBlock: AJUNOK_clean_linker_0, # of connection points: 2
#     Edge 13, Type (0, 0), BuildingBlock: AJUNOK_clean_linker_0, # of connection points: 2
#     Edge 14, Type (0, 0), BuildingBlock: AJUNOK_clean_linker_0, # of connection points: 2
#     Edge 15, Type (0, 0), BuildingBlock: AJUNOK_clean_linker_0, # of connection points: 2
#     Edge 16, Type (0, 0), BuildingBlock: AJUNOK_clean_linker_0, # of connection points: 2
#     Edge 17, Type (0, 0), BuildingBlock: AJUNOK_clean_linker_0, # of connection points: 2
#     Edge 18, Type (0, 0), BuildingBlock: AJUNOK_clean_linker_0, # of connection points: 2
#     Edge 19, Type (0, 0), BuildingBlock: AJUNOK_clean_linker_0, # of connection points: 2
#     Edge 20, Type (0, 0), BuildingBlock: AJUNOK_clean_linker_0, # of connection points: 2
#     Edge 21, Type (0, 0), BuildingBlock: AJUNOK_clean_linker_0, # of connection points: 2
#     Edge 22, Type (0, 0), BuildingBlock: AJUNOK_clean_linker_0, # of connection points: 2
#     Edge 23, Type (0, 0), BuildingBlock: AJUNOK_clean_linker_0, # of connection points: 2
# Relax obj value: 0.113
# Max RMSD: 0.238
# Mean RMSD: 0.238
data_MOF--net-msp--node1-NAWXER_clean_sbu_0--edge1-AJUNOK_clean_linker_0
_symmetry_space_group_name_H-M    P1
_symmetry_Int_Tables_number       1
_symmetry_cell_setting            triclinic
loop_
_symmetry_equiv_pos_as_xyz
'x, y, z'
_cell_length_a     16.692354
_cell_length_b     14.342494
_cell_length_c     32.010947
_cell_angle_alpha  89.898336
_cell_angle_beta   101.0953
_cell_angle_gamma 90.458694
loop_
_atom_site_label
_atom_site_type_symbol
_atom_site_fract_x
_atom_site_fract_y
_atom_site_fract_z
_atom_type_partial_charge
C0 C 0.16457 0.16859 0.42558 0.0
C1 C 0.94547 0.23574 0.30594 0.0
O2 O 0.17362 0.24918 0.40954 0.0
Zn3 Zn 0.10972 0.33293 0.35671 0.0
O4 O 0.10673 0.11517 0.40824 0.0
Zn5 Zn 0.05999 0.20215 0.36469 0.0
O6 O 0.14779 0.2049 0.32241 0.0
O7 O 0.18941 0.35086 0.3218 0.0
O8 O 0.95848 0.16446 0.32964 0.0
O9 O 0.99665 0.30399 0.31241 0.0
O10 O 0.0868 0.44087 0.38773 0.0
O11 O 0.02933 0.31225 0.40588 0.0
C12 C 0.19267 0.26747 0.30926 0.0
C13 C 0.04636 0.39925 0.41205 0.0
C14 C 0.31829 0.2897 0.71102 0.0
C15 C 0.46109 0.41864 0.60648 0.0
O16 O 0.36148 0.22641 0.69772 0.0
Zn17 Zn 0.4502 0.22337 0.6558 0.0
O18 O 0.32464 0.37327 0.69911 0.0
Zn19 Zn 0.40183 0.35351 0.66351 0.0
O20 O 0.33468 0.26505 0.61235 0.0
O21 O 0.4035 0.1335 0.61368 0.0
O22 O 0.42317 0.46076 0.63148 0.0
O23 O 0.4782 0.33201 0.6129 0.0
O24 O 0.55186 0.18807 0.69084 0.0
O25 O 0.51527 0.32767 0.70742 0.0
C26 C 0.34424 0.18439 0.59654 0.0
C27 C 0.56595 0.25995 0.71406 0.0
C28 C 0.93063 0.69804 0.69656 0.0
C29 C 0.02603 0.57665 0.57376 0.0
O30 O 0.93351 0.61398 0.68459 0.0
Zn31 Zn 0.99141 0.63699 0.63958 0.0
O32 O 0.9652 0.76222 0.67801 0.0
Zn33 Zn 0.03073 0.77009 0.62521 0.0
O34 O 0.96327 0.85804 0.58887 0.0
O35 O 0.90378 0.72312 0.59811 0.0
O36 O 0.04176 0.66424 0.57834 0.0
O37 O 1.00109 0.53287 0.6033 0.0
O38 O 0.11254 0.67091 0.67281 0.0
O39 O 0.1399 0.81008 0.6502 0.0
C40 C 0.90082 0.80483 0.58144 0.0
C41 C 0.16196 0.74017 0.67374 0.0
C42 C 0.36594 0.77822 0.34874 0.0
C43 C 0.62042 0.82891 0.44915 0.0
O44 O 0.38912 0.84802 0.37232 0.0
Zn45 Zn 0.49542 0.80328 0.3995 0.0
O46 O 0.41289 0.70745 0.35067 0.0
Zn47 Zn 0.53026 0.66909 0.38556 0.0
O48 O 0.51104 0.56311 0.41819 0.0
O49 O 0.47352 0.69437 0.44409 0.0
O50 O 0.61584 0.74766 0.43212 0.0
O51 O 0.56302 0.88707 0.43861 0.0
O52 O 0.5665 0.79469 0.34912 0.0
O53 O 0.59135 0.64534 0.34268 0.0
C54 C 0.48448 0.60578 0.44733 0.0
C55 C 0.59928 0.72887 0.33112 0.0
C56 C 0.70759 0.79708 0.80834 0.0
C57 C 0.55187 0.92733 0.90685 0.0
O58 O 0.6659 0.73305 0.82279 0.0
Zn59 Zn 0.57562 0.72809 0.86357 0.0
O60 O 0.69662 0.88162 0.81709 0.0
Zn61 Zn 0.61742 0.8618 0.85197 0.0
O62 O 0.68644 0.7862 0.90557 0.0
O63 O 0.62832 0.64832 0.90931 0.0
O64 O 0.58883 0.96981 0.88123 0.0
O65 O 0.53968 0.83899 0.90256 0.0
O66 O 0.47659 0.68181 0.82848 0.0
O67 O 0.50782 0.8219 0.8085 0.0
C68 C 0.68311 0.70774 0.92459 0.0
C69 C 0.4605 0.75023 0.80324 0.0
C70 C 0.81908 0.81758 0.21557 0.0
C71 C 0.97284 0.9442 0.11455 0.0
O72 O 0.86152 0.75405 0.20211 0.0
Zn73 Zn 0.95076 0.74792 0.16166 0.0
O74 O 0.82773 0.90165 0.20489 0.0
Zn75 Zn 0.90716 0.88144 0.17 0.0
O76 O 0.84156 0.79989 0.11653 0.0
O77 O 0.90007 0.66152 0.11837 0.0
O78 O 0.93464 0.98812 0.13897 0.0
O79 O 0.98634 0.85675 0.12088 0.0
O80 O 0.04965 0.70701 0.19715 0.0
O81 O 0.0183 0.8488 0.21403 0.0
C82 C 0.84687 0.71888 0.10024 0.0
C83 C 0.06599 0.77834 0.2206 0.0
C84 C 0.52199 0.09518 0.0692 0.0
C85 C 0.41003 0.189 0.1914 0.0
O86 O 0.49513 0.04484 0.09617 0.0
Zn87 Zn 0.47937 0.1417 0.13512 0.0
O88 O 0.53513 0.18223 0.07716 0.0
Zn89 Zn 0.51702 0.27863 0.12659 0.0
O90 O 0.62439 0.31855 0.15527 0.0
O91 O 0.59817 0.17436 0.17189 0.0
O92 O 0.44537 0.25836 0.17663 0.0
O93 O 0.41712 0.10779 0.17695 0.0
O94 O 0.39288 0.23073 0.09447 0.0
O95 O 0.4512 0.36915 0.09096 0.0
C96 C 0.64652 0.24518 0.1763 0.0
C97 C 0.39016 0.31472 0.0804 0.0
C98 C 0.86436 0.26683 0.84436 0.0
C99 C 0.11912 0.32907 0.94341 0.0
O100 O 0.88777 0.33863 0.86647 0.0
Zn101 Zn 0.99418 0.29639 0.8948 0.0
O102 O 0.91125 0.19566 0.84804 0.0
Zn103 Zn 0.02937 0.16101 0.88429 0.0
O104 O 0.01181 0.06013 0.92037 0.0
O105 O 0.9747 0.19482 0.943 0.0
O106 O 0.11585 0.24586 0.92844 0.0
O107 O 0.06039 0.38496 0.93164 0.0
O108 O 0.06609 0.28049 0.84487 0.0
O109 O 0.09069 0.1302 0.84212 0.0
C110 C 0.9872 0.10703 0.94889 0.0
C111 C 0.09913 0.2121 0.82864 0.0
C112 C 0.06404 0.5363 0.46167 0.0
C113 C 0.03219 0.44611 0.45148 0.0
C114 C 0.06255 0.57721 0.50129 0.0
C115 C 0.0296 0.52965 0.53269 0.0
H116 H 0.09228 0.57522 0.43925 0.0
H117 H 0.08824 0.64657 0.5074 0.0
S118 S 0.93333 0.29404 0.52128 0.0
N119 N 0.96235 0.31248 0.4755 0.0
N120 N 0.96082 0.38845 0.55004 0.0
C121 C 0.99587 0.44013 0.52265 0.0
C122 C 0.99664 0.39881 0.48208 0.0
C123 C 0.46538 0.60674 0.52313 0.0
C124 C 0.47616 0.55589 0.48705 0.0
C125 C 0.46362 0.56226 0.56201 0.0
C126 C 0.47306 0.46508 0.56659 0.0
H127 H 0.45895 0.68183 0.52157 0.0
H128 H 0.45414 0.60451 0.58863 0.0
S129 S 0.50028 0.29901 0.48151 0.0
N130 N 0.49464 0.40217 0.45828 0.0
N131 N 0.49169 0.31892 0.53119 0.0
C132 C 0.484 0.41326 0.53078 0.0
C133 C 0.48527 0.45848 0.4911 0.0
C134 C 0.51278 0.96015 0.01888 0.0
C135 C 0.53008 0.05529 0.02728 0.0
C136 C 0.51599 0.92086 0.97919 0.0
C137 C 0.53685 0.97472 0.94596 0.0
H138 H 0.4968 0.91502 0.04323 0.0
H139 H 0.50403 0.84677 0.97507 0.0
S140 S 0.58381 0.22865 0.95047 0.0
N141 N 0.56591 0.20355 0.9982 0.0
N142 N 0.57232 0.12958 0.92373 0.0
C143 C 0.55273 0.0705 0.95354 0.0
C144 C 0.54943 0.11068 0.99409 0.0
C145 C 0.95586 0.07806 0.063 0.0
C146 C 0.98603 0.98806 0.07417 0.0
C147 C 0.95486 0.1151 0.02228 0.0
C148 C 0.9837 0.06374 0.99084 0.0
H149 H 0.93079 0.11972 0.08551 0.0
H150 H 0.93096 0.18462 0.01543 0.0
S151 S 0.07268 0.82614 1.00422 0.0
N152 N 0.0487 0.84993 0.05066 0.0
N153 N 0.04598 0.91875 0.97431 0.0
C154 C 0.01543 0.97424 1.0018 0.0
C155 C 0.01716 0.93689 0.04338 0.0
C156 C 0.73832 0.17261 0.23882 0.0
C157 C 0.72524 0.24258 0.20742 0.0
C158 C 0.80967 0.17098 0.27015 0.0
C159 C 0.87135 0.23924 0.27157 0.0
H160 H 0.69239 0.11927 0.2398 0.0
H161 H 0.81581 0.11608 0.29381 0.0
S162 S 0.87116 0.43227 0.19399 0.0
N163 N 0.78289 0.3783 0.17783 0.0
N164 N 0.91674 0.37553 0.23683 0.0
C165 C 0.86015 0.30833 0.23967 0.0
C166 C 0.78733 0.30989 0.20762 0.0
C167 C 0.69714 0.19098 0.75233 0.0
C168 C 0.64025 0.26406 0.74836 0.0
C169 C 0.76815 0.19207 0.78383 0.0
C170 C 0.78593 0.26629 0.8129 0.0
H171 H 0.68733 0.13221 0.73069 0.0
H172 H 0.81 0.13449 0.78491 0.0
S173 S 0.65478 0.47252 0.81826 0.0
N174 N 0.60503 0.41134 0.77765 0.0
N175 N 0.73862 0.41348 0.83683 0.0
C176 C 0.72897 0.3393 0.80991 0.0
C177 C 0.65629 0.33817 0.77771 0.0
C178 C 0.25613 0.6743 0.73716 0.0
C179 C 0.24136 0.74098 0.70429 0.0
C180 C 0.32741 0.67735 0.76852 0.0
C181 C 0.38711 0.74729 0.7685 0.0
H182 H 0.21148 0.62019 0.73936 0.0
H183 H 0.33486 0.62518 0.79346 0.0
S184 S 0.38238 0.93275 0.68687 0.0
N185 N 0.29564 0.87509 0.67182 0.0
N186 N 0.42927 0.88107 0.73085 0.0
C187 C 0.37448 0.81272 0.73504 0.0
C188 C 0.30184 0.80945 0.70295 0.0
C189 C 0.27373 0.71328 0.28448 0.0
C190 C 0.28745 0.77917 0.31766 0.0
C191 C 0.20193 0.71362 0.2536 0.0
C192 C 0.14042 0.77969 0.25454 0.0
H193 H 0.3194 0.66155 0.28181 0.0
H194 H 0.19525 0.66207 0.22845 0.0
S195 S 0.14279 0.96236 0.33678 0.0
N196 N 0.23147 0.90967 0.35086 0.0
N197 N 0.09571 0.90933 0.29306 0.0
C198 C 0.15225 0.84474 0.28809 0.0
C199 C 0.22589 0.84478 0.31953 0.0
C200 C 0.36578 0.28593 0.24779 0.0
C201 C 0.35651 0.20472 0.22274 0.0
C202 C 0.31303 0.30488 0.27589 0.0
C203 C 0.24851 0.24364 0.27996 0.0
H204 H 0.41411 0.33555 0.24565 0.0
H205 H 0.32299 0.36835 0.29452 0.0
S206 S 0.19382 0.02492 0.21895 0.0
N207 N 0.27557 0.0643 0.20248 0.0
N208 N 0.17614 0.10049 0.25489 0.0
C209 C 0.23822 0.16237 0.25491 0.0
C210 C 0.29222 0.1428 0.22642 0.0
C211 C 0.2242 0.33953 0.75877 0.0
C212 C 0.26108 0.26684 0.73989 0.0
C213 C 0.1706 0.32113 0.78653 0.0
C214 C 0.15132 0.22921 0.79662 0.0
H215 H 0.23749 0.41173 0.75254 0.0
H216 H 0.14523 0.37976 0.8007 0.0
S217 S 0.22714 0.01336 0.75364 0.0
N218 N 0.27157 0.09898 0.73188 0.0
N219 N 0.17068 0.06418 0.78389 0.0
C220 C 0.18627 0.15563 0.77722 0.0
C221 C 0.24117 0.17446 0.74899 0.0
C222 C 0.76763 0.6826 0.76429 0.0
C223 C 0.76835 0.77242 0.78193 0.0
C224 C 0.82241 0.65822 0.73808 0.0
C225 C 0.88018 0.72273 0.72832 0.0
H226 H 0.72316 0.63107 0.76991 0.0
H227 H 0.81757 0.58892 0.72438 0.0
S228 S 0.91386 0.96396 0.77028 0.0
N229 N 0.83643 0.92403 0.79049 0.0
N230 N 0.93899 0.87821 0.7411 0.0
C231 C 0.88365 0.81179 0.74698 0.0
C232 C 0.82786 0.83664 0.77375 0.0
C233 C 0.72857 0.86394 0.26584 0.0
C234 C 0.76043 0.79337 0.24336 0.0
C235 C 0.67482 0.84283 0.29326 0.0
C236 C 0.65059 0.75032 0.29922 0.0
H237 H 0.74637 0.9361 0.26291 0.0
H238 H 0.65362 0.89942 0.31059 0.0
S239 S 0.71033 0.54074 0.24471 0.0
N240 N 0.75957 0.62775 0.22682 0.0
N241 N 0.65851 0.58811 0.2781 0.0
C242 C 0.67997 0.67938 0.27588 0.0
C243 C 0.7349 0.70085 0.24807 0.0
C244 C 0.21375 0.19314 0.5442 0.0
C245 C 0.29376 0.15912 0.55494 0.0
C246 C 0.17032 0.18897 0.50228 0.0
C247 C 0.20564 0.15172 0.46962 0.0
H248 H 0.18588 0.2272 0.56796 0.0
H249 H 0.11032 0.21994 0.49492 0.0
S250 S 0.41087 0.04831 0.48094 0.0
N251 N 0.40474 0.08132 0.52968 0.0
N252 N 0.32267 0.07594 0.45046 0.0
C253 C 0.28374 0.11337 0.47995 0.0
C254 C 0.32787 0.11618 0.52286 0.0
C255 C 0.7521 0.78684 0.55522 0.0
C256 C 0.82571 0.8318 0.55169 0.0
C257 C 0.68328 0.79332 0.52288 0.0
C258 C 0.6854 0.84549 0.48607 0.0
H259 H 0.74881 0.74206 0.58216 0.0
H260 H 0.62942 0.75269 0.52556 0.0
S261 S 0.8592 0.98478 0.46292 0.0
N262 N 0.89413 0.93738 0.50995 0.0
N263 N 0.76342 0.94901 0.4488 0.0
C264 C 0.75608 0.89647 0.48323 0.0
C265 C 0.8267 0.89005 0.51632 0.0
C266 C 0.823 0.77517 0.02666 0.0
C267 C 0.80903 0.70573 0.05533 0.0
C268 C 0.78724 0.77024 0.98375 0.0
C269 C 0.73382 0.69673 0.96769 0.0
H270 H 0.86132 0.83493 0.03763 0.0
H271 H 0.79892 0.82742 0.96352 0.0
S272 S 0.68356 0.49215 0.02959 0.0
N273 N 0.74528 0.55662 0.06489 0.0
N274 N 0.67382 0.54838 0.98377 0.0
C275 C 0.72242 0.62386 0.99575 0.0
C276 C 0.76093 0.62819 0.03974 0.0
C277 C 0.3273 0.37828 1.00931 0.0
C278 C 0.31807 0.34284 0.04914 0.0
C279 C 0.26052 0.38097 0.97508 0.0
C280 C 0.18293 0.35056 0.98036 0.0
H281 H 0.3874 0.39659 1.00362 0.0
H282 H 0.27054 0.40145 0.94389 0.0
S283 S 0.12577 0.26207 0.07943 0.0
N284 N 0.22472 0.28387 0.09269 0.0
N285 N 0.09909 0.2915 0.02877 0.0
C286 C 0.17202 0.32187 0.02077 0.0
C287 C 0.23979 0.31752 0.0552 0.0
loop_
_geom_bond_atom_site_label_1
_geom_bond_atom_site_label_2
_geom_bond_distance
_geom_bond_site_symmetry_2
_ccdc_geom_bond_type
C0 O2 1.247 . S
C0 O4 1.258 . S
C1 O8 1.247 . S
C1 O9 1.258 . S
O2 C0 1.247 . S
O2 Zn3 2.028 . S
Zn3 O2 2.028 . S
Zn3 O7 2.035 . S
Zn3 O9 2.035 1_455 S
Zn3 O10 2.028 . S
O4 C0 1.258 . S
O4 Zn5 2.035 . S
Zn5 O4 2.035 . S
Zn5 O6 2.028 . S
Zn5 O8 2.028 1_455 S
Zn5 O11 2.035 1_455 S
O6 Zn5 2.028 . S
O6 C12 1.247 . S
O7 Zn3 2.035 . S
O7 C12 1.258 . S
O8 C1 1.247 . S
O8 Zn5 2.028 1_655 S
O9 C1 1.258 . S
O9 Zn3 2.035 1_655 S
O10 Zn3 2.028 . S
O10 C13 1.247 1_455 S
O11 Zn5 2.035 1_655 S
O11 C13 1.258 . S
C12 O6 1.247 . S
C12 O7 1.258 . S
C13 O10 1.247 1_655 S
C13 O11 1.258 . S
C14 O16 1.247 . S
C14 O18 1.258 . S
C15 O22 1.247 . S
C15 O23 1.258 . S
O16 C14 1.247 . S
O16 Zn17 2.028 . S
Zn17 O16 2.028 . S
Zn17 O21 2.035 . S
Zn17 O23 2.035 . S
Zn17 O24 2.028 . S
O18 C14 1.258 . S
O18 Zn19 2.035 . S
Zn19 O18 2.035 . S
Zn19 O20 2.028 . S
Zn19 O22 2.028 . S
Zn19 O25 2.035 . S
O20 Zn19 2.028 . S
O20 C26 1.247 . S
O21 Zn17 2.035 . S
O21 C26 1.258 . S
O22 C15 1.247 . S
O22 Zn19 2.028 . S
O23 C15 1.258 . S
O23 Zn17 2.035 . S
O24 Zn17 2.028 . S
O24 C27 1.247 . S
O25 Zn19 2.035 . S
O25 C27 1.258 . S
C26 O20 1.247 . S
C26 O21 1.258 . S
C27 O24 1.247 . S
C27 O25 1.258 . S
C28 O30 1.247 . S
C28 O32 1.258 . S
C29 O36 1.247 . S
C29 O37 1.258 1_455 S
O30 C28 1.247 . S
O30 Zn31 2.028 . S
Zn31 O30 2.028 . S
Zn31 O35 2.035 . S
Zn31 O37 2.035 . S
Zn31 O38 2.028 1_655 S
O32 C28 1.258 . S
O32 Zn33 2.035 . S
Zn33 O32 2.035 . S
Zn33 O34 2.028 . S
Zn33 O36 2.028 1_655 S
Zn33 O39 2.035 1_655 S
O34 Zn33 2.028 . S
O34 C40 1.247 . S
O35 Zn31 2.035 . S
O35 C40 1.258 . S
O36 C29 1.247 . S
O36 Zn33 2.028 1_455 S
O37 C29 1.258 1_655 S
O37 Zn31 2.035 . S
O38 Zn31 2.028 1_455 S
O38 C41 1.247 . S
O39 Zn33 2.035 1_455 S
O39 C41 1.258 . S
C40 O34 1.247 . S
C40 O35 1.258 . S
C41 O38 1.247 . S
C41 O39 1.258 . S
C42 O44 1.247 . S
C42 O46 1.258 . S
C43 O50 1.247 . S
C43 O51 1.258 . S
O44 C42 1.247 . S
O44 Zn45 2.028 . S
Zn45 O44 2.028 . S
Zn45 O49 2.035 . S
Zn45 O51 2.035 . S
Zn45 O52 2.028 . S
O46 C42 1.258 . S
O46 Zn47 2.035 . S
Zn47 O46 2.035 . S
Zn47 O48 2.028 . S
Zn47 O50 2.028 . S
Zn47 O53 2.035 . S
O48 Zn47 2.028 . S
O48 C54 1.247 . S
O49 Zn45 2.035 . S
O49 C54 1.258 . S
O50 C43 1.247 . S
O50 Zn47 2.028 . S
O51 C43 1.258 . S
O51 Zn45 2.035 . S
O52 Zn45 2.028 . S
O52 C55 1.247 . S
O53 Zn47 2.035 . S
O53 C55 1.258 . S
C54 O48 1.247 . S
C54 O49 1.258 . S
C55 O52 1.247 . S
C55 O53 1.258 . S
C56 O58 1.247 . S
C56 O60 1.258 . S
C57 O64 1.247 . S
C57 O65 1.258 . S
O58 C56 1.247 . S
O58 Zn59 2.028 . S
Zn59 O58 2.028 . S
Zn59 O63 2.035 . S
Zn59 O65 2.035 . S
Zn59 O66 2.028 . S
O60 C56 1.258 . S
O60 Zn61 2.035 . S
Zn61 O60 2.035 . S
Zn61 O62 2.028 . S
Zn61 O64 2.028 . S
Zn61 O67 2.035 . S
O62 Zn61 2.028 . S
O62 C68 1.247 . S
O63 Zn59 2.035 . S
O63 C68 1.258 . S
O64 C57 1.247 . S
O64 Zn61 2.028 . S
O65 C57 1.258 . S
O65 Zn59 2.035 . S
O66 Zn59 2.028 . S
O66 C69 1.247 . S
O67 Zn61 2.035 . S
O67 C69 1.258 . S
C68 O62 1.247 . S
C68 O63 1.258 . S
C69 O66 1.247 . S
C69 O67 1.258 . S
C70 O72 1.247 . S
C70 O74 1.258 . S
C71 O78 1.247 1_455 S
C71 O79 1.258 . S
O72 C70 1.247 . S
O72 Zn73 2.028 . S
Zn73 O72 2.028 . S
Zn73 O77 2.035 . S
Zn73 O79 2.035 1_655 S
Zn73 O80 2.028 1_655 S
O74 C70 1.258 . S
O74 Zn75 2.035 . S
Zn75 O74 2.035 . S
Zn75 O76 2.028 . S
Zn75 O78 2.028 . S
Zn75 O81 2.035 1_655 S
O76 Zn75 2.028 . S
O76 C82 1.247 . S
O77 Zn73 2.035 . S
O77 C82 1.258 . S
O78 C71 1.247 1_655 S
O78 Zn75 2.028 . S
O79 C71 1.258 . S
O79 Zn73 2.035 1_455 S
O80 Zn73 2.028 1_455 S
O80 C83 1.247 . S
O81 Zn75 2.035 1_455 S
O81 C83 1.258 . S
C82 O76 1.247 . S
C82 O77 1.258 . S
C83 O80 1.247 . S
C83 O81 1.258 . S
C84 O86 1.247 . S
C84 O88 1.258 . S
C85 O92 1.247 . S
C85 O93 1.258 . S
O86 C84 1.247 . S
O86 Zn87 2.028 . S
Zn87 O86 2.028 . S
Zn87 O91 2.035 . S
Zn87 O93 2.035 . S
Zn87 O94 2.028 . S
O88 C84 1.258 . S
O88 Zn89 2.035 . S
Zn89 O88 2.035 . S
Zn89 O90 2.028 . S
Zn89 O92 2.028 . S
Zn89 O95 2.035 . S
O90 Zn89 2.028 . S
O90 C96 1.247 . S
O91 Zn87 2.035 . S
O91 C96 1.258 . S
O92 C85 1.247 . S
O92 Zn89 2.028 . S
O93 C85 1.258 . S
O93 Zn87 2.035 . S
O94 Zn87 2.028 . S
O94 C97 1.247 . S
O95 Zn89 2.035 . S
O95 C97 1.258 . S
C96 O90 1.247 . S
C96 O91 1.258 . S
C97 O94 1.247 . S
C97 O95 1.258 . S
C98 O100 1.247 . S
C98 O102 1.258 . S
C99 O106 1.247 . S
C99 O107 1.258 . S
O100 C98 1.247 . S
O100 Zn101 2.028 1_655 S
Zn101 O100 2.028 1_455 S
Zn101 O105 2.035 1_455 S
Zn101 O107 2.035 . S
Zn101 O108 2.028 . S
O102 C98 1.258 . S
O102 Zn103 2.035 1_655 S
Zn103 O102 2.035 1_455 S
Zn103 O104 2.028 . S
Zn103 O106 2.028 . S
Zn103 O109 2.035 . S
O104 Zn103 2.028 . S
O104 C110 1.247 1_455 S
O105 Zn101 2.035 1_655 S
O105 C110 1.258 . S
O106 C99 1.247 . S
O106 Zn103 2.028 . S
O107 C99 1.258 . S
O107 Zn101 2.035 . S
O108 Zn101 2.028 . S
O108 C111 1.247 . S
O109 Zn103 2.035 . S
O109 C111 1.258 . S
C110 O104 1.247 1_655 S
C110 O105 1.258 . S
C111 O108 1.247 . S
C111 O109 1.258 . S
C112 C113 1.369 1_455 S
C112 C114 1.419 . S
C112 H116 0.930 . S
C113 C112 1.369 1_655 S
C113 C122 1.429 . S
C114 C112 1.419 . S
C114 C115 1.363 . S
C114 H117 0.929 . S
C115 C114 1.363 . S
C115 C121 1.428 1_455 S
H116 C112 0.930 . S
H117 C114 0.929 . S
S118 N119 1.613 . S
S118 N120 1.610 . S
N119 S118 1.613 . S
N119 C122 1.350 . S
N120 S118 1.610 . S
N120 C121 1.351 . S
C121 C115 1.428 1_655 S
C121 N120 1.351 . S
C121 C122 1.434 . S
C122 C113 1.429 . S
C122 N119 1.350 . S
C122 C121 1.434 . S
C123 C124 1.369 . S
C123 C125 1.419 . S
C123 H127 0.930 . S
C124 C123 1.369 . S
C124 C133 1.429 . S
C125 C123 1.419 . S
C125 C126 1.363 . S
C125 H128 0.929 . S
C126 C125 1.363 . S
C126 C132 1.428 . S
H127 C123 0.930 . S
H128 C125 0.929 . S
S129 N130 1.613 . S
S129 N131 1.610 . S
N130 S129 1.613 . S
N130 C133 1.350 . S
N131 S129 1.610 . S
N131 C132 1.351 . S
C132 C126 1.428 . S
C132 N131 1.351 . S
C132 C133 1.434 . S
C133 C124 1.429 . S
C133 N130 1.350 . S
C133 C132 1.434 . S
C134 C135 1.369 1_565 S
C134 C136 1.419 . S
C134 H138 0.930 . S
C135 C134 1.369 1_545 S
C135 C144 1.429 1_554 S
C136 C134 1.419 . S
C136 C137 1.363 1_554 S
C136 H139 0.929 . S
C137 C136 1.363 1_556 S
C137 C143 1.428 1_565 S
H138 C134 0.930 . S
H139 C136 0.929 . S
S140 N141 1.613 . S
S140 N142 1.610 . S
N141 S140 1.613 . S
N141 C144 1.350 . S
N142 S140 1.610 . S
N142 C143 1.351 . S
C143 C137 1.428 1_545 S
C143 N142 1.351 . S
C143 C144 1.434 . S
C144 C135 1.429 1_556 S
C144 N141 1.350 . S
C144 C143 1.434 . S
C145 C146 1.369 1_545 S
C145 C147 1.419 1_455 S
C145 H149 0.930 . S
C146 C145 1.369 1_565 S
C146 C155 1.429 1_554 S
C147 C145 1.419 1_655 S
C147 C148 1.363 1_554 S
C147 H150 0.929 . S
C148 C147 1.363 1_556 S
C148 C154 1.428 1_545 S
H149 C145 0.930 . S
H150 C147 0.929 . S
S151 N152 1.614 1_655 S
S151 N153 1.612 . S
N152 S151 1.614 1_455 S
N152 C155 1.350 . S
N153 S151 1.612 . S
N153 C154 1.351 . S
C154 C148 1.428 1_565 S
C154 N153 1.351 . S
C154 C155 1.434 1_655 S
C155 C146 1.429 1_556 S
C155 N152 1.350 . S
C155 C154 1.434 1_455 S
C156 C157 1.369 . S
C156 C158 1.419 . S
C156 H160 0.930 . S
C157 C156 1.369 . S
C157 C166 1.429 . S
C158 C156 1.419 . S
C158 C159 1.363 . S
C158 H161 0.929 . S
C159 C158 1.363 . S
C159 C165 1.428 . S
H160 C156 0.930 . S
H161 C158 0.929 . S
S162 N163 1.613 . S
S162 N164 1.610 . S
N163 S162 1.613 . S
N163 C166 1.350 . S
N164 S162 1.610 . S
N164 C165 1.351 . S
C165 C159 1.428 . S
C165 N164 1.351 . S
C165 C166 1.434 . S
C166 C157 1.429 . S
C166 N163 1.350 . S
C166 C165 1.434 . S
C167 C168 1.369 . S
C167 C169 1.419 . S
C167 H171 0.930 . S
C168 C167 1.369 . S
C168 C177 1.429 . S
C169 C167 1.419 . S
C169 C170 1.363 . S
C169 H172 0.929 . S
C170 C169 1.363 . S
C170 C176 1.428 . S
H171 C167 0.930 . S
H172 C169 0.929 . S
S173 N174 1.613 . S
S173 N175 1.610 . S
N174 S173 1.613 . S
N174 C177 1.350 . S
N175 S173 1.610 . S
N175 C176 1.351 . S
C176 C170 1.428 . S
C176 N175 1.351 . S
C176 C177 1.434 . S
C177 C168 1.429 . S
C177 N174 1.350 . S
C177 C176 1.434 . S
C178 C179 1.369 . S
C178 C180 1.419 . S
C178 H182 0.930 . S
C179 C178 1.369 . S
C179 C188 1.429 . S
C180 C178 1.419 . S
C180 C181 1.363 . S
C180 H183 0.929 . S
C181 C180 1.363 . S
C181 C187 1.428 . S
H182 C178 0.930 . S
H183 C180 0.929 . S
S184 N185 1.613 . S
S184 N186 1.610 . S
N185 S184 1.613 . S
N185 C188 1.350 . S
N186 S184 1.610 . S
N186 C187 1.351 . S
C187 C181 1.428 . S
C187 N186 1.351 . S
C187 C188 1.434 . S
C188 C179 1.429 . S
C188 N185 1.350 . S
C188 C187 1.434 . S
C189 C190 1.369 . S
C189 C191 1.419 . S
C189 H193 0.930 . S
C190 C189 1.369 . S
C190 C199 1.429 . S
C191 C189 1.419 . S
C191 C192 1.363 . S
C191 H194 0.929 . S
C192 C191 1.363 . S
C192 C198 1.428 . S
H193 C189 0.930 . S
H194 C191 0.929 . S
S195 N196 1.613 . S
S195 N197 1.610 . S
N196 S195 1.613 . S
N196 C199 1.350 . S
N197 S195 1.610 . S
N197 C198 1.351 . S
C198 C192 1.428 . S
C198 N197 1.351 . S
C198 C199 1.434 . S
C199 C190 1.429 . S
C199 N196 1.350 . S
C199 C198 1.434 . S
C200 C201 1.369 . S
C200 C202 1.419 . S
C200 H204 0.930 . S
C201 C200 1.369 . S
C201 C210 1.429 . S
C202 C200 1.419 . S
C202 C203 1.363 . S
C202 H205 0.929 . S
C203 C202 1.363 . S
C203 C209 1.428 . S
H204 C200 0.930 . S
H205 C202 0.929 . S
S206 N207 1.613 . S
S206 N208 1.610 . S
N207 S206 1.613 . S
N207 C210 1.350 . S
N208 S206 1.610 . S
N208 C209 1.351 . S
C209 C203 1.428 . S
C209 N208 1.351 . S
C209 C210 1.434 . S
C210 C201 1.429 . S
C210 N207 1.350 . S
C210 C209 1.434 . S
C211 C212 1.369 . S
C211 C213 1.419 . S
C211 H215 0.930 . S
C212 C211 1.369 . S
C212 C221 1.429 . S
C213 C211 1.419 . S
C213 C214 1.363 . S
C213 H216 0.929 . S
C214 C213 1.363 . S
C214 C220 1.428 . S
H215 C211 0.930 . S
H216 C213 0.929 . S
S217 N218 1.613 . S
S217 N219 1.610 . S
N218 S217 1.613 . S
N218 C221 1.350 . S
N219 S217 1.610 . S
N219 C220 1.351 . S
C220 C214 1.428 . S
C220 N219 1.351 . S
C220 C221 1.434 . S
C221 C212 1.429 . S
C221 N218 1.350 . S
C221 C220 1.434 . S
C222 C223 1.369 . S
C222 C224 1.419 . S
C222 H226 0.930 . S
C223 C222 1.369 . S
C223 C232 1.429 . S
C224 C222 1.419 . S
C224 C225 1.363 . S
C224 H227 0.929 . S
C225 C224 1.363 . S
C225 C231 1.428 . S
H226 C222 0.930 . S
H227 C224 0.929 . S
S228 N229 1.613 . S
S228 N230 1.610 . S
N229 S228 1.613 . S
N229 C232 1.350 . S
N230 S228 1.610 . S
N230 C231 1.351 . S
C231 C225 1.428 . S
C231 N230 1.351 . S
C231 C232 1.434 . S
C232 C223 1.429 . S
C232 N229 1.350 . S
C232 C231 1.434 . S
C233 C234 1.369 . S
C233 C235 1.419 . S
C233 H237 0.930 . S
C234 C233 1.369 . S
C234 C243 1.429 . S
C235 C233 1.419 . S
C235 C236 1.363 . S
C235 H238 0.929 . S
C236 C235 1.363 . S
C236 C242 1.428 . S
H237 C233 0.930 . S
H238 C235 0.929 . S
S239 N240 1.613 . S
S239 N241 1.610 . S
N240 S239 1.613 . S
N240 C243 1.350 . S
N241 S239 1.610 . S
N241 C242 1.351 . S
C242 C236 1.428 . S
C242 N241 1.351 . S
C242 C243 1.434 . S
C243 C234 1.429 . S
C243 N240 1.350 . S
C243 C242 1.434 . S
C244 C245 1.369 . S
C244 C246 1.419 . S
C244 H248 0.930 . S
C245 C244 1.369 . S
C245 C254 1.429 . S
C246 C244 1.419 . S
C246 C247 1.363 . S
C246 H249 0.929 . S
C247 C246 1.363 . S
C247 C253 1.428 . S
H248 C244 0.930 . S
H249 C246 0.929 . S
S250 N251 1.613 . S
S250 N252 1.610 . S
N251 S250 1.613 . S
N251 C254 1.350 . S
N252 S250 1.610 . S
N252 C253 1.351 . S
C253 C247 1.428 . S
C253 N252 1.351 . S
C253 C254 1.434 . S
C254 C245 1.429 . S
C254 N251 1.350 . S
C254 C253 1.434 . S
C255 C256 1.369 . S
C255 C257 1.419 . S
C255 H259 0.930 . S
C256 C255 1.369 . S
C256 C265 1.429 . S
C257 C255 1.419 . S
C257 C258 1.363 . S
C257 H260 0.929 . S
C258 C257 1.363 . S
C258 C264 1.428 . S
H259 C255 0.930 . S
H260 C257 0.929 . S
S261 N262 1.613 . S
S261 N263 1.610 . S
N262 S261 1.613 . S
N262 C265 1.350 . S
N263 S261 1.610 . S
N263 C264 1.351 . S
C264 C258 1.428 . S
C264 N263 1.351 . S
C264 C265 1.434 . S
C265 C256 1.429 . S
C265 N262 1.350 . S
C265 C264 1.434 . S
C266 C267 1.369 . S
C266 C268 1.419 1_554 S
C266 H270 0.930 . S
C267 C266 1.369 . S
C267 C276 1.429 . S
C268 C266 1.419 1_556 S
C268 C269 1.363 . S
C268 H271 0.929 . S
C269 C268 1.363 . S
C269 C275 1.428 . S
H270 C266 0.930 . S
H271 C268 0.929 . S
S272 N273 1.613 . S
S272 N274 1.610 1_554 S
N273 S272 1.613 . S
N273 C276 1.350 . S
N274 S272 1.610 1_556 S
N274 C275 1.351 . S
C275 C269 1.428 . S
C275 N274 1.351 . S
C275 C276 1.434 1_556 S
C276 C267 1.429 . S
C276 N273 1.350 . S
C276 C275 1.434 1_554 S
C277 C278 1.369 . S
C277 C279 1.419 1_554 S
C277 H281 0.930 . S
C278 C277 1.369 . S
C278 C287 1.429 . S
C279 C277 1.419 1_556 S
C279 C280 1.363 . S
C279 H282 0.929 . S
C280 C279 1.363 . S
C280 C286 1.428 . S
H281 C277 0.930 . S
H282 C279 0.929 . S
S283 N284 1.613 . S
S283 N285 1.610 1_554 S
N284 S283 1.613 . S
N284 C287 1.350 . S
N285 S283 1.610 1_556 S
N285 C286 1.351 . S
C286 C280 1.428 . S
C286 N285 1.351 . S
C286 C287 1.434 1_556 S
C287 C278 1.429 . S
C287 N284 1.350 . S
C287 C286 1.434 1_554 S
C113 C13 1.885 . S
C115 C29 1.885 . S
C124 C54 1.878 . S
C126 C15 1.887 . S
C135 C84 1.885 . S
C137 C57 1.881 . S
C146 C71 1.887 . S
C148 C110 1.880 . S
C157 C96 1.837 . S
C159 C1 1.840 . S
C168 C27 1.837 . S
C170 C98 1.840 . S
C179 C41 1.838 . S
C181 C69 1.840 . S
C190 C42 1.836 . S
C192 C83 1.840 . S
C201 C85 2.037 . S
C203 C12 2.041 . S
C212 C14 2.036 . S
C214 C111 2.041 . S
C223 C56 2.035 . S
C225 C28 2.038 . S
C234 C70 2.036 . S
C236 C55 2.041 . S
C245 C26 0.927 . S
C247 C0 0.937 . S
C256 C40 0.930 . S
C258 C43 0.934 . S
C267 C82 0.936 . S
C269 C68 0.930 . S
C278 C97 0.936 . S
C280 C99 0.930 . S
