# Generated by pormake.
# Topology vby, (6)-cn, num edge types: 1
# Building blocks:
#     Node 0, Type 0, BuildingBlock: BETFEN_clean_sbu_0, # of connection points: 6
#     Node 1, Type 0, BuildingBlock: BETFEN_clean_sbu_0, # of connection points: 6
#     Node 2, Type 0, BuildingBlock: BETFEN_clean_sbu_0, # of connection points: 6
#     Node 3, Type 0, BuildingBlock: BETFEN_clean_sbu_0, # of connection points: 6
#     Node 4, Type 0, BuildingBlock: BETFEN_clean_sbu_0, # of connection points: 6
#     Node 5, Type 0, BuildingBlock: BETFEN_clean_sbu_0, # of connection points: 6
#     Node 6, Type 0, BuildingBlock: BETFEN_clean_sbu_0, # of connection points: 6
#     Node 7, Type 0, BuildingBlock: BETFEN_clean_sbu_0, # of connection points: 6
#     Edge 8, Type (0, 0), BuildingBlock: EYOCIG_clean_linker_4, # of connection points: 2
#     Edge 9, Type (0, 0), BuildingBlock: EYOCIG_clean_linker_4, # of connection points: 2
#     Edge 10, Type (0, 0), BuildingBlock: EYOCIG_clean_linker_4, # of connection points: 2
#     Edge 11, Type (0, 0), BuildingBlock: EYOCIG_clean_linker_4, # of connection points: 2
#     Edge 12, Type (0, 0), BuildingBlock: EYOCIG_clean_linker_4, # of connection points: 2
#     Edge 13, Type (0, 0), BuildingBlock: EYOCIG_clean_linker_4, # of connection points: 2
#     Edge 14, Type (0, 0), BuildingBlock: EYOCIG_clean_linker_4, # of connection points: 2
#     Edge 15, Type (0, 0), BuildingBlock: EYOCIG_clean_linker_4, # of connection points: 2
#     Edge 16, Type (0, 0), BuildingBlock: EYOCIG_clean_linker_4, # of connection points: 2
#     Edge 17, Type (0, 0), BuildingBlock: EYOCIG_clean_linker_4, # of connection points: 2
#     Edge 18, Type (0, 0), BuildingBlock: EYOCIG_clean_linker_4, # of connection points: 2
#     Edge 19, Type (0, 0), BuildingBlock: EYOCIG_clean_linker_4, # of connection points: 2
#     Edge 20, Type (0, 0), BuildingBlock: EYOCIG_clean_linker_4, # of connection points: 2
#     Edge 21, Type (0, 0), BuildingBlock: EYOCIG_clean_linker_4, # of connection points: 2
#     Edge 22, Type (0, 0), BuildingBlock: EYOCIG_clean_linker_4, # of connection points: 2
#     Edge 23, Type (0, 0), BuildingBlock: EYOCIG_clean_linker_4, # of connection points: 2
#     Edge 24, Type (0, 0), BuildingBlock: EYOCIG_clean_linker_4, # of connection points: 2
#     Edge 25, Type (0, 0), BuildingBlock: EYOCIG_clean_linker_4, # of connection points: 2
#     Edge 26, Type (0, 0), BuildingBlock: EYOCIG_clean_linker_4, # of connection points: 2
#     Edge 27, Type (0, 0), BuildingBlock: EYOCIG_clean_linker_4, # of connection points: 2
#     Edge 28, Type (0, 0), BuildingBlock: EYOCIG_clean_linker_4, # of connection points: 2
#     Edge 29, Type (0, 0), BuildingBlock: EYOCIG_clean_linker_4, # of connection points: 2
#     Edge 30, Type (0, 0), BuildingBlock: EYOCIG_clean_linker_4, # of connection points: 2
#     Edge 31, Type (0, 0), BuildingBlock: EYOCIG_clean_linker_4, # of connection points: 2
# Relax obj value: 0.203
# Max RMSD: 0.220
# Mean RMSD: 0.220
data_MOF--net-vby--node1-BETFEN_clean_sbu_0--edge1-EYOCIG_clean_linker_4
_symmetry_space_group_name_H-M    P1
_symmetry_Int_Tables_number       1
_symmetry_cell_setting            triclinic
loop_
_symmetry_equiv_pos_as_xyz
'x, y, z'
_cell_length_a     12.434039
_cell_length_b     92.952251
_cell_length_c     22.884106
_cell_angle_alpha  90.039678
_cell_angle_beta   92.530409
_cell_angle_gamma 89.996495
loop_
_atom_site_label
_atom_site_type_symbol
_atom_site_fract_x
_atom_site_fract_y
_atom_site_fract_z
_atom_type_partial_charge
Pr0 Pr 0.10547 0.37043 0.03019 0.0
Pr1 Pr 0.09646 0.4052 0.02239 0.0
C2 C 0.13341 0.342 0.0128 0.0
C3 C 0.19737 0.32856 0.01961 0.0
C4 C 0.19461 0.32039 0.07133 0.0
C5 C 0.22893 0.30605 0.0722 0.0
C6 C 0.26661 0.29966 0.02157 0.0
C7 C 0.2787 0.30808 0.9715 0.0
C8 C 0.24437 0.32244 0.97054 0.0
C9 C 0.0847 0.38451 0.13575 0.0
C10 C 0.3354 0.38904 0.02902 0.0
C11 C 0.08406 0.43337 0.04601 0.0
C12 C 1.03736 0.4477 0.03431 0.0
C13 C 1.04493 0.45447 0.97964 0.0
C14 C 1.03197 0.4694 0.97497 0.0
C15 C 1.01135 0.47757 0.02476 0.0
C16 C 0.99179 0.47065 0.0775 0.0
C17 C 1.0044 0.45577 0.08216 0.0
C18 C 0.06478 0.39292 0.91065 0.0
C19 C 0.87208 0.38696 0.02246 0.0
O20 O 0.16154 0.35176 0.9751 0.0
O21 O 0.08692 0.34731 0.05831 0.0
O22 O 0.14384 0.38893 0.09577 0.0
O23 O 1.04179 0.37207 0.12378 0.0
O24 O 0.28287 0.4014 0.0296 0.0
O25 O 0.28795 0.37634 0.02887 0.0
O26 O 1.02766 0.42375 0.07332 0.0
O27 O 0.14969 0.42798 1.00837 0.0
O28 O 0.07972 0.38658 0.9584 0.0
O29 O 0.06345 0.40668 0.91927 0.0
O30 O 0.92491 0.37563 1.00353 0.0
O31 O 0.92093 0.39869 0.04212 0.0
H32 H 0.15939 0.32474 0.11001 0.0
H33 H 0.22 0.29971 0.11142 0.0
H34 H 0.30856 0.30334 0.93209 0.0
H35 H 0.24776 0.32844 0.93008 0.0
H36 H 0.06884 0.44846 0.94178 0.0
H37 H 1.04596 0.47464 0.9337 0.0
H38 H 0.9749 0.47682 0.11621 0.0
H39 H 0.99749 0.45075 0.12457 0.0
Pr40 Pr 1.00035 0.62133 0.02516 0.0
Pr41 Pr 0.98589 0.65776 0.01447 0.0
C42 C 1.01281 0.5932 1.00097 0.0
C43 C 0.05943 0.57883 0.01236 0.0
C44 C 0.05222 0.57204 0.06702 0.0
C45 C 0.06502 0.55711 0.0716 0.0
C46 C 0.08523 0.54895 0.02173 0.0
C47 C 0.10444 0.55588 0.96898 0.0
C48 C 0.09184 0.57077 0.96438 0.0
C49 C 1.02345 0.63494 0.13437 0.0
C50 C 0.22448 0.641 0.02243 0.0
C51 C 0.96155 0.68573 0.03985 0.0
C52 C 0.89943 0.69914 0.02953 0.0
C53 C 0.90422 0.70679 0.97665 0.0
C54 C 0.86864 0.72107 0.97318 0.0
C55 C 0.82794 0.72781 0.02233 0.0
C56 C 0.81381 0.71983 0.07328 0.0
C57 C 0.84915 0.70556 0.0768 0.0
C58 C 0.98125 0.64401 0.90505 0.0
C59 C 0.76087 0.63808 0.01596 0.0
O60 O 0.06895 0.60286 0.97364 0.0
O61 O 0.94736 0.59853 0.0389 0.0
O62 O 1.00962 0.64072 0.08506 0.0
O63 O 1.02689 0.62105 0.12849 0.0
O64 O 0.17127 0.65321 0.03002 0.0
O65 O 0.17864 0.62826 0.01455 0.0
O66 O 0.91793 0.67542 0.07 0.0
O67 O 1.02402 0.68113 0.99897 0.0
O68 O 0.97874 0.63841 0.95492 0.0
O69 O 0.97974 0.65793 0.91047 0.0
O70 O 0.81446 0.6258 0.01225 0.0
O71 O 0.80627 0.65091 0.02011 0.0
H72 H 1.02872 0.57805 0.10498 0.0
H73 H 0.05129 0.55187 0.11291 0.0
H74 H 0.12102 0.54971 0.93022 0.0
H75 H 0.09841 0.57579 0.92196 0.0
H76 H 0.94143 0.7021 0.93921 0.0
H77 H 0.87895 0.72709 0.93328 0.0
H78 H 0.78162 0.72485 0.11151 0.0
H79 H 0.84393 0.69988 0.1179 0.0
Pr80 Pr 0.09378 0.62147 0.5201 0.0
Pr81 Pr 0.10814 0.65789 0.53072 0.0
C82 C 0.0814 0.59337 0.54461 0.0
C83 C 1.0345 0.57902 0.5332 0.0
C84 C 1.04182 0.5722 0.47857 0.0
C85 C 1.0289 0.55727 0.47407 0.0
C86 C 1.00847 0.54914 0.52396 0.0
C87 C 0.98897 0.55612 0.57662 0.0
C88 C 1.0017 0.57101 0.58116 0.0
C89 C 0.07014 0.63501 0.41087 0.0
C90 C 0.8696 0.64113 0.52289 0.0
C91 C 0.13243 0.68584 0.50516 0.0
C92 C 0.19471 0.69924 0.51517 0.0
C93 C 0.19023 0.70696 0.56796 0.0
C94 C 0.22581 0.72124 0.57115 0.0
C95 C 0.26619 0.72792 0.52182 0.0
C96 C 0.28005 0.71987 0.47095 0.0
C97 C 0.2447 0.7056 0.46772 0.0
C98 C 0.11298 0.64415 0.64011 0.0
C99 C 0.33322 0.63823 0.52915 0.0
O100 O 1.02528 0.60306 0.57185 0.0
O101 O 0.14694 0.59866 0.50665 0.0
O102 O 0.08417 0.64083 0.46015 0.0
O103 O 0.06684 0.62112 0.4168 0.0
O104 O 0.92276 0.65334 0.51527 0.0
O105 O 0.9155 0.62839 0.53079 0.0
O106 O 0.1756 0.67551 0.47489 0.0
O107 O 0.07046 0.68128 0.5463 0.0
O108 O 0.11585 0.63858 0.5902 0.0
O109 O 0.1141 0.65808 0.63476 0.0
O110 O 0.27966 0.62595 0.53281 0.0
O111 O 0.28779 0.65105 0.52506 0.0
H112 H 0.0656 0.57818 0.44062 0.0
H113 H 1.04283 0.55199 0.43282 0.0
H114 H 0.97219 0.54998 0.61541 0.0
H115 H 0.99501 0.57606 0.62354 0.0
H116 H 0.15325 0.70232 0.60554 0.0
H117 H 0.21571 0.72731 0.61098 0.0
H118 H 0.31199 0.72486 0.43259 0.0
H119 H 0.24967 0.69987 0.42668 0.0
Pr120 Pr 0.98679 0.37007 0.514 0.0
Pr121 Pr 0.99821 0.40519 0.52208 0.0
C122 C 0.95662 0.34192 0.53523 0.0
C123 C 0.89513 0.32838 0.5273 0.0
C124 C 0.89973 0.32039 0.47521 0.0
C125 C 0.86654 0.30601 0.47347 0.0
C126 C 0.82826 0.29947 0.52359 0.0
C127 C 0.81492 0.3077 0.57405 0.0
C128 C 0.84814 0.32209 0.57588 0.0
C129 C 1.00331 0.38413 0.40819 0.0
C130 C 0.75844 0.38907 0.51542 0.0
C131 C 1.01085 0.43344 0.49926 0.0
C132 C 0.05753 0.44783 0.51096 0.0
C133 C 0.05023 0.45462 0.56571 0.0
C134 C 0.06318 0.46957 0.57044 0.0
C135 C 0.08355 0.47775 0.52061 0.0
C136 C 0.10285 0.4708 0.46789 0.0
C137 C 0.09009 0.45592 0.46314 0.0
C138 C 1.02819 0.39269 0.63314 0.0
C139 C 0.22263 0.38609 0.52107 0.0
O140 O 0.9201 0.35206 0.56887 0.0
O141 O 1.01158 0.34673 0.49179 0.0
O142 O 0.94873 0.38879 0.44964 0.0
O143 O 1.03994 0.37124 0.41806 0.0
O144 O 0.81161 0.40139 0.51494 0.0
O145 O 0.80495 0.37631 0.51535 0.0
O146 O 0.06603 0.42384 0.47101 0.0
O147 O 0.94629 0.428 0.53729 0.0
O148 O 1.01369 0.38647 0.58503 0.0
O149 O 1.02879 0.40649 0.62526 0.0
O150 O 0.16981 0.37438 0.53593 0.0
O151 O 0.17485 0.39829 0.50588 0.0
H152 H 0.93519 0.32491 0.43694 0.0
H153 H 0.87658 0.29979 0.43402 0.0
H154 H 0.7848 0.30281 0.61306 0.0
H155 H 0.84378 0.32797 0.61659 0.0
H156 H 1.02651 0.44861 0.60357 0.0
H157 H 0.04932 0.47481 0.61178 0.0
H158 H 0.11948 0.47698 0.42919 0.0
H159 H 0.09664 0.45093 0.42064 0.0
Pr160 Pr 0.60699 0.87026 0.03097 0.0
Pr161 Pr 0.59667 0.90519 0.02275 0.0
C162 C 0.63666 0.84195 0.01286 0.0
C163 C 0.69944 0.82846 0.01956 0.0
C164 C 0.69597 0.82034 0.07134 0.0
C165 C 0.729 0.80596 0.07227 0.0
C166 C 0.76617 0.79952 0.02167 0.0
C167 C 0.77861 0.80787 0.97146 0.0
C168 C 0.74543 0.82227 0.9704 0.0
C169 C 0.58675 0.88449 0.13623 0.0
C170 C 0.83602 0.8891 0.0299 0.0
C171 C 0.5836 0.93338 0.04634 0.0
C172 C 0.53698 0.94774 0.03431 0.0
C173 C 0.54472 0.95445 0.97949 0.0
C174 C 0.53145 0.96937 0.97442 0.0
C175 C 0.51044 0.97762 0.02393 0.0
C176 C 0.4908 0.97076 0.07682 0.0
C177 C 0.50374 0.95588 0.0819 0.0
C178 C 0.56698 0.89289 0.91142 0.0
C179 C 0.37164 0.88616 0.02305 0.0
O180 O 0.66552 0.85177 0.97557 0.0
O181 O 0.58974 0.84716 0.0584 0.0
O182 O 0.64461 0.88893 0.0958 0.0
O183 O 0.54618 0.87187 0.12523 0.0
O184 O 0.78312 0.90143 0.03003 0.0
O185 O 0.78915 0.87637 0.03006 0.0
O186 O 0.52712 0.92375 0.07354 0.0
O187 O 0.64973 0.928 1.00896 0.0
O188 O 0.58134 0.88652 0.95921 0.0
O189 O 0.56655 0.90667 0.91975 0.0
O190 O 0.42435 0.87445 1.00813 0.0
O191 O 0.41966 0.89833 0.03848 0.0
H192 H 0.66119 0.82476 0.11003 0.0
H193 H 0.71964 0.79965 0.11154 0.0
H194 H 0.80795 0.80306 0.93206 0.0
H195 H 0.74897 0.82824 0.92989 0.0
H196 H 0.56892 0.94839 0.9418 0.0
H197 H 0.54553 0.97455 0.93303 0.0
H198 H 0.4736 0.97699 0.11534 0.0
H199 H 0.49676 0.95093 0.12442 0.0
Pr200 Pr 0.50113 0.1214 0.02578 0.0
Pr201 Pr 0.48673 0.15782 0.01474 0.0
C202 C 0.51317 0.09329 1.0014 0.0
C203 C 0.55972 0.0789 0.01228 0.0
C204 C 0.55253 0.07201 0.06672 0.0
C205 C 0.56511 0.05707 0.07078 0.0
C206 C 0.58497 0.04899 0.02062 0.0
C207 C 0.60418 0.05603 0.96808 0.0
C208 C 0.59188 0.07093 0.964 0.0
C209 C 0.52481 0.13505 0.1349 0.0
C210 C 0.72528 0.14106 0.02281 0.0
C211 C 0.46227 0.1858 0.03968 0.0
C212 C 0.39984 0.19918 0.02929 0.0
C213 C 0.40422 0.2068 0.97632 0.0
C214 C 0.36864 0.22108 0.97278 0.0
C215 C 0.32836 0.22786 0.02196 0.0
C216 C 0.31447 0.2199 0.07301 0.0
C217 C 0.3498 0.20562 0.07658 0.0
C218 C 0.48202 0.14397 0.90552 0.0
C219 C 0.26166 0.13816 0.01659 0.0
O220 O 0.56888 0.10295 0.97385 0.0
O221 O 0.44846 0.0986 0.03976 0.0
O222 O 0.51073 0.14083 0.08556 0.0
O223 O 0.52814 0.12116 0.12908 0.0
O224 O 0.6721 0.15327 0.03028 0.0
O225 O 0.67942 0.12831 0.01507 0.0
O226 O 0.41917 0.17552 0.07018 0.0
O227 O 0.52437 0.18117 0.99868 0.0
O228 O 0.47901 0.13844 0.95548 0.0
O229 O 0.48092 0.1579 0.91071 0.0
O230 O 0.31522 0.12587 0.01314 0.0
O231 O 0.30708 0.15099 0.02046 0.0
H232 H 0.52916 0.07794 0.1049 0.0
H233 H 0.55138 0.05175 0.11192 0.0
H234 H 0.62052 0.04993 0.92909 0.0
H235 H 0.59842 0.07604 0.92175 0.0
H236 H 0.44119 0.20209 0.93884 0.0
H237 H 0.37873 0.22708 0.9328 0.0
H238 H 0.28257 0.22494 0.11127 0.0
H239 H 0.34485 0.19997 0.11776 0.0
Pr240 Pr 0.59457 0.12141 0.5204 0.0
Pr241 Pr 0.60891 0.15781 0.53164 0.0
C242 C 0.58233 0.09329 0.54442 0.0
C243 C 0.53567 0.07892 0.53322 0.0
C244 C 0.54254 0.07209 0.47858 0.0
C245 C 0.52991 0.05715 0.47415 0.0
C246 C 0.51029 0.04902 0.52413 0.0
C247 C 0.49136 0.056 0.57689 0.0
C248 C 0.50371 0.07089 0.58134 0.0
C249 C 0.57135 0.13506 0.41134 0.0
C250 C 0.37037 0.14106 0.52363 0.0
C251 C 0.63297 0.18576 0.50636 0.0
C252 C 0.69532 0.19914 0.51654 0.0
C253 C 0.69081 0.20683 0.56939 0.0
C254 C 0.7264 0.22111 0.57269 0.0
C255 C 0.7668 0.2278 0.52341 0.0
C256 C 0.78077 0.21978 0.4725 0.0
C257 C 0.74542 0.20551 0.46915 0.0
C258 C 0.61389 0.14399 0.64085 0.0
C259 C 0.83402 0.13817 0.52997 0.0
O260 O 0.52653 0.10294 0.57202 0.0
O261 O 0.64727 0.09861 0.50624 0.0
O262 O 0.58516 0.14083 0.46073 0.0
O263 O 0.56796 0.12117 0.41706 0.0
O264 O 0.42352 0.15328 0.51628 0.0
O265 O 0.41625 0.12831 0.53116 0.0
O266 O 0.67617 0.17546 0.47598 0.0
O267 O 0.57102 0.18117 0.54747 0.0
O268 O 0.61627 0.13844 0.59088 0.0
O269 O 0.6153 0.15792 0.63566 0.0
O270 O 0.78044 0.12588 0.53337 0.0
O271 O 0.7886 0.151 0.52604 0.0
H272 H 0.56573 0.07807 0.44052 0.0
H273 H 0.54342 0.05188 0.43285 0.0
H274 H 0.4752 0.04985 0.61576 0.0
H275 H 0.49739 0.07594 0.62374 0.0
H276 H 0.65374 0.20218 0.60692 0.0
H277 H 0.71623 0.22717 0.61255 0.0
H278 H 0.81273 0.22478 0.43418 0.0
H279 H 0.75041 0.1998 0.42807 0.0
Pr280 Pr 0.48849 0.8703 0.51417 0.0
Pr281 Pr 0.49871 0.90518 0.52259 0.0
C282 C 0.45869 0.84196 0.53158 0.0
C283 C 0.39529 0.82853 0.52479 0.0
C284 C 0.39834 0.82043 0.4729 0.0
C285 C 0.36498 0.80606 0.47182 0.0
C286 C 0.32783 0.79963 0.52239 0.0
C287 C 0.31566 0.80796 0.5727 0.0
C288 C 0.34921 0.82235 0.5739 0.0
C289 C 0.5092 0.88453 0.40905 0.0
C290 C 0.2594 0.88911 0.51549 0.0
C291 C 0.51165 0.93336 0.49876 0.0
C292 C 0.55797 0.94774 0.51069 0.0
C293 C 0.54986 0.95449 0.56543 0.0
C294 C 0.56296 0.96942 0.5704 0.0
C295 C 0.58431 0.97763 0.52086 0.0
C296 C 0.60423 0.97073 0.46808 0.0
C297 C 0.59135 0.95585 0.46308 0.0
C298 C 0.52877 0.89292 0.63389 0.0
C299 C 0.72382 0.88617 0.52231 0.0
O300 O 0.4311 0.85173 0.56946 0.0
O301 O 0.50458 0.84724 0.48586 0.0
O302 O 0.45091 0.88895 0.44937 0.0
O303 O 0.55032 0.87195 0.42015 0.0
O304 O 0.31227 0.90144 0.51547 0.0
O305 O 0.30632 0.87638 0.5152 0.0
O306 O 0.56841 0.92371 0.47176 0.0
O307 O 0.44543 0.928 0.53612 0.0
O308 O 0.51422 0.88653 0.58612 0.0
O309 O 0.52911 0.9067 0.62556 0.0
O310 O 0.6711 0.87445 0.53714 0.0
O311 O 0.67578 0.89833 0.50691 0.0
H312 H 0.43317 0.82484 0.43423 0.0
H313 H 0.37414 0.79977 0.43248 0.0
H314 H 0.28632 0.80315 0.61206 0.0
H315 H 0.34593 0.8283 0.6145 0.0
H316 H 0.52554 0.94846 0.60312 0.0
H317 H 0.54863 0.97463 0.61173 0.0
H318 H 0.62165 0.97693 0.42955 0.0
H319 H 0.59861 0.95087 0.42062 0.0
C320 C 0.54723 0.38839 0.02643 0.0
C321 C 0.45061 0.38921 0.02765 0.0
C322 C 0.66012 0.38719 0.02404 0.0
C323 C 0.75679 0.38661 0.02252 0.0
C324 C 0.43636 0.64036 0.02066 0.0
C325 C 0.33981 0.64137 0.02193 0.0
C326 C 0.54897 0.63864 0.01827 0.0
C327 C 0.64555 0.63767 0.01696 0.0
C328 C 0.65773 0.64048 0.52457 0.0
C329 C 0.75428 0.64149 0.52334 0.0
C330 C 0.54512 0.63878 0.52689 0.0
C331 C 0.44853 0.63782 0.52817 0.0
C332 C 0.54682 0.38842 0.51767 0.0
C333 C 0.64334 0.38936 0.51661 0.0
C334 C 0.43432 0.38678 0.51984 0.0
C335 C 0.33786 0.3858 0.52124 0.0
C336 C 0.0476 0.88843 0.02749 0.0
C337 C 0.9511 0.88935 0.02862 0.0
C338 C 0.16006 0.88682 0.02497 0.0
C339 C 0.25646 0.88587 0.02326 0.0
C340 C 0.04977 0.13871 0.01884 0.0
C341 C 0.14635 0.13775 0.01758 0.0
C342 C 0.93715 0.14042 0.02114 0.0
C343 C 0.8406 0.14142 0.02235 0.0
C344 C 0.15852 0.14043 0.52551 0.0
C345 C 0.25507 0.14143 0.52421 0.0
C346 C 1.04592 0.13873 0.52784 0.0
C347 C 0.94933 0.13776 0.52905 0.0
C348 C 0.93538 0.88683 0.52044 0.0
C349 C 0.83898 0.88587 0.52213 0.0
C350 C 0.04783 0.88843 0.51793 0.0
C351 C 0.14433 0.88935 0.5168 0.0
C352 C 0.05813 0.52073 0.02322 0.0
C353 C 0.07055 0.53359 0.02236 0.0
C354 C 1.03816 0.50579 0.02338 0.0
C355 C 1.0259 0.49293 0.0241 0.0
C356 C 0.05624 0.50597 0.52265 0.0
C357 C 0.06891 0.49312 0.52115 0.0
C358 C 1.0361 0.52092 0.52299 0.0
C359 C 1.02346 0.53378 0.52356 0.0
C360 C 0.53715 1.00584 0.02168 0.0
C361 C 0.52492 0.99298 0.02284 0.0
C362 C 0.55726 0.02079 0.0213 0.0
C363 C 0.56997 0.03364 0.02078 0.0
C364 C 0.53786 0.02081 0.52295 0.0
C365 C 0.52527 0.03366 0.52356 0.0
C366 C 0.55787 1.00586 0.52275 0.0
C367 C 0.56998 0.993 0.52175 0.0
C368 C 0.29269 0.27134 0.01994 0.0
C369 C 0.28145 0.28426 0.01949 0.0
C370 C 0.30166 0.25616 0.02098 0.0
C371 C 0.31345 0.24326 0.02209 0.0
C372 C 0.79156 0.77123 0.02037 0.0
C373 C 0.78059 0.78414 0.01983 0.0
C374 C 0.80066 0.75607 0.02143 0.0
C375 C 0.8127 0.74319 0.02251 0.0
C376 C 0.2933 0.75618 0.52238 0.0
C377 C 0.28136 0.7433 0.52139 0.0
C378 C 0.30233 0.77134 0.52346 0.0
C379 C 0.31336 0.78424 0.52409 0.0
C380 C 0.80266 0.2712 0.5244 0.0
C381 C 0.81386 0.28409 0.52489 0.0
C382 C 0.79359 0.25605 0.52372 0.0
C383 C 0.78173 0.24318 0.52297 0.0
C384 C 0.05869 0.39362 0.24276 0.0
C385 C 0.07779 0.39088 0.19269 0.0
C386 C 1.03193 0.39366 0.30223 0.0
C387 C 1.01206 0.39088 0.35214 0.0
C388 C 1.04112 0.64496 0.24167 0.0
C389 C 1.03201 0.64206 0.19023 0.0
C390 C 0.05195 0.64498 0.30354 0.0
C391 C 0.06128 0.6421 0.35499 0.0
C392 C 1.03194 0.63423 0.80202 0.0
C393 C 1.00847 0.63699 0.85152 0.0
C394 C 0.06238 0.63428 0.74298 0.0
C395 C 0.08585 0.6371 0.69355 0.0
C396 C 1.04103 0.38317 0.74099 0.0
C397 C 1.03439 0.38599 0.68959 0.0
C398 C 0.04889 0.38332 0.80268 0.0
C399 C 0.05686 0.3863 0.85394 0.0
C400 C 0.56087 0.8938 0.24285 0.0
C401 C 0.57975 0.89102 0.19282 0.0
C402 C 0.53499 0.8938 0.30241 0.0
C403 C 0.5161 0.89104 0.35244 0.0
C404 C 0.54302 0.14508 0.2422 0.0
C405 C 0.53367 0.14218 0.19074 0.0
C406 C 0.55381 0.14509 0.30408 0.0
C407 C 0.56287 0.14219 0.35553 0.0
C408 C 0.53306 0.13407 0.80274 0.0
C409 C 0.50938 0.13687 0.85217 0.0
C410 C 0.56355 0.1341 0.74372 0.0
C411 C 0.58688 0.13692 0.69427 0.0
C412 C 0.54434 0.88349 0.74182 0.0
C413 C 0.53655 0.88635 0.69052 0.0
C414 C 0.55242 0.88347 0.80343 0.0
C415 C 0.55977 0.88631 0.85478 0.0
loop_
_geom_bond_atom_site_label_1
_geom_bond_atom_site_label_2
_geom_bond_distance
_geom_bond_site_symmetry_2
_ccdc_geom_bond_type
Pr0 C2 2.880 . S
Pr0 O20 2.562 1_554 S
Pr0 O21 2.490 . S
Pr0 O22 2.695 . S
Pr0 O23 2.512 . S
Pr0 O25 2.437 . S
Pr0 O28 2.436 1_554 S
Pr0 O30 2.438 1_455 S
Pr1 C11 2.880 1_455 S
Pr1 O22 2.436 . S
Pr1 O24 2.438 . S
Pr1 O26 2.562 1_455 S
Pr1 O27 2.490 1_554 S
Pr1 O28 2.695 1_554 S
Pr1 O29 2.512 1_554 S
Pr1 O31 2.437 1_454 S
C2 Pr0 2.880 . S
C2 C3 1.491 . S
C2 O20 1.254 1_554 S
C2 O21 1.225 . S
C3 C2 1.491 . S
C3 C4 1.392 . S
C3 C8 1.356 1_554 S
C4 C3 1.392 . S
C4 C5 1.368 . S
C4 H32 0.929 . S
C5 C4 1.368 . S
C5 C6 1.386 . S
C5 H33 0.929 . S
C6 C5 1.386 . S
C6 C7 1.373 1_554 S
C7 C6 1.373 1_556 S
C7 C8 1.409 . S
C7 H34 0.931 . S
C8 C3 1.356 1_556 S
C8 C7 1.409 . S
C8 H35 0.930 . S
C9 O22 1.270 . S
C9 O23 1.248 . S
C10 O24 1.267 . S
C10 O25 1.278 . S
C11 Pr1 2.880 1_655 S
C11 C12 1.491 . S
C11 O26 1.254 . S
C11 O27 1.225 1_654 S
C12 C11 1.491 . S
C12 C13 1.392 1_554 S
C12 C17 1.356 . S
C13 C12 1.392 1_556 S
C13 C14 1.368 . S
C13 H36 0.929 . S
C14 C13 1.368 . S
C14 C15 1.386 1_556 S
C14 H37 0.929 . S
C15 C14 1.386 1_554 S
C15 C16 1.373 . S
C16 C15 1.373 . S
C16 C17 1.409 . S
C16 H38 0.931 . S
C17 C12 1.356 . S
C17 C16 1.409 . S
C17 H39 0.930 . S
C18 O28 1.270 . S
C18 O29 1.248 . S
C19 O30 1.267 . S
C19 O31 1.278 1_554 S
O20 Pr0 2.562 1_556 S
O20 C2 1.254 1_556 S
O21 Pr0 2.490 . S
O21 C2 1.225 . S
O22 Pr0 2.695 . S
O22 Pr1 2.436 . S
O22 C9 1.270 . S
O23 Pr0 2.512 . S
O23 C9 1.248 . S
O24 Pr1 2.438 . S
O24 C10 1.267 . S
O25 Pr0 2.437 . S
O25 C10 1.278 . S
O26 Pr1 2.562 1_655 S
O26 C11 1.254 . S
O27 Pr1 2.490 1_556 S
O27 C11 1.225 1_456 S
O28 Pr0 2.436 1_556 S
O28 Pr1 2.695 1_556 S
O28 C18 1.270 . S
O29 Pr1 2.512 1_556 S
O29 C18 1.248 . S
O30 Pr0 2.438 1_655 S
O30 C19 1.267 . S
O31 Pr1 2.437 1_656 S
O31 C19 1.278 1_556 S
H32 C4 0.929 . S
H33 C5 0.929 . S
H34 C7 0.931 . S
H35 C8 0.930 . S
H36 C13 0.929 . S
H37 C14 0.929 . S
H38 C16 0.931 . S
H39 C17 0.930 . S
Pr40 C42 2.880 1_655 S
Pr40 O60 2.562 1_654 S
Pr40 O61 2.490 . S
Pr40 O62 2.695 . S
Pr40 O63 2.512 . S
Pr40 O65 2.437 1_655 S
Pr40 O68 2.436 1_554 S
Pr40 O70 2.438 . S
Pr41 C51 2.880 . S
Pr41 O62 2.436 . S
Pr41 O64 2.438 1_655 S
Pr41 O66 2.562 . S
Pr41 O67 2.490 1_554 S
Pr41 O68 2.695 1_554 S
Pr41 O69 2.512 1_554 S
Pr41 O71 2.437 1_554 S
C42 Pr40 2.880 1_455 S
C42 C43 1.491 . S
C42 O60 1.254 1_554 S
C42 O61 1.225 1_455 S
C43 C42 1.491 . S
C43 C44 1.392 . S
C43 C48 1.356 1_554 S
C44 C43 1.392 . S
C44 C45 1.368 . S
C44 H72 0.929 . S
C45 C44 1.368 . S
C45 C46 1.390 . S
C45 H73 0.929 . S
C46 C45 1.390 . S
C46 C47 1.370 1_554 S
C47 C46 1.370 1_556 S
C47 C48 1.409 . S
C47 H74 0.931 . S
C48 C43 1.356 1_556 S
C48 C47 1.409 . S
C48 H75 0.930 . S
C49 O62 1.270 . S
C49 O63 1.248 . S
C50 O64 1.267 . S
C50 O65 1.278 . S
C51 Pr41 2.880 . S
C51 C52 1.491 . S
C51 O66 1.254 . S
C51 O67 1.225 1_554 S
C52 C51 1.491 . S
C52 C53 1.392 1_554 S
C52 C57 1.356 . S
C53 C52 1.392 1_556 S
C53 C54 1.368 . S
C53 H76 0.929 . S
C54 C53 1.368 . S
C54 C55 1.386 1_556 S
C54 H77 0.929 . S
C55 C54 1.386 1_554 S
C55 C56 1.373 . S
C56 C55 1.373 . S
C56 C57 1.409 . S
C56 H78 0.931 . S
C57 C52 1.356 . S
C57 C56 1.409 . S
C57 H79 0.930 . S
C58 O68 1.270 . S
C58 O69 1.248 . S
C59 O70 1.267 . S
C59 O71 1.278 1_554 S
O60 Pr40 2.562 1_456 S
O60 C42 1.254 1_556 S
O61 Pr40 2.490 . S
O61 C42 1.225 1_655 S
O62 Pr40 2.695 . S
O62 Pr41 2.436 . S
O62 C49 1.270 . S
O63 Pr40 2.512 . S
O63 C49 1.248 . S
O64 Pr41 2.438 1_455 S
O64 C50 1.267 . S
O65 Pr40 2.437 1_455 S
O65 C50 1.278 . S
O66 Pr41 2.562 . S
O66 C51 1.254 . S
O67 Pr41 2.490 1_556 S
O67 C51 1.225 1_556 S
O68 Pr40 2.436 1_556 S
O68 Pr41 2.695 1_556 S
O68 C58 1.270 . S
O69 Pr41 2.512 1_556 S
O69 C58 1.248 . S
O70 Pr40 2.438 . S
O70 C59 1.267 . S
O71 Pr41 2.437 1_556 S
O71 C59 1.278 1_556 S
H72 C44 0.929 . S
H73 C45 0.929 . S
H74 C47 0.931 . S
H75 C48 0.930 . S
H76 C53 0.929 . S
H77 C54 0.929 . S
H78 C56 0.931 . S
H79 C57 0.930 . S
Pr80 C82 2.880 1_455 S
Pr80 O100 2.562 1_455 S
Pr80 O101 2.490 . S
Pr80 O102 2.695 . S
Pr80 O103 2.512 . S
Pr80 O105 2.437 1_455 S
Pr80 O108 2.436 . S
Pr80 O110 2.438 . S
Pr81 C91 2.880 . S
Pr81 O102 2.436 . S
Pr81 O104 2.438 1_455 S
Pr81 O106 2.562 . S
Pr81 O107 2.490 . S
Pr81 O108 2.695 . S
Pr81 O109 2.512 . S
Pr81 O111 2.437 . S
C82 Pr80 2.880 1_655 S
C82 C83 1.491 . S
C82 O100 1.254 . S
C82 O101 1.225 1_655 S
C83 C82 1.491 . S
C83 C84 1.392 . S
C83 C88 1.356 . S
C84 C83 1.392 . S
C84 C85 1.368 . S
C84 H112 0.929 . S
C85 C84 1.368 . S
C85 C86 1.386 . S
C85 H113 0.929 . S
C86 C85 1.386 . S
C86 C87 1.373 . S
C87 C86 1.373 . S
C87 C88 1.409 . S
C87 H114 0.931 . S
C88 C83 1.356 . S
C88 C87 1.409 . S
C88 H115 0.930 . S
C89 O102 1.270 . S
C89 O103 1.248 . S
C90 O104 1.267 . S
C90 O105 1.278 . S
C91 Pr81 2.880 . S
C91 C92 1.491 . S
C91 O106 1.254 . S
C91 O107 1.225 . S
C92 C91 1.491 . S
C92 C93 1.392 . S
C92 C97 1.356 . S
C93 C92 1.392 . S
C93 C94 1.368 . S
C93 H116 0.929 . S
C94 C93 1.368 . S
C94 C95 1.386 . S
C94 H117 0.929 . S
C95 C94 1.386 . S
C95 C96 1.373 . S
C96 C95 1.373 . S
C96 C97 1.409 . S
C96 H118 0.931 . S
C97 C92 1.356 . S
C97 C96 1.409 . S
C97 H119 0.930 . S
C98 O108 1.270 . S
C98 O109 1.248 . S
C99 O110 1.267 . S
C99 O111 1.278 . S
O100 Pr80 2.562 1_655 S
O100 C82 1.254 . S
O101 Pr80 2.490 . S
O101 C82 1.225 1_455 S
O102 Pr80 2.695 . S
O102 Pr81 2.436 . S
O102 C89 1.270 . S
O103 Pr80 2.512 . S
O103 C89 1.248 . S
O104 Pr81 2.438 1_655 S
O104 C90 1.267 . S
O105 Pr80 2.437 1_655 S
O105 C90 1.278 . S
O106 Pr81 2.562 . S
O106 C91 1.254 . S
O107 Pr81 2.490 . S
O107 C91 1.225 . S
O108 Pr80 2.436 . S
O108 Pr81 2.695 . S
O108 C98 1.270 . S
O109 Pr81 2.512 . S
O109 C98 1.248 . S
O110 Pr80 2.438 . S
O110 C99 1.267 . S
O111 Pr81 2.437 . S
O111 C99 1.278 . S
H112 C84 0.929 . S
H113 C85 0.929 . S
H114 C87 0.931 . S
H115 C88 0.930 . S
H116 C93 0.929 . S
H117 C94 0.929 . S
H118 C96 0.931 . S
H119 C97 0.930 . S
Pr120 C122 2.880 . S
Pr120 O140 2.562 . S
Pr120 O141 2.490 . S
Pr120 O142 2.695 . S
Pr120 O143 2.512 . S
Pr120 O145 2.437 . S
Pr120 O148 2.436 . S
Pr120 O150 2.438 1_655 S
Pr121 C131 2.880 1_655 S
Pr121 O142 2.436 . S
Pr121 O144 2.438 . S
Pr121 O146 2.562 1_655 S
Pr121 O147 2.490 . S
Pr121 O148 2.695 . S
Pr121 O149 2.512 . S
Pr121 O151 2.437 1_655 S
C122 Pr120 2.880 . S
C122 C123 1.491 . S
C122 O140 1.254 . S
C122 O141 1.225 . S
C123 C122 1.491 . S
C123 C124 1.392 . S
C123 C128 1.356 . S
C124 C123 1.392 . S
C124 C125 1.368 . S
C124 H152 0.929 . S
C125 C124 1.368 . S
C125 C126 1.386 . S
C125 H153 0.929 . S
C126 C125 1.386 . S
C126 C127 1.373 . S
C127 C126 1.373 . S
C127 C128 1.409 . S
C127 H154 0.931 . S
C128 C123 1.356 . S
C128 C127 1.409 . S
C128 H155 0.930 . S
C129 O142 1.270 . S
C129 O143 1.248 . S
C130 O144 1.267 . S
C130 O145 1.278 . S
C131 Pr121 2.880 1_455 S
C131 C132 1.491 . S
C131 O146 1.254 . S
C131 O147 1.225 1_455 S
C132 C131 1.491 . S
C132 C133 1.392 . S
C132 C137 1.356 . S
C133 C132 1.392 . S
C133 C134 1.368 . S
C133 H156 0.929 . S
C134 C133 1.368 . S
C134 C135 1.386 . S
C134 H157 0.929 . S
C135 C134 1.386 . S
C135 C136 1.373 . S
C136 C135 1.373 . S
C136 C137 1.409 . S
C136 H158 0.931 . S
C137 C132 1.356 . S
C137 C136 1.409 . S
C137 H159 0.930 . S
C138 O148 1.270 . S
C138 O149 1.248 . S
C139 O150 1.267 . S
C139 O151 1.278 . S
O140 Pr120 2.562 . S
O140 C122 1.254 . S
O141 Pr120 2.490 . S
O141 C122 1.225 . S
O142 Pr120 2.695 . S
O142 Pr121 2.436 . S
O142 C129 1.270 . S
O143 Pr120 2.512 . S
O143 C129 1.248 . S
O144 Pr121 2.438 . S
O144 C130 1.267 . S
O145 Pr120 2.437 . S
O145 C130 1.278 . S
O146 Pr121 2.562 1_455 S
O146 C131 1.254 . S
O147 Pr121 2.490 . S
O147 C131 1.225 1_655 S
O148 Pr120 2.436 . S
O148 Pr121 2.695 . S
O148 C138 1.270 . S
O149 Pr121 2.512 . S
O149 C138 1.248 . S
O150 Pr120 2.438 1_455 S
O150 C139 1.267 . S
O151 Pr121 2.437 1_455 S
O151 C139 1.278 . S
H152 C124 0.929 . S
H153 C125 0.929 . S
H154 C127 0.931 . S
H155 C128 0.930 . S
H156 C133 0.929 . S
H157 C134 0.929 . S
H158 C136 0.931 . S
H159 C137 0.930 . S
Pr160 C162 2.880 . S
Pr160 O180 2.562 1_554 S
Pr160 O181 2.490 . S
Pr160 O182 2.695 . S
Pr160 O183 2.512 . S
Pr160 O185 2.437 . S
Pr160 O188 2.436 1_554 S
Pr160 O190 2.438 . S
Pr161 C171 2.880 . S
Pr161 O182 2.436 . S
Pr161 O184 2.438 . S
Pr161 O186 2.562 . S
Pr161 O187 2.490 1_554 S
Pr161 O188 2.695 1_554 S
Pr161 O189 2.512 1_554 S
Pr161 O191 2.437 1_554 S
C162 Pr160 2.880 . S
C162 C163 1.491 . S
C162 O180 1.254 1_554 S
C162 O181 1.225 . S
C163 C162 1.491 . S
C163 C164 1.392 . S
C163 C168 1.356 1_554 S
C164 C163 1.392 . S
C164 C165 1.368 . S
C164 H192 0.929 . S
C165 C164 1.368 . S
C165 C166 1.386 . S
C165 H193 0.929 . S
C166 C165 1.386 . S
C166 C167 1.373 1_554 S
C167 C166 1.373 1_556 S
C167 C168 1.409 . S
C167 H194 0.931 . S
C168 C163 1.356 1_556 S
C168 C167 1.409 . S
C168 H195 0.930 . S
C169 O182 1.270 . S
C169 O183 1.248 . S
C170 O184 1.267 . S
C170 O185 1.278 . S
C171 Pr161 2.880 . S
C171 C172 1.491 . S
C171 O186 1.254 . S
C171 O187 1.225 1_554 S
C172 C171 1.491 . S
C172 C173 1.392 1_554 S
C172 C177 1.356 . S
C173 C172 1.392 1_556 S
C173 C174 1.368 . S
C173 H196 0.929 . S
C174 C173 1.368 . S
C174 C175 1.386 1_556 S
C174 H197 0.929 . S
C175 C174 1.386 1_554 S
C175 C176 1.373 . S
C176 C175 1.373 . S
C176 C177 1.409 . S
C176 H198 0.931 . S
C177 C172 1.356 . S
C177 C176 1.409 . S
C177 H199 0.930 . S
C178 O188 1.270 . S
C178 O189 1.248 . S
C179 O190 1.267 . S
C179 O191 1.278 1_554 S
O180 Pr160 2.562 1_556 S
O180 C162 1.254 1_556 S
O181 Pr160 2.490 . S
O181 C162 1.225 . S
O182 Pr160 2.695 . S
O182 Pr161 2.436 . S
O182 C169 1.270 . S
O183 Pr160 2.512 . S
O183 C169 1.248 . S
O184 Pr161 2.438 . S
O184 C170 1.267 . S
O185 Pr160 2.437 . S
O185 C170 1.278 . S
O186 Pr161 2.562 . S
O186 C171 1.254 . S
O187 Pr161 2.490 1_556 S
O187 C171 1.225 1_556 S
O188 Pr160 2.436 1_556 S
O188 Pr161 2.695 1_556 S
O188 C178 1.270 . S
O189 Pr161 2.512 1_556 S
O189 C178 1.248 . S
O190 Pr160 2.438 . S
O190 C179 1.267 . S
O191 Pr161 2.437 1_556 S
O191 C179 1.278 1_556 S
H192 C164 0.929 . S
H193 C165 0.929 . S
H194 C167 0.931 . S
H195 C168 0.930 . S
H196 C173 0.929 . S
H197 C174 0.929 . S
H198 C176 0.931 . S
H199 C177 0.930 . S
Pr200 C202 2.880 . S
Pr200 O220 2.562 1_554 S
Pr200 O221 2.490 . S
Pr200 O222 2.695 . S
Pr200 O223 2.512 . S
Pr200 O225 2.437 . S
Pr200 O228 2.436 1_554 S
Pr200 O230 2.438 . S
Pr201 C211 2.880 . S
Pr201 O222 2.436 . S
Pr201 O224 2.438 . S
Pr201 O226 2.562 . S
Pr201 O227 2.490 1_554 S
Pr201 O228 2.695 1_554 S
Pr201 O229 2.512 1_554 S
Pr201 O231 2.437 1_554 S
C202 Pr200 2.880 . S
C202 C203 1.491 . S
C202 O220 1.254 1_554 S
C202 O221 1.225 . S
C203 C202 1.491 . S
C203 C204 1.392 . S
C203 C208 1.356 1_554 S
C204 C203 1.392 . S
C204 C205 1.368 . S
C204 H232 0.929 . S
C205 C204 1.368 . S
C205 C206 1.391 . S
C205 H233 0.929 . S
C206 C205 1.391 . S
C206 C207 1.369 1_554 S
C207 C206 1.369 1_556 S
C207 C208 1.409 . S
C207 H234 0.931 . S
C208 C203 1.356 1_556 S
C208 C207 1.409 . S
C208 H235 0.930 . S
C209 O222 1.270 . S
C209 O223 1.248 . S
C210 O224 1.267 . S
C210 O225 1.278 . S
C211 Pr201 2.880 . S
C211 C212 1.491 . S
C211 O226 1.254 . S
C211 O227 1.225 1_554 S
C212 C211 1.491 . S
C212 C213 1.392 1_554 S
C212 C217 1.356 . S
C213 C212 1.392 1_556 S
C213 C214 1.368 . S
C213 H236 0.929 . S
C214 C213 1.368 . S
C214 C215 1.386 1_556 S
C214 H237 0.929 . S
C215 C214 1.386 1_554 S
C215 C216 1.373 . S
C216 C215 1.373 . S
C216 C217 1.409 . S
C216 H238 0.931 . S
C217 C212 1.356 . S
C217 C216 1.409 . S
C217 H239 0.930 . S
C218 O228 1.270 . S
C218 O229 1.248 . S
C219 O230 1.267 . S
C219 O231 1.278 1_554 S
O220 Pr200 2.562 1_556 S
O220 C202 1.254 1_556 S
O221 Pr200 2.490 . S
O221 C202 1.225 . S
O222 Pr200 2.695 . S
O222 Pr201 2.436 . S
O222 C209 1.270 . S
O223 Pr200 2.512 . S
O223 C209 1.248 . S
O224 Pr201 2.438 . S
O224 C210 1.267 . S
O225 Pr200 2.437 . S
O225 C210 1.278 . S
O226 Pr201 2.562 . S
O226 C211 1.254 . S
O227 Pr201 2.490 1_556 S
O227 C211 1.225 1_556 S
O228 Pr200 2.436 1_556 S
O228 Pr201 2.695 1_556 S
O228 C218 1.270 . S
O229 Pr201 2.512 1_556 S
O229 C218 1.248 . S
O230 Pr200 2.438 . S
O230 C219 1.267 . S
O231 Pr201 2.437 1_556 S
O231 C219 1.278 1_556 S
H232 C204 0.929 . S
H233 C205 0.929 . S
H234 C207 0.931 . S
H235 C208 0.930 . S
H236 C213 0.929 . S
H237 C214 0.929 . S
H238 C216 0.931 . S
H239 C217 0.930 . S
Pr240 C242 2.880 . S
Pr240 O260 2.562 . S
Pr240 O261 2.490 . S
Pr240 O262 2.695 . S
Pr240 O263 2.512 . S
Pr240 O265 2.437 . S
Pr240 O268 2.436 . S
Pr240 O270 2.438 . S
Pr241 C251 2.880 . S
Pr241 O262 2.436 . S
Pr241 O264 2.438 . S
Pr241 O266 2.562 . S
Pr241 O267 2.490 . S
Pr241 O268 2.695 . S
Pr241 O269 2.512 . S
Pr241 O271 2.437 . S
C242 Pr240 2.880 . S
C242 C243 1.491 . S
C242 O260 1.254 . S
C242 O261 1.225 . S
C243 C242 1.491 . S
C243 C244 1.392 . S
C243 C248 1.356 . S
C244 C243 1.392 . S
C244 C245 1.368 . S
C244 H272 0.929 . S
C245 C244 1.368 . S
C245 C246 1.386 . S
C245 H273 0.929 . S
C246 C245 1.386 . S
C246 C247 1.373 . S
C247 C246 1.373 . S
C247 C248 1.409 . S
C247 H274 0.931 . S
C248 C243 1.356 . S
C248 C247 1.409 . S
C248 H275 0.930 . S
C249 O262 1.270 . S
C249 O263 1.248 . S
C250 O264 1.267 . S
C250 O265 1.278 . S
C251 Pr241 2.880 . S
C251 C252 1.491 . S
C251 O266 1.254 . S
C251 O267 1.225 . S
C252 C251 1.491 . S
C252 C253 1.392 . S
C252 C257 1.356 . S
C253 C252 1.392 . S
C253 C254 1.368 . S
C253 H276 0.929 . S
C254 C253 1.368 . S
C254 C255 1.386 . S
C254 H277 0.929 . S
C255 C254 1.386 . S
C255 C256 1.373 . S
C256 C255 1.373 . S
C256 C257 1.409 . S
C256 H278 0.931 . S
C257 C252 1.356 . S
C257 C256 1.409 . S
C257 H279 0.930 . S
C258 O268 1.270 . S
C258 O269 1.248 . S
C259 O270 1.267 . S
C259 O271 1.278 . S
O260 Pr240 2.562 . S
O260 C242 1.254 . S
O261 Pr240 2.490 . S
O261 C242 1.225 . S
O262 Pr240 2.695 . S
O262 Pr241 2.436 . S
O262 C249 1.270 . S
O263 Pr240 2.512 . S
O263 C249 1.248 . S
O264 Pr241 2.438 . S
O264 C250 1.267 . S
O265 Pr240 2.437 . S
O265 C250 1.278 . S
O266 Pr241 2.562 . S
O266 C251 1.254 . S
O267 Pr241 2.490 . S
O267 C251 1.225 . S
O268 Pr240 2.436 . S
O268 Pr241 2.695 . S
O268 C258 1.270 . S
O269 Pr241 2.512 . S
O269 C258 1.248 . S
O270 Pr240 2.438 . S
O270 C259 1.267 . S
O271 Pr241 2.437 . S
O271 C259 1.278 . S
H272 C244 0.929 . S
H273 C245 0.929 . S
H274 C247 0.931 . S
H275 C248 0.930 . S
H276 C253 0.929 . S
H277 C254 0.929 . S
H278 C256 0.931 . S
H279 C257 0.930 . S
Pr280 C282 2.880 . S
Pr280 O300 2.562 . S
Pr280 O301 2.490 . S
Pr280 O302 2.695 . S
Pr280 O303 2.512 . S
Pr280 O305 2.437 . S
Pr280 O308 2.436 . S
Pr280 O310 2.438 . S
Pr281 C291 2.880 . S
Pr281 O302 2.436 . S
Pr281 O304 2.438 . S
Pr281 O306 2.562 . S
Pr281 O307 2.490 . S
Pr281 O308 2.695 . S
Pr281 O309 2.512 . S
Pr281 O311 2.437 . S
C282 Pr280 2.880 . S
C282 C283 1.491 . S
C282 O300 1.254 . S
C282 O301 1.225 . S
C283 C282 1.491 . S
C283 C284 1.392 . S
C283 C288 1.356 . S
C284 C283 1.392 . S
C284 C285 1.368 . S
C284 H312 0.929 . S
C285 C284 1.368 . S
C285 C286 1.386 . S
C285 H313 0.929 . S
C286 C285 1.386 . S
C286 C287 1.373 . S
C287 C286 1.373 . S
C287 C288 1.409 . S
C287 H314 0.931 . S
C288 C283 1.356 . S
C288 C287 1.409 . S
C288 H315 0.930 . S
C289 O302 1.270 . S
C289 O303 1.248 . S
C290 O304 1.267 . S
C290 O305 1.278 . S
C291 Pr281 2.880 . S
C291 C292 1.491 . S
C291 O306 1.254 . S
C291 O307 1.225 . S
C292 C291 1.491 . S
C292 C293 1.392 . S
C292 C297 1.356 . S
C293 C292 1.392 . S
C293 C294 1.368 . S
C293 H316 0.929 . S
C294 C293 1.368 . S
C294 C295 1.386 . S
C294 H317 0.929 . S
C295 C294 1.386 . S
C295 C296 1.373 . S
C296 C295 1.373 . S
C296 C297 1.409 . S
C296 H318 0.931 . S
C297 C292 1.356 . S
C297 C296 1.409 . S
C297 H319 0.930 . S
C298 O308 1.270 . S
C298 O309 1.248 . S
C299 O310 1.267 . S
C299 O311 1.278 . S
O300 Pr280 2.562 . S
O300 C282 1.254 . S
O301 Pr280 2.490 . S
O301 C282 1.225 . S
O302 Pr280 2.695 . S
O302 Pr281 2.436 . S
O302 C289 1.270 . S
O303 Pr280 2.512 . S
O303 C289 1.248 . S
O304 Pr281 2.438 . S
O304 C290 1.267 . S
O305 Pr280 2.437 . S
O305 C290 1.278 . S
O306 Pr281 2.562 . S
O306 C291 1.254 . S
O307 Pr281 2.490 . S
O307 C291 1.225 . S
O308 Pr280 2.436 . S
O308 Pr281 2.695 . S
O308 C298 1.270 . S
O309 Pr281 2.512 . S
O309 C298 1.248 . S
O310 Pr280 2.438 . S
O310 C299 1.267 . S
O311 Pr281 2.437 . S
O311 C299 1.278 . S
H312 C284 0.929 . S
H313 C285 0.929 . S
H314 C287 0.931 . S
H315 C288 0.930 . S
H316 C293 0.929 . S
H317 C294 0.929 . S
H318 C296 0.931 . S
H319 C297 0.930 . S
C320 C321 1.170 . S
C320 C322 1.380 . S
C321 C320 1.170 . S
C322 C320 1.380 . S
C322 C323 1.170 . S
C323 C322 1.170 . S
C324 C325 1.170 . S
C324 C326 1.380 . S
C325 C324 1.170 . S
C326 C324 1.380 . S
C326 C327 1.170 . S
C327 C326 1.170 . S
C328 C329 1.170 . S
C328 C330 1.380 . S
C329 C328 1.170 . S
C330 C328 1.380 . S
C330 C331 1.170 . S
C331 C330 1.170 . S
C332 C333 1.170 . S
C332 C334 1.380 . S
C333 C332 1.170 . S
C334 C332 1.380 . S
C334 C335 1.170 . S
C335 C334 1.170 . S
C336 C337 1.170 1_455 S
C336 C338 1.380 . S
C337 C336 1.170 1_655 S
C338 C336 1.380 . S
C338 C339 1.170 . S
C339 C338 1.170 . S
C340 C341 1.170 1_655 S
C340 C342 1.380 . S
C341 C340 1.170 1_455 S
C342 C340 1.380 . S
C342 C343 1.170 . S
C343 C342 1.170 . S
C344 C345 1.170 . S
C344 C346 1.380 . S
C345 C344 1.170 . S
C346 C344 1.380 . S
C346 C347 1.170 1_455 S
C347 C346 1.170 1_655 S
C348 C349 1.170 . S
C348 C350 1.380 . S
C349 C348 1.170 . S
C350 C348 1.380 . S
C350 C351 1.170 1_655 S
C351 C350 1.170 1_455 S
C352 C353 1.170 . S
C352 C354 1.380 1_455 S
C353 C352 1.170 . S
C354 C352 1.380 1_655 S
C354 C355 1.170 . S
C355 C354 1.170 . S
C356 C357 1.170 . S
C356 C358 1.380 1_455 S
C357 C356 1.170 . S
C358 C356 1.380 1_655 S
C358 C359 1.170 . S
C359 C358 1.170 . S
C360 C361 1.170 . S
C360 C362 1.380 1_565 S
C361 C360 1.170 . S
C362 C360 1.380 1_545 S
C362 C363 1.170 . S
C363 C362 1.170 . S
C364 C365 1.170 . S
C364 C366 1.380 1_545 S
C365 C364 1.170 . S
C366 C364 1.380 1_565 S
C366 C367 1.170 . S
C367 C366 1.170 . S
C368 C369 1.170 . S
C368 C370 1.380 . S
C369 C368 1.170 . S
C370 C368 1.380 . S
C370 C371 1.170 . S
C371 C370 1.170 . S
C372 C373 1.170 . S
C372 C374 1.380 . S
C373 C372 1.170 . S
C374 C372 1.380 . S
C374 C375 1.170 . S
C375 C374 1.170 . S
C376 C377 1.170 . S
C376 C378 1.380 . S
C377 C376 1.170 . S
C378 C376 1.380 . S
C378 C379 1.170 . S
C379 C378 1.170 . S
C380 C381 1.170 . S
C380 C382 1.380 . S
C381 C380 1.170 . S
C382 C380 1.380 . S
C382 C383 1.170 . S
C383 C382 1.170 . S
C384 C385 1.170 . S
C384 C386 1.380 1_455 S
C385 C384 1.170 . S
C386 C384 1.380 1_655 S
C386 C387 1.170 . S
C387 C386 1.170 . S
C388 C389 1.170 . S
C388 C390 1.380 1_655 S
C389 C388 1.170 . S
C390 C388 1.380 1_455 S
C390 C391 1.170 . S
C391 C390 1.170 . S
C392 C393 1.170 . S
C392 C394 1.380 1_655 S
C393 C392 1.170 . S
C394 C392 1.380 1_455 S
C394 C395 1.170 . S
C395 C394 1.170 . S
C396 C397 1.170 . S
C396 C398 1.380 1_655 S
C397 C396 1.170 . S
C398 C396 1.380 1_455 S
C398 C399 1.170 . S
C399 C398 1.170 . S
C400 C401 1.170 . S
C400 C402 1.380 . S
C401 C400 1.170 . S
C402 C400 1.380 . S
C402 C403 1.170 . S
C403 C402 1.170 . S
C404 C405 1.170 . S
C404 C406 1.380 . S
C405 C404 1.170 . S
C406 C404 1.380 . S
C406 C407 1.170 . S
C407 C406 1.170 . S
C408 C409 1.170 . S
C408 C410 1.380 . S
C409 C408 1.170 . S
C410 C408 1.380 . S
C410 C411 1.170 . S
C411 C410 1.170 . S
C412 C413 1.170 . S
C412 C414 1.380 . S
C413 C412 1.170 . S
C414 C412 1.380 . S
C414 C415 1.170 . S
C415 C414 1.170 . S
C321 C10 2.286 . S
C323 C19 2.259 . S
C325 C50 2.286 . S
C327 C59 2.265 . S
C329 C90 2.263 . S
C331 C99 2.286 . S
C333 C130 2.265 . S
C335 C139 2.286 . S
C337 C170 2.264 . S
C339 C179 2.286 . S
C341 C219 2.281 . S
C343 C210 2.273 . S
C345 C250 2.270 . S
C347 C259 2.268 . S
C349 C299 2.283 . S
C351 C290 2.269 . S
C353 C46 2.834 . S
C355 C15 2.823 . S
C357 C135 2.814 . S
C359 C86 2.845 . S
C361 C175 2.834 . S
C363 C206 2.840 . S
C365 C246 2.816 . S
C367 C295 2.850 . S
C369 C6 1.985 . S
C371 C215 1.965 . S
C373 C166 1.966 . S
C375 C55 1.985 . S
C377 C95 1.973 . S
C379 C286 1.956 . S
C381 C126 1.970 . S
C383 C255 1.982 . S
C385 C9 1.569 . S
C387 C129 1.595 . S
C389 C49 1.474 . S
C391 C89 1.475 . S
C393 C58 1.550 . S
C395 C98 1.551 . S
C397 C138 1.508 . S
C399 C18 1.491 . S
C401 C169 1.590 . S
C403 C289 1.580 . S
C405 C209 1.502 . S
C407 C249 1.501 . S
C409 C218 1.583 . S
C411 C258 1.594 . S
C413 C298 1.472 . S
C415 C178 1.487 . S
