# Generated by pormake.
# Topology lhb, (8)-cn, num edge types: 1
# Building blocks:
#     Node 0, Type 0, BuildingBlock: GIZVER_clean_sbu_0, # of connection points: 8
#     Node 1, Type 0, BuildingBlock: GIZVER_clean_sbu_0, # of connection points: 8
#     Node 2, Type 0, BuildingBlock: GIZVER_clean_sbu_0, # of connection points: 8
#     Node 3, Type 0, BuildingBlock: GIZVER_clean_sbu_0, # of connection points: 8
#     Node 4, Type 0, BuildingBlock: GIZVER_clean_sbu_0, # of connection points: 8
#     Node 5, Type 0, BuildingBlock: GIZVER_clean_sbu_0, # of connection points: 8
#     Node 6, Type 0, BuildingBlock: GIZVER_clean_sbu_0, # of connection points: 8
#     Node 7, Type 0, BuildingBlock: GIZVER_clean_sbu_0, # of connection points: 8
#     Edge 8, Type (0, 0), BuildingBlock: MIFKUJ_clean_linker_0, # of connection points: 2
#     Edge 9, Type (0, 0), BuildingBlock: MIFKUJ_clean_linker_0, # of connection points: 2
#     Edge 10, Type (0, 0), BuildingBlock: MIFKUJ_clean_linker_0, # of connection points: 2
#     Edge 11, Type (0, 0), BuildingBlock: MIFKUJ_clean_linker_0, # of connection points: 2
#     Edge 12, Type (0, 0), BuildingBlock: MIFKUJ_clean_linker_0, # of connection points: 2
#     Edge 13, Type (0, 0), BuildingBlock: MIFKUJ_clean_linker_0, # of connection points: 2
#     Edge 14, Type (0, 0), BuildingBlock: MIFKUJ_clean_linker_0, # of connection points: 2
#     Edge 15, Type (0, 0), BuildingBlock: MIFKUJ_clean_linker_0, # of connection points: 2
#     Edge 16, Type (0, 0), BuildingBlock: MIFKUJ_clean_linker_0, # of connection points: 2
#     Edge 17, Type (0, 0), BuildingBlock: MIFKUJ_clean_linker_0, # of connection points: 2
#     Edge 18, Type (0, 0), BuildingBlock: MIFKUJ_clean_linker_0, # of connection points: 2
#     Edge 19, Type (0, 0), BuildingBlock: MIFKUJ_clean_linker_0, # of connection points: 2
#     Edge 20, Type (0, 0), BuildingBlock: MIFKUJ_clean_linker_0, # of connection points: 2
#     Edge 21, Type (0, 0), BuildingBlock: MIFKUJ_clean_linker_0, # of connection points: 2
#     Edge 22, Type (0, 0), BuildingBlock: MIFKUJ_clean_linker_0, # of connection points: 2
#     Edge 23, Type (0, 0), BuildingBlock: MIFKUJ_clean_linker_0, # of connection points: 2
#     Edge 24, Type (0, 0), BuildingBlock: MIFKUJ_clean_linker_0, # of connection points: 2
#     Edge 25, Type (0, 0), BuildingBlock: MIFKUJ_clean_linker_0, # of connection points: 2
#     Edge 26, Type (0, 0), BuildingBlock: MIFKUJ_clean_linker_0, # of connection points: 2
#     Edge 27, Type (0, 0), BuildingBlock: MIFKUJ_clean_linker_0, # of connection points: 2
#     Edge 28, Type (0, 0), BuildingBlock: MIFKUJ_clean_linker_0, # of connection points: 2
#     Edge 29, Type (0, 0), BuildingBlock: MIFKUJ_clean_linker_0, # of connection points: 2
#     Edge 30, Type (0, 0), BuildingBlock: MIFKUJ_clean_linker_0, # of connection points: 2
#     Edge 31, Type (0, 0), BuildingBlock: MIFKUJ_clean_linker_0, # of connection points: 2
#     Edge 32, Type (0, 0), BuildingBlock: MIFKUJ_clean_linker_0, # of connection points: 2
#     Edge 33, Type (0, 0), BuildingBlock: MIFKUJ_clean_linker_0, # of connection points: 2
#     Edge 34, Type (0, 0), BuildingBlock: MIFKUJ_clean_linker_0, # of connection points: 2
#     Edge 35, Type (0, 0), BuildingBlock: MIFKUJ_clean_linker_0, # of connection points: 2
#     Edge 36, Type (0, 0), BuildingBlock: MIFKUJ_clean_linker_0, # of connection points: 2
#     Edge 37, Type (0, 0), BuildingBlock: MIFKUJ_clean_linker_0, # of connection points: 2
#     Edge 38, Type (0, 0), BuildingBlock: MIFKUJ_clean_linker_0, # of connection points: 2
#     Edge 39, Type (0, 0), BuildingBlock: MIFKUJ_clean_linker_0, # of connection points: 2
# Relax obj value: 0.107
# Max RMSD: 0.184
# Mean RMSD: 0.184
data_MOF--net-lhb--node1-GIZVER_clean_sbu_0--edge1-MIFKUJ_clean_linker_0
_symmetry_space_group_name_H-M    P1
_symmetry_Int_Tables_number       1
_symmetry_cell_setting            triclinic
loop_
_symmetry_equiv_pos_as_xyz
'x, y, z'
_cell_length_a     31.270383
_cell_length_b     19.237286
_cell_length_c     93.230068
_cell_angle_alpha  98.709689
_cell_angle_beta   90.011415
_cell_angle_gamma 90.143521
loop_
_atom_site_label
_atom_site_type_symbol
_atom_site_fract_x
_atom_site_fract_y
_atom_site_fract_z
_atom_type_partial_charge
Co0 Co 0.01618 0.01524 0.98634 0.0
Co1 Co 0.93953 0.04823 0.99297 0.0
Co2 Co 0.9883 1.00969 1.02267 0.0
O3 O 0.97661 0.9881 1.00082 0.0
H4 H 0.96739 0.93993 0.99812 0.0
O5 O -0.00174 0.03256 0.04453 0.0
Co6 Co 0.9669 0.9844 0.05872 0.0
Co7 Co 0.04536 0.98304 0.04955 0.0
H8 H 0.00189 0.08233 0.04781 0.0
O9 O 0.90626 0.02189 0.97636 0.0
O10 O 0.97151 0.07198 0.97732 0.0
O11 O 0.92811 0.13382 1.00567 0.0
O12 O 0.96498 0.10945 0.02486 0.0
O13 O 0.9327 0.96818 0.02691 0.0
O14 O 0.9385 0.94406 0.07189 0.0
O15 O 0.96712 0.05228 0.07542 0.0
O16 O 0.95827 0.90703 0.04357 0.0
O17 O 0.01251 0.91047 1.02044 0.0
O18 O 0.06472 0.90333 0.03636 0.0
O19 O 0.02328 0.95047 0.06579 0.0
O20 O 0.07865 0.02563 0.06407 0.0
C21 C 0.03756 0.97017 0.96588 0.0
C22 C 0.04907 0.09934 1.01183 0.0
C23 C 0.94378 0.15203 1.01824 0.0
C24 C 0.93613 0.0538 0.97016 0.0
C25 C 0.94564 1.00231 0.08049 0.0
C26 C 0.9331 0.91262 0.03294 0.0
C27 C 0.04213 0.87588 0.02569 0.0
C28 C 0.05415 0.99154 0.07188 0.0
O29 O 0.05256 0.03025 0.97224 0.0
O30 O 0.00743 0.93923 0.97235 0.0
O31 O 0.04507 0.04822 1.01891 0.0
O32 O 0.03213 0.09757 0.99934 0.0
Co33 Co 0.29058 0.21656 0.31077 0.0
Co34 Co 0.21216 0.2135 0.30075 0.0
Co35 Co 0.26882 0.23423 0.27392 0.0
O36 O 0.26001 0.26332 0.29596 0.0
H37 H 0.25643 0.31339 0.2988 0.0
O38 O 0.27958 0.20689 0.25202 0.0
Co39 Co 0.2421 0.23696 0.2373 0.0
Co40 Co 0.32028 0.26296 0.24439 0.0
H41 H 0.28717 0.15785 0.24962 0.0
O42 O 0.17846 0.25502 0.31529 0.0
O43 O 0.2338 0.18014 0.3169 0.0
O44 O 0.19286 0.13265 0.28768 0.0
O45 O 0.24952 0.13321 0.27332 0.0
O46 O 0.20992 0.26183 0.27013 0.0
O47 O 0.20771 0.256 0.22308 0.0
O48 O 0.25291 0.16493 0.22258 0.0
O49 O 0.22385 0.31335 0.25093 0.0
O50 O 0.28758 0.33549 0.2743 0.0
O51 O 0.33807 0.34367 0.25766 0.0
O52 O 0.2879 0.29781 0.23 0.0
O53 O 0.34985 0.2389 0.22671 0.0
C54 C 0.31004 0.23219 0.33292 0.0
C55 C 0.33196 0.15749 0.28666 0.0
C56 C 0.2181 0.10128 0.27823 0.0
C57 C 0.20258 0.22009 0.32301 0.0
C58 C 0.22344 0.19772 0.21622 0.0
C59 C 0.19844 0.29977 0.26079 0.0
C60 C 0.31575 0.3707 0.26844 0.0
C61 C 0.32133 0.27864 0.22192 0.0
O62 O 0.31704 0.17554 0.32395 0.0
O63 O 0.28868 0.28295 0.32811 0.0
O64 O 0.3262 0.2032 0.27822 0.0
O65 O 0.30232 0.14318 0.2953 0.0
Co66 Co 0.7914 0.76482 0.3115 0.0
Co67 Co 0.71464 0.76942 0.30166 0.0
Co68 Co 0.7731 0.79632 0.27533 0.0
O69 O 0.76332 0.81972 0.29759 0.0
H70 H 0.76221 0.86939 0.30124 0.0
O71 O 0.78391 0.77218 0.25333 0.0
Co72 Co 0.74202 0.79338 0.23872 0.0
Co73 Co 0.81704 0.83323 0.24462 0.0
H74 H 0.79495 0.725 0.25088 0.0
O75 O 0.67894 0.81098 0.31535 0.0
O76 O 0.73257 0.73468 0.31821 0.0
O77 O 0.69639 0.68825 0.28835 0.0
O78 O 0.74984 0.69706 0.27313 0.0
O79 O 0.71654 0.83383 0.27141 0.0
O80 O 0.70329 0.80271 0.22484 0.0
O81 O 0.74986 0.71439 0.2252 0.0
O82 O 0.7268 0.87823 0.25105 0.0
O83 O 0.79725 0.89616 0.27735 0.0
O84 O 0.82897 0.91892 0.25701 0.0
O85 O 0.78493 0.84829 0.2283 0.0
O86 O 0.8523 0.80614 0.22891 0.0
C87 C 0.81196 0.76964 0.33334 0.0
C88 C 0.8303 0.70844 0.28769 0.0
C89 C 0.72053 0.6611 0.27813 0.0
C90 C 0.70002 0.77427 0.32359 0.0
C91 C 0.71815 0.74204 0.21883 0.0
C92 C 0.71307 0.88392 0.26404 0.0
C93 C 0.81748 0.9375 0.27009 0.0
C94 C 0.82185 0.83244 0.2219 0.0
O95 O 0.81657 0.71547 0.32349 0.0
O96 O 0.79389 0.82595 0.3295 0.0
O97 O 0.82844 0.75659 0.27964 0.0
O98 O 0.7982 0.69517 0.2954 0.0
Co99 Co 0.01191 0.5025 0.48581 0.0
Co100 Co 0.93396 0.53489 0.49268 0.0
Co101 Co 0.98267 0.50712 0.52249 0.0
O102 O 0.97291 0.47867 0.50072 0.0
H103 H 0.96372 0.43023 0.49853 0.0
O104 O 0.99153 0.53674 0.54459 0.0
Co105 Co 0.9605 0.49074 0.55953 0.0
Co106 Co 0.03778 0.48206 0.54874 0.0
H107 H -0.00307 0.58643 0.54739 0.0
O108 O 0.90592 0.51051 0.47468 0.0
O109 O 0.96871 0.56715 0.47857 0.0
O110 O 0.91603 0.61582 0.50584 0.0
O111 O 0.9671 0.60841 0.52232 0.0
O112 O 0.92369 0.48208 0.52674 0.0
O113 O 0.93284 0.44916 0.57264 0.0
O114 O 0.96527 0.55395 0.57707 0.0
O115 O 0.9469 0.42206 0.54375 0.0
O116 O -0.00168 0.40549 0.52199 0.0
O117 O 0.05628 0.40132 0.53543 0.0
O118 O 0.01725 0.45108 0.5652 0.0
O119 O 0.07399 0.52192 0.56215 0.0
C120 C 0.02782 0.45863 0.46471 0.0
C121 C 0.05629 0.56876 0.51004 0.0
C122 C 0.93905 0.6434 0.51643 0.0
C123 C 0.93608 0.54812 0.47011 0.0
C124 C 0.9429 0.50398 0.58183 0.0
C125 C 0.91613 0.44306 0.53638 0.0
C126 C 0.0301 0.37209 0.52606 0.0
C127 C 0.05034 0.48966 0.57056 0.0
O128 O 0.04667 0.5153 0.47116 0.0
O129 O -0.0028 0.43057 0.47152 0.0
O130 O 0.04274 0.53063 0.51906 0.0
O131 O 0.03469 0.57859 0.49895 0.0
Co132 Co 0.28948 0.71946 0.80997 0.0
Co133 Co 0.21025 0.71868 0.80047 0.0
Co134 Co 0.26481 0.73703 0.77318 0.0
O135 O 0.25863 0.76772 0.7954 0.0
H136 H 0.25569 0.81794 0.79819 0.0
O137 O 0.27135 0.70784 0.7512 0.0
Co138 Co 0.22928 0.73214 0.73708 0.0
Co139 Co 0.30869 0.76172 0.74173 0.0
H140 H 0.27945 0.65895 0.74896 0.0
O141 O 0.17761 0.76165 0.81516 0.0
O142 O 0.23259 0.68577 0.81649 0.0
O143 O 0.19057 0.63559 0.78809 0.0
O144 O 0.24554 0.63642 0.7731 0.0
O145 O 0.20556 0.76636 0.7705 0.0
O146 O 0.19145 0.74477 0.72325 0.0
O147 O 0.23944 0.65775 0.72276 0.0
O148 O 0.21142 0.81235 0.75016 0.0
O149 O 0.28486 0.83798 0.77291 0.0
O150 O 0.32785 0.8445 0.75387 0.0
O151 O 0.27124 0.79254 0.72822 0.0
O152 O 0.33279 0.73499 0.723 0.0
C153 C 0.30946 0.73198 0.83207 0.0
C154 C 0.32876 0.66393 0.78628 0.0
C155 C 0.21549 0.60397 0.77858 0.0
C156 C 0.20227 0.72709 0.82278 0.0
C157 C 0.2081 0.6869 0.71652 0.0
C158 C 0.1954 0.81228 0.7627 0.0
C159 C 0.31038 0.87203 0.76567 0.0
C160 C 0.30156 0.77187 0.71895 0.0
O161 O 0.31675 0.67592 0.82286 0.0
O162 O 0.2891 0.78405 0.82739 0.0
O163 O 0.32297 0.70533 0.77692 0.0
O164 O 0.29785 0.64848 0.79422 0.0
Co165 Co 0.78665 0.27788 0.81391 0.0
Co166 Co 0.70993 0.28463 0.80327 0.0
Co167 Co 0.77218 0.29916 0.77692 0.0
O168 O 0.76065 0.3285 0.79888 0.0
H169 H 0.76 0.37878 0.80187 0.0
O170 O 0.78537 0.27094 0.75519 0.0
Co171 Co 0.74946 0.29451 0.73914 0.0
Co172 Co 0.82695 0.32559 0.74736 0.0
H173 H 0.79387 0.22216 0.75325 0.0
O174 O 0.67709 0.33005 0.81804 0.0
O175 O 0.72803 0.2485 0.81966 0.0
O176 O 0.69078 0.20309 0.79017 0.0
O177 O 0.74759 0.20097 0.77573 0.0
O178 O 0.71633 0.33627 0.77203 0.0
O179 O 0.71807 0.3071 0.72355 0.0
O180 O 0.76344 0.21871 0.72558 0.0
O181 O 0.72897 0.37642 0.75122 0.0
O182 O 0.79554 0.39863 0.77795 0.0
O183 O 0.83831 0.41295 0.75935 0.0
O184 O 0.79574 0.35241 0.73188 0.0
O185 O 0.85864 0.29674 0.73002 0.0
C186 C 0.80311 0.29109 0.83612 0.0
C187 C 0.82667 0.21322 0.79101 0.0
C188 C 0.7155 0.17074 0.78063 0.0
C189 C 0.69829 0.29125 0.82576 0.0
C190 C 0.73647 0.2489 0.71774 0.0
C191 C 0.71276 0.38333 0.76389 0.0
C192 C 0.81906 0.43692 0.77103 0.0
C193 C 0.82917 0.33057 0.72417 0.0
O194 O 0.80941 0.23297 0.82746 0.0
O195 O 0.78648 0.34458 0.8308 0.0
O196 O 0.82682 0.25879 0.78231 0.0
O197 O 0.79433 0.20402 0.79888 0.0
Co198 Co 0.51469 1.01405 0.49017 0.0
Co199 Co 0.43894 0.0518 0.49634 0.0
Co200 Co 0.48319 0.02235 0.52752 0.0
O201 O 0.47438 0.99501 0.5054 0.0
H202 H 0.46401 0.94718 0.50327 0.0
O203 O 0.48968 0.0486 0.54972 0.0
Co204 Co 0.46277 0.99153 0.56348 0.0
Co205 Co 0.53946 1.00546 0.55482 0.0
H206 H 0.48991 0.09865 0.55308 0.0
O207 O 0.40593 0.02151 0.48003 0.0
O208 O 0.47147 0.07103 0.48051 0.0
O209 O 0.42694 0.13857 0.50786 0.0
O210 O 0.45633 0.12072 0.52888 0.0
O211 O 0.42949 0.97388 0.53144 0.0
O212 O 0.43874 0.94024 0.57537 0.0
O213 O 0.45326 0.05469 0.581 0.0
O214 O 0.46187 0.91767 0.54777 0.0
O215 O 0.51097 0.9258 0.52582 0.0
O216 O 0.56125 0.92387 0.54253 0.0
O217 O 0.52214 0.97417 0.57176 0.0
O218 O 0.57189 0.05665 0.56822 0.0
C219 C 0.53406 0.96343 0.46973 0.0
C220 C 0.54616 0.109 0.51546 0.0
C221 C 0.43796 0.16069 0.52083 0.0
C222 C 0.43582 0.05203 0.47353 0.0
C223 C 0.43706 0.99665 0.58477 0.0
C224 C 0.43151 0.92205 0.53866 0.0
C225 C 0.5402 0.89346 0.53176 0.0
C226 C 0.5514 0.02141 0.5769 0.0
O227 O 0.55172 0.02199 0.4757 0.0
O228 O 0.50303 0.93652 0.47658 0.0
O229 O 0.5386 0.06744 0.52455 0.0
O230 O 0.53353 0.09714 0.5023 0.0
Co231 Co 0.5023 0.52653 0.99106 0.0
Co232 Co 0.42428 0.5574 0.99779 0.0
Co233 Co 0.47407 0.53143 0.02776 0.0
O234 O 0.46304 0.50053 1.00585 0.0
H235 H 0.45432 0.45182 1.00372 0.0
O236 O 0.48387 0.56199 0.04992 0.0
Co237 Co 0.45331 0.51683 0.06536 0.0
Co238 Co 0.53093 0.5078 0.05404 0.0
H239 H 0.48919 0.61177 0.05258 0.0
O240 O 0.39294 0.53199 0.98065 0.0
O241 O 0.45751 0.58455 0.98267 0.0
O242 O 0.40863 0.64062 1.01056 0.0
O243 O 0.45834 0.63307 0.0275 0.0
O244 O 0.41529 0.50764 0.03235 0.0
O245 O 0.4274 0.47539 0.07878 0.0
O246 O 0.46079 0.57944 0.08289 0.0
O247 O 0.43671 0.44859 0.04975 0.0
O248 O 0.48959 0.42993 0.02761 0.0
O249 O 0.54897 0.42751 0.04048 0.0
O250 O 0.5102 0.47517 0.07038 0.0
O251 O 0.567 0.54643 0.06799 0.0
C252 C 0.52282 0.48465 0.9702 0.0
C253 C 0.54575 0.59084 1.01405 0.0
C254 C 0.43088 0.66814 1.02134 0.0
C255 C 0.42349 0.5644 0.97492 0.0
C256 C 0.44043 0.52823 0.08796 0.0
C257 C 0.40656 0.4711 0.04231 0.0
C258 C 0.52216 0.39743 0.03141 0.0
C259 C 0.54291 0.51346 0.07614 0.0
O260 O 0.53814 0.54315 0.9771 0.0
O261 O 0.49267 0.45229 0.97642 0.0
O262 O 0.53416 0.55448 0.0237 0.0
O263 O 0.51938 0.60456 1.00448 0.0
H264 H 0.06104 0.11751 0.08864 0.0
H265 H 0.08616 0.144 0.1136 0.0
H266 H 0.09417 0.92207 0.11588 0.0
H267 H 0.06579 0.89552 0.09094 0.0
H268 H 0.07472 0.9872 0.14161 0.0
H269 H 0.18403 0.02875 0.10789 0.0
H270 H 0.21546 0.07865 0.08741 0.0
H271 H 0.19593 0.28749 0.11012 0.0
H272 H 0.16373 0.23893 0.13064 0.0
H273 H 0.22632 0.06198 0.20146 0.0
H274 H 0.19526 0.01767 0.17752 0.0
H275 H 0.15325 0.22703 0.17349 0.0
H276 H 0.18332 0.27113 0.19733 0.0
H277 H 0.19469 0.15819 0.14852 0.0
H278 H 0.07846 0.11394 0.18066 0.0
H279 H 0.04579 0.06326 0.20087 0.0
H280 H 0.0832 0.8563 0.18098 0.0
H281 H 0.11679 0.90611 0.16081 0.0
C282 C 0.06729 0.07427 0.09456 0.0
C283 C 0.0616 1.00445 0.08781 0.0
C284 C 0.08222 0.08945 0.10882 0.0
C285 C 0.09403 0.03521 0.11656 0.0
C286 C 0.08593 0.96511 0.11015 0.0
C287 C 0.06959 0.94983 0.0959 0.0
C288 C 0.11645 0.05249 0.13095 0.0
C289 C 0.10154 0.02336 0.14298 0.0
C290 C 0.15125 0.10078 0.13302 0.0
C291 C 0.17118 0.13013 0.12077 0.0
C292 C 0.18624 0.08532 0.10849 0.0
C293 C 0.20417 0.11339 0.09687 0.0
C294 C 0.20757 0.18621 0.09744 0.0
C295 C 0.19319 0.23112 0.10967 0.0
C296 C 0.17514 0.20334 0.12131 0.0
C297 C 0.21065 0.09855 0.19542 0.0
C298 C 0.20738 0.17017 0.20135 0.0
C299 C 0.19262 0.07307 0.18179 0.0
C300 C 0.17157 0.11888 0.17369 0.0
C301 C 0.16915 0.19051 0.17949 0.0
C302 C 0.18642 0.21568 0.19316 0.0
C303 C 0.15267 0.09329 0.15908 0.0
C304 C 0.16833 0.12102 0.14702 0.0
C305 C 0.11909 0.04325 0.15697 0.0
C306 C 0.10012 1.01364 0.16927 0.0
C307 C 0.08 0.0577 0.18068 0.0
C308 C 0.0613 0.02915 0.19211 0.0
C309 C 0.0624 0.9566 0.19221 0.0
C310 C 0.08233 0.91247 0.18089 0.0
C311 C 0.10117 0.94081 0.16946 0.0
H312 H 0.04781 0.93457 0.20104 0.0
H313 H 0.22142 0.20786 0.08843 0.0
H314 H 0.98775 0.0498 0.10645 0.0
H315 H 0.96639 0.02896 0.13087 0.0
H316 H 0.84664 0.9418 0.11365 0.0
H317 H 0.86862 0.95987 0.0893 0.0
H318 H 0.83701 0.02825 0.14097 0.0
H319 H 0.92196 0.83577 0.11832 0.0
H320 H 0.98603 0.78069 0.10617 0.0
H321 H 0.06157 0.85407 0.14385 0.0
H322 H -0.00174 0.91213 0.15611 0.0
H323 H 0.76757 0.85002 0.19913 0.0
H324 H 0.78646 0.88508 0.17569 0.0
H325 H 0.91866 0.90542 0.18901 0.0
H326 H 0.90024 0.86575 0.21182 0.0
H327 H 0.92262 0.85678 0.16342 0.0
H328 H 0.83938 0.05743 0.18564 0.0
H329 H 0.77625 0.12013 0.197 0.0
H330 H 0.69872 0.0332 0.16066 0.0
H331 H 0.76147 0.97094 0.14896 0.0
C332 C 0.95659 0.02766 0.10791 0.0
C333 C 0.92996 1.00687 0.09583 0.0
C334 C 0.94439 0.01525 0.12191 0.0
C335 C 0.9048 0.98322 0.12423 0.0
C336 C 0.87722 0.96658 0.1123 0.0
C337 C 0.88985 0.97725 0.09833 0.0
C338 C 0.89287 0.96269 0.13873 0.0
C339 C 0.85569 0.99058 0.14586 0.0
C340 C 0.9172 0.91403 0.14532 0.0
C341 C 0.95541 0.87918 0.13806 0.0
C342 C 0.95234 0.84109 0.12396 0.0
C343 C 0.98854 0.80937 0.11706 0.0
C344 C 0.0279 0.81429 0.12422 0.0
C345 C 0.03109 0.8508 0.13832 0.0
C346 C 0.99509 0.88331 0.14524 0.0
C347 C 0.80065 0.86191 0.19703 0.0
C348 C 0.83226 0.85463 0.20746 0.0
C349 C 0.81155 0.88296 0.18359 0.0
C350 C 0.85421 0.89997 0.18036 0.0
C351 C 0.88556 0.89277 0.19089 0.0
C352 C 0.87488 0.86999 0.20408 0.0
C353 C 0.86683 0.92343 0.16605 0.0
C354 C 0.90409 0.89545 0.15878 0.0
C355 C 0.84276 0.97262 0.1594 0.0
C356 C 0.80496 1.00903 0.16651 0.0
C357 C 0.8088 0.05139 0.18013 0.0
C358 C 0.77313 0.08692 0.18661 0.0
C359 C 0.73346 0.08012 0.17963 0.0
C360 C 0.72943 0.03825 0.16608 0.0
C361 C 0.76506 1.00313 0.15948 0.0
H362 H 0.7059 0.10757 0.1847 0.0
H363 H 0.05589 0.78961 0.11887 0.0
H364 H 0.0726 0.5225 0.44521 0.0
H365 H 0.09954 0.47092 0.4214 0.0
H366 H 0.04273 0.27175 0.4265 0.0
H367 H 0.01509 0.32365 0.45045 0.0
H368 H 0.12533 0.25496 0.41622 0.0
H369 H -0.00073 0.36116 0.40313 0.0
H370 H 0.94355 0.45045 0.40193 0.0
H371 H 0.0345 0.58266 0.38448 0.0
H372 H 0.09106 0.49454 0.38576 0.0
H373 H 0.17376 0.12503 0.34018 0.0
H374 H 0.14219 0.15416 0.36454 0.0
H375 H 0.17907 0.37113 0.36553 0.0
H376 H 0.20865 0.34242 0.34113 0.0
H377 H 0.09889 0.36598 0.37241 0.0
H378 H 0.22636 0.24669 0.38701 0.0
H379 H 0.27334 0.14298 0.38589 0.0
H380 H 0.16913 0.02163 0.39904 0.0
H381 H 0.12133 0.12401 0.4 0.0
C382 C 0.06552 0.46779 0.44127 0.0
C383 C 0.04162 0.42729 0.4498 0.0
C384 C 0.08092 0.43832 0.42759 0.0
C385 C 0.07322 0.36731 0.42205 0.0
C386 C 0.04922 0.3266 0.4305 0.0
C387 C 0.03319 0.35646 0.44416 0.0
C388 C 0.09105 0.33627 0.40757 0.0
C389 C 0.11915 0.27875 0.4066 0.0
C390 C 0.08293 0.36664 0.39492 0.0
C391 C 0.04955 0.42132 0.39464 0.0
C392 C 0.00758 0.40961 0.3992 0.0
C393 C 0.97578 0.45989 0.39844 0.0
C394 C 0.98542 0.52194 0.39304 0.0
C395 C 0.02704 0.5343 0.38857 0.0
C396 C 0.059 0.48421 0.38931 0.0
C397 C 0.17635 0.17833 0.34586 0.0
C398 C 0.19445 0.23121 0.33888 0.0
C399 C 0.15806 0.19521 0.35978 0.0
C400 C 0.15809 0.26517 0.36704 0.0
C401 C 0.1782 0.31694 0.36026 0.0
C402 C 0.19567 0.30033 0.34635 0.0
C403 C 0.13483 0.28659 0.38115 0.0
C404 C 0.10534 0.3423 0.38203 0.0
C405 C 0.14094 0.25336 0.39358 0.0
C406 C 0.17021 0.1928 0.39344 0.0
C407 C 0.21348 0.19782 0.38962 0.0
C408 C 0.24024 0.13932 0.38901 0.0
C409 C 0.2242 0.07584 0.39235 0.0
C410 C 0.18148 0.07082 0.39643 0.0
C411 C 0.15455 0.12903 0.39701 0.0
H412 H 0.24479 0.03044 0.39173 0.0
H413 H 0.96066 0.56058 0.39238 0.0
H414 H 0.83064 0.64666 0.34267 0.0
H415 H 0.85167 0.62297 0.36627 0.0
H416 H 0.84556 0.84367 0.38308 0.0
H417 H 0.82296 0.86895 0.35886 0.0
H418 H 0.91932 0.77467 0.39276 0.0
H419 H 0.76259 0.73108 0.39848 0.0
H420 H 0.69258 0.68095 0.3899 0.0
H421 H 0.75178 0.48145 0.37548 0.0
H422 H 0.8216 0.52959 0.38464 0.0
H423 H 0.94772 0.68323 0.46465 0.0
H424 H 0.92753 0.73224 0.44283 0.0
H425 H 0.89172 0.52466 0.42184 0.0
H426 H 0.90864 0.47724 0.44408 0.0
H427 H 0.83544 0.60101 0.41535 0.0
H428 H 0.98716 0.63488 0.41559 0.0
H429 H 0.05785 0.67859 0.42438 0.0
H430 H 0.01484 0.89147 0.42608 0.0
H431 H 0.94366 0.84893 0.41732 0.0
C432 C 0.8333 0.69114 0.35125 0.0
C433 C 0.82479 0.76025 0.34858 0.0
C434 C 0.84513 0.67691 0.36495 0.0
C435 C 0.84913 0.73092 0.37676 0.0
C436 C 0.8417 0.80063 0.37427 0.0
C437 C 0.82896 0.81515 0.36038 0.0
C438 C 0.86189 0.71247 0.39137 0.0
C439 C 0.90059 0.73787 0.39791 0.0
C440 C 0.83864 0.66238 0.39794 0.0
C441 C 0.79716 0.63406 0.39206 0.0
C442 C 0.76057 0.67663 0.39343 0.0
C443 C 0.72094 0.64844 0.38857 0.0
C444 C 0.71784 0.57834 0.38199 0.0
C445 C 0.75423 0.53582 0.38052 0.0
C446 C 0.79371 0.56327 0.38569 0.0
C447 C 0.93609 0.648 0.45529 0.0
C448 C 0.93 0.57617 0.45611 0.0
C449 C 0.92462 0.67609 0.44269 0.0
C450 C 0.90829 0.63266 0.43031 0.0
C451 C 0.90376 0.56025 0.43108 0.0
C452 C 0.91381 0.53274 0.44382 0.0
C453 C 0.89368 0.66207 0.4169 0.0
C454 C 0.85446 0.63842 0.41047 0.0
C455 C 0.91708 0.71295 0.41041 0.0
C456 C 0.95987 0.73854 0.41581 0.0
C457 C 0.99266 0.69096 0.41781 0.0
C458 C 0.03287 0.71557 0.42282 0.0
C459 C 0.04084 0.78779 0.42581 0.0
C460 C 0.00862 0.83552 0.42377 0.0
C461 C 0.96833 0.81115 0.41876 0.0
H462 H 0.07199 0.80677 0.42969 0.0
H463 H 0.68721 0.55686 0.37811 0.0
H464 H 0.10499 0.58756 0.58428 0.0
H465 H 0.12943 0.60423 0.60918 0.0
H466 H 0.04757 0.43582 0.61805 0.0
H467 H 0.02314 0.41674 0.59263 0.0
H468 H 0.04654 0.53941 0.64032 0.0
H469 H 0.15402 0.41242 0.61302 0.0
H470 H 0.20475 0.38273 0.59283 0.0
H471 H 0.27625 0.57096 0.60739 0.0
H472 H 0.22587 0.602 0.62761 0.0
H473 H 0.23279 0.56475 0.69894 0.0
H474 H 0.20378 0.51506 0.67508 0.0
H475 H 0.11757 0.69071 0.67688 0.0
H476 H 0.14573 0.73973 0.70065 0.0
H477 H 0.20265 0.5551 0.64983 0.0
H478 H 0.02273 0.64059 0.6591 0.0
H479 H 0.96841 0.649 0.67844 0.0
H480 H 0.04135 0.5084 0.70043 0.0
H481 H 0.09566 0.49787 0.68109 0.0
C482 C 0.09225 0.55293 0.59138 0.0
C483 C 0.06253 0.49957 0.58623 0.0
C484 C 0.10645 0.56281 0.60573 0.0
C485 C 0.09156 0.51971 0.6155 0.0
C486 C 0.06048 0.46828 0.61065 0.0
C487 C 0.04638 0.45767 0.59611 0.0
C488 C 0.10898 0.52935 0.63066 0.0
C489 C 0.08065 0.54281 0.64241 0.0
C490 C 0.15366 0.53081 0.63349 0.0
C491 C 0.18538 0.5106 0.62169 0.0
C492 C 0.18031 0.44791 0.61187 0.0
C493 C 0.20914 0.43063 0.60043 0.0
C494 C 0.24355 0.47514 0.59877 0.0
C495 C 0.24945 0.53668 0.60864 0.0
C496 C 0.22072 0.55417 0.62009 0.0
C497 C 0.20754 0.59265 0.69427 0.0
C498 C 0.19151 0.65612 0.70185 0.0
C499 C 0.19096 0.56419 0.68059 0.0
C500 C 0.15779 0.59825 0.67416 0.0
C501 C 0.14231 0.66217 0.68164 0.0
C502 C 0.15877 0.6905 0.69528 0.0
C503 C 0.14015 0.5688 0.65949 0.0
C504 C 0.16852 0.55154 0.6478 0.0
C505 C 0.09553 0.56126 0.65677 0.0
C506 C 0.06369 0.56936 0.66873 0.0
C507 C 0.02726 0.61154 0.66807 0.0
C508 C -0.00361 0.61654 0.67902 0.0
C509 C 0.00153 0.57953 0.69069 0.0
C510 C 0.03754 0.5374 0.69143 0.0
C511 C 0.06845 0.53205 0.6805 0.0
H512 H 0.97753 0.58334 0.69914 0.0
H513 H 0.26573 0.46184 0.58987 0.0
H514 H 0.80822 0.45512 0.71488 0.0
H515 H 0.82712 0.49468 0.69192 0.0
H516 H 0.88412 0.29255 0.677 0.0
H517 H 0.86827 0.2555 0.70042 0.0
H518 H 0.93246 0.37762 0.66857 0.0
H519 H 0.77931 0.36549 0.6674 0.0
H520 H 0.70484 0.39371 0.67447 0.0
H521 H 0.72527 0.60881 0.6691 0.0
H522 H 0.80009 0.58229 0.66204 0.0
H523 H 0.87179 0.4435 0.59104 0.0
H524 H 0.85303 0.42244 0.61535 0.0
H525 H 0.96463 0.53789 0.63255 0.0
H526 H 0.98308 0.56133 0.60792 0.0
H527 H 0.83246 0.50178 0.64005 0.0
H528 H 0.00143 0.4481 0.66198 0.0
H529 H 0.07034 0.39295 0.65404 0.0
H530 H 0.00977 0.27995 0.61615 0.0
H531 H 0.94061 0.33453 0.62389 0.0
C532 C 0.82452 0.41896 0.70665 0.0
C533 C 0.83659 0.35195 0.70953 0.0
C534 C 0.83524 0.44157 0.69339 0.0
C535 C 0.8568 0.39677 0.68233 0.0
C536 C 0.86789 0.32906 0.68518 0.0
C537 C 0.85848 0.30743 0.69861 0.0
C538 C 0.86898 0.42023 0.66803 0.0
C539 C 0.91041 0.40529 0.66246 0.0
C540 C 0.84059 0.45596 0.65969 0.0
C541 C 0.79559 0.47182 0.66418 0.0
C542 C 0.76811 0.41885 0.66771 0.0
C543 C 0.72576 0.43453 0.67173 0.0
C544 C 0.71034 0.50291 0.67223 0.0
C545 C 0.73725 0.55582 0.6687 0.0
C546 C 0.77964 0.54046 0.66466 0.0
C547 C 0.89219 0.46574 0.59998 0.0
C548 C 0.9292 0.50407 0.59735 0.0
C549 C 0.88134 0.45331 0.61397 0.0
C550 C 0.90745 0.47745 0.62596 0.0
C551 C 0.94397 0.5177 0.62355 0.0
C552 C 0.9544 0.53168 0.60944 0.0
C553 C 0.89588 0.45949 0.64076 0.0
C554 C 0.85458 0.47535 0.64637 0.0
C555 C 0.9239 0.42308 0.64899 0.0
C556 C 0.96607 0.3965 0.64339 0.0
C557 C 0.00302 0.41225 0.65186 0.0
C558 C 0.04202 0.38062 0.64746 0.0
C559 C 0.04438 0.33259 0.63465 0.0
C560 C 0.00787 0.317 0.62609 0.0
C561 C 0.96884 0.3488 0.63042 0.0
H562 H 0.07457 0.30798 0.63128 0.0
H563 H 0.67754 0.51489 0.67536 0.0
H564 H 0.17998 0.63312 0.84105 0.0
H565 H 0.15397 0.66292 0.86613 0.0
H566 H 0.18287 0.88151 0.86523 0.0
H567 H 0.20651 0.85223 0.84006 0.0
H568 H 0.20676 0.84343 0.89109 0.0
H569 H 0.08114 0.81715 0.85995 0.0
H570 H 0.03336 0.75126 0.84164 0.0
H571 H 0.01531 0.59274 0.86895 0.0
H572 H 0.06344 0.65737 0.88735 0.0
H573 H 0.08627 0.03381 0.94724 0.0
H574 H 0.1175 0.98212 0.92414 0.0
H575 H 0.06175 0.78134 0.92874 0.0
H576 H 0.02889 0.83396 0.95175 0.0
H577 H 0.05532 0.79539 0.90209 0.0
H578 H 0.17336 0.82121 0.93417 0.0
H579 H 0.22361 0.87842 0.95269 0.0
H580 H 0.26 0.02562 0.92454 0.0
H581 H 0.20961 0.96976 0.9059 0.0
C582 C 0.18184 0.6871 0.84639 0.0
C583 C 0.19604 0.7402 0.83872 0.0
C584 C 0.16678 0.7043 0.86072 0.0
C585 C 0.16668 0.77463 0.86774 0.0
C586 C 0.18276 0.82692 0.8602 0.0
C587 C 0.19648 0.81009 0.84581 0.0
C588 C 0.14807 0.79538 0.88258 0.0
C589 C 0.17351 0.83361 0.89346 0.0
C590 C 0.10518 0.78024 0.88594 0.0
C591 C 0.07614 0.74169 0.87494 0.0
C592 C 0.06719 0.76801 0.862 0.0
C593 C 0.04002 0.73094 0.85162 0.0
C594 C 0.02139 0.66777 0.85411 0.0
C595 C 0.0298 0.64163 0.86702 0.0
C596 C 0.05699 0.67847 0.87743 0.0
C597 C 0.08053 0.9786 0.94337 0.0
C598 C 0.05513 0.93809 0.95147 0.0
C599 C 0.09882 0.94876 0.93014 0.0
C600 C 0.09315 0.877 0.9247 0.0
C601 C 0.06704 0.83665 0.93263 0.0
C602 C 0.04819 0.86683 0.94583 0.0
C603 C 0.11374 0.8451 0.91064 0.0
C604 C 0.08868 0.80498 0.89986 0.0
C605 C 0.15732 0.85736 0.90745 0.0
C606 C 0.18736 0.89169 0.91869 0.0
C607 C 0.1918 0.86615 0.93197 0.0
C608 C 0.22039 0.89825 0.94248 0.0
C609 C 0.24489 0.95575 0.93981 0.0
C610 C 0.24095 0.98114 0.92661 0.0
C611 C 0.21242 0.94921 0.91605 0.0
H612 H 0.267 0.98054 0.94797 0.0
H613 H 0.00036 0.63914 0.84607 0.0
H614 H 0.86596 0.35983 0.85387 0.0
H615 H 0.88996 0.33006 0.87739 0.0
H616 H 0.78591 0.18199 0.87663 0.0
H617 H 0.76199 0.21241 0.85342 0.0
H618 H 0.79674 0.23854 0.90329 0.0
H619 H 0.89255 0.13466 0.86589 0.0
H620 H 0.94382 0.1343 0.84577 0.0
H621 H 0.02919 0.26657 0.87395 0.0
H622 H 0.9781 0.26856 0.89419 0.0
H623 H 0.86986 1.01423 0.95132 0.0
H624 H 0.84925 0.06237 0.92959 0.0
H625 H 0.95775 0.20249 0.93506 0.0
H626 H 0.97944 0.15241 0.95669 0.0
H627 H 0.9467 0.1598 0.90699 0.0
H628 H 0.84825 0.26133 0.9446 0.0
H629 H 0.79612 0.25565 0.96428 0.0
H630 H 0.71603 0.11865 0.93502 0.0
H631 H 0.7672 0.12468 0.91515 0.0
C632 C 0.84735 0.32297 0.85902 0.0
C633 C 0.81135 0.2899 0.8519 0.0
C634 C 0.86155 0.30479 0.87238 0.0
C635 C 0.84041 0.25241 0.87888 0.0
C636 C 0.80314 0.22237 0.87206 0.0
C637 C 0.78914 0.24032 0.85877 0.0
C638 C 0.85748 0.22626 0.89234 0.0
C639 C 0.82953 0.22109 0.90398 0.0
C640 C 0.90045 0.20384 0.89362 0.0
C641 C 0.93129 0.20245 0.8815 0.0
C642 C 0.92212 0.1641 0.86777 0.0
C643 C 0.95116 0.16354 0.85635 0.0
C644 C 0.98968 0.20055 0.85857 0.0
C645 C -0.0007 0.23804 0.87224 0.0
C646 C 0.97032 0.23891 0.88368 0.0
C647 C 0.88967 0.05498 0.94791 0.0
C648 C 0.92629 0.07947 0.95599 0.0
C649 C 0.87751 0.08323 0.93545 0.0
C650 C 0.90096 0.13814 0.9307 0.0
C651 C 0.93856 0.16085 0.93841 0.0
C652 C 0.95105 0.13197 0.95085 0.0
C653 C 0.88585 0.17177 0.91787 0.0
C654 C 0.91409 0.17814 0.90635 0.0
C655 C 0.84304 0.19483 0.91661 0.0
C656 C 0.8116 0.1932 0.92843 0.0
C657 C 0.81942 0.23022 0.94238 0.0
C658 C 0.78998 0.22712 0.95356 0.0
C659 C 0.75272 0.18694 0.95091 0.0
C660 C 0.74468 0.15022 0.93705 0.0
C661 C 0.77376 0.15377 0.92581 0.0
H662 H 0.73009 0.18422 0.95959 0.0
H663 H 0.01213 0.20005 0.84972 0.0
H664 H 0.74484 0.11204 0.7041 0.0
H665 H 0.7227 0.06287 0.6793 0.0
H666 H 0.68542 0.26924 0.67151 0.0
H667 H 0.7067 0.31845 0.69627 0.0
H668 H 0.63905 0.07119 0.66949 0.0
H669 H 0.69916 0.27467 0.63388 0.0
H670 H 0.76282 0.34758 0.6313 0.0
H671 H 0.83999 0.2082 0.65219 0.0
H672 H 0.77689 0.13412 0.65485 0.0
H673 H 0.56979 0.1482 0.59212 0.0
H674 H 0.60566 0.17588 0.61542 0.0
H675 H 0.60241 0.95668 0.6204 0.0
H676 H 0.56523 0.92881 0.59684 0.0
H677 H 0.68016 0.1464 0.62294 0.0
H678 H 0.61798 0.94067 0.6601 0.0
H679 H 0.55405 0.87865 0.6728 0.0
H680 H 0.46174 0.08691 0.64939 0.0
H681 H 0.54063 0.12011 0.63997 0.0
C682 C 0.73249 0.14712 0.69704 0.0
C683 C 0.72714 0.21912 0.70228 0.0
C684 C 0.71991 0.11896 0.68283 0.0
C685 C 0.70278 0.1624 0.67339 0.0
C686 C 0.69917 0.23474 0.67843 0.0
C687 C 0.71095 0.26267 0.69268 0.0
C688 C 0.68353 0.13161 0.65907 0.0
C689 C 0.64873 0.08578 0.65918 0.0
C690 C 0.69516 0.15333 0.64574 0.0
C691 C 0.73312 0.19883 0.6446 0.0
C692 C 0.72972 0.25932 0.63787 0.0
C693 C 0.76578 0.30068 0.63633 0.0
C694 C 0.80555 0.28192 0.64137 0.0
C695 C 0.80921 0.2224 0.6482 0.0
C696 C 0.77324 0.18086 0.64979 0.0
C697 C 0.57584 0.10577 0.59828 0.0
C698 C 0.56449 0.03619 0.59253 0.0
C699 C 0.59687 0.1217 0.61163 0.0
C700 C 0.60763 0.06864 0.6198 0.0
C701 C 0.59442 0.9991 0.61447 0.0
C702 C 0.5729 0.98304 0.601 0.0
C703 C 0.63416 0.08696 0.63341 0.0
C704 C 0.67067 0.13021 0.63313 0.0
C705 C 0.62348 0.06463 0.64674 0.0
C706 C 0.58266 0.03015 0.64915 0.0
C707 C 0.5862 0.96074 0.65871 0.0
C708 C 0.54641 0.92165 0.66701 0.0
C709 C 0.4947 0.94949 0.66659 0.0
C710 C 0.48873 0.05473 0.65185 0.0
C711 C 0.53785 0.0751 0.6456 0.0
H712 H 0.47094 0.92205 0.6723 0.0
H713 H 0.83345 0.31384 0.64011 0.0
H714 H 0.43272 0.09109 0.61131 0.0
H715 H 0.40031 0.06763 0.63437 0.0
H716 H 0.36479 0.85958 0.61393 0.0
H717 H 0.39441 0.88284 0.59134 0.0
H718 H 0.30295 0.90334 0.63023 0.0
H719 H 0.45699 0.90025 0.63371 0.0
H720 H 0.54235 0.92812 0.63715 0.0
H721 H 0.48625 0.10444 0.68753 0.0
H722 H 0.41086 0.05356 0.6768 0.0
H723 H 0.33746 0.70766 0.69345 0.0
H724 H 0.3482 0.75652 0.67082 0.0
H725 H 0.28595 0.94791 0.68977 0.0
H726 H 0.27308 0.89792 0.71214 0.0
H727 H 0.38824 0.9259 0.6754 0.0
H728 H 0.23501 0.9127 0.66986 0.0
H729 H 0.16547 0.85189 0.66803 0.0
H730 H 0.2071 0.71949 0.6294 0.0
H731 H 0.27831 0.77548 0.63166 0.0
C732 C 0.4177 0.04069 0.61173 0.0
C733 C 0.41679 0.98913 0.59924 0.0
C734 C 0.3995 0.02684 0.62502 0.0
C735 C 0.38038 0.96098 0.62619 0.0
C736 C 0.37891 0.91082 0.61361 0.0
C737 C 0.39651 0.92449 0.60053 0.0
C738 C 0.36249 0.94158 0.64021 0.0
C739 C 0.32184 0.90888 0.64009 0.0
C740 C 0.38599 0.94893 0.65338 0.0
C741 C 0.42982 0.97727 0.65487 0.0
C742 C 0.46697 0.93866 0.64279 0.0
C743 C 0.52046 0.95529 0.64526 0.0
C744 C 0.53337 0.04398 0.66912 0.0
C745 C 0.48607 0.06809 0.67748 0.0
C746 C 0.43877 0.03582 0.67043 0.0
C747 C 0.32507 0.75948 0.69268 0.0
C748 C 0.30405 0.79847 0.70463 0.0
C749 C 0.33111 0.78735 0.67968 0.0
C750 C 0.31705 0.8555 0.67834 0.0
C751 C 0.29603 0.89452 0.69028 0.0
C752 C 0.28878 0.86585 0.70312 0.0
C753 C 0.32952 0.88872 0.66532 0.0
C754 C 0.36917 0.92282 0.6656 0.0
C755 C 0.30511 0.88245 0.65237 0.0
C756 C 0.26265 0.84711 0.65121 0.0
C757 C 0.23005 0.86889 0.66128 0.0
C758 C 0.19025 0.8352 0.66016 0.0
C759 C 0.18217 0.78079 0.64876 0.0
C760 C 0.21383 0.76026 0.63844 0.0
C761 C 0.25401 0.79275 0.63969 0.0
H762 H 0.15123 0.75511 0.64783 0.0
H763 H 0.56245 0.06679 0.67442 0.0
H764 H 0.50713 0.35705 0.95262 0.0
H765 H 0.53715 0.31553 0.92842 0.0
H766 H 0.60675 0.51034 0.93008 0.0
H767 H 0.57702 0.55184 0.95392 0.0
H768 H 0.57119 0.47732 0.90441 0.0
H769 H 0.65555 0.35307 0.93558 0.0
H770 H 0.66416 0.27493 0.95404 0.0
H771 H 0.60475 0.10589 0.92554 0.0
H772 H 0.59511 0.18347 0.90699 0.0
H773 H 0.71127 0.40661 0.84571 0.0
H774 H 0.68342 0.43088 0.87043 0.0
H775 H 0.62965 0.22191 0.86571 0.0
H776 H 0.65997 0.19644 0.84108 0.0
H777 H 0.65307 0.25554 0.8926 0.0
H778 H 0.55927 0.38178 0.86338 0.0
H779 H 0.54033 0.46333 0.84633 0.0
H780 H 0.61506 0.62645 0.87118 0.0
H781 H 0.63317 0.54651 0.88865 0.0
C782 C 0.52883 0.39093 0.94781 0.0
C783 C 0.53971 0.45771 0.95535 0.0
C784 C 0.54622 0.36699 0.93398 0.0
C785 C 0.57482 0.40932 0.92737 0.0
C786 C 0.58501 0.47629 0.93484 0.0
C787 C 0.56793 0.49994 0.94859 0.0
C788 C 0.59389 0.38552 0.91263 0.0
C789 C 0.58945 0.42911 0.90193 0.0
C790 C 0.61687 0.3217 0.90909 0.0
C791 C 0.62411 0.27431 0.91998 0.0
C792 C 0.64409 0.29935 0.93329 0.0
C793 C 0.64908 0.25522 0.94378 0.0
C794 C 0.63463 0.1857 0.94102 0.0
C795 C 0.61565 0.15991 0.9277 0.0
C796 C 0.61044 0.20392 0.91719 0.0
C797 C 0.69447 0.36521 0.85009 0.0
C798 C 0.68834 0.29934 0.84152 0.0
C799 C 0.67774 0.37953 0.86418 0.0
C800 C 0.65282 0.32933 0.86994 0.0
C801 C 0.64832 0.26209 0.8616 0.0
C802 C 0.6659 0.24726 0.84753 0.0
C803 C 0.63084 0.34805 0.88442 0.0
C804 C 0.6347 0.3036 0.89506 0.0
C805 C 0.60705 0.4111 0.88797 0.0
C806 C 0.59789 0.45811 0.87719 0.0
C807 C 0.57186 0.43491 0.86513 0.0
C808 C 0.5611 0.48093 0.85545 0.0
C809 C 0.57686 0.54978 0.85758 0.0
C810 C 0.60303 0.57303 0.8695 0.0
C811 C 0.61329 0.52759 0.87935 0.0
H812 H 0.5686 0.58521 0.85004 0.0
H813 H 0.63853 0.1516 0.94916 0.0
H814 H 0.46243 0.52444 0.94839 0.0
H815 H 0.44422 0.56053 0.92503 0.0
H816 H 0.3474 0.69946 0.94612 0.0
H817 H 0.36422 0.65994 0.96926 0.0
H818 H 0.31551 0.64373 0.92264 0.0
H819 H 0.45423 0.7522 0.93226 0.0
H820 H 0.5312 0.75116 0.93806 0.0
H821 H 0.55391 0.6045 0.89934 0.0
H822 H 0.4771 0.60397 0.89338 0.0
H823 H 0.27854 0.80758 0.85823 0.0
H824 H 0.29695 0.78867 0.88311 0.0
H825 H 0.3902 0.63378 0.86575 0.0
H826 H 0.37189 0.65185 0.8413 0.0
H827 H 0.42394 0.70706 0.88811 0.0
H828 H 0.28848 0.59438 0.87849 0.0
H829 H 0.21147 0.5739 0.87412 0.0
H830 H 0.18208 0.71421 0.91316 0.0
H831 H 0.2589 0.73786 0.9175 0.0
C832 C 0.43772 0.56334 0.94806 0.0
C833 C 0.41525 0.58998 0.96077 0.0
C834 C 0.42727 0.58448 0.93463 0.0
C835 C 0.3948 0.63451 0.93357 0.0
C836 C 0.37258 0.66113 0.94639 0.0
C837 C 0.3824 0.6388 0.95971 0.0
C838 C 0.38279 0.65743 0.91918 0.0
C839 C 0.33931 0.65922 0.91527 0.0
C840 C 0.41345 0.67562 0.90912 0.0
C841 C 0.45986 0.67775 0.91243 0.0
C842 C 0.47566 0.71965 0.925 0.0
C843 C 0.51926 0.71926 0.92832 0.0
C844 C 0.54743 0.67761 0.91909 0.0
C845 C 0.53209 0.63663 0.90648 0.0
C846 C 0.48854 0.63676 0.90311 0.0
C847 C 0.30312 0.76997 0.85973 0.0
C848 C 0.32332 0.73105 0.84757 0.0
C849 C 0.31355 0.75868 0.87403 0.0
C850 C 0.34492 0.70891 0.87654 0.0
C851 C 0.36597 0.67239 0.86438 0.0
C852 C 0.35529 0.68293 0.85025 0.0
C853 C 0.35647 0.69371 0.89158 0.0
C854 C 0.39998 0.69312 0.8956 0.0
C855 C 0.32577 0.67622 0.90171 0.0
C856 C 0.27956 0.66872 0.8982 0.0
C857 C 0.26563 0.62237 0.88595 0.0
C858 C 0.22198 0.60991 0.88353 0.0
C859 C 0.19192 0.6429 0.89335 0.0
C860 C 0.20542 0.68906 0.90553 0.0
C861 C 0.24899 0.70234 0.90793 0.0
H862 H 0.15814 0.63268 0.89155 0.0
H863 H 0.58115 0.67716 0.9217 0.0
H864 H 0.57404 0.63296 0.09144 0.0
H865 H 0.60081 0.65407 0.11617 0.0
H866 H 0.56256 0.44505 0.12219 0.0
H867 H 0.53564 0.42304 0.09692 0.0
H868 H 0.54818 0.54557 0.14719 0.0
H869 H 0.66508 0.47377 0.11593 0.0
H870 H 0.71179 0.47298 0.0946 0.0
H871 H 0.74563 0.68874 0.10896 0.0
H872 H 0.6986 0.69119 0.13027 0.0
H873 H 0.74836 0.62788 0.19985 0.0
H874 H 0.71594 0.57182 0.17694 0.0
H875 H 0.61102 0.718 0.1834 0.0
H876 H 0.64323 0.77426 0.2061 0.0
H877 H 0.69962 0.62312 0.15245 0.0
H878 H 0.51792 0.63621 0.16748 0.0
H879 H 0.47168 0.62601 0.18848 0.0
H880 H 0.56964 0.51069 0.20686 0.0
H881 H 0.61618 0.51882 0.18584 0.0
C882 C 0.57092 0.59122 0.09798 0.0
C883 C 0.55283 0.52595 0.09206 0.0
C884 C 0.58643 0.60351 0.1122 0.0
C885 C 0.58477 0.55088 0.12108 0.0
C886 C 0.56462 0.48655 0.11556 0.0
C887 C 0.54898 0.47403 0.10114 0.0
C888 C 0.60584 0.56378 0.13577 0.0
C889 C 0.58131 0.56235 0.14835 0.0
C890 C 0.64948 0.58406 0.13741 0.0
C891 C 0.67808 0.58276 0.12466 0.0
C892 C 0.68225 0.5212 0.11449 0.0
C893 C 0.70882 0.52044 0.10241 0.0
C894 C 0.73161 0.58079 0.10041 0.0
C895 C 0.72795 0.64202 0.11052 0.0
C896 C 0.70137 0.6431 0.12261 0.0
C897 C 0.71829 0.64789 0.19643 0.0
C898 C 0.69863 0.70591 0.20492 0.0
C899 C 0.69969 0.61574 0.18328 0.0
C900 C 0.66053 0.63978 0.17837 0.0
C901 C 0.64076 0.69728 0.18692 0.0
C902 C 0.65954 0.7299 0.19993 0.0
C903 C 0.64155 0.60799 0.16397 0.0
C904 C 0.66655 0.60601 0.15139 0.0
C905 C 0.5985 0.58384 0.16239 0.0
C906 C 0.57087 0.57917 0.17516 0.0
C907 C 0.52964 0.60863 0.17599 0.0
C908 C 0.50334 0.60318 0.1879 0.0
C909 C 0.51789 0.56838 0.19906 0.0
C910 C 0.55861 0.53831 0.19827 0.0
C911 C 0.58498 0.54338 0.18637 0.0
H912 H 0.49749 0.56427 0.20827 0.0
H913 H 0.75216 0.58009 0.09105 0.0
H914 H 0.37435 0.22755 0.19932 0.0
H915 H 0.39523 0.28224 0.1784 0.0
H916 H 0.3134 0.45881 0.19311 0.0
H917 H 0.29063 0.40186 0.21372 0.0
H918 H 0.31008 0.44565 0.16614 0.0
H919 H 0.43031 0.45671 0.19676 0.0
H920 H 0.48736 0.41821 0.212 0.0
H921 H 0.53909 0.28506 0.175 0.0
H922 H 0.48176 0.32142 0.15958 0.0
H923 H 0.41326 0.62609 0.11172 0.0
H924 H 0.39497 0.60025 0.13624 0.0
H925 H 0.43801 0.38692 0.12398 0.0
H926 H 0.45519 0.41182 0.09985 0.0
H927 H 0.46305 0.44039 0.15202 0.0
H928 H 0.33104 0.43314 0.12267 0.0
H929 H 0.28063 0.49523 0.1087 0.0
H930 H 0.25764 0.64883 0.14637 0.0
H931 H 0.30846 0.58821 0.16048 0.0
C932 C 0.36041 0.27778 0.19808 0.0
C933 C 0.33079 0.31004 0.20837 0.0
C934 C 0.37286 0.30978 0.1861 0.0
C935 C 0.35728 0.37653 0.18415 0.0
C936 C 0.32652 0.40782 0.19419 0.0
C937 C 0.31335 0.37499 0.20605 0.0
C938 C 0.37314 0.41288 0.17172 0.0
C939 C 0.3437 0.44492 0.16328 0.0
C940 C 0.41714 0.41427 0.16777 0.0
C941 C 0.45136 0.39125 0.17704 0.0
C942 C 0.45351 0.41853 0.1919 0.0
C943 C 0.48592 0.39709 0.20057 0.0
C944 C 0.51676 0.34909 0.19448 0.0
C945 C 0.51516 0.32222 0.17971 0.0
C946 C 0.48267 0.34316 0.171 0.0
C947 C 0.41967 0.5743 0.11441 0.0
C948 C 0.43603 0.52127 0.10375 0.0
C949 C 0.40884 0.55919 0.12841 0.0
C950 C 0.41464 0.49104 0.13209 0.0
C951 C 0.43304 0.43976 0.12162 0.0
C952 C 0.44298 0.45431 0.10773 0.0
C953 C 0.39988 0.47014 0.14631 0.0
C954 C 0.42954 0.44106 0.15505 0.0
C955 C 0.35649 0.47359 0.1508 0.0
C956 C 0.32376 0.50658 0.14258 0.0
C957 C 0.31515 0.48008 0.12796 0.0
C958 C 0.28658 0.5151 0.12002 0.0
C959 C 0.26614 0.57619 0.12663 0.0
C960 C 0.27363 0.60167 0.14126 0.0
C961 C 0.30227 0.56699 0.14923 0.0
H962 H 0.24461 0.60405 0.12043 0.0
H963 H 0.54196 0.33285 0.2012 0.0
H964 H 0.49083 0.943 0.44376 0.0
H965 H 0.52024 0.90164 0.41955 0.0
H966 H 0.64206 0.86534 0.43878 0.0
H967 H 0.61346 0.91171 0.46278 0.0
H968 H 0.65928 0.91628 0.41677 0.0
H969 H 0.56366 0.7293 0.4229 0.0
H970 H 0.49559 0.67192 0.42764 0.0
H971 H 0.4385 0.74535 0.39084 0.0
H972 H 0.50584 0.80474 0.3861 0.0
H973 H 0.74 0.73455 0.34793 0.0
H974 H 0.71601 0.76004 0.37324 0.0
H975 H 0.59699 0.83948 0.35913 0.0
H976 H 0.62228 0.82054 0.33423 0.0
H977 H 0.58164 0.75519 0.37903 0.0
H978 H 0.67934 0.94482 0.3739 0.0
H979 H 0.74882 0.99866 0.36953 0.0
H980 H 0.80394 0.91253 0.40517 0.0
H981 H 0.73515 0.85633 0.40947 0.0
C982 C 0.52365 0.92497 0.4428 0.0
C983 C 0.54961 0.92933 0.45522 0.0
C984 C 0.54051 0.90087 0.42892 0.0
C985 C 0.58339 0.87823 0.42709 0.0
C986 C 0.60898 0.88198 0.43964 0.0
C987 C 0.59249 0.90795 0.45344 0.0
C988 C 0.60218 0.8538 0.41219 0.0
C989 C 0.64243 0.87987 0.40867 0.0
C990 C 0.58053 0.80701 0.40128 0.0
C991 C 0.53976 0.77207 0.40423 0.0
C992 C 0.53647 0.73384 0.41591 0.0
C993 C 0.49799 0.70094 0.4186 0.0
C994 C 0.4627 0.70517 0.40958 0.0
C995 C 0.46583 0.74221 0.39784 0.0
C996 C 0.50412 0.77562 0.39516 0.0
C997 C 0.70913 0.75835 0.35023 0.0
C998 C 0.68406 0.77739 0.33892 0.0
C999 C 0.69493 0.77188 0.36476 0.0
C1000 C 0.65429 0.80145 0.36829 0.0
C1001 C 0.62838 0.81671 0.35688 0.0
C1002 C 0.64313 0.80573 0.34253 0.0
C1003 C 0.6383 0.81811 0.3837 0.0
C1004 C 0.59856 0.79076 0.38726 0.0
C1005 C 0.66064 0.86286 0.3947 0.0
C1006 C 0.70222 0.89543 0.39186 0.0
C1007 C 0.70643 0.93645 0.38067 0.0
C1008 C 0.74568 0.96754 0.37822 0.0
C1009 C 0.78078 0.95896 0.38705 0.0
C1010 C 0.77674 0.9191 0.39832 0.0
C1011 C 0.73769 0.88736 0.40073 0.0
H1012 H 0.81113 0.98316 0.38515 0.0
H1013 H 0.43296 0.6796 0.41167 0.0
H1014 H 0.36352 0.02367 0.45695 0.0
H1015 H 0.34424 0.06411 0.43428 0.0
H1016 H 0.46528 0.17134 0.434 0.0
H1017 H 0.48475 0.1315 0.45703 0.0
H1018 H 0.40063 0.25351 0.42547 0.0
H1019 H 0.4464 1.01385 0.41229 0.0
H1020 H 0.44579 0.88709 0.41396 0.0
H1021 H 0.31384 0.87355 0.40121 0.0
H1022 H 0.31329 1.00057 0.39985 0.0
H1023 H 0.37716 0.15885 0.34085 0.0
H1024 H 0.39925 0.1387 0.36477 0.0
H1025 H 0.30383 0.28463 0.38418 0.0
H1026 H 0.28076 0.30482 0.35975 0.0
H1027 H 0.35651 0.07843 0.38346 0.0
H1028 H 0.33828 0.3453 0.42046 0.0
H1029 H 0.34286 0.4722 0.41906 0.0
H1030 H 0.42856 0.42984 0.38282 0.0
H1031 H 0.4249 0.30287 0.38413 0.0
C1032 C 0.38638 0.05558 0.45212 0.0
C1033 C 0.42598 0.07374 0.45897 0.0
C1034 C 0.37516 0.07888 0.43904 0.0
C1035 C 0.40318 0.12082 0.43218 0.0
C1036 C 0.44279 0.13935 0.43897 0.0
C1037 C 0.45411 0.11594 0.45214 0.0
C1038 C 0.39129 0.1432 0.41779 0.0
C1039 C 0.39093 0.21509 0.41631 0.0
C1040 C 0.37884 0.09375 0.40562 0.0
C1041 C 0.37966 0.01692 0.40606 0.0
C1042 C 0.41719 0.98395 0.4099 0.0
C1043 C 0.41708 0.91205 0.4108 0.0
C1044 C 0.37987 0.87232 0.40769 0.0
C1045 C 0.34267 0.90437 0.40362 0.0
C1046 C 0.34252 0.97632 0.4028 0.0
C1047 C 0.36077 0.18758 0.35014 0.0
C1048 C 0.32666 0.23321 0.34816 0.0
C1049 C 0.37356 0.17557 0.36394 0.0
C1050 C 0.35315 0.209 0.37651 0.0
C1051 C 0.32036 0.25775 0.37475 0.0
C1052 C 0.30718 0.26965 0.36073 0.0
C1053 C 0.36545 0.18893 0.39108 0.0
C1054 C 0.36594 0.11712 0.39262 0.0
C1055 C 0.37843 0.23841 0.40318 0.0
C1056 C 0.38089 0.31456 0.4023 0.0
C1057 C 0.35814 0.36312 0.41221 0.0
C1058 C 0.36058 0.43505 0.41144 0.0
C1059 C 0.38587 0.45905 0.40083 0.0
C1060 C 0.40884 0.41117 0.39099 0.0
C1061 C 0.40653 0.33921 0.39173 0.0
H1062 H 0.38775 0.51475 0.40025 0.0
H1063 H 0.37983 0.81672 0.40843 0.0
H1064 H 0.09489 0.78182 0.03634 0.0
H1065 H 0.08097 0.65689 0.03607 0.0
H1066 H 0.97471 0.66748 1.00699 0.0
H1067 H 0.98805 0.79262 1.00729 0.0
H1068 H 0.95106 0.61766 0.03122 0.0
H1069 H 0.06827 0.56988 0.99672 0.0
H1070 H 0.14287 0.57922 0.98858 0.0
H1071 H 0.18754 0.49556 0.02599 0.0
H1072 H 0.11331 0.48491 0.03429 0.0
H1073 H 0.89619 0.25815 1.00975 0.0
H1074 H 0.91429 0.38308 1.01351 0.0
H1075 H 0.01697 0.34464 0.04217 0.0
H1076 H -0.00119 0.21974 0.03861 0.0
H1077 H 0.04598 0.41023 1.0211 0.0
H1078 H 0.93207 0.43939 0.05395 0.0
H1079 H 0.86056 0.43702 0.06487 0.0
H1080 H 0.81204 0.56692 0.03503 0.0
H1081 H 0.88234 0.56599 0.02323 0.0
C1082 C 0.06938 0.75729 0.02949 0.0
C1083 C 0.04228 0.79788 1.02198 0.0
C1084 C 0.06146 0.68555 0.02937 0.0
C1085 C 0.0266 0.65271 1.0216 0.0
C1086 C 0.00168 0.69174 1.01314 0.0
C1087 C 0.00957 0.7634 1.01324 0.0
C1088 C 0.01296 0.58058 0.02357 0.0
C1089 C 0.97136 0.57179 0.02869 0.0
C1090 C 0.04064 0.52187 1.02128 0.0
C1091 C 0.08525 0.52738 1.01619 0.0
C1092 C 0.09404 0.5537 1.00323 0.0
C1093 C 0.13626 0.55887 0.99856 0.0
C1094 C 0.16994 0.53784 1.00676 0.0
C1095 C 0.16145 0.51132 1.01961 0.0
C1096 C 0.11931 0.50552 0.02428 0.0
C1097 C 0.92171 0.27652 1.01724 0.0
C1098 C 0.94619 0.22857 0.02378 0.0
C1099 C 0.93209 0.34813 1.01937 0.0
C1100 C 0.96722 0.37331 0.02804 0.0
C1101 C 0.98981 0.32644 0.03539 0.0
C1102 C 0.9791 0.25495 0.03343 0.0
C1103 C 0.98304 0.44636 0.02805 0.0
C1104 C 0.02527 0.45564 0.02351 0.0
C1105 C 0.95605 0.50577 0.03113 0.0
C1106 C 0.91263 0.5016 0.03749 0.0
C1107 C 0.90592 0.46566 0.04939 0.0
C1108 C 0.86546 0.46482 0.05574 0.0
C1109 C 0.83154 0.5009 0.05051 0.0
C1110 C 0.83799 0.53765 0.03888 0.0
C1111 C 0.87812 0.5375 0.0323 0.0
H1112 H 0.80037 0.50095 0.05556 0.0
H1113 H 0.20262 0.54206 1.00316 0.0
H1114 H 0.29168 0.45241 0.29396 0.0
H1115 H 0.27741 0.5793 0.29757 0.0
H1116 H 0.31915 0.5885 0.25375 0.0
H1117 H 0.33627 0.46434 0.25052 0.0
H1118 H 0.34137 0.70154 0.26944 0.0
H1119 H 0.21081 0.55831 0.2673 0.0
H1120 H 0.16349 0.47601 0.27761 0.0
H1121 H 0.1441 0.62847 0.31562 0.0
H1122 H 0.19375 0.71 0.30607 0.0
H1123 H 0.24781 1.01229 0.25463 0.0
H1124 H 0.26216 0.88644 0.25332 0.0
H1125 H 0.20831 0.89122 0.29611 0.0
H1126 H 0.19114 1.01496 0.29695 0.0
H1127 H 0.19258 0.77273 0.28277 0.0
H1128 H 0.32407 0.90542 0.28878 0.0
H1129 H 0.3796 0.98713 0.2828 0.0
H1130 H 0.39763 0.86222 0.2411 0.0
H1131 H 0.34247 0.77869 0.2469 0.0
C1132 C 0.29892 0.48219 0.28528 0.0
C1133 C 0.31499 0.4483 0.27196 0.0
C1134 C 0.2903 0.5545 0.28728 0.0
C1135 C 0.29574 0.59323 0.27575 0.0
C1136 C 0.31428 0.56004 0.2628 0.0
C1137 C 0.3242 0.48871 0.26097 0.0
C1138 C 0.28045 0.66701 0.27657 0.0
C1139 C 0.30866 0.71675 0.27224 0.0
C1140 C 0.23815 0.68806 0.28073 0.0
C1141 C 0.20673 0.63986 0.28607 0.0
C1142 C 0.19688 0.57409 0.27793 0.0
C1143 C 0.16988 0.52733 0.28369 0.0
C1144 C 0.15094 0.54682 0.29726 0.0
C1145 C 0.15907 0.61316 0.30515 0.0
C1146 C 0.18699 0.65942 0.29964 0.0
C1147 C 0.23793 0.9858 0.26354 0.0
C1148 C 0.21841 0.02353 0.27588 0.0
C1149 C 0.24673 0.9141 0.26291 0.0
C1150 C 0.23785 0.87957 0.27486 0.0
C1151 C 0.21583 0.91633 0.28677 0.0
C1152 C 0.20585 0.98731 0.28722 0.0
C1153 C 0.25335 0.8067 0.27537 0.0
C1154 C 0.22524 0.75737 0.27996 0.0
C1155 C 0.29599 0.78617 0.27179 0.0
C1156 C 0.32882 0.83643 0.2682 0.0
C1157 C 0.3396 0.89573 0.27829 0.0
C1158 C 0.37093 0.94248 0.27491 0.0
C1159 C 0.39173 0.93069 0.26151 0.0
C1160 C 0.38139 0.87156 0.25146 0.0
C1161 C 0.3502 0.82431 0.2548 0.0
H1162 H 0.41607 0.96704 0.25898 0.0
H1163 H 0.12968 0.51069 0.3016 0.0
H1164 H 0.77279 1.01286 0.29263 0.0
H1165 H 0.76013 0.13979 0.29583 0.0
H1166 H 0.85889 0.16194 0.26455 0.0
H1167 H 0.86973 0.03519 0.26065 0.0
H1168 H 0.79956 0.26771 0.30203 0.0
H1169 H 0.82537 0.25056 0.24063 0.0
H1170 H 0.82543 0.15767 0.21921 0.0
H1171 H 0.73131 0.04144 0.23936 0.0
H1172 H 0.73043 0.13388 0.26084 0.0
H1173 H 0.77573 0.58236 0.25953 0.0
H1174 H 0.79662 0.46096 0.26018 0.0
H1175 H 0.69645 0.44086 0.29108 0.0
H1176 H 0.67575 0.56297 0.29076 0.0
H1177 H 0.75829 0.33503 0.25457 0.0
H1178 H 0.73143 0.33309 0.31518 0.0
H1179 H 0.72531 0.41508 0.33813 0.0
H1180 H 0.80695 0.5626 0.32123 0.0
H1181 H 0.81425 0.48091 0.29816 0.0
C1182 C 0.79226 0.04488 0.28662 0.0
C1183 C 0.82083 1.01352 0.27591 0.0
C1184 C 0.78526 0.11763 0.28856 0.0
C1185 C 0.80765 0.16004 0.28009 0.0
C1186 C 0.84049 0.12996 0.27094 0.0
C1187 C 0.84674 0.05735 0.26875 0.0
C1188 C 0.79281 0.23254 0.27912 0.0
C1189 C 0.79041 0.28259 0.29169 0.0
C1190 C 0.78033 0.25164 0.26565 0.0
C1191 C 0.77802 0.19892 0.25232 0.0
C1192 C 0.8043 0.20561 0.24039 0.0
C1193 C 0.80459 0.1529 0.22828 0.0
C1194 C 0.77843 0.09362 0.22795 0.0
C1195 C 0.75155 0.08731 0.23965 0.0
C1196 C 0.75114 0.13982 0.25178 0.0
C1197 C 0.75734 0.55187 0.26622 0.0
C1198 C 0.72426 0.58314 0.27521 0.0
C1199 C 0.76963 0.48241 0.26666 0.0
C1200 C 0.74909 0.44251 0.27605 0.0
C1201 C 0.71368 0.47137 0.28409 0.0
C1202 C 0.70142 0.54101 0.28371 0.0
C1203 C 0.76526 0.37121 0.27749 0.0
C1204 C 0.76795 0.32097 0.26493 0.0
C1205 C 0.77653 0.35165 0.29109 0.0
C1206 C 0.7731 0.40114 0.3049 0.0
C1207 C 0.74828 0.38292 0.31636 0.0
C1208 C 0.7446 0.42932 0.32938 0.0
C1209 C 0.76571 0.49411 0.33109 0.0
C1210 C 0.79063 0.51248 0.31981 0.0
C1211 C 0.79452 0.4662 0.30677 0.0
H1212 H 0.76283 0.53004 0.34117 0.0
H1213 H 0.77901 0.05251 0.21864 0.0
H1214 H 0.89531 0.73798 0.50291 0.0
H1215 H 0.91284 0.86176 0.50366 0.0
H1216 H 0.0045 0.84887 0.53775 0.0
H1217 H 0.98795 0.72432 0.53689 0.0
H1218 H 0.91128 0.97673 0.52253 0.0
H1219 H 0.0942 0.94399 0.53143 0.0
H1220 H 0.14951 0.85218 0.52642 0.0
H1221 H 0.07372 0.74466 0.49149 0.0
H1222 H 0.01838 0.83638 0.4961 0.0
H1223 H 0.0697 0.27628 0.5404 0.0
H1224 H 0.05512 0.15006 0.53742 0.0
H1225 H 0.97646 0.1668 0.5001 0.0
H1226 H 0.98974 0.29338 0.50325 0.0
H1227 H 0.06368 0.03574 0.51536 0.0
H1228 H 0.90307 0.09731 0.49987 0.0
H1229 H 0.8423 0.17984 0.50387 0.0
H1230 H 0.86951 0.21637 0.54957 0.0
H1231 H 0.93156 0.13667 0.54567 0.0
C1232 C 0.91852 0.76162 0.51081 0.0
C1233 C 0.9408 0.72085 0.51966 0.0
C1234 C 0.92861 0.83242 0.51118 0.0
C1235 C 0.96089 0.86367 0.52044 0.0
C1236 C 0.98035 0.82497 0.53023 0.0
C1237 C 0.97048 0.75399 0.52983 0.0
C1238 C 0.97522 0.93589 0.51941 0.0
C1239 C 0.94456 0.98928 0.52078 0.0
C1240 C 0.01867 0.95225 0.51712 0.0
C1241 C 0.05194 0.89686 0.51422 0.0
C1242 C 0.08941 0.90092 0.52265 0.0
C1243 C 0.12078 0.8489 0.51987 0.0
C1244 C 0.11513 0.79273 0.50863 0.0
C1245 C 0.07804 0.78823 0.50019 0.0
C1246 C 0.04665 0.8402 0.50289 0.0
C1247 C 0.05007 0.2529 0.53136 0.0
C1248 C 0.0303 0.29487 0.52219 0.0
C1249 C 0.04162 0.18082 0.52972 0.0
C1250 C 0.01358 0.14977 0.51884 0.0
C1251 C -0.00304 0.19037 0.50888 0.0
C1252 C 0.00498 0.26249 0.51059 0.0
C1253 C -0.00033 0.07617 0.51855 0.0
C1254 C 0.03045 0.02264 0.517 0.0
C1255 C 0.95622 0.05895 0.52031 0.0
C1256 C 0.92218 0.11244 0.52245 0.0
C1257 C 0.89651 0.12429 0.51071 0.0
C1258 C 0.86197 0.17062 0.51295 0.0
C1259 C 0.8523 0.20397 0.52694 0.0
C1260 C 0.87747 0.19162 0.53869 0.0
C1261 C 0.91258 0.14647 0.53646 0.0
H1262 H 0.82507 0.23878 0.52866 0.0
H1263 H 0.13958 0.75282 0.50643 0.0
H1264 H 0.3152 0.95546 0.79246 0.0
H1265 H 0.3108 0.08461 0.79734 0.0
H1266 H 0.30015 0.0899 0.75131 0.0
H1267 H 0.30838 0.96331 0.74649 0.0
H1268 H 0.34065 0.19772 0.76184 0.0
H1269 H 0.2141 0.08193 0.77857 0.0
H1270 H 0.17762 1.01072 0.79462 0.0
H1271 H 0.21385 0.15809 0.83187 0.0
H1272 H 0.25249 0.22902 0.81609 0.0
H1273 H 0.22744 0.50481 0.7545 0.0
H1274 H 0.24885 0.3821 0.75426 0.0
H1275 H 0.24351 0.41261 0.80111 0.0
H1276 H 0.21793 0.53188 0.80116 0.0
H1277 H 0.22192 0.29331 0.79401 0.0
H1278 H 0.34302 0.41373 0.77817 0.0
H1279 H 0.38398 0.48563 0.76308 0.0
H1280 H 0.35891 0.33436 0.72526 0.0
H1281 H 0.31767 0.26179 0.74002 0.0
C1282 C 0.31291 0.98479 0.78345 0.0
C1283 C 0.31222 0.94952 0.76912 0.0
C1284 C 0.31005 0.05847 0.78621 0.0
C1285 C 0.30395 0.09744 0.77471 0.0
C1286 C 0.30487 0.06181 0.76042 0.0
C1287 C 0.30946 0.98905 0.75766 0.0
C1288 C 0.29335 0.17403 0.77719 0.0
C1289 C 0.31437 0.21844 0.76878 0.0
C1290 C 0.26043 0.20256 0.78675 0.0
C1291 C 0.23682 0.16013 0.79616 0.0
C1292 C 0.21482 0.09872 0.7902 0.0
C1293 C 0.19373 0.05834 0.79926 0.0
C1294 C 0.19329 0.07965 0.81426 0.0
C1295 C 0.21425 0.14146 0.82025 0.0
C1296 C 0.23599 0.18161 0.81126 0.0
C1297 C 0.22955 0.48416 0.76466 0.0
C1298 C 0.22025 0.52723 0.7778 0.0
C1299 C 0.2428 0.41454 0.76458 0.0
C1300 C 0.24949 0.38808 0.77771 0.0
C1301 C 0.23882 0.43093 0.7908 0.0
C1302 C 0.22385 0.49925 0.79082 0.0
C1303 C 0.26729 0.31606 0.77792 0.0
C1304 C 0.24822 0.27299 0.78705 0.0
C1305 C 0.30213 0.2889 0.76908 0.0
C1306 C 0.327 0.33259 0.7602 0.0
C1307 C 0.34607 0.39602 0.76663 0.0
C1308 C 0.36933 0.43685 0.75814 0.0
C1309 C 0.37388 0.41469 0.74325 0.0
C1310 C 0.35532 0.3515 0.7368 0.0
C1311 C 0.33209 0.31043 0.74522 0.0
H1312 H 0.39187 0.44642 0.73671 0.0
H1313 H 0.17665 0.04835 0.82122 0.0
H1314 H 0.82894 0.53252 0.79623 0.0
H1315 H 0.81213 0.6589 0.79932 0.0
H1316 H 0.7683 0.63526 0.75492 0.0
H1317 H 0.78869 0.51215 0.75153 0.0
H1318 H 0.81584 0.74446 0.75999 0.0
H1319 H 0.67158 0.70484 0.78913 0.0
H1320 H 0.63642 0.66106 0.80981 0.0
H1321 H 0.74801 0.71303 0.83604 0.0
H1322 H 0.78265 0.76134 0.81586 0.0
H1323 H 0.71288 0.07005 0.75624 0.0
H1324 H 0.72817 0.94417 0.75521 0.0
H1325 H 0.74752 0.97697 0.80167 0.0
H1326 H 0.7273 0.09939 0.80276 0.0
H1327 H 0.7152 0.86346 0.79666 0.0
H1328 H 0.83415 0.95816 0.77099 0.0
H1329 H 0.86711 1.01416 0.75141 0.0
H1330 H 0.81074 0.85794 0.71928 0.0
H1331 H 0.77724 0.80125 0.73849 0.0
C1332 C 0.81619 0.55506 0.78717 0.0
C1333 C 0.81122 0.51337 0.77356 0.0
C1334 C 0.80555 0.62689 0.78901 0.0
C1335 C 0.78778 0.65688 0.77746 0.0
C1336 C 0.78205 0.61407 0.76401 0.0
C1337 C 0.79403 0.54367 0.76205 0.0
C1338 C 0.77738 0.7332 0.77866 0.0
C1339 C 0.79378 0.77054 0.76803 0.0
C1340 C 0.74937 0.76824 0.78925 0.0
C1341 C 0.7303 0.73388 0.80085 0.0
C1342 C 0.68878 0.70588 0.79925 0.0
C1343 C 0.66877 0.68109 0.81091 0.0
C1344 C 0.69032 0.68267 0.82408 0.0
C1345 C 0.73157 0.71081 0.82576 0.0
C1346 C 0.75124 0.73749 0.81427 0.0
C1347 C 0.71908 0.04929 0.76621 0.0
C1348 C 0.7179 0.0937 0.7796 0.0
C1349 C 0.72889 0.97771 0.76563 0.0
C1350 C 0.74037 0.95049 0.77833 0.0
C1351 C 0.73862 0.99551 0.79168 0.0
C1352 C 0.72685 0.06573 0.79232 0.0
C1353 C 0.75395 0.87565 0.77802 0.0
C1354 C 0.73777 0.83823 0.7887 0.0
C1355 C 0.78292 0.84102 0.76762 0.0
C1356 C 0.80284 0.87598 0.75616 0.0
C1357 C 0.82857 0.93613 0.75974 0.0
C1358 C 0.84738 0.96787 0.74874 0.0
C1359 C 0.84089 0.93982 0.73419 0.0
C1360 C 0.81568 0.87974 0.73056 0.0
C1361 C 0.79682 0.84773 0.74148 0.0
H1362 H 0.85549 0.96457 0.72572 0.0
H1363 H 0.67484 0.66293 0.83304 0.0
H1364 H 0.57066 0.80405 0.5495 0.0
H1365 H 0.55153 0.68149 0.54903 0.0
H1366 H 0.4875 0.68062 0.50798 0.0
H1367 H 0.50433 0.8054 0.50889 0.0
H1368 H 0.43844 0.62247 0.52338 0.0
H1369 H 0.58721 0.59136 0.51432 0.0
H1370 H 0.66493 0.60656 0.51784 0.0
H1371 H 0.65626 0.52911 0.55857 0.0
H1372 H 0.57826 0.51482 0.55547 0.0
H1373 H 0.40815 0.25923 0.50519 0.0
H1374 H 0.42468 0.38287 0.50859 0.0
H1375 H 0.48249 0.36726 0.55001 0.0
H1376 H 0.4684 0.24022 0.54614 0.0
H1377 H 0.53289 0.4356 0.53649 0.0
H1378 H 0.38143 0.47255 0.54495 0.0
H1379 H 0.30466 0.45185 0.53961 0.0
H1380 H 0.32201 0.51134 0.49743 0.0
H1381 H 0.39879 0.53185 0.50248 0.0
C1382 C 0.55364 0.77754 0.54011 0.0
C1383 C 0.53941 0.81503 0.52916 0.0
C1384 C 0.54262 0.70682 0.53986 0.0
C1385 C 0.5183 0.67062 0.5284 0.0
C1386 C 0.50617 0.70688 0.51701 0.0
C1387 C 0.51633 0.77824 0.51742 0.0
C1388 C 0.50289 0.59704 0.52885 0.0
C1389 C 0.45944 0.58158 0.52606 0.0
C1390 C 0.52971 0.54333 0.53272 0.0
C1391 C 0.5766 0.5533 0.53478 0.0
C1392 C 0.60168 0.57879 0.52416 0.0
C1393 C 0.64584 0.58707 0.52606 0.0
C1394 C 0.66541 0.56968 0.53851 0.0
C1395 C 0.64094 0.54331 0.54901 0.0
C1396 C 0.59675 0.53507 0.54718 0.0
C1397 C 0.42348 0.28171 0.51525 0.0
C1398 C 0.43726 0.23869 0.52532 0.0
C1399 C 0.43261 0.35356 0.51726 0.0
C1400 C 0.4543 0.38589 0.5297 0.0
C1401 C 0.46567 0.34409 0.54029 0.0
C1402 C 0.45727 0.2713 0.53813 0.0
C1403 C 0.46889 0.4609 0.53071 0.0
C1404 C 0.51211 0.47681 0.53385 0.0
C1405 C 0.44212 0.51486 0.52698 0.0
C1406 C 0.39579 0.50369 0.52409 0.0
C1407 C 0.36882 0.48111 0.53454 0.0
C1408 C 0.32534 0.46934 0.53156 0.0
C1409 C 0.30858 0.47984 0.51815 0.0
C1410 C 0.33508 0.50298 0.50778 0.0
C1411 C 0.37849 0.51507 0.51073 0.0
H1412 H 0.27505 0.47014 0.51578 0.0
H1413 H 0.69961 0.57603 0.53995 0.0
H1414 H 0.39198 0.76195 1.00636 0.0
H1415 H 0.40867 0.88619 1.00788 0.0
H1416 H 0.48799 0.8759 0.04538 0.0
H1417 H 0.47284 0.75022 0.0436 0.0
H1418 H 0.4015 1.00215 0.02557 0.0
H1419 H 0.57626 0.97182 0.04399 0.0
H1420 H 0.63028 0.87772 0.04299 0.0
H1421 H 0.57289 0.76997 1.00398 0.0
H1422 H 0.51893 0.86325 1.00471 0.0
H1423 H 0.56052 0.30323 0.04638 0.0
H1424 H 0.54611 0.17723 0.04367 0.0
H1425 H 0.47132 0.19043 1.00527 0.0
H1426 H 0.48425 0.31718 1.00825 0.0
H1427 H 0.55597 0.06161 0.0247 0.0
H1428 H 0.38367 0.08621 1.00484 0.0
H1429 H 0.32658 0.17482 1.00497 0.0
H1430 H 0.37739 0.28926 0.04439 0.0
H1431 H 0.43427 0.20164 0.04457 0.0
C1432 C 0.41231 0.78613 1.01514 0.0
C1433 C 0.43179 0.74571 0.0247 0.0
C1434 C 0.42185 0.85738 1.01597 0.0
C1435 C 0.45062 0.88975 0.02645 0.0
C1436 C 0.46674 0.8513 0.03691 0.0
C1437 C 0.45771 0.77963 0.03597 0.0
C1438 C 0.4657 0.9622 0.02577 0.0
C1439 C 0.43526 1.01498 0.02521 0.0
C1440 C 0.50978 0.97894 0.02533 0.0
C1441 C 0.54331 0.9241 0.02451 0.0
C1442 C 0.57538 0.92817 0.03517 0.0
C1443 C 0.60593 0.87484 0.03467 0.0
C1444 C 0.60483 0.81751 0.0235 0.0
C1445 C 0.57358 0.81389 1.0127 0.0
C1446 C 0.54299 0.86696 1.01315 0.0
C1447 C 0.54189 0.27907 0.03715 0.0
C1448 C 0.52291 0.32017 0.02766 0.0
C1449 C 0.53359 0.207 0.03563 0.0
C1450 C 0.50658 0.17489 0.02453 0.0
C1451 C 0.49121 0.21459 1.01418 0.0
C1452 C 0.49887 0.28686 1.01583 0.0
C1453 C 0.49171 0.10176 0.0246 0.0
C1454 C 0.52222 0.04874 0.02501 0.0
C1455 C 0.4476 0.08446 0.02462 0.0
C1456 C 0.41351 0.13784 0.02462 0.0
C1457 C 0.38256 0.13044 1.01353 0.0
C1458 C 0.35023 0.18058 1.01355 0.0
C1459 C 0.34841 0.2381 0.02465 0.0
C1460 C 0.37885 0.2453 0.03576 0.0
C1461 C 0.41119 0.19543 0.0358 0.0
H1462 H 0.32337 0.2769 0.02469 0.0
H1463 H 0.62815 0.7759 0.02323 0.0
H1464 H 0.34042 0.54598 0.03366 0.0
H1465 H 0.26494 0.52032 0.03545 0.0
H1466 H 0.2935 0.36302 0.0624 0.0
H1467 H 0.37001 0.39068 0.06119 0.0
H1468 H 0.25825 0.37217 0.02285 0.0
H1469 H 0.18296 0.34426 0.07862 0.0
H1470 H 0.17644 0.40848 0.10349 0.0
H1471 H 0.20647 0.60234 0.08818 0.0
H1472 H 0.21243 0.53963 0.06316 0.0
H1473 H 0.09093 0.11685 0.0377 0.0
H1474 H 0.13736 0.21372 0.04758 0.0
H1475 H 0.10683 0.32168 1.01156 0.0
H1476 H 0.06057 0.22371 1.00133 0.0
H1477 H 0.13602 0.3548 0.056 0.0
H1478 H 0.19911 0.38003 0.99948 0.0
H1479 H 0.20248 0.31219 0.9748 0.0
H1480 H 0.20148 0.11909 0.99267 0.0
H1481 H 0.1985 0.1859 1.01743 0.0
C1482 C 0.33085 0.50724 0.04035 0.0
C1483 C 0.3613 0.46708 0.04659 0.0
C1484 C 0.2875 0.49361 0.04154 0.0
C1485 C 0.27389 0.43926 0.04886 0.0
C1486 C 0.30359 0.4054 0.05672 0.0
C1487 C 0.34728 0.42011 0.05576 0.0
C1488 C 0.23319 0.40436 0.04438 0.0
C1489 C 0.23116 0.36968 0.03004 0.0
C1490 C 0.19862 0.39971 0.0539 0.0
C1491 C 0.1985 0.43707 0.06902 0.0
C1492 C 0.18839 0.40056 0.08056 0.0
C1493 C 0.18466 0.43669 0.09468 0.0
C1494 C 0.19085 0.50939 0.09739 0.0
C1495 C 0.20166 0.54599 0.08605 0.0
C1496 C 0.20539 0.51011 0.07189 0.0
C1497 C 0.09369 0.16139 0.0319 0.0
C1498 C 0.0733 0.16165 1.01846 0.0
C1499 C 0.11979 0.21717 0.0377 0.0
C1500 C 0.12589 0.27409 0.03018 0.0
C1501 C 0.1028 0.27747 1.01739 0.0
C1502 C 0.07678 0.22131 1.01151 0.0
C1503 C 0.16139 0.32308 0.03454 0.0
C1504 C 0.16284 0.35907 0.0488 0.0
C1505 C 0.196 0.32852 0.02506 0.0
C1506 C 0.19799 0.28789 1.01025 0.0
C1507 C 0.19962 0.32311 0.99811 0.0
C1508 C 0.20148 0.28485 0.98413 0.0
C1509 C 0.20201 0.21137 0.98217 0.0
C1510 C 0.20087 0.17599 0.9942 0.0
C1511 C 0.19905 0.214 1.0082 0.0
H1512 H 0.20343 0.18184 0.97133 0.0
H1513 H 0.187 0.53733 0.10828 0.0
H1514 H 0.89936 0.89019 1.00571 0.0
H1515 H 0.84637 0.80205 0.99644 0.0
H1516 H 0.85742 0.70818 0.03545 0.0
H1517 H 0.91173 0.79547 0.04472 0.0
H1518 H 0.82759 0.61209 1.0085 0.0
H1519 H 0.79733 0.83973 0.03915 0.0
H1520 H 0.80476 0.96873 0.04472 0.0
H1521 H 0.75331 0.98976 1.00288 0.0
H1522 H 0.74628 0.86068 0.997 0.0
H1523 H 0.60986 0.57299 0.03289 0.0
H1524 H 0.68548 0.60007 0.03057 0.0
H1525 H 0.66115 0.66803 0.98935 0.0
H1526 H 0.5851 0.64301 0.9917 0.0
H1527 H 0.70007 0.76725 1.01318 0.0
H1528 H 0.76272 0.54002 0.98108 0.0
H1529 H 0.75601 0.41109 0.97446 0.0
H1530 H 0.73844 0.39064 1.01932 0.0
H1531 H 0.74487 0.5192 0.02613 0.0
C1532 C 0.8916 0.84957 1.01215 0.0
C1533 C 0.90833 0.85119 0.02619 0.0
C1534 C 0.86179 0.7986 1.00672 0.0
C1535 C 0.84757 0.74989 1.01542 0.0
C1536 C 0.86809 0.7457 0.02863 0.0
C1537 C 0.89857 0.7962 0.034 0.0
C1538 C 0.80478 0.71892 1.01278 0.0
C1539 C 0.79969 0.64576 1.00964 0.0
C1540 C 0.76846 0.76318 1.01391 0.0
C1541 C 0.77177 0.84073 1.01758 0.0
C1542 C 0.78788 0.87191 0.03112 0.0
C1543 C 0.792 0.94498 0.03433 0.0
C1544 C 0.77963 0.98741 0.02415 0.0
C1545 C 0.76296 0.95683 1.01075 0.0
C1546 C 0.7589 0.88375 1.00747 0.0
C1547 C 0.62061 0.59274 0.02322 0.0
C1548 C 0.59149 0.60593 1.01247 0.0
C1549 C 0.66392 0.6069 1.0218 0.0
C1550 C 0.67883 0.63336 1.00954 0.0
C1551 C 0.65012 0.64565 0.99868 0.0
C1552 C 0.60671 0.63191 1.00012 0.0
C1553 C 0.72264 0.66037 1.00945 0.0
C1554 C 0.72791 0.73333 1.01203 0.0
C1555 C 0.75868 0.61593 1.00799 0.0
C1556 C 0.75425 0.53894 1.00409 0.0
C1557 C 0.75739 0.50785 0.9895 0.0
C1558 C 0.75361 0.43491 0.98572 0.0
C1559 C 0.7468 0.39269 0.99646 0.0
C1560 C 0.74369 0.42336 1.01101 0.0
C1561 C 0.74738 0.49626 1.01483 0.0
H1562 H 0.74394 0.33625 0.99352 0.0
H1563 H 0.78287 0.04398 0.02665 0.0
H1564 H 0.13525 0.27128 0.27901 0.0
H1565 H 0.06663 0.3301 0.28289 0.0
H1566 H 0.09437 0.45067 0.24855 0.0
H1567 H 0.16352 0.39188 0.2445 0.0
H1568 H 0.08452 0.52688 0.27658 0.0
H1569 H 0.0122 0.34489 0.24451 0.0
H1570 H 0.98921 0.22398 0.23501 0.0
H1571 H 0.93066 0.20533 0.27592 0.0
H1572 H 0.95358 0.32585 0.2857 0.0
H1573 H 0.90395 0.7268 0.27333 0.0
H1574 H 0.96697 0.65305 0.27172 0.0
H1575 H 0.91001 0.52728 0.30136 0.0
H1576 H 0.84607 0.60078 0.30277 0.0
H1577 H 0.93387 0.44838 0.27765 0.0
H1578 H 0.00016 0.622 0.31068 0.0
H1579 H 0.02624 0.73618 0.32318 0.0
H1580 H 0.10188 0.76293 0.28597 0.0
H1581 H 0.07547 0.64982 0.27307 0.0
C1582 C 0.12652 0.30936 0.27208 0.0
C1583 C 0.15511 0.32858 0.26171 0.0
C1584 C 0.08706 0.34203 0.27418 0.0
C1585 C 0.07578 0.39409 0.26595 0.0
C1586 C 0.10281 0.4099 0.25488 0.0
C1587 C 0.14229 0.37687 0.25269 0.0
C1588 C 0.04055 0.44126 0.27091 0.0
C1589 C 0.05151 0.51028 0.27677 0.0
C1590 C -0.00188 0.41733 0.27172 0.0
C1591 C 0.98504 0.34425 0.26589 0.0
C1592 C 0.99484 0.31476 0.25154 0.0
C1593 C 0.98164 0.24635 0.24608 0.0
C1594 C 0.95848 0.20696 0.25485 0.0
C1595 C 0.9485 0.23589 0.26911 0.0
C1596 C 0.96156 0.30428 0.27462 0.0
C1597 C 0.90498 0.68409 0.27968 0.0
C1598 C 0.86988 0.66851 0.28802 0.0
C1599 C 0.94126 0.64254 0.27889 0.0
C1600 C 0.94314 0.58528 0.28653 0.0
C1601 C 0.90902 0.57158 0.29544 0.0
C1602 C 0.87257 0.6132 0.29619 0.0
C1603 C 0.97801 0.53466 0.28339 0.0
C1604 C 0.96711 0.4649 0.27785 0.0
C1605 C 0.02104 0.55704 0.28343 0.0
C1606 C 0.03531 0.62739 0.29081 0.0
C1607 C 0.02174 0.65267 0.30504 0.0
C1608 C 0.03674 0.71721 0.31222 0.0
C1609 C 0.06558 0.7569 0.30535 0.0
C1610 C 0.07939 0.73226 0.29126 0.0
C1611 C 0.06437 0.66792 0.284 0.0
H1612 H 0.07732 0.80666 0.31097 0.0
H1613 H 0.94821 0.15407 0.2506 0.0
H1614 H 0.43711 0.79025 0.54636 0.0
H1615 H 0.38714 0.69203 0.53986 0.0
H1616 H 0.30994 0.8223 0.51628 0.0
H1617 H 0.35934 0.91945 0.52252 0.0
H1618 H 0.30679 0.675 0.54562 0.0
H1619 H 0.26916 0.737 0.48631 0.0
H1620 H 0.31066 0.76911 0.46586 0.0
H1621 H 0.42538 0.69244 0.48328 0.0
H1622 H 0.38462 0.65881 0.50371 0.0
H1623 H 0.09241 0.66034 0.53134 0.0
H1624 H 0.16881 0.68336 0.53509 0.0
H1625 H 0.19676 0.53807 0.49613 0.0
H1626 H 0.11998 0.51976 0.49187 0.0
H1627 H 0.24547 0.63498 0.49599 0.0
H1628 H 0.2155 0.50197 0.53191 0.0
H1629 H 0.18127 0.45493 0.55216 0.0
H1630 H 0.2104 0.64554 0.58077 0.0
H1631 H 0.24415 0.69469 0.56064 0.0
C1632 C 0.40951 0.79763 0.53973 0.0
C1633 C 0.40211 0.8624 0.53488 0.0
C1634 C 0.38124 0.74146 0.53599 0.0
C1635 C 0.34561 0.74937 0.52727 0.0
C1636 C 0.33804 0.81433 0.52263 0.0
C1637 C 0.36615 0.87007 0.52629 0.0
C1638 C 0.31419 0.69227 0.5235 0.0
C1639 C 0.29338 0.66525 0.53478 0.0
C1640 C 0.29896 0.67542 0.50912 0.0
C1641 C 0.32354 0.69456 0.49657 0.0
C1642 C 0.30309 0.7259 0.48571 0.0
C1643 C 0.32658 0.74475 0.47413 0.0
C1644 C 0.3706 0.73265 0.47324 0.0
C1645 C 0.39125 0.70164 0.48394 0.0
C1646 C 0.36793 0.6826 0.49553 0.0
C1647 C 0.1151 0.63466 0.52349 0.0
C1648 C 0.10098 0.58977 0.51119 0.0
C1649 C 0.15868 0.64637 0.52578 0.0
C1650 C 0.18875 0.61078 0.51613 0.0
C1651 C 0.1743 0.56602 0.50375 0.0
C1652 C 0.1306 0.55608 0.50123 0.0
C1653 C 0.23495 0.62514 0.51846 0.0
C1654 C 0.25898 0.64287 0.50681 0.0
C1655 C 0.25388 0.63066 0.53242 0.0
C1656 C 0.23278 0.60205 0.54465 0.0
C1657 C 0.21458 0.53421 0.54247 0.0
C1658 C 0.19516 0.50712 0.55396 0.0
C1659 C 0.19379 0.54714 0.56775 0.0
C1660 C 0.21163 0.61451 0.57008 0.0
C1661 C 0.23101 0.64198 0.55862 0.0
H1662 H 0.17889 0.52592 0.57663 0.0
H1663 H 0.38872 0.74745 0.46428 0.0
H1664 H 0.85359 0.5408 0.53596 0.0
H1665 H 0.7777 0.52611 0.54063 0.0
H1666 H 0.80365 0.32054 0.552 0.0
H1667 H 0.87994 0.33897 0.54869 0.0
H1668 H 0.73278 0.44729 0.52507 0.0
H1669 H 0.72835 0.2462 0.56712 0.0
H1670 H 0.76096 0.23745 0.59083 0.0
H1671 H 0.78085 0.46084 0.59855 0.0
H1672 H 0.74748 0.4714 0.57502 0.0
H1673 H 0.61131 0.1585 0.50068 0.0
H1674 H 0.66152 0.2517 0.50992 0.0
H1675 H 0.58987 0.29338 0.54996 0.0
H1676 H 0.54215 0.19518 0.54116 0.0
H1677 H 0.66485 0.29562 0.55705 0.0
H1678 H 0.59417 0.40337 0.52336 0.0
H1679 H 0.55916 0.4282 0.50107 0.0
H1680 H 0.6805 0.41722 0.47933 0.0
H1681 H 0.7161 0.3911 0.50142 0.0
C1682 C 0.84301 0.49331 0.53984 0.0
C1683 C 0.87201 0.43942 0.54149 0.0
C1684 C 0.79967 0.48505 0.54255 0.0
C1685 C 0.7845 0.42185 0.54648 0.0
C1686 C 0.81416 0.37044 0.54922 0.0
C1687 C 0.85773 0.38005 0.54705 0.0
C1688 C 0.73841 0.40381 0.54499 0.0
C1689 C 0.71766 0.41489 0.53216 0.0
C1690 C 0.71733 0.36528 0.55468 0.0
C1691 C 0.73536 0.35958 0.56923 0.0
C1692 C 0.73904 0.29369 0.57394 0.0
C1693 C 0.75783 0.28836 0.58734 0.0
C1694 C 0.77307 0.34851 0.59616 0.0
C1695 C 0.76911 0.41427 0.59168 0.0
C1696 C 0.75024 0.41996 0.57831 0.0
C1697 C 0.60615 0.18826 0.51137 0.0
C1698 C 0.5731 0.17033 0.52024 0.0
C1699 C 0.63455 0.24194 0.51663 0.0
C1700 C 0.62911 0.2807 0.53058 0.0
C1701 C 0.59485 0.26431 0.5392 0.0
C1702 C 0.56748 0.2087 0.53415 0.0
C1703 C 0.66153 0.33373 0.53646 0.0
C1704 C 0.67935 0.32969 0.55016 0.0
C1705 C 0.67899 0.38133 0.52784 0.0
C1706 C 0.65788 0.39583 0.51423 0.0
C1707 C 0.61338 0.40594 0.51384 0.0
C1708 C 0.5934 0.42016 0.5012 0.0
C1709 C 0.61761 0.42449 0.48879 0.0
C1710 C 0.6618 0.41424 0.48898 0.0
C1711 C 0.68191 0.3999 0.50161 0.0
H1712 H 0.60213 0.43564 0.47901 0.0
H1713 H 0.78808 0.34411 0.60642 0.0
H1714 H 0.85163 0.10804 0.77074 0.0
H1715 H 0.91598 0.03534 0.77144 0.0
H1716 H 0.9477 0.14862 0.81367 0.0
H1717 H 0.88325 0.22086 0.81298 0.0
H1718 H 0.00975 0.14953 0.79121 0.0
H1719 H 0.92564 0.9879 0.81305 0.0
H1720 H 0.86244 0.91435 0.81586 0.0
H1721 H 0.88719 0.79137 0.77432 0.0
H1722 H 0.94989 0.86522 0.77107 0.0
H1723 H 0.16635 0.84261 0.79035 0.0
H1724 H 0.10649 0.91837 0.79903 0.0
H1725 H 0.08822 0.96895 0.75595 0.0
H1726 H 0.14911 0.89547 0.74722 0.0
H1727 H 0.02238 0.88964 0.78411 0.0
H1728 H 0.08038 0.08778 0.75918 0.0
H1729 H 0.13257 0.17767 0.75453 0.0
H1730 H 0.14797 0.2422 0.80037 0.0
H1731 H 0.0978 0.14932 0.80525 0.0
C1732 C 0.87232 0.11625 0.78016 0.0
C1733 C 0.86354 0.16916 0.79174 0.0
C1734 C 0.90834 0.07469 0.78065 0.0
C1735 C 0.93569 0.08651 0.79268 0.0
C1736 C 0.92631 0.13859 0.80443 0.0
C1737 C 0.88994 0.17961 0.80401 0.0
C1738 C 0.97704 0.05137 0.79178 0.0
C1739 C 0.01291 0.09273 0.79001 0.0
C1740 C 0.98014 0.97748 0.78987 0.0
C1741 C 0.94256 0.9323 0.79181 0.0
C1742 C 0.91745 0.94553 0.80445 0.0
C1743 C 0.88167 0.90379 0.80612 0.0
C1744 C 0.87079 0.84824 0.79528 0.0
C1745 C 0.89562 0.83442 0.78272 0.0
C1746 C 0.93134 0.87619 0.78096 0.0
C1747 C 0.15019 0.8711 0.78278 0.0
C1748 C 0.16234 0.8634 0.7681 0.0
C1749 C 0.11623 0.9145 0.78778 0.0
C1750 C 0.09435 0.95132 0.77824 0.0
C1751 C 0.1065 0.94429 0.76363 0.0
C1752 C 0.14081 0.90141 0.75862 0.0
C1753 C 0.05487 0.98788 0.78312 0.0
C1754 C 0.01945 0.94648 0.78568 0.0
C1755 C 0.05177 0.06185 0.78544 0.0
C1756 C 0.08702 0.10916 0.78256 0.0
C1757 C 0.09659 0.11848 0.76826 0.0
C1758 C 0.12545 0.17057 0.76558 0.0
C1759 C 0.14386 0.21523 0.77714 0.0
C1760 C 0.13398 0.20717 0.79141 0.0
C1761 C 0.10581 0.15414 0.79414 0.0
H1762 H 0.16524 0.25669 0.77499 0.0
H1763 H 0.84323 0.81583 0.79666 0.0
H1764 H 0.70984 0.44876 0.79155 0.0
H1765 H 0.65712 0.53419 0.80195 0.0
H1766 H 0.60729 0.54434 0.75909 0.0
H1767 H 0.66092 0.45912 0.74862 0.0
H1768 H 0.59283 0.66337 0.77531 0.0
H1769 H 0.56729 0.42154 0.7787 0.0
H1770 H 0.58002 0.30301 0.78485 0.0
H1771 H 0.59271 0.38984 0.82983 0.0
H1772 H 0.58011 0.50939 0.82392 0.0
H1773 H 0.36858 0.54207 0.78775 0.0
H1774 H 0.44503 0.52638 0.79112 0.0
H1775 H 0.46113 0.75195 0.80137 0.0
H1776 H 0.38502 0.76707 0.79632 0.0
H1777 H 0.50346 0.5462 0.80863 0.0
H1778 H 0.55609 0.79933 0.78864 0.0
H1779 H 0.5277 0.89076 0.77527 0.0
H1780 H 0.44226 0.73975 0.75165 0.0
H1781 H 0.47053 0.64743 0.76476 0.0
C1782 C 0.68835 0.47069 0.78434 0.0
C1783 C 0.68819 0.44609 0.76939 0.0
C1784 C 0.65852 0.52002 0.79027 0.0
C1785 C 0.62776 0.54441 0.78133 0.0
C1786 C 0.63073 0.52588 0.76619 0.0
C1787 C 0.66109 0.47698 0.76021 0.0
C1788 C 0.58846 0.57788 0.78771 0.0
C1789 C 0.5734 0.63846 0.78274 0.0
C1790 C 0.56306 0.54473 0.79728 0.0
C1791 C 0.57318 0.47419 0.80088 0.0
C1792 C 0.57318 0.41539 0.78989 0.0
C1793 C 0.58009 0.34812 0.79334 0.0
C1794 C 0.58665 0.33897 0.80775 0.0
C1795 C 0.58699 0.3972 0.81872 0.0
C1796 C 0.5801 0.46468 0.81533 0.0
C1797 C 0.3887 0.58788 0.79073 0.0
C1798 C 0.37213 0.65537 0.79122 0.0
C1799 C 0.43219 0.57924 0.79289 0.0
C1800 C 0.45917 0.63828 0.79613 0.0
C1801 C 0.44126 0.70586 0.79838 0.0
C1802 C 0.39801 0.71446 0.79555 0.0
C1803 C 0.50593 0.62791 0.7952 0.0
C1804 C 0.52325 0.57288 0.80158 0.0
C1805 C 0.53174 0.66225 0.78588 0.0
C1806 C 0.51491 0.71702 0.77783 0.0
C1807 C 0.53127 0.78579 0.78058 0.0
C1808 C 0.51523 0.83768 0.77305 0.0
C1809 C 0.48305 0.82114 0.76267 0.0
C1810 C 0.46706 0.75256 0.75973 0.0
C1811 C 0.48309 0.70045 0.76719 0.0
H1812 H 0.4706 0.86142 0.75688 0.0
H1813 H 0.59182 0.28678 0.81041 0.0
H1814 H 0.67073 0.98105 0.25086 0.0
H1815 H 0.62164 0.06958 0.2628 0.0
H1816 H 0.66206 0.02382 0.30466 0.0
H1817 H 0.70859 0.9324 0.29275 0.0
H1818 H 0.58455 0.98358 0.29947 0.0
H1819 H 0.65482 0.20221 0.2987 0.0
H1820 H 0.6975 0.292 0.28913 0.0
H1821 H 0.60806 0.29421 0.25429 0.0
H1822 H 0.56419 0.2048 0.26379 0.0
H1823 H 0.36873 0.10573 0.30978 0.0
H1824 H 0.44497 0.09143 0.31363 0.0
H1825 H 0.46948 0.12807 0.26977 0.0
H1826 H 0.39403 0.15015 0.26651 0.0
H1827 H 0.52194 0.20294 0.287 0.0
H1828 H 0.47395 0.95404 0.28115 0.0
H1829 H 0.43196 0.85536 0.28812 0.0
H1830 H 0.48044 0.90159 0.33162 0.0
H1831 H 0.5231 0.99985 0.32483 0.0
C1832 C 0.67014 0.99167 0.26261 0.0
C1833 C 0.69236 0.9487 0.2709 0.0
C1834 C 0.64263 0.04317 0.26947 0.0
C1835 C 0.63796 0.05273 0.28465 0.0
C1836 C 0.66503 0.01689 0.29295 0.0
C1837 C 0.69124 0.96402 0.2861 0.0
C1838 C 0.59725 0.08034 0.29102 0.0
C1839 C 0.57133 0.03291 0.29721 0.0
C1840 C 0.57979 0.14379 0.2879 0.0
C1841 C 0.60622 0.19688 0.28199 0.0
C1842 C 0.64433 0.22156 0.28896 0.0
C1843 C 0.66875 0.27252 0.28353 0.0
C1844 C 0.65576 0.29867 0.27104 0.0
C1845 C 0.6181 0.27402 0.26397 0.0
C1846 C 0.59326 0.22353 0.26944 0.0
C1847 C 0.3904 0.11263 0.30114 0.0
C1848 C 0.37575 0.13292 0.28816 0.0
C1849 C 0.43395 0.10304 0.30324 0.0
C1850 C 0.4629 0.11015 0.29208 0.0
C1851 C 0.44774 0.12448 0.27869 0.0
C1852 C 0.40462 0.13647 0.27679 0.0
C1853 C 0.5092 0.10313 0.29403 0.0
C1854 C 0.5359 0.15507 0.28975 0.0
C1855 C 0.52728 0.04268 0.29842 0.0
C1856 C 0.50107 0.98471 0.30256 0.0
C1857 C 0.47532 0.94336 0.29222 0.0
C1858 C 0.45154 0.88748 0.29612 0.0
C1859 C 0.45321 0.87269 0.31033 0.0
C1860 C 0.479 0.91333 0.32064 0.0
C1861 C 0.50309 0.96893 0.31676 0.0
H1862 H 0.43471 0.8295 0.31333 0.0
H1863 H 0.67467 0.33821 0.26685 0.0
loop_
_geom_bond_atom_site_label_1
_geom_bond_atom_site_label_2
_geom_bond_distance
_geom_bond_site_symmetry_2
_ccdc_geom_bond_type
Co0 O3 2.044 1_455 S
Co0 O10 2.264 1_455 S
Co0 O29 2.286 . S
Co0 O30 2.069 1_545 S
Co0 O32 2.015 . S
Co1 O3 2.128 . S
Co1 O9 2.073 . S
Co1 O10 2.327 . S
Co1 O11 1.976 . S
Co2 O3 2.087 1_454 S
Co2 O5 2.087 . S
Co2 O12 2.120 1_455 S
Co2 O13 2.140 1_445 S
Co2 O17 2.103 1_544 S
Co2 O31 2.147 . S
O3 Co0 2.044 1_655 S
O3 Co1 2.128 . S
O3 Co2 2.087 1_656 S
O3 H4 0.973 1_545 S
H4 O3 0.973 1_565 S
O5 Co2 2.087 . S
O5 Co6 2.040 1_445 S
O5 Co7 2.115 1_545 S
O5 H8 0.988 . S
Co6 O5 2.040 1_665 S
Co6 O14 2.286 . S
Co6 O15 2.069 1_565 S
Co6 O16 2.015 . S
Co6 O19 2.264 1_655 S
Co7 O5 2.115 1_565 S
Co7 O18 1.976 . S
Co7 O19 2.327 . S
Co7 O20 2.073 . S
H8 O5 0.988 . S
O9 Co1 2.073 . S
O9 C24 1.245 . S
O10 Co0 2.264 1_655 S
O10 Co1 2.327 . S
O10 C24 1.257 . S
O11 Co1 1.976 . S
O11 C23 1.251 1_556 S
O12 Co2 2.120 1_655 S
O12 C23 1.274 . S
O13 Co2 2.140 1_665 S
O13 C26 1.246 . S
O14 Co6 2.286 . S
O14 C25 1.259 1_565 S
O15 Co6 2.069 1_545 S
O15 C25 1.289 . S
O16 Co6 2.015 . S
O16 C26 1.257 . S
O17 Co2 2.103 1_566 S
O17 C27 1.274 1_556 S
O18 Co7 1.976 . S
O18 C27 1.251 . S
O19 Co6 2.264 1_455 S
O19 Co7 2.327 . S
O19 C28 1.257 . S
O20 Co7 2.073 . S
O20 C28 1.245 . S
C21 O29 1.259 1_565 S
C21 O30 1.289 . S
C22 O31 1.246 1_556 S
C22 O32 1.257 . S
C23 O11 1.251 1_554 S
C23 O12 1.274 . S
C24 O9 1.245 . S
C24 O10 1.257 . S
C25 O14 1.259 1_545 S
C25 O15 1.289 . S
C26 O13 1.246 . S
C26 O16 1.257 . S
C27 O17 1.274 1_554 S
C27 O18 1.251 . S
C28 O19 1.257 . S
C28 O20 1.245 . S
O29 Co0 2.286 . S
O29 C21 1.259 1_545 S
O30 Co0 2.069 1_565 S
O30 C21 1.289 . S
O31 Co2 2.147 . S
O31 C22 1.246 1_554 S
O32 Co0 2.015 . S
O32 C22 1.257 . S
Co33 O36 2.042 . S
Co33 O43 2.264 . S
Co33 O62 2.286 . S
Co33 O63 2.069 . S
Co33 O65 2.015 . S
Co34 O36 2.122 . S
Co34 O42 2.073 . S
Co34 O43 2.327 . S
Co34 O44 1.976 . S
Co35 O36 2.087 . S
Co35 O38 2.087 . S
Co35 O45 2.111 . S
Co35 O46 2.143 . S
Co35 O50 2.111 . S
Co35 O64 2.143 . S
O36 Co33 2.042 . S
O36 Co34 2.122 . S
O36 Co35 2.087 . S
O36 H37 0.980 . S
H37 O36 0.980 . S
O38 Co35 2.087 . S
O38 Co39 2.042 . S
O38 Co40 2.122 . S
O38 H41 0.980 . S
Co39 O38 2.042 . S
Co39 O47 2.286 . S
Co39 O48 2.069 . S
Co39 O49 2.015 . S
Co39 O52 2.264 . S
Co40 O38 2.122 . S
Co40 O51 1.976 . S
Co40 O52 2.327 . S
Co40 O53 2.073 . S
H41 O38 0.980 . S
O42 Co34 2.073 . S
O42 C57 1.245 . S
O43 Co33 2.264 . S
O43 Co34 2.327 . S
O43 C57 1.257 . S
O44 Co34 1.976 . S
O44 C56 1.251 . S
O45 Co35 2.111 . S
O45 C56 1.274 . S
O46 Co35 2.143 . S
O46 C59 1.246 . S
O47 Co39 2.286 . S
O47 C58 1.259 . S
O48 Co39 2.069 . S
O48 C58 1.289 . S
O49 Co39 2.015 . S
O49 C59 1.257 . S
O50 Co35 2.111 . S
O50 C60 1.274 . S
O51 Co40 1.976 . S
O51 C60 1.251 . S
O52 Co39 2.264 . S
O52 Co40 2.327 . S
O52 C61 1.257 . S
O53 Co40 2.073 . S
O53 C61 1.245 . S
C54 O62 1.259 . S
C54 O63 1.289 . S
C55 O64 1.246 . S
C55 O65 1.257 . S
C56 O44 1.251 . S
C56 O45 1.274 . S
C57 O42 1.245 . S
C57 O43 1.257 . S
C58 O47 1.259 . S
C58 O48 1.289 . S
C59 O46 1.246 . S
C59 O49 1.257 . S
C60 O50 1.274 . S
C60 O51 1.251 . S
C61 O52 1.257 . S
C61 O53 1.245 . S
O62 Co33 2.286 . S
O62 C54 1.259 . S
O63 Co33 2.069 . S
O63 C54 1.289 . S
O64 Co35 2.143 . S
O64 C55 1.246 . S
O65 Co33 2.015 . S
O65 C55 1.257 . S
Co66 O69 2.042 . S
Co66 O76 2.264 . S
Co66 O95 2.286 . S
Co66 O96 2.069 . S
Co66 O98 2.015 . S
Co67 O69 2.122 . S
Co67 O75 2.073 . S
Co67 O76 2.327 . S
Co67 O77 1.976 . S
Co68 O69 2.087 . S
Co68 O71 2.087 . S
Co68 O78 2.111 . S
Co68 O79 2.143 . S
Co68 O83 2.111 . S
Co68 O97 2.143 . S
O69 Co66 2.042 . S
O69 Co67 2.122 . S
O69 Co68 2.087 . S
O69 H70 0.980 . S
H70 O69 0.980 . S
O71 Co68 2.087 . S
O71 Co72 2.042 . S
O71 Co73 2.122 . S
O71 H74 0.980 . S
Co72 O71 2.042 . S
Co72 O80 2.286 . S
Co72 O81 2.069 . S
Co72 O82 2.015 . S
Co72 O85 2.264 . S
Co73 O71 2.122 . S
Co73 O84 1.976 . S
Co73 O85 2.327 . S
Co73 O86 2.073 . S
H74 O71 0.980 . S
O75 Co67 2.073 . S
O75 C90 1.245 . S
O76 Co66 2.264 . S
O76 Co67 2.327 . S
O76 C90 1.257 . S
O77 Co67 1.976 . S
O77 C89 1.251 . S
O78 Co68 2.111 . S
O78 C89 1.274 . S
O79 Co68 2.143 . S
O79 C92 1.246 . S
O80 Co72 2.286 . S
O80 C91 1.259 . S
O81 Co72 2.069 . S
O81 C91 1.289 . S
O82 Co72 2.015 . S
O82 C92 1.257 . S
O83 Co68 2.111 . S
O83 C93 1.274 . S
O84 Co73 1.976 . S
O84 C93 1.251 . S
O85 Co72 2.264 . S
O85 Co73 2.327 . S
O85 C94 1.257 . S
O86 Co73 2.073 . S
O86 C94 1.245 . S
C87 O95 1.259 . S
C87 O96 1.289 . S
C88 O97 1.246 . S
C88 O98 1.257 . S
C89 O77 1.251 . S
C89 O78 1.274 . S
C90 O75 1.245 . S
C90 O76 1.257 . S
C91 O80 1.259 . S
C91 O81 1.289 . S
C92 O79 1.246 . S
C92 O82 1.257 . S
C93 O83 1.274 . S
C93 O84 1.251 . S
C94 O85 1.257 . S
C94 O86 1.245 . S
O95 Co66 2.286 . S
O95 C87 1.259 . S
O96 Co66 2.069 . S
O96 C87 1.289 . S
O97 Co68 2.143 . S
O97 C88 1.246 . S
O98 Co66 2.015 . S
O98 C88 1.257 . S
Co99 O102 2.042 1_455 S
Co99 O109 2.264 1_455 S
Co99 O128 2.286 . S
Co99 O129 2.069 . S
Co99 O131 2.015 . S
Co100 O102 2.122 . S
Co100 O108 2.073 . S
Co100 O109 2.327 . S
Co100 O110 1.976 . S
Co101 O102 2.087 1_455 S
Co101 O104 2.087 . S
Co101 O111 2.111 1_455 S
Co101 O112 2.143 1_455 S
Co101 O116 2.111 . S
Co101 O130 2.143 . S
O102 Co99 2.042 1_655 S
O102 Co100 2.122 . S
O102 Co101 2.087 1_655 S
O102 H103 0.980 . S
H103 O102 0.980 . S
O104 Co101 2.087 . S
O104 Co105 2.042 1_455 S
O104 Co106 2.122 . S
O104 H107 0.980 . S
Co105 O104 2.042 1_655 S
Co105 O113 2.286 . S
Co105 O114 2.069 . S
Co105 O115 2.015 . S
Co105 O118 2.264 1_655 S
Co106 O104 2.122 . S
Co106 O117 1.976 . S
Co106 O118 2.327 . S
Co106 O119 2.073 . S
H107 O104 0.980 . S
O108 Co100 2.073 . S
O108 C123 1.245 . S
O109 Co99 2.264 1_655 S
O109 Co100 2.327 . S
O109 C123 1.257 . S
O110 Co100 1.976 . S
O110 C122 1.251 . S
O111 Co101 2.111 1_655 S
O111 C122 1.274 . S
O112 Co101 2.143 1_655 S
O112 C125 1.246 . S
O113 Co105 2.286 . S
O113 C124 1.259 . S
O114 Co105 2.069 . S
O114 C124 1.289 . S
O115 Co105 2.015 . S
O115 C125 1.257 . S
O116 Co101 2.111 . S
O116 C126 1.274 . S
O117 Co106 1.976 . S
O117 C126 1.251 . S
O118 Co105 2.264 1_455 S
O118 Co106 2.327 . S
O118 C127 1.257 . S
O119 Co106 2.073 . S
O119 C127 1.245 . S
C120 O128 1.259 . S
C120 O129 1.289 . S
C121 O130 1.246 . S
C121 O131 1.257 . S
C122 O110 1.251 . S
C122 O111 1.274 . S
C123 O108 1.245 . S
C123 O109 1.257 . S
C124 O113 1.259 . S
C124 O114 1.289 . S
C125 O112 1.246 . S
C125 O115 1.257 . S
C126 O116 1.274 . S
C126 O117 1.251 . S
C127 O118 1.257 . S
C127 O119 1.245 . S
O128 Co99 2.286 . S
O128 C120 1.259 . S
O129 Co99 2.069 . S
O129 C120 1.289 . S
O130 Co101 2.143 . S
O130 C121 1.246 . S
O131 Co99 2.015 . S
O131 C121 1.257 . S
Co132 O135 2.042 . S
Co132 O142 2.264 . S
Co132 O161 2.286 . S
Co132 O162 2.069 . S
Co132 O164 2.015 . S
Co133 O135 2.122 . S
Co133 O141 2.073 . S
Co133 O142 2.327 . S
Co133 O143 1.976 . S
Co134 O135 2.087 . S
Co134 O137 2.087 . S
Co134 O144 2.111 . S
Co134 O145 2.143 . S
Co134 O149 2.111 . S
Co134 O163 2.143 . S
O135 Co132 2.042 . S
O135 Co133 2.122 . S
O135 Co134 2.087 . S
O135 H136 0.980 . S
H136 O135 0.980 . S
O137 Co134 2.087 . S
O137 Co138 2.042 . S
O137 Co139 2.122 . S
O137 H140 0.980 . S
Co138 O137 2.042 . S
Co138 O146 2.286 . S
Co138 O147 2.069 . S
Co138 O148 2.015 . S
Co138 O151 2.264 . S
Co139 O137 2.122 . S
Co139 O150 1.976 . S
Co139 O151 2.327 . S
Co139 O152 2.073 . S
H140 O137 0.980 . S
O141 Co133 2.073 . S
O141 C156 1.245 . S
O142 Co132 2.264 . S
O142 Co133 2.327 . S
O142 C156 1.257 . S
O143 Co133 1.976 . S
O143 C155 1.251 . S
O144 Co134 2.111 . S
O144 C155 1.274 . S
O145 Co134 2.143 . S
O145 C158 1.246 . S
O146 Co138 2.286 . S
O146 C157 1.259 . S
O147 Co138 2.069 . S
O147 C157 1.289 . S
O148 Co138 2.015 . S
O148 C158 1.257 . S
O149 Co134 2.111 . S
O149 C159 1.274 . S
O150 Co139 1.976 . S
O150 C159 1.251 . S
O151 Co138 2.264 . S
O151 Co139 2.327 . S
O151 C160 1.257 . S
O152 Co139 2.073 . S
O152 C160 1.245 . S
C153 O161 1.259 . S
C153 O162 1.289 . S
C154 O163 1.246 . S
C154 O164 1.257 . S
C155 O143 1.251 . S
C155 O144 1.274 . S
C156 O141 1.245 . S
C156 O142 1.257 . S
C157 O146 1.259 . S
C157 O147 1.289 . S
C158 O145 1.246 . S
C158 O148 1.257 . S
C159 O149 1.274 . S
C159 O150 1.251 . S
C160 O151 1.257 . S
C160 O152 1.245 . S
O161 Co132 2.286 . S
O161 C153 1.259 . S
O162 Co132 2.069 . S
O162 C153 1.289 . S
O163 Co134 2.143 . S
O163 C154 1.246 . S
O164 Co132 2.015 . S
O164 C154 1.257 . S
Co165 O168 2.042 . S
Co165 O175 2.264 . S
Co165 O194 2.286 . S
Co165 O195 2.069 . S
Co165 O197 2.015 . S
Co166 O168 2.122 . S
Co166 O174 2.073 . S
Co166 O175 2.327 . S
Co166 O176 1.976 . S
Co167 O168 2.087 . S
Co167 O170 2.087 . S
Co167 O177 2.111 . S
Co167 O178 2.143 . S
Co167 O182 2.111 . S
Co167 O196 2.143 . S
O168 Co165 2.042 . S
O168 Co166 2.122 . S
O168 Co167 2.087 . S
O168 H169 0.980 . S
H169 O168 0.980 . S
O170 Co167 2.087 . S
O170 Co171 2.042 . S
O170 Co172 2.122 . S
O170 H173 0.980 . S
Co171 O170 2.042 . S
Co171 O179 2.286 . S
Co171 O180 2.069 . S
Co171 O181 2.015 . S
Co171 O184 2.264 . S
Co172 O170 2.122 . S
Co172 O183 1.976 . S
Co172 O184 2.327 . S
Co172 O185 2.073 . S
H173 O170 0.980 . S
O174 Co166 2.073 . S
O174 C189 1.245 . S
O175 Co165 2.264 . S
O175 Co166 2.327 . S
O175 C189 1.257 . S
O176 Co166 1.976 . S
O176 C188 1.251 . S
O177 Co167 2.111 . S
O177 C188 1.274 . S
O178 Co167 2.143 . S
O178 C191 1.246 . S
O179 Co171 2.286 . S
O179 C190 1.259 . S
O180 Co171 2.069 . S
O180 C190 1.289 . S
O181 Co171 2.015 . S
O181 C191 1.257 . S
O182 Co167 2.111 . S
O182 C192 1.274 . S
O183 Co172 1.976 . S
O183 C192 1.251 . S
O184 Co171 2.264 . S
O184 Co172 2.327 . S
O184 C193 1.257 . S
O185 Co172 2.073 . S
O185 C193 1.245 . S
C186 O194 1.259 . S
C186 O195 1.289 . S
C187 O196 1.246 . S
C187 O197 1.257 . S
C188 O176 1.251 . S
C188 O177 1.274 . S
C189 O174 1.245 . S
C189 O175 1.257 . S
C190 O179 1.259 . S
C190 O180 1.289 . S
C191 O178 1.246 . S
C191 O181 1.257 . S
C192 O182 1.274 . S
C192 O183 1.251 . S
C193 O184 1.257 . S
C193 O185 1.245 . S
O194 Co165 2.286 . S
O194 C186 1.259 . S
O195 Co165 2.069 . S
O195 C186 1.289 . S
O196 Co167 2.143 . S
O196 C187 1.246 . S
O197 Co165 2.015 . S
O197 C187 1.257 . S
Co198 O201 2.045 . S
Co198 O208 2.264 . S
Co198 O227 2.286 . S
Co198 O228 2.069 1_545 S
Co198 O230 2.015 . S
Co199 O201 2.130 . S
Co199 O207 2.073 . S
Co199 O208 2.327 . S
Co199 O209 1.976 . S
Co200 O201 2.087 . S
Co200 O203 2.087 . S
Co200 O210 2.122 . S
Co200 O211 2.139 1_545 S
Co200 O215 2.101 1_545 S
Co200 O229 2.148 . S
O201 Co198 2.045 . S
O201 Co199 2.130 . S
O201 Co200 2.087 . S
O201 H202 0.971 1_545 S
H202 O201 0.971 1_565 S
O203 Co200 2.087 . S
O203 Co204 2.039 1_545 S
O203 Co205 2.113 1_545 S
O203 H206 0.990 . S
Co204 O203 2.039 1_565 S
Co204 O212 2.286 . S
Co204 O213 2.069 1_565 S
Co204 O214 2.015 . S
Co204 O217 2.264 . S
Co205 O203 2.113 1_565 S
Co205 O216 1.976 . S
Co205 O217 2.327 . S
Co205 O218 2.073 . S
H206 O203 0.990 . S
O207 Co199 2.073 . S
O207 C222 1.245 . S
O208 Co198 2.264 . S
O208 Co199 2.327 . S
O208 C222 1.257 . S
O209 Co199 1.976 . S
O209 C221 1.251 . S
O210 Co200 2.122 . S
O210 C221 1.274 . S
O211 Co200 2.139 1_565 S
O211 C224 1.246 . S
O212 Co204 2.286 . S
O212 C223 1.259 1_565 S
O213 Co204 2.069 1_545 S
O213 C223 1.289 . S
O214 Co204 2.015 . S
O214 C224 1.257 . S
O215 Co200 2.101 1_565 S
O215 C225 1.274 . S
O216 Co205 1.976 . S
O216 C225 1.251 . S
O217 Co204 2.264 . S
O217 Co205 2.327 . S
O217 C226 1.257 . S
O218 Co205 2.073 . S
O218 C226 1.245 . S
C219 O227 1.259 1_565 S
C219 O228 1.289 . S
C220 O229 1.246 . S
C220 O230 1.257 . S
C221 O209 1.251 . S
C221 O210 1.274 . S
C222 O207 1.245 . S
C222 O208 1.257 . S
C223 O212 1.259 1_545 S
C223 O213 1.289 . S
C224 O211 1.246 . S
C224 O214 1.257 . S
C225 O215 1.274 . S
C225 O216 1.251 . S
C226 O217 1.257 . S
C226 O218 1.245 . S
O227 Co198 2.286 . S
O227 C219 1.259 1_545 S
O228 Co198 2.069 1_565 S
O228 C219 1.289 . S
O229 Co200 2.148 . S
O229 C220 1.246 . S
O230 Co198 2.015 . S
O230 C220 1.257 . S
Co231 O234 2.042 . S
Co231 O241 2.264 . S
Co231 O260 2.286 . S
Co231 O261 2.069 . S
Co231 O263 2.015 . S
Co232 O234 2.122 . S
Co232 O240 2.073 . S
Co232 O241 2.327 . S
Co232 O242 1.976 . S
Co233 O234 2.087 1_554 S
Co233 O236 2.087 . S
Co233 O243 2.111 . S
Co233 O244 2.143 . S
Co233 O248 2.111 1_554 S
Co233 O262 2.143 . S
O234 Co231 2.042 . S
O234 Co232 2.122 . S
O234 Co233 2.087 1_556 S
O234 H235 0.980 . S
H235 O234 0.980 . S
O236 Co233 2.087 . S
O236 Co237 2.042 . S
O236 Co238 2.122 . S
O236 H239 0.980 . S
Co237 O236 2.042 . S
Co237 O245 2.286 . S
Co237 O246 2.069 . S
Co237 O247 2.015 . S
Co237 O250 2.264 . S
Co238 O236 2.122 . S
Co238 O249 1.976 . S
Co238 O250 2.327 . S
Co238 O251 2.073 . S
H239 O236 0.980 . S
O240 Co232 2.073 . S
O240 C255 1.245 . S
O241 Co231 2.264 . S
O241 Co232 2.327 . S
O241 C255 1.257 . S
O242 Co232 1.976 . S
O242 C254 1.251 1_556 S
O243 Co233 2.111 . S
O243 C254 1.274 . S
O244 Co233 2.143 . S
O244 C257 1.246 . S
O245 Co237 2.286 . S
O245 C256 1.259 . S
O246 Co237 2.069 . S
O246 C256 1.289 . S
O247 Co237 2.015 . S
O247 C257 1.257 . S
O248 Co233 2.111 1_556 S
O248 C258 1.274 1_556 S
O249 Co238 1.976 . S
O249 C258 1.251 . S
O250 Co237 2.264 . S
O250 Co238 2.327 . S
O250 C259 1.257 . S
O251 Co238 2.073 . S
O251 C259 1.245 . S
C252 O260 1.259 . S
C252 O261 1.289 . S
C253 O262 1.246 1_556 S
C253 O263 1.257 . S
C254 O242 1.251 1_554 S
C254 O243 1.274 . S
C255 O240 1.245 . S
C255 O241 1.257 . S
C256 O245 1.259 . S
C256 O246 1.289 . S
C257 O244 1.246 . S
C257 O247 1.257 . S
C258 O248 1.274 1_554 S
C258 O249 1.251 . S
C259 O250 1.257 . S
C259 O251 1.245 . S
O260 Co231 2.286 . S
O260 C252 1.259 . S
O261 Co231 2.069 . S
O261 C252 1.289 . S
O262 Co233 2.143 . S
O262 C253 1.246 1_554 S
O263 Co231 2.015 . S
O263 C253 1.257 . S
H264 C282 0.951 . S
H265 C284 0.951 . S
H266 C286 0.950 . S
H267 C287 0.950 . S
H268 C289 0.950 1_565 S
H269 C292 0.950 . S
H270 C293 0.950 . S
H271 C295 0.950 . S
H272 C296 0.950 . S
H273 C297 0.951 . S
H274 C299 0.951 . S
H275 C301 0.950 . S
H276 C302 0.950 . S
H277 C304 0.950 . S
H278 C307 0.950 . S
H279 C308 0.950 . S
H280 C310 0.950 . S
H281 C311 0.950 . S
C282 H264 0.951 . S
C282 C283 1.366 1_545 S
C282 C284 1.388 . S
C283 C282 1.366 1_565 S
C283 C287 1.385 . S
C284 H265 0.951 . S
C284 C282 1.388 . S
C284 C285 1.366 . S
C285 C284 1.366 . S
C285 C286 1.414 1_545 S
C285 C288 1.499 . S
C286 H266 0.950 . S
C286 C285 1.414 1_565 S
C286 C287 1.374 . S
C287 H267 0.950 . S
C287 C283 1.385 . S
C287 C286 1.374 . S
C288 C285 1.499 . S
C288 C289 1.373 . S
C288 C290 1.389 . S
C289 H268 0.950 1_545 S
C289 C288 1.373 . S
C289 C305 1.377 . S
C290 C288 1.389 . S
C290 C291 1.524 . S
C290 C304 1.377 . S
C291 C290 1.524 . S
C291 C292 1.397 . S
C291 C296 1.363 . S
C292 H269 0.950 . S
C292 C291 1.397 . S
C292 C293 1.334 . S
C293 H270 0.950 . S
C293 C292 1.334 . S
C293 C294 1.287 . S
C294 C293 1.287 . S
C294 C295 1.524 . S
C294 H313 0.913 . S
C295 H271 0.950 . S
C295 C294 1.524 . S
C295 C296 1.415 . S
C296 H272 0.950 . S
C296 C291 1.363 . S
C296 C295 1.415 . S
C297 H273 0.951 . S
C297 C298 1.366 . S
C297 C299 1.388 . S
C298 C297 1.366 . S
C298 C302 1.385 . S
C299 H274 0.951 . S
C299 C297 1.388 . S
C299 C300 1.366 . S
C300 C299 1.366 . S
C300 C301 1.414 . S
C300 C303 1.499 . S
C301 H275 0.950 . S
C301 C300 1.414 . S
C301 C302 1.374 . S
C302 H276 0.950 . S
C302 C298 1.385 . S
C302 C301 1.374 . S
C303 C300 1.499 . S
C303 C304 1.373 . S
C303 C305 1.389 . S
C304 H277 0.950 . S
C304 C290 1.377 . S
C304 C303 1.373 . S
C305 C289 1.377 . S
C305 C303 1.389 . S
C305 C306 1.524 . S
C306 C305 1.524 . S
C306 C307 1.397 . S
C306 C311 1.363 1_545 S
C307 H278 0.950 . S
C307 C306 1.397 . S
C307 C308 1.334 . S
C308 H279 0.950 . S
C308 C307 1.334 . S
C308 C309 1.287 1_545 S
C309 C308 1.287 1_565 S
C309 C310 1.524 . S
C309 H312 0.999 . S
C310 H280 0.950 . S
C310 C309 1.524 . S
C310 C311 1.415 . S
C311 H281 0.950 . S
C311 C306 1.363 1_565 S
C311 C310 1.415 . S
H312 C309 0.999 . S
H313 C294 0.913 . S
H314 C332 0.951 . S
H315 C334 0.951 . S
H316 C336 0.950 . S
H317 C337 0.950 . S
H318 C339 0.950 . S
H319 C342 0.950 . S
H320 C343 0.950 . S
H321 C345 0.950 . S
H322 C346 0.950 . S
H323 C347 0.951 . S
H324 C349 0.951 . S
H325 C351 0.950 . S
H326 C352 0.950 . S
H327 C354 0.950 . S
H328 C357 0.950 . S
H329 C358 0.950 . S
H330 C360 0.950 . S
H331 C361 0.950 . S
C332 H314 0.951 . S
C332 C333 1.366 . S
C332 C334 1.388 1_545 S
C333 C332 1.366 . S
C333 C337 1.385 1_545 S
C334 H315 0.951 . S
C334 C332 1.388 1_565 S
C334 C335 1.366 . S
C335 C334 1.366 . S
C335 C336 1.414 . S
C335 C338 1.499 . S
C336 H316 0.950 . S
C336 C335 1.414 . S
C336 C337 1.374 . S
C337 H317 0.950 . S
C337 C333 1.385 1_565 S
C337 C336 1.374 . S
C338 C335 1.499 . S
C338 C339 1.373 . S
C338 C340 1.389 . S
C339 H318 0.950 . S
C339 C338 1.373 . S
C339 C355 1.377 . S
C340 C338 1.389 . S
C340 C341 1.524 . S
C340 C354 1.377 . S
C341 C340 1.524 . S
C341 C342 1.397 . S
C341 C346 1.363 . S
C342 H319 0.950 . S
C342 C341 1.397 . S
C342 C343 1.334 . S
C343 H320 0.950 . S
C343 C342 1.334 . S
C343 C344 1.287 1_655 S
C344 C343 1.287 1_455 S
C344 C345 1.524 . S
C344 H363 0.913 . S
C345 H321 0.950 . S
C345 C344 1.524 . S
C345 C346 1.415 1_455 S
C346 H322 0.950 . S
C346 C341 1.363 . S
C346 C345 1.415 1_655 S
C347 H323 0.951 . S
C347 C348 1.366 . S
C347 C349 1.388 . S
C348 C347 1.366 . S
C348 C352 1.385 . S
C349 H324 0.951 . S
C349 C347 1.388 . S
C349 C350 1.366 . S
C350 C349 1.366 . S
C350 C351 1.414 . S
C350 C353 1.499 . S
C351 H325 0.950 . S
C351 C350 1.414 . S
C351 C352 1.374 . S
C352 H326 0.950 . S
C352 C348 1.385 . S
C352 C351 1.374 . S
C353 C350 1.499 . S
C353 C354 1.373 . S
C353 C355 1.389 . S
C354 H327 0.950 . S
C354 C340 1.377 . S
C354 C353 1.373 . S
C355 C339 1.377 . S
C355 C353 1.389 . S
C355 C356 1.524 . S
C356 C355 1.524 . S
C356 C357 1.397 1_565 S
C356 C361 1.363 . S
C357 H328 0.950 . S
C357 C356 1.397 1_545 S
C357 C358 1.334 . S
C358 H329 0.950 . S
C358 C357 1.334 . S
C358 C359 1.287 . S
C359 C358 1.287 . S
C359 C360 1.524 . S
C359 H362 0.999 . S
C360 H330 0.950 . S
C360 C359 1.524 . S
C360 C361 1.415 1_545 S
C361 H331 0.950 . S
C361 C356 1.363 . S
C361 C360 1.415 1_565 S
H362 C359 0.999 . S
H363 C344 0.913 . S
H364 C382 0.951 . S
H365 C384 0.951 . S
H366 C386 0.950 . S
H367 C387 0.950 . S
H368 C389 0.950 . S
H369 C392 0.950 . S
H370 C393 0.950 . S
H371 C395 0.950 . S
H372 C396 0.950 . S
H373 C397 0.951 . S
H374 C399 0.951 . S
H375 C401 0.950 . S
H376 C402 0.950 . S
H377 C404 0.950 . S
H378 C407 0.950 . S
H379 C408 0.950 . S
H380 C410 0.950 . S
H381 C411 0.950 . S
C382 H364 0.951 . S
C382 C383 1.366 . S
C382 C384 1.388 . S
C383 C382 1.366 . S
C383 C387 1.385 . S
C384 H365 0.951 . S
C384 C382 1.388 . S
C384 C385 1.366 . S
C385 C384 1.366 . S
C385 C386 1.414 . S
C385 C388 1.499 . S
C386 H366 0.950 . S
C386 C385 1.414 . S
C386 C387 1.374 . S
C387 H367 0.950 . S
C387 C383 1.385 . S
C387 C386 1.374 . S
C388 C385 1.499 . S
C388 C389 1.373 . S
C388 C390 1.389 . S
C389 H368 0.950 . S
C389 C388 1.373 . S
C389 C405 1.377 . S
C390 C388 1.389 . S
C390 C391 1.524 . S
C390 C404 1.377 . S
C391 C390 1.524 . S
C391 C392 1.397 . S
C391 C396 1.363 . S
C392 H369 0.950 . S
C392 C391 1.397 . S
C392 C393 1.334 . S
C393 H370 0.950 . S
C393 C392 1.334 . S
C393 C394 1.287 . S
C394 C393 1.287 . S
C394 C395 1.524 . S
C394 H413 0.913 . S
C395 H371 0.950 . S
C395 C394 1.524 . S
C395 C396 1.415 . S
C396 H372 0.950 . S
C396 C391 1.363 . S
C396 C395 1.415 . S
C397 H373 0.951 . S
C397 C398 1.366 . S
C397 C399 1.388 . S
C398 C397 1.366 . S
C398 C402 1.385 . S
C399 H374 0.951 . S
C399 C397 1.388 . S
C399 C400 1.366 . S
C400 C399 1.366 . S
C400 C401 1.414 . S
C400 C403 1.499 . S
C401 H375 0.950 . S
C401 C400 1.414 . S
C401 C402 1.374 . S
C402 H376 0.950 . S
C402 C398 1.385 . S
C402 C401 1.374 . S
C403 C400 1.499 . S
C403 C404 1.373 . S
C403 C405 1.389 . S
C404 H377 0.950 . S
C404 C390 1.377 . S
C404 C403 1.373 . S
C405 C389 1.377 . S
C405 C403 1.389 . S
C405 C406 1.524 . S
C406 C405 1.524 . S
C406 C407 1.397 . S
C406 C411 1.363 . S
C407 H378 0.950 . S
C407 C406 1.397 . S
C407 C408 1.334 . S
C408 H379 0.950 . S
C408 C407 1.334 . S
C408 C409 1.287 . S
C409 C408 1.287 . S
C409 C410 1.524 . S
C409 H412 0.999 . S
C410 H380 0.950 . S
C410 C409 1.524 . S
C410 C411 1.415 . S
C411 H381 0.950 . S
C411 C406 1.363 . S
C411 C410 1.415 . S
H412 C409 0.999 . S
H413 C394 0.913 . S
H414 C432 0.951 . S
H415 C434 0.951 . S
H416 C436 0.950 . S
H417 C437 0.950 . S
H418 C439 0.950 . S
H419 C442 0.950 . S
H420 C443 0.950 . S
H421 C445 0.950 . S
H422 C446 0.950 . S
H423 C447 0.951 . S
H424 C449 0.951 . S
H425 C451 0.950 . S
H426 C452 0.950 . S
H427 C454 0.950 . S
H428 C457 0.950 . S
H429 C458 0.950 . S
H430 C460 0.950 . S
H431 C461 0.950 . S
C432 H414 0.951 . S
C432 C433 1.366 . S
C432 C434 1.388 . S
C433 C432 1.366 . S
C433 C437 1.385 . S
C434 H415 0.951 . S
C434 C432 1.388 . S
C434 C435 1.366 . S
C435 C434 1.366 . S
C435 C436 1.414 . S
C435 C438 1.499 . S
C436 H416 0.950 . S
C436 C435 1.414 . S
C436 C437 1.374 . S
C437 H417 0.950 . S
C437 C433 1.385 . S
C437 C436 1.374 . S
C438 C435 1.499 . S
C438 C439 1.373 . S
C438 C440 1.389 . S
C439 H418 0.950 . S
C439 C438 1.373 . S
C439 C455 1.377 . S
C440 C438 1.389 . S
C440 C441 1.524 . S
C440 C454 1.377 . S
C441 C440 1.524 . S
C441 C442 1.397 . S
C441 C446 1.363 . S
C442 H419 0.950 . S
C442 C441 1.397 . S
C442 C443 1.334 . S
C443 H420 0.950 . S
C443 C442 1.334 . S
C443 C444 1.287 . S
C444 C443 1.287 . S
C444 C445 1.524 . S
C444 H463 0.913 . S
C445 H421 0.950 . S
C445 C444 1.524 . S
C445 C446 1.415 . S
C446 H422 0.950 . S
C446 C441 1.363 . S
C446 C445 1.415 . S
C447 H423 0.951 . S
C447 C448 1.366 . S
C447 C449 1.388 . S
C448 C447 1.366 . S
C448 C452 1.385 . S
C449 H424 0.951 . S
C449 C447 1.388 . S
C449 C450 1.366 . S
C450 C449 1.366 . S
C450 C451 1.414 . S
C450 C453 1.499 . S
C451 H425 0.950 . S
C451 C450 1.414 . S
C451 C452 1.374 . S
C452 H426 0.950 . S
C452 C448 1.385 . S
C452 C451 1.374 . S
C453 C450 1.499 . S
C453 C454 1.373 . S
C453 C455 1.389 . S
C454 H427 0.950 . S
C454 C440 1.377 . S
C454 C453 1.373 . S
C455 C439 1.377 . S
C455 C453 1.389 . S
C455 C456 1.524 . S
C456 C455 1.524 . S
C456 C457 1.397 . S
C456 C461 1.363 1_655 S
C457 H428 0.950 . S
C457 C456 1.397 . S
C457 C458 1.334 1_655 S
C458 H429 0.950 . S
C458 C457 1.334 1_455 S
C458 C459 1.287 . S
C459 C458 1.287 . S
C459 C460 1.524 . S
C459 H462 0.999 . S
C460 H430 0.950 . S
C460 C459 1.524 . S
C460 C461 1.415 . S
C461 H431 0.950 . S
C461 C456 1.363 1_455 S
C461 C460 1.415 . S
H462 C459 0.999 . S
H463 C444 0.913 . S
H464 C482 0.951 . S
H465 C484 0.951 . S
H466 C486 0.950 . S
H467 C487 0.950 . S
H468 C489 0.950 . S
H469 C492 0.950 . S
H470 C493 0.950 . S
H471 C495 0.950 . S
H472 C496 0.950 . S
H473 C497 0.951 . S
H474 C499 0.951 . S
H475 C501 0.950 . S
H476 C502 0.950 . S
H477 C504 0.950 . S
H478 C507 0.950 . S
H479 C508 0.950 . S
H480 C510 0.950 . S
H481 C511 0.950 . S
C482 H464 0.951 . S
C482 C483 1.366 . S
C482 C484 1.388 . S
C483 C482 1.366 . S
C483 C487 1.385 . S
C484 H465 0.951 . S
C484 C482 1.388 . S
C484 C485 1.366 . S
C485 C484 1.366 . S
C485 C486 1.414 . S
C485 C488 1.499 . S
C486 H466 0.950 . S
C486 C485 1.414 . S
C486 C487 1.374 . S
C487 H467 0.950 . S
C487 C483 1.385 . S
C487 C486 1.374 . S
C488 C485 1.499 . S
C488 C489 1.373 . S
C488 C490 1.389 . S
C489 H468 0.950 . S
C489 C488 1.373 . S
C489 C505 1.377 . S
C490 C488 1.389 . S
C490 C491 1.524 . S
C490 C504 1.377 . S
C491 C490 1.524 . S
C491 C492 1.397 . S
C491 C496 1.363 . S
C492 H469 0.950 . S
C492 C491 1.397 . S
C492 C493 1.334 . S
C493 H470 0.950 . S
C493 C492 1.334 . S
C493 C494 1.287 . S
C494 C493 1.287 . S
C494 C495 1.524 . S
C494 H513 0.913 . S
C495 H471 0.950 . S
C495 C494 1.524 . S
C495 C496 1.415 . S
C496 H472 0.950 . S
C496 C491 1.363 . S
C496 C495 1.415 . S
C497 H473 0.951 . S
C497 C498 1.366 . S
C497 C499 1.388 . S
C498 C497 1.366 . S
C498 C502 1.385 . S
C499 H474 0.951 . S
C499 C497 1.388 . S
C499 C500 1.366 . S
C500 C499 1.366 . S
C500 C501 1.414 . S
C500 C503 1.499 . S
C501 H475 0.950 . S
C501 C500 1.414 . S
C501 C502 1.374 . S
C502 H476 0.950 . S
C502 C498 1.385 . S
C502 C501 1.374 . S
C503 C500 1.499 . S
C503 C504 1.373 . S
C503 C505 1.389 . S
C504 H477 0.950 . S
C504 C490 1.377 . S
C504 C503 1.373 . S
C505 C489 1.377 . S
C505 C503 1.389 . S
C505 C506 1.524 . S
C506 C505 1.524 . S
C506 C507 1.397 . S
C506 C511 1.363 . S
C507 H478 0.950 . S
C507 C506 1.397 . S
C507 C508 1.334 . S
C508 H479 0.950 . S
C508 C507 1.334 . S
C508 C509 1.287 . S
C509 C508 1.287 . S
C509 C510 1.524 . S
C509 H512 0.999 . S
C510 H480 0.950 . S
C510 C509 1.524 . S
C510 C511 1.415 . S
C511 H481 0.950 . S
C511 C506 1.363 . S
C511 C510 1.415 . S
H512 C509 0.999 . S
H513 C494 0.913 . S
H514 C532 0.951 . S
H515 C534 0.951 . S
H516 C536 0.950 . S
H517 C537 0.950 . S
H518 C539 0.950 . S
H519 C542 0.950 . S
H520 C543 0.950 . S
H521 C545 0.950 . S
H522 C546 0.950 . S
H523 C547 0.951 . S
H524 C549 0.951 . S
H525 C551 0.950 . S
H526 C552 0.950 . S
H527 C554 0.950 . S
H528 C557 0.950 . S
H529 C558 0.950 . S
H530 C560 0.946 1_455 S
H531 C561 0.950 . S
C532 H514 0.951 . S
C532 C533 1.366 . S
C532 C534 1.388 . S
C533 C532 1.366 . S
C533 C537 1.385 . S
C534 H515 0.951 . S
C534 C532 1.388 . S
C534 C535 1.366 . S
C535 C534 1.366 . S
C535 C536 1.414 . S
C535 C538 1.499 . S
C536 H516 0.950 . S
C536 C535 1.414 . S
C536 C537 1.374 . S
C537 H517 0.950 . S
C537 C533 1.385 . S
C537 C536 1.374 . S
C538 C535 1.499 . S
C538 C539 1.373 . S
C538 C540 1.389 . S
C539 H518 0.950 . S
C539 C538 1.373 . S
C539 C555 1.377 . S
C540 C538 1.389 . S
C540 C541 1.524 . S
C540 C554 1.377 . S
C541 C540 1.524 . S
C541 C542 1.397 . S
C541 C546 1.363 . S
C542 H519 0.950 . S
C542 C541 1.397 . S
C542 C543 1.334 . S
C543 H520 0.950 . S
C543 C542 1.334 . S
C543 C544 1.287 . S
C544 C543 1.287 . S
C544 C545 1.524 . S
C544 H563 0.913 . S
C545 H521 0.950 . S
C545 C544 1.524 . S
C545 C546 1.415 . S
C546 H522 0.950 . S
C546 C541 1.363 . S
C546 C545 1.415 . S
C547 H523 0.951 . S
C547 C548 1.366 . S
C547 C549 1.388 . S
C548 C547 1.366 . S
C548 C552 1.385 . S
C549 H524 0.951 . S
C549 C547 1.388 . S
C549 C550 1.366 . S
C550 C549 1.366 . S
C550 C551 1.414 . S
C550 C553 1.499 . S
C551 H525 0.950 . S
C551 C550 1.414 . S
C551 C552 1.374 . S
C552 H526 0.950 . S
C552 C548 1.385 . S
C552 C551 1.374 . S
C553 C550 1.499 . S
C553 C554 1.373 . S
C553 C555 1.389 . S
C554 H527 0.950 . S
C554 C540 1.377 . S
C554 C553 1.373 . S
C555 C539 1.377 . S
C555 C553 1.389 . S
C555 C556 1.524 . S
C556 C555 1.524 . S
C556 C557 1.397 . S
C556 C561 1.363 . S
C557 H528 0.950 . S
C557 C556 1.397 . S
C557 C558 1.334 1_655 S
C558 H529 0.950 . S
C558 C557 1.334 1_455 S
C558 C559 1.287 . S
C559 C558 1.287 . S
C559 C560 1.524 1_455 S
C559 H562 0.999 . S
C560 H530 0.946 1_655 S
C560 C559 1.524 1_655 S
C560 C561 1.415 . S
C561 H531 0.950 . S
C561 C556 1.363 . S
C561 C560 1.415 . S
H562 C559 0.999 . S
H563 C544 0.913 . S
H564 C582 0.951 . S
H565 C584 0.951 . S
H566 C586 0.950 . S
H567 C587 0.950 . S
H568 C589 0.950 . S
H569 C592 0.950 . S
H570 C593 0.950 . S
H571 C595 0.950 . S
H572 C596 0.950 . S
H573 C597 0.951 1_545 S
H574 C599 0.951 . S
H575 C601 0.950 . S
H576 C602 0.950 . S
H577 C604 0.950 . S
H578 C607 0.950 . S
H579 C608 0.950 . S
H580 C610 0.950 . S
H581 C611 0.950 . S
C582 H564 0.951 . S
C582 C583 1.366 . S
C582 C584 1.388 . S
C583 C582 1.366 . S
C583 C587 1.385 . S
C584 H565 0.951 . S
C584 C582 1.388 . S
C584 C585 1.366 . S
C585 C584 1.366 . S
C585 C586 1.414 . S
C585 C588 1.499 . S
C586 H566 0.950 . S
C586 C585 1.414 . S
C586 C587 1.374 . S
C587 H567 0.950 . S
C587 C583 1.385 . S
C587 C586 1.374 . S
C588 C585 1.499 . S
C588 C589 1.373 . S
C588 C590 1.389 . S
C589 H568 0.950 . S
C589 C588 1.373 . S
C589 C605 1.377 . S
C590 C588 1.389 . S
C590 C591 1.524 . S
C590 C604 1.377 . S
C591 C590 1.524 . S
C591 C592 1.397 . S
C591 C596 1.363 . S
C592 H569 0.950 . S
C592 C591 1.397 . S
C592 C593 1.334 . S
C593 H570 0.950 . S
C593 C592 1.334 . S
C593 C594 1.287 . S
C594 C593 1.287 . S
C594 C595 1.524 . S
C594 H613 0.913 . S
C595 H571 0.950 . S
C595 C594 1.524 . S
C595 C596 1.415 . S
C596 H572 0.950 . S
C596 C591 1.363 . S
C596 C595 1.415 . S
C597 H573 0.951 1_565 S
C597 C598 1.366 . S
C597 C599 1.388 . S
C598 C597 1.366 . S
C598 C602 1.385 . S
C599 H574 0.951 . S
C599 C597 1.388 . S
C599 C600 1.366 . S
C600 C599 1.366 . S
C600 C601 1.414 . S
C600 C603 1.499 . S
C601 H575 0.950 . S
C601 C600 1.414 . S
C601 C602 1.374 . S
C602 H576 0.950 . S
C602 C598 1.385 . S
C602 C601 1.374 . S
C603 C600 1.499 . S
C603 C604 1.373 . S
C603 C605 1.389 . S
C604 H577 0.950 . S
C604 C590 1.377 . S
C604 C603 1.373 . S
C605 C589 1.377 . S
C605 C603 1.389 . S
C605 C606 1.524 . S
C606 C605 1.524 . S
C606 C607 1.397 . S
C606 C611 1.363 1_565 S
C607 H578 0.950 . S
C607 C606 1.397 . S
C607 C608 1.334 1_565 S
C608 H579 0.950 . S
C608 C607 1.334 1_545 S
C608 C609 1.287 . S
C609 C608 1.287 . S
C609 C610 1.524 . S
C609 H612 0.999 . S
C610 H580 0.950 . S
C610 C609 1.524 . S
C610 C611 1.415 . S
C611 H581 0.950 . S
C611 C606 1.363 1_545 S
C611 C610 1.415 . S
H612 C609 0.999 . S
H613 C594 0.913 . S
H614 C632 0.951 . S
H615 C634 0.951 . S
H616 C636 0.950 . S
H617 C637 0.950 . S
H618 C639 0.950 . S
H619 C642 0.950 . S
H620 C643 0.950 . S
H621 C645 0.950 . S
H622 C646 0.950 . S
H623 C647 0.951 1_565 S
H624 C649 0.951 . S
H625 C651 0.950 . S
H626 C652 0.950 . S
H627 C654 0.950 . S
H628 C657 0.950 . S
H629 C658 0.950 . S
H630 C660 0.950 . S
H631 C661 0.950 . S
C632 H614 0.951 . S
C632 C633 1.366 . S
C632 C634 1.388 . S
C633 C632 1.366 . S
C633 C637 1.385 . S
C634 H615 0.951 . S
C634 C632 1.388 . S
C634 C635 1.366 . S
C635 C634 1.366 . S
C635 C636 1.414 . S
C635 C638 1.499 . S
C636 H616 0.950 . S
C636 C635 1.414 . S
C636 C637 1.374 . S
C637 H617 0.950 . S
C637 C633 1.385 . S
C637 C636 1.374 . S
C638 C635 1.499 . S
C638 C639 1.373 . S
C638 C640 1.389 . S
C639 H618 0.950 . S
C639 C638 1.373 . S
C639 C655 1.377 . S
C640 C638 1.389 . S
C640 C641 1.524 . S
C640 C654 1.377 . S
C641 C640 1.524 . S
C641 C642 1.397 . S
C641 C646 1.363 . S
C642 H619 0.950 . S
C642 C641 1.397 . S
C642 C643 1.334 1_655 S
C643 H620 0.950 . S
C643 C642 1.334 1_455 S
C643 C644 1.287 . S
C644 C643 1.287 . S
C644 C645 1.524 . S
C644 H663 0.913 . S
C645 H621 0.950 . S
C645 C644 1.524 . S
C645 C646 1.415 1_455 S
C646 H622 0.950 . S
C646 C641 1.363 . S
C646 C645 1.415 1_655 S
C647 H623 0.951 1_545 S
C647 C648 1.366 . S
C647 C649 1.388 . S
C648 C647 1.366 . S
C648 C652 1.385 . S
C649 H624 0.951 . S
C649 C647 1.388 . S
C649 C650 1.366 . S
C650 C649 1.366 . S
C650 C651 1.414 . S
C650 C653 1.499 . S
C651 H625 0.950 . S
C651 C650 1.414 . S
C651 C652 1.374 . S
C652 H626 0.950 . S
C652 C648 1.385 . S
C652 C651 1.374 . S
C653 C650 1.499 . S
C653 C654 1.373 . S
C653 C655 1.389 . S
C654 H627 0.950 . S
C654 C640 1.377 . S
C654 C653 1.373 . S
C655 C639 1.377 . S
C655 C653 1.389 . S
C655 C656 1.524 . S
C656 C655 1.524 . S
C656 C657 1.397 . S
C656 C661 1.363 . S
C657 H628 0.950 . S
C657 C656 1.397 . S
C657 C658 1.334 . S
C658 H629 0.950 . S
C658 C657 1.334 . S
C658 C659 1.287 . S
C659 C658 1.287 . S
C659 C660 1.524 1_545 S
C659 H662 0.999 1_545 S
C660 H630 0.950 . S
C660 C659 1.524 1_565 S
C660 C661 1.415 1_565 S
C661 H631 0.950 . S
C661 C656 1.363 . S
C661 C660 1.415 1_545 S
H662 C659 0.999 1_565 S
H663 C644 0.913 . S
H664 C682 0.951 . S
H665 C684 0.951 . S
H666 C686 0.950 . S
H667 C687 0.950 . S
H668 C689 0.950 . S
H669 C692 0.950 . S
H670 C693 0.950 . S
H671 C695 0.950 . S
H672 C696 0.950 . S
H673 C697 0.951 . S
H674 C699 0.951 . S
H675 C701 0.950 . S
H676 C702 0.950 . S
H677 C704 0.950 . S
H678 C707 0.950 . S
H679 C708 0.950 . S
H680 C710 0.950 . S
H681 C711 0.950 . S
C682 H664 0.951 . S
C682 C683 1.366 . S
C682 C684 1.388 . S
C683 C682 1.366 . S
C683 C687 1.385 . S
C684 H665 0.951 . S
C684 C682 1.388 . S
C684 C685 1.366 . S
C685 C684 1.366 . S
C685 C686 1.414 . S
C685 C688 1.499 . S
C686 H666 0.950 . S
C686 C685 1.414 . S
C686 C687 1.374 . S
C687 H667 0.950 . S
C687 C683 1.385 . S
C687 C686 1.374 . S
C688 C685 1.499 . S
C688 C689 1.373 . S
C688 C690 1.389 . S
C689 H668 0.950 . S
C689 C688 1.373 . S
C689 C705 1.377 . S
C690 C688 1.389 . S
C690 C691 1.524 . S
C690 C704 1.377 . S
C691 C690 1.524 . S
C691 C692 1.397 . S
C691 C696 1.363 . S
C692 H669 0.950 . S
C692 C691 1.397 . S
C692 C693 1.334 . S
C693 H670 0.950 . S
C693 C692 1.334 . S
C693 C694 1.287 . S
C694 C693 1.287 . S
C694 C695 1.524 . S
C694 H713 0.913 . S
C695 H671 0.950 . S
C695 C694 1.524 . S
C695 C696 1.415 . S
C696 H672 0.950 . S
C696 C691 1.363 . S
C696 C695 1.415 . S
C697 H673 0.951 . S
C697 C698 1.366 1_545 S
C697 C699 1.388 . S
C698 C697 1.366 1_565 S
C698 C702 1.385 . S
C699 H674 0.951 . S
C699 C697 1.388 . S
C699 C700 1.366 . S
C700 C699 1.366 . S
C700 C701 1.414 1_545 S
C700 C703 1.499 . S
C701 H675 0.950 . S
C701 C700 1.414 1_565 S
C701 C702 1.374 . S
C702 H676 0.950 . S
C702 C698 1.385 . S
C702 C701 1.374 . S
C703 C700 1.499 . S
C703 C704 1.373 . S
C703 C705 1.389 . S
C704 H677 0.950 . S
C704 C690 1.377 . S
C704 C703 1.373 . S
C705 C689 1.377 . S
C705 C703 1.389 . S
C705 C706 1.520 1_545 S
C706 C705 1.520 1_565 S
C706 C707 1.404 . S
C706 C711 1.361 1_565 S
C707 H678 0.950 . S
C707 C706 1.404 . S
C707 C708 1.334 . S
C708 H679 0.950 . S
C708 C707 1.334 . S
C708 C709 1.287 . S
C709 C708 1.287 . S
C709 C710 1.524 . S
C709 H712 0.999 . S
C710 H680 0.950 . S
C710 C709 1.524 . S
C710 C711 1.415 1_565 S
C711 H681 0.950 . S
C711 C706 1.361 1_545 S
C711 C710 1.415 1_545 S
H712 C709 0.999 . S
H713 C694 0.913 . S
H714 C732 0.951 . S
H715 C734 0.951 . S
H716 C736 0.950 . S
H717 C737 0.950 . S
H718 C739 0.950 . S
H719 C742 0.950 . S
H720 C743 0.950 . S
H721 C745 0.950 1_545 S
H722 C746 0.950 1_545 S
H723 C747 0.951 . S
H724 C749 0.951 . S
H725 C751 0.950 . S
H726 C752 0.950 . S
H727 C754 0.950 . S
H728 C757 0.950 . S
H729 C758 0.950 . S
H730 C760 0.950 . S
H731 C761 0.950 . S
C732 H714 0.951 . S
C732 C733 1.366 . S
C732 C734 1.388 . S
C733 C732 1.366 . S
C733 C737 1.385 1_545 S
C734 H715 0.951 . S
C734 C732 1.388 . S
C734 C735 1.366 1_545 S
C735 C734 1.366 1_565 S
C735 C736 1.414 . S
C735 C738 1.499 . S
C736 H716 0.950 . S
C736 C735 1.414 . S
C736 C737 1.374 . S
C737 H717 0.950 . S
C737 C733 1.385 1_565 S
C737 C736 1.374 . S
C738 C735 1.499 . S
C738 C739 1.373 . S
C738 C740 1.389 . S
C739 H718 0.950 . S
C739 C738 1.373 . S
C739 C755 1.377 . S
C740 C738 1.389 . S
C740 C741 1.524 . S
C740 C754 1.377 . S
C741 C740 1.524 . S
C741 C742 1.397 . S
C741 C746 1.363 . S
C742 H719 0.950 . S
C742 C741 1.397 . S
C742 C743 1.334 . S
C743 H720 0.950 . S
C743 C742 1.334 . S
C743 C744 1.287 . S
C744 C743 1.287 . S
C744 C745 1.524 . S
C744 H763 0.913 . S
C745 H721 0.950 1_565 S
C745 C744 1.524 . S
C745 C746 1.415 . S
C746 H722 0.950 1_565 S
C746 C741 1.363 . S
C746 C745 1.415 . S
C747 H723 0.951 . S
C747 C748 1.366 . S
C747 C749 1.388 . S
C748 C747 1.366 . S
C748 C752 1.385 . S
C749 H724 0.951 . S
C749 C747 1.388 . S
C749 C750 1.366 . S
C750 C749 1.366 . S
C750 C751 1.414 . S
C750 C753 1.499 . S
C751 H725 0.950 . S
C751 C750 1.414 . S
C751 C752 1.374 . S
C752 H726 0.950 . S
C752 C748 1.385 . S
C752 C751 1.374 . S
C753 C750 1.499 . S
C753 C754 1.373 . S
C753 C755 1.389 . S
C754 H727 0.950 . S
C754 C740 1.377 . S
C754 C753 1.373 . S
C755 C739 1.377 . S
C755 C753 1.389 . S
C755 C756 1.524 . S
C756 C755 1.524 . S
C756 C757 1.397 . S
C756 C761 1.363 . S
C757 H728 0.950 . S
C757 C756 1.397 . S
C757 C758 1.334 . S
C758 H729 0.950 . S
C758 C757 1.334 . S
C758 C759 1.287 . S
C759 C758 1.287 . S
C759 C760 1.524 . S
C759 H762 0.999 . S
C760 H730 0.950 . S
C760 C759 1.524 . S
C760 C761 1.415 . S
C761 H731 0.950 . S
C761 C756 1.363 . S
C761 C760 1.415 . S
H762 C759 0.999 . S
H763 C744 0.913 . S
H764 C782 0.951 . S
H765 C784 0.951 . S
H766 C786 0.950 . S
H767 C787 0.950 . S
H768 C789 0.950 . S
H769 C792 0.950 . S
H770 C793 0.950 . S
H771 C795 0.950 . S
H772 C796 0.950 . S
H773 C797 0.951 . S
H774 C799 0.951 . S
H775 C801 0.950 . S
H776 C802 0.950 . S
H777 C804 0.950 . S
H778 C807 0.950 . S
H779 C808 0.950 . S
H780 C810 0.950 . S
H781 C811 0.950 . S
C782 H764 0.951 . S
C782 C783 1.366 . S
C782 C784 1.388 . S
C783 C782 1.366 . S
C783 C787 1.385 . S
C784 H765 0.951 . S
C784 C782 1.388 . S
C784 C785 1.366 . S
C785 C784 1.366 . S
C785 C786 1.414 . S
C785 C788 1.499 . S
C786 H766 0.950 . S
C786 C785 1.414 . S
C786 C787 1.374 . S
C787 H767 0.950 . S
C787 C783 1.385 . S
C787 C786 1.374 . S
C788 C785 1.499 . S
C788 C789 1.373 . S
C788 C790 1.389 . S
C789 H768 0.950 . S
C789 C788 1.373 . S
C789 C805 1.377 . S
C790 C788 1.389 . S
C790 C791 1.524 . S
C790 C804 1.377 . S
C791 C790 1.524 . S
C791 C792 1.397 . S
C791 C796 1.363 . S
C792 H769 0.950 . S
C792 C791 1.397 . S
C792 C793 1.334 . S
C793 H770 0.950 . S
C793 C792 1.334 . S
C793 C794 1.287 . S
C794 C793 1.287 . S
C794 C795 1.524 . S
C794 H813 0.913 . S
C795 H771 0.950 . S
C795 C794 1.524 . S
C795 C796 1.415 . S
C796 H772 0.950 . S
C796 C791 1.363 . S
C796 C795 1.415 . S
C797 H773 0.951 . S
C797 C798 1.366 . S
C797 C799 1.388 . S
C798 C797 1.366 . S
C798 C802 1.385 . S
C799 H774 0.951 . S
C799 C797 1.388 . S
C799 C800 1.366 . S
C800 C799 1.366 . S
C800 C801 1.414 . S
C800 C803 1.499 . S
C801 H775 0.950 . S
C801 C800 1.414 . S
C801 C802 1.374 . S
C802 H776 0.950 . S
C802 C798 1.385 . S
C802 C801 1.374 . S
C803 C800 1.499 . S
C803 C804 1.373 . S
C803 C805 1.389 . S
C804 H777 0.950 . S
C804 C790 1.377 . S
C804 C803 1.373 . S
C805 C789 1.377 . S
C805 C803 1.389 . S
C805 C806 1.524 . S
C806 C805 1.524 . S
C806 C807 1.397 . S
C806 C811 1.363 . S
C807 H778 0.950 . S
C807 C806 1.397 . S
C807 C808 1.334 . S
C808 H779 0.950 . S
C808 C807 1.334 . S
C808 C809 1.287 . S
C809 C808 1.287 . S
C809 C810 1.524 . S
C809 H812 0.999 . S
C810 H780 0.950 . S
C810 C809 1.524 . S
C810 C811 1.415 . S
C811 H781 0.950 . S
C811 C806 1.363 . S
C811 C810 1.415 . S
H812 C809 0.999 . S
H813 C794 0.913 . S
H814 C832 0.951 . S
H815 C834 0.951 . S
H816 C836 0.950 . S
H817 C837 0.950 . S
H818 C839 0.950 . S
H819 C842 0.950 . S
H820 C843 0.950 . S
H821 C845 0.950 . S
H822 C846 0.950 . S
H823 C847 0.951 . S
H824 C849 0.951 . S
H825 C851 0.950 . S
H826 C852 0.950 . S
H827 C854 0.950 . S
H828 C857 0.950 . S
H829 C858 0.950 . S
H830 C860 0.950 . S
H831 C861 0.950 . S
C832 H814 0.951 . S
C832 C833 1.366 . S
C832 C834 1.388 . S
C833 C832 1.366 . S
C833 C837 1.385 . S
C834 H815 0.951 . S
C834 C832 1.388 . S
C834 C835 1.366 . S
C835 C834 1.366 . S
C835 C836 1.414 . S
C835 C838 1.499 . S
C836 H816 0.950 . S
C836 C835 1.414 . S
C836 C837 1.374 . S
C837 H817 0.950 . S
C837 C833 1.385 . S
C837 C836 1.374 . S
C838 C835 1.499 . S
C838 C839 1.373 . S
C838 C840 1.389 . S
C839 H818 0.950 . S
C839 C838 1.373 . S
C839 C855 1.377 . S
C840 C838 1.389 . S
C840 C841 1.524 . S
C840 C854 1.377 . S
C841 C840 1.524 . S
C841 C842 1.397 . S
C841 C846 1.363 . S
C842 H819 0.950 . S
C842 C841 1.397 . S
C842 C843 1.334 . S
C843 H820 0.950 . S
C843 C842 1.334 . S
C843 C844 1.287 . S
C844 C843 1.287 . S
C844 C845 1.524 . S
C844 H863 0.913 . S
C845 H821 0.950 . S
C845 C844 1.524 . S
C845 C846 1.415 . S
C846 H822 0.950 . S
C846 C841 1.363 . S
C846 C845 1.415 . S
C847 H823 0.951 . S
C847 C848 1.366 . S
C847 C849 1.388 . S
C848 C847 1.366 . S
C848 C852 1.385 . S
C849 H824 0.951 . S
C849 C847 1.388 . S
C849 C850 1.366 . S
C850 C849 1.366 . S
C850 C851 1.414 . S
C850 C853 1.499 . S
C851 H825 0.950 . S
C851 C850 1.414 . S
C851 C852 1.374 . S
C852 H826 0.950 . S
C852 C848 1.385 . S
C852 C851 1.374 . S
C853 C850 1.499 . S
C853 C854 1.373 . S
C853 C855 1.389 . S
C854 H827 0.950 . S
C854 C840 1.377 . S
C854 C853 1.373 . S
C855 C839 1.377 . S
C855 C853 1.389 . S
C855 C856 1.524 . S
C856 C855 1.524 . S
C856 C857 1.397 . S
C856 C861 1.363 . S
C857 H828 0.950 . S
C857 C856 1.397 . S
C857 C858 1.334 . S
C858 H829 0.950 . S
C858 C857 1.334 . S
C858 C859 1.287 . S
C859 C858 1.287 . S
C859 C860 1.524 . S
C859 H862 0.999 . S
C860 H830 0.950 . S
C860 C859 1.524 . S
C860 C861 1.415 . S
C861 H831 0.950 . S
C861 C856 1.363 . S
C861 C860 1.415 . S
H862 C859 0.999 . S
H863 C844 0.913 . S
H864 C882 0.951 . S
H865 C884 0.951 . S
H866 C886 0.950 . S
H867 C887 0.950 . S
H868 C889 0.950 . S
H869 C892 0.950 . S
H870 C893 0.950 . S
H871 C895 0.950 . S
H872 C896 0.950 . S
H873 C897 0.951 . S
H874 C899 0.951 . S
H875 C901 0.950 . S
H876 C902 0.950 . S
H877 C904 0.950 . S
H878 C907 0.950 . S
H879 C908 0.950 . S
H880 C910 0.950 . S
H881 C911 0.950 . S
C882 H864 0.951 . S
C882 C883 1.366 . S
C882 C884 1.388 . S
C883 C882 1.366 . S
C883 C887 1.385 . S
C884 H865 0.951 . S
C884 C882 1.388 . S
C884 C885 1.366 . S
C885 C884 1.366 . S
C885 C886 1.414 . S
C885 C888 1.499 . S
C886 H866 0.950 . S
C886 C885 1.414 . S
C886 C887 1.374 . S
C887 H867 0.950 . S
C887 C883 1.385 . S
C887 C886 1.374 . S
C888 C885 1.499 . S
C888 C889 1.373 . S
C888 C890 1.389 . S
C889 H868 0.950 . S
C889 C888 1.373 . S
C889 C905 1.377 . S
C890 C888 1.389 . S
C890 C891 1.524 . S
C890 C904 1.377 . S
C891 C890 1.524 . S
C891 C892 1.397 . S
C891 C896 1.363 . S
C892 H869 0.950 . S
C892 C891 1.397 . S
C892 C893 1.334 . S
C893 H870 0.950 . S
C893 C892 1.334 . S
C893 C894 1.287 . S
C894 C893 1.287 . S
C894 C895 1.524 . S
C894 H913 0.913 . S
C895 H871 0.950 . S
C895 C894 1.524 . S
C895 C896 1.415 . S
C896 H872 0.950 . S
C896 C891 1.363 . S
C896 C895 1.415 . S
C897 H873 0.951 . S
C897 C898 1.366 . S
C897 C899 1.388 . S
C898 C897 1.366 . S
C898 C902 1.385 . S
C899 H874 0.951 . S
C899 C897 1.388 . S
C899 C900 1.366 . S
C900 C899 1.366 . S
C900 C901 1.414 . S
C900 C903 1.499 . S
C901 H875 0.950 . S
C901 C900 1.414 . S
C901 C902 1.374 . S
C902 H876 0.950 . S
C902 C898 1.385 . S
C902 C901 1.374 . S
C903 C900 1.499 . S
C903 C904 1.373 . S
C903 C905 1.389 . S
C904 H877 0.950 . S
C904 C890 1.377 . S
C904 C903 1.373 . S
C905 C889 1.377 . S
C905 C903 1.389 . S
C905 C906 1.524 . S
C906 C905 1.524 . S
C906 C907 1.397 . S
C906 C911 1.363 . S
C907 H878 0.950 . S
C907 C906 1.397 . S
C907 C908 1.334 . S
C908 H879 0.950 . S
C908 C907 1.334 . S
C908 C909 1.287 . S
C909 C908 1.287 . S
C909 C910 1.524 . S
C909 H912 0.999 . S
C910 H880 0.950 . S
C910 C909 1.524 . S
C910 C911 1.415 . S
C911 H881 0.950 . S
C911 C906 1.363 . S
C911 C910 1.415 . S
H912 C909 0.999 . S
H913 C894 0.913 . S
H914 C932 0.951 . S
H915 C934 0.951 . S
H916 C936 0.950 . S
H917 C937 0.950 . S
H918 C939 0.950 . S
H919 C942 0.950 . S
H920 C943 0.950 . S
H921 C945 0.950 . S
H922 C946 0.950 . S
H923 C947 0.951 . S
H924 C949 0.951 . S
H925 C951 0.950 . S
H926 C952 0.950 . S
H927 C954 0.950 . S
H928 C957 0.950 . S
H929 C958 0.950 . S
H930 C960 0.950 . S
H931 C961 0.950 . S
C932 H914 0.951 . S
C932 C933 1.366 . S
C932 C934 1.388 . S
C933 C932 1.366 . S
C933 C937 1.385 . S
C934 H915 0.951 . S
C934 C932 1.388 . S
C934 C935 1.366 . S
C935 C934 1.366 . S
C935 C936 1.414 . S
C935 C938 1.499 . S
C936 H916 0.950 . S
C936 C935 1.414 . S
C936 C937 1.374 . S
C937 H917 0.950 . S
C937 C933 1.385 . S
C937 C936 1.374 . S
C938 C935 1.499 . S
C938 C939 1.373 . S
C938 C940 1.389 . S
C939 H918 0.950 . S
C939 C938 1.373 . S
C939 C955 1.377 . S
C940 C938 1.389 . S
C940 C941 1.524 . S
C940 C954 1.377 . S
C941 C940 1.524 . S
C941 C942 1.397 . S
C941 C946 1.363 . S
C942 H919 0.950 . S
C942 C941 1.397 . S
C942 C943 1.334 . S
C943 H920 0.950 . S
C943 C942 1.334 . S
C943 C944 1.287 . S
C944 C943 1.287 . S
C944 C945 1.524 . S
C944 H963 0.913 . S
C945 H921 0.950 . S
C945 C944 1.524 . S
C945 C946 1.415 . S
C946 H922 0.950 . S
C946 C941 1.363 . S
C946 C945 1.415 . S
C947 H923 0.951 . S
C947 C948 1.366 . S
C947 C949 1.388 . S
C948 C947 1.366 . S
C948 C952 1.385 . S
C949 H924 0.951 . S
C949 C947 1.388 . S
C949 C950 1.366 . S
C950 C949 1.366 . S
C950 C951 1.414 . S
C950 C953 1.499 . S
C951 H925 0.950 . S
C951 C950 1.414 . S
C951 C952 1.374 . S
C952 H926 0.950 . S
C952 C948 1.385 . S
C952 C951 1.374 . S
C953 C950 1.499 . S
C953 C954 1.373 . S
C953 C955 1.389 . S
C954 H927 0.950 . S
C954 C940 1.377 . S
C954 C953 1.373 . S
C955 C939 1.377 . S
C955 C953 1.389 . S
C955 C956 1.524 . S
C956 C955 1.524 . S
C956 C957 1.397 . S
C956 C961 1.363 . S
C957 H928 0.950 . S
C957 C956 1.397 . S
C957 C958 1.334 . S
C958 H929 0.950 . S
C958 C957 1.334 . S
C958 C959 1.287 . S
C959 C958 1.287 . S
C959 C960 1.524 . S
C959 H962 0.999 . S
C960 H930 0.950 . S
C960 C959 1.524 . S
C960 C961 1.415 . S
C961 H931 0.950 . S
C961 C956 1.363 . S
C961 C960 1.415 . S
H962 C959 0.999 . S
H963 C944 0.913 . S
H964 C982 0.951 1_545 S
H965 C984 0.951 . S
H966 C986 0.950 . S
H967 C987 0.950 . S
H968 C989 0.950 . S
H969 C992 0.950 . S
H970 C993 0.950 . S
H971 C995 0.950 . S
H972 C996 0.950 . S
H973 C997 0.951 . S
H974 C999 0.951 . S
H975 C1001 0.950 . S
H976 C1002 0.950 . S
H977 C1004 0.950 . S
H978 C1007 0.950 . S
H979 C1008 0.950 . S
H980 C1010 0.950 . S
H981 C1011 0.950 . S
C982 H964 0.951 1_565 S
C982 C983 1.366 . S
C982 C984 1.388 . S
C983 C982 1.366 . S
C983 C987 1.385 . S
C984 H965 0.951 . S
C984 C982 1.388 . S
C984 C985 1.366 . S
C985 C984 1.366 . S
C985 C986 1.414 . S
C985 C988 1.499 . S
C986 H966 0.950 . S
C986 C985 1.414 . S
C986 C987 1.374 . S
C987 H967 0.950 . S
C987 C983 1.385 . S
C987 C986 1.374 . S
C988 C985 1.499 . S
C988 C989 1.373 . S
C988 C990 1.389 . S
C989 H968 0.950 . S
C989 C988 1.373 . S
C989 C1005 1.377 . S
C990 C988 1.389 . S
C990 C991 1.524 . S
C990 C1004 1.377 . S
C991 C990 1.524 . S
C991 C992 1.397 . S
C991 C996 1.363 . S
C992 H969 0.950 . S
C992 C991 1.397 . S
C992 C993 1.334 . S
C993 H970 0.950 . S
C993 C992 1.334 . S
C993 C994 1.287 . S
C994 C993 1.287 . S
C994 C995 1.524 . S
C994 H1013 0.913 . S
C995 H971 0.950 . S
C995 C994 1.524 . S
C995 C996 1.415 . S
C996 H972 0.950 . S
C996 C991 1.363 . S
C996 C995 1.415 . S
C997 H973 0.951 . S
C997 C998 1.366 . S
C997 C999 1.388 . S
C998 C997 1.366 . S
C998 C1002 1.385 . S
C999 H974 0.951 . S
C999 C997 1.388 . S
C999 C1000 1.366 . S
C1000 C999 1.366 . S
C1000 C1001 1.414 . S
C1000 C1003 1.499 . S
C1001 H975 0.950 . S
C1001 C1000 1.414 . S
C1001 C1002 1.374 . S
C1002 H976 0.950 . S
C1002 C998 1.385 . S
C1002 C1001 1.374 . S
C1003 C1000 1.499 . S
C1003 C1004 1.373 . S
C1003 C1005 1.389 . S
C1004 H977 0.950 . S
C1004 C990 1.377 . S
C1004 C1003 1.373 . S
C1005 C989 1.377 . S
C1005 C1003 1.389 . S
C1005 C1006 1.524 . S
C1006 C1005 1.524 . S
C1006 C1007 1.397 . S
C1006 C1011 1.363 . S
C1007 H978 0.950 . S
C1007 C1006 1.397 . S
C1007 C1008 1.334 . S
C1008 H979 0.950 . S
C1008 C1007 1.334 . S
C1008 C1009 1.287 . S
C1009 C1008 1.287 . S
C1009 C1010 1.524 . S
C1009 H1012 0.999 . S
C1010 H980 0.950 . S
C1010 C1009 1.524 . S
C1010 C1011 1.415 . S
C1011 H981 0.950 . S
C1011 C1006 1.363 . S
C1011 C1010 1.415 . S
H1012 C1009 0.999 . S
H1013 C994 0.913 . S
H1014 C1032 0.951 . S
H1015 C1034 0.951 . S
H1016 C1036 0.950 . S
H1017 C1037 0.950 . S
H1018 C1039 0.950 . S
H1019 C1042 0.950 . S
H1020 C1043 0.950 . S
H1021 C1045 0.950 . S
H1022 C1046 0.950 . S
H1023 C1047 0.951 . S
H1024 C1049 0.951 . S
H1025 C1051 0.950 . S
H1026 C1052 0.950 . S
H1027 C1054 0.950 . S
H1028 C1057 0.950 . S
H1029 C1058 0.950 . S
H1030 C1060 0.950 . S
H1031 C1061 0.950 . S
C1032 H1014 0.951 . S
C1032 C1033 1.366 . S
C1032 C1034 1.388 . S
C1033 C1032 1.366 . S
C1033 C1037 1.385 . S
C1034 H1015 0.951 . S
C1034 C1032 1.388 . S
C1034 C1035 1.366 . S
C1035 C1034 1.366 . S
C1035 C1036 1.414 . S
C1035 C1038 1.499 . S
C1036 H1016 0.950 . S
C1036 C1035 1.414 . S
C1036 C1037 1.374 . S
C1037 H1017 0.950 . S
C1037 C1033 1.385 . S
C1037 C1036 1.374 . S
C1038 C1035 1.499 . S
C1038 C1039 1.373 . S
C1038 C1040 1.389 . S
C1039 H1018 0.950 . S
C1039 C1038 1.373 . S
C1039 C1055 1.377 . S
C1040 C1038 1.389 . S
C1040 C1041 1.524 . S
C1040 C1054 1.377 . S
C1041 C1040 1.524 . S
C1041 C1042 1.397 1_545 S
C1041 C1046 1.363 . S
C1042 H1019 0.950 . S
C1042 C1041 1.397 1_565 S
C1042 C1043 1.334 . S
C1043 H1020 0.950 . S
C1043 C1042 1.334 . S
C1043 C1044 1.287 . S
C1044 C1043 1.287 . S
C1044 C1045 1.524 . S
C1044 H1063 0.913 . S
C1045 H1021 0.950 . S
C1045 C1044 1.524 . S
C1045 C1046 1.415 1_565 S
C1046 H1022 0.950 . S
C1046 C1041 1.363 . S
C1046 C1045 1.415 1_545 S
C1047 H1023 0.951 . S
C1047 C1048 1.366 . S
C1047 C1049 1.388 . S
C1048 C1047 1.366 . S
C1048 C1052 1.385 . S
C1049 H1024 0.951 . S
C1049 C1047 1.388 . S
C1049 C1050 1.366 . S
C1050 C1049 1.366 . S
C1050 C1051 1.414 . S
C1050 C1053 1.499 . S
C1051 H1025 0.950 . S
C1051 C1050 1.414 . S
C1051 C1052 1.374 . S
C1052 H1026 0.950 . S
C1052 C1048 1.385 . S
C1052 C1051 1.374 . S
C1053 C1050 1.499 . S
C1053 C1054 1.373 . S
C1053 C1055 1.389 . S
C1054 H1027 0.950 . S
C1054 C1040 1.377 . S
C1054 C1053 1.373 . S
C1055 C1039 1.377 . S
C1055 C1053 1.389 . S
C1055 C1056 1.524 . S
C1056 C1055 1.524 . S
C1056 C1057 1.397 . S
C1056 C1061 1.363 . S
C1057 H1028 0.950 . S
C1057 C1056 1.397 . S
C1057 C1058 1.334 . S
C1058 H1029 0.950 . S
C1058 C1057 1.334 . S
C1058 C1059 1.287 . S
C1059 C1058 1.287 . S
C1059 C1060 1.524 . S
C1059 H1062 0.999 . S
C1060 H1030 0.950 . S
C1060 C1059 1.524 . S
C1060 C1061 1.415 . S
C1061 H1031 0.950 . S
C1061 C1056 1.363 . S
C1061 C1060 1.415 . S
H1062 C1059 0.999 . S
H1063 C1044 0.913 . S
H1064 C1082 0.951 . S
H1065 C1084 0.951 . S
H1066 C1086 0.950 . S
H1067 C1087 0.950 . S
H1068 C1089 0.950 . S
H1069 C1092 0.950 . S
H1070 C1093 0.950 . S
H1071 C1095 0.950 . S
H1072 C1096 0.950 . S
H1073 C1097 0.951 . S
H1074 C1099 0.965 . S
H1075 C1101 0.950 . S
H1076 C1102 0.950 . S
H1077 C1104 0.950 . S
H1078 C1107 0.950 . S
H1079 C1108 0.950 . S
H1080 C1110 0.950 . S
H1081 C1111 0.950 . S
C1082 H1064 0.951 . S
C1082 C1083 1.366 . S
C1082 C1084 1.388 . S
C1083 C1082 1.366 . S
C1083 C1087 1.385 1_454 S
C1084 H1065 0.951 . S
C1084 C1082 1.388 . S
C1084 C1085 1.366 . S
C1085 C1084 1.366 . S
C1085 C1086 1.414 1_454 S
C1085 C1088 1.499 . S
C1086 H1066 0.950 . S
C1086 C1085 1.414 1_656 S
C1086 C1087 1.374 . S
C1087 H1067 0.950 . S
C1087 C1083 1.385 1_656 S
C1087 C1086 1.374 . S
C1088 C1085 1.499 . S
C1088 C1089 1.373 1_455 S
C1088 C1090 1.389 1_554 S
C1089 H1068 0.950 . S
C1089 C1088 1.373 1_655 S
C1089 C1105 1.377 . S
C1090 C1088 1.389 1_556 S
C1090 C1091 1.524 . S
C1090 C1104 1.377 . S
C1091 C1090 1.524 . S
C1091 C1092 1.397 . S
C1091 C1096 1.363 . S
C1092 H1069 0.950 . S
C1092 C1091 1.397 . S
C1092 C1093 1.334 . S
C1093 H1070 0.950 . S
C1093 C1092 1.334 . S
C1093 C1094 1.287 . S
C1094 C1093 1.287 . S
C1094 C1095 1.524 . S
C1094 H1113 0.913 . S
C1095 H1071 0.950 . S
C1095 C1094 1.524 . S
C1095 C1096 1.415 . S
C1096 H1072 0.950 . S
C1096 C1091 1.363 . S
C1096 C1095 1.415 . S
C1097 H1073 0.951 . S
C1097 C1098 1.353 1_655 S
C1097 C1099 1.388 . S
C1098 C1097 1.353 1_455 S
C1098 C1102 1.398 . S
C1099 H1074 0.965 . S
C1099 C1097 1.388 . S
C1099 C1100 1.349 1_655 S
C1100 C1099 1.349 1_455 S
C1100 C1101 1.431 . S
C1100 C1103 1.499 . S
C1101 H1075 0.950 . S
C1101 C1100 1.431 . S
C1101 C1102 1.374 . S
C1102 H1076 0.950 . S
C1102 C1098 1.398 . S
C1102 C1101 1.374 . S
C1103 C1100 1.499 . S
C1103 C1104 1.373 1_554 S
C1103 C1105 1.389 1_455 S
C1104 H1077 0.950 . S
C1104 C1090 1.377 . S
C1104 C1103 1.373 1_556 S
C1105 C1089 1.377 . S
C1105 C1103 1.389 1_655 S
C1105 C1106 1.524 . S
C1106 C1105 1.524 . S
C1106 C1107 1.397 . S
C1106 C1111 1.363 . S
C1107 H1078 0.950 . S
C1107 C1106 1.397 . S
C1107 C1108 1.334 . S
C1108 H1079 0.950 . S
C1108 C1107 1.334 . S
C1108 C1109 1.287 . S
C1109 C1108 1.287 . S
C1109 C1110 1.524 . S
C1109 H1112 0.999 . S
C1110 H1080 0.950 . S
C1110 C1109 1.524 . S
C1110 C1111 1.415 . S
C1111 H1081 0.950 . S
C1111 C1106 1.363 . S
C1111 C1110 1.415 . S
H1112 C1109 0.999 . S
H1113 C1094 0.913 . S
H1114 C1132 0.951 . S
H1115 C1134 0.951 . S
H1116 C1136 0.950 . S
H1117 C1137 0.950 . S
H1118 C1139 0.950 . S
H1119 C1142 0.950 . S
H1120 C1143 0.950 . S
H1121 C1145 0.950 . S
H1122 C1146 0.950 . S
H1123 C1147 0.951 1_545 S
H1124 C1149 0.951 . S
H1125 C1151 0.950 . S
H1126 C1152 0.950 . S
H1127 C1154 0.950 . S
H1128 C1157 0.950 . S
H1129 C1158 0.950 . S
H1130 C1160 0.950 . S
H1131 C1161 0.950 . S
C1132 H1114 0.951 . S
C1132 C1133 1.366 . S
C1132 C1134 1.388 . S
C1133 C1132 1.366 . S
C1133 C1137 1.385 . S
C1134 H1115 0.951 . S
C1134 C1132 1.388 . S
C1134 C1135 1.366 . S
C1135 C1134 1.366 . S
C1135 C1136 1.414 . S
C1135 C1138 1.499 . S
C1136 H1116 0.950 . S
C1136 C1135 1.414 . S
C1136 C1137 1.374 . S
C1137 H1117 0.950 . S
C1137 C1133 1.385 . S
C1137 C1136 1.374 . S
C1138 C1135 1.499 . S
C1138 C1139 1.373 . S
C1138 C1140 1.389 . S
C1139 H1118 0.950 . S
C1139 C1138 1.373 . S
C1139 C1155 1.377 . S
C1140 C1138 1.389 . S
C1140 C1141 1.524 . S
C1140 C1154 1.377 . S
C1141 C1140 1.524 . S
C1141 C1142 1.397 . S
C1141 C1146 1.363 . S
C1142 H1119 0.950 . S
C1142 C1141 1.397 . S
C1142 C1143 1.334 . S
C1143 H1120 0.950 . S
C1143 C1142 1.334 . S
C1143 C1144 1.287 . S
C1144 C1143 1.287 . S
C1144 C1145 1.524 . S
C1144 H1163 0.913 . S
C1145 H1121 0.950 . S
C1145 C1144 1.524 . S
C1145 C1146 1.415 . S
C1146 H1122 0.950 . S
C1146 C1141 1.363 . S
C1146 C1145 1.415 . S
C1147 H1123 0.951 1_565 S
C1147 C1148 1.366 1_565 S
C1147 C1149 1.388 . S
C1148 C1147 1.366 1_545 S
C1148 C1152 1.385 . S
C1149 H1124 0.951 . S
C1149 C1147 1.388 . S
C1149 C1150 1.366 . S
C1150 C1149 1.366 . S
C1150 C1151 1.414 . S
C1150 C1153 1.499 . S
C1151 H1125 0.950 . S
C1151 C1150 1.414 . S
C1151 C1152 1.374 1_565 S
C1152 H1126 0.950 . S
C1152 C1148 1.385 . S
C1152 C1151 1.374 1_545 S
C1153 C1150 1.499 . S
C1153 C1154 1.373 . S
C1153 C1155 1.389 . S
C1154 H1127 0.950 . S
C1154 C1140 1.377 . S
C1154 C1153 1.373 . S
C1155 C1139 1.377 . S
C1155 C1153 1.389 . S
C1155 C1156 1.524 . S
C1156 C1155 1.524 . S
C1156 C1157 1.397 . S
C1156 C1161 1.363 . S
C1157 H1128 0.950 . S
C1157 C1156 1.397 . S
C1157 C1158 1.334 . S
C1158 H1129 0.950 . S
C1158 C1157 1.334 . S
C1158 C1159 1.287 . S
C1159 C1158 1.287 . S
C1159 C1160 1.524 . S
C1159 H1162 0.999 . S
C1160 H1130 0.950 . S
C1160 C1159 1.524 . S
C1160 C1161 1.415 . S
C1161 H1131 0.950 . S
C1161 C1156 1.363 . S
C1161 C1160 1.415 . S
H1162 C1159 0.999 . S
H1163 C1144 0.913 . S
H1164 C1182 0.951 . S
H1165 C1184 0.951 . S
H1166 C1186 0.950 . S
H1167 C1187 0.957 . S
H1168 C1189 0.950 . S
H1169 C1192 0.950 . S
H1170 C1193 0.950 . S
H1171 C1195 0.950 . S
H1172 C1196 0.950 . S
H1173 C1197 0.951 . S
H1174 C1199 0.951 . S
H1175 C1201 0.950 . S
H1176 C1202 0.950 . S
H1177 C1204 0.950 . S
H1178 C1207 0.950 . S
H1179 C1208 0.950 . S
H1180 C1210 0.950 . S
H1181 C1211 0.950 . S
C1182 H1164 0.951 . S
C1182 C1183 1.366 . S
C1182 C1184 1.388 1_565 S
C1183 C1182 1.366 . S
C1183 C1187 1.392 . S
C1184 H1165 0.951 . S
C1184 C1182 1.388 1_545 S
C1184 C1185 1.366 . S
C1185 C1184 1.366 . S
C1185 C1186 1.414 . S
C1185 C1188 1.499 . S
C1186 H1166 0.950 . S
C1186 C1185 1.414 . S
C1186 C1187 1.360 1_545 S
C1187 H1167 0.957 . S
C1187 C1183 1.392 . S
C1187 C1186 1.360 1_565 S
C1188 C1185 1.499 . S
C1188 C1189 1.373 . S
C1188 C1190 1.389 . S
C1189 H1168 0.950 . S
C1189 C1188 1.373 . S
C1189 C1205 1.377 . S
C1190 C1188 1.389 . S
C1190 C1191 1.524 . S
C1190 C1204 1.377 . S
C1191 C1190 1.524 . S
C1191 C1192 1.397 . S
C1191 C1196 1.363 . S
C1192 H1169 0.950 . S
C1192 C1191 1.397 . S
C1192 C1193 1.334 . S
C1193 H1170 0.950 . S
C1193 C1192 1.334 . S
C1193 C1194 1.287 . S
C1194 C1193 1.287 . S
C1194 C1195 1.524 . S
C1194 H1213 0.913 . S
C1195 H1171 0.950 . S
C1195 C1194 1.524 . S
C1195 C1196 1.415 . S
C1196 H1172 0.950 . S
C1196 C1191 1.363 . S
C1196 C1195 1.415 . S
C1197 H1173 0.951 . S
C1197 C1198 1.366 . S
C1197 C1199 1.388 . S
C1198 C1197 1.366 . S
C1198 C1202 1.385 . S
C1199 H1174 0.951 . S
C1199 C1197 1.388 . S
C1199 C1200 1.366 . S
C1200 C1199 1.366 . S
C1200 C1201 1.414 . S
C1200 C1203 1.499 . S
C1201 H1175 0.950 . S
C1201 C1200 1.414 . S
C1201 C1202 1.374 . S
C1202 H1176 0.950 . S
C1202 C1198 1.385 . S
C1202 C1201 1.374 . S
C1203 C1200 1.499 . S
C1203 C1204 1.373 . S
C1203 C1205 1.389 . S
C1204 H1177 0.950 . S
C1204 C1190 1.377 . S
C1204 C1203 1.373 . S
C1205 C1189 1.377 . S
C1205 C1203 1.389 . S
C1205 C1206 1.524 . S
C1206 C1205 1.524 . S
C1206 C1207 1.397 . S
C1206 C1211 1.363 . S
C1207 H1178 0.950 . S
C1207 C1206 1.397 . S
C1207 C1208 1.334 . S
C1208 H1179 0.950 . S
C1208 C1207 1.334 . S
C1208 C1209 1.287 . S
C1209 C1208 1.287 . S
C1209 C1210 1.524 . S
C1209 H1212 0.999 . S
C1210 H1180 0.950 . S
C1210 C1209 1.524 . S
C1210 C1211 1.415 . S
C1211 H1181 0.950 . S
C1211 C1206 1.363 . S
C1211 C1210 1.415 . S
H1212 C1209 0.999 . S
H1213 C1194 0.913 . S
H1214 C1232 0.951 . S
H1215 C1234 0.951 . S
H1216 C1236 0.950 . S
H1217 C1237 0.950 . S
H1218 C1239 0.950 . S
H1219 C1242 0.950 . S
H1220 C1243 0.950 . S
H1221 C1245 0.950 . S
H1222 C1246 0.950 . S
H1223 C1247 0.951 . S
H1224 C1249 0.951 . S
H1225 C1251 0.950 . S
H1226 C1252 0.950 . S
H1227 C1254 0.950 . S
H1228 C1257 0.950 . S
H1229 C1258 0.950 . S
H1230 C1260 0.950 . S
H1231 C1261 0.950 . S
C1232 H1214 0.951 . S
C1232 C1233 1.371 . S
C1232 C1234 1.388 . S
C1233 C1232 1.371 . S
C1233 C1237 1.379 1_455 S
C1234 H1215 0.951 . S
C1234 C1232 1.388 . S
C1234 C1235 1.366 . S
C1235 C1234 1.366 . S
C1235 C1236 1.414 1_455 S
C1235 C1238 1.499 . S
C1236 H1216 0.950 . S
C1236 C1235 1.414 1_655 S
C1236 C1237 1.374 . S
C1237 H1217 0.950 . S
C1237 C1233 1.379 1_655 S
C1237 C1236 1.374 . S
C1238 C1235 1.499 . S
C1238 C1239 1.373 1_455 S
C1238 C1240 1.389 . S
C1239 H1218 0.950 . S
C1239 C1238 1.373 1_655 S
C1239 C1255 1.377 1_565 S
C1240 C1238 1.389 . S
C1240 C1241 1.524 . S
C1240 C1254 1.377 1_565 S
C1241 C1240 1.524 . S
C1241 C1242 1.397 . S
C1241 C1246 1.363 . S
C1242 H1219 0.950 . S
C1242 C1241 1.397 . S
C1242 C1243 1.334 . S
C1243 H1220 0.950 . S
C1243 C1242 1.334 . S
C1243 C1244 1.287 . S
C1244 C1243 1.287 . S
C1244 C1245 1.524 . S
C1244 H1263 0.913 . S
C1245 H1221 0.950 . S
C1245 C1244 1.524 . S
C1245 C1246 1.415 . S
C1246 H1222 0.950 . S
C1246 C1241 1.363 . S
C1246 C1245 1.415 . S
C1247 H1223 0.951 . S
C1247 C1248 1.366 1_655 S
C1247 C1249 1.388 . S
C1248 C1247 1.366 1_455 S
C1248 C1252 1.385 . S
C1249 H1224 0.951 . S
C1249 C1247 1.388 . S
C1249 C1250 1.359 1_655 S
C1250 C1249 1.359 1_455 S
C1250 C1251 1.421 . S
C1250 C1253 1.499 . S
C1251 H1225 0.950 . S
C1251 C1250 1.421 . S
C1251 C1252 1.374 . S
C1252 H1226 0.950 . S
C1252 C1248 1.385 . S
C1252 C1251 1.374 . S
C1253 C1250 1.499 . S
C1253 C1254 1.391 . S
C1253 C1255 1.372 1_455 S
C1254 H1227 0.950 . S
C1254 C1240 1.377 1_545 S
C1254 C1253 1.391 . S
C1255 C1239 1.377 1_545 S
C1255 C1253 1.372 1_655 S
C1255 C1256 1.524 . S
C1256 C1255 1.524 . S
C1256 C1257 1.397 . S
C1256 C1261 1.363 . S
C1257 H1228 0.950 . S
C1257 C1256 1.397 . S
C1257 C1258 1.334 . S
C1258 H1229 0.950 . S
C1258 C1257 1.334 . S
C1258 C1259 1.287 . S
C1259 C1258 1.287 . S
C1259 C1260 1.524 . S
C1259 H1262 0.999 . S
C1260 H1230 0.950 . S
C1260 C1259 1.524 . S
C1260 C1261 1.415 . S
C1261 H1231 0.950 . S
C1261 C1256 1.363 . S
C1261 C1260 1.415 . S
H1262 C1259 0.999 . S
H1263 C1244 0.913 . S
H1264 C1282 0.951 1_565 S
H1265 C1284 0.951 . S
H1266 C1286 0.950 . S
H1267 C1287 0.950 . S
H1268 C1289 0.950 . S
H1269 C1292 0.950 . S
H1270 C1293 0.950 . S
H1271 C1295 0.950 . S
H1272 C1296 0.950 . S
H1273 C1297 0.951 . S
H1274 C1299 0.951 . S
H1275 C1301 0.950 . S
H1276 C1302 0.950 . S
H1277 C1304 0.950 . S
H1278 C1307 0.950 . S
H1279 C1308 0.950 . S
H1280 C1310 0.950 . S
H1281 C1311 0.950 . S
C1282 H1264 0.951 1_545 S
C1282 C1283 1.366 1_545 S
C1282 C1284 1.388 . S
C1283 C1282 1.366 1_565 S
C1283 C1287 1.385 . S
C1284 H1265 0.951 . S
C1284 C1282 1.388 . S
C1284 C1285 1.366 . S
C1285 C1284 1.366 . S
C1285 C1286 1.414 . S
C1285 C1288 1.499 . S
C1286 H1266 0.950 . S
C1286 C1285 1.414 . S
C1286 C1287 1.374 1_545 S
C1287 H1267 0.950 . S
C1287 C1283 1.385 . S
C1287 C1286 1.374 1_565 S
C1288 C1285 1.499 . S
C1288 C1289 1.373 . S
C1288 C1290 1.389 . S
C1289 H1268 0.950 . S
C1289 C1288 1.373 . S
C1289 C1305 1.377 . S
C1290 C1288 1.389 . S
C1290 C1291 1.524 . S
C1290 C1304 1.377 . S
C1291 C1290 1.524 . S
C1291 C1292 1.397 . S
C1291 C1296 1.363 . S
C1292 H1269 0.950 . S
C1292 C1291 1.397 . S
C1292 C1293 1.334 . S
C1293 H1270 0.950 . S
C1293 C1292 1.334 . S
C1293 C1294 1.287 . S
C1294 C1293 1.287 . S
C1294 C1295 1.524 . S
C1294 H1313 0.913 . S
C1295 H1271 0.950 . S
C1295 C1294 1.524 . S
C1295 C1296 1.415 . S
C1296 H1272 0.950 . S
C1296 C1291 1.363 . S
C1296 C1295 1.415 . S
C1297 H1273 0.951 . S
C1297 C1298 1.366 . S
C1297 C1299 1.388 . S
C1298 C1297 1.366 . S
C1298 C1302 1.385 . S
C1299 H1274 0.951 . S
C1299 C1297 1.388 . S
C1299 C1300 1.366 . S
C1300 C1299 1.366 . S
C1300 C1301 1.414 . S
C1300 C1303 1.499 . S
C1301 H1275 0.950 . S
C1301 C1300 1.414 . S
C1301 C1302 1.374 . S
C1302 H1276 0.950 . S
C1302 C1298 1.385 . S
C1302 C1301 1.374 . S
C1303 C1300 1.499 . S
C1303 C1304 1.373 . S
C1303 C1305 1.389 . S
C1304 H1277 0.950 . S
C1304 C1290 1.377 . S
C1304 C1303 1.373 . S
C1305 C1289 1.377 . S
C1305 C1303 1.389 . S
C1305 C1306 1.524 . S
C1306 C1305 1.524 . S
C1306 C1307 1.397 . S
C1306 C1311 1.363 . S
C1307 H1278 0.950 . S
C1307 C1306 1.397 . S
C1307 C1308 1.334 . S
C1308 H1279 0.950 . S
C1308 C1307 1.334 . S
C1308 C1309 1.287 . S
C1309 C1308 1.287 . S
C1309 C1310 1.524 . S
C1309 H1312 0.999 . S
C1310 H1280 0.950 . S
C1310 C1309 1.524 . S
C1310 C1311 1.415 . S
C1311 H1281 0.950 . S
C1311 C1306 1.363 . S
C1311 C1310 1.415 . S
H1312 C1309 0.999 . S
H1313 C1294 0.913 . S
H1314 C1332 0.951 . S
H1315 C1334 0.951 . S
H1316 C1336 0.950 . S
H1317 C1337 0.950 . S
H1318 C1339 0.950 . S
H1319 C1342 0.950 . S
H1320 C1343 0.950 . S
H1321 C1345 0.950 . S
H1322 C1346 0.950 . S
H1323 C1347 0.951 1_545 S
H1324 C1349 0.951 . S
H1325 C1351 0.950 . S
H1326 C1352 0.950 . S
H1327 C1354 0.950 . S
H1328 C1357 0.950 . S
H1329 C1358 0.950 . S
H1330 C1360 0.950 . S
H1331 C1361 0.950 . S
C1332 H1314 0.951 . S
C1332 C1333 1.366 . S
C1332 C1334 1.388 . S
C1333 C1332 1.366 . S
C1333 C1337 1.385 . S
C1334 H1315 0.951 . S
C1334 C1332 1.388 . S
C1334 C1335 1.366 . S
C1335 C1334 1.366 . S
C1335 C1336 1.414 . S
C1335 C1338 1.499 . S
C1336 H1316 0.950 . S
C1336 C1335 1.414 . S
C1336 C1337 1.374 . S
C1337 H1317 0.950 . S
C1337 C1333 1.385 . S
C1337 C1336 1.374 . S
C1338 C1335 1.499 . S
C1338 C1339 1.373 . S
C1338 C1340 1.389 . S
C1339 H1318 0.950 . S
C1339 C1338 1.373 . S
C1339 C1355 1.377 . S
C1340 C1338 1.389 . S
C1340 C1341 1.524 . S
C1340 C1354 1.377 . S
C1341 C1340 1.524 . S
C1341 C1342 1.397 . S
C1341 C1346 1.363 . S
C1342 H1319 0.950 . S
C1342 C1341 1.397 . S
C1342 C1343 1.334 . S
C1343 H1320 0.950 . S
C1343 C1342 1.334 . S
C1343 C1344 1.287 . S
C1344 C1343 1.287 . S
C1344 C1345 1.524 . S
C1344 H1363 0.913 . S
C1345 H1321 0.950 . S
C1345 C1344 1.524 . S
C1345 C1346 1.415 . S
C1346 H1322 0.950 . S
C1346 C1341 1.363 . S
C1346 C1345 1.415 . S
C1347 H1323 0.951 1_565 S
C1347 C1348 1.366 1_565 S
C1347 C1349 1.388 . S
C1348 C1347 1.366 1_545 S
C1348 C1352 1.385 . S
C1349 H1324 0.951 . S
C1349 C1347 1.388 . S
C1349 C1350 1.366 . S
C1350 C1349 1.366 . S
C1350 C1351 1.414 . S
C1350 C1353 1.499 . S
C1351 H1325 0.950 . S
C1351 C1350 1.414 . S
C1351 C1352 1.374 1_565 S
C1352 H1326 0.950 . S
C1352 C1348 1.385 . S
C1352 C1351 1.374 1_545 S
C1353 C1350 1.499 . S
C1353 C1354 1.373 . S
C1353 C1355 1.389 . S
C1354 H1327 0.950 . S
C1354 C1340 1.377 . S
C1354 C1353 1.373 . S
C1355 C1339 1.377 . S
C1355 C1353 1.389 . S
C1355 C1356 1.524 . S
C1356 C1355 1.524 . S
C1356 C1357 1.397 . S
C1356 C1361 1.363 . S
C1357 H1328 0.950 . S
C1357 C1356 1.397 . S
C1357 C1358 1.334 . S
C1358 H1329 0.950 . S
C1358 C1357 1.334 . S
C1358 C1359 1.287 . S
C1359 C1358 1.287 . S
C1359 C1360 1.524 . S
C1359 H1362 0.999 . S
C1360 H1330 0.950 . S
C1360 C1359 1.524 . S
C1360 C1361 1.415 . S
C1361 H1331 0.950 . S
C1361 C1356 1.363 . S
C1361 C1360 1.415 . S
H1362 C1359 0.999 . S
H1363 C1344 0.913 . S
H1364 C1382 0.951 . S
H1365 C1384 0.951 . S
H1366 C1386 0.950 . S
H1367 C1387 0.950 . S
H1368 C1389 0.950 . S
H1369 C1392 0.950 . S
H1370 C1393 0.950 . S
H1371 C1395 0.950 . S
H1372 C1396 0.950 . S
H1373 C1397 0.951 . S
H1374 C1399 0.951 . S
H1375 C1401 0.950 . S
H1376 C1402 0.950 . S
H1377 C1404 0.950 . S
H1378 C1407 0.950 . S
H1379 C1408 0.950 . S
H1380 C1410 0.950 . S
H1381 C1411 0.950 . S
C1382 H1364 0.951 . S
C1382 C1383 1.366 . S
C1382 C1384 1.388 . S
C1383 C1382 1.366 . S
C1383 C1387 1.385 . S
C1384 H1365 0.951 . S
C1384 C1382 1.388 . S
C1384 C1385 1.366 . S
C1385 C1384 1.366 . S
C1385 C1386 1.414 . S
C1385 C1388 1.499 . S
C1386 H1366 0.950 . S
C1386 C1385 1.414 . S
C1386 C1387 1.374 . S
C1387 H1367 0.950 . S
C1387 C1383 1.385 . S
C1387 C1386 1.374 . S
C1388 C1385 1.499 . S
C1388 C1389 1.373 . S
C1388 C1390 1.389 . S
C1389 H1368 0.950 . S
C1389 C1388 1.373 . S
C1389 C1405 1.377 . S
C1390 C1388 1.389 . S
C1390 C1391 1.524 . S
C1390 C1404 1.377 . S
C1391 C1390 1.524 . S
C1391 C1392 1.397 . S
C1391 C1396 1.363 . S
C1392 H1369 0.950 . S
C1392 C1391 1.397 . S
C1392 C1393 1.334 . S
C1393 H1370 0.950 . S
C1393 C1392 1.334 . S
C1393 C1394 1.287 . S
C1394 C1393 1.287 . S
C1394 C1395 1.524 . S
C1394 H1413 0.913 . S
C1395 H1371 0.950 . S
C1395 C1394 1.524 . S
C1395 C1396 1.415 . S
C1396 H1372 0.950 . S
C1396 C1391 1.363 . S
C1396 C1395 1.415 . S
C1397 H1373 0.951 . S
C1397 C1398 1.366 . S
C1397 C1399 1.388 . S
C1398 C1397 1.366 . S
C1398 C1402 1.385 . S
C1399 H1374 0.951 . S
C1399 C1397 1.388 . S
C1399 C1400 1.366 . S
C1400 C1399 1.366 . S
C1400 C1401 1.414 . S
C1400 C1403 1.499 . S
C1401 H1375 0.950 . S
C1401 C1400 1.414 . S
C1401 C1402 1.374 . S
C1402 H1376 0.950 . S
C1402 C1398 1.385 . S
C1402 C1401 1.374 . S
C1403 C1400 1.499 . S
C1403 C1404 1.373 . S
C1403 C1405 1.389 . S
C1404 H1377 0.950 . S
C1404 C1390 1.377 . S
C1404 C1403 1.373 . S
C1405 C1389 1.377 . S
C1405 C1403 1.389 . S
C1405 C1406 1.524 . S
C1406 C1405 1.524 . S
C1406 C1407 1.397 . S
C1406 C1411 1.363 . S
C1407 H1378 0.950 . S
C1407 C1406 1.397 . S
C1407 C1408 1.334 . S
C1408 H1379 0.950 . S
C1408 C1407 1.334 . S
C1408 C1409 1.287 . S
C1409 C1408 1.287 . S
C1409 C1410 1.524 . S
C1409 H1412 0.999 . S
C1410 H1380 0.950 . S
C1410 C1409 1.524 . S
C1410 C1411 1.415 . S
C1411 H1381 0.950 . S
C1411 C1406 1.363 . S
C1411 C1410 1.415 . S
H1412 C1409 0.999 . S
H1413 C1394 0.913 . S
H1414 C1432 0.948 1_556 S
H1415 C1434 0.950 . S
H1416 C1436 0.950 . S
H1417 C1437 0.950 . S
H1418 C1439 0.943 1_556 S
H1419 C1442 0.950 . S
H1420 C1443 0.950 . S
H1421 C1445 0.950 . S
H1422 C1446 0.950 . S
H1423 C1447 0.951 . S
H1424 C1449 0.951 . S
H1425 C1451 0.950 . S
H1426 C1452 0.950 . S
H1427 C1454 0.950 . S
H1428 C1457 0.950 . S
H1429 C1458 0.950 . S
H1430 C1460 0.950 . S
H1431 C1461 0.950 1_554 S
C1432 H1414 0.948 1_554 S
C1432 C1433 1.371 . S
C1432 C1434 1.386 1_554 S
C1433 C1432 1.371 . S
C1433 C1437 1.385 . S
C1434 H1415 0.950 . S
C1434 C1432 1.386 1_556 S
C1434 C1435 1.366 1_556 S
C1435 C1434 1.366 1_554 S
C1435 C1436 1.414 . S
C1435 C1438 1.499 . S
C1436 H1416 0.950 . S
C1436 C1435 1.414 . S
C1436 C1437 1.374 . S
C1437 H1417 0.950 . S
C1437 C1433 1.385 . S
C1437 C1436 1.374 . S
C1438 C1435 1.499 . S
C1438 C1439 1.402 . S
C1438 C1440 1.389 . S
C1439 H1418 0.943 1_554 S
C1439 C1438 1.402 . S
C1439 C1455 1.347 1_564 S
C1440 C1438 1.389 . S
C1440 C1441 1.524 . S
C1440 C1454 1.377 1_565 S
C1441 C1440 1.524 . S
C1441 C1442 1.397 . S
C1441 C1446 1.363 . S
C1442 H1419 0.950 . S
C1442 C1441 1.397 . S
C1442 C1443 1.334 . S
C1443 H1420 0.950 . S
C1443 C1442 1.334 . S
C1443 C1444 1.287 . S
C1444 C1443 1.287 . S
C1444 C1445 1.524 . S
C1444 H1463 0.913 . S
C1445 H1421 0.950 . S
C1445 C1444 1.524 . S
C1445 C1446 1.415 . S
C1446 H1422 0.950 . S
C1446 C1441 1.363 . S
C1446 C1445 1.415 . S
C1447 H1423 0.951 . S
C1447 C1448 1.366 . S
C1447 C1449 1.388 . S
C1448 C1447 1.366 . S
C1448 C1452 1.385 1_554 S
C1449 H1424 0.951 . S
C1449 C1447 1.388 . S
C1449 C1450 1.366 . S
C1450 C1449 1.366 . S
C1450 C1451 1.414 1_554 S
C1450 C1453 1.499 . S
C1451 H1425 0.950 . S
C1451 C1450 1.414 1_556 S
C1451 C1452 1.374 . S
C1452 H1426 0.950 . S
C1452 C1448 1.385 1_556 S
C1452 C1451 1.374 . S
C1453 C1450 1.499 . S
C1453 C1454 1.373 . S
C1453 C1455 1.381 1_554 S
C1454 H1427 0.950 . S
C1454 C1440 1.377 1_545 S
C1454 C1453 1.373 . S
C1455 C1439 1.347 1_546 S
C1455 C1453 1.381 1_556 S
C1455 C1456 1.557 . S
C1456 C1455 1.557 . S
C1456 C1457 1.397 . S
C1456 C1461 1.363 . S
C1457 H1428 0.950 . S
C1457 C1456 1.397 . S
C1457 C1458 1.334 . S
C1458 H1429 0.950 . S
C1458 C1457 1.334 . S
C1458 C1459 1.287 . S
C1459 C1458 1.287 . S
C1459 C1460 1.524 . S
C1459 H1462 0.999 . S
C1460 H1430 0.950 . S
C1460 C1459 1.524 . S
C1460 C1461 1.415 . S
C1461 H1431 0.950 1_556 S
C1461 C1456 1.363 . S
C1461 C1460 1.415 . S
H1462 C1459 0.999 . S
H1463 C1444 0.913 . S
H1464 C1482 0.951 . S
H1465 C1484 0.951 . S
H1466 C1486 0.952 1_556 S
H1467 C1487 0.950 . S
H1468 C1489 0.950 . S
H1469 C1492 0.950 . S
H1470 C1493 0.950 . S
H1471 C1495 0.950 . S
H1472 C1496 0.950 . S
H1473 C1497 0.951 . S
H1474 C1499 0.951 . S
H1475 C1501 0.950 . S
H1476 C1502 0.950 . S
H1477 C1504 0.950 . S
H1478 C1507 0.950 . S
H1479 C1508 0.950 . S
H1480 C1510 0.950 . S
H1481 C1511 0.950 . S
C1482 H1464 0.951 . S
C1482 C1483 1.366 . S
C1482 C1484 1.388 . S
C1483 C1482 1.366 . S
C1483 C1487 1.385 . S
C1484 H1465 0.951 . S
C1484 C1482 1.388 . S
C1484 C1485 1.366 . S
C1485 C1484 1.366 . S
C1485 C1486 1.414 . S
C1485 C1488 1.499 . S
C1486 H1466 0.952 1_554 S
C1486 C1485 1.414 . S
C1486 C1487 1.374 . S
C1487 H1467 0.950 . S
C1487 C1483 1.385 . S
C1487 C1486 1.374 . S
C1488 C1485 1.499 . S
C1488 C1489 1.373 1_554 S
C1488 C1490 1.389 . S
C1489 H1468 0.950 . S
C1489 C1488 1.373 1_556 S
C1489 C1505 1.377 . S
C1490 C1488 1.389 . S
C1490 C1491 1.524 . S
C1490 C1504 1.377 . S
C1491 C1490 1.524 . S
C1491 C1492 1.397 . S
C1491 C1496 1.363 . S
C1492 H1469 0.950 . S
C1492 C1491 1.397 . S
C1492 C1493 1.334 . S
C1493 H1470 0.950 . S
C1493 C1492 1.334 . S
C1493 C1494 1.287 . S
C1494 C1493 1.287 . S
C1494 C1495 1.524 . S
C1494 H1513 0.913 . S
C1495 H1471 0.950 . S
C1495 C1494 1.524 . S
C1495 C1496 1.415 . S
C1496 H1472 0.950 . S
C1496 C1491 1.363 . S
C1496 C1495 1.415 . S
C1497 H1473 0.951 . S
C1497 C1498 1.366 . S
C1497 C1499 1.388 . S
C1498 C1497 1.366 . S
C1498 C1502 1.385 1_556 S
C1499 H1474 0.951 . S
C1499 C1497 1.388 . S
C1499 C1500 1.357 1_556 S
C1500 C1499 1.357 1_554 S
C1500 C1501 1.427 . S
C1500 C1503 1.501 . S
C1501 H1475 0.950 . S
C1501 C1500 1.427 . S
C1501 C1502 1.374 . S
C1502 H1476 0.950 . S
C1502 C1498 1.385 1_554 S
C1502 C1501 1.374 . S
C1503 C1500 1.501 . S
C1503 C1504 1.373 . S
C1503 C1505 1.389 1_554 S
C1504 H1477 0.950 . S
C1504 C1490 1.377 . S
C1504 C1503 1.373 . S
C1505 C1489 1.377 . S
C1505 C1503 1.389 1_556 S
C1505 C1506 1.524 . S
C1506 C1505 1.524 . S
C1506 C1507 1.397 . S
C1506 C1511 1.363 . S
C1507 H1478 0.950 . S
C1507 C1506 1.397 . S
C1507 C1508 1.334 . S
C1508 H1479 0.950 . S
C1508 C1507 1.334 . S
C1508 C1509 1.287 . S
C1509 C1508 1.287 . S
C1509 C1510 1.524 . S
C1509 H1512 0.999 . S
C1510 H1480 0.950 . S
C1510 C1509 1.524 . S
C1510 C1511 1.415 . S
C1511 H1481 0.950 . S
C1511 C1506 1.363 . S
C1511 C1510 1.415 . S
H1512 C1509 0.999 . S
H1513 C1494 0.913 . S
H1514 C1532 0.954 . S
H1515 C1534 0.951 . S
H1516 C1536 0.950 . S
H1517 C1537 0.950 . S
H1518 C1539 0.950 . S
H1519 C1542 0.950 . S
H1520 C1543 0.950 . S
H1521 C1545 0.950 1_556 S
H1522 C1546 0.947 . S
H1523 C1547 0.951 . S
H1524 C1549 0.951 . S
H1525 C1551 0.950 . S
H1526 C1552 0.950 . S
H1527 C1554 0.950 . S
H1528 C1557 0.950 . S
H1529 C1558 0.950 . S
H1530 C1560 0.950 . S
H1531 C1561 0.950 . S
C1532 H1514 0.954 . S
C1532 C1533 1.363 1_556 S
C1532 C1534 1.388 . S
C1533 C1532 1.363 1_554 S
C1533 C1537 1.385 . S
C1534 H1515 0.951 . S
C1534 C1532 1.388 . S
C1534 C1535 1.366 1_556 S
C1535 C1534 1.366 1_554 S
C1535 C1536 1.414 . S
C1535 C1538 1.499 . S
C1536 H1516 0.950 . S
C1536 C1535 1.414 . S
C1536 C1537 1.374 . S
C1537 H1517 0.950 . S
C1537 C1533 1.385 . S
C1537 C1536 1.374 . S
C1538 C1535 1.499 . S
C1538 C1539 1.373 . S
C1538 C1540 1.389 . S
C1539 H1518 0.950 . S
C1539 C1538 1.373 . S
C1539 C1555 1.377 . S
C1540 C1538 1.389 . S
C1540 C1541 1.524 . S
C1540 C1554 1.377 . S
C1541 C1540 1.524 . S
C1541 C1542 1.397 . S
C1541 C1546 1.366 1_554 S
C1542 H1519 0.950 . S
C1542 C1541 1.397 . S
C1542 C1543 1.334 1_565 S
C1543 H1520 0.950 . S
C1543 C1542 1.334 1_545 S
C1543 C1544 1.287 . S
C1544 C1543 1.287 . S
C1544 C1545 1.524 . S
C1544 H1563 0.913 . S
C1545 H1521 0.950 1_554 S
C1545 C1544 1.524 . S
C1545 C1546 1.415 1_544 S
C1546 H1522 0.947 . S
C1546 C1541 1.366 1_556 S
C1546 C1545 1.415 1_566 S
C1547 H1523 0.951 . S
C1547 C1548 1.366 1_554 S
C1547 C1549 1.388 . S
C1548 C1547 1.366 1_556 S
C1548 C1552 1.385 . S
C1549 H1524 0.951 . S
C1549 C1547 1.388 . S
C1549 C1550 1.419 . S
C1550 C1549 1.419 . S
C1550 C1551 1.364 1_554 S
C1550 C1553 1.499 . S
C1551 H1525 0.950 . S
C1551 C1550 1.364 1_556 S
C1551 C1552 1.374 . S
C1552 H1526 0.950 . S
C1552 C1548 1.385 . S
C1552 C1551 1.374 . S
C1553 C1550 1.499 . S
C1553 C1554 1.373 . S
C1553 C1555 1.389 . S
C1554 H1527 0.950 . S
C1554 C1540 1.377 . S
C1554 C1553 1.373 . S
C1555 C1539 1.377 . S
C1555 C1553 1.389 . S
C1555 C1556 1.524 1_554 S
C1556 C1555 1.524 1_556 S
C1556 C1557 1.426 . S
C1556 C1561 1.338 1_556 S
C1557 H1528 0.950 . S
C1557 C1556 1.426 . S
C1557 C1558 1.334 . S
C1558 H1529 0.950 . S
C1558 C1557 1.334 . S
C1558 C1559 1.287 . S
C1559 C1558 1.287 . S
C1559 C1560 1.524 1_556 S
C1559 H1562 0.999 . S
C1560 H1530 0.950 . S
C1560 C1559 1.524 1_554 S
C1560 C1561 1.415 . S
C1561 H1531 0.950 . S
C1561 C1556 1.338 1_554 S
C1561 C1560 1.415 . S
H1562 C1559 0.999 . S
H1563 C1544 0.913 . S
H1564 C1582 0.951 . S
H1565 C1584 0.951 . S
H1566 C1586 0.950 . S
H1567 C1587 0.950 . S
H1568 C1589 0.950 . S
H1569 C1592 0.950 . S
H1570 C1593 0.950 . S
H1571 C1595 0.950 . S
H1572 C1596 0.950 . S
H1573 C1597 0.951 . S
H1574 C1599 0.951 . S
H1575 C1601 0.950 . S
H1576 C1602 0.950 . S
H1577 C1604 0.950 . S
H1578 C1607 0.950 . S
H1579 C1608 0.950 . S
H1580 C1610 0.950 . S
H1581 C1611 0.950 . S
C1582 H1564 0.951 . S
C1582 C1583 1.366 . S
C1582 C1584 1.388 . S
C1583 C1582 1.366 . S
C1583 C1587 1.385 . S
C1584 H1565 0.951 . S
C1584 C1582 1.388 . S
C1584 C1585 1.366 . S
C1585 C1584 1.366 . S
C1585 C1586 1.414 . S
C1585 C1588 1.499 . S
C1586 H1566 0.950 . S
C1586 C1585 1.414 . S
C1586 C1587 1.374 . S
C1587 H1567 0.950 . S
C1587 C1583 1.385 . S
C1587 C1586 1.374 . S
C1588 C1585 1.499 . S
C1588 C1589 1.373 . S
C1588 C1590 1.389 . S
C1589 H1568 0.950 . S
C1589 C1588 1.373 . S
C1589 C1605 1.377 . S
C1590 C1588 1.389 . S
C1590 C1591 1.524 . S
C1590 C1604 1.377 1_455 S
C1591 C1590 1.524 . S
C1591 C1592 1.397 . S
C1591 C1596 1.363 1_455 S
C1592 H1569 0.950 . S
C1592 C1591 1.397 . S
C1592 C1593 1.334 . S
C1593 H1570 0.950 . S
C1593 C1592 1.334 . S
C1593 C1594 1.287 . S
C1594 C1593 1.287 . S
C1594 C1595 1.524 1_455 S
C1594 H1613 0.913 . S
C1595 H1571 0.950 . S
C1595 C1594 1.524 1_655 S
C1595 C1596 1.415 . S
C1596 H1572 0.950 . S
C1596 C1591 1.363 1_655 S
C1596 C1595 1.415 . S
C1597 H1573 0.951 . S
C1597 C1598 1.366 . S
C1597 C1599 1.388 . S
C1598 C1597 1.366 . S
C1598 C1602 1.385 . S
C1599 H1574 0.951 . S
C1599 C1597 1.388 . S
C1599 C1600 1.366 . S
C1600 C1599 1.366 . S
C1600 C1601 1.414 . S
C1600 C1603 1.499 . S
C1601 H1575 0.950 . S
C1601 C1600 1.414 . S
C1601 C1602 1.374 . S
C1602 H1576 0.950 . S
C1602 C1598 1.385 . S
C1602 C1601 1.374 . S
C1603 C1600 1.499 . S
C1603 C1604 1.373 . S
C1603 C1605 1.389 1_655 S
C1604 H1577 0.950 . S
C1604 C1590 1.377 1_655 S
C1604 C1603 1.373 . S
C1605 C1589 1.377 . S
C1605 C1603 1.389 1_455 S
C1605 C1606 1.524 . S
C1606 C1605 1.524 . S
C1606 C1607 1.397 1_455 S
C1606 C1611 1.363 . S
C1607 H1578 0.950 . S
C1607 C1606 1.397 1_655 S
C1607 C1608 1.334 . S
C1608 H1579 0.950 . S
C1608 C1607 1.334 . S
C1608 C1609 1.287 1_655 S
C1609 C1608 1.287 1_455 S
C1609 C1610 1.524 . S
C1609 H1612 0.999 . S
C1610 H1580 0.950 . S
C1610 C1609 1.524 . S
C1610 C1611 1.415 . S
C1611 H1581 0.950 . S
C1611 C1606 1.363 . S
C1611 C1610 1.415 . S
H1612 C1609 0.999 . S
H1613 C1594 0.913 . S
H1614 C1632 0.951 . S
H1615 C1634 0.951 . S
H1616 C1636 0.950 . S
H1617 C1637 0.950 . S
H1618 C1639 0.950 . S
H1619 C1642 0.950 . S
H1620 C1643 0.950 . S
H1621 C1645 0.950 . S
H1622 C1646 0.950 . S
H1623 C1647 0.951 . S
H1624 C1649 0.951 . S
H1625 C1651 0.950 . S
H1626 C1652 0.950 . S
H1627 C1654 0.950 . S
H1628 C1657 0.950 . S
H1629 C1658 0.950 . S
H1630 C1660 0.950 . S
H1631 C1661 0.950 . S
C1632 H1614 0.951 . S
C1632 C1633 1.366 . S
C1632 C1634 1.388 . S
C1633 C1632 1.366 . S
C1633 C1637 1.385 . S
C1634 H1615 0.951 . S
C1634 C1632 1.388 . S
C1634 C1635 1.366 . S
C1635 C1634 1.366 . S
C1635 C1636 1.414 . S
C1635 C1638 1.499 . S
C1636 H1616 0.950 . S
C1636 C1635 1.414 . S
C1636 C1637 1.374 . S
C1637 H1617 0.950 . S
C1637 C1633 1.385 . S
C1637 C1636 1.374 . S
C1638 C1635 1.499 . S
C1638 C1639 1.373 . S
C1638 C1640 1.389 . S
C1639 H1618 0.950 . S
C1639 C1638 1.373 . S
C1639 C1655 1.377 . S
C1640 C1638 1.389 . S
C1640 C1641 1.524 . S
C1640 C1654 1.377 . S
C1641 C1640 1.524 . S
C1641 C1642 1.397 . S
C1641 C1646 1.363 . S
C1642 H1619 0.950 . S
C1642 C1641 1.397 . S
C1642 C1643 1.334 . S
C1643 H1620 0.950 . S
C1643 C1642 1.334 . S
C1643 C1644 1.287 . S
C1644 C1643 1.287 . S
C1644 C1645 1.524 . S
C1644 H1663 0.913 . S
C1645 H1621 0.950 . S
C1645 C1644 1.524 . S
C1645 C1646 1.415 . S
C1646 H1622 0.950 . S
C1646 C1641 1.363 . S
C1646 C1645 1.415 . S
C1647 H1623 0.951 . S
C1647 C1648 1.366 . S
C1647 C1649 1.388 . S
C1648 C1647 1.366 . S
C1648 C1652 1.385 . S
C1649 H1624 0.951 . S
C1649 C1647 1.388 . S
C1649 C1650 1.366 . S
C1650 C1649 1.366 . S
C1650 C1651 1.414 . S
C1650 C1653 1.499 . S
C1651 H1625 0.950 . S
C1651 C1650 1.414 . S
C1651 C1652 1.374 . S
C1652 H1626 0.950 . S
C1652 C1648 1.385 . S
C1652 C1651 1.374 . S
C1653 C1650 1.499 . S
C1653 C1654 1.373 . S
C1653 C1655 1.389 . S
C1654 H1627 0.950 . S
C1654 C1640 1.377 . S
C1654 C1653 1.373 . S
C1655 C1639 1.377 . S
C1655 C1653 1.389 . S
C1655 C1656 1.524 . S
C1656 C1655 1.524 . S
C1656 C1657 1.397 . S
C1656 C1661 1.363 . S
C1657 H1628 0.950 . S
C1657 C1656 1.397 . S
C1657 C1658 1.334 . S
C1658 H1629 0.950 . S
C1658 C1657 1.334 . S
C1658 C1659 1.287 . S
C1659 C1658 1.287 . S
C1659 C1660 1.524 . S
C1659 H1662 0.999 . S
C1660 H1630 0.950 . S
C1660 C1659 1.524 . S
C1660 C1661 1.415 . S
C1661 H1631 0.950 . S
C1661 C1656 1.363 . S
C1661 C1660 1.415 . S
H1662 C1659 0.999 . S
H1663 C1644 0.913 . S
H1664 C1682 0.951 . S
H1665 C1684 0.951 . S
H1666 C1686 0.950 . S
H1667 C1687 0.950 . S
H1668 C1689 0.950 . S
H1669 C1692 0.950 . S
H1670 C1693 0.950 . S
H1671 C1695 0.950 . S
H1672 C1696 0.950 . S
H1673 C1697 0.951 . S
H1674 C1699 0.951 . S
H1675 C1701 0.950 . S
H1676 C1702 0.950 . S
H1677 C1704 0.950 . S
H1678 C1707 0.950 . S
H1679 C1708 0.950 . S
H1680 C1710 0.950 . S
H1681 C1711 0.950 . S
C1682 H1664 0.951 . S
C1682 C1683 1.366 . S
C1682 C1684 1.388 . S
C1683 C1682 1.366 . S
C1683 C1687 1.385 . S
C1684 H1665 0.951 . S
C1684 C1682 1.388 . S
C1684 C1685 1.366 . S
C1685 C1684 1.366 . S
C1685 C1686 1.414 . S
C1685 C1688 1.499 . S
C1686 H1666 0.950 . S
C1686 C1685 1.414 . S
C1686 C1687 1.374 . S
C1687 H1667 0.950 . S
C1687 C1683 1.385 . S
C1687 C1686 1.374 . S
C1688 C1685 1.499 . S
C1688 C1689 1.373 . S
C1688 C1690 1.389 . S
C1689 H1668 0.950 . S
C1689 C1688 1.373 . S
C1689 C1705 1.377 . S
C1690 C1688 1.389 . S
C1690 C1691 1.524 . S
C1690 C1704 1.377 . S
C1691 C1690 1.524 . S
C1691 C1692 1.397 . S
C1691 C1696 1.363 . S
C1692 H1669 0.950 . S
C1692 C1691 1.397 . S
C1692 C1693 1.334 . S
C1693 H1670 0.950 . S
C1693 C1692 1.334 . S
C1693 C1694 1.287 . S
C1694 C1693 1.287 . S
C1694 C1695 1.524 . S
C1694 H1713 0.913 . S
C1695 H1671 0.950 . S
C1695 C1694 1.524 . S
C1695 C1696 1.415 . S
C1696 H1672 0.950 . S
C1696 C1691 1.363 . S
C1696 C1695 1.415 . S
C1697 H1673 0.951 . S
C1697 C1698 1.366 . S
C1697 C1699 1.388 . S
C1698 C1697 1.366 . S
C1698 C1702 1.385 . S
C1699 H1674 0.951 . S
C1699 C1697 1.388 . S
C1699 C1700 1.366 . S
C1700 C1699 1.366 . S
C1700 C1701 1.414 . S
C1700 C1703 1.499 . S
C1701 H1675 0.950 . S
C1701 C1700 1.414 . S
C1701 C1702 1.374 . S
C1702 H1676 0.950 . S
C1702 C1698 1.385 . S
C1702 C1701 1.374 . S
C1703 C1700 1.499 . S
C1703 C1704 1.373 . S
C1703 C1705 1.389 . S
C1704 H1677 0.950 . S
C1704 C1690 1.377 . S
C1704 C1703 1.373 . S
C1705 C1689 1.377 . S
C1705 C1703 1.389 . S
C1705 C1706 1.524 . S
C1706 C1705 1.524 . S
C1706 C1707 1.397 . S
C1706 C1711 1.363 . S
C1707 H1678 0.950 . S
C1707 C1706 1.397 . S
C1707 C1708 1.334 . S
C1708 H1679 0.950 . S
C1708 C1707 1.334 . S
C1708 C1709 1.287 . S
C1709 C1708 1.287 . S
C1709 C1710 1.524 . S
C1709 H1712 0.999 . S
C1710 H1680 0.950 . S
C1710 C1709 1.524 . S
C1710 C1711 1.415 . S
C1711 H1681 0.950 . S
C1711 C1706 1.363 . S
C1711 C1710 1.415 . S
H1712 C1709 0.999 . S
H1713 C1694 0.913 . S
H1714 C1732 0.951 . S
H1715 C1734 0.951 . S
H1716 C1736 0.950 . S
H1717 C1737 0.950 . S
H1718 C1739 0.950 . S
H1719 C1742 0.950 . S
H1720 C1743 0.950 . S
H1721 C1745 0.950 . S
H1722 C1746 0.950 . S
H1723 C1747 0.951 . S
H1724 C1749 0.951 . S
H1725 C1751 0.950 . S
H1726 C1752 0.950 . S
H1727 C1754 0.950 . S
H1728 C1757 0.950 . S
H1729 C1758 0.950 . S
H1730 C1760 0.950 . S
H1731 C1761 0.950 . S
C1732 H1714 0.951 . S
C1732 C1733 1.366 . S
C1732 C1734 1.388 . S
C1733 C1732 1.366 . S
C1733 C1737 1.385 . S
C1734 H1715 0.951 . S
C1734 C1732 1.388 . S
C1734 C1735 1.366 . S
C1735 C1734 1.366 . S
C1735 C1736 1.414 . S
C1735 C1738 1.499 . S
C1736 H1716 0.950 . S
C1736 C1735 1.414 . S
C1736 C1737 1.374 . S
C1737 H1717 0.950 . S
C1737 C1733 1.385 . S
C1737 C1736 1.374 . S
C1738 C1735 1.499 . S
C1738 C1739 1.373 1_655 S
C1738 C1740 1.389 1_545 S
C1739 H1718 0.950 . S
C1739 C1738 1.373 1_455 S
C1739 C1755 1.377 . S
C1740 C1738 1.389 1_565 S
C1740 C1741 1.524 . S
C1740 C1754 1.377 1_655 S
C1741 C1740 1.524 . S
C1741 C1742 1.397 . S
C1741 C1746 1.363 . S
C1742 H1719 0.950 . S
C1742 C1741 1.397 . S
C1742 C1743 1.334 . S
C1743 H1720 0.950 . S
C1743 C1742 1.334 . S
C1743 C1744 1.287 . S
C1744 C1743 1.287 . S
C1744 C1745 1.524 . S
C1744 H1763 0.913 . S
C1745 H1721 0.950 . S
C1745 C1744 1.524 . S
C1745 C1746 1.415 . S
C1746 H1722 0.950 . S
C1746 C1741 1.363 . S
C1746 C1745 1.415 . S
C1747 H1723 0.951 . S
C1747 C1748 1.366 . S
C1747 C1749 1.388 . S
C1748 C1747 1.366 . S
C1748 C1752 1.385 . S
C1749 H1724 0.951 . S
C1749 C1747 1.388 . S
C1749 C1750 1.366 . S
C1750 C1749 1.366 . S
C1750 C1751 1.414 . S
C1750 C1753 1.499 . S
C1751 H1725 0.950 . S
C1751 C1750 1.414 . S
C1751 C1752 1.374 . S
C1752 H1726 0.950 . S
C1752 C1748 1.385 . S
C1752 C1751 1.374 . S
C1753 C1750 1.499 . S
C1753 C1754 1.373 . S
C1753 C1755 1.389 1_565 S
C1754 H1727 0.950 . S
C1754 C1740 1.377 1_455 S
C1754 C1753 1.373 . S
C1755 C1739 1.377 . S
C1755 C1753 1.389 1_545 S
C1755 C1756 1.524 . S
C1756 C1755 1.524 . S
C1756 C1757 1.397 . S
C1756 C1761 1.363 . S
C1757 H1728 0.950 . S
C1757 C1756 1.397 . S
C1757 C1758 1.334 . S
C1758 H1729 0.950 . S
C1758 C1757 1.334 . S
C1758 C1759 1.287 . S
C1759 C1758 1.287 . S
C1759 C1760 1.524 . S
C1759 H1762 0.999 . S
C1760 H1730 0.950 . S
C1760 C1759 1.524 . S
C1760 C1761 1.415 . S
C1761 H1731 0.950 . S
C1761 C1756 1.363 . S
C1761 C1760 1.415 . S
H1762 C1759 0.999 . S
H1763 C1744 0.913 . S
H1764 C1782 0.951 . S
H1765 C1784 0.951 . S
H1766 C1786 0.950 . S
H1767 C1787 0.950 . S
H1768 C1789 0.950 . S
H1769 C1792 0.950 . S
H1770 C1793 0.950 . S
H1771 C1795 0.950 . S
H1772 C1796 0.950 . S
H1773 C1797 0.951 . S
H1774 C1799 0.951 . S
H1775 C1801 0.950 . S
H1776 C1802 0.950 . S
H1777 C1804 0.950 . S
H1778 C1807 0.950 . S
H1779 C1808 0.950 . S
H1780 C1810 0.950 . S
H1781 C1811 0.950 . S
C1782 H1764 0.951 . S
C1782 C1783 1.366 . S
C1782 C1784 1.388 . S
C1783 C1782 1.366 . S
C1783 C1787 1.385 . S
C1784 H1765 0.951 . S
C1784 C1782 1.388 . S
C1784 C1785 1.366 . S
C1785 C1784 1.366 . S
C1785 C1786 1.414 . S
C1785 C1788 1.499 . S
C1786 H1766 0.950 . S
C1786 C1785 1.414 . S
C1786 C1787 1.374 . S
C1787 H1767 0.950 . S
C1787 C1783 1.385 . S
C1787 C1786 1.374 . S
C1788 C1785 1.499 . S
C1788 C1789 1.373 . S
C1788 C1790 1.389 . S
C1789 H1768 0.950 . S
C1789 C1788 1.373 . S
C1789 C1805 1.377 . S
C1790 C1788 1.389 . S
C1790 C1791 1.524 . S
C1790 C1804 1.377 . S
C1791 C1790 1.524 . S
C1791 C1792 1.397 . S
C1791 C1796 1.363 . S
C1792 H1769 0.950 . S
C1792 C1791 1.397 . S
C1792 C1793 1.334 . S
C1793 H1770 0.950 . S
C1793 C1792 1.334 . S
C1793 C1794 1.287 . S
C1794 C1793 1.287 . S
C1794 C1795 1.524 . S
C1794 H1813 0.913 . S
C1795 H1771 0.950 . S
C1795 C1794 1.524 . S
C1795 C1796 1.415 . S
C1796 H1772 0.950 . S
C1796 C1791 1.363 . S
C1796 C1795 1.415 . S
C1797 H1773 0.951 . S
C1797 C1798 1.366 . S
C1797 C1799 1.388 . S
C1798 C1797 1.366 . S
C1798 C1802 1.385 . S
C1799 H1774 0.951 . S
C1799 C1797 1.388 . S
C1799 C1800 1.366 . S
C1800 C1799 1.366 . S
C1800 C1801 1.414 . S
C1800 C1803 1.499 . S
C1801 H1775 0.950 . S
C1801 C1800 1.414 . S
C1801 C1802 1.374 . S
C1802 H1776 0.950 . S
C1802 C1798 1.385 . S
C1802 C1801 1.374 . S
C1803 C1800 1.499 . S
C1803 C1804 1.373 . S
C1803 C1805 1.389 . S
C1804 H1777 0.950 . S
C1804 C1790 1.377 . S
C1804 C1803 1.373 . S
C1805 C1789 1.377 . S
C1805 C1803 1.389 . S
C1805 C1806 1.524 . S
C1806 C1805 1.524 . S
C1806 C1807 1.397 . S
C1806 C1811 1.363 . S
C1807 H1778 0.950 . S
C1807 C1806 1.397 . S
C1807 C1808 1.334 . S
C1808 H1779 0.950 . S
C1808 C1807 1.334 . S
C1808 C1809 1.287 . S
C1809 C1808 1.287 . S
C1809 C1810 1.524 . S
C1809 H1812 0.999 . S
C1810 H1780 0.950 . S
C1810 C1809 1.524 . S
C1810 C1811 1.415 . S
C1811 H1781 0.950 . S
C1811 C1806 1.363 . S
C1811 C1810 1.415 . S
H1812 C1809 0.999 . S
H1813 C1794 0.913 . S
H1814 C1832 0.951 . S
H1815 C1834 0.951 . S
H1816 C1836 0.950 . S
H1817 C1837 0.950 . S
H1818 C1839 0.950 . S
H1819 C1842 0.950 . S
H1820 C1843 0.950 . S
H1821 C1845 0.950 . S
H1822 C1846 0.950 . S
H1823 C1847 0.951 . S
H1824 C1849 0.951 . S
H1825 C1851 0.950 . S
H1826 C1852 0.950 . S
H1827 C1854 0.950 . S
H1828 C1857 0.950 . S
H1829 C1858 0.950 . S
H1830 C1860 0.950 . S
H1831 C1861 0.950 . S
C1832 H1814 0.951 . S
C1832 C1833 1.366 . S
C1832 C1834 1.388 . S
C1833 C1832 1.366 . S
C1833 C1837 1.385 . S
C1834 H1815 0.951 . S
C1834 C1832 1.388 . S
C1834 C1835 1.366 . S
C1835 C1834 1.366 . S
C1835 C1836 1.414 . S
C1835 C1838 1.499 . S
C1836 H1816 0.950 . S
C1836 C1835 1.414 . S
C1836 C1837 1.374 . S
C1837 H1817 0.950 . S
C1837 C1833 1.385 . S
C1837 C1836 1.374 . S
C1838 C1835 1.499 . S
C1838 C1839 1.373 . S
C1838 C1840 1.389 1_565 S
C1839 H1818 0.950 . S
C1839 C1838 1.373 . S
C1839 C1855 1.377 . S
C1840 C1838 1.389 1_545 S
C1840 C1841 1.524 . S
C1840 C1854 1.377 . S
C1841 C1840 1.524 . S
C1841 C1842 1.397 . S
C1841 C1846 1.363 . S
C1842 H1819 0.950 . S
C1842 C1841 1.397 . S
C1842 C1843 1.334 . S
C1843 H1820 0.950 . S
C1843 C1842 1.334 . S
C1843 C1844 1.287 . S
C1844 C1843 1.287 . S
C1844 C1845 1.524 . S
C1844 H1863 0.913 . S
C1845 H1821 0.950 . S
C1845 C1844 1.524 . S
C1845 C1846 1.415 . S
C1846 H1822 0.950 . S
C1846 C1841 1.363 . S
C1846 C1845 1.415 . S
C1847 H1823 0.951 . S
C1847 C1848 1.366 . S
C1847 C1849 1.388 . S
C1848 C1847 1.366 . S
C1848 C1852 1.385 . S
C1849 H1824 0.951 . S
C1849 C1847 1.388 . S
C1849 C1850 1.366 . S
C1850 C1849 1.366 . S
C1850 C1851 1.414 . S
C1850 C1853 1.499 . S
C1851 H1825 0.950 . S
C1851 C1850 1.414 . S
C1851 C1852 1.374 . S
C1852 H1826 0.950 . S
C1852 C1848 1.385 . S
C1852 C1851 1.374 . S
C1853 C1850 1.499 . S
C1853 C1854 1.373 . S
C1853 C1855 1.389 1_545 S
C1854 H1827 0.950 . S
C1854 C1840 1.377 . S
C1854 C1853 1.373 . S
C1855 C1839 1.377 . S
C1855 C1853 1.389 1_565 S
C1855 C1856 1.524 . S
C1856 C1855 1.524 . S
C1856 C1857 1.397 . S
C1856 C1861 1.363 . S
C1857 H1828 0.950 . S
C1857 C1856 1.397 . S
C1857 C1858 1.334 . S
C1858 H1829 0.950 . S
C1858 C1857 1.334 . S
C1858 C1859 1.287 . S
C1859 C1858 1.287 . S
C1859 C1860 1.524 . S
C1859 H1862 0.999 . S
C1860 H1830 0.950 . S
C1860 C1859 1.524 . S
C1860 C1861 1.415 . S
C1861 H1831 0.950 . S
C1861 C1856 1.363 . S
C1861 C1860 1.415 . S
H1862 C1859 0.999 . S
H1863 C1844 0.913 . S
C283 C28 1.674 . S
C298 C58 1.707 . S
C333 C25 2.200 . S
C348 C94 2.208 . S
C383 C120 1.707 . S
C398 C57 1.674 . S
C433 C87 2.199 . S
C448 C123 2.207 . S
C483 C127 1.674 . S
C498 C157 1.707 . S
C533 C193 2.208 . S
C548 C124 2.200 . S
C583 C156 1.674 . S
C598 C21 1.707 . S
C633 C186 2.199 . S
C648 C24 2.208 . S
C683 C190 1.707 . S
C698 C226 1.673 . S
C733 C223 2.200 . S
C748 C160 2.208 . S
C783 C252 1.707 . S
C798 C189 1.673 . S
C833 C255 2.208 . S
C848 C153 2.200 . S
C883 C259 1.674 . S
C898 C91 1.707 . S
C933 C61 2.208 . S
C948 C256 2.199 . S
C983 C219 1.707 . S
C998 C90 1.673 . S
C1033 C222 2.208 . S
C1048 C54 2.199 . S
C1083 C27 1.045 . S
C1098 C23 1.040 1_455 S
C1133 C60 1.045 . S
C1148 C56 1.045 . S
C1183 C93 1.047 . S
C1198 C89 1.047 . S
C1233 C122 1.041 1_455 S
C1248 C126 1.045 . S
C1283 C159 1.045 . S
C1298 C155 1.045 . S
C1333 C192 1.045 . S
C1348 C188 1.045 . S
C1383 C225 1.047 . S
C1398 C221 1.047 . S
C1433 C254 1.045 . S
C1448 C258 1.045 . S
C1483 C257 0.557 . S
C1498 C22 0.557 . S
C1533 C26 0.556 . S
C1548 C253 0.556 . S
C1583 C59 0.556 . S
C1598 C88 0.556 . S
C1633 C224 0.554 . S
C1648 C121 0.554 . S
C1683 C125 0.556 . S
C1698 C220 0.556 . S
C1733 C187 0.555 . S
C1748 C158 0.555 . S
C1783 C191 0.554 . S
C1798 C154 0.554 . S
C1833 C92 0.555 . S
C1848 C55 0.555 . S
