# Generated by pormake.
# Topology umx, (4)-cn, num edge types: 1
# Building blocks:
#     Node 0, Type 0, BuildingBlock: ICAMEG_clean_sbu_1, # of connection points: 4
#     Node 1, Type 0, BuildingBlock: ICAMEG_clean_sbu_1, # of connection points: 4
#     Node 2, Type 0, BuildingBlock: ICAMEG_clean_sbu_1, # of connection points: 4
#     Node 3, Type 0, BuildingBlock: ICAMEG_clean_sbu_1, # of connection points: 4
#     Node 4, Type 0, BuildingBlock: ICAMEG_clean_sbu_1, # of connection points: 4
#     Node 5, Type 0, BuildingBlock: ICAMEG_clean_sbu_1, # of connection points: 4
#     Node 6, Type 0, BuildingBlock: ICAMEG_clean_sbu_1, # of connection points: 4
#     Node 7, Type 0, BuildingBlock: ICAMEG_clean_sbu_1, # of connection points: 4
#     Edge 8, Type (0, 0), BuildingBlock: XIVTED_clean_linker_0, # of connection points: 2
#     Edge 9, Type (0, 0), BuildingBlock: XIVTED_clean_linker_0, # of connection points: 2
#     Edge 10, Type (0, 0), BuildingBlock: XIVTED_clean_linker_0, # of connection points: 2
#     Edge 11, Type (0, 0), BuildingBlock: XIVTED_clean_linker_0, # of connection points: 2
#     Edge 12, Type (0, 0), BuildingBlock: XIVTED_clean_linker_0, # of connection points: 2
#     Edge 13, Type (0, 0), BuildingBlock: XIVTED_clean_linker_0, # of connection points: 2
#     Edge 14, Type (0, 0), BuildingBlock: XIVTED_clean_linker_0, # of connection points: 2
#     Edge 15, Type (0, 0), BuildingBlock: XIVTED_clean_linker_0, # of connection points: 2
#     Edge 16, Type (0, 0), BuildingBlock: XIVTED_clean_linker_0, # of connection points: 2
#     Edge 17, Type (0, 0), BuildingBlock: XIVTED_clean_linker_0, # of connection points: 2
#     Edge 18, Type (0, 0), BuildingBlock: XIVTED_clean_linker_0, # of connection points: 2
#     Edge 19, Type (0, 0), BuildingBlock: XIVTED_clean_linker_0, # of connection points: 2
#     Edge 20, Type (0, 0), BuildingBlock: XIVTED_clean_linker_0, # of connection points: 2
#     Edge 21, Type (0, 0), BuildingBlock: XIVTED_clean_linker_0, # of connection points: 2
#     Edge 22, Type (0, 0), BuildingBlock: XIVTED_clean_linker_0, # of connection points: 2
#     Edge 23, Type (0, 0), BuildingBlock: XIVTED_clean_linker_0, # of connection points: 2
# Relax obj value: 0.033
# Max RMSD: 0.111
# Mean RMSD: 0.111
data_MOF--net-umx--node1-ICAMEG_clean_sbu_1--edge1-XIVTED_clean_linker_0
_symmetry_space_group_name_H-M    P1
_symmetry_Int_Tables_number       1
_symmetry_cell_setting            triclinic
loop_
_symmetry_equiv_pos_as_xyz
'x, y, z'
_cell_length_a     41.89512
_cell_length_b     41.914512
_cell_length_c     30.673335
_cell_angle_alpha  89.997054
_cell_angle_beta   89.995556
_cell_angle_gamma 89.962636
loop_
_atom_site_label
_atom_site_type_symbol
_atom_site_fract_x
_atom_site_fract_y
_atom_site_fract_z
_atom_type_partial_charge
Co0 Co 0.1847 0.49183 0.01901 0.0
Co1 Co 0.16266 0.41668 0.05279 0.0
O2 O 0.18466 0.44563 0.01325 0.0
C3 C 0.16085 0.48119 0.93 0.0
O4 O 0.13947 0.46213 0.94732 0.0
C5 C 0.22945 0.39488 0.05159 0.0
O6 O 0.23733 0.42461 0.05959 0.0
O7 O 0.18189 0.43781 0.1044 0.0
O8 O 0.18817 0.48893 0.08402 0.0
H9 H 0.09788 0.38703 0.18454 0.0
H10 H 0.23074 0.46066 0.95917 0.0
O11 O 0.18118 0.49536 0.95405 0.0
H12 H 0.29661 0.5192 0.06567 0.0
H13 H 0.21512 0.60315 0.97375 0.0
H14 H 0.15345 0.5383 0.07813 0.0
H15 H 0.23785 0.52123 0.06976 0.0
H16 H 0.21534 0.54439 0.96879 0.0
O17 O 0.20012 0.38699 0.04912 0.0
H18 H 0.12477 0.42398 0.13385 0.0
H19 H 0.15563 0.346 0.05611 0.0
H20 H 0.15276 0.59698 0.08452 0.0
H21 H 0.28943 0.45817 0.95369 0.0
H22 H 0.18377 0.6298 0.03207 0.0
H23 H 0.32277 0.4875 0.0073 0.0
O24 O 0.13741 0.49242 0.0238 0.0
H25 H 0.16378 0.36786 0.90313 0.0
H26 H 0.09653 0.397 0.02896 0.0
H27 H 0.07172 0.37232 0.96432 0.0
H28 H 0.10544 0.35753 0.90084 0.0
H29 H 0.18758 0.39282 0.96827 0.0
H30 H 0.12927 0.30817 0.10612 0.0
H31 H 0.10003 0.32866 0.17078 0.0
O32 O 0.12488 0.44601 0.0567 0.0
C33 C 0.18835 0.4669 0.11278 0.0
C34 C 0.11044 0.37782 0.15639 0.0
C35 C 0.1281 0.33355 0.1124 0.0
N36 N 0.14149 0.38716 0.09188 0.0
C37 C 0.12562 0.39863 0.1275 0.0
C38 C 0.14302 0.35507 0.08425 0.0
C39 C 0.11169 0.34507 0.14868 0.0
C40 C 0.24509 0.47377 0.98233 0.0
N41 N 0.23089 0.49119 0.01461 0.0
C42 C 0.27831 0.47215 0.97919 0.0
C43 C 0.297 0.48857 0.00932 0.0
C44 C 0.28234 0.50634 0.0421 0.0
C45 C 0.24905 0.50735 0.0443 0.0
C46 C 0.20158 0.58911 0.99686 0.0
C47 C 0.16717 0.55243 0.05538 0.0
C48 C 0.20157 0.55584 0.99417 0.0
N49 N 0.18466 0.53797 0.0234 0.0
C50 C 0.16661 0.58564 0.05907 0.0
C51 C 0.18399 0.60404 0.0296 0.0
C52 C 0.11755 0.47354 0.04188 0.0
C53 C 0.14886 0.3741 0.93065 0.0
C54 C 0.11136 0.39068 0.00144 0.0
C55 C 0.09718 0.37666 0.96496 0.0
C56 C 0.11611 0.36836 0.92936 0.0
N57 N 0.14351 0.39617 0.00249 0.0
C58 C 0.16222 0.38812 0.9677 0.0
Co59 Co 0.50778 0.1838 0.52202 0.0
Co60 Co 0.5848 0.16357 0.55183 0.0
O61 O 0.55403 0.18546 0.5145 0.0
C62 C 0.51928 0.16071 0.43301 0.0
O63 O 0.54251 0.14353 0.44954 0.0
C64 C 0.60447 0.23137 0.55322 0.0
O65 O 0.57445 0.23894 0.55984 0.0
O66 O 0.56341 0.17982 0.60548 0.0
O67 O 0.51234 0.18867 0.58636 0.0
H68 H 0.61921 0.09513 0.67783 0.0
H69 H 0.53593 0.22947 0.45905 0.0
O70 O 0.50242 0.17853 0.45753 0.0
H71 H 0.47778 0.29566 0.56566 0.0
H72 H 0.3943 0.20963 0.48124 0.0
H73 H 0.46396 0.15241 0.58463 0.0
H74 H 0.47785 0.237 0.57207 0.0
H75 H 0.45287 0.21165 0.47332 0.0
O76 O 0.61277 0.2022 0.55046 0.0
H77 H 0.58038 0.1223 0.63007 0.0
H78 H 0.65587 0.15968 0.5531 0.0
H79 H 0.40553 0.14996 0.59398 0.0
H80 H 0.53632 0.28804 0.45123 0.0
H81 H 0.37028 0.17872 0.54204 0.0
H82 H 0.50717 0.32155 0.50487 0.0
O83 O 0.50862 0.1366 0.52856 0.0
H84 H 0.63126 0.1733 0.40134 0.0
H85 H 0.60812 0.09972 0.5227 0.0
H86 H 0.63306 0.07891 0.45565 0.0
H87 H 0.64481 0.11583 0.39437 0.0
H88 H 0.60605 0.19302 0.4688 0.0
H89 H 0.69554 0.13313 0.60021 0.0
H90 H 0.67726 0.10047 0.66299 0.0
O91 O 0.55762 0.1244 0.55339 0.0
C92 C 0.53463 0.18734 0.61463 0.0
C93 C 0.62747 0.10921 0.65049 0.0
C94 C 0.67031 0.13058 0.60696 0.0
N95 N 0.61585 0.14234 0.58867 0.0
C96 C 0.6056 0.12457 0.62328 0.0
C97 C 0.64775 0.14562 0.58047 0.0
C98 C 0.66004 0.11225 0.64218 0.0
C99 C 0.52293 0.24388 0.48226 0.0
N100 N 0.50675 0.22983 0.51583 0.0
C101 C 0.52334 0.27704 0.47777 0.0
C102 C 0.50702 0.29583 0.50792 0.0
C103 C 0.49055 0.28132 0.54206 0.0
C104 C 0.49072 0.24809 0.54557 0.0
C105 C 0.40941 0.19706 0.50413 0.0
C106 C 0.44878 0.16515 0.56207 0.0
C107 C 0.44258 0.19806 0.49976 0.0
N108 N 0.46179 0.18238 0.52871 0.0
C109 C 0.41571 0.1636 0.56745 0.0
C110 C 0.39595 0.17971 0.53826 0.0
C111 C 0.52923 0.11669 0.54262 0.0
C112 C 0.62633 0.15699 0.42786 0.0
C113 C 0.61304 0.1159 0.49614 0.0
C114 C 0.62726 0.104 0.45829 0.0
C115 C 0.63388 0.12473 0.42394 0.0
N116 N 0.60567 0.14756 0.49972 0.0
C117 C 0.61218 0.16805 0.46622 0.0
Co118 Co 0.81963 0.50845 0.02202 0.0
Co119 Co 0.83854 0.58488 0.05447 0.0
O120 O 0.81738 0.5547 0.01553 0.0
C121 C 0.84085 0.52083 0.93243 0.0
O122 O 0.85839 0.54386 0.94867 0.0
C123 C 0.77102 0.60513 0.05287 0.0
O124 O 0.7634 0.57524 0.06033 0.0
O125 O 0.82008 0.56355 0.10644 0.0
O126 O 0.81622 0.51202 0.08691 0.0
H127 H 0.90243 0.61777 0.18556 0.0
H128 H 0.77201 0.53664 0.96186 0.0
O129 O 0.82336 0.5039 0.95728 0.0
H130 H 0.70928 0.47633 0.07006 0.0
H131 H 0.79429 0.39518 0.97993 0.0
H132 H 0.85331 0.46434 0.08197 0.0
H133 H 0.76809 0.47719 0.07387 0.0
H134 H 0.79127 0.45379 0.97344 0.0
O135 O 0.80025 0.61337 0.05068 0.0
H136 H 0.87665 0.57954 0.1356 0.0
H137 H 0.84342 0.6558 0.05649 0.0
H138 H 0.85678 0.40585 0.0899 0.0
H139 H 0.71325 0.53623 0.95665 0.0
H140 H 0.82711 0.37087 0.03863 0.0
H141 H 0.68149 0.50598 0.0111 0.0
O142 O 0.86687 0.51012 0.02595 0.0
H143 H 0.83505 0.63317 0.90455 0.0
H144 H 0.90397 0.60632 0.02963 0.0
H145 H 0.92763 0.63142 0.9645 0.0
H146 H 0.89307 0.64505 0.90138 0.0
H147 H 0.81242 0.60774 0.97013 0.0
H148 H 0.86865 0.69489 0.10576 0.0
H149 H 0.89851 0.67591 0.17075 0.0
O150 O 0.87738 0.55701 0.05874 0.0
C151 C 0.81496 0.53427 0.11528 0.0
C152 C 0.88958 0.62633 0.15727 0.0
C153 C 0.87059 0.66962 0.11251 0.0
N154 N 0.85881 0.61543 0.09298 0.0
C155 C 0.87502 0.60479 0.12879 0.0
C156 C 0.85631 0.64738 0.08477 0.0
C157 C 0.88735 0.65895 0.14896 0.0
C158 C 0.75836 0.52316 0.98541 0.0
N159 N 0.77346 0.50684 0.01799 0.0
C160 C 0.72509 0.52313 0.98241 0.0
C161 C 0.70728 0.5062 0.01301 0.0
C162 C 0.72286 0.48957 0.04613 0.0
C163 C 0.75616 0.4902 0.04817 0.0
C164 C 0.80726 0.41018 0.00253 0.0
C165 C 0.84018 0.44925 0.05972 0.0
C166 C 0.80569 0.44336 -0.00104 0.0
N167 N 0.82188 0.46243 0.02755 0.0
C168 C 0.8423 0.41617 0.06429 0.0
C169 C 0.82568 0.39655 0.03548 0.0
C170 C 0.8859 0.52986 0.04386 0.0
C171 C 0.85033 0.62744 0.93191 0.0
C172 C 0.88878 0.61209 0.00226 0.0
C173 C 0.9023 0.62638 0.96551 0.0
C174 C 0.8829 0.63405 0.93012 0.0
N175 N 0.85681 0.60568 0.00377 0.0
C176 C 0.83763 0.61319 0.96922 0.0
Co177 Co 0.49274 0.81744 0.52287 0.0
Co178 Co 0.41541 0.8375 0.55132 0.0
O179 O 0.44657 0.81566 0.51457 0.0
C180 C 0.48189 0.84042 0.43367 0.0
O181 O 0.45855 0.85763 0.44985 0.0
C182 C 0.39609 0.76967 0.55275 0.0
O183 O 0.42609 0.76237 0.56004 0.0
O184 O 0.43636 0.82135 0.60531 0.0
O185 O 0.48764 0.81257 0.58718 0.0
H186 H 0.3797 0.9058 0.67678 0.0
H187 H 0.46525 0.77165 0.45953 0.0
O188 O 0.49862 0.82268 0.45847 0.0
H189 H 0.52277 0.70569 0.56705 0.0
H190 H 0.60663 0.79199 0.48378 0.0
H191 H 0.53595 0.84899 0.58613 0.0
H192 H 0.52242 0.76436 0.57344 0.0
H193 H 0.54813 0.78974 0.47504 0.0
O194 O 0.38759 0.79875 0.54958 0.0
H195 H 0.41902 0.87882 0.62957 0.0
H196 H 0.34431 0.84113 0.55149 0.0
H197 H 0.5943 0.85167 0.5963 0.0
H198 H 0.46515 0.71308 0.45174 0.0
H199 H 0.63006 0.82302 0.54488 0.0
H200 H 0.49399 0.67969 0.50583 0.0
O201 O 0.49171 0.86463 0.52935 0.0
H202 H 0.37026 0.82746 0.40014 0.0
H203 H 0.39208 0.90123 0.52173 0.0
H204 H 0.36762 0.92188 0.45427 0.0
H205 H 0.35653 0.88487 0.39288 0.0
H206 H 0.395 0.8079 0.46802 0.0
H207 H 0.30416 0.86751 0.59803 0.0
H208 H 0.3218 0.90022 0.6611 0.0
O209 O 0.44245 0.87677 0.55323 0.0
C210 C 0.46504 0.81387 0.61501 0.0
C211 C 0.37172 0.8917 0.64931 0.0
C212 C 0.32932 0.87017 0.60515 0.0
N213 N 0.38397 0.85865 0.58764 0.0
C214 C 0.39387 0.87645 0.6224 0.0
C215 C 0.35215 0.85524 0.57897 0.0
C216 C 0.33924 0.88853 0.64052 0.0
C217 C 0.47812 0.75729 0.48295 0.0
N218 N 0.49397 0.77141 0.51675 0.0
C219 C 0.47786 0.72413 0.47847 0.0
C220 C 0.49401 0.70541 0.50887 0.0
C221 C 0.51014 0.71999 0.54325 0.0
C222 C 0.50982 0.75321 0.54674 0.0
C223 C 0.5913 0.80451 0.50645 0.0
C224 C 0.55136 0.83629 0.5638 0.0
C225 C 0.55817 0.80337 0.50162 0.0
N226 N 0.53867 0.819 0.53027 0.0
C227 C 0.58438 0.83798 0.56964 0.0
C228 C 0.60443 0.82192 0.54075 0.0
C229 C 0.47093 0.88452 0.54296 0.0
C230 C 0.37491 0.84381 0.42671 0.0
C231 C 0.38746 0.88501 0.49511 0.0
C232 C 0.37351 0.89682 0.45704 0.0
C233 C 0.36726 0.87603 0.42262 0.0
N234 N 0.39494 0.85339 0.49886 0.0
C235 C 0.38879 0.83285 0.4653 0.0
Co236 Co 0.18473 0.50716 0.51928 0.0
Co237 Co 0.16282 0.58232 0.48525 0.0
O238 O 0.18461 0.55337 0.52503 0.0
C239 C 0.16003 0.5179 0.6078 0.0
O240 O 0.13892 0.53703 0.58998 0.0
C241 C 0.22954 0.6044 0.48738 0.0
O242 O 0.23779 0.5747 0.47981 0.0
O243 O 0.18246 0.56122 0.43389 0.0
O244 O 0.18872 0.51009 0.45432 0.0
H245 H 0.09887 0.61195 0.35271 0.0
H246 H 0.23021 0.53826 0.57992 0.0
O247 O 0.18062 0.50363 0.5842 0.0
H248 H 0.29706 0.47982 0.47436 0.0
H249 H 0.21499 0.39585 0.56495 0.0
H250 H 0.15409 0.46069 0.45963 0.0
H251 H 0.23834 0.47784 0.4693 0.0
H252 H 0.215 0.45461 0.56998 0.0
O253 O 0.20012 0.61206 0.48934 0.0
H254 H 0.12555 0.57501 0.40367 0.0
H255 H 0.15558 0.65299 0.48194 0.0
H256 H 0.15362 0.40201 0.45315 0.0
H257 H 0.28884 0.5407 0.58637 0.0
H258 H 0.18424 0.3692 0.50608 0.0
H259 H 0.32268 0.51141 0.53325 0.0
O260 O 0.13746 0.50653 0.51375 0.0
H261 H 0.16284 0.63107 0.63494 0.0
H262 H 0.09648 0.6019 0.50831 0.0
H263 H 0.07118 0.62648 0.57269 0.0
H264 H 0.10445 0.64129 0.63658 0.0
H265 H 0.18712 0.6062 0.57005 0.0
H266 H 0.12943 0.69081 0.43166 0.0
H267 H 0.10071 0.67031 0.36659 0.0
O268 O 0.12517 0.553 0.48082 0.0
C269 C 0.18902 0.53214 0.42557 0.0
C270 C 0.11121 0.62117 0.38103 0.0
C271 C 0.12839 0.66543 0.42531 0.0
N272 N 0.14184 0.61183 0.44591 0.0
C273 C 0.12627 0.60036 0.41006 0.0
C274 C 0.1432 0.64392 0.45361 0.0
C275 C 0.11228 0.65391 0.38882 0.0
C276 C 0.24477 0.52518 0.55696 0.0
N277 N 0.23087 0.50781 0.52441 0.0
C278 C 0.27796 0.52676 0.56066 0.0
C279 C 0.29693 0.51037 0.5308 0.0
C280 C 0.28257 0.49266 0.49773 0.0
C281 C 0.24931 0.49168 0.49497 0.0
C282 C 0.20162 0.40989 0.54163 0.0
C283 C 0.16763 0.44656 0.4826 0.0
C284 C 0.20149 0.44316 0.54437 0.0
N285 N 0.1848 0.46103 0.51488 0.0
C286 C 0.1672 0.41335 0.47885 0.0
C287 C 0.18436 0.39495 0.50859 0.0
C288 C 0.11775 0.52545 0.49542 0.0
C289 C 0.14811 0.62482 0.60725 0.0
C290 C 0.11111 0.60822 0.53601 0.0
C291 C 0.09666 0.62219 0.57234 0.0
C292 C 0.11534 0.6305 0.60817 0.0
N293 N 0.14328 0.60279 0.53532 0.0
C294 C 0.16175 0.61086 0.57033 0.0
Co295 Co 0.49205 0.18188 0.0229 0.0
Co296 Co 0.41715 0.16199 0.98537 0.0
O297 O 0.44557 0.18375 0.02618 0.0
C298 C 0.47675 0.16181 0.11228 0.0
O299 O 0.45421 0.14404 0.0952 0.0
C300 C 0.39565 0.22909 0.98538 0.0
O301 O 0.42562 0.23723 0.97964 0.0
O302 O 0.44007 0.18073 0.93487 0.0
O303 O 0.49091 0.18436 0.95769 0.0
H304 H 0.39015 0.09737 0.85245 0.0
H305 H 0.46131 0.23004 0.07977 0.0
O306 O 0.49433 0.17907 0.08797 0.0
H307 H 0.52496 0.29176 0.97408 0.0
H308 H 0.60349 0.20876 0.07197 0.0
H309 H 0.53857 0.14762 0.9671 0.0
H310 H 0.52476 0.23293 0.97185 0.0
H311 H 0.54468 0.21148 0.07425 0.0
O312 O 0.38787 0.19975 0.98711 0.0
H313 H 0.42608 0.12387 0.90486 0.0
H314 H 0.34643 0.1559 0.97853 0.0
H315 H 0.59732 0.14441 0.96339 0.0
H316 H 0.461 0.28885 0.08338 0.0
H317 H 0.63018 0.17514 0.01611 0.0
H318 H 0.49292 0.3201 0.03018 0.0
O319 O 0.49085 0.13464 0.02013 0.0
H320 H 0.36316 0.16495 0.13166 0.0
H321 H 0.39589 0.09627 0.00898 0.0
H322 H 0.36868 0.07235 0.07231 0.0
H323 H 0.35207 0.10678 0.13421 0.0
H324 H 0.39075 0.18785 0.06792 0.0
H325 H 0.30962 0.12995 0.92676 0.0
H326 H 0.33146 0.10033 0.86326 0.0
O327 O 0.44578 0.12361 0.98317 0.0
C328 C 0.46968 0.18562 0.92788 0.0
C329 C 0.38035 0.11011 0.88008 0.0
C330 C 0.33515 0.12844 0.92175 0.0
N331 N 0.38837 0.14115 0.94491 0.0
C332 C 0.40058 0.12507 0.90993 0.0
C333 C 0.3561 0.14312 0.95091 0.0
C334 C 0.34742 0.11181 0.88614 0.0
C335 C 0.47551 0.24349 0.0568 0.0
N336 N 0.49314 0.22809 0.02579 0.0
C337 C 0.47514 0.27677 0.05888 0.0
C338 C 0.49301 0.29429 0.02897 0.0
C339 C 0.51097 0.27841 0.99747 0.0
C340 C 0.51072 0.2451 0.99631 0.0
C341 C 0.58943 0.19533 0.04876 0.0
C342 C 0.55273 0.16123 0.98994 0.0
C343 C 0.55613 0.19673 0.04994 0.0
N344 N 0.53825 0.17995 0.02057 0.0
C345 C 0.58597 0.15924 0.98778 0.0
C346 C 0.60439 0.17646 0.0174 0.0
C347 C 0.47219 0.11537 0.00063 0.0
C348 C 0.37019 0.14972 0.10483 0.0
C349 C 0.38885 0.11141 0.03585 0.0
C350 C 0.37337 0.09773 0.07157 0.0
C351 C 0.36402 0.11707 0.10627 0.0
N352 N 0.39481 0.14346 0.03466 0.0
C353 C 0.38567 0.16257 0.06854 0.0
Co354 Co 0.81954 0.49406 0.52159 0.0
Co355 Co 0.83772 0.4176 0.48849 0.0
O356 O 0.81683 0.44782 0.52768 0.0
C357 C 0.84047 0.48104 0.61117 0.0
O358 O 0.85779 0.45785 0.59483 0.0
C359 C 0.77002 0.39811 0.48991 0.0
O360 O 0.76268 0.4281 0.48261 0.0
O361 O 0.81948 0.43936 0.43672 0.0
O362 O 0.81621 0.49086 0.45664 0.0
H363 H 0.90132 0.38466 0.3571 0.0
H364 H 0.77155 0.46611 0.58133 0.0
O365 O 0.82321 0.49827 0.58638 0.0
H366 H 0.70961 0.52759 0.47344 0.0
H367 H 0.79529 0.6074 0.56466 0.0
H368 H 0.85382 0.53807 0.4622 0.0
H369 H 0.76841 0.52615 0.46987 0.0
H370 H 0.79162 0.5488 0.57055 0.0
O371 O 0.79916 0.38954 0.49203 0.0
H372 H 0.8759 0.42292 0.40742 0.0
H373 H 0.84192 0.34663 0.48581 0.0
H374 H 0.85795 0.59655 0.45487 0.0
H375 H 0.71278 0.46708 0.5863 0.0
H376 H 0.82854 0.63162 0.50636 0.0
H377 H 0.68141 0.49791 0.532 0.0
O378 O 0.86677 0.49185 0.5178 0.0
H379 H 0.83374 0.36856 0.63793 0.0
H380 H 0.90294 0.39531 0.51312 0.0
H381 H 0.92634 0.36959 0.57798 0.0
H382 H 0.89165 0.356 0.64096 0.0
H383 H 0.81138 0.3946 0.57263 0.0
H384 H 0.86679 0.30752 0.43618 0.0
H385 H 0.89685 0.32649 0.37138 0.0
O386 O 0.87683 0.44505 0.48449 0.0
C387 C 0.8147 0.46874 0.4281 0.0
C388 C 0.88839 0.3761 0.38532 0.0
C389 C 0.86897 0.3328 0.42967 0.0
N390 N 0.85771 0.38702 0.4497 0.0
C391 C 0.87403 0.39765 0.41399 0.0
C392 C 0.8549 0.35505 0.45761 0.0
C393 C 0.88584 0.34346 0.39332 0.0
C394 C 0.75807 0.47984 0.55786 0.0
N395 N 0.77339 0.49617 0.52548 0.0
C396 C 0.7248 0.48019 0.56072 0.0
C397 C 0.70721 0.49745 0.5302 0.0
C398 C 0.72302 0.51409 0.49731 0.0
C399 C 0.75631 0.51313 0.4954 0.0
C400 C 0.80816 0.59237 0.54197 0.0
C401 C 0.84079 0.5532 0.48453 0.0
C402 C 0.80622 0.55919 0.54519 0.0
N403 N 0.82227 0.54008 0.51649 0.0
C404 C 0.8433 0.58628 0.48031 0.0
C405 C 0.82682 0.60595 0.50924 0.0
C406 C 0.88561 0.47199 0.49971 0.0
C407 C 0.84909 0.37426 0.61064 0.0
C408 C 0.88769 0.38957 0.54044 0.0
C409 C 0.90107 0.37493 0.57704 0.0
C410 C 0.88159 0.36728 0.61235 0.0
N411 N 0.85579 0.39635 0.539 0.0
C412 C 0.83653 0.38887 0.57347 0.0
Co413 Co 0.50573 0.81723 0.02246 0.0
Co414 Co 0.58159 0.83601 0.98752 0.0
O415 O 0.5521 0.81485 0.02742 0.0
C416 C 0.51973 0.83802 0.11186 0.0
O417 O 0.54257 0.85553 0.09501 0.0
C418 C 0.60208 0.76858 0.9886 0.0
O419 O 0.57211 0.76084 0.98201 0.0
O420 O 0.55938 0.81744 0.93634 0.0
O421 O 0.5081 0.81415 0.95735 0.0
H422 H 0.61211 0.89978 0.85524 0.0
H423 H 0.53485 0.76929 0.08126 0.0
O424 O 0.50234 0.82068 0.08741 0.0
H425 H 0.47259 0.70724 0.97443 0.0
H426 H 0.39315 0.79195 0.06816 0.0
H427 H 0.46061 0.85138 0.96442 0.0
H428 H 0.47347 0.76604 0.97117 0.0
H429 H 0.45187 0.78871 0.07256 0.0
O430 O 0.61024 0.79782 0.9905 0.0
H431 H 0.57479 0.87395 0.90645 0.0
H432 H 0.6525 0.84107 0.98322 0.0
H433 H 0.40198 0.85508 0.95858 0.0
H434 H 0.53446 0.71053 0.08591 0.0
H435 H 0.36785 0.82522 0.01072 0.0
H436 H 0.50323 0.67911 0.03214 0.0
O437 O 0.50745 0.86444 0.01887 0.0
H438 H 0.6326 0.83281 0.13577 0.0
H439 H 0.60334 0.9015 0.01148 0.0
H440 H 0.62959 0.92526 0.07567 0.0
H441 H 0.64445 0.89083 0.13838 0.0
H442 H 0.606 0.81007 0.07115 0.0
H443 H 0.69068 0.86635 0.93268 0.0
H444 H 0.67052 0.89607 0.86824 0.0
O445 O 0.55359 0.87477 0.98403 0.0
C446 C 0.5299 0.81269 0.92832 0.0
C447 C 0.62118 0.887 0.88329 0.0
C448 C 0.66529 0.8682 0.92672 0.0
N449 N 0.61145 0.85628 0.94797 0.0
C450 C 0.60017 0.87241 0.91246 0.0
C451 C 0.64356 0.85389 0.95518 0.0
C452 C 0.65396 0.88488 0.89058 0.0
C453 C 0.52095 0.75578 0.05803 0.0
N454 N 0.50409 0.77106 0.02613 0.0
C455 C 0.52093 0.72252 0.06071 0.0
C456 C 0.50345 0.7049 0.03048 0.0
C457 C 0.48627 0.72067 -0.00193 0.0
C458 C 0.48691 0.75396 0.99633 0.0
C459 C 0.40777 0.80501 0.04519 0.0
C460 C 0.44589 0.83815 0.98703 0.0
C461 C 0.44102 0.80331 0.04757 0.0
N462 N 0.45961 0.81961 0.01851 0.0
C463 C 0.41272 0.84041 0.98365 0.0
C464 C 0.39359 0.82368 0.01294 0.0
C465 C 0.52682 0.88339 5e-05 0.0
C466 C 0.62634 0.84804 0.10859 0.0
C467 C 0.60963 0.88636 0.03869 0.0
C468 C 0.62457 0.89995 0.07491 0.0
C469 C 0.63292 0.8806 0.11006 0.0
N470 N 0.60324 0.85439 0.03748 0.0
C471 C 0.61142 0.83527 0.0718 0.0
H472 H 0.19257 0.42759 0.18414 0.0
H473 H 0.19322 0.57145 0.35422 0.0
H474 H 0.19831 0.52675 0.14645 0.0
H475 H 0.19899 0.47227 0.39189 0.0
H476 H 0.19828 0.55557 0.27805 0.0
H477 H 0.19806 0.44344 0.26027 0.0
C478 C 0.19526 0.45268 0.19175 0.0
C479 C 0.1947 0.47587 0.15869 0.0
C480 C 0.19874 0.5373 0.303 0.0
C481 C 0.20078 0.49419 0.24608 0.0
C482 C 0.19585 0.54635 0.34659 0.0
C483 C 0.19539 0.52316 0.37966 0.0
C484 C 0.20095 0.50481 0.29222 0.0
C485 C 0.19902 0.49101 0.36761 0.0
C486 C 0.1984 0.46171 0.23532 0.0
C487 C 0.19842 0.50801 0.17072 0.0
N488 N 0.20134 0.48279 0.32487 0.0
N489 N 0.201 0.51621 0.21343 0.0
H490 H 0.47605 0.20339 0.64776 0.0
H491 H 0.53095 0.19098 0.89688 0.0
H492 H 0.57322 0.18416 0.68715 0.0
H493 H 0.4325 0.19336 0.85499 0.0
H494 H 0.5477 0.19616 0.82094 0.0
H495 H 0.4609 0.20768 0.72413 0.0
C496 C 0.49433 0.20032 0.67238 0.0
C497 C 0.52598 0.19312 0.66082 0.0
C498 C 0.52245 0.19575 0.82845 0.0
C499 C 0.50857 0.19792 0.7487 0.0
C500 C 0.51282 0.19286 0.87184 0.0
C501 C 0.4802 0.19147 0.88246 0.0
C502 C 0.49935 0.19742 0.79538 0.0
C503 C 0.45789 0.19412 0.84848 0.0
C504 C 0.48557 0.20272 0.71609 0.0
C505 C 0.54852 0.18959 0.69441 0.0
N506 N 0.46789 0.19682 0.80652 0.0
N507 N 0.53933 0.19184 0.73683 0.0
H508 H 0.80943 0.42957 0.35674 0.0
H509 H 0.81091 0.57365 0.18661 0.0
H510 H 0.80674 0.52888 0.39442 0.0
H511 H 0.80557 0.47441 0.14913 0.0
H512 H 0.80584 0.55781 0.26282 0.0
H513 H 0.80448 0.44559 0.28062 0.0
C514 C 0.80753 0.45473 0.34913 0.0
C515 C 0.80878 0.4779 0.38217 0.0
C516 C 0.80551 0.53953 0.23789 0.0
C517 C 0.8033 0.49641 0.29482 0.0
C518 C 0.80839 0.54855 0.19429 0.0
C519 C 0.80894 0.52534 0.16127 0.0
C520 C 0.80334 0.50704 0.2487 0.0
C521 C 0.80548 0.49318 0.17337 0.0
C522 C 0.80471 0.46387 0.30557 0.0
C523 C 0.80609 0.51014 0.37015 0.0
N524 N 0.8031 0.48499 0.21608 0.0
N525 N 0.80374 0.51843 0.32745 0.0
H526 H 0.5685 0.80474 0.85689 0.0
H527 H 0.42515 0.81518 0.68623 0.0
H528 H 0.46924 0.80792 0.89498 0.0
H529 H 0.52353 0.79933 0.64979 0.0
H530 H 0.44032 0.81008 0.76284 0.0
H531 H 0.55206 0.80023 0.78093 0.0
C532 C 0.54323 0.80424 0.8494 0.0
C533 C 0.52025 0.80697 0.88252 0.0
C534 C 0.45851 0.80744 0.73802 0.0
C535 C 0.50125 0.80204 0.79527 0.0
C536 C 0.44987 0.81034 0.69422 0.0
C537 C 0.4731 0.80794 0.66136 0.0
C538 C 0.49064 0.80229 0.74912 0.0
C539 C 0.50476 0.80158 0.67385 0.0
C540 C 0.53386 0.80165 0.80592 0.0
C541 C 0.48785 0.80604 0.87063 0.0
N542 N 0.5126 0.79925 0.71667 0.0
N543 N 0.47934 0.80395 0.82797 0.0
H544 H 0.82754 0.53707 0.65279 0.0
H545 H 0.82723 0.46491 0.89092 0.0
H546 H 0.85436 0.43917 0.67669 0.0
H547 H 0.85525 0.56241 0.86682 0.0
H548 H 0.8279 0.45497 0.81215 0.0
H549 H 0.82841 0.54694 0.73157 0.0
C550 C 0.83352 0.51766 0.67466 0.0
C551 C 0.84095 0.48728 0.65839 0.0
C552 C 0.83397 0.47848 0.82424 0.0
C553 C 0.84152 0.4983 0.74803 0.0
C554 C 0.83344 0.48421 0.86901 0.0
C555 C 0.84125 0.51451 0.88522 0.0
C556 C 0.8416 0.50341 0.7956 0.0
C557 C 0.84926 0.53867 0.85555 0.0
C558 C 0.83417 0.52336 0.71943 0.0
C559 C 0.84867 0.46298 0.68801 0.0
N560 N 0.84893 0.53269 0.81202 0.0
N561 N 0.84847 0.46893 0.73156 0.0
H562 H 0.46418 0.82492 0.1546 0.0
H563 H 0.53786 0.82695 0.39192 0.0
H564 H 0.56214 0.85237 0.17657 0.0
H565 H 0.44013 0.85458 0.36821 0.0
H566 H 0.54745 0.82704 0.313 0.0
H567 H 0.45495 0.82638 0.2335 0.0
C568 C 0.48374 0.83114 0.17607 0.0
C569 C 0.51395 0.8386 0.15921 0.0
C570 C 0.52398 0.83317 0.32522 0.0
C571 C 0.50365 0.83987 0.24903 0.0
C572 C 0.51845 0.833 0.37008 0.0
C573 C 0.48818 0.84085 0.38644 0.0
C574 C 0.49886 0.84046 0.29668 0.0
C575 C 0.46386 0.8486 0.35684 0.0
C576 C 0.47841 0.83212 0.22093 0.0
C577 C 0.53846 0.84664 0.18835 0.0
N578 N 0.46963 0.8479 0.31327 0.0
N579 N 0.53286 0.84678 0.232 0.0
H580 H 0.21108 0.50017 0.8796 0.0
H581 H 0.11011 0.52553 0.66404 0.0
H582 H 0.11153 0.47422 0.8726 0.0
H583 H 0.20952 0.49862 0.65945 0.0
H584 H 0.11022 0.51619 0.74297 0.0
H585 H 0.21107 0.50902 0.80055 0.0
C586 C 0.18923 0.49642 0.86142 0.0
C587 C 0.16126 0.48642 0.88251 0.0
C588 C 0.13195 0.51232 0.72456 0.0
C589 C 0.16103 0.49691 0.79268 0.0
C590 C 0.13197 0.51778 0.67969 0.0
C591 C 0.15984 0.51274 0.65531 0.0
C592 C 0.16017 0.5025 0.74519 0.0
C593 C 0.18749 0.50259 0.6771 0.0
C594 C 0.18929 0.50133 0.81644 0.0
C595 C 0.13362 0.48177 0.85748 0.0
N596 N 0.18705 0.49804 0.72096 0.0
N597 N 0.13411 0.48735 0.81384 0.0
H598 H 0.56119 0.14597 0.36797 0.0
H599 H 0.43402 0.1475 0.17668 0.0
H600 H 0.4634 0.1738 0.3908 0.0
H601 H 0.5321 0.17486 0.15545 0.0
H602 H 0.4441 0.14683 0.25556 0.0
H603 H 0.55065 0.14601 0.28931 0.0
C604 C 0.53748 0.15189 0.35641 0.0
C605 C 0.51312 0.15996 0.38575 0.0
C606 C 0.46332 0.15299 0.23349 0.0
C607 C 0.50092 0.15963 0.29636 0.0
C608 C 0.45766 0.15325 0.18864 0.0
C609 C 0.48227 0.16133 0.15969 0.0
C610 C 0.49396 0.16007 0.24921 0.0
C611 C 0.51244 0.16871 0.17677 0.0
C612 C 0.53156 0.15207 0.31165 0.0
C613 C 0.48286 0.16762 0.36914 0.0
N614 N 0.51754 0.16763 0.22047 0.0
N615 N 0.47751 0.16703 0.32545 0.0
H616 H 0.92786 0.54016 0.11064 0.0
H617 H 0.08383 0.50447 0.97905 0.0
H618 H 0.92125 0.50102 0.98091 0.0
H619 H 0.07469 0.46426 0.10792 0.0
H620 H 0.02678 0.51807 0.98039 0.0
H621 H 0.98508 0.52638 0.11184 0.0
C622 C 0.93851 0.52872 0.08249 0.0
C623 C 0.91999 0.52146 0.04572 0.0
C624 C 0.03745 0.50644 0.00837 0.0
C625 C 0.98489 0.50674 0.04647 0.0
C626 C 0.06986 0.49887 0.00778 0.0
C627 C 0.08379 0.48326 0.04345 0.0
C628 C 0.01921 0.49924 0.04539 0.0
C629 C 0.06467 0.47621 0.07976 0.0
C630 C 0.97092 0.52084 0.08328 0.0
C631 C 0.93476 0.50669 0.00999 0.0
N632 N 0.03328 0.48458 0.08005 0.0
N633 N 0.96652 0.50017 0.011 0.0
H634 H 0.53078 0.91063 0.53633 0.0
H635 H 0.46944 0.09059 0.53469 0.0
H636 H 0.43195 0.93629 0.55628 0.0
H637 H 0.56796 0.06496 0.55732 0.0
H638 H 0.45521 0.03408 0.53718 0.0
H639 H 0.54493 0.96714 0.53862 0.0
C640 C 0.51203 0.92808 0.54119 0.0
C641 C 0.48006 0.9186 0.54581 0.0
C642 C 0.47992 0.04089 0.54173 0.0
C643 C 0.49617 0.98338 0.54821 0.0
C644 C 0.48811 0.07315 0.54017 0.0
C645 C 0.52002 0.08263 0.54549 0.0
C646 C 0.50383 0.01788 0.54813 0.0
C647 C 0.54309 0.05886 0.5528 0.0
C648 C 0.52017 0.96035 0.54264 0.0
C649 C 0.45687 0.94238 0.55234 0.0
N650 N 0.53458 0.0276 0.55358 0.0
N651 N 0.46536 0.97366 0.55301 0.0
H652 H 0.0753 0.5354 0.42916 0.0
H653 H 0.92107 0.50009 0.5631 0.0
H654 H 0.08351 0.49459 0.55779 0.0
H655 H 0.92757 0.46174 0.43291 0.0
H656 H 0.97853 0.51173 0.56107 0.0
H657 H 0.01823 0.52122 0.42863 0.0
C658 C 0.06506 0.52339 0.45714 0.0
C659 C 0.08398 0.5159 0.49346 0.0
C660 C 0.96723 0.50086 0.533 0.0
C661 C 0.01921 0.50073 0.49351 0.0
C662 C 0.93459 0.49442 0.53399 0.0
C663 C 0.91978 0.47999 0.49809 0.0
C664 C 0.98481 0.49372 0.49537 0.0
C665 C 0.93829 0.4728 0.46124 0.0
C666 C 0.03272 0.5153 0.45673 0.0
C667 C 0.06971 0.50044 0.52902 0.0
N668 N 0.96993 0.48012 0.46056 0.0
N669 N 0.03798 0.49377 0.52846 0.0
H670 H 0.53743 0.92542 0.93349 0.0
H671 H 0.49962 0.08087 0.06563 0.0
H672 H 0.49751 0.91864 0.0628 0.0
H673 H 0.46442 0.07283 0.93393 0.0
H674 H 0.51249 0.02368 0.06481 0.0
H675 H 0.52367 0.98257 0.93226 0.0
C676 C 0.52582 0.93601 0.96154 0.0
C677 C 0.51837 0.91746 -0.00179 0.0
C678 C 0.50206 0.03459 0.03613 0.0
C679 C 0.50357 0.98231 0.9974 0.0
C680 C 0.49491 0.06708 0.03645 0.0
C681 C 0.48098 0.08138 -0.00023 0.0
C682 C 0.49612 0.01663 -0.00155 0.0
C683 C 0.47505 0.06251 0.96286 0.0
C684 C 0.51793 0.96839 0.96073 0.0
C685 C 0.50334 0.93217 0.0338 0.0
N686 N 0.483 0.03104 0.96291 0.0
N687 N 0.49679 0.9639 0.03276 0.0
H688 H 0.29409 0.40419 0.04523 0.0
H689 H 0.33128 0.22055 0.99379 0.0
H690 H 0.22194 0.33091 0.03697 0.0
H691 H 0.40376 0.29376 0.99496 0.0
H692 H 0.2911 0.2609 0.00994 0.0
H693 H 0.33479 0.36428 0.02791 0.0
C694 C 0.2868 0.37969 0.04002 0.0
C695 C 0.25453 0.37087 0.04271 0.0
C696 C 0.31575 0.26822 0.00653 0.0
C697 C 0.301 0.32513 0.02261 0.0
C698 C 0.33876 0.24516 0.99724 0.0
C699 C 0.37099 0.25376 0.99294 0.0
C700 C 0.32494 0.3002 0.01178 0.0
C701 C 0.37919 0.28605 0.99782 0.0
C702 C 0.31006 0.35694 0.02996 0.0
C703 C 0.2465 0.33882 0.03531 0.0
N704 N 0.35632 0.30809 0.00711 0.0
N705 N 0.26956 0.31715 0.02563 0.0
H706 H 0.70533 0.40797 0.49722 0.0
H707 H 0.66879 0.22361 0.5443 0.0
H708 H 0.77703 0.33399 0.50224 0.0
H709 H 0.59554 0.29616 0.54493 0.0
H710 H 0.70845 0.26435 0.52871 0.0
H711 H 0.66444 0.36795 0.51377 0.0
C712 C 0.71247 0.38333 0.50156 0.0
C713 C 0.74467 0.37432 0.49823 0.0
C714 C 0.68374 0.27148 0.53237 0.0
C715 C 0.69808 0.32854 0.5174 0.0
C716 C 0.66102 0.24817 0.54134 0.0
C717 C 0.62873 0.25645 0.54599 0.0
C718 C 0.67426 0.30344 0.5278 0.0
C719 C 0.62019 0.28872 0.54178 0.0
C720 C 0.68912 0.36053 0.51116 0.0
C721 C 0.75254 0.34209 0.50446 0.0
N722 N 0.64283 0.31106 0.53278 0.0
N723 N 0.72945 0.32044 0.51372 0.0
H724 H 0.77853 0.66923 0.04062 0.0
H725 H 0.59319 0.70387 0.99671 0.0
H726 H 0.70629 0.59588 0.04542 0.0
H727 H 0.66635 0.77637 -0.00089 0.0
H728 H 0.63392 0.66356 0.01277 0.0
H729 H 0.73736 0.70844 0.02423 0.0
C730 C 0.75397 0.66135 0.03838 0.0
C731 C 0.74587 0.62918 0.04453 0.0
C732 C 0.64101 0.68829 0.00968 0.0
C733 C 0.69843 0.67414 0.02545 0.0
C734 C 0.6178 0.7113 0.00036 0.0
C735 C 0.62636 0.74356 0.99648 0.0
C736 C 0.67299 0.69762 0.01508 0.0
C737 C 0.65859 0.75182 0.0018 0.0
C738 C 0.73042 0.6838 0.02895 0.0
C739 C 0.7136 0.62044 0.04113 0.0
N740 N 0.68066 0.72903 0.01081 0.0
N741 N 0.69105 0.6428 0.03173 0.0
H742 H 0.40579 0.705 0.5453 0.0
H743 H 0.22096 0.66833 0.50042 0.0
H744 H 0.33175 0.77671 0.54248 0.0
H745 H 0.29429 0.59597 0.49521 0.0
H746 H 0.26155 0.70798 0.51755 0.0
H747 H 0.36554 0.66423 0.5293 0.0
C748 C 0.38108 0.71216 0.54161 0.0
C749 C 0.37214 0.74433 0.54528 0.0
C750 C 0.26884 0.68346 0.51257 0.0
C751 C 0.32608 0.69789 0.52674 0.0
C752 C 0.24564 0.66077 0.50272 0.0
C753 C 0.25423 0.62876 0.49622 0.0
C754 C 0.30096 0.67417 0.51612 0.0
C755 C 0.28661 0.62041 0.49975 0.0
C756 C 0.35815 0.68889 0.53231 0.0
C757 C 0.33981 0.75223 0.53991 0.0
N758 N 0.30881 0.64298 0.50953 0.0
N759 N 0.31803 0.72921 0.5309 0.0
loop_
_geom_bond_atom_site_label_1
_geom_bond_atom_site_label_2
_geom_bond_distance
_geom_bond_site_symmetry_2
_ccdc_geom_bond_type
Co0 O2 2.143 . S
Co0 O8 2.074 . S
Co0 O11 2.093 1_554 S
Co0 O24 2.097 . S
Co0 N41 2.151 . S
Co0 N49 2.214 . S
Co1 O2 2.160 . S
Co1 O7 2.058 . S
Co1 O17 2.057 . S
Co1 O32 2.037 . S
Co1 N36 2.145 . S
Co1 N57 2.263 . S
O2 Co0 2.143 . S
O2 Co1 2.160 . S
C3 O4 1.278 . S
C3 O11 1.224 . S
O4 C3 1.278 . S
C5 O6 1.245 . S
C5 O17 1.232 . S
O6 C5 1.245 . S
O7 Co1 2.058 . S
O7 C33 1.269 . S
O8 Co0 2.074 . S
O8 C33 1.257 . S
H9 C34 0.930 . S
H10 C40 0.930 . S
O11 Co0 2.093 1_556 S
O11 C3 1.224 . S
H12 C44 0.929 . S
H13 C46 0.931 . S
H14 C47 0.930 . S
H15 C45 0.929 . S
H16 C48 0.928 1_556 S
O17 Co1 2.057 . S
O17 C5 1.232 . S
H18 C37 0.929 . S
H19 C38 0.929 . S
H20 C50 0.931 . S
H21 C42 0.929 . S
H22 C51 0.930 . S
H23 C43 0.931 . S
O24 Co0 2.097 . S
O24 C52 1.214 . S
H25 C53 0.929 . S
H26 C54 0.929 1_554 S
H27 C55 0.930 . S
H28 C56 0.929 . S
H29 C58 0.930 . S
H30 C35 0.930 . S
H31 C39 0.930 . S
O32 Co1 2.037 . S
O32 C52 1.234 . S
C33 O7 1.269 . S
C33 O8 1.257 . S
C34 H9 0.930 . S
C34 C37 1.388 . S
C34 C39 1.418 . S
C35 H30 0.930 . S
C35 C38 1.404 . S
C35 C39 1.353 . S
N36 Co1 2.145 . S
N36 C37 1.397 . S
N36 C38 1.334 . S
C37 H18 0.929 . S
C37 C34 1.388 . S
C37 N36 1.397 . S
C38 H19 0.929 . S
C38 C35 1.404 . S
C38 N36 1.334 . S
C39 H31 0.930 . S
C39 C34 1.418 . S
C39 C35 1.353 . S
C40 H10 0.930 . S
C40 N41 1.330 1_556 S
C40 C42 1.446 . S
N41 Co0 2.151 . S
N41 C40 1.330 1_554 S
N41 C45 1.418 . S
C42 H21 0.929 . S
C42 C40 1.446 . S
C42 C43 1.332 1_556 S
C43 H23 0.931 . S
C43 C42 1.332 1_554 S
C43 C44 1.267 . S
C44 H12 0.929 . S
C44 C43 1.267 . S
C44 C45 1.251 . S
C45 H15 0.929 . S
C45 N41 1.418 . S
C45 C44 1.251 . S
C46 H13 0.931 . S
C46 C48 1.406 . S
C46 C51 1.261 . S
C47 H14 0.930 . S
C47 N49 1.325 . S
C47 C50 1.357 . S
C48 H16 0.928 1_554 S
C48 C46 1.406 . S
C48 N49 1.261 . S
N49 Co0 2.214 . S
N49 C47 1.325 . S
N49 C48 1.261 . S
C50 H20 0.931 . S
C50 C47 1.357 . S
C50 C51 1.312 . S
C51 H22 0.930 . S
C51 C46 1.261 . S
C51 C50 1.312 . S
C52 O24 1.214 . S
C52 O32 1.234 . S
C53 H25 0.929 . S
C53 C56 1.391 . S
C53 C58 1.391 . S
C54 H26 0.929 1_556 S
C54 C55 1.390 . S
C54 N57 1.391 1_556 S
C55 H27 0.930 . S
C55 C54 1.390 . S
C55 C56 1.392 . S
C56 H28 0.929 . S
C56 C53 1.391 . S
C56 C55 1.392 . S
N57 Co1 2.263 . S
N57 C54 1.391 1_554 S
N57 C58 1.382 1_554 S
C58 H29 0.930 . S
C58 C53 1.391 . S
C58 N57 1.382 1_556 S
Co59 O61 2.143 . S
Co59 O67 2.074 . S
Co59 O70 2.093 . S
Co59 O83 2.097 . S
Co59 N100 2.151 . S
Co59 N108 2.214 . S
Co60 O61 2.160 . S
Co60 O66 2.058 . S
Co60 O76 2.057 . S
Co60 O91 2.037 . S
Co60 N95 2.145 . S
Co60 N116 2.257 . S
O61 Co59 2.143 . S
O61 Co60 2.160 . S
C62 O63 1.278 . S
C62 O70 1.224 . S
O63 C62 1.278 . S
C64 O65 1.245 . S
C64 O76 1.232 . S
O65 C64 1.245 . S
O66 Co60 2.058 . S
O66 C92 1.269 . S
O67 Co59 2.074 . S
O67 C92 1.257 . S
H68 C93 0.930 . S
H69 C99 0.930 . S
O70 Co59 2.093 . S
O70 C62 1.224 . S
H71 C103 0.929 . S
H72 C105 0.930 . S
H73 C106 0.930 . S
H74 C104 0.929 . S
H75 C107 0.928 . S
O76 Co60 2.057 . S
O76 C64 1.232 . S
H77 C96 0.929 . S
H78 C97 0.929 . S
H79 C109 0.931 . S
H80 C101 0.929 . S
H81 C110 0.930 . S
H82 C102 0.931 . S
O83 Co59 2.097 . S
O83 C111 1.214 . S
H84 C112 0.929 . S
H85 C113 0.929 . S
H86 C114 0.930 . S
H87 C115 0.929 . S
H88 C117 0.930 . S
H89 C94 0.930 . S
H90 C98 0.930 . S
O91 Co60 2.037 . S
O91 C111 1.234 . S
C92 O66 1.269 . S
C92 O67 1.257 . S
C93 H68 0.930 . S
C93 C96 1.388 . S
C93 C98 1.418 . S
C94 H89 0.930 . S
C94 C97 1.404 . S
C94 C98 1.353 . S
N95 Co60 2.145 . S
N95 C96 1.397 . S
N95 C97 1.334 . S
C96 H77 0.929 . S
C96 C93 1.388 . S
C96 N95 1.397 . S
C97 H78 0.929 . S
C97 C94 1.404 . S
C97 N95 1.334 . S
C98 H90 0.930 . S
C98 C93 1.418 . S
C98 C94 1.353 . S
C99 H69 0.930 . S
C99 N100 1.330 . S
C99 C101 1.446 . S
N100 Co59 2.151 . S
N100 C99 1.330 . S
N100 C104 1.418 . S
C101 H80 0.929 . S
C101 C99 1.446 . S
C101 C102 1.332 . S
C102 H82 0.931 . S
C102 C101 1.332 . S
C102 C103 1.267 . S
C103 H71 0.929 . S
C103 C102 1.267 . S
C103 C104 1.251 . S
C104 H74 0.929 . S
C104 N100 1.418 . S
C104 C103 1.251 . S
C105 H72 0.930 . S
C105 C107 1.406 . S
C105 C110 1.261 . S
C106 H73 0.930 . S
C106 N108 1.325 . S
C106 C109 1.357 . S
C107 H75 0.928 . S
C107 C105 1.406 . S
C107 N108 1.261 . S
N108 Co59 2.214 . S
N108 C106 1.325 . S
N108 C107 1.261 . S
C109 H79 0.931 . S
C109 C106 1.357 . S
C109 C110 1.312 . S
C110 H81 0.930 . S
C110 C105 1.261 . S
C110 C109 1.312 . S
C111 O83 1.214 . S
C111 O91 1.234 . S
C112 H84 0.929 . S
C112 C115 1.391 . S
C112 C117 1.391 . S
C113 H85 0.929 . S
C113 C114 1.390 . S
C113 N116 1.391 . S
C114 H86 0.930 . S
C114 C113 1.390 . S
C114 C115 1.392 . S
C115 H87 0.929 . S
C115 C112 1.391 . S
C115 C114 1.392 . S
N116 Co60 2.257 . S
N116 C113 1.391 . S
N116 C117 1.388 . S
C117 H88 0.930 . S
C117 C112 1.391 . S
C117 N116 1.388 . S
Co118 O120 2.143 . S
Co118 O126 2.074 . S
Co118 O129 2.093 1_554 S
Co118 O142 2.097 . S
Co118 N159 2.151 . S
Co118 N167 2.214 . S
Co119 O120 2.160 . S
Co119 O125 2.058 . S
Co119 O135 2.057 . S
Co119 O150 2.037 . S
Co119 N154 2.145 . S
Co119 N175 2.263 . S
O120 Co118 2.143 . S
O120 Co119 2.160 . S
C121 O122 1.278 . S
C121 O129 1.224 . S
O122 C121 1.278 . S
C123 O124 1.245 . S
C123 O135 1.232 . S
O124 C123 1.245 . S
O125 Co119 2.058 . S
O125 C151 1.269 . S
O126 Co118 2.074 . S
O126 C151 1.257 . S
H127 C152 0.930 . S
H128 C158 0.930 . S
O129 Co118 2.093 1_556 S
O129 C121 1.224 . S
H130 C162 0.929 . S
H131 C164 0.931 . S
H132 C165 0.930 . S
H133 C163 0.929 . S
H134 C166 0.928 1_556 S
O135 Co119 2.057 . S
O135 C123 1.232 . S
H136 C155 0.929 . S
H137 C156 0.929 . S
H138 C168 0.931 . S
H139 C160 0.929 . S
H140 C169 0.930 . S
H141 C161 0.931 . S
O142 Co118 2.097 . S
O142 C170 1.214 . S
H143 C171 0.929 . S
H144 C172 0.929 1_554 S
H145 C173 0.930 . S
H146 C174 0.929 . S
H147 C176 0.930 . S
H148 C153 0.930 . S
H149 C157 0.930 . S
O150 Co119 2.037 . S
O150 C170 1.234 . S
C151 O125 1.269 . S
C151 O126 1.257 . S
C152 H127 0.930 . S
C152 C155 1.388 . S
C152 C157 1.418 . S
C153 H148 0.930 . S
C153 C156 1.404 . S
C153 C157 1.353 . S
N154 Co119 2.145 . S
N154 C155 1.397 . S
N154 C156 1.334 . S
C155 H136 0.929 . S
C155 C152 1.388 . S
C155 N154 1.397 . S
C156 H137 0.929 . S
C156 C153 1.404 . S
C156 N154 1.334 . S
C157 H149 0.930 . S
C157 C152 1.418 . S
C157 C153 1.353 . S
C158 H128 0.930 . S
C158 N159 1.330 1_556 S
C158 C160 1.446 . S
N159 Co118 2.151 . S
N159 C158 1.330 1_554 S
N159 C163 1.418 . S
C160 H139 0.929 . S
C160 C158 1.446 . S
C160 C161 1.332 1_556 S
C161 H141 0.931 . S
C161 C160 1.332 1_554 S
C161 C162 1.267 . S
C162 H130 0.929 . S
C162 C161 1.267 . S
C162 C163 1.251 . S
C163 H133 0.929 . S
C163 N159 1.418 . S
C163 C162 1.251 . S
C164 H131 0.931 . S
C164 C166 1.406 . S
C164 C169 1.261 . S
C165 H132 0.930 . S
C165 N167 1.325 . S
C165 C168 1.357 . S
C166 H134 0.928 1_554 S
C166 C164 1.406 . S
C166 N167 1.261 . S
N167 Co118 2.214 . S
N167 C165 1.325 . S
N167 C166 1.261 . S
C168 H138 0.931 . S
C168 C165 1.357 . S
C168 C169 1.312 . S
C169 H140 0.930 . S
C169 C164 1.261 . S
C169 C168 1.312 . S
C170 O142 1.214 . S
C170 O150 1.234 . S
C171 H143 0.929 . S
C171 C174 1.391 . S
C171 C176 1.391 . S
C172 H144 0.929 1_556 S
C172 C173 1.390 . S
C172 N175 1.391 1_556 S
C173 H145 0.930 . S
C173 C172 1.390 . S
C173 C174 1.392 . S
C174 H146 0.929 . S
C174 C171 1.391 . S
C174 C173 1.392 . S
N175 Co119 2.263 . S
N175 C172 1.391 1_554 S
N175 C176 1.382 1_554 S
C176 H147 0.930 . S
C176 C171 1.391 . S
C176 N175 1.382 1_556 S
Co177 O179 2.143 . S
Co177 O185 2.074 . S
Co177 O188 2.093 . S
Co177 O201 2.097 . S
Co177 N218 2.151 . S
Co177 N226 2.214 . S
Co178 O179 2.160 . S
Co178 O184 2.058 . S
Co178 O194 2.057 . S
Co178 O209 2.037 . S
Co178 N213 2.145 . S
Co178 N234 2.257 . S
O179 Co177 2.143 . S
O179 Co178 2.160 . S
C180 O181 1.278 . S
C180 O188 1.224 . S
O181 C180 1.278 . S
C182 O183 1.245 . S
C182 O194 1.232 . S
O183 C182 1.245 . S
O184 Co178 2.058 . S
O184 C210 1.269 . S
O185 Co177 2.074 . S
O185 C210 1.257 . S
H186 C211 0.930 . S
H187 C217 0.930 . S
O188 Co177 2.093 . S
O188 C180 1.224 . S
H189 C221 0.929 . S
H190 C223 0.930 . S
H191 C224 0.930 . S
H192 C222 0.929 . S
H193 C225 0.928 . S
O194 Co178 2.057 . S
O194 C182 1.232 . S
H195 C214 0.929 . S
H196 C215 0.929 . S
H197 C227 0.931 . S
H198 C219 0.929 . S
H199 C228 0.930 . S
H200 C220 0.931 . S
O201 Co177 2.097 . S
O201 C229 1.214 . S
H202 C230 0.929 . S
H203 C231 0.929 . S
H204 C232 0.930 . S
H205 C233 0.929 . S
H206 C235 0.930 . S
H207 C212 0.930 . S
H208 C216 0.930 . S
O209 Co178 2.037 . S
O209 C229 1.234 . S
C210 O184 1.269 . S
C210 O185 1.257 . S
C211 H186 0.930 . S
C211 C214 1.388 . S
C211 C216 1.418 . S
C212 H207 0.930 . S
C212 C215 1.404 . S
C212 C216 1.353 . S
N213 Co178 2.145 . S
N213 C214 1.397 . S
N213 C215 1.334 . S
C214 H195 0.929 . S
C214 C211 1.388 . S
C214 N213 1.397 . S
C215 H196 0.929 . S
C215 C212 1.404 . S
C215 N213 1.334 . S
C216 H208 0.930 . S
C216 C211 1.418 . S
C216 C212 1.353 . S
C217 H187 0.930 . S
C217 N218 1.330 . S
C217 C219 1.446 . S
N218 Co177 2.151 . S
N218 C217 1.330 . S
N218 C222 1.418 . S
C219 H198 0.929 . S
C219 C217 1.446 . S
C219 C220 1.332 . S
C220 H200 0.931 . S
C220 C219 1.332 . S
C220 C221 1.267 . S
C221 H189 0.929 . S
C221 C220 1.267 . S
C221 C222 1.251 . S
C222 H192 0.929 . S
C222 N218 1.418 . S
C222 C221 1.251 . S
C223 H190 0.930 . S
C223 C225 1.406 . S
C223 C228 1.261 . S
C224 H191 0.930 . S
C224 N226 1.325 . S
C224 C227 1.357 . S
C225 H193 0.928 . S
C225 C223 1.406 . S
C225 N226 1.261 . S
N226 Co177 2.214 . S
N226 C224 1.325 . S
N226 C225 1.261 . S
C227 H197 0.931 . S
C227 C224 1.357 . S
C227 C228 1.312 . S
C228 H199 0.930 . S
C228 C223 1.261 . S
C228 C227 1.312 . S
C229 O201 1.214 . S
C229 O209 1.234 . S
C230 H202 0.929 . S
C230 C233 1.391 . S
C230 C235 1.391 . S
C231 H203 0.929 . S
C231 C232 1.390 . S
C231 N234 1.391 . S
C232 H204 0.930 . S
C232 C231 1.390 . S
C232 C233 1.392 . S
C233 H205 0.929 . S
C233 C230 1.391 . S
C233 C232 1.392 . S
N234 Co178 2.257 . S
N234 C231 1.391 . S
N234 C235 1.388 . S
C235 H206 0.930 . S
C235 C230 1.391 . S
C235 N234 1.388 . S
Co236 O238 2.143 . S
Co236 O244 2.074 . S
Co236 O247 2.093 . S
Co236 O260 2.097 . S
Co236 N277 2.151 . S
Co236 N285 2.214 . S
Co237 O238 2.160 . S
Co237 O243 2.058 . S
Co237 O253 2.057 . S
Co237 O268 2.037 . S
Co237 N272 2.145 . S
Co237 N293 2.257 . S
O238 Co236 2.143 . S
O238 Co237 2.160 . S
C239 O240 1.278 . S
C239 O247 1.224 . S
O240 C239 1.278 . S
C241 O242 1.245 . S
C241 O253 1.232 . S
O242 C241 1.245 . S
O243 Co237 2.058 . S
O243 C269 1.269 . S
O244 Co236 2.074 . S
O244 C269 1.257 . S
H245 C270 0.930 . S
H246 C276 0.930 . S
O247 Co236 2.093 . S
O247 C239 1.224 . S
H248 C280 0.929 . S
H249 C282 0.930 . S
H250 C283 0.930 . S
H251 C281 0.929 . S
H252 C284 0.928 . S
O253 Co237 2.057 . S
O253 C241 1.232 . S
H254 C273 0.929 . S
H255 C274 0.929 . S
H256 C286 0.931 . S
H257 C278 0.929 . S
H258 C287 0.930 . S
H259 C279 0.931 . S
O260 Co236 2.097 . S
O260 C288 1.214 . S
H261 C289 0.929 . S
H262 C290 0.929 . S
H263 C291 0.930 . S
H264 C292 0.929 . S
H265 C294 0.930 . S
H266 C271 0.930 . S
H267 C275 0.930 . S
O268 Co237 2.037 . S
O268 C288 1.234 . S
C269 O243 1.269 . S
C269 O244 1.257 . S
C270 H245 0.930 . S
C270 C273 1.388 . S
C270 C275 1.418 . S
C271 H266 0.930 . S
C271 C274 1.404 . S
C271 C275 1.353 . S
N272 Co237 2.145 . S
N272 C273 1.397 . S
N272 C274 1.334 . S
C273 H254 0.929 . S
C273 C270 1.388 . S
C273 N272 1.397 . S
C274 H255 0.929 . S
C274 C271 1.404 . S
C274 N272 1.334 . S
C275 H267 0.930 . S
C275 C270 1.418 . S
C275 C271 1.353 . S
C276 H246 0.930 . S
C276 N277 1.330 . S
C276 C278 1.446 . S
N277 Co236 2.151 . S
N277 C276 1.330 . S
N277 C281 1.418 . S
C278 H257 0.929 . S
C278 C276 1.446 . S
C278 C279 1.332 . S
C279 H259 0.931 . S
C279 C278 1.332 . S
C279 C280 1.267 . S
C280 H248 0.929 . S
C280 C279 1.267 . S
C280 C281 1.251 . S
C281 H251 0.929 . S
C281 N277 1.418 . S
C281 C280 1.251 . S
C282 H249 0.930 . S
C282 C284 1.406 . S
C282 C287 1.261 . S
C283 H250 0.930 . S
C283 N285 1.325 . S
C283 C286 1.357 . S
C284 H252 0.928 . S
C284 C282 1.406 . S
C284 N285 1.261 . S
N285 Co236 2.214 . S
N285 C283 1.325 . S
N285 C284 1.261 . S
C286 H256 0.931 . S
C286 C283 1.357 . S
C286 C287 1.312 . S
C287 H258 0.930 . S
C287 C282 1.261 . S
C287 C286 1.312 . S
C288 O260 1.214 . S
C288 O268 1.234 . S
C289 H261 0.929 . S
C289 C292 1.391 . S
C289 C294 1.391 . S
C290 H262 0.929 . S
C290 C291 1.390 . S
C290 N293 1.391 . S
C291 H263 0.930 . S
C291 C290 1.390 . S
C291 C292 1.392 . S
C292 H264 0.929 . S
C292 C289 1.391 . S
C292 C291 1.392 . S
N293 Co237 2.257 . S
N293 C290 1.391 . S
N293 C294 1.388 . S
C294 H265 0.930 . S
C294 C289 1.391 . S
C294 N293 1.388 . S
Co295 O297 2.143 . S
Co295 O303 2.074 1_554 S
Co295 O306 2.093 . S
Co295 O319 2.097 . S
Co295 N336 2.151 . S
Co295 N344 2.214 . S
Co296 O297 2.160 1_556 S
Co296 O302 2.058 . S
Co296 O312 2.057 . S
Co296 O327 2.037 . S
Co296 N331 2.145 . S
Co296 N352 2.257 1_556 S
O297 Co295 2.143 . S
O297 Co296 2.160 1_554 S
C298 O299 1.278 . S
C298 O306 1.224 . S
O299 C298 1.278 . S
C300 O301 1.245 . S
C300 O312 1.232 1_554 S
O301 C300 1.245 . S
O302 Co296 2.058 . S
O302 C328 1.269 . S
O303 Co295 2.074 1_556 S
O303 C328 1.257 . S
H304 C329 0.930 . S
H305 C335 0.930 . S
O306 Co295 2.093 . S
O306 C298 1.224 . S
H307 C339 0.929 . S
H308 C341 0.930 . S
H309 C342 0.930 . S
H310 C340 0.929 . S
H311 C343 0.928 . S
O312 Co296 2.057 . S
O312 C300 1.232 1_556 S
H313 C332 0.929 . S
H314 C333 0.929 . S
H315 C345 0.931 . S
H316 C337 0.929 . S
H317 C346 0.930 1_556 S
H318 C338 0.931 . S
O319 Co295 2.097 . S
O319 C347 1.214 . S
H320 C348 0.929 . S
H321 C349 0.929 . S
H322 C350 0.930 . S
H323 C351 0.929 . S
H324 C353 0.930 . S
H325 C330 0.930 . S
H326 C334 0.930 . S
O327 Co296 2.037 . S
O327 C347 1.234 1_556 S
C328 O302 1.269 . S
C328 O303 1.257 . S
C329 H304 0.930 . S
C329 C332 1.388 . S
C329 C334 1.418 . S
C330 H325 0.930 . S
C330 C333 1.404 . S
C330 C334 1.353 . S
N331 Co296 2.145 . S
N331 C332 1.397 . S
N331 C333 1.334 . S
C332 H313 0.929 . S
C332 C329 1.388 . S
C332 N331 1.397 . S
C333 H314 0.929 . S
C333 C330 1.404 . S
C333 N331 1.334 . S
C334 H326 0.930 . S
C334 C329 1.418 . S
C334 C330 1.353 . S
C335 H305 0.930 . S
C335 N336 1.330 . S
C335 C337 1.446 . S
N336 Co295 2.151 . S
N336 C335 1.330 . S
N336 C340 1.418 1_554 S
C337 H316 0.929 . S
C337 C335 1.446 . S
C337 C338 1.332 . S
C338 H318 0.931 . S
C338 C337 1.332 . S
C338 C339 1.267 1_554 S
C339 H307 0.929 . S
C339 C338 1.267 1_556 S
C339 C340 1.251 . S
C340 H310 0.929 . S
C340 N336 1.418 1_556 S
C340 C339 1.251 . S
C341 H308 0.930 . S
C341 C343 1.406 . S
C341 C346 1.261 . S
C342 H309 0.930 . S
C342 N344 1.325 1_556 S
C342 C345 1.357 . S
C343 H311 0.928 . S
C343 C341 1.406 . S
C343 N344 1.261 . S
N344 Co295 2.214 . S
N344 C342 1.325 1_554 S
N344 C343 1.261 . S
C345 H315 0.931 . S
C345 C342 1.357 . S
C345 C346 1.312 1_556 S
C346 H317 0.930 1_554 S
C346 C341 1.261 . S
C346 C345 1.312 1_554 S
C347 O319 1.214 . S
C347 O327 1.234 1_554 S
C348 H320 0.929 . S
C348 C351 1.391 . S
C348 C353 1.391 . S
C349 H321 0.929 . S
C349 C350 1.390 . S
C349 N352 1.391 . S
C350 H322 0.930 . S
C350 C349 1.390 . S
C350 C351 1.392 . S
C351 H323 0.929 . S
C351 C348 1.391 . S
C351 C350 1.392 . S
N352 Co296 2.257 1_554 S
N352 C349 1.391 . S
N352 C353 1.388 . S
C353 H324 0.930 . S
C353 C348 1.391 . S
C353 N352 1.388 . S
Co354 O356 2.143 . S
Co354 O362 2.074 . S
Co354 O365 2.093 . S
Co354 O378 2.097 . S
Co354 N395 2.151 . S
Co354 N403 2.214 . S
Co355 O356 2.160 . S
Co355 O361 2.058 . S
Co355 O371 2.057 . S
Co355 O386 2.037 . S
Co355 N390 2.145 . S
Co355 N411 2.257 . S
O356 Co354 2.143 . S
O356 Co355 2.160 . S
C357 O358 1.278 . S
C357 O365 1.224 . S
O358 C357 1.278 . S
C359 O360 1.245 . S
C359 O371 1.232 . S
O360 C359 1.245 . S
O361 Co355 2.058 . S
O361 C387 1.269 . S
O362 Co354 2.074 . S
O362 C387 1.257 . S
H363 C388 0.930 . S
H364 C394 0.930 . S
O365 Co354 2.093 . S
O365 C357 1.224 . S
H366 C398 0.929 . S
H367 C400 0.930 . S
H368 C401 0.930 . S
H369 C399 0.929 . S
H370 C402 0.928 . S
O371 Co355 2.057 . S
O371 C359 1.232 . S
H372 C391 0.929 . S
H373 C392 0.929 . S
H374 C404 0.931 . S
H375 C396 0.929 . S
H376 C405 0.930 . S
H377 C397 0.931 . S
O378 Co354 2.097 . S
O378 C406 1.214 . S
H379 C407 0.929 . S
H380 C408 0.929 . S
H381 C409 0.930 . S
H382 C410 0.929 . S
H383 C412 0.930 . S
H384 C389 0.930 . S
H385 C393 0.930 . S
O386 Co355 2.037 . S
O386 C406 1.234 . S
C387 O361 1.269 . S
C387 O362 1.257 . S
C388 H363 0.930 . S
C388 C391 1.388 . S
C388 C393 1.418 . S
C389 H384 0.930 . S
C389 C392 1.404 . S
C389 C393 1.353 . S
N390 Co355 2.145 . S
N390 C391 1.397 . S
N390 C392 1.334 . S
C391 H372 0.929 . S
C391 C388 1.388 . S
C391 N390 1.397 . S
C392 H373 0.929 . S
C392 C389 1.404 . S
C392 N390 1.334 . S
C393 H385 0.930 . S
C393 C388 1.418 . S
C393 C389 1.353 . S
C394 H364 0.930 . S
C394 N395 1.330 . S
C394 C396 1.446 . S
N395 Co354 2.151 . S
N395 C394 1.330 . S
N395 C399 1.418 . S
C396 H375 0.929 . S
C396 C394 1.446 . S
C396 C397 1.332 . S
C397 H377 0.931 . S
C397 C396 1.332 . S
C397 C398 1.267 . S
C398 H366 0.929 . S
C398 C397 1.267 . S
C398 C399 1.251 . S
C399 H369 0.929 . S
C399 N395 1.418 . S
C399 C398 1.251 . S
C400 H367 0.930 . S
C400 C402 1.406 . S
C400 C405 1.261 . S
C401 H368 0.930 . S
C401 N403 1.325 . S
C401 C404 1.357 . S
C402 H370 0.928 . S
C402 C400 1.406 . S
C402 N403 1.261 . S
N403 Co354 2.214 . S
N403 C401 1.325 . S
N403 C402 1.261 . S
C404 H374 0.931 . S
C404 C401 1.357 . S
C404 C405 1.312 . S
C405 H376 0.930 . S
C405 C400 1.261 . S
C405 C404 1.312 . S
C406 O378 1.214 . S
C406 O386 1.234 . S
C407 H379 0.929 . S
C407 C410 1.391 . S
C407 C412 1.391 . S
C408 H380 0.929 . S
C408 C409 1.390 . S
C408 N411 1.391 . S
C409 H381 0.930 . S
C409 C408 1.390 . S
C409 C410 1.392 . S
C410 H382 0.929 . S
C410 C407 1.391 . S
C410 C409 1.392 . S
N411 Co355 2.257 . S
N411 C408 1.391 . S
N411 C412 1.388 . S
C412 H383 0.930 . S
C412 C407 1.391 . S
C412 N411 1.388 . S
Co413 O415 2.143 . S
Co413 O421 2.074 1_554 S
Co413 O424 2.093 . S
Co413 O437 2.097 . S
Co413 N454 2.151 . S
Co413 N462 2.214 . S
Co414 O415 2.160 1_556 S
Co414 O420 2.058 . S
Co414 O430 2.057 . S
Co414 O445 2.037 . S
Co414 N449 2.145 . S
Co414 N470 2.257 1_556 S
O415 Co413 2.143 . S
O415 Co414 2.160 1_554 S
C416 O417 1.278 . S
C416 O424 1.224 . S
O417 C416 1.278 . S
C418 O419 1.245 . S
C418 O430 1.232 1_554 S
O419 C418 1.245 . S
O420 Co414 2.058 . S
O420 C446 1.269 . S
O421 Co413 2.074 1_556 S
O421 C446 1.257 . S
H422 C447 0.930 . S
H423 C453 0.930 . S
O424 Co413 2.093 . S
O424 C416 1.224 . S
H425 C457 0.929 . S
H426 C459 0.930 . S
H427 C460 0.930 . S
H428 C458 0.929 . S
H429 C461 0.928 . S
O430 Co414 2.057 . S
O430 C418 1.232 1_556 S
H431 C450 0.929 . S
H432 C451 0.929 . S
H433 C463 0.931 . S
H434 C455 0.929 . S
H435 C464 0.930 1_556 S
H436 C456 0.931 . S
O437 Co413 2.097 . S
O437 C465 1.214 . S
H438 C466 0.929 . S
H439 C467 0.929 . S
H440 C468 0.930 . S
H441 C469 0.929 . S
H442 C471 0.930 . S
H443 C448 0.930 . S
H444 C452 0.930 . S
O445 Co414 2.037 . S
O445 C465 1.234 1_556 S
C446 O420 1.269 . S
C446 O421 1.257 . S
C447 H422 0.930 . S
C447 C450 1.388 . S
C447 C452 1.418 . S
C448 H443 0.930 . S
C448 C451 1.404 . S
C448 C452 1.353 . S
N449 Co414 2.145 . S
N449 C450 1.397 . S
N449 C451 1.334 . S
C450 H431 0.929 . S
C450 C447 1.388 . S
C450 N449 1.397 . S
C451 H432 0.929 . S
C451 C448 1.404 . S
C451 N449 1.334 . S
C452 H444 0.930 . S
C452 C447 1.418 . S
C452 C448 1.353 . S
C453 H423 0.930 . S
C453 N454 1.330 . S
C453 C455 1.446 . S
N454 Co413 2.151 . S
N454 C453 1.330 . S
N454 C458 1.418 1_554 S
C455 H434 0.929 . S
C455 C453 1.446 . S
C455 C456 1.332 . S
C456 H436 0.931 . S
C456 C455 1.332 . S
C456 C457 1.267 1_554 S
C457 H425 0.929 . S
C457 C456 1.267 1_556 S
C457 C458 1.251 . S
C458 H428 0.929 . S
C458 N454 1.418 1_556 S
C458 C457 1.251 . S
C459 H426 0.930 . S
C459 C461 1.406 . S
C459 C464 1.261 . S
C460 H427 0.930 . S
C460 N462 1.325 1_556 S
C460 C463 1.357 . S
C461 H429 0.928 . S
C461 C459 1.406 . S
C461 N462 1.261 . S
N462 Co413 2.214 . S
N462 C460 1.325 1_554 S
N462 C461 1.261 . S
C463 H433 0.931 . S
C463 C460 1.357 . S
C463 C464 1.312 1_556 S
C464 H435 0.930 1_554 S
C464 C459 1.261 . S
C464 C463 1.312 1_554 S
C465 O437 1.214 . S
C465 O445 1.234 1_554 S
C466 H438 0.929 . S
C466 C469 1.391 . S
C466 C471 1.391 . S
C467 H439 0.929 . S
C467 C468 1.390 . S
C467 N470 1.391 . S
C468 H440 0.930 . S
C468 C467 1.390 . S
C468 C469 1.392 . S
C469 H441 0.929 . S
C469 C466 1.391 . S
C469 C468 1.392 . S
N470 Co414 2.257 1_554 S
N470 C467 1.391 . S
N470 C471 1.388 . S
C471 H442 0.930 . S
C471 C466 1.391 . S
C471 N470 1.388 . S
H472 C478 0.930 . S
H473 C482 0.930 . S
H474 C487 0.929 . S
H475 C485 0.929 . S
H476 C480 0.929 . S
H477 C486 0.929 . S
C478 H472 0.930 . S
C478 C479 1.367 . S
C478 C486 1.378 . S
C479 C478 1.367 . S
C479 C487 1.433 . S
C480 H476 0.929 . S
C480 C482 1.378 . S
C480 C484 1.350 . S
C481 C484 1.463 . S
C481 C486 1.350 . S
C481 N489 1.427 . S
C482 H473 0.930 . S
C482 C480 1.378 . S
C482 C483 1.367 . S
C483 C482 1.367 . S
C483 C485 1.433 . S
C484 C480 1.350 . S
C484 C481 1.463 . S
C484 N488 1.427 . S
C485 H475 0.929 . S
C485 C483 1.433 . S
C485 N488 1.384 . S
C486 H477 0.929 . S
C486 C478 1.378 . S
C486 C481 1.350 . S
C487 H474 0.929 . S
C487 C479 1.433 . S
C487 N489 1.384 . S
N488 C484 1.427 . S
N488 C485 1.384 . S
N489 C481 1.427 . S
N489 C487 1.384 . S
H490 C496 0.930 . S
H491 C500 0.930 . S
H492 C505 0.929 . S
H493 C503 0.929 . S
H494 C498 0.929 . S
H495 C504 0.929 . S
C496 H490 0.930 . S
C496 C497 1.367 . S
C496 C504 1.378 . S
C497 C496 1.367 . S
C497 C505 1.433 . S
C498 H494 0.929 . S
C498 C500 1.378 . S
C498 C502 1.350 . S
C499 C502 1.463 . S
C499 C504 1.350 . S
C499 N507 1.427 . S
C500 H491 0.930 . S
C500 C498 1.378 . S
C500 C501 1.367 . S
C501 C500 1.367 . S
C501 C503 1.433 . S
C502 C498 1.350 . S
C502 C499 1.463 . S
C502 N506 1.427 . S
C503 H493 0.929 . S
C503 C501 1.433 . S
C503 N506 1.384 . S
C504 H495 0.929 . S
C504 C496 1.378 . S
C504 C499 1.350 . S
C505 H492 0.929 . S
C505 C497 1.433 . S
C505 N507 1.384 . S
N506 C502 1.427 . S
N506 C503 1.384 . S
N507 C499 1.427 . S
N507 C505 1.384 . S
H508 C514 0.930 . S
H509 C518 0.930 . S
H510 C523 0.929 . S
H511 C521 0.929 . S
H512 C516 0.929 . S
H513 C522 0.929 . S
C514 H508 0.930 . S
C514 C515 1.367 . S
C514 C522 1.378 . S
C515 C514 1.367 . S
C515 C523 1.433 . S
C516 H512 0.929 . S
C516 C518 1.378 . S
C516 C520 1.350 . S
C517 C520 1.463 . S
C517 C522 1.350 . S
C517 N525 1.427 . S
C518 H509 0.930 . S
C518 C516 1.378 . S
C518 C519 1.367 . S
C519 C518 1.367 . S
C519 C521 1.433 . S
C520 C516 1.350 . S
C520 C517 1.463 . S
C520 N524 1.427 . S
C521 H511 0.929 . S
C521 C519 1.433 . S
C521 N524 1.384 . S
C522 H513 0.929 . S
C522 C514 1.378 . S
C522 C517 1.350 . S
C523 H510 0.929 . S
C523 C515 1.433 . S
C523 N525 1.384 . S
N524 C520 1.427 . S
N524 C521 1.384 . S
N525 C517 1.427 . S
N525 C523 1.384 . S
H526 C532 0.930 . S
H527 C536 0.930 . S
H528 C541 0.929 . S
H529 C539 0.929 . S
H530 C534 0.929 . S
H531 C540 0.929 . S
C532 H526 0.930 . S
C532 C533 1.367 . S
C532 C540 1.378 . S
C533 C532 1.367 . S
C533 C541 1.433 . S
C534 H530 0.929 . S
C534 C536 1.378 . S
C534 C538 1.350 . S
C535 C538 1.463 . S
C535 C540 1.350 . S
C535 N543 1.427 . S
C536 H527 0.930 . S
C536 C534 1.378 . S
C536 C537 1.367 . S
C537 C536 1.367 . S
C537 C539 1.433 . S
C538 C534 1.350 . S
C538 C535 1.463 . S
C538 N542 1.427 . S
C539 H529 0.929 . S
C539 C537 1.433 . S
C539 N542 1.384 . S
C540 H531 0.929 . S
C540 C532 1.378 . S
C540 C535 1.350 . S
C541 H528 0.929 . S
C541 C533 1.433 . S
C541 N543 1.384 . S
N542 C538 1.427 . S
N542 C539 1.384 . S
N543 C535 1.427 . S
N543 C541 1.384 . S
H544 C550 0.930 . S
H545 C554 0.930 . S
H546 C559 0.929 . S
H547 C557 0.929 . S
H548 C552 0.929 . S
H549 C558 0.929 . S
C550 H544 0.930 . S
C550 C551 1.367 . S
C550 C558 1.378 . S
C551 C550 1.367 . S
C551 C559 1.433 . S
C552 H548 0.929 . S
C552 C554 1.378 . S
C552 C556 1.350 . S
C553 C556 1.463 . S
C553 C558 1.350 . S
C553 N561 1.427 . S
C554 H545 0.930 . S
C554 C552 1.378 . S
C554 C555 1.367 . S
C555 C554 1.367 . S
C555 C557 1.433 . S
C556 C552 1.350 . S
C556 C553 1.463 . S
C556 N560 1.427 . S
C557 H547 0.929 . S
C557 C555 1.433 . S
C557 N560 1.384 . S
C558 H549 0.929 . S
C558 C550 1.378 . S
C558 C553 1.350 . S
C559 H546 0.929 . S
C559 C551 1.433 . S
C559 N561 1.384 . S
N560 C556 1.427 . S
N560 C557 1.384 . S
N561 C553 1.427 . S
N561 C559 1.384 . S
H562 C568 0.930 . S
H563 C572 0.930 . S
H564 C577 0.929 . S
H565 C575 0.929 . S
H566 C570 0.929 . S
H567 C576 0.929 . S
C568 H562 0.930 . S
C568 C569 1.367 . S
C568 C576 1.378 . S
C569 C568 1.367 . S
C569 C577 1.433 . S
C570 H566 0.929 . S
C570 C572 1.378 . S
C570 C574 1.350 . S
C571 C574 1.463 . S
C571 C576 1.350 . S
C571 N579 1.427 . S
C572 H563 0.930 . S
C572 C570 1.378 . S
C572 C573 1.367 . S
C573 C572 1.367 . S
C573 C575 1.433 . S
C574 C570 1.350 . S
C574 C571 1.463 . S
C574 N578 1.427 . S
C575 H565 0.929 . S
C575 C573 1.433 . S
C575 N578 1.384 . S
C576 H567 0.929 . S
C576 C568 1.378 . S
C576 C571 1.350 . S
C577 H564 0.929 . S
C577 C569 1.433 . S
C577 N579 1.384 . S
N578 C574 1.427 . S
N578 C575 1.384 . S
N579 C571 1.427 . S
N579 C577 1.384 . S
H580 C586 0.930 . S
H581 C590 0.930 . S
H582 C595 0.929 . S
H583 C593 0.929 . S
H584 C588 0.929 . S
H585 C594 0.929 . S
C586 H580 0.930 . S
C586 C587 1.367 . S
C586 C594 1.378 . S
C587 C586 1.367 . S
C587 C595 1.433 . S
C588 H584 0.929 . S
C588 C590 1.378 . S
C588 C592 1.350 . S
C589 C592 1.463 . S
C589 C594 1.350 . S
C589 N597 1.427 . S
C590 H581 0.930 . S
C590 C588 1.378 . S
C590 C591 1.367 . S
C591 C590 1.367 . S
C591 C593 1.433 . S
C592 C588 1.350 . S
C592 C589 1.463 . S
C592 N596 1.427 . S
C593 H583 0.929 . S
C593 C591 1.433 . S
C593 N596 1.384 . S
C594 H585 0.929 . S
C594 C586 1.378 . S
C594 C589 1.350 . S
C595 H582 0.929 . S
C595 C587 1.433 . S
C595 N597 1.384 . S
N596 C592 1.427 . S
N596 C593 1.384 . S
N597 C589 1.427 . S
N597 C595 1.384 . S
H598 C604 0.930 . S
H599 C608 0.930 . S
H600 C613 0.929 . S
H601 C611 0.929 . S
H602 C606 0.929 . S
H603 C612 0.929 . S
C604 H598 0.930 . S
C604 C605 1.367 . S
C604 C612 1.378 . S
C605 C604 1.367 . S
C605 C613 1.433 . S
C606 H602 0.929 . S
C606 C608 1.378 . S
C606 C610 1.350 . S
C607 C610 1.463 . S
C607 C612 1.350 . S
C607 N615 1.427 . S
C608 H599 0.930 . S
C608 C606 1.378 . S
C608 C609 1.367 . S
C609 C608 1.367 . S
C609 C611 1.433 . S
C610 C606 1.350 . S
C610 C607 1.463 . S
C610 N614 1.427 . S
C611 H601 0.929 . S
C611 C609 1.433 . S
C611 N614 1.384 . S
C612 H603 0.929 . S
C612 C604 1.378 . S
C612 C607 1.350 . S
C613 H600 0.929 . S
C613 C605 1.433 . S
C613 N615 1.384 . S
N614 C610 1.427 . S
N614 C611 1.384 . S
N615 C607 1.427 . S
N615 C613 1.384 . S
H616 C622 0.930 . S
H617 C626 0.930 1_556 S
H618 C631 0.929 1_556 S
H619 C629 0.929 . S
H620 C624 0.929 1_556 S
H621 C630 0.929 . S
C622 H616 0.930 . S
C622 C623 1.367 . S
C622 C630 1.378 . S
C623 C622 1.367 . S
C623 C631 1.433 . S
C624 H620 0.929 1_554 S
C624 C626 1.378 . S
C624 C628 1.350 . S
C625 C628 1.463 1_655 S
C625 C630 1.350 . S
C625 N633 1.427 . S
C626 H617 0.930 1_554 S
C626 C624 1.378 . S
C626 C627 1.367 . S
C627 C626 1.367 . S
C627 C629 1.433 . S
C628 C624 1.350 . S
C628 C625 1.463 1_455 S
C628 N632 1.427 . S
C629 H619 0.929 . S
C629 C627 1.433 . S
C629 N632 1.384 . S
C630 H621 0.929 . S
C630 C622 1.378 . S
C630 C625 1.350 . S
C631 H618 0.929 1_554 S
C631 C623 1.433 . S
C631 N633 1.384 . S
N632 C628 1.427 . S
N632 C629 1.384 . S
N633 C625 1.427 . S
N633 C631 1.384 . S
H634 C640 0.930 . S
H635 C644 0.930 . S
H636 C649 0.929 . S
H637 C647 0.929 . S
H638 C642 0.929 . S
H639 C648 0.929 . S
C640 H634 0.930 . S
C640 C641 1.367 . S
C640 C648 1.378 . S
C641 C640 1.367 . S
C641 C649 1.433 . S
C642 H638 0.929 . S
C642 C644 1.378 . S
C642 C646 1.350 . S
C643 C646 1.463 1_565 S
C643 C648 1.350 . S
C643 N651 1.427 . S
C644 H635 0.930 . S
C644 C642 1.378 . S
C644 C645 1.367 . S
C645 C644 1.367 . S
C645 C647 1.433 . S
C646 C642 1.350 . S
C646 C643 1.463 1_545 S
C646 N650 1.427 . S
C647 H637 0.929 . S
C647 C645 1.433 . S
C647 N650 1.384 . S
C648 H639 0.929 . S
C648 C640 1.378 . S
C648 C643 1.350 . S
C649 H636 0.929 . S
C649 C641 1.433 . S
C649 N651 1.384 . S
N650 C646 1.427 . S
N650 C647 1.384 . S
N651 C643 1.427 . S
N651 C649 1.384 . S
H652 C658 0.930 . S
H653 C662 0.930 . S
H654 C667 0.929 . S
H655 C665 0.929 . S
H656 C660 0.929 . S
H657 C666 0.929 . S
C658 H652 0.930 . S
C658 C659 1.367 . S
C658 C666 1.378 . S
C659 C658 1.367 . S
C659 C667 1.433 . S
C660 H656 0.929 . S
C660 C662 1.378 . S
C660 C664 1.350 . S
C661 C664 1.463 1_455 S
C661 C666 1.350 . S
C661 N669 1.427 . S
C662 H653 0.930 . S
C662 C660 1.378 . S
C662 C663 1.367 . S
C663 C662 1.367 . S
C663 C665 1.433 . S
C664 C660 1.350 . S
C664 C661 1.463 1_655 S
C664 N668 1.427 . S
C665 H655 0.929 . S
C665 C663 1.433 . S
C665 N668 1.384 . S
C666 H657 0.929 . S
C666 C658 1.378 . S
C666 C661 1.350 . S
C667 H654 0.929 . S
C667 C659 1.433 . S
C667 N669 1.384 . S
N668 C664 1.427 . S
N668 C665 1.384 . S
N669 C661 1.427 . S
N669 C667 1.384 . S
H670 C676 0.930 . S
H671 C680 0.930 . S
H672 C685 0.929 . S
H673 C683 0.929 . S
H674 C678 0.929 . S
H675 C684 0.929 . S
C676 H670 0.930 . S
C676 C677 1.367 1_556 S
C676 C684 1.378 . S
C677 C676 1.367 1_554 S
C677 C685 1.433 . S
C678 H674 0.929 . S
C678 C680 1.378 . S
C678 C682 1.350 . S
C679 C682 1.463 1_565 S
C679 C684 1.350 1_554 S
C679 N687 1.427 . S
C680 H671 0.930 . S
C680 C678 1.378 . S
C680 C681 1.367 . S
C681 C680 1.367 . S
C681 C683 1.433 1_554 S
C682 C678 1.350 . S
C682 C679 1.463 1_545 S
C682 N686 1.427 1_554 S
C683 H673 0.929 . S
C683 C681 1.433 1_556 S
C683 N686 1.384 . S
C684 H675 0.929 . S
C684 C676 1.378 . S
C684 C679 1.350 1_556 S
C685 H672 0.929 . S
C685 C677 1.433 . S
C685 N687 1.384 . S
N686 C682 1.427 1_556 S
N686 C683 1.384 . S
N687 C679 1.427 . S
N687 C685 1.384 . S
H688 C694 0.930 . S
H689 C698 0.930 . S
H690 C703 0.929 . S
H691 C701 0.934 . S
H692 C696 0.929 . S
H693 C702 0.929 . S
C694 H688 0.930 . S
C694 C695 1.367 . S
C694 C702 1.378 . S
C695 C694 1.367 . S
C695 C703 1.433 . S
C696 H692 0.929 . S
C696 C698 1.378 . S
C696 C700 1.350 . S
C697 C700 1.463 . S
C697 C702 1.350 . S
C697 N705 1.427 . S
C698 H689 0.930 . S
C698 C696 1.378 . S
C698 C699 1.367 . S
C699 C698 1.367 . S
C699 C701 1.433 . S
C700 C696 1.350 . S
C700 C697 1.463 . S
C700 N704 1.427 . S
C701 H691 0.934 . S
C701 C699 1.433 . S
C701 N704 1.384 . S
C702 H693 0.929 . S
C702 C694 1.378 . S
C702 C697 1.350 . S
C703 H690 0.929 . S
C703 C695 1.433 . S
C703 N705 1.384 . S
N704 C700 1.427 . S
N704 C701 1.384 . S
N705 C697 1.427 . S
N705 C703 1.384 . S
H706 C712 0.930 . S
H707 C716 0.930 . S
H708 C721 0.929 . S
H709 C719 0.929 . S
H710 C714 0.929 . S
H711 C720 0.929 . S
C712 H706 0.930 . S
C712 C713 1.367 . S
C712 C720 1.378 . S
C713 C712 1.367 . S
C713 C721 1.433 . S
C714 H710 0.929 . S
C714 C716 1.378 . S
C714 C718 1.350 . S
C715 C718 1.463 . S
C715 C720 1.350 . S
C715 N723 1.427 . S
C716 H707 0.930 . S
C716 C714 1.378 . S
C716 C717 1.367 . S
C717 C716 1.367 . S
C717 C719 1.433 . S
C718 C714 1.350 . S
C718 C715 1.463 . S
C718 N722 1.427 . S
C719 H709 0.929 . S
C719 C717 1.433 . S
C719 N722 1.384 . S
C720 H711 0.929 . S
C720 C712 1.378 . S
C720 C715 1.350 . S
C721 H708 0.929 . S
C721 C713 1.433 . S
C721 N723 1.384 . S
N722 C718 1.427 . S
N722 C719 1.384 . S
N723 C715 1.427 . S
N723 C721 1.384 . S
H724 C730 0.930 . S
H725 C734 0.930 . S
H726 C739 0.930 . S
H727 C737 0.929 . S
H728 C732 0.929 . S
H729 C738 0.929 . S
C730 H724 0.930 . S
C730 C731 1.367 . S
C730 C738 1.378 . S
C731 C730 1.367 . S
C731 C739 1.433 1_554 S
C732 H728 0.929 . S
C732 C734 1.378 . S
C732 C736 1.350 1_556 S
C733 C736 1.463 . S
C733 C738 1.350 . S
C733 N741 1.427 1_554 S
C734 H725 0.930 . S
C734 C732 1.378 . S
C734 C735 1.367 1_556 S
C735 C734 1.367 1_554 S
C735 C737 1.433 . S
C736 C732 1.350 1_554 S
C736 C733 1.463 . S
C736 N740 1.427 . S
C737 H727 0.929 . S
C737 C735 1.433 . S
C737 N740 1.384 . S
C738 H729 0.929 . S
C738 C730 1.378 . S
C738 C733 1.350 . S
C739 H726 0.930 . S
C739 C731 1.433 1_556 S
C739 N741 1.384 . S
N740 C736 1.427 . S
N740 C737 1.384 . S
N741 C733 1.427 1_556 S
N741 C739 1.384 . S
H742 C748 0.930 . S
H743 C752 0.930 . S
H744 C757 0.929 . S
H745 C755 0.929 . S
H746 C750 0.929 . S
H747 C756 0.929 . S
C748 H742 0.930 . S
C748 C749 1.367 . S
C748 C756 1.378 . S
C749 C748 1.367 . S
C749 C757 1.433 . S
C750 H746 0.929 . S
C750 C752 1.378 . S
C750 C754 1.350 . S
C751 C754 1.463 . S
C751 C756 1.350 . S
C751 N759 1.427 . S
C752 H743 0.930 . S
C752 C750 1.378 . S
C752 C753 1.367 . S
C753 C752 1.367 . S
C753 C755 1.433 . S
C754 C750 1.350 . S
C754 C751 1.463 . S
C754 N758 1.427 . S
C755 H745 0.929 . S
C755 C753 1.433 . S
C755 N758 1.384 . S
C756 H747 0.929 . S
C756 C748 1.378 . S
C756 C751 1.350 . S
C757 H744 0.929 . S
C757 C749 1.433 . S
C757 N759 1.384 . S
N758 C754 1.427 . S
N758 C755 1.384 . S
N759 C751 1.427 . S
N759 C757 1.384 . S
C479 C33 1.502 . S
C483 C269 1.501 . S
C497 C92 1.506 . S
C501 C328 1.503 . S
C515 C387 1.503 . S
C519 C151 1.501 . S
C533 C446 1.502 . S
C537 C210 1.501 . S
C551 C357 1.249 . S
C555 C121 1.243 . S
C569 C416 1.242 . S
C573 C180 1.250 . S
C587 C3 1.250 . S
C591 C239 1.239 . S
C605 C62 1.248 . S
C609 C298 1.239 . S
C623 C170 1.417 . S
C627 C52 1.413 . S
C641 C229 1.416 . S
C645 C111 1.412 . S
C659 C288 1.417 . S
C663 C406 1.412 . S
C677 C465 1.418 . S
C681 C347 1.413 . S
C695 C5 1.441 . S
C699 C300 1.444 . S
C713 C359 1.440 . S
C717 C64 1.442 . S
C731 C123 1.444 . S
C735 C418 1.442 . S
C749 C182 1.440 . S
C753 C241 1.443 . S
