# Generated by pormake.
# Topology wna, (6)-cn, num edge types: 1
# Building blocks:
#     Node 0, Type 0, BuildingBlock: INOVEN_clean_sbu_0, # of connection points: 6
#     Node 1, Type 0, BuildingBlock: INOVEN_clean_sbu_0, # of connection points: 6
#     Node 2, Type 0, BuildingBlock: INOVEN_clean_sbu_0, # of connection points: 6
#     Node 3, Type 0, BuildingBlock: INOVEN_clean_sbu_0, # of connection points: 6
#     Node 4, Type 0, BuildingBlock: INOVEN_clean_sbu_0, # of connection points: 6
#     Node 5, Type 0, BuildingBlock: INOVEN_clean_sbu_0, # of connection points: 6
#     Node 6, Type 0, BuildingBlock: INOVEN_clean_sbu_0, # of connection points: 6
#     Node 7, Type 0, BuildingBlock: INOVEN_clean_sbu_0, # of connection points: 6
#     Node 8, Type 0, BuildingBlock: INOVEN_clean_sbu_0, # of connection points: 6
#     Node 9, Type 0, BuildingBlock: INOVEN_clean_sbu_0, # of connection points: 6
#     Node 10, Type 0, BuildingBlock: INOVEN_clean_sbu_0, # of connection points: 6
#     Node 11, Type 0, BuildingBlock: INOVEN_clean_sbu_0, # of connection points: 6
#     Node 12, Type 0, BuildingBlock: INOVEN_clean_sbu_0, # of connection points: 6
#     Node 13, Type 0, BuildingBlock: INOVEN_clean_sbu_0, # of connection points: 6
#     Node 14, Type 0, BuildingBlock: INOVEN_clean_sbu_0, # of connection points: 6
#     Node 15, Type 0, BuildingBlock: INOVEN_clean_sbu_0, # of connection points: 6
#     Node 16, Type 0, BuildingBlock: INOVEN_clean_sbu_0, # of connection points: 6
#     Node 17, Type 0, BuildingBlock: INOVEN_clean_sbu_0, # of connection points: 6
#     Node 18, Type 0, BuildingBlock: INOVEN_clean_sbu_0, # of connection points: 6
#     Node 19, Type 0, BuildingBlock: INOVEN_clean_sbu_0, # of connection points: 6
#     Node 20, Type 0, BuildingBlock: INOVEN_clean_sbu_0, # of connection points: 6
#     Node 21, Type 0, BuildingBlock: INOVEN_clean_sbu_0, # of connection points: 6
#     Node 22, Type 0, BuildingBlock: INOVEN_clean_sbu_0, # of connection points: 6
#     Node 23, Type 0, BuildingBlock: INOVEN_clean_sbu_0, # of connection points: 6
#     Node 24, Type 0, BuildingBlock: INOVEN_clean_sbu_0, # of connection points: 6
#     Node 25, Type 0, BuildingBlock: INOVEN_clean_sbu_0, # of connection points: 6
#     Node 26, Type 0, BuildingBlock: INOVEN_clean_sbu_0, # of connection points: 6
#     Node 27, Type 0, BuildingBlock: INOVEN_clean_sbu_0, # of connection points: 6
#     Node 28, Type 0, BuildingBlock: INOVEN_clean_sbu_0, # of connection points: 6
#     Node 29, Type 0, BuildingBlock: INOVEN_clean_sbu_0, # of connection points: 6
#     Node 30, Type 0, BuildingBlock: INOVEN_clean_sbu_0, # of connection points: 6
#     Node 31, Type 0, BuildingBlock: INOVEN_clean_sbu_0, # of connection points: 6
#     Node 32, Type 0, BuildingBlock: INOVEN_clean_sbu_0, # of connection points: 6
#     Node 33, Type 0, BuildingBlock: INOVEN_clean_sbu_0, # of connection points: 6
#     Node 34, Type 0, BuildingBlock: INOVEN_clean_sbu_0, # of connection points: 6
#     Node 35, Type 0, BuildingBlock: INOVEN_clean_sbu_0, # of connection points: 6
#     Edge 36, Type (0, 0), BuildingBlock: AJUNOK_clean_linker_0, # of connection points: 2
#     Edge 37, Type (0, 0), BuildingBlock: AJUNOK_clean_linker_0, # of connection points: 2
#     Edge 38, Type (0, 0), BuildingBlock: AJUNOK_clean_linker_0, # of connection points: 2
#     Edge 39, Type (0, 0), BuildingBlock: AJUNOK_clean_linker_0, # of connection points: 2
#     Edge 40, Type (0, 0), BuildingBlock: AJUNOK_clean_linker_0, # of connection points: 2
#     Edge 41, Type (0, 0), BuildingBlock: AJUNOK_clean_linker_0, # of connection points: 2
#     Edge 42, Type (0, 0), BuildingBlock: AJUNOK_clean_linker_0, # of connection points: 2
#     Edge 43, Type (0, 0), BuildingBlock: AJUNOK_clean_linker_0, # of connection points: 2
#     Edge 44, Type (0, 0), BuildingBlock: AJUNOK_clean_linker_0, # of connection points: 2
#     Edge 45, Type (0, 0), BuildingBlock: AJUNOK_clean_linker_0, # of connection points: 2
#     Edge 46, Type (0, 0), BuildingBlock: AJUNOK_clean_linker_0, # of connection points: 2
#     Edge 47, Type (0, 0), BuildingBlock: AJUNOK_clean_linker_0, # of connection points: 2
#     Edge 48, Type (0, 0), BuildingBlock: AJUNOK_clean_linker_0, # of connection points: 2
#     Edge 49, Type (0, 0), BuildingBlock: AJUNOK_clean_linker_0, # of connection points: 2
#     Edge 50, Type (0, 0), BuildingBlock: AJUNOK_clean_linker_0, # of connection points: 2
#     Edge 51, Type (0, 0), BuildingBlock: AJUNOK_clean_linker_0, # of connection points: 2
#     Edge 52, Type (0, 0), BuildingBlock: AJUNOK_clean_linker_0, # of connection points: 2
#     Edge 53, Type (0, 0), BuildingBlock: AJUNOK_clean_linker_0, # of connection points: 2
#     Edge 54, Type (0, 0), BuildingBlock: AJUNOK_clean_linker_0, # of connection points: 2
#     Edge 55, Type (0, 0), BuildingBlock: AJUNOK_clean_linker_0, # of connection points: 2
#     Edge 56, Type (0, 0), BuildingBlock: AJUNOK_clean_linker_0, # of connection points: 2
#     Edge 57, Type (0, 0), BuildingBlock: AJUNOK_clean_linker_0, # of connection points: 2
#     Edge 58, Type (0, 0), BuildingBlock: AJUNOK_clean_linker_0, # of connection points: 2
#     Edge 59, Type (0, 0), BuildingBlock: AJUNOK_clean_linker_0, # of connection points: 2
#     Edge 60, Type (0, 0), BuildingBlock: AJUNOK_clean_linker_0, # of connection points: 2
#     Edge 61, Type (0, 0), BuildingBlock: AJUNOK_clean_linker_0, # of connection points: 2
#     Edge 62, Type (0, 0), BuildingBlock: AJUNOK_clean_linker_0, # of connection points: 2
#     Edge 63, Type (0, 0), BuildingBlock: AJUNOK_clean_linker_0, # of connection points: 2
#     Edge 64, Type (0, 0), BuildingBlock: AJUNOK_clean_linker_0, # of connection points: 2
#     Edge 65, Type (0, 0), BuildingBlock: AJUNOK_clean_linker_0, # of connection points: 2
#     Edge 66, Type (0, 0), BuildingBlock: AJUNOK_clean_linker_0, # of connection points: 2
#     Edge 67, Type (0, 0), BuildingBlock: AJUNOK_clean_linker_0, # of connection points: 2
#     Edge 68, Type (0, 0), BuildingBlock: AJUNOK_clean_linker_0, # of connection points: 2
#     Edge 69, Type (0, 0), BuildingBlock: AJUNOK_clean_linker_0, # of connection points: 2
#     Edge 70, Type (0, 0), BuildingBlock: AJUNOK_clean_linker_0, # of connection points: 2
#     Edge 71, Type (0, 0), BuildingBlock: AJUNOK_clean_linker_0, # of connection points: 2
#     Edge 72, Type (0, 0), BuildingBlock: AJUNOK_clean_linker_0, # of connection points: 2
#     Edge 73, Type (0, 0), BuildingBlock: AJUNOK_clean_linker_0, # of connection points: 2
#     Edge 74, Type (0, 0), BuildingBlock: AJUNOK_clean_linker_0, # of connection points: 2
#     Edge 75, Type (0, 0), BuildingBlock: AJUNOK_clean_linker_0, # of connection points: 2
#     Edge 76, Type (0, 0), BuildingBlock: AJUNOK_clean_linker_0, # of connection points: 2
#     Edge 77, Type (0, 0), BuildingBlock: AJUNOK_clean_linker_0, # of connection points: 2
#     Edge 78, Type (0, 0), BuildingBlock: AJUNOK_clean_linker_0, # of connection points: 2
#     Edge 79, Type (0, 0), BuildingBlock: AJUNOK_clean_linker_0, # of connection points: 2
#     Edge 80, Type (0, 0), BuildingBlock: AJUNOK_clean_linker_0, # of connection points: 2
#     Edge 81, Type (0, 0), BuildingBlock: AJUNOK_clean_linker_0, # of connection points: 2
#     Edge 82, Type (0, 0), BuildingBlock: AJUNOK_clean_linker_0, # of connection points: 2
#     Edge 83, Type (0, 0), BuildingBlock: AJUNOK_clean_linker_0, # of connection points: 2
#     Edge 84, Type (0, 0), BuildingBlock: AJUNOK_clean_linker_0, # of connection points: 2
#     Edge 85, Type (0, 0), BuildingBlock: AJUNOK_clean_linker_0, # of connection points: 2
#     Edge 86, Type (0, 0), BuildingBlock: AJUNOK_clean_linker_0, # of connection points: 2
#     Edge 87, Type (0, 0), BuildingBlock: AJUNOK_clean_linker_0, # of connection points: 2
#     Edge 88, Type (0, 0), BuildingBlock: AJUNOK_clean_linker_0, # of connection points: 2
#     Edge 89, Type (0, 0), BuildingBlock: AJUNOK_clean_linker_0, # of connection points: 2
#     Edge 90, Type (0, 0), BuildingBlock: AJUNOK_clean_linker_0, # of connection points: 2
#     Edge 91, Type (0, 0), BuildingBlock: AJUNOK_clean_linker_0, # of connection points: 2
#     Edge 92, Type (0, 0), BuildingBlock: AJUNOK_clean_linker_0, # of connection points: 2
#     Edge 93, Type (0, 0), BuildingBlock: AJUNOK_clean_linker_0, # of connection points: 2
#     Edge 94, Type (0, 0), BuildingBlock: AJUNOK_clean_linker_0, # of connection points: 2
#     Edge 95, Type (0, 0), BuildingBlock: AJUNOK_clean_linker_0, # of connection points: 2
#     Edge 96, Type (0, 0), BuildingBlock: AJUNOK_clean_linker_0, # of connection points: 2
#     Edge 97, Type (0, 0), BuildingBlock: AJUNOK_clean_linker_0, # of connection points: 2
#     Edge 98, Type (0, 0), BuildingBlock: AJUNOK_clean_linker_0, # of connection points: 2
#     Edge 99, Type (0, 0), BuildingBlock: AJUNOK_clean_linker_0, # of connection points: 2
#     Edge 100, Type (0, 0), BuildingBlock: AJUNOK_clean_linker_0, # of connection points: 2
#     Edge 101, Type (0, 0), BuildingBlock: AJUNOK_clean_linker_0, # of connection points: 2
#     Edge 102, Type (0, 0), BuildingBlock: AJUNOK_clean_linker_0, # of connection points: 2
#     Edge 103, Type (0, 0), BuildingBlock: AJUNOK_clean_linker_0, # of connection points: 2
#     Edge 104, Type (0, 0), BuildingBlock: AJUNOK_clean_linker_0, # of connection points: 2
#     Edge 105, Type (0, 0), BuildingBlock: AJUNOK_clean_linker_0, # of connection points: 2
#     Edge 106, Type (0, 0), BuildingBlock: AJUNOK_clean_linker_0, # of connection points: 2
#     Edge 107, Type (0, 0), BuildingBlock: AJUNOK_clean_linker_0, # of connection points: 2
#     Edge 108, Type (0, 0), BuildingBlock: AJUNOK_clean_linker_0, # of connection points: 2
#     Edge 109, Type (0, 0), BuildingBlock: AJUNOK_clean_linker_0, # of connection points: 2
#     Edge 110, Type (0, 0), BuildingBlock: AJUNOK_clean_linker_0, # of connection points: 2
#     Edge 111, Type (0, 0), BuildingBlock: AJUNOK_clean_linker_0, # of connection points: 2
#     Edge 112, Type (0, 0), BuildingBlock: AJUNOK_clean_linker_0, # of connection points: 2
#     Edge 113, Type (0, 0), BuildingBlock: AJUNOK_clean_linker_0, # of connection points: 2
#     Edge 114, Type (0, 0), BuildingBlock: AJUNOK_clean_linker_0, # of connection points: 2
#     Edge 115, Type (0, 0), BuildingBlock: AJUNOK_clean_linker_0, # of connection points: 2
#     Edge 116, Type (0, 0), BuildingBlock: AJUNOK_clean_linker_0, # of connection points: 2
#     Edge 117, Type (0, 0), BuildingBlock: AJUNOK_clean_linker_0, # of connection points: 2
#     Edge 118, Type (0, 0), BuildingBlock: AJUNOK_clean_linker_0, # of connection points: 2
#     Edge 119, Type (0, 0), BuildingBlock: AJUNOK_clean_linker_0, # of connection points: 2
#     Edge 120, Type (0, 0), BuildingBlock: AJUNOK_clean_linker_0, # of connection points: 2
#     Edge 121, Type (0, 0), BuildingBlock: AJUNOK_clean_linker_0, # of connection points: 2
#     Edge 122, Type (0, 0), BuildingBlock: AJUNOK_clean_linker_0, # of connection points: 2
#     Edge 123, Type (0, 0), BuildingBlock: AJUNOK_clean_linker_0, # of connection points: 2
#     Edge 124, Type (0, 0), BuildingBlock: AJUNOK_clean_linker_0, # of connection points: 2
#     Edge 125, Type (0, 0), BuildingBlock: AJUNOK_clean_linker_0, # of connection points: 2
#     Edge 126, Type (0, 0), BuildingBlock: AJUNOK_clean_linker_0, # of connection points: 2
#     Edge 127, Type (0, 0), BuildingBlock: AJUNOK_clean_linker_0, # of connection points: 2
#     Edge 128, Type (0, 0), BuildingBlock: AJUNOK_clean_linker_0, # of connection points: 2
#     Edge 129, Type (0, 0), BuildingBlock: AJUNOK_clean_linker_0, # of connection points: 2
#     Edge 130, Type (0, 0), BuildingBlock: AJUNOK_clean_linker_0, # of connection points: 2
#     Edge 131, Type (0, 0), BuildingBlock: AJUNOK_clean_linker_0, # of connection points: 2
#     Edge 132, Type (0, 0), BuildingBlock: AJUNOK_clean_linker_0, # of connection points: 2
#     Edge 133, Type (0, 0), BuildingBlock: AJUNOK_clean_linker_0, # of connection points: 2
#     Edge 134, Type (0, 0), BuildingBlock: AJUNOK_clean_linker_0, # of connection points: 2
#     Edge 135, Type (0, 0), BuildingBlock: AJUNOK_clean_linker_0, # of connection points: 2
#     Edge 136, Type (0, 0), BuildingBlock: AJUNOK_clean_linker_0, # of connection points: 2
#     Edge 137, Type (0, 0), BuildingBlock: AJUNOK_clean_linker_0, # of connection points: 2
#     Edge 138, Type (0, 0), BuildingBlock: AJUNOK_clean_linker_0, # of connection points: 2
#     Edge 139, Type (0, 0), BuildingBlock: AJUNOK_clean_linker_0, # of connection points: 2
#     Edge 140, Type (0, 0), BuildingBlock: AJUNOK_clean_linker_0, # of connection points: 2
#     Edge 141, Type (0, 0), BuildingBlock: AJUNOK_clean_linker_0, # of connection points: 2
#     Edge 142, Type (0, 0), BuildingBlock: AJUNOK_clean_linker_0, # of connection points: 2
#     Edge 143, Type (0, 0), BuildingBlock: AJUNOK_clean_linker_0, # of connection points: 2
# Relax obj value: 0.148
# Max RMSD: 0.232
# Mean RMSD: 0.213
data_MOF--net-wna--node1-INOVEN_clean_sbu_0--edge1-AJUNOK_clean_linker_0
_symmetry_space_group_name_H-M    P1
_symmetry_Int_Tables_number       1
_symmetry_cell_setting            triclinic
loop_
_symmetry_equiv_pos_as_xyz
'x, y, z'
_cell_length_a     30.039332
_cell_length_b     30.074781
_cell_length_c     129.62089
_cell_angle_alpha  89.958797
_cell_angle_beta   89.961762
_cell_angle_gamma 119.98373
loop_
_atom_site_label
_atom_site_type_symbol
_atom_site_fract_x
_atom_site_fract_y
_atom_site_fract_z
_atom_type_partial_charge
Gd0 Gd 0.13753 0.2669 0.17205 0.0
Gd1 Gd 0.13969 0.2555 0.19608 0.0
C2 C 0.24703 0.32512 0.18383 0.0
C3 C 0.128 0.29837 0.15404 0.0
C4 C 0.15046 0.31145 0.1435 0.0
C5 C 0.13725 0.2728 0.13604 0.0
C6 C 0.18021 0.36301 0.14042 0.0
C7 C 0.181 0.33701 0.12261 0.0
C8 C 0.1954 0.37564 0.13011 0.0
C9 C 0.1523 0.28543 0.12574 0.0
C10 C 0.1718 0.20035 0.17658 0.0
C11 C 0.03709 0.17459 0.18327 0.0
C12 C 0.13648 0.2287 0.21529 0.0
C13 C 0.11014 0.22134 0.22539 0.0
C14 C 0.10423 0.26026 0.23009 0.0
C15 C 0.09405 0.17533 0.23081 0.0
C16 C 0.06853 0.20774 0.24562 0.0
C17 C 0.07344 0.16855 0.24077 0.0
C18 C 0.08353 0.25346 0.24008 0.0
C19 C 0.11315 0.32609 0.18914 0.0
O20 O 0.21903 0.32802 0.17621 0.0
O21 O 0.22459 0.29374 0.19178 0.0
O22 O 0.10504 0.24991 0.15677 0.0
O23 O 0.15308 0.3299 0.16166 0.0
O24 O 0.16719 0.21353 0.16726 0.0
O25 O 0.15939 0.22468 0.18275 0.0
O26 O 0.06278 0.18556 0.1921 0.0
O27 O 0.05632 0.20377 0.17496 0.0
O28 O 0.16573 0.27557 0.21189 0.0
O29 O 0.11124 0.1961 0.20791 0.0
O30 O 0.13823 0.33047 0.19756 0.0
O31 O 0.10093 0.28312 0.18525 0.0
H32 H 0.11357 0.23266 0.13806 0.0
H33 H 0.1904 0.39373 0.14592 0.0
H34 H 0.2175 0.41575 0.12795 0.0
H35 H 0.13941 0.25473 0.12014 0.0
H36 H 0.1162 0.29618 0.22611 0.0
H37 H 0.09853 0.14486 0.22743 0.0
H38 H 0.06256 0.13296 0.24479 0.0
H39 H 0.07928 0.28403 0.24347 0.0
Gd40 Gd 0.78406 0.87597 0.17119 0.0
Gd41 Gd 0.7986 0.89396 0.19642 0.0
C42 C 0.72858 0.93118 0.18301 0.0
C43 C 0.75038 0.83196 0.15349 0.0
C44 C 0.73673 0.8376 0.14276 0.0
C45 C 0.76665 0.88221 0.13688 0.0
C46 C 0.69558 0.79511 0.13797 0.0
C47 C 0.71607 0.84027 0.12146 0.0
C48 C 0.68539 0.79637 0.12747 0.0
C49 C 0.75636 0.88354 0.12634 0.0
C50 C 0.85438 0.97509 0.17621 0.0
C51 C 0.87454 0.86681 0.18312 0.0
C52 C 0.82779 0.92774 0.21505 0.0
C53 C 0.83394 0.91115 0.22552 0.0
C54 C 0.80283 0.8606 0.2291 0.0
C55 C 0.87145 0.94734 0.23216 0.0
C56 C 0.84619 0.88335 0.24591 0.0
C57 C 0.87757 0.93368 0.24219 0.0
C58 C 0.80892 0.84685 0.23918 0.0
C59 C 0.73218 0.79228 0.1911 0.0
O60 O 0.72921 0.90469 0.17484 0.0
O61 O 0.75477 0.93516 0.19164 0.0
O62 O 0.7992 0.857 0.15601 0.0
O63 O 0.7197 0.82919 0.161 0.0
O64 O 0.84139 0.95888 0.16676 0.0
O65 O 0.82808 0.93765 0.18211 0.0
O66 O 0.86769 0.88752 0.1916 0.0
O67 O 0.84221 0.85188 0.17519 0.0
O68 O 0.78083 0.91078 0.21165 0.0
O69 O 0.85939 0.92969 0.20784 0.0
O70 O 0.7431 0.8092 0.20049 0.0
O71 O 0.75658 0.83097 0.18541 0.0
H72 H 0.79889 0.91544 0.14036 0.0
H73 H 0.67217 0.76017 0.14231 0.0
H74 H 0.65393 0.76251 0.12398 0.0
H75 H 0.78121 0.9177 0.12192 0.0
H76 H 0.77382 0.83179 0.22413 0.0
H77 H 0.89593 0.98656 0.2296 0.0
H78 H 0.90648 0.9629 0.24712 0.0
H79 H 0.7848 0.80748 0.24166 0.0
Gd80 Gd 0.17498 0.91361 0.17173 0.0
Gd81 Gd 0.15984 0.91096 0.19571 0.0
C82 C 0.12373 0.80424 0.18362 0.0
C83 C 0.2152 0.92213 0.15362 0.0
C84 C 0.2051 0.9008 0.14295 0.0
C85 C 0.1848 0.91957 0.13544 0.0
C86 C 0.22142 0.86643 0.13984 0.0
C87 C 0.19923 0.87176 0.12191 0.0
C88 C 0.21845 0.85204 0.12945 0.0
C89 C 0.18191 0.90525 0.12507 0.0
C90 C 0.07373 0.88038 0.17614 0.0
C91 C 0.18441 1.01445 0.18283 0.0
C92 C 0.13526 0.91607 0.21477 0.0
C93 C 0.1529 0.94177 0.22495 0.0
C94 C 0.19331 0.9421 0.23051 0.0
C95 C 0.12551 0.96311 0.22956 0.0
C96 C 0.17634 0.98209 0.24529 0.0
C97 C 0.13715 0.98314 0.23956 0.0
C98 C 0.20509 0.96236 0.24057 0.0
C99 C 0.25708 0.93541 0.18923 0.0
O100 O 0.15532 0.83269 0.17612 0.0
O101 O 0.11309 0.8261 0.19144 0.0
O102 O 0.19181 0.947 0.1565 0.0
O103 O 0.21992 0.89539 0.16113 0.0
O104 O 0.09194 0.88544 0.16685 0.0
O105 O 0.11038 0.89194 0.18227 0.0
O106 O 0.16802 0.98819 0.19157 0.0
O107 O 0.19526 0.99539 0.17462 0.0
O108 O 0.15084 0.88474 0.21163 0.0
O109 O 0.13123 0.9428 0.20726 0.0
O110 O 0.23468 0.91023 0.19754 0.0
O111 O 0.2277 0.94898 0.18509 0.0
H112 H 0.1728 0.94692 0.13747 0.0
H113 H 0.23797 0.85182 0.14537 0.0
H114 H 0.23213 0.82617 0.12728 0.0
H115 H 0.16814 0.92226 0.11946 0.0
H116 H 0.21511 0.92585 0.22719 0.0
H117 H 0.09413 0.96329 0.22547 0.0
H118 H 0.11502 0.99909 0.24286 0.0
H119 H 0.23563 0.96116 0.24477 0.0
Gd120 Gd 0.27725 0.12465 0.36143 0.0
Gd121 Gd 0.26254 0.12742 0.33636 0.0
C122 C 0.3334 0.2346 0.34944 0.0
C123 C 0.31096 0.11412 0.37909 0.0
C124 C 0.32131 0.1329 0.38987 0.0
C125 C 0.28318 0.13361 0.39606 0.0
C126 C 0.36863 0.14531 0.39436 0.0
C127 C 0.33833 0.155 0.4112 0.0
C128 C 0.37716 0.15647 0.4049 0.0
C129 C 0.29164 0.14457 0.40662 0.0
C130 C 0.20653 0.15342 0.35675 0.0
C131 C 0.18551 0.02589 0.3497 0.0
C132 C 0.23297 0.13094 0.31773 0.0
C133 C 0.22817 0.10938 0.30725 0.0
C134 C 0.25979 0.09043 0.30372 0.0
C135 C 0.18984 0.10685 0.3007 0.0
C136 C 0.21353 0.06554 0.28729 0.0
C137 C 0.18267 0.08536 0.29084 0.0
C138 C 0.2527 0.06894 0.2938 0.0
C139 C 0.32883 0.09207 0.34176 0.0
O140 O 0.333 0.20791 0.35766 0.0
O141 O 0.30646 0.21216 0.34093 0.0
O142 O 0.26273 0.08719 0.37624 0.0
O143 O 0.34147 0.14445 0.37181 0.0
O144 O 0.2202 0.14971 0.36611 0.0
O145 O 0.23277 0.14297 0.35061 0.0
O146 O 0.19263 0.05323 0.34119 0.0
O147 O 0.21788 0.04278 0.35761 0.0
O148 O 0.27925 0.16305 0.3212 0.0
O149 O 0.2025 0.09914 0.32481 0.0
O150 O 0.31832 0.09819 0.33235 0.0
O151 O 0.30425 0.10634 0.34736 0.0
H152 H 0.2463 0.12432 0.39281 0.0
H153 H 0.39847 0.14463 0.38977 0.0
H154 H 0.41346 0.16422 0.4082 0.0
H155 H 0.26135 0.14405 0.41125 0.0
H156 H 0.28956 0.09183 0.30865 0.0
H157 H 0.16511 0.12137 0.30324 0.0
H158 H 0.15293 0.08442 0.28597 0.0
H159 H 0.27713 0.05407 0.29128 0.0
Gd160 Gd 0.92199 0.16281 0.3617 0.0
Gd161 Gd 0.91981 0.14928 0.33772 0.0
C162 C 0.8123 0.1109 0.34991 0.0
C163 C 0.93218 0.20502 0.3796 0.0
C164 C 0.9107 0.19837 0.39015 0.0
C165 C 0.89442 0.1529 0.39582 0.0
C166 C 0.91215 0.24065 0.39505 0.0
C167 C 0.88439 0.19345 0.41129 0.0
C168 C 0.89925 0.2383 0.40549 0.0
C169 C 0.88152 0.15053 0.40629 0.0
C170 C 0.88757 0.0619 0.35717 0.0
C171 C 1.02235 0.17038 0.3505 0.0
C172 C 0.92298 0.12528 0.31854 0.0
C173 C 0.94974 0.14312 0.30846 0.0
C174 C 0.96203 0.19084 0.30413 0.0
C175 C 0.95953 0.10946 0.30268 0.0
C176 C 0.99155 0.1697 0.28824 0.0
C177 C 0.98007 0.12249 0.29271 0.0
C178 C 0.98279 0.20401 0.29413 0.0
C179 C 0.94489 0.24606 0.34453 0.0
O180 O 0.84001 0.1414 0.3576 0.0
O181 O 0.83503 0.10241 0.34196 0.0
O182 O 0.95306 0.17727 0.37711 0.0
O183 O 0.90754 0.21176 0.37194 0.0
O184 O 0.89199 0.07954 0.36649 0.0
O185 O 0.90013 0.0988 0.35102 0.0
O186 O 0.99735 0.1578 0.34159 0.0
O187 O 1.00283 0.17912 0.35892 0.0
O188 O 0.89526 0.14488 0.32183 0.0
O189 O 0.94702 0.11662 0.32599 0.0
O190 O 0.91916 0.22431 0.33624 0.0
O191 O 0.95838 0.21623 0.34848 0.0
H192 H 0.89316 0.11974 0.39225 0.0
H193 H 0.92529 0.27634 0.39089 0.0
H194 H 0.90311 0.27245 0.40913 0.0
H195 H 0.87017 0.11543 0.41054 0.0
H196 H 0.95463 0.21748 0.30838 0.0
H197 H 0.95019 0.07236 0.30581 0.0
H198 H 0.98667 0.09535 0.28845 0.0
H199 H 0.99054 0.24038 0.29088 0.0
Gd200 Gd 0.88444 0.77477 0.36103 0.0
Gd201 Gd 0.8993 0.78414 0.33836 0.0
C202 C 0.9353 0.71275 0.35007 0.0
C203 C 0.85213 0.7449 0.37976 0.0
C204 C 0.86256 0.73127 0.39017 0.0
C205 C 0.90006 0.76878 0.39667 0.0
C206 C 0.82938 0.68232 0.39428 0.0
C207 C 0.86751 0.71021 0.41136 0.0
C208 C 0.83202 0.6718 0.40474 0.0
C209 C 0.9025 0.75833 0.40713 0.0
C210 C 0.97967 0.85128 0.35577 0.0
C211 C 0.87126 0.86185 0.35026 0.0
C212 C 0.92124 0.81083 0.31901 0.0
C213 C 0.90325 0.82021 0.30892 0.0
C214 C 0.86343 0.78038 0.30321 0.0
C215 C 0.93031 0.86924 0.30441 0.0
C216 C 0.87933 0.83837 0.2886 0.0
C217 C 0.91856 0.8782 0.29441 0.0
C218 C 0.8516 0.78938 0.29319 0.0
C219 C 0.80093 0.71225 0.34447 0.0
O220 O 0.90731 0.71409 0.35786 0.0
O221 O 0.94406 0.74301 0.34196 0.0
O222 O 0.87885 0.79289 0.37689 0.0
O223 O 0.8411 0.71272 0.37208 0.0
O224 O 0.95499 0.85072 0.36399 0.0
O225 O 0.95542 0.80851 0.35118 0.0
O226 O 0.896 0.85621 0.34238 0.0
O227 O 0.85243 0.82666 0.35759 0.0
O228 O 0.90177 0.7637 0.32235 0.0
O229 O 0.93085 0.84349 0.32649 0.0
O230 O 0.82538 0.70727 0.33676 0.0
O231 O 0.82899 0.75605 0.34831 0.0
H232 H 0.92622 0.807 0.3938 0.0
H233 H 0.79971 0.65283 0.38952 0.0
H234 H 0.8045 0.63436 0.40777 0.0
H235 H 0.93091 0.78842 0.41199 0.0
H236 H 0.84222 0.74193 0.30636 0.0
H237 H 0.96165 0.90058 0.30852 0.0
H238 H 0.94062 0.91643 0.29119 0.0
H239 H 0.82183 0.75749 0.2889 0.0
Gd240 Gd 0.92321 0.78459 0.83709 0.0
Gd241 Gd 0.92665 0.77128 0.86227 0.0
C242 C 1.02559 0.86193 0.85024 0.0
C243 C 0.91834 0.81296 0.81843 0.0
C244 C 0.9423 0.81959 0.80808 0.0
C245 C 0.9485 0.78083 0.80339 0.0
C246 C 0.95776 0.86538 0.80262 0.0
C247 C 0.98396 0.83331 0.78786 0.0
C248 C 0.97844 0.87224 0.79266 0.0
C249 C 0.96912 0.78764 0.79339 0.0
C250 C 0.96052 0.72001 0.84263 0.0
C251 C 0.81665 0.71168 0.85032 0.0
C252 C 0.93743 0.7392 0.88011 0.0
C253 C 0.91687 0.72697 0.89075 0.0
C254 C 0.90651 0.76043 0.8965 0.0
C255 C 0.9121 0.68301 0.89557 0.0
C256 C 0.88936 0.70715 0.91186 0.0
C257 C 0.89857 0.67321 0.906 0.0
C258 C 0.89304 0.75066 0.90696 0.0
C259 C 0.89618 0.84023 0.85705 0.0
O260 O 0.99793 0.85451 0.84177 0.0
O261 O 1.00865 0.82977 0.85821 0.0
O262 O 0.88882 0.76598 0.82187 0.0
O263 O 0.94683 0.84512 0.82566 0.0
O264 O 0.95424 0.73034 0.8332 0.0
O265 O 0.94559 0.74412 0.84823 0.0
O266 O 0.84397 0.71364 0.85856 0.0
O267 O 0.83828 0.73885 0.84177 0.0
O268 O 0.96174 0.78769 0.87734 0.0
O269 O 0.90959 0.70792 0.87268 0.0
O270 O 0.89955 0.82767 0.86653 0.0
O271 O 0.90776 0.81401 0.85124 0.0
H272 H 0.93726 0.74519 0.80742 0.0
H273 H 0.9533 0.89582 0.80602 0.0
H274 H 0.98929 0.9078 0.78863 0.0
H275 H 0.9738 0.75728 0.79003 0.0
H276 H 0.91006 0.79475 0.89299 0.0
H277 H 0.92055 0.65702 0.89134 0.0
H278 H 0.89733 0.64004 0.90957 0.0
H279 H 0.8862 0.77752 0.91127 0.0
Gd280 Gd 0.26341 0.14425 0.83664 0.0
Gd281 Gd 0.27967 0.16222 0.86169 0.0
C282 C 0.18882 0.17174 0.85011 0.0
C283 C 0.23223 0.11067 0.8181 0.0
C284 C 0.22787 0.12616 0.80743 0.0
C285 C 0.26781 0.16965 0.80255 0.0
C286 C 0.18235 0.09551 0.80193 0.0
C287 C 0.21697 0.15022 0.78672 0.0
C288 C 0.17687 0.10741 0.79174 0.0
C289 C 0.26231 0.18165 0.7923 0.0
C290 C 0.33132 0.24572 0.84183 0.0
C291 C 0.33515 0.10812 0.84951 0.0
C292 C 0.31289 0.20499 0.87951 0.0
C293 C 0.32115 0.19545 0.89042 0.0
C294 C 0.27994 0.17324 0.89746 0.0
C295 C 0.37132 0.21426 0.89417 0.0
C296 C 0.3391 0.19098 0.91179 0.0
C297 C 0.38019 0.21191 0.90473 0.0
C298 C 0.28884 0.17111 0.90801 0.0
C299 C 0.20795 0.06295 0.85705 0.0
O300 O 0.19385 0.14895 0.84178 0.0
O301 O 0.22299 0.18832 0.85772 0.0
O302 O 0.2779 0.12238 0.82157 0.0
O303 O 0.20304 0.1147 0.82512 0.0
O304 O 0.31971 0.22881 0.83246 0.0
O305 O 0.30687 0.20719 0.84753 0.0
O306 O 0.33562 0.13511 0.85769 0.0
O307 O 0.30722 0.10296 0.84111 0.0
O308 O 0.26532 0.18638 0.87638 0.0
O309 O 0.34325 0.20365 0.87236 0.0
O310 O 0.22176 0.0802 0.8664 0.0
O311 O 0.23414 0.09969 0.85095 0.0
H312 H 0.30328 0.19412 0.80663 0.0
H313 H 0.15087 0.06197 0.80553 0.0
H314 H 0.14094 0.08313 0.78779 0.0
H315 H 0.29384 0.21501 0.78868 0.0
H316 H 0.2408 0.15886 0.89489 0.0
H317 H 0.40397 0.23248 0.889 0.0
H318 H 0.41944 0.22846 0.90741 0.0
H319 H 0.25639 0.15469 0.91325 0.0
Gd320 Gd 0.90429 0.12817 0.83733 0.0
Gd321 Gd 0.88856 0.12297 0.86141 0.0
C322 C 0.88091 0.02386 0.8499 0.0
C323 C 0.92904 0.12623 0.81811 0.0
C324 C 0.9106 0.10041 0.80793 0.0
C325 C 0.86721 0.09668 0.80295 0.0
C326 C 0.93995 0.08304 0.80267 0.0
C327 C 0.88415 0.06022 0.78755 0.0
C328 C 0.92697 0.06327 0.79264 0.0
C329 C 0.85413 0.07678 0.79289 0.0
C330 C 0.80656 0.10072 0.84401 0.0
C331 C 0.93888 0.2334 0.85005 0.0
C332 C 0.84656 0.11249 0.87937 0.0
C333 C 0.85472 0.13394 0.88999 0.0
C334 C 0.88035 0.12098 0.89746 0.0
C335 C 0.83132 0.16221 0.89311 0.0
C336 C 0.85692 0.16192 0.91099 0.0
C337 C 0.83248 0.17609 0.90348 0.0
C338 C 0.88141 0.13476 0.90781 0.0
C339 C 0.99001 0.15849 0.85701 0.0
O340 O 0.89702 0.05072 0.84119 0.0
O341 O 0.86983 0.04208 0.8582 0.0
O342 O 0.91107 0.15514 0.82154 0.0
O343 O 0.93638 0.10086 0.82548 0.0
O344 O 0.82777 0.12638 0.83567 0.0
O345 O 0.83705 0.08821 0.84797 0.0
O346 O 0.90688 0.20355 0.85734 0.0
O347 O 0.94969 0.21291 0.842 0.0
O348 O 0.87233 0.08974 0.87666 0.0
O349 O 0.84067 0.13811 0.87178 0.0
O350 O 0.97167 0.1526 0.86631 0.0
O351 O 0.9534 0.14653 0.85083 0.0
H352 H 0.84398 0.11013 0.80674 0.0
H353 H 0.97381 0.08579 0.80626 0.0
H354 H 0.95078 0.05061 0.78882 0.0
H355 H 0.8214 0.07584 0.78917 0.0
H356 H 0.89804 0.09844 0.8954 0.0
H357 H 0.81062 0.17218 0.8876 0.0
H358 H 0.81328 0.19704 0.90566 0.0
H359 H 0.8995 0.1221 0.9134 0.0
Gd360 Gd 0.79544 0.91163 0.69522 0.0
Gd361 Gd 0.78776 0.91926 0.67234 0.0
C362 C 0.87301 1.01912 0.68365 0.0
C363 C 0.82042 0.91387 0.71457 0.0
C364 C 0.82996 0.94129 0.7246 0.0
C365 C 0.79588 0.95596 0.72874 0.0
C366 C 0.87236 0.94924 0.73056 0.0
C367 C 0.84554 0.98393 0.74479 0.0
C368 C 0.88012 0.9703 0.74049 0.0
C369 C 0.80369 0.97719 0.73871 0.0
C370 C 0.72467 0.93895 0.6889 0.0
C371 C 0.72808 0.80496 0.68283 0.0
C372 C 0.75767 0.92422 0.65384 0.0
C373 C 0.73798 0.90116 0.64356 0.0
C374 C 0.76564 0.88601 0.63707 0.0
C375 C 0.69506 0.90208 0.63954 0.0
C376 C 0.71127 0.87906 0.62248 0.0
C377 C 0.68172 0.89097 0.62913 0.0
C378 C 0.75223 0.87484 0.62664 0.0
C379 C 0.86683 0.90602 0.67794 0.0
O380 O 0.8665 0.98879 0.69161 0.0
O381 O 0.83935 1.00268 0.67603 0.0
O382 O 0.77326 0.88854 0.71114 0.0
O383 O 0.85413 0.93588 0.70718 0.0
O384 O 0.71855 0.90961 0.69671 0.0
O385 O 0.76861 0.95401 0.68523 0.0
O386 O 0.73061 0.83423 0.67493 0.0
O387 O 0.75512 0.82635 0.69131 0.0
O388 O 0.80496 0.93722 0.65621 0.0
O389 O 0.72653 0.90881 0.6618 0.0
O390 O 0.8664 0.93104 0.66983 0.0
O391 O 0.82288 0.88376 0.68219 0.0
H392 H 0.76284 0.95041 0.72434 0.0
H393 H 0.89902 0.93794 0.72761 0.0
H394 H 0.9126 0.97462 0.74492 0.0
H395 H 0.77692 0.98831 0.74164 0.0
H396 H 0.79908 0.88513 0.63992 0.0
H397 H 0.67328 0.91394 0.64433 0.0
H398 H 0.6493 0.89351 0.6262 0.0
H399 H 0.7756 0.86561 0.6217 0.0
Gd400 Gd 0.14252 0.89184 0.69645 0.0
Gd401 Gd 0.13871 0.87915 0.67246 0.0
C402 C 0.04081 0.87437 0.6841 0.0
C403 C 0.14042 0.91502 0.71574 0.0
C404 C 0.11225 0.89776 0.72571 0.0
C405 C 0.0977 0.8495 0.73007 0.0
C406 C 0.10325 0.93233 0.73136 0.0
C407 C 0.06719 0.87172 0.74569 0.0
C408 C 0.08108 0.91955 0.74121 0.0
C409 C 0.07538 0.83663 0.73995 0.0
C410 C 0.11638 0.79528 0.68941 0.0
C411 C 0.24901 0.93003 0.68399 0.0
C412 C 0.1259 0.83772 0.65435 0.0
C413 C 0.14436 0.84566 0.64347 0.0
C414 C 0.11427 0.85039 0.63571 0.0
C415 C 0.1883 0.84342 0.64053 0.0
C416 C 0.16999 0.84805 0.62228 0.0
C417 C 0.20109 0.84486 0.63005 0.0
C418 C 0.127 0.85178 0.62528 0.0
C419 C 0.17392 0.97995 0.67703 0.0
O420 O 0.065 0.88369 0.69305 0.0
O421 O 0.05973 0.86744 0.67542 0.0
O422 O 0.16501 0.89219 0.71238 0.0
O423 O 0.11927 0.92744 0.70831 0.0
O424 O 0.14308 0.81678 0.69762 0.0
O425 O 0.10272 0.82526 0.6856 0.0
O426 O 0.22082 0.90002 0.67629 0.0
O427 O 0.22694 0.93825 0.69208 0.0
O428 O 0.10313 0.86288 0.65741 0.0
O429 O 0.15349 0.83264 0.66163 0.0
O430 O 0.16928 0.96225 0.66771 0.0
O431 O 0.16166 0.94319 0.68322 0.0
H432 H 0.10447 0.82214 0.72594 0.0
H433 H 0.11438 0.96989 0.72823 0.0
H434 H 0.075 0.94733 0.74535 0.0
H435 H 0.06592 0.79979 0.74322 0.0
H436 H 0.07976 0.85145 0.63769 0.0
H437 H 0.21222 0.83948 0.64628 0.0
H438 H 0.23505 0.8429 0.62803 0.0
H439 H 0.10198 0.8539 0.61953 0.0
Gd440 Gd 0.16016 0.2572 0.69589 0.0
Gd441 Gd 0.17331 0.26884 0.67189 0.0
C442 C 0.18404 0.17765 0.68309 0.0
C443 C 0.13634 0.22937 0.71506 0.0
C444 C 0.15365 0.21725 0.72487 0.0
C445 C 0.20222 0.25008 0.72921 0.0
C446 C 0.11888 0.17326 0.7304 0.0
C447 C 0.18029 0.19512 0.74449 0.0
C448 C 0.13192 0.16237 0.74008 0.0
C449 C 0.21532 0.23916 0.73893 0.0
C450 C 0.25688 0.32954 0.68908 0.0
C451 C 0.1215 0.32656 0.68381 0.0
C452 C 0.21304 0.29953 0.65373 0.0
C453 C 0.20257 0.31018 0.64308 0.0
C454 C 0.16614 0.27072 0.63675 0.0
C455 C 0.23378 0.35901 0.63874 0.0
C456 C 0.19551 0.32766 0.6218 0.0
C457 C 0.23009 0.36775 0.62823 0.0
C458 C 0.16269 0.2794 0.62623 0.0
C459 C 0.07264 0.20203 0.6766 0.0
O460 O 0.17085 0.18934 0.69203 0.0
O461 O 0.19155 0.20563 0.67468 0.0
O462 O 0.15924 0.27717 0.71195 0.0
O463 O 0.12403 0.19681 0.70745 0.0
O464 O 0.23482 0.33299 0.69739 0.0
O465 O 0.22726 0.28644 0.68503 0.0
O466 O 0.1521 0.32947 0.67611 0.0
O467 O 0.11327 0.29547 0.69178 0.0
O468 O 0.18963 0.25145 0.65672 0.0
O469 O 0.21809 0.33153 0.66114 0.0
O470 O 0.0898 0.21498 0.66724 0.0
O471 O 0.10984 0.2265 0.68263 0.0
H472 H 0.22978 0.28447 0.72516 0.0
H473 H 0.08094 0.14772 0.72732 0.0
H474 H 0.10347 0.12885 0.74422 0.0
H475 H 0.25288 0.26518 0.7421 0.0
H476 H 0.14141 0.23259 0.63982 0.0
H477 H 0.26251 0.38998 0.64339 0.0
H478 H 0.25594 0.40532 0.62503 0.0
H479 H 0.13509 0.24801 0.62151 0.0
Gd480 Gd 0.79574 0.59394 0.50588 0.0
Gd481 Gd 0.80018 0.58403 0.52866 0.0
C482 C 0.90799 0.65476 0.517 0.0
C483 C 0.7924 0.62288 0.48712 0.0
C484 C 0.81482 0.63601 0.47655 0.0
C485 C 0.79158 0.59981 0.46859 0.0
C486 C 0.85407 0.68578 0.47395 0.0
C487 C 0.84364 0.6635 0.4556 0.0
C488 C 0.86856 0.69926 0.46359 0.0
C489 C 0.80586 0.61328 0.45828 0.0
C490 C 0.8128 0.51654 0.51125 0.0
C491 C 0.69488 0.50766 0.51666 0.0
C492 C 0.79551 0.55707 0.54798 0.0
C493 C 0.76843 0.54683 0.55813 0.0
C494 C 0.77016 0.58647 0.56421 0.0
C495 C 0.74536 0.49709 0.56234 0.0
C496 C 0.72892 0.52716 0.57866 0.0
C497 C 0.72571 0.48734 0.57243 0.0
C498 C 0.75036 0.57665 0.57433 0.0
C499 C 0.77477 0.65628 0.5224 0.0
O500 O 0.87955 0.65397 0.5091 0.0
O501 O 0.88567 0.62469 0.52509 0.0
O502 O 0.77173 0.57501 0.49003 0.0
O503 O 0.81411 0.65536 0.49474 0.0
O504 O 0.78921 0.51757 0.50299 0.0
O505 O 0.83174 0.55935 0.51584 0.0
O506 O 0.72472 0.51276 0.52458 0.0
O507 O 0.71173 0.54305 0.50937 0.0
O508 O 0.82247 0.60439 0.5447 0.0
O509 O 0.77287 0.52445 0.54047 0.0
O510 O 0.80342 0.66105 0.53024 0.0
O511 O 0.75904 0.6125 0.51858 0.0
H512 H 0.76062 0.56137 0.47028 0.0
H513 H 0.87254 0.71477 0.47986 0.0
H514 H 0.89861 0.73799 0.46183 0.0
H515 H 0.78558 0.58483 0.45236 0.0
H516 H 0.78802 0.62536 0.56128 0.0
H517 H 0.74375 0.46577 0.55791 0.0
H518 H 0.70843 0.44853 0.57539 0.0
H519 H 0.75341 0.60822 0.57889 0.0
Gd520 Gd 0.4485 0.20588 0.50503 0.0
Gd521 Gd 0.46009 0.22211 0.52912 0.0
C522 C 0.38921 0.25689 0.51648 0.0
C523 C 0.41781 0.1633 0.48713 0.0
C524 C 0.40594 0.17128 0.4764 0.0
C525 C 0.44135 0.17946 0.4685 0.0
C526 C 0.35803 0.16571 0.47371 0.0
C527 C 0.38061 0.17393 0.45542 0.0
C528 C 0.34559 0.16723 0.46333 0.0
C529 C 0.42897 0.18102 0.45816 0.0
C530 C 0.51407 0.30712 0.50937 0.0
C531 C 0.54007 0.19738 0.51661 0.0
C532 C 0.4875 0.24864 0.54818 0.0
C533 C 0.49595 0.23077 0.55828 0.0
C534 C 0.46074 0.18259 0.56246 0.0
C535 C 0.53901 0.26439 0.56415 0.0
C536 C 0.51079 0.2031 0.5784 0.0
C537 C 0.54642 0.25075 0.57407 0.0
C538 C 0.46814 0.16887 0.57242 0.0
C539 C 0.3889 0.12485 0.52258 0.0
O540 O 0.38663 0.22535 0.50904 0.0
O541 O 0.42103 0.26745 0.52442 0.0
O542 O 0.46619 0.18876 0.48993 0.0
O543 O 0.38591 0.15827 0.49459 0.0
O544 O 0.50164 0.28903 0.50007 0.0
O545 O 0.48977 0.27042 0.51553 0.0
O546 O 0.52909 0.21278 0.52537 0.0
O547 O 0.51136 0.18768 0.50824 0.0
O548 O 0.44019 0.22908 0.54489 0.0
O549 O 0.52016 0.2564 0.54076 0.0
O550 O 0.38505 0.14616 0.53096 0.0
O551 O 0.43188 0.15492 0.51857 0.0
H552 H 0.47827 0.1831 0.47027 0.0
H553 H 0.32969 0.15902 0.47959 0.0
H554 H 0.3083 0.16246 0.46147 0.0
H555 H 0.45664 0.18584 0.45227 0.0
H556 H 0.42724 0.15578 0.5581 0.0
H557 H 0.56656 0.30186 0.56114 0.0
H558 H 0.57953 0.27813 0.57845 0.0
H559 H 0.44053 0.13144 0.57542 0.0
Gd560 Gd 0.83872 0.24249 0.5057 0.0
Gd561 Gd 0.82512 0.24024 0.52985 0.0
C562 C 0.78796 0.13325 0.51755 0.0
C563 C 0.88208 0.25416 0.48786 0.0
C564 C 0.87659 0.23383 0.47727 0.0
C565 C 0.82878 0.20822 0.47225 0.0
C566 C 0.92113 0.2452 0.47172 0.0
C567 C 0.87093 0.20923 0.45604 0.0
C568 C 0.91837 0.23299 0.46124 0.0
C569 C 0.82597 0.19587 0.46174 0.0
C570 C 0.73784 0.20773 0.51039 0.0
C571 C 0.84426 0.34161 0.5169 0.0
C572 C 0.80076 0.24332 0.54901 0.0
C573 C 0.8187 0.27065 0.55903 0.0
C574 C 0.86434 0.27905 0.5638 0.0
C575 C 0.78695 0.28486 0.56434 0.0
C576 C 0.84489 0.31372 0.57915 0.0
C577 C 0.7998 0.30605 0.57425 0.0
C578 C 0.87728 0.30038 0.57375 0.0
C579 C 0.92223 0.26716 0.52289 0.0
O580 O 0.81829 0.16109 0.50984 0.0
O581 O 0.77931 0.15555 0.52555 0.0
O582 O 0.85336 0.27402 0.49032 0.0
O583 O 0.88847 0.22905 0.49547 0.0
O584 O 0.75522 0.21191 0.50103 0.0
O585 O 0.77495 0.22031 0.51648 0.0
O586 O 0.83239 0.31707 0.52588 0.0
O587 O 0.85342 0.3225 0.50848 0.0
O588 O 0.82068 0.21582 0.54576 0.0
O589 O 0.79157 0.26677 0.54152 0.0
O590 O 0.90181 0.24234 0.53136 0.0
O591 O 0.89121 0.27908 0.51896 0.0
H592 H 0.79384 0.19901 0.47639 0.0
H593 H 0.95844 0.2653 0.47541 0.0
H594 H 0.95373 0.24399 0.45709 0.0
H595 H 0.7887 0.17652 0.45803 0.0
H596 H 0.88947 0.26816 0.55995 0.0
H597 H 0.75139 0.2785 0.56088 0.0
H598 H 0.77414 0.31616 0.57814 0.0
H599 H 0.91188 0.30498 0.57733 0.0
Gd600 Gd 0.94548 0.45998 0.69507 0.0
Gd601 Gd 0.9352 0.46385 0.67099 0.0
C602 C 1.00591 0.56995 0.68346 0.0
C603 C 0.97738 0.44858 0.71287 0.0
C604 C 0.99379 0.46885 0.72345 0.0
C605 C 0.96215 0.47798 0.7301 0.0
C606 C 0.03908 0.47269 0.72739 0.0
C607 C 1.01824 0.48895 0.74465 0.0
C608 C 0.0513 0.48281 0.73786 0.0
C609 C 0.97441 0.48814 0.7406 0.0
C610 C 0.87946 0.49521 0.69047 0.0
C611 C 0.85469 0.35969 0.68356 0.0
C612 C 0.90862 0.4621 0.65182 0.0
C613 C 0.8995 0.43527 0.64175 0.0
C614 C 0.93524 0.42355 0.63735 0.0
C615 C 0.85548 0.4246 0.63606 0.0
C616 C 0.88382 0.39292 0.62158 0.0
C617 C 0.84765 0.40361 0.62613 0.0
C618 C 0.9274 0.40249 0.62738 0.0
C619 C 1.00519 0.4363 0.67788 0.0
O620 O 1.00749 0.54114 0.69105 0.0
O621 O 0.97468 0.54862 0.67545 0.0
O622 O 0.9287 0.42928 0.71052 0.0
O623 O 1.00871 0.47255 0.70515 0.0
O624 O 0.89189 0.48986 0.69981 0.0
O625 O 0.90425 0.48295 0.68437 0.0
O626 O 0.86608 0.38576 0.67475 0.0
O627 O 0.8828 0.37895 0.69198 0.0
O628 O 0.95597 0.4889 0.65514 0.0
O629 O 0.87557 0.43851 0.65925 0.0
O630 O 1.01007 0.46203 0.66952 0.0
O631 O 0.96206 0.42416 0.68176 0.0
H632 H 0.9269 0.47522 0.7273 0.0
H633 H 0.06403 0.46567 0.72245 0.0
H634 H 0.08588 0.48426 0.74072 0.0
H635 H 0.9483 0.49285 0.74565 0.0
H636 H 0.96953 0.43123 0.64154 0.0
H637 H 0.82751 0.43359 0.63923 0.0
H638 H 0.81379 0.39697 0.6219 0.0
H639 H 0.95549 0.39369 0.62422 0.0
Gd640 Gd 0.59687 0.49761 0.6948 0.0
Gd641 Gd 0.59006 0.47855 0.67057 0.0
C642 C 0.48314 0.44362 0.68367 0.0
C643 C 0.60038 0.53377 0.71317 0.0
C644 C 0.57936 0.52155 0.72385 0.0
C645 C 0.59721 0.49857 0.73096 0.0
C646 C 0.54676 0.53922 0.72745 0.0
C647 C 0.55293 0.51402 0.74507 0.0
C648 C 0.53355 0.53535 0.73793 0.0
C649 C 0.58419 0.49491 0.74142 0.0
C650 C 0.58515 0.40591 0.68918 0.0
C651 C 0.69617 0.51229 0.68286 0.0
C652 C 0.58471 0.44368 0.652 0.0
C653 C 0.60907 0.4588 0.64163 0.0
C654 C 0.63043 0.50919 0.63781 0.0
C655 C 0.60934 0.4212 0.63526 0.0
C656 C 0.65183 0.48374 0.6214 0.0
C657 C 0.63025 0.43339 0.62529 0.0
C658 C 0.65142 0.52147 0.6278 0.0
C659 C 0.62816 0.58178 0.67514 0.0
O660 O 0.51116 0.46426 0.69211 0.0
O661 O 0.50462 0.44239 0.67474 0.0
O662 O 0.62905 0.51483 0.71013 0.0
O663 O 0.57183 0.53585 0.70575 0.0
O664 O 0.60581 0.42919 0.69778 0.0
O665 O 0.56511 0.42886 0.68459 0.0
O666 O 0.66581 0.48466 0.67518 0.0
O667 O 0.6799 0.53277 0.68993 0.0
O668 O 0.55762 0.46434 0.65517 0.0
O669 O 0.61164 0.43864 0.6594 0.0
O670 O 0.62039 0.56308 0.6659 0.0
O671 O 0.61421 0.54414 0.68106 0.0
H672 H 0.62287 0.48503 0.72853 0.0
H673 H 0.53311 0.55795 0.72223 0.0
H674 H 0.51013 0.55126 0.74052 0.0
H675 H 0.59961 0.47815 0.74672 0.0
H676 H 0.63069 0.53899 0.64255 0.0
H677 H 0.5927 0.38197 0.63796 0.0
H678 H 0.62864 0.40301 0.62054 0.0
H679 H 0.66771 0.56061 0.62508 0.0
Gd680 Gd 0.55784 0.107 0.69461 0.0
Gd681 Gd 0.57046 0.11564 0.67047 0.0
C682 C 0.60774 0.04691 0.68308 0.0
C683 C 0.51688 0.07885 0.71278 0.0
C684 C 0.52638 0.06926 0.72362 0.0
C685 C 0.54103 0.1082 0.73106 0.0
C686 C 0.5154 0.0202 0.72693 0.0
C687 C 0.53162 0.04899 0.74486 0.0
C688 C 0.51817 1.01023 0.73743 0.0
C689 C 0.54366 0.09821 0.74152 0.0
C690 C 0.65855 0.1717 0.68977 0.0
C691 C 0.555 0.20103 0.68288 0.0
C692 C 0.59419 0.14032 0.65119 0.0
C693 C 0.57586 0.14856 0.64111 0.0
C694 C 0.53104 0.11016 0.63631 0.0
C695 C 0.60654 0.1947 0.63577 0.0
C696 C 0.54922 0.16356 0.62089 0.0
C697 C 0.59345 0.20213 0.62581 0.0
C698 C 0.51787 0.11762 0.6263 0.0
C699 C 0.47384 0.04617 0.67765 0.0
O700 O 0.57782 0.04523 0.6908 0.0
O701 O 0.61626 0.0773 0.67499 0.0
O702 O 0.54115 0.12655 0.70957 0.0
O703 O 0.51175 0.04597 0.70555 0.0
O704 O 0.64145 0.15929 0.69916 0.0
O705 O 0.62136 0.14696 0.68372 0.0
O706 O 0.56431 0.18607 0.67393 0.0
O707 O 0.54708 0.17478 0.69156 0.0
O708 O 0.5742 0.09337 0.65471 0.0
O709 O 0.60388 0.17399 0.65848 0.0
O710 O 0.49417 0.04092 0.66926 0.0
O711 O 0.5046 0.08955 0.68141 0.0
H712 H 0.54902 0.14623 0.72885 0.0
H713 H 0.50309 0.98905 0.72145 0.0
H714 H 0.50776 0.97165 0.73977 0.0
H715 H 0.55424 0.12891 0.74704 0.0
H716 H 0.50677 0.07397 0.64017 0.0
H717 H 0.64148 0.22478 0.63924 0.0
H718 H 0.61826 0.23807 0.6219 0.0
H719 H 0.48397 0.08681 0.6227 0.0
Gd720 Gd 0.58877 0.11803 0.17061 0.0
Gd721 Gd 0.59766 0.10957 0.19491 0.0
C722 C 0.69557 0.19363 0.18258 0.0
C723 C 0.58379 0.14669 0.15194 0.0
C724 C 0.60974 0.15645 0.14173 0.0
C725 C 0.63256 0.12823 0.13822 0.0
C726 C 0.61054 0.19424 0.13524 0.0
C727 C 0.65517 0.17469 0.12176 0.0
C728 C 0.63297 0.20332 0.12541 0.0
C729 C 0.65505 0.13728 0.12835 0.0
C730 C 0.62913 0.05526 0.17552 0.0
C731 C 0.48309 0.0474 0.18402 0.0
C732 C 0.60343 0.07836 0.21325 0.0
C733 C 0.58016 0.06015 0.22354 0.0
C734 C 0.55017 0.07807 0.22834 0.0
C735 C 0.59347 0.02857 0.22913 0.0
C736 C 0.55104 0.03643 0.24449 0.0
C737 C 0.57908 1.0168 0.23947 0.0
C738 C 0.53554 0.06611 0.23872 0.0
C739 C 0.58443 0.18777 0.1886 0.0
O740 O 0.66429 0.18813 0.17487 0.0
O741 O 0.68064 0.15943 0.19016 0.0
O742 O 0.5575 0.0989 0.15513 0.0
O743 O 0.60917 0.17905 0.15939 0.0
O744 O 0.61946 0.06389 0.16624 0.0
O745 O 0.61545 0.07964 0.18133 0.0
O746 O 0.51155 0.05679 0.19249 0.0
O747 O 0.50394 0.06834 0.17494 0.0
O748 O 0.61928 0.12632 0.21091 0.0
O749 O 0.5845 0.04721 0.20536 0.0
O750 O 0.60812 0.18828 0.19701 0.0
O751 O 0.56379 0.14364 0.18448 0.0
H752 H 0.63286 0.09909 0.14309 0.0
H753 H 0.59323 0.21653 0.13775 0.0
H754 H 0.63211 0.23226 0.12057 0.0
H755 H 0.67275 0.11527 0.12592 0.0
H756 H 0.53939 0.10249 0.22418 0.0
H757 H 0.61693 1.01467 0.2256 0.0
H758 H 0.59185 0.99405 0.24367 0.0
H759 H 0.5129 0.08084 0.24228 0.0
Gd760 Gd 0.93718 0.4832 0.17063 0.0
Gd761 Gd 0.94603 0.49403 0.19472 0.0
C762 C 0.85558 0.50478 0.18336 0.0
C763 C 0.9112 0.46195 0.15129 0.0
C764 C 0.89904 0.47834 0.14135 0.0
C765 C 0.93283 0.52524 0.13651 0.0
C766 C 0.85336 0.44396 0.13626 0.0
C767 C 0.87514 0.5025 0.12163 0.0
C768 C 0.84163 0.45571 0.12654 0.0
C769 C 0.92099 0.53714 0.12675 0.0
C770 C 1.00853 0.57878 0.17791 0.0
C771 C 1.00456 0.44284 0.18288 0.0
C772 C 0.97724 0.53497 0.21274 0.0
C773 C 0.99241 0.52865 0.22327 0.0
C774 C 0.96313 0.48358 0.22905 0.0
C775 C 0.03369 0.57101 0.22805 0.0
C776 C 1.0145 0.52477 0.2444 0.0
C777 C 0.04459 0.56919 0.23849 0.0
C778 C 0.97403 0.48173 0.23952 0.0
C779 C 0.87896 0.3939 0.18971 0.0
O780 O 0.86892 0.49328 0.17443 0.0
O781 O 0.88257 0.51176 0.1919 0.0
O782 O 0.95881 0.48442 0.15452 0.0
O783 O 0.87832 0.45012 0.15881 0.0
O784 O 1.01349 0.55759 0.16963 0.0
O785 O 0.96472 0.5489 0.18169 0.0
O786 O 1.00647 0.4724 0.19068 0.0
O787 O 0.97461 0.43563 0.17476 0.0
O788 O 0.92868 0.5066 0.21022 0.0
O789 O 1.00893 0.54272 0.20506 0.0
O790 O 0.89154 0.41028 0.19913 0.0
O791 O 0.90445 0.43144 0.18375 0.0
H792 H 0.96852 0.55243 0.14021 0.0
H793 H 0.82698 0.4072 0.13972 0.0
H794 H 0.80674 0.42744 0.12275 0.0
H795 H 0.94769 0.5735 0.12319 0.0
H796 H 0.93086 0.45037 0.22558 0.0
H797 H 0.05633 0.60643 0.2238 0.0
H798 H 0.0752 0.60345 0.24203 0.0
H799 H 0.95018 0.44695 0.24386 0.0
Gd800 Gd 0.56986 0.46444 0.17025 0.0
Gd801 Gd 0.55613 0.45732 0.19435 0.0
C802 C 0.55515 0.36273 0.18239 0.0
C803 C 0.59362 0.46274 0.15099 0.0
C804 C 0.5754 0.43963 0.14066 0.0
C805 C 0.52934 0.43218 0.13629 0.0
C806 C 0.60662 0.42644 0.13488 0.0
C807 C 0.54677 0.39931 0.12043 0.0
C808 C 0.59256 0.40659 0.12491 0.0
C809 C 0.51515 0.41218 0.12626 0.0
C810 C 0.47232 0.43496 0.17734 0.0
C811 C 0.60871 0.56945 0.18322 0.0
C812 C 0.51232 0.44408 0.21219 0.0
C813 C 0.51654 0.46371 0.22284 0.0
C814 C 0.56019 0.47786 0.229 0.0
C815 C 0.4734 0.46246 0.22732 0.0
C816 C 0.51534 0.48435 0.24414 0.0
C817 C 0.47283 0.47282 0.23783 0.0
C818 C 0.55964 0.4883 0.23955 0.0
C819 C 0.65706 0.49302 0.18968 0.0
O820 O 0.5692 0.39045 0.17382 0.0
O821 O 0.54268 0.37791 0.19096 0.0
O822 O 0.57939 0.49437 0.15461 0.0
O823 O 0.59606 0.43332 0.15811 0.0
O824 O 0.49273 0.46155 0.16905 0.0
O825 O 0.50354 0.42272 0.18103 0.0
O826 O 0.57891 0.54037 0.1909 0.0
O827 O 0.61638 0.54837 0.1749 0.0
O828 O 0.54176 0.42506 0.20968 0.0
O829 O 0.50504 0.46868 0.20459 0.0
O830 O 0.63922 0.48664 0.19904 0.0
O831 O 0.62024 0.48186 0.18356 0.0
H832 H 0.50464 0.44224 0.14057 0.0
H833 H 0.64239 0.43195 0.13807 0.0
H834 H 0.61759 0.39674 0.1207 0.0
H835 H 0.48001 0.40778 0.12299 0.0
H836 H 0.59404 0.47908 0.22576 0.0
H837 H 0.43925 0.45156 0.22276 0.0
H838 H 0.43855 0.47056 0.24109 0.0
H839 H 0.59303 0.49726 0.2442 0.0
Gd840 Gd 0.45701 0.23846 0.0298 0.0
Gd841 Gd 0.44959 0.246 1.00583 0.0
C842 C 0.54312 0.34129 0.01781 0.0
C843 C 0.48111 0.23887 0.04909 0.0
C844 C 0.48923 0.26682 0.05897 0.0
C845 C 0.45303 0.27894 0.06298 0.0
C846 C 0.53332 0.27924 0.06479 0.0
C847 C 0.50442 0.31388 0.07862 0.0
C848 C 0.54091 0.30256 0.07447 0.0
C849 C 0.4606 0.30228 0.0727 0.0
C850 C 0.38772 0.26674 0.02306 0.0
C851 C 0.38797 0.13428 0.01683 0.0
C852 C 0.42015 0.25934 0.98788 0.0
C853 C 0.40691 0.23863 0.9772 0.0
C854 C 0.44567 0.24917 0.96989 0.0
C855 C 0.3555 0.21357 0.97388 0.0
C856 C 0.38209 0.21226 0.95612 0.0
C857 C 0.34323 0.20047 0.96347 0.0
C858 C 0.4334 0.2362 0.95949 0.0
C859 C 0.51383 0.20878 1.01033 0.0
O860 O 0.52812 0.31519 0.02658 0.0
O861 O 0.51692 0.32451 1.0091 0.0
O862 O 0.43418 0.21228 0.04554 0.0
O863 O 0.5151 0.26203 0.04179 0.0
O864 O 0.3821 0.23907 0.03113 0.0
O865 O 0.4314 0.28042 0.01922 0.0
O866 O 0.38734 0.16402 1.00932 0.0
O867 O 0.41826 0.15453 0.02499 0.0
O868 O 0.46839 0.28047 0.99069 0.0
O869 O 0.38784 0.23392 0.99538 0.0
O870 O 0.50216 0.21515 1.00099 0.0
O871 O 0.48879 0.22053 1.01645 0.0
H872 H 0.41872 0.27001 0.05865 0.0
H873 H 0.56166 0.27007 0.06191 0.0
H874 H 0.57493 0.3107 0.07882 0.0
H875 H 0.43223 0.31137 0.07558 0.0
H876 H 0.48579 0.2692 0.97211 0.0
H877 H 0.32478 0.20554 0.97926 0.0
H878 H 0.30331 0.18199 0.96114 0.0
H879 H 0.46443 0.24699 0.95402 0.0
Gd880 Gd 0.80571 0.23005 0.03046 0.0
Gd881 Gd 0.80232 0.21238 1.0053 0.0
C882 C 0.70162 0.20005 0.01732 0.0
C883 C 0.80889 0.26281 0.04912 0.0
C884 C 0.78416 0.24538 0.05946 0.0
C885 C 0.78584 0.20605 0.06504 0.0
C886 C 0.76066 0.27071 0.06409 0.0
C887 C 0.74149 0.21839 0.0797 0.0
C888 C 0.73964 0.25744 0.07405 0.0
C889 C 0.76483 0.19279 0.07503 0.0
C890 C 0.77136 0.12851 0.0251 0.0
C891 C 0.91276 0.26603 0.01712 0.0
C892 C 0.79229 0.17038 0.98739 0.0
C893 C 0.81087 0.17988 0.97653 0.0
C894 C 0.7947 0.20472 0.96952 0.0
C895 C 0.84 0.15852 0.97278 0.0
C896 C 0.83441 0.18454 0.95521 0.0
C897 C 0.85178 0.16095 0.96226 0.0
C898 C 0.80629 0.20694 0.95899 0.0
C899 C 0.83104 0.31159 1.01028 0.0
O900 O 0.72926 0.22206 0.02573 0.0
O901 O 0.71975 0.18532 1.00949 0.0
O902 O 0.83908 0.24588 0.0458 0.0
O903 O 0.78098 0.26656 0.04176 0.0
O904 O 0.77696 0.14523 0.0345 0.0
O905 O 0.78539 0.16725 0.01945 0.0
O906 O 0.88525 0.23903 1.00904 0.0
O907 O 0.89092 0.27107 0.0257 0.0
O908 O 0.76462 0.19051 0.9905 0.0
O909 O 0.82287 0.16988 0.99458 0.0
O910 O 0.82752 0.29519 1.00085 0.0
O911 O 0.8198 0.27418 1.0162 0.0
H912 H 0.80398 0.18595 0.06177 0.0
H913 H 0.75905 0.30139 0.06004 0.0
H914 H 0.72181 0.27784 0.07733 0.0
H915 H 0.76797 0.16326 0.0792 0.0
H916 H 0.7717 0.22115 0.97209 0.0
H917 H 0.85218 0.13827 0.97794 0.0
H918 H 0.87263 0.14242 0.95957 0.0
H919 H 0.79242 0.22543 0.95376 0.0
Gd920 Gd 0.81875 0.58576 0.03003 0.0
Gd921 Gd 0.83907 0.59756 1.0058 0.0
C922 C 0.85246 0.51281 0.01801 0.0
C923 C 0.78384 0.55721 0.04861 0.0
C924 C 0.80036 0.55011 0.05902 0.0
C925 C 0.84588 0.58805 0.0637 0.0
C926 C 0.76856 0.50505 0.06458 0.0
C927 C 0.82602 0.5367 0.07948 0.0
C928 C 0.78126 0.49832 0.07465 0.0
C929 C 0.85861 0.58134 0.0738 0.0
C930 C 0.92201 0.65136 0.02558 0.0
C931 C 0.78313 0.65604 1.0165 0.0
C932 C 0.87888 0.62974 0.98767 0.0
C933 C 0.87529 0.64894 0.97739 0.0
C934 C 0.82787 0.63318 0.97255 0.0
C935 C 0.92079 0.67896 0.97185 0.0
C936 C 0.87189 0.67369 0.95644 0.0
C937 C 0.91917 0.69123 0.9615 0.0
C938 C 0.82621 0.64567 0.96217 0.0
C939 C 0.74759 0.51716 1.0116 0.0
O940 O 0.82491 0.51612 0.02564 0.0
O941 O 0.873 0.54889 1.0108 0.0
O942 O 0.80243 0.60435 0.04521 0.0
O943 O 0.77975 0.52492 0.04137 0.0
O944 O 0.90281 0.64076 0.03479 0.0
O945 O 0.88471 0.6268 0.01963 0.0
O946 O 0.80445 0.64916 1.00809 0.0
O947 O 0.78231 0.634 0.02549 0.0
O948 O 0.84574 0.5818 0.98982 0.0
O949 O 0.89071 0.66034 0.99566 0.0
O950 O 0.77193 0.51862 1.0032 0.0
O951 O 0.76994 0.56074 1.01595 0.0
H952 H 0.87135 0.62318 0.05961 0.0
H953 H 0.73339 0.47509 0.06116 0.0
H954 H 0.75594 0.46288 0.07866 0.0
H955 H 0.89343 0.61161 0.07726 0.0
H956 H 0.79221 0.60996 0.97669 0.0
H957 H 0.95777 0.69117 0.9754 0.0
H958 H 0.95505 0.71265 0.95733 0.0
H959 H 0.78917 0.63261 0.95858 0.0
Gd960 Gd 0.46843 0.92944 0.83926 0.0
Gd961 Gd 0.47332 0.92334 0.8621 0.0
C962 C 0.58129 0.99271 0.85027 0.0
C963 C 0.46491 0.95791 0.82048 0.0
C964 C 0.489 0.97482 0.81012 0.0
C965 C 0.48673 0.93888 0.80287 0.0
C966 C 0.5066 0.02544 0.80682 0.0
C967 C 0.51537 1.00286 0.78912 0.0
C968 C 0.51975 0.03932 0.79646 0.0
C969 C 0.49969 0.95271 0.79251 0.0
C970 C 0.48773 0.85435 0.84519 0.0
C971 C 0.36903 0.84136 0.85026 0.0
C972 C 0.46883 0.89926 0.8816 0.0
C973 C 0.44214 0.89034 0.89175 0.0
C974 C 0.44218 0.93031 0.89742 0.0
C975 C 0.42101 0.84164 0.89638 0.0
C976 C 0.40323 0.87349 0.9123 0.0
C977 C 0.40172 0.83328 0.90648 0.0
C978 C 0.42263 0.92186 0.90755 0.0
C979 C 0.44442 0.99209 0.85518 0.0
O980 O 0.55265 0.98986 0.84222 0.0
O981 O 0.55908 0.96461 0.8586 0.0
O982 O 0.4489 0.91046 0.82324 0.0
O983 O 0.48193 0.99006 0.82826 0.0
O984 O 0.46421 0.85388 0.83679 0.0
O985 O 0.50569 0.89758 0.8496 0.0
O986 O 0.39911 0.85009 0.85834 0.0
O987 O 0.3848 0.87417 0.84249 0.0
O988 O 0.49583 0.9461 0.87806 0.0
O989 O 0.44581 0.86564 0.87427 0.0
O990 O 0.47364 0.99925 0.86306 0.0
O991 O 0.43024 0.94801 0.85168 0.0
H992 H 0.47248 0.89927 0.80506 0.0
H993 H 0.50802 0.05386 0.81215 0.0
H994 H 0.53188 0.07834 0.79412 0.0
H995 H 0.49475 0.92331 0.78706 0.0
H996 H 0.45848 0.96844 0.89414 0.0
H997 H 0.42069 0.81012 0.89226 0.0
H998 H 0.38606 0.79527 0.90979 0.0
H999 H 0.42427 0.95365 0.9118 0.0
Gd1000 Gd 0.11525 0.54039 0.83897 0.0
Gd1001 Gd 0.12795 0.55739 0.86408 0.0
C1002 C 0.05935 0.59578 0.85063 0.0
C1003 C 0.08209 0.49486 0.82142 0.0
C1004 C 0.06832 0.49952 0.81068 0.0
C1005 C 0.09757 0.54408 0.80476 0.0
C1006 C 1.02801 0.45616 0.80595 0.0
C1007 C 0.04914 0.49987 0.78933 0.0
C1008 C 1.01844 0.45632 0.7954 0.0
C1009 C 0.08786 0.5443 0.79416 0.0
C1010 C 0.18638 0.63956 0.84384 0.0
C1011 C 0.20561 0.53237 0.85096 0.0
C1012 C 0.15771 0.58881 0.8828 0.0
C1013 C 0.16296 0.572 0.8933 0.0
C1014 C 0.1224 0.53 0.89842 0.0
C1015 C 0.21053 0.59952 0.89833 0.0
C1016 C 0.1774 0.54382 0.91344 0.0
C1017 C 0.21772 0.5856 0.90823 0.0
C1018 C 0.12957 0.51609 0.9084 0.0
C1019 C 0.06125 0.4559 0.85857 0.0
O1020 O 0.06051 0.56951 0.84247 0.0
O1021 O 0.08494 0.59943 0.85933 0.0
O1022 O 0.13092 0.52086 0.82392 0.0
O1023 O 0.05116 0.49215 0.82887 0.0
O1024 O 0.17317 0.62278 0.83444 0.0
O1025 O 0.15949 0.60261 0.84988 0.0
O1026 O 0.19842 0.55343 0.85933 0.0
O1027 O 0.17268 0.51583 0.84315 0.0
O1028 O 0.11176 0.57625 0.87935 0.0
O1029 O 0.18755 0.58682 0.87568 0.0
O1030 O 0.0711 0.47265 0.86797 0.0
O1031 O 0.08698 0.4947 0.853 0.0
H1032 H 0.12894 0.57806 0.80823 0.0
H1033 H 1.00499 0.42137 0.81036 0.0
H1034 H 0.98772 0.42186 0.79193 0.0
H1035 H 0.11198 0.57843 0.78967 0.0
H1036 H 0.08535 0.50786 0.89472 0.0
H1037 H 0.24239 0.63213 0.89458 0.0
H1038 H 0.25489 0.60804 0.91188 0.0
H1039 H 0.09792 0.48319 0.91211 0.0
Gd1040 Gd 0.5059 0.58174 0.83952 0.0
Gd1041 Gd 0.49369 0.57414 0.86225 0.0
C1042 C 0.45513 0.46781 0.85002 0.0
C1043 C 0.53701 0.58588 0.82064 0.0
C1044 C 0.52796 0.56164 0.81027 0.0
C1045 C 0.49911 0.57057 0.80284 0.0
C1046 C 0.55466 0.53659 0.80715 0.0
C1047 C 0.52653 0.53301 0.78933 0.0
C1048 C 0.55383 0.52233 0.79682 0.0
C1049 C 0.49846 0.55651 0.79252 0.0
C1050 C 0.41181 0.56366 0.84551 0.0
C1051 C 0.52046 0.6809 0.85095 0.0
C1052 C 0.47385 0.57696 0.88177 0.0
C1053 C 0.49266 0.60608 0.89162 0.0
C1054 C 0.536 0.6109 0.89683 0.0
C1055 C 0.46342 0.62481 0.89646 0.0
C1056 C 0.51908 0.65084 0.91164 0.0
C1057 C 0.47641 0.64685 0.90632 0.0
C1058 C 0.54905 0.63306 0.90671 0.0
C1059 C 0.59113 0.60117 0.8555 0.0
O1060 O 0.48142 0.49742 0.84212 0.0
O1061 O 0.44891 0.4889 0.85847 0.0
O1062 O 0.50683 0.60314 0.8236 0.0
O1063 O 0.55173 0.5677 0.8283 0.0
O1064 O 0.43559 0.58849 0.83726 0.0
O1065 O 0.43616 0.54407 0.84968 0.0
O1066 O 0.49846 0.65065 0.85898 0.0
O1067 O 0.53683 0.66504 0.84309 0.0
O1068 O 0.49686 0.55307 0.87816 0.0
O1069 O 0.45895 0.59655 0.87446 0.0
O1070 O 0.56738 0.57047 0.8631 0.0
O1071 O 0.56268 0.6174 0.85205 0.0
H1072 H 0.47892 0.59073 0.80488 0.0
H1073 H 0.57795 0.52986 0.81261 0.0
H1074 H 0.5758 0.50419 0.79463 0.0
H1075 H 0.47806 0.56654 0.78695 0.0
H1076 H 0.55909 0.59636 0.89341 0.0
H1077 H 0.42951 0.62118 0.89272 0.0
H1078 H 0.45262 0.66036 0.90984 0.0
H1079 H 0.58165 0.63466 0.91063 0.0
Gd1080 Gd 0.60746 0.79093 0.0266 0.0
Gd1081 Gd 0.60472 0.8017 1.00369 0.0
C1082 C 0.67327 0.90642 1.01649 0.0
C1083 C 0.6348 0.78297 0.04522 0.0
C1084 C 0.654 0.80499 0.05562 0.0
C1085 C 0.62747 0.82198 0.06198 0.0
C1086 C 0.6953 0.80167 0.05984 0.0
C1087 C 0.68076 0.82789 0.07675 0.0
C1088 C 0.70852 0.81295 0.07026 0.0
C1089 C 0.64076 0.83337 0.07243 0.0
C1090 C 0.53439 0.81293 0.02066 0.0
C1091 C 0.51891 0.69642 1.01463 0.0
C1092 C 0.5832 0.80198 0.98419 0.0
C1093 C 0.57377 0.77492 0.97413 0.0
C1094 C 0.60718 0.75919 0.97009 0.0
C1095 C 0.53193 0.76797 0.9681 0.0
C1096 C 0.55784 0.73185 0.954 0.0
C1097 C 0.52399 0.74667 0.9582 0.0
C1098 C 0.5992 0.73777 0.96014 0.0
C1099 C 0.67052 0.76859 1.01042 0.0
O1100 O 0.6681 0.87583 0.02437 0.0
O1101 O 0.64727 0.88645 1.00785 0.0
O1102 O 0.58817 0.77159 0.04266 0.0
O1103 O 0.6667 0.79825 0.03738 0.0
O1104 O 0.53192 0.78736 0.0289 0.0
O1105 O 0.57841 0.83144 1.01654 0.0
O1106 O 0.5294 0.72877 1.00689 0.0
O1107 O 0.55046 0.70858 0.02256 0.0
O1108 O 0.6299 0.82543 0.9879 0.0
O1109 O 0.54828 0.78048 0.99138 0.0
O1110 O 0.67948 0.79949 1.00275 0.0
O1111 O 0.62622 0.75497 1.01378 0.0
H1112 H 0.59505 0.8244 0.05901 0.0
H1113 H 0.71602 0.78808 0.05517 0.0
H1114 H 0.73966 0.80857 0.07332 0.0
H1115 H 0.61803 0.84397 0.07723 0.0
H1116 H 0.63975 0.76395 0.97455 0.0
H1117 H 0.50579 0.78008 0.97098 0.0
H1118 H 0.4919 0.74295 0.95371 0.0
H1119 H 0.62541 0.72576 0.95727 0.0
Gd1120 Gd 0.25963 0.82496 0.02706 0.0
Gd1121 Gd 0.24962 0.81147 1.00438 0.0
C1122 C 0.14476 0.7752 0.01716 0.0
C1123 C 0.26532 0.85591 0.04598 0.0
C1124 C 0.24232 0.84611 0.0565 0.0
C1125 C 0.25106 0.81579 0.06359 0.0
C1126 C 0.21875 0.87353 0.06007 0.0
C1127 C 0.21678 0.84355 0.07768 0.0
C1128 C 0.20598 0.87214 0.07053 0.0
C1129 C 0.23848 0.81458 0.07403 0.0
C1130 C 0.24046 0.73036 0.02116 0.0
C1131 C 0.35828 0.84118 1.01529 0.0
C1132 C 0.25054 0.79027 0.98487 0.0
C1133 C 0.27926 0.80714 0.97493 0.0
C1134 C 0.29773 0.85672 0.97085 0.0
C1135 C 0.28455 0.77103 0.96898 0.0
C1136 C 0.32551 0.83311 0.95499 0.0
C1137 C 0.30716 0.78371 0.95916 0.0
C1138 C 0.32052 0.8695 0.96099 0.0
C1139 C 0.27739 0.90924 1.01098 0.0
O1140 O 0.17586 0.80248 0.02476 0.0
O1141 O 0.16435 0.76761 1.0086 0.0
O1142 O 0.28395 0.82724 0.0428 0.0
O1143 O 0.24496 0.86932 0.03851 0.0
O1144 O 0.26684 0.75484 0.0292 0.0
O1145 O 0.22048 0.7546 0.01711 0.0
O1146 O 0.32699 0.81695 1.00751 0.0
O1147 O 0.3427 0.85911 0.0229 0.0
O1148 O 0.22924 0.81579 0.98847 0.0
O1149 O 0.26905 0.77418 0.99217 0.0
O1150 O 0.24597 0.88526 1.0035 0.0
O1151 O 0.29385 0.88089 1.01435 0.0
H1152 H 0.26972 0.79464 0.06118 0.0
H1153 H 0.21236 0.89801 0.05488 0.0
H1154 H 0.19008 0.89558 0.0731 0.0
H1155 H 0.2471 0.79203 0.07933 0.0
H1156 H 0.29394 0.88539 0.9752 0.0
H1157 H 0.26996 0.73232 0.97184 0.0
H1158 H 0.30895 0.75419 0.95471 0.0
H1159 H 0.33421 0.90791 0.95805 0.0
Gd1160 Gd 0.22436 0.44301 0.02809 0.0
Gd1161 Gd 0.23897 0.44892 1.00385 0.0
C1162 C 0.27476 0.37913 0.01728 0.0
C1163 C 0.19119 0.41495 0.04679 0.0
C1164 C 0.20269 0.40424 0.05735 0.0
C1165 C 0.22937 0.44454 0.06441 0.0
C1166 C 0.18039 0.35338 0.06093 0.0
C1167 C 0.20799 0.38344 0.0785 0.0
C1168 C 0.18316 0.34308 0.07138 0.0
C1169 C 0.23195 0.43422 0.07485 0.0
C1170 C 0.31565 0.52026 0.02139 0.0
C1171 C 0.20696 0.52374 1.01561 0.0
C1172 C 0.27085 0.47547 0.98504 0.0
C1173 C 0.25327 0.4841 0.97491 0.0
C1174 C 0.20255 0.4531 0.9714 0.0
C1175 C 0.28867 0.52359 0.96849 0.0
C1176 C 0.22355 0.50058 0.95509 0.0
C1177 C 0.27408 0.53172 0.95871 0.0
C1178 C 0.18789 0.46119 0.96158 0.0
C1179 C 0.13626 0.38624 1.00913 0.0
O1180 O 0.25632 0.38923 0.02575 0.0
O1181 O 0.27446 0.39953 1.00817 0.0
O1182 O 0.21508 0.46269 0.04363 0.0
O1183 O 0.18327 0.38213 0.03938 0.0
O1184 O 0.29347 0.52175 0.02986 0.0
O1185 O 0.29148 0.4759 0.01742 0.0
O1186 O 0.23333 0.51928 1.00788 0.0
O1187 O 0.18767 0.48883 0.02303 0.0
O1188 O 0.24972 0.42804 0.98843 0.0
O1189 O 0.27881 0.50871 0.99237 0.0
O1190 O 0.15389 0.39458 0.99978 0.0
O1191 O 0.17466 0.41079 1.01484 0.0
H1192 H 0.24651 0.48421 0.06198 0.0
H1193 H 0.15875 0.3215 0.05573 0.0
H1194 H 0.16356 0.30355 0.07398 0.0
H1195 H 0.25145 0.46609 0.08015 0.0
H1196 H 0.17442 0.42228 0.97618 0.0
H1197 H 0.32797 0.54804 0.97101 0.0
H1198 H 0.30247 0.56262 0.95398 0.0
H1199 H 0.14892 0.43589 0.959 0.0
Gd1200 Gd 0.25495 0.44621 0.50456 0.0
Gd1201 Gd 0.26037 0.43863 0.52716 0.0
C1202 C 0.36059 0.52502 0.51624 0.0
C1203 C 0.25923 0.47156 0.48515 0.0
C1204 C 0.28611 0.48014 0.47505 0.0
C1205 C 0.29094 0.44134 0.47 0.0
C1206 C 0.30309 0.52706 0.4699 0.0
C1207 C 0.32696 0.49566 0.45467 0.0
C1208 C 0.32332 0.53478 0.45988 0.0
C1209 C 0.31131 0.4491 0.45995 0.0
C1210 C 0.28175 0.37501 0.51088 0.0
C1211 C 0.14731 0.3764 0.51634 0.0
C1212 C 0.26424 0.41075 0.54597 0.0
C1213 C 0.24176 0.39758 0.55652 0.0
C1214 C 0.26318 0.4347 0.56437 0.0
C1215 C 0.20471 0.34708 0.55924 0.0
C1216 C 0.21409 0.37061 0.5775 0.0
C1217 C 0.19076 0.33384 0.56961 0.0
C1218 C 0.24946 0.42146 0.57469 0.0
C1219 C 0.24193 0.51508 0.52162 0.0
O1220 O 0.33029 0.51836 0.50832 0.0
O1221 O 0.34431 0.491 0.52379 0.0
O1222 O 0.23166 0.42465 0.48861 0.0
O1223 O 0.28274 0.50474 0.49252 0.0
O1224 O 0.25208 0.36938 0.50318 0.0
O1225 O 0.29735 0.41895 0.51464 0.0
O1226 O 0.17624 0.37815 0.52424 0.0
O1227 O 0.16933 0.40562 0.50814 0.0
O1228 O 0.28402 0.45842 0.543 0.0
O1229 O 0.24311 0.37788 0.53839 0.0
O1230 O 0.26623 0.51498 0.52984 0.0
O1231 O 0.22309 0.47188 0.51718 0.0
H1232 H 0.27823 0.40469 0.47373 0.0
H1233 H 0.29939 0.55749 0.47354 0.0
H1234 H 0.3347 0.57102 0.45608 0.0
H1235 H 0.31462 0.41851 0.4563 0.0
H1236 H 0.29247 0.47377 0.56259 0.0
H1237 H 0.18773 0.31742 0.55342 0.0
H1238 H 0.16253 0.29453 0.57148 0.0
H1239 H 0.26845 0.45069 0.58054 0.0
Gd1240 Gd 0.60049 0.81257 0.50388 0.0
Gd1241 Gd 0.60991 0.8257 0.52804 0.0
C1242 C 0.51779 0.83236 0.51657 0.0
C1243 C 0.57321 0.7886 0.4847 0.0
C1244 C 0.56656 0.80586 0.47436 0.0
C1245 C 0.60761 0.84535 0.46881 0.0
C1246 C 0.51823 0.77888 0.46959 0.0
C1247 C 0.55231 0.82838 0.45374 0.0
C1248 C 0.51114 0.79004 0.45944 0.0
C1249 C 0.60043 0.85669 0.45862 0.0
C1250 C 0.67042 0.90907 0.5109 0.0
C1251 C 0.66978 0.77588 0.51643 0.0
C1252 C 0.64112 0.86822 0.54592 0.0
C1253 C 0.65645 0.86341 0.55654 0.0
C1254 C 0.62547 0.82071 0.56283 0.0
C1255 C 0.69983 0.90545 0.56088 0.0
C1256 C 0.6783 0.8647 0.57782 0.0
C1257 C 0.71076 0.90605 0.57139 0.0
C1258 C 0.63647 0.8213 0.57337 0.0
C1259 C 0.54406 0.72488 0.52328 0.0
O1260 O 0.53003 0.81866 0.50776 0.0
O1261 O 0.54626 0.84261 0.52498 0.0
O1262 O 0.61965 0.8036 0.4881 0.0
O1263 O 0.54171 0.78528 0.49201 0.0
O1264 O 0.67526 0.88884 0.50246 0.0
O1265 O 0.62722 0.87839 0.51476 0.0
O1266 O 0.67169 0.80637 0.52402 0.0
O1267 O 0.6387 0.76628 0.5084 0.0
O1268 O 0.59255 0.83959 0.54344 0.0
O1269 O 0.67282 0.8753 0.53829 0.0
O1270 O 0.55637 0.7422 0.53265 0.0
O1271 O 0.56908 0.76209 0.51722 0.0
H1272 H 0.64539 0.86676 0.47225 0.0
H1273 H 0.48594 0.74818 0.47366 0.0
H1274 H 0.47333 0.7683 0.45601 0.0
H1275 H 0.63285 0.8866 0.45445 0.0
H1276 H 0.59169 0.78773 0.5597 0.0
H1277 H 0.72422 0.93886 0.55622 0.0
H1278 H 0.74389 0.93957 0.57456 0.0
H1279 H 0.6109 0.78882 0.57813 0.0
Gd1280 Gd 0.23116 0.79257 0.50469 0.0
Gd1281 Gd 0.21842 0.78704 0.52752 0.0
C1282 C 0.20697 0.68774 0.5164 0.0
C1283 C 0.25228 0.78911 0.48528 0.0
C1284 C 0.23364 0.76232 0.47522 0.0
C1285 C 0.18904 0.75637 0.47038 0.0
C1286 C 0.26397 0.7463 0.46992 0.0
C1287 C 0.20703 0.72096 0.45495 0.0
C1288 C 0.25084 0.72582 0.45995 0.0
C1289 C 0.17582 0.73576 0.46038 0.0
C1290 C 0.1332 0.76444 0.51127 0.0
C1291 C 0.27025 0.90013 0.51656 0.0
C1292 C 0.1852 0.78323 0.54621 0.0
C1293 C 0.19306 0.80656 0.55664 0.0
C1294 C 0.23392 0.8131 0.563 0.0
C1295 C 0.15472 0.8147 0.56093 0.0
C1296 C 0.19511 0.83039 0.57789 0.0
C1297 C 0.15588 0.82676 0.57141 0.0
C1298 C 0.23493 0.82492 0.57349 0.0
C1299 C 0.31253 0.80436 0.5219 0.0
O1300 O 0.22834 0.71745 0.50828 0.0
O1301 O 0.19031 0.70365 0.52422 0.0
O1302 O 0.23282 0.8165 0.4888 0.0
O1303 O 0.26218 0.76545 0.49261 0.0
O1304 O 0.15579 0.79336 0.50338 0.0
O1305 O 0.16265 0.75004 0.51496 0.0
O1306 O 0.24393 0.87162 0.52459 0.0
O1307 O 0.27614 0.87789 0.50825 0.0
O1308 O 0.21498 0.76519 0.54346 0.0
O1309 O 0.17222 0.80249 0.53848 0.0
O1310 O 0.28857 0.78106 0.53025 0.0
O1311 O 0.28843 0.82348 0.5174 0.0
H1312 H 0.1648 0.76833 0.47425 0.0
H1313 H 0.29881 0.75087 0.4734 0.0
H1314 H 0.27593 0.71511 0.45602 0.0
H1315 H 0.14118 0.73154 0.45688 0.0
H1316 H 0.26408 0.80701 0.55998 0.0
H1317 H 0.12244 0.80928 0.55628 0.0
H1318 H 0.12462 0.83071 0.57457 0.0
H1319 H 0.26621 0.82844 0.57823 0.0
Gd1320 Gd 0.12414 0.57855 0.36252 0.0
Gd1321 Gd 0.11191 0.58183 0.33851 0.0
C1322 C 0.20405 0.68231 0.34973 0.0
C1323 C 0.15184 0.58081 0.38164 0.0
C1324 C 0.1593 0.6062 0.39183 0.0
C1325 C 0.1232 0.61789 0.39606 0.0
C1326 C 0.20209 0.61547 0.3978 0.0
C1327 C 0.17204 0.64608 0.41218 0.0
C1328 C 0.20837 0.63505 0.40783 0.0
C1329 C 0.12955 0.63768 0.40612 0.0
C1330 C 0.05215 0.60394 0.35601 0.0
C1331 C 0.05371 0.47185 0.35018 0.0
C1332 C 0.07937 0.59264 0.32071 0.0
C1333 C 0.06445 0.57138 0.31019 0.0
C1334 C 0.08649 0.5452 0.30534 0.0
C1335 C 0.03115 0.58213 0.30454 0.0
C1336 C 0.04496 0.54443 0.28908 0.0
C1337 C 1.02144 0.56877 0.29412 0.0
C1338 C 0.07669 0.53169 0.29488 0.0
C1339 C 0.17872 0.54741 0.34287 0.0
O1340 O 0.19332 0.65633 0.35854 0.0
O1341 O 0.17486 0.66303 0.34143 0.0
O1342 O 0.10482 0.55174 0.37831 0.0
O1343 O 0.18412 0.60672 0.37424 0.0
O1344 O 0.0488 0.57853 0.36432 0.0
O1345 O 0.09513 0.61724 0.3519 0.0
O1346 O 0.05092 0.50035 0.34266 0.0
O1347 O 0.08565 0.49371 0.35808 0.0
O1348 O 0.1281 0.61325 0.32312 0.0
O1349 O 0.04823 0.56757 0.32839 0.0
O1350 O 0.1655 0.55226 0.33357 0.0
O1351 O 0.15434 0.55971 0.34904 0.0
H1352 H 0.08962 0.61084 0.39167 0.0
H1353 H 0.23034 0.60657 0.39476 0.0
H1354 H 0.2417 0.64138 0.41222 0.0
H1355 H 0.10044 0.64504 0.40927 0.0
H1356 H 0.11227 0.5364 0.30956 0.0
H1357 H 1.014 0.60258 0.30811 0.0
H1358 H 0.99699 0.57932 0.28989 0.0
H1359 H 0.09449 0.51192 0.2913 0.0
Gd1360 Gd 0.46772 0.55726 0.36164 0.0
Gd1361 Gd 0.46257 0.54284 0.33877 0.0
C1362 C 0.36255 0.5311 0.34963 0.0
C1363 C 0.46481 0.58013 0.38097 0.0
C1364 C 0.43963 0.56253 0.39122 0.0
C1365 C 0.42672 0.51434 0.39539 0.0
C1366 C 0.43214 0.59684 0.39731 0.0
C1367 C 0.40059 0.53601 0.41169 0.0
C1368 C 0.41299 0.58386 0.4074 0.0
C1369 C 0.40736 0.50122 0.40551 0.0
C1370 C 0.4394 0.45908 0.35532 0.0
C1371 C 0.57521 0.5934 0.34975 0.0
C1372 C 0.45846 0.50808 0.32026 0.0
C1373 C 0.48135 0.5114 0.30993 0.0
C1374 C 0.49448 0.55319 0.30327 0.0
C1375 C 0.48211 0.4682 0.30605 0.0
C1376 C 0.50272 0.5058 0.28881 0.0
C1377 C 0.49286 0.46548 0.29563 0.0
C1378 C 0.50529 0.55047 0.29282 0.0
C1379 C 0.48048 0.63725 0.34423 0.0
O1380 O 0.39257 0.55468 0.35762 0.0
O1381 O 0.37895 0.51301 0.34216 0.0
O1382 O 0.49285 0.56132 0.37749 0.0
O1383 O 0.43953 0.58786 0.37365 0.0
O1384 O 0.46792 0.48172 0.36325 0.0
O1385 O 0.42528 0.48847 0.35153 0.0
O1386 O 0.5463 0.56621 0.34187 0.0
O1387 O 0.55345 0.60138 0.35792 0.0
O1388 O 0.44482 0.54186 0.32262 0.0
O1389 O 0.47418 0.49278 0.32823 0.0
O1390 O 0.45658 0.613 0.33594 0.0
O1391 O 0.49935 0.61306 0.34874 0.0
H1392 H 0.43249 0.48723 0.39092 0.0
H1393 H 0.44213 0.63438 0.39433 0.0
H1394 H 0.40803 0.61148 0.41188 0.0
H1395 H 0.39903 0.46438 0.40859 0.0
H1396 H 0.494 0.58698 0.30599 0.0
H1397 H 0.47182 0.43531 0.31098 0.0
H1398 H 0.49165 0.43098 0.29282 0.0
H1399 H 0.51293 0.5822 0.28776 0.0
Gd1400 Gd 0.4897 0.92449 0.36267 0.0
Gd1401 Gd 0.50351 0.93473 0.33857 0.0
C1402 C 0.51082 0.84283 0.34997 0.0
C1403 C 0.4655 0.89762 0.38185 0.0
C1404 C 0.48314 0.88658 0.39172 0.0
C1405 C 0.53338 0.91744 0.39549 0.0
C1406 C 0.44742 0.84562 0.39782 0.0
C1407 C 0.51127 0.8666 0.41137 0.0
C1408 C 0.46119 0.83582 0.40751 0.0
C1409 C 0.54725 0.9076 0.40523 0.0
C1410 C 0.58672 0.99462 0.35574 0.0
C1411 C 0.45244 0.99359 0.35014 0.0
C1412 C 0.54558 0.96625 0.32063 0.0
C1413 C 0.53808 0.9807 0.31012 0.0
C1414 C 0.49362 0.94935 0.30433 0.0
C1415 C 0.57875 0.02387 0.30538 0.0
C1416 C 0.53218 1.00264 0.28906 0.0
C1417 C 0.5759 0.03473 0.29497 0.0
C1418 C 0.4908 0.96015 0.29389 0.0
C1419 C 0.40256 0.86855 0.34323 0.0
O1420 O 0.49834 0.85543 0.35889 0.0
O1421 O 0.51996 0.87087 0.34152 0.0
O1422 O 0.48792 0.94523 0.37863 0.0
O1423 O 0.45391 0.86468 0.37433 0.0
O1424 O 0.56574 0.99947 0.36408 0.0
O1425 O 0.55619 0.9515 0.35184 0.0
O1426 O 0.48309 0.9957 0.34255 0.0
O1427 O 0.44374 0.96325 0.35826 0.0
O1428 O 0.51818 0.9177 0.32321 0.0
O1429 O 0.55251 0.99778 0.32827 0.0
O1430 O 0.42017 0.88127 0.33388 0.0
O1431 O 0.43954 0.89332 0.34933 0.0
H1432 H 0.5617 0.94944 0.39097 0.0
H1433 H 0.40829 0.82165 0.39515 0.0
H1434 H 0.43208 0.80479 0.41211 0.0
H1435 H 0.58613 0.93204 0.40797 0.0
H1436 H 0.46168 0.91564 0.30776 0.0
H1437 H 0.61369 0.0482 0.30963 0.0
H1438 H 0.60893 0.06706 0.29145 0.0
H1439 H 0.45661 0.93473 0.28955 0.0
C1440 C 0.16225 0.12767 0.18795 0.0
C1441 C 0.1821 0.15786 0.17901 0.0
C1442 C 0.16502 0.08251 0.18937 0.0
C1443 C 0.18802 0.06596 0.18192 0.0
H1444 H 0.14228 0.13757 0.19365 0.0
H1445 H 0.14718 0.05943 0.19617 0.0
S1446 S 0.25227 0.13614 0.15784 0.0
N1447 N 0.2298 0.17092 0.16311 0.0
N1448 N 0.23584 0.08739 0.16576 0.0
C1449 C 0.21069 0.09785 0.17325 0.0
C1450 C 0.2075 0.14336 0.1718 0.0
C1451 C 0.97117 0.08536 0.1894 0.0
C1452 C 0.98605 0.12627 0.18234 0.0
C1453 C 0.92678 0.03704 0.18777 0.0
C1454 C 0.8958 0.02777 0.17899 0.0
H1455 H 0.99514 0.08988 0.196 0.0
H1456 H 0.91825 1.00613 0.19312 0.0
S1457 S 0.91272 0.12343 0.15901 0.0
N1458 N 0.96189 0.1551 0.16686 0.0
N1459 N 0.87987 0.0648 0.16377 0.0
C1460 C 0.90851 0.069 0.17222 0.0
C1461 C 0.95319 0.11805 0.1739 0.0
C1462 C 0.98637 0.86122 0.17044 0.0
C1463 C 1.0212 0.87133 0.17857 0.0
C1464 C 0.93844 0.85761 0.17209 0.0
C1465 C 0.92301 0.8644 0.18196 0.0
H1466 H 0.99669 0.85727 0.16262 0.0
H1467 H 0.91414 0.85126 0.16544 0.0
S1468 S 0.99797 0.88659 0.20611 0.0
N1469 N 0.03511 0.88384 0.19703 0.0
N1470 N 0.94567 0.87817 0.20018 0.0
C1471 C 0.95669 0.87253 0.19026 0.0
C1472 C 1.00547 0.87566 0.18856 0.0
C1473 C 0.13826 0.17145 0.36273 0.0
C1474 C 0.16324 0.16288 0.35442 0.0
C1475 C 0.09433 0.1758 0.36128 0.0
C1476 C 0.07272 0.17153 0.35144 0.0
H1477 H 0.15202 0.17368 0.37054 0.0
H1478 H 0.07637 0.181 0.36807 0.0
S1479 S 0.12649 0.15443 0.32689 0.0
N1480 N 0.16569 0.15468 0.33585 0.0
N1481 N 0.08247 0.16181 0.33305 0.0
C1482 C 0.09852 0.16501 0.34296 0.0
C1483 C 0.14384 0.16099 0.34446 0.0
C1484 C 0.89252 0.95043 0.34407 0.0
C1485 C 0.86866 0.91028 0.35137 0.0
C1486 C 0.89622 0.99867 0.34565 0.0
C1487 C 0.87673 1.00895 0.35466 0.0
H1488 H 0.91003 0.94525 0.33721 0.0
H1489 H 0.91657 0.02879 0.34001 0.0
S1490 S 0.80592 0.91627 0.37568 0.0
N1491 N 0.82127 0.88374 0.36758 0.0
N1492 N 0.82915 0.97393 0.37056 0.0
C1493 C 0.85084 0.96866 0.36177 0.0
C1494 C 0.84654 0.91954 0.36013 0.0
C1495 C 0.06355 0.92186 0.36229 0.0
C1496 C 0.03419 0.89125 0.35396 0.0
C1497 C 0.11344 0.96334 0.36087 0.0
C1498 C 0.13585 0.97701 0.351 0.0
H1499 H 0.04753 0.91428 0.37001 0.0
H1500 H 0.13362 0.98634 0.36753 0.0
S1501 S 0.07644 0.90758 0.32666 0.0
N1502 N 0.03252 0.87538 0.33557 0.0
N1503 N 0.12553 0.95489 0.33277 0.0
C1504 C 0.1075 0.94595 0.34261 0.0
C1505 C 0.05697 0.90267 0.34412 0.0
C1506 C 0.90792 0.91324 0.84547 0.0
C1507 C 0.88522 0.88181 0.85417 0.0
C1508 C 0.90436 0.95787 0.84381 0.0
C1509 C 0.87774 0.97254 0.85076 0.0
H1510 H 0.93082 0.90489 0.84022 0.0
H1511 H 0.9246 0.98218 0.83729 0.0
S1512 S 0.80487 0.89821 0.87385 0.0
N1513 N 0.83093 0.86542 0.86919 0.0
N1514 N 0.8232 0.9477 0.86604 0.0
C1515 C 0.85212 0.93922 0.8591 0.0
C1516 C 0.85617 0.89437 0.86081 0.0
C1517 C 0.14034 0.97592 0.86286 0.0
C1518 C 0.16516 1.01022 0.85464 0.0
C1519 C 0.09691 0.92746 0.86127 0.0
C1520 C 0.07574 0.91091 0.85137 0.0
H1521 H 0.15381 0.98701 0.8707 0.0
H1522 H 0.07877 0.90362 0.86797 0.0
S1523 S 0.12957 0.98371 0.82703 0.0
N1524 N 0.16813 0.02223 0.8361 0.0
N1525 N 0.08582 0.93168 0.83305 0.0
C1526 C 0.10144 0.94398 0.84299 0.0
C1527 C 0.14624 0.99336 0.84464 0.0
C1528 C 0.0534 0.15066 0.84542 0.0
C1529 C 0.04288 0.16893 0.85456 0.0
C1530 C 0.1013 0.15353 0.84386 0.0
C1531 C 0.14086 0.17521 0.85133 0.0
H1532 H 1.02368 0.13187 0.83965 0.0
H1533 H 0.10658 0.13701 0.83687 0.0
S1534 S 0.13418 0.23446 0.87604 0.0
N1535 N 0.0771 0.2133 0.87077 0.0
N1536 N 0.16675 0.2196 0.86784 0.0
C1537 C 0.13144 0.19623 0.86024 0.0
C1538 C 0.08263 0.19282 0.86185 0.0
C1539 C 0.90573 0.85645 0.68606 0.0
C1540 C 0.91131 0.89922 0.68047 0.0
C1541 C 0.94783 0.84834 0.68746 0.0
C1542 C 0.9964 0.88264 0.68325 0.0
H1543 H 0.86848 0.82848 0.6891 0.0
H1544 H 0.94211 0.8146 0.69161 0.0
S1545 S 0.03293 1.00393 0.6694 0.0
N1546 N 0.97094 0.97887 0.67176 0.0
N1547 N 0.04879 0.96296 0.67423 0.0
C1548 C 1.00276 0.92638 0.67808 0.0
C1549 C 0.96053 0.93486 0.67674 0.0
C1550 C 0.166 0.09067 0.68975 0.0
C1551 C 0.18814 0.12996 0.68223 0.0
C1552 C 0.16388 0.04299 0.68838 0.0
C1553 C 0.18368 0.03264 0.67942 0.0
H1554 H 0.14826 0.09591 0.69656 0.0
H1555 H 0.14444 1.01327 0.69413 0.0
S1556 S 0.25143 0.12393 0.65802 0.0
N1557 N 0.23479 0.15606 0.66594 0.0
N1558 N 0.23014 0.06708 0.66339 0.0
C1559 C 0.20811 0.07231 0.67213 0.0
C1560 C 0.21053 0.1207 0.67352 0.0
C1561 C 0.96229 0.08489 0.68967 0.0
C1562 C 0.92121 0.07026 0.68268 0.0
C1563 C 1.01059 0.12923 0.68803 0.0
C1564 C 1.01986 0.16036 0.67927 0.0
H1565 H 0.95787 0.0609 0.69627 0.0
H1566 H 0.04152 0.13768 0.69338 0.0
S1567 S 0.92442 0.14343 0.65927 0.0
N1568 N 0.89256 0.0944 0.66716 0.0
N1569 N 0.98305 0.17627 0.66404 0.0
C1570 C 0.97867 0.14772 0.67252 0.0
C1571 C 0.92948 0.10315 0.67423 0.0
C1572 C 0.83136 0.40284 0.50605 0.0
C1573 C 0.84226 0.39001 0.51581 0.0
C1574 C 0.8232 0.44443 0.50472 0.0
C1575 C 0.82662 0.47605 0.51303 0.0
H1576 H 0.827 0.37936 0.49937 0.0
H1577 H 0.81338 0.45136 0.49708 0.0
S1578 S 0.85803 0.46211 0.54007 0.0
N1579 N 0.85811 0.41398 0.53393 0.0
N1580 N 0.84465 0.49361 0.5313 0.0
C1581 C 0.83973 0.46535 0.52277 0.0
C1582 C 0.84696 0.42197 0.52419 0.0
C1583 C 0.58345 0.37106 0.52111 0.0
C1584 C 0.55512 0.36026 0.51191 0.0
C1585 C 0.62726 0.41955 0.52281 0.0
C1586 C 0.64413 0.45936 0.51543 0.0
H1587 H 0.5732 0.34117 0.52682 0.0
H1588 H 0.64901 0.42517 0.52983 0.0
S1589 S 0.57873 0.45195 0.4906 0.0
N1590 N 0.54414 0.39432 0.49573 0.0
N1591 N 0.62525 0.48517 0.49893 0.0
C1592 C 0.61401 0.44964 0.50647 0.0
C1593 C 0.56991 0.40021 0.50471 0.0
C1594 C 0.62798 0.21744 0.5231 0.0
C1595 C 0.58775 0.19314 0.51584 0.0
C1596 C 0.67575 0.21967 0.52167 0.0
C1597 C 0.68522 0.19792 0.51292 0.0
H1598 H 0.62343 0.23679 0.52971 0.0
H1599 H 0.70621 0.24075 0.5272 0.0
S1600 S 0.59107 0.12348 0.49241 0.0
N1601 N 0.55962 0.14179 0.50016 0.0
N1602 N 0.6489 0.14694 0.49747 0.0
C1603 C 0.64458 0.17117 0.50594 0.0
C1604 C 0.59605 0.16851 0.5074 0.0
C1605 C 0.80915 0.48837 0.67867 0.0
C1606 C 0.83742 0.50622 0.68788 0.0
C1607 C 0.76487 0.49239 0.67691 0.0
C1608 C 0.74727 0.51504 0.68423 0.0
H1609 H 0.81993 0.46909 0.67298 0.0
H1610 H 0.74343 0.47614 0.66988 0.0
S1611 S 0.81131 0.57258 0.70917 0.0
N1612 N 0.84685 0.5505 0.70408 0.0
N1613 N 0.76496 0.55897 0.70077 0.0
C1614 C 0.77703 0.53537 0.69324 0.0
C1615 C 0.82161 0.53069 0.69506 0.0
C1616 C 0.53136 0.26916 0.67886 0.0
C1617 C 0.56341 0.25379 0.68373 0.0
C1618 C 0.53922 0.31925 0.68027 0.0
C1619 C 0.57961 0.3553 0.68651 0.0
H1620 H 0.49935 0.24202 0.6742 0.0
H1621 H 0.51272 0.32923 0.67673 0.0
S1622 S 0.67899 0.33582 0.69941 0.0
N1623 N 0.63982 0.27987 0.69404 0.0
N1624 N 0.65532 0.37339 0.69652 0.0
C1625 C 0.61338 0.34081 0.69088 0.0
C1626 C 0.60508 0.29019 0.68954 0.0
C1627 C 0.7669 0.29199 0.67712 0.0
C1628 C 0.80745 0.30769 0.68428 0.0
C1629 C 0.7195 0.24617 0.67852 0.0
C1630 C 0.71085 0.21449 0.68717 0.0
H1631 H 0.77089 0.31632 0.67061 0.0
H1632 H 0.68864 0.23698 0.67311 0.0
S1633 S 0.80616 0.23365 0.70738 0.0
N1634 N 0.83684 0.28393 0.69973 0.0
N1635 N 0.74817 0.19921 0.7024 0.0
C1636 C 0.75182 0.2282 0.69405 0.0
C1637 C 0.79996 0.27436 0.6926 0.0
C1638 C 0.52948 0.22472 0.18264 0.0
C1639 C 0.57779 0.23163 0.18551 0.0
C1640 C 0.52191 0.26724 0.18147 0.0
C1641 C 0.56266 0.31773 0.18295 0.0
H1642 H 0.49694 0.18632 0.18178 0.0
H1643 H 0.48392 0.26057 0.1796 0.0
S1644 S 0.69731 0.3564 0.18946 0.0
N1645 N 0.66726 0.29303 0.18918 0.0
N1646 N 0.65333 0.37217 0.18668 0.0
C1647 C 0.61138 0.32496 0.18532 0.0
C1648 C 0.61888 0.28207 0.18667 0.0
C1649 C 0.82174 0.30046 0.19384 0.0
C1650 C 0.83615 0.34167 0.18695 0.0
C1651 C 0.77793 0.25208 0.19211 0.0
C1652 C 0.74611 0.24276 0.18344 0.0
H1653 H 0.84393 0.30595 0.20079 0.0
H1654 H 0.7681 0.22232 0.19783 0.0
S1655 S 0.76655 0.33865 0.16311 0.0
N1656 N 0.81477 0.37003 0.17119 0.0
N1657 N 0.73328 0.27985 0.16777 0.0
C1658 C 0.761 0.28353 0.17634 0.0
C1659 C 0.80567 0.33269 0.17814 0.0
C1660 C 0.79382 0.5207 0.19363 0.0
C1661 C 0.80716 0.50757 0.18414 0.0
C1662 C 0.74622 0.51799 0.1951 0.0
C1663 C 0.70957 0.50242 0.18716 0.0
H1664 H 0.8197 0.53182 0.20015 0.0
H1665 H 0.73756 0.52692 0.20268 0.0
S1666 S 0.72549 0.4665 0.16061 0.0
N1667 N 0.77969 0.48016 0.16646 0.0
N1668 N 0.69076 0.47605 0.16926 0.0
C1669 C 0.72297 0.49138 0.17748 0.0
C1670 C 0.7715 0.49365 0.17597 0.0
C1671 C 0.63161 0.21747 0.02353 0.0
C1672 C 0.64954 0.19522 1.0162 0.0
C1673 C 0.58598 0.21918 0.02193 0.0
C1674 C 0.55666 0.19918 1.0129 0.0
H1675 H 0.65389 0.23544 0.0304 0.0
H1676 H 0.57507 0.23859 0.02756 0.0
S1677 S 0.5824 0.13157 0.99184 0.0
N1678 N 0.63046 0.1483 0.99997 0.0
N1679 N 0.54618 0.15276 0.99697 0.0
C1680 C 0.57263 0.17479 1.00577 0.0
C1681 C 0.61857 0.17246 1.00742 0.0
C1682 C 0.8231 0.37435 0.02202 0.0
C1683 C 0.84324 0.36458 1.01306 0.0
C1684 C 0.82835 0.42304 0.02381 0.0
C1685 C 0.85443 0.46415 0.01677 0.0
H1686 H 0.801 0.34357 0.02742 0.0
H1687 H 0.81011 0.4278 0.0306 0.0
S1688 S 0.91949 0.45935 0.99273 0.0
N1689 N 0.89373 0.40077 0.99751 0.0
N1690 N 0.90446 0.49188 1.00089 0.0
C1691 C 0.8772 0.45527 1.00808 0.0
C1692 C 0.87132 0.40567 1.00623 0.0
C1693 C 0.60865 0.43487 0.02091 0.0
C1694 C 0.5959 0.38595 0.01717 0.0
C1695 C 0.65867 0.47742 0.01956 0.0
C1696 C 0.69715 0.47209 1.01443 0.0
H1697 H 0.57956 0.44052 0.02463 0.0
H1698 H 0.66665 0.51487 0.0222 0.0
S1699 S 0.68448 0.35029 1.00461 0.0
N1700 N 0.62676 0.33378 1.00907 0.0
N1701 N 0.72 0.41269 1.00661 0.0
C1702 C 0.68513 0.42269 1.01116 0.0
C1703 C 0.63467 0.37989 1.01251 0.0
C1704 C 0.50911 0.78933 0.83867 0.0
C1705 C 0.50389 0.81571 0.84713 0.0
C1706 C 0.51769 0.74798 0.84005 0.0
C1707 C 0.52008 0.73012 0.84996 0.0
H1708 H 0.50541 0.79998 0.83087 0.0
H1709 H 0.5198 0.72824 0.83324 0.0
S1710 S 0.51216 0.788 0.8747 0.0
N1711 N 0.50557 0.82353 0.86577 0.0
N1712 N 0.51928 0.7441 0.86843 0.0
C1713 C 0.51662 0.7572 0.85851 0.0
C1714 C 0.50924 0.80044 0.85708 0.0
C1715 C 0.24692 0.73059 0.83869 0.0
C1716 C 0.22896 0.69239 0.84639 0.0
C1717 C 0.29059 0.77921 0.84019 0.0
C1718 C 0.31888 0.79191 0.84945 0.0
H1719 H 0.22771 0.72253 0.83128 0.0
H1720 H 0.30313 0.80637 0.83386 0.0
S1721 S 0.28682 0.70637 0.87229 0.0
N1722 N 0.24187 0.6716 0.86378 0.0
N1723 N 0.32388 0.76227 0.86667 0.0
C1724 C 0.30031 0.75461 0.85737 0.0
C1725 C 0.25546 0.70515 0.85583 0.0
C1726 C 0.33964 0.55324 0.85698 0.0
C1727 C 0.35682 0.54685 0.84731 0.0
C1728 C 0.28987 0.54629 0.85823 0.0
C1729 C 0.25511 0.53192 0.84987 0.0
H1730 H 0.36567 0.56635 0.86349 0.0
H1731 H 0.27929 0.55394 0.86573 0.0
S1732 S 0.28056 0.5047 0.82318 0.0
N1733 N 0.33453 0.52171 0.82945 0.0
N1734 N 0.24122 0.50739 0.83173 0.0
C1735 C 0.27126 0.52243 0.8403 0.0
C1736 C 0.32203 0.53031 0.83903 0.0
C1737 C 0.47243 0.82231 1.00906 0.0
C1738 C 0.49691 0.83037 0.01868 0.0
C1739 C 0.42888 0.8281 1.00784 0.0
C1740 C 0.409 0.84324 1.01615 0.0
H1741 H 0.48486 0.80823 1.00262 0.0
H1742 H 0.40959 0.81877 1.00044 0.0
S1743 S 0.46427 0.87532 0.0426 0.0
N1744 N 0.50119 0.85812 0.03637 0.0
N1745 N 0.4212 0.87074 0.03413 0.0
C1746 C 0.43578 0.85484 0.02561 0.0
C1747 C 0.47921 0.84793 0.02686 0.0
C1748 C 0.22512 0.65655 1.00964 0.0
C1749 C 0.22309 0.67514 0.01948 0.0
C1750 C 0.21737 0.60655 1.00834 0.0
C1751 C 0.20618 0.57289 0.0168 0.0
H1752 H 0.23555 0.68167 1.003 0.0
H1753 H 0.22191 0.59484 1.0007 0.0
S1754 S 0.19174 0.6022 0.04405 0.0
N1755 N 0.20602 0.65529 0.0377 0.0
N1756 N 0.19013 0.56158 0.0353 0.0
C1757 C 0.20111 0.59038 0.02658 0.0
C1758 C 0.21 0.64142 0.02791 0.0
C1759 C 0.41037 0.55759 0.01803 0.0
C1760 C 0.3664 0.56298 0.01811 0.0
C1761 C 0.46003 0.60071 0.01678 0.0
C1762 C 0.46694 0.65015 1.01524 0.0
H1763 H 0.40659 0.52035 0.01945 0.0
H1764 H 0.49314 0.59547 0.01714 0.0
S1765 S 0.36401 0.68411 1.01465 0.0
N1766 N 0.33321 0.62148 0.01664 0.0
N1767 N 0.4254 0.70141 1.0137 0.0
C1768 C 0.42301 0.6554 1.01495 0.0
C1769 C 0.37302 0.61209 1.01654 0.0
C1770 C 0.22317 0.58161 0.52848 0.0
C1771 C 0.22586 0.55405 0.51995 0.0
C1772 C 0.21383 0.62262 0.52725 0.0
C1773 C 0.20816 0.63892 0.5174 0.0
H1774 H 0.22929 0.57207 0.53621 0.0
H1775 H 0.21366 0.64331 0.53407 0.0
S1776 S 0.20907 0.57791 0.49256 0.0
N1777 N 0.21865 0.54377 0.50136 0.0
N1778 N 0.20352 0.62245 0.49895 0.0
C1779 C 0.20932 0.6108 0.5088 0.0
C1780 C 0.21745 0.56796 0.5101 0.0
C1781 C 0.48004 0.63522 0.5286 0.0
C1782 C 0.50161 0.67217 0.52069 0.0
C1783 C 0.43615 0.58705 0.52693 0.0
C1784 C 0.41124 0.57362 0.51728 0.0
H1785 H 0.49643 0.64404 0.53628 0.0
H1786 H 0.42056 0.56097 0.53341 0.0
S1787 S 0.45477 0.65492 0.49371 0.0
N1788 N 0.49685 0.69045 0.50262 0.0
N1789 N 0.41392 0.60056 0.49947 0.0
C1790 C 0.43362 0.60946 0.50917 0.0
C1791 C 0.47885 0.65845 0.51087 0.0
C1792 C 0.44561 0.82556 0.52732 0.0
C1793 C 0.46791 0.83177 0.51749 0.0
C1794 C 0.39623 0.81856 0.52858 0.0
C1795 C 0.36698 0.81855 0.52011 0.0
H1796 H 0.46549 0.82387 0.53415 0.0
H1797 H 0.38048 0.81212 0.53632 0.0
S1798 S 0.40861 0.8378 0.49276 0.0
N1799 N 0.45748 0.84005 0.49908 0.0
N1800 N 0.36507 0.82874 0.50157 0.0
C1801 C 0.38949 0.82735 0.51027 0.0
C1802 C 0.43972 0.83338 0.50892 0.0
C1803 C 0.25092 0.55638 0.35429 0.0
C1804 C 0.22086 0.53659 0.34534 0.0
C1805 C 0.29551 0.55269 0.35585 0.0
C1806 C 0.31152 0.52855 0.34856 0.0
H1807 H 0.24133 0.57695 0.3599 0.0
H1808 H 0.31847 0.57046 0.36265 0.0
S1809 S 0.24172 0.46463 0.32446 0.0
N1810 N 0.20757 0.48829 0.32955 0.0
N1811 N 0.28994 0.48027 0.33248 0.0
C1812 C 0.27978 0.50604 0.33987 0.0
C1813 C 0.23493 0.51037 0.33826 0.0
C1814 C 0.49314 0.72055 0.33772 0.0
C1815 C 0.49461 0.6915 0.34608 0.0
C1816 C 0.50096 0.77009 0.33908 0.0
C1817 C 0.50951 0.79276 0.34892 0.0
H1818 H 0.48504 0.70459 0.33 0.0
H1819 H 0.49808 0.78984 0.33235 0.0
S1820 S 0.5198 0.7339 0.37335 0.0
N1821 N 0.5085 0.69001 0.36449 0.0
N1822 N 0.52128 0.78276 0.36719 0.0
C1823 C 0.51243 0.76469 0.35736 0.0
C1824 C 0.50558 0.71428 0.35591 0.0
C1825 C 0.29199 0.75034 0.35616 0.0
C1826 C 0.25201 0.73391 0.34882 0.0
C1827 C 0.33991 0.79556 0.35467 0.0
C1828 C 0.34983 0.82599 0.34577 0.0
H1829 H 0.28709 0.72707 0.36291 0.0
H1830 H 0.37012 0.80532 0.36028 0.0
S1831 S 0.25668 0.8047 0.32492 0.0
N1832 N 0.22477 0.75579 0.33283 0.0
N1833 N 0.31428 0.83934 0.33005 0.0
C1834 C 0.30949 0.81159 0.33868 0.0
C1835 C 0.26082 0.76603 0.3402 0.0
C1836 C 0.32883 0.39123 0.17489 0.0
C1837 C 0.30506 0.35515 0.18293 0.0
C1838 C 0.38258 0.41746 0.17336 0.0
C1839 C 0.41563 0.40886 0.17972 0.0
H1840 H 0.30569 0.39905 0.1696 0.0
H1841 H 0.39823 0.44415 0.16696 0.0
S1842 S 0.37441 0.31987 0.2021 0.0
N1843 N 0.3202 0.31367 0.19757 0.0
N1844 N 0.42049 0.36237 0.19459 0.0
C1845 C 0.39276 0.3737 0.1879 0.0
C1846 C 0.33791 0.34712 0.18953 0.0
C1847 C 0.65223 0.98856 0.17071 0.0
C1848 C 0.65154 0.02189 0.17825 0.0
C1849 C 0.67554 0.95866 0.1725 0.0
C1850 C 0.70012 0.96065 0.18192 0.0
H1851 H 0.63491 0.9858 0.16323 0.0
H1852 H 0.67502 0.93445 0.16626 0.0
S1853 S 0.70917 0.04196 0.20435 0.0
N1854 N 0.67732 0.05498 0.1956 0.0
N1855 N 0.72127 0.99917 0.19903 0.0
C1856 C 0.69907 0.99341 0.18963 0.0
C1857 C 0.67486 0.02381 0.18779 0.0
C1858 C 0.05289 0.71421 0.18868 0.0
C1859 C 0.09719 0.74634 0.18278 0.0
C1860 C 1.02518 0.66018 0.18733 0.0
C1861 C 0.04051 0.6356 0.18003 0.0
H1862 H 0.03854 0.73098 0.19422 0.0
H1863 H 0.99078 0.63765 0.19188 0.0
S1864 S 0.1561 0.70084 0.16323 0.0
N1865 N 0.15643 0.74807 0.16977 0.0
N1866 N 0.10509 0.64784 0.1673 0.0
C1867 C 0.0857 0.66705 0.17437 0.0
C1868 C 0.11371 0.72185 0.17571 0.0
C1869 C 0.39787 0.31678 0.35836 0.0
C1870 C 0.36286 0.29241 0.35019 0.0
C1871 C 0.42322 0.37044 0.35978 0.0
C1872 C 0.41455 0.40256 0.35318 0.0
H1873 H 0.40553 0.29418 0.36383 0.0
H1874 H 0.44913 0.38673 0.36627 0.0
S1875 S 0.32814 0.35949 0.33039 0.0
N1876 N 0.32231 0.30593 0.33518 0.0
N1877 N 0.36942 0.40608 0.33794 0.0
C1878 C 0.38052 0.37908 0.34486 0.0
C1879 C 0.35492 0.32439 0.34334 0.0
C1880 C 0.67607 0.06612 0.36018 0.0
C1881 C 0.64352 0.02569 0.35354 0.0
C1882 C 0.72992 0.09378 0.35882 0.0
C1883 C 0.75426 0.08281 0.35068 0.0
H1884 H 0.65993 0.07601 0.36666 0.0
H1885 H 0.75268 0.12374 0.36431 0.0
S1886 S 0.68632 0.98186 0.33079 0.0
N1887 N 0.6397 0.97707 0.3383 0.0
N1888 N 0.74018 0.02886 0.33564 0.0
C1889 C 0.7219 0.04319 0.34381 0.0
C1890 C 0.66696 1.01481 0.34526 0.0
C1891 C 1.00384 0.69086 0.34464 0.0
C1892 C 0.96203 0.68157 0.3511 0.0
C1893 C 0.03202 0.66503 0.34608 0.0
C1894 C 1.01965 0.62842 0.354 0.0
H1895 H 1.01589 0.71937 0.33858 0.0
H1896 H 0.0644 0.67459 0.34104 0.0
S1897 S 0.91143 0.58662 0.37254 0.0
N1898 N 0.90841 0.63052 0.36541 0.0
N1899 N 0.96053 0.58236 0.36801 0.0
C1900 C 0.97694 0.61755 0.36027 0.0
C1901 C 0.94849 0.64394 0.35885 0.0
C1902 C 0.67296 0.66524 0.84622 0.0
C1903 C 0.64817 0.62629 0.8537 0.0
C1904 C 0.72698 0.69136 0.84491 0.0
C1905 C 0.75886 0.6801 0.85109 0.0
H1906 H 0.65052 0.67628 0.84144 0.0
H1907 H 0.74396 0.72172 0.83921 0.0
S1908 S 0.71298 0.57877 0.87129 0.0
N1909 N 0.65996 0.57592 0.86696 0.0
N1910 N 0.76045 0.62479 0.86461 0.0
C1911 C 0.73427 0.64022 0.8584 0.0
C1912 C 0.67939 0.61343 0.85966 0.0
C1913 C 0.40108 0.09163 0.85822 0.0
C1914 C 0.36514 0.08013 0.85019 0.0
C1915 C 0.4272 0.06396 0.85958 0.0
C1916 C 0.41847 0.02291 0.85306 0.0
H1917 H 0.40894 0.12213 0.86363 0.0
H1918 H 0.45381 0.07433 0.86597 0.0
S1919 S 0.32989 0.97744 0.83062 0.0
N1920 N 0.32368 0.02497 0.83539 0.0
N1921 N 0.3723 0.97315 0.83802 0.0
C1922 C 0.3835 1.01147 0.84488 0.0
C1923 C 0.35708 0.03993 0.84343 0.0
C1924 C 1.00389 0.32553 0.84453 0.0
C1925 C 0.96625 0.29113 0.85157 0.0
C1926 C 0.033 0.37919 0.84646 0.0
C1927 C 1.02623 0.40072 0.85559 0.0
H1928 H 1.0119 0.31083 0.83758 0.0
H1929 H 0.06237 0.40358 0.84098 0.0
S1930 S 0.93036 0.32952 0.87614 0.0
N1931 N 0.92208 0.28482 0.86775 0.0
N1932 N 0.97685 0.38384 0.87136 0.0
C1933 C 0.98773 0.36719 0.86247 0.0
C1934 C 0.95781 0.31308 0.86048 0.0
C1935 C 0.65572 0.67248 0.66994 0.0
C1936 C 0.6508 0.63768 0.67775 0.0
C1937 C 0.67914 0.72569 0.67177 0.0
C1938 C 0.69955 0.74728 0.6815 0.0
H1939 H 0.64168 0.65854 0.66224 0.0
H1940 H 0.68215 0.75018 0.66536 0.0
S1941 S 0.69603 0.67277 0.70473 0.0
N1942 N 0.66763 0.62865 0.69571 0.0
N1943 N 0.71199 0.72828 0.69918 0.0
C1944 C 0.69425 0.71271 0.68946 0.0
C1945 C 0.66988 0.65822 0.68758 0.0
C1946 C 0.38448 0.97442 0.67344 0.0
C1947 C 0.4173 1.01515 0.67999 0.0
C1948 C 0.33076 0.94674 0.67492 0.0
C1949 C 0.30691 0.95802 0.68309 0.0
H1950 H 0.4003 0.96431 0.66693 0.0
H1951 H 0.30771 0.91654 0.66949 0.0
S1952 S 0.37576 0.05983 0.70279 0.0
N1953 N 0.42198 0.06439 0.69519 0.0
N1954 N 0.32168 1.01255 0.69808 0.0
C1955 C 0.33956 0.99792 0.68989 0.0
C1956 C 0.39436 0.02633 0.68832 0.0
C1957 C 0.07743 0.41889 0.67364 0.0
C1958 C 0.03603 0.4102 0.68011 0.0
C1959 C 0.10509 0.39267 0.67503 0.0
C1960 C 0.09319 0.35644 0.68302 0.0
H1961 H 0.08819 0.4457 0.66727 0.0
H1962 H 0.13587 0.40065 0.66967 0.0
S1963 S 0.98896 0.32039 0.70238 0.0
N1964 N 0.9852 0.36318 0.695 0.0
N1965 N 0.03688 0.31443 0.6977 0.0
C1966 C 0.05245 0.34818 0.68971 0.0
C1967 C 1.02408 0.3748 0.68824 0.0
C1968 C 0.98986 0.71928 0.50786 0.0
C1969 C 0.96586 0.68507 0.51618 0.0
C1970 C 0.04374 0.74561 0.5065 0.0
C1971 C 0.07638 0.73871 0.51331 0.0
H1972 H 0.96683 0.72549 0.50225 0.0
H1973 H 0.0598 0.77083 0.4999 0.0
S1974 S 0.03431 0.65536 0.53657 0.0
N1975 N 0.98029 0.64748 0.53157 0.0
N1976 N 0.08069 0.69629 0.52891 0.0
C1977 C 0.05319 0.70549 0.52176 0.0
C1978 C 0.99836 0.67895 0.52321 0.0
C1979 C 0.36997 0.32729 0.52163 0.0
C1980 C 0.3587 0.28423 0.51544 0.0
C1981 C 0.34455 0.3558 0.52025 0.0
C1982 C 0.30637 0.34257 0.51265 0.0
H1983 H 0.39961 0.33997 0.52747 0.0
H1984 H 0.35548 0.38898 0.52511 0.0
S1985 S 0.25972 0.23164 0.49476 0.0
N1986 N 0.30454 0.22892 0.50163 0.0
N1987 N 0.2571 0.28182 0.49913 0.0
C1988 C 0.29371 0.29887 0.5066 0.0
C1989 C 0.31971 0.27001 0.50795 0.0
C1990 C 0.74323 0.99818 0.5069 0.0
C1991 C 0.70192 0.96536 0.51335 0.0
C1992 C 0.77129 0.05173 0.50848 0.0
C1993 C 0.75983 0.07543 0.51665 0.0
H1994 H 0.75348 0.98251 0.50039 0.0
H1995 H 0.8019 0.07479 0.5031 0.0
S1996 S 0.65663 1.00644 0.53615 0.0
N1997 N 0.65198 0.96047 0.52848 0.0
N1998 N 0.7046 0.06047 0.53155 0.0
C1999 C 0.71941 0.04276 0.52336 0.0
C2000 C 0.69061 0.98811 0.5217 0.0
C2001 C 0.05221 0.71417 0.67986 0.0
C2002 C 0.09139 0.73844 0.6873 0.0
C2003 C 1.02591 0.6602 0.67843 0.0
C2004 C 0.03735 0.6278 0.68441 0.0
H2005 H 0.04095 0.73691 0.67523 0.0
H2006 H 0.99538 0.64369 0.67277 0.0
S2007 S 0.13963 0.6724 0.70438 0.0
N2008 N 0.14224 0.72561 0.70028 0.0
N2009 N 0.09332 0.62544 0.69768 0.0
C2010 C 0.07759 0.65196 0.69165 0.0
C2011 C 0.10439 0.70672 0.69306 0.0
C2012 C 0.33829 0.35061 0.67903 0.0
C2013 C 0.31414 0.36138 0.68723 0.0
C2014 C 0.39245 0.37819 0.67771 0.0
C2015 C 0.4252 0.41752 0.68459 0.0
H2016 H 0.31523 0.32002 0.67367 0.0
H2017 H 0.40883 0.3675 0.67139 0.0
S2018 S 0.38144 0.46329 0.70695 0.0
N2019 N 0.32778 0.41654 0.702 0.0
N2020 N 0.42824 0.46719 0.69963 0.0
C2021 C 0.40127 0.42939 0.69265 0.0
C2022 C 0.34633 0.40178 0.69393 0.0
C2023 C 0.65231 0.95564 0.69346 0.0
C2024 C 0.6932 0.96419 0.68687 0.0
C2025 C 0.62445 0.98161 0.69207 0.0
C2026 C 0.63576 1.01711 0.68396 0.0
H2027 H 0.6423 0.92936 0.6999 0.0
H2028 H 0.59408 0.97408 0.69751 0.0
S2029 S 0.73814 0.05183 0.66424 0.0
N2030 N 0.74265 1.00986 0.67173 0.0
N2031 N 0.69058 0.058 0.66903 0.0
C2032 C 0.67587 0.02501 0.67715 0.0
C2033 C 0.70441 0.99881 0.67863 0.0
C2034 C 0.33848 0.99475 0.17917 0.0
C2035 C 0.31434 0.9608 0.1875 0.0
C2036 C 0.39261 0.0213 0.17791 0.0
C2037 C 0.42529 1.01571 0.18499 0.0
H2038 H 0.31544 1.00148 0.17364 0.0
H2039 H 0.409 0.04757 0.17147 0.0
S2040 S 0.38155 0.92904 0.20779 0.0
N2041 N 0.32786 0.92121 0.20264 0.0
N2042 N 0.42842 0.97122 0.20039 0.0
C2043 C 0.40142 0.98097 0.19321 0.0
C2044 C 0.34646 0.95356 0.19442 0.0
C2045 C 0.06983 0.42598 0.19184 0.0
C2046 C 0.03432 0.41455 0.18373 0.0
C2047 C 0.09581 0.39821 0.19332 0.0
C2048 C 0.08756 0.3572 0.18682 0.0
H2049 H 0.07738 0.45645 0.19723 0.0
H2050 H 0.12202 0.40853 0.19978 0.0
S2051 S 0.99989 0.31159 0.16424 0.0
N2052 N 0.99358 0.35925 0.1689 0.0
N2053 N 0.04196 0.30732 0.17176 0.0
C2054 C 0.05299 0.34579 0.17856 0.0
C2055 C 1.0266 0.37427 0.177 0.0
C2056 C 0.63529 0.64914 0.19395 0.0
C2057 C 0.63767 0.62717 0.1845 0.0
C2058 C 0.665 0.70233 0.1958 0.0
C2059 C 0.69837 0.73677 0.18827 0.0
H2060 H 0.6111 0.62495 0.20015 0.0
H2061 H 0.66218 0.71653 0.2033 0.0
S2062 S 0.71911 0.7006 0.16211 0.0
N2063 N 0.67639 0.64548 0.16737 0.0
N2064 N 0.73182 0.74502 0.17092 0.0
C2065 C 0.70053 0.71591 0.1787 0.0
C2066 C 0.67042 0.66143 0.1768 0.0
C2067 C 0.34113 0.99033 0.02037 0.0
C2068 C 0.30275 0.96621 1.01278 0.0
C2069 C 0.36735 0.04415 0.02181 0.0
C2070 C 0.35678 0.07664 1.01567 0.0
H2071 H 0.35155 0.96748 0.02518 0.0
H2072 H 0.39704 0.06044 0.02764 0.0
S2073 S 0.25777 0.03268 0.99503 0.0
N2074 N 0.2541 0.97926 0.99933 0.0
N2075 N 0.30318 0.07952 1.00192 0.0
C2076 C 0.31768 0.05277 1.00819 0.0
C2077 C 0.29078 0.99799 1.00679 0.0
C2078 C 0.04546 0.32235 1.00438 0.0
C2079 C 0.08047 0.35385 1.01198 0.0
C2080 C 0.99228 0.29344 1.00628 0.0
C2081 C 0.97067 0.29465 1.0159 0.0
H2082 H 0.05918 0.32028 0.99676 0.0
H2083 H 0.96788 0.27069 0.99999 0.0
S2084 S 0.04581 0.37059 0.03861 0.0
N2085 N 0.08989 0.38388 0.02965 0.0
N2086 N 0.99003 0.33014 0.03327 0.0
C2087 C 1.00545 0.32553 0.02368 0.0
C2088 C 0.06009 0.35484 0.02172 0.0
C2089 C 0.7669 0.72094 1.00725 0.0
C2090 C 0.75563 0.68634 1.01553 0.0
C2091 C 0.74015 0.74801 1.00582 0.0
C2092 C 0.70008 0.74124 1.01249 0.0
H2093 H 0.79673 0.72723 1.00177 0.0
H2094 H 0.75046 0.77383 0.9993 0.0
S2095 S 0.65475 0.65544 0.03538 0.0
N2096 N 0.70137 0.64763 0.0306 0.0
N2097 N 0.65079 0.69736 0.02777 0.0
C2098 C 0.6885 0.70706 0.02083 0.0
C2099 C 0.71626 0.68003 0.02238 0.0
C2100 C 0.71695 0.0825 0.83953 0.0
C2101 C 0.74982 0.07543 0.84626 0.0
C2102 C 0.66313 0.05663 0.84101 0.0
C2103 C 0.63926 0.02267 0.84936 0.0
H2104 H 0.7328 0.10757 0.8329 0.0
H2105 H 0.64 0.06302 0.83545 0.0
S2106 S 0.70808 0.99174 0.86947 0.0
N2107 N 0.75431 0.03244 0.86175 0.0
N2108 N 0.65404 0.98465 0.86464 0.0
C2109 C 0.67194 1.01624 0.8563 0.0
C2110 C 0.72677 0.04229 0.85473 0.0
C2111 C 0.98328 0.65287 0.83809 0.0
C2112 C 0.98219 0.68623 0.84557 0.0
C2113 C 1.00657 0.62304 0.83998 0.0
C2114 C 0.03077 0.62513 0.84946 0.0
H2115 H 0.9664 0.6501 0.83057 0.0
H2116 H 1.00637 0.59885 0.83378 0.0
S2117 S 0.03855 0.70644 0.87179 0.0
N2118 N 1.00703 0.71937 0.86295 0.0
N2119 N 0.051 0.66368 0.86657 0.0
C2120 C 1.02921 0.65784 0.85713 0.0
C2121 C 1.00497 0.68816 0.85518 0.0
C2122 C 0.39827 0.33572 0.83716 0.0
C2123 C 0.36549 0.30101 0.84471 0.0
C2124 C 0.42818 0.38878 0.8391 0.0
C2125 C 0.42654 0.41023 0.84868 0.0
H2126 H 0.40041 0.32187 0.82957 0.0
H2127 H 0.45187 0.41329 0.83288 0.0
S2128 S 0.34698 0.33585 0.87116 0.0
N2129 N 0.33356 0.29186 0.86221 0.0
N2130 N 0.38931 0.39121 0.86593 0.0
C2131 C 0.39452 0.37568 0.85639 0.0
C2132 C 0.36421 0.32135 0.8544 0.0
C2133 C 0.72487 0.98504 0.02763 0.0
C2134 C 0.70233 0.964 0.018 0.0
C2135 C 0.74788 0.03808 0.02966 0.0
C2136 C 0.75011 0.07317 0.02217 0.0
H2137 H 0.72377 0.96023 0.0338 0.0
H2138 H 0.76355 0.05162 0.03728 0.0
S2139 S 0.69766 0.03938 0.99564 0.0
N2140 N 0.68474 0.98387 1.00076 0.0
N2141 N 0.72777 0.08295 1.00468 0.0
C2142 C 0.72884 0.05318 1.01244 0.0
C2143 C 0.7051 0.99895 1.01034 0.0
C2144 C 0.99884 0.68436 1.01338 0.0
C2145 C 0.97783 0.6861 0.023 0.0
C2146 C 0.05239 0.71412 1.01141 0.0
C2147 C 0.08727 0.74738 0.01894 0.0
H2148 H 0.97402 0.65866 1.00744 0.0
H2149 H 0.0666 0.71014 1.00399 0.0
S2150 S 0.05081 0.76881 0.04516 0.0
N2151 N 0.99592 0.72578 0.03993 0.0
N2152 N 0.09502 0.78169 0.03628 0.0
C2153 C 0.06605 0.75062 0.02845 0.0
C2154 C 1.01193 0.72006 0.03047 0.0
C2155 C 0.33967 0.35324 1.01143 0.0
C2156 C 0.30058 0.3473 0.01833 0.0
C2157 C 0.36716 0.32672 1.01286 0.0
C2158 C 0.35637 0.29248 0.02117 0.0
H2159 H 0.35025 0.37977 1.00502 0.0
H2160 H 0.39755 0.33364 1.00747 0.0
S2161 S 0.25509 0.25995 0.04102 0.0
N2162 N 0.2512 0.3023 0.03354 0.0
N2163 N 0.30155 0.25235 0.0361 0.0
C2164 C 0.3162 0.28493 0.02791 0.0
C2165 C 0.28877 0.3123 0.02653 0.0
C2166 C 0.06595 0.31245 0.52572 0.0
C2167 C 0.08938 0.34615 0.51732 0.0
C2168 C 1.01218 0.2863 0.52726 0.0
C2169 C 0.97889 0.29275 0.52054 0.0
H2170 H 0.08937 0.30652 0.53128 0.0
H2171 H 0.99671 0.26149 0.53393 0.0
S2172 S 1.01934 0.37511 0.49714 0.0
N2173 N 0.07372 0.38298 0.50195 0.0
N2174 N 0.97351 0.33467 0.50497 0.0
C2175 C 1.00148 0.32554 0.512 0.0
C2176 C 0.05628 0.3519 0.51037 0.0
C2177 C 0.68804 0.70488 0.51139 0.0
C2178 C 0.70006 0.74845 0.51746 0.0
C2179 C 0.71291 0.67597 0.51287 0.0
C2180 C 0.75117 0.68934 0.52046 0.0
H2181 H 0.65814 0.69203 0.50561 0.0
H2182 H 0.70138 0.6423 0.50813 0.0
S2183 S 0.80021 0.80205 0.53791 0.0
N2184 N 0.7554 0.80481 0.53104 0.0
N2185 N 0.80175 0.751 0.53373 0.0
C2186 C 0.76475 0.73369 0.52635 0.0
C2187 C 0.73936 0.76299 0.52488 0.0
C2188 C 0.28859 0.98213 0.52571 0.0
C2189 C 0.29868 0.95796 0.51743 0.0
C2190 C 0.31687 0.03587 0.52712 0.0
C2191 C 0.35708 0.06828 0.52039 0.0
H2192 H 0.25882 0.9593 0.53126 0.0
H2193 H 0.30767 0.05202 0.5337 0.0
S2194 S 0.3992 0.02557 0.49736 0.0
N2195 N 0.35182 0.97192 0.50222 0.0
N2196 N 0.40487 0.07207 0.50499 0.0
C2197 C 0.36717 0.04493 0.51199 0.0
C2198 C 0.3381 0.9902 0.51048 0.0
C2199 C 0.03447 0.38189 0.35536 0.0
C2200 C 1.02282 0.41387 0.34928 0.0
C2201 C 1.00857 0.32784 0.35402 0.0
C2202 C 0.96958 0.30302 0.34655 0.0
H2203 H 0.06483 0.3988 0.36105 0.0
H2204 H 1.01996 0.30548 0.35873 0.0
S2205 S 0.921 0.36771 0.32918 0.0
N2206 N 0.96689 0.41513 0.33586 0.0
N2207 N 0.91877 0.31488 0.33342 0.0
C2208 C 0.95643 0.3343 0.34068 0.0
C2209 C 0.9828 0.38913 0.34201 0.0
C2210 C 0.71865 0.69137 0.35396 0.0
C2211 C 0.74381 0.67947 0.34616 0.0
C2212 C 0.66466 0.66259 0.35527 0.0
C2213 C 0.63307 0.62071 0.3488 0.0
H2214 H 0.74077 0.72369 0.35902 0.0
H2215 H 0.6475 0.67422 0.36127 0.0
S2216 S 0.67995 0.57159 0.32755 0.0
N2217 N 0.73268 0.62099 0.33218 0.0
N2218 N 0.63219 0.56775 0.33454 0.0
C2219 C 0.65801 0.60777 0.34112 0.0
C2220 C 0.71292 0.6368 0.33984 0.0
C2221 C 0.39713 0.07055 0.3374 0.0
C2222 C 0.36273 0.07077 0.34476 0.0
C2223 C 0.42694 0.04734 0.3394 0.0
C2224 C 0.42354 0.02234 0.34884 0.0
H2225 H 0.40068 0.088 0.32991 0.0
H2226 H 0.45194 0.04798 0.33331 0.0
S2227 S 0.33928 1.01225 0.37082 0.0
N2228 N 0.32733 0.0444 0.36196 0.0
N2229 N 0.38287 1.00048 0.36577 0.0
C2230 C 0.38979 0.02304 0.35637 0.0
C2231 C 0.35963 0.04725 0.35433 0.0
C2232 C 0.18793 0.39827 0.09651 0.0
C2233 C 0.20482 0.37293 0.0898 0.0
C2234 C 0.18156 0.38724 0.1071 0.0
C2235 C 0.19195 0.35047 0.11145 0.0
H2236 H 0.17809 0.42588 0.0935 0.0
H2237 H 0.16689 0.40664 0.11186 0.0
S2238 S 0.24229 0.27724 0.0974 0.0
N2239 N 0.23513 0.31191 0.08836 0.0
N2240 N 0.22366 0.29144 0.1083 0.0
C2241 C 0.21034 0.32592 0.10488 0.0
C2242 C 0.21664 0.33705 0.09406 0.0
C2243 C 0.69461 0.79454 0.09351 0.0
C2244 C 0.69087 0.83325 0.08813 0.0
C2245 C 0.70265 0.7973 0.10422 0.0
C2246 C 0.70776 0.8391 0.11005 0.0
H2247 H 0.69047 0.76125 0.08944 0.0
H2248 H 0.70525 0.76645 0.10796 0.0
S2249 S 0.70162 0.95106 0.09972 0.0
N2250 N 0.69356 0.91518 0.08947 0.0
N2251 N 0.70843 0.92023 0.10961 0.0
C2252 C 0.70452 0.87835 0.10478 0.0
C2253 C 0.69596 0.87537 0.09385 0.0
C2254 C 0.2461 0.86494 0.10645 0.0
C2255 C 0.20099 0.86075 0.1107 0.0
C2256 C 0.25033 0.85833 0.09584 0.0
C2257 C 0.2097 0.84733 0.08899 0.0
H2258 H 0.27908 0.87491 0.11131 0.0
H2259 H 0.28637 0.86331 0.09293 0.0
S2260 S 0.08144 0.82709 0.09629 0.0
N2261 N 0.11339 0.84105 0.10729 0.0
N2262 N 0.12159 0.82906 0.08735 0.0
C2263 C 0.1639 0.84169 0.09316 0.0
C2264 C 0.15949 0.84826 0.10399 0.0
C2265 C 0.40135 0.20769 0.43726 0.0
C2266 C 0.36654 0.17115 0.44431 0.0
C2267 C 0.39132 0.20305 0.42661 0.0
C2268 C 0.346 0.16175 0.42258 0.0
H2269 H 0.43704 0.23982 0.43998 0.0
H2270 H 0.41957 0.23172 0.42147 0.0
S2271 S 0.24318 0.05471 0.43766 0.0
N2272 N 0.2853 0.09172 0.44643 0.0
N2273 N 0.26638 0.08317 0.42646 0.0
C2274 C 0.31046 0.12541 0.42954 0.0
C2275 C 0.32072 0.13007 0.44038 0.0
C2276 C 0.90088 0.17602 0.42946 0.0
C2277 C 0.87586 0.19298 0.42267 0.0
C2278 C 0.89787 0.18004 0.44022 0.0
C2279 C 0.86937 0.20078 0.44465 0.0
H2280 H 0.92452 0.16118 0.42645 0.0
H2281 H 0.91871 0.16746 0.44511 0.0
S2282 S 0.79418 0.24793 0.43027 0.0
N2283 N 0.81927 0.22869 0.42118 0.0
N2284 N 0.81437 0.23713 0.44133 0.0
C2285 C 0.84281 0.21635 0.43794 0.0
C2286 C 0.84596 0.21235 0.42699 0.0
C2287 C 0.86429 0.65673 0.42665 0.0
C2288 C 0.86554 0.70101 0.42273 0.0
C2289 C 0.85899 0.64581 0.43728 0.0
C2290 C 0.85437 0.67853 0.44446 0.0
H2291 H 0.86709 0.63009 0.42143 0.0
H2292 H 0.85795 0.61109 0.4399 0.0
S2293 S 0.85247 0.79798 0.43809 0.0
N2294 N 0.86039 0.77711 0.42685 0.0
N2295 N 0.84978 0.75639 0.44674 0.0
C2296 C 0.8559 0.72312 0.44063 0.0
C2297 C 0.86157 0.73435 0.42981 0.0
C2298 C 0.90901 0.73925 0.93012 0.0
C2299 C 0.87974 0.69899 0.9232 0.0
C2300 C 0.9049 0.73119 0.94084 0.0
C2301 C 0.8711 0.68262 0.9451 0.0
H2302 H 0.93679 0.77689 0.92722 0.0
H2303 H 0.92917 0.76311 0.94583 0.0
S2304 S 0.7832 0.5653 0.93033 0.0
N2305 N 0.81335 0.60958 0.9214 0.0
N2306 N 0.80636 0.59409 0.94149 0.0
C2307 C 0.8402 0.64251 0.93827 0.0
C2308 C 0.84444 0.65073 0.92735 0.0
C2309 C 0.32601 0.21323 0.92978 0.0
C2310 C 0.34872 0.1932 0.92313 0.0
C2311 C 0.33622 0.21822 0.94042 0.0
C2312 C 0.3695 0.20328 0.94488 0.0
H2313 H 0.30112 0.22645 0.92671 0.0
H2314 H 0.31894 0.23527 0.94514 0.0
S2315 S 0.43457 0.1436 0.931 0.0
N2316 N 0.40331 0.15514 0.92187 0.0
N2317 N 0.42221 0.16409 0.94186 0.0
C2318 C 0.39135 0.18185 0.93835 0.0
C2319 C 0.38106 0.17693 0.9275 0.0
C2320 C 0.80562 0.15986 0.92649 0.0
C2321 C 0.85338 0.17175 0.92218 0.0
C2322 C 0.8002 0.16518 0.93711 0.0
C2323 C 0.84226 0.18249 0.94389 0.0
H2324 H 0.77171 0.14483 0.92167 0.0
H2325 H 0.76236 0.15419 0.94008 0.0
S2326 S 0.9767 0.22406 0.93639 0.0
N2327 N 0.94439 0.2055 0.92545 0.0
N2328 N 0.93405 0.21509 0.9454 0.0
C2329 C 0.89052 0.19593 0.93965 0.0
C2330 C 0.89611 0.19067 0.92882 0.0
C2331 C 0.6886 0.82919 0.59475 0.0
C2332 C 0.68632 0.86836 0.58922 0.0
C2333 C 0.69677 0.83275 0.60549 0.0
C2334 C 0.70193 0.87513 0.61112 0.0
H2335 H 0.68477 0.79592 0.59071 0.0
H2336 H 0.69867 0.80197 0.60943 0.0
S2337 S 0.69799 0.98745 0.60032 0.0
N2338 N 0.68902 0.95036 0.59025 0.0
N2339 N 0.70464 0.9572 0.61031 0.0
C2340 C 0.69933 0.91427 0.60568 0.0
C2341 C 0.69147 0.91085 0.59478 0.0
C2342 C 0.18329 0.87484 0.59327 0.0
C2343 C 0.19256 0.83666 0.58928 0.0
C2344 C 0.17753 0.87918 0.60393 0.0
C2345 C 0.18053 0.84537 0.61107 0.0
H2346 H 0.1802 0.90145 0.58808 0.0
H2347 H 0.17025 0.90908 0.6066 0.0
S2348 S 0.20101 0.7367 0.60456 0.0
N2349 N 0.20285 0.76339 0.59332 0.0
N2350 N 0.19161 0.7712 0.61327 0.0
C2351 C 0.18999 0.80715 0.60718 0.0
C2352 C 0.19605 0.80287 0.59633 0.0
C2353 C 0.19746 0.38768 0.59574 0.0
C2354 C 0.20451 0.35613 0.58866 0.0
C2355 C 0.1935 0.37771 0.6064 0.0
C2356 C 0.19603 0.33557 0.61043 0.0
H2357 H 0.19563 0.42081 0.59303 0.0
H2358 H 0.18879 0.40343 0.61155 0.0
S2359 S 0.21634 0.24237 0.59534 0.0
N2360 N 0.21534 0.28172 0.58657 0.0
N2361 N 0.20711 0.26268 0.60653 0.0
C2362 C 0.20233 0.3033 0.60345 0.0
C2363 C 0.20669 0.3136 0.5926 0.0
C2364 C 1.02722 0.53157 0.7619 0.0
C2365 C 1.02746 0.49234 0.756 0.0
C2366 C 0.03509 0.53445 0.77265 0.0
C2367 C 0.04245 0.49763 0.77791 0.0
H2368 H 1.02122 0.56038 0.75817 0.0
H2369 H 0.03453 0.56516 0.7769 0.0
S2370 S 0.04623 0.38727 0.76606 0.0
N2371 N 0.03553 0.41585 0.75628 0.0
N2372 N 0.05047 0.42142 0.77636 0.0
C2373 C 0.04287 0.45838 0.77209 0.0
C2374 C 0.03534 0.45571 0.76118 0.0
C2375 C 0.58625 0.53526 0.76321 0.0
C2376 C 0.5442 0.51541 0.75639 0.0
C2377 C 0.5799 0.53959 0.77383 0.0
C2378 C 0.53118 0.52411 0.77812 0.0
H2379 H 0.62474 0.54894 0.76029 0.0
H2380 H 0.6138 0.55667 0.77868 0.0
S2381 S 0.40783 0.46459 0.76374 0.0
N2382 N 0.45163 0.47694 0.75478 0.0
N2383 N 0.43952 0.48455 0.77473 0.0
C2384 C 0.48855 0.50278 0.77142 0.0
C2385 C 0.49509 0.49858 0.76058 0.0
C2386 C 0.50304 0.05309 0.76287 0.0
C2387 C 0.52964 0.0377 0.75614 0.0
C2388 C 0.49946 0.04237 0.77348 0.0
C2389 C 0.52246 1.01589 0.77786 0.0
H2390 H 0.48384 0.07275 0.75988 0.0
H2391 H 0.4774 0.05396 0.77825 0.0
S2392 S 0.6003 0.97096 0.76376 0.0
N2393 N 0.58172 0.99692 0.75472 0.0
N2394 N 0.5754 0.9771 0.77467 0.0
C2395 C 0.55003 1.00108 0.77126 0.0
C2396 C 0.55351 1.01187 0.76042 0.0
C2397 C 0.52345 0.97868 0.26007 0.0
C2398 C 0.54077 0.02777 0.25581 0.0
C2399 C 0.51881 0.97056 0.27079 0.0
C2400 C 0.53166 1.01126 0.27772 0.0
H2401 H 0.51429 0.94636 0.25508 0.0
H2402 H 0.50692 0.93242 0.27368 0.0
S2403 S 0.57588 0.14656 0.27059 0.0
N2404 N 0.56899 0.11736 0.25943 0.0
N2405 N 0.55931 0.10182 0.27952 0.0
C2406 C 0.54725 0.06014 0.27357 0.0
C2407 C 0.5519 0.06843 0.26265 0.0
C2408 C 0.98837 0.51366 0.27335 0.0
C2409 C 0.03774 0.53473 0.27772 0.0
C2410 C 0.98106 0.50873 0.26261 0.0
C2411 C 1.02285 0.52501 0.25577 0.0
H2412 H 0.9551 0.50163 0.27826 0.0
H2413 H 0.94249 0.49377 0.25963 0.0
S2414 S 0.15968 0.58019 0.26324 0.0
N2415 N 0.12899 0.57048 0.27432 0.0
N2416 N 0.11509 0.56026 0.2542 0.0
C2417 C 0.07222 0.54456 0.26005 0.0
C2418 C 0.07968 0.54953 0.27099 0.0
C2419 C 0.55062 0.53216 0.26089 0.0
C2420 C 0.51222 0.48932 0.25555 0.0
C2421 C 0.54746 0.53746 0.27163 0.0
C2422 C 0.50631 0.49962 0.27746 0.0
H2423 H 0.58294 0.56217 0.25671 0.0
H2424 H 0.57761 0.57122 0.2754 0.0
S2425 S 0.39637 0.37973 0.26721 0.0
N2426 N 0.43229 0.40806 0.25698 0.0
N2427 N 0.42618 0.41812 0.27703 0.0
C2428 C 0.46797 0.45648 0.27221 0.0
C2429 C 0.47096 0.45132 0.26131 0.0
C2430 C 0.9864 0.14471 0.26956 0.0
C2431 C 1.01085 0.18172 0.27736 0.0
C2432 C 1.00464 0.15388 0.25934 0.0
C2433 C 0.04826 0.20048 0.25644 0.0
H2434 H 0.9527 0.10819 0.27136 0.0
H2435 H 0.98434 0.12405 0.25366 0.0
S2436 S 0.12777 0.30928 0.27399 0.0
N2437 N 0.08178 0.2665 0.28149 0.0
N2438 N 0.11625 0.28366 0.26235 0.0
C2439 C 0.07294 0.23801 0.26415 0.0
C2440 C 0.05424 0.22867 0.27457 0.0
C2441 C 0.91062 0.87576 0.27084 0.0
C2442 C 0.86924 0.8479 0.27768 0.0
C2443 C 0.90276 0.88634 0.26063 0.0
C2444 C 0.85305 0.86956 0.25673 0.0
H2445 H 0.94962 0.88931 0.27339 0.0
H2446 H 0.93608 0.90772 0.25574 0.0
S2447 S 0.73148 0.79751 0.27155 0.0
N2448 N 0.77654 0.80511 0.27983 0.0
N2449 N 0.76174 0.82494 0.26071 0.0
C2450 C 0.81123 0.84158 0.26346 0.0
C2451 C 0.81929 0.83079 0.27388 0.0
C2452 C 0.24492 0.05603 0.26976 0.0
C2453 C 0.20427 0.04129 0.27684 0.0
C2454 C 0.23598 0.03604 0.25965 0.0
C2455 C 0.18602 1.00057 0.25623 0.0
H2456 H 0.28375 0.08431 0.27194 0.0
H2457 H 0.2682 0.04953 0.25438 0.0
S2458 S 0.06757 0.94408 0.27221 0.0
N2459 N 0.11302 0.98517 0.27999 0.0
N2460 N 0.09628 0.94788 0.26112 0.0
C2461 C 0.14548 0.98401 0.26339 0.0
C2462 C 0.15457 1.00426 0.27364 0.0
C2463 C 0.04979 0.88727 0.77443 0.0
C2464 C 1.00535 0.84094 0.77713 0.0
C2465 C 0.06964 0.8964 0.76434 0.0
C2466 C 0.04594 0.85977 0.75645 0.0
H2467 H 0.06962 0.91678 0.7802 0.0
H2468 H 0.10413 0.9325 0.76272 0.0
S2469 S 0.9272 0.73314 0.75928 0.0
N2470 N 0.9374 0.75844 0.77094 0.0
N2471 N 0.97459 0.7757 0.75201 0.0
C2472 C 1.00157 0.81317 0.75903 0.0
C2473 C 0.98135 0.80379 0.76933 0.0
C2474 C 0.21393 0.2225 0.76262 0.0
C2475 C 0.19312 0.18392 0.75501 0.0
C2476 C 0.22268 0.21172 0.77277 0.0
C2477 C 0.21092 0.1619 0.77573 0.0
H2478 H 0.22212 0.26103 0.76082 0.0
H2479 H 0.23734 0.24234 0.77841 0.0
S2480 S 0.1624 0.04891 0.75838 0.0
N2481 N 0.16568 0.09503 0.75094 0.0
N2482 N 0.18192 0.07483 0.7699 0.0
C2483 C 0.19202 0.12352 0.76808 0.0
C2484 C 0.18319 0.13448 0.75777 0.0
C2485 C 0.91221 0.05949 0.76922 0.0
C2486 C 0.87242 0.04146 0.7766 0.0
C2487 C 0.90296 0.04151 0.75899 0.0
C2488 C 0.85345 1.00453 0.75561 0.0
H2489 H 0.95103 0.088 0.77136 0.0
H2490 H 0.93504 0.05684 0.75366 0.0
S2491 S 0.73607 0.94307 0.77196 0.0
N2492 N 0.78155 0.9835 0.77982 0.0
N2493 N 0.7642 0.94956 0.76066 0.0
C2494 C 0.81317 0.98635 0.7629 0.0
C2495 C 0.82261 1.00478 0.77334 0.0
C2496 C 0.66087 0.52499 0.60389 0.0
C2497 C 0.67368 0.49634 0.61066 0.0
C2498 C 0.67914 0.53521 0.59364 0.0
C2499 C 0.71095 0.51716 0.58968 0.0
H2500 H 0.63557 0.53871 0.60646 0.0
H2501 H 0.66737 0.55656 0.58871 0.0
S2502 S 0.76099 0.44577 0.60455 0.0
N2503 N 0.72387 0.45386 0.61284 0.0
N2504 N 0.75783 0.4728 0.59369 0.0
C2505 C 0.72524 0.48977 0.59647 0.0
C2506 C 0.70675 0.47946 0.60689 0.0
C2507 C 0.57659 0.19021 0.6025 0.0
C2508 C 0.53741 0.17106 0.61002 0.0
C2509 C 0.56736 0.19943 0.59232 0.0
C2510 C 0.51851 0.18995 0.58916 0.0
H2511 H 0.61487 0.1981 0.60451 0.0
H2512 H 0.59888 0.21418 0.58685 0.0
S2513 S 0.40319 0.14184 0.60592 0.0
N2514 N 0.44802 0.14403 0.61362 0.0
N2515 N 0.43069 0.16147 0.59451 0.0
C2516 C 0.47884 0.17048 0.59657 0.0
C2517 C 0.48827 0.16103 0.60697 0.0
C2518 C 0.82719 0.33204 0.60774 0.0
C2519 C 0.87577 0.37224 0.6108 0.0
C2520 C 0.81785 0.31327 0.59757 0.0
C2521 C 0.85663 0.33381 0.58997 0.0
H2522 H 0.79602 0.31473 0.61327 0.0
H2523 H 0.77986 0.28213 0.59566 0.0
S2524 S 0.98969 0.44155 0.59375 0.0
N2525 N 0.96266 0.43326 0.60522 0.0
N2526 N 0.94513 0.39794 0.58617 0.0
C2527 C 0.90539 0.374 0.59291 0.0
C2528 C 0.91493 0.39318 0.60328 0.0
C2529 C 0.73064 0.24547 0.09754 0.0
C2530 C 0.72024 0.20576 0.09049 0.0
C2531 C 0.71016 0.23505 0.1076 0.0
C2532 C 0.67827 0.18438 0.11112 0.0
H2533 H 0.75513 0.28518 0.09529 0.0
H2534 H 0.71962 0.26714 0.11268 0.0
S2535 S 0.63687 0.06631 0.09561 0.0
N2536 N 0.6744 0.11347 0.08772 0.0
N2537 N 0.63609 0.09396 0.10656 0.0
C2538 C 0.66764 0.14422 0.10417 0.0
C2539 C 0.68851 0.15485 0.09391 0.0
C2540 C 0.9001 0.53251 0.10319 0.0
C2541 C 0.86274 0.514 0.11108 0.0
C2542 C 0.88825 0.54042 0.09307 0.0
C2543 C 0.83848 0.53008 0.09039 0.0
H2544 H 0.93854 0.5397 0.10477 0.0
H2545 H 0.91804 0.55357 0.08725 0.0
S2546 S 0.72839 0.48711 0.10845 0.0
N2547 N 0.77499 0.48983 0.11566 0.0
N2548 N 0.75279 0.50443 0.09675 0.0
C2549 C 0.80125 0.51314 0.09829 0.0
C2550 C 0.81333 0.5052 0.10858 0.0
C2551 C 0.57104 0.3993 0.10186 0.0
C2552 C 0.53326 0.37913 0.10965 0.0
C2553 C 0.56095 0.37885 0.09184 0.0
C2554 C 0.51255 0.33733 0.08913 0.0
H2555 H 0.609 0.4311 0.10353 0.0
H2556 H 0.59155 0.39557 0.08617 0.0
S2557 S 0.40039 0.26982 0.10666 0.0
N2558 N 0.44539 0.31493 0.11394 0.0
N2559 N 0.42637 0.27657 0.09512 0.0
C2560 C 0.47403 0.31736 0.09678 0.0
C2561 C 0.48437 0.33821 0.10701 0.0
C2562 C 0.35128 0.88068 0.92695 0.0
C2563 C 0.38559 0.86502 0.92334 0.0
C2564 C 0.33285 0.87117 0.93719 0.0
C2565 C 0.34808 0.84576 0.94431 0.0
H2566 H 0.33757 0.89938 0.92174 0.0
H2567 H 0.30542 0.88272 0.93948 0.0
S2568 S 0.44256 0.80297 0.93915 0.0
N2569 N 0.43742 0.82675 0.92802 0.0
N2570 N 0.40339 0.80937 0.94717 0.0
C2571 C 0.38382 0.83159 0.94088 0.0
C2572 C 0.40238 0.84108 0.93046 0.0
C2573 C 0.242 0.51671 0.93606 0.0
C2574 C 0.2091 0.50889 0.94447 0.0
C2575 C 0.23086 0.52684 0.92609 0.0
C2576 C 0.18623 0.52958 0.92403 0.0
H2577 H 0.27684 0.51499 0.93718 0.0
H2578 H 0.25761 0.53268 0.91992 0.0
S2579 S 0.08817 0.51393 0.94336 0.0
N2580 N 0.13027 0.50569 0.95005 0.0
N2581 N 0.10933 0.52454 0.93134 0.0
C2582 C 0.15265 0.52132 0.93233 0.0
C2583 C 0.16406 0.51106 0.94252 0.0
C2584 C 0.49073 0.65455 0.92979 0.0
C2585 C 0.53059 0.67149 0.92244 0.0
C2586 C 0.50003 0.67364 0.93994 0.0
C2587 C 0.54965 0.71064 0.94324 0.0
H2588 H 0.45188 0.62589 0.9277 0.0
H2589 H 0.46796 0.65905 0.94526 0.0
S2590 S 0.66699 0.77019 0.9269 0.0
N2591 N 0.62146 0.72898 0.91914 0.0
N2592 N 0.63891 0.76494 0.93815 0.0
C2593 C 0.5899 0.72802 0.93598 0.0
C2594 C 0.58041 0.70849 0.92563 0.0
C2595 C 0.38989 0.55031 0.4408 0.0
C2596 C 0.34628 0.5037 0.44373 0.0
C2597 C 0.40733 0.56 0.43052 0.0
C2598 C 0.38206 0.52358 0.42265 0.0
H2599 H 0.4109 0.57972 0.44652 0.0
H2600 H 0.44115 0.59643 0.42872 0.0
S2601 S 0.26451 0.39644 0.42603 0.0
N2602 N 0.27725 0.42129 0.43774 0.0
N2603 N 0.31011 0.43943 0.4185 0.0
C2604 C 0.33856 0.47671 0.42546 0.0
C2605 C 0.3207 0.46682 0.43594 0.0
C2606 C 0.55058 0.89718 0.42902 0.0
C2607 C 0.52501 0.85669 0.42191 0.0
C2608 C 0.56035 0.88804 0.43921 0.0
C2609 C 0.54479 0.83801 0.44272 0.0
H2610 H 0.56181 0.93611 0.42679 0.0
H2611 H 0.57889 0.92021 0.44446 0.0
S2612 S 0.48278 0.71954 0.42683 0.0
N2613 N 0.48889 0.76525 0.41889 0.0
N2614 N 0.50679 0.74814 0.43796 0.0
C2615 C 0.52099 0.7975 0.43558 0.0
C2616 C 0.51123 0.8068 0.42522 0.0
C2617 C 0.19864 0.65794 0.44119 0.0
C2618 C 0.19493 0.70113 0.44409 0.0
C2619 C 0.19052 0.64021 0.43094 0.0
C2620 C 0.17821 0.66475 0.4231 0.0
H2621 H 0.20801 0.63757 0.44689 0.0
H2622 H 0.19388 0.60683 0.42915 0.0
S2623 S 0.16595 0.78072 0.42644 0.0
N2624 N 0.17935 0.76884 0.43812 0.0
N2625 N 0.16383 0.73534 0.41894 0.0
C2626 C 0.17393 0.70771 0.42589 0.0
C2627 C 0.18232 0.72589 0.43634 0.0
loop_
_geom_bond_atom_site_label_1
_geom_bond_atom_site_label_2
_geom_bond_distance
_geom_bond_site_symmetry_2
_ccdc_geom_bond_type
Gd0 C3 2.818 . S
Gd0 O20 2.377 . S
Gd0 O22 2.448 . S
Gd0 O23 2.506 . S
Gd0 O24 2.435 . S
Gd0 O25 2.717 . S
Gd0 O27 2.395 . S
Gd0 O31 2.327 . S
Gd1 C12 2.818 . S
Gd1 O21 2.395 . S
Gd1 O25 2.327 . S
Gd1 O26 2.377 . S
Gd1 O28 2.448 . S
Gd1 O29 2.506 . S
Gd1 O30 2.435 . S
Gd1 O31 2.717 . S
C2 O20 1.240 . S
C2 O21 1.240 . S
C3 Gd0 2.818 . S
C3 C4 1.510 . S
C3 O22 1.249 . S
C3 O23 1.252 . S
C4 C3 1.510 . S
C4 C5 1.404 . S
C4 C6 1.352 . S
C5 C4 1.404 . S
C5 C9 1.389 . S
C5 H32 0.930 . S
C6 C4 1.352 . S
C6 C8 1.374 . S
C6 H33 0.931 . S
C7 C8 1.359 . S
C7 C9 1.364 . S
C8 C6 1.374 . S
C8 C7 1.359 . S
C8 H34 0.931 . S
C9 C5 1.389 . S
C9 C7 1.364 . S
C9 H35 0.931 . S
C10 O24 1.256 . S
C10 O25 1.257 . S
C11 O26 1.240 . S
C11 O27 1.240 . S
C12 Gd1 2.818 . S
C12 C13 1.510 . S
C12 O28 1.249 . S
C12 O29 1.252 . S
C13 C12 1.510 . S
C13 C14 1.404 . S
C13 C15 1.352 . S
C14 C13 1.404 . S
C14 C18 1.389 . S
C14 H36 0.930 . S
C15 C13 1.352 . S
C15 C17 1.374 . S
C15 H37 0.931 . S
C16 C17 1.359 . S
C16 C18 1.364 . S
C17 C15 1.374 . S
C17 C16 1.359 . S
C17 H38 0.931 . S
C18 C14 1.389 . S
C18 C16 1.364 . S
C18 H39 0.931 . S
C19 O30 1.256 . S
C19 O31 1.257 . S
O20 Gd0 2.377 . S
O20 C2 1.240 . S
O21 Gd1 2.395 . S
O21 C2 1.240 . S
O22 Gd0 2.448 . S
O22 C3 1.249 . S
O23 Gd0 2.506 . S
O23 C3 1.252 . S
O24 Gd0 2.435 . S
O24 C10 1.256 . S
O25 Gd0 2.717 . S
O25 Gd1 2.327 . S
O25 C10 1.257 . S
O26 Gd1 2.377 . S
O26 C11 1.240 . S
O27 Gd0 2.395 . S
O27 C11 1.240 . S
O28 Gd1 2.448 . S
O28 C12 1.249 . S
O29 Gd1 2.506 . S
O29 C12 1.252 . S
O30 Gd1 2.435 . S
O30 C19 1.256 . S
O31 Gd0 2.327 . S
O31 Gd1 2.717 . S
O31 C19 1.257 . S
H32 C5 0.930 . S
H33 C6 0.931 . S
H34 C8 0.931 . S
H35 C9 0.931 . S
H36 C14 0.930 . S
H37 C15 0.931 . S
H38 C17 0.931 . S
H39 C18 0.931 . S
Gd40 C43 2.818 . S
Gd40 O60 2.377 . S
Gd40 O62 2.448 . S
Gd40 O63 2.506 . S
Gd40 O64 2.435 . S
Gd40 O65 2.717 . S
Gd40 O67 2.395 . S
Gd40 O71 2.327 . S
Gd41 C52 2.818 . S
Gd41 O61 2.395 . S
Gd41 O65 2.327 . S
Gd41 O66 2.377 . S
Gd41 O68 2.448 . S
Gd41 O69 2.506 . S
Gd41 O70 2.435 . S
Gd41 O71 2.717 . S
C42 O60 1.240 . S
C42 O61 1.240 . S
C43 Gd40 2.818 . S
C43 C44 1.510 . S
C43 O62 1.249 . S
C43 O63 1.252 . S
C44 C43 1.510 . S
C44 C45 1.404 . S
C44 C46 1.352 . S
C45 C44 1.404 . S
C45 C49 1.389 . S
C45 H72 0.930 . S
C46 C44 1.352 . S
C46 C48 1.374 . S
C46 H73 0.931 . S
C47 C48 1.359 . S
C47 C49 1.364 . S
C48 C46 1.374 . S
C48 C47 1.359 . S
C48 H74 0.931 . S
C49 C45 1.389 . S
C49 C47 1.364 . S
C49 H75 0.931 . S
C50 O64 1.256 . S
C50 O65 1.257 . S
C51 O66 1.240 . S
C51 O67 1.240 . S
C52 Gd41 2.818 . S
C52 C53 1.510 . S
C52 O68 1.249 . S
C52 O69 1.252 . S
C53 C52 1.510 . S
C53 C54 1.404 . S
C53 C55 1.352 . S
C54 C53 1.404 . S
C54 C58 1.389 . S
C54 H76 0.930 . S
C55 C53 1.352 . S
C55 C57 1.374 . S
C55 H77 0.931 . S
C56 C57 1.359 . S
C56 C58 1.364 . S
C57 C55 1.374 . S
C57 C56 1.359 . S
C57 H78 0.931 . S
C58 C54 1.389 . S
C58 C56 1.364 . S
C58 H79 0.931 . S
C59 O70 1.256 . S
C59 O71 1.257 . S
O60 Gd40 2.377 . S
O60 C42 1.240 . S
O61 Gd41 2.395 . S
O61 C42 1.240 . S
O62 Gd40 2.448 . S
O62 C43 1.249 . S
O63 Gd40 2.506 . S
O63 C43 1.252 . S
O64 Gd40 2.435 . S
O64 C50 1.256 . S
O65 Gd40 2.717 . S
O65 Gd41 2.327 . S
O65 C50 1.257 . S
O66 Gd41 2.377 . S
O66 C51 1.240 . S
O67 Gd40 2.395 . S
O67 C51 1.240 . S
O68 Gd41 2.448 . S
O68 C52 1.249 . S
O69 Gd41 2.506 . S
O69 C52 1.252 . S
O70 Gd41 2.435 . S
O70 C59 1.256 . S
O71 Gd40 2.327 . S
O71 Gd41 2.717 . S
O71 C59 1.257 . S
H72 C45 0.930 . S
H73 C46 0.931 . S
H74 C48 0.931 . S
H75 C49 0.931 . S
H76 C54 0.930 . S
H77 C55 0.931 . S
H78 C57 0.931 . S
H79 C58 0.931 . S
Gd80 C83 2.818 . S
Gd80 O100 2.377 . S
Gd80 O102 2.448 . S
Gd80 O103 2.506 . S
Gd80 O104 2.435 . S
Gd80 O105 2.717 . S
Gd80 O107 2.395 . S
Gd80 O111 2.327 . S
Gd81 C92 2.818 . S
Gd81 O101 2.395 . S
Gd81 O105 2.327 . S
Gd81 O106 2.377 . S
Gd81 O108 2.448 . S
Gd81 O109 2.506 . S
Gd81 O110 2.435 . S
Gd81 O111 2.717 . S
C82 O100 1.240 . S
C82 O101 1.240 . S
C83 Gd80 2.818 . S
C83 C84 1.510 . S
C83 O102 1.249 . S
C83 O103 1.252 . S
C84 C83 1.510 . S
C84 C85 1.404 . S
C84 C86 1.352 . S
C85 C84 1.404 . S
C85 C89 1.389 . S
C85 H112 0.930 . S
C86 C84 1.352 . S
C86 C88 1.374 . S
C86 H113 0.931 . S
C87 C88 1.359 . S
C87 C89 1.364 . S
C88 C86 1.374 . S
C88 C87 1.359 . S
C88 H114 0.931 . S
C89 C85 1.389 . S
C89 C87 1.364 . S
C89 H115 0.931 . S
C90 O104 1.256 . S
C90 O105 1.257 . S
C91 O106 1.240 . S
C91 O107 1.240 . S
C92 Gd81 2.818 . S
C92 C93 1.510 . S
C92 O108 1.249 . S
C92 O109 1.252 . S
C93 C92 1.510 . S
C93 C94 1.404 . S
C93 C95 1.352 . S
C94 C93 1.404 . S
C94 C98 1.389 . S
C94 H116 0.930 . S
C95 C93 1.352 . S
C95 C97 1.374 . S
C95 H117 0.931 . S
C96 C97 1.359 . S
C96 C98 1.364 . S
C97 C95 1.374 . S
C97 C96 1.359 . S
C97 H118 0.931 . S
C98 C94 1.389 . S
C98 C96 1.364 . S
C98 H119 0.931 . S
C99 O110 1.256 . S
C99 O111 1.257 . S
O100 Gd80 2.377 . S
O100 C82 1.240 . S
O101 Gd81 2.395 . S
O101 C82 1.240 . S
O102 Gd80 2.448 . S
O102 C83 1.249 . S
O103 Gd80 2.506 . S
O103 C83 1.252 . S
O104 Gd80 2.435 . S
O104 C90 1.256 . S
O105 Gd80 2.717 . S
O105 Gd81 2.327 . S
O105 C90 1.257 . S
O106 Gd81 2.377 . S
O106 C91 1.240 . S
O107 Gd80 2.395 . S
O107 C91 1.240 . S
O108 Gd81 2.448 . S
O108 C92 1.249 . S
O109 Gd81 2.506 . S
O109 C92 1.252 . S
O110 Gd81 2.435 . S
O110 C99 1.256 . S
O111 Gd80 2.327 . S
O111 Gd81 2.717 . S
O111 C99 1.257 . S
H112 C85 0.930 . S
H113 C86 0.931 . S
H114 C88 0.931 . S
H115 C89 0.931 . S
H116 C94 0.930 . S
H117 C95 0.931 . S
H118 C97 0.931 . S
H119 C98 0.931 . S
Gd120 C123 2.818 . S
Gd120 O140 2.377 . S
Gd120 O142 2.448 . S
Gd120 O143 2.506 . S
Gd120 O144 2.435 . S
Gd120 O145 2.717 . S
Gd120 O147 2.395 . S
Gd120 O151 2.327 . S
Gd121 C132 2.818 . S
Gd121 O141 2.395 . S
Gd121 O145 2.327 . S
Gd121 O146 2.377 . S
Gd121 O148 2.448 . S
Gd121 O149 2.506 . S
Gd121 O150 2.435 . S
Gd121 O151 2.717 . S
C122 O140 1.240 . S
C122 O141 1.240 . S
C123 Gd120 2.818 . S
C123 C124 1.510 . S
C123 O142 1.249 . S
C123 O143 1.252 . S
C124 C123 1.510 . S
C124 C125 1.404 . S
C124 C126 1.352 . S
C125 C124 1.404 . S
C125 C129 1.389 . S
C125 H152 0.930 . S
C126 C124 1.352 . S
C126 C128 1.374 . S
C126 H153 0.931 . S
C127 C128 1.359 . S
C127 C129 1.364 . S
C128 C126 1.374 . S
C128 C127 1.359 . S
C128 H154 0.931 . S
C129 C125 1.389 . S
C129 C127 1.364 . S
C129 H155 0.931 . S
C130 O144 1.256 . S
C130 O145 1.257 . S
C131 O146 1.240 . S
C131 O147 1.240 . S
C132 Gd121 2.818 . S
C132 C133 1.510 . S
C132 O148 1.249 . S
C132 O149 1.252 . S
C133 C132 1.510 . S
C133 C134 1.404 . S
C133 C135 1.352 . S
C134 C133 1.404 . S
C134 C138 1.389 . S
C134 H156 0.930 . S
C135 C133 1.352 . S
C135 C137 1.374 . S
C135 H157 0.931 . S
C136 C137 1.359 . S
C136 C138 1.364 . S
C137 C135 1.374 . S
C137 C136 1.359 . S
C137 H158 0.931 . S
C138 C134 1.389 . S
C138 C136 1.364 . S
C138 H159 0.931 . S
C139 O150 1.256 . S
C139 O151 1.257 . S
O140 Gd120 2.377 . S
O140 C122 1.240 . S
O141 Gd121 2.395 . S
O141 C122 1.240 . S
O142 Gd120 2.448 . S
O142 C123 1.249 . S
O143 Gd120 2.506 . S
O143 C123 1.252 . S
O144 Gd120 2.435 . S
O144 C130 1.256 . S
O145 Gd120 2.717 . S
O145 Gd121 2.327 . S
O145 C130 1.257 . S
O146 Gd121 2.377 . S
O146 C131 1.240 . S
O147 Gd120 2.395 . S
O147 C131 1.240 . S
O148 Gd121 2.448 . S
O148 C132 1.249 . S
O149 Gd121 2.506 . S
O149 C132 1.252 . S
O150 Gd121 2.435 . S
O150 C139 1.256 . S
O151 Gd120 2.327 . S
O151 Gd121 2.717 . S
O151 C139 1.257 . S
H152 C125 0.930 . S
H153 C126 0.931 . S
H154 C128 0.931 . S
H155 C129 0.931 . S
H156 C134 0.930 . S
H157 C135 0.931 . S
H158 C137 0.931 . S
H159 C138 0.931 . S
Gd160 C163 2.818 . S
Gd160 O180 2.377 . S
Gd160 O182 2.448 . S
Gd160 O183 2.506 . S
Gd160 O184 2.435 . S
Gd160 O185 2.717 . S
Gd160 O187 2.395 . S
Gd160 O191 2.327 . S
Gd161 C172 2.818 . S
Gd161 O181 2.395 . S
Gd161 O185 2.327 . S
Gd161 O186 2.377 . S
Gd161 O188 2.448 . S
Gd161 O189 2.506 . S
Gd161 O190 2.435 . S
Gd161 O191 2.717 . S
C162 O180 1.240 . S
C162 O181 1.240 . S
C163 Gd160 2.818 . S
C163 C164 1.510 . S
C163 O182 1.249 . S
C163 O183 1.252 . S
C164 C163 1.510 . S
C164 C165 1.404 . S
C164 C166 1.352 . S
C165 C164 1.404 . S
C165 C169 1.389 . S
C165 H192 0.930 . S
C166 C164 1.352 . S
C166 C168 1.374 . S
C166 H193 0.931 . S
C167 C168 1.359 . S
C167 C169 1.364 . S
C168 C166 1.374 . S
C168 C167 1.359 . S
C168 H194 0.931 . S
C169 C165 1.389 . S
C169 C167 1.364 . S
C169 H195 0.931 . S
C170 O184 1.256 . S
C170 O185 1.257 . S
C171 O186 1.240 . S
C171 O187 1.240 . S
C172 Gd161 2.818 . S
C172 C173 1.510 . S
C172 O188 1.249 . S
C172 O189 1.252 . S
C173 C172 1.510 . S
C173 C174 1.404 . S
C173 C175 1.352 . S
C174 C173 1.404 . S
C174 C178 1.389 . S
C174 H196 0.930 . S
C175 C173 1.352 . S
C175 C177 1.374 . S
C175 H197 0.931 . S
C176 C177 1.359 . S
C176 C178 1.364 . S
C177 C175 1.374 . S
C177 C176 1.359 . S
C177 H198 0.931 . S
C178 C174 1.389 . S
C178 C176 1.364 . S
C178 H199 0.931 . S
C179 O190 1.256 . S
C179 O191 1.257 . S
O180 Gd160 2.377 . S
O180 C162 1.240 . S
O181 Gd161 2.395 . S
O181 C162 1.240 . S
O182 Gd160 2.448 . S
O182 C163 1.249 . S
O183 Gd160 2.506 . S
O183 C163 1.252 . S
O184 Gd160 2.435 . S
O184 C170 1.256 . S
O185 Gd160 2.717 . S
O185 Gd161 2.327 . S
O185 C170 1.257 . S
O186 Gd161 2.377 . S
O186 C171 1.240 . S
O187 Gd160 2.395 . S
O187 C171 1.240 . S
O188 Gd161 2.448 . S
O188 C172 1.249 . S
O189 Gd161 2.506 . S
O189 C172 1.252 . S
O190 Gd161 2.435 . S
O190 C179 1.256 . S
O191 Gd160 2.327 . S
O191 Gd161 2.717 . S
O191 C179 1.257 . S
H192 C165 0.930 . S
H193 C166 0.931 . S
H194 C168 0.931 . S
H195 C169 0.931 . S
H196 C174 0.930 . S
H197 C175 0.931 . S
H198 C177 0.931 . S
H199 C178 0.931 . S
Gd200 C203 2.818 . S
Gd200 O220 2.377 . S
Gd200 O222 2.448 . S
Gd200 O223 2.506 . S
Gd200 O224 2.435 . S
Gd200 O225 2.717 . S
Gd200 O227 2.395 . S
Gd200 O231 2.327 . S
Gd201 C212 2.818 . S
Gd201 O221 2.395 . S
Gd201 O225 2.327 . S
Gd201 O226 2.377 . S
Gd201 O228 2.448 . S
Gd201 O229 2.506 . S
Gd201 O230 2.435 . S
Gd201 O231 2.717 . S
C202 O220 1.240 . S
C202 O221 1.240 . S
C203 Gd200 2.818 . S
C203 C204 1.510 . S
C203 O222 1.249 . S
C203 O223 1.252 . S
C204 C203 1.510 . S
C204 C205 1.404 . S
C204 C206 1.352 . S
C205 C204 1.404 . S
C205 C209 1.389 . S
C205 H232 0.930 . S
C206 C204 1.352 . S
C206 C208 1.374 . S
C206 H233 0.931 . S
C207 C208 1.359 . S
C207 C209 1.364 . S
C208 C206 1.374 . S
C208 C207 1.359 . S
C208 H234 0.931 . S
C209 C205 1.389 . S
C209 C207 1.364 . S
C209 H235 0.931 . S
C210 O224 1.256 . S
C210 O225 1.257 . S
C211 O226 1.240 . S
C211 O227 1.240 . S
C212 Gd201 2.818 . S
C212 C213 1.510 . S
C212 O228 1.249 . S
C212 O229 1.252 . S
C213 C212 1.510 . S
C213 C214 1.404 . S
C213 C215 1.352 . S
C214 C213 1.404 . S
C214 C218 1.389 . S
C214 H236 0.930 . S
C215 C213 1.352 . S
C215 C217 1.374 . S
C215 H237 0.931 . S
C216 C217 1.359 . S
C216 C218 1.364 . S
C217 C215 1.374 . S
C217 C216 1.359 . S
C217 H238 0.931 . S
C218 C214 1.389 . S
C218 C216 1.364 . S
C218 H239 0.931 . S
C219 O230 1.256 . S
C219 O231 1.257 . S
O220 Gd200 2.377 . S
O220 C202 1.240 . S
O221 Gd201 2.395 . S
O221 C202 1.240 . S
O222 Gd200 2.448 . S
O222 C203 1.249 . S
O223 Gd200 2.506 . S
O223 C203 1.252 . S
O224 Gd200 2.435 . S
O224 C210 1.256 . S
O225 Gd200 2.717 . S
O225 Gd201 2.327 . S
O225 C210 1.257 . S
O226 Gd201 2.377 . S
O226 C211 1.240 . S
O227 Gd200 2.395 . S
O227 C211 1.240 . S
O228 Gd201 2.448 . S
O228 C212 1.249 . S
O229 Gd201 2.506 . S
O229 C212 1.252 . S
O230 Gd201 2.435 . S
O230 C219 1.256 . S
O231 Gd200 2.327 . S
O231 Gd201 2.717 . S
O231 C219 1.257 . S
H232 C205 0.930 . S
H233 C206 0.931 . S
H234 C208 0.931 . S
H235 C209 0.931 . S
H236 C214 0.930 . S
H237 C215 0.931 . S
H238 C217 0.931 . S
H239 C218 0.931 . S
Gd240 C243 2.818 . S
Gd240 O260 2.377 . S
Gd240 O262 2.448 . S
Gd240 O263 2.506 . S
Gd240 O264 2.435 . S
Gd240 O265 2.717 . S
Gd240 O267 2.395 . S
Gd240 O271 2.327 . S
Gd241 C252 2.818 . S
Gd241 O261 2.395 . S
Gd241 O265 2.327 . S
Gd241 O266 2.377 . S
Gd241 O268 2.448 . S
Gd241 O269 2.506 . S
Gd241 O270 2.435 . S
Gd241 O271 2.717 . S
C242 O260 1.240 . S
C242 O261 1.240 . S
C243 Gd240 2.818 . S
C243 C244 1.510 . S
C243 O262 1.249 . S
C243 O263 1.252 . S
C244 C243 1.510 . S
C244 C245 1.404 . S
C244 C246 1.352 . S
C245 C244 1.404 . S
C245 C249 1.389 . S
C245 H272 0.930 . S
C246 C244 1.352 . S
C246 C248 1.374 . S
C246 H273 0.931 . S
C247 C248 1.359 . S
C247 C249 1.364 . S
C248 C246 1.374 . S
C248 C247 1.359 . S
C248 H274 0.931 . S
C249 C245 1.389 . S
C249 C247 1.364 . S
C249 H275 0.931 . S
C250 O264 1.256 . S
C250 O265 1.257 . S
C251 O266 1.240 . S
C251 O267 1.240 . S
C252 Gd241 2.818 . S
C252 C253 1.510 . S
C252 O268 1.249 . S
C252 O269 1.252 . S
C253 C252 1.510 . S
C253 C254 1.404 . S
C253 C255 1.352 . S
C254 C253 1.404 . S
C254 C258 1.389 . S
C254 H276 0.930 . S
C255 C253 1.352 . S
C255 C257 1.374 . S
C255 H277 0.931 . S
C256 C257 1.359 . S
C256 C258 1.364 . S
C257 C255 1.374 . S
C257 C256 1.359 . S
C257 H278 0.931 . S
C258 C254 1.389 . S
C258 C256 1.364 . S
C258 H279 0.931 . S
C259 O270 1.256 . S
C259 O271 1.257 . S
O260 Gd240 2.377 . S
O260 C242 1.240 . S
O261 Gd241 2.395 . S
O261 C242 1.240 . S
O262 Gd240 2.448 . S
O262 C243 1.249 . S
O263 Gd240 2.506 . S
O263 C243 1.252 . S
O264 Gd240 2.435 . S
O264 C250 1.256 . S
O265 Gd240 2.717 . S
O265 Gd241 2.327 . S
O265 C250 1.257 . S
O266 Gd241 2.377 . S
O266 C251 1.240 . S
O267 Gd240 2.395 . S
O267 C251 1.240 . S
O268 Gd241 2.448 . S
O268 C252 1.249 . S
O269 Gd241 2.506 . S
O269 C252 1.252 . S
O270 Gd241 2.435 . S
O270 C259 1.256 . S
O271 Gd240 2.327 . S
O271 Gd241 2.717 . S
O271 C259 1.257 . S
H272 C245 0.930 . S
H273 C246 0.931 . S
H274 C248 0.931 . S
H275 C249 0.931 . S
H276 C254 0.930 . S
H277 C255 0.931 . S
H278 C257 0.931 . S
H279 C258 0.931 . S
Gd280 C283 2.818 . S
Gd280 O300 2.377 . S
Gd280 O302 2.448 . S
Gd280 O303 2.506 . S
Gd280 O304 2.435 . S
Gd280 O305 2.717 . S
Gd280 O307 2.395 . S
Gd280 O311 2.327 . S
Gd281 C292 2.818 . S
Gd281 O301 2.395 . S
Gd281 O305 2.327 . S
Gd281 O306 2.377 . S
Gd281 O308 2.448 . S
Gd281 O309 2.506 . S
Gd281 O310 2.435 . S
Gd281 O311 2.717 . S
C282 O300 1.240 . S
C282 O301 1.240 . S
C283 Gd280 2.818 . S
C283 C284 1.510 . S
C283 O302 1.249 . S
C283 O303 1.252 . S
C284 C283 1.510 . S
C284 C285 1.404 . S
C284 C286 1.352 . S
C285 C284 1.404 . S
C285 C289 1.389 . S
C285 H312 0.930 . S
C286 C284 1.352 . S
C286 C288 1.374 . S
C286 H313 0.931 . S
C287 C288 1.359 . S
C287 C289 1.364 . S
C288 C286 1.374 . S
C288 C287 1.359 . S
C288 H314 0.931 . S
C289 C285 1.389 . S
C289 C287 1.364 . S
C289 H315 0.931 . S
C290 O304 1.256 . S
C290 O305 1.257 . S
C291 O306 1.240 . S
C291 O307 1.240 . S
C292 Gd281 2.818 . S
C292 C293 1.510 . S
C292 O308 1.249 . S
C292 O309 1.252 . S
C293 C292 1.510 . S
C293 C294 1.404 . S
C293 C295 1.352 . S
C294 C293 1.404 . S
C294 C298 1.389 . S
C294 H316 0.930 . S
C295 C293 1.352 . S
C295 C297 1.374 . S
C295 H317 0.931 . S
C296 C297 1.359 . S
C296 C298 1.364 . S
C297 C295 1.374 . S
C297 C296 1.359 . S
C297 H318 0.931 . S
C298 C294 1.389 . S
C298 C296 1.364 . S
C298 H319 0.931 . S
C299 O310 1.256 . S
C299 O311 1.257 . S
O300 Gd280 2.377 . S
O300 C282 1.240 . S
O301 Gd281 2.395 . S
O301 C282 1.240 . S
O302 Gd280 2.448 . S
O302 C283 1.249 . S
O303 Gd280 2.506 . S
O303 C283 1.252 . S
O304 Gd280 2.435 . S
O304 C290 1.256 . S
O305 Gd280 2.717 . S
O305 Gd281 2.327 . S
O305 C290 1.257 . S
O306 Gd281 2.377 . S
O306 C291 1.240 . S
O307 Gd280 2.395 . S
O307 C291 1.240 . S
O308 Gd281 2.448 . S
O308 C292 1.249 . S
O309 Gd281 2.506 . S
O309 C292 1.252 . S
O310 Gd281 2.435 . S
O310 C299 1.256 . S
O311 Gd280 2.327 . S
O311 Gd281 2.717 . S
O311 C299 1.257 . S
H312 C285 0.930 . S
H313 C286 0.931 . S
H314 C288 0.931 . S
H315 C289 0.931 . S
H316 C294 0.930 . S
H317 C295 0.931 . S
H318 C297 0.931 . S
H319 C298 0.931 . S
Gd320 C323 2.818 . S
Gd320 O340 2.377 . S
Gd320 O342 2.448 . S
Gd320 O343 2.506 . S
Gd320 O344 2.435 . S
Gd320 O345 2.717 . S
Gd320 O347 2.395 . S
Gd320 O351 2.327 . S
Gd321 C332 2.818 . S
Gd321 O341 2.395 . S
Gd321 O345 2.327 . S
Gd321 O346 2.377 . S
Gd321 O348 2.448 . S
Gd321 O349 2.506 . S
Gd321 O350 2.435 . S
Gd321 O351 2.717 . S
C322 O340 1.240 . S
C322 O341 1.240 . S
C323 Gd320 2.818 . S
C323 C324 1.510 . S
C323 O342 1.249 . S
C323 O343 1.252 . S
C324 C323 1.510 . S
C324 C325 1.404 . S
C324 C326 1.352 . S
C325 C324 1.404 . S
C325 C329 1.389 . S
C325 H352 0.930 . S
C326 C324 1.352 . S
C326 C328 1.374 . S
C326 H353 0.931 . S
C327 C328 1.359 . S
C327 C329 1.364 . S
C328 C326 1.374 . S
C328 C327 1.359 . S
C328 H354 0.931 . S
C329 C325 1.389 . S
C329 C327 1.364 . S
C329 H355 0.931 . S
C330 O344 1.256 . S
C330 O345 1.257 . S
C331 O346 1.240 . S
C331 O347 1.240 . S
C332 Gd321 2.818 . S
C332 C333 1.510 . S
C332 O348 1.249 . S
C332 O349 1.252 . S
C333 C332 1.510 . S
C333 C334 1.404 . S
C333 C335 1.352 . S
C334 C333 1.404 . S
C334 C338 1.389 . S
C334 H356 0.930 . S
C335 C333 1.352 . S
C335 C337 1.374 . S
C335 H357 0.931 . S
C336 C337 1.359 . S
C336 C338 1.364 . S
C337 C335 1.374 . S
C337 C336 1.359 . S
C337 H358 0.931 . S
C338 C334 1.389 . S
C338 C336 1.364 . S
C338 H359 0.931 . S
C339 O350 1.256 . S
C339 O351 1.257 . S
O340 Gd320 2.377 . S
O340 C322 1.240 . S
O341 Gd321 2.395 . S
O341 C322 1.240 . S
O342 Gd320 2.448 . S
O342 C323 1.249 . S
O343 Gd320 2.506 . S
O343 C323 1.252 . S
O344 Gd320 2.435 . S
O344 C330 1.256 . S
O345 Gd320 2.717 . S
O345 Gd321 2.327 . S
O345 C330 1.257 . S
O346 Gd321 2.377 . S
O346 C331 1.240 . S
O347 Gd320 2.395 . S
O347 C331 1.240 . S
O348 Gd321 2.448 . S
O348 C332 1.249 . S
O349 Gd321 2.506 . S
O349 C332 1.252 . S
O350 Gd321 2.435 . S
O350 C339 1.256 . S
O351 Gd320 2.327 . S
O351 Gd321 2.717 . S
O351 C339 1.257 . S
H352 C325 0.930 . S
H353 C326 0.931 . S
H354 C328 0.931 . S
H355 C329 0.931 . S
H356 C334 0.930 . S
H357 C335 0.931 . S
H358 C337 0.931 . S
H359 C338 0.931 . S
Gd360 C363 2.818 . S
Gd360 O380 2.377 . S
Gd360 O382 2.448 . S
Gd360 O383 2.506 . S
Gd360 O384 2.435 . S
Gd360 O385 2.717 . S
Gd360 O387 2.395 . S
Gd360 O391 2.327 . S
Gd361 C372 2.818 . S
Gd361 O381 2.395 . S
Gd361 O385 2.327 . S
Gd361 O386 2.377 . S
Gd361 O388 2.448 . S
Gd361 O389 2.506 . S
Gd361 O390 2.435 . S
Gd361 O391 2.717 . S
C362 O380 1.240 . S
C362 O381 1.240 . S
C363 Gd360 2.818 . S
C363 C364 1.510 . S
C363 O382 1.249 . S
C363 O383 1.252 . S
C364 C363 1.510 . S
C364 C365 1.404 . S
C364 C366 1.352 . S
C365 C364 1.404 . S
C365 C369 1.389 . S
C365 H392 0.930 . S
C366 C364 1.352 . S
C366 C368 1.374 . S
C366 H393 0.931 . S
C367 C368 1.359 . S
C367 C369 1.364 . S
C368 C366 1.374 . S
C368 C367 1.359 . S
C368 H394 0.931 . S
C369 C365 1.389 . S
C369 C367 1.364 . S
C369 H395 0.931 . S
C370 O384 1.256 . S
C370 O385 1.257 . S
C371 O386 1.240 . S
C371 O387 1.240 . S
C372 Gd361 2.818 . S
C372 C373 1.510 . S
C372 O388 1.249 . S
C372 O389 1.252 . S
C373 C372 1.510 . S
C373 C374 1.404 . S
C373 C375 1.352 . S
C374 C373 1.404 . S
C374 C378 1.389 . S
C374 H396 0.930 . S
C375 C373 1.352 . S
C375 C377 1.374 . S
C375 H397 0.931 . S
C376 C377 1.359 . S
C376 C378 1.364 . S
C377 C375 1.374 . S
C377 C376 1.359 . S
C377 H398 0.931 . S
C378 C374 1.389 . S
C378 C376 1.364 . S
C378 H399 0.931 . S
C379 O390 1.256 . S
C379 O391 1.257 . S
O380 Gd360 2.377 . S
O380 C362 1.240 . S
O381 Gd361 2.395 . S
O381 C362 1.240 . S
O382 Gd360 2.448 . S
O382 C363 1.249 . S
O383 Gd360 2.506 . S
O383 C363 1.252 . S
O384 Gd360 2.435 . S
O384 C370 1.256 . S
O385 Gd360 2.717 . S
O385 Gd361 2.327 . S
O385 C370 1.257 . S
O386 Gd361 2.377 . S
O386 C371 1.240 . S
O387 Gd360 2.395 . S
O387 C371 1.240 . S
O388 Gd361 2.448 . S
O388 C372 1.249 . S
O389 Gd361 2.506 . S
O389 C372 1.252 . S
O390 Gd361 2.435 . S
O390 C379 1.256 . S
O391 Gd360 2.327 . S
O391 Gd361 2.717 . S
O391 C379 1.257 . S
H392 C365 0.930 . S
H393 C366 0.931 . S
H394 C368 0.931 . S
H395 C369 0.931 . S
H396 C374 0.930 . S
H397 C375 0.931 . S
H398 C377 0.931 . S
H399 C378 0.931 . S
Gd400 C403 2.818 . S
Gd400 O420 2.377 . S
Gd400 O422 2.448 . S
Gd400 O423 2.506 . S
Gd400 O424 2.435 . S
Gd400 O425 2.717 . S
Gd400 O427 2.395 . S
Gd400 O431 2.327 . S
Gd401 C412 2.818 . S
Gd401 O421 2.395 . S
Gd401 O425 2.327 . S
Gd401 O426 2.377 . S
Gd401 O428 2.448 . S
Gd401 O429 2.506 . S
Gd401 O430 2.435 . S
Gd401 O431 2.717 . S
C402 O420 1.240 . S
C402 O421 1.240 . S
C403 Gd400 2.818 . S
C403 C404 1.510 . S
C403 O422 1.249 . S
C403 O423 1.252 . S
C404 C403 1.510 . S
C404 C405 1.404 . S
C404 C406 1.352 . S
C405 C404 1.404 . S
C405 C409 1.389 . S
C405 H432 0.930 . S
C406 C404 1.352 . S
C406 C408 1.374 . S
C406 H433 0.931 . S
C407 C408 1.359 . S
C407 C409 1.364 . S
C408 C406 1.374 . S
C408 C407 1.359 . S
C408 H434 0.931 . S
C409 C405 1.389 . S
C409 C407 1.364 . S
C409 H435 0.931 . S
C410 O424 1.256 . S
C410 O425 1.257 . S
C411 O426 1.240 . S
C411 O427 1.240 . S
C412 Gd401 2.818 . S
C412 C413 1.510 . S
C412 O428 1.249 . S
C412 O429 1.252 . S
C413 C412 1.510 . S
C413 C414 1.404 . S
C413 C415 1.352 . S
C414 C413 1.404 . S
C414 C418 1.389 . S
C414 H436 0.930 . S
C415 C413 1.352 . S
C415 C417 1.374 . S
C415 H437 0.931 . S
C416 C417 1.359 . S
C416 C418 1.364 . S
C417 C415 1.374 . S
C417 C416 1.359 . S
C417 H438 0.931 . S
C418 C414 1.389 . S
C418 C416 1.364 . S
C418 H439 0.931 . S
C419 O430 1.256 . S
C419 O431 1.257 . S
O420 Gd400 2.377 . S
O420 C402 1.240 . S
O421 Gd401 2.395 . S
O421 C402 1.240 . S
O422 Gd400 2.448 . S
O422 C403 1.249 . S
O423 Gd400 2.506 . S
O423 C403 1.252 . S
O424 Gd400 2.435 . S
O424 C410 1.256 . S
O425 Gd400 2.717 . S
O425 Gd401 2.327 . S
O425 C410 1.257 . S
O426 Gd401 2.377 . S
O426 C411 1.240 . S
O427 Gd400 2.395 . S
O427 C411 1.240 . S
O428 Gd401 2.448 . S
O428 C412 1.249 . S
O429 Gd401 2.506 . S
O429 C412 1.252 . S
O430 Gd401 2.435 . S
O430 C419 1.256 . S
O431 Gd400 2.327 . S
O431 Gd401 2.717 . S
O431 C419 1.257 . S
H432 C405 0.930 . S
H433 C406 0.931 . S
H434 C408 0.931 . S
H435 C409 0.931 . S
H436 C414 0.930 . S
H437 C415 0.931 . S
H438 C417 0.931 . S
H439 C418 0.931 . S
Gd440 C443 2.818 . S
Gd440 O460 2.377 . S
Gd440 O462 2.448 . S
Gd440 O463 2.506 . S
Gd440 O464 2.435 . S
Gd440 O465 2.717 . S
Gd440 O467 2.395 . S
Gd440 O471 2.327 . S
Gd441 C452 2.818 . S
Gd441 O461 2.395 . S
Gd441 O465 2.327 . S
Gd441 O466 2.377 . S
Gd441 O468 2.448 . S
Gd441 O469 2.506 . S
Gd441 O470 2.435 . S
Gd441 O471 2.717 . S
C442 O460 1.240 . S
C442 O461 1.240 . S
C443 Gd440 2.818 . S
C443 C444 1.510 . S
C443 O462 1.249 . S
C443 O463 1.252 . S
C444 C443 1.510 . S
C444 C445 1.404 . S
C444 C446 1.352 . S
C445 C444 1.404 . S
C445 C449 1.389 . S
C445 H472 0.930 . S
C446 C444 1.352 . S
C446 C448 1.374 . S
C446 H473 0.931 . S
C447 C448 1.359 . S
C447 C449 1.364 . S
C448 C446 1.374 . S
C448 C447 1.359 . S
C448 H474 0.931 . S
C449 C445 1.389 . S
C449 C447 1.364 . S
C449 H475 0.931 . S
C450 O464 1.256 . S
C450 O465 1.257 . S
C451 O466 1.240 . S
C451 O467 1.240 . S
C452 Gd441 2.818 . S
C452 C453 1.510 . S
C452 O468 1.249 . S
C452 O469 1.252 . S
C453 C452 1.510 . S
C453 C454 1.404 . S
C453 C455 1.352 . S
C454 C453 1.404 . S
C454 C458 1.389 . S
C454 H476 0.930 . S
C455 C453 1.352 . S
C455 C457 1.374 . S
C455 H477 0.931 . S
C456 C457 1.359 . S
C456 C458 1.364 . S
C457 C455 1.374 . S
C457 C456 1.359 . S
C457 H478 0.931 . S
C458 C454 1.389 . S
C458 C456 1.364 . S
C458 H479 0.931 . S
C459 O470 1.256 . S
C459 O471 1.257 . S
O460 Gd440 2.377 . S
O460 C442 1.240 . S
O461 Gd441 2.395 . S
O461 C442 1.240 . S
O462 Gd440 2.448 . S
O462 C443 1.249 . S
O463 Gd440 2.506 . S
O463 C443 1.252 . S
O464 Gd440 2.435 . S
O464 C450 1.256 . S
O465 Gd440 2.717 . S
O465 Gd441 2.327 . S
O465 C450 1.257 . S
O466 Gd441 2.377 . S
O466 C451 1.240 . S
O467 Gd440 2.395 . S
O467 C451 1.240 . S
O468 Gd441 2.448 . S
O468 C452 1.249 . S
O469 Gd441 2.506 . S
O469 C452 1.252 . S
O470 Gd441 2.435 . S
O470 C459 1.256 . S
O471 Gd440 2.327 . S
O471 Gd441 2.717 . S
O471 C459 1.257 . S
H472 C445 0.930 . S
H473 C446 0.931 . S
H474 C448 0.931 . S
H475 C449 0.931 . S
H476 C454 0.930 . S
H477 C455 0.931 . S
H478 C457 0.931 . S
H479 C458 0.931 . S
Gd480 C483 2.818 . S
Gd480 O500 2.377 . S
Gd480 O502 2.448 . S
Gd480 O503 2.506 . S
Gd480 O504 2.435 . S
Gd480 O505 2.717 . S
Gd480 O507 2.395 . S
Gd480 O511 2.327 . S
Gd481 C492 2.818 . S
Gd481 O501 2.395 . S
Gd481 O505 2.327 . S
Gd481 O506 2.377 . S
Gd481 O508 2.448 . S
Gd481 O509 2.506 . S
Gd481 O510 2.435 . S
Gd481 O511 2.717 . S
C482 O500 1.240 . S
C482 O501 1.240 . S
C483 Gd480 2.818 . S
C483 C484 1.510 . S
C483 O502 1.249 . S
C483 O503 1.252 . S
C484 C483 1.510 . S
C484 C485 1.404 . S
C484 C486 1.352 . S
C485 C484 1.404 . S
C485 C489 1.389 . S
C485 H512 0.930 . S
C486 C484 1.352 . S
C486 C488 1.374 . S
C486 H513 0.931 . S
C487 C488 1.359 . S
C487 C489 1.364 . S
C488 C486 1.374 . S
C488 C487 1.359 . S
C488 H514 0.931 . S
C489 C485 1.389 . S
C489 C487 1.364 . S
C489 H515 0.931 . S
C490 O504 1.256 . S
C490 O505 1.257 . S
C491 O506 1.240 . S
C491 O507 1.240 . S
C492 Gd481 2.818 . S
C492 C493 1.510 . S
C492 O508 1.249 . S
C492 O509 1.252 . S
C493 C492 1.510 . S
C493 C494 1.404 . S
C493 C495 1.352 . S
C494 C493 1.404 . S
C494 C498 1.389 . S
C494 H516 0.930 . S
C495 C493 1.352 . S
C495 C497 1.374 . S
C495 H517 0.931 . S
C496 C497 1.359 . S
C496 C498 1.364 . S
C497 C495 1.374 . S
C497 C496 1.359 . S
C497 H518 0.931 . S
C498 C494 1.389 . S
C498 C496 1.364 . S
C498 H519 0.931 . S
C499 O510 1.256 . S
C499 O511 1.257 . S
O500 Gd480 2.377 . S
O500 C482 1.240 . S
O501 Gd481 2.395 . S
O501 C482 1.240 . S
O502 Gd480 2.448 . S
O502 C483 1.249 . S
O503 Gd480 2.506 . S
O503 C483 1.252 . S
O504 Gd480 2.435 . S
O504 C490 1.256 . S
O505 Gd480 2.717 . S
O505 Gd481 2.327 . S
O505 C490 1.257 . S
O506 Gd481 2.377 . S
O506 C491 1.240 . S
O507 Gd480 2.395 . S
O507 C491 1.240 . S
O508 Gd481 2.448 . S
O508 C492 1.249 . S
O509 Gd481 2.506 . S
O509 C492 1.252 . S
O510 Gd481 2.435 . S
O510 C499 1.256 . S
O511 Gd480 2.327 . S
O511 Gd481 2.717 . S
O511 C499 1.257 . S
H512 C485 0.930 . S
H513 C486 0.931 . S
H514 C488 0.931 . S
H515 C489 0.931 . S
H516 C494 0.930 . S
H517 C495 0.931 . S
H518 C497 0.931 . S
H519 C498 0.931 . S
Gd520 C523 2.818 . S
Gd520 O540 2.377 . S
Gd520 O542 2.448 . S
Gd520 O543 2.506 . S
Gd520 O544 2.435 . S
Gd520 O545 2.717 . S
Gd520 O547 2.395 . S
Gd520 O551 2.327 . S
Gd521 C532 2.818 . S
Gd521 O541 2.395 . S
Gd521 O545 2.327 . S
Gd521 O546 2.377 . S
Gd521 O548 2.448 . S
Gd521 O549 2.506 . S
Gd521 O550 2.435 . S
Gd521 O551 2.717 . S
C522 O540 1.240 . S
C522 O541 1.240 . S
C523 Gd520 2.818 . S
C523 C524 1.510 . S
C523 O542 1.249 . S
C523 O543 1.252 . S
C524 C523 1.510 . S
C524 C525 1.404 . S
C524 C526 1.352 . S
C525 C524 1.404 . S
C525 C529 1.389 . S
C525 H552 0.930 . S
C526 C524 1.352 . S
C526 C528 1.374 . S
C526 H553 0.931 . S
C527 C528 1.359 . S
C527 C529 1.364 . S
C528 C526 1.374 . S
C528 C527 1.359 . S
C528 H554 0.931 . S
C529 C525 1.389 . S
C529 C527 1.364 . S
C529 H555 0.931 . S
C530 O544 1.256 . S
C530 O545 1.257 . S
C531 O546 1.240 . S
C531 O547 1.240 . S
C532 Gd521 2.818 . S
C532 C533 1.510 . S
C532 O548 1.249 . S
C532 O549 1.252 . S
C533 C532 1.510 . S
C533 C534 1.404 . S
C533 C535 1.352 . S
C534 C533 1.404 . S
C534 C538 1.389 . S
C534 H556 0.930 . S
C535 C533 1.352 . S
C535 C537 1.374 . S
C535 H557 0.931 . S
C536 C537 1.359 . S
C536 C538 1.364 . S
C537 C535 1.374 . S
C537 C536 1.359 . S
C537 H558 0.931 . S
C538 C534 1.389 . S
C538 C536 1.364 . S
C538 H559 0.931 . S
C539 O550 1.256 . S
C539 O551 1.257 . S
O540 Gd520 2.377 . S
O540 C522 1.240 . S
O541 Gd521 2.395 . S
O541 C522 1.240 . S
O542 Gd520 2.448 . S
O542 C523 1.249 . S
O543 Gd520 2.506 . S
O543 C523 1.252 . S
O544 Gd520 2.435 . S
O544 C530 1.256 . S
O545 Gd520 2.717 . S
O545 Gd521 2.327 . S
O545 C530 1.257 . S
O546 Gd521 2.377 . S
O546 C531 1.240 . S
O547 Gd520 2.395 . S
O547 C531 1.240 . S
O548 Gd521 2.448 . S
O548 C532 1.249 . S
O549 Gd521 2.506 . S
O549 C532 1.252 . S
O550 Gd521 2.435 . S
O550 C539 1.256 . S
O551 Gd520 2.327 . S
O551 Gd521 2.717 . S
O551 C539 1.257 . S
H552 C525 0.930 . S
H553 C526 0.931 . S
H554 C528 0.931 . S
H555 C529 0.931 . S
H556 C534 0.930 . S
H557 C535 0.931 . S
H558 C537 0.931 . S
H559 C538 0.931 . S
Gd560 C563 2.818 . S
Gd560 O580 2.377 . S
Gd560 O582 2.448 . S
Gd560 O583 2.506 . S
Gd560 O584 2.435 . S
Gd560 O585 2.717 . S
Gd560 O587 2.395 . S
Gd560 O591 2.327 . S
Gd561 C572 2.818 . S
Gd561 O581 2.395 . S
Gd561 O585 2.327 . S
Gd561 O586 2.377 . S
Gd561 O588 2.448 . S
Gd561 O589 2.506 . S
Gd561 O590 2.435 . S
Gd561 O591 2.717 . S
C562 O580 1.240 . S
C562 O581 1.240 . S
C563 Gd560 2.818 . S
C563 C564 1.510 . S
C563 O582 1.249 . S
C563 O583 1.252 . S
C564 C563 1.510 . S
C564 C565 1.404 . S
C564 C566 1.352 . S
C565 C564 1.404 . S
C565 C569 1.389 . S
C565 H592 0.930 . S
C566 C564 1.352 . S
C566 C568 1.374 . S
C566 H593 0.931 . S
C567 C568 1.359 . S
C567 C569 1.364 . S
C568 C566 1.374 . S
C568 C567 1.359 . S
C568 H594 0.931 . S
C569 C565 1.389 . S
C569 C567 1.364 . S
C569 H595 0.931 . S
C570 O584 1.256 . S
C570 O585 1.257 . S
C571 O586 1.240 . S
C571 O587 1.240 . S
C572 Gd561 2.818 . S
C572 C573 1.510 . S
C572 O588 1.249 . S
C572 O589 1.252 . S
C573 C572 1.510 . S
C573 C574 1.404 . S
C573 C575 1.352 . S
C574 C573 1.404 . S
C574 C578 1.389 . S
C574 H596 0.930 . S
C575 C573 1.352 . S
C575 C577 1.374 . S
C575 H597 0.931 . S
C576 C577 1.359 . S
C576 C578 1.364 . S
C577 C575 1.374 . S
C577 C576 1.359 . S
C577 H598 0.931 . S
C578 C574 1.389 . S
C578 C576 1.364 . S
C578 H599 0.931 . S
C579 O590 1.256 . S
C579 O591 1.257 . S
O580 Gd560 2.377 . S
O580 C562 1.240 . S
O581 Gd561 2.395 . S
O581 C562 1.240 . S
O582 Gd560 2.448 . S
O582 C563 1.249 . S
O583 Gd560 2.506 . S
O583 C563 1.252 . S
O584 Gd560 2.435 . S
O584 C570 1.256 . S
O585 Gd560 2.717 . S
O585 Gd561 2.327 . S
O585 C570 1.257 . S
O586 Gd561 2.377 . S
O586 C571 1.240 . S
O587 Gd560 2.395 . S
O587 C571 1.240 . S
O588 Gd561 2.448 . S
O588 C572 1.249 . S
O589 Gd561 2.506 . S
O589 C572 1.252 . S
O590 Gd561 2.435 . S
O590 C579 1.256 . S
O591 Gd560 2.327 . S
O591 Gd561 2.717 . S
O591 C579 1.257 . S
H592 C565 0.930 . S
H593 C566 0.931 . S
H594 C568 0.931 . S
H595 C569 0.931 . S
H596 C574 0.930 . S
H597 C575 0.931 . S
H598 C577 0.931 . S
H599 C578 0.931 . S
Gd600 C603 2.818 . S
Gd600 O620 2.377 . S
Gd600 O622 2.448 . S
Gd600 O623 2.506 . S
Gd600 O624 2.435 . S
Gd600 O625 2.717 . S
Gd600 O627 2.395 . S
Gd600 O631 2.327 . S
Gd601 C612 2.818 . S
Gd601 O621 2.395 . S
Gd601 O625 2.327 . S
Gd601 O626 2.377 . S
Gd601 O628 2.448 . S
Gd601 O629 2.506 . S
Gd601 O630 2.435 . S
Gd601 O631 2.717 . S
C602 O620 1.240 . S
C602 O621 1.240 . S
C603 Gd600 2.818 . S
C603 C604 1.510 . S
C603 O622 1.249 . S
C603 O623 1.252 . S
C604 C603 1.510 . S
C604 C605 1.404 . S
C604 C606 1.352 1_655 S
C605 C604 1.404 . S
C605 C609 1.389 . S
C605 H632 0.930 . S
C606 C604 1.352 1_455 S
C606 C608 1.374 . S
C606 H633 0.931 . S
C607 C608 1.359 . S
C607 C609 1.364 1_455 S
C608 C606 1.374 . S
C608 C607 1.359 . S
C608 H634 0.931 . S
C609 C605 1.389 . S
C609 C607 1.364 1_655 S
C609 H635 0.931 . S
C610 O624 1.256 . S
C610 O625 1.257 . S
C611 O626 1.240 . S
C611 O627 1.240 . S
C612 Gd601 2.818 . S
C612 C613 1.510 . S
C612 O628 1.249 . S
C612 O629 1.252 . S
C613 C612 1.510 . S
C613 C614 1.404 . S
C613 C615 1.352 . S
C614 C613 1.404 . S
C614 C618 1.389 . S
C614 H636 0.930 . S
C615 C613 1.352 . S
C615 C617 1.374 . S
C615 H637 0.931 . S
C616 C617 1.359 . S
C616 C618 1.364 . S
C617 C615 1.374 . S
C617 C616 1.359 . S
C617 H638 0.931 . S
C618 C614 1.389 . S
C618 C616 1.364 . S
C618 H639 0.931 . S
C619 O630 1.256 . S
C619 O631 1.257 . S
O620 Gd600 2.377 . S
O620 C602 1.240 . S
O621 Gd601 2.395 . S
O621 C602 1.240 . S
O622 Gd600 2.448 . S
O622 C603 1.249 . S
O623 Gd600 2.506 . S
O623 C603 1.252 . S
O624 Gd600 2.435 . S
O624 C610 1.256 . S
O625 Gd600 2.717 . S
O625 Gd601 2.327 . S
O625 C610 1.257 . S
O626 Gd601 2.377 . S
O626 C611 1.240 . S
O627 Gd600 2.395 . S
O627 C611 1.240 . S
O628 Gd601 2.448 . S
O628 C612 1.249 . S
O629 Gd601 2.506 . S
O629 C612 1.252 . S
O630 Gd601 2.435 . S
O630 C619 1.256 . S
O631 Gd600 2.327 . S
O631 Gd601 2.717 . S
O631 C619 1.257 . S
H632 C605 0.930 . S
H633 C606 0.931 . S
H634 C608 0.931 . S
H635 C609 0.931 . S
H636 C614 0.930 . S
H637 C615 0.931 . S
H638 C617 0.931 . S
H639 C618 0.931 . S
Gd640 C643 2.818 . S
Gd640 O660 2.377 . S
Gd640 O662 2.448 . S
Gd640 O663 2.506 . S
Gd640 O664 2.435 . S
Gd640 O665 2.717 . S
Gd640 O667 2.395 . S
Gd640 O671 2.327 . S
Gd641 C652 2.818 . S
Gd641 O661 2.395 . S
Gd641 O665 2.327 . S
Gd641 O666 2.377 . S
Gd641 O668 2.448 . S
Gd641 O669 2.506 . S
Gd641 O670 2.435 . S
Gd641 O671 2.717 . S
C642 O660 1.240 . S
C642 O661 1.240 . S
C643 Gd640 2.818 . S
C643 C644 1.510 . S
C643 O662 1.249 . S
C643 O663 1.252 . S
C644 C643 1.510 . S
C644 C645 1.404 . S
C644 C646 1.352 . S
C645 C644 1.404 . S
C645 C649 1.389 . S
C645 H672 0.930 . S
C646 C644 1.352 . S
C646 C648 1.374 . S
C646 H673 0.931 . S
C647 C648 1.359 . S
C647 C649 1.364 . S
C648 C646 1.374 . S
C648 C647 1.359 . S
C648 H674 0.931 . S
C649 C645 1.389 . S
C649 C647 1.364 . S
C649 H675 0.931 . S
C650 O664 1.256 . S
C650 O665 1.257 . S
C651 O666 1.240 . S
C651 O667 1.240 . S
C652 Gd641 2.818 . S
C652 C653 1.510 . S
C652 O668 1.249 . S
C652 O669 1.252 . S
C653 C652 1.510 . S
C653 C654 1.404 . S
C653 C655 1.352 . S
C654 C653 1.404 . S
C654 C658 1.389 . S
C654 H676 0.930 . S
C655 C653 1.352 . S
C655 C657 1.374 . S
C655 H677 0.931 . S
C656 C657 1.359 . S
C656 C658 1.364 . S
C657 C655 1.374 . S
C657 C656 1.359 . S
C657 H678 0.931 . S
C658 C654 1.389 . S
C658 C656 1.364 . S
C658 H679 0.931 . S
C659 O670 1.256 . S
C659 O671 1.257 . S
O660 Gd640 2.377 . S
O660 C642 1.240 . S
O661 Gd641 2.395 . S
O661 C642 1.240 . S
O662 Gd640 2.448 . S
O662 C643 1.249 . S
O663 Gd640 2.506 . S
O663 C643 1.252 . S
O664 Gd640 2.435 . S
O664 C650 1.256 . S
O665 Gd640 2.717 . S
O665 Gd641 2.327 . S
O665 C650 1.257 . S
O666 Gd641 2.377 . S
O666 C651 1.240 . S
O667 Gd640 2.395 . S
O667 C651 1.240 . S
O668 Gd641 2.448 . S
O668 C652 1.249 . S
O669 Gd641 2.506 . S
O669 C652 1.252 . S
O670 Gd641 2.435 . S
O670 C659 1.256 . S
O671 Gd640 2.327 . S
O671 Gd641 2.717 . S
O671 C659 1.257 . S
H672 C645 0.930 . S
H673 C646 0.931 . S
H674 C648 0.931 . S
H675 C649 0.931 . S
H676 C654 0.930 . S
H677 C655 0.931 . S
H678 C657 0.931 . S
H679 C658 0.931 . S
Gd680 C683 2.818 . S
Gd680 O700 2.377 . S
Gd680 O702 2.448 . S
Gd680 O703 2.506 . S
Gd680 O704 2.435 . S
Gd680 O705 2.717 . S
Gd680 O707 2.395 . S
Gd680 O711 2.327 . S
Gd681 C692 2.818 . S
Gd681 O701 2.395 . S
Gd681 O705 2.327 . S
Gd681 O706 2.377 . S
Gd681 O708 2.448 . S
Gd681 O709 2.506 . S
Gd681 O710 2.435 . S
Gd681 O711 2.717 . S
C682 O700 1.240 . S
C682 O701 1.240 . S
C683 Gd680 2.818 . S
C683 C684 1.510 . S
C683 O702 1.249 . S
C683 O703 1.252 . S
C684 C683 1.510 . S
C684 C685 1.404 . S
C684 C686 1.352 1_545 S
C685 C684 1.404 . S
C685 C689 1.389 . S
C685 H712 0.930 . S
C686 C684 1.352 1_565 S
C686 C688 1.374 . S
C686 H713 0.931 . S
C687 C688 1.359 . S
C687 C689 1.364 1_565 S
C688 C686 1.374 . S
C688 C687 1.359 . S
C688 H714 0.931 . S
C689 C685 1.389 . S
C689 C687 1.364 1_545 S
C689 H715 0.931 . S
C690 O704 1.256 . S
C690 O705 1.257 . S
C691 O706 1.240 . S
C691 O707 1.240 . S
C692 Gd681 2.818 . S
C692 C693 1.510 . S
C692 O708 1.249 . S
C692 O709 1.252 . S
C693 C692 1.510 . S
C693 C694 1.404 . S
C693 C695 1.352 . S
C694 C693 1.404 . S
C694 C698 1.389 . S
C694 H716 0.930 . S
C695 C693 1.352 . S
C695 C697 1.374 . S
C695 H717 0.931 . S
C696 C697 1.359 . S
C696 C698 1.364 . S
C697 C695 1.374 . S
C697 C696 1.359 . S
C697 H718 0.931 . S
C698 C694 1.389 . S
C698 C696 1.364 . S
C698 H719 0.931 . S
C699 O710 1.256 . S
C699 O711 1.257 . S
O700 Gd680 2.377 . S
O700 C682 1.240 . S
O701 Gd681 2.395 . S
O701 C682 1.240 . S
O702 Gd680 2.448 . S
O702 C683 1.249 . S
O703 Gd680 2.506 . S
O703 C683 1.252 . S
O704 Gd680 2.435 . S
O704 C690 1.256 . S
O705 Gd680 2.717 . S
O705 Gd681 2.327 . S
O705 C690 1.257 . S
O706 Gd681 2.377 . S
O706 C691 1.240 . S
O707 Gd680 2.395 . S
O707 C691 1.240 . S
O708 Gd681 2.448 . S
O708 C692 1.249 . S
O709 Gd681 2.506 . S
O709 C692 1.252 . S
O710 Gd681 2.435 . S
O710 C699 1.256 . S
O711 Gd680 2.327 . S
O711 Gd681 2.717 . S
O711 C699 1.257 . S
H712 C685 0.930 . S
H713 C686 0.931 . S
H714 C688 0.931 . S
H715 C689 0.931 . S
H716 C694 0.930 . S
H717 C695 0.931 . S
H718 C697 0.931 . S
H719 C698 0.931 . S
Gd720 C723 2.818 . S
Gd720 O740 2.377 . S
Gd720 O742 2.448 . S
Gd720 O743 2.506 . S
Gd720 O744 2.435 . S
Gd720 O745 2.717 . S
Gd720 O747 2.395 . S
Gd720 O751 2.327 . S
Gd721 C732 2.818 . S
Gd721 O741 2.395 . S
Gd721 O745 2.327 . S
Gd721 O746 2.377 . S
Gd721 O748 2.448 . S
Gd721 O749 2.506 . S
Gd721 O750 2.435 . S
Gd721 O751 2.717 . S
C722 O740 1.240 . S
C722 O741 1.240 . S
C723 Gd720 2.818 . S
C723 C724 1.510 . S
C723 O742 1.249 . S
C723 O743 1.252 . S
C724 C723 1.510 . S
C724 C725 1.404 . S
C724 C726 1.352 . S
C725 C724 1.404 . S
C725 C729 1.389 . S
C725 H752 0.930 . S
C726 C724 1.352 . S
C726 C728 1.374 . S
C726 H753 0.931 . S
C727 C728 1.359 . S
C727 C729 1.364 . S
C728 C726 1.374 . S
C728 C727 1.359 . S
C728 H754 0.931 . S
C729 C725 1.389 . S
C729 C727 1.364 . S
C729 H755 0.931 . S
C730 O744 1.256 . S
C730 O745 1.257 . S
C731 O746 1.240 . S
C731 O747 1.240 . S
C732 Gd721 2.818 . S
C732 C733 1.510 . S
C732 O748 1.249 . S
C732 O749 1.252 . S
C733 C732 1.510 . S
C733 C734 1.404 . S
C733 C735 1.352 1_545 S
C734 C733 1.404 . S
C734 C738 1.389 . S
C734 H756 0.930 . S
C735 C733 1.352 1_565 S
C735 C737 1.374 . S
C735 H757 0.931 . S
C736 C737 1.359 . S
C736 C738 1.364 1_565 S
C737 C735 1.374 . S
C737 C736 1.359 . S
C737 H758 0.931 . S
C738 C734 1.389 . S
C738 C736 1.364 1_545 S
C738 H759 0.931 . S
C739 O750 1.256 . S
C739 O751 1.257 . S
O740 Gd720 2.377 . S
O740 C722 1.240 . S
O741 Gd721 2.395 . S
O741 C722 1.240 . S
O742 Gd720 2.448 . S
O742 C723 1.249 . S
O743 Gd720 2.506 . S
O743 C723 1.252 . S
O744 Gd720 2.435 . S
O744 C730 1.256 . S
O745 Gd720 2.717 . S
O745 Gd721 2.327 . S
O745 C730 1.257 . S
O746 Gd721 2.377 . S
O746 C731 1.240 . S
O747 Gd720 2.395 . S
O747 C731 1.240 . S
O748 Gd721 2.448 . S
O748 C732 1.249 . S
O749 Gd721 2.506 . S
O749 C732 1.252 . S
O750 Gd721 2.435 . S
O750 C739 1.256 . S
O751 Gd720 2.327 . S
O751 Gd721 2.717 . S
O751 C739 1.257 . S
H752 C725 0.930 . S
H753 C726 0.931 . S
H754 C728 0.931 . S
H755 C729 0.931 . S
H756 C734 0.930 . S
H757 C735 0.931 . S
H758 C737 0.931 . S
H759 C738 0.931 . S
Gd760 C763 2.818 . S
Gd760 O780 2.377 . S
Gd760 O782 2.448 . S
Gd760 O783 2.506 . S
Gd760 O784 2.435 . S
Gd760 O785 2.717 . S
Gd760 O787 2.395 . S
Gd760 O791 2.327 . S
Gd761 C772 2.818 . S
Gd761 O781 2.395 . S
Gd761 O785 2.327 . S
Gd761 O786 2.377 . S
Gd761 O788 2.448 . S
Gd761 O789 2.506 . S
Gd761 O790 2.435 . S
Gd761 O791 2.717 . S
C762 O780 1.240 . S
C762 O781 1.240 . S
C763 Gd760 2.818 . S
C763 C764 1.510 . S
C763 O782 1.249 . S
C763 O783 1.252 . S
C764 C763 1.510 . S
C764 C765 1.404 . S
C764 C766 1.352 . S
C765 C764 1.404 . S
C765 C769 1.389 . S
C765 H792 0.930 . S
C766 C764 1.352 . S
C766 C768 1.374 . S
C766 H793 0.931 . S
C767 C768 1.359 . S
C767 C769 1.364 . S
C768 C766 1.374 . S
C768 C767 1.359 . S
C768 H794 0.931 . S
C769 C765 1.389 . S
C769 C767 1.364 . S
C769 H795 0.931 . S
C770 O784 1.256 . S
C770 O785 1.257 . S
C771 O786 1.240 . S
C771 O787 1.240 . S
C772 Gd761 2.818 . S
C772 C773 1.510 . S
C772 O788 1.249 . S
C772 O789 1.252 . S
C773 C772 1.510 . S
C773 C774 1.404 . S
C773 C775 1.352 1_655 S
C774 C773 1.404 . S
C774 C778 1.389 . S
C774 H796 0.930 . S
C775 C773 1.352 1_455 S
C775 C777 1.374 . S
C775 H797 0.931 . S
C776 C777 1.359 . S
C776 C778 1.364 1_455 S
C777 C775 1.374 . S
C777 C776 1.359 . S
C777 H798 0.931 . S
C778 C774 1.389 . S
C778 C776 1.364 1_655 S
C778 H799 0.931 . S
C779 O790 1.256 . S
C779 O791 1.257 . S
O780 Gd760 2.377 . S
O780 C762 1.240 . S
O781 Gd761 2.395 . S
O781 C762 1.240 . S
O782 Gd760 2.448 . S
O782 C763 1.249 . S
O783 Gd760 2.506 . S
O783 C763 1.252 . S
O784 Gd760 2.435 . S
O784 C770 1.256 . S
O785 Gd760 2.717 . S
O785 Gd761 2.327 . S
O785 C770 1.257 . S
O786 Gd761 2.377 . S
O786 C771 1.240 . S
O787 Gd760 2.395 . S
O787 C771 1.240 . S
O788 Gd761 2.448 . S
O788 C772 1.249 . S
O789 Gd761 2.506 . S
O789 C772 1.252 . S
O790 Gd761 2.435 . S
O790 C779 1.256 . S
O791 Gd760 2.327 . S
O791 Gd761 2.717 . S
O791 C779 1.257 . S
H792 C765 0.930 . S
H793 C766 0.931 . S
H794 C768 0.931 . S
H795 C769 0.931 . S
H796 C774 0.930 . S
H797 C775 0.931 . S
H798 C777 0.931 . S
H799 C778 0.931 . S
Gd800 C803 2.818 . S
Gd800 O820 2.377 . S
Gd800 O822 2.448 . S
Gd800 O823 2.506 . S
Gd800 O824 2.435 . S
Gd800 O825 2.717 . S
Gd800 O827 2.395 . S
Gd800 O831 2.327 . S
Gd801 C812 2.818 . S
Gd801 O821 2.395 . S
Gd801 O825 2.327 . S
Gd801 O826 2.377 . S
Gd801 O828 2.448 . S
Gd801 O829 2.506 . S
Gd801 O830 2.435 . S
Gd801 O831 2.717 . S
C802 O820 1.240 . S
C802 O821 1.240 . S
C803 Gd800 2.818 . S
C803 C804 1.510 . S
C803 O822 1.249 . S
C803 O823 1.252 . S
C804 C803 1.510 . S
C804 C805 1.404 . S
C804 C806 1.352 . S
C805 C804 1.404 . S
C805 C809 1.389 . S
C805 H832 0.930 . S
C806 C804 1.352 . S
C806 C808 1.374 . S
C806 H833 0.931 . S
C807 C808 1.359 . S
C807 C809 1.364 . S
C808 C806 1.374 . S
C808 C807 1.359 . S
C808 H834 0.931 . S
C809 C805 1.389 . S
C809 C807 1.364 . S
C809 H835 0.931 . S
C810 O824 1.256 . S
C810 O825 1.257 . S
C811 O826 1.240 . S
C811 O827 1.240 . S
C812 Gd801 2.818 . S
C812 C813 1.510 . S
C812 O828 1.249 . S
C812 O829 1.252 . S
C813 C812 1.510 . S
C813 C814 1.404 . S
C813 C815 1.352 . S
C814 C813 1.404 . S
C814 C818 1.389 . S
C814 H836 0.930 . S
C815 C813 1.352 . S
C815 C817 1.374 . S
C815 H837 0.931 . S
C816 C817 1.359 . S
C816 C818 1.364 . S
C817 C815 1.374 . S
C817 C816 1.359 . S
C817 H838 0.931 . S
C818 C814 1.389 . S
C818 C816 1.364 . S
C818 H839 0.931 . S
C819 O830 1.256 . S
C819 O831 1.257 . S
O820 Gd800 2.377 . S
O820 C802 1.240 . S
O821 Gd801 2.395 . S
O821 C802 1.240 . S
O822 Gd800 2.448 . S
O822 C803 1.249 . S
O823 Gd800 2.506 . S
O823 C803 1.252 . S
O824 Gd800 2.435 . S
O824 C810 1.256 . S
O825 Gd800 2.717 . S
O825 Gd801 2.327 . S
O825 C810 1.257 . S
O826 Gd801 2.377 . S
O826 C811 1.240 . S
O827 Gd800 2.395 . S
O827 C811 1.240 . S
O828 Gd801 2.448 . S
O828 C812 1.249 . S
O829 Gd801 2.506 . S
O829 C812 1.252 . S
O830 Gd801 2.435 . S
O830 C819 1.256 . S
O831 Gd800 2.327 . S
O831 Gd801 2.717 . S
O831 C819 1.257 . S
H832 C805 0.930 . S
H833 C806 0.931 . S
H834 C808 0.931 . S
H835 C809 0.931 . S
H836 C814 0.930 . S
H837 C815 0.931 . S
H838 C817 0.931 . S
H839 C818 0.931 . S
Gd840 C843 2.818 . S
Gd840 O860 2.377 . S
Gd840 O862 2.448 . S
Gd840 O863 2.506 . S
Gd840 O864 2.435 . S
Gd840 O865 2.717 1_554 S
Gd840 O867 2.395 . S
Gd840 O871 2.327 . S
Gd841 C852 2.818 . S
Gd841 O861 2.395 . S
Gd841 O865 2.327 . S
Gd841 O866 2.377 . S
Gd841 O868 2.448 . S
Gd841 O869 2.506 . S
Gd841 O870 2.435 . S
Gd841 O871 2.717 1_556 S
C842 O860 1.240 . S
C842 O861 1.240 1_554 S
C843 Gd840 2.818 . S
C843 C844 1.510 . S
C843 O862 1.249 . S
C843 O863 1.252 . S
C844 C843 1.510 . S
C844 C845 1.404 . S
C844 C846 1.352 . S
C845 C844 1.404 . S
C845 C849 1.389 . S
C845 H872 0.930 . S
C846 C844 1.352 . S
C846 C848 1.374 . S
C846 H873 0.931 . S
C847 C848 1.359 . S
C847 C849 1.364 . S
C848 C846 1.374 . S
C848 C847 1.359 . S
C848 H874 0.931 . S
C849 C845 1.389 . S
C849 C847 1.364 . S
C849 H875 0.931 . S
C850 O864 1.256 . S
C850 O865 1.257 1_554 S
C851 O866 1.240 . S
C851 O867 1.240 1_556 S
C852 Gd841 2.818 . S
C852 C853 1.510 . S
C852 O868 1.249 . S
C852 O869 1.252 . S
C853 C852 1.510 . S
C853 C854 1.404 . S
C853 C855 1.352 . S
C854 C853 1.404 . S
C854 C858 1.389 . S
C854 H876 0.930 . S
C855 C853 1.352 . S
C855 C857 1.374 . S
C855 H877 0.931 . S
C856 C857 1.359 . S
C856 C858 1.364 . S
C857 C855 1.374 . S
C857 C856 1.359 . S
C857 H878 0.931 . S
C858 C854 1.389 . S
C858 C856 1.364 . S
C858 H879 0.931 . S
C859 O870 1.256 . S
C859 O871 1.257 1_556 S
O860 Gd840 2.377 . S
O860 C842 1.240 . S
O861 Gd841 2.395 . S
O861 C842 1.240 1_556 S
O862 Gd840 2.448 . S
O862 C843 1.249 . S
O863 Gd840 2.506 . S
O863 C843 1.252 . S
O864 Gd840 2.435 . S
O864 C850 1.256 . S
O865 Gd840 2.717 1_556 S
O865 Gd841 2.327 . S
O865 C850 1.257 1_556 S
O866 Gd841 2.377 . S
O866 C851 1.240 . S
O867 Gd840 2.395 . S
O867 C851 1.240 1_554 S
O868 Gd841 2.448 . S
O868 C852 1.249 . S
O869 Gd841 2.506 . S
O869 C852 1.252 . S
O870 Gd841 2.435 . S
O870 C859 1.256 . S
O871 Gd840 2.327 . S
O871 Gd841 2.717 1_554 S
O871 C859 1.257 1_554 S
H872 C845 0.930 . S
H873 C846 0.931 . S
H874 C848 0.931 . S
H875 C849 0.931 . S
H876 C854 0.930 . S
H877 C855 0.931 . S
H878 C857 0.931 . S
H879 C858 0.931 . S
Gd880 C883 2.818 . S
Gd880 O900 2.377 . S
Gd880 O902 2.448 . S
Gd880 O903 2.506 . S
Gd880 O904 2.435 . S
Gd880 O905 2.717 1_554 S
Gd880 O907 2.395 . S
Gd880 O911 2.327 . S
Gd881 C892 2.818 . S
Gd881 O901 2.395 . S
Gd881 O905 2.327 . S
Gd881 O906 2.377 . S
Gd881 O908 2.448 . S
Gd881 O909 2.506 . S
Gd881 O910 2.435 . S
Gd881 O911 2.717 1_556 S
C882 O900 1.240 . S
C882 O901 1.240 1_554 S
C883 Gd880 2.818 . S
C883 C884 1.510 . S
C883 O902 1.249 . S
C883 O903 1.252 . S
C884 C883 1.510 . S
C884 C885 1.404 . S
C884 C886 1.352 . S
C885 C884 1.404 . S
C885 C889 1.389 . S
C885 H912 0.930 . S
C886 C884 1.352 . S
C886 C888 1.374 . S
C886 H913 0.931 . S
C887 C888 1.359 . S
C887 C889 1.364 . S
C888 C886 1.374 . S
C888 C887 1.359 . S
C888 H914 0.931 . S
C889 C885 1.389 . S
C889 C887 1.364 . S
C889 H915 0.931 . S
C890 O904 1.256 . S
C890 O905 1.257 1_554 S
C891 O906 1.240 . S
C891 O907 1.240 1_556 S
C892 Gd881 2.818 . S
C892 C893 1.510 . S
C892 O908 1.249 . S
C892 O909 1.252 . S
C893 C892 1.510 . S
C893 C894 1.404 . S
C893 C895 1.352 . S
C894 C893 1.404 . S
C894 C898 1.389 . S
C894 H916 0.930 . S
C895 C893 1.352 . S
C895 C897 1.374 . S
C895 H917 0.931 . S
C896 C897 1.359 . S
C896 C898 1.364 . S
C897 C895 1.374 . S
C897 C896 1.359 . S
C897 H918 0.931 . S
C898 C894 1.389 . S
C898 C896 1.364 . S
C898 H919 0.931 . S
C899 O910 1.256 . S
C899 O911 1.257 1_556 S
O900 Gd880 2.377 . S
O900 C882 1.240 . S
O901 Gd881 2.395 . S
O901 C882 1.240 1_556 S
O902 Gd880 2.448 . S
O902 C883 1.249 . S
O903 Gd880 2.506 . S
O903 C883 1.252 . S
O904 Gd880 2.435 . S
O904 C890 1.256 . S
O905 Gd880 2.717 1_556 S
O905 Gd881 2.327 . S
O905 C890 1.257 1_556 S
O906 Gd881 2.377 . S
O906 C891 1.240 . S
O907 Gd880 2.395 . S
O907 C891 1.240 1_554 S
O908 Gd881 2.448 . S
O908 C892 1.249 . S
O909 Gd881 2.506 . S
O909 C892 1.252 . S
O910 Gd881 2.435 . S
O910 C899 1.256 . S
O911 Gd880 2.327 . S
O911 Gd881 2.717 1_554 S
O911 C899 1.257 1_554 S
H912 C885 0.930 . S
H913 C886 0.931 . S
H914 C888 0.931 . S
H915 C889 0.931 . S
H916 C894 0.930 . S
H917 C895 0.931 . S
H918 C897 0.931 . S
H919 C898 0.931 . S
Gd920 C923 2.818 . S
Gd920 O940 2.377 . S
Gd920 O942 2.448 . S
Gd920 O943 2.506 . S
Gd920 O944 2.435 . S
Gd920 O945 2.717 1_554 S
Gd920 O947 2.395 . S
Gd920 O951 2.327 . S
Gd921 C932 2.818 . S
Gd921 O941 2.395 . S
Gd921 O945 2.327 . S
Gd921 O946 2.377 . S
Gd921 O948 2.448 . S
Gd921 O949 2.506 . S
Gd921 O950 2.435 . S
Gd921 O951 2.717 1_556 S
C922 O940 1.240 . S
C922 O941 1.240 1_554 S
C923 Gd920 2.818 . S
C923 C924 1.510 . S
C923 O942 1.249 . S
C923 O943 1.252 . S
C924 C923 1.510 . S
C924 C925 1.404 . S
C924 C926 1.352 . S
C925 C924 1.404 . S
C925 C929 1.389 . S
C925 H952 0.930 . S
C926 C924 1.352 . S
C926 C928 1.374 . S
C926 H953 0.931 . S
C927 C928 1.359 . S
C927 C929 1.364 . S
C928 C926 1.374 . S
C928 C927 1.359 . S
C928 H954 0.931 . S
C929 C925 1.389 . S
C929 C927 1.364 . S
C929 H955 0.931 . S
C930 O944 1.256 . S
C930 O945 1.257 1_554 S
C931 O946 1.240 . S
C931 O947 1.240 1_556 S
C932 Gd921 2.818 . S
C932 C933 1.510 . S
C932 O948 1.249 . S
C932 O949 1.252 . S
C933 C932 1.510 . S
C933 C934 1.404 . S
C933 C935 1.352 . S
C934 C933 1.404 . S
C934 C938 1.389 . S
C934 H956 0.930 . S
C935 C933 1.352 . S
C935 C937 1.374 . S
C935 H957 0.931 . S
C936 C937 1.359 . S
C936 C938 1.364 . S
C937 C935 1.374 . S
C937 C936 1.359 . S
C937 H958 0.931 . S
C938 C934 1.389 . S
C938 C936 1.364 . S
C938 H959 0.931 . S
C939 O950 1.256 . S
C939 O951 1.257 1_556 S
O940 Gd920 2.377 . S
O940 C922 1.240 . S
O941 Gd921 2.395 . S
O941 C922 1.240 1_556 S
O942 Gd920 2.448 . S
O942 C923 1.249 . S
O943 Gd920 2.506 . S
O943 C923 1.252 . S
O944 Gd920 2.435 . S
O944 C930 1.256 . S
O945 Gd920 2.717 1_556 S
O945 Gd921 2.327 . S
O945 C930 1.257 1_556 S
O946 Gd921 2.377 . S
O946 C931 1.240 . S
O947 Gd920 2.395 . S
O947 C931 1.240 1_554 S
O948 Gd921 2.448 . S
O948 C932 1.249 . S
O949 Gd921 2.506 . S
O949 C932 1.252 . S
O950 Gd921 2.435 . S
O950 C939 1.256 . S
O951 Gd920 2.327 . S
O951 Gd921 2.717 1_554 S
O951 C939 1.257 1_554 S
H952 C925 0.930 . S
H953 C926 0.931 . S
H954 C928 0.931 . S
H955 C929 0.931 . S
H956 C934 0.930 . S
H957 C935 0.931 . S
H958 C937 0.931 . S
H959 C938 0.931 . S
Gd960 C963 2.818 . S
Gd960 O980 2.377 . S
Gd960 O982 2.448 . S
Gd960 O983 2.506 . S
Gd960 O984 2.435 . S
Gd960 O985 2.717 . S
Gd960 O987 2.395 . S
Gd960 O991 2.327 . S
Gd961 C972 2.818 . S
Gd961 O981 2.395 . S
Gd961 O985 2.327 . S
Gd961 O986 2.377 . S
Gd961 O988 2.448 . S
Gd961 O989 2.506 . S
Gd961 O990 2.435 . S
Gd961 O991 2.717 . S
C962 O980 1.240 . S
C962 O981 1.240 . S
C963 Gd960 2.818 . S
C963 C964 1.510 . S
C963 O982 1.249 . S
C963 O983 1.252 . S
C964 C963 1.510 . S
C964 C965 1.404 . S
C964 C966 1.352 1_565 S
C965 C964 1.404 . S
C965 C969 1.389 . S
C965 H992 0.930 . S
C966 C964 1.352 1_545 S
C966 C968 1.374 . S
C966 H993 0.931 . S
C967 C968 1.359 . S
C967 C969 1.364 1_545 S
C968 C966 1.374 . S
C968 C967 1.359 . S
C968 H994 0.931 . S
C969 C965 1.389 . S
C969 C967 1.364 1_565 S
C969 H995 0.931 . S
C970 O984 1.256 . S
C970 O985 1.257 . S
C971 O986 1.240 . S
C971 O987 1.240 . S
C972 Gd961 2.818 . S
C972 C973 1.510 . S
C972 O988 1.249 . S
C972 O989 1.252 . S
C973 C972 1.510 . S
C973 C974 1.404 . S
C973 C975 1.352 . S
C974 C973 1.404 . S
C974 C978 1.389 . S
C974 H996 0.930 . S
C975 C973 1.352 . S
C975 C977 1.374 . S
C975 H997 0.931 . S
C976 C977 1.359 . S
C976 C978 1.364 . S
C977 C975 1.374 . S
C977 C976 1.359 . S
C977 H998 0.931 . S
C978 C974 1.389 . S
C978 C976 1.364 . S
C978 H999 0.931 . S
C979 O990 1.256 . S
C979 O991 1.257 . S
O980 Gd960 2.377 . S
O980 C962 1.240 . S
O981 Gd961 2.395 . S
O981 C962 1.240 . S
O982 Gd960 2.448 . S
O982 C963 1.249 . S
O983 Gd960 2.506 . S
O983 C963 1.252 . S
O984 Gd960 2.435 . S
O984 C970 1.256 . S
O985 Gd960 2.717 . S
O985 Gd961 2.327 . S
O985 C970 1.257 . S
O986 Gd961 2.377 . S
O986 C971 1.240 . S
O987 Gd960 2.395 . S
O987 C971 1.240 . S
O988 Gd961 2.448 . S
O988 C972 1.249 . S
O989 Gd961 2.506 . S
O989 C972 1.252 . S
O990 Gd961 2.435 . S
O990 C979 1.256 . S
O991 Gd960 2.327 . S
O991 Gd961 2.717 . S
O991 C979 1.257 . S
H992 C965 0.930 . S
H993 C966 0.931 . S
H994 C968 0.931 . S
H995 C969 0.931 . S
H996 C974 0.930 . S
H997 C975 0.931 . S
H998 C977 0.931 . S
H999 C978 0.931 . S
Gd1000 C1003 2.818 . S
Gd1000 O1020 2.377 . S
Gd1000 O1022 2.448 . S
Gd1000 O1023 2.506 . S
Gd1000 O1024 2.435 . S
Gd1000 O1025 2.717 . S
Gd1000 O1027 2.395 . S
Gd1000 O1031 2.327 . S
Gd1001 C1012 2.818 . S
Gd1001 O1021 2.395 . S
Gd1001 O1025 2.327 . S
Gd1001 O1026 2.377 . S
Gd1001 O1028 2.448 . S
Gd1001 O1029 2.506 . S
Gd1001 O1030 2.435 . S
Gd1001 O1031 2.717 . S
C1002 O1020 1.240 . S
C1002 O1021 1.240 . S
C1003 Gd1000 2.818 . S
C1003 C1004 1.510 . S
C1003 O1022 1.249 . S
C1003 O1023 1.252 . S
C1004 C1003 1.510 . S
C1004 C1005 1.404 . S
C1004 C1006 1.352 1_455 S
C1005 C1004 1.404 . S
C1005 C1009 1.389 . S
C1005 H1032 0.930 . S
C1006 C1004 1.352 1_655 S
C1006 C1008 1.374 . S
C1006 H1033 0.931 . S
C1007 C1008 1.359 . S
C1007 C1009 1.364 1_655 S
C1008 C1006 1.374 . S
C1008 C1007 1.359 . S
C1008 H1034 0.931 . S
C1009 C1005 1.389 . S
C1009 C1007 1.364 1_455 S
C1009 H1035 0.931 . S
C1010 O1024 1.256 . S
C1010 O1025 1.257 . S
C1011 O1026 1.240 . S
C1011 O1027 1.240 . S
C1012 Gd1001 2.818 . S
C1012 C1013 1.510 . S
C1012 O1028 1.249 . S
C1012 O1029 1.252 . S
C1013 C1012 1.510 . S
C1013 C1014 1.404 . S
C1013 C1015 1.352 . S
C1014 C1013 1.404 . S
C1014 C1018 1.389 . S
C1014 H1036 0.930 . S
C1015 C1013 1.352 . S
C1015 C1017 1.374 . S
C1015 H1037 0.931 . S
C1016 C1017 1.359 . S
C1016 C1018 1.364 . S
C1017 C1015 1.374 . S
C1017 C1016 1.359 . S
C1017 H1038 0.931 . S
C1018 C1014 1.389 . S
C1018 C1016 1.364 . S
C1018 H1039 0.931 . S
C1019 O1030 1.256 . S
C1019 O1031 1.257 . S
O1020 Gd1000 2.377 . S
O1020 C1002 1.240 . S
O1021 Gd1001 2.395 . S
O1021 C1002 1.240 . S
O1022 Gd1000 2.448 . S
O1022 C1003 1.249 . S
O1023 Gd1000 2.506 . S
O1023 C1003 1.252 . S
O1024 Gd1000 2.435 . S
O1024 C1010 1.256 . S
O1025 Gd1000 2.717 . S
O1025 Gd1001 2.327 . S
O1025 C1010 1.257 . S
O1026 Gd1001 2.377 . S
O1026 C1011 1.240 . S
O1027 Gd1000 2.395 . S
O1027 C1011 1.240 . S
O1028 Gd1001 2.448 . S
O1028 C1012 1.249 . S
O1029 Gd1001 2.506 . S
O1029 C1012 1.252 . S
O1030 Gd1001 2.435 . S
O1030 C1019 1.256 . S
O1031 Gd1000 2.327 . S
O1031 Gd1001 2.717 . S
O1031 C1019 1.257 . S
H1032 C1005 0.930 . S
H1033 C1006 0.931 . S
H1034 C1008 0.931 . S
H1035 C1009 0.931 . S
H1036 C1014 0.930 . S
H1037 C1015 0.931 . S
H1038 C1017 0.931 . S
H1039 C1018 0.931 . S
Gd1040 C1043 2.818 . S
Gd1040 O1060 2.377 . S
Gd1040 O1062 2.448 . S
Gd1040 O1063 2.506 . S
Gd1040 O1064 2.435 . S
Gd1040 O1065 2.717 . S
Gd1040 O1067 2.395 . S
Gd1040 O1071 2.327 . S
Gd1041 C1052 2.818 . S
Gd1041 O1061 2.395 . S
Gd1041 O1065 2.327 . S
Gd1041 O1066 2.377 . S
Gd1041 O1068 2.448 . S
Gd1041 O1069 2.506 . S
Gd1041 O1070 2.435 . S
Gd1041 O1071 2.717 . S
C1042 O1060 1.240 . S
C1042 O1061 1.240 . S
C1043 Gd1040 2.818 . S
C1043 C1044 1.510 . S
C1043 O1062 1.249 . S
C1043 O1063 1.252 . S
C1044 C1043 1.510 . S
C1044 C1045 1.404 . S
C1044 C1046 1.352 . S
C1045 C1044 1.404 . S
C1045 C1049 1.389 . S
C1045 H1072 0.930 . S
C1046 C1044 1.352 . S
C1046 C1048 1.374 . S
C1046 H1073 0.931 . S
C1047 C1048 1.359 . S
C1047 C1049 1.364 . S
C1048 C1046 1.374 . S
C1048 C1047 1.359 . S
C1048 H1074 0.931 . S
C1049 C1045 1.389 . S
C1049 C1047 1.364 . S
C1049 H1075 0.931 . S
C1050 O1064 1.256 . S
C1050 O1065 1.257 . S
C1051 O1066 1.240 . S
C1051 O1067 1.240 . S
C1052 Gd1041 2.818 . S
C1052 C1053 1.510 . S
C1052 O1068 1.249 . S
C1052 O1069 1.252 . S
C1053 C1052 1.510 . S
C1053 C1054 1.404 . S
C1053 C1055 1.352 . S
C1054 C1053 1.404 . S
C1054 C1058 1.389 . S
C1054 H1076 0.930 . S
C1055 C1053 1.352 . S
C1055 C1057 1.374 . S
C1055 H1077 0.931 . S
C1056 C1057 1.359 . S
C1056 C1058 1.364 . S
C1057 C1055 1.374 . S
C1057 C1056 1.359 . S
C1057 H1078 0.931 . S
C1058 C1054 1.389 . S
C1058 C1056 1.364 . S
C1058 H1079 0.931 . S
C1059 O1070 1.256 . S
C1059 O1071 1.257 . S
O1060 Gd1040 2.377 . S
O1060 C1042 1.240 . S
O1061 Gd1041 2.395 . S
O1061 C1042 1.240 . S
O1062 Gd1040 2.448 . S
O1062 C1043 1.249 . S
O1063 Gd1040 2.506 . S
O1063 C1043 1.252 . S
O1064 Gd1040 2.435 . S
O1064 C1050 1.256 . S
O1065 Gd1040 2.717 . S
O1065 Gd1041 2.327 . S
O1065 C1050 1.257 . S
O1066 Gd1041 2.377 . S
O1066 C1051 1.240 . S
O1067 Gd1040 2.395 . S
O1067 C1051 1.240 . S
O1068 Gd1041 2.448 . S
O1068 C1052 1.249 . S
O1069 Gd1041 2.506 . S
O1069 C1052 1.252 . S
O1070 Gd1041 2.435 . S
O1070 C1059 1.256 . S
O1071 Gd1040 2.327 . S
O1071 Gd1041 2.717 . S
O1071 C1059 1.257 . S
H1072 C1045 0.930 . S
H1073 C1046 0.931 . S
H1074 C1048 0.931 . S
H1075 C1049 0.931 . S
H1076 C1054 0.930 . S
H1077 C1055 0.931 . S
H1078 C1057 0.931 . S
H1079 C1058 0.931 . S
Gd1080 C1083 2.818 . S
Gd1080 O1100 2.377 . S
Gd1080 O1102 2.448 . S
Gd1080 O1103 2.506 . S
Gd1080 O1104 2.435 . S
Gd1080 O1105 2.717 1_554 S
Gd1080 O1107 2.395 . S
Gd1080 O1111 2.327 . S
Gd1081 C1092 2.818 . S
Gd1081 O1101 2.395 . S
Gd1081 O1105 2.327 . S
Gd1081 O1106 2.377 . S
Gd1081 O1108 2.448 . S
Gd1081 O1109 2.506 . S
Gd1081 O1110 2.435 . S
Gd1081 O1111 2.717 1_556 S
C1082 O1100 1.240 . S
C1082 O1101 1.240 1_554 S
C1083 Gd1080 2.818 . S
C1083 C1084 1.510 . S
C1083 O1102 1.249 . S
C1083 O1103 1.252 . S
C1084 C1083 1.510 . S
C1084 C1085 1.404 . S
C1084 C1086 1.352 . S
C1085 C1084 1.404 . S
C1085 C1089 1.389 . S
C1085 H1112 0.930 . S
C1086 C1084 1.352 . S
C1086 C1088 1.374 . S
C1086 H1113 0.931 . S
C1087 C1088 1.359 . S
C1087 C1089 1.364 . S
C1088 C1086 1.374 . S
C1088 C1087 1.359 . S
C1088 H1114 0.931 . S
C1089 C1085 1.389 . S
C1089 C1087 1.364 . S
C1089 H1115 0.931 . S
C1090 O1104 1.256 . S
C1090 O1105 1.257 1_554 S
C1091 O1106 1.240 . S
C1091 O1107 1.240 1_556 S
C1092 Gd1081 2.818 . S
C1092 C1093 1.510 . S
C1092 O1108 1.249 . S
C1092 O1109 1.252 . S
C1093 C1092 1.510 . S
C1093 C1094 1.404 . S
C1093 C1095 1.352 . S
C1094 C1093 1.404 . S
C1094 C1098 1.389 . S
C1094 H1116 0.930 . S
C1095 C1093 1.352 . S
C1095 C1097 1.374 . S
C1095 H1117 0.931 . S
C1096 C1097 1.359 . S
C1096 C1098 1.364 . S
C1097 C1095 1.374 . S
C1097 C1096 1.359 . S
C1097 H1118 0.931 . S
C1098 C1094 1.389 . S
C1098 C1096 1.364 . S
C1098 H1119 0.931 . S
C1099 O1110 1.256 . S
C1099 O1111 1.257 1_556 S
O1100 Gd1080 2.377 . S
O1100 C1082 1.240 . S
O1101 Gd1081 2.395 . S
O1101 C1082 1.240 1_556 S
O1102 Gd1080 2.448 . S
O1102 C1083 1.249 . S
O1103 Gd1080 2.506 . S
O1103 C1083 1.252 . S
O1104 Gd1080 2.435 . S
O1104 C1090 1.256 . S
O1105 Gd1080 2.717 1_556 S
O1105 Gd1081 2.327 . S
O1105 C1090 1.257 1_556 S
O1106 Gd1081 2.377 . S
O1106 C1091 1.240 . S
O1107 Gd1080 2.395 . S
O1107 C1091 1.240 1_554 S
O1108 Gd1081 2.448 . S
O1108 C1092 1.249 . S
O1109 Gd1081 2.506 . S
O1109 C1092 1.252 . S
O1110 Gd1081 2.435 . S
O1110 C1099 1.256 . S
O1111 Gd1080 2.327 . S
O1111 Gd1081 2.717 1_554 S
O1111 C1099 1.257 1_554 S
H1112 C1085 0.930 . S
H1113 C1086 0.931 . S
H1114 C1088 0.931 . S
H1115 C1089 0.931 . S
H1116 C1094 0.930 . S
H1117 C1095 0.931 . S
H1118 C1097 0.931 . S
H1119 C1098 0.931 . S
Gd1120 C1123 2.818 . S
Gd1120 O1140 2.377 . S
Gd1120 O1142 2.448 . S
Gd1120 O1143 2.506 . S
Gd1120 O1144 2.435 . S
Gd1120 O1145 2.717 1_554 S
Gd1120 O1147 2.395 . S
Gd1120 O1151 2.327 . S
Gd1121 C1132 2.818 . S
Gd1121 O1141 2.395 . S
Gd1121 O1145 2.327 . S
Gd1121 O1146 2.377 . S
Gd1121 O1148 2.448 . S
Gd1121 O1149 2.506 . S
Gd1121 O1150 2.435 . S
Gd1121 O1151 2.717 1_556 S
C1122 O1140 1.240 . S
C1122 O1141 1.240 1_554 S
C1123 Gd1120 2.818 . S
C1123 C1124 1.510 . S
C1123 O1142 1.249 . S
C1123 O1143 1.252 . S
C1124 C1123 1.510 . S
C1124 C1125 1.404 . S
C1124 C1126 1.352 . S
C1125 C1124 1.404 . S
C1125 C1129 1.389 . S
C1125 H1152 0.930 . S
C1126 C1124 1.352 . S
C1126 C1128 1.374 . S
C1126 H1153 0.931 . S
C1127 C1128 1.359 . S
C1127 C1129 1.364 . S
C1128 C1126 1.374 . S
C1128 C1127 1.359 . S
C1128 H1154 0.931 . S
C1129 C1125 1.389 . S
C1129 C1127 1.364 . S
C1129 H1155 0.931 . S
C1130 O1144 1.256 . S
C1130 O1145 1.257 1_554 S
C1131 O1146 1.240 . S
C1131 O1147 1.240 1_556 S
C1132 Gd1121 2.818 . S
C1132 C1133 1.510 . S
C1132 O1148 1.249 . S
C1132 O1149 1.252 . S
C1133 C1132 1.510 . S
C1133 C1134 1.404 . S
C1133 C1135 1.352 . S
C1134 C1133 1.404 . S
C1134 C1138 1.389 . S
C1134 H1156 0.930 . S
C1135 C1133 1.352 . S
C1135 C1137 1.374 . S
C1135 H1157 0.931 . S
C1136 C1137 1.359 . S
C1136 C1138 1.364 . S
C1137 C1135 1.374 . S
C1137 C1136 1.359 . S
C1137 H1158 0.931 . S
C1138 C1134 1.389 . S
C1138 C1136 1.364 . S
C1138 H1159 0.931 . S
C1139 O1150 1.256 . S
C1139 O1151 1.257 1_556 S
O1140 Gd1120 2.377 . S
O1140 C1122 1.240 . S
O1141 Gd1121 2.395 . S
O1141 C1122 1.240 1_556 S
O1142 Gd1120 2.448 . S
O1142 C1123 1.249 . S
O1143 Gd1120 2.506 . S
O1143 C1123 1.252 . S
O1144 Gd1120 2.435 . S
O1144 C1130 1.256 . S
O1145 Gd1120 2.717 1_556 S
O1145 Gd1121 2.327 . S
O1145 C1130 1.257 1_556 S
O1146 Gd1121 2.377 . S
O1146 C1131 1.240 . S
O1147 Gd1120 2.395 . S
O1147 C1131 1.240 1_554 S
O1148 Gd1121 2.448 . S
O1148 C1132 1.249 . S
O1149 Gd1121 2.506 . S
O1149 C1132 1.252 . S
O1150 Gd1121 2.435 . S
O1150 C1139 1.256 . S
O1151 Gd1120 2.327 . S
O1151 Gd1121 2.717 1_554 S
O1151 C1139 1.257 1_554 S
H1152 C1125 0.930 . S
H1153 C1126 0.931 . S
H1154 C1128 0.931 . S
H1155 C1129 0.931 . S
H1156 C1134 0.930 . S
H1157 C1135 0.931 . S
H1158 C1137 0.931 . S
H1159 C1138 0.931 . S
Gd1160 C1163 2.818 . S
Gd1160 O1180 2.377 . S
Gd1160 O1182 2.448 . S
Gd1160 O1183 2.506 . S
Gd1160 O1184 2.435 . S
Gd1160 O1185 2.717 1_554 S
Gd1160 O1187 2.395 . S
Gd1160 O1191 2.327 . S
Gd1161 C1172 2.818 . S
Gd1161 O1181 2.395 . S
Gd1161 O1185 2.327 . S
Gd1161 O1186 2.377 . S
Gd1161 O1188 2.448 . S
Gd1161 O1189 2.506 . S
Gd1161 O1190 2.435 . S
Gd1161 O1191 2.717 1_556 S
C1162 O1180 1.240 . S
C1162 O1181 1.240 1_554 S
C1163 Gd1160 2.818 . S
C1163 C1164 1.510 . S
C1163 O1182 1.249 . S
C1163 O1183 1.252 . S
C1164 C1163 1.510 . S
C1164 C1165 1.404 . S
C1164 C1166 1.352 . S
C1165 C1164 1.404 . S
C1165 C1169 1.389 . S
C1165 H1192 0.930 . S
C1166 C1164 1.352 . S
C1166 C1168 1.374 . S
C1166 H1193 0.931 . S
C1167 C1168 1.359 . S
C1167 C1169 1.364 . S
C1168 C1166 1.374 . S
C1168 C1167 1.359 . S
C1168 H1194 0.931 . S
C1169 C1165 1.389 . S
C1169 C1167 1.364 . S
C1169 H1195 0.931 . S
C1170 O1184 1.256 . S
C1170 O1185 1.257 1_554 S
C1171 O1186 1.240 . S
C1171 O1187 1.240 1_556 S
C1172 Gd1161 2.818 . S
C1172 C1173 1.510 . S
C1172 O1188 1.249 . S
C1172 O1189 1.252 . S
C1173 C1172 1.510 . S
C1173 C1174 1.404 . S
C1173 C1175 1.352 . S
C1174 C1173 1.404 . S
C1174 C1178 1.389 . S
C1174 H1196 0.930 . S
C1175 C1173 1.352 . S
C1175 C1177 1.374 . S
C1175 H1197 0.931 . S
C1176 C1177 1.359 . S
C1176 C1178 1.364 . S
C1177 C1175 1.374 . S
C1177 C1176 1.359 . S
C1177 H1198 0.931 . S
C1178 C1174 1.389 . S
C1178 C1176 1.364 . S
C1178 H1199 0.931 . S
C1179 O1190 1.256 . S
C1179 O1191 1.257 1_556 S
O1180 Gd1160 2.377 . S
O1180 C1162 1.240 . S
O1181 Gd1161 2.395 . S
O1181 C1162 1.240 1_556 S
O1182 Gd1160 2.448 . S
O1182 C1163 1.249 . S
O1183 Gd1160 2.506 . S
O1183 C1163 1.252 . S
O1184 Gd1160 2.435 . S
O1184 C1170 1.256 . S
O1185 Gd1160 2.717 1_556 S
O1185 Gd1161 2.327 . S
O1185 C1170 1.257 1_556 S
O1186 Gd1161 2.377 . S
O1186 C1171 1.240 . S
O1187 Gd1160 2.395 . S
O1187 C1171 1.240 1_554 S
O1188 Gd1161 2.448 . S
O1188 C1172 1.249 . S
O1189 Gd1161 2.506 . S
O1189 C1172 1.252 . S
O1190 Gd1161 2.435 . S
O1190 C1179 1.256 . S
O1191 Gd1160 2.327 . S
O1191 Gd1161 2.717 1_554 S
O1191 C1179 1.257 1_554 S
H1192 C1165 0.930 . S
H1193 C1166 0.931 . S
H1194 C1168 0.931 . S
H1195 C1169 0.931 . S
H1196 C1174 0.930 . S
H1197 C1175 0.931 . S
H1198 C1177 0.931 . S
H1199 C1178 0.931 . S
Gd1200 C1203 2.818 . S
Gd1200 O1220 2.377 . S
Gd1200 O1222 2.448 . S
Gd1200 O1223 2.506 . S
Gd1200 O1224 2.435 . S
Gd1200 O1225 2.717 . S
Gd1200 O1227 2.395 . S
Gd1200 O1231 2.327 . S
Gd1201 C1212 2.818 . S
Gd1201 O1221 2.395 . S
Gd1201 O1225 2.327 . S
Gd1201 O1226 2.377 . S
Gd1201 O1228 2.448 . S
Gd1201 O1229 2.506 . S
Gd1201 O1230 2.435 . S
Gd1201 O1231 2.717 . S
C1202 O1220 1.240 . S
C1202 O1221 1.240 . S
C1203 Gd1200 2.818 . S
C1203 C1204 1.510 . S
C1203 O1222 1.249 . S
C1203 O1223 1.252 . S
C1204 C1203 1.510 . S
C1204 C1205 1.404 . S
C1204 C1206 1.352 . S
C1205 C1204 1.404 . S
C1205 C1209 1.389 . S
C1205 H1232 0.930 . S
C1206 C1204 1.352 . S
C1206 C1208 1.374 . S
C1206 H1233 0.931 . S
C1207 C1208 1.359 . S
C1207 C1209 1.364 . S
C1208 C1206 1.374 . S
C1208 C1207 1.359 . S
C1208 H1234 0.931 . S
C1209 C1205 1.389 . S
C1209 C1207 1.364 . S
C1209 H1235 0.931 . S
C1210 O1224 1.256 . S
C1210 O1225 1.257 . S
C1211 O1226 1.240 . S
C1211 O1227 1.240 . S
C1212 Gd1201 2.818 . S
C1212 C1213 1.510 . S
C1212 O1228 1.249 . S
C1212 O1229 1.252 . S
C1213 C1212 1.510 . S
C1213 C1214 1.404 . S
C1213 C1215 1.352 . S
C1214 C1213 1.404 . S
C1214 C1218 1.389 . S
C1214 H1236 0.930 . S
C1215 C1213 1.352 . S
C1215 C1217 1.374 . S
C1215 H1237 0.931 . S
C1216 C1217 1.359 . S
C1216 C1218 1.364 . S
C1217 C1215 1.374 . S
C1217 C1216 1.359 . S
C1217 H1238 0.931 . S
C1218 C1214 1.389 . S
C1218 C1216 1.364 . S
C1218 H1239 0.931 . S
C1219 O1230 1.256 . S
C1219 O1231 1.257 . S
O1220 Gd1200 2.377 . S
O1220 C1202 1.240 . S
O1221 Gd1201 2.395 . S
O1221 C1202 1.240 . S
O1222 Gd1200 2.448 . S
O1222 C1203 1.249 . S
O1223 Gd1200 2.506 . S
O1223 C1203 1.252 . S
O1224 Gd1200 2.435 . S
O1224 C1210 1.256 . S
O1225 Gd1200 2.717 . S
O1225 Gd1201 2.327 . S
O1225 C1210 1.257 . S
O1226 Gd1201 2.377 . S
O1226 C1211 1.240 . S
O1227 Gd1200 2.395 . S
O1227 C1211 1.240 . S
O1228 Gd1201 2.448 . S
O1228 C1212 1.249 . S
O1229 Gd1201 2.506 . S
O1229 C1212 1.252 . S
O1230 Gd1201 2.435 . S
O1230 C1219 1.256 . S
O1231 Gd1200 2.327 . S
O1231 Gd1201 2.717 . S
O1231 C1219 1.257 . S
H1232 C1205 0.930 . S
H1233 C1206 0.931 . S
H1234 C1208 0.931 . S
H1235 C1209 0.931 . S
H1236 C1214 0.930 . S
H1237 C1215 0.931 . S
H1238 C1217 0.931 . S
H1239 C1218 0.931 . S
Gd1240 C1243 2.818 . S
Gd1240 O1260 2.377 . S
Gd1240 O1262 2.448 . S
Gd1240 O1263 2.506 . S
Gd1240 O1264 2.435 . S
Gd1240 O1265 2.717 . S
Gd1240 O1267 2.395 . S
Gd1240 O1271 2.327 . S
Gd1241 C1252 2.818 . S
Gd1241 O1261 2.395 . S
Gd1241 O1265 2.327 . S
Gd1241 O1266 2.377 . S
Gd1241 O1268 2.448 . S
Gd1241 O1269 2.506 . S
Gd1241 O1270 2.435 . S
Gd1241 O1271 2.717 . S
C1242 O1260 1.240 . S
C1242 O1261 1.240 . S
C1243 Gd1240 2.818 . S
C1243 C1244 1.510 . S
C1243 O1262 1.249 . S
C1243 O1263 1.252 . S
C1244 C1243 1.510 . S
C1244 C1245 1.404 . S
C1244 C1246 1.352 . S
C1245 C1244 1.404 . S
C1245 C1249 1.389 . S
C1245 H1272 0.930 . S
C1246 C1244 1.352 . S
C1246 C1248 1.374 . S
C1246 H1273 0.931 . S
C1247 C1248 1.359 . S
C1247 C1249 1.364 . S
C1248 C1246 1.374 . S
C1248 C1247 1.359 . S
C1248 H1274 0.931 . S
C1249 C1245 1.389 . S
C1249 C1247 1.364 . S
C1249 H1275 0.931 . S
C1250 O1264 1.256 . S
C1250 O1265 1.257 . S
C1251 O1266 1.240 . S
C1251 O1267 1.240 . S
C1252 Gd1241 2.818 . S
C1252 C1253 1.510 . S
C1252 O1268 1.249 . S
C1252 O1269 1.252 . S
C1253 C1252 1.510 . S
C1253 C1254 1.404 . S
C1253 C1255 1.352 . S
C1254 C1253 1.404 . S
C1254 C1258 1.389 . S
C1254 H1276 0.930 . S
C1255 C1253 1.352 . S
C1255 C1257 1.374 . S
C1255 H1277 0.931 . S
C1256 C1257 1.359 . S
C1256 C1258 1.364 . S
C1257 C1255 1.374 . S
C1257 C1256 1.359 . S
C1257 H1278 0.931 . S
C1258 C1254 1.389 . S
C1258 C1256 1.364 . S
C1258 H1279 0.931 . S
C1259 O1270 1.256 . S
C1259 O1271 1.257 . S
O1260 Gd1240 2.377 . S
O1260 C1242 1.240 . S
O1261 Gd1241 2.395 . S
O1261 C1242 1.240 . S
O1262 Gd1240 2.448 . S
O1262 C1243 1.249 . S
O1263 Gd1240 2.506 . S
O1263 C1243 1.252 . S
O1264 Gd1240 2.435 . S
O1264 C1250 1.256 . S
O1265 Gd1240 2.717 . S
O1265 Gd1241 2.327 . S
O1265 C1250 1.257 . S
O1266 Gd1241 2.377 . S
O1266 C1251 1.240 . S
O1267 Gd1240 2.395 . S
O1267 C1251 1.240 . S
O1268 Gd1241 2.448 . S
O1268 C1252 1.249 . S
O1269 Gd1241 2.506 . S
O1269 C1252 1.252 . S
O1270 Gd1241 2.435 . S
O1270 C1259 1.256 . S
O1271 Gd1240 2.327 . S
O1271 Gd1241 2.717 . S
O1271 C1259 1.257 . S
H1272 C1245 0.930 . S
H1273 C1246 0.931 . S
H1274 C1248 0.931 . S
H1275 C1249 0.931 . S
H1276 C1254 0.930 . S
H1277 C1255 0.931 . S
H1278 C1257 0.931 . S
H1279 C1258 0.931 . S
Gd1280 C1283 2.818 . S
Gd1280 O1300 2.377 . S
Gd1280 O1302 2.448 . S
Gd1280 O1303 2.506 . S
Gd1280 O1304 2.435 . S
Gd1280 O1305 2.717 . S
Gd1280 O1307 2.395 . S
Gd1280 O1311 2.327 . S
Gd1281 C1292 2.818 . S
Gd1281 O1301 2.395 . S
Gd1281 O1305 2.327 . S
Gd1281 O1306 2.377 . S
Gd1281 O1308 2.448 . S
Gd1281 O1309 2.506 . S
Gd1281 O1310 2.435 . S
Gd1281 O1311 2.717 . S
C1282 O1300 1.240 . S
C1282 O1301 1.240 . S
C1283 Gd1280 2.818 . S
C1283 C1284 1.510 . S
C1283 O1302 1.249 . S
C1283 O1303 1.252 . S
C1284 C1283 1.510 . S
C1284 C1285 1.404 . S
C1284 C1286 1.352 . S
C1285 C1284 1.404 . S
C1285 C1289 1.389 . S
C1285 H1312 0.930 . S
C1286 C1284 1.352 . S
C1286 C1288 1.374 . S
C1286 H1313 0.931 . S
C1287 C1288 1.359 . S
C1287 C1289 1.364 . S
C1288 C1286 1.374 . S
C1288 C1287 1.359 . S
C1288 H1314 0.931 . S
C1289 C1285 1.389 . S
C1289 C1287 1.364 . S
C1289 H1315 0.931 . S
C1290 O1304 1.256 . S
C1290 O1305 1.257 . S
C1291 O1306 1.240 . S
C1291 O1307 1.240 . S
C1292 Gd1281 2.818 . S
C1292 C1293 1.510 . S
C1292 O1308 1.249 . S
C1292 O1309 1.252 . S
C1293 C1292 1.510 . S
C1293 C1294 1.404 . S
C1293 C1295 1.352 . S
C1294 C1293 1.404 . S
C1294 C1298 1.389 . S
C1294 H1316 0.930 . S
C1295 C1293 1.352 . S
C1295 C1297 1.374 . S
C1295 H1317 0.931 . S
C1296 C1297 1.359 . S
C1296 C1298 1.364 . S
C1297 C1295 1.374 . S
C1297 C1296 1.359 . S
C1297 H1318 0.931 . S
C1298 C1294 1.389 . S
C1298 C1296 1.364 . S
C1298 H1319 0.931 . S
C1299 O1310 1.256 . S
C1299 O1311 1.257 . S
O1300 Gd1280 2.377 . S
O1300 C1282 1.240 . S
O1301 Gd1281 2.395 . S
O1301 C1282 1.240 . S
O1302 Gd1280 2.448 . S
O1302 C1283 1.249 . S
O1303 Gd1280 2.506 . S
O1303 C1283 1.252 . S
O1304 Gd1280 2.435 . S
O1304 C1290 1.256 . S
O1305 Gd1280 2.717 . S
O1305 Gd1281 2.327 . S
O1305 C1290 1.257 . S
O1306 Gd1281 2.377 . S
O1306 C1291 1.240 . S
O1307 Gd1280 2.395 . S
O1307 C1291 1.240 . S
O1308 Gd1281 2.448 . S
O1308 C1292 1.249 . S
O1309 Gd1281 2.506 . S
O1309 C1292 1.252 . S
O1310 Gd1281 2.435 . S
O1310 C1299 1.256 . S
O1311 Gd1280 2.327 . S
O1311 Gd1281 2.717 . S
O1311 C1299 1.257 . S
H1312 C1285 0.930 . S
H1313 C1286 0.931 . S
H1314 C1288 0.931 . S
H1315 C1289 0.931 . S
H1316 C1294 0.930 . S
H1317 C1295 0.931 . S
H1318 C1297 0.931 . S
H1319 C1298 0.931 . S
Gd1320 C1323 2.818 . S
Gd1320 O1340 2.377 . S
Gd1320 O1342 2.448 . S
Gd1320 O1343 2.506 . S
Gd1320 O1344 2.435 . S
Gd1320 O1345 2.717 . S
Gd1320 O1347 2.395 . S
Gd1320 O1351 2.327 . S
Gd1321 C1332 2.818 . S
Gd1321 O1341 2.395 . S
Gd1321 O1345 2.327 . S
Gd1321 O1346 2.377 . S
Gd1321 O1348 2.448 . S
Gd1321 O1349 2.506 . S
Gd1321 O1350 2.435 . S
Gd1321 O1351 2.717 . S
C1322 O1340 1.240 . S
C1322 O1341 1.240 . S
C1323 Gd1320 2.818 . S
C1323 C1324 1.510 . S
C1323 O1342 1.249 . S
C1323 O1343 1.252 . S
C1324 C1323 1.510 . S
C1324 C1325 1.404 . S
C1324 C1326 1.352 . S
C1325 C1324 1.404 . S
C1325 C1329 1.389 . S
C1325 H1352 0.930 . S
C1326 C1324 1.352 . S
C1326 C1328 1.374 . S
C1326 H1353 0.931 . S
C1327 C1328 1.359 . S
C1327 C1329 1.364 . S
C1328 C1326 1.374 . S
C1328 C1327 1.359 . S
C1328 H1354 0.931 . S
C1329 C1325 1.389 . S
C1329 C1327 1.364 . S
C1329 H1355 0.931 . S
C1330 O1344 1.256 . S
C1330 O1345 1.257 . S
C1331 O1346 1.240 . S
C1331 O1347 1.240 . S
C1332 Gd1321 2.818 . S
C1332 C1333 1.510 . S
C1332 O1348 1.249 . S
C1332 O1349 1.252 . S
C1333 C1332 1.510 . S
C1333 C1334 1.404 . S
C1333 C1335 1.352 1_455 S
C1334 C1333 1.404 . S
C1334 C1338 1.389 . S
C1334 H1356 0.930 . S
C1335 C1333 1.352 1_655 S
C1335 C1337 1.374 . S
C1335 H1357 0.931 . S
C1336 C1337 1.359 . S
C1336 C1338 1.364 1_655 S
C1337 C1335 1.374 . S
C1337 C1336 1.359 . S
C1337 H1358 0.931 . S
C1338 C1334 1.389 . S
C1338 C1336 1.364 1_455 S
C1338 H1359 0.931 . S
C1339 O1350 1.256 . S
C1339 O1351 1.257 . S
O1340 Gd1320 2.377 . S
O1340 C1322 1.240 . S
O1341 Gd1321 2.395 . S
O1341 C1322 1.240 . S
O1342 Gd1320 2.448 . S
O1342 C1323 1.249 . S
O1343 Gd1320 2.506 . S
O1343 C1323 1.252 . S
O1344 Gd1320 2.435 . S
O1344 C1330 1.256 . S
O1345 Gd1320 2.717 . S
O1345 Gd1321 2.327 . S
O1345 C1330 1.257 . S
O1346 Gd1321 2.377 . S
O1346 C1331 1.240 . S
O1347 Gd1320 2.395 . S
O1347 C1331 1.240 . S
O1348 Gd1321 2.448 . S
O1348 C1332 1.249 . S
O1349 Gd1321 2.506 . S
O1349 C1332 1.252 . S
O1350 Gd1321 2.435 . S
O1350 C1339 1.256 . S
O1351 Gd1320 2.327 . S
O1351 Gd1321 2.717 . S
O1351 C1339 1.257 . S
H1352 C1325 0.930 . S
H1353 C1326 0.931 . S
H1354 C1328 0.931 . S
H1355 C1329 0.931 . S
H1356 C1334 0.930 . S
H1357 C1335 0.931 . S
H1358 C1337 0.931 . S
H1359 C1338 0.931 . S
Gd1360 C1363 2.818 . S
Gd1360 O1380 2.377 . S
Gd1360 O1382 2.448 . S
Gd1360 O1383 2.506 . S
Gd1360 O1384 2.435 . S
Gd1360 O1385 2.717 . S
Gd1360 O1387 2.395 . S
Gd1360 O1391 2.327 . S
Gd1361 C1372 2.818 . S
Gd1361 O1381 2.395 . S
Gd1361 O1385 2.327 . S
Gd1361 O1386 2.377 . S
Gd1361 O1388 2.448 . S
Gd1361 O1389 2.506 . S
Gd1361 O1390 2.435 . S
Gd1361 O1391 2.717 . S
C1362 O1380 1.240 . S
C1362 O1381 1.240 . S
C1363 Gd1360 2.818 . S
C1363 C1364 1.510 . S
C1363 O1382 1.249 . S
C1363 O1383 1.252 . S
C1364 C1363 1.510 . S
C1364 C1365 1.404 . S
C1364 C1366 1.352 . S
C1365 C1364 1.404 . S
C1365 C1369 1.389 . S
C1365 H1392 0.930 . S
C1366 C1364 1.352 . S
C1366 C1368 1.374 . S
C1366 H1393 0.931 . S
C1367 C1368 1.359 . S
C1367 C1369 1.364 . S
C1368 C1366 1.374 . S
C1368 C1367 1.359 . S
C1368 H1394 0.931 . S
C1369 C1365 1.389 . S
C1369 C1367 1.364 . S
C1369 H1395 0.931 . S
C1370 O1384 1.256 . S
C1370 O1385 1.257 . S
C1371 O1386 1.240 . S
C1371 O1387 1.240 . S
C1372 Gd1361 2.818 . S
C1372 C1373 1.510 . S
C1372 O1388 1.249 . S
C1372 O1389 1.252 . S
C1373 C1372 1.510 . S
C1373 C1374 1.404 . S
C1373 C1375 1.352 . S
C1374 C1373 1.404 . S
C1374 C1378 1.389 . S
C1374 H1396 0.930 . S
C1375 C1373 1.352 . S
C1375 C1377 1.374 . S
C1375 H1397 0.931 . S
C1376 C1377 1.359 . S
C1376 C1378 1.364 . S
C1377 C1375 1.374 . S
C1377 C1376 1.359 . S
C1377 H1398 0.931 . S
C1378 C1374 1.389 . S
C1378 C1376 1.364 . S
C1378 H1399 0.931 . S
C1379 O1390 1.256 . S
C1379 O1391 1.257 . S
O1380 Gd1360 2.377 . S
O1380 C1362 1.240 . S
O1381 Gd1361 2.395 . S
O1381 C1362 1.240 . S
O1382 Gd1360 2.448 . S
O1382 C1363 1.249 . S
O1383 Gd1360 2.506 . S
O1383 C1363 1.252 . S
O1384 Gd1360 2.435 . S
O1384 C1370 1.256 . S
O1385 Gd1360 2.717 . S
O1385 Gd1361 2.327 . S
O1385 C1370 1.257 . S
O1386 Gd1361 2.377 . S
O1386 C1371 1.240 . S
O1387 Gd1360 2.395 . S
O1387 C1371 1.240 . S
O1388 Gd1361 2.448 . S
O1388 C1372 1.249 . S
O1389 Gd1361 2.506 . S
O1389 C1372 1.252 . S
O1390 Gd1361 2.435 . S
O1390 C1379 1.256 . S
O1391 Gd1360 2.327 . S
O1391 Gd1361 2.717 . S
O1391 C1379 1.257 . S
H1392 C1365 0.930 . S
H1393 C1366 0.931 . S
H1394 C1368 0.931 . S
H1395 C1369 0.931 . S
H1396 C1374 0.930 . S
H1397 C1375 0.931 . S
H1398 C1377 0.931 . S
H1399 C1378 0.931 . S
Gd1400 C1403 2.818 . S
Gd1400 O1420 2.377 . S
Gd1400 O1422 2.448 . S
Gd1400 O1423 2.506 . S
Gd1400 O1424 2.435 . S
Gd1400 O1425 2.717 . S
Gd1400 O1427 2.395 . S
Gd1400 O1431 2.327 . S
Gd1401 C1412 2.818 . S
Gd1401 O1421 2.395 . S
Gd1401 O1425 2.327 . S
Gd1401 O1426 2.377 . S
Gd1401 O1428 2.448 . S
Gd1401 O1429 2.506 . S
Gd1401 O1430 2.435 . S
Gd1401 O1431 2.717 . S
C1402 O1420 1.240 . S
C1402 O1421 1.240 . S
C1403 Gd1400 2.818 . S
C1403 C1404 1.510 . S
C1403 O1422 1.249 . S
C1403 O1423 1.252 . S
C1404 C1403 1.510 . S
C1404 C1405 1.404 . S
C1404 C1406 1.352 . S
C1405 C1404 1.404 . S
C1405 C1409 1.389 . S
C1405 H1432 0.930 . S
C1406 C1404 1.352 . S
C1406 C1408 1.374 . S
C1406 H1433 0.931 . S
C1407 C1408 1.359 . S
C1407 C1409 1.364 . S
C1408 C1406 1.374 . S
C1408 C1407 1.359 . S
C1408 H1434 0.931 . S
C1409 C1405 1.389 . S
C1409 C1407 1.364 . S
C1409 H1435 0.931 . S
C1410 O1424 1.256 . S
C1410 O1425 1.257 . S
C1411 O1426 1.240 . S
C1411 O1427 1.240 . S
C1412 Gd1401 2.818 . S
C1412 C1413 1.510 . S
C1412 O1428 1.249 . S
C1412 O1429 1.252 . S
C1413 C1412 1.510 . S
C1413 C1414 1.404 . S
C1413 C1415 1.352 1_565 S
C1414 C1413 1.404 . S
C1414 C1418 1.389 . S
C1414 H1436 0.930 . S
C1415 C1413 1.352 1_545 S
C1415 C1417 1.374 . S
C1415 H1437 0.931 . S
C1416 C1417 1.359 . S
C1416 C1418 1.364 1_545 S
C1417 C1415 1.374 . S
C1417 C1416 1.359 . S
C1417 H1438 0.931 . S
C1418 C1414 1.389 . S
C1418 C1416 1.364 1_565 S
C1418 H1439 0.931 . S
C1419 O1430 1.256 . S
C1419 O1431 1.257 . S
O1420 Gd1400 2.377 . S
O1420 C1402 1.240 . S
O1421 Gd1401 2.395 . S
O1421 C1402 1.240 . S
O1422 Gd1400 2.448 . S
O1422 C1403 1.249 . S
O1423 Gd1400 2.506 . S
O1423 C1403 1.252 . S
O1424 Gd1400 2.435 . S
O1424 C1410 1.256 . S
O1425 Gd1400 2.717 . S
O1425 Gd1401 2.327 . S
O1425 C1410 1.257 . S
O1426 Gd1401 2.377 . S
O1426 C1411 1.240 . S
O1427 Gd1400 2.395 . S
O1427 C1411 1.240 . S
O1428 Gd1401 2.448 . S
O1428 C1412 1.249 . S
O1429 Gd1401 2.506 . S
O1429 C1412 1.252 . S
O1430 Gd1401 2.435 . S
O1430 C1419 1.256 . S
O1431 Gd1400 2.327 . S
O1431 Gd1401 2.717 . S
O1431 C1419 1.257 . S
H1432 C1405 0.930 . S
H1433 C1406 0.931 . S
H1434 C1408 0.931 . S
H1435 C1409 0.931 . S
H1436 C1414 0.930 . S
H1437 C1415 0.931 . S
H1438 C1417 0.931 . S
H1439 C1418 0.931 . S
C1440 C1441 1.369 . S
C1440 C1442 1.419 . S
C1440 H1444 0.930 . S
C1441 C1440 1.369 . S
C1441 C1450 1.429 . S
C1442 C1440 1.419 . S
C1442 C1443 1.363 . S
C1442 H1445 0.929 . S
C1443 C1442 1.363 . S
C1443 C1449 1.428 . S
H1444 C1440 0.930 . S
H1445 C1442 0.929 . S
S1446 N1447 1.613 . S
S1446 N1448 1.610 . S
N1447 S1446 1.613 . S
N1447 C1450 1.350 . S
N1448 S1446 1.610 . S
N1448 C1449 1.351 . S
C1449 C1443 1.428 . S
C1449 N1448 1.351 . S
C1449 C1450 1.434 . S
C1450 C1441 1.429 . S
C1450 N1447 1.350 . S
C1450 C1449 1.434 . S
C1451 C1452 1.369 . S
C1451 C1453 1.419 . S
C1451 H1455 0.930 . S
C1452 C1451 1.369 . S
C1452 C1461 1.429 . S
C1453 C1451 1.419 . S
C1453 C1454 1.363 . S
C1453 H1456 0.929 . S
C1454 C1453 1.363 . S
C1454 C1460 1.428 . S
H1455 C1451 0.930 . S
H1456 C1453 0.929 . S
S1457 N1458 1.613 . S
S1457 N1459 1.610 . S
N1458 S1457 1.613 . S
N1458 C1461 1.350 . S
N1459 S1457 1.610 . S
N1459 C1460 1.351 . S
C1460 C1454 1.428 . S
C1460 N1459 1.351 . S
C1460 C1461 1.434 . S
C1461 C1452 1.429 . S
C1461 N1458 1.350 . S
C1461 C1460 1.434 . S
C1462 C1463 1.369 . S
C1462 C1464 1.419 . S
C1462 H1466 0.930 . S
C1463 C1462 1.369 . S
C1463 C1472 1.429 . S
C1464 C1462 1.419 . S
C1464 C1465 1.363 . S
C1464 H1467 0.929 . S
C1465 C1464 1.363 . S
C1465 C1471 1.428 . S
H1466 C1462 0.930 . S
H1467 C1464 0.929 . S
S1468 N1469 1.613 . S
S1468 N1470 1.610 . S
N1469 S1468 1.613 . S
N1469 C1472 1.350 . S
N1470 S1468 1.610 . S
N1470 C1471 1.351 . S
C1471 C1465 1.428 . S
C1471 N1470 1.351 . S
C1471 C1472 1.434 . S
C1472 C1463 1.429 . S
C1472 N1469 1.350 . S
C1472 C1471 1.434 . S
C1473 C1474 1.369 . S
C1473 C1475 1.419 . S
C1473 H1477 0.930 . S
C1474 C1473 1.369 . S
C1474 C1483 1.429 . S
C1475 C1473 1.419 . S
C1475 C1476 1.363 . S
C1475 H1478 0.929 . S
C1476 C1475 1.363 . S
C1476 C1482 1.428 . S
H1477 C1473 0.930 . S
H1478 C1475 0.929 . S
S1479 N1480 1.613 . S
S1479 N1481 1.610 . S
N1480 S1479 1.613 . S
N1480 C1483 1.350 . S
N1481 S1479 1.610 . S
N1481 C1482 1.351 . S
C1482 C1476 1.428 . S
C1482 N1481 1.351 . S
C1482 C1483 1.434 . S
C1483 C1474 1.429 . S
C1483 N1480 1.350 . S
C1483 C1482 1.434 . S
C1484 C1485 1.369 . S
C1484 C1486 1.419 . S
C1484 H1488 0.930 . S
C1485 C1484 1.369 . S
C1485 C1494 1.429 . S
C1486 C1484 1.419 . S
C1486 C1487 1.363 . S
C1486 H1489 0.929 . S
C1487 C1486 1.363 . S
C1487 C1493 1.428 . S
H1488 C1484 0.930 . S
H1489 C1486 0.929 . S
S1490 N1491 1.613 . S
S1490 N1492 1.610 . S
N1491 S1490 1.613 . S
N1491 C1494 1.350 . S
N1492 S1490 1.610 . S
N1492 C1493 1.351 . S
C1493 C1487 1.428 . S
C1493 N1492 1.351 . S
C1493 C1494 1.434 . S
C1494 C1485 1.429 . S
C1494 N1491 1.350 . S
C1494 C1493 1.434 . S
C1495 C1496 1.369 . S
C1495 C1497 1.419 . S
C1495 H1499 0.930 . S
C1496 C1495 1.369 . S
C1496 C1505 1.429 . S
C1497 C1495 1.419 . S
C1497 C1498 1.363 . S
C1497 H1500 0.929 . S
C1498 C1497 1.363 . S
C1498 C1504 1.428 . S
H1499 C1495 0.930 . S
H1500 C1497 0.929 . S
S1501 N1502 1.613 . S
S1501 N1503 1.610 . S
N1502 S1501 1.613 . S
N1502 C1505 1.350 . S
N1503 S1501 1.610 . S
N1503 C1504 1.351 . S
C1504 C1498 1.428 . S
C1504 N1503 1.351 . S
C1504 C1505 1.434 . S
C1505 C1496 1.429 . S
C1505 N1502 1.350 . S
C1505 C1504 1.434 . S
C1506 C1507 1.369 . S
C1506 C1508 1.419 . S
C1506 H1510 0.930 . S
C1507 C1506 1.369 . S
C1507 C1516 1.429 . S
C1508 C1506 1.419 . S
C1508 C1509 1.363 . S
C1508 H1511 0.929 . S
C1509 C1508 1.363 . S
C1509 C1515 1.428 . S
H1510 C1506 0.930 . S
H1511 C1508 0.929 . S
S1512 N1513 1.613 . S
S1512 N1514 1.625 . S
N1513 S1512 1.613 . S
N1513 C1516 1.350 . S
N1514 S1512 1.625 . S
N1514 C1515 1.358 . S
C1515 C1509 1.428 . S
C1515 N1514 1.358 . S
C1515 C1516 1.434 . S
C1516 C1507 1.429 . S
C1516 N1513 1.350 . S
C1516 C1515 1.434 . S
C1517 C1518 1.369 . S
C1517 C1519 1.419 . S
C1517 H1521 0.930 . S
C1518 C1517 1.369 . S
C1518 C1527 1.429 . S
C1519 C1517 1.419 . S
C1519 C1520 1.363 . S
C1519 H1522 0.929 . S
C1520 C1519 1.363 . S
C1520 C1526 1.428 . S
H1521 C1517 0.930 . S
H1522 C1519 0.929 . S
S1523 N1524 1.613 . S
S1523 N1525 1.610 1_445 S
N1524 S1523 1.613 . S
N1524 C1527 1.350 1_545 S
N1525 S1523 1.610 1_665 S
N1525 C1526 1.351 1_655 S
C1526 C1520 1.428 . S
C1526 N1525 1.351 1_455 S
C1526 C1527 1.434 . S
C1527 C1518 1.429 . S
C1527 N1524 1.350 1_565 S
C1527 C1526 1.434 . S
C1528 C1529 1.369 . S
C1528 C1530 1.419 . S
C1528 H1532 0.930 . S
C1529 C1528 1.369 . S
C1529 C1538 1.429 . S
C1530 C1528 1.419 . S
C1530 C1531 1.363 . S
C1530 H1533 0.929 . S
C1531 C1530 1.363 . S
C1531 C1537 1.428 . S
H1532 C1528 0.930 . S
H1533 C1530 0.929 . S
S1534 N1535 1.613 . S
S1534 N1536 1.610 . S
N1535 S1534 1.613 . S
N1535 C1538 1.350 . S
N1536 S1534 1.610 . S
N1536 C1537 1.351 . S
C1537 C1531 1.428 . S
C1537 N1536 1.351 . S
C1537 C1538 1.434 . S
C1538 C1529 1.429 . S
C1538 N1535 1.350 . S
C1538 C1537 1.434 . S
C1539 C1540 1.369 . S
C1539 C1541 1.419 . S
C1539 H1543 0.930 . S
C1540 C1539 1.369 . S
C1540 C1549 1.429 . S
C1541 C1539 1.419 . S
C1541 C1542 1.363 . S
C1541 H1544 0.929 . S
C1542 C1541 1.363 . S
C1542 C1548 1.428 . S
H1543 C1539 0.930 . S
H1544 C1541 0.929 . S
S1545 N1546 1.613 . S
S1545 N1547 1.610 1_655 S
N1546 S1545 1.613 . S
N1546 C1549 1.350 . S
N1547 S1545 1.610 1_455 S
N1547 C1548 1.351 1_455 S
C1548 C1542 1.428 . S
C1548 N1547 1.351 1_655 S
C1548 C1549 1.434 . S
C1549 C1540 1.429 . S
C1549 N1546 1.350 . S
C1549 C1548 1.434 . S
C1550 C1551 1.369 . S
C1550 C1552 1.419 . S
C1550 H1554 0.930 . S
C1551 C1550 1.369 . S
C1551 C1560 1.429 . S
C1552 C1550 1.419 . S
C1552 C1553 1.363 . S
C1552 H1555 0.929 . S
C1553 C1552 1.363 . S
C1553 C1559 1.428 . S
H1554 C1550 0.930 . S
H1555 C1552 0.929 . S
S1556 N1557 1.613 . S
S1556 N1558 1.610 . S
N1557 S1556 1.613 . S
N1557 C1560 1.350 . S
N1558 S1556 1.610 . S
N1558 C1559 1.351 . S
C1559 C1553 1.428 . S
C1559 N1558 1.351 . S
C1559 C1560 1.434 . S
C1560 C1551 1.429 . S
C1560 N1557 1.350 . S
C1560 C1559 1.434 . S
C1561 C1562 1.369 . S
C1561 C1563 1.419 . S
C1561 H1565 0.930 . S
C1562 C1561 1.369 . S
C1562 C1571 1.429 . S
C1563 C1561 1.419 . S
C1563 C1564 1.363 . S
C1563 H1566 0.929 . S
C1564 C1563 1.363 . S
C1564 C1570 1.428 . S
H1565 C1561 0.930 . S
H1566 C1563 0.929 . S
S1567 N1568 1.613 . S
S1567 N1569 1.610 . S
N1568 S1567 1.613 . S
N1568 C1571 1.350 . S
N1569 S1567 1.610 . S
N1569 C1570 1.351 . S
C1570 C1564 1.428 . S
C1570 N1569 1.351 . S
C1570 C1571 1.434 . S
C1571 C1562 1.429 . S
C1571 N1568 1.350 . S
C1571 C1570 1.434 . S
C1572 C1573 1.369 . S
C1572 C1574 1.419 . S
C1572 H1576 0.930 . S
C1573 C1572 1.369 . S
C1573 C1582 1.429 . S
C1574 C1572 1.419 . S
C1574 C1575 1.363 . S
C1574 H1577 0.929 . S
C1575 C1574 1.363 . S
C1575 C1581 1.428 . S
H1576 C1572 0.930 . S
H1577 C1574 0.929 . S
S1578 N1579 1.613 . S
S1578 N1580 1.610 . S
N1579 S1578 1.613 . S
N1579 C1582 1.350 . S
N1580 S1578 1.610 . S
N1580 C1581 1.351 . S
C1581 C1575 1.428 . S
C1581 N1580 1.351 . S
C1581 C1582 1.434 . S
C1582 C1573 1.429 . S
C1582 N1579 1.350 . S
C1582 C1581 1.434 . S
C1583 C1584 1.369 . S
C1583 C1585 1.419 . S
C1583 H1587 0.930 . S
C1584 C1583 1.369 . S
C1584 C1593 1.429 . S
C1585 C1583 1.419 . S
C1585 C1586 1.363 . S
C1585 H1588 0.929 . S
C1586 C1585 1.363 . S
C1586 C1592 1.428 . S
H1587 C1583 0.930 . S
H1588 C1585 0.929 . S
S1589 N1590 1.613 . S
S1589 N1591 1.610 . S
N1590 S1589 1.613 . S
N1590 C1593 1.350 . S
N1591 S1589 1.610 . S
N1591 C1592 1.351 . S
C1592 C1586 1.428 . S
C1592 N1591 1.351 . S
C1592 C1593 1.434 . S
C1593 C1584 1.429 . S
C1593 N1590 1.350 . S
C1593 C1592 1.434 . S
C1594 C1595 1.369 . S
C1594 C1596 1.419 . S
C1594 H1598 0.930 . S
C1595 C1594 1.369 . S
C1595 C1604 1.429 . S
C1596 C1594 1.419 . S
C1596 C1597 1.363 . S
C1596 H1599 0.929 . S
C1597 C1596 1.363 . S
C1597 C1603 1.428 . S
H1598 C1594 0.930 . S
H1599 C1596 0.929 . S
S1600 N1601 1.613 . S
S1600 N1602 1.610 . S
N1601 S1600 1.613 . S
N1601 C1604 1.350 . S
N1602 S1600 1.610 . S
N1602 C1603 1.351 . S
C1603 C1597 1.428 . S
C1603 N1602 1.351 . S
C1603 C1604 1.434 . S
C1604 C1595 1.429 . S
C1604 N1601 1.350 . S
C1604 C1603 1.434 . S
C1605 C1606 1.369 . S
C1605 C1607 1.419 . S
C1605 H1609 0.930 . S
C1606 C1605 1.369 . S
C1606 C1615 1.429 . S
C1607 C1605 1.419 . S
C1607 C1608 1.363 . S
C1607 H1610 0.929 . S
C1608 C1607 1.363 . S
C1608 C1614 1.428 . S
H1609 C1605 0.930 . S
H1610 C1607 0.929 . S
S1611 N1612 1.613 . S
S1611 N1613 1.610 . S
N1612 S1611 1.613 . S
N1612 C1615 1.350 . S
N1613 S1611 1.610 . S
N1613 C1614 1.351 . S
C1614 C1608 1.428 . S
C1614 N1613 1.351 . S
C1614 C1615 1.434 . S
C1615 C1606 1.429 . S
C1615 N1612 1.350 . S
C1615 C1614 1.434 . S
C1616 C1617 1.369 . S
C1616 C1618 1.419 . S
C1616 H1620 0.930 . S
C1617 C1616 1.369 . S
C1617 C1626 1.429 . S
C1618 C1616 1.419 . S
C1618 C1619 1.363 . S
C1618 H1621 0.929 . S
C1619 C1618 1.363 . S
C1619 C1625 1.428 . S
H1620 C1616 0.930 . S
H1621 C1618 0.929 . S
S1622 N1623 1.613 . S
S1622 N1624 1.610 . S
N1623 S1622 1.613 . S
N1623 C1626 1.350 . S
N1624 S1622 1.610 . S
N1624 C1625 1.351 . S
C1625 C1619 1.428 . S
C1625 N1624 1.351 . S
C1625 C1626 1.434 . S
C1626 C1617 1.429 . S
C1626 N1623 1.350 . S
C1626 C1625 1.434 . S
C1627 C1628 1.369 . S
C1627 C1629 1.419 . S
C1627 H1631 0.930 . S
C1628 C1627 1.369 . S
C1628 C1637 1.429 . S
C1629 C1627 1.419 . S
C1629 C1630 1.363 . S
C1629 H1632 0.929 . S
C1630 C1629 1.363 . S
C1630 C1636 1.428 . S
H1631 C1627 0.930 . S
H1632 C1629 0.929 . S
S1633 N1634 1.613 . S
S1633 N1635 1.610 . S
N1634 S1633 1.613 . S
N1634 C1637 1.350 . S
N1635 S1633 1.610 . S
N1635 C1636 1.351 . S
C1636 C1630 1.428 . S
C1636 N1635 1.351 . S
C1636 C1637 1.434 . S
C1637 C1628 1.429 . S
C1637 N1634 1.350 . S
C1637 C1636 1.434 . S
C1638 C1639 1.369 . S
C1638 C1640 1.419 . S
C1638 H1642 0.930 . S
C1639 C1638 1.369 . S
C1639 C1648 1.429 . S
C1640 C1638 1.419 . S
C1640 C1641 1.363 . S
C1640 H1643 0.929 . S
C1641 C1640 1.363 . S
C1641 C1647 1.428 . S
H1642 C1638 0.930 . S
H1643 C1640 0.929 . S
S1644 N1645 1.613 . S
S1644 N1646 1.610 . S
N1645 S1644 1.613 . S
N1645 C1648 1.350 . S
N1646 S1644 1.610 . S
N1646 C1647 1.351 . S
C1647 C1641 1.428 . S
C1647 N1646 1.351 . S
C1647 C1648 1.434 . S
C1648 C1639 1.429 . S
C1648 N1645 1.350 . S
C1648 C1647 1.434 . S
C1649 C1650 1.369 . S
C1649 C1651 1.419 . S
C1649 H1653 0.930 . S
C1650 C1649 1.369 . S
C1650 C1659 1.429 . S
C1651 C1649 1.419 . S
C1651 C1652 1.363 . S
C1651 H1654 0.929 . S
C1652 C1651 1.363 . S
C1652 C1658 1.428 . S
H1653 C1649 0.930 . S
H1654 C1651 0.929 . S
S1655 N1656 1.613 . S
S1655 N1657 1.610 . S
N1656 S1655 1.613 . S
N1656 C1659 1.350 . S
N1657 S1655 1.610 . S
N1657 C1658 1.351 . S
C1658 C1652 1.428 . S
C1658 N1657 1.351 . S
C1658 C1659 1.434 . S
C1659 C1650 1.429 . S
C1659 N1656 1.350 . S
C1659 C1658 1.434 . S
C1660 C1661 1.369 . S
C1660 C1662 1.419 . S
C1660 H1664 0.930 . S
C1661 C1660 1.369 . S
C1661 C1670 1.429 . S
C1662 C1660 1.419 . S
C1662 C1663 1.363 . S
C1662 H1665 0.929 . S
C1663 C1662 1.363 . S
C1663 C1669 1.428 . S
H1664 C1660 0.930 . S
H1665 C1662 0.929 . S
S1666 N1667 1.613 . S
S1666 N1668 1.610 . S
N1667 S1666 1.613 . S
N1667 C1670 1.350 . S
N1668 S1666 1.610 . S
N1668 C1669 1.351 . S
C1669 C1663 1.428 . S
C1669 N1668 1.351 . S
C1669 C1670 1.434 . S
C1670 C1661 1.429 . S
C1670 N1667 1.350 . S
C1670 C1669 1.434 . S
C1671 C1672 1.369 . S
C1671 C1673 1.419 . S
C1671 H1675 0.930 . S
C1672 C1671 1.369 . S
C1672 C1681 1.429 . S
C1673 C1671 1.419 . S
C1673 C1674 1.363 . S
C1673 H1676 0.943 . S
C1674 C1673 1.363 . S
C1674 C1680 1.428 . S
H1675 C1671 0.930 . S
H1676 C1673 0.943 . S
S1677 N1678 1.613 . S
S1677 N1679 1.610 . S
N1678 S1677 1.613 . S
N1678 C1681 1.350 . S
N1679 S1677 1.610 . S
N1679 C1680 1.351 . S
C1680 C1674 1.428 . S
C1680 N1679 1.351 . S
C1680 C1681 1.434 . S
C1681 C1672 1.429 . S
C1681 N1678 1.350 . S
C1681 C1680 1.434 . S
C1682 C1683 1.369 . S
C1682 C1684 1.419 . S
C1682 H1686 0.930 . S
C1683 C1682 1.369 . S
C1683 C1692 1.429 . S
C1684 C1682 1.419 . S
C1684 C1685 1.363 . S
C1684 H1687 0.929 . S
C1685 C1684 1.363 . S
C1685 C1691 1.428 . S
H1686 C1682 0.930 . S
H1687 C1684 0.929 . S
S1688 N1689 1.613 . S
S1688 N1690 1.609 1_556 S
N1689 S1688 1.613 . S
N1689 C1692 1.346 1_556 S
N1690 S1688 1.609 1_554 S
N1690 C1691 1.351 . S
C1691 C1685 1.428 . S
C1691 N1690 1.351 . S
C1691 C1692 1.434 . S
C1692 C1683 1.429 . S
C1692 N1689 1.346 1_554 S
C1692 C1691 1.434 . S
C1693 C1694 1.369 . S
C1693 C1695 1.419 . S
C1693 H1697 0.930 . S
C1694 C1693 1.369 . S
C1694 C1703 1.429 . S
C1695 C1693 1.419 . S
C1695 C1696 1.363 . S
C1695 H1698 0.929 . S
C1696 C1695 1.363 . S
C1696 C1702 1.442 . S
H1697 C1693 0.930 . S
H1698 C1695 0.929 . S
S1699 N1700 1.610 1_556 S
S1699 N1701 1.610 . S
N1700 S1699 1.610 1_554 S
N1700 C1703 1.350 . S
N1701 S1699 1.610 . S
N1701 C1702 1.337 1_556 S
C1702 C1696 1.442 . S
C1702 N1701 1.337 1_554 S
C1702 C1703 1.452 . S
C1703 C1694 1.429 . S
C1703 N1700 1.350 . S
C1703 C1702 1.452 . S
C1704 C1705 1.369 . S
C1704 C1706 1.419 . S
C1704 H1708 0.930 . S
C1705 C1704 1.369 . S
C1705 C1714 1.429 . S
C1706 C1704 1.419 . S
C1706 C1707 1.363 . S
C1706 H1709 0.929 . S
C1707 C1706 1.363 . S
C1707 C1713 1.428 . S
H1708 C1704 0.930 . S
H1709 C1706 0.929 . S
S1710 N1711 1.613 . S
S1710 N1712 1.610 . S
N1711 S1710 1.613 . S
N1711 C1714 1.350 . S
N1712 S1710 1.610 . S
N1712 C1713 1.351 . S
C1713 C1707 1.428 . S
C1713 N1712 1.351 . S
C1713 C1714 1.434 . S
C1714 C1705 1.429 . S
C1714 N1711 1.350 . S
C1714 C1713 1.434 . S
C1715 C1716 1.369 . S
C1715 C1717 1.419 . S
C1715 H1719 0.930 . S
C1716 C1715 1.369 . S
C1716 C1725 1.429 . S
C1717 C1715 1.419 . S
C1717 C1718 1.363 . S
C1717 H1720 0.929 . S
C1718 C1717 1.363 . S
C1718 C1724 1.428 . S
H1719 C1715 0.930 . S
H1720 C1717 0.929 . S
S1721 N1722 1.613 . S
S1721 N1723 1.610 . S
N1722 S1721 1.613 . S
N1722 C1725 1.350 . S
N1723 S1721 1.610 . S
N1723 C1724 1.351 . S
C1724 C1718 1.428 . S
C1724 N1723 1.351 . S
C1724 C1725 1.434 . S
C1725 C1716 1.429 . S
C1725 N1722 1.350 . S
C1725 C1724 1.434 . S
C1726 C1727 1.369 . S
C1726 C1728 1.419 . S
C1726 H1730 0.930 . S
C1727 C1726 1.369 . S
C1727 C1736 1.429 . S
C1728 C1726 1.419 . S
C1728 C1729 1.363 . S
C1728 H1731 0.929 . S
C1729 C1728 1.363 . S
C1729 C1735 1.428 . S
H1730 C1726 0.930 . S
H1731 C1728 0.929 . S
S1732 N1733 1.613 . S
S1732 N1734 1.610 . S
N1733 S1732 1.613 . S
N1733 C1736 1.350 . S
N1734 S1732 1.610 . S
N1734 C1735 1.351 . S
C1735 C1729 1.428 . S
C1735 N1734 1.351 . S
C1735 C1736 1.434 . S
C1736 C1727 1.429 . S
C1736 N1733 1.350 . S
C1736 C1735 1.434 . S
C1737 C1738 1.369 . S
C1737 C1739 1.419 . S
C1737 H1741 0.930 . S
C1738 C1737 1.369 . S
C1738 C1747 1.434 . S
C1739 C1737 1.419 . S
C1739 C1740 1.363 . S
C1739 H1742 0.929 . S
C1740 C1739 1.363 . S
C1740 C1746 1.428 . S
H1741 C1737 0.930 . S
H1742 C1739 0.929 . S
S1743 N1744 1.613 . S
S1743 N1745 1.616 . S
N1744 S1743 1.613 . S
N1744 C1747 1.340 1_554 S
N1745 S1743 1.616 . S
N1745 C1746 1.347 1_554 S
C1746 C1740 1.428 . S
C1746 N1745 1.347 1_556 S
C1746 C1747 1.439 . S
C1747 C1738 1.434 . S
C1747 N1744 1.340 1_556 S
C1747 C1746 1.439 . S
C1748 C1749 1.369 . S
C1748 C1750 1.419 . S
C1748 H1752 0.930 . S
C1749 C1748 1.369 . S
C1749 C1758 1.429 1_556 S
C1750 C1748 1.419 . S
C1750 C1751 1.363 . S
C1750 H1753 0.929 . S
C1751 C1750 1.363 . S
C1751 C1757 1.428 1_556 S
H1752 C1748 0.930 . S
H1753 C1750 0.929 . S
S1754 N1755 1.613 . S
S1754 N1756 1.610 . S
N1755 S1754 1.613 . S
N1755 C1758 1.350 . S
N1756 S1754 1.610 . S
N1756 C1757 1.351 . S
C1757 C1751 1.428 1_554 S
C1757 N1756 1.351 . S
C1757 C1758 1.434 . S
C1758 C1749 1.429 1_554 S
C1758 N1755 1.350 . S
C1758 C1757 1.434 . S
C1759 C1760 1.369 . S
C1759 C1761 1.419 . S
C1759 H1763 0.930 . S
C1760 C1759 1.369 . S
C1760 C1769 1.429 . S
C1761 C1759 1.419 . S
C1761 C1762 1.363 . S
C1761 H1764 0.929 . S
C1762 C1761 1.363 . S
C1762 C1768 1.428 . S
H1763 C1759 0.930 . S
H1764 C1761 0.929 . S
S1765 N1766 1.613 . S
S1765 N1767 1.617 . S
N1766 S1765 1.613 . S
N1766 C1769 1.349 1_554 S
N1767 S1765 1.617 . S
N1767 C1768 1.347 1_554 S
C1768 C1762 1.428 . S
C1768 N1767 1.347 1_556 S
C1768 C1769 1.434 . S
C1769 C1760 1.429 . S
C1769 N1766 1.349 1_556 S
C1769 C1768 1.434 . S
C1770 C1771 1.369 . S
C1770 C1772 1.419 . S
C1770 H1774 0.930 . S
C1771 C1770 1.369 . S
C1771 C1780 1.429 . S
C1772 C1770 1.419 . S
C1772 C1773 1.363 . S
C1772 H1775 0.929 . S
C1773 C1772 1.363 . S
C1773 C1779 1.428 . S
H1774 C1770 0.930 . S
H1775 C1772 0.929 . S
S1776 N1777 1.613 . S
S1776 N1778 1.610 . S
N1777 S1776 1.613 . S
N1777 C1780 1.350 . S
N1778 S1776 1.610 . S
N1778 C1779 1.351 . S
C1779 C1773 1.428 . S
C1779 N1778 1.351 . S
C1779 C1780 1.434 . S
C1780 C1771 1.429 . S
C1780 N1777 1.350 . S
C1780 C1779 1.434 . S
C1781 C1782 1.369 . S
C1781 C1783 1.419 . S
C1781 H1785 0.930 . S
C1782 C1781 1.369 . S
C1782 C1791 1.429 . S
C1783 C1781 1.419 . S
C1783 C1784 1.363 . S
C1783 H1786 0.929 . S
C1784 C1783 1.363 . S
C1784 C1790 1.428 . S
H1785 C1781 0.930 . S
H1786 C1783 0.929 . S
S1787 N1788 1.613 . S
S1787 N1789 1.610 . S
N1788 S1787 1.613 . S
N1788 C1791 1.350 . S
N1789 S1787 1.610 . S
N1789 C1790 1.351 . S
C1790 C1784 1.428 . S
C1790 N1789 1.351 . S
C1790 C1791 1.434 . S
C1791 C1782 1.429 . S
C1791 N1788 1.350 . S
C1791 C1790 1.434 . S
C1792 C1793 1.369 . S
C1792 C1794 1.419 . S
C1792 H1796 0.930 . S
C1793 C1792 1.369 . S
C1793 C1802 1.429 . S
C1794 C1792 1.419 . S
C1794 C1795 1.363 . S
C1794 H1797 0.929 . S
C1795 C1794 1.363 . S
C1795 C1801 1.428 . S
H1796 C1792 0.930 . S
H1797 C1794 0.929 . S
S1798 N1799 1.613 . S
S1798 N1800 1.610 . S
N1799 S1798 1.613 . S
N1799 C1802 1.350 . S
N1800 S1798 1.610 . S
N1800 C1801 1.351 . S
C1801 C1795 1.428 . S
C1801 N1800 1.351 . S
C1801 C1802 1.434 . S
C1802 C1793 1.429 . S
C1802 N1799 1.350 . S
C1802 C1801 1.434 . S
C1803 C1804 1.369 . S
C1803 C1805 1.419 . S
C1803 H1807 0.930 . S
C1804 C1803 1.369 . S
C1804 C1813 1.429 . S
C1805 C1803 1.419 . S
C1805 C1806 1.363 . S
C1805 H1808 0.929 . S
C1806 C1805 1.363 . S
C1806 C1812 1.428 . S
H1807 C1803 0.930 . S
H1808 C1805 0.929 . S
S1809 N1810 1.613 . S
S1809 N1811 1.610 . S
N1810 S1809 1.613 . S
N1810 C1813 1.350 . S
N1811 S1809 1.610 . S
N1811 C1812 1.351 . S
C1812 C1806 1.428 . S
C1812 N1811 1.351 . S
C1812 C1813 1.434 . S
C1813 C1804 1.429 . S
C1813 N1810 1.350 . S
C1813 C1812 1.434 . S
C1814 C1815 1.369 . S
C1814 C1816 1.419 . S
C1814 H1818 0.930 . S
C1815 C1814 1.369 . S
C1815 C1824 1.429 . S
C1816 C1814 1.419 . S
C1816 C1817 1.363 . S
C1816 H1819 0.929 . S
C1817 C1816 1.363 . S
C1817 C1823 1.428 . S
H1818 C1814 0.930 . S
H1819 C1816 0.929 . S
S1820 N1821 1.613 . S
S1820 N1822 1.610 . S
N1821 S1820 1.613 . S
N1821 C1824 1.350 . S
N1822 S1820 1.610 . S
N1822 C1823 1.351 . S
C1823 C1817 1.428 . S
C1823 N1822 1.351 . S
C1823 C1824 1.434 . S
C1824 C1815 1.429 . S
C1824 N1821 1.350 . S
C1824 C1823 1.434 . S
C1825 C1826 1.369 . S
C1825 C1827 1.419 . S
C1825 H1829 0.930 . S
C1826 C1825 1.369 . S
C1826 C1835 1.429 . S
C1827 C1825 1.419 . S
C1827 C1828 1.363 . S
C1827 H1830 0.929 . S
C1828 C1827 1.363 . S
C1828 C1834 1.428 . S
H1829 C1825 0.930 . S
H1830 C1827 0.929 . S
S1831 N1832 1.613 . S
S1831 N1833 1.610 . S
N1832 S1831 1.613 . S
N1832 C1835 1.350 . S
N1833 S1831 1.610 . S
N1833 C1834 1.351 . S
C1834 C1828 1.428 . S
C1834 N1833 1.351 . S
C1834 C1835 1.434 . S
C1835 C1826 1.429 . S
C1835 N1832 1.350 . S
C1835 C1834 1.434 . S
C1836 C1837 1.369 . S
C1836 C1838 1.419 . S
C1836 H1840 0.930 . S
C1837 C1836 1.369 . S
C1837 C1846 1.429 . S
C1838 C1836 1.419 . S
C1838 C1839 1.363 . S
C1838 H1841 0.929 . S
C1839 C1838 1.363 . S
C1839 C1845 1.428 . S
H1840 C1836 0.930 . S
H1841 C1838 0.929 . S
S1842 N1843 1.613 . S
S1842 N1844 1.610 . S
N1843 S1842 1.613 . S
N1843 C1846 1.350 . S
N1844 S1842 1.610 . S
N1844 C1845 1.351 . S
C1845 C1839 1.428 . S
C1845 N1844 1.351 . S
C1845 C1846 1.434 . S
C1846 C1837 1.429 . S
C1846 N1843 1.350 . S
C1846 C1845 1.434 . S
C1847 C1848 1.369 . S
C1847 C1849 1.419 . S
C1847 H1851 0.930 . S
C1848 C1847 1.369 . S
C1848 C1857 1.429 1_565 S
C1849 C1847 1.419 . S
C1849 C1850 1.363 . S
C1849 H1852 0.929 . S
C1850 C1849 1.363 . S
C1850 C1856 1.428 . S
H1851 C1847 0.930 . S
H1852 C1849 0.929 . S
S1853 N1854 1.613 . S
S1853 N1855 1.610 . S
N1854 S1853 1.613 . S
N1854 C1857 1.350 . S
N1855 S1853 1.610 . S
N1855 C1856 1.351 1_545 S
C1856 C1850 1.428 . S
C1856 N1855 1.351 1_565 S
C1856 C1857 1.434 1_565 S
C1857 C1848 1.429 1_545 S
C1857 N1854 1.350 . S
C1857 C1856 1.434 1_545 S
C1858 C1859 1.369 . S
C1858 C1860 1.419 1_455 S
C1858 H1862 0.930 1_455 S
C1859 C1858 1.369 . S
C1859 C1868 1.429 . S
C1860 C1858 1.419 1_655 S
C1860 C1861 1.363 1_655 S
C1860 H1863 0.929 . S
C1861 C1860 1.363 1_455 S
C1861 C1867 1.428 . S
H1862 C1858 0.930 1_655 S
H1863 C1860 0.929 . S
S1864 N1865 1.613 . S
S1864 N1866 1.610 . S
N1865 S1864 1.613 . S
N1865 C1868 1.350 . S
N1866 S1864 1.610 . S
N1866 C1867 1.351 . S
C1867 C1861 1.428 . S
C1867 N1866 1.351 . S
C1867 C1868 1.434 . S
C1868 C1859 1.429 . S
C1868 N1865 1.350 . S
C1868 C1867 1.434 . S
C1869 C1870 1.369 . S
C1869 C1871 1.419 . S
C1869 H1873 0.930 . S
C1870 C1869 1.369 . S
C1870 C1879 1.429 . S
C1871 C1869 1.419 . S
C1871 C1872 1.363 . S
C1871 H1874 0.929 . S
C1872 C1871 1.363 . S
C1872 C1878 1.428 . S
H1873 C1869 0.930 . S
H1874 C1871 0.929 . S
S1875 N1876 1.613 . S
S1875 N1877 1.610 . S
N1876 S1875 1.613 . S
N1876 C1879 1.350 . S
N1877 S1875 1.610 . S
N1877 C1878 1.351 . S
C1878 C1872 1.428 . S
C1878 N1877 1.351 . S
C1878 C1879 1.434 . S
C1879 C1870 1.429 . S
C1879 N1876 1.350 . S
C1879 C1878 1.434 . S
C1880 C1881 1.369 . S
C1880 C1882 1.419 . S
C1880 H1884 0.930 . S
C1881 C1880 1.369 . S
C1881 C1890 1.429 1_545 S
C1882 C1880 1.419 . S
C1882 C1883 1.363 . S
C1882 H1885 0.929 . S
C1883 C1882 1.363 . S
C1883 C1889 1.428 . S
H1884 C1880 0.930 . S
H1885 C1882 0.929 . S
S1886 N1887 1.613 . S
S1886 N1888 1.610 . S
N1887 S1886 1.613 . S
N1887 C1890 1.350 . S
N1888 S1886 1.610 . S
N1888 C1889 1.351 1_565 S
C1889 C1883 1.428 . S
C1889 N1888 1.351 1_545 S
C1889 C1890 1.434 1_545 S
C1890 C1881 1.429 1_565 S
C1890 N1887 1.350 . S
C1890 C1889 1.434 1_565 S
C1891 C1892 1.369 . S
C1891 C1893 1.419 1_655 S
C1891 H1895 0.930 1_655 S
C1892 C1891 1.369 . S
C1892 C1901 1.429 . S
C1893 C1891 1.419 1_455 S
C1893 C1894 1.363 1_455 S
C1893 H1896 0.929 . S
C1894 C1893 1.363 1_655 S
C1894 C1900 1.428 . S
H1895 C1891 0.930 1_455 S
H1896 C1893 0.929 . S
S1897 N1898 1.613 . S
S1897 N1899 1.610 . S
N1898 S1897 1.613 . S
N1898 C1901 1.350 . S
N1899 S1897 1.610 . S
N1899 C1900 1.351 . S
C1900 C1894 1.428 . S
C1900 N1899 1.351 . S
C1900 C1901 1.434 . S
C1901 C1892 1.429 . S
C1901 N1898 1.350 . S
C1901 C1900 1.434 . S
C1902 C1903 1.369 . S
C1902 C1904 1.419 . S
C1902 H1906 0.930 . S
C1903 C1902 1.369 . S
C1903 C1912 1.429 . S
C1904 C1902 1.419 . S
C1904 C1905 1.363 . S
C1904 H1907 0.929 . S
C1905 C1904 1.363 . S
C1905 C1911 1.428 . S
H1906 C1902 0.930 . S
H1907 C1904 0.929 . S
S1908 N1909 1.613 . S
S1908 N1910 1.610 . S
N1909 S1908 1.613 . S
N1909 C1912 1.350 . S
N1910 S1908 1.610 . S
N1910 C1911 1.351 . S
C1911 C1905 1.428 . S
C1911 N1910 1.351 . S
C1911 C1912 1.434 . S
C1912 C1903 1.429 . S
C1912 N1909 1.350 . S
C1912 C1911 1.434 . S
C1913 C1914 1.369 . S
C1913 C1915 1.419 . S
C1913 H1917 0.930 . S
C1914 C1913 1.369 . S
C1914 C1923 1.429 1_545 S
C1915 C1913 1.419 . S
C1915 C1916 1.363 . S
C1915 H1918 0.929 . S
C1916 C1915 1.363 . S
C1916 C1922 1.428 1_545 S
H1917 C1913 0.930 . S
H1918 C1915 0.929 . S
S1919 N1920 1.613 . S
S1919 N1921 1.610 . S
N1920 S1919 1.613 . S
N1920 C1923 1.350 . S
N1921 S1919 1.610 . S
N1921 C1922 1.351 . S
C1922 C1916 1.428 1_565 S
C1922 N1921 1.351 . S
C1922 C1923 1.434 . S
C1923 C1914 1.429 1_565 S
C1923 N1920 1.350 . S
C1923 C1922 1.434 . S
C1924 C1925 1.369 . S
C1924 C1926 1.419 . S
C1924 H1928 0.930 . S
C1925 C1924 1.369 . S
C1925 C1934 1.429 . S
C1926 C1924 1.419 . S
C1926 C1927 1.363 . S
C1926 H1929 0.929 . S
C1927 C1926 1.363 . S
C1927 C1933 1.428 . S
H1928 C1924 0.930 . S
H1929 C1926 0.929 . S
S1930 N1931 1.613 . S
S1930 N1932 1.610 . S
N1931 S1930 1.613 . S
N1931 C1934 1.350 . S
N1932 S1930 1.610 . S
N1932 C1933 1.351 . S
C1933 C1927 1.428 . S
C1933 N1932 1.351 . S
C1933 C1934 1.434 . S
C1934 C1925 1.429 . S
C1934 N1931 1.350 . S
C1934 C1933 1.434 . S
C1935 C1936 1.369 . S
C1935 C1937 1.419 . S
C1935 H1939 0.930 . S
C1936 C1935 1.369 . S
C1936 C1945 1.429 . S
C1937 C1935 1.419 . S
C1937 C1938 1.363 . S
C1937 H1940 0.929 . S
C1938 C1937 1.363 . S
C1938 C1944 1.428 . S
H1939 C1935 0.930 . S
H1940 C1937 0.929 . S
S1941 N1942 1.613 . S
S1941 N1943 1.610 . S
N1942 S1941 1.613 . S
N1942 C1945 1.350 . S
N1943 S1941 1.610 . S
N1943 C1944 1.351 . S
C1944 C1938 1.428 . S
C1944 N1943 1.351 . S
C1944 C1945 1.434 . S
C1945 C1936 1.429 . S
C1945 N1942 1.350 . S
C1945 C1944 1.434 . S
C1946 C1947 1.369 . S
C1946 C1948 1.419 . S
C1946 H1950 0.930 1_565 S
C1947 C1946 1.369 . S
C1947 C1956 1.429 . S
C1948 C1946 1.419 . S
C1948 C1949 1.363 . S
C1948 H1951 0.929 . S
C1949 C1948 1.363 . S
C1949 C1955 1.428 . S
H1950 C1946 0.930 1_545 S
H1951 C1948 0.929 . S
S1952 N1953 1.613 . S
S1952 N1954 1.610 . S
N1953 S1952 1.613 . S
N1953 C1956 1.350 . S
N1954 S1952 1.610 . S
N1954 C1955 1.351 . S
C1955 C1949 1.428 . S
C1955 N1954 1.351 . S
C1955 C1956 1.434 . S
C1956 C1947 1.429 . S
C1956 N1953 1.350 . S
C1956 C1955 1.434 . S
C1957 C1958 1.369 . S
C1957 C1959 1.419 . S
C1957 H1961 0.930 . S
C1958 C1957 1.369 . S
C1958 C1967 1.429 1_455 S
C1959 C1957 1.419 . S
C1959 C1960 1.363 . S
C1959 H1962 0.929 . S
C1960 C1959 1.363 . S
C1960 C1966 1.428 . S
H1961 C1957 0.930 . S
H1962 C1959 0.929 . S
S1963 N1964 1.613 . S
S1963 N1965 1.610 . S
N1964 S1963 1.613 . S
N1964 C1967 1.350 . S
N1965 S1963 1.610 . S
N1965 C1966 1.351 1_655 S
C1966 C1960 1.428 . S
C1966 N1965 1.351 1_455 S
C1966 C1967 1.434 1_455 S
C1967 C1958 1.429 1_655 S
C1967 N1964 1.350 . S
C1967 C1966 1.434 1_655 S
C1968 C1969 1.368 . S
C1968 C1970 1.400 1_655 S
C1968 H1972 0.951 . S
C1969 C1968 1.368 . S
C1969 C1978 1.429 1_655 S
C1970 C1968 1.400 1_455 S
C1970 C1971 1.363 . S
C1970 H1973 0.929 . S
C1971 C1970 1.363 . S
C1971 C1977 1.428 . S
H1972 C1968 0.951 . S
H1973 C1970 0.929 . S
S1974 N1975 1.613 1_455 S
S1974 N1976 1.610 . S
N1975 S1974 1.613 1_655 S
N1975 C1978 1.350 1_655 S
N1976 S1974 1.610 . S
N1976 C1977 1.351 . S
C1977 C1971 1.428 . S
C1977 N1976 1.351 . S
C1977 C1978 1.434 . S
C1978 C1969 1.429 1_455 S
C1978 N1975 1.350 1_455 S
C1978 C1977 1.434 . S
C1979 C1980 1.369 . S
C1979 C1981 1.419 . S
C1979 H1983 0.930 . S
C1980 C1979 1.369 . S
C1980 C1989 1.429 . S
C1981 C1979 1.419 . S
C1981 C1982 1.363 . S
C1981 H1984 0.929 . S
C1982 C1981 1.363 . S
C1982 C1988 1.428 . S
H1983 C1979 0.930 . S
H1984 C1981 0.929 . S
S1985 N1986 1.613 . S
S1985 N1987 1.610 . S
N1986 S1985 1.613 . S
N1986 C1989 1.350 . S
N1987 S1985 1.610 . S
N1987 C1988 1.351 . S
C1988 C1982 1.428 . S
C1988 N1987 1.351 . S
C1988 C1989 1.434 . S
C1989 C1980 1.429 . S
C1989 N1986 1.350 . S
C1989 C1988 1.434 . S
C1990 C1991 1.369 . S
C1990 C1992 1.419 . S
C1990 H1994 0.930 . S
C1991 C1990 1.369 . S
C1991 C2000 1.429 . S
C1992 C1990 1.419 . S
C1992 C1993 1.363 1_565 S
C1992 H1995 0.929 1_565 S
C1993 C1992 1.363 1_545 S
C1993 C1999 1.428 1_545 S
H1994 C1990 0.930 . S
H1995 C1992 0.929 1_545 S
S1996 N1997 1.613 . S
S1996 N1998 1.610 1_565 S
N1997 S1996 1.613 . S
N1997 C2000 1.350 . S
N1998 S1996 1.610 1_545 S
N1998 C1999 1.351 1_545 S
C1999 C1993 1.428 1_565 S
C1999 N1998 1.351 1_565 S
C1999 C2000 1.434 . S
C2000 C1991 1.429 . S
C2000 N1997 1.350 . S
C2000 C1999 1.434 . S
C2001 C2002 1.369 . S
C2001 C2003 1.419 . S
C2001 H2005 0.930 . S
C2002 C2001 1.369 . S
C2002 C2011 1.429 . S
C2003 C2001 1.419 . S
C2003 C2004 1.363 . S
C2003 H2006 0.929 1_455 S
C2004 C2003 1.363 . S
C2004 C2010 1.428 . S
H2005 C2001 0.930 . S
H2006 C2003 0.929 1_655 S
S2007 N2008 1.613 . S
S2007 N2009 1.610 . S
N2008 S2007 1.613 . S
N2008 C2011 1.350 . S
N2009 S2007 1.610 . S
N2009 C2010 1.351 . S
C2010 C2004 1.428 . S
C2010 N2009 1.351 . S
C2010 C2011 1.434 . S
C2011 C2002 1.429 . S
C2011 N2008 1.350 . S
C2011 C2010 1.434 . S
C2012 C2013 1.369 . S
C2012 C2014 1.419 . S
C2012 H2016 0.930 . S
C2013 C2012 1.369 . S
C2013 C2022 1.429 . S
C2014 C2012 1.419 . S
C2014 C2015 1.363 . S
C2014 H2017 0.929 . S
C2015 C2014 1.363 . S
C2015 C2021 1.428 . S
H2016 C2012 0.930 . S
H2017 C2014 0.929 . S
S2018 N2019 1.613 . S
S2018 N2020 1.610 . S
N2019 S2018 1.613 . S
N2019 C2022 1.350 . S
N2020 S2018 1.610 . S
N2020 C2021 1.351 . S
C2021 C2015 1.428 . S
C2021 N2020 1.351 . S
C2021 C2022 1.434 . S
C2022 C2013 1.429 . S
C2022 N2019 1.350 . S
C2022 C2021 1.434 . S
C2023 C2024 1.369 . S
C2023 C2025 1.419 . S
C2023 H2027 0.930 . S
C2024 C2023 1.369 . S
C2024 C2033 1.429 . S
C2025 C2023 1.419 . S
C2025 C2026 1.363 . S
C2025 H2028 0.929 . S
C2026 C2025 1.363 . S
C2026 C2032 1.428 . S
H2027 C2023 0.930 . S
H2028 C2025 0.929 . S
S2029 N2030 1.613 . S
S2029 N2031 1.610 . S
N2030 S2029 1.613 . S
N2030 C2033 1.350 . S
N2031 S2029 1.610 . S
N2031 C2032 1.351 . S
C2032 C2026 1.428 . S
C2032 N2031 1.351 . S
C2032 C2033 1.434 . S
C2033 C2024 1.429 . S
C2033 N2030 1.350 . S
C2033 C2032 1.434 . S
C2034 C2035 1.369 . S
C2034 C2036 1.419 . S
C2034 H2038 0.930 . S
C2035 C2034 1.369 . S
C2035 C2044 1.429 . S
C2036 C2034 1.419 . S
C2036 C2037 1.363 . S
C2036 H2039 0.929 . S
C2037 C2036 1.363 . S
C2037 C2043 1.428 . S
H2038 C2034 0.930 . S
H2039 C2036 0.929 . S
S2040 N2041 1.613 . S
S2040 N2042 1.610 1_565 S
N2041 S2040 1.613 . S
N2041 C2044 1.350 . S
N2042 S2040 1.610 1_545 S
N2042 C2043 1.351 1_545 S
C2043 C2037 1.428 . S
C2043 N2042 1.351 1_565 S
C2043 C2044 1.434 . S
C2044 C2035 1.429 . S
C2044 N2041 1.350 . S
C2044 C2043 1.434 . S
C2045 C2046 1.369 . S
C2045 C2047 1.419 . S
C2045 H2049 0.930 1_455 S
C2046 C2045 1.369 . S
C2046 C2055 1.429 . S
C2047 C2045 1.419 . S
C2047 C2048 1.363 . S
C2047 H2050 0.929 . S
C2048 C2047 1.363 . S
C2048 C2054 1.428 . S
H2049 C2045 0.930 1_655 S
H2050 C2047 0.929 . S
S2051 N2052 1.613 . S
S2051 N2053 1.610 . S
N2052 S2051 1.613 . S
N2052 C2055 1.350 . S
N2053 S2051 1.610 . S
N2053 C2054 1.351 . S
C2054 C2048 1.428 . S
C2054 N2053 1.351 . S
C2054 C2055 1.434 . S
C2055 C2046 1.429 . S
C2055 N2052 1.350 . S
C2055 C2054 1.434 . S
C2056 C2057 1.369 . S
C2056 C2058 1.419 . S
C2056 H2060 0.930 . S
C2057 C2056 1.369 . S
C2057 C2066 1.429 . S
C2058 C2056 1.419 . S
C2058 C2059 1.363 . S
C2058 H2061 0.929 . S
C2059 C2058 1.363 . S
C2059 C2065 1.428 . S
H2060 C2056 0.930 . S
H2061 C2058 0.929 . S
S2062 N2063 1.613 . S
S2062 N2064 1.610 . S
N2063 S2062 1.613 . S
N2063 C2066 1.350 . S
N2064 S2062 1.610 . S
N2064 C2065 1.351 . S
C2065 C2059 1.428 . S
C2065 N2064 1.351 . S
C2065 C2066 1.434 . S
C2066 C2057 1.429 . S
C2066 N2063 1.350 . S
C2066 C2065 1.434 . S
C2067 C2068 1.347 1_554 S
C2067 C2069 1.419 1_565 S
C2067 H2071 0.930 . S
C2068 C2067 1.347 1_556 S
C2068 C2077 1.457 . S
C2069 C2067 1.419 1_545 S
C2069 C2070 1.363 1_554 S
C2069 H2072 0.929 . S
C2070 C2069 1.363 1_556 S
C2070 C2076 1.428 1_545 S
H2071 C2067 0.930 . S
H2072 C2069 0.929 . S
S2073 N2074 1.613 . S
S2073 N2075 1.610 1_565 S
N2074 S2073 1.613 . S
N2074 C2077 1.350 . S
N2075 S2073 1.610 1_545 S
N2075 C2076 1.351 1_545 S
C2076 C2070 1.428 1_565 S
C2076 N2075 1.351 1_565 S
C2076 C2077 1.434 . S
C2077 C2068 1.457 . S
C2077 N2074 1.350 . S
C2077 C2076 1.434 . S
C2078 C2079 1.371 . S
C2078 C2080 1.410 1_455 S
C2078 H2082 0.930 . S
C2079 C2078 1.371 . S
C2079 C2088 1.427 1_556 S
C2080 C2078 1.410 1_655 S
C2080 C2081 1.371 . S
C2080 H2083 0.930 . S
C2081 C2080 1.371 . S
C2081 C2087 1.430 1_556 S
H2082 C2078 0.930 . S
H2083 C2080 0.930 . S
S2084 N2085 1.613 . S
S2084 N2086 1.610 1_455 S
N2085 S2084 1.613 . S
N2085 C2088 1.350 . S
N2086 S2084 1.610 1_655 S
N2086 C2087 1.361 . S
C2087 C2081 1.430 1_554 S
C2087 N2086 1.361 . S
C2087 C2088 1.421 1_655 S
C2088 C2079 1.427 1_554 S
C2088 N2085 1.350 . S
C2088 C2087 1.421 1_455 S
C2089 C2090 1.369 . S
C2089 C2091 1.419 . S
C2089 H2093 0.930 . S
C2090 C2089 1.369 . S
C2090 C2099 1.433 1_556 S
C2091 C2089 1.419 . S
C2091 C2092 1.381 . S
C2091 H2094 0.929 . S
C2092 C2091 1.381 . S
C2092 C2098 1.420 1_556 S
H2093 C2089 0.930 . S
H2094 C2091 0.929 . S
S2095 N2096 1.613 . S
S2095 N2097 1.610 . S
N2096 S2095 1.613 . S
N2096 C2099 1.348 . S
N2097 S2095 1.610 . S
N2097 C2098 1.351 . S
C2098 C2092 1.420 1_554 S
C2098 N2097 1.351 . S
C2098 C2099 1.432 . S
C2099 C2090 1.433 1_554 S
C2099 N2096 1.348 . S
C2099 C2098 1.432 . S
C2100 C2101 1.369 . S
C2100 C2102 1.419 . S
C2100 H2104 0.930 . S
C2101 C2100 1.369 . S
C2101 C2110 1.429 . S
C2102 C2100 1.419 . S
C2102 C2103 1.363 . S
C2102 H2105 0.929 . S
C2103 C2102 1.363 . S
C2103 C2109 1.428 . S
H2104 C2100 0.930 . S
H2105 C2102 0.929 . S
S2106 N2107 1.613 1_565 S
S2106 N2108 1.610 . S
N2107 S2106 1.613 1_545 S
N2107 C2110 1.350 . S
N2108 S2106 1.610 . S
N2108 C2109 1.351 1_565 S
C2109 C2103 1.428 . S
C2109 N2108 1.351 1_545 S
C2109 C2110 1.434 . S
C2110 C2101 1.429 . S
C2110 N2107 1.350 . S
C2110 C2109 1.434 . S
C2111 C2112 1.369 . S
C2111 C2113 1.419 . S
C2111 H2115 0.930 . S
C2112 C2111 1.369 . S
C2112 C2121 1.429 . S
C2113 C2111 1.419 . S
C2113 C2114 1.363 . S
C2113 H2116 0.929 . S
C2114 C2113 1.363 . S
C2114 C2120 1.428 . S
H2115 C2111 0.930 . S
H2116 C2113 0.929 . S
S2117 N2118 1.613 . S
S2117 N2119 1.610 . S
N2118 S2117 1.613 . S
N2118 C2121 1.350 . S
N2119 S2117 1.610 . S
N2119 C2120 1.351 . S
C2120 C2114 1.428 . S
C2120 N2119 1.351 . S
C2120 C2121 1.434 . S
C2121 C2112 1.429 . S
C2121 N2118 1.350 . S
C2121 C2120 1.434 . S
C2122 C2123 1.369 . S
C2122 C2124 1.419 . S
C2122 H2126 0.930 . S
C2123 C2122 1.369 . S
C2123 C2132 1.429 . S
C2124 C2122 1.419 . S
C2124 C2125 1.363 . S
C2124 H2127 0.929 . S
C2125 C2124 1.363 . S
C2125 C2131 1.428 . S
H2126 C2122 0.930 . S
H2127 C2124 0.929 . S
S2128 N2129 1.613 . S
S2128 N2130 1.610 . S
N2129 S2128 1.613 . S
N2129 C2132 1.350 . S
N2130 S2128 1.610 . S
N2130 C2131 1.351 . S
C2131 C2125 1.428 . S
C2131 N2130 1.351 . S
C2131 C2132 1.434 . S
C2132 C2123 1.429 . S
C2132 N2129 1.350 . S
C2132 C2131 1.434 . S
C2133 C2134 1.369 1_545 S
C2133 C2135 1.419 . S
C2133 H2137 0.930 1_545 S
C2134 C2133 1.369 1_565 S
C2134 C2143 1.429 1_554 S
C2135 C2133 1.419 . S
C2135 C2136 1.387 . S
C2135 H2138 0.929 . S
C2136 C2135 1.387 . S
C2136 C2142 1.410 1_554 S
H2137 C2133 0.930 1_565 S
H2138 C2135 0.929 . S
S2139 N2140 1.613 1_545 S
S2139 N2141 1.610 . S
N2140 S2139 1.613 1_565 S
N2140 C2143 1.350 . S
N2141 S2139 1.610 . S
N2141 C2142 1.351 . S
C2142 C2136 1.410 1_556 S
C2142 N2141 1.351 . S
C2142 C2143 1.434 1_545 S
C2143 C2134 1.429 1_556 S
C2143 N2140 1.350 . S
C2143 C2142 1.434 1_565 S
C2144 C2145 1.354 1_556 S
C2144 C2146 1.419 1_655 S
C2144 H2148 0.930 . S
C2145 C2144 1.354 1_554 S
C2145 C2154 1.449 . S
C2146 C2144 1.419 1_455 S
C2146 C2147 1.363 1_556 S
C2146 H2149 0.929 . S
C2147 C2146 1.363 1_554 S
C2147 C2153 1.428 1_455 S
H2148 C2144 0.930 . S
H2149 C2146 0.929 . S
S2150 N2151 1.613 . S
S2150 N2152 1.610 1_655 S
N2151 S2150 1.613 . S
N2151 C2154 1.350 . S
N2152 S2150 1.610 1_455 S
N2152 C2153 1.351 1_455 S
C2153 C2147 1.428 1_655 S
C2153 N2152 1.351 1_655 S
C2153 C2154 1.434 . S
C2154 C2145 1.449 . S
C2154 N2151 1.350 . S
C2154 C2153 1.434 . S
C2155 C2156 1.369 1_556 S
C2155 C2157 1.419 . S
C2155 H2159 0.930 . S
C2156 C2155 1.369 1_554 S
C2156 C2165 1.429 . S
C2157 C2155 1.419 . S
C2157 C2158 1.340 1_556 S
C2157 H2160 0.929 . S
C2158 C2157 1.340 1_554 S
C2158 C2164 1.461 . S
H2159 C2155 0.930 . S
H2160 C2157 0.929 . S
S2161 N2162 1.613 . S
S2161 N2163 1.610 . S
N2162 S2161 1.613 . S
N2162 C2165 1.350 . S
N2163 S2161 1.610 . S
N2163 C2164 1.351 . S
C2164 C2158 1.461 . S
C2164 N2163 1.351 . S
C2164 C2165 1.434 . S
C2165 C2156 1.429 . S
C2165 N2162 1.350 . S
C2165 C2164 1.434 . S
C2166 C2167 1.369 1_655 S
C2166 C2168 1.419 . S
C2166 H2170 0.930 1_655 S
C2167 C2166 1.369 1_455 S
C2167 C2176 1.427 . S
C2168 C2166 1.419 . S
C2168 C2169 1.363 . S
C2168 H2171 0.929 . S
C2169 C2168 1.363 . S
C2169 C2175 1.428 . S
H2170 C2166 0.930 1_455 S
H2171 C2168 0.929 . S
S2172 N2173 1.613 1_655 S
S2172 N2174 1.610 . S
N2173 S2172 1.613 1_455 S
N2173 C2176 1.370 . S
N2174 S2172 1.610 . S
N2174 C2175 1.351 . S
C2175 C2169 1.428 . S
C2175 N2174 1.351 . S
C2175 C2176 1.415 1_655 S
C2176 C2167 1.427 . S
C2176 N2173 1.370 . S
C2176 C2175 1.415 1_455 S
C2177 C2178 1.369 . S
C2177 C2179 1.419 . S
C2177 H2181 0.930 . S
C2178 C2177 1.369 . S
C2178 C2187 1.429 . S
C2179 C2177 1.419 . S
C2179 C2180 1.363 . S
C2179 H2182 0.929 . S
C2180 C2179 1.363 . S
C2180 C2186 1.428 . S
H2181 C2177 0.930 . S
H2182 C2179 0.929 . S
S2183 N2184 1.613 . S
S2183 N2185 1.610 . S
N2184 S2183 1.613 . S
N2184 C2187 1.350 . S
N2185 S2183 1.610 . S
N2185 C2186 1.351 . S
C2186 C2180 1.428 . S
C2186 N2185 1.351 . S
C2186 C2187 1.434 . S
C2187 C2178 1.429 . S
C2187 N2184 1.350 . S
C2187 C2186 1.434 . S
C2188 C2189 1.369 . S
C2188 C2190 1.419 1_565 S
C2188 H2192 0.930 . S
C2189 C2188 1.369 . S
C2189 C2198 1.429 1_565 S
C2190 C2188 1.419 1_545 S
C2190 C2191 1.363 . S
C2190 H2193 0.929 . S
C2191 C2190 1.363 . S
C2191 C2197 1.428 . S
H2192 C2188 0.930 . S
H2193 C2190 0.929 . S
S2194 N2195 1.613 . S
S2194 N2196 1.610 . S
N2195 S2194 1.613 . S
N2195 C2198 1.350 . S
N2196 S2194 1.610 . S
N2196 C2197 1.351 . S
C2197 C2191 1.428 . S
C2197 N2196 1.351 . S
C2197 C2198 1.434 . S
C2198 C2189 1.429 1_545 S
C2198 N2195 1.350 . S
C2198 C2197 1.434 . S
C2199 C2200 1.369 . S
C2199 C2201 1.419 . S
C2199 H2203 0.930 1_655 S
C2200 C2199 1.369 . S
C2200 C2209 1.429 . S
C2201 C2199 1.419 . S
C2201 C2202 1.363 . S
C2201 H2204 0.929 . S
C2202 C2201 1.363 . S
C2202 C2208 1.428 . S
H2203 C2199 0.930 1_455 S
H2204 C2201 0.929 . S
S2205 N2206 1.613 . S
S2205 N2207 1.610 . S
N2206 S2205 1.613 . S
N2206 C2209 1.350 . S
N2207 S2205 1.610 . S
N2207 C2208 1.351 . S
C2208 C2202 1.428 . S
C2208 N2207 1.351 . S
C2208 C2209 1.434 . S
C2209 C2200 1.429 . S
C2209 N2206 1.350 . S
C2209 C2208 1.434 . S
C2210 C2211 1.369 . S
C2210 C2212 1.419 . S
C2210 H2214 0.930 . S
C2211 C2210 1.369 . S
C2211 C2220 1.429 . S
C2212 C2210 1.419 . S
C2212 C2213 1.363 . S
C2212 H2215 0.929 . S
C2213 C2212 1.363 . S
C2213 C2219 1.428 . S
H2214 C2210 0.930 . S
H2215 C2212 0.929 . S
S2216 N2217 1.613 . S
S2216 N2218 1.610 . S
N2217 S2216 1.613 . S
N2217 C2220 1.350 . S
N2218 S2216 1.610 . S
N2218 C2219 1.351 . S
C2219 C2213 1.428 . S
C2219 N2218 1.351 . S
C2219 C2220 1.434 . S
C2220 C2211 1.429 . S
C2220 N2217 1.350 . S
C2220 C2219 1.434 . S
C2221 C2222 1.369 . S
C2221 C2223 1.419 . S
C2221 H2225 0.930 . S
C2222 C2221 1.369 . S
C2222 C2231 1.429 . S
C2223 C2221 1.419 . S
C2223 C2224 1.363 . S
C2223 H2226 0.929 . S
C2224 C2223 1.363 . S
C2224 C2230 1.428 . S
H2225 C2221 0.930 . S
H2226 C2223 0.929 . S
S2227 N2228 1.613 . S
S2227 N2229 1.628 . S
N2228 S2227 1.613 . S
N2228 C2231 1.350 . S
N2229 S2227 1.628 . S
N2229 C2230 1.365 . S
C2230 C2224 1.428 . S
C2230 N2229 1.365 . S
C2230 C2231 1.434 . S
C2231 C2222 1.429 . S
C2231 N2228 1.350 . S
C2231 C2230 1.434 . S
C2232 C2233 1.369 . S
C2232 C2234 1.419 . S
C2232 H2236 0.930 . S
C2233 C2232 1.369 . S
C2233 C2242 1.429 . S
C2234 C2232 1.419 . S
C2234 C2235 1.363 . S
C2234 H2237 0.929 . S
C2235 C2234 1.363 . S
C2235 C2241 1.428 . S
H2236 C2232 0.930 . S
H2237 C2234 0.929 . S
S2238 N2239 1.613 . S
S2238 N2240 1.610 . S
N2239 S2238 1.613 . S
N2239 C2242 1.350 . S
N2240 S2238 1.610 . S
N2240 C2241 1.351 . S
C2241 C2235 1.428 . S
C2241 N2240 1.351 . S
C2241 C2242 1.434 . S
C2242 C2233 1.429 . S
C2242 N2239 1.350 . S
C2242 C2241 1.434 . S
C2243 C2244 1.369 . S
C2243 C2245 1.419 . S
C2243 H2247 0.930 . S
C2244 C2243 1.369 . S
C2244 C2253 1.429 . S
C2245 C2243 1.419 . S
C2245 C2246 1.363 . S
C2245 H2248 0.929 . S
C2246 C2245 1.363 . S
C2246 C2252 1.428 . S
H2247 C2243 0.930 . S
H2248 C2245 0.929 . S
S2249 N2250 1.613 . S
S2249 N2251 1.610 . S
N2250 S2249 1.613 . S
N2250 C2253 1.350 1_545 S
N2251 S2249 1.610 . S
N2251 C2252 1.351 1_545 S
C2252 C2246 1.428 . S
C2252 N2251 1.351 1_565 S
C2252 C2253 1.434 . S
C2253 C2244 1.429 . S
C2253 N2250 1.350 1_565 S
C2253 C2252 1.434 . S
C2254 C2255 1.369 . S
C2254 C2256 1.419 . S
C2254 H2258 0.930 . S
C2255 C2254 1.369 . S
C2255 C2264 1.429 . S
C2256 C2254 1.419 . S
C2256 C2257 1.363 . S
C2256 H2259 0.929 . S
C2257 C2256 1.363 . S
C2257 C2263 1.428 . S
H2258 C2254 0.930 . S
H2259 C2256 0.929 . S
S2260 N2261 1.613 . S
S2260 N2262 1.610 . S
N2261 S2260 1.613 . S
N2261 C2264 1.350 1_655 S
N2262 S2260 1.610 . S
N2262 C2263 1.351 1_655 S
C2263 C2257 1.428 . S
C2263 N2262 1.351 1_455 S
C2263 C2264 1.434 . S
C2264 C2255 1.429 . S
C2264 N2261 1.350 1_455 S
C2264 C2263 1.434 . S
C2265 C2266 1.369 . S
C2265 C2267 1.419 . S
C2265 H2269 0.930 . S
C2266 C2265 1.369 . S
C2266 C2275 1.429 . S
C2267 C2265 1.419 . S
C2267 C2268 1.363 . S
C2267 H2270 0.929 . S
C2268 C2267 1.363 . S
C2268 C2274 1.428 . S
H2269 C2265 0.930 . S
H2270 C2267 0.929 . S
S2271 N2272 1.613 . S
S2271 N2273 1.610 . S
N2272 S2271 1.613 . S
N2272 C2275 1.350 . S
N2273 S2271 1.610 . S
N2273 C2274 1.351 . S
C2274 C2268 1.428 . S
C2274 N2273 1.351 . S
C2274 C2275 1.434 . S
C2275 C2266 1.429 . S
C2275 N2272 1.350 . S
C2275 C2274 1.434 . S
C2276 C2277 1.369 . S
C2276 C2278 1.419 . S
C2276 H2280 0.930 . S
C2277 C2276 1.369 . S
C2277 C2286 1.429 . S
C2278 C2276 1.419 . S
C2278 C2279 1.363 . S
C2278 H2281 0.929 . S
C2279 C2278 1.363 . S
C2279 C2285 1.428 . S
H2280 C2276 0.930 . S
H2281 C2278 0.929 . S
S2282 N2283 1.613 . S
S2282 N2284 1.610 . S
N2283 S2282 1.613 . S
N2283 C2286 1.350 . S
N2284 S2282 1.610 . S
N2284 C2285 1.351 . S
C2285 C2279 1.428 . S
C2285 N2284 1.351 . S
C2285 C2286 1.434 . S
C2286 C2277 1.429 . S
C2286 N2283 1.350 . S
C2286 C2285 1.434 . S
C2287 C2288 1.369 . S
C2287 C2289 1.419 . S
C2287 H2291 0.930 . S
C2288 C2287 1.369 . S
C2288 C2297 1.429 . S
C2289 C2287 1.419 . S
C2289 C2290 1.363 . S
C2289 H2292 0.929 . S
C2290 C2289 1.363 . S
C2290 C2296 1.428 . S
H2291 C2287 0.930 . S
H2292 C2289 0.929 . S
S2293 N2294 1.613 . S
S2293 N2295 1.610 . S
N2294 S2293 1.613 . S
N2294 C2297 1.350 . S
N2295 S2293 1.610 . S
N2295 C2296 1.351 . S
C2296 C2290 1.428 . S
C2296 N2295 1.351 . S
C2296 C2297 1.434 . S
C2297 C2288 1.429 . S
C2297 N2294 1.350 . S
C2297 C2296 1.434 . S
C2298 C2299 1.369 . S
C2298 C2300 1.419 . S
C2298 H2302 0.930 . S
C2299 C2298 1.369 . S
C2299 C2308 1.429 . S
C2300 C2298 1.419 . S
C2300 C2301 1.363 . S
C2300 H2303 0.929 . S
C2301 C2300 1.363 . S
C2301 C2307 1.428 . S
H2302 C2298 0.930 . S
H2303 C2300 0.929 . S
S2304 N2305 1.613 . S
S2304 N2306 1.610 . S
N2305 S2304 1.613 . S
N2305 C2308 1.350 . S
N2306 S2304 1.610 . S
N2306 C2307 1.351 . S
C2307 C2301 1.428 . S
C2307 N2306 1.351 . S
C2307 C2308 1.434 . S
C2308 C2299 1.429 . S
C2308 N2305 1.350 . S
C2308 C2307 1.434 . S
C2309 C2310 1.369 . S
C2309 C2311 1.419 . S
C2309 H2313 0.930 . S
C2310 C2309 1.369 . S
C2310 C2319 1.429 . S
C2311 C2309 1.419 . S
C2311 C2312 1.363 . S
C2311 H2314 0.929 . S
C2312 C2311 1.363 . S
C2312 C2318 1.428 . S
H2313 C2309 0.930 . S
H2314 C2311 0.929 . S
S2315 N2316 1.613 1_565 S
S2315 N2317 1.610 1_565 S
N2316 S2315 1.613 1_545 S
N2316 C2319 1.350 . S
N2317 S2315 1.610 1_545 S
N2317 C2318 1.351 . S
C2318 C2312 1.428 . S
C2318 N2317 1.351 . S
C2318 C2319 1.434 . S
C2319 C2310 1.429 . S
C2319 N2316 1.350 . S
C2319 C2318 1.434 . S
C2320 C2321 1.369 . S
C2320 C2322 1.419 . S
C2320 H2324 0.930 . S
C2321 C2320 1.369 . S
C2321 C2330 1.429 . S
C2322 C2320 1.419 . S
C2322 C2323 1.363 . S
C2322 H2325 0.929 . S
C2323 C2322 1.363 . S
C2323 C2329 1.428 . S
H2324 C2320 0.930 . S
H2325 C2322 0.929 . S
S2326 N2327 1.613 . S
S2326 N2328 1.610 . S
N2327 S2326 1.613 . S
N2327 C2330 1.350 1_455 S
N2328 S2326 1.610 . S
N2328 C2329 1.351 1_455 S
C2329 C2323 1.428 . S
C2329 N2328 1.351 1_655 S
C2329 C2330 1.434 . S
C2330 C2321 1.429 . S
C2330 N2327 1.350 1_655 S
C2330 C2329 1.434 . S
C2331 C2332 1.369 . S
C2331 C2333 1.419 . S
C2331 H2335 0.930 . S
C2332 C2331 1.369 . S
C2332 C2341 1.429 . S
C2333 C2331 1.419 . S
C2333 C2334 1.363 . S
C2333 H2336 0.929 . S
C2334 C2333 1.363 . S
C2334 C2340 1.428 . S
H2335 C2331 0.930 . S
H2336 C2333 0.929 . S
S2337 N2338 1.613 . S
S2337 N2339 1.610 . S
N2338 S2337 1.613 . S
N2338 C2341 1.350 . S
N2339 S2337 1.610 . S
N2339 C2340 1.351 . S
C2340 C2334 1.428 . S
C2340 N2339 1.351 . S
C2340 C2341 1.434 . S
C2341 C2332 1.429 . S
C2341 N2338 1.350 . S
C2341 C2340 1.434 . S
C2342 C2343 1.369 . S
C2342 C2344 1.419 . S
C2342 H2346 0.930 1_565 S
C2343 C2342 1.369 . S
C2343 C2352 1.429 . S
C2344 C2342 1.419 . S
C2344 C2345 1.363 . S
C2344 H2347 0.929 1_565 S
C2345 C2344 1.363 . S
C2345 C2351 1.428 . S
H2346 C2342 0.930 1_545 S
H2347 C2344 0.929 1_545 S
S2348 N2349 1.613 . S
S2348 N2350 1.610 . S
N2349 S2348 1.613 . S
N2349 C2352 1.350 . S
N2350 S2348 1.610 . S
N2350 C2351 1.351 . S
C2351 C2345 1.428 . S
C2351 N2350 1.351 . S
C2351 C2352 1.434 . S
C2352 C2343 1.429 . S
C2352 N2349 1.350 . S
C2352 C2351 1.434 . S
C2353 C2354 1.369 . S
C2353 C2355 1.419 . S
C2353 H2357 0.930 . S
C2354 C2353 1.369 . S
C2354 C2363 1.429 . S
C2355 C2353 1.419 . S
C2355 C2356 1.363 . S
C2355 H2358 0.929 . S
C2356 C2355 1.363 . S
C2356 C2362 1.428 . S
H2357 C2353 0.930 . S
H2358 C2355 0.929 . S
S2359 N2360 1.613 . S
S2359 N2361 1.610 . S
N2360 S2359 1.613 . S
N2360 C2363 1.350 . S
N2361 S2359 1.610 . S
N2361 C2362 1.351 . S
C2362 C2356 1.428 . S
C2362 N2361 1.351 . S
C2362 C2363 1.434 . S
C2363 C2354 1.429 . S
C2363 N2360 1.350 . S
C2363 C2362 1.434 . S
C2364 C2365 1.373 . S
C2364 C2366 1.418 1_455 S
C2364 H2368 0.927 1_455 S
C2365 C2364 1.373 . S
C2365 C2374 1.429 . S
C2366 C2364 1.418 1_655 S
C2366 C2367 1.363 . S
C2366 H2369 0.929 . S
C2367 C2366 1.363 . S
C2367 C2373 1.428 1_655 S
H2368 C2364 0.927 1_655 S
H2369 C2366 0.929 . S
S2370 N2371 1.613 . S
S2370 N2372 1.610 . S
N2371 S2370 1.613 . S
N2371 C2374 1.350 . S
N2372 S2370 1.610 . S
N2372 C2373 1.351 . S
C2373 C2367 1.428 1_455 S
C2373 N2372 1.351 . S
C2373 C2374 1.434 . S
C2374 C2365 1.429 . S
C2374 N2371 1.350 . S
C2374 C2373 1.434 . S
C2375 C2376 1.369 . S
C2375 C2377 1.419 . S
C2375 H2379 0.930 . S
C2376 C2375 1.369 . S
C2376 C2385 1.429 . S
C2377 C2375 1.419 . S
C2377 C2378 1.363 . S
C2377 H2380 0.929 . S
C2378 C2377 1.363 . S
C2378 C2384 1.428 . S
H2379 C2375 0.930 . S
H2380 C2377 0.929 . S
S2381 N2382 1.613 . S
S2381 N2383 1.610 . S
N2382 S2381 1.613 . S
N2382 C2385 1.350 . S
N2383 S2381 1.610 . S
N2383 C2384 1.351 . S
C2384 C2378 1.428 . S
C2384 N2383 1.351 . S
C2384 C2385 1.434 . S
C2385 C2376 1.429 . S
C2385 N2382 1.350 . S
C2385 C2384 1.434 . S
C2386 C2387 1.369 1_545 S
C2386 C2388 1.419 . S
C2386 H2390 0.930 . S
C2387 C2386 1.369 1_565 S
C2387 C2396 1.429 . S
C2388 C2386 1.419 . S
C2388 C2389 1.363 . S
C2388 H2391 0.929 . S
C2389 C2388 1.363 . S
C2389 C2395 1.428 1_545 S
H2390 C2386 0.930 . S
H2391 C2388 0.929 . S
S2392 N2393 1.613 . S
S2392 N2394 1.610 . S
N2393 S2392 1.613 . S
N2393 C2396 1.350 . S
N2394 S2392 1.610 . S
N2394 C2395 1.351 . S
C2395 C2389 1.428 1_565 S
C2395 N2394 1.351 . S
C2395 C2396 1.434 . S
C2396 C2387 1.429 . S
C2396 N2393 1.350 . S
C2396 C2395 1.434 . S
C2397 C2398 1.369 . S
C2397 C2399 1.419 . S
C2397 H2401 0.930 . S
C2398 C2397 1.369 . S
C2398 C2407 1.429 1_565 S
C2399 C2397 1.419 . S
C2399 C2400 1.363 1_565 S
C2399 H2402 0.929 . S
C2400 C2399 1.363 1_545 S
C2400 C2406 1.428 . S
H2401 C2397 0.930 . S
H2402 C2399 0.929 . S
S2403 N2404 1.613 . S
S2403 N2405 1.610 . S
N2404 S2403 1.613 . S
N2404 C2407 1.350 . S
N2405 S2403 1.610 . S
N2405 C2406 1.351 . S
C2406 C2400 1.428 . S
C2406 N2405 1.351 . S
C2406 C2407 1.434 . S
C2407 C2398 1.429 1_545 S
C2407 N2404 1.350 . S
C2407 C2406 1.434 . S
C2408 C2409 1.369 . S
C2408 C2410 1.419 . S
C2408 H2412 0.930 . S
C2409 C2408 1.369 . S
C2409 C2418 1.429 1_655 S
C2410 C2408 1.419 . S
C2410 C2411 1.363 1_655 S
C2410 H2413 0.929 . S
C2411 C2410 1.363 1_455 S
C2411 C2417 1.428 . S
H2412 C2408 0.930 . S
H2413 C2410 0.929 . S
S2414 N2415 1.613 . S
S2414 N2416 1.610 . S
N2415 S2414 1.613 . S
N2415 C2418 1.350 . S
N2416 S2414 1.610 . S
N2416 C2417 1.351 . S
C2417 C2411 1.428 . S
C2417 N2416 1.351 . S
C2417 C2418 1.434 . S
C2418 C2409 1.429 1_455 S
C2418 N2415 1.350 . S
C2418 C2417 1.434 . S
C2419 C2420 1.369 . S
C2419 C2421 1.419 . S
C2419 H2423 0.930 . S
C2420 C2419 1.369 . S
C2420 C2429 1.429 . S
C2421 C2419 1.419 . S
C2421 C2422 1.363 . S
C2421 H2424 0.929 . S
C2422 C2421 1.363 . S
C2422 C2428 1.428 . S
H2423 C2419 0.930 . S
H2424 C2421 0.929 . S
S2425 N2426 1.613 . S
S2425 N2427 1.610 . S
N2426 S2425 1.613 . S
N2426 C2429 1.350 . S
N2427 S2425 1.610 . S
N2427 C2428 1.351 . S
C2428 C2422 1.428 . S
C2428 N2427 1.351 . S
C2428 C2429 1.434 . S
C2429 C2420 1.429 . S
C2429 N2426 1.350 . S
C2429 C2428 1.434 . S
C2430 C2431 1.369 . S
C2430 C2432 1.419 . S
C2430 H2434 0.930 . S
C2431 C2430 1.369 . S
C2431 C2440 1.429 1_655 S
C2432 C2430 1.419 . S
C2432 C2433 1.363 1_655 S
C2432 H2435 0.929 . S
C2433 C2432 1.363 1_455 S
C2433 C2439 1.428 . S
H2434 C2430 0.930 . S
H2435 C2432 0.929 . S
S2436 N2437 1.613 . S
S2436 N2438 1.610 . S
N2437 S2436 1.613 . S
N2437 C2440 1.350 . S
N2438 S2436 1.610 . S
N2438 C2439 1.351 . S
C2439 C2433 1.428 . S
C2439 N2438 1.351 . S
C2439 C2440 1.434 . S
C2440 C2431 1.429 1_455 S
C2440 N2437 1.350 . S
C2440 C2439 1.434 . S
C2441 C2442 1.369 . S
C2441 C2443 1.419 . S
C2441 H2445 0.930 . S
C2442 C2441 1.369 . S
C2442 C2451 1.429 . S
C2443 C2441 1.419 . S
C2443 C2444 1.363 . S
C2443 H2446 0.929 . S
C2444 C2443 1.363 . S
C2444 C2450 1.428 . S
H2445 C2441 0.930 . S
H2446 C2443 0.929 . S
S2447 N2448 1.613 . S
S2447 N2449 1.610 . S
N2448 S2447 1.613 . S
N2448 C2451 1.350 . S
N2449 S2447 1.610 . S
N2449 C2450 1.351 . S
C2450 C2444 1.428 . S
C2450 N2449 1.351 . S
C2450 C2451 1.434 . S
C2451 C2442 1.429 . S
C2451 N2448 1.350 . S
C2451 C2450 1.434 . S
C2452 C2453 1.369 . S
C2452 C2454 1.419 . S
C2452 H2456 0.930 . S
C2453 C2452 1.369 . S
C2453 C2462 1.429 1_545 S
C2454 C2452 1.419 . S
C2454 C2455 1.363 1_545 S
C2454 H2457 0.929 . S
C2455 C2454 1.363 1_565 S
C2455 C2461 1.428 . S
H2456 C2452 0.930 . S
H2457 C2454 0.929 . S
S2458 N2459 1.613 . S
S2458 N2460 1.610 . S
N2459 S2458 1.613 . S
N2459 C2462 1.350 . S
N2460 S2458 1.610 . S
N2460 C2461 1.351 . S
C2461 C2455 1.428 . S
C2461 N2460 1.351 . S
C2461 C2462 1.434 . S
C2462 C2453 1.429 1_565 S
C2462 N2459 1.350 . S
C2462 C2461 1.434 . S
C2463 C2464 1.369 1_455 S
C2463 C2465 1.419 . S
C2463 H2467 0.930 . S
C2464 C2463 1.369 1_655 S
C2464 C2473 1.429 . S
C2465 C2463 1.419 . S
C2465 C2466 1.363 . S
C2465 H2468 0.929 . S
C2466 C2465 1.363 . S
C2466 C2472 1.428 1_455 S
H2467 C2463 0.930 . S
H2468 C2465 0.929 . S
S2469 N2470 1.613 . S
S2469 N2471 1.610 . S
N2470 S2469 1.613 . S
N2470 C2473 1.350 . S
N2471 S2469 1.610 . S
N2471 C2472 1.351 . S
C2472 C2466 1.428 1_655 S
C2472 N2471 1.351 . S
C2472 C2473 1.434 . S
C2473 C2464 1.429 . S
C2473 N2470 1.350 . S
C2473 C2472 1.434 . S
C2474 C2475 1.369 . S
C2474 C2476 1.419 . S
C2474 H2478 0.930 . S
C2475 C2474 1.369 . S
C2475 C2484 1.429 . S
C2476 C2474 1.419 . S
C2476 C2477 1.363 . S
C2476 H2479 0.929 . S
C2477 C2476 1.363 . S
C2477 C2483 1.428 . S
H2478 C2474 0.930 . S
H2479 C2476 0.929 . S
S2480 N2481 1.613 . S
S2480 N2482 1.610 . S
N2481 S2480 1.613 . S
N2481 C2484 1.350 . S
N2482 S2480 1.610 . S
N2482 C2483 1.351 . S
C2483 C2477 1.428 . S
C2483 N2482 1.351 . S
C2483 C2484 1.434 . S
C2484 C2475 1.429 . S
C2484 N2481 1.350 . S
C2484 C2483 1.434 . S
C2485 C2486 1.369 . S
C2485 C2487 1.419 . S
C2485 H2489 0.930 . S
C2486 C2485 1.369 . S
C2486 C2495 1.429 1_545 S
C2487 C2485 1.419 . S
C2487 C2488 1.363 1_545 S
C2487 H2490 0.929 . S
C2488 C2487 1.363 1_565 S
C2488 C2494 1.428 . S
H2489 C2485 0.930 . S
H2490 C2487 0.929 . S
S2491 N2492 1.613 . S
S2491 N2493 1.610 . S
N2492 S2491 1.613 . S
N2492 C2495 1.350 . S
N2493 S2491 1.610 . S
N2493 C2494 1.351 . S
C2494 C2488 1.428 . S
C2494 N2493 1.351 . S
C2494 C2495 1.434 . S
C2495 C2486 1.429 1_565 S
C2495 N2492 1.350 . S
C2495 C2494 1.434 . S
C2496 C2497 1.369 . S
C2496 C2498 1.419 . S
C2496 H2500 0.930 . S
C2497 C2496 1.369 . S
C2497 C2506 1.429 . S
C2498 C2496 1.419 . S
C2498 C2499 1.363 . S
C2498 H2501 0.929 . S
C2499 C2498 1.363 . S
C2499 C2505 1.428 . S
H2500 C2496 0.930 . S
H2501 C2498 0.929 . S
S2502 N2503 1.613 . S
S2502 N2504 1.610 . S
N2503 S2502 1.613 . S
N2503 C2506 1.350 . S
N2504 S2502 1.610 . S
N2504 C2505 1.351 . S
C2505 C2499 1.428 . S
C2505 N2504 1.351 . S
C2505 C2506 1.434 . S
C2506 C2497 1.429 . S
C2506 N2503 1.350 . S
C2506 C2505 1.434 . S
C2507 C2508 1.369 . S
C2507 C2509 1.419 . S
C2507 H2511 0.930 . S
C2508 C2507 1.369 . S
C2508 C2517 1.429 . S
C2509 C2507 1.419 . S
C2509 C2510 1.363 . S
C2509 H2512 0.929 . S
C2510 C2509 1.363 . S
C2510 C2516 1.428 . S
H2511 C2507 0.930 . S
H2512 C2509 0.929 . S
S2513 N2514 1.613 . S
S2513 N2515 1.610 . S
N2514 S2513 1.613 . S
N2514 C2517 1.350 . S
N2515 S2513 1.610 . S
N2515 C2516 1.351 . S
C2516 C2510 1.428 . S
C2516 N2515 1.351 . S
C2516 C2517 1.434 . S
C2517 C2508 1.429 . S
C2517 N2514 1.350 . S
C2517 C2516 1.434 . S
C2518 C2519 1.369 . S
C2518 C2520 1.419 . S
C2518 H2522 0.930 . S
C2519 C2518 1.369 . S
C2519 C2528 1.429 . S
C2520 C2518 1.419 . S
C2520 C2521 1.363 . S
C2520 H2523 0.929 . S
C2521 C2520 1.363 . S
C2521 C2527 1.428 . S
H2522 C2518 0.930 . S
H2523 C2520 0.929 . S
S2524 N2525 1.613 . S
S2524 N2526 1.610 . S
N2525 S2524 1.613 . S
N2525 C2528 1.350 . S
N2526 S2524 1.610 . S
N2526 C2527 1.351 . S
C2527 C2521 1.428 . S
C2527 N2526 1.351 . S
C2527 C2528 1.434 . S
C2528 C2519 1.429 . S
C2528 N2525 1.350 . S
C2528 C2527 1.434 . S
C2529 C2530 1.369 . S
C2529 C2531 1.419 . S
C2529 H2533 0.930 . S
C2530 C2529 1.369 . S
C2530 C2539 1.429 . S
C2531 C2529 1.419 . S
C2531 C2532 1.363 . S
C2531 H2534 0.929 . S
C2532 C2531 1.363 . S
C2532 C2538 1.428 . S
H2533 C2529 0.930 . S
H2534 C2531 0.929 . S
S2535 N2536 1.613 . S
S2535 N2537 1.610 . S
N2536 S2535 1.613 . S
N2536 C2539 1.350 . S
N2537 S2535 1.610 . S
N2537 C2538 1.351 . S
C2538 C2532 1.428 . S
C2538 N2537 1.351 . S
C2538 C2539 1.434 . S
C2539 C2530 1.429 . S
C2539 N2536 1.350 . S
C2539 C2538 1.434 . S
C2540 C2541 1.369 . S
C2540 C2542 1.419 . S
C2540 H2544 0.930 . S
C2541 C2540 1.369 . S
C2541 C2550 1.429 . S
C2542 C2540 1.419 . S
C2542 C2543 1.363 . S
C2542 H2545 0.929 . S
C2543 C2542 1.363 . S
C2543 C2549 1.428 . S
H2544 C2540 0.930 . S
H2545 C2542 0.929 . S
S2546 N2547 1.613 . S
S2546 N2548 1.610 . S
N2547 S2546 1.613 . S
N2547 C2550 1.350 . S
N2548 S2546 1.610 . S
N2548 C2549 1.351 . S
C2549 C2543 1.428 . S
C2549 N2548 1.351 . S
C2549 C2550 1.434 . S
C2550 C2541 1.429 . S
C2550 N2547 1.350 . S
C2550 C2549 1.434 . S
C2551 C2552 1.369 . S
C2551 C2553 1.419 . S
C2551 H2555 0.930 . S
C2552 C2551 1.369 . S
C2552 C2561 1.429 . S
C2553 C2551 1.419 . S
C2553 C2554 1.363 . S
C2553 H2556 0.929 . S
C2554 C2553 1.363 . S
C2554 C2560 1.428 . S
H2555 C2551 0.930 . S
H2556 C2553 0.929 . S
S2557 N2558 1.613 . S
S2557 N2559 1.610 . S
N2558 S2557 1.613 . S
N2558 C2561 1.350 . S
N2559 S2557 1.610 . S
N2559 C2560 1.351 . S
C2560 C2554 1.428 . S
C2560 N2559 1.351 . S
C2560 C2561 1.434 . S
C2561 C2552 1.429 . S
C2561 N2558 1.350 . S
C2561 C2560 1.434 . S
C2562 C2563 1.369 . S
C2562 C2564 1.419 . S
C2562 H2566 0.930 . S
C2563 C2562 1.369 . S
C2563 C2572 1.429 . S
C2564 C2562 1.419 . S
C2564 C2565 1.363 . S
C2564 H2567 0.929 . S
C2565 C2564 1.363 . S
C2565 C2571 1.428 . S
H2566 C2562 0.930 . S
H2567 C2564 0.929 . S
S2568 N2569 1.613 . S
S2568 N2570 1.610 . S
N2569 S2568 1.613 . S
N2569 C2572 1.350 . S
N2570 S2568 1.610 . S
N2570 C2571 1.351 . S
C2571 C2565 1.428 . S
C2571 N2570 1.351 . S
C2571 C2572 1.434 . S
C2572 C2563 1.429 . S
C2572 N2569 1.350 . S
C2572 C2571 1.434 . S
C2573 C2574 1.369 . S
C2573 C2575 1.419 . S
C2573 H2577 0.930 . S
C2574 C2573 1.369 . S
C2574 C2583 1.429 . S
C2575 C2573 1.419 . S
C2575 C2576 1.363 . S
C2575 H2578 0.929 . S
C2576 C2575 1.363 . S
C2576 C2582 1.428 . S
H2577 C2573 0.930 . S
H2578 C2575 0.929 . S
S2579 N2580 1.613 . S
S2579 N2581 1.610 . S
N2580 S2579 1.613 . S
N2580 C2583 1.350 . S
N2581 S2579 1.610 . S
N2581 C2582 1.351 . S
C2582 C2576 1.428 . S
C2582 N2581 1.351 . S
C2582 C2583 1.434 . S
C2583 C2574 1.429 . S
C2583 N2580 1.350 . S
C2583 C2582 1.434 . S
C2584 C2585 1.369 . S
C2584 C2586 1.419 . S
C2584 H2588 0.930 . S
C2585 C2584 1.369 . S
C2585 C2594 1.429 . S
C2586 C2584 1.419 . S
C2586 C2587 1.363 . S
C2586 H2589 0.929 . S
C2587 C2586 1.363 . S
C2587 C2593 1.428 . S
H2588 C2584 0.930 . S
H2589 C2586 0.929 . S
S2590 N2591 1.613 . S
S2590 N2592 1.610 . S
N2591 S2590 1.613 . S
N2591 C2594 1.350 . S
N2592 S2590 1.610 . S
N2592 C2593 1.351 . S
C2593 C2587 1.428 . S
C2593 N2592 1.351 . S
C2593 C2594 1.434 . S
C2594 C2585 1.429 . S
C2594 N2591 1.350 . S
C2594 C2593 1.434 . S
C2595 C2596 1.369 . S
C2595 C2597 1.419 . S
C2595 H2599 0.930 . S
C2596 C2595 1.369 . S
C2596 C2605 1.429 . S
C2597 C2595 1.419 . S
C2597 C2598 1.363 . S
C2597 H2600 0.929 . S
C2598 C2597 1.363 . S
C2598 C2604 1.428 . S
H2599 C2595 0.930 . S
H2600 C2597 0.929 . S
S2601 N2602 1.613 . S
S2601 N2603 1.610 . S
N2602 S2601 1.613 . S
N2602 C2605 1.350 . S
N2603 S2601 1.610 . S
N2603 C2604 1.351 . S
C2604 C2598 1.428 . S
C2604 N2603 1.351 . S
C2604 C2605 1.434 . S
C2605 C2596 1.429 . S
C2605 N2602 1.350 . S
C2605 C2604 1.434 . S
C2606 C2607 1.369 . S
C2606 C2608 1.419 . S
C2606 H2610 0.930 . S
C2607 C2606 1.369 . S
C2607 C2616 1.429 . S
C2608 C2606 1.419 . S
C2608 C2609 1.363 . S
C2608 H2611 0.929 . S
C2609 C2608 1.363 . S
C2609 C2615 1.428 . S
H2610 C2606 0.930 . S
H2611 C2608 0.929 . S
S2612 N2613 1.613 . S
S2612 N2614 1.610 . S
N2613 S2612 1.613 . S
N2613 C2616 1.350 . S
N2614 S2612 1.610 . S
N2614 C2615 1.351 . S
C2615 C2609 1.428 . S
C2615 N2614 1.351 . S
C2615 C2616 1.434 . S
C2616 C2607 1.429 . S
C2616 N2613 1.350 . S
C2616 C2615 1.434 . S
C2617 C2618 1.369 . S
C2617 C2619 1.419 . S
C2617 H2621 0.930 . S
C2618 C2617 1.369 . S
C2618 C2627 1.429 . S
C2619 C2617 1.419 . S
C2619 C2620 1.363 . S
C2619 H2622 0.929 . S
C2620 C2619 1.363 . S
C2620 C2626 1.428 . S
H2621 C2617 0.930 . S
H2622 C2619 0.929 . S
S2623 N2624 1.613 . S
S2623 N2625 1.610 . S
N2624 S2623 1.613 . S
N2624 C2627 1.350 . S
N2625 S2623 1.610 . S
N2625 C2626 1.351 . S
C2626 C2620 1.428 . S
C2626 N2625 1.351 . S
C2626 C2627 1.434 . S
C2627 C2618 1.429 . S
C2627 N2624 1.350 . S
C2627 C2626 1.434 . S
C1441 C10 1.785 . S
C1443 C91 1.847 1_545 S
C1452 C11 1.845 1_655 S
C1454 C50 1.788 1_545 S
C1463 C90 1.793 1_655 S
C1465 C51 1.851 . S
C1474 C130 1.859 . S
C1476 C171 1.917 1_455 S
C1485 C211 1.912 . S
C1487 C170 1.855 1_565 S
C1496 C210 1.860 1_455 S
C1498 C131 1.914 1_565 S
C1507 C259 1.786 . S
C1509 C322 1.847 1_565 S
C1518 C299 1.785 1_565 S
C1520 C242 1.848 1_455 S
C1529 C339 1.793 1_455 S
C1531 C282 1.848 . S
C1540 C379 1.853 . S
C1542 C402 1.914 1_655 S
C1551 C442 1.912 . S
C1553 C419 1.858 1_545 S
C1562 C362 1.912 1_545 S
C1564 C459 1.857 1_655 S
C1573 C571 1.908 . S
C1575 C490 1.845 . S
C1584 C530 1.843 . S
C1586 C491 1.904 . S
C1595 C531 1.903 . S
C1597 C570 1.846 . S
C1606 C610 1.870 . S
C1608 C651 1.927 . S
C1617 C691 1.929 . S
C1619 C650 1.870 . S
C1628 C611 1.928 . S
C1630 C690 1.873 . S
C1639 C739 1.812 . S
C1641 C802 1.874 . S
C1650 C779 1.816 . S
C1652 C722 1.877 . S
C1661 C762 1.878 . S
C1663 C819 1.817 . S
C1672 C882 1.765 . S
C1674 C859 1.724 1_554 S
C1683 C899 1.726 1_554 S
C1685 C922 1.767 . S
C1694 C842 1.769 . S
C1696 C939 1.721 1_554 S
C1705 C970 1.818 . S
C1707 C1051 1.877 . S
C1716 C1010 1.820 . S
C1718 C971 1.878 . S
C1727 C1050 1.818 . S
C1729 C1011 1.874 . S
C1738 C1090 1.723 1_556 S
C1740 C1131 1.765 . S
C1749 C1130 1.720 1_556 S
C1751 C1171 1.765 . S
C1760 C1170 1.720 1_556 S
C1762 C1091 1.768 . S
C1771 C1219 1.851 . S
C1773 C1282 1.906 . S
C1782 C1259 1.850 . S
C1784 C1202 1.908 . S
C1793 C1242 1.905 . S
C1795 C1299 1.850 . S
C1804 C1339 1.869 . S
C1806 C1362 1.928 . S
C1815 C1379 1.870 . S
C1817 C1402 1.931 . S
C1826 C1322 1.928 . S
C1828 C1419 1.874 . S
C1837 C2 1.901 . S
C1839 C810 1.851 . S
C1848 C730 1.850 1_565 S
C1850 C42 1.901 . S
C1859 C82 1.904 . S
C1861 C770 1.853 1_455 S
C1870 C122 1.815 . S
C1872 C1370 1.755 . S
C1881 C1410 1.751 1_545 S
C1883 C162 1.816 . S
C1892 C202 1.820 . S
C1894 C1330 1.756 1_655 S
C1903 C1059 1.854 . S
C1905 C251 1.905 . S
C1914 C291 1.902 . S
C1916 C979 1.850 1_545 S
C1925 C331 1.904 . S
C1927 C1019 1.850 1_655 S
C1936 C659 1.760 . S
C1938 C371 1.816 . S
C1947 C699 1.760 1_565 S
C1949 C411 1.816 . S
C1958 C619 1.757 1_455 S
C1960 C451 1.815 . S
C1969 C482 1.860 . S
C1971 C1290 1.804 . S
C1980 C522 1.863 . S
C1982 C1210 1.804 . S
C1991 C1250 1.809 . S
C1993 C562 1.861 . S
C2002 C410 1.798 . S
C2004 C602 1.855 1_455 S
C2013 C450 1.790 . S
C2015 C642 1.852 . S
C2024 C370 1.798 . S
C2026 C682 1.851 1_565 S
C2035 C99 1.846 . S
C2037 C731 1.898 1_565 S
C2046 C771 1.897 1_455 S
C2048 C19 1.852 . S
C2057 C811 1.895 . S
C2059 C59 1.850 . S
C2068 C1139 1.813 . S
C2070 C851 1.887 . S
C2079 C1179 1.817 . S
C2081 C891 1.882 . S
C2090 C931 1.883 . S
C2092 C1099 1.814 . S
C2101 C330 1.846 . S
C2103 C962 1.898 1_545 S
C2112 C250 1.850 . S
C2114 C1002 1.896 1_655 S
C2123 C290 1.852 . S
C2125 C1042 1.896 . S
C2134 C1082 1.883 . S
C2136 C890 1.818 . S
C2145 C930 1.816 . S
C2147 C1122 1.887 . S
C2156 C1162 1.884 . S
C2158 C850 1.813 . S
C2167 C1211 1.862 . S
C2169 C579 1.809 . S
C2178 C1251 1.861 . S
C2180 C499 1.807 . S
C2189 C1291 1.859 . S
C2191 C539 1.804 . S
C2200 C1331 1.854 1_655 S
C2202 C179 1.799 . S
C2211 C219 1.795 . S
C2213 C1371 1.855 . S
C2222 C139 1.798 . S
C2224 C1411 1.851 1_545 S
C2233 C1167 2.308 . S
C2235 C7 2.295 . S
C2244 C1087 2.307 . S
C2246 C47 2.296 . S
C2255 C87 2.310 . S
C2257 C1127 2.293 . S
C2266 C527 2.478 . S
C2268 C127 2.475 . S
C2277 C167 2.478 . S
C2279 C567 2.477 . S
C2288 C207 2.474 . S
C2290 C487 2.480 . S
C2299 C256 2.312 . S
C2301 C936 2.289 . S
C2310 C296 2.311 . S
C2312 C856 2.292 . S
C2321 C336 2.307 . S
C2323 C896 2.294 . S
C2332 C1256 2.478 . S
C2334 C376 2.475 . S
C2343 C1296 2.477 . S
C2345 C416 2.476 . S
C2354 C1216 2.481 . S
C2356 C456 2.475 . S
C2365 C607 2.508 . S
C2367 C1007 2.514 . S
C2376 C647 2.513 . S
C2378 C1047 2.514 . S
C2387 C687 2.513 . S
C2389 C967 2.514 . S
C2398 C736 2.512 . S
C2400 C1416 2.512 . S
C2409 C1336 2.507 . S
C2411 C776 2.515 . S
C2420 C816 2.514 . S
C2422 C1376 2.509 . S
C2431 C176 1.218 . S
C2433 C16 1.218 . S
C2442 C216 1.217 . S
C2444 C56 1.219 . S
C2453 C136 1.220 . S
C2455 C96 1.219 . S
C2464 C247 1.218 . S
C2466 C407 1.219 . S
C2475 C447 1.220 . S
C2477 C287 1.220 . S
C2486 C327 1.221 . S
C2488 C367 1.217 . S
C2497 C656 1.290 . S
C2499 C496 1.289 . S
C2508 C696 1.287 . S
C2510 C536 1.288 . S
C2519 C616 1.286 . S
C2521 C576 1.290 . S
C2530 C887 1.523 . S
C2532 C727 1.551 . S
C2541 C767 1.539 . S
C2543 C927 1.538 . S
C2552 C807 1.541 . S
C2554 C847 1.534 . S
C2563 C976 1.538 . S
C2565 C1136 1.538 . S
C2574 C1176 1.524 . S
C2576 C1016 1.550 . S
C2585 C1056 1.540 . S
C2587 C1096 1.534 . S
C2596 C1207 1.287 . S
C2598 C1367 1.289 . S
C2607 C1407 1.289 . S
C2609 C1247 1.290 . S
C2618 C1287 1.287 . S
C2620 C1327 1.288 . S
