# Generated by pormake.
# Topology und, (4)-cn, num edge types: 1
# Building blocks:
#     Node 0, Type 0, BuildingBlock: TATPOV_clean_sbu_0, # of connection points: 4
#     Node 1, Type 0, BuildingBlock: TATPOV_clean_sbu_0, # of connection points: 4
#     Node 2, Type 0, BuildingBlock: TATPOV_clean_sbu_0, # of connection points: 4
#     Node 3, Type 0, BuildingBlock: TATPOV_clean_sbu_0, # of connection points: 4
#     Node 4, Type 0, BuildingBlock: TATPOV_clean_sbu_0, # of connection points: 4
#     Node 5, Type 0, BuildingBlock: TATPOV_clean_sbu_0, # of connection points: 4
#     Node 6, Type 0, BuildingBlock: TATPOV_clean_sbu_0, # of connection points: 4
#     Node 7, Type 0, BuildingBlock: TATPOV_clean_sbu_0, # of connection points: 4
#     Node 8, Type 0, BuildingBlock: TATPOV_clean_sbu_0, # of connection points: 4
#     Node 9, Type 0, BuildingBlock: TATPOV_clean_sbu_0, # of connection points: 4
#     Node 10, Type 0, BuildingBlock: TATPOV_clean_sbu_0, # of connection points: 4
#     Node 11, Type 0, BuildingBlock: TATPOV_clean_sbu_0, # of connection points: 4
#     Node 12, Type 0, BuildingBlock: TATPOV_clean_sbu_0, # of connection points: 4
#     Node 13, Type 0, BuildingBlock: TATPOV_clean_sbu_0, # of connection points: 4
#     Node 14, Type 0, BuildingBlock: TATPOV_clean_sbu_0, # of connection points: 4
#     Node 15, Type 0, BuildingBlock: TATPOV_clean_sbu_0, # of connection points: 4
#     Edge 16, Type (0, 0), BuildingBlock: CIFDUS_clean_linker_0, # of connection points: 2
#     Edge 17, Type (0, 0), BuildingBlock: CIFDUS_clean_linker_0, # of connection points: 2
#     Edge 18, Type (0, 0), BuildingBlock: CIFDUS_clean_linker_0, # of connection points: 2
#     Edge 19, Type (0, 0), BuildingBlock: CIFDUS_clean_linker_0, # of connection points: 2
#     Edge 20, Type (0, 0), BuildingBlock: CIFDUS_clean_linker_0, # of connection points: 2
#     Edge 21, Type (0, 0), BuildingBlock: CIFDUS_clean_linker_0, # of connection points: 2
#     Edge 22, Type (0, 0), BuildingBlock: CIFDUS_clean_linker_0, # of connection points: 2
#     Edge 23, Type (0, 0), BuildingBlock: CIFDUS_clean_linker_0, # of connection points: 2
#     Edge 24, Type (0, 0), BuildingBlock: CIFDUS_clean_linker_0, # of connection points: 2
#     Edge 25, Type (0, 0), BuildingBlock: CIFDUS_clean_linker_0, # of connection points: 2
#     Edge 26, Type (0, 0), BuildingBlock: CIFDUS_clean_linker_0, # of connection points: 2
#     Edge 27, Type (0, 0), BuildingBlock: CIFDUS_clean_linker_0, # of connection points: 2
#     Edge 28, Type (0, 0), BuildingBlock: CIFDUS_clean_linker_0, # of connection points: 2
#     Edge 29, Type (0, 0), BuildingBlock: CIFDUS_clean_linker_0, # of connection points: 2
#     Edge 30, Type (0, 0), BuildingBlock: CIFDUS_clean_linker_0, # of connection points: 2
#     Edge 31, Type (0, 0), BuildingBlock: CIFDUS_clean_linker_0, # of connection points: 2
#     Edge 32, Type (0, 0), BuildingBlock: CIFDUS_clean_linker_0, # of connection points: 2
#     Edge 33, Type (0, 0), BuildingBlock: CIFDUS_clean_linker_0, # of connection points: 2
#     Edge 34, Type (0, 0), BuildingBlock: CIFDUS_clean_linker_0, # of connection points: 2
#     Edge 35, Type (0, 0), BuildingBlock: CIFDUS_clean_linker_0, # of connection points: 2
#     Edge 36, Type (0, 0), BuildingBlock: CIFDUS_clean_linker_0, # of connection points: 2
#     Edge 37, Type (0, 0), BuildingBlock: CIFDUS_clean_linker_0, # of connection points: 2
#     Edge 38, Type (0, 0), BuildingBlock: CIFDUS_clean_linker_0, # of connection points: 2
#     Edge 39, Type (0, 0), BuildingBlock: CIFDUS_clean_linker_0, # of connection points: 2
#     Edge 40, Type (0, 0), BuildingBlock: CIFDUS_clean_linker_0, # of connection points: 2
#     Edge 41, Type (0, 0), BuildingBlock: CIFDUS_clean_linker_0, # of connection points: 2
#     Edge 42, Type (0, 0), BuildingBlock: CIFDUS_clean_linker_0, # of connection points: 2
#     Edge 43, Type (0, 0), BuildingBlock: CIFDUS_clean_linker_0, # of connection points: 2
#     Edge 44, Type (0, 0), BuildingBlock: CIFDUS_clean_linker_0, # of connection points: 2
#     Edge 45, Type (0, 0), BuildingBlock: CIFDUS_clean_linker_0, # of connection points: 2
#     Edge 46, Type (0, 0), BuildingBlock: CIFDUS_clean_linker_0, # of connection points: 2
#     Edge 47, Type (0, 0), BuildingBlock: CIFDUS_clean_linker_0, # of connection points: 2
# Relax obj value: 0.104
# Max RMSD: 0.160
# Mean RMSD: 0.160
data_MOF--net-und--node1-TATPOV_clean_sbu_0--edge1-CIFDUS_clean_linker_0
_symmetry_space_group_name_H-M    P1
_symmetry_Int_Tables_number       1
_symmetry_cell_setting            triclinic
loop_
_symmetry_equiv_pos_as_xyz
'x, y, z'
_cell_length_a     53.294148
_cell_length_b     53.322083
_cell_length_c     18.10243
_cell_angle_alpha  90.039557
_cell_angle_beta   89.63218
_cell_angle_gamma 92.983596
loop_
_atom_site_label
_atom_site_type_symbol
_atom_site_fract_x
_atom_site_fract_y
_atom_site_fract_z
_atom_type_partial_charge
Zn0 Zn 0.28774 0.33999 0.00747 0.0
Zn1 Zn 0.23877 0.34372 -0.00158 0.0
O2 O 0.24881 0.32459 0.0914 0.0
O3 O 0.28957 0.32468 0.10759 0.0
O4 O 0.20319 0.35451 0.01988 0.0
O5 O 0.29609 0.37635 0.99035 0.0
O6 O 0.25621 0.37684 0.9606 0.0
C7 C 0.26758 0.3181 0.12872 0.0
C8 C 0.25995 0.30931 0.89182 0.0
O9 O 0.23964 0.31818 0.9157 0.0
O10 O 0.28097 0.31629 0.91993 0.0
C11 C 0.19249 0.35095 0.08249 0.0
O12 O 0.20308 0.33691 0.13165 0.0
C13 C 0.27801 0.38769 0.96376 0.0
Zn14 Zn 0.92157 0.97161 0.24079 0.0
Zn15 Zn 0.91068 0.01904 0.25656 0.0
O16 O 0.93667 0.01853 0.17279 0.0
O17 O 0.9471 0.97935 0.16143 0.0
O18 O 0.8979 0.05394 0.25133 0.0
O19 O 0.88589 0.95974 0.21951 0.0
O20 O 0.87764 0.99752 0.25762 0.0
C21 C 0.95014 0.0022 0.14328 0.0
C22 C 0.93696 0.99529 0.38082 0.0
O23 O 0.9292 0.01537 0.3528 0.0
O24 O 0.93415 0.97457 0.34653 0.0
C25 C 0.89358 0.06235 0.18714 0.0
O26 O 0.8991 0.04875 0.12931 0.0
C27 C 0.87013 0.97533 0.23967 0.0
Zn28 Zn 0.21444 0.67962 0.48502 0.0
Zn29 Zn 0.26228 0.66689 0.47973 0.0
O30 O 0.25953 0.69169 0.56559 0.0
O31 O 0.22061 0.70358 0.56824 0.0
O32 O 0.29672 0.65329 0.49086 0.0
O33 O 0.20191 0.6439 0.50183 0.0
O34 O 0.24053 0.63402 0.47603 0.0
C35 C 0.24284 0.70536 0.59238 0.0
C36 C 0.2429 0.69585 0.35264 0.0
O37 O 0.26159 0.6863 0.38352 0.0
O38 O 0.22127 0.69384 0.38246 0.0
C39 C 0.31221 0.66002 0.54122 0.0
O40 O 0.30742 0.67914 0.58381 0.0
C41 C 0.21766 0.62749 0.48913 0.0
Zn42 Zn 0.57485 0.04721 0.76887 0.0
Zn43 Zn 0.58527 -0.00044 0.76142 0.0
O44 O 0.5608 0.00768 0.67904 0.0
O45 O 0.55326 0.04781 0.67957 0.0
O46 O 0.59882 0.96736 0.7232 0.0
O47 O 0.61068 0.05968 0.76466 0.0
O48 O 0.61852 0.02 0.78083 0.0
C49 C 0.54948 0.0261 0.65266 0.0
C50 C 0.55505 0.01334 0.88986 0.0
O51 O 0.56443 0.99509 0.8555 0.0
O52 O 0.55825 0.03564 0.86564 0.0
C53 C 0.60005 0.94482 0.74506 0.0
O54 O 0.59006 0.93795 0.80889 0.0
C55 C 0.62609 0.04295 0.77623 0.0
Zn56 Zn 0.71198 0.68501 0.02932 0.0
Zn57 Zn 0.75963 0.67639 0.02316 0.0
O58 O 0.75278 0.70293 0.94363 0.0
O59 O 0.71238 0.70941 0.94659 0.0
O60 O 0.79427 0.66543 -0.00505 0.0
O61 O 0.70048 0.64947 0.01351 0.0
O62 O 0.74012 0.64178 0.03049 0.0
C63 C 0.73404 0.71449 0.92026 0.0
C64 C 0.74164 0.70208 0.15773 0.0
O65 O 0.76061 0.69462 0.12214 0.0
O66 O 0.71969 0.69864 0.13166 0.0
C67 C 0.79553 0.65805 0.92814 0.0
O68 O 0.77563 0.65967 0.88626 0.0
C69 C 0.71733 0.63397 0.02231 0.0
Zn70 Zn 0.08534 0.04554 0.76329 0.0
Zn71 Zn 0.08649 0.99535 0.75171 0.0
O72 O 0.07628 0.0045 0.85692 0.0
O73 O 0.07421 0.04532 0.86895 0.0
O74 O 0.09232 0.95841 0.76118 0.0
O75 O 0.12177 0.04923 0.73354 0.0
O76 O 0.11928 0.00918 0.70369 0.0
C77 C 0.07122 0.02349 0.89577 0.0
C78 C 0.04822 0.02043 0.66318 0.0
O79 O 0.05703 -0.00014 0.68418 0.0
O80 O 0.05777 0.04133 0.68587 0.0
C81 C 0.08198 0.94504 0.81222 0.0
O82 O 0.06422 0.95436 0.8529 0.0
C83 C 0.13131 0.03038 0.70421 0.0
Zn84 Zn 0.8029 0.34766 0.46787 0.0
Zn85 Zn 0.75272 0.35472 0.47478 0.0
O86 O 0.76037 0.33537 0.38095 0.0
O87 O 0.80089 0.33028 0.36964 0.0
O88 O 0.71678 0.3644 0.46301 0.0
O89 O 0.8105 0.38496 0.47548 0.0
O90 O 0.77028 0.38874 0.4983 0.0
C91 C 0.77873 0.32646 0.34618 0.0
C92 C 0.7735 0.32055 0.58608 0.0
O93 O 0.75428 0.33051 0.55974 0.0
O94 O 0.79524 0.3258 0.55931 0.0
C95 C 0.70222 0.3561 0.41214 0.0
O96 O 0.70951 0.33814 0.36866 0.0
C97 C 0.79253 0.39836 0.49327 0.0
Zn98 Zn 0.414 0.9521 0.28454 0.0
Zn99 Zn 0.40706 0.00176 0.27415 0.0
O100 O 0.42534 0.99671 0.37088 0.0
O101 O 0.4314 0.95639 0.3819 0.0
O102 O 0.39807 0.03792 0.28223 0.0
O103 O 0.37678 0.94425 0.27985 0.0
O104 O 0.37259 0.98414 0.25426 0.0
C105 C 0.4344 0.97861 0.40592 0.0
C106 C 0.44151 0.97859 0.1641 0.0
O107 O 0.43206 0.99828 0.19003 0.0
O108 O 0.4356 0.95716 0.19144 0.0
C109 C 0.38607 0.04852 0.23164 0.0
O110 O 0.38184 0.03645 0.16927 0.0
C111 C 0.36311 0.9619 0.26181 0.0
Zn112 Zn 0.79785 0.84859 0.54123 0.0
Zn113 Zn 0.74808 0.85235 0.53235 0.0
O114 O 0.75669 0.83751 0.63286 0.0
O115 O 0.7975 0.83542 0.64478 0.0
O116 O 0.71181 0.86104 0.54665 0.0
O117 O 0.80442 0.88509 0.51842 0.0
O118 O 0.76415 0.88568 0.49287 0.0
C119 C 0.77555 0.83124 0.67022 0.0
C120 C 0.7709 0.8153 0.43316 0.0
O121 O 0.75074 0.82463 0.4564 0.0
O122 O 0.79213 0.82309 0.45802 0.0
C123 C 0.69627 0.84861 0.58795 0.0
O124 O 0.70263 0.82705 0.61521 0.0
C125 C 0.78599 0.89644 0.49385 0.0
Zn126 Zn 0.41926 0.46081 0.71347 0.0
Zn127 Zn 0.40528 0.50806 0.72368 0.0
O128 O 0.43152 0.50715 0.6417 0.0
O129 O 0.44408 0.46868 0.63172 0.0
O130 O 0.39259 0.54218 0.70658 0.0
O131 O 0.38345 0.44778 0.69625 0.0
O132 O 0.37294 0.48588 0.72505 0.0
C133 C 0.4458 0.4915 0.61248 0.0
C134 C 0.43229 0.48803 0.85162 0.0
O135 O 0.42249 0.5069 0.82242 0.0
O136 O 0.43212 0.46713 0.81791 0.0
C137 C 0.39604 0.5628 0.74109 0.0
O138 O 0.40923 0.56368 0.80217 0.0
C139 C 0.36674 0.46302 0.71141 0.0
Zn140 Zn 0.70554 0.18665 0.98651 0.0
Zn141 Zn 0.75464 0.1771 0.98062 0.0
O142 O 0.74953 0.19997 0.06945 0.0
O143 O 0.70922 0.2064 0.07994 0.0
O144 O 0.79 0.16613 -0.00701 0.0
O145 O 0.69548 0.15 0.98912 0.0
O146 O 0.73529 0.14301 0.96913 0.0
C147 C 0.73152 0.21023 0.10219 0.0
C148 C 0.73463 0.20871 0.86087 0.0
O149 O 0.75352 0.19868 0.88902 0.0
O150 O 0.71295 0.20531 0.88981 0.0
C151 C 0.79616 0.15973 0.05784 0.0
O152 O 0.78003 0.16223 0.1122 0.0
C153 C 0.71256 0.13495 0.97682 0.0
Zn154 Zn 0.08424 0.54659 0.25499 0.0
Zn155 Zn 0.08839 0.49759 0.26076 0.0
O156 O 0.06846 0.50639 0.16877 0.0
O157 O 0.0667 0.54731 0.15832 0.0
O158 O 0.09671 0.46185 0.2382 0.0
O159 O 0.12114 0.55397 0.26193 0.0
O160 O 0.12334 0.51375 0.28621 0.0
C161 C 0.06088 0.52548 0.13487 0.0
C162 C 0.05617 0.51938 0.37539 0.0
O163 O 0.06444 0.49925 0.34846 0.0
O164 O 0.06274 0.54058 0.34747 0.0
C165 C 0.10597 0.44682 0.28374 0.0
O166 O 0.10825 0.45354 0.35332 0.0
C167 C 0.13377 0.53568 0.2808 0.0
Zn168 Zn 0.21087 0.16994 0.48224 0.0
Zn169 Zn 0.2598 0.16672 0.48936 0.0
O170 O 0.25116 0.18903 0.40148 0.0
O171 O 0.21024 0.18928 0.38803 0.0
O172 O 0.2953 0.15692 0.46687 0.0
O173 O 0.20312 0.1328 0.4849 0.0
O174 O 0.24297 0.13213 0.51399 0.0
C175 C 0.23211 0.19663 0.36759 0.0
C176 C 0.23775 0.19658 0.60679 0.0
O177 O 0.25815 0.18901 0.57941 0.0
O178 O 0.21674 0.19016 0.57765 0.0
C179 C 0.298 0.14877 0.40126 0.0
O180 O 0.27897 0.14954 0.3557 0.0
C181 C 0.22149 0.12088 0.50714 0.0
Zn182 Zn 0.57117 0.53804 0.22512 0.0
Zn183 Zn 0.58806 0.49297 0.22919 0.0
O184 O 0.5736 0.50207 0.3301 0.0
O185 O 0.56534 0.54193 0.33349 0.0
O186 O 0.6036 0.46071 0.2546 0.0
O187 O 0.60174 0.55148 0.17206 0.0
O188 O 0.61707 0.51395 0.17875 0.0
C189 C 0.56563 0.52081 0.36507 0.0
C190 C 0.54166 0.49979 0.14275 0.0
O191 O 0.55889 0.48506 0.15906 0.0
O192 O 0.5428 0.52227 0.1657 0.0
C193 C 0.60457 0.44066 0.21707 0.0
O194 O 0.59449 0.43942 0.15103 0.0
C195 C 0.61904 0.5368 0.15828 0.0
Zn196 Zn 0.28288 0.84039 0.97289 0.0
Zn197 Zn 0.23358 0.8499 0.96657 0.0
O198 O 0.24461 0.8351 0.86784 0.0
O199 O 0.28487 0.82806 0.86938 0.0
O200 O 0.19789 0.85897 0.94633 0.0
O201 O 0.29085 0.87636 -0.00113 0.0
O202 O 0.2504 0.88291 0.00561 0.0
C203 C 0.264 0.82691 0.83649 0.0
C204 C 0.24925 0.80985 0.07044 0.0
O205 O 0.23163 0.82229 0.04397 0.0
O206 O 0.27186 0.81465 0.05055 0.0
C207 C 0.18492 0.84864 0.89475 0.0
O208 O 0.19403 0.83014 0.85689 0.0
C209 C 0.27323 0.89068 0.01261 0.0
Zn210 Zn 0.91452 0.46964 0.78128 0.0
Zn211 Zn 0.91117 0.51902 0.7742 0.0
O212 O 0.93184 0.50988 0.86472 0.0
O213 O 0.9331 0.46894 0.8761 0.0
O214 O 0.90172 0.55508 0.79181 0.0
O215 O 0.8774 0.46249 0.77865 0.0
O216 O 0.87658 0.50232 0.74869 0.0
C217 C 0.93946 0.49078 0.89845 0.0
C218 C 0.94224 0.49646 0.65859 0.0
O219 O 0.93461 0.51677 0.68607 0.0
O220 O 0.93533 0.47535 0.68661 0.0
C221 C 0.90569 0.56664 0.85262 0.0
O222 O 0.9195 0.55643 0.90307 0.0
C223 C 0.86541 0.48083 0.75651 0.0
H224 H 0.22579 0.2882 0.15191 0.0
H225 H 0.30147 0.30309 0.2303 0.0
H226 H 0.29761 0.2655 0.30767 0.0
H227 H 0.27333 0.2278 0.34897 0.0
H228 H 0.19778 0.21287 0.2696 0.0
H229 H 0.20134 0.25095 0.19444 0.0
C230 C 0.24131 0.28355 0.18694 0.0
C231 C 0.26385 0.2985 0.1857 0.0
C232 C 0.23924 0.2616 0.22933 0.0
C233 C 0.28388 0.29195 0.23064 0.0
C234 C 0.28178 0.27035 0.27425 0.0
C235 C 0.25776 0.23265 0.31439 0.0
C236 C 0.2354 0.21741 0.31423 0.0
C237 C 0.25972 0.2548 0.27282 0.0
C238 C 0.21525 0.2242 0.27016 0.0
C239 C 0.21719 0.24606 0.22776 0.0
H240 H 0.96046 0.0367 0.44035 0.0
H241 H 0.95015 0.95639 0.46773 0.0
H242 H 0.98339 0.95722 0.55996 0.0
H243 H 0.01789 0.98017 0.6238 0.0
H244 H 0.02892 0.06032 0.59319 0.0
H245 H 0.99296 0.06004 0.51068 0.0
C246 C 0.96508 0.01945 0.46764 0.0
C247 C 0.95298 0.99651 0.44694 0.0
C248 C 0.98469 0.01994 0.51887 0.0
C249 C 0.9593 0.97429 0.48251 0.0
C250 C 0.97841 0.97472 0.53486 0.0
C251 C 0.01244 0.99758 0.59909 0.0
C252 C 0.02627 0.02015 0.61387 0.0
C253 C 0.99173 0.99732 0.55171 0.0
C254 C 0.01872 0.04262 0.5823 0.0
C255 C 0.9981 0.04252 0.53526 0.0
H256 H 0.2196 0.74871 0.61046 0.0
H257 H 0.28378 0.70922 0.68226 0.0
H258 H 0.29849 0.74577 0.75445 0.0
H259 H 0.29191 0.78789 0.8014 0.0
H260 H 0.22697 0.82686 0.73311 0.0
H261 H 0.21421 0.79176 0.65238 0.0
C262 C 0.23666 0.74798 0.64262 0.0
C263 C 0.25042 0.7262 0.64203 0.0
C264 C 0.24515 0.76913 0.68288 0.0
C265 C 0.27279 0.72573 0.68241 0.0
C266 C 0.28129 0.74666 0.72317 0.0
C267 C 0.27535 0.78905 0.76725 0.0
C268 C 0.26037 0.80991 0.77306 0.0
C269 C 0.26759 0.76842 0.72377 0.0
C270 C 0.23879 0.81098 0.72933 0.0
C271 C 0.23135 0.79082 0.68398 0.0
H272 H 0.4728 0.01906 0.13757 0.0
H273 H 0.45616 0.94273 0.06726 0.0
H274 H 0.49166 0.94574 0.98066 0.0
H275 H 0.5268 0.97067 0.92262 0.0
H276 H 0.54333 0.04676 -0.0041 0.0
H277 H 0.50891 0.04299 0.08501 0.0
C278 C 0.47677 0.00317 0.10273 0.0
C279 C 0.46167 0.98087 0.10785 0.0
C280 C 0.49747 0.00483 0.05457 0.0
C281 C 0.46741 0.96021 0.0637 0.0
C282 C 0.48778 0.96186 0.01455 0.0
C283 C 0.52317 0.9862 0.95922 0.0
C284 C 0.53756 0.00895 0.95261 0.0
C285 C 0.50298 0.98409 0.00957 0.0
C286 C 0.53247 0.02905 -0.00019 0.0
C287 C 0.51269 0.02699 0.05044 0.0
H288 H 0.28091 0.77483 0.11525 0.0
H289 H 0.20441 0.79692 0.13826 0.0
H290 H 0.19502 0.76152 0.2213 0.0
H291 H 0.20913 0.72589 0.2918 0.0
H292 H 0.28594 0.70447 0.27128 0.0
H293 H 0.29443 0.73784 0.18082 0.0
C294 C 0.26218 0.77199 0.13852 0.0
C295 C 0.24346 0.78868 0.12132 0.0
C296 C 0.2569 0.75161 0.18583 0.0
C297 C 0.2192 0.78446 0.15108 0.0
C298 C 0.2138 0.76419 0.19831 0.0
C299 C 0.22765 0.7282 0.26678 0.0
C300 C 0.24692 0.71276 0.28862 0.0
C301 C 0.23257 0.7478 0.21648 0.0
C302 C 0.27079 0.7161 0.25557 0.0
C303 C 0.2757 0.73529 0.20426 0.0
H304 H 0.45696 0.02379 0.4392 0.0
H305 H 0.45394 0.94559 0.50245 0.0
H306 H 0.49044 0.95336 0.58163 0.0
H307 H 0.52431 0.98178 0.62724 0.0
H308 H 0.5275 0.05993 0.5639 0.0
H309 H 0.49 0.05254 0.4882 0.0
C310 C 0.46395 0.00851 0.47137 0.0
C311 C 0.45276 0.98413 0.46497 0.0
C312 C 0.48532 0.01294 0.51491 0.0
C313 C 0.4622 0.96453 0.50656 0.0
C314 C 0.4832 0.9689 0.55121 0.0
C315 C 0.51703 0.99714 0.59607 0.0
C316 C 0.52883 0.02129 0.60018 0.0
C317 C 0.49523 0.99289 0.55431 0.0
C318 C 0.51885 0.04113 0.56088 0.0
C319 C 0.49733 0.03696 0.51819 0.0
H320 H 0.27782 0.22552 0.65458 0.0
H321 H 0.19858 0.20978 0.69368 0.0
H322 H 0.19813 0.24393 0.78338 0.0
H323 H 0.22001 0.27905 0.84843 0.0
H324 H 0.29921 0.29476 0.80828 0.0
H325 H 0.29976 0.2601 0.72067 0.0
C326 C 0.26053 0.22932 0.68347 0.0
C327 C 0.23831 0.21509 0.66756 0.0
C328 C 0.26027 0.24927 0.73398 0.0
C329 C 0.21598 0.22046 0.70491 0.0
C330 C 0.21565 0.24007 0.75596 0.0
C331 C 0.23731 0.27502 0.81995 0.0
C332 C 0.25947 0.28954 0.8346 0.0
C333 C 0.23761 0.25483 0.77018 0.0
C334 C 0.28185 0.28388 0.79798 0.0
C335 C 0.28224 0.264 0.74803 0.0
H336 H 0.03567 0.05347 0.94599 0.0
H337 H 0.06939 0.98308 0.98816 0.0
H338 H 0.03412 0.97006 0.06877 0.0
H339 H 0.99182 0.97688 0.11564 0.0
H340 H 0.95743 0.0467 0.06989 0.0
H341 H 0.99474 0.06155 0.00026 0.0
C342 C 0.03572 0.03562 0.9747 0.0
C343 C 0.05506 0.01922 0.96122 0.0
C344 C 0.01488 0.02781 0.01793 0.0
C345 C 0.0547 0.99601 -0.00205 0.0
C346 C 0.0344 0.98844 0.04313 0.0
C347 C 0.99238 0.99526 0.08986 0.0
C348 C 0.97173 0.01048 0.09654 0.0
C349 C 0.01397 0.00379 0.05103 0.0
C350 C 0.97298 0.03451 0.06454 0.0
C351 C 0.99437 0.04308 0.02534 0.0
H352 H 0.77781 0.7411 0.89153 0.0
H353 H 0.69868 0.7372 0.84007 0.0
H354 H 0.7041 0.77566 0.76761 0.0
H355 H 0.73131 0.8093 0.71619 0.0
H356 H 0.81076 0.81275 0.76253 0.0
H357 H 0.80496 0.77607 0.84294 0.0
C358 C 0.76181 0.74851 0.86373 0.0
C359 C 0.73794 0.73616 0.87033 0.0
C360 C 0.76499 0.77082 0.82298 0.0
C361 C 0.71729 0.74625 0.83528 0.0
C362 C 0.72033 0.76833 0.79437 0.0
C363 C 0.74735 0.80237 0.74465 0.0
C364 C 0.77145 0.81367 0.73272 0.0
C365 C 0.74407 0.78074 0.78796 0.0
C366 C 0.79198 0.80441 0.77065 0.0
C367 C 0.78873 0.78326 0.8159 0.0
H368 H 0.73487 0.30025 0.32444 0.0
H369 H 0.81133 0.30813 0.24433 0.0
H370 H 0.80386 0.27122 0.16541 0.0
H371 H 0.77576 0.23645 0.12188 0.0
H372 H 0.69933 0.2291 0.20289 0.0
H373 H 0.70689 0.26609 0.28082 0.0
C374 C 0.74978 0.29437 0.28846 0.0
C375 C 0.7735 0.30717 0.28932 0.0
C376 C 0.74554 0.27292 0.24513 0.0
C377 C 0.79281 0.29873 0.24396 0.0
C378 C 0.78862 0.27753 0.19949 0.0
C379 C 0.76087 0.2427 0.15748 0.0
C380 C 0.73707 0.23 0.1572 0.0
C381 C 0.76516 0.26429 0.20057 0.0
C382 C 0.71784 0.23853 0.20259 0.0
C383 C 0.72208 0.25975 0.24658 0.0
H384 H 0.77829 0.2329 0.81777 0.0
H385 H 0.69884 0.22679 0.77125 0.0
H386 H 0.70376 0.26173 0.68447 0.0
H387 H 0.73031 0.29474 0.62494 0.0
H388 H 0.80973 0.30106 0.67167 0.0
H389 H 0.80501 0.26551 0.75647 0.0
C390 C 0.76212 0.23893 0.78776 0.0
C391 C 0.73826 0.22722 0.80072 0.0
C392 C 0.76497 0.25936 0.73918 0.0
C393 C 0.71743 0.23548 0.76213 0.0
C394 C 0.72019 0.25555 0.71287 0.0
C395 C 0.74655 0.28853 0.65425 0.0
C396 C 0.77029 0.30065 0.64247 0.0
C397 C 0.74379 0.26787 0.70191 0.0
C398 C 0.79122 0.29212 0.68004 0.0
C399 C 0.78857 0.27171 0.72821 0.0
H400 H 0.78355 0.72981 0.19745 0.0
H401 H 0.70661 0.71195 0.26221 0.0
H402 H 0.7088 0.74573 0.35319 0.0
H403 H 0.73145 0.7824 0.40736 0.0
H404 H 0.80833 0.80047 0.34253 0.0
H405 H 0.80717 0.76476 0.25787 0.0
C406 C 0.76748 0.73292 0.23271 0.0
C407 C 0.74495 0.71847 0.22297 0.0
C408 C 0.76864 0.7528 0.28362 0.0
C409 C 0.72417 0.72289 0.26856 0.0
C410 C 0.72533 0.74232 0.32019 0.0
C411 C 0.74789 0.77858 0.37437 0.0
C412 C 0.7698 0.79422 0.38033 0.0
C413 C 0.74722 0.75784 0.32664 0.0
C414 C 0.79115 0.78877 0.33846 0.0
C415 C 0.79055 0.76831 0.29029 0.0
H416 H 0.50071 0.52553 0.11225 0.0
H417 H 0.53468 0.45523 0.0678 0.0
H418 H 0.50114 0.44382 0.98041 0.0
H419 H 0.46509 0.45598 0.90777 0.0
H420 H 0.43296 0.52752 0.94778 0.0
H421 H 0.46285 0.53613 0.04733 0.0
C422 C 0.50078 0.50761 0.08387 0.0
C423 C 0.5204 0.49142 0.09548 0.0
C424 C 0.48181 0.50144 0.03312 0.0
C425 C 0.51991 0.46812 0.05923 0.0
C426 C 0.50077 0.46161 0.0093 0.0
C427 C 0.46429 0.47327 0.93911 0.0
C428 C 0.447 0.49123 0.91994 0.0
C429 C 0.48201 0.47843 -0.00546 0.0
C430 C 0.44621 0.5135 0.96111 0.0
C431 C 0.46335 0.51847 0.01778 0.0
H432 H 0.02534 0.4795 0.4167 0.0
H433 H 0.0434 0.55759 0.46543 0.0
H434 H 0.00873 0.55785 0.55386 0.0
H435 H 0.97303 0.53612 0.61662 0.0
H436 H 0.95489 0.458 0.56861 0.0
H437 H 0.98952 0.45769 0.47979 0.0
C438 C 0.02188 0.49646 0.44741 0.0
C439 C 0.03699 0.51843 0.43473 0.0
C440 C 0.00163 0.49663 0.49741 0.0
C441 C 0.03206 0.54039 0.47421 0.0
C442 C 0.01215 0.54062 0.52456 0.0
C443 C 0.97644 0.51913 0.58603 0.0
C444 C 0.96133 0.49718 0.59896 0.0
C445 C 0.99666 0.51893 0.53604 0.0
C446 C 0.96623 0.47519 0.55959 0.0
C447 C 0.98611 0.47494 0.50905 0.0
H448 H 0.03086 0.48387 0.11261 0.0
H449 H 0.04543 0.55988 0.0355 0.0
H450 H 0.00753 0.55642 0.96001 0.0
H451 H 0.96994 0.53223 0.91905 0.0
H452 H 0.9553 0.45629 -0.00321 0.0
H453 H 0.99337 0.45965 0.07142 0.0
C454 C 0.02604 0.49954 0.07824 0.0
C455 C 0.04101 0.52204 0.07912 0.0
C456 C 0.00392 0.49769 0.037 0.0
C457 C 0.03427 0.54231 0.03527 0.0
C458 C 0.0125 0.54043 -0.00722 0.0
C459 C 0.9748 0.51654 0.95333 0.0
C460 C 0.95972 0.49411 0.953 0.0
C461 C 0.99699 0.51837 -0.00567 0.0
C462 C 0.96653 0.47382 -0.00336 0.0
C463 C 0.9884 0.47564 0.03866 0.0
H464 H 0.48979 0.46962 0.58775 0.0
H465 H 0.44932 0.53525 0.53477 0.0
H466 H 0.48551 0.55265 0.46492 0.0
H467 H 0.52731 0.54789 0.41267 0.0
H468 H 0.5673 0.48159 0.46139 0.0
H469 H 0.53299 0.4663 0.54249 0.0
C470 C 0.4888 0.4876 0.56023 0.0
C471 C 0.46676 0.5009 0.565 0.0
C472 C 0.50978 0.49765 0.52124 0.0
C473 C 0.46597 0.5245 0.53087 0.0
C474 C 0.48672 0.53455 0.49156 0.0
C475 C 0.52892 0.53046 0.44277 0.0
C476 C 0.54978 0.51585 0.43094 0.0
C477 C 0.50864 0.52123 0.4861 0.0
C478 C 0.55143 0.49319 0.46981 0.0
C479 C 0.53167 0.48428 0.51524 0.0
H480 H 0.11504 0.43405 0.14059 0.0
H481 H 0.12427 0.40865 0.36472 0.0
H482 H 0.14933 0.37457 0.32042 0.0
H483 H 0.17233 0.35497 0.22001 0.0
H484 H 0.16535 0.38198 -0.00333 0.0
H485 H 0.1354 0.41221 0.0387 0.0
C486 C 0.12217 0.42083 0.17977 0.0
C487 C 0.11793 0.42407 0.25606 0.0
C488 C 0.13713 0.40166 0.15406 0.0
C489 C 0.12738 0.40675 0.30584 0.0
C490 C 0.14176 0.38726 0.28053 0.0
C491 C 0.16398 0.36717 0.18014 0.0
C492 C 0.1713 0.36631 0.10527 0.0
C493 C 0.14733 0.38498 0.20501 0.0
C494 C 0.1602 0.38229 0.05463 0.0
C495 C 0.14312 0.39966 0.0787 0.0
H496 H 0.78679 0.89972 0.34741 0.0
H497 H 0.7994 0.94306 0.5456 0.0
H498 H 0.82142 0.97653 0.47403 0.0
H499 H 0.84535 0.98788 0.36234 0.0
H500 H 0.83975 0.93991 0.17078 0.0
H501 H 0.80614 0.91418 0.23069 0.0
C502 C 0.7935 0.91702 0.37401 0.0
C503 C 0.79143 0.91931 0.45097 0.0
C504 C 0.80772 0.93511 0.33339 0.0
C505 C 0.80066 0.94127 0.48609 0.0
C506 C 0.81341 0.96021 0.44525 0.0
C507 C 0.83602 0.97241 0.33263 0.0
C508 C 0.84494 0.96565 0.26252 0.0
C509 C 0.81829 0.95661 0.36974 0.0
C510 C 0.8331 0.94535 0.22485 0.0
C511 C 0.8141 0.93054 0.25942 0.0
H512 H 0.33945 0.66049 0.66807 0.0
H513 H 0.32951 0.62128 0.46057 0.0
H514 H 0.35644 0.58871 0.50299 0.0
H515 H 0.3788 0.56918 0.60295 0.0
H516 H 0.38807 0.6072 0.81229 0.0
H517 H 0.36545 0.64261 0.76489 0.0
C518 C 0.34355 0.64508 0.63156 0.0
C519 C 0.33223 0.64317 0.56152 0.0
C520 C 0.35861 0.62606 0.65698 0.0
C521 C 0.3378 0.62309 0.51493 0.0
C522 C 0.35311 0.6044 0.53925 0.0
C523 C 0.37601 0.58526 0.63827 0.0
C524 C 0.38469 0.58538 0.71149 0.0
C525 C 0.36291 0.60531 0.61093 0.0
C526 C 0.38139 0.60658 0.75591 0.0
C527 C 0.36843 0.62678 0.72885 0.0
H528 H 0.71689 0.11459 0.84334 0.0
H529 H 0.68942 0.09924 0.06368 0.0
H530 H 0.66443 0.06255 0.01892 0.0
H531 H 0.64286 0.04225 0.914 0.0
H532 H 0.66406 0.06375 0.69224 0.0
H533 H 0.69945 0.09013 0.73927 0.0
C534 C 0.70623 0.10246 0.88164 0.0
C535 C 0.70494 0.10918 0.9564 0.0
C536 C 0.69048 0.08277 0.85447 0.0
C537 C 0.69068 0.09404 0.00595 0.0
C538 C 0.67627 0.07329 0.98019 0.0
C539 C 0.65599 0.05191 0.87624 0.0
C540 C 0.65132 0.05109 0.80017 0.0
C541 C 0.67488 0.06846 0.90407 0.0
C542 C 0.66772 0.06406 0.75105 0.0
C543 C 0.68771 0.07929 0.77803 0.0
H544 H 0.14285 0.53868 0.42422 0.0
H545 H 0.17794 0.54815 0.21064 0.0
H546 H 0.21287 0.57318 0.26579 0.0
H547 H 0.22678 0.60074 0.36772 0.0
H548 H 0.18607 0.59794 0.57411 0.0
H549 H 0.1603 0.56163 0.53066 0.0
C550 C 0.15882 0.5453 0.39072 0.0
C551 C 0.15826 0.54153 0.3141 0.0
C552 C 0.17749 0.56136 0.42185 0.0
C553 C 0.1784 0.55066 0.27003 0.0
C554 C 0.19812 0.56521 0.30148 0.0
C555 C 0.21293 0.59144 0.40401 0.0
C556 C 0.20817 0.60174 0.47377 0.0
C557 C 0.19698 0.57196 0.37638 0.0
C558 C 0.18992 0.59012 0.52021 0.0
C559 C 0.17512 0.56954 0.49512 0.0
H560 H 0.61114 0.8963 0.77707 0.0
H561 H 0.62306 0.95448 0.6127 0.0
H562 H 0.65182 0.92874 0.54565 0.0
H563 H 0.6767 0.89159 0.53922 0.0
H564 H 0.66545 0.83313 0.70261 0.0
H565 H 0.63313 0.85684 0.76322 0.0
C566 C 0.6198 0.90322 0.72616 0.0
C567 C 0.61515 0.9275 0.70088 0.0
C568 C 0.63656 0.88829 0.68751 0.0
C569 C 0.62642 0.93602 0.63427 0.0
C570 C 0.64294 0.9213 0.59562 0.0
C571 C 0.66695 0.88383 0.58748 0.0
C572 C 0.67375 0.86075 0.61669 0.0
C573 C 0.64861 0.89768 0.62263 0.0
C574 C 0.66069 0.8509 0.6789 0.0
C575 C 0.64227 0.86453 0.71396 0.0
H576 H 0.33972 0.477 0.8283 0.0
H577 H 0.33859 0.42531 0.64501 0.0
H578 H 0.30401 0.40037 0.70311 0.0
H579 H 0.28198 0.38823 0.81782 0.0
H580 H 0.29004 0.43537 0.01018 0.0
H581 H 0.31357 0.46754 0.93727 0.0
C582 C 0.3312 0.46082 0.79984 0.0
C583 C 0.34155 0.45288 0.73268 0.0
C584 C 0.31282 0.4456 0.83629 0.0
C585 C 0.3308 0.43167 0.69677 0.0
C586 C 0.31122 0.41735 0.73029 0.0
C587 C 0.28804 0.40607 0.8426 0.0
C588 C 0.28419 0.40984 0.91843 0.0
C589 C 0.30317 0.42336 0.80183 0.0
C590 C 0.29261 0.43246 0.95143 0.0
C591 C 0.30625 0.45063 0.90992 0.0
H592 H 0.81525 0.14623 0.18967 0.0
H593 H 0.82871 0.14229 0.9546 0.0
H594 H 0.86237 0.11376 0.9752 0.0
H595 H 0.88431 0.08618 0.05861 0.0
H596 H 0.87012 0.08936 0.29344 0.0
H597 H 0.84061 0.12224 0.27423 0.0
C598 C 0.82576 0.13941 0.14293 0.0
C599 C 0.81919 0.14605 0.07062 0.0
C600 C 0.84482 0.12274 0.15509 0.0
C601 C 0.83325 0.13734 0.0108 0.0
C602 C 0.85244 0.12094 0.02251 0.0
C603 C 0.87502 0.09428 0.10575 0.0
C604 C 0.8791 0.08503 0.17723 0.0
C605 C 0.85781 0.11291 0.09422 0.0
C606 C 0.8672 0.096 0.23778 0.0
C607 C 0.85023 0.11474 0.22681 0.0
H608 H 0.83749 0.64524 0.00311 0.0
H609 H 0.80302 0.64155 0.78789 0.0
H610 H 0.83582 0.61527 0.74284 0.0
H611 H 0.87161 0.58962 0.76775 0.0
H612 H 0.90596 0.59253 0.98309 0.0
H613 H 0.87627 0.62304 0.02403 0.0
C614 C 0.83736 0.63899 0.94609 0.0
C615 C 0.81756 0.6451 0.89943 0.0
C616 C 0.85624 0.62358 0.9204 0.0
C617 C 0.81783 0.63694 0.82548 0.0
C618 C 0.8366 0.62186 0.79948 0.0
C619 C 0.87291 0.59722 0.82326 0.0
C620 C 0.89081 0.58847 0.87243 0.0
C621 C 0.8555 0.61449 0.84697 0.0
C622 C 0.89227 0.59873 0.94405 0.0
C623 C 0.8752 0.61614 0.96775 0.0
H624 H 0.19238 0.08157 0.45611 0.0
H625 H 0.23794 0.10654 0.64045 0.0
H626 H 0.2164 0.07534 0.72015 0.0
H627 H 0.17741 0.04935 0.74251 0.0
H628 H 0.13301 0.02296 0.55751 0.0
H629 H 0.16163 0.04577 0.4722 0.0
C630 C 0.19829 0.07932 0.51287 0.0
C631 C 0.2162 0.09651 0.5431 0.0
C632 C 0.18576 0.0614 0.55838 0.0
C633 C 0.22406 0.09347 0.6163 0.0
C634 C 0.21155 0.07583 0.66213 0.0
C635 C 0.1748 0.0477 0.68327 0.0
C636 C 0.15317 0.03496 0.65586 0.0
C637 C 0.19129 0.0609 0.63475 0.0
C638 C 0.14971 0.03272 0.57933 0.0
C639 C 0.16588 0.04599 0.53068 0.0
H640 H 0.67482 0.35239 0.28591 0.0
H641 H 0.67973 0.39148 0.49478 0.0
H642 H 0.6479 0.41966 0.45454 0.0
H643 H 0.62242 0.43603 0.35578 0.0
H644 H 0.61855 0.39832 0.14474 0.0
H645 H 0.64614 0.36659 0.19048 0.0
C646 C 0.66861 0.36678 0.3232 0.0
C647 C 0.67986 0.37001 0.39297 0.0
C648 C 0.65074 0.38334 0.299 0.0
C649 C 0.67155 0.38872 0.44057 0.0
C650 C 0.65341 0.40491 0.41751 0.0
C651 C 0.62742 0.42077 0.3198 0.0
C652 C 0.61876 0.41978 0.24652 0.0
C653 C 0.64351 0.40288 0.34605 0.0
C654 C 0.6251 0.39964 0.20118 0.0
C655 C 0.64092 0.38153 0.22727 0.0
H656 H 0.34289 0.97542 0.13351 0.0
H657 H 0.32724 0.93262 0.33173 0.0
H658 H 0.29081 0.9113 0.27315 0.0
H659 H 0.27105 0.89753 0.1575 0.0
H660 H 0.29248 0.93447 0.95377 0.0
H661 H 0.31842 0.9659 0.02158 0.0
C662 C 0.33082 0.96216 0.16452 0.0
C663 C 0.33753 0.95543 0.23641 0.0
C664 C 0.31114 0.9487 0.1286 0.0
C665 C 0.32225 0.93794 0.27618 0.0
C666 C 0.30158 0.92567 0.24252 0.0
C667 C 0.28049 0.91323 0.12874 0.0
C668 C 0.27983 0.9141 0.05142 0.0
C669 C 0.29686 0.92981 0.16749 0.0
C670 C 0.29258 0.93387 0.0136 0.0
C671 C 0.30764 0.95156 0.05231 0.0
H672 H 0.77997 0.41418 0.62762 0.0
H673 H 0.82002 0.43699 0.42944 0.0
H674 H 0.84105 0.4721 0.49567 0.0
H675 H 0.85584 0.48837 0.61472 0.0
H676 H 0.82285 0.45851 0.81594 0.0
H677 H 0.79065 0.43473 0.74508 0.0
C678 C 0.79253 0.42755 0.59858 0.0
C679 C 0.79856 0.4233 0.52422 0.0
C680 C 0.80604 0.44621 0.63849 0.0
C681 C 0.8152 0.44016 0.48682 0.0
C682 C 0.82731 0.46004 0.52483 0.0
C683 C 0.84083 0.47756 0.64282 0.0
C684 C 0.84139 0.47514 0.71994 0.0
C685 C 0.82405 0.4622 0.60153 0.0
C686 C 0.82245 0.46066 0.75645 0.0
C687 C 0.80431 0.44687 0.71587 0.0
H688 H 0.31047 0.13426 0.26318 0.0
H689 H 0.33535 0.13189 0.48932 0.0
H690 H 0.36733 0.10269 0.45441 0.0
H691 H 0.38439 0.07386 0.36263 0.0
H692 H 0.35807 0.07544 0.1376 0.0
H693 H 0.33068 0.10913 0.16912 0.0
C694 C 0.3231 0.12765 0.30479 0.0
C695 C 0.32026 0.13496 0.37898 0.0
C696 C 0.34106 0.11054 0.2846 0.0
C697 C 0.33704 0.12649 0.43189 0.0
C698 C 0.35525 0.10967 0.412 0.0
C699 C 0.37299 0.08185 0.32012 0.0
C700 C 0.37304 0.07182 0.24801 0.0
C701 C 0.35686 0.10095 0.33895 0.0
C702 C 0.35826 0.08257 0.19364 0.0
C703 C 0.34251 0.10182 0.21166 0.0
H704 H 0.66857 0.54416 0.19207 0.0
H705 H 0.61466 0.551 0.01785 0.0
H706 H 0.64455 0.57786 0.94763 0.0
H707 H 0.68131 0.60694 0.95096 0.0
H708 H 0.73455 0.6029 0.12791 0.0
H709 H 0.71029 0.56693 0.1809 0.0
C710 C 0.66391 0.55082 0.1375 0.0
C711 C 0.63959 0.54602 0.10997 0.0
C712 C 0.68095 0.56702 0.09856 0.0
C713 C 0.63337 0.55474 0.03972 0.0
C714 C 0.65037 0.57015 -0.00018 0.0
C715 C 0.68806 0.59749 -0.00051 0.0
C716 C 0.70925 0.60764 0.0364 0.0
C717 C 0.67357 0.57758 0.03079 0.0
C718 C 0.71816 0.59531 0.09875 0.0
C719 C 0.7041 0.57497 0.12958 0.0
H720 H 0.14993 0.87138 0.97686 0.0
H721 H 0.16993 0.85311 0.75275 0.0
H722 H 0.13747 0.87955 0.70606 0.0
H723 H 0.10727 0.91215 0.72931 0.0
H724 H 0.08559 0.92856 0.95345 0.0
H725 H 0.1144 0.89821 -0.00019 0.0
C726 C 0.1468 0.87287 0.91791 0.0
C727 C 0.16243 0.8607 0.86824 0.0
C728 C 0.12789 0.88783 0.89148 0.0
C729 C 0.15808 0.86238 0.79199 0.0
C730 C 0.13963 0.8776 0.76524 0.0
C731 C 0.10847 0.9086 0.78816 0.0
C732 C 0.09463 0.92274 0.8379 0.0
C733 C 0.12498 0.89103 0.81446 0.0
C734 C 0.09606 0.91786 0.91401 0.0
C735 C 0.11269 0.90067 0.94065 0.0
loop_
_geom_bond_atom_site_label_1
_geom_bond_atom_site_label_2
_geom_bond_distance
_geom_bond_site_symmetry_2
_ccdc_geom_bond_type
Zn0 O3 2.031 1_556 S
Zn0 O5 2.049 . S
Zn0 O10 2.067 . S
Zn1 O2 1.962 . S
Zn1 O4 1.986 . S
Zn1 O6 1.996 . S
Zn1 O9 1.943 1_554 S
O2 Zn1 1.962 . S
O2 C7 1.254 . S
O3 Zn0 2.031 1_554 S
O3 C7 1.269 . S
O4 Zn1 1.986 . S
O4 C11 1.262 . S
O5 Zn0 2.049 . S
O5 C13 1.260 . S
O6 Zn1 1.996 . S
O6 C13 1.257 1_554 S
C7 O2 1.254 . S
C7 O3 1.269 . S
C8 O9 1.249 . S
C8 O10 1.270 . S
O9 Zn1 1.943 1_556 S
O9 C8 1.249 . S
O10 Zn0 2.067 . S
O10 C8 1.270 . S
C11 O4 1.262 . S
C11 O12 1.232 . S
O12 C11 1.232 . S
C13 O5 1.260 . S
C13 O6 1.257 1_556 S
Zn14 O17 2.031 . S
Zn14 O19 2.049 . S
Zn14 O24 2.067 . S
Zn15 O16 1.962 . S
Zn15 O18 1.986 . S
Zn15 O20 1.996 1_545 S
Zn15 O23 1.943 . S
O16 Zn15 1.962 . S
O16 C21 1.255 . S
O17 Zn14 2.031 . S
O17 C21 1.269 1_565 S
O18 Zn15 1.986 . S
O18 C25 1.262 . S
O19 Zn14 2.049 . S
O19 C27 1.260 . S
O20 Zn15 1.996 1_565 S
O20 C27 1.257 . S
C21 O16 1.255 . S
C21 O17 1.269 1_545 S
C22 O23 1.249 . S
C22 O24 1.270 1_545 S
O23 Zn15 1.943 . S
O23 C22 1.249 . S
O24 Zn14 2.067 . S
O24 C22 1.270 1_565 S
C25 O18 1.262 . S
C25 O26 1.232 . S
O26 C25 1.232 . S
C27 O19 1.260 . S
C27 O20 1.257 . S
Zn28 O31 2.031 . S
Zn28 O33 2.049 . S
Zn28 O38 2.067 . S
Zn29 O30 1.962 . S
Zn29 O32 1.986 . S
Zn29 O34 1.996 . S
Zn29 O37 1.943 . S
O30 Zn29 1.962 . S
O30 C35 1.254 . S
O31 Zn28 2.031 . S
O31 C35 1.269 . S
O32 Zn29 1.986 . S
O32 C39 1.262 . S
O33 Zn28 2.049 . S
O33 C41 1.260 . S
O34 Zn29 1.996 . S
O34 C41 1.257 . S
C35 O30 1.254 . S
C35 O31 1.269 . S
C36 O37 1.249 . S
C36 O38 1.270 . S
O37 Zn29 1.943 . S
O37 C36 1.249 . S
O38 Zn28 2.067 . S
O38 C36 1.270 . S
C39 O32 1.262 . S
C39 O40 1.232 . S
O40 C39 1.232 . S
C41 O33 1.260 . S
C41 O34 1.257 . S
Zn42 O45 2.031 . S
Zn42 O47 2.049 . S
Zn42 O52 2.067 . S
Zn43 O44 1.968 . S
Zn43 O46 1.969 1_545 S
Zn43 O48 2.026 . S
Zn43 O51 1.937 1_545 S
O44 Zn43 1.968 . S
O44 C49 1.254 . S
O45 Zn42 2.031 . S
O45 C49 1.269 . S
O46 Zn43 1.969 1_565 S
O46 C53 1.262 . S
O47 Zn42 2.049 . S
O47 C55 1.260 . S
O48 Zn43 2.026 . S
O48 C55 1.257 . S
C49 O44 1.254 . S
C49 O45 1.269 . S
C50 O51 1.249 1_545 S
C50 O52 1.270 . S
O51 Zn43 1.937 1_565 S
O51 C50 1.249 1_565 S
O52 Zn42 2.067 . S
O52 C50 1.270 . S
C53 O46 1.262 . S
C53 O54 1.232 . S
O54 C53 1.232 . S
C55 O47 1.260 . S
C55 O48 1.257 . S
Zn56 O59 2.031 1_554 S
Zn56 O61 2.049 . S
Zn56 O66 2.067 . S
Zn57 O58 1.962 . S
Zn57 O60 1.986 . S
Zn57 O62 1.996 1_556 S
Zn57 O65 1.943 1_556 S
O58 Zn57 1.962 . S
O58 C63 1.254 . S
O59 Zn56 2.031 1_556 S
O59 C63 1.269 . S
O60 Zn57 1.986 . S
O60 C67 1.262 . S
O61 Zn56 2.049 . S
O61 C69 1.260 . S
O62 Zn57 1.996 1_554 S
O62 C69 1.257 . S
C63 O58 1.254 . S
C63 O59 1.269 . S
C64 O65 1.249 . S
C64 O66 1.270 . S
O65 Zn57 1.943 1_554 S
O65 C64 1.249 . S
O66 Zn56 2.067 . S
O66 C64 1.270 . S
C67 O60 1.262 . S
C67 O68 1.232 . S
O68 C67 1.232 . S
C69 O61 1.260 . S
C69 O62 1.257 . S
Zn70 O73 2.031 . S
Zn70 O75 2.049 . S
Zn70 O80 2.067 . S
Zn71 O72 1.968 . S
Zn71 O74 1.969 1_545 S
Zn71 O76 2.026 . S
Zn71 O79 1.937 1_545 S
O72 Zn71 1.968 . S
O72 C77 1.254 . S
O73 Zn70 2.031 . S
O73 C77 1.269 . S
O74 Zn71 1.969 1_565 S
O74 C81 1.262 . S
O75 Zn70 2.049 . S
O75 C83 1.260 . S
O76 Zn71 2.026 . S
O76 C83 1.257 . S
C77 O72 1.254 . S
C77 O73 1.269 . S
C78 O79 1.249 1_545 S
C78 O80 1.270 . S
O79 Zn71 1.937 1_565 S
O79 C78 1.249 1_565 S
O80 Zn70 2.067 . S
O80 C78 1.270 . S
C81 O74 1.262 . S
C81 O82 1.232 . S
O82 C81 1.232 . S
C83 O75 1.260 . S
C83 O76 1.257 . S
Zn84 O87 2.031 . S
Zn84 O89 2.049 . S
Zn84 O94 2.067 . S
Zn85 O86 1.962 . S
Zn85 O88 1.986 . S
Zn85 O90 1.996 . S
Zn85 O93 1.943 . S
O86 Zn85 1.962 . S
O86 C91 1.254 . S
O87 Zn84 2.031 . S
O87 C91 1.269 . S
O88 Zn85 1.986 . S
O88 C95 1.262 . S
O89 Zn84 2.049 . S
O89 C97 1.260 . S
O90 Zn85 1.996 . S
O90 C97 1.257 . S
C91 O86 1.254 . S
C91 O87 1.269 . S
C92 O93 1.249 . S
C92 O94 1.270 . S
O93 Zn85 1.943 . S
O93 C92 1.249 . S
O94 Zn84 2.067 . S
O94 C92 1.270 . S
C95 O88 1.262 . S
C95 O96 1.232 . S
O96 C95 1.232 . S
C97 O89 1.260 . S
C97 O90 1.257 . S
Zn98 O101 2.031 . S
Zn98 O103 2.049 . S
Zn98 O108 2.067 . S
Zn99 O100 1.962 . S
Zn99 O102 1.986 . S
Zn99 O104 1.996 1_545 S
Zn99 O107 1.943 . S
O100 Zn99 1.962 . S
O100 C105 1.255 . S
O101 Zn98 2.031 . S
O101 C105 1.269 1_565 S
O102 Zn99 1.986 . S
O102 C109 1.262 . S
O103 Zn98 2.049 . S
O103 C111 1.260 . S
O104 Zn99 1.996 1_565 S
O104 C111 1.257 . S
C105 O100 1.255 . S
C105 O101 1.269 1_545 S
C106 O107 1.249 . S
C106 O108 1.270 1_545 S
O107 Zn99 1.943 . S
O107 C106 1.249 . S
O108 Zn98 2.067 . S
O108 C106 1.270 1_565 S
C109 O102 1.262 . S
C109 O110 1.232 . S
O110 C109 1.232 . S
C111 O103 1.260 . S
C111 O104 1.257 . S
Zn112 O115 2.031 . S
Zn112 O117 2.049 . S
Zn112 O122 2.067 . S
Zn113 O114 1.962 . S
Zn113 O116 1.986 . S
Zn113 O118 1.996 . S
Zn113 O121 1.943 . S
O114 Zn113 1.962 . S
O114 C119 1.254 . S
O115 Zn112 2.031 . S
O115 C119 1.269 . S
O116 Zn113 1.986 . S
O116 C123 1.262 . S
O117 Zn112 2.049 . S
O117 C125 1.260 . S
O118 Zn113 1.996 . S
O118 C125 1.257 . S
C119 O114 1.254 . S
C119 O115 1.269 . S
C120 O121 1.249 . S
C120 O122 1.270 . S
O121 Zn113 1.943 . S
O121 C120 1.249 . S
O122 Zn112 2.067 . S
O122 C120 1.270 . S
C123 O116 1.262 . S
C123 O124 1.232 . S
O124 C123 1.232 . S
C125 O117 1.260 . S
C125 O118 1.257 . S
Zn126 O129 2.031 . S
Zn126 O131 2.049 . S
Zn126 O136 2.067 . S
Zn127 O128 1.962 . S
Zn127 O130 1.986 . S
Zn127 O132 1.996 . S
Zn127 O135 1.943 . S
O128 Zn127 1.962 . S
O128 C133 1.254 . S
O129 Zn126 2.031 . S
O129 C133 1.269 . S
O130 Zn127 1.986 . S
O130 C137 1.262 . S
O131 Zn126 2.049 . S
O131 C139 1.260 . S
O132 Zn127 1.996 . S
O132 C139 1.257 . S
C133 O128 1.254 . S
C133 O129 1.269 . S
C134 O135 1.249 . S
C134 O136 1.270 . S
O135 Zn127 1.943 . S
O135 C134 1.249 . S
O136 Zn126 2.067 . S
O136 C134 1.270 . S
C137 O130 1.262 . S
C137 O138 1.232 . S
O138 C137 1.232 . S
C139 O131 1.260 . S
C139 O132 1.257 . S
Zn140 O143 2.031 1_556 S
Zn140 O145 2.049 . S
Zn140 O150 2.067 . S
Zn141 O142 1.962 . S
Zn141 O144 1.986 . S
Zn141 O146 1.996 . S
Zn141 O149 1.943 1_554 S
O142 Zn141 1.962 . S
O142 C147 1.254 . S
O143 Zn140 2.031 1_554 S
O143 C147 1.269 . S
O144 Zn141 1.986 . S
O144 C151 1.262 . S
O145 Zn140 2.049 . S
O145 C153 1.260 . S
O146 Zn141 1.996 . S
O146 C153 1.257 1_554 S
C147 O142 1.254 . S
C147 O143 1.269 . S
C148 O149 1.249 . S
C148 O150 1.270 . S
O149 Zn141 1.943 1_556 S
O149 C148 1.249 . S
O150 Zn140 2.067 . S
O150 C148 1.270 . S
C151 O144 1.262 . S
C151 O152 1.232 . S
O152 C151 1.232 . S
C153 O145 1.260 . S
C153 O146 1.257 1_556 S
Zn154 O157 2.031 . S
Zn154 O159 2.049 . S
Zn154 O164 2.067 . S
Zn155 O156 1.962 . S
Zn155 O158 1.986 . S
Zn155 O160 1.996 . S
Zn155 O163 1.943 . S
O156 Zn155 1.962 . S
O156 C161 1.254 . S
O157 Zn154 2.031 . S
O157 C161 1.269 . S
O158 Zn155 1.986 . S
O158 C165 1.262 . S
O159 Zn154 2.049 . S
O159 C167 1.260 . S
O160 Zn155 1.996 . S
O160 C167 1.257 . S
C161 O156 1.254 . S
C161 O157 1.269 . S
C162 O163 1.249 . S
C162 O164 1.270 . S
O163 Zn155 1.943 . S
O163 C162 1.249 . S
O164 Zn154 2.067 . S
O164 C162 1.270 . S
C165 O158 1.262 . S
C165 O166 1.232 . S
O166 C165 1.232 . S
C167 O159 1.260 . S
C167 O160 1.257 . S
Zn168 O171 2.031 . S
Zn168 O173 2.049 . S
Zn168 O178 2.067 . S
Zn169 O170 1.962 . S
Zn169 O172 1.986 . S
Zn169 O174 1.996 . S
Zn169 O177 1.943 . S
O170 Zn169 1.962 . S
O170 C175 1.254 . S
O171 Zn168 2.031 . S
O171 C175 1.269 . S
O172 Zn169 1.986 . S
O172 C179 1.262 . S
O173 Zn168 2.049 . S
O173 C181 1.260 . S
O174 Zn169 1.996 . S
O174 C181 1.257 . S
C175 O170 1.254 . S
C175 O171 1.269 . S
C176 O177 1.249 . S
C176 O178 1.270 . S
O177 Zn169 1.943 . S
O177 C176 1.249 . S
O178 Zn168 2.067 . S
O178 C176 1.270 . S
C179 O172 1.262 . S
C179 O180 1.232 . S
O180 C179 1.232 . S
C181 O173 1.260 . S
C181 O174 1.257 . S
Zn182 O185 2.031 . S
Zn182 O187 2.049 . S
Zn182 O192 2.067 . S
Zn183 O184 1.962 . S
Zn183 O186 1.986 . S
Zn183 O188 1.996 . S
Zn183 O191 1.943 . S
O184 Zn183 1.962 . S
O184 C189 1.254 . S
O185 Zn182 2.031 . S
O185 C189 1.269 . S
O186 Zn183 1.986 . S
O186 C193 1.262 . S
O187 Zn182 2.049 . S
O187 C195 1.260 . S
O188 Zn183 1.996 . S
O188 C195 1.257 . S
C189 O184 1.254 . S
C189 O185 1.269 . S
C190 O191 1.249 . S
C190 O192 1.270 . S
O191 Zn183 1.943 . S
O191 C190 1.249 . S
O192 Zn182 2.067 . S
O192 C190 1.270 . S
C193 O186 1.262 . S
C193 O194 1.232 . S
O194 C193 1.232 . S
C195 O187 1.260 . S
C195 O188 1.257 . S
Zn196 O199 2.031 1_554 S
Zn196 O201 2.049 . S
Zn196 O206 2.067 . S
Zn197 O198 1.962 . S
Zn197 O200 1.986 . S
Zn197 O202 1.996 1_556 S
Zn197 O205 1.943 1_556 S
O198 Zn197 1.962 . S
O198 C203 1.254 . S
O199 Zn196 2.031 1_556 S
O199 C203 1.269 . S
O200 Zn197 1.986 . S
O200 C207 1.262 . S
O201 Zn196 2.049 . S
O201 C209 1.260 . S
O202 Zn197 1.996 1_554 S
O202 C209 1.257 . S
C203 O198 1.254 . S
C203 O199 1.269 . S
C204 O205 1.249 . S
C204 O206 1.270 . S
O205 Zn197 1.943 1_554 S
O205 C204 1.249 . S
O206 Zn196 2.067 . S
O206 C204 1.270 . S
C207 O200 1.262 . S
C207 O208 1.232 . S
O208 C207 1.232 . S
C209 O201 1.260 . S
C209 O202 1.257 . S
Zn210 O213 2.031 . S
Zn210 O215 2.049 . S
Zn210 O220 2.067 . S
Zn211 O212 1.962 . S
Zn211 O214 1.986 . S
Zn211 O216 1.996 . S
Zn211 O219 1.943 . S
O212 Zn211 1.962 . S
O212 C217 1.254 . S
O213 Zn210 2.031 . S
O213 C217 1.269 . S
O214 Zn211 1.986 . S
O214 C221 1.262 . S
O215 Zn210 2.049 . S
O215 C223 1.260 . S
O216 Zn211 1.996 . S
O216 C223 1.257 . S
C217 O212 1.254 . S
C217 O213 1.269 . S
C218 O219 1.249 . S
C218 O220 1.270 . S
O219 Zn211 1.943 . S
O219 C218 1.249 . S
O220 Zn210 2.067 . S
O220 C218 1.270 . S
C221 O214 1.262 . S
C221 O222 1.232 . S
O222 C221 1.232 . S
C223 O215 1.260 . S
C223 O216 1.257 . S
H224 C230 0.930 . S
H225 C233 0.930 . S
H226 C234 0.930 . S
H227 C235 0.930 . S
H228 C238 0.930 . S
H229 C239 0.930 . S
C230 H224 0.930 . S
C230 C231 1.355 . S
C230 C232 1.415 . S
C231 C230 1.355 . S
C231 C233 1.419 . S
C232 C230 1.415 . S
C232 C237 1.425 . S
C232 C239 1.409 . S
C233 H225 0.930 . S
C233 C231 1.419 . S
C233 C234 1.362 . S
C234 H226 0.930 . S
C234 C233 1.362 . S
C234 C237 1.409 . S
C235 H227 0.930 . S
C235 C236 1.355 . S
C235 C237 1.415 . S
C236 C235 1.355 . S
C236 C238 1.419 . S
C237 C232 1.425 . S
C237 C234 1.409 . S
C237 C235 1.415 . S
C238 H228 0.930 . S
C238 C236 1.419 . S
C238 C239 1.362 . S
C239 H229 0.930 . S
C239 C232 1.409 . S
C239 C238 1.362 . S
H240 C246 0.930 . S
H241 C249 0.930 . S
H242 C250 0.928 1_565 S
H243 C251 0.927 1_565 S
H244 C254 0.930 . S
H245 C255 0.930 . S
C246 H240 0.930 . S
C246 C247 1.355 . S
C246 C248 1.415 1_655 S
C247 C246 1.355 . S
C247 C249 1.419 . S
C248 C246 1.415 1_455 S
C248 C253 1.425 1_455 S
C248 C255 1.409 . S
C249 H241 0.930 . S
C249 C247 1.419 . S
C249 C250 1.362 . S
C250 H242 0.928 1_545 S
C250 C249 1.362 . S
C250 C253 1.409 . S
C251 H243 0.927 1_545 S
C251 C252 1.356 . S
C251 C253 1.418 1_455 S
C252 C251 1.356 . S
C252 C254 1.426 . S
C253 C248 1.425 1_655 S
C253 C250 1.409 . S
C253 C251 1.418 1_655 S
C254 H244 0.930 . S
C254 C252 1.426 . S
C254 C255 1.362 . S
C255 H245 0.930 . S
C255 C248 1.409 . S
C255 C254 1.362 . S
H256 C262 0.930 . S
H257 C265 0.930 . S
H258 C266 0.930 . S
H259 C267 0.930 . S
H260 C270 0.930 . S
H261 C271 0.930 . S
C262 H256 0.930 . S
C262 C263 1.355 . S
C262 C264 1.415 . S
C263 C262 1.355 . S
C263 C265 1.419 . S
C264 C262 1.415 . S
C264 C269 1.425 . S
C264 C271 1.409 . S
C265 H257 0.930 . S
C265 C263 1.419 . S
C265 C266 1.362 . S
C266 H258 0.930 . S
C266 C265 1.362 . S
C266 C269 1.409 . S
C267 H259 0.930 . S
C267 C268 1.355 . S
C267 C269 1.415 . S
C268 C267 1.355 . S
C268 C270 1.419 . S
C269 C264 1.425 . S
C269 C266 1.409 . S
C269 C267 1.415 . S
C270 H260 0.930 . S
C270 C268 1.419 . S
C270 C271 1.362 . S
C271 H261 0.930 . S
C271 C264 1.409 . S
C271 C270 1.362 . S
H272 C278 0.930 . S
H273 C281 0.930 1_565 S
H274 C282 0.930 . S
H275 C283 0.930 . S
H276 C286 0.930 . S
H277 C287 0.930 . S
C278 H272 0.930 . S
C278 C279 1.355 . S
C278 C280 1.415 . S
C279 C278 1.355 . S
C279 C281 1.419 . S
C280 C278 1.415 . S
C280 C285 1.425 1_554 S
C280 C287 1.409 . S
C281 H273 0.930 1_545 S
C281 C279 1.419 . S
C281 C282 1.362 1_544 S
C282 H274 0.930 . S
C282 C281 1.362 1_566 S
C282 C285 1.409 1_565 S
C283 H275 0.930 . S
C283 C284 1.355 . S
C283 C285 1.415 1_565 S
C284 C283 1.355 . S
C284 C286 1.419 1_565 S
C285 C280 1.425 1_556 S
C285 C282 1.409 1_545 S
C285 C283 1.415 1_545 S
C286 H276 0.930 . S
C286 C284 1.419 1_545 S
C286 C287 1.362 1_556 S
C287 H277 0.930 . S
C287 C280 1.409 . S
C287 C286 1.362 1_554 S
H288 C294 0.930 . S
H289 C297 0.930 . S
H290 C298 0.930 . S
H291 C299 0.930 . S
H292 C302 0.930 . S
H293 C303 0.930 . S
C294 H288 0.930 . S
C294 C295 1.355 . S
C294 C296 1.415 . S
C295 C294 1.355 . S
C295 C297 1.419 . S
C296 C294 1.415 . S
C296 C301 1.425 . S
C296 C303 1.409 . S
C297 H289 0.930 . S
C297 C295 1.419 . S
C297 C298 1.362 . S
C298 H290 0.930 . S
C298 C297 1.362 . S
C298 C301 1.409 . S
C299 H291 0.930 . S
C299 C300 1.355 . S
C299 C301 1.415 . S
C300 C299 1.355 . S
C300 C302 1.419 . S
C301 C296 1.425 . S
C301 C298 1.409 . S
C301 C299 1.415 . S
C302 H292 0.930 . S
C302 C300 1.419 . S
C302 C303 1.362 . S
C303 H293 0.930 . S
C303 C296 1.409 . S
C303 C302 1.362 . S
H304 C310 0.930 . S
H305 C313 0.930 . S
H306 C314 0.930 . S
H307 C315 0.930 1_565 S
H308 C318 0.930 . S
H309 C319 0.930 . S
C310 H304 0.930 . S
C310 C311 1.355 . S
C310 C312 1.415 . S
C311 C310 1.355 . S
C311 C313 1.419 1_545 S
C312 C310 1.415 . S
C312 C317 1.425 . S
C312 C319 1.409 . S
C313 H305 0.930 . S
C313 C311 1.419 1_565 S
C313 C314 1.362 . S
C314 H306 0.930 . S
C314 C313 1.362 . S
C314 C317 1.409 1_565 S
C315 H307 0.930 1_545 S
C315 C316 1.355 . S
C315 C317 1.415 . S
C316 C315 1.355 . S
C316 C318 1.419 . S
C317 C312 1.425 . S
C317 C314 1.409 1_545 S
C317 C315 1.415 . S
C318 H308 0.930 . S
C318 C316 1.419 . S
C318 C319 1.362 . S
C319 H309 0.930 . S
C319 C312 1.409 . S
C319 C318 1.362 . S
H320 C326 0.930 . S
H321 C329 0.930 . S
H322 C330 0.930 . S
H323 C331 0.930 . S
H324 C334 0.930 . S
H325 C335 0.930 . S
C326 H320 0.930 . S
C326 C327 1.355 . S
C326 C328 1.415 . S
C327 C326 1.355 . S
C327 C329 1.419 . S
C328 C326 1.415 . S
C328 C333 1.425 . S
C328 C335 1.409 . S
C329 H321 0.930 . S
C329 C327 1.419 . S
C329 C330 1.362 . S
C330 H322 0.930 . S
C330 C329 1.362 . S
C330 C333 1.409 . S
C331 H323 0.930 . S
C331 C332 1.355 . S
C331 C333 1.415 . S
C332 C331 1.355 . S
C332 C334 1.419 . S
C333 C328 1.425 . S
C333 C330 1.409 . S
C333 C331 1.415 . S
C334 H324 0.930 . S
C334 C332 1.419 . S
C334 C335 1.362 . S
C335 H325 0.930 . S
C335 C328 1.409 . S
C335 C334 1.362 . S
H336 C342 0.930 . S
H337 C345 0.930 . S
H338 C346 0.930 . S
H339 C347 0.930 . S
H340 C350 0.928 1_565 S
H341 C351 0.930 . S
C342 H336 0.930 . S
C342 C343 1.355 . S
C342 C344 1.415 1_455 S
C343 C342 1.355 . S
C343 C345 1.419 . S
C344 C342 1.415 1_655 S
C344 C349 1.425 1_656 S
C344 C351 1.409 . S
C345 H337 0.930 . S
C345 C343 1.419 . S
C345 C346 1.362 1_556 S
C346 H338 0.930 . S
C346 C345 1.362 1_554 S
C346 C349 1.409 . S
C347 H339 0.930 . S
C347 C348 1.357 . S
C347 C349 1.415 1_655 S
C348 C347 1.357 . S
C348 C350 1.419 . S
C349 C344 1.425 1_454 S
C349 C346 1.409 . S
C349 C347 1.415 1_455 S
C350 H340 0.928 1_545 S
C350 C348 1.419 . S
C350 C351 1.367 1_554 S
C351 H341 0.930 . S
C351 C344 1.409 . S
C351 C350 1.367 1_556 S
H352 C358 0.930 . S
H353 C361 0.930 . S
H354 C362 0.930 . S
H355 C363 0.930 . S
H356 C366 0.930 . S
H357 C367 0.930 . S
C358 H352 0.930 . S
C358 C359 1.355 . S
C358 C360 1.415 . S
C359 C358 1.355 . S
C359 C361 1.419 . S
C360 C358 1.415 . S
C360 C365 1.425 . S
C360 C367 1.409 . S
C361 H353 0.930 . S
C361 C359 1.419 . S
C361 C362 1.362 . S
C362 H354 0.930 . S
C362 C361 1.362 . S
C362 C365 1.409 . S
C363 H355 0.930 . S
C363 C364 1.355 . S
C363 C365 1.415 . S
C364 C363 1.355 . S
C364 C366 1.419 . S
C365 C360 1.425 . S
C365 C362 1.409 . S
C365 C363 1.415 . S
C366 H356 0.930 . S
C366 C364 1.419 . S
C366 C367 1.362 . S
C367 H357 0.930 . S
C367 C360 1.409 . S
C367 C366 1.362 . S
H368 C374 0.930 . S
H369 C377 0.930 . S
H370 C378 0.930 . S
H371 C379 0.930 . S
H372 C382 0.930 . S
H373 C383 0.930 . S
C374 H368 0.930 . S
C374 C375 1.355 . S
C374 C376 1.415 . S
C375 C374 1.355 . S
C375 C377 1.419 . S
C376 C374 1.415 . S
C376 C381 1.425 . S
C376 C383 1.409 . S
C377 H369 0.930 . S
C377 C375 1.419 . S
C377 C378 1.362 . S
C378 H370 0.930 . S
C378 C377 1.362 . S
C378 C381 1.409 . S
C379 H371 0.930 . S
C379 C380 1.355 . S
C379 C381 1.415 . S
C380 C379 1.355 . S
C380 C382 1.419 . S
C381 C376 1.425 . S
C381 C378 1.409 . S
C381 C379 1.415 . S
C382 H372 0.930 . S
C382 C380 1.419 . S
C382 C383 1.362 . S
C383 H373 0.930 . S
C383 C376 1.409 . S
C383 C382 1.362 . S
H384 C390 0.930 . S
H385 C393 0.930 . S
H386 C394 0.930 . S
H387 C395 0.930 . S
H388 C398 0.930 . S
H389 C399 0.930 . S
C390 H384 0.930 . S
C390 C391 1.355 . S
C390 C392 1.415 . S
C391 C390 1.355 . S
C391 C393 1.419 . S
C392 C390 1.415 . S
C392 C397 1.425 . S
C392 C399 1.409 . S
C393 H385 0.930 . S
C393 C391 1.419 . S
C393 C394 1.362 . S
C394 H386 0.930 . S
C394 C393 1.362 . S
C394 C397 1.409 . S
C395 H387 0.930 . S
C395 C396 1.355 . S
C395 C397 1.415 . S
C396 C395 1.355 . S
C396 C398 1.419 . S
C397 C392 1.425 . S
C397 C394 1.409 . S
C397 C395 1.415 . S
C398 H388 0.930 . S
C398 C396 1.419 . S
C398 C399 1.362 . S
C399 H389 0.930 . S
C399 C392 1.409 . S
C399 C398 1.362 . S
H400 C406 0.930 . S
H401 C409 0.930 . S
H402 C410 0.930 . S
H403 C411 0.930 . S
H404 C414 0.930 . S
H405 C415 0.930 . S
C406 H400 0.930 . S
C406 C407 1.355 . S
C406 C408 1.415 . S
C407 C406 1.355 . S
C407 C409 1.419 . S
C408 C406 1.415 . S
C408 C413 1.425 . S
C408 C415 1.409 . S
C409 H401 0.930 . S
C409 C407 1.419 . S
C409 C410 1.362 . S
C410 H402 0.930 . S
C410 C409 1.362 . S
C410 C413 1.409 . S
C411 H403 0.930 . S
C411 C412 1.355 . S
C411 C413 1.415 . S
C412 C411 1.355 . S
C412 C414 1.419 . S
C413 C408 1.425 . S
C413 C410 1.409 . S
C413 C411 1.415 . S
C414 H404 0.930 . S
C414 C412 1.419 . S
C414 C415 1.362 . S
C415 H405 0.930 . S
C415 C408 1.409 . S
C415 C414 1.362 . S
H416 C422 0.930 . S
H417 C425 0.930 . S
H418 C426 0.930 . S
H419 C427 0.930 . S
H420 C430 0.930 . S
H421 C431 0.930 . S
C422 H416 0.930 . S
C422 C423 1.355 . S
C422 C424 1.415 . S
C423 C422 1.355 . S
C423 C425 1.419 . S
C424 C422 1.415 . S
C424 C429 1.425 1_554 S
C424 C431 1.409 . S
C425 H417 0.930 . S
C425 C423 1.419 . S
C425 C426 1.362 1_554 S
C426 H418 0.930 . S
C426 C425 1.362 1_556 S
C426 C429 1.409 . S
C427 H419 0.930 . S
C427 C428 1.355 . S
C427 C429 1.415 . S
C428 C427 1.355 . S
C428 C430 1.419 . S
C429 C424 1.425 1_556 S
C429 C426 1.409 . S
C429 C427 1.415 . S
C430 H420 0.930 . S
C430 C428 1.419 . S
C430 C431 1.362 1_556 S
C431 H421 0.930 . S
C431 C424 1.409 . S
C431 C430 1.362 1_554 S
H432 C438 0.930 . S
H433 C441 0.930 . S
H434 C442 0.930 . S
H435 C443 0.930 . S
H436 C446 0.930 . S
H437 C447 0.930 . S
C438 H432 0.930 . S
C438 C439 1.355 . S
C438 C440 1.415 1_455 S
C439 C438 1.355 . S
C439 C441 1.419 . S
C440 C438 1.415 1_655 S
C440 C445 1.425 1_655 S
C440 C447 1.409 . S
C441 H433 0.930 . S
C441 C439 1.419 . S
C441 C442 1.362 . S
C442 H434 0.930 . S
C442 C441 1.362 . S
C442 C445 1.409 . S
C443 H435 0.930 . S
C443 C444 1.355 . S
C443 C445 1.415 1_655 S
C444 C443 1.355 . S
C444 C446 1.419 . S
C445 C440 1.425 1_455 S
C445 C442 1.409 . S
C445 C443 1.415 1_455 S
C446 H436 0.930 . S
C446 C444 1.419 . S
C446 C447 1.362 . S
C447 H437 0.930 . S
C447 C440 1.409 . S
C447 C446 1.362 . S
H448 C454 0.930 . S
H449 C457 0.930 . S
H450 C458 0.930 . S
H451 C459 0.930 . S
H452 C462 0.930 . S
H453 C463 0.930 . S
C454 H448 0.930 . S
C454 C455 1.355 . S
C454 C456 1.415 1_554 S
C455 C454 1.355 . S
C455 C457 1.419 . S
C456 C454 1.415 1_556 S
C456 C461 1.425 1_456 S
C456 C463 1.409 . S
C457 H449 0.930 . S
C457 C455 1.419 . S
C457 C458 1.362 1_455 S
C458 H450 0.930 . S
C458 C457 1.362 1_655 S
C458 C461 1.409 . S
C459 H451 0.930 . S
C459 C460 1.355 . S
C459 C461 1.415 1_556 S
C460 C459 1.355 . S
C460 C462 1.419 . S
C461 C456 1.425 1_654 S
C461 C458 1.409 . S
C461 C459 1.415 1_554 S
C462 H452 0.930 . S
C462 C460 1.419 . S
C462 C463 1.362 1_655 S
C463 H453 0.930 . S
C463 C456 1.409 . S
C463 C462 1.362 1_455 S
H464 C470 0.930 . S
H465 C473 0.930 . S
H466 C474 0.930 . S
H467 C475 0.930 . S
H468 C478 0.930 . S
H469 C479 0.930 . S
C470 H464 0.930 . S
C470 C471 1.355 . S
C470 C472 1.415 . S
C471 C470 1.355 . S
C471 C473 1.419 . S
C472 C470 1.415 . S
C472 C477 1.425 . S
C472 C479 1.409 . S
C473 H465 0.930 . S
C473 C471 1.419 . S
C473 C474 1.362 . S
C474 H466 0.930 . S
C474 C473 1.362 . S
C474 C477 1.409 . S
C475 H467 0.930 . S
C475 C476 1.355 . S
C475 C477 1.415 . S
C476 C475 1.355 . S
C476 C478 1.419 . S
C477 C472 1.425 . S
C477 C474 1.409 . S
C477 C475 1.415 . S
C478 H468 0.930 . S
C478 C476 1.419 . S
C478 C479 1.362 . S
C479 H469 0.930 . S
C479 C472 1.409 . S
C479 C478 1.362 . S
H480 C486 0.930 . S
H481 C489 0.930 . S
H482 C490 0.930 . S
H483 C491 0.930 . S
H484 C494 0.930 . S
H485 C495 0.930 . S
C486 H480 0.930 . S
C486 C487 1.355 . S
C486 C488 1.415 . S
C487 C486 1.355 . S
C487 C489 1.419 . S
C488 C486 1.415 . S
C488 C493 1.425 . S
C488 C495 1.409 . S
C489 H481 0.930 . S
C489 C487 1.419 . S
C489 C490 1.362 . S
C490 H482 0.930 . S
C490 C489 1.362 . S
C490 C493 1.409 . S
C491 H483 0.930 . S
C491 C492 1.355 . S
C491 C493 1.415 . S
C492 C491 1.355 . S
C492 C494 1.419 . S
C493 C488 1.425 . S
C493 C490 1.409 . S
C493 C491 1.415 . S
C494 H484 0.930 . S
C494 C492 1.419 . S
C494 C495 1.362 . S
C495 H485 0.930 . S
C495 C488 1.409 . S
C495 C494 1.362 . S
H496 C502 0.930 . S
H497 C505 0.930 . S
H498 C506 0.930 . S
H499 C507 0.930 . S
H500 C510 0.930 . S
H501 C511 0.930 . S
C502 H496 0.930 . S
C502 C503 1.355 . S
C502 C504 1.415 . S
C503 C502 1.355 . S
C503 C505 1.419 . S
C504 C502 1.415 . S
C504 C509 1.425 . S
C504 C511 1.409 . S
C505 H497 0.930 . S
C505 C503 1.419 . S
C505 C506 1.362 . S
C506 H498 0.930 . S
C506 C505 1.362 . S
C506 C509 1.409 . S
C507 H499 0.930 . S
C507 C508 1.355 . S
C507 C509 1.415 . S
C508 C507 1.355 . S
C508 C510 1.419 . S
C509 C504 1.425 . S
C509 C506 1.409 . S
C509 C507 1.415 . S
C510 H500 0.930 . S
C510 C508 1.419 . S
C510 C511 1.362 . S
C511 H501 0.930 . S
C511 C504 1.409 . S
C511 C510 1.362 . S
H512 C518 0.930 . S
H513 C521 0.930 . S
H514 C522 0.930 . S
H515 C523 0.930 . S
H516 C526 0.930 . S
H517 C527 0.930 . S
C518 H512 0.930 . S
C518 C519 1.355 . S
C518 C520 1.415 . S
C519 C518 1.355 . S
C519 C521 1.419 . S
C520 C518 1.415 . S
C520 C525 1.425 . S
C520 C527 1.409 . S
C521 H513 0.930 . S
C521 C519 1.419 . S
C521 C522 1.362 . S
C522 H514 0.930 . S
C522 C521 1.362 . S
C522 C525 1.409 . S
C523 H515 0.930 . S
C523 C524 1.355 . S
C523 C525 1.415 . S
C524 C523 1.355 . S
C524 C526 1.419 . S
C525 C520 1.425 . S
C525 C522 1.409 . S
C525 C523 1.415 . S
C526 H516 0.930 . S
C526 C524 1.419 . S
C526 C527 1.362 . S
C527 H517 0.930 . S
C527 C520 1.409 . S
C527 C526 1.362 . S
H528 C534 0.930 . S
H529 C537 0.930 . S
H530 C538 0.930 . S
H531 C539 0.930 . S
H532 C542 0.930 . S
H533 C543 0.930 . S
C534 H528 0.930 . S
C534 C535 1.355 . S
C534 C536 1.415 . S
C535 C534 1.355 . S
C535 C537 1.419 . S
C536 C534 1.415 . S
C536 C541 1.425 . S
C536 C543 1.409 . S
C537 H529 0.930 . S
C537 C535 1.419 . S
C537 C538 1.362 . S
C538 H530 0.930 . S
C538 C537 1.362 . S
C538 C541 1.409 . S
C539 H531 0.930 . S
C539 C540 1.355 . S
C539 C541 1.415 . S
C540 C539 1.355 . S
C540 C542 1.419 . S
C541 C536 1.425 . S
C541 C538 1.409 . S
C541 C539 1.415 . S
C542 H532 0.930 . S
C542 C540 1.419 . S
C542 C543 1.362 . S
C543 H533 0.930 . S
C543 C536 1.409 . S
C543 C542 1.362 . S
H544 C550 0.930 . S
H545 C553 0.930 . S
H546 C554 0.930 . S
H547 C555 0.930 . S
H548 C558 0.930 . S
H549 C559 0.930 . S
C550 H544 0.930 . S
C550 C551 1.355 . S
C550 C552 1.415 . S
C551 C550 1.355 . S
C551 C553 1.419 . S
C552 C550 1.415 . S
C552 C557 1.425 . S
C552 C559 1.409 . S
C553 H545 0.930 . S
C553 C551 1.419 . S
C553 C554 1.362 . S
C554 H546 0.930 . S
C554 C553 1.362 . S
C554 C557 1.409 . S
C555 H547 0.930 . S
C555 C556 1.355 . S
C555 C557 1.415 . S
C556 C555 1.355 . S
C556 C558 1.419 . S
C557 C552 1.425 . S
C557 C554 1.409 . S
C557 C555 1.415 . S
C558 H548 0.930 . S
C558 C556 1.419 . S
C558 C559 1.362 . S
C559 H549 0.930 . S
C559 C552 1.409 . S
C559 C558 1.362 . S
H560 C566 0.930 . S
H561 C569 0.930 . S
H562 C570 0.930 . S
H563 C571 0.930 . S
H564 C574 0.930 . S
H565 C575 0.930 . S
C566 H560 0.930 . S
C566 C567 1.355 . S
C566 C568 1.415 . S
C567 C566 1.355 . S
C567 C569 1.419 . S
C568 C566 1.415 . S
C568 C573 1.425 . S
C568 C575 1.409 . S
C569 H561 0.930 . S
C569 C567 1.419 . S
C569 C570 1.362 . S
C570 H562 0.930 . S
C570 C569 1.362 . S
C570 C573 1.409 . S
C571 H563 0.930 . S
C571 C572 1.355 . S
C571 C573 1.415 . S
C572 C571 1.355 . S
C572 C574 1.419 . S
C573 C568 1.425 . S
C573 C570 1.409 . S
C573 C571 1.415 . S
C574 H564 0.930 . S
C574 C572 1.419 . S
C574 C575 1.362 . S
C575 H565 0.930 . S
C575 C568 1.409 . S
C575 C574 1.362 . S
H576 C582 0.930 . S
H577 C585 0.930 . S
H578 C586 0.930 . S
H579 C587 0.930 . S
H580 C590 0.930 . S
H581 C591 0.930 . S
C582 H576 0.930 . S
C582 C583 1.355 . S
C582 C584 1.415 . S
C583 C582 1.355 . S
C583 C585 1.419 . S
C584 C582 1.415 . S
C584 C589 1.425 . S
C584 C591 1.409 . S
C585 H577 0.930 . S
C585 C583 1.419 . S
C585 C586 1.362 . S
C586 H578 0.930 . S
C586 C585 1.362 . S
C586 C589 1.409 . S
C587 H579 0.930 . S
C587 C588 1.355 . S
C587 C589 1.415 . S
C588 C587 1.355 . S
C588 C590 1.419 . S
C589 C584 1.425 . S
C589 C586 1.409 . S
C589 C587 1.415 . S
C590 H580 0.930 . S
C590 C588 1.419 . S
C590 C591 1.362 . S
C591 H581 0.930 . S
C591 C584 1.409 . S
C591 C590 1.362 . S
H592 C598 0.930 . S
H593 C601 0.930 1_556 S
H594 C602 0.930 1_556 S
H595 C603 0.930 . S
H596 C606 0.930 . S
H597 C607 0.930 . S
C598 H592 0.930 . S
C598 C599 1.355 . S
C598 C600 1.415 . S
C599 C598 1.355 . S
C599 C601 1.419 . S
C600 C598 1.415 . S
C600 C605 1.425 . S
C600 C607 1.409 . S
C601 H593 0.930 1_554 S
C601 C599 1.419 . S
C601 C602 1.362 . S
C602 H594 0.930 1_554 S
C602 C601 1.362 . S
C602 C605 1.409 . S
C603 H595 0.930 . S
C603 C604 1.355 . S
C603 C605 1.415 . S
C604 C603 1.355 . S
C604 C606 1.419 . S
C605 C600 1.425 . S
C605 C602 1.409 . S
C605 C603 1.415 . S
C606 H596 0.930 . S
C606 C604 1.419 . S
C606 C607 1.362 . S
C607 H597 0.930 . S
C607 C600 1.409 . S
C607 C606 1.362 . S
H608 C614 0.930 1_554 S
H609 C617 0.930 . S
H610 C618 0.930 . S
H611 C619 0.930 . S
H612 C622 0.930 . S
H613 C623 0.922 1_554 S
C614 H608 0.930 1_556 S
C614 C615 1.355 . S
C614 C616 1.415 . S
C615 C614 1.355 . S
C615 C617 1.419 . S
C616 C614 1.415 . S
C616 C621 1.425 . S
C616 C623 1.409 . S
C617 H609 0.930 . S
C617 C615 1.419 . S
C617 C618 1.362 . S
C618 H610 0.930 . S
C618 C617 1.362 . S
C618 C621 1.409 . S
C619 H611 0.930 . S
C619 C620 1.355 . S
C619 C621 1.415 . S
C620 C619 1.355 . S
C620 C622 1.419 . S
C621 C616 1.425 . S
C621 C618 1.409 . S
C621 C619 1.415 . S
C622 H612 0.930 . S
C622 C620 1.419 . S
C622 C623 1.362 . S
C623 H613 0.922 1_556 S
C623 C616 1.409 . S
C623 C622 1.362 . S
H624 C630 0.930 . S
H625 C633 0.930 . S
H626 C634 0.930 . S
H627 C635 0.930 . S
H628 C638 0.930 . S
H629 C639 0.930 . S
C630 H624 0.930 . S
C630 C631 1.355 . S
C630 C632 1.415 . S
C631 C630 1.355 . S
C631 C633 1.419 . S
C632 C630 1.415 . S
C632 C637 1.425 . S
C632 C639 1.409 . S
C633 H625 0.930 . S
C633 C631 1.419 . S
C633 C634 1.362 . S
C634 H626 0.930 . S
C634 C633 1.362 . S
C634 C637 1.409 . S
C635 H627 0.930 . S
C635 C636 1.355 . S
C635 C637 1.415 . S
C636 C635 1.355 . S
C636 C638 1.419 . S
C637 C632 1.425 . S
C637 C634 1.409 . S
C637 C635 1.415 . S
C638 H628 0.930 . S
C638 C636 1.419 . S
C638 C639 1.362 . S
C639 H629 0.930 . S
C639 C632 1.409 . S
C639 C638 1.362 . S
H640 C646 0.930 . S
H641 C649 0.930 . S
H642 C650 0.930 . S
H643 C651 0.930 . S
H644 C654 0.930 . S
H645 C655 0.930 . S
C646 H640 0.930 . S
C646 C647 1.355 . S
C646 C648 1.415 . S
C647 C646 1.355 . S
C647 C649 1.419 . S
C648 C646 1.415 . S
C648 C653 1.425 . S
C648 C655 1.409 . S
C649 H641 0.930 . S
C649 C647 1.419 . S
C649 C650 1.362 . S
C650 H642 0.930 . S
C650 C649 1.362 . S
C650 C653 1.409 . S
C651 H643 0.930 . S
C651 C652 1.355 . S
C651 C653 1.415 . S
C652 C651 1.355 . S
C652 C654 1.419 . S
C653 C648 1.425 . S
C653 C650 1.409 . S
C653 C651 1.415 . S
C654 H644 0.930 . S
C654 C652 1.419 . S
C654 C655 1.362 . S
C655 H645 0.930 . S
C655 C648 1.409 . S
C655 C654 1.362 . S
H656 C662 0.930 . S
H657 C665 0.930 . S
H658 C666 0.930 . S
H659 C667 0.930 . S
H660 C670 0.930 1_556 S
H661 C671 0.930 . S
C662 H656 0.930 . S
C662 C663 1.355 . S
C662 C664 1.415 . S
C663 C662 1.355 . S
C663 C665 1.419 . S
C664 C662 1.415 . S
C664 C669 1.425 . S
C664 C671 1.409 . S
C665 H657 0.930 . S
C665 C663 1.419 . S
C665 C666 1.362 . S
C666 H658 0.930 . S
C666 C665 1.362 . S
C666 C669 1.409 . S
C667 H659 0.930 . S
C667 C668 1.355 . S
C667 C669 1.415 . S
C668 C667 1.355 . S
C668 C670 1.419 . S
C669 C664 1.425 . S
C669 C666 1.409 . S
C669 C667 1.415 . S
C670 H660 0.930 1_554 S
C670 C668 1.419 . S
C670 C671 1.362 . S
C671 H661 0.930 . S
C671 C664 1.409 . S
C671 C670 1.362 . S
H672 C678 0.930 . S
H673 C681 0.930 . S
H674 C682 0.930 . S
H675 C683 0.930 . S
H676 C686 0.930 . S
H677 C687 0.930 . S
C678 H672 0.930 . S
C678 C679 1.355 . S
C678 C680 1.415 . S
C679 C678 1.355 . S
C679 C681 1.419 . S
C680 C678 1.415 . S
C680 C685 1.425 . S
C680 C687 1.409 . S
C681 H673 0.930 . S
C681 C679 1.419 . S
C681 C682 1.362 . S
C682 H674 0.930 . S
C682 C681 1.362 . S
C682 C685 1.409 . S
C683 H675 0.930 . S
C683 C684 1.355 . S
C683 C685 1.415 . S
C684 C683 1.355 . S
C684 C686 1.419 . S
C685 C680 1.425 . S
C685 C682 1.409 . S
C685 C683 1.415 . S
C686 H676 0.930 . S
C686 C684 1.419 . S
C686 C687 1.362 . S
C687 H677 0.930 . S
C687 C680 1.409 . S
C687 C686 1.362 . S
H688 C694 0.930 . S
H689 C697 0.930 . S
H690 C698 0.930 . S
H691 C699 0.930 . S
H692 C702 0.930 . S
H693 C703 0.930 . S
C694 H688 0.930 . S
C694 C695 1.355 . S
C694 C696 1.415 . S
C695 C694 1.355 . S
C695 C697 1.419 . S
C696 C694 1.415 . S
C696 C701 1.425 . S
C696 C703 1.409 . S
C697 H689 0.930 . S
C697 C695 1.419 . S
C697 C698 1.362 . S
C698 H690 0.930 . S
C698 C697 1.362 . S
C698 C701 1.409 . S
C699 H691 0.930 . S
C699 C700 1.355 . S
C699 C701 1.415 . S
C700 C699 1.355 . S
C700 C702 1.419 . S
C701 C696 1.425 . S
C701 C698 1.409 . S
C701 C699 1.415 . S
C702 H692 0.930 . S
C702 C700 1.419 . S
C702 C703 1.362 . S
C703 H693 0.930 . S
C703 C696 1.409 . S
C703 C702 1.362 . S
H704 C710 0.930 . S
H705 C713 0.930 . S
H706 C714 0.930 . S
H707 C715 0.930 . S
H708 C718 0.930 . S
H709 C719 0.930 . S
C710 H704 0.930 . S
C710 C711 1.355 . S
C710 C712 1.415 . S
C711 C710 1.355 . S
C711 C713 1.419 . S
C712 C710 1.415 . S
C712 C717 1.425 . S
C712 C719 1.409 . S
C713 H705 0.930 . S
C713 C711 1.419 . S
C713 C714 1.362 . S
C714 H706 0.930 . S
C714 C713 1.362 . S
C714 C717 1.409 . S
C715 H707 0.930 . S
C715 C716 1.355 . S
C715 C717 1.415 . S
C716 C715 1.355 . S
C716 C718 1.419 . S
C717 C712 1.425 . S
C717 C714 1.409 . S
C717 C715 1.415 . S
C718 H708 0.930 . S
C718 C716 1.419 . S
C718 C719 1.362 . S
C719 H709 0.930 . S
C719 C712 1.409 . S
C719 C718 1.362 . S
H720 C726 0.930 1_554 S
H721 C729 0.930 . S
H722 C730 0.930 . S
H723 C731 0.930 . S
H724 C734 0.930 . S
H725 C735 0.922 1_554 S
C726 H720 0.930 1_556 S
C726 C727 1.355 . S
C726 C728 1.415 . S
C727 C726 1.355 . S
C727 C729 1.419 . S
C728 C726 1.415 . S
C728 C733 1.425 . S
C728 C735 1.409 . S
C729 H721 0.930 . S
C729 C727 1.419 . S
C729 C730 1.362 . S
C730 H722 0.930 . S
C730 C729 1.362 . S
C730 C733 1.409 . S
C731 H723 0.930 . S
C731 C732 1.355 . S
C731 C733 1.415 . S
C732 C731 1.355 . S
C732 C734 1.419 . S
C733 C728 1.425 . S
C733 C730 1.409 . S
C733 C731 1.415 . S
C734 H724 0.930 . S
C734 C732 1.419 . S
C734 C735 1.362 . S
C735 H725 0.922 1_556 S
C735 C728 1.409 . S
C735 C734 1.362 . S
C231 C7 1.114 . S
C236 C175 1.114 . S
C247 C22 1.262 . S
C252 C78 1.267 . S
C263 C35 1.093 . S
C268 C203 1.093 . S
C279 C106 1.280 . S
C284 C50 1.280 1_565 S
C295 C204 1.318 . S
C300 C36 1.318 . S
C311 C105 1.098 . S
C316 C49 1.098 . S
C327 C176 1.237 . S
C332 C8 1.237 . S
C343 C77 1.114 . S
C348 C21 1.114 . S
C359 C63 1.094 . S
C364 C119 1.094 . S
C375 C91 1.114 . S
C380 C147 1.114 . S
C391 C148 1.251 . S
C396 C92 1.251 . S
C407 C64 1.268 . S
C412 C120 1.268 . S
C423 C190 1.277 . S
C428 C134 1.277 . S
C439 C162 1.271 . S
C444 C218 1.271 . S
C455 C161 1.099 . S
C460 C217 1.099 . S
C471 C133 1.105 . S
C476 C189 1.105 . S
C487 C165 1.476 . S
C492 C11 1.470 . S
C503 C125 1.383 . S
C508 C27 1.444 . S
C519 C39 1.483 . S
C524 C137 1.491 . S
C535 C153 1.448 . S
C540 C55 1.368 . S
C551 C167 1.432 . S
C556 C41 1.400 . S
C567 C53 1.478 . S
C572 C123 1.486 . S
C583 C139 1.368 . S
C588 C13 1.449 . S
C599 C151 1.516 . S
C604 C25 1.513 . S
C615 C67 1.464 . S
C620 C221 1.461 . S
C631 C181 1.386 . S
C636 C83 1.420 . S
C647 C95 1.484 . S
C652 C193 1.491 . S
C663 C111 1.448 . S
C668 C209 1.376 . S
C679 C97 1.417 . S
C684 C223 1.415 . S
C695 C179 1.508 . S
C700 C109 1.513 . S
C711 C195 1.375 . S
C716 C69 1.433 . S
C727 C207 1.464 . S
C732 C81 1.461 . S
